# Generated by pormake.
# Topology gar, (4,6)-cn, num edge types: 1
# Building blocks:
#     Node 0, Type 0, BuildingBlock: GALJAG_clean_sbu_0, # of connection points: 4
#     Node 1, Type 0, BuildingBlock: GALJAG_clean_sbu_0, # of connection points: 4
#     Node 2, Type 0, BuildingBlock: GALJAG_clean_sbu_0, # of connection points: 4
#     Node 3, Type 0, BuildingBlock: GALJAG_clean_sbu_0, # of connection points: 4
#     Node 4, Type 0, BuildingBlock: GALJAG_clean_sbu_0, # of connection points: 4
#     Node 5, Type 0, BuildingBlock: GALJAG_clean_sbu_0, # of connection points: 4
#     Node 6, Type 0, BuildingBlock: GALJAG_clean_sbu_0, # of connection points: 4
#     Node 7, Type 0, BuildingBlock: GALJAG_clean_sbu_0, # of connection points: 4
#     Node 8, Type 0, BuildingBlock: GALJAG_clean_sbu_0, # of connection points: 4
#     Node 9, Type 0, BuildingBlock: GALJAG_clean_sbu_0, # of connection points: 4
#     Node 10, Type 0, BuildingBlock: GALJAG_clean_sbu_0, # of connection points: 4
#     Node 11, Type 0, BuildingBlock: GALJAG_clean_sbu_0, # of connection points: 4
#     Node 12, Type 0, BuildingBlock: GALJAG_clean_sbu_0, # of connection points: 4
#     Node 13, Type 0, BuildingBlock: GALJAG_clean_sbu_0, # of connection points: 4
#     Node 14, Type 0, BuildingBlock: GALJAG_clean_sbu_0, # of connection points: 4
#     Node 15, Type 0, BuildingBlock: GALJAG_clean_sbu_0, # of connection points: 4
#     Node 16, Type 0, BuildingBlock: GALJAG_clean_sbu_0, # of connection points: 4
#     Node 17, Type 0, BuildingBlock: GALJAG_clean_sbu_0, # of connection points: 4
#     Node 18, Type 0, BuildingBlock: GALJAG_clean_sbu_0, # of connection points: 4
#     Node 19, Type 0, BuildingBlock: GALJAG_clean_sbu_0, # of connection points: 4
#     Node 20, Type 0, BuildingBlock: GALJAG_clean_sbu_0, # of connection points: 4
#     Node 21, Type 0, BuildingBlock: GALJAG_clean_sbu_0, # of connection points: 4
#     Node 22, Type 0, BuildingBlock: GALJAG_clean_sbu_0, # of connection points: 4
#     Node 23, Type 0, BuildingBlock: GALJAG_clean_sbu_0, # of connection points: 4
#     Node 24, Type 1, BuildingBlock: KUMBUR_clean_sbu_1, # of connection points: 6
#     Node 25, Type 1, BuildingBlock: KUMBUR_clean_sbu_1, # of connection points: 6
#     Node 26, Type 1, BuildingBlock: KUMBUR_clean_sbu_1, # of connection points: 6
#     Node 27, Type 1, BuildingBlock: KUMBUR_clean_sbu_1, # of connection points: 6
#     Node 28, Type 1, BuildingBlock: KUMBUR_clean_sbu_1, # of connection points: 6
#     Node 29, Type 1, BuildingBlock: KUMBUR_clean_sbu_1, # of connection points: 6
#     Node 30, Type 1, BuildingBlock: KUMBUR_clean_sbu_1, # of connection points: 6
#     Node 31, Type 1, BuildingBlock: KUMBUR_clean_sbu_1, # of connection points: 6
#     Node 32, Type 1, BuildingBlock: KUMBUR_clean_sbu_1, # of connection points: 6
#     Node 33, Type 1, BuildingBlock: KUMBUR_clean_sbu_1, # of connection points: 6
#     Node 34, Type 1, BuildingBlock: KUMBUR_clean_sbu_1, # of connection points: 6
#     Node 35, Type 1, BuildingBlock: KUMBUR_clean_sbu_1, # of connection points: 6
#     Node 36, Type 1, BuildingBlock: KUMBUR_clean_sbu_1, # of connection points: 6
#     Node 37, Type 1, BuildingBlock: KUMBUR_clean_sbu_1, # of connection points: 6
#     Node 38, Type 1, BuildingBlock: KUMBUR_clean_sbu_1, # of connection points: 6
#     Node 39, Type 1, BuildingBlock: KUMBUR_clean_sbu_1, # of connection points: 6
#     Edge 40, Type (0, 1), BuildingBlock: MIFKUJ_clean_linker_0, # of connection points: 2
#     Edge 41, Type (0, 1), BuildingBlock: MIFKUJ_clean_linker_0, # of connection points: 2
#     Edge 42, Type (0, 1), BuildingBlock: MIFKUJ_clean_linker_0, # of connection points: 2
#     Edge 43, Type (0, 1), BuildingBlock: MIFKUJ_clean_linker_0, # of connection points: 2
#     Edge 44, Type (0, 1), BuildingBlock: MIFKUJ_clean_linker_0, # of connection points: 2
#     Edge 45, Type (0, 1), BuildingBlock: MIFKUJ_clean_linker_0, # of connection points: 2
#     Edge 46, Type (0, 1), BuildingBlock: MIFKUJ_clean_linker_0, # of connection points: 2
#     Edge 47, Type (0, 1), BuildingBlock: MIFKUJ_clean_linker_0, # of connection points: 2
#     Edge 48, Type (0, 1), BuildingBlock: MIFKUJ_clean_linker_0, # of connection points: 2
#     Edge 49, Type (0, 1), BuildingBlock: MIFKUJ_clean_linker_0, # of connection points: 2
#     Edge 50, Type (0, 1), BuildingBlock: MIFKUJ_clean_linker_0, # of connection points: 2
#     Edge 51, Type (0, 1), BuildingBlock: MIFKUJ_clean_linker_0, # of connection points: 2
#     Edge 52, Type (0, 1), BuildingBlock: MIFKUJ_clean_linker_0, # of connection points: 2
#     Edge 53, Type (0, 1), BuildingBlock: MIFKUJ_clean_linker_0, # of connection points: 2
#     Edge 54, Type (0, 1), BuildingBlock: MIFKUJ_clean_linker_0, # of connection points: 2
#     Edge 55, Type (0, 1), BuildingBlock: MIFKUJ_clean_linker_0, # of connection points: 2
#     Edge 56, Type (0, 1), BuildingBlock: MIFKUJ_clean_linker_0, # of connection points: 2
#     Edge 57, Type (0, 1), BuildingBlock: MIFKUJ_clean_linker_0, # of connection points: 2
#     Edge 58, Type (0, 1), BuildingBlock: MIFKUJ_clean_linker_0, # of connection points: 2
#     Edge 59, Type (0, 1), BuildingBlock: MIFKUJ_clean_linker_0, # of connection points: 2
#     Edge 60, Type (0, 1), BuildingBlock: MIFKUJ_clean_linker_0, # of connection points: 2
#     Edge 61, Type (0, 1), BuildingBlock: MIFKUJ_clean_linker_0, # of connection points: 2
#     Edge 62, Type (0, 1), BuildingBlock: MIFKUJ_clean_linker_0, # of connection points: 2
#     Edge 63, Type (0, 1), BuildingBlock: MIFKUJ_clean_linker_0, # of connection points: 2
#     Edge 64, Type (0, 1), BuildingBlock: MIFKUJ_clean_linker_0, # of connection points: 2
#     Edge 65, Type (0, 1), BuildingBlock: MIFKUJ_clean_linker_0, # of connection points: 2
#     Edge 66, Type (0, 1), BuildingBlock: MIFKUJ_clean_linker_0, # of connection points: 2
#     Edge 67, Type (0, 1), BuildingBlock: MIFKUJ_clean_linker_0, # of connection points: 2
#     Edge 68, Type (0, 1), BuildingBlock: MIFKUJ_clean_linker_0, # of connection points: 2
#     Edge 69, Type (0, 1), BuildingBlock: MIFKUJ_clean_linker_0, # of connection points: 2
#     Edge 70, Type (0, 1), BuildingBlock: MIFKUJ_clean_linker_0, # of connection points: 2
#     Edge 71, Type (0, 1), BuildingBlock: MIFKUJ_clean_linker_0, # of connection points: 2
#     Edge 72, Type (0, 1), BuildingBlock: MIFKUJ_clean_linker_0, # of connection points: 2
#     Edge 73, Type (0, 1), BuildingBlock: MIFKUJ_clean_linker_0, # of connection points: 2
#     Edge 74, Type (0, 1), BuildingBlock: MIFKUJ_clean_linker_0, # of connection points: 2
#     Edge 75, Type (0, 1), BuildingBlock: MIFKUJ_clean_linker_0, # of connection points: 2
#     Edge 76, Type (0, 1), BuildingBlock: MIFKUJ_clean_linker_0, # of connection points: 2
#     Edge 77, Type (0, 1), BuildingBlock: MIFKUJ_clean_linker_0, # of connection points: 2
#     Edge 78, Type (0, 1), BuildingBlock: MIFKUJ_clean_linker_0, # of connection points: 2
#     Edge 79, Type (0, 1), BuildingBlock: MIFKUJ_clean_linker_0, # of connection points: 2
#     Edge 80, Type (0, 1), BuildingBlock: MIFKUJ_clean_linker_0, # of connection points: 2
#     Edge 81, Type (0, 1), BuildingBlock: MIFKUJ_clean_linker_0, # of connection points: 2
#     Edge 82, Type (0, 1), BuildingBlock: MIFKUJ_clean_linker_0, # of connection points: 2
#     Edge 83, Type (0, 1), BuildingBlock: MIFKUJ_clean_linker_0, # of connection points: 2
#     Edge 84, Type (0, 1), BuildingBlock: MIFKUJ_clean_linker_0, # of connection points: 2
#     Edge 85, Type (0, 1), BuildingBlock: MIFKUJ_clean_linker_0, # of connection points: 2
#     Edge 86, Type (0, 1), BuildingBlock: MIFKUJ_clean_linker_0, # of connection points: 2
#     Edge 87, Type (0, 1), BuildingBlock: MIFKUJ_clean_linker_0, # of connection points: 2
#     Edge 88, Type (0, 1), BuildingBlock: MIFKUJ_clean_linker_0, # of connection points: 2
#     Edge 89, Type (0, 1), BuildingBlock: MIFKUJ_clean_linker_0, # of connection points: 2
#     Edge 90, Type (0, 1), BuildingBlock: MIFKUJ_clean_linker_0, # of connection points: 2
#     Edge 91, Type (0, 1), BuildingBlock: MIFKUJ_clean_linker_0, # of connection points: 2
#     Edge 92, Type (0, 1), BuildingBlock: MIFKUJ_clean_linker_0, # of connection points: 2
#     Edge 93, Type (0, 1), BuildingBlock: MIFKUJ_clean_linker_0, # of connection points: 2
#     Edge 94, Type (0, 1), BuildingBlock: MIFKUJ_clean_linker_0, # of connection points: 2
#     Edge 95, Type (0, 1), BuildingBlock: MIFKUJ_clean_linker_0, # of connection points: 2
#     Edge 96, Type (0, 1), BuildingBlock: MIFKUJ_clean_linker_0, # of connection points: 2
#     Edge 97, Type (0, 1), BuildingBlock: MIFKUJ_clean_linker_0, # of connection points: 2
#     Edge 98, Type (0, 1), BuildingBlock: MIFKUJ_clean_linker_0, # of connection points: 2
#     Edge 99, Type (0, 1), BuildingBlock: MIFKUJ_clean_linker_0, # of connection points: 2
#     Edge 100, Type (0, 1), BuildingBlock: MIFKUJ_clean_linker_0, # of connection points: 2
#     Edge 101, Type (0, 1), BuildingBlock: MIFKUJ_clean_linker_0, # of connection points: 2
#     Edge 102, Type (0, 1), BuildingBlock: MIFKUJ_clean_linker_0, # of connection points: 2
#     Edge 103, Type (0, 1), BuildingBlock: MIFKUJ_clean_linker_0, # of connection points: 2
#     Edge 104, Type (0, 1), BuildingBlock: MIFKUJ_clean_linker_0, # of connection points: 2
#     Edge 105, Type (0, 1), BuildingBlock: MIFKUJ_clean_linker_0, # of connection points: 2
#     Edge 106, Type (0, 1), BuildingBlock: MIFKUJ_clean_linker_0, # of connection points: 2
#     Edge 107, Type (0, 1), BuildingBlock: MIFKUJ_clean_linker_0, # of connection points: 2
#     Edge 108, Type (0, 1), BuildingBlock: MIFKUJ_clean_linker_0, # of connection points: 2
#     Edge 109, Type (0, 1), BuildingBlock: MIFKUJ_clean_linker_0, # of connection points: 2
#     Edge 110, Type (0, 1), BuildingBlock: MIFKUJ_clean_linker_0, # of connection points: 2
#     Edge 111, Type (0, 1), BuildingBlock: MIFKUJ_clean_linker_0, # of connection points: 2
#     Edge 112, Type (0, 1), BuildingBlock: MIFKUJ_clean_linker_0, # of connection points: 2
#     Edge 113, Type (0, 1), BuildingBlock: MIFKUJ_clean_linker_0, # of connection points: 2
#     Edge 114, Type (0, 1), BuildingBlock: MIFKUJ_clean_linker_0, # of connection points: 2
#     Edge 115, Type (0, 1), BuildingBlock: MIFKUJ_clean_linker_0, # of connection points: 2
#     Edge 116, Type (0, 1), BuildingBlock: MIFKUJ_clean_linker_0, # of connection points: 2
#     Edge 117, Type (0, 1), BuildingBlock: MIFKUJ_clean_linker_0, # of connection points: 2
#     Edge 118, Type (0, 1), BuildingBlock: MIFKUJ_clean_linker_0, # of connection points: 2
#     Edge 119, Type (0, 1), BuildingBlock: MIFKUJ_clean_linker_0, # of connection points: 2
#     Edge 120, Type (0, 1), BuildingBlock: MIFKUJ_clean_linker_0, # of connection points: 2
#     Edge 121, Type (0, 1), BuildingBlock: MIFKUJ_clean_linker_0, # of connection points: 2
#     Edge 122, Type (0, 1), BuildingBlock: MIFKUJ_clean_linker_0, # of connection points: 2
#     Edge 123, Type (0, 1), BuildingBlock: MIFKUJ_clean_linker_0, # of connection points: 2
#     Edge 124, Type (0, 1), BuildingBlock: MIFKUJ_clean_linker_0, # of connection points: 2
#     Edge 125, Type (0, 1), BuildingBlock: MIFKUJ_clean_linker_0, # of connection points: 2
#     Edge 126, Type (0, 1), BuildingBlock: MIFKUJ_clean_linker_0, # of connection points: 2
#     Edge 127, Type (0, 1), BuildingBlock: MIFKUJ_clean_linker_0, # of connection points: 2
#     Edge 128, Type (0, 1), BuildingBlock: MIFKUJ_clean_linker_0, # of connection points: 2
#     Edge 129, Type (0, 1), BuildingBlock: MIFKUJ_clean_linker_0, # of connection points: 2
#     Edge 130, Type (0, 1), BuildingBlock: MIFKUJ_clean_linker_0, # of connection points: 2
#     Edge 131, Type (0, 1), BuildingBlock: MIFKUJ_clean_linker_0, # of connection points: 2
#     Edge 132, Type (0, 1), BuildingBlock: MIFKUJ_clean_linker_0, # of connection points: 2
#     Edge 133, Type (0, 1), BuildingBlock: MIFKUJ_clean_linker_0, # of connection points: 2
#     Edge 134, Type (0, 1), BuildingBlock: MIFKUJ_clean_linker_0, # of connection points: 2
#     Edge 135, Type (0, 1), BuildingBlock: MIFKUJ_clean_linker_0, # of connection points: 2
# Relax obj value: 0.073
# Max RMSD: 0.174
# Mean RMSD: 0.127
data_MOF--net-gar--node1-GALJAG_clean_sbu_0--node2-KUMBUR_clean_sbu_1--edge1-MIFKUJ_clean_linker_0
_symmetry_space_group_name_H-M    P1
_symmetry_Int_Tables_number       1
_symmetry_cell_setting            triclinic
loop_
_symmetry_equiv_pos_as_xyz
'x, y, z'
_cell_length_a     76.398636
_cell_length_b     76.400194
_cell_length_c     72.096508
_cell_angle_alpha  95.490835
_cell_angle_beta   95.503546
_cell_angle_gamma 100.0001
loop_
_atom_site_label
_atom_site_type_symbol
_atom_site_fract_x
_atom_site_fract_y
_atom_site_fract_z
_atom_type_partial_charge
In0 In 0.04326 0.30782 0.36539 0.0
O1 O 0.05774 0.29683 0.34033 0.0
O2 O 0.0738 0.31525 0.36119 0.0
C3 C 0.00879 0.30557 0.34763 0.0
C4 C 0.04217 0.27746 0.38405 0.0
C5 C 0.04491 0.34172 0.38497 0.0
O6 O 0.02222 0.30522 0.33859 0.0
O7 O 0.01276 0.30682 0.36518 0.0
O8 O 0.04628 0.32784 0.3929 0.0
O9 O 0.04358 0.33877 0.36727 0.0
C10 C 0.07343 0.30486 0.34638 0.0
O11 O 0.05321 0.29181 0.38926 0.0
O12 O 0.03139 0.2786 0.37006 0.0
In13 In 0.02088 0.75894 0.68578 0.0
O14 O 0.013 0.77366 0.66048 0.0
O15 O 0.03272 0.78803 0.68147 0.0
C16 C 0.01808 0.72772 0.66264 0.0
C17 C 0.05648 0.76159 0.70235 0.0
C18 C 0.98841 0.75781 0.70241 0.0
O19 O 0.01915 0.74293 0.65677 0.0
O20 O 0.01857 0.72816 0.68033 0.0
O21 O 1.00365 0.76387 0.71151 0.0
O22 O 0.98977 0.75179 0.6859 0.0
C23 C 0.02352 0.78819 0.66609 0.0
O24 O 0.04655 0.7726 0.7069 0.0
O25 O 0.04813 0.7487 0.6908 0.0
In26 In 0.54369 0.80762 0.8647 0.0
O27 O 0.55873 0.79573 0.84053 0.0
O28 O 0.57397 0.81661 0.85926 0.0
C29 C 0.50896 0.80506 0.84729 0.0
C30 C 0.5422 0.77742 0.88381 0.0
C31 C 0.54495 0.84162 0.88393 0.0
O32 O 0.52238 0.8053 0.83813 0.0
O33 O 0.51304 0.80582 0.86478 0.0
O34 O 0.54984 0.82879 0.89167 0.0
O35 O 0.54027 0.83767 0.86651 0.0
C36 C 0.57407 0.80512 0.84547 0.0
O37 O 0.55133 0.79252 0.89043 0.0
O38 O 0.53351 0.77773 0.86813 0.0
In39 In 0.51999 0.25865 0.18472 0.0
O40 O 0.51893 0.2418 0.15625 0.0
O41 O 0.51647 0.22739 0.17972 0.0
C42 C 0.52124 0.28836 0.16644 0.0
C43 C 0.48647 0.2583 0.19876 0.0
C44 C 0.55592 0.26436 0.20137 0.0
O45 O 0.52324 0.2734 0.15879 0.0
O46 O 0.51818 0.28846 0.18339 0.0
O47 O 0.54322 0.25526 0.20845 0.0
O48 O 0.55034 0.27087 0.18708 0.0
C49 C 0.51719 0.2267 0.16221 0.0
O50 O 0.50135 0.2629 0.20907 0.0
O51 O 0.48856 0.25356 0.18197 0.0
In52 In 0.05422 0.79207 0.11326 0.0
O53 O 0.04935 0.76827 0.08792 0.0
O54 O 0.0546 0.76175 0.11523 0.0
C55 C 0.05555 0.82547 0.0984 0.0
C56 C 0.0246 0.79003 0.13219 0.0
C57 C 0.08654 0.79645 0.13485 0.0
O58 O 0.04808 0.81062 0.08921 0.0
O59 O 0.0629 0.82333 0.11422 0.0
O60 O 0.07202 0.79808 0.14126 0.0
O61 O 0.08506 0.79298 0.11711 0.0
C62 C 0.05103 0.75586 0.09812 0.0
O63 O 0.04037 0.79255 0.14009 0.0
O64 O 0.02354 0.7887 0.11453 0.0
In65 In 0.50493 0.7695 0.43459 0.0
O66 O 0.51987 0.76964 0.40768 0.0
O67 O 0.53524 0.77048 0.43385 0.0
C68 C 0.47157 0.76792 0.41411 0.0
C69 C 0.50717 0.73848 0.45225 0.0
C70 C 0.50831 0.80392 0.45324 0.0
O71 O 0.48583 0.76765 0.40653 0.0
O72 O 0.47398 0.76821 0.43174 0.0
O73 O 0.49777 0.79055 0.45731 0.0
O74 O 0.51754 0.79993 0.44045 0.0
C75 C 0.53525 0.77021 0.41633 0.0
O76 O 0.51419 0.75413 0.45952 0.0
O77 O 0.49819 0.73837 0.43656 0.0
In78 In 0.55478 0.29301 0.61268 0.0
O79 O 0.53798 0.26575 0.59682 0.0
O80 O 0.56571 0.2674 0.60082 0.0
C81 C 0.55498 0.32651 0.59822 0.0
C82 C 0.52577 0.29004 0.63226 0.0
C83 C 0.58593 0.29535 0.63615 0.0
O84 O 0.55443 0.31203 0.58774 0.0
O85 O 0.55571 0.32399 0.61524 0.0
O86 O 0.57049 0.29149 0.64127 0.0
O87 O 0.5858 0.29815 0.6191 0.0
C88 C 0.55077 0.25742 0.59527 0.0
O89 O 0.54163 0.29499 0.64001 0.0
O90 O 0.52449 0.28658 0.61464 0.0
In91 In 1.00417 0.26912 0.93235 0.0
O92 O 1.00157 0.25126 0.95764 0.0
O93 O 0.00824 0.23947 0.93236 0.0
C94 C 1.00634 0.30302 0.95184 0.0
C95 C 0.03515 0.27185 0.91478 0.0
C96 C 0.97109 0.2673 0.91104 0.0
O97 O 0.01387 0.29113 0.95856 0.0
O98 O 0.9978 0.29774 0.93594 0.0
O99 O 0.98599 0.27424 0.90624 0.0
O100 O 0.97271 0.26013 0.92612 0.0
C101 C 1.00588 0.23755 0.9492 0.0
O102 O 0.01984 0.26491 0.90646 0.0
O103 O 0.03477 0.27792 0.93161 0.0
In104 In 0.39444 0.02246 0.2969 0.0
O105 O 0.41752 0.0261 0.27959 0.0
O106 O 0.39114 0.01595 0.26577 0.0
C107 C 0.41137 0.02496 0.33076 0.0
C108 C 0.38062 0.05153 0.29802 0.0
C109 C 0.37504 0.99052 0.29522 0.0
O110 O 0.41939 0.02307 0.31636 0.0
O111 O 0.39523 0.02646 0.32787 0.0
O112 O 0.36855 1.00341 0.28959 0.0
O113 O 0.3915 0.99366 0.30102 0.0
C114 C 0.40757 0.02063 0.26437 0.0
O115 O 0.37265 0.03731 0.30319 0.0
O116 O 0.39573 0.05117 0.29251 0.0
In117 In 0.26966 0.17728 0.51263 0.0
O118 O 0.273 0.20222 0.53521 0.0
O119 O 0.27259 0.17672 0.54451 0.0
C120 C 0.2703 0.19189 0.47903 0.0
C121 C 0.29753 0.15964 0.51447 0.0
C122 C 0.23576 0.15846 0.50897 0.0
O123 O 0.27639 0.20106 0.49462 0.0
O124 O 0.26368 0.1759 0.48059 0.0
O125 O 0.24837 0.15263 0.50189 0.0
O126 O 0.24002 0.174 0.51772 0.0
C127 C 0.27388 0.19326 0.54911 0.0
O128 O 0.28172 0.1524 0.51606 0.0
O129 O 0.2994 0.17587 0.51165 0.0
In130 In 0.13579 0.04274 0.78616 0.0
O131 O 0.11103 0.04051 0.76359 0.0
O132 O 0.13595 0.03807 0.75414 0.0
C133 C 0.12139 0.04149 0.81994 0.0
C134 C 0.15292 0.01455 0.78393 0.0
C135 C 0.15559 0.07644 0.7902 0.0
O136 O 0.11176 0.04089 0.80449 0.0
O137 O 0.13775 0.0426 0.81817 0.0
O138 O 0.16109 0.0634 0.79663 0.0
O139 O 0.13989 0.07271 0.78186 0.0
C140 C 0.11963 0.03826 0.74961 0.0
O141 O 0.16054 0.03051 0.78353 0.0
O142 O 0.13634 0.01259 0.78538 0.0
In143 In 0.291 0.91894 0.00135 0.0
O144 O 0.28732 0.89562 0.01845 0.0
O145 O 0.29583 0.92207 0.03251 0.0
C146 C 0.28832 0.90395 0.96683 0.0
C147 C 0.26319 0.93449 0.00202 0.0
C148 C 0.32369 0.93634 0.00281 0.0
O149 O 0.28664 0.89474 0.98041 0.0
O150 O 0.29084 0.92068 0.97076 0.0
O151 O 0.31049 0.94414 0.00331 0.0
O152 O 0.32038 0.91946 0.00159 0.0
C153 C 0.29178 0.9056 0.03377 0.0
O154 O 0.27899 0.94298 0.0055 0.0
O155 O 0.26127 0.9178 0.99786 0.0
In156 In 0.29573 0.39125 0.03631 0.0
O157 O 0.28553 0.36679 0.05108 0.0
O158 O 0.30031 0.38966 0.0682 0.0
C159 C 0.29395 0.37305 0.00156 0.0
C160 C 0.26649 0.40692 0.03745 0.0
C161 C 0.32935 0.41088 0.03738 0.0
O162 O 0.30161 0.36839 0.01607 0.0
O163 O 0.287 0.3867 0.00455 0.0
O164 O 0.3154 0.41735 0.03394 0.0
O165 O 0.32632 0.39482 0.04084 0.0
C166 C 0.29168 0.37388 0.06745 0.0
O167 O 0.28224 0.41587 0.04075 0.0
O168 O 0.26563 0.39033 0.03355 0.0
In169 In 0.76691 0.12915 0.0441 0.0
O170 O 0.78205 0.10634 0.0436 0.0
O171 O 0.79601 0.13338 0.04474 0.0
C172 C 0.7333 0.1154 0.04436 0.0
C173 C 0.77389 0.14827 0.07679 0.0
C174 C 0.76517 0.14471 0.01317 0.0
O175 O 0.74459 0.10538 0.04173 0.0
O176 O 0.73927 0.13193 0.04724 0.0
O177 O 0.76827 0.15302 0.02936 0.0
O178 O 0.7631 0.12786 0.01223 0.0
C179 C 0.79678 0.1171 0.0447 0.0
O180 O 0.77331 0.15486 0.06147 0.0
O181 O 0.7705 0.13139 0.07582 0.0
In182 In 0.18476 0.54599 0.25281 0.0
O183 O 0.206 0.52984 0.24634 0.0
O184 O 0.18346 0.5185 0.25959 0.0
C185 C 0.20052 0.57938 0.25459 0.0
C186 C 0.16394 0.5397 0.22101 0.0
C187 C 0.16749 0.54701 0.28266 0.0
O188 O 0.20812 0.5683 0.26272 0.0
O189 O 0.18595 0.57311 0.24464 0.0
O190 O 0.16004 0.54046 0.26657 0.0
O191 O 0.18407 0.55315 0.2839 0.0
C192 C 0.19737 0.51633 0.25242 0.0
O193 O 0.15864 0.5445 0.23638 0.0
O194 O 0.18027 0.53849 0.22151 0.0
In195 In 0.79602 0.89186 0.53611 0.0
O196 O 0.78112 0.87041 0.55234 0.0
O197 O 0.80498 0.88614 0.56629 0.0
C198 C 0.79368 0.87384 0.50126 0.0
C199 C 0.76732 0.90877 0.53547 0.0
C200 C 0.83015 0.91045 0.53699 0.0
O201 O 0.79455 0.86617 0.51604 0.0
O202 O 0.79399 0.89047 0.5041 0.0
O203 O 0.81761 0.91767 0.54262 0.0
O204 O 0.82558 0.89397 0.53136 0.0
C205 C 0.79168 0.87408 0.56723 0.0
O206 O 0.78256 0.91628 0.54353 0.0
O207 O 0.76692 0.89337 0.52734 0.0
In208 In 0.92128 0.01707 0.26208 0.0
O209 O 0.94508 0.01496 0.24511 0.0
O210 O 0.92142 0.02059 0.23085 0.0
C211 C 0.94017 0.02222 0.29691 0.0
C212 C 0.90718 0.04754 0.26317 0.0
C213 C 0.90199 0.98283 0.25898 0.0
O214 O 0.94767 0.02228 0.28204 0.0
O215 O 0.92337 0.02023 0.29419 0.0
O216 O 0.89509 0.99587 0.25433 0.0
O217 O 0.91847 0.98695 0.2644 0.0
C218 C 0.93736 0.01851 0.22999 0.0
O219 O 0.89964 0.03349 0.26923 0.0
O220 O 0.92178 0.04633 0.25684 0.0
In221 In 0.2678 0.62884 0.54558 0.0
O222 O 0.28294 0.60618 0.549 0.0
O223 O 0.2956 0.63093 0.54038 0.0
C224 C 0.23381 0.61571 0.54159 0.0
C225 C 0.27492 0.64485 0.57987 0.0
C226 C 0.26598 0.64677 0.51643 0.0
O227 O 0.24488 0.60617 0.53643 0.0
O228 O 0.24024 0.63128 0.54939 0.0
O229 O 0.26816 0.65425 0.53307 0.0
O230 O 0.26451 0.62995 0.51442 0.0
C231 C 0.29704 0.61581 0.54511 0.0
O232 O 0.28014 0.65214 0.56593 0.0
O233 O 0.26592 0.62917 0.57661 0.0
In234 In 0.42166 0.51666 0.76148 0.0
O235 O 0.39755 0.53093 0.7584 0.0
O236 O 0.4235 0.54696 0.76469 0.0
C237 C 0.40204 0.48291 0.7601 0.0
C238 C 0.43841 0.52051 0.72994 0.0
C239 C 0.44008 0.51885 0.79613 0.0
O240 O 0.39544 0.49683 0.76311 0.0
O241 O 0.41824 0.48601 0.75723 0.0
O242 O 0.44502 0.51165 0.78154 0.0
O243 O 0.42596 0.52509 0.79329 0.0
C244 C 0.40688 0.54652 0.76155 0.0
O245 O 0.44658 0.52364 0.74629 0.0
O246 O 0.42177 0.51503 0.72937 0.0
In247 In 0.68081 0.04476 0.7515 0.0
O248 O 0.70289 0.02912 0.75487 0.0
O249 O 0.6758 0.01545 0.74642 0.0
C250 C 0.69509 0.07856 0.75647 0.0
C251 C 0.66666 0.04465 0.717 0.0
C252 C 0.66445 0.04282 0.7818 0.0
O253 O 0.70483 0.06693 0.75388 0.0
O254 O 0.67864 0.07289 0.75645 0.0
O255 O 0.65618 0.03924 0.76549 0.0
O256 O 0.68132 0.04648 0.78286 0.0
C257 C 0.69205 0.01449 0.75007 0.0
O258 O 0.65806 0.04653 0.73089 0.0
O259 O 0.68257 0.04239 0.72036 0.0
In260 In 0.77007 0.67722 0.0127 0.0
O261 O 0.78228 0.65249 0.01612 0.0
O262 O 0.80012 0.67657 0.01389 0.0
C263 C 0.73681 0.65696 0.00737 0.0
C264 C 0.77355 0.69315 0.04933 0.0
C265 C 0.7706 0.69087 0.97859 0.0
O266 O 0.75085 0.65063 0.00576 0.0
O267 O 0.73941 0.67378 0.01145 0.0
O268 O 0.76994 0.70054 0.99371 0.0
O269 O 0.77096 0.6748 0.98081 0.0
C270 C 0.79821 0.66011 0.01572 0.0
O271 O 0.78105 0.70085 0.0366 0.0
O272 O 0.76404 0.67812 0.04341 0.0
In273 In 0.89479 0.52248 0.79714 0.0
O274 O 0.87041 0.53342 0.78871 0.0
O275 O 0.89306 0.5511 0.80446 0.0
C276 C 0.87859 0.48951 0.79734 0.0
C277 C 0.90784 0.52521 0.76475 0.0
C278 C 0.91141 0.52378 0.83095 0.0
O279 O 0.8708 0.50254 0.80086 0.0
O280 O 0.89446 0.4932 0.7934 0.0
O281 O 0.91947 0.5215 0.8166 0.0
O282 O 0.89556 0.52621 0.82796 0.0
C283 C 0.87733 0.54892 0.79642 0.0
O284 O 0.91534 0.535 0.77948 0.0
O285 O 0.89427 0.51385 0.76658 0.0
In286 In 0.79161 0.41936 0.501 0.0
O287 O 0.79401 0.39793 0.51986 0.0
O288 O 0.78909 0.42323 0.53157 0.0
C289 C 0.78936 0.40373 0.46674 0.0
C290 C 0.76306 0.43354 0.49786 0.0
C291 C 0.82423 0.43729 0.5054 0.0
O292 O 0.78575 0.39467 0.48014 0.0
O293 O 0.79355 0.42041 0.47083 0.0
O294 O 0.81103 0.44486 0.50743 0.0
O295 O 0.8209 0.42052 0.50153 0.0
C296 C 0.79171 0.4078 0.53419 0.0
O297 O 0.77842 0.4424 0.4969 0.0
O298 O 0.76207 0.41714 0.49985 0.0
In299 In 0.63496 0.5428 0.28626 0.0
O300 O 0.66054 0.53114 0.2909 0.0
O301 O 0.63635 0.51304 0.28131 0.0
C302 C 0.6563 0.57539 0.28983 0.0
C303 C 0.61927 0.54006 0.24957 0.0
C304 C 0.61926 0.54233 0.31952 0.0
O305 O 0.662 0.56146 0.2938 0.0
O306 O 0.63976 0.57289 0.28409 0.0
O307 O 0.61683 0.52899 0.30718 0.0
O308 O 0.62854 0.55601 0.31464 0.0
C309 C 0.653 0.51513 0.28579 0.0
O310 O 0.61013 0.5397 0.26335 0.0
O311 O 0.63582 0.54199 0.25439 0.0
Tb312 Tb 0.06491 0.05017 0.0476 0.0
C313 C 1.00366 0.98981 0.00398 0.0
N314 N 0.0126 1.00532 0.99896 0.0
C315 C 0.01145 0.99139 0.96745 0.0
C316 C 0.99844 0.97439 0.99091 0.0
C317 C 0.01622 0.00637 0.98086 0.0
C318 C 1.00258 0.9753 0.9725 0.0
C319 C 0.98988 0.97375 0.0279 0.0
C320 C 0.99944 0.98949 0.02227 0.0
C321 C 0.98484 0.95831 0.01498 0.0
C322 C 0.98909 0.95864 0.99653 0.0
Tb323 Tb 0.01785 0.02918 0.02173 0.0
N324 N 1.00466 1.00464 0.03448 0.0
C325 C 0.9854 0.97408 0.04628 0.0
C326 C 0.99896 1.00535 0.05185 0.0
C327 C 0.98975 0.99004 0.05822 0.0
H328 H 0.02197 0.01889 0.97641 0.0
H329 H 0.98551 0.99073 0.07213 0.0
H330 H 0.05734 0.058 0.09278 0.0
H331 H 0.09519 0.09324 0.99981 0.0
H332 H 1.0004 0.01779 0.06046 0.0
H333 H 0.97804 0.96229 0.05115 0.0
H334 H 0.0799 0.06505 0.00893 0.0
H335 H 0.01431 0.99237 0.95313 0.0
H336 H 0.97747 0.94611 0.01905 0.0
H337 H 0.98496 0.94667 0.98666 0.0
H338 H 0.06358 0.0835 0.11719 0.0
H339 H 0.99875 0.96376 0.96203 0.0
H340 H 0.10244 0.12028 0.02287 0.0
N341 N 0.06697 0.07308 0.07117 0.0
C342 C 0.07562 0.08921 0.0672 0.0
C343 C 0.06678 0.08536 0.10312 0.0
C344 C 0.08027 0.104 0.08117 0.0
C345 C 0.06271 0.07097 0.08897 0.0
C346 C 0.07561 0.10193 0.09923 0.0
N347 N 0.07624 0.07607 0.03614 0.0
C348 C 0.0818 0.07679 0.01876 0.0
C349 C 0.09005 0.10705 0.04484 0.0
C350 C 0.08051 0.09071 0.04921 0.0
C351 C 0.09505 0.108 0.02675 0.0
C352 C 0.09092 0.09279 0.01367 0.0
H353 H 0.07908 0.11294 0.11036 0.0
H354 H 0.09371 0.13165 0.08746 0.0
H355 H 0.10221 0.13433 0.05569 0.0
O356 O 0.09023 0.04541 0.04169 0.0
O357 O 0.0469 0.06939 0.04035 0.0
O358 O 0.02872 0.05586 0.01371 0.0
O359 O 0.0854 0.05418 0.06968 0.0
O360 O 0.06438 0.03652 0.01882 0.0
O361 O 0.03734 0.03892 0.00307 0.0
O362 O 0.99437 0.03681 0.02966 0.0
O363 O 0.03418 0.00874 0.02931 0.0
O364 O 0.05656 0.02181 0.05316 0.0
O365 O 0.99645 0.02769 1.00083 0.0
O366 O 0.02063 0.04439 0.04989 0.0
O367 O 0.04581 0.0378 0.06503 0.0
C368 C 0.03677 0.0704 0.0247 0.0
C369 C 0.1083 0.03775 0.06714 0.0
C370 C 0.13371 0.02339 0.064 0.0
C371 C 0.13426 0.0201 0.08284 0.0
C372 C 0.10864 0.0343 0.08601 0.0
C373 C 0.12159 0.02543 0.09377 0.0
C374 C 0.12075 0.03209 0.05622 0.0
C375 C 0.05416 0.03715 0.00312 0.0
C376 C 0.09689 0.04928 0.05925 0.0
C377 C 0.08984 0.12023 0.07684 0.0
C378 C 0.09469 0.12175 0.05874 0.0
C379 C 0.04642 0.00743 0.04319 0.0
C380 C 0.978 0.04882 0.00651 0.0
C381 C 0.95668 0.06785 0.01271 0.0
C382 C 0.9588 0.07488 0.99567 0.0
C383 C 0.98018 0.05577 0.98932 0.0
C384 C 0.96621 0.05489 0.01807 0.0
C385 C 0.97042 0.0687 0.98393 0.0
C386 C 0.02971 0.04131 0.06527 0.0
C387 C 0.98676 0.03443 0.01242 0.0
H388 H 0.14436 0.01335 0.08898 0.0
H389 H 0.09927 0.03881 0.09488 0.0
H390 H 0.12197 0.02293 0.10832 0.0
H391 H 0.12083 0.03505 0.04179 0.0
H392 H 0.95101 0.08461 0.99119 0.0
H393 H 0.98905 0.05103 0.97995 0.0
H394 H 0.9641 0.04926 0.03113 0.0
H395 H 0.97142 0.07364 0.97047 0.0
Tb396 Tb 0.25888 0.79166 0.30961 0.0
C397 C 0.30143 0.76161 0.23586 0.0
N398 N 0.30782 0.77478 0.25003 0.0
C399 C 0.33738 0.76833 0.24896 0.0
C400 C 0.31275 0.75107 0.22772 0.0
C401 C 0.3256 0.77846 0.25644 0.0
C402 C 0.33091 0.7545 0.23458 0.0
C403 C 0.27608 0.74477 0.21518 0.0
C404 C 0.28339 0.75844 0.22983 0.0
C405 C 0.28728 0.7344 0.20675 0.0
C406 C 0.30557 0.73745 0.21312 0.0
Tb407 Tb 0.28779 0.79056 0.26172 0.0
N408 N 0.27291 0.76818 0.23897 0.0
C409 C 0.25766 0.74161 0.20978 0.0
C410 C 0.25469 0.76368 0.23497 0.0
C411 C 0.24686 0.75079 0.22005 0.0
H412 H 0.33088 0.78971 0.26678 0.0
H413 H 0.23246 0.74772 0.21671 0.0
H414 H 0.21602 0.79363 0.2993 0.0
H415 H 0.30933 0.82975 0.36376 0.0
H416 H 0.24588 0.76943 0.24338 0.0
H417 H 0.2516 0.73166 0.1982 0.0
H418 H 0.29775 0.80667 0.33775 0.0
H419 H 0.35147 0.77137 0.25413 0.0
H420 H 0.28187 0.72376 0.19558 0.0
H421 H 0.31404 0.72918 0.20672 0.0
H422 H 0.19501 0.81303 0.30868 0.0
H423 H 0.34006 0.74667 0.22877 0.0
H424 H 0.28997 0.84999 0.37568 0.0
N425 N 0.23792 0.80802 0.31831 0.0
C426 C 0.24327 0.82117 0.33281 0.0
C427 C 0.20862 0.81561 0.31546 0.0
C428 C 0.23166 0.8325 0.3388 0.0
C429 C 0.22067 0.80483 0.30995 0.0
C430 C 0.21419 0.82964 0.32982 0.0
N431 N 0.27144 0.81259 0.33479 0.0
C432 C 0.28875 0.81471 0.34288 0.0
C433 C 0.26686 0.83727 0.35627 0.0
C434 C 0.26054 0.82341 0.34153 0.0
C435 C 0.28458 0.83947 0.36438 0.0
C436 C 0.29554 0.82809 0.35769 0.0
H437 H 0.20486 0.83803 0.33401 0.0
H438 H 0.22919 0.85524 0.35815 0.0
H439 H 0.2601 0.8595 0.37338 0.0
O440 O 0.26169 0.7723 0.32785 0.0
O441 O 0.27165 0.81876 0.30734 0.0
O442 O 0.27903 0.80169 0.28566 0.0
O443 O 0.23567 0.77524 0.31569 0.0
O444 O 0.28659 0.78416 0.31323 0.0
O445 O 0.3047 0.79156 0.2889 0.0
O446 O 0.2847 0.80947 0.24329 0.0
O447 O 0.28019 0.76458 0.27107 0.0
O448 O 0.25765 0.77483 0.28331 0.0
O449 O 0.31034 0.81001 0.259 0.0
O450 O 0.26104 0.79814 0.25671 0.0
O451 O 0.24338 0.79507 0.28214 0.0
C452 C 0.28025 0.8178 0.29313 0.0
C453 C 0.23834 0.76821 0.34669 0.0
C454 C 0.24128 0.75855 0.3775 0.0
C455 C 0.22825 0.76821 0.38299 0.0
C456 C 0.2251 0.77779 0.35201 0.0
C457 C 0.22012 0.77777 0.37017 0.0
C458 C 0.24627 0.75863 0.35946 0.0
C459 C 0.30235 0.7864 0.3059 0.0
C460 C 0.24446 0.76799 0.32812 0.0
C461 C 0.23786 0.84631 0.35347 0.0
C462 C 0.25544 0.8487 0.36218 0.0
C463 C 0.26691 0.76218 0.28125 0.0
C464 C 0.30964 0.8187 0.22819 0.0
C465 C 0.30678 0.82828 0.1972 0.0
C466 C 0.32162 0.82078 0.19286 0.0
C467 C 0.32462 0.81139 0.22392 0.0
C468 C 0.30105 0.82747 0.21491 0.0
C469 C 0.33061 0.81253 0.2063 0.0
C470 C 0.2459 0.79864 0.26453 0.0
C471 C 0.30166 0.81648 0.24564 0.0
H472 H 0.2241 0.76796 0.39693 0.0
H473 H 0.21861 0.78523 0.34228 0.0
H474 H 0.20988 0.78504 0.37425 0.0
H475 H 0.2564 0.75114 0.35535 0.0
H476 H 0.32634 0.82152 0.17921 0.0
H477 H 0.33168 0.80483 0.23406 0.0
H478 H 0.28947 0.83316 0.21814 0.0
H479 H 0.34216 0.8069 0.20302 0.0
Tb480 Tb 0.49994 0.02444 0.54439 0.0
C481 C 0.56656 0.0648 0.51078 0.0
N482 N 0.55545 0.04897 0.50429 0.0
C483 C 0.55522 0.05686 0.4728 0.0
C484 C 0.57192 0.07746 0.49845 0.0
C485 C 0.55094 0.04441 0.48538 0.0
C486 C 0.56549 0.0736 0.4794 0.0
C487 C 0.58728 0.08282 0.53606 0.0
C488 C 0.57416 0.06756 0.52947 0.0
C489 C 0.59203 0.09573 0.52396 0.0
C490 C 0.58438 0.09305 0.50522 0.0
Tb491 Tb 0.55057 0.03003 0.52673 0.0
N492 N 0.56936 0.05483 0.54095 0.0
C493 C 0.59571 0.0843 0.55444 0.0
C494 C 0.57835 0.05557 0.55841 0.0
C495 C 0.59137 0.07051 0.56558 0.0
H496 H 0.54474 0.03098 0.47974 0.0
H497 H 0.59823 0.07126 0.57956 0.0
H498 H 0.51072 0.02375 0.59157 0.0
H499 H 0.4514 0.97986 0.49421 0.0
H500 H 0.5755 0.04457 0.56665 0.0
H501 H 0.60591 0.09579 0.55998 0.0
H502 H 0.47446 0.0066 0.50488 0.0
H503 H 0.55118 0.05328 0.45792 0.0
H504 H 0.60204 0.10759 0.52878 0.0
H505 H 0.58876 0.10273 0.49583 0.0
H506 H 0.50534 1.00217 0.61405 0.0
H507 H 0.56926 0.08303 0.46953 0.0
H508 H 0.44383 0.95721 0.51591 0.0
N509 N 0.49676 0.006 0.5678 0.0
C510 C 0.48478 0.99042 0.56255 0.0
C511 C 0.49978 0.99853 0.59953 0.0
C512 C 0.48051 0.97804 0.57553 0.0
C513 C 0.50328 0.01059 0.58638 0.0
C514 C 0.48857 0.98207 0.59404 0.0
N515 N 0.4802 0.99926 0.53199 0.0
C516 C 0.47144 0.99684 0.51429 0.0
C517 C 0.46291 0.97156 0.53883 0.0
C518 C 0.47598 0.98716 0.54432 0.0
C519 C 0.454 0.96897 0.52061 0.0
C520 C 0.45825 0.9817 0.50831 0.0
H521 H 0.48563 0.9729 0.60438 0.0
H522 H 0.46449 0.95269 0.5797 0.0
H523 H 0.44912 0.94703 0.54762 0.0
O524 O 0.47442 0.03128 0.53648 0.0
O525 O 0.50786 0.99914 0.53153 0.0
O526 O 0.53441 1.00331 0.51675 0.0
O527 O 0.48773 0.03669 0.56523 0.0
O528 O 0.50808 0.03627 0.51974 0.0
O529 O 0.52829 0.02354 0.50451 0.0
O530 O 0.56927 0.01505 0.53815 0.0
O531 O 0.54369 0.05376 0.54388 0.0
O532 O 0.51282 0.05183 0.53937 0.0
O533 O 0.5728 0.02712 0.51288 0.0
O534 O 0.53992 0.01684 0.54942 0.0
O535 O 0.52271 0.03269 0.56516 0.0
C536 C 0.51999 0.99306 0.52162 0.0
C537 C 0.45875 0.04482 0.56101 0.0
C538 C 0.43262 0.05903 0.55696 0.0
C539 C 0.43082 0.05855 0.57614 0.0
C540 C 0.45659 0.04447 0.58013 0.0
C541 C 0.44274 0.05134 0.58761 0.0
C542 C 0.44673 0.05221 0.54938 0.0
C543 C 0.5124 0.02781 0.50482 0.0
C544 C 0.47378 0.03764 0.55379 0.0
C545 C 0.46786 0.96231 0.56989 0.0
C546 C 0.45905 0.95911 0.55164 0.0
C547 C 0.52923 0.06128 0.54423 0.0
C548 C 0.586 1.00178 0.51576 0.0
C549 C 0.60806 0.98194 0.51624 0.0
C550 C 0.60284 0.9766 0.49699 0.0
C551 C 0.58075 0.99564 0.49667 0.0
C552 C 0.59973 0.99484 0.52556 0.0
C553 C 0.58927 0.98333 0.48737 0.0
C554 C 0.537 0.02571 0.56465 0.0
C555 C 0.5791 0.01719 0.52448 0.0
H556 H 0.42023 0.06398 0.58232 0.0
H557 H 0.46563 0.03885 0.58936 0.0
H558 H 0.44125 0.0511 0.60237 0.0
H559 H 0.4483 0.05262 0.53463 0.0
H560 H 0.60943 0.96729 0.48925 0.0
H561 H 0.57045 1.00085 0.48868 0.0
H562 H 0.60403 0.9996 0.54021 0.0
H563 H 0.58552 0.97915 0.47253 0.0
Tb564 Tb 0.31041 0.2668 0.78247 0.0
C565 C 0.24408 0.29076 0.73996 0.0
N566 N 0.25499 0.29982 0.75507 0.0
C567 C 0.25583 0.32719 0.74113 0.0
C568 C 0.23885 0.29952 0.7246 0.0
C569 C 0.26055 0.31788 0.75606 0.0
C570 C 0.24506 0.31795 0.72524 0.0
C571 C 0.22595 0.26281 0.72516 0.0
C572 C 0.23796 0.27263 0.7401 0.0
C573 C 0.22092 0.27137 0.70961 0.0
C574 C 0.22744 0.28966 0.70929 0.0
Tb575 Tb 0.26251 0.28311 0.77817 0.0
N576 N 0.24344 0.26478 0.75524 0.0
C577 C 0.21893 0.24488 0.72665 0.0
C578 C 0.23555 0.24781 0.75738 0.0
C579 C 0.22356 0.23743 0.74296 0.0
H580 H 0.26815 0.3252 0.76857 0.0
H581 H 0.21752 0.22386 0.74466 0.0
H582 H 0.30026 0.22371 0.78971 0.0
H583 H 0.3528 0.32408 0.82359 0.0
H584 H 0.23776 0.24255 0.7705 0.0
H585 H 0.2093 0.23693 0.71575 0.0
H586 H 0.33158 0.30848 0.79695 0.0
H587 H 0.26034 0.34151 0.742 0.0
H588 H 0.21177 0.26405 0.69792 0.0
H589 H 0.2233 0.29613 0.69731 0.0
H590 H 0.30788 0.2051 0.81417 0.0
H591 H 0.24134 0.3252 0.71374 0.0
H592 H 0.36308 0.30715 0.84879 0.0
N593 N 0.3159 0.24788 0.80416 0.0
C594 C 0.32789 0.25536 0.81919 0.0
C595 C 0.31349 0.21926 0.81583 0.0
C596 C 0.33303 0.24506 0.83327 0.0
C597 C 0.30891 0.22998 0.80214 0.0
C598 C 0.32556 0.22682 0.83148 0.0
N599 N 0.32885 0.28319 0.80721 0.0
C600 C 0.33545 0.30104 0.80798 0.0
C601 C 0.34719 0.28184 0.83604 0.0
C602 C 0.33485 0.27354 0.82059 0.0
C603 C 0.3536 0.30026 0.83714 0.0
C604 C 0.34773 0.30988 0.82301 0.0
H605 H 0.32915 0.21845 0.84201 0.0
H606 H 0.34952 0.24554 0.85958 0.0
H607 H 0.36194 0.27773 0.86199 0.0
O608 O 0.3332 0.27551 0.76787 0.0
O609 O 0.29961 0.27447 0.8091 0.0
O610 O 0.28262 0.29524 0.80128 0.0
O611 O 0.32621 0.24835 0.77495 0.0
O612 O 0.30877 0.29164 0.76956 0.0
O613 O 0.28645 0.3046 0.78214 0.0
O614 O 0.24171 0.27472 0.79547 0.0
O615 O 0.27382 0.27626 0.75146 0.0
O616 O 0.29155 0.25537 0.7576 0.0
O617 O 0.24621 0.30111 0.78616 0.0
O618 O 0.26533 0.25875 0.79149 0.0
O619 O 0.2862 0.24635 0.77622 0.0
C620 C 0.29027 0.28688 0.81387 0.0
C621 C 0.35315 0.25385 0.75993 0.0
C622 C 0.37882 0.25756 0.74171 0.0
C623 C 0.38254 0.24112 0.74651 0.0
C624 C 0.35739 0.23744 0.76448 0.0
C625 C 0.37193 0.23118 0.75782 0.0
C626 C 0.36407 0.26406 0.74851 0.0
C627 C 0.30159 0.30572 0.77432 0.0
C628 C 0.33736 0.25965 0.76753 0.0
C629 C 0.34539 0.25326 0.84864 0.0
C630 C 0.35249 0.27159 0.85 0.0
C631 C 0.28254 0.26358 0.74577 0.0
C632 C 0.22216 0.29608 0.80595 0.0
C633 C 0.19597 0.29141 0.82387 0.0
C634 C 0.196 0.30984 0.82499 0.0
C635 C 0.22151 0.31445 0.80758 0.0
C636 C 0.2092 0.28439 0.81426 0.0
C637 C 0.20861 0.32119 0.81696 0.0
C638 C 0.2724 0.24493 0.78586 0.0
C639 C 0.23674 0.2902 0.79569 0.0
H640 H 0.39377 0.23595 0.74144 0.0
H641 H 0.34947 0.22934 0.7733 0.0
H642 H 0.37496 0.21852 0.76144 0.0
H643 H 0.36109 0.27673 0.74482 0.0
H644 H 0.18612 0.31554 0.8322 0.0
H645 H 0.23113 0.32383 0.80164 0.0
H646 H 0.20942 0.27019 0.81333 0.0
H647 H 0.2084 0.33538 0.81802 0.0
Tb648 Tb 0.04676 1.00272 0.5174 0.0
C649 C 0.01995 0.0679 0.55738 0.0
N650 N 0.01156 0.0568 0.54203 0.0
C651 C 0.98354 0.0552 0.55479 0.0
C652 C 0.01046 0.07286 0.57223 0.0
C653 C 0.99354 0.05057 0.54044 0.0
C654 C 0.99203 0.06634 0.57078 0.0
C655 C 0.04759 0.08509 0.57417 0.0
C656 C 0.03828 0.07387 0.55837 0.0
C657 C 0.0382 0.09009 0.58903 0.0
C658 C 0.01969 0.084 0.58806 0.0
Tb659 Tb 0.02944 0.05 0.51986 0.0
N660 N 0.04702 0.06818 0.54402 0.0
C661 C 0.06603 0.09097 0.57448 0.0
C662 C 0.06467 0.07495 0.54365 0.0
C663 C 0.07456 0.08609 0.55901 0.0
H664 H 0.98673 0.04227 0.52798 0.0
H665 H 0.08867 0.09114 0.55876 0.0
H666 H 0.08986 0.01226 0.51101 0.0
H667 H 0.99141 0.95554 0.47909 0.0
H668 H 0.07101 0.07235 0.53133 0.0
H669 H 0.0737 0.09961 0.58636 0.0
H670 H 0.00722 0.97657 0.50608 0.0
H671 H 0.96927 0.0502 0.55348 0.0
H672 H 0.04512 0.09868 0.60132 0.0
H673 H 0.01263 0.08794 0.59965 0.0
H674 H 0.10855 0.00614 0.486 0.0
H675 H 0.98425 0.06985 0.5819 0.0
H676 H 0.00743 0.94842 0.45184 0.0
N677 N 0.06593 0.99661 0.49617 0.0
C678 C 0.05856 0.98518 0.4807 0.0
C679 C 0.09447 1.00023 0.48428 0.0
C680 C 0.06877 0.9811 0.46616 0.0
C681 C 0.08376 1.00383 0.49836 0.0
C682 C 0.08692 0.98894 0.46804 0.0
N683 N 0.03125 0.98241 0.49363 0.0
C684 C 0.01402 0.97412 0.49398 0.0
C685 C 0.03235 0.96556 0.46385 0.0
C686 C 0.04062 0.97765 0.47948 0.0
C687 C 0.0143 0.95783 0.46356 0.0
C688 C 1.00518 0.96191 0.47886 0.0
H689 H 0.09524 0.9862 0.45716 0.0
H690 H 0.06815 0.9661 0.43892 0.0
H691 H 0.03632 0.95227 0.43705 0.0
O692 O 0.03826 0.98188 0.53387 0.0
O693 O 0.0385 0.01221 0.49014 0.0
O694 O 0.01779 0.03037 0.49595 0.0
O695 O 0.06574 0.98884 0.52883 0.0
O696 O 0.02114 1.00428 0.52896 0.0
O697 O 0.00823 0.02592 0.51494 0.0
O698 O 0.03875 0.07262 0.50501 0.0
O699 O 0.03572 0.03879 0.54689 0.0
O700 O 0.05794 0.02358 0.54032 0.0
O701 O 0.01134 0.06575 0.51108 0.0
O702 O 0.05349 0.04736 0.50584 0.0
O703 O 0.06649 0.02754 0.52202 0.0
C704 C 0.02544 0.02044 0.48448 0.0
C705 C 0.05634 0.95919 0.53596 0.0
C706 C 0.05492 0.93182 0.55148 0.0
C707 C 0.06561 0.92539 0.53858 0.0
C708 C 0.06667 0.95218 0.52299 0.0
C709 C 0.07127 0.93542 0.52436 0.0
C710 C 0.05017 0.94874 0.55004 0.0
C711 C 0.00709 0.01101 0.52304 0.0
C712 C 0.05425 0.97817 0.53667 0.0
C713 C 0.06055 0.96935 0.45031 0.0
C714 C 0.0424 0.96152 0.4492 0.0
C715 C 0.04889 0.03071 0.55256 0.0
C716 C 0.01731 0.09276 0.49586 0.0
C717 C 0.02018 0.11805 0.47648 0.0
C718 C 1.00412 0.12196 0.48228 0.0
C719 C 1.00134 0.09746 0.50116 0.0
C720 C 0.02699 0.10335 0.4835 0.0
C721 C 0.99488 0.11184 0.49446 0.0
C722 C 0.06754 0.04056 0.5113 0.0
C723 C 0.02287 0.07674 0.50366 0.0
H724 H 0.06956 0.91252 0.53951 0.0
H725 H 0.0717 0.95989 0.51214 0.0
H726 H 0.07953 0.93031 0.51453 0.0
H727 H 0.04242 0.95407 0.56031 0.0
H728 H 0.99864 0.13309 0.47737 0.0
H729 H 0.99366 0.08997 0.51063 0.0
H730 H 0.03932 0.10005 0.47917 0.0
H731 H 0.98254 0.11515 0.49873 0.0
Tb732 Tb 0.28901 0.81265 0.75248 0.0
C733 C 0.25052 0.74637 0.78865 0.0
N734 N 0.26689 0.75662 0.79446 0.0
C735 C 0.26162 0.75506 0.82655 0.0
C736 C 0.23867 0.74081 0.80166 0.0
C737 C 0.27308 0.7597 0.81309 0.0
C738 C 0.24416 0.74595 0.8208 0.0
C739 C 0.23101 0.72677 0.76369 0.0
C740 C 0.24664 0.73949 0.76988 0.0
C741 C 0.21854 0.72222 0.77634 0.0
C742 C 0.22233 0.72929 0.79528 0.0
Tb743 Tb 0.2841 0.76343 0.77112 0.0
N744 N 0.25905 0.7441 0.75803 0.0
C745 C 0.22892 0.71829 0.74528 0.0
C746 C 0.25797 0.73463 0.74078 0.0
C747 C 0.24266 0.72195 0.73391 0.0
H748 H 0.28698 0.76542 0.81752 0.0
H749 H 0.24159 0.71483 0.72001 0.0
H750 H 0.28799 0.80272 0.70531 0.0
H751 H 0.33926 0.8528 0.8047 0.0
H752 H 0.26901 0.73685 0.7325 0.0
H753 H 0.21715 0.70832 0.74001 0.0
H754 H 0.31108 0.83186 0.79371 0.0
H755 H 0.26641 0.75807 0.84133 0.0
H756 H 0.20631 0.71264 0.77181 0.0
H757 H 0.21296 0.72501 0.80504 0.0
H758 H 0.30837 0.80942 0.68178 0.0
H759 H 0.23545 0.74196 0.83125 0.0
H760 H 0.36021 0.86245 0.78197 0.0
N761 N 0.30647 0.81648 0.72852 0.0
C762 C 0.32236 0.82796 0.73365 0.0
C763 C 0.31258 0.8145 0.69635 0.0
C764 C 0.33417 0.83268 0.72027 0.0
C765 C 0.30119 0.81036 0.70998 0.0
C766 C 0.32919 0.82558 0.70152 0.0
N767 N 0.31541 0.83028 0.76514 0.0
C768 C 0.31972 0.83642 0.78369 0.0
C769 C 0.34333 0.84694 0.75807 0.0
C770 C 0.32686 0.83524 0.75238 0.0
C771 C 0.34768 0.85346 0.77706 0.0
C772 C 0.33587 0.84809 0.78993 0.0
H773 H 0.3379 0.8289 0.69086 0.0
H774 H 0.35965 0.84826 0.7158 0.0
H775 H 0.36767 0.86065 0.74884 0.0
O776 O 0.28447 0.8391 0.76002 0.0
O777 O 0.31397 0.8023 0.76193 0.0
O778 O 0.30843 0.78222 0.78416 0.0
O779 O 0.27611 0.82482 0.73189 0.0
O780 O 0.27675 0.80763 0.77773 0.0
O781 O 0.28826 0.78624 0.79317 0.0
O782 O 0.30199 0.74765 0.76023 0.0
O783 O 0.25986 0.7694 0.75432 0.0
O784 O 0.26178 0.80018 0.75825 0.0
O785 O 0.28761 0.74026 0.78312 0.0
O786 O 0.29591 0.77203 0.7466 0.0
O787 O 0.27961 0.78992 0.73206 0.0
C788 C 0.31947 0.79347 0.7758 0.0
C789 C 0.26979 0.85462 0.73626 0.0
C790 C 0.25432 0.87982 0.74045 0.0
C791 C 0.25531 0.88235 0.72152 0.0
C792 C 0.27054 0.85735 0.71733 0.0
C793 C 0.26335 0.87115 0.71004 0.0
C794 C 0.26159 0.8659 0.74787 0.0
C795 C 0.28302 0.80182 0.79297 0.0
C796 C 0.27663 0.83929 0.74316 0.0
C797 C 0.35046 0.8445 0.72591 0.0
C798 C 0.35501 0.85161 0.74472 0.0
C799 C 0.25227 0.78377 0.75412 0.0
C800 C 0.31429 0.72937 0.78137 0.0
C801 C 0.33278 0.70627 0.78248 0.0
C802 C 0.33976 0.71345 0.80091 0.0
C803 C 0.32163 0.7364 0.79974 0.0
C804 C 0.31988 0.71421 0.77277 0.0
C805 C 0.33419 0.72837 0.80946 0.0
C806 C 0.28655 0.77559 0.7319 0.0
C807 C 0.29908 0.73607 0.7722 0.0
H808 H 0.24965 0.89292 0.71556 0.0
H809 H 0.27665 0.84873 0.70811 0.0
H810 H 0.26393 0.8731 0.69543 0.0
H811 H 0.26068 0.86376 0.76242 0.0
H812 H 0.34942 0.70733 0.80877 0.0
H813 H 0.31723 0.74777 0.80678 0.0
H814 H 0.31407 0.70849 0.75872 0.0
H815 H 0.33949 0.73362 0.82375 0.0
Tb816 Tb 0.52283 0.05488 0.98737 0.0
C817 C 0.55281 0.01189 0.05781 0.0
N818 N 0.53906 0.00552 0.04418 0.0
C819 C 0.54851 0.97714 0.04099 0.0
C820 C 0.56524 1.0012 0.06335 0.0
C821 C 0.53673 0.98837 0.03573 0.0
C822 C 0.56288 0.98359 0.05482 0.0
C823 C 0.56945 0.0369 0.07918 0.0
C824 C 0.55478 0.02942 0.06565 0.0
C825 C 0.5819 0.02635 0.08477 0.0
C826 C 0.57977 0.00852 0.07692 0.0
Tb827 Tb 0.52144 0.02515 0.03519 0.0
N828 N 0.54273 0.03933 0.0594 0.0
C829 C 0.57139 0.05484 0.08639 0.0
C830 C 0.54438 0.05674 0.06698 0.0
C831 C 0.55877 0.06477 0.08025 0.0
H832 H 0.52579 0.98326 0.02488 0.0
H833 H 0.56018 0.07872 0.0856 0.0
H834 H 0.51505 0.09547 0.00147 0.0
H835 H 0.49441 0.00775 0.92632 0.0
H836 H 0.53491 0.06483 0.0631 0.0
H837 H 0.58256 0.06116 0.09662 0.0
H838 H 0.51652 0.02018 0.95317 0.0
H839 H 0.5466 0.96356 0.03425 0.0
H840 H 0.59329 0.0319 0.09506 0.0
H841 H 0.58954 1.00056 0.08127 0.0
H842 H 0.49314 0.11422 0.99307 0.0
H843 H 0.57213 0.97494 0.05869 0.0
H844 H 0.47024 0.02393 0.91685 0.0
N845 N 0.50397 0.07413 0.98009 0.0
C846 C 0.49176 0.06864 0.96474 0.0
C847 C 0.49245 0.10132 0.98511 0.0
C848 C 0.47889 0.07896 0.95945 0.0
C849 C 0.50473 0.09048 0.99001 0.0
C850 C 0.47933 0.09545 0.9699 0.0
N851 N 0.50444 0.04274 0.96037 0.0
C852 C 0.50583 0.02723 0.94991 0.0
C853 C 0.4792 0.0459 0.93886 0.0
C854 C 0.492 0.05241 0.9545 0.0
C855 C 0.47989 0.02946 0.92889 0.0
C856 C 0.49343 0.02023 0.93428 0.0
H857 H 0.46974 0.10383 0.96623 0.0
H858 H 0.45589 0.08011 0.93982 0.0
H859 H 0.45607 0.05108 0.92188 0.0
O860 O 0.54412 0.05429 0.9712 0.0
O861 O 0.49529 0.04294 0.98928 0.0
O862 O 0.51135 0.0341 0.01081 0.0
O863 O 0.53674 0.07923 0.98088 0.0
O864 O 0.52955 0.02688 0.98398 0.0
O865 O 0.51972 0.0087 0.00753 0.0
O866 O 0.50156 0.0272 0.05276 0.0
O867 O 0.54793 0.03262 0.02703 0.0
O868 O 0.53874 0.05511 0.01393 0.0
O869 O 0.50373 1.0016 0.03875 0.0
O870 O 0.51284 0.05169 0.03905 0.0
O871 O 0.52209 0.07003 0.01563 0.0
C872 C 0.49549 0.03388 0.00318 0.0
C873 C 0.54599 0.07666 0.9508 0.0
C874 C 0.55386 0.07136 0.91929 0.0
C875 C 0.54742 0.08669 0.91457 0.0
C876 C 0.53969 0.0921 0.94608 0.0
C877 C 0.5403 0.09697 0.92795 0.0
C878 C 0.55278 0.06629 0.93728 0.0
C879 C 0.52598 0.01108 0.99103 0.0
C880 C 0.54611 0.07138 0.96979 0.0
C881 C 0.46601 0.07246 0.94398 0.0
C882 C 0.46613 0.05595 0.93374 0.0
C883 C 0.55092 0.04543 0.01641 0.0
C884 C 0.49432 1.00268 0.06923 0.0
C885 C 0.48521 0.00617 0.10047 0.0
C886 C 0.4925 0.99122 0.10484 0.0
C887 C 0.50148 0.98764 0.07361 0.0
C888 C 0.4859 0.01165 0.08262 0.0
C889 C 0.50045 0.9819 0.09136 0.0
C890 C 0.51545 0.06739 0.03195 0.0
C891 C 0.49607 0.00998 0.0513 0.0
H892 H 0.54853 0.0911 0.90082 0.0
H893 H 0.53444 0.10045 0.95637 0.0
H894 H 0.53562 0.10894 0.92439 0.0
H895 H 0.55772 0.05441 0.94088 0.0
H896 H 0.4918 0.98663 0.11856 0.0
H897 H 0.508 0.98044 0.06347 0.0
H898 H 0.48028 0.02325 0.07931 0.0
H899 H 0.50593 0.97029 0.09473 0.0
Tb900 Tb 0.26349 0.24676 0.24986 0.0
C901 C 0.3213 0.30937 0.29548 0.0
N902 N 0.30626 0.29956 0.30056 0.0
C903 C 0.32114 0.29989 0.33151 0.0
C904 C 0.33703 0.31446 0.30813 0.0
C905 C 0.30586 0.29515 0.31847 0.0
C906 C 0.33684 0.30943 0.32628 0.0
C907 C 0.33557 0.32611 0.27232 0.0
C908 C 0.32061 0.31507 0.27778 0.0
C909 C 0.3515 0.33061 0.28458 0.0
C910 C 0.35221 0.32484 0.30247 0.0
Tb911 Tb 0.28194 0.2937 0.27828 0.0
N912 N 0.30489 0.31069 0.2664 0.0
C913 C 0.33378 0.333 0.25508 0.0
C914 C 0.30256 0.31911 0.25077 0.0
C915 C 0.31705 0.32983 0.24447 0.0
H916 H 0.29361 0.28861 0.32304 0.0
H917 H 0.31518 0.33605 0.23172 0.0
H918 H 0.25504 0.25667 0.20578 0.0
H919 H 0.22369 0.20376 0.29102 0.0
H920 H 0.28942 0.31823 0.24349 0.0
H921 H 0.34493 0.34155 0.25035 0.0
H922 H 0.25129 0.22182 0.28302 0.0
H923 H 0.3207 0.29642 0.34569 0.0
H924 H 0.36316 0.33902 0.2806 0.0
H925 H 0.36444 0.32884 0.31198 0.0
H926 H 0.22895 0.25357 0.18234 0.0
H927 H 0.3486 0.31324 0.33649 0.0
H928 H 0.19549 0.20048 0.26996 0.0
N929 N 0.24026 0.24527 0.22673 0.0
C930 C 0.22432 0.23577 0.2301 0.0
C931 C 0.22736 0.24882 0.19586 0.0
C932 C 0.20913 0.23291 0.21664 0.0
C933 C 0.2421 0.25109 0.20952 0.0
C934 C 0.21075 0.23989 0.19952 0.0
N935 N 0.2385 0.23081 0.25924 0.0
C936 C 0.23888 0.22159 0.2745 0.0
C937 C 0.20748 0.21734 0.25034 0.0
C938 C 0.22348 0.22812 0.24678 0.0
C939 C 0.20747 0.20895 0.26676 0.0
C940 C 0.22333 0.21087 0.27874 0.0
H941 H 0.19942 0.23791 0.18879 0.0
H942 H 0.18121 0.22036 0.21026 0.0
H943 H 0.17978 0.2067 0.23974 0.0
O944 O 0.27176 0.22228 0.2537 0.0
O945 O 0.24279 0.26271 0.25857 0.0
O946 O 0.25601 0.28045 0.28552 0.0
O947 O 0.26195 0.22833 0.22598 0.0
O948 O 0.27543 0.24608 0.27918 0.0
O949 O 0.27385 0.27298 0.29626 0.0
O950 O 0.26963 0.31531 0.27209 0.0
O951 O 0.30372 0.27922 0.27033 0.0
O952 O 0.29166 0.25747 0.2456 0.0
O953 O 0.28194 0.31367 0.30045 0.0
O954 O 0.26784 0.29136 0.24959 0.0
O955 O 0.27545 0.26719 0.23354 0.0
C956 C 0.24159 0.27301 0.27413 0.0
C957 C 0.27019 0.19944 0.22731 0.0
C958 C 0.28251 0.17262 0.22997 0.0
C959 C 0.27626 0.16661 0.21109 0.0
C960 C 0.26381 0.19339 0.20845 0.0
C961 C 0.26684 0.17697 0.20041 0.0
C962 C 0.27939 0.18897 0.23799 0.0
C963 C 0.27554 0.2561 0.29524 0.0
C964 C 0.26783 0.21685 0.23584 0.0
C965 C 0.19302 0.22268 0.22042 0.0
C966 C 0.1922 0.21489 0.23721 0.0
C967 C 0.30562 0.26766 0.25607 0.0
C968 C 0.26854 0.33951 0.29596 0.0
C969 C 0.25717 0.36588 0.28889 0.0
C970 C 0.25822 0.3716 0.30809 0.0
C971 C 0.26974 0.34523 0.31523 0.0
C972 C 0.26227 0.34991 0.28283 0.0
C973 C 0.26456 0.36127 0.32124 0.0
C974 C 0.27225 0.28344 0.23423 0.0
C975 C 0.27347 0.32263 0.28943 0.0
H976 H 0.27861 0.15393 0.2047 0.0
H977 H 0.2566 0.20135 0.19993 0.0
H978 H 0.26198 0.17234 0.18587 0.0
H979 H 0.28463 0.19378 0.25245 0.0
H980 H 0.25402 0.38392 0.31283 0.0
H981 H 0.27449 0.33725 0.32559 0.0
H982 H 0.26116 0.34557 0.26791 0.0
H983 H 0.26534 0.36563 0.33608 0.0
Tb984 Tb 0.54537 0.50114 0.01439 0.0
C985 C 0.51967 0.56665 0.05862 0.0
N986 N 0.51154 0.5565 0.04262 0.0
C987 C 0.48279 0.55702 0.0533 0.0
C988 C 0.50964 0.57224 0.07275 0.0
C989 C 0.49331 0.5519 0.03966 0.0
C990 C 0.491 0.56717 0.06998 0.0
C991 C 0.54711 0.58216 0.07711 0.0
C992 C 0.53814 0.5716 0.06073 0.0
C993 C 0.53721 0.58774 0.09127 0.0
C994 C 0.51851 0.5828 0.08909 0.0
Tb995 Tb 0.53009 0.54932 0.02119 0.0
N996 N 0.54729 0.56576 0.04682 0.0
C997 C 0.56577 0.58683 0.07874 0.0
C998 C 0.56542 0.57078 0.04811 0.0
C999 C 0.57495 0.58117 0.06413 0.0
H1000 H 0.4868 0.54499 0.02643 0.0
H1001 H 0.58937 0.58489 0.06513 0.0
H1002 H 0.58894 0.50382 0.01192 0.0
H1003 H 0.48733 0.46406 0.96961 0.0
H1004 H 0.57262 0.56685 0.03693 0.0
H1005 H 0.57319 0.59492 0.09111 0.0
H1006 H 0.50313 0.4829 0.99785 0.0
H1007 H 0.46836 0.55336 0.05082 0.0
H1008 H 0.54386 0.59591 0.10394 0.0
H1009 H 0.51104 0.58726 0.10009 0.0
H1010 H 0.60833 0.49552 0.98825 0.0
H1011 H 0.48281 0.57123 0.08048 0.0
H1012 H 0.50443 0.45418 0.94437 0.0
N1013 N 0.56479 0.4936 0.99424 0.0
C1014 C 0.55704 0.48367 0.97791 0.0
C1015 C 0.59393 0.49234 0.98505 0.0
C1016 C 0.56753 0.47792 0.96432 0.0
C1017 C 0.58297 0.49749 0.99824 0.0
C1018 C 0.58618 0.48266 0.96794 0.0
N1019 N 0.52878 0.48474 0.98845 0.0
C1020 C 0.51069 0.47915 0.98686 0.0
C1021 C 0.53005 0.4677 0.95879 0.0
C1022 C 0.53851 0.47865 0.97516 0.0
C1023 C 0.51141 0.46264 0.95671 0.0
C1024 C 0.50171 0.46827 0.97088 0.0
H1025 H 0.59471 0.4785 0.95784 0.0
H1026 H 0.56696 0.46283 0.93716 0.0
H1027 H 0.53416 0.45388 0.93233 0.0
O1028 O 0.53589 0.48273 0.0332 0.0
O1029 O 0.53637 0.51261 0.98868 0.0
O1030 O 0.51673 0.53071 0.99736 0.0
O1031 O 0.55732 0.47874 0.01723 0.0
O1032 O 0.52097 0.5032 0.02786 0.0
O1033 O 0.50798 0.52598 0.01675 0.0
O1034 O 0.54038 0.57161 0.00613 0.0
O1035 O 0.53836 0.5368 0.04668 0.0
O1036 O 0.55921 0.51937 0.03884 0.0
O1037 O 0.51333 0.56658 0.01333 0.0
O1038 O 0.55326 0.54578 0.00619 0.0
O1039 O 0.56756 0.52442 0.01849 0.0
C1040 C 0.52428 0.52246 0.98445 0.0
C1041 C 0.55643 0.46466 0.04484 0.0
C1042 C 0.55792 0.43902 0.06271 0.0
C1043 C 0.5762 0.44593 0.06816 0.0
C1044 C 0.5745 0.4715 0.05116 0.0
C1045 C 0.5843 0.46212 0.06266 0.0
C1046 C 0.54803 0.44857 0.05102 0.0
C1047 C 0.50686 0.51038 0.02357 0.0
C1048 C 0.54731 0.47245 0.02945 0.0
C1049 C 0.55912 0.46733 0.9478 0.0
C1050 C 0.54044 0.4622 0.94506 0.0
C1051 C 0.55148 0.52817 0.05138 0.0
C1052 C 0.5196 0.59251 0.99653 0.0
C1053 C 0.52307 0.61768 0.97695 0.0
C1054 C 0.50585 0.62028 0.98027 0.0
C1055 C 0.50243 0.59594 0.99929 0.0
C1056 C 0.53015 0.60369 0.98527 0.0
C1057 C 0.49572 0.60958 0.99129 0.0
C1058 C 0.56793 0.53973 0.01117 0.0
C1059 C 0.52492 0.5767 0.00519 0.0
H1060 H 0.58418 0.43905 0.0772 0.0
H1061 H 0.58125 0.48374 0.04659 0.0
H1062 H 0.59831 0.46734 0.06719 0.0
H1063 H 0.53414 0.44309 0.04603 0.0
H1064 H 0.50013 0.63078 0.97425 0.0
H1065 H 0.49388 0.58793 0.00766 0.0
H1066 H 0.54334 0.60134 0.98274 0.0
H1067 H 0.48245 0.61183 0.9936 0.0
Tb1068 Tb 0.78952 0.31219 0.25187 0.0
C1069 C 0.75123 0.2468 0.29306 0.0
N1070 N 0.76761 0.25725 0.29811 0.0
C1071 C 0.76336 0.25689 0.33058 0.0
C1072 C 0.73993 0.24153 0.30665 0.0
C1073 C 0.7742 0.26143 0.31657 0.0
C1074 C 0.74601 0.24716 0.32559 0.0
C1075 C 0.72994 0.22853 0.26859 0.0
C1076 C 0.74626 0.24038 0.27427 0.0
C1077 C 0.71832 0.22378 0.28198 0.0
C1078 C 0.72327 0.23032 0.30096 0.0
Tb1079 Tb 0.78359 0.26399 0.27388 0.0
N1080 N 0.75758 0.2457 0.26156 0.0
C1081 C 0.72598 0.22164 0.24965 0.0
C1082 C 0.75438 0.23813 0.24338 0.0
C1083 C 0.7384 0.22627 0.23711 0.0
H1084 H 0.78804 0.2677 0.32041 0.0
H1085 H 0.73578 0.22059 0.22268 0.0
H1086 H 0.78943 0.30387 0.20517 0.0
H1087 H 0.83876 0.3514 0.30579 0.0
H1088 H 0.76409 0.24128 0.23376 0.0
H1089 H 0.71361 0.21242 0.24468 0.0
H1090 H 0.81065 0.33092 0.29369 0.0
H1091 H 0.76852 0.26053 0.34521 0.0
H1092 H 0.70562 0.21481 0.27786 0.0
H1093 H 0.71433 0.22623 0.31118 0.0
H1094 H 0.81003 0.31164 0.18191 0.0
H1095 H 0.73772 0.24343 0.33648 0.0
H1096 H 0.86045 0.36155 0.28395 0.0
N1097 N 0.8076 0.31712 0.22863 0.0
C1098 C 0.82347 0.32843 0.23425 0.0
C1099 C 0.81411 0.31621 0.19662 0.0
C1100 C 0.83544 0.33374 0.22122 0.0
C1101 C 0.80261 0.31141 0.20999 0.0
C1102 C 0.83064 0.32732 0.20226 0.0
N1103 N 0.81592 0.32952 0.26539 0.0
C1104 C 0.81969 0.33545 0.28404 0.0
C1105 C 0.84403 0.34666 0.25942 0.0
C1106 C 0.82767 0.33499 0.25313 0.0
C1107 C 0.84799 0.35263 0.27857 0.0
C1108 C 0.83578 0.34696 0.29093 0.0
H1109 H 0.83943 0.33117 0.19183 0.0
H1110 H 0.86097 0.34975 0.2176 0.0
H1111 H 0.86846 0.36106 0.25102 0.0
O1112 O 0.78158 0.33658 0.26193 0.0
O1113 O 0.81421 0.30161 0.26166 0.0
O1114 O 0.80856 0.28283 0.28513 0.0
O1115 O 0.7806 0.32782 0.23214 0.0
O1116 O 0.77622 0.30662 0.27668 0.0
O1117 O 0.78904 0.28765 0.2943 0.0
O1118 O 0.79756 0.24528 0.26124 0.0
O1119 O 0.75806 0.27198 0.26231 0.0
O1120 O 0.762 0.29646 0.24483 0.0
O1121 O 0.78983 0.24311 0.28871 0.0
O1122 O 0.7953 0.27124 0.24888 0.0
O1123 O 0.78131 0.28894 0.23164 0.0
C1124 C 0.81965 0.2932 0.27592 0.0
C1125 C 0.77115 0.3559 0.23919 0.0
C1126 C 0.75399 0.37972 0.24403 0.0
C1127 C 0.75642 0.38414 0.22589 0.0
C1128 C 0.77349 0.36069 0.2211 0.0
C1129 C 0.7662 0.37472 0.21455 0.0
C1130 C 0.76149 0.36563 0.25081 0.0
C1131 C 0.78319 0.30271 0.29268 0.0
C1132 C 0.77762 0.33985 0.24478 0.0
C1133 C 0.85165 0.34551 0.22743 0.0
C1134 C 0.85591 0.35197 0.24646 0.0
C1135 C 0.75172 0.28309 0.25136 0.0
C1136 C 0.81538 0.23138 0.28225 0.0
C1137 C 0.83433 0.20862 0.28354 0.0
C1138 C 0.8454 0.21944 0.29851 0.0
C1139 C 0.82688 0.24207 0.29697 0.0
C1140 C 0.81934 0.21475 0.2753 0.0
C1141 C 0.84178 0.23609 0.30502 0.0
C1142 C 0.78654 0.27378 0.23331 0.0
C1143 C 0.7982 0.23645 0.27574 0.0
H1144 H 0.75067 0.39491 0.2205 0.0
H1145 H 0.78081 0.35341 0.21186 0.0
H1146 H 0.76796 0.37819 0.20055 0.0
H1147 H 0.75936 0.36198 0.26469 0.0
H1148 H 0.85689 0.21496 0.30519 0.0
H1149 H 0.82404 0.2548 0.30262 0.0
H1150 H 0.81039 0.20628 0.26413 0.0
H1151 H 0.8504 0.24426 0.3166 0.0
Tb1152 Tb 0.02251 0.55613 0.48776 0.0
C1153 C 0.04975 0.51122 0.56169 0.0
N1154 N 0.03705 0.50539 0.54693 0.0
C1155 C 0.04316 0.47565 0.54703 0.0
C1156 C 0.05972 0.49945 0.56984 0.0
C1157 C 0.03358 0.48786 0.53951 0.0
C1158 C 0.05628 0.48146 0.5623 0.0
C1159 C 0.06676 0.53603 0.58302 0.0
C1160 C 0.0533 0.52921 0.56804 0.0
C1161 C 0.07638 0.52433 0.59166 0.0
C1162 C 0.07297 0.50609 0.58496 0.0
Tb1163 Tb 0.02221 0.5261 0.53546 0.0
N1164 N 0.04432 0.54016 0.55871 0.0
C1165 C 0.07055 0.55446 0.58845 0.0
C1166 C 0.0495 0.55831 0.5627 0.0
C1167 C 0.06225 0.5657 0.57789 0.0
H1168 H 0.02343 0.48322 0.52775 0.0
H1169 H 0.06586 0.58008 0.58126 0.0
H1170 H 0.01798 0.59835 0.49888 0.0
H1171 H 0.9973 0.51305 0.42328 0.0
H1172 H 0.04436 0.56735 0.55408 0.0
H1173 H 0.08028 0.56018 0.60032 0.0
H1174 H 0.01974 0.52607 0.45017 0.0
H1175 H 0.04043 0.46178 0.54104 0.0
H1176 H 0.08682 0.52934 0.60313 0.0
H1177 H 0.08079 0.49727 0.59142 0.0
H1178 H 0.99544 0.61714 0.49195 0.0
H1179 H 0.06374 0.472 0.56805 0.0
H1180 H 0.97075 0.52691 0.41637 0.0
N1181 N 1.00434 0.576 0.4801 0.0
C1182 C 0.9912 0.57023 0.46569 0.0
C1183 C 0.99387 0.6038 0.48467 0.0
C1184 C 0.97812 0.58046 0.46096 0.0
C1185 C 1.00643 0.593 0.48885 0.0
C1186 C 0.97938 0.59732 0.47097 0.0
N1187 N 1.00496 0.54554 0.45987 0.0
C1188 C 0.00777 0.53159 0.44794 0.0
C1189 C 0.97867 0.54793 0.43953 0.0
C1190 C 0.99155 0.55438 0.45508 0.0
C1191 C 0.98039 0.53241 0.42842 0.0
C1192 C 0.9953 0.5245 0.43235 0.0
H1193 H 0.96966 0.60569 0.46776 0.0
H1194 H 0.9542 0.5812 0.44246 0.0
H1195 H 0.9546 0.55254 0.42373 0.0
O1196 O 0.04426 0.55479 0.47231 0.0
O1197 O 0.9954 0.54279 0.48897 0.0
O1198 O 0.01163 0.53553 0.51155 0.0
O1199 O 0.03794 0.58014 0.48233 0.0
O1200 O 0.02702 0.52719 0.48311 0.0
O1201 O 0.02274 0.50953 0.50857 0.0
O1202 O 1.00369 0.52802 0.55481 0.0
O1203 O 0.04829 0.5331 0.52612 0.0
O1204 O 0.0388 0.55611 0.51409 0.0
O1205 O 1.00153 0.50412 0.5355 0.0
O1206 O 0.0152 0.55303 0.54063 0.0
O1207 O 0.01871 0.57101 0.51547 0.0
C1208 C 0.99581 0.53421 0.50324 0.0
C1209 C 0.04685 0.57714 0.45219 0.0
C1210 C 0.05665 0.57292 0.42156 0.0
C1211 C 0.04563 0.58432 0.41479 0.0
C1212 C 0.03583 0.58872 0.44551 0.0
C1213 C 0.03532 0.59232 0.42684 0.0
C1214 C 0.05732 0.56946 0.44018 0.0
C1215 C 0.02591 0.51167 0.49091 0.0
C1216 C 0.04696 0.57194 0.47116 0.0
C1217 C 0.96461 0.57372 0.4461 0.0
C1218 C 0.96485 0.55742 0.43541 0.0
C1219 C 0.05102 0.54632 0.51589 0.0
C1220 C 0.98831 0.50096 0.56383 0.0
C1221 C 0.97632 0.49923 0.59391 0.0
C1222 C 0.97049 0.48068 0.58902 0.0
C1223 C 0.98257 0.48242 0.55939 0.0
C1224 C 0.98528 0.50927 0.58119 0.0
C1225 C 0.9738 0.47237 0.57199 0.0
C1226 C 0.01501 0.56829 0.53301 0.0
C1227 C 0.99489 0.51187 0.54935 0.0
H1228 H 0.04528 0.58724 0.40036 0.0
H1229 H 0.02753 0.59486 0.45456 0.0
H1230 H 0.02691 0.60127 0.42173 0.0
H1231 H 0.06585 0.56052 0.44523 0.0
H1232 H 0.96302 0.47256 0.59814 0.0
H1233 H 0.98437 0.47576 0.54594 0.0
H1234 H 0.98963 0.52358 0.58464 0.0
H1235 H 0.96914 0.45813 0.56836 0.0
Tb1236 Tb 0.81148 0.76756 0.28191 0.0
C1237 C 0.74612 0.79426 0.24132 0.0
N1238 N 0.75562 0.80137 0.25809 0.0
C1239 C 0.75466 0.83103 0.25014 0.0
C1240 C 0.74091 0.8054 0.22811 0.0
C1241 C 0.75887 0.81949 0.26309 0.0
C1242 C 0.74591 0.82396 0.23244 0.0
C1243 C 0.72789 0.76833 0.22227 0.0
C1244 C 0.73983 0.77587 0.23828 0.0
C1245 C 0.72308 0.77937 0.20892 0.0
C1246 C 0.72983 0.79779 0.21164 0.0
Tb1247 Tb 0.76175 0.78083 0.27763 0.0
N1248 N 0.74405 0.76566 0.25189 0.0
C1249 C 0.72024 0.75013 0.22075 0.0
C1250 C 0.73525 0.74837 0.25137 0.0
C1251 C 0.72371 0.74018 0.23552 0.0
H1252 H 0.7647 0.82513 0.27712 0.0
H1253 H 0.71728 0.72632 0.23483 0.0
H1254 H 0.80519 0.7239 0.28644 0.0
H1255 H 0.85887 0.82201 0.32208 0.0
H1256 H 0.73753 0.74089 0.26301 0.0
H1257 H 0.71103 0.74383 0.20864 0.0
H1258 H 0.83932 0.80651 0.29404 0.0
H1259 H 0.75777 0.84536 0.25399 0.0
H1260 H 0.71348 0.77396 0.19687 0.0
H1261 H 0.7256 0.80615 0.2014 0.0
H1262 H 0.80992 0.70482 0.31132 0.0
H1263 H 0.74222 0.83295 0.22262 0.0
H1264 H 0.86349 0.80603 0.34991 0.0
N1265 N 0.81612 0.74829 0.3036 0.0
C1266 C 0.82638 0.75569 0.31981 0.0
C1267 C 0.81427 0.71917 0.31409 0.0
C1268 C 0.83024 0.7452 0.33422 0.0
C1269 C 0.81111 0.73012 0.30013 0.0
C1270 C 0.82357 0.72679 0.33138 0.0
N1271 N 0.83086 0.78296 0.30666 0.0
C1272 C 0.84016 0.79988 0.30652 0.0
C1273 C 0.84584 0.7816 0.33739 0.0
C1274 C 0.83409 0.77363 0.32137 0.0
C1275 C 0.85435 0.79942 0.33787 0.0
C1276 C 0.8517 0.80851 0.32223 0.0
H1277 H 0.82628 0.71825 0.34206 0.0
H1278 H 0.84452 0.74539 0.36173 0.0
H1279 H 0.85863 0.77708 0.36419 0.0
O1280 O 0.83831 0.77281 0.27507 0.0
O1281 O 0.79884 0.77462 0.30752 0.0
O1282 O 0.78092 0.79544 0.3008 0.0
O1283 O 0.8204 0.74746 0.26534 0.0
O1284 O 0.81166 0.79475 0.27419 0.0
O1285 O 0.78427 0.80392 0.27863 0.0
O1286 O 0.74593 0.77209 0.29895 0.0
O1287 O 0.76939 0.76332 0.25449 0.0
O1288 O 0.79912 0.77447 0.25547 0.0
O1289 O 0.73759 0.78994 0.2806 0.0
O1290 O 0.76785 0.75828 0.29181 0.0
O1291 O 0.78802 0.74544 0.27625 0.0
C1292 C 0.79179 0.78881 0.31244 0.0
C1293 C 0.85054 0.75014 0.25642 0.0
C1294 C 0.87726 0.75411 0.23986 0.0
C1295 C 0.87805 0.73598 0.24069 0.0
C1296 C 0.85157 0.73201 0.2568 0.0
C1297 C 0.86527 0.72503 0.24905 0.0
C1298 C 0.86346 0.76126 0.24784 0.0
C1299 C 0.8013 0.80693 0.27524 0.0
C1300 C 0.83627 0.75712 0.26565 0.0
C1301 C 0.84138 0.75323 0.35053 0.0
C1302 C 0.8493 0.77134 0.35201 0.0
C1303 C 0.78414 0.76553 0.24624 0.0
C1304 C 0.72485 0.78989 0.30927 0.0
C1305 C 0.69936 0.79075 0.32775 0.0
C1306 C 0.70662 0.80869 0.33425 0.0
C1307 C 0.73174 0.80778 0.31623 0.0
C1308 C 0.70857 0.78132 0.31514 0.0
C1309 C 0.72265 0.81708 0.32858 0.0
C1310 C 0.77309 0.74407 0.28431 0.0
C1311 C 0.73339 0.78087 0.2943 0.0
H1312 H 0.88857 0.73025 0.23471 0.0
H1313 H 0.84191 0.72328 0.26341 0.0
H1314 H 0.86602 0.71106 0.24957 0.0
H1315 H 0.86282 0.77528 0.24741 0.0
H1316 H 0.69977 0.81628 0.34372 0.0
H1317 H 0.74396 0.8147 0.31174 0.0
H1318 H 0.70295 0.76757 0.30967 0.0
H1319 H 0.72795 0.83097 0.33363 0.0
Tb1320 Tb 0.75881 0.2902 0.80985 0.0
C1321 C 0.79934 0.25634 0.74228 0.0
N1322 N 0.80588 0.27017 0.75582 0.0
C1323 C 0.83321 0.25901 0.76089 0.0
C1324 C 0.80937 0.24302 0.73777 0.0
C1325 C 0.82263 0.27176 0.76506 0.0
C1326 C 0.82655 0.24456 0.74721 0.0
C1327 C 0.77435 0.24034 0.72043 0.0
C1328 C 0.78208 0.25506 0.73377 0.0
C1329 C 0.78434 0.22711 0.71571 0.0
C1330 C 0.80183 0.22846 0.72433 0.0
Tb1331 Tb 0.78779 0.29036 0.76175 0.0
N1332 N 0.77265 0.26788 0.73921 0.0
C1333 C 0.75675 0.23924 0.7124 0.0
C1334 C 0.75564 0.26705 0.73083 0.0
C1335 C 0.74742 0.25272 0.71755 0.0
H1336 H 0.82797 0.28295 0.77555 0.0
H1337 H 0.73387 0.25216 0.7112 0.0
H1338 H 0.71804 0.29801 0.79739 0.0
H1339 H 0.80883 0.32013 0.86809 0.0
H1340 H 0.74818 0.27734 0.73385 0.0
H1341 H 0.7503 0.22813 0.70215 0.0
H1342 H 0.79572 0.29787 0.84179 0.0
H1343 H 0.84648 0.26033 0.76825 0.0
H1344 H 0.77861 0.2157 0.70551 0.0
H1345 H 0.80932 0.21806 0.72068 0.0
H1346 H 0.69923 0.3195 0.80707 0.0
H1347 H 0.83472 0.23462 0.74413 0.0
H1348 H 0.79225 0.3433 0.87933 0.0
N1349 N 0.73973 0.30882 0.81834 0.0
C1350 C 0.74562 0.32087 0.83374 0.0
C1351 C 0.71233 0.32015 0.8146 0.0
C1352 C 0.7353 0.33348 0.8398 0.0
C1353 C 0.72317 0.30812 0.80896 0.0
C1354 C 0.71848 0.333 0.83 0.0
N1355 N 0.7721 0.30887 0.83633 0.0
C1356 C 0.78834 0.3081 0.8457 0.0
C1357 C 0.76931 0.33375 0.85858 0.0
C1358 C 0.76235 0.32092 0.84307 0.0
C1359 C 0.78636 0.3336 0.86745 0.0
C1360 C 0.7958 0.3206 0.86109 0.0
H1361 H 0.71011 0.34242 0.83423 0.0
H1362 H 0.7345 0.35614 0.86002 0.0
H1363 H 0.76435 0.35646 0.87639 0.0
O1364 O 0.75971 0.26944 0.82667 0.0
O1365 O 0.76924 0.31788 0.80716 0.0
O1366 O 0.77911 0.30284 0.78556 0.0
O1367 O 0.73457 0.27608 0.81641 0.0
O1368 O 0.78653 0.28293 0.81204 0.0
O1369 O 0.80407 0.29611 0.78984 0.0
O1370 O 0.78656 0.30631 0.73987 0.0
O1371 O 0.78105 0.26471 0.77155 0.0
O1372 O 0.75804 0.27383 0.78352 0.0
O1373 O 0.81226 0.3049 0.75536 0.0
O1374 O 0.76152 0.2996 0.75797 0.0
O1375 O 0.7433 0.29101 0.78179 0.0
C1376 C 0.77823 0.31863 0.79314 0.0
C1377 C 0.73674 0.26641 0.84636 0.0
C1378 C 0.74137 0.25751 0.87746 0.0
C1379 C 0.72543 0.2629 0.88181 0.0
C1380 C 0.72069 0.27166 0.85064 0.0
C1381 C 0.71516 0.27 0.8684 0.0
C1382 C 0.74703 0.25953 0.85988 0.0
C1383 C 0.80231 0.28821 0.80554 0.0
C1384 C 0.74253 0.26692 0.82764 0.0
C1385 C 0.74217 0.34626 0.85525 0.0
C1386 C 0.75916 0.34643 0.86458 0.0
C1387 C 0.76765 0.26153 0.78125 0.0
C1388 C 0.81277 0.32361 0.72985 0.0
C1389 C 0.81174 0.33733 0.70095 0.0
C1390 C 0.83015 0.34418 0.70466 0.0
C1391 C 0.83115 0.33061 0.7336 0.0
C1392 C 0.80305 0.3273 0.71368 0.0
C1393 C 0.83977 0.34096 0.72104 0.0
C1394 C 0.74583 0.29713 0.76517 0.0
C1395 C 0.80386 0.31138 0.74186 0.0
H1396 H 0.72062 0.26101 0.89527 0.0
H1397 H 0.71234 0.27681 0.84027 0.0
H1398 H 0.70271 0.27384 0.87162 0.0
H1399 H 0.75929 0.25521 0.85657 0.0
H1400 H 0.83703 0.35206 0.69492 0.0
H1401 H 0.83887 0.32788 0.74604 0.0
H1402 H 0.78888 0.32181 0.71054 0.0
H1403 H 0.85396 0.34627 0.72388 0.0
Tb1404 Tb 0.76589 0.74795 0.75051 0.0
C1405 C 0.82215 0.8124 0.79294 0.0
N1406 N 0.80766 0.80234 0.79871 0.0
C1407 C 0.82395 0.80293 0.82902 0.0
C1408 C 0.83829 0.81785 0.80492 0.0
C1409 C 0.80832 0.79771 0.81655 0.0
C1410 C 0.83905 0.81297 0.82315 0.0
C1411 C 0.83537 0.82796 0.76846 0.0
C1412 C 0.8207 0.81734 0.77494 0.0
C1413 C 0.85161 0.83308 0.78018 0.0
C1414 C 0.85305 0.82809 0.79839 0.0
Tb1415 Tb 0.78258 0.79544 0.77745 0.0
N1416 N 0.80474 0.8122 0.76403 0.0
C1417 C 0.83309 0.83357 0.75063 0.0
C1418 C 0.802 0.81937 0.74762 0.0
C1419 C 0.81621 0.82956 0.74033 0.0
H1420 H 0.79668 0.79059 0.82147 0.0
H1421 H 0.81398 0.83477 0.72703 0.0
H1422 H 0.75883 0.75513 0.70534 0.0
H1423 H 0.7228 0.71339 0.79588 0.0
H1424 H 0.78878 0.81814 0.74053 0.0
H1425 H 0.84403 0.8417 0.7451 0.0
H1426 H 0.75037 0.73129 0.78814 0.0
H1427 H 0.82427 0.79935 0.8432 0.0
H1428 H 0.86304 0.84119 0.77542 0.0
H1429 H 0.86557 0.83237 0.80737 0.0
H1430 H 0.73432 0.74723 0.67975 0.0
H1431 H 0.85114 0.81704 0.83285 0.0
H1432 H 0.69701 0.70347 0.77147 0.0
N1433 N 0.74379 0.74285 0.72568 0.0
C1434 C 0.72815 0.73254 0.72863 0.0
C1435 C 0.73232 0.74319 0.6935 0.0
C1436 C 0.71391 0.72724 0.71411 0.0
C1437 C 0.74611 0.74801 0.70827 0.0
C1438 C 0.71614 0.73278 0.69642 0.0
N1439 N 0.74038 0.73275 0.75996 0.0
C1440 C 0.73925 0.72767 0.7775 0.0
C1441 C 0.71043 0.71648 0.74996 0.0
C1442 C 0.72645 0.72717 0.74628 0.0
C1443 C 0.7091 0.71161 0.76805 0.0
C1444 C 0.72359 0.71725 0.78188 0.0
H1445 H 0.70555 0.72893 0.68489 0.0
H1446 H 0.68693 0.71223 0.70666 0.0
H1447 H 0.68385 0.70289 0.73809 0.0
O1448 O 0.77525 0.72461 0.75675 0.0
O1449 O 0.74388 0.76267 0.75788 0.0
O1450 O 0.75669 0.78149 0.78426 0.0
O1451 O 0.76872 0.72964 0.72811 0.0
O1452 O 0.77846 0.74854 0.77984 0.0
O1453 O 0.77444 0.77499 0.79565 0.0
O1454 O 0.77043 0.81728 0.77185 0.0
O1455 O 0.8047 0.7806 0.77126 0.0
O1456 O 0.79295 0.76093 0.74512 0.0
O1457 O 0.78145 0.81428 0.80033 0.0
O1458 O 0.76767 0.79288 0.74911 0.0
O1459 O 0.77648 0.76895 0.73415 0.0
C1460 C 0.7424 0.77361 0.77288 0.0
C1461 C 0.76773 0.69957 0.73338 0.0
C1462 C 0.77462 0.67004 0.73522 0.0
C1463 C 0.76249 0.66339 0.71921 0.0
C1464 C 0.7553 0.69292 0.71753 0.0
C1465 C 0.75266 0.67481 0.71056 0.0
C1466 C 0.77701 0.68803 0.74226 0.0
C1467 C 0.7772 0.75847 0.79555 0.0
C1468 C 0.77406 0.71865 0.73901 0.0
C1469 C 0.69798 0.71648 0.71766 0.0
C1470 C 0.69624 0.71113 0.73554 0.0
C1471 C 0.80691 0.7698 0.75651 0.0
C1472 C 0.76711 0.83969 0.79673 0.0
C1473 C 0.75419 0.86542 0.79053 0.0
C1474 C 0.75336 0.86956 0.80975 0.0
C1475 C 0.7663 0.84374 0.81601 0.0
C1476 C 0.76095 0.85054 0.78403 0.0
C1477 C 0.75939 0.85866 0.82247 0.0
C1478 C 0.77099 0.78412 0.73369 0.0
C1479 C 0.77281 0.82338 0.7896 0.0
H1480 H 0.76071 0.6495 0.71343 0.0
H1481 H 0.74817 0.70175 0.71018 0.0
H1482 H 0.74336 0.66973 0.69815 0.0
H1483 H 0.78709 0.69335 0.75405 0.0
H1484 H 0.74796 0.8811 0.81481 0.0
H1485 H 0.77066 0.83522 0.82601 0.0
H1486 H 0.76135 0.84745 0.76907 0.0
H1487 H 0.75861 0.86171 0.8373 0.0
Tb1488 Tb 0.56575 0.549 0.54838 0.0
C1489 C 0.50426 0.49228 0.50068 0.0
N1490 N 0.51392 0.50787 0.49666 0.0
C1491 C 0.51378 0.49512 0.4649 0.0
C1492 C 0.49888 0.47748 0.48684 0.0
C1493 C 0.51871 0.50949 0.47902 0.0
C1494 C 0.50376 0.47908 0.46878 0.0
C1495 C 0.4896 0.47527 0.52343 0.0
C1496 C 0.49964 0.49121 0.51874 0.0
C1497 C 0.48416 0.46052 0.50967 0.0
C1498 C 0.48875 0.46164 0.49141 0.0
Tb1499 Tb 0.51923 0.53079 0.52043 0.0
N1500 N 0.50498 0.5058 0.53168 0.0
C1501 C 0.4851 0.47471 0.54174 0.0
C1502 C 0.49982 0.50553 0.54926 0.0
C1503 C 0.49018 0.48995 0.55469 0.0
H1504 H 0.52568 0.52204 0.47548 0.0
H1505 H 0.48632 0.48985 0.56875 0.0
H1506 H 0.55724 0.56069 0.59219 0.0
H1507 H 0.60546 0.58527 0.50144 0.0
H1508 H 0.50249 0.5173 0.55904 0.0
H1509 H 0.47742 0.46271 0.54592 0.0
H1510 H 0.58779 0.55888 0.5119 0.0
H1511 H 0.51751 0.4965 0.45096 0.0
H1512 H 0.47632 0.44822 0.51298 0.0
H1513 H 0.48438 0.45018 0.48092 0.0
H1514 H 0.5637 0.58748 0.61504 0.0
H1515 H 0.4998 0.46804 0.45773 0.0
H1516 H 0.6123 0.61392 0.52211 0.0
N1517 N 0.56967 0.57337 0.57058 0.0
C1518 C 0.58001 0.58845 0.56623 0.0
C1519 C 0.56812 0.58805 0.60125 0.0
C1520 C 0.58457 0.60403 0.57918 0.0
C1521 C 0.56402 0.57291 0.588 0.0
C1522 C 0.57837 0.60371 0.5968 0.0
N1523 N 0.58181 0.57278 0.53676 0.0
C1524 C 0.58923 0.57148 0.52033 0.0
C1525 C 0.5974 0.60339 0.54394 0.0
C1526 C 0.58635 0.58811 0.54883 0.0
C1527 C 0.60385 0.60247 0.52643 0.0
C1528 C 0.59989 0.58637 0.51466 0.0
H1529 H 0.5817 0.61536 0.60719 0.0
H1530 H 0.59906 0.63138 0.58406 0.0
H1531 H 0.61022 0.63085 0.55316 0.0
O1532 O 0.58949 0.53957 0.5442 0.0
O1533 O 0.55049 0.57037 0.54044 0.0
O1534 O 0.53175 0.55735 0.51401 0.0
O1535 O 0.58413 0.54962 0.57215 0.0
O1536 O 0.56514 0.53498 0.51961 0.0
O1537 O 0.53994 0.54106 0.50355 0.0
O1538 O 0.49619 0.54032 0.52726 0.0
O1539 O 0.53504 0.50971 0.52746 0.0
O1540 O 0.5531 0.522 0.55456 0.0
O1541 O 0.49973 0.53175 0.49818 0.0
O1542 O 0.52012 0.54534 0.54865 0.0
O1543 O 0.54485 0.53915 0.56524 0.0
C1544 C 0.53948 0.57165 0.52547 0.0
C1545 C 0.61218 0.53961 0.5702 0.0
C1546 C 0.63818 0.5264 0.56638 0.0
C1547 C 0.64396 0.53055 0.58558 0.0
C1548 C 0.61794 0.54401 0.58946 0.0
C1549 C 0.63387 0.53951 0.59709 0.0
C1550 C 0.62249 0.53105 0.55871 0.0
C1551 C 0.55589 0.53704 0.50378 0.0
C1552 C 0.59508 0.54303 0.56206 0.0
C1553 C 0.5954 0.61931 0.57428 0.0
C1554 C 0.60177 0.619 0.55669 0.0
C1555 C 0.54479 0.50782 0.54308 0.0
C1556 C 0.47289 0.54322 0.50302 0.0
C1557 C 0.44828 0.55762 0.50989 0.0
C1558 C 0.44269 0.55678 0.49069 0.0
C1559 C 0.46731 0.54223 0.48373 0.0
C1560 C 0.46319 0.55076 0.51606 0.0
C1561 C 0.45219 0.54898 0.47762 0.0
C1562 C 0.52899 0.54347 0.56466 0.0
C1563 C 0.48997 0.53866 0.50955 0.0
H1564 H 0.65618 0.52688 0.59156 0.0
H1565 H 0.61009 0.55069 0.59861 0.0
H1566 H 0.63828 0.54279 0.61193 0.0
H1567 H 0.61813 0.5275 0.54384 0.0
H1568 H 0.43104 0.56212 0.4859 0.0
H1569 H 0.47487 0.5367 0.4734 0.0
H1570 H 0.46746 0.55181 0.53099 0.0
H1571 H 0.44798 0.54839 0.46277 0.0
Tb1572 Tb 0.99987 0.52393 0.04425 0.0
C1573 C 0.06264 0.56394 0.00673 0.0
N1574 N 0.05195 0.54765 0.00118 0.0
C1575 C 0.04909 0.55488 0.96939 0.0
C1576 C 0.06636 0.5765 0.99383 0.0
C1577 C 0.04634 0.54262 0.98246 0.0
C1578 C 0.05889 0.572 0.97514 0.0
C1579 C 0.08399 0.58334 0.03053 0.0
C1580 C 0.07142 0.56744 0.02497 0.0
C1581 C 0.08705 0.59612 0.01791 0.0
C1582 C 0.07822 0.59274 0.99965 0.0
Tb1583 Tb 0.05005 0.52915 0.02447 0.0
N1584 N 0.06842 0.5548 0.03695 0.0
C1585 C 0.09372 0.58554 0.04835 0.0
C1586 C 0.0788 0.55625 0.05371 0.0
C1587 C 0.09128 0.57178 0.0598 0.0
H1588 H 0.04028 0.52901 0.97721 0.0
H1589 H 0.09915 0.57291 0.07316 0.0
H1590 H 0.0111 0.52223 0.09103 0.0
H1591 H 0.95011 0.4808 0.99398 0.0
H1592 H 0.07738 0.54541 0.0623 0.0
H1593 H 0.10362 0.59749 0.0531 0.0
H1594 H 0.97279 0.50766 0.00526 0.0
H1595 H 0.04419 0.55088 0.95473 0.0
H1596 H 0.09665 0.60842 0.02196 0.0
H1597 H 0.0812 0.60249 0.98989 0.0
H1598 H 1.00543 0.50033 0.11318 0.0
H1599 H 0.06144 0.58128 0.96483 0.0
H1600 H 0.94328 0.45723 0.01482 0.0
N1601 N 0.99661 0.50501 0.06719 0.0
C1602 C 0.98446 0.48958 0.06176 0.0
C1603 C 0.99976 0.49697 0.09867 0.0
C1604 C 0.9802 0.47694 0.07449 0.0
C1605 C 1.00338 0.50923 0.08572 0.0
C1606 C 0.98835 0.48065 0.09298 0.0
N1607 N 0.97952 0.4992 0.03165 0.0
C1608 C 0.97033 0.49735 0.01419 0.0
C1609 C 0.96246 0.47115 0.03786 0.0
C1610 C 0.97548 0.48672 0.04363 0.0
C1611 C 0.95341 0.46896 0.01973 0.0
C1612 C 0.95726 0.48221 0.00791 0.0
H1613 H 0.98538 0.47131 0.10316 0.0
H1614 H 0.96416 0.45146 0.07822 0.0
H1615 H 0.94874 0.44636 0.04616 0.0
O1616 O 0.97482 0.53163 0.03669 0.0
O1617 O 1.0068 0.49847 0.03078 0.0
O1618 O 0.03468 0.5015 0.01839 0.0
O1619 O 0.98817 0.53651 0.06545 0.0
O1620 O 0.00862 0.53511 0.01959 0.0
O1621 O 0.02708 0.52117 0.00339 0.0
O1622 O 0.07102 0.51648 0.03524 0.0
O1623 O 0.04376 0.55258 0.04263 0.0
O1624 O 0.01296 0.55102 0.03831 0.0
O1625 O 0.0705 0.52561 0.00809 0.0
O1626 O 0.04003 0.51635 0.04782 0.0
O1627 O 0.0231 0.53156 0.06474 0.0
C1628 C 0.01941 0.49186 0.02217 0.0
C1629 C 0.95965 0.54585 0.06103 0.0
C1630 C 0.93379 0.56026 0.0562 0.0
C1631 C 0.93187 0.56046 0.0754 0.0
C1632 C 0.95748 0.54624 0.08019 0.0
C1633 C 0.94368 0.55352 0.0873 0.0
C1634 C 0.9478 0.55302 0.04899 0.0
C1635 C 0.01147 0.5257 0.00461 0.0
C1636 C 0.97435 0.53794 0.05404 0.0
C1637 C 0.96751 0.46128 0.06862 0.0
C1638 C 0.95868 0.4584 0.05037 0.0
C1639 C 0.02946 0.5603 0.04307 0.0
C1640 C 0.08669 0.50234 0.01233 0.0
C1641 C 0.10985 0.48389 0.01447 0.0
C1642 C 0.10513 0.4774 0.99546 0.0
C1643 C 0.08208 0.49536 0.99334 0.0
C1644 C 0.1007 0.49651 0.0229 0.0
C1645 C 0.09134 0.48311 0.985 0.0
C1646 C 0.03771 0.52519 0.06338 0.0
C1647 C 0.07899 0.51761 0.02014 0.0
H1648 H 0.92126 0.56614 0.08123 0.0
H1649 H 0.96641 0.54079 0.08972 0.0
H1650 H 0.94212 0.55377 0.10208 0.0
H1651 H 0.94936 0.55288 0.03419 0.0
H1652 H 0.1123 0.46803 0.98865 0.0
H1653 H 0.07168 0.49979 0.9847 0.0
H1654 H 0.1047 0.502 0.03742 0.0
H1655 H 0.08798 0.47819 0.97028 0.0
H1656 H 0.99659 0.22641 0.98335 0.0
H1657 H 1.00182 0.19937 0.99721 0.0
H1658 H 0.02883 0.18437 0.94996 0.0
H1659 H 0.02262 0.21069 0.93571 0.0
H1660 H 0.01285 0.15601 0.95685 0.0
H1661 H 0.04926 0.20253 1.00067 0.0
H1662 H 0.05583 0.22983 0.02329 0.0
H1663 H 0.01832 0.20525 0.05807 0.0
H1664 H 0.01137 0.17788 0.03555 0.0
H1665 H 0.04948 0.0856 0.99444 0.0
H1666 H 0.04622 0.11451 0.98382 0.0
H1667 H 0.01577 0.12492 0.02968 0.0
H1668 H 0.02043 0.09654 0.04114 0.0
H1669 H 0.03285 0.15545 0.02416 0.0
H1670 H 0.99861 0.10748 0.97886 0.0
H1671 H 0.99615 0.08029 0.95641 0.0
H1672 H 0.03278 0.10887 0.92365 0.0
H1673 H 0.03625 0.13598 0.94616 0.0
C1674 C 1.0036 0.21732 0.97587 0.0
C1675 C 0.00904 0.22095 0.95823 0.0
C1676 C 1.00684 0.20177 0.98398 0.0
C1677 C 0.01613 0.18942 0.97505 0.0
C1678 C 0.02159 0.19322 0.95744 0.0
C1679 C 0.01803 0.2085 0.9492 0.0
C1680 C 0.01976 0.17241 0.98343 0.0
C1681 C 0.01747 0.15616 0.97157 0.0
C1682 C 0.02548 0.17182 0.00276 0.0
C1683 C 0.02965 0.18824 0.01631 0.0
C1684 C 0.04233 0.203 0.01308 0.0
C1685 C 0.04613 0.21847 0.02589 0.0
C1686 C 0.03745 0.2193 0.04207 0.0
C1687 C 0.025 0.20462 0.04551 0.0
C1688 C 0.02113 0.18911 0.03274 0.0
C1689 C 0.0422 0.09411 0.00236 0.0
C1690 C 0.03511 0.08853 0.01861 0.0
C1691 C 0.04012 0.11072 0.99612 0.0
C1692 C 0.03006 0.1221 0.00533 0.0
C1693 C 0.02342 0.11667 0.02195 0.0
C1694 C 0.02603 0.10029 0.02854 0.0
C1695 C 0.02614 0.13923 0.99748 0.0
C1696 C 0.02826 0.15541 0.00945 0.0
C1697 C 0.02055 0.13988 0.97816 0.0
C1698 C 0.01774 0.12376 0.96425 0.0
C1699 C 1.00614 0.10798 0.96687 0.0
C1700 C 1.00458 0.09259 0.95419 0.0
C1701 C 0.01413 0.09292 0.93863 0.0
C1702 C 0.02536 0.10864 0.9357 0.0
C1703 C 0.02719 0.124 0.94844 0.0
H1704 H 0.01286 0.08097 0.92887 0.0
H1705 H 0.04041 0.23129 0.05196 0.0
H1706 H 0.11913 0.78885 0.1262 0.0
H1707 H 0.14632 0.79003 0.14783 0.0
H1708 H 0.11958 0.80822 0.194 0.0
H1709 H 0.09257 0.80718 0.17252 0.0
H1710 H 0.15262 0.82646 0.19779 0.0
H1711 H 0.12593 0.76478 0.18642 0.0
H1712 H 0.11289 0.73609 0.16743 0.0
H1713 H 0.16276 0.73491 0.1449 0.0
H1714 H 0.17601 0.76379 0.16351 0.0
H1715 H 0.21262 0.80562 0.2725 0.0
H1716 H 0.18617 0.80561 0.25059 0.0
H1717 H 0.21615 0.79642 0.20414 0.0
H1718 H 0.24265 0.7965 0.2259 0.0
H1719 H 0.18159 0.77334 0.20066 0.0
H1720 H 0.20788 0.83575 0.21334 0.0
H1721 H 0.22002 0.86402 0.23346 0.0
H1722 H 0.16949 0.86287 0.25522 0.0
H1723 H 0.15714 0.83439 0.23547 0.0
C1724 C 0.11909 0.79321 0.14094 0.0
C1725 C 0.10358 0.7979 0.14755 0.0
C1726 C 0.13465 0.79378 0.15336 0.0
C1727 C 0.13511 0.79906 0.17273 0.0
C1728 C 0.11973 0.80411 0.17922 0.0
C1729 C 0.1042 0.80345 0.16686 0.0
C1730 C 0.15142 0.79913 0.1863 0.0
C1731 C 0.15878 0.81474 0.1985 0.0
C1732 C 0.15976 0.78398 0.18732 0.0
C1733 C 0.1519 0.76656 0.17619 0.0
C1734 C 0.13407 0.75848 0.17729 0.0
C1735 C 0.12665 0.74218 0.16661 0.0
C1736 C 0.13697 0.73371 0.15492 0.0
C1737 C 0.15476 0.74151 0.15393 0.0
C1738 C 0.16224 0.75785 0.16454 0.0
C1739 C 0.21367 0.80336 0.25773 0.0
C1740 C 0.22991 0.8005 0.25131 0.0
C1741 C 0.19845 0.80352 0.2451 0.0
C1742 C 0.19899 0.80078 0.2256 0.0
C1743 C 0.21522 0.79832 0.21908 0.0
C1744 C 0.23047 0.79844 0.23168 0.0
C1745 C 0.18276 0.80067 0.21199 0.0
C1746 C 0.17541 0.78504 0.19987 0.0
C1747 C 0.17428 0.81571 0.21121 0.0
C1748 C 0.18165 0.83283 0.22308 0.0
C1749 C 0.19941 0.84142 0.22256 0.0
C1750 C 0.20632 0.8575 0.23387 0.0
C1751 C 0.19555 0.86521 0.24565 0.0
C1752 C 0.17783 0.85686 0.24611 0.0
C1753 C 0.17087 0.84075 0.23486 0.0
H1754 H 0.20091 0.87768 0.25438 0.0
H1755 H 0.1312 0.72108 0.14666 0.0
H1756 H 0.48109 0.81965 0.46565 0.0
H1757 H 0.4822 0.85114 0.47772 0.0
H1758 H 0.53868 0.86261 0.47285 0.0
H1759 H 0.53743 0.83136 0.45997 0.0
H1760 H 0.52802 0.87742 0.50873 0.0
H1761 H 0.51503 0.87653 0.4424 0.0
H1762 H 0.49871 0.86683 0.41091 0.0
H1763 H 0.45111 0.88132 0.43012 0.0
H1764 H 0.4671 0.89084 0.46186 0.0
H1765 H 0.54637 0.97338 0.51643 0.0
H1766 H 0.54354 0.94127 0.50699 0.0
H1767 H 0.48617 0.93502 0.50382 0.0
H1768 H 0.48907 0.96714 0.51343 0.0
H1769 H 0.49603 0.91695 0.47295 0.0
H1770 H 0.50905 0.91877 0.53903 0.0
H1771 H 0.52503 0.9279 0.57078 0.0
H1772 H 0.57217 0.91151 0.55247 0.0
H1773 H 0.55653 0.90245 0.52054 0.0
C1774 C 0.49377 0.82885 0.46725 0.0
C1775 C 0.50919 0.82286 0.46187 0.0
C1776 C 0.49438 0.84694 0.47409 0.0
C1777 C 0.51054 0.85947 0.47628 0.0
C1778 C 0.52603 0.85336 0.47137 0.0
C1779 C 0.5253 0.83543 0.46397 0.0
C1780 C 0.51126 0.8789 0.48345 0.0
C1781 C 0.52119 0.88609 0.50077 0.0
C1782 C 0.502 0.89031 0.47346 0.0
C1783 C 0.49219 0.88413 0.45458 0.0
C1784 C 0.50101 0.8774 0.44 0.0
C1785 C 0.49184 0.87199 0.42208 0.0
C1786 C 0.47386 0.87339 0.41854 0.0
C1787 C 0.46502 0.88019 0.43291 0.0
C1788 C 0.47413 0.88559 0.45086 0.0
C1789 C 0.53309 0.96523 0.51376 0.0
C1790 C 0.51788 0.97314 0.5158 0.0
C1791 C 0.5315 0.94671 0.50845 0.0
C1792 C 0.51462 0.93538 0.50471 0.0
C1793 C 0.4994 0.94323 0.50661 0.0
C1794 C 0.50104 0.96174 0.51226 0.0
C1795 C 0.51294 0.9156 0.49823 0.0
C1796 C 0.50281 0.9083 0.481 0.0
C1797 C 0.522 0.90409 0.50834 0.0
C1798 C 0.53168 0.91014 0.52732 0.0
C1799 C 0.5229 0.91733 0.5417 0.0
C1800 C 0.53188 0.92243 0.55975 0.0
C1801 C 0.54962 0.92034 0.56362 0.0
C1802 C 0.55843 0.91316 0.54944 0.0
C1803 C 0.54951 0.90803 0.53137 0.0
H1804 H 0.55653 0.92424 0.57762 0.0
H1805 H 0.4668 0.86926 0.40464 0.0
H1806 H 0.49158 0.27233 0.62047 0.0
H1807 H 0.4658 0.26913 0.63838 0.0
H1808 H 0.4983 0.30153 0.68589 0.0
H1809 H 0.52428 0.30391 0.66832 0.0
H1810 H 0.47915 0.27561 0.69809 0.0
H1811 H 0.46467 0.31622 0.65387 0.0
H1812 H 0.45904 0.32565 0.62239 0.0
H1813 H 0.41616 0.28056 0.60767 0.0
H1814 H 0.42171 0.27072 0.63895 0.0
H1815 H 0.40806 0.28392 0.75198 0.0
H1816 H 0.43239 0.29266 0.73289 0.0
H1817 H 0.40169 0.25925 0.68499 0.0
H1818 H 0.37729 0.251 0.70397 0.0
H1819 H 0.41985 0.28678 0.67306 0.0
H1820 H 0.43427 0.24532 0.71549 0.0
H1821 H 0.43998 0.23393 0.74594 0.0
H1822 H 0.48293 0.27853 0.76305 0.0
H1823 H 0.47726 0.29038 0.73283 0.0
C1824 C 0.4932 0.2788 0.63473 0.0
C1825 C 0.50997 0.28842 0.64295 0.0
C1826 C 0.47838 0.27709 0.64495 0.0
C1827 C 0.47985 0.2854 0.66347 0.0
C1828 C 0.49667 0.295 0.67165 0.0
C1829 C 0.51155 0.2964 0.66157 0.0
C1830 C 0.46414 0.28369 0.6746 0.0
C1831 C 0.46629 0.27841 0.6927 0.0
C1832 C 0.44707 0.28668 0.66747 0.0
C1833 C 0.44371 0.29267 0.6487 0.0
C1834 C 0.45412 0.30827 0.64388 0.0
C1835 C 0.45094 0.31368 0.62607 0.0
C1836 C 0.43728 0.30369 0.61303 0.0
C1837 C 0.42675 0.28828 0.61777 0.0
C1838 C 0.4299 0.28278 0.63554 0.0
C1839 C 0.40626 0.2791 0.73717 0.0
C1840 C 0.39068 0.26708 0.72932 0.0
C1841 C 0.4203 0.28382 0.72633 0.0
C1842 C 0.41915 0.27629 0.70753 0.0
C1843 C 0.40303 0.26523 0.69941 0.0
C1844 C 0.389 0.26062 0.71022 0.0
C1845 C 0.43495 0.27894 0.69661 0.0
C1846 C 0.43279 0.28424 0.67852 0.0
C1847 C 0.45198 0.2758 0.70367 0.0
C1848 C 0.45517 0.26886 0.72199 0.0
C1849 C 0.4448 0.25281 0.72582 0.0
C1850 C 0.44805 0.24625 0.74303 0.0
C1851 C 0.46177 0.25553 0.75644 0.0
C1852 C 0.47227 0.27139 0.75268 0.0
C1853 C 0.46903 0.27804 0.73552 0.0
H1854 H 0.4643 0.2504 0.76973 0.0
H1855 H 0.43483 0.30792 0.59926 0.0
H1856 H 0.99797 0.79732 0.64156 0.0
H1857 H 1.00038 0.82368 0.62454 0.0
H1858 H 0.05534 0.84059 0.64889 0.0
H1859 H 0.05241 0.81497 0.66702 0.0
H1860 H 0.0424 0.86834 0.64762 0.0
H1861 H 0.03978 0.81814 0.60014 0.0
H1862 H 0.02606 0.78869 0.58298 0.0
H1863 H 0.97852 0.80885 0.56646 0.0
H1864 H 0.99192 0.83837 0.58366 0.0
H1865 H 0.07654 0.92226 0.57941 0.0
H1866 H 0.06853 0.90003 0.60093 0.0
H1867 H 0.01307 0.89324 0.57843 0.0
H1868 H 0.02117 0.91563 0.55682 0.0
H1869 H 0.02322 0.86151 0.57923 0.0
H1870 H 0.0277 0.91277 0.62447 0.0
H1871 H 0.04157 0.94187 0.64227 0.0
H1872 H 0.08648 0.91951 0.66286 0.0
H1873 H 0.07294 0.89032 0.64508 0.0
C1874 C 0.01055 0.8067 0.64327 0.0
C1875 C 0.02504 0.80402 0.65552 0.0
C1876 C 0.01199 0.82175 0.6334 0.0
C1877 C 0.02823 0.83407 0.6349 0.0
C1878 C 0.04266 0.8314 0.64733 0.0
C1879 C 0.04102 0.81667 0.65766 0.0
C1880 C 0.03033 0.84969 0.6236 0.0
C1881 C 0.03839 0.86672 0.63262 0.0
C1882 C 0.02462 0.84795 0.60407 0.0
C1883 C 0.01679 0.83039 0.59328 0.0
C1884 C 0.02639 0.81627 0.59286 0.0
C1885 C 0.01867 0.79957 0.58314 0.0
C1886 C 1.00142 0.79689 0.57367 0.0
C1887 C 0.99188 0.81094 0.57381 0.0
C1888 C 0.99954 0.82766 0.58351 0.0
C1889 C 0.06259 0.91631 0.57938 0.0
C1890 C 0.04945 0.92075 0.56657 0.0
C1891 C 0.05799 0.90362 0.59172 0.0
C1892 C 0.04015 0.89496 0.59148 0.0
C1893 C 0.02691 0.89975 0.57899 0.0
C1894 C 0.03151 0.91264 0.56675 0.0
C1895 C 0.03566 0.88 0.6032 0.0
C1896 C 0.02714 0.8631 0.59425 0.0
C1897 C 0.04111 0.88183 0.62274 0.0
C1898 C 0.04936 0.8994 0.63333 0.0
C1899 C 0.04059 0.9141 0.63268 0.0
C1900 C 0.04838 0.9306 0.6428 0.0
C1901 C 0.06491 0.93255 0.65366 0.0
C1902 C 0.07368 0.91799 0.65445 0.0
C1903 C 0.06594 0.90145 0.64438 0.0
H1904 H 0.07091 0.94533 0.66149 0.0
H1905 H 0.99544 0.78394 0.5662 0.0
H1906 H 0.48235 0.81876 0.8631 0.0
H1907 H 0.45164 0.81823 0.84991 0.0
H1908 H 0.46098 0.78855 0.79898 0.0
H1909 H 0.49238 0.79046 0.81178 0.0
H1910 H 0.43956 0.80754 0.78839 0.0
H1911 H 0.4353 0.77028 0.83857 0.0
H1912 H 0.44052 0.7629 0.87099 0.0
H1913 H 0.41496 0.80571 0.89097 0.0
H1914 H 0.40974 0.81344 0.8587 0.0
H1915 H 0.34518 0.78147 0.75656 0.0
H1916 H 0.37703 0.78341 0.76705 0.0
H1917 H 0.37069 0.8137 0.81886 0.0
H1918 H 0.33857 0.81049 0.8088 0.0
H1919 H 0.39073 0.79352 0.82815 0.0
H1920 H 0.39424 0.82999 0.77668 0.0
H1921 H 0.38917 0.83643 0.7439 0.0
H1922 H 0.41577 0.79386 0.72567 0.0
H1923 H 0.42085 0.78703 0.75829 0.0
C1924 C 0.47792 0.81212 0.84906 0.0
C1925 C 0.48999 0.80453 0.83865 0.0
C1926 C 0.46008 0.8116 0.8415 0.0
C1927 C 0.45324 0.80273 0.8235 0.0
C1928 C 0.46546 0.7954 0.81292 0.0
C1929 C 0.48355 0.79643 0.8203 0.0
C1930 C 0.43356 0.80122 0.81582 0.0
C1931 C 0.42894 0.80424 0.79712 0.0
C1932 C 0.41923 0.79722 0.82691 0.0
C1933 C 0.42226 0.79251 0.84627 0.0
C1934 C 0.43087 0.77815 0.8499 0.0
C1935 C 0.43382 0.77391 0.86824 0.0
C1936 C 0.42811 0.78385 0.88303 0.0
C1937 C 0.41938 0.79803 0.87951 0.0
C1938 C 0.41641 0.80233 0.8612 0.0
C1939 C 0.35064 0.78861 0.77016 0.0
C1940 C 0.33925 0.79581 0.78181 0.0
C1941 C 0.36905 0.78992 0.77616 0.0
C1942 C 0.37691 0.79905 0.79379 0.0
C1943 C 0.36539 0.8065 0.80525 0.0
C1944 C 0.3469 0.80475 0.79946 0.0
C1945 C 0.39667 0.80014 0.8008 0.0
C1946 C 0.40132 0.79692 0.81941 0.0
C1947 C 0.41094 0.80382 0.78953 0.0
C1948 C 0.40778 0.8079 0.76992 0.0
C1949 C 0.3989 0.82193 0.76567 0.0
C1950 C 0.39603 0.82565 0.74712 0.0
C1951 C 0.40208 0.81553 0.73272 0.0
C1952 C 0.41106 0.80167 0.73683 0.0
C1953 C 0.41395 0.79788 0.75535 0.0
H1954 H 0.39986 0.81844 0.71837 0.0
H1955 H 0.43041 0.78055 0.89722 0.0
H1956 H 0.53151 0.22319 0.12917 0.0
H1957 H 0.53088 0.19614 0.10804 0.0
H1958 H 0.49994 0.16493 0.14452 0.0
H1959 H 0.50182 0.19202 0.16649 0.0
H1960 H 0.51985 0.14541 0.13204 0.0
H1961 H 0.48214 0.17836 0.09864 0.0
H1962 H 0.47386 0.20468 0.08519 0.0
H1963 H 0.5166 0.20587 0.05048 0.0
H1964 H 0.52525 0.17965 0.06386 0.0
H1965 H 0.49603 0.06935 0.06214 0.0
H1966 H 0.4953 0.09545 0.08438 0.0
H1967 H 0.53151 0.12836 0.05396 0.0
H1968 H 0.53217 0.10239 0.03166 0.0
H1969 H 0.50712 0.14625 0.06343 0.0
H1970 H 0.54558 0.11394 0.10047 0.0
H1971 H 0.55286 0.08795 0.11552 0.0
H1972 H 0.50499 0.08429 0.14256 0.0
H1973 H 0.49772 0.11071 0.12831 0.0
C1974 C 0.52457 0.21056 0.13272 0.0
C1975 C 0.51659 0.20985 0.1495 0.0
C1976 C 0.52403 0.195 0.12045 0.0
C1977 C 0.51482 0.17826 0.1241 0.0
C1978 C 0.50706 0.17752 0.14108 0.0
C1979 C 0.50807 0.19307 0.15369 0.0
C1980 C 0.51354 0.16165 0.11037 0.0
C1981 C 0.51676 0.14565 0.11708 0.0
C1982 C 0.50973 0.16156 0.09065 0.0
C1983 C 0.50442 0.17714 0.08236 0.0
C1984 C 0.48981 0.18428 0.08819 0.0
C1985 C 0.48505 0.19918 0.08058 0.0
C1986 C 0.49473 0.20697 0.06702 0.0
C1987 C 0.50913 0.19983 0.06099 0.0
C1988 C 0.51395 0.18493 0.06856 0.0
C1989 C 0.50376 0.08217 0.06008 0.0
C1990 C 0.51394 0.08366 0.04481 0.0
C1991 C 0.50349 0.09713 0.073 0.0
C1992 C 0.5136 0.11405 0.07123 0.0
C1993 C 0.52355 0.1156 0.05581 0.0
C1994 C 0.52378 0.10066 0.04287 0.0
C1995 C 0.51363 0.13019 0.08512 0.0
C1996 C 0.51014 0.14608 0.07842 0.0
C1997 C 0.51683 0.13006 0.10483 0.0
C1998 C 0.52103 0.11413 0.11319 0.0
C1999 C 0.53658 0.10754 0.10957 0.0
C2000 C 0.54072 0.09279 0.11799 0.0
C2001 C 0.52929 0.08439 0.12979 0.0
C2002 C 0.51379 0.09085 0.13341 0.0
C2003 C 0.50973 0.10577 0.1253 0.0
H2004 H 0.53248 0.07292 0.13621 0.0
H2005 H 0.49104 0.21853 0.06117 0.0
H2006 H 0.07671 0.2795 0.31725 0.0
H2007 H 0.10394 0.27332 0.30436 0.0
H2008 H 0.13565 0.31609 0.34308 0.0
H2009 H 0.10848 0.32228 0.35596 0.0
H2010 H 0.14721 0.31761 0.30962 0.0
H2011 H 0.13414 0.2694 0.34766 0.0
H2012 H 0.11529 0.24321 0.35773 0.0
H2013 H 0.11086 0.21535 0.30237 0.0
H2014 H 0.12952 0.24148 0.29191 0.0
H2015 H 0.23469 0.29901 0.30024 0.0
H2016 H 0.20621 0.30406 0.31048 0.0
H2017 H 0.17833 0.2592 0.27186 0.0
H2018 H 0.20686 0.2545 0.26108 0.0
H2019 H 0.16385 0.25763 0.30399 0.0
H2020 H 0.17313 0.30243 0.26434 0.0
H2021 H 0.18335 0.32892 0.24851 0.0
H2022 H 0.19027 0.36243 0.30097 0.0
H2023 H 0.18018 0.33608 0.31718 0.0
C2024 C 0.08946 0.28767 0.32302 0.0
C2025 C 0.09014 0.3015 0.33772 0.0
C2026 C 0.10519 0.28399 0.3157 0.0
C2027 C 0.12227 0.294 0.32275 0.0
C2028 C 0.12289 0.30799 0.33724 0.0
C2029 C 0.1072 0.31158 0.34465 0.0
C2030 C 0.13938 0.29036 0.31487 0.0
C2031 C 0.151 0.30454 0.30885 0.0
C2032 C 0.1442 0.27315 0.3127 0.0
C2033 C 0.13308 0.25744 0.31898 0.0
C2034 C 0.12904 0.25773 0.33761 0.0
C2035 C 0.11842 0.24289 0.34339 0.0
C2036 C 0.11185 0.22764 0.33069 0.0
C2037 C 0.11594 0.22718 0.31219 0.0
C2038 C 0.12656 0.24199 0.30633 0.0
C2039 C 0.22256 0.29016 0.29378 0.0
C2040 C 0.22349 0.27611 0.27983 0.0
C2041 C 0.20607 0.29317 0.29966 0.0
C2042 C 0.18968 0.28211 0.29211 0.0
C2043 C 0.19053 0.26803 0.27817 0.0
C2044 C 0.20705 0.26527 0.27195 0.0
C2045 C 0.17197 0.28507 0.29912 0.0
C2046 C 0.16025 0.27077 0.30498 0.0
C2047 C 0.16678 0.30211 0.30076 0.0
C2048 C 0.17604 0.31728 0.29198 0.0
C2049 C 0.17729 0.31536 0.27259 0.0
C2050 C 0.18287 0.33037 0.26352 0.0
C2051 C 0.18718 0.34732 0.27371 0.0
C2052 C 0.18673 0.34927 0.29311 0.0
C2053 C 0.18113 0.33431 0.30225 0.0
H2054 H 0.19075 0.35894 0.26651 0.0
H2055 H 0.10362 0.21616 0.33519 0.0
H2056 H 0.93357 0.04344 0.20616 0.0
H2057 H 0.95027 0.05022 0.17971 0.0
H2058 H 0.97826 0.00672 0.18867 0.0
H2059 H 0.96268 1.00111 0.21631 0.0
H2060 H 1.00065 0.0318 0.18028 0.0
H2061 H 0.93979 0.00653 0.14852 0.0
H2062 H 0.90727 0.00636 0.14462 0.0
H2063 H 0.91722 0.06179 0.13557 0.0
H2064 H 0.94974 0.06215 0.13905 0.0
H2065 H 0.03428 0.02021 0.09296 0.0
H2066 H 0.01919 0.01817 0.12118 0.0
H2067 H 0.99242 0.06127 0.107 0.0
H2068 H 1.00657 0.06228 0.07788 0.0
H2069 H 0.96975 0.03929 0.11868 0.0
H2070 H 0.02962 0.0642 0.14545 0.0
H2071 H 0.06235 0.06672 0.15134 0.0
H2072 H 0.05535 0.01544 0.17217 0.0
H2073 H 0.02259 0.01251 0.16618 0.0
C2074 C 0.94321 0.03526 0.20237 0.0
C2075 C 0.9467 0.02161 0.21315 0.0
C2076 C 0.95268 0.03902 0.18706 0.0
C2077 C 0.96525 0.02865 0.18156 0.0
C2078 C 0.96864 0.01494 0.1924 0.0
C2079 C 0.95966 0.01164 0.20817 0.0
C2080 C 0.97519 0.03224 0.16489 0.0
C2081 C 0.99382 0.03315 0.16674 0.0
C2082 C 0.96661 0.03493 0.14731 0.0
C2083 C 0.94711 0.03437 0.14413 0.0
C2084 C 0.93499 0.01862 0.14559 0.0
C2085 C 0.91658 0.0185 0.14344 0.0
C2086 C 0.91019 0.03407 0.13992 0.0
C2087 C 0.92218 0.04974 0.13831 0.0
C2088 C 0.94058 0.04987 0.14019 0.0
C2089 C 0.02532 0.02938 0.09599 0.0
C2090 C 0.02166 0.04146 0.08326 0.0
C2091 C 0.01675 0.02832 0.11227 0.0
C2092 C 1.00485 0.03984 0.1167 0.0
C2093 C 1.00148 0.05219 0.10408 0.0
C2094 C 0.00963 0.05284 0.08744 0.0
C2095 C 0.99523 0.03832 0.13389 0.0
C2096 C 0.97666 0.03791 0.13217 0.0
C2097 C 1.00394 0.03634 0.15167 0.0
C2098 C 0.02365 0.03808 0.15523 0.0
C2099 C 0.03506 0.05341 0.15117 0.0
C2100 C 0.05362 0.05492 0.15454 0.0
C2101 C 0.06092 0.04124 0.16209 0.0
C2102 C 0.04968 0.02603 0.16631 0.0
C2103 C 0.03112 0.02445 0.16295 0.0
H2104 H 0.0753 0.04244 0.1647 0.0
H2105 H 0.89595 0.03398 0.13836 0.0
H2106 H 0.25483 0.63455 0.47975 0.0
H2107 H 0.25375 0.6528 0.4536 0.0
H2108 H 0.27586 0.7003 0.49177 0.0
H2109 H 0.27652 0.68238 0.51782 0.0
H2110 H 0.24592 0.70328 0.47009 0.0
H2111 H 0.3015 0.68142 0.46261 0.0
H2112 H 0.31825 0.65676 0.45827 0.0
H2113 H 0.28527 0.63646 0.40643 0.0
H2114 H 0.26817 0.66087 0.41062 0.0
H2115 H 0.25953 0.76877 0.41209 0.0
H2116 H 0.27001 0.74896 0.43381 0.0
H2117 H 0.25048 0.70344 0.39218 0.0
H2118 H 0.24077 0.72325 0.37029 0.0
H2119 H 0.27874 0.69785 0.41422 0.0
H2120 H 0.22301 0.71784 0.42086 0.0
H2121 H 0.20394 0.74057 0.42478 0.0
H2122 H 0.23414 0.76185 0.4779 0.0
H2123 H 0.25366 0.73951 0.47407 0.0
C2124 C 0.25951 0.64888 0.48243 0.0
C2125 C 0.26568 0.65719 0.50064 0.0
C2126 C 0.25896 0.6592 0.46758 0.0
C2127 C 0.26487 0.67775 0.47094 0.0
C2128 C 0.27126 0.68595 0.48907 0.0
C2129 C 0.2716 0.67574 0.50387 0.0
C2130 C 0.26366 0.68903 0.45586 0.0
C2131 C 0.25328 0.70228 0.45799 0.0
C2132 C 0.27275 0.68708 0.43987 0.0
C2133 C 0.28352 0.67289 0.43698 0.0
C2134 C 0.29781 0.67167 0.45031 0.0
C2135 C 0.30735 0.65774 0.44789 0.0
C2136 C 0.30281 0.64504 0.4321 0.0
C2137 C 0.28878 0.64631 0.41865 0.0
C2138 C 0.27917 0.6602 0.42103 0.0
C2139 C 0.25782 0.75457 0.40761 0.0
C2140 C 0.24898 0.74728 0.38996 0.0
C2141 C 0.26394 0.74336 0.41981 0.0
C2142 C 0.26057 0.7248 0.4146 0.0
C2143 C 0.2531 0.71774 0.39638 0.0
C2144 C 0.24736 0.72897 0.38406 0.0
C2145 C 0.26163 0.71263 0.42892 0.0
C2146 C 0.27161 0.699 0.42646 0.0
C2147 C 0.25192 0.71399 0.44457 0.0
C2148 C 0.23991 0.72715 0.44707 0.0
C2149 C 0.22564 0.72744 0.43332 0.0
C2150 C 0.21477 0.74026 0.43551 0.0
C2151 C 0.21785 0.75268 0.45156 0.0
C2152 C 0.23179 0.75226 0.46546 0.0
C2153 C 0.24278 0.73954 0.46327 0.0
H2154 H 0.20941 0.76259 0.45324 0.0
H2155 H 0.31018 0.63423 0.43028 0.0
H2156 H 0.66347 0.01736 0.68979 0.0
H2157 H 0.64063 0.01136 0.66255 0.0
H2158 H 0.62695 0.06333 0.67591 0.0
H2159 H 0.64914 0.06889 0.70356 0.0
H2160 H 0.59876 0.03699 0.67407 0.0
H2161 H 0.64854 0.05299 0.63889 0.0
H2162 H 0.6775 0.05067 0.62743 0.0
H2163 H 0.65584 0.99751 0.60115 0.0
H2164 H 0.6271 0.99903 0.61344 0.0
H2165 H 0.54558 0.05107 0.59418 0.0
H2166 H 0.56717 0.05082 0.62138 0.0
H2167 H 0.57304 0.9973 0.60098 0.0
H2168 H 0.55207 0.99785 0.57339 0.0
H2169 H 0.60397 0.01991 0.60699 0.0
H2170 H 0.5534 1.0048 0.64041 0.0
H2171 H 0.52388 0.00842 0.64963 0.0
H2172 H 0.54626 0.06117 0.67671 0.0
H2173 H 0.57587 0.05801 0.66735 0.0
C2174 C 0.65602 0.02768 0.68634 0.0
C2175 C 0.65783 0.04356 0.69832 0.0
C2176 C 0.64298 0.02424 0.67099 0.0
C2177 C 0.63219 0.0369 0.6675 0.0
C2178 C 0.63516 0.05342 0.67863 0.0
C2179 C 0.64785 0.05666 0.69417 0.0
C2180 C 0.61667 0.0324 0.6534 0.0
C2181 C 0.59986 0.03333 0.65936 0.0
C2182 C 0.61825 0.02702 0.63448 0.0
C2183 C 0.63572 0.02601 0.6274 0.0
C2184 C 0.65005 0.04064 0.63103 0.0
C2185 C 0.66647 0.03944 0.62443 0.0
C2186 C 0.6686 0.02383 0.6138 0.0
C2187 C 0.6543 0.00943 0.60971 0.0
C2188 C 0.63797 0.01043 0.61656 0.0
C2189 C 0.55126 0.03919 0.59583 0.0
C2190 C 0.54761 0.0246 0.58192 0.0
C2191 C 0.56341 0.03898 0.61129 0.0
C2192 C 0.57143 0.02395 0.61306 0.0
C2193 C 0.56687 0.00894 0.59968 0.0
C2194 C 0.55505 0.0093 0.58403 0.0
C2195 C 0.58619 0.02486 0.62759 0.0
C2196 C 0.60284 0.02319 0.62176 0.0
C2197 C 0.58447 0.0296 0.64659 0.0
C2198 C 0.56688 0.03116 0.65317 0.0
C2199 C 0.55204 0.01718 0.64833 0.0
C2200 C 0.53528 0.01916 0.65355 0.0
C2201 C 0.5332 0.03502 0.66375 0.0
C2202 C 0.5479 0.04888 0.66884 0.0
C2203 C 0.56469 0.04699 0.66361 0.0
H2204 H 0.52019 0.03655 0.66772 0.0
H2205 H 0.68128 0.02295 0.6086 0.0
H2206 H 0.31598 0.35072 0.9898 0.0
H2207 H 0.31562 0.33555 0.95816 0.0
H2208 H 0.27039 0.35846 0.93887 0.0
H2209 H 0.27097 0.37405 0.97038 0.0
H2210 H 0.26683 0.32065 0.92782 0.0
H2211 H 0.3071 0.37561 0.92641 0.0
H2212 H 0.33304 0.39953 0.93771 0.0
H2213 H 0.36841 0.3619 0.93175 0.0
H2214 H 0.34262 0.33767 0.92071 0.0
H2215 H 0.26802 0.3074 0.82853 0.0
H2216 H 0.2687 0.32031 0.86094 0.0
H2217 H 0.3133 0.29532 0.87734 0.0
H2218 H 0.31207 0.28152 0.84504 0.0
H2219 H 0.31781 0.33349 0.89036 0.0
H2220 H 0.27628 0.27873 0.88912 0.0
H2221 H 0.2496 0.25562 0.87812 0.0
H2222 H 0.21569 0.29373 0.88953 0.0
H2223 H 0.24214 0.31725 0.89977 0.0
C2224 C 0.30594 0.3525 0.97881 0.0
C2225 C 0.29348 0.36355 0.98256 0.0
C2226 C 0.3058 0.34388 0.96074 0.0
C2227 C 0.293 0.34589 0.94615 0.0
C2228 C 0.28037 0.35671 0.94992 0.0
C2229 C 0.28075 0.36564 0.9679 0.0
C2230 C 0.29277 0.33665 0.92698 0.0
C2231 C 0.27787 0.32359 0.91952 0.0
C2232 C 0.30736 0.34025 0.91634 0.0
C2233 C 0.32291 0.35477 0.92297 0.0
C2234 C 0.32039 0.37239 0.92771 0.0
C2235 C 0.33506 0.38602 0.93402 0.0
C2236 C 0.35235 0.38223 0.93551 0.0
C2237 C 0.355 0.36481 0.93063 0.0
C2238 C 0.34036 0.35112 0.92434 0.0
C2239 C 0.27798 0.30455 0.83899 0.0
C2240 C 0.29033 0.29371 0.83396 0.0
C2241 C 0.27831 0.31195 0.85756 0.0
C2242 C 0.29114 0.30893 0.87156 0.0
C2243 C 0.30337 0.29797 0.86672 0.0
C2244 C 0.30273 0.29015 0.84818 0.0
C2245 C 0.29181 0.31746 0.89113 0.0
C2246 C 0.3068 0.33045 0.89867 0.0
C2247 C 0.2772 0.31389 0.90177 0.0
C2248 C 0.26125 0.29986 0.89496 0.0
C2249 C 0.26315 0.28229 0.88891 0.0
C2250 C 0.24805 0.26909 0.8828 0.0
C2251 C 0.23095 0.27323 0.88293 0.0
C2252 C 0.22892 0.29057 0.88918 0.0
C2253 C 0.24398 0.30385 0.8951 0.0
H2254 H 0.21926 0.26298 0.8783 0.0
H2255 H 0.3637 0.3928 0.9404 0.0
H2256 H 0.92609 0.01946 0.33014 0.0
H2257 H 0.94184 0.01903 0.36115 0.0
H2258 H 0.99226 0.02661 0.33799 0.0
H2259 H 0.97644 0.02661 0.30671 0.0
H2260 H 0.99141 1.00165 0.36138 0.0
H2261 H 0.97797 0.06102 0.36501 0.0
H2262 H 0.95832 0.08329 0.36229 0.0
H2263 H 0.92727 0.06001 0.40334 0.0
H2264 H 0.94657 0.03742 0.40609 0.0
H2265 H 0.04273 0.0179 0.45276 0.0
H2266 H 0.0299 0.01849 0.42027 0.0
H2267 H 0.97762 0.01688 0.43882 0.0
H2268 H 0.99054 0.01728 0.47111 0.0
H2269 H 0.98133 0.04052 0.41695 0.0
H2270 H 0.99213 0.98009 0.41199 0.0
H2271 H 0.0103 0.95656 0.41457 0.0
H2272 H 0.04469 0.9804 0.37646 0.0
H2273 H 0.02674 1.00415 0.37374 0.0
C2274 C 0.94055 0.02118 0.33164 0.0
C2275 C 0.95 0.02317 0.31593 0.0
C2276 C 0.94958 0.02099 0.34944 0.0
C2277 C 0.96833 0.02303 0.35208 0.0
C2278 C 0.97781 0.02505 0.3364 0.0
C2279 C 0.96876 0.02514 0.31852 0.0
C2280 C 0.97793 0.02268 0.37112 0.0
C2281 C 0.98941 0.01035 0.37348 0.0
C2282 C 0.97508 0.0337 0.38709 0.0
C2283 C 0.96364 0.04745 0.38565 0.0
C2284 C 0.96689 0.06059 0.37338 0.0
C2285 C 0.95582 0.07327 0.37184 0.0
C2286 C 0.94154 0.07304 0.38261 0.0
C2287 C 0.93833 0.06016 0.39499 0.0
C2288 C 0.94934 0.04743 0.39656 0.0
C2289 C 0.02847 0.0174 0.44978 0.0
C2290 C 0.01767 0.01766 0.46449 0.0
C2291 C 0.02109 0.01771 0.43118 0.0
C2292 C 1.00267 0.01773 0.42688 0.0
C2293 C 0.99185 0.01711 0.4416 0.0
C2294 C 0.99926 0.01722 0.46011 0.0
C2295 C 0.99457 0.01918 0.40738 0.0
C2296 C 0.98341 0.03181 0.40488 0.0
C2297 C 0.99754 0.00829 0.39134 0.0
C2298 C 0.00824 0.99398 0.39284 0.0
C2299 C 1.00364 0.98037 0.40426 0.0
C2300 C 0.01389 0.96699 0.40574 0.0
C2301 C 0.02872 0.96704 0.39579 0.0
C2302 C 0.03324 0.98041 0.38422 0.0
C2303 C 0.02301 0.99381 0.38267 0.0
H2304 H 0.03666 0.95669 0.39699 0.0
H2305 H 0.93297 0.08287 0.38138 0.0
H2306 H 0.30432 0.6679 0.59517 0.0
H2307 H 0.30589 0.69087 0.6216 0.0
H2308 H 0.25168 0.669 0.63041 0.0
H2309 H 0.25014 0.64571 0.604 0.0
H2310 H 0.26251 0.70908 0.62501 0.0
H2311 H 0.27851 0.66136 0.66025 0.0
H2312 H 0.2964 0.63747 0.6607 0.0
H2313 H 0.34478 0.67668 0.66632 0.0
H2314 H 0.32711 0.70079 0.66515 0.0
H2315 H 0.25732 0.76117 0.70854 0.0
H2316 H 0.2558 0.73849 0.68198 0.0
H2317 H 0.31359 0.74513 0.68877 0.0
H2318 H 0.3148 0.7663 0.71676 0.0
H2319 H 0.30092 0.71247 0.68534 0.0
H2320 H 0.28869 0.76013 0.65118 0.0
H2321 H 0.27381 0.78547 0.64492 0.0
H2322 H 0.22302 0.74982 0.63349 0.0
H2323 H 0.23756 0.72429 0.63998 0.0
C2324 C 0.29298 0.66775 0.60315 0.0
C2325 C 0.27721 0.6552 0.59798 0.0
C2326 C 0.2938 0.68087 0.61796 0.0
C2327 C 0.2788 0.68149 0.62749 0.0
C2328 C 0.26325 0.66853 0.6229 0.0
C2329 C 0.26251 0.65519 0.60819 0.0
C2330 C 0.27957 0.69593 0.64225 0.0
C2331 C 0.27059 0.70984 0.63839 0.0
C2332 C 0.2909 0.69693 0.65903 0.0
C2333 C 0.3015 0.68283 0.66252 0.0
C2334 C 0.29297 0.66488 0.66167 0.0
C2335 C 0.30306 0.6513 0.66189 0.0
C2336 C 0.32171 0.65554 0.66337 0.0
C2337 C 0.33033 0.67342 0.66503 0.0
C2338 C 0.32028 0.68705 0.6646 0.0
C2339 C 0.26961 0.75788 0.70403 0.0
C2340 C 0.28611 0.76494 0.71438 0.0
C2341 C 0.2688 0.7451 0.68889 0.0
C2342 C 0.28462 0.74039 0.68333 0.0
C2343 C 0.30127 0.74856 0.69301 0.0
C2344 C 0.30198 0.76061 0.70878 0.0
C2345 C 0.28365 0.72589 0.66837 0.0
C2346 C 0.29269 0.71189 0.67209 0.0
C2347 C 0.27285 0.72515 0.65116 0.0
C2348 C 0.26421 0.7403 0.64611 0.0
C2349 C 0.27435 0.75769 0.6473 0.0
C2350 C 0.26597 0.77209 0.64376 0.0
C2351 C 0.24748 0.76926 0.63882 0.0
C2352 C 0.23735 0.75199 0.63729 0.0
C2353 C 0.24565 0.73754 0.64086 0.0
H2354 H 0.241 0.78044 0.63617 0.0
H2355 H 0.3295 0.64499 0.66347 0.0
H2356 H 0.62943 0.04397 0.78152 0.0
H2357 H 0.61332 0.04878 0.80842 0.0
H2358 H 0.66159 0.05134 0.84578 0.0
H2359 H 0.67808 0.04664 0.81864 0.0
H2360 H 0.63096 0.02724 0.85334 0.0
H2361 H 0.6478 0.08832 0.84419 0.0
H2362 H 0.65253 0.11489 0.82709 0.0
H2363 H 0.5962 0.1068 0.80911 0.0
H2364 H 0.59115 0.08004 0.82583 0.0
H2365 H 0.58529 0.0606 0.92785 0.0
H2366 H 0.60456 0.05018 0.90603 0.0
H2367 H 0.5644 0.05086 0.85985 0.0
H2368 H 0.54474 0.06103 0.88182 0.0
H2369 H 0.59521 0.07529 0.86044 0.0
H2370 H 0.57874 0.01265 0.86717 0.0
H2371 H 0.57414 0.98558 0.88349 0.0
H2372 H 0.62962 0.99638 0.90569 0.0
H2373 H 0.6345 0.02367 0.88974 0.0
C2374 C 0.63663 0.04547 0.79544 0.0
C2375 C 0.65489 0.04472 0.79814 0.0
C2376 C 0.62748 0.04844 0.81073 0.0
C2377 C 0.63645 0.05063 0.82887 0.0
C2378 C 0.65465 0.0498 0.83173 0.0
C2379 C 0.66393 0.04702 0.81634 0.0
C2380 C 0.62607 0.05231 0.84463 0.0
C2381 C 0.6234 0.03793 0.85533 0.0
C2382 C 0.61609 0.06613 0.84662 0.0
C2383 C 0.61912 0.08207 0.8362 0.0
C2384 C 0.63644 0.09209 0.83643 0.0
C2385 C 0.63917 0.10722 0.82683 0.0
C2386 C 0.62468 0.11252 0.817 0.0
C2387 C 0.60742 0.10269 0.81673 0.0
C2388 C 0.60461 0.08755 0.82629 0.0
C2389 C 0.58022 0.05775 0.91314 0.0
C2390 C 0.56367 0.06182 0.9064 0.0
C2391 C 0.59123 0.05174 0.90072 0.0
C2392 C 0.58583 0.04987 0.88146 0.0
C2393 C 0.56865 0.05228 0.87478 0.0
C2394 C 0.55758 0.05827 0.88723 0.0
C2395 C 0.59939 0.04972 0.86852 0.0
C2396 C 0.60282 0.06462 0.8586 0.0
C2397 C 0.61002 0.03638 0.86729 0.0
C2398 C 0.60693 0.02034 0.87745 0.0
C2399 C 0.5899 0.00941 0.87575 0.0
C2400 C 0.58726 0.99397 0.88488 0.0
C2401 C 0.60156 0.98929 0.89566 0.0
C2402 C 0.61854 1.00004 0.89737 0.0
C2403 C 0.62125 0.01549 0.88829 0.0
H2404 H 0.5995 0.97729 0.90264 0.0
H2405 H 0.62682 0.12425 0.80961 0.0
H2406 H 0.31005 0.38189 0.10269 0.0
H2407 H 0.30504 0.3659 0.13027 0.0
H2408 H 0.26089 0.32924 0.09811 0.0
H2409 H 0.26609 0.34486 0.0704 0.0
H2410 H 0.2548 0.34375 0.13645 0.0
H2411 H 0.29683 0.31493 0.10339 0.0
H2412 H 0.32505 0.31564 0.08923 0.0
H2413 H 0.35503 0.33773 0.14223 0.0
H2414 H 0.32697 0.33745 0.15661 0.0
H2415 H 0.24392 0.28854 0.21031 0.0
H2416 H 0.24495 0.29983 0.17992 0.0
H2417 H 0.30277 0.31297 0.19072 0.0
H2418 H 0.30141 0.29665 0.21788 0.0
H2419 H 0.29995 0.30934 0.1597 0.0
H2420 H 0.26062 0.34345 0.19342 0.0
H2421 H 0.23341 0.34622 0.20858 0.0
H2422 H 0.20053 0.32028 0.15848 0.0
H2423 H 0.22751 0.31718 0.14314 0.0
C2424 C 0.29927 0.37043 0.10152 0.0
C2425 C 0.28856 0.36455 0.08433 0.0
C2426 C 0.29641 0.36133 0.11728 0.0
C2427 C 0.28259 0.34637 0.11625 0.0
C2428 C 0.2716 0.34076 0.09924 0.0
C2429 C 0.27467 0.34963 0.08339 0.0
C2430 C 0.28006 0.33611 0.13268 0.0
C2431 C 0.26466 0.33626 0.14174 0.0
C2432 C 0.29299 0.32654 0.13965 0.0
C2433 C 0.30981 0.32629 0.13103 0.0
C2434 C 0.30944 0.32005 0.11198 0.0
C2435 C 0.3254 0.32036 0.10392 0.0
C2436 C 0.34182 0.32675 0.11481 0.0
C2437 C 0.34231 0.33279 0.13381 0.0
C2438 C 0.32638 0.33255 0.14192 0.0
C2439 C 0.2568 0.29363 0.20588 0.0
C2440 C 0.27262 0.29224 0.21677 0.0
C2441 C 0.25745 0.30071 0.18862 0.0
C2442 C 0.27391 0.30859 0.18286 0.0
C2443 C 0.28969 0.30718 0.19414 0.0
C2444 C 0.28901 0.29826 0.21019 0.0
C2445 C 0.27513 0.3179 0.1652 0.0
C2446 C 0.29017 0.31726 0.15533 0.0
C2447 C 0.26217 0.32772 0.15805 0.0
C2448 C 0.24606 0.32995 0.16723 0.0
C2449 C 0.24758 0.33835 0.18568 0.0
C2450 C 0.2322 0.33994 0.1943 0.0
C2451 C 0.21526 0.3334 0.18452 0.0
C2452 C 0.21365 0.32531 0.16606 0.0
C2453 C 0.22897 0.32364 0.1574 0.0
H2454 H 0.20338 0.33461 0.19122 0.0
H2455 H 0.35416 0.327 0.10855 0.0
H2456 H 0.26481 0.96656 0.02142 0.0
H2457 H 0.23982 0.98109 0.02774 0.0
H2458 H 0.20318 0.93736 0.99459 0.0
H2459 H 0.22836 0.92241 0.98827 0.0
H2460 H 0.20113 0.97553 0.98826 0.0
H2461 H 0.20213 0.93576 0.03598 0.0
H2462 H 0.21665 0.92154 0.06101 0.0
H2463 H 0.23425 0.97275 0.09355 0.0
H2464 H 0.22018 0.98735 0.06854 0.0
H2465 H 0.12659 1.00203 0.03111 0.0
H2466 H 0.14833 0.9895 0.01361 0.0
H2467 H 0.1914 0.02093 0.05251 0.0
H2468 H 0.16965 0.0331 0.07031 0.0
H2469 H 0.18748 0.98531 0.05389 0.0
H2470 H 0.18887 0.02593 0.00779 0.0
H2471 H 0.17984 0.04246 0.98191 0.0
H2472 H 0.16266 0.99313 0.94589 0.0
H2473 H 0.17067 0.9762 0.9718 0.0
C2474 C 0.25146 0.9601 0.01532 0.0
C2475 C 0.24829 0.94344 0.00442 0.0
C2476 C 0.2373 0.96833 0.01903 0.0
C2477 C 0.21994 0.96 0.01177 0.0
C2478 C 0.21667 0.94368 1.00033 0.0
C2479 C 0.23091 0.93525 0.99679 0.0
C2480 C 0.20537 0.96876 0.01636 0.0
C2481 C 0.19756 0.9774 0.00244 0.0
C2482 C 0.2018 0.97147 0.0351 0.0
C2483 C 0.21016 0.96267 0.05029 0.0
C2484 C 0.20922 0.94402 0.04839 0.0
C2485 C 0.21737 0.93589 0.06259 0.0
C2486 C 0.22638 0.94624 0.07884 0.0
C2487 C 0.22726 0.96475 0.08094 0.0
C2488 C 0.21919 0.97296 0.06676 0.0
C2489 C 0.14075 0.00649 0.03559 0.0
C2490 C 0.14668 0.01793 0.05224 0.0
C2491 C 0.15307 0.9996 0.02547 0.0
C2492 C 0.1713 1.00433 0.03193 0.0
C2493 C 0.17728 0.01722 0.04746 0.0
C2494 C 0.16496 0.02388 0.05773 0.0
C2495 C 0.18335 0.99272 0.02582 0.0
C2496 C 0.19061 0.98335 0.03955 0.0
C2497 C 0.18661 0.98964 0.00695 0.0
C2498 C 0.18008 0.99974 0.99194 0.0
C2499 C 0.18266 0.01853 0.99455 0.0
C2500 C 0.17777 0.02799 0.97982 0.0
C2501 C 0.17055 0.01885 0.9623 0.0
C2502 C 0.16813 1.00021 0.9595 0.0
C2503 C 0.17269 0.99066 0.97426 0.0
H2504 H 0.16691 0.0262 0.95087 0.0
H2505 H 0.23266 0.93991 0.08983 0.0
H2506 H 0.70552 0.6655 0.01792 0.0
H2507 H 0.6766 0.64534 0.01682 0.0
H2508 H 0.69884 0.60189 0.99165 0.0
H2509 H 0.72775 0.6219 0.99282 0.0
H2510 H 0.66485 0.60258 0.97469 0.0
H2511 H 0.69465 0.60426 0.03684 0.0
H2512 H 0.7104 0.61893 0.0673 0.0
H2513 H 0.66462 0.64207 0.07859 0.0
H2514 H 0.64868 0.62773 0.04805 0.0
H2515 H 0.60226 0.53225 0.01652 0.0
H2516 H 0.63044 0.55155 0.01266 0.0
H2517 H 0.6018 0.59319 0.99874 0.0
H2518 H 0.57359 0.57349 1.00048 0.0
H2519 H 0.63902 0.59258 0.03424 0.0
H2520 H 0.61141 0.59398 0.96883 0.0
H2521 H 0.59651 0.57886 0.93826 0.0
H2522 H 0.63951 0.54993 0.93282 0.0
H2523 H 0.65428 0.56436 0.96383 0.0
C2524 C 0.70419 0.6517 0.012 0.0
C2525 C 0.71892 0.64528 0.00551 0.0
C2526 C 0.68768 0.64017 0.01144 0.0
C2527 C 0.68559 0.62206 0.00428 0.0
C2528 C 0.70013 0.61579 0.99724 0.0
C2529 C 0.71667 0.62724 0.99797 0.0
C2530 C 0.66843 0.6095 0.00467 0.0
C2531 C 0.65925 0.60038 0.98773 0.0
C2532 C 0.66107 0.60658 0.02165 0.0
C2533 C 0.67055 0.61508 0.04008 0.0
C2534 C 0.688 0.61259 0.04575 0.0
C2535 C 0.69695 0.62082 0.06304 0.0
C2536 C 0.68854 0.63146 0.07485 0.0
C2537 C 0.67113 0.63384 0.06941 0.0
C2538 C 0.66212 0.62566 0.05212 0.0
C2539 C 0.60179 0.54515 0.01185 0.0
C2540 C 0.58538 0.55092 0.00832 0.0
C2541 C 0.618 0.55629 0.00985 0.0
C2542 C 0.61817 0.57362 0.00485 0.0
C2543 C 0.60195 0.57962 0.00182 0.0
C2544 C 0.58577 0.56828 0.00302 0.0
C2545 C 0.63533 0.58599 0.00426 0.0
C2546 C 0.64459 0.59492 0.02121 0.0
C2547 C 0.64271 0.58881 0.9873 0.0
C2548 C 0.63361 0.57978 0.96894 0.0
C2549 C 0.61741 0.584 0.96141 0.0
C2550 C 0.60904 0.57564 0.94393 0.0
C2551 C 0.61697 0.56331 0.93367 0.0
C2552 C 0.6333 0.55935 0.94087 0.0
C2553 C 0.64162 0.56754 0.95844 0.0
H2554 H 0.61054 0.55694 0.92008 0.0
H2555 H 0.6955 0.63783 0.08823 0.0
H2556 H 0.68862 0.51627 0.29585 0.0
H2557 H 0.70529 0.49183 0.29195 0.0
H2558 H 0.65675 0.45594 0.2678 0.0
H2559 H 0.63993 0.48024 0.27212 0.0
H2560 H 0.67544 0.4393 0.29041 0.0
H2561 H 0.68805 0.47378 0.24002 0.0
H2562 H 0.69735 0.50093 0.22482 0.0
H2563 H 0.74956 0.50904 0.25576 0.0
H2564 H 0.74049 0.48204 0.27132 0.0
H2565 H 0.7179 0.37431 0.24239 0.0
H2566 H 0.70008 0.39608 0.25351 0.0
H2567 H 0.74826 0.43084 0.28048 0.0
H2568 H 0.76606 0.40908 0.26911 0.0
H2569 H 0.72949 0.44765 0.25687 0.0
H2570 H 0.71508 0.41159 0.30727 0.0
H2571 H 0.70415 0.3837 0.32065 0.0
H2572 H 0.65406 0.37705 0.28589 0.0
H2573 H 0.66455 0.40505 0.27256 0.0
C2574 C 0.68148 0.50314 0.28982 0.0
C2575 C 0.66297 0.50018 0.28424 0.0
C2576 C 0.69104 0.4892 0.28749 0.0
C2577 C 0.68234 0.47208 0.27931 0.0
C2578 C 0.66377 0.46901 0.27412 0.0
C2579 C 0.65418 0.48293 0.27656 0.0
C2580 C 0.69264 0.45747 0.27596 0.0
C2581 C 0.68718 0.44109 0.28294 0.0
C2582 C 0.70801 0.45976 0.26629 0.0
C2583 C 0.71353 0.47601 0.25698 0.0
C2584 C 0.70147 0.48144 0.24369 0.0
C2585 C 0.70671 0.49678 0.23499 0.0
C2586 C 0.72402 0.50674 0.23936 0.0
C2587 C 0.73615 0.50133 0.25241 0.0
C2588 C 0.73097 0.486 0.26116 0.0
C2589 C 0.72453 0.38629 0.25134 0.0
C2590 C 0.74324 0.38999 0.25521 0.0
C2591 C 0.71438 0.39875 0.25765 0.0
C2592 C 0.72282 0.4151 0.2679 0.0
C2593 C 0.74147 0.4183 0.27265 0.0
C2594 C 0.75161 0.40583 0.26635 0.0
C2595 C 0.71254 0.42963 0.2717 0.0
C2596 C 0.7179 0.44595 0.26457 0.0
C2597 C 0.69691 0.42715 0.28089 0.0
C2598 C 0.69063 0.41032 0.28885 0.0
C2599 C 0.70176 0.40413 0.30243 0.0
C2600 C 0.69564 0.38833 0.31002 0.0
C2601 C 0.6785 0.37854 0.30401 0.0
C2602 C 0.66735 0.38462 0.29052 0.0
C2603 C 0.67333 0.40051 0.28302 0.0
H2604 H 0.67382 0.36628 0.30986 0.0
H2605 H 0.72806 0.51861 0.23261 0.0
H2606 H 0.85321 0.42522 0.49444 0.0
H2607 H 0.88336 0.44265 0.49588 0.0
H2608 H 0.86542 0.48933 0.52033 0.0
H2609 H 0.83513 0.47215 0.51856 0.0
H2610 H 0.88635 0.49539 0.49131 0.0
H2611 H 0.88642 0.46541 0.54822 0.0
H2612 H 0.88192 0.43877 0.56525 0.0
H2613 H 0.92013 0.41651 0.53488 0.0
H2614 H 0.92467 0.44292 0.5175 0.0
H2615 H 0.97107 0.54751 0.52074 0.0
H2616 H 0.94121 0.53088 0.524 0.0
H2617 H 0.956 0.48227 0.49984 0.0
H2618 H 0.98566 0.49892 0.49643 0.0
H2619 H 0.93659 0.47793 0.52988 0.0
H2620 H 0.9358 0.50344 0.47159 0.0
H2621 H 0.94027 0.52715 0.45068 0.0
H2622 H 0.9042 0.55478 0.47882 0.0
H2623 H 0.89968 0.5313 0.50006 0.0
C2624 C 0.85577 0.43917 0.50019 0.0
C2625 C 0.84214 0.44743 0.50662 0.0
C2626 C 0.87284 0.44903 0.50096 0.0
C2627 C 0.87631 0.46701 0.50845 0.0
C2628 C 0.86271 0.47537 0.5146 0.0
C2629 C 0.84558 0.46558 0.51366 0.0
C2630 C 0.8943 0.47713 0.51011 0.0
C2631 C 0.89734 0.49185 0.49996 0.0
C2632 C 0.90843 0.47182 0.52091 0.0
C2633 C 0.90579 0.45606 0.5315 0.0
C2634 C 0.89377 0.45478 0.54511 0.0
C2635 C 0.89123 0.43973 0.55483 0.0
C2636 C 0.90071 0.42594 0.55113 0.0
C2637 C 0.91279 0.42719 0.53773 0.0
C2638 C 0.91537 0.4422 0.52796 0.0
C2639 C 0.96791 0.53318 0.51671 0.0
C2640 C 0.98019 0.52411 0.50873 0.0
C2641 C 0.95108 0.52383 0.51846 0.0
C2642 C 0.94676 0.50559 0.51199 0.0
C2643 C 0.95943 0.4964 0.5049 0.0
C2644 C 0.97617 0.50577 0.50302 0.0
C2645 C 0.9286 0.49626 0.51123 0.0
C2646 C 0.92555 0.48165 0.52146 0.0
C2647 C 0.91457 0.50137 0.50006 0.0
C2648 C 0.91762 0.51575 0.48761 0.0
C2649 C 0.92901 0.51469 0.47349 0.0
C2650 C 0.93151 0.52806 0.46153 0.0
C2651 C 0.9226 0.54251 0.46347 0.0
C2652 C 0.91115 0.54361 0.47737 0.0
C2653 C 0.9086 0.53027 0.48937 0.0
H2654 H 0.92452 0.55283 0.45417 0.0
H2655 H 0.89872 0.4143 0.55867 0.0
H2656 H 0.38224 0.07216 0.27015 0.0
H2657 H 0.3652 0.09572 0.26512 0.0
H2658 H 0.34255 0.0884 0.31715 0.0
H2659 H 0.35868 0.06366 0.32145 0.0
H2660 H 0.31814 0.09117 0.28899 0.0
H2661 H 0.37673 0.12434 0.31402 0.0
H2662 H 0.40953 0.1286 0.31453 0.0
H2663 H 0.40519 0.14022 0.25735 0.0
H2664 H 0.37237 0.13576 0.25639 0.0
H2665 H 0.27783 0.16434 0.26522 0.0
H2666 H 0.29601 0.14796 0.28452 0.0
H2667 H 0.32889 0.14198 0.23966 0.0
H2668 H 0.31107 0.15869 0.22053 0.0
H2669 H 0.34861 0.14989 0.27339 0.0
H2670 H 0.29442 0.11116 0.24427 0.0
H2671 H 0.26194 0.10027 0.2373 0.0
H2672 H 0.25822 0.09366 0.29535 0.0
H2673 H 0.29064 0.10506 0.30278 0.0
C2674 C 0.37384 0.07583 0.28061 0.0
C2675 C 0.37191 0.06666 0.29635 0.0
C2676 C 0.36418 0.08923 0.27779 0.0
C2677 C 0.35324 0.09414 0.29118 0.0
C2678 C 0.35124 0.0849 0.30692 0.0
C2679 C 0.36045 0.07098 0.30941 0.0
C2680 C 0.3434 0.10853 0.28809 0.0
C2681 C 0.32472 0.10428 0.28621 0.0
C2682 C 0.35224 0.1253 0.28399 0.0
C2683 C 0.37207 0.12988 0.28521 0.0
C2684 C 0.38279 0.12799 0.30163 0.0
C2685 C 0.40138 0.13034 0.30195 0.0
C2686 C 0.40944 0.13473 0.286 0.0
C2687 C 0.39893 0.13691 0.26973 0.0
C2688 C 0.38034 0.13455 0.26931 0.0
C2689 C 0.28902 0.15959 0.25959 0.0
C2690 C 0.29298 0.16238 0.24135 0.0
C2691 C 0.29936 0.15037 0.27061 0.0
C2692 C 0.31362 0.14383 0.26339 0.0
C2693 C 0.31789 0.14705 0.24539 0.0
C2694 C 0.30758 0.15626 0.23439 0.0
C2695 C 0.32332 0.13233 0.27377 0.0
C2696 C 0.34199 0.13715 0.27707 0.0
C2697 C 0.31448 0.11582 0.27859 0.0
C2698 C 0.2949 0.1094 0.27417 0.0
C2699 C 0.28664 0.10772 0.25562 0.0
C2700 C 0.26824 0.1014 0.25157 0.0
C2701 C 0.25799 0.09639 0.26589 0.0
C2702 C 0.26614 0.09768 0.2843 0.0
C2703 C 0.28452 0.10413 0.28844 0.0
H2704 H 0.24376 0.09141 0.26272 0.0
H2705 H 0.42382 0.13639 0.28623 0.0
H2706 H 0.2971 0.12713 0.52695 0.0
H2707 H 0.32203 0.11127 0.53141 0.0
H2708 H 0.35699 0.15421 0.51129 0.0
H2709 H 0.33197 0.17029 0.50685 0.0
H2710 H 0.36157 0.12097 0.49613 0.0
H2711 H 0.36113 0.15134 0.5563 0.0
H2712 H 0.34922 0.16209 0.58499 0.0
H2713 H 0.33345 0.10796 0.59688 0.0
H2714 H 0.34503 0.09685 0.56809 0.0
H2715 H 0.43952 0.08711 0.53614 0.0
H2716 H 0.41772 0.10489 0.52453 0.0
H2717 H 0.37498 0.06707 0.54126 0.0
H2718 H 0.3966 0.04947 0.55286 0.0
H2719 H 0.37731 0.10129 0.55816 0.0
H2720 H 0.37848 0.07189 0.49541 0.0
H2721 H 0.39319 0.06364 0.46768 0.0
H2722 H 0.41072 0.11919 0.462 0.0
H2723 H 0.39636 0.12777 0.48983 0.0
C2724 C 0.31007 0.1332 0.52341 0.0
C2725 C 0.31262 0.14996 0.51658 0.0
C2726 C 0.32432 0.12416 0.52605 0.0
C2727 C 0.34138 0.13166 0.52185 0.0
C2728 C 0.34392 0.14824 0.51466 0.0
C2729 C 0.32966 0.15741 0.51218 0.0
C2730 C 0.35644 0.12202 0.52503 0.0
C2731 C 0.36522 0.11686 0.50975 0.0
C2732 C 0.36118 0.11671 0.5428 0.0
C2733 C 0.35377 0.12326 0.55991 0.0
C2734 C 0.35492 0.14171 0.5649 0.0
C2735 C 0.34828 0.14787 0.58122 0.0
C2736 C 0.34054 0.13571 0.59272 0.0
C2737 C 0.33943 0.11736 0.58793 0.0
C2738 C 0.34603 0.11113 0.57162 0.0
C2739 C 0.4254 0.08233 0.53669 0.0
C2740 C 0.41968 0.06705 0.54551 0.0
C2741 C 0.41298 0.09249 0.53013 0.0
C2742 C 0.39476 0.08737 0.53222 0.0
C2743 C 0.38898 0.07132 0.53963 0.0
C2744 C 0.40131 0.06125 0.54619 0.0
C2745 C 0.38196 0.0996 0.5291 0.0
C2746 C 0.37369 0.10539 0.54453 0.0
C2747 C 0.37798 0.10573 0.51156 0.0
C2748 C 0.38657 0.10047 0.49485 0.0
C2749 C 0.38563 0.08234 0.48836 0.0
C2750 C 0.39387 0.07761 0.4726 0.0
C2751 C 0.40297 0.0909 0.46318 0.0
C2752 C 0.40373 0.10892 0.46937 0.0
C2753 C 0.39554 0.11372 0.48512 0.0
H2754 H 0.40947 0.08728 0.45109 0.0
H2755 H 0.33544 0.14051 0.60537 0.0
H2756 H 0.69119 0.58468 0.30539 0.0
H2757 H 0.71116 0.61367 0.30677 0.0
H2758 H 0.66831 0.63526 0.27936 0.0
H2759 H 0.64827 0.60631 0.27796 0.0
H2760 H 0.69831 0.64287 0.26283 0.0
H2761 H 0.68225 0.64777 0.32502 0.0
H2762 H 0.67798 0.63919 0.35661 0.0
H2763 H 0.73437 0.64027 0.3682 0.0
H2764 H 0.73895 0.64858 0.33655 0.0
H2765 H 0.7423 0.73728 0.30094 0.0
H2766 H 0.72352 0.70857 0.30315 0.0
H2767 H 0.76095 0.68148 0.27634 0.0
H2768 H 0.7787 0.71024 0.27177 0.0
H2769 H 0.73344 0.67719 0.32036 0.0
H2770 H 0.74413 0.66355 0.25078 0.0
H2771 H 0.74615 0.67545 0.22027 0.0
H2772 H 0.69588 0.69271 0.22392 0.0
H2773 H 0.69411 0.68176 0.25497 0.0
C2774 C 0.68598 0.59564 0.29977 0.0
C2775 C 0.66816 0.59317 0.29149 0.0
C2776 C 0.69739 0.61223 0.30066 0.0
C2777 C 0.69124 0.62669 0.29323 0.0
C2778 C 0.67337 0.62431 0.28517 0.0
C2779 C 0.66192 0.60776 0.28441 0.0
C2780 C 0.70368 0.64394 0.29287 0.0
C2781 C 0.706 0.65027 0.27546 0.0
C2782 C 0.71366 0.6538 0.30932 0.0
C2783 C 0.71091 0.64857 0.32829 0.0
C2784 C 0.69372 0.64597 0.33421 0.0
C2785 C 0.69125 0.6412 0.35216 0.0
C2786 C 0.70588 0.63912 0.36438 0.0
C2787 C 0.72303 0.64184 0.3587 0.0
C2788 C 0.72558 0.64659 0.34076 0.0
C2789 C 0.74657 0.72529 0.29529 0.0
C2790 C 0.76227 0.72626 0.28628 0.0
C2791 C 0.73579 0.70883 0.29669 0.0
C2792 C 0.74061 0.69287 0.28956 0.0
C2793 C 0.75662 0.69365 0.28134 0.0
C2794 C 0.76706 0.71018 0.27918 0.0
C2795 C 0.72851 0.67555 0.2903 0.0
C2796 C 0.726 0.66944 0.30778 0.0
C2797 C 0.71825 0.6659 0.27399 0.0
C2798 C 0.71928 0.67236 0.25538 0.0
C2799 C 0.73373 0.67026 0.24526 0.0
C2800 C 0.73482 0.67681 0.22788 0.0
C2801 C 0.72123 0.68498 0.22023 0.0
C2802 C 0.7065 0.68656 0.22995 0.0
C2803 C 0.70553 0.68033 0.24751 0.0
H2804 H 0.72204 0.68997 0.20673 0.0
H2805 H 0.70395 0.63545 0.37827 0.0
H2806 H 0.85193 0.47776 0.81759 0.0
H2807 H 0.83525 0.44709 0.81549 0.0
H2808 H 0.86811 0.43003 0.77431 0.0
H2809 H 0.88514 0.46058 0.77665 0.0
H2810 H 0.82844 0.42314 0.76456 0.0
H2811 H 0.87563 0.41675 0.81134 0.0
H2812 H 0.8954 0.42502 0.84111 0.0
H2813 H 0.84982 0.41734 0.87193 0.0
H2814 H 0.82971 0.40944 0.84232 0.0
H2815 H 0.80994 0.32703 0.77963 0.0
H2816 H 0.82518 0.35673 0.77533 0.0
H2817 H 0.78144 0.37882 0.79575 0.0
H2818 H 0.76493 0.3487 0.79704 0.0
H2819 H 0.82631 0.38296 0.81481 0.0
H2820 H 0.7793 0.395 0.76921 0.0
H2821 H 0.75853 0.38655 0.74018 0.0
H2822 H 0.80292 0.38448 0.70822 0.0
H2823 H 0.82391 0.39212 0.73728 0.0
C2824 C 0.85565 0.46737 0.80827 0.0
C2825 C 0.86958 0.47124 0.79717 0.0
C2826 C 0.84626 0.45002 0.80716 0.0
C2827 C 0.85066 0.43667 0.79477 0.0
C2828 C 0.86477 0.44041 0.78395 0.0
C2829 C 0.87441 0.45769 0.78533 0.0
C2830 C 0.83956 0.41906 0.79216 0.0
C2831 C 0.82808 0.41421 0.77541 0.0
C2832 C 0.83901 0.40795 0.80669 0.0
C2833 C 0.85112 0.4127 0.82455 0.0
C2834 C 0.86978 0.41704 0.82444 0.0
C2835 C 0.88106 0.42162 0.8413 0.0
C2836 C 0.87387 0.42173 0.85839 0.0
C2837 C 0.85537 0.41727 0.85867 0.0
C2838 C 0.84403 0.41274 0.84185 0.0
C2839 C 0.80282 0.33791 0.78113 0.0
C2840 C 0.78591 0.33554 0.78731 0.0
C2841 C 0.81172 0.35493 0.77934 0.0
C2842 C 0.80405 0.36965 0.78475 0.0
C2843 C 0.78708 0.36741 0.79079 0.0
C2844 C 0.77782 0.35031 0.79166 0.0
C2845 C 0.8152 0.3872 0.78731 0.0
C2846 C 0.82672 0.39196 0.80402 0.0
C2847 C 0.81563 0.39834 0.77293 0.0
C2848 C 0.80312 0.39375 0.75544 0.0
C2849 C 0.7846 0.39234 0.75606 0.0
C2850 C 0.77279 0.38775 0.73959 0.0
C2851 C 0.77939 0.38489 0.72237 0.0
C2852 C 0.79782 0.38659 0.72159 0.0
C2853 C 0.80967 0.39098 0.73806 0.0
H2854 H 0.77022 0.38143 0.70961 0.0
H2855 H 0.88262 0.4252 0.87143 0.0
H2856 H 0.07504 0.85828 0.11426 0.0
H2857 H 0.07428 0.88813 0.10512 0.0
H2858 H 0.03366 0.86541 0.05943 0.0
H2859 H 0.03519 0.83529 0.06806 0.0
H2860 H 0.05186 0.89088 0.04682 0.0
H2861 H 0.02842 0.89183 0.10676 0.0
H2862 H 0.02877 0.88917 0.14063 0.0
H2863 H 0.07626 0.92961 0.15218 0.0
H2864 H 0.07632 0.93236 0.11837 0.0
H2865 H 0.02864 0.97397 0.0262 0.0
H2866 H 0.02922 0.94448 0.03591 0.0
H2867 H 0.0698 0.96773 0.08146 0.0
H2868 H 0.06789 0.99768 0.07271 0.0
H2869 H 0.05172 0.94216 0.09434 0.0
H2870 H 0.07562 0.94157 0.03529 0.0
H2871 H 0.07584 0.94496 0.00162 0.0
H2872 H 0.02864 0.9043 0.98857 0.0
H2873 H 0.02798 0.90086 0.02219 0.0
C2874 C 0.06595 0.85952 0.10219 0.0
C2875 C 0.05519 0.84399 0.09201 0.0
C2876 C 0.06531 0.87689 0.09703 0.0
C2877 C 0.05349 0.87976 0.08173 0.0
C2878 C 0.04292 0.86415 0.07135 0.0
C2879 C 0.04377 0.84669 0.07634 0.0
C2880 C 0.05236 0.89871 0.07637 0.0
C2881 C 0.05155 0.90192 0.05734 0.0
C2882 C 0.0525 0.91385 0.08972 0.0
C2883 C 0.05246 0.91216 0.11002 0.0
C2884 C 0.03899 0.90007 0.11652 0.0
C2885 C 0.03912 0.89856 0.13571 0.0
C2886 C 0.05255 0.90918 0.14854 0.0
C2887 C 0.06588 0.92137 0.14222 0.0
C2888 C 0.06583 0.92292 0.12305 0.0
C2889 C 0.03746 0.97306 0.03853 0.0
C2890 C 0.04794 0.98875 0.04867 0.0
C2891 C 0.03812 0.95581 0.04393 0.0
C2892 C 0.04993 0.95315 0.05933 0.0
C2893 C 0.06051 0.96884 0.0695 0.0
C2894 C 0.0595 0.9862 0.06434 0.0
C2895 C 0.05117 0.93428 0.06481 0.0
C2896 C 0.052 0.9311 0.08383 0.0
C2897 C 0.05118 0.91919 0.05148 0.0
C2898 C 0.05167 0.92107 0.03126 0.0
C2899 C 0.06524 0.93341 0.02524 0.0
C2900 C 0.06544 0.93535 0.00617 0.0
C2901 C 0.05224 0.92488 0.99297 0.0
C2902 C 0.03884 0.91242 0.99881 0.0
C2903 C 0.03855 0.91046 0.01787 0.0
H2904 H 0.05242 0.9264 0.97822 0.0
H2905 H 0.05262 0.90799 0.16339 0.0
H2906 H 0.93772 0.24531 0.90909 0.0
H2907 H 0.90917 0.24866 0.89198 0.0
H2908 H 0.93531 0.29728 0.87318 0.0
H2909 H 0.96391 0.2936 0.88958 0.0
H2910 H 0.90101 0.30013 0.88636 0.0
H2911 H 0.92579 0.26259 0.84295 0.0
H2912 H 0.93879 0.23646 0.83259 0.0
H2913 H 0.89102 0.20122 0.84204 0.0
H2914 H 0.87786 0.22717 0.85279 0.0
H2915 H 0.83547 0.31036 0.81058 0.0
H2916 H 0.86295 0.30696 0.82951 0.0
H2917 H 0.83558 0.25746 0.84543 0.0
H2918 H 0.80786 0.26118 0.82707 0.0
H2919 H 0.87005 0.25478 0.83441 0.0
H2920 H 0.84529 0.291 0.8783 0.0
H2921 H 0.8323 0.31625 0.89116 0.0
H2922 H 0.87893 0.35315 0.88178 0.0
H2923 H 0.89235 0.32802 0.8691 0.0
C2924 C 0.93743 0.25667 0.90124 0.0
C2925 C 0.95335 0.26904 0.90065 0.0
C2926 C 0.92101 0.25861 0.89142 0.0
C2927 C 0.9198 0.27327 0.8811 0.0
C2928 C 0.93562 0.28584 0.88091 0.0
C2929 C 0.9521 0.28363 0.89026 0.0
C2930 C 0.90229 0.2753 0.87022 0.0
C2931 C 0.89443 0.29029 0.87485 0.0
C2932 C 0.89313 0.26239 0.85539 0.0
C2933 C 0.90094 0.24679 0.84891 0.0
C2934 C 0.91813 0.24926 0.84301 0.0
C2935 C 0.92552 0.23449 0.83703 0.0
C2936 C 0.91576 0.21719 0.83672 0.0
C2937 C 0.89858 0.21463 0.84234 0.0
C2938 C 0.89115 0.22936 0.84838 0.0
C2939 C 0.83523 0.29876 0.81815 0.0
C2940 C 0.81926 0.28608 0.8172 0.0
C2941 C 0.85104 0.29684 0.82909 0.0
C2942 C 0.85163 0.28193 0.83912 0.0
C2943 C 0.83573 0.26912 0.83797 0.0
C2944 C 0.81977 0.27129 0.82745 0.0
C2945 C 0.86879 0.27964 0.8505 0.0
C2946 C 0.87661 0.26463 0.84592 0.0
C2947 C 0.87785 0.29247 0.86546 0.0
C2948 C 0.86969 0.30767 0.87248 0.0
C2949 C 0.85268 0.30451 0.87876 0.0
C2950 C 0.84527 0.3188 0.88608 0.0
C2951 C 0.85467 0.33632 0.88706 0.0
C2952 C 0.87161 0.33957 0.8809 0.0
C2953 C 0.87917 0.32531 0.87372 0.0
H2954 H 0.84889 0.34736 0.89271 0.0
H2955 H 0.9215 0.20576 0.83208 0.0
H2956 H 0.51942 0.2328 0.58375 0.0
H2957 H 0.51538 0.20031 0.57556 0.0
H2958 H 0.5724 0.20335 0.58556 0.0
H2959 H 0.57645 0.23589 0.59341 0.0
H2960 H 0.56149 0.18051 0.55651 0.0
H2961 H 0.53929 0.18587 0.61645 0.0
H2962 H 0.52033 0.1946 0.64026 0.0
H2963 H 0.47331 0.16669 0.60509 0.0
H2964 H 0.49196 0.15802 0.58094 0.0
H2965 H 0.55974 0.0863 0.55835 0.0
H2966 H 0.56319 0.11865 0.56601 0.0
H2967 H 0.50642 0.11485 0.55257 0.0
H2968 H 0.50311 0.08249 0.54413 0.0
H2969 H 0.51681 0.13781 0.58309 0.0
H2970 H 0.53824 0.13255 0.52333 0.0
H2971 H 0.55658 0.12401 0.49883 0.0
H2972 H 0.60428 0.15141 0.53322 0.0
H2973 H 0.58626 0.15987 0.55807 0.0
C2974 C 0.53116 0.22663 0.58412 0.0
C2975 C 0.54832 0.23734 0.5892 0.0
C2976 C 0.52881 0.2078 0.57958 0.0
C2977 C 0.5435 0.19877 0.58009 0.0
C2978 C 0.56067 0.20955 0.58494 0.0
C2979 C 0.56301 0.22836 0.58946 0.0
C2980 C 0.54114 0.17839 0.57526 0.0
C2981 C 0.55187 0.17129 0.56266 0.0
C2982 C 0.52827 0.1658 0.58256 0.0
C2983 C 0.51701 0.17151 0.59678 0.0
C2984 C 0.52489 0.18179 0.61369 0.0
C2985 C 0.5142 0.18668 0.62727 0.0
C2986 C 0.49563 0.18126 0.62416 0.0
C2987 C 0.4877 0.17093 0.60746 0.0
C2988 C 0.49832 0.16603 0.59382 0.0
C2989 C 0.54804 0.09228 0.55644 0.0
C2990 C 0.53129 0.08141 0.54983 0.0
C2991 C 0.54999 0.11101 0.56106 0.0
C2992 C 0.53515 0.11976 0.55965 0.0
C2993 C 0.51825 0.10884 0.55373 0.0
C2994 C 0.51638 0.09013 0.54881 0.0
C2995 C 0.53722 0.14006 0.56446 0.0
C2996 C 0.52645 0.14709 0.57701 0.0
C2997 C 0.54999 0.1526 0.55709 0.0
C2998 C 0.56091 0.14677 0.54259 0.0
C2999 C 0.55266 0.13657 0.52576 0.0
C3000 C 0.56299 0.13181 0.51178 0.0
C3001 C 0.58156 0.13733 0.51441 0.0
C3002 C 0.58988 0.14727 0.53117 0.0
C3003 C 0.57962 0.15204 0.54521 0.0
H3004 H 0.58953 0.13394 0.50346 0.0
H3005 H 0.48738 0.18502 0.63472 0.0
H3006 H 0.56775 0.76405 0.43113 0.0
H3007 H 0.59514 0.76432 0.41617 0.0
H3008 H 0.56873 0.77836 0.36558 0.0
H3009 H 0.54095 0.77703 0.38026 0.0
H3010 H 0.58775 0.75656 0.35524 0.0
H3011 H 0.60314 0.80888 0.40218 0.0
H3012 H 0.60812 0.8251 0.43409 0.0
H3013 H 0.6454 0.79199 0.45107 0.0
H3014 H 0.64051 0.77547 0.41935 0.0
H3015 H 0.6653 0.79012 0.31162 0.0
H3016 H 0.63743 0.78346 0.32602 0.0
H3017 H 0.66659 0.76774 0.37398 0.0
H3018 H 0.69448 0.77483 0.35966 0.0
H3019 H 0.64681 0.78842 0.38645 0.0
H3020 H 0.63351 0.73705 0.34135 0.0
H3021 H 0.62914 0.71894 0.3105 0.0
H3022 H 0.58877 0.74778 0.29112 0.0
H3023 H 0.59303 0.76619 0.3218 0.0
C3024 C 0.56775 0.76721 0.4168 0.0
C3025 C 0.55204 0.77057 0.40697 0.0
C3026 C 0.5836 0.76755 0.40825 0.0
C3027 C 0.58449 0.77182 0.38972 0.0
C3028 C 0.5687 0.77508 0.37986 0.0
C3029 C 0.55272 0.77436 0.3883 0.0
C3030 C 0.60153 0.77245 0.38038 0.0
C3031 C 0.60058 0.76383 0.36203 0.0
C3032 C 0.61869 0.78111 0.3893 0.0
C3033 C 0.6213 0.79083 0.40846 0.0
C3034 C 0.61227 0.80497 0.41277 0.0
C3035 C 0.61511 0.81423 0.43081 0.0
C3036 C 0.62703 0.80954 0.44461 0.0
C3037 C 0.63615 0.79559 0.4404 0.0
C3038 C 0.63335 0.78628 0.42239 0.0
C3039 C 0.66563 0.78469 0.32496 0.0
C3040 C 0.68206 0.78265 0.33431 0.0
C3041 C 0.64964 0.78089 0.33327 0.0
C3042 C 0.6496 0.77492 0.3512 0.0
C3043 C 0.66602 0.7723 0.36021 0.0
C3044 C 0.68199 0.77616 0.35191 0.0
C3045 C 0.63292 0.7729 0.36117 0.0
C3046 C 0.63396 0.7812 0.37964 0.0
C3047 C 0.61591 0.76375 0.35247 0.0
C3048 C 0.61374 0.75313 0.33381 0.0
C3049 C 0.62385 0.73967 0.33044 0.0
C3050 C 0.62135 0.72931 0.313 0.0
C3051 C 0.60873 0.73225 0.29884 0.0
C3052 C 0.59857 0.74555 0.30209 0.0
C3053 C 0.60101 0.75593 0.3195 0.0
H3054 H 0.60678 0.72418 0.28537 0.0
H3055 H 0.62923 0.81676 0.45855 0.0
H3056 H 0.01548 0.24786 0.38048 0.0
H3057 H 0.01535 0.21994 0.39468 0.0
H3058 H 0.06888 0.24004 0.42152 0.0
H3059 H 0.06894 0.26824 0.40759 0.0
H3060 H 0.06374 0.20323 0.40575 0.0
H3061 H 0.03634 0.24005 0.44717 0.0
H3062 H 0.01513 0.25958 0.45556 0.0
H3063 H 0.97096 0.21695 0.43539 0.0
H3064 H 0.99194 0.19726 0.42655 0.0
H3065 H 0.05224 0.14223 0.4818 0.0
H3066 H 0.05999 0.16803 0.46404 0.0
H3067 H 0.0135 0.14787 0.42421 0.0
H3068 H 1.0061 0.12201 0.44145 0.0
H3069 H 0.01726 0.18515 0.44725 0.0
H3070 H 0.04456 0.14845 0.40532 0.0
H3071 H 0.06562 0.12927 0.39558 0.0
H3072 H 0.10996 0.17154 0.41623 0.0
H3073 H 0.08914 0.19088 0.42645 0.0
C3074 C 0.02723 0.2464 0.38945 0.0
C3075 C 0.04215 0.26047 0.39301 0.0
C3076 C 0.02716 0.23035 0.39756 0.0
C3077 C 0.04208 0.22772 0.4093 0.0
C3078 C 0.05717 0.2416 0.41255 0.0
C3079 C 0.05714 0.25782 0.40468 0.0
C3080 C 0.04152 0.21083 0.4187 0.0
C3081 C 0.05374 0.19943 0.41506 0.0
C3082 C 0.02834 0.20551 0.43064 0.0
C3083 C 0.0157 0.21725 0.43603 0.0
C3084 C 0.0221 0.23489 0.44437 0.0
C3085 C 0.01012 0.24599 0.44922 0.0
C3086 C 0.99171 0.23953 0.44596 0.0
C3087 C 0.98523 0.22195 0.43788 0.0
C3088 C 0.99716 0.21081 0.43295 0.0
C3089 C 0.04421 0.14283 0.46874 0.0
C3090 C 0.02865 0.12984 0.46297 0.0
C3091 C 0.04853 0.15773 0.45868 0.0
C3092 C 0.03728 0.16005 0.44275 0.0
C3093 C 0.02245 0.14648 0.43636 0.0
C3094 C 0.01831 0.13156 0.44617 0.0
C3095 C 0.03937 0.17745 0.43425 0.0
C3096 C 0.02737 0.18898 0.43808 0.0
C3097 C 0.05274 0.18279 0.4225 0.0
C3098 C 0.06529 0.17098 0.41702 0.0
C3099 C 0.0588 0.15354 0.40814 0.0
C3100 C 0.0707 0.14267 0.40243 0.0
C3101 C 0.08913 0.14914 0.40538 0.0
C3102 C 0.09569 0.16651 0.41404 0.0
C3103 C 0.08385 0.17743 0.4198 0.0
H3104 H 0.09831 0.14072 0.40089 0.0
H3105 H 0.98245 0.24814 0.44974 0.0
H3106 H 0.57358 0.25259 0.23252 0.0
H3107 H 0.60604 0.256 0.24156 0.0
H3108 H 0.61618 0.28504 0.19416 0.0
H3109 H 0.58407 0.2815 0.18509 0.0
H3110 H 0.63879 0.26504 0.1953 0.0
H3111 H 0.62378 0.30484 0.24275 0.0
H3112 H 0.60836 0.31577 0.26878 0.0
H3113 H 0.6267 0.27778 0.30259 0.0
H3114 H 0.64205 0.26645 0.27663 0.0
H3115 H 0.73311 0.29623 0.22246 0.0
H3116 H 0.70081 0.29339 0.21461 0.0
H3117 H 0.69157 0.26147 0.26005 0.0
H3118 H 0.72392 0.26498 0.26843 0.0
H3119 H 0.66868 0.28322 0.26003 0.0
H3120 H 0.67727 0.24007 0.20651 0.0
H3121 H 0.69036 0.23034 0.17823 0.0
H3122 H 0.68549 0.27971 0.1561 0.0
H3123 H 0.67117 0.28917 0.18376 0.0
C3124 C 0.58271 0.25981 0.22408 0.0
C3125 C 0.57586 0.26679 0.20803 0.0
C3126 C 0.60146 0.26187 0.22934 0.0
C3127 C 0.61411 0.27097 0.21875 0.0
C3128 C 0.60715 0.27791 0.20276 0.0
C3129 C 0.58854 0.27593 0.19758 0.0
C3130 C 0.63441 0.27286 0.22373 0.0
C3131 C 0.64516 0.26925 0.20951 0.0
C3132 C 0.64338 0.27822 0.24218 0.0
C3133 C 0.63382 0.28461 0.25765 0.0
C3134 C 0.62434 0.29866 0.25565 0.0
C3135 C 0.61566 0.30497 0.27041 0.0
C3136 C 0.61648 0.29742 0.2873 0.0
C3137 C 0.62602 0.28357 0.28948 0.0
C3138 C 0.63471 0.27719 0.27474 0.0
C3139 C 0.72428 0.28846 0.23076 0.0
C3140 C 0.73154 0.28053 0.24594 0.0
C3141 C 0.70556 0.28665 0.22608 0.0
C3142 C 0.69318 0.2768 0.23632 0.0
C3143 C 0.70044 0.26901 0.2516 0.0
C3144 C 0.71917 0.27083 0.25629 0.0
C3145 C 0.6729 0.27518 0.23163 0.0
C3146 C 0.66218 0.27892 0.24589 0.0
C3147 C 0.66395 0.27042 0.21315 0.0
C3148 C 0.67353 0.26542 0.19725 0.0
C3149 C 0.67918 0.24889 0.19568 0.0
C3150 C 0.68671 0.2434 0.17972 0.0
C3151 C 0.68918 0.25456 0.16556 0.0
C3152 C 0.68373 0.27113 0.16715 0.0
C3153 C 0.6757 0.27647 0.18284 0.0
H3154 H 0.69513 0.2503 0.15327 0.0
H3155 H 0.60978 0.30235 0.29873 0.0
H3156 H 0.56733 0.86118 0.9141 0.0
H3157 H 0.56527 0.89002 0.93086 0.0
H3158 H 0.51648 0.89074 0.89566 0.0
H3159 H 0.51971 0.8628 0.87773 0.0
H3160 H 0.52945 0.92208 0.9021 0.0
H3161 H 0.52276 0.88033 0.94821 0.0
H3162 H 0.53168 0.8572 0.96684 0.0
H3163 H 0.58031 0.89306 0.98964 0.0
H3164 H 0.57175 0.91633 0.971 0.0
H3165 H 0.50187 0.98956 0.96381 0.0
H3166 H 0.50501 0.96155 0.94575 0.0
H3167 H 0.55819 0.96611 0.97408 0.0
H3168 H 0.55484 0.99402 0.99232 0.0
H3169 H 0.54285 0.93259 0.9713 0.0
H3170 H 0.54791 0.97474 0.92547 0.0
H3171 H 0.53765 0.99767 0.90746 0.0
H3172 H 0.48989 0.96039 0.88486 0.0
H3173 H 0.49977 0.93731 0.90293 0.0
C3174 C 0.55619 0.86752 0.90988 0.0
C3175 C 0.54369 0.85945 0.89449 0.0
C3176 C 0.5548 0.88409 0.91975 0.0
C3177 C 0.54028 0.89285 0.91534 0.0
C3178 C 0.52786 0.88472 0.89977 0.0
C3179 C 0.52967 0.86852 0.88944 0.0
C3180 C 0.53805 0.91033 0.92663 0.0
C3181 C 0.53216 0.92406 0.91726 0.0
C3182 C 0.54177 0.91378 0.94657 0.0
C3183 C 0.54669 0.89998 0.95811 0.0
C3184 C 0.53537 0.88325 0.95718 0.0
C3185 C 0.54036 0.87012 0.96773 0.0
C3186 C 0.55657 0.87364 0.97938 0.0
C3187 C 0.56777 0.89034 0.9806 0.0
C3188 C 0.56285 0.90351 0.97007 0.0
C3189 C 0.51434 0.98473 0.96598 0.0
C3190 C 0.52827 0.99439 0.97922 0.0
C3191 C 0.51618 0.9686 0.95557 0.0
C3192 C 0.53205 0.96149 0.958 0.0
C3193 C 0.54583 0.97106 0.97158 0.0
C3194 C 0.54397 0.98718 0.98199 0.0
C3195 C 0.53422 0.94411 0.94674 0.0
C3196 C 0.5401 0.93047 0.95613 0.0
C3197 C 0.53023 0.94065 0.92689 0.0
C3198 C 0.52451 0.95436 0.91566 0.0
C3199 C 0.53519 0.97146 0.91671 0.0
C3200 C 0.52944 0.98448 0.9065 0.0
C3201 C 0.5131 0.9805 0.89507 0.0
C3202 C 0.50253 0.96346 0.89375 0.0
C3203 C 0.50821 0.9504 0.90395 0.0
H3204 H 0.50865 0.99061 0.88722 0.0
H3205 H 0.56044 0.86344 0.9875 0.0
H3206 H 0.97984 0.77749 0.73399 0.0
H3207 H 0.95013 0.77968 0.74332 0.0
H3208 H 0.92575 0.7409 0.69652 0.0
H3209 H 0.95522 0.73961 0.68669 0.0
H3210 H 0.90483 0.76064 0.69779 0.0
H3211 H 0.92887 0.73451 0.74877 0.0
H3212 H 0.95051 0.73075 0.77507 0.0
H3213 H 0.94485 0.78114 0.8035 0.0
H3214 H 0.9233 0.78528 0.77724 0.0
H3215 H 0.81661 0.74754 0.72813 0.0
H3216 H 0.84622 0.74478 0.71962 0.0
H3217 H 0.87018 0.78677 0.76354 0.0
H3218 H 0.84053 0.78862 0.77289 0.0
H3219 H 0.89129 0.76531 0.76364 0.0
H3220 H 0.86391 0.78721 0.70672 0.0
H3221 H 0.84305 0.78528 0.67783 0.0
H3222 H 0.85412 0.73354 0.65964 0.0
H3223 H 0.87482 0.73508 0.68836 0.0
C3224 C 0.96816 0.7693 0.72576 0.0
C3225 C 0.97027 0.75827 0.70956 0.0
C3226 C 0.95094 0.77045 0.73122 0.0
C3227 C 0.93503 0.76027 0.72099 0.0
C3228 C 0.9373 0.74911 0.70491 0.0
C3229 C 0.95443 0.74824 0.69929 0.0
C3230 C 0.91615 0.76153 0.72641 0.0
C3231 C 0.90202 0.76142 0.71227 0.0
C3232 C 0.91171 0.76265 0.7452 0.0
C3233 C 0.92466 0.76031 0.76097 0.0
C3234 C 0.93235 0.74485 0.76058 0.0
C3235 C 0.94457 0.74264 0.77548 0.0
C3236 C 0.9491 0.75573 0.79092 0.0
C3237 C 0.94136 0.77103 0.79151 0.0
C3238 C 0.92913 0.77332 0.77663 0.0
C3239 C 0.82811 0.7563 0.73605 0.0
C3240 C 0.82568 0.76851 0.75123 0.0
C3241 C 0.84534 0.75487 0.73092 0.0
C3242 C 0.8611 0.7659 0.74037 0.0
C3243 C 0.85866 0.77803 0.75565 0.0
C3244 C 0.84143 0.77922 0.761 0.0
C3245 C 0.87996 0.7645 0.73498 0.0
C3246 C 0.89415 0.76461 0.74918 0.0
C3247 C 0.88426 0.76247 0.71614 0.0
C3248 C 0.87077 0.76122 0.69972 0.0
C3249 C 0.86169 0.77535 0.69666 0.0
C3250 C 0.84995 0.77433 0.68029 0.0
C3251 C 0.84732 0.75928 0.66696 0.0
C3252 C 0.85619 0.74516 0.67 0.0
C3253 C 0.86789 0.74609 0.68629 0.0
H3254 H 0.83854 0.75847 0.65419 0.0
H3255 H 0.95857 0.754 0.80245 0.0
H3256 H 0.08686 0.04099 0.82886 0.0
H3257 H 0.07631 0.04054 0.86001 0.0
H3258 H 0.12994 0.04071 0.8849 0.0
H3259 H 0.14046 0.04102 0.85395 0.0
H3260 H 0.1072 0.01762 0.90038 0.0
H3261 H 0.11058 0.07898 0.88889 0.0
H3262 H 0.10431 0.1039 0.87151 0.0
H3263 H 0.04797 0.08715 0.87365 0.0
H3264 H 0.0539 0.06201 0.89089 0.0
H3265 H 0.08793 0.03226 0.99518 0.0
H3266 H 0.10064 0.03435 0.96543 0.0
H3267 H 0.05062 0.04429 0.93931 0.0
H3268 H 0.03884 0.04454 0.96934 0.0
H3269 H 0.0731 0.06272 0.92468 0.0
H3270 H 0.06913 0.99987 0.93386 0.0
H3271 H 0.07517 0.9757 0.95257 0.0
H3272 H 0.13158 0.99515 0.95533 0.0
H3273 H 0.12597 0.01943 0.93656 0.0
C3274 C 0.0964 0.04092 0.84097 0.0
C3275 C 0.11453 0.04106 0.83877 0.0
C3276 C 0.09037 0.04075 0.85886 0.0
C3277 C 0.1023 0.04074 0.87507 0.0
C3278 C 0.12037 0.04068 0.8728 0.0
C3279 C 0.12639 0.04092 0.85499 0.0
C3280 C 0.09607 0.04077 0.89432 0.0
C3281 C 0.09984 0.02759 0.90569 0.0
C3282 C 0.08627 0.05355 0.90149 0.0
C3283 C 0.08267 0.06853 0.891 0.0
C3284 C 0.09685 0.08053 0.88551 0.0
C3285 C 0.09336 0.09471 0.87572 0.0
C3286 C 0.07575 0.09708 0.87143 0.0
C3287 C 0.0616 0.08528 0.87696 0.0
C3288 C 0.06502 0.07108 0.88675 0.0
C3289 C 0.07962 0.03484 0.98309 0.0
C3290 C 0.06203 0.03755 0.98475 0.0
C3291 C 0.08686 0.03583 0.96586 0.0
C3292 C 0.07651 0.03881 0.94952 0.0
C3293 C 0.05905 0.04176 0.95135 0.0
C3294 C 0.0521 0.0415 0.96866 0.0
C3295 C 0.08368 0.0392 0.93063 0.0
C3296 C 0.08025 0.05258 0.91935 0.0
C3297 C 0.09362 0.02649 0.92348 0.0
C3298 C 0.09712 0.01144 0.93387 0.0
C3299 C 0.08284 0.99892 0.93838 0.0
C3300 C 0.0862 0.98523 0.94899 0.0
C3301 C 0.10379 0.9839 0.95509 0.0
C3302 C 0.11804 0.99619 0.95049 0.0
C3303 C 0.11478 0.00986 0.93981 0.0
H3304 H 0.10639 0.97337 0.96341 0.0
H3305 H 0.07308 0.10807 0.86386 0.0
H3306 H 0.77578 0.42075 0.56306 0.0
H3307 H 0.7729 0.40851 0.59295 0.0
H3308 H 0.80511 0.36962 0.57674 0.0
H3309 H 0.80734 0.38132 0.54653 0.0
H3310 H 0.77463 0.35428 0.58724 0.0
H3311 H 0.82096 0.4056 0.61073 0.0
H3312 H 0.83377 0.43785 0.61602 0.0
H3313 H 0.79001 0.44746 0.64635 0.0
H3314 H 0.77685 0.41526 0.64105 0.0
H3315 H 0.81841 0.32826 0.66554 0.0
H3316 H 0.80493 0.33759 0.63693 0.0
H3317 H 0.76904 0.36262 0.66883 0.0
H3318 H 0.78222 0.35264 0.69751 0.0
H3319 H 0.79185 0.38599 0.65139 0.0
H3320 H 0.74952 0.33152 0.63138 0.0
H3321 H 0.73797 0.2991 0.62401 0.0
H3322 H 0.77775 0.29502 0.58637 0.0
H3323 H 0.78954 0.32735 0.59354 0.0
C3324 C 0.78235 0.40969 0.56603 0.0
C3325 C 0.79151 0.40166 0.5526 0.0
C3326 C 0.78078 0.40282 0.58307 0.0
C3327 C 0.78874 0.38818 0.58689 0.0
C3328 C 0.79872 0.38082 0.57383 0.0
C3329 C 0.79997 0.38744 0.55667 0.0
C3330 C 0.78558 0.37947 0.60378 0.0
C3331 C 0.77848 0.36115 0.60132 0.0
C3332 C 0.78979 0.38876 0.62197 0.0
C3333 C 0.79781 0.40807 0.62531 0.0
C3334 C 0.81401 0.41461 0.61841 0.0
C3335 C 0.82134 0.43287 0.62144 0.0
C3336 C 0.81267 0.4447 0.63146 0.0
C3337 C 0.79669 0.43828 0.63856 0.0
C3338 C 0.7893 0.42003 0.63557 0.0
C3339 C 0.80736 0.33538 0.6663 0.0
C3340 C 0.80165 0.34034 0.68359 0.0
C3341 C 0.79949 0.34046 0.64998 0.0
C3342 C 0.78599 0.35074 0.65085 0.0
C3343 C 0.77936 0.35457 0.66796 0.0
C3344 C 0.787 0.3491 0.68426 0.0
C3345 C 0.78196 0.36046 0.63486 0.0
C3346 C 0.78755 0.37913 0.63738 0.0
C3347 C 0.77686 0.35142 0.61664 0.0
C3348 C 0.77044 0.33182 0.61309 0.0
C3349 C 0.75591 0.32365 0.6217 0.0
C3350 C 0.74928 0.30531 0.61749 0.0
C3351 C 0.75713 0.295 0.60475 0.0
C3352 C 0.77166 0.30301 0.59622 0.0
C3353 C 0.77829 0.32134 0.60032 0.0
H3354 H 0.75194 0.28082 0.60147 0.0
H3355 H 0.81836 0.45884 0.63377 0.0
H3356 H 0.39439 0.02129 0.36177 0.0
H3357 H 0.40752 0.01694 0.3928 0.0
H3358 H 0.45932 0.02039 0.37268 0.0
H3359 H 0.44622 0.02431 0.34142 0.0
H3360 H 0.45026 0.99255 0.39616 0.0
H3361 H 0.45044 0.05888 0.39543 0.0
H3362 H 0.43252 0.08223 0.38967 0.0
H3363 H 0.39584 0.0611 0.42711 0.0
H3364 H 0.41379 0.03793 0.43335 0.0
H3365 H 0.51776 0.01401 0.46981 0.0
H3366 H 0.49823 0.01253 0.44104 0.0
H3367 H 0.45926 0.03315 0.47255 0.0
H3368 H 0.48073 0.03912 0.50016 0.0
H3369 H 0.45563 0.04453 0.4445 0.0
H3370 H 0.45965 0.98343 0.45318 0.0
H3371 H 0.47506 0.95815 0.45831 0.0
H3372 H 0.49848 0.96388 0.40689 0.0
H3373 H 0.48341 0.98928 0.40158 0.0
C3374 C 0.40859 0.02117 0.36399 0.0
C3375 C 0.41945 0.02337 0.34942 0.0
C3376 C 0.41596 0.01852 0.38159 0.0
C3377 C 0.43426 0.01836 0.38476 0.0
C3378 C 0.44509 0.02033 0.37022 0.0
C3379 C 0.43769 0.02279 0.35255 0.0
C3380 C 0.44264 0.01784 0.40361 0.0
C3381 C 0.45142 1.00371 0.407 0.0
C3382 C 0.44337 0.03213 0.41763 0.0
C3383 C 0.43341 0.04679 0.41486 0.0
C3384 C 0.43865 0.05939 0.40255 0.0
C3385 C 0.42851 0.07258 0.39923 0.0
C3386 C 0.41309 0.0732 0.40808 0.0
C3387 C 0.40785 0.0607 0.42037 0.0
C3388 C 0.41806 0.04764 0.42391 0.0
C3389 C 0.50539 0.01897 0.47043 0.0
C3390 C 0.50081 0.02669 0.48726 0.0
C3391 C 0.49383 0.01742 0.45405 0.0
C3392 C 0.47676 0.02177 0.45466 0.0
C3393 C 0.47229 0.0296 0.47153 0.0
C3394 C 0.48457 0.03287 0.48742 0.0
C3395 C 0.46388 0.01912 0.4376 0.0
C3396 C 0.45418 0.03279 0.43437 0.0
C3397 C 0.4618 1.00392 0.42405 0.0
C3398 C 0.4704 0.98826 0.427 0.0
C3399 C 0.46807 0.97928 0.44297 0.0
C3400 C 0.47677 0.96495 0.44592 0.0
C3401 C 0.48773 0.95941 0.43293 0.0
C3402 C 0.48996 0.96815 0.41693 0.0
C3403 C 0.48131 0.98248 0.41391 0.0
H3404 H 0.49449 0.94835 0.43527 0.0
H3405 H 0.40519 0.08334 0.4054 0.0
H3406 H 0.79737 0.72261 0.06785 0.0
H3407 H 0.80097 0.73375 0.10146 0.0
H3408 H 0.75873 0.69119 0.11052 0.0
H3409 H 0.75517 0.68006 0.07722 0.0
H3410 H 0.75359 0.72203 0.12707 0.0
H3411 H 0.8027 0.69132 0.12582 0.0
H3412 H 0.83067 0.68362 0.11588 0.0
H3413 H 0.85825 0.73728 0.13438 0.0
H3414 H 0.83035 0.7454 0.14414 0.0
H3415 H 0.75983 0.73772 0.2262 0.0
H3416 H 0.75925 0.72469 0.19387 0.0
H3417 H 0.80731 0.76194 0.18834 0.0
H3418 H 0.80827 0.7745 0.22108 0.0
H3419 H 0.81014 0.73325 0.16982 0.0
H3420 H 0.76019 0.76503 0.16476 0.0
H3421 H 0.73143 0.77367 0.17056 0.0
H3422 H 0.7059 0.71834 0.16341 0.0
H3423 H 0.73445 0.70947 0.15677 0.0
C3424 C 0.78885 0.71564 0.07702 0.0
C3425 C 0.77588 0.70048 0.06969 0.0
C3426 C 0.79102 0.72194 0.09632 0.0
C3427 C 0.78021 0.71331 0.10878 0.0
C3428 C 0.76729 0.69818 0.10139 0.0
C3429 C 0.76524 0.69181 0.08223 0.0
C3430 C 0.78149 0.72043 0.12923 0.0
C3431 C 0.76597 0.72422 0.13642 0.0
C3432 C 0.79764 0.72379 0.14159 0.0
C3433 C 0.81437 0.71903 0.13548 0.0
C3434 C 0.81467 0.70155 0.12756 0.0
C3435 C 0.83053 0.69709 0.122 0.0
C3436 C 0.84621 0.70997 0.12443 0.0
C3437 C 0.84607 0.72733 0.13246 0.0
C3438 C 0.83024 0.73187 0.138 0.0
C3439 C 0.77017 0.74332 0.21808 0.0
C3440 C 0.78387 0.75749 0.2263 0.0
C3441 C 0.7698 0.73586 0.19938 0.0
C3442 C 0.78292 0.74255 0.18805 0.0
C3443 C 0.79688 0.75646 0.19644 0.0
C3444 C 0.79739 0.76373 0.21526 0.0
C3445 C 0.78218 0.73504 0.16765 0.0
C3446 C 0.79779 0.7311 0.16047 0.0
C3447 C 0.76612 0.73153 0.15515 0.0
C3448 C 0.7494 0.73662 0.16054 0.0
C3449 C 0.74846 0.75473 0.16463 0.0
C3450 C 0.73217 0.75966 0.16792 0.0
C3451 C 0.71684 0.74654 0.16752 0.0
C3452 C 0.71777 0.72847 0.16375 0.0
C3453 C 0.73396 0.7235 0.16007 0.0
H3454 H 0.70422 0.75038 0.17003 0.0
H3455 H 0.85848 0.70648 0.12015 0.0
H3456 H 0.08542 0.04089 0.73525 0.0
H3457 H 0.07326 0.03921 0.70224 0.0
H3458 H 0.12368 0.02965 0.68514 0.0
H3459 H 0.13593 0.03177 0.71804 0.0
H3460 H 0.11315 0.05109 0.66378 0.0
H3461 H 0.08437 0.99578 0.67973 0.0
H3462 H 0.06698 0.97443 0.69766 0.0
H3463 H 0.02131 0.99949 0.68788 0.0
H3464 H 0.0385 0.0211 0.67 0.0
H3465 H 0.07965 0.02128 0.56786 0.0
H3466 H 0.09097 0.0223 0.60078 0.0
H3467 H 0.04523 0.04333 0.61714 0.0
H3468 H 0.03365 0.0423 0.58391 0.0
H3469 H 0.05351 0.01574 0.63837 0.0
H3470 H 0.0859 0.07021 0.61897 0.0
H3471 H 0.10514 0.08691 0.59854 0.0
H3472 H 0.14683 0.05774 0.61274 0.0
H3473 H 0.12772 0.04062 0.63299 0.0
C3474 C 0.09389 0.03834 0.72446 0.0
C3475 C 0.11168 0.03647 0.72945 0.0
C3476 C 0.08688 0.03728 0.70547 0.0
C3477 C 0.09739 0.03412 0.69085 0.0
C3478 C 0.11516 0.03216 0.6959 0.0
C3479 C 0.12217 0.03331 0.71485 0.0
C3480 C 0.09007 0.03327 0.67042 0.0
C3481 C 0.10017 0.04319 0.6583 0.0
C3482 C 0.07314 0.02298 0.66283 0.0
C3483 C 0.06279 0.0102 0.67374 0.0
C3484 C 0.07067 0.99684 0.68155 0.0
C3485 C 0.06084 0.98467 0.69166 0.0
C3486 C 0.04307 0.98565 0.69397 0.0
C3487 C 0.03509 0.99877 0.68611 0.0
C3488 C 0.04486 0.01097 0.67597 0.0
C3489 C 0.0719 0.02619 0.57836 0.0
C3490 C 0.05567 0.0318 0.57301 0.0
C3491 C 0.0785 0.0268 0.59731 0.0
C3492 C 0.06912 0.03303 0.61166 0.0
C3493 C 0.0528 0.03848 0.60644 0.0
C3494 C 0.04621 0.03799 0.58737 0.0
C3495 C 0.07643 0.03382 0.63199 0.0
C3496 C 0.0664 0.02377 0.64401 0.0
C3497 C 0.09371 0.04347 0.63929 0.0
C3498 C 0.10532 0.05405 0.62741 0.0
C3499 C 0.09913 0.06728 0.61766 0.0
C3500 C 0.11002 0.07683 0.60611 0.0
C3501 C 0.12718 0.07337 0.60432 0.0
C3502 C 0.13353 0.06039 0.61413 0.0
C3503 C 0.12268 0.05078 0.62565 0.0
H3504 H 0.13559 0.08076 0.59537 0.0
H3505 H 0.03548 0.97621 0.70181 0.0
H3506 H 0.78217 0.36834 0.45408 0.0
H3507 H 0.78497 0.35504 0.42255 0.0
H3508 H 0.80146 0.40764 0.40587 0.0
H3509 H 0.79849 0.42108 0.43718 0.0
H3510 H 0.77392 0.3853 0.38186 0.0
H3511 H 0.83292 0.38389 0.41207 0.0
H3512 H 0.85371 0.37738 0.43777 0.0
H3513 H 0.82956 0.32171 0.42805 0.0
H3514 H 0.80856 0.32791 0.40241 0.0
H3515 H 0.77889 0.33744 0.29468 0.0
H3516 H 0.78571 0.35918 0.32195 0.0
H3517 H 0.78982 0.31671 0.35685 0.0
H3518 H 0.78758 0.29588 0.32917 0.0
H3519 H 0.81314 0.34103 0.37001 0.0
H3520 H 0.74989 0.34177 0.34683 0.0
H3521 H 0.72742 0.34604 0.32146 0.0
H3522 H 0.75553 0.39953 0.31966 0.0
H3523 H 0.77822 0.39552 0.34491 0.0
C3524 C 0.78632 0.37701 0.44365 0.0
C3525 C 0.79007 0.39563 0.44788 0.0
C3526 C 0.78806 0.36946 0.42583 0.0
C3527 C 0.79369 0.38051 0.41229 0.0
C3528 C 0.79725 0.39908 0.41638 0.0
C3529 C 0.79546 0.40664 0.43416 0.0
C3530 C 0.79484 0.37255 0.39347 0.0
C3531 C 0.7826 0.37574 0.37907 0.0
C3532 C 0.80617 0.36018 0.39024 0.0
C3533 C 0.81918 0.35638 0.40532 0.0
C3534 C 0.83204 0.37027 0.41544 0.0
C3535 C 0.84386 0.36663 0.42999 0.0
C3536 C 0.84296 0.34914 0.43454 0.0
C3537 C 0.83028 0.33524 0.42449 0.0
C3538 C 0.81845 0.3388 0.4099 0.0
C3539 C 0.78151 0.33273 0.30807 0.0
C3540 C 0.78313 0.3149 0.30959 0.0
C3541 C 0.78507 0.34521 0.3238 0.0
C3542 C 0.7879 0.33961 0.34158 0.0
C3543 C 0.78796 0.32148 0.34325 0.0
C3544 C 0.78624 0.30938 0.32736 0.0
C3545 C 0.79095 0.35239 0.3586 0.0
C3546 C 0.80438 0.35054 0.37261 0.0
C3547 C 0.78018 0.3655 0.36169 0.0
C3548 C 0.76579 0.36828 0.3476 0.0
C3549 C 0.75119 0.35446 0.34108 0.0
C3550 C 0.73847 0.35682 0.32669 0.0
C3551 C 0.74014 0.373 0.31887 0.0
C3552 C 0.75431 0.38699 0.32568 0.0
C3553 C 0.76707 0.3847 0.34005 0.0
H3554 H 0.73048 0.37469 0.3075 0.0
H3555 H 0.85209 0.34636 0.44584 0.0
H3556 H 0.38802 0.0129 0.23023 0.0
H3557 H 0.399 0.01541 0.19975 0.0
H3558 H 0.45312 0.03116 0.22692 0.0
H3559 H 0.44219 0.02907 0.25754 0.0
H3560 H 0.44569 0.05265 0.20094 0.0
H3561 H 0.43817 0.98971 0.2059 0.0
H3562 H 0.42189 0.95993 0.21052 0.0
H3563 H 0.38472 0.9606 0.16209 0.0
H3564 H 0.40058 0.99058 0.1574 0.0
H3565 H 0.49969 0.02174 0.13521 0.0
H3566 H 0.48355 0.03272 0.16028 0.0
H3567 H 0.43498 0.023 0.12198 0.0
H3568 H 0.45119 0.01222 0.0968 0.0
H3569 H 0.43498 1.0015 0.15091 0.0
H3570 H 0.4475 0.06372 0.14404 0.0
H3571 H 0.46468 0.09364 0.14127 0.0
H3572 H 0.49528 0.09339 0.19437 0.0
H3573 H 0.47849 0.0634 0.19736 0.0
C3574 C 0.40227 0.0168 0.22968 0.0
C3575 C 0.41432 0.02082 0.24613 0.0
C3576 C 0.40848 0.01822 0.21231 0.0
C3577 C 0.42681 0.02344 0.21122 0.0
C3578 C 0.4389 0.02722 0.22761 0.0
C3579 C 0.43268 0.02591 0.24501 0.0
C3580 C 0.43347 0.02504 0.19296 0.0
C3581 C 0.44353 0.04147 0.18997 0.0
C3582 C 0.43 0.01054 0.17864 0.0
C3583 C 0.42041 0.99252 0.18146 0.0
C3584 C 0.42641 0.98361 0.19636 0.0
C3585 C 0.41727 0.96668 0.19897 0.0
C3586 C 0.40224 0.95841 0.18665 0.0
C3587 C 0.39633 0.96705 0.17166 0.0
C3588 C 0.40538 0.98401 0.16903 0.0
C3589 C 0.48569 0.02244 0.13211 0.0
C3590 C 0.47647 0.01579 0.1144 0.0
C3591 C 0.47656 0.02896 0.14628 0.0
C3592 C 0.45812 0.02864 0.14288 0.0
C3593 C 0.44926 0.02347 0.12472 0.0
C3594 C 0.45845 0.01719 0.11047 0.0
C3595 C 0.44771 0.02904 0.15894 0.0
C3596 C 0.43689 0.01287 0.16162 0.0
C3597 C 0.4509 0.04365 0.17314 0.0
C3598 C 0.46178 0.06123 0.17085 0.0
C3599 C 0.45806 0.06993 0.15501 0.0
C3600 C 0.46766 0.08696 0.15345 0.0
C3601 C 0.48101 0.09543 0.16766 0.0
C3602 C 0.4849 0.08684 0.18339 0.0
C3603 C 0.47533 0.06983 0.18503 0.0
H3604 H 0.4884 0.10863 0.16644 0.0
H3605 H 0.3952 0.94529 0.18868 0.0
H3606 H 0.76676 0.67088 0.94438 0.0
H3607 H 0.76738 0.68101 0.9133 0.0
H3608 H 0.77656 0.73584 0.93841 0.0
H3609 H 0.77524 0.72563 0.96962 0.0
H3610 H 0.75353 0.73226 0.90883 0.0
H3611 H 0.81053 0.71183 0.9192 0.0
H3612 H 0.82951 0.68943 0.92506 0.0
H3613 H 0.80218 0.65549 0.87622 0.0
H3614 H 0.78291 0.67756 0.87022 0.0
H3615 H 0.77251 0.77479 0.8299 0.0
H3616 H 0.77359 0.76356 0.85988 0.0
H3617 H 0.77709 0.71141 0.8332 0.0
H3618 H 0.77995 0.72393 0.80335 0.0
H3619 H 0.79251 0.71194 0.86332 0.0
H3620 H 0.73526 0.7292 0.85176 0.0
H3621 H 0.71432 0.74945 0.84432 0.0
H3622 H 0.73772 0.78555 0.89321 0.0
H3623 H 0.75892 0.76564 0.9008 0.0
C3624 C 0.76894 0.68513 0.94334 0.0
C3625 C 0.771 0.69743 0.95963 0.0
C3626 C 0.76945 0.69094 0.92545 0.0
C3627 C 0.77243 0.70929 0.92324 0.0
C3628 C 0.77433 0.72161 0.93953 0.0
C3629 C 0.77359 0.71577 0.95745 0.0
C3630 C 0.77304 0.71568 0.90407 0.0
C3631 C 0.76223 0.72795 0.89897 0.0
C3632 C 0.78366 0.70952 0.89059 0.0
C3633 C 0.79519 0.69627 0.89438 0.0
C3634 C 0.80849 0.69953 0.90981 0.0
C3635 C 0.81931 0.68689 0.91314 0.0
C3636 C 0.81702 0.67103 0.90105 0.0
C3637 C 0.80393 0.66776 0.88559 0.0
C3638 C 0.79306 0.68033 0.88222 0.0
C3639 C 0.77442 0.76114 0.83032 0.0
C3640 C 0.77688 0.75059 0.81396 0.0
C3641 C 0.77421 0.75438 0.84768 0.0
C3642 C 0.77455 0.73623 0.84923 0.0
C3643 C 0.77672 0.72547 0.83281 0.0
C3644 C 0.77824 0.73262 0.81555 0.0
C3645 C 0.77303 0.72873 0.86792 0.0
C3646 C 0.78365 0.71623 0.87299 0.0
C3647 C 0.76174 0.73421 0.88115 0.0
C3648 C 0.74873 0.74598 0.87677 0.0
C3649 C 0.73594 0.74147 0.86089 0.0
C3650 C 0.72405 0.7529 0.85664 0.0
C3651 C 0.72471 0.76878 0.86827 0.0
C3652 C 0.73722 0.77324 0.88421 0.0
C3653 C 0.74916 0.76189 0.88851 0.0
H3654 H 0.71551 0.77762 0.86493 0.0
H3655 H 0.82543 0.66128 0.90364 0.0
H3656 H 0.82856 0.13847 0.05575 0.0
H3657 H 0.85782 0.13005 0.05671 0.0
H3658 H 0.83298 0.07512 0.0382 0.0
H3659 H 0.80335 0.08343 0.03755 0.0
H3660 H 0.86053 0.07893 0.06644 0.0
H3661 H 0.84797 0.10084 0.00737 0.0
H3662 H 0.83966 0.1224 0.98632 0.0
H3663 H 0.88579 0.16107 0.01066 0.0
H3664 H 0.89418 0.13987 0.03215 0.0
H3665 H 0.92697 0.04598 0.01921 0.0
H3666 H 0.90183 0.05474 0.03383 0.0
H3667 H 0.93157 0.10878 0.04711 0.0
H3668 H 0.95641 0.10012 0.0315 0.0
H3669 H 0.90249 0.1075 0.02506 0.0
H3670 H 0.91679 0.08075 0.0809 0.0
H3671 H 0.92358 0.05706 0.09976 0.0
H3672 H 0.87243 0.02463 0.0791 0.0
H3673 H 0.86566 0.04774 0.05941 0.0
C3674 C 0.82933 0.12457 0.05197 0.0
C3675 C 0.81392 0.11154 0.04629 0.0
C3676 C 0.84597 0.11984 0.05257 0.0
C3677 C 0.84729 0.10212 0.04723 0.0
C3678 C 0.83194 0.0889 0.04228 0.0
C3679 C 0.81519 0.09361 0.04185 0.0
C3680 C 0.86483 0.09759 0.04613 0.0
C3681 C 0.8698 0.08496 0.05733 0.0
C3682 C 0.87668 0.10602 0.03449 0.0
C3683 C 0.87158 0.11882 0.02156 0.0
C3684 C 0.85624 0.114 0.0084 0.0
C3685 C 0.85153 0.12615 0.99636 0.0
C3686 C 0.86216 0.14311 0.9972 0.0
C3687 C 0.87754 0.14794 0.01006 0.0
C3688 C 0.88227 0.13587 0.02218 0.0
C3689 C 0.92818 0.05961 0.02567 0.0
C3690 C 0.94318 0.07259 0.02409 0.0
C3691 C 0.91401 0.06453 0.03426 0.0
C3692 C 0.91499 0.08236 0.04165 0.0
C3693 C 0.93071 0.09495 0.0415 0.0
C3694 C 0.94472 0.09011 0.03251 0.0
C3695 C 0.89851 0.08857 0.04542 0.0
C3696 C 0.89356 0.10159 0.03454 0.0
C3697 C 0.88651 0.08008 0.05698 0.0
C3698 C 0.89079 0.06599 0.06855 0.0
C3699 C 0.90709 0.06848 0.08016 0.0
C3700 C 0.91091 0.05513 0.09104 0.0
C3701 C 0.89843 0.03935 0.09067 0.0
C3702 C 0.88211 0.03685 0.07936 0.0
C3703 C 0.8783 0.05004 0.06828 0.0
H3704 H 0.90141 0.02904 0.09911 0.0
H3705 H 0.85851 0.15249 0.98784 0.0
H3706 H 0.33949 0.44541 0.02951 0.0
H3707 H 0.36977 0.46124 0.02691 0.0
H3708 H 0.39108 0.41463 0.04007 0.0
H3709 H 0.36091 0.39886 0.04298 0.0
H3710 H 0.41168 0.4435 0.05845 0.0
H3711 H 0.38695 0.42599 0.99462 0.0
H3712 H 0.36477 0.42325 0.9668 0.0
H3713 H 0.37243 0.48048 0.96908 0.0
H3714 H 0.39452 0.48356 0.99706 0.0
H3715 H 0.49897 0.47761 0.03664 0.0
H3716 H 0.46976 0.45934 0.03769 0.0
H3717 H 0.44436 0.50079 0.01645 0.0
H3718 H 0.47353 0.51794 0.01294 0.0
H3719 H 0.42595 0.47256 0.00176 0.0
H3720 H 0.45038 0.48932 0.06768 0.0
H3721 H 0.47292 0.49056 0.09494 0.0
H3722 H 0.46609 0.43323 0.08819 0.0
H3723 H 0.44365 0.43167 0.06081 0.0
C3724 C 0.35063 0.43856 0.03193 0.0
C3725 C 0.34775 0.42086 0.03647 0.0
C3726 C 0.36796 0.44759 0.0303 0.0
C3727 C 0.38279 0.43909 0.03303 0.0
C3728 C 0.37993 0.42151 0.03786 0.0
C3729 C 0.36263 0.41249 0.03951 0.0
C3730 C 0.40127 0.44857 0.03107 0.0
C3731 C 0.41483 0.44974 0.04598 0.0
C3732 C 0.4055 0.45681 0.01488 0.0
C3733 C 0.39226 0.455 0.99804 0.0
C3734 C 0.38381 0.43799 0.98927 0.0
C3735 C 0.37127 0.43637 0.97345 0.0
C3736 C 0.36716 0.45168 0.96621 0.0
C3737 C 0.37562 0.46863 0.97472 0.0
C3738 C 0.38816 0.47032 0.99054 0.0
C3739 C 0.4872 0.48294 0.03225 0.0
C3740 C 0.48882 0.49975 0.02539 0.0
C3741 C 0.47035 0.47248 0.03307 0.0
C3742 C 0.45456 0.47884 0.02793 0.0
C3743 C 0.45618 0.49552 0.02085 0.0
C3744 C 0.47302 0.50564 0.01926 0.0
C3745 C 0.43638 0.46813 0.02946 0.0
C3746 C 0.42285 0.46653 0.01435 0.0
C3747 C 0.43221 0.45941 0.04547 0.0
C3748 C 0.44544 0.4604 0.06214 0.0
C3749 C 0.45372 0.477 0.07201 0.0
C3750 C 0.46648 0.47775 0.08746 0.0
C3751 C 0.47096 0.46199 0.09327 0.0
C3752 C 0.46263 0.44543 0.08368 0.0
C3753 C 0.44987 0.4446 0.06821 0.0
H3754 H 0.48086 0.4626 0.10522 0.0
H3755 H 0.35745 0.45041 0.95397 0.0
H3756 H 0.42471 0.58104 0.76417 0.0
H3757 H 0.41208 0.60831 0.76442 0.0
H3758 H 0.35889 0.57677 0.75998 0.0
H3759 H 0.37149 0.54936 0.75902 0.0
H3760 H 0.35864 0.60186 0.73829 0.0
H3761 H 0.38265 0.60129 0.80273 0.0
H3762 H 0.40575 0.60092 0.82898 0.0
H3763 H 0.43677 0.64909 0.81444 0.0
H3764 H 0.41398 0.6496 0.78795 0.0
H3765 H 0.31354 0.67249 0.77137 0.0
H3766 H 0.32577 0.64525 0.76395 0.0
H3767 H 0.37867 0.67727 0.76746 0.0
H3768 H 0.36653 0.70424 0.77544 0.0
H3769 H 0.37954 0.65215 0.78858 0.0
H3770 H 0.35397 0.65465 0.72634 0.0
H3771 H 0.33018 0.6561 0.70145 0.0
H3772 H 0.30231 0.60443 0.71083 0.0
H3773 H 0.32544 0.60315 0.73669 0.0
C3774 C 0.41032 0.5799 0.76323 0.0
C3775 C 0.3991 0.56303 0.76167 0.0
C3776 C 0.4031 0.59554 0.7635 0.0
C3777 C 0.3845 0.59471 0.76258 0.0
C3778 C 0.37327 0.57783 0.76077 0.0
C3779 C 0.38049 0.56215 0.76029 0.0
C3780 C 0.37672 0.61136 0.76339 0.0
C3781 C 0.36303 0.61277 0.74944 0.0
C3782 C 0.38282 0.62591 0.77756 0.0
C3783 C 0.39671 0.62535 0.79322 0.0
C3784 C 0.39449 0.61169 0.80501 0.0
C3785 C 0.40751 0.61148 0.81996 0.0
C3786 C 0.42275 0.62494 0.82334 0.0
C3787 C 0.42499 0.63864 0.81178 0.0
C3788 C 0.41203 0.6389 0.7968 0.0
C3789 C 0.32769 0.67367 0.77005 0.0
C3790 C 0.33914 0.6904 0.77399 0.0
C3791 C 0.3347 0.65811 0.76582 0.0
C3792 C 0.35321 0.65913 0.76519 0.0
C3793 C 0.36439 0.67605 0.76799 0.0
C3794 C 0.35745 0.69148 0.77244 0.0
C3795 C 0.36131 0.64267 0.76355 0.0
C3796 C 0.37511 0.64129 0.77737 0.0
C3797 C 0.35528 0.62821 0.74926 0.0
C3798 C 0.34135 0.62895 0.73369 0.0
C3799 C 0.34265 0.6437 0.72332 0.0
C3800 C 0.32927 0.64447 0.70897 0.0
C3801 C 0.31474 0.63032 0.70447 0.0
C3802 C 0.31354 0.6154 0.71437 0.0
C3803 C 0.32674 0.61471 0.72896 0.0
H3804 H 0.30437 0.6309 0.69337 0.0
H3805 H 0.43279 0.62478 0.83495 0.0
H3806 H 0.21612 0.58509 0.52095 0.0
H3807 H 0.18378 0.57692 0.51225 0.0
H3808 H 0.17658 0.62614 0.54277 0.0
H3809 H 0.20867 0.63428 0.55179 0.0
H3810 H 0.15772 0.59588 0.55334 0.0
H3811 H 0.16835 0.62224 0.49752 0.0
H3812 H 0.18321 0.62799 0.46927 0.0
H3813 H 0.16534 0.5731 0.44643 0.0
H3814 H 0.15063 0.56689 0.47469 0.0
H3815 H 0.06499 0.58097 0.52578 0.0
H3816 H 0.09642 0.59483 0.5278 0.0
H3817 H 0.10922 0.5445 0.506 0.0
H3818 H 0.07753 0.53027 0.50438 0.0
H3819 H 0.12445 0.57822 0.48983 0.0
H3820 H 0.11991 0.5509 0.54753 0.0
H3821 H 0.11114 0.54371 0.57835 0.0
H3822 H 0.11975 0.59969 0.59815 0.0
H3823 H 0.12856 0.60721 0.56741 0.0
C3824 C 0.20759 0.59409 0.52579 0.0
C3825 C 0.21467 0.61014 0.53713 0.0
C3826 C 0.1893 0.5896 0.52057 0.0
C3827 C 0.17816 0.6012 0.52663 0.0
C3828 C 0.18522 0.61727 0.53783 0.0
C3829 C 0.20343 0.62174 0.54309 0.0
C3830 C 0.15896 0.59532 0.52356 0.0
C3831 C 0.15029 0.59245 0.53947 0.0
C3832 C 0.14977 0.59042 0.50541 0.0
C3833 C 0.1585 0.59408 0.48831 0.0
C3834 C 0.16772 0.61134 0.48655 0.0
C3835 C 0.17609 0.61469 0.47051 0.0
C3836 C 0.17525 0.6009 0.45608 0.0
C3837 C 0.16599 0.58375 0.45763 0.0
C3838 C 0.15761 0.58031 0.47365 0.0
C3839 C 0.07448 0.57295 0.5211 0.0
C3840 C 0.0692 0.55468 0.51484 0.0
C3841 C 0.09229 0.58083 0.52238 0.0
C3842 C 0.10475 0.5705 0.51713 0.0
C3843 C 0.09947 0.55243 0.5101 0.0
C3844 C 0.08161 0.54441 0.50919 0.0
C3845 C 0.12344 0.57862 0.51963 0.0
C3846 C 0.1319 0.58199 0.50364 0.0
C3847 C 0.13256 0.58395 0.53774 0.0
C3848 C 0.12466 0.57961 0.55511 0.0
C3849 C 0.11951 0.56168 0.5583 0.0
C3850 C 0.11472 0.55755 0.57582 0.0
C3851 C 0.11504 0.57124 0.59023 0.0
C3852 C 0.11961 0.58911 0.587 0.0
C3853 C 0.12449 0.59331 0.56953 0.0
H3854 H 0.11183 0.56802 0.60394 0.0
H3855 H 0.18174 0.60351 0.44367 0.0
H3856 H 0.72511 0.00772 0.76047 0.0
H3857 H 0.73396 0.9784 0.75817 0.0
H3858 H 0.68062 0.95374 0.73331 0.0
H3859 H 0.67156 0.9828 0.7359 0.0
H3860 H 0.69323 0.9383 0.76332 0.0
H3861 H 0.71327 0.95697 0.70574 0.0
H3862 H 0.72891 0.98002 0.68835 0.0
H3863 H 0.77828 0.9801 0.72231 0.0
H3864 H 0.76288 0.95719 0.74007 0.0
H3865 H 0.7238 0.85813 0.76657 0.0
H3866 H 0.71127 0.87959 0.74826 0.0
H3867 H 0.75914 0.91906 0.76636 0.0
H3868 H 0.77141 0.89771 0.78458 0.0
H3869 H 0.74482 0.92359 0.73203 0.0
H3870 H 0.72685 0.91287 0.79299 0.0
H3871 H 0.71288 0.89687 0.81747 0.0
H3872 H 0.66181 0.88783 0.78409 0.0
H3873 H 0.67562 0.90326 0.75909 0.0
C3874 C 0.71537 0.99603 0.75441 0.0
C3875 C 0.69773 0.99734 0.74838 0.0
C3876 C 0.72043 0.97942 0.75298 0.0
C3877 C 0.70793 0.96419 0.74525 0.0
C3878 C 0.69037 0.96551 0.73912 0.0
C3879 C 0.68527 0.98204 0.74067 0.0
C3880 C 0.71285 0.94662 0.7449 0.0
C3881 C 0.70409 0.93469 0.75598 0.0
C3882 C 0.72736 0.94256 0.73572 0.0
C3883 C 0.73694 0.95528 0.72414 0.0
C3884 C 0.72749 0.96182 0.70942 0.0
C3885 C 0.7363 0.97491 0.69954 0.0
C3886 C 0.75459 0.98149 0.7042 0.0
C3887 C 0.76413 0.97492 0.71867 0.0
C3888 C 0.75538 0.96184 0.7286 0.0
C3889 C 0.73163 0.87129 0.76614 0.0
C3890 C 0.74813 0.87678 0.77719 0.0
C3891 C 0.72464 0.88337 0.75564 0.0
C3892 C 0.73425 0.90084 0.75629 0.0
C3893 C 0.75159 0.90559 0.76576 0.0
C3894 C 0.75847 0.89359 0.77633 0.0
C3895 C 0.72527 0.91518 0.75063 0.0
C3896 C 0.73333 0.92667 0.73856 0.0
C3897 C 0.7104 0.91918 0.75943 0.0
C3898 C 0.70237 0.90881 0.77393 0.0
C3899 C 0.71273 0.90711 0.79066 0.0
C3900 C 0.70482 0.89824 0.80469 0.0
C3901 C 0.68647 0.89135 0.80234 0.0
C3902 C 0.67603 0.89315 0.78587 0.0
C3903 C 0.68392 0.90184 0.77172 0.0
H3904 H 0.68034 0.88457 0.81326 0.0
H3905 H 0.76136 0.99169 0.69661 0.0
H3906 H 0.73341 0.89322 0.5209 0.0
H3907 H 0.70609 0.90548 0.5221 0.0
H3908 H 0.73641 0.95444 0.55249 0.0
H3909 H 0.76393 0.94195 0.55178 0.0
H3910 H 0.70496 0.94458 0.56671 0.0
H3911 H 0.72275 0.95048 0.50462 0.0
H3912 H 0.73114 0.93945 0.47404 0.0
H3913 H 0.68067 0.90331 0.46226 0.0
H3914 H 0.6721 0.91391 0.4929 0.0
H3915 H 0.63842 0.99908 0.53936 0.0
H3916 H 0.66503 0.98621 0.54819 0.0
H3917 H 0.63713 0.93429 0.52265 0.0
H3918 H 0.61064 0.94686 0.51426 0.0
H3919 H 0.66774 0.94631 0.50691 0.0
H3920 H 0.64883 0.93917 0.5667 0.0
H3921 H 0.63971 0.94639 0.59796 0.0
H3922 H 0.69026 0.98143 0.61466 0.0
H3923 H 0.69956 0.97474 0.58332 0.0
C3924 C 0.73433 0.90662 0.52782 0.0
C3925 C 0.75092 0.9167 0.53604 0.0
C3926 C 0.71865 0.91364 0.52847 0.0
C3927 C 0.71917 0.93103 0.53708 0.0
C3928 C 0.73566 0.94102 0.54567 0.0
C3929 C 0.7514 0.93393 0.54515 0.0
C3930 C 0.70256 0.93885 0.53666 0.0
C3931 C 0.69697 0.9453 0.55362 0.0
C3932 C 0.69175 0.93916 0.51963 0.0
C3933 C 0.69685 0.9329 0.50113 0.0
C3934 C 0.71349 0.9401 0.49556 0.0
C3935 C 0.71827 0.93392 0.47822 0.0
C3936 C 0.70646 0.92066 0.46624 0.0
C3937 C 0.68982 0.91356 0.47156 0.0
C3938 C 0.68499 0.91966 0.48891 0.0
C3939 C 0.63779 0.98482 0.53623 0.0
C3940 C 0.62254 0.97404 0.52577 0.0
C3941 C 0.65302 0.97749 0.54123 0.0
C3942 C 0.65315 0.95931 0.53584 0.0
C3943 C 0.63742 0.94835 0.52682 0.0
C3944 C 0.62228 0.95558 0.52198 0.0
C3945 C 0.67011 0.95216 0.53696 0.0
C3946 C 0.67577 0.94581 0.52004 0.0
C3947 C 0.68076 0.95173 0.55404 0.0
C3948 C 0.67479 0.95665 0.57251 0.0
C3949 C 0.65789 0.94868 0.57689 0.0
C3950 C 0.65273 0.95259 0.59468 0.0
C3951 C 0.66442 0.96431 0.6083 0.0
C3952 C 0.68124 0.9723 0.60411 0.0
C3953 C 0.68644 0.96849 0.58631 0.0
H3954 H 0.66042 0.96729 0.62208 0.0
H3955 H 0.71019 0.9159 0.45282 0.0
H3956 H 0.41477 0.45155 0.75757 0.0
H3957 H 0.39873 0.42146 0.76033 0.0
H3958 H 0.35051 0.44239 0.76708 0.0
H3959 H 0.36666 0.47263 0.76482 0.0
H3960 H 0.35516 0.41941 0.79197 0.0
H3961 H 0.35879 0.41828 0.72437 0.0
H3962 H 0.3754 0.42117 0.69676 0.0
H3963 H 0.40477 0.38104 0.71332 0.0
H3964 H 0.38847 0.37804 0.74111 0.0
H3965 H 0.29356 0.33885 0.78493 0.0
H3966 H 0.31003 0.36807 0.78108 0.0
H3967 H 0.3521 0.34352 0.75992 0.0
H3968 H 0.33406 0.3141 0.76064 0.0
H3969 H 0.35225 0.36854 0.74297 0.0
H3970 H 0.35153 0.3682 0.80927 0.0
H3971 H 0.33849 0.3649 0.83905 0.0
H3972 H 0.30892 0.40665 0.82893 0.0
H3973 H 0.32163 0.41007 0.79901 0.0
C3974 C 0.40071 0.44974 0.75951 0.0
C3975 C 0.39197 0.46451 0.76085 0.0
C3976 C 0.39152 0.43247 0.76103 0.0
C3977 C 0.37328 0.42949 0.76364 0.0
C3978 C 0.36455 0.44425 0.76501 0.0
C3979 C 0.37377 0.46155 0.76363 0.0
C3980 C 0.36332 0.41111 0.7653 0.0
C3981 C 0.35434 0.4083 0.78117 0.0
C3982 C 0.36292 0.39634 0.7517 0.0
C3983 C 0.3725 0.39803 0.73486 0.0
C3984 C 0.36884 0.41014 0.72215 0.0
C3985 C 0.3782 0.41178 0.70647 0.0
C3986 C 0.39115 0.40132 0.70331 0.0
C3987 C 0.39475 0.38914 0.71579 0.0
C3988 C 0.38544 0.38745 0.73148 0.0
C3989 C 0.3059 0.33953 0.77865 0.0
C3990 C 0.31201 0.32387 0.77247 0.0
C3991 C 0.31578 0.35648 0.77711 0.0
C3992 C 0.33279 0.35841 0.77072 0.0
C3993 C 0.33906 0.34273 0.76483 0.0
C3994 C 0.3287 0.32576 0.76535 0.0
C3995 C 0.34381 0.37661 0.76972 0.0
C3996 C 0.35305 0.37947 0.75396 0.0
C3997 C 0.34502 0.39129 0.78381 0.0
C3998 C 0.33743 0.38929 0.80184 0.0
C3999 C 0.34218 0.37662 0.81337 0.0
C4000 C 0.33486 0.37473 0.83027 0.0
C4001 C 0.32286 0.38554 0.83586 0.0
C4002 C 0.31821 0.39829 0.82458 0.0
C4003 C 0.32548 0.40022 0.80767 0.0
H4004 H 0.3172 0.38406 0.84894 0.0
H4005 H 0.39839 0.40263 0.69117 0.0
H4006 H 0.23298 0.59759 0.27081 0.0
H4007 H 0.24063 0.62982 0.28081 0.0
H4008 H 0.187 0.63551 0.26073 0.0
H4009 H 0.17958 0.60378 0.24997 0.0
H4010 H 0.21112 0.65731 0.24699 0.0
H4011 H 0.20066 0.6413 0.30788 0.0
H4012 H 0.20341 0.62463 0.33534 0.0
H4013 H 0.26005 0.64459 0.34399 0.0
H4014 H 0.25767 0.66121 0.31645 0.0
H4015 H 0.23152 0.74973 0.28013 0.0
H4016 H 0.2171 0.71853 0.279 0.0
H4017 H 0.26884 0.70298 0.28552 0.0
H4018 H 0.28351 0.73432 0.28636 0.0
H4019 H 0.24134 0.68731 0.30872 0.0
H4020 H 0.25232 0.69197 0.24268 0.0
H4021 H 0.25093 0.70308 0.21171 0.0
H4022 H 0.19475 0.70304 0.21235 0.0
H4023 H 0.19575 0.69121 0.24309 0.0
C4024 C 0.22297 0.60584 0.26846 0.0
C4025 C 0.2059 0.59849 0.25938 0.0
C4026 C 0.22718 0.62404 0.27446 0.0
C4027 C 0.21418 0.63472 0.27179 0.0
C4028 C 0.19707 0.62729 0.26298 0.0
C4029 C 0.19299 0.60928 0.25664 0.0
C4030 C 0.21911 0.65403 0.27581 0.0
C4031 C 0.21722 0.66395 0.26066 0.0
C4032 C 0.2275 0.66239 0.29349 0.0
C4033 C 0.22899 0.65243 0.31006 0.0
C4034 C 0.21372 0.64204 0.31557 0.0
C4035 C 0.21521 0.63262 0.33116 0.0
C4036 C 0.2319 0.63353 0.34139 0.0
C4037 C 0.24713 0.6439 0.33606 0.0
C4038 C 0.24571 0.65335 0.32049 0.0
C4039 C 0.23982 0.7397 0.28172 0.0
C4040 C 0.25856 0.74415 0.28336 0.0
C4041 C 0.23158 0.72201 0.28095 0.0
C4042 C 0.24207 0.70883 0.2821 0.0
C4043 C 0.26075 0.71326 0.28463 0.0
C4044 C 0.26903 0.73097 0.2851 0.0
C4045 C 0.23349 0.69024 0.27985 0.0
C4046 C 0.23468 0.6806 0.2953 0.0
C4047 C 0.2245 0.68201 0.26244 0.0
C4048 C 0.2242 0.69115 0.24529 0.0
C4049 C 0.23976 0.69466 0.23636 0.0
C4050 C 0.239 0.7009 0.21876 0.0
C4051 C 0.2228 0.704 0.21015 0.0
C4052 C 0.20731 0.70076 0.2191 0.0
C4053 C 0.20795 0.6942 0.23655 0.0
H4054 H 0.22221 0.70878 0.19649 0.0
H4055 H 0.23302 0.62623 0.35346 0.0
H4056 H 0.53595 0.73367 0.47617 0.0
H4057 H 0.54174 0.70623 0.48894 0.0
H4058 H 0.49112 0.67756 0.46101 0.0
H4059 H 0.48563 0.70484 0.44757 0.0
H4060 H 0.49802 0.67039 0.49981 0.0
H4061 H 0.5262 0.66951 0.44344 0.0
H4062 H 0.54634 0.68086 0.4208 0.0
H4063 H 0.59166 0.68575 0.46233 0.0
H4064 H 0.57173 0.67468 0.48534 0.0
H4065 H 0.5095 0.57952 0.50637 0.0
H4066 H 0.50431 0.60795 0.49586 0.0
H4067 H 0.55725 0.63342 0.52058 0.0
H4068 H 0.56218 0.6051 0.53174 0.0
H4069 H 0.54978 0.64285 0.48433 0.0
H4070 H 0.52225 0.64336 0.54055 0.0
H4071 H 0.5025 0.63236 0.56367 0.0
H4072 H 0.45648 0.62868 0.52332 0.0
H4073 H 0.476 0.63939 0.49983 0.0
C4074 C 0.52598 0.72156 0.47276 0.0
C4075 C 0.51024 0.72169 0.46081 0.0
C4076 C 0.52936 0.70575 0.48006 0.0
C4077 C 0.51692 0.68953 0.47608 0.0
C4078 C 0.50102 0.68972 0.46444 0.0
C4079 C 0.49787 0.70541 0.4567 0.0
C4080 C 0.52056 0.67248 0.48391 0.0
C4081 C 0.50921 0.66429 0.49617 0.0
C4082 C 0.53544 0.6645 0.47982 0.0
C4083 C 0.54744 0.67152 0.46619 0.0
C4084 C 0.54043 0.67324 0.44783 0.0
C4085 C 0.55182 0.67956 0.43491 0.0
C4086 C 0.57027 0.68409 0.44015 0.0
C4087 C 0.57736 0.68228 0.45831 0.0
C4088 C 0.56603 0.67599 0.4713 0.0
C4089 C 0.52007 0.59116 0.50974 0.0
C4090 C 0.53637 0.58971 0.52001 0.0
C4091 C 0.51704 0.60756 0.50369 0.0
C4092 C 0.53032 0.62317 0.50727 0.0
C4093 C 0.54666 0.62177 0.51748 0.0
C4094 C 0.5495 0.60543 0.52398 0.0
C4095 C 0.52716 0.64067 0.50014 0.0
C4096 C 0.5386 0.64896 0.48802 0.0
C4097 C 0.5124 0.64879 0.50443 0.0
C4098 C 0.50061 0.64197 0.51834 0.0
C4099 C 0.50794 0.63999 0.53652 0.0
C4100 C 0.49678 0.63385 0.54971 0.0
C4101 C 0.47825 0.62975 0.54495 0.0
C4102 C 0.47084 0.63182 0.52698 0.0
C4103 C 0.48195 0.63792 0.51371 0.0
H4104 H 0.46962 0.62502 0.55519 0.0
H4105 H 0.57907 0.68894 0.43011 0.0
H4106 H 0.62102 0.30551 0.62951 0.0
H4107 H 0.64824 0.3071 0.65105 0.0
H4108 H 0.61613 0.28835 0.69372 0.0
H4109 H 0.58896 0.28736 0.67246 0.0
H4110 H 0.64135 0.31275 0.71003 0.0
H4111 H 0.64113 0.26167 0.66576 0.0
H4112 H 0.64063 0.2449 0.63469 0.0
H4113 H 0.68943 0.27892 0.626 0.0
H4114 H 0.69006 0.2961 0.65689 0.0
H4115 H 0.71028 0.28373 0.76805 0.0
H4116 H 0.68392 0.28546 0.74684 0.0
H4117 H 0.71755 0.31419 0.71087 0.0
H4118 H 0.74403 0.31342 0.73265 0.0
H4119 H 0.69239 0.28578 0.69116 0.0
H4120 H 0.69304 0.33576 0.73649 0.0
H4121 H 0.69356 0.35178 0.76793 0.0
H4122 H 0.64369 0.31874 0.77503 0.0
H4123 H 0.64305 0.30222 0.74378 0.0
C4124 C 0.61975 0.30173 0.64348 0.0
C4125 C 0.60271 0.29627 0.64916 0.0
C4126 C 0.6354 0.30252 0.65583 0.0
C4127 C 0.6345 0.29758 0.67413 0.0
C4128 C 0.61743 0.29225 0.67979 0.0
C4129 C 0.6018 0.29162 0.66753 0.0
C4130 C 0.65118 0.29812 0.68745 0.0
C4131 C 0.65235 0.3066 0.70589 0.0
C4132 C 0.66596 0.29054 0.6822 0.0
C4133 C 0.66552 0.28031 0.66355 0.0
C4134 C 0.65166 0.26568 0.65715 0.0
C4135 C 0.65137 0.25609 0.63958 0.0
C4136 C 0.66496 0.26087 0.62835 0.0
C4137 C 0.67889 0.27525 0.63469 0.0
C4138 C 0.67921 0.28493 0.65223 0.0
C4139 C 0.71216 0.29105 0.75607 0.0
C4140 C 0.72947 0.29891 0.75255 0.0
C4141 C 0.69697 0.29179 0.74372 0.0
C4142 C 0.69859 0.30007 0.72721 0.0
C4143 C 0.71583 0.30777 0.7235 0.0
C4144 C 0.73101 0.30736 0.73606 0.0
C4145 C 0.68239 0.30025 0.71364 0.0
C4146 C 0.68134 0.29191 0.69522 0.0
C4147 C 0.66767 0.30781 0.71895 0.0
C4148 C 0.66812 0.31759 0.73786 0.0
C4149 C 0.68229 0.33174 0.74484 0.0
C4150 C 0.68259 0.34094 0.76262 0.0
C4151 C 0.6687 0.33624 0.7735 0.0
C4152 C 0.65447 0.32233 0.76661 0.0
C4153 C 0.65414 0.31304 0.74886 0.0
H4154 H 0.66894 0.34341 0.78724 0.0
H4155 H 0.66473 0.25341 0.61476 0.0
H4156 H 0.03167 0.32285 0.97966 0.0
H4157 H 0.034 0.35416 0.99264 0.0
H4158 H 0.98509 0.35678 0.95859 0.0
H4159 H 0.98354 0.32606 0.94477 0.0
H4160 H 1.00388 0.38578 0.95764 0.0
H4161 H 0.99224 0.35459 0.01157 0.0
H4162 H 0.9977 0.3343 0.03526 0.0
H4163 H 0.04962 0.36634 0.05325 0.0
H4164 H 0.04456 0.38668 0.02951 0.0
H4165 H 0.98894 0.46776 0.00635 0.0
H4166 H 0.9861 0.43558 0.99636 0.0
H4167 H 0.0417 0.43855 0.01607 0.0
H4168 H 0.04458 0.47068 0.02574 0.0
H4169 H 0.0196 0.40727 0.02525 0.0
H4170 H 0.03062 0.43834 0.97158 0.0
H4171 H 0.02477 0.45908 0.94857 0.0
H4172 H 0.97287 0.42699 0.93062 0.0
H4173 H 0.97828 0.40623 0.95385 0.0
C4174 C 0.02136 0.33008 0.97506 0.0
C4175 C 0.00736 0.32175 0.96119 0.0
C4176 C 0.02259 0.3481 0.98263 0.0
C4177 C 0.00953 0.35822 0.97707 0.0
C4178 C 0.99547 0.34968 0.96332 0.0
C4179 C 0.99451 0.33191 0.95543 0.0
C4180 C 0.01057 0.37769 0.9849 0.0
C4181 C 1.00699 0.39021 0.97252 0.0
C4182 C 0.01511 0.38418 0.00428 0.0
C4183 C 0.01809 0.37204 0.01864 0.0
C4184 C 1.00485 0.35724 0.02052 0.0
C4185 C 0.00788 0.34574 0.03396 0.0
C4186 C 0.02401 0.349 0.04572 0.0
C4187 C 0.03714 0.36381 0.04411 0.0
C4188 C 0.0342 0.37533 0.03068 0.0
C4189 C 1.00047 0.46153 0.00879 0.0
C4190 C 0.01697 0.47195 0.01688 0.0
C4191 C 0.99888 0.44307 0.00296 0.0
C4192 C 0.0137 0.43441 0.00534 0.0
C4193 C 0.03002 0.44471 0.01402 0.0
C4194 C 0.03167 0.46319 0.01946 0.0
C4195 C 0.01255 0.41495 0.99801 0.0
C4196 C 0.01625 0.40259 0.01044 0.0
C4197 C 0.00797 0.40854 0.97874 0.0
C4198 C 1.00476 0.42086 0.96462 0.0
C4199 C 0.01789 0.43579 0.96286 0.0
C4200 C 0.01466 0.44755 0.94976 0.0
C4201 C 0.99843 0.44439 0.93818 0.0
C4202 C 0.98542 0.42944 0.93964 0.0
C4203 C 0.98855 0.41768 0.95278 0.0
H4204 H 0.99595 0.45351 0.92804 0.0
H4205 H 0.02633 0.34007 0.0561 0.0
H4206 H 0.98906 0.7866 0.11885 0.0
H4207 H 0.96329 0.78345 0.137 0.0
H4208 H 0.99884 0.7866 0.18792 0.0
H4209 H 0.02449 0.78963 0.16992 0.0
H4210 H 0.97083 0.75976 0.18651 0.0
H4211 H 0.97948 0.82193 0.17689 0.0
H4212 H 0.98279 0.84701 0.1576 0.0
H4213 H 0.93014 0.82719 0.12891 0.0
H4214 H 0.92663 0.80181 0.14784 0.0
H4215 H 0.91197 0.76688 0.2534 0.0
H4216 H 0.9365 0.77693 0.23513 0.0
H4217 H 0.89854 0.77371 0.18605 0.0
H4218 H 0.87393 0.76412 0.20457 0.0
H4219 H 0.92702 0.80071 0.18551 0.0
H4220 H 0.91822 0.73873 0.19489 0.0
H4221 H 0.91491 0.71313 0.21347 0.0
H4222 H 0.96798 0.73184 0.24155 0.0
H4223 H 0.97146 0.75778 0.22342 0.0
C4224 C 0.99136 0.78667 0.13392 0.0
C4225 C 0.00884 0.78842 0.14294 0.0
C4226 C 0.97663 0.78494 0.1443 0.0
C4227 C 0.97909 0.78493 0.1639 0.0
C4228 C 0.99654 0.78658 0.17285 0.0
C4229 C 0.01123 0.78838 0.16252 0.0
C4230 C 0.96357 0.78289 0.17516 0.0
C4231 C 0.96141 0.76888 0.18646 0.0
C4232 C 0.95093 0.79445 0.17476 0.0
C4233 C 0.95285 0.80989 0.16366 0.0
C4234 C 0.96864 0.82287 0.16639 0.0
C4235 C 0.97056 0.83714 0.15553 0.0
C4236 C 0.9567 0.83867 0.14201 0.0
C4237 C 0.94087 0.82597 0.13937 0.0
C4238 C 0.9389 0.81165 0.15018 0.0
C4239 C 0.90885 0.76901 0.2389 0.0
C4240 C 0.89108 0.76489 0.23041 0.0
C4241 C 0.92287 0.77457 0.2284 0.0
C4242 C 0.91946 0.77568 0.20906 0.0
C4243 C 0.90157 0.7729 0.2009 0.0
C4244 C 0.88749 0.7675 0.21149 0.0
C4245 C 0.93449 0.77776 0.19711 0.0
C4246 C 0.93649 0.79165 0.1856 0.0
C4247 C 0.94699 0.76603 0.19722 0.0
C4248 C 0.94503 0.75029 0.20794 0.0
C4249 C 0.92914 0.73745 0.20512 0.0
C4250 C 0.92723 0.72288 0.21557 0.0
C4251 C 0.94121 0.72088 0.22871 0.0
C4252 C 0.95715 0.73343 0.2314 0.0
C4253 C 0.95909 0.74807 0.22105 0.0
H4254 H 0.93971 0.70958 0.23678 0.0
H4255 H 0.95821 0.84972 0.13359 0.0
H4256 H 0.54655 0.29844 0.14372 0.0
H4257 H 0.55034 0.32485 0.12659 0.0
H4258 H 0.50439 0.34084 0.14885 0.0
H4259 H 0.50106 0.31475 0.16675 0.0
H4260 H 0.50534 0.33966 0.1072 0.0
H4261 H 0.53961 0.36445 0.16562 0.0
H4262 H 0.56252 0.36719 0.19275 0.0
H4263 H 0.60374 0.37043 0.15604 0.0
H4264 H 0.58104 0.36732 0.12863 0.0
H4265 H 0.52622 0.43093 0.07823 0.0
H4266 H 0.51636 0.40464 0.09451 0.0
H4267 H 0.5617 0.38235 0.07904 0.0
H4268 H 0.57136 0.4082 0.0626 0.0
H4269 H 0.55885 0.38803 0.11895 0.0
H4270 H 0.52533 0.36112 0.0607 0.0
H4271 H 0.50288 0.35661 0.03293 0.0
H4272 H 0.46091 0.35641 0.06852 0.0
H4273 H 0.48315 0.36122 0.09653 0.0
C4274 C 0.53732 0.30766 0.14503 0.0
C4275 C 0.5235 0.30458 0.15652 0.0
C4276 C 0.53952 0.32275 0.13529 0.0
C4277 C 0.52765 0.33483 0.13643 0.0
C4278 C 0.51372 0.33172 0.1478 0.0
C4279 C 0.51186 0.31688 0.15804 0.0
C4280 C 0.52965 0.35038 0.12529 0.0
C4281 C 0.51685 0.35047 0.10998 0.0
C4282 C 0.54492 0.36419 0.12862 0.0
C4283 C 0.55856 0.36539 0.14503 0.0
C4284 C 0.55352 0.36545 0.16329 0.0
C4285 C 0.56648 0.36714 0.17873 0.0
C4286 C 0.58457 0.36892 0.17612 0.0
C4287 C 0.58972 0.36899 0.15805 0.0
C4288 C 0.57681 0.36725 0.14255 0.0
C4289 C 0.53378 0.42018 0.07786 0.0
C4290 C 0.54977 0.42183 0.06939 0.0
C4291 C 0.52816 0.40517 0.08721 0.0
C4292 C 0.53839 0.39158 0.08815 0.0
C4293 C 0.55367 0.39271 0.07865 0.0
C4294 C 0.55921 0.40755 0.0693 0.0
C4295 C 0.53463 0.37727 0.1007 0.0
C4296 C 0.54719 0.37739 0.11629 0.0
C4297 C 0.51921 0.36362 0.09752 0.0
C4298 C 0.50595 0.36191 0.08073 0.0
C4299 C 0.51136 0.3605 0.06263 0.0
C4300 C 0.49865 0.35777 0.04683 0.0
C4301 C 0.48049 0.35632 0.04895 0.0
C4302 C 0.47499 0.35762 0.06688 0.0
C4303 C 0.48764 0.36037 0.08273 0.0
H4304 H 0.47067 0.3541 0.03671 0.0
H4305 H 0.59459 0.37031 0.1881 0.0
H4306 H 0.98175 0.31835 0.3635 0.0
H4307 H 0.95103 0.31746 0.35013 0.0
H4308 H 0.96143 0.28951 0.29865 0.0
H4309 H 0.9928 0.29165 0.31172 0.0
H4310 H 0.93974 0.30893 0.28877 0.0
H4311 H 0.93592 0.26908 0.3366 0.0
H4312 H 0.94117 0.26021 0.36839 0.0
H4313 H 0.91447 0.3013 0.3905 0.0
H4314 H 0.90922 0.31051 0.35887 0.0
H4315 H 0.84558 0.28281 0.25583 0.0
H4316 H 0.87745 0.28468 0.2662 0.0
H4317 H 0.87053 0.3119 0.31955 0.0
H4318 H 0.83841 0.30858 0.30957 0.0
H4319 H 0.89072 0.29162 0.32744 0.0
H4320 H 0.89421 0.33112 0.2784 0.0
H4321 H 0.88947 0.33928 0.24624 0.0
H4322 H 0.91637 0.29779 0.22573 0.0
H4323 H 0.92129 0.28934 0.25773 0.0
C4324 C 0.97756 0.31201 0.3493 0.0
C4325 C 0.9899 0.30494 0.33883 0.0
C4326 C 0.95974 0.31131 0.34164 0.0
C4327 C 0.95323 0.30281 0.32342 0.0
C4328 C 0.96571 0.29604 0.31276 0.0
C4329 C 0.98376 0.29721 0.32028 0.0
C4330 C 0.93361 0.30109 0.31565 0.0
C4331 C 0.92906 0.30493 0.29723 0.0
C4332 C 0.91925 0.29614 0.32643 0.0
C4333 C 0.92231 0.29055 0.34541 0.0
C4334 C 0.93125 0.27626 0.34826 0.0
C4335 C 0.93421 0.27117 0.36625 0.0
C4336 C 0.92819 0.28021 0.38146 0.0
C4337 C 0.91914 0.29432 0.37871 0.0
C4338 C 0.91614 0.29946 0.36076 0.0
C4339 C 0.85093 0.28924 0.26975 0.0
C4340 C 0.83939 0.29551 0.28186 0.0
C4341 C 0.86934 0.29053 0.27569 0.0
C4342 C 0.87701 0.29879 0.29372 0.0
C4343 C 0.86536 0.30536 0.30563 0.0
C4344 C 0.84687 0.30354 0.2999 0.0
C4345 C 0.89675 0.29986 0.30068 0.0
C4346 C 0.90134 0.29576 0.31896 0.0
C4347 C 0.91107 0.30447 0.28968 0.0
C4348 C 0.90795 0.30948 0.27044 0.0
C4349 C 0.899 0.32366 0.26701 0.0
C4350 C 0.89629 0.32834 0.24882 0.0
C4351 C 0.90249 0.319 0.23395 0.0
C4352 C 0.91152 0.30499 0.23725 0.0
C4353 C 0.91431 0.30027 0.25541 0.0
H4354 H 0.90036 0.32266 0.21988 0.0
H4355 H 0.9305 0.27626 0.39538 0.0
H4356 H 0.02298 0.69446 0.67141 0.0
H4357 H 0.02146 0.66718 0.64986 0.0
H4358 H 0.00829 0.6954 0.60299 0.0
H4359 H 0.00996 0.7227 0.62443 0.0
H4360 H 0.98755 0.66209 0.59925 0.0
H4361 H 0.04976 0.6872 0.61232 0.0
H4362 H 0.07817 0.69937 0.63218 0.0
H4363 H 0.07674 0.64923 0.65482 0.0
H4364 H 0.04811 0.63685 0.63534 0.0
H4365 H 1.00666 0.60119 0.52552 0.0
H4366 H 1.00681 0.62749 0.54747 0.0
H4367 H 0.01808 0.5978 0.59365 0.0
H4368 H 0.01813 0.57149 0.57171 0.0
H4369 H 0.03977 0.63158 0.598 0.0
H4370 H 0.97758 0.60637 0.58412 0.0
H4371 H 0.94951 0.59437 0.56363 0.0
H4372 H 0.95127 0.64495 0.54184 0.0
H4373 H 0.97958 0.65716 0.56195 0.0
C4374 C 0.01971 0.69485 0.65652 0.0
C4375 C 0.01667 0.71085 0.64969 0.0
C4376 C 0.0189 0.67922 0.64417 0.0
C4377 C 0.01487 0.67913 0.62466 0.0
C4378 C 0.01143 0.69501 0.6179 0.0
C4379 C 0.01247 0.71067 0.63021 0.0
C4380 C 0.01458 0.66266 0.61129 0.0
C4381 C 0.99906 0.65557 0.59887 0.0
C4382 C 0.02943 0.65381 0.61085 0.0
C4383 C 0.04667 0.66117 0.62254 0.0
C4384 C 0.05541 0.67882 0.62167 0.0
C4385 C 0.07156 0.68575 0.63284 0.0
C4386 C 0.07923 0.6751 0.6448 0.0
C4387 C 0.07076 0.65748 0.64558 0.0
C4388 C 0.05456 0.6505 0.63448 0.0
C4389 C 0.00957 0.60021 0.54018 0.0
C4390 C 0.01314 0.58415 0.54642 0.0
C4391 C 0.00939 0.61533 0.55289 0.0
C4392 C 0.01266 0.61483 0.57235 0.0
C4393 C 0.01576 0.59872 0.57874 0.0
C4394 C 0.01574 0.58358 0.56603 0.0
C4395 C 0.01275 0.63102 0.586 0.0
C4396 C 0.02824 0.63808 0.59844 0.0
C4397 C 0.99791 0.63987 0.5864 0.0
C4398 C 0.98081 0.63263 0.57441 0.0
C4399 C 0.97208 0.61489 0.57484 0.0
C4400 C 0.95611 0.60805 0.56331 0.0
C4401 C 0.94863 0.61888 0.55141 0.0
C4402 C 0.95709 0.63657 0.55105 0.0
C4403 C 0.9731 0.64346 0.56251 0.0
H4404 H 0.93626 0.61356 0.54249 0.0
H4405 H 0.09175 0.68049 0.65343 0.0
H4406 H 0.5788 0.77664 0.8208 0.0
H4407 H 0.60617 0.77089 0.80794 0.0
H4408 H 0.63531 0.8207 0.83732 0.0
H4409 H 0.60798 0.82636 0.85044 0.0
H4410 H 0.64506 0.81634 0.80171 0.0
H4411 H 0.64038 0.77975 0.85225 0.0
H4412 H 0.62587 0.75667 0.87034 0.0
H4413 H 0.62047 0.7172 0.82255 0.0
H4414 H 0.63476 0.74012 0.80409 0.0
H4415 H 0.73471 0.80185 0.7953 0.0
H4416 H 0.70618 0.80673 0.80561 0.0
H4417 H 0.67973 0.75675 0.7744 0.0
H4418 H 0.7083 0.75216 0.76341 0.0
H4419 H 0.66802 0.76039 0.80988 0.0
H4420 H 0.67062 0.79476 0.75892 0.0
H4421 H 0.68239 0.81675 0.7382 0.0
H4422 H 0.69015 0.85868 0.78385 0.0
H4423 H 0.67819 0.83698 0.80488 0.0
C4424 C 0.59099 0.78647 0.82452 0.0
C4425 C 0.59088 0.80206 0.83674 0.0
C4426 C 0.60682 0.78308 0.81719 0.0
C4427 C 0.62325 0.79521 0.8216 0.0
C4428 C 0.62307 0.81097 0.83352 0.0
C4429 C 0.60729 0.81423 0.84109 0.0
C4430 C 0.64044 0.79154 0.81385 0.0
C4431 C 0.65014 0.8042 0.80384 0.0
C4432 C 0.64716 0.77544 0.81574 0.0
C4433 C 0.63846 0.76169 0.82674 0.0
C4434 C 0.63595 0.76618 0.84555 0.0
C4435 C 0.6278 0.75312 0.85588 0.0
C4436 C 0.6222 0.73549 0.84759 0.0
C4437 C 0.62478 0.73087 0.82895 0.0
C4438 C 0.63292 0.74389 0.81855 0.0
C4439 C 0.72287 0.79184 0.79046 0.0
C4440 C 0.7242 0.77647 0.77845 0.0
C4441 C 0.70637 0.79472 0.79641 0.0
C4442 C 0.69039 0.78219 0.79096 0.0
C4443 C 0.69163 0.76675 0.77902 0.0
C4444 C 0.70813 0.76409 0.77265 0.0
C4445 C 0.6727 0.78528 0.79793 0.0
C4446 C 0.66295 0.77254 0.8078 0.0
C4447 C 0.66576 0.80117 0.79569 0.0
C4448 C 0.67366 0.81422 0.7835 0.0
C4449 C 0.67497 0.80865 0.7646 0.0
C4450 C 0.68154 0.82109 0.75277 0.0
C4451 C 0.68686 0.83913 0.75969 0.0
C4452 C 0.68579 0.84475 0.7785 0.0
C4453 C 0.6791 0.8324 0.79037 0.0
H4454 H 0.69181 0.84875 0.75048 0.0
H4455 H 0.61591 0.72539 0.85562 0.0
H4456 H 0.4234 0.51685 0.69335 0.0
H4457 H 0.43855 0.52263 0.66552 0.0
H4458 H 0.48931 0.53675 0.70017 0.0
H4459 H 0.47416 0.53139 0.72805 0.0
H4460 H 0.48825 0.55943 0.67548 0.0
H4461 H 0.47551 0.49573 0.67241 0.0
H4462 H 0.45712 0.46572 0.67168 0.0
H4463 H 0.42611 0.47355 0.62125 0.0
H4464 H 0.44412 0.50375 0.62187 0.0
H4465 H 0.54022 0.53335 0.59872 0.0
H4466 H 0.52502 0.53288 0.627 0.0
H4467 H 0.48147 0.55252 0.59857 0.0
H4468 H 0.4971 0.55414 0.5704 0.0
H4469 H 0.4789 0.51412 0.61969 0.0
H4470 H 0.49323 0.57918 0.62415 0.0
H4471 H 0.5134 0.60834 0.62588 0.0
H4472 H 0.54362 0.5966 0.675 0.0
H4473 H 0.5239 0.56712 0.67324 0.0
C4474 C 0.4378 0.52113 0.69503 0.0
C4475 C 0.44758 0.52355 0.71292 0.0
C4476 C 0.44648 0.52439 0.67908 0.0
C4477 C 0.46517 0.52994 0.68061 0.0
C4478 C 0.47491 0.53249 0.69852 0.0
C4479 C 0.46623 0.52932 0.71447 0.0
C4480 C 0.47457 0.53308 0.66361 0.0
C4481 C 0.48625 0.54944 0.66335 0.0
C4482 C 0.47196 0.52017 0.64762 0.0
C4483 C 0.46102 0.50209 0.64732 0.0
C4484 C 0.46465 0.49113 0.66127 0.0
C4485 C 0.45431 0.47407 0.66086 0.0
C4486 C 0.44042 0.46775 0.64646 0.0
C4487 C 0.43685 0.47847 0.63243 0.0
C4488 C 0.44711 0.49556 0.6328 0.0
C4489 C 0.52769 0.53816 0.59856 0.0
C4490 C 0.52011 0.54416 0.58227 0.0
C4491 C 0.51897 0.53777 0.61478 0.0
C4492 C 0.50227 0.54294 0.615 0.0
C4493 C 0.49453 0.54879 0.5988 0.0
C4494 C 0.50347 0.54965 0.58269 0.0
C4495 C 0.49224 0.54048 0.63154 0.0
C4496 C 0.48066 0.52414 0.63177 0.0
C4497 C 0.49513 0.55329 0.64757 0.0
C4498 C 0.50732 0.57076 0.64829 0.0
C4499 C 0.50441 0.58262 0.63506 0.0
C4500 C 0.51571 0.59926 0.63611 0.0
C4501 C 0.52985 0.60427 0.65047 0.0
C4502 C 0.53272 0.59266 0.66382 0.0
C4503 C 0.5215 0.57597 0.66278 0.0
H4504 H 0.53853 0.6172 0.65132 0.0
H4505 H 0.43244 0.45453 0.64616 0.0
H4506 H 0.7667 0.18011 0.01414 0.0
H4507 H 0.76422 0.19725 0.98788 0.0
H4508 H 0.75754 0.1491 0.9493 0.0
H4509 H 0.76019 0.13146 0.97598 0.0
H4510 H 0.7836 0.17882 0.94209 0.0
H4511 H 0.72228 0.16621 0.95359 0.0
H4512 H 0.69713 0.16358 0.9728 0.0
H4513 H 0.71062 0.21982 0.9915 0.0
H4514 H 0.73604 0.22276 0.97269 0.0
H4515 H 0.7526 0.22634 0.86879 0.0
H4516 H 0.76299 0.20712 0.89073 0.0
H4517 H 0.76262 0.24755 0.93677 0.0
H4518 H 0.75187 0.26686 0.91475 0.0
H4519 H 0.73854 0.2182 0.93737 0.0
H4520 H 0.80072 0.23122 0.92889 0.0
H4521 H 0.82762 0.23455 0.91225 0.0
H4522 H 0.81422 0.17914 0.8899 0.0
H4523 H 0.78708 0.17553 0.90616 0.0
C4524 C 0.76468 0.17306 1.0001 0.0
C4525 C 0.76362 0.15448 0.99696 0.0
C4526 C 0.76316 0.18288 0.98517 0.0
C4527 C 0.76041 0.17427 0.96688 0.0
C4528 C 0.75949 0.15575 0.9635 0.0
C4529 C 0.761 0.14579 0.97861 0.0
C4530 C 0.75935 0.18524 0.95155 0.0
C4531 C 0.77355 0.18719 0.94057 0.0
C4532 C 0.7465 0.1964 0.95041 0.0
C4533 C 0.73113 0.19467 0.96174 0.0
C4534 C 0.71997 0.17799 0.9619 0.0
C4535 C 0.70565 0.17646 0.97271 0.0
C4536 C 0.70228 0.19152 0.98337 0.0
C4537 C 0.71323 0.20816 0.98323 0.0
C4538 C 0.72758 0.20977 0.97247 0.0
C4539 C 0.75535 0.2314 0.88354 0.0
C4540 C 0.75109 0.24784 0.89028 0.0
C4541 C 0.76147 0.22047 0.896 0.0
C4542 C 0.76343 0.22596 0.91527 0.0
C4543 C 0.76109 0.24319 0.92186 0.0
C4544 C 0.75477 0.25407 0.90939 0.0
C4545 C 0.76325 0.2124 0.92826 0.0
C4546 C 0.7486 0.20982 0.93865 0.0
C4547 C 0.77579 0.20083 0.92894 0.0
C4548 C 0.79173 0.20317 0.91856 0.0
C4549 C 0.80335 0.21981 0.9202 0.0
C4550 C 0.81869 0.22173 0.9109 0.0
C4551 C 0.82259 0.20708 0.89998 0.0
C4552 C 0.81116 0.19049 0.89832 0.0
C4553 C 0.7958 0.1885 0.90759 0.0
H4554 H 0.83451 0.20858 0.89284 0.0
H4555 H 0.69118 0.1903 0.99172 0.0
H4556 H 0.1292 0.54246 0.21775 0.0
H4557 H 0.10829 0.53634 0.18945 0.0
H4558 H 0.14961 0.52158 0.15757 0.0
H4559 H 0.17098 0.52792 0.18612 0.0
H4560 H 0.1319 0.54812 0.14446 0.0
H4561 H 0.11679 0.48957 0.16431 0.0
H4562 H 0.10967 0.46945 0.18841 0.0
H4563 H 0.0622 0.49092 0.19619 0.0
H4564 H 0.06917 0.51137 0.17236 0.0
H4565 H 0.06391 0.50583 0.0675 0.0
H4566 H 0.08676 0.50878 0.09404 0.0
H4567 H 0.06273 0.54875 0.12333 0.0
H4568 H 0.04039 0.54693 0.09609 0.0
H4569 H 0.07266 0.50777 0.13635 0.0
H4570 H 0.09057 0.57039 0.1279 0.0
H4571 H 0.10077 0.59788 0.11368 0.0
H4572 H 0.14246 0.57438 0.09109 0.0
H4573 H 0.13224 0.54658 0.10495 0.0
C4574 C 0.13384 0.53775 0.20477 0.0
C4575 C 0.15162 0.53565 0.20395 0.0
C4576 C 0.12185 0.5341 0.18873 0.0
C4577 C 0.12748 0.52815 0.17176 0.0
C4578 C 0.14518 0.52591 0.1708 0.0
C4579 C 0.15728 0.52961 0.18695 0.0
C4580 C 0.11516 0.52638 0.15482 0.0
C4581 C 0.11913 0.53896 0.14229 0.0
C4582 C 0.09828 0.51503 0.15296 0.0
C4583 C 0.09352 0.50201 0.16653 0.0
C4584 C 0.10483 0.49 0.17116 0.0
C4585 C 0.10083 0.47855 0.18479 0.0
C4586 C 0.08549 0.4789 0.19382 0.0
C4587 C 0.07406 0.49063 0.18916 0.0
C4588 C 0.078 0.50212 0.17555 0.0
C4589 C 0.06374 0.5156 0.07936 0.0
C4590 C 0.05074 0.52648 0.07969 0.0
C4591 C 0.07673 0.51721 0.09443 0.0
C4592 C 0.07651 0.52934 0.1101 0.0
C4593 C 0.06322 0.53978 0.1109 0.0
C4594 C 0.05043 0.53853 0.09555 0.0
C4595 C 0.08943 0.52966 0.12617 0.0
C4596 C 0.08558 0.51666 0.13834 0.0
C4597 C 0.10623 0.54105 0.12815 0.0
C4598 C 0.11036 0.55626 0.11706 0.0
C4599 C 0.10153 0.57086 0.11939 0.0
C4600 C 0.10751 0.58662 0.11167 0.0
C4601 C 0.12241 0.58797 0.1017 0.0
C4602 C 0.13102 0.57337 0.09895 0.0
C4603 C 0.12507 0.55758 0.10664 0.0
H4604 H 0.12709 0.60022 0.09583 0.0
H4605 H 0.08246 0.47009 0.20444 0.0
H4606 H 0.79966 0.88837 0.46877 0.0
H4607 H 0.79889 0.87282 0.43741 0.0
H4608 H 0.7841 0.82211 0.45881 0.0
H4609 H 0.78571 0.83768 0.49045 0.0
H4610 H 0.80723 0.81868 0.43618 0.0
H4611 H 0.75359 0.84325 0.43061 0.0
H4612 H 0.73547 0.86697 0.43281 0.0
H4613 H 0.76597 0.8951 0.39421 0.0
H4614 H 0.78443 0.87168 0.39198 0.0
H4615 H 0.79001 0.7709 0.34357 0.0
H4616 H 0.78932 0.78362 0.37593 0.0
H4617 H 0.79886 0.83678 0.35875 0.0
H4618 H 0.79797 0.82388 0.32626 0.0
H4619 H 0.77587 0.8371 0.37996 0.0
H4620 H 0.83256 0.81565 0.39005 0.0
H4621 H 0.85261 0.79367 0.39038 0.0
H4622 H 0.81665 0.76008 0.42008 0.0
H4623 H 0.79676 0.78233 0.42064 0.0
C4624 C 0.79617 0.8739 0.46679 0.0
C4625 C 0.79271 0.86427 0.48212 0.0
C4626 C 0.79559 0.86499 0.44876 0.0
C4627 C 0.79106 0.84621 0.44547 0.0
C4628 C 0.78758 0.83657 0.46083 0.0
C4629 C 0.78847 0.84549 0.47895 0.0
C4630 C 0.7906 0.83663 0.42621 0.0
C4631 C 0.80014 0.82258 0.42393 0.0
C4632 C 0.78166 0.84176 0.41002 0.0
C4633 C 0.77047 0.85577 0.41125 0.0
C4634 C 0.75649 0.85455 0.42268 0.0
C4635 C 0.74615 0.86793 0.42392 0.0
C4636 C 0.74959 0.88255 0.41369 0.0
C4637 C 0.76333 0.88378 0.40215 0.0
C4638 C 0.77372 0.87045 0.40087 0.0
C4639 C 0.79217 0.7853 0.34683 0.0
C4640 C 0.79401 0.79641 0.33242 0.0
C4641 C 0.79193 0.79265 0.36543 0.0
C4642 C 0.79427 0.81133 0.37017 0.0
C4643 C 0.79684 0.82236 0.35571 0.0
C4644 C 0.79646 0.815 0.33709 0.0
C4645 C 0.79309 0.81951 0.38977 0.0
C4646 C 0.78303 0.8332 0.39217 0.0
C4647 C 0.80159 0.81409 0.40607 0.0
C4648 C 0.8131 0.80046 0.40512 0.0
C4649 C 0.82888 0.80349 0.39649 0.0
C4650 C 0.84023 0.791 0.39656 0.0
C4651 C 0.83576 0.77528 0.40489 0.0
C4652 C 0.82004 0.77218 0.41349 0.0
C4653 C 0.8088 0.78479 0.41376 0.0
H4654 H 0.84455 0.7656 0.40484 0.0
H4655 H 0.74157 0.8929 0.41468 0.0
H4656 H 0.43704 0.54008 0.82797 0.0
H4657 H 0.45296 0.54095 0.85934 0.0
H4658 H 0.48063 0.49984 0.83855 0.0
H4659 H 0.46499 0.49914 0.80707 0.0
H4660 H 0.46617 0.49342 0.87235 0.0
H4661 H 0.50261 0.54022 0.84657 0.0
H4662 H 0.50964 0.5678 0.83146 0.0
H4663 H 0.49213 0.59785 0.87729 0.0
H4664 H 0.48462 0.57036 0.8925 0.0
H4665 H 0.53256 0.50385 0.95266 0.0
H4666 H 0.51878 0.50264 0.9204 0.0
H4667 H 0.48758 0.54168 0.93835 0.0
H4668 H 0.50039 0.54212 0.97074 0.0
H4669 H 0.50485 0.54862 0.90553 0.0
H4670 H 0.46758 0.50192 0.93084 0.0
H4671 H 0.46064 0.47454 0.94625 0.0
H4672 H 0.47964 0.44443 0.90153 0.0
H4673 H 0.48711 0.47176 0.88604 0.0
C4674 C 0.44656 0.53127 0.83008 0.0
C4675 C 0.44982 0.51958 0.81506 0.0
C4676 C 0.45567 0.53181 0.84799 0.0
C4677 C 0.46804 0.52051 0.85127 0.0
C4678 C 0.47117 0.50869 0.83633 0.0
C4679 C 0.46228 0.50835 0.81835 0.0
C4680 C 0.47757 0.52091 0.87033 0.0
C4681 C 0.47485 0.50541 0.87949 0.0
C4682 C 0.48859 0.53666 0.87981 0.0
C4683 C 0.49282 0.55317 0.87055 0.0
C4684 C 0.50002 0.55266 0.85331 0.0
C4685 C 0.50414 0.56829 0.84475 0.0
C4686 C 0.50127 0.58455 0.85337 0.0
C4687 C 0.49429 0.58523 0.87059 0.0
C4688 C 0.49009 0.56962 0.87919 0.0
C4689 C 0.52245 0.51181 0.94989 0.0
C4690 C 0.51711 0.52249 0.96452 0.0
C4691 C 0.51474 0.51128 0.93136 0.0
C4692 C 0.50201 0.52193 0.92702 0.0
C4693 C 0.49728 0.53325 0.94142 0.0
C4694 C 0.5046 0.53341 0.95997 0.0
C4695 C 0.4934 0.52118 0.90753 0.0
C4696 C 0.49625 0.53661 0.89832 0.0
C4697 C 0.48248 0.50539 0.89804 0.0
C4698 C 0.47816 0.48896 0.90741 0.0
C4699 C 0.47051 0.48952 0.9244 0.0
C4700 C 0.46642 0.474 0.93313 0.0
C4701 C 0.4697 0.45776 0.92488 0.0
C4702 C 0.47711 0.45702 0.90791 0.0
C4703 C 0.4813 0.47254 0.89916 0.0
H4704 H 0.46651 0.44574 0.93166 0.0
H4705 H 0.50451 0.59665 0.84675 0.0
H4706 H 0.78478 0.18379 0.0801 0.0
H4707 H 0.79083 0.20419 0.10857 0.0
H4708 H 0.77964 0.15997 0.1414 0.0
H4709 H 0.77313 0.13904 0.11244 0.0
H4710 H 0.76048 0.18704 0.14792 0.0
H4711 H 0.82129 0.18181 0.1451 0.0
H4712 H 0.84811 0.18003 0.12909 0.0
H4713 H 0.8496 0.23355 0.1149 0.0
H4714 H 0.8226 0.23556 0.13056 0.0
H4715 H 0.80577 0.24709 0.22985 0.0
H4716 H 0.80474 0.22581 0.20259 0.0
H4717 H 0.77343 0.25615 0.16973 0.0
H4718 H 0.77135 0.27571 0.19793 0.0
H4719 H 0.81449 0.23452 0.16474 0.0
H4720 H 0.74895 0.23524 0.16012 0.0
H4721 H 0.72082 0.23555 0.17359 0.0
H4722 H 0.72616 0.18741 0.19818 0.0
H4723 H 0.75554 0.18804 0.18641 0.0
C4724 C 0.78378 0.17829 0.09335 0.0
C4725 C 0.77847 0.15991 0.09424 0.0
C4726 C 0.78745 0.18995 0.10956 0.0
C4727 C 0.78607 0.18338 0.12686 0.0
C4728 C 0.78102 0.16502 0.12797 0.0
C4729 C 0.77728 0.15321 0.11159 0.0
C4730 C 0.78784 0.19626 0.14333 0.0
C4731 C 0.7724 0.19722 0.15195 0.0
C4732 C 0.80326 0.20969 0.14784 0.0
C4733 C 0.8199 0.20882 0.139 0.0
C4734 C 0.82731 0.19319 0.13853 0.0
C4735 C 0.84254 0.19214 0.1295 0.0
C4736 C 0.85056 0.20667 0.12098 0.0
C4737 C 0.84339 0.22232 0.12154 0.0
C4738 C 0.82815 0.22343 0.13053 0.0
C4739 C 0.79796 0.24887 0.21713 0.0
C4740 C 0.78791 0.26256 0.21625 0.0
C4741 C 0.79772 0.23691 0.20149 0.0
C4742 C 0.78823 0.23908 0.18464 0.0
C4743 C 0.77982 0.25379 0.18308 0.0
C4744 C 0.77906 0.26516 0.19904 0.0
C4745 C 0.78702 0.22542 0.16902 0.0
C4746 C 0.80264 0.22425 0.16074 0.0
C4747 C 0.77174 0.2118 0.16475 0.0
C4748 C 0.75488 0.21225 0.17317 0.0
C4749 C 0.74463 0.22527 0.1692 0.0
C4750 C 0.72831 0.22515 0.17639 0.0
C4751 C 0.72158 0.21145 0.18674 0.0
C4752 C 0.7314 0.19805 0.19021 0.0
C4753 C 0.74807 0.19851 0.18361 0.0
H4754 H 0.70885 0.21124 0.19219 0.0
H4755 H 0.86233 0.20581 0.11395 0.0
H4756 H 0.13433 0.5286 0.28389 0.0
H4757 H 0.11614 0.52999 0.30965 0.0
H4758 H 0.15891 0.56783 0.34282 0.0
H4759 H 0.17752 0.56626 0.31699 0.0
H4760 H 0.14292 0.54081 0.36223 0.0
H4761 H 0.12516 0.58336 0.32274 0.0
H4762 H 0.11504 0.59409 0.29306 0.0
H4763 H 0.06729 0.55397 0.28648 0.0
H4764 H 0.07722 0.54287 0.31601 0.0
H4765 H 0.09251 0.58008 0.42585 0.0
H4766 H 0.1123 0.56958 0.40441 0.0
H4767 H 0.06656 0.53682 0.37016 0.0
H4768 H 0.04666 0.54813 0.39128 0.0
H4769 H 0.08412 0.55947 0.35114 0.0
H4770 H 0.10107 0.51869 0.3929 0.0
H4771 H 0.11176 0.50833 0.42255 0.0
H4772 H 0.16141 0.54531 0.42537 0.0
H4773 H 0.15085 0.55629 0.39605 0.0
C4774 C 0.1399 0.53717 0.29669 0.0
C4775 C 0.15722 0.54739 0.29858 0.0
C4776 C 0.1295 0.53796 0.3113 0.0
C4777 C 0.13621 0.54918 0.32783 0.0
C4778 C 0.15365 0.55914 0.33001 0.0
C4779 C 0.16419 0.55824 0.31536 0.0
C4780 C 0.12475 0.55048 0.34273 0.0
C4781 C 0.13013 0.54509 0.36005 0.0
C4782 C 0.10796 0.55557 0.33934 0.0
C4783 C 0.10202 0.56218 0.3215 0.0
C4784 C 0.11258 0.57673 0.31488 0.0
C4785 C 0.10686 0.5829 0.2981 0.0
C4786 C 0.09055 0.57469 0.28787 0.0
C4787 C 0.07992 0.56031 0.29441 0.0
C4788 C 0.08558 0.55408 0.31118 0.0
C4789 C 0.08682 0.57047 0.41382 0.0
C4790 C 0.06827 0.56518 0.40965 0.0
C4791 C 0.09808 0.56423 0.40182 0.0
C4792 C 0.09084 0.55236 0.38582 0.0
C4793 C 0.07231 0.54601 0.38249 0.0
C4794 C 0.06101 0.55255 0.39431 0.0
C4795 C 0.10209 0.54961 0.37088 0.0
C4796 C 0.09676 0.55491 0.35345 0.0
C4797 C 0.11895 0.54455 0.37429 0.0
C4798 C 0.12509 0.53839 0.3923 0.0
C4799 C 0.11416 0.5248 0.39997 0.0
C4800 C 0.12021 0.51882 0.41673 0.0
C4801 C 0.13721 0.52624 0.4259 0.0
C4802 C 0.14819 0.53968 0.41834 0.0
C4803 C 0.14218 0.54578 0.40164 0.0
H4804 H 0.1419 0.52154 0.43883 0.0
H4805 H 0.08615 0.57949 0.2749 0.0
H4806 H 0.76005 0.85548 0.5757 0.0
H4807 H 0.75434 0.84126 0.60422 0.0
H4808 H 0.80973 0.85881 0.62629 0.0
H4809 H 0.81544 0.87348 0.59805 0.0
H4810 H 0.79337 0.81947 0.62376 0.0
H4811 H 0.78301 0.87889 0.6464 0.0
H4812 H 0.76726 0.90441 0.64503 0.0
H4813 H 0.71711 0.86944 0.64685 0.0
H4814 H 0.73255 0.84369 0.64803 0.0
H4815 H 0.79864 0.78972 0.71285 0.0
H4816 H 0.80069 0.80539 0.68505 0.0
H4817 H 0.74549 0.81145 0.68542 0.0
H4818 H 0.74436 0.79767 0.71478 0.0
H4819 H 0.75901 0.83837 0.67457 0.0
H4820 H 0.7653 0.77967 0.65297 0.0
H4821 H 0.7763 0.75122 0.6488 0.0
H4822 H 0.82729 0.77958 0.63791 0.0
H4823 H 0.81702 0.80812 0.64318 0.0
C4824 C 0.77101 0.85638 0.58667 0.0
C4825 C 0.78826 0.86549 0.58454 0.0
C4826 C 0.76767 0.84837 0.60302 0.0
C4827 C 0.78157 0.84908 0.61746 0.0
C4828 C 0.79878 0.85821 0.61539 0.0
C4829 C 0.80204 0.86652 0.59921 0.0
C4830 C 0.77862 0.83903 0.63397 0.0
C4831 C 0.7861 0.82368 0.6351 0.0
C4832 C 0.76812 0.8439 0.64803 0.0
C4833 C 0.75891 0.85936 0.6471 0.0
C4834 C 0.76861 0.87662 0.6463 0.0
C4835 C 0.75974 0.89113 0.64562 0.0
C4836 C 0.74119 0.88854 0.6458 0.0
C4837 C 0.73147 0.87143 0.64669 0.0
C4838 C 0.74027 0.85689 0.64739 0.0
C4839 C 0.78695 0.79443 0.70694 0.0
C4840 C 0.77137 0.79259 0.71599 0.0
C4841 C 0.78802 0.80322 0.69081 0.0
C4842 C 0.77311 0.80934 0.68244 0.0
C4843 C 0.75732 0.80706 0.69138 0.0
C4844 C 0.75658 0.79907 0.70814 0.0
C4845 C 0.77425 0.81866 0.66494 0.0
C4846 C 0.76632 0.83389 0.66343 0.0
C4847 C 0.78372 0.81318 0.65 0.0
C4848 C 0.79041 0.79607 0.64862 0.0
C4849 C 0.77899 0.77985 0.65014 0.0
C4850 C 0.78512 0.76368 0.64763 0.0
C4851 C 0.80252 0.76354 0.64323 0.0
C4852 C 0.8139 0.77961 0.64158 0.0
C4853 C 0.80797 0.7958 0.64445 0.0
H4854 H 0.80711 0.75097 0.64097 0.0
H4855 H 0.73436 0.8998 0.6453 0.0
H4856 H 0.76065 0.46673 0.48926 0.0
H4857 H 0.73767 0.48368 0.49756 0.0
H4858 H 0.70979 0.43789 0.52038 0.0
H4859 H 0.73247 0.42075 0.51178 0.0
H4860 H 0.68833 0.45274 0.49783 0.0
H4861 H 0.73434 0.47165 0.54937 0.0
H4862 H 0.76459 0.48413 0.56527 0.0
H4863 H 0.76303 0.53373 0.54231 0.0
H4864 H 0.73284 0.52146 0.52607 0.0
H4865 H 0.63859 0.49112 0.56351 0.0
H4866 H 0.65637 0.47504 0.54371 0.0
H4867 H 0.6767 0.5241 0.52136 0.0
H4868 H 0.65885 0.54014 0.54118 0.0
H4869 H 0.70222 0.50949 0.54039 0.0
H4870 H 0.65465 0.48905 0.48954 0.0
H4871 H 0.62591 0.474 0.47172 0.0
H4872 H 0.63072 0.42536 0.49545 0.0
H4873 H 0.65942 0.44013 0.51344 0.0
C4874 C 0.74943 0.46025 0.49575 0.0
C4875 C 0.74808 0.44251 0.49982 0.0
C4876 C 0.73655 0.46996 0.50067 0.0
C4877 C 0.72243 0.46199 0.50979 0.0
C4878 C 0.72077 0.44412 0.51336 0.0
C4879 C 0.73354 0.43435 0.50829 0.0
C4880 C 0.70884 0.47202 0.51495 0.0
C4881 C 0.69124 0.46507 0.50731 0.0
C4882 C 0.71307 0.48827 0.52684 0.0
C4883 C 0.73141 0.49554 0.53628 0.0
C4884 C 0.74053 0.48514 0.54751 0.0
C4885 C 0.75764 0.4922 0.55665 0.0
C4886 C 0.76575 0.50969 0.55474 0.0
C4887 C 0.75675 0.52017 0.54373 0.0
C4888 C 0.73964 0.51317 0.53457 0.0
C4889 C 0.6468 0.4983 0.55421 0.0
C4890 C 0.6481 0.51677 0.55409 0.0
C4891 C 0.65656 0.48913 0.54269 0.0
C4892 C 0.66764 0.49848 0.53109 0.0
C4893 C 0.66804 0.51677 0.53017 0.0
C4894 C 0.65817 0.5259 0.5416 0.0
C4895 C 0.6815 0.4901 0.5234 0.0
C4896 C 0.69927 0.49732 0.53069 0.0
C4897 C 0.6774 0.47382 0.51157 0.0
C4898 C 0.65908 0.46574 0.50291 0.0
C4899 C 0.64939 0.47525 0.49122 0.0
C4900 C 0.63321 0.46671 0.48094 0.0
C4901 C 0.62661 0.44868 0.48228 0.0
C4902 C 0.63594 0.43927 0.49427 0.0
C4903 C 0.65212 0.44772 0.50453 0.0
H4904 H 0.61415 0.44207 0.4742 0.0
H4905 H 0.77899 0.51514 0.56185 0.0
H4906 H 0.21661 0.13732 0.47869 0.0
H4907 H 0.18758 0.11719 0.47766 0.0
H4908 H 0.1862 0.13339 0.53637 0.0
H4909 H 0.21481 0.15414 0.53721 0.0
H4910 H 0.18086 0.0934 0.52248 0.0
H4911 H 0.16073 0.1487 0.51118 0.0
H4912 H 0.15859 0.17483 0.4941 0.0
H4913 H 0.13663 0.14003 0.44387 0.0
H4914 H 0.13906 0.11368 0.46055 0.0
H4915 H 0.09565 0.0499 0.53835 0.0
H4916 H 0.12379 0.06998 0.53701 0.0
H4917 H 0.10866 0.07309 0.47824 0.0
H4918 H 0.07941 0.05467 0.48039 0.0
H4919 H 0.1234 0.10301 0.49065 0.0
H4920 H 0.14291 0.04783 0.49909 0.0
H4921 H 0.1452 0.02041 0.51392 0.0
H4922 H 0.16909 0.05211 0.56546 0.0
H4923 H 0.16671 0.07971 0.55102 0.0
C4924 C 0.20994 0.13673 0.49127 0.0
C4925 C 0.21778 0.14735 0.50799 0.0
C4926 C 0.19342 0.12525 0.49068 0.0
C4927 C 0.18478 0.12383 0.50694 0.0
C4928 C 0.19265 0.13438 0.52366 0.0
C4929 C 0.20888 0.14628 0.52411 0.0
C4930 C 0.16783 0.11091 0.50667 0.0
C4931 C 0.16822 0.09549 0.51566 0.0
C4932 C 0.15156 0.11336 0.49712 0.0
C4933 C 0.15035 0.12922 0.48705 0.0
C4934 C 0.15572 0.14662 0.49643 0.0
C4935 C 0.15439 0.16147 0.48682 0.0
C4936 C 0.14755 0.1591 0.46789 0.0
C4937 C 0.142 0.14186 0.45852 0.0
C4938 C 0.14336 0.12696 0.46804 0.0
C4939 C 0.09845 0.05473 0.52509 0.0
C4940 C 0.08544 0.05073 0.50943 0.0
C4941 C 0.11468 0.06613 0.52426 0.0
C4942 C 0.11884 0.0728 0.50736 0.0
C4943 C 0.10594 0.06824 0.4915 0.0
C4944 C 0.08928 0.05759 0.49263 0.0
C4945 C 0.13618 0.08517 0.50651 0.0
C4946 C 0.13596 0.10058 0.49731 0.0
C4947 C 0.15275 0.08242 0.5154 0.0
C4948 C 0.15455 0.06583 0.52399 0.0
C4949 C 0.14861 0.04895 0.5136 0.0
C4950 C 0.14991 0.03337 0.52194 0.0
C4951 C 0.15728 0.03452 0.54062 0.0
C4952 C 0.1634 0.05124 0.55099 0.0
C4953 C 0.1621 0.06686 0.54272 0.0
H4954 H 0.15826 0.02244 0.54706 0.0
H4955 H 0.14648 0.17061 0.4605 0.0
H4956 H 0.14026 0.97873 0.78495 0.0
H4957 H 0.15698 0.95414 0.7812 0.0
H4958 H 0.2046 0.99208 0.77587 0.0
H4959 H 0.18807 0.01652 0.77942 0.0
H4960 H 0.19874 0.96487 0.74843 0.0
H4961 H 0.19943 0.97179 0.81576 0.0
H4962 H 0.18596 0.97279 0.8455 0.0
H4963 H 0.15787 0.91875 0.83051 0.0
H4964 H 0.17098 0.91752 0.80054 0.0
H4965 H 0.26585 0.91509 0.75124 0.0
H4966 H 0.24802 0.93656 0.76293 0.0
H4967 H 0.20406 0.89328 0.76542 0.0
H4968 H 0.22218 0.87168 0.75411 0.0
H4969 H 0.20584 0.92108 0.79392 0.0
H4970 H 0.20551 0.9137 0.72722 0.0
H4971 H 0.21891 0.9123 0.69746 0.0
H4972 H 0.24546 0.96704 0.71078 0.0
H4973 H 0.2325 0.96866 0.74081 0.0
C4974 C 0.15431 0.98179 0.78307 0.0
C4975 C 0.16283 0.99955 0.78241 0.0
C4976 C 0.16387 0.96775 0.78103 0.0
C4977 C 0.18207 0.97128 0.77834 0.0
C4978 C 0.19058 0.98903 0.7779 0.0
C4979 C 0.18109 1.003 0.77996 0.0
C4980 C 0.19223 0.95658 0.77504 0.0
C4981 C 0.20043 0.95544 0.75849 0.0
C4982 C 0.19395 0.94387 0.78786 0.0
C4983 C 0.18602 0.94464 0.80582 0.0
C4984 C 0.19024 0.96018 0.81873 0.0
C4985 C 0.18271 0.96078 0.83564 0.0
C4986 C 0.17103 0.94586 0.83987 0.0
C4987 C 0.16689 0.93031 0.8272 0.0
C4988 C 0.17438 0.92965 0.81026 0.0
C4989 C 0.25261 0.91017 0.75493 0.0
C4990 C 0.24533 0.89184 0.75186 0.0
C4991 C 0.24239 0.9224 0.76146 0.0
C4992 C 0.22458 0.91654 0.76464 0.0
C4993 C 0.21775 0.89808 0.76299 0.0
C4994 C 0.22809 0.88578 0.75661 0.0
C4995 C 0.2127 0.92976 0.76757 0.0
C4996 C 0.20408 0.93052 0.78388 0.0
C4997 C 0.21047 0.94213 0.75449 0.0
C4998 C 0.21815 0.94125 0.73635 0.0
C4999 C 0.21431 0.9254 0.72387 0.0
C5000 C 0.22182 0.92457 0.70695 0.0
C5001 C 0.23305 0.93956 0.70225 0.0
C5002 C 0.23677 0.95543 0.71445 0.0
C5003 C 0.22935 0.95631 0.73142 0.0
H5004 H 0.23884 0.9389 0.68913 0.0
H5005 H 0.16521 0.94635 0.85298 0.0
H5006 H 0.35323 0.92369 0.99417 0.0
H5007 H 0.38356 0.94111 0.99627 0.0
H5008 H 0.36444 0.98872 0.01614 0.0
H5009 H 0.33415 0.9716 0.01363 0.0
H5010 H 0.38651 0.99369 0.98859 0.0
H5011 H 0.3847 0.96605 0.04721 0.0
H5012 H 0.3801 0.94022 0.06545 0.0
H5013 H 0.41977 0.9176 0.03786 0.0
H5014 H 0.42448 0.94322 0.01935 0.0
H5015 H 0.46964 0.04837 0.01757 0.0
H5016 H 0.43982 0.03193 0.02132 0.0
H5017 H 0.45643 0.98215 0.00403 0.0
H5018 H 0.48598 0.99846 1.00049 0.0
H5019 H 0.43543 0.97898 0.03141 0.0
H5020 H 0.4369 1.00256 0.9718 0.0
H5021 H 0.44197 0.02579 0.95039 0.0
H5022 H 0.40402 0.05315 0.97549 0.0
H5023 H 0.39884 0.03013 0.99717 0.0
C5024 C 0.3556 0.93786 0.99897 0.0
C5025 C 0.34163 0.94642 0.00385 0.0
C5026 C 0.37277 0.94771 1.00016 0.0
C5027 C 0.37594 0.96598 0.00657 0.0
C5028 C 0.36198 0.97456 0.0112 0.0
C5029 C 0.34482 0.96481 0.00979 0.0
C5030 C 0.39392 0.97628 0.00866 0.0
C5031 C 0.39721 0.99071 0.99813 0.0
C5032 C 0.4077 0.9718 0.02069 0.0
C5033 C 0.40484 0.95646 0.03184 0.0
C5034 C 0.39235 0.9555 0.04497 0.0
C5035 C 0.38975 0.94092 0.05536 0.0
C5036 C 0.39961 0.92726 0.05279 0.0
C5037 C 0.41213 0.92818 0.03984 0.0
C5038 C 0.4148 0.94273 0.02942 0.0
C5039 C 0.46687 0.03387 0.01522 0.0
C5040 C 0.4797 0.02439 0.00913 0.0
C5041 C 0.45006 0.02461 0.01726 0.0
C5042 C 0.44621 0.00602 0.01275 0.0
C5043 C 0.45944 0.99653 0.00768 0.0
C5044 C 0.47622 0.00577 0.00577 0.0
C5045 C 0.42802 0.99646 0.01147 0.0
C5046 C 0.42468 0.98213 0.02207 0.0
C5047 C 0.41433 1.00073 0.99908 0.0
C5048 C 0.41767 0.01476 0.98627 0.0
C5049 C 0.42978 0.01363 0.97289 0.0
C5050 C 0.43264 0.02674 0.96067 0.0
C5051 C 0.42339 0.04099 0.96163 0.0
C5052 C 0.41122 0.04213 0.97479 0.0
C5053 C 0.4083 0.02906 0.98703 0.0
H5054 H 0.42561 0.05111 0.95215 0.0
H5055 H 0.39757 0.91599 0.06085 0.0
H5056 H 0.86655 0.55924 0.76372 0.0
H5057 H 0.85271 0.58524 0.75895 0.0
H5058 H 0.85489 0.59788 0.81894 0.0
H5059 H 0.86925 0.5719 0.82372 0.0
H5060 H 0.82075 0.59519 0.79663 0.0
H5061 H 0.88181 0.62411 0.79926 0.0
H5062 H 0.91253 0.62494 0.79115 0.0
H5063 H 0.89414 0.625 0.733 0.0
H5064 H 0.86323 0.62378 0.74068 0.0
H5065 H 0.78003 0.66679 0.77223 0.0
H5066 H 0.80165 0.65128 0.78777 0.0
H5067 H 0.81692 0.63359 0.73395 0.0
H5068 H 0.7957 0.64969 0.71837 0.0
H5069 H 0.84568 0.64364 0.76006 0.0
H5070 H 0.78698 0.60791 0.75389 0.0
H5071 H 0.75493 0.60048 0.75766 0.0
H5072 H 0.76751 0.60688 0.81755 0.0
H5073 H 0.79966 0.61489 0.81414 0.0
C5074 C 0.864 0.56762 0.7758 0.0
C5075 C 0.86864 0.56389 0.794 0.0
C5076 C 0.85635 0.58244 0.77312 0.0
C5077 C 0.85319 0.59343 0.78866 0.0
C5078 C 0.8576 0.58955 0.80692 0.0
C5079 C 0.86563 0.57486 0.80961 0.0
C5080 C 0.84404 0.6082 0.7854 0.0
C5081 C 0.82629 0.60623 0.78924 0.0
C5082 C 0.85139 0.62193 0.77513 0.0
C5083 C 0.87016 0.6239 0.77058 0.0
C5084 C 0.88431 0.62432 0.78474 0.0
C5085 C 0.90176 0.62481 0.78021 0.0
C5086 C 0.90529 0.62504 0.76157 0.0
C5087 C 0.89139 0.62487 0.74744 0.0
C5088 C 0.8739 0.62432 0.75188 0.0
C5089 C 0.78798 0.65951 0.76376 0.0
C5090 C 0.78604 0.659 0.74414 0.0
C5091 C 0.80035 0.65084 0.77262 0.0
C5092 C 0.81069 0.64131 0.76192 0.0
C5093 C 0.80898 0.64096 0.74235 0.0
C5094 C 0.79666 0.64976 0.73346 0.0
C5095 C 0.82219 0.63044 0.771 0.0
C5096 C 0.84032 0.63312 0.76816 0.0
C5097 C 0.81506 0.6169 0.78171 0.0
C5098 C 0.7957 0.61238 0.78377 0.0
C5099 C 0.78291 0.60803 0.76787 0.0
C5100 C 0.76472 0.60367 0.76994 0.0
C5101 C 0.75918 0.60331 0.78784 0.0
C5102 C 0.77182 0.60728 0.8037 0.0
C5103 C 0.79002 0.61179 0.80171 0.0
H5104 H 0.74509 0.59986 0.78941 0.0
H5105 H 0.9188 0.62534 0.75809 0.0
H5106 H 0.7968 0.62554 0.02245 0.0
H5107 H 0.82152 0.6093 0.02576 0.0
H5108 H 0.85839 0.65615 0.01596 0.0
H5109 H 0.83354 0.67259 0.01254 0.0
H5110 H 0.86459 0.6245 0.99673 0.0
H5111 H 0.8575 0.64684 0.05923 0.0
H5112 H 0.84134 0.65273 0.0865 0.0
H5113 H 0.82484 0.59626 0.08796 0.0
H5114 H 0.8407 0.59003 0.06053 0.0
H5115 H 0.94074 0.58915 0.03668 0.0
H5116 H 0.91867 0.60667 0.02525 0.0
H5117 H 0.87604 0.56606 0.03775 0.0
H5118 H 0.89804 0.54902 0.04976 0.0
H5119 H 0.87502 0.59761 0.05582 0.0
H5120 H 0.88165 0.57536 0.99239 0.0
H5121 H 0.89824 0.56985 0.96536 0.0
H5122 H 0.91638 0.62637 0.96604 0.0
H5123 H 0.90008 0.6322 0.99325 0.0
C5124 C 0.81015 0.63241 0.02095 0.0
C5125 C 0.81327 0.65037 0.01736 0.0
C5126 C 0.82426 0.62312 0.02287 0.0
C5127 C 0.84179 0.63159 0.02128 0.0
C5128 C 0.84494 0.64941 0.01726 0.0
C5129 C 0.83078 0.65878 0.01541 0.0
C5130 C 0.85674 0.62182 0.02438 0.0
C5131 C 0.8671 0.61881 0.00973 0.0
C5132 C 0.85983 0.61429 0.04128 0.0
C5133 C 0.85017 0.61798 0.05771 0.0
C5134 C 0.85029 0.63568 0.06526 0.0
C5135 C 0.84122 0.63908 0.08077 0.0
C5136 C 0.83204 0.62488 0.08893 0.0
C5137 C 0.83194 0.60724 0.08161 0.0
C5138 C 0.84099 0.60378 0.06609 0.0
C5139 C 0.92662 0.5838 0.03642 0.0
C5140 C 0.92099 0.56793 0.04427 0.0
C5141 C 0.91403 0.59377 0.02988 0.0
C5142 C 0.8957 0.58774 0.03083 0.0
C5143 C 0.8901 0.57103 0.03705 0.0
C5144 C 0.90264 0.56126 0.0438 0.0
C5145 C 0.88253 0.59965 0.02792 0.0
C5146 C 0.87259 0.60326 0.04277 0.0
C5147 C 0.87994 0.60771 0.01125 0.0
C5148 C 0.88981 0.6042 0.99498 0.0
C5149 C 0.88932 0.5866 0.98689 0.0
C5150 C 0.89863 0.58342 0.97151 0.0
C5151 C 0.90839 0.59775 0.96402 0.0
C5152 C 0.90883 0.61529 0.97188 0.0
C5153 C 0.89955 0.61854 0.98726 0.0
H5154 H 0.91556 0.59526 0.95208 0.0
H5155 H 0.82503 0.62753 0.10095 0.0
H5156 H 0.15425 0.10196 0.76631 0.0
H5157 H 0.17511 0.13051 0.76736 0.0
H5158 H 0.20351 0.11985 0.81842 0.0
H5159 H 0.18311 0.09103 0.8171 0.0
H5160 H 0.19427 0.15735 0.81629 0.0
H5161 H 0.22297 0.11231 0.78528 0.0
H5162 H 0.22361 0.08733 0.76116 0.0
H5163 H 0.21263 0.12002 0.71777 0.0
H5164 H 0.21167 0.14511 0.74167 0.0
H5165 H 0.26587 0.23047 0.81817 0.0
H5166 H 0.24829 0.20108 0.82115 0.0
H5167 H 0.23753 0.19098 0.76068 0.0
H5168 H 0.25756 0.21888 0.75799 0.0
H5169 H 0.238 0.16254 0.76965 0.0
H5170 H 0.20712 0.20721 0.79811 0.0
H5171 H 0.20421 0.23256 0.82085 0.0
H5172 H 0.21557 0.20247 0.86646 0.0
H5173 H 0.21871 0.17704 0.84401 0.0
C5174 C 0.16483 0.10582 0.77786 0.0
C5175 C 0.16708 0.09433 0.79163 0.0
C5176 C 0.17673 0.12207 0.77842 0.0
C5177 C 0.19081 0.12725 0.79298 0.0
C5178 C 0.1927 0.11609 0.80711 0.0
C5179 C 0.18108 0.09964 0.8063 0.0
C5180 C 0.20406 0.14393 0.79299 0.0
C5181 C 0.20394 0.15859 0.80619 0.0
C5182 C 0.21637 0.14554 0.77958 0.0
C5183 C 0.21705 0.1305 0.76525 0.0
C5184 C 0.22052 0.11411 0.77059 0.0
C5185 C 0.22098 0.09994 0.75697 0.0
C5186 C 0.21811 0.10207 0.73794 0.0
C5187 C 0.21482 0.11838 0.73251 0.0
C5188 C 0.21433 0.13258 0.74609 0.0
C5189 C 0.25992 0.22171 0.80561 0.0
C5190 C 0.26272 0.22692 0.78786 0.0
C5191 C 0.24954 0.20503 0.80726 0.0
C5192 C 0.24066 0.19385 0.79119 0.0
C5193 C 0.24401 0.19909 0.77344 0.0
C5194 C 0.25539 0.21514 0.77183 0.0
C5195 C 0.228 0.17676 0.79255 0.0
C5196 C 0.22828 0.16175 0.77969 0.0
C5197 C 0.21543 0.17508 0.80595 0.0
C5198 C 0.2133 0.1903 0.81939 0.0
C5199 C 0.20904 0.20603 0.81299 0.0
C5200 C 0.20736 0.22041 0.82583 0.0
C5201 C 0.20975 0.21914 0.84509 0.0
C5202 C 0.21375 0.20346 0.85155 0.0
C5203 C 0.21546 0.18905 0.83878 0.0
H5204 H 0.20848 0.23029 0.855 0.0
H5205 H 0.21847 0.09109 0.72741 0.0
H5206 H 0.34294 0.97763 0.27514 0.0
H5207 H 0.32547 0.94752 0.2741 0.0
H5208 H 0.36491 0.9348 0.31524 0.0
H5209 H 0.38271 0.9647 0.31592 0.0
H5210 H 0.35836 0.91157 0.28429 0.0
H5211 H 0.32495 0.93929 0.32723 0.0
H5212 H 0.30828 0.96225 0.33863 0.0
H5213 H 0.26834 0.94608 0.29114 0.0
H5214 H 0.28494 0.92319 0.27928 0.0
H5215 H 0.3128 0.83155 0.30923 0.0
H5216 H 0.32878 0.8616 0.30682 0.0
H5217 H 0.28793 0.86812 0.26349 0.0
H5218 H 0.27143 0.83813 0.26667 0.0
H5219 H 0.29432 0.89449 0.29333 0.0
H5220 H 0.32952 0.86368 0.25301 0.0
H5221 H 0.34732 0.84033 0.24607 0.0
H5222 H 0.38515 0.86244 0.29402 0.0
H5223 H 0.36741 0.88542 0.30159 0.0
C5224 C 0.34773 0.96841 0.28405 0.0
C5225 C 0.36414 0.97312 0.29539 0.0
C5226 C 0.33774 0.9514 0.28357 0.0
C5227 C 0.34401 0.93926 0.29468 0.0
C5228 C 0.36005 0.94419 0.30659 0.0
C5229 C 0.37016 0.9611 0.30687 0.0
C5230 C 0.33478 0.92081 0.2924 0.0
C5231 C 0.34439 0.90777 0.2864 0.0
C5232 C 0.31655 0.91622 0.29489 0.0
C5233 C 0.30628 0.92964 0.30226 0.0
C5234 C 0.31267 0.9407 0.31915 0.0
C5235 C 0.30323 0.95369 0.32571 0.0
C5236 C 0.28729 0.95566 0.31559 0.0
C5237 C 0.28071 0.94456 0.29895 0.0
C5238 C 0.29011 0.93156 0.29231 0.0
C5239 C 0.30769 0.83928 0.29878 0.0
C5240 C 0.29139 0.83293 0.2878 0.0
C5241 C 0.3167 0.85629 0.29741 0.0
C5242 C 0.30952 0.86673 0.28478 0.0
C5243 C 0.29357 0.85998 0.27314 0.0
C5244 C 0.28436 0.84301 0.27478 0.0
C5245 C 0.31795 0.88529 0.28523 0.0
C5246 C 0.30819 0.89837 0.29092 0.0
C5247 C 0.3362 0.88991 0.28292 0.0
C5248 C 0.34714 0.87631 0.27785 0.0
C5249 C 0.3416 0.86347 0.26212 0.0
C5250 C 0.35162 0.85019 0.25814 0.0
C5251 C 0.36725 0.84969 0.2697 0.0
C5252 C 0.37296 0.86258 0.28517 0.0
C5253 C 0.36296 0.87578 0.28929 0.0
H5254 H 0.37498 0.83939 0.2666 0.0
H5255 H 0.28002 0.96576 0.32066 0.0
H5256 H 0.55807 0.35875 0.62001 0.0
H5257 H 0.55695 0.38849 0.61087 0.0
H5258 H 0.54922 0.36693 0.55264 0.0
H5259 H 0.55094 0.33694 0.56188 0.0
H5260 H 0.56943 0.39862 0.55467 0.0
H5261 H 0.51394 0.38056 0.58077 0.0
H5262 H 0.49549 0.36993 0.60515 0.0
H5263 H 0.52174 0.41527 0.64376 0.0
H5264 H 0.5405 0.42604 0.61968 0.0
H5265 H 0.537 0.47489 0.52088 0.0
H5266 H 0.53912 0.44498 0.52985 0.0
H5267 H 0.55596 0.46773 0.58705 0.0
H5268 H 0.55439 0.49769 0.57807 0.0
H5269 H 0.53107 0.43585 0.58561 0.0
H5270 H 0.58596 0.45432 0.56254 0.0
H5271 H 0.60569 0.46698 0.54017 0.0
H5272 H 0.58307 0.42271 0.49861 0.0
H5273 H 0.56292 0.4099 0.52068 0.0
C5274 C 0.55613 0.36018 0.60519 0.0
C5275 C 0.55451 0.34501 0.5918 0.0
C5276 C 0.55531 0.37744 0.59989 0.0
C5277 C 0.55248 0.38049 0.58089 0.0
C5278 C 0.55125 0.36539 0.56742 0.0
C5279 C 0.55221 0.34804 0.57275 0.0
C5280 C 0.55083 0.3992 0.57526 0.0
C5281 C 0.56071 0.40646 0.56128 0.0
C5282 C 0.54011 0.41037 0.58409 0.0
C5283 C 0.5287 0.40402 0.59847 0.0
C5284 C 0.51582 0.38821 0.59449 0.0
C5285 C 0.50531 0.38216 0.60825 0.0
C5286 C 0.50747 0.3919 0.626 0.0
C5287 C 0.5201 0.40773 0.63001 0.0
C5288 C 0.53066 0.41382 0.61631 0.0
C5289 C 0.54121 0.47363 0.53539 0.0
C5290 C 0.54563 0.48909 0.54861 0.0
C5291 C 0.54245 0.45635 0.54056 0.0
C5292 C 0.54779 0.45365 0.55926 0.0
C5293 C 0.5518 0.46904 0.57255 0.0
C5294 C 0.55096 0.48636 0.56731 0.0
C5295 C 0.54938 0.435 0.56486 0.0
C5296 C 0.5396 0.42784 0.57888 0.0
C5297 C 0.56039 0.42407 0.55633 0.0
C5298 C 0.57273 0.43132 0.54314 0.0
C5299 C 0.58508 0.44735 0.54858 0.0
C5300 C 0.59635 0.45454 0.53598 0.0
C5301 C 0.59549 0.44573 0.51796 0.0
C5302 C 0.5836 0.42956 0.51257 0.0
C5303 C 0.57225 0.42232 0.52512 0.0
H5304 H 0.60399 0.45153 0.5082 0.0
H5305 H 0.49932 0.38719 0.63664 0.0
H5306 H 0.43985 0.77153 0.42816 0.0
H5307 H 0.4113 0.77442 0.41129 0.0
H5308 H 0.43371 0.76901 0.35885 0.0
H5309 H 0.46247 0.76669 0.37582 0.0
H5310 H 0.41525 0.79337 0.35685 0.0
H5311 H 0.40051 0.73471 0.37701 0.0
H5312 H 0.39724 0.71269 0.39992 0.0
H5313 H 0.36194 0.74152 0.42788 0.0
H5314 H 0.3652 0.76384 0.40528 0.0
H5315 H 0.33594 0.78507 0.29538 0.0
H5316 H 0.36283 0.78102 0.31327 0.0
H5317 H 0.33538 0.77871 0.36276 0.0
H5318 H 0.30748 0.78054 0.34388 0.0
H5319 H 0.35654 0.75934 0.36781 0.0
H5320 H 0.37163 0.81856 0.34772 0.0
H5321 H 0.37659 0.84144 0.3258 0.0
H5322 H 0.41212 0.8124 0.29852 0.0
H5323 H 0.40721 0.7893 0.32004 0.0
C5324 C 0.43871 0.77081 0.41301 0.0
C5325 C 0.45366 0.76874 0.40347 0.0
C5326 C 0.42218 0.77236 0.40326 0.0
C5327 C 0.41982 0.77165 0.38351 0.0
C5328 C 0.43481 0.76958 0.374 0.0
C5329 C 0.45138 0.76816 0.38376 0.0
C5330 C 0.40217 0.77372 0.3728 0.0
C5331 C 0.40246 0.7857 0.35914 0.0
C5332 C 0.3851 0.76437 0.37596 0.0
C5333 C 0.38325 0.75103 0.38958 0.0
C5334 C 0.39217 0.73642 0.38814 0.0
C5335 C 0.3903 0.72388 0.40105 0.0
C5336 C 0.37943 0.72573 0.41538 0.0
C5337 C 0.37038 0.74012 0.4168 0.0
C5338 C 0.37223 0.75271 0.40394 0.0
C5339 C 0.33535 0.78372 0.30997 0.0
C5340 C 0.31914 0.78371 0.31785 0.0
C5341 C 0.3512 0.78172 0.32056 0.0
C5342 C 0.35202 0.78045 0.33999 0.0
C5343 C 0.33571 0.77996 0.34796 0.0
C5344 C 0.31957 0.78125 0.33707 0.0
C5345 C 0.36953 0.77899 0.3516 0.0
C5346 C 0.36926 0.76713 0.36549 0.0
C5347 C 0.38667 0.78857 0.34875 0.0
C5348 C 0.38895 0.80216 0.3354 0.0
C5349 C 0.38036 0.81699 0.33693 0.0
C5350 C 0.38319 0.83001 0.3246 0.0
C5351 C 0.39467 0.82833 0.3108 0.0
C5352 C 0.40324 0.81365 0.30921 0.0
C5353 C 0.40044 0.80061 0.32145 0.0
H5354 H 0.39706 0.8384 0.30136 0.0
H5355 H 0.37799 0.716 0.42535 0.0
H5356 H 0.06396 0.72972 0.11602 0.0
H5357 H 0.06011 0.69753 0.1063 0.0
H5358 H 0.02858 0.70373 0.0554 0.0
H5359 H 0.03282 0.73626 0.06494 0.0
H5360 H 0.01325 0.67286 0.07281 0.0
H5361 H 0.07057 0.69655 0.05337 0.0
H5362 H 0.1013 0.71403 0.05833 0.0
H5363 H 0.11529 0.682 0.10129 0.0
H5364 H 0.08456 0.66445 0.0967 0.0
H5365 H 0.00846 0.58354 0.03025 0.0
H5366 H 0.01201 0.61584 0.03802 0.0
H5367 H 0.05876 0.61538 0.07651 0.0
H5368 H 0.05594 0.58317 0.06743 0.0
H5369 H 0.0659 0.64407 0.06547 0.0
H5370 H 0.01048 0.62078 0.08738 0.0
H5371 H 0.9798 0.60356 0.08584 0.0
H5372 H 0.96182 0.63419 0.04334 0.0
H5373 H 0.99245 0.65146 0.04445 0.0
C5374 C 0.05628 0.72436 0.10266 0.0
C5375 C 0.04889 0.73596 0.09129 0.0
C5376 C 0.05406 0.70576 0.09707 0.0
C5377 C 0.04405 0.69775 0.07996 0.0
C5378 C 0.03639 0.70925 0.06865 0.0
C5379 C 0.03894 0.72801 0.07409 0.0
C5380 C 0.0419 0.6776 0.07397 0.0
C5381 C 0.02478 0.66664 0.07095 0.0
C5382 C 0.05677 0.66891 0.07215 0.0
C5383 C 0.07526 0.6793 0.07479 0.0
C5384 C 0.08018 0.69331 0.06395 0.0
C5385 C 0.0976 0.70322 0.06668 0.0
C5386 C 0.11023 0.69915 0.08015 0.0
C5387 C 0.10548 0.68514 0.09087 0.0
C5388 C 0.08808 0.6752 0.08819 0.0
C5389 C 0.01954 0.59028 0.04038 0.0
C5390 C 0.03185 0.58043 0.04816 0.0
C5391 C 0.02147 0.60899 0.04511 0.0
C5392 C 0.03535 0.6187 0.05855 0.0
C5393 C 0.04779 0.60877 0.06619 0.0
C5394 C 0.04618 0.59011 0.06098 0.0
C5395 C 0.03713 0.63898 0.06429 0.0
C5396 C 0.05424 0.65007 0.06731 0.0
C5397 C 0.02222 0.64768 0.06664 0.0
C5398 C 1.00379 0.63733 0.06592 0.0
C5399 C 1.0 0.62378 0.07764 0.0
C5400 C 0.98263 0.61402 0.07684 0.0
C5401 C 0.96888 0.6178 0.06451 0.0
C5402 C 0.97249 0.6313 0.0529 0.0
C5403 C 0.98985 0.64109 0.05361 0.0
H5404 H 0.95543 0.61031 0.06404 0.0
H5405 H 0.12371 0.70684 0.08225 0.0
H5406 H 0.06973 0.28085 0.93183 0.0
H5407 H 0.09757 0.2804 0.9178 0.0
H5408 H 0.06738 0.26349 0.86346 0.0
H5409 H 0.03944 0.26313 0.87769 0.0
H5410 H 0.09312 0.2462 0.86552 0.0
H5411 H 0.09249 0.30935 0.88082 0.0
H5412 H 0.0916 0.33664 0.90171 0.0
H5413 H 0.13879 0.32954 0.93538 0.0
H5414 H 0.13982 0.30208 0.91484 0.0
H5415 H 0.1631 0.27297 0.8081 0.0
H5416 H 0.13655 0.26589 0.82458 0.0
H5417 H 0.16949 0.28091 0.87763 0.0
H5418 H 0.19587 0.28817 0.86101 0.0
H5419 H 0.1433 0.298 0.87775 0.0
H5420 H 0.14583 0.23685 0.86298 0.0
H5421 H 0.14757 0.20885 0.84378 0.0
H5422 H 0.09817 0.21113 0.81105 0.0
H5423 H 0.09628 0.23931 0.82986 0.0
C5424 C 0.06899 0.27711 0.91686 0.0
C5425 C 0.05222 0.27219 0.90592 0.0
C5426 C 0.08503 0.27695 0.90876 0.0
C5427 C 0.08491 0.2723 0.88933 0.0
C5428 C 0.06811 0.26723 0.87843 0.0
C5429 C 0.05204 0.26712 0.88658 0.0
C5430 C 0.1021 0.27255 0.88037 0.0
C5431 C 0.10395 0.25769 0.86801 0.0
C5432 C 0.11681 0.28712 0.88403 0.0
C5433 C 0.11611 0.30357 0.89641 0.0
C5434 C 0.10259 0.31355 0.89276 0.0
C5435 C 0.10208 0.32905 0.90453 0.0
C5436 C 0.1151 0.33479 0.91989 0.0
C5437 C 0.12869 0.32506 0.9235 0.0
C5438 C 0.12925 0.30953 0.9118 0.0
C5439 C 0.16479 0.27388 0.82327 0.0
C5440 C 0.18176 0.28066 0.83324 0.0
C5441 C 0.14951 0.27 0.83277 0.0
C5442 C 0.15076 0.27287 0.85252 0.0
C5443 C 0.16793 0.27857 0.86246 0.0
C5444 C 0.18315 0.28242 0.85296 0.0
C5445 C 0.1342 0.27179 0.86265 0.0
C5446 C 0.13248 0.2865 0.87524 0.0
C5447 C 0.11974 0.25702 0.85935 0.0
C5448 C 0.12103 0.24032 0.8477 0.0
C5449 C 0.13545 0.2315 0.85154 0.0
C5450 C 0.13643 0.21557 0.84076 0.0
C5451 C 0.12302 0.20824 0.82617 0.0
C5452 C 0.10858 0.21684 0.82233 0.0
C5453 C 0.10754 0.23279 0.83305 0.0
H5454 H 0.12378 0.19588 0.81787 0.0
H5455 H 0.11468 0.34681 0.92898 0.0
H5456 H 0.52115 0.74441 0.87295 0.0
H5457 H 0.52105 0.71664 0.88729 0.0
H5458 H 0.56289 0.74388 0.9299 0.0
H5459 H 0.56309 0.77181 0.91546 0.0
H5460 H 0.56923 0.71067 0.91811 0.0
H5461 H 0.51877 0.73364 0.93882 0.0
H5462 H 0.49053 0.74505 0.93487 0.0
H5463 H 0.46499 0.6959 0.90178 0.0
H5464 H 0.49318 0.68431 0.90529 0.0
H5465 H 0.5515 0.64586 0.98633 0.0
H5466 H 0.55822 0.67196 0.96884 0.0
H5467 H 0.52005 0.64505 0.92269 0.0
H5468 H 0.51373 0.61896 0.93986 0.0
H5469 H 0.51262 0.67801 0.93615 0.0
H5470 H 0.5614 0.6543 0.91534 0.0
H5471 H 0.58937 0.64233 0.91681 0.0
H5472 H 0.61774 0.69152 0.94774 0.0
H5473 H 0.58984 0.70369 0.94679 0.0
C5474 C 0.53032 0.74458 0.88542 0.0
C5475 C 0.54202 0.76054 0.89308 0.0
C5476 C 0.53023 0.72859 0.89368 0.0
C5477 C 0.54182 0.72796 0.90994 0.0
C5478 C 0.55375 0.74383 0.91745 0.0
C5479 C 0.55377 0.75989 0.90922 0.0
C5480 C 0.54122 0.7109 0.91917 0.0
C5481 C 0.55689 0.70372 0.92235 0.0
C5482 C 0.52508 0.70128 0.92424 0.0
C5483 C 0.50812 0.70819 0.92217 0.0
C5484 C 0.50717 0.72533 0.93058 0.0
C5485 C 0.49117 0.73182 0.92843 0.0
C5486 C 0.47599 0.72123 0.91804 0.0
C5487 C 0.47677 0.70411 0.9098 0.0
C5488 C 0.49275 0.69757 0.91187 0.0
C5489 C 0.54528 0.64514 0.97206 0.0
C5490 C 0.53232 0.63007 0.96441 0.0
C5491 C 0.54893 0.66022 0.96212 0.0
C5492 C 0.53952 0.66071 0.94441 0.0
C5493 C 0.52749 0.6452 0.9363 0.0
C5494 C 0.52406 0.63011 0.94606 0.0
C5495 C 0.54064 0.6778 0.93522 0.0
C5496 C 0.52501 0.68499 0.93204 0.0
C5497 C 0.55677 0.68728 0.93003 0.0
C5498 C 0.57344 0.6798 0.93128 0.0
C5499 C 0.57353 0.66247 0.92275 0.0
C5500 C 0.58939 0.65567 0.92341 0.0
C5501 C 0.60531 0.66613 0.93244 0.0
C5502 C 0.60538 0.68341 0.94082 0.0
C5503 C 0.58954 0.69026 0.94024 0.0
H5504 H 0.61759 0.66086 0.93287 0.0
H5505 H 0.46361 0.72628 0.9164 0.0
H5506 H 0.07958 0.73819 0.69576 0.0
H5507 H 0.112 0.74247 0.70431 0.0
H5508 H 0.112 0.7953 0.73114 0.0
H5509 H 0.07941 0.791 0.72263 0.0
H5510 H 0.14123 0.79604 0.71152 0.0
H5511 H 0.11694 0.76026 0.75712 0.0
H5512 H 0.09824 0.73469 0.76842 0.0
H5513 H 0.12557 0.69838 0.73848 0.0
H5514 H 0.14429 0.72375 0.7268 0.0
H5515 H 0.23064 0.80913 0.75836 0.0
H5516 H 0.19836 0.80599 0.75011 0.0
H5517 H 0.19542 0.75072 0.72901 0.0
H5518 H 0.22773 0.75392 0.73731 0.0
H5519 H 0.16753 0.75181 0.74584 0.0
H5520 H 0.19195 0.78744 0.70003 0.0
H5521 H 0.21116 0.81297 0.68921 0.0
H5522 H 0.18413 0.84949 0.71925 0.0
H5523 H 0.16487 0.82416 0.73042 0.0
C5524 C 0.08636 0.7507 0.70364 0.0
C5525 C 0.0765 0.76411 0.70864 0.0
C5526 C 0.1051 0.75316 0.70857 0.0
C5527 C 0.1149 0.76921 0.71863 0.0
C5528 C 0.1051 0.78274 0.72344 0.0
C5529 C 0.08628 0.7802 0.71865 0.0
C5530 C 0.13514 0.77167 0.72423 0.0
C5531 C 0.14687 0.78644 0.71924 0.0
C5532 C 0.14306 0.75914 0.73398 0.0
C5533 C 0.13187 0.74387 0.74094 0.0
C5534 C 0.11885 0.7468 0.75283 0.0
C5535 C 0.10828 0.73235 0.75932 0.0
C5536 C 0.11068 0.71491 0.75413 0.0
C5537 C 0.1237 0.71189 0.74247 0.0
C5538 C 0.13431 0.7263 0.73592 0.0
C5539 C 0.2232 0.79625 0.75196 0.0
C5540 C 0.23214 0.78169 0.74886 0.0
C5541 C 0.20453 0.79447 0.74705 0.0
C5542 C 0.19393 0.77812 0.73855 0.0
C5543 C 0.20286 0.76355 0.73554 0.0
C5544 C 0.22155 0.76534 0.74046 0.0
C5545 C 0.17372 0.77612 0.73304 0.0
C5546 C 0.16195 0.76142 0.73806 0.0
C5547 C 0.16582 0.78869 0.72324 0.0
C5548 C 0.17707 0.80391 0.71618 0.0
C5549 C 0.19014 0.80092 0.70438 0.0
C5550 C 0.20104 0.81535 0.69818 0.0
C5551 C 0.1989 0.83284 0.70357 0.0
C5552 C 0.18578 0.83593 0.71509 0.0
C5553 C 0.17485 0.82154 0.72134 0.0
H5554 H 0.20738 0.844 0.69881 0.0
H5555 H 0.10248 0.70374 0.75918 0.0
H5556 H 0.05465 0.35376 0.42259 0.0
H5557 H 0.05239 0.38238 0.43969 0.0
H5558 H 0.02944 0.39891 0.38873 0.0
H5559 H 0.0328 0.37068 0.37142 0.0
H5560 H 0.04737 0.42701 0.40585 0.0
H5561 H 1.00468 0.38361 0.42902 0.0
H5562 H 0.99386 0.35588 0.44266 0.0
H5563 H 0.03064 0.37438 0.49234 0.0
H5564 H 0.04181 0.40215 0.4789 0.0
H5565 H 0.01082 0.49733 0.45463 0.0
H5566 H 0.01481 0.46985 0.43646 0.0
H5567 H 0.0487 0.4584 0.48327 0.0
H5568 H 0.04546 0.48645 0.5011 0.0
H5569 H 0.02477 0.42822 0.46807 0.0
H5570 H 0.06623 0.47277 0.44351 0.0
H5571 H 0.07504 0.50046 0.429 0.0
H5572 H 0.03717 0.4796 0.38071 0.0
H5573 H 0.02799 0.45186 0.39503 0.0
C5574 C 0.04919 0.3635 0.41496 0.0
C5575 C 0.04391 0.35966 0.3955 0.0
C5576 C 0.04767 0.37998 0.42488 0.0
C5577 C 0.0402 0.39312 0.41591 0.0
C5578 C 0.03519 0.38934 0.39635 0.0
C5579 C 0.03709 0.37301 0.38635 0.0
C5580 C 0.03767 0.41063 0.42679 0.0
C5581 C 0.04216 0.42706 0.41931 0.0
C5582 C 0.03106 0.41137 0.44463 0.0
C5583 C 0.02419 0.39486 0.45289 0.0
C5584 C 0.01051 0.38172 0.44283 0.0
C5585 C 1.00431 0.366 0.45052 0.0
C5586 C 0.01159 0.36335 0.46834 0.0
C5587 C 0.02503 0.37645 0.47853 0.0
C5588 C 0.03128 0.39219 0.4709 0.0
C5589 C 0.0198 0.48952 0.46082 0.0
C5590 C 0.02844 0.49485 0.47919 0.0
C5591 C 0.02183 0.47343 0.45045 0.0
C5592 C 0.03234 0.46183 0.45817 0.0
C5593 C 0.04059 0.4669 0.47671 0.0
C5594 C 0.03872 0.48309 0.48697 0.0
C5595 C 0.03453 0.44442 0.44712 0.0
C5596 C 0.02995 0.42806 0.45457 0.0
C5597 C 0.0407 0.44372 0.42912 0.0
C5598 C 0.04632 0.4603 0.42041 0.0
C5599 C 0.0597 0.47414 0.42985 0.0
C5600 C 0.06478 0.48983 0.42165 0.0
C5601 C 0.05664 0.49181 0.40397 0.0
C5602 C 0.04345 0.47806 0.39442 0.0
C5603 C 0.03832 0.46234 0.40256 0.0
H5604 H 0.06058 0.50398 0.39765 0.0
H5605 H 1.0068 0.35116 0.47425 0.0
H5606 H 0.45316 0.24785 0.17831 0.0
H5607 H 0.42347 0.2489 0.18783 0.0
H5608 H 0.44737 0.27144 0.24344 0.0
H5609 H 0.47724 0.26984 0.23399 0.0
H5610 H 0.4181 0.25029 0.2478 0.0
H5611 H 0.42789 0.29603 0.20624 0.0
H5612 H 0.43482 0.30798 0.17666 0.0
H5613 H 0.3898 0.27127 0.14666 0.0
H5614 H 0.38274 0.25893 0.17603 0.0
H5615 H 0.33924 0.28141 0.276 0.0
H5616 H 0.36908 0.27962 0.26673 0.0
H5617 H 0.34494 0.2505 0.21377 0.0
H5618 H 0.31514 0.25202 0.22306 0.0
H5619 H 0.37393 0.27492 0.20794 0.0
H5620 H 0.36348 0.22927 0.24749 0.0
H5621 H 0.35583 0.21539 0.27583 0.0
H5622 H 0.4011 0.24975 0.30826 0.0
H5623 H 0.40886 0.26408 0.28014 0.0
C5624 C 0.45223 0.25304 0.19262 0.0
C5625 C 0.468 0.25881 0.20524 0.0
C5626 C 0.435 0.25381 0.1981 0.0
C5627 C 0.43259 0.2607 0.21642 0.0
C5628 C 0.44835 0.26615 0.22918 0.0
C5629 C 0.46565 0.26527 0.22371 0.0
C5630 C 0.41387 0.26212 0.2222 0.0
C5631 C 0.40869 0.25603 0.23914 0.0
C5632 C 0.40077 0.26895 0.21093 0.0
C5633 C 0.40489 0.27646 0.19331 0.0
C5634 C 0.41953 0.29045 0.19332 0.0
C5635 C 0.42347 0.29729 0.17659 0.0
C5636 C 0.41278 0.29036 0.15979 0.0
C5637 C 0.39808 0.27661 0.15968 0.0
C5638 C 0.39409 0.2697 0.17637 0.0
C5639 C 0.34017 0.27459 0.26237 0.0
C5640 C 0.32436 0.2668 0.25046 0.0
C5641 C 0.35743 0.2735 0.25703 0.0
C5642 C 0.35974 0.26479 0.23943 0.0
C5643 C 0.34396 0.25732 0.22741 0.0
C5644 C 0.32672 0.25815 0.23285 0.0
C5645 C 0.37837 0.26338 0.23363 0.0
C5646 C 0.38346 0.26937 0.21666 0.0
C5647 C 0.3913 0.2563 0.24475 0.0
C5648 C 0.38662 0.24792 0.26176 0.0
C5649 C 0.37169 0.23402 0.26071 0.0
C5650 C 0.36736 0.22604 0.27672 0.0
C5651 C 0.37794 0.23173 0.29386 0.0
C5652 C 0.39289 0.24539 0.29499 0.0
C5653 C 0.39726 0.25345 0.27901 0.0
H5654 H 0.37458 0.22551 0.30624 0.0
H5655 H 0.41586 0.29568 0.14685 0.0
H5656 H 0.62277 0.56991 0.34785 0.0
H5657 H 0.61318 0.56901 0.37921 0.0
H5658 H 0.59272 0.5124 0.36641 0.0
H5659 H 0.60172 0.51346 0.33477 0.0
H5660 H 0.5702 0.52484 0.38406 0.0
H5661 H 0.63423 0.53363 0.39809 0.0
H5662 H 0.66592 0.54803 0.39951 0.0
H5663 H 0.65455 0.59617 0.42773 0.0
H5664 H 0.62278 0.58213 0.4263 0.0
H5665 H 0.56567 0.50931 0.48234 0.0
H5666 H 0.57625 0.50985 0.45103 0.0
H5667 H 0.57488 0.56616 0.45341 0.0
H5668 H 0.5634 0.56539 0.48404 0.0
H5669 H 0.60866 0.55378 0.44194 0.0
H5670 H 0.54494 0.54495 0.4277 0.0
H5671 H 0.51346 0.53034 0.42718 0.0
H5672 H 0.52491 0.48182 0.39989 0.0
H5673 H 0.55657 0.49604 0.4006 0.0
C5674 C 0.61614 0.55726 0.35166 0.0
C5675 C 0.61292 0.54178 0.3386 0.0
C5676 C 0.61084 0.5567 0.36981 0.0
C5677 C 0.60241 0.54056 0.37566 0.0
C5678 C 0.59916 0.52509 0.36253 0.0
C5679 C 0.60432 0.52569 0.34432 0.0
C5680 C 0.59631 0.53984 0.39501 0.0
C5681 C 0.57886 0.53092 0.39666 0.0
C5682 C 0.60716 0.54818 0.41176 0.0
C5683 C 0.62608 0.5569 0.41184 0.0
C5684 C 0.63845 0.54736 0.40437 0.0
C5685 C 0.65644 0.55544 0.40524 0.0
C5686 C 0.66223 0.57302 0.41365 0.0
C5687 C 0.65005 0.58258 0.42118 0.0
C5688 C 0.63205 0.57456 0.42034 0.0
C5689 C 0.56788 0.52182 0.47624 0.0
C5690 C 0.56416 0.53741 0.48585 0.0
C5691 C 0.57378 0.52211 0.4583 0.0
C5692 C 0.57647 0.53808 0.44981 0.0
C5693 C 0.57302 0.55369 0.4596 0.0
C5694 C 0.56654 0.55326 0.47716 0.0
C5695 C 0.58285 0.53861 0.43076 0.0
C5696 C 0.60022 0.54757 0.42924 0.0
C5697 C 0.57201 0.53028 0.41416 0.0
C5698 C 0.55319 0.52147 0.41448 0.0
C5699 C 0.54082 0.53107 0.42189 0.0
C5700 C 0.52292 0.5229 0.42145 0.0
C5701 C 0.51718 0.50517 0.41348 0.0
C5702 C 0.52937 0.49555 0.40605 0.0
C5703 C 0.5473 0.50365 0.40649 0.0
H5704 H 0.5033 0.49888 0.41312 0.0
H5705 H 0.67618 0.57923 0.41437 0.0
H5706 H 0.29953 0.92512 0.06782 0.0
H5707 H 0.29741 0.91411 0.09829 0.0
H5708 H 0.28168 0.85997 0.07113 0.0
H5709 H 0.28343 0.87094 0.04047 0.0
H5710 H 0.26017 0.86794 0.09722 0.0
H5711 H 0.3229 0.8745 0.09167 0.0
H5712 H 0.35272 0.89037 0.08665 0.0
H5713 H 0.35308 0.92778 0.13515 0.0
H5714 H 0.32306 0.91234 0.14024 0.0
H5715 H 0.29109 0.81394 0.16254 0.0
H5716 H 0.27988 0.83017 0.13767 0.0
H5717 H 0.29014 0.87869 0.17607 0.0
H5718 H 0.30115 0.86239 0.20106 0.0
H5719 H 0.31155 0.87827 0.14697 0.0
H5720 H 0.24926 0.86704 0.15411 0.0
H5721 H 0.21915 0.85043 0.1571 0.0
H5722 H 0.21888 0.819 0.10437 0.0
H5723 H 0.24905 0.83524 0.10117 0.0
C5724 C 0.29569 0.91086 0.06836 0.0
C5725 C 0.29157 0.89881 0.05192 0.0
C5726 C 0.29453 0.90464 0.08572 0.0
C5727 C 0.28943 0.88631 0.08677 0.0
C5728 C 0.28555 0.87421 0.07041 0.0
C5729 C 0.28663 0.88044 0.05301 0.0
C5730 C 0.28792 0.87972 0.105 0.0
C5731 C 0.27139 0.87 0.10813 0.0
C5732 C 0.30251 0.88311 0.11921 0.0
C5733 C 0.32059 0.89242 0.11618 0.0
C5734 C 0.32923 0.88623 0.10115 0.0
C5735 C 0.34619 0.89513 0.09831 0.0
C5736 C 0.35476 0.91012 0.11053 0.0
C5737 C 0.3464 0.9162 0.12566 0.0
C5738 C 0.3294 0.90739 0.12852 0.0
C5739 C 0.29047 0.82796 0.1657 0.0
C5740 C 0.29733 0.83716 0.18335 0.0
C5741 C 0.2838 0.83712 0.15167 0.0
C5742 C 0.2842 0.85556 0.15517 0.0
C5743 C 0.28959 0.8644 0.17328 0.0
C5744 C 0.29603 0.85518 0.1874 0.0
C5745 C 0.28384 0.86596 0.13916 0.0
C5746 C 0.30014 0.87647 0.13632 0.0
C5747 C 0.26918 0.86286 0.12504 0.0
C5748 C 0.2515 0.85229 0.12749 0.0
C5749 C 0.2429 0.8564 0.14329 0.0
C5750 C 0.22578 0.8471 0.14498 0.0
C5751 C 0.21712 0.83365 0.13095 0.0
C5752 C 0.2256 0.82941 0.11524 0.0
C5753 C 0.24271 0.83867 0.11348 0.0
H5754 H 0.20383 0.82653 0.13224 0.0
H5755 H 0.36789 0.91698 0.10832 0.0
H5756 H 0.94272 0.51308 0.84117 0.0
H5757 H 0.95471 0.5096 0.87306 0.0
H5758 H 0.90896 0.52686 0.89465 0.0
H5759 H 0.89692 0.53047 0.863 0.0
H5760 H 0.94229 0.54621 0.91042 0.0
H5761 H 0.91169 0.48528 0.89655 0.0
H5762 H 0.90318 0.45593 0.87748 0.0
H5763 H 0.95809 0.44944 0.8824 0.0
H5764 H 0.96698 0.4789 0.90124 0.0
H5765 H 0.98277 0.54199 1.00041 0.0
H5766 H 0.96048 0.53789 0.97344 0.0
H5767 H 0.99125 0.50496 0.94282 0.0
H5768 H 0.01212 0.50662 0.97095 0.0
H5769 H 0.95944 0.49186 0.93381 0.0
H5770 H 0.99156 0.55361 0.94051 0.0
H5771 H 1.00235 0.58392 0.95708 0.0
H5772 H 0.94822 0.59013 0.96256 0.0
H5773 H 0.93711 0.55978 0.94619 0.0
C5774 C 0.93528 0.51613 0.85275 0.0
C5775 C 0.91909 0.52224 0.84981 0.0
C5776 C 0.94196 0.51388 0.87079 0.0
C5777 C 0.93246 0.51774 0.88589 0.0
C5778 C 0.91624 0.52367 0.88298 0.0
C5779 C 0.90954 0.52586 0.86499 0.0
C5780 C 0.94061 0.51773 0.90494 0.0
C5781 C 0.9458 0.53432 0.9158 0.0
C5782 C 0.94535 0.50218 0.9114 0.0
C5783 C 0.94 0.48435 0.90024 0.0
C5784 C 0.92196 0.47765 0.89346 0.0
C5785 C 0.91707 0.46097 0.88271 0.0
C5786 C 0.93007 0.45081 0.87872 0.0
C5787 C 0.94801 0.45731 0.88551 0.0
C5788 C 0.95299 0.47399 0.89625 0.0
C5789 C 0.98474 0.53376 0.98797 0.0
C5790 C 0.99914 0.52457 0.98769 0.0
C5791 C 0.97205 0.53156 0.97252 0.0
C5792 C 0.97448 0.52155 0.95599 0.0
C5793 C 0.98912 0.51274 0.95551 0.0
C5794 C 1.00121 0.51395 0.97142 0.0
C5795 C 0.96205 0.52057 0.93899 0.0
C5796 C 0.95583 0.50377 0.92861 0.0
C5797 C 0.95683 0.53607 0.9326 0.0
C5798 C 0.96353 0.55438 0.94229 0.0
C5799 C 0.98197 0.56142 0.94531 0.0
C5800 C 0.98814 0.57861 0.95467 0.0
C5801 C 0.97597 0.58893 0.96089 0.0
C5802 C 0.95762 0.58211 0.95774 0.0
C5803 C 0.95138 0.56493 0.94842 0.0
H5804 H 0.98077 0.60223 0.96813 0.0
H5805 H 0.92625 0.43791 0.87038 0.0
H5806 H 0.28201 0.22883 0.56423 0.0
H5807 H 0.28489 0.24096 0.59747 0.0
H5808 H 0.27322 0.1874 0.61293 0.0
H5809 H 0.27045 0.1753 0.57994 0.0
H5810 H 0.2543 0.20729 0.63116 0.0
H5811 H 0.31509 0.21225 0.62245 0.0
H5812 H 0.34305 0.22034 0.60827 0.0
H5813 H 0.34125 0.27609 0.62034 0.0
H5814 H 0.31308 0.26833 0.63434 0.0
H5815 H 0.28188 0.22938 0.73021 0.0
H5816 H 0.28094 0.21816 0.69707 0.0
H5817 H 0.2793 0.27102 0.68172 0.0
H5818 H 0.27965 0.28227 0.71501 0.0
H5819 H 0.30589 0.25152 0.66395 0.0
H5820 H 0.242 0.2437 0.67007 0.0
H5821 H 0.21451 0.23308 0.68407 0.0
H5822 H 0.22517 0.17957 0.67893 0.0
H5823 H 0.25247 0.18982 0.66423 0.0
C5824 C 0.2801 0.21965 0.57472 0.0
C5825 C 0.27592 0.20107 0.56929 0.0
C5826 C 0.28186 0.2266 0.5938 0.0
C5827 C 0.27935 0.21516 0.60795 0.0
C5828 C 0.27521 0.19661 0.60247 0.0
C5829 C 0.27365 0.18968 0.58349 0.0
C5830 C 0.28026 0.22242 0.62831 0.0
C5831 C 0.26572 0.21683 0.63826 0.0
C5832 C 0.29506 0.23492 0.6379 0.0
C5833 C 0.31181 0.2397 0.6292 0.0
C5834 C 0.32052 0.22624 0.62187 0.0
C5835 C 0.33644 0.23076 0.61391 0.0
C5836 C 0.34388 0.24872 0.61333 0.0
C5837 C 0.33543 0.26218 0.62075 0.0
C5838 C 0.31948 0.25773 0.6287 0.0
C5839 C 0.28123 0.23865 0.7198 0.0
C5840 C 0.28086 0.25678 0.72535 0.0
C5841 C 0.2807 0.23219 0.7008 0.0
C5842 C 0.28016 0.24371 0.68675 0.0
C5843 C 0.27979 0.26184 0.69222 0.0
C5844 C 0.27987 0.26824 0.71127 0.0
C5845 C 0.27977 0.23666 0.66645 0.0
C5846 C 0.29447 0.24212 0.65665 0.0
C5847 C 0.26535 0.22369 0.65706 0.0
C5848 C 0.24931 0.21755 0.66629 0.0
C5849 C 0.23854 0.2297 0.67207 0.0
C5850 C 0.22298 0.22374 0.68009 0.0
C5851 C 0.21822 0.20571 0.6827 0.0
C5852 C 0.22891 0.19355 0.67702 0.0
C5853 C 0.24436 0.1994 0.66871 0.0
H5854 H 0.20619 0.20115 0.68898 0.0
H5855 H 0.35623 0.2522 0.6072 0.0
H5856 H 0.63748 0.54567 0.21919 0.0
H5857 H 0.62579 0.54288 0.18608 0.0
H5858 H 0.57221 0.52735 0.20033 0.0
H5859 H 0.58394 0.53018 0.23374 0.0
H5860 H 0.57794 0.50664 0.16848 0.0
H5861 H 0.58679 0.56923 0.18968 0.0
H5862 H 0.60403 0.59812 0.20503 0.0
H5863 H 0.64199 0.59731 0.16486 0.0
H5864 H 0.62514 0.56822 0.14946 0.0
H5865 H 0.53223 0.52517 0.0815 0.0
H5866 H 0.5435 0.52578 0.11476 0.0
H5867 H 0.59763 0.5348 0.10066 0.0
H5868 H 0.58635 0.53334 0.06731 0.0
H5869 H 0.59154 0.55849 0.13237 0.0
H5870 H 0.58319 0.49683 0.11082 0.0
H5871 H 0.56795 0.46703 0.09637 0.0
H5872 H 0.53058 0.46503 0.13715 0.0
H5873 H 0.54534 0.49518 0.15175 0.0
C5874 C 0.62318 0.54168 0.21537 0.0
C5875 C 0.61167 0.53833 0.22931 0.0
C5876 C 0.61648 0.54011 0.19632 0.0
C5877 C 0.59802 0.53509 0.19048 0.0
C5878 C 0.58649 0.53132 0.20432 0.0
C5879 C 0.5932 0.53305 0.22349 0.0
C5880 C 0.59087 0.53417 0.17005 0.0
C5881 C 0.58064 0.5181 0.1607 0.0
C5882 C 0.5948 0.54886 0.15951 0.0
C5883 C 0.60479 0.56648 0.16852 0.0
C5884 C 0.59888 0.57516 0.18419 0.0
C5885 C 0.60858 0.59157 0.1929 0.0
C5886 C 0.62412 0.59953 0.18595 0.0
C5887 C 0.62996 0.59111 0.17024 0.0
C5888 C 0.62034 0.57467 0.16151 0.0
C5889 C 0.54653 0.52725 0.0855 0.0
C5890 C 0.55837 0.52914 0.0717 0.0
C5891 C 0.55298 0.52754 0.10454 0.0
C5892 C 0.57148 0.53029 0.1104 0.0
C5893 C 0.58333 0.53259 0.09664 0.0
C5894 C 0.57686 0.53172 0.07753 0.0
C5895 C 0.57842 0.53103 0.13083 0.0
C5896 C 0.58868 0.54707 0.14016 0.0
C5897 C 0.57456 0.51627 0.1413 0.0
C5898 C 0.56518 0.49846 0.13217 0.0
C5899 C 0.57151 0.49023 0.11652 0.0
C5900 C 0.563 0.47322 0.10834 0.0
C5901 C 0.54826 0.46413 0.11572 0.0
C5902 C 0.54196 0.47211 0.13137 0.0
C5903 C 0.55038 0.48919 0.13961 0.0
H5904 H 0.54179 0.45089 0.10939 0.0
H5905 H 0.63161 0.61224 0.19272 0.0
H5906 H 0.29973 0.92087 0.93764 0.0
H5907 H 0.30269 0.90675 0.90646 0.0
H5908 H 0.28121 0.85508 0.92275 0.0
H5909 H 0.27853 0.86897 0.95395 0.0
H5910 H 0.31224 0.85604 0.90516 0.0
H5911 H 0.25501 0.87852 0.89879 0.0
H5912 H 0.23797 0.90317 0.89942 0.0
H5913 H 0.26908 0.92747 0.85894 0.0
H5914 H 0.28646 0.90308 0.85829 0.0
H5915 H 0.28366 0.79266 0.82903 0.0
H5916 H 0.2852 0.81257 0.85744 0.0
H5917 H 0.28748 0.85742 0.82483 0.0
H5918 H 0.28157 0.83704 0.79648 0.0
H5919 H 0.27246 0.86522 0.84986 0.0
H5920 H 0.32735 0.84132 0.85184 0.0
H5921 H 0.34503 0.81716 0.85072 0.0
H5922 H 0.32184 0.7973 0.89832 0.0
H5923 H 0.30393 0.82119 0.8996 0.0
C5924 C 0.29554 0.90651 0.93445 0.0
C5925 C 0.28884 0.89588 0.94796 0.0
C5926 C 0.29734 0.89855 0.91681 0.0
C5927 C 0.29222 0.88001 0.91263 0.0
C5928 C 0.28537 0.86944 0.92602 0.0
C5929 C 0.28372 0.87734 0.94367 0.0
C5930 C 0.29334 0.87132 0.89412 0.0
C5931 C 0.30376 0.85804 0.89287 0.0
C5932 C 0.28272 0.87462 0.87826 0.0
C5933 C 0.27215 0.88914 0.87867 0.0
C5934 C 0.25829 0.8892 0.89014 0.0
C5935 C 0.24856 0.90311 0.89049 0.0
C5936 C 0.25248 0.91691 0.87927 0.0
C5937 C 0.26609 0.9168 0.86765 0.0
C5938 C 0.27588 0.90296 0.8673 0.0
C5939 C 0.28403 0.8066 0.82786 0.0
C5940 C 0.28309 0.81323 0.81046 0.0
C5941 C 0.28541 0.81814 0.84421 0.0
C5942 C 0.28766 0.83667 0.8434 0.0
C5943 C 0.28603 0.84322 0.82597 0.0
C5944 C 0.28285 0.8315 0.8097 0.0
C5945 C 0.29112 0.84924 0.86062 0.0
C5946 C 0.28161 0.8634 0.86168 0.0
C5947 C 0.30299 0.847 0.87619 0.0
C5948 C 0.31431 0.83305 0.8758 0.0
C5949 C 0.32606 0.83182 0.86208 0.0
C5950 C 0.3361 0.81815 0.8614 0.0
C5951 C 0.33456 0.80572 0.87444 0.0
C5952 C 0.32305 0.80696 0.88825 0.0
C5953 C 0.313 0.82059 0.88899 0.0
H5954 H 0.34229 0.79511 0.87386 0.0
H5955 H 0.24492 0.92766 0.87955 0.0
H5956 H 0.9085 0.49835 0.7379 0.0
H5957 H 0.92105 0.50097 0.70804 0.0
H5958 H 0.93289 0.55845 0.72062 0.0
H5959 H 0.92085 0.55584 0.75086 0.0
H5960 H 0.9172 0.54026 0.67982 0.0
H5961 H 0.96366 0.54273 0.73241 0.0
H5962 H 0.97464 0.52998 0.76045 0.0
H5963 H 0.97532 0.48064 0.72681 0.0
H5964 H 0.96371 0.49286 0.69868 0.0
H5965 H 0.9679 0.53283 0.60184 0.0
H5966 H 0.95949 0.54548 0.63142 0.0
H5967 H 0.96592 0.49701 0.6556 0.0
H5968 H 0.97653 0.48557 0.62736 0.0
H5969 H 0.97569 0.52045 0.68053 0.0
H5970 H 0.92414 0.51089 0.63168 0.0
H5971 H 0.90549 0.51684 0.60393 0.0
H5972 H 0.90787 0.57078 0.62855 0.0
H5973 H 0.92689 0.56528 0.6562 0.0
C5974 C 0.91366 0.51151 0.73414 0.0
C5975 C 0.91423 0.52691 0.74658 0.0
C5976 C 0.92063 0.51299 0.71715 0.0
C5977 C 0.92788 0.5299 0.71241 0.0
C5978 C 0.92734 0.54536 0.72426 0.0
C5979 C 0.92075 0.54385 0.74148 0.0
C5980 C 0.93801 0.53113 0.69625 0.0
C5981 C 0.93012 0.53618 0.67982 0.0
C5982 C 0.95466 0.52556 0.69663 0.0
C5983 C 0.96272 0.51871 0.71343 0.0
C5984 C 0.96604 0.52913 0.731 0.0
C5985 C 0.97235 0.52198 0.74693 0.0
C5986 C 0.97567 0.50451 0.74542 0.0
C5987 C 0.97274 0.49417 0.72797 0.0
C5988 C 0.96628 0.5012 0.71203 0.0
C5989 C 0.96803 0.52512 0.61367 0.0
C5990 C 0.97252 0.50793 0.61205 0.0
C5991 C 0.9629 0.53227 0.6305 0.0
C5992 C 0.96154 0.52206 0.64568 0.0
C5993 C 0.96674 0.50527 0.64419 0.0
C5994 C 0.97251 0.4985 0.62779 0.0
C5995 C 0.95423 0.52801 0.66307 0.0
C5996 C 0.96288 0.52478 0.6802 0.0
C5997 C 0.93777 0.53431 0.663 0.0
C5998 C 0.92732 0.5378 0.64579 0.0
C5999 C 0.92098 0.52412 0.631 0.0
C6000 C 0.91028 0.52739 0.61532 0.0
C6001 C 0.9056 0.54421 0.61442 0.0
C6002 C 0.91163 0.5578 0.62918 0.0
C6003 C 0.92243 0.55464 0.64481 0.0
H6004 H 0.89721 0.54667 0.60234 0.0
H6005 H 0.98054 0.49899 0.75777 0.0
H6006 H 0.28809 0.22429 0.47056 0.0
H6007 H 0.29007 0.23473 0.43957 0.0
H6008 H 0.25618 0.18557 0.41391 0.0
H6009 H 0.25475 0.17489 0.44473 0.0
H6010 H 0.27995 0.19336 0.39196 0.0
H6011 H 0.24099 0.22725 0.42049 0.0
H6012 H 0.23151 0.2466 0.44552 0.0
H6013 H 0.2758 0.28835 0.44064 0.0
H6014 H 0.28567 0.26913 0.41571 0.0
H6015 H 0.24744 0.23776 0.31072 0.0
H6016 H 0.24772 0.22617 0.34128 0.0
H6017 H 0.3039 0.24843 0.35346 0.0
H6018 H 0.30409 0.2581 0.32188 0.0
H6019 H 0.26889 0.25393 0.38137 0.0
H6020 H 0.30719 0.21614 0.35152 0.0
H6021 H 0.31212 0.19588 0.3246 0.0
H6022 H 0.26393 0.1597 0.33096 0.0
H6023 H 0.25838 0.18014 0.35752 0.0
C6024 C 0.28101 0.21574 0.45832 0.0
C6025 C 0.27114 0.1988 0.46027 0.0
C6026 C 0.28208 0.22175 0.44051 0.0
C6027 C 0.27306 0.21114 0.42412 0.0
C6028 C 0.26333 0.19414 0.42611 0.0
C6029 C 0.26241 0.18806 0.44387 0.0
C6030 C 0.27359 0.21775 0.40502 0.0
C6031 C 0.27749 0.20662 0.38979 0.0
C6032 C 0.27023 0.23497 0.40169 0.0
C6033 C 0.26415 0.24672 0.41635 0.0
C6034 C 0.24874 0.24054 0.42481 0.0
C6035 C 0.2433 0.25148 0.43897 0.0
C6036 C 0.25307 0.26868 0.44469 0.0
C6037 C 0.26826 0.27501 0.4362 0.0
C6038 C 0.27377 0.26412 0.42203 0.0
C6039 C 0.26007 0.23929 0.3194 0.0
C6040 C 0.27595 0.24796 0.31331 0.0
C6041 C 0.26012 0.23306 0.33715 0.0
C6042 C 0.27588 0.23616 0.34968 0.0
C6043 C 0.29162 0.24552 0.34397 0.0
C6044 C 0.29172 0.25106 0.32589 0.0
C6045 C 0.27578 0.22977 0.36873 0.0
C6046 C 0.27164 0.24082 0.38378 0.0
C6047 C 0.27858 0.21238 0.3718 0.0
C6048 C 0.2822 0.19984 0.35627 0.0
C6049 C 0.29749 0.20402 0.34699 0.0
C6050 C 0.30042 0.19249 0.33182 0.0
C6051 C 0.2883 0.17655 0.32601 0.0
C6052 C 0.27326 0.17209 0.33542 0.0
C6053 C 0.2702 0.18367 0.35051 0.0
H6054 H 0.2906 0.16763 0.31427 0.0
H6055 H 0.24885 0.27713 0.45569 0.0
H6056 H 0.30509 0.5826 0.54725 0.0
H6057 H 0.33536 0.57558 0.55028 0.0
H6058 H 0.35799 0.63178 0.55287 0.0
H6059 H 0.32821 0.63879 0.54941 0.0
H6060 H 0.36908 0.61068 0.52552 0.0
H6061 H 0.3637 0.61278 0.5917 0.0
H6062 H 0.34596 0.60469 0.61747 0.0
H6063 H 0.34541 0.54901 0.60125 0.0
H6064 H 0.36307 0.55679 0.57528 0.0
H6065 H 0.45298 0.59248 0.52344 0.0
H6066 H 0.43212 0.60641 0.54119 0.0
H6067 H 0.40076 0.55411 0.54407 0.0
H6068 H 0.42187 0.54031 0.52689 0.0
H6069 H 0.39636 0.57745 0.57304 0.0
H6070 H 0.39611 0.57401 0.50508 0.0
H6071 H 0.4075 0.58003 0.475 0.0
H6072 H 0.4138 0.63655 0.49103 0.0
H6073 H 0.40263 0.63086 0.52131 0.0
C6074 C 0.3166 0.59334 0.54859 0.0
C6075 C 0.31454 0.61109 0.54774 0.0
C6076 C 0.33373 0.5894 0.55049 0.0
C6077 C 0.34864 0.60328 0.55191 0.0
C6078 C 0.34651 0.62102 0.55179 0.0
C6079 C 0.32954 0.62492 0.54966 0.0
C6080 C 0.36649 0.59927 0.55151 0.0
C6081 C 0.37537 0.60388 0.53615 0.0
C6082 C 0.3741 0.59004 0.56521 0.0
C6083 C 0.3648 0.58537 0.58167 0.0
C6084 C 0.35991 0.59882 0.59374 0.0
C6085 C 0.34982 0.59429 0.60833 0.0
C6086 C 0.34459 0.57635 0.61102 0.0
C6087 C 0.34955 0.56291 0.5992 0.0
C6088 C 0.35966 0.56737 0.58459 0.0
C6089 C 0.44193 0.5841 0.52853 0.0
C6090 C 0.43841 0.56557 0.52358 0.0
C6091 C 0.43022 0.59196 0.53873 0.0
C6092 C 0.41482 0.58122 0.54347 0.0
C6093 C 0.41259 0.56254 0.54045 0.0
C6094 C 0.42441 0.5547 0.53046 0.0
C6095 C 0.39919 0.58906 0.54706 0.0
C6096 C 0.39051 0.58495 0.56284 0.0
C6097 C 0.39151 0.59862 0.53352 0.0
C6098 C 0.39896 0.60201 0.51564 0.0
C6099 C 0.4002 0.58772 0.50232 0.0
C6100 C 0.40656 0.59107 0.48521 0.0
C6101 C 0.41153 0.60866 0.48118 0.0
C6102 C 0.41009 0.62293 0.49423 0.0
C6103 C 0.40378 0.61966 0.51138 0.0
H6104 H 0.41638 0.61122 0.4679 0.0
H6105 H 0.33668 0.57286 0.62225 0.0
H6106 H 0.84803 0.9404 0.55959 0.0
H6107 H 0.87845 0.95657 0.55847 0.0
H6108 H 0.88397 0.91998 0.51082 0.0
H6109 H 0.85412 0.90302 0.51299 0.0
H6110 H 0.91385 0.92706 0.52902 0.0
H6111 H 0.87511 0.96636 0.50914 0.0
H6112 H 0.85074 0.98354 0.51154 0.0
H6113 H 0.87879 0.01376 0.56224 0.0
H6114 H 0.90322 0.99661 0.56024 0.0
H6115 H 0.98212 0.99285 0.49508 0.0
H6116 H 0.95287 0.9746 0.49819 0.0
H6117 H 0.96149 0.98926 0.55803 0.0
H6118 H 0.99128 0.00655 0.55504 0.0
H6119 H 0.92536 0.99333 0.53357 0.0
H6120 H 0.96537 0.95315 0.55053 0.0
H6121 H 0.98903 0.9356 0.5454 0.0
H6122 H 0.95753 0.90681 0.49576 0.0
H6123 H 0.93387 0.92452 0.50034 0.0
C6124 C 0.85578 0.93581 0.54892 0.0
C6125 C 0.84861 0.92048 0.53633 0.0
C6126 C 0.87319 0.94517 0.54814 0.0
C6127 C 0.88362 0.93996 0.53419 0.0
C6128 C 0.87642 0.92448 0.52173 0.0
C6129 C 0.85925 0.91478 0.52292 0.0
C6130 C 0.90188 0.95058 0.5325 0.0
C6131 C 0.91619 0.94154 0.5298 0.0
C6132 C 0.90536 0.96957 0.5336 0.0
C6133 C 0.89089 0.98012 0.53463 0.0
C6134 C 0.87603 0.97663 0.52083 0.0
C6135 C 0.86222 0.98636 0.52212 0.0
C6136 C 0.86319 0.9997 0.53706 0.0
C6137 C 0.87804 1.00341 0.55069 0.0
C6138 C 0.89188 0.99371 0.54947 0.0
C6139 C 0.97778 0.99206 0.50889 0.0
C6140 C 0.98901 1.0009 0.52486 0.0
C6141 C 0.9611 0.98162 0.51066 0.0
C6142 C 0.95503 0.98042 0.52836 0.0
C6143 C 0.96597 0.98982 0.54426 0.0
C6144 C 0.98295 0.9997 0.54256 0.0
C6145 C 0.93705 0.96977 0.53021 0.0
C6146 C 0.92287 0.97885 0.53281 0.0
C6147 C 0.93362 0.95084 0.52853 0.0
C6148 C 0.94798 0.9404 0.52561 0.0
C6149 C 0.96362 0.94331 0.53834 0.0
C6150 C 0.977 0.93328 0.53557 0.0
C6151 C 0.97482 0.92016 0.52022 0.0
C6152 C 0.95924 0.91703 0.50761 0.0
C6153 C 0.94585 0.92708 0.51027 0.0
H6154 H 0.98517 0.91236 0.51814 0.0
H6155 H 0.85247 0.00719 0.53806 0.0
H6156 H 0.88994 0.06212 0.29037 0.0
H6157 H 0.87742 0.08948 0.29065 0.0
H6158 H 0.89348 0.09697 0.23572 0.0
H6159 H 0.90748 0.07039 0.23627 0.0
H6160 H 0.89713 0.12783 0.25356 0.0
H6161 H 0.84781 0.07857 0.2444 0.0
H6162 H 0.83113 0.04997 0.25193 0.0
H6163 H 0.82476 0.07485 0.30624 0.0
H6164 H 0.84156 0.10354 0.2991 0.0
H6165 H 0.84238 0.1957 0.24908 0.0
H6166 H 0.85316 0.16763 0.24113 0.0
H6167 H 0.84664 0.15364 0.29698 0.0
H6168 H 0.83578 0.18137 0.30473 0.0
H6169 H 0.83624 0.12508 0.27293 0.0
H6170 H 0.88799 0.17391 0.28201 0.0
H6171 H 0.90602 0.20176 0.27433 0.0
H6172 H 0.90766 0.17713 0.21858 0.0
H6173 H 0.8894 0.14921 0.22586 0.0
C6174 C 0.89081 0.06965 0.27839 0.0
C6175 C 0.89947 0.06405 0.26322 0.0
C6176 C 0.88352 0.08524 0.27845 0.0
C6177 C 0.88383 0.0951 0.26289 0.0
C6178 C 0.89285 0.08965 0.24785 0.0
C6179 C 0.90078 0.0744 0.24812 0.0
C6180 C 0.87455 0.11085 0.26231 0.0
C6181 C 0.88369 0.1271 0.25749 0.0
C6182 C 0.85696 0.11011 0.26735 0.0
C6183 C 0.84595 0.09317 0.27122 0.0
C6184 C 0.84279 0.07794 0.25792 0.0
C6185 C 0.83336 0.0617 0.26214 0.0
C6186 C 0.8269 0.06059 0.27956 0.0
C6187 C 0.82974 0.07574 0.29274 0.0
C6188 C 0.83917 0.092 0.2886 0.0
C6189 C 0.84296 0.1864 0.25947 0.0
C6190 C 0.83831 0.19069 0.27754 0.0
C6191 C 0.84929 0.17047 0.25501 0.0
C6192 C 0.85106 0.15857 0.26856 0.0
C6193 C 0.84555 0.16255 0.28628 0.0
C6194 C 0.83934 0.17842 0.29073 0.0
C6195 C 0.85906 0.1422 0.26488 0.0
C6196 C 0.84959 0.12575 0.26875 0.0
C6197 C 0.87623 0.14276 0.25875 0.0
C6198 C 0.88714 0.15956 0.25441 0.0
C6199 C 0.89206 0.17449 0.26807 0.0
C6200 C 0.90234 0.19028 0.26379 0.0
C6201 C 0.90793 0.19123 0.24596 0.0
C6202 C 0.90328 0.17639 0.23237 0.0
C6203 C 0.89297 0.16059 0.23657 0.0
H6204 H 0.9159 0.20346 0.24268 0.0
H6205 H 0.81968 0.04799 0.28284 0.0
H6206 H 0.7078 0.13496 0.0382 0.0
H6207 H 0.67597 0.12386 0.0305 0.0
H6208 H 0.68403 0.07017 0.03756 0.0
H6209 H 0.71632 0.08115 0.04455 0.0
H6210 H 0.66401 0.07226 0.00508 0.0
H6211 H 0.66729 0.09453 0.07064 0.0
H6212 H 0.67641 0.11764 0.09776 0.0
H6213 H 0.64492 0.15178 0.07149 0.0
H6214 H 0.63587 0.12901 0.04403 0.0
H6215 H 0.57899 0.02836 0.0189 0.0
H6216 H 0.61034 0.0423 0.0198 0.0
H6217 H 0.59474 0.09217 0.008 0.0
H6218 H 0.56352 0.07865 0.00792 0.0
H6219 H 0.618 0.0947 0.04012 0.0
H6220 H 0.61226 0.07065 0.97584 0.0
H6221 H 0.60254 0.04667 0.94963 0.0
H6222 H 0.63818 0.01537 0.97416 0.0
H6223 H 0.64782 0.03893 1.0008 0.0
C6224 C 0.70277 0.12082 0.03837 0.0
C6225 C 0.71427 0.10879 0.04198 0.0
C6226 C 0.68466 0.11456 0.03397 0.0
C6227 C 0.67792 0.09633 0.0337 0.0
C6228 C 0.68928 0.08432 0.03776 0.0
C6229 C 0.70753 0.09054 0.04181 0.0
C6230 C 0.65898 0.08976 0.0285 0.0
C6231 C 0.65389 0.07698 0.01279 0.0
C6232 C 0.64609 0.09664 0.03833 0.0
C6233 C 0.65102 0.1101 0.05518 0.0
C6234 C 0.66237 0.10699 0.07059 0.0
C6235 C 0.66754 0.12004 0.08603 0.0
C6236 C 0.66128 0.13618 0.08633 0.0
C6237 C 0.64977 0.13928 0.07123 0.0
C6238 C 0.64461 0.12629 0.05573 0.0
C6239 C 0.58229 0.04216 0.01608 0.0
C6240 C 0.56903 0.05246 0.01324 0.0
C6241 C 0.60006 0.05004 0.01652 0.0
C6242 C 0.60451 0.06811 0.01381 0.0
C6243 C 0.59128 0.07815 0.00996 0.0
C6244 C 0.57354 0.07035 0.00971 0.0
C6245 C 0.62308 0.07687 0.01698 0.0
C6246 C 0.62811 0.09016 0.03226 0.0
C6247 C 0.63592 0.07042 0.00682 0.0
C6248 C 0.63077 0.05658 0.99035 0.0
C6249 C 0.61802 0.05864 0.97568 0.0
C6250 C 0.61249 0.04512 0.96075 0.0
C6251 C 0.61975 0.02954 0.9602 0.0
C6252 C 0.63259 0.02746 0.97458 0.0
C6253 C 0.63811 0.04091 0.9896 0.0
H6254 H 0.61543 0.01908 0.94863 0.0
H6255 H 0.66533 0.14628 0.09828 0.0
H6256 H 0.22867 0.5076 0.24289 0.0
H6257 H 0.2357 0.47739 0.23979 0.0
H6258 H 0.18247 0.45559 0.25182 0.0
H6259 H 0.17554 0.48544 0.25538 0.0
H6260 H 0.20865 0.44755 0.2753 0.0
H6261 H 0.19244 0.44496 0.20959 0.0
H6262 H 0.19287 0.45813 0.1797 0.0
H6263 H 0.24947 0.45951 0.1819 0.0
H6264 H 0.2494 0.44651 0.21196 0.0
H6265 H 0.22266 0.36276 0.27657 0.0
H6266 H 0.20912 0.38406 0.25896 0.0
H6267 H 0.26175 0.41288 0.25339 0.0
H6268 H 0.27519 0.39145 0.27077 0.0
H6269 H 0.23286 0.41532 0.2233 0.0
H6270 H 0.24854 0.42267 0.29175 0.0
H6271 H 0.24797 0.41426 0.3239 0.0
H6272 H 0.1906 0.40648 0.31733 0.0
H6273 H 0.19085 0.41479 0.28509 0.0
C6274 C 0.21853 0.49628 0.24473 0.0
C6275 C 0.20179 0.49868 0.24975 0.0
C6276 C 0.22243 0.47915 0.24273 0.0
C6277 C 0.20946 0.46451 0.24546 0.0
C6278 C 0.19251 0.46687 0.24964 0.0
C6279 C 0.1887 0.48389 0.25186 0.0
C6280 C 0.2143 0.44705 0.24657 0.0
C6281 C 0.2135 0.44023 0.2638 0.0
C6282 C 0.22093 0.438 0.2316 0.0
C6283 C 0.22092 0.44473 0.21299 0.0
C6284 C 0.20498 0.44802 0.20367 0.0
C6285 C 0.20515 0.45549 0.18672 0.0
C6286 C 0.22119 0.45964 0.1789 0.0
C6287 C 0.23705 0.45624 0.18796 0.0
C6288 C 0.23695 0.44876 0.20492 0.0
C6289 C 0.23113 0.37329 0.27088 0.0
C6290 C 0.24967 0.37604 0.27517 0.0
C6291 C 0.22352 0.38517 0.26074 0.0
C6292 C 0.23452 0.39992 0.25521 0.0
C6293 C 0.25316 0.40144 0.25757 0.0
C6294 C 0.26077 0.38947 0.26767 0.0
C6295 C 0.22699 0.41576 0.25201 0.0
C6296 C 0.22749 0.42238 0.23456 0.0
C6297 C 0.21986 0.42472 0.26679 0.0
C6298 C 0.2197 0.41893 0.28586 0.0
C6299 C 0.2358 0.41885 0.29704 0.0
C6300 C 0.23553 0.4142 0.31531 0.0
C6301 C 0.21925 0.40965 0.32258 0.0
C6302 C 0.2032 0.40986 0.31163 0.0
C6303 C 0.20339 0.41454 0.29337 0.0
H6304 H 0.21909 0.40608 0.33675 0.0
H6305 H 0.22132 0.46551 0.16581 0.0
H6306 H 0.26411 0.44248 0.04003 0.0
H6307 H 0.23695 0.45543 0.04006 0.0
H6308 H 0.20496 0.40255 0.03667 0.0
H6309 H 0.23197 0.38956 0.03594 0.0
H6310 H 0.1894 0.42032 0.01398 0.0
H6311 H 0.2132 0.43279 0.0784 0.0
H6312 H 0.23645 0.44389 0.10507 0.0
H6313 H 0.24131 0.49708 0.08906 0.0
H6314 H 0.21819 0.48626 0.06218 0.0
H6315 H 0.10959 0.451 0.02555 0.0
H6316 H 0.13569 0.43778 0.03464 0.0
H6317 H 0.17019 0.48869 0.03359 0.0
H6318 H 0.14391 0.50204 0.0251 0.0
H6319 H 0.18362 0.47074 0.06036 0.0
H6320 H 0.1597 0.45637 0.99462 0.0
H6321 H 0.13601 0.444 0.96867 0.0
H6322 H 0.1308 0.39236 0.9886 0.0
H6323 H 0.15427 0.40449 0.01484 0.0
C6324 C 0.25128 0.43364 0.03936 0.0
C6325 C 0.2502 0.415 0.03802 0.0
C6326 C 0.23575 0.44106 0.0395 0.0
C6327 C 0.21883 0.43002 0.03867 0.0
C6328 C 0.21779 0.41139 0.03735 0.0
C6329 C 0.23327 0.40397 0.03698 0.0
C6330 C 0.20218 0.4378 0.03857 0.0
C6331 C 0.18807 0.43114 0.02434 0.0
C6332 C 0.20037 0.45207 0.05191 0.0
C6333 C 0.21406 0.45869 0.06821 0.0
C6334 C 0.21929 0.44684 0.08052 0.0
C6335 C 0.23243 0.45308 0.09568 0.0
C6336 C 0.24038 0.47118 0.09874 0.0
C6337 C 0.23514 0.48307 0.08668 0.0
C6338 C 0.22199 0.4769 0.0715 0.0
C6339 C 0.12271 0.45947 0.02795 0.0
C6340 C 0.1248 0.47751 0.02474 0.0
C6341 C 0.13763 0.45189 0.03294 0.0
C6342 C 0.15498 0.4621 0.03429 0.0
C6343 C 0.15697 0.4805 0.03251 0.0
C6344 C 0.14198 0.48815 0.02775 0.0
C6345 C 0.17098 0.45333 0.0357 0.0
C6346 C 0.18495 0.45981 0.05014 0.0
C6347 C 0.17258 0.4387 0.02269 0.0
C6348 C 0.15862 0.43138 0.00678 0.0
C6349 C 0.15343 0.4424 0.99352 0.0
C6350 C 0.14005 0.43543 0.97876 0.0
C6351 C 0.13189 0.41741 0.977 0.0
C6352 C 0.13712 0.40631 0.98999 0.0
C6353 C 0.15046 0.41323 0.0048 0.0
H6354 H 0.12153 0.41204 0.96557 0.0
H6355 H 0.25057 0.47598 0.11047 0.0
H6356 H 0.86715 0.96906 0.24441 0.0
H6357 H 0.85007 0.93912 0.24624 0.0
H6358 H 0.89607 0.92534 0.27704 0.0
H6359 H 0.91332 0.95493 0.27452 0.0
H6360 H 0.88129 0.89772 0.2554 0.0
H6361 H 0.85862 0.9361 0.29858 0.0
H6362 H 0.84595 0.96205 0.31026 0.0
H6363 H 0.79903 0.94425 0.27068 0.0
H6364 H 0.81154 0.9183 0.2586 0.0
H6365 H 0.82506 0.82968 0.30119 0.0
H6366 H 0.84315 0.85846 0.29671 0.0
H6367 H 0.81371 0.85642 0.24226 0.0
H6368 H 0.79668 0.82668 0.24604 0.0
H6369 H 0.82057 0.8911 0.27588 0.0
H6370 H 0.84676 0.84997 0.23511 0.0
H6371 H 0.8618 0.8244 0.22846 0.0
H6372 H 0.90517 0.84803 0.27067 0.0
H6373 H 0.89014 0.87353 0.27791 0.0
C6374 C 0.87364 0.9596 0.25146 0.0
C6375 C 0.89161 0.96444 0.25933 0.0
C6376 C 0.86382 0.94247 0.25265 0.0
C6377 C 0.87158 0.92987 0.2621 0.0
C6378 C 0.88964 0.93465 0.26966 0.0
C6379 C 0.89952 0.95166 0.26825 0.0
C6380 C 0.86088 0.91185 0.26424 0.0
C6381 C 0.86807 0.89637 0.26 0.0
C6382 C 0.84363 0.9098 0.27042 0.0
C6383 C 0.83609 0.92539 0.27755 0.0
C6384 C 0.84566 0.93781 0.29226 0.0
C6385 C 0.8385 0.9525 0.29897 0.0
C6386 C 0.82172 0.95483 0.29117 0.0
C6387 C 0.81204 0.94245 0.27668 0.0
C6388 C 0.81915 0.92774 0.2699 0.0
C6389 C 0.82285 0.83507 0.28802 0.0
C6390 C 0.80999 0.8256 0.27365 0.0
C6391 C 0.83303 0.85164 0.28558 0.0
C6392 C 0.8301 0.85941 0.26896 0.0
C6393 C 0.81645 0.8505 0.25504 0.0
C6394 C 0.80662 0.83362 0.25727 0.0
C6395 C 0.84082 0.87716 0.26657 0.0
C6396 C 0.83371 0.89255 0.27106 0.0
C6397 C 0.85839 0.87912 0.26131 0.0
C6398 C 0.86713 0.86351 0.2573 0.0
C6399 C 0.85931 0.84955 0.24324 0.0
C6400 C 0.86789 0.8351 0.2393 0.0
C6401 C 0.88439 0.83454 0.2492 0.0
C6402 C 0.89235 0.84843 0.26307 0.0
C6403 C 0.88379 0.86287 0.26711 0.0
H6404 H 0.89104 0.82338 0.24606 0.0
H6405 H 0.81619 0.96621 0.29639 0.0
H6406 H 0.67916 0.10323 0.77348 0.0
H6407 H 0.69033 0.13524 0.77944 0.0
H6408 H 0.73714 0.12858 0.75223 0.0
H6409 H 0.72623 0.09618 0.74673 0.0
H6410 H 0.74481 0.14762 0.78639 0.0
H6411 H 0.70328 0.14574 0.73056 0.0
H6412 H 0.67373 0.13768 0.71174 0.0
H6413 H 0.65095 0.16793 0.75334 0.0
H6414 H 0.68031 0.17597 0.77253 0.0
H6415 H 0.78248 0.23281 0.7721 0.0
H6416 H 0.76812 0.20182 0.77006 0.0
H6417 H 0.72234 0.21749 0.79337 0.0
H6418 H 0.73553 0.24873 0.7927 0.0
H6419 H 0.71215 0.19412 0.7649 0.0
H6420 H 0.7542 0.19783 0.8198 0.0
H6421 H 0.78416 0.20706 0.8376 0.0
H6422 H 0.80587 0.17385 0.7977 0.0
H6423 H 0.7761 0.16456 0.77958 0.0
C6424 C 0.69181 0.10863 0.76871 0.0
C6425 C 0.70201 0.09751 0.75975 0.0
C6426 C 0.69804 0.12682 0.77199 0.0
C6427 C 0.71431 0.13401 0.76598 0.0
C6428 C 0.72447 0.12299 0.75684 0.0
C6429 C 0.71835 0.10467 0.7538 0.0
C6430 C 0.72133 0.15296 0.77046 0.0
C6431 C 0.7378 0.15785 0.7816 0.0
C6432 C 0.71158 0.16599 0.76478 0.0
C6433 C 0.69397 0.16132 0.75307 0.0
C6434 C 0.69195 0.15058 0.73576 0.0
C6435 C 0.67523 0.14603 0.72501 0.0
C6436 C 0.66047 0.15225 0.73136 0.0
C6437 C 0.66239 0.1631 0.74844 0.0
C6438 C 0.67907 0.16767 0.75925 0.0
C6439 C 0.76944 0.22969 0.77701 0.0
C6440 C 0.76028 0.24312 0.78314 0.0
C6441 C 0.76136 0.21199 0.77603 0.0
C6442 C 0.74453 0.20751 0.78227 0.0
C6443 C 0.73552 0.22084 0.78888 0.0
C6444 C 0.74323 0.23863 0.78892 0.0
C6445 C 0.73591 0.18883 0.78045 0.0
C6446 C 0.71905 0.18392 0.76996 0.0
C6447 C 0.74522 0.17574 0.78683 0.0
C6448 C 0.7629 0.18045 0.79838 0.0
C6449 C 0.76535 0.19244 0.81488 0.0
C6450 C 0.78231 0.19772 0.82499 0.0
C6451 C 0.7969 0.19103 0.8188 0.0
C6452 C 0.79455 0.17897 0.80253 0.0
C6453 C 0.77762 0.17363 0.79237 0.0
H6454 H 0.81004 0.19521 0.82659 0.0
H6455 H 0.64754 0.1487 0.72304 0.0
loop_
_geom_bond_atom_site_label_1
_geom_bond_atom_site_label_2
_geom_bond_distance
_geom_bond_site_symmetry_2
_ccdc_geom_bond_type
In0 O1 2.294 . S
In0 O2 2.326 . S
In0 O6 2.266 . S
In0 O7 2.326 . S
In0 O8 2.266 . S
In0 O9 2.326 . S
In0 O11 2.294 . S
In0 O12 2.326 . S
O1 In0 2.294 . S
O1 C10 1.240 . S
O2 In0 2.326 . S
O2 C10 1.252 . S
C3 O6 1.252 . S
C3 O7 1.260 . S
C4 O11 1.240 . S
C4 O12 1.252 . S
C5 O8 1.252 . S
C5 O9 1.260 . S
O6 In0 2.266 . S
O6 C3 1.252 . S
O7 In0 2.326 . S
O7 C3 1.260 . S
O8 In0 2.266 . S
O8 C5 1.252 . S
O9 In0 2.326 . S
O9 C5 1.260 . S
C10 O1 1.240 . S
C10 O2 1.252 . S
O11 In0 2.294 . S
O11 C4 1.240 . S
O12 In0 2.326 . S
O12 C4 1.252 . S
In13 O14 2.294 . S
In13 O15 2.326 . S
In13 O19 2.266 . S
In13 O20 2.326 . S
In13 O21 2.266 1_455 S
In13 O22 2.326 1_455 S
In13 O24 2.294 . S
In13 O25 2.326 . S
O14 In13 2.294 . S
O14 C23 1.240 . S
O15 In13 2.326 . S
O15 C23 1.252 . S
C16 O19 1.252 . S
C16 O20 1.260 . S
C17 O24 1.240 . S
C17 O25 1.252 . S
C18 O21 1.252 . S
C18 O22 1.260 . S
O19 In13 2.266 . S
O19 C16 1.252 . S
O20 In13 2.326 . S
O20 C16 1.260 . S
O21 In13 2.266 1_655 S
O21 C18 1.252 . S
O22 In13 2.326 1_655 S
O22 C18 1.260 . S
C23 O14 1.240 . S
C23 O15 1.252 . S
O24 In13 2.294 . S
O24 C17 1.240 . S
O25 In13 2.326 . S
O25 C17 1.252 . S
In26 O27 2.294 . S
In26 O28 2.326 . S
In26 O32 2.266 . S
In26 O33 2.326 . S
In26 O34 2.266 . S
In26 O35 2.326 . S
In26 O37 2.294 . S
In26 O38 2.326 . S
O27 In26 2.294 . S
O27 C36 1.240 . S
O28 In26 2.326 . S
O28 C36 1.252 . S
C29 O32 1.252 . S
C29 O33 1.260 . S
C30 O37 1.240 . S
C30 O38 1.252 . S
C31 O34 1.252 . S
C31 O35 1.260 . S
O32 In26 2.266 . S
O32 C29 1.252 . S
O33 In26 2.326 . S
O33 C29 1.260 . S
O34 In26 2.266 . S
O34 C31 1.252 . S
O35 In26 2.326 . S
O35 C31 1.260 . S
C36 O27 1.240 . S
C36 O28 1.252 . S
O37 In26 2.294 . S
O37 C30 1.240 . S
O38 In26 2.326 . S
O38 C30 1.252 . S
In39 O40 2.294 . S
In39 O41 2.326 . S
In39 O45 2.266 . S
In39 O46 2.326 . S
In39 O47 2.266 . S
In39 O48 2.326 . S
In39 O50 2.294 . S
In39 O51 2.326 . S
O40 In39 2.294 . S
O40 C49 1.240 . S
O41 In39 2.326 . S
O41 C49 1.252 . S
C42 O45 1.252 . S
C42 O46 1.260 . S
C43 O50 1.240 . S
C43 O51 1.252 . S
C44 O47 1.252 . S
C44 O48 1.260 . S
O45 In39 2.266 . S
O45 C42 1.252 . S
O46 In39 2.326 . S
O46 C42 1.260 . S
O47 In39 2.266 . S
O47 C44 1.252 . S
O48 In39 2.326 . S
O48 C44 1.260 . S
C49 O40 1.240 . S
C49 O41 1.252 . S
O50 In39 2.294 . S
O50 C43 1.240 . S
O51 In39 2.326 . S
O51 C43 1.252 . S
In52 O53 2.294 . S
In52 O54 2.326 . S
In52 O58 2.266 . S
In52 O59 2.326 . S
In52 O60 2.266 . S
In52 O61 2.326 . S
In52 O63 2.294 . S
In52 O64 2.326 . S
O53 In52 2.294 . S
O53 C62 1.240 . S
O54 In52 2.326 . S
O54 C62 1.252 . S
C55 O58 1.252 . S
C55 O59 1.260 . S
C56 O63 1.240 . S
C56 O64 1.252 . S
C57 O60 1.252 . S
C57 O61 1.260 . S
O58 In52 2.266 . S
O58 C55 1.252 . S
O59 In52 2.326 . S
O59 C55 1.260 . S
O60 In52 2.266 . S
O60 C57 1.252 . S
O61 In52 2.326 . S
O61 C57 1.260 . S
C62 O53 1.240 . S
C62 O54 1.252 . S
O63 In52 2.294 . S
O63 C56 1.240 . S
O64 In52 2.326 . S
O64 C56 1.252 . S
In65 O66 2.294 . S
In65 O67 2.326 . S
In65 O71 2.266 . S
In65 O72 2.326 . S
In65 O73 2.266 . S
In65 O74 2.326 . S
In65 O76 2.294 . S
In65 O77 2.326 . S
O66 In65 2.294 . S
O66 C75 1.240 . S
O67 In65 2.326 . S
O67 C75 1.252 . S
C68 O71 1.252 . S
C68 O72 1.260 . S
C69 O76 1.240 . S
C69 O77 1.252 . S
C70 O73 1.252 . S
C70 O74 1.260 . S
O71 In65 2.266 . S
O71 C68 1.252 . S
O72 In65 2.326 . S
O72 C68 1.260 . S
O73 In65 2.266 . S
O73 C70 1.252 . S
O74 In65 2.326 . S
O74 C70 1.260 . S
C75 O66 1.240 . S
C75 O67 1.252 . S
O76 In65 2.294 . S
O76 C69 1.240 . S
O77 In65 2.326 . S
O77 C69 1.252 . S
In78 O79 2.294 . S
In78 O80 2.326 . S
In78 O84 2.266 . S
In78 O85 2.326 . S
In78 O86 2.266 . S
In78 O87 2.326 . S
In78 O89 2.294 . S
In78 O90 2.326 . S
O79 In78 2.294 . S
O79 C88 1.240 . S
O80 In78 2.326 . S
O80 C88 1.252 . S
C81 O84 1.252 . S
C81 O85 1.260 . S
C82 O89 1.240 . S
C82 O90 1.252 . S
C83 O86 1.252 . S
C83 O87 1.260 . S
O84 In78 2.266 . S
O84 C81 1.252 . S
O85 In78 2.326 . S
O85 C81 1.260 . S
O86 In78 2.266 . S
O86 C83 1.252 . S
O87 In78 2.326 . S
O87 C83 1.260 . S
C88 O79 1.240 . S
C88 O80 1.252 . S
O89 In78 2.294 . S
O89 C82 1.240 . S
O90 In78 2.326 . S
O90 C82 1.252 . S
In91 O92 2.294 . S
In91 O93 2.328 1_455 S
In91 O97 2.265 1_455 S
In91 O98 2.332 . S
In91 O99 2.264 1_455 S
In91 O100 2.323 1_455 S
In91 O102 2.296 . S
In91 O103 2.329 . S
O92 In91 2.294 . S
O92 C101 1.240 . S
O93 In91 2.328 1_655 S
O93 C101 1.252 1_655 S
C94 O97 1.254 1_455 S
C94 O98 1.258 . S
C95 O102 1.240 . S
C95 O103 1.252 . S
C96 O99 1.252 . S
C96 O100 1.260 . S
O97 In91 2.265 1_655 S
O97 C94 1.254 1_655 S
O98 In91 2.332 . S
O98 C94 1.258 . S
O99 In91 2.264 1_655 S
O99 C96 1.252 . S
O100 In91 2.323 1_655 S
O100 C96 1.260 . S
C101 O92 1.240 . S
C101 O93 1.252 1_455 S
O102 In91 2.296 . S
O102 C95 1.240 . S
O103 In91 2.329 . S
O103 C95 1.252 . S
In104 O105 2.294 . S
In104 O106 2.326 . S
In104 O110 2.266 . S
In104 O111 2.326 . S
In104 O112 2.266 1_545 S
In104 O113 2.326 1_545 S
In104 O115 2.294 . S
In104 O116 2.326 . S
O105 In104 2.294 . S
O105 C114 1.240 . S
O106 In104 2.326 . S
O106 C114 1.252 . S
C107 O110 1.252 . S
C107 O111 1.260 . S
C108 O115 1.240 . S
C108 O116 1.252 . S
C109 O112 1.252 . S
C109 O113 1.260 . S
O110 In104 2.266 . S
O110 C107 1.252 . S
O111 In104 2.326 . S
O111 C107 1.260 . S
O112 In104 2.266 1_565 S
O112 C109 1.252 . S
O113 In104 2.326 1_565 S
O113 C109 1.260 . S
C114 O105 1.240 . S
C114 O106 1.252 . S
O115 In104 2.294 . S
O115 C108 1.240 . S
O116 In104 2.326 . S
O116 C108 1.252 . S
In117 O118 2.294 . S
In117 O119 2.326 . S
In117 O123 2.266 . S
In117 O124 2.326 . S
In117 O125 2.266 . S
In117 O126 2.326 . S
In117 O128 2.294 . S
In117 O129 2.326 . S
O118 In117 2.294 . S
O118 C127 1.240 . S
O119 In117 2.326 . S
O119 C127 1.252 . S
C120 O123 1.252 . S
C120 O124 1.260 . S
C121 O128 1.240 . S
C121 O129 1.252 . S
C122 O125 1.252 . S
C122 O126 1.260 . S
O123 In117 2.266 . S
O123 C120 1.252 . S
O124 In117 2.326 . S
O124 C120 1.260 . S
O125 In117 2.266 . S
O125 C122 1.252 . S
O126 In117 2.326 . S
O126 C122 1.260 . S
C127 O118 1.240 . S
C127 O119 1.252 . S
O128 In117 2.294 . S
O128 C121 1.240 . S
O129 In117 2.326 . S
O129 C121 1.252 . S
In130 O131 2.294 . S
In130 O132 2.326 . S
In130 O136 2.266 . S
In130 O137 2.326 . S
In130 O138 2.266 . S
In130 O139 2.326 . S
In130 O141 2.294 . S
In130 O142 2.326 . S
O131 In130 2.294 . S
O131 C140 1.240 . S
O132 In130 2.326 . S
O132 C140 1.252 . S
C133 O136 1.252 . S
C133 O137 1.260 . S
C134 O141 1.240 . S
C134 O142 1.252 . S
C135 O138 1.252 . S
C135 O139 1.260 . S
O136 In130 2.266 . S
O136 C133 1.252 . S
O137 In130 2.326 . S
O137 C133 1.260 . S
O138 In130 2.266 . S
O138 C135 1.252 . S
O139 In130 2.326 . S
O139 C135 1.260 . S
C140 O131 1.240 . S
C140 O132 1.252 . S
O141 In130 2.294 . S
O141 C134 1.240 . S
O142 In130 2.326 . S
O142 C134 1.252 . S
In143 O144 2.296 . S
In143 O145 2.329 . S
In143 O149 2.264 1_554 S
In143 O150 2.322 1_554 S
In143 O151 2.266 1_554 S
In143 O152 2.322 1_554 S
In143 O154 2.294 . S
In143 O155 2.327 . S
O144 In143 2.296 . S
O144 C153 1.240 . S
O145 In143 2.329 . S
O145 C153 1.252 . S
C146 O149 1.252 . S
C146 O150 1.260 . S
C147 O154 1.240 . S
C147 O155 1.252 . S
C148 O151 1.252 . S
C148 O152 1.266 . S
O149 In143 2.264 1_556 S
O149 C146 1.252 . S
O150 In143 2.322 1_556 S
O150 C146 1.260 . S
O151 In143 2.266 1_556 S
O151 C148 1.252 . S
O152 In143 2.322 1_556 S
O152 C148 1.266 . S
C153 O144 1.240 . S
C153 O145 1.252 . S
O154 In143 2.294 . S
O154 C147 1.240 . S
O155 In143 2.327 . S
O155 C147 1.252 . S
In156 O157 2.294 . S
In156 O158 2.326 . S
In156 O162 2.266 . S
In156 O163 2.326 . S
In156 O164 2.266 . S
In156 O165 2.326 . S
In156 O167 2.294 . S
In156 O168 2.326 . S
O157 In156 2.294 . S
O157 C166 1.240 . S
O158 In156 2.326 . S
O158 C166 1.252 . S
C159 O162 1.252 . S
C159 O163 1.260 . S
C160 O167 1.240 . S
C160 O168 1.252 . S
C161 O164 1.252 . S
C161 O165 1.260 . S
O162 In156 2.266 . S
O162 C159 1.252 . S
O163 In156 2.326 . S
O163 C159 1.260 . S
O164 In156 2.266 . S
O164 C161 1.252 . S
O165 In156 2.326 . S
O165 C161 1.260 . S
C166 O157 1.240 . S
C166 O158 1.252 . S
O167 In156 2.294 . S
O167 C160 1.240 . S
O168 In156 2.326 . S
O168 C160 1.252 . S
In169 O170 2.294 . S
In169 O171 2.326 . S
In169 O175 2.266 . S
In169 O176 2.326 . S
In169 O177 2.266 . S
In169 O178 2.326 . S
In169 O180 2.294 . S
In169 O181 2.326 . S
O170 In169 2.294 . S
O170 C179 1.240 . S
O171 In169 2.326 . S
O171 C179 1.252 . S
C172 O175 1.252 . S
C172 O176 1.260 . S
C173 O180 1.240 . S
C173 O181 1.252 . S
C174 O177 1.252 . S
C174 O178 1.260 . S
O175 In169 2.266 . S
O175 C172 1.252 . S
O176 In169 2.326 . S
O176 C172 1.260 . S
O177 In169 2.266 . S
O177 C174 1.252 . S
O178 In169 2.326 . S
O178 C174 1.260 . S
C179 O170 1.240 . S
C179 O171 1.252 . S
O180 In169 2.294 . S
O180 C173 1.240 . S
O181 In169 2.326 . S
O181 C173 1.252 . S
In182 O183 2.294 . S
In182 O184 2.326 . S
In182 O188 2.266 . S
In182 O189 2.326 . S
In182 O190 2.266 . S
In182 O191 2.326 . S
In182 O193 2.294 . S
In182 O194 2.326 . S
O183 In182 2.294 . S
O183 C192 1.240 . S
O184 In182 2.326 . S
O184 C192 1.252 . S
C185 O188 1.252 . S
C185 O189 1.260 . S
C186 O193 1.240 . S
C186 O194 1.252 . S
C187 O190 1.252 . S
C187 O191 1.260 . S
O188 In182 2.266 . S
O188 C185 1.252 . S
O189 In182 2.326 . S
O189 C185 1.260 . S
O190 In182 2.266 . S
O190 C187 1.252 . S
O191 In182 2.326 . S
O191 C187 1.260 . S
C192 O183 1.240 . S
C192 O184 1.252 . S
O193 In182 2.294 . S
O193 C186 1.240 . S
O194 In182 2.326 . S
O194 C186 1.252 . S
In195 O196 2.294 . S
In195 O197 2.326 . S
In195 O201 2.266 . S
In195 O202 2.326 . S
In195 O203 2.266 . S
In195 O204 2.326 . S
In195 O206 2.294 . S
In195 O207 2.326 . S
O196 In195 2.294 . S
O196 C205 1.240 . S
O197 In195 2.326 . S
O197 C205 1.252 . S
C198 O201 1.252 . S
C198 O202 1.260 . S
C199 O206 1.240 . S
C199 O207 1.252 . S
C200 O203 1.252 . S
C200 O204 1.260 . S
O201 In195 2.266 . S
O201 C198 1.252 . S
O202 In195 2.326 . S
O202 C198 1.260 . S
O203 In195 2.266 . S
O203 C200 1.252 . S
O204 In195 2.326 . S
O204 C200 1.260 . S
C205 O196 1.240 . S
C205 O197 1.252 . S
O206 In195 2.294 . S
O206 C199 1.240 . S
O207 In195 2.326 . S
O207 C199 1.252 . S
In208 O209 2.294 . S
In208 O210 2.326 . S
In208 O214 2.266 . S
In208 O215 2.326 . S
In208 O216 2.266 1_545 S
In208 O217 2.326 1_545 S
In208 O219 2.294 . S
In208 O220 2.326 . S
O209 In208 2.294 . S
O209 C218 1.240 . S
O210 In208 2.326 . S
O210 C218 1.252 . S
C211 O214 1.252 . S
C211 O215 1.260 . S
C212 O219 1.240 . S
C212 O220 1.252 . S
C213 O216 1.252 . S
C213 O217 1.260 . S
O214 In208 2.266 . S
O214 C211 1.252 . S
O215 In208 2.326 . S
O215 C211 1.260 . S
O216 In208 2.266 1_565 S
O216 C213 1.252 . S
O217 In208 2.326 1_565 S
O217 C213 1.260 . S
C218 O209 1.240 . S
C218 O210 1.252 . S
O219 In208 2.294 . S
O219 C212 1.240 . S
O220 In208 2.326 . S
O220 C212 1.252 . S
In221 O222 2.294 . S
In221 O223 2.326 . S
In221 O227 2.266 . S
In221 O228 2.326 . S
In221 O229 2.266 . S
In221 O230 2.326 . S
In221 O232 2.294 . S
In221 O233 2.326 . S
O222 In221 2.294 . S
O222 C231 1.240 . S
O223 In221 2.326 . S
O223 C231 1.252 . S
C224 O227 1.252 . S
C224 O228 1.260 . S
C225 O232 1.240 . S
C225 O233 1.252 . S
C226 O229 1.252 . S
C226 O230 1.260 . S
O227 In221 2.266 . S
O227 C224 1.252 . S
O228 In221 2.326 . S
O228 C224 1.260 . S
O229 In221 2.266 . S
O229 C226 1.252 . S
O230 In221 2.326 . S
O230 C226 1.260 . S
C231 O222 1.240 . S
C231 O223 1.252 . S
O232 In221 2.294 . S
O232 C225 1.240 . S
O233 In221 2.326 . S
O233 C225 1.252 . S
In234 O235 2.294 . S
In234 O236 2.326 . S
In234 O240 2.266 . S
In234 O241 2.326 . S
In234 O242 2.266 . S
In234 O243 2.326 . S
In234 O245 2.294 . S
In234 O246 2.326 . S
O235 In234 2.294 . S
O235 C244 1.240 . S
O236 In234 2.326 . S
O236 C244 1.252 . S
C237 O240 1.252 . S
C237 O241 1.260 . S
C238 O245 1.240 . S
C238 O246 1.252 . S
C239 O242 1.252 . S
C239 O243 1.260 . S
O240 In234 2.266 . S
O240 C237 1.252 . S
O241 In234 2.326 . S
O241 C237 1.260 . S
O242 In234 2.266 . S
O242 C239 1.252 . S
O243 In234 2.326 . S
O243 C239 1.260 . S
C244 O235 1.240 . S
C244 O236 1.252 . S
O245 In234 2.294 . S
O245 C238 1.240 . S
O246 In234 2.326 . S
O246 C238 1.252 . S
In247 O248 2.294 . S
In247 O249 2.326 . S
In247 O253 2.266 . S
In247 O254 2.326 . S
In247 O255 2.266 . S
In247 O256 2.326 . S
In247 O258 2.294 . S
In247 O259 2.326 . S
O248 In247 2.294 . S
O248 C257 1.240 . S
O249 In247 2.326 . S
O249 C257 1.252 . S
C250 O253 1.252 . S
C250 O254 1.260 . S
C251 O258 1.240 . S
C251 O259 1.252 . S
C252 O255 1.252 . S
C252 O256 1.260 . S
O253 In247 2.266 . S
O253 C250 1.252 . S
O254 In247 2.326 . S
O254 C250 1.260 . S
O255 In247 2.266 . S
O255 C252 1.252 . S
O256 In247 2.326 . S
O256 C252 1.260 . S
C257 O248 1.240 . S
C257 O249 1.252 . S
O258 In247 2.294 . S
O258 C251 1.240 . S
O259 In247 2.326 . S
O259 C251 1.252 . S
In260 O261 2.294 . S
In260 O262 2.326 . S
In260 O266 2.266 . S
In260 O267 2.326 . S
In260 O268 2.266 1_554 S
In260 O269 2.326 1_554 S
In260 O271 2.294 . S
In260 O272 2.326 . S
O261 In260 2.294 . S
O261 C270 1.240 . S
O262 In260 2.326 . S
O262 C270 1.252 . S
C263 O266 1.252 . S
C263 O267 1.260 . S
C264 O271 1.240 . S
C264 O272 1.252 . S
C265 O268 1.252 . S
C265 O269 1.260 . S
O266 In260 2.266 . S
O266 C263 1.252 . S
O267 In260 2.326 . S
O267 C263 1.260 . S
O268 In260 2.266 1_556 S
O268 C265 1.252 . S
O269 In260 2.326 1_556 S
O269 C265 1.260 . S
C270 O261 1.240 . S
C270 O262 1.252 . S
O271 In260 2.294 . S
O271 C264 1.240 . S
O272 In260 2.326 . S
O272 C264 1.252 . S
In273 O274 2.294 . S
In273 O275 2.326 . S
In273 O279 2.266 . S
In273 O280 2.326 . S
In273 O281 2.266 . S
In273 O282 2.326 . S
In273 O284 2.294 . S
In273 O285 2.326 . S
O274 In273 2.294 . S
O274 C283 1.240 . S
O275 In273 2.326 . S
O275 C283 1.252 . S
C276 O279 1.252 . S
C276 O280 1.260 . S
C277 O284 1.240 . S
C277 O285 1.252 . S
C278 O281 1.252 . S
C278 O282 1.260 . S
O279 In273 2.266 . S
O279 C276 1.252 . S
O280 In273 2.326 . S
O280 C276 1.260 . S
O281 In273 2.266 . S
O281 C278 1.252 . S
O282 In273 2.326 . S
O282 C278 1.260 . S
C283 O274 1.240 . S
C283 O275 1.252 . S
O284 In273 2.294 . S
O284 C277 1.240 . S
O285 In273 2.326 . S
O285 C277 1.252 . S
In286 O287 2.294 . S
In286 O288 2.326 . S
In286 O292 2.266 . S
In286 O293 2.326 . S
In286 O294 2.266 . S
In286 O295 2.326 . S
In286 O297 2.294 . S
In286 O298 2.326 . S
O287 In286 2.294 . S
O287 C296 1.240 . S
O288 In286 2.326 . S
O288 C296 1.252 . S
C289 O292 1.252 . S
C289 O293 1.260 . S
C290 O297 1.240 . S
C290 O298 1.252 . S
C291 O294 1.252 . S
C291 O295 1.260 . S
O292 In286 2.266 . S
O292 C289 1.252 . S
O293 In286 2.326 . S
O293 C289 1.260 . S
O294 In286 2.266 . S
O294 C291 1.252 . S
O295 In286 2.326 . S
O295 C291 1.260 . S
C296 O287 1.240 . S
C296 O288 1.252 . S
O297 In286 2.294 . S
O297 C290 1.240 . S
O298 In286 2.326 . S
O298 C290 1.252 . S
In299 O300 2.294 . S
In299 O301 2.326 . S
In299 O305 2.266 . S
In299 O306 2.326 . S
In299 O307 2.266 . S
In299 O308 2.326 . S
In299 O310 2.294 . S
In299 O311 2.326 . S
O300 In299 2.294 . S
O300 C309 1.240 . S
O301 In299 2.326 . S
O301 C309 1.252 . S
C302 O305 1.252 . S
C302 O306 1.260 . S
C303 O310 1.240 . S
C303 O311 1.252 . S
C304 O307 1.252 . S
C304 O308 1.260 . S
O305 In299 2.266 . S
O305 C302 1.252 . S
O306 In299 2.326 . S
O306 C302 1.260 . S
O307 In299 2.266 . S
O307 C304 1.252 . S
O308 In299 2.326 . S
O308 C304 1.260 . S
C309 O300 1.240 . S
C309 O301 1.252 . S
O310 In299 2.294 . S
O310 C303 1.240 . S
O311 In299 2.326 . S
O311 C303 1.252 . S
Tb312 N341 2.617 . S
Tb312 N347 2.572 . S
Tb312 O356 2.465 . S
Tb312 O357 2.387 . S
Tb312 O359 2.428 . S
Tb312 O360 2.308 . S
Tb312 O364 2.349 . S
Tb312 O367 2.393 . S
Tb312 C376 2.802 . S
C313 N314 1.379 1_564 S
C313 C316 1.416 1_554 S
C313 C320 1.424 . S
N314 C313 1.379 1_546 S
N314 C317 1.319 1_655 S
N314 Tb323 2.617 1_656 S
C315 C317 1.387 1_665 S
C315 C318 1.339 . S
C315 H335 0.930 . S
C316 C313 1.416 1_556 S
C316 C318 1.416 . S
C316 C322 1.448 . S
C317 N314 1.319 1_455 S
C317 C315 1.387 1_445 S
C317 H328 0.953 . S
C318 C315 1.339 . S
C318 C316 1.416 . S
C318 H339 0.930 . S
C319 C320 1.413 . S
C319 C321 1.427 . S
C319 C325 1.416 . S
C320 C313 1.424 . S
C320 C319 1.413 . S
C320 N324 1.361 1_565 S
C321 C319 1.427 . S
C321 C322 1.328 1_554 S
C321 H336 0.929 . S
C322 C316 1.448 . S
C322 C321 1.328 1_556 S
C322 H337 0.930 . S
Tb323 N314 2.617 1_454 S
Tb323 N324 2.572 1_455 S
Tb323 O358 2.349 . S
Tb323 O361 2.362 1_554 S
Tb323 O362 2.465 1_455 S
Tb323 O363 2.387 . S
Tb323 O365 2.428 1_455 S
Tb323 O366 2.308 . S
Tb323 C387 2.802 1_455 S
N324 C320 1.361 1_545 S
N324 Tb323 2.572 1_655 S
N324 C326 1.340 . S
C325 C319 1.416 . S
C325 C327 1.332 . S
C325 H333 0.931 . S
C326 N324 1.340 . S
C326 C327 1.407 1_545 S
C326 H332 0.930 . S
C327 C325 1.332 . S
C327 C326 1.407 1_565 S
C327 H329 0.929 . S
H328 C317 0.953 . S
H329 C327 0.929 . S
H330 C345 0.930 . S
H331 C352 0.929 . S
H332 C326 0.930 . S
H333 C325 0.931 . S
H334 C348 0.930 . S
H335 C315 0.930 . S
H336 C321 0.929 . S
H337 C322 0.930 . S
H338 C343 0.930 . S
H339 C318 0.930 . S
H340 C351 0.931 . S
N341 Tb312 2.617 . S
N341 C342 1.379 . S
N341 C345 1.334 . S
C342 N341 1.379 . S
C342 C344 1.416 . S
C342 C350 1.424 . S
C343 H338 0.930 . S
C343 C345 1.390 . S
C343 C346 1.339 . S
C344 C342 1.416 . S
C344 C346 1.416 . S
C344 C377 1.448 . S
C345 H330 0.930 . S
C345 N341 1.334 . S
C345 C343 1.390 . S
C346 C343 1.339 . S
C346 C344 1.416 . S
C346 H353 0.930 . S
N347 Tb312 2.572 . S
N347 C348 1.340 . S
N347 C350 1.361 . S
C348 H334 0.930 . S
C348 N347 1.340 . S
C348 C352 1.407 . S
C349 C350 1.413 . S
C349 C351 1.416 . S
C349 C378 1.427 . S
C350 C342 1.424 . S
C350 N347 1.361 . S
C350 C349 1.413 . S
C351 H340 0.931 . S
C351 C349 1.416 . S
C351 C352 1.332 . S
C352 H331 0.929 . S
C352 C348 1.407 . S
C352 C351 1.332 . S
H353 C346 0.930 . S
H354 C377 0.930 . S
H355 C378 0.929 . S
O356 Tb312 2.465 . S
O356 C376 1.264 . S
O357 Tb312 2.387 . S
O357 C368 1.264 . S
O358 Tb323 2.349 . S
O358 C368 1.243 . S
O359 Tb312 2.428 . S
O359 C376 1.256 . S
O360 Tb312 2.308 . S
O360 C375 1.266 . S
O361 Tb323 2.362 1_556 S
O361 C375 1.244 1_556 S
O362 Tb323 2.465 1_655 S
O362 C387 1.264 . S
O363 Tb323 2.387 . S
O363 C379 1.264 . S
O364 Tb312 2.349 . S
O364 C379 1.243 . S
O365 Tb323 2.428 1_655 S
O365 C387 1.256 . S
O366 Tb323 2.308 . S
O366 C386 1.266 . S
O367 Tb312 2.393 . S
O367 C386 1.248 . S
C368 O357 1.264 . S
C368 O358 1.243 . S
C369 C372 1.399 . S
C369 C374 1.383 . S
C369 C376 1.496 . S
C370 C371 1.399 . S
C370 C374 1.389 . S
C371 C370 1.399 . S
C371 C373 1.380 . S
C371 H388 0.929 . S
C372 C369 1.399 . S
C372 C373 1.392 . S
C372 H389 0.929 . S
C373 C371 1.380 . S
C373 C372 1.392 . S
C373 H390 0.929 . S
C374 C369 1.383 . S
C374 C370 1.389 . S
C374 H391 0.931 . S
C375 O360 1.266 . S
C375 O361 1.244 1_554 S
C376 Tb312 2.802 . S
C376 O356 1.264 . S
C376 O359 1.256 . S
C376 C369 1.496 . S
C377 C344 1.448 . S
C377 H354 0.930 . S
C377 C378 1.328 . S
C378 C349 1.427 . S
C378 H355 0.929 . S
C378 C377 1.328 . S
C379 O363 1.264 . S
C379 O364 1.243 . S
C380 C383 1.399 1_554 S
C380 C384 1.383 . S
C380 C387 1.496 . S
C381 C382 1.399 . S
C381 C384 1.389 . S
C382 C381 1.399 . S
C382 C385 1.380 1_554 S
C382 H392 0.929 . S
C383 C380 1.399 1_556 S
C383 C385 1.392 . S
C383 H393 0.929 . S
C384 C380 1.383 . S
C384 C381 1.389 . S
C384 H394 0.931 . S
C385 C382 1.380 1_556 S
C385 C383 1.392 . S
C385 H395 0.929 . S
C386 O366 1.266 . S
C386 O367 1.248 . S
C387 Tb323 2.802 1_655 S
C387 O362 1.264 . S
C387 O365 1.256 . S
C387 C380 1.496 . S
H388 C371 0.929 . S
H389 C372 0.929 . S
H390 C373 0.929 . S
H391 C374 0.931 . S
H392 C382 0.929 . S
H393 C383 0.929 . S
H394 C384 0.931 . S
H395 C385 0.929 . S
Tb396 N425 2.617 . S
Tb396 N431 2.572 . S
Tb396 O440 2.465 . S
Tb396 O441 2.387 . S
Tb396 O443 2.428 . S
Tb396 O444 2.308 . S
Tb396 O448 2.349 . S
Tb396 O451 2.393 . S
Tb396 C460 2.802 . S
C397 N398 1.379 . S
C397 C400 1.416 . S
C397 C404 1.424 . S
N398 C397 1.379 . S
N398 C401 1.334 . S
N398 Tb407 2.617 . S
C399 C401 1.390 . S
C399 C402 1.339 . S
C399 H419 0.930 . S
C400 C397 1.416 . S
C400 C402 1.416 . S
C400 C406 1.448 . S
C401 N398 1.334 . S
C401 C399 1.390 . S
C401 H412 0.930 . S
C402 C399 1.339 . S
C402 C400 1.416 . S
C402 H423 0.930 . S
C403 C404 1.413 . S
C403 C405 1.427 . S
C403 C409 1.416 . S
C404 C397 1.424 . S
C404 C403 1.413 . S
C404 N408 1.361 . S
C405 C403 1.427 . S
C405 C406 1.328 . S
C405 H420 0.929 . S
C406 C400 1.448 . S
C406 C405 1.328 . S
C406 H421 0.930 . S
Tb407 N398 2.617 . S
Tb407 N408 2.572 . S
Tb407 O442 2.349 . S
Tb407 O445 2.393 . S
Tb407 O446 2.465 . S
Tb407 O447 2.387 . S
Tb407 O449 2.428 . S
Tb407 O450 2.308 . S
Tb407 C471 2.802 . S
N408 C404 1.361 . S
N408 Tb407 2.572 . S
N408 C410 1.340 . S
C409 C403 1.416 . S
C409 C411 1.332 . S
C409 H417 0.931 . S
C410 N408 1.340 . S
C410 C411 1.407 . S
C410 H416 0.930 . S
C411 C409 1.332 . S
C411 C410 1.407 . S
C411 H413 0.929 . S
H412 C401 0.930 . S
H413 C411 0.929 . S
H414 C429 0.930 . S
H415 C436 0.929 . S
H416 C410 0.930 . S
H417 C409 0.931 . S
H418 C432 0.930 . S
H419 C399 0.930 . S
H420 C405 0.929 . S
H421 C406 0.930 . S
H422 C427 0.930 . S
H423 C402 0.930 . S
H424 C435 0.931 . S
N425 Tb396 2.617 . S
N425 C426 1.379 . S
N425 C429 1.334 . S
C426 N425 1.379 . S
C426 C428 1.416 . S
C426 C434 1.424 . S
C427 H422 0.930 . S
C427 C429 1.390 . S
C427 C430 1.339 . S
C428 C426 1.416 . S
C428 C430 1.416 . S
C428 C461 1.448 . S
C429 H414 0.930 . S
C429 N425 1.334 . S
C429 C427 1.390 . S
C430 C427 1.339 . S
C430 C428 1.416 . S
C430 H437 0.930 . S
N431 Tb396 2.572 . S
N431 C432 1.340 . S
N431 C434 1.361 . S
C432 H418 0.930 . S
C432 N431 1.340 . S
C432 C436 1.407 . S
C433 C434 1.413 . S
C433 C435 1.416 . S
C433 C462 1.427 . S
C434 C426 1.424 . S
C434 N431 1.361 . S
C434 C433 1.413 . S
C435 H424 0.931 . S
C435 C433 1.416 . S
C435 C436 1.332 . S
C436 H415 0.929 . S
C436 C432 1.407 . S
C436 C435 1.332 . S
H437 C430 0.930 . S
H438 C461 0.930 . S
H439 C462 0.929 . S
O440 Tb396 2.465 . S
O440 C460 1.264 . S
O441 Tb396 2.387 . S
O441 C452 1.264 . S
O442 Tb407 2.349 . S
O442 C452 1.243 . S
O443 Tb396 2.428 . S
O443 C460 1.256 . S
O444 Tb396 2.308 . S
O444 C459 1.266 . S
O445 Tb407 2.393 . S
O445 C459 1.248 . S
O446 Tb407 2.465 . S
O446 C471 1.264 . S
O447 Tb407 2.387 . S
O447 C463 1.264 . S
O448 Tb396 2.349 . S
O448 C463 1.243 . S
O449 Tb407 2.428 . S
O449 C471 1.256 . S
O450 Tb407 2.308 . S
O450 C470 1.266 . S
O451 Tb396 2.393 . S
O451 C470 1.248 . S
C452 O441 1.264 . S
C452 O442 1.243 . S
C453 C456 1.399 . S
C453 C458 1.383 . S
C453 C460 1.496 . S
C454 C455 1.399 . S
C454 C458 1.389 . S
C455 C454 1.399 . S
C455 C457 1.380 . S
C455 H472 0.929 . S
C456 C453 1.399 . S
C456 C457 1.392 . S
C456 H473 0.929 . S
C457 C455 1.380 . S
C457 C456 1.392 . S
C457 H474 0.929 . S
C458 C453 1.383 . S
C458 C454 1.389 . S
C458 H475 0.931 . S
C459 O444 1.266 . S
C459 O445 1.248 . S
C460 Tb396 2.802 . S
C460 O440 1.264 . S
C460 O443 1.256 . S
C460 C453 1.496 . S
C461 C428 1.448 . S
C461 H438 0.930 . S
C461 C462 1.328 . S
C462 C433 1.427 . S
C462 H439 0.929 . S
C462 C461 1.328 . S
C463 O447 1.264 . S
C463 O448 1.243 . S
C464 C467 1.399 . S
C464 C468 1.383 . S
C464 C471 1.496 . S
C465 C466 1.399 . S
C465 C468 1.389 . S
C466 C465 1.399 . S
C466 C469 1.380 . S
C466 H476 0.929 . S
C467 C464 1.399 . S
C467 C469 1.392 . S
C467 H477 0.929 . S
C468 C464 1.383 . S
C468 C465 1.389 . S
C468 H478 0.931 . S
C469 C466 1.380 . S
C469 C467 1.392 . S
C469 H479 0.929 . S
C470 O450 1.266 . S
C470 O451 1.248 . S
C471 Tb407 2.802 . S
C471 O446 1.264 . S
C471 O449 1.256 . S
C471 C464 1.496 . S
H472 C455 0.929 . S
H473 C456 0.929 . S
H474 C457 0.929 . S
H475 C458 0.931 . S
H476 C466 0.929 . S
H477 C467 0.929 . S
H478 C468 0.931 . S
H479 C469 0.929 . S
Tb480 N509 2.617 1_545 S
Tb480 N515 2.572 1_545 S
Tb480 O524 2.465 . S
Tb480 O525 2.387 1_545 S
Tb480 O527 2.428 . S
Tb480 O528 2.308 . S
Tb480 O532 2.349 . S
Tb480 O535 2.393 . S
Tb480 C544 2.802 . S
C481 N482 1.379 . S
C481 C484 1.416 . S
C481 C488 1.424 . S
N482 C481 1.379 . S
N482 C485 1.334 . S
N482 Tb491 2.617 . S
C483 C485 1.390 . S
C483 C486 1.339 . S
C483 H503 0.930 . S
C484 C481 1.416 . S
C484 C486 1.416 . S
C484 C490 1.448 . S
C485 N482 1.334 . S
C485 C483 1.390 . S
C485 H496 0.930 . S
C486 C483 1.339 . S
C486 C484 1.416 . S
C486 H507 0.930 . S
C487 C488 1.413 . S
C487 C489 1.427 . S
C487 C493 1.416 . S
C488 C481 1.424 . S
C488 C487 1.413 . S
C488 N492 1.361 . S
C489 C487 1.427 . S
C489 C490 1.328 . S
C489 H504 0.929 . S
C490 C484 1.448 . S
C490 C489 1.328 . S
C490 H505 0.930 . S
Tb491 N482 2.617 . S
Tb491 N492 2.572 . S
Tb491 O526 2.349 1_545 S
Tb491 O529 2.393 . S
Tb491 O530 2.465 . S
Tb491 O531 2.387 . S
Tb491 O533 2.428 . S
Tb491 O534 2.308 . S
Tb491 C555 2.802 . S
N492 C488 1.361 . S
N492 Tb491 2.572 . S
N492 C494 1.340 . S
C493 C487 1.416 . S
C493 C495 1.332 . S
C493 H501 0.931 . S
C494 N492 1.340 . S
C494 C495 1.407 . S
C494 H500 0.930 . S
C495 C493 1.332 . S
C495 C494 1.407 . S
C495 H497 0.929 . S
H496 C485 0.930 . S
H497 C495 0.929 . S
H498 C513 0.930 1_545 S
H499 C520 0.929 . S
H500 C494 0.930 . S
H501 C493 0.931 . S
H502 C516 0.930 . S
H503 C483 0.930 . S
H504 C489 0.929 . S
H505 C490 0.930 . S
H506 C511 0.930 . S
H507 C486 0.930 . S
H508 C519 0.931 . S
N509 Tb480 2.617 1_565 S
N509 C510 1.379 . S
N509 C513 1.334 . S
C510 N509 1.379 . S
C510 C512 1.416 . S
C510 C518 1.424 . S
C511 H506 0.930 . S
C511 C513 1.390 . S
C511 C514 1.339 . S
C512 C510 1.416 . S
C512 C514 1.416 . S
C512 C545 1.448 . S
C513 H498 0.930 1_565 S
C513 N509 1.334 . S
C513 C511 1.390 . S
C514 C511 1.339 . S
C514 C512 1.416 . S
C514 H521 0.930 . S
N515 Tb480 2.572 1_565 S
N515 C516 1.340 . S
N515 C518 1.361 . S
C516 H502 0.930 . S
C516 N515 1.340 . S
C516 C520 1.407 . S
C517 C518 1.413 . S
C517 C519 1.416 . S
C517 C546 1.427 . S
C518 C510 1.424 . S
C518 N515 1.361 . S
C518 C517 1.413 . S
C519 H508 0.931 . S
C519 C517 1.416 . S
C519 C520 1.332 . S
C520 H499 0.929 . S
C520 C516 1.407 . S
C520 C519 1.332 . S
H521 C514 0.930 . S
H522 C545 0.930 . S
H523 C546 0.929 . S
O524 Tb480 2.465 . S
O524 C544 1.264 . S
O525 Tb480 2.387 1_565 S
O525 C536 1.264 . S
O526 Tb491 2.349 1_565 S
O526 C536 1.243 . S
O527 Tb480 2.428 . S
O527 C544 1.256 . S
O528 Tb480 2.308 . S
O528 C543 1.266 . S
O529 Tb491 2.393 . S
O529 C543 1.248 . S
O530 Tb491 2.465 . S
O530 C555 1.264 . S
O531 Tb491 2.387 . S
O531 C547 1.264 . S
O532 Tb480 2.349 . S
O532 C547 1.243 . S
O533 Tb491 2.428 . S
O533 C555 1.256 . S
O534 Tb491 2.308 . S
O534 C554 1.266 . S
O535 Tb480 2.393 . S
O535 C554 1.248 . S
C536 O525 1.264 . S
C536 O526 1.243 . S
C537 C540 1.399 . S
C537 C542 1.383 . S
C537 C544 1.496 . S
C538 C539 1.399 . S
C538 C542 1.389 . S
C539 C538 1.399 . S
C539 C541 1.380 . S
C539 H556 0.929 . S
C540 C537 1.399 . S
C540 C541 1.392 . S
C540 H557 0.929 . S
C541 C539 1.380 . S
C541 C540 1.392 . S
C541 H558 0.929 . S
C542 C537 1.383 . S
C542 C538 1.389 . S
C542 H559 0.931 . S
C543 O528 1.266 . S
C543 O529 1.248 . S
C544 Tb480 2.802 . S
C544 O524 1.264 . S
C544 O527 1.256 . S
C544 C537 1.496 . S
C545 C512 1.448 . S
C545 H522 0.930 . S
C545 C546 1.328 . S
C546 C517 1.427 . S
C546 H523 0.929 . S
C546 C545 1.328 . S
C547 O531 1.264 . S
C547 O532 1.243 . S
C548 C551 1.399 . S
C548 C552 1.383 . S
C548 C555 1.496 1_565 S
C549 C550 1.399 . S
C549 C552 1.389 . S
C550 C549 1.399 . S
C550 C553 1.380 . S
C550 H560 0.929 . S
C551 C548 1.399 . S
C551 C553 1.392 . S
C551 H561 0.929 . S
C552 C548 1.383 . S
C552 C549 1.389 . S
C552 H562 0.931 . S
C553 C550 1.380 . S
C553 C551 1.392 . S
C553 H563 0.929 . S
C554 O534 1.266 . S
C554 O535 1.248 . S
C555 Tb491 2.802 . S
C555 O530 1.264 . S
C555 O533 1.256 . S
C555 C548 1.496 1_545 S
H556 C539 0.929 . S
H557 C540 0.929 . S
H558 C541 0.929 . S
H559 C542 0.931 . S
H560 C550 0.929 . S
H561 C551 0.929 . S
H562 C552 0.931 . S
H563 C553 0.929 . S
Tb564 N593 2.617 . S
Tb564 N599 2.572 . S
Tb564 O608 2.465 . S
Tb564 O609 2.387 . S
Tb564 O611 2.428 . S
Tb564 O612 2.308 . S
Tb564 O616 2.349 . S
Tb564 O619 2.393 . S
Tb564 C628 2.802 . S
C565 N566 1.379 . S
C565 C568 1.416 . S
C565 C572 1.424 . S
N566 C565 1.379 . S
N566 C569 1.334 . S
N566 Tb575 2.617 . S
C567 C569 1.390 . S
C567 C570 1.339 . S
C567 H587 0.930 . S
C568 C565 1.416 . S
C568 C570 1.416 . S
C568 C574 1.448 . S
C569 N566 1.334 . S
C569 C567 1.390 . S
C569 H580 0.930 . S
C570 C567 1.339 . S
C570 C568 1.416 . S
C570 H591 0.930 . S
C571 C572 1.413 . S
C571 C573 1.427 . S
C571 C577 1.416 . S
C572 C565 1.424 . S
C572 C571 1.413 . S
C572 N576 1.361 . S
C573 C571 1.427 . S
C573 C574 1.328 . S
C573 H588 0.929 . S
C574 C568 1.448 . S
C574 C573 1.328 . S
C574 H589 0.930 . S
Tb575 N566 2.617 . S
Tb575 N576 2.572 . S
Tb575 O610 2.349 . S
Tb575 O613 2.393 . S
Tb575 O614 2.465 . S
Tb575 O615 2.387 . S
Tb575 O617 2.428 . S
Tb575 O618 2.308 . S
Tb575 C639 2.802 . S
N576 C572 1.361 . S
N576 Tb575 2.572 . S
N576 C578 1.340 . S
C577 C571 1.416 . S
C577 C579 1.332 . S
C577 H585 0.931 . S
C578 N576 1.340 . S
C578 C579 1.407 . S
C578 H584 0.930 . S
C579 C577 1.332 . S
C579 C578 1.407 . S
C579 H581 0.929 . S
H580 C569 0.930 . S
H581 C579 0.929 . S
H582 C597 0.930 . S
H583 C604 0.929 . S
H584 C578 0.930 . S
H585 C577 0.931 . S
H586 C600 0.930 . S
H587 C567 0.930 . S
H588 C573 0.929 . S
H589 C574 0.930 . S
H590 C595 0.930 . S
H591 C570 0.930 . S
H592 C603 0.931 . S
N593 Tb564 2.617 . S
N593 C594 1.379 . S
N593 C597 1.334 . S
C594 N593 1.379 . S
C594 C596 1.416 . S
C594 C602 1.424 . S
C595 H590 0.930 . S
C595 C597 1.390 . S
C595 C598 1.339 . S
C596 C594 1.416 . S
C596 C598 1.416 . S
C596 C629 1.448 . S
C597 H582 0.930 . S
C597 N593 1.334 . S
C597 C595 1.390 . S
C598 C595 1.339 . S
C598 C596 1.416 . S
C598 H605 0.930 . S
N599 Tb564 2.572 . S
N599 C600 1.340 . S
N599 C602 1.361 . S
C600 H586 0.930 . S
C600 N599 1.340 . S
C600 C604 1.407 . S
C601 C602 1.413 . S
C601 C603 1.416 . S
C601 C630 1.427 . S
C602 C594 1.424 . S
C602 N599 1.361 . S
C602 C601 1.413 . S
C603 H592 0.931 . S
C603 C601 1.416 . S
C603 C604 1.332 . S
C604 H583 0.929 . S
C604 C600 1.407 . S
C604 C603 1.332 . S
H605 C598 0.930 . S
H606 C629 0.930 . S
H607 C630 0.929 . S
O608 Tb564 2.465 . S
O608 C628 1.264 . S
O609 Tb564 2.387 . S
O609 C620 1.264 . S
O610 Tb575 2.349 . S
O610 C620 1.243 . S
O611 Tb564 2.428 . S
O611 C628 1.256 . S
O612 Tb564 2.308 . S
O612 C627 1.266 . S
O613 Tb575 2.393 . S
O613 C627 1.248 . S
O614 Tb575 2.465 . S
O614 C639 1.264 . S
O615 Tb575 2.387 . S
O615 C631 1.264 . S
O616 Tb564 2.349 . S
O616 C631 1.243 . S
O617 Tb575 2.428 . S
O617 C639 1.256 . S
O618 Tb575 2.308 . S
O618 C638 1.266 . S
O619 Tb564 2.393 . S
O619 C638 1.248 . S
C620 O609 1.264 . S
C620 O610 1.243 . S
C621 C624 1.399 . S
C621 C626 1.383 . S
C621 C628 1.496 . S
C622 C623 1.399 . S
C622 C626 1.389 . S
C623 C622 1.399 . S
C623 C625 1.380 . S
C623 H640 0.929 . S
C624 C621 1.399 . S
C624 C625 1.392 . S
C624 H641 0.929 . S
C625 C623 1.380 . S
C625 C624 1.392 . S
C625 H642 0.929 . S
C626 C621 1.383 . S
C626 C622 1.389 . S
C626 H643 0.931 . S
C627 O612 1.266 . S
C627 O613 1.248 . S
C628 Tb564 2.802 . S
C628 O608 1.264 . S
C628 O611 1.256 . S
C628 C621 1.496 . S
C629 C596 1.448 . S
C629 H606 0.930 . S
C629 C630 1.328 . S
C630 C601 1.427 . S
C630 H607 0.929 . S
C630 C629 1.328 . S
C631 O615 1.264 . S
C631 O616 1.243 . S
C632 C635 1.399 . S
C632 C636 1.383 . S
C632 C639 1.496 . S
C633 C634 1.399 . S
C633 C636 1.389 . S
C634 C633 1.399 . S
C634 C637 1.380 . S
C634 H644 0.929 . S
C635 C632 1.399 . S
C635 C637 1.392 . S
C635 H645 0.929 . S
C636 C632 1.383 . S
C636 C633 1.389 . S
C636 H646 0.931 . S
C637 C634 1.380 . S
C637 C635 1.392 . S
C637 H647 0.929 . S
C638 O618 1.266 . S
C638 O619 1.248 . S
C639 Tb575 2.802 . S
C639 O614 1.264 . S
C639 O617 1.256 . S
C639 C632 1.496 . S
H640 C623 0.929 . S
H641 C624 0.929 . S
H642 C625 0.929 . S
H643 C626 0.931 . S
H644 C634 0.929 . S
H645 C635 0.929 . S
H646 C636 0.931 . S
H647 C637 0.929 . S
Tb648 N677 2.617 . S
Tb648 N683 2.572 . S
Tb648 O692 2.465 . S
Tb648 O693 2.387 1_565 S
Tb648 O695 2.428 . S
Tb648 O696 2.308 . S
Tb648 O700 2.349 1_565 S
Tb648 O703 2.393 1_565 S
Tb648 C712 2.802 . S
C649 N650 1.379 . S
C649 C652 1.416 . S
C649 C656 1.424 . S
N650 C649 1.379 . S
N650 C653 1.334 1_455 S
N650 Tb659 2.617 . S
C651 C653 1.390 . S
C651 C654 1.339 . S
C651 H671 0.930 . S
C652 C649 1.416 . S
C652 C654 1.416 1_455 S
C652 C658 1.448 . S
C653 N650 1.334 1_655 S
C653 C651 1.390 . S
C653 H664 0.930 . S
C654 C651 1.339 . S
C654 C652 1.416 1_655 S
C654 H675 0.930 . S
C655 C656 1.413 . S
C655 C657 1.427 . S
C655 C661 1.416 . S
C656 C649 1.424 . S
C656 C655 1.413 . S
C656 N660 1.361 . S
C657 C655 1.427 . S
C657 C658 1.328 . S
C657 H672 0.929 . S
C658 C652 1.448 . S
C658 C657 1.328 . S
C658 H673 0.930 . S
Tb659 N650 2.617 . S
Tb659 N660 2.572 . S
Tb659 O694 2.349 . S
Tb659 O697 2.393 1_455 S
Tb659 O698 2.465 . S
Tb659 O699 2.387 . S
Tb659 O701 2.428 . S
Tb659 O702 2.308 . S
Tb659 C723 2.802 . S
N660 C656 1.361 . S
N660 Tb659 2.572 . S
N660 C662 1.340 . S
C661 C655 1.416 . S
C661 C663 1.332 . S
C661 H669 0.931 . S
C662 N660 1.340 . S
C662 C663 1.407 . S
C662 H668 0.930 . S
C663 C661 1.332 . S
C663 C662 1.407 . S
C663 H665 0.929 . S
H664 C653 0.930 . S
H665 C663 0.929 . S
H666 C681 0.958 . S
H667 C688 0.953 . S
H668 C662 0.930 . S
H669 C661 0.931 . S
H670 C684 0.930 . S
H671 C651 0.930 . S
H672 C657 0.929 . S
H673 C658 0.930 . S
H674 C679 0.930 . S
H675 C654 0.930 . S
H676 C687 0.931 . S
N677 Tb648 2.617 . S
N677 C678 1.379 . S
N677 C681 1.334 . S
C678 N677 1.379 . S
C678 C680 1.416 . S
C678 C686 1.424 . S
C679 H674 0.930 . S
C679 C681 1.390 . S
C679 C682 1.339 . S
C680 C678 1.416 . S
C680 C682 1.416 . S
C680 C713 1.448 . S
C681 H666 0.958 . S
C681 N677 1.334 . S
C681 C679 1.390 . S
C682 C679 1.339 . S
C682 C680 1.416 . S
C682 H689 0.930 . S
N683 Tb648 2.572 . S
N683 C684 1.340 . S
N683 C686 1.361 . S
C684 H670 0.930 . S
C684 N683 1.340 . S
C684 C688 1.399 1_455 S
C685 C686 1.413 . S
C685 C687 1.416 . S
C685 C714 1.427 . S
C686 C678 1.424 . S
C686 N683 1.361 . S
C686 C685 1.413 . S
C687 H676 0.931 . S
C687 C685 1.416 . S
C687 C688 1.317 1_455 S
C688 H667 0.953 . S
C688 C684 1.399 1_655 S
C688 C687 1.317 1_655 S
H689 C682 0.930 . S
H690 C713 0.930 . S
H691 C714 0.929 . S
O692 Tb648 2.465 . S
O692 C712 1.264 . S
O693 Tb648 2.387 1_545 S
O693 C704 1.264 . S
O694 Tb659 2.349 . S
O694 C704 1.243 . S
O695 Tb648 2.428 . S
O695 C712 1.256 . S
O696 Tb648 2.308 . S
O696 C711 1.260 1_465 S
O697 Tb659 2.393 1_655 S
O697 C711 1.250 . S
O698 Tb659 2.465 . S
O698 C723 1.264 . S
O699 Tb659 2.387 . S
O699 C715 1.264 . S
O700 Tb648 2.349 1_545 S
O700 C715 1.243 . S
O701 Tb659 2.428 . S
O701 C723 1.256 . S
O702 Tb659 2.308 . S
O702 C722 1.266 . S
O703 Tb648 2.393 1_545 S
O703 C722 1.248 . S
C704 O693 1.264 . S
C704 O694 1.243 . S
C705 C708 1.399 . S
C705 C710 1.383 . S
C705 C712 1.496 . S
C706 C707 1.399 . S
C706 C710 1.389 . S
C707 C706 1.399 . S
C707 C709 1.380 . S
C707 H724 0.929 . S
C708 C705 1.399 . S
C708 C709 1.392 . S
C708 H725 0.929 . S
C709 C707 1.380 . S
C709 C708 1.392 . S
C709 H726 0.929 . S
C710 C705 1.383 . S
C710 C706 1.389 . S
C710 H727 0.931 . S
C711 O696 1.260 1_645 S
C711 O697 1.250 . S
C712 Tb648 2.802 . S
C712 O692 1.264 . S
C712 O695 1.256 . S
C712 C705 1.496 . S
C713 C680 1.448 . S
C713 H690 0.930 . S
C713 C714 1.328 . S
C714 C685 1.427 . S
C714 H691 0.929 . S
C714 C713 1.328 . S
C715 O699 1.264 . S
C715 O700 1.243 . S
C716 C719 1.399 1_455 S
C716 C720 1.383 . S
C716 C723 1.496 . S
C717 C718 1.399 . S
C717 C720 1.389 . S
C718 C717 1.399 . S
C718 C721 1.380 1_455 S
C718 H728 0.929 . S
C719 C716 1.399 1_655 S
C719 C721 1.392 . S
C719 H729 0.929 . S
C720 C716 1.383 . S
C720 C717 1.389 . S
C720 H730 0.931 . S
C721 C718 1.380 1_655 S
C721 C719 1.392 . S
C721 H731 0.929 . S
C722 O702 1.266 . S
C722 O703 1.248 . S
C723 Tb659 2.802 . S
C723 O698 1.264 . S
C723 O701 1.256 . S
C723 C716 1.496 . S
H724 C707 0.929 . S
H725 C708 0.929 . S
H726 C709 0.929 . S
H727 C710 0.931 . S
H728 C718 0.929 . S
H729 C719 0.929 . S
H730 C720 0.931 . S
H731 C721 0.929 . S
Tb732 N761 2.617 . S
Tb732 N767 2.572 . S
Tb732 O776 2.465 . S
Tb732 O777 2.387 . S
Tb732 O779 2.428 . S
Tb732 O780 2.308 . S
Tb732 O784 2.349 . S
Tb732 O787 2.393 . S
Tb732 C796 2.802 . S
C733 N734 1.379 . S
C733 C736 1.416 . S
C733 C740 1.424 . S
N734 C733 1.379 . S
N734 C737 1.334 . S
N734 Tb743 2.617 . S
C735 C737 1.390 . S
C735 C738 1.339 . S
C735 H755 0.930 . S
C736 C733 1.416 . S
C736 C738 1.416 . S
C736 C742 1.448 . S
C737 N734 1.334 . S
C737 C735 1.390 . S
C737 H748 0.930 . S
C738 C735 1.339 . S
C738 C736 1.416 . S
C738 H759 0.930 . S
C739 C740 1.413 . S
C739 C741 1.427 . S
C739 C745 1.416 . S
C740 C733 1.424 . S
C740 C739 1.413 . S
C740 N744 1.361 . S
C741 C739 1.427 . S
C741 C742 1.328 . S
C741 H756 0.929 . S
C742 C736 1.448 . S
C742 C741 1.328 . S
C742 H757 0.930 . S
Tb743 N734 2.617 . S
Tb743 N744 2.572 . S
Tb743 O778 2.349 . S
Tb743 O781 2.393 . S
Tb743 O782 2.465 . S
Tb743 O783 2.387 . S
Tb743 O785 2.428 . S
Tb743 O786 2.308 . S
Tb743 C807 2.802 . S
N744 C740 1.361 . S
N744 Tb743 2.572 . S
N744 C746 1.340 . S
C745 C739 1.416 . S
C745 C747 1.332 . S
C745 H753 0.931 . S
C746 N744 1.340 . S
C746 C747 1.407 . S
C746 H752 0.930 . S
C747 C745 1.332 . S
C747 C746 1.407 . S
C747 H749 0.929 . S
H748 C737 0.930 . S
H749 C747 0.929 . S
H750 C765 0.930 . S
H751 C772 0.929 . S
H752 C746 0.930 . S
H753 C745 0.931 . S
H754 C768 0.930 . S
H755 C735 0.930 . S
H756 C741 0.929 . S
H757 C742 0.930 . S
H758 C763 0.930 . S
H759 C738 0.930 . S
H760 C771 0.931 . S
N761 Tb732 2.617 . S
N761 C762 1.379 . S
N761 C765 1.334 . S
C762 N761 1.379 . S
C762 C764 1.416 . S
C762 C770 1.424 . S
C763 H758 0.930 . S
C763 C765 1.390 . S
C763 C766 1.339 . S
C764 C762 1.416 . S
C764 C766 1.416 . S
C764 C797 1.448 . S
C765 H750 0.930 . S
C765 N761 1.334 . S
C765 C763 1.390 . S
C766 C763 1.339 . S
C766 C764 1.416 . S
C766 H773 0.930 . S
N767 Tb732 2.572 . S
N767 C768 1.340 . S
N767 C770 1.361 . S
C768 H754 0.930 . S
C768 N767 1.340 . S
C768 C772 1.407 . S
C769 C770 1.413 . S
C769 C771 1.416 . S
C769 C798 1.427 . S
C770 C762 1.424 . S
C770 N767 1.361 . S
C770 C769 1.413 . S
C771 H760 0.931 . S
C771 C769 1.416 . S
C771 C772 1.332 . S
C772 H751 0.929 . S
C772 C768 1.407 . S
C772 C771 1.332 . S
H773 C766 0.930 . S
H774 C797 0.930 . S
H775 C798 0.929 . S
O776 Tb732 2.465 . S
O776 C796 1.264 . S
O777 Tb732 2.387 . S
O777 C788 1.264 . S
O778 Tb743 2.349 . S
O778 C788 1.243 . S
O779 Tb732 2.428 . S
O779 C796 1.256 . S
O780 Tb732 2.308 . S
O780 C795 1.266 . S
O781 Tb743 2.393 . S
O781 C795 1.248 . S
O782 Tb743 2.465 . S
O782 C807 1.264 . S
O783 Tb743 2.387 . S
O783 C799 1.264 . S
O784 Tb732 2.349 . S
O784 C799 1.243 . S
O785 Tb743 2.428 . S
O785 C807 1.256 . S
O786 Tb743 2.308 . S
O786 C806 1.266 . S
O787 Tb732 2.393 . S
O787 C806 1.248 . S
C788 O777 1.264 . S
C788 O778 1.243 . S
C789 C792 1.399 . S
C789 C794 1.383 . S
C789 C796 1.496 . S
C790 C791 1.399 . S
C790 C794 1.389 . S
C791 C790 1.399 . S
C791 C793 1.380 . S
C791 H808 0.929 . S
C792 C789 1.399 . S
C792 C793 1.392 . S
C792 H809 0.929 . S
C793 C791 1.380 . S
C793 C792 1.392 . S
C793 H810 0.929 . S
C794 C789 1.383 . S
C794 C790 1.389 . S
C794 H811 0.931 . S
C795 O780 1.266 . S
C795 O781 1.248 . S
C796 Tb732 2.802 . S
C796 O776 1.264 . S
C796 O779 1.256 . S
C796 C789 1.496 . S
C797 C764 1.448 . S
C797 H774 0.930 . S
C797 C798 1.328 . S
C798 C769 1.427 . S
C798 H775 0.929 . S
C798 C797 1.328 . S
C799 O783 1.264 . S
C799 O784 1.243 . S
C800 C803 1.399 . S
C800 C804 1.383 . S
C800 C807 1.496 . S
C801 C802 1.399 . S
C801 C804 1.389 . S
C802 C801 1.399 . S
C802 C805 1.380 . S
C802 H812 0.929 . S
C803 C800 1.399 . S
C803 C805 1.392 . S
C803 H813 0.929 . S
C804 C800 1.383 . S
C804 C801 1.389 . S
C804 H814 0.931 . S
C805 C802 1.380 . S
C805 C803 1.392 . S
C805 H815 0.929 . S
C806 O786 1.266 . S
C806 O787 1.248 . S
C807 Tb743 2.802 . S
C807 O782 1.264 . S
C807 O785 1.256 . S
C807 C800 1.496 . S
H808 C791 0.929 . S
H809 C792 0.929 . S
H810 C793 0.929 . S
H811 C794 0.931 . S
H812 C802 0.929 . S
H813 C803 0.929 . S
H814 C804 0.931 . S
H815 C805 0.929 . S
Tb816 N845 2.617 . S
Tb816 N851 2.572 . S
Tb816 O860 2.465 . S
Tb816 O861 2.387 . S
Tb816 O863 2.428 . S
Tb816 O864 2.308 . S
Tb816 O868 2.348 1_556 S
Tb816 O871 2.393 1_556 S
Tb816 C880 2.802 . S
C817 N818 1.379 . S
C817 C820 1.416 . S
C817 C824 1.424 . S
N818 C817 1.379 . S
N818 C821 1.334 1_545 S
N818 Tb827 2.617 . S
C819 C821 1.390 . S
C819 C822 1.339 . S
C819 H839 0.930 . S
C820 C817 1.416 . S
C820 C822 1.416 1_545 S
C820 C826 1.448 . S
C821 N818 1.334 1_565 S
C821 C819 1.390 . S
C821 H832 0.930 . S
C822 C819 1.339 . S
C822 C820 1.416 1_565 S
C822 H843 0.930 . S
C823 C824 1.413 . S
C823 C825 1.427 . S
C823 C829 1.416 . S
C824 C817 1.424 . S
C824 C823 1.413 . S
C824 N828 1.361 . S
C825 C823 1.427 . S
C825 C826 1.328 . S
C825 H840 0.929 . S
C826 C820 1.448 . S
C826 C825 1.328 . S
C826 H841 0.930 . S
Tb827 N818 2.617 . S
Tb827 N828 2.572 . S
Tb827 O862 2.349 . S
Tb827 O865 2.393 . S
Tb827 O866 2.465 . S
Tb827 O867 2.387 . S
Tb827 O869 2.428 . S
Tb827 O870 2.308 . S
Tb827 C891 2.802 . S
N828 C824 1.361 . S
N828 Tb827 2.572 . S
N828 C830 1.340 . S
C829 C823 1.416 . S
C829 C831 1.332 . S
C829 H837 0.931 . S
C830 N828 1.340 . S
C830 C831 1.407 . S
C830 H836 0.930 . S
C831 C829 1.332 . S
C831 C830 1.407 . S
C831 H833 0.929 . S
H832 C821 0.930 . S
H833 C831 0.929 . S
H834 C849 0.930 . S
H835 C856 0.929 1_565 S
H836 C830 0.930 . S
H837 C829 0.931 . S
H838 C852 0.930 . S
H839 C819 0.930 . S
H840 C825 0.929 . S
H841 C826 0.930 . S
H842 C847 0.930 . S
H843 C822 0.930 . S
H844 C855 0.931 . S
N845 Tb816 2.617 . S
N845 C846 1.379 . S
N845 C849 1.334 . S
C846 N845 1.379 . S
C846 C848 1.416 . S
C846 C854 1.424 . S
C847 H842 0.930 . S
C847 C849 1.390 . S
C847 C850 1.339 . S
C848 C846 1.416 . S
C848 C850 1.416 . S
C848 C881 1.448 . S
C849 H834 0.930 . S
C849 N845 1.334 . S
C849 C847 1.390 . S
C850 C847 1.339 . S
C850 C848 1.416 . S
C850 H857 0.930 . S
N851 Tb816 2.572 . S
N851 C852 1.340 . S
N851 C854 1.361 . S
C852 H838 0.930 . S
C852 N851 1.340 . S
C852 C856 1.407 . S
C853 C854 1.413 . S
C853 C855 1.416 . S
C853 C882 1.427 . S
C854 C846 1.424 . S
C854 N851 1.361 . S
C854 C853 1.413 . S
C855 H844 0.931 . S
C855 C853 1.416 . S
C855 C856 1.332 . S
C856 H835 0.929 1_545 S
C856 C852 1.407 . S
C856 C855 1.332 . S
H857 C850 0.930 . S
H858 C881 0.930 . S
H859 C882 0.929 . S
O860 Tb816 2.465 . S
O860 C880 1.264 . S
O861 Tb816 2.387 . S
O861 C872 1.264 1_556 S
O862 Tb827 2.349 . S
O862 C872 1.243 . S
O863 Tb816 2.428 . S
O863 C880 1.256 . S
O864 Tb816 2.308 . S
O864 C879 1.266 . S
O865 Tb827 2.393 . S
O865 C879 1.248 1_554 S
O866 Tb827 2.465 . S
O866 C891 1.264 . S
O867 Tb827 2.387 . S
O867 C883 1.264 . S
O868 Tb816 2.348 1_554 S
O868 C883 1.245 . S
O869 Tb827 2.428 . S
O869 C891 1.256 . S
O870 Tb827 2.308 . S
O870 C890 1.266 . S
O871 Tb816 2.393 1_554 S
O871 C890 1.248 . S
C872 O861 1.264 1_554 S
C872 O862 1.243 . S
C873 C876 1.399 . S
C873 C878 1.383 . S
C873 C880 1.496 . S
C874 C875 1.399 . S
C874 C878 1.389 . S
C875 C874 1.399 . S
C875 C877 1.380 . S
C875 H892 0.929 . S
C876 C873 1.399 . S
C876 C877 1.392 . S
C876 H893 0.929 . S
C877 C875 1.380 . S
C877 C876 1.392 . S
C877 H894 0.929 . S
C878 C873 1.383 . S
C878 C874 1.389 . S
C878 H895 0.931 . S
C879 O864 1.266 . S
C879 O865 1.248 1_556 S
C880 Tb816 2.802 . S
C880 O860 1.264 . S
C880 O863 1.256 . S
C880 C873 1.496 . S
C881 C848 1.448 . S
C881 H858 0.930 . S
C881 C882 1.328 . S
C882 C853 1.427 . S
C882 H859 0.929 . S
C882 C881 1.328 . S
C883 O867 1.264 . S
C883 O868 1.245 . S
C884 C887 1.399 1_545 S
C884 C888 1.383 . S
C884 C891 1.496 . S
C885 C886 1.342 1_545 S
C885 C888 1.389 . S
C886 C885 1.342 1_565 S
C886 C889 1.421 . S
C886 H896 0.947 . S
C887 C884 1.399 1_565 S
C887 C889 1.392 . S
C887 H897 0.929 . S
C888 C884 1.383 . S
C888 C885 1.389 . S
C888 H898 0.931 . S
C889 C886 1.421 . S
C889 C887 1.392 . S
C889 H899 0.929 . S
C890 O870 1.266 . S
C890 O871 1.248 . S
C891 Tb827 2.802 . S
C891 O866 1.264 . S
C891 O869 1.256 . S
C891 C884 1.496 . S
H892 C875 0.929 . S
H893 C876 0.929 . S
H894 C877 0.929 . S
H895 C878 0.931 . S
H896 C886 0.947 . S
H897 C887 0.929 . S
H898 C888 0.931 . S
H899 C889 0.929 . S
Tb900 N929 2.617 . S
Tb900 N935 2.572 . S
Tb900 O944 2.465 . S
Tb900 O945 2.387 . S
Tb900 O947 2.428 . S
Tb900 O948 2.308 . S
Tb900 O952 2.349 . S
Tb900 O955 2.393 . S
Tb900 C964 2.802 . S
C901 N902 1.379 . S
C901 C904 1.416 . S
C901 C908 1.424 . S
N902 C901 1.379 . S
N902 C905 1.334 . S
N902 Tb911 2.617 . S
C903 C905 1.390 . S
C903 C906 1.339 . S
C903 H923 0.930 . S
C904 C901 1.416 . S
C904 C906 1.416 . S
C904 C910 1.448 . S
C905 N902 1.334 . S
C905 C903 1.390 . S
C905 H916 0.930 . S
C906 C903 1.339 . S
C906 C904 1.416 . S
C906 H927 0.930 . S
C907 C908 1.413 . S
C907 C909 1.427 . S
C907 C913 1.416 . S
C908 C901 1.424 . S
C908 C907 1.413 . S
C908 N912 1.361 . S
C909 C907 1.427 . S
C909 C910 1.328 . S
C909 H924 0.929 . S
C910 C904 1.448 . S
C910 C909 1.328 . S
C910 H925 0.930 . S
Tb911 N902 2.617 . S
Tb911 N912 2.572 . S
Tb911 O946 2.349 . S
Tb911 O949 2.393 . S
Tb911 O950 2.465 . S
Tb911 O951 2.387 . S
Tb911 O953 2.428 . S
Tb911 O954 2.308 . S
Tb911 C975 2.802 . S
N912 C908 1.361 . S
N912 Tb911 2.572 . S
N912 C914 1.340 . S
C913 C907 1.416 . S
C913 C915 1.332 . S
C913 H921 0.931 . S
C914 N912 1.340 . S
C914 C915 1.407 . S
C914 H920 0.930 . S
C915 C913 1.332 . S
C915 C914 1.407 . S
C915 H917 0.929 . S
H916 C905 0.930 . S
H917 C915 0.929 . S
H918 C933 0.930 . S
H919 C940 0.929 . S
H920 C914 0.930 . S
H921 C913 0.931 . S
H922 C936 0.930 . S
H923 C903 0.930 . S
H924 C909 0.929 . S
H925 C910 0.930 . S
H926 C931 0.930 . S
H927 C906 0.930 . S
H928 C939 0.931 . S
N929 Tb900 2.617 . S
N929 C930 1.379 . S
N929 C933 1.334 . S
C930 N929 1.379 . S
C930 C932 1.416 . S
C930 C938 1.424 . S
C931 H926 0.930 . S
C931 C933 1.390 . S
C931 C934 1.339 . S
C932 C930 1.416 . S
C932 C934 1.416 . S
C932 C965 1.448 . S
C933 H918 0.930 . S
C933 N929 1.334 . S
C933 C931 1.390 . S
C934 C931 1.339 . S
C934 C932 1.416 . S
C934 H941 0.930 . S
N935 Tb900 2.572 . S
N935 C936 1.340 . S
N935 C938 1.361 . S
C936 H922 0.930 . S
C936 N935 1.340 . S
C936 C940 1.407 . S
C937 C938 1.413 . S
C937 C939 1.416 . S
C937 C966 1.427 . S
C938 C930 1.424 . S
C938 N935 1.361 . S
C938 C937 1.413 . S
C939 H928 0.931 . S
C939 C937 1.416 . S
C939 C940 1.332 . S
C940 H919 0.929 . S
C940 C936 1.407 . S
C940 C939 1.332 . S
H941 C934 0.930 . S
H942 C965 0.930 . S
H943 C966 0.929 . S
O944 Tb900 2.465 . S
O944 C964 1.264 . S
O945 Tb900 2.387 . S
O945 C956 1.264 . S
O946 Tb911 2.349 . S
O946 C956 1.243 . S
O947 Tb900 2.428 . S
O947 C964 1.256 . S
O948 Tb900 2.308 . S
O948 C963 1.266 . S
O949 Tb911 2.393 . S
O949 C963 1.248 . S
O950 Tb911 2.465 . S
O950 C975 1.264 . S
O951 Tb911 2.387 . S
O951 C967 1.264 . S
O952 Tb900 2.349 . S
O952 C967 1.243 . S
O953 Tb911 2.428 . S
O953 C975 1.256 . S
O954 Tb911 2.308 . S
O954 C974 1.266 . S
O955 Tb900 2.393 . S
O955 C974 1.248 . S
C956 O945 1.264 . S
C956 O946 1.243 . S
C957 C960 1.399 . S
C957 C962 1.383 . S
C957 C964 1.496 . S
C958 C959 1.399 . S
C958 C962 1.389 . S
C959 C958 1.399 . S
C959 C961 1.380 . S
C959 H976 0.929 . S
C960 C957 1.399 . S
C960 C961 1.392 . S
C960 H977 0.929 . S
C961 C959 1.380 . S
C961 C960 1.392 . S
C961 H978 0.929 . S
C962 C957 1.383 . S
C962 C958 1.389 . S
C962 H979 0.931 . S
C963 O948 1.266 . S
C963 O949 1.248 . S
C964 Tb900 2.802 . S
C964 O944 1.264 . S
C964 O947 1.256 . S
C964 C957 1.496 . S
C965 C932 1.448 . S
C965 H942 0.930 . S
C965 C966 1.328 . S
C966 C937 1.427 . S
C966 H943 0.929 . S
C966 C965 1.328 . S
C967 O951 1.264 . S
C967 O952 1.243 . S
C968 C971 1.399 . S
C968 C972 1.383 . S
C968 C975 1.496 . S
C969 C970 1.399 . S
C969 C972 1.389 . S
C970 C969 1.399 . S
C970 C973 1.380 . S
C970 H980 0.929 . S
C971 C968 1.399 . S
C971 C973 1.392 . S
C971 H981 0.929 . S
C972 C968 1.383 . S
C972 C969 1.389 . S
C972 H982 0.931 . S
C973 C970 1.380 . S
C973 C971 1.392 . S
C973 H983 0.929 . S
C974 O954 1.266 . S
C974 O955 1.248 . S
C975 Tb911 2.802 . S
C975 O950 1.264 . S
C975 O953 1.256 . S
C975 C968 1.496 . S
H976 C959 0.929 . S
H977 C960 0.929 . S
H978 C961 0.929 . S
H979 C962 0.931 . S
H980 C970 0.929 . S
H981 C971 0.929 . S
H982 C972 0.931 . S
H983 C973 0.929 . S
Tb984 N1013 2.617 1_554 S
Tb984 N1019 2.572 1_554 S
Tb984 O1028 2.465 . S
Tb984 O1029 2.387 1_554 S
Tb984 O1031 2.428 . S
Tb984 O1032 2.308 . S
Tb984 O1036 2.349 . S
Tb984 O1039 2.393 . S
Tb984 C1048 2.802 . S
C985 N986 1.379 . S
C985 C988 1.416 . S
C985 C992 1.424 . S
N986 C985 1.379 . S
N986 C989 1.334 . S
N986 Tb995 2.617 . S
C987 C989 1.390 . S
C987 C990 1.339 . S
C987 H1007 0.930 . S
C988 C985 1.416 . S
C988 C990 1.416 . S
C988 C994 1.448 . S
C989 N986 1.334 . S
C989 C987 1.390 . S
C989 H1000 0.930 . S
C990 C987 1.339 . S
C990 C988 1.416 . S
C990 H1011 0.930 . S
C991 C992 1.413 . S
C991 C993 1.427 . S
C991 C997 1.416 . S
C992 C985 1.424 . S
C992 C991 1.413 . S
C992 N996 1.361 . S
C993 C991 1.427 . S
C993 C994 1.328 . S
C993 H1008 0.929 . S
C994 C988 1.448 . S
C994 C993 1.328 . S
C994 H1009 0.930 . S
Tb995 N986 2.617 . S
Tb995 N996 2.572 . S
Tb995 O1030 2.349 1_554 S
Tb995 O1033 2.393 . S
Tb995 O1034 2.465 . S
Tb995 O1035 2.387 . S
Tb995 O1037 2.428 . S
Tb995 O1038 2.308 . S
Tb995 C1059 2.802 1_554 S
N996 C992 1.361 . S
N996 Tb995 2.572 . S
N996 C998 1.340 . S
C997 C991 1.416 . S
C997 C999 1.332 . S
C997 H1005 0.931 . S
C998 N996 1.340 . S
C998 C999 1.407 . S
C998 H1004 0.930 . S
C999 C997 1.332 . S
C999 C998 1.407 . S
C999 H1001 0.929 . S
H1000 C989 0.930 . S
H1001 C999 0.929 . S
H1002 C1017 0.930 . S
H1003 C1024 0.929 . S
H1004 C998 0.930 . S
H1005 C997 0.931 . S
H1006 C1020 0.930 . S
H1007 C987 0.930 . S
H1008 C993 0.929 . S
H1009 C994 0.930 . S
H1010 C1015 0.930 . S
H1011 C990 0.930 . S
H1012 C1023 0.931 . S
N1013 Tb984 2.617 1_556 S
N1013 C1014 1.379 . S
N1013 C1017 1.334 . S
C1014 N1013 1.379 . S
C1014 C1016 1.416 . S
C1014 C1022 1.424 . S
C1015 H1010 0.930 . S
C1015 C1017 1.390 . S
C1015 C1018 1.339 . S
C1016 C1014 1.416 . S
C1016 C1018 1.416 . S
C1016 C1049 1.448 . S
C1017 H1002 0.930 . S
C1017 N1013 1.334 . S
C1017 C1015 1.390 . S
C1018 C1015 1.339 . S
C1018 C1016 1.416 . S
C1018 H1025 0.930 . S
N1019 Tb984 2.572 1_556 S
N1019 C1020 1.340 . S
N1019 C1022 1.361 . S
C1020 H1006 0.930 . S
C1020 N1019 1.340 . S
C1020 C1024 1.407 . S
C1021 C1022 1.413 . S
C1021 C1023 1.416 . S
C1021 C1050 1.427 . S
C1022 C1014 1.424 . S
C1022 N1019 1.361 . S
C1022 C1021 1.413 . S
C1023 H1012 0.931 . S
C1023 C1021 1.416 . S
C1023 C1024 1.332 . S
C1024 H1003 0.929 . S
C1024 C1020 1.407 . S
C1024 C1023 1.332 . S
H1025 C1018 0.930 . S
H1026 C1049 0.930 . S
H1027 C1050 0.929 . S
O1028 Tb984 2.465 . S
O1028 C1048 1.264 . S
O1029 Tb984 2.387 1_556 S
O1029 C1040 1.264 . S
O1030 Tb995 2.349 1_556 S
O1030 C1040 1.243 . S
O1031 Tb984 2.428 . S
O1031 C1048 1.256 . S
O1032 Tb984 2.308 . S
O1032 C1047 1.266 . S
O1033 Tb995 2.393 . S
O1033 C1047 1.248 . S
O1034 Tb995 2.465 . S
O1034 C1059 1.264 1_554 S
O1035 Tb995 2.387 . S
O1035 C1051 1.264 . S
O1036 Tb984 2.349 . S
O1036 C1051 1.243 . S
O1037 Tb995 2.428 . S
O1037 C1059 1.256 1_554 S
O1038 Tb995 2.308 . S
O1038 C1058 1.266 . S
O1039 Tb984 2.393 . S
O1039 C1058 1.248 . S
C1040 O1029 1.264 . S
C1040 O1030 1.243 . S
C1041 C1044 1.399 . S
C1041 C1046 1.383 . S
C1041 C1048 1.496 . S
C1042 C1043 1.399 . S
C1042 C1046 1.389 . S
C1043 C1042 1.399 . S
C1043 C1045 1.380 . S
C1043 H1060 0.929 . S
C1044 C1041 1.399 . S
C1044 C1045 1.392 . S
C1044 H1061 0.929 . S
C1045 C1043 1.380 . S
C1045 C1044 1.392 . S
C1045 H1062 0.929 . S
C1046 C1041 1.383 . S
C1046 C1042 1.389 . S
C1046 H1063 0.931 . S
C1047 O1032 1.266 . S
C1047 O1033 1.248 . S
C1048 Tb984 2.802 . S
C1048 O1028 1.264 . S
C1048 O1031 1.256 . S
C1048 C1041 1.496 . S
C1049 C1016 1.448 . S
C1049 H1026 0.930 . S
C1049 C1050 1.328 . S
C1050 C1021 1.427 . S
C1050 H1027 0.929 . S
C1050 C1049 1.328 . S
C1051 O1035 1.264 . S
C1051 O1036 1.243 . S
C1052 C1055 1.399 . S
C1052 C1056 1.383 . S
C1052 C1059 1.496 . S
C1053 C1054 1.399 . S
C1053 C1056 1.389 . S
C1054 C1053 1.399 . S
C1054 C1057 1.380 . S
C1054 H1064 0.929 . S
C1055 C1052 1.399 . S
C1055 C1057 1.392 . S
C1055 H1065 0.929 . S
C1056 C1052 1.383 . S
C1056 C1053 1.389 . S
C1056 H1066 0.931 . S
C1057 C1054 1.380 . S
C1057 C1055 1.392 . S
C1057 H1067 0.929 . S
C1058 O1038 1.266 . S
C1058 O1039 1.248 . S
C1059 Tb995 2.802 1_556 S
C1059 O1034 1.264 1_556 S
C1059 O1037 1.256 1_556 S
C1059 C1052 1.496 . S
H1060 C1043 0.929 . S
H1061 C1044 0.929 . S
H1062 C1045 0.929 . S
H1063 C1046 0.931 . S
H1064 C1054 0.929 . S
H1065 C1055 0.929 . S
H1066 C1056 0.931 . S
H1067 C1057 0.929 . S
Tb1068 N1097 2.617 . S
Tb1068 N1103 2.572 . S
Tb1068 O1112 2.465 . S
Tb1068 O1113 2.387 . S
Tb1068 O1115 2.428 . S
Tb1068 O1116 2.308 . S
Tb1068 O1120 2.349 . S
Tb1068 O1123 2.393 . S
Tb1068 C1132 2.802 . S
C1069 N1070 1.379 . S
C1069 C1072 1.416 . S
C1069 C1076 1.424 . S
N1070 C1069 1.379 . S
N1070 C1073 1.334 . S
N1070 Tb1079 2.617 . S
C1071 C1073 1.390 . S
C1071 C1074 1.339 . S
C1071 H1091 0.930 . S
C1072 C1069 1.416 . S
C1072 C1074 1.416 . S
C1072 C1078 1.448 . S
C1073 N1070 1.334 . S
C1073 C1071 1.390 . S
C1073 H1084 0.930 . S
C1074 C1071 1.339 . S
C1074 C1072 1.416 . S
C1074 H1095 0.930 . S
C1075 C1076 1.413 . S
C1075 C1077 1.427 . S
C1075 C1081 1.416 . S
C1076 C1069 1.424 . S
C1076 C1075 1.413 . S
C1076 N1080 1.361 . S
C1077 C1075 1.427 . S
C1077 C1078 1.328 . S
C1077 H1092 0.929 . S
C1078 C1072 1.448 . S
C1078 C1077 1.328 . S
C1078 H1093 0.930 . S
Tb1079 N1070 2.617 . S
Tb1079 N1080 2.572 . S
Tb1079 O1114 2.349 . S
Tb1079 O1117 2.393 . S
Tb1079 O1118 2.465 . S
Tb1079 O1119 2.387 . S
Tb1079 O1121 2.428 . S
Tb1079 O1122 2.308 . S
Tb1079 C1143 2.802 . S
N1080 C1076 1.361 . S
N1080 Tb1079 2.572 . S
N1080 C1082 1.340 . S
C1081 C1075 1.416 . S
C1081 C1083 1.332 . S
C1081 H1089 0.931 . S
C1082 N1080 1.340 . S
C1082 C1083 1.407 . S
C1082 H1088 0.930 . S
C1083 C1081 1.332 . S
C1083 C1082 1.407 . S
C1083 H1085 0.929 . S
H1084 C1073 0.930 . S
H1085 C1083 0.929 . S
H1086 C1101 0.930 . S
H1087 C1108 0.929 . S
H1088 C1082 0.930 . S
H1089 C1081 0.931 . S
H1090 C1104 0.930 . S
H1091 C1071 0.930 . S
H1092 C1077 0.929 . S
H1093 C1078 0.930 . S
H1094 C1099 0.930 . S
H1095 C1074 0.930 . S
H1096 C1107 0.931 . S
N1097 Tb1068 2.617 . S
N1097 C1098 1.379 . S
N1097 C1101 1.334 . S
C1098 N1097 1.379 . S
C1098 C1100 1.416 . S
C1098 C1106 1.424 . S
C1099 H1094 0.930 . S
C1099 C1101 1.390 . S
C1099 C1102 1.339 . S
C1100 C1098 1.416 . S
C1100 C1102 1.416 . S
C1100 C1133 1.448 . S
C1101 H1086 0.930 . S
C1101 N1097 1.334 . S
C1101 C1099 1.390 . S
C1102 C1099 1.339 . S
C1102 C1100 1.416 . S
C1102 H1109 0.930 . S
N1103 Tb1068 2.572 . S
N1103 C1104 1.340 . S
N1103 C1106 1.361 . S
C1104 H1090 0.930 . S
C1104 N1103 1.340 . S
C1104 C1108 1.407 . S
C1105 C1106 1.413 . S
C1105 C1107 1.416 . S
C1105 C1134 1.427 . S
C1106 C1098 1.424 . S
C1106 N1103 1.361 . S
C1106 C1105 1.413 . S
C1107 H1096 0.931 . S
C1107 C1105 1.416 . S
C1107 C1108 1.332 . S
C1108 H1087 0.929 . S
C1108 C1104 1.407 . S
C1108 C1107 1.332 . S
H1109 C1102 0.930 . S
H1110 C1133 0.930 . S
H1111 C1134 0.929 . S
O1112 Tb1068 2.465 . S
O1112 C1132 1.264 . S
O1113 Tb1068 2.387 . S
O1113 C1124 1.264 . S
O1114 Tb1079 2.349 . S
O1114 C1124 1.243 . S
O1115 Tb1068 2.428 . S
O1115 C1132 1.256 . S
O1116 Tb1068 2.308 . S
O1116 C1131 1.266 . S
O1117 Tb1079 2.393 . S
O1117 C1131 1.248 . S
O1118 Tb1079 2.465 . S
O1118 C1143 1.264 . S
O1119 Tb1079 2.387 . S
O1119 C1135 1.264 . S
O1120 Tb1068 2.349 . S
O1120 C1135 1.243 . S
O1121 Tb1079 2.428 . S
O1121 C1143 1.256 . S
O1122 Tb1079 2.308 . S
O1122 C1142 1.266 . S
O1123 Tb1068 2.393 . S
O1123 C1142 1.248 . S
C1124 O1113 1.264 . S
C1124 O1114 1.243 . S
C1125 C1128 1.399 . S
C1125 C1130 1.383 . S
C1125 C1132 1.496 . S
C1126 C1127 1.399 . S
C1126 C1130 1.389 . S
C1127 C1126 1.399 . S
C1127 C1129 1.380 . S
C1127 H1144 0.929 . S
C1128 C1125 1.399 . S
C1128 C1129 1.392 . S
C1128 H1145 0.929 . S
C1129 C1127 1.380 . S
C1129 C1128 1.392 . S
C1129 H1146 0.929 . S
C1130 C1125 1.383 . S
C1130 C1126 1.389 . S
C1130 H1147 0.931 . S
C1131 O1116 1.266 . S
C1131 O1117 1.248 . S
C1132 Tb1068 2.802 . S
C1132 O1112 1.264 . S
C1132 O1115 1.256 . S
C1132 C1125 1.496 . S
C1133 C1100 1.448 . S
C1133 H1110 0.930 . S
C1133 C1134 1.328 . S
C1134 C1105 1.427 . S
C1134 H1111 0.929 . S
C1134 C1133 1.328 . S
C1135 O1119 1.264 . S
C1135 O1120 1.243 . S
C1136 C1139 1.399 . S
C1136 C1140 1.383 . S
C1136 C1143 1.496 . S
C1137 C1138 1.399 . S
C1137 C1140 1.389 . S
C1138 C1137 1.399 . S
C1138 C1141 1.380 . S
C1138 H1148 0.929 . S
C1139 C1136 1.399 . S
C1139 C1141 1.392 . S
C1139 H1149 0.929 . S
C1140 C1136 1.383 . S
C1140 C1137 1.389 . S
C1140 H1150 0.931 . S
C1141 C1138 1.380 . S
C1141 C1139 1.392 . S
C1141 H1151 0.929 . S
C1142 O1122 1.266 . S
C1142 O1123 1.248 . S
C1143 Tb1079 2.802 . S
C1143 O1118 1.264 . S
C1143 O1121 1.256 . S
C1143 C1136 1.496 . S
H1144 C1127 0.929 . S
H1145 C1128 0.929 . S
H1146 C1129 0.929 . S
H1147 C1130 0.931 . S
H1148 C1138 0.929 . S
H1149 C1139 0.929 . S
H1150 C1140 0.931 . S
H1151 C1141 0.929 . S
Tb1152 N1181 2.617 1_455 S
Tb1152 N1187 2.572 1_455 S
Tb1152 O1196 2.465 . S
Tb1152 O1197 2.387 1_455 S
Tb1152 O1199 2.428 . S
Tb1152 O1200 2.308 . S
Tb1152 O1204 2.349 . S
Tb1152 O1207 2.393 . S
Tb1152 C1216 2.802 . S
C1153 N1154 1.379 . S
C1153 C1156 1.416 . S
C1153 C1160 1.424 . S
N1154 C1153 1.379 . S
N1154 C1157 1.334 . S
N1154 Tb1163 2.617 . S
C1155 C1157 1.390 . S
C1155 C1158 1.339 . S
C1155 H1175 0.930 . S
C1156 C1153 1.416 . S
C1156 C1158 1.416 . S
C1156 C1162 1.448 . S
C1157 N1154 1.334 . S
C1157 C1155 1.390 . S
C1157 H1168 0.930 . S
C1158 C1155 1.339 . S
C1158 C1156 1.416 . S
C1158 H1179 0.930 . S
C1159 C1160 1.413 . S
C1159 C1161 1.427 . S
C1159 C1165 1.416 . S
C1160 C1153 1.424 . S
C1160 C1159 1.413 . S
C1160 N1164 1.361 . S
C1161 C1159 1.427 . S
C1161 C1162 1.328 . S
C1161 H1176 0.929 . S
C1162 C1156 1.448 . S
C1162 C1161 1.328 . S
C1162 H1177 0.930 . S
Tb1163 N1154 2.617 . S
Tb1163 N1164 2.572 . S
Tb1163 O1198 2.349 1_455 S
Tb1163 O1201 2.393 . S
Tb1163 O1202 2.504 . S
Tb1163 O1203 2.387 . S
Tb1163 O1205 2.428 . S
Tb1163 O1206 2.308 . S
Tb1163 C1227 2.802 1_455 S
N1164 C1160 1.361 . S
N1164 Tb1163 2.572 . S
N1164 C1166 1.340 . S
C1165 C1159 1.416 . S
C1165 C1167 1.332 . S
C1165 H1173 0.931 . S
C1166 N1164 1.340 . S
C1166 C1167 1.407 . S
C1166 H1172 0.930 . S
C1167 C1165 1.332 . S
C1167 C1166 1.407 . S
C1167 H1169 0.929 . S
H1168 C1157 0.930 . S
H1169 C1167 0.929 . S
H1170 C1185 0.943 . S
H1171 C1192 0.929 . S
H1172 C1166 0.930 . S
H1173 C1165 0.931 . S
H1174 C1188 0.930 . S
H1175 C1155 0.930 . S
H1176 C1161 0.929 . S
H1177 C1162 0.930 . S
H1178 C1183 0.930 . S
H1179 C1158 0.930 . S
H1180 C1191 0.931 . S
N1181 Tb1152 2.617 1_655 S
N1181 C1182 1.379 . S
N1181 C1185 1.334 . S
C1182 N1181 1.379 . S
C1182 C1184 1.416 . S
C1182 C1190 1.424 . S
C1183 H1178 0.930 . S
C1183 C1185 1.390 . S
C1183 C1186 1.339 . S
C1184 C1182 1.416 . S
C1184 C1186 1.416 . S
C1184 C1217 1.448 . S
C1185 H1170 0.943 . S
C1185 N1181 1.334 . S
C1185 C1183 1.390 . S
C1186 C1183 1.339 . S
C1186 C1184 1.416 . S
C1186 H1193 0.930 . S
N1187 Tb1152 2.572 1_655 S
N1187 C1188 1.340 . S
N1187 C1190 1.361 . S
C1188 H1174 0.930 . S
C1188 N1187 1.340 . S
C1188 C1192 1.407 . S
C1189 C1190 1.413 . S
C1189 C1191 1.416 . S
C1189 C1218 1.427 . S
C1190 C1182 1.424 . S
C1190 N1187 1.361 . S
C1190 C1189 1.413 . S
C1191 H1180 0.931 . S
C1191 C1189 1.416 . S
C1191 C1192 1.332 . S
C1192 H1171 0.929 . S
C1192 C1188 1.407 . S
C1192 C1191 1.332 . S
H1193 C1186 0.930 . S
H1194 C1217 0.930 . S
H1195 C1218 0.929 . S
O1196 Tb1152 2.465 . S
O1196 C1216 1.264 . S
O1197 Tb1152 2.387 1_655 S
O1197 C1208 1.264 . S
O1198 Tb1163 2.349 1_655 S
O1198 C1208 1.243 . S
O1199 Tb1152 2.428 . S
O1199 C1216 1.256 . S
O1200 Tb1152 2.308 . S
O1200 C1215 1.266 . S
O1201 Tb1163 2.393 . S
O1201 C1215 1.248 . S
O1202 Tb1163 2.504 . S
O1202 C1227 1.261 1_455 S
O1203 Tb1163 2.387 . S
O1203 C1219 1.264 . S
O1204 Tb1152 2.349 . S
O1204 C1219 1.243 . S
O1205 Tb1163 2.428 . S
O1205 C1227 1.256 1_455 S
O1206 Tb1163 2.308 . S
O1206 C1226 1.266 . S
O1207 Tb1152 2.393 . S
O1207 C1226 1.248 . S
C1208 O1197 1.264 . S
C1208 O1198 1.243 . S
C1209 C1212 1.399 . S
C1209 C1214 1.383 . S
C1209 C1216 1.496 . S
C1210 C1211 1.399 . S
C1210 C1214 1.389 . S
C1211 C1210 1.399 . S
C1211 C1213 1.380 . S
C1211 H1228 0.929 . S
C1212 C1209 1.399 . S
C1212 C1213 1.392 . S
C1212 H1229 0.929 . S
C1213 C1211 1.380 . S
C1213 C1212 1.392 . S
C1213 H1230 0.929 . S
C1214 C1209 1.383 . S
C1214 C1210 1.389 . S
C1214 H1231 0.931 . S
C1215 O1200 1.266 . S
C1215 O1201 1.248 . S
C1216 Tb1152 2.802 . S
C1216 O1196 1.264 . S
C1216 O1199 1.256 . S
C1216 C1209 1.496 . S
C1217 C1184 1.448 . S
C1217 H1194 0.930 . S
C1217 C1218 1.328 . S
C1218 C1189 1.427 . S
C1218 H1195 0.929 . S
C1218 C1217 1.328 . S
C1219 O1203 1.264 . S
C1219 O1204 1.243 . S
C1220 C1223 1.399 . S
C1220 C1224 1.383 . S
C1220 C1227 1.496 . S
C1221 C1222 1.399 . S
C1221 C1224 1.389 . S
C1222 C1221 1.399 . S
C1222 C1225 1.380 . S
C1222 H1232 0.929 . S
C1223 C1220 1.399 . S
C1223 C1225 1.392 . S
C1223 H1233 0.929 . S
C1224 C1220 1.383 . S
C1224 C1221 1.389 . S
C1224 H1234 0.931 . S
C1225 C1222 1.380 . S
C1225 C1223 1.392 . S
C1225 H1235 0.929 . S
C1226 O1206 1.266 . S
C1226 O1207 1.248 . S
C1227 Tb1163 2.802 1_655 S
C1227 O1202 1.261 1_655 S
C1227 O1205 1.256 1_655 S
C1227 C1220 1.496 . S
H1228 C1211 0.929 . S
H1229 C1212 0.929 . S
H1230 C1213 0.929 . S
H1231 C1214 0.931 . S
H1232 C1222 0.929 . S
H1233 C1223 0.929 . S
H1234 C1224 0.931 . S
H1235 C1225 0.929 . S
Tb1236 N1265 2.617 . S
Tb1236 N1271 2.572 . S
Tb1236 O1280 2.465 . S
Tb1236 O1281 2.387 . S
Tb1236 O1283 2.428 . S
Tb1236 O1284 2.308 . S
Tb1236 O1288 2.349 . S
Tb1236 O1291 2.393 . S
Tb1236 C1300 2.802 . S
C1237 N1238 1.379 . S
C1237 C1240 1.416 . S
C1237 C1244 1.424 . S
N1238 C1237 1.379 . S
N1238 C1241 1.334 . S
N1238 Tb1247 2.617 . S
C1239 C1241 1.390 . S
C1239 C1242 1.339 . S
C1239 H1259 0.930 . S
C1240 C1237 1.416 . S
C1240 C1242 1.416 . S
C1240 C1246 1.448 . S
C1241 N1238 1.334 . S
C1241 C1239 1.390 . S
C1241 H1252 0.930 . S
C1242 C1239 1.339 . S
C1242 C1240 1.416 . S
C1242 H1263 0.930 . S
C1243 C1244 1.413 . S
C1243 C1245 1.427 . S
C1243 C1249 1.416 . S
C1244 C1237 1.424 . S
C1244 C1243 1.413 . S
C1244 N1248 1.361 . S
C1245 C1243 1.427 . S
C1245 C1246 1.328 . S
C1245 H1260 0.929 . S
C1246 C1240 1.448 . S
C1246 C1245 1.328 . S
C1246 H1261 0.930 . S
Tb1247 N1238 2.617 . S
Tb1247 N1248 2.572 . S
Tb1247 O1282 2.349 . S
Tb1247 O1285 2.393 . S
Tb1247 O1286 2.465 . S
Tb1247 O1287 2.387 . S
Tb1247 O1289 2.428 . S
Tb1247 O1290 2.308 . S
Tb1247 C1311 2.802 . S
N1248 C1244 1.361 . S
N1248 Tb1247 2.572 . S
N1248 C1250 1.340 . S
C1249 C1243 1.416 . S
C1249 C1251 1.332 . S
C1249 H1257 0.931 . S
C1250 N1248 1.340 . S
C1250 C1251 1.407 . S
C1250 H1256 0.930 . S
C1251 C1249 1.332 . S
C1251 C1250 1.407 . S
C1251 H1253 0.929 . S
H1252 C1241 0.930 . S
H1253 C1251 0.929 . S
H1254 C1269 0.930 . S
H1255 C1276 0.929 . S
H1256 C1250 0.930 . S
H1257 C1249 0.931 . S
H1258 C1272 0.930 . S
H1259 C1239 0.930 . S
H1260 C1245 0.929 . S
H1261 C1246 0.930 . S
H1262 C1267 0.930 . S
H1263 C1242 0.930 . S
H1264 C1275 0.931 . S
N1265 Tb1236 2.617 . S
N1265 C1266 1.379 . S
N1265 C1269 1.334 . S
C1266 N1265 1.379 . S
C1266 C1268 1.416 . S
C1266 C1274 1.424 . S
C1267 H1262 0.930 . S
C1267 C1269 1.390 . S
C1267 C1270 1.339 . S
C1268 C1266 1.416 . S
C1268 C1270 1.416 . S
C1268 C1301 1.448 . S
C1269 H1254 0.930 . S
C1269 N1265 1.334 . S
C1269 C1267 1.390 . S
C1270 C1267 1.339 . S
C1270 C1268 1.416 . S
C1270 H1277 0.930 . S
N1271 Tb1236 2.572 . S
N1271 C1272 1.340 . S
N1271 C1274 1.361 . S
C1272 H1258 0.930 . S
C1272 N1271 1.340 . S
C1272 C1276 1.407 . S
C1273 C1274 1.413 . S
C1273 C1275 1.416 . S
C1273 C1302 1.427 . S
C1274 C1266 1.424 . S
C1274 N1271 1.361 . S
C1274 C1273 1.413 . S
C1275 H1264 0.931 . S
C1275 C1273 1.416 . S
C1275 C1276 1.332 . S
C1276 H1255 0.929 . S
C1276 C1272 1.407 . S
C1276 C1275 1.332 . S
H1277 C1270 0.930 . S
H1278 C1301 0.930 . S
H1279 C1302 0.929 . S
O1280 Tb1236 2.465 . S
O1280 C1300 1.264 . S
O1281 Tb1236 2.387 . S
O1281 C1292 1.264 . S
O1282 Tb1247 2.349 . S
O1282 C1292 1.243 . S
O1283 Tb1236 2.428 . S
O1283 C1300 1.256 . S
O1284 Tb1236 2.308 . S
O1284 C1299 1.266 . S
O1285 Tb1247 2.393 . S
O1285 C1299 1.248 . S
O1286 Tb1247 2.465 . S
O1286 C1311 1.264 . S
O1287 Tb1247 2.387 . S
O1287 C1303 1.264 . S
O1288 Tb1236 2.349 . S
O1288 C1303 1.243 . S
O1289 Tb1247 2.428 . S
O1289 C1311 1.256 . S
O1290 Tb1247 2.308 . S
O1290 C1310 1.266 . S
O1291 Tb1236 2.393 . S
O1291 C1310 1.248 . S
C1292 O1281 1.264 . S
C1292 O1282 1.243 . S
C1293 C1296 1.399 . S
C1293 C1298 1.383 . S
C1293 C1300 1.496 . S
C1294 C1295 1.399 . S
C1294 C1298 1.389 . S
C1295 C1294 1.399 . S
C1295 C1297 1.380 . S
C1295 H1312 0.929 . S
C1296 C1293 1.399 . S
C1296 C1297 1.392 . S
C1296 H1313 0.929 . S
C1297 C1295 1.380 . S
C1297 C1296 1.392 . S
C1297 H1314 0.929 . S
C1298 C1293 1.383 . S
C1298 C1294 1.389 . S
C1298 H1315 0.931 . S
C1299 O1284 1.266 . S
C1299 O1285 1.248 . S
C1300 Tb1236 2.802 . S
C1300 O1280 1.264 . S
C1300 O1283 1.256 . S
C1300 C1293 1.496 . S
C1301 C1268 1.448 . S
C1301 H1278 0.930 . S
C1301 C1302 1.328 . S
C1302 C1273 1.427 . S
C1302 H1279 0.929 . S
C1302 C1301 1.328 . S
C1303 O1287 1.264 . S
C1303 O1288 1.243 . S
C1304 C1307 1.399 . S
C1304 C1308 1.383 . S
C1304 C1311 1.496 . S
C1305 C1306 1.399 . S
C1305 C1308 1.389 . S
C1306 C1305 1.399 . S
C1306 C1309 1.380 . S
C1306 H1316 0.929 . S
C1307 C1304 1.399 . S
C1307 C1309 1.392 . S
C1307 H1317 0.929 . S
C1308 C1304 1.383 . S
C1308 C1305 1.389 . S
C1308 H1318 0.931 . S
C1309 C1306 1.380 . S
C1309 C1307 1.392 . S
C1309 H1319 0.929 . S
C1310 O1290 1.266 . S
C1310 O1291 1.248 . S
C1311 Tb1247 2.802 . S
C1311 O1286 1.264 . S
C1311 O1289 1.256 . S
C1311 C1304 1.496 . S
H1312 C1295 0.929 . S
H1313 C1296 0.929 . S
H1314 C1297 0.929 . S
H1315 C1298 0.931 . S
H1316 C1306 0.929 . S
H1317 C1307 0.929 . S
H1318 C1308 0.931 . S
H1319 C1309 0.929 . S
Tb1320 N1349 2.617 . S
Tb1320 N1355 2.572 . S
Tb1320 O1364 2.465 . S
Tb1320 O1365 2.387 . S
Tb1320 O1367 2.428 . S
Tb1320 O1368 2.308 . S
Tb1320 O1372 2.349 . S
Tb1320 O1375 2.393 . S
Tb1320 C1384 2.802 . S
C1321 N1322 1.379 . S
C1321 C1324 1.416 . S
C1321 C1328 1.424 . S
N1322 C1321 1.379 . S
N1322 C1325 1.334 . S
N1322 Tb1331 2.617 . S
C1323 C1325 1.390 . S
C1323 C1326 1.339 . S
C1323 H1343 0.930 . S
C1324 C1321 1.416 . S
C1324 C1326 1.416 . S
C1324 C1330 1.448 . S
C1325 N1322 1.334 . S
C1325 C1323 1.390 . S
C1325 H1336 0.930 . S
C1326 C1323 1.339 . S
C1326 C1324 1.416 . S
C1326 H1347 0.930 . S
C1327 C1328 1.413 . S
C1327 C1329 1.427 . S
C1327 C1333 1.416 . S
C1328 C1321 1.424 . S
C1328 C1327 1.413 . S
C1328 N1332 1.361 . S
C1329 C1327 1.427 . S
C1329 C1330 1.328 . S
C1329 H1344 0.929 . S
C1330 C1324 1.448 . S
C1330 C1329 1.328 . S
C1330 H1345 0.930 . S
Tb1331 N1322 2.617 . S
Tb1331 N1332 2.572 . S
Tb1331 O1366 2.349 . S
Tb1331 O1369 2.393 . S
Tb1331 O1370 2.465 . S
Tb1331 O1371 2.387 . S
Tb1331 O1373 2.428 . S
Tb1331 O1374 2.308 . S
Tb1331 C1395 2.802 . S
N1332 C1328 1.361 . S
N1332 Tb1331 2.572 . S
N1332 C1334 1.340 . S
C1333 C1327 1.416 . S
C1333 C1335 1.332 . S
C1333 H1341 0.931 . S
C1334 N1332 1.340 . S
C1334 C1335 1.407 . S
C1334 H1340 0.930 . S
C1335 C1333 1.332 . S
C1335 C1334 1.407 . S
C1335 H1337 0.929 . S
H1336 C1325 0.930 . S
H1337 C1335 0.929 . S
H1338 C1353 0.930 . S
H1339 C1360 0.929 . S
H1340 C1334 0.930 . S
H1341 C1333 0.931 . S
H1342 C1356 0.930 . S
H1343 C1323 0.930 . S
H1344 C1329 0.929 . S
H1345 C1330 0.930 . S
H1346 C1351 0.930 . S
H1347 C1326 0.930 . S
H1348 C1359 0.931 . S
N1349 Tb1320 2.617 . S
N1349 C1350 1.379 . S
N1349 C1353 1.334 . S
C1350 N1349 1.379 . S
C1350 C1352 1.416 . S
C1350 C1358 1.424 . S
C1351 H1346 0.930 . S
C1351 C1353 1.390 . S
C1351 C1354 1.339 . S
C1352 C1350 1.416 . S
C1352 C1354 1.416 . S
C1352 C1385 1.448 . S
C1353 H1338 0.930 . S
C1353 N1349 1.334 . S
C1353 C1351 1.390 . S
C1354 C1351 1.339 . S
C1354 C1352 1.416 . S
C1354 H1361 0.930 . S
N1355 Tb1320 2.572 . S
N1355 C1356 1.340 . S
N1355 C1358 1.361 . S
C1356 H1342 0.930 . S
C1356 N1355 1.340 . S
C1356 C1360 1.407 . S
C1357 C1358 1.413 . S
C1357 C1359 1.416 . S
C1357 C1386 1.427 . S
C1358 C1350 1.424 . S
C1358 N1355 1.361 . S
C1358 C1357 1.413 . S
C1359 H1348 0.931 . S
C1359 C1357 1.416 . S
C1359 C1360 1.332 . S
C1360 H1339 0.929 . S
C1360 C1356 1.407 . S
C1360 C1359 1.332 . S
H1361 C1354 0.930 . S
H1362 C1385 0.930 . S
H1363 C1386 0.929 . S
O1364 Tb1320 2.465 . S
O1364 C1384 1.264 . S
O1365 Tb1320 2.387 . S
O1365 C1376 1.264 . S
O1366 Tb1331 2.349 . S
O1366 C1376 1.243 . S
O1367 Tb1320 2.428 . S
O1367 C1384 1.256 . S
O1368 Tb1320 2.308 . S
O1368 C1383 1.266 . S
O1369 Tb1331 2.393 . S
O1369 C1383 1.248 . S
O1370 Tb1331 2.465 . S
O1370 C1395 1.264 . S
O1371 Tb1331 2.387 . S
O1371 C1387 1.264 . S
O1372 Tb1320 2.349 . S
O1372 C1387 1.243 . S
O1373 Tb1331 2.428 . S
O1373 C1395 1.256 . S
O1374 Tb1331 2.308 . S
O1374 C1394 1.266 . S
O1375 Tb1320 2.393 . S
O1375 C1394 1.248 . S
C1376 O1365 1.264 . S
C1376 O1366 1.243 . S
C1377 C1380 1.399 . S
C1377 C1382 1.383 . S
C1377 C1384 1.496 . S
C1378 C1379 1.399 . S
C1378 C1382 1.389 . S
C1379 C1378 1.399 . S
C1379 C1381 1.380 . S
C1379 H1396 0.929 . S
C1380 C1377 1.399 . S
C1380 C1381 1.392 . S
C1380 H1397 0.929 . S
C1381 C1379 1.380 . S
C1381 C1380 1.392 . S
C1381 H1398 0.929 . S
C1382 C1377 1.383 . S
C1382 C1378 1.389 . S
C1382 H1399 0.931 . S
C1383 O1368 1.266 . S
C1383 O1369 1.248 . S
C1384 Tb1320 2.802 . S
C1384 O1364 1.264 . S
C1384 O1367 1.256 . S
C1384 C1377 1.496 . S
C1385 C1352 1.448 . S
C1385 H1362 0.930 . S
C1385 C1386 1.328 . S
C1386 C1357 1.427 . S
C1386 H1363 0.929 . S
C1386 C1385 1.328 . S
C1387 O1371 1.264 . S
C1387 O1372 1.243 . S
C1388 C1391 1.399 . S
C1388 C1392 1.383 . S
C1388 C1395 1.496 . S
C1389 C1390 1.399 . S
C1389 C1392 1.389 . S
C1390 C1389 1.399 . S
C1390 C1393 1.380 . S
C1390 H1400 0.929 . S
C1391 C1388 1.399 . S
C1391 C1393 1.392 . S
C1391 H1401 0.929 . S
C1392 C1388 1.383 . S
C1392 C1389 1.389 . S
C1392 H1402 0.931 . S
C1393 C1390 1.380 . S
C1393 C1391 1.392 . S
C1393 H1403 0.929 . S
C1394 O1374 1.266 . S
C1394 O1375 1.248 . S
C1395 Tb1331 2.802 . S
C1395 O1370 1.264 . S
C1395 O1373 1.256 . S
C1395 C1388 1.496 . S
H1396 C1379 0.929 . S
H1397 C1380 0.929 . S
H1398 C1381 0.929 . S
H1399 C1382 0.931 . S
H1400 C1390 0.929 . S
H1401 C1391 0.929 . S
H1402 C1392 0.931 . S
H1403 C1393 0.929 . S
Tb1404 N1433 2.617 . S
Tb1404 N1439 2.572 . S
Tb1404 O1448 2.465 . S
Tb1404 O1449 2.387 . S
Tb1404 O1451 2.428 . S
Tb1404 O1452 2.308 . S
Tb1404 O1456 2.349 . S
Tb1404 O1459 2.393 . S
Tb1404 C1468 2.802 . S
C1405 N1406 1.379 . S
C1405 C1408 1.416 . S
C1405 C1412 1.424 . S
N1406 C1405 1.379 . S
N1406 C1409 1.334 . S
N1406 Tb1415 2.617 . S
C1407 C1409 1.390 . S
C1407 C1410 1.339 . S
C1407 H1427 0.930 . S
C1408 C1405 1.416 . S
C1408 C1410 1.416 . S
C1408 C1414 1.448 . S
C1409 N1406 1.334 . S
C1409 C1407 1.390 . S
C1409 H1420 0.930 . S
C1410 C1407 1.339 . S
C1410 C1408 1.416 . S
C1410 H1431 0.930 . S
C1411 C1412 1.413 . S
C1411 C1413 1.427 . S
C1411 C1417 1.416 . S
C1412 C1405 1.424 . S
C1412 C1411 1.413 . S
C1412 N1416 1.361 . S
C1413 C1411 1.427 . S
C1413 C1414 1.328 . S
C1413 H1428 0.929 . S
C1414 C1408 1.448 . S
C1414 C1413 1.328 . S
C1414 H1429 0.930 . S
Tb1415 N1406 2.617 . S
Tb1415 N1416 2.572 . S
Tb1415 O1450 2.349 . S
Tb1415 O1453 2.393 . S
Tb1415 O1454 2.465 . S
Tb1415 O1455 2.387 . S
Tb1415 O1457 2.428 . S
Tb1415 O1458 2.308 . S
Tb1415 C1479 2.802 . S
N1416 C1412 1.361 . S
N1416 Tb1415 2.572 . S
N1416 C1418 1.340 . S
C1417 C1411 1.416 . S
C1417 C1419 1.332 . S
C1417 H1425 0.931 . S
C1418 N1416 1.340 . S
C1418 C1419 1.407 . S
C1418 H1424 0.930 . S
C1419 C1417 1.332 . S
C1419 C1418 1.407 . S
C1419 H1421 0.929 . S
H1420 C1409 0.930 . S
H1421 C1419 0.929 . S
H1422 C1437 0.930 . S
H1423 C1444 0.929 . S
H1424 C1418 0.930 . S
H1425 C1417 0.931 . S
H1426 C1440 0.930 . S
H1427 C1407 0.930 . S
H1428 C1413 0.929 . S
H1429 C1414 0.930 . S
H1430 C1435 0.930 . S
H1431 C1410 0.930 . S
H1432 C1443 0.931 . S
N1433 Tb1404 2.617 . S
N1433 C1434 1.379 . S
N1433 C1437 1.334 . S
C1434 N1433 1.379 . S
C1434 C1436 1.416 . S
C1434 C1442 1.424 . S
C1435 H1430 0.930 . S
C1435 C1437 1.390 . S
C1435 C1438 1.339 . S
C1436 C1434 1.416 . S
C1436 C1438 1.416 . S
C1436 C1469 1.448 . S
C1437 H1422 0.930 . S
C1437 N1433 1.334 . S
C1437 C1435 1.390 . S
C1438 C1435 1.339 . S
C1438 C1436 1.416 . S
C1438 H1445 0.930 . S
N1439 Tb1404 2.572 . S
N1439 C1440 1.340 . S
N1439 C1442 1.361 . S
C1440 H1426 0.930 . S
C1440 N1439 1.340 . S
C1440 C1444 1.407 . S
C1441 C1442 1.413 . S
C1441 C1443 1.416 . S
C1441 C1470 1.427 . S
C1442 C1434 1.424 . S
C1442 N1439 1.361 . S
C1442 C1441 1.413 . S
C1443 H1432 0.931 . S
C1443 C1441 1.416 . S
C1443 C1444 1.332 . S
C1444 H1423 0.929 . S
C1444 C1440 1.407 . S
C1444 C1443 1.332 . S
H1445 C1438 0.930 . S
H1446 C1469 0.930 . S
H1447 C1470 0.929 . S
O1448 Tb1404 2.465 . S
O1448 C1468 1.264 . S
O1449 Tb1404 2.387 . S
O1449 C1460 1.264 . S
O1450 Tb1415 2.349 . S
O1450 C1460 1.243 . S
O1451 Tb1404 2.428 . S
O1451 C1468 1.256 . S
O1452 Tb1404 2.308 . S
O1452 C1467 1.266 . S
O1453 Tb1415 2.393 . S
O1453 C1467 1.248 . S
O1454 Tb1415 2.465 . S
O1454 C1479 1.264 . S
O1455 Tb1415 2.387 . S
O1455 C1471 1.264 . S
O1456 Tb1404 2.349 . S
O1456 C1471 1.243 . S
O1457 Tb1415 2.428 . S
O1457 C1479 1.256 . S
O1458 Tb1415 2.308 . S
O1458 C1478 1.266 . S
O1459 Tb1404 2.393 . S
O1459 C1478 1.248 . S
C1460 O1449 1.264 . S
C1460 O1450 1.243 . S
C1461 C1464 1.399 . S
C1461 C1466 1.383 . S
C1461 C1468 1.496 . S
C1462 C1463 1.399 . S
C1462 C1466 1.389 . S
C1463 C1462 1.399 . S
C1463 C1465 1.380 . S
C1463 H1480 0.929 . S
C1464 C1461 1.399 . S
C1464 C1465 1.392 . S
C1464 H1481 0.929 . S
C1465 C1463 1.380 . S
C1465 C1464 1.392 . S
C1465 H1482 0.929 . S
C1466 C1461 1.383 . S
C1466 C1462 1.389 . S
C1466 H1483 0.931 . S
C1467 O1452 1.266 . S
C1467 O1453 1.248 . S
C1468 Tb1404 2.802 . S
C1468 O1448 1.264 . S
C1468 O1451 1.256 . S
C1468 C1461 1.496 . S
C1469 C1436 1.448 . S
C1469 H1446 0.930 . S
C1469 C1470 1.328 . S
C1470 C1441 1.427 . S
C1470 H1447 0.929 . S
C1470 C1469 1.328 . S
C1471 O1455 1.264 . S
C1471 O1456 1.243 . S
C1472 C1475 1.399 . S
C1472 C1476 1.383 . S
C1472 C1479 1.496 . S
C1473 C1474 1.399 . S
C1473 C1476 1.389 . S
C1474 C1473 1.399 . S
C1474 C1477 1.380 . S
C1474 H1484 0.929 . S
C1475 C1472 1.399 . S
C1475 C1477 1.392 . S
C1475 H1485 0.929 . S
C1476 C1472 1.383 . S
C1476 C1473 1.389 . S
C1476 H1486 0.931 . S
C1477 C1474 1.380 . S
C1477 C1475 1.392 . S
C1477 H1487 0.929 . S
C1478 O1458 1.266 . S
C1478 O1459 1.248 . S
C1479 Tb1415 2.802 . S
C1479 O1454 1.264 . S
C1479 O1457 1.256 . S
C1479 C1472 1.496 . S
H1480 C1463 0.929 . S
H1481 C1464 0.929 . S
H1482 C1465 0.929 . S
H1483 C1466 0.931 . S
H1484 C1474 0.929 . S
H1485 C1475 0.929 . S
H1486 C1476 0.931 . S
H1487 C1477 0.929 . S
Tb1488 N1517 2.617 . S
Tb1488 N1523 2.572 . S
Tb1488 O1532 2.465 . S
Tb1488 O1533 2.387 . S
Tb1488 O1535 2.428 . S
Tb1488 O1536 2.308 . S
Tb1488 O1540 2.349 . S
Tb1488 O1543 2.393 . S
Tb1488 C1552 2.802 . S
C1489 N1490 1.379 . S
C1489 C1492 1.416 . S
C1489 C1496 1.424 . S
N1490 C1489 1.379 . S
N1490 C1493 1.334 . S
N1490 Tb1499 2.617 . S
C1491 C1493 1.390 . S
C1491 C1494 1.339 . S
C1491 H1511 0.930 . S
C1492 C1489 1.416 . S
C1492 C1494 1.416 . S
C1492 C1498 1.448 . S
C1493 N1490 1.334 . S
C1493 C1491 1.390 . S
C1493 H1504 0.930 . S
C1494 C1491 1.339 . S
C1494 C1492 1.416 . S
C1494 H1515 0.930 . S
C1495 C1496 1.413 . S
C1495 C1497 1.427 . S
C1495 C1501 1.416 . S
C1496 C1489 1.424 . S
C1496 C1495 1.413 . S
C1496 N1500 1.361 . S
C1497 C1495 1.427 . S
C1497 C1498 1.328 . S
C1497 H1512 0.929 . S
C1498 C1492 1.448 . S
C1498 C1497 1.328 . S
C1498 H1513 0.930 . S
Tb1499 N1490 2.617 . S
Tb1499 N1500 2.572 . S
Tb1499 O1534 2.349 . S
Tb1499 O1537 2.393 . S
Tb1499 O1538 2.465 . S
Tb1499 O1539 2.387 . S
Tb1499 O1541 2.428 . S
Tb1499 O1542 2.308 . S
Tb1499 C1563 2.802 . S
N1500 C1496 1.361 . S
N1500 Tb1499 2.572 . S
N1500 C1502 1.340 . S
C1501 C1495 1.416 . S
C1501 C1503 1.332 . S
C1501 H1509 0.931 . S
C1502 N1500 1.340 . S
C1502 C1503 1.407 . S
C1502 H1508 0.930 . S
C1503 C1501 1.332 . S
C1503 C1502 1.407 . S
C1503 H1505 0.929 . S
H1504 C1493 0.930 . S
H1505 C1503 0.929 . S
H1506 C1521 0.930 . S
H1507 C1528 0.929 . S
H1508 C1502 0.930 . S
H1509 C1501 0.931 . S
H1510 C1524 0.930 . S
H1511 C1491 0.930 . S
H1512 C1497 0.929 . S
H1513 C1498 0.930 . S
H1514 C1519 0.930 . S
H1515 C1494 0.930 . S
H1516 C1527 0.931 . S
N1517 Tb1488 2.617 . S
N1517 C1518 1.379 . S
N1517 C1521 1.334 . S
C1518 N1517 1.379 . S
C1518 C1520 1.416 . S
C1518 C1526 1.424 . S
C1519 H1514 0.930 . S
C1519 C1521 1.390 . S
C1519 C1522 1.339 . S
C1520 C1518 1.416 . S
C1520 C1522 1.416 . S
C1520 C1553 1.448 . S
C1521 H1506 0.930 . S
C1521 N1517 1.334 . S
C1521 C1519 1.390 . S
C1522 C1519 1.339 . S
C1522 C1520 1.416 . S
C1522 H1529 0.930 . S
N1523 Tb1488 2.572 . S
N1523 C1524 1.340 . S
N1523 C1526 1.361 . S
C1524 H1510 0.930 . S
C1524 N1523 1.340 . S
C1524 C1528 1.407 . S
C1525 C1526 1.413 . S
C1525 C1527 1.416 . S
C1525 C1554 1.427 . S
C1526 C1518 1.424 . S
C1526 N1523 1.361 . S
C1526 C1525 1.413 . S
C1527 H1516 0.931 . S
C1527 C1525 1.416 . S
C1527 C1528 1.332 . S
C1528 H1507 0.929 . S
C1528 C1524 1.407 . S
C1528 C1527 1.332 . S
H1529 C1522 0.930 . S
H1530 C1553 0.930 . S
H1531 C1554 0.929 . S
O1532 Tb1488 2.465 . S
O1532 C1552 1.264 . S
O1533 Tb1488 2.387 . S
O1533 C1544 1.264 . S
O1534 Tb1499 2.349 . S
O1534 C1544 1.243 . S
O1535 Tb1488 2.428 . S
O1535 C1552 1.256 . S
O1536 Tb1488 2.308 . S
O1536 C1551 1.266 . S
O1537 Tb1499 2.393 . S
O1537 C1551 1.248 . S
O1538 Tb1499 2.465 . S
O1538 C1563 1.264 . S
O1539 Tb1499 2.387 . S
O1539 C1555 1.264 . S
O1540 Tb1488 2.349 . S
O1540 C1555 1.243 . S
O1541 Tb1499 2.428 . S
O1541 C1563 1.256 . S
O1542 Tb1499 2.308 . S
O1542 C1562 1.266 . S
O1543 Tb1488 2.393 . S
O1543 C1562 1.248 . S
C1544 O1533 1.264 . S
C1544 O1534 1.243 . S
C1545 C1548 1.399 . S
C1545 C1550 1.383 . S
C1545 C1552 1.496 . S
C1546 C1547 1.399 . S
C1546 C1550 1.389 . S
C1547 C1546 1.399 . S
C1547 C1549 1.380 . S
C1547 H1564 0.929 . S
C1548 C1545 1.399 . S
C1548 C1549 1.392 . S
C1548 H1565 0.929 . S
C1549 C1547 1.380 . S
C1549 C1548 1.392 . S
C1549 H1566 0.929 . S
C1550 C1545 1.383 . S
C1550 C1546 1.389 . S
C1550 H1567 0.931 . S
C1551 O1536 1.266 . S
C1551 O1537 1.248 . S
C1552 Tb1488 2.802 . S
C1552 O1532 1.264 . S
C1552 O1535 1.256 . S
C1552 C1545 1.496 . S
C1553 C1520 1.448 . S
C1553 H1530 0.930 . S
C1553 C1554 1.328 . S
C1554 C1525 1.427 . S
C1554 H1531 0.929 . S
C1554 C1553 1.328 . S
C1555 O1539 1.264 . S
C1555 O1540 1.243 . S
C1556 C1559 1.399 . S
C1556 C1560 1.383 . S
C1556 C1563 1.496 . S
C1557 C1558 1.399 . S
C1557 C1560 1.389 . S
C1558 C1557 1.399 . S
C1558 C1561 1.380 . S
C1558 H1568 0.929 . S
C1559 C1556 1.399 . S
C1559 C1561 1.392 . S
C1559 H1569 0.929 . S
C1560 C1556 1.383 . S
C1560 C1557 1.389 . S
C1560 H1570 0.931 . S
C1561 C1558 1.380 . S
C1561 C1559 1.392 . S
C1561 H1571 0.929 . S
C1562 O1542 1.266 . S
C1562 O1543 1.248 . S
C1563 Tb1499 2.802 . S
C1563 O1538 1.264 . S
C1563 O1541 1.256 . S
C1563 C1556 1.496 . S
H1564 C1547 0.929 . S
H1565 C1548 0.929 . S
H1566 C1549 0.929 . S
H1567 C1550 0.931 . S
H1568 C1558 0.929 . S
H1569 C1559 0.929 . S
H1570 C1560 0.931 . S
H1571 C1561 0.929 . S
Tb1572 N1601 2.617 . S
Tb1572 N1607 2.572 . S
Tb1572 O1616 2.465 . S
Tb1572 O1617 2.387 1_655 S
Tb1572 O1619 2.428 . S
Tb1572 O1620 2.308 . S
Tb1572 O1624 2.349 1_655 S
Tb1572 O1627 2.393 1_655 S
Tb1572 C1636 2.802 . S
C1573 N1574 1.379 1_554 S
C1573 C1576 1.416 1_554 S
C1573 C1580 1.424 . S
N1574 C1573 1.379 1_556 S
N1574 C1577 1.334 . S
N1574 Tb1583 2.617 1_556 S
C1575 C1577 1.390 . S
C1575 C1578 1.339 . S
C1575 H1595 0.930 . S
C1576 C1573 1.416 1_556 S
C1576 C1578 1.416 . S
C1576 C1582 1.448 . S
C1577 N1574 1.334 . S
C1577 C1575 1.390 . S
C1577 H1588 0.930 . S
C1578 C1575 1.339 . S
C1578 C1576 1.416 . S
C1578 H1599 0.930 . S
C1579 C1580 1.413 . S
C1579 C1581 1.427 . S
C1579 C1585 1.416 . S
C1580 C1573 1.424 . S
C1580 C1579 1.413 . S
C1580 N1584 1.361 . S
C1581 C1579 1.427 . S
C1581 C1582 1.328 1_554 S
C1581 H1596 0.929 . S
C1582 C1576 1.448 . S
C1582 C1581 1.328 1_556 S
C1582 H1597 0.930 . S
Tb1583 N1574 2.617 1_554 S
Tb1583 N1584 2.572 . S
Tb1583 O1618 2.349 . S
Tb1583 O1621 2.393 1_554 S
Tb1583 O1622 2.465 . S
Tb1583 O1623 2.387 . S
Tb1583 O1625 2.428 . S
Tb1583 O1626 2.308 . S
Tb1583 C1647 2.802 . S
N1584 C1580 1.361 . S
N1584 Tb1583 2.572 . S
N1584 C1586 1.340 . S
C1585 C1579 1.416 . S
C1585 C1587 1.332 . S
C1585 H1593 0.931 . S
C1586 N1584 1.340 . S
C1586 C1587 1.407 . S
C1586 H1592 0.930 . S
C1587 C1585 1.332 . S
C1587 C1586 1.407 . S
C1587 H1589 0.929 . S
H1588 C1577 0.930 . S
H1589 C1587 0.929 . S
H1590 C1605 0.930 . S
H1591 C1612 0.887 1_556 S
H1592 C1586 0.930 . S
H1593 C1585 0.931 . S
H1594 C1608 0.930 . S
H1595 C1575 0.930 . S
H1596 C1581 0.929 . S
H1597 C1582 0.930 . S
H1598 C1603 0.930 . S
H1599 C1578 0.930 . S
H1600 C1611 0.931 . S
N1601 Tb1572 2.617 . S
N1601 C1602 1.379 . S
N1601 C1605 1.334 . S
C1602 N1601 1.379 . S
C1602 C1604 1.416 . S
C1602 C1610 1.424 . S
C1603 H1598 0.930 . S
C1603 C1605 1.390 . S
C1603 C1606 1.339 . S
C1604 C1602 1.416 . S
C1604 C1606 1.416 . S
C1604 C1637 1.448 . S
C1605 H1590 0.930 . S
C1605 N1601 1.334 . S
C1605 C1603 1.390 . S
C1606 C1603 1.339 . S
C1606 C1604 1.416 . S
C1606 H1613 0.930 . S
N1607 Tb1572 2.572 . S
N1607 C1608 1.340 . S
N1607 C1610 1.361 . S
C1608 H1594 0.930 . S
C1608 N1607 1.340 . S
C1608 C1612 1.407 . S
C1609 C1610 1.413 . S
C1609 C1611 1.416 . S
C1609 C1638 1.427 . S
C1610 C1602 1.424 . S
C1610 N1607 1.361 . S
C1610 C1609 1.413 . S
C1611 H1600 0.931 . S
C1611 C1609 1.416 . S
C1611 C1612 1.332 . S
C1612 H1591 0.887 1_554 S
C1612 C1608 1.407 . S
C1612 C1611 1.332 . S
H1613 C1606 0.930 . S
H1614 C1637 0.930 . S
H1615 C1638 0.929 . S
O1616 Tb1572 2.465 . S
O1616 C1636 1.264 . S
O1617 Tb1572 2.387 1_455 S
O1617 C1628 1.264 . S
O1618 Tb1583 2.349 . S
O1618 C1628 1.243 . S
O1619 Tb1572 2.428 . S
O1619 C1636 1.256 . S
O1620 Tb1572 2.308 . S
O1620 C1635 1.326 . S
O1621 Tb1583 2.393 1_556 S
O1621 C1635 1.231 1_456 S
O1622 Tb1583 2.465 . S
O1622 C1647 1.264 . S
O1623 Tb1583 2.387 . S
O1623 C1639 1.264 . S
O1624 Tb1572 2.349 1_455 S
O1624 C1639 1.243 . S
O1625 Tb1583 2.428 . S
O1625 C1647 1.256 . S
O1626 Tb1583 2.308 . S
O1626 C1646 1.266 . S
O1627 Tb1572 2.393 1_455 S
O1627 C1646 1.248 . S
C1628 O1617 1.264 . S
C1628 O1618 1.243 . S
C1629 C1632 1.399 . S
C1629 C1634 1.383 . S
C1629 C1636 1.496 . S
C1630 C1631 1.399 . S
C1630 C1634 1.389 . S
C1631 C1630 1.399 . S
C1631 C1633 1.380 . S
C1631 H1648 0.929 . S
C1632 C1629 1.399 . S
C1632 C1633 1.392 . S
C1632 H1649 0.929 . S
C1633 C1631 1.380 . S
C1633 C1632 1.392 . S
C1633 H1650 0.929 . S
C1634 C1629 1.383 . S
C1634 C1630 1.389 . S
C1634 H1651 0.931 . S
C1635 O1620 1.326 . S
C1635 O1621 1.231 1_654 S
C1636 Tb1572 2.802 . S
C1636 O1616 1.264 . S
C1636 O1619 1.256 . S
C1636 C1629 1.496 . S
C1637 C1604 1.448 . S
C1637 H1614 0.930 . S
C1637 C1638 1.328 . S
C1638 C1609 1.427 . S
C1638 H1615 0.929 . S
C1638 C1637 1.328 . S
C1639 O1623 1.264 . S
C1639 O1624 1.243 . S
C1640 C1643 1.399 1_554 S
C1640 C1644 1.383 . S
C1640 C1647 1.496 . S
C1641 C1642 1.399 . S
C1641 C1644 1.389 . S
C1642 C1641 1.399 . S
C1642 C1645 1.380 1_554 S
C1642 H1652 0.944 . S
C1643 C1640 1.399 1_556 S
C1643 C1645 1.392 . S
C1643 H1653 0.929 . S
C1644 C1640 1.383 . S
C1644 C1641 1.389 . S
C1644 H1654 0.931 . S
C1645 C1642 1.380 1_556 S
C1645 C1643 1.392 . S
C1645 H1655 0.929 . S
C1646 O1626 1.266 . S
C1646 O1627 1.248 . S
C1647 Tb1583 2.802 . S
C1647 O1622 1.264 . S
C1647 O1625 1.256 . S
C1647 C1640 1.496 . S
H1648 C1631 0.929 . S
H1649 C1632 0.929 . S
H1650 C1633 0.929 . S
H1651 C1634 0.931 . S
H1652 C1642 0.944 . S
H1653 C1643 0.929 . S
H1654 C1644 0.931 . S
H1655 C1645 0.929 . S
H1656 C1674 0.951 . S
H1657 C1676 0.949 . S
H1658 C1678 0.950 . S
H1659 C1679 0.950 . S
H1660 C1681 0.950 . S
H1661 C1684 0.950 . S
H1662 C1685 0.950 . S
H1663 C1687 0.950 . S
H1664 C1688 0.950 . S
H1665 C1689 0.951 . S
H1666 C1691 0.951 1_556 S
H1667 C1693 0.950 . S
H1668 C1694 0.950 . S
H1669 C1696 0.950 . S
H1670 C1699 0.931 1_655 S
H1671 C1700 0.950 . S
H1672 C1702 0.950 . S
H1673 C1703 0.950 . S
C1674 H1656 0.951 . S
C1674 C1675 1.366 1_655 S
C1674 C1676 1.387 . S
C1675 C1674 1.366 1_455 S
C1675 C1679 1.385 . S
C1676 H1657 0.949 . S
C1676 C1674 1.387 . S
C1676 C1677 1.368 1_655 S
C1677 C1676 1.368 1_455 S
C1677 C1678 1.414 . S
C1677 C1680 1.499 . S
C1678 H1658 0.950 . S
C1678 C1677 1.414 . S
C1678 C1679 1.374 . S
C1679 H1659 0.950 . S
C1679 C1675 1.385 . S
C1679 C1678 1.374 . S
C1680 C1677 1.499 . S
C1680 C1681 1.373 . S
C1680 C1682 1.389 1_556 S
C1681 H1660 0.950 . S
C1681 C1680 1.373 . S
C1681 C1697 1.377 . S
C1682 C1680 1.389 1_554 S
C1682 C1683 1.524 . S
C1682 C1696 1.377 . S
C1683 C1682 1.524 . S
C1683 C1684 1.397 . S
C1683 C1688 1.363 . S
C1684 H1661 0.950 . S
C1684 C1683 1.397 . S
C1684 C1685 1.334 . S
C1685 H1662 0.950 . S
C1685 C1684 1.334 . S
C1685 C1686 1.287 . S
C1686 C1685 1.287 . S
C1686 C1687 1.524 . S
C1686 H1705 0.913 . S
C1687 H1663 0.950 . S
C1687 C1686 1.524 . S
C1687 C1688 1.415 . S
C1688 H1664 0.950 . S
C1688 C1683 1.363 . S
C1688 C1687 1.415 . S
C1689 H1665 0.951 . S
C1689 C1690 1.366 . S
C1689 C1691 1.388 . S
C1690 C1689 1.366 . S
C1690 C1694 1.385 . S
C1691 H1666 0.951 1_554 S
C1691 C1689 1.388 . S
C1691 C1692 1.366 . S
C1692 C1691 1.366 . S
C1692 C1693 1.414 . S
C1692 C1695 1.495 1_554 S
C1693 H1667 0.950 . S
C1693 C1692 1.414 . S
C1693 C1694 1.374 . S
C1694 H1668 0.950 . S
C1694 C1690 1.385 . S
C1694 C1693 1.374 . S
C1695 C1692 1.495 1_556 S
C1695 C1696 1.369 1_556 S
C1695 C1697 1.397 . S
C1696 H1669 0.950 . S
C1696 C1682 1.377 . S
C1696 C1695 1.369 1_554 S
C1697 C1681 1.377 . S
C1697 C1695 1.397 . S
C1697 C1698 1.524 . S
C1698 C1697 1.524 . S
C1698 C1699 1.416 . S
C1698 C1703 1.363 . S
C1699 H1670 0.931 1_455 S
C1699 C1698 1.416 . S
C1699 C1700 1.334 1_455 S
C1700 H1671 0.950 . S
C1700 C1699 1.334 1_655 S
C1700 C1701 1.287 1_655 S
C1701 C1700 1.287 1_455 S
C1701 C1702 1.524 . S
C1701 H1704 0.999 . S
C1702 H1672 0.950 . S
C1702 C1701 1.524 . S
C1702 C1703 1.415 . S
C1703 H1673 0.950 . S
C1703 C1698 1.363 . S
C1703 C1702 1.415 . S
H1704 C1701 0.999 . S
H1705 C1686 0.913 . S
H1706 C1724 0.951 . S
H1707 C1726 0.951 . S
H1708 C1728 0.950 . S
H1709 C1729 0.950 . S
H1710 C1731 0.950 . S
H1711 C1734 0.950 . S
H1712 C1735 0.950 . S
H1713 C1737 0.950 . S
H1714 C1738 0.950 . S
H1715 C1739 0.951 . S
H1716 C1741 0.951 . S
H1717 C1743 0.950 . S
H1718 C1744 0.950 . S
H1719 C1746 0.950 . S
H1720 C1749 0.950 . S
H1721 C1750 0.950 . S
H1722 C1752 0.950 . S
H1723 C1753 0.950 . S
C1724 H1706 0.951 . S
C1724 C1725 1.366 . S
C1724 C1726 1.388 . S
C1725 C1724 1.366 . S
C1725 C1729 1.385 . S
C1726 H1707 0.951 . S
C1726 C1724 1.388 . S
C1726 C1727 1.366 . S
C1727 C1726 1.366 . S
C1727 C1728 1.414 . S
C1727 C1730 1.499 . S
C1728 H1708 0.950 . S
C1728 C1727 1.414 . S
C1728 C1729 1.374 . S
C1729 H1709 0.950 . S
C1729 C1725 1.385 . S
C1729 C1728 1.374 . S
C1730 C1727 1.499 . S
C1730 C1731 1.373 . S
C1730 C1732 1.389 . S
C1731 H1710 0.950 . S
C1731 C1730 1.373 . S
C1731 C1747 1.377 . S
C1732 C1730 1.389 . S
C1732 C1733 1.524 . S
C1732 C1746 1.377 . S
C1733 C1732 1.524 . S
C1733 C1734 1.397 . S
C1733 C1738 1.363 . S
C1734 H1711 0.950 . S
C1734 C1733 1.397 . S
C1734 C1735 1.334 . S
C1735 H1712 0.950 . S
C1735 C1734 1.334 . S
C1735 C1736 1.287 . S
C1736 C1735 1.287 . S
C1736 C1737 1.524 . S
C1736 H1755 0.913 . S
C1737 H1713 0.950 . S
C1737 C1736 1.524 . S
C1737 C1738 1.415 . S
C1738 H1714 0.950 . S
C1738 C1733 1.363 . S
C1738 C1737 1.415 . S
C1739 H1715 0.951 . S
C1739 C1740 1.366 . S
C1739 C1741 1.388 . S
C1740 C1739 1.366 . S
C1740 C1744 1.385 . S
C1741 H1716 0.951 . S
C1741 C1739 1.388 . S
C1741 C1742 1.366 . S
C1742 C1741 1.366 . S
C1742 C1743 1.414 . S
C1742 C1745 1.499 . S
C1743 H1717 0.950 . S
C1743 C1742 1.414 . S
C1743 C1744 1.374 . S
C1744 H1718 0.950 . S
C1744 C1740 1.385 . S
C1744 C1743 1.374 . S
C1745 C1742 1.499 . S
C1745 C1746 1.373 . S
C1745 C1747 1.389 . S
C1746 H1719 0.950 . S
C1746 C1732 1.377 . S
C1746 C1745 1.373 . S
C1747 C1731 1.377 . S
C1747 C1745 1.389 . S
C1747 C1748 1.524 . S
C1748 C1747 1.524 . S
C1748 C1749 1.397 . S
C1748 C1753 1.363 . S
C1749 H1720 0.950 . S
C1749 C1748 1.397 . S
C1749 C1750 1.334 . S
C1750 H1721 0.950 . S
C1750 C1749 1.334 . S
C1750 C1751 1.287 . S
C1751 C1750 1.287 . S
C1751 C1752 1.524 . S
C1751 H1754 0.999 . S
C1752 H1722 0.950 . S
C1752 C1751 1.524 . S
C1752 C1753 1.415 . S
C1753 H1723 0.950 . S
C1753 C1748 1.363 . S
C1753 C1752 1.415 . S
H1754 C1751 0.999 . S
H1755 C1736 0.913 . S
H1756 C1774 0.951 . S
H1757 C1776 0.951 . S
H1758 C1778 0.950 . S
H1759 C1779 0.950 . S
H1760 C1781 0.950 . S
H1761 C1784 0.950 . S
H1762 C1785 0.950 . S
H1763 C1787 0.950 . S
H1764 C1788 0.950 . S
H1765 C1789 0.951 . S
H1766 C1791 0.951 . S
H1767 C1793 0.950 . S
H1768 C1794 0.950 . S
H1769 C1796 0.950 . S
H1770 C1799 0.950 . S
H1771 C1800 0.950 . S
H1772 C1802 0.950 . S
H1773 C1803 0.950 . S
C1774 H1756 0.951 . S
C1774 C1775 1.366 . S
C1774 C1776 1.388 . S
C1775 C1774 1.366 . S
C1775 C1779 1.385 . S
C1776 H1757 0.951 . S
C1776 C1774 1.388 . S
C1776 C1777 1.366 . S
C1777 C1776 1.366 . S
C1777 C1778 1.414 . S
C1777 C1780 1.499 . S
C1778 H1758 0.950 . S
C1778 C1777 1.414 . S
C1778 C1779 1.374 . S
C1779 H1759 0.950 . S
C1779 C1775 1.385 . S
C1779 C1778 1.374 . S
C1780 C1777 1.499 . S
C1780 C1781 1.373 . S
C1780 C1782 1.389 . S
C1781 H1760 0.950 . S
C1781 C1780 1.373 . S
C1781 C1797 1.377 . S
C1782 C1780 1.389 . S
C1782 C1783 1.524 . S
C1782 C1796 1.377 . S
C1783 C1782 1.524 . S
C1783 C1784 1.397 . S
C1783 C1788 1.363 . S
C1784 H1761 0.950 . S
C1784 C1783 1.397 . S
C1784 C1785 1.334 . S
C1785 H1762 0.950 . S
C1785 C1784 1.334 . S
C1785 C1786 1.287 . S
C1786 C1785 1.287 . S
C1786 C1787 1.524 . S
C1786 H1805 0.913 . S
C1787 H1763 0.950 . S
C1787 C1786 1.524 . S
C1787 C1788 1.415 . S
C1788 H1764 0.950 . S
C1788 C1783 1.363 . S
C1788 C1787 1.415 . S
C1789 H1765 0.951 . S
C1789 C1790 1.366 . S
C1789 C1791 1.388 . S
C1790 C1789 1.366 . S
C1790 C1794 1.385 . S
C1791 H1766 0.951 . S
C1791 C1789 1.388 . S
C1791 C1792 1.366 . S
C1792 C1791 1.366 . S
C1792 C1793 1.414 . S
C1792 C1795 1.499 . S
C1793 H1767 0.950 . S
C1793 C1792 1.414 . S
C1793 C1794 1.374 . S
C1794 H1768 0.950 . S
C1794 C1790 1.385 . S
C1794 C1793 1.374 . S
C1795 C1792 1.499 . S
C1795 C1796 1.373 . S
C1795 C1797 1.389 . S
C1796 H1769 0.950 . S
C1796 C1782 1.377 . S
C1796 C1795 1.373 . S
C1797 C1781 1.377 . S
C1797 C1795 1.389 . S
C1797 C1798 1.524 . S
C1798 C1797 1.524 . S
C1798 C1799 1.397 . S
C1798 C1803 1.363 . S
C1799 H1770 0.950 . S
C1799 C1798 1.397 . S
C1799 C1800 1.334 . S
C1800 H1771 0.950 . S
C1800 C1799 1.334 . S
C1800 C1801 1.287 . S
C1801 C1800 1.287 . S
C1801 C1802 1.524 . S
C1801 H1804 0.999 . S
C1802 H1772 0.950 . S
C1802 C1801 1.524 . S
C1802 C1803 1.415 . S
C1803 H1773 0.950 . S
C1803 C1798 1.363 . S
C1803 C1802 1.415 . S
H1804 C1801 0.999 . S
H1805 C1786 0.913 . S
H1806 C1824 0.951 . S
H1807 C1826 0.951 . S
H1808 C1828 0.950 . S
H1809 C1829 0.950 . S
H1810 C1831 0.950 . S
H1811 C1834 0.950 . S
H1812 C1835 0.950 . S
H1813 C1837 0.950 . S
H1814 C1838 0.950 . S
H1815 C1839 0.951 . S
H1816 C1841 0.951 . S
H1817 C1843 0.950 . S
H1818 C1844 0.950 . S
H1819 C1846 0.950 . S
H1820 C1849 0.950 . S
H1821 C1850 0.950 . S
H1822 C1852 0.950 . S
H1823 C1853 0.950 . S
C1824 H1806 0.951 . S
C1824 C1825 1.366 . S
C1824 C1826 1.388 . S
C1825 C1824 1.366 . S
C1825 C1829 1.385 . S
C1826 H1807 0.951 . S
C1826 C1824 1.388 . S
C1826 C1827 1.366 . S
C1827 C1826 1.366 . S
C1827 C1828 1.414 . S
C1827 C1830 1.499 . S
C1828 H1808 0.950 . S
C1828 C1827 1.414 . S
C1828 C1829 1.374 . S
C1829 H1809 0.950 . S
C1829 C1825 1.385 . S
C1829 C1828 1.374 . S
C1830 C1827 1.499 . S
C1830 C1831 1.373 . S
C1830 C1832 1.389 . S
C1831 H1810 0.950 . S
C1831 C1830 1.373 . S
C1831 C1847 1.377 . S
C1832 C1830 1.389 . S
C1832 C1833 1.524 . S
C1832 C1846 1.377 . S
C1833 C1832 1.524 . S
C1833 C1834 1.397 . S
C1833 C1838 1.363 . S
C1834 H1811 0.950 . S
C1834 C1833 1.397 . S
C1834 C1835 1.334 . S
C1835 H1812 0.950 . S
C1835 C1834 1.334 . S
C1835 C1836 1.287 . S
C1836 C1835 1.287 . S
C1836 C1837 1.524 . S
C1836 H1855 0.913 . S
C1837 H1813 0.950 . S
C1837 C1836 1.524 . S
C1837 C1838 1.415 . S
C1838 H1814 0.950 . S
C1838 C1833 1.363 . S
C1838 C1837 1.415 . S
C1839 H1815 0.951 . S
C1839 C1840 1.366 . S
C1839 C1841 1.388 . S
C1840 C1839 1.366 . S
C1840 C1844 1.385 . S
C1841 H1816 0.951 . S
C1841 C1839 1.388 . S
C1841 C1842 1.366 . S
C1842 C1841 1.366 . S
C1842 C1843 1.414 . S
C1842 C1845 1.499 . S
C1843 H1817 0.950 . S
C1843 C1842 1.414 . S
C1843 C1844 1.374 . S
C1844 H1818 0.950 . S
C1844 C1840 1.385 . S
C1844 C1843 1.374 . S
C1845 C1842 1.499 . S
C1845 C1846 1.373 . S
C1845 C1847 1.389 . S
C1846 H1819 0.950 . S
C1846 C1832 1.377 . S
C1846 C1845 1.373 . S
C1847 C1831 1.377 . S
C1847 C1845 1.389 . S
C1847 C1848 1.524 . S
C1848 C1847 1.524 . S
C1848 C1849 1.397 . S
C1848 C1853 1.363 . S
C1849 H1820 0.950 . S
C1849 C1848 1.397 . S
C1849 C1850 1.334 . S
C1850 H1821 0.950 . S
C1850 C1849 1.334 . S
C1850 C1851 1.287 . S
C1851 C1850 1.287 . S
C1851 C1852 1.524 . S
C1851 H1854 0.999 . S
C1852 H1822 0.950 . S
C1852 C1851 1.524 . S
C1852 C1853 1.415 . S
C1853 H1823 0.950 . S
C1853 C1848 1.363 . S
C1853 C1852 1.415 . S
H1854 C1851 0.999 . S
H1855 C1836 0.913 . S
H1856 C1874 0.951 1_655 S
H1857 C1876 0.951 1_655 S
H1858 C1878 0.950 . S
H1859 C1879 0.950 . S
H1860 C1881 0.950 . S
H1861 C1884 0.950 . S
H1862 C1885 0.950 . S
H1863 C1887 0.950 . S
H1864 C1888 0.950 . S
H1865 C1889 0.951 . S
H1866 C1891 0.951 . S
H1867 C1893 0.950 . S
H1868 C1894 0.950 . S
H1869 C1896 0.950 . S
H1870 C1899 0.950 . S
H1871 C1900 0.950 . S
H1872 C1902 0.950 . S
H1873 C1903 0.950 . S
C1874 H1856 0.951 1_455 S
C1874 C1875 1.366 . S
C1874 C1876 1.388 . S
C1875 C1874 1.366 . S
C1875 C1879 1.385 . S
C1876 H1857 0.951 1_455 S
C1876 C1874 1.388 . S
C1876 C1877 1.366 . S
C1877 C1876 1.366 . S
C1877 C1878 1.414 . S
C1877 C1880 1.499 . S
C1878 H1858 0.950 . S
C1878 C1877 1.414 . S
C1878 C1879 1.374 . S
C1879 H1859 0.950 . S
C1879 C1875 1.385 . S
C1879 C1878 1.374 . S
C1880 C1877 1.499 . S
C1880 C1881 1.373 . S
C1880 C1882 1.389 . S
C1881 H1860 0.950 . S
C1881 C1880 1.373 . S
C1881 C1897 1.377 . S
C1882 C1880 1.389 . S
C1882 C1883 1.524 . S
C1882 C1896 1.377 . S
C1883 C1882 1.524 . S
C1883 C1884 1.397 . S
C1883 C1888 1.363 1_455 S
C1884 H1861 0.950 . S
C1884 C1883 1.397 . S
C1884 C1885 1.334 . S
C1885 H1862 0.950 . S
C1885 C1884 1.334 . S
C1885 C1886 1.287 1_455 S
C1886 C1885 1.287 1_655 S
C1886 C1887 1.524 . S
C1886 H1905 0.913 . S
C1887 H1863 0.950 . S
C1887 C1886 1.524 . S
C1887 C1888 1.415 . S
C1888 H1864 0.950 . S
C1888 C1883 1.363 1_655 S
C1888 C1887 1.415 . S
C1889 H1865 0.951 . S
C1889 C1890 1.366 . S
C1889 C1891 1.388 . S
C1890 C1889 1.366 . S
C1890 C1894 1.385 . S
C1891 H1866 0.951 . S
C1891 C1889 1.388 . S
C1891 C1892 1.366 . S
C1892 C1891 1.366 . S
C1892 C1893 1.414 . S
C1892 C1895 1.499 . S
C1893 H1867 0.950 . S
C1893 C1892 1.414 . S
C1893 C1894 1.374 . S
C1894 H1868 0.950 . S
C1894 C1890 1.385 . S
C1894 C1893 1.374 . S
C1895 C1892 1.499 . S
C1895 C1896 1.373 . S
C1895 C1897 1.389 . S
C1896 H1869 0.950 . S
C1896 C1882 1.377 . S
C1896 C1895 1.373 . S
C1897 C1881 1.377 . S
C1897 C1895 1.389 . S
C1897 C1898 1.524 . S
C1898 C1897 1.524 . S
C1898 C1899 1.397 . S
C1898 C1903 1.363 . S
C1899 H1870 0.950 . S
C1899 C1898 1.397 . S
C1899 C1900 1.334 . S
C1900 H1871 0.950 . S
C1900 C1899 1.334 . S
C1900 C1901 1.287 . S
C1901 C1900 1.287 . S
C1901 C1902 1.524 . S
C1901 H1904 0.999 . S
C1902 H1872 0.950 . S
C1902 C1901 1.524 . S
C1902 C1903 1.415 . S
C1903 H1873 0.950 . S
C1903 C1898 1.363 . S
C1903 C1902 1.415 . S
H1904 C1901 0.999 . S
H1905 C1886 0.913 . S
H1906 C1924 0.951 . S
H1907 C1926 0.951 . S
H1908 C1928 0.950 . S
H1909 C1929 0.950 . S
H1910 C1931 0.950 . S
H1911 C1934 0.950 . S
H1912 C1935 0.950 . S
H1913 C1937 0.950 . S
H1914 C1938 0.950 . S
H1915 C1939 0.951 . S
H1916 C1941 0.951 . S
H1917 C1943 0.950 . S
H1918 C1944 0.950 . S
H1919 C1946 0.950 . S
H1920 C1949 0.950 . S
H1921 C1950 0.950 . S
H1922 C1952 0.950 . S
H1923 C1953 0.950 . S
C1924 H1906 0.951 . S
C1924 C1925 1.366 . S
C1924 C1926 1.388 . S
C1925 C1924 1.366 . S
C1925 C1929 1.385 . S
C1926 H1907 0.951 . S
C1926 C1924 1.388 . S
C1926 C1927 1.366 . S
C1927 C1926 1.366 . S
C1927 C1928 1.414 . S
C1927 C1930 1.499 . S
C1928 H1908 0.950 . S
C1928 C1927 1.414 . S
C1928 C1929 1.374 . S
C1929 H1909 0.950 . S
C1929 C1925 1.385 . S
C1929 C1928 1.374 . S
C1930 C1927 1.499 . S
C1930 C1931 1.373 . S
C1930 C1932 1.389 . S
C1931 H1910 0.950 . S
C1931 C1930 1.373 . S
C1931 C1947 1.377 . S
C1932 C1930 1.389 . S
C1932 C1933 1.524 . S
C1932 C1946 1.377 . S
C1933 C1932 1.524 . S
C1933 C1934 1.397 . S
C1933 C1938 1.363 . S
C1934 H1911 0.950 . S
C1934 C1933 1.397 . S
C1934 C1935 1.334 . S
C1935 H1912 0.950 . S
C1935 C1934 1.334 . S
C1935 C1936 1.287 . S
C1936 C1935 1.287 . S
C1936 C1937 1.524 . S
C1936 H1955 0.913 . S
C1937 H1913 0.950 . S
C1937 C1936 1.524 . S
C1937 C1938 1.415 . S
C1938 H1914 0.950 . S
C1938 C1933 1.363 . S
C1938 C1937 1.415 . S
C1939 H1915 0.951 . S
C1939 C1940 1.366 . S
C1939 C1941 1.388 . S
C1940 C1939 1.366 . S
C1940 C1944 1.385 . S
C1941 H1916 0.951 . S
C1941 C1939 1.388 . S
C1941 C1942 1.366 . S
C1942 C1941 1.366 . S
C1942 C1943 1.414 . S
C1942 C1945 1.499 . S
C1943 H1917 0.950 . S
C1943 C1942 1.414 . S
C1943 C1944 1.374 . S
C1944 H1918 0.950 . S
C1944 C1940 1.385 . S
C1944 C1943 1.374 . S
C1945 C1942 1.499 . S
C1945 C1946 1.373 . S
C1945 C1947 1.389 . S
C1946 H1919 0.950 . S
C1946 C1932 1.377 . S
C1946 C1945 1.373 . S
C1947 C1931 1.377 . S
C1947 C1945 1.389 . S
C1947 C1948 1.524 . S
C1948 C1947 1.524 . S
C1948 C1949 1.397 . S
C1948 C1953 1.363 . S
C1949 H1920 0.950 . S
C1949 C1948 1.397 . S
C1949 C1950 1.334 . S
C1950 H1921 0.950 . S
C1950 C1949 1.334 . S
C1950 C1951 1.287 . S
C1951 C1950 1.287 . S
C1951 C1952 1.524 . S
C1951 H1954 0.999 . S
C1952 H1922 0.950 . S
C1952 C1951 1.524 . S
C1952 C1953 1.415 . S
C1953 H1923 0.950 . S
C1953 C1948 1.363 . S
C1953 C1952 1.415 . S
H1954 C1951 0.999 . S
H1955 C1936 0.913 . S
H1956 C1974 0.951 . S
H1957 C1976 0.951 . S
H1958 C1978 0.950 . S
H1959 C1979 0.950 . S
H1960 C1981 0.950 . S
H1961 C1984 0.950 . S
H1962 C1985 0.950 . S
H1963 C1987 0.950 . S
H1964 C1988 0.950 . S
H1965 C1989 0.951 . S
H1966 C1991 0.951 . S
H1967 C1993 0.950 . S
H1968 C1994 0.950 . S
H1969 C1996 0.950 . S
H1970 C1999 0.950 . S
H1971 C2000 0.950 . S
H1972 C2002 0.950 . S
H1973 C2003 0.950 . S
C1974 H1956 0.951 . S
C1974 C1975 1.366 . S
C1974 C1976 1.388 . S
C1975 C1974 1.366 . S
C1975 C1979 1.385 . S
C1976 H1957 0.951 . S
C1976 C1974 1.388 . S
C1976 C1977 1.366 . S
C1977 C1976 1.366 . S
C1977 C1978 1.414 . S
C1977 C1980 1.499 . S
C1978 H1958 0.950 . S
C1978 C1977 1.414 . S
C1978 C1979 1.374 . S
C1979 H1959 0.950 . S
C1979 C1975 1.385 . S
C1979 C1978 1.374 . S
C1980 C1977 1.499 . S
C1980 C1981 1.373 . S
C1980 C1982 1.389 . S
C1981 H1960 0.950 . S
C1981 C1980 1.373 . S
C1981 C1997 1.377 . S
C1982 C1980 1.389 . S
C1982 C1983 1.524 . S
C1982 C1996 1.377 . S
C1983 C1982 1.524 . S
C1983 C1984 1.397 . S
C1983 C1988 1.363 . S
C1984 H1961 0.950 . S
C1984 C1983 1.397 . S
C1984 C1985 1.334 . S
C1985 H1962 0.950 . S
C1985 C1984 1.334 . S
C1985 C1986 1.287 . S
C1986 C1985 1.287 . S
C1986 C1987 1.524 . S
C1986 H2005 0.913 . S
C1987 H1963 0.950 . S
C1987 C1986 1.524 . S
C1987 C1988 1.415 . S
C1988 H1964 0.950 . S
C1988 C1983 1.363 . S
C1988 C1987 1.415 . S
C1989 H1965 0.951 . S
C1989 C1990 1.366 . S
C1989 C1991 1.388 . S
C1990 C1989 1.366 . S
C1990 C1994 1.385 . S
C1991 H1966 0.951 . S
C1991 C1989 1.388 . S
C1991 C1992 1.366 . S
C1992 C1991 1.366 . S
C1992 C1993 1.414 . S
C1992 C1995 1.499 . S
C1993 H1967 0.950 . S
C1993 C1992 1.414 . S
C1993 C1994 1.374 . S
C1994 H1968 0.950 . S
C1994 C1990 1.385 . S
C1994 C1993 1.374 . S
C1995 C1992 1.499 . S
C1995 C1996 1.373 . S
C1995 C1997 1.389 . S
C1996 H1969 0.950 . S
C1996 C1982 1.377 . S
C1996 C1995 1.373 . S
C1997 C1981 1.377 . S
C1997 C1995 1.389 . S
C1997 C1998 1.524 . S
C1998 C1997 1.524 . S
C1998 C1999 1.397 . S
C1998 C2003 1.363 . S
C1999 H1970 0.950 . S
C1999 C1998 1.397 . S
C1999 C2000 1.334 . S
C2000 H1971 0.950 . S
C2000 C1999 1.334 . S
C2000 C2001 1.287 . S
C2001 C2000 1.287 . S
C2001 C2002 1.524 . S
C2001 H2004 0.999 . S
C2002 H1972 0.950 . S
C2002 C2001 1.524 . S
C2002 C2003 1.415 . S
C2003 H1973 0.950 . S
C2003 C1998 1.363 . S
C2003 C2002 1.415 . S
H2004 C2001 0.999 . S
H2005 C1986 0.913 . S
H2006 C2024 0.951 . S
H2007 C2026 0.951 . S
H2008 C2028 0.950 . S
H2009 C2029 0.950 . S
H2010 C2031 0.950 . S
H2011 C2034 0.950 . S
H2012 C2035 0.950 . S
H2013 C2037 0.950 . S
H2014 C2038 0.950 . S
H2015 C2039 0.951 . S
H2016 C2041 0.951 . S
H2017 C2043 0.950 . S
H2018 C2044 0.950 . S
H2019 C2046 0.950 . S
H2020 C2049 0.950 . S
H2021 C2050 0.950 . S
H2022 C2052 0.950 . S
H2023 C2053 0.950 . S
C2024 H2006 0.951 . S
C2024 C2025 1.366 . S
C2024 C2026 1.388 . S
C2025 C2024 1.366 . S
C2025 C2029 1.385 . S
C2026 H2007 0.951 . S
C2026 C2024 1.388 . S
C2026 C2027 1.366 . S
C2027 C2026 1.366 . S
C2027 C2028 1.414 . S
C2027 C2030 1.499 . S
C2028 H2008 0.950 . S
C2028 C2027 1.414 . S
C2028 C2029 1.374 . S
C2029 H2009 0.950 . S
C2029 C2025 1.385 . S
C2029 C2028 1.374 . S
C2030 C2027 1.499 . S
C2030 C2031 1.373 . S
C2030 C2032 1.389 . S
C2031 H2010 0.950 . S
C2031 C2030 1.373 . S
C2031 C2047 1.377 . S
C2032 C2030 1.389 . S
C2032 C2033 1.524 . S
C2032 C2046 1.377 . S
C2033 C2032 1.524 . S
C2033 C2034 1.397 . S
C2033 C2038 1.363 . S
C2034 H2011 0.950 . S
C2034 C2033 1.397 . S
C2034 C2035 1.334 . S
C2035 H2012 0.950 . S
C2035 C2034 1.334 . S
C2035 C2036 1.287 . S
C2036 C2035 1.287 . S
C2036 C2037 1.524 . S
C2036 H2055 0.913 . S
C2037 H2013 0.950 . S
C2037 C2036 1.524 . S
C2037 C2038 1.415 . S
C2038 H2014 0.950 . S
C2038 C2033 1.363 . S
C2038 C2037 1.415 . S
C2039 H2015 0.951 . S
C2039 C2040 1.366 . S
C2039 C2041 1.388 . S
C2040 C2039 1.366 . S
C2040 C2044 1.385 . S
C2041 H2016 0.951 . S
C2041 C2039 1.388 . S
C2041 C2042 1.366 . S
C2042 C2041 1.366 . S
C2042 C2043 1.414 . S
C2042 C2045 1.499 . S
C2043 H2017 0.950 . S
C2043 C2042 1.414 . S
C2043 C2044 1.374 . S
C2044 H2018 0.950 . S
C2044 C2040 1.385 . S
C2044 C2043 1.374 . S
C2045 C2042 1.499 . S
C2045 C2046 1.373 . S
C2045 C2047 1.389 . S
C2046 H2019 0.950 . S
C2046 C2032 1.377 . S
C2046 C2045 1.373 . S
C2047 C2031 1.377 . S
C2047 C2045 1.389 . S
C2047 C2048 1.524 . S
C2048 C2047 1.524 . S
C2048 C2049 1.397 . S
C2048 C2053 1.363 . S
C2049 H2020 0.950 . S
C2049 C2048 1.397 . S
C2049 C2050 1.334 . S
C2050 H2021 0.950 . S
C2050 C2049 1.334 . S
C2050 C2051 1.287 . S
C2051 C2050 1.287 . S
C2051 C2052 1.524 . S
C2051 H2054 0.999 . S
C2052 H2022 0.950 . S
C2052 C2051 1.524 . S
C2052 C2053 1.415 . S
C2053 H2023 0.950 . S
C2053 C2048 1.363 . S
C2053 C2052 1.415 . S
H2054 C2051 0.999 . S
H2055 C2036 0.913 . S
H2056 C2074 0.951 . S
H2057 C2076 0.951 . S
H2058 C2078 0.950 . S
H2059 C2079 0.950 1_565 S
H2060 C2081 0.950 . S
H2061 C2084 0.950 . S
H2062 C2085 0.950 . S
H2063 C2087 0.950 . S
H2064 C2088 0.950 . S
H2065 C2089 0.951 . S
H2066 C2091 0.951 . S
H2067 C2093 0.950 . S
H2068 C2094 0.950 . S
H2069 C2096 0.950 . S
H2070 C2099 0.950 . S
H2071 C2100 0.950 . S
H2072 C2102 0.950 . S
H2073 C2103 0.950 . S
C2074 H2056 0.951 . S
C2074 C2075 1.366 . S
C2074 C2076 1.388 . S
C2075 C2074 1.366 . S
C2075 C2079 1.385 . S
C2076 H2057 0.951 . S
C2076 C2074 1.388 . S
C2076 C2077 1.366 . S
C2077 C2076 1.366 . S
C2077 C2078 1.414 . S
C2077 C2080 1.499 . S
C2078 H2058 0.950 . S
C2078 C2077 1.414 . S
C2078 C2079 1.374 . S
C2079 H2059 0.950 1_545 S
C2079 C2075 1.385 . S
C2079 C2078 1.374 . S
C2080 C2077 1.499 . S
C2080 C2081 1.373 . S
C2080 C2082 1.389 . S
C2081 H2060 0.950 . S
C2081 C2080 1.373 . S
C2081 C2097 1.377 . S
C2082 C2080 1.389 . S
C2082 C2083 1.524 . S
C2082 C2096 1.377 . S
C2083 C2082 1.524 . S
C2083 C2084 1.397 . S
C2083 C2088 1.363 . S
C2084 H2061 0.950 . S
C2084 C2083 1.397 . S
C2084 C2085 1.334 . S
C2085 H2062 0.950 . S
C2085 C2084 1.334 . S
C2085 C2086 1.287 . S
C2086 C2085 1.287 . S
C2086 C2087 1.524 . S
C2086 H2105 0.913 . S
C2087 H2063 0.950 . S
C2087 C2086 1.524 . S
C2087 C2088 1.415 . S
C2088 H2064 0.950 . S
C2088 C2083 1.363 . S
C2088 C2087 1.415 . S
C2089 H2065 0.951 . S
C2089 C2090 1.366 . S
C2089 C2091 1.388 . S
C2090 C2089 1.366 . S
C2090 C2094 1.385 . S
C2091 H2066 0.951 . S
C2091 C2089 1.388 . S
C2091 C2092 1.366 1_455 S
C2092 C2091 1.366 1_655 S
C2092 C2093 1.414 . S
C2092 C2095 1.499 . S
C2093 H2067 0.950 . S
C2093 C2092 1.414 . S
C2093 C2094 1.374 1_655 S
C2094 H2068 0.950 . S
C2094 C2090 1.385 . S
C2094 C2093 1.374 1_455 S
C2095 C2092 1.499 . S
C2095 C2096 1.373 . S
C2095 C2097 1.389 . S
C2096 H2069 0.950 . S
C2096 C2082 1.377 . S
C2096 C2095 1.373 . S
C2097 C2081 1.377 . S
C2097 C2095 1.389 . S
C2097 C2098 1.524 1_655 S
C2098 C2097 1.524 1_455 S
C2098 C2099 1.397 . S
C2098 C2103 1.363 . S
C2099 H2070 0.950 . S
C2099 C2098 1.397 . S
C2099 C2100 1.334 . S
C2100 H2071 0.950 . S
C2100 C2099 1.334 . S
C2100 C2101 1.287 . S
C2101 C2100 1.287 . S
C2101 C2102 1.524 . S
C2101 H2104 0.999 . S
C2102 H2072 0.950 . S
C2102 C2101 1.524 . S
C2102 C2103 1.415 . S
C2103 H2073 0.950 . S
C2103 C2098 1.363 . S
C2103 C2102 1.415 . S
H2104 C2101 0.999 . S
H2105 C2086 0.913 . S
H2106 C2124 0.951 . S
H2107 C2126 0.951 . S
H2108 C2128 0.950 . S
H2109 C2129 0.950 . S
H2110 C2131 0.950 . S
H2111 C2134 0.950 . S
H2112 C2135 0.950 . S
H2113 C2137 0.950 . S
H2114 C2138 0.950 . S
H2115 C2139 0.951 . S
H2116 C2141 0.951 . S
H2117 C2143 0.950 . S
H2118 C2144 0.950 . S
H2119 C2146 0.950 . S
H2120 C2149 0.950 . S
H2121 C2150 0.950 . S
H2122 C2152 0.950 . S
H2123 C2153 0.950 . S
C2124 H2106 0.951 . S
C2124 C2125 1.366 . S
C2124 C2126 1.388 . S
C2125 C2124 1.366 . S
C2125 C2129 1.385 . S
C2126 H2107 0.951 . S
C2126 C2124 1.388 . S
C2126 C2127 1.366 . S
C2127 C2126 1.366 . S
C2127 C2128 1.414 . S
C2127 C2130 1.499 . S
C2128 H2108 0.950 . S
C2128 C2127 1.414 . S
C2128 C2129 1.374 . S
C2129 H2109 0.950 . S
C2129 C2125 1.385 . S
C2129 C2128 1.374 . S
C2130 C2127 1.499 . S
C2130 C2131 1.373 . S
C2130 C2132 1.389 . S
C2131 H2110 0.950 . S
C2131 C2130 1.373 . S
C2131 C2147 1.377 . S
C2132 C2130 1.389 . S
C2132 C2133 1.524 . S
C2132 C2146 1.377 . S
C2133 C2132 1.524 . S
C2133 C2134 1.397 . S
C2133 C2138 1.363 . S
C2134 H2111 0.950 . S
C2134 C2133 1.397 . S
C2134 C2135 1.334 . S
C2135 H2112 0.950 . S
C2135 C2134 1.334 . S
C2135 C2136 1.287 . S
C2136 C2135 1.287 . S
C2136 C2137 1.524 . S
C2136 H2155 0.913 . S
C2137 H2113 0.950 . S
C2137 C2136 1.524 . S
C2137 C2138 1.415 . S
C2138 H2114 0.950 . S
C2138 C2133 1.363 . S
C2138 C2137 1.415 . S
C2139 H2115 0.951 . S
C2139 C2140 1.366 . S
C2139 C2141 1.388 . S
C2140 C2139 1.366 . S
C2140 C2144 1.385 . S
C2141 H2116 0.951 . S
C2141 C2139 1.388 . S
C2141 C2142 1.366 . S
C2142 C2141 1.366 . S
C2142 C2143 1.414 . S
C2142 C2145 1.499 . S
C2143 H2117 0.950 . S
C2143 C2142 1.414 . S
C2143 C2144 1.374 . S
C2144 H2118 0.950 . S
C2144 C2140 1.385 . S
C2144 C2143 1.374 . S
C2145 C2142 1.499 . S
C2145 C2146 1.373 . S
C2145 C2147 1.389 . S
C2146 H2119 0.950 . S
C2146 C2132 1.377 . S
C2146 C2145 1.373 . S
C2147 C2131 1.377 . S
C2147 C2145 1.389 . S
C2147 C2148 1.524 . S
C2148 C2147 1.524 . S
C2148 C2149 1.397 . S
C2148 C2153 1.363 . S
C2149 H2120 0.950 . S
C2149 C2148 1.397 . S
C2149 C2150 1.334 . S
C2150 H2121 0.950 . S
C2150 C2149 1.334 . S
C2150 C2151 1.287 . S
C2151 C2150 1.287 . S
C2151 C2152 1.524 . S
C2151 H2154 0.999 . S
C2152 H2122 0.950 . S
C2152 C2151 1.524 . S
C2152 C2153 1.415 . S
C2153 H2123 0.950 . S
C2153 C2148 1.363 . S
C2153 C2152 1.415 . S
H2154 C2151 0.999 . S
H2155 C2136 0.913 . S
H2156 C2174 0.951 . S
H2157 C2176 0.951 . S
H2158 C2178 0.950 . S
H2159 C2179 0.950 . S
H2160 C2181 0.950 . S
H2161 C2184 0.950 . S
H2162 C2185 0.950 . S
H2163 C2187 0.950 1_565 S
H2164 C2188 0.950 1_565 S
H2165 C2189 0.951 . S
H2166 C2191 0.951 . S
H2167 C2193 0.950 1_565 S
H2168 C2194 0.950 1_565 S
H2169 C2196 0.950 . S
H2170 C2199 0.950 . S
H2171 C2200 0.950 . S
H2172 C2202 0.950 . S
H2173 C2203 0.950 . S
C2174 H2156 0.951 . S
C2174 C2175 1.366 . S
C2174 C2176 1.388 . S
C2175 C2174 1.366 . S
C2175 C2179 1.385 . S
C2176 H2157 0.951 . S
C2176 C2174 1.388 . S
C2176 C2177 1.366 . S
C2177 C2176 1.366 . S
C2177 C2178 1.414 . S
C2177 C2180 1.499 . S
C2178 H2158 0.950 . S
C2178 C2177 1.414 . S
C2178 C2179 1.374 . S
C2179 H2159 0.950 . S
C2179 C2175 1.385 . S
C2179 C2178 1.374 . S
C2180 C2177 1.499 . S
C2180 C2181 1.373 . S
C2180 C2182 1.389 . S
C2181 H2160 0.950 . S
C2181 C2180 1.373 . S
C2181 C2197 1.377 . S
C2182 C2180 1.389 . S
C2182 C2183 1.524 . S
C2182 C2196 1.377 . S
C2183 C2182 1.524 . S
C2183 C2184 1.397 . S
C2183 C2188 1.363 . S
C2184 H2161 0.950 . S
C2184 C2183 1.397 . S
C2184 C2185 1.334 . S
C2185 H2162 0.950 . S
C2185 C2184 1.334 . S
C2185 C2186 1.287 . S
C2186 C2185 1.287 . S
C2186 C2187 1.524 . S
C2186 H2205 0.913 . S
C2187 H2163 0.950 1_545 S
C2187 C2186 1.524 . S
C2187 C2188 1.415 . S
C2188 H2164 0.950 1_545 S
C2188 C2183 1.363 . S
C2188 C2187 1.415 . S
C2189 H2165 0.951 . S
C2189 C2190 1.366 . S
C2189 C2191 1.388 . S
C2190 C2189 1.366 . S
C2190 C2194 1.385 . S
C2191 H2166 0.951 . S
C2191 C2189 1.388 . S
C2191 C2192 1.366 . S
C2192 C2191 1.366 . S
C2192 C2193 1.414 . S
C2192 C2195 1.499 . S
C2193 H2167 0.950 1_545 S
C2193 C2192 1.414 . S
C2193 C2194 1.374 . S
C2194 H2168 0.950 1_545 S
C2194 C2190 1.385 . S
C2194 C2193 1.374 . S
C2195 C2192 1.499 . S
C2195 C2196 1.373 . S
C2195 C2197 1.389 . S
C2196 H2169 0.950 . S
C2196 C2182 1.377 . S
C2196 C2195 1.373 . S
C2197 C2181 1.377 . S
C2197 C2195 1.389 . S
C2197 C2198 1.524 . S
C2198 C2197 1.524 . S
C2198 C2199 1.397 . S
C2198 C2203 1.363 . S
C2199 H2170 0.950 . S
C2199 C2198 1.397 . S
C2199 C2200 1.334 . S
C2200 H2171 0.950 . S
C2200 C2199 1.334 . S
C2200 C2201 1.287 . S
C2201 C2200 1.287 . S
C2201 C2202 1.524 . S
C2201 H2204 0.999 . S
C2202 H2172 0.950 . S
C2202 C2201 1.524 . S
C2202 C2203 1.415 . S
C2203 H2173 0.950 . S
C2203 C2198 1.363 . S
C2203 C2202 1.415 . S
H2204 C2201 0.999 . S
H2205 C2186 0.913 . S
H2206 C2224 0.951 . S
H2207 C2226 0.951 . S
H2208 C2228 0.950 . S
H2209 C2229 0.950 . S
H2210 C2231 0.950 . S
H2211 C2234 0.950 . S
H2212 C2235 0.950 . S
H2213 C2237 0.950 . S
H2214 C2238 0.950 . S
H2215 C2239 0.951 . S
H2216 C2241 0.951 . S
H2217 C2243 0.950 . S
H2218 C2244 0.950 . S
H2219 C2246 0.950 . S
H2220 C2249 0.950 . S
H2221 C2250 0.950 . S
H2222 C2252 0.950 . S
H2223 C2253 0.950 . S
C2224 H2206 0.951 . S
C2224 C2225 1.366 . S
C2224 C2226 1.388 . S
C2225 C2224 1.366 . S
C2225 C2229 1.385 . S
C2226 H2207 0.951 . S
C2226 C2224 1.388 . S
C2226 C2227 1.366 . S
C2227 C2226 1.366 . S
C2227 C2228 1.414 . S
C2227 C2230 1.499 . S
C2228 H2208 0.950 . S
C2228 C2227 1.414 . S
C2228 C2229 1.374 . S
C2229 H2209 0.950 . S
C2229 C2225 1.385 . S
C2229 C2228 1.374 . S
C2230 C2227 1.499 . S
C2230 C2231 1.373 . S
C2230 C2232 1.389 . S
C2231 H2210 0.950 . S
C2231 C2230 1.373 . S
C2231 C2247 1.377 . S
C2232 C2230 1.389 . S
C2232 C2233 1.524 . S
C2232 C2246 1.377 . S
C2233 C2232 1.524 . S
C2233 C2234 1.397 . S
C2233 C2238 1.363 . S
C2234 H2211 0.950 . S
C2234 C2233 1.397 . S
C2234 C2235 1.334 . S
C2235 H2212 0.950 . S
C2235 C2234 1.334 . S
C2235 C2236 1.287 . S
C2236 C2235 1.287 . S
C2236 C2237 1.524 . S
C2236 H2255 0.913 . S
C2237 H2213 0.950 . S
C2237 C2236 1.524 . S
C2237 C2238 1.415 . S
C2238 H2214 0.950 . S
C2238 C2233 1.363 . S
C2238 C2237 1.415 . S
C2239 H2215 0.951 . S
C2239 C2240 1.366 . S
C2239 C2241 1.388 . S
C2240 C2239 1.366 . S
C2240 C2244 1.385 . S
C2241 H2216 0.951 . S
C2241 C2239 1.388 . S
C2241 C2242 1.366 . S
C2242 C2241 1.366 . S
C2242 C2243 1.414 . S
C2242 C2245 1.499 . S
C2243 H2217 0.950 . S
C2243 C2242 1.414 . S
C2243 C2244 1.374 . S
C2244 H2218 0.950 . S
C2244 C2240 1.385 . S
C2244 C2243 1.374 . S
C2245 C2242 1.499 . S
C2245 C2246 1.373 . S
C2245 C2247 1.389 . S
C2246 H2219 0.950 . S
C2246 C2232 1.377 . S
C2246 C2245 1.373 . S
C2247 C2231 1.377 . S
C2247 C2245 1.389 . S
C2247 C2248 1.524 . S
C2248 C2247 1.524 . S
C2248 C2249 1.397 . S
C2248 C2253 1.363 . S
C2249 H2220 0.950 . S
C2249 C2248 1.397 . S
C2249 C2250 1.334 . S
C2250 H2221 0.950 . S
C2250 C2249 1.334 . S
C2250 C2251 1.287 . S
C2251 C2250 1.287 . S
C2251 C2252 1.524 . S
C2251 H2254 0.999 . S
C2252 H2222 0.950 . S
C2252 C2251 1.524 . S
C2252 C2253 1.415 . S
C2253 H2223 0.950 . S
C2253 C2248 1.363 . S
C2253 C2252 1.415 . S
H2254 C2251 0.999 . S
H2255 C2236 0.913 . S
H2256 C2274 0.951 . S
H2257 C2276 0.951 . S
H2258 C2278 0.950 . S
H2259 C2279 0.950 . S
H2260 C2281 0.950 1_565 S
H2261 C2284 0.950 . S
H2262 C2285 0.950 . S
H2263 C2287 0.950 . S
H2264 C2288 0.950 . S
H2265 C2289 0.951 . S
H2266 C2291 0.951 . S
H2267 C2293 0.950 . S
H2268 C2294 0.950 . S
H2269 C2296 0.950 . S
H2270 C2299 0.950 . S
H2271 C2300 0.950 . S
H2272 C2302 0.950 . S
H2273 C2303 0.995 . S
C2274 H2256 0.951 . S
C2274 C2275 1.366 . S
C2274 C2276 1.388 . S
C2275 C2274 1.366 . S
C2275 C2279 1.385 . S
C2276 H2257 0.951 . S
C2276 C2274 1.388 . S
C2276 C2277 1.366 . S
C2277 C2276 1.366 . S
C2277 C2278 1.414 . S
C2277 C2280 1.499 . S
C2278 H2258 0.950 . S
C2278 C2277 1.414 . S
C2278 C2279 1.374 . S
C2279 H2259 0.950 . S
C2279 C2275 1.385 . S
C2279 C2278 1.374 . S
C2280 C2277 1.499 . S
C2280 C2281 1.373 . S
C2280 C2282 1.389 . S
C2281 H2260 0.950 1_545 S
C2281 C2280 1.373 . S
C2281 C2297 1.377 . S
C2282 C2280 1.389 . S
C2282 C2283 1.524 . S
C2282 C2296 1.377 . S
C2283 C2282 1.524 . S
C2283 C2284 1.397 . S
C2283 C2288 1.363 . S
C2284 H2261 0.950 . S
C2284 C2283 1.397 . S
C2284 C2285 1.334 . S
C2285 H2262 0.950 . S
C2285 C2284 1.334 . S
C2285 C2286 1.287 . S
C2286 C2285 1.287 . S
C2286 C2287 1.524 . S
C2286 H2305 0.913 . S
C2287 H2263 0.950 . S
C2287 C2286 1.524 . S
C2287 C2288 1.415 . S
C2288 H2264 0.950 . S
C2288 C2283 1.363 . S
C2288 C2287 1.415 . S
C2289 H2265 0.951 . S
C2289 C2290 1.366 . S
C2289 C2291 1.388 . S
C2290 C2289 1.366 . S
C2290 C2294 1.385 1_455 S
C2291 H2266 0.951 . S
C2291 C2289 1.388 . S
C2291 C2292 1.366 1_455 S
C2292 C2291 1.366 1_655 S
C2292 C2293 1.414 . S
C2292 C2295 1.499 . S
C2293 H2267 0.950 . S
C2293 C2292 1.414 . S
C2293 C2294 1.374 . S
C2294 H2268 0.950 . S
C2294 C2290 1.385 1_655 S
C2294 C2293 1.374 . S
C2295 C2292 1.499 . S
C2295 C2296 1.373 . S
C2295 C2297 1.389 . S
C2296 H2269 0.950 . S
C2296 C2282 1.377 . S
C2296 C2295 1.373 . S
C2297 C2281 1.377 . S
C2297 C2295 1.389 . S
C2297 C2298 1.485 1_645 S
C2298 C2297 1.485 1_465 S
C2298 C2299 1.390 1_455 S
C2298 C2303 1.407 . S
C2299 H2270 0.950 . S
C2299 C2298 1.390 1_655 S
C2299 C2300 1.334 1_655 S
C2300 H2271 0.950 . S
C2300 C2299 1.334 1_455 S
C2300 C2301 1.287 . S
C2301 C2300 1.287 . S
C2301 C2302 1.524 . S
C2301 H2304 0.999 . S
C2302 H2272 0.950 . S
C2302 C2301 1.524 . S
C2302 C2303 1.415 . S
C2303 H2273 0.995 . S
C2303 C2298 1.407 . S
C2303 C2302 1.415 . S
H2304 C2301 0.999 . S
H2305 C2286 0.913 . S
H2306 C2324 0.951 . S
H2307 C2326 0.951 . S
H2308 C2328 0.950 . S
H2309 C2329 0.950 . S
H2310 C2331 0.950 . S
H2311 C2334 0.950 . S
H2312 C2335 0.950 . S
H2313 C2337 0.950 . S
H2314 C2338 0.950 . S
H2315 C2339 0.951 . S
H2316 C2341 0.951 . S
H2317 C2343 0.950 . S
H2318 C2344 0.950 . S
H2319 C2346 0.950 . S
H2320 C2349 0.950 . S
H2321 C2350 0.950 . S
H2322 C2352 0.950 . S
H2323 C2353 0.950 . S
C2324 H2306 0.951 . S
C2324 C2325 1.366 . S
C2324 C2326 1.388 . S
C2325 C2324 1.366 . S
C2325 C2329 1.385 . S
C2326 H2307 0.951 . S
C2326 C2324 1.388 . S
C2326 C2327 1.366 . S
C2327 C2326 1.366 . S
C2327 C2328 1.414 . S
C2327 C2330 1.499 . S
C2328 H2308 0.950 . S
C2328 C2327 1.414 . S
C2328 C2329 1.374 . S
C2329 H2309 0.950 . S
C2329 C2325 1.385 . S
C2329 C2328 1.374 . S
C2330 C2327 1.499 . S
C2330 C2331 1.373 . S
C2330 C2332 1.389 . S
C2331 H2310 0.950 . S
C2331 C2330 1.373 . S
C2331 C2347 1.377 . S
C2332 C2330 1.389 . S
C2332 C2333 1.524 . S
C2332 C2346 1.377 . S
C2333 C2332 1.524 . S
C2333 C2334 1.397 . S
C2333 C2338 1.363 . S
C2334 H2311 0.950 . S
C2334 C2333 1.397 . S
C2334 C2335 1.334 . S
C2335 H2312 0.950 . S
C2335 C2334 1.334 . S
C2335 C2336 1.287 . S
C2336 C2335 1.287 . S
C2336 C2337 1.524 . S
C2336 H2355 0.913 . S
C2337 H2313 0.950 . S
C2337 C2336 1.524 . S
C2337 C2338 1.415 . S
C2338 H2314 0.950 . S
C2338 C2333 1.363 . S
C2338 C2337 1.415 . S
C2339 H2315 0.951 . S
C2339 C2340 1.366 . S
C2339 C2341 1.388 . S
C2340 C2339 1.366 . S
C2340 C2344 1.385 . S
C2341 H2316 0.951 . S
C2341 C2339 1.388 . S
C2341 C2342 1.366 . S
C2342 C2341 1.366 . S
C2342 C2343 1.414 . S
C2342 C2345 1.499 . S
C2343 H2317 0.950 . S
C2343 C2342 1.414 . S
C2343 C2344 1.374 . S
C2344 H2318 0.950 . S
C2344 C2340 1.385 . S
C2344 C2343 1.374 . S
C2345 C2342 1.499 . S
C2345 C2346 1.373 . S
C2345 C2347 1.389 . S
C2346 H2319 0.950 . S
C2346 C2332 1.377 . S
C2346 C2345 1.373 . S
C2347 C2331 1.377 . S
C2347 C2345 1.389 . S
C2347 C2348 1.524 . S
C2348 C2347 1.524 . S
C2348 C2349 1.397 . S
C2348 C2353 1.363 . S
C2349 H2320 0.950 . S
C2349 C2348 1.397 . S
C2349 C2350 1.334 . S
C2350 H2321 0.950 . S
C2350 C2349 1.334 . S
C2350 C2351 1.287 . S
C2351 C2350 1.287 . S
C2351 C2352 1.524 . S
C2351 H2354 0.999 . S
C2352 H2322 0.950 . S
C2352 C2351 1.524 . S
C2352 C2353 1.415 . S
C2353 H2323 0.950 . S
C2353 C2348 1.363 . S
C2353 C2352 1.415 . S
H2354 C2351 0.999 . S
H2355 C2336 0.913 . S
H2356 C2374 0.951 . S
H2357 C2376 0.951 . S
H2358 C2378 0.950 . S
H2359 C2379 0.950 . S
H2360 C2381 0.950 . S
H2361 C2384 0.950 . S
H2362 C2385 0.950 . S
H2363 C2387 0.950 . S
H2364 C2388 0.950 . S
H2365 C2389 0.951 . S
H2366 C2391 0.951 . S
H2367 C2393 0.950 . S
H2368 C2394 0.950 . S
H2369 C2396 0.950 . S
H2370 C2399 0.950 . S
H2371 C2400 0.950 . S
H2372 C2402 0.950 . S
H2373 C2403 0.950 . S
C2374 H2356 0.951 . S
C2374 C2375 1.366 . S
C2374 C2376 1.388 . S
C2375 C2374 1.366 . S
C2375 C2379 1.385 . S
C2376 H2357 0.951 . S
C2376 C2374 1.388 . S
C2376 C2377 1.366 . S
C2377 C2376 1.366 . S
C2377 C2378 1.414 . S
C2377 C2380 1.499 . S
C2378 H2358 0.950 . S
C2378 C2377 1.414 . S
C2378 C2379 1.374 . S
C2379 H2359 0.950 . S
C2379 C2375 1.385 . S
C2379 C2378 1.374 . S
C2380 C2377 1.499 . S
C2380 C2381 1.373 . S
C2380 C2382 1.389 . S
C2381 H2360 0.950 . S
C2381 C2380 1.373 . S
C2381 C2397 1.377 . S
C2382 C2380 1.389 . S
C2382 C2383 1.524 . S
C2382 C2396 1.377 . S
C2383 C2382 1.524 . S
C2383 C2384 1.397 . S
C2383 C2388 1.363 . S
C2384 H2361 0.950 . S
C2384 C2383 1.397 . S
C2384 C2385 1.334 . S
C2385 H2362 0.950 . S
C2385 C2384 1.334 . S
C2385 C2386 1.287 . S
C2386 C2385 1.287 . S
C2386 C2387 1.524 . S
C2386 H2405 0.913 . S
C2387 H2363 0.950 . S
C2387 C2386 1.524 . S
C2387 C2388 1.415 . S
C2388 H2364 0.950 . S
C2388 C2383 1.363 . S
C2388 C2387 1.415 . S
C2389 H2365 0.951 . S
C2389 C2390 1.366 . S
C2389 C2391 1.388 . S
C2390 C2389 1.366 . S
C2390 C2394 1.385 . S
C2391 H2366 0.951 . S
C2391 C2389 1.388 . S
C2391 C2392 1.366 . S
C2392 C2391 1.366 . S
C2392 C2393 1.414 . S
C2392 C2395 1.499 . S
C2393 H2367 0.950 . S
C2393 C2392 1.414 . S
C2393 C2394 1.374 . S
C2394 H2368 0.950 . S
C2394 C2390 1.385 . S
C2394 C2393 1.374 . S
C2395 C2392 1.499 . S
C2395 C2396 1.373 . S
C2395 C2397 1.389 . S
C2396 H2369 0.950 . S
C2396 C2382 1.377 . S
C2396 C2395 1.373 . S
C2397 C2381 1.377 . S
C2397 C2395 1.389 . S
C2397 C2398 1.524 . S
C2398 C2397 1.524 . S
C2398 C2399 1.397 . S
C2398 C2403 1.363 . S
C2399 H2370 0.950 . S
C2399 C2398 1.397 . S
C2399 C2400 1.334 1_545 S
C2400 H2371 0.950 . S
C2400 C2399 1.334 1_565 S
C2400 C2401 1.287 . S
C2401 C2400 1.287 . S
C2401 C2402 1.524 . S
C2401 H2404 0.999 . S
C2402 H2372 0.950 . S
C2402 C2401 1.524 . S
C2402 C2403 1.415 1_565 S
C2403 H2373 0.950 . S
C2403 C2398 1.363 . S
C2403 C2402 1.415 1_545 S
H2404 C2401 0.999 . S
H2405 C2386 0.913 . S
H2406 C2424 0.951 . S
H2407 C2426 0.951 . S
H2408 C2428 0.950 . S
H2409 C2429 0.950 . S
H2410 C2431 0.950 . S
H2411 C2434 0.950 . S
H2412 C2435 0.950 . S
H2413 C2437 0.950 . S
H2414 C2438 0.950 . S
H2415 C2439 0.951 . S
H2416 C2441 0.951 . S
H2417 C2443 0.950 . S
H2418 C2444 0.950 . S
H2419 C2446 0.950 . S
H2420 C2449 0.950 . S
H2421 C2450 0.950 . S
H2422 C2452 0.950 . S
H2423 C2453 0.950 . S
C2424 H2406 0.951 . S
C2424 C2425 1.366 . S
C2424 C2426 1.388 . S
C2425 C2424 1.366 . S
C2425 C2429 1.385 . S
C2426 H2407 0.951 . S
C2426 C2424 1.388 . S
C2426 C2427 1.366 . S
C2427 C2426 1.366 . S
C2427 C2428 1.414 . S
C2427 C2430 1.499 . S
C2428 H2408 0.950 . S
C2428 C2427 1.414 . S
C2428 C2429 1.374 . S
C2429 H2409 0.950 . S
C2429 C2425 1.385 . S
C2429 C2428 1.374 . S
C2430 C2427 1.499 . S
C2430 C2431 1.373 . S
C2430 C2432 1.389 . S
C2431 H2410 0.950 . S
C2431 C2430 1.373 . S
C2431 C2447 1.377 . S
C2432 C2430 1.389 . S
C2432 C2433 1.524 . S
C2432 C2446 1.377 . S
C2433 C2432 1.524 . S
C2433 C2434 1.397 . S
C2433 C2438 1.363 . S
C2434 H2411 0.950 . S
C2434 C2433 1.397 . S
C2434 C2435 1.334 . S
C2435 H2412 0.950 . S
C2435 C2434 1.334 . S
C2435 C2436 1.287 . S
C2436 C2435 1.287 . S
C2436 C2437 1.524 . S
C2436 H2455 0.913 . S
C2437 H2413 0.950 . S
C2437 C2436 1.524 . S
C2437 C2438 1.415 . S
C2438 H2414 0.950 . S
C2438 C2433 1.363 . S
C2438 C2437 1.415 . S
C2439 H2415 0.951 . S
C2439 C2440 1.366 . S
C2439 C2441 1.388 . S
C2440 C2439 1.366 . S
C2440 C2444 1.385 . S
C2441 H2416 0.951 . S
C2441 C2439 1.388 . S
C2441 C2442 1.366 . S
C2442 C2441 1.366 . S
C2442 C2443 1.414 . S
C2442 C2445 1.499 . S
C2443 H2417 0.950 . S
C2443 C2442 1.414 . S
C2443 C2444 1.374 . S
C2444 H2418 0.950 . S
C2444 C2440 1.385 . S
C2444 C2443 1.374 . S
C2445 C2442 1.499 . S
C2445 C2446 1.373 . S
C2445 C2447 1.389 . S
C2446 H2419 0.950 . S
C2446 C2432 1.377 . S
C2446 C2445 1.373 . S
C2447 C2431 1.377 . S
C2447 C2445 1.389 . S
C2447 C2448 1.524 . S
C2448 C2447 1.524 . S
C2448 C2449 1.397 . S
C2448 C2453 1.363 . S
C2449 H2420 0.950 . S
C2449 C2448 1.397 . S
C2449 C2450 1.334 . S
C2450 H2421 0.950 . S
C2450 C2449 1.334 . S
C2450 C2451 1.287 . S
C2451 C2450 1.287 . S
C2451 C2452 1.524 . S
C2451 H2454 0.999 . S
C2452 H2422 0.950 . S
C2452 C2451 1.524 . S
C2452 C2453 1.415 . S
C2453 H2423 0.950 . S
C2453 C2448 1.363 . S
C2453 C2452 1.415 . S
H2454 C2451 0.999 . S
H2455 C2436 0.913 . S
H2456 C2474 0.951 . S
H2457 C2476 0.951 . S
H2458 C2478 0.950 . S
H2459 C2479 0.950 . S
H2460 C2481 0.950 1_556 S
H2461 C2484 0.950 . S
H2462 C2485 0.950 . S
H2463 C2487 0.950 . S
H2464 C2488 0.950 . S
H2465 C2489 0.951 . S
H2466 C2491 0.951 . S
H2467 C2493 0.950 . S
H2468 C2494 0.950 . S
H2469 C2496 0.950 . S
H2470 C2499 0.950 1_554 S
H2471 C2500 0.950 . S
H2472 C2502 0.950 . S
H2473 C2503 0.950 . S
C2474 H2456 0.951 . S
C2474 C2475 1.366 . S
C2474 C2476 1.388 . S
C2475 C2474 1.366 . S
C2475 C2479 1.385 1_554 S
C2476 H2457 0.951 . S
C2476 C2474 1.388 . S
C2476 C2477 1.366 . S
C2477 C2476 1.366 . S
C2477 C2478 1.414 1_554 S
C2477 C2480 1.499 . S
C2478 H2458 0.950 . S
C2478 C2477 1.414 1_556 S
C2478 C2479 1.374 . S
C2479 H2459 0.950 . S
C2479 C2475 1.385 1_556 S
C2479 C2478 1.374 . S
C2480 C2477 1.499 . S
C2480 C2481 1.373 . S
C2480 C2482 1.389 . S
C2481 H2460 0.950 1_554 S
C2481 C2480 1.373 . S
C2481 C2497 1.377 . S
C2482 C2480 1.389 . S
C2482 C2483 1.524 . S
C2482 C2496 1.377 . S
C2483 C2482 1.524 . S
C2483 C2484 1.397 . S
C2483 C2488 1.363 . S
C2484 H2461 0.950 . S
C2484 C2483 1.397 . S
C2484 C2485 1.334 . S
C2485 H2462 0.950 . S
C2485 C2484 1.334 . S
C2485 C2486 1.287 . S
C2486 C2485 1.287 . S
C2486 C2487 1.524 . S
C2486 H2505 0.913 . S
C2487 H2463 0.950 . S
C2487 C2486 1.524 . S
C2487 C2488 1.415 . S
C2488 H2464 0.950 . S
C2488 C2483 1.363 . S
C2488 C2487 1.415 . S
C2489 H2465 0.951 . S
C2489 C2490 1.366 1_565 S
C2489 C2491 1.388 . S
C2490 C2489 1.366 1_545 S
C2490 C2494 1.385 . S
C2491 H2466 0.951 . S
C2491 C2489 1.388 . S
C2491 C2492 1.366 . S
C2492 C2491 1.366 . S
C2492 C2493 1.414 1_565 S
C2492 C2495 1.499 . S
C2493 H2467 0.950 . S
C2493 C2492 1.414 1_545 S
C2493 C2494 1.374 . S
C2494 H2468 0.950 . S
C2494 C2490 1.385 . S
C2494 C2493 1.374 . S
C2495 C2492 1.499 . S
C2495 C2496 1.373 . S
C2495 C2497 1.389 . S
C2496 H2469 0.950 . S
C2496 C2482 1.377 . S
C2496 C2495 1.373 . S
C2497 C2481 1.377 . S
C2497 C2495 1.389 . S
C2497 C2498 1.524 1_554 S
C2498 C2497 1.524 1_556 S
C2498 C2499 1.397 1_565 S
C2498 C2503 1.363 . S
C2499 H2470 0.950 1_556 S
C2499 C2498 1.397 1_545 S
C2499 C2500 1.334 . S
C2500 H2471 0.950 . S
C2500 C2499 1.334 . S
C2500 C2501 1.287 . S
C2501 C2500 1.287 . S
C2501 C2502 1.524 1_545 S
C2501 H2504 0.999 . S
C2502 H2472 0.950 . S
C2502 C2501 1.524 1_565 S
C2502 C2503 1.415 . S
C2503 H2473 0.950 . S
C2503 C2498 1.363 . S
C2503 C2502 1.415 . S
H2504 C2501 0.999 . S
H2505 C2486 0.913 . S
H2506 C2524 0.951 . S
H2507 C2526 0.951 . S
H2508 C2528 0.950 . S
H2509 C2529 0.950 . S
H2510 C2531 0.950 . S
H2511 C2534 0.950 . S
H2512 C2535 0.950 . S
H2513 C2537 0.950 . S
H2514 C2538 0.950 . S
H2515 C2539 0.951 . S
H2516 C2541 0.951 . S
H2517 C2543 0.950 . S
H2518 C2544 0.950 . S
H2519 C2546 0.950 . S
H2520 C2549 0.950 . S
H2521 C2550 0.950 . S
H2522 C2552 0.950 . S
H2523 C2553 0.950 . S
C2524 H2506 0.951 . S
C2524 C2525 1.378 . S
C2524 C2526 1.388 . S
C2525 C2524 1.378 . S
C2525 C2529 1.377 1_554 S
C2526 H2507 0.951 . S
C2526 C2524 1.388 . S
C2526 C2527 1.366 . S
C2527 C2526 1.366 . S
C2527 C2528 1.414 1_554 S
C2527 C2530 1.499 . S
C2528 H2508 0.950 . S
C2528 C2527 1.414 1_556 S
C2528 C2529 1.374 . S
C2529 H2509 0.950 . S
C2529 C2525 1.377 1_556 S
C2529 C2528 1.374 . S
C2530 C2527 1.499 . S
C2530 C2531 1.373 1_554 S
C2530 C2532 1.389 . S
C2531 H2510 0.950 . S
C2531 C2530 1.373 1_556 S
C2531 C2547 1.377 . S
C2532 C2530 1.389 . S
C2532 C2533 1.524 . S
C2532 C2546 1.377 . S
C2533 C2532 1.524 . S
C2533 C2534 1.397 . S
C2533 C2538 1.363 . S
C2534 H2511 0.950 . S
C2534 C2533 1.397 . S
C2534 C2535 1.334 . S
C2535 H2512 0.950 . S
C2535 C2534 1.334 . S
C2535 C2536 1.287 . S
C2536 C2535 1.287 . S
C2536 C2537 1.524 . S
C2536 H2555 0.913 . S
C2537 H2513 0.950 . S
C2537 C2536 1.524 . S
C2537 C2538 1.415 . S
C2538 H2514 0.950 . S
C2538 C2533 1.363 . S
C2538 C2537 1.415 . S
C2539 H2515 0.951 . S
C2539 C2540 1.366 1_556 S
C2539 C2541 1.388 . S
C2540 C2539 1.366 1_554 S
C2540 C2544 1.385 . S
C2541 H2516 0.951 . S
C2541 C2539 1.388 . S
C2541 C2542 1.366 1_556 S
C2542 C2541 1.366 1_554 S
C2542 C2543 1.414 . S
C2542 C2545 1.499 . S
C2543 H2517 0.950 . S
C2543 C2542 1.414 . S
C2543 C2544 1.374 . S
C2544 H2518 0.950 . S
C2544 C2540 1.385 . S
C2544 C2543 1.374 . S
C2545 C2542 1.499 . S
C2545 C2546 1.373 . S
C2545 C2547 1.389 1_554 S
C2546 H2519 0.950 . S
C2546 C2532 1.377 . S
C2546 C2545 1.373 . S
C2547 C2531 1.377 . S
C2547 C2545 1.389 1_556 S
C2547 C2548 1.524 . S
C2548 C2547 1.524 . S
C2548 C2549 1.397 . S
C2548 C2553 1.363 . S
C2549 H2520 0.950 . S
C2549 C2548 1.397 . S
C2549 C2550 1.334 . S
C2550 H2521 0.950 . S
C2550 C2549 1.334 . S
C2550 C2551 1.287 . S
C2551 C2550 1.287 . S
C2551 C2552 1.524 . S
C2551 H2554 0.999 . S
C2552 H2522 0.950 . S
C2552 C2551 1.524 . S
C2552 C2553 1.415 . S
C2553 H2523 0.950 . S
C2553 C2548 1.363 . S
C2553 C2552 1.415 . S
H2554 C2551 0.999 . S
H2555 C2536 0.913 . S
H2556 C2574 0.951 . S
H2557 C2576 0.951 . S
H2558 C2578 0.950 . S
H2559 C2579 0.950 . S
H2560 C2581 0.950 . S
H2561 C2584 0.950 . S
H2562 C2585 0.950 . S
H2563 C2587 0.950 . S
H2564 C2588 0.950 . S
H2565 C2589 0.951 . S
H2566 C2591 0.951 . S
H2567 C2593 0.950 . S
H2568 C2594 0.950 . S
H2569 C2596 0.950 . S
H2570 C2599 0.950 . S
H2571 C2600 0.950 . S
H2572 C2602 0.950 . S
H2573 C2603 0.950 . S
C2574 H2556 0.951 . S
C2574 C2575 1.366 . S
C2574 C2576 1.388 . S
C2575 C2574 1.366 . S
C2575 C2579 1.385 . S
C2576 H2557 0.951 . S
C2576 C2574 1.388 . S
C2576 C2577 1.366 . S
C2577 C2576 1.366 . S
C2577 C2578 1.414 . S
C2577 C2580 1.499 . S
C2578 H2558 0.950 . S
C2578 C2577 1.414 . S
C2578 C2579 1.374 . S
C2579 H2559 0.950 . S
C2579 C2575 1.385 . S
C2579 C2578 1.374 . S
C2580 C2577 1.499 . S
C2580 C2581 1.373 . S
C2580 C2582 1.389 . S
C2581 H2560 0.950 . S
C2581 C2580 1.373 . S
C2581 C2597 1.377 . S
C2582 C2580 1.389 . S
C2582 C2583 1.524 . S
C2582 C2596 1.377 . S
C2583 C2582 1.524 . S
C2583 C2584 1.397 . S
C2583 C2588 1.363 . S
C2584 H2561 0.950 . S
C2584 C2583 1.397 . S
C2584 C2585 1.334 . S
C2585 H2562 0.950 . S
C2585 C2584 1.334 . S
C2585 C2586 1.287 . S
C2586 C2585 1.287 . S
C2586 C2587 1.524 . S
C2586 H2605 0.913 . S
C2587 H2563 0.950 . S
C2587 C2586 1.524 . S
C2587 C2588 1.415 . S
C2588 H2564 0.950 . S
C2588 C2583 1.363 . S
C2588 C2587 1.415 . S
C2589 H2565 0.951 . S
C2589 C2590 1.366 . S
C2589 C2591 1.388 . S
C2590 C2589 1.366 . S
C2590 C2594 1.385 . S
C2591 H2566 0.951 . S
C2591 C2589 1.388 . S
C2591 C2592 1.366 . S
C2592 C2591 1.366 . S
C2592 C2593 1.414 . S
C2592 C2595 1.499 . S
C2593 H2567 0.950 . S
C2593 C2592 1.414 . S
C2593 C2594 1.374 . S
C2594 H2568 0.950 . S
C2594 C2590 1.385 . S
C2594 C2593 1.374 . S
C2595 C2592 1.499 . S
C2595 C2596 1.373 . S
C2595 C2597 1.389 . S
C2596 H2569 0.950 . S
C2596 C2582 1.377 . S
C2596 C2595 1.373 . S
C2597 C2581 1.377 . S
C2597 C2595 1.389 . S
C2597 C2598 1.524 . S
C2598 C2597 1.524 . S
C2598 C2599 1.397 . S
C2598 C2603 1.363 . S
C2599 H2570 0.950 . S
C2599 C2598 1.397 . S
C2599 C2600 1.334 . S
C2600 H2571 0.950 . S
C2600 C2599 1.334 . S
C2600 C2601 1.287 . S
C2601 C2600 1.287 . S
C2601 C2602 1.524 . S
C2601 H2604 0.999 . S
C2602 H2572 0.950 . S
C2602 C2601 1.524 . S
C2602 C2603 1.415 . S
C2603 H2573 0.950 . S
C2603 C2598 1.363 . S
C2603 C2602 1.415 . S
H2604 C2601 0.999 . S
H2605 C2586 0.913 . S
H2606 C2624 0.951 . S
H2607 C2626 0.951 . S
H2608 C2628 0.950 . S
H2609 C2629 0.950 . S
H2610 C2631 0.950 . S
H2611 C2634 0.950 . S
H2612 C2635 0.950 . S
H2613 C2637 0.950 . S
H2614 C2638 0.950 . S
H2615 C2639 0.951 . S
H2616 C2641 0.951 . S
H2617 C2643 0.950 . S
H2618 C2644 0.950 . S
H2619 C2646 0.950 . S
H2620 C2649 0.950 . S
H2621 C2650 0.950 . S
H2622 C2652 0.950 . S
H2623 C2653 0.950 . S
C2624 H2606 0.951 . S
C2624 C2625 1.366 . S
C2624 C2626 1.388 . S
C2625 C2624 1.366 . S
C2625 C2629 1.385 . S
C2626 H2607 0.951 . S
C2626 C2624 1.388 . S
C2626 C2627 1.366 . S
C2627 C2626 1.366 . S
C2627 C2628 1.414 . S
C2627 C2630 1.499 . S
C2628 H2608 0.950 . S
C2628 C2627 1.414 . S
C2628 C2629 1.374 . S
C2629 H2609 0.950 . S
C2629 C2625 1.385 . S
C2629 C2628 1.374 . S
C2630 C2627 1.499 . S
C2630 C2631 1.373 . S
C2630 C2632 1.389 . S
C2631 H2610 0.950 . S
C2631 C2630 1.373 . S
C2631 C2647 1.377 . S
C2632 C2630 1.389 . S
C2632 C2633 1.524 . S
C2632 C2646 1.377 . S
C2633 C2632 1.524 . S
C2633 C2634 1.397 . S
C2633 C2638 1.363 . S
C2634 H2611 0.950 . S
C2634 C2633 1.397 . S
C2634 C2635 1.334 . S
C2635 H2612 0.950 . S
C2635 C2634 1.334 . S
C2635 C2636 1.287 . S
C2636 C2635 1.287 . S
C2636 C2637 1.524 . S
C2636 H2655 0.913 . S
C2637 H2613 0.950 . S
C2637 C2636 1.524 . S
C2637 C2638 1.415 . S
C2638 H2614 0.950 . S
C2638 C2633 1.363 . S
C2638 C2637 1.415 . S
C2639 H2615 0.951 . S
C2639 C2640 1.366 . S
C2639 C2641 1.388 . S
C2640 C2639 1.366 . S
C2640 C2644 1.385 . S
C2641 H2616 0.951 . S
C2641 C2639 1.388 . S
C2641 C2642 1.366 . S
C2642 C2641 1.366 . S
C2642 C2643 1.414 . S
C2642 C2645 1.499 . S
C2643 H2617 0.950 . S
C2643 C2642 1.414 . S
C2643 C2644 1.374 . S
C2644 H2618 0.950 . S
C2644 C2640 1.385 . S
C2644 C2643 1.374 . S
C2645 C2642 1.499 . S
C2645 C2646 1.373 . S
C2645 C2647 1.389 . S
C2646 H2619 0.950 . S
C2646 C2632 1.377 . S
C2646 C2645 1.373 . S
C2647 C2631 1.377 . S
C2647 C2645 1.389 . S
C2647 C2648 1.524 . S
C2648 C2647 1.524 . S
C2648 C2649 1.397 . S
C2648 C2653 1.363 . S
C2649 H2620 0.950 . S
C2649 C2648 1.397 . S
C2649 C2650 1.334 . S
C2650 H2621 0.950 . S
C2650 C2649 1.334 . S
C2650 C2651 1.287 . S
C2651 C2650 1.287 . S
C2651 C2652 1.524 . S
C2651 H2654 0.999 . S
C2652 H2622 0.950 . S
C2652 C2651 1.524 . S
C2652 C2653 1.415 . S
C2653 H2623 0.950 . S
C2653 C2648 1.363 . S
C2653 C2652 1.415 . S
H2654 C2651 0.999 . S
H2655 C2636 0.913 . S
H2656 C2674 0.951 . S
H2657 C2676 0.951 . S
H2658 C2678 0.950 . S
H2659 C2679 0.950 . S
H2660 C2681 0.950 . S
H2661 C2684 0.950 . S
H2662 C2685 0.950 . S
H2663 C2687 0.950 . S
H2664 C2688 0.950 . S
H2665 C2689 0.951 . S
H2666 C2691 0.951 . S
H2667 C2693 0.950 . S
H2668 C2694 0.950 . S
H2669 C2696 0.950 . S
H2670 C2699 0.950 . S
H2671 C2700 0.950 . S
H2672 C2702 0.950 . S
H2673 C2703 0.950 . S
C2674 H2656 0.951 . S
C2674 C2675 1.366 . S
C2674 C2676 1.388 . S
C2675 C2674 1.366 . S
C2675 C2679 1.385 . S
C2676 H2657 0.951 . S
C2676 C2674 1.388 . S
C2676 C2677 1.366 . S
C2677 C2676 1.366 . S
C2677 C2678 1.414 . S
C2677 C2680 1.499 . S
C2678 H2658 0.950 . S
C2678 C2677 1.414 . S
C2678 C2679 1.374 . S
C2679 H2659 0.950 . S
C2679 C2675 1.385 . S
C2679 C2678 1.374 . S
C2680 C2677 1.499 . S
C2680 C2681 1.373 . S
C2680 C2682 1.389 . S
C2681 H2660 0.950 . S
C2681 C2680 1.373 . S
C2681 C2697 1.377 . S
C2682 C2680 1.389 . S
C2682 C2683 1.524 . S
C2682 C2696 1.377 . S
C2683 C2682 1.524 . S
C2683 C2684 1.397 . S
C2683 C2688 1.363 . S
C2684 H2661 0.950 . S
C2684 C2683 1.397 . S
C2684 C2685 1.334 . S
C2685 H2662 0.950 . S
C2685 C2684 1.334 . S
C2685 C2686 1.287 . S
C2686 C2685 1.287 . S
C2686 C2687 1.524 . S
C2686 H2705 0.913 . S
C2687 H2663 0.950 . S
C2687 C2686 1.524 . S
C2687 C2688 1.415 . S
C2688 H2664 0.950 . S
C2688 C2683 1.363 . S
C2688 C2687 1.415 . S
C2689 H2665 0.951 . S
C2689 C2690 1.366 . S
C2689 C2691 1.388 . S
C2690 C2689 1.366 . S
C2690 C2694 1.385 . S
C2691 H2666 0.951 . S
C2691 C2689 1.388 . S
C2691 C2692 1.366 . S
C2692 C2691 1.366 . S
C2692 C2693 1.414 . S
C2692 C2695 1.499 . S
C2693 H2667 0.950 . S
C2693 C2692 1.414 . S
C2693 C2694 1.374 . S
C2694 H2668 0.950 . S
C2694 C2690 1.385 . S
C2694 C2693 1.374 . S
C2695 C2692 1.499 . S
C2695 C2696 1.373 . S
C2695 C2697 1.389 . S
C2696 H2669 0.950 . S
C2696 C2682 1.377 . S
C2696 C2695 1.373 . S
C2697 C2681 1.377 . S
C2697 C2695 1.389 . S
C2697 C2698 1.524 . S
C2698 C2697 1.524 . S
C2698 C2699 1.397 . S
C2698 C2703 1.363 . S
C2699 H2670 0.950 . S
C2699 C2698 1.397 . S
C2699 C2700 1.334 . S
C2700 H2671 0.950 . S
C2700 C2699 1.334 . S
C2700 C2701 1.287 . S
C2701 C2700 1.287 . S
C2701 C2702 1.524 . S
C2701 H2704 0.999 . S
C2702 H2672 0.950 . S
C2702 C2701 1.524 . S
C2702 C2703 1.415 . S
C2703 H2673 0.950 . S
C2703 C2698 1.363 . S
C2703 C2702 1.415 . S
H2704 C2701 0.999 . S
H2705 C2686 0.913 . S
H2706 C2724 0.951 . S
H2707 C2726 0.951 . S
H2708 C2728 0.950 . S
H2709 C2729 0.950 . S
H2710 C2731 0.950 . S
H2711 C2734 0.950 . S
H2712 C2735 0.950 . S
H2713 C2737 0.950 . S
H2714 C2738 0.950 . S
H2715 C2739 0.951 . S
H2716 C2741 0.951 . S
H2717 C2743 0.950 . S
H2718 C2744 0.950 . S
H2719 C2746 0.950 . S
H2720 C2749 0.950 . S
H2721 C2750 0.950 . S
H2722 C2752 0.950 . S
H2723 C2753 0.950 . S
C2724 H2706 0.951 . S
C2724 C2725 1.366 . S
C2724 C2726 1.388 . S
C2725 C2724 1.366 . S
C2725 C2729 1.385 . S
C2726 H2707 0.951 . S
C2726 C2724 1.388 . S
C2726 C2727 1.366 . S
C2727 C2726 1.366 . S
C2727 C2728 1.414 . S
C2727 C2730 1.499 . S
C2728 H2708 0.950 . S
C2728 C2727 1.414 . S
C2728 C2729 1.374 . S
C2729 H2709 0.950 . S
C2729 C2725 1.385 . S
C2729 C2728 1.374 . S
C2730 C2727 1.499 . S
C2730 C2731 1.373 . S
C2730 C2732 1.389 . S
C2731 H2710 0.950 . S
C2731 C2730 1.373 . S
C2731 C2747 1.377 . S
C2732 C2730 1.389 . S
C2732 C2733 1.524 . S
C2732 C2746 1.377 . S
C2733 C2732 1.524 . S
C2733 C2734 1.397 . S
C2733 C2738 1.363 . S
C2734 H2711 0.950 . S
C2734 C2733 1.397 . S
C2734 C2735 1.334 . S
C2735 H2712 0.950 . S
C2735 C2734 1.334 . S
C2735 C2736 1.287 . S
C2736 C2735 1.287 . S
C2736 C2737 1.524 . S
C2736 H2755 0.913 . S
C2737 H2713 0.950 . S
C2737 C2736 1.524 . S
C2737 C2738 1.415 . S
C2738 H2714 0.950 . S
C2738 C2733 1.363 . S
C2738 C2737 1.415 . S
C2739 H2715 0.951 . S
C2739 C2740 1.366 . S
C2739 C2741 1.388 . S
C2740 C2739 1.366 . S
C2740 C2744 1.385 . S
C2741 H2716 0.951 . S
C2741 C2739 1.388 . S
C2741 C2742 1.366 . S
C2742 C2741 1.366 . S
C2742 C2743 1.414 . S
C2742 C2745 1.499 . S
C2743 H2717 0.950 . S
C2743 C2742 1.414 . S
C2743 C2744 1.374 . S
C2744 H2718 0.950 . S
C2744 C2740 1.385 . S
C2744 C2743 1.374 . S
C2745 C2742 1.499 . S
C2745 C2746 1.373 . S
C2745 C2747 1.389 . S
C2746 H2719 0.950 . S
C2746 C2732 1.377 . S
C2746 C2745 1.373 . S
C2747 C2731 1.377 . S
C2747 C2745 1.389 . S
C2747 C2748 1.524 . S
C2748 C2747 1.524 . S
C2748 C2749 1.397 . S
C2748 C2753 1.363 . S
C2749 H2720 0.950 . S
C2749 C2748 1.397 . S
C2749 C2750 1.334 . S
C2750 H2721 0.950 . S
C2750 C2749 1.334 . S
C2750 C2751 1.287 . S
C2751 C2750 1.287 . S
C2751 C2752 1.524 . S
C2751 H2754 0.999 . S
C2752 H2722 0.950 . S
C2752 C2751 1.524 . S
C2752 C2753 1.415 . S
C2753 H2723 0.950 . S
C2753 C2748 1.363 . S
C2753 C2752 1.415 . S
H2754 C2751 0.999 . S
H2755 C2736 0.913 . S
H2756 C2774 0.951 . S
H2757 C2776 0.951 . S
H2758 C2778 0.950 . S
H2759 C2779 0.950 . S
H2760 C2781 0.950 . S
H2761 C2784 0.950 . S
H2762 C2785 0.950 . S
H2763 C2787 0.950 . S
H2764 C2788 0.950 . S
H2765 C2789 0.951 . S
H2766 C2791 0.951 . S
H2767 C2793 0.950 . S
H2768 C2794 0.950 . S
H2769 C2796 0.950 . S
H2770 C2799 0.950 . S
H2771 C2800 0.950 . S
H2772 C2802 0.950 . S
H2773 C2803 0.950 . S
C2774 H2756 0.951 . S
C2774 C2775 1.366 . S
C2774 C2776 1.388 . S
C2775 C2774 1.366 . S
C2775 C2779 1.385 . S
C2776 H2757 0.951 . S
C2776 C2774 1.388 . S
C2776 C2777 1.366 . S
C2777 C2776 1.366 . S
C2777 C2778 1.414 . S
C2777 C2780 1.499 . S
C2778 H2758 0.950 . S
C2778 C2777 1.414 . S
C2778 C2779 1.374 . S
C2779 H2759 0.950 . S
C2779 C2775 1.385 . S
C2779 C2778 1.374 . S
C2780 C2777 1.499 . S
C2780 C2781 1.373 . S
C2780 C2782 1.389 . S
C2781 H2760 0.950 . S
C2781 C2780 1.373 . S
C2781 C2797 1.377 . S
C2782 C2780 1.389 . S
C2782 C2783 1.524 . S
C2782 C2796 1.377 . S
C2783 C2782 1.524 . S
C2783 C2784 1.397 . S
C2783 C2788 1.363 . S
C2784 H2761 0.950 . S
C2784 C2783 1.397 . S
C2784 C2785 1.334 . S
C2785 H2762 0.950 . S
C2785 C2784 1.334 . S
C2785 C2786 1.287 . S
C2786 C2785 1.287 . S
C2786 C2787 1.524 . S
C2786 H2805 0.913 . S
C2787 H2763 0.950 . S
C2787 C2786 1.524 . S
C2787 C2788 1.415 . S
C2788 H2764 0.950 . S
C2788 C2783 1.363 . S
C2788 C2787 1.415 . S
C2789 H2765 0.951 . S
C2789 C2790 1.366 . S
C2789 C2791 1.388 . S
C2790 C2789 1.366 . S
C2790 C2794 1.385 . S
C2791 H2766 0.951 . S
C2791 C2789 1.388 . S
C2791 C2792 1.366 . S
C2792 C2791 1.366 . S
C2792 C2793 1.414 . S
C2792 C2795 1.499 . S
C2793 H2767 0.950 . S
C2793 C2792 1.414 . S
C2793 C2794 1.374 . S
C2794 H2768 0.950 . S
C2794 C2790 1.385 . S
C2794 C2793 1.374 . S
C2795 C2792 1.499 . S
C2795 C2796 1.373 . S
C2795 C2797 1.389 . S
C2796 H2769 0.950 . S
C2796 C2782 1.377 . S
C2796 C2795 1.373 . S
C2797 C2781 1.377 . S
C2797 C2795 1.389 . S
C2797 C2798 1.524 . S
C2798 C2797 1.524 . S
C2798 C2799 1.397 . S
C2798 C2803 1.363 . S
C2799 H2770 0.950 . S
C2799 C2798 1.397 . S
C2799 C2800 1.334 . S
C2800 H2771 0.950 . S
C2800 C2799 1.334 . S
C2800 C2801 1.287 . S
C2801 C2800 1.287 . S
C2801 C2802 1.524 . S
C2801 H2804 0.999 . S
C2802 H2772 0.950 . S
C2802 C2801 1.524 . S
C2802 C2803 1.415 . S
C2803 H2773 0.950 . S
C2803 C2798 1.363 . S
C2803 C2802 1.415 . S
H2804 C2801 0.999 . S
H2805 C2786 0.913 . S
H2806 C2824 0.951 . S
H2807 C2826 0.951 . S
H2808 C2828 0.950 . S
H2809 C2829 0.950 . S
H2810 C2831 0.950 . S
H2811 C2834 0.950 . S
H2812 C2835 0.950 . S
H2813 C2837 0.950 . S
H2814 C2838 0.950 . S
H2815 C2839 0.951 . S
H2816 C2841 0.951 . S
H2817 C2843 0.950 . S
H2818 C2844 0.950 . S
H2819 C2846 0.950 . S
H2820 C2849 0.950 . S
H2821 C2850 0.950 . S
H2822 C2852 0.950 . S
H2823 C2853 0.950 . S
C2824 H2806 0.951 . S
C2824 C2825 1.366 . S
C2824 C2826 1.388 . S
C2825 C2824 1.366 . S
C2825 C2829 1.385 . S
C2826 H2807 0.951 . S
C2826 C2824 1.388 . S
C2826 C2827 1.366 . S
C2827 C2826 1.366 . S
C2827 C2828 1.414 . S
C2827 C2830 1.499 . S
C2828 H2808 0.950 . S
C2828 C2827 1.414 . S
C2828 C2829 1.374 . S
C2829 H2809 0.950 . S
C2829 C2825 1.385 . S
C2829 C2828 1.374 . S
C2830 C2827 1.499 . S
C2830 C2831 1.373 . S
C2830 C2832 1.389 . S
C2831 H2810 0.950 . S
C2831 C2830 1.373 . S
C2831 C2847 1.377 . S
C2832 C2830 1.389 . S
C2832 C2833 1.524 . S
C2832 C2846 1.377 . S
C2833 C2832 1.524 . S
C2833 C2834 1.397 . S
C2833 C2838 1.363 . S
C2834 H2811 0.950 . S
C2834 C2833 1.397 . S
C2834 C2835 1.334 . S
C2835 H2812 0.950 . S
C2835 C2834 1.334 . S
C2835 C2836 1.287 . S
C2836 C2835 1.287 . S
C2836 C2837 1.524 . S
C2836 H2855 0.913 . S
C2837 H2813 0.950 . S
C2837 C2836 1.524 . S
C2837 C2838 1.415 . S
C2838 H2814 0.950 . S
C2838 C2833 1.363 . S
C2838 C2837 1.415 . S
C2839 H2815 0.951 . S
C2839 C2840 1.366 . S
C2839 C2841 1.388 . S
C2840 C2839 1.366 . S
C2840 C2844 1.385 . S
C2841 H2816 0.951 . S
C2841 C2839 1.388 . S
C2841 C2842 1.366 . S
C2842 C2841 1.366 . S
C2842 C2843 1.414 . S
C2842 C2845 1.499 . S
C2843 H2817 0.950 . S
C2843 C2842 1.414 . S
C2843 C2844 1.374 . S
C2844 H2818 0.950 . S
C2844 C2840 1.385 . S
C2844 C2843 1.374 . S
C2845 C2842 1.499 . S
C2845 C2846 1.373 . S
C2845 C2847 1.389 . S
C2846 H2819 0.950 . S
C2846 C2832 1.377 . S
C2846 C2845 1.373 . S
C2847 C2831 1.377 . S
C2847 C2845 1.389 . S
C2847 C2848 1.524 . S
C2848 C2847 1.524 . S
C2848 C2849 1.397 . S
C2848 C2853 1.363 . S
C2849 H2820 0.950 . S
C2849 C2848 1.397 . S
C2849 C2850 1.334 . S
C2850 H2821 0.950 . S
C2850 C2849 1.334 . S
C2850 C2851 1.287 . S
C2851 C2850 1.287 . S
C2851 C2852 1.524 . S
C2851 H2854 0.999 . S
C2852 H2822 0.950 . S
C2852 C2851 1.524 . S
C2852 C2853 1.415 . S
C2853 H2823 0.950 . S
C2853 C2848 1.363 . S
C2853 C2852 1.415 . S
H2854 C2851 0.999 . S
H2855 C2836 0.913 . S
H2856 C2874 0.951 . S
H2857 C2876 0.951 . S
H2858 C2878 0.950 . S
H2859 C2879 0.950 . S
H2860 C2881 0.950 . S
H2861 C2884 0.950 . S
H2862 C2885 0.950 . S
H2863 C2887 0.950 . S
H2864 C2888 0.950 . S
H2865 C2889 0.951 . S
H2866 C2891 0.951 . S
H2867 C2893 0.950 . S
H2868 C2894 0.950 . S
H2869 C2896 0.950 . S
H2870 C2899 0.950 . S
H2871 C2900 0.950 . S
H2872 C2902 0.961 . S
H2873 C2903 0.950 . S
C2874 H2856 0.951 . S
C2874 C2875 1.366 . S
C2874 C2876 1.388 . S
C2875 C2874 1.366 . S
C2875 C2879 1.385 . S
C2876 H2857 0.951 . S
C2876 C2874 1.388 . S
C2876 C2877 1.366 . S
C2877 C2876 1.366 . S
C2877 C2878 1.414 . S
C2877 C2880 1.499 . S
C2878 H2858 0.950 . S
C2878 C2877 1.414 . S
C2878 C2879 1.374 . S
C2879 H2859 0.950 . S
C2879 C2875 1.385 . S
C2879 C2878 1.374 . S
C2880 C2877 1.499 . S
C2880 C2881 1.373 . S
C2880 C2882 1.389 . S
C2881 H2860 0.950 . S
C2881 C2880 1.373 . S
C2881 C2897 1.377 . S
C2882 C2880 1.389 . S
C2882 C2883 1.524 . S
C2882 C2896 1.377 . S
C2883 C2882 1.524 . S
C2883 C2884 1.397 . S
C2883 C2888 1.363 . S
C2884 H2861 0.950 . S
C2884 C2883 1.397 . S
C2884 C2885 1.334 . S
C2885 H2862 0.950 . S
C2885 C2884 1.334 . S
C2885 C2886 1.287 . S
C2886 C2885 1.287 . S
C2886 C2887 1.524 . S
C2886 H2905 0.913 . S
C2887 H2863 0.950 . S
C2887 C2886 1.524 . S
C2887 C2888 1.415 . S
C2888 H2864 0.950 . S
C2888 C2883 1.363 . S
C2888 C2887 1.415 . S
C2889 H2865 0.951 . S
C2889 C2890 1.366 . S
C2889 C2891 1.388 . S
C2890 C2889 1.366 . S
C2890 C2894 1.385 . S
C2891 H2866 0.951 . S
C2891 C2889 1.388 . S
C2891 C2892 1.366 . S
C2892 C2891 1.366 . S
C2892 C2893 1.414 . S
C2892 C2895 1.499 . S
C2893 H2867 0.950 . S
C2893 C2892 1.414 . S
C2893 C2894 1.374 . S
C2894 H2868 0.950 . S
C2894 C2890 1.385 . S
C2894 C2893 1.374 . S
C2895 C2892 1.499 . S
C2895 C2896 1.373 . S
C2895 C2897 1.389 . S
C2896 H2869 0.950 . S
C2896 C2882 1.377 . S
C2896 C2895 1.373 . S
C2897 C2881 1.377 . S
C2897 C2895 1.389 . S
C2897 C2898 1.524 . S
C2898 C2897 1.524 . S
C2898 C2899 1.397 . S
C2898 C2903 1.363 . S
C2899 H2870 0.950 . S
C2899 C2898 1.397 . S
C2899 C2900 1.334 . S
C2900 H2871 0.950 . S
C2900 C2899 1.334 . S
C2900 C2901 1.287 1_554 S
C2901 C2900 1.287 1_556 S
C2901 C2902 1.531 . S
C2901 H2904 0.999 . S
C2902 H2872 0.961 . S
C2902 C2901 1.531 . S
C2902 C2903 1.395 1_556 S
C2903 H2873 0.950 . S
C2903 C2898 1.363 . S
C2903 C2902 1.395 1_554 S
H2904 C2901 0.999 . S
H2905 C2886 0.913 . S
H2906 C2924 0.951 . S
H2907 C2926 0.951 . S
H2908 C2928 0.950 . S
H2909 C2929 0.950 . S
H2910 C2931 0.950 . S
H2911 C2934 0.950 . S
H2912 C2935 0.950 . S
H2913 C2937 0.950 . S
H2914 C2938 0.950 . S
H2915 C2939 0.951 . S
H2916 C2941 0.951 . S
H2917 C2943 0.950 . S
H2918 C2944 0.950 . S
H2919 C2946 0.950 . S
H2920 C2949 0.950 . S
H2921 C2950 0.950 . S
H2922 C2952 0.950 . S
H2923 C2953 0.950 . S
C2924 H2906 0.951 . S
C2924 C2925 1.366 . S
C2924 C2926 1.388 . S
C2925 C2924 1.366 . S
C2925 C2929 1.385 . S
C2926 H2907 0.951 . S
C2926 C2924 1.388 . S
C2926 C2927 1.366 . S
C2927 C2926 1.366 . S
C2927 C2928 1.414 . S
C2927 C2930 1.499 . S
C2928 H2908 0.950 . S
C2928 C2927 1.414 . S
C2928 C2929 1.374 . S
C2929 H2909 0.950 . S
C2929 C2925 1.385 . S
C2929 C2928 1.374 . S
C2930 C2927 1.499 . S
C2930 C2931 1.373 . S
C2930 C2932 1.389 . S
C2931 H2910 0.950 . S
C2931 C2930 1.373 . S
C2931 C2947 1.377 . S
C2932 C2930 1.389 . S
C2932 C2933 1.524 . S
C2932 C2946 1.377 . S
C2933 C2932 1.524 . S
C2933 C2934 1.397 . S
C2933 C2938 1.363 . S
C2934 H2911 0.950 . S
C2934 C2933 1.397 . S
C2934 C2935 1.334 . S
C2935 H2912 0.950 . S
C2935 C2934 1.334 . S
C2935 C2936 1.287 . S
C2936 C2935 1.287 . S
C2936 C2937 1.524 . S
C2936 H2955 0.913 . S
C2937 H2913 0.950 . S
C2937 C2936 1.524 . S
C2937 C2938 1.415 . S
C2938 H2914 0.950 . S
C2938 C2933 1.363 . S
C2938 C2937 1.415 . S
C2939 H2915 0.951 . S
C2939 C2940 1.366 . S
C2939 C2941 1.388 . S
C2940 C2939 1.366 . S
C2940 C2944 1.385 . S
C2941 H2916 0.951 . S
C2941 C2939 1.388 . S
C2941 C2942 1.366 . S
C2942 C2941 1.366 . S
C2942 C2943 1.414 . S
C2942 C2945 1.499 . S
C2943 H2917 0.950 . S
C2943 C2942 1.414 . S
C2943 C2944 1.374 . S
C2944 H2918 0.950 . S
C2944 C2940 1.385 . S
C2944 C2943 1.374 . S
C2945 C2942 1.499 . S
C2945 C2946 1.373 . S
C2945 C2947 1.389 . S
C2946 H2919 0.950 . S
C2946 C2932 1.377 . S
C2946 C2945 1.373 . S
C2947 C2931 1.377 . S
C2947 C2945 1.389 . S
C2947 C2948 1.524 . S
C2948 C2947 1.524 . S
C2948 C2949 1.397 . S
C2948 C2953 1.363 . S
C2949 H2920 0.950 . S
C2949 C2948 1.397 . S
C2949 C2950 1.334 . S
C2950 H2921 0.950 . S
C2950 C2949 1.334 . S
C2950 C2951 1.287 . S
C2951 C2950 1.287 . S
C2951 C2952 1.524 . S
C2951 H2954 0.999 . S
C2952 H2922 0.950 . S
C2952 C2951 1.524 . S
C2952 C2953 1.415 . S
C2953 H2923 0.950 . S
C2953 C2948 1.363 . S
C2953 C2952 1.415 . S
H2954 C2951 0.999 . S
H2955 C2936 0.913 . S
H2956 C2974 0.951 . S
H2957 C2976 0.951 . S
H2958 C2978 0.950 . S
H2959 C2979 0.950 . S
H2960 C2981 0.950 . S
H2961 C2984 0.950 . S
H2962 C2985 0.950 . S
H2963 C2987 0.950 . S
H2964 C2988 0.950 . S
H2965 C2989 0.951 . S
H2966 C2991 0.951 . S
H2967 C2993 0.950 . S
H2968 C2994 0.950 . S
H2969 C2996 0.950 . S
H2970 C2999 0.950 . S
H2971 C3000 0.950 . S
H2972 C3002 0.950 . S
H2973 C3003 0.950 . S
C2974 H2956 0.951 . S
C2974 C2975 1.366 . S
C2974 C2976 1.388 . S
C2975 C2974 1.366 . S
C2975 C2979 1.385 . S
C2976 H2957 0.951 . S
C2976 C2974 1.388 . S
C2976 C2977 1.366 . S
C2977 C2976 1.366 . S
C2977 C2978 1.414 . S
C2977 C2980 1.499 . S
C2978 H2958 0.950 . S
C2978 C2977 1.414 . S
C2978 C2979 1.374 . S
C2979 H2959 0.950 . S
C2979 C2975 1.385 . S
C2979 C2978 1.374 . S
C2980 C2977 1.499 . S
C2980 C2981 1.373 . S
C2980 C2982 1.389 . S
C2981 H2960 0.950 . S
C2981 C2980 1.373 . S
C2981 C2997 1.377 . S
C2982 C2980 1.389 . S
C2982 C2983 1.524 . S
C2982 C2996 1.377 . S
C2983 C2982 1.524 . S
C2983 C2984 1.397 . S
C2983 C2988 1.363 . S
C2984 H2961 0.950 . S
C2984 C2983 1.397 . S
C2984 C2985 1.334 . S
C2985 H2962 0.950 . S
C2985 C2984 1.334 . S
C2985 C2986 1.287 . S
C2986 C2985 1.287 . S
C2986 C2987 1.524 . S
C2986 H3005 0.913 . S
C2987 H2963 0.950 . S
C2987 C2986 1.524 . S
C2987 C2988 1.415 . S
C2988 H2964 0.950 . S
C2988 C2983 1.363 . S
C2988 C2987 1.415 . S
C2989 H2965 0.951 . S
C2989 C2990 1.366 . S
C2989 C2991 1.388 . S
C2990 C2989 1.366 . S
C2990 C2994 1.385 . S
C2991 H2966 0.951 . S
C2991 C2989 1.388 . S
C2991 C2992 1.366 . S
C2992 C2991 1.366 . S
C2992 C2993 1.414 . S
C2992 C2995 1.499 . S
C2993 H2967 0.950 . S
C2993 C2992 1.414 . S
C2993 C2994 1.374 . S
C2994 H2968 0.950 . S
C2994 C2990 1.385 . S
C2994 C2993 1.374 . S
C2995 C2992 1.499 . S
C2995 C2996 1.373 . S
C2995 C2997 1.389 . S
C2996 H2969 0.950 . S
C2996 C2982 1.377 . S
C2996 C2995 1.373 . S
C2997 C2981 1.377 . S
C2997 C2995 1.389 . S
C2997 C2998 1.524 . S
C2998 C2997 1.524 . S
C2998 C2999 1.397 . S
C2998 C3003 1.363 . S
C2999 H2970 0.950 . S
C2999 C2998 1.397 . S
C2999 C3000 1.334 . S
C3000 H2971 0.950 . S
C3000 C2999 1.334 . S
C3000 C3001 1.287 . S
C3001 C3000 1.287 . S
C3001 C3002 1.524 . S
C3001 H3004 0.999 . S
C3002 H2972 0.950 . S
C3002 C3001 1.524 . S
C3002 C3003 1.415 . S
C3003 H2973 0.950 . S
C3003 C2998 1.363 . S
C3003 C3002 1.415 . S
H3004 C3001 0.999 . S
H3005 C2986 0.913 . S
H3006 C3024 0.951 . S
H3007 C3026 0.951 . S
H3008 C3028 0.950 . S
H3009 C3029 0.950 . S
H3010 C3031 0.950 . S
H3011 C3034 0.950 . S
H3012 C3035 0.950 . S
H3013 C3037 0.950 . S
H3014 C3038 0.950 . S
H3015 C3039 0.951 . S
H3016 C3041 0.951 . S
H3017 C3043 0.950 . S
H3018 C3044 0.950 . S
H3019 C3046 0.950 . S
H3020 C3049 0.950 . S
H3021 C3050 0.950 . S
H3022 C3052 0.950 . S
H3023 C3053 0.950 . S
C3024 H3006 0.951 . S
C3024 C3025 1.366 . S
C3024 C3026 1.388 . S
C3025 C3024 1.366 . S
C3025 C3029 1.385 . S
C3026 H3007 0.951 . S
C3026 C3024 1.388 . S
C3026 C3027 1.366 . S
C3027 C3026 1.366 . S
C3027 C3028 1.414 . S
C3027 C3030 1.499 . S
C3028 H3008 0.950 . S
C3028 C3027 1.414 . S
C3028 C3029 1.374 . S
C3029 H3009 0.950 . S
C3029 C3025 1.385 . S
C3029 C3028 1.374 . S
C3030 C3027 1.499 . S
C3030 C3031 1.373 . S
C3030 C3032 1.389 . S
C3031 H3010 0.950 . S
C3031 C3030 1.373 . S
C3031 C3047 1.377 . S
C3032 C3030 1.389 . S
C3032 C3033 1.524 . S
C3032 C3046 1.377 . S
C3033 C3032 1.524 . S
C3033 C3034 1.397 . S
C3033 C3038 1.363 . S
C3034 H3011 0.950 . S
C3034 C3033 1.397 . S
C3034 C3035 1.334 . S
C3035 H3012 0.950 . S
C3035 C3034 1.334 . S
C3035 C3036 1.287 . S
C3036 C3035 1.287 . S
C3036 C3037 1.524 . S
C3036 H3055 0.913 . S
C3037 H3013 0.950 . S
C3037 C3036 1.524 . S
C3037 C3038 1.415 . S
C3038 H3014 0.950 . S
C3038 C3033 1.363 . S
C3038 C3037 1.415 . S
C3039 H3015 0.951 . S
C3039 C3040 1.366 . S
C3039 C3041 1.388 . S
C3040 C3039 1.366 . S
C3040 C3044 1.385 . S
C3041 H3016 0.951 . S
C3041 C3039 1.388 . S
C3041 C3042 1.366 . S
C3042 C3041 1.366 . S
C3042 C3043 1.414 . S
C3042 C3045 1.499 . S
C3043 H3017 0.950 . S
C3043 C3042 1.414 . S
C3043 C3044 1.374 . S
C3044 H3018 0.950 . S
C3044 C3040 1.385 . S
C3044 C3043 1.374 . S
C3045 C3042 1.499 . S
C3045 C3046 1.373 . S
C3045 C3047 1.389 . S
C3046 H3019 0.950 . S
C3046 C3032 1.377 . S
C3046 C3045 1.373 . S
C3047 C3031 1.377 . S
C3047 C3045 1.389 . S
C3047 C3048 1.524 . S
C3048 C3047 1.524 . S
C3048 C3049 1.397 . S
C3048 C3053 1.363 . S
C3049 H3020 0.950 . S
C3049 C3048 1.397 . S
C3049 C3050 1.334 . S
C3050 H3021 0.950 . S
C3050 C3049 1.334 . S
C3050 C3051 1.287 . S
C3051 C3050 1.287 . S
C3051 C3052 1.524 . S
C3051 H3054 0.999 . S
C3052 H3022 0.950 . S
C3052 C3051 1.524 . S
C3052 C3053 1.415 . S
C3053 H3023 0.950 . S
C3053 C3048 1.363 . S
C3053 C3052 1.415 . S
H3054 C3051 0.999 . S
H3055 C3036 0.913 . S
H3056 C3074 0.951 . S
H3057 C3076 0.951 . S
H3058 C3078 0.950 . S
H3059 C3079 0.950 . S
H3060 C3081 0.950 . S
H3061 C3084 0.950 . S
H3062 C3085 0.950 . S
H3063 C3087 0.950 . S
H3064 C3088 0.950 . S
H3065 C3089 0.951 . S
H3066 C3091 0.951 . S
H3067 C3093 0.950 . S
H3068 C3094 0.950 . S
H3069 C3096 0.950 . S
H3070 C3099 0.950 . S
H3071 C3100 0.950 . S
H3072 C3102 0.950 . S
H3073 C3103 0.950 . S
C3074 H3056 0.951 . S
C3074 C3075 1.366 . S
C3074 C3076 1.388 . S
C3075 C3074 1.366 . S
C3075 C3079 1.385 . S
C3076 H3057 0.951 . S
C3076 C3074 1.388 . S
C3076 C3077 1.366 . S
C3077 C3076 1.366 . S
C3077 C3078 1.414 . S
C3077 C3080 1.499 . S
C3078 H3058 0.950 . S
C3078 C3077 1.414 . S
C3078 C3079 1.374 . S
C3079 H3059 0.950 . S
C3079 C3075 1.385 . S
C3079 C3078 1.374 . S
C3080 C3077 1.499 . S
C3080 C3081 1.373 . S
C3080 C3082 1.389 . S
C3081 H3060 0.950 . S
C3081 C3080 1.373 . S
C3081 C3097 1.377 . S
C3082 C3080 1.389 . S
C3082 C3083 1.524 . S
C3082 C3096 1.377 . S
C3083 C3082 1.524 . S
C3083 C3084 1.397 . S
C3083 C3088 1.363 1_455 S
C3084 H3061 0.950 . S
C3084 C3083 1.397 . S
C3084 C3085 1.334 . S
C3085 H3062 0.950 . S
C3085 C3084 1.334 . S
C3085 C3086 1.287 1_455 S
C3086 C3085 1.287 1_655 S
C3086 C3087 1.524 . S
C3086 H3105 0.913 . S
C3087 H3063 0.950 . S
C3087 C3086 1.524 . S
C3087 C3088 1.415 . S
C3088 H3064 0.950 . S
C3088 C3083 1.363 1_655 S
C3088 C3087 1.415 . S
C3089 H3065 0.951 . S
C3089 C3090 1.366 . S
C3089 C3091 1.388 . S
C3090 C3089 1.366 . S
C3090 C3094 1.385 . S
C3091 H3066 0.951 . S
C3091 C3089 1.388 . S
C3091 C3092 1.366 . S
C3092 C3091 1.366 . S
C3092 C3093 1.414 . S
C3092 C3095 1.499 . S
C3093 H3067 0.950 . S
C3093 C3092 1.414 . S
C3093 C3094 1.374 . S
C3094 H3068 0.950 . S
C3094 C3090 1.385 . S
C3094 C3093 1.374 . S
C3095 C3092 1.499 . S
C3095 C3096 1.373 . S
C3095 C3097 1.389 . S
C3096 H3069 0.950 . S
C3096 C3082 1.377 . S
C3096 C3095 1.373 . S
C3097 C3081 1.377 . S
C3097 C3095 1.389 . S
C3097 C3098 1.524 . S
C3098 C3097 1.524 . S
C3098 C3099 1.397 . S
C3098 C3103 1.363 . S
C3099 H3070 0.950 . S
C3099 C3098 1.397 . S
C3099 C3100 1.334 . S
C3100 H3071 0.950 . S
C3100 C3099 1.334 . S
C3100 C3101 1.287 . S
C3101 C3100 1.287 . S
C3101 C3102 1.524 . S
C3101 H3104 0.999 . S
C3102 H3072 0.950 . S
C3102 C3101 1.524 . S
C3102 C3103 1.415 . S
C3103 H3073 0.950 . S
C3103 C3098 1.363 . S
C3103 C3102 1.415 . S
H3104 C3101 0.999 . S
H3105 C3086 0.913 . S
H3106 C3124 0.951 . S
H3107 C3126 0.951 . S
H3108 C3128 0.950 . S
H3109 C3129 0.950 . S
H3110 C3131 0.950 . S
H3111 C3134 0.950 . S
H3112 C3135 0.950 . S
H3113 C3137 0.950 . S
H3114 C3138 0.950 . S
H3115 C3139 0.951 . S
H3116 C3141 0.951 . S
H3117 C3143 0.950 . S
H3118 C3144 0.950 . S
H3119 C3146 0.950 . S
H3120 C3149 0.950 . S
H3121 C3150 0.950 . S
H3122 C3152 0.950 . S
H3123 C3153 0.950 . S
C3124 H3106 0.951 . S
C3124 C3125 1.366 . S
C3124 C3126 1.388 . S
C3125 C3124 1.366 . S
C3125 C3129 1.385 . S
C3126 H3107 0.951 . S
C3126 C3124 1.388 . S
C3126 C3127 1.366 . S
C3127 C3126 1.366 . S
C3127 C3128 1.414 . S
C3127 C3130 1.499 . S
C3128 H3108 0.950 . S
C3128 C3127 1.414 . S
C3128 C3129 1.374 . S
C3129 H3109 0.950 . S
C3129 C3125 1.385 . S
C3129 C3128 1.374 . S
C3130 C3127 1.499 . S
C3130 C3131 1.373 . S
C3130 C3132 1.389 . S
C3131 H3110 0.950 . S
C3131 C3130 1.373 . S
C3131 C3147 1.377 . S
C3132 C3130 1.389 . S
C3132 C3133 1.524 . S
C3132 C3146 1.377 . S
C3133 C3132 1.524 . S
C3133 C3134 1.397 . S
C3133 C3138 1.363 . S
C3134 H3111 0.950 . S
C3134 C3133 1.397 . S
C3134 C3135 1.334 . S
C3135 H3112 0.950 . S
C3135 C3134 1.334 . S
C3135 C3136 1.287 . S
C3136 C3135 1.287 . S
C3136 C3137 1.524 . S
C3136 H3155 0.913 . S
C3137 H3113 0.950 . S
C3137 C3136 1.524 . S
C3137 C3138 1.415 . S
C3138 H3114 0.950 . S
C3138 C3133 1.363 . S
C3138 C3137 1.415 . S
C3139 H3115 0.951 . S
C3139 C3140 1.366 . S
C3139 C3141 1.388 . S
C3140 C3139 1.366 . S
C3140 C3144 1.385 . S
C3141 H3116 0.951 . S
C3141 C3139 1.388 . S
C3141 C3142 1.366 . S
C3142 C3141 1.366 . S
C3142 C3143 1.414 . S
C3142 C3145 1.499 . S
C3143 H3117 0.950 . S
C3143 C3142 1.414 . S
C3143 C3144 1.374 . S
C3144 H3118 0.950 . S
C3144 C3140 1.385 . S
C3144 C3143 1.374 . S
C3145 C3142 1.499 . S
C3145 C3146 1.373 . S
C3145 C3147 1.389 . S
C3146 H3119 0.950 . S
C3146 C3132 1.377 . S
C3146 C3145 1.373 . S
C3147 C3131 1.377 . S
C3147 C3145 1.389 . S
C3147 C3148 1.524 . S
C3148 C3147 1.524 . S
C3148 C3149 1.397 . S
C3148 C3153 1.363 . S
C3149 H3120 0.950 . S
C3149 C3148 1.397 . S
C3149 C3150 1.334 . S
C3150 H3121 0.950 . S
C3150 C3149 1.334 . S
C3150 C3151 1.287 . S
C3151 C3150 1.287 . S
C3151 C3152 1.524 . S
C3151 H3154 0.999 . S
C3152 H3122 0.950 . S
C3152 C3151 1.524 . S
C3152 C3153 1.415 . S
C3153 H3123 0.950 . S
C3153 C3148 1.363 . S
C3153 C3152 1.415 . S
H3154 C3151 0.999 . S
H3155 C3136 0.913 . S
H3156 C3174 0.951 . S
H3157 C3176 0.951 . S
H3158 C3178 0.950 . S
H3159 C3179 0.950 . S
H3160 C3181 0.950 . S
H3161 C3184 0.950 . S
H3162 C3185 0.950 . S
H3163 C3187 0.950 . S
H3164 C3188 0.950 . S
H3165 C3189 0.951 . S
H3166 C3191 0.951 . S
H3167 C3193 0.950 . S
H3168 C3194 0.950 . S
H3169 C3196 0.950 . S
H3170 C3199 0.950 . S
H3171 C3200 0.950 . S
H3172 C3202 0.950 . S
H3173 C3203 0.950 . S
C3174 H3156 0.951 . S
C3174 C3175 1.366 . S
C3174 C3176 1.388 . S
C3175 C3174 1.366 . S
C3175 C3179 1.385 . S
C3176 H3157 0.951 . S
C3176 C3174 1.388 . S
C3176 C3177 1.366 . S
C3177 C3176 1.366 . S
C3177 C3178 1.414 . S
C3177 C3180 1.499 . S
C3178 H3158 0.950 . S
C3178 C3177 1.414 . S
C3178 C3179 1.374 . S
C3179 H3159 0.950 . S
C3179 C3175 1.385 . S
C3179 C3178 1.374 . S
C3180 C3177 1.499 . S
C3180 C3181 1.373 . S
C3180 C3182 1.389 . S
C3181 H3160 0.950 . S
C3181 C3180 1.373 . S
C3181 C3197 1.377 . S
C3182 C3180 1.389 . S
C3182 C3183 1.524 . S
C3182 C3196 1.377 . S
C3183 C3182 1.524 . S
C3183 C3184 1.397 . S
C3183 C3188 1.363 . S
C3184 H3161 0.950 . S
C3184 C3183 1.397 . S
C3184 C3185 1.334 . S
C3185 H3162 0.950 . S
C3185 C3184 1.334 . S
C3185 C3186 1.287 . S
C3186 C3185 1.287 . S
C3186 C3187 1.524 . S
C3186 H3205 0.913 . S
C3187 H3163 0.950 . S
C3187 C3186 1.524 . S
C3187 C3188 1.415 . S
C3188 H3164 0.950 . S
C3188 C3183 1.363 . S
C3188 C3187 1.415 . S
C3189 H3165 0.951 . S
C3189 C3190 1.366 . S
C3189 C3191 1.388 . S
C3190 C3189 1.366 . S
C3190 C3194 1.385 . S
C3191 H3166 0.951 . S
C3191 C3189 1.388 . S
C3191 C3192 1.366 . S
C3192 C3191 1.366 . S
C3192 C3193 1.414 . S
C3192 C3195 1.499 . S
C3193 H3167 0.950 . S
C3193 C3192 1.414 . S
C3193 C3194 1.374 . S
C3194 H3168 0.950 . S
C3194 C3190 1.385 . S
C3194 C3193 1.374 . S
C3195 C3192 1.499 . S
C3195 C3196 1.373 . S
C3195 C3197 1.389 . S
C3196 H3169 0.950 . S
C3196 C3182 1.377 . S
C3196 C3195 1.373 . S
C3197 C3181 1.377 . S
C3197 C3195 1.389 . S
C3197 C3198 1.524 . S
C3198 C3197 1.524 . S
C3198 C3199 1.397 . S
C3198 C3203 1.363 . S
C3199 H3170 0.950 . S
C3199 C3198 1.397 . S
C3199 C3200 1.334 . S
C3200 H3171 0.950 . S
C3200 C3199 1.334 . S
C3200 C3201 1.287 . S
C3201 C3200 1.287 . S
C3201 C3202 1.524 . S
C3201 H3204 0.999 . S
C3202 H3172 0.950 . S
C3202 C3201 1.524 . S
C3202 C3203 1.415 . S
C3203 H3173 0.950 . S
C3203 C3198 1.363 . S
C3203 C3202 1.415 . S
H3204 C3201 0.999 . S
H3205 C3186 0.913 . S
H3206 C3224 0.951 . S
H3207 C3226 0.951 . S
H3208 C3228 0.950 . S
H3209 C3229 0.950 . S
H3210 C3231 0.950 . S
H3211 C3234 0.950 . S
H3212 C3235 0.950 . S
H3213 C3237 0.950 . S
H3214 C3238 0.950 . S
H3215 C3239 0.951 . S
H3216 C3241 0.951 . S
H3217 C3243 0.950 . S
H3218 C3244 0.950 . S
H3219 C3246 0.950 . S
H3220 C3249 0.950 . S
H3221 C3250 0.950 . S
H3222 C3252 0.950 . S
H3223 C3253 0.950 . S
C3224 H3206 0.951 . S
C3224 C3225 1.366 . S
C3224 C3226 1.388 . S
C3225 C3224 1.366 . S
C3225 C3229 1.385 . S
C3226 H3207 0.951 . S
C3226 C3224 1.388 . S
C3226 C3227 1.366 . S
C3227 C3226 1.366 . S
C3227 C3228 1.414 . S
C3227 C3230 1.499 . S
C3228 H3208 0.950 . S
C3228 C3227 1.414 . S
C3228 C3229 1.374 . S
C3229 H3209 0.950 . S
C3229 C3225 1.385 . S
C3229 C3228 1.374 . S
C3230 C3227 1.499 . S
C3230 C3231 1.373 . S
C3230 C3232 1.389 . S
C3231 H3210 0.950 . S
C3231 C3230 1.373 . S
C3231 C3247 1.377 . S
C3232 C3230 1.389 . S
C3232 C3233 1.524 . S
C3232 C3246 1.377 . S
C3233 C3232 1.524 . S
C3233 C3234 1.397 . S
C3233 C3238 1.363 . S
C3234 H3211 0.950 . S
C3234 C3233 1.397 . S
C3234 C3235 1.334 . S
C3235 H3212 0.950 . S
C3235 C3234 1.334 . S
C3235 C3236 1.287 . S
C3236 C3235 1.287 . S
C3236 C3237 1.524 . S
C3236 H3255 0.913 . S
C3237 H3213 0.950 . S
C3237 C3236 1.524 . S
C3237 C3238 1.415 . S
C3238 H3214 0.950 . S
C3238 C3233 1.363 . S
C3238 C3237 1.415 . S
C3239 H3215 0.951 . S
C3239 C3240 1.366 . S
C3239 C3241 1.388 . S
C3240 C3239 1.366 . S
C3240 C3244 1.385 . S
C3241 H3216 0.951 . S
C3241 C3239 1.388 . S
C3241 C3242 1.366 . S
C3242 C3241 1.366 . S
C3242 C3243 1.414 . S
C3242 C3245 1.499 . S
C3243 H3217 0.950 . S
C3243 C3242 1.414 . S
C3243 C3244 1.374 . S
C3244 H3218 0.950 . S
C3244 C3240 1.385 . S
C3244 C3243 1.374 . S
C3245 C3242 1.499 . S
C3245 C3246 1.373 . S
C3245 C3247 1.389 . S
C3246 H3219 0.950 . S
C3246 C3232 1.377 . S
C3246 C3245 1.373 . S
C3247 C3231 1.377 . S
C3247 C3245 1.389 . S
C3247 C3248 1.524 . S
C3248 C3247 1.524 . S
C3248 C3249 1.397 . S
C3248 C3253 1.363 . S
C3249 H3220 0.950 . S
C3249 C3248 1.397 . S
C3249 C3250 1.334 . S
C3250 H3221 0.950 . S
C3250 C3249 1.334 . S
C3250 C3251 1.287 . S
C3251 C3250 1.287 . S
C3251 C3252 1.524 . S
C3251 H3254 0.999 . S
C3252 H3222 0.950 . S
C3252 C3251 1.524 . S
C3252 C3253 1.415 . S
C3253 H3223 0.950 . S
C3253 C3248 1.363 . S
C3253 C3252 1.415 . S
H3254 C3251 0.999 . S
H3255 C3236 0.913 . S
H3256 C3274 0.951 . S
H3257 C3276 0.951 . S
H3258 C3278 0.950 . S
H3259 C3279 0.950 . S
H3260 C3281 0.950 . S
H3261 C3284 0.950 . S
H3262 C3285 0.950 . S
H3263 C3287 0.950 . S
H3264 C3288 0.950 . S
H3265 C3289 0.951 . S
H3266 C3291 0.951 . S
H3267 C3293 0.950 . S
H3268 C3294 0.950 . S
H3269 C3296 0.950 . S
H3270 C3299 0.950 . S
H3271 C3300 0.950 . S
H3272 C3302 0.950 . S
H3273 C3303 0.950 . S
C3274 H3256 0.951 . S
C3274 C3275 1.366 . S
C3274 C3276 1.388 . S
C3275 C3274 1.366 . S
C3275 C3279 1.385 . S
C3276 H3257 0.951 . S
C3276 C3274 1.388 . S
C3276 C3277 1.366 . S
C3277 C3276 1.366 . S
C3277 C3278 1.414 . S
C3277 C3280 1.499 . S
C3278 H3258 0.950 . S
C3278 C3277 1.414 . S
C3278 C3279 1.374 . S
C3279 H3259 0.950 . S
C3279 C3275 1.385 . S
C3279 C3278 1.374 . S
C3280 C3277 1.499 . S
C3280 C3281 1.373 . S
C3280 C3282 1.389 . S
C3281 H3260 0.950 . S
C3281 C3280 1.373 . S
C3281 C3297 1.377 . S
C3282 C3280 1.389 . S
C3282 C3283 1.524 . S
C3282 C3296 1.377 . S
C3283 C3282 1.524 . S
C3283 C3284 1.397 . S
C3283 C3288 1.363 . S
C3284 H3261 0.950 . S
C3284 C3283 1.397 . S
C3284 C3285 1.334 . S
C3285 H3262 0.950 . S
C3285 C3284 1.334 . S
C3285 C3286 1.287 . S
C3286 C3285 1.287 . S
C3286 C3287 1.524 . S
C3286 H3305 0.913 . S
C3287 H3263 0.950 . S
C3287 C3286 1.524 . S
C3287 C3288 1.415 . S
C3288 H3264 0.950 . S
C3288 C3283 1.363 . S
C3288 C3287 1.415 . S
C3289 H3265 0.951 . S
C3289 C3290 1.366 . S
C3289 C3291 1.388 . S
C3290 C3289 1.366 . S
C3290 C3294 1.385 . S
C3291 H3266 0.951 . S
C3291 C3289 1.388 . S
C3291 C3292 1.366 . S
C3292 C3291 1.366 . S
C3292 C3293 1.414 . S
C3292 C3295 1.499 . S
C3293 H3267 0.950 . S
C3293 C3292 1.414 . S
C3293 C3294 1.374 . S
C3294 H3268 0.950 . S
C3294 C3290 1.385 . S
C3294 C3293 1.374 . S
C3295 C3292 1.499 . S
C3295 C3296 1.373 . S
C3295 C3297 1.389 . S
C3296 H3269 0.950 . S
C3296 C3282 1.377 . S
C3296 C3295 1.373 . S
C3297 C3281 1.377 . S
C3297 C3295 1.389 . S
C3297 C3298 1.524 . S
C3298 C3297 1.524 . S
C3298 C3299 1.397 1_545 S
C3298 C3303 1.363 . S
C3299 H3270 0.950 . S
C3299 C3298 1.397 1_565 S
C3299 C3300 1.334 . S
C3300 H3271 0.950 . S
C3300 C3299 1.334 . S
C3300 C3301 1.287 . S
C3301 C3300 1.287 . S
C3301 C3302 1.524 . S
C3301 H3304 0.999 . S
C3302 H3272 0.950 . S
C3302 C3301 1.524 . S
C3302 C3303 1.415 1_565 S
C3303 H3273 0.950 . S
C3303 C3298 1.363 . S
C3303 C3302 1.415 1_545 S
H3304 C3301 0.999 . S
H3305 C3286 0.913 . S
H3306 C3324 0.951 . S
H3307 C3326 0.951 . S
H3308 C3328 0.950 . S
H3309 C3329 0.950 . S
H3310 C3331 0.950 . S
H3311 C3334 0.950 . S
H3312 C3335 0.950 . S
H3313 C3337 0.950 . S
H3314 C3338 0.950 . S
H3315 C3339 0.951 . S
H3316 C3341 0.951 . S
H3317 C3343 0.950 . S
H3318 C3344 0.950 . S
H3319 C3346 0.950 . S
H3320 C3349 0.950 . S
H3321 C3350 0.950 . S
H3322 C3352 0.950 . S
H3323 C3353 0.950 . S
C3324 H3306 0.951 . S
C3324 C3325 1.366 . S
C3324 C3326 1.388 . S
C3325 C3324 1.366 . S
C3325 C3329 1.385 . S
C3326 H3307 0.951 . S
C3326 C3324 1.388 . S
C3326 C3327 1.366 . S
C3327 C3326 1.366 . S
C3327 C3328 1.414 . S
C3327 C3330 1.499 . S
C3328 H3308 0.950 . S
C3328 C3327 1.414 . S
C3328 C3329 1.374 . S
C3329 H3309 0.950 . S
C3329 C3325 1.385 . S
C3329 C3328 1.374 . S
C3330 C3327 1.499 . S
C3330 C3331 1.373 . S
C3330 C3332 1.389 . S
C3331 H3310 0.950 . S
C3331 C3330 1.373 . S
C3331 C3347 1.377 . S
C3332 C3330 1.389 . S
C3332 C3333 1.524 . S
C3332 C3346 1.377 . S
C3333 C3332 1.524 . S
C3333 C3334 1.397 . S
C3333 C3338 1.363 . S
C3334 H3311 0.950 . S
C3334 C3333 1.397 . S
C3334 C3335 1.334 . S
C3335 H3312 0.950 . S
C3335 C3334 1.334 . S
C3335 C3336 1.287 . S
C3336 C3335 1.287 . S
C3336 C3337 1.524 . S
C3336 H3355 0.913 . S
C3337 H3313 0.950 . S
C3337 C3336 1.524 . S
C3337 C3338 1.415 . S
C3338 H3314 0.950 . S
C3338 C3333 1.363 . S
C3338 C3337 1.415 . S
C3339 H3315 0.951 . S
C3339 C3340 1.366 . S
C3339 C3341 1.388 . S
C3340 C3339 1.366 . S
C3340 C3344 1.385 . S
C3341 H3316 0.951 . S
C3341 C3339 1.388 . S
C3341 C3342 1.366 . S
C3342 C3341 1.366 . S
C3342 C3343 1.414 . S
C3342 C3345 1.499 . S
C3343 H3317 0.950 . S
C3343 C3342 1.414 . S
C3343 C3344 1.374 . S
C3344 H3318 0.950 . S
C3344 C3340 1.385 . S
C3344 C3343 1.374 . S
C3345 C3342 1.499 . S
C3345 C3346 1.373 . S
C3345 C3347 1.389 . S
C3346 H3319 0.950 . S
C3346 C3332 1.377 . S
C3346 C3345 1.373 . S
C3347 C3331 1.377 . S
C3347 C3345 1.389 . S
C3347 C3348 1.524 . S
C3348 C3347 1.524 . S
C3348 C3349 1.397 . S
C3348 C3353 1.363 . S
C3349 H3320 0.950 . S
C3349 C3348 1.397 . S
C3349 C3350 1.334 . S
C3350 H3321 0.950 . S
C3350 C3349 1.334 . S
C3350 C3351 1.287 . S
C3351 C3350 1.287 . S
C3351 C3352 1.524 . S
C3351 H3354 0.999 . S
C3352 H3322 0.950 . S
C3352 C3351 1.524 . S
C3352 C3353 1.415 . S
C3353 H3323 0.950 . S
C3353 C3348 1.363 . S
C3353 C3352 1.415 . S
H3354 C3351 0.999 . S
H3355 C3336 0.913 . S
H3356 C3374 0.951 . S
H3357 C3376 0.951 . S
H3358 C3378 0.950 . S
H3359 C3379 0.950 . S
H3360 C3381 0.950 1_565 S
H3361 C3384 0.950 . S
H3362 C3385 0.950 . S
H3363 C3387 0.950 . S
H3364 C3388 0.950 . S
H3365 C3389 0.951 . S
H3366 C3391 0.951 . S
H3367 C3393 0.950 . S
H3368 C3394 0.950 . S
H3369 C3396 0.950 . S
H3370 C3399 0.950 . S
H3371 C3400 0.950 . S
H3372 C3402 0.950 . S
H3373 C3403 0.950 . S
C3374 H3356 0.951 . S
C3374 C3375 1.366 . S
C3374 C3376 1.388 . S
C3375 C3374 1.366 . S
C3375 C3379 1.385 . S
C3376 H3357 0.951 . S
C3376 C3374 1.388 . S
C3376 C3377 1.366 . S
C3377 C3376 1.366 . S
C3377 C3378 1.414 . S
C3377 C3380 1.499 . S
C3378 H3358 0.950 . S
C3378 C3377 1.414 . S
C3378 C3379 1.374 . S
C3379 H3359 0.950 . S
C3379 C3375 1.385 . S
C3379 C3378 1.374 . S
C3380 C3377 1.499 . S
C3380 C3381 1.373 . S
C3380 C3382 1.389 . S
C3381 H3360 0.950 1_545 S
C3381 C3380 1.373 . S
C3381 C3397 1.377 . S
C3382 C3380 1.389 . S
C3382 C3383 1.524 . S
C3382 C3396 1.377 . S
C3383 C3382 1.524 . S
C3383 C3384 1.397 . S
C3383 C3388 1.363 . S
C3384 H3361 0.950 . S
C3384 C3383 1.397 . S
C3384 C3385 1.334 . S
C3385 H3362 0.950 . S
C3385 C3384 1.334 . S
C3385 C3386 1.287 . S
C3386 C3385 1.287 . S
C3386 C3387 1.524 . S
C3386 H3405 0.913 . S
C3387 H3363 0.950 . S
C3387 C3386 1.524 . S
C3387 C3388 1.415 . S
C3388 H3364 0.950 . S
C3388 C3383 1.363 . S
C3388 C3387 1.415 . S
C3389 H3365 0.951 . S
C3389 C3390 1.366 . S
C3389 C3391 1.388 . S
C3390 C3389 1.366 . S
C3390 C3394 1.385 . S
C3391 H3366 0.951 . S
C3391 C3389 1.388 . S
C3391 C3392 1.366 . S
C3392 C3391 1.366 . S
C3392 C3393 1.414 . S
C3392 C3395 1.499 . S
C3393 H3367 0.950 . S
C3393 C3392 1.414 . S
C3393 C3394 1.374 . S
C3394 H3368 0.950 . S
C3394 C3390 1.385 . S
C3394 C3393 1.374 . S
C3395 C3392 1.499 . S
C3395 C3396 1.373 . S
C3395 C3397 1.389 . S
C3396 H3369 0.950 . S
C3396 C3382 1.377 . S
C3396 C3395 1.373 . S
C3397 C3381 1.377 . S
C3397 C3395 1.389 . S
C3397 C3398 1.524 1_545 S
C3398 C3397 1.524 1_565 S
C3398 C3399 1.397 . S
C3398 C3403 1.363 . S
C3399 H3370 0.950 . S
C3399 C3398 1.397 . S
C3399 C3400 1.334 . S
C3400 H3371 0.950 . S
C3400 C3399 1.334 . S
C3400 C3401 1.287 . S
C3401 C3400 1.287 . S
C3401 C3402 1.524 . S
C3401 H3404 0.999 . S
C3402 H3372 0.950 . S
C3402 C3401 1.524 . S
C3402 C3403 1.415 . S
C3403 H3373 0.950 . S
C3403 C3398 1.363 . S
C3403 C3402 1.415 . S
H3404 C3401 0.999 . S
H3405 C3386 0.913 . S
H3406 C3424 0.951 . S
H3407 C3426 0.951 . S
H3408 C3428 0.950 . S
H3409 C3429 0.950 . S
H3410 C3431 0.950 . S
H3411 C3434 0.950 . S
H3412 C3435 0.950 . S
H3413 C3437 0.950 . S
H3414 C3438 0.950 . S
H3415 C3439 0.951 . S
H3416 C3441 0.951 . S
H3417 C3443 0.950 . S
H3418 C3444 0.950 . S
H3419 C3446 0.950 . S
H3420 C3449 0.950 . S
H3421 C3450 0.950 . S
H3422 C3452 0.950 . S
H3423 C3453 0.950 . S
C3424 H3406 0.951 . S
C3424 C3425 1.366 . S
C3424 C3426 1.388 . S
C3425 C3424 1.366 . S
C3425 C3429 1.385 . S
C3426 H3407 0.951 . S
C3426 C3424 1.388 . S
C3426 C3427 1.366 . S
C3427 C3426 1.366 . S
C3427 C3428 1.414 . S
C3427 C3430 1.499 . S
C3428 H3408 0.950 . S
C3428 C3427 1.414 . S
C3428 C3429 1.374 . S
C3429 H3409 0.950 . S
C3429 C3425 1.385 . S
C3429 C3428 1.374 . S
C3430 C3427 1.499 . S
C3430 C3431 1.373 . S
C3430 C3432 1.389 . S
C3431 H3410 0.950 . S
C3431 C3430 1.373 . S
C3431 C3447 1.377 . S
C3432 C3430 1.389 . S
C3432 C3433 1.524 . S
C3432 C3446 1.377 . S
C3433 C3432 1.524 . S
C3433 C3434 1.397 . S
C3433 C3438 1.363 . S
C3434 H3411 0.950 . S
C3434 C3433 1.397 . S
C3434 C3435 1.334 . S
C3435 H3412 0.950 . S
C3435 C3434 1.334 . S
C3435 C3436 1.287 . S
C3436 C3435 1.287 . S
C3436 C3437 1.524 . S
C3436 H3455 0.913 . S
C3437 H3413 0.950 . S
C3437 C3436 1.524 . S
C3437 C3438 1.415 . S
C3438 H3414 0.950 . S
C3438 C3433 1.363 . S
C3438 C3437 1.415 . S
C3439 H3415 0.951 . S
C3439 C3440 1.366 . S
C3439 C3441 1.388 . S
C3440 C3439 1.366 . S
C3440 C3444 1.385 . S
C3441 H3416 0.951 . S
C3441 C3439 1.388 . S
C3441 C3442 1.366 . S
C3442 C3441 1.366 . S
C3442 C3443 1.414 . S
C3442 C3445 1.499 . S
C3443 H3417 0.950 . S
C3443 C3442 1.414 . S
C3443 C3444 1.374 . S
C3444 H3418 0.950 . S
C3444 C3440 1.385 . S
C3444 C3443 1.374 . S
C3445 C3442 1.499 . S
C3445 C3446 1.373 . S
C3445 C3447 1.389 . S
C3446 H3419 0.950 . S
C3446 C3432 1.377 . S
C3446 C3445 1.373 . S
C3447 C3431 1.377 . S
C3447 C3445 1.389 . S
C3447 C3448 1.524 . S
C3448 C3447 1.524 . S
C3448 C3449 1.397 . S
C3448 C3453 1.363 . S
C3449 H3420 0.950 . S
C3449 C3448 1.397 . S
C3449 C3450 1.334 . S
C3450 H3421 0.950 . S
C3450 C3449 1.334 . S
C3450 C3451 1.287 . S
C3451 C3450 1.287 . S
C3451 C3452 1.524 . S
C3451 H3454 0.999 . S
C3452 H3422 0.950 . S
C3452 C3451 1.524 . S
C3452 C3453 1.415 . S
C3453 H3423 0.950 . S
C3453 C3448 1.363 . S
C3453 C3452 1.415 . S
H3454 C3451 0.999 . S
H3455 C3436 0.913 . S
H3456 C3474 0.951 . S
H3457 C3476 0.951 . S
H3458 C3478 0.950 . S
H3459 C3479 0.950 . S
H3460 C3481 0.950 . S
H3461 C3484 0.950 . S
H3462 C3485 0.950 . S
H3463 C3487 0.950 . S
H3464 C3488 0.950 . S
H3465 C3489 0.951 . S
H3466 C3491 0.951 . S
H3467 C3493 0.950 . S
H3468 C3494 0.950 . S
H3469 C3496 0.950 . S
H3470 C3499 0.950 . S
H3471 C3500 0.950 . S
H3472 C3502 0.950 . S
H3473 C3503 0.950 . S
C3474 H3456 0.951 . S
C3474 C3475 1.366 . S
C3474 C3476 1.388 . S
C3475 C3474 1.366 . S
C3475 C3479 1.385 . S
C3476 H3457 0.951 . S
C3476 C3474 1.388 . S
C3476 C3477 1.366 . S
C3477 C3476 1.366 . S
C3477 C3478 1.414 . S
C3477 C3480 1.499 . S
C3478 H3458 0.950 . S
C3478 C3477 1.414 . S
C3478 C3479 1.374 . S
C3479 H3459 0.950 . S
C3479 C3475 1.385 . S
C3479 C3478 1.374 . S
C3480 C3477 1.499 . S
C3480 C3481 1.373 . S
C3480 C3482 1.389 . S
C3481 H3460 0.950 . S
C3481 C3480 1.373 . S
C3481 C3497 1.377 . S
C3482 C3480 1.389 . S
C3482 C3483 1.524 . S
C3482 C3496 1.377 . S
C3483 C3482 1.524 . S
C3483 C3484 1.397 1_545 S
C3483 C3488 1.363 . S
C3484 H3461 0.950 . S
C3484 C3483 1.397 1_565 S
C3484 C3485 1.334 . S
C3485 H3462 0.950 . S
C3485 C3484 1.334 . S
C3485 C3486 1.287 . S
C3486 C3485 1.287 . S
C3486 C3487 1.524 . S
C3486 H3505 0.913 . S
C3487 H3463 0.950 . S
C3487 C3486 1.524 . S
C3487 C3488 1.415 1_565 S
C3488 H3464 0.950 . S
C3488 C3483 1.363 . S
C3488 C3487 1.415 1_545 S
C3489 H3465 0.951 . S
C3489 C3490 1.366 . S
C3489 C3491 1.388 . S
C3490 C3489 1.366 . S
C3490 C3494 1.385 . S
C3491 H3466 0.951 . S
C3491 C3489 1.388 . S
C3491 C3492 1.366 . S
C3492 C3491 1.366 . S
C3492 C3493 1.414 . S
C3492 C3495 1.499 . S
C3493 H3467 0.950 . S
C3493 C3492 1.414 . S
C3493 C3494 1.374 . S
C3494 H3468 0.950 . S
C3494 C3490 1.385 . S
C3494 C3493 1.374 . S
C3495 C3492 1.499 . S
C3495 C3496 1.373 . S
C3495 C3497 1.389 . S
C3496 H3469 0.950 . S
C3496 C3482 1.377 . S
C3496 C3495 1.373 . S
C3497 C3481 1.377 . S
C3497 C3495 1.389 . S
C3497 C3498 1.524 . S
C3498 C3497 1.524 . S
C3498 C3499 1.397 . S
C3498 C3503 1.363 . S
C3499 H3470 0.950 . S
C3499 C3498 1.397 . S
C3499 C3500 1.334 . S
C3500 H3471 0.950 . S
C3500 C3499 1.334 . S
C3500 C3501 1.287 . S
C3501 C3500 1.287 . S
C3501 C3502 1.524 . S
C3501 H3504 0.999 . S
C3502 H3472 0.950 . S
C3502 C3501 1.524 . S
C3502 C3503 1.415 . S
C3503 H3473 0.950 . S
C3503 C3498 1.363 . S
C3503 C3502 1.415 . S
H3504 C3501 0.999 . S
H3505 C3486 0.913 . S
H3506 C3524 0.951 . S
H3507 C3526 0.951 . S
H3508 C3528 0.950 . S
H3509 C3529 0.950 . S
H3510 C3531 0.950 . S
H3511 C3534 0.950 . S
H3512 C3535 0.950 . S
H3513 C3537 0.950 . S
H3514 C3538 0.950 . S
H3515 C3539 0.951 . S
H3516 C3541 0.951 . S
H3517 C3543 0.950 . S
H3518 C3544 0.950 . S
H3519 C3546 0.950 . S
H3520 C3549 0.950 . S
H3521 C3550 0.950 . S
H3522 C3552 0.950 . S
H3523 C3553 0.950 . S
C3524 H3506 0.951 . S
C3524 C3525 1.366 . S
C3524 C3526 1.388 . S
C3525 C3524 1.366 . S
C3525 C3529 1.385 . S
C3526 H3507 0.951 . S
C3526 C3524 1.388 . S
C3526 C3527 1.366 . S
C3527 C3526 1.366 . S
C3527 C3528 1.414 . S
C3527 C3530 1.499 . S
C3528 H3508 0.950 . S
C3528 C3527 1.414 . S
C3528 C3529 1.374 . S
C3529 H3509 0.950 . S
C3529 C3525 1.385 . S
C3529 C3528 1.374 . S
C3530 C3527 1.499 . S
C3530 C3531 1.373 . S
C3530 C3532 1.389 . S
C3531 H3510 0.950 . S
C3531 C3530 1.373 . S
C3531 C3547 1.377 . S
C3532 C3530 1.389 . S
C3532 C3533 1.524 . S
C3532 C3546 1.377 . S
C3533 C3532 1.524 . S
C3533 C3534 1.397 . S
C3533 C3538 1.363 . S
C3534 H3511 0.950 . S
C3534 C3533 1.397 . S
C3534 C3535 1.334 . S
C3535 H3512 0.950 . S
C3535 C3534 1.334 . S
C3535 C3536 1.287 . S
C3536 C3535 1.287 . S
C3536 C3537 1.524 . S
C3536 H3555 0.913 . S
C3537 H3513 0.950 . S
C3537 C3536 1.524 . S
C3537 C3538 1.415 . S
C3538 H3514 0.950 . S
C3538 C3533 1.363 . S
C3538 C3537 1.415 . S
C3539 H3515 0.951 . S
C3539 C3540 1.366 . S
C3539 C3541 1.388 . S
C3540 C3539 1.366 . S
C3540 C3544 1.385 . S
C3541 H3516 0.951 . S
C3541 C3539 1.388 . S
C3541 C3542 1.366 . S
C3542 C3541 1.366 . S
C3542 C3543 1.414 . S
C3542 C3545 1.499 . S
C3543 H3517 0.950 . S
C3543 C3542 1.414 . S
C3543 C3544 1.374 . S
C3544 H3518 0.950 . S
C3544 C3540 1.385 . S
C3544 C3543 1.374 . S
C3545 C3542 1.499 . S
C3545 C3546 1.373 . S
C3545 C3547 1.389 . S
C3546 H3519 0.950 . S
C3546 C3532 1.377 . S
C3546 C3545 1.373 . S
C3547 C3531 1.377 . S
C3547 C3545 1.389 . S
C3547 C3548 1.524 . S
C3548 C3547 1.524 . S
C3548 C3549 1.397 . S
C3548 C3553 1.363 . S
C3549 H3520 0.950 . S
C3549 C3548 1.397 . S
C3549 C3550 1.334 . S
C3550 H3521 0.950 . S
C3550 C3549 1.334 . S
C3550 C3551 1.287 . S
C3551 C3550 1.287 . S
C3551 C3552 1.524 . S
C3551 H3554 0.999 . S
C3552 H3522 0.950 . S
C3552 C3551 1.524 . S
C3552 C3553 1.415 . S
C3553 H3523 0.950 . S
C3553 C3548 1.363 . S
C3553 C3552 1.415 . S
H3554 C3551 0.999 . S
H3555 C3536 0.913 . S
H3556 C3574 0.951 . S
H3557 C3576 0.951 . S
H3558 C3578 0.950 . S
H3559 C3579 0.950 . S
H3560 C3581 0.950 . S
H3561 C3584 0.950 . S
H3562 C3585 0.950 . S
H3563 C3587 0.950 . S
H3564 C3588 0.950 . S
H3565 C3589 0.951 . S
H3566 C3591 0.951 . S
H3567 C3593 0.950 . S
H3568 C3594 0.950 . S
H3569 C3596 0.950 1_565 S
H3570 C3599 0.950 . S
H3571 C3600 0.950 . S
H3572 C3602 0.950 . S
H3573 C3603 0.950 . S
C3574 H3556 0.951 . S
C3574 C3575 1.366 . S
C3574 C3576 1.388 . S
C3575 C3574 1.366 . S
C3575 C3579 1.385 . S
C3576 H3557 0.951 . S
C3576 C3574 1.388 . S
C3576 C3577 1.366 . S
C3577 C3576 1.366 . S
C3577 C3578 1.414 . S
C3577 C3580 1.499 . S
C3578 H3558 0.950 . S
C3578 C3577 1.414 . S
C3578 C3579 1.374 . S
C3579 H3559 0.950 . S
C3579 C3575 1.385 . S
C3579 C3578 1.374 . S
C3580 C3577 1.499 . S
C3580 C3581 1.373 . S
C3580 C3582 1.389 . S
C3581 H3560 0.950 . S
C3581 C3580 1.373 . S
C3581 C3597 1.377 . S
C3582 C3580 1.389 . S
C3582 C3583 1.524 1_545 S
C3582 C3596 1.377 . S
C3583 C3582 1.524 1_565 S
C3583 C3584 1.397 . S
C3583 C3588 1.363 . S
C3584 H3561 0.950 . S
C3584 C3583 1.397 . S
C3584 C3585 1.334 . S
C3585 H3562 0.950 . S
C3585 C3584 1.334 . S
C3585 C3586 1.287 . S
C3586 C3585 1.287 . S
C3586 C3587 1.524 . S
C3586 H3605 0.913 . S
C3587 H3563 0.950 . S
C3587 C3586 1.524 . S
C3587 C3588 1.415 . S
C3588 H3564 0.950 . S
C3588 C3583 1.363 . S
C3588 C3587 1.415 . S
C3589 H3565 0.951 . S
C3589 C3590 1.366 . S
C3589 C3591 1.388 . S
C3590 C3589 1.366 . S
C3590 C3594 1.385 . S
C3591 H3566 0.951 . S
C3591 C3589 1.388 . S
C3591 C3592 1.366 . S
C3592 C3591 1.366 . S
C3592 C3593 1.414 . S
C3592 C3595 1.499 . S
C3593 H3567 0.950 . S
C3593 C3592 1.414 . S
C3593 C3594 1.374 . S
C3594 H3568 0.950 . S
C3594 C3590 1.385 . S
C3594 C3593 1.374 . S
C3595 C3592 1.499 . S
C3595 C3596 1.373 . S
C3595 C3597 1.389 . S
C3596 H3569 0.950 1_545 S
C3596 C3582 1.377 . S
C3596 C3595 1.373 . S
C3597 C3581 1.377 . S
C3597 C3595 1.389 . S
C3597 C3598 1.524 . S
C3598 C3597 1.524 . S
C3598 C3599 1.397 . S
C3598 C3603 1.363 . S
C3599 H3570 0.950 . S
C3599 C3598 1.397 . S
C3599 C3600 1.334 . S
C3600 H3571 0.950 . S
C3600 C3599 1.334 . S
C3600 C3601 1.287 . S
C3601 C3600 1.287 . S
C3601 C3602 1.524 . S
C3601 H3604 0.999 . S
C3602 H3572 0.950 . S
C3602 C3601 1.524 . S
C3602 C3603 1.415 . S
C3603 H3573 0.950 . S
C3603 C3598 1.363 . S
C3603 C3602 1.415 . S
H3604 C3601 0.999 . S
H3605 C3586 0.913 . S
H3606 C3624 0.951 . S
H3607 C3626 0.951 . S
H3608 C3628 0.950 . S
H3609 C3629 0.950 . S
H3610 C3631 0.950 . S
H3611 C3634 0.950 . S
H3612 C3635 0.950 . S
H3613 C3637 0.950 . S
H3614 C3638 0.950 . S
H3615 C3639 0.951 . S
H3616 C3641 0.951 . S
H3617 C3643 0.950 . S
H3618 C3644 0.950 . S
H3619 C3646 0.950 . S
H3620 C3649 0.950 . S
H3621 C3650 0.950 . S
H3622 C3652 0.950 . S
H3623 C3653 0.950 . S
C3624 H3606 0.951 . S
C3624 C3625 1.366 . S
C3624 C3626 1.388 . S
C3625 C3624 1.366 . S
C3625 C3629 1.385 . S
C3626 H3607 0.951 . S
C3626 C3624 1.388 . S
C3626 C3627 1.366 . S
C3627 C3626 1.366 . S
C3627 C3628 1.414 . S
C3627 C3630 1.499 . S
C3628 H3608 0.950 . S
C3628 C3627 1.414 . S
C3628 C3629 1.374 . S
C3629 H3609 0.950 . S
C3629 C3625 1.385 . S
C3629 C3628 1.374 . S
C3630 C3627 1.499 . S
C3630 C3631 1.373 . S
C3630 C3632 1.389 . S
C3631 H3610 0.950 . S
C3631 C3630 1.373 . S
C3631 C3647 1.377 . S
C3632 C3630 1.389 . S
C3632 C3633 1.524 . S
C3632 C3646 1.377 . S
C3633 C3632 1.524 . S
C3633 C3634 1.397 . S
C3633 C3638 1.363 . S
C3634 H3611 0.950 . S
C3634 C3633 1.397 . S
C3634 C3635 1.334 . S
C3635 H3612 0.950 . S
C3635 C3634 1.334 . S
C3635 C3636 1.287 . S
C3636 C3635 1.287 . S
C3636 C3637 1.524 . S
C3636 H3655 0.913 . S
C3637 H3613 0.950 . S
C3637 C3636 1.524 . S
C3637 C3638 1.415 . S
C3638 H3614 0.950 . S
C3638 C3633 1.363 . S
C3638 C3637 1.415 . S
C3639 H3615 0.951 . S
C3639 C3640 1.366 . S
C3639 C3641 1.388 . S
C3640 C3639 1.366 . S
C3640 C3644 1.385 . S
C3641 H3616 0.951 . S
C3641 C3639 1.388 . S
C3641 C3642 1.366 . S
C3642 C3641 1.366 . S
C3642 C3643 1.414 . S
C3642 C3645 1.499 . S
C3643 H3617 0.950 . S
C3643 C3642 1.414 . S
C3643 C3644 1.374 . S
C3644 H3618 0.950 . S
C3644 C3640 1.385 . S
C3644 C3643 1.374 . S
C3645 C3642 1.499 . S
C3645 C3646 1.373 . S
C3645 C3647 1.389 . S
C3646 H3619 0.950 . S
C3646 C3632 1.377 . S
C3646 C3645 1.373 . S
C3647 C3631 1.377 . S
C3647 C3645 1.389 . S
C3647 C3648 1.524 . S
C3648 C3647 1.524 . S
C3648 C3649 1.397 . S
C3648 C3653 1.363 . S
C3649 H3620 0.950 . S
C3649 C3648 1.397 . S
C3649 C3650 1.334 . S
C3650 H3621 0.950 . S
C3650 C3649 1.334 . S
C3650 C3651 1.287 . S
C3651 C3650 1.287 . S
C3651 C3652 1.524 . S
C3651 H3654 0.999 . S
C3652 H3622 0.950 . S
C3652 C3651 1.524 . S
C3652 C3653 1.415 . S
C3653 H3623 0.950 . S
C3653 C3648 1.363 . S
C3653 C3652 1.415 . S
H3654 C3651 0.999 . S
H3655 C3636 0.913 . S
H3656 C3674 0.951 . S
H3657 C3676 0.951 . S
H3658 C3678 0.950 . S
H3659 C3679 0.950 . S
H3660 C3681 0.950 . S
H3661 C3684 0.950 . S
H3662 C3685 0.950 . S
H3663 C3687 0.950 . S
H3664 C3688 0.950 . S
H3665 C3689 0.951 . S
H3666 C3691 0.951 . S
H3667 C3693 0.950 . S
H3668 C3694 0.950 . S
H3669 C3696 0.950 . S
H3670 C3699 0.950 . S
H3671 C3700 0.950 . S
H3672 C3702 0.950 . S
H3673 C3703 0.950 . S
C3674 H3656 0.951 . S
C3674 C3675 1.366 . S
C3674 C3676 1.388 . S
C3675 C3674 1.366 . S
C3675 C3679 1.385 . S
C3676 H3657 0.951 . S
C3676 C3674 1.388 . S
C3676 C3677 1.366 . S
C3677 C3676 1.366 . S
C3677 C3678 1.414 . S
C3677 C3680 1.499 . S
C3678 H3658 0.950 . S
C3678 C3677 1.414 . S
C3678 C3679 1.374 . S
C3679 H3659 0.950 . S
C3679 C3675 1.385 . S
C3679 C3678 1.374 . S
C3680 C3677 1.499 . S
C3680 C3681 1.373 . S
C3680 C3682 1.389 . S
C3681 H3660 0.950 . S
C3681 C3680 1.373 . S
C3681 C3697 1.377 . S
C3682 C3680 1.389 . S
C3682 C3683 1.524 . S
C3682 C3696 1.377 . S
C3683 C3682 1.524 . S
C3683 C3684 1.397 . S
C3683 C3688 1.363 . S
C3684 H3661 0.950 . S
C3684 C3683 1.397 . S
C3684 C3685 1.334 1_554 S
C3685 H3662 0.950 . S
C3685 C3684 1.334 1_556 S
C3685 C3686 1.287 . S
C3686 C3685 1.287 . S
C3686 C3687 1.524 1_556 S
C3686 H3705 0.913 . S
C3687 H3663 0.950 . S
C3687 C3686 1.524 1_554 S
C3687 C3688 1.415 . S
C3688 H3664 0.950 . S
C3688 C3683 1.363 . S
C3688 C3687 1.415 . S
C3689 H3665 0.951 . S
C3689 C3690 1.366 . S
C3689 C3691 1.388 . S
C3690 C3689 1.366 . S
C3690 C3694 1.385 . S
C3691 H3666 0.951 . S
C3691 C3689 1.388 . S
C3691 C3692 1.366 . S
C3692 C3691 1.366 . S
C3692 C3693 1.414 . S
C3692 C3695 1.499 . S
C3693 H3667 0.950 . S
C3693 C3692 1.414 . S
C3693 C3694 1.374 . S
C3694 H3668 0.950 . S
C3694 C3690 1.385 . S
C3694 C3693 1.374 . S
C3695 C3692 1.499 . S
C3695 C3696 1.373 . S
C3695 C3697 1.389 . S
C3696 H3669 0.950 . S
C3696 C3682 1.377 . S
C3696 C3695 1.373 . S
C3697 C3681 1.377 . S
C3697 C3695 1.389 . S
C3697 C3698 1.524 . S
C3698 C3697 1.524 . S
C3698 C3699 1.397 . S
C3698 C3703 1.363 . S
C3699 H3670 0.950 . S
C3699 C3698 1.397 . S
C3699 C3700 1.334 . S
C3700 H3671 0.950 . S
C3700 C3699 1.334 . S
C3700 C3701 1.287 . S
C3701 C3700 1.287 . S
C3701 C3702 1.524 . S
C3701 H3704 0.999 . S
C3702 H3672 0.950 . S
C3702 C3701 1.524 . S
C3702 C3703 1.415 . S
C3703 H3673 0.950 . S
C3703 C3698 1.363 . S
C3703 C3702 1.415 . S
H3704 C3701 0.999 . S
H3705 C3686 0.913 . S
H3706 C3724 0.951 . S
H3707 C3726 0.951 . S
H3708 C3728 0.950 . S
H3709 C3729 0.950 . S
H3710 C3731 0.950 . S
H3711 C3734 0.950 . S
H3712 C3735 0.950 . S
H3713 C3737 0.950 . S
H3714 C3738 0.950 . S
H3715 C3739 0.951 . S
H3716 C3741 0.951 . S
H3717 C3743 0.950 . S
H3718 C3744 0.950 . S
H3719 C3746 0.950 . S
H3720 C3749 0.950 . S
H3721 C3750 0.950 . S
H3722 C3752 0.950 . S
H3723 C3753 0.950 . S
C3724 H3706 0.951 . S
C3724 C3725 1.366 . S
C3724 C3726 1.388 . S
C3725 C3724 1.366 . S
C3725 C3729 1.385 . S
C3726 H3707 0.951 . S
C3726 C3724 1.388 . S
C3726 C3727 1.366 . S
C3727 C3726 1.366 . S
C3727 C3728 1.414 . S
C3727 C3730 1.499 . S
C3728 H3708 0.950 . S
C3728 C3727 1.414 . S
C3728 C3729 1.374 . S
C3729 H3709 0.950 . S
C3729 C3725 1.385 . S
C3729 C3728 1.374 . S
C3730 C3727 1.499 . S
C3730 C3731 1.373 . S
C3730 C3732 1.389 . S
C3731 H3710 0.950 . S
C3731 C3730 1.373 . S
C3731 C3747 1.377 . S
C3732 C3730 1.389 . S
C3732 C3733 1.524 1_554 S
C3732 C3746 1.377 . S
C3733 C3732 1.524 1_556 S
C3733 C3734 1.397 . S
C3733 C3738 1.363 . S
C3734 H3711 0.950 . S
C3734 C3733 1.397 . S
C3734 C3735 1.334 . S
C3735 H3712 0.950 . S
C3735 C3734 1.334 . S
C3735 C3736 1.287 . S
C3736 C3735 1.287 . S
C3736 C3737 1.524 . S
C3736 H3755 0.913 . S
C3737 H3713 0.950 . S
C3737 C3736 1.524 . S
C3737 C3738 1.415 . S
C3738 H3714 0.950 . S
C3738 C3733 1.363 . S
C3738 C3737 1.415 . S
C3739 H3715 0.951 . S
C3739 C3740 1.366 . S
C3739 C3741 1.388 . S
C3740 C3739 1.366 . S
C3740 C3744 1.385 . S
C3741 H3716 0.951 . S
C3741 C3739 1.388 . S
C3741 C3742 1.366 . S
C3742 C3741 1.366 . S
C3742 C3743 1.414 . S
C3742 C3745 1.499 . S
C3743 H3717 0.950 . S
C3743 C3742 1.414 . S
C3743 C3744 1.374 . S
C3744 H3718 0.950 . S
C3744 C3740 1.385 . S
C3744 C3743 1.374 . S
C3745 C3742 1.499 . S
C3745 C3746 1.373 . S
C3745 C3747 1.389 . S
C3746 H3719 0.950 . S
C3746 C3732 1.377 . S
C3746 C3745 1.373 . S
C3747 C3731 1.377 . S
C3747 C3745 1.389 . S
C3747 C3748 1.524 . S
C3748 C3747 1.524 . S
C3748 C3749 1.397 . S
C3748 C3753 1.363 . S
C3749 H3720 0.950 . S
C3749 C3748 1.397 . S
C3749 C3750 1.334 . S
C3750 H3721 0.950 . S
C3750 C3749 1.334 . S
C3750 C3751 1.287 . S
C3751 C3750 1.287 . S
C3751 C3752 1.524 . S
C3751 H3754 0.999 . S
C3752 H3722 0.950 . S
C3752 C3751 1.524 . S
C3752 C3753 1.415 . S
C3753 H3723 0.950 . S
C3753 C3748 1.363 . S
C3753 C3752 1.415 . S
H3754 C3751 0.999 . S
H3755 C3736 0.913 . S
H3756 C3774 0.951 . S
H3757 C3776 0.951 . S
H3758 C3778 0.950 . S
H3759 C3779 0.950 . S
H3760 C3781 0.950 . S
H3761 C3784 0.950 . S
H3762 C3785 0.950 . S
H3763 C3787 0.950 . S
H3764 C3788 0.950 . S
H3765 C3789 0.951 . S
H3766 C3791 0.951 . S
H3767 C3793 0.950 . S
H3768 C3794 0.950 . S
H3769 C3796 0.950 . S
H3770 C3799 0.950 . S
H3771 C3800 0.950 . S
H3772 C3802 0.950 . S
H3773 C3803 0.950 . S
C3774 H3756 0.951 . S
C3774 C3775 1.366 . S
C3774 C3776 1.388 . S
C3775 C3774 1.366 . S
C3775 C3779 1.385 . S
C3776 H3757 0.951 . S
C3776 C3774 1.388 . S
C3776 C3777 1.366 . S
C3777 C3776 1.366 . S
C3777 C3778 1.414 . S
C3777 C3780 1.499 . S
C3778 H3758 0.950 . S
C3778 C3777 1.414 . S
C3778 C3779 1.374 . S
C3779 H3759 0.950 . S
C3779 C3775 1.385 . S
C3779 C3778 1.374 . S
C3780 C3777 1.499 . S
C3780 C3781 1.373 . S
C3780 C3782 1.389 . S
C3781 H3760 0.950 . S
C3781 C3780 1.373 . S
C3781 C3797 1.377 . S
C3782 C3780 1.389 . S
C3782 C3783 1.524 . S
C3782 C3796 1.377 . S
C3783 C3782 1.524 . S
C3783 C3784 1.397 . S
C3783 C3788 1.363 . S
C3784 H3761 0.950 . S
C3784 C3783 1.397 . S
C3784 C3785 1.334 . S
C3785 H3762 0.950 . S
C3785 C3784 1.334 . S
C3785 C3786 1.287 . S
C3786 C3785 1.287 . S
C3786 C3787 1.524 . S
C3786 H3805 0.913 . S
C3787 H3763 0.950 . S
C3787 C3786 1.524 . S
C3787 C3788 1.415 . S
C3788 H3764 0.950 . S
C3788 C3783 1.363 . S
C3788 C3787 1.415 . S
C3789 H3765 0.951 . S
C3789 C3790 1.366 . S
C3789 C3791 1.388 . S
C3790 C3789 1.366 . S
C3790 C3794 1.385 . S
C3791 H3766 0.951 . S
C3791 C3789 1.388 . S
C3791 C3792 1.366 . S
C3792 C3791 1.366 . S
C3792 C3793 1.414 . S
C3792 C3795 1.499 . S
C3793 H3767 0.950 . S
C3793 C3792 1.414 . S
C3793 C3794 1.374 . S
C3794 H3768 0.950 . S
C3794 C3790 1.385 . S
C3794 C3793 1.374 . S
C3795 C3792 1.499 . S
C3795 C3796 1.373 . S
C3795 C3797 1.389 . S
C3796 H3769 0.950 . S
C3796 C3782 1.377 . S
C3796 C3795 1.373 . S
C3797 C3781 1.377 . S
C3797 C3795 1.389 . S
C3797 C3798 1.524 . S
C3798 C3797 1.524 . S
C3798 C3799 1.397 . S
C3798 C3803 1.363 . S
C3799 H3770 0.950 . S
C3799 C3798 1.397 . S
C3799 C3800 1.334 . S
C3800 H3771 0.950 . S
C3800 C3799 1.334 . S
C3800 C3801 1.287 . S
C3801 C3800 1.287 . S
C3801 C3802 1.524 . S
C3801 H3804 0.999 . S
C3802 H3772 0.950 . S
C3802 C3801 1.524 . S
C3802 C3803 1.415 . S
C3803 H3773 0.950 . S
C3803 C3798 1.363 . S
C3803 C3802 1.415 . S
H3804 C3801 0.999 . S
H3805 C3786 0.913 . S
H3806 C3824 0.951 . S
H3807 C3826 0.951 . S
H3808 C3828 0.950 . S
H3809 C3829 0.950 . S
H3810 C3831 0.950 . S
H3811 C3834 0.950 . S
H3812 C3835 0.950 . S
H3813 C3837 0.950 . S
H3814 C3838 0.950 . S
H3815 C3839 0.951 . S
H3816 C3841 0.951 . S
H3817 C3843 0.950 . S
H3818 C3844 0.950 . S
H3819 C3846 0.950 . S
H3820 C3849 0.950 . S
H3821 C3850 0.950 . S
H3822 C3852 0.950 . S
H3823 C3853 0.950 . S
C3824 H3806 0.951 . S
C3824 C3825 1.366 . S
C3824 C3826 1.388 . S
C3825 C3824 1.366 . S
C3825 C3829 1.385 . S
C3826 H3807 0.951 . S
C3826 C3824 1.388 . S
C3826 C3827 1.366 . S
C3827 C3826 1.366 . S
C3827 C3828 1.414 . S
C3827 C3830 1.499 . S
C3828 H3808 0.950 . S
C3828 C3827 1.414 . S
C3828 C3829 1.374 . S
C3829 H3809 0.950 . S
C3829 C3825 1.385 . S
C3829 C3828 1.374 . S
C3830 C3827 1.499 . S
C3830 C3831 1.373 . S
C3830 C3832 1.389 . S
C3831 H3810 0.950 . S
C3831 C3830 1.373 . S
C3831 C3847 1.377 . S
C3832 C3830 1.389 . S
C3832 C3833 1.524 . S
C3832 C3846 1.377 . S
C3833 C3832 1.524 . S
C3833 C3834 1.397 . S
C3833 C3838 1.363 . S
C3834 H3811 0.950 . S
C3834 C3833 1.397 . S
C3834 C3835 1.334 . S
C3835 H3812 0.950 . S
C3835 C3834 1.334 . S
C3835 C3836 1.287 . S
C3836 C3835 1.287 . S
C3836 C3837 1.524 . S
C3836 H3855 0.913 . S
C3837 H3813 0.950 . S
C3837 C3836 1.524 . S
C3837 C3838 1.415 . S
C3838 H3814 0.950 . S
C3838 C3833 1.363 . S
C3838 C3837 1.415 . S
C3839 H3815 0.951 . S
C3839 C3840 1.366 . S
C3839 C3841 1.388 . S
C3840 C3839 1.366 . S
C3840 C3844 1.385 . S
C3841 H3816 0.951 . S
C3841 C3839 1.388 . S
C3841 C3842 1.366 . S
C3842 C3841 1.366 . S
C3842 C3843 1.414 . S
C3842 C3845 1.499 . S
C3843 H3817 0.950 . S
C3843 C3842 1.414 . S
C3843 C3844 1.374 . S
C3844 H3818 0.950 . S
C3844 C3840 1.385 . S
C3844 C3843 1.374 . S
C3845 C3842 1.499 . S
C3845 C3846 1.373 . S
C3845 C3847 1.389 . S
C3846 H3819 0.950 . S
C3846 C3832 1.377 . S
C3846 C3845 1.373 . S
C3847 C3831 1.377 . S
C3847 C3845 1.389 . S
C3847 C3848 1.524 . S
C3848 C3847 1.524 . S
C3848 C3849 1.397 . S
C3848 C3853 1.363 . S
C3849 H3820 0.950 . S
C3849 C3848 1.397 . S
C3849 C3850 1.334 . S
C3850 H3821 0.950 . S
C3850 C3849 1.334 . S
C3850 C3851 1.287 . S
C3851 C3850 1.287 . S
C3851 C3852 1.524 . S
C3851 H3854 0.999 . S
C3852 H3822 0.950 . S
C3852 C3851 1.524 . S
C3852 C3853 1.415 . S
C3853 H3823 0.950 . S
C3853 C3848 1.363 . S
C3853 C3852 1.415 . S
H3854 C3851 0.999 . S
H3855 C3836 0.913 . S
H3856 C3874 0.923 1_545 S
H3857 C3876 0.951 . S
H3858 C3878 0.950 . S
H3859 C3879 0.950 . S
H3860 C3881 0.950 . S
H3861 C3884 0.950 . S
H3862 C3885 0.950 . S
H3863 C3887 0.950 . S
H3864 C3888 0.950 . S
H3865 C3889 0.951 . S
H3866 C3891 0.951 . S
H3867 C3893 0.950 . S
H3868 C3894 0.950 . S
H3869 C3896 0.950 . S
H3870 C3899 0.950 . S
H3871 C3900 0.950 . S
H3872 C3902 0.950 . S
H3873 C3903 0.950 . S
C3874 H3856 0.923 1_565 S
C3874 C3875 1.370 . S
C3874 C3876 1.423 . S
C3875 C3874 1.370 . S
C3875 C3879 1.430 . S
C3876 H3857 0.951 . S
C3876 C3874 1.423 . S
C3876 C3877 1.366 . S
C3877 C3876 1.366 . S
C3877 C3878 1.414 . S
C3877 C3880 1.499 . S
C3878 H3858 0.950 . S
C3878 C3877 1.414 . S
C3878 C3879 1.374 . S
C3879 H3859 0.950 . S
C3879 C3875 1.430 . S
C3879 C3878 1.374 . S
C3880 C3877 1.499 . S
C3880 C3881 1.373 . S
C3880 C3882 1.389 . S
C3881 H3860 0.950 . S
C3881 C3880 1.373 . S
C3881 C3897 1.377 . S
C3882 C3880 1.389 . S
C3882 C3883 1.524 . S
C3882 C3896 1.377 . S
C3883 C3882 1.524 . S
C3883 C3884 1.397 . S
C3883 C3888 1.363 . S
C3884 H3861 0.950 . S
C3884 C3883 1.397 . S
C3884 C3885 1.334 . S
C3885 H3862 0.950 . S
C3885 C3884 1.334 . S
C3885 C3886 1.287 . S
C3886 C3885 1.287 . S
C3886 C3887 1.524 . S
C3886 H3905 0.913 . S
C3887 H3863 0.950 . S
C3887 C3886 1.524 . S
C3887 C3888 1.415 . S
C3888 H3864 0.950 . S
C3888 C3883 1.363 . S
C3888 C3887 1.415 . S
C3889 H3865 0.951 . S
C3889 C3890 1.366 . S
C3889 C3891 1.388 . S
C3890 C3889 1.366 . S
C3890 C3894 1.385 . S
C3891 H3866 0.951 . S
C3891 C3889 1.388 . S
C3891 C3892 1.366 . S
C3892 C3891 1.366 . S
C3892 C3893 1.414 . S
C3892 C3895 1.499 . S
C3893 H3867 0.950 . S
C3893 C3892 1.414 . S
C3893 C3894 1.374 . S
C3894 H3868 0.950 . S
C3894 C3890 1.385 . S
C3894 C3893 1.374 . S
C3895 C3892 1.499 . S
C3895 C3896 1.373 . S
C3895 C3897 1.389 . S
C3896 H3869 0.950 . S
C3896 C3882 1.377 . S
C3896 C3895 1.373 . S
C3897 C3881 1.377 . S
C3897 C3895 1.389 . S
C3897 C3898 1.524 . S
C3898 C3897 1.524 . S
C3898 C3899 1.397 . S
C3898 C3903 1.363 . S
C3899 H3870 0.950 . S
C3899 C3898 1.397 . S
C3899 C3900 1.334 . S
C3900 H3871 0.950 . S
C3900 C3899 1.334 . S
C3900 C3901 1.287 . S
C3901 C3900 1.287 . S
C3901 C3902 1.524 . S
C3901 H3904 0.999 . S
C3902 H3872 0.950 . S
C3902 C3901 1.524 . S
C3902 C3903 1.415 . S
C3903 H3873 0.950 . S
C3903 C3898 1.363 . S
C3903 C3902 1.415 . S
H3904 C3901 0.999 . S
H3905 C3886 0.913 . S
H3906 C3924 0.951 . S
H3907 C3926 0.951 . S
H3908 C3928 0.950 . S
H3909 C3929 0.950 . S
H3910 C3931 0.950 . S
H3911 C3934 0.950 . S
H3912 C3935 0.950 . S
H3913 C3937 0.950 . S
H3914 C3938 0.950 . S
H3915 C3939 0.951 . S
H3916 C3941 0.951 . S
H3917 C3943 0.950 . S
H3918 C3944 0.950 . S
H3919 C3946 0.950 . S
H3920 C3949 0.950 . S
H3921 C3950 0.950 . S
H3922 C3952 0.950 . S
H3923 C3953 0.950 . S
C3924 H3906 0.951 . S
C3924 C3925 1.366 . S
C3924 C3926 1.388 . S
C3925 C3924 1.366 . S
C3925 C3929 1.385 . S
C3926 H3907 0.951 . S
C3926 C3924 1.388 . S
C3926 C3927 1.366 . S
C3927 C3926 1.366 . S
C3927 C3928 1.414 . S
C3927 C3930 1.499 . S
C3928 H3908 0.950 . S
C3928 C3927 1.414 . S
C3928 C3929 1.374 . S
C3929 H3909 0.950 . S
C3929 C3925 1.385 . S
C3929 C3928 1.374 . S
C3930 C3927 1.499 . S
C3930 C3931 1.373 . S
C3930 C3932 1.389 . S
C3931 H3910 0.950 . S
C3931 C3930 1.373 . S
C3931 C3947 1.377 . S
C3932 C3930 1.389 . S
C3932 C3933 1.524 . S
C3932 C3946 1.377 . S
C3933 C3932 1.524 . S
C3933 C3934 1.397 . S
C3933 C3938 1.363 . S
C3934 H3911 0.950 . S
C3934 C3933 1.397 . S
C3934 C3935 1.334 . S
C3935 H3912 0.950 . S
C3935 C3934 1.334 . S
C3935 C3936 1.287 . S
C3936 C3935 1.287 . S
C3936 C3937 1.524 . S
C3936 H3955 0.913 . S
C3937 H3913 0.950 . S
C3937 C3936 1.524 . S
C3937 C3938 1.415 . S
C3938 H3914 0.950 . S
C3938 C3933 1.363 . S
C3938 C3937 1.415 . S
C3939 H3915 0.951 . S
C3939 C3940 1.366 . S
C3939 C3941 1.388 . S
C3940 C3939 1.366 . S
C3940 C3944 1.385 . S
C3941 H3916 0.951 . S
C3941 C3939 1.388 . S
C3941 C3942 1.366 . S
C3942 C3941 1.366 . S
C3942 C3943 1.414 . S
C3942 C3945 1.499 . S
C3943 H3917 0.950 . S
C3943 C3942 1.414 . S
C3943 C3944 1.374 . S
C3944 H3918 0.950 . S
C3944 C3940 1.385 . S
C3944 C3943 1.374 . S
C3945 C3942 1.499 . S
C3945 C3946 1.373 . S
C3945 C3947 1.389 . S
C3946 H3919 0.950 . S
C3946 C3932 1.377 . S
C3946 C3945 1.373 . S
C3947 C3931 1.377 . S
C3947 C3945 1.389 . S
C3947 C3948 1.524 . S
C3948 C3947 1.524 . S
C3948 C3949 1.397 . S
C3948 C3953 1.363 . S
C3949 H3920 0.950 . S
C3949 C3948 1.397 . S
C3949 C3950 1.334 . S
C3950 H3921 0.950 . S
C3950 C3949 1.334 . S
C3950 C3951 1.287 . S
C3951 C3950 1.287 . S
C3951 C3952 1.524 . S
C3951 H3954 0.999 . S
C3952 H3922 0.950 . S
C3952 C3951 1.524 . S
C3952 C3953 1.415 . S
C3953 H3923 0.950 . S
C3953 C3948 1.363 . S
C3953 C3952 1.415 . S
H3954 C3951 0.999 . S
H3955 C3936 0.913 . S
H3956 C3974 0.951 . S
H3957 C3976 0.951 . S
H3958 C3978 0.950 . S
H3959 C3979 0.950 . S
H3960 C3981 0.950 . S
H3961 C3984 0.950 . S
H3962 C3985 0.950 . S
H3963 C3987 0.950 . S
H3964 C3988 0.950 . S
H3965 C3989 0.951 . S
H3966 C3991 0.951 . S
H3967 C3993 0.950 . S
H3968 C3994 0.950 . S
H3969 C3996 0.950 . S
H3970 C3999 0.950 . S
H3971 C4000 0.950 . S
H3972 C4002 0.950 . S
H3973 C4003 0.950 . S
C3974 H3956 0.951 . S
C3974 C3975 1.366 . S
C3974 C3976 1.388 . S
C3975 C3974 1.366 . S
C3975 C3979 1.385 . S
C3976 H3957 0.951 . S
C3976 C3974 1.388 . S
C3976 C3977 1.366 . S
C3977 C3976 1.366 . S
C3977 C3978 1.414 . S
C3977 C3980 1.499 . S
C3978 H3958 0.950 . S
C3978 C3977 1.414 . S
C3978 C3979 1.374 . S
C3979 H3959 0.950 . S
C3979 C3975 1.385 . S
C3979 C3978 1.374 . S
C3980 C3977 1.499 . S
C3980 C3981 1.373 . S
C3980 C3982 1.389 . S
C3981 H3960 0.950 . S
C3981 C3980 1.373 . S
C3981 C3997 1.377 . S
C3982 C3980 1.389 . S
C3982 C3983 1.524 . S
C3982 C3996 1.377 . S
C3983 C3982 1.524 . S
C3983 C3984 1.397 . S
C3983 C3988 1.363 . S
C3984 H3961 0.950 . S
C3984 C3983 1.397 . S
C3984 C3985 1.334 . S
C3985 H3962 0.950 . S
C3985 C3984 1.334 . S
C3985 C3986 1.287 . S
C3986 C3985 1.287 . S
C3986 C3987 1.524 . S
C3986 H4005 0.913 . S
C3987 H3963 0.950 . S
C3987 C3986 1.524 . S
C3987 C3988 1.415 . S
C3988 H3964 0.950 . S
C3988 C3983 1.363 . S
C3988 C3987 1.415 . S
C3989 H3965 0.951 . S
C3989 C3990 1.366 . S
C3989 C3991 1.388 . S
C3990 C3989 1.366 . S
C3990 C3994 1.385 . S
C3991 H3966 0.951 . S
C3991 C3989 1.388 . S
C3991 C3992 1.366 . S
C3992 C3991 1.366 . S
C3992 C3993 1.414 . S
C3992 C3995 1.499 . S
C3993 H3967 0.950 . S
C3993 C3992 1.414 . S
C3993 C3994 1.374 . S
C3994 H3968 0.950 . S
C3994 C3990 1.385 . S
C3994 C3993 1.374 . S
C3995 C3992 1.499 . S
C3995 C3996 1.373 . S
C3995 C3997 1.389 . S
C3996 H3969 0.950 . S
C3996 C3982 1.377 . S
C3996 C3995 1.373 . S
C3997 C3981 1.377 . S
C3997 C3995 1.389 . S
C3997 C3998 1.524 . S
C3998 C3997 1.524 . S
C3998 C3999 1.397 . S
C3998 C4003 1.363 . S
C3999 H3970 0.950 . S
C3999 C3998 1.397 . S
C3999 C4000 1.334 . S
C4000 H3971 0.950 . S
C4000 C3999 1.334 . S
C4000 C4001 1.287 . S
C4001 C4000 1.287 . S
C4001 C4002 1.524 . S
C4001 H4004 0.999 . S
C4002 H3972 0.950 . S
C4002 C4001 1.524 . S
C4002 C4003 1.415 . S
C4003 H3973 0.950 . S
C4003 C3998 1.363 . S
C4003 C4002 1.415 . S
H4004 C4001 0.999 . S
H4005 C3986 0.913 . S
H4006 C4024 0.951 . S
H4007 C4026 0.951 . S
H4008 C4028 0.950 . S
H4009 C4029 0.950 . S
H4010 C4031 0.950 . S
H4011 C4034 0.950 . S
H4012 C4035 0.950 . S
H4013 C4037 0.950 . S
H4014 C4038 0.950 . S
H4015 C4039 0.951 . S
H4016 C4041 0.951 . S
H4017 C4043 0.950 . S
H4018 C4044 0.950 . S
H4019 C4046 0.950 . S
H4020 C4049 0.950 . S
H4021 C4050 0.950 . S
H4022 C4052 0.950 . S
H4023 C4053 0.950 . S
C4024 H4006 0.951 . S
C4024 C4025 1.366 . S
C4024 C4026 1.388 . S
C4025 C4024 1.366 . S
C4025 C4029 1.385 . S
C4026 H4007 0.951 . S
C4026 C4024 1.388 . S
C4026 C4027 1.366 . S
C4027 C4026 1.366 . S
C4027 C4028 1.414 . S
C4027 C4030 1.499 . S
C4028 H4008 0.950 . S
C4028 C4027 1.414 . S
C4028 C4029 1.374 . S
C4029 H4009 0.950 . S
C4029 C4025 1.385 . S
C4029 C4028 1.374 . S
C4030 C4027 1.499 . S
C4030 C4031 1.373 . S
C4030 C4032 1.389 . S
C4031 H4010 0.950 . S
C4031 C4030 1.373 . S
C4031 C4047 1.377 . S
C4032 C4030 1.389 . S
C4032 C4033 1.524 . S
C4032 C4046 1.377 . S
C4033 C4032 1.524 . S
C4033 C4034 1.397 . S
C4033 C4038 1.363 . S
C4034 H4011 0.950 . S
C4034 C4033 1.397 . S
C4034 C4035 1.334 . S
C4035 H4012 0.950 . S
C4035 C4034 1.334 . S
C4035 C4036 1.287 . S
C4036 C4035 1.287 . S
C4036 C4037 1.524 . S
C4036 H4055 0.913 . S
C4037 H4013 0.950 . S
C4037 C4036 1.524 . S
C4037 C4038 1.415 . S
C4038 H4014 0.950 . S
C4038 C4033 1.363 . S
C4038 C4037 1.415 . S
C4039 H4015 0.951 . S
C4039 C4040 1.366 . S
C4039 C4041 1.388 . S
C4040 C4039 1.366 . S
C4040 C4044 1.385 . S
C4041 H4016 0.951 . S
C4041 C4039 1.388 . S
C4041 C4042 1.366 . S
C4042 C4041 1.366 . S
C4042 C4043 1.414 . S
C4042 C4045 1.499 . S
C4043 H4017 0.950 . S
C4043 C4042 1.414 . S
C4043 C4044 1.374 . S
C4044 H4018 0.950 . S
C4044 C4040 1.385 . S
C4044 C4043 1.374 . S
C4045 C4042 1.499 . S
C4045 C4046 1.373 . S
C4045 C4047 1.389 . S
C4046 H4019 0.950 . S
C4046 C4032 1.377 . S
C4046 C4045 1.373 . S
C4047 C4031 1.377 . S
C4047 C4045 1.389 . S
C4047 C4048 1.524 . S
C4048 C4047 1.524 . S
C4048 C4049 1.397 . S
C4048 C4053 1.363 . S
C4049 H4020 0.950 . S
C4049 C4048 1.397 . S
C4049 C4050 1.334 . S
C4050 H4021 0.950 . S
C4050 C4049 1.334 . S
C4050 C4051 1.287 . S
C4051 C4050 1.287 . S
C4051 C4052 1.524 . S
C4051 H4054 0.999 . S
C4052 H4022 0.950 . S
C4052 C4051 1.524 . S
C4052 C4053 1.415 . S
C4053 H4023 0.950 . S
C4053 C4048 1.363 . S
C4053 C4052 1.415 . S
H4054 C4051 0.999 . S
H4055 C4036 0.913 . S
H4056 C4074 0.951 . S
H4057 C4076 0.951 . S
H4058 C4078 0.950 . S
H4059 C4079 0.950 . S
H4060 C4081 0.950 . S
H4061 C4084 0.950 . S
H4062 C4085 0.950 . S
H4063 C4087 0.950 . S
H4064 C4088 0.950 . S
H4065 C4089 0.951 . S
H4066 C4091 0.951 . S
H4067 C4093 0.950 . S
H4068 C4094 0.950 . S
H4069 C4096 0.950 . S
H4070 C4099 0.950 . S
H4071 C4100 0.950 . S
H4072 C4102 0.950 . S
H4073 C4103 0.950 . S
C4074 H4056 0.951 . S
C4074 C4075 1.366 . S
C4074 C4076 1.388 . S
C4075 C4074 1.366 . S
C4075 C4079 1.385 . S
C4076 H4057 0.951 . S
C4076 C4074 1.388 . S
C4076 C4077 1.366 . S
C4077 C4076 1.366 . S
C4077 C4078 1.414 . S
C4077 C4080 1.499 . S
C4078 H4058 0.950 . S
C4078 C4077 1.414 . S
C4078 C4079 1.374 . S
C4079 H4059 0.950 . S
C4079 C4075 1.385 . S
C4079 C4078 1.374 . S
C4080 C4077 1.499 . S
C4080 C4081 1.373 . S
C4080 C4082 1.389 . S
C4081 H4060 0.950 . S
C4081 C4080 1.373 . S
C4081 C4097 1.377 . S
C4082 C4080 1.389 . S
C4082 C4083 1.524 . S
C4082 C4096 1.377 . S
C4083 C4082 1.524 . S
C4083 C4084 1.397 . S
C4083 C4088 1.363 . S
C4084 H4061 0.950 . S
C4084 C4083 1.397 . S
C4084 C4085 1.334 . S
C4085 H4062 0.950 . S
C4085 C4084 1.334 . S
C4085 C4086 1.287 . S
C4086 C4085 1.287 . S
C4086 C4087 1.524 . S
C4086 H4105 0.913 . S
C4087 H4063 0.950 . S
C4087 C4086 1.524 . S
C4087 C4088 1.415 . S
C4088 H4064 0.950 . S
C4088 C4083 1.363 . S
C4088 C4087 1.415 . S
C4089 H4065 0.951 . S
C4089 C4090 1.366 . S
C4089 C4091 1.388 . S
C4090 C4089 1.366 . S
C4090 C4094 1.385 . S
C4091 H4066 0.951 . S
C4091 C4089 1.388 . S
C4091 C4092 1.366 . S
C4092 C4091 1.366 . S
C4092 C4093 1.414 . S
C4092 C4095 1.499 . S
C4093 H4067 0.950 . S
C4093 C4092 1.414 . S
C4093 C4094 1.374 . S
C4094 H4068 0.950 . S
C4094 C4090 1.385 . S
C4094 C4093 1.374 . S
C4095 C4092 1.499 . S
C4095 C4096 1.373 . S
C4095 C4097 1.389 . S
C4096 H4069 0.950 . S
C4096 C4082 1.377 . S
C4096 C4095 1.373 . S
C4097 C4081 1.377 . S
C4097 C4095 1.389 . S
C4097 C4098 1.524 . S
C4098 C4097 1.524 . S
C4098 C4099 1.397 . S
C4098 C4103 1.363 . S
C4099 H4070 0.950 . S
C4099 C4098 1.397 . S
C4099 C4100 1.334 . S
C4100 H4071 0.950 . S
C4100 C4099 1.334 . S
C4100 C4101 1.287 . S
C4101 C4100 1.287 . S
C4101 C4102 1.524 . S
C4101 H4104 0.999 . S
C4102 H4072 0.950 . S
C4102 C4101 1.524 . S
C4102 C4103 1.415 . S
C4103 H4073 0.950 . S
C4103 C4098 1.363 . S
C4103 C4102 1.415 . S
H4104 C4101 0.999 . S
H4105 C4086 0.913 . S
H4106 C4124 0.951 . S
H4107 C4126 0.951 . S
H4108 C4128 0.950 . S
H4109 C4129 0.950 . S
H4110 C4131 0.950 . S
H4111 C4134 0.950 . S
H4112 C4135 0.950 . S
H4113 C4137 0.950 . S
H4114 C4138 0.950 . S
H4115 C4139 0.951 . S
H4116 C4141 0.951 . S
H4117 C4143 0.950 . S
H4118 C4144 0.950 . S
H4119 C4146 0.950 . S
H4120 C4149 0.950 . S
H4121 C4150 0.950 . S
H4122 C4152 0.950 . S
H4123 C4153 0.950 . S
C4124 H4106 0.951 . S
C4124 C4125 1.366 . S
C4124 C4126 1.388 . S
C4125 C4124 1.366 . S
C4125 C4129 1.385 . S
C4126 H4107 0.951 . S
C4126 C4124 1.388 . S
C4126 C4127 1.366 . S
C4127 C4126 1.366 . S
C4127 C4128 1.414 . S
C4127 C4130 1.499 . S
C4128 H4108 0.950 . S
C4128 C4127 1.414 . S
C4128 C4129 1.374 . S
C4129 H4109 0.950 . S
C4129 C4125 1.385 . S
C4129 C4128 1.374 . S
C4130 C4127 1.499 . S
C4130 C4131 1.373 . S
C4130 C4132 1.389 . S
C4131 H4110 0.950 . S
C4131 C4130 1.373 . S
C4131 C4147 1.377 . S
C4132 C4130 1.389 . S
C4132 C4133 1.524 . S
C4132 C4146 1.377 . S
C4133 C4132 1.524 . S
C4133 C4134 1.397 . S
C4133 C4138 1.363 . S
C4134 H4111 0.950 . S
C4134 C4133 1.397 . S
C4134 C4135 1.334 . S
C4135 H4112 0.950 . S
C4135 C4134 1.334 . S
C4135 C4136 1.287 . S
C4136 C4135 1.287 . S
C4136 C4137 1.524 . S
C4136 H4155 0.913 . S
C4137 H4113 0.950 . S
C4137 C4136 1.524 . S
C4137 C4138 1.415 . S
C4138 H4114 0.950 . S
C4138 C4133 1.363 . S
C4138 C4137 1.415 . S
C4139 H4115 0.951 . S
C4139 C4140 1.366 . S
C4139 C4141 1.388 . S
C4140 C4139 1.366 . S
C4140 C4144 1.385 . S
C4141 H4116 0.951 . S
C4141 C4139 1.388 . S
C4141 C4142 1.366 . S
C4142 C4141 1.366 . S
C4142 C4143 1.414 . S
C4142 C4145 1.499 . S
C4143 H4117 0.950 . S
C4143 C4142 1.414 . S
C4143 C4144 1.374 . S
C4144 H4118 0.950 . S
C4144 C4140 1.385 . S
C4144 C4143 1.374 . S
C4145 C4142 1.499 . S
C4145 C4146 1.373 . S
C4145 C4147 1.389 . S
C4146 H4119 0.950 . S
C4146 C4132 1.377 . S
C4146 C4145 1.373 . S
C4147 C4131 1.377 . S
C4147 C4145 1.389 . S
C4147 C4148 1.524 . S
C4148 C4147 1.524 . S
C4148 C4149 1.397 . S
C4148 C4153 1.363 . S
C4149 H4120 0.950 . S
C4149 C4148 1.397 . S
C4149 C4150 1.334 . S
C4150 H4121 0.950 . S
C4150 C4149 1.334 . S
C4150 C4151 1.287 . S
C4151 C4150 1.287 . S
C4151 C4152 1.524 . S
C4151 H4154 0.999 . S
C4152 H4122 0.950 . S
C4152 C4151 1.524 . S
C4152 C4153 1.415 . S
C4153 H4123 0.950 . S
C4153 C4148 1.363 . S
C4153 C4152 1.415 . S
H4154 C4151 0.999 . S
H4155 C4136 0.913 . S
H4156 C4174 0.951 . S
H4157 C4176 0.951 . S
H4158 C4178 0.950 . S
H4159 C4179 0.950 . S
H4160 C4181 0.956 . S
H4161 C4184 0.948 . S
H4162 C4185 0.950 1_655 S
H4163 C4187 0.950 . S
H4164 C4188 0.950 . S
H4165 C4189 0.951 . S
H4166 C4191 0.951 1_556 S
H4167 C4193 0.950 . S
H4168 C4194 0.950 . S
H4169 C4196 0.950 . S
H4170 C4199 0.950 . S
H4171 C4200 0.950 . S
H4172 C4202 0.950 . S
H4173 C4203 0.950 . S
C4174 H4156 0.951 . S
C4174 C4175 1.366 . S
C4174 C4176 1.388 . S
C4175 C4174 1.366 . S
C4175 C4179 1.385 1_455 S
C4176 H4157 0.951 . S
C4176 C4174 1.388 . S
C4176 C4177 1.366 . S
C4177 C4176 1.366 . S
C4177 C4178 1.414 1_455 S
C4177 C4180 1.499 . S
C4178 H4158 0.950 . S
C4178 C4177 1.414 1_655 S
C4178 C4179 1.374 . S
C4179 H4159 0.950 . S
C4179 C4175 1.385 1_655 S
C4179 C4178 1.374 . S
C4180 C4177 1.499 . S
C4180 C4181 1.365 1_455 S
C4180 C4182 1.389 1_556 S
C4181 H4160 0.956 . S
C4181 C4180 1.365 1_655 S
C4181 C4197 1.379 1_655 S
C4182 C4180 1.389 1_554 S
C4182 C4183 1.524 . S
C4182 C4196 1.377 . S
C4183 C4182 1.524 . S
C4183 C4184 1.398 1_455 S
C4183 C4188 1.363 . S
C4184 H4161 0.948 . S
C4184 C4183 1.398 1_655 S
C4184 C4185 1.334 1_655 S
C4185 H4162 0.950 1_455 S
C4185 C4184 1.334 1_455 S
C4185 C4186 1.287 . S
C4186 C4185 1.287 . S
C4186 C4187 1.524 . S
C4186 H4205 0.913 . S
C4187 H4163 0.950 . S
C4187 C4186 1.524 . S
C4187 C4188 1.415 . S
C4188 H4164 0.950 . S
C4188 C4183 1.363 . S
C4188 C4187 1.415 . S
C4189 H4165 0.951 . S
C4189 C4190 1.366 1_655 S
C4189 C4191 1.388 . S
C4190 C4189 1.366 1_455 S
C4190 C4194 1.385 . S
C4191 H4166 0.951 1_554 S
C4191 C4189 1.388 . S
C4191 C4192 1.366 1_655 S
C4192 C4191 1.366 1_455 S
C4192 C4193 1.414 . S
C4192 C4195 1.499 1_554 S
C4193 H4167 0.950 . S
C4193 C4192 1.414 . S
C4193 C4194 1.374 . S
C4194 H4168 0.950 . S
C4194 C4190 1.385 . S
C4194 C4193 1.374 . S
C4195 C4192 1.499 1_556 S
C4195 C4196 1.373 1_556 S
C4195 C4197 1.389 . S
C4196 H4169 0.950 . S
C4196 C4182 1.377 . S
C4196 C4195 1.373 1_554 S
C4197 C4181 1.379 1_455 S
C4197 C4195 1.389 . S
C4197 C4198 1.524 1_455 S
C4198 C4197 1.524 1_655 S
C4198 C4199 1.397 1_655 S
C4198 C4203 1.363 . S
C4199 H4170 0.950 . S
C4199 C4198 1.397 1_455 S
C4199 C4200 1.334 . S
C4200 H4171 0.950 . S
C4200 C4199 1.334 . S
C4200 C4201 1.287 1_455 S
C4201 C4200 1.287 1_655 S
C4201 C4202 1.524 . S
C4201 H4204 0.999 . S
C4202 H4172 0.950 . S
C4202 C4201 1.524 . S
C4202 C4203 1.415 . S
C4203 H4173 0.950 . S
C4203 C4198 1.363 . S
C4203 C4202 1.415 . S
H4204 C4201 0.999 . S
H4205 C4186 0.913 . S
H4206 C4224 0.951 . S
H4207 C4226 0.951 . S
H4208 C4228 0.950 . S
H4209 C4229 0.950 . S
H4210 C4231 0.950 . S
H4211 C4234 0.950 . S
H4212 C4235 0.950 . S
H4213 C4237 0.950 . S
H4214 C4238 0.950 . S
H4215 C4239 0.951 . S
H4216 C4241 0.951 . S
H4217 C4243 0.950 . S
H4218 C4244 0.950 . S
H4219 C4246 0.950 . S
H4220 C4249 0.950 . S
H4221 C4250 0.950 . S
H4222 C4252 0.950 . S
H4223 C4253 0.950 . S
C4224 H4206 0.951 . S
C4224 C4225 1.412 . S
C4224 C4226 1.388 . S
C4225 C4224 1.412 . S
C4225 C4229 1.380 1_655 S
C4226 H4207 0.951 . S
C4226 C4224 1.388 . S
C4226 C4227 1.366 . S
C4227 C4226 1.366 . S
C4227 C4228 1.414 . S
C4227 C4230 1.499 . S
C4228 H4208 0.950 . S
C4228 C4227 1.414 . S
C4228 C4229 1.374 1_655 S
C4229 H4209 0.950 . S
C4229 C4225 1.380 1_455 S
C4229 C4228 1.374 1_455 S
C4230 C4227 1.499 . S
C4230 C4231 1.373 . S
C4230 C4232 1.389 . S
C4231 H4210 0.950 . S
C4231 C4230 1.373 . S
C4231 C4247 1.377 . S
C4232 C4230 1.389 . S
C4232 C4233 1.524 . S
C4232 C4246 1.377 . S
C4233 C4232 1.524 . S
C4233 C4234 1.397 . S
C4233 C4238 1.363 . S
C4234 H4211 0.950 . S
C4234 C4233 1.397 . S
C4234 C4235 1.334 . S
C4235 H4212 0.950 . S
C4235 C4234 1.334 . S
C4235 C4236 1.287 . S
C4236 C4235 1.287 . S
C4236 C4237 1.524 . S
C4236 H4255 0.913 . S
C4237 H4213 0.950 . S
C4237 C4236 1.524 . S
C4237 C4238 1.415 . S
C4238 H4214 0.950 . S
C4238 C4233 1.363 . S
C4238 C4237 1.415 . S
C4239 H4215 0.951 . S
C4239 C4240 1.366 . S
C4239 C4241 1.388 . S
C4240 C4239 1.366 . S
C4240 C4244 1.385 . S
C4241 H4216 0.951 . S
C4241 C4239 1.388 . S
C4241 C4242 1.366 . S
C4242 C4241 1.366 . S
C4242 C4243 1.414 . S
C4242 C4245 1.499 . S
C4243 H4217 0.950 . S
C4243 C4242 1.414 . S
C4243 C4244 1.374 . S
C4244 H4218 0.950 . S
C4244 C4240 1.385 . S
C4244 C4243 1.374 . S
C4245 C4242 1.499 . S
C4245 C4246 1.373 . S
C4245 C4247 1.389 . S
C4246 H4219 0.950 . S
C4246 C4232 1.377 . S
C4246 C4245 1.373 . S
C4247 C4231 1.377 . S
C4247 C4245 1.389 . S
C4247 C4248 1.524 . S
C4248 C4247 1.524 . S
C4248 C4249 1.397 . S
C4248 C4253 1.363 . S
C4249 H4220 0.950 . S
C4249 C4248 1.397 . S
C4249 C4250 1.334 . S
C4250 H4221 0.950 . S
C4250 C4249 1.334 . S
C4250 C4251 1.287 . S
C4251 C4250 1.287 . S
C4251 C4252 1.524 . S
C4251 H4254 0.999 . S
C4252 H4222 0.950 . S
C4252 C4251 1.524 . S
C4252 C4253 1.415 . S
C4253 H4223 0.950 . S
C4253 C4248 1.363 . S
C4253 C4252 1.415 . S
H4254 C4251 0.999 . S
H4255 C4236 0.913 . S
H4256 C4274 0.951 . S
H4257 C4276 0.951 . S
H4258 C4278 0.950 . S
H4259 C4279 0.950 . S
H4260 C4281 0.950 . S
H4261 C4284 0.950 . S
H4262 C4285 0.950 . S
H4263 C4287 0.950 . S
H4264 C4288 0.950 . S
H4265 C4289 0.951 . S
H4266 C4291 0.951 . S
H4267 C4293 0.950 . S
H4268 C4294 0.950 . S
H4269 C4296 0.950 . S
H4270 C4299 0.950 . S
H4271 C4300 0.950 . S
H4272 C4302 0.950 . S
H4273 C4303 0.950 . S
C4274 H4256 0.951 . S
C4274 C4275 1.366 . S
C4274 C4276 1.388 . S
C4275 C4274 1.366 . S
C4275 C4279 1.385 . S
C4276 H4257 0.951 . S
C4276 C4274 1.388 . S
C4276 C4277 1.366 . S
C4277 C4276 1.366 . S
C4277 C4278 1.414 . S
C4277 C4280 1.499 . S
C4278 H4258 0.950 . S
C4278 C4277 1.414 . S
C4278 C4279 1.374 . S
C4279 H4259 0.950 . S
C4279 C4275 1.385 . S
C4279 C4278 1.374 . S
C4280 C4277 1.499 . S
C4280 C4281 1.373 . S
C4280 C4282 1.389 . S
C4281 H4260 0.950 . S
C4281 C4280 1.373 . S
C4281 C4297 1.377 . S
C4282 C4280 1.389 . S
C4282 C4283 1.524 . S
C4282 C4296 1.377 . S
C4283 C4282 1.524 . S
C4283 C4284 1.397 . S
C4283 C4288 1.363 . S
C4284 H4261 0.950 . S
C4284 C4283 1.397 . S
C4284 C4285 1.334 . S
C4285 H4262 0.950 . S
C4285 C4284 1.334 . S
C4285 C4286 1.287 . S
C4286 C4285 1.287 . S
C4286 C4287 1.524 . S
C4286 H4305 0.913 . S
C4287 H4263 0.950 . S
C4287 C4286 1.524 . S
C4287 C4288 1.415 . S
C4288 H4264 0.950 . S
C4288 C4283 1.363 . S
C4288 C4287 1.415 . S
C4289 H4265 0.951 . S
C4289 C4290 1.366 . S
C4289 C4291 1.388 . S
C4290 C4289 1.366 . S
C4290 C4294 1.385 . S
C4291 H4266 0.951 . S
C4291 C4289 1.388 . S
C4291 C4292 1.366 . S
C4292 C4291 1.366 . S
C4292 C4293 1.414 . S
C4292 C4295 1.499 . S
C4293 H4267 0.950 . S
C4293 C4292 1.414 . S
C4293 C4294 1.374 . S
C4294 H4268 0.950 . S
C4294 C4290 1.385 . S
C4294 C4293 1.374 . S
C4295 C4292 1.499 . S
C4295 C4296 1.373 . S
C4295 C4297 1.389 . S
C4296 H4269 0.950 . S
C4296 C4282 1.377 . S
C4296 C4295 1.373 . S
C4297 C4281 1.377 . S
C4297 C4295 1.389 . S
C4297 C4298 1.524 . S
C4298 C4297 1.524 . S
C4298 C4299 1.397 . S
C4298 C4303 1.363 . S
C4299 H4270 0.950 . S
C4299 C4298 1.397 . S
C4299 C4300 1.334 . S
C4300 H4271 0.950 . S
C4300 C4299 1.334 . S
C4300 C4301 1.287 . S
C4301 C4300 1.287 . S
C4301 C4302 1.524 . S
C4301 H4304 0.999 . S
C4302 H4272 0.950 . S
C4302 C4301 1.524 . S
C4302 C4303 1.415 . S
C4303 H4273 0.950 . S
C4303 C4298 1.363 . S
C4303 C4302 1.415 . S
H4304 C4301 0.999 . S
H4305 C4286 0.913 . S
H4306 C4324 0.951 . S
H4307 C4326 0.951 . S
H4308 C4328 0.950 . S
H4309 C4329 0.950 . S
H4310 C4331 0.950 . S
H4311 C4334 0.950 . S
H4312 C4335 0.950 . S
H4313 C4337 0.950 . S
H4314 C4338 0.950 . S
H4315 C4339 0.951 . S
H4316 C4341 0.951 . S
H4317 C4343 0.950 . S
H4318 C4344 0.950 . S
H4319 C4346 0.950 . S
H4320 C4349 0.950 . S
H4321 C4350 0.950 . S
H4322 C4352 0.950 . S
H4323 C4353 0.950 . S
C4324 H4306 0.951 . S
C4324 C4325 1.366 . S
C4324 C4326 1.388 . S
C4325 C4324 1.366 . S
C4325 C4329 1.385 . S
C4326 H4307 0.951 . S
C4326 C4324 1.388 . S
C4326 C4327 1.366 . S
C4327 C4326 1.366 . S
C4327 C4328 1.414 . S
C4327 C4330 1.499 . S
C4328 H4308 0.950 . S
C4328 C4327 1.414 . S
C4328 C4329 1.374 . S
C4329 H4309 0.950 . S
C4329 C4325 1.385 . S
C4329 C4328 1.374 . S
C4330 C4327 1.499 . S
C4330 C4331 1.373 . S
C4330 C4332 1.389 . S
C4331 H4310 0.950 . S
C4331 C4330 1.373 . S
C4331 C4347 1.377 . S
C4332 C4330 1.389 . S
C4332 C4333 1.524 . S
C4332 C4346 1.377 . S
C4333 C4332 1.524 . S
C4333 C4334 1.397 . S
C4333 C4338 1.363 . S
C4334 H4311 0.950 . S
C4334 C4333 1.397 . S
C4334 C4335 1.334 . S
C4335 H4312 0.950 . S
C4335 C4334 1.334 . S
C4335 C4336 1.287 . S
C4336 C4335 1.287 . S
C4336 C4337 1.524 . S
C4336 H4355 0.913 . S
C4337 H4313 0.950 . S
C4337 C4336 1.524 . S
C4337 C4338 1.415 . S
C4338 H4314 0.950 . S
C4338 C4333 1.363 . S
C4338 C4337 1.415 . S
C4339 H4315 0.951 . S
C4339 C4340 1.366 . S
C4339 C4341 1.388 . S
C4340 C4339 1.366 . S
C4340 C4344 1.385 . S
C4341 H4316 0.951 . S
C4341 C4339 1.388 . S
C4341 C4342 1.366 . S
C4342 C4341 1.366 . S
C4342 C4343 1.414 . S
C4342 C4345 1.499 . S
C4343 H4317 0.950 . S
C4343 C4342 1.414 . S
C4343 C4344 1.374 . S
C4344 H4318 0.950 . S
C4344 C4340 1.385 . S
C4344 C4343 1.374 . S
C4345 C4342 1.499 . S
C4345 C4346 1.373 . S
C4345 C4347 1.389 . S
C4346 H4319 0.950 . S
C4346 C4332 1.377 . S
C4346 C4345 1.373 . S
C4347 C4331 1.377 . S
C4347 C4345 1.389 . S
C4347 C4348 1.524 . S
C4348 C4347 1.524 . S
C4348 C4349 1.397 . S
C4348 C4353 1.363 . S
C4349 H4320 0.950 . S
C4349 C4348 1.397 . S
C4349 C4350 1.334 . S
C4350 H4321 0.950 . S
C4350 C4349 1.334 . S
C4350 C4351 1.287 . S
C4351 C4350 1.287 . S
C4351 C4352 1.524 . S
C4351 H4354 0.999 . S
C4352 H4322 0.950 . S
C4352 C4351 1.524 . S
C4352 C4353 1.415 . S
C4353 H4323 0.950 . S
C4353 C4348 1.363 . S
C4353 C4352 1.415 . S
H4354 C4351 0.999 . S
H4355 C4336 0.913 . S
H4356 C4374 0.951 . S
H4357 C4376 0.951 . S
H4358 C4378 0.941 1_655 S
H4359 C4379 0.947 1_655 S
H4360 C4381 0.950 . S
H4361 C4384 0.950 . S
H4362 C4385 0.950 . S
H4363 C4387 0.950 . S
H4364 C4388 0.950 . S
H4365 C4389 0.946 1_655 S
H4366 C4391 0.951 1_655 S
H4367 C4393 0.950 . S
H4368 C4394 0.950 . S
H4369 C4396 0.950 . S
H4370 C4399 0.950 . S
H4371 C4400 0.950 . S
H4372 C4402 0.950 . S
H4373 C4403 0.950 . S
C4374 H4356 0.951 . S
C4374 C4375 1.366 . S
C4374 C4376 1.388 . S
C4375 C4374 1.366 . S
C4375 C4379 1.386 . S
C4376 H4357 0.951 . S
C4376 C4374 1.388 . S
C4376 C4377 1.366 . S
C4377 C4376 1.366 . S
C4377 C4378 1.437 . S
C4377 C4380 1.499 . S
C4378 H4358 0.941 1_455 S
C4378 C4377 1.437 . S
C4378 C4379 1.364 . S
C4379 H4359 0.947 1_455 S
C4379 C4375 1.386 . S
C4379 C4378 1.364 . S
C4380 C4377 1.499 . S
C4380 C4381 1.373 1_455 S
C4380 C4382 1.389 . S
C4381 H4360 0.950 . S
C4381 C4380 1.373 1_655 S
C4381 C4397 1.377 . S
C4382 C4380 1.389 . S
C4382 C4383 1.524 . S
C4382 C4396 1.377 . S
C4383 C4382 1.524 . S
C4383 C4384 1.397 . S
C4383 C4388 1.363 . S
C4384 H4361 0.950 . S
C4384 C4383 1.397 . S
C4384 C4385 1.334 . S
C4385 H4362 0.950 . S
C4385 C4384 1.334 . S
C4385 C4386 1.287 . S
C4386 C4385 1.287 . S
C4386 C4387 1.524 . S
C4386 H4405 0.913 . S
C4387 H4363 0.950 . S
C4387 C4386 1.524 . S
C4387 C4388 1.415 . S
C4388 H4364 0.950 . S
C4388 C4383 1.363 . S
C4388 C4387 1.415 . S
C4389 H4365 0.946 1_455 S
C4389 C4390 1.366 . S
C4389 C4391 1.388 . S
C4390 C4389 1.366 . S
C4390 C4394 1.385 . S
C4391 H4366 0.951 1_455 S
C4391 C4389 1.388 . S
C4391 C4392 1.366 . S
C4392 C4391 1.366 . S
C4392 C4393 1.414 . S
C4392 C4395 1.499 . S
C4393 H4367 0.950 . S
C4393 C4392 1.414 . S
C4393 C4394 1.374 . S
C4394 H4368 0.950 . S
C4394 C4390 1.385 . S
C4394 C4393 1.374 . S
C4395 C4392 1.499 . S
C4395 C4396 1.373 . S
C4395 C4397 1.389 1_455 S
C4396 H4369 0.950 . S
C4396 C4382 1.377 . S
C4396 C4395 1.373 . S
C4397 C4381 1.377 . S
C4397 C4395 1.389 1_655 S
C4397 C4398 1.524 . S
C4398 C4397 1.524 . S
C4398 C4399 1.397 . S
C4398 C4403 1.363 . S
C4399 H4370 0.950 . S
C4399 C4398 1.397 . S
C4399 C4400 1.334 . S
C4400 H4371 0.950 . S
C4400 C4399 1.334 . S
C4400 C4401 1.287 . S
C4401 C4400 1.287 . S
C4401 C4402 1.524 . S
C4401 H4404 0.999 . S
C4402 H4372 0.950 . S
C4402 C4401 1.524 . S
C4402 C4403 1.415 . S
C4403 H4373 0.950 . S
C4403 C4398 1.363 . S
C4403 C4402 1.415 . S
H4404 C4401 0.999 . S
H4405 C4386 0.913 . S
H4406 C4424 0.951 . S
H4407 C4426 0.951 . S
H4408 C4428 0.950 . S
H4409 C4429 0.950 . S
H4410 C4431 0.950 . S
H4411 C4434 0.950 . S
H4412 C4435 0.950 . S
H4413 C4437 0.950 . S
H4414 C4438 0.950 . S
H4415 C4439 0.951 . S
H4416 C4441 0.951 . S
H4417 C4443 0.950 . S
H4418 C4444 0.950 . S
H4419 C4446 0.950 . S
H4420 C4449 0.950 . S
H4421 C4450 0.950 . S
H4422 C4452 0.950 . S
H4423 C4453 0.950 . S
C4424 H4406 0.951 . S
C4424 C4425 1.366 . S
C4424 C4426 1.388 . S
C4425 C4424 1.366 . S
C4425 C4429 1.385 . S
C4426 H4407 0.951 . S
C4426 C4424 1.388 . S
C4426 C4427 1.366 . S
C4427 C4426 1.366 . S
C4427 C4428 1.414 . S
C4427 C4430 1.499 . S
C4428 H4408 0.950 . S
C4428 C4427 1.414 . S
C4428 C4429 1.374 . S
C4429 H4409 0.950 . S
C4429 C4425 1.385 . S
C4429 C4428 1.374 . S
C4430 C4427 1.499 . S
C4430 C4431 1.373 . S
C4430 C4432 1.389 . S
C4431 H4410 0.950 . S
C4431 C4430 1.373 . S
C4431 C4447 1.377 . S
C4432 C4430 1.389 . S
C4432 C4433 1.524 . S
C4432 C4446 1.377 . S
C4433 C4432 1.524 . S
C4433 C4434 1.397 . S
C4433 C4438 1.363 . S
C4434 H4411 0.950 . S
C4434 C4433 1.397 . S
C4434 C4435 1.334 . S
C4435 H4412 0.950 . S
C4435 C4434 1.334 . S
C4435 C4436 1.287 . S
C4436 C4435 1.287 . S
C4436 C4437 1.524 . S
C4436 H4455 0.913 . S
C4437 H4413 0.950 . S
C4437 C4436 1.524 . S
C4437 C4438 1.415 . S
C4438 H4414 0.950 . S
C4438 C4433 1.363 . S
C4438 C4437 1.415 . S
C4439 H4415 0.951 . S
C4439 C4440 1.366 . S
C4439 C4441 1.388 . S
C4440 C4439 1.366 . S
C4440 C4444 1.385 . S
C4441 H4416 0.951 . S
C4441 C4439 1.388 . S
C4441 C4442 1.366 . S
C4442 C4441 1.366 . S
C4442 C4443 1.414 . S
C4442 C4445 1.499 . S
C4443 H4417 0.950 . S
C4443 C4442 1.414 . S
C4443 C4444 1.374 . S
C4444 H4418 0.950 . S
C4444 C4440 1.385 . S
C4444 C4443 1.374 . S
C4445 C4442 1.499 . S
C4445 C4446 1.373 . S
C4445 C4447 1.389 . S
C4446 H4419 0.950 . S
C4446 C4432 1.377 . S
C4446 C4445 1.373 . S
C4447 C4431 1.377 . S
C4447 C4445 1.389 . S
C4447 C4448 1.524 . S
C4448 C4447 1.524 . S
C4448 C4449 1.397 . S
C4448 C4453 1.363 . S
C4449 H4420 0.950 . S
C4449 C4448 1.397 . S
C4449 C4450 1.334 . S
C4450 H4421 0.950 . S
C4450 C4449 1.334 . S
C4450 C4451 1.287 . S
C4451 C4450 1.287 . S
C4451 C4452 1.524 . S
C4451 H4454 0.999 . S
C4452 H4422 0.950 . S
C4452 C4451 1.524 . S
C4452 C4453 1.415 . S
C4453 H4423 0.950 . S
C4453 C4448 1.363 . S
C4453 C4452 1.415 . S
H4454 C4451 0.999 . S
H4455 C4436 0.913 . S
H4456 C4474 0.951 . S
H4457 C4476 0.951 . S
H4458 C4478 0.950 . S
H4459 C4479 0.950 . S
H4460 C4481 0.950 . S
H4461 C4484 0.950 . S
H4462 C4485 0.950 . S
H4463 C4487 0.950 . S
H4464 C4488 0.950 . S
H4465 C4489 0.951 . S
H4466 C4491 0.951 . S
H4467 C4493 0.950 . S
H4468 C4494 0.950 . S
H4469 C4496 0.950 . S
H4470 C4499 0.950 . S
H4471 C4500 0.950 . S
H4472 C4502 0.950 . S
H4473 C4503 0.950 . S
C4474 H4456 0.951 . S
C4474 C4475 1.366 . S
C4474 C4476 1.388 . S
C4475 C4474 1.366 . S
C4475 C4479 1.385 . S
C4476 H4457 0.951 . S
C4476 C4474 1.388 . S
C4476 C4477 1.366 . S
C4477 C4476 1.366 . S
C4477 C4478 1.414 . S
C4477 C4480 1.499 . S
C4478 H4458 0.950 . S
C4478 C4477 1.414 . S
C4478 C4479 1.374 . S
C4479 H4459 0.950 . S
C4479 C4475 1.385 . S
C4479 C4478 1.374 . S
C4480 C4477 1.499 . S
C4480 C4481 1.373 . S
C4480 C4482 1.389 . S
C4481 H4460 0.950 . S
C4481 C4480 1.373 . S
C4481 C4497 1.377 . S
C4482 C4480 1.389 . S
C4482 C4483 1.524 . S
C4482 C4496 1.377 . S
C4483 C4482 1.524 . S
C4483 C4484 1.397 . S
C4483 C4488 1.363 . S
C4484 H4461 0.950 . S
C4484 C4483 1.397 . S
C4484 C4485 1.334 . S
C4485 H4462 0.950 . S
C4485 C4484 1.334 . S
C4485 C4486 1.287 . S
C4486 C4485 1.287 . S
C4486 C4487 1.524 . S
C4486 H4505 0.913 . S
C4487 H4463 0.950 . S
C4487 C4486 1.524 . S
C4487 C4488 1.415 . S
C4488 H4464 0.950 . S
C4488 C4483 1.363 . S
C4488 C4487 1.415 . S
C4489 H4465 0.951 . S
C4489 C4490 1.366 . S
C4489 C4491 1.388 . S
C4490 C4489 1.366 . S
C4490 C4494 1.385 . S
C4491 H4466 0.951 . S
C4491 C4489 1.388 . S
C4491 C4492 1.366 . S
C4492 C4491 1.366 . S
C4492 C4493 1.414 . S
C4492 C4495 1.499 . S
C4493 H4467 0.950 . S
C4493 C4492 1.414 . S
C4493 C4494 1.374 . S
C4494 H4468 0.950 . S
C4494 C4490 1.385 . S
C4494 C4493 1.374 . S
C4495 C4492 1.499 . S
C4495 C4496 1.373 . S
C4495 C4497 1.389 . S
C4496 H4469 0.950 . S
C4496 C4482 1.377 . S
C4496 C4495 1.373 . S
C4497 C4481 1.377 . S
C4497 C4495 1.389 . S
C4497 C4498 1.524 . S
C4498 C4497 1.524 . S
C4498 C4499 1.397 . S
C4498 C4503 1.363 . S
C4499 H4470 0.950 . S
C4499 C4498 1.397 . S
C4499 C4500 1.334 . S
C4500 H4471 0.950 . S
C4500 C4499 1.334 . S
C4500 C4501 1.287 . S
C4501 C4500 1.287 . S
C4501 C4502 1.524 . S
C4501 H4504 0.999 . S
C4502 H4472 0.950 . S
C4502 C4501 1.524 . S
C4502 C4503 1.415 . S
C4503 H4473 0.950 . S
C4503 C4498 1.363 . S
C4503 C4502 1.415 . S
H4504 C4501 0.999 . S
H4505 C4486 0.913 . S
H4506 C4524 0.951 . S
H4507 C4526 0.951 . S
H4508 C4528 0.950 . S
H4509 C4529 0.950 . S
H4510 C4531 0.950 . S
H4511 C4534 0.950 . S
H4512 C4535 0.950 . S
H4513 C4537 0.950 . S
H4514 C4538 0.950 . S
H4515 C4539 0.951 . S
H4516 C4541 0.951 . S
H4517 C4543 0.950 . S
H4518 C4544 0.950 . S
H4519 C4546 0.950 . S
H4520 C4549 0.950 . S
H4521 C4550 0.950 . S
H4522 C4552 0.950 . S
H4523 C4553 0.950 . S
C4524 H4506 0.951 . S
C4524 C4525 1.366 . S
C4524 C4526 1.388 1_554 S
C4525 C4524 1.366 . S
C4525 C4529 1.385 1_554 S
C4526 H4507 0.951 . S
C4526 C4524 1.388 1_556 S
C4526 C4527 1.366 . S
C4527 C4526 1.366 . S
C4527 C4528 1.414 . S
C4527 C4530 1.499 . S
C4528 H4508 0.950 . S
C4528 C4527 1.414 . S
C4528 C4529 1.374 . S
C4529 H4509 0.950 . S
C4529 C4525 1.385 1_556 S
C4529 C4528 1.374 . S
C4530 C4527 1.499 . S
C4530 C4531 1.373 . S
C4530 C4532 1.389 . S
C4531 H4510 0.950 . S
C4531 C4530 1.373 . S
C4531 C4547 1.377 . S
C4532 C4530 1.389 . S
C4532 C4533 1.524 . S
C4532 C4546 1.377 . S
C4533 C4532 1.524 . S
C4533 C4534 1.397 . S
C4533 C4538 1.363 . S
C4534 H4511 0.950 . S
C4534 C4533 1.397 . S
C4534 C4535 1.334 . S
C4535 H4512 0.950 . S
C4535 C4534 1.334 . S
C4535 C4536 1.287 . S
C4536 C4535 1.287 . S
C4536 C4537 1.524 . S
C4536 H4555 0.913 . S
C4537 H4513 0.950 . S
C4537 C4536 1.524 . S
C4537 C4538 1.415 . S
C4538 H4514 0.950 . S
C4538 C4533 1.363 . S
C4538 C4537 1.415 . S
C4539 H4515 0.951 . S
C4539 C4540 1.366 . S
C4539 C4541 1.388 . S
C4540 C4539 1.366 . S
C4540 C4544 1.385 . S
C4541 H4516 0.951 . S
C4541 C4539 1.388 . S
C4541 C4542 1.366 . S
C4542 C4541 1.366 . S
C4542 C4543 1.414 . S
C4542 C4545 1.499 . S
C4543 H4517 0.950 . S
C4543 C4542 1.414 . S
C4543 C4544 1.374 . S
C4544 H4518 0.950 . S
C4544 C4540 1.385 . S
C4544 C4543 1.374 . S
C4545 C4542 1.499 . S
C4545 C4546 1.373 . S
C4545 C4547 1.389 . S
C4546 H4519 0.950 . S
C4546 C4532 1.377 . S
C4546 C4545 1.373 . S
C4547 C4531 1.377 . S
C4547 C4545 1.389 . S
C4547 C4548 1.524 . S
C4548 C4547 1.524 . S
C4548 C4549 1.397 . S
C4548 C4553 1.363 . S
C4549 H4520 0.950 . S
C4549 C4548 1.397 . S
C4549 C4550 1.334 . S
C4550 H4521 0.950 . S
C4550 C4549 1.334 . S
C4550 C4551 1.287 . S
C4551 C4550 1.287 . S
C4551 C4552 1.524 . S
C4551 H4554 0.999 . S
C4552 H4522 0.950 . S
C4552 C4551 1.524 . S
C4552 C4553 1.415 . S
C4553 H4523 0.950 . S
C4553 C4548 1.363 . S
C4553 C4552 1.415 . S
H4554 C4551 0.999 . S
H4555 C4536 0.913 . S
H4556 C4574 0.951 . S
H4557 C4576 0.951 . S
H4558 C4578 0.950 . S
H4559 C4579 0.950 . S
H4560 C4581 0.950 . S
H4561 C4584 0.950 . S
H4562 C4585 0.950 . S
H4563 C4587 0.950 . S
H4564 C4588 0.950 . S
H4565 C4589 0.951 . S
H4566 C4591 0.951 . S
H4567 C4593 0.950 . S
H4568 C4594 0.950 . S
H4569 C4596 0.950 . S
H4570 C4599 0.950 . S
H4571 C4600 0.950 . S
H4572 C4602 0.950 . S
H4573 C4603 0.950 . S
C4574 H4556 0.951 . S
C4574 C4575 1.366 . S
C4574 C4576 1.388 . S
C4575 C4574 1.366 . S
C4575 C4579 1.385 . S
C4576 H4557 0.951 . S
C4576 C4574 1.388 . S
C4576 C4577 1.366 . S
C4577 C4576 1.366 . S
C4577 C4578 1.414 . S
C4577 C4580 1.499 . S
C4578 H4558 0.950 . S
C4578 C4577 1.414 . S
C4578 C4579 1.374 . S
C4579 H4559 0.950 . S
C4579 C4575 1.385 . S
C4579 C4578 1.374 . S
C4580 C4577 1.499 . S
C4580 C4581 1.373 . S
C4580 C4582 1.389 . S
C4581 H4560 0.950 . S
C4581 C4580 1.373 . S
C4581 C4597 1.377 . S
C4582 C4580 1.389 . S
C4582 C4583 1.524 . S
C4582 C4596 1.377 . S
C4583 C4582 1.524 . S
C4583 C4584 1.397 . S
C4583 C4588 1.363 . S
C4584 H4561 0.950 . S
C4584 C4583 1.397 . S
C4584 C4585 1.334 . S
C4585 H4562 0.950 . S
C4585 C4584 1.334 . S
C4585 C4586 1.287 . S
C4586 C4585 1.287 . S
C4586 C4587 1.524 . S
C4586 H4605 0.913 . S
C4587 H4563 0.950 . S
C4587 C4586 1.524 . S
C4587 C4588 1.415 . S
C4588 H4564 0.950 . S
C4588 C4583 1.363 . S
C4588 C4587 1.415 . S
C4589 H4565 0.951 . S
C4589 C4590 1.366 . S
C4589 C4591 1.388 . S
C4590 C4589 1.366 . S
C4590 C4594 1.385 . S
C4591 H4566 0.951 . S
C4591 C4589 1.388 . S
C4591 C4592 1.366 . S
C4592 C4591 1.366 . S
C4592 C4593 1.414 . S
C4592 C4595 1.499 . S
C4593 H4567 0.950 . S
C4593 C4592 1.414 . S
C4593 C4594 1.374 . S
C4594 H4568 0.950 . S
C4594 C4590 1.385 . S
C4594 C4593 1.374 . S
C4595 C4592 1.499 . S
C4595 C4596 1.373 . S
C4595 C4597 1.389 . S
C4596 H4569 0.950 . S
C4596 C4582 1.377 . S
C4596 C4595 1.373 . S
C4597 C4581 1.377 . S
C4597 C4595 1.389 . S
C4597 C4598 1.524 . S
C4598 C4597 1.524 . S
C4598 C4599 1.397 . S
C4598 C4603 1.363 . S
C4599 H4570 0.950 . S
C4599 C4598 1.397 . S
C4599 C4600 1.334 . S
C4600 H4571 0.950 . S
C4600 C4599 1.334 . S
C4600 C4601 1.287 . S
C4601 C4600 1.287 . S
C4601 C4602 1.524 . S
C4601 H4604 0.999 . S
C4602 H4572 0.950 . S
C4602 C4601 1.524 . S
C4602 C4603 1.415 . S
C4603 H4573 0.950 . S
C4603 C4598 1.363 . S
C4603 C4602 1.415 . S
H4604 C4601 0.999 . S
H4605 C4586 0.913 . S
H4606 C4624 0.951 . S
H4607 C4626 0.951 . S
H4608 C4628 0.950 . S
H4609 C4629 0.950 . S
H4610 C4631 0.950 . S
H4611 C4634 0.950 . S
H4612 C4635 0.950 . S
H4613 C4637 0.950 . S
H4614 C4638 0.950 . S
H4615 C4639 0.951 . S
H4616 C4641 0.951 . S
H4617 C4643 0.950 . S
H4618 C4644 0.950 . S
H4619 C4646 0.950 . S
H4620 C4649 0.950 . S
H4621 C4650 0.950 . S
H4622 C4652 0.950 . S
H4623 C4653 0.950 . S
C4624 H4606 0.951 . S
C4624 C4625 1.366 . S
C4624 C4626 1.388 . S
C4625 C4624 1.366 . S
C4625 C4629 1.385 . S
C4626 H4607 0.951 . S
C4626 C4624 1.388 . S
C4626 C4627 1.366 . S
C4627 C4626 1.366 . S
C4627 C4628 1.414 . S
C4627 C4630 1.499 . S
C4628 H4608 0.950 . S
C4628 C4627 1.414 . S
C4628 C4629 1.374 . S
C4629 H4609 0.950 . S
C4629 C4625 1.385 . S
C4629 C4628 1.374 . S
C4630 C4627 1.499 . S
C4630 C4631 1.373 . S
C4630 C4632 1.389 . S
C4631 H4610 0.950 . S
C4631 C4630 1.373 . S
C4631 C4647 1.377 . S
C4632 C4630 1.389 . S
C4632 C4633 1.524 . S
C4632 C4646 1.377 . S
C4633 C4632 1.524 . S
C4633 C4634 1.397 . S
C4633 C4638 1.363 . S
C4634 H4611 0.950 . S
C4634 C4633 1.397 . S
C4634 C4635 1.334 . S
C4635 H4612 0.950 . S
C4635 C4634 1.334 . S
C4635 C4636 1.287 . S
C4636 C4635 1.287 . S
C4636 C4637 1.524 . S
C4636 H4655 0.913 . S
C4637 H4613 0.950 . S
C4637 C4636 1.524 . S
C4637 C4638 1.415 . S
C4638 H4614 0.950 . S
C4638 C4633 1.363 . S
C4638 C4637 1.415 . S
C4639 H4615 0.951 . S
C4639 C4640 1.366 . S
C4639 C4641 1.388 . S
C4640 C4639 1.366 . S
C4640 C4644 1.385 . S
C4641 H4616 0.951 . S
C4641 C4639 1.388 . S
C4641 C4642 1.366 . S
C4642 C4641 1.366 . S
C4642 C4643 1.414 . S
C4642 C4645 1.499 . S
C4643 H4617 0.950 . S
C4643 C4642 1.414 . S
C4643 C4644 1.374 . S
C4644 H4618 0.950 . S
C4644 C4640 1.385 . S
C4644 C4643 1.374 . S
C4645 C4642 1.499 . S
C4645 C4646 1.373 . S
C4645 C4647 1.389 . S
C4646 H4619 0.950 . S
C4646 C4632 1.377 . S
C4646 C4645 1.373 . S
C4647 C4631 1.377 . S
C4647 C4645 1.389 . S
C4647 C4648 1.524 . S
C4648 C4647 1.524 . S
C4648 C4649 1.397 . S
C4648 C4653 1.363 . S
C4649 H4620 0.950 . S
C4649 C4648 1.397 . S
C4649 C4650 1.334 . S
C4650 H4621 0.950 . S
C4650 C4649 1.334 . S
C4650 C4651 1.287 . S
C4651 C4650 1.287 . S
C4651 C4652 1.524 . S
C4651 H4654 0.999 . S
C4652 H4622 0.950 . S
C4652 C4651 1.524 . S
C4652 C4653 1.415 . S
C4653 H4623 0.950 . S
C4653 C4648 1.363 . S
C4653 C4652 1.415 . S
H4654 C4651 0.999 . S
H4655 C4636 0.913 . S
H4656 C4674 0.951 . S
H4657 C4676 0.951 . S
H4658 C4678 0.950 . S
H4659 C4679 0.950 . S
H4660 C4681 0.950 . S
H4661 C4684 0.950 . S
H4662 C4685 0.950 . S
H4663 C4687 0.950 . S
H4664 C4688 0.950 . S
H4665 C4689 0.951 . S
H4666 C4691 0.951 . S
H4667 C4693 0.950 . S
H4668 C4694 0.950 . S
H4669 C4696 0.950 . S
H4670 C4699 0.950 . S
H4671 C4700 0.950 . S
H4672 C4702 0.950 . S
H4673 C4703 0.950 . S
C4674 H4656 0.951 . S
C4674 C4675 1.366 . S
C4674 C4676 1.388 . S
C4675 C4674 1.366 . S
C4675 C4679 1.385 . S
C4676 H4657 0.951 . S
C4676 C4674 1.388 . S
C4676 C4677 1.366 . S
C4677 C4676 1.366 . S
C4677 C4678 1.414 . S
C4677 C4680 1.499 . S
C4678 H4658 0.950 . S
C4678 C4677 1.414 . S
C4678 C4679 1.374 . S
C4679 H4659 0.950 . S
C4679 C4675 1.385 . S
C4679 C4678 1.374 . S
C4680 C4677 1.499 . S
C4680 C4681 1.373 . S
C4680 C4682 1.389 . S
C4681 H4660 0.950 . S
C4681 C4680 1.373 . S
C4681 C4697 1.377 . S
C4682 C4680 1.389 . S
C4682 C4683 1.524 . S
C4682 C4696 1.377 . S
C4683 C4682 1.524 . S
C4683 C4684 1.397 . S
C4683 C4688 1.363 . S
C4684 H4661 0.950 . S
C4684 C4683 1.397 . S
C4684 C4685 1.334 . S
C4685 H4662 0.950 . S
C4685 C4684 1.334 . S
C4685 C4686 1.287 . S
C4686 C4685 1.287 . S
C4686 C4687 1.524 . S
C4686 H4705 0.913 . S
C4687 H4663 0.950 . S
C4687 C4686 1.524 . S
C4687 C4688 1.415 . S
C4688 H4664 0.950 . S
C4688 C4683 1.363 . S
C4688 C4687 1.415 . S
C4689 H4665 0.951 . S
C4689 C4690 1.366 . S
C4689 C4691 1.388 . S
C4690 C4689 1.366 . S
C4690 C4694 1.385 . S
C4691 H4666 0.951 . S
C4691 C4689 1.388 . S
C4691 C4692 1.366 . S
C4692 C4691 1.366 . S
C4692 C4693 1.414 . S
C4692 C4695 1.499 . S
C4693 H4667 0.950 . S
C4693 C4692 1.414 . S
C4693 C4694 1.374 . S
C4694 H4668 0.950 . S
C4694 C4690 1.385 . S
C4694 C4693 1.374 . S
C4695 C4692 1.499 . S
C4695 C4696 1.373 . S
C4695 C4697 1.389 . S
C4696 H4669 0.950 . S
C4696 C4682 1.377 . S
C4696 C4695 1.373 . S
C4697 C4681 1.377 . S
C4697 C4695 1.389 . S
C4697 C4698 1.524 . S
C4698 C4697 1.524 . S
C4698 C4699 1.397 . S
C4698 C4703 1.363 . S
C4699 H4670 0.950 . S
C4699 C4698 1.397 . S
C4699 C4700 1.334 . S
C4700 H4671 0.950 . S
C4700 C4699 1.334 . S
C4700 C4701 1.287 . S
C4701 C4700 1.287 . S
C4701 C4702 1.524 . S
C4701 H4704 0.999 . S
C4702 H4672 0.950 . S
C4702 C4701 1.524 . S
C4702 C4703 1.415 . S
C4703 H4673 0.950 . S
C4703 C4698 1.363 . S
C4703 C4702 1.415 . S
H4704 C4701 0.999 . S
H4705 C4686 0.913 . S
H4706 C4724 0.951 . S
H4707 C4726 0.951 . S
H4708 C4728 0.950 . S
H4709 C4729 0.950 . S
H4710 C4731 0.950 . S
H4711 C4734 0.950 . S
H4712 C4735 0.950 . S
H4713 C4737 0.950 . S
H4714 C4738 0.950 . S
H4715 C4739 0.951 . S
H4716 C4741 0.951 . S
H4717 C4743 0.950 . S
H4718 C4744 0.950 . S
H4719 C4746 0.950 . S
H4720 C4749 0.950 . S
H4721 C4750 0.950 . S
H4722 C4752 0.950 . S
H4723 C4753 0.950 . S
C4724 H4706 0.951 . S
C4724 C4725 1.366 . S
C4724 C4726 1.388 . S
C4725 C4724 1.366 . S
C4725 C4729 1.385 . S
C4726 H4707 0.951 . S
C4726 C4724 1.388 . S
C4726 C4727 1.366 . S
C4727 C4726 1.366 . S
C4727 C4728 1.414 . S
C4727 C4730 1.499 . S
C4728 H4708 0.950 . S
C4728 C4727 1.414 . S
C4728 C4729 1.374 . S
C4729 H4709 0.950 . S
C4729 C4725 1.385 . S
C4729 C4728 1.374 . S
C4730 C4727 1.499 . S
C4730 C4731 1.373 . S
C4730 C4732 1.389 . S
C4731 H4710 0.950 . S
C4731 C4730 1.373 . S
C4731 C4747 1.377 . S
C4732 C4730 1.389 . S
C4732 C4733 1.524 . S
C4732 C4746 1.377 . S
C4733 C4732 1.524 . S
C4733 C4734 1.397 . S
C4733 C4738 1.363 . S
C4734 H4711 0.950 . S
C4734 C4733 1.397 . S
C4734 C4735 1.334 . S
C4735 H4712 0.950 . S
C4735 C4734 1.334 . S
C4735 C4736 1.287 . S
C4736 C4735 1.287 . S
C4736 C4737 1.524 . S
C4736 H4755 0.913 . S
C4737 H4713 0.950 . S
C4737 C4736 1.524 . S
C4737 C4738 1.415 . S
C4738 H4714 0.950 . S
C4738 C4733 1.363 . S
C4738 C4737 1.415 . S
C4739 H4715 0.951 . S
C4739 C4740 1.366 . S
C4739 C4741 1.388 . S
C4740 C4739 1.366 . S
C4740 C4744 1.385 . S
C4741 H4716 0.951 . S
C4741 C4739 1.388 . S
C4741 C4742 1.366 . S
C4742 C4741 1.366 . S
C4742 C4743 1.414 . S
C4742 C4745 1.499 . S
C4743 H4717 0.950 . S
C4743 C4742 1.414 . S
C4743 C4744 1.374 . S
C4744 H4718 0.950 . S
C4744 C4740 1.385 . S
C4744 C4743 1.374 . S
C4745 C4742 1.499 . S
C4745 C4746 1.373 . S
C4745 C4747 1.389 . S
C4746 H4719 0.950 . S
C4746 C4732 1.377 . S
C4746 C4745 1.373 . S
C4747 C4731 1.377 . S
C4747 C4745 1.389 . S
C4747 C4748 1.524 . S
C4748 C4747 1.524 . S
C4748 C4749 1.397 . S
C4748 C4753 1.363 . S
C4749 H4720 0.950 . S
C4749 C4748 1.397 . S
C4749 C4750 1.334 . S
C4750 H4721 0.950 . S
C4750 C4749 1.334 . S
C4750 C4751 1.287 . S
C4751 C4750 1.287 . S
C4751 C4752 1.524 . S
C4751 H4754 0.999 . S
C4752 H4722 0.950 . S
C4752 C4751 1.524 . S
C4752 C4753 1.415 . S
C4753 H4723 0.950 . S
C4753 C4748 1.363 . S
C4753 C4752 1.415 . S
H4754 C4751 0.999 . S
H4755 C4736 0.913 . S
H4756 C4774 0.951 . S
H4757 C4776 0.951 . S
H4758 C4778 0.950 . S
H4759 C4779 0.950 . S
H4760 C4781 0.950 . S
H4761 C4784 0.950 . S
H4762 C4785 0.950 . S
H4763 C4787 0.950 . S
H4764 C4788 0.950 . S
H4765 C4789 0.951 . S
H4766 C4791 0.951 . S
H4767 C4793 0.950 . S
H4768 C4794 0.950 . S
H4769 C4796 0.950 . S
H4770 C4799 0.950 . S
H4771 C4800 0.950 . S
H4772 C4802 0.950 . S
H4773 C4803 0.950 . S
C4774 H4756 0.951 . S
C4774 C4775 1.366 . S
C4774 C4776 1.388 . S
C4775 C4774 1.366 . S
C4775 C4779 1.385 . S
C4776 H4757 0.951 . S
C4776 C4774 1.388 . S
C4776 C4777 1.366 . S
C4777 C4776 1.366 . S
C4777 C4778 1.414 . S
C4777 C4780 1.499 . S
C4778 H4758 0.950 . S
C4778 C4777 1.414 . S
C4778 C4779 1.374 . S
C4779 H4759 0.950 . S
C4779 C4775 1.385 . S
C4779 C4778 1.374 . S
C4780 C4777 1.499 . S
C4780 C4781 1.373 . S
C4780 C4782 1.389 . S
C4781 H4760 0.950 . S
C4781 C4780 1.373 . S
C4781 C4797 1.377 . S
C4782 C4780 1.389 . S
C4782 C4783 1.524 . S
C4782 C4796 1.377 . S
C4783 C4782 1.524 . S
C4783 C4784 1.397 . S
C4783 C4788 1.363 . S
C4784 H4761 0.950 . S
C4784 C4783 1.397 . S
C4784 C4785 1.334 . S
C4785 H4762 0.950 . S
C4785 C4784 1.334 . S
C4785 C4786 1.287 . S
C4786 C4785 1.287 . S
C4786 C4787 1.524 . S
C4786 H4805 0.913 . S
C4787 H4763 0.950 . S
C4787 C4786 1.524 . S
C4787 C4788 1.415 . S
C4788 H4764 0.950 . S
C4788 C4783 1.363 . S
C4788 C4787 1.415 . S
C4789 H4765 0.951 . S
C4789 C4790 1.366 . S
C4789 C4791 1.388 . S
C4790 C4789 1.366 . S
C4790 C4794 1.385 . S
C4791 H4766 0.951 . S
C4791 C4789 1.388 . S
C4791 C4792 1.366 . S
C4792 C4791 1.366 . S
C4792 C4793 1.414 . S
C4792 C4795 1.499 . S
C4793 H4767 0.950 . S
C4793 C4792 1.414 . S
C4793 C4794 1.374 . S
C4794 H4768 0.950 . S
C4794 C4790 1.385 . S
C4794 C4793 1.374 . S
C4795 C4792 1.499 . S
C4795 C4796 1.373 . S
C4795 C4797 1.389 . S
C4796 H4769 0.950 . S
C4796 C4782 1.377 . S
C4796 C4795 1.373 . S
C4797 C4781 1.377 . S
C4797 C4795 1.389 . S
C4797 C4798 1.524 . S
C4798 C4797 1.524 . S
C4798 C4799 1.397 . S
C4798 C4803 1.363 . S
C4799 H4770 0.950 . S
C4799 C4798 1.397 . S
C4799 C4800 1.334 . S
C4800 H4771 0.950 . S
C4800 C4799 1.334 . S
C4800 C4801 1.287 . S
C4801 C4800 1.287 . S
C4801 C4802 1.524 . S
C4801 H4804 0.999 . S
C4802 H4772 0.950 . S
C4802 C4801 1.524 . S
C4802 C4803 1.415 . S
C4803 H4773 0.950 . S
C4803 C4798 1.363 . S
C4803 C4802 1.415 . S
H4804 C4801 0.999 . S
H4805 C4786 0.913 . S
H4806 C4824 0.951 . S
H4807 C4826 0.951 . S
H4808 C4828 0.950 . S
H4809 C4829 0.950 . S
H4810 C4831 0.950 . S
H4811 C4834 0.950 . S
H4812 C4835 0.950 . S
H4813 C4837 0.950 . S
H4814 C4838 0.950 . S
H4815 C4839 0.951 . S
H4816 C4841 0.951 . S
H4817 C4843 0.950 . S
H4818 C4844 0.950 . S
H4819 C4846 0.950 . S
H4820 C4849 0.950 . S
H4821 C4850 0.950 . S
H4822 C4852 0.950 . S
H4823 C4853 0.950 . S
C4824 H4806 0.951 . S
C4824 C4825 1.366 . S
C4824 C4826 1.388 . S
C4825 C4824 1.366 . S
C4825 C4829 1.385 . S
C4826 H4807 0.951 . S
C4826 C4824 1.388 . S
C4826 C4827 1.366 . S
C4827 C4826 1.366 . S
C4827 C4828 1.414 . S
C4827 C4830 1.499 . S
C4828 H4808 0.950 . S
C4828 C4827 1.414 . S
C4828 C4829 1.374 . S
C4829 H4809 0.950 . S
C4829 C4825 1.385 . S
C4829 C4828 1.374 . S
C4830 C4827 1.499 . S
C4830 C4831 1.373 . S
C4830 C4832 1.389 . S
C4831 H4810 0.950 . S
C4831 C4830 1.373 . S
C4831 C4847 1.377 . S
C4832 C4830 1.389 . S
C4832 C4833 1.524 . S
C4832 C4846 1.377 . S
C4833 C4832 1.524 . S
C4833 C4834 1.397 . S
C4833 C4838 1.363 . S
C4834 H4811 0.950 . S
C4834 C4833 1.397 . S
C4834 C4835 1.334 . S
C4835 H4812 0.950 . S
C4835 C4834 1.334 . S
C4835 C4836 1.287 . S
C4836 C4835 1.287 . S
C4836 C4837 1.524 . S
C4836 H4855 0.913 . S
C4837 H4813 0.950 . S
C4837 C4836 1.524 . S
C4837 C4838 1.415 . S
C4838 H4814 0.950 . S
C4838 C4833 1.363 . S
C4838 C4837 1.415 . S
C4839 H4815 0.951 . S
C4839 C4840 1.366 . S
C4839 C4841 1.388 . S
C4840 C4839 1.366 . S
C4840 C4844 1.385 . S
C4841 H4816 0.951 . S
C4841 C4839 1.388 . S
C4841 C4842 1.366 . S
C4842 C4841 1.366 . S
C4842 C4843 1.414 . S
C4842 C4845 1.499 . S
C4843 H4817 0.950 . S
C4843 C4842 1.414 . S
C4843 C4844 1.374 . S
C4844 H4818 0.950 . S
C4844 C4840 1.385 . S
C4844 C4843 1.374 . S
C4845 C4842 1.499 . S
C4845 C4846 1.373 . S
C4845 C4847 1.389 . S
C4846 H4819 0.950 . S
C4846 C4832 1.377 . S
C4846 C4845 1.373 . S
C4847 C4831 1.377 . S
C4847 C4845 1.389 . S
C4847 C4848 1.524 . S
C4848 C4847 1.524 . S
C4848 C4849 1.397 . S
C4848 C4853 1.363 . S
C4849 H4820 0.950 . S
C4849 C4848 1.397 . S
C4849 C4850 1.334 . S
C4850 H4821 0.950 . S
C4850 C4849 1.334 . S
C4850 C4851 1.287 . S
C4851 C4850 1.287 . S
C4851 C4852 1.524 . S
C4851 H4854 0.999 . S
C4852 H4822 0.950 . S
C4852 C4851 1.524 . S
C4852 C4853 1.415 . S
C4853 H4823 0.950 . S
C4853 C4848 1.363 . S
C4853 C4852 1.415 . S
H4854 C4851 0.999 . S
H4855 C4836 0.913 . S
H4856 C4874 0.951 . S
H4857 C4876 0.951 . S
H4858 C4878 0.950 . S
H4859 C4879 0.950 . S
H4860 C4881 0.950 . S
H4861 C4884 0.950 . S
H4862 C4885 0.950 . S
H4863 C4887 0.950 . S
H4864 C4888 0.950 . S
H4865 C4889 0.951 . S
H4866 C4891 0.951 . S
H4867 C4893 0.950 . S
H4868 C4894 0.950 . S
H4869 C4896 0.950 . S
H4870 C4899 0.950 . S
H4871 C4900 0.950 . S
H4872 C4902 0.950 . S
H4873 C4903 0.950 . S
C4874 H4856 0.951 . S
C4874 C4875 1.366 . S
C4874 C4876 1.388 . S
C4875 C4874 1.366 . S
C4875 C4879 1.385 . S
C4876 H4857 0.951 . S
C4876 C4874 1.388 . S
C4876 C4877 1.366 . S
C4877 C4876 1.366 . S
C4877 C4878 1.414 . S
C4877 C4880 1.499 . S
C4878 H4858 0.950 . S
C4878 C4877 1.414 . S
C4878 C4879 1.374 . S
C4879 H4859 0.950 . S
C4879 C4875 1.385 . S
C4879 C4878 1.374 . S
C4880 C4877 1.499 . S
C4880 C4881 1.373 . S
C4880 C4882 1.389 . S
C4881 H4860 0.950 . S
C4881 C4880 1.373 . S
C4881 C4897 1.377 . S
C4882 C4880 1.389 . S
C4882 C4883 1.524 . S
C4882 C4896 1.377 . S
C4883 C4882 1.524 . S
C4883 C4884 1.397 . S
C4883 C4888 1.363 . S
C4884 H4861 0.950 . S
C4884 C4883 1.397 . S
C4884 C4885 1.334 . S
C4885 H4862 0.950 . S
C4885 C4884 1.334 . S
C4885 C4886 1.287 . S
C4886 C4885 1.287 . S
C4886 C4887 1.524 . S
C4886 H4905 0.913 . S
C4887 H4863 0.950 . S
C4887 C4886 1.524 . S
C4887 C4888 1.415 . S
C4888 H4864 0.950 . S
C4888 C4883 1.363 . S
C4888 C4887 1.415 . S
C4889 H4865 0.951 . S
C4889 C4890 1.366 . S
C4889 C4891 1.388 . S
C4890 C4889 1.366 . S
C4890 C4894 1.385 . S
C4891 H4866 0.951 . S
C4891 C4889 1.388 . S
C4891 C4892 1.366 . S
C4892 C4891 1.366 . S
C4892 C4893 1.414 . S
C4892 C4895 1.499 . S
C4893 H4867 0.950 . S
C4893 C4892 1.414 . S
C4893 C4894 1.374 . S
C4894 H4868 0.950 . S
C4894 C4890 1.385 . S
C4894 C4893 1.374 . S
C4895 C4892 1.499 . S
C4895 C4896 1.373 . S
C4895 C4897 1.389 . S
C4896 H4869 0.950 . S
C4896 C4882 1.377 . S
C4896 C4895 1.373 . S
C4897 C4881 1.377 . S
C4897 C4895 1.389 . S
C4897 C4898 1.524 . S
C4898 C4897 1.524 . S
C4898 C4899 1.397 . S
C4898 C4903 1.363 . S
C4899 H4870 0.950 . S
C4899 C4898 1.397 . S
C4899 C4900 1.334 . S
C4900 H4871 0.950 . S
C4900 C4899 1.334 . S
C4900 C4901 1.287 . S
C4901 C4900 1.287 . S
C4901 C4902 1.524 . S
C4901 H4904 0.999 . S
C4902 H4872 0.950 . S
C4902 C4901 1.524 . S
C4902 C4903 1.415 . S
C4903 H4873 0.950 . S
C4903 C4898 1.363 . S
C4903 C4902 1.415 . S
H4904 C4901 0.999 . S
H4905 C4886 0.913 . S
H4906 C4924 0.951 . S
H4907 C4926 0.951 . S
H4908 C4928 0.950 . S
H4909 C4929 0.950 . S
H4910 C4931 0.950 . S
H4911 C4934 0.950 . S
H4912 C4935 0.950 . S
H4913 C4937 0.950 . S
H4914 C4938 0.950 . S
H4915 C4939 0.951 . S
H4916 C4941 0.951 . S
H4917 C4943 0.950 . S
H4918 C4944 0.950 . S
H4919 C4946 0.950 . S
H4920 C4949 0.950 . S
H4921 C4950 0.950 . S
H4922 C4952 0.950 . S
H4923 C4953 0.950 . S
C4924 H4906 0.951 . S
C4924 C4925 1.366 . S
C4924 C4926 1.388 . S
C4925 C4924 1.366 . S
C4925 C4929 1.385 . S
C4926 H4907 0.951 . S
C4926 C4924 1.388 . S
C4926 C4927 1.366 . S
C4927 C4926 1.366 . S
C4927 C4928 1.414 . S
C4927 C4930 1.499 . S
C4928 H4908 0.950 . S
C4928 C4927 1.414 . S
C4928 C4929 1.374 . S
C4929 H4909 0.950 . S
C4929 C4925 1.385 . S
C4929 C4928 1.374 . S
C4930 C4927 1.499 . S
C4930 C4931 1.373 . S
C4930 C4932 1.389 . S
C4931 H4910 0.950 . S
C4931 C4930 1.373 . S
C4931 C4947 1.377 . S
C4932 C4930 1.389 . S
C4932 C4933 1.524 . S
C4932 C4946 1.377 . S
C4933 C4932 1.524 . S
C4933 C4934 1.397 . S
C4933 C4938 1.363 . S
C4934 H4911 0.950 . S
C4934 C4933 1.397 . S
C4934 C4935 1.334 . S
C4935 H4912 0.950 . S
C4935 C4934 1.334 . S
C4935 C4936 1.287 . S
C4936 C4935 1.287 . S
C4936 C4937 1.524 . S
C4936 H4955 0.913 . S
C4937 H4913 0.950 . S
C4937 C4936 1.524 . S
C4937 C4938 1.415 . S
C4938 H4914 0.950 . S
C4938 C4933 1.363 . S
C4938 C4937 1.415 . S
C4939 H4915 0.951 . S
C4939 C4940 1.366 . S
C4939 C4941 1.388 . S
C4940 C4939 1.366 . S
C4940 C4944 1.385 . S
C4941 H4916 0.951 . S
C4941 C4939 1.388 . S
C4941 C4942 1.366 . S
C4942 C4941 1.366 . S
C4942 C4943 1.414 . S
C4942 C4945 1.499 . S
C4943 H4917 0.950 . S
C4943 C4942 1.414 . S
C4943 C4944 1.374 . S
C4944 H4918 0.950 . S
C4944 C4940 1.385 . S
C4944 C4943 1.374 . S
C4945 C4942 1.499 . S
C4945 C4946 1.373 . S
C4945 C4947 1.389 . S
C4946 H4919 0.950 . S
C4946 C4932 1.377 . S
C4946 C4945 1.373 . S
C4947 C4931 1.377 . S
C4947 C4945 1.389 . S
C4947 C4948 1.524 . S
C4948 C4947 1.524 . S
C4948 C4949 1.397 . S
C4948 C4953 1.363 . S
C4949 H4920 0.950 . S
C4949 C4948 1.397 . S
C4949 C4950 1.334 . S
C4950 H4921 0.950 . S
C4950 C4949 1.334 . S
C4950 C4951 1.287 . S
C4951 C4950 1.287 . S
C4951 C4952 1.524 . S
C4951 H4954 0.999 . S
C4952 H4922 0.950 . S
C4952 C4951 1.524 . S
C4952 C4953 1.415 . S
C4953 H4923 0.950 . S
C4953 C4948 1.363 . S
C4953 C4952 1.415 . S
H4954 C4951 0.999 . S
H4955 C4936 0.913 . S
H4956 C4974 0.951 . S
H4957 C4976 0.951 . S
H4958 C4978 0.950 . S
H4959 C4979 0.950 1_545 S
H4960 C4981 0.950 . S
H4961 C4984 0.950 . S
H4962 C4985 0.950 . S
H4963 C4987 0.950 . S
H4964 C4988 0.950 . S
H4965 C4989 0.951 . S
H4966 C4991 0.951 . S
H4967 C4993 0.950 . S
H4968 C4994 0.950 . S
H4969 C4996 0.950 . S
H4970 C4999 0.950 . S
H4971 C5000 0.950 . S
H4972 C5002 0.950 . S
H4973 C5003 0.950 . S
C4974 H4956 0.951 . S
C4974 C4975 1.366 . S
C4974 C4976 1.388 . S
C4975 C4974 1.366 . S
C4975 C4979 1.385 . S
C4976 H4957 0.951 . S
C4976 C4974 1.388 . S
C4976 C4977 1.366 . S
C4977 C4976 1.366 . S
C4977 C4978 1.414 . S
C4977 C4980 1.499 . S
C4978 H4958 0.950 . S
C4978 C4977 1.414 . S
C4978 C4979 1.374 . S
C4979 H4959 0.950 1_565 S
C4979 C4975 1.385 . S
C4979 C4978 1.374 . S
C4980 C4977 1.499 . S
C4980 C4981 1.373 . S
C4980 C4982 1.389 . S
C4981 H4960 0.950 . S
C4981 C4980 1.373 . S
C4981 C4997 1.377 . S
C4982 C4980 1.389 . S
C4982 C4983 1.524 . S
C4982 C4996 1.377 . S
C4983 C4982 1.524 . S
C4983 C4984 1.397 . S
C4983 C4988 1.363 . S
C4984 H4961 0.950 . S
C4984 C4983 1.397 . S
C4984 C4985 1.334 . S
C4985 H4962 0.950 . S
C4985 C4984 1.334 . S
C4985 C4986 1.287 . S
C4986 C4985 1.287 . S
C4986 C4987 1.524 . S
C4986 H5005 0.913 . S
C4987 H4963 0.950 . S
C4987 C4986 1.524 . S
C4987 C4988 1.415 . S
C4988 H4964 0.950 . S
C4988 C4983 1.363 . S
C4988 C4987 1.415 . S
C4989 H4965 0.951 . S
C4989 C4990 1.366 . S
C4989 C4991 1.388 . S
C4990 C4989 1.366 . S
C4990 C4994 1.385 . S
C4991 H4966 0.951 . S
C4991 C4989 1.388 . S
C4991 C4992 1.366 . S
C4992 C4991 1.366 . S
C4992 C4993 1.414 . S
C4992 C4995 1.499 . S
C4993 H4967 0.950 . S
C4993 C4992 1.414 . S
C4993 C4994 1.374 . S
C4994 H4968 0.950 . S
C4994 C4990 1.385 . S
C4994 C4993 1.374 . S
C4995 C4992 1.499 . S
C4995 C4996 1.373 . S
C4995 C4997 1.389 . S
C4996 H4969 0.950 . S
C4996 C4982 1.377 . S
C4996 C4995 1.373 . S
C4997 C4981 1.377 . S
C4997 C4995 1.389 . S
C4997 C4998 1.524 . S
C4998 C4997 1.524 . S
C4998 C4999 1.397 . S
C4998 C5003 1.363 . S
C4999 H4970 0.950 . S
C4999 C4998 1.397 . S
C4999 C5000 1.334 . S
C5000 H4971 0.950 . S
C5000 C4999 1.334 . S
C5000 C5001 1.287 . S
C5001 C5000 1.287 . S
C5001 C5002 1.524 . S
C5001 H5004 0.999 . S
C5002 H4972 0.950 . S
C5002 C5001 1.524 . S
C5002 C5003 1.415 . S
C5003 H4973 0.950 . S
C5003 C4998 1.363 . S
C5003 C5002 1.415 . S
H5004 C5001 0.999 . S
H5005 C4986 0.913 . S
H5006 C5024 0.951 . S
H5007 C5026 0.951 . S
H5008 C5028 0.950 . S
H5009 C5029 0.950 . S
H5010 C5031 0.950 . S
H5011 C5034 0.950 . S
H5012 C5035 0.950 . S
H5013 C5037 0.950 . S
H5014 C5038 0.950 . S
H5015 C5039 0.951 . S
H5016 C5041 0.951 . S
H5017 C5043 0.950 1_556 S
H5018 C5044 0.950 1_566 S
H5019 C5046 0.950 . S
H5020 C5049 0.950 . S
H5021 C5050 0.950 . S
H5022 C5052 0.950 . S
H5023 C5053 0.950 . S
C5024 H5006 0.951 . S
C5024 C5025 1.366 . S
C5024 C5026 1.388 . S
C5025 C5024 1.366 . S
C5025 C5029 1.385 1_556 S
C5026 H5007 0.951 . S
C5026 C5024 1.388 . S
C5026 C5027 1.366 1_556 S
C5027 C5026 1.366 1_554 S
C5027 C5028 1.414 . S
C5027 C5030 1.499 . S
C5028 H5008 0.950 . S
C5028 C5027 1.414 . S
C5028 C5029 1.374 . S
C5029 H5009 0.950 . S
C5029 C5025 1.385 1_554 S
C5029 C5028 1.374 . S
C5030 C5027 1.499 . S
C5030 C5031 1.373 1_554 S
C5030 C5032 1.389 . S
C5031 H5010 0.950 . S
C5031 C5030 1.373 1_556 S
C5031 C5047 1.377 . S
C5032 C5030 1.389 . S
C5032 C5033 1.524 . S
C5032 C5046 1.377 . S
C5033 C5032 1.524 . S
C5033 C5034 1.397 . S
C5033 C5038 1.363 . S
C5034 H5011 0.950 . S
C5034 C5033 1.397 . S
C5034 C5035 1.334 . S
C5035 H5012 0.950 . S
C5035 C5034 1.334 . S
C5035 C5036 1.287 . S
C5036 C5035 1.287 . S
C5036 C5037 1.524 . S
C5036 H5055 0.913 . S
C5037 H5013 0.950 . S
C5037 C5036 1.524 . S
C5037 C5038 1.415 . S
C5038 H5014 0.950 . S
C5038 C5033 1.363 . S
C5038 C5037 1.415 . S
C5039 H5015 0.951 . S
C5039 C5040 1.366 . S
C5039 C5041 1.388 . S
C5040 C5039 1.366 . S
C5040 C5044 1.385 . S
C5041 H5016 0.951 . S
C5041 C5039 1.388 . S
C5041 C5042 1.366 . S
C5042 C5041 1.366 . S
C5042 C5043 1.415 1_545 S
C5042 C5045 1.499 1_545 S
C5043 H5017 0.950 1_554 S
C5043 C5042 1.415 1_565 S
C5043 C5044 1.373 1_565 S
C5044 H5018 0.950 1_544 S
C5044 C5040 1.385 . S
C5044 C5043 1.373 1_545 S
C5045 C5042 1.499 1_565 S
C5045 C5046 1.373 . S
C5045 C5047 1.389 1_554 S
C5046 H5019 0.950 . S
C5046 C5032 1.377 . S
C5046 C5045 1.373 . S
C5047 C5031 1.377 . S
C5047 C5045 1.389 1_556 S
C5047 C5048 1.524 1_565 S
C5048 C5047 1.524 1_545 S
C5048 C5049 1.397 . S
C5048 C5053 1.363 . S
C5049 H5020 0.950 . S
C5049 C5048 1.397 . S
C5049 C5050 1.334 . S
C5050 H5021 0.950 . S
C5050 C5049 1.334 . S
C5050 C5051 1.287 . S
C5051 C5050 1.287 . S
C5051 C5052 1.524 . S
C5051 H5054 0.999 . S
C5052 H5022 0.950 . S
C5052 C5051 1.524 . S
C5052 C5053 1.415 . S
C5053 H5023 0.950 . S
C5053 C5048 1.363 . S
C5053 C5052 1.415 . S
H5054 C5051 0.999 . S
H5055 C5036 0.913 . S
H5056 C5074 0.951 . S
H5057 C5076 0.951 . S
H5058 C5078 0.950 . S
H5059 C5079 0.950 . S
H5060 C5081 0.950 . S
H5061 C5084 0.950 . S
H5062 C5085 0.950 . S
H5063 C5087 0.950 . S
H5064 C5088 0.950 . S
H5065 C5089 0.951 . S
H5066 C5091 0.951 . S
H5067 C5093 0.950 . S
H5068 C5094 0.950 . S
H5069 C5096 0.950 . S
H5070 C5099 0.950 . S
H5071 C5100 0.950 . S
H5072 C5102 0.950 . S
H5073 C5103 0.950 . S
C5074 H5056 0.951 . S
C5074 C5075 1.366 . S
C5074 C5076 1.388 . S
C5075 C5074 1.366 . S
C5075 C5079 1.385 . S
C5076 H5057 0.951 . S
C5076 C5074 1.388 . S
C5076 C5077 1.366 . S
C5077 C5076 1.366 . S
C5077 C5078 1.414 . S
C5077 C5080 1.499 . S
C5078 H5058 0.950 . S
C5078 C5077 1.414 . S
C5078 C5079 1.374 . S
C5079 H5059 0.950 . S
C5079 C5075 1.385 . S
C5079 C5078 1.374 . S
C5080 C5077 1.499 . S
C5080 C5081 1.373 . S
C5080 C5082 1.389 . S
C5081 H5060 0.950 . S
C5081 C5080 1.373 . S
C5081 C5097 1.377 . S
C5082 C5080 1.389 . S
C5082 C5083 1.524 . S
C5082 C5096 1.377 . S
C5083 C5082 1.524 . S
C5083 C5084 1.397 . S
C5083 C5088 1.363 . S
C5084 H5061 0.950 . S
C5084 C5083 1.397 . S
C5084 C5085 1.334 . S
C5085 H5062 0.950 . S
C5085 C5084 1.334 . S
C5085 C5086 1.287 . S
C5086 C5085 1.287 . S
C5086 C5087 1.524 . S
C5086 H5105 0.913 . S
C5087 H5063 0.950 . S
C5087 C5086 1.524 . S
C5087 C5088 1.415 . S
C5088 H5064 0.950 . S
C5088 C5083 1.363 . S
C5088 C5087 1.415 . S
C5089 H5065 0.951 . S
C5089 C5090 1.366 . S
C5089 C5091 1.388 . S
C5090 C5089 1.366 . S
C5090 C5094 1.385 . S
C5091 H5066 0.951 . S
C5091 C5089 1.388 . S
C5091 C5092 1.366 . S
C5092 C5091 1.366 . S
C5092 C5093 1.414 . S
C5092 C5095 1.499 . S
C5093 H5067 0.950 . S
C5093 C5092 1.414 . S
C5093 C5094 1.374 . S
C5094 H5068 0.950 . S
C5094 C5090 1.385 . S
C5094 C5093 1.374 . S
C5095 C5092 1.499 . S
C5095 C5096 1.373 . S
C5095 C5097 1.389 . S
C5096 H5069 0.950 . S
C5096 C5082 1.377 . S
C5096 C5095 1.373 . S
C5097 C5081 1.377 . S
C5097 C5095 1.389 . S
C5097 C5098 1.524 . S
C5098 C5097 1.524 . S
C5098 C5099 1.397 . S
C5098 C5103 1.363 . S
C5099 H5070 0.950 . S
C5099 C5098 1.397 . S
C5099 C5100 1.334 . S
C5100 H5071 0.950 . S
C5100 C5099 1.334 . S
C5100 C5101 1.287 . S
C5101 C5100 1.287 . S
C5101 C5102 1.524 . S
C5101 H5104 0.999 . S
C5102 H5072 0.950 . S
C5102 C5101 1.524 . S
C5102 C5103 1.415 . S
C5103 H5073 0.950 . S
C5103 C5098 1.363 . S
C5103 C5102 1.415 . S
H5104 C5101 0.999 . S
H5105 C5086 0.913 . S
H5106 C5124 0.951 . S
H5107 C5126 0.951 . S
H5108 C5128 0.950 . S
H5109 C5129 0.950 . S
H5110 C5131 0.979 . S
H5111 C5134 0.950 . S
H5112 C5135 0.950 . S
H5113 C5137 0.950 . S
H5114 C5138 0.950 . S
H5115 C5139 0.951 . S
H5116 C5141 0.951 . S
H5117 C5143 0.950 . S
H5118 C5144 0.950 . S
H5119 C5146 0.950 . S
H5120 C5149 0.950 . S
H5121 C5150 0.950 . S
H5122 C5152 0.950 . S
H5123 C5153 0.950 . S
C5124 H5106 0.951 . S
C5124 C5125 1.366 . S
C5124 C5126 1.388 . S
C5125 C5124 1.366 . S
C5125 C5129 1.385 . S
C5126 H5107 0.951 . S
C5126 C5124 1.388 . S
C5126 C5127 1.366 . S
C5127 C5126 1.366 . S
C5127 C5128 1.414 . S
C5127 C5130 1.499 . S
C5128 H5108 0.950 . S
C5128 C5127 1.414 . S
C5128 C5129 1.374 . S
C5129 H5109 0.950 . S
C5129 C5125 1.385 . S
C5129 C5128 1.374 . S
C5130 C5127 1.499 . S
C5130 C5131 1.373 . S
C5130 C5132 1.389 . S
C5131 H5110 0.979 . S
C5131 C5130 1.373 . S
C5131 C5147 1.377 . S
C5132 C5130 1.389 . S
C5132 C5133 1.524 . S
C5132 C5146 1.377 . S
C5133 C5132 1.524 . S
C5133 C5134 1.397 . S
C5133 C5138 1.363 . S
C5134 H5111 0.950 . S
C5134 C5133 1.397 . S
C5134 C5135 1.334 . S
C5135 H5112 0.950 . S
C5135 C5134 1.334 . S
C5135 C5136 1.287 . S
C5136 C5135 1.287 . S
C5136 C5137 1.524 . S
C5136 H5155 0.913 . S
C5137 H5113 0.950 . S
C5137 C5136 1.524 . S
C5137 C5138 1.415 . S
C5138 H5114 0.950 . S
C5138 C5133 1.363 . S
C5138 C5137 1.415 . S
C5139 H5115 0.951 . S
C5139 C5140 1.366 . S
C5139 C5141 1.388 . S
C5140 C5139 1.366 . S
C5140 C5144 1.385 . S
C5141 H5116 0.951 . S
C5141 C5139 1.388 . S
C5141 C5142 1.366 . S
C5142 C5141 1.366 . S
C5142 C5143 1.414 . S
C5142 C5145 1.499 . S
C5143 H5117 0.950 . S
C5143 C5142 1.414 . S
C5143 C5144 1.374 . S
C5144 H5118 0.950 . S
C5144 C5140 1.385 . S
C5144 C5143 1.374 . S
C5145 C5142 1.499 . S
C5145 C5146 1.373 . S
C5145 C5147 1.389 . S
C5146 H5119 0.950 . S
C5146 C5132 1.377 . S
C5146 C5145 1.373 . S
C5147 C5131 1.377 . S
C5147 C5145 1.389 . S
C5147 C5148 1.524 1_554 S
C5148 C5147 1.524 1_556 S
C5148 C5149 1.397 . S
C5148 C5153 1.363 . S
C5149 H5120 0.950 . S
C5149 C5148 1.397 . S
C5149 C5150 1.334 . S
C5150 H5121 0.950 . S
C5150 C5149 1.334 . S
C5150 C5151 1.287 . S
C5151 C5150 1.287 . S
C5151 C5152 1.524 . S
C5151 H5154 0.999 . S
C5152 H5122 0.950 . S
C5152 C5151 1.524 . S
C5152 C5153 1.415 . S
C5153 H5123 0.950 . S
C5153 C5148 1.363 . S
C5153 C5152 1.415 . S
H5154 C5151 0.999 . S
H5155 C5136 0.913 . S
H5156 C5174 0.951 . S
H5157 C5176 0.951 . S
H5158 C5178 0.950 . S
H5159 C5179 0.950 . S
H5160 C5181 0.950 . S
H5161 C5184 0.950 . S
H5162 C5185 0.950 . S
H5163 C5187 0.950 . S
H5164 C5188 0.950 . S
H5165 C5189 0.951 . S
H5166 C5191 0.951 . S
H5167 C5193 0.950 . S
H5168 C5194 0.950 . S
H5169 C5196 0.950 . S
H5170 C5199 0.950 . S
H5171 C5200 0.950 . S
H5172 C5202 0.950 . S
H5173 C5203 0.950 . S
C5174 H5156 0.951 . S
C5174 C5175 1.366 . S
C5174 C5176 1.388 . S
C5175 C5174 1.366 . S
C5175 C5179 1.385 . S
C5176 H5157 0.951 . S
C5176 C5174 1.388 . S
C5176 C5177 1.366 . S
C5177 C5176 1.366 . S
C5177 C5178 1.414 . S
C5177 C5180 1.499 . S
C5178 H5158 0.950 . S
C5178 C5177 1.414 . S
C5178 C5179 1.374 . S
C5179 H5159 0.950 . S
C5179 C5175 1.385 . S
C5179 C5178 1.374 . S
C5180 C5177 1.499 . S
C5180 C5181 1.373 . S
C5180 C5182 1.389 . S
C5181 H5160 0.950 . S
C5181 C5180 1.373 . S
C5181 C5197 1.377 . S
C5182 C5180 1.389 . S
C5182 C5183 1.524 . S
C5182 C5196 1.377 . S
C5183 C5182 1.524 . S
C5183 C5184 1.397 . S
C5183 C5188 1.363 . S
C5184 H5161 0.950 . S
C5184 C5183 1.397 . S
C5184 C5185 1.334 . S
C5185 H5162 0.950 . S
C5185 C5184 1.334 . S
C5185 C5186 1.287 . S
C5186 C5185 1.287 . S
C5186 C5187 1.524 . S
C5186 H5205 0.913 . S
C5187 H5163 0.950 . S
C5187 C5186 1.524 . S
C5187 C5188 1.415 . S
C5188 H5164 0.950 . S
C5188 C5183 1.363 . S
C5188 C5187 1.415 . S
C5189 H5165 0.951 . S
C5189 C5190 1.366 . S
C5189 C5191 1.388 . S
C5190 C5189 1.366 . S
C5190 C5194 1.385 . S
C5191 H5166 0.951 . S
C5191 C5189 1.388 . S
C5191 C5192 1.366 . S
C5192 C5191 1.366 . S
C5192 C5193 1.414 . S
C5192 C5195 1.499 . S
C5193 H5167 0.950 . S
C5193 C5192 1.414 . S
C5193 C5194 1.374 . S
C5194 H5168 0.950 . S
C5194 C5190 1.385 . S
C5194 C5193 1.374 . S
C5195 C5192 1.499 . S
C5195 C5196 1.373 . S
C5195 C5197 1.389 . S
C5196 H5169 0.950 . S
C5196 C5182 1.377 . S
C5196 C5195 1.373 . S
C5197 C5181 1.377 . S
C5197 C5195 1.389 . S
C5197 C5198 1.524 . S
C5198 C5197 1.524 . S
C5198 C5199 1.397 . S
C5198 C5203 1.363 . S
C5199 H5170 0.950 . S
C5199 C5198 1.397 . S
C5199 C5200 1.334 . S
C5200 H5171 0.950 . S
C5200 C5199 1.334 . S
C5200 C5201 1.287 . S
C5201 C5200 1.287 . S
C5201 C5202 1.524 . S
C5201 H5204 0.999 . S
C5202 H5172 0.950 . S
C5202 C5201 1.524 . S
C5202 C5203 1.415 . S
C5203 H5173 0.950 . S
C5203 C5198 1.363 . S
C5203 C5202 1.415 . S
H5204 C5201 0.999 . S
H5205 C5186 0.913 . S
H5206 C5224 0.951 . S
H5207 C5226 0.951 . S
H5208 C5228 0.950 . S
H5209 C5229 0.950 . S
H5210 C5231 0.950 . S
H5211 C5234 0.950 . S
H5212 C5235 0.950 . S
H5213 C5237 0.950 . S
H5214 C5238 0.950 . S
H5215 C5239 0.951 . S
H5216 C5241 0.951 . S
H5217 C5243 0.950 . S
H5218 C5244 0.950 . S
H5219 C5246 0.950 . S
H5220 C5249 0.950 . S
H5221 C5250 0.950 . S
H5222 C5252 0.950 . S
H5223 C5253 0.950 . S
C5224 H5206 0.951 . S
C5224 C5225 1.366 . S
C5224 C5226 1.388 . S
C5225 C5224 1.366 . S
C5225 C5229 1.385 . S
C5226 H5207 0.951 . S
C5226 C5224 1.388 . S
C5226 C5227 1.366 . S
C5227 C5226 1.366 . S
C5227 C5228 1.414 . S
C5227 C5230 1.499 . S
C5228 H5208 0.950 . S
C5228 C5227 1.414 . S
C5228 C5229 1.374 . S
C5229 H5209 0.950 . S
C5229 C5225 1.385 . S
C5229 C5228 1.374 . S
C5230 C5227 1.499 . S
C5230 C5231 1.373 . S
C5230 C5232 1.389 . S
C5231 H5210 0.950 . S
C5231 C5230 1.373 . S
C5231 C5247 1.377 . S
C5232 C5230 1.389 . S
C5232 C5233 1.524 . S
C5232 C5246 1.377 . S
C5233 C5232 1.524 . S
C5233 C5234 1.397 . S
C5233 C5238 1.363 . S
C5234 H5211 0.950 . S
C5234 C5233 1.397 . S
C5234 C5235 1.334 . S
C5235 H5212 0.950 . S
C5235 C5234 1.334 . S
C5235 C5236 1.287 . S
C5236 C5235 1.287 . S
C5236 C5237 1.524 . S
C5236 H5255 0.913 . S
C5237 H5213 0.950 . S
C5237 C5236 1.524 . S
C5237 C5238 1.415 . S
C5238 H5214 0.950 . S
C5238 C5233 1.363 . S
C5238 C5237 1.415 . S
C5239 H5215 0.951 . S
C5239 C5240 1.366 . S
C5239 C5241 1.388 . S
C5240 C5239 1.366 . S
C5240 C5244 1.385 . S
C5241 H5216 0.951 . S
C5241 C5239 1.388 . S
C5241 C5242 1.366 . S
C5242 C5241 1.366 . S
C5242 C5243 1.414 . S
C5242 C5245 1.499 . S
C5243 H5217 0.950 . S
C5243 C5242 1.414 . S
C5243 C5244 1.374 . S
C5244 H5218 0.950 . S
C5244 C5240 1.385 . S
C5244 C5243 1.374 . S
C5245 C5242 1.499 . S
C5245 C5246 1.373 . S
C5245 C5247 1.389 . S
C5246 H5219 0.950 . S
C5246 C5232 1.377 . S
C5246 C5245 1.373 . S
C5247 C5231 1.377 . S
C5247 C5245 1.389 . S
C5247 C5248 1.524 . S
C5248 C5247 1.524 . S
C5248 C5249 1.397 . S
C5248 C5253 1.363 . S
C5249 H5220 0.950 . S
C5249 C5248 1.397 . S
C5249 C5250 1.334 . S
C5250 H5221 0.950 . S
C5250 C5249 1.334 . S
C5250 C5251 1.287 . S
C5251 C5250 1.287 . S
C5251 C5252 1.524 . S
C5251 H5254 0.999 . S
C5252 H5222 0.950 . S
C5252 C5251 1.524 . S
C5252 C5253 1.415 . S
C5253 H5223 0.950 . S
C5253 C5248 1.363 . S
C5253 C5252 1.415 . S
H5254 C5251 0.999 . S
H5255 C5236 0.913 . S
H5256 C5274 0.951 . S
H5257 C5276 0.951 . S
H5258 C5278 0.950 . S
H5259 C5279 0.950 . S
H5260 C5281 0.950 . S
H5261 C5284 0.950 . S
H5262 C5285 0.950 . S
H5263 C5287 0.950 . S
H5264 C5288 0.950 . S
H5265 C5289 0.951 . S
H5266 C5291 0.951 . S
H5267 C5293 0.950 . S
H5268 C5294 0.950 . S
H5269 C5296 0.950 . S
H5270 C5299 0.950 . S
H5271 C5300 0.950 . S
H5272 C5302 0.950 . S
H5273 C5303 0.950 . S
C5274 H5256 0.951 . S
C5274 C5275 1.366 . S
C5274 C5276 1.388 . S
C5275 C5274 1.366 . S
C5275 C5279 1.385 . S
C5276 H5257 0.951 . S
C5276 C5274 1.388 . S
C5276 C5277 1.366 . S
C5277 C5276 1.366 . S
C5277 C5278 1.414 . S
C5277 C5280 1.499 . S
C5278 H5258 0.950 . S
C5278 C5277 1.414 . S
C5278 C5279 1.374 . S
C5279 H5259 0.950 . S
C5279 C5275 1.385 . S
C5279 C5278 1.374 . S
C5280 C5277 1.499 . S
C5280 C5281 1.373 . S
C5280 C5282 1.389 . S
C5281 H5260 0.950 . S
C5281 C5280 1.373 . S
C5281 C5297 1.377 . S
C5282 C5280 1.389 . S
C5282 C5283 1.524 . S
C5282 C5296 1.377 . S
C5283 C5282 1.524 . S
C5283 C5284 1.397 . S
C5283 C5288 1.363 . S
C5284 H5261 0.950 . S
C5284 C5283 1.397 . S
C5284 C5285 1.334 . S
C5285 H5262 0.950 . S
C5285 C5284 1.334 . S
C5285 C5286 1.287 . S
C5286 C5285 1.287 . S
C5286 C5287 1.524 . S
C5286 H5305 0.913 . S
C5287 H5263 0.950 . S
C5287 C5286 1.524 . S
C5287 C5288 1.415 . S
C5288 H5264 0.950 . S
C5288 C5283 1.363 . S
C5288 C5287 1.415 . S
C5289 H5265 0.951 . S
C5289 C5290 1.366 . S
C5289 C5291 1.388 . S
C5290 C5289 1.366 . S
C5290 C5294 1.385 . S
C5291 H5266 0.951 . S
C5291 C5289 1.388 . S
C5291 C5292 1.366 . S
C5292 C5291 1.366 . S
C5292 C5293 1.414 . S
C5292 C5295 1.499 . S
C5293 H5267 0.950 . S
C5293 C5292 1.414 . S
C5293 C5294 1.374 . S
C5294 H5268 0.950 . S
C5294 C5290 1.385 . S
C5294 C5293 1.374 . S
C5295 C5292 1.499 . S
C5295 C5296 1.373 . S
C5295 C5297 1.389 . S
C5296 H5269 0.950 . S
C5296 C5282 1.377 . S
C5296 C5295 1.373 . S
C5297 C5281 1.377 . S
C5297 C5295 1.389 . S
C5297 C5298 1.524 . S
C5298 C5297 1.524 . S
C5298 C5299 1.397 . S
C5298 C5303 1.363 . S
C5299 H5270 0.950 . S
C5299 C5298 1.397 . S
C5299 C5300 1.334 . S
C5300 H5271 0.950 . S
C5300 C5299 1.334 . S
C5300 C5301 1.287 . S
C5301 C5300 1.287 . S
C5301 C5302 1.524 . S
C5301 H5304 0.999 . S
C5302 H5272 0.950 . S
C5302 C5301 1.524 . S
C5302 C5303 1.415 . S
C5303 H5273 0.950 . S
C5303 C5298 1.363 . S
C5303 C5302 1.415 . S
H5304 C5301 0.999 . S
H5305 C5286 0.913 . S
H5306 C5324 0.951 . S
H5307 C5326 0.951 . S
H5308 C5328 0.950 . S
H5309 C5329 0.950 . S
H5310 C5331 0.950 . S
H5311 C5334 0.950 . S
H5312 C5335 0.950 . S
H5313 C5337 0.950 . S
H5314 C5338 0.950 . S
H5315 C5339 0.951 . S
H5316 C5341 0.951 . S
H5317 C5343 0.950 . S
H5318 C5344 0.950 . S
H5319 C5346 0.950 . S
H5320 C5349 0.950 . S
H5321 C5350 0.950 . S
H5322 C5352 0.950 . S
H5323 C5353 0.950 . S
C5324 H5306 0.951 . S
C5324 C5325 1.366 . S
C5324 C5326 1.388 . S
C5325 C5324 1.366 . S
C5325 C5329 1.385 . S
C5326 H5307 0.951 . S
C5326 C5324 1.388 . S
C5326 C5327 1.366 . S
C5327 C5326 1.366 . S
C5327 C5328 1.414 . S
C5327 C5330 1.499 . S
C5328 H5308 0.950 . S
C5328 C5327 1.414 . S
C5328 C5329 1.374 . S
C5329 H5309 0.950 . S
C5329 C5325 1.385 . S
C5329 C5328 1.374 . S
C5330 C5327 1.499 . S
C5330 C5331 1.373 . S
C5330 C5332 1.389 . S
C5331 H5310 0.950 . S
C5331 C5330 1.373 . S
C5331 C5347 1.377 . S
C5332 C5330 1.389 . S
C5332 C5333 1.524 . S
C5332 C5346 1.377 . S
C5333 C5332 1.524 . S
C5333 C5334 1.397 . S
C5333 C5338 1.363 . S
C5334 H5311 0.950 . S
C5334 C5333 1.397 . S
C5334 C5335 1.334 . S
C5335 H5312 0.950 . S
C5335 C5334 1.334 . S
C5335 C5336 1.287 . S
C5336 C5335 1.287 . S
C5336 C5337 1.524 . S
C5336 H5355 0.913 . S
C5337 H5313 0.950 . S
C5337 C5336 1.524 . S
C5337 C5338 1.415 . S
C5338 H5314 0.950 . S
C5338 C5333 1.363 . S
C5338 C5337 1.415 . S
C5339 H5315 0.951 . S
C5339 C5340 1.366 . S
C5339 C5341 1.388 . S
C5340 C5339 1.366 . S
C5340 C5344 1.385 . S
C5341 H5316 0.951 . S
C5341 C5339 1.388 . S
C5341 C5342 1.366 . S
C5342 C5341 1.366 . S
C5342 C5343 1.414 . S
C5342 C5345 1.499 . S
C5343 H5317 0.950 . S
C5343 C5342 1.414 . S
C5343 C5344 1.374 . S
C5344 H5318 0.950 . S
C5344 C5340 1.385 . S
C5344 C5343 1.374 . S
C5345 C5342 1.499 . S
C5345 C5346 1.373 . S
C5345 C5347 1.389 . S
C5346 H5319 0.950 . S
C5346 C5332 1.377 . S
C5346 C5345 1.373 . S
C5347 C5331 1.377 . S
C5347 C5345 1.389 . S
C5347 C5348 1.524 . S
C5348 C5347 1.524 . S
C5348 C5349 1.397 . S
C5348 C5353 1.363 . S
C5349 H5320 0.950 . S
C5349 C5348 1.397 . S
C5349 C5350 1.334 . S
C5350 H5321 0.950 . S
C5350 C5349 1.334 . S
C5350 C5351 1.287 . S
C5351 C5350 1.287 . S
C5351 C5352 1.524 . S
C5351 H5354 0.999 . S
C5352 H5322 0.950 . S
C5352 C5351 1.524 . S
C5352 C5353 1.415 . S
C5353 H5323 0.950 . S
C5353 C5348 1.363 . S
C5353 C5352 1.415 . S
H5354 C5351 0.999 . S
H5355 C5336 0.913 . S
H5356 C5374 0.951 . S
H5357 C5376 0.951 . S
H5358 C5378 0.950 . S
H5359 C5379 0.950 . S
H5360 C5381 0.950 . S
H5361 C5384 0.950 . S
H5362 C5385 0.950 . S
H5363 C5387 0.950 . S
H5364 C5388 0.950 . S
H5365 C5389 0.951 . S
H5366 C5391 0.951 . S
H5367 C5393 0.950 . S
H5368 C5394 0.950 . S
H5369 C5396 0.950 . S
H5370 C5399 0.950 . S
H5371 C5400 0.950 . S
H5372 C5402 0.950 . S
H5373 C5403 0.950 . S
C5374 H5356 0.951 . S
C5374 C5375 1.366 . S
C5374 C5376 1.388 . S
C5375 C5374 1.366 . S
C5375 C5379 1.385 . S
C5376 H5357 0.951 . S
C5376 C5374 1.388 . S
C5376 C5377 1.366 . S
C5377 C5376 1.366 . S
C5377 C5378 1.414 . S
C5377 C5380 1.499 . S
C5378 H5358 0.950 . S
C5378 C5377 1.414 . S
C5378 C5379 1.374 . S
C5379 H5359 0.950 . S
C5379 C5375 1.385 . S
C5379 C5378 1.374 . S
C5380 C5377 1.499 . S
C5380 C5381 1.373 . S
C5380 C5382 1.389 . S
C5381 H5360 0.950 . S
C5381 C5380 1.373 . S
C5381 C5397 1.377 . S
C5382 C5380 1.389 . S
C5382 C5383 1.524 . S
C5382 C5396 1.377 . S
C5383 C5382 1.524 . S
C5383 C5384 1.397 . S
C5383 C5388 1.363 . S
C5384 H5361 0.950 . S
C5384 C5383 1.397 . S
C5384 C5385 1.334 . S
C5385 H5362 0.950 . S
C5385 C5384 1.334 . S
C5385 C5386 1.287 . S
C5386 C5385 1.287 . S
C5386 C5387 1.524 . S
C5386 H5405 0.913 . S
C5387 H5363 0.950 . S
C5387 C5386 1.524 . S
C5387 C5388 1.415 . S
C5388 H5364 0.950 . S
C5388 C5383 1.363 . S
C5388 C5387 1.415 . S
C5389 H5365 0.951 . S
C5389 C5390 1.366 . S
C5389 C5391 1.388 . S
C5390 C5389 1.366 . S
C5390 C5394 1.385 . S
C5391 H5366 0.951 . S
C5391 C5389 1.388 . S
C5391 C5392 1.366 . S
C5392 C5391 1.366 . S
C5392 C5393 1.414 . S
C5392 C5395 1.499 . S
C5393 H5367 0.950 . S
C5393 C5392 1.414 . S
C5393 C5394 1.374 . S
C5394 H5368 0.950 . S
C5394 C5390 1.385 . S
C5394 C5393 1.374 . S
C5395 C5392 1.499 . S
C5395 C5396 1.373 . S
C5395 C5397 1.389 . S
C5396 H5369 0.950 . S
C5396 C5382 1.377 . S
C5396 C5395 1.373 . S
C5397 C5381 1.377 . S
C5397 C5395 1.389 . S
C5397 C5398 1.524 1_455 S
C5398 C5397 1.524 1_655 S
C5398 C5399 1.397 . S
C5398 C5403 1.363 . S
C5399 H5370 0.950 . S
C5399 C5398 1.397 . S
C5399 C5400 1.334 . S
C5400 H5371 0.950 . S
C5400 C5399 1.334 . S
C5400 C5401 1.287 . S
C5401 C5400 1.287 . S
C5401 C5402 1.524 . S
C5401 H5404 0.999 . S
C5402 H5372 0.950 . S
C5402 C5401 1.524 . S
C5402 C5403 1.415 . S
C5403 H5373 0.950 . S
C5403 C5398 1.363 . S
C5403 C5402 1.415 . S
H5404 C5401 0.999 . S
H5405 C5386 0.913 . S
H5406 C5424 0.951 . S
H5407 C5426 0.951 . S
H5408 C5428 0.950 . S
H5409 C5429 0.950 . S
H5410 C5431 0.950 . S
H5411 C5434 0.950 . S
H5412 C5435 0.950 . S
H5413 C5437 0.950 . S
H5414 C5438 0.950 . S
H5415 C5439 0.951 . S
H5416 C5441 0.951 . S
H5417 C5443 0.950 . S
H5418 C5444 0.950 . S
H5419 C5446 0.950 . S
H5420 C5449 0.950 . S
H5421 C5450 0.950 . S
H5422 C5452 0.950 . S
H5423 C5453 0.950 . S
C5424 H5406 0.951 . S
C5424 C5425 1.366 . S
C5424 C5426 1.388 . S
C5425 C5424 1.366 . S
C5425 C5429 1.385 . S
C5426 H5407 0.951 . S
C5426 C5424 1.388 . S
C5426 C5427 1.366 . S
C5427 C5426 1.366 . S
C5427 C5428 1.414 . S
C5427 C5430 1.499 . S
C5428 H5408 0.950 . S
C5428 C5427 1.414 . S
C5428 C5429 1.374 . S
C5429 H5409 0.950 . S
C5429 C5425 1.385 . S
C5429 C5428 1.374 . S
C5430 C5427 1.499 . S
C5430 C5431 1.373 . S
C5430 C5432 1.389 . S
C5431 H5410 0.950 . S
C5431 C5430 1.373 . S
C5431 C5447 1.377 . S
C5432 C5430 1.389 . S
C5432 C5433 1.524 . S
C5432 C5446 1.377 . S
C5433 C5432 1.524 . S
C5433 C5434 1.397 . S
C5433 C5438 1.363 . S
C5434 H5411 0.950 . S
C5434 C5433 1.397 . S
C5434 C5435 1.334 . S
C5435 H5412 0.950 . S
C5435 C5434 1.334 . S
C5435 C5436 1.287 . S
C5436 C5435 1.287 . S
C5436 C5437 1.524 . S
C5436 H5455 0.913 . S
C5437 H5413 0.950 . S
C5437 C5436 1.524 . S
C5437 C5438 1.415 . S
C5438 H5414 0.950 . S
C5438 C5433 1.363 . S
C5438 C5437 1.415 . S
C5439 H5415 0.951 . S
C5439 C5440 1.366 . S
C5439 C5441 1.388 . S
C5440 C5439 1.366 . S
C5440 C5444 1.385 . S
C5441 H5416 0.951 . S
C5441 C5439 1.388 . S
C5441 C5442 1.366 . S
C5442 C5441 1.366 . S
C5442 C5443 1.414 . S
C5442 C5445 1.499 . S
C5443 H5417 0.950 . S
C5443 C5442 1.414 . S
C5443 C5444 1.374 . S
C5444 H5418 0.950 . S
C5444 C5440 1.385 . S
C5444 C5443 1.374 . S
C5445 C5442 1.499 . S
C5445 C5446 1.373 . S
C5445 C5447 1.389 . S
C5446 H5419 0.950 . S
C5446 C5432 1.377 . S
C5446 C5445 1.373 . S
C5447 C5431 1.377 . S
C5447 C5445 1.389 . S
C5447 C5448 1.524 . S
C5448 C5447 1.524 . S
C5448 C5449 1.397 . S
C5448 C5453 1.363 . S
C5449 H5420 0.950 . S
C5449 C5448 1.397 . S
C5449 C5450 1.334 . S
C5450 H5421 0.950 . S
C5450 C5449 1.334 . S
C5450 C5451 1.287 . S
C5451 C5450 1.287 . S
C5451 C5452 1.524 . S
C5451 H5454 0.999 . S
C5452 H5422 0.950 . S
C5452 C5451 1.524 . S
C5452 C5453 1.415 . S
C5453 H5423 0.950 . S
C5453 C5448 1.363 . S
C5453 C5452 1.415 . S
H5454 C5451 0.999 . S
H5455 C5436 0.913 . S
H5456 C5474 0.951 . S
H5457 C5476 0.951 . S
H5458 C5478 0.950 . S
H5459 C5479 0.950 . S
H5460 C5481 0.950 . S
H5461 C5484 0.950 . S
H5462 C5485 0.950 . S
H5463 C5487 0.950 . S
H5464 C5488 0.950 . S
H5465 C5489 0.951 . S
H5466 C5491 0.951 . S
H5467 C5493 0.950 . S
H5468 C5494 0.950 . S
H5469 C5496 0.950 . S
H5470 C5499 0.950 . S
H5471 C5500 0.950 . S
H5472 C5502 0.950 . S
H5473 C5503 0.950 . S
C5474 H5456 0.951 . S
C5474 C5475 1.366 . S
C5474 C5476 1.388 . S
C5475 C5474 1.366 . S
C5475 C5479 1.385 . S
C5476 H5457 0.951 . S
C5476 C5474 1.388 . S
C5476 C5477 1.366 . S
C5477 C5476 1.366 . S
C5477 C5478 1.414 . S
C5477 C5480 1.499 . S
C5478 H5458 0.950 . S
C5478 C5477 1.414 . S
C5478 C5479 1.374 . S
C5479 H5459 0.950 . S
C5479 C5475 1.385 . S
C5479 C5478 1.374 . S
C5480 C5477 1.499 . S
C5480 C5481 1.373 . S
C5480 C5482 1.389 . S
C5481 H5460 0.950 . S
C5481 C5480 1.373 . S
C5481 C5497 1.377 . S
C5482 C5480 1.389 . S
C5482 C5483 1.524 . S
C5482 C5496 1.377 . S
C5483 C5482 1.524 . S
C5483 C5484 1.397 . S
C5483 C5488 1.363 . S
C5484 H5461 0.950 . S
C5484 C5483 1.397 . S
C5484 C5485 1.334 . S
C5485 H5462 0.950 . S
C5485 C5484 1.334 . S
C5485 C5486 1.287 . S
C5486 C5485 1.287 . S
C5486 C5487 1.524 . S
C5486 H5505 0.913 . S
C5487 H5463 0.950 . S
C5487 C5486 1.524 . S
C5487 C5488 1.415 . S
C5488 H5464 0.950 . S
C5488 C5483 1.363 . S
C5488 C5487 1.415 . S
C5489 H5465 0.951 . S
C5489 C5490 1.366 . S
C5489 C5491 1.388 . S
C5490 C5489 1.366 . S
C5490 C5494 1.385 . S
C5491 H5466 0.951 . S
C5491 C5489 1.388 . S
C5491 C5492 1.366 . S
C5492 C5491 1.366 . S
C5492 C5493 1.414 . S
C5492 C5495 1.499 . S
C5493 H5467 0.950 . S
C5493 C5492 1.414 . S
C5493 C5494 1.374 . S
C5494 H5468 0.950 . S
C5494 C5490 1.385 . S
C5494 C5493 1.374 . S
C5495 C5492 1.499 . S
C5495 C5496 1.373 . S
C5495 C5497 1.389 . S
C5496 H5469 0.950 . S
C5496 C5482 1.377 . S
C5496 C5495 1.373 . S
C5497 C5481 1.377 . S
C5497 C5495 1.389 . S
C5497 C5498 1.524 . S
C5498 C5497 1.524 . S
C5498 C5499 1.397 . S
C5498 C5503 1.363 . S
C5499 H5470 0.950 . S
C5499 C5498 1.397 . S
C5499 C5500 1.334 . S
C5500 H5471 0.950 . S
C5500 C5499 1.334 . S
C5500 C5501 1.287 . S
C5501 C5500 1.287 . S
C5501 C5502 1.524 . S
C5501 H5504 0.999 . S
C5502 H5472 0.950 . S
C5502 C5501 1.524 . S
C5502 C5503 1.415 . S
C5503 H5473 0.950 . S
C5503 C5498 1.363 . S
C5503 C5502 1.415 . S
H5504 C5501 0.999 . S
H5505 C5486 0.913 . S
H5506 C5524 0.951 . S
H5507 C5526 0.951 . S
H5508 C5528 0.950 . S
H5509 C5529 0.950 . S
H5510 C5531 0.950 . S
H5511 C5534 0.950 . S
H5512 C5535 0.950 . S
H5513 C5537 0.950 . S
H5514 C5538 0.950 . S
H5515 C5539 0.951 . S
H5516 C5541 0.951 . S
H5517 C5543 0.950 . S
H5518 C5544 0.950 . S
H5519 C5546 0.950 . S
H5520 C5549 0.950 . S
H5521 C5550 0.950 . S
H5522 C5552 0.950 . S
H5523 C5553 0.950 . S
C5524 H5506 0.951 . S
C5524 C5525 1.366 . S
C5524 C5526 1.388 . S
C5525 C5524 1.366 . S
C5525 C5529 1.385 . S
C5526 H5507 0.951 . S
C5526 C5524 1.388 . S
C5526 C5527 1.366 . S
C5527 C5526 1.366 . S
C5527 C5528 1.414 . S
C5527 C5530 1.499 . S
C5528 H5508 0.950 . S
C5528 C5527 1.414 . S
C5528 C5529 1.374 . S
C5529 H5509 0.950 . S
C5529 C5525 1.385 . S
C5529 C5528 1.374 . S
C5530 C5527 1.499 . S
C5530 C5531 1.373 . S
C5530 C5532 1.389 . S
C5531 H5510 0.950 . S
C5531 C5530 1.373 . S
C5531 C5547 1.377 . S
C5532 C5530 1.389 . S
C5532 C5533 1.524 . S
C5532 C5546 1.377 . S
C5533 C5532 1.524 . S
C5533 C5534 1.397 . S
C5533 C5538 1.363 . S
C5534 H5511 0.950 . S
C5534 C5533 1.397 . S
C5534 C5535 1.334 . S
C5535 H5512 0.950 . S
C5535 C5534 1.334 . S
C5535 C5536 1.287 . S
C5536 C5535 1.287 . S
C5536 C5537 1.524 . S
C5536 H5555 0.913 . S
C5537 H5513 0.950 . S
C5537 C5536 1.524 . S
C5537 C5538 1.415 . S
C5538 H5514 0.950 . S
C5538 C5533 1.363 . S
C5538 C5537 1.415 . S
C5539 H5515 0.951 . S
C5539 C5540 1.366 . S
C5539 C5541 1.388 . S
C5540 C5539 1.366 . S
C5540 C5544 1.385 . S
C5541 H5516 0.951 . S
C5541 C5539 1.388 . S
C5541 C5542 1.366 . S
C5542 C5541 1.366 . S
C5542 C5543 1.414 . S
C5542 C5545 1.499 . S
C5543 H5517 0.950 . S
C5543 C5542 1.414 . S
C5543 C5544 1.374 . S
C5544 H5518 0.950 . S
C5544 C5540 1.385 . S
C5544 C5543 1.374 . S
C5545 C5542 1.499 . S
C5545 C5546 1.373 . S
C5545 C5547 1.389 . S
C5546 H5519 0.950 . S
C5546 C5532 1.377 . S
C5546 C5545 1.373 . S
C5547 C5531 1.377 . S
C5547 C5545 1.389 . S
C5547 C5548 1.524 . S
C5548 C5547 1.524 . S
C5548 C5549 1.397 . S
C5548 C5553 1.363 . S
C5549 H5520 0.950 . S
C5549 C5548 1.397 . S
C5549 C5550 1.334 . S
C5550 H5521 0.950 . S
C5550 C5549 1.334 . S
C5550 C5551 1.287 . S
C5551 C5550 1.287 . S
C5551 C5552 1.524 . S
C5551 H5554 0.999 . S
C5552 H5522 0.950 . S
C5552 C5551 1.524 . S
C5552 C5553 1.415 . S
C5553 H5523 0.950 . S
C5553 C5548 1.363 . S
C5553 C5552 1.415 . S
H5554 C5551 0.999 . S
H5555 C5536 0.913 . S
H5556 C5574 0.951 . S
H5557 C5576 0.951 . S
H5558 C5578 0.950 . S
H5559 C5579 0.950 . S
H5560 C5581 0.950 . S
H5561 C5584 0.950 1_655 S
H5562 C5585 0.950 . S
H5563 C5587 0.950 . S
H5564 C5588 0.950 . S
H5565 C5589 0.951 . S
H5566 C5591 0.951 . S
H5567 C5593 0.950 . S
H5568 C5594 0.950 . S
H5569 C5596 0.950 . S
H5570 C5599 0.950 . S
H5571 C5600 0.950 . S
H5572 C5602 0.950 . S
H5573 C5603 0.950 . S
C5574 H5556 0.951 . S
C5574 C5575 1.366 . S
C5574 C5576 1.388 . S
C5575 C5574 1.366 . S
C5575 C5579 1.385 . S
C5576 H5557 0.951 . S
C5576 C5574 1.388 . S
C5576 C5577 1.366 . S
C5577 C5576 1.366 . S
C5577 C5578 1.414 . S
C5577 C5580 1.499 . S
C5578 H5558 0.950 . S
C5578 C5577 1.414 . S
C5578 C5579 1.374 . S
C5579 H5559 0.950 . S
C5579 C5575 1.385 . S
C5579 C5578 1.374 . S
C5580 C5577 1.499 . S
C5580 C5581 1.373 . S
C5580 C5582 1.389 . S
C5581 H5560 0.950 . S
C5581 C5580 1.373 . S
C5581 C5597 1.377 . S
C5582 C5580 1.389 . S
C5582 C5583 1.524 . S
C5582 C5596 1.377 . S
C5583 C5582 1.524 . S
C5583 C5584 1.397 . S
C5583 C5588 1.363 . S
C5584 H5561 0.950 1_455 S
C5584 C5583 1.397 . S
C5584 C5585 1.334 1_455 S
C5585 H5562 0.950 . S
C5585 C5584 1.334 1_655 S
C5585 C5586 1.287 1_655 S
C5586 C5585 1.287 1_455 S
C5586 C5587 1.524 . S
C5586 H5605 0.914 . S
C5587 H5563 0.950 . S
C5587 C5586 1.524 . S
C5587 C5588 1.415 . S
C5588 H5564 0.950 . S
C5588 C5583 1.363 . S
C5588 C5587 1.415 . S
C5589 H5565 0.951 . S
C5589 C5590 1.366 . S
C5589 C5591 1.388 . S
C5590 C5589 1.366 . S
C5590 C5594 1.385 . S
C5591 H5566 0.951 . S
C5591 C5589 1.388 . S
C5591 C5592 1.366 . S
C5592 C5591 1.366 . S
C5592 C5593 1.414 . S
C5592 C5595 1.499 . S
C5593 H5567 0.950 . S
C5593 C5592 1.414 . S
C5593 C5594 1.374 . S
C5594 H5568 0.950 . S
C5594 C5590 1.385 . S
C5594 C5593 1.374 . S
C5595 C5592 1.499 . S
C5595 C5596 1.373 . S
C5595 C5597 1.389 . S
C5596 H5569 0.950 . S
C5596 C5582 1.377 . S
C5596 C5595 1.373 . S
C5597 C5581 1.377 . S
C5597 C5595 1.389 . S
C5597 C5598 1.524 . S
C5598 C5597 1.524 . S
C5598 C5599 1.397 . S
C5598 C5603 1.363 . S
C5599 H5570 0.950 . S
C5599 C5598 1.397 . S
C5599 C5600 1.334 . S
C5600 H5571 0.950 . S
C5600 C5599 1.334 . S
C5600 C5601 1.287 . S
C5601 C5600 1.287 . S
C5601 C5602 1.524 . S
C5601 H5604 0.999 . S
C5602 H5572 0.950 . S
C5602 C5601 1.524 . S
C5602 C5603 1.415 . S
C5603 H5573 0.950 . S
C5603 C5598 1.363 . S
C5603 C5602 1.415 . S
H5604 C5601 0.999 . S
H5605 C5586 0.914 . S
H5606 C5624 0.951 . S
H5607 C5626 0.951 . S
H5608 C5628 0.950 . S
H5609 C5629 0.950 . S
H5610 C5631 0.950 . S
H5611 C5634 0.950 . S
H5612 C5635 0.950 . S
H5613 C5637 0.950 . S
H5614 C5638 0.950 . S
H5615 C5639 0.951 . S
H5616 C5641 0.951 . S
H5617 C5643 0.950 . S
H5618 C5644 0.950 . S
H5619 C5646 0.950 . S
H5620 C5649 0.950 . S
H5621 C5650 0.950 . S
H5622 C5652 0.950 . S
H5623 C5653 0.950 . S
C5624 H5606 0.951 . S
C5624 C5625 1.366 . S
C5624 C5626 1.388 . S
C5625 C5624 1.366 . S
C5625 C5629 1.385 . S
C5626 H5607 0.951 . S
C5626 C5624 1.388 . S
C5626 C5627 1.366 . S
C5627 C5626 1.366 . S
C5627 C5628 1.414 . S
C5627 C5630 1.499 . S
C5628 H5608 0.950 . S
C5628 C5627 1.414 . S
C5628 C5629 1.374 . S
C5629 H5609 0.950 . S
C5629 C5625 1.385 . S
C5629 C5628 1.374 . S
C5630 C5627 1.499 . S
C5630 C5631 1.373 . S
C5630 C5632 1.389 . S
C5631 H5610 0.950 . S
C5631 C5630 1.373 . S
C5631 C5647 1.377 . S
C5632 C5630 1.389 . S
C5632 C5633 1.524 . S
C5632 C5646 1.377 . S
C5633 C5632 1.524 . S
C5633 C5634 1.397 . S
C5633 C5638 1.363 . S
C5634 H5611 0.950 . S
C5634 C5633 1.397 . S
C5634 C5635 1.334 . S
C5635 H5612 0.950 . S
C5635 C5634 1.334 . S
C5635 C5636 1.287 . S
C5636 C5635 1.287 . S
C5636 C5637 1.524 . S
C5636 H5655 0.913 . S
C5637 H5613 0.950 . S
C5637 C5636 1.524 . S
C5637 C5638 1.415 . S
C5638 H5614 0.950 . S
C5638 C5633 1.363 . S
C5638 C5637 1.415 . S
C5639 H5615 0.951 . S
C5639 C5640 1.366 . S
C5639 C5641 1.388 . S
C5640 C5639 1.366 . S
C5640 C5644 1.385 . S
C5641 H5616 0.951 . S
C5641 C5639 1.388 . S
C5641 C5642 1.366 . S
C5642 C5641 1.366 . S
C5642 C5643 1.414 . S
C5642 C5645 1.499 . S
C5643 H5617 0.950 . S
C5643 C5642 1.414 . S
C5643 C5644 1.374 . S
C5644 H5618 0.950 . S
C5644 C5640 1.385 . S
C5644 C5643 1.374 . S
C5645 C5642 1.499 . S
C5645 C5646 1.373 . S
C5645 C5647 1.389 . S
C5646 H5619 0.950 . S
C5646 C5632 1.377 . S
C5646 C5645 1.373 . S
C5647 C5631 1.377 . S
C5647 C5645 1.389 . S
C5647 C5648 1.524 . S
C5648 C5647 1.524 . S
C5648 C5649 1.397 . S
C5648 C5653 1.363 . S
C5649 H5620 0.950 . S
C5649 C5648 1.397 . S
C5649 C5650 1.334 . S
C5650 H5621 0.950 . S
C5650 C5649 1.334 . S
C5650 C5651 1.287 . S
C5651 C5650 1.287 . S
C5651 C5652 1.524 . S
C5651 H5654 0.999 . S
C5652 H5622 0.950 . S
C5652 C5651 1.524 . S
C5652 C5653 1.415 . S
C5653 H5623 0.950 . S
C5653 C5648 1.363 . S
C5653 C5652 1.415 . S
H5654 C5651 0.999 . S
H5655 C5636 0.913 . S
H5656 C5674 0.951 . S
H5657 C5676 0.951 . S
H5658 C5678 0.950 . S
H5659 C5679 0.950 . S
H5660 C5681 0.950 . S
H5661 C5684 0.950 . S
H5662 C5685 0.950 . S
H5663 C5687 0.950 . S
H5664 C5688 0.950 . S
H5665 C5689 0.951 . S
H5666 C5691 0.951 . S
H5667 C5693 0.950 . S
H5668 C5694 0.950 . S
H5669 C5696 0.950 . S
H5670 C5699 0.950 . S
H5671 C5700 0.950 . S
H5672 C5702 0.950 . S
H5673 C5703 0.950 . S
C5674 H5656 0.951 . S
C5674 C5675 1.366 . S
C5674 C5676 1.388 . S
C5675 C5674 1.366 . S
C5675 C5679 1.385 . S
C5676 H5657 0.951 . S
C5676 C5674 1.388 . S
C5676 C5677 1.366 . S
C5677 C5676 1.366 . S
C5677 C5678 1.414 . S
C5677 C5680 1.499 . S
C5678 H5658 0.950 . S
C5678 C5677 1.414 . S
C5678 C5679 1.374 . S
C5679 H5659 0.950 . S
C5679 C5675 1.385 . S
C5679 C5678 1.374 . S
C5680 C5677 1.499 . S
C5680 C5681 1.373 . S
C5680 C5682 1.389 . S
C5681 H5660 0.950 . S
C5681 C5680 1.373 . S
C5681 C5697 1.377 . S
C5682 C5680 1.389 . S
C5682 C5683 1.524 . S
C5682 C5696 1.377 . S
C5683 C5682 1.524 . S
C5683 C5684 1.397 . S
C5683 C5688 1.363 . S
C5684 H5661 0.950 . S
C5684 C5683 1.397 . S
C5684 C5685 1.334 . S
C5685 H5662 0.950 . S
C5685 C5684 1.334 . S
C5685 C5686 1.287 . S
C5686 C5685 1.287 . S
C5686 C5687 1.524 . S
C5686 H5705 0.913 . S
C5687 H5663 0.950 . S
C5687 C5686 1.524 . S
C5687 C5688 1.415 . S
C5688 H5664 0.950 . S
C5688 C5683 1.363 . S
C5688 C5687 1.415 . S
C5689 H5665 0.951 . S
C5689 C5690 1.366 . S
C5689 C5691 1.388 . S
C5690 C5689 1.366 . S
C5690 C5694 1.385 . S
C5691 H5666 0.951 . S
C5691 C5689 1.388 . S
C5691 C5692 1.366 . S
C5692 C5691 1.366 . S
C5692 C5693 1.414 . S
C5692 C5695 1.499 . S
C5693 H5667 0.950 . S
C5693 C5692 1.414 . S
C5693 C5694 1.374 . S
C5694 H5668 0.950 . S
C5694 C5690 1.385 . S
C5694 C5693 1.374 . S
C5695 C5692 1.499 . S
C5695 C5696 1.373 . S
C5695 C5697 1.389 . S
C5696 H5669 0.950 . S
C5696 C5682 1.377 . S
C5696 C5695 1.373 . S
C5697 C5681 1.377 . S
C5697 C5695 1.389 . S
C5697 C5698 1.524 . S
C5698 C5697 1.524 . S
C5698 C5699 1.397 . S
C5698 C5703 1.363 . S
C5699 H5670 0.950 . S
C5699 C5698 1.397 . S
C5699 C5700 1.334 . S
C5700 H5671 0.950 . S
C5700 C5699 1.334 . S
C5700 C5701 1.287 . S
C5701 C5700 1.287 . S
C5701 C5702 1.524 . S
C5701 H5704 0.999 . S
C5702 H5672 0.950 . S
C5702 C5701 1.524 . S
C5702 C5703 1.415 . S
C5703 H5673 0.950 . S
C5703 C5698 1.363 . S
C5703 C5702 1.415 . S
H5704 C5701 0.999 . S
H5705 C5686 0.913 . S
H5706 C5724 0.951 . S
H5707 C5726 0.951 . S
H5708 C5728 0.950 . S
H5709 C5729 0.950 . S
H5710 C5731 0.950 . S
H5711 C5734 0.950 . S
H5712 C5735 0.950 . S
H5713 C5737 0.950 . S
H5714 C5738 0.950 . S
H5715 C5739 0.951 . S
H5716 C5741 0.951 . S
H5717 C5743 0.950 . S
H5718 C5744 0.950 . S
H5719 C5746 0.950 . S
H5720 C5749 0.950 . S
H5721 C5750 0.950 . S
H5722 C5752 0.950 . S
H5723 C5753 0.950 . S
C5724 H5706 0.951 . S
C5724 C5725 1.366 . S
C5724 C5726 1.388 . S
C5725 C5724 1.366 . S
C5725 C5729 1.385 . S
C5726 H5707 0.951 . S
C5726 C5724 1.388 . S
C5726 C5727 1.366 . S
C5727 C5726 1.366 . S
C5727 C5728 1.414 . S
C5727 C5730 1.499 . S
C5728 H5708 0.950 . S
C5728 C5727 1.414 . S
C5728 C5729 1.374 . S
C5729 H5709 0.950 . S
C5729 C5725 1.385 . S
C5729 C5728 1.374 . S
C5730 C5727 1.499 . S
C5730 C5731 1.373 . S
C5730 C5732 1.389 . S
C5731 H5710 0.950 . S
C5731 C5730 1.373 . S
C5731 C5747 1.377 . S
C5732 C5730 1.389 . S
C5732 C5733 1.524 . S
C5732 C5746 1.377 . S
C5733 C5732 1.524 . S
C5733 C5734 1.397 . S
C5733 C5738 1.363 . S
C5734 H5711 0.950 . S
C5734 C5733 1.397 . S
C5734 C5735 1.334 . S
C5735 H5712 0.950 . S
C5735 C5734 1.334 . S
C5735 C5736 1.287 . S
C5736 C5735 1.287 . S
C5736 C5737 1.524 . S
C5736 H5755 0.913 . S
C5737 H5713 0.950 . S
C5737 C5736 1.524 . S
C5737 C5738 1.415 . S
C5738 H5714 0.950 . S
C5738 C5733 1.363 . S
C5738 C5737 1.415 . S
C5739 H5715 0.951 . S
C5739 C5740 1.366 . S
C5739 C5741 1.388 . S
C5740 C5739 1.366 . S
C5740 C5744 1.385 . S
C5741 H5716 0.951 . S
C5741 C5739 1.388 . S
C5741 C5742 1.366 . S
C5742 C5741 1.366 . S
C5742 C5743 1.414 . S
C5742 C5745 1.499 . S
C5743 H5717 0.950 . S
C5743 C5742 1.414 . S
C5743 C5744 1.374 . S
C5744 H5718 0.950 . S
C5744 C5740 1.385 . S
C5744 C5743 1.374 . S
C5745 C5742 1.499 . S
C5745 C5746 1.373 . S
C5745 C5747 1.389 . S
C5746 H5719 0.950 . S
C5746 C5732 1.377 . S
C5746 C5745 1.373 . S
C5747 C5731 1.377 . S
C5747 C5745 1.389 . S
C5747 C5748 1.524 . S
C5748 C5747 1.524 . S
C5748 C5749 1.397 . S
C5748 C5753 1.363 . S
C5749 H5720 0.950 . S
C5749 C5748 1.397 . S
C5749 C5750 1.334 . S
C5750 H5721 0.950 . S
C5750 C5749 1.334 . S
C5750 C5751 1.287 . S
C5751 C5750 1.287 . S
C5751 C5752 1.524 . S
C5751 H5754 0.999 . S
C5752 H5722 0.950 . S
C5752 C5751 1.524 . S
C5752 C5753 1.415 . S
C5753 H5723 0.950 . S
C5753 C5748 1.363 . S
C5753 C5752 1.415 . S
H5754 C5751 0.999 . S
H5755 C5736 0.913 . S
H5756 C5774 0.951 . S
H5757 C5776 0.951 . S
H5758 C5778 0.950 . S
H5759 C5779 0.950 . S
H5760 C5781 0.950 . S
H5761 C5784 0.950 . S
H5762 C5785 0.950 . S
H5763 C5787 0.950 . S
H5764 C5788 0.950 . S
H5765 C5789 0.951 . S
H5766 C5791 0.951 . S
H5767 C5793 0.950 . S
H5768 C5794 0.950 1_455 S
H5769 C5796 0.950 . S
H5770 C5799 0.950 . S
H5771 C5800 0.950 . S
H5772 C5802 0.950 . S
H5773 C5803 0.950 . S
C5774 H5756 0.951 . S
C5774 C5775 1.366 . S
C5774 C5776 1.388 . S
C5775 C5774 1.366 . S
C5775 C5779 1.385 . S
C5776 H5757 0.951 . S
C5776 C5774 1.388 . S
C5776 C5777 1.366 . S
C5777 C5776 1.366 . S
C5777 C5778 1.414 . S
C5777 C5780 1.499 . S
C5778 H5758 0.950 . S
C5778 C5777 1.414 . S
C5778 C5779 1.374 . S
C5779 H5759 0.950 . S
C5779 C5775 1.385 . S
C5779 C5778 1.374 . S
C5780 C5777 1.499 . S
C5780 C5781 1.373 . S
C5780 C5782 1.389 . S
C5781 H5760 0.950 . S
C5781 C5780 1.373 . S
C5781 C5797 1.377 . S
C5782 C5780 1.389 . S
C5782 C5783 1.524 . S
C5782 C5796 1.377 . S
C5783 C5782 1.524 . S
C5783 C5784 1.397 . S
C5783 C5788 1.363 . S
C5784 H5761 0.950 . S
C5784 C5783 1.397 . S
C5784 C5785 1.334 . S
C5785 H5762 0.950 . S
C5785 C5784 1.334 . S
C5785 C5786 1.287 . S
C5786 C5785 1.287 . S
C5786 C5787 1.524 . S
C5786 H5805 0.913 . S
C5787 H5763 0.950 . S
C5787 C5786 1.524 . S
C5787 C5788 1.415 . S
C5788 H5764 0.950 . S
C5788 C5783 1.363 . S
C5788 C5787 1.415 . S
C5789 H5765 0.951 . S
C5789 C5790 1.366 . S
C5789 C5791 1.388 . S
C5790 C5789 1.366 . S
C5790 C5794 1.385 . S
C5791 H5766 0.951 . S
C5791 C5789 1.388 . S
C5791 C5792 1.366 . S
C5792 C5791 1.366 . S
C5792 C5793 1.414 . S
C5792 C5795 1.499 . S
C5793 H5767 0.950 . S
C5793 C5792 1.414 . S
C5793 C5794 1.374 . S
C5794 H5768 0.950 1_655 S
C5794 C5790 1.385 . S
C5794 C5793 1.374 . S
C5795 C5792 1.499 . S
C5795 C5796 1.373 . S
C5795 C5797 1.389 . S
C5796 H5769 0.950 . S
C5796 C5782 1.377 . S
C5796 C5795 1.373 . S
C5797 C5781 1.377 . S
C5797 C5795 1.389 . S
C5797 C5798 1.524 . S
C5798 C5797 1.524 . S
C5798 C5799 1.397 . S
C5798 C5803 1.363 . S
C5799 H5770 0.950 . S
C5799 C5798 1.397 . S
C5799 C5800 1.334 . S
C5800 H5771 0.950 . S
C5800 C5799 1.334 . S
C5800 C5801 1.287 . S
C5801 C5800 1.287 . S
C5801 C5802 1.524 . S
C5801 H5804 0.999 . S
C5802 H5772 0.950 . S
C5802 C5801 1.524 . S
C5802 C5803 1.415 . S
C5803 H5773 0.950 . S
C5803 C5798 1.363 . S
C5803 C5802 1.415 . S
H5804 C5801 0.999 . S
H5805 C5786 0.913 . S
H5806 C5824 0.951 . S
H5807 C5826 0.951 . S
H5808 C5828 0.950 . S
H5809 C5829 0.950 . S
H5810 C5831 0.950 . S
H5811 C5834 0.950 . S
H5812 C5835 0.950 . S
H5813 C5837 0.950 . S
H5814 C5838 0.950 . S
H5815 C5839 0.951 . S
H5816 C5841 0.951 . S
H5817 C5843 0.950 . S
H5818 C5844 0.950 . S
H5819 C5846 0.950 . S
H5820 C5849 0.950 . S
H5821 C5850 0.950 . S
H5822 C5852 0.950 . S
H5823 C5853 0.950 . S
C5824 H5806 0.951 . S
C5824 C5825 1.366 . S
C5824 C5826 1.388 . S
C5825 C5824 1.366 . S
C5825 C5829 1.385 . S
C5826 H5807 0.951 . S
C5826 C5824 1.388 . S
C5826 C5827 1.366 . S
C5827 C5826 1.366 . S
C5827 C5828 1.414 . S
C5827 C5830 1.499 . S
C5828 H5808 0.950 . S
C5828 C5827 1.414 . S
C5828 C5829 1.374 . S
C5829 H5809 0.950 . S
C5829 C5825 1.385 . S
C5829 C5828 1.374 . S
C5830 C5827 1.499 . S
C5830 C5831 1.373 . S
C5830 C5832 1.389 . S
C5831 H5810 0.950 . S
C5831 C5830 1.373 . S
C5831 C5847 1.377 . S
C5832 C5830 1.389 . S
C5832 C5833 1.524 . S
C5832 C5846 1.377 . S
C5833 C5832 1.524 . S
C5833 C5834 1.397 . S
C5833 C5838 1.363 . S
C5834 H5811 0.950 . S
C5834 C5833 1.397 . S
C5834 C5835 1.334 . S
C5835 H5812 0.950 . S
C5835 C5834 1.334 . S
C5835 C5836 1.287 . S
C5836 C5835 1.287 . S
C5836 C5837 1.524 . S
C5836 H5855 0.913 . S
C5837 H5813 0.950 . S
C5837 C5836 1.524 . S
C5837 C5838 1.415 . S
C5838 H5814 0.950 . S
C5838 C5833 1.363 . S
C5838 C5837 1.415 . S
C5839 H5815 0.951 . S
C5839 C5840 1.366 . S
C5839 C5841 1.388 . S
C5840 C5839 1.366 . S
C5840 C5844 1.385 . S
C5841 H5816 0.951 . S
C5841 C5839 1.388 . S
C5841 C5842 1.366 . S
C5842 C5841 1.366 . S
C5842 C5843 1.414 . S
C5842 C5845 1.499 . S
C5843 H5817 0.950 . S
C5843 C5842 1.414 . S
C5843 C5844 1.374 . S
C5844 H5818 0.950 . S
C5844 C5840 1.385 . S
C5844 C5843 1.374 . S
C5845 C5842 1.499 . S
C5845 C5846 1.373 . S
C5845 C5847 1.389 . S
C5846 H5819 0.950 . S
C5846 C5832 1.377 . S
C5846 C5845 1.373 . S
C5847 C5831 1.377 . S
C5847 C5845 1.389 . S
C5847 C5848 1.524 . S
C5848 C5847 1.524 . S
C5848 C5849 1.397 . S
C5848 C5853 1.363 . S
C5849 H5820 0.950 . S
C5849 C5848 1.397 . S
C5849 C5850 1.334 . S
C5850 H5821 0.950 . S
C5850 C5849 1.334 . S
C5850 C5851 1.287 . S
C5851 C5850 1.287 . S
C5851 C5852 1.524 . S
C5851 H5854 0.999 . S
C5852 H5822 0.950 . S
C5852 C5851 1.524 . S
C5852 C5853 1.415 . S
C5853 H5823 0.950 . S
C5853 C5848 1.363 . S
C5853 C5852 1.415 . S
H5854 C5851 0.999 . S
H5855 C5836 0.913 . S
H5856 C5874 0.951 . S
H5857 C5876 0.951 . S
H5858 C5878 0.950 . S
H5859 C5879 0.950 . S
H5860 C5881 0.950 . S
H5861 C5884 0.950 . S
H5862 C5885 0.950 . S
H5863 C5887 0.950 . S
H5864 C5888 0.950 . S
H5865 C5889 0.951 . S
H5866 C5891 0.951 . S
H5867 C5893 0.950 . S
H5868 C5894 0.950 . S
H5869 C5896 0.950 . S
H5870 C5899 0.950 . S
H5871 C5900 0.950 . S
H5872 C5902 0.950 . S
H5873 C5903 0.950 . S
C5874 H5856 0.951 . S
C5874 C5875 1.366 . S
C5874 C5876 1.388 . S
C5875 C5874 1.366 . S
C5875 C5879 1.385 . S
C5876 H5857 0.951 . S
C5876 C5874 1.388 . S
C5876 C5877 1.366 . S
C5877 C5876 1.366 . S
C5877 C5878 1.414 . S
C5877 C5880 1.499 . S
C5878 H5858 0.950 . S
C5878 C5877 1.414 . S
C5878 C5879 1.374 . S
C5879 H5859 0.950 . S
C5879 C5875 1.385 . S
C5879 C5878 1.374 . S
C5880 C5877 1.499 . S
C5880 C5881 1.373 . S
C5880 C5882 1.389 . S
C5881 H5860 0.950 . S
C5881 C5880 1.373 . S
C5881 C5897 1.377 . S
C5882 C5880 1.389 . S
C5882 C5883 1.524 . S
C5882 C5896 1.377 . S
C5883 C5882 1.524 . S
C5883 C5884 1.397 . S
C5883 C5888 1.363 . S
C5884 H5861 0.950 . S
C5884 C5883 1.397 . S
C5884 C5885 1.334 . S
C5885 H5862 0.950 . S
C5885 C5884 1.334 . S
C5885 C5886 1.287 . S
C5886 C5885 1.287 . S
C5886 C5887 1.524 . S
C5886 H5905 0.913 . S
C5887 H5863 0.950 . S
C5887 C5886 1.524 . S
C5887 C5888 1.415 . S
C5888 H5864 0.950 . S
C5888 C5883 1.363 . S
C5888 C5887 1.415 . S
C5889 H5865 0.951 . S
C5889 C5890 1.366 . S
C5889 C5891 1.388 . S
C5890 C5889 1.366 . S
C5890 C5894 1.385 . S
C5891 H5866 0.951 . S
C5891 C5889 1.388 . S
C5891 C5892 1.366 . S
C5892 C5891 1.366 . S
C5892 C5893 1.414 . S
C5892 C5895 1.499 . S
C5893 H5867 0.950 . S
C5893 C5892 1.414 . S
C5893 C5894 1.374 . S
C5894 H5868 0.950 . S
C5894 C5890 1.385 . S
C5894 C5893 1.374 . S
C5895 C5892 1.499 . S
C5895 C5896 1.373 . S
C5895 C5897 1.389 . S
C5896 H5869 0.950 . S
C5896 C5882 1.377 . S
C5896 C5895 1.373 . S
C5897 C5881 1.377 . S
C5897 C5895 1.389 . S
C5897 C5898 1.524 . S
C5898 C5897 1.524 . S
C5898 C5899 1.397 . S
C5898 C5903 1.363 . S
C5899 H5870 0.950 . S
C5899 C5898 1.397 . S
C5899 C5900 1.334 . S
C5900 H5871 0.950 . S
C5900 C5899 1.334 . S
C5900 C5901 1.287 . S
C5901 C5900 1.287 . S
C5901 C5902 1.524 . S
C5901 H5904 0.999 . S
C5902 H5872 0.950 . S
C5902 C5901 1.524 . S
C5902 C5903 1.415 . S
C5903 H5873 0.950 . S
C5903 C5898 1.363 . S
C5903 C5902 1.415 . S
H5904 C5901 0.999 . S
H5905 C5886 0.913 . S
H5906 C5924 0.951 . S
H5907 C5926 0.951 . S
H5908 C5928 0.950 . S
H5909 C5929 0.950 . S
H5910 C5931 0.950 . S
H5911 C5934 0.950 . S
H5912 C5935 0.950 . S
H5913 C5937 0.950 . S
H5914 C5938 0.950 . S
H5915 C5939 0.951 . S
H5916 C5941 0.951 . S
H5917 C5943 0.950 . S
H5918 C5944 0.950 . S
H5919 C5946 0.950 . S
H5920 C5949 0.950 . S
H5921 C5950 0.950 . S
H5922 C5952 0.950 . S
H5923 C5953 0.950 . S
C5924 H5906 0.951 . S
C5924 C5925 1.366 . S
C5924 C5926 1.388 . S
C5925 C5924 1.366 . S
C5925 C5929 1.385 . S
C5926 H5907 0.951 . S
C5926 C5924 1.388 . S
C5926 C5927 1.366 . S
C5927 C5926 1.366 . S
C5927 C5928 1.414 . S
C5927 C5930 1.499 . S
C5928 H5908 0.950 . S
C5928 C5927 1.414 . S
C5928 C5929 1.374 . S
C5929 H5909 0.950 . S
C5929 C5925 1.385 . S
C5929 C5928 1.374 . S
C5930 C5927 1.499 . S
C5930 C5931 1.373 . S
C5930 C5932 1.389 . S
C5931 H5910 0.950 . S
C5931 C5930 1.373 . S
C5931 C5947 1.377 . S
C5932 C5930 1.389 . S
C5932 C5933 1.524 . S
C5932 C5946 1.377 . S
C5933 C5932 1.524 . S
C5933 C5934 1.397 . S
C5933 C5938 1.363 . S
C5934 H5911 0.950 . S
C5934 C5933 1.397 . S
C5934 C5935 1.334 . S
C5935 H5912 0.950 . S
C5935 C5934 1.334 . S
C5935 C5936 1.287 . S
C5936 C5935 1.287 . S
C5936 C5937 1.524 . S
C5936 H5955 0.913 . S
C5937 H5913 0.950 . S
C5937 C5936 1.524 . S
C5937 C5938 1.415 . S
C5938 H5914 0.950 . S
C5938 C5933 1.363 . S
C5938 C5937 1.415 . S
C5939 H5915 0.951 . S
C5939 C5940 1.366 . S
C5939 C5941 1.388 . S
C5940 C5939 1.366 . S
C5940 C5944 1.385 . S
C5941 H5916 0.951 . S
C5941 C5939 1.388 . S
C5941 C5942 1.366 . S
C5942 C5941 1.366 . S
C5942 C5943 1.414 . S
C5942 C5945 1.499 . S
C5943 H5917 0.950 . S
C5943 C5942 1.414 . S
C5943 C5944 1.374 . S
C5944 H5918 0.950 . S
C5944 C5940 1.385 . S
C5944 C5943 1.374 . S
C5945 C5942 1.499 . S
C5945 C5946 1.373 . S
C5945 C5947 1.389 . S
C5946 H5919 0.950 . S
C5946 C5932 1.377 . S
C5946 C5945 1.373 . S
C5947 C5931 1.377 . S
C5947 C5945 1.389 . S
C5947 C5948 1.524 . S
C5948 C5947 1.524 . S
C5948 C5949 1.397 . S
C5948 C5953 1.363 . S
C5949 H5920 0.950 . S
C5949 C5948 1.397 . S
C5949 C5950 1.334 . S
C5950 H5921 0.950 . S
C5950 C5949 1.334 . S
C5950 C5951 1.287 . S
C5951 C5950 1.287 . S
C5951 C5952 1.524 . S
C5951 H5954 0.999 . S
C5952 H5922 0.950 . S
C5952 C5951 1.524 . S
C5952 C5953 1.415 . S
C5953 H5923 0.950 . S
C5953 C5948 1.363 . S
C5953 C5952 1.415 . S
H5954 C5951 0.999 . S
H5955 C5936 0.913 . S
H5956 C5974 0.951 . S
H5957 C5976 0.951 . S
H5958 C5978 0.950 . S
H5959 C5979 0.950 . S
H5960 C5981 0.950 . S
H5961 C5984 0.950 . S
H5962 C5985 0.950 . S
H5963 C5987 0.950 . S
H5964 C5988 0.950 . S
H5965 C5989 0.951 . S
H5966 C5991 0.951 . S
H5967 C5993 0.950 . S
H5968 C5994 0.950 . S
H5969 C5996 0.950 . S
H5970 C5999 0.950 . S
H5971 C6000 0.950 . S
H5972 C6002 0.950 . S
H5973 C6003 0.950 . S
C5974 H5956 0.951 . S
C5974 C5975 1.366 . S
C5974 C5976 1.388 . S
C5975 C5974 1.366 . S
C5975 C5979 1.385 . S
C5976 H5957 0.951 . S
C5976 C5974 1.388 . S
C5976 C5977 1.366 . S
C5977 C5976 1.366 . S
C5977 C5978 1.414 . S
C5977 C5980 1.499 . S
C5978 H5958 0.950 . S
C5978 C5977 1.414 . S
C5978 C5979 1.374 . S
C5979 H5959 0.950 . S
C5979 C5975 1.385 . S
C5979 C5978 1.374 . S
C5980 C5977 1.499 . S
C5980 C5981 1.373 . S
C5980 C5982 1.389 . S
C5981 H5960 0.950 . S
C5981 C5980 1.373 . S
C5981 C5997 1.377 . S
C5982 C5980 1.389 . S
C5982 C5983 1.524 . S
C5982 C5996 1.377 . S
C5983 C5982 1.524 . S
C5983 C5984 1.397 . S
C5983 C5988 1.363 . S
C5984 H5961 0.950 . S
C5984 C5983 1.397 . S
C5984 C5985 1.334 . S
C5985 H5962 0.950 . S
C5985 C5984 1.334 . S
C5985 C5986 1.287 . S
C5986 C5985 1.287 . S
C5986 C5987 1.524 . S
C5986 H6005 0.913 . S
C5987 H5963 0.950 . S
C5987 C5986 1.524 . S
C5987 C5988 1.415 . S
C5988 H5964 0.950 . S
C5988 C5983 1.363 . S
C5988 C5987 1.415 . S
C5989 H5965 0.951 . S
C5989 C5990 1.366 . S
C5989 C5991 1.388 . S
C5990 C5989 1.366 . S
C5990 C5994 1.385 . S
C5991 H5966 0.951 . S
C5991 C5989 1.388 . S
C5991 C5992 1.366 . S
C5992 C5991 1.366 . S
C5992 C5993 1.414 . S
C5992 C5995 1.499 . S
C5993 H5967 0.950 . S
C5993 C5992 1.414 . S
C5993 C5994 1.374 . S
C5994 H5968 0.950 . S
C5994 C5990 1.385 . S
C5994 C5993 1.374 . S
C5995 C5992 1.499 . S
C5995 C5996 1.373 . S
C5995 C5997 1.389 . S
C5996 H5969 0.950 . S
C5996 C5982 1.377 . S
C5996 C5995 1.373 . S
C5997 C5981 1.377 . S
C5997 C5995 1.389 . S
C5997 C5998 1.524 . S
C5998 C5997 1.524 . S
C5998 C5999 1.397 . S
C5998 C6003 1.363 . S
C5999 H5970 0.950 . S
C5999 C5998 1.397 . S
C5999 C6000 1.334 . S
C6000 H5971 0.950 . S
C6000 C5999 1.334 . S
C6000 C6001 1.287 . S
C6001 C6000 1.287 . S
C6001 C6002 1.524 . S
C6001 H6004 0.999 . S
C6002 H5972 0.950 . S
C6002 C6001 1.524 . S
C6002 C6003 1.415 . S
C6003 H5973 0.950 . S
C6003 C5998 1.363 . S
C6003 C6002 1.415 . S
H6004 C6001 0.999 . S
H6005 C5986 0.913 . S
H6006 C6024 0.951 . S
H6007 C6026 0.951 . S
H6008 C6028 0.950 . S
H6009 C6029 0.950 . S
H6010 C6031 0.950 . S
H6011 C6034 0.950 . S
H6012 C6035 0.950 . S
H6013 C6037 0.950 . S
H6014 C6038 0.950 . S
H6015 C6039 0.951 . S
H6016 C6041 0.951 . S
H6017 C6043 0.950 . S
H6018 C6044 0.950 . S
H6019 C6046 0.950 . S
H6020 C6049 0.950 . S
H6021 C6050 0.950 . S
H6022 C6052 0.950 . S
H6023 C6053 0.950 . S
C6024 H6006 0.951 . S
C6024 C6025 1.366 . S
C6024 C6026 1.388 . S
C6025 C6024 1.366 . S
C6025 C6029 1.385 . S
C6026 H6007 0.951 . S
C6026 C6024 1.388 . S
C6026 C6027 1.366 . S
C6027 C6026 1.366 . S
C6027 C6028 1.414 . S
C6027 C6030 1.499 . S
C6028 H6008 0.950 . S
C6028 C6027 1.414 . S
C6028 C6029 1.374 . S
C6029 H6009 0.950 . S
C6029 C6025 1.385 . S
C6029 C6028 1.374 . S
C6030 C6027 1.499 . S
C6030 C6031 1.373 . S
C6030 C6032 1.389 . S
C6031 H6010 0.950 . S
C6031 C6030 1.373 . S
C6031 C6047 1.377 . S
C6032 C6030 1.389 . S
C6032 C6033 1.524 . S
C6032 C6046 1.377 . S
C6033 C6032 1.524 . S
C6033 C6034 1.397 . S
C6033 C6038 1.363 . S
C6034 H6011 0.950 . S
C6034 C6033 1.397 . S
C6034 C6035 1.334 . S
C6035 H6012 0.950 . S
C6035 C6034 1.334 . S
C6035 C6036 1.287 . S
C6036 C6035 1.287 . S
C6036 C6037 1.524 . S
C6036 H6055 0.913 . S
C6037 H6013 0.950 . S
C6037 C6036 1.524 . S
C6037 C6038 1.415 . S
C6038 H6014 0.950 . S
C6038 C6033 1.363 . S
C6038 C6037 1.415 . S
C6039 H6015 0.951 . S
C6039 C6040 1.366 . S
C6039 C6041 1.388 . S
C6040 C6039 1.366 . S
C6040 C6044 1.385 . S
C6041 H6016 0.951 . S
C6041 C6039 1.388 . S
C6041 C6042 1.366 . S
C6042 C6041 1.366 . S
C6042 C6043 1.414 . S
C6042 C6045 1.499 . S
C6043 H6017 0.950 . S
C6043 C6042 1.414 . S
C6043 C6044 1.374 . S
C6044 H6018 0.950 . S
C6044 C6040 1.385 . S
C6044 C6043 1.374 . S
C6045 C6042 1.499 . S
C6045 C6046 1.373 . S
C6045 C6047 1.389 . S
C6046 H6019 0.950 . S
C6046 C6032 1.377 . S
C6046 C6045 1.373 . S
C6047 C6031 1.377 . S
C6047 C6045 1.389 . S
C6047 C6048 1.524 . S
C6048 C6047 1.524 . S
C6048 C6049 1.397 . S
C6048 C6053 1.363 . S
C6049 H6020 0.950 . S
C6049 C6048 1.397 . S
C6049 C6050 1.334 . S
C6050 H6021 0.950 . S
C6050 C6049 1.334 . S
C6050 C6051 1.287 . S
C6051 C6050 1.287 . S
C6051 C6052 1.524 . S
C6051 H6054 0.999 . S
C6052 H6022 0.950 . S
C6052 C6051 1.524 . S
C6052 C6053 1.415 . S
C6053 H6023 0.950 . S
C6053 C6048 1.363 . S
C6053 C6052 1.415 . S
H6054 C6051 0.999 . S
H6055 C6036 0.913 . S
H6056 C6074 0.951 . S
H6057 C6076 0.951 . S
H6058 C6078 0.950 . S
H6059 C6079 0.950 . S
H6060 C6081 0.950 . S
H6061 C6084 0.950 . S
H6062 C6085 0.950 . S
H6063 C6087 0.950 . S
H6064 C6088 0.950 . S
H6065 C6089 0.951 . S
H6066 C6091 0.951 . S
H6067 C6093 0.950 . S
H6068 C6094 0.950 . S
H6069 C6096 0.950 . S
H6070 C6099 0.950 . S
H6071 C6100 0.950 . S
H6072 C6102 0.950 . S
H6073 C6103 0.950 . S
C6074 H6056 0.951 . S
C6074 C6075 1.366 . S
C6074 C6076 1.388 . S
C6075 C6074 1.366 . S
C6075 C6079 1.385 . S
C6076 H6057 0.951 . S
C6076 C6074 1.388 . S
C6076 C6077 1.366 . S
C6077 C6076 1.366 . S
C6077 C6078 1.414 . S
C6077 C6080 1.499 . S
C6078 H6058 0.950 . S
C6078 C6077 1.414 . S
C6078 C6079 1.374 . S
C6079 H6059 0.950 . S
C6079 C6075 1.385 . S
C6079 C6078 1.374 . S
C6080 C6077 1.499 . S
C6080 C6081 1.373 . S
C6080 C6082 1.389 . S
C6081 H6060 0.950 . S
C6081 C6080 1.373 . S
C6081 C6097 1.377 . S
C6082 C6080 1.389 . S
C6082 C6083 1.524 . S
C6082 C6096 1.377 . S
C6083 C6082 1.524 . S
C6083 C6084 1.397 . S
C6083 C6088 1.363 . S
C6084 H6061 0.950 . S
C6084 C6083 1.397 . S
C6084 C6085 1.334 . S
C6085 H6062 0.950 . S
C6085 C6084 1.334 . S
C6085 C6086 1.287 . S
C6086 C6085 1.287 . S
C6086 C6087 1.524 . S
C6086 H6105 0.913 . S
C6087 H6063 0.950 . S
C6087 C6086 1.524 . S
C6087 C6088 1.415 . S
C6088 H6064 0.950 . S
C6088 C6083 1.363 . S
C6088 C6087 1.415 . S
C6089 H6065 0.951 . S
C6089 C6090 1.366 . S
C6089 C6091 1.388 . S
C6090 C6089 1.366 . S
C6090 C6094 1.385 . S
C6091 H6066 0.951 . S
C6091 C6089 1.388 . S
C6091 C6092 1.366 . S
C6092 C6091 1.366 . S
C6092 C6093 1.414 . S
C6092 C6095 1.499 . S
C6093 H6067 0.950 . S
C6093 C6092 1.414 . S
C6093 C6094 1.374 . S
C6094 H6068 0.950 . S
C6094 C6090 1.385 . S
C6094 C6093 1.374 . S
C6095 C6092 1.499 . S
C6095 C6096 1.373 . S
C6095 C6097 1.389 . S
C6096 H6069 0.950 . S
C6096 C6082 1.377 . S
C6096 C6095 1.373 . S
C6097 C6081 1.377 . S
C6097 C6095 1.389 . S
C6097 C6098 1.524 . S
C6098 C6097 1.524 . S
C6098 C6099 1.397 . S
C6098 C6103 1.363 . S
C6099 H6070 0.950 . S
C6099 C6098 1.397 . S
C6099 C6100 1.334 . S
C6100 H6071 0.950 . S
C6100 C6099 1.334 . S
C6100 C6101 1.287 . S
C6101 C6100 1.287 . S
C6101 C6102 1.524 . S
C6101 H6104 0.999 . S
C6102 H6072 0.950 . S
C6102 C6101 1.524 . S
C6102 C6103 1.415 . S
C6103 H6073 0.950 . S
C6103 C6098 1.363 . S
C6103 C6102 1.415 . S
H6104 C6101 0.999 . S
H6105 C6086 0.913 . S
H6106 C6124 0.951 . S
H6107 C6126 0.951 . S
H6108 C6128 0.950 . S
H6109 C6129 0.950 . S
H6110 C6131 0.950 . S
H6111 C6134 0.950 . S
H6112 C6135 0.950 . S
H6113 C6137 0.950 1_545 S
H6114 C6138 0.950 . S
H6115 C6139 0.951 . S
H6116 C6141 0.951 . S
H6117 C6143 0.950 . S
H6118 C6144 0.950 1_545 S
H6119 C6146 0.950 . S
H6120 C6149 0.950 . S
H6121 C6150 0.950 . S
H6122 C6152 0.950 . S
H6123 C6153 0.950 . S
C6124 H6106 0.951 . S
C6124 C6125 1.366 . S
C6124 C6126 1.388 . S
C6125 C6124 1.366 . S
C6125 C6129 1.385 . S
C6126 H6107 0.951 . S
C6126 C6124 1.388 . S
C6126 C6127 1.366 . S
C6127 C6126 1.366 . S
C6127 C6128 1.414 . S
C6127 C6130 1.499 . S
C6128 H6108 0.950 . S
C6128 C6127 1.414 . S
C6128 C6129 1.374 . S
C6129 H6109 0.950 . S
C6129 C6125 1.385 . S
C6129 C6128 1.374 . S
C6130 C6127 1.499 . S
C6130 C6131 1.373 . S
C6130 C6132 1.389 . S
C6131 H6110 0.950 . S
C6131 C6130 1.373 . S
C6131 C6147 1.377 . S
C6132 C6130 1.389 . S
C6132 C6133 1.524 . S
C6132 C6146 1.377 . S
C6133 C6132 1.524 . S
C6133 C6134 1.397 . S
C6133 C6138 1.363 . S
C6134 H6111 0.950 . S
C6134 C6133 1.397 . S
C6134 C6135 1.334 . S
C6135 H6112 0.950 . S
C6135 C6134 1.334 . S
C6135 C6136 1.287 . S
C6136 C6135 1.287 . S
C6136 C6137 1.524 . S
C6136 H6155 0.913 . S
C6137 H6113 0.950 1_565 S
C6137 C6136 1.524 . S
C6137 C6138 1.415 . S
C6138 H6114 0.950 . S
C6138 C6133 1.363 . S
C6138 C6137 1.415 . S
C6139 H6115 0.951 . S
C6139 C6140 1.366 . S
C6139 C6141 1.388 . S
C6140 C6139 1.366 . S
C6140 C6144 1.385 . S
C6141 H6116 0.951 . S
C6141 C6139 1.388 . S
C6141 C6142 1.366 . S
C6142 C6141 1.366 . S
C6142 C6143 1.414 . S
C6142 C6145 1.499 . S
C6143 H6117 0.950 . S
C6143 C6142 1.414 . S
C6143 C6144 1.374 . S
C6144 H6118 0.950 1_565 S
C6144 C6140 1.385 . S
C6144 C6143 1.374 . S
C6145 C6142 1.499 . S
C6145 C6146 1.373 . S
C6145 C6147 1.389 . S
C6146 H6119 0.950 . S
C6146 C6132 1.377 . S
C6146 C6145 1.373 . S
C6147 C6131 1.377 . S
C6147 C6145 1.389 . S
C6147 C6148 1.524 . S
C6148 C6147 1.524 . S
C6148 C6149 1.397 . S
C6148 C6153 1.363 . S
C6149 H6120 0.950 . S
C6149 C6148 1.397 . S
C6149 C6150 1.334 . S
C6150 H6121 0.950 . S
C6150 C6149 1.334 . S
C6150 C6151 1.287 . S
C6151 C6150 1.287 . S
C6151 C6152 1.524 . S
C6151 H6154 0.999 . S
C6152 H6122 0.950 . S
C6152 C6151 1.524 . S
C6152 C6153 1.415 . S
C6153 H6123 0.950 . S
C6153 C6148 1.363 . S
C6153 C6152 1.415 . S
H6154 C6151 0.999 . S
H6155 C6136 0.913 . S
H6156 C6174 0.951 . S
H6157 C6176 0.951 . S
H6158 C6178 0.950 . S
H6159 C6179 0.950 . S
H6160 C6181 0.950 . S
H6161 C6184 0.950 . S
H6162 C6185 0.950 . S
H6163 C6187 0.950 . S
H6164 C6188 0.950 . S
H6165 C6189 0.951 . S
H6166 C6191 0.951 . S
H6167 C6193 0.950 . S
H6168 C6194 0.950 . S
H6169 C6196 0.950 . S
H6170 C6199 0.950 . S
H6171 C6200 0.950 . S
H6172 C6202 0.950 . S
H6173 C6203 0.950 . S
C6174 H6156 0.951 . S
C6174 C6175 1.366 . S
C6174 C6176 1.388 . S
C6175 C6174 1.366 . S
C6175 C6179 1.385 . S
C6176 H6157 0.951 . S
C6176 C6174 1.388 . S
C6176 C6177 1.366 . S
C6177 C6176 1.366 . S
C6177 C6178 1.414 . S
C6177 C6180 1.499 . S
C6178 H6158 0.950 . S
C6178 C6177 1.414 . S
C6178 C6179 1.374 . S
C6179 H6159 0.950 . S
C6179 C6175 1.385 . S
C6179 C6178 1.374 . S
C6180 C6177 1.499 . S
C6180 C6181 1.373 . S
C6180 C6182 1.389 . S
C6181 H6160 0.950 . S
C6181 C6180 1.373 . S
C6181 C6197 1.377 . S
C6182 C6180 1.389 . S
C6182 C6183 1.524 . S
C6182 C6196 1.377 . S
C6183 C6182 1.524 . S
C6183 C6184 1.397 . S
C6183 C6188 1.363 . S
C6184 H6161 0.950 . S
C6184 C6183 1.397 . S
C6184 C6185 1.334 . S
C6185 H6162 0.950 . S
C6185 C6184 1.334 . S
C6185 C6186 1.287 . S
C6186 C6185 1.287 . S
C6186 C6187 1.524 . S
C6186 H6205 0.913 . S
C6187 H6163 0.950 . S
C6187 C6186 1.524 . S
C6187 C6188 1.415 . S
C6188 H6164 0.950 . S
C6188 C6183 1.363 . S
C6188 C6187 1.415 . S
C6189 H6165 0.951 . S
C6189 C6190 1.366 . S
C6189 C6191 1.388 . S
C6190 C6189 1.366 . S
C6190 C6194 1.385 . S
C6191 H6166 0.951 . S
C6191 C6189 1.388 . S
C6191 C6192 1.366 . S
C6192 C6191 1.366 . S
C6192 C6193 1.414 . S
C6192 C6195 1.499 . S
C6193 H6167 0.950 . S
C6193 C6192 1.414 . S
C6193 C6194 1.374 . S
C6194 H6168 0.950 . S
C6194 C6190 1.385 . S
C6194 C6193 1.374 . S
C6195 C6192 1.499 . S
C6195 C6196 1.373 . S
C6195 C6197 1.389 . S
C6196 H6169 0.950 . S
C6196 C6182 1.377 . S
C6196 C6195 1.373 . S
C6197 C6181 1.377 . S
C6197 C6195 1.389 . S
C6197 C6198 1.524 . S
C6198 C6197 1.524 . S
C6198 C6199 1.397 . S
C6198 C6203 1.363 . S
C6199 H6170 0.950 . S
C6199 C6198 1.397 . S
C6199 C6200 1.334 . S
C6200 H6171 0.950 . S
C6200 C6199 1.334 . S
C6200 C6201 1.287 . S
C6201 C6200 1.287 . S
C6201 C6202 1.524 . S
C6201 H6204 0.999 . S
C6202 H6172 0.950 . S
C6202 C6201 1.524 . S
C6202 C6203 1.415 . S
C6203 H6173 0.950 . S
C6203 C6198 1.363 . S
C6203 C6202 1.415 . S
H6204 C6201 0.999 . S
H6205 C6186 0.913 . S
H6206 C6224 0.951 . S
H6207 C6226 0.951 . S
H6208 C6228 0.950 . S
H6209 C6229 0.950 . S
H6210 C6231 0.950 . S
H6211 C6234 0.950 . S
H6212 C6235 0.950 . S
H6213 C6237 0.950 . S
H6214 C6238 0.950 . S
H6215 C6239 0.951 . S
H6216 C6241 0.951 . S
H6217 C6243 0.950 . S
H6218 C6244 0.950 . S
H6219 C6246 0.950 . S
H6220 C6249 0.950 . S
H6221 C6250 0.950 . S
H6222 C6252 0.950 . S
H6223 C6253 0.950 1_554 S
C6224 H6206 0.951 . S
C6224 C6225 1.366 . S
C6224 C6226 1.388 . S
C6225 C6224 1.366 . S
C6225 C6229 1.385 . S
C6226 H6207 0.951 . S
C6226 C6224 1.388 . S
C6226 C6227 1.366 . S
C6227 C6226 1.366 . S
C6227 C6228 1.414 . S
C6227 C6230 1.499 . S
C6228 H6208 0.950 . S
C6228 C6227 1.414 . S
C6228 C6229 1.374 . S
C6229 H6209 0.950 . S
C6229 C6225 1.385 . S
C6229 C6228 1.374 . S
C6230 C6227 1.499 . S
C6230 C6231 1.373 . S
C6230 C6232 1.389 . S
C6231 H6210 0.950 . S
C6231 C6230 1.373 . S
C6231 C6247 1.377 . S
C6232 C6230 1.389 . S
C6232 C6233 1.524 . S
C6232 C6246 1.377 . S
C6233 C6232 1.524 . S
C6233 C6234 1.397 . S
C6233 C6238 1.363 . S
C6234 H6211 0.950 . S
C6234 C6233 1.397 . S
C6234 C6235 1.334 . S
C6235 H6212 0.950 . S
C6235 C6234 1.334 . S
C6235 C6236 1.287 . S
C6236 C6235 1.287 . S
C6236 C6237 1.524 . S
C6236 H6255 0.913 . S
C6237 H6213 0.950 . S
C6237 C6236 1.524 . S
C6237 C6238 1.415 . S
C6238 H6214 0.950 . S
C6238 C6233 1.363 . S
C6238 C6237 1.415 . S
C6239 H6215 0.951 . S
C6239 C6240 1.366 . S
C6239 C6241 1.388 . S
C6240 C6239 1.366 . S
C6240 C6244 1.385 . S
C6241 H6216 0.951 . S
C6241 C6239 1.388 . S
C6241 C6242 1.366 . S
C6242 C6241 1.366 . S
C6242 C6243 1.414 . S
C6242 C6245 1.499 . S
C6243 H6217 0.950 . S
C6243 C6242 1.414 . S
C6243 C6244 1.374 . S
C6244 H6218 0.950 . S
C6244 C6240 1.385 . S
C6244 C6243 1.374 . S
C6245 C6242 1.499 . S
C6245 C6246 1.373 . S
C6245 C6247 1.389 . S
C6246 H6219 0.950 . S
C6246 C6232 1.377 . S
C6246 C6245 1.373 . S
C6247 C6231 1.377 . S
C6247 C6245 1.389 . S
C6247 C6248 1.524 1_554 S
C6248 C6247 1.524 1_556 S
C6248 C6249 1.397 . S
C6248 C6253 1.363 . S
C6249 H6220 0.950 . S
C6249 C6248 1.397 . S
C6249 C6250 1.334 . S
C6250 H6221 0.950 . S
C6250 C6249 1.334 . S
C6250 C6251 1.287 . S
C6251 C6250 1.287 . S
C6251 C6252 1.524 . S
C6251 H6254 0.999 . S
C6252 H6222 0.950 . S
C6252 C6251 1.524 . S
C6252 C6253 1.415 . S
C6253 H6223 0.950 1_556 S
C6253 C6248 1.363 . S
C6253 C6252 1.415 . S
H6254 C6251 0.999 . S
H6255 C6236 0.913 . S
H6256 C6274 0.951 . S
H6257 C6276 0.951 . S
H6258 C6278 0.950 . S
H6259 C6279 0.950 . S
H6260 C6281 0.950 . S
H6261 C6284 0.950 . S
H6262 C6285 0.950 . S
H6263 C6287 0.950 . S
H6264 C6288 0.950 . S
H6265 C6289 0.951 . S
H6266 C6291 0.951 . S
H6267 C6293 0.950 . S
H6268 C6294 0.950 . S
H6269 C6296 0.950 . S
H6270 C6299 0.950 . S
H6271 C6300 0.950 . S
H6272 C6302 0.950 . S
H6273 C6303 0.950 . S
C6274 H6256 0.951 . S
C6274 C6275 1.366 . S
C6274 C6276 1.388 . S
C6275 C6274 1.366 . S
C6275 C6279 1.385 . S
C6276 H6257 0.951 . S
C6276 C6274 1.388 . S
C6276 C6277 1.366 . S
C6277 C6276 1.366 . S
C6277 C6278 1.414 . S
C6277 C6280 1.499 . S
C6278 H6258 0.950 . S
C6278 C6277 1.414 . S
C6278 C6279 1.374 . S
C6279 H6259 0.950 . S
C6279 C6275 1.385 . S
C6279 C6278 1.374 . S
C6280 C6277 1.499 . S
C6280 C6281 1.373 . S
C6280 C6282 1.389 . S
C6281 H6260 0.950 . S
C6281 C6280 1.373 . S
C6281 C6297 1.377 . S
C6282 C6280 1.389 . S
C6282 C6283 1.524 . S
C6282 C6296 1.377 . S
C6283 C6282 1.524 . S
C6283 C6284 1.397 . S
C6283 C6288 1.363 . S
C6284 H6261 0.950 . S
C6284 C6283 1.397 . S
C6284 C6285 1.334 . S
C6285 H6262 0.950 . S
C6285 C6284 1.334 . S
C6285 C6286 1.287 . S
C6286 C6285 1.287 . S
C6286 C6287 1.524 . S
C6286 H6305 0.913 . S
C6287 H6263 0.950 . S
C6287 C6286 1.524 . S
C6287 C6288 1.415 . S
C6288 H6264 0.950 . S
C6288 C6283 1.363 . S
C6288 C6287 1.415 . S
C6289 H6265 0.951 . S
C6289 C6290 1.366 . S
C6289 C6291 1.388 . S
C6290 C6289 1.366 . S
C6290 C6294 1.385 . S
C6291 H6266 0.951 . S
C6291 C6289 1.388 . S
C6291 C6292 1.366 . S
C6292 C6291 1.366 . S
C6292 C6293 1.414 . S
C6292 C6295 1.499 . S
C6293 H6267 0.950 . S
C6293 C6292 1.414 . S
C6293 C6294 1.374 . S
C6294 H6268 0.950 . S
C6294 C6290 1.385 . S
C6294 C6293 1.374 . S
C6295 C6292 1.499 . S
C6295 C6296 1.373 . S
C6295 C6297 1.389 . S
C6296 H6269 0.950 . S
C6296 C6282 1.377 . S
C6296 C6295 1.373 . S
C6297 C6281 1.377 . S
C6297 C6295 1.389 . S
C6297 C6298 1.524 . S
C6298 C6297 1.524 . S
C6298 C6299 1.397 . S
C6298 C6303 1.363 . S
C6299 H6270 0.950 . S
C6299 C6298 1.397 . S
C6299 C6300 1.334 . S
C6300 H6271 0.950 . S
C6300 C6299 1.334 . S
C6300 C6301 1.287 . S
C6301 C6300 1.287 . S
C6301 C6302 1.524 . S
C6301 H6304 0.999 . S
C6302 H6272 0.950 . S
C6302 C6301 1.524 . S
C6302 C6303 1.415 . S
C6303 H6273 0.950 . S
C6303 C6298 1.363 . S
C6303 C6302 1.415 . S
H6304 C6301 0.999 . S
H6305 C6286 0.913 . S
H6306 C6324 0.951 . S
H6307 C6326 0.951 . S
H6308 C6328 0.950 . S
H6309 C6329 0.950 . S
H6310 C6331 0.950 . S
H6311 C6334 0.950 . S
H6312 C6335 0.950 . S
H6313 C6337 0.950 . S
H6314 C6338 0.950 . S
H6315 C6339 0.951 . S
H6316 C6341 0.951 . S
H6317 C6343 0.950 . S
H6318 C6344 0.950 . S
H6319 C6346 0.950 . S
H6320 C6349 0.950 . S
H6321 C6350 0.950 . S
H6322 C6352 0.950 . S
H6323 C6353 0.950 . S
C6324 H6306 0.951 . S
C6324 C6325 1.366 . S
C6324 C6326 1.388 . S
C6325 C6324 1.366 . S
C6325 C6329 1.385 . S
C6326 H6307 0.951 . S
C6326 C6324 1.388 . S
C6326 C6327 1.366 . S
C6327 C6326 1.366 . S
C6327 C6328 1.414 . S
C6327 C6330 1.499 . S
C6328 H6308 0.950 . S
C6328 C6327 1.414 . S
C6328 C6329 1.374 . S
C6329 H6309 0.950 . S
C6329 C6325 1.385 . S
C6329 C6328 1.374 . S
C6330 C6327 1.499 . S
C6330 C6331 1.373 . S
C6330 C6332 1.389 . S
C6331 H6310 0.950 . S
C6331 C6330 1.373 . S
C6331 C6347 1.377 . S
C6332 C6330 1.389 . S
C6332 C6333 1.524 . S
C6332 C6346 1.377 . S
C6333 C6332 1.524 . S
C6333 C6334 1.397 . S
C6333 C6338 1.363 . S
C6334 H6311 0.950 . S
C6334 C6333 1.397 . S
C6334 C6335 1.334 . S
C6335 H6312 0.950 . S
C6335 C6334 1.334 . S
C6335 C6336 1.287 . S
C6336 C6335 1.287 . S
C6336 C6337 1.524 . S
C6336 H6355 0.913 . S
C6337 H6313 0.950 . S
C6337 C6336 1.524 . S
C6337 C6338 1.415 . S
C6338 H6314 0.950 . S
C6338 C6333 1.363 . S
C6338 C6337 1.415 . S
C6339 H6315 0.951 . S
C6339 C6340 1.366 . S
C6339 C6341 1.388 . S
C6340 C6339 1.366 . S
C6340 C6344 1.385 . S
C6341 H6316 0.951 . S
C6341 C6339 1.388 . S
C6341 C6342 1.366 . S
C6342 C6341 1.366 . S
C6342 C6343 1.414 . S
C6342 C6345 1.499 . S
C6343 H6317 0.950 . S
C6343 C6342 1.414 . S
C6343 C6344 1.374 . S
C6344 H6318 0.950 . S
C6344 C6340 1.385 . S
C6344 C6343 1.374 . S
C6345 C6342 1.499 . S
C6345 C6346 1.373 . S
C6345 C6347 1.389 . S
C6346 H6319 0.950 . S
C6346 C6332 1.377 . S
C6346 C6345 1.373 . S
C6347 C6331 1.377 . S
C6347 C6345 1.389 . S
C6347 C6348 1.524 . S
C6348 C6347 1.524 . S
C6348 C6349 1.397 1_554 S
C6348 C6353 1.363 . S
C6349 H6320 0.950 . S
C6349 C6348 1.397 1_556 S
C6349 C6350 1.334 . S
C6350 H6321 0.950 . S
C6350 C6349 1.334 . S
C6350 C6351 1.287 . S
C6351 C6350 1.287 . S
C6351 C6352 1.524 . S
C6351 H6354 0.999 . S
C6352 H6322 0.950 . S
C6352 C6351 1.524 . S
C6352 C6353 1.415 1_556 S
C6353 H6323 0.950 . S
C6353 C6348 1.363 . S
C6353 C6352 1.415 1_554 S
H6354 C6351 0.999 . S
H6355 C6336 0.913 . S
H6356 C6374 0.951 . S
H6357 C6376 0.951 . S
H6358 C6378 0.950 . S
H6359 C6379 0.950 . S
H6360 C6381 0.950 . S
H6361 C6384 0.950 . S
H6362 C6385 0.950 . S
H6363 C6387 0.950 . S
H6364 C6388 0.950 . S
H6365 C6389 0.951 . S
H6366 C6391 0.951 . S
H6367 C6393 0.950 . S
H6368 C6394 0.950 . S
H6369 C6396 0.950 . S
H6370 C6399 0.950 . S
H6371 C6400 0.950 . S
H6372 C6402 0.950 . S
H6373 C6403 0.950 . S
C6374 H6356 0.951 . S
C6374 C6375 1.366 . S
C6374 C6376 1.388 . S
C6375 C6374 1.366 . S
C6375 C6379 1.385 . S
C6376 H6357 0.951 . S
C6376 C6374 1.388 . S
C6376 C6377 1.366 . S
C6377 C6376 1.366 . S
C6377 C6378 1.414 . S
C6377 C6380 1.499 . S
C6378 H6358 0.950 . S
C6378 C6377 1.414 . S
C6378 C6379 1.374 . S
C6379 H6359 0.950 . S
C6379 C6375 1.385 . S
C6379 C6378 1.374 . S
C6380 C6377 1.499 . S
C6380 C6381 1.373 . S
C6380 C6382 1.389 . S
C6381 H6360 0.950 . S
C6381 C6380 1.373 . S
C6381 C6397 1.377 . S
C6382 C6380 1.389 . S
C6382 C6383 1.524 . S
C6382 C6396 1.377 . S
C6383 C6382 1.524 . S
C6383 C6384 1.397 . S
C6383 C6388 1.363 . S
C6384 H6361 0.950 . S
C6384 C6383 1.397 . S
C6384 C6385 1.334 . S
C6385 H6362 0.950 . S
C6385 C6384 1.334 . S
C6385 C6386 1.287 . S
C6386 C6385 1.287 . S
C6386 C6387 1.524 . S
C6386 H6405 0.913 . S
C6387 H6363 0.950 . S
C6387 C6386 1.524 . S
C6387 C6388 1.415 . S
C6388 H6364 0.950 . S
C6388 C6383 1.363 . S
C6388 C6387 1.415 . S
C6389 H6365 0.951 . S
C6389 C6390 1.366 . S
C6389 C6391 1.388 . S
C6390 C6389 1.366 . S
C6390 C6394 1.385 . S
C6391 H6366 0.951 . S
C6391 C6389 1.388 . S
C6391 C6392 1.366 . S
C6392 C6391 1.366 . S
C6392 C6393 1.414 . S
C6392 C6395 1.499 . S
C6393 H6367 0.950 . S
C6393 C6392 1.414 . S
C6393 C6394 1.374 . S
C6394 H6368 0.950 . S
C6394 C6390 1.385 . S
C6394 C6393 1.374 . S
C6395 C6392 1.499 . S
C6395 C6396 1.373 . S
C6395 C6397 1.389 . S
C6396 H6369 0.950 . S
C6396 C6382 1.377 . S
C6396 C6395 1.373 . S
C6397 C6381 1.377 . S
C6397 C6395 1.389 . S
C6397 C6398 1.524 . S
C6398 C6397 1.524 . S
C6398 C6399 1.397 . S
C6398 C6403 1.363 . S
C6399 H6370 0.950 . S
C6399 C6398 1.397 . S
C6399 C6400 1.334 . S
C6400 H6371 0.950 . S
C6400 C6399 1.334 . S
C6400 C6401 1.287 . S
C6401 C6400 1.287 . S
C6401 C6402 1.524 . S
C6401 H6404 0.999 . S
C6402 H6372 0.950 . S
C6402 C6401 1.524 . S
C6402 C6403 1.415 . S
C6403 H6373 0.950 . S
C6403 C6398 1.363 . S
C6403 C6402 1.415 . S
H6404 C6401 0.999 . S
H6405 C6386 0.913 . S
H6406 C6424 0.951 . S
H6407 C6426 0.951 . S
H6408 C6428 0.950 . S
H6409 C6429 0.950 . S
H6410 C6431 0.950 . S
H6411 C6434 0.950 . S
H6412 C6435 0.950 . S
H6413 C6437 0.950 . S
H6414 C6438 0.950 . S
H6415 C6439 0.951 . S
H6416 C6441 0.951 . S
H6417 C6443 0.950 . S
H6418 C6444 0.950 . S
H6419 C6446 0.950 . S
H6420 C6449 0.950 . S
H6421 C6450 0.950 . S
H6422 C6452 0.950 . S
H6423 C6453 0.950 . S
C6424 H6406 0.951 . S
C6424 C6425 1.366 . S
C6424 C6426 1.388 . S
C6425 C6424 1.366 . S
C6425 C6429 1.385 . S
C6426 H6407 0.951 . S
C6426 C6424 1.388 . S
C6426 C6427 1.366 . S
C6427 C6426 1.366 . S
C6427 C6428 1.414 . S
C6427 C6430 1.499 . S
C6428 H6408 0.950 . S
C6428 C6427 1.414 . S
C6428 C6429 1.374 . S
C6429 H6409 0.950 . S
C6429 C6425 1.385 . S
C6429 C6428 1.374 . S
C6430 C6427 1.499 . S
C6430 C6431 1.373 . S
C6430 C6432 1.389 . S
C6431 H6410 0.950 . S
C6431 C6430 1.373 . S
C6431 C6447 1.377 . S
C6432 C6430 1.389 . S
C6432 C6433 1.524 . S
C6432 C6446 1.377 . S
C6433 C6432 1.524 . S
C6433 C6434 1.397 . S
C6433 C6438 1.363 . S
C6434 H6411 0.950 . S
C6434 C6433 1.397 . S
C6434 C6435 1.334 . S
C6435 H6412 0.950 . S
C6435 C6434 1.334 . S
C6435 C6436 1.287 . S
C6436 C6435 1.287 . S
C6436 C6437 1.524 . S
C6436 H6455 0.913 . S
C6437 H6413 0.950 . S
C6437 C6436 1.524 . S
C6437 C6438 1.415 . S
C6438 H6414 0.950 . S
C6438 C6433 1.363 . S
C6438 C6437 1.415 . S
C6439 H6415 0.951 . S
C6439 C6440 1.366 . S
C6439 C6441 1.388 . S
C6440 C6439 1.366 . S
C6440 C6444 1.385 . S
C6441 H6416 0.951 . S
C6441 C6439 1.388 . S
C6441 C6442 1.366 . S
C6442 C6441 1.366 . S
C6442 C6443 1.414 . S
C6442 C6445 1.499 . S
C6443 H6417 0.950 . S
C6443 C6442 1.414 . S
C6443 C6444 1.374 . S
C6444 H6418 0.950 . S
C6444 C6440 1.385 . S
C6444 C6443 1.374 . S
C6445 C6442 1.499 . S
C6445 C6446 1.373 . S
C6445 C6447 1.389 . S
C6446 H6419 0.950 . S
C6446 C6432 1.377 . S
C6446 C6445 1.373 . S
C6447 C6431 1.377 . S
C6447 C6445 1.389 . S
C6447 C6448 1.524 . S
C6448 C6447 1.524 . S
C6448 C6449 1.397 . S
C6448 C6453 1.363 . S
C6449 H6420 0.950 . S
C6449 C6448 1.397 . S
C6449 C6450 1.334 . S
C6450 H6421 0.950 . S
C6450 C6449 1.334 . S
C6450 C6451 1.287 . S
C6451 C6450 1.287 . S
C6451 C6452 1.524 . S
C6451 H6454 0.999 . S
C6452 H6422 0.950 . S
C6452 C6451 1.524 . S
C6452 C6453 1.415 . S
C6453 H6423 0.950 . S
C6453 C6448 1.363 . S
C6453 C6452 1.415 . S
H6454 C6451 0.999 . S
H6455 C6436 0.913 . S
C1675 C101 1.862 . S
C1690 C368 1.857 . S
C1725 C57 1.711 . S
C1740 C470 1.719 . S
C1775 C70 1.595 . S
C1790 C536 1.591 . S
C1840 C622 1.440 . S
C1825 C82 1.536 . S
C1875 C23 1.536 . S
C1890 C706 1.439 . S
C1940 C788 1.592 . S
C1925 C29 1.596 . S
C1990 C890 1.710 . S
C1975 C49 1.702 . S
C2025 C10 1.862 . S
C2040 C956 1.858 . S
C2090 C386 1.435 . S
C2075 C218 1.465 . S
C2125 C226 0.832 . S
C2140 C454 0.817 . S
C2190 C554 1.034 . S
C2175 C251 1.033 . S
C2240 C620 1.479 . S
C2225 C159 1.483 1_556 S
C2275 C211 1.483 . S
C2290 C704 1.478 . S
C2340 C806 1.035 . S
C2325 C225 1.034 . S
C2390 C874 0.814 . S
C2375 C252 0.831 . S
C2440 C974 1.435 . S
C2425 C166 1.466 . S
C2490 C370 0.885 . S
C2475 C147 0.906 . S
C2525 C263 1.575 . S
C2540 C1058 1.569 . S
C2590 C1126 1.305 . S
C2575 C309 1.369 . S
C2640 C1208 0.649 . S
C2625 C291 0.649 . S
C2675 C108 0.907 . S
C2690 C958 0.887 . S
C2725 C121 1.371 . S
C2740 C538 1.307 . S
C2775 C302 1.579 . S
C2790 C1310 1.573 . S
C2840 C1376 0.650 . S
C2825 C276 0.648 . S
C2890 C379 2.187 1_565 S
C2875 C55 2.173 . S
C2940 C1383 2.085 . S
C2925 C96 2.106 . S
C2975 C88 2.018 . S
C2990 C547 2.022 . S
C3025 C75 1.797 . S
C3040 C1305 1.656 . S
C3090 C717 1.656 . S
C3075 C4 1.798 . S
C3125 C44 2.025 . S
C3140 C1135 2.033 . S
C3190 C879 2.084 1_565 S
C3175 C31 2.100 . S
C3240 C1471 2.187 . S
C3225 C18 2.173 . S
C3290 C375 1.806 1_556 S
C3275 C133 1.846 . S
C3340 C1389 1.047 . S
C3325 C296 1.127 . S
C3375 C107 1.357 . S
C3390 C543 1.341 . S
C3425 C264 1.869 . S
C3440 C1303 1.869 . S
C3475 C140 1.868 . S
C3490 C715 1.868 . S
C3540 C1131 1.341 . S
C3525 C289 1.359 . S
C3575 C114 1.129 . S
C3590 C885 1.048 . S
C3625 C265 1.847 . S
C3640 C1467 1.808 . S
C3675 C179 1.064 . S
C3690 C381 1.006 . S
C3725 C161 1.905 . S
C3740 C1047 1.877 . S
C3775 C244 1.553 . S
C3790 C801 1.443 . S
C3825 C224 1.073 . S
C3840 C1219 1.073 . S
C3890 C1473 1.007 . S
C3875 C257 1.008 1_565 S
C3925 C199 1.552 . S
C3940 C549 1.442 . S
C3990 C627 1.876 . S
C3975 C237 1.904 . S
C4040 C463 1.071 . S
C4025 C185 1.071 . S
C4075 C69 1.863 . S
C4090 C1544 1.859 . S
C4140 C1394 1.719 . S
C4125 C83 1.710 . S
C4175 C94 1.592 . S
C4190 C1628 1.593 . S
C4225 C56 1.492 1_655 S
C4240 C1294 1.440 . S
C4275 C42 1.546 . S
C4290 C1042 1.447 . S
C4340 C1124 1.592 . S
C4325 C3 1.596 1_655 S
C4390 C1226 1.719 . S
C4375 C16 1.711 . S
C4440 C1460 1.858 . S
C4425 C36 1.862 . S
C4490 C1562 1.435 . S
C4475 C238 1.466 . S
C4525 C174 0.830 . S
C4540 C1378 0.814 . S
C4590 C1646 1.035 . S
C4575 C186 1.034 . S
C4640 C1292 1.478 . S
C4625 C198 1.482 . S
C4690 C1040 1.479 . S
C4675 C239 1.483 . S
C4725 C173 1.034 . S
C4740 C1142 1.035 . S
C4790 C1210 0.816 . S
C4775 C187 0.832 . S
C4825 C205 1.465 . S
C4840 C1478 1.435 . S
C4890 C1546 0.884 . S
C4875 C290 0.906 . S
C4925 C122 1.578 . S
C4940 C722 1.572 . S
C4990 C790 1.309 . S
C4975 C134 1.372 1_565 S
C5040 C872 0.650 . S
C5025 C148 0.650 . S
C5090 C1462 0.884 . S
C5075 C283 0.904 . S
C5125 C270 1.370 . S
C5140 C1630 1.305 . S
C5190 C638 1.571 . S
C5175 C135 1.579 . S
C5240 C452 0.649 . S
C5225 C109 0.648 . S
C5275 C81 2.173 . S
C5290 C1555 2.187 . S
C5340 C459 2.085 . S
C5325 C68 2.100 . S
C5375 C62 2.018 . S
C5390 C1639 2.022 . S
C5425 C95 1.797 . S
C5440 C633 1.650 . S
C5475 C30 1.798 . S
C5490 C1053 1.656 . S
C5540 C799 2.022 . S
C5525 C17 2.018 . S
C5575 C5 2.100 . S
C5590 C1215 2.084 . S
C5625 C43 2.169 . S
C5640 C967 2.177 . S
C5690 C1551 1.806 . S
C5675 C304 1.846 . S
C5725 C153 1.126 . S
C5740 C465 1.039 . S
C5790 C1635 1.293 1_556 S
C5775 C278 1.358 . S
C5825 C127 1.868 . S
C5840 C631 1.868 . S
C5875 C303 1.864 . S
C5890 C1051 1.864 . S
C5940 C795 1.341 . S
C5925 C146 1.363 . S
C5975 C277 1.127 . S
C5990 C1221 1.046 . S
C6040 C963 1.805 . S
C6025 C120 1.844 . S
C6090 C1557 1.008 . S
C6075 C231 1.064 . S
C6140 C711 1.882 1_565 S
C6125 C200 1.904 . S
C6175 C212 1.555 . S
C6190 C1137 1.446 . S
C6240 C883 1.072 . S
C6225 C172 1.072 . S
C6275 C192 1.061 . S
C6290 C969 1.006 . S
C6325 C160 1.552 . S
C6340 C1641 1.444 . S
C6390 C1299 1.877 . S
C6375 C213 1.906 . S
C6440 C1387 1.073 . S
C6425 C250 1.073 . S
