# Generated by pormake.
# Topology pyr, (3,6)-cn, num edge types: 1
# Building blocks:
#     Node 0, Type 0, BuildingBlock: OLANEW_clean_sbu_2, # of connection points: 3
#     Node 1, Type 0, BuildingBlock: OLANEW_clean_sbu_2, # of connection points: 3
#     Node 2, Type 0, BuildingBlock: OLANEW_clean_sbu_2, # of connection points: 3
#     Node 3, Type 0, BuildingBlock: OLANEW_clean_sbu_2, # of connection points: 3
#     Node 4, Type 0, BuildingBlock: OLANEW_clean_sbu_2, # of connection points: 3
#     Node 5, Type 0, BuildingBlock: OLANEW_clean_sbu_2, # of connection points: 3
#     Node 6, Type 0, BuildingBlock: OLANEW_clean_sbu_2, # of connection points: 3
#     Node 7, Type 0, BuildingBlock: OLANEW_clean_sbu_2, # of connection points: 3
#     Node 8, Type 1, BuildingBlock: JUFBIX_clean_sbu_0, # of connection points: 6
#     Node 9, Type 1, BuildingBlock: JUFBIX_clean_sbu_0, # of connection points: 6
#     Node 10, Type 1, BuildingBlock: JUFBIX_clean_sbu_0, # of connection points: 6
#     Node 11, Type 1, BuildingBlock: JUFBIX_clean_sbu_0, # of connection points: 6
#     Edge 12, Type (0, 1), BuildingBlock: MIFKUJ_clean_linker_0, # of connection points: 2
#     Edge 13, Type (0, 1), BuildingBlock: MIFKUJ_clean_linker_0, # of connection points: 2
#     Edge 14, Type (0, 1), BuildingBlock: MIFKUJ_clean_linker_0, # of connection points: 2
#     Edge 15, Type (0, 1), BuildingBlock: MIFKUJ_clean_linker_0, # of connection points: 2
#     Edge 16, Type (0, 1), BuildingBlock: MIFKUJ_clean_linker_0, # of connection points: 2
#     Edge 17, Type (0, 1), BuildingBlock: MIFKUJ_clean_linker_0, # of connection points: 2
#     Edge 18, Type (0, 1), BuildingBlock: MIFKUJ_clean_linker_0, # of connection points: 2
#     Edge 19, Type (0, 1), BuildingBlock: MIFKUJ_clean_linker_0, # of connection points: 2
#     Edge 20, Type (0, 1), BuildingBlock: MIFKUJ_clean_linker_0, # of connection points: 2
#     Edge 21, Type (0, 1), BuildingBlock: MIFKUJ_clean_linker_0, # of connection points: 2
#     Edge 22, Type (0, 1), BuildingBlock: MIFKUJ_clean_linker_0, # of connection points: 2
#     Edge 23, Type (0, 1), BuildingBlock: MIFKUJ_clean_linker_0, # of connection points: 2
#     Edge 24, Type (0, 1), BuildingBlock: MIFKUJ_clean_linker_0, # of connection points: 2
#     Edge 25, Type (0, 1), BuildingBlock: MIFKUJ_clean_linker_0, # of connection points: 2
#     Edge 26, Type (0, 1), BuildingBlock: MIFKUJ_clean_linker_0, # of connection points: 2
#     Edge 27, Type (0, 1), BuildingBlock: MIFKUJ_clean_linker_0, # of connection points: 2
#     Edge 28, Type (0, 1), BuildingBlock: MIFKUJ_clean_linker_0, # of connection points: 2
#     Edge 29, Type (0, 1), BuildingBlock: MIFKUJ_clean_linker_0, # of connection points: 2
#     Edge 30, Type (0, 1), BuildingBlock: MIFKUJ_clean_linker_0, # of connection points: 2
#     Edge 31, Type (0, 1), BuildingBlock: MIFKUJ_clean_linker_0, # of connection points: 2
#     Edge 32, Type (0, 1), BuildingBlock: MIFKUJ_clean_linker_0, # of connection points: 2
#     Edge 33, Type (0, 1), BuildingBlock: MIFKUJ_clean_linker_0, # of connection points: 2
#     Edge 34, Type (0, 1), BuildingBlock: MIFKUJ_clean_linker_0, # of connection points: 2
#     Edge 35, Type (0, 1), BuildingBlock: MIFKUJ_clean_linker_0, # of connection points: 2
# Relax obj value: 0.099
# Max RMSD: 0.169
# Mean RMSD: 0.118
data_MOF--net-pyr--node1-OLANEW_clean_sbu_2--node2-JUFBIX_clean_sbu_0--edge1-MIFKUJ_clean_linker_0
_symmetry_space_group_name_H-M    P1
_symmetry_Int_Tables_number       1
_symmetry_cell_setting            triclinic
loop_
_symmetry_equiv_pos_as_xyz
'x, y, z'
_cell_length_a     51.349717
_cell_length_b     49.272041
_cell_length_c     50.282721
_cell_angle_alpha  90.534009
_cell_angle_beta   90.10245
_cell_angle_gamma 96.706804
loop_
_atom_site_label
_atom_site_type_symbol
_atom_site_fract_x
_atom_site_fract_y
_atom_site_fract_z
_atom_type_partial_charge
O0 O 0.21624 0.16994 0.17433 0.0
Cd1 Cd 0.17334 0.18744 0.18372 0.0
O2 O 0.21827 0.14053 0.20745 0.0
Cd3 Cd 0.18396 0.14214 0.23437 0.0
O4 O 0.15829 0.13089 0.26953 0.0
C5 C 0.1687 0.12274 0.29063 0.0
O6 O 0.19417 0.12181 0.29091 0.0
C7 C 0.22791 0.15195 0.18631 0.0
C8 C 0.15648 0.23136 0.15422 0.0
O9 O 0.1539 0.20689 0.14488 0.0
O10 O 0.16797 0.23542 0.17681 0.0
O11 O 0.48316 0.91311 0.68725 0.0
Cd12 Cd 0.48196 0.90167 0.6399 0.0
O13 O 0.4405 0.90403 0.68634 0.0
Cd14 Cd 0.39993 0.89945 0.70039 0.0
O15 O 0.35812 0.90377 0.70132 0.0
C16 C 0.35202 0.9263 0.69256 0.0
O17 O 0.37089 0.94483 0.68475 0.0
C18 C 0.46134 0.91215 0.69926 0.0
C19 C 0.48585 0.8467 0.62935 0.0
O20 O 0.46352 0.85507 0.63375 0.0
O21 O 0.5063 0.86431 0.63026 0.0
O22 O 0.70843 0.46016 0.89092 0.0
Cd23 Cd 0.66408 0.46578 0.87555 0.0
O24 O 0.68981 0.42221 0.90809 0.0
Cd25 Cd 0.68663 0.38291 0.92832 0.0
O26 O 0.66968 0.34161 0.93868 0.0
C27 C 0.65855 0.33712 0.96101 0.0
O28 O 0.65848 0.35738 0.97818 0.0
C29 C 0.71025 0.43906 0.90484 0.0
C30 C 0.65715 0.47417 0.8213 0.0
O31 O 0.66303 0.49434 0.83735 0.0
O32 O 0.6554 0.44996 0.83079 0.0
O33 O 0.96381 0.68261 0.4398 0.0
Cd34 Cd 0.93729 0.63997 0.42695 0.0
O35 O 0.98271 0.66559 0.4742 0.0
Cd36 Cd 0.95635 0.62764 0.47124 0.0
O37 O 0.91637 0.60732 0.4743 0.0
C38 C 0.89895 0.6236 0.47316 0.0
O39 O 0.90642 0.64984 0.47034 0.0
C40 C 0.98012 0.68561 0.459 0.0
C41 C 0.93963 0.62767 0.37284 0.0
O42 O 0.92253 0.64239 0.38178 0.0
O43 O 0.95569 0.61908 0.38946 0.0
O44 O 0.87001 0.85217 0.86678 0.0
Cd45 Cd 0.85294 0.82304 0.9047 0.0
O46 O 0.84181 0.88296 0.86125 0.0
Cd47 Cd 0.81013 0.87999 0.89204 0.0
O48 O 0.77323 0.89113 0.91125 0.0
C49 C 0.77342 0.90723 0.93132 0.0
O50 O 0.79613 0.9169 0.94178 0.0
C51 C 0.86237 0.87231 0.85421 0.0
C52 C 0.881 0.77926 0.92073 0.0
O53 O 0.86537 0.77681 0.90072 0.0
O54 O 0.88415 0.8025 0.93272 0.0
O55 O 0.59951 0.08127 0.44135 0.0
Cd56 Cd 0.61392 0.0906 0.48716 0.0
O57 O 0.60531 0.1256 0.43667 0.0
Cd58 Cd 0.60248 0.16471 0.41732 0.0
O59 O 0.5979 0.20782 0.41236 0.0
C60 C 0.57518 0.21531 0.41489 0.0
O61 O 0.55513 0.19664 0.41877 0.0
C62 C 0.59871 0.10199 0.42668 0.0
C63 C 0.66649 0.08352 0.49459 0.0
O64 O 0.64821 0.06398 0.49867 0.0
O65 O 0.65993 0.10649 0.48687 0.0
O66 O 0.4007 0.70419 0.1789 0.0
Cd67 Cd 0.38157 0.65739 0.18837 0.0
O68 O 0.38604 0.70156 0.13768 0.0
Cd69 Cd 0.36286 0.66165 0.14009 0.0
O70 O 0.32865 0.63341 0.12854 0.0
C71 C 0.30653 0.63766 0.13796 0.0
O72 O 0.30554 0.65755 0.15539 0.0
C73 C 0.39901 0.71487 0.15612 0.0
C74 C 0.3995 0.63804 0.23632 0.0
O75 O 0.4125 0.63645 0.21474 0.0
O76 O 0.37802 0.64889 0.23529 0.0
O77 O 0.10499 0.47963 0.65603 0.0
Cd78 Cd 0.10847 0.48779 0.60829 0.0
O79 O 0.09435 0.4361 0.64783 0.0
Cd80 Cd 0.08487 0.39212 0.65421 0.0
O81 O 0.0733 0.34804 0.65183 0.0
C82 C 0.05242 0.33903 0.63943 0.0
O83 O 0.03806 0.35657 0.62889 0.0
C84 C 0.09901 0.45555 0.66466 0.0
C85 C 0.16085 0.49066 0.59305 0.0
O86 O 0.15072 0.51225 0.59988 0.0
O87 O 0.14606 0.46782 0.59302 0.0
Co88 Co 0.99484 0.00235 0.56439 0.0
C89 C 0.02182 0.95607 0.5565 0.0
Co90 Co 0.03414 0.00419 0.58287 0.0
C91 C 0.94423 0.01537 0.54461 0.0
C92 C 0.94684 0.9724 0.54626 0.0
N93 N 0.96103 0.99696 0.55017 0.0
N94 N 0.92017 0.00317 0.53774 0.0
C95 C 0.92191 0.97614 0.53855 0.0
H96 H 0.94907 0.03723 0.54693 0.0
H97 H 0.95367 0.95283 0.54991 0.0
C98 C 0.00779 0.05076 0.59045 0.0
N99 N 0.06772 0.00973 0.59708 0.0
C100 C 0.08278 0.99201 0.60801 0.0
C101 C 0.08301 0.03391 0.59703 0.0
N102 N 0.10692 0.00427 0.61463 0.0
C103 C 0.10692 0.03068 0.60788 0.0
C104 C 0.03328 0.02382 0.52992 0.0
O105 O 0.98946 0.03787 0.57679 0.0
O106 O 0.02819 0.0394 0.5953 0.0
O107 O 0.04761 0.0196 0.54984 0.0
O108 O 0.00855 0.01773 0.53173 0.0
O109 O 0.03988 0.96898 0.57046 0.0
H110 H 0.07731 0.05272 0.58918 0.0
H111 H 0.0764 0.97044 0.61031 0.0
O112 O 1.0011 0.96704 0.55187 0.0
O113 O 0.98131 0.98702 0.59734 0.0
O114 O 0.02032 0.98864 0.61555 0.0
C115 C 0.99556 0.98266 0.61727 0.0
H116 H 0.90608 0.96011 0.53456 0.0
H117 H 0.12304 0.04669 0.61053 0.0
Co118 Co 0.49276 0.02935 0.04137 0.0
C119 C 0.48844 0.98959 0.0812 0.0
Co120 Co 0.51488 0.04092 0.0782 0.0
C121 C 0.48047 0.01556 0.9863 0.0
C122 C 0.44674 0.00971 0.01144 0.0
N123 N 0.47266 0.01831 0.01171 0.0
N124 N 0.46045 0.00556 0.97021 0.0
C125 C 0.43917 0.00196 0.98599 0.0
H126 H 0.50052 0.02059 0.97978 0.0
H127 H 0.43424 0.00845 0.02879 0.0
C128 C 0.51962 0.08065 0.03855 0.0
N129 N 0.53509 0.05214 0.10769 0.0
C130 C 0.52838 0.05269 0.13364 0.0
C131 C 0.5603 0.0634 0.10696 0.0
N132 N 0.5484 0.06411 0.14905 0.0
C133 C 0.56852 0.07074 0.13227 0.0
C134 C 0.54321 0.01414 0.03979 0.0
O135 O 0.50497 0.06321 0.0248 0.0
O136 O 0.52573 0.07479 0.0621 0.0
O137 O 0.54448 0.02555 0.06267 0.0
O138 O 0.52189 0.01325 0.02675 0.0
O139 O 0.50387 0.00692 0.09421 0.0
H140 H 0.57187 0.06649 0.08905 0.0
H141 H 0.50898 0.04558 0.14094 0.0
O142 O 0.481 0.99561 0.05806 0.0
O143 O 0.46365 0.04552 0.05636 0.0
O144 O 0.48518 0.05607 0.09333 0.0
C145 C 0.46425 0.0559 0.07966 0.0
H146 H 0.41972 0.99338 0.9798 0.0
H147 H 0.58788 0.08017 0.13787 0.0
Co148 Co 0.54809 0.53982 0.51272 0.0
C149 C 0.50578 0.54282 0.47837 0.0
Co150 Co 0.51021 0.52072 0.5281 0.0
C151 C 0.60333 0.55011 0.50012 0.0
C152 C 0.58164 0.58257 0.48832 0.0
N153 N 0.57893 0.55775 0.49966 0.0
N154 N 0.62127 0.56929 0.48957 0.0
C155 C 0.60754 0.58974 0.48218 0.0
H156 H 0.60772 0.5309 0.50822 0.0
H157 H 0.56584 0.59493 0.48522 0.0
C158 C 0.55267 0.51797 0.56247 0.0
N159 N 0.47929 0.50284 0.54113 0.0
C160 C 0.45502 0.51081 0.54074 0.0
C161 C 0.47632 0.47806 0.55261 0.0
N162 N 0.43698 0.49186 0.55137 0.0
C163 C 0.45036 0.47125 0.5589 0.0
C164 C 0.53859 0.48582 0.4984 0.0
O165 O 0.56563 0.53081 0.54408 0.0
O166 O 0.52814 0.51146 0.55942 0.0
O167 O 0.5176 0.48769 0.5113 0.0
O168 O 0.55545 0.50673 0.49647 0.0
O169 O 0.49256 0.53026 0.49678 0.0
H170 H 0.49203 0.46566 0.55603 0.0
H171 H 0.45063 0.52989 0.53229 0.0
O172 O 0.53037 0.54872 0.48137 0.0
O173 O 0.54054 0.57286 0.52913 0.0
O174 O 0.50299 0.55387 0.54466 0.0
C175 C 0.51972 0.57483 0.54226 0.0
H176 H 0.61559 0.60899 0.47368 0.0
H177 H 0.44205 0.45265 0.56847 0.0
Co178 Co 0.01802 0.4921 0.00655 0.0
C179 C 0.96578 0.4715 0.01769 0.0
Co180 Co 0.00493 0.49918 0.04759 0.0
C181 C 0.04579 0.47735 0.95867 0.0
C182 C 0.00985 0.49406 0.95088 0.0
N183 N 0.02556 0.48761 0.97087 0.0
N184 N 0.04314 0.47748 0.93198 0.0
C185 C 0.02064 0.4879 0.92699 0.0
H186 H 0.06193 0.4698 0.96907 0.0
H187 H 0.99144 0.50241 0.95352 0.0
C188 C 0.05697 0.52008 0.03629 0.0
N189 N 0.99741 0.50364 0.08339 0.0
C190 C 0.97886 0.51652 0.09574 0.0
C191 C 0.01179 0.49475 0.10332 0.0
N192 N 0.98102 0.51549 0.12252 0.0
C193 C 1.00172 0.5018 0.12723 0.0
C194 C 0.02867 0.45026 0.03911 0.0
O195 O 0.05216 0.5104 0.01303 0.0
O196 O 0.039 0.5175 0.05373 0.0
O197 O 0.01757 0.46487 0.05559 0.0
O198 O 0.03071 0.45792 0.01502 0.0
O199 O 0.97066 0.48091 0.04106 0.0
H200 H 0.02914 0.48452 0.1007 0.0
H201 H 0.96432 0.52669 0.08536 0.0
O202 O 0.98391 0.47386 1.00042 0.0
O203 O 0.00533 0.52647 0.99841 0.0
O204 O 0.99253 0.53336 0.03917 0.0
C205 C 0.99462 0.5412 0.01515 0.0
H206 H 0.0125 0.49046 0.90741 0.0
H207 H 0.00975 0.49823 0.14665 0.0
H208 H 0.18635 0.10568 0.33821 0.0
H209 H 0.16103 0.08963 0.37705 0.0
H210 H 0.08948 0.10263 0.33663 0.0
H211 H 0.11493 0.11924 0.29746 0.0
H212 H 0.08789 0.11913 0.38798 0.0
H213 H 0.10712 0.03806 0.34353 0.0
H214 H 0.13456 0.00673 0.32149 0.0
H215 H 0.17927 0.00242 0.39325 0.0
H216 H 0.15233 0.03405 0.41564 0.0
H217 H 0.00892 0.03956 0.48465 0.0
H218 H 0.02951 0.05708 0.44327 0.0
H219 H 0.1059 0.0511 0.47686 0.0
H220 H 0.08556 0.03366 0.51816 0.0
H221 H 0.10177 0.02972 0.42678 0.0
H222 H 0.08308 0.11292 0.47028 0.0
H223 H 0.05484 0.14382 0.49183 0.0
H224 H 0.00759 0.14274 0.42123 0.0
H225 H 0.03542 0.11165 0.3993 0.0
C226 C 0.16522 0.10521 0.33743 0.0
C227 C 0.15275 0.11366 0.31448 0.0
C228 C 0.1507 0.09586 0.35975 0.0
C229 C 0.1232 0.0944 0.35979 0.0
C230 C 0.11064 0.10341 0.33715 0.0
C231 C 0.12523 0.11285 0.31471 0.0
C232 C 0.10789 0.08331 0.38346 0.0
C233 C 0.09062 0.09937 0.39618 0.0
C234 C 0.11157 0.05766 0.39457 0.0
C235 C 0.12784 0.03863 0.38119 0.0
C236 C 0.12294 0.03061 0.35456 0.0
C237 C 0.13838 0.01276 0.34201 0.0
C238 C 0.15869 0.00264 0.35594 0.0
C239 C 0.16356 0.0103 0.38248 0.0
C240 C 0.14819 0.02817 0.39511 0.0
C241 C 0.03011 0.04206 0.48328 0.0
C242 C 0.04554 0.03515 0.50484 0.0
C243 C 0.04188 0.0522 0.4596 0.0
C244 C 0.06933 0.05559 0.45687 0.0
C245 C 0.08471 0.04868 0.47837 0.0
C246 C 0.07301 0.03876 0.50207 0.0
C247 C 0.08216 0.06573 0.43154 0.0
C248 C 0.09894 0.04942 0.41849 0.0
C249 C 0.07787 0.09103 0.4201 0.0
C250 C 0.06116 0.10972 0.43325 0.0
C251 C 0.06654 0.11909 0.45943 0.0
C252 C 0.05064 0.13667 0.4717 0.0
C253 C 0.02938 0.14513 0.45796 0.0
C254 C 0.02404 0.13612 0.43187 0.0
C255 C 0.03989 0.11856 0.41949 0.0
H256 H 0.01709 0.15874 0.4675 0.0
H257 H 0.17062 0.98882 0.34619 0.0
H258 H 0.49964 0.91057 0.73641 0.0
H259 H 0.49985 0.92695 0.78245 0.0
H260 H 0.4221 0.95023 0.77179 0.0
H261 H 0.42238 0.93521 0.7254 0.0
H262 H 0.45218 0.98934 0.79691 0.0
H263 H 0.43301 0.89252 0.80715 0.0
H264 H 0.43962 0.84408 0.80108 0.0
H265 H 0.51448 0.85886 0.84004 0.0
H266 H 0.50848 0.9075 0.84603 0.0
H267 H 0.42175 0.00559 0.93366 0.0
H268 H 0.42278 0.99041 0.88729 0.0
H269 H 0.50281 0.97375 0.89736 0.0
H270 H 0.50173 0.98845 0.94395 0.0
H271 H 0.47206 0.9314 0.87278 0.0
H272 H 0.49015 0.02857 0.86312 0.0
H273 H 0.48242 0.07664 0.86964 0.0
H274 H 0.40802 0.06057 0.82997 0.0
H275 H 0.41514 0.01229 0.82354 0.0
C276 C 0.48252 0.91903 0.74394 0.0
C277 C 0.46065 0.92082 0.72747 0.0
C278 C 0.48261 0.92824 0.7703 0.0
C279 C 0.46078 0.93933 0.78076 0.0
C280 C 0.43903 0.94144 0.76426 0.0
C281 C 0.439 0.93234 0.73784 0.0
C282 C 0.46095 0.94945 0.80868 0.0
C283 C 0.45617 0.97654 0.81352 0.0
C284 C 0.46676 0.93296 0.83033 0.0
C285 C 0.4704 0.90371 0.8268 0.0
C286 C 0.45098 0.88549 0.81423 0.0
C287 C 0.45459 0.85799 0.81084 0.0
C288 C 0.47748 0.84841 0.8201 0.0
C289 C 0.49677 0.86631 0.83284 0.0
C290 C 0.49326 0.89385 0.83626 0.0
C291 C 0.43956 0.99869 0.926 0.0
C292 C 0.46165 0.99822 0.94248 0.0
C293 C 0.44019 0.99022 0.89946 0.0
C294 C 0.46293 0.98113 0.88885 0.0
C295 C 0.48509 0.98077 0.90516 0.0
C296 C 0.48452 0.9894 0.9317 0.0
C297 C 0.46325 0.97122 0.86094 0.0
C298 C 0.46812 0.94418 0.85613 0.0
C299 C 0.45736 0.98768 0.83934 0.0
C300 C 0.45308 0.01675 0.84307 0.0
C301 C 0.47205 0.03523 0.85598 0.0
C302 C 0.46779 0.06253 0.85962 0.0
C303 C 0.44471 0.07164 0.85028 0.0
C304 C 0.42587 0.05348 0.83722 0.0
C305 C 0.43002 0.02615 0.83355 0.0
H306 H 0.44146 0.09278 0.85312 0.0
H307 H 0.48024 0.82711 0.81746 0.0
H308 H 0.6436 0.43572 0.78251 0.0
H309 H 0.62958 0.44345 0.73698 0.0
H310 H 0.64255 0.53056 0.75054 0.0
H311 H 0.65636 0.52303 0.79616 0.0
H312 H 0.59541 0.51589 0.72877 0.0
H313 H 0.68369 0.49909 0.71108 0.0
H314 H 0.72229 0.47374 0.71299 0.0
H315 H 0.67911 0.40545 0.6728 0.0
H316 H 0.64011 0.43026 0.67097 0.0
H317 H 0.6045 0.52981 0.57581 0.0
H318 H 0.6253 0.52196 0.61844 0.0
H319 H 0.55148 0.48351 0.64825 0.0
H320 H 0.53045 0.49153 0.60588 0.0
H321 H 0.63174 0.47666 0.64751 0.0
H322 H 0.54564 0.50322 0.71295 0.0
H323 H 0.50842 0.53056 0.71017 0.0
H324 H 0.55092 0.58408 0.65423 0.0
H325 H 0.58854 0.55745 0.65712 0.0
C326 C 0.64376 0.45654 0.77573 0.0
C327 C 0.65105 0.47876 0.793 0.0
C328 C 0.63582 0.46092 0.74965 0.0
C329 C 0.63511 0.48759 0.74032 0.0
C330 C 0.64291 0.50981 0.75734 0.0
C331 C 0.65089 0.50546 0.78339 0.0
C332 C 0.6249 0.49232 0.71331 0.0
C333 C 0.60341 0.50734 0.71102 0.0
C334 C 0.63547 0.4814 0.6901 0.0
C335 C 0.65891 0.46645 0.6911 0.0
C336 C 0.68236 0.47859 0.70283 0.0
C337 C 0.70432 0.46433 0.70387 0.0
C338 C 0.70314 0.43798 0.69308 0.0
C339 C 0.67999 0.42585 0.68117 0.0
C340 C 0.65796 0.44002 0.6801 0.0
C341 C 0.59271 0.51954 0.59138 0.0
C342 C 0.56575 0.51154 0.58753 0.0
C343 C 0.60467 0.51497 0.61569 0.0
C344 C 0.58988 0.50245 0.63661 0.0
C345 C 0.56318 0.49355 0.63249 0.0
C346 C 0.55121 0.49812 0.60823 0.0
C347 C 0.60204 0.49982 0.66312 0.0
C348 C 0.62381 0.4852 0.6653 0.0
C349 C 0.59198 0.51141 0.68625 0.0
C350 C 0.56979 0.52815 0.68506 0.0
C351 C 0.54709 0.52094 0.70021 0.0
C352 C 0.52592 0.53631 0.69861 0.0
C353 C 0.52726 0.559 0.68199 0.0
C354 C 0.54985 0.56649 0.66707 0.0
C355 C 0.57111 0.55126 0.66868 0.0
H356 H 0.51079 0.57076 0.6807 0.0
H357 H 0.72017 0.42697 0.6939 0.0
H358 H 0.90993 0.64449 0.33209 0.0
H359 H 0.91119 0.63135 0.28503 0.0
H360 H 0.9722 0.58077 0.30219 0.0
H361 H 0.97144 0.5942 0.34893 0.0
H362 H 0.98364 0.60847 0.25854 0.0
H363 H 0.907 0.55419 0.29382 0.0
H364 H 0.86387 0.54688 0.31579 0.0
H365 H 0.83066 0.59298 0.25495 0.0
H366 H 0.87372 0.60085 0.2328 0.0
H367 H 0.9679 0.49588 0.17092 0.0
H368 H 0.95299 0.52169 0.20851 0.0
H369 H 0.94718 0.59065 0.15762 0.0
H370 H 0.96266 0.56488 0.11976 0.0
H371 H 0.90478 0.56186 0.21287 0.0
H372 H 0.98679 0.6185 0.18023 0.0
H373 H 0.03032 0.61953 0.1592 0.0
H374 H 0.05269 0.56274 0.21686 0.0
H375 H 0.00915 0.5612 0.238 0.0
C376 C 0.92368 0.63064 0.32579 0.0
C377 C 0.94056 0.62035 0.34426 0.0
C378 C 0.9243 0.62308 0.29891 0.0
C379 C 0.94165 0.6049 0.2901 0.0
C380 C 0.9587 0.5949 0.30849 0.0
C381 C 0.95819 0.60253 0.33526 0.0
C382 C 0.94211 0.59586 0.26187 0.0
C383 C 0.96625 0.59867 0.24852 0.0
C384 C 0.91946 0.58314 0.24856 0.0
C385 C 0.89362 0.57841 0.26186 0.0
C386 C 0.89055 0.56296 0.28526 0.0
C387 C 0.86611 0.55868 0.29772 0.0
C388 C 0.84456 0.56954 0.28682 0.0
C389 C 0.84739 0.58464 0.2634 0.0
C390 C 0.87179 0.58901 0.25089 0.0
C391 C 0.96293 0.51634 0.16762 0.0
C392 C 0.96678 0.52855 0.14258 0.0
C393 C 0.95425 0.53097 0.18902 0.0
C394 C 0.94919 0.55805 0.18579 0.0
C395 C 0.95099 0.5697 0.16039 0.0
C396 C 0.95972 0.55498 0.13882 0.0
C397 C 0.94614 0.57476 0.20985 0.0
C398 C 0.92176 0.57288 0.22259 0.0
C399 C 0.96849 0.58822 0.22277 0.0
C400 C 0.99478 0.58963 0.21053 0.0
C401 C 1.001 0.60617 0.18831 0.0
C402 C 0.02564 0.60685 0.17639 0.0
C403 C 0.04425 0.59117 0.18666 0.0
C404 C 0.03826 0.57486 0.20892 0.0
C405 C 0.01363 0.57409 0.22088 0.0
H406 H 0.0633 0.5917 0.17739 0.0
H407 H 0.82566 0.5662 0.29649 0.0
H408 H 0.25549 0.11125 0.20418 0.0
H409 H 0.29581 0.09657 0.18643 0.0
H410 H 0.29775 0.15801 0.12578 0.0
H411 H 0.25726 0.173 0.14356 0.0
H412 H 0.30705 0.0751 0.13969 0.0
H413 H 0.36272 0.17919 0.11052 0.0
H414 H 0.36576 0.22768 0.12422 0.0
H415 H 0.34155 0.2041 0.20321 0.0
H416 H 0.3387 0.15549 0.19007 0.0
H417 H 0.41541 0.05421 0.05711 0.0
H418 H 0.3764 0.07159 0.07531 0.0
H419 H 0.42007 0.10053 0.1453 0.0
H420 H 0.45934 0.08318 0.12716 0.0
H421 H 0.38875 0.13827 0.12821 0.0
H422 H 0.3783 0.04248 0.1475 0.0
H423 H 0.37645 0.99332 0.13697 0.0
H424 H 0.31188 0.99902 0.08373 0.0
H425 H 0.31359 0.04833 0.09367 0.0
C426 C 0.26443 0.12181 0.18711 0.0
C427 C 0.25294 0.14345 0.17542 0.0
C428 C 0.28755 0.11325 0.17688 0.0
C429 C 0.30009 0.12618 0.15479 0.0
C430 C 0.28873 0.14782 0.14302 0.0
C431 C 0.26546 0.15634 0.15318 0.0
C432 C 0.32482 0.11671 0.14411 0.0
C433 C 0.32484 0.08901 0.1371 0.0
C434 C 0.34834 0.13458 0.14101 0.0
C435 C 0.35022 0.16372 0.14921 0.0
C436 C 0.35812 0.18436 0.13082 0.0
C437 C 0.3598 0.21186 0.13849 0.0
C438 C 0.35376 0.21896 0.16454 0.0
C439 C 0.34612 0.19857 0.18301 0.0
C440 C 0.34443 0.17105 0.17545 0.0
C441 C 0.41683 0.06432 0.07636 0.0
C442 C 0.44063 0.06716 0.09067 0.0
C443 C 0.39439 0.07422 0.0868 0.0
C444 C 0.39507 0.08723 0.11184 0.0
C445 C 0.41894 0.09059 0.12595 0.0
C446 C 0.4414 0.08055 0.11558 0.0
C447 C 0.37079 0.09679 0.12343 0.0
C448 C 0.37088 0.12445 0.13063 0.0
C449 C 0.34743 0.07883 0.12702 0.0
C450 C 0.34624 0.04915 0.12114 0.0
C451 C 0.36383 0.03329 0.1334 0.0
C452 C 0.36279 0.00539 0.12756 0.0
C453 C 0.3441 0.99306 0.10964 0.0
C454 C 0.32636 0.0086 0.09758 0.0
C455 C 0.32735 0.03653 0.10333 0.0
H456 H 0.34332 0.97146 0.10514 0.0
H457 H 0.35506 0.24027 0.17043 0.0
H458 H 0.30775 0.89199 0.70524 0.0
H459 H 0.26199 0.9001 0.69852 0.0
H460 H 0.28803 0.97952 0.66635 0.0
H461 H 0.33348 0.97183 0.67338 0.0
H462 H 0.24817 0.98242 0.69946 0.0
H463 H 0.26854 0.92306 0.62634 0.0
H464 H 0.28196 0.88073 0.60686 0.0
H465 H 0.21749 0.83356 0.64547 0.0
H466 H 0.20388 0.87563 0.66545 0.0
H467 H 0.15843 0.02277 0.60985 0.0
H468 H 0.19531 0.00411 0.6301 0.0
H469 H 0.14296 0.93855 0.66357 0.0
H470 H 0.10536 0.95767 0.64376 0.0
H471 H 0.1901 0.9224 0.63896 0.0
H472 H 0.16555 0.98451 0.70495 0.0
H473 H 0.15221 0.02791 0.72189 0.0
H474 H 0.22491 0.0708 0.69517 0.0
H475 H 0.23853 0.02772 0.67769 0.0
C476 C 0.30368 0.91124 0.69689 0.0
C477 C 0.32427 0.93124 0.68976 0.0
C478 C 0.27753 0.91579 0.69298 0.0
C479 C 0.27159 0.94033 0.68173 0.0
C480 C 0.29213 0.96046 0.67513 0.0
C481 C 0.31815 0.95598 0.67908 0.0
C482 C 0.24416 0.94527 0.67615 0.0
C483 C 0.23547 0.96927 0.68626 0.0
C484 C 0.22722 0.92765 0.65963 0.0
C485 C 0.23541 0.90241 0.64766 0.0
C486 C 0.25737 0.90363 0.63085 0.0
C487 C 0.26498 0.8797 0.61969 0.0
C488 C 0.25064 0.85446 0.625 0.0
C489 C 0.22862 0.85311 0.64143 0.0
C490 C 0.22094 0.87699 0.65267 0.0
C491 C 0.15452 0.0046 0.62176 0.0
C492 C 0.12877 0.99205 0.62554 0.0
C493 C 0.17572 0.99385 0.63321 0.0
C494 C 0.1718 0.97022 0.64865 0.0
C495 C 0.14631 0.95692 0.6518 0.0
C496 C 0.1249 0.96783 0.64041 0.0
C497 C 0.19471 0.96005 0.66144 0.0
C498 C 0.20252 0.93513 0.65275 0.0
C499 C 0.21097 0.97689 0.67915 0.0
C500 C 0.20301 0.00286 0.68991 0.0
C501 C 0.17863 0.00321 0.70253 0.0
C502 C 0.17103 0.02776 0.71225 0.0
C503 C 0.18769 0.0521 0.70959 0.0
C504 C 0.21203 0.05192 0.69724 0.0
C505 C 0.21972 0.02743 0.68746 0.0
H506 H 0.18176 0.07108 0.71711 0.0
H507 H 0.25656 0.83595 0.61633 0.0
H508 H 0.75937 0.45277 0.88532 0.0
H509 H 0.80122 0.45026 0.90828 0.0
H510 H 0.75978 0.41574 0.97679 0.0
H511 H 0.71785 0.41753 0.95368 0.0
H512 H 0.8011 0.46877 0.98163 0.0
H513 H 0.7873 0.37406 0.95329 0.0
H514 H 0.77729 0.33706 0.92018 0.0
H515 H 0.84404 0.36896 0.87404 0.0
H516 H 0.8542 0.40642 0.90668 0.0
H517 H 0.92168 0.46158 0.04879 0.0
H518 H 0.87658 0.44827 0.03352 0.0
H519 H 0.90398 0.44467 0.95261 0.0
H520 H 0.94883 0.4568 0.96772 0.0
H521 H 0.86661 0.40596 0.95859 0.0
H522 H 0.87828 0.50199 0.97967 0.0
H523 H 0.88938 0.54267 0.00825 0.0
H524 H 0.8284 0.51329 0.0627 0.0
H525 H 0.81716 0.47223 0.03458 0.0
C526 C 0.75923 0.44421 0.9051 0.0
C527 C 0.73542 0.43503 0.91761 0.0
C528 C 0.78308 0.4428 0.91816 0.0
C529 C 0.78349 0.43276 0.94414 0.0
C530 C 0.75979 0.42339 0.95666 0.0
C531 C 0.73592 0.42421 0.94336 0.0
C532 C 0.80871 0.43358 0.95856 0.0
C533 C 0.81527 0.45469 0.97712 0.0
C534 C 0.82735 0.41575 0.9519 0.0
C535 C 0.82135 0.39319 0.9323 0.0
C536 C 0.79968 0.37335 0.93595 0.0
C537 C 0.79402 0.35225 0.91729 0.0
C538 C 0.80998 0.3507 0.89498 0.0
C539 C 0.83168 0.3702 0.89131 0.0
C540 C 0.83741 0.39135 0.9099 0.0
C541 C 0.9181 0.4575 0.02782 0.0
C542 C 0.93885 0.46044 0.00948 0.0
C543 C 0.89229 0.45005 0.01908 0.0
C544 C 0.88676 0.44595 0.99182 0.0
C545 C 0.90764 0.4477 0.97372 0.0
C546 C 0.93336 0.45476 0.98244 0.0
C547 C 0.85931 0.4414 0.98167 0.0
C548 C 0.85234 0.41973 0.96368 0.0
C549 C 0.84048 0.4592 0.98834 0.0
C550 C 0.8471 0.4839 0.00521 0.0
C551 C 0.86736 0.50412 0.99784 0.0
C552 C 0.87366 0.52725 0.01393 0.0
C553 C 0.85966 0.53052 0.03732 0.0
C554 C 0.83927 0.51069 0.04461 0.0
C555 C 0.83292 0.4875 0.0286 0.0
H556 H 0.86456 0.54844 0.04976 0.0
H557 H 0.80557 0.33435 0.88057 0.0
H558 H 0.87627 0.57365 0.49044 0.0
H559 H 0.82932 0.55872 0.49568 0.0
H560 H 0.81133 0.63591 0.46492 0.0
H561 H 0.85793 0.65116 0.46052 0.0
H562 H 0.78367 0.62427 0.50699 0.0
H563 H 0.80374 0.57437 0.42787 0.0
H564 H 0.82699 0.54228 0.40156 0.0
H565 H 0.80053 0.47746 0.45506 0.0
H566 H 0.77737 0.50928 0.48188 0.0
H567 H 0.65519 0.60102 0.45821 0.0
H568 H 0.70277 0.60406 0.45862 0.0
H569 H 0.69951 0.5395 0.51612 0.0
H570 H 0.65165 0.53697 0.5169 0.0
H571 H 0.73764 0.53947 0.46689 0.0
H572 H 0.71421 0.59112 0.54365 0.0
H573 H 0.68958 0.62439 0.56666 0.0
H574 H 0.72197 0.68745 0.51383 0.0
H575 H 0.74647 0.65441 0.49021 0.0
C576 C 0.86225 0.58734 0.4847 0.0
C577 C 0.87076 0.61362 0.47518 0.0
C578 C 0.83544 0.57876 0.48762 0.0
C579 C 0.81676 0.59615 0.48058 0.0
C580 C 0.82534 0.62219 0.47066 0.0
C581 C 0.85202 0.63087 0.46809 0.0
C582 C 0.78824 0.5879 0.48408 0.0
C583 C 0.7737 0.60574 0.49812 0.0
C584 C 0.77518 0.56338 0.47314 0.0
C585 C 0.78911 0.54427 0.45706 0.0
C586 C 0.80307 0.55332 0.43415 0.0
C587 C 0.81619 0.53518 0.41912 0.0
C588 C 0.81532 0.50787 0.42669 0.0
C589 C 0.80124 0.49863 0.44926 0.0
C590 C 0.78811 0.51671 0.46437 0.0
C591 C 0.66436 0.58751 0.47114 0.0
C592 C 0.64934 0.56907 0.48789 0.0
C593 C 0.69163 0.58912 0.4711 0.0
C594 C 0.7045 0.57211 0.48748 0.0
C595 C 0.68978 0.55273 0.50329 0.0
C596 C 0.66239 0.55133 0.50364 0.0
C597 C 0.7334 0.5762 0.48912 0.0
C598 C 0.74788 0.55767 0.47612 0.0
C599 C 0.74647 0.60025 0.5007 0.0
C600 C 0.73198 0.62023 0.51503 0.0
C601 C 0.71589 0.61202 0.53679 0.0
C602 C 0.70199 0.63085 0.54997 0.0
C603 C 0.70416 0.65801 0.54168 0.0
C604 C 0.72029 0.6664 0.52022 0.0
C605 C 0.73421 0.64764 0.50695 0.0
H606 H 0.69339 0.67255 0.55191 0.0
H607 H 0.82548 0.49385 0.41502 0.0
H608 H 0.14638 0.28083 0.17455 0.0
H609 H 0.12477 0.31634 0.15252 0.0
H610 H 0.11955 0.2689 0.0799 0.0
H611 H 0.14062 0.23287 0.10202 0.0
H612 H 0.1372 0.32887 0.07463 0.0
H613 H 0.06743 0.26614 0.1114 0.0
H614 H 0.04491 0.23887 0.14725 0.0
H615 H 0.03974 0.31193 0.19321 0.0
H616 H 0.06259 0.3396 0.15777 0.0
H617 H 0.05016 0.41069 0.00979 0.0
H618 H 0.07148 0.3722 0.02658 0.0
H619 H 0.05699 0.39729 0.10713 0.0
H620 H 0.03474 0.43469 0.09053 0.0
H621 H 0.04911 0.3461 0.10623 0.0
H622 H 0.11959 0.40923 0.07347 0.0
H623 H 0.1441 0.43867 0.04038 0.0
H624 H 0.15076 0.36872 0.99036 0.0
H625 H 0.12597 0.3389 0.02302 0.0
C626 C 0.14086 0.27799 0.15382 0.0
C627 C 0.14525 0.25391 0.1401 0.0
C628 C 0.12843 0.29833 0.14126 0.0
C629 C 0.12044 0.29531 0.11455 0.0
C630 C 0.12555 0.27173 0.1005 0.0
C631 C 0.13755 0.25111 0.11321 0.0
C632 C 0.10586 0.31631 0.10175 0.0
C633 C 0.11777 0.33241 0.08123 0.0
C634 C 0.08081 0.32148 0.1108 0.0
C635 C 0.06695 0.3049 0.13205 0.0
C636 C 0.0617 0.27636 0.12926 0.0
C637 C 0.04883 0.26084 0.14948 0.0
C638 C 0.04096 0.27365 0.17252 0.0
C639 C 0.04588 0.30203 0.17536 0.0
C640 C 0.05877 0.31764 0.15521 0.0
C641 C 0.05135 0.40785 0.03107 0.0
C642 C 0.04067 0.42591 0.04873 0.0
C643 C 0.06379 0.38592 0.04072 0.0
C644 C 0.0664 0.38186 0.06828 0.0
C645 C 0.05536 0.3997 0.08582 0.0
C646 C 0.04261 0.42127 0.07623 0.0
C647 C 0.08049 0.35921 0.07913 0.0
C648 C 0.06849 0.34267 0.09939 0.0
C649 C 0.1057 0.35405 0.07017 0.0
C650 C 0.12067 0.37189 0.05054 0.0
C651 C 0.12612 0.40016 0.05532 0.0
C652 C 0.14008 0.41691 0.03666 0.0
C653 C 0.14891 0.40558 0.01324 0.0
C654 C 0.14386 0.37747 0.00848 0.0
C655 C 0.12987 0.36063 0.02706 0.0
H656 H 0.15973 0.41858 0.99882 0.0
H657 H 0.031 0.2616 0.18816 0.0
H658 H 0.63678 0.31954 0.00824 0.0
H659 H 0.61292 0.27491 0.01796 0.0
H660 H 0.62468 0.24833 0.93737 0.0
H661 H 0.64865 0.29301 0.92741 0.0
H662 H 0.57309 0.23488 0.95522 0.0
H663 H 0.66059 0.22562 0.98422 0.0
H664 H 0.70195 0.23899 0.00847 0.0
H665 H 0.66041 0.23426 0.08263 0.0
H666 H 0.61873 0.22124 0.05878 0.0
H667 H 0.52898 0.09423 0.98631 0.0
H668 H 0.55216 0.1371 0.96963 0.0
H669 H 0.55724 0.16988 0.04965 0.0
H670 H 0.5352 0.12701 0.06633 0.0
H671 H 0.60262 0.17832 0.02796 0.0
H672 H 0.51488 0.19083 0.99974 0.0
H673 H 0.47296 0.1784 0.97616 0.0
H674 H 0.51377 0.17778 0.90174 0.0
H675 H 0.55599 0.1899 0.92493 0.0
C676 C 0.63438 0.30421 0.99258 0.0
C677 C 0.64471 0.30981 0.96708 0.0
C678 C 0.62076 0.2787 0.99818 0.0
C679 C 0.61717 0.25829 0.97841 0.0
C680 C 0.62725 0.26383 0.95288 0.0
C681 C 0.64105 0.28931 0.94729 0.0
C682 C 0.60298 0.23115 0.98462 0.0
C683 C 0.57968 0.22226 0.97086 0.0
C684 C 0.61144 0.21497 0.00527 0.0
C685 C 0.63651 0.22267 0.01968 0.0
C686 C 0.66025 0.22763 0.00568 0.0
C687 C 0.68375 0.23511 0.01936 0.0
C688 C 0.6838 0.23753 0.04707 0.0
C689 C 0.66034 0.2324 0.06116 0.0
C690 C 0.63677 0.22494 0.04758 0.0
C691 C 0.53476 0.11078 1.0002 0.0
C692 C 0.53044 0.10729 0.0276 0.0
C693 C 0.54796 0.13528 0.99068 0.0
C694 C 0.55646 0.15681 0.00838 0.0
C695 C 0.55113 0.15355 0.03561 0.0
C696 C 0.53843 0.12905 0.04512 0.0
C697 C 0.57214 0.18226 0.99917 0.0
C698 C 0.59593 0.1908 0.01225 0.0
C699 C 0.56397 0.19816 0.97806 0.0
C700 C 0.53861 0.19098 0.9641 0.0
C701 C 0.51493 0.18784 0.97837 0.0
C702 C 0.49112 0.18089 0.96507 0.0
C703 C 0.49071 0.17722 0.93748 0.0
C704 C 0.51412 0.18058 0.92312 0.0
C705 C 0.53799 0.18752 0.93632 0.0
H706 H 0.47226 0.17183 0.92722 0.0
H707 H 0.70202 0.24332 0.05762 0.0
H708 H 0.0194 0.69915 0.49547 0.0
H709 H 0.03694 0.74508 0.5104 0.0
H710 H 0.98829 0.77994 0.45288 0.0
H711 H 0.97145 0.73431 0.43726 0.0
H712 H 0.03277 0.81108 0.45718 0.0
H713 H 0.96911 0.76802 0.51916 0.0
H714 H 0.95106 0.73224 0.55025 0.0
H715 H 0.02037 0.74706 0.59862 0.0
H716 H 0.03895 0.78273 0.5676 0.0
H717 H 0.99327 0.92952 0.51654 0.0
H718 H 0.99671 0.88383 0.49877 0.0
H719 H 0.05959 0.87459 0.5537 0.0
H720 H 0.05655 0.92074 0.57148 0.0
H721 H 0.01763 0.83043 0.55258 0.0
H722 H 0.07607 0.88128 0.49269 0.0
H723 H 0.09012 0.91859 0.46169 0.0
H724 H 0.02644 0.89053 0.40913 0.0
H725 H 0.01174 0.85329 0.44001 0.0
C726 C 0.01281 0.71662 0.48567 0.0
C727 C 0.99378 0.71306 0.46539 0.0
C728 C 0.02277 0.74286 0.49431 0.0
C729 C 0.01349 0.76597 0.48319 0.0
C730 C 0.99571 0.76245 0.46185 0.0
C731 C 0.98602 0.73628 0.45298 0.0
C732 C 0.02048 0.79366 0.49491 0.0
C733 C 0.02946 0.8153 0.47803 0.0
C734 C 0.01669 0.79916 0.52227 0.0
C735 C 0.00555 0.77776 0.54091 0.0
C736 C 0.98057 0.76349 0.53633 0.0
C737 C 0.97024 0.74326 0.55394 0.0
C738 C 0.9846 0.73731 0.57635 0.0
C739 C 0.0093 0.75164 0.58122 0.0
C740 C 0.01974 0.77186 0.56364 0.0
C741 C 0.00796 0.91788 0.52478 0.0
C742 C 0.02462 0.92869 0.54544 0.0
C743 C 0.00998 0.89184 0.51449 0.0
C744 C 0.02855 0.876 0.52478 0.0
C745 C 0.04525 0.88664 0.54542 0.0
C746 C 0.0435 0.91295 0.5555 0.0
C747 C 0.02924 0.84778 0.5147 0.0
C748 C 0.02161 0.82609 0.53188 0.0
C749 C 0.03381 0.84233 0.48756 0.0
C750 C 0.04272 0.86456 0.46877 0.0
C751 C 0.06494 0.88317 0.47462 0.0
C752 C 0.07304 0.9043 0.45704 0.0
C753 C 0.05916 0.90695 0.43347 0.0
C754 C 0.03718 0.88845 0.4274 0.0
C755 C 0.02897 0.8673 0.44491 0.0
H756 H 0.06546 0.92333 0.4199 0.0
H757 H 0.97657 0.72165 0.58997 0.0
H758 H 0.52952 0.82418 0.6137 0.0
H759 H 0.53258 0.77683 0.60052 0.0
H760 H 0.45019 0.75624 0.61653 0.0
H761 H 0.4469 0.80371 0.6298 0.0
H762 H 0.48143 0.71748 0.63568 0.0
H763 H 0.46798 0.76428 0.5546 0.0
H764 H 0.47648 0.80085 0.52153 0.0
H765 H 0.5546 0.77996 0.51022 0.0
H766 H 0.54669 0.74349 0.54354 0.0
H767 H 0.47508 0.58862 0.5663 0.0
H768 H 0.46709 0.63374 0.5831 0.0
H769 H 0.54587 0.66614 0.56162 0.0
H770 H 0.5538 0.62148 0.54438 0.0
H771 H 0.51236 0.69854 0.54468 0.0
H772 H 0.52782 0.65499 0.62789 0.0
H773 H 0.52087 0.61961 0.66229 0.0
H774 H 0.4404 0.63425 0.66977 0.0
H775 H 0.44692 0.66988 0.63544 0.0
C776 C 0.51205 0.80959 0.61457 0.0
C777 C 0.48793 0.81774 0.62265 0.0
C778 C 0.51383 0.78256 0.60695 0.0
C779 C 0.49154 0.76315 0.60729 0.0
C780 C 0.46759 0.77097 0.61608 0.0
C781 C 0.46574 0.79809 0.62356 0.0
C782 C 0.49331 0.73486 0.59785 0.0
C783 C 0.48779 0.71322 0.61566 0.0
C784 C 0.50202 0.72946 0.57188 0.0
C785 C 0.50681 0.75131 0.55174 0.0
C786 C 0.48704 0.76762 0.54523 0.0
C787 C 0.49174 0.78831 0.5264 0.0
C788 C 0.51609 0.79277 0.51383 0.0
C789 C 0.53576 0.7765 0.52 0.0
C790 C 0.53117 0.7558 0.53883 0.0
C791 C 0.49074 0.60533 0.56535 0.0
C792 C 0.51504 0.6015 0.55393 0.0
C793 C 0.48619 0.63108 0.57506 0.0
C794 C 0.50594 0.65331 0.57374 0.0
C795 C 0.53031 0.64933 0.56275 0.0
C796 C 0.53482 0.62374 0.55295 0.0
C797 C 0.50109 0.68107 0.58269 0.0
C798 C 0.50588 0.70268 0.56469 0.0
C799 C 0.49185 0.68641 0.6085 0.0
C800 C 0.48778 0.66484 0.62891 0.0
C801 C 0.50859 0.6505 0.63672 0.0
C802 C 0.50474 0.63044 0.65624 0.0
C803 C 0.48016 0.62452 0.66809 0.0
C804 C 0.45941 0.63879 0.66053 0.0
C805 C 0.46319 0.65898 0.6411 0.0
H806 H 0.47723 0.60897 0.6832 0.0
H807 H 0.51969 0.80879 0.49926 0.0
H808 H 0.91246 0.86444 0.83872 0.0
H809 H 0.93643 0.88255 0.79929 0.0
H810 H 0.87003 0.92288 0.77589 0.0
H811 H 0.84612 0.90526 0.81533 0.0
H812 H 0.89107 0.89374 0.73387 0.0
H813 H 0.92126 0.95981 0.80205 0.0
H814 H 0.94121 0.97449 0.84525 0.0
H815 H 0.0121 0.9418 0.82308 0.0
H816 H 0.99242 0.92658 0.77986 0.0
H817 H 0.944 0.97979 0.63163 0.0
H818 H 0.9232 0.96083 0.67199 0.0
H819 H 0.99761 0.93913 0.69945 0.0
H820 H 0.01882 0.95935 0.65943 0.0
H821 H 0.9739 0.95632 0.73982 0.0
H822 H 0.9462 0.89082 0.67229 0.0
H823 H 0.92749 0.8739 0.62922 0.0
H824 H 0.85378 0.90142 0.64994 0.0
H825 H 0.87215 0.91885 0.69301 0.0
C826 C 0.90295 0.87721 0.82523 0.0
C827 C 0.87731 0.88339 0.83036 0.0
C828 C 0.91673 0.88762 0.8027 0.0
C829 C 0.90511 0.90419 0.78458 0.0
C830 C 0.87946 0.91016 0.78952 0.0
C831 C 0.86584 0.90013 0.81221 0.0
C832 C 0.91947 0.91517 0.76036 0.0
C833 C 0.90904 0.90766 0.73516 0.0
C834 C 0.94341 0.9326 0.76191 0.0
C835 C 0.95526 0.94178 0.78785 0.0
C836 C 0.94102 0.95553 0.80648 0.0
C837 C 0.95229 0.964 0.83095 0.0
C838 C 0.97788 0.95901 0.83694 0.0
C839 C 0.99226 0.94561 0.81843 0.0
C840 C 0.98107 0.93707 0.79394 0.0
C841 C 0.956 0.97096 0.64621 0.0
C842 C 0.98311 0.97097 0.64211 0.0
C843 C 0.94399 0.9599 0.66933 0.0
C844 C 0.95856 0.94781 0.68876 0.0
C845 C 0.98576 0.94815 0.68487 0.0
C846 C 0.99791 0.95968 0.66189 0.0
C847 C 0.9454 0.93514 0.71309 0.0
C848 C 0.95603 0.94229 0.73837 0.0
C849 C 0.92183 0.91695 0.71161 0.0
C850 C 0.91063 0.90635 0.68579 0.0
C851 C 0.92605 0.89342 0.66759 0.0
C852 C 0.9155 0.88372 0.64319 0.0
C853 C 0.88948 0.88664 0.63682 0.0
C854 C 0.87394 0.8992 0.65489 0.0
C855 C 0.8844 0.90897 0.67931 0.0
H856 H 0.88135 0.87913 0.61791 0.0
H857 H 0.98657 0.96559 0.85589 0.0
H858 H 0.61531 0.13319 0.38404 0.0
H859 H 0.60105 0.12682 0.33784 0.0
H860 H 0.54854 0.05579 0.35988 0.0
H861 H 0.56298 0.06204 0.40624 0.0
H862 H 0.57462 0.04555 0.3166 0.0
H863 H 0.52556 0.11721 0.34471 0.0
H864 H 0.5195 0.16146 0.36569 0.0
H865 H 0.57021 0.20335 0.30768 0.0
H866 H 0.57695 0.15931 0.2866 0.0
H867 H 0.5196 0.0345 0.18626 0.0
H868 H 0.52214 0.04123 0.23462 0.0
H869 H 0.58027 0.11089 0.22426 0.0
H870 H 0.57734 0.1047 0.17613 0.0
H871 H 0.54547 0.12044 0.26284 0.0
H872 H 0.5985 0.049 0.23872 0.0
H873 H 0.60636 0.00487 0.21855 0.0
H874 H 0.54841 0.9629 0.26972 0.0
H875 H 0.53997 0.00686 0.28995 0.0
C876 C 0.60027 0.11663 0.37917 0.0
C877 C 0.58977 0.09851 0.39882 0.0
C878 C 0.59221 0.11291 0.35272 0.0
C879 C 0.5733 0.09115 0.34546 0.0
C880 C 0.56302 0.07283 0.36504 0.0
C881 C 0.57125 0.07642 0.39149 0.0
C882 C 0.56507 0.087 0.31725 0.0
C883 C 0.56772 0.06176 0.30501 0.0
C884 C 0.55647 0.10829 0.30198 0.0
C885 C 0.5519 0.1349 0.31417 0.0
C886 C 0.53552 0.13584 0.33649 0.0
C887 C 0.53197 0.16089 0.34841 0.0
C888 C 0.5445 0.18519 0.33806 0.0
C889 C 0.56052 0.1845 0.31569 0.0
C890 C 0.56419 0.1595 0.30372 0.0
C891 C 0.53262 0.05147 0.1943 0.0
C892 C 0.54852 0.06886 0.17738 0.0
C893 C 0.53416 0.0552 0.22191 0.0
C894 C 0.55163 0.07639 0.23303 0.0
C895 C 0.56672 0.09438 0.21613 0.0
C896 C 0.56524 0.09062 0.18862 0.0
C897 C 0.55537 0.07914 0.26223 0.0
C898 C 0.55193 0.10412 0.27462 0.0
C899 C 0.56323 0.05764 0.27767 0.0
C900 C 0.56838 0.03122 0.26561 0.0
C901 C 0.58729 0.03037 0.24551 0.0
C902 C 0.59188 0.0054 0.2341 0.0
C903 C 0.57783 0.98111 0.24278 0.0
C904 C 0.55923 0.98174 0.26297 0.0
C905 C 0.55455 0.00667 0.27442 0.0
H906 H 0.58141 0.96179 0.23393 0.0
H907 H 0.54178 0.20456 0.34736 0.0
H908 H 0.3723 0.62862 0.28269 0.0
H909 H 0.38794 0.61067 0.3242 0.0
H910 H 0.46397 0.60664 0.28891 0.0
H911 H 0.44812 0.62356 0.24708 0.0
H912 H 0.45141 0.56277 0.3157 0.0
H913 H 0.45055 0.65837 0.33451 0.0
H914 H 0.43144 0.70191 0.33803 0.0
H915 H 0.37475 0.66615 0.39406 0.0
H916 H 0.39334 0.62227 0.39062 0.0
H917 H 0.52931 0.56006 0.432 0.0
H918 H 0.50844 0.57411 0.39151 0.0
H919 H 0.43253 0.55834 0.42846 0.0
H920 H 0.45328 0.54389 0.46916 0.0
H921 H 0.44221 0.61008 0.40213 0.0
H922 H 0.4468 0.51479 0.38463 0.0
H923 H 0.46878 0.47298 0.3817 0.0
H924 H 0.52181 0.51057 0.32324 0.0
H925 H 0.50039 0.55278 0.32612 0.0
C926 C 0.39237 0.62394 0.2838 0.0
C927 C 0.40901 0.62758 0.26163 0.0
C928 C 0.40133 0.61379 0.3076 0.0
C929 C 0.42729 0.60764 0.30988 0.0
C930 C 0.44387 0.61119 0.28769 0.0
C931 C 0.43481 0.62095 0.26379 0.0
C932 C 0.43719 0.59727 0.33524 0.0
C933 C 0.44961 0.57333 0.33452 0.0
C934 C 0.43438 0.61062 0.36 0.0
C935 C 0.42315 0.63696 0.36207 0.0
C936 C 0.43388 0.65973 0.34742 0.0
C937 C 0.42316 0.68448 0.34943 0.0
C938 C 0.40184 0.68677 0.36619 0.0
C939 C 0.39124 0.66433 0.38104 0.0
C940 C 0.40186 0.63953 0.37908 0.0
C941 C 0.50816 0.55948 0.43154 0.0
C942 C 0.49292 0.5508 0.45376 0.0
C943 C 0.49627 0.56745 0.40835 0.0
C944 C 0.46896 0.56711 0.40698 0.0
C945 C 0.45365 0.55869 0.42916 0.0
C946 C 0.46552 0.55035 0.45231 0.0
C947 C 0.4566 0.57592 0.38236 0.0
C948 C 0.44376 0.59951 0.38327 0.0
C949 C 0.45935 0.5625 0.35773 0.0
C950 C 0.47211 0.53703 0.35576 0.0
C951 C 0.46328 0.51422 0.3713 0.0
C952 C 0.47562 0.49043 0.36962 0.0
C953 C 0.49672 0.48914 0.35233 0.0
C954 C 0.50547 0.51161 0.33664 0.0
C955 C 0.49322 0.53546 0.33826 0.0
H956 H 0.50625 0.4707 0.35107 0.0
H957 H 0.39358 0.70595 0.36773 0.0
H958 H 0.12355 0.48814 0.70311 0.0
H959 H 0.1204 0.48292 0.75112 0.0
H960 H 0.06974 0.40734 0.74042 0.0
H961 H 0.07143 0.41346 0.69232 0.0
H962 H 0.04986 0.43666 0.77546 0.0
H963 H 0.13498 0.40971 0.76475 0.0
H964 H 0.18059 0.41237 0.74887 0.0
H965 H 0.19981 0.48776 0.79187 0.0
H966 H 0.15422 0.48578 0.80772 0.0
H967 H 0.04069 0.42614 0.91355 0.0
H968 H 0.05814 0.41256 0.87056 0.0
H969 H 0.09783 0.49405 0.86134 0.0
H970 H 0.08029 0.50736 0.90431 0.0
H971 H 0.12526 0.45251 0.83782 0.0
H972 H 0.03789 0.48238 0.84032 0.0
H973 H 0.99232 0.47946 0.85646 0.0
H974 H 0.97807 0.39645 0.82841 0.0
H975 H 0.02372 0.39879 0.81245 0.0
C976 C 0.11188 0.47027 0.71092 0.0
C977 C 0.09818 0.4509 0.69374 0.0
C978 C 0.11037 0.46713 0.73845 0.0
C979 C 0.09537 0.44436 0.7495 0.0
C980 C 0.08179 0.42487 0.73239 0.0
C981 C 0.08308 0.42816 0.70479 0.0
C982 C 0.09203 0.44241 0.77882 0.0
C983 C 0.06644 0.43938 0.78902 0.0
C984 C 0.11358 0.4464 0.79669 0.0
C985 C 0.1411 0.44766 0.78731 0.0
C986 C 0.14888 0.42696 0.77069 0.0
C987 C 0.17475 0.42833 0.76171 0.0
C988 C 0.19308 0.45024 0.76933 0.0
C989 C 0.18559 0.4708 0.78599 0.0
C990 C 0.15974 0.46954 0.79501 0.0
C991 C 0.05417 0.4406 0.90281 0.0
C992 C 0.05953 0.4676 0.91205 0.0
C993 C 0.06398 0.43297 0.87828 0.0
C994 C 0.07905 0.45241 0.86268 0.0
C995 C 0.08638 0.47872 0.87313 0.0
C996 C 0.07647 0.48632 0.8976 0.0
C997 C 0.08325 0.44708 0.83405 0.0
C998 C 0.10887 0.44899 0.82409 0.0
C999 C 0.06178 0.44189 0.81631 0.0
C1000 C 0.03425 0.44065 0.82549 0.0
C1001 C 0.02507 0.46346 0.83776 0.0
C1002 C 0.99924 0.46191 0.84686 0.0
C1003 C 0.98234 0.43776 0.84354 0.0
C1004 C 0.99121 0.41513 0.83102 0.0
C1005 C 0.01705 0.41655 0.82194 0.0
H1006 H 0.96234 0.43659 0.85061 0.0
H1007 H 0.21309 0.45127 0.76235 0.0
H1008 H 0.7229 0.89673 0.9117 0.0
H1009 H 0.68292 0.9129 0.92952 0.0
H1010 H 0.7278 0.95398 0.9937 0.0
H1011 H 0.76762 0.93786 0.97617 0.0
H1012 H 0.68247 0.92823 0.01213 0.0
H1013 H 0.70797 0.98906 0.93972 0.0
H1014 H 0.71932 0.0008 0.89327 0.0
H1015 H 0.64392 0.96286 0.86727 0.0
H1016 H 0.63225 0.95058 0.91356 0.0
H1017 H 0.59324 0.01688 0.05996 0.0
H1018 H 0.63087 0.99726 0.04124 0.0
H1019 H 0.58305 0.96377 0.9755 0.0
H1020 H 0.54552 0.98403 0.99375 0.0
H1021 H 0.62851 0.98337 0.95707 0.0
H1022 H 0.60192 0.9236 0.02892 0.0
H1023 H 0.59009 0.91115 0.07511 0.0
H1024 H 0.66644 0.94546 0.10185 0.0
H1025 H 0.67866 0.95842 0.05587 0.0
C1026 C 0.72426 0.90912 0.92966 0.0
C1027 C 0.74864 0.916 0.94239 0.0
C1028 C 0.70135 0.91849 0.93979 0.0
C1029 C 0.70223 0.93497 0.9629 0.0
C1030 C 0.72645 0.94135 0.97588 0.0
C1031 C 0.74932 0.93214 0.96572 0.0
C1032 C 0.67813 0.94579 0.97357 0.0
C1033 C 0.67084 0.94052 1.00014 0.0
C1034 C 0.66237 0.96125 0.95787 0.0
C1035 C 0.66935 0.96864 0.93006 0.0
C1036 C 0.69389 0.98303 0.92407 0.0
C1037 C 0.70037 0.98982 0.89778 0.0
C1038 C 0.68239 0.98251 0.87732 0.0
C1039 C 0.65785 0.96846 0.88313 0.0
C1040 C 0.65129 0.9616 0.90939 0.0
C1041 C 0.59067 0.0053 0.04154 0.0
C1042 C 0.56621 0.002 0.02848 0.0
C1043 C 0.61225 0.9939 0.03087 0.0
C1044 C 0.60992 0.97852 0.00706 0.0
C1045 C 0.58554 0.97543 0.99388 0.0
C1046 C 0.56399 0.987 0.00443 0.0
C1047 C 0.6329 0.96601 0.99576 0.0
C1048 C 0.64 0.97095 0.96907 0.0
C1049 C 0.64839 0.95007 0.01131 0.0
C1050 C 0.64113 0.9422 0.03897 0.0
C1051 C 0.61613 0.92866 0.04467 0.0
C1052 C 0.60936 0.92149 0.0708 0.0
C1053 C 0.62747 0.92757 0.09139 0.0
C1054 C 0.65242 0.94078 0.08588 0.0
C1055 C 0.6593 0.94802 0.05978 0.0
H1056 H 0.62218 0.922 0.11161 0.0
H1057 H 0.68743 0.98779 0.85698 0.0
H1058 H 0.68579 0.03934 0.51609 0.0
H1059 H 0.73159 0.03299 0.52391 0.0
H1060 H 0.75613 0.11229 0.49082 0.0
H1061 H 0.71015 0.11887 0.48288 0.0
H1062 H 0.78545 0.07183 0.47214 0.0
H1063 H 0.75958 0.10642 0.55539 0.0
H1064 H 0.73133 0.10985 0.59457 0.0
H1065 H 0.74177 0.02771 0.6162 0.0
H1066 H 0.76978 0.02362 0.57691 0.0
H1067 H 0.91612 0.05335 0.51723 0.0
H1068 H 0.87552 0.07436 0.51029 0.0
H1069 H 0.83058 0.00255 0.54209 0.0
H1070 H 0.87071 0.98192 0.54951 0.0
H1071 H 0.81486 0.04901 0.56243 0.0
H1072 H 0.83505 0.0127 0.47561 0.0
H1073 H 0.86272 0.0088 0.43604 0.0
H1074 H 0.86292 0.09454 0.42132 0.0
H1075 H 0.83549 0.099 0.46104 0.0
C1076 C 0.70088 0.05546 0.51045 0.0
C1077 C 0.69432 0.07965 0.49895 0.0
C1078 C 0.72705 0.05185 0.51504 0.0
C1079 C 0.74721 0.07231 0.50822 0.0
C1080 C 0.74083 0.09631 0.49631 0.0
C1081 C 0.71457 0.10005 0.49186 0.0
C1082 C 0.77487 0.06823 0.51351 0.0
C1083 C 0.79211 0.06743 0.49196 0.0
C1084 C 0.78343 0.0623 0.53934 0.0
C1085 C 0.76666 0.06467 0.56308 0.0
C1086 C 0.7557 0.08901 0.56838 0.0
C1087 C 0.73975 0.09109 0.59064 0.0
C1088 C 0.73472 0.069 0.60784 0.0
C1089 C 0.74568 0.0448 0.60285 0.0
C1090 C 0.76162 0.04261 0.58061 0.0
C1091 C 0.89756 0.0422 0.52285 0.0
C1092 C 0.8966 0.01587 0.53366 0.0
C1093 C 0.87441 0.05412 0.51876 0.0
C1094 C 0.85004 0.03992 0.52554 0.0
C1095 C 0.84917 0.01387 0.5367 0.0
C1096 C 0.87214 0.00196 0.54065 0.0
C1097 C 0.82513 0.05164 0.52096 0.0
C1098 C 0.8084 0.05395 0.54269 0.0
C1099 C 0.81708 0.05894 0.49532 0.0
C1100 C 0.83353 0.05625 0.47147 0.0
C1101 C 0.84119 0.03077 0.46407 0.0
C1102 C 0.85679 0.02844 0.44159 0.0
C1103 C 0.86465 0.05143 0.42623 0.0
C1104 C 0.85686 0.07677 0.43327 0.0
C1105 C 0.84129 0.0792 0.45576 0.0
H1106 H 0.87672 0.04959 0.40883 0.0
H1107 H 0.72237 0.07065 0.62506 0.0
H1108 H 0.25668 0.64011 0.15578 0.0
H1109 H 0.21594 0.61734 0.13692 0.0
H1110 H 0.25987 0.57787 0.07796 0.0
H1111 H 0.30086 0.60071 0.09666 0.0
H1112 H 0.21867 0.6013 0.05616 0.0
H1113 H 0.23195 0.54103 0.12781 0.0
H1114 H 0.24079 0.52879 0.17413 0.0
H1115 H 0.17113 0.56173 0.19986 0.0
H1116 H 0.16205 0.57452 0.15374 0.0
H1117 H 0.10357 0.51632 0.01072 0.0
H1118 H 0.14759 0.53412 0.0263 0.0
H1119 H 0.11383 0.57087 0.09436 0.0
H1120 H 0.0701 0.5525 0.07939 0.0
H1121 H 0.15226 0.54495 0.10991 0.0
H1122 H 0.14053 0.60865 0.03989 0.0
H1123 H 0.13146 0.62236 0.99406 0.0
H1124 H 0.19756 0.58465 0.96577 0.0
H1125 H 0.20683 0.57041 0.01141 0.0
C1126 C 0.25774 0.62641 0.13894 0.0
C1127 C 0.28203 0.62222 0.12774 0.0
C1128 C 0.23442 0.61336 0.12823 0.0
C1129 C 0.2349 0.5958 0.10613 0.0
C1130 C 0.2591 0.59134 0.09502 0.0
C1131 C 0.28249 0.60431 0.10582 0.0
C1132 C 0.21 0.58283 0.09427 0.0
C1133 C 0.20429 0.58857 0.06773 0.0
C1134 C 0.19109 0.56671 0.10957 0.0
C1135 C 0.19644 0.55892 0.13733 0.0
C1136 C 0.21862 0.54585 0.14337 0.0
C1137 C 0.22365 0.53878 0.16959 0.0
C1138 C 0.20656 0.54453 0.18993 0.0
C1139 C 0.18436 0.5573 0.18408 0.0
C1140 C 0.17924 0.56444 0.1579 0.0
C1141 C 0.10558 0.52848 0.02882 0.0
C1142 C 0.0834 0.53299 0.04385 0.0
C1143 C 0.13073 0.53867 0.0377 0.0
C1144 C 0.13405 0.55395 0.06148 0.0
C1145 C 0.11182 0.55901 0.07606 0.0
C1146 C 0.0868 0.54858 0.06741 0.0
C1147 C 0.16057 0.56392 0.07192 0.0
C1148 C 0.16666 0.55752 0.0982 0.0
C1149 C 0.17971 0.5796 0.05644 0.0
C1150 C 0.17419 0.5882 0.02901 0.0
C1151 C 0.15301 0.60309 0.02386 0.0
C1152 C 0.14785 0.611 0.99793 0.0
C1153 C 0.16388 0.60431 0.977 0.0
C1154 C 0.18514 0.58977 0.98199 0.0
C1155 C 0.19036 0.5818 0.00789 0.0
H1156 H 0.15986 0.61044 0.95694 0.0
H1157 H 0.2105 0.53904 0.21021 0.0
H1158 H 0.19698 0.536 0.59024 0.0
H1159 H 0.24395 0.53759 0.58133 0.0
H1160 H 0.23534 0.44992 0.57167 0.0
H1161 H 0.18844 0.4481 0.58074 0.0
H1162 H 0.27579 0.46791 0.60447 0.0
H1163 H 0.24465 0.49109 0.51823 0.0
H1164 H 0.22122 0.51742 0.48645 0.0
H1165 H 0.27066 0.59066 0.50817 0.0
H1166 H 0.29417 0.56482 0.54036 0.0
H1167 H 0.39878 0.44915 0.55103 0.0
H1168 H 0.35186 0.45077 0.55692 0.0
H1169 H 0.36492 0.53869 0.56322 0.0
H1170 H 0.41208 0.53718 0.5572 0.0
H1171 H 0.32253 0.5225 0.53297 0.0
H1172 H 0.35402 0.49998 0.61859 0.0
H1173 H 0.37756 0.4743 0.65084 0.0
H1174 H 0.32745 0.40085 0.63128 0.0
H1175 H 0.30383 0.42601 0.59862 0.0
C1176 C 0.20504 0.51707 0.58603 0.0
C1177 C 0.18898 0.49191 0.58622 0.0
C1178 C 0.23187 0.51804 0.58085 0.0
C1179 C 0.24309 0.49389 0.57569 0.0
C1180 C 0.22706 0.46879 0.57561 0.0
C1181 C 0.20025 0.46781 0.58072 0.0
C1182 C 0.27172 0.49459 0.57141 0.0
C1183 C 0.28596 0.47955 0.58861 0.0
C1184 C 0.28507 0.5105 0.55127 0.0
C1185 C 0.27098 0.52607 0.53191 0.0
C1186 C 0.25038 0.51285 0.5164 0.0
C1187 C 0.23711 0.52768 0.49828 0.0
C1188 C 0.2444 0.55571 0.49535 0.0
C1189 C 0.26501 0.56896 0.51049 0.0
C1190 C 0.27833 0.55422 0.52866 0.0
C1191 C 0.39173 0.46882 0.55385 0.0
C1192 C 0.40919 0.49302 0.55393 0.0
C1193 C 0.36488 0.46973 0.55716 0.0
C1194 C 0.35493 0.49482 0.56096 0.0
C1195 C 0.3722 0.5191 0.56038 0.0
C1196 C 0.39911 0.51822 0.5569 0.0
C1197 C 0.32653 0.49553 0.56582 0.0
C1198 C 0.31236 0.51089 0.54884 0.0
C1199 C 0.31321 0.48003 0.58627 0.0
C1200 C 0.3273 0.46484 0.60598 0.0
C1201 C 0.34814 0.47831 0.62102 0.0
C1202 C 0.36148 0.46385 0.63939 0.0
C1203 C 0.35405 0.43595 0.64306 0.0
C1204 C 0.33321 0.42246 0.6284 0.0
C1205 C 0.31982 0.43681 0.60997 0.0
H1206 H 0.3644 0.4248 0.6573 0.0
H1207 H 0.23411 0.56715 0.4813 0.0
H1208 H 0.88811 0.73198 0.89385 0.0
H1209 H 0.90826 0.69271 0.9101 0.0
H1210 H 0.92258 0.73309 0.98613 0.0
H1211 H 0.90368 0.77299 0.9694 0.0
H1212 H 0.96185 0.70833 0.97672 0.0
H1213 H 0.87009 0.67841 0.97272 0.0
H1214 H 0.82602 0.6696 0.95264 0.0
H1215 H 0.85488 0.61582 0.8949 0.0
H1216 H 0.89922 0.62458 0.91443 0.0
H1217 H 0.97957 0.58337 0.04572 0.0
H1218 H 0.96121 0.62441 0.0304 0.0
H1219 H 0.9661 0.59682 0.94917 0.0
H1220 H 0.98485 0.55619 0.9642 0.0
H1221 H 0.91673 0.61464 0.96288 0.0
H1222 H 0.00932 0.64586 0.96943 0.0
H1223 H 0.05185 0.65396 0.99274 0.0
H1224 H 0.01857 0.70479 0.05027 0.0
H1225 H 0.97572 0.69665 0.0275 0.0
C1226 C 0.89566 0.73255 0.91399 0.0
C1227 C 0.89415 0.75567 0.93031 0.0
C1228 C 0.90702 0.7099 0.92342 0.0
C1229 C 0.9165 0.70935 0.9497 0.0
C1230 C 0.91544 0.73271 0.96583 0.0
C1231 C 0.90454 0.75559 0.95624 0.0
C1232 C 0.92751 0.68459 0.96033 0.0
C1233 C 0.95168 0.68794 0.97396 0.0
C1234 C 0.91465 0.65766 0.9567 0.0
C1235 C 0.88803 0.65237 0.94488 0.0
C1236 C 0.86708 0.66486 0.95562 0.0
C1237 C 0.84205 0.65985 0.94436 0.0
C1238 C 0.83767 0.64222 0.92246 0.0
C1239 C 0.85831 0.6295 0.91183 0.0
C1240 C 0.88339 0.63446 0.923 0.0
C1241 C 0.97685 0.58611 0.02459 0.0
C1242 C 0.98384 0.56648 0.00622 0.0
C1243 C 0.96637 0.60961 0.01585 0.0
C1244 C 0.9623 0.6138 0.98859 0.0
C1245 C 0.96902 0.5941 0.97028 0.0
C1246 C 0.97988 0.57089 0.97894 0.0
C1247 C 0.9509 0.63856 0.97902 0.0
C1248 C 0.92671 0.63513 0.96563 0.0
C1249 C 0.96346 0.66538 0.98333 0.0
C1250 C 0.98925 0.67041 0.99692 0.0
C1251 C 0.01101 0.65857 0.98718 0.0
C1252 C 0.03519 0.6632 1.00027 0.0
C1253 C 0.03789 0.67981 0.02301 0.0
C1254 C 0.01644 0.69189 0.03267 0.0
C1255 C 0.99221 0.68729 0.01967 0.0
H1256 H 0.05662 0.68338 0.03312 0.0
H1257 H 0.81828 0.63837 0.91378 0.0
H1258 H 0.42905 0.74991 0.19 0.0
H1259 H 0.44827 0.79682 0.18096 0.0
H1260 H 0.41577 0.79034 0.10167 0.0
H1261 H 0.39705 0.74361 0.11026 0.0
H1262 H 0.46468 0.8142 0.10053 0.0
H1263 H 0.38701 0.82359 0.15301 0.0
H1264 H 0.35882 0.81678 0.19262 0.0
H1265 H 0.4205 0.85739 0.24137 0.0
H1266 H 0.44917 0.86414 0.20206 0.0
H1267 H 0.45757 0.94747 0.05732 0.0
H1268 H 0.44615 0.90132 0.07402 0.0
H1269 H 0.48912 0.92311 0.14637 0.0
H1270 H 0.50061 0.96962 0.12985 0.0
H1271 H 0.44118 0.89196 0.15535 0.0
H1272 H 0.51669 0.88772 0.101 0.0
H1273 H 0.54363 0.89569 0.06066 0.0
H1274 H 0.48555 0.84558 0.01494 0.0
H1275 H 0.45797 0.83775 0.05487 0.0
C1276 C 0.4261 0.75846 0.17061 0.0
C1277 C 0.41143 0.743 0.15089 0.0
C1278 C 0.43702 0.7853 0.16552 0.0
C1279 C 0.43326 0.79718 0.14071 0.0
C1280 C 0.41899 0.78161 0.12093 0.0
C1281 C 0.4082 0.75486 0.12594 0.0
C1282 C 0.44374 0.82592 0.13509 0.0
C1283 C 0.45942 0.83119 0.11245 0.0
C1284 C 0.43755 0.8481 0.15108 0.0
C1285 C 0.42033 0.84406 0.17468 0.0
C1286 C 0.39462 0.83087 0.17222 0.0
C1287 C 0.37855 0.82705 0.1946 0.0
C1288 C 0.38789 0.83656 0.21951 0.0
C1289 C 0.41331 0.84998 0.22207 0.0
C1290 C 0.42947 0.85381 0.19975 0.0
C1291 C 0.46451 0.94257 0.07686 0.0
C1292 C 0.48017 0.96218 0.09218 0.0
C1293 C 0.45803 0.91613 0.08633 0.0
C1294 C 0.46714 0.90871 0.11125 0.0
C1295 C 0.48202 0.92843 0.12703 0.0
C1296 C 0.48859 0.95495 0.11753 0.0
C1297 C 0.46138 0.88013 0.12037 0.0
C1298 C 0.44672 0.87493 0.14367 0.0
C1299 C 0.46843 0.85798 0.10495 0.0
C1300 C 0.48517 0.8623 0.08093 0.0
C1301 C 0.50957 0.87854 0.08231 0.0
C1302 C 0.52497 0.88302 0.05952 0.0
C1303 C 0.51631 0.87116 0.03526 0.0
C1304 C 0.49223 0.85476 0.03375 0.0
C1305 C 0.47671 0.85028 0.05646 0.0
H1306 H 0.52826 0.87467 0.01764 0.0
H1307 H 0.37542 0.8336 0.23682 0.0
H1308 H 0.00952 0.31324 0.61337 0.0
H1309 H 0.99824 0.26415 0.60601 0.0
H1310 H 0.0669 0.24835 0.65015 0.0
H1311 H 0.0785 0.29739 0.65734 0.0
H1312 H 0.06269 0.22001 0.60407 0.0
H1313 H 0.00559 0.23636 0.67699 0.0
H1314 H 0.97148 0.25887 0.70007 0.0
H1315 H 0.91621 0.23227 0.63832 0.0
H1316 H 0.95011 0.20989 0.61468 0.0
H1317 H 0.04064 0.08036 0.62514 0.0
H1318 H 0.04365 0.12921 0.63441 0.0
H1319 H 0.97659 0.13545 0.58404 0.0
H1320 H 0.97319 0.08612 0.57477 0.0
H1321 H 0.9777 0.16885 0.63024 0.0
H1322 H 0.03428 0.15046 0.55845 0.0
H1323 H 0.068 0.12647 0.53646 0.0
H1324 H 0.12429 0.15706 0.59592 0.0
H1325 H 0.09071 0.18064 0.61871 0.0
C1326 C 0.02216 0.29933 0.62164 0.0
C1327 C 0.04493 0.30925 0.63594 0.0
C1328 C 0.01562 0.27126 0.61749 0.0
C1329 C 0.03163 0.25257 0.62768 0.0
C1330 C 0.05427 0.26241 0.64209 0.0
C1331 C 0.06083 0.29046 0.64625 0.0
C1332 C 0.02532 0.22279 0.62268 0.0
C1333 C 0.04421 0.2088 0.61007 0.0
C1334 C 1.00087 0.20831 0.62972 0.0
C1335 C 0.98047 0.22171 0.64392 0.0
C1336 C 0.98622 0.23551 0.66822 0.0
C1337 C 0.96692 0.2482 0.68142 0.0
C1338 C 0.94172 0.24707 0.67063 0.0
C1339 C 0.93575 0.23317 0.64664 0.0
C1340 C 0.955 0.22046 0.63334 0.0
C1341 C 0.02624 0.09197 0.6163 0.0
C1342 C 0.00686 0.07943 0.59894 0.0
C1343 C 0.02803 0.11992 0.62161 0.0
C1344 C 0.01066 0.13599 0.6095 0.0
C1345 C 0.99025 0.12336 0.59346 0.0
C1346 C 0.98836 0.09522 0.58818 0.0
C1347 C 0.01528 0.16613 0.61218 0.0
C1348 C 0.99608 0.18016 0.62416 0.0
C1349 C 0.03944 0.18074 0.6045 0.0
C1350 C 0.05989 0.16717 0.59042 0.0
C1351 C 0.0538 0.15194 0.56695 0.0
C1352 C 0.07289 0.13842 0.55433 0.0
C1353 C 0.09826 0.14025 0.56478 0.0
C1354 C 0.10461 0.15565 0.58785 0.0
C1355 C 0.08556 0.1691 0.60064 0.0
H1356 H 0.11301 0.12976 0.55498 0.0
H1357 H 0.92679 0.2569 0.68089 0.0
H1358 H 0.53033 0.23796 0.42609 0.0
H1359 H 0.52585 0.28603 0.43428 0.0
H1360 H 0.6077 0.30745 0.41599 0.0
H1361 H 0.61249 0.25919 0.40833 0.0
H1362 H 0.59602 0.33091 0.46085 0.0
H1363 H 0.55864 0.32426 0.37401 0.0
H1364 H 0.52966 0.30482 0.33777 0.0
H1365 H 0.46201 0.31836 0.38391 0.0
H1366 H 0.49058 0.33753 0.42061 0.0
H1367 H 0.58297 0.47319 0.47324 0.0
H1368 H 0.59064 0.4292 0.45352 0.0
H1369 H 0.51251 0.39518 0.4755 0.0
H1370 H 0.50462 0.43898 0.49514 0.0
H1371 H 0.5254 0.38056 0.42446 0.0
H1372 H 0.56342 0.38268 0.51267 0.0
H1373 H 0.59261 0.40229 0.54871 0.0
H1374 H 0.65967 0.39753 0.49872 0.0
H1375 H 0.63081 0.37823 0.46224 0.0
C1376 C 0.54732 0.2529 0.42344 0.0
C1377 C 0.5718 0.24471 0.41668 0.0
C1378 C 0.54469 0.28044 0.428 0.0
C1379 C 0.56639 0.30042 0.42556 0.0
C1380 C 0.59069 0.29239 0.41801 0.0
C1381 C 0.59337 0.26481 0.41357 0.0
C1382 C 0.56407 0.32934 0.43279 0.0
C1383 C 0.58092 0.34195 0.45245 0.0
C1384 C 0.54407 0.34361 0.42222 0.0
C1385 C 0.52678 0.33215 0.40016 0.0
C1386 C 0.53759 0.32291 0.37652 0.0
C1387 C 0.52123 0.31197 0.35588 0.0
C1388 C 0.49401 0.31031 0.35856 0.0
C1389 C 0.4831 0.31965 0.38187 0.0
C1390 C 0.49937 0.33058 0.40259 0.0
C1391 C 0.56739 0.45637 0.47379 0.0
C1392 C 0.54323 0.45953 0.48588 0.0
C1393 C 0.57182 0.43126 0.46254 0.0
C1394 C 0.55219 0.40892 0.46321 0.0
C1395 C 0.52789 0.41219 0.47475 0.0
C1396 C 0.52348 0.43721 0.48608 0.0
C1397 C 0.5571 0.3818 0.45268 0.0
C1398 C 0.54072 0.36957 0.43249 0.0
C1399 C 0.57759 0.3679 0.46266 0.0
C1400 C 0.59495 0.37932 0.48464 0.0
C1401 C 0.58437 0.38602 0.5093 0.0
C1402 C 0.60086 0.39705 0.52981 0.0
C1403 C 0.62797 0.40123 0.52598 0.0
C1404 C 0.63866 0.39433 0.50164 0.0
C1405 C 0.62225 0.38333 0.48104 0.0
H1406 H 0.6407 0.40977 0.54189 0.0
H1407 H 0.48138 0.30183 0.34255 0.0
loop_
_geom_bond_atom_site_label_1
_geom_bond_atom_site_label_2
_geom_bond_distance
_geom_bond_site_symmetry_2
_ccdc_geom_bond_type
O0 Cd1 2.300 . S
O0 C7 1.275 . S
Cd1 O0 2.300 . S
Cd1 O9 2.381 . S
Cd1 O10 2.378 . S
O2 Cd3 2.385 . S
O2 C7 1.255 . S
Cd3 O2 2.385 . S
Cd3 O4 2.317 . S
O4 Cd3 2.317 . S
O4 C5 1.232 . S
C5 O4 1.232 . S
C5 O6 1.218 . S
O6 C5 1.218 . S
C7 O0 1.275 . S
C7 O2 1.255 . S
C8 O9 1.258 . S
C8 O10 1.256 . S
O9 Cd1 2.381 . S
O9 C8 1.258 . S
O10 Cd1 2.378 . S
O10 C8 1.256 . S
O11 Cd12 2.300 . S
O11 C18 1.275 . S
Cd12 O11 2.300 . S
Cd12 O20 2.381 . S
Cd12 O21 2.378 . S
O13 Cd14 2.385 . S
O13 C18 1.255 . S
Cd14 O13 2.385 . S
Cd14 O15 2.317 . S
O15 Cd14 2.317 . S
O15 C16 1.232 . S
C16 O15 1.232 . S
C16 O17 1.218 . S
O17 C16 1.218 . S
C18 O11 1.275 . S
C18 O13 1.255 . S
C19 O20 1.258 . S
C19 O21 1.256 . S
O20 Cd12 2.381 . S
O20 C19 1.258 . S
O21 Cd12 2.378 . S
O21 C19 1.256 . S
O22 Cd23 2.300 . S
O22 C29 1.275 . S
Cd23 O22 2.300 . S
Cd23 O31 2.381 . S
Cd23 O32 2.378 . S
O24 Cd25 2.385 . S
O24 C29 1.255 . S
Cd25 O24 2.385 . S
Cd25 O26 2.317 . S
O26 Cd25 2.317 . S
O26 C27 1.232 . S
C27 O26 1.232 . S
C27 O28 1.218 . S
O28 C27 1.218 . S
C29 O22 1.275 . S
C29 O24 1.255 . S
C30 O31 1.258 . S
C30 O32 1.256 . S
O31 Cd23 2.381 . S
O31 C30 1.258 . S
O32 Cd23 2.378 . S
O32 C30 1.256 . S
O33 Cd34 2.300 . S
O33 C40 1.275 . S
Cd34 O33 2.300 . S
Cd34 O42 2.381 . S
Cd34 O43 2.378 . S
O35 Cd36 2.385 . S
O35 C40 1.255 . S
Cd36 O35 2.385 . S
Cd36 O37 2.317 . S
O37 Cd36 2.317 . S
O37 C38 1.232 . S
C38 O37 1.232 . S
C38 O39 1.218 . S
O39 C38 1.218 . S
C40 O33 1.275 . S
C40 O35 1.255 . S
C41 O42 1.258 . S
C41 O43 1.256 . S
O42 Cd34 2.381 . S
O42 C41 1.258 . S
O43 Cd34 2.378 . S
O43 C41 1.256 . S
O44 Cd45 2.300 . S
O44 C51 1.275 . S
Cd45 O44 2.300 . S
Cd45 O53 2.381 . S
Cd45 O54 2.378 . S
O46 Cd47 2.385 . S
O46 C51 1.255 . S
Cd47 O46 2.385 . S
Cd47 O48 2.317 . S
O48 Cd47 2.317 . S
O48 C49 1.232 . S
C49 O48 1.232 . S
C49 O50 1.218 . S
O50 C49 1.218 . S
C51 O44 1.275 . S
C51 O46 1.255 . S
C52 O53 1.258 . S
C52 O54 1.256 . S
O53 Cd45 2.381 . S
O53 C52 1.258 . S
O54 Cd45 2.378 . S
O54 C52 1.256 . S
O55 Cd56 2.300 . S
O55 C62 1.275 . S
Cd56 O55 2.300 . S
Cd56 O64 2.381 . S
Cd56 O65 2.378 . S
O57 Cd58 2.385 . S
O57 C62 1.255 . S
Cd58 O57 2.385 . S
Cd58 O59 2.317 . S
O59 Cd58 2.317 . S
O59 C60 1.232 . S
C60 O59 1.232 . S
C60 O61 1.218 . S
O61 C60 1.218 . S
C62 O55 1.275 . S
C62 O57 1.255 . S
C63 O64 1.258 . S
C63 O65 1.256 . S
O64 Cd56 2.381 . S
O64 C63 1.258 . S
O65 Cd56 2.378 . S
O65 C63 1.256 . S
O66 Cd67 2.300 . S
O66 C73 1.275 . S
Cd67 O66 2.300 . S
Cd67 O75 2.381 . S
Cd67 O76 2.378 . S
O68 Cd69 2.385 . S
O68 C73 1.255 . S
Cd69 O68 2.385 . S
Cd69 O70 2.317 . S
O70 Cd69 2.317 . S
O70 C71 1.232 . S
C71 O70 1.232 . S
C71 O72 1.218 . S
O72 C71 1.218 . S
C73 O66 1.275 . S
C73 O68 1.255 . S
C74 O75 1.258 . S
C74 O76 1.256 . S
O75 Cd67 2.381 . S
O75 C74 1.258 . S
O76 Cd67 2.378 . S
O76 C74 1.256 . S
O77 Cd78 2.300 . S
O77 C84 1.275 . S
Cd78 O77 2.300 . S
Cd78 O86 2.381 . S
Cd78 O87 2.378 . S
O79 Cd80 2.385 . S
O79 C84 1.255 . S
Cd80 O79 2.385 . S
Cd80 O81 2.317 . S
O81 Cd80 2.317 . S
O81 C82 1.232 . S
C82 O81 1.232 . S
C82 O83 1.218 . S
O83 C82 1.218 . S
C84 O77 1.275 . S
C84 O79 1.255 . S
C85 O86 1.258 . S
C85 O87 1.256 . S
O86 Cd78 2.381 . S
O86 C85 1.258 . S
O87 Cd78 2.378 . S
O87 C85 1.256 . S
Co88 N93 2.057 . S
Co88 O105 2.021 . S
Co88 O108 2.062 . S
Co88 O112 2.117 1_545 S
Co88 O113 2.034 . S
C89 O109 1.259 1_655 S
C89 O112 1.258 . S
Co90 N99 2.057 . S
Co90 O106 2.117 1_565 S
Co90 O107 2.020 1_565 S
Co90 O109 2.021 . S
Co90 O114 2.062 . S
C91 N93 1.316 . S
C91 N94 1.347 . S
C91 H96 0.931 . S
C92 N93 1.375 1_565 S
C92 C95 1.350 1_565 S
C92 H97 0.930 . S
N93 Co88 2.057 . S
N93 C91 1.316 . S
N93 C92 1.375 1_545 S
N94 C91 1.347 . S
N94 C95 1.373 . S
C95 C92 1.350 1_545 S
C95 N94 1.373 . S
C95 H116 0.931 1_545 S
H96 C91 0.931 . S
H97 C92 0.930 . S
C98 O105 1.259 1_455 S
C98 O106 1.258 . S
N99 Co90 2.057 . S
N99 C100 1.316 . S
N99 C101 1.375 1_565 S
C100 N99 1.316 . S
C100 N102 1.347 . S
C100 H111 0.931 . S
C101 N99 1.375 1_545 S
C101 C103 1.350 . S
C101 H110 0.930 . S
N102 C100 1.347 . S
N102 C103 1.373 1_565 S
C103 C101 1.350 . S
C103 N102 1.373 1_545 S
C103 H117 0.931 . S
C104 O107 1.256 . S
C104 O108 1.255 1_455 S
O105 Co88 2.021 . S
O105 C98 1.259 1_655 S
O106 Co90 2.117 1_545 S
O106 C98 1.258 . S
O107 Co90 2.020 1_545 S
O107 C104 1.256 . S
O108 Co88 2.062 . S
O108 C104 1.255 1_655 S
O109 C89 1.259 1_455 S
O109 Co90 2.021 . S
H110 C101 0.930 . S
H111 C100 0.931 . S
O112 Co88 2.117 1_565 S
O112 C89 1.258 . S
O113 Co88 2.034 . S
O113 C115 1.235 1_545 S
O114 Co90 2.062 . S
O114 C115 1.255 1_455 S
C115 O113 1.235 1_565 S
C115 O114 1.255 1_655 S
H116 C95 0.931 1_565 S
H117 C103 0.931 . S
Co118 N123 2.068 1_554 S
Co118 O135 2.021 . S
Co118 O138 2.062 . S
Co118 O142 2.117 1_545 S
Co118 O143 2.020 . S
C119 O139 1.259 . S
C119 O142 1.258 . S
Co120 N129 2.057 . S
Co120 O136 2.117 . S
Co120 O137 2.020 . S
Co120 O139 2.021 1_545 S
Co120 O144 2.062 . S
C121 N123 1.325 . S
C121 N124 1.347 1_545 S
C121 H126 0.931 . S
C122 N123 1.352 1_565 S
C122 C125 1.350 . S
C122 H127 0.930 1_556 S
N123 Co118 2.068 1_556 S
N123 C121 1.325 . S
N123 C122 1.352 1_545 S
N124 C121 1.347 1_565 S
N124 C125 1.373 . S
C125 C122 1.350 . S
C125 N124 1.373 . S
C125 H146 0.931 . S
H126 C121 0.931 . S
H127 C122 0.930 1_554 S
C128 O135 1.259 . S
C128 O136 1.258 . S
N129 Co120 2.057 . S
N129 C130 1.316 . S
N129 C131 1.375 . S
C130 N129 1.316 . S
C130 N132 1.347 . S
C130 H141 0.931 . S
C131 N129 1.375 . S
C131 C133 1.350 . S
C131 H140 0.930 . S
N132 C130 1.347 . S
N132 C133 1.373 . S
C133 C131 1.350 . S
C133 N132 1.373 . S
C133 H147 0.931 . S
C134 O137 1.256 . S
C134 O138 1.255 . S
O135 Co118 2.021 . S
O135 C128 1.259 . S
O136 Co120 2.117 . S
O136 C128 1.258 . S
O137 Co120 2.020 . S
O137 C134 1.256 . S
O138 Co118 2.062 . S
O138 C134 1.255 . S
O139 C119 1.259 . S
O139 Co120 2.021 1_565 S
H140 C131 0.930 . S
H141 C130 0.931 . S
O142 Co118 2.117 1_565 S
O142 C119 1.258 . S
O143 Co118 2.020 . S
O143 C145 1.256 . S
O144 Co120 2.062 . S
O144 C145 1.255 . S
C145 O143 1.256 . S
C145 O144 1.255 . S
H146 C125 0.931 . S
H147 C133 0.931 . S
Co148 N153 2.057 . S
Co148 O165 2.021 . S
Co148 O168 2.062 . S
Co148 O172 2.117 . S
Co148 O173 2.020 . S
C149 O169 1.259 . S
C149 O172 1.258 . S
Co150 N159 2.057 . S
Co150 O166 2.117 . S
Co150 O167 2.020 . S
Co150 O169 2.021 . S
Co150 O174 2.062 . S
C151 N153 1.316 . S
C151 N154 1.347 . S
C151 H156 0.931 . S
C152 N153 1.375 . S
C152 C155 1.350 . S
C152 H157 0.930 . S
N153 Co148 2.057 . S
N153 C151 1.316 . S
N153 C152 1.375 . S
N154 C151 1.347 . S
N154 C155 1.373 . S
C155 C152 1.350 . S
C155 N154 1.373 . S
C155 H176 0.931 . S
H156 C151 0.931 . S
H157 C152 0.930 . S
C158 O165 1.259 . S
C158 O166 1.258 . S
N159 Co150 2.057 . S
N159 C160 1.316 . S
N159 C161 1.375 . S
C160 N159 1.316 . S
C160 N162 1.347 . S
C160 H171 0.931 . S
C161 N159 1.375 . S
C161 C163 1.350 . S
C161 H170 0.930 . S
N162 C160 1.347 . S
N162 C163 1.373 . S
C163 C161 1.350 . S
C163 N162 1.373 . S
C163 H177 0.931 . S
C164 O167 1.256 . S
C164 O168 1.255 . S
O165 Co148 2.021 . S
O165 C158 1.259 . S
O166 Co150 2.117 . S
O166 C158 1.258 . S
O167 Co150 2.020 . S
O167 C164 1.256 . S
O168 Co148 2.062 . S
O168 C164 1.255 . S
O169 C149 1.259 . S
O169 Co150 2.021 . S
H170 C161 0.930 . S
H171 C160 0.931 . S
O172 Co148 2.117 . S
O172 C149 1.258 . S
O173 Co148 2.020 . S
O173 C175 1.256 . S
O174 Co150 2.062 . S
O174 C175 1.255 . S
C175 O173 1.256 . S
C175 O174 1.255 . S
H176 C155 0.931 . S
H177 C163 0.931 . S
Co178 N183 2.057 . S
Co178 O195 2.021 1_556 S
Co178 O198 2.062 1_556 S
Co178 O202 2.117 1_455 S
Co178 O203 2.020 . S
C179 O199 1.259 . S
C179 O202 1.258 1_554 S
Co180 N189 2.057 . S
Co180 O196 2.117 . S
Co180 O197 2.020 . S
Co180 O199 2.021 1_455 S
Co180 O204 2.062 . S
C181 N183 1.316 . S
C181 N184 1.347 . S
C181 H186 0.931 . S
C182 N183 1.375 . S
C182 C185 1.350 . S
C182 H187 0.930 1_455 S
N183 Co178 2.057 . S
N183 C181 1.316 . S
N183 C182 1.375 . S
N184 C181 1.347 . S
N184 C185 1.373 . S
C185 C182 1.350 . S
C185 N184 1.373 . S
C185 H206 0.931 . S
H186 C181 0.931 . S
H187 C182 0.930 1_655 S
C188 O195 1.259 . S
C188 O196 1.258 . S
N189 Co180 2.057 . S
N189 C190 1.316 1_455 S
N189 C191 1.375 . S
C190 N189 1.316 1_655 S
C190 N192 1.347 . S
C190 H201 0.931 . S
C191 N189 1.375 . S
C191 C193 1.350 . S
C191 H200 0.930 . S
N192 C190 1.347 . S
N192 C193 1.373 1_655 S
C193 C191 1.350 . S
C193 N192 1.373 1_455 S
C193 H207 0.931 . S
C194 O197 1.256 . S
C194 O198 1.255 . S
O195 Co178 2.021 1_554 S
O195 C188 1.259 . S
O196 Co180 2.117 . S
O196 C188 1.258 . S
O197 Co180 2.020 . S
O197 C194 1.256 . S
O198 Co178 2.062 1_554 S
O198 C194 1.255 . S
O199 C179 1.259 . S
O199 Co180 2.021 1_655 S
H200 C191 0.930 . S
H201 C190 0.931 . S
O202 Co178 2.117 1_655 S
O202 C179 1.258 1_556 S
O203 Co178 2.020 . S
O203 C205 1.256 1_556 S
O204 Co180 2.062 . S
O204 C205 1.255 . S
C205 O203 1.256 1_554 S
C205 O204 1.255 . S
H206 C185 0.931 . S
H207 C193 0.931 . S
H208 C226 0.951 . S
H209 C228 0.951 . S
H210 C230 0.950 . S
H211 C231 0.950 . S
H212 C233 0.950 . S
H213 C236 0.950 . S
H214 C237 0.950 . S
H215 C239 0.950 . S
H216 C240 0.951 . S
H217 C241 0.910 1_655 S
H218 C243 0.951 . S
H219 C245 0.950 . S
H220 C246 0.950 . S
H221 C248 0.950 . S
H222 C251 0.950 . S
H223 C252 0.950 . S
H224 C254 0.950 . S
H225 C255 0.950 . S
C226 H208 0.951 . S
C226 C227 1.366 . S
C226 C228 1.388 . S
C227 C226 1.366 . S
C227 C231 1.385 . S
C228 H209 0.951 . S
C228 C226 1.388 . S
C228 C229 1.366 . S
C229 C228 1.366 . S
C229 C230 1.414 . S
C229 C232 1.499 . S
C230 H210 0.950 . S
C230 C229 1.414 . S
C230 C231 1.374 . S
C231 H211 0.950 . S
C231 C227 1.385 . S
C231 C230 1.374 . S
C232 C229 1.499 . S
C232 C233 1.373 . S
C232 C234 1.389 . S
C233 H212 0.950 . S
C233 C232 1.373 . S
C233 C249 1.377 . S
C234 C232 1.389 . S
C234 C235 1.524 . S
C234 C248 1.377 . S
C235 C234 1.524 . S
C235 C236 1.397 . S
C235 C240 1.363 1_545 S
C236 H213 0.950 . S
C236 C235 1.397 . S
C236 C237 1.334 1_545 S
C237 H214 0.950 . S
C237 C236 1.334 1_565 S
C237 C238 1.287 . S
C238 C237 1.287 . S
C238 C239 1.524 . S
C238 H257 0.913 . S
C239 H215 0.950 . S
C239 C238 1.524 . S
C239 C240 1.415 . S
C240 H216 0.951 . S
C240 C235 1.363 1_565 S
C240 C239 1.415 . S
C241 H217 0.910 1_455 S
C241 C242 1.366 . S
C241 C243 1.388 . S
C242 C241 1.366 . S
C242 C246 1.385 . S
C243 H218 0.951 . S
C243 C241 1.388 . S
C243 C244 1.366 . S
C244 C243 1.366 . S
C244 C245 1.414 . S
C244 C247 1.499 . S
C245 H219 0.950 . S
C245 C244 1.414 . S
C245 C246 1.374 . S
C246 H220 0.950 . S
C246 C242 1.385 . S
C246 C245 1.374 . S
C247 C244 1.499 . S
C247 C248 1.373 . S
C247 C249 1.389 . S
C248 H221 0.950 . S
C248 C234 1.377 . S
C248 C247 1.373 . S
C249 C233 1.377 . S
C249 C247 1.389 . S
C249 C250 1.524 . S
C250 C249 1.524 . S
C250 C251 1.397 . S
C250 C255 1.363 . S
C251 H222 0.950 . S
C251 C250 1.397 . S
C251 C252 1.334 . S
C252 H223 0.950 . S
C252 C251 1.334 . S
C252 C253 1.287 . S
C253 C252 1.287 . S
C253 C254 1.524 . S
C253 H256 0.999 . S
C254 H224 0.950 . S
C254 C253 1.524 . S
C254 C255 1.415 . S
C255 H225 0.950 . S
C255 C250 1.363 . S
C255 C254 1.415 . S
H256 C253 0.999 . S
H257 C238 0.913 . S
H258 C276 0.951 . S
H259 C278 0.951 . S
H260 C280 0.950 . S
H261 C281 0.950 . S
H262 C283 0.950 . S
H263 C286 0.950 . S
H264 C287 0.950 . S
H265 C289 0.950 . S
H266 C290 0.950 . S
H267 C291 0.951 1_545 S
H268 C293 0.951 . S
H269 C295 0.950 . S
H270 C296 0.950 . S
H271 C298 0.950 . S
H272 C301 0.950 . S
H273 C302 0.950 . S
H274 C304 0.950 . S
H275 C305 0.950 . S
C276 H258 0.951 . S
C276 C277 1.366 . S
C276 C278 1.388 . S
C277 C276 1.366 . S
C277 C281 1.385 . S
C278 H259 0.951 . S
C278 C276 1.388 . S
C278 C279 1.366 . S
C279 C278 1.366 . S
C279 C280 1.414 . S
C279 C282 1.499 . S
C280 H260 0.950 . S
C280 C279 1.414 . S
C280 C281 1.374 . S
C281 H261 0.950 . S
C281 C277 1.385 . S
C281 C280 1.374 . S
C282 C279 1.499 . S
C282 C283 1.373 . S
C282 C284 1.389 . S
C283 H262 0.950 . S
C283 C282 1.373 . S
C283 C299 1.377 . S
C284 C282 1.389 . S
C284 C285 1.524 . S
C284 C298 1.377 . S
C285 C284 1.524 . S
C285 C286 1.397 . S
C285 C290 1.363 . S
C286 H263 0.950 . S
C286 C285 1.397 . S
C286 C287 1.334 . S
C287 H264 0.950 . S
C287 C286 1.334 . S
C287 C288 1.287 . S
C288 C287 1.287 . S
C288 C289 1.524 . S
C288 H307 0.913 . S
C289 H265 0.950 . S
C289 C288 1.524 . S
C289 C290 1.415 . S
C290 H266 0.950 . S
C290 C285 1.363 . S
C290 C289 1.415 . S
C291 H267 0.951 1_565 S
C291 C292 1.366 . S
C291 C293 1.388 . S
C292 C291 1.366 . S
C292 C296 1.385 . S
C293 H268 0.951 . S
C293 C291 1.388 . S
C293 C294 1.366 . S
C294 C293 1.366 . S
C294 C295 1.414 . S
C294 C297 1.499 . S
C295 H269 0.950 . S
C295 C294 1.414 . S
C295 C296 1.374 . S
C296 H270 0.950 . S
C296 C292 1.385 . S
C296 C295 1.374 . S
C297 C294 1.499 . S
C297 C298 1.373 . S
C297 C299 1.389 . S
C298 H271 0.950 . S
C298 C284 1.377 . S
C298 C297 1.373 . S
C299 C283 1.377 . S
C299 C297 1.389 . S
C299 C300 1.524 1_565 S
C300 C299 1.524 1_545 S
C300 C301 1.397 . S
C300 C305 1.363 . S
C301 H272 0.950 . S
C301 C300 1.397 . S
C301 C302 1.334 . S
C302 H273 0.950 . S
C302 C301 1.334 . S
C302 C303 1.287 . S
C303 C302 1.287 . S
C303 C304 1.524 . S
C303 H306 0.999 . S
C304 H274 0.950 . S
C304 C303 1.524 . S
C304 C305 1.415 . S
C305 H275 0.950 . S
C305 C300 1.363 . S
C305 C304 1.415 . S
H306 C303 0.999 . S
H307 C288 0.913 . S
H308 C326 0.951 . S
H309 C328 0.951 . S
H310 C330 0.950 . S
H311 C331 0.950 . S
H312 C333 0.950 . S
H313 C336 0.950 . S
H314 C337 0.950 . S
H315 C339 0.950 . S
H316 C340 0.950 . S
H317 C341 0.951 . S
H318 C343 0.951 . S
H319 C345 0.950 . S
H320 C346 0.950 . S
H321 C348 0.950 . S
H322 C351 0.950 . S
H323 C352 0.950 . S
H324 C354 0.950 . S
H325 C355 0.950 . S
C326 H308 0.951 . S
C326 C327 1.366 . S
C326 C328 1.388 . S
C327 C326 1.366 . S
C327 C331 1.385 . S
C328 H309 0.951 . S
C328 C326 1.388 . S
C328 C329 1.366 . S
C329 C328 1.366 . S
C329 C330 1.414 . S
C329 C332 1.499 . S
C330 H310 0.950 . S
C330 C329 1.414 . S
C330 C331 1.374 . S
C331 H311 0.950 . S
C331 C327 1.385 . S
C331 C330 1.374 . S
C332 C329 1.499 . S
C332 C333 1.373 . S
C332 C334 1.389 . S
C333 H312 0.950 . S
C333 C332 1.373 . S
C333 C349 1.377 . S
C334 C332 1.389 . S
C334 C335 1.524 . S
C334 C348 1.377 . S
C335 C334 1.524 . S
C335 C336 1.397 . S
C335 C340 1.363 . S
C336 H313 0.950 . S
C336 C335 1.397 . S
C336 C337 1.334 . S
C337 H314 0.950 . S
C337 C336 1.334 . S
C337 C338 1.287 . S
C338 C337 1.287 . S
C338 C339 1.524 . S
C338 H357 0.913 . S
C339 H315 0.950 . S
C339 C338 1.524 . S
C339 C340 1.415 . S
C340 H316 0.950 . S
C340 C335 1.363 . S
C340 C339 1.415 . S
C341 H317 0.951 . S
C341 C342 1.366 . S
C341 C343 1.388 . S
C342 C341 1.366 . S
C342 C346 1.385 . S
C343 H318 0.951 . S
C343 C341 1.388 . S
C343 C344 1.366 . S
C344 C343 1.366 . S
C344 C345 1.414 . S
C344 C347 1.499 . S
C345 H319 0.950 . S
C345 C344 1.414 . S
C345 C346 1.374 . S
C346 H320 0.950 . S
C346 C342 1.385 . S
C346 C345 1.374 . S
C347 C344 1.499 . S
C347 C348 1.373 . S
C347 C349 1.389 . S
C348 H321 0.950 . S
C348 C334 1.377 . S
C348 C347 1.373 . S
C349 C333 1.377 . S
C349 C347 1.389 . S
C349 C350 1.524 . S
C350 C349 1.524 . S
C350 C351 1.397 . S
C350 C355 1.363 . S
C351 H322 0.950 . S
C351 C350 1.397 . S
C351 C352 1.334 . S
C352 H323 0.950 . S
C352 C351 1.334 . S
C352 C353 1.287 . S
C353 C352 1.287 . S
C353 C354 1.524 . S
C353 H356 0.999 . S
C354 H324 0.950 . S
C354 C353 1.524 . S
C354 C355 1.415 . S
C355 H325 0.950 . S
C355 C350 1.363 . S
C355 C354 1.415 . S
H356 C353 0.999 . S
H357 C338 0.913 . S
H358 C376 0.951 . S
H359 C378 0.951 . S
H360 C380 0.950 . S
H361 C381 0.950 . S
H362 C383 0.950 1_455 S
H363 C386 0.950 . S
H364 C387 0.950 . S
H365 C389 0.950 . S
H366 C390 0.950 . S
H367 C391 0.951 . S
H368 C393 0.951 . S
H369 C395 0.950 . S
H370 C396 0.950 . S
H371 C398 0.950 . S
H372 C401 0.950 . S
H373 C402 0.950 . S
H374 C404 0.950 . S
H375 C405 0.950 . S
C376 H358 0.951 . S
C376 C377 1.366 . S
C376 C378 1.388 . S
C377 C376 1.366 . S
C377 C381 1.385 . S
C378 H359 0.951 . S
C378 C376 1.388 . S
C378 C379 1.366 . S
C379 C378 1.366 . S
C379 C380 1.414 . S
C379 C382 1.499 . S
C380 H360 0.950 . S
C380 C379 1.414 . S
C380 C381 1.374 . S
C381 H361 0.950 . S
C381 C377 1.385 . S
C381 C380 1.374 . S
C382 C379 1.499 . S
C382 C383 1.373 . S
C382 C384 1.389 . S
C383 H362 0.950 1_655 S
C383 C382 1.373 . S
C383 C399 1.377 . S
C384 C382 1.389 . S
C384 C385 1.524 . S
C384 C398 1.377 . S
C385 C384 1.524 . S
C385 C386 1.397 . S
C385 C390 1.363 . S
C386 H363 0.950 . S
C386 C385 1.397 . S
C386 C387 1.334 . S
C387 H364 0.950 . S
C387 C386 1.334 . S
C387 C388 1.287 . S
C388 C387 1.287 . S
C388 C389 1.524 . S
C388 H407 0.913 . S
C389 H365 0.950 . S
C389 C388 1.524 . S
C389 C390 1.415 . S
C390 H366 0.950 . S
C390 C385 1.363 . S
C390 C389 1.415 . S
C391 H367 0.951 . S
C391 C392 1.366 . S
C391 C393 1.388 . S
C392 C391 1.366 . S
C392 C396 1.385 . S
C393 H368 0.951 . S
C393 C391 1.388 . S
C393 C394 1.366 . S
C394 C393 1.366 . S
C394 C395 1.414 . S
C394 C397 1.499 . S
C395 H369 0.950 . S
C395 C394 1.414 . S
C395 C396 1.374 . S
C396 H370 0.950 . S
C396 C392 1.385 . S
C396 C395 1.374 . S
C397 C394 1.499 . S
C397 C398 1.373 . S
C397 C399 1.389 . S
C398 H371 0.950 . S
C398 C384 1.377 . S
C398 C397 1.373 . S
C399 C383 1.377 . S
C399 C397 1.389 . S
C399 C400 1.524 1_655 S
C400 C399 1.524 1_455 S
C400 C401 1.397 . S
C400 C405 1.363 . S
C401 H372 0.950 . S
C401 C400 1.397 . S
C401 C402 1.334 . S
C402 H373 0.950 . S
C402 C401 1.334 . S
C402 C403 1.287 . S
C403 C402 1.287 . S
C403 C404 1.524 . S
C403 H406 0.999 . S
C404 H374 0.950 . S
C404 C403 1.524 . S
C404 C405 1.415 . S
C405 H375 0.950 . S
C405 C400 1.363 . S
C405 C404 1.415 . S
H406 C403 0.999 . S
H407 C388 0.913 . S
H408 C426 0.951 . S
H409 C428 0.951 . S
H410 C430 0.950 . S
H411 C431 0.950 . S
H412 C433 0.950 . S
H413 C436 0.950 . S
H414 C437 0.950 . S
H415 C439 0.950 . S
H416 C440 0.950 . S
H417 C441 0.951 . S
H418 C443 0.951 . S
H419 C445 0.950 . S
H420 C446 0.950 . S
H421 C448 0.950 . S
H422 C451 0.950 . S
H423 C452 0.950 . S
H424 C454 0.950 . S
H425 C455 0.950 . S
C426 H408 0.951 . S
C426 C427 1.366 . S
C426 C428 1.388 . S
C427 C426 1.366 . S
C427 C431 1.385 . S
C428 H409 0.951 . S
C428 C426 1.388 . S
C428 C429 1.366 . S
C429 C428 1.366 . S
C429 C430 1.414 . S
C429 C432 1.499 . S
C430 H410 0.950 . S
C430 C429 1.414 . S
C430 C431 1.374 . S
C431 H411 0.950 . S
C431 C427 1.385 . S
C431 C430 1.374 . S
C432 C429 1.499 . S
C432 C433 1.373 . S
C432 C434 1.389 . S
C433 H412 0.950 . S
C433 C432 1.373 . S
C433 C449 1.377 . S
C434 C432 1.389 . S
C434 C435 1.524 . S
C434 C448 1.377 . S
C435 C434 1.524 . S
C435 C436 1.397 . S
C435 C440 1.363 . S
C436 H413 0.950 . S
C436 C435 1.397 . S
C436 C437 1.334 . S
C437 H414 0.950 . S
C437 C436 1.334 . S
C437 C438 1.287 . S
C438 C437 1.287 . S
C438 C439 1.524 . S
C438 H457 0.913 . S
C439 H415 0.950 . S
C439 C438 1.524 . S
C439 C440 1.415 . S
C440 H416 0.950 . S
C440 C435 1.363 . S
C440 C439 1.415 . S
C441 H417 0.951 . S
C441 C442 1.366 . S
C441 C443 1.388 . S
C442 C441 1.366 . S
C442 C446 1.385 . S
C443 H418 0.951 . S
C443 C441 1.388 . S
C443 C444 1.366 . S
C444 C443 1.366 . S
C444 C445 1.414 . S
C444 C447 1.499 . S
C445 H419 0.950 . S
C445 C444 1.414 . S
C445 C446 1.374 . S
C446 H420 0.950 . S
C446 C442 1.385 . S
C446 C445 1.374 . S
C447 C444 1.499 . S
C447 C448 1.373 . S
C447 C449 1.389 . S
C448 H421 0.950 . S
C448 C434 1.377 . S
C448 C447 1.373 . S
C449 C433 1.377 . S
C449 C447 1.389 . S
C449 C450 1.524 . S
C450 C449 1.524 . S
C450 C451 1.397 . S
C450 C455 1.363 . S
C451 H422 0.950 . S
C451 C450 1.397 . S
C451 C452 1.334 1_545 S
C452 H423 0.950 . S
C452 C451 1.334 1_565 S
C452 C453 1.287 . S
C453 C452 1.287 . S
C453 C454 1.524 . S
C453 H456 0.999 . S
C454 H424 0.950 . S
C454 C453 1.524 . S
C454 C455 1.415 1_565 S
C455 H425 0.950 . S
C455 C450 1.363 . S
C455 C454 1.415 1_545 S
H456 C453 0.999 . S
H457 C438 0.913 . S
H458 C476 0.951 . S
H459 C478 0.951 . S
H460 C480 0.950 . S
H461 C481 0.950 . S
H462 C483 0.950 . S
H463 C486 0.950 . S
H464 C487 0.950 . S
H465 C489 0.950 . S
H466 C490 0.950 . S
H467 C491 0.954 1_545 S
H468 C493 0.951 . S
H469 C495 0.950 . S
H470 C496 0.950 . S
H471 C498 0.950 . S
H472 C501 0.950 . S
H473 C502 0.950 . S
H474 C504 0.950 . S
H475 C505 0.950 . S
C476 H458 0.951 . S
C476 C477 1.366 . S
C476 C478 1.388 . S
C477 C476 1.366 . S
C477 C481 1.385 . S
C478 H459 0.951 . S
C478 C476 1.388 . S
C478 C479 1.366 . S
C479 C478 1.366 . S
C479 C480 1.414 . S
C479 C482 1.499 . S
C480 H460 0.950 . S
C480 C479 1.414 . S
C480 C481 1.374 . S
C481 H461 0.950 . S
C481 C477 1.385 . S
C481 C480 1.374 . S
C482 C479 1.499 . S
C482 C483 1.373 . S
C482 C484 1.389 . S
C483 H462 0.950 . S
C483 C482 1.373 . S
C483 C499 1.377 . S
C484 C482 1.389 . S
C484 C485 1.524 . S
C484 C498 1.377 . S
C485 C484 1.524 . S
C485 C486 1.397 . S
C485 C490 1.363 . S
C486 H463 0.950 . S
C486 C485 1.397 . S
C486 C487 1.334 . S
C487 H464 0.950 . S
C487 C486 1.334 . S
C487 C488 1.287 . S
C488 C487 1.287 . S
C488 C489 1.524 . S
C488 H507 0.913 . S
C489 H465 0.950 . S
C489 C488 1.524 . S
C489 C490 1.415 . S
C490 H466 0.950 . S
C490 C485 1.363 . S
C490 C489 1.415 . S
C491 H467 0.954 1_565 S
C491 C492 1.366 . S
C491 C493 1.388 . S
C492 C491 1.366 . S
C492 C496 1.385 . S
C493 H468 0.951 . S
C493 C491 1.388 . S
C493 C494 1.366 . S
C494 C493 1.366 . S
C494 C495 1.414 . S
C494 C497 1.499 . S
C495 H469 0.950 . S
C495 C494 1.414 . S
C495 C496 1.374 . S
C496 H470 0.950 . S
C496 C492 1.385 . S
C496 C495 1.374 . S
C497 C494 1.499 . S
C497 C498 1.373 . S
C497 C499 1.389 . S
C498 H471 0.950 . S
C498 C484 1.377 . S
C498 C497 1.373 . S
C499 C483 1.377 . S
C499 C497 1.389 . S
C499 C500 1.524 . S
C500 C499 1.524 . S
C500 C501 1.397 . S
C500 C505 1.363 1_565 S
C501 H472 0.950 . S
C501 C500 1.397 . S
C501 C502 1.334 1_565 S
C502 H473 0.950 . S
C502 C501 1.334 1_545 S
C502 C503 1.287 . S
C503 C502 1.287 . S
C503 C504 1.524 . S
C503 H506 0.999 . S
C504 H474 0.950 . S
C504 C503 1.524 . S
C504 C505 1.415 . S
C505 H475 0.950 . S
C505 C500 1.363 1_545 S
C505 C504 1.415 . S
H506 C503 0.999 . S
H507 C488 0.913 . S
H508 C526 0.951 . S
H509 C528 0.951 . S
H510 C530 0.950 . S
H511 C531 0.950 . S
H512 C533 0.950 . S
H513 C536 0.950 . S
H514 C537 0.950 . S
H515 C539 0.950 . S
H516 C540 0.950 . S
H517 C541 0.951 . S
H518 C543 0.951 . S
H519 C545 0.950 . S
H520 C546 0.950 . S
H521 C548 0.950 . S
H522 C551 0.950 . S
H523 C552 0.950 1_556 S
H524 C554 0.950 . S
H525 C555 0.950 . S
C526 H508 0.951 . S
C526 C527 1.366 . S
C526 C528 1.388 . S
C527 C526 1.366 . S
C527 C531 1.385 . S
C528 H509 0.951 . S
C528 C526 1.388 . S
C528 C529 1.366 . S
C529 C528 1.366 . S
C529 C530 1.414 . S
C529 C532 1.499 . S
C530 H510 0.950 . S
C530 C529 1.414 . S
C530 C531 1.374 . S
C531 H511 0.950 . S
C531 C527 1.385 . S
C531 C530 1.374 . S
C532 C529 1.499 . S
C532 C533 1.373 . S
C532 C534 1.389 . S
C533 H512 0.950 . S
C533 C532 1.373 . S
C533 C549 1.377 . S
C534 C532 1.389 . S
C534 C535 1.524 . S
C534 C548 1.377 . S
C535 C534 1.524 . S
C535 C536 1.397 . S
C535 C540 1.363 . S
C536 H513 0.950 . S
C536 C535 1.397 . S
C536 C537 1.334 . S
C537 H514 0.950 . S
C537 C536 1.334 . S
C537 C538 1.287 . S
C538 C537 1.287 . S
C538 C539 1.524 . S
C538 H557 0.913 . S
C539 H515 0.950 . S
C539 C538 1.524 . S
C539 C540 1.415 . S
C540 H516 0.950 . S
C540 C535 1.363 . S
C540 C539 1.415 . S
C541 H517 0.951 . S
C541 C542 1.366 1_554 S
C541 C543 1.388 . S
C542 C541 1.366 1_556 S
C542 C546 1.385 . S
C543 H518 0.951 . S
C543 C541 1.388 . S
C543 C544 1.366 1_554 S
C544 C543 1.366 1_556 S
C544 C545 1.414 . S
C544 C547 1.499 . S
C545 H519 0.950 . S
C545 C544 1.414 . S
C545 C546 1.374 . S
C546 H520 0.950 . S
C546 C542 1.385 . S
C546 C545 1.374 . S
C547 C544 1.499 . S
C547 C548 1.373 . S
C547 C549 1.389 . S
C548 H521 0.950 . S
C548 C534 1.377 . S
C548 C547 1.373 . S
C549 C533 1.377 . S
C549 C547 1.389 . S
C549 C550 1.524 1_556 S
C550 C549 1.524 1_554 S
C550 C551 1.397 1_554 S
C550 C555 1.363 . S
C551 H522 0.950 . S
C551 C550 1.397 1_556 S
C551 C552 1.334 1_556 S
C552 H523 0.950 1_554 S
C552 C551 1.334 1_554 S
C552 C553 1.287 . S
C553 C552 1.287 . S
C553 C554 1.524 . S
C553 H556 0.999 . S
C554 H524 0.950 . S
C554 C553 1.524 . S
C554 C555 1.415 . S
C555 H525 0.950 . S
C555 C550 1.363 . S
C555 C554 1.415 . S
H556 C553 0.999 . S
H557 C538 0.913 . S
H558 C576 0.951 . S
H559 C578 0.951 . S
H560 C580 0.950 . S
H561 C581 0.950 . S
H562 C583 0.950 . S
H563 C586 0.950 . S
H564 C587 0.950 . S
H565 C589 0.950 . S
H566 C590 0.950 . S
H567 C591 0.951 . S
H568 C593 0.951 . S
H569 C595 0.950 . S
H570 C596 0.950 . S
H571 C598 0.950 . S
H572 C601 0.950 . S
H573 C602 0.950 . S
H574 C604 0.950 . S
H575 C605 0.950 . S
C576 H558 0.951 . S
C576 C577 1.366 . S
C576 C578 1.388 . S
C577 C576 1.366 . S
C577 C581 1.385 . S
C578 H559 0.951 . S
C578 C576 1.388 . S
C578 C579 1.366 . S
C579 C578 1.366 . S
C579 C580 1.414 . S
C579 C582 1.499 . S
C580 H560 0.950 . S
C580 C579 1.414 . S
C580 C581 1.374 . S
C581 H561 0.950 . S
C581 C577 1.385 . S
C581 C580 1.374 . S
C582 C579 1.499 . S
C582 C583 1.373 . S
C582 C584 1.389 . S
C583 H562 0.950 . S
C583 C582 1.373 . S
C583 C599 1.377 . S
C584 C582 1.389 . S
C584 C585 1.524 . S
C584 C598 1.377 . S
C585 C584 1.524 . S
C585 C586 1.397 . S
C585 C590 1.363 . S
C586 H563 0.950 . S
C586 C585 1.397 . S
C586 C587 1.334 . S
C587 H564 0.950 . S
C587 C586 1.334 . S
C587 C588 1.287 . S
C588 C587 1.287 . S
C588 C589 1.524 . S
C588 H607 0.913 . S
C589 H565 0.950 . S
C589 C588 1.524 . S
C589 C590 1.415 . S
C590 H566 0.950 . S
C590 C585 1.363 . S
C590 C589 1.415 . S
C591 H567 0.951 . S
C591 C592 1.366 . S
C591 C593 1.388 . S
C592 C591 1.366 . S
C592 C596 1.385 . S
C593 H568 0.951 . S
C593 C591 1.388 . S
C593 C594 1.366 . S
C594 C593 1.366 . S
C594 C595 1.414 . S
C594 C597 1.499 . S
C595 H569 0.950 . S
C595 C594 1.414 . S
C595 C596 1.374 . S
C596 H570 0.950 . S
C596 C592 1.385 . S
C596 C595 1.374 . S
C597 C594 1.499 . S
C597 C598 1.373 . S
C597 C599 1.389 . S
C598 H571 0.950 . S
C598 C584 1.377 . S
C598 C597 1.373 . S
C599 C583 1.377 . S
C599 C597 1.389 . S
C599 C600 1.524 . S
C600 C599 1.524 . S
C600 C601 1.397 . S
C600 C605 1.363 . S
C601 H572 0.950 . S
C601 C600 1.397 . S
C601 C602 1.334 . S
C602 H573 0.950 . S
C602 C601 1.334 . S
C602 C603 1.287 . S
C603 C602 1.287 . S
C603 C604 1.524 . S
C603 H606 0.999 . S
C604 H574 0.950 . S
C604 C603 1.524 . S
C604 C605 1.415 . S
C605 H575 0.950 . S
C605 C600 1.363 . S
C605 C604 1.415 . S
H606 C603 0.999 . S
H607 C588 0.913 . S
H608 C626 0.951 . S
H609 C628 0.951 . S
H610 C630 0.950 . S
H611 C631 0.950 . S
H612 C633 0.950 . S
H613 C636 0.950 . S
H614 C637 0.950 . S
H615 C639 0.950 . S
H616 C640 0.950 . S
H617 C641 0.951 . S
H618 C643 0.951 . S
H619 C645 0.950 . S
H620 C646 0.950 . S
H621 C648 0.950 . S
H622 C651 0.950 . S
H623 C652 0.950 . S
H624 C654 0.950 . S
H625 C655 0.950 . S
C626 H608 0.951 . S
C626 C627 1.366 . S
C626 C628 1.388 . S
C627 C626 1.366 . S
C627 C631 1.385 . S
C628 H609 0.951 . S
C628 C626 1.388 . S
C628 C629 1.366 . S
C629 C628 1.366 . S
C629 C630 1.414 . S
C629 C632 1.499 . S
C630 H610 0.950 . S
C630 C629 1.414 . S
C630 C631 1.374 . S
C631 H611 0.950 . S
C631 C627 1.385 . S
C631 C630 1.374 . S
C632 C629 1.499 . S
C632 C633 1.373 . S
C632 C634 1.389 . S
C633 H612 0.950 . S
C633 C632 1.373 . S
C633 C649 1.377 . S
C634 C632 1.389 . S
C634 C635 1.524 . S
C634 C648 1.377 . S
C635 C634 1.524 . S
C635 C636 1.397 . S
C635 C640 1.363 . S
C636 H613 0.950 . S
C636 C635 1.397 . S
C636 C637 1.334 1_455 S
C637 H614 0.950 . S
C637 C636 1.334 1_655 S
C637 C638 1.287 . S
C638 C637 1.287 . S
C638 C639 1.524 . S
C638 H657 0.913 . S
C639 H615 0.950 . S
C639 C638 1.524 . S
C639 C640 1.415 1_655 S
C640 H616 0.950 . S
C640 C635 1.363 . S
C640 C639 1.415 1_455 S
C641 H617 0.951 . S
C641 C642 1.366 . S
C641 C643 1.388 . S
C642 C641 1.366 . S
C642 C646 1.385 . S
C643 H618 0.951 . S
C643 C641 1.388 . S
C643 C644 1.366 . S
C644 C643 1.366 . S
C644 C645 1.414 . S
C644 C647 1.499 . S
C645 H619 0.950 . S
C645 C644 1.414 . S
C645 C646 1.374 . S
C646 H620 0.950 . S
C646 C642 1.385 . S
C646 C645 1.374 . S
C647 C644 1.499 . S
C647 C648 1.373 . S
C647 C649 1.389 . S
C648 H621 0.950 . S
C648 C634 1.377 . S
C648 C647 1.373 . S
C649 C633 1.377 . S
C649 C647 1.389 . S
C649 C650 1.524 . S
C650 C649 1.524 . S
C650 C651 1.397 . S
C650 C655 1.363 . S
C651 H622 0.950 . S
C651 C650 1.397 . S
C651 C652 1.334 . S
C652 H623 0.950 . S
C652 C651 1.334 . S
C652 C653 1.287 . S
C653 C652 1.287 . S
C653 C654 1.524 . S
C653 H656 0.999 . S
C654 H624 0.950 . S
C654 C653 1.524 . S
C654 C655 1.415 . S
C655 H625 0.950 . S
C655 C650 1.363 . S
C655 C654 1.415 . S
H656 C653 0.999 . S
H657 C638 0.913 . S
H658 C676 0.951 . S
H659 C678 0.951 1_554 S
H660 C680 0.950 . S
H661 C681 0.950 . S
H662 C683 0.950 . S
H663 C686 0.950 1_556 S
H664 C687 0.950 . S
H665 C689 0.950 . S
H666 C690 0.950 . S
H667 C691 0.951 . S
H668 C693 0.951 . S
H669 C695 0.950 . S
H670 C696 0.950 . S
H671 C698 0.950 . S
H672 C701 0.950 . S
H673 C702 0.950 . S
H674 C704 0.950 . S
H675 C705 0.950 . S
C676 H658 0.951 . S
C676 C677 1.366 . S
C676 C678 1.388 . S
C677 C676 1.366 . S
C677 C681 1.385 . S
C678 H659 0.951 1_556 S
C678 C676 1.388 . S
C678 C679 1.366 . S
C679 C678 1.366 . S
C679 C680 1.414 . S
C679 C682 1.499 . S
C680 H660 0.950 . S
C680 C679 1.414 . S
C680 C681 1.374 . S
C681 H661 0.950 . S
C681 C677 1.385 . S
C681 C680 1.374 . S
C682 C679 1.499 . S
C682 C683 1.373 . S
C682 C684 1.389 1_556 S
C683 H662 0.950 . S
C683 C682 1.373 . S
C683 C699 1.377 . S
C684 C682 1.389 1_554 S
C684 C685 1.524 . S
C684 C698 1.377 . S
C685 C684 1.524 . S
C685 C686 1.397 . S
C685 C690 1.363 . S
C686 H663 0.950 1_554 S
C686 C685 1.397 . S
C686 C687 1.334 . S
C687 H664 0.950 . S
C687 C686 1.334 . S
C687 C688 1.287 . S
C688 C687 1.287 . S
C688 C689 1.524 . S
C688 H707 0.913 . S
C689 H665 0.950 . S
C689 C688 1.524 . S
C689 C690 1.415 . S
C690 H666 0.950 . S
C690 C685 1.363 . S
C690 C689 1.415 . S
C691 H667 0.951 . S
C691 C692 1.366 1_556 S
C691 C693 1.388 . S
C692 C691 1.366 1_554 S
C692 C696 1.385 . S
C693 H668 0.951 . S
C693 C691 1.388 . S
C693 C694 1.366 1_556 S
C694 C693 1.366 1_554 S
C694 C695 1.414 . S
C694 C697 1.487 1_554 S
C695 H669 0.950 . S
C695 C694 1.414 . S
C695 C696 1.374 . S
C696 H670 0.950 . S
C696 C692 1.385 . S
C696 C695 1.374 . S
C697 C694 1.487 1_556 S
C697 C698 1.349 1_556 S
C697 C699 1.429 . S
C698 H671 0.950 . S
C698 C684 1.377 . S
C698 C697 1.349 1_554 S
C699 C683 1.377 . S
C699 C697 1.429 . S
C699 C700 1.524 . S
C700 C699 1.524 . S
C700 C701 1.397 . S
C700 C705 1.363 . S
C701 H672 0.950 . S
C701 C700 1.397 . S
C701 C702 1.334 . S
C702 H673 0.950 . S
C702 C701 1.334 . S
C702 C703 1.287 . S
C703 C702 1.287 . S
C703 C704 1.524 . S
C703 H706 0.999 . S
C704 H674 0.950 . S
C704 C703 1.524 . S
C704 C705 1.415 . S
C705 H675 0.950 . S
C705 C700 1.363 . S
C705 C704 1.415 . S
H706 C703 0.999 . S
H707 C688 0.913 . S
H708 C726 0.951 . S
H709 C728 0.951 . S
H710 C730 0.950 . S
H711 C731 0.950 . S
H712 C733 0.950 . S
H713 C736 0.950 . S
H714 C737 0.950 . S
H715 C739 0.950 . S
H716 C740 0.950 . S
H717 C741 0.951 . S
H718 C743 0.951 . S
H719 C745 0.950 . S
H720 C746 0.950 . S
H721 C748 0.950 . S
H722 C751 0.950 . S
H723 C752 0.950 . S
H724 C754 0.950 . S
H725 C755 0.950 . S
C726 H708 0.951 . S
C726 C727 1.366 . S
C726 C728 1.388 . S
C727 C726 1.366 . S
C727 C731 1.385 . S
C728 H709 0.951 . S
C728 C726 1.388 . S
C728 C729 1.366 . S
C729 C728 1.366 . S
C729 C730 1.414 . S
C729 C732 1.499 . S
C730 H710 0.950 . S
C730 C729 1.414 . S
C730 C731 1.374 . S
C731 H711 0.950 . S
C731 C727 1.385 . S
C731 C730 1.374 . S
C732 C729 1.499 . S
C732 C733 1.373 . S
C732 C734 1.389 . S
C733 H712 0.950 . S
C733 C732 1.373 . S
C733 C749 1.377 . S
C734 C732 1.389 . S
C734 C735 1.524 . S
C734 C748 1.377 . S
C735 C734 1.524 . S
C735 C736 1.397 . S
C735 C740 1.363 . S
C736 H713 0.950 . S
C736 C735 1.397 . S
C736 C737 1.334 . S
C737 H714 0.950 . S
C737 C736 1.334 . S
C737 C738 1.287 . S
C738 C737 1.287 . S
C738 C739 1.524 . S
C738 H757 0.913 . S
C739 H715 0.950 . S
C739 C738 1.524 . S
C739 C740 1.415 . S
C740 H716 0.950 . S
C740 C735 1.363 . S
C740 C739 1.415 . S
C741 H717 0.951 . S
C741 C742 1.366 . S
C741 C743 1.388 . S
C742 C741 1.366 . S
C742 C746 1.385 . S
C743 H718 0.951 . S
C743 C741 1.388 . S
C743 C744 1.366 . S
C744 C743 1.366 . S
C744 C745 1.414 . S
C744 C747 1.499 . S
C745 H719 0.950 . S
C745 C744 1.414 . S
C745 C746 1.374 . S
C746 H720 0.950 . S
C746 C742 1.385 . S
C746 C745 1.374 . S
C747 C744 1.499 . S
C747 C748 1.373 . S
C747 C749 1.389 . S
C748 H721 0.950 . S
C748 C734 1.377 . S
C748 C747 1.373 . S
C749 C733 1.377 . S
C749 C747 1.389 . S
C749 C750 1.536 . S
C750 C749 1.536 . S
C750 C751 1.383 1_655 S
C750 C755 1.365 . S
C751 H722 0.950 . S
C751 C750 1.383 1_455 S
C751 C752 1.334 . S
C752 H723 0.950 . S
C752 C751 1.334 . S
C752 C753 1.287 . S
C753 C752 1.287 . S
C753 C754 1.524 . S
C753 H756 0.999 . S
C754 H724 0.950 . S
C754 C753 1.524 . S
C754 C755 1.415 1_455 S
C755 H725 0.950 . S
C755 C750 1.365 . S
C755 C754 1.415 1_655 S
H756 C753 0.999 . S
H757 C738 0.913 . S
H758 C776 0.951 . S
H759 C778 0.951 . S
H760 C780 0.950 . S
H761 C781 0.950 . S
H762 C783 0.950 . S
H763 C786 0.950 . S
H764 C787 0.950 . S
H765 C789 0.950 . S
H766 C790 0.950 . S
H767 C791 0.951 . S
H768 C793 0.951 . S
H769 C795 0.950 . S
H770 C796 0.950 . S
H771 C798 0.950 . S
H772 C801 0.950 . S
H773 C802 0.950 . S
H774 C804 0.950 . S
H775 C805 0.950 . S
C776 H758 0.951 . S
C776 C777 1.366 . S
C776 C778 1.388 . S
C777 C776 1.366 . S
C777 C781 1.385 . S
C778 H759 0.951 . S
C778 C776 1.388 . S
C778 C779 1.366 . S
C779 C778 1.366 . S
C779 C780 1.414 . S
C779 C782 1.499 . S
C780 H760 0.950 . S
C780 C779 1.414 . S
C780 C781 1.374 . S
C781 H761 0.950 . S
C781 C777 1.385 . S
C781 C780 1.374 . S
C782 C779 1.499 . S
C782 C783 1.373 . S
C782 C784 1.389 . S
C783 H762 0.950 . S
C783 C782 1.373 . S
C783 C799 1.377 . S
C784 C782 1.389 . S
C784 C785 1.524 . S
C784 C798 1.377 . S
C785 C784 1.524 . S
C785 C786 1.397 . S
C785 C790 1.363 . S
C786 H763 0.950 . S
C786 C785 1.397 . S
C786 C787 1.334 . S
C787 H764 0.950 . S
C787 C786 1.334 . S
C787 C788 1.287 . S
C788 C787 1.287 . S
C788 C789 1.524 . S
C788 H807 0.913 . S
C789 H765 0.950 . S
C789 C788 1.524 . S
C789 C790 1.415 . S
C790 H766 0.950 . S
C790 C785 1.363 . S
C790 C789 1.415 . S
C791 H767 0.951 . S
C791 C792 1.366 . S
C791 C793 1.388 . S
C792 C791 1.366 . S
C792 C796 1.385 . S
C793 H768 0.951 . S
C793 C791 1.388 . S
C793 C794 1.366 . S
C794 C793 1.366 . S
C794 C795 1.414 . S
C794 C797 1.499 . S
C795 H769 0.950 . S
C795 C794 1.414 . S
C795 C796 1.374 . S
C796 H770 0.950 . S
C796 C792 1.385 . S
C796 C795 1.374 . S
C797 C794 1.499 . S
C797 C798 1.373 . S
C797 C799 1.389 . S
C798 H771 0.950 . S
C798 C784 1.377 . S
C798 C797 1.373 . S
C799 C783 1.377 . S
C799 C797 1.389 . S
C799 C800 1.524 . S
C800 C799 1.524 . S
C800 C801 1.397 . S
C800 C805 1.363 . S
C801 H772 0.950 . S
C801 C800 1.397 . S
C801 C802 1.334 . S
C802 H773 0.950 . S
C802 C801 1.334 . S
C802 C803 1.287 . S
C803 C802 1.287 . S
C803 C804 1.524 . S
C803 H806 0.999 . S
C804 H774 0.950 . S
C804 C803 1.524 . S
C804 C805 1.415 . S
C805 H775 0.950 . S
C805 C800 1.363 . S
C805 C804 1.415 . S
H806 C803 0.999 . S
H807 C788 0.913 . S
H808 C826 0.951 . S
H809 C828 0.951 . S
H810 C830 0.950 . S
H811 C831 0.950 . S
H812 C833 0.950 . S
H813 C836 0.948 1_565 S
H814 C837 0.950 . S
H815 C839 0.950 . S
H816 C840 0.950 1_455 S
H817 C841 0.951 . S
H818 C843 0.951 . S
H819 C845 0.921 1_455 S
H820 C846 0.950 1_455 S
H821 C848 0.950 . S
H822 C851 0.950 . S
H823 C852 0.950 . S
H824 C854 0.950 . S
H825 C855 0.950 . S
C826 H808 0.951 . S
C826 C827 1.366 . S
C826 C828 1.388 . S
C827 C826 1.366 . S
C827 C831 1.385 . S
C828 H809 0.951 . S
C828 C826 1.388 . S
C828 C829 1.366 . S
C829 C828 1.366 . S
C829 C830 1.414 . S
C829 C832 1.499 . S
C830 H810 0.950 . S
C830 C829 1.414 . S
C830 C831 1.374 . S
C831 H811 0.950 . S
C831 C827 1.385 . S
C831 C830 1.374 . S
C832 C829 1.499 . S
C832 C833 1.373 . S
C832 C834 1.389 . S
C833 H812 0.950 . S
C833 C832 1.373 . S
C833 C849 1.377 . S
C834 C832 1.389 . S
C834 C835 1.524 . S
C834 C848 1.377 . S
C835 C834 1.524 . S
C835 C836 1.397 1_565 S
C835 C840 1.363 . S
C836 H813 0.948 1_545 S
C836 C835 1.397 1_545 S
C836 C837 1.334 . S
C837 H814 0.950 . S
C837 C836 1.334 . S
C837 C838 1.287 . S
C838 C837 1.287 . S
C838 C839 1.524 1_655 S
C838 H857 0.913 . S
C839 H815 0.950 . S
C839 C838 1.524 1_455 S
C839 C840 1.415 1_445 S
C840 H816 0.950 1_655 S
C840 C835 1.363 . S
C840 C839 1.415 1_665 S
C841 H817 0.951 . S
C841 C842 1.366 . S
C841 C843 1.388 . S
C842 C841 1.366 . S
C842 C846 1.385 . S
C843 H818 0.951 . S
C843 C841 1.388 . S
C843 C844 1.366 . S
C844 C843 1.366 . S
C844 C845 1.414 . S
C844 C847 1.499 . S
C845 H819 0.921 1_655 S
C845 C844 1.414 . S
C845 C846 1.374 . S
C846 H820 0.950 1_655 S
C846 C842 1.385 . S
C846 C845 1.374 . S
C847 C844 1.499 . S
C847 C848 1.373 . S
C847 C849 1.389 . S
C848 H821 0.950 . S
C848 C834 1.377 . S
C848 C847 1.373 . S
C849 C833 1.377 . S
C849 C847 1.389 . S
C849 C850 1.524 . S
C850 C849 1.524 . S
C850 C851 1.397 . S
C850 C855 1.363 . S
C851 H822 0.950 . S
C851 C850 1.397 . S
C851 C852 1.334 . S
C852 H823 0.950 . S
C852 C851 1.334 . S
C852 C853 1.287 . S
C853 C852 1.287 . S
C853 C854 1.524 . S
C853 H856 0.999 . S
C854 H824 0.950 . S
C854 C853 1.524 . S
C854 C855 1.415 . S
C855 H825 0.950 . S
C855 C850 1.363 . S
C855 C854 1.415 . S
H856 C853 0.999 . S
H857 C838 0.913 . S
H858 C876 0.951 . S
H859 C878 0.951 . S
H860 C880 0.950 . S
H861 C881 0.950 . S
H862 C883 0.950 . S
H863 C886 0.950 . S
H864 C887 0.950 . S
H865 C889 0.950 . S
H866 C890 0.950 . S
H867 C891 0.951 . S
H868 C893 0.951 . S
H869 C895 0.950 . S
H870 C896 0.950 . S
H871 C898 0.950 . S
H872 C901 0.950 . S
H873 C902 0.950 . S
H874 C904 0.916 1_565 S
H875 C905 0.950 . S
C876 H858 0.951 . S
C876 C877 1.366 . S
C876 C878 1.388 . S
C877 C876 1.366 . S
C877 C881 1.385 . S
C878 H859 0.951 . S
C878 C876 1.388 . S
C878 C879 1.366 . S
C879 C878 1.366 . S
C879 C880 1.414 . S
C879 C882 1.499 . S
C880 H860 0.950 . S
C880 C879 1.414 . S
C880 C881 1.374 . S
C881 H861 0.950 . S
C881 C877 1.385 . S
C881 C880 1.374 . S
C882 C879 1.499 . S
C882 C883 1.373 . S
C882 C884 1.389 . S
C883 H862 0.950 . S
C883 C882 1.373 . S
C883 C899 1.377 . S
C884 C882 1.389 . S
C884 C885 1.524 . S
C884 C898 1.377 . S
C885 C884 1.524 . S
C885 C886 1.397 . S
C885 C890 1.363 . S
C886 H863 0.950 . S
C886 C885 1.397 . S
C886 C887 1.334 . S
C887 H864 0.950 . S
C887 C886 1.334 . S
C887 C888 1.287 . S
C888 C887 1.287 . S
C888 C889 1.524 . S
C888 H907 0.913 . S
C889 H865 0.950 . S
C889 C888 1.524 . S
C889 C890 1.415 . S
C890 H866 0.950 . S
C890 C885 1.363 . S
C890 C889 1.415 . S
C891 H867 0.951 . S
C891 C892 1.366 . S
C891 C893 1.388 . S
C892 C891 1.366 . S
C892 C896 1.385 . S
C893 H868 0.951 . S
C893 C891 1.388 . S
C893 C894 1.366 . S
C894 C893 1.366 . S
C894 C895 1.414 . S
C894 C897 1.499 . S
C895 H869 0.950 . S
C895 C894 1.414 . S
C895 C896 1.374 . S
C896 H870 0.950 . S
C896 C892 1.385 . S
C896 C895 1.374 . S
C897 C894 1.499 . S
C897 C898 1.373 . S
C897 C899 1.389 . S
C898 H871 0.950 . S
C898 C884 1.377 . S
C898 C897 1.373 . S
C899 C883 1.377 . S
C899 C897 1.389 . S
C899 C900 1.524 . S
C900 C899 1.524 . S
C900 C901 1.397 . S
C900 C905 1.363 . S
C901 H872 0.950 . S
C901 C900 1.397 . S
C901 C902 1.334 . S
C902 H873 0.950 . S
C902 C901 1.334 . S
C902 C903 1.287 . S
C903 C902 1.287 . S
C903 C904 1.524 . S
C903 H906 0.999 . S
C904 H874 0.916 1_545 S
C904 C903 1.524 . S
C904 C905 1.415 . S
C905 H875 0.950 . S
C905 C900 1.363 . S
C905 C904 1.415 . S
H906 C903 0.999 . S
H907 C888 0.913 . S
H908 C926 0.951 . S
H909 C928 0.951 . S
H910 C930 0.950 . S
H911 C931 0.950 . S
H912 C933 0.950 . S
H913 C936 0.950 . S
H914 C937 0.950 . S
H915 C939 0.950 . S
H916 C940 0.950 . S
H917 C941 0.951 . S
H918 C943 0.951 . S
H919 C945 0.950 . S
H920 C946 0.950 . S
H921 C948 0.950 . S
H922 C951 0.950 . S
H923 C952 0.950 . S
H924 C954 0.950 . S
H925 C955 0.950 . S
C926 H908 0.951 . S
C926 C927 1.366 . S
C926 C928 1.388 . S
C927 C926 1.366 . S
C927 C931 1.385 . S
C928 H909 0.951 . S
C928 C926 1.388 . S
C928 C929 1.366 . S
C929 C928 1.366 . S
C929 C930 1.414 . S
C929 C932 1.499 . S
C930 H910 0.950 . S
C930 C929 1.414 . S
C930 C931 1.374 . S
C931 H911 0.950 . S
C931 C927 1.385 . S
C931 C930 1.374 . S
C932 C929 1.499 . S
C932 C933 1.373 . S
C932 C934 1.389 . S
C933 H912 0.950 . S
C933 C932 1.373 . S
C933 C949 1.377 . S
C934 C932 1.389 . S
C934 C935 1.524 . S
C934 C948 1.377 . S
C935 C934 1.524 . S
C935 C936 1.397 . S
C935 C940 1.363 . S
C936 H913 0.950 . S
C936 C935 1.397 . S
C936 C937 1.334 . S
C937 H914 0.950 . S
C937 C936 1.334 . S
C937 C938 1.287 . S
C938 C937 1.287 . S
C938 C939 1.524 . S
C938 H957 0.913 . S
C939 H915 0.950 . S
C939 C938 1.524 . S
C939 C940 1.415 . S
C940 H916 0.950 . S
C940 C935 1.363 . S
C940 C939 1.415 . S
C941 H917 0.951 . S
C941 C942 1.366 . S
C941 C943 1.388 . S
C942 C941 1.366 . S
C942 C946 1.385 . S
C943 H918 0.951 . S
C943 C941 1.388 . S
C943 C944 1.366 . S
C944 C943 1.366 . S
C944 C945 1.414 . S
C944 C947 1.499 . S
C945 H919 0.950 . S
C945 C944 1.414 . S
C945 C946 1.374 . S
C946 H920 0.950 . S
C946 C942 1.385 . S
C946 C945 1.374 . S
C947 C944 1.499 . S
C947 C948 1.373 . S
C947 C949 1.389 . S
C948 H921 0.950 . S
C948 C934 1.377 . S
C948 C947 1.373 . S
C949 C933 1.377 . S
C949 C947 1.389 . S
C949 C950 1.524 . S
C950 C949 1.524 . S
C950 C951 1.397 . S
C950 C955 1.363 . S
C951 H922 0.950 . S
C951 C950 1.397 . S
C951 C952 1.334 . S
C952 H923 0.950 . S
C952 C951 1.334 . S
C952 C953 1.287 . S
C953 C952 1.287 . S
C953 C954 1.524 . S
C953 H956 0.999 . S
C954 H924 0.950 . S
C954 C953 1.524 . S
C954 C955 1.415 . S
C955 H925 0.950 . S
C955 C950 1.363 . S
C955 C954 1.415 . S
H956 C953 0.999 . S
H957 C938 0.913 . S
H958 C976 0.951 . S
H959 C978 0.951 . S
H960 C980 0.950 . S
H961 C981 0.950 . S
H962 C983 0.950 . S
H963 C986 0.950 . S
H964 C987 0.950 . S
H965 C989 0.950 . S
H966 C990 0.950 . S
H967 C991 0.951 . S
H968 C993 0.951 . S
H969 C995 0.950 . S
H970 C996 0.950 . S
H971 C998 0.950 . S
H972 C1001 0.950 . S
H973 C1002 0.950 . S
H974 C1004 0.950 . S
H975 C1005 0.950 . S
C976 H958 0.951 . S
C976 C977 1.366 . S
C976 C978 1.388 . S
C977 C976 1.366 . S
C977 C981 1.385 . S
C978 H959 0.951 . S
C978 C976 1.388 . S
C978 C979 1.366 . S
C979 C978 1.366 . S
C979 C980 1.414 . S
C979 C982 1.499 . S
C980 H960 0.950 . S
C980 C979 1.414 . S
C980 C981 1.374 . S
C981 H961 0.950 . S
C981 C977 1.385 . S
C981 C980 1.374 . S
C982 C979 1.499 . S
C982 C983 1.373 . S
C982 C984 1.389 . S
C983 H962 0.950 . S
C983 C982 1.373 . S
C983 C999 1.377 . S
C984 C982 1.389 . S
C984 C985 1.524 . S
C984 C998 1.377 . S
C985 C984 1.524 . S
C985 C986 1.397 . S
C985 C990 1.363 . S
C986 H963 0.950 . S
C986 C985 1.397 . S
C986 C987 1.334 . S
C987 H964 0.950 . S
C987 C986 1.334 . S
C987 C988 1.287 . S
C988 C987 1.287 . S
C988 C989 1.524 . S
C988 H1007 0.913 . S
C989 H965 0.950 . S
C989 C988 1.524 . S
C989 C990 1.415 . S
C990 H966 0.950 . S
C990 C985 1.363 . S
C990 C989 1.415 . S
C991 H967 0.951 . S
C991 C992 1.366 . S
C991 C993 1.388 . S
C992 C991 1.366 . S
C992 C996 1.385 . S
C993 H968 0.951 . S
C993 C991 1.388 . S
C993 C994 1.366 . S
C994 C993 1.366 . S
C994 C995 1.414 . S
C994 C997 1.499 . S
C995 H969 0.950 . S
C995 C994 1.414 . S
C995 C996 1.374 . S
C996 H970 0.950 . S
C996 C992 1.385 . S
C996 C995 1.374 . S
C997 C994 1.499 . S
C997 C998 1.373 . S
C997 C999 1.389 . S
C998 H971 0.950 . S
C998 C984 1.377 . S
C998 C997 1.373 . S
C999 C983 1.377 . S
C999 C997 1.389 . S
C999 C1000 1.524 . S
C1000 C999 1.524 . S
C1000 C1001 1.397 . S
C1000 C1005 1.363 . S
C1001 H972 0.950 . S
C1001 C1000 1.397 . S
C1001 C1002 1.334 1_455 S
C1002 H973 0.950 . S
C1002 C1001 1.334 1_655 S
C1002 C1003 1.287 . S
C1003 C1002 1.287 . S
C1003 C1004 1.524 . S
C1003 H1006 0.999 . S
C1004 H974 0.950 . S
C1004 C1003 1.524 . S
C1004 C1005 1.415 1_655 S
C1005 H975 0.950 . S
C1005 C1000 1.363 . S
C1005 C1004 1.415 1_455 S
H1006 C1003 0.999 . S
H1007 C988 0.913 . S
H1008 C1026 0.951 . S
H1009 C1028 0.951 . S
H1010 C1030 0.950 . S
H1011 C1031 0.950 . S
H1012 C1033 0.950 . S
H1013 C1036 0.950 . S
H1014 C1037 0.950 . S
H1015 C1039 0.950 . S
H1016 C1040 0.950 . S
H1017 C1041 0.951 . S
H1018 C1043 0.951 . S
H1019 C1045 0.950 . S
H1020 C1046 0.950 . S
H1021 C1048 0.950 . S
H1022 C1051 0.950 . S
H1023 C1052 0.950 . S
H1024 C1054 0.950 . S
H1025 C1055 0.950 . S
C1026 H1008 0.951 . S
C1026 C1027 1.366 . S
C1026 C1028 1.388 . S
C1027 C1026 1.366 . S
C1027 C1031 1.385 . S
C1028 H1009 0.951 . S
C1028 C1026 1.388 . S
C1028 C1029 1.366 . S
C1029 C1028 1.366 . S
C1029 C1030 1.414 . S
C1029 C1032 1.499 . S
C1030 H1010 0.950 . S
C1030 C1029 1.414 . S
C1030 C1031 1.374 . S
C1031 H1011 0.950 . S
C1031 C1027 1.385 . S
C1031 C1030 1.374 . S
C1032 C1029 1.499 . S
C1032 C1033 1.373 1_556 S
C1032 C1034 1.389 . S
C1033 H1012 0.950 . S
C1033 C1032 1.373 1_554 S
C1033 C1049 1.377 . S
C1034 C1032 1.389 . S
C1034 C1035 1.524 . S
C1034 C1048 1.377 . S
C1035 C1034 1.524 . S
C1035 C1036 1.397 . S
C1035 C1040 1.363 . S
C1036 H1013 0.950 . S
C1036 C1035 1.397 . S
C1036 C1037 1.334 . S
C1037 H1014 0.950 . S
C1037 C1036 1.334 . S
C1037 C1038 1.287 . S
C1038 C1037 1.287 . S
C1038 C1039 1.524 . S
C1038 H1057 0.913 . S
C1039 H1015 0.950 . S
C1039 C1038 1.524 . S
C1039 C1040 1.415 . S
C1040 H1016 0.950 . S
C1040 C1035 1.363 . S
C1040 C1039 1.415 . S
C1041 H1017 0.951 . S
C1041 C1042 1.366 1_545 S
C1041 C1043 1.388 . S
C1042 C1041 1.366 1_565 S
C1042 C1046 1.385 . S
C1043 H1018 0.951 . S
C1043 C1041 1.388 . S
C1043 C1044 1.366 1_545 S
C1044 C1043 1.366 1_565 S
C1044 C1045 1.414 . S
C1044 C1047 1.499 . S
C1045 H1019 0.950 . S
C1045 C1044 1.414 . S
C1045 C1046 1.374 . S
C1046 H1020 0.950 . S
C1046 C1042 1.385 . S
C1046 C1045 1.374 . S
C1047 C1044 1.499 . S
C1047 C1048 1.373 1_554 S
C1047 C1049 1.389 . S
C1048 H1021 0.950 . S
C1048 C1034 1.377 . S
C1048 C1047 1.373 1_556 S
C1049 C1033 1.377 . S
C1049 C1047 1.389 . S
C1049 C1050 1.524 . S
C1050 C1049 1.524 . S
C1050 C1051 1.397 . S
C1050 C1055 1.363 1_565 S
C1051 H1022 0.950 . S
C1051 C1050 1.397 . S
C1051 C1052 1.334 . S
C1052 H1023 0.950 . S
C1052 C1051 1.334 . S
C1052 C1053 1.287 1_565 S
C1053 C1052 1.287 1_545 S
C1053 C1054 1.524 . S
C1053 H1056 0.999 . S
C1054 H1024 0.950 . S
C1054 C1053 1.524 . S
C1054 C1055 1.415 . S
C1055 H1025 0.950 . S
C1055 C1050 1.363 1_545 S
C1055 C1054 1.415 . S
H1056 C1053 0.999 . S
H1057 C1038 0.913 . S
H1058 C1076 0.951 . S
H1059 C1078 0.951 . S
H1060 C1080 0.950 . S
H1061 C1081 0.950 . S
H1062 C1083 0.950 . S
H1063 C1086 0.950 . S
H1064 C1087 0.950 . S
H1065 C1089 0.950 . S
H1066 C1090 0.950 . S
H1067 C1091 0.951 . S
H1068 C1093 0.951 . S
H1069 C1095 0.950 . S
H1070 C1096 0.950 . S
H1071 C1098 0.950 . S
H1072 C1101 0.950 . S
H1073 C1102 0.950 . S
H1074 C1104 0.950 . S
H1075 C1105 0.950 . S
C1076 H1058 0.951 . S
C1076 C1077 1.366 . S
C1076 C1078 1.388 . S
C1077 C1076 1.366 . S
C1077 C1081 1.385 . S
C1078 H1059 0.951 . S
C1078 C1076 1.388 . S
C1078 C1079 1.366 . S
C1079 C1078 1.366 . S
C1079 C1080 1.414 . S
C1079 C1082 1.499 . S
C1080 H1060 0.950 . S
C1080 C1079 1.414 . S
C1080 C1081 1.374 . S
C1081 H1061 0.950 . S
C1081 C1077 1.385 . S
C1081 C1080 1.374 . S
C1082 C1079 1.499 . S
C1082 C1083 1.373 . S
C1082 C1084 1.389 . S
C1083 H1062 0.950 . S
C1083 C1082 1.373 . S
C1083 C1099 1.377 . S
C1084 C1082 1.389 . S
C1084 C1085 1.524 . S
C1084 C1098 1.377 . S
C1085 C1084 1.524 . S
C1085 C1086 1.397 . S
C1085 C1090 1.363 . S
C1086 H1063 0.950 . S
C1086 C1085 1.397 . S
C1086 C1087 1.334 . S
C1087 H1064 0.950 . S
C1087 C1086 1.334 . S
C1087 C1088 1.287 . S
C1088 C1087 1.287 . S
C1088 C1089 1.524 . S
C1088 H1107 0.913 . S
C1089 H1065 0.950 . S
C1089 C1088 1.524 . S
C1089 C1090 1.415 . S
C1090 H1066 0.950 . S
C1090 C1085 1.363 . S
C1090 C1089 1.415 . S
C1091 H1067 0.951 . S
C1091 C1092 1.366 . S
C1091 C1093 1.388 . S
C1092 C1091 1.366 . S
C1092 C1096 1.385 . S
C1093 H1068 0.951 . S
C1093 C1091 1.388 . S
C1093 C1094 1.366 . S
C1094 C1093 1.366 . S
C1094 C1095 1.414 . S
C1094 C1097 1.499 . S
C1095 H1069 0.950 . S
C1095 C1094 1.414 . S
C1095 C1096 1.374 . S
C1096 H1070 0.950 . S
C1096 C1092 1.385 . S
C1096 C1095 1.374 . S
C1097 C1094 1.499 . S
C1097 C1098 1.373 . S
C1097 C1099 1.389 . S
C1098 H1071 0.950 . S
C1098 C1084 1.377 . S
C1098 C1097 1.373 . S
C1099 C1083 1.377 . S
C1099 C1097 1.389 . S
C1099 C1100 1.524 . S
C1100 C1099 1.524 . S
C1100 C1101 1.397 . S
C1100 C1105 1.363 . S
C1101 H1072 0.950 . S
C1101 C1100 1.397 . S
C1101 C1102 1.334 . S
C1102 H1073 0.950 . S
C1102 C1101 1.334 . S
C1102 C1103 1.287 . S
C1103 C1102 1.287 . S
C1103 C1104 1.524 . S
C1103 H1106 0.999 . S
C1104 H1074 0.950 . S
C1104 C1103 1.524 . S
C1104 C1105 1.415 . S
C1105 H1075 0.950 . S
C1105 C1100 1.363 . S
C1105 C1104 1.415 . S
H1106 C1103 0.999 . S
H1107 C1088 0.913 . S
H1108 C1126 0.951 . S
H1109 C1128 0.951 . S
H1110 C1130 0.950 . S
H1111 C1131 0.950 . S
H1112 C1133 0.950 . S
H1113 C1136 0.950 . S
H1114 C1137 0.950 . S
H1115 C1139 0.950 . S
H1116 C1140 0.950 . S
H1117 C1141 0.951 . S
H1118 C1143 0.951 . S
H1119 C1145 0.950 . S
H1120 C1146 0.950 . S
H1121 C1148 0.950 . S
H1122 C1151 0.950 . S
H1123 C1152 0.950 . S
H1124 C1154 0.950 . S
H1125 C1155 0.950 . S
C1126 H1108 0.951 . S
C1126 C1127 1.366 . S
C1126 C1128 1.388 . S
C1127 C1126 1.366 . S
C1127 C1131 1.385 . S
C1128 H1109 0.951 . S
C1128 C1126 1.388 . S
C1128 C1129 1.366 . S
C1129 C1128 1.366 . S
C1129 C1130 1.414 . S
C1129 C1132 1.499 . S
C1130 H1110 0.950 . S
C1130 C1129 1.414 . S
C1130 C1131 1.374 . S
C1131 H1111 0.950 . S
C1131 C1127 1.385 . S
C1131 C1130 1.374 . S
C1132 C1129 1.499 . S
C1132 C1133 1.373 . S
C1132 C1134 1.389 . S
C1133 H1112 0.950 . S
C1133 C1132 1.373 . S
C1133 C1149 1.377 . S
C1134 C1132 1.389 . S
C1134 C1135 1.524 . S
C1134 C1148 1.377 . S
C1135 C1134 1.524 . S
C1135 C1136 1.397 . S
C1135 C1140 1.363 . S
C1136 H1113 0.950 . S
C1136 C1135 1.397 . S
C1136 C1137 1.334 . S
C1137 H1114 0.950 . S
C1137 C1136 1.334 . S
C1137 C1138 1.287 . S
C1138 C1137 1.287 . S
C1138 C1139 1.524 . S
C1138 H1157 0.913 . S
C1139 H1115 0.950 . S
C1139 C1138 1.524 . S
C1139 C1140 1.415 . S
C1140 H1116 0.950 . S
C1140 C1135 1.363 . S
C1140 C1139 1.415 . S
C1141 H1117 0.951 . S
C1141 C1142 1.366 . S
C1141 C1143 1.388 . S
C1142 C1141 1.366 . S
C1142 C1146 1.385 . S
C1143 H1118 0.951 . S
C1143 C1141 1.388 . S
C1143 C1144 1.366 . S
C1144 C1143 1.366 . S
C1144 C1145 1.414 . S
C1144 C1147 1.499 . S
C1145 H1119 0.950 . S
C1145 C1144 1.414 . S
C1145 C1146 1.374 . S
C1146 H1120 0.950 . S
C1146 C1142 1.385 . S
C1146 C1145 1.374 . S
C1147 C1144 1.499 . S
C1147 C1148 1.373 . S
C1147 C1149 1.389 . S
C1148 H1121 0.950 . S
C1148 C1134 1.377 . S
C1148 C1147 1.373 . S
C1149 C1133 1.377 . S
C1149 C1147 1.389 . S
C1149 C1150 1.524 . S
C1150 C1149 1.524 . S
C1150 C1151 1.397 . S
C1150 C1155 1.363 . S
C1151 H1122 0.950 . S
C1151 C1150 1.397 . S
C1151 C1152 1.334 1_554 S
C1152 H1123 0.950 . S
C1152 C1151 1.334 1_556 S
C1152 C1153 1.287 . S
C1153 C1152 1.287 . S
C1153 C1154 1.524 . S
C1153 H1156 0.999 . S
C1154 H1124 0.950 . S
C1154 C1153 1.524 . S
C1154 C1155 1.415 1_556 S
C1155 H1125 0.950 . S
C1155 C1150 1.363 . S
C1155 C1154 1.415 1_554 S
H1156 C1153 0.999 . S
H1157 C1138 0.913 . S
H1158 C1176 0.951 . S
H1159 C1178 0.951 . S
H1160 C1180 0.950 . S
H1161 C1181 0.950 . S
H1162 C1183 0.950 . S
H1163 C1186 0.950 . S
H1164 C1187 0.950 . S
H1165 C1189 0.950 . S
H1166 C1190 0.950 . S
H1167 C1191 0.951 . S
H1168 C1193 0.951 . S
H1169 C1195 0.950 . S
H1170 C1196 0.950 . S
H1171 C1198 0.950 . S
H1172 C1201 0.950 . S
H1173 C1202 0.950 . S
H1174 C1204 0.950 . S
H1175 C1205 0.950 . S
C1176 H1158 0.951 . S
C1176 C1177 1.366 . S
C1176 C1178 1.388 . S
C1177 C1176 1.366 . S
C1177 C1181 1.385 . S
C1178 H1159 0.951 . S
C1178 C1176 1.388 . S
C1178 C1179 1.366 . S
C1179 C1178 1.366 . S
C1179 C1180 1.414 . S
C1179 C1182 1.499 . S
C1180 H1160 0.950 . S
C1180 C1179 1.414 . S
C1180 C1181 1.374 . S
C1181 H1161 0.950 . S
C1181 C1177 1.385 . S
C1181 C1180 1.374 . S
C1182 C1179 1.499 . S
C1182 C1183 1.373 . S
C1182 C1184 1.389 . S
C1183 H1162 0.950 . S
C1183 C1182 1.373 . S
C1183 C1199 1.377 . S
C1184 C1182 1.389 . S
C1184 C1185 1.524 . S
C1184 C1198 1.377 . S
C1185 C1184 1.524 . S
C1185 C1186 1.397 . S
C1185 C1190 1.363 . S
C1186 H1163 0.950 . S
C1186 C1185 1.397 . S
C1186 C1187 1.334 . S
C1187 H1164 0.950 . S
C1187 C1186 1.334 . S
C1187 C1188 1.287 . S
C1188 C1187 1.287 . S
C1188 C1189 1.524 . S
C1188 H1207 0.913 . S
C1189 H1165 0.950 . S
C1189 C1188 1.524 . S
C1189 C1190 1.415 . S
C1190 H1166 0.950 . S
C1190 C1185 1.363 . S
C1190 C1189 1.415 . S
C1191 H1167 0.951 . S
C1191 C1192 1.366 . S
C1191 C1193 1.388 . S
C1192 C1191 1.366 . S
C1192 C1196 1.385 . S
C1193 H1168 0.951 . S
C1193 C1191 1.388 . S
C1193 C1194 1.366 . S
C1194 C1193 1.366 . S
C1194 C1195 1.414 . S
C1194 C1197 1.499 . S
C1195 H1169 0.950 . S
C1195 C1194 1.414 . S
C1195 C1196 1.374 . S
C1196 H1170 0.950 . S
C1196 C1192 1.385 . S
C1196 C1195 1.374 . S
C1197 C1194 1.499 . S
C1197 C1198 1.373 . S
C1197 C1199 1.389 . S
C1198 H1171 0.950 . S
C1198 C1184 1.377 . S
C1198 C1197 1.373 . S
C1199 C1183 1.377 . S
C1199 C1197 1.389 . S
C1199 C1200 1.524 . S
C1200 C1199 1.524 . S
C1200 C1201 1.397 . S
C1200 C1205 1.363 . S
C1201 H1172 0.950 . S
C1201 C1200 1.397 . S
C1201 C1202 1.334 . S
C1202 H1173 0.950 . S
C1202 C1201 1.334 . S
C1202 C1203 1.287 . S
C1203 C1202 1.287 . S
C1203 C1204 1.524 . S
C1203 H1206 0.999 . S
C1204 H1174 0.950 . S
C1204 C1203 1.524 . S
C1204 C1205 1.415 . S
C1205 H1175 0.950 . S
C1205 C1200 1.363 . S
C1205 C1204 1.415 . S
H1206 C1203 0.999 . S
H1207 C1188 0.913 . S
H1208 C1226 0.951 . S
H1209 C1228 0.951 . S
H1210 C1230 0.950 1_554 S
H1211 C1231 0.950 . S
H1212 C1233 0.950 . S
H1213 C1236 0.950 . S
H1214 C1237 0.950 . S
H1215 C1239 0.950 . S
H1216 C1240 0.950 . S
H1217 C1241 0.951 . S
H1218 C1243 0.951 . S
H1219 C1245 0.950 1_455 S
H1220 C1246 0.950 . S
H1221 C1248 0.950 . S
H1222 C1251 0.950 . S
H1223 C1252 0.950 . S
H1224 C1254 0.950 . S
H1225 C1255 0.950 . S
C1226 H1208 0.951 . S
C1226 C1227 1.366 . S
C1226 C1228 1.388 . S
C1227 C1226 1.366 . S
C1227 C1231 1.385 . S
C1228 H1209 0.951 . S
C1228 C1226 1.388 . S
C1228 C1229 1.366 . S
C1229 C1228 1.366 . S
C1229 C1230 1.414 . S
C1229 C1232 1.499 . S
C1230 H1210 0.950 1_556 S
C1230 C1229 1.414 . S
C1230 C1231 1.374 . S
C1231 H1211 0.950 . S
C1231 C1227 1.385 . S
C1231 C1230 1.374 . S
C1232 C1229 1.499 . S
C1232 C1233 1.373 1_556 S
C1232 C1234 1.389 . S
C1233 H1212 0.950 . S
C1233 C1232 1.373 1_554 S
C1233 C1249 1.377 . S
C1234 C1232 1.389 . S
C1234 C1235 1.524 . S
C1234 C1248 1.377 . S
C1235 C1234 1.524 . S
C1235 C1236 1.397 . S
C1235 C1240 1.363 . S
C1236 H1213 0.950 . S
C1236 C1235 1.397 . S
C1236 C1237 1.334 . S
C1237 H1214 0.950 . S
C1237 C1236 1.334 . S
C1237 C1238 1.287 . S
C1238 C1237 1.287 . S
C1238 C1239 1.524 . S
C1238 H1257 0.913 . S
C1239 H1215 0.950 . S
C1239 C1238 1.524 . S
C1239 C1240 1.415 . S
C1240 H1216 0.950 . S
C1240 C1235 1.363 . S
C1240 C1239 1.415 . S
C1241 H1217 0.951 . S
C1241 C1242 1.366 1_554 S
C1241 C1243 1.388 . S
C1242 C1241 1.366 1_556 S
C1242 C1246 1.385 1_655 S
C1243 H1218 0.951 . S
C1243 C1241 1.388 . S
C1243 C1244 1.366 1_554 S
C1244 C1243 1.366 1_556 S
C1244 C1245 1.414 . S
C1244 C1247 1.499 . S
C1245 H1219 0.950 1_655 S
C1245 C1244 1.414 . S
C1245 C1246 1.374 1_655 S
C1246 H1220 0.950 . S
C1246 C1242 1.385 1_455 S
C1246 C1245 1.374 1_455 S
C1247 C1244 1.499 . S
C1247 C1248 1.373 . S
C1247 C1249 1.389 1_556 S
C1248 H1221 0.950 . S
C1248 C1234 1.377 . S
C1248 C1247 1.373 . S
C1249 C1233 1.377 . S
C1249 C1247 1.389 1_554 S
C1249 C1250 1.524 . S
C1250 C1249 1.524 . S
C1250 C1251 1.397 1_655 S
C1250 C1255 1.363 . S
C1251 H1222 0.950 . S
C1251 C1250 1.397 1_455 S
C1251 C1252 1.334 . S
C1252 H1223 0.950 . S
C1252 C1251 1.334 . S
C1252 C1253 1.287 . S
C1253 C1252 1.287 . S
C1253 C1254 1.524 1_455 S
C1253 H1256 0.999 . S
C1254 H1224 0.950 . S
C1254 C1253 1.524 1_655 S
C1254 C1255 1.415 . S
C1255 H1225 0.950 . S
C1255 C1250 1.363 . S
C1255 C1254 1.415 . S
H1256 C1253 0.999 . S
H1257 C1238 0.913 . S
H1258 C1276 0.951 . S
H1259 C1278 0.951 . S
H1260 C1280 0.950 . S
H1261 C1281 0.950 . S
H1262 C1283 0.950 . S
H1263 C1286 0.950 . S
H1264 C1287 0.950 . S
H1265 C1289 0.950 . S
H1266 C1290 0.950 . S
H1267 C1291 0.951 . S
H1268 C1293 0.951 . S
H1269 C1295 0.950 . S
H1270 C1296 0.950 . S
H1271 C1298 0.950 . S
H1272 C1301 0.950 . S
H1273 C1302 0.950 . S
H1274 C1304 0.950 . S
H1275 C1305 0.950 . S
C1276 H1258 0.951 . S
C1276 C1277 1.366 . S
C1276 C1278 1.388 . S
C1277 C1276 1.366 . S
C1277 C1281 1.385 . S
C1278 H1259 0.951 . S
C1278 C1276 1.388 . S
C1278 C1279 1.366 . S
C1279 C1278 1.366 . S
C1279 C1280 1.414 . S
C1279 C1282 1.499 . S
C1280 H1260 0.950 . S
C1280 C1279 1.414 . S
C1280 C1281 1.374 . S
C1281 H1261 0.950 . S
C1281 C1277 1.385 . S
C1281 C1280 1.374 . S
C1282 C1279 1.499 . S
C1282 C1283 1.373 . S
C1282 C1284 1.389 . S
C1283 H1262 0.950 . S
C1283 C1282 1.373 . S
C1283 C1299 1.377 . S
C1284 C1282 1.389 . S
C1284 C1285 1.524 . S
C1284 C1298 1.377 . S
C1285 C1284 1.524 . S
C1285 C1286 1.397 . S
C1285 C1290 1.363 . S
C1286 H1263 0.950 . S
C1286 C1285 1.397 . S
C1286 C1287 1.334 . S
C1287 H1264 0.950 . S
C1287 C1286 1.334 . S
C1287 C1288 1.287 . S
C1288 C1287 1.287 . S
C1288 C1289 1.524 . S
C1288 H1307 0.913 . S
C1289 H1265 0.950 . S
C1289 C1288 1.524 . S
C1289 C1290 1.415 . S
C1290 H1266 0.950 . S
C1290 C1285 1.363 . S
C1290 C1289 1.415 . S
C1291 H1267 0.951 . S
C1291 C1292 1.366 . S
C1291 C1293 1.388 . S
C1292 C1291 1.366 . S
C1292 C1296 1.385 . S
C1293 H1268 0.951 . S
C1293 C1291 1.388 . S
C1293 C1294 1.366 . S
C1294 C1293 1.366 . S
C1294 C1295 1.414 . S
C1294 C1297 1.499 . S
C1295 H1269 0.950 . S
C1295 C1294 1.414 . S
C1295 C1296 1.374 . S
C1296 H1270 0.950 . S
C1296 C1292 1.385 . S
C1296 C1295 1.374 . S
C1297 C1294 1.499 . S
C1297 C1298 1.373 . S
C1297 C1299 1.389 . S
C1298 H1271 0.950 . S
C1298 C1284 1.377 . S
C1298 C1297 1.373 . S
C1299 C1283 1.377 . S
C1299 C1297 1.389 . S
C1299 C1300 1.524 . S
C1300 C1299 1.524 . S
C1300 C1301 1.397 . S
C1300 C1305 1.363 . S
C1301 H1272 0.950 . S
C1301 C1300 1.397 . S
C1301 C1302 1.334 . S
C1302 H1273 0.950 . S
C1302 C1301 1.334 . S
C1302 C1303 1.302 . S
C1303 C1302 1.302 . S
C1303 C1304 1.538 . S
C1303 H1306 0.967 1_554 S
C1304 H1274 0.950 . S
C1304 C1303 1.538 . S
C1304 C1305 1.415 . S
C1305 H1275 0.950 . S
C1305 C1300 1.363 . S
C1305 C1304 1.415 . S
H1306 C1303 0.967 1_556 S
H1307 C1288 0.913 . S
H1308 C1326 0.951 . S
H1309 C1328 0.951 . S
H1310 C1330 0.950 . S
H1311 C1331 0.950 . S
H1312 C1333 0.950 . S
H1313 C1336 0.950 . S
H1314 C1337 0.947 1_455 S
H1315 C1339 0.950 . S
H1316 C1340 0.950 . S
H1317 C1341 0.951 . S
H1318 C1343 0.951 . S
H1319 C1345 0.950 . S
H1320 C1346 0.950 1_655 S
H1321 C1348 0.950 . S
H1322 C1351 0.950 . S
H1323 C1352 0.950 . S
H1324 C1354 0.950 . S
H1325 C1355 0.950 . S
C1326 H1308 0.951 . S
C1326 C1327 1.366 . S
C1326 C1328 1.388 . S
C1327 C1326 1.366 . S
C1327 C1331 1.385 . S
C1328 H1309 0.951 . S
C1328 C1326 1.388 . S
C1328 C1329 1.366 . S
C1329 C1328 1.366 . S
C1329 C1330 1.414 . S
C1329 C1332 1.499 . S
C1330 H1310 0.950 . S
C1330 C1329 1.414 . S
C1330 C1331 1.374 . S
C1331 H1311 0.950 . S
C1331 C1327 1.385 . S
C1331 C1330 1.374 . S
C1332 C1329 1.499 . S
C1332 C1333 1.373 . S
C1332 C1334 1.389 . S
C1333 H1312 0.950 . S
C1333 C1332 1.373 . S
C1333 C1349 1.377 . S
C1334 C1332 1.389 . S
C1334 C1335 1.524 . S
C1334 C1348 1.377 . S
C1335 C1334 1.524 . S
C1335 C1336 1.397 . S
C1335 C1340 1.363 1_455 S
C1336 H1313 0.950 . S
C1336 C1335 1.397 . S
C1336 C1337 1.334 1_455 S
C1337 H1314 0.947 1_655 S
C1337 C1336 1.334 1_655 S
C1337 C1338 1.287 . S
C1338 C1337 1.287 . S
C1338 C1339 1.524 . S
C1338 H1357 0.913 . S
C1339 H1315 0.950 . S
C1339 C1338 1.524 . S
C1339 C1340 1.415 . S
C1340 H1316 0.950 . S
C1340 C1335 1.363 1_655 S
C1340 C1339 1.415 . S
C1341 H1317 0.951 . S
C1341 C1342 1.366 . S
C1341 C1343 1.388 . S
C1342 C1341 1.366 . S
C1342 C1346 1.385 . S
C1343 H1318 0.951 . S
C1343 C1341 1.388 . S
C1343 C1344 1.366 . S
C1344 C1343 1.366 . S
C1344 C1345 1.414 . S
C1344 C1347 1.499 . S
C1345 H1319 0.950 . S
C1345 C1344 1.414 . S
C1345 C1346 1.374 . S
C1346 H1320 0.950 1_455 S
C1346 C1342 1.385 . S
C1346 C1345 1.374 . S
C1347 C1344 1.499 . S
C1347 C1348 1.373 . S
C1347 C1349 1.389 . S
C1348 H1321 0.950 . S
C1348 C1334 1.377 . S
C1348 C1347 1.373 . S
C1349 C1333 1.377 . S
C1349 C1347 1.389 . S
C1349 C1350 1.524 . S
C1350 C1349 1.524 . S
C1350 C1351 1.397 . S
C1350 C1355 1.363 . S
C1351 H1322 0.950 . S
C1351 C1350 1.397 . S
C1351 C1352 1.334 . S
C1352 H1323 0.950 . S
C1352 C1351 1.334 . S
C1352 C1353 1.287 . S
C1353 C1352 1.287 . S
C1353 C1354 1.524 . S
C1353 H1356 0.999 . S
C1354 H1324 0.950 . S
C1354 C1353 1.524 . S
C1354 C1355 1.415 . S
C1355 H1325 0.950 . S
C1355 C1350 1.363 . S
C1355 C1354 1.415 . S
H1356 C1353 0.999 . S
H1357 C1338 0.913 . S
H1358 C1376 0.951 . S
H1359 C1378 0.951 . S
H1360 C1380 0.950 . S
H1361 C1381 0.950 . S
H1362 C1383 0.950 . S
H1363 C1386 0.950 . S
H1364 C1387 0.950 . S
H1365 C1389 0.950 . S
H1366 C1390 0.950 . S
H1367 C1391 0.951 . S
H1368 C1393 0.951 . S
H1369 C1395 0.950 . S
H1370 C1396 0.950 . S
H1371 C1398 0.950 . S
H1372 C1401 0.950 . S
H1373 C1402 0.950 . S
H1374 C1404 0.950 . S
H1375 C1405 0.950 . S
C1376 H1358 0.951 . S
C1376 C1377 1.366 . S
C1376 C1378 1.388 . S
C1377 C1376 1.366 . S
C1377 C1381 1.385 . S
C1378 H1359 0.951 . S
C1378 C1376 1.388 . S
C1378 C1379 1.366 . S
C1379 C1378 1.366 . S
C1379 C1380 1.414 . S
C1379 C1382 1.499 . S
C1380 H1360 0.950 . S
C1380 C1379 1.414 . S
C1380 C1381 1.374 . S
C1381 H1361 0.950 . S
C1381 C1377 1.385 . S
C1381 C1380 1.374 . S
C1382 C1379 1.499 . S
C1382 C1383 1.373 . S
C1382 C1384 1.389 . S
C1383 H1362 0.950 . S
C1383 C1382 1.373 . S
C1383 C1399 1.377 . S
C1384 C1382 1.389 . S
C1384 C1385 1.524 . S
C1384 C1398 1.377 . S
C1385 C1384 1.524 . S
C1385 C1386 1.397 . S
C1385 C1390 1.363 . S
C1386 H1363 0.950 . S
C1386 C1385 1.397 . S
C1386 C1387 1.334 . S
C1387 H1364 0.950 . S
C1387 C1386 1.334 . S
C1387 C1388 1.287 . S
C1388 C1387 1.287 . S
C1388 C1389 1.524 . S
C1388 H1407 0.913 . S
C1389 H1365 0.950 . S
C1389 C1388 1.524 . S
C1389 C1390 1.415 . S
C1390 H1366 0.950 . S
C1390 C1385 1.363 . S
C1390 C1389 1.415 . S
C1391 H1367 0.951 . S
C1391 C1392 1.366 . S
C1391 C1393 1.388 . S
C1392 C1391 1.366 . S
C1392 C1396 1.385 . S
C1393 H1368 0.951 . S
C1393 C1391 1.388 . S
C1393 C1394 1.366 . S
C1394 C1393 1.366 . S
C1394 C1395 1.414 . S
C1394 C1397 1.499 . S
C1395 H1369 0.950 . S
C1395 C1394 1.414 . S
C1395 C1396 1.374 . S
C1396 H1370 0.950 . S
C1396 C1392 1.385 . S
C1396 C1395 1.374 . S
C1397 C1394 1.499 . S
C1397 C1398 1.373 . S
C1397 C1399 1.389 . S
C1398 H1371 0.950 . S
C1398 C1384 1.377 . S
C1398 C1397 1.373 . S
C1399 C1383 1.377 . S
C1399 C1397 1.389 . S
C1399 C1400 1.524 . S
C1400 C1399 1.524 . S
C1400 C1401 1.397 . S
C1400 C1405 1.363 . S
C1401 H1372 0.950 . S
C1401 C1400 1.397 . S
C1401 C1402 1.334 . S
C1402 H1373 0.950 . S
C1402 C1401 1.334 . S
C1402 C1403 1.287 . S
C1403 C1402 1.287 . S
C1403 C1404 1.524 . S
C1403 H1406 0.999 . S
C1404 H1374 0.950 . S
C1404 C1403 1.524 . S
C1404 C1405 1.415 . S
C1405 H1375 0.950 . S
C1405 C1400 1.363 . S
C1405 C1404 1.415 . S
H1406 C1403 0.999 . S
H1407 C1388 0.913 . S
C227 C5 2.417 . S
C242 C104 2.562 . S
C277 C18 1.132 . S
C292 N124 1.166 . S
C342 C158 1.718 . S
C327 C30 1.681 . S
C377 C41 1.015 . S
C392 N192 0.974 . S
C442 C145 2.693 . S
C427 C7 2.635 . S
C492 N102 1.391 . S
C477 C16 1.177 . S
C542 C179 2.007 1_556 S
C527 C29 1.896 . S
C592 N154 0.603 . S
C577 C38 0.634 . S
C627 C8 1.964 . S
C642 C194 1.962 . S
C692 C128 1.843 . S
C677 C27 1.539 . S
C727 C40 1.389 . S
C742 C89 1.391 . S
C777 C19 0.977 . S
C792 C175 0.998 . S
C842 C115 2.244 . S
C827 C51 2.172 . S
C877 C62 1.210 . S
C892 N132 1.259 . S
C927 C74 1.785 . S
C942 C149 1.824 . S
C977 C84 1.062 . S
C992 N184 1.105 . S
C1027 C49 2.604 . S
C1042 C134 2.766 1_565 S
C1092 N94 1.098 . S
C1077 C63 1.097 . S
C1142 C188 1.829 . S
C1127 C71 1.525 . S
C1192 N162 0.681 . S
C1177 C85 0.683 . S
C1227 C52 1.899 . S
C1242 C205 1.898 1_656 S
C1292 C119 1.959 . S
C1277 C73 1.842 . S
C1342 C98 1.171 . S
C1327 C82 0.949 . S
C1377 C60 1.308 . S
C1392 C164 1.608 . S
