# Generated by pormake.
# Topology csq, (4,8)-cn, num edge types: 1
# Building blocks:
#     Node 0, Type 0, BuildingBlock: NAWXER_clean_sbu_0, # of connection points: 4
#     Node 1, Type 0, BuildingBlock: NAWXER_clean_sbu_0, # of connection points: 4
#     Node 2, Type 0, BuildingBlock: NAWXER_clean_sbu_0, # of connection points: 4
#     Node 3, Type 0, BuildingBlock: NAWXER_clean_sbu_0, # of connection points: 4
#     Node 4, Type 0, BuildingBlock: NAWXER_clean_sbu_0, # of connection points: 4
#     Node 5, Type 0, BuildingBlock: NAWXER_clean_sbu_0, # of connection points: 4
#     Node 6, Type 1, BuildingBlock: TAGTUT_clean_sbu_1, # of connection points: 8
#     Node 7, Type 1, BuildingBlock: TAGTUT_clean_sbu_1, # of connection points: 8
#     Node 8, Type 1, BuildingBlock: TAGTUT_clean_sbu_1, # of connection points: 8
#     Edge 9, Type (0, 1), BuildingBlock: CIFDUS_clean_linker_0, # of connection points: 2
#     Edge 10, Type (0, 1), BuildingBlock: CIFDUS_clean_linker_0, # of connection points: 2
#     Edge 11, Type (0, 1), BuildingBlock: CIFDUS_clean_linker_0, # of connection points: 2
#     Edge 12, Type (0, 1), BuildingBlock: CIFDUS_clean_linker_0, # of connection points: 2
#     Edge 13, Type (0, 1), BuildingBlock: CIFDUS_clean_linker_0, # of connection points: 2
#     Edge 14, Type (0, 1), BuildingBlock: CIFDUS_clean_linker_0, # of connection points: 2
#     Edge 15, Type (0, 1), BuildingBlock: CIFDUS_clean_linker_0, # of connection points: 2
#     Edge 16, Type (0, 1), BuildingBlock: CIFDUS_clean_linker_0, # of connection points: 2
#     Edge 17, Type (0, 1), BuildingBlock: CIFDUS_clean_linker_0, # of connection points: 2
#     Edge 18, Type (0, 1), BuildingBlock: CIFDUS_clean_linker_0, # of connection points: 2
#     Edge 19, Type (0, 1), BuildingBlock: CIFDUS_clean_linker_0, # of connection points: 2
#     Edge 20, Type (0, 1), BuildingBlock: CIFDUS_clean_linker_0, # of connection points: 2
#     Edge 21, Type (0, 1), BuildingBlock: CIFDUS_clean_linker_0, # of connection points: 2
#     Edge 22, Type (0, 1), BuildingBlock: CIFDUS_clean_linker_0, # of connection points: 2
#     Edge 23, Type (0, 1), BuildingBlock: CIFDUS_clean_linker_0, # of connection points: 2
#     Edge 24, Type (0, 1), BuildingBlock: CIFDUS_clean_linker_0, # of connection points: 2
#     Edge 25, Type (0, 1), BuildingBlock: CIFDUS_clean_linker_0, # of connection points: 2
#     Edge 26, Type (0, 1), BuildingBlock: CIFDUS_clean_linker_0, # of connection points: 2
#     Edge 27, Type (0, 1), BuildingBlock: CIFDUS_clean_linker_0, # of connection points: 2
#     Edge 28, Type (0, 1), BuildingBlock: CIFDUS_clean_linker_0, # of connection points: 2
#     Edge 29, Type (0, 1), BuildingBlock: CIFDUS_clean_linker_0, # of connection points: 2
#     Edge 30, Type (0, 1), BuildingBlock: CIFDUS_clean_linker_0, # of connection points: 2
#     Edge 31, Type (0, 1), BuildingBlock: CIFDUS_clean_linker_0, # of connection points: 2
#     Edge 32, Type (0, 1), BuildingBlock: CIFDUS_clean_linker_0, # of connection points: 2
# Relax obj value: 0.041
# Max RMSD: 0.127
# Mean RMSD: 0.071
data_MOF--net-csq--node1-NAWXER_clean_sbu_0--node2-TAGTUT_clean_sbu_1--edge1-CIFDUS_clean_linker_0
_symmetry_space_group_name_H-M    P1
_symmetry_Int_Tables_number       1
_symmetry_cell_setting            triclinic
loop_
_symmetry_equiv_pos_as_xyz
'x, y, z'
_cell_length_a     43.954663
_cell_length_b     43.584075
_cell_length_c     17.298864
_cell_angle_alpha  92.354947
_cell_angle_beta   92.400052
_cell_angle_gamma 119.63574
loop_
_atom_site_label
_atom_site_type_symbol
_atom_site_fract_x
_atom_site_fract_y
_atom_site_fract_z
_atom_type_partial_charge
C0 C 0.30109 0.50867 0.09135 0.0
C1 C 0.22292 0.52375 0.26975 0.0
O2 O 0.30386 0.53844 0.11207 0.0
Zn3 Zn 0.26486 0.52018 0.18201 0.0
O4 O 0.27843 0.48075 0.12143 0.0
Zn5 Zn 0.23796 0.46348 0.19973 0.0
O6 O 0.19751 0.43163 0.12683 0.0
O7 O 0.22269 0.48781 0.10108 0.0
O8 O 0.21794 0.49226 0.26084 0.0
O9 O 0.24671 0.54827 0.23369 0.0
O10 O 0.28545 0.50596 0.2772 0.0
O11 O 0.25684 0.44813 0.28577 0.0
C12 C 0.19948 0.45551 0.08365 0.0
C13 C 0.2809 0.47884 0.31204 0.0
C14 C 0.73176 0.20379 0.02717 0.0
C15 C 0.8233 0.28529 0.22459 0.0
O16 O 0.75248 0.193 0.05157 0.0
Zn17 Zn 0.79465 0.20842 0.13575 0.0
O18 O 0.73433 0.23197 0.05859 0.0
Zn19 Zn 0.77464 0.24498 0.13216 0.0
O20 O 0.81605 0.25462 0.05946 0.0
O21 O 0.83237 0.21428 0.07133 0.0
O22 O 0.79915 0.29038 0.19529 0.0
O23 O 0.82277 0.25618 0.20741 0.0
O24 O 0.77683 0.17315 0.21214 0.0
O25 O 0.75409 0.20822 0.21921 0.0
C26 C 0.83618 0.24228 0.04237 0.0
C27 C 0.75699 0.18254 0.24468 0.0
C28 C 0.5762 0.82968 0.16982 0.0
C29 C 0.55135 0.74216 0.95964 0.0
O30 O 0.59862 0.8249 0.1353 0.0
Zn31 Zn 0.56481 0.78652 0.06464 0.0
O32 O 0.54326 0.80903 0.15332 0.0
Zn33 Zn 0.50939 0.76436 0.07575 0.0
O34 O 0.48585 0.72509 0.1429 0.0
O35 O 0.54203 0.74292 0.13514 0.0
O36 O 0.52355 0.73929 0.98734 0.0
O37 O 0.58128 0.7675 0.98495 0.0
O38 O 0.54075 0.81146 0.00281 0.0
O39 O 0.48387 0.7834 0.0182 0.0
C40 C 0.51224 0.72128 0.15946 0.0
C41 C 0.51045 0.80858 0.99041 0.0
C42 C 0.79025 0.48438 0.9752 0.0
C43 C 0.70405 0.48622 0.14764 0.0
O44 O 0.79873 0.51537 0.00405 0.0
Zn45 Zn 0.77807 0.53952 0.0806 0.0
O46 O 0.7616 0.45785 0.99187 0.0
Zn47 Zn 0.74508 0.48316 0.05793 0.0
O48 O 0.73584 0.51417 0.97875 0.0
O49 O 0.77093 0.57074 0.01427 0.0
O50 O 0.70031 0.45919 0.10773 0.0
O51 O 0.73123 0.5164 0.14108 0.0
O52 O 0.81288 0.55798 0.16899 0.0
O53 O 0.78197 0.49962 0.15569 0.0
C54 C 0.74695 0.54679 0.96774 0.0
C55 C 0.80585 0.52803 0.19275 0.0
C56 C 0.18723 0.76124 0.21169 0.0
C57 C 0.25789 0.81204 0.99292 0.0
O58 O 0.18739 0.78514 0.17173 0.0
Zn59 Zn 0.22407 0.78941 0.10656 0.0
O60 O 0.20943 0.7508 0.20111 0.0
Zn61 Zn 0.25133 0.76103 0.12887 0.0
O62 O 0.29276 0.783 0.20183 0.0
O63 O 0.27088 0.81807 0.18036 0.0
O64 O 0.26679 0.79226 0.02931 0.0
O65 O 0.23395 0.81733 0.01788 0.0
O66 O 0.2005 0.73672 0.05305 0.0
O67 O 0.23388 0.71332 0.0813 0.0
C68 C 0.29435 0.81276 0.21328 0.0
C69 C 0.20605 0.71048 0.04832 0.0
C70 C 0.44748 0.26651 0.30613 0.0
C71 C 0.46275 0.19759 0.10102 0.0
O72 O 0.47976 0.27645 0.29693 0.0
Zn73 Zn 0.51016 0.26217 0.22647 0.0
O74 O 0.42318 0.23979 0.26632 0.0
Zn75 Zn 0.45421 0.23189 0.20306 0.0
O76 O 0.47591 0.2094 0.27945 0.0
O77 O 0.533 0.24525 0.29917 0.0
O78 O 0.43417 0.19563 0.11936 0.0
O79 O 0.49194 0.22153 0.13501 0.0
O80 O 0.53718 0.30608 0.17544 0.0
O81 O 0.48007 0.28053 0.14705 0.0
C82 C 0.50572 0.21614 0.31053 0.0
C83 C 0.51111 0.3066 0.14194 0.0
C84 C 0.97694 0.40463 0.83361 0.0
C85 C 0.07869 0.46684 0.75606 0.0
C86 C 0.04997 0.5752 0.76224 0.0
Mg87 Mg 0.0049 0.42812 0.67301 0.0
O88 O 0.99865 0.46626 0.70341 0.0
Mg89 Mg 0.02058 0.4926 0.8056 0.0
Mg90 Mg 0.01122 0.50659 0.63698 0.0
O91 O 0.02362 0.54692 0.57064 0.0
Mg92 Mg 0.0171 0.58511 0.60056 0.0
Mg93 Mg 1.00045 0.51967 0.46948 0.0
C94 C 0.97023 0.43713 0.5137 0.0
C95 C 0.06756 0.5099 0.51324 0.0
O96 O 0.99195 0.4375 0.85822 0.0
O97 O 0.97706 0.39479 0.76285 0.0
O98 O 0.06868 0.48542 0.79496 0.0
O99 O 0.05915 0.44383 0.70166 0.0
O100 O 0.9797 0.41909 0.55566 0.0
O101 O 0.97686 0.46842 0.53628 0.0
C102 C 0.9542 0.50341 0.75838 0.0
O103 O 0.96391 0.509 0.68879 0.0
O104 O 0.97146 0.49718 0.8107 0.0
O105 O 0.0286 0.57388 0.41566 0.0
O106 O 0.04503 0.61786 0.50869 0.0
O107 O 0.95274 0.52668 0.48242 0.0
C108 C 0.04443 0.60696 0.43827 0.0
O109 O 0.9623 0.56863 0.57427 0.0
O110 O 0.04085 0.59339 0.71982 0.0
C111 C 0.94245 0.54508 0.521 0.0
O112 O 0.04488 0.54451 0.73895 0.0
O113 O 0.05887 0.50457 0.58373 0.0
O114 O 0.04912 0.51515 0.46215 0.0
C115 C 0.43533 0.03014 0.84463 0.0
C116 C 0.40397 0.92939 0.72649 0.0
C117 C 0.54029 0.96866 0.74118 0.0
Mg118 Mg 0.43285 0.00452 0.67409 0.0
O119 O 0.47884 0.01716 0.71037 0.0
Mg120 Mg 0.4846 0.99298 0.8007 0.0
Mg121 Mg 0.50815 0.00911 0.63765 0.0
O122 O 0.53652 0.00042 0.56347 0.0
Mg123 Mg 0.5812 0.00781 0.59361 0.0
Mg124 Mg 0.53087 0.02502 0.4735 0.0
C125 C 0.47591 0.04871 0.53353 0.0
C126 C 0.45465 0.95647 0.49433 0.0
O127 O 0.45594 0.01825 0.86442 0.0
O128 O 0.42332 0.02783 0.77462 0.0
O129 O 0.43197 0.94222 0.77126 0.0
O130 O 0.399 0.94797 0.67765 0.0
O131 O 0.44729 0.03385 0.56868 0.0
O132 O 0.50282 0.04586 0.5541 0.0
C133 C 0.5591 0.06385 0.78116 0.0
O134 O 0.55609 0.05633 0.70767 0.0
O135 O 0.53595 0.04396 0.82579 0.0
O136 O 0.55668 0.99798 0.40476 0.0
O137 O 0.58576 0.98216 0.49005 0.0
O138 O 0.58594 0.07348 0.49978 0.0
C139 C 0.57481 0.98288 0.42063 0.0
O140 O 0.61871 0.06306 0.58541 0.0
O141 O 0.56769 0.98048 0.70185 0.0
C142 C 0.61491 0.08328 0.53925 0.0
O143 O 0.51431 0.97329 0.72219 0.0
O144 O 0.45993 0.96206 0.56836 0.0
O145 O 0.47725 0.97672 0.4491 0.0
C146 C 0.5372 0.57764 0.37667 0.0
C147 C 0.59167 0.52252 0.45113 0.0
C148 C 0.46841 0.42991 0.5591 0.0
Mg149 Mg 0.5724 0.57373 0.53329 0.0
O150 O 0.52559 0.5383 0.54032 0.0
Mg151 Mg 0.50532 0.49894 0.4566 0.0
Mg152 Mg 0.51468 0.51074 0.63403 0.0
O153 O 0.50366 0.48331 0.72797 0.0
Mg154 Mg 0.45648 0.44824 0.73411 0.0
Mg155 Mg 0.52384 0.52349 0.81045 0.0
C156 C 0.56087 0.59196 0.70708 0.0
C157 C 0.58885 0.52711 0.72178 0.0
O158 O 0.51564 0.54402 0.3731 0.0
O159 O 0.5609 0.59402 0.43221 0.0
O160 O 0.55892 0.50356 0.431 0.0
O161 O 0.60317 0.54986 0.49839 0.0
O162 O 0.57931 0.60109 0.6476 0.0
O163 O 0.53389 0.56111 0.7104 0.0
C164 C 0.44012 0.49372 0.54727 0.0
O165 O 0.45759 0.50067 0.61317 0.0
O166 O 0.4532 0.49287 0.48327 0.0
O167 O 0.51227 0.47873 0.89682 0.0
O168 O 0.46718 0.42869 0.83739 0.0
O169 O 0.47089 0.51989 0.83221 0.0
C170 C 0.49027 0.44518 0.89404 0.0
O171 O 0.42577 0.47282 0.76878 0.0
O172 O 0.45023 0.42061 0.61917 0.0
C173 C 0.43808 0.50119 0.81319 0.0
O174 O 0.4954 0.46082 0.55637 0.0
O175 O 0.57146 0.51986 0.65561 0.0
O176 O 0.57577 0.52882 0.78529 0.0
H177 H 0.18818 0.48643 0.39019 0.0
H178 H 0.20456 0.57506 0.2599 0.0
H179 H 0.1595 0.57998 0.32898 0.0
H180 H 0.1119 0.55564 0.41722 0.0
H181 H 0.09636 0.46848 0.55146 0.0
H182 H 0.1451 0.46665 0.49077 0.0
C183 C 0.18216 0.5071 0.37753 0.0
C184 C 0.19944 0.53013 0.31914 0.0
C185 C 0.15635 0.50987 0.41794 0.0
C186 C 0.19171 0.55705 0.30434 0.0
C187 C 0.16581 0.55973 0.3436 0.0
C188 C 0.11947 0.53648 0.43392 0.0
C189 C 0.10028 0.51186 0.48796 0.0
C190 C 0.14745 0.53578 0.3991 0.0
C191 C 0.1107 0.48763 0.51007 0.0
C192 C 0.13839 0.48649 0.47494 0.0
H193 H 0.71136 0.19561 0.32126 0.0
H194 H 0.75862 0.12917 0.32021 0.0
H195 H 0.72366 0.09761 0.42633 0.0
H196 H 0.67473 0.08426 0.50767 0.0
H197 H 0.62358 0.14682 0.49896 0.0
H198 H 0.66598 0.18552 0.41064 0.0
C199 C 0.7143 0.17441 0.34453 0.0
C200 C 0.73729 0.16447 0.31187 0.0
C201 C 0.69371 0.15603 0.40466 0.0
C202 C 0.74085 0.13711 0.34342 0.0
C203 C 0.72096 0.11915 0.4044 0.0
C204 C 0.67377 0.10725 0.48895 0.0
C205 C 0.6464 0.11305 0.51066 0.0
C206 C 0.69676 0.12787 0.43427 0.0
C207 C 0.64476 0.14223 0.48398 0.0
C208 C 0.66865 0.16397 0.43254 0.0
H209 H 0.56079 0.70079 0.17194 0.0
H210 H 0.45637 0.67167 0.23482 0.0
H211 H 0.45284 0.6209 0.2992 0.0
H212 H 0.48156 0.58723 0.34476 0.0
H213 H 0.58677 0.61931 0.28412 0.0
H214 H 0.58758 0.66612 0.2097 0.0
C215 C 0.53716 0.68352 0.19984 0.0
C216 C 0.50909 0.69046 0.19965 0.0
C217 C 0.53534 0.65458 0.23605 0.0
C218 C 0.47853 0.66722 0.2349 0.0
C219 C 0.47647 0.63811 0.27138 0.0
C220 C 0.50415 0.6039 0.31319 0.0
C221 C 0.53389 0.59963 0.31838 0.0
C222 C 0.50489 0.63171 0.27292 0.0
C223 C 0.56349 0.62191 0.27958 0.0
C224 C 0.56407 0.64885 0.23785 0.0
H225 H 0.84693 0.5789 0.3085 0.0
H226 H 0.80702 0.46919 0.23239 0.0
H227 H 0.84031 0.46278 0.33966 0.0
H228 H 0.88621 0.48979 0.44445 0.0
H229 H 0.92828 0.59956 0.52076 0.0
H230 H 0.88761 0.60399 0.42696 0.0
C231 C 0.84542 0.55361 0.31583 0.0
C232 C 0.82502 0.52482 0.26151 0.0
C233 C 0.86467 0.5499 0.3784 0.0
C234 C 0.82276 0.49196 0.2727 0.0
C235 C 0.84171 0.48815 0.3343 0.0
C236 C 0.88572 0.5144 0.44221 0.0
C237 C 0.91046 0.54436 0.48865 0.0
C238 C 0.86339 0.51711 0.38624 0.0
C239 C 0.90937 0.57601 0.4858 0.0
C240 C 0.88653 0.57873 0.43113 0.0
H241 H 0.32525 0.81189 0.35365 0.0
H242 H 0.32938 0.88031 0.17624 0.0
H243 H 0.37835 0.9309 0.24934 0.0
H244 H 0.42071 0.95557 0.36129 0.0
H245 H 0.41555 0.88975 0.5452 0.0
H246 H 0.36578 0.83834 0.47316 0.0
C247 C 0.33709 0.83791 0.33128 0.0
C248 C 0.32414 0.84243 0.25935 0.0
C249 C 0.36471 0.86728 0.37502 0.0
C250 C 0.33905 0.87629 0.23137 0.0
C251 C 0.36699 0.9052 0.27312 0.0
C252 C 0.40856 0.92998 0.38586 0.0
C253 C 0.42194 0.92625 0.45782 0.0
C254 C 0.38006 0.90099 0.34471 0.0
C255 C 0.40562 0.89319 0.48977 0.0
C256 C 0.37738 0.86381 0.44833 0.0
H257 H 0.47532 0.33491 0.28889 0.0
H258 H 0.40285 0.25194 0.42327 0.0
H259 H 0.39885 0.29608 0.50933 0.0
H260 H 0.42251 0.35883 0.55442 0.0
H261 H 0.49659 0.44064 0.41855 0.0
H262 H 0.49282 0.39626 0.32367 0.0
C263 C 0.45833 0.32654 0.33665 0.0
C264 C 0.43994 0.2907 0.35144 0.0
C265 C 0.45654 0.35181 0.38527 0.0
C266 C 0.41738 0.27965 0.41182 0.0
C267 C 0.41526 0.30484 0.46084 0.0
C268 C 0.43728 0.36698 0.50326 0.0
C269 C 0.46028 0.40316 0.4945 0.0
C270 C 0.43565 0.34112 0.44944 0.0
C271 C 0.47899 0.41317 0.42752 0.0
C272 C 0.47698 0.38774 0.37316 0.0
H273 H 0.56322 0.87412 0.9717 0.0
H274 H 0.45207 0.8061 0.91743 0.0
H275 H 0.45036 0.85224 0.84341 0.0
H276 H 0.48214 0.9101 0.78444 0.0
H277 H 0.5937 0.97597 0.83806 0.0
H278 H 0.59343 0.93273 0.92345 0.0
C279 C 0.53853 0.86923 0.94364 0.0
C280 C 0.50795 0.83639 0.94859 0.0
C281 C 0.53784 0.89568 0.90155 0.0
C282 C 0.47606 0.83099 0.91369 0.0
C283 C 0.47511 0.85739 0.87147 0.0
C284 C 0.50616 0.91529 0.81644 0.0
C285 C 0.53797 0.94615 0.80487 0.0
C286 C 0.50602 0.88964 0.86382 0.0
C287 C 0.56898 0.95239 0.84585 0.0
C288 C 0.56888 0.92758 0.89429 0.0
H289 H 0.7109 0.50621 0.8372 0.0
H290 H 0.74137 0.60635 0.96072 0.0
H291 H 0.69866 0.61295 0.87844 0.0
H292 H 0.64468 0.58398 0.79219 0.0
H293 H 0.61237 0.48281 0.67273 0.0
H294 H 0.66443 0.48318 0.73081 0.0
C295 C 0.70877 0.5299 0.8448 0.0
C296 C 0.7286 0.55538 0.90613 0.0
C297 C 0.68373 0.53315 0.79823 0.0
C298 C 0.72619 0.58626 0.91441 0.0
C299 C 0.70162 0.58992 0.86765 0.0
C300 C 0.64994 0.56276 0.77652 0.0
C301 C 0.62488 0.53328 0.72901 0.0
C302 C 0.6791 0.56268 0.81227 0.0
C303 C 0.63156 0.50582 0.70879 0.0
C304 C 0.66102 0.50584 0.74296 0.0
H305 H 0.13741 0.68872 0.02904 0.0
H306 H 0.21354 0.65753 0.9745 0.0
H307 H 0.16866 0.60726 0.8901 0.0
H308 H 0.11011 0.57808 0.81759 0.0
H309 H 0.03651 0.61315 0.86862 0.0
H310 H 0.07778 0.65553 0.97046 0.0
C311 C 0.14418 0.67074 0.99927 0.0
C312 C 0.17887 0.67722 0.00636 0.0
C313 C 0.11859 0.64256 0.95052 0.0
C314 C 0.18705 0.65324 0.96916 0.0
C315 C 0.16143 0.62461 0.92085 0.0
C316 C 0.10282 0.59425 0.85291 0.0
C317 C 0.07046 0.59272 0.83592 0.0
C318 C 0.1274 0.61973 0.90911 0.0
C319 C 0.06132 0.61404 0.88094 0.0
C320 C 0.08499 0.63841 0.93861 0.0
H321 H 0.40643 0.14025 0.02401 0.0
H322 H 0.51905 0.19084 0.06781 0.0
H323 H 0.51915 0.14069 1.00184 0.0
H324 H 0.48791 0.08293 0.93125 0.0
H325 H 0.37663 0.03396 0.87423 0.0
H326 H 0.37506 0.0825 0.94801 0.0
C327 C 0.431 0.14044 0.01834 0.0
C328 C 0.46263 0.1693 0.05091 0.0
C329 C 0.431 0.11145 0.97977 0.0
C330 C 0.49428 0.16911 0.04309 0.0
C331 C 0.4944 0.14028 0.00598 0.0
C332 C 0.46318 0.0825 0.93675 0.0
C333 C 0.43226 0.05471 0.89969 0.0
C334 C 0.46295 0.11124 0.97488 0.0
C335 C 0.40056 0.05492 0.90411 0.0
C336 C 0.39979 0.08279 0.94533 0.0
H337 H 0.36453 0.55821 0.03901 0.0
H338 H 0.28295 0.4488 0.00294 0.0
H339 H 0.31579 0.438 0.90668 0.0
H340 H 0.36962 0.45767 0.83986 0.0
H341 H 0.4533 0.5658 0.87922 0.0
H342 H 0.41778 0.57901 0.96489 0.0
C343 C 0.35389 0.53215 0.00951 0.0
C344 C 0.32146 0.50434 0.0293 0.0
C345 C 0.37334 0.52575 0.95428 0.0
C346 C 0.30808 0.47069 0.9902 0.0
C347 C 0.32678 0.4644 0.93459 0.0
C348 C 0.37982 0.48433 0.86574 0.0
C349 C 0.41409 0.51062 0.85286 0.0
C350 C 0.35971 0.49148 0.91711 0.0
C351 C 0.42699 0.54495 0.88802 0.0
C352 C 0.40673 0.55252 0.93751 0.0
H353 H 0.88157 0.30943 0.08412 0.0
H354 H 0.85898 0.22666 0.90836 0.0
H355 H 0.90381 0.27013 0.82969 0.0
H356 H 0.94408 0.33269 0.80587 0.0
H357 H 0.96461 0.41479 0.98318 0.0
H358 H 0.92594 0.37036 0.06689 0.0
C359 C 0.88699 0.30088 0.02908 0.0
C360 C 0.86715 0.26523 1.00128 0.0
C361 C 0.91202 0.3259 0.98442 0.0
C362 C 0.87425 0.25407 0.93061 0.0
C363 C 0.89957 0.27895 0.88563 0.0
C364 C 0.94041 0.34088 0.86313 0.0
C365 C 0.95686 0.37719 0.88755 0.0
C366 C 0.9178 0.31512 0.91101 0.0
C367 C 0.95212 0.38718 0.9624 0.0
C368 C 0.92996 0.36178 0.01041 0.0
H369 H 0.83519 0.53047 0.87755 0.0
H370 H 0.80184 0.42848 0.96681 0.0
H371 H 0.8487 0.42462 0.90346 0.0
H372 H 0.90223 0.45261 0.83236 0.0
H373 H 0.93368 0.55251 0.73495 0.0
H374 H 0.88427 0.55481 0.79092 0.0
C375 C 0.83795 0.50721 0.8822 0.0
C376 C 0.81529 0.47992 0.92752 0.0
C377 C 0.86466 0.50494 0.84444 0.0
C378 C 0.81885 0.44975 0.93225 0.0
C379 C 0.84577 0.44764 0.89637 0.0
C380 C 0.89788 0.47461 0.82247 0.0
C381 C 0.92162 0.50254 0.78033 0.0
C382 C 0.86925 0.47539 0.85377 0.0
C383 C 0.91565 0.53073 0.76705 0.0
C384 C 0.88756 0.5321 0.79948 0.0
H385 H 0.31163 0.80817 0.92942 0.0
H386 H 0.24649 0.85606 0.9027 0.0
H387 H 0.28224 0.89116 0.80133 0.0
H388 H 0.33716 0.91496 0.73599 0.0
H389 H 0.40497 0.87083 0.7717 0.0
H390 H 0.36243 0.82668 0.85145 0.0
C391 C 0.3049 0.82591 0.90073 0.0
C392 C 0.27677 0.82992 0.92479 0.0
C393 C 0.32601 0.84656 0.84353 0.0
C394 C 0.26827 0.85276 0.88622 0.0
C395 C 0.28868 0.87283 0.82805 0.0
C396 C 0.3419 0.89471 0.75853 0.0
C397 C 0.37405 0.89601 0.74785 0.0
C398 C 0.31829 0.87082 0.80809 0.0
C399 C 0.38026 0.87014 0.7788 0.0
C400 C 0.35617 0.84524 0.82528 0.0
H401 H 0.46012 0.32158 0.10374 0.0
H402 H 0.57145 0.36275 0.09366 0.0
H403 H 0.57609 0.41291 0.02463 0.0
H404 H 0.54686 0.44201 0.95676 0.0
H405 H 0.43519 0.3982 0.96678 0.0
H406 H 0.43242 0.35248 0.04753 0.0
C407 C 0.4855 0.34139 0.08635 0.0
C408 C 0.51525 0.33789 0.10218 0.0
C409 C 0.48789 0.36991 0.04717 0.0
C410 C 0.54801 0.36447 0.08107 0.0
C411 C 0.55067 0.3932 0.04179 0.0
C412 C 0.5222 0.42298 0.97859 0.0
C413 C 0.49124 0.42347 0.95633 0.0
C414 C 0.52062 0.39588 0.0233 0.0
C415 C 0.45929 0.39833 0.98353 0.0
C416 C 0.45766 0.37205 0.02915 0.0
H417 H 0.20844 0.49986 0.97189 0.0
H418 H 0.13805 0.39397 0.03505 0.0
H419 H 0.097 0.38577 0.92485 0.0
H420 H 0.07791 0.4122 0.82301 0.0
H421 H 0.14619 0.52036 0.77253 0.0
H422 H 0.19198 0.52411 0.86452 0.0
C423 C 0.18423 0.47477 0.96163 0.0
C424 C 0.17597 0.44775 0.01274 0.0
C425 C 0.16063 0.47073 0.89995 0.0
C426 C 0.14486 0.41527 0.99716 0.0
C427 C 0.12142 0.41065 0.93423 0.0
C428 C 0.10341 0.43605 0.83013 0.0
C429 C 0.10925 0.46579 0.79014 0.0
C430 C 0.12862 0.4386 0.8867 0.0
C431 C 0.14166 0.49705 0.80156 0.0
C432 C 0.16753 0.49926 0.85484 0.0
H433 H 0.66527 0.19287 0.00686 0.0
H434 H 0.7379 0.16589 0.90691 0.0
H435 H 0.69172 0.1235 0.81247 0.0
H436 H 0.62888 0.08879 0.7684 0.0
H437 H 0.55539 0.11169 0.87785 0.0
H438 H 0.60326 0.16097 0.95712 0.0
C439 C 0.67104 0.17821 0.96333 0.0
C440 C 0.70481 0.18237 0.96391 0.0
C441 C 0.64399 0.15284 0.91104 0.0
C442 C 0.71194 0.1629 0.90786 0.0
C443 C 0.68556 0.13863 0.85386 0.0
C444 C 0.62364 0.1052 0.80833 0.0
C445 C 0.58888 0.09687 0.81736 0.0
C446 C 0.65121 0.13258 0.85628 0.0
C447 C 0.58211 0.11777 0.87018 0.0
C448 C 0.60942 0.14585 0.9157 0.0
H449 H 0.60404 0.73342 0.90417 0.0
H450 H 0.49109 0.68389 0.90227 0.0
H451 H 0.48474 0.63109 0.83384 0.0
H452 H 0.5107 0.59903 0.77347 0.0
H453 H 0.62295 0.64907 0.76389 0.0
H454 H 0.63025 0.70129 0.84026 0.0
C455 C 0.57806 0.71124 0.88792 0.0
C456 C 0.54815 0.71271 0.90827 0.0
C457 C 0.57448 0.68076 0.84827 0.0
C458 C 0.51463 0.68363 0.88714 0.0
C459 C 0.5109 0.65322 0.84857 0.0
C460 C 0.53681 0.62105 0.78963 0.0
C461 C 0.5663 0.6202 0.76454 0.0
C462 C 0.54059 0.6514 0.82949 0.0
C463 C 0.59995 0.64921 0.7837 0.0
C464 C 0.60406 0.67909 0.82648 0.0
H465 H 0.45406 0.14858 0.31726 0.0
H466 H 0.56204 0.22031 0.39716 0.0
H467 H 0.56385 0.17286 0.46531 0.0
H468 H 0.5331 0.1118 0.50874 0.0
H469 H 0.42454 0.04202 0.43049 0.0
H470 H 0.42491 0.0878 0.35326 0.0
C471 C 0.47809 0.15409 0.34972 0.0
C472 C 0.50773 0.18822 0.3531 0.0
C473 C 0.47891 0.12683 0.38821 0.0
C474 C 0.53872 0.19443 0.39433 0.0
C475 C 0.53979 0.16726 0.433 0.0
C476 C 0.50983 0.10643 0.47321 0.0
C477 C 0.47881 0.07357 0.47501 0.0
C478 C 0.50989 0.13341 0.43095 0.0
C479 C 0.44868 0.06708 0.42986 0.0
C480 C 0.44881 0.09332 0.38621 0.0
H481 H 0.2934 0.43029 0.3826 0.0
H482 H 0.32358 0.54099 0.39474 0.0
H483 H 0.37243 0.55471 0.48711 0.0
H484 H 0.41328 0.53728 0.54324 0.0
H485 H 0.38517 0.42755 0.52874 0.0
H486 H 0.32861 0.41127 0.46136 0.0
C487 C 0.31015 0.45721 0.40697 0.0
C488 C 0.30539 0.48463 0.37985 0.0
C489 C 0.33876 0.46518 0.46 0.0
C490 C 0.32713 0.51939 0.41285 0.0
C491 C 0.35513 0.52737 0.46607 0.0
C492 C 0.39392 0.50969 0.52884 0.0
C493 C 0.40294 0.48359 0.54142 0.0
C494 C 0.36217 0.50079 0.48725 0.0
C495 C 0.37826 0.44795 0.5207 0.0
C496 C 0.34621 0.43872 0.48096 0.0
H497 H 0.83914 0.35332 0.27363 0.0
H498 H 0.87761 0.27927 0.28457 0.0
H499 H 0.92902 0.32218 0.36289 0.0
H500 H 0.96147 0.37834 0.43647 0.0
H501 H 0.9239 0.45288 0.4369 0.0
H502 H 0.87488 0.41299 0.34414 0.0
C503 C 0.85878 0.34667 0.29337 0.0
C504 C 0.85397 0.31277 0.27376 0.0
C505 C 0.88885 0.37174 0.3398 0.0
C506 C 0.88003 0.30482 0.2991 0.0
C507 C 0.90979 0.32948 0.34379 0.0
C508 C 0.94288 0.38621 0.41556 0.0
C509 C 0.94615 0.41831 0.44426 0.0
C510 C 0.91422 0.3627 0.36536 0.0
C511 C 0.92208 0.42829 0.41557 0.0
C512 C 0.89375 0.40524 0.36328 0.0
H513 H 0.55539 0.8762 0.14499 0.0
H514 H 0.62072 0.85523 0.30138 0.0
H515 H 0.63004 0.90511 0.39044 0.0
H516 H 0.61314 0.94932 0.42932 0.0
H517 H 0.54709 0.96911 0.27076 0.0
H518 H 0.5452 0.92541 0.17561 0.0
C519 C 0.57206 0.88298 0.19825 0.0
C520 C 0.58693 0.86215 0.2181 0.0
C521 C 0.57704 0.91125 0.24834 0.0
C522 C 0.60898 0.8711 0.28589 0.0
C523 C 0.61412 0.8994 0.33656 0.0
C524 C 0.59877 0.9445 0.37352 0.0
C525 C 0.57962 0.96192 0.35797 0.0
C526 C 0.59733 0.91891 0.31936 0.0
C527 C 0.56171 0.95583 0.28477 0.0
C528 C 0.56046 0.93071 0.23035 0.0
H529 H 0.71741 0.52834 0.27771 0.0
H530 H 0.63298 0.43899 0.14322 0.0
H531 H 0.59066 0.44025 0.22986 0.0
H532 H 0.57758 0.47015 0.33797 0.0
H533 H 0.66326 0.55914 0.47193 0.0
H534 H 0.70514 0.55416 0.39204 0.0
C535 C 0.68974 0.50896 0.26749 0.0
C536 C 0.67829 0.48392 0.2034 0.0
C537 C 0.66579 0.50979 0.3176 0.0
C538 C 0.64246 0.45859 0.19194 0.0
C539 C 0.61828 0.45942 0.2414 0.0
C540 C 0.60545 0.48816 0.35056 0.0
C541 C 0.61707 0.51532 0.41075 0.0
C542 C 0.6296 0.48535 0.30367 0.0
C543 C 0.65336 0.53816 0.42607 0.0
C544 C 0.67742 0.53544 0.38007 0.0
H545 H 0.14238 0.69309 0.18148 0.0
H546 H 0.16651 0.78103 0.34358 0.0
H547 H 0.12169 0.74079 0.42713 0.0
H548 H 0.07972 0.6795 0.45822 0.0
H549 H 0.05638 0.59262 0.29165 0.0
H550 H 0.09655 0.6337 0.20498 0.0
C551 C 0.13735 0.70343 0.23463 0.0
C552 C 0.1575 0.7396 0.25721 0.0
C553 C 0.11191 0.68034 0.28148 0.0
C554 C 0.151 0.75311 0.32552 0.0
C555 C 0.1256 0.73011 0.37318 0.0
C556 C 0.0831 0.6696 0.40259 0.0
C557 C 0.06532 0.63288 0.38224 0.0
C558 C 0.10648 0.69349 0.35252 0.0
C559 C 0.06978 0.62062 0.30941 0.0
C560 C 0.09286 0.64408 0.25965 0.0
loop_
_geom_bond_atom_site_label_1
_geom_bond_atom_site_label_2
_geom_bond_distance
_geom_bond_site_symmetry_2
_ccdc_geom_bond_type
C0 O2 1.247 . S
C0 O4 1.258 . S
C1 O8 1.247 . S
C1 O9 1.258 . S
O2 C0 1.247 . S
O2 Zn3 2.028 . S
Zn3 O2 2.028 . S
Zn3 O7 2.035 . S
Zn3 O9 2.035 . S
Zn3 O10 2.028 . S
O4 C0 1.258 . S
O4 Zn5 2.035 . S
Zn5 O4 2.035 . S
Zn5 O6 2.028 . S
Zn5 O8 2.028 . S
Zn5 O11 2.035 . S
O6 Zn5 2.028 . S
O6 C12 1.247 . S
O7 Zn3 2.035 . S
O7 C12 1.258 . S
O8 C1 1.247 . S
O8 Zn5 2.028 . S
O9 C1 1.258 . S
O9 Zn3 2.035 . S
O10 Zn3 2.028 . S
O10 C13 1.247 . S
O11 Zn5 2.035 . S
O11 C13 1.258 . S
C12 O6 1.247 . S
C12 O7 1.258 . S
C13 O10 1.247 . S
C13 O11 1.258 . S
C14 O16 1.247 . S
C14 O18 1.258 . S
C15 O22 1.247 . S
C15 O23 1.258 . S
O16 C14 1.247 . S
O16 Zn17 2.028 . S
Zn17 O16 2.028 . S
Zn17 O21 2.035 . S
Zn17 O23 2.035 . S
Zn17 O24 2.028 . S
O18 C14 1.258 . S
O18 Zn19 2.035 . S
Zn19 O18 2.035 . S
Zn19 O20 2.028 . S
Zn19 O22 2.028 . S
Zn19 O25 2.035 . S
O20 Zn19 2.028 . S
O20 C26 1.247 . S
O21 Zn17 2.035 . S
O21 C26 1.258 . S
O22 C15 1.247 . S
O22 Zn19 2.028 . S
O23 C15 1.258 . S
O23 Zn17 2.035 . S
O24 Zn17 2.028 . S
O24 C27 1.247 . S
O25 Zn19 2.035 . S
O25 C27 1.258 . S
C26 O20 1.247 . S
C26 O21 1.258 . S
C27 O24 1.247 . S
C27 O25 1.258 . S
C28 O30 1.247 . S
C28 O32 1.258 . S
C29 O36 1.247 . S
C29 O37 1.258 . S
O30 C28 1.247 . S
O30 Zn31 2.028 . S
Zn31 O30 2.028 . S
Zn31 O35 2.035 . S
Zn31 O37 2.035 1_554 S
Zn31 O38 2.028 1_554 S
O32 C28 1.258 . S
O32 Zn33 2.035 . S
Zn33 O32 2.035 . S
Zn33 O34 2.028 . S
Zn33 O36 2.028 1_554 S
Zn33 O39 2.035 1_554 S
O34 Zn33 2.028 . S
O34 C40 1.247 . S
O35 Zn31 2.035 . S
O35 C40 1.258 . S
O36 C29 1.247 . S
O36 Zn33 2.028 1_556 S
O37 C29 1.258 . S
O37 Zn31 2.035 1_556 S
O38 Zn31 2.028 1_556 S
O38 C41 1.247 . S
O39 Zn33 2.035 1_556 S
O39 C41 1.258 . S
C40 O34 1.247 . S
C40 O35 1.258 . S
C41 O38 1.247 . S
C41 O39 1.258 . S
C42 O44 1.247 1_556 S
C42 O46 1.258 . S
C43 O50 1.247 . S
C43 O51 1.258 . S
O44 C42 1.247 1_554 S
O44 Zn45 2.028 . S
Zn45 O44 2.028 . S
Zn45 O49 2.026 1_554 S
Zn45 O51 2.035 . S
Zn45 O52 2.028 . S
O46 C42 1.258 . S
O46 Zn47 2.035 1_556 S
Zn47 O46 2.035 1_554 S
Zn47 O48 2.028 1_554 S
Zn47 O50 2.028 . S
Zn47 O53 2.035 . S
O48 Zn47 2.028 1_556 S
O48 C54 1.247 . S
O49 Zn45 2.026 1_556 S
O49 C54 1.262 . S
O50 C43 1.247 . S
O50 Zn47 2.028 . S
O51 C43 1.258 . S
O51 Zn45 2.035 . S
O52 Zn45 2.028 . S
O52 C55 1.247 . S
O53 Zn47 2.035 . S
O53 C55 1.258 . S
C54 O48 1.247 . S
C54 O49 1.262 . S
C55 O52 1.247 . S
C55 O53 1.258 . S
C56 O58 1.247 . S
C56 O60 1.258 . S
C57 O64 1.247 . S
C57 O65 1.258 . S
O58 C56 1.247 . S
O58 Zn59 2.028 . S
Zn59 O58 2.028 . S
Zn59 O63 2.035 . S
Zn59 O65 2.035 . S
Zn59 O66 2.028 . S
O60 C56 1.258 . S
O60 Zn61 2.035 . S
Zn61 O60 2.035 . S
Zn61 O62 2.028 . S
Zn61 O64 2.028 . S
Zn61 O67 2.035 . S
O62 Zn61 2.028 . S
O62 C68 1.247 . S
O63 Zn59 2.035 . S
O63 C68 1.258 . S
O64 C57 1.247 . S
O64 Zn61 2.028 . S
O65 C57 1.258 . S
O65 Zn59 2.035 . S
O66 Zn59 2.028 . S
O66 C69 1.247 . S
O67 Zn61 2.035 . S
O67 C69 1.258 . S
C68 O62 1.247 . S
C68 O63 1.258 . S
C69 O66 1.247 . S
C69 O67 1.258 . S
C70 O72 1.247 . S
C70 O74 1.258 . S
C71 O78 1.247 . S
C71 O79 1.258 . S
O72 C70 1.247 . S
O72 Zn73 2.028 . S
Zn73 O72 2.028 . S
Zn73 O77 2.035 . S
Zn73 O79 2.035 . S
Zn73 O80 2.028 . S
O74 C70 1.258 . S
O74 Zn75 2.035 . S
Zn75 O74 2.035 . S
Zn75 O76 2.028 . S
Zn75 O78 2.028 . S
Zn75 O81 2.035 . S
O76 Zn75 2.028 . S
O76 C82 1.247 . S
O77 Zn73 2.035 . S
O77 C82 1.258 . S
O78 C71 1.247 . S
O78 Zn75 2.028 . S
O79 C71 1.258 . S
O79 Zn73 2.035 . S
O80 Zn73 2.028 . S
O80 C83 1.247 . S
O81 Zn75 2.035 . S
O81 C83 1.258 . S
C82 O76 1.247 . S
C82 O77 1.258 . S
C83 O80 1.247 . S
C83 O81 1.258 . S
C84 O96 1.241 . S
C84 O97 1.280 . S
C85 O98 1.277 . S
C85 O99 1.245 . S
C86 O110 1.247 . S
C86 O112 1.289 . S
Mg87 O88 1.926 . S
Mg87 O97 1.984 . S
Mg87 O99 1.988 1_655 S
Mg87 O100 2.061 . S
O88 Mg87 1.926 . S
O88 Mg89 1.986 1_655 S
O88 Mg90 1.917 1_655 S
Mg89 O88 1.986 1_455 S
Mg89 O96 2.042 1_455 S
Mg89 O98 2.041 . S
Mg89 O104 2.038 1_455 S
Mg89 O112 2.238 . S
Mg90 O88 1.917 1_455 S
Mg90 O91 1.917 . S
Mg90 O101 2.106 1_455 S
Mg90 O103 2.079 1_455 S
Mg90 O112 2.106 . S
Mg90 O113 2.079 . S
O91 Mg90 1.917 . S
O91 Mg92 1.926 . S
O91 Mg93 1.986 . S
Mg92 O91 1.926 . S
Mg92 O106 1.984 . S
Mg92 O109 1.988 1_455 S
Mg92 O110 2.061 . S
Mg93 O91 1.986 . S
Mg93 O101 2.238 1_455 S
Mg93 O105 2.042 . S
Mg93 O107 2.041 1_455 S
Mg93 O114 2.038 . S
C94 O100 1.247 . S
C94 O101 1.289 . S
C95 O113 1.245 . S
C95 O114 1.274 . S
O96 C84 1.241 . S
O96 Mg89 2.042 1_655 S
O97 C84 1.280 . S
O97 Mg87 1.984 . S
O98 C85 1.277 . S
O98 Mg89 2.041 . S
O99 C85 1.245 . S
O99 Mg87 1.988 1_455 S
O100 Mg87 2.061 . S
O100 C94 1.247 . S
O101 Mg90 2.106 1_655 S
O101 Mg93 2.238 1_655 S
O101 C94 1.289 . S
C102 O103 1.245 . S
C102 O104 1.274 . S
O103 Mg90 2.079 1_655 S
O103 C102 1.245 . S
O104 Mg89 2.038 1_655 S
O104 C102 1.274 . S
O105 Mg93 2.042 . S
O105 C108 1.241 . S
O106 Mg92 1.984 . S
O106 C108 1.280 . S
O107 Mg93 2.041 1_655 S
O107 C111 1.277 . S
C108 O105 1.241 . S
C108 O106 1.280 . S
O109 Mg92 1.988 1_655 S
O109 C111 1.245 . S
O110 C86 1.247 . S
O110 Mg92 2.061 . S
C111 O107 1.277 . S
C111 O109 1.245 . S
O112 C86 1.289 . S
O112 Mg89 2.238 . S
O112 Mg90 2.106 . S
O113 Mg90 2.079 . S
O113 C95 1.245 . S
O114 Mg93 2.038 . S
O114 C95 1.274 . S
C115 O127 1.241 . S
C115 O128 1.280 . S
C116 O129 1.277 . S
C116 O130 1.245 . S
C117 O141 1.247 . S
C117 O143 1.289 . S
Mg118 O119 1.926 . S
Mg118 O128 1.984 . S
Mg118 O130 1.988 1_545 S
Mg118 O131 2.061 . S
O119 Mg118 1.926 . S
O119 Mg120 1.986 . S
O119 Mg121 1.917 . S
Mg120 O119 1.986 . S
Mg120 O127 2.042 . S
Mg120 O129 2.041 1_545 S
Mg120 O135 2.038 . S
Mg120 O143 2.238 1_545 S
Mg121 O119 1.917 . S
Mg121 O122 1.917 1_545 S
Mg121 O132 2.106 . S
Mg121 O134 2.079 . S
Mg121 O143 2.106 1_545 S
Mg121 O144 2.079 1_545 S
O122 Mg121 1.917 1_565 S
O122 Mg123 1.926 . S
O122 Mg124 1.986 1_565 S
Mg123 O122 1.926 . S
Mg123 O137 1.984 . S
Mg123 O140 1.988 1_565 S
Mg123 O141 2.061 . S
Mg124 O122 1.986 1_545 S
Mg124 O132 2.238 . S
Mg124 O136 2.042 1_545 S
Mg124 O138 2.041 . S
Mg124 O145 2.038 1_545 S
C125 O131 1.247 . S
C125 O132 1.289 . S
C126 O144 1.245 . S
C126 O145 1.274 . S
O127 C115 1.241 . S
O127 Mg120 2.042 . S
O128 C115 1.280 . S
O128 Mg118 1.984 . S
O129 C116 1.277 . S
O129 Mg120 2.041 1_565 S
O130 C116 1.245 . S
O130 Mg118 1.988 1_565 S
O131 Mg118 2.061 . S
O131 C125 1.247 . S
O132 Mg121 2.106 . S
O132 Mg124 2.238 . S
O132 C125 1.289 . S
C133 O134 1.245 . S
C133 O135 1.274 . S
O134 Mg121 2.079 . S
O134 C133 1.245 . S
O135 Mg120 2.038 . S
O135 C133 1.274 . S
O136 Mg124 2.042 1_565 S
O136 C139 1.241 . S
O137 Mg123 1.984 . S
O137 C139 1.280 . S
O138 Mg124 2.041 . S
O138 C142 1.277 . S
C139 O136 1.241 . S
C139 O137 1.280 . S
O140 Mg123 1.988 1_545 S
O140 C142 1.245 . S
O141 C117 1.247 . S
O141 Mg123 2.061 . S
C142 O138 1.277 . S
C142 O140 1.245 . S
O143 C117 1.289 . S
O143 Mg120 2.238 1_565 S
O143 Mg121 2.106 1_565 S
O144 Mg121 2.079 1_565 S
O144 C126 1.245 . S
O145 Mg124 2.038 1_565 S
O145 C126 1.274 . S
C146 O158 1.241 . S
C146 O159 1.280 . S
C147 O160 1.277 . S
C147 O161 1.245 . S
C148 O172 1.247 . S
C148 O174 1.289 . S
Mg149 O150 1.926 . S
Mg149 O159 1.984 . S
Mg149 O161 1.988 . S
Mg149 O162 2.061 . S
O150 Mg149 1.926 . S
O150 Mg151 1.986 . S
O150 Mg152 1.917 . S
Mg151 O150 1.986 . S
Mg151 O158 2.042 . S
Mg151 O160 2.041 . S
Mg151 O166 2.038 . S
Mg151 O174 2.238 . S
Mg152 O150 1.917 . S
Mg152 O153 1.917 . S
Mg152 O163 2.106 . S
Mg152 O165 2.079 . S
Mg152 O174 2.106 . S
Mg152 O175 2.079 . S
O153 Mg152 1.917 . S
O153 Mg154 1.926 . S
O153 Mg155 1.986 . S
Mg154 O153 1.926 . S
Mg154 O168 1.984 . S
Mg154 O171 1.988 . S
Mg154 O172 2.061 . S
Mg155 O153 1.986 . S
Mg155 O163 2.238 . S
Mg155 O167 2.042 . S
Mg155 O169 2.041 . S
Mg155 O176 2.038 . S
C156 O162 1.247 . S
C156 O163 1.289 . S
C157 O175 1.245 . S
C157 O176 1.274 . S
O158 C146 1.241 . S
O158 Mg151 2.042 . S
O159 C146 1.280 . S
O159 Mg149 1.984 . S
O160 C147 1.277 . S
O160 Mg151 2.041 . S
O161 C147 1.245 . S
O161 Mg149 1.988 . S
O162 Mg149 2.061 . S
O162 C156 1.247 . S
O163 Mg152 2.106 . S
O163 Mg155 2.238 . S
O163 C156 1.289 . S
C164 O165 1.245 . S
C164 O166 1.274 . S
O165 Mg152 2.079 . S
O165 C164 1.245 . S
O166 Mg151 2.038 . S
O166 C164 1.274 . S
O167 Mg155 2.042 . S
O167 C170 1.241 . S
O168 Mg154 1.984 . S
O168 C170 1.280 . S
O169 Mg155 2.041 . S
O169 C173 1.277 . S
C170 O167 1.241 . S
C170 O168 1.280 . S
O171 Mg154 1.988 . S
O171 C173 1.245 . S
O172 C148 1.247 . S
O172 Mg154 2.061 . S
C173 O169 1.277 . S
C173 O171 1.245 . S
O174 C148 1.289 . S
O174 Mg151 2.238 . S
O174 Mg152 2.106 . S
O175 Mg152 2.079 . S
O175 C157 1.245 . S
O176 Mg155 2.038 . S
O176 C157 1.274 . S
H177 C183 0.930 . S
H178 C186 0.930 . S
H179 C187 0.930 . S
H180 C188 0.930 . S
H181 C191 0.930 . S
H182 C192 0.930 . S
C183 H177 0.930 . S
C183 C184 1.355 . S
C183 C185 1.415 . S
C184 C183 1.355 . S
C184 C186 1.419 . S
C185 C183 1.415 . S
C185 C190 1.425 . S
C185 C192 1.409 . S
C186 H178 0.930 . S
C186 C184 1.419 . S
C186 C187 1.362 . S
C187 H179 0.930 . S
C187 C186 1.362 . S
C187 C190 1.409 . S
C188 H180 0.930 . S
C188 C189 1.355 . S
C188 C190 1.415 . S
C189 C188 1.355 . S
C189 C191 1.419 . S
C190 C185 1.425 . S
C190 C187 1.409 . S
C190 C188 1.415 . S
C191 H181 0.930 . S
C191 C189 1.419 . S
C191 C192 1.362 . S
C192 H182 0.930 . S
C192 C185 1.409 . S
C192 C191 1.362 . S
H193 C199 0.930 . S
H194 C202 0.930 . S
H195 C203 0.930 . S
H196 C204 0.930 . S
H197 C207 0.930 . S
H198 C208 0.930 . S
C199 H193 0.930 . S
C199 C200 1.355 . S
C199 C201 1.415 . S
C200 C199 1.355 . S
C200 C202 1.419 . S
C201 C199 1.415 . S
C201 C206 1.425 . S
C201 C208 1.409 . S
C202 H194 0.930 . S
C202 C200 1.419 . S
C202 C203 1.362 . S
C203 H195 0.930 . S
C203 C202 1.362 . S
C203 C206 1.409 . S
C204 H196 0.930 . S
C204 C205 1.355 . S
C204 C206 1.415 . S
C205 C204 1.355 . S
C205 C207 1.419 . S
C206 C201 1.425 . S
C206 C203 1.409 . S
C206 C204 1.415 . S
C207 H197 0.930 . S
C207 C205 1.419 . S
C207 C208 1.362 . S
C208 H198 0.930 . S
C208 C201 1.409 . S
C208 C207 1.362 . S
H209 C215 0.930 . S
H210 C218 0.930 . S
H211 C219 0.930 . S
H212 C220 0.930 . S
H213 C223 0.930 . S
H214 C224 0.930 . S
C215 H209 0.930 . S
C215 C216 1.355 . S
C215 C217 1.415 . S
C216 C215 1.355 . S
C216 C218 1.419 . S
C217 C215 1.415 . S
C217 C222 1.425 . S
C217 C224 1.409 . S
C218 H210 0.930 . S
C218 C216 1.419 . S
C218 C219 1.362 . S
C219 H211 0.930 . S
C219 C218 1.362 . S
C219 C222 1.409 . S
C220 H212 0.930 . S
C220 C221 1.355 . S
C220 C222 1.415 . S
C221 C220 1.355 . S
C221 C223 1.419 . S
C222 C217 1.425 . S
C222 C219 1.409 . S
C222 C220 1.415 . S
C223 H213 0.930 . S
C223 C221 1.419 . S
C223 C224 1.362 . S
C224 H214 0.930 . S
C224 C217 1.409 . S
C224 C223 1.362 . S
H225 C231 0.930 . S
H226 C234 0.930 . S
H227 C235 0.930 . S
H228 C236 0.930 . S
H229 C239 0.930 . S
H230 C240 0.930 . S
C231 H225 0.930 . S
C231 C232 1.355 . S
C231 C233 1.415 . S
C232 C231 1.355 . S
C232 C234 1.419 . S
C233 C231 1.415 . S
C233 C238 1.425 . S
C233 C240 1.409 . S
C234 H226 0.930 . S
C234 C232 1.419 . S
C234 C235 1.362 . S
C235 H227 0.930 . S
C235 C234 1.362 . S
C235 C238 1.409 . S
C236 H228 0.930 . S
C236 C237 1.355 . S
C236 C238 1.415 . S
C237 C236 1.355 . S
C237 C239 1.419 . S
C238 C233 1.425 . S
C238 C235 1.409 . S
C238 C236 1.415 . S
C239 H229 0.930 . S
C239 C237 1.419 . S
C239 C240 1.362 . S
C240 H230 0.930 . S
C240 C233 1.409 . S
C240 C239 1.362 . S
H241 C247 0.930 . S
H242 C250 0.930 . S
H243 C251 0.930 . S
H244 C252 0.930 . S
H245 C255 0.930 . S
H246 C256 0.930 . S
C247 H241 0.930 . S
C247 C248 1.355 . S
C247 C249 1.415 . S
C248 C247 1.355 . S
C248 C250 1.419 . S
C249 C247 1.415 . S
C249 C254 1.425 . S
C249 C256 1.409 . S
C250 H242 0.930 . S
C250 C248 1.419 . S
C250 C251 1.362 . S
C251 H243 0.930 . S
C251 C250 1.362 . S
C251 C254 1.409 . S
C252 H244 0.930 . S
C252 C253 1.355 . S
C252 C254 1.415 . S
C253 C252 1.355 . S
C253 C255 1.419 . S
C254 C249 1.425 . S
C254 C251 1.409 . S
C254 C252 1.415 . S
C255 H245 0.930 . S
C255 C253 1.419 . S
C255 C256 1.362 . S
C256 H246 0.930 . S
C256 C249 1.409 . S
C256 C255 1.362 . S
H257 C263 0.930 . S
H258 C266 0.930 . S
H259 C267 0.930 . S
H260 C268 0.930 . S
H261 C271 0.930 . S
H262 C272 0.930 . S
C263 H257 0.930 . S
C263 C264 1.355 . S
C263 C265 1.415 . S
C264 C263 1.355 . S
C264 C266 1.419 . S
C265 C263 1.415 . S
C265 C270 1.425 . S
C265 C272 1.409 . S
C266 H258 0.930 . S
C266 C264 1.419 . S
C266 C267 1.362 . S
C267 H259 0.930 . S
C267 C266 1.362 . S
C267 C270 1.409 . S
C268 H260 0.930 . S
C268 C269 1.355 . S
C268 C270 1.415 . S
C269 C268 1.355 . S
C269 C271 1.419 . S
C270 C265 1.425 . S
C270 C267 1.409 . S
C270 C268 1.415 . S
C271 H261 0.930 . S
C271 C269 1.419 . S
C271 C272 1.362 . S
C272 H262 0.930 . S
C272 C265 1.409 . S
C272 C271 1.362 . S
H273 C279 0.930 . S
H274 C282 0.930 . S
H275 C283 0.930 . S
H276 C284 0.930 . S
H277 C287 0.930 . S
H278 C288 0.930 . S
C279 H273 0.930 . S
C279 C280 1.355 . S
C279 C281 1.415 . S
C280 C279 1.355 . S
C280 C282 1.419 . S
C281 C279 1.415 . S
C281 C286 1.425 . S
C281 C288 1.409 . S
C282 H274 0.930 . S
C282 C280 1.419 . S
C282 C283 1.362 . S
C283 H275 0.930 . S
C283 C282 1.362 . S
C283 C286 1.409 . S
C284 H276 0.930 . S
C284 C285 1.355 . S
C284 C286 1.415 . S
C285 C284 1.355 . S
C285 C287 1.419 . S
C286 C281 1.425 . S
C286 C283 1.409 . S
C286 C284 1.415 . S
C287 H277 0.930 . S
C287 C285 1.419 . S
C287 C288 1.362 . S
C288 H278 0.930 . S
C288 C281 1.409 . S
C288 C287 1.362 . S
H289 C295 0.930 . S
H290 C298 0.930 1_554 S
H291 C299 0.930 . S
H292 C300 0.930 . S
H293 C303 0.930 . S
H294 C304 0.930 . S
C295 H289 0.930 . S
C295 C296 1.355 . S
C295 C297 1.415 . S
C296 C295 1.355 . S
C296 C298 1.419 . S
C297 C295 1.415 . S
C297 C302 1.425 . S
C297 C304 1.409 . S
C298 H290 0.930 1_556 S
C298 C296 1.419 . S
C298 C299 1.362 . S
C299 H291 0.930 . S
C299 C298 1.362 . S
C299 C302 1.409 . S
C300 H292 0.930 . S
C300 C301 1.355 . S
C300 C302 1.415 . S
C301 C300 1.355 . S
C301 C303 1.419 . S
C302 C297 1.425 . S
C302 C299 1.409 . S
C302 C300 1.415 . S
C303 H293 0.930 . S
C303 C301 1.419 . S
C303 C304 1.362 . S
C304 H294 0.930 . S
C304 C297 1.409 . S
C304 C303 1.362 . S
H305 C311 0.930 . S
H306 C314 0.930 . S
H307 C315 0.930 . S
H308 C316 0.930 . S
H309 C319 0.930 . S
H310 C320 0.930 . S
C311 H305 0.930 . S
C311 C312 1.355 . S
C311 C313 1.415 . S
C312 C311 1.355 . S
C312 C314 1.419 . S
C313 C311 1.415 . S
C313 C318 1.425 . S
C313 C320 1.409 . S
C314 H306 0.930 . S
C314 C312 1.419 . S
C314 C315 1.362 . S
C315 H307 0.930 . S
C315 C314 1.362 . S
C315 C318 1.409 . S
C316 H308 0.930 . S
C316 C317 1.355 . S
C316 C318 1.415 . S
C317 C316 1.355 . S
C317 C319 1.419 . S
C318 C313 1.425 . S
C318 C315 1.409 . S
C318 C316 1.415 . S
C319 H309 0.930 . S
C319 C317 1.419 . S
C319 C320 1.362 . S
C320 H310 0.930 . S
C320 C313 1.409 . S
C320 C319 1.362 . S
H321 C327 0.930 . S
H322 C330 0.930 . S
H323 C331 0.930 . S
H324 C332 0.930 . S
H325 C335 0.930 . S
H326 C336 0.930 . S
C327 H321 0.930 . S
C327 C328 1.355 . S
C327 C329 1.415 1_554 S
C328 C327 1.355 . S
C328 C330 1.419 . S
C329 C327 1.415 1_556 S
C329 C334 1.425 . S
C329 C336 1.409 . S
C330 H322 0.930 . S
C330 C328 1.419 . S
C330 C331 1.362 . S
C331 H323 0.930 . S
C331 C330 1.362 . S
C331 C334 1.409 1_554 S
C332 H324 0.930 . S
C332 C333 1.355 . S
C332 C334 1.415 . S
C333 C332 1.355 . S
C333 C335 1.419 . S
C334 C329 1.425 . S
C334 C331 1.409 1_556 S
C334 C332 1.415 . S
C335 H325 0.930 . S
C335 C333 1.419 . S
C335 C336 1.362 . S
C336 H326 0.930 . S
C336 C329 1.409 . S
C336 C335 1.362 . S
H337 C343 0.930 . S
H338 C346 0.930 . S
H339 C347 0.930 . S
H340 C348 0.930 . S
H341 C351 0.930 . S
H342 C352 0.930 1_554 S
C343 H337 0.930 . S
C343 C344 1.355 . S
C343 C345 1.415 1_554 S
C344 C343 1.355 . S
C344 C346 1.419 1_554 S
C345 C343 1.415 1_556 S
C345 C350 1.425 . S
C345 C352 1.409 . S
C346 H338 0.930 . S
C346 C344 1.419 1_556 S
C346 C347 1.362 . S
C347 H339 0.930 . S
C347 C346 1.362 . S
C347 C350 1.409 . S
C348 H340 0.930 . S
C348 C349 1.355 . S
C348 C350 1.415 . S
C349 C348 1.355 . S
C349 C351 1.419 . S
C350 C345 1.425 . S
C350 C347 1.409 . S
C350 C348 1.415 . S
C351 H341 0.930 . S
C351 C349 1.419 . S
C351 C352 1.362 . S
C352 H342 0.930 1_556 S
C352 C345 1.409 . S
C352 C351 1.362 . S
H353 C359 0.930 . S
H354 C362 0.930 . S
H355 C363 0.930 . S
H356 C364 0.930 . S
H357 C367 0.930 . S
H358 C368 0.930 . S
C359 H353 0.930 . S
C359 C360 1.355 1_556 S
C359 C361 1.415 . S
C360 C359 1.355 1_554 S
C360 C362 1.419 . S
C361 C359 1.415 . S
C361 C366 1.425 . S
C361 C368 1.409 . S
C362 H354 0.930 . S
C362 C360 1.419 . S
C362 C363 1.362 1_554 S
C363 H355 0.930 . S
C363 C362 1.362 1_556 S
C363 C366 1.409 . S
C364 H356 0.930 . S
C364 C365 1.355 . S
C364 C366 1.415 . S
C365 C364 1.355 . S
C365 C367 1.419 . S
C366 C361 1.425 . S
C366 C363 1.409 . S
C366 C364 1.415 . S
C367 H357 0.930 . S
C367 C365 1.419 . S
C367 C368 1.362 . S
C368 H358 0.930 . S
C368 C361 1.409 . S
C368 C367 1.362 . S
H369 C375 0.930 . S
H370 C378 0.930 . S
H371 C379 0.930 . S
H372 C380 0.930 . S
H373 C383 0.930 . S
H374 C384 0.930 . S
C375 H369 0.930 . S
C375 C376 1.355 . S
C375 C377 1.415 . S
C376 C375 1.355 . S
C376 C378 1.419 . S
C377 C375 1.415 . S
C377 C382 1.425 . S
C377 C384 1.409 . S
C378 H370 0.930 . S
C378 C376 1.419 . S
C378 C379 1.362 . S
C379 H371 0.930 . S
C379 C378 1.362 . S
C379 C382 1.409 . S
C380 H372 0.930 . S
C380 C381 1.355 . S
C380 C382 1.415 . S
C381 C380 1.355 . S
C381 C383 1.419 . S
C382 C377 1.425 . S
C382 C379 1.409 . S
C382 C380 1.415 . S
C383 H373 0.930 . S
C383 C381 1.419 . S
C383 C384 1.362 . S
C384 H374 0.930 . S
C384 C377 1.409 . S
C384 C383 1.362 . S
H385 C391 0.930 1_554 S
H386 C394 0.930 . S
H387 C395 0.930 . S
H388 C396 0.930 . S
H389 C399 0.930 . S
H390 C400 0.930 . S
C391 H385 0.930 1_556 S
C391 C392 1.355 . S
C391 C393 1.415 . S
C392 C391 1.355 . S
C392 C394 1.419 . S
C393 C391 1.415 . S
C393 C398 1.425 . S
C393 C400 1.409 . S
C394 H386 0.930 . S
C394 C392 1.419 . S
C394 C395 1.362 . S
C395 H387 0.930 . S
C395 C394 1.362 . S
C395 C398 1.409 . S
C396 H388 0.930 . S
C396 C397 1.355 . S
C396 C398 1.415 . S
C397 C396 1.355 . S
C397 C399 1.419 . S
C398 C393 1.425 . S
C398 C395 1.409 . S
C398 C396 1.415 . S
C399 H389 0.930 . S
C399 C397 1.419 . S
C399 C400 1.362 . S
C400 H390 0.930 . S
C400 C393 1.409 . S
C400 C399 1.362 . S
H401 C407 0.930 . S
H402 C410 0.930 . S
H403 C411 0.930 . S
H404 C412 0.930 . S
H405 C415 0.930 . S
H406 C416 0.930 . S
C407 H401 0.930 . S
C407 C408 1.355 . S
C407 C409 1.415 1_554 S
C408 C407 1.355 . S
C408 C410 1.419 . S
C409 C407 1.415 1_556 S
C409 C414 1.425 . S
C409 C416 1.409 . S
C410 H402 0.930 . S
C410 C408 1.419 . S
C410 C411 1.362 . S
C411 H403 0.930 . S
C411 C410 1.362 . S
C411 C414 1.409 1_554 S
C412 H404 0.930 . S
C412 C413 1.355 . S
C412 C414 1.415 . S
C413 C412 1.355 . S
C413 C415 1.419 . S
C414 C409 1.425 . S
C414 C411 1.409 1_556 S
C414 C412 1.415 . S
C415 H405 0.930 . S
C415 C413 1.419 . S
C415 C416 1.362 . S
C416 H406 0.930 . S
C416 C409 1.409 . S
C416 C415 1.362 . S
H417 C423 0.930 . S
H418 C426 0.930 . S
H419 C427 0.930 . S
H420 C428 0.930 . S
H421 C431 0.930 . S
H422 C432 0.930 . S
C423 H417 0.930 . S
C423 C424 1.355 1_556 S
C423 C425 1.415 . S
C424 C423 1.355 1_554 S
C424 C426 1.419 . S
C425 C423 1.415 . S
C425 C430 1.425 . S
C425 C432 1.409 . S
C426 H418 0.930 . S
C426 C424 1.419 . S
C426 C427 1.362 . S
C427 H419 0.930 . S
C427 C426 1.362 . S
C427 C430 1.409 1_554 S
C428 H420 0.930 . S
C428 C429 1.355 . S
C428 C430 1.415 . S
C429 C428 1.355 . S
C429 C431 1.419 . S
C430 C425 1.425 . S
C430 C427 1.409 1_556 S
C430 C428 1.415 . S
C431 H421 0.930 . S
C431 C429 1.419 . S
C431 C432 1.362 . S
C432 H422 0.930 . S
C432 C425 1.409 . S
C432 C431 1.362 . S
H433 C439 0.930 1_554 S
H434 C442 0.930 . S
H435 C443 0.930 . S
H436 C444 0.930 . S
H437 C447 0.930 . S
H438 C448 0.930 . S
C439 H433 0.930 1_556 S
C439 C440 1.355 . S
C439 C441 1.415 . S
C440 C439 1.355 . S
C440 C442 1.419 . S
C441 C439 1.415 . S
C441 C446 1.425 . S
C441 C448 1.409 . S
C442 H434 0.930 . S
C442 C440 1.419 . S
C442 C443 1.362 . S
C443 H435 0.930 . S
C443 C442 1.362 . S
C443 C446 1.409 . S
C444 H436 0.930 . S
C444 C445 1.355 . S
C444 C446 1.415 . S
C445 C444 1.355 . S
C445 C447 1.419 . S
C446 C441 1.425 . S
C446 C443 1.409 . S
C446 C444 1.415 . S
C447 H437 0.930 . S
C447 C445 1.419 . S
C447 C448 1.362 . S
C448 H438 0.930 . S
C448 C441 1.409 . S
C448 C447 1.362 . S
H449 C455 0.930 . S
H450 C458 0.930 . S
H451 C459 0.930 . S
H452 C460 0.930 . S
H453 C463 0.930 . S
H454 C464 0.930 . S
C455 H449 0.930 . S
C455 C456 1.355 . S
C455 C457 1.415 . S
C456 C455 1.355 . S
C456 C458 1.419 . S
C457 C455 1.415 . S
C457 C462 1.425 . S
C457 C464 1.409 . S
C458 H450 0.930 . S
C458 C456 1.419 . S
C458 C459 1.362 . S
C459 H451 0.930 . S
C459 C458 1.362 . S
C459 C462 1.409 . S
C460 H452 0.930 . S
C460 C461 1.355 . S
C460 C462 1.415 . S
C461 C460 1.355 . S
C461 C463 1.419 . S
C462 C457 1.425 . S
C462 C459 1.409 . S
C462 C460 1.415 . S
C463 H453 0.930 . S
C463 C461 1.419 . S
C463 C464 1.362 . S
C464 H454 0.930 . S
C464 C457 1.409 . S
C464 C463 1.362 . S
H465 C471 0.930 . S
H466 C474 0.930 . S
H467 C475 0.930 . S
H468 C476 0.930 . S
H469 C479 0.930 . S
H470 C480 0.930 . S
C471 H465 0.930 . S
C471 C472 1.355 . S
C471 C473 1.415 . S
C472 C471 1.355 . S
C472 C474 1.419 . S
C473 C471 1.415 . S
C473 C478 1.425 . S
C473 C480 1.409 . S
C474 H466 0.930 . S
C474 C472 1.419 . S
C474 C475 1.362 . S
C475 H467 0.930 . S
C475 C474 1.362 . S
C475 C478 1.409 . S
C476 H468 0.930 . S
C476 C477 1.355 . S
C476 C478 1.415 . S
C477 C476 1.355 . S
C477 C479 1.419 . S
C478 C473 1.425 . S
C478 C475 1.409 . S
C478 C476 1.415 . S
C479 H469 0.930 . S
C479 C477 1.419 . S
C479 C480 1.362 . S
C480 H470 0.930 . S
C480 C473 1.409 . S
C480 C479 1.362 . S
H481 C487 0.930 . S
H482 C490 0.930 . S
H483 C491 0.930 . S
H484 C492 0.930 . S
H485 C495 0.930 . S
H486 C496 0.930 . S
C487 H481 0.930 . S
C487 C488 1.355 . S
C487 C489 1.415 . S
C488 C487 1.355 . S
C488 C490 1.419 . S
C489 C487 1.415 . S
C489 C494 1.425 . S
C489 C496 1.409 . S
C490 H482 0.930 . S
C490 C488 1.419 . S
C490 C491 1.362 . S
C491 H483 0.930 . S
C491 C490 1.362 . S
C491 C494 1.409 . S
C492 H484 0.930 . S
C492 C493 1.355 . S
C492 C494 1.415 . S
C493 C492 1.355 . S
C493 C495 1.419 . S
C494 C489 1.425 . S
C494 C491 1.409 . S
C494 C492 1.415 . S
C495 H485 0.930 . S
C495 C493 1.419 . S
C495 C496 1.362 . S
C496 H486 0.930 . S
C496 C489 1.409 . S
C496 C495 1.362 . S
H497 C503 0.930 . S
H498 C506 0.930 . S
H499 C507 0.930 . S
H500 C508 0.930 . S
H501 C511 0.930 . S
H502 C512 0.930 . S
C503 H497 0.930 . S
C503 C504 1.355 . S
C503 C505 1.415 . S
C504 C503 1.355 . S
C504 C506 1.419 . S
C505 C503 1.415 . S
C505 C510 1.425 . S
C505 C512 1.409 . S
C506 H498 0.930 . S
C506 C504 1.419 . S
C506 C507 1.362 . S
C507 H499 0.930 . S
C507 C506 1.362 . S
C507 C510 1.409 . S
C508 H500 0.930 . S
C508 C509 1.355 . S
C508 C510 1.415 . S
C509 C508 1.355 . S
C509 C511 1.419 . S
C510 C505 1.425 . S
C510 C507 1.409 . S
C510 C508 1.415 . S
C511 H501 0.930 . S
C511 C509 1.419 . S
C511 C512 1.362 . S
C512 H502 0.930 . S
C512 C505 1.409 . S
C512 C511 1.362 . S
H513 C519 0.930 . S
H514 C522 0.930 . S
H515 C523 0.930 . S
H516 C524 0.930 . S
H517 C527 0.930 . S
H518 C528 0.930 . S
C519 H513 0.930 . S
C519 C520 1.355 . S
C519 C521 1.415 . S
C520 C519 1.355 . S
C520 C522 1.419 . S
C521 C519 1.415 . S
C521 C526 1.425 . S
C521 C528 1.409 . S
C522 H514 0.930 . S
C522 C520 1.419 . S
C522 C523 1.362 . S
C523 H515 0.930 . S
C523 C522 1.362 . S
C523 C526 1.409 . S
C524 H516 0.930 . S
C524 C525 1.355 . S
C524 C526 1.415 . S
C525 C524 1.355 . S
C525 C527 1.419 . S
C526 C521 1.425 . S
C526 C523 1.409 . S
C526 C524 1.415 . S
C527 H517 0.930 . S
C527 C525 1.419 . S
C527 C528 1.362 . S
C528 H518 0.930 . S
C528 C521 1.409 . S
C528 C527 1.362 . S
H529 C535 0.930 . S
H530 C538 0.930 . S
H531 C539 0.930 . S
H532 C540 0.930 . S
H533 C543 0.930 . S
H534 C544 0.930 . S
C535 H529 0.930 . S
C535 C536 1.355 . S
C535 C537 1.415 . S
C536 C535 1.355 . S
C536 C538 1.419 . S
C537 C535 1.415 . S
C537 C542 1.425 . S
C537 C544 1.409 . S
C538 H530 0.930 . S
C538 C536 1.419 . S
C538 C539 1.362 . S
C539 H531 0.930 . S
C539 C538 1.362 . S
C539 C542 1.409 . S
C540 H532 0.930 . S
C540 C541 1.355 . S
C540 C542 1.415 . S
C541 C540 1.355 . S
C541 C543 1.419 . S
C542 C537 1.425 . S
C542 C539 1.409 . S
C542 C540 1.415 . S
C543 H533 0.930 . S
C543 C541 1.419 . S
C543 C544 1.362 . S
C544 H534 0.930 . S
C544 C537 1.409 . S
C544 C543 1.362 . S
H545 C551 0.930 . S
H546 C554 0.930 . S
H547 C555 0.930 . S
H548 C556 0.930 . S
H549 C559 0.930 . S
H550 C560 0.930 . S
C551 H545 0.930 . S
C551 C552 1.355 . S
C551 C553 1.415 . S
C552 C551 1.355 . S
C552 C554 1.419 . S
C553 C551 1.415 . S
C553 C558 1.425 . S
C553 C560 1.409 . S
C554 H546 0.930 . S
C554 C552 1.419 . S
C554 C555 1.362 . S
C555 H547 0.930 . S
C555 C554 1.362 . S
C555 C558 1.409 . S
C556 H548 0.930 . S
C556 C557 1.355 . S
C556 C558 1.415 . S
C557 C556 1.355 . S
C557 C559 1.419 . S
C558 C553 1.425 . S
C558 C555 1.409 . S
C558 C556 1.415 . S
C559 H549 0.930 . S
C559 C557 1.419 . S
C559 C560 1.362 . S
C560 H550 0.930 . S
C560 C553 1.409 . S
C560 C559 1.362 . S
C184 C1 1.803 . S
C189 C95 1.755 . S
C200 C27 1.539 . S
C205 C142 1.529 . S
C221 C146 1.661 . S
C216 C40 1.715 . S
C237 C111 1.401 . S
C232 C55 1.456 . S
C248 C68 1.748 . S
C253 C126 1.662 . S
C269 C148 1.005 . S
C264 C70 1.066 . S
C285 C117 1.413 . S
C280 C41 1.469 . S
C296 C54 1.411 . S
C301 C157 1.392 . S
C317 C86 1.301 . S
C312 C69 1.383 1_556 S
C328 C71 1.378 . S
C333 C115 1.319 . S
C344 C0 1.800 . S
C349 C173 1.731 . S
C365 C84 1.446 . S
C360 C26 1.468 . S
C381 C102 1.683 . S
C376 C42 1.791 . S
C397 C116 1.507 . S
C392 C57 1.544 1_556 S
C413 C170 1.623 . S
C408 C83 1.699 . S
C429 C85 1.456 . S
C424 C12 1.477 . S
C445 C133 1.639 . S
C440 C14 1.741 1_556 S
C456 C29 1.073 . S
C461 C156 1.014 . S
C477 C125 1.382 . S
C472 C82 1.464 . S
C493 C164 1.316 . S
C488 C13 1.380 . S
C509 C94 1.375 . S
C504 C15 1.418 . S
C525 C139 1.371 . S
C520 C28 1.391 . S
C536 C43 1.801 . S
C541 C147 1.751 . S
C552 C56 1.460 . S
C557 C108 1.439 . S
