# Generated by pormake.
# Topology csq, (4,8)-cn, num edge types: 1
# Building blocks:
#     Node 0, Type 0, BuildingBlock: MUDLON_clean_sbu_0, # of connection points: 4
#     Node 1, Type 0, BuildingBlock: MUDLON_clean_sbu_0, # of connection points: 4
#     Node 2, Type 0, BuildingBlock: MUDLON_clean_sbu_0, # of connection points: 4
#     Node 3, Type 0, BuildingBlock: MUDLON_clean_sbu_0, # of connection points: 4
#     Node 4, Type 0, BuildingBlock: MUDLON_clean_sbu_0, # of connection points: 4
#     Node 5, Type 0, BuildingBlock: MUDLON_clean_sbu_0, # of connection points: 4
#     Node 6, Type 1, BuildingBlock: TAGTUT_clean_sbu_1, # of connection points: 8
#     Node 7, Type 1, BuildingBlock: TAGTUT_clean_sbu_1, # of connection points: 8
#     Node 8, Type 1, BuildingBlock: TAGTUT_clean_sbu_1, # of connection points: 8
#     Edge 9, Type (0, 1), BuildingBlock: XIVTED_clean_linker_0, # of connection points: 2
#     Edge 10, Type (0, 1), BuildingBlock: XIVTED_clean_linker_0, # of connection points: 2
#     Edge 11, Type (0, 1), BuildingBlock: XIVTED_clean_linker_0, # of connection points: 2
#     Edge 12, Type (0, 1), BuildingBlock: XIVTED_clean_linker_0, # of connection points: 2
#     Edge 13, Type (0, 1), BuildingBlock: XIVTED_clean_linker_0, # of connection points: 2
#     Edge 14, Type (0, 1), BuildingBlock: XIVTED_clean_linker_0, # of connection points: 2
#     Edge 15, Type (0, 1), BuildingBlock: XIVTED_clean_linker_0, # of connection points: 2
#     Edge 16, Type (0, 1), BuildingBlock: XIVTED_clean_linker_0, # of connection points: 2
#     Edge 17, Type (0, 1), BuildingBlock: XIVTED_clean_linker_0, # of connection points: 2
#     Edge 18, Type (0, 1), BuildingBlock: XIVTED_clean_linker_0, # of connection points: 2
#     Edge 19, Type (0, 1), BuildingBlock: XIVTED_clean_linker_0, # of connection points: 2
#     Edge 20, Type (0, 1), BuildingBlock: XIVTED_clean_linker_0, # of connection points: 2
#     Edge 21, Type (0, 1), BuildingBlock: XIVTED_clean_linker_0, # of connection points: 2
#     Edge 22, Type (0, 1), BuildingBlock: XIVTED_clean_linker_0, # of connection points: 2
#     Edge 23, Type (0, 1), BuildingBlock: XIVTED_clean_linker_0, # of connection points: 2
#     Edge 24, Type (0, 1), BuildingBlock: XIVTED_clean_linker_0, # of connection points: 2
#     Edge 25, Type (0, 1), BuildingBlock: XIVTED_clean_linker_0, # of connection points: 2
#     Edge 26, Type (0, 1), BuildingBlock: XIVTED_clean_linker_0, # of connection points: 2
#     Edge 27, Type (0, 1), BuildingBlock: XIVTED_clean_linker_0, # of connection points: 2
#     Edge 28, Type (0, 1), BuildingBlock: XIVTED_clean_linker_0, # of connection points: 2
#     Edge 29, Type (0, 1), BuildingBlock: XIVTED_clean_linker_0, # of connection points: 2
#     Edge 30, Type (0, 1), BuildingBlock: XIVTED_clean_linker_0, # of connection points: 2
#     Edge 31, Type (0, 1), BuildingBlock: XIVTED_clean_linker_0, # of connection points: 2
#     Edge 32, Type (0, 1), BuildingBlock: XIVTED_clean_linker_0, # of connection points: 2
# Relax obj value: 0.063
# Max RMSD: 0.136
# Mean RMSD: 0.099
data_MOF--net-csq--node1-MUDLON_clean_sbu_0--node2-TAGTUT_clean_sbu_1--edge1-XIVTED_clean_linker_0
_symmetry_space_group_name_H-M    P1
_symmetry_Int_Tables_number       1
_symmetry_cell_setting            triclinic
loop_
_symmetry_equiv_pos_as_xyz
'x, y, z'
_cell_length_a     49.891755
_cell_length_b     49.759847
_cell_length_c     20.495217
_cell_angle_alpha  92.740695
_cell_angle_beta   92.270549
_cell_angle_gamma 120.3743
loop_
_atom_site_label
_atom_site_type_symbol
_atom_site_fract_x
_atom_site_fract_y
_atom_site_fract_z
_atom_type_partial_charge
Mg0 Mg 0.24446 0.48809 0.17056 0.0
C1 C 0.20669 0.49131 0.06676 0.0
O2 O 0.1897 0.46526 0.09478 0.0
C3 C 0.27949 0.49355 0.28823 0.0
O4 O 0.25522 0.46509 0.28004 0.0
C5 C 0.20677 0.4895 0.2754 0.0
O6 O 0.23209 0.51723 0.27954 0.0
O7 O 0.2038 0.46919 0.23065 0.0
O8 O 0.23382 0.51064 0.09301 0.0
O9 O 0.26232 0.46207 0.11543 0.0
C10 C 0.25551 0.45315 0.05461 0.0
O11 O 0.23034 0.45082 0.02613 0.0
O12 O 0.28291 0.51268 0.24555 0.0
Mg13 Mg 0.77668 0.26384 0.14965 0.0
C14 C 0.8279 0.26981 0.06005 0.0
O15 O 0.80491 0.24674 0.02306 0.0
C16 C 0.74347 0.23991 0.26655 0.0
O17 O 0.73414 0.25834 0.24399 0.0
C18 C 0.80806 0.3338 0.1748 0.0
O19 O 0.82024 0.33356 0.11927 0.0
O20 O 0.78452 0.30866 0.18992 0.0
O21 O 0.82249 0.27773 0.11563 0.0
O22 O 0.73775 0.2365 0.07583 0.0
C23 C 0.73536 0.23866 0.01442 0.0
O24 O 0.75827 0.2617 0.98695 0.0
O25 O 0.7635 0.23666 0.23578 0.0
Mg26 Mg 0.50933 0.76066 0.07725 0.0
C27 C 0.54529 0.81699 0.17693 0.0
O28 O 0.56735 0.81105 0.16301 0.0
C29 C 0.52565 0.73179 0.96346 0.0
O30 O 0.54882 0.76087 0.96832 0.0
C31 C 0.53096 0.81607 0.99325 0.0
O32 O 0.55683 0.82143 0.02488 0.0
O33 O 0.50575 0.791 1.00139 0.0
O34 O 0.51755 0.79827 0.15384 0.0
O35 O 0.51436 0.73112 0.15387 0.0
C36 C 0.53352 0.72174 0.14502 0.0
O37 O 0.55098 0.73087 0.09522 0.0
O38 O 0.50305 0.72426 0.99909 0.0
Mg39 Mg 0.78236 0.55177 0.11383 0.0
C40 C 0.7335 0.5635 0.0527 0.0
O41 O 0.72208 0.55519 0.10975 0.0
C42 C 0.82074 0.5916 0.23594 0.0
O43 O 0.79367 0.58714 0.2523 0.0
C44 C 0.72191 0.50417 0.18231 0.0
O45 O 0.70903 0.49014 0.12416 0.0
O46 O 0.75 0.52661 0.18781 0.0
O47 O 0.76082 0.56876 0.04472 0.0
O48 O 0.80009 0.5277 0.05248 0.0
C49 C 0.79963 0.52946 0.99054 0.0
O50 O 0.78413 0.54145 0.9636 0.0
O51 O 0.82344 0.58455 0.17692 0.0
Mg52 Mg 0.25204 0.75312 0.0829 0.0
C53 C 0.24582 0.68639 0.05879 0.0
O54 O 0.25783 0.66861 0.06886 0.0
C55 C 0.29006 0.78629 0.21553 0.0
O56 O 0.27506 0.7581 0.23612 0.0
C57 C 0.19863 0.74533 0.16126 0.0
O58 O 0.22022 0.77301 0.18725 0.0
O59 O 0.20478 0.73294 0.11287 0.0
O60 O 0.26158 0.71494 0.08144 0.0
O61 O 0.26148 0.77389 0.98838 0.0
C62 C 0.27889 0.76884 0.95212 0.0
O63 O 0.28821 0.74983 0.97093 0.0
O64 O 0.28474 0.79021 0.15641 0.0
Mg65 Mg 0.45212 0.22948 0.19206 0.0
C66 C 0.42083 0.24283 0.2969 0.0
O67 O 0.43087 0.22676 0.32798 0.0
C68 C 0.45022 0.1878 0.08738 0.0
O69 O 0.47719 0.21359 0.08498 0.0
C70 C 0.48771 0.29631 0.16124 0.0
O71 O 0.48177 0.30004 0.22182 0.0
O72 O 0.48104 0.26927 0.1384 0.0
O73 O 0.4208 0.24211 0.23495 0.0
O74 O 0.47588 0.21985 0.27018 0.0
C75 C 0.49453 0.20991 0.26113 0.0
O76 O 0.50465 0.21031 0.20283 0.0
O77 O 0.431 0.18771 0.12627 0.0
C78 C 0.98759 0.43258 0.80524 0.0
C79 C 0.07497 0.48872 0.71679 0.0
C80 C 0.0587 0.58358 0.73782 0.0
Mg81 Mg 0.0062 0.45243 0.66419 0.0
O82 O 1.00026 0.48504 0.69719 0.0
Mg83 Mg 0.02626 0.50994 0.77889 0.0
Mg84 Mg 0.01186 0.52002 0.64003 0.0
O85 O 0.02453 0.55469 0.58146 0.0
Mg86 Mg 0.02642 0.5925 0.60678 0.0
Mg87 Mg 1.00017 0.53022 0.49808 0.0
C88 C 0.96815 0.45835 0.53948 0.0
C89 C 0.05166 0.50998 0.5261 0.0
O90 O 1.00121 0.46161 0.82686 0.0
O91 O 0.98653 0.4241 0.74463 0.0
O92 O 0.06635 0.50298 0.75607 0.0
O93 O 0.05605 0.4683 0.67208 0.0
O94 O 0.97751 0.4424 0.57111 0.0
O95 O 0.97627 0.48658 0.55894 0.0
C96 C 0.97021 0.52435 0.75638 0.0
O97 O 0.97478 0.52725 0.69488 0.0
O98 O 0.98662 0.51782 0.79473 0.0
O99 O 0.02931 0.57626 0.44658 0.0
O100 O 0.04988 0.61678 0.52341 0.0
O101 O 0.96383 0.54449 0.5142 0.0
C102 C 0.04658 0.60563 0.46392 0.0
O103 O 0.97904 0.58389 0.59083 0.0
O104 O 0.05313 0.6014 0.70291 0.0
C105 C 0.95878 0.56373 0.54728 0.0
O106 O 0.047 0.55434 0.7203 0.0
O107 O 0.04808 0.51098 0.5878 0.0
O108 O 0.03636 0.51645 0.48468 0.0
C109 C 0.4432 0.01768 0.81439 0.0
C110 C 0.41737 0.93549 0.69008 0.0
C111 C 0.54019 0.97571 0.70134 0.0
Mg112 Mg 0.44215 0.00421 0.66451 0.0
O113 O 0.48296 0.0145 0.69128 0.0
Mg114 Mg 0.48872 0.9903 0.76012 0.0
Mg115 Mg 0.50918 0.01088 0.62507 0.0
O116 O 0.53529 0.00729 0.55877 0.0
Mg117 Mg 0.57611 0.01711 0.58384 0.0
Mg118 Mg 0.52938 0.03102 0.48904 0.0
C119 C 0.47983 0.04827 0.55128 0.0
C120 C 0.46251 0.9672 0.49791 0.0
O121 O 0.46204 0.00751 0.8246 0.0
O122 O 0.43317 0.01903 0.75678 0.0
O123 O 0.44223 0.94551 0.72742 0.0
O124 O 0.41267 0.95372 0.65577 0.0
O125 O 0.45494 0.0348 0.5826 0.0
O126 O 0.50295 0.0442 0.56326 0.0
C127 C 0.55485 0.0552 0.75239 0.0
O128 O 0.55128 0.05159 0.68944 0.0
O129 O 0.53456 0.03526 0.78761 0.0
O130 O 0.55424 0.01184 0.42431 0.0
O131 O 0.5825 -0.00042 0.4922 0.0
O132 O 0.57693 0.07539 0.51759 0.0
C133 C 0.57207 0.00049 0.43466 0.0
O134 O 0.6071 0.06718 0.58729 0.0
O135 O 0.56492 0.98921 0.66964 0.0
C136 C 0.60249 0.08522 0.55227 0.0
O137 O 0.51619 0.97811 0.6872 0.0
O138 O 0.46663 0.9701 0.5608 0.0
O139 O 0.48282 0.98712 0.46288 0.0
C140 C 0.54687 0.57216 0.43525 0.0
C141 C 0.58333 0.51423 0.50195 0.0
C142 C 0.4648 0.43339 0.55252 0.0
Mg143 Mg 0.56699 0.56029 0.57158 0.0
O144 O 0.52454 0.5299 0.56274 0.0
Mg145 Mg 0.50892 0.49888 0.48472 0.0
Mg146 Mg 0.50649 0.50153 0.63381 0.0
O147 O 0.48915 0.47329 0.70561 0.0
Mg148 Mg 0.44858 0.43922 0.70109 0.0
Mg149 Mg 0.50368 0.50425 0.78354 0.0
C150 C 0.54608 0.56916 0.71473 0.0
C151 C 0.56497 0.5081 0.72475 0.0
O152 O 0.52802 0.54257 0.42285 0.0
O153 O 0.56349 0.58389 0.48961 0.0
O154 O 0.55497 0.49924 0.4785 0.0
O155 O 0.59337 0.53793 0.54352 0.0
O156 O 0.56621 0.57901 0.67104 0.0
O157 O 0.52088 0.54237 0.70756 0.0
C158 C 0.45072 0.50091 0.54468 0.0
O159 O 0.46035 0.50009 0.60317 0.0
O160 O 0.46495 0.50025 0.49475 0.0
O161 O 0.48915 0.46207 0.84694 0.0
O162 O 0.45712 0.41823 0.78274 0.0
O163 O 0.4544 0.49818 0.79338 0.0
C164 C 0.47342 0.43213 0.83665 0.0
O165 O 0.4184 0.45583 0.73205 0.0
O166 O 0.44666 0.42235 0.59933 0.0
C167 C 0.42592 0.47918 0.77286 0.0
O168 O 0.49029 0.46001 0.55897 0.0
O169 O 0.55396 0.50521 0.66541 0.0
O170 O 0.55013 0.50835 0.77383 0.0
H171 H 0.14319 0.4499 0.25544 0.0
H172 H 0.10713 0.51854 0.58239 0.0
H173 H 0.2147 0.51703 0.39784 0.0
H174 H 0.04416 0.47866 0.40874 0.0
H175 H 0.14384 0.50693 0.52831 0.0
H176 H 0.10355 0.44875 0.32485 0.0
C177 C 0.15051 0.46384 0.30186 0.0
C178 C 0.18223 0.48384 0.32055 0.0
C179 C 0.12178 0.50044 0.50252 0.0
C180 C 0.13722 0.48272 0.40003 0.0
C181 C 0.10085 0.50696 0.53344 0.0
C182 C 0.07284 0.50006 0.49957 0.0
C183 C 0.11429 0.48643 0.43793 0.0
C184 C 0.06579 0.48495 0.43622 0.0
C185 C 0.12794 0.46337 0.34127 0.0
C186 C 0.19045 0.50158 0.38116 0.0
N187 N 0.08636 0.47878 0.40746 0.0
N188 N 0.16816 0.50076 0.41848 0.0
H189 H 0.7516 0.19479 0.32277 0.0
H190 H 0.60142 0.13726 0.52026 0.0
H191 H 0.70199 0.24467 0.34141 0.0
H192 H 0.66347 0.10145 0.54662 0.0
H193 H 0.64109 0.18008 0.46367 0.0
H194 H 0.72256 0.16277 0.41085 0.0
C195 C 0.73491 0.19925 0.34576 0.0
C196 C 0.72893 0.22216 0.32389 0.0
C197 C 0.64642 0.16332 0.48307 0.0
C198 C 0.69564 0.18568 0.42441 0.0
C199 C 0.62381 0.13899 0.51591 0.0
C200 C 0.62912 0.11574 0.53806 0.0
C201 C 0.67428 0.164 0.47074 0.0
C202 C 0.65848 0.11899 0.53063 0.0
C203 C 0.7184 0.18105 0.39616 0.0
C204 C 0.70714 0.22703 0.35581 0.0
N205 N 0.67971 0.14224 0.4962 0.0
N206 N 0.69111 0.20876 0.4037 0.0
H207 H 0.52065 0.71426 0.27369 0.0
H208 H 0.53201 0.56209 0.30198 0.0
H209 H 0.54977 0.67844 0.11265 0.0
H210 H 0.56036 0.63176 0.46423 0.0
H211 H 0.52864 0.59852 0.22947 0.0
H212 H 0.52456 0.67738 0.34339 0.0
C213 C 0.52773 0.69856 0.25305 0.0
C214 C 0.53516 0.6995 0.18767 0.0
C215 C 0.53576 0.60571 0.28095 0.0
C216 C 0.53908 0.65714 0.26626 0.0
C217 C 0.53768 0.58503 0.32219 0.0
C218 C 0.54674 0.59402 0.38904 0.0
C219 C 0.54203 0.63507 0.30735 0.0
C220 C 0.55366 0.62397 0.41286 0.0
C221 C 0.53007 0.67769 0.29274 0.0
C222 C 0.5442 0.67865 0.16314 0.0
N223 N 0.55082 0.64327 0.37223 0.0
N224 N 0.54569 0.65811 0.20234 0.0
H225 H 0.82838 0.61378 0.36523 0.0
H226 H 0.90753 0.52026 0.47146 0.0
H227 H 0.86411 0.5739 0.22649 0.0
H228 H 0.94976 0.61411 0.56274 0.0
H229 H 0.87408 0.53076 0.4004 0.0
H230 H 0.85943 0.60787 0.45421 0.0
C231 C 0.84313 0.60436 0.35331 0.0
C232 C 0.84365 0.59436 0.28819 0.0
C233 C 0.89022 0.54878 0.43705 0.0
C234 C 0.87781 0.58646 0.38942 0.0
C235 C 0.90917 0.5428 0.47808 0.0
C236 C 0.932 0.56655 0.52244 0.0
C237 C 0.89355 0.57849 0.441 0.0
C238 C 0.93264 0.59517 0.52905 0.0
C239 C 0.86063 0.6009 0.40403 0.0
C240 C 0.86301 0.58209 0.27564 0.0
N241 N 0.91395 0.60057 0.48793 0.0
N242 N 0.87877 0.57793 0.32586 0.0
H243 H 0.32529 0.84747 0.18844 0.0
H244 H 0.41941 0.9101 0.54223 0.0
H245 H 0.30793 0.78693 0.34502 0.0
H246 H 0.44061 0.9636 0.37249 0.0
H247 H 0.37526 0.86581 0.4766 0.0
H248 H 0.36447 0.89133 0.26074 0.0
C249 C 0.32965 0.84335 0.23812 0.0
C250 C 0.31333 0.81331 0.26033 0.0
C251 C 0.3896 0.88736 0.45408 0.0
C252 C 0.35855 0.86383 0.34414 0.0
C253 C 0.41469 0.91266 0.49157 0.0
C254 C 0.43403 0.94057 0.46278 0.0
C255 C 0.38372 0.8902 0.38768 0.0
C256 C 0.42674 0.94252 0.39685 0.0
C257 C 0.35211 0.8685 0.27958 0.0
C258 C 0.32002 0.80963 0.32559 0.0
N259 N 0.40239 0.9178 0.36184 0.0
N260 N 0.34218 0.83455 0.36513 0.0
H261 H 0.45133 0.27135 0.41488 0.0
H262 H 0.40808 0.39445 0.48825 0.0
H263 H 0.39474 0.27717 0.25742 0.0
H264 H 0.50525 0.42266 0.4877 0.0
H265 H 0.39494 0.34811 0.41529 0.0
H266 H 0.46265 0.32226 0.46203 0.0
C267 C 0.44066 0.28294 0.39096 0.0
C268 C 0.422 0.26998 0.3321 0.0
C269 C 0.41914 0.36502 0.42968 0.0
C270 C 0.43514 0.32819 0.38582 0.0
C271 C 0.42667 0.39138 0.4709 0.0
C272 C 0.45776 0.41216 0.49392 0.0
C273 C 0.44281 0.35915 0.41372 0.0
C274 C 0.48104 0.40719 0.47073 0.0
C275 C 0.44758 0.31216 0.41739 0.0
C276 C 0.40918 0.2864 0.30295 0.0
N277 N 0.473 0.38056 0.4334 0.0
N278 N 0.41583 0.31475 0.33044 0.0
H279 H 0.48123 0.81656 0.93169 0.0
H280 H 0.58895 0.97443 0.76334 0.0
H281 H 0.58155 0.86998 0.96172 0.0
H282 H 0.48873 0.93007 0.75531 0.0
H283 H 0.58632 0.93642 0.83731 0.0
H284 H 0.483 0.85736 0.86636 0.0
C285 C 0.50361 0.83679 0.9244 0.0
C286 C 0.5313 0.8398 0.95199 0.0
C287 C 0.56488 0.93511 0.81989 0.0
C288 C 0.53347 0.88654 0.87774 0.0
C289 C 0.56638 0.95686 0.77765 0.0
C290 C 0.53901 0.95537 0.75281 0.0
C291 C 0.53577 0.91139 0.83704 0.0
C292 C 0.51043 0.93216 0.7734 0.0
C293 C 0.50459 0.86013 0.88743 0.0
C294 C 0.55961 0.86659 0.94131 0.0
N295 N 0.50952 0.91086 0.81383 0.0
N296 N 0.55996 0.88883 0.90493 0.0
H297 H 0.74763 0.58703 0.9312 0.0
H298 H 0.57635 0.46649 0.77882 0.0
H299 H 0.67063 0.52589 0.04135 0.0
H300 H 0.62217 0.5598 0.71562 0.0
H301 H 0.62218 0.48076 0.85213 0.0
H302 H 0.71092 0.57184 0.83327 0.0
C303 C 0.72308 0.57068 0.93494 0.0
C304 C 0.71211 0.55795 0.99474 0.0
C305 C 0.62266 0.49781 0.82048 0.0
C306 C 0.67078 0.53958 0.88309 0.0
C307 C 0.59678 0.48952 0.77782 0.0
C308 C 0.5957 0.51192 0.74082 0.0
C309 C 0.64759 0.52876 0.82628 0.0
C310 C 0.62243 0.54177 0.74274 0.0
C311 C 0.70233 0.56196 0.87915 0.0
C312 C 0.68015 0.53664 0.99673 0.0
N313 N 0.64726 0.54961 0.78595 0.0
N314 N 0.66076 0.5279 0.94169 0.0
H315 H 0.21904 0.71573 0.99375 0.0
H316 H 0.07839 0.55504 0.82372 0.0
H317 H 0.2022 0.62469 0.0364 0.0
H318 H 0.09186 0.64538 0.78482 0.0
H319 H 0.12092 0.58017 0.90893 0.0
H320 H 0.17023 0.6908 0.92468 0.0
C321 C 0.20495 0.69061 0.98972 0.0
C322 C 0.21493 0.67246 0.02135 0.0
C323 C 0.1144 0.59452 0.88228 0.0
C324 C 0.15904 0.64349 0.94097 0.0
C325 C 0.08992 0.58009 0.83348 0.0
C326 C 0.08144 0.59797 0.79628 0.0
C327 C 0.1308 0.62723 0.89415 0.0
C328 C 0.09752 0.63051 0.81182 0.0
C329 C 0.17706 0.67629 0.94976 0.0
C330 C 0.19568 0.63977 0.01281 0.0
N331 N 0.12155 0.64407 0.85901 0.0
N332 N 0.16889 0.62641 0.97333 0.0
H333 H 0.49476 0.17372 0.0641 0.0
H334 H 0.39506 0.02899 0.82139 0.0
H335 H 0.39529 0.13502 0.04165 0.0
H336 H 0.47661 0.04184 0.93246 0.0
H337 H 0.3925 0.0659 0.90056 0.0
H338 H 0.48798 0.12537 0.01271 0.0
C339 C 0.47144 0.155 0.04799 0.0
C340 C 0.44554 0.15842 0.05605 0.0
C341 C 0.41043 0.05997 0.9084 0.0
C342 C 0.43764 0.10299 0.99737 0.0
C343 C 0.41197 0.03899 0.86328 0.0
C344 C 0.43646 0.03284 0.86974 0.0
C345 C 0.43394 0.0753 0.9592 0.0
C346 C 0.45752 0.04612 0.92523 0.0
C347 C 0.46756 0.12727 0.01951 0.0
C348 C 0.41581 0.13324 0.03564 0.0
N349 N 0.45624 0.06736 0.96702 0.0
N350 N 0.41265 0.10662 0.00596 0.0
H351 H 0.24812 0.43123 0.92594 0.0
H352 H 0.43142 0.51382 0.88629 0.0
H353 H 0.31792 0.47751 0.08734 0.0
H354 H 0.36267 0.44558 0.74069 0.0
H355 H 0.38959 0.50641 0.95483 0.0
H356 H 0.28923 0.43983 0.85363 0.0
C357 C 0.27203 0.44281 0.94644 0.0
C358 C 0.27947 0.45354 0.01305 0.0
C359 C 0.38364 0.49326 0.90762 0.0
C360 C 0.3268 0.46424 0.92989 0.0
C361 C 0.40753 0.49777 0.86793 0.0
C362 C 0.40071 0.4802 0.80747 0.0
C363 C 0.35256 0.47123 0.8867 0.0
C364 C 0.36916 0.45958 0.78691 0.0
C365 C 0.29551 0.44788 0.90498 0.0
C366 C 0.31096 0.46859 0.03658 0.0
N367 N 0.34632 0.45557 0.82651 0.0
N368 N 0.33343 0.47374 0.99499 0.0
H369 H 0.87572 0.32659 0.11331 0.0
H370 H 0.95979 0.36935 0.77829 0.0
H371 H 0.84768 0.2624 0.941 0.0
H372 H 0.97562 0.43848 0.93407 0.0
H373 H 0.92606 0.32832 0.84619 0.0
H374 H 0.91947 0.36554 0.05723 0.0
C375 C 0.87903 0.32041 0.06412 0.0
C376 C 0.85766 0.29118 0.03157 0.0
C377 C 0.93709 0.35243 0.86582 0.0
C378 C 0.90778 0.3359 0.96705 0.0
C379 C 0.95646 0.376 0.82706 0.0
C380 C 0.97036 0.40762 0.84999 0.0
C381 C 0.93141 0.36031 0.9283 0.0
C382 C 0.9653 0.41451 0.91404 0.0
C383 C 0.90398 0.34279 0.03204 0.0
C384 C 0.86333 0.28463 0.96791 0.0
N385 N 0.946 0.39106 0.95072 0.0
N386 N 0.88765 0.30689 0.9376 0.0
H387 H 0.80493 0.53164 0.85759 0.0
H388 H 0.96481 0.53228 0.88584 0.0
H389 H 0.84383 0.51578 0.03335 0.0
H390 H 0.91795 0.52268 0.69695 0.0
H391 H 0.92173 0.53062 0.9388 0.0
H392 H 0.8457 0.53054 0.79641 0.0
C393 C 0.82176 0.5275 0.88323 0.0
C394 C 0.82101 0.52398 0.95103 0.0
C395 C 0.92063 0.52881 0.88578 0.0
C396 C 0.86797 0.52324 0.88127 0.0
C397 C 0.94543 0.5299 0.85513 0.0
C398 C 0.94501 0.52722 0.78643 0.0
C399 C 0.89487 0.52524 0.84804 0.0
C400 C 0.91928 0.52475 0.74996 0.0
C401 C 0.84506 0.52698 0.84817 0.0
C402 C 0.84341 0.51867 0.98137 0.0
N403 N 0.8951 0.52372 0.78128 0.0
N404 N 0.86606 0.51878 0.94647 0.0
H405 H 0.2683 0.81332 0.90153 0.0
H406 H 0.42103 0.88394 0.71335 0.0
H407 H 0.32009 0.76626 0.87187 0.0
H408 H 0.35531 0.91551 0.69136 0.0
H409 H 0.38146 0.83739 0.76103 0.0
H410 H 0.29667 0.84811 0.8169 0.0
C411 C 0.28527 0.80998 0.87663 0.0
C412 C 0.29214 0.78712 0.89469 0.0
C413 C 0.37534 0.85406 0.74437 0.0
C414 C 0.32484 0.82699 0.79816 0.0
C415 C 0.39791 0.88055 0.71673 0.0
C416 C 0.39147 0.90364 0.69862 0.0
C417 C 0.34635 0.85101 0.75566 0.0
C418 C 0.36119 0.89819 0.70443 0.0
C419 C 0.30142 0.82981 0.82817 0.0
C420 C 0.31424 0.78378 0.86034 0.0
N421 N 0.33996 0.8728 0.73397 0.0
N422 N 0.33009 0.80377 0.8146 0.0
H423 H 0.49838 0.35555 0.18968 0.0
H424 H 0.45725 0.37084 0.82096 0.0
H425 H 0.49007 0.29205 0.02835 0.0
H426 H 0.49762 0.45007 0.96464 0.0
H427 H 0.46612 0.34062 0.89988 0.0
H428 H 0.49742 0.39062 0.11094 0.0
C429 C 0.49695 0.34924 0.13781 0.0
C430 C 0.4939 0.32061 0.1156 0.0
C431 C 0.4731 0.36464 0.91416 0.0
C432 C 0.49212 0.36024 0.02565 0.0
C433 C 0.46774 0.38185 0.86931 0.0
C434 C 0.47659 0.41305 0.88621 0.0
C435 C 0.48707 0.3785 0.97682 0.0
C436 C 0.4904 0.42608 0.94953 0.0
C437 C 0.49628 0.36922 0.09296 0.0
C438 C 0.49219 0.31371 0.04782 0.0
N439 N 0.49507 0.40867 0.99276 0.0
N440 N 0.49084 0.33314 0.0053 0.0
H441 H 0.22234 0.54473 0.00341 0.0
H442 H 0.09163 0.44412 0.71459 0.0
H443 H 0.16747 0.44409 0.97823 0.0
H444 H 0.12772 0.54231 0.76243 0.0
H445 H 0.13351 0.44725 0.78692 0.0
H446 H 0.20008 0.54696 0.89555 0.0
C447 C 0.20595 0.5232 0.97496 0.0
C448 C 0.19613 0.49424 1.0004 0.0
C449 C 0.13283 0.46835 0.78008 0.0
C450 C 0.17133 0.4965 0.87715 0.0
C451 C 0.10919 0.46663 0.73789 0.0
C452 C 0.1059 0.49283 0.73368 0.0
C453 C 0.15308 0.49642 0.81808 0.0
C454 C 0.12923 0.52143 0.76536 0.0
C455 C 0.19336 0.52444 0.91347 0.0
C456 C 0.1751 0.46698 0.96131 0.0
N457 N 0.1514 0.52233 0.80759 0.0
N458 N 0.16332 0.46879 0.90206 0.0
H459 H 0.68335 0.18943 0.05704 0.0
H460 H 0.60369 0.10626 0.70042 0.0
H461 H 0.72481 0.22973 0.87954 0.0
H462 H 0.5688 0.06822 0.88411 0.0
H463 H 0.64759 0.15232 0.76201 0.0
H464 H 0.64018 0.14597 0.9916 0.0
C465 C 0.68335 0.18926 0.00417 0.0
C466 C 0.70792 0.21336 0.97395 0.0
C467 C 0.63025 0.13379 0.78854 0.0
C468 C 0.65817 0.16306 0.8979 0.0
C469 C 0.60523 0.10747 0.75343 0.0
C470 C 0.58238 0.08317 0.78689 0.0
C471 C 0.63232 0.13581 0.8575 0.0
C472 C 0.58564 0.08618 0.85574 0.0
C473 C 0.6586 0.16429 0.96663 0.0
C474 C 0.70638 0.2117 0.90502 0.0
N475 N 0.60996 0.11186 0.88839 0.0
N476 N 0.68199 0.18692 0.86928 0.0
H477 H 0.48681 0.66857 0.96138 0.0
H478 H 0.59294 0.63001 0.74106 0.0
H479 H 0.57334 0.73892 0.89104 0.0
H480 H 0.50587 0.55982 0.80988 0.0
H481 H 0.59004 0.66983 0.80914 0.0
H482 H 0.49593 0.6282 0.9147 0.0
C483 C 0.50759 0.67553 0.93555 0.0
C484 C 0.52925 0.70716 0.92961 0.0
C485 C 0.5718 0.64564 0.81002 0.0
C486 C 0.54006 0.66106 0.87702 0.0
C487 C 0.57354 0.62282 0.77151 0.0
C488 C 0.54919 0.59159 0.76842 0.0
C489 C 0.5455 0.63712 0.84542 0.0
C490 C 0.52489 0.58366 0.8097 0.0
C491 C 0.51294 0.65246 0.90948 0.0
C492 C 0.55593 0.71481 0.89635 0.0
N493 N 0.52339 0.60638 0.84564 0.0
N494 N 0.56057 0.69188 0.87116 0.0
H495 H 0.46868 0.19647 0.37893 0.0
H496 H 0.52578 0.0783 0.46667 0.0
H497 H 0.52799 0.17989 0.25583 0.0
H498 H 0.44178 0.07225 0.53209 0.0
H499 H 0.53307 0.12064 0.39986 0.0
H500 H 0.46654 0.15761 0.44981 0.0
C501 C 0.48169 0.18505 0.36728 0.0
C502 C 0.49824 0.19119 0.31077 0.0
C503 C 0.51299 0.10984 0.42863 0.0
C504 C 0.4956 0.14644 0.39168 0.0
C505 C 0.50869 0.08557 0.46659 0.0
C506 C 0.48301 0.07149 0.50497 0.0
C507 C 0.49175 0.12043 0.42998 0.0
C508 C 0.46182 0.08218 0.50312 0.0
C509 C 0.48021 0.16266 0.40754 0.0
C510 C 0.51476 0.17572 0.29859 0.0
N511 N 0.46679 0.10614 0.46669 0.0
N512 N 0.51286 0.15385 0.33853 0.0
H513 H 0.27252 0.46079 0.39498 0.0
H514 H 0.45449 0.55043 0.49003 0.0
H515 H 0.33961 0.54346 0.30716 0.0
H516 H 0.38901 0.46418 0.56822 0.0
H517 H 0.41133 0.55485 0.44295 0.0
H518 H 0.31302 0.46809 0.4764 0.0
C519 C 0.29575 0.48076 0.39326 0.0
C520 C 0.30287 0.50124 0.34331 0.0
C521 C 0.40625 0.53525 0.47146 0.0
C522 C 0.34943 0.50961 0.43662 0.0
C523 C 0.43086 0.53283 0.49865 0.0
C524 C 0.42508 0.50686 0.53266 0.0
C525 C 0.37556 0.51117 0.47722 0.0
C526 C 0.39426 0.48459 0.54243 0.0
C527 C 0.31885 0.4849 0.43997 0.0
C528 C 0.33318 0.52695 0.34435 0.0
N529 N 0.37051 0.48695 0.5137 0.0
N530 N 0.35549 0.53014 0.38969 0.0
H531 H 0.85964 0.39164 0.16426 0.0
H532 H 0.92743 0.39603 0.51652 0.0
H533 H 0.8023 0.33071 0.30681 0.0
H534 H 0.95488 0.48397 0.43499 0.0
H535 H 0.88602 0.3695 0.42902 0.0
H536 H 0.89845 0.4252 0.25363 0.0
C537 C 0.85484 0.38569 0.2143 0.0
C538 C 0.82773 0.35814 0.22788 0.0
C539 C 0.90115 0.39462 0.43033 0.0
C540 C 0.87234 0.39575 0.32935 0.0
C541 C 0.92503 0.40977 0.47979 0.0
C542 C 0.9448 0.44231 0.48306 0.0
C543 C 0.89732 0.41192 0.38266 0.0
C544 C 0.94021 0.45887 0.43436 0.0
C545 C 0.87703 0.40478 0.26507 0.0
C546 C 0.82282 0.35158 0.29372 0.0
N547 N 0.91708 0.44344 0.38557 0.0
N548 N 0.84521 0.36984 0.34175 0.0
H549 H 0.60005 0.86045 0.24469 0.0
H550 H 0.53832 0.97817 0.31626 0.0
H551 H 0.50898 0.84337 0.17955 0.0
H552 H 0.6151 0.98198 0.43 0.0
H553 H 0.53615 0.93705 0.24246 0.0
H554 H 0.61296 0.91195 0.2935 0.0
C555 C 0.5828 0.86751 0.24078 0.0
C556 C 0.55325 0.84746 0.20905 0.0
C557 C 0.55382 0.94732 0.28295 0.0
C558 C 0.56808 0.90629 0.26295 0.0
C559 C 0.5553 0.97101 0.32473 0.0
C560 C 0.57643 0.98294 0.38027 0.0
C561 C 0.57368 0.93568 0.29682 0.0
C562 C 0.59797 0.97289 0.38852 0.0
C563 C 0.59024 0.89689 0.2682 0.0
C564 C 0.53186 0.85785 0.20459 0.0
N565 N 0.59572 0.9494 0.34784 0.0
N566 N 0.5397 0.88654 0.23134 0.0
H567 H 0.65947 0.46192 0.18866 0.0
H568 H 0.64763 0.54712 0.51577 0.0
H569 H 0.73993 0.53457 0.30531 0.0
H570 H 0.56962 0.46429 0.41625 0.0
H571 H 0.68259 0.53976 0.44625 0.0
H572 H 0.62687 0.45931 0.27701 0.0
C573 C 0.67039 0.477 0.23314 0.0
C574 C 0.7025 0.49872 0.23901 0.0
C575 C 0.65786 0.52292 0.44037 0.0
C576 C 0.66516 0.49617 0.34036 0.0
C577 C 0.63787 0.52703 0.48039 0.0
C578 C 0.6055 0.50659 0.47142 0.0
C579 C 0.64541 0.49834 0.39069 0.0
C580 C 0.59432 0.48096 0.42454 0.0
C581 C 0.65173 0.47554 0.28367 0.0
C582 C 0.71526 0.51762 0.29812 0.0
N583 N 0.61413 0.47786 0.38542 0.0
N584 N 0.69654 0.5162 0.34597 0.0
H585 H 0.15229 0.68447 0.12995 0.0
H586 H 0.08188 0.66959 0.47848 0.0
H587 H 0.1807 0.76237 0.27287 0.0
H588 H 0.05191 0.59134 0.33553 0.0
H589 H 0.11402 0.70465 0.39872 0.0
H590 H 0.11098 0.65107 0.19853 0.0
C591 C 0.14955 0.69471 0.17521 0.0
C592 C 0.17028 0.72624 0.19603 0.0
C593 C 0.10025 0.67984 0.38455 0.0
C594 C 0.12321 0.68798 0.27516 0.0
C595 C 0.08188 0.65973 0.43021 0.0
C596 C 0.06434 0.62734 0.4141 0.0
C597 C 0.10133 0.66756 0.32222 0.0
C598 C 0.06515 0.61609 0.35041 0.0
C599 C 0.12601 0.67556 0.2145 0.0
C600 C 0.16549 0.73817 0.25506 0.0
N601 N 0.08356 0.63614 0.30705 0.0
N602 N 0.14271 0.71896 0.29284 0.0
loop_
_geom_bond_atom_site_label_1
_geom_bond_atom_site_label_2
_geom_bond_distance
_geom_bond_site_symmetry_2
_ccdc_geom_bond_type
Mg0 O7 2.141 . S
Mg0 O8 2.048 . S
Mg0 O9 2.048 . S
Mg0 O12 2.141 . S
C1 O2 1.313 . S
C1 O8 1.195 . S
O2 C1 1.313 . S
C3 O4 1.245 . S
C3 O12 1.289 . S
O4 C3 1.245 . S
C5 O6 1.245 . S
C5 O7 1.289 . S
O6 C5 1.245 . S
O7 Mg0 2.141 . S
O7 C5 1.289 . S
O8 Mg0 2.048 . S
O8 C1 1.195 . S
O9 Mg0 2.048 . S
O9 C10 1.195 . S
C10 O9 1.195 . S
C10 O11 1.313 . S
O11 C10 1.313 . S
O12 Mg0 2.141 . S
O12 C3 1.289 . S
Mg13 O20 2.141 . S
Mg13 O21 2.048 . S
Mg13 O22 2.048 . S
Mg13 O25 2.141 . S
C14 O15 1.313 . S
C14 O21 1.195 . S
O15 C14 1.313 . S
C16 O17 1.245 . S
C16 O25 1.289 . S
O17 C16 1.245 . S
C18 O19 1.245 . S
C18 O20 1.289 . S
O19 C18 1.245 . S
O20 Mg13 2.141 . S
O20 C18 1.289 . S
O21 Mg13 2.048 . S
O21 C14 1.195 . S
O22 Mg13 2.048 . S
O22 C23 1.195 . S
C23 O22 1.195 . S
C23 O24 1.313 . S
O24 C23 1.313 . S
O25 Mg13 2.141 . S
O25 C16 1.289 . S
Mg26 O33 2.141 1_554 S
Mg26 O34 2.048 . S
Mg26 O35 2.048 . S
Mg26 O38 2.141 1_554 S
C27 O28 1.313 . S
C27 O34 1.195 . S
O28 C27 1.313 . S
C29 O30 1.245 . S
C29 O38 1.289 . S
O30 C29 1.245 . S
C31 O32 1.245 . S
C31 O33 1.289 . S
O32 C31 1.245 . S
O33 Mg26 2.141 1_556 S
O33 C31 1.289 . S
O34 Mg26 2.048 . S
O34 C27 1.195 . S
O35 Mg26 2.048 . S
O35 C36 1.195 . S
C36 O35 1.195 . S
C36 O37 1.313 . S
O37 C36 1.313 . S
O38 Mg26 2.141 1_556 S
O38 C29 1.289 . S
Mg39 O46 2.141 . S
Mg39 O47 2.048 . S
Mg39 O48 2.048 . S
Mg39 O51 2.141 . S
C40 O41 1.313 . S
C40 O47 1.195 1_556 S
O41 C40 1.313 . S
C42 O43 1.245 . S
C42 O51 1.289 . S
O43 C42 1.245 . S
C44 O45 1.245 . S
C44 O46 1.289 . S
O45 C44 1.245 . S
O46 Mg39 2.141 . S
O46 C44 1.289 . S
O47 Mg39 2.048 . S
O47 C40 1.195 1_554 S
O48 Mg39 2.048 . S
O48 C49 1.195 1_554 S
C49 O48 1.195 1_556 S
C49 O50 1.313 . S
O50 C49 1.313 . S
O51 Mg39 2.141 . S
O51 C42 1.289 . S
Mg52 O59 2.141 . S
Mg52 O60 2.048 . S
Mg52 O61 2.048 . S
Mg52 O64 2.141 . S
C53 O54 1.313 1_554 S
C53 O60 1.195 . S
O54 C53 1.313 1_556 S
C55 O56 1.245 . S
C55 O64 1.289 . S
O56 C55 1.245 . S
C57 O58 1.245 . S
C57 O59 1.289 . S
O58 C57 1.245 . S
O59 Mg52 2.141 . S
O59 C57 1.289 . S
O60 Mg52 2.048 . S
O60 C53 1.195 . S
O61 Mg52 2.048 . S
O61 C62 1.195 . S
C62 O61 1.195 . S
C62 O63 1.313 . S
O63 C62 1.313 . S
O64 Mg52 2.141 . S
O64 C55 1.289 . S
Mg65 O72 2.141 . S
Mg65 O73 2.048 . S
Mg65 O74 2.048 . S
Mg65 O77 2.141 . S
C66 O67 1.313 . S
C66 O73 1.195 . S
O67 C66 1.313 . S
C68 O69 1.245 . S
C68 O77 1.289 . S
O69 C68 1.245 . S
C70 O71 1.245 . S
C70 O72 1.289 . S
O71 C70 1.245 . S
O72 Mg65 2.141 . S
O72 C70 1.289 . S
O73 Mg65 2.048 . S
O73 C66 1.195 . S
O74 Mg65 2.048 . S
O74 C75 1.195 . S
C75 O74 1.195 . S
C75 O76 1.313 . S
O76 C75 1.313 . S
O77 Mg65 2.141 . S
O77 C68 1.289 . S
C78 O90 1.241 . S
C78 O91 1.280 . S
C79 O92 1.277 . S
C79 O93 1.245 . S
C80 O104 1.247 . S
C80 O106 1.289 . S
Mg81 O82 1.926 . S
Mg81 O91 1.984 . S
Mg81 O93 1.988 1_655 S
Mg81 O94 2.061 . S
O82 Mg81 1.926 . S
O82 Mg83 1.986 1_655 S
O82 Mg84 1.917 1_655 S
Mg83 O82 1.986 1_455 S
Mg83 O90 2.042 1_455 S
Mg83 O92 2.041 . S
Mg83 O98 2.038 1_455 S
Mg83 O106 2.238 . S
Mg84 O82 1.917 1_455 S
Mg84 O85 1.917 . S
Mg84 O95 2.106 1_455 S
Mg84 O97 2.079 1_455 S
Mg84 O106 2.106 . S
Mg84 O107 2.079 . S
O85 Mg84 1.917 . S
O85 Mg86 1.926 . S
O85 Mg87 1.986 . S
Mg86 O85 1.926 . S
Mg86 O100 1.984 . S
Mg86 O103 1.988 1_455 S
Mg86 O104 2.061 . S
Mg87 O85 1.986 . S
Mg87 O95 2.238 1_455 S
Mg87 O99 2.042 . S
Mg87 O101 2.041 1_455 S
Mg87 O108 2.038 . S
C88 O94 1.247 . S
C88 O95 1.289 . S
C89 O107 1.245 . S
C89 O108 1.274 . S
O90 C78 1.241 . S
O90 Mg83 2.042 1_655 S
O91 C78 1.280 . S
O91 Mg81 1.984 . S
O92 C79 1.277 . S
O92 Mg83 2.041 . S
O93 C79 1.245 . S
O93 Mg81 1.988 1_455 S
O94 Mg81 2.061 . S
O94 C88 1.247 . S
O95 Mg84 2.106 1_655 S
O95 Mg87 2.238 1_655 S
O95 C88 1.289 . S
C96 O97 1.245 . S
C96 O98 1.274 . S
O97 Mg84 2.079 1_655 S
O97 C96 1.245 . S
O98 Mg83 2.038 1_655 S
O98 C96 1.274 . S
O99 Mg87 2.042 . S
O99 C102 1.241 . S
O100 Mg86 1.984 . S
O100 C102 1.280 . S
O101 Mg87 2.041 1_655 S
O101 C105 1.277 . S
C102 O99 1.241 . S
C102 O100 1.280 . S
O103 Mg86 1.988 1_655 S
O103 C105 1.245 . S
O104 C80 1.247 . S
O104 Mg86 2.061 . S
C105 O101 1.277 . S
C105 O103 1.245 . S
O106 C80 1.289 . S
O106 Mg83 2.238 . S
O106 Mg84 2.106 . S
O107 Mg84 2.079 . S
O107 C89 1.245 . S
O108 Mg87 2.038 . S
O108 C89 1.274 . S
C109 O121 1.241 . S
C109 O122 1.280 . S
C110 O123 1.277 . S
C110 O124 1.245 . S
C111 O135 1.247 . S
C111 O137 1.289 . S
Mg112 O113 1.926 . S
Mg112 O122 1.984 . S
Mg112 O124 1.988 1_545 S
Mg112 O125 2.061 . S
O113 Mg112 1.926 . S
O113 Mg114 1.986 . S
O113 Mg115 1.917 . S
Mg114 O113 1.986 . S
Mg114 O121 2.042 . S
Mg114 O123 2.041 1_545 S
Mg114 O129 2.038 . S
Mg114 O137 2.238 1_545 S
Mg115 O113 1.917 . S
Mg115 O116 1.915 1_545 S
Mg115 O126 2.106 . S
Mg115 O128 2.079 . S
Mg115 O137 2.106 1_545 S
Mg115 O138 2.079 1_545 S
O116 Mg115 1.915 1_565 S
O116 Mg117 1.928 . S
O116 Mg118 1.985 1_565 S
Mg117 O116 1.928 . S
Mg117 O131 1.984 . S
Mg117 O134 1.988 1_565 S
Mg117 O135 2.061 . S
Mg118 O116 1.985 1_545 S
Mg118 O126 2.238 . S
Mg118 O130 2.042 1_545 S
Mg118 O132 2.041 . S
Mg118 O139 2.038 1_545 S
C119 O125 1.247 . S
C119 O126 1.289 . S
C120 O138 1.245 . S
C120 O139 1.274 . S
O121 C109 1.241 . S
O121 Mg114 2.042 . S
O122 C109 1.280 . S
O122 Mg112 1.984 . S
O123 C110 1.277 . S
O123 Mg114 2.041 1_565 S
O124 C110 1.245 . S
O124 Mg112 1.988 1_565 S
O125 Mg112 2.061 . S
O125 C119 1.247 . S
O126 Mg115 2.106 . S
O126 Mg118 2.238 . S
O126 C119 1.289 . S
C127 O128 1.245 . S
C127 O129 1.274 . S
O128 Mg115 2.079 . S
O128 C127 1.245 . S
O129 Mg114 2.038 . S
O129 C127 1.274 . S
O130 Mg118 2.042 1_565 S
O130 C133 1.241 . S
O131 Mg117 1.984 . S
O131 C133 1.280 . S
O132 Mg118 2.041 . S
O132 C136 1.277 . S
C133 O130 1.241 . S
C133 O131 1.280 . S
O134 Mg117 1.988 1_545 S
O134 C136 1.245 . S
O135 C111 1.247 . S
O135 Mg117 2.061 . S
C136 O132 1.277 . S
C136 O134 1.245 . S
O137 C111 1.289 . S
O137 Mg114 2.238 1_565 S
O137 Mg115 2.106 1_565 S
O138 Mg115 2.079 1_565 S
O138 C120 1.245 . S
O139 Mg118 2.038 1_565 S
O139 C120 1.274 . S
C140 O152 1.241 . S
C140 O153 1.280 . S
C141 O154 1.277 . S
C141 O155 1.245 . S
C142 O166 1.247 . S
C142 O168 1.289 . S
Mg143 O144 1.926 . S
Mg143 O153 1.984 . S
Mg143 O155 1.988 . S
Mg143 O156 2.061 . S
O144 Mg143 1.926 . S
O144 Mg145 1.986 . S
O144 Mg146 1.917 . S
Mg145 O144 1.986 . S
Mg145 O152 2.042 . S
Mg145 O154 2.041 . S
Mg145 O160 2.038 . S
Mg145 O168 2.238 . S
Mg146 O144 1.917 . S
Mg146 O147 1.917 . S
Mg146 O157 2.106 . S
Mg146 O159 2.079 . S
Mg146 O168 2.106 . S
Mg146 O169 2.079 . S
O147 Mg146 1.917 . S
O147 Mg148 1.926 . S
O147 Mg149 1.986 . S
Mg148 O147 1.926 . S
Mg148 O162 1.984 . S
Mg148 O165 1.988 . S
Mg148 O166 2.061 . S
Mg149 O147 1.986 . S
Mg149 O157 2.238 . S
Mg149 O161 2.042 . S
Mg149 O163 2.041 . S
Mg149 O170 2.038 . S
C150 O156 1.247 . S
C150 O157 1.289 . S
C151 O169 1.245 . S
C151 O170 1.274 . S
O152 C140 1.241 . S
O152 Mg145 2.042 . S
O153 C140 1.280 . S
O153 Mg143 1.984 . S
O154 C141 1.277 . S
O154 Mg145 2.041 . S
O155 C141 1.245 . S
O155 Mg143 1.988 . S
O156 Mg143 2.061 . S
O156 C150 1.247 . S
O157 Mg146 2.106 . S
O157 Mg149 2.238 . S
O157 C150 1.289 . S
C158 O159 1.245 . S
C158 O160 1.274 . S
O159 Mg146 2.079 . S
O159 C158 1.245 . S
O160 Mg145 2.038 . S
O160 C158 1.274 . S
O161 Mg149 2.042 . S
O161 C164 1.241 . S
O162 Mg148 1.984 . S
O162 C164 1.280 . S
O163 Mg149 2.041 . S
O163 C167 1.277 . S
C164 O161 1.241 . S
C164 O162 1.280 . S
O165 Mg148 1.988 . S
O165 C167 1.245 . S
O166 C142 1.247 . S
O166 Mg148 2.061 . S
C167 O163 1.277 . S
C167 O165 1.245 . S
O168 C142 1.289 . S
O168 Mg145 2.238 . S
O168 Mg146 2.106 . S
O169 Mg146 2.079 . S
O169 C151 1.245 . S
O170 Mg149 2.038 . S
O170 C151 1.274 . S
H171 C177 0.930 . S
H172 C181 0.930 . S
H173 C186 0.929 . S
H174 C184 0.929 . S
H175 C179 0.929 . S
H176 C185 0.929 . S
C177 H171 0.930 . S
C177 C178 1.367 . S
C177 C185 1.378 . S
C178 C177 1.367 . S
C178 C186 1.433 . S
C179 H175 0.929 . S
C179 C181 1.378 . S
C179 C183 1.350 . S
C180 C183 1.463 . S
C180 C185 1.350 . S
C180 N188 1.427 . S
C181 H172 0.930 . S
C181 C179 1.378 . S
C181 C182 1.367 . S
C182 C181 1.367 . S
C182 C184 1.433 . S
C183 C179 1.350 . S
C183 C180 1.463 . S
C183 N187 1.427 . S
C184 H174 0.929 . S
C184 C182 1.433 . S
C184 N187 1.384 . S
C185 H176 0.929 . S
C185 C177 1.378 . S
C185 C180 1.350 . S
C186 H173 0.929 . S
C186 C178 1.433 . S
C186 N188 1.384 . S
N187 C183 1.427 . S
N187 C184 1.384 . S
N188 C180 1.427 . S
N188 C186 1.384 . S
H189 C195 0.930 . S
H190 C199 0.930 . S
H191 C204 0.929 . S
H192 C202 0.929 . S
H193 C197 0.929 . S
H194 C203 0.929 . S
C195 H189 0.930 . S
C195 C196 1.367 . S
C195 C203 1.378 . S
C196 C195 1.367 . S
C196 C204 1.433 . S
C197 H193 0.929 . S
C197 C199 1.378 . S
C197 C201 1.350 . S
C198 C201 1.463 . S
C198 C203 1.350 . S
C198 N206 1.427 . S
C199 H190 0.930 . S
C199 C197 1.378 . S
C199 C200 1.367 . S
C200 C199 1.367 . S
C200 C202 1.433 . S
C201 C197 1.350 . S
C201 C198 1.463 . S
C201 N205 1.427 . S
C202 H192 0.929 . S
C202 C200 1.433 . S
C202 N205 1.384 . S
C203 H194 0.929 . S
C203 C195 1.378 . S
C203 C198 1.350 . S
C204 H191 0.929 . S
C204 C196 1.433 . S
C204 N206 1.384 . S
N205 C201 1.427 . S
N205 C202 1.384 . S
N206 C198 1.427 . S
N206 C204 1.384 . S
H207 C213 0.930 . S
H208 C217 0.930 . S
H209 C222 0.929 . S
H210 C220 0.929 . S
H211 C215 0.929 . S
H212 C221 0.929 . S
C213 H207 0.930 . S
C213 C214 1.367 . S
C213 C221 1.378 . S
C214 C213 1.367 . S
C214 C222 1.433 . S
C215 H211 0.929 . S
C215 C217 1.378 . S
C215 C219 1.350 . S
C216 C219 1.463 . S
C216 C221 1.350 . S
C216 N224 1.427 . S
C217 H208 0.930 . S
C217 C215 1.378 . S
C217 C218 1.367 . S
C218 C217 1.367 . S
C218 C220 1.433 . S
C219 C215 1.350 . S
C219 C216 1.463 . S
C219 N223 1.427 . S
C220 H210 0.929 . S
C220 C218 1.433 . S
C220 N223 1.384 . S
C221 H212 0.929 . S
C221 C213 1.378 . S
C221 C216 1.350 . S
C222 H209 0.929 . S
C222 C214 1.433 . S
C222 N224 1.384 . S
N223 C219 1.427 . S
N223 C220 1.384 . S
N224 C216 1.427 . S
N224 C222 1.384 . S
H225 C231 0.930 . S
H226 C235 0.930 . S
H227 C240 0.929 . S
H228 C238 0.929 . S
H229 C233 0.929 . S
H230 C239 0.929 . S
C231 H225 0.930 . S
C231 C232 1.367 . S
C231 C239 1.378 . S
C232 C231 1.367 . S
C232 C240 1.433 . S
C233 H229 0.929 . S
C233 C235 1.378 . S
C233 C237 1.350 . S
C234 C237 1.463 . S
C234 C239 1.350 . S
C234 N242 1.427 . S
C235 H226 0.930 . S
C235 C233 1.378 . S
C235 C236 1.367 . S
C236 C235 1.367 . S
C236 C238 1.433 . S
C237 C233 1.350 . S
C237 C234 1.463 . S
C237 N241 1.427 . S
C238 H228 0.929 . S
C238 C236 1.433 . S
C238 N241 1.384 . S
C239 H230 0.929 . S
C239 C231 1.378 . S
C239 C234 1.350 . S
C240 H227 0.929 . S
C240 C232 1.433 . S
C240 N242 1.384 . S
N241 C237 1.427 . S
N241 C238 1.384 . S
N242 C234 1.427 . S
N242 C240 1.384 . S
H243 C249 0.930 . S
H244 C253 0.930 . S
H245 C258 0.929 . S
H246 C256 0.929 . S
H247 C251 0.929 . S
H248 C257 0.929 . S
C249 H243 0.930 . S
C249 C250 1.367 . S
C249 C257 1.378 . S
C250 C249 1.367 . S
C250 C258 1.433 . S
C251 H247 0.929 . S
C251 C253 1.378 . S
C251 C255 1.350 . S
C252 C255 1.463 . S
C252 C257 1.350 . S
C252 N260 1.427 . S
C253 H244 0.930 . S
C253 C251 1.378 . S
C253 C254 1.367 . S
C254 C253 1.367 . S
C254 C256 1.433 . S
C255 C251 1.350 . S
C255 C252 1.463 . S
C255 N259 1.427 . S
C256 H246 0.929 . S
C256 C254 1.433 . S
C256 N259 1.384 . S
C257 H248 0.929 . S
C257 C249 1.378 . S
C257 C252 1.350 . S
C258 H245 0.929 . S
C258 C250 1.433 . S
C258 N260 1.384 . S
N259 C255 1.427 . S
N259 C256 1.384 . S
N260 C252 1.427 . S
N260 C258 1.384 . S
H261 C267 0.930 . S
H262 C271 0.930 . S
H263 C276 0.929 . S
H264 C274 0.929 . S
H265 C269 0.929 . S
H266 C275 0.929 . S
C267 H261 0.930 . S
C267 C268 1.367 . S
C267 C275 1.378 . S
C268 C267 1.367 . S
C268 C276 1.433 . S
C269 H265 0.929 . S
C269 C271 1.378 . S
C269 C273 1.350 . S
C270 C273 1.463 . S
C270 C275 1.350 . S
C270 N278 1.427 . S
C271 H262 0.930 . S
C271 C269 1.378 . S
C271 C272 1.367 . S
C272 C271 1.367 . S
C272 C274 1.433 . S
C273 C269 1.350 . S
C273 C270 1.463 . S
C273 N277 1.427 . S
C274 H264 0.929 . S
C274 C272 1.433 . S
C274 N277 1.384 . S
C275 H266 0.929 . S
C275 C267 1.378 . S
C275 C270 1.350 . S
C276 H263 0.929 . S
C276 C268 1.433 . S
C276 N278 1.384 . S
N277 C273 1.427 . S
N277 C274 1.384 . S
N278 C270 1.427 . S
N278 C276 1.384 . S
H279 C285 0.930 . S
H280 C289 0.930 . S
H281 C294 0.929 . S
H282 C292 0.929 . S
H283 C287 0.929 . S
H284 C293 0.929 . S
C285 H279 0.930 . S
C285 C286 1.367 . S
C285 C293 1.378 . S
C286 C285 1.367 . S
C286 C294 1.433 . S
C287 H283 0.929 . S
C287 C289 1.378 . S
C287 C291 1.350 . S
C288 C291 1.463 . S
C288 C293 1.350 . S
C288 N296 1.427 . S
C289 H280 0.930 . S
C289 C287 1.378 . S
C289 C290 1.367 . S
C290 C289 1.367 . S
C290 C292 1.433 . S
C291 C287 1.350 . S
C291 C288 1.463 . S
C291 N295 1.427 . S
C292 H282 0.929 . S
C292 C290 1.433 . S
C292 N295 1.384 . S
C293 H284 0.929 . S
C293 C285 1.378 . S
C293 C288 1.350 . S
C294 H281 0.929 . S
C294 C286 1.433 . S
C294 N296 1.384 . S
N295 C291 1.427 . S
N295 C292 1.384 . S
N296 C288 1.427 . S
N296 C294 1.384 . S
H297 C303 0.930 . S
H298 C307 0.930 . S
H299 C312 0.929 1_554 S
H300 C310 0.929 . S
H301 C305 0.929 . S
H302 C311 0.929 . S
C303 H297 0.930 . S
C303 C304 1.367 . S
C303 C311 1.378 . S
C304 C303 1.367 . S
C304 C312 1.433 . S
C305 H301 0.929 . S
C305 C307 1.378 . S
C305 C309 1.350 . S
C306 C309 1.463 . S
C306 C311 1.350 . S
C306 N314 1.427 . S
C307 H298 0.930 . S
C307 C305 1.378 . S
C307 C308 1.367 . S
C308 C307 1.367 . S
C308 C310 1.433 . S
C309 C305 1.350 . S
C309 C306 1.463 . S
C309 N313 1.427 . S
C310 H300 0.929 . S
C310 C308 1.433 . S
C310 N313 1.384 . S
C311 H302 0.929 . S
C311 C303 1.378 . S
C311 C306 1.350 . S
C312 H299 0.929 1_556 S
C312 C304 1.433 . S
C312 N314 1.384 . S
N313 C309 1.427 . S
N313 C310 1.384 . S
N314 C306 1.427 . S
N314 C312 1.384 . S
H315 C321 0.930 . S
H316 C325 0.930 . S
H317 C330 0.929 . S
H318 C328 0.929 . S
H319 C323 0.929 . S
H320 C329 0.929 . S
C321 H315 0.930 . S
C321 C322 1.367 . S
C321 C329 1.378 . S
C322 C321 1.367 . S
C322 C330 1.433 . S
C323 H319 0.929 . S
C323 C325 1.378 . S
C323 C327 1.350 . S
C324 C327 1.463 . S
C324 C329 1.350 . S
C324 N332 1.427 . S
C325 H316 0.930 . S
C325 C323 1.378 . S
C325 C326 1.367 . S
C326 C325 1.367 . S
C326 C328 1.433 . S
C327 C323 1.350 . S
C327 C324 1.463 . S
C327 N331 1.427 . S
C328 H318 0.929 . S
C328 C326 1.433 . S
C328 N331 1.384 . S
C329 H320 0.929 . S
C329 C321 1.378 . S
C329 C324 1.350 . S
C330 H317 0.929 . S
C330 C322 1.433 . S
C330 N332 1.384 . S
N331 C327 1.427 . S
N331 C328 1.384 . S
N332 C324 1.427 . S
N332 C330 1.384 . S
H333 C339 0.930 . S
H334 C343 0.930 . S
H335 C348 0.929 . S
H336 C346 0.929 . S
H337 C341 0.929 . S
H338 C347 0.929 . S
C339 H333 0.930 . S
C339 C340 1.367 . S
C339 C347 1.378 1_554 S
C340 C339 1.367 . S
C340 C348 1.433 . S
C341 H337 0.929 . S
C341 C343 1.378 . S
C341 C345 1.350 . S
C342 C345 1.463 . S
C342 C347 1.350 . S
C342 N350 1.427 1_556 S
C343 H334 0.930 . S
C343 C341 1.378 . S
C343 C344 1.367 . S
C344 C343 1.367 . S
C344 C346 1.433 . S
C345 C341 1.350 . S
C345 C342 1.463 . S
C345 N349 1.427 . S
C346 H336 0.929 . S
C346 C344 1.433 . S
C346 N349 1.384 . S
C347 H338 0.929 . S
C347 C339 1.378 1_556 S
C347 C342 1.350 . S
C348 H335 0.929 . S
C348 C340 1.433 . S
C348 N350 1.384 . S
N349 C345 1.427 . S
N349 C346 1.384 . S
N350 C342 1.427 1_554 S
N350 C348 1.384 . S
H351 C357 0.930 . S
H352 C361 0.930 . S
H353 C366 0.929 . S
H354 C364 0.929 . S
H355 C359 0.929 . S
H356 C365 0.929 . S
C357 H351 0.930 . S
C357 C358 1.367 1_556 S
C357 C365 1.378 . S
C358 C357 1.367 1_554 S
C358 C366 1.433 . S
C359 H355 0.929 . S
C359 C361 1.378 . S
C359 C363 1.350 . S
C360 C363 1.463 . S
C360 C365 1.350 . S
C360 N368 1.427 . S
C361 H352 0.930 . S
C361 C359 1.378 . S
C361 C362 1.367 . S
C362 C361 1.367 . S
C362 C364 1.433 . S
C363 C359 1.350 . S
C363 C360 1.463 . S
C363 N367 1.427 . S
C364 H354 0.929 . S
C364 C362 1.433 . S
C364 N367 1.384 . S
C365 H356 0.929 . S
C365 C357 1.378 . S
C365 C360 1.350 . S
C366 H353 0.929 . S
C366 C358 1.433 . S
C366 N368 1.384 1_554 S
N367 C363 1.427 . S
N367 C364 1.384 . S
N368 C360 1.427 . S
N368 C366 1.384 1_556 S
H369 C375 0.930 . S
H370 C379 0.930 . S
H371 C384 0.929 . S
H372 C382 0.929 . S
H373 C377 0.929 . S
H374 C383 0.929 . S
C375 H369 0.930 . S
C375 C376 1.367 . S
C375 C383 1.378 . S
C376 C375 1.367 . S
C376 C384 1.433 1_554 S
C377 H373 0.929 . S
C377 C379 1.378 . S
C377 C381 1.350 . S
C378 C381 1.463 . S
C378 C383 1.350 1_556 S
C378 N386 1.427 . S
C379 H370 0.930 . S
C379 C377 1.378 . S
C379 C380 1.367 . S
C380 C379 1.367 . S
C380 C382 1.433 . S
C381 C377 1.350 . S
C381 C378 1.463 . S
C381 N385 1.427 . S
C382 H372 0.929 . S
C382 C380 1.433 . S
C382 N385 1.384 . S
C383 H374 0.929 . S
C383 C375 1.378 . S
C383 C378 1.350 1_554 S
C384 H371 0.929 . S
C384 C376 1.433 1_556 S
C384 N386 1.384 . S
N385 C381 1.427 . S
N385 C382 1.384 . S
N386 C378 1.427 . S
N386 C384 1.384 . S
H387 C393 0.930 . S
H388 C397 0.930 . S
H389 C402 0.929 . S
H390 C400 0.929 . S
H391 C395 0.929 . S
H392 C401 0.929 . S
C393 H387 0.930 . S
C393 C394 1.367 . S
C393 C401 1.378 . S
C394 C393 1.367 . S
C394 C402 1.433 . S
C395 H391 0.929 . S
C395 C397 1.378 . S
C395 C399 1.350 . S
C396 C399 1.463 . S
C396 C401 1.350 . S
C396 N404 1.427 . S
C397 H388 0.930 . S
C397 C395 1.378 . S
C397 C398 1.367 . S
C398 C397 1.367 . S
C398 C400 1.433 . S
C399 C395 1.350 . S
C399 C396 1.463 . S
C399 N403 1.427 . S
C400 H390 0.929 . S
C400 C398 1.433 . S
C400 N403 1.384 . S
C401 H392 0.929 . S
C401 C393 1.378 . S
C401 C396 1.350 . S
C402 H389 0.929 . S
C402 C394 1.433 . S
C402 N404 1.384 . S
N403 C399 1.427 . S
N403 C400 1.384 . S
N404 C396 1.427 . S
N404 C402 1.384 . S
H405 C411 0.930 . S
H406 C415 0.930 . S
H407 C420 0.929 . S
H408 C418 0.929 . S
H409 C413 0.929 . S
H410 C419 0.929 . S
C411 H405 0.930 . S
C411 C412 1.367 . S
C411 C419 1.378 . S
C412 C411 1.367 . S
C412 C420 1.433 . S
C413 H409 0.929 . S
C413 C415 1.378 . S
C413 C417 1.350 . S
C414 C417 1.463 . S
C414 C419 1.350 . S
C414 N422 1.427 . S
C415 H406 0.930 . S
C415 C413 1.378 . S
C415 C416 1.367 . S
C416 C415 1.367 . S
C416 C418 1.433 . S
C417 C413 1.350 . S
C417 C414 1.463 . S
C417 N421 1.427 . S
C418 H408 0.929 . S
C418 C416 1.433 . S
C418 N421 1.384 . S
C419 H410 0.929 . S
C419 C411 1.378 . S
C419 C414 1.350 . S
C420 H407 0.929 . S
C420 C412 1.433 . S
C420 N422 1.384 . S
N421 C417 1.427 . S
N421 C418 1.384 . S
N422 C414 1.427 . S
N422 C420 1.384 . S
H423 C429 0.930 . S
H424 C433 0.930 . S
H425 C438 0.929 . S
H426 C436 0.929 . S
H427 C431 0.929 . S
H428 C437 0.929 . S
C429 H423 0.930 . S
C429 C430 1.367 . S
C429 C437 1.378 . S
C430 C429 1.367 . S
C430 C438 1.433 . S
C431 H427 0.929 . S
C431 C433 1.378 . S
C431 C435 1.350 . S
C432 C435 1.463 . S
C432 C437 1.350 1_556 S
C432 N440 1.427 . S
C433 H424 0.930 . S
C433 C431 1.378 . S
C433 C434 1.367 . S
C434 C433 1.367 . S
C434 C436 1.433 . S
C435 C431 1.350 . S
C435 C432 1.463 . S
C435 N439 1.427 . S
C436 H426 0.929 . S
C436 C434 1.433 . S
C436 N439 1.384 . S
C437 H428 0.929 . S
C437 C429 1.378 . S
C437 C432 1.350 1_554 S
C438 H425 0.929 . S
C438 C430 1.433 . S
C438 N440 1.384 1_554 S
N439 C435 1.427 . S
N439 C436 1.384 . S
N440 C432 1.427 . S
N440 C438 1.384 1_556 S
H441 C447 0.930 . S
H442 C451 0.930 . S
H443 C456 0.929 . S
H444 C454 0.929 . S
H445 C449 0.929 . S
H446 C455 0.929 . S
C447 H441 0.930 . S
C447 C448 1.367 1_556 S
C447 C455 1.378 . S
C448 C447 1.367 1_554 S
C448 C456 1.433 . S
C449 H445 0.929 . S
C449 C451 1.378 . S
C449 C453 1.350 . S
C450 C453 1.463 . S
C450 C455 1.350 . S
C450 N458 1.427 . S
C451 H442 0.930 . S
C451 C449 1.378 . S
C451 C452 1.367 . S
C452 C451 1.367 . S
C452 C454 1.433 . S
C453 C449 1.350 . S
C453 C450 1.463 . S
C453 N457 1.427 . S
C454 H444 0.929 . S
C454 C452 1.433 . S
C454 N457 1.384 . S
C455 H446 0.929 . S
C455 C447 1.378 . S
C455 C450 1.350 . S
C456 H443 0.929 . S
C456 C448 1.433 . S
C456 N458 1.384 1_554 S
N457 C453 1.427 . S
N457 C454 1.384 . S
N458 C450 1.427 . S
N458 C456 1.384 1_556 S
H459 C465 0.933 . S
H460 C469 0.930 . S
H461 C474 0.929 . S
H462 C472 0.929 . S
H463 C467 0.929 . S
H464 C473 0.929 . S
C465 H459 0.933 . S
C465 C466 1.366 1_554 S
C465 C473 1.376 1_554 S
C466 C465 1.366 1_556 S
C466 C474 1.433 . S
C467 H463 0.929 . S
C467 C469 1.378 . S
C467 C471 1.350 . S
C468 C471 1.463 . S
C468 C473 1.350 . S
C468 N476 1.427 . S
C469 H460 0.930 . S
C469 C467 1.378 . S
C469 C470 1.367 . S
C470 C469 1.367 . S
C470 C472 1.433 . S
C471 C467 1.350 . S
C471 C468 1.463 . S
C471 N475 1.427 . S
C472 H462 0.929 . S
C472 C470 1.433 . S
C472 N475 1.384 . S
C473 H464 0.929 . S
C473 C465 1.376 1_556 S
C473 C468 1.350 . S
C474 H461 0.929 . S
C474 C466 1.433 . S
C474 N476 1.384 . S
N475 C471 1.427 . S
N475 C472 1.384 . S
N476 C468 1.427 . S
N476 C474 1.384 . S
H477 C483 0.930 . S
H478 C487 0.930 . S
H479 C492 0.929 . S
H480 C490 0.929 . S
H481 C485 0.929 . S
H482 C491 0.929 . S
C483 H477 0.930 . S
C483 C484 1.367 . S
C483 C491 1.378 . S
C484 C483 1.367 . S
C484 C492 1.433 . S
C485 H481 0.929 . S
C485 C487 1.378 . S
C485 C489 1.350 . S
C486 C489 1.463 . S
C486 C491 1.350 . S
C486 N494 1.427 . S
C487 H478 0.930 . S
C487 C485 1.378 . S
C487 C488 1.367 . S
C488 C487 1.367 . S
C488 C490 1.433 . S
C489 C485 1.350 . S
C489 C486 1.463 . S
C489 N493 1.427 . S
C490 H480 0.929 . S
C490 C488 1.433 . S
C490 N493 1.384 . S
C491 H482 0.929 . S
C491 C483 1.378 . S
C491 C486 1.350 . S
C492 H479 0.929 . S
C492 C484 1.433 . S
C492 N494 1.384 . S
N493 C489 1.427 . S
N493 C490 1.384 . S
N494 C486 1.427 . S
N494 C492 1.384 . S
H495 C501 0.930 . S
H496 C505 0.930 . S
H497 C510 0.929 . S
H498 C508 0.929 . S
H499 C503 0.929 . S
H500 C509 0.929 . S
C501 H495 0.930 . S
C501 C502 1.367 . S
C501 C509 1.378 . S
C502 C501 1.367 . S
C502 C510 1.433 . S
C503 H499 0.929 . S
C503 C505 1.378 . S
C503 C507 1.350 . S
C504 C507 1.463 . S
C504 C509 1.350 . S
C504 N512 1.427 . S
C505 H496 0.930 . S
C505 C503 1.378 . S
C505 C506 1.367 . S
C506 C505 1.367 . S
C506 C508 1.433 . S
C507 C503 1.350 . S
C507 C504 1.463 . S
C507 N511 1.427 . S
C508 H498 0.929 . S
C508 C506 1.433 . S
C508 N511 1.384 . S
C509 H500 0.929 . S
C509 C501 1.378 . S
C509 C504 1.350 . S
C510 H497 0.929 . S
C510 C502 1.433 . S
C510 N512 1.384 . S
N511 C507 1.427 . S
N511 C508 1.384 . S
N512 C504 1.427 . S
N512 C510 1.384 . S
H513 C519 0.930 . S
H514 C523 0.930 . S
H515 C528 0.929 . S
H516 C526 0.929 . S
H517 C521 0.929 . S
H518 C527 0.929 . S
C519 H513 0.930 . S
C519 C520 1.367 . S
C519 C527 1.378 . S
C520 C519 1.367 . S
C520 C528 1.433 . S
C521 H517 0.929 . S
C521 C523 1.378 . S
C521 C525 1.350 . S
C522 C525 1.463 . S
C522 C527 1.350 . S
C522 N530 1.427 . S
C523 H514 0.930 . S
C523 C521 1.378 . S
C523 C524 1.367 . S
C524 C523 1.367 . S
C524 C526 1.433 . S
C525 C521 1.350 . S
C525 C522 1.463 . S
C525 N529 1.427 . S
C526 H516 0.929 . S
C526 C524 1.433 . S
C526 N529 1.384 . S
C527 H518 0.929 . S
C527 C519 1.378 . S
C527 C522 1.350 . S
C528 H515 0.929 . S
C528 C520 1.433 . S
C528 N530 1.384 . S
N529 C525 1.427 . S
N529 C526 1.384 . S
N530 C522 1.427 . S
N530 C528 1.384 . S
H531 C537 0.930 . S
H532 C541 0.930 . S
H533 C546 0.929 . S
H534 C544 0.929 . S
H535 C539 0.929 . S
H536 C545 0.929 . S
C537 H531 0.930 . S
C537 C538 1.367 . S
C537 C545 1.378 . S
C538 C537 1.367 . S
C538 C546 1.433 . S
C539 H535 0.929 . S
C539 C541 1.378 . S
C539 C543 1.350 . S
C540 C543 1.463 . S
C540 C545 1.350 . S
C540 N548 1.427 . S
C541 H532 0.930 . S
C541 C539 1.378 . S
C541 C542 1.367 . S
C542 C541 1.367 . S
C542 C544 1.433 . S
C543 C539 1.350 . S
C543 C540 1.463 . S
C543 N547 1.427 . S
C544 H534 0.929 . S
C544 C542 1.433 . S
C544 N547 1.384 . S
C545 H536 0.929 . S
C545 C537 1.378 . S
C545 C540 1.350 . S
C546 H533 0.929 . S
C546 C538 1.433 . S
C546 N548 1.384 . S
N547 C543 1.427 . S
N547 C544 1.384 . S
N548 C540 1.427 . S
N548 C546 1.384 . S
H549 C555 0.930 . S
H550 C559 0.930 . S
H551 C564 0.929 . S
H552 C562 0.929 . S
H553 C557 0.929 . S
H554 C563 0.929 . S
C555 H549 0.930 . S
C555 C556 1.367 . S
C555 C563 1.378 . S
C556 C555 1.367 . S
C556 C564 1.433 . S
C557 H553 0.929 . S
C557 C559 1.378 . S
C557 C561 1.350 . S
C558 C561 1.463 . S
C558 C563 1.350 . S
C558 N566 1.427 . S
C559 H550 0.930 . S
C559 C557 1.378 . S
C559 C560 1.367 . S
C560 C559 1.367 . S
C560 C562 1.433 . S
C561 C557 1.350 . S
C561 C558 1.463 . S
C561 N565 1.427 . S
C562 H552 0.929 . S
C562 C560 1.433 . S
C562 N565 1.384 . S
C563 H554 0.929 . S
C563 C555 1.378 . S
C563 C558 1.350 . S
C564 H551 0.929 . S
C564 C556 1.433 . S
C564 N566 1.384 . S
N565 C561 1.427 . S
N565 C562 1.384 . S
N566 C558 1.427 . S
N566 C564 1.384 . S
H567 C573 0.930 . S
H568 C577 0.930 . S
H569 C582 0.929 . S
H570 C580 0.929 . S
H571 C575 0.929 . S
H572 C581 0.929 . S
C573 H567 0.930 . S
C573 C574 1.367 . S
C573 C581 1.378 . S
C574 C573 1.367 . S
C574 C582 1.433 . S
C575 H571 0.929 . S
C575 C577 1.378 . S
C575 C579 1.350 . S
C576 C579 1.463 . S
C576 C581 1.350 . S
C576 N584 1.427 . S
C577 H568 0.930 . S
C577 C575 1.378 . S
C577 C578 1.367 . S
C578 C577 1.367 . S
C578 C580 1.433 . S
C579 C575 1.350 . S
C579 C576 1.463 . S
C579 N583 1.427 . S
C580 H570 0.929 . S
C580 C578 1.433 . S
C580 N583 1.384 . S
C581 H572 0.929 . S
C581 C573 1.378 . S
C581 C576 1.350 . S
C582 H569 0.929 . S
C582 C574 1.433 . S
C582 N584 1.384 . S
N583 C579 1.427 . S
N583 C580 1.384 . S
N584 C576 1.427 . S
N584 C582 1.384 . S
H585 C591 0.930 . S
H586 C595 0.930 . S
H587 C600 0.929 . S
H588 C598 0.929 . S
H589 C593 0.929 . S
H590 C599 0.929 . S
C591 H585 0.930 . S
C591 C592 1.367 . S
C591 C599 1.378 . S
C592 C591 1.367 . S
C592 C600 1.433 . S
C593 H589 0.929 . S
C593 C595 1.378 . S
C593 C597 1.350 . S
C594 C597 1.463 . S
C594 C599 1.350 . S
C594 N602 1.427 . S
C595 H586 0.930 . S
C595 C593 1.378 . S
C595 C596 1.367 . S
C596 C595 1.367 . S
C596 C598 1.433 . S
C597 C593 1.350 . S
C597 C594 1.463 . S
C597 N601 1.427 . S
C598 H588 0.929 . S
C598 C596 1.433 . S
C598 N601 1.384 . S
C599 H590 0.929 . S
C599 C591 1.378 . S
C599 C594 1.350 . S
C600 H587 0.929 . S
C600 C592 1.433 . S
C600 N602 1.384 . S
N601 C597 1.427 . S
N601 C598 1.384 . S
N602 C594 1.427 . S
N602 C600 1.384 . S
C178 C5 1.755 . S
C182 C89 1.668 . S
C196 C16 1.483 . S
C200 C136 1.475 . S
C218 C140 1.712 . S
C214 C36 1.780 . S
C236 C105 1.407 . S
C232 C42 1.433 . S
C250 C55 1.659 . S
C254 C120 1.611 . S
C272 C142 0.986 . S
C268 C66 1.002 . S
C290 C111 1.294 . S
C286 C31 1.357 . S
C304 C40 1.377 . S
C308 C151 1.340 . S
C326 C80 1.325 . S
C322 C53 1.353 1_556 S
C340 C68 1.333 . S
C344 C109 1.311 . S
C358 C10 1.883 . S
C362 C167 1.819 . S
C380 C78 1.449 . S
C376 C14 1.467 . S
C398 C96 1.734 . S
C394 C49 1.789 . S
C416 C110 1.546 . S
C412 C62 1.563 1_556 S
C434 C164 1.651 . S
C430 C70 1.682 . S
C452 C79 1.468 . S
C448 C1 1.521 . S
C470 C127 1.685 . S
C466 C23 1.734 1_556 S
C484 C29 0.933 . S
C488 C150 0.901 . S
C506 C119 1.387 . S
C502 C75 1.416 . S
C524 C158 1.273 . S
C520 C3 1.333 . S
C542 C88 1.246 . S
C538 C18 1.266 . S
C560 C133 1.387 . S
C556 C27 1.425 . S
C574 C44 1.785 . S
C578 C141 1.754 . S
C592 C57 1.391 . S
C596 C102 1.382 . S
