# Generated by pormake.
# Topology gar, (4,6)-cn, num edge types: 1
# Building blocks:
#     Node 0, Type 0, BuildingBlock: GALJAG_clean_sbu_0, # of connection points: 4
#     Node 1, Type 0, BuildingBlock: GALJAG_clean_sbu_0, # of connection points: 4
#     Node 2, Type 0, BuildingBlock: GALJAG_clean_sbu_0, # of connection points: 4
#     Node 3, Type 0, BuildingBlock: GALJAG_clean_sbu_0, # of connection points: 4
#     Node 4, Type 0, BuildingBlock: GALJAG_clean_sbu_0, # of connection points: 4
#     Node 5, Type 0, BuildingBlock: GALJAG_clean_sbu_0, # of connection points: 4
#     Node 6, Type 0, BuildingBlock: GALJAG_clean_sbu_0, # of connection points: 4
#     Node 7, Type 0, BuildingBlock: GALJAG_clean_sbu_0, # of connection points: 4
#     Node 8, Type 0, BuildingBlock: GALJAG_clean_sbu_0, # of connection points: 4
#     Node 9, Type 0, BuildingBlock: GALJAG_clean_sbu_0, # of connection points: 4
#     Node 10, Type 0, BuildingBlock: GALJAG_clean_sbu_0, # of connection points: 4
#     Node 11, Type 0, BuildingBlock: GALJAG_clean_sbu_0, # of connection points: 4
#     Node 12, Type 0, BuildingBlock: GALJAG_clean_sbu_0, # of connection points: 4
#     Node 13, Type 0, BuildingBlock: GALJAG_clean_sbu_0, # of connection points: 4
#     Node 14, Type 0, BuildingBlock: GALJAG_clean_sbu_0, # of connection points: 4
#     Node 15, Type 0, BuildingBlock: GALJAG_clean_sbu_0, # of connection points: 4
#     Node 16, Type 0, BuildingBlock: GALJAG_clean_sbu_0, # of connection points: 4
#     Node 17, Type 0, BuildingBlock: GALJAG_clean_sbu_0, # of connection points: 4
#     Node 18, Type 0, BuildingBlock: GALJAG_clean_sbu_0, # of connection points: 4
#     Node 19, Type 0, BuildingBlock: GALJAG_clean_sbu_0, # of connection points: 4
#     Node 20, Type 0, BuildingBlock: GALJAG_clean_sbu_0, # of connection points: 4
#     Node 21, Type 0, BuildingBlock: GALJAG_clean_sbu_0, # of connection points: 4
#     Node 22, Type 0, BuildingBlock: GALJAG_clean_sbu_0, # of connection points: 4
#     Node 23, Type 0, BuildingBlock: GALJAG_clean_sbu_0, # of connection points: 4
#     Node 24, Type 1, BuildingBlock: KUMJIN_clean_sbu_1, # of connection points: 6
#     Node 25, Type 1, BuildingBlock: KUMJIN_clean_sbu_1, # of connection points: 6
#     Node 26, Type 1, BuildingBlock: KUMJIN_clean_sbu_1, # of connection points: 6
#     Node 27, Type 1, BuildingBlock: KUMJIN_clean_sbu_1, # of connection points: 6
#     Node 28, Type 1, BuildingBlock: KUMJIN_clean_sbu_1, # of connection points: 6
#     Node 29, Type 1, BuildingBlock: KUMJIN_clean_sbu_1, # of connection points: 6
#     Node 30, Type 1, BuildingBlock: KUMJIN_clean_sbu_1, # of connection points: 6
#     Node 31, Type 1, BuildingBlock: KUMJIN_clean_sbu_1, # of connection points: 6
#     Node 32, Type 1, BuildingBlock: KUMJIN_clean_sbu_1, # of connection points: 6
#     Node 33, Type 1, BuildingBlock: KUMJIN_clean_sbu_1, # of connection points: 6
#     Node 34, Type 1, BuildingBlock: KUMJIN_clean_sbu_1, # of connection points: 6
#     Node 35, Type 1, BuildingBlock: KUMJIN_clean_sbu_1, # of connection points: 6
#     Node 36, Type 1, BuildingBlock: KUMJIN_clean_sbu_1, # of connection points: 6
#     Node 37, Type 1, BuildingBlock: KUMJIN_clean_sbu_1, # of connection points: 6
#     Node 38, Type 1, BuildingBlock: KUMJIN_clean_sbu_1, # of connection points: 6
#     Node 39, Type 1, BuildingBlock: KUMJIN_clean_sbu_1, # of connection points: 6
#     Edge 40, Type (0, 1), BuildingBlock: TEMPAE_clean_linker_10, # of connection points: 2
#     Edge 41, Type (0, 1), BuildingBlock: TEMPAE_clean_linker_10, # of connection points: 2
#     Edge 42, Type (0, 1), BuildingBlock: TEMPAE_clean_linker_10, # of connection points: 2
#     Edge 43, Type (0, 1), BuildingBlock: TEMPAE_clean_linker_10, # of connection points: 2
#     Edge 44, Type (0, 1), BuildingBlock: TEMPAE_clean_linker_10, # of connection points: 2
#     Edge 45, Type (0, 1), BuildingBlock: TEMPAE_clean_linker_10, # of connection points: 2
#     Edge 46, Type (0, 1), BuildingBlock: TEMPAE_clean_linker_10, # of connection points: 2
#     Edge 47, Type (0, 1), BuildingBlock: TEMPAE_clean_linker_10, # of connection points: 2
#     Edge 48, Type (0, 1), BuildingBlock: TEMPAE_clean_linker_10, # of connection points: 2
#     Edge 49, Type (0, 1), BuildingBlock: TEMPAE_clean_linker_10, # of connection points: 2
#     Edge 50, Type (0, 1), BuildingBlock: TEMPAE_clean_linker_10, # of connection points: 2
#     Edge 51, Type (0, 1), BuildingBlock: TEMPAE_clean_linker_10, # of connection points: 2
#     Edge 52, Type (0, 1), BuildingBlock: TEMPAE_clean_linker_10, # of connection points: 2
#     Edge 53, Type (0, 1), BuildingBlock: TEMPAE_clean_linker_10, # of connection points: 2
#     Edge 54, Type (0, 1), BuildingBlock: TEMPAE_clean_linker_10, # of connection points: 2
#     Edge 55, Type (0, 1), BuildingBlock: TEMPAE_clean_linker_10, # of connection points: 2
#     Edge 56, Type (0, 1), BuildingBlock: TEMPAE_clean_linker_10, # of connection points: 2
#     Edge 57, Type (0, 1), BuildingBlock: TEMPAE_clean_linker_10, # of connection points: 2
#     Edge 58, Type (0, 1), BuildingBlock: TEMPAE_clean_linker_10, # of connection points: 2
#     Edge 59, Type (0, 1), BuildingBlock: TEMPAE_clean_linker_10, # of connection points: 2
#     Edge 60, Type (0, 1), BuildingBlock: TEMPAE_clean_linker_10, # of connection points: 2
#     Edge 61, Type (0, 1), BuildingBlock: TEMPAE_clean_linker_10, # of connection points: 2
#     Edge 62, Type (0, 1), BuildingBlock: TEMPAE_clean_linker_10, # of connection points: 2
#     Edge 63, Type (0, 1), BuildingBlock: TEMPAE_clean_linker_10, # of connection points: 2
#     Edge 64, Type (0, 1), BuildingBlock: TEMPAE_clean_linker_10, # of connection points: 2
#     Edge 65, Type (0, 1), BuildingBlock: TEMPAE_clean_linker_10, # of connection points: 2
#     Edge 66, Type (0, 1), BuildingBlock: TEMPAE_clean_linker_10, # of connection points: 2
#     Edge 67, Type (0, 1), BuildingBlock: TEMPAE_clean_linker_10, # of connection points: 2
#     Edge 68, Type (0, 1), BuildingBlock: TEMPAE_clean_linker_10, # of connection points: 2
#     Edge 69, Type (0, 1), BuildingBlock: TEMPAE_clean_linker_10, # of connection points: 2
#     Edge 70, Type (0, 1), BuildingBlock: TEMPAE_clean_linker_10, # of connection points: 2
#     Edge 71, Type (0, 1), BuildingBlock: TEMPAE_clean_linker_10, # of connection points: 2
#     Edge 72, Type (0, 1), BuildingBlock: TEMPAE_clean_linker_10, # of connection points: 2
#     Edge 73, Type (0, 1), BuildingBlock: TEMPAE_clean_linker_10, # of connection points: 2
#     Edge 74, Type (0, 1), BuildingBlock: TEMPAE_clean_linker_10, # of connection points: 2
#     Edge 75, Type (0, 1), BuildingBlock: TEMPAE_clean_linker_10, # of connection points: 2
#     Edge 76, Type (0, 1), BuildingBlock: TEMPAE_clean_linker_10, # of connection points: 2
#     Edge 77, Type (0, 1), BuildingBlock: TEMPAE_clean_linker_10, # of connection points: 2
#     Edge 78, Type (0, 1), BuildingBlock: TEMPAE_clean_linker_10, # of connection points: 2
#     Edge 79, Type (0, 1), BuildingBlock: TEMPAE_clean_linker_10, # of connection points: 2
#     Edge 80, Type (0, 1), BuildingBlock: TEMPAE_clean_linker_10, # of connection points: 2
#     Edge 81, Type (0, 1), BuildingBlock: TEMPAE_clean_linker_10, # of connection points: 2
#     Edge 82, Type (0, 1), BuildingBlock: TEMPAE_clean_linker_10, # of connection points: 2
#     Edge 83, Type (0, 1), BuildingBlock: TEMPAE_clean_linker_10, # of connection points: 2
#     Edge 84, Type (0, 1), BuildingBlock: TEMPAE_clean_linker_10, # of connection points: 2
#     Edge 85, Type (0, 1), BuildingBlock: TEMPAE_clean_linker_10, # of connection points: 2
#     Edge 86, Type (0, 1), BuildingBlock: TEMPAE_clean_linker_10, # of connection points: 2
#     Edge 87, Type (0, 1), BuildingBlock: TEMPAE_clean_linker_10, # of connection points: 2
#     Edge 88, Type (0, 1), BuildingBlock: TEMPAE_clean_linker_10, # of connection points: 2
#     Edge 89, Type (0, 1), BuildingBlock: TEMPAE_clean_linker_10, # of connection points: 2
#     Edge 90, Type (0, 1), BuildingBlock: TEMPAE_clean_linker_10, # of connection points: 2
#     Edge 91, Type (0, 1), BuildingBlock: TEMPAE_clean_linker_10, # of connection points: 2
#     Edge 92, Type (0, 1), BuildingBlock: TEMPAE_clean_linker_10, # of connection points: 2
#     Edge 93, Type (0, 1), BuildingBlock: TEMPAE_clean_linker_10, # of connection points: 2
#     Edge 94, Type (0, 1), BuildingBlock: TEMPAE_clean_linker_10, # of connection points: 2
#     Edge 95, Type (0, 1), BuildingBlock: TEMPAE_clean_linker_10, # of connection points: 2
#     Edge 96, Type (0, 1), BuildingBlock: TEMPAE_clean_linker_10, # of connection points: 2
#     Edge 97, Type (0, 1), BuildingBlock: TEMPAE_clean_linker_10, # of connection points: 2
#     Edge 98, Type (0, 1), BuildingBlock: TEMPAE_clean_linker_10, # of connection points: 2
#     Edge 99, Type (0, 1), BuildingBlock: TEMPAE_clean_linker_10, # of connection points: 2
#     Edge 100, Type (0, 1), BuildingBlock: TEMPAE_clean_linker_10, # of connection points: 2
#     Edge 101, Type (0, 1), BuildingBlock: TEMPAE_clean_linker_10, # of connection points: 2
#     Edge 102, Type (0, 1), BuildingBlock: TEMPAE_clean_linker_10, # of connection points: 2
#     Edge 103, Type (0, 1), BuildingBlock: TEMPAE_clean_linker_10, # of connection points: 2
#     Edge 104, Type (0, 1), BuildingBlock: TEMPAE_clean_linker_10, # of connection points: 2
#     Edge 105, Type (0, 1), BuildingBlock: TEMPAE_clean_linker_10, # of connection points: 2
#     Edge 106, Type (0, 1), BuildingBlock: TEMPAE_clean_linker_10, # of connection points: 2
#     Edge 107, Type (0, 1), BuildingBlock: TEMPAE_clean_linker_10, # of connection points: 2
#     Edge 108, Type (0, 1), BuildingBlock: TEMPAE_clean_linker_10, # of connection points: 2
#     Edge 109, Type (0, 1), BuildingBlock: TEMPAE_clean_linker_10, # of connection points: 2
#     Edge 110, Type (0, 1), BuildingBlock: TEMPAE_clean_linker_10, # of connection points: 2
#     Edge 111, Type (0, 1), BuildingBlock: TEMPAE_clean_linker_10, # of connection points: 2
#     Edge 112, Type (0, 1), BuildingBlock: TEMPAE_clean_linker_10, # of connection points: 2
#     Edge 113, Type (0, 1), BuildingBlock: TEMPAE_clean_linker_10, # of connection points: 2
#     Edge 114, Type (0, 1), BuildingBlock: TEMPAE_clean_linker_10, # of connection points: 2
#     Edge 115, Type (0, 1), BuildingBlock: TEMPAE_clean_linker_10, # of connection points: 2
#     Edge 116, Type (0, 1), BuildingBlock: TEMPAE_clean_linker_10, # of connection points: 2
#     Edge 117, Type (0, 1), BuildingBlock: TEMPAE_clean_linker_10, # of connection points: 2
#     Edge 118, Type (0, 1), BuildingBlock: TEMPAE_clean_linker_10, # of connection points: 2
#     Edge 119, Type (0, 1), BuildingBlock: TEMPAE_clean_linker_10, # of connection points: 2
#     Edge 120, Type (0, 1), BuildingBlock: TEMPAE_clean_linker_10, # of connection points: 2
#     Edge 121, Type (0, 1), BuildingBlock: TEMPAE_clean_linker_10, # of connection points: 2
#     Edge 122, Type (0, 1), BuildingBlock: TEMPAE_clean_linker_10, # of connection points: 2
#     Edge 123, Type (0, 1), BuildingBlock: TEMPAE_clean_linker_10, # of connection points: 2
#     Edge 124, Type (0, 1), BuildingBlock: TEMPAE_clean_linker_10, # of connection points: 2
#     Edge 125, Type (0, 1), BuildingBlock: TEMPAE_clean_linker_10, # of connection points: 2
#     Edge 126, Type (0, 1), BuildingBlock: TEMPAE_clean_linker_10, # of connection points: 2
#     Edge 127, Type (0, 1), BuildingBlock: TEMPAE_clean_linker_10, # of connection points: 2
#     Edge 128, Type (0, 1), BuildingBlock: TEMPAE_clean_linker_10, # of connection points: 2
#     Edge 129, Type (0, 1), BuildingBlock: TEMPAE_clean_linker_10, # of connection points: 2
#     Edge 130, Type (0, 1), BuildingBlock: TEMPAE_clean_linker_10, # of connection points: 2
#     Edge 131, Type (0, 1), BuildingBlock: TEMPAE_clean_linker_10, # of connection points: 2
#     Edge 132, Type (0, 1), BuildingBlock: TEMPAE_clean_linker_10, # of connection points: 2
#     Edge 133, Type (0, 1), BuildingBlock: TEMPAE_clean_linker_10, # of connection points: 2
#     Edge 134, Type (0, 1), BuildingBlock: TEMPAE_clean_linker_10, # of connection points: 2
#     Edge 135, Type (0, 1), BuildingBlock: TEMPAE_clean_linker_10, # of connection points: 2
# Relax obj value: 0.083
# Max RMSD: 0.179
# Mean RMSD: 0.129
data_MOF--net-gar--node1-GALJAG_clean_sbu_0--node2-KUMJIN_clean_sbu_1--edge1-TEMPAE_clean_linker_10
_symmetry_space_group_name_H-M    P1
_symmetry_Int_Tables_number       1
_symmetry_cell_setting            triclinic
loop_
_symmetry_equiv_pos_as_xyz
'x, y, z'
_cell_length_a     60.75734
_cell_length_b     60.852006
_cell_length_c     56.931023
_cell_angle_alpha  96.033851
_cell_angle_beta   96.024984
_cell_angle_gamma 100.72352
loop_
_atom_site_label
_atom_site_type_symbol
_atom_site_fract_x
_atom_site_fract_y
_atom_site_fract_z
_atom_type_partial_charge
In0 In 0.05395 0.32455 0.36544 0.0
O1 O 0.07461 0.31892 0.33224 0.0
O2 O 0.09265 0.32295 0.36625 0.0
C3 C 1.00931 0.31946 0.34324 0.0
C4 C 0.05149 0.28652 0.38787 0.0
C5 C 0.05622 0.36645 0.39284 0.0
O6 O 0.02626 0.32995 0.335 0.0
O7 O 0.01494 0.31094 0.36167 0.0
O8 O 0.05442 0.3479 0.40123 0.0
O9 O 0.0582 0.36427 0.37086 0.0
C10 C 0.09342 0.31883 0.34419 0.0
O11 O 0.05891 0.30621 0.39867 0.0
O12 O 0.04494 0.28606 0.36594 0.0
In13 In 0.02793 0.76063 0.69739 0.0
O14 O 0.03275 0.77612 0.66297 0.0
O15 O 0.0251 0.79694 0.69207 0.0
C16 C 0.02397 0.72156 0.66677 0.0
C17 C 0.07395 0.76805 0.71821 0.0
C18 C 0.98628 0.76009 0.7171 0.0
O19 O 0.01832 0.73925 0.66049 0.0
O20 O 0.03106 0.72318 0.68874 0.0
O21 O 1.00523 0.77109 0.7275 0.0
O22 O 0.98868 0.74817 0.69841 0.0
C23 C 0.0293 0.7952 0.67079 0.0
O24 O 0.05938 0.75066 0.72011 0.0
O25 O 0.065 0.78225 0.70805 0.0
In26 In 0.55445 0.82396 0.86409 0.0
O27 O 0.57914 0.82774 0.83366 0.0
O28 O 0.5907 0.81534 0.86459 0.0
C29 C 0.51005 0.81935 0.84171 0.0
C30 C 0.54922 0.78491 0.88522 0.0
C31 C 0.55881 0.86641 0.89107 0.0
O32 O 0.52589 0.81463 0.83053 0.0
O33 O 0.51652 0.82594 0.86345 0.0
O34 O 0.55985 0.84841 0.90002 0.0
O35 O 0.55752 0.86352 0.86856 0.0
C36 C 0.59477 0.81967 0.84412 0.0
O37 O 0.55394 0.80436 0.89699 0.0
O38 O 0.54636 0.78509 0.86296 0.0
In39 In 0.52772 0.25918 0.19835 0.0
O40 O 0.51898 0.23698 0.16189 0.0
O41 O 0.53078 0.22134 0.19085 0.0
C42 C 0.52939 0.29475 0.17299 0.0
C43 C 0.48602 0.2601 0.21791 0.0
C44 C 0.57414 0.26609 0.21785 0.0
O45 O 0.52334 0.27453 0.16348 0.0
O46 O 0.53427 0.29712 0.19535 0.0
O47 O 0.55838 0.25388 0.22652 0.0
O48 O 0.56641 0.27497 0.20057 0.0
C49 C 0.52399 0.21927 0.16876 0.0
O50 O 0.50493 0.27183 0.22756 0.0
O51 O 0.48852 0.24701 0.20016 0.0
In52 In 0.07001 0.80187 0.11549 0.0
O53 O 0.05123 0.7684 0.08934 0.0
O54 O 0.08215 0.7673 0.10846 0.0
C55 C 0.06816 0.8439 0.09719 0.0
C56 C 0.03452 0.79681 0.14078 0.0
C57 C 0.10854 0.80704 0.14728 0.0
O58 O 0.07841 0.82941 0.08786 0.0
O59 O 0.0589 0.83691 0.11447 0.0
O60 O 0.08876 0.80282 0.15284 0.0
O61 O 0.10921 0.80962 0.12552 0.0
C62 C 0.06518 0.75607 0.09486 0.0
O63 O 0.05429 0.80632 0.14989 0.0
O64 O 0.03259 0.78969 0.11883 0.0
In65 In 0.50718 0.77604 0.4503 0.0
O66 O 0.52461 0.76706 0.41692 0.0
O67 O 0.5451 0.78622 0.44723 0.0
C68 C 0.4665 0.77702 0.42204 0.0
C69 C 0.51177 0.7365 0.47171 0.0
C70 C 0.5118 0.81926 0.47565 0.0
O71 O 0.48589 0.78302 0.41582 0.0
O72 O 0.46741 0.76956 0.44199 0.0
O73 O 0.49647 0.80273 0.4781 0.0
O74 O 0.52521 0.81377 0.46168 0.0
C75 C 0.54435 0.77661 0.42633 0.0
O76 O 0.51796 0.75634 0.48254 0.0
O77 O 0.50192 0.7365 0.45105 0.0
In78 In 0.56981 0.30176 0.61463 0.0
O79 O 0.55425 0.26934 0.58523 0.0
O80 O 0.57976 0.26612 0.61141 0.0
C81 C 0.56812 0.34359 0.59631 0.0
C82 C 0.53336 0.29857 0.63886 0.0
C83 C 0.60907 0.30721 0.64557 0.0
O84 O 0.57674 0.32828 0.58587 0.0
O85 O 0.56066 0.33763 0.61496 0.0
O86 O 0.58964 0.29941 0.65058 0.0
O87 O 0.60905 0.31317 0.62486 0.0
C88 C 0.56565 0.25601 0.59411 0.0
O89 O 0.55318 0.30741 0.64831 0.0
O90 O 0.53183 0.29093 0.61709 0.0
In91 In 1.00692 0.27582 0.94904 0.0
O92 O 0.01177 0.25489 0.98186 0.0
O93 O 1.00627 0.23678 0.94768 0.0
C94 C 0.01311 0.32017 0.97195 0.0
C95 C 0.04558 0.27863 0.92749 0.0
C96 C 0.96462 0.2728 0.92217 0.0
O97 O 1.00097 0.30347 0.97897 0.0
O98 O 0.02289 0.31441 0.95452 0.0
O99 O 0.98197 0.26925 0.91309 0.0
O100 O 0.96818 0.27648 0.94462 0.0
C101 C 0.01075 0.23593 0.96971 0.0
O102 O 0.02682 0.28037 0.91659 0.0
O103 O 0.04493 0.27599 0.94914 0.0
In104 In 0.39701 0.02808 0.31436 0.0
O105 O 0.42539 0.03463 0.29262 0.0
O106 O 0.39188 0.03292 0.2755 0.0
C107 C 0.41982 0.02462 0.35496 0.0
C108 C 0.37949 0.06375 0.3239 0.0
C109 C 0.37697 0.98553 0.30578 0.0
O110 O 0.42965 0.03124 0.33778 0.0
O111 O 0.3986 0.02044 0.35167 0.0
O112 O 0.36757 1.00034 0.31536 0.0
O113 O 0.39601 0.99237 0.2994 0.0
C114 C 0.41277 0.03558 0.2738 0.0
O115 O 0.36738 0.04448 0.3171 0.0
O116 O 0.40055 0.0649 0.32602 0.0
In117 In 0.27281 0.18911 0.51829 0.0
O118 O 0.28426 0.22023 0.5483 0.0
O119 O 0.26575 0.18999 0.5571 0.0
C120 C 0.27623 0.2085 0.47668 0.0
C121 C 0.30688 0.16687 0.52094 0.0
C122 C 0.23324 0.15899 0.51252 0.0
O123 O 0.25988 0.20918 0.48861 0.0
O124 O 0.29138 0.19981 0.48664 0.0
O125 O 0.25221 0.15365 0.51669 0.0
O126 O 0.23408 0.17961 0.51051 0.0
C127 C 0.27621 0.20973 0.56458 0.0
O128 O 0.28937 0.15998 0.50608 0.0
O129 O 0.30737 0.18503 0.53409 0.0
In130 In 0.14067 0.05716 0.79613 0.0
O131 O 0.11173 0.05999 0.76637 0.0
O132 O 0.13901 0.04616 0.75578 0.0
C133 C 0.12282 0.05495 0.8388 0.0
C134 C 0.16303 0.02295 0.7975 0.0
C135 C 0.1681 0.09831 0.80007 0.0
O136 O 0.11179 0.04531 0.81916 0.0
O137 O 0.14189 0.06621 0.83659 0.0
O138 O 0.17512 0.08027 0.80182 0.0
O139 O 0.14682 0.0958 0.79605 0.0
C140 C 0.12062 0.05176 0.7492 0.0
O141 O 0.17277 0.04332 0.79922 0.0
O142 O 0.1417 0.01963 0.79508 0.0
In143 In 0.30082 0.92893 0.99866 0.0
O144 O 0.2907 0.89992 0.01966 0.0
O145 O 0.30383 0.9328 0.03853 0.0
C146 C 0.30497 0.90871 0.9568 0.0
C147 C 0.26373 0.94495 0.99126 0.0
C148 C 0.34289 0.95033 0.00925 0.0
O149 O 0.30214 0.89809 0.97452 0.0
O150 O 0.30474 0.92948 0.96009 0.0
O151 O 0.32674 0.96053 0.01139 0.0
O152 O 0.33764 0.92952 0.002 0.0
C153 C 0.2963 0.91221 0.0395 0.0
O154 O 0.28297 0.95714 0.99136 0.0
O155 O 0.26342 0.9246 0.99388 0.0
In156 In 0.31228 0.39498 0.04601 0.0
O157 O 0.29733 0.36507 0.06483 0.0
O158 O 0.31919 0.39257 0.08636 0.0
C159 C 0.30952 0.37247 0.00147 0.0
C160 C 0.27632 0.41525 0.04672 0.0
C161 C 0.35407 0.42076 0.04643 0.0
O162 O 0.31951 0.36656 0.01963 0.0
O163 O 0.30062 0.38933 0.00582 0.0
O164 O 0.33632 0.42882 0.04536 0.0
O165 O 0.35082 0.39993 0.04822 0.0
C166 C 0.30629 0.37362 0.08553 0.0
O167 O 0.29633 0.42613 0.05276 0.0
O168 O 0.27468 0.39448 0.04025 0.0
In169 In 0.77374 0.13242 0.0588 0.0
O170 O 0.79055 0.10284 0.06348 0.0
O171 O 0.8092 0.13631 0.07507 0.0
C172 C 0.73048 0.11503 0.04977 0.0
C173 C 0.7704 0.15927 0.09663 0.0
C174 C 0.78137 0.14708 0.01743 0.0
O175 O 0.74461 0.10255 0.05386 0.0
O176 O 0.73838 0.13583 0.0511 0.0
O177 O 0.79019 0.15825 0.03712 0.0
O178 O 0.77016 0.12767 0.01857 0.0
C179 C 0.80888 0.11547 0.07324 0.0
O180 O 0.77286 0.16602 0.07669 0.0
O181 O 0.76939 0.13847 0.09754 0.0
In182 In 0.19679 0.55837 0.2527 0.0
O183 O 0.22654 0.54115 0.24893 0.0
O184 O 0.19284 0.52205 0.24773 0.0
C185 C 0.21134 0.60162 0.25443 0.0
C186 C 0.16811 0.55238 0.2143 0.0
C187 C 0.18228 0.55328 0.29444 0.0
O188 O 0.22496 0.58827 0.25257 0.0
O189 O 0.19097 0.5929 0.25496 0.0
O190 O 0.17096 0.54475 0.27479 0.0
O191 O 0.20178 0.56456 0.29335 0.0
C192 C 0.21343 0.52207 0.24709 0.0
O193 O 0.16285 0.55643 0.23488 0.0
O194 O 0.18871 0.55234 0.21279 0.0
In195 In 0.81272 0.8948 0.54588 0.0
O196 O 0.79859 0.86412 0.56366 0.0
O197 O 0.82183 0.89063 0.58543 0.0
C198 C 0.80792 0.87201 0.50117 0.0
C199 C 0.77772 0.91624 0.54997 0.0
C200 C 0.85435 0.92137 0.54737 0.0
O201 O 0.82109 0.86837 0.51825 0.0
O202 O 0.79644 0.88655 0.50669 0.0
O203 O 0.83686 0.92938 0.54989 0.0
O204 O 0.85102 0.90014 0.54547 0.0
C205 C 0.8087 0.8717 0.58422 0.0
O206 O 0.79594 0.92549 0.54313 0.0
O207 O 0.7772 0.89635 0.55452 0.0
In208 In 0.93625 0.01777 0.26922 0.0
O209 O 0.96832 0.02152 0.25025 0.0
O210 O 0.93717 0.02073 0.22938 0.0
C211 C 0.95985 0.02293 0.31361 0.0
C212 C 0.91819 0.05491 0.26671 0.0
C213 C 0.90901 0.97643 0.26896 0.0
O214 O 0.9667 0.01417 0.29532 0.0
O215 O 0.94138 0.02929 0.30944 0.0
O216 O 0.90387 0.9947 0.27676 0.0
O217 O 0.92759 0.97893 0.26058 0.0
C218 C 0.95826 0.02279 0.23001 0.0
O219 O 0.90784 0.0356 0.25702 0.0
O220 O 0.93741 0.05537 0.27784 0.0
In221 In 0.2717 0.63382 0.56159 0.0
O222 O 0.28817 0.60374 0.55771 0.0
O223 O 0.30783 0.63652 0.5718 0.0
C224 C 0.22871 0.61874 0.56092 0.0
C225 C 0.2811 0.65865 0.60258 0.0
C226 C 0.27 0.65105 0.52104 0.0
O227 O 0.24231 0.60533 0.56225 0.0
O228 O 0.23715 0.6392 0.56079 0.0
O229 O 0.26951 0.66212 0.54083 0.0
O230 O 0.27248 0.63095 0.52144 0.0
C231 C 0.30713 0.61583 0.5665 0.0
O232 O 0.28762 0.66539 0.58378 0.0
O233 O 0.26952 0.63885 0.60077 0.0
In234 In 0.43492 0.5171 0.76633 0.0
O235 O 0.40427 0.53354 0.75693 0.0
O236 O 0.43276 0.55328 0.77902 0.0
C237 C 0.41118 0.47422 0.76412 0.0
C238 C 0.45727 0.52345 0.72738 0.0
C239 C 0.45731 0.5191 0.81063 0.0
O240 O 0.40202 0.4903 0.75852 0.0
O241 O 0.43231 0.47959 0.76995 0.0
O242 O 0.46735 0.51995 0.79226 0.0
O243 O 0.43617 0.51733 0.80663 0.0
C244 C 0.41338 0.55252 0.76834 0.0
O245 O 0.46309 0.53546 0.74723 0.0
O246 O 0.44075 0.50746 0.72728 0.0
In247 In 0.7002 0.06126 0.75359 0.0
O248 O 0.72504 0.03977 0.74348 0.0
O249 O 0.6944 0.02532 0.75663 0.0
C250 C 0.72703 0.10054 0.75493 0.0
C251 C 0.66766 0.05151 0.71826 0.0
C252 C 0.68531 0.06673 0.79535 0.0
O253 O 0.7316 0.08623 0.76818 0.0
O254 O 0.71012 0.09398 0.73936 0.0
O255 O 0.67969 0.07707 0.77833 0.0
O256 O 0.69891 0.05384 0.79152 0.0
C257 C 0.71246 0.0225 0.7489 0.0
O258 O 0.66422 0.05724 0.73927 0.0
O259 O 0.68785 0.05149 0.71492 0.0
In260 In 0.77214 0.68923 0.0179 0.0
O261 O 0.787 0.658 0.00944 0.0
O262 O 0.80836 0.687 0.02975 0.0
C263 C 0.73191 0.66008 0.01211 0.0
C264 C 0.77621 0.70873 0.06474 0.0
C265 C 0.77477 0.70986 0.9768 0.0
O266 O 0.75036 0.65371 0.01014 0.0
O267 O 0.73367 0.68123 0.01606 0.0
O268 O 0.75853 0.70994 0.98894 0.0
O269 O 0.78986 0.70069 0.98595 0.0
C270 C 0.80643 0.66699 0.02002 0.0
O271 O 0.7861 0.71866 0.04916 0.0
O272 O 0.76397 0.68992 0.05653 0.0
In273 In 0.90158 0.53106 0.81388 0.0
O274 O 0.87093 0.54455 0.81986 0.0
O275 O 0.90155 0.56801 0.81867 0.0
C276 C 0.87898 0.48935 0.80804 0.0
C277 C 0.91732 0.5373 0.77281 0.0
C278 C 0.92342 0.53158 0.85593 0.0
O279 O 0.86983 0.50576 0.80398 0.0
O280 O 0.90007 0.49388 0.81411 0.0
O281 O 0.9329 0.52955 0.83731 0.0
O282 O 0.90318 0.53383 0.8531 0.0
C283 C 0.88069 0.5648 0.82044 0.0
O284 O 0.9296 0.54377 0.79253 0.0
O285 O 0.89744 0.52733 0.77403 0.0
In286 In 0.80247 0.43129 0.5005 0.0
O287 O 0.78914 0.40325 0.52138 0.0
O288 O 0.80828 0.43433 0.54022 0.0
C289 C 0.80236 0.40827 0.4591 0.0
C290 C 0.76767 0.45072 0.49645 0.0
C291 C 0.844 0.45437 0.50914 0.0
O292 O 0.80736 0.40074 0.47832 0.0
O293 O 0.79692 0.42727 0.46086 0.0
O294 O 0.82733 0.46402 0.5078 0.0
O295 O 0.83959 0.43313 0.50562 0.0
C296 C 0.7978 0.41458 0.54114 0.0
O297 O 0.78698 0.46079 0.49318 0.0
O298 O 0.766 0.43067 0.50096 0.0
In299 In 0.64082 0.55701 0.295 0.0
O300 O 0.67121 0.54089 0.30098 0.0
O301 O 0.64002 0.51918 0.28647 0.0
C302 C 0.6683 0.59826 0.3005 0.0
C303 C 0.62197 0.55259 0.24803 0.0
C304 C 0.6223 0.55421 0.33712 0.0
O305 O 0.67532 0.58021 0.30196 0.0
O306 O 0.64704 0.5958 0.2968 0.0
O307 O 0.61196 0.56 0.31902 0.0
O308 O 0.64128 0.55005 0.33374 0.0
C309 C 0.66079 0.52106 0.29364 0.0
O310 O 0.61015 0.54832 0.26469 0.0
O311 O 0.64278 0.55892 0.25513 0.0
Eu312 Eu 0.08168 0.06095 0.05917 0.0
C313 C 1.00574 0.98565 0.9962 0.0
N314 N 0.0181 1.00584 0.99261 0.0
C315 C 0.02127 0.99071 0.95272 0.0
C316 C 1.00128 0.96698 0.97827 0.0
C317 C 0.02507 0.00879 0.97091 0.0
C318 C 1.00957 0.96963 0.9565 0.0
C319 C 0.98233 0.96374 0.02104 0.0
C320 C 0.9963 0.984 0.01733 0.0
C321 C 0.9786 0.9449 0.00359 0.0
C322 C 0.98803 0.94652 0.98226 0.0
Eu323 Eu 0.02221 0.03539 0.02433 0.0
N324 N 0.99999 1.00252 0.03385 0.0
C325 C 0.97188 0.96328 0.04183 0.0
C326 C 0.98851 1.00272 0.05311 0.0
C327 C 0.97469 0.98299 0.05775 0.0
H328 H 0.03275 0.02522 0.96706 0.0
H329 H 0.9659 0.98311 0.07333 0.0
H330 H 0.07255 0.0732 0.11648 0.0
H331 H 0.12209 0.1152 0.99897 0.0
H332 H 0.98963 0.01824 0.0646 0.0
H333 H 0.96096 0.94807 0.0453 0.0
H334 H 0.10138 0.08011 0.01011 0.0
H335 H 0.02695 0.99316 0.93562 0.0
H336 H 0.96798 0.92917 0.00616 0.0
H337 H 0.98449 0.932 0.9687 0.0
H338 H 0.08216 0.10566 0.14777 0.0
H339 H 1.00636 0.95574 0.94223 0.0
H340 H 0.13326 0.14912 0.0288 0.0
N341 N 0.08557 0.09157 0.08946 0.0
C342 C 0.09777 0.11134 0.08451 0.0
C343 C 0.08628 0.1076 0.12996 0.0
C344 C 0.10452 0.1301 0.10231 0.0
C345 C 0.08019 0.08936 0.11192 0.0
C346 C 0.09846 0.12806 0.12514 0.0
N347 N 0.0979 0.09435 0.04481 0.0
C348 C 0.10458 0.09499 0.02273 0.0
C349 C 0.11726 0.13293 0.05649 0.0
C350 C 0.10424 0.1127 0.06175 0.0
C351 C 0.12337 0.13387 0.03354 0.0
C352 C 0.11696 0.11482 0.01659 0.0
H353 H 0.10352 0.14204 0.13931 0.0
H354 H 0.123 0.16461 0.11056 0.0
H355 H 0.13393 0.16715 0.07047 0.0
O356 O 0.1164 0.05919 0.05431 0.0
O357 O 0.05935 0.08729 0.04997 0.0
O358 O 0.03696 0.07045 0.01552 0.0
O359 O 0.10693 0.0634 0.08982 0.0
O360 O 0.08155 0.0427 0.02157 0.0
O361 O 0.04911 0.04992 0.00282 0.0
O362 O 0.99349 0.05029 0.0321 0.0
O363 O 0.03928 0.00726 0.0382 0.0
O364 O 0.07256 0.02289 0.06301 0.0
O365 O 0.99466 0.0337 0.99604 0.0
O366 O 0.02359 0.05022 0.06322 0.0
O367 O 0.05697 0.04506 0.08262 0.0
C368 C 0.04584 0.0887 0.03049 0.0
C369 C 0.13879 0.04735 0.08555 0.0
C370 C 0.16758 0.02614 0.0774 0.0
C371 C 0.17314 0.02561 0.10183 0.0
C372 C 0.14421 0.04668 0.11008 0.0
C373 C 0.16126 0.03571 0.11813 0.0
C374 C 0.15042 0.03684 0.06934 0.0
C375 C 0.06895 0.04476 0.00197 0.0
C376 C 0.12306 0.06117 0.07713 0.0
C377 C 0.11755 0.15013 0.09703 0.0
C378 C 0.12384 0.15156 0.07421 0.0
C379 C 0.05699 1.00515 0.05293 0.0
C380 C 0.96202 0.0499 0.00205 0.0
C381 C 0.93079 0.06753 0.01081 0.0
C382 C 0.92008 0.05986 0.98747 0.0
C383 C 0.95135 0.04235 0.97877 0.0
C384 C 0.95191 0.06278 0.01779 0.0
C385 C 0.93045 0.04746 0.97151 0.0
C386 C 0.03562 0.04617 0.08228 0.0
C387 C 0.98377 0.04467 0.01013 0.0
H388 H 0.18655 0.01738 0.10819 0.0
H389 H 0.13565 0.05506 0.12302 0.0
H390 H 0.1655 0.03536 0.13701 0.0
H391 H 0.14679 0.03761 0.0504 0.0
H392 H 0.9035 0.06298 0.98172 0.0
H393 H 0.95907 0.03247 0.96627 0.0
H394 H 0.96043 0.06905 0.03559 0.0
H395 H 0.92213 0.04153 0.9536 0.0
Eu396 Eu 0.26304 0.80205 0.32643 0.0
C397 C 0.31477 0.75545 0.23768 0.0
N398 N 0.32435 0.77357 0.2538 0.0
C399 C 0.35782 0.75843 0.26061 0.0
C400 C 0.32613 0.73763 0.2328 0.0
C401 C 0.34569 0.77551 0.26506 0.0
C402 C 0.34789 0.73926 0.24461 0.0
C403 C 0.28362 0.73708 0.20789 0.0
C404 C 0.29388 0.75523 0.22548 0.0
C405 C 0.29424 0.71865 0.20381 0.0
C406 C 0.31553 0.71897 0.21617 0.0
Eu407 Eu 0.30114 0.79895 0.26471 0.0
N408 N 0.2843 0.77345 0.22983 0.0
C409 C 0.2634 0.73837 0.19441 0.0
C410 C 0.26585 0.77574 0.21499 0.0
C411 C 0.25481 0.75805 0.19756 0.0
H412 H 0.35327 0.79007 0.27782 0.0
H413 H 0.23976 0.7597 0.18645 0.0
H414 H 0.21166 0.81259 0.30779 0.0
H415 H 0.32132 0.84014 0.40647 0.0
H416 H 0.25945 0.79114 0.21624 0.0
H417 H 0.25489 0.72474 0.18083 0.0
H418 H 0.30469 0.8106 0.37333 0.0
H419 H 0.37468 0.75993 0.26973 0.0
H420 H 0.28646 0.70439 0.19064 0.0
H421 H 0.32382 0.70493 0.21243 0.0
H422 H 0.18931 0.84157 0.31644 0.0
H423 H 0.35725 0.72597 0.2413 0.0
H424 H 0.30287 0.87252 0.41523 0.0
N425 N 0.23907 0.82767 0.33457 0.0
C426 C 0.24678 0.84409 0.35327 0.0
C427 C 0.20557 0.84264 0.32675 0.0
C428 C 0.23453 0.86109 0.35875 0.0
C429 C 0.21846 0.82635 0.32174 0.0
C430 C 0.21377 0.86026 0.34512 0.0
N431 N 0.27812 0.82693 0.36172 0.0
C432 C 0.29685 0.82496 0.37622 0.0
C433 C 0.27551 0.86077 0.3865 0.0
C434 C 0.2669 0.84378 0.36719 0.0
C435 C 0.29562 0.8597 0.40036 0.0
C436 C 0.30613 0.84151 0.39542 0.0
H437 H 0.20379 0.87293 0.34887 0.0
H438 H 0.2342 0.8916 0.38197 0.0
H439 H 0.27022 0.89148 0.40607 0.0
O440 O 0.2623 0.77405 0.34725 0.0
O441 O 0.28126 0.83669 0.32334 0.0
O442 O 0.28809 0.81394 0.29492 0.0
O443 O 0.23124 0.785 0.3362 0.0
O444 O 0.30015 0.79568 0.33306 0.0
O445 O 0.32216 0.79915 0.30088 0.0
O446 O 0.30137 0.82744 0.24466 0.0
O447 O 0.29218 0.76672 0.28031 0.0
O448 O 0.26247 0.77845 0.29342 0.0
O449 O 0.33269 0.82251 0.26311 0.0
O450 O 0.26434 0.80328 0.25674 0.0
O451 O 0.24322 0.80366 0.28951 0.0
C452 C 0.29127 0.83441 0.30488 0.0
C453 C 0.2346 0.77097 0.37307 0.0
C454 C 0.23741 0.75328 0.40886 0.0
C455 C 0.22363 0.76668 0.4191 0.0
C456 C 0.22066 0.78448 0.38313 0.0
C457 C 0.21519 0.78224 0.40613 0.0
C458 C 0.2428 0.75543 0.38601 0.0
C459 C 0.31951 0.7963 0.32343 0.0
C460 C 0.24084 0.77225 0.34916 0.0
C461 C 0.24326 0.87826 0.3777 0.0
C462 C 0.26375 0.87817 0.39145 0.0
C463 C 0.27488 0.76328 0.2922 0.0
C464 C 0.33514 0.84286 0.22976 0.0
C465 C 0.33492 0.85544 0.19055 0.0
C466 C 0.35848 0.86282 0.19508 0.0
C467 C 0.35865 0.85036 0.23395 0.0
C468 C 0.32329 0.84555 0.208 0.0
C469 C 0.37023 0.86027 0.21666 0.0
C470 C 0.24561 0.80472 0.26654 0.0
C471 C 0.32312 0.83456 0.24913 0.0
H472 H 0.21911 0.76477 0.43679 0.0
H473 H 0.214 0.79662 0.3733 0.0
H474 H 0.20431 0.79245 0.41384 0.0
H475 H 0.25337 0.7448 0.37824 0.0
H476 H 0.36777 0.87097 0.18207 0.0
H477 H 0.36802 0.84902 0.25084 0.0
H478 H 0.30508 0.84013 0.20463 0.0
H479 H 0.38833 0.86627 0.22013 0.0
Eu480 Eu 0.5035 0.03223 0.55891 0.0
C481 C 0.58133 0.07809 0.50074 0.0
N482 N 0.56564 0.05847 0.49617 0.0
C483 C 0.55597 0.06638 0.45635 0.0
C484 C 0.5842 0.093 0.4834 0.0
C485 C 0.55394 0.05195 0.47386 0.0
C486 C 0.57088 0.08715 0.46125 0.0
C487 C 0.61262 0.10248 0.52699 0.0
C488 C 0.59546 0.08291 0.52239 0.0
C489 C 0.61495 0.11758 0.51 0.0
C490 C 0.60071 0.11292 0.48834 0.0
Eu491 Eu 0.56412 0.03623 0.52803 0.0
N492 N 0.59265 0.06833 0.53887 0.0
C493 C 0.62722 0.10606 0.54838 0.0
C494 C 0.60773 0.07083 0.55885 0.0
C495 C 0.62502 0.08995 0.56418 0.0
H496 H 0.54338 0.03546 0.46894 0.0
H497 H 0.63684 0.09206 0.58024 0.0
H498 H 0.51878 0.0302 0.61785 0.0
H499 H 0.43996 0.97439 0.49514 0.0
H500 H 0.6067 0.05775 0.5703 0.0
H501 H 0.64067 0.12085 0.5525 0.0
H502 H 0.46671 0.00999 0.51019 0.0
H503 H 0.54633 0.06126 0.43889 0.0
H504 H 0.6279 0.13281 0.51332 0.0
H505 H 0.60298 0.1246 0.47527 0.0
H506 H 0.51121 1.00351 0.6469 0.0
H507 H 0.57259 0.09816 0.44749 0.0
H508 H 0.43286 0.94465 0.52146 0.0
N509 N 0.4988 0.00809 0.58864 0.0
C510 C 0.48353 0.98837 0.58173 0.0
C511 C 0.50359 0.99892 0.62857 0.0
C512 C 0.47843 0.9728 0.59804 0.0
C513 C 0.50815 0.01388 0.61187 0.0
C514 C 0.48887 0.97821 0.62159 0.0
N515 N 0.47705 0.9993 0.543 0.0
C516 C 0.46496 0.99654 0.521 0.0
C517 C 0.45643 0.96366 0.55105 0.0
C518 C 0.47237 0.98389 0.55843 0.0
C519 C 0.44519 0.95998 0.52778 0.0
C520 C 0.44926 0.97664 0.51281 0.0
H521 H 0.48527 0.96674 0.63465 0.0
H522 H 0.45876 0.9404 0.60287 0.0
H523 H 0.43972 0.93234 0.56177 0.0
O524 O 0.47212 0.04399 0.54788 0.0
O525 O 0.51402 0.99799 0.54645 0.0
O526 O 0.54116 1.00114 0.51986 0.0
O527 O 0.48512 0.04544 0.58572 0.0
O528 O 0.51229 0.0448 0.52496 0.0
O529 O 0.53229 0.02386 0.50399 0.0
O530 O 0.59302 0.02036 0.54065 0.0
O531 O 0.55733 0.07118 0.54412 0.0
O532 O 0.52352 0.06876 0.56121 0.0
O533 O 0.58395 0.02356 0.50301 0.0
O534 O 0.55449 0.02538 0.56243 0.0
O535 O 0.53435 0.04486 0.58452 0.0
C536 C 0.52591 0.98903 0.53089 0.0
C537 C 0.45045 0.05864 0.57793 0.0
C538 C 0.41963 0.0783 0.57055 0.0
C539 C 0.41543 0.07771 0.59425 0.0
C540 C 0.44605 0.05819 0.60167 0.0
C541 C 0.42861 0.06768 0.60974 0.0
C542 C 0.43712 0.06873 0.56232 0.0
C543 C 0.51366 0.03089 0.50655 0.0
C544 C 0.46948 0.0493 0.57013 0.0
C545 C 0.46278 0.95254 0.59057 0.0
C546 C 0.4519 0.94795 0.56715 0.0
C547 C 0.54224 0.08062 0.55495 0.0
C548 C 0.61632 1.00697 0.51063 0.0
C549 C 0.6458 0.98477 0.51536 0.0
C550 C 0.65005 0.98737 0.49189 0.0
C551 C 0.6211 0.00915 0.48721 0.0
C552 C 0.629 0.99492 0.52495 0.0
C553 C 0.6378 0.99945 0.478 0.0
C554 C 0.55355 0.03961 0.58078 0.0
C555 C 0.5975 0.01687 0.51873 0.0
H556 H 0.40203 0.0852 0.60079 0.0
H557 H 0.45614 0.05056 0.61407 0.0
H558 H 0.42539 0.06737 0.62805 0.0
H559 H 0.44045 0.06942 0.54404 0.0
H560 H 0.66311 0.98012 0.48425 0.0
H561 H 0.61183 0.01837 0.47577 0.0
H562 H 0.62552 0.99298 0.54298 0.0
H563 H 0.64124 1.00126 0.45995 0.0
Eu564 Eu 0.32623 0.27201 0.79183 0.0
C565 C 0.24304 0.30509 0.73725 0.0
N566 N 0.25827 0.31573 0.75609 0.0
C567 C 0.26052 0.3508 0.73997 0.0
C568 C 0.23622 0.317 0.71873 0.0
C569 C 0.2667 0.33835 0.75796 0.0
C570 C 0.24531 0.34007 0.7202 0.0
C571 C 0.21827 0.27073 0.71717 0.0
C572 C 0.2342 0.28217 0.73644 0.0
C573 C 0.21149 0.28256 0.69872 0.0
C574 C 0.22048 0.3056 0.69946 0.0
Eu575 Eu 0.26714 0.29313 0.78549 0.0
N576 N 0.24158 0.27094 0.75417 0.0
C577 C 0.20977 0.24768 0.71696 0.0
C578 C 0.23241 0.24885 0.75473 0.0
C579 C 0.21671 0.23675 0.73596 0.0
H580 H 0.27777 0.34701 0.77356 0.0
H581 H 0.20972 0.21909 0.73635 0.0
H582 H 0.31447 0.21759 0.80213 0.0
H583 H 0.37871 0.34605 0.84664 0.0
H584 H 0.23664 0.24072 0.76991 0.0
H585 H 0.19758 0.23827 0.70244 0.0
H586 H 0.35387 0.32519 0.81114 0.0
H587 H 0.26732 0.36872 0.74148 0.0
H588 H 0.19936 0.27403 0.68372 0.0
H589 H 0.21509 0.31447 0.68505 0.0
H590 H 0.3234 0.19512 0.83412 0.0
H591 H 0.2405 0.3498 0.70633 0.0
H592 H 0.389 0.32591 0.88042 0.0
N593 N 0.33278 0.24869 0.82125 0.0
C594 C 0.34664 0.25916 0.84123 0.0
C595 C 0.3299 0.21312 0.8364 0.0
C596 C 0.35254 0.24681 0.85972 0.0
C597 C 0.32461 0.22598 0.81844 0.0
C598 C 0.3439 0.22357 0.85713 0.0
N599 N 0.34887 0.29404 0.8253 0.0
C600 C 0.35765 0.31643 0.82602 0.0
C601 C 0.36954 0.29352 0.86369 0.0
C602 C 0.35507 0.28236 0.84322 0.0
C603 C 0.37783 0.31674 0.86499 0.0
C604 C 0.37199 0.32819 0.846 0.0
H605 H 0.34807 0.21351 0.87093 0.0
H606 H 0.3717 0.2487 0.89444 0.0
H607 H 0.38655 0.2895 0.89791 0.0
O608 O 0.35522 0.28312 0.77271 0.0
O609 O 0.31145 0.28303 0.82574 0.0
O610 O 0.29304 0.31116 0.81605 0.0
O611 O 0.35116 0.25117 0.78675 0.0
O612 O 0.32461 0.30327 0.77345 0.0
O613 O 0.29867 0.32093 0.79054 0.0
O614 O 0.23929 0.28276 0.80762 0.0
O615 O 0.2794 0.28055 0.75013 0.0
O616 O 0.30345 0.25595 0.7579 0.0
O617 O 0.24541 0.31582 0.79536 0.0
O618 O 0.27093 0.26221 0.80363 0.0
O619 O 0.29491 0.24431 0.78358 0.0
C620 C 0.30324 0.30104 0.83181 0.0
C621 C 0.37233 0.2545 0.75413 0.0
C622 C 0.40235 0.25555 0.72848 0.0
C623 C 0.39362 0.23277 0.71974 0.0
C624 C 0.36379 0.23184 0.74477 0.0
C625 C 0.37443 0.2211 0.72772 0.0
C626 C 0.39147 0.26645 0.74561 0.0
C627 C 0.31702 0.32156 0.77993 0.0
C628 C 0.36318 0.26483 0.77471 0.0
C629 C 0.36694 0.25795 0.88011 0.0
C630 C 0.3754 0.2812 0.88209 0.0
C631 C 0.29123 0.26541 0.7429 0.0
C632 C 0.2139 0.30944 0.81826 0.0
C633 C 0.18265 0.30532 0.84299 0.0
C634 C 0.17895 0.32656 0.83808 0.0
C635 C 0.20937 0.33064 0.81399 0.0
C636 C 0.20019 0.2965 0.83282 0.0
C637 C 0.19213 0.33902 0.82374 0.0
C638 C 0.277 0.24376 0.79481 0.0
C639 C 0.23307 0.30214 0.80707 0.0
H640 H 0.40162 0.22399 0.70656 0.0
H641 H 0.3492 0.2222 0.75102 0.0
H642 H 0.36791 0.20356 0.72086 0.0
H643 H 0.3984 0.28384 0.75295 0.0
H644 H 0.16562 0.3336 0.84539 0.0
H645 H 0.21922 0.34102 0.80295 0.0
H646 H 0.20327 0.28014 0.83644 0.0
H647 H 0.18898 0.35536 0.82017 0.0
Eu648 Eu 0.05591 1.00532 0.52527 0.0
C649 C 0.0218 0.08208 0.57987 0.0
N650 N 0.01264 0.07022 0.55836 0.0
C651 C 0.976 0.06423 0.57159 0.0
C652 C 1.00848 0.08464 0.59845 0.0
C653 C 0.9898 0.06259 0.55358 0.0
C654 C 0.98545 0.07493 0.59426 0.0
C655 C 0.05365 0.10768 0.60381 0.0
C656 C 0.04412 0.09341 0.58266 0.0
C657 C 0.04084 0.1092 0.62283 0.0
C658 C 0.01831 0.09766 0.62017 0.0
Eu659 Eu 0.0384 0.0668 0.53014 0.0
N660 N 0.05614 0.09155 0.56405 0.0
C661 C 0.07543 0.12068 0.60477 0.0
C662 C 0.07639 0.10561 0.56399 0.0
C663 C 0.08665 0.12002 0.58455 0.0
H664 H 0.98196 0.05539 0.53585 0.0
H665 H 0.10306 0.13069 0.58473 0.0
H666 H 0.11035 0.0155 0.51474 0.0
H667 H 0.98217 0.9492 0.4733 0.0
H668 H 0.0845 0.10552 0.548 0.0
H669 H 0.08333 0.13191 0.62067 0.0
H670 H 1.0033 0.97465 0.50826 0.0
H671 H 0.95801 0.05759 0.56784 0.0
H672 H 0.04794 0.11984 0.63936 0.0
H673 H 1.00838 0.09962 0.63471 0.0
H674 H 0.13246 1.0064 0.48257 0.0
H675 H 0.97464 0.0765 0.60806 0.0
H676 H 1.00157 0.93992 0.43857 0.0
N677 N 0.07881 0.99838 0.49547 0.0
C678 C 0.06817 0.98426 0.47576 0.0
C679 C 0.11437 1.00029 0.4803 0.0
C680 C 0.08033 0.97823 0.45711 0.0
C681 C 0.10167 1.00574 0.49837 0.0
C682 C 0.10364 0.98666 0.45949 0.0
N683 N 0.03375 0.98114 0.4928 0.0
C684 C 0.01166 0.97146 0.49289 0.0
C685 C 0.0338 0.96056 0.45423 0.0
C686 C 0.04509 0.97543 0.47438 0.0
C687 C 0.01082 0.95141 0.45373 0.0
C688 C 0.99979 0.95666 0.47327 0.0
H689 H 0.11356 0.98236 0.44558 0.0
H690 H 0.07809 0.95897 0.4224 0.0
H691 H 0.03741 0.94359 0.41982 0.0
O692 O 0.04821 0.97035 0.53381 0.0
O693 O 0.04828 0.02111 0.49096 0.0
O694 O 0.021 0.04183 0.49848 0.0
O695 O 0.08225 0.99117 0.54358 0.0
O696 O 0.02311 1.00714 0.54019 0.0
O697 O 1.00938 0.03566 0.52297 0.0
O698 O 0.05081 0.09076 0.50577 0.0
O699 O 0.06201 0.05888 0.56129 0.0
O700 O 0.04845 0.02127 0.56082 0.0
O701 O 0.02215 0.09514 0.5235 0.0
O702 O 0.06978 0.0612 0.51386 0.0
O703 O 0.08493 0.03549 0.53415 0.0
C704 C 0.03121 0.0304 0.48372 0.0
C705 C 0.07726 0.95291 0.55317 0.0
C706 C 0.07303 0.92096 0.57606 0.0
C707 C 0.0943 0.91737 0.57092 0.0
C708 C 0.09849 0.94904 0.54839 0.0
C709 C 0.10685 0.93124 0.55707 0.0
C710 C 0.06428 0.93857 0.56673 0.0
C711 C 1.00645 0.01679 0.53293 0.0
C712 C 0.06887 0.97172 0.54352 0.0
C713 C 0.06901 0.96373 0.4369 0.0
C714 C 0.04583 0.95496 0.43544 0.0
C715 C 0.05924 0.04075 0.57233 0.0
C716 C 0.02509 0.11088 0.48723 0.0
C717 C 0.02245 0.14097 0.46196 0.0
C718 C 1.00246 0.12753 0.44947 0.0
C719 C 1.00532 0.09779 0.47411 0.0
C720 C 0.0339 0.13239 0.48083 0.0
C721 C 0.99412 0.10611 0.45537 0.0
C722 C 0.08712 0.05393 0.52372 0.0
C723 C 0.03557 0.10291 0.50861 0.0
H724 H 0.10123 0.90376 0.5777 0.0
H725 H 0.10853 0.95969 0.53772 0.0
H726 H 0.12318 0.92825 0.55317 0.0
H727 H 0.04789 0.9415 0.57058 0.0
H728 H 0.99327 0.13361 0.43497 0.0
H729 H 0.99831 0.0813 0.47867 0.0
H730 H 0.0491 0.14268 0.49096 0.0
H731 H 0.9787 0.09601 0.44555 0.0
Eu732 Eu 0.29901 0.82856 0.75574 0.0
C733 C 0.24706 0.74687 0.80755 0.0
N734 N 0.2676 0.76087 0.81444 0.0
C735 C 0.25989 0.76443 0.85501 0.0
C736 C 0.23202 0.7416 0.82437 0.0
C737 C 0.27449 0.76885 0.83795 0.0
C738 C 0.23852 0.75091 0.84819 0.0
C739 C 0.22048 0.72163 0.77672 0.0
C740 C 0.24123 0.73683 0.78379 0.0
C741 C 0.20549 0.71678 0.79348 0.0
C742 C 0.21122 0.72673 0.81716 0.0
Eu743 Eu 0.29048 0.76497 0.78353 0.0
N744 N 0.25587 0.74176 0.76762 0.0
C745 C 0.21553 0.71135 0.75306 0.0
C746 C 0.25166 0.73103 0.74489 0.0
C747 C 0.23127 0.71594 0.73714 0.0
H748 H 0.29141 0.7781 0.84404 0.0
H749 H 0.22785 0.70762 0.719 0.0
H750 H 0.30092 0.81465 0.69541 0.0
H751 H 0.35717 0.89109 0.81929 0.0
H752 H 0.26411 0.73387 0.7329 0.0
H753 H 0.1998 0.6995 0.74703 0.0
H754 H 0.32101 0.86507 0.8037 0.0
H755 H 0.26535 0.77104 0.87353 0.0
H756 H 0.18951 0.70509 0.78835 0.0
H757 H 0.19956 0.72251 0.82991 0.0
H758 H 0.32882 0.82024 0.66763 0.0
H759 H 0.22742 0.74723 0.86158 0.0
H760 H 0.38796 0.89635 0.79393 0.0
N761 N 0.32351 0.83215 0.72587 0.0
C762 C 0.34393 0.84622 0.73336 0.0
C763 C 0.33342 0.82728 0.68615 0.0
C764 C 0.36012 0.85056 0.71747 0.0
C765 C 0.31774 0.82369 0.70231 0.0
C766 C 0.35479 0.84049 0.69381 0.0
N767 N 0.33261 0.85345 0.77183 0.0
C768 C 0.33496 0.86618 0.79341 0.0
C769 C 0.36897 0.87278 0.76433 0.0
C770 C 0.34841 0.8574 0.75667 0.0
C771 C 0.37239 0.88441 0.78742 0.0
C772 C 0.35513 0.88139 0.80187 0.0
H773 H 0.36676 0.84347 0.6811 0.0
H774 H 0.39345 0.86872 0.71338 0.0
H775 H 0.40118 0.88806 0.75432 0.0
O776 O 0.28301 0.85591 0.76997 0.0
O777 O 0.33191 0.81848 0.77347 0.0
O778 O 0.32741 0.78446 0.79069 0.0
O779 O 0.2944 0.8555 0.73514 0.0
O780 O 0.28613 0.81512 0.78794 0.0
O781 O 0.30324 0.79428 0.81128 0.0
O782 O 0.30376 0.73642 0.76747 0.0
O783 O 0.25781 0.77632 0.76778 0.0
O784 O 0.26196 0.80827 0.7471 0.0
O785 O 0.29776 0.73867 0.80426 0.0
O786 O 0.30402 0.78107 0.75318 0.0
O787 O 0.28712 0.79955 0.72765 0.0
C788 C 0.34011 0.80304 0.785 0.0
C789 C 0.2636 0.87272 0.74023 0.0
C790 C 0.23919 0.90023 0.74128 0.0
C791 C 0.22835 0.89033 0.71854 0.0
C792 C 0.25238 0.8629 0.71764 0.0
C793 C 0.23495 0.8718 0.70685 0.0
C794 C 0.25689 0.89129 0.75201 0.0
C795 C 0.29936 0.81387 0.80702 0.0
C796 C 0.28382 0.8654 0.75045 0.0
C797 C 0.38085 0.86535 0.72537 0.0
C798 C 0.38525 0.87642 0.74868 0.0
C799 C 0.24937 0.79069 0.75491 0.0
C800 C 0.32773 0.72144 0.79484 0.0
C801 C 0.35123 0.69303 0.79509 0.0
C802 C 0.36618 0.70665 0.81371 0.0
C803 C 0.3431 0.73495 0.8133 0.0
C804 C 0.33206 0.70053 0.7855 0.0
C805 C 0.3622 0.72757 0.82261 0.0
C806 C 0.29236 0.78076 0.7327 0.0
C807 C 0.30606 0.7279 0.78744 0.0
H808 H 0.21453 0.89671 0.70988 0.0
H809 H 0.2574 0.84866 0.70808 0.0
H810 H 0.22657 0.86437 0.68932 0.0
H811 H 0.2659 0.89915 0.76918 0.0
H812 H 0.38088 0.70098 0.82144 0.0
H813 H 0.33991 0.75088 0.82108 0.0
H814 H 0.32016 0.6898 0.77153 0.0
H815 H 0.37369 0.73786 0.83713 0.0
Eu816 Eu 0.53227 0.06678 0.98918 0.0
C817 C 0.57456 0.01513 0.07653 0.0
N818 N 0.55766 1.00604 0.05867 0.0
C819 C 0.57321 0.97282 0.05249 0.0
C820 C 0.59186 1.00345 0.08272 0.0
C821 C 0.55666 0.98521 0.04666 0.0
C822 C 0.59093 0.982 0.07055 0.0
C823 C 0.59299 0.04683 0.10584 0.0
C824 C 0.57502 0.03659 0.08796 0.0
C825 C 0.61029 0.03527 0.11198 0.0
C826 C 0.60968 0.01361 0.10053 0.0
Eu827 Eu 0.53058 0.02783 0.04926 0.0
N828 N 0.5582 0.04757 0.08129 0.0
C829 C 0.5931 0.06842 0.11705 0.0
C830 C 0.55776 0.06817 0.09322 0.0
C831 C 0.57527 0.07901 0.11089 0.0
H832 H 0.543 0.97808 0.03266 0.0
H833 H 0.57489 0.09549 0.11989 0.0
H834 H 0.52165 0.11789 0.00716 0.0
H835 H 0.49331 1.00622 0.911 0.0
H836 H 0.54397 0.07649 0.0898 0.0
H837 H 0.60666 0.07689 0.13074 0.0
H838 H 0.52111 0.02153 0.94599 0.0
H839 H 0.57235 0.95627 0.04296 0.0
H840 H 0.62422 0.04293 0.1256 0.0
H841 H 0.62317 1.00492 0.10545 0.0
H842 H 0.49461 0.14166 0.99589 0.0
H843 H 0.60385 0.97245 0.07486 0.0
H844 H 0.46453 0.02767 0.89779 0.0
N845 N 0.50801 0.09146 0.979 0.0
C846 C 0.49293 0.08447 0.95899 0.0
C847 C 0.49381 0.12552 0.98549 0.0
C848 C 0.47703 0.0975 0.95202 0.0
C849 C 0.50898 0.11187 0.99198 0.0
C850 C 0.47762 0.11821 0.96558 0.0
N851 N 0.50801 0.05132 0.95343 0.0
C852 C 0.50865 0.03114 0.94079 0.0
C853 C 0.47674 0.05569 0.92566 0.0
C854 C 0.49297 0.06391 0.94575 0.0
C855 C 0.47681 0.03462 0.91322 0.0
C856 C 0.49297 0.02241 0.92069 0.0
H857 H 0.46573 0.12873 0.96076 0.0
H858 H 0.44843 0.09907 0.92651 0.0
H859 H 0.44803 0.06238 0.90361 0.0
O860 O 0.56055 0.06742 0.96892 0.0
O861 O 0.49638 0.04997 0.98855 0.0
O862 O 0.51492 0.03904 0.01747 0.0
O863 O 0.55118 0.09879 0.98156 0.0
O864 O 0.54161 0.03074 0.98458 0.0
O865 O 0.5258 1.00709 0.01175 0.0
O866 O 0.50361 0.02708 0.07149 0.0
O867 O 0.56492 0.03821 0.03874 0.0
O868 O 0.55178 0.06601 0.02418 0.0
O869 O 0.51395 0.99595 0.05981 0.0
O870 O 0.5194 0.06209 0.05552 0.0
O871 O 0.52967 0.08582 0.02628 0.0
C872 C 0.49522 0.03818 0.00579 0.0
C873 C 0.56444 0.09586 0.94411 0.0
C874 C 0.57894 0.09083 0.90636 0.0
C875 C 0.56814 0.10761 0.89824 0.0
C876 C 0.55372 0.11279 0.9361 0.0
C877 C 0.55554 0.11853 0.91313 0.0
C878 C 0.57674 0.08491 0.92908 0.0
C879 C 0.53565 0.01047 0.99208 0.0
C880 C 0.56331 0.08905 0.96789 0.0
C881 C 0.46092 0.08938 0.93197 0.0
C882 C 0.46072 0.06851 0.91889 0.0
C883 C 0.56775 0.05469 0.02605 0.0
C884 C 0.50134 0.99992 0.09783 0.0
C885 C 0.48523 1.00333 0.13484 0.0
C886 C 0.49824 0.98859 0.14388 0.0
C887 C 0.51456 0.98538 0.10701 0.0
C888 C 0.48686 0.009 0.11192 0.0
C889 C 0.51296 0.97977 0.13002 0.0
C890 C 0.52238 0.08205 0.04722 0.0
C891 C 0.5019 1.00577 0.07361 0.0
H892 H 0.57001 0.1127 0.88077 0.0
H893 H 0.54403 0.12154 0.94746 0.0
H894 H 0.54745 0.13167 0.907 0.0
H895 H 0.58497 0.07181 0.93526 0.0
H896 H 0.49707 0.98405 0.16167 0.0
H897 H 0.52599 0.9783 0.09647 0.0
H898 H 0.47653 0.02018 0.10491 0.0
H899 H 0.52305 0.96849 0.13707 0.0
Eu900 Eu 0.27071 0.25075 0.25462 0.0
C901 C 0.34866 0.32749 0.31204 0.0
N902 N 0.3291 0.31635 0.31849 0.0
C903 C 0.34628 0.32022 0.35901 0.0
C904 C 0.36788 0.33545 0.32909 0.0
C905 C 0.32771 0.31264 0.34155 0.0
C906 C 0.36647 0.3317 0.35277 0.0
C907 C 0.36941 0.3435 0.28155 0.0
C908 C 0.34934 0.33165 0.28847 0.0
C909 C 0.38855 0.35122 0.29849 0.0
C910 C 0.38775 0.34733 0.32219 0.0
Eu911 Eu 0.29746 0.30941 0.28896 0.0
N912 N 0.33029 0.32476 0.27251 0.0
C913 C 0.36951 0.34791 0.25795 0.0
C914 C 0.33008 0.33034 0.24993 0.0
C915 C 0.34969 0.34142 0.24211 0.0
H916 H 0.31193 0.30521 0.34681 0.0
H917 H 0.34932 0.34551 0.22404 0.0
H918 H 0.26106 0.25922 0.19666 0.0
H919 H 0.21259 0.20898 0.31074 0.0
H920 H 0.31479 0.32731 0.23813 0.0
H921 H 0.38459 0.35693 0.25197 0.0
H922 H 0.24802 0.23125 0.30198 0.0
H923 H 0.34484 0.31766 0.37736 0.0
H924 H 0.40399 0.36055 0.2935 0.0
H925 H 0.40257 0.35373 0.33512 0.0
H926 H 0.23042 0.2489 0.16347 0.0
H927 H 0.38076 0.33786 0.36642 0.0
H928 H 0.18046 0.1963 0.27881 0.0
N929 N 0.24141 0.24498 0.22216 0.0
C930 C 0.22135 0.23229 0.22567 0.0
C931 C 0.22752 0.24442 0.18095 0.0
C932 C 0.20355 0.22523 0.20679 0.0
C933 C 0.24475 0.25083 0.20007 0.0
C934 C 0.20683 0.23157 0.1843 0.0
N935 N 0.23621 0.23256 0.26592 0.0
C936 C 0.23418 0.22647 0.28808 0.0
C937 C 0.19819 0.21243 0.25213 0.0
C938 C 0.21874 0.22577 0.24806 0.0
C939 C 0.19599 0.20645 0.27497 0.0
C940 C 0.21405 0.2136 0.29304 0.0
H941 H 0.19364 0.22632 0.16934 0.0
H942 H 0.16947 0.20604 0.19641 0.0
H943 H 0.16471 0.19502 0.23615 0.0
O944 O 0.28197 0.21955 0.26159 0.0
O945 O 0.24315 0.27006 0.2665 0.0
O946 O 0.26074 0.29872 0.29634 0.0
O947 O 0.26918 0.22447 0.22538 0.0
O948 O 0.28573 0.25069 0.29359 0.0
O949 O 0.28328 0.28496 0.31345 0.0
O950 O 0.29285 0.34259 0.28129 0.0
O951 O 0.3231 0.28629 0.28158 0.0
O952 O 0.30679 0.26543 0.24625 0.0
O953 O 0.29955 0.33625 0.31787 0.0
O954 O 0.27723 0.30836 0.25237 0.0
O955 O 0.28534 0.27714 0.23283 0.0
C956 C 0.24221 0.28599 0.28402 0.0
C957 C 0.28093 0.18946 0.22927 0.0
C958 C 0.29626 0.15658 0.23666 0.0
C959 C 0.29596 0.15093 0.21199 0.0
C960 C 0.2804 0.18371 0.20465 0.0
C961 C 0.28758 0.16424 0.19605 0.0
C962 C 0.28757 0.17523 0.24493 0.0
C963 C 0.28412 0.26353 0.31335 0.0
C964 C 0.27731 0.21143 0.23904 0.0
C965 C 0.18322 0.21174 0.21076 0.0
C966 C 0.18052 0.20541 0.23337 0.0
C967 C 0.32508 0.2744 0.26139 0.0
C968 C 0.27595 0.36181 0.31018 0.0
C969 C 0.25414 0.38987 0.3017 0.0
C970 C 0.245 0.38813 0.32318 0.0
C971 C 0.26652 0.3596 0.33158 0.0
C972 C 0.26928 0.37661 0.29514 0.0
C973 C 0.25096 0.3727 0.33794 0.0
C974 C 0.27939 0.29659 0.23239 0.0
C975 C 0.29387 0.35023 0.30377 0.0
H976 H 0.30283 0.13677 0.20501 0.0
H977 H 0.27519 0.19457 0.19214 0.0
H978 H 0.28753 0.15998 0.1771 0.0
H979 H 0.28705 0.17941 0.26382 0.0
H980 H 0.23359 0.39888 0.3286 0.0
H981 H 0.27135 0.34809 0.34351 0.0
H982 H 0.27689 0.37882 0.27889 0.0
H983 H 0.24387 0.3712 0.3545 0.0
Eu984 Eu 0.5578 0.50197 0.02132 0.0
C985 C 0.52289 0.58819 0.07171 0.0
N986 N 0.51297 0.57259 0.0529 0.0
C987 C 0.47735 0.56953 0.06811 0.0
C988 C 0.51039 0.59472 0.08982 0.0
C989 C 0.49039 0.56371 0.0505 0.0
C990 C 0.48742 0.58495 0.08797 0.0
C991 C 0.55639 0.61423 0.09189 0.0
C992 C 0.54563 0.59773 0.07284 0.0
C993 C 0.54405 0.62059 0.11009 0.0
C994 C 0.52114 0.61079 0.10911 0.0
Eu995 Eu 0.53697 0.56259 0.02526 0.0
N996 N 0.5574 0.59047 0.05559 0.0
C997 C 0.57934 0.62351 0.09228 0.0
C998 C 0.57942 0.60018 0.05524 0.0
C999 C 0.59084 0.61661 0.07371 0.0
H1000 H 0.48226 0.55223 0.03495 0.0
H1001 H 0.60844 0.62405 0.07352 0.0
H1002 H 0.61175 0.517 0.00892 0.0
H1003 H 0.48483 0.44513 0.96976 0.0
H1004 H 0.58804 0.59558 0.04052 0.0
H1005 H 0.58826 0.63614 0.10666 0.0
H1006 H 0.50529 0.47242 0.00378 0.0
H1007 H 0.45951 0.5622 0.0663 0.0
H1008 H 0.55209 0.63301 0.12504 0.0
H1009 H 0.51185 0.61587 0.12328 0.0
H1010 H 0.63388 0.50813 0.97673 0.0
H1011 H 0.47726 0.58943 0.10157 0.0
H1012 H 0.50525 0.43355 0.93665 0.0
N1013 N 0.58101 0.49616 0.99154 0.0
C1014 C 0.57089 0.48063 0.97265 0.0
C1015 C 0.61615 0.50045 0.97527 0.0
C1016 C 0.58319 0.47465 0.95412 0.0
C1017 C 0.6034 0.50575 0.99333 0.0
C1018 C 0.60601 0.48489 0.95557 0.0
N1019 N 0.5361 0.47765 0.98905 0.0
C1020 C 0.51395 0.46823 0.98894 0.0
C1021 C 0.5372 0.45486 0.95211 0.0
C1022 C 0.54801 0.47083 0.97161 0.0
C1023 C 0.51416 0.44579 0.95137 0.0
C1024 C 0.50252 0.45243 0.96992 0.0
H1025 H 0.61601 0.48074 0.94168 0.0
H1026 H 0.58165 0.4539 0.92041 0.0
H1027 H 0.5415 0.4366 0.91868 0.0
O1028 O 0.54762 0.47172 0.03896 0.0
O1029 O 0.5472 0.51544 0.9863 0.0
O1030 O 0.52007 0.53465 0.99642 0.0
O1031 O 0.58067 0.47913 0.02746 0.0
O1032 O 0.52556 0.50357 0.03828 0.0
O1033 O 0.5094 0.53097 0.02158 0.0
O1034 O 0.54936 0.58976 0.00384 0.0
O1035 O 0.55098 0.55331 0.06175 0.0
O1036 O 0.56986 0.5232 0.05703 0.0
O1037 O 0.5139 0.58032 0.00695 0.0
O1038 O 0.56798 0.5557 0.00927 0.0
O1039 O 0.58566 0.5331 0.03093 0.0
C1040 C 0.53059 0.5257 0.98021 0.0
C1041 C 0.57698 0.45583 0.05836 0.0
C1042 C 0.5756 0.42487 0.08275 0.0
C1043 C 0.59847 0.43305 0.09149 0.0
C1044 C 0.59974 0.46387 0.06783 0.0
C1045 C 0.61035 0.45251 0.08424 0.0
C1046 C 0.5648 0.43645 0.06626 0.0
C1047 C 0.50814 0.51291 0.03272 0.0
C1048 C 0.56696 0.46552 0.03799 0.0
C1049 C 0.57242 0.45869 0.93478 0.0
C1050 C 0.54955 0.44879 0.93381 0.0
C1051 C 0.5633 0.53929 0.07034 0.0
C1052 C 0.52592 0.61729 0.99692 0.0
C1053 C 0.52695 0.65063 0.97549 0.0
C1054 C 0.51248 0.6584 0.99065 0.0
C1055 C 0.51193 0.62606 0.01207 0.0
C1056 C 0.53375 0.62992 0.97869 0.0
C1057 C 0.50521 0.64633 0.00883 0.0
C1058 C 0.5862 0.55174 0.02107 0.0
C1059 C 0.52925 0.59371 0.99801 0.0
H1060 H 0.60714 0.42441 0.10413 0.0
H1061 H 0.6096 0.47859 0.06205 0.0
H1062 H 0.62798 0.45861 0.09109 0.0
H1063 H 0.54734 0.42987 0.05889 0.0
H1064 H 0.50682 0.67401 0.98845 0.0
H1065 H 0.50551 0.61686 0.02602 0.0
H1066 H 0.54429 0.62331 0.96662 0.0
H1067 H 0.49401 0.65258 0.02029 0.0
Eu1068 Eu 0.79553 0.32689 0.25611 0.0
C1069 C 0.74969 0.24777 0.30752 0.0
N1070 N 0.77082 0.26083 0.31338 0.0
C1071 C 0.76499 0.26514 0.35457 0.0
C1072 C 0.73506 0.24398 0.32503 0.0
C1073 C 0.7791 0.26794 0.33681 0.0
C1074 C 0.74271 0.25357 0.34858 0.0
C1075 C 0.72275 0.22048 0.27893 0.0
C1076 C 0.74343 0.23607 0.28455 0.0
C1077 C 0.70769 0.2179 0.29596 0.0
C1078 C 0.71379 0.22967 0.3189 0.0
Eu1079 Eu 0.7923 0.26393 0.28098 0.0
N1080 N 0.75824 0.2386 0.26823 0.0
C1081 C 0.71838 0.20696 0.2568 0.0
C1082 C 0.75515 0.22397 0.24779 0.0
C1083 C 0.73493 0.20829 0.24144 0.0
H1084 H 0.79667 0.27562 0.34215 0.0
H1085 H 0.73231 0.19693 0.22501 0.0
H1086 H 0.7978 0.30824 0.19664 0.0
H1087 H 0.8505 0.39862 0.31173 0.0
H1088 H 0.76854 0.22421 0.23673 0.0
H1089 H 0.70281 0.1946 0.25196 0.0
H1090 H 0.81588 0.36917 0.29983 0.0
H1091 H 0.77146 0.27151 0.37295 0.0
H1092 H 0.69166 0.20614 0.29186 0.0
H1093 H 0.70234 0.22675 0.33212 0.0
H1094 H 0.82565 0.3112 0.16881 0.0
H1095 H 0.73196 0.25104 0.36249 0.0
H1096 H 0.88118 0.40198 0.28624 0.0
N1097 N 0.82008 0.32845 0.22596 0.0
C1098 C 0.83988 0.34384 0.23196 0.0
C1099 C 0.83009 0.32006 0.18668 0.0
C1100 C 0.85603 0.34679 0.2158 0.0
C1101 C 0.81447 0.31791 0.20303 0.0
C1102 C 0.85114 0.33419 0.19324 0.0
N1103 N 0.82768 0.35536 0.26895 0.0
C1104 C 0.82954 0.3702 0.28905 0.0
C1105 C 0.86353 0.37447 0.25973 0.0
C1106 C 0.84361 0.35781 0.25374 0.0
C1107 C 0.86618 0.3889 0.28111 0.0
C1108 C 0.84895 0.387 0.29562 0.0
H1109 H 0.86307 0.33604 0.18036 0.0
H1110 H 0.88875 0.36512 0.21001 0.0
H1111 H 0.89535 0.38922 0.24844 0.0
O1112 O 0.78377 0.3589 0.26414 0.0
O1113 O 0.83013 0.32066 0.2744 0.0
O1114 O 0.82849 0.28502 0.28785 0.0
O1115 O 0.77871 0.34102 0.22782 0.0
O1116 O 0.78424 0.31686 0.29023 0.0
O1117 O 0.8036 0.29371 0.30871 0.0
O1118 O 0.80891 0.23767 0.26516 0.0
O1119 O 0.75954 0.27055 0.25942 0.0
O1120 O 0.76095 0.30918 0.26605 0.0
O1121 O 0.79942 0.23701 0.30063 0.0
O1122 O 0.80642 0.27846 0.25004 0.0
O1123 O 0.78312 0.29647 0.23 0.0
C1124 C 0.83974 0.30505 0.28409 0.0
C1125 C 0.76523 0.37583 0.2321 0.0
C1126 C 0.74602 0.40752 0.23716 0.0
C1127 C 0.74252 0.4068 0.2122 0.0
C1128 C 0.76191 0.37586 0.20731 0.0
C1129 C 0.75062 0.39125 0.19748 0.0
C1130 C 0.75746 0.39185 0.24706 0.0
C1131 C 0.79813 0.31334 0.30775 0.0
C1132 C 0.7761 0.35846 0.24178 0.0
C1133 C 0.87618 0.36282 0.22217 0.0
C1134 C 0.87992 0.3766 0.24405 0.0
C1135 C 0.74927 0.2881 0.26062 0.0
C1136 C 0.83058 0.221 0.29325 0.0
C1137 C 0.85387 0.19254 0.29277 0.0
C1138 C 0.86633 0.20354 0.31429 0.0
C1139 C 0.84359 0.23217 0.31454 0.0
C1140 C 0.83603 0.20132 0.2822 0.0
C1141 C 0.86131 0.22338 0.32501 0.0
C1142 C 0.793 0.27948 0.2312 0.0
C1143 C 0.80955 0.2278 0.2844 0.0
H1144 H 0.73317 0.41808 0.20391 0.0
H1145 H 0.76787 0.36381 0.19541 0.0
H1146 H 0.74788 0.39096 0.17835 0.0
H1147 H 0.76021 0.39203 0.2662 0.0
H1148 H 0.87987 0.19668 0.32283 0.0
H1149 H 0.83958 0.24726 0.32351 0.0
H1150 H 0.82591 0.1924 0.26598 0.0
H1151 H 0.87091 0.23174 0.34168 0.0
Eu1152 Eu 0.02814 0.56743 0.48618 0.0
C1153 C 0.07446 0.51627 0.57372 0.0
N1154 N 0.05621 0.50712 0.5575 0.0
C1155 C 0.06929 0.47239 0.55216 0.0
C1156 C 0.09123 0.50383 0.57951 0.0
C1157 C 0.05327 0.48551 0.54678 0.0
C1158 C 0.08842 0.48162 0.56852 0.0
C1159 C 0.0952 0.54816 0.60143 0.0
C1160 C 0.07632 0.5381 0.58456 0.0
C1161 C 0.1122 0.53604 0.60687 0.0
C1162 C 0.11018 0.51389 0.59602 0.0
Eu1163 Eu 0.03069 0.53037 0.54766 0.0
N1164 N 0.05952 0.54933 0.57891 0.0
C1165 C 0.09631 0.56999 0.61258 0.0
C1166 C 0.06002 0.57018 0.59087 0.0
C1167 C 0.07848 0.58091 0.6075 0.0
H1168 H 0.03858 0.47839 0.534 0.0
H1169 H 0.07886 0.59758 0.61651 0.0
H1170 H 0.01607 0.61786 0.50434 0.0
H1171 H 0.98323 0.50182 0.41455 0.0
H1172 H 0.04634 0.57881 0.58813 0.0
H1173 H 0.11056 0.57834 0.62551 0.0
H1174 H 0.01388 0.51958 0.44598 0.0
H1175 H 0.06693 0.45523 0.54361 0.0
H1176 H 0.12685 0.54355 0.61968 0.0
H1177 H 0.1233 0.50465 0.60059 0.0
H1178 H 0.98692 0.63985 0.4949 0.0
H1179 H 0.10087 0.47147 0.57257 0.0
H1180 H 0.95304 0.52207 0.40256 0.0
N1181 N 1.00173 0.59047 0.4774 0.0
C1182 C 0.98527 0.58231 0.45874 0.0
C1183 C 0.98618 0.62363 0.48469 0.0
C1184 C 0.96818 0.59437 0.45283 0.0
C1185 C 1.00259 0.61098 0.49013 0.0
C1186 C 0.96885 0.61526 0.46604 0.0
N1187 N 1.00112 0.54967 0.45297 0.0
C1188 C 1.00088 0.52874 0.44141 0.0
C1189 C 0.96715 0.55177 0.42784 0.0
C1190 C 0.98495 0.56136 0.44611 0.0
C1191 C 0.96655 0.53009 0.4165 0.0
C1192 C 0.98352 0.51858 0.42328 0.0
H1193 H 0.95606 0.62505 0.46201 0.0
H1194 H 0.93751 0.5941 0.42953 0.0
H1195 H 0.93644 0.55671 0.40788 0.0
O1196 O 0.05383 0.56784 0.4622 0.0
O1197 O 0.99307 0.55039 0.48963 0.0
O1198 O 0.01503 0.54413 0.5186 0.0
O1199 O 0.04533 0.59928 0.47662 0.0
O1200 O 0.03806 0.53178 0.48193 0.0
O1201 O 0.0252 0.50873 0.51093 0.0
O1202 O 1.00896 0.52987 0.5753 0.0
O1203 O 0.06317 0.53866 0.53252 0.0
O1204 O 0.05158 0.56846 0.51963 0.0
O1205 O 1.00602 0.49965 0.55007 0.0
O1206 O 0.02124 0.56547 0.55396 0.0
O1207 O 0.02932 0.58828 0.52338 0.0
C1208 C 0.99466 0.54084 0.50836 0.0
C1209 C 0.06605 0.60065 0.44334 0.0
C1210 C 0.08758 0.5993 0.40988 0.0
C1211 C 0.09042 0.62282 0.41063 0.0
C1212 C 0.06886 0.62417 0.44389 0.0
C1213 C 0.0809 0.63515 0.42748 0.0
C1214 C 0.07511 0.58831 0.42601 0.0
C1215 C 0.03334 0.51185 0.49038 0.0
C1216 C 0.05808 0.5898 0.4635 0.0
C1217 C 0.95078 0.58509 0.43425 0.0
C1218 C 0.95021 0.56381 0.42188 0.0
C1219 C 0.06687 0.55616 0.52104 0.0
C1220 C 0.98983 0.49565 0.58661 0.0
C1221 C 0.97337 0.495 0.62377 0.0
C1222 C 0.9652 0.47165 0.61787 0.0
C1223 C 0.98161 0.47237 0.58099 0.0
C1224 C 0.9859 0.50678 0.60816 0.0
C1225 C 0.96949 0.46043 0.5967 0.0
C1226 C 0.0239 0.58521 0.54521 0.0
C1227 C 0.99862 0.50906 0.56851 0.0
H1228 H 0.10054 0.6317 0.39868 0.0
H1229 H 0.06258 0.63418 0.45758 0.0
H1230 H 0.08349 0.65331 0.42832 0.0
H1231 H 0.07336 0.57021 0.42568 0.0
H1232 H 0.95503 0.46215 0.62933 0.0
H1233 H 0.98384 0.46355 0.56414 0.0
H1234 H 0.992 0.52482 0.61249 0.0
H1235 H 0.96285 0.44253 0.59213 0.0
Eu1236 Eu 0.82621 0.77215 0.29223 0.0
C1237 C 0.7437 0.80418 0.23519 0.0
N1238 N 0.7565 0.8149 0.2557 0.0
C1239 C 0.75703 0.85071 0.24159 0.0
C1240 C 0.73728 0.8165 0.21689 0.0
C1241 C 0.76274 0.83786 0.25939 0.0
C1242 C 0.74436 0.83999 0.2202 0.0
C1243 C 0.72263 0.76941 0.21192 0.0
C1244 C 0.73659 0.78081 0.23261 0.0
C1245 C 0.71645 0.78165 0.19359 0.0
C1246 C 0.72381 0.8051 0.19603 0.0
Eu1247 Eu 0.76562 0.7913 0.28393 0.0
N1248 N 0.74332 0.76922 0.25034 0.0
C1249 C 0.71499 0.74606 0.21044 0.0
C1250 C 0.73482 0.74679 0.24964 0.0
C1251 C 0.72085 0.73477 0.22956 0.0
H1252 H 0.77187 0.8464 0.27615 0.0
H1253 H 0.71432 0.71689 0.229 0.0
H1254 H 0.81348 0.71678 0.30052 0.0
H1255 H 0.88629 0.84087 0.34592 0.0
H1256 H 0.73822 0.73832 0.26478 0.0
H1257 H 0.7041 0.73672 0.19491 0.0
H1258 H 0.86115 0.82091 0.30985 0.0
H1259 H 0.76222 0.86889 0.24447 0.0
H1260 H 0.7058 0.77316 0.17752 0.0
H1261 H 0.71875 0.8143 0.18178 0.0
H1262 H 0.81881 0.69357 0.33268 0.0
H1263 H 0.73982 0.85003 0.20652 0.0
H1264 H 0.89124 0.82108 0.38137 0.0
N1265 N 0.83072 0.74756 0.32127 0.0
C1266 C 0.84368 0.75727 0.34209 0.0
C1267 C 0.82569 0.71151 0.33564 0.0
C1268 C 0.84782 0.74438 0.36067 0.0
C1269 C 0.82235 0.72486 0.31755 0.0
C1270 C 0.8383 0.72133 0.35736 0.0
N1271 N 0.84995 0.7919 0.32601 0.0
C1272 C 0.86216 0.81298 0.32585 0.0
C1273 C 0.86849 0.79022 0.36508 0.0
C1274 C 0.8538 0.78 0.34441 0.0
C1275 C 0.87969 0.81265 0.36588 0.0
C1276 C 0.87684 0.82395 0.34597 0.0
H1277 H 0.84109 0.71085 0.37121 0.0
H1278 H 0.8651 0.74508 0.39614 0.0
H1279 H 0.8833 0.78515 0.39991 0.0
O1280 O 0.85308 0.78278 0.27033 0.0
O1281 O 0.81172 0.78529 0.32547 0.0
O1282 O 0.78921 0.81075 0.31571 0.0
O1283 O 0.85336 0.75372 0.2891 0.0
O1284 O 0.82601 0.80622 0.27858 0.0
O1285 O 0.79525 0.82109 0.28967 0.0
O1286 O 0.7394 0.77728 0.30546 0.0
O1287 O 0.78015 0.77992 0.24975 0.0
O1288 O 0.8042 0.75554 0.25796 0.0
O1289 O 0.73766 0.80803 0.29046 0.0
O1290 O 0.77235 0.76185 0.30298 0.0
O1291 O 0.79559 0.74386 0.28274 0.0
C1292 C 0.80227 0.80263 0.33108 0.0
C1293 C 0.8724 0.75473 0.25495 0.0
C1294 C 0.90278 0.7538 0.23014 0.0
C1295 C 0.89346 0.73102 0.22197 0.0
C1296 C 0.86315 0.73209 0.24616 0.0
C1297 C 0.87368 0.72034 0.22978 0.0
C1298 C 0.89204 0.76567 0.24655 0.0
C1299 C 0.81539 0.82308 0.28238 0.0
C1300 C 0.86331 0.76633 0.27468 0.0
C1301 C 0.86178 0.75473 0.38168 0.0
C1302 C 0.87213 0.77757 0.38385 0.0
C1303 C 0.79184 0.76465 0.2428 0.0
C1304 C 0.71898 0.8028 0.32474 0.0
C1305 C 0.68779 0.80258 0.34922 0.0
C1306 C 0.69885 0.82388 0.36086 0.0
C1307 C 0.72973 0.82387 0.33718 0.0
C1308 C 0.69803 0.79196 0.33111 0.0
C1309 C 0.71968 0.83429 0.35503 0.0
C1310 C 0.77723 0.74329 0.29307 0.0
C1311 C 0.72828 0.79352 0.3035 0.0
H1312 H 0.90141 0.72153 0.20933 0.0
H1313 H 0.84808 0.72331 0.25238 0.0
H1314 H 0.86664 0.70281 0.22332 0.0
H1315 H 0.89941 0.78309 0.25342 0.0
H1316 H 0.69127 0.83252 0.37454 0.0
H1317 H 0.74565 0.83259 0.33263 0.0
H1318 H 0.68939 0.77582 0.3215 0.0
H1319 H 0.72793 0.85073 0.36417 0.0
Eu1320 Eu 0.76411 0.29998 0.82361 0.0
C1321 C 0.8152 0.24916 0.74072 0.0
N1322 N 0.82384 0.26664 0.75807 0.0
C1323 C 0.8596 0.25535 0.76143 0.0
C1324 C 0.82874 0.23417 0.73275 0.0
C1325 C 0.84555 0.2698 0.76874 0.0
C1326 C 0.85124 0.2376 0.74318 0.0
C1327 C 0.78273 0.22673 0.71482 0.0
C1328 C 0.79241 0.24552 0.73187 0.0
C1329 C 0.79642 0.21237 0.70605 0.0
C1330 C 0.81935 0.21605 0.71501 0.0
Eu1331 Eu 0.80043 0.29253 0.76549 0.0
N1332 N 0.77946 0.25943 0.74117 0.0
C1333 C 0.75944 0.22248 0.70766 0.0
C1334 C 0.75654 0.25442 0.73528 0.0
C1335 C 0.74625 0.23611 0.71833 0.0
H1336 H 0.85223 0.28391 0.78237 0.0
H1337 H 0.72809 0.23243 0.71363 0.0
H1338 H 0.71128 0.30692 0.81098 0.0
H1339 H 0.83449 0.35387 0.88505 0.0
H1340 H 0.74588 0.26402 0.74377 0.0
H1341 H 0.75138 0.2082 0.69464 0.0
H1342 H 0.81714 0.32272 0.85484 0.0
H1343 H 0.87693 0.25806 0.76968 0.0
H1344 H 0.78929 0.19798 0.6928 0.0
H1345 H 0.82957 0.2045 0.70847 0.0
H1346 H 0.68714 0.33347 0.82296 0.0
H1347 H 0.8622 0.22646 0.73751 0.0
H1348 H 0.81197 0.38063 0.9006 0.0
N1349 N 0.74032 0.32482 0.83397 0.0
C1350 C 0.7491 0.34236 0.85115 0.0
C1351 C 0.70455 0.33622 0.83098 0.0
C1352 C 0.73578 0.35774 0.85884 0.0
C1353 C 0.71834 0.32137 0.82405 0.0
C1354 C 0.7133 0.35451 0.84845 0.0
N1355 N 0.78431 0.33074 0.85207 0.0
C1356 C 0.80666 0.33381 0.86081 0.0
C1357 C 0.78119 0.36369 0.87827 0.0
C1358 C 0.77159 0.34525 0.86068 0.0
C1359 C 0.80402 0.36671 0.88711 0.0
C1360 C 0.81678 0.35171 0.87832 0.0
H1361 H 0.70257 0.366 0.85383 0.0
H1362 H 0.73528 0.38783 0.88262 0.0
H1363 H 0.77503 0.39301 0.89968 0.0
O1364 O 0.76318 0.28285 0.85525 0.0
O1365 O 0.77139 0.33154 0.8077 0.0
O1366 O 0.80166 0.32034 0.79538 0.0
O1367 O 0.73241 0.27886 0.83 0.0
O1368 O 0.79901 0.28887 0.83094 0.0
O1369 O 0.82184 0.30108 0.8022 0.0
O1370 O 0.7996 0.30677 0.73193 0.0
O1371 O 0.79276 0.26038 0.78121 0.0
O1372 O 0.76627 0.27707 0.7921 0.0
O1373 O 0.83163 0.30828 0.75317 0.0
O1374 O 0.76606 0.30291 0.75649 0.0
O1375 O 0.74254 0.29883 0.78704 0.0
C1376 C 0.78866 0.33522 0.79601 0.0
C1377 C 0.72919 0.26061 0.86567 0.0
C1378 C 0.73055 0.23961 0.89944 0.0
C1379 C 0.70768 0.23978 0.901 0.0
C1380 C 0.70619 0.26033 0.86688 0.0
C1381 C 0.6955 0.24993 0.88456 0.0
C1382 C 0.74117 0.24991 0.88172 0.0
C1383 C 0.81888 0.29216 0.82228 0.0
C1384 C 0.74157 0.27488 0.85039 0.0
C1385 C 0.74527 0.37588 0.87647 0.0
C1386 C 0.76789 0.37881 0.88621 0.0
C1387 C 0.77616 0.26022 0.79355 0.0
C1388 C 0.8308 0.33403 0.72458 0.0
C1389 C 0.8289 0.358 0.69335 0.0
C1390 C 0.8509 0.36974 0.7017 0.0
C1391 C 0.85294 0.34576 0.7328 0.0
C1392 C 0.81879 0.3404 0.7049 0.0
C1393 C 0.86285 0.36366 0.72145 0.0
C1394 C 0.74639 0.30293 0.76498 0.0
C1395 C 0.82147 0.31305 0.7337 0.0
H1396 H 0.69925 0.23183 0.91468 0.0
H1397 H 0.69678 0.26892 0.85485 0.0
H1398 H 0.67786 0.25004 0.88574 0.0
H1399 H 0.759 0.25018 0.88096 0.0
H1400 H 0.85897 0.38318 0.69256 0.0
H1401 H 0.86276 0.34088 0.74765 0.0
H1402 H 0.80212 0.33086 0.69763 0.0
H1403 H 0.87992 0.37258 0.72775 0.0
Eu1404 Eu 0.77096 0.75064 0.75503 0.0
C1405 C 0.84845 0.82762 0.81317 0.0
N1406 N 0.82875 0.81592 0.8188 0.0
C1407 C 0.84493 0.81889 0.85956 0.0
C1408 C 0.86716 0.83563 0.83083 0.0
C1409 C 0.82677 0.8115 0.84158 0.0
C1410 C 0.86519 0.83109 0.8542 0.0
C1411 C 0.86989 0.8448 0.78375 0.0
C1412 C 0.84977 0.83222 0.78981 0.0
C1413 C 0.88845 0.8528 0.80136 0.0
C1414 C 0.88706 0.84829 0.82481 0.0
Eu1415 Eu 0.79796 0.80933 0.78838 0.0
N1416 N 0.83131 0.82494 0.77317 0.0
C1417 C 0.87062 0.84951 0.76029 0.0
C1418 C 0.83172 0.83046 0.75061 0.0
C1419 C 0.85141 0.84234 0.74366 0.0
H1420 H 0.81088 0.80342 0.84628 0.0
H1421 H 0.85153 0.84651 0.72564 0.0
H1422 H 0.75806 0.76013 0.69793 0.0
H1423 H 0.71685 0.70746 0.81392 0.0
H1424 H 0.81681 0.82671 0.73814 0.0
H1425 H 0.88573 0.85915 0.75498 0.0
H1426 H 0.75183 0.72848 0.80295 0.0
H1427 H 0.8431 0.81565 0.87766 0.0
H1428 H 0.9039 0.86272 0.79705 0.0
H1429 H 0.90148 0.85479 0.83823 0.0
H1430 H 0.72574 0.75057 0.66658 0.0
H1431 H 0.87911 0.83715 0.86828 0.0
H1432 H 0.68262 0.69714 0.7844 0.0
N1433 N 0.74002 0.74598 0.72459 0.0
C1434 C 0.72024 0.73361 0.72931 0.0
C1435 C 0.72384 0.74602 0.68424 0.0
C1436 C 0.70143 0.72707 0.71149 0.0
C1437 C 0.74206 0.75199 0.70233 0.0
C1438 C 0.70344 0.73351 0.68881 0.0
N1439 N 0.73746 0.73276 0.76857 0.0
C1440 C 0.73692 0.7255 0.7904 0.0
C1441 C 0.69866 0.7138 0.75703 0.0
C1442 C 0.71892 0.72685 0.75184 0.0
C1443 C 0.69786 0.70716 0.77975 0.0
C1444 C 0.7171 0.71303 0.79649 0.0
H1445 H 0.68946 0.72859 0.67462 0.0
H1446 H 0.66688 0.70861 0.70307 0.0
H1447 H 0.66439 0.69719 0.74296 0.0
O1448 O 0.78009 0.7182 0.76039 0.0
O1449 O 0.74411 0.77184 0.7649 0.0
O1450 O 0.76188 0.79752 0.79705 0.0
O1451 O 0.76789 0.72495 0.72467 0.0
O1452 O 0.78685 0.75118 0.79393 0.0
O1453 O 0.78284 0.78526 0.81254 0.0
O1454 O 0.7921 0.84178 0.77964 0.0
O1455 O 0.82402 0.78679 0.7811 0.0
O1456 O 0.80746 0.76384 0.74687 0.0
O1457 O 0.80033 0.83699 0.81653 0.0
O1458 O 0.77871 0.80773 0.75121 0.0
O1459 O 0.78627 0.77583 0.73231 0.0
C1460 C 0.7432 0.78645 0.78365 0.0
C1461 C 0.7765 0.68835 0.72737 0.0
C1462 C 0.79136 0.65463 0.73171 0.0
C1463 C 0.77905 0.64436 0.70976 0.0
C1464 C 0.76421 0.67819 0.70542 0.0
C1465 C 0.76569 0.65627 0.69656 0.0
C1466 C 0.79052 0.67687 0.73986 0.0
C1467 C 0.78472 0.76424 0.81334 0.0
C1468 C 0.77479 0.71079 0.73771 0.0
C1469 C 0.68138 0.71393 0.71661 0.0
C1470 C 0.67997 0.7074 0.73933 0.0
C1471 C 0.8258 0.77398 0.76144 0.0
C1472 C 0.77617 0.86201 0.80847 0.0
C1473 C 0.75449 0.89007 0.79974 0.0
C1474 C 0.74463 0.88792 0.82074 0.0
C1475 C 0.76619 0.85947 0.82951 0.0
C1476 C 0.77003 0.87716 0.79362 0.0
C1477 C 0.75041 0.87245 0.83556 0.0
C1478 C 0.78138 0.79572 0.73156 0.0
C1479 C 0.7939 0.85026 0.80196 0.0
H1480 H 0.77935 0.62711 0.70307 0.0
H1481 H 0.75334 0.68703 0.69532 0.0
H1482 H 0.75615 0.64836 0.67971 0.0
H1483 H 0.80074 0.68534 0.75622 0.0
H1484 H 0.73291 0.89845 0.82581 0.0
H1485 H 0.77076 0.8478 0.84138 0.0
H1486 H 0.778 0.87957 0.77761 0.0
H1487 H 0.74304 0.87088 0.85195 0.0
Eu1488 Eu 0.58144 0.56064 0.55916 0.0
C1489 C 0.50147 0.48483 0.49843 0.0
N1490 N 0.51398 0.50425 0.4931 0.0
C1491 C 0.51201 0.48773 0.45257 0.0
C1492 C 0.49408 0.46592 0.48093 0.0
C1493 C 0.51892 0.50606 0.47043 0.0
C1494 C 0.49963 0.46755 0.45785 0.0
C1495 C 0.48232 0.46412 0.52721 0.0
C1496 C 0.49543 0.48399 0.52128 0.0
C1497 C 0.47526 0.44522 0.50989 0.0
C1498 C 0.48105 0.44615 0.48681 0.0
Eu1499 Eu 0.52219 0.53495 0.52392 0.0
N1500 N 0.50232 0.50259 0.5377 0.0
C1501 C 0.47641 0.46391 0.5503 0.0
C1502 C 0.49528 0.50286 0.55967 0.0
C1503 C 0.48277 0.48346 0.56655 0.0
H1504 H 0.52732 0.5219 0.46571 0.0
H1505 H 0.47759 0.48379 0.58419 0.0
H1506 H 0.56943 0.57174 0.61568 0.0
H1507 H 0.62949 0.61545 0.50505 0.0
H1508 H 0.49848 0.51811 0.57163 0.0
H1509 H 0.46645 0.44896 0.55556 0.0
H1510 H 0.60917 0.57958 0.51547 0.0
H1511 H 0.5159 0.48933 0.43463 0.0
H1512 H 0.46513 0.42987 0.51412 0.0
H1513 H 0.47521 0.4315 0.47356 0.0
H1514 H 0.57572 0.60392 0.64695 0.0
H1515 H 0.4941 0.45345 0.44389 0.0
H1516 H 0.63457 0.65023 0.53338 0.0
N1517 N 0.58284 0.5909 0.58943 0.0
C1518 C 0.59446 0.61123 0.58519 0.0
C1519 C 0.58065 0.60633 0.62953 0.0
C1520 C 0.5993 0.62998 0.60309 0.0
C1521 C 0.57643 0.58816 0.61142 0.0
C1522 C 0.59204 0.62735 0.62533 0.0
N1523 N 0.59898 0.59448 0.54673 0.0
C1524 C 0.60928 0.59497 0.52663 0.0
C1525 C 0.61554 0.63372 0.55895 0.0
C1526 C 0.60263 0.61308 0.56329 0.0
C1527 C 0.62453 0.63471 0.53734 0.0
C1528 C 0.62159 0.61517 0.52122 0.0
H1529 H 0.59569 0.64128 0.63959 0.0
H1530 H 0.61591 0.66504 0.61223 0.0
H1531 H 0.62998 0.66834 0.57361 0.0
O1532 O 0.61635 0.55896 0.55602 0.0
O1533 O 0.55887 0.58638 0.54952 0.0
O1534 O 0.53799 0.56963 0.51425 0.0
O1535 O 0.60551 0.56288 0.59094 0.0
O1536 O 0.58253 0.54547 0.52046 0.0
O1537 O 0.54797 0.54661 0.49992 0.0
O1538 O 0.49293 0.54846 0.53242 0.0
O1539 O 0.53976 0.50675 0.53647 0.0
O1540 O 0.57289 0.52223 0.56154 0.0
O1541 O 0.495 0.53445 0.49562 0.0
O1542 O 0.52483 0.55346 0.56146 0.0
O1543 O 0.55563 0.54384 0.58066 0.0
C1544 C 0.54695 0.58792 0.52913 0.0
C1545 C 0.63791 0.54717 0.58769 0.0
C1546 C 0.6683 0.52804 0.5803 0.0
C1547 C 0.6726 0.52611 0.60456 0.0
C1548 C 0.64203 0.54523 0.6121 0.0
C1549 C 0.65928 0.53458 0.62044 0.0
C1550 C 0.65102 0.53832 0.57192 0.0
C1551 C 0.56924 0.54523 0.50045 0.0
C1552 C 0.62219 0.56085 0.57896 0.0
C1553 C 0.61191 0.65056 0.59861 0.0
C1554 C 0.61992 0.65244 0.5766 0.0
C1555 C 0.55745 0.50452 0.55111 0.0
C1556 C 0.462 0.54944 0.50244 0.0
C1557 C 0.4328 0.56952 0.51131 0.0
C1558 C 0.42287 0.56459 0.48749 0.0
C1559 C 0.45212 0.54419 0.47857 0.0
C1560 C 0.45211 0.56183 0.51873 0.0
C1561 C 0.4325 0.55175 0.47116 0.0
C1562 C 0.53553 0.54855 0.58086 0.0
C1563 C 0.48371 0.54422 0.5102 0.0
H1564 H 0.68615 0.51814 0.61109 0.0
H1565 H 0.63234 0.55238 0.62474 0.0
H1566 H 0.66255 0.53325 0.63923 0.0
H1567 H 0.6484 0.54001 0.55309 0.0
H1568 H 0.40757 0.5703 0.4817 0.0
H1569 H 0.45974 0.53467 0.46565 0.0
H1570 H 0.45968 0.56605 0.53718 0.0
H1571 H 0.42487 0.5478 0.45279 0.0
Eu1572 Eu 1.00164 0.53093 0.05849 0.0
C1573 C 0.08186 0.58081 0.00417 0.0
N1574 N 0.06816 0.56005 0.99808 0.0
C1575 C 0.06197 0.56748 0.95756 0.0
C1576 C 0.0854 0.59595 0.98714 0.0
C1577 C 0.05933 0.55283 0.97482 0.0
C1578 C 0.07476 0.58925 0.96381 0.0
C1579 C 0.10923 0.60719 0.03323 0.0
C1580 C 0.09363 0.58658 0.02713 0.0
C1581 C 0.112 0.62254 0.01653 0.0
C1582 C 0.10006 0.61698 0.99361 0.0
Eu1583 Eu 0.06469 0.5381 0.03005 0.0
N1584 N 0.09046 0.57172 0.04329 0.0
C1585 C 0.12214 0.61143 0.05571 0.0
C1586 C 0.10435 0.57476 0.06421 0.0
C1587 C 0.12007 0.59489 0.07104 0.0
H1588 H 0.0505 0.53569 0.96914 0.0
H1589 H 0.13088 0.59744 0.08786 0.0
H1590 H 0.01694 0.52835 0.11847 0.0
H1591 H 0.93993 0.47249 0.9944 0.0
H1592 H 0.10374 0.56131 0.07512 0.0
H1593 H 0.13444 0.62699 0.06097 0.0
H1594 H 0.96606 0.50858 0.00998 0.0
H1595 H 0.05449 0.56182 0.93932 0.0
H1596 H 0.12373 0.63855 0.02098 0.0
H1597 H 0.10281 0.62882 0.98076 0.0
H1598 H 0.01126 0.50044 0.1461 0.0
H1599 H 0.07703 0.60042 0.95027 0.0
H1600 H 0.93442 0.44187 0.01988 0.0
N1601 N 0.99889 0.50609 0.08802 0.0
C1602 C 0.9847 0.48574 0.0805 0.0
C1603 C 1.00402 0.49597 0.12762 0.0
C1604 C 0.9803 0.46957 0.09637 0.0
C1605 C 1.00766 0.51167 0.11152 0.0
C1606 C 0.9905 0.47477 0.11999 0.0
N1607 N 0.97734 0.49714 0.04203 0.0
C1608 C 0.96478 0.49471 0.02033 0.0
C1609 C 0.95805 0.46079 0.04948 0.0
C1610 C 0.97346 0.4813 0.05717 0.0
C1611 C 0.94642 0.45739 0.02638 0.0
C1612 C 0.94957 0.47456 0.01186 0.0
H1613 H 0.98745 0.46281 0.13267 0.0
H1614 H 0.9618 0.43643 0.1005 0.0
H1615 H 0.94247 0.42875 0.05956 0.0
O1616 O 0.97308 0.54561 0.04469 0.0
O1617 O 0.01169 0.49816 0.04045 0.0
O1618 O 0.04427 0.50178 0.02077 0.0
O1619 O 0.97557 0.53572 0.08021 0.0
O1620 O 0.01514 0.54476 0.02697 0.0
O1621 O 0.03459 0.52659 0.00297 0.0
O1622 O 0.0904 0.52164 0.04706 0.0
O1623 O 0.05551 0.5716 0.04725 0.0
O1624 O 0.02145 0.56823 0.06455 0.0
O1625 O 0.09205 0.53035 0.01129 0.0
O1626 O 0.04887 0.52631 0.06119 0.0
O1627 O 0.03059 0.54376 0.08638 0.0
C1628 C 0.02617 0.48956 0.0278 0.0
C1629 C 0.95606 0.56495 0.07457 0.0
C1630 C 0.92777 0.58833 0.07174 0.0
C1631 C 0.93459 0.59747 0.09566 0.0
C1632 C 0.96305 0.57469 0.09838 0.0
C1633 C 0.95228 0.5908 0.10882 0.0
C1634 C 0.93865 0.57216 0.06118 0.0
C1635 C 0.01559 0.53195 0.00744 0.0
C1636 C 0.96448 0.54522 0.06477 0.0
C1637 C 0.96532 0.44896 0.08849 0.0
C1638 C 0.95427 0.44459 0.06516 0.0
C1639 C 0.04024 0.58049 0.05848 0.0
C1640 C 0.10605 0.49839 0.01966 0.0
C1641 C 0.13396 0.47447 0.01661 0.0
C1642 C 0.11904 0.45982 0.99864 0.0
C1643 C 0.09125 0.48333 0.00192 0.0
C1644 C 0.12727 0.4937 0.02725 0.0
C1645 C 0.09776 0.46415 0.99152 0.0
C1646 C 0.04952 0.53928 0.08089 0.0
C1647 C 0.10059 0.52022 0.02801 0.0
H1648 H 0.9263 0.60991 0.10412 0.0
H1649 H 0.97636 0.56938 0.10922 0.0
H1650 H 0.95743 0.59788 0.12726 0.0
H1651 H 0.93293 0.56454 0.04294 0.0
H1652 H 0.12383 0.44492 0.99018 0.0
H1653 H 0.07495 0.48675 0.99558 0.0
H1654 H 0.13889 0.50544 0.04067 0.0
H1655 H 0.08641 0.45279 0.97763 0.0
C1656 C 0.02183 0.19722 0.96524 0.0
C1657 C 0.01596 0.21485 0.97992 0.0
C1658 C 0.02756 0.17773 0.97425 0.0
C1659 C 0.02684 0.17483 0.99868 0.0
C1660 C 0.02087 0.19257 0.01362 0.0
C1661 C 0.01593 0.21227 0.00426 0.0
C1662 C 0.03471 0.16026 0.9575 0.0
C1663 C 0.01965 0.19076 0.03968 0.0
C1664 C 0.01943 0.11284 0.01328 0.0
C1665 C 0.041 0.11132 0.02404 0.0
C1666 C 0.01452 0.1333 0.00596 0.0
C1667 C 0.03171 0.15311 0.00823 0.0
C1668 C 0.05358 0.15166 0.01905 0.0
C1669 C 0.05774 0.13116 0.02706 0.0
C1670 C 0.99068 0.13366 0.99577 0.0
C1671 C 0.07305 0.17146 0.02125 0.0
H1672 H 0.0224 0.19884 0.94653 0.0
H1673 H 0.01171 0.2256 0.01607 0.0
H1674 H 0.05116 0.1568 0.96499 0.0
H1675 H 0.02217 0.1442 0.95541 0.0
H1676 H 0.03636 0.16565 0.93961 0.0
H1677 H 0.01221 0.20435 0.04839 0.0
H1678 H 1.00943 0.17418 0.04198 0.0
H1679 H 0.03687 0.19186 0.04899 0.0
H1680 H 1.00612 0.0979 0.01077 0.0
H1681 H 0.07447 0.13053 0.03486 0.0
H1682 H 0.99018 0.13646 0.97681 0.0
H1683 H 0.98475 0.14785 0.00539 0.0
H1684 H 0.97877 0.11769 0.99696 0.0
H1685 H 0.07816 0.17356 0.00334 0.0
H1686 H 0.08793 0.16908 0.03311 0.0
H1687 H 0.06806 0.18729 0.02815 0.0
C1688 C 0.12622 0.80108 0.18754 0.0
C1689 C 0.12891 0.80744 0.1648 0.0
C1690 C 0.14493 0.80041 0.20417 0.0
C1691 C 0.16716 0.80659 0.1983 0.0
C1692 C 0.17003 0.81318 0.17541 0.0
C1693 C 0.15094 0.81337 0.15893 0.0
C1694 C 0.14086 0.7929 0.22807 0.0
C1695 C 0.19331 0.81988 0.16822 0.0
C1696 C 0.21557 0.82428 0.24992 0.0
C1697 C 0.22508 0.805 0.24988 0.0
C1698 C 0.19695 0.82511 0.23314 0.0
C1699 C 0.18729 0.80607 0.21609 0.0
C1700 C 0.19662 0.78636 0.21644 0.0
C1701 C 0.21538 0.78612 0.23322 0.0
C1702 C 0.18784 0.84654 0.23342 0.0
C1703 C 0.18675 0.76545 0.19912 0.0
H1704 H 0.10933 0.79628 0.1923 0.0
H1705 H 0.15328 0.81817 0.14142 0.0
H1706 H 0.14933 0.7786 0.23113 0.0
H1707 H 0.14828 0.80686 0.24247 0.0
H1708 H 0.1226 0.78758 0.22953 0.0
H1709 H 0.19285 0.82648 0.15075 0.0
H1710 H 0.20401 0.83294 0.18189 0.0
H1711 H 0.20153 0.80505 0.16704 0.0
H1712 H 0.22302 0.83889 0.26279 0.0
H1713 H 0.22247 0.77105 0.23338 0.0
H1714 H 0.16978 0.8431 0.23619 0.0
H1715 H 0.18882 0.85297 0.21595 0.0
H1716 H 0.19725 0.8599 0.24763 0.0
H1717 H 0.16864 0.75975 0.20093 0.0
H1718 H 0.19566 0.75139 0.20194 0.0
H1719 H 0.18769 0.7693 0.18059 0.0
C1720 C 0.49391 0.85157 0.49201 0.0
C1721 C 0.51327 0.84344 0.48663 0.0
C1722 C 0.49485 0.87474 0.50003 0.0
C1723 C 0.5158 0.89047 0.50369 0.0
C1724 C 0.53552 0.8821 0.49914 0.0
C1725 C 0.53396 0.85904 0.49033 0.0
C1726 C 0.47317 0.88256 0.50363 0.0
C1727 C 0.55844 0.89756 0.50373 0.0
C1728 C 0.52005 0.95431 0.50029 0.0
C1729 C 0.52144 0.96367 0.52421 0.0
C1730 C 0.51719 0.93075 0.49346 0.0
C1731 C 0.51703 0.9157 0.51097 0.0
C1732 C 0.51871 0.92511 0.53527 0.0
C1733 C 0.52021 0.9487 0.54148 0.0
C1734 C 0.51448 0.922 0.4673 0.0
C1735 C 0.51951 0.91037 0.55491 0.0
H1736 H 0.47775 0.83994 0.48902 0.0
H1737 H 0.54912 0.85317 0.48639 0.0
H1738 H 0.47426 0.89119 0.52198 0.0
H1739 H 0.47044 0.89501 0.49125 0.0
H1740 H 0.4583 0.86841 0.50051 0.0
H1741 H 0.57223 0.8886 0.49974 0.0
H1742 H 0.55887 0.9116 0.49275 0.0
H1743 H 0.56177 0.90516 0.52267 0.0
H1744 H 0.5211 0.9655 0.48669 0.0
H1745 H 0.52148 0.95557 0.56004 0.0
H1746 H 0.49953 0.90802 0.46278 0.0
H1747 H 0.52948 0.91514 0.46307 0.0
H1748 H 0.51245 0.93535 0.45582 0.0
H1749 H 0.50256 0.89978 0.55495 0.0
H1750 H 0.52474 0.92045 0.57272 0.0
H1751 H 0.53143 0.89886 0.55198 0.0
C1752 C 0.51618 0.30804 0.67581 0.0
C1753 C 0.51371 0.29705 0.65246 0.0
C1754 C 0.49818 0.3055 0.68958 0.0
C1755 C 0.4773 0.29129 0.67992 0.0
C1756 C 0.47439 0.28107 0.65594 0.0
C1757 C 0.49259 0.28417 0.64247 0.0
C1758 C 0.50194 0.31716 0.71483 0.0
C1759 C 0.45233 0.26599 0.64484 0.0
C1760 C 0.4418 0.25693 0.7193 0.0
C1761 C 0.42303 0.26725 0.71967 0.0
C1762 C 0.46005 0.26535 0.70744 0.0
C1763 C 0.45957 0.28459 0.69555 0.0
C1764 C 0.44133 0.29599 0.69718 0.0
C1765 C 0.42325 0.28721 0.70933 0.0
C1766 C 0.4793 0.25286 0.70655 0.0
C1767 C 0.44051 0.31691 0.68532 0.0
H1768 H 0.53237 0.31833 0.68355 0.0
H1769 H 0.49048 0.27586 0.62435 0.0
H1770 H 0.487 0.32407 0.71921 0.0
H1771 H 0.50454 0.30478 0.72731 0.0
H1772 H 0.51702 0.33109 0.71792 0.0
H1773 H 0.45259 0.2598 0.62582 0.0
H1774 H 0.44863 0.25122 0.65471 0.0
H1775 H 0.43831 0.27524 0.64608 0.0
H1776 H 0.44183 0.24171 0.72765 0.0
H1777 H 0.40879 0.29527 0.70969 0.0
H1778 H 0.49564 0.26461 0.71272 0.0
H1779 H 0.47985 0.24577 0.68789 0.0
H1780 H 0.47768 0.23886 0.71769 0.0
H1781 H 0.45602 0.32984 0.69166 0.0
H1782 H 0.42556 0.32422 0.68891 0.0
H1783 H 0.44 0.31289 0.66579 0.0
C1784 C 0.04396 0.81426 0.63732 0.0
C1785 C 0.03136 0.8143 0.65655 0.0
C1786 C 0.04755 0.83285 0.62457 0.0
C1787 C 0.03783 0.85176 0.6308 0.0
C1788 C 0.0243 0.8515 0.64962 0.0
C1789 C 0.02144 0.83284 0.66248 0.0
C1790 C 0.06254 0.83261 0.60502 0.0
C1791 C 0.01295 0.87091 0.65623 0.0
C1792 C 0.07169 0.90548 0.61461 0.0
C1793 C 0.06092 0.90648 0.59188 0.0
C1794 C 0.06331 0.88869 0.62825 0.0
C1795 C 0.0437 0.87238 0.61888 0.0
C1796 C 0.03171 0.8744 0.5967 0.0
C1797 C 0.04052 0.89149 0.58337 0.0
C1798 C 0.07648 0.88742 0.65192 0.0
C1799 C 0.01049 0.85764 0.58631 0.0
H1800 H 0.05172 0.79999 0.63275 0.0
H1801 H 0.01144 0.83277 0.67717 0.0
H1802 H 0.05337 0.8355 0.58809 0.0
H1803 H 0.07756 0.8465 0.60965 0.0
H1804 H 0.06842 0.81643 0.60203 0.0
H1805 H 1.00447 0.86891 0.67246 0.0
H1806 H 0.02538 0.88709 0.65925 0.0
H1807 H 1.00012 0.87207 0.64128 0.0
H1808 H 0.08739 0.91723 0.6212 0.0
H1809 H 0.03221 0.89225 0.56575 0.0
H1810 H 0.08425 0.87227 0.65057 0.0
H1811 H 0.06511 0.8857 0.66592 0.0
H1812 H 0.09011 0.90253 0.65766 0.0
H1813 H 0.01502 0.84156 0.57934 0.0
H1814 H 1.00099 0.86382 0.57148 0.0
H1815 H 0.9993 0.85391 0.60019 0.0
C1816 C 0.47309 0.833 0.84024 0.0
C1817 C 0.48588 0.81791 0.83085 0.0
C1818 C 0.4501 0.83166 0.83146 0.0
C1819 C 0.43883 0.81419 0.8133 0.0
C1820 C 0.4517 0.79893 0.80359 0.0
C1821 C 0.47501 0.8012 0.81212 0.0
C1822 C 0.43774 0.8489 0.84194 0.0
C1823 C 0.44069 0.77988 0.78443 0.0
C1824 C 0.37408 0.79656 0.81155 0.0
C1825 C 0.36542 0.80656 0.79234 0.0
C1826 C 0.39761 0.79866 0.8182 0.0
C1827 C 0.41347 0.81127 0.80557 0.0
C1828 C 0.40487 0.82146 0.78612 0.0
C1829 C 0.38118 0.81893 0.77977 0.0
C1830 C 0.40551 0.78719 0.83883 0.0
C1831 C 0.42066 0.83536 0.7721 0.0
H1832 H 0.4812 0.84612 0.85454 0.0
H1833 H 0.48452 0.78935 0.8047 0.0
H1834 H 0.42941 0.85661 0.82752 0.0
H1835 H 0.42429 0.84057 0.85165 0.0
H1836 H 0.44918 0.86253 0.85443 0.0
H1837 H 0.45241 0.76863 0.77962 0.0
H1838 H 0.42568 0.76967 0.79041 0.0
H1839 H 0.43469 0.78682 0.76823 0.0
H1840 H 0.36238 0.78712 0.82167 0.0
H1841 H 0.37504 0.82622 0.7645 0.0
H1842 H 0.41668 0.79975 0.85263 0.0
H1843 H 0.41556 0.77475 0.83261 0.0
H1844 H 0.39125 0.77837 0.84718 0.0
H1845 H 0.42857 0.85161 0.7831 0.0
H1846 H 0.41174 0.83902 0.75535 0.0
H1847 H 0.43445 0.82664 0.76762 0.0
C1848 C 0.53662 0.18289 0.15589 0.0
C1849 C 0.52232 0.19816 0.15187 0.0
C1850 C 0.53617 0.16387 0.13905 0.0
C1851 C 0.52058 0.15947 0.11785 0.0
C1852 C 0.50556 0.17444 0.11421 0.0
C1853 C 0.50688 0.19368 0.13094 0.0
C1854 C 0.5529 0.14885 0.14362 0.0
C1855 C 0.48798 0.17008 0.09258 0.0
C1856 C 0.53293 0.12379 0.06261 0.0
C1857 C 0.52048 0.10218 0.06419 0.0
C1858 C 0.53312 0.14239 0.07984 0.0
C1859 C 0.52034 0.13966 0.09922 0.0
C1860 C 0.50731 0.11799 0.1006 0.0
C1861 C 0.5077 0.09961 0.08332 0.0
C1862 C 0.54747 0.16496 0.07758 0.0
C1863 C 0.49318 0.11402 0.12061 0.0
H1864 H 0.54873 0.18624 0.17186 0.0
H1865 H 0.49561 0.20521 0.1277 0.0
H1866 H 0.544 0.13105 0.14248 0.0
H1867 H 0.56442 0.14966 0.1297 0.0
H1868 H 0.56319 0.15381 0.16135 0.0
H1869 H 0.47707 0.18284 0.09261 0.0
H1870 H 0.49628 0.17015 0.07613 0.0
H1871 H 0.47713 0.15313 0.09186 0.0
H1872 H 0.54323 0.12609 0.04829 0.0
H1873 H 0.49808 0.08307 0.08494 0.0
H1874 H 0.56002 0.17061 0.09371 0.0
H1875 H 0.53676 0.17781 0.07635 0.0
H1876 H 0.55659 0.1644 0.06168 0.0
H1877 H 0.50441 0.11456 0.13742 0.0
H1878 H 0.48139 0.09739 0.11721 0.0
H1879 H 0.48326 0.12744 0.12331 0.0
C1880 C 0.13156 0.30634 0.34823 0.0
C1881 C 0.11432 0.31312 0.33379 0.0
C1882 C 0.15106 0.30056 0.33918 0.0
C1883 C 0.15437 0.30202 0.31495 0.0
C1884 C 0.13703 0.3089 0.30024 0.0
C1885 C 0.1173 0.31393 0.30961 0.0
C1886 C 0.1683 0.2929 0.35576 0.0
C1887 C 0.13948 0.31136 0.27452 0.0
C1888 C 0.21704 0.31103 0.30206 0.0
C1889 C 0.21927 0.2899 0.29082 0.0
C1890 C 0.19617 0.31528 0.30893 0.0
C1891 C 0.1765 0.29783 0.30567 0.0
C1892 C 0.17855 0.27642 0.2942 0.0
C1893 C 0.19953 0.27289 0.2867 0.0
C1894 C 0.19549 0.33873 0.31993 0.0
C1895 C 0.15878 0.25681 0.29049 0.0
H1896 H 0.12971 0.30525 0.36681 0.0
H1897 H 0.10435 0.31897 0.29799 0.0
H1898 H 0.17201 0.27678 0.3477 0.0
H1899 H 0.18431 0.3056 0.35855 0.0
H1900 H 0.16254 0.29049 0.37337 0.0
H1901 H 0.12604 0.31912 0.26599 0.0
H1902 H 0.15618 0.32187 0.27308 0.0
H1903 H 0.13866 0.29454 0.26445 0.0
H1904 H 0.23171 0.32462 0.30523 0.0
H1905 H 0.20052 0.2565 0.27811 0.0
H1906 H 0.19986 0.34007 0.33952 0.0
H1907 H 0.17858 0.34295 0.31619 0.0
H1908 H 0.20791 0.35145 0.31308 0.0
H1909 H 0.15578 0.25104 0.30795 0.0
H1910 H 0.16177 0.24238 0.27842 0.0
H1911 H 0.14317 0.26194 0.28304 0.0
C1912 C 0.99228 0.02354 0.20828 0.0
C1913 C 0.97018 0.02708 0.20888 0.0
C1914 C 1.00364 0.02737 0.1883 0.0
C1915 C 0.9928 0.03525 0.16846 0.0
C1916 C 0.97066 0.03937 0.16924 0.0
C1917 C 0.95957 0.03506 0.18931 0.0
C1918 C 0.02718 0.02272 0.1883 0.0
C1919 C 0.95846 0.04791 0.14867 0.0
C1920 C 0.02624 0.06215 0.12179 0.0
C1921 C 0.02506 0.0436 0.10451 0.0
C1922 C 0.0168 0.05952 0.1432 0.0
C1923 C 1.00424 0.03821 0.14653 0.0
C1924 C 1.00259 0.0196 0.12879 0.0
C1925 C 0.01396 0.02233 0.10866 0.0
C1926 C 0.02037 0.07951 0.16225 0.0
C1927 C 0.98824 0.99692 0.13064 0.0
H1928 H 1.0006 0.01741 0.22334 0.0
H1929 H 0.94259 0.0381 0.18974 0.0
H1930 H 0.02733 0.00912 0.17375 0.0
H1931 H 0.03893 0.03799 0.18487 0.0
H1932 H 0.03361 0.01751 0.20542 0.0
H1933 H 0.9421 0.05201 0.1528 0.0
H1934 H 0.96906 0.06322 0.14379 0.0
H1935 H 0.95519 0.03491 0.13284 0.0
H1936 H 0.03472 0.07868 0.11872 0.0
H1937 H 0.01383 0.00779 0.09591 0.0
H1938 H 0.02691 0.07488 0.17961 0.0
H1939 H 1.00404 0.08464 0.16442 0.0
H1940 H 0.03244 0.0942 0.15799 0.0
H1941 H 0.99009 0.98375 0.11634 0.0
H1942 H 0.97022 0.9984 0.12928 0.0
H1943 H 0.99258 0.99132 0.14815 0.0
C1944 C 0.27865 0.65921 0.48089 0.0
C1945 C 0.26538 0.66072 0.49934 0.0
C1946 C 0.27636 0.67207 0.46209 0.0
C1947 C 0.26027 0.68615 0.4621 0.0
C1948 C 0.24577 0.68631 0.47997 0.0
C1949 C 0.24866 0.67363 0.49851 0.0
C1950 C 0.29216 0.67175 0.44337 0.0
C1951 C 0.22808 0.70084 0.48033 0.0
C1952 C 0.26281 0.74173 0.43986 0.0
C1953 C 0.24533 0.73588 0.42103 0.0
C1954 C 0.27015 0.72497 0.45175 0.0
C1955 C 0.25917 0.70221 0.44478 0.0
C1956 C 0.24285 0.69621 0.42444 0.0
C1957 C 0.23614 0.71328 0.41266 0.0
C1958 C 0.28812 0.73178 0.47303 0.0
C1959 C 0.23094 0.67208 0.41657 0.0
H1960 H 0.2916 0.64913 0.48188 0.0
H1961 H 0.23827 0.67434 0.51286 0.0
H1962 H 0.28355 0.67306 0.42555 0.0
H1963 H 0.30637 0.68646 0.448 0.0
H1964 H 0.29929 0.65619 0.44237 0.0
H1965 H 0.21714 0.69752 0.49454 0.0
H1966 H 0.23643 0.71891 0.48338 0.0
H1967 H 0.21718 0.69786 0.46295 0.0
H1968 H 0.27033 0.75935 0.44553 0.0
H1969 H 0.22304 0.70906 0.3975 0.0
H1970 H 0.29983 0.71981 0.47342 0.0
H1971 H 0.28 0.73141 0.4896 0.0
H1972 H 0.29804 0.74907 0.47301 0.0
H1973 H 0.24316 0.66062 0.41694 0.0
H1974 H 0.22159 0.66989 0.39837 0.0
H1975 H 0.21869 0.66687 0.42908 0.0
C1976 C 0.65184 0.03316 0.6779 0.0
C1977 C 0.64939 0.04595 0.69898 0.0
C1978 C 0.63487 0.02924 0.65868 0.0
C1979 C 0.61558 0.03871 0.66097 0.0
C1980 C 0.61261 0.05071 0.6826 0.0
C1981 C 0.62966 0.05411 0.70156 0.0
C1982 C 0.63808 0.01615 0.63564 0.0
C1983 C 0.5921 0.0611 0.68522 0.0
C1984 C 0.58601 0.05823 0.60892 0.0
C1985 C 0.56871 0.03967 0.60162 0.0
C1986 C 0.60253 0.05733 0.62732 0.0
C1987 C 0.59969 0.0385 0.64011 0.0
C1988 C 0.581 0.02046 0.6339 0.0
C1989 C 0.5661 0.02083 0.6138 0.0
C1990 C 0.62311 0.07617 0.63273 0.0
C1991 C 0.57676 1.00096 0.6483 0.0
H1992 H 0.66712 0.0266 0.67634 0.0
H1993 H 0.62796 0.06398 0.71804 0.0
H1994 H 0.62303 1.00267 0.62925 0.0
H1995 H 0.63999 0.02758 0.62171 0.0
H1996 H 0.65319 0.00832 0.63758 0.0
H1997 H 0.59148 0.06801 0.70394 0.0
H1998 H 0.59235 0.07505 0.6741 0.0
H1999 H 0.5764 0.04842 0.67885 0.0
H2000 H 0.58705 0.07298 0.59963 0.0
H2001 H 0.55228 1.00662 0.60779 0.0
H2002 H 0.63845 0.06925 0.63002 0.0
H2003 H 0.62508 0.08379 0.65158 0.0
H2004 H 0.62229 0.08968 0.62116 0.0
H2005 H 0.58874 0.98967 0.64484 0.0
H2006 H 0.55929 0.99091 0.64368 0.0
H2007 H 0.57949 1.00705 0.66765 0.0
C2008 C 0.29261 0.36378 0.95867 0.0
C2009 C 0.30895 0.36119 0.97693 0.0
C2010 C 0.29212 0.35362 0.9352 0.0
C2011 C 0.30871 0.34098 0.9297 0.0
C2012 C 0.32543 0.33857 0.94804 0.0
C2013 C 0.32516 0.34844 0.97149 0.0
C2014 C 0.27369 0.3562 0.91634 0.0
C2015 C 0.3439 0.32597 0.94279 0.0
C2016 C 0.29636 0.29796 0.87381 0.0
C2017 C 0.30606 0.31065 0.85706 0.0
C2018 C 0.29701 0.30765 0.89749 0.0
C2019 C 0.30849 0.33026 0.90477 0.0
C2020 C 0.31917 0.34277 0.88799 0.0
C2021 C 0.31733 0.33297 0.86419 0.0
C2022 C 0.28476 0.29396 0.91451 0.0
C2023 C 0.33217 0.36664 0.895 0.0
H2024 H 0.28001 0.37359 0.96279 0.0
H2025 H 0.338 0.34663 0.98548 0.0
H2026 H 0.28117 0.36401 0.90151 0.0
H2027 H 0.26358 0.33935 0.90877 0.0
H2028 H 0.26218 0.36673 0.92344 0.0
H2029 H 0.35567 0.32562 0.95899 0.0
H2030 H 0.33647 0.30837 0.93488 0.0
H2031 H 0.35371 0.33404 0.9295 0.0
H2032 H 0.28745 0.28075 0.86811 0.0
H2033 H 0.32481 0.34274 0.85112 0.0
H2034 H 0.27151 0.30249 0.92102 0.0
H2035 H 0.29665 0.29277 0.93028 0.0
H2036 H 0.27667 0.27663 0.9061 0.0
H2037 H 0.32019 0.37808 0.89783 0.0
H2038 H 0.34256 0.37256 0.8811 0.0
H2039 H 0.34343 0.36802 0.91198 0.0
C2040 C 0.99052 0.01455 0.34247 0.0
C2041 C 0.97198 0.02493 0.33809 0.0
C2042 C 1.0014 0.01538 0.36574 0.0
C2043 C 0.9937 0.027 0.38517 0.0
C2044 C 0.97529 0.03794 0.38077 0.0
C2045 C 0.96462 0.0367 0.35735 0.0
C2046 C 0.02082 1.00335 0.3696 0.0
C2047 C 0.96676 0.05083 0.40087 0.0
C2048 C 1.00483 0.01134 0.44788 0.0
C2049 C 0.02312 0.02836 0.45807 0.0
C2050 C 0.99556 0.0103 0.42399 0.0
C2051 C 1.00438 0.02715 0.41016 0.0
C2052 C 0.02285 0.04451 0.42055 0.0
C2053 C 0.03208 0.04482 0.44438 0.0
C2054 C 0.97591 0.9915 0.41376 0.0
C2055 C 0.03257 0.063 0.40668 0.0
H2056 H 0.99629 1.00539 0.32771 0.0
H2057 H 0.95039 0.04488 0.35415 0.0
H2058 H 0.03575 0.01506 0.37982 0.0
H2059 H 0.01607 0.98937 0.38029 0.0
H2060 H 0.0257 0.99627 0.35256 0.0
H2061 H 0.9522 0.05828 0.39456 0.0
H2062 H 0.96154 0.03954 0.41423 0.0
H2063 H 0.98051 0.06461 0.41008 0.0
H2064 H 0.99742 0.99913 0.45876 0.0
H2065 H 0.04593 0.05829 0.45253 0.0
H2066 H 0.97968 0.98258 0.39709 0.0
H2067 H 0.96071 0.99861 0.40916 0.0
H2068 H 0.9719 0.97903 0.42639 0.0
H2069 H 0.03892 0.05561 0.3907 0.0
H2070 H 0.04663 0.0755 0.41746 0.0
H2071 H 0.01921 0.07197 0.40035 0.0
C2072 C 0.3033 0.6924 0.62671 0.0
C2073 C 0.28547 0.67383 0.62441 0.0
C2074 C 0.30514 0.71001 0.64476 0.0
C2075 C 0.28899 0.70841 0.66087 0.0
C2076 C 0.27174 0.68908 0.65954 0.0
C2077 C 0.27017 0.67175 0.64108 0.0
C2078 C 0.32365 0.73066 0.64588 0.0
C2079 C 0.25446 0.68725 0.67687 0.0
C2080 C 0.30618 0.7476 0.71704 0.0
C2081 C 0.2921 0.76303 0.71373 0.0
C2082 C 0.30437 0.72889 0.70039 0.0
C2083 C 0.29001 0.72725 0.67895 0.0
C2084 C 0.27728 0.74391 0.67444 0.0
C2085 C 0.27799 0.76148 0.69238 0.0
C2086 C 0.31748 0.71082 0.7059 0.0
C2087 C 0.2632 0.74324 0.65077 0.0
H2088 H 0.31518 0.69361 0.61372 0.0
H2089 H 0.25633 0.6573 0.63891 0.0
H2090 H 0.31631 0.74605 0.64584 0.0
H2091 H 0.33527 0.73266 0.66267 0.0
H2092 H 0.3337 0.72969 0.63072 0.0
H2093 H 0.24334 0.67027 0.67448 0.0
H2094 H 0.26299 0.69096 0.69547 0.0
H2095 H 0.24372 0.69991 0.67435 0.0
H2096 H 0.31844 0.74996 0.73274 0.0
H2097 H 0.26764 0.77396 0.68971 0.0
H2098 H 0.33013 0.70979 0.69336 0.0
H2099 H 0.30587 0.69413 0.70358 0.0
H2100 H 0.32638 0.71402 0.72438 0.0
H2101 H 0.27414 0.74341 0.63632 0.0
H2102 H 0.25454 0.75777 0.65027 0.0
H2103 H 0.25029 0.72742 0.64691 0.0
C2104 C 0.66668 0.04737 0.82603 0.0
C2105 C 0.67412 0.06738 0.81662 0.0
C2106 C 0.65132 0.04674 0.84272 0.0
C2107 C 0.64393 0.06673 0.85018 0.0
C2108 C 0.65289 0.08733 0.84201 0.0
C2109 C 0.66774 0.08732 0.82501 0.0
C2110 C 0.6418 0.02448 0.85083 0.0
C2111 C 0.64577 0.10913 0.85013 0.0
C2112 C 0.5879 0.07276 0.86822 0.0
C2113 C 0.59426 0.08072 0.89235 0.0
C2114 C 0.60348 0.06532 0.85449 0.0
C2115 C 0.62581 0.06641 0.8653 0.0
C2116 C 0.63161 0.0724 0.89008 0.0
C2117 C 0.61573 0.07964 0.90335 0.0
C2118 C 0.59667 0.05827 0.82811 0.0
C2119 C 0.6552 0.07345 0.90216 0.0
H2120 H 0.67153 0.03192 0.81909 0.0
H2121 H 0.67372 0.1027 0.81756 0.0
H2122 H 0.63964 0.02655 0.86999 0.0
H2123 H 0.62488 0.01754 0.84068 0.0
H2124 H 0.65271 0.01197 0.84771 0.0
H2125 H 0.65576 0.12387 0.84346 0.0
H2126 H 0.62767 0.10795 0.84362 0.0
H2127 H 0.64775 0.11224 0.86987 0.0
H2128 H 0.57106 0.07305 0.85998 0.0
H2129 H 0.62061 0.08572 0.92212 0.0
H2130 H 0.60369 0.0434 0.82199 0.0
H2131 H 0.60357 0.07225 0.81825 0.0
H2132 H 0.57801 0.05415 0.82346 0.0
H2133 H 0.66183 0.05845 0.89563 0.0
H2134 H 0.65581 0.07455 0.92183 0.0
H2135 H 0.66661 0.08857 0.89787 0.0
C2136 C 0.31542 0.36888 0.12864 0.0
C2137 C 0.30101 0.3628 0.10709 0.0
C2138 C 0.31052 0.35852 0.14902 0.0
C2139 C 0.29045 0.34207 0.14803 0.0
C2140 C 0.2755 0.33643 0.1265 0.0
C2141 C 0.28108 0.34663 0.10626 0.0
C2142 C 0.32714 0.36475 0.17146 0.0
C2143 C 0.2536 0.31954 0.12482 0.0
C2144 C 0.29084 0.29856 0.19145 0.0
C2145 C 0.28002 0.30726 0.20992 0.0
C2146 C 0.29386 0.30946 0.17112 0.0
C2147 C 0.2859 0.3297 0.16901 0.0
C2148 C 0.27439 0.33828 0.18725 0.0
C2149 C 0.27173 0.32706 0.20755 0.0
C2150 C 0.30623 0.29965 0.15222 0.0
C2151 C 0.2655 0.35972 0.18578 0.0
H2152 H 0.3308 0.38141 0.12944 0.0
H2153 H 0.26966 0.34213 0.08978 0.0
H2154 H 0.31851 0.36999 0.18671 0.0
H2155 H 0.33408 0.3498 0.17571 0.0
H2156 H 0.34139 0.37862 0.16977 0.0
H2157 H 0.24343 0.31756 0.10706 0.0
H2158 H 0.25709 0.30286 0.12836 0.0
H2159 H 0.24338 0.32494 0.13859 0.0
H2160 H 0.2977 0.28351 0.19317 0.0
H2161 H 0.2635 0.33402 0.22175 0.0
H2162 H 0.32192 0.31179 0.15067 0.0
H2163 H 0.29565 0.2967 0.13464 0.0
H2164 H 0.31081 0.28346 0.15618 0.0
H2165 H 0.27982 0.37438 0.18961 0.0
H2166 H 0.25342 0.3618 0.19882 0.0
H2167 H 0.25699 0.36003 0.16763 0.0
C2168 C 0.23913 0.97242 0.98466 0.0
C2169 C 0.24494 0.95512 0.99676 0.0
C2170 C 0.2242 0.98518 0.99354 0.0
C2171 C 0.2164 0.98111 0.01553 0.0
C2172 C 0.22206 0.96331 0.02748 0.0
C2173 C 0.23584 0.95012 0.01752 0.0
C2174 C 0.21774 1.00359 0.98009 0.0
C2175 C 0.21481 0.95907 0.05152 0.0
C2176 C 0.20307 0.02401 0.06065 0.0
C2177 C 0.17989 0.01612 0.05993 0.0
C2178 C 0.21507 0.01422 0.04427 0.0
C2179 C 0.20343 0.99599 0.0273 0.0
C2180 C 0.17976 0.98903 0.02554 0.0
C2181 C 0.16816 0.99931 0.04198 0.0
C2182 C 0.24038 0.02205 0.04648 0.0
C2183 C 0.16702 0.96957 0.00762 0.0
H2184 H 0.24664 0.97626 0.96874 0.0
H2185 H 0.24104 0.93703 0.02708 0.0
H2186 H 0.19952 1.00381 0.98008 0.0
H2187 H 0.2274 0.0202 0.98893 0.0
H2188 H 0.22144 1.00151 0.96137 0.0
H2189 H 0.22112 0.94468 0.05845 0.0
H2190 H 0.22126 0.97431 0.06468 0.0
H2191 H 0.19612 0.9555 0.05032 0.0
H2192 H 0.21179 0.03754 0.07427 0.0
H2193 H 0.15008 0.99365 0.04141 0.0
H2194 H 0.24601 0.02361 0.02873 0.0
H2195 H 0.24876 0.00941 0.05453 0.0
H2196 H 0.24617 0.03855 0.05786 0.0
H2197 H 0.17269 0.97102 0.98984 0.0
H2198 H 0.14848 0.96865 0.00604 0.0
H2199 H 0.17056 0.95351 0.01319 0.0
C2200 C 0.70839 0.62097 0.00416 0.0
C2201 C 0.71029 0.64399 0.01188 0.0
C2202 C 0.68841 0.60536 0.00519 0.0
C2203 C 0.67001 0.61288 0.01454 0.0
C2204 C 0.67181 0.63612 0.02228 0.0
C2205 C 0.69186 0.6514 0.02069 0.0
C2206 C 0.68693 0.58081 0.99624 0.0
C2207 C 0.65273 0.64479 0.03272 0.0
C2208 C 0.61079 0.57734 0.99877 0.0
C2209 C 0.60822 0.56603 0.01885 0.0
C2210 C 0.63093 0.59229 0.99697 0.0
C2211 C 0.64878 0.59648 0.01597 0.0
C2212 C 0.64625 0.58511 0.03633 0.0
C2213 C 0.62609 0.56974 0.03737 0.0
C2214 C 0.633 0.60379 0.97483 0.0
C2215 C 0.66467 0.58949 0.05718 0.0
H2216 H 0.72257 0.61513 0.99732 0.0
H2217 H 0.6933 0.66913 0.02691 0.0
H2218 H 0.68313 0.57028 0.01062 0.0
H2219 H 0.67288 0.57523 0.98148 0.0
H2220 H 0.7028 0.57761 0.98974 0.0
H2221 H 0.65646 0.66345 0.03705 0.0
H2222 H 0.63693 0.63972 0.02011 0.0
H2223 H 0.64954 0.6372 0.04923 0.0
H2224 H 0.59699 0.57449 0.98439 0.0
H2225 H 0.62396 0.56125 0.05304 0.0
H2226 H 0.64805 0.60039 0.96671 0.0
H2227 H 0.63543 0.62231 0.97952 0.0
H2228 H 0.61786 0.59808 0.96132 0.0
H2229 H 0.68007 0.58433 0.05148 0.0
H2230 H 0.6596 0.58023 0.07219 0.0
H2231 H 0.66922 0.6078 0.06369 0.0
C2232 C 0.69423 0.50438 0.30488 0.0
C2233 C 0.67257 0.50196 0.29241 0.0
C2234 C 0.70704 0.48767 0.30138 0.0
C2235 C 0.69814 0.46845 0.28456 0.0
C2236 C 0.67564 0.46519 0.27324 0.0
C2237 C 0.66302 0.48196 0.27749 0.0
C2238 C 0.73066 0.49143 0.3144 0.0
C2239 C 0.66554 0.44488 0.25517 0.0
C2240 C 0.73736 0.44582 0.24549 0.0
C2241 C 0.73697 0.42428 0.25229 0.0
C2242 C 0.72534 0.46058 0.25641 0.0
C2243 C 0.71338 0.45408 0.27541 0.0
C2244 C 0.71463 0.43327 0.28395 0.0
C2245 C 0.72624 0.41843 0.27209 0.0
C2246 C 0.72435 0.48256 0.24659 0.0
C2247 C 0.70314 0.42646 0.30508 0.0
H2248 H 0.7015 0.5197 0.31681 0.0
H2249 H 0.64619 0.48 0.26802 0.0
H2250 H 0.73457 0.47544 0.3198 0.0
H2251 H 0.74303 0.49771 0.30244 0.0
H2252 H 0.73303 0.50407 0.33049 0.0
H2253 H 0.6474 0.44416 0.24912 0.0
H2254 H 0.67486 0.4454 0.23941 0.0
H2255 H 0.66722 0.42914 0.26276 0.0
H2256 H 0.74636 0.45082 0.23084 0.0
H2257 H 0.72603 0.40191 0.27766 0.0
H2258 H 0.73032 0.49696 0.26085 0.0
H2259 H 0.70662 0.48292 0.23985 0.0
H2260 H 0.73477 0.48509 0.23182 0.0
H2261 H 0.7096 0.43933 0.32078 0.0
H2262 H 0.70595 0.40982 0.30969 0.0
H2263 H 0.68471 0.4257 0.30138 0.0
C2264 C 0.87195 0.48953 0.51088 0.0
C2265 C 0.867 0.46691 0.51455 0.0
C2266 C 0.89425 0.50116 0.51399 0.0
C2267 C 0.91152 0.48976 0.52139 0.0
C2268 C 0.90647 0.46735 0.52651 0.0
C2269 C 0.88408 0.456 0.52273 0.0
C2270 C 0.89938 0.52493 0.5076 0.0
C2271 C 0.92481 0.45515 0.53476 0.0
C2272 C 0.96475 0.50854 0.49595 0.0
C2273 C 0.97612 0.5251 0.51409 0.0
C2274 C 0.94372 0.49625 0.49842 0.0
C2275 C 0.93482 0.50012 0.52011 0.0
C2276 C 0.94717 0.51571 0.53922 0.0
C2277 C 0.96751 0.5289 0.53553 0.0
C2278 C 0.93037 0.48068 0.47715 0.0
C2279 C 0.9383 0.51933 0.56284 0.0
H2280 H 0.85855 0.49779 0.50451 0.0
H2281 H 0.87998 0.4385 0.52582 0.0
H2282 H 0.91085 0.53632 0.52213 0.0
H2283 H 0.90814 0.52508 0.49144 0.0
H2284 H 0.88386 0.53186 0.50401 0.0
H2285 H 0.91782 0.43839 0.53989 0.0
H2286 H 0.93542 0.4527 0.52036 0.0
H2287 H 0.93603 0.46545 0.55021 0.0
H2288 H 0.97167 0.50631 0.47923 0.0
H2289 H 0.97624 0.54256 0.54898 0.0
H2290 H 0.91502 0.48706 0.47119 0.0
H2291 H 0.92475 0.46355 0.48201 0.0
H2292 H 0.94027 0.47935 0.4619 0.0
H2293 H 0.92397 0.52821 0.56081 0.0
H2294 H 0.9515 0.52953 0.57677 0.0
H2295 H 0.93191 0.50289 0.56899 0.0
C2296 C 0.34823 0.08362 0.32783 0.0
C2297 C 0.36996 0.08359 0.32198 0.0
C2298 C 0.33559 0.0982 0.31821 0.0
C2299 C 0.34478 0.11184 0.30163 0.0
C2300 C 0.36742 0.11306 0.29721 0.0
C2301 C 0.38007 0.09931 0.3082 0.0
C2302 C 0.31183 0.09747 0.32407 0.0
C2303 C 0.37751 0.12697 0.27901 0.0
C2304 C 0.30617 0.12132 0.24942 0.0
C2305 C 0.3073 0.14454 0.25412 0.0
C2306 C 0.3179 0.11021 0.2652 0.0
C2307 C 0.3301 0.12257 0.28655 0.0
C2308 C 0.33032 0.14569 0.29208 0.0
C2309 C 0.31951 0.15659 0.27543 0.0
C2310 C 0.31819 0.08558 0.25841 0.0
C2311 C 0.34256 0.159 0.31519 0.0
H2312 H 0.34063 0.07124 0.33852 0.0
H2313 H 0.39688 0.09887 0.30359 0.0
H2314 H 0.3081 0.11469 0.32625 0.0
H2315 H 0.29963 0.08734 0.30927 0.0
H2316 H 0.30907 0.08971 0.34061 0.0
H2317 H 0.39489 0.12468 0.27661 0.0
H2318 H 0.36682 0.12226 0.2615 0.0
H2319 H 0.37812 0.14511 0.28453 0.0
H2320 H 0.2965 0.1119 0.23322 0.0
H2321 H 0.32113 0.17469 0.279 0.0
H2322 H 0.31208 0.07556 0.27245 0.0
H2323 H 0.33578 0.08352 0.25683 0.0
H2324 H 0.30756 0.07848 0.24124 0.0
H2325 H 0.33827 0.14978 0.33045 0.0
H2326 H 0.33834 0.17598 0.31821 0.0
H2327 H 0.36107 0.16115 0.31505 0.0
C2328 C 0.33166 0.1496 0.54726 0.0
C2329 C 0.32452 0.15369 0.5243 0.0
C2330 C 0.34781 0.1363 0.55109 0.0
C2331 C 0.3577 0.12776 0.53152 0.0
C2332 C 0.35087 0.13232 0.50828 0.0
C2333 C 0.33386 0.14486 0.50485 0.0
C2334 C 0.3541 0.1312 0.57606 0.0
C2335 C 0.36149 0.12396 0.48715 0.0
C2336 C 0.41293 0.11243 0.55323 0.0
C2337 C 0.40578 0.08953 0.55499 0.0
C2338 C 0.39777 0.12487 0.5436 0.0
C2339 C 0.37508 0.11402 0.53578 0.0
C2340 C 0.3684 0.09045 0.53578 0.0
C2341 C 0.3839 0.07846 0.54557 0.0
C2342 C 0.40552 0.14994 0.54371 0.0
C2343 C 0.34437 0.07826 0.52768 0.0
H2344 H 0.32409 0.15629 0.56217 0.0
H2345 H 0.3282 0.14819 0.4871 0.0
H2346 H 0.35141 0.11269 0.57635 0.0
H2347 H 0.37226 0.13822 0.582 0.0
H2348 H 0.34406 0.13833 0.58906 0.0
H2349 H 0.35603 0.13101 0.47079 0.0
H2350 H 0.38018 0.12852 0.49096 0.0
H2351 H 0.35678 0.1053 0.48367 0.0
H2352 H 0.42991 0.12086 0.5608 0.0
H2353 H 0.37853 0.06073 0.54722 0.0
H2354 H 0.3984 0.15914 0.55801 0.0
H2355 H 0.39932 0.1552 0.52656 0.0
H2356 H 0.42422 0.15512 0.5469 0.0
H2357 H 0.33362 0.08215 0.54155 0.0
H2358 H 0.34298 0.05969 0.52467 0.0
H2359 H 0.33754 0.08392 0.51103 0.0
C2360 C 0.70679 0.62237 0.31085 0.0
C2361 C 0.68408 0.62009 0.30142 0.0
C2362 C 0.72253 0.64231 0.31032 0.0
C2363 C 0.71548 0.66027 0.29971 0.0
C2364 C 0.69252 0.65814 0.29031 0.0
C2365 C 0.67703 0.63812 0.29148 0.0
C2366 C 0.74672 0.64414 0.32105 0.0
C2367 C 0.68447 0.67677 0.27843 0.0
C2368 C 0.75051 0.7196 0.315 0.0
C2369 C 0.76302 0.72144 0.29573 0.0
C2370 C 0.73534 0.69963 0.31677 0.0
C2371 C 0.73215 0.68127 0.29847 0.0
C2372 C 0.74486 0.68302 0.279 0.0
C2373 C 0.76047 0.70298 0.27808 0.0
C2374 C 0.72254 0.69827 0.33809 0.0
C2375 C 0.74162 0.66399 0.25889 0.0
H2376 H 0.71231 0.60847 0.31861 0.0
H2377 H 0.65956 0.63632 0.28393 0.0
H2378 H 0.75822 0.64737 0.30734 0.0
H2379 H 0.75154 0.65864 0.33537 0.0
H2380 H 0.74949 0.62864 0.32863 0.0
H2381 H 0.66594 0.67286 0.27286 0.0
H2382 H 0.68884 0.69282 0.29064 0.0
H2383 H 0.69316 0.67952 0.26246 0.0
H2384 H 0.75254 0.73386 0.32873 0.0
H2385 H 0.76994 0.70453 0.26302 0.0
H2386 H 0.72553 0.68363 0.34718 0.0
H2387 H 0.70414 0.6956 0.33223 0.0
H2388 H 0.72755 0.71378 0.35116 0.0
H2389 H 0.74662 0.64899 0.26571 0.0
H2390 H 0.75172 0.6686 0.24432 0.0
H2391 H 0.72353 0.65907 0.2514 0.0
C2392 C 0.87468 0.4502 0.8175 0.0
C2393 C 0.86554 0.46688 0.80708 0.0
C2394 C 0.8614 0.42888 0.81736 0.0
C2395 C 0.83888 0.42451 0.80624 0.0
C2396 C 0.82951 0.44136 0.79604 0.0
C2397 C 0.84301 0.46253 0.79671 0.0
C2398 C 0.87144 0.41096 0.82859 0.0
C2399 C 0.80547 0.4368 0.78387 0.0
C2400 C 0.81451 0.36469 0.78077 0.0
C2401 C 0.79938 0.35863 0.79678 0.0
C2402 C 0.82724 0.3865 0.78336 0.0
C2403 C 0.82552 0.40178 0.80326 0.0
C2404 C 0.81015 0.39575 0.81946 0.0
C2405 C 0.79661 0.37439 0.81545 0.0
C2406 C 0.84269 0.39269 0.76499 0.0
C2407 C 0.80868 0.41125 0.84157 0.0
H2408 H 0.89205 0.45385 0.82587 0.0
H2409 H 0.83599 0.4756 0.78885 0.0
H2410 H 0.86009 0.40292 0.84067 0.0
H2411 H 0.87315 0.39758 0.81446 0.0
H2412 H 0.88835 0.41788 0.83884 0.0
H2413 H 0.80094 0.45184 0.7766 0.0
H2414 H 0.80306 0.42283 0.76905 0.0
H2415 H 0.79357 0.4314 0.79664 0.0
H2416 H 0.81642 0.35239 0.76635 0.0
H2417 H 0.78465 0.36982 0.82765 0.0
H2418 H 0.85806 0.38556 0.76855 0.0
H2419 H 0.84799 0.4111 0.76487 0.0
H2420 H 0.83408 0.38529 0.74698 0.0
H2421 H 0.82315 0.41103 0.85511 0.0
H2422 H 0.79285 0.4058 0.84938 0.0
H2423 H 0.80966 0.42891 0.83789 0.0
C2424 C 0.05157 0.87981 0.09875 0.0
C2425 C 0.06691 0.86731 0.08958 0.0
C2426 C 0.05011 0.90181 0.09291 0.0
C2427 C 0.06449 0.91256 0.0775 0.0
C2428 C 0.0802 0.90015 0.06833 0.0
C2429 C 0.08112 0.87795 0.07425 0.0
C2430 C 0.03297 0.91362 0.10338 0.0
C2431 C 0.09644 0.91057 0.05242 0.0
C2432 C 0.04624 0.96161 0.04553 0.0
C2433 C 0.05909 0.98148 0.05915 0.0
C2434 C 0.04802 0.93955 0.05103 0.0
C2435 C 0.0629 0.93647 0.07099 0.0
C2436 C 0.07584 0.95649 0.08492 0.0
C2437 C 0.07389 0.97836 0.07886 0.0
C2438 C 0.03383 0.91936 0.03523 0.0
C2439 C 0.09159 0.9549 0.1067 0.0
H2440 H 0.04042 0.87228 0.11065 0.0
H2441 H 0.09332 0.86905 0.06711 0.0
H2442 H 0.04147 0.93022 0.11329 0.0
H2443 H 0.02077 0.91686 0.08886 0.0
H2444 H 0.02345 0.90361 0.11562 0.0
H2445 H 0.10702 0.89881 0.0458 0.0
H2446 H 0.08703 0.91591 0.03695 0.0
H2447 H 0.10771 0.92592 0.06238 0.0
H2448 H 0.03481 0.96322 0.03018 0.0
H2449 H 0.0839 0.99316 0.08992 0.0
H2450 H 0.0226 0.90906 0.04584 0.0
H2451 H 0.04491 0.90854 0.0278 0.0
H2452 H 0.02327 0.92423 0.02026 0.0
H2453 H 0.08154 0.9486 0.12066 0.0
H2454 H 0.10245 0.97148 0.11407 0.0
H2455 H 0.10254 0.94272 0.10248 0.0
C2456 C 0.93753 0.26622 0.88336 0.0
C2457 C 0.9425 0.27427 0.90783 0.0
C2458 C 0.91714 0.26828 0.86977 0.0
C2459 C 0.90129 0.27932 0.88045 0.0
C2460 C 0.90634 0.2876 0.90512 0.0
C2461 C 0.9265 0.2847 0.91843 0.0
C2462 C 0.91262 0.25869 0.8438 0.0
C2463 C 0.89056 0.29991 0.91751 0.0
C2464 C 0.86045 0.30416 0.83868 0.0
C2465 C 0.83969 0.28907 0.83768 0.0
C2466 C 0.88023 0.3015 0.85281 0.0
C2467 C 0.87986 0.28272 0.86579 0.0
C2468 C 0.85892 0.26729 0.86462 0.0
C2469 C 0.83916 0.27085 0.85103 0.0
C2470 C 0.90156 0.31905 0.85403 0.0
C2471 C 0.85747 0.24655 0.87717 0.0
H2472 H 0.94958 0.25815 0.87477 0.0
H2473 H 0.93001 0.2912 0.93718 0.0
H2474 H 0.89542 0.24801 0.83971 0.0
H2475 H 0.91329 0.2726 0.83261 0.0
H2476 H 0.9251 0.24843 0.83867 0.0
H2477 H 0.89772 0.30717 0.93607 0.0
H2478 H 0.8867 0.31373 0.90751 0.0
H2479 H 0.87435 0.28816 0.918 0.0
H2480 H 0.86117 0.31843 0.82868 0.0
H2481 H 0.82337 0.25892 0.8503 0.0
H2482 H 0.91482 0.31131 0.84645 0.0
H2483 H 0.90802 0.32574 0.87288 0.0
H2484 H 0.89888 0.33335 0.84418 0.0
H2485 H 0.86818 0.23551 0.86939 0.0
H2486 H 0.8399 0.23676 0.87562 0.0
H2487 H 0.86405 0.25125 0.89631 0.0
C2488 C 0.54534 0.21834 0.56858 0.0
C2489 C 0.56224 0.23042 0.5867 0.0
C2490 C 0.54187 0.19434 0.56286 0.0
C2491 C 0.55538 0.18145 0.57549 0.0
C2492 C 0.57241 0.19361 0.59374 0.0
C2493 C 0.57559 0.21751 0.59899 0.0
C2494 C 0.5234 0.18267 0.54336 0.0
C2495 C 0.58739 0.18129 0.608 0.0
C2496 C 0.53407 0.1169 0.57684 0.0
C2497 C 0.54608 0.10646 0.56043 0.0
C2498 C 0.53679 0.14082 0.58173 0.0
C2499 C 0.5518 0.15547 0.56992 0.0
C2500 C 0.56384 0.14504 0.55321 0.0
C2501 C 0.56088 0.12105 0.54876 0.0
C2502 C 0.52347 0.15044 0.59974 0.0
C2503 C 0.57976 0.15932 0.53966 0.0
H2504 H 0.53462 0.22764 0.55893 0.0
H2505 H 0.58862 0.22615 0.61313 0.0
H2506 H 0.53017 0.17164 0.53034 0.0
H2507 H 0.51007 0.17171 0.5511 0.0
H2508 H 0.51556 0.19483 0.53376 0.0
H2509 H 0.59944 0.19281 0.62203 0.0
H2510 H 0.57692 0.16825 0.61658 0.0
H2511 H 0.59713 0.17248 0.596 0.0
H2512 H 0.52244 0.1063 0.58611 0.0
H2513 H 0.56987 0.11376 0.53559 0.0
H2514 H 0.51253 0.16081 0.59116 0.0
H2515 H 0.53513 0.16171 0.61424 0.0
H2516 H 0.51268 0.13711 0.60769 0.0
H2517 H 0.57028 0.16941 0.52875 0.0
H2518 H 0.58834 0.14904 0.52773 0.0
H2519 H 0.59278 0.17136 0.55226 0.0
C2520 C 0.58568 0.79078 0.42427 0.0
C2521 C 0.56511 0.77668 0.41419 0.0
C2522 C 0.60536 0.79174 0.41297 0.0
C2523 C 0.60476 0.77812 0.391 0.0
C2524 C 0.58432 0.763 0.38133 0.0
C2525 C 0.56474 0.76261 0.39287 0.0
C2526 C 0.62672 0.80785 0.42428 0.0
C2527 C 0.58315 0.7473 0.3587 0.0
C2528 C 0.64696 0.8034 0.35101 0.0
C2529 C 0.6652 0.79274 0.35589 0.0
C2530 C 0.62687 0.79789 0.36134 0.0
C2531 C 0.62485 0.78141 0.37728 0.0
C2532 C 0.64284 0.76974 0.38133 0.0
C2533 C 0.66279 0.77559 0.37066 0.0
C2534 C 0.60822 0.81065 0.35618 0.0
C2535 C 0.64178 0.75204 0.39806 0.0
H2536 H 0.58633 0.80152 0.44088 0.0
H2537 H 0.54912 0.75126 0.38517 0.0
H2538 H 0.64083 0.7987 0.42646 0.0
H2539 H 0.63146 0.8209 0.41249 0.0
H2540 H 0.62485 0.81638 0.44198 0.0
H2541 H 0.56637 0.73589 0.35392 0.0
H2542 H 0.58675 0.75721 0.34378 0.0
H2543 H 0.59627 0.73691 0.36075 0.0
H2544 H 0.64881 0.81683 0.33983 0.0
H2545 H 0.67697 0.76757 0.37487 0.0
H2546 H 0.606 0.8209 0.37276 0.0
H2547 H 0.592 0.79869 0.35001 0.0
H2548 H 0.61179 0.82204 0.34243 0.0
H2549 H 0.64757 0.7604 0.41652 0.0
H2550 H 0.65301 0.7401 0.39375 0.0
H2551 H 0.62433 0.74234 0.39755 0.0
C2552 C 0.05841 0.26683 0.42415 0.0
C2553 C 0.05036 0.26565 0.39989 0.0
C2554 C 0.05667 0.24727 0.43577 0.0
C2555 C 0.04659 0.22587 0.42293 0.0
C2556 C 0.03912 0.22454 0.39825 0.0
C2557 C 0.04107 0.24433 0.3871 0.0
C2558 C 0.06526 0.24956 0.46193 0.0
C2559 C 0.02836 0.20222 0.3837 0.0
C2560 C 0.05156 0.17015 0.4474 0.0
C2561 C 0.03037 0.16402 0.45523 0.0
C2562 C 0.05744 0.19049 0.43746 0.0
C2563 C 0.04189 0.20521 0.43554 0.0
C2564 C 0.02097 0.19951 0.44456 0.0
C2565 C 0.01546 0.17905 0.45411 0.0
C2566 C 0.07988 0.19572 0.42803 0.0
C2567 C 1.00399 0.21472 0.44341 0.0
H2568 H 0.06586 0.28313 0.43418 0.0
H2569 H 0.03495 0.24312 0.36834 0.0
H2570 H 0.05121 0.24338 0.47205 0.0
H2571 H 0.07808 0.23897 0.46479 0.0
H2572 H 0.07295 0.26727 0.46937 0.0
H2573 H 0.02557 0.20362 0.36436 0.0
H2574 H 0.03907 0.18957 0.38644 0.0
H2575 H 0.01182 0.19576 0.38966 0.0
H2576 H 0.06309 0.15855 0.44801 0.0
H2577 H 0.99912 0.17449 0.46025 0.0
H2578 H 0.08886 0.21311 0.43511 0.0
H2579 H 0.07705 0.19482 0.40835 0.0
H2580 H 0.09089 0.18375 0.43273 0.0
H2581 H 0.01184 0.23184 0.45252 0.0
H2582 H 0.98877 0.20825 0.45179 0.0
H2583 H 0.99859 0.21643 0.42457 0.0
C2584 C 0.61516 0.28618 0.2174 0.0
C2585 C 0.59967 0.26954 0.22605 0.0
C2586 C 0.63903 0.28937 0.2236 0.0
C2587 C 0.64853 0.27546 0.23879 0.0
C2588 C 0.63302 0.25872 0.24777 0.0
C2589 C 0.60911 0.25606 0.24148 0.0
C2590 C 0.65417 0.30756 0.21342 0.0
C2591 C 0.64176 0.24351 0.26417 0.0
C2592 C 0.71103 0.26812 0.23694 0.0
C2593 C 0.72345 0.28422 0.25554 0.0
C2594 C 0.68715 0.26547 0.23111 0.0
C2595 C 0.67446 0.27823 0.24492 0.0
C2596 C 0.68689 0.2939 0.26434 0.0
C2597 C 0.71093 0.29706 0.26894 0.0
C2598 C 0.67552 0.2493 0.20961 0.0
C2599 C 0.67485 0.30762 0.28035 0.0
H2600 H 0.60857 0.29688 0.20552 0.0
H2601 H 0.59778 0.24308 0.24841 0.0
H2602 H 0.66601 0.3187 0.22786 0.0
H2603 H 0.66452 0.29973 0.2013 0.0
H2604 H 0.64447 0.31809 0.20335 0.0
H2605 H 0.62793 0.23112 0.26952 0.0
H2606 H 0.65335 0.23419 0.25535 0.0
H2607 H 0.65166 0.25381 0.28042 0.0
H2608 H 0.72005 0.25793 0.22632 0.0
H2609 H 0.71995 0.30946 0.28348 0.0
H2610 H 0.66701 0.25855 0.19678 0.0
H2611 H 0.66228 0.23631 0.21493 0.0
H2612 H 0.68748 0.24076 0.20042 0.0
H2613 H 0.66923 0.32097 0.27078 0.0
H2614 H 0.68592 0.31583 0.29693 0.0
H2615 H 0.6596 0.29687 0.28526 0.0
C2616 C 0.55986 0.89096 0.93074 0.0
C2617 C 0.55701 0.88839 0.90563 0.0
C2618 C 0.55696 0.91088 0.94458 0.0
C2619 C 0.5505 0.92896 0.93338 0.0
C2620 C 0.54756 0.92643 0.90802 0.0
C2621 C 0.55101 0.90651 0.89462 0.0
C2622 C 0.56067 0.91247 0.97138 0.0
C2623 C 0.54042 0.94474 0.89489 0.0
C2624 C 0.52212 0.97048 0.97069 0.0
C2625 C 0.5393 0.98987 0.97667 0.0
C2626 C 0.52529 0.95105 0.95623 0.0
C2627 C 0.54656 0.95021 0.94812 0.0
C2628 C 0.56406 0.96972 0.95446 0.0
C2629 C 0.56012 0.98927 0.96811 0.0
C2630 C 0.50567 0.93143 0.94939 0.0
C2631 C 0.58729 0.96977 0.94738 0.0
H2632 H 0.56433 0.87726 0.93971 0.0
H2633 H 0.5485 0.90493 0.87535 0.0
H2634 H 0.5724 0.92847 0.979 0.0
H2635 H 0.54443 0.91263 0.97858 0.0
H2636 H 0.56766 0.89814 0.97752 0.0
H2637 H 0.53674 0.93955 0.87536 0.0
H2638 H 0.52515 0.94943 0.90149 0.0
H2639 H 0.55401 0.96006 0.8983 0.0
H2640 H 0.5059 0.97066 0.97695 0.0
H2641 H 0.57364 1.00396 0.97273 0.0
H2642 H 0.50965 0.91637 0.95698 0.0
H2643 H 0.50266 0.92712 0.92973 0.0
H2644 H 0.48988 0.93506 0.95573 0.0
H2645 H 0.59461 0.95664 0.95578 0.0
H2646 H 0.59892 0.98633 0.95286 0.0
H2647 H 0.58627 0.96549 0.92783 0.0
C2648 C 0.95991 0.77944 0.74166 0.0
C2649 C 0.96297 0.76197 0.72466 0.0
C2650 C 0.93802 0.782 0.74738 0.0
C2651 C 0.91806 0.76652 0.73642 0.0
C2652 C 0.92112 0.74875 0.7194 0.0
C2653 C 0.94311 0.7469 0.71363 0.0
C2654 C 0.93625 0.80162 0.76511 0.0
C2655 C 0.901 0.73156 0.70701 0.0
C2656 C 0.86356 0.76099 0.76843 0.0
C2657 C 0.84927 0.77204 0.7549 0.0
C2658 C 0.88542 0.75882 0.76248 0.0
C2659 C 0.89424 0.76865 0.74287 0.0
C2660 C 0.87994 0.78023 0.72941 0.0
C2661 C 0.85781 0.78144 0.73527 0.0
C2662 C 0.89901 0.74556 0.7771 0.0
C2663 C 0.88818 0.79185 0.70894 0.0
H2664 H 0.9747 0.79154 0.75023 0.0
H2665 H 0.94472 0.7334 0.70031 0.0
H2666 H 0.92409 0.81124 0.75733 0.0
H2667 H 0.92969 0.79531 0.78112 0.0
H2668 H 0.95279 0.81325 0.77075 0.0
H2669 H 0.90605 0.7175 0.69615 0.0
H2670 H 0.89046 0.72447 0.72025 0.0
H2671 H 0.89033 0.73979 0.69512 0.0
H2672 H 0.85742 0.75354 0.78358 0.0
H2673 H 0.84726 0.7902 0.72463 0.0
H2674 H 0.91515 0.75655 0.78555 0.0
H2675 H 0.90327 0.73162 0.76536 0.0
H2676 H 0.88981 0.7383 0.79125 0.0
H2677 H 0.90308 0.80543 0.7157 0.0
H2678 H 0.87501 0.79938 0.69954 0.0
H2679 H 0.89372 0.77979 0.69594 0.0
C2680 C 0.09385 0.03972 0.86516 0.0
C2681 C 0.11497 0.0527 0.86274 0.0
C2682 C 0.0868 0.03736 0.88785 0.0
C2683 C 0.10114 0.04825 0.90878 0.0
C2684 C 0.12253 0.06123 0.90641 0.0
C2685 C 0.12917 0.06323 0.88357 0.0
C2686 C 0.06384 0.0234 0.8894 0.0
C2687 C 0.13842 0.07322 0.92805 0.0
C2688 C 0.07359 0.06218 0.96444 0.0
C2689 C 0.07847 0.04586 0.97884 0.0
C2690 C 0.08111 0.06329 0.94197 0.0
C2691 C 0.09332 0.04723 0.93303 0.0
C2692 C 0.09827 0.03063 0.94749 0.0
C2693 C 0.09105 0.03033 0.97034 0.0
C2694 C 0.07608 0.08182 0.92783 0.0
C2695 C 0.11075 0.01285 0.9386 0.0
H2696 H 0.08278 0.0314 0.84929 0.0
H2697 H 0.14561 0.07316 0.88207 0.0
H2698 H 0.06529 0.01091 0.90206 0.0
H2699 H 0.05278 0.03448 0.89633 0.0
H2700 H 0.05557 0.01431 0.87183 0.0
H2701 H 0.15414 0.08327 0.92326 0.0
H2702 H 0.12994 0.08465 0.93878 0.0
H2703 H 0.14306 0.06074 0.93954 0.0
H2704 H 0.06399 0.07438 0.97095 0.0
H2705 H 0.0946 0.0175 0.98121 0.0
H2706 H 0.06582 0.07442 0.91058 0.0
H2707 H 0.09207 0.09196 0.92378 0.0
H2708 H 0.06683 0.0933 0.93747 0.0
H2709 H 0.10056 1.00222 0.92269 0.0
H2710 H 0.11424 1.00179 0.9523 0.0
H2711 H 0.12699 0.02084 0.93303 0.0
C2712 C 0.78122 0.38591 0.56564 0.0
C2713 C 0.79729 0.40506 0.56357 0.0
C2714 C 0.78171 0.37598 0.58672 0.0
C2715 C 0.79893 0.38535 0.60571 0.0
C2716 C 0.81499 0.40493 0.60372 0.0
C2717 C 0.8138 0.4147 0.58269 0.0
C2718 C 0.76401 0.35548 0.5886 0.0
C2719 C 0.83404 0.41503 0.62338 0.0
C2720 C 0.80177 0.37571 0.66988 0.0
C2721 C 0.8178 0.36197 0.67063 0.0
C2722 C 0.79349 0.38181 0.64812 0.0
C2723 C 0.80171 0.37399 0.62709 0.0
C2724 C 0.81641 0.35851 0.6277 0.0
C2725 C 0.82436 0.3527 0.64962 0.0
C2726 C 0.77752 0.39807 0.64788 0.0
C2727 C 0.82539 0.34973 0.60556 0.0
H2728 H 0.76838 0.37866 0.55076 0.0
H2729 H 0.82636 0.42942 0.5809 0.0
H2730 H 0.77203 0.34164 0.59434 0.0
H2731 H 0.75329 0.35977 0.60232 0.0
H2732 H 0.75298 0.34923 0.57147 0.0
H2733 H 0.84475 0.43061 0.61909 0.0
H2734 H 0.82718 0.41914 0.64023 0.0
H2735 H 0.84493 0.4026 0.62654 0.0
H2736 H 0.7966 0.38249 0.68634 0.0
H2737 H 0.83652 0.34173 0.65053 0.0
H2738 H 0.76423 0.39315 0.63232 0.0
H2739 H 0.78703 0.41518 0.64633 0.0
H2740 H 0.76935 0.39897 0.66442 0.0
H2741 H 0.81148 0.34364 0.59076 0.0
H2742 H 0.83437 0.33576 0.60863 0.0
H2743 H 0.83736 0.36361 0.59975 0.0
C2744 C 0.42036 0.01202 0.39464 0.0
C2745 C 0.43209 0.02205 0.37735 0.0
C2746 C 0.43174 0.01046 0.4167 0.0
C2747 C 0.45509 0.01941 0.42122 0.0
C2748 C 0.46716 0.02884 0.40356 0.0
C2749 C 0.4554 0.02995 0.3816 0.0
C2750 C 0.41873 1.0001 0.43539 0.0
C2751 C 0.49228 0.03842 0.40814 0.0
C2752 C 0.48383 0.04315 0.4819 0.0
C2753 C 0.49679 0.027 0.48612 0.0
C2754 C 0.46881 0.04015 0.46117 0.0
C2755 C 0.46691 0.02048 0.4449 0.0
C2756 C 0.47885 1.00342 0.44994 0.0
C2757 C 0.49395 1.00703 0.47062 0.0
C2758 C 0.45628 0.05868 0.45593 0.0
C2759 C 0.47656 0.98204 0.43298 0.0
H2760 H 0.40228 1.00568 0.39108 0.0
H2761 H 0.46435 0.03754 0.36802 0.0
H2762 H 0.42771 0.98812 0.44391 0.0
H2763 H 0.41737 0.01353 0.4496 0.0
H2764 H 0.40141 0.99107 0.42784 0.0
H2765 H 0.49902 0.04486 0.39224 0.0
H2766 H 0.49591 0.05245 0.423 0.0
H2767 H 0.50153 0.0253 0.41356 0.0
H2768 H 0.48612 0.05847 0.49425 0.0
H2769 H 0.5038 0.99445 0.47451 0.0
H2770 H 0.43804 0.05163 0.45063 0.0
H2771 H 0.46283 0.06678 0.44079 0.0
H2772 H 0.45822 0.07187 0.47147 0.0
H2773 H 0.45855 0.97354 0.42888 0.0
H2774 H 0.48636 0.97006 0.44033 0.0
H2775 H 0.48256 0.98618 0.41592 0.0
C2776 C 0.76188 0.71027 0.10463 0.0
C2777 C 0.77897 0.71751 0.09072 0.0
C2778 C 0.76415 0.71751 0.12931 0.0
C2779 C 0.78428 0.73203 0.14079 0.0
C2780 C 0.80188 0.73892 0.12694 0.0
C2781 C 0.79892 0.73185 0.1021 0.0
C2782 C 0.74486 0.70972 0.14309 0.0
C2783 C 0.824 0.75355 0.13847 0.0
C2784 C 0.78108 0.76819 0.19939 0.0
C2785 C 0.78981 0.7562 0.21674 0.0
C2786 C 0.77941 0.76064 0.17483 0.0
C2787 C 0.78656 0.74046 0.16707 0.0
C2788 C 0.79538 0.72824 0.1845 0.0
C2789 C 0.79693 0.73624 0.20897 0.0
C2790 C 0.77004 0.77437 0.1571 0.0
C2791 C 0.80287 0.70646 0.1774 0.0
H2792 H 0.74648 0.69904 0.09611 0.0
H2793 H 0.81245 0.73709 0.09167 0.0
H2794 H 0.7508 0.70121 0.15815 0.0
H2795 H 0.73851 0.72449 0.1508 0.0
H2796 H 0.73062 0.6979 0.1318 0.0
H2797 H 0.83598 0.75767 0.12537 0.0
H2798 H 0.82098 0.7695 0.14771 0.0
H2799 H 0.83202 0.74479 0.15214 0.0
H2800 H 0.77577 0.78375 0.20498 0.0
H2801 H 0.8036 0.72666 0.22206 0.0
H2802 H 0.75491 0.76396 0.14586 0.0
H2803 H 0.78275 0.77962 0.14508 0.0
H2804 H 0.76527 0.78969 0.16587 0.0
H2805 H 0.78785 0.69315 0.1703 0.0
H2806 H 0.81215 0.70064 0.19267 0.0
H2807 H 0.81386 0.70838 0.16307 0.0
C2808 C 0.12234 0.04012 0.70552 0.0
C2809 C 0.11099 0.04927 0.72333 0.0
C2810 C 0.11412 0.03818 0.68105 0.0
C2811 C 0.09396 0.04563 0.67381 0.0
C2812 C 0.08225 0.05456 0.69172 0.0
C2813 C 0.09085 0.05629 0.71612 0.0
C2814 C 0.12726 0.02844 0.6629 0.0
C2815 C 0.0605 0.0623 0.68505 0.0
C2816 C 0.08331 0.0613 0.61029 0.0
C2817 C 0.06827 0.04209 0.59825 0.0
C2818 C 0.09181 0.06262 0.63463 0.0
C2819 C 0.08523 0.04429 0.64761 0.0
C2820 C 0.07023 0.02473 0.63545 0.0
C2821 C 0.06208 0.02384 0.61109 0.0
C2822 C 0.10798 0.0837 0.64648 0.0
C2823 C 0.06289 1.00451 0.64808 0.0
H2824 H 0.13788 0.03455 0.71071 0.0
H2825 H 0.08183 0.06328 0.72957 0.0
H2826 H 0.11608 0.01449 0.65064 0.0
H2827 H 0.13389 0.0416 0.65194 0.0
H2828 H 0.14169 0.02194 0.67131 0.0
H2829 H 0.05344 0.06903 0.70089 0.0
H2830 H 0.06336 0.0756 0.67316 0.0
H2831 H 0.0478 0.048 0.67503 0.0
H2832 H 0.08872 0.0753 0.6006 0.0
H2833 H 0.05068 0.00875 0.60212 0.0
H2834 H 0.12416 0.07939 0.65353 0.0
H2835 H 0.10091 0.09131 0.66183 0.0
H2836 H 0.11154 0.09647 0.63407 0.0
H2837 H 0.07742 0.99624 0.652 0.0
H2838 H 0.04899 0.99189 0.63722 0.0
H2839 H 0.05722 0.00976 0.66533 0.0
C2840 C 0.81583 0.37895 0.43518 0.0
C2841 C 0.80326 0.39594 0.4363 0.0
C2842 C 0.81627 0.36627 0.41359 0.0
C2843 C 0.80384 0.37099 0.39302 0.0
C2844 C 0.79175 0.38867 0.39387 0.0
C2845 C 0.79158 0.40108 0.41577 0.0
C2846 C 0.82951 0.34753 0.41287 0.0
C2847 C 0.77849 0.39397 0.37191 0.0
C2848 C 0.81889 0.3446 0.33642 0.0
C2849 C 0.80004 0.3274 0.32982 0.0
C2850 C 0.81971 0.36007 0.35638 0.0
C2851 C 0.80233 0.35632 0.37095 0.0
C2852 C 0.78397 0.33784 0.36509 0.0
C2853 C 0.78254 0.32407 0.34376 0.0
C2854 C 0.83857 0.38064 0.36135 0.0
C2855 C 0.76624 0.33236 0.38146 0.0
H2856 H 0.82519 0.37546 0.4512 0.0
H2857 H 0.78193 0.41438 0.41691 0.0
H2858 H 0.81829 0.3313 0.40506 0.0
H2859 H 0.84306 0.35101 0.40135 0.0
H2860 H 0.83742 0.34557 0.43083 0.0
H2861 H 0.77282 0.41024 0.3751 0.0
H2862 H 0.78878 0.39461 0.3569 0.0
H2863 H 0.76331 0.38043 0.3663 0.0
H2864 H 0.83249 0.34636 0.32555 0.0
H2865 H 0.76798 0.31056 0.3381 0.0
H2866 H 0.84647 0.38307 0.38014 0.0
H2867 H 0.83147 0.39582 0.35843 0.0
H2868 H 0.85191 0.37964 0.34958 0.0
H2869 H 0.77445 0.32983 0.39906 0.0
H2870 H 0.7535 0.31688 0.37427 0.0
H2871 H 0.7574 0.34659 0.38445 0.0
C2872 C 0.40829 0.04097 0.23091 0.0
C2873 C 0.42174 0.03729 0.25108 0.0
C2874 C 0.41615 0.03994 0.20863 0.0
C2875 C 0.43751 0.03435 0.20666 0.0
C2876 C 0.45153 0.03172 0.22725 0.0
C2877 C 0.44353 0.03352 0.24927 0.0
C2878 C 0.40118 0.04373 0.18718 0.0
C2879 C 0.47448 0.02571 0.22595 0.0
C2880 C 0.45209 0.99747 0.15665 0.0
C2881 C 0.46957 0.01238 0.14922 0.0
C2882 C 0.43923 1.00512 0.1735 0.0
C2883 C 0.4444 0.02815 0.18322 0.0
C2884 C 0.4604 0.04368 0.1738 0.0
C2885 C 0.47293 0.03555 0.15674 0.0
C2886 C 0.42201 0.98808 0.18283 0.0
C2887 C 0.46569 0.06845 0.1833 0.0
H2888 H 0.39148 0.04413 0.23244 0.0
H2889 H 0.45397 0.03078 0.26492 0.0
H2890 H 0.41126 0.05293 0.1748 0.0
H2891 H 0.39227 0.02723 0.17736 0.0
H2892 H 0.38824 0.05337 0.19242 0.0
H2893 H 0.48274 0.02336 0.24361 0.0
H2894 H 0.47292 0.00989 0.21371 0.0
H2895 H 0.48572 0.03923 0.21879 0.0
H2896 H 0.4493 0.97964 0.15017 0.0
H2897 H 0.48628 0.04703 0.15047 0.0
H2898 H 0.4062 0.99442 0.18437 0.0
H2899 H 0.42877 0.9852 0.20088 0.0
H2900 H 0.41789 0.97165 0.17118 0.0
H2901 H 0.44992 0.07466 0.18576 0.0
H2902 H 0.47522 0.07874 0.17127 0.0
H2903 H 0.47605 0.07105 0.20098 0.0
C2904 C 0.75601 0.71717 0.93736 0.0
C2905 C 0.77573 0.71825 0.95305 0.0
C2906 C 0.75702 0.72319 0.91409 0.0
C2907 C 0.77824 0.73128 0.90645 0.0
C2908 C 0.79816 0.73279 0.92247 0.0
C2909 C 0.79668 0.72586 0.94526 0.0
C2910 C 0.73536 0.72047 0.89748 0.0
C2911 C 0.82109 0.74228 0.91577 0.0
C2912 C 0.78567 0.73321 0.84018 0.0
C2913 C 0.78318 0.75526 0.83697 0.0
C2914 C 0.78345 0.72494 0.86236 0.0
C2915 C 0.77962 0.73928 0.88228 0.0
C2916 C 0.77745 0.7616 0.87919 0.0
C2917 C 0.77853 0.76898 0.85663 0.0
C2918 C 0.78491 0.70073 0.8644 0.0
C2919 C 0.77404 0.77789 0.89978 0.0
H2920 H 0.73977 0.71089 0.94301 0.0
H2921 H 0.81202 0.7267 0.9572 0.0
H2922 H 0.73326 0.73699 0.89202 0.0
H2923 H 0.73608 0.7092 0.88105 0.0
H2924 H 0.7203 0.71334 0.90576 0.0
H2925 H 0.835 0.74176 0.92988 0.0
H2926 H 0.82393 0.73277 0.89903 0.0
H2927 H 0.82184 0.76005 0.91249 0.0
H2928 H 0.78894 0.72225 0.82523 0.0
H2929 H 0.77579 0.78579 0.85454 0.0
H2930 H 0.76931 0.69194 0.87063 0.0
H2931 H 0.79927 0.69998 0.87781 0.0
H2932 H 0.78712 0.69149 0.84718 0.0
H2933 H 0.75696 0.7726 0.90498 0.0
H2934 H 0.77575 0.7954 0.89528 0.0
H2935 H 0.78649 0.77786 0.91551 0.0
C2936 C 0.8495 0.12256 0.08782 0.0
C2937 C 0.82972 0.10725 0.07783 0.0
C2938 C 0.87058 0.11772 0.08446 0.0
C2939 C 0.87143 0.0973 0.07071 0.0
C2940 C 0.8516 0.0805 0.06375 0.0
C2941 C 0.8308 0.08567 0.06771 0.0
C2942 C 0.89149 0.13558 0.09301 0.0
C2943 C 0.85196 0.05825 0.04936 0.0
C2944 C 0.90675 0.09491 0.02124 0.0
C2945 C 0.91944 0.07929 0.02834 0.0
C2946 C 0.89238 0.10287 0.03611 0.0
C2947 C 0.89132 0.09535 0.05877 0.0
C2948 C 0.90627 0.08201 0.06726 0.0
C2949 C 0.91997 0.07372 0.05171 0.0
C2950 C 0.87668 0.11731 0.02648 0.0
C2951 C 0.90636 0.07498 0.09193 0.0
H2952 H 0.84855 0.13913 0.09627 0.0
H2953 H 0.8154 0.07373 0.06049 0.0
H2954 H 0.90643 0.12799 0.09732 0.0
H2955 H 0.89512 0.14639 0.07879 0.0
H2956 H 0.88907 0.14661 0.10897 0.0
H2957 H 0.83498 0.04708 0.04559 0.0
H2958 H 0.85823 0.06124 0.03211 0.0
H2959 H 0.8636 0.04926 0.05902 0.0
H2960 H 0.90709 0.09989 0.00353 0.0
H2961 H 0.92998 0.0618 0.05744 0.0
H2962 H 0.87747 0.13253 0.03931 0.0
H2963 H 0.85902 0.10765 0.02386 0.0
H2964 H 0.88082 0.12279 0.00918 0.0
H2965 H 0.9051 0.08931 0.10514 0.0
H2966 H 0.92184 0.06861 0.09747 0.0
H2967 H 0.8915 0.06138 0.0923 0.0
C2968 C 0.39528 0.42388 0.04254 0.0
C2969 C 0.37671 0.43435 0.04453 0.0
C2970 C 0.41664 0.43635 0.03989 0.0
C2971 C 0.41968 0.45999 0.03966 0.0
C2972 C 0.40097 0.47064 0.04158 0.0
C2973 C 0.37972 0.45769 0.04384 0.0
C2974 C 0.43594 0.4242 0.0373 0.0
C2975 C 0.40343 0.49575 0.04126 0.0
C2976 C 0.47954 0.49455 0.05678 0.0
C2977 C 0.48544 0.49997 0.0347 0.0
C2978 C 0.45803 0.48195 0.05869 0.0
C2979 C 0.44248 0.47369 0.03786 0.0
C2980 C 0.44866 0.47879 0.01542 0.0
C2981 C 0.46982 0.4924 0.01421 0.0
C2982 C 0.45186 0.47766 0.08302 0.0
C2983 C 0.43327 0.4693 0.99261 0.0
H2984 H 0.39308 0.40582 0.04279 0.0
H2985 H 0.36544 0.4659 0.04514 0.0
H2986 H 0.44436 0.42886 0.02164 0.0
H2987 H 0.44876 0.42933 0.05325 0.0
H2988 H 0.43028 0.40558 0.03524 0.0
H2989 H 0.38753 0.50164 0.04397 0.0
H2990 H 0.41698 0.50493 0.05538 0.0
H2991 H 0.40846 0.50031 0.02395 0.0
H2992 H 0.49163 0.50054 0.0726 0.0
H2993 H 0.47457 0.49641 0.99708 0.0
H2994 H 0.44852 0.45929 0.0842 0.0
H2995 H 0.43612 0.48376 0.08595 0.0
H2996 H 0.46541 0.48615 0.09751 0.0
H2997 H 0.43117 0.45066 0.99008 0.0
H2998 H 0.44002 0.47592 0.97678 0.0
H2999 H 0.41626 0.47324 0.99356 0.0
C3000 C 0.38085 0.57128 0.75751 0.0
C3001 C 0.4027 0.57254 0.76904 0.0
C3002 C 0.37063 0.59025 0.75873 0.0
C3003 C 0.38259 0.61092 0.77172 0.0
C3004 C 0.40492 0.61241 0.78272 0.0
C3005 C 0.41464 0.59322 0.78131 0.0
C3006 C 0.34691 0.5881 0.74655 0.0
C3007 C 0.41837 0.63413 0.79663 0.0
C3008 C 0.36529 0.66728 0.76579 0.0
C3009 C 0.3556 0.67064 0.78677 0.0
C3010 C 0.37331 0.64741 0.75998 0.0
C3011 C 0.37137 0.63057 0.7755 0.0
C3012 C 0.36049 0.63354 0.7961 0.0
C3013 C 0.35289 0.65364 0.80157 0.0
C3014 C 0.38511 0.64509 0.73807 0.0
C3015 C 0.35791 0.61596 0.813 0.0
H3016 H 0.37163 0.5554 0.74778 0.0
H3017 H 0.43162 0.5944 0.79009 0.0
H3018 H 0.33561 0.59179 0.75991 0.0
H3019 H 0.34658 0.60065 0.73379 0.0
H3020 H 0.34004 0.571 0.73679 0.0
H3021 H 0.43624 0.63313 0.80197 0.0
H3022 H 0.41808 0.64834 0.78596 0.0
H3023 H 0.41062 0.63811 0.81296 0.0
H3024 H 0.3676 0.68066 0.75458 0.0
H3025 H 0.3455 0.65645 0.81789 0.0
H3026 H 0.37863 0.62831 0.72752 0.0
H3027 H 0.40343 0.64639 0.74351 0.0
H3028 H 0.38295 0.65835 0.72651 0.0
H3029 H 0.34963 0.59926 0.80314 0.0
H3030 H 0.34781 0.62019 0.8274 0.0
H3031 H 0.37481 0.61435 0.82129 0.0
C3032 C 0.19406 0.59167 0.56464 0.0
C3033 C 0.20458 0.61117 0.55633 0.0
C3034 C 0.17085 0.58404 0.55885 0.0
C3035 C 0.15867 0.59596 0.54385 0.0
C3036 C 0.16926 0.6158 0.53567 0.0
C3037 C 0.19222 0.62341 0.54236 0.0
C3038 C 0.15943 0.56318 0.56839 0.0
C3039 C 0.15649 0.62867 0.51951 0.0
C3040 C 0.10525 0.56109 0.51051 0.0
C3041 C 0.08976 0.56806 0.52445 0.0
C3042 C 0.12802 0.571 0.51602 0.0
C3043 C 0.13482 0.58737 0.53631 0.0
C3044 C 0.11896 0.59485 0.54997 0.0
C3045 C 0.09634 0.5852 0.54357 0.0
C3046 C 0.14482 0.56351 0.50074 0.0
C3047 C 0.1259 0.61195 0.57201 0.0
H3048 H 0.20392 0.58253 0.5756 0.0
H3049 H 0.20067 0.6385 0.53589 0.0
H3050 H 0.14486 0.56672 0.57734 0.0
H3051 H 0.15272 0.54954 0.55345 0.0
H3052 H 0.17112 0.55697 0.58127 0.0
H3053 H 0.16773 0.64322 0.51385 0.0
H3054 H 0.14774 0.61732 0.50337 0.0
H3055 H 0.14333 0.63506 0.52878 0.0
H3056 H 0.0996 0.54775 0.49573 0.0
H3057 H 0.08386 0.59024 0.55417 0.0
H3058 H 0.15612 0.55472 0.51121 0.0
H3059 H 0.15558 0.57837 0.49514 0.0
H3060 H 0.13641 0.55195 0.48457 0.0
H3061 H 0.13477 0.60436 0.58615 0.0
H3062 H 0.11116 0.61754 0.57899 0.0
H3063 H 0.13781 0.62697 0.56833 0.0
C3064 C 0.73423 0.99455 0.73403 0.0
C3065 C 0.71898 1.00088 0.74886 0.0
C3066 C 0.74144 0.97421 0.73573 0.0
C3067 C 0.73349 0.96076 0.75304 0.0
C3068 C 0.71738 0.96686 0.76738 0.0
C3069 C 0.71012 0.9868 0.76484 0.0
C3070 C 0.75788 0.96742 0.71962 0.0
C3071 C 0.70896 0.9533 0.78664 0.0
C3072 C 0.7354 0.90261 0.76472 0.0
C3073 C 0.751 0.90759 0.78529 0.0
C3074 C 0.73167 0.91974 0.75124 0.0
C3075 C 0.74379 0.94193 0.759 0.0
C3076 C 0.76143 0.94632 0.7782 0.0
C3077 C 0.76474 0.92892 0.79131 0.0
C3078 C 0.71296 0.91468 0.73063 0.0
C3079 C 0.77472 0.96986 0.78687 0.0
H3080 H 0.74059 1.00554 0.72141 0.0
H3081 H 0.69832 0.99193 0.77632 0.0
H3082 H 0.77329 0.96477 0.7303 0.0
H3083 H 0.7501 0.95116 0.70857 0.0
H3084 H 0.76288 0.98023 0.70762 0.0
H3085 H 0.69574 0.96017 0.79541 0.0
H3086 H 0.70182 0.93554 0.77912 0.0
H3087 H 0.7232 0.95329 0.80054 0.0
H3088 H 0.72556 0.88565 0.75981 0.0
H3089 H 0.77742 0.93213 0.80683 0.0
H3090 H 0.71734 0.92503 0.71623 0.0
H3091 H 0.69735 0.9189 0.73683 0.0
H3092 H 0.70927 0.89656 0.72325 0.0
H3093 H 0.77961 0.97892 0.77172 0.0
H3094 H 0.79023 0.96967 0.799 0.0
H3095 H 0.76405 0.97955 0.79674 0.0
C3096 C 0.74005 0.91797 0.56329 0.0
C3097 C 0.75801 0.92719 0.5514 0.0
C3098 C 0.72038 0.92701 0.56311 0.0
C3099 C 0.71835 0.94527 0.55009 0.0
C3100 C 0.73682 0.95517 0.53883 0.0
C3101 C 0.75653 0.94618 0.53989 0.0
C3102 C 0.70148 0.91633 0.57599 0.0
C3103 C 0.73534 0.97455 0.52457 0.0
C3104 C 0.66254 0.95076 0.51771 0.0
C3105 C 0.65964 0.97149 0.52892 0.0
C3106 C 0.68085 0.94122 0.52541 0.0
C3107 C 0.6962 0.95226 0.54544 0.0
C3108 C 0.69166 0.97162 0.5587 0.0
C3109 C 0.67347 0.98122 0.55011 0.0
C3110 C 0.68495 0.9206 0.51064 0.0
C3111 C 0.70683 0.9829 0.58104 0.0
H3112 H 0.74121 0.90341 0.57248 0.0
H3113 H 0.77039 0.95342 0.53076 0.0
H3114 H 0.6926 0.92912 0.58385 0.0
H3115 H 0.68896 0.90395 0.56322 0.0
H3116 H 0.70784 0.90722 0.59036 0.0
H3117 H 0.75113 0.98024 0.51679 0.0
H3118 H 0.72117 0.96945 0.50988 0.0
H3119 H 0.73182 0.98905 0.53605 0.0
H3120 H 0.65156 0.94302 0.50155 0.0
H3121 H 0.67113 0.99714 0.55895 0.0
H3122 H 0.68703 0.90724 0.52201 0.0
H3123 H 0.70082 0.92499 0.5026 0.0
H3124 H 0.67095 0.91362 0.49609 0.0
H3125 H 0.70894 0.9703 0.59342 0.0
H3126 H 0.70005 0.9967 0.59032 0.0
H3127 H 0.72384 0.99001 0.57662 0.0
C3128 C 0.37739 0.44304 0.75102 0.0
C3129 C 0.39807 0.4513 0.76539 0.0
C3130 C 0.36459 0.42155 0.75265 0.0
C3131 C 0.37223 0.40834 0.76969 0.0
C3132 C 0.39306 0.41673 0.78438 0.0
C3133 C 0.4059 0.4379 0.78175 0.0
C3134 C 0.3428 0.41303 0.73624 0.0
C3135 C 0.4017 0.40346 0.80307 0.0
C3136 C 0.32761 0.36374 0.78969 0.0
C3137 C 0.33077 0.34381 0.77688 0.0
C3138 C 0.34113 0.38474 0.78773 0.0
C3139 C 0.35818 0.38599 0.77243 0.0
C3140 C 0.36155 0.3659 0.75959 0.0
C3141 C 0.34788 0.3451 0.762 0.0
C3142 C 0.33733 0.40562 0.80224 0.0
C3143 C 0.3794 0.36637 0.74299 0.0
H3144 H 0.37131 0.4533 0.7383 0.0
H3145 H 0.42179 0.4443 0.79306 0.0
H3146 H 0.34287 0.39616 0.72672 0.0
H3147 H 0.32836 0.41106 0.74679 0.0
H3148 H 0.33998 0.42459 0.72286 0.0
H3149 H 0.41716 0.41316 0.81442 0.0
H3150 H 0.38853 0.39847 0.81468 0.0
H3151 H 0.40564 0.38773 0.79435 0.0
H3152 H 0.31478 0.36292 0.80161 0.0
H3153 H 0.35056 0.32981 0.75211 0.0
H3154 H 0.33251 0.41764 0.79023 0.0
H3155 H 0.35321 0.41423 0.81357 0.0
H3156 H 0.3239 0.40175 0.81386 0.0
H3157 H 0.37496 0.37547 0.72783 0.0
H3158 H 0.38116 0.34917 0.73583 0.0
H3159 H 0.39602 0.37564 0.75228 0.0
C3160 C 0.23673 0.63675 0.24868 0.0
C3161 C 0.21865 0.62578 0.25898 0.0
C3162 C 0.24399 0.66002 0.25408 0.0
C3163 C 0.2333 0.67182 0.27079 0.0
C3164 C 0.2148 0.66079 0.28091 0.0
C3165 C 0.20742 0.63777 0.27452 0.0
C3166 C 0.26326 0.67191 0.2424 0.0
C3167 C 0.20327 0.67315 0.29887 0.0
C3168 C 0.27086 0.72471 0.30208 0.0
C3169 C 0.26283 0.74043 0.28929 0.0
C3170 C 0.26039 0.70207 0.29706 0.0
C3171 C 0.24221 0.69561 0.27845 0.0
C3172 C 0.23359 0.71172 0.26611 0.0
C3173 C 0.24407 0.73418 0.27185 0.0
C3174 C 0.26928 0.68503 0.31091 0.0
C3175 C 0.21446 0.70523 0.24589 0.0
H3176 H 0.24502 0.62719 0.23641 0.0
H3177 H 0.19339 0.62897 0.28242 0.0
H3178 H 0.25851 0.68653 0.23447 0.0
H3179 H 0.27815 0.67855 0.25598 0.0
H3180 H 0.26826 0.66054 0.22822 0.0
H3181 H 0.18948 0.6617 0.30551 0.0
H3182 H 0.21575 0.68162 0.3143 0.0
H3183 H 0.19606 0.68647 0.29077 0.0
H3184 H 0.28546 0.73007 0.31554 0.0
H3185 H 0.23831 0.74675 0.2619 0.0
H3186 H 0.27723 0.67404 0.29903 0.0
H3187 H 0.25521 0.67403 0.31758 0.0
H3188 H 0.282 0.69319 0.32629 0.0
H3189 H 0.22067 0.69736 0.23006 0.0
H3190 H 0.20768 0.72008 0.24084 0.0
H3191 H 0.20044 0.69268 0.25059 0.0
C3192 C 0.50798 0.69348 0.46895 0.0
C3193 C 0.51687 0.71513 0.48149 0.0
C3194 C 0.51322 0.67342 0.4771 0.0
C3195 C 0.52805 0.6744 0.49848 0.0
C3196 C 0.53717 0.69623 0.51119 0.0
C3197 C 0.53149 0.71604 0.50272 0.0
C3198 C 0.50279 0.65099 0.46266 0.0
C3199 C 0.55338 0.69876 0.5337 0.0
C3200 C 0.52525 0.62018 0.53026 0.0
C3201 C 0.54316 0.61075 0.5226 0.0
C3202 C 0.52044 0.64072 0.52295 0.0
C3203 C 0.53378 0.6527 0.50743 0.0
C3204 C 0.55221 0.64337 0.50003 0.0
C3205 C 0.55649 0.62268 0.50745 0.0
C3206 C 0.50068 0.64944 0.53162 0.0
C3207 C 0.56725 0.65497 0.48371 0.0
H3208 H 0.49681 0.69215 0.45251 0.0
H3209 H 0.53887 0.73241 0.51265 0.0
H3210 H 0.51623 0.64207 0.45748 0.0
H3211 H 0.49239 0.64022 0.4736 0.0
H3212 H 0.49196 0.6528 0.44628 0.0
H3213 H 0.55819 0.7165 0.54235 0.0
H3214 H 0.54579 0.68805 0.54655 0.0
H3215 H 0.56893 0.69287 0.52954 0.0
H3216 H 0.51463 0.61122 0.54175 0.0
H3217 H 0.57028 0.61568 0.50116 0.0
H3218 H 0.48804 0.6499 0.51622 0.0
H3219 H 0.50638 0.66696 0.54066 0.0
H3220 H 0.49233 0.63884 0.54416 0.0
H3221 H 0.55775 0.65319 0.46565 0.0
H3222 H 0.58262 0.64772 0.48233 0.0
H3223 H 0.57248 0.67327 0.49006 0.0
C3224 C 0.63053 0.28999 0.67645 0.0
C3225 C 0.62992 0.30751 0.66231 0.0
C3226 C 0.64974 0.28956 0.69254 0.0
C3227 C 0.66868 0.30767 0.69567 0.0
C3228 C 0.66802 0.32563 0.68164 0.0
C3229 C 0.64893 0.32506 0.66477 0.0
C3230 C 0.64973 0.26953 0.70609 0.0
C3231 C 0.68741 0.34559 0.68454 0.0
C3232 C 0.70822 0.31356 0.75457 0.0
C3233 C 0.72677 0.30508 0.74732 0.0
C3234 C 0.6897 0.31523 0.73798 0.0
C3235 C 0.68912 0.30758 0.71341 0.0
C3236 C 0.70782 0.29907 0.70598 0.0
C3237 C 0.72646 0.29841 0.7228 0.0
C3238 C 0.67075 0.32535 0.74678 0.0
C3239 C 0.7078 0.28971 0.68034 0.0
H3240 H 0.61602 0.27624 0.67455 0.0
H3241 H 0.64862 0.3387 0.65402 0.0
H3242 H 0.66563 0.26319 0.70499 0.0
H3243 H 0.64876 0.27465 0.72516 0.0
H3244 H 0.63524 0.25549 0.69925 0.0
H3245 H 0.68297 0.35963 0.67523 0.0
H3246 H 0.69275 0.3519 0.70368 0.0
H3247 H 0.70211 0.3404 0.67714 0.0
H3248 H 0.70835 0.31936 0.77319 0.0
H3249 H 0.74062 0.292 0.71668 0.0
H3250 H 0.65501 0.31232 0.74435 0.0
H3251 H 0.66747 0.33899 0.73621 0.0
H3252 H 0.67455 0.33236 0.76592 0.0
H3253 H 0.6944 0.27429 0.67567 0.0
H3254 H 0.72424 0.28531 0.67699 0.0
H3255 H 0.70388 0.30198 0.66824 0.0
C3256 C 0.03233 0.36161 0.97721 0.0
C3257 C 0.01485 0.34463 0.98207 0.0
C3258 C 0.03376 0.38474 0.98548 0.0
C3259 C 0.01704 0.39163 0.99867 0.0
C3260 C 0.99927 0.37456 0.00352 0.0
C3261 C 0.99852 0.35146 0.99546 0.0
C3262 C 0.05327 0.40191 0.98004 0.0
C3263 C 0.98058 0.38078 0.01671 0.0
C3264 C 0.03121 0.4506 0.03634 0.0
C3265 C 0.02214 0.46429 0.02107 0.0
C3266 C 0.02937 0.4271 0.02955 0.0
C3267 C 0.01803 0.4166 0.00686 0.0
C3268 C 1.00835 0.43034 0.99166 0.0
C3269 C 0.01071 0.45381 0.99881 0.0
C3270 C 0.04012 0.41356 0.04652 0.0
C3271 C 0.99588 0.4204 0.96744 0.0
H3272 H 0.04507 0.35679 0.96688 0.0
H3273 H 0.98472 0.33874 0.99912 0.0
H3274 H 0.04688 0.41437 0.96965 0.0
H3275 H 0.06287 0.41136 0.99689 0.0
H3276 H 0.06502 0.39405 0.96981 0.0
H3277 H 0.96855 0.36571 0.0202 0.0
H3278 H 0.98772 0.39122 0.03393 0.0
H3279 H 0.9711 0.3911 0.00609 0.0
H3280 H 0.04023 0.45841 0.05351 0.0
H3281 H 1.0038 0.46393 0.98666 0.0
H3282 H 0.05351 0.40653 0.03831 0.0
H3283 H 0.02738 0.39911 0.05007 0.0
H3284 H 0.0477 0.42385 0.06374 0.0
H3285 H 1.0081 0.41594 0.95548 0.0
H3286 H 0.98661 0.43234 0.95918 0.0
H3287 H 0.98368 0.40468 0.96869 0.0
C3288 C 0.99483 0.77944 0.14552 0.0
C3289 C 0.01528 0.79396 0.15489 0.0
C3290 C 0.97691 0.77554 0.15923 0.0
C3291 C 0.97936 0.78669 0.18278 0.0
C3292 C 0.99965 0.80209 0.19199 0.0
C3293 C 0.01746 0.80538 0.17801 0.0
C3294 C 0.95555 0.759 0.14871 0.0
C3295 C 1.00284 0.81459 0.21684 0.0
C3296 C 0.92429 0.78392 0.20975 0.0
C3297 C 0.92377 0.76469 0.22141 0.0
C3298 C 0.94283 0.79207 0.19801 0.0
C3299 C 0.96127 0.7808 0.19816 0.0
C3300 C 0.96144 0.76237 0.21139 0.0
C3301 C 0.94263 0.75445 0.2227 0.0
C3302 C 0.9421 0.81193 0.18436 0.0
C3303 C 0.98088 0.75009 0.21242 0.0
H3304 H 0.99303 0.77064 0.12763 0.0
H3305 H 0.03317 0.8168 0.18528 0.0
H3306 H 0.95243 0.74503 0.15977 0.0
H3307 H 0.94089 0.76748 0.14872 0.0
H3308 H 0.95634 0.75168 0.13017 0.0
H3309 H 0.01826 0.82811 0.22015 0.0
H3310 H 0.988 0.82222 0.21995 0.0
H3311 H 1.00426 0.80259 0.23004 0.0
H3312 H 0.90971 0.79185 0.20875 0.0
H3313 H 0.94234 0.73975 0.23199 0.0
H3314 H 0.93898 0.80595 0.16498 0.0
H3315 H 0.95852 0.82404 0.18781 0.0
H3316 H 0.92852 0.82093 0.18901 0.0
H3317 H 0.98081 0.74041 0.19476 0.0
H3318 H 0.97983 0.73818 0.22596 0.0
H3319 H 0.99725 0.76222 0.21658 0.0
C3320 C 0.54747 0.33403 0.16785 0.0
C3321 C 0.53221 0.31394 0.15883 0.0
C3322 C 0.552 0.35162 0.15383 0.0
C3323 C 0.5405 0.34936 0.13044 0.0
C3324 C 0.52431 0.32949 0.12165 0.0
C3325 C 0.52064 0.31186 0.13581 0.0
C3326 C 0.56964 0.37235 0.16381 0.0
C3327 C 0.51131 0.32659 0.09707 0.0
C3328 C 0.54502 0.4046 0.10355 0.0
C3329 C 0.56362 0.4041 0.09105 0.0
C3330 C 0.53645 0.38636 0.11552 0.0
C3331 C 0.54669 0.3672 0.1148 0.0
C3332 C 0.56443 0.36605 0.10073 0.0
C3333 C 0.57275 0.38455 0.08915 0.0
C3334 C 0.51732 0.38817 0.13003 0.0
C3335 C 0.57577 0.34596 0.09921 0.0
H3336 H 0.55655 0.33565 0.18559 0.0
H3337 H 0.50875 0.29638 0.12882 0.0
H3338 H 0.58302 0.37497 0.15196 0.0
H3339 H 0.56183 0.38746 0.16461 0.0
H3340 H 0.57766 0.37113 0.18196 0.0
H3341 H 0.49732 0.31158 0.09411 0.0
H3342 H 0.50419 0.34176 0.09421 0.0
H3343 H 0.52287 0.32464 0.08349 0.0
H3344 H 0.53801 0.41974 0.10511 0.0
H3345 H 0.58706 0.38411 0.07933 0.0
H3346 H 0.524 0.39133 0.14923 0.0
H3347 H 0.50461 0.37216 0.12712 0.0
H3348 H 0.50881 0.40214 0.12563 0.0
H3349 H 0.58627 0.34606 0.11641 0.0
H3350 H 0.58682 0.34616 0.08484 0.0
H3351 H 0.56307 0.32996 0.09598 0.0
C3352 C 0.9672 0.30405 0.34225 0.0
C3353 C 0.98476 0.3179 0.33318 0.0
C3354 C 0.94406 0.30285 0.33393 0.0
C3355 C 0.93774 0.31587 0.31596 0.0
C3356 C 0.9554 0.32989 0.3067 0.0
C3357 C 0.97847 0.3307 0.31529 0.0
C3358 C 0.92629 0.28751 0.34449 0.0
C3359 C 0.9499 0.34422 0.28769 0.0
C3360 C 0.87798 0.29504 0.28074 0.0
C3361 C 0.86511 0.30959 0.29096 0.0
C3362 C 0.9015 0.29748 0.28793 0.0
C3363 C 0.91279 0.3144 0.30669 0.0
C3364 C 0.89985 0.32925 0.31705 0.0
C3365 C 0.87644 0.32693 0.30885 0.0
C3366 C 0.91423 0.28163 0.27555 0.0
C3367 C 0.91051 0.3471 0.33754 0.0
H3368 H 0.97154 0.29404 0.35604 0.0
H3369 H 0.99162 0.34163 0.30815 0.0
H3370 H 0.91407 0.29719 0.35147 0.0
H3371 H 0.91667 0.27412 0.33047 0.0
H3372 H 0.93368 0.27936 0.35914 0.0
H3373 H 0.96531 0.35341 0.28142 0.0
H3374 H 0.93901 0.33355 0.27224 0.0
H3375 H 0.94028 0.35671 0.29474 0.0
H3376 H 0.86954 0.28157 0.26693 0.0
H3377 H 0.86686 0.33819 0.31714 0.0
H3378 H 0.92023 0.27075 0.28825 0.0
H3379 H 0.92934 0.29136 0.26928 0.0
H3380 H 0.90364 0.27067 0.26006 0.0
H3381 H 0.91513 0.33886 0.35333 0.0
H3382 H 0.89898 0.35855 0.3424 0.0
H3383 H 0.92629 0.35729 0.33313 0.0
C3384 C 1.00802 0.69649 0.6283 0.0
C3385 C 0.02324 0.70108 0.64938 0.0
C3386 C 1.00757 0.67768 0.61131 0.0
C3387 C 0.02323 0.66334 0.61492 0.0
C3388 C 0.03879 0.66803 0.63612 0.0
C3389 C 0.03838 0.68657 0.65318 0.0
C3390 C 0.99015 0.67302 0.58953 0.0
C3391 C 0.0563 0.6538 0.64052 0.0
C3392 C 0.01056 0.60323 0.58163 0.0
C3393 C 0.02281 0.60555 0.56212 0.0
C3394 C 0.01045 0.62178 0.59871 0.0
C3395 C 0.02316 0.64339 0.59664 0.0
C3396 C 0.0356 0.64587 0.57698 0.0
C3397 C 0.03512 0.62705 0.55991 0.0
C3398 C 0.99668 0.61818 0.61906 0.0
C3399 C 0.04968 0.66839 0.5741 0.0
H3400 H 0.99621 0.70753 0.62521 0.0
H3401 H 0.05041 0.69012 0.66923 0.0
H3402 H 0.99858 0.6731 0.57317 0.0
H3403 H 0.97948 0.65599 0.58885 0.0
H3404 H 0.97904 0.6856 0.58933 0.0
H3405 H 0.06653 0.65895 0.65826 0.0
H3406 H 0.04812 0.63576 0.63923 0.0
H3407 H 0.06782 0.65528 0.62662 0.0
H3408 H 1.00101 0.58676 0.58362 0.0
H3409 H 0.04494 0.62909 0.54517 0.0
H3410 H 0.98436 0.62954 0.6192 0.0
H3411 H 1.00787 0.62248 0.63626 0.0
H3412 H 0.98734 0.60049 0.61792 0.0
H3413 H 0.03857 0.68066 0.5712 0.0
H3414 H 0.05964 0.66729 0.55888 0.0
H3415 H 0.06146 0.67517 0.5906 0.0
C3416 C 0.62634 0.79727 0.84147 0.0
C3417 C 0.61552 0.81417 0.83329 0.0
C3418 C 0.64563 0.79152 0.83198 0.0
C3419 C 0.65549 0.80334 0.81415 0.0
C3420 C 0.64458 0.82038 0.80569 0.0
C3421 C 0.62475 0.82526 0.81494 0.0
C3422 C 0.65559 0.77271 0.84127 0.0
C3423 C 0.65405 0.83371 0.7869 0.0
C3424 C 0.71967 0.80592 0.81094 0.0
C3425 C 0.72043 0.79041 0.7909 0.0
C3426 C 0.69903 0.81022 0.81833 0.0
C3427 C 0.67783 0.79887 0.80567 0.0
C3428 C 0.67837 0.78307 0.78542 0.0
C3429 C 0.69938 0.7791 0.77836 0.0
C3430 C 0.69999 0.82721 0.83989 0.0
C3431 C 0.65669 0.76987 0.77135 0.0
H3432 H 0.61947 0.78817 0.85529 0.0
H3433 H 0.61678 0.83823 0.80815 0.0
H3434 H 0.65755 0.76036 0.82622 0.0
H3435 H 0.67266 0.77963 0.85106 0.0
H3436 H 0.645 0.76369 0.85341 0.0
H3437 H 0.64478 0.84732 0.78314 0.0
H3438 H 0.67213 0.84135 0.7926 0.0
H3439 H 0.65312 0.82228 0.77014 0.0
H3440 H 0.73542 0.81487 0.82112 0.0
H3441 H 0.69923 0.76702 0.76293 0.0
H3442 H 0.6899 0.81947 0.85313 0.0
H3443 H 0.69251 0.84153 0.83455 0.0
H3444 H 0.71751 0.83381 0.84865 0.0
H3445 H 0.6483 0.7575 0.78222 0.0
H3446 H 0.65962 0.76057 0.75447 0.0
H3447 H 0.64489 0.78121 0.76714 0.0
C3448 C 0.46384 0.51293 0.68511 0.0
C3449 C 0.46827 0.5285 0.70586 0.0
C3450 C 0.47428 0.51764 0.66473 0.0
C3451 C 0.48933 0.53851 0.66495 0.0
C3452 C 0.4933 0.55455 0.68562 0.0
C3453 C 0.48287 0.5493 0.70584 0.0
C3454 C 0.46953 0.50008 0.64307 0.0
C3455 C 0.50865 0.57726 0.68643 0.0
C3456 C 0.53384 0.5385 0.6225 0.0
C3457 C 0.52461 0.54793 0.60321 0.0
C3458 C 0.5229 0.53613 0.64293 0.0
C3459 C 0.50193 0.54291 0.6441 0.0
C3460 C 0.49277 0.55299 0.62497 0.0
C3461 C 0.50426 0.55549 0.60486 0.0
C3462 C 0.53356 0.52578 0.66309 0.0
C3463 C 0.47039 0.56034 0.62522 0.0
H3464 H 0.45244 0.49691 0.68489 0.0
H3465 H 0.48608 0.5616 0.72164 0.0
H3466 H 0.46371 0.50748 0.62712 0.0
H3467 H 0.48531 0.49427 0.63964 0.0
H3468 H 0.45655 0.48521 0.64521 0.0
H3469 H 0.50975 0.588 0.70371 0.0
H3470 H 0.52588 0.57501 0.6834 0.0
H3471 H 0.5024 0.58627 0.67195 0.0
H3472 H 0.54949 0.53255 0.62148 0.0
H3473 H 0.49693 0.56278 0.5901 0.0
H3474 H 0.52249 0.50961 0.66524 0.0
H3475 H 0.53531 0.5371 0.68007 0.0
H3476 H 0.55048 0.5225 0.66005 0.0
H3477 H 0.45654 0.54523 0.62158 0.0
H3478 H 0.46772 0.5716 0.61148 0.0
H3479 H 0.46909 0.5692 0.64292 0.0
C3480 C 0.79607 0.17522 0.99165 0.0
C3481 C 0.77866 0.15836 0.99629 0.0
C3482 C 0.79202 0.18952 0.97466 0.0
C3483 C 0.76983 0.18733 0.96304 0.0
C3484 C 0.75229 0.16996 0.96737 0.0
C3485 C 0.75706 0.15538 0.9837 0.0
C3486 C 0.81116 0.20762 0.97019 0.0
C3487 C 0.72824 0.1676 0.95583 0.0
C3488 C 0.74529 0.23458 0.94049 0.0
C3489 C 0.74338 0.22828 0.91592 0.0
C3490 C 0.75597 0.22256 0.95629 0.0
C3491 C 0.76427 0.20361 0.94707 0.0
C3492 C 0.7637 0.19821 0.92223 0.0
C3493 C 0.75332 0.21076 0.90687 0.0
C3494 C 0.7569 0.22916 0.98275 0.0
C3495 C 0.77252 0.17818 0.91185 0.0
H3496 H 0.81264 0.17764 0.00185 0.0
H3497 H 0.74346 0.14273 0.98793 0.0
H3498 H 0.81048 0.20946 0.95096 0.0
H3499 H 0.80971 0.22401 0.9798 0.0
H3500 H 0.82787 0.20397 0.97655 0.0
H3501 H 0.7167 0.15291 0.96084 0.0
H3502 H 0.72183 0.18307 0.96123 0.0
H3503 H 0.72758 0.16572 0.93616 0.0
H3504 H 0.738 0.24856 0.94729 0.0
H3505 H 0.75197 0.2062 0.88776 0.0
H3506 H 0.77363 0.2285 0.9922 0.0
H3507 H 0.74402 0.21706 0.98984 0.0
H3508 H 0.75352 0.24639 0.98692 0.0
H3509 H 0.78927 0.17773 0.92143 0.0
H3510 H 0.77402 0.17839 0.89259 0.0
H3511 H 0.76079 0.16242 0.91402 0.0
C3512 C 0.1559 0.53982 0.17145 0.0
C3513 C 0.15087 0.54724 0.19397 0.0
C3514 C 0.13907 0.53535 0.15201 0.0
C3515 C 0.11721 0.53856 0.15571 0.0
C3516 C 0.11184 0.54489 0.1786 0.0
C3517 C 0.12889 0.54929 0.19754 0.0
C3518 C 0.14483 0.52837 0.12751 0.0
C3519 C 0.08844 0.54818 0.1829 0.0
C3520 C 0.0804 0.5593 0.11032 0.0
C3521 C 0.06659 0.53911 0.09993 0.0
C3522 C 0.09841 0.55899 0.1273 0.0
C3523 C 0.10055 0.53826 0.13553 0.0
C3524 C 0.08533 0.518 0.12627 0.0
C3525 C 0.06879 0.51857 0.10773 0.0
C3526 C 0.11509 0.58069 0.13634 0.0
C3527 C 0.08623 0.49604 0.13613 0.0
H3528 H 0.17292 0.53786 0.16899 0.0
H3529 H 0.12501 0.55479 0.21511 0.0
H3530 H 0.13237 0.51339 0.11853 0.0
H3531 H 0.14401 0.54221 0.11642 0.0
H3532 H 0.16199 0.52438 0.12815 0.0
H3533 H 0.08664 0.55065 0.20217 0.0
H3534 H 0.08477 0.56323 0.17502 0.0
H3535 H 0.07551 0.53344 0.17416 0.0
H3536 H 0.07789 0.57504 0.10414 0.0
H3537 H 0.0572 0.50317 0.09975 0.0
H3538 H 0.13246 0.57841 0.13396 0.0
H3539 H 0.11471 0.58523 0.15566 0.0
H3540 H 0.11151 0.59498 0.12693 0.0
H3541 H 0.10134 0.48979 0.1312 0.0
H3542 H 0.07102 0.48284 0.12922 0.0
H3543 H 0.08765 0.49853 0.15587 0.0
C3544 C 0.78812 0.85927 0.45972 0.0
C3545 C 0.80728 0.86133 0.47644 0.0
C3546 C 0.78766 0.84949 0.43609 0.0
C3547 C 0.80707 0.84226 0.42887 0.0
C3548 C 0.8266 0.84474 0.44562 0.0
C3549 C 0.82634 0.85389 0.46928 0.0
C3550 C 0.76628 0.84657 0.41896 0.0
C3551 C 0.84796 0.83817 0.43842 0.0
C3552 C 0.80095 0.79883 0.37406 0.0
C3553 C 0.80506 0.81263 0.35619 0.0
C3554 C 0.80133 0.80826 0.39776 0.0
C3555 C 0.80694 0.83201 0.40383 0.0
C3556 C 0.81215 0.84592 0.38588 0.0
C3557 C 0.81063 0.83607 0.36216 0.0
C3558 C 0.79501 0.79286 0.41615 0.0
C3559 C 0.81901 0.87123 0.39162 0.0
H3560 H 0.77337 0.86501 0.46522 0.0
H3561 H 0.84132 0.85581 0.48207 0.0
H3562 H 0.76978 0.8551 0.40308 0.0
H3563 H 0.7599 0.82839 0.41262 0.0
H3564 H 0.7528 0.85345 0.42721 0.0
H3565 H 0.86178 0.84139 0.45352 0.0
H3566 H 0.84464 0.82003 0.43129 0.0
H3567 H 0.85379 0.84783 0.42398 0.0
H3568 H 0.7965 0.78068 0.36931 0.0
H3569 H 0.81394 0.84668 0.34826 0.0
H3570 H 0.7802 0.79721 0.42407 0.0
H3571 H 0.80909 0.79522 0.43083 0.0
H3572 H 0.79083 0.7748 0.4085 0.0
H3573 H 0.80414 0.87835 0.39579 0.0
H3574 H 0.82588 0.8792 0.37653 0.0
H3575 H 0.83195 0.87587 0.40753 0.0
C3576 C 0.45769 0.50996 0.85247 0.0
C3577 C 0.46918 0.51991 0.83494 0.0
C3578 C 0.46859 0.51053 0.87564 0.0
C3579 C 0.49132 0.52208 0.88175 0.0
C3580 C 0.50294 0.53235 0.86413 0.0
C3581 C 0.49186 0.53078 0.84083 0.0
C3582 C 0.45577 0.49871 0.89358 0.0
C3583 C 0.52701 0.54521 0.86997 0.0
C3584 C 0.50891 0.54117 0.94811 0.0
C3585 C 0.52194 0.52548 0.95468 0.0
C3586 C 0.49973 0.54085 0.92432 0.0
C3587 C 0.50269 0.52377 0.9067 0.0
C3588 C 0.51601 0.50803 0.91315 0.0
C3589 C 0.52599 0.50954 0.93687 0.0
C3590 C 0.48674 0.55876 0.9181 0.0
C3591 C 0.51891 0.48893 0.89531 0.0
H3592 H 0.4402 0.50137 0.84794 0.0
H3593 H 0.50078 0.53857 0.82735 0.0
H3594 H 0.46558 0.48713 0.90169 0.0
H3595 H 0.45336 0.51127 0.90817 0.0
H3596 H 0.43891 0.48886 0.88549 0.0
H3597 H 0.53301 0.55383 0.85489 0.0
H3598 H 0.52853 0.55802 0.88575 0.0
H3599 H 0.53831 0.53351 0.87453 0.0
H3600 H 0.50599 0.55389 0.96157 0.0
H3601 H 0.5365 0.49784 0.94146 0.0
H3602 H 0.46868 0.55099 0.91254 0.0
H3603 H 0.49323 0.56674 0.90287 0.0
H3604 H 0.48789 0.57212 0.93332 0.0
H3605 H 0.50266 0.4766 0.89101 0.0
H3606 H 0.53209 0.47999 0.90223 0.0
H3607 H 0.52338 0.4951 0.87846 0.0
C3608 C 0.7678 0.19695 0.11408 0.0
C3609 C 0.77054 0.17516 0.11744 0.0
C3610 C 0.77115 0.21368 0.13331 0.0
C3611 C 0.7769 0.20811 0.15627 0.0
C3612 C 0.77881 0.18593 0.16001 0.0
C3613 C 0.77559 0.1695 0.1403 0.0
C3614 C 0.76957 0.23747 0.12891 0.0
C3615 C 0.78459 0.1798 0.18465 0.0
C3616 C 0.80724 0.25522 0.20234 0.0
C3617 C 0.78891 0.2617 0.21188 0.0
C3618 C 0.80357 0.23778 0.18371 0.0
C3619 C 0.78123 0.22584 0.17625 0.0
C3620 C 0.76275 0.23215 0.18639 0.0
C3621 C 0.76681 0.25107 0.20329 0.0
C3622 C 0.82337 0.23259 0.17169 0.0
C3623 C 0.7389 0.21887 0.17956 0.0
H3624 H 0.76376 0.20113 0.09629 0.0
H3625 H 0.77778 0.15255 0.14267 0.0
H3626 H 0.75705 0.24368 0.13933 0.0
H3627 H 0.78614 0.24892 0.13488 0.0
H3628 H 0.76463 0.2387 0.10981 0.0
H3629 H 0.78566 0.16174 0.18435 0.0
H3630 H 0.80099 0.19024 0.19318 0.0
H3631 H 0.77162 0.18342 0.19604 0.0
H3632 H 0.82427 0.26428 0.20894 0.0
H3633 H 0.75292 0.25668 0.21087 0.0
H3634 H 0.82008 0.23335 0.15227 0.0
H3635 H 0.82566 0.21526 0.17401 0.0
H3636 H 0.83937 0.24458 0.1789 0.0
H3637 H 0.73286 0.22046 0.16088 0.0
H3638 H 0.72699 0.22469 0.1912 0.0
H3639 H 0.73848 0.2007 0.1807 0.0
C3640 C 0.15185 0.53672 0.31625 0.0
C3641 C 0.17142 0.553 0.31606 0.0
C3642 C 0.13704 0.53962 0.33289 0.0
C3643 C 0.14212 0.55928 0.34957 0.0
C3644 C 0.16294 0.57469 0.35087 0.0
C3645 C 0.17751 0.5713 0.33401 0.0
C3646 C 0.11506 0.52279 0.33098 0.0
C3647 C 0.16883 0.59581 0.36866 0.0
C3648 C 0.09801 0.58999 0.3696 0.0
C3649 C 0.099 0.58637 0.39348 0.0
C3650 C 0.11067 0.5796 0.35438 0.0
C3651 C 0.12474 0.56557 0.36354 0.0
C3652 C 0.12443 0.56043 0.38711 0.0
C3653 C 0.11162 0.57107 0.40196 0.0
C3654 C 0.11009 0.58486 0.32901 0.0
C3655 C 0.13873 0.54489 0.39701 0.0
H3656 H 0.1473 0.52249 0.30229 0.0
H3657 H 0.19258 0.58394 0.33364 0.0
H3658 H 0.10983 0.52039 0.34878 0.0
H3659 H 0.10159 0.52912 0.32063 0.0
H3660 H 0.1163 0.50617 0.32164 0.0
H3661 H 0.18631 0.6052 0.3684 0.0
H3662 H 0.15695 0.60713 0.36459 0.0
H3663 H 0.16704 0.59151 0.38691 0.0
H3664 H 0.0878 0.60142 0.36302 0.0
H3665 H 0.11231 0.56822 0.42048 0.0
H3666 H 0.10814 0.5692 0.31646 0.0
H3667 H 0.1263 0.59591 0.32688 0.0
H3668 H 0.0961 0.59356 0.32393 0.0
H3669 H 0.13734 0.5295 0.38418 0.0
H3670 H 0.1338 0.53978 0.4142 0.0
H3671 H 0.15673 0.55357 0.39995 0.0
C3672 C 0.78289 0.84586 0.60536 0.0
C3673 C 0.8039 0.86013 0.60538 0.0
C3674 C 0.7775 0.83536 0.62547 0.0
C3675 C 0.79372 0.83876 0.64596 0.0
C3676 C 0.81507 0.85297 0.64596 0.0
C3677 C 0.81978 0.86375 0.62581 0.0
C3678 C 0.75438 0.8208 0.62484 0.0
C3679 C 0.83309 0.85649 0.66715 0.0
C3680 C 0.7765 0.82695 0.70681 0.0
C3681 C 0.78236 0.80592 0.70884 0.0
C3682 C 0.77962 0.83762 0.68627 0.0
C3683 C 0.78869 0.827 0.66719 0.0
C3684 C 0.79391 0.80545 0.66882 0.0
C3685 C 0.79087 0.7953 0.68961 0.0
C3686 C 0.77377 0.86057 0.68525 0.0
C3687 C 0.80327 0.79331 0.64881 0.0
H3688 H 0.77041 0.84327 0.58973 0.0
H3689 H 0.83604 0.87473 0.62588 0.0
H3690 H 0.75591 0.80358 0.62855 0.0
H3691 H 0.74548 0.82791 0.63897 0.0
H3692 H 0.74383 0.81952 0.6074 0.0
H3693 H 0.84855 0.86856 0.66468 0.0
H3694 H 0.82654 0.86287 0.68346 0.0
H3695 H 0.83777 0.84014 0.67017 0.0
H3696 H 0.76999 0.83534 0.72153 0.0
H3697 H 0.7957 0.77917 0.69097 0.0
H3698 H 0.762 0.86038 0.66893 0.0
H3699 H 0.78928 0.87319 0.68431 0.0
H3700 H 0.7659 0.8661 0.70101 0.0
H3701 H 0.79147 0.79107 0.6321 0.0
H3702 H 0.80613 0.77647 0.65267 0.0
H3703 H 0.81952 0.80357 0.64558 0.0
C3704 C 0.7474 0.4639 0.52729 0.0
C3705 C 0.75142 0.46353 0.50365 0.0
C3706 C 0.7338 0.47767 0.53641 0.0
C3707 C 0.72345 0.49067 0.52106 0.0
C3708 C 0.72749 0.49035 0.49701 0.0
C3709 C 0.74208 0.47696 0.4886 0.0
C3710 C 0.73043 0.47809 0.56242 0.0
C3711 C 0.71649 0.50402 0.48037 0.0
C3712 C 0.67266 0.49973 0.54812 0.0
C3713 C 0.68177 0.51967 0.56318 0.0
C3714 C 0.68534 0.49125 0.53165 0.0
C3715 C 0.70741 0.50324 0.5305 0.0
C3716 C 0.71572 0.52456 0.54406 0.0
C3717 C 0.70272 0.53252 0.56057 0.0
C3718 C 0.67615 0.46835 0.51749 0.0
C3719 C 0.73916 0.53778 0.54303 0.0
H3720 H 0.75551 0.45385 0.53887 0.0
H3721 H 0.74597 0.47675 0.47043 0.0
H3722 H 0.7349 0.49564 0.57155 0.0
H3723 H 0.71244 0.47147 0.56402 0.0
H3724 H 0.74086 0.46781 0.57198 0.0
H3725 H 0.71987 0.50021 0.46173 0.0
H3726 H 0.69795 0.50071 0.48077 0.0
H3727 H 0.72294 0.52225 0.48632 0.0
H3728 H 0.656 0.4904 0.54991 0.0
H3729 H 0.7091 0.54843 0.57183 0.0
H3730 H 0.684 0.45552 0.52585 0.0
H3731 H 0.68038 0.46809 0.49899 0.0
H3732 H 0.65754 0.46339 0.51696 0.0
H3733 H 0.75148 0.53147 0.55506 0.0
H3734 H 0.74049 0.55602 0.54894 0.0
H3735 H 0.744 0.53572 0.5248 0.0
C3736 C 0.21204 0.12315 0.52324 0.0
C3737 C 0.21187 0.14264 0.51215 0.0
C3738 C 0.19193 0.10803 0.52466 0.0
C3739 C 0.17114 0.11225 0.51437 0.0
C3740 C 0.17087 0.1317 0.50273 0.0
C3741 C 0.19128 0.14679 0.50193 0.0
C3742 C 0.19281 0.08798 0.53801 0.0
C3743 C 0.149 0.13703 0.49198 0.0
C3744 C 0.11966 0.06447 0.50134 0.0
C3745 C 0.10971 0.06691 0.52226 0.0
C3746 C 0.14008 0.0787 0.49882 0.0
C3747 C 0.14972 0.09677 0.51693 0.0
C3748 C 0.1394 0.09934 0.53801 0.0
C3749 C 0.12003 0.08375 0.54075 0.0
C3750 C 0.15128 0.07442 0.47681 0.0
C3751 C 0.1478 0.11902 0.55733 0.0
H3752 H 0.22788 0.12005 0.53152 0.0
H3753 H 0.19112 0.1619 0.49342 0.0
H3754 H 0.18428 0.08989 0.55421 0.0
H3755 H 0.18362 0.07225 0.52682 0.0
H3756 H 0.2104 0.08617 0.54355 0.0
H3757 H 0.15183 0.15149 0.48152 0.0
H3758 H 0.13874 0.12218 0.48021 0.0
H3759 H 0.13896 0.14117 0.50644 0.0
H3760 H 0.11145 0.05149 0.48696 0.0
H3761 H 0.11246 0.08526 0.55708 0.0
H3762 H 0.16903 0.07294 0.48197 0.0
H3763 H 0.15172 0.08884 0.46635 0.0
H3764 H 0.1424 0.05877 0.46522 0.0
H3765 H 0.14506 0.11389 0.57513 0.0
H3766 H 0.13787 0.13227 0.55427 0.0
H3767 H 0.1659 0.12659 0.55767 0.0
C3768 C 0.19946 0.00961 0.79986 0.0
C3769 C 0.17577 1.00456 0.79614 0.0
C3770 C 0.21199 0.99287 0.79514 0.0
C3771 C 0.20048 0.97069 0.78622 0.0
C3772 C 0.17659 0.96518 0.78407 0.0
C3773 C 0.16449 0.98221 0.78918 0.0
C3774 C 0.23745 0.9993 0.79815 0.0
C3775 C 0.16377 0.9416 0.77482 0.0
C3776 C 0.22574 0.93653 0.7408 0.0
C3777 C 0.23179 0.91972 0.7537 0.0
C3778 C 0.21615 0.95361 0.75146 0.0
C3779 C 0.21297 0.95416 0.77578 0.0
C3780 C 0.22036 0.9381 0.78934 0.0
C3781 C 0.22961 0.92095 0.77808 0.0
C3782 C 0.20853 0.97049 0.7364 0.0
C3783 C 0.21797 0.93872 0.81551 0.0
H3784 H 0.20827 0.02685 0.80557 0.0
H3785 H 0.14619 0.97823 0.78652 0.0
H3786 H 0.24514 0.9862 0.80611 0.0
H3787 H 0.24328 1.00071 0.78044 0.0
H3788 H 0.24377 0.01573 0.80951 0.0
H3789 H 0.14531 0.93983 0.77537 0.0
H3790 H 0.16668 0.93719 0.75613 0.0
H3791 H 0.17 0.92923 0.78545 0.0
H3792 H 0.22806 0.93607 0.72215 0.0
H3793 H 0.23434 0.90804 0.78818 0.0
H3794 H 0.21669 0.98789 0.74439 0.0
H3795 H 0.19 0.96913 0.7358 0.0
H3796 H 0.21257 0.96789 0.71785 0.0
H3797 H 0.22719 0.95516 0.82525 0.0
H3798 H 0.2246 0.925 0.82352 0.0
H3799 H 0.19995 0.93722 0.8182 0.0
C3800 C 0.37302 0.9816 0.02934 0.0
C3801 C 0.36624 0.96201 0.0131 0.0
C3802 C 0.39523 0.99356 0.03182 0.0
C3803 C 0.41019 0.98609 0.01687 0.0
C3804 C 0.40353 0.96596 1.0009 0.0
C3805 C 0.38157 0.95386 0.99955 0.0
C3806 C 0.40253 0.0144 0.04986 0.0
C3807 C 0.41923 0.95774 0.98458 0.0
C3808 C 0.45396 0.03112 0.99964 0.0
C3809 C 0.47371 0.02575 0.01037 0.0
C3810 C 0.43303 0.01805 0.00144 0.0
C3811 C 0.432 1.00048 0.01591 0.0
C3812 C 0.45188 0.99537 0.02725 0.0
C3813 C 0.4726 0.00745 0.02309 0.0
C3814 C 0.41231 0.02225 0.98682 0.0
C3815 C 0.45151 0.97737 0.04369 0.0
H3816 H 0.36099 0.98754 0.03996 0.0
H3817 H 0.37608 0.93861 0.98702 0.0
H3818 H 0.41912 0.01424 0.06002 0.0
H3819 H 0.40463 0.02967 0.0406 0.0
H3820 H 0.39003 0.01581 0.06256 0.0
H3821 H 0.41081 0.94239 0.97228 0.0
H3822 H 0.42573 0.97114 0.97382 0.0
H3823 H 0.43399 0.95378 0.99528 0.0
H3824 H 0.4549 0.04492 0.98894 0.0
H3825 H 0.48783 1.00203 0.02872 0.0
H3826 H 0.40019 0.02714 0.99863 0.0
H3827 H 0.40367 1.00654 0.97523 0.0
H3828 H 0.41649 0.03574 0.97534 0.0
H3829 H 0.45064 0.98515 0.06201 0.0
H3830 H 0.4671 0.97028 0.04404 0.0
H3831 H 0.43672 0.96332 0.03885 0.0
C3832 C 0.87876 0.60317 0.81189 0.0
C3833 C 0.86768 0.58207 0.81644 0.0
C3834 C 0.86687 0.6168 0.79958 0.0
C3835 C 0.84358 0.60892 0.79205 0.0
C3836 C 0.83197 0.5886 0.79858 0.0
C3837 C 0.84419 0.57553 0.81123 0.0
C3838 C 0.87941 0.63888 0.79345 0.0
C3839 C 0.80711 0.57964 0.79036 0.0
C3840 C 0.80534 0.64642 0.77174 0.0
C3841 C 0.80467 0.64246 0.74688 0.0
C3842 C 0.81911 0.63659 0.78672 0.0
C3843 C 0.83131 0.62138 0.77651 0.0
C3844 C 0.83038 0.61673 0.7515 0.0
C3845 C 0.8173 0.62773 0.73689 0.0
C3846 C 0.82025 0.64211 0.81341 0.0
C3847 C 0.84299 0.60004 0.74024 0.0
H3848 H 0.89694 0.60821 0.81624 0.0
H3849 H 0.83565 0.55921 0.81495 0.0
H3850 H 0.87735 0.63906 0.77388 0.0
H3851 H 0.8722 0.65296 0.80141 0.0
H3852 H 0.89775 0.64204 0.79997 0.0
H3853 H 0.80053 0.56401 0.79798 0.0
H3854 H 0.79708 0.59246 0.79537 0.0
H3855 H 0.80436 0.57587 0.77065 0.0
H3856 H 0.79509 0.65727 0.77961 0.0
H3857 H 0.81707 0.62491 0.71774 0.0
H3858 H 0.8381 0.64678 0.82175 0.0
H3859 H 0.81222 0.62705 0.82107 0.0
H3860 H 0.81162 0.65616 0.81838 0.0
H3861 H 0.86143 0.606 0.74539 0.0
H3862 H 0.83946 0.59755 0.72049 0.0
H3863 H 0.83826 0.58347 0.7468 0.0
C3864 C 0.82297 0.63316 0.00946 0.0
C3865 C 0.82531 0.65489 0.02164 0.0
C3866 C 0.84013 0.62079 0.01271 0.0
C3867 C 0.85978 0.63031 0.02878 0.0
C3868 C 0.86278 0.65276 0.03996 0.0
C3869 C 0.84551 0.66481 0.03617 0.0
C3870 C 0.83657 0.59709 1.00007 0.0
C3871 C 0.88362 0.66357 0.05711 0.0
C3872 C 0.88858 0.59491 0.06761 0.0
C3873 C 0.90901 0.59563 0.05819 0.0
C3874 C 0.87175 0.60492 0.05713 0.0
C3875 C 0.8756 0.61602 0.03686 0.0
C3876 C 0.89565 0.61551 0.02636 0.0
C3877 C 0.91216 0.60512 0.03713 0.0
C3878 C 0.85047 0.60487 0.06869 0.0
C3879 C 0.90011 0.62688 0.00454 0.0
H3880 H 0.8075 0.62557 0.9979 0.0
H3881 H 0.84749 0.68173 0.04538 0.0
H3882 H 0.85241 0.59354 0.99388 0.0
H3883 H 0.83136 0.58491 0.01262 0.0
H3884 H 0.82321 0.59409 0.98453 0.0
H3885 H 0.88407 0.68167 0.06293 0.0
H3886 H 0.88411 0.65463 0.07312 0.0
H3887 H 0.89907 0.66212 0.04877 0.0
H3888 H 0.88612 0.58718 0.0837 0.0
H3889 H 0.928 0.6055 0.02987 0.0
H3890 H 0.83535 0.59879 0.05529 0.0
H3891 H 0.84993 0.62233 0.07619 0.0
H3892 H 0.8494 0.59408 0.08327 0.0
H3893 H 0.88614 0.62019 0.98992 0.0
H3894 H 0.91627 0.6244 0.99822 0.0
H3895 H 0.90071 0.64525 0.00849 0.0
C3896 C 0.17642 0.13976 0.79644 0.0
C3897 C 0.18394 0.12034 0.80223 0.0
C3898 C 0.1918 0.16026 0.79696 0.0
C3899 C 0.21518 0.16134 0.80355 0.0
C3900 C 0.22268 0.14203 0.81042 0.0
C3901 C 0.20702 0.12176 0.80954 0.0
C3902 C 0.18312 0.18053 0.78966 0.0
C3903 C 0.24734 0.14269 0.81836 0.0
C3904 C 0.2579 0.20427 0.77919 0.0
C3905 C 0.26319 0.22187 0.79801 0.0
C3906 C 0.24202 0.18465 0.78068 0.0
C3907 C 0.23199 0.18219 0.8019 0.0
C3908 C 0.23819 0.19954 0.8214 0.0
C3909 C 0.25334 0.2194 0.81901 0.0
C3910 C 0.23546 0.16682 0.75928 0.0
C3911 C 0.22848 0.19745 0.8446 0.0
H3912 H 0.15861 0.1388 0.79093 0.0
H3913 H 0.21294 0.1069 0.81438 0.0
H3914 H 0.18933 0.1953 0.80345 0.0
H3915 H 0.18965 0.18502 0.77293 0.0
H3916 H 0.16437 0.17744 0.78675 0.0
H3917 H 0.25032 0.12651 0.82416 0.0
H3918 H 0.25738 0.1465 0.80356 0.0
H3919 H 0.25376 0.15638 0.83332 0.0
H3920 H 0.26523 0.20639 0.76281 0.0
H3921 H 0.25745 0.23307 0.83358 0.0
H3922 H 0.21699 0.16403 0.75367 0.0
H3923 H 0.2393 0.15058 0.76398 0.0
H3924 H 0.2444 0.17153 0.74395 0.0
H3925 H 0.21074 0.1998 0.84233 0.0
H3926 H 0.23812 0.21028 0.8592 0.0
H3927 H 0.22837 0.18045 0.85003 0.0
C3928 C 0.37039 0.94702 0.28489 0.0
C3929 C 0.36737 0.96182 0.30419 0.0
C3930 C 0.36048 0.92425 0.28288 0.0
C3931 C 0.34807 0.91651 0.301 0.0
C3932 C 0.34626 0.9312 0.32135 0.0
C3933 C 0.35574 0.95396 0.32251 0.0
C3934 C 0.36226 0.90872 0.26096 0.0
C3935 C 0.33363 0.92306 0.34134 0.0
C3936 C 0.29792 0.8695 0.28804 0.0
C3937 C 0.30665 0.85273 0.29837 0.0
C3938 C 0.31184 0.89022 0.28739 0.0
C3939 C 0.33469 0.89374 0.29752 0.0
C3940 C 0.34378 0.87626 0.30681 0.0
C3941 C 0.3294 0.85573 0.30722 0.0
C3942 C 0.30164 0.90888 0.27792 0.0
C3943 C 0.36804 0.87977 0.318 0.0
H3944 H 0.37974 0.95342 0.271 0.0
H3945 H 0.35415 0.96561 0.33774 0.0
H3946 H 0.36861 0.89376 0.26616 0.0
H3947 H 0.34527 0.90251 0.25069 0.0
H3948 H 0.37365 0.91719 0.24916 0.0
H3949 H 0.33553 0.93642 0.35672 0.0
H3950 H 0.31538 0.91741 0.33479 0.0
H3951 H 0.33976 0.90837 0.34768 0.0
H3952 H 0.27999 0.86683 0.28185 0.0
H3953 H 0.33559 0.84263 0.31585 0.0
H3954 H 0.31252 0.91761 0.26588 0.0
H3955 H 0.30042 0.92156 0.29299 0.0
H3956 H 0.28444 0.9025 0.26813 0.0
H3957 H 0.37954 0.88512 0.30487 0.0
H3958 H 0.3722 0.86427 0.32452 0.0
H3959 H 0.37142 0.89343 0.33321 0.0
C3960 C 0.57774 0.37558 0.5698 0.0
C3961 C 0.56658 0.36678 0.58834 0.0
C3962 C 0.57658 0.39756 0.56337 0.0
C3963 C 0.56381 0.41164 0.57542 0.0
C3964 C 0.55231 0.40266 0.59392 0.0
C3965 C 0.55391 0.38082 0.60009 0.0
C3966 C 0.58937 0.4059 0.5437 0.0
C3967 C 0.53802 0.41615 0.60726 0.0
C3968 C 0.57622 0.47718 0.5746 0.0
C3969 C 0.55942 0.48072 0.55705 0.0
C3970 C 0.5779 0.45521 0.58051 0.0
C3971 C 0.56244 0.43555 0.56887 0.0
C3972 C 0.5454 0.43903 0.55123 0.0
C3973 C 0.54424 0.46115 0.54552 0.0
C3974 C 0.59637 0.45308 0.59948 0.0
C3975 C 0.5282 0.41926 0.53817 0.0
H3976 H 0.58769 0.36538 0.56041 0.0
H3977 H 0.545 0.37464 0.61435 0.0
H3978 H 0.57774 0.41088 0.52979 0.0
H3979 H 0.60235 0.42114 0.55093 0.0
H3980 H 0.59782 0.39298 0.53528 0.0
H3981 H 0.5309 0.40752 0.62184 0.0
H3982 H 0.54818 0.43293 0.61497 0.0
H3983 H 0.52387 0.41905 0.59476 0.0
H3984 H 0.58817 0.49172 0.58395 0.0
H3985 H 0.53131 0.463 0.53176 0.0
H3986 H 0.60715 0.44197 0.59198 0.0
H3987 H 0.58888 0.4451 0.61422 0.0
H3988 H 0.6072 0.46966 0.60691 0.0
H3989 H 0.5368 0.40797 0.52743 0.0
H3990 H 0.51514 0.42459 0.52612 0.0
H3991 H 0.51971 0.40927 0.55106 0.0
C3992 C 0.42335 0.77077 0.41418 0.0
C3993 C 0.44468 0.7795 0.40764 0.0
C3994 C 0.40289 0.77338 0.40111 0.0
C3995 C 0.4033 0.78528 0.38087 0.0
C3996 C 0.42482 0.79433 0.37436 0.0
C3997 C 0.445 0.79124 0.38757 0.0
C3998 C 0.3807 0.76317 0.40891 0.0
C3999 C 0.42657 0.80767 0.35351 0.0
C4000 C 0.35105 0.77523 0.33264 0.0
C4001 C 0.34029 0.79318 0.33887 0.0
C4002 C 0.37109 0.77232 0.34618 0.0
C4003 C 0.38139 0.78803 0.36642 0.0
C4004 C 0.37074 0.80646 0.37251 0.0
C4005 C 0.35041 0.80868 0.35889 0.0
C4006 C 0.38126 0.75228 0.33875 0.0
C4007 C 0.3809 0.82405 0.3934 0.0
H4008 H 0.4226 0.76173 0.42958 0.0
H4009 H 0.46117 0.79835 0.38228 0.0
H4010 H 0.37056 0.77631 0.41218 0.0
H4011 H 0.37081 0.75032 0.3945 0.0
H4012 H 0.383 0.75506 0.42535 0.0
H4013 H 0.44435 0.81345 0.35038 0.0
H4014 H 0.4171 0.79731 0.33709 0.0
H4015 H 0.41877 0.82264 0.35671 0.0
H4016 H 0.34362 0.76324 0.31711 0.0
H4017 H 0.3428 0.82302 0.36354 0.0
H4018 H 0.38235 0.74196 0.35363 0.0
H4019 H 0.3987 0.75807 0.33469 0.0
H4020 H 0.37125 0.74144 0.32285 0.0
H4021 H 0.37927 0.8165 0.4102 0.0
H4022 H 0.37247 0.83878 0.39405 0.0
H4023 H 0.39918 0.83006 0.39264 0.0
C4024 C 0.07786 0.71821 0.09619 0.0
C4025 C 0.06146 0.73036 0.08818 0.0
C4026 C 0.07449 0.69422 0.09169 0.0
C4027 C 0.05411 0.68123 0.07864 0.0
C4028 C 0.03747 0.69337 0.07043 0.0
C4029 C 0.04125 0.71745 0.07528 0.0
C4030 C 0.09284 0.68269 0.10121 0.0
C4031 C 0.01537 0.68082 0.05663 0.0
C4032 C 0.05479 0.62052 0.04886 0.0
C4033 C 0.04415 0.60623 0.06408 0.0
C4034 C 0.05778 0.64448 0.05314 0.0
C4035 C 0.05041 0.65521 0.07353 0.0
C4036 C 0.03974 0.64083 0.08905 0.0
C4037 C 0.03656 0.61685 0.08405 0.0
C4038 C 0.06863 0.65836 0.03546 0.0
C4039 C 0.032 0.65078 0.11136 0.0
H4040 H 0.09349 0.72752 0.10636 0.0
H4041 H 0.02815 0.72615 0.06914 0.0
H4042 H 0.08597 0.6701 0.11269 0.0
H4043 H 0.09905 0.67343 0.08625 0.0
H4044 H 0.10738 0.69479 0.11171 0.0
H4045 H 1.00472 0.6924 0.04996 0.0
H4046 H 0.01852 0.66951 0.04128 0.0
H4047 H 1.00581 0.67004 0.0682 0.0
H4048 H 0.06022 0.61291 0.03301 0.0
H4049 H 0.02831 0.60636 0.09611 0.0
H4050 H 0.0846 0.66945 0.04424 0.0
H4051 H 0.05733 0.66943 0.02899 0.0
H4052 H 0.0724 0.64774 0.01989 0.0
H4053 H 0.04696 0.65962 0.12398 0.0
H4054 H 0.02195 0.63771 0.12031 0.0
H4055 H 0.02166 0.66345 0.10725 0.0
C4056 C 0.07077 0.29255 0.89745 0.0
C4057 C 0.06667 0.27944 0.91595 0.0
C4058 C 0.09105 0.29409 0.88708 0.0
C4059 C 0.10735 0.28145 0.8946 0.0
C4060 C 0.10294 0.26766 0.91285 0.0
C4061 C 0.08296 0.26721 0.92362 0.0
C4062 C 0.09521 0.30965 0.86834 0.0
C4063 C 0.11938 0.25346 0.92117 0.0
C4064 C 0.14933 0.27612 0.84946 0.0
C4065 C 0.16748 0.29372 0.85895 0.0
C4066 C 0.13035 0.27069 0.86175 0.0
C4067 C 0.12923 0.28347 0.88383 0.0
C4068 C 0.14838 0.29996 0.89432 0.0
C4069 C 0.1672 0.30474 0.88185 0.0
C4070 C 0.11085 0.25228 0.85033 0.0
C4071 C 0.14827 0.31429 0.91759 0.0
H4072 H 0.05837 0.30216 0.89153 0.0
H4073 H 0.07988 0.25694 0.93783 0.0
H4074 H 0.11163 0.32158 0.87348 0.0
H4075 H 0.0962 0.2997 0.85115 0.0
H4076 H 0.08171 0.31952 0.86564 0.0
H4077 H 0.11206 0.24123 0.93281 0.0
H4078 H 0.12473 0.24406 0.9057 0.0
H4079 H 0.13475 0.26452 0.93133 0.0
H4080 H 0.14919 0.26774 0.83165 0.0
H4081 H 0.181 0.3186 0.88915 0.0
H4082 H 0.09672 0.25991 0.84324 0.0
H4083 H 0.10456 0.24144 0.86369 0.0
H4084 H 0.11562 0.24156 0.83544 0.0
H4085 H 0.1383 0.32746 0.91432 0.0
H4086 H 0.16562 0.32279 0.92565 0.0
H4087 H 0.14026 0.30415 0.93062 0.0
C4088 C 0.54214 0.76274 0.91964 0.0
C4089 C 0.54797 0.76364 0.89651 0.0
C4090 C 0.54045 0.74265 0.9303 0.0
C4091 C 0.54555 0.72303 0.91801 0.0
C4092 C 0.55232 0.72414 0.89497 0.0
C4093 C 0.55297 0.74421 0.88435 0.0
C4094 C 0.5329 0.74238 0.95472 0.0
C4095 C 0.55876 0.70412 0.88141 0.0
C4096 C 0.55539 0.6788 0.95925 0.0
C4097 C 0.53395 0.66474 0.9565 0.0
C4098 C 0.55999 0.69692 0.94564 0.0
C4099 C 0.54267 0.70128 0.92901 0.0
C4100 C 0.52158 0.68596 0.9249 0.0
C4101 C 0.51746 0.66804 0.93873 0.0
C4102 C 0.58299 0.71219 0.95017 0.0
C4103 C 0.50259 0.68953 0.90731 0.0
H4104 H 0.53834 0.77765 0.92922 0.0
H4105 H 0.55782 0.74481 0.8666 0.0
H4106 H 0.51836 0.72825 0.95447 0.0
H4107 H 0.54679 0.73962 0.96763 0.0
H4108 H 0.52788 0.75838 0.96116 0.0
H4109 H 0.56751 0.70885 0.86595 0.0
H4110 H 0.56993 0.69629 0.89322 0.0
H4111 H 0.54335 0.69118 0.8747 0.0
H4112 H 0.56812 0.67657 0.97315 0.0
H4113 H 0.50078 0.65739 0.93667 0.0
H4114 H 0.58194 0.72814 0.96097 0.0
H4115 H 0.58896 0.71654 0.93315 0.0
H4116 H 0.59566 0.70434 0.95996 0.0
H4117 H 0.49567 0.70403 0.91474 0.0
H4118 H 0.48868 0.67445 0.90343 0.0
H4119 H 0.50877 0.69361 0.89033 0.0
C4120 C 0.11018 0.75251 0.72779 0.0
C4121 C 0.09958 0.77102 0.72507 0.0
C4122 C 0.13421 0.75501 0.73204 0.0
C4123 C 0.14865 0.77672 0.73454 0.0
C4124 C 0.13797 0.79549 0.73227 0.0
C4125 C 0.11398 0.79241 0.72721 0.0
C4126 C 0.14417 0.73419 0.73337 0.0
C4127 C 0.15195 0.81908 0.73514 0.0
C4128 C 0.20982 0.78429 0.76764 0.0
C4129 C 0.22369 0.78684 0.74936 0.0
C4130 C 0.18585 0.78145 0.7632 0.0
C4131 C 0.17468 0.77986 0.73959 0.0
C4132 C 0.18867 0.78167 0.72094 0.0
C4133 C 0.21272 0.78559 0.72606 0.0
C4134 C 0.17249 0.78074 0.78407 0.0
C4135 C 0.17819 0.77878 0.69533 0.0
H4136 H 0.09966 0.7358 0.72587 0.0
H4137 H 0.10645 0.80699 0.72502 0.0
H4138 H 0.15775 0.73431 0.72173 0.0
H4139 H 0.15191 0.73394 0.75183 0.0
H4140 H 0.13126 0.71845 0.72798 0.0
H4141 H 0.14135 0.83211 0.73579 0.0
H4142 H 0.1641 0.82215 0.75169 0.0
H4143 H 0.16193 0.82111 0.72 0.0
H4144 H 0.21785 0.78519 0.78574 0.0
H4145 H 0.22299 0.78711 0.71162 0.0
H4146 H 0.161 0.7641 0.78277 0.0
H4147 H 0.16184 0.79372 0.7838 0.0
H4148 H 0.18353 0.78371 0.8014 0.0
H4149 H 0.16836 0.7613 0.69043 0.0
H4150 H 0.19106 0.78195 0.68294 0.0
H4151 H 0.16624 0.79031 0.69284 0.0
C4152 C 0.05309 0.38982 0.4319 0.0
C4153 C 0.05455 0.38846 0.40725 0.0
C4154 C 0.05038 0.40994 0.44544 0.0
C4155 C 0.04868 0.42953 0.4343 0.0
C4156 C 0.05029 0.42829 0.40944 0.0
C4157 C 0.05331 0.40803 0.39639 0.0
C4158 C 0.04909 0.41012 0.47178 0.0
C4159 C 0.04859 0.4484 0.39647 0.0
C4160 C 0.01912 0.47377 0.46537 0.0
C4161 C 0.03725 0.4912 0.47552 0.0
C4162 C 0.02255 0.45406 0.45167 0.0
C4163 C 0.04478 0.45102 0.44847 0.0
C4164 C 0.06316 0.46855 0.45905 0.0
C4165 C 0.05918 0.48839 0.47207 0.0
C4166 C 1.00226 0.43647 0.44045 0.0
C4167 C 0.08718 0.46614 0.45712 0.0
H4168 H 0.05394 0.375 0.44071 0.0
H4169 H 0.0543 0.40743 0.37745 0.0
H4170 H 0.06142 0.42463 0.48195 0.0
H4171 H 0.03204 0.41222 0.47567 0.0
H4172 H 0.05249 0.39434 0.47827 0.0
H4173 H 0.04858 0.44447 0.37697 0.0
H4174 H 0.03292 0.45451 0.39968 0.0
H4175 H 0.06304 0.46239 0.40341 0.0
H4176 H 1.00211 0.4757 0.46789 0.0
H4177 H 0.07336 0.50155 0.48009 0.0
H4178 H 1.00278 0.4203 0.44762 0.0
H4179 H 1.00258 0.43337 0.42094 0.0
H4180 H 0.9861 0.44157 0.44373 0.0
H4181 H 0.09076 0.45162 0.46608 0.0
H4182 H 0.09961 0.4815 0.46536 0.0
H4183 H 0.08965 0.46258 0.43817 0.0
C4184 C 0.4596 0.279 0.24303 0.0
C4185 C 0.46263 0.26221 0.22521 0.0
C4186 C 0.43767 0.28152 0.24876 0.0
C4187 C 0.41761 0.26683 0.23677 0.0
C4188 C 0.42063 0.24984 0.21883 0.0
C4189 C 0.44267 0.24788 0.21328 0.0
C4190 C 0.43599 0.3002 0.26768 0.0
C4191 C 0.40042 0.23361 0.20518 0.0
C4192 C 0.36228 0.26012 0.26757 0.0
C4193 C 0.34862 0.27242 0.25492 0.0
C4194 C 0.38416 0.2579 0.26167 0.0
C4195 C 0.39371 0.26896 0.24311 0.0
C4196 C 0.38003 0.28174 0.23052 0.0
C4197 C 0.35781 0.28291 0.23618 0.0
C4198 C 0.39698 0.24326 0.2752 0.0
C4199 C 0.38903 0.29466 0.21122 0.0
H4200 H 0.47445 0.2905 0.2524 0.0
H4201 H 0.44423 0.23494 0.19931 0.0
H4202 H 0.42429 0.31063 0.26059 0.0
H4203 H 0.42887 0.29288 0.28296 0.0
H4204 H 0.45265 0.31129 0.27426 0.0
H4205 H 0.40534 0.22008 0.19341 0.0
H4206 H 0.38946 0.22571 0.21767 0.0
H4207 H 0.39019 0.24288 0.19403 0.0
H4208 H 0.35562 0.25173 0.28194 0.0
H4209 H 0.34772 0.29247 0.22609 0.0
H4210 H 0.41316 0.25351 0.28452 0.0
H4211 H 0.40117 0.22991 0.26258 0.0
H4212 H 0.38725 0.23511 0.28851 0.0
H4213 H 0.4041 0.30765 0.219 0.0
H4214 H 0.37632 0.30313 0.20242 0.0
H4215 H 0.3945 0.28321 0.19753 0.0
C4216 C 0.59238 0.55692 0.36467 0.0
C4217 C 0.61357 0.55234 0.36064 0.0
C4218 C 0.58449 0.55517 0.38706 0.0
C4219 C 0.59818 0.54893 0.40606 0.0
C4220 C 0.61955 0.54425 0.40199 0.0
C4221 C 0.62687 0.54588 0.37946 0.0
C4222 C 0.56149 0.56007 0.39039 0.0
C4223 C 0.63487 0.53775 0.42161 0.0
C4224 C 0.58755 0.56645 0.4698 0.0
C4225 C 0.57849 0.54578 0.47724 0.0
C4226 C 0.59476 0.56759 0.44716 0.0
C4227 C 0.59067 0.54788 0.43039 0.0
C4228 C 0.58 0.52714 0.43724 0.0
C4229 C 0.57461 0.52625 0.46073 0.0
C4230 C 0.60689 0.58995 0.4413 0.0
C4231 C 0.5737 0.50601 0.41958 0.0
H4232 H 0.58195 0.5619 0.35033 0.0
H4233 H 0.64325 0.54222 0.37665 0.0
H4234 H 0.55142 0.54612 0.39814 0.0
H4235 H 0.56332 0.57563 0.40305 0.0
H4236 H 0.55198 0.56241 0.37337 0.0
H4237 H 0.65148 0.53586 0.41605 0.0
H4238 H 0.63777 0.55067 0.43749 0.0
H4239 H 0.62672 0.52155 0.4271 0.0
H4240 H 0.5886 0.58192 0.48141 0.0
H4241 H 0.56662 0.51036 0.46594 0.0
H4242 H 0.5969 0.59543 0.42638 0.0
H4243 H 0.62341 0.58816 0.43546 0.0
H4244 H 0.60994 0.60337 0.45678 0.0
H4245 H 0.56262 0.509 0.40394 0.0
H4246 H 0.56473 0.49144 0.42738 0.0
H4247 H 0.58904 0.50158 0.41298 0.0
C4248 C 0.28271 0.88193 0.06364 0.0
C4249 C 0.29597 0.90303 0.0622 0.0
C4250 C 0.28413 0.87215 0.0848 0.0
C4251 C 0.29955 0.88364 0.10456 0.0
C4252 C 0.3123 0.9054 0.10339 0.0
C4253 C 0.31015 0.91494 0.08224 0.0
C4254 C 0.26968 0.84933 0.08581 0.0
C4255 C 0.32934 0.91798 0.12391 0.0
C4256 C 0.30401 0.86934 0.16753 0.0
C4257 C 0.32271 0.85883 0.16782 0.0
C4258 C 0.29484 0.87598 0.14637 0.0
C4259 C 0.3048 0.87206 0.12535 0.0
C4260 C 0.32245 0.85983 0.12524 0.0
C4261 C 0.33113 0.85329 0.14651 0.0
C4262 C 0.27573 0.88864 0.14691 0.0
C4263 C 0.33342 0.85525 0.10309 0.0
H4264 H 0.27153 0.87294 0.04812 0.0
H4265 H 0.32046 0.93127 0.08103 0.0
H4266 H 0.28043 0.83716 0.09047 0.0
H4267 H 0.2586 0.85067 0.09998 0.0
H4268 H 0.25893 0.84246 0.06865 0.0
H4269 H 0.33686 0.93528 0.12056 0.0
H4270 H 0.32135 0.91923 0.1405 0.0
H4271 H 0.34318 0.9086 0.12698 0.0
H4272 H 0.29741 0.87355 0.18403 0.0
H4273 H 0.34524 0.84468 0.14672 0.0
H4274 H 0.26312 0.88293 0.13084 0.0
H4275 H 0.28245 0.90689 0.14691 0.0
H4276 H 0.2671 0.8865 0.16302 0.0
H4277 H 0.32045 0.84728 0.08791 0.0
H4278 H 0.34578 0.84408 0.10561 0.0
H4279 H 0.34237 0.87141 0.09817 0.0
C4280 C 0.95807 0.53153 0.88223 0.0
C4281 C 0.93485 0.53076 0.87931 0.0
C4282 C 0.96932 0.53105 0.90462 0.0
C4283 C 0.95674 0.52939 0.9241 0.0
C4284 C 0.93321 0.52803 0.92122 0.0
C4285 C 0.92244 0.52896 0.89866 0.0
C4286 C 0.99462 0.53256 0.90745 0.0
C4287 C 0.91956 0.52584 0.94188 0.0
C4288 C 0.99004 0.51049 0.97364 0.0
C4289 C 0.99865 0.53098 0.98773 0.0
C4290 C 0.97412 0.5093 0.95401 0.0
C4291 C 0.96863 0.52955 0.94756 0.0
C4292 C 0.97728 0.5504 0.96188 0.0
C4293 C 0.99195 0.55076 0.98239 0.0
C4294 C 0.96406 0.48667 0.93967 0.0
C4295 C 0.97256 0.57241 0.95462 0.0
H4296 H 0.96748 0.53281 0.8671 0.0
H4297 H 0.90436 0.52814 0.89617 0.0
H4298 H 1.00305 0.54683 0.92113 0.0
H4299 H 0.99871 0.51693 0.91362 0.0
H4300 H 1.00186 0.53492 0.89055 0.0
H4301 H 0.90109 0.52207 0.93596 0.0
H4302 H 0.92383 0.51232 0.95212 0.0
H4303 H 0.92374 0.5418 0.95424 0.0
H4304 H 0.99547 0.49548 0.97829 0.0
H4305 H 0.99922 0.56662 0.99343 0.0
H4306 H 0.97124 0.48539 0.92257 0.0
H4307 H 0.94551 0.48483 0.93539 0.0
H4308 H 0.96751 0.47246 0.94931 0.0
H4309 H 0.98074 0.57606 0.93853 0.0
H4310 H 0.97907 0.58678 0.96888 0.0
H4311 H 0.95417 0.57128 0.94993 0.0
C4312 C 0.26986 0.20515 0.60696 0.0
C4313 C 0.27959 0.21865 0.59064 0.0
C4314 C 0.27298 0.21254 0.63164 0.0
C4315 C 0.28622 0.23409 0.64065 0.0
C4316 C 0.29656 0.24762 0.62436 0.0
C4317 C 0.2931 0.23981 0.59964 0.0
C4318 C 0.2618 0.19731 0.64809 0.0
C4319 C 0.31144 0.27035 0.63314 0.0
C4320 C 0.27403 0.26307 0.69979 0.0
C4321 C 0.29015 0.25774 0.71665 0.0
C4322 C 0.27254 0.25539 0.67527 0.0
C4323 C 0.2882 0.2428 0.66685 0.0
C4324 C 0.30516 0.23809 0.68364 0.0
C4325 C 0.30566 0.24522 0.7082 0.0
C4326 C 0.25386 0.26047 0.65832 0.0
C4327 C 0.32267 0.22523 0.67586 0.0
H4328 H 0.25965 0.18863 0.60042 0.0
H4329 H 0.30107 0.25024 0.58738 0.0
H4330 H 0.27456 0.19452 0.66229 0.0
H4331 H 0.24943 0.20549 0.65693 0.0
H4332 H 0.25288 0.18065 0.63854 0.0
H4333 H 0.31848 0.27881 0.61842 0.0
H4334 H 0.3017 0.28144 0.64253 0.0
H4335 H 0.32563 0.26836 0.64618 0.0
H4336 H 0.26238 0.27317 0.70567 0.0
H4337 H 0.3185 0.24117 0.72078 0.0
H4338 H 0.2428 0.24444 0.64964 0.0
H4339 H 0.26105 0.26946 0.64405 0.0
H4340 H 0.24334 0.27091 0.66741 0.0
H4341 H 0.31509 0.20697 0.67236 0.0
H4342 H 0.33749 0.22763 0.68975 0.0
H4343 H 0.32864 0.23052 0.65917 0.0
C4344 C 0.58963 0.54227 0.21418 0.0
C4345 C 0.61265 0.55058 0.22219 0.0
C4346 C 0.58101 0.5404 0.18978 0.0
C4347 C 0.59565 0.54707 0.17278 0.0
C4348 C 0.6189 0.55546 0.18084 0.0
C4349 C 0.62705 0.55707 0.20526 0.0
C4350 C 0.55622 0.53104 0.18214 0.0
C4351 C 0.63524 0.56294 0.16366 0.0
C4352 C 0.57937 0.52388 0.10653 0.0
C4353 C 0.57118 0.54159 0.09672 0.0
C4354 C 0.58696 0.52529 0.13106 0.0
C4355 C 0.58682 0.54506 0.14659 0.0
C4356 C 0.57868 0.56304 0.13687 0.0
C4357 C 0.57074 0.56096 0.11228 0.0
C4358 C 0.59523 0.50552 0.14033 0.0
C4359 C 0.57842 0.5846 0.15248 0.0
H4360 H 0.57833 0.5371 0.22698 0.0
H4361 H 0.64486 0.56354 0.2111 0.0
H4362 H 0.54852 0.54314 0.17237 0.0
H4363 H 0.55409 0.51523 0.16976 0.0
H4364 H 0.54686 0.52739 0.19749 0.0
H4365 H 0.6529 0.56835 0.17251 0.0
H4366 H 0.63464 0.54903 0.1492 0.0
H4367 H 0.63027 0.57721 0.15521 0.0
H4368 H 0.57968 0.5086 0.09503 0.0
H4369 H 0.56445 0.57466 0.10526 0.0
H4370 H 0.58538 0.49964 0.15461 0.0
H4371 H 0.61316 0.51079 0.14828 0.0
H4372 H 0.59381 0.49114 0.12614 0.0
H4373 H 0.56637 0.58109 0.16561 0.0
H4374 H 0.57343 0.59771 0.14205 0.0
H4375 H 0.59534 0.59142 0.16266 0.0
C4376 C 0.31308 0.9102 0.91519 0.0
C4377 C 0.309 0.89773 0.93416 0.0
C4378 C 0.31583 0.89943 0.89313 0.0
C4379 C 0.31398 0.87582 0.89029 0.0
C4380 C 0.31113 0.8634 0.90976 0.0
C4381 C 0.30878 0.87461 0.93161 0.0
C4382 C 0.31942 0.91303 0.87264 0.0
C4383 C 0.30904 0.83806 0.90717 0.0
C4384 C 0.28603 0.84125 0.8334 0.0
C4385 C 0.30387 0.8318 0.82642 0.0
C4386 C 0.28938 0.85667 0.85385 0.0
C4387 C 0.31137 0.86342 0.8665 0.0
C4388 C 0.32981 0.85522 0.85826 0.0
C4389 C 0.32563 0.83862 0.83865 0.0
C4390 C 0.26912 0.8642 0.86292 0.0
C4391 C 0.35362 0.86346 0.87057 0.0
H4392 H 0.31365 0.92822 0.91739 0.0
H4393 H 0.30603 0.86512 0.94648 0.0
H4394 H 0.33178 0.90705 0.86177 0.0
H4395 H 0.30325 0.91097 0.86084 0.0
H4396 H 0.32545 0.93129 0.87894 0.0
H4397 H 0.30741 0.83117 0.92435 0.0
H4398 H 0.294 0.82986 0.89433 0.0
H4399 H 0.32404 0.83333 0.90003 0.0
H4400 H 0.26922 0.83546 0.82374 0.0
H4401 H 0.33931 0.83124 0.83263 0.0
H4402 H 0.27193 0.88285 0.86588 0.0
H4403 H 0.2666 0.85801 0.8803 0.0
H4404 H 0.25336 0.85777 0.85042 0.0
H4405 H 0.35817 0.88209 0.87161 0.0
H4406 H 0.36613 0.856 0.86113 0.0
H4407 H 0.35487 0.85927 0.8891 0.0
C4408 C 0.91187 0.52991 0.72887 0.0
C4409 C 0.92584 0.5396 0.74993 0.0
C4410 C 0.92072 0.52823 0.70726 0.0
C4411 C 0.94402 0.5365 0.70692 0.0
C4412 C 0.95758 0.54855 0.72766 0.0
C4413 C 0.9483 0.54988 0.74911 0.0
C4414 C 0.90564 0.51554 0.68538 0.0
C4415 C 0.9822 0.55865 0.72749 0.0
C4416 C 0.96865 0.49715 0.66677 0.0
C4417 C 0.96817 0.50716 0.64576 0.0
C4418 C 0.96181 0.50722 0.68718 0.0
C4419 C 0.95476 0.52809 0.6867 0.0
C4420 C 0.95569 0.53915 0.66612 0.0
C4421 C 0.96211 0.52838 0.64569 0.0
C4422 C 0.96112 0.49494 0.70893 0.0
C4423 C 0.94885 0.5617 0.6652 0.0
H4424 H 0.89433 0.52238 0.72945 0.0
H4425 H 0.9589 0.55793 0.76539 0.0
H4426 H 0.9079 0.52491 0.66985 0.0
H4427 H 0.91032 0.49894 0.68104 0.0
H4428 H 0.8875 0.5126 0.68799 0.0
H4429 H 0.99039 0.56744 0.74522 0.0
H4430 H 0.99147 0.54531 0.72193 0.0
H4431 H 0.98381 0.57089 0.71434 0.0
H4432 H 0.97395 0.48112 0.6671 0.0
H4433 H 0.9616 0.53624 0.62947 0.0
H4434 H 0.94344 0.49049 0.71286 0.0
H4435 H 0.97108 0.50601 0.72467 0.0
H4436 H 0.96788 0.47921 0.70656 0.0
H4437 H 0.93025 0.55904 0.66082 0.0
H4438 H 0.95668 0.57082 0.65129 0.0
H4439 H 0.95363 0.57252 0.6826 0.0
C4440 C 0.29677 0.21643 0.44123 0.0
C4441 C 0.27698 0.21547 0.4522 0.0
C4442 C 0.29775 0.22235 0.41796 0.0
C4443 C 0.27835 0.22706 0.40488 0.0
C4444 C 0.25804 0.22514 0.41549 0.0
C4445 C 0.25768 0.21971 0.43903 0.0
C4446 C 0.31975 0.22402 0.40756 0.0
C4447 C 0.2365 0.22838 0.40174 0.0
C4448 C 0.28263 0.26766 0.35787 0.0
C4449 C 0.28281 0.25369 0.33659 0.0
C4450 C 0.28266 0.25935 0.38004 0.0
C4451 C 0.27979 0.23586 0.38109 0.0
C4452 C 0.27829 0.22128 0.35948 0.0
C4453 C 0.28094 0.23043 0.33782 0.0
C4454 C 0.28606 0.27595 0.40242 0.0
C4455 C 0.27375 0.19598 0.35881 0.0
H4456 H 0.31169 0.21277 0.45098 0.0
H4457 H 0.24211 0.21839 0.44697 0.0
H4458 H 0.31739 0.21225 0.39084 0.0
H4459 H 0.32528 0.24133 0.40304 0.0
H4460 H 0.33337 0.21996 0.41997 0.0
H4461 H 0.22177 0.22475 0.41174 0.0
H4462 H 0.23834 0.24594 0.39751 0.0
H4463 H 0.23298 0.21713 0.38454 0.0
H4464 H 0.28246 0.28533 0.35746 0.0
H4465 H 0.28064 0.21916 0.32167 0.0
H4466 H 0.29896 0.27201 0.41578 0.0
H4467 H 0.27009 0.27474 0.41043 0.0
H4468 H 0.29159 0.29362 0.39889 0.0
H4469 H 0.29001 0.19011 0.3597 0.0
H4470 H 0.26344 0.18771 0.34181 0.0
H4471 H 0.26482 0.1903 0.37379 0.0
C4472 C 0.33095 0.59289 0.54811 0.0
C4473 C 0.32795 0.6078 0.56716 0.0
C4474 C 0.35255 0.59005 0.54456 0.0
C4475 C 0.37115 0.60196 0.56108 0.0
C4476 C 0.36796 0.61592 0.58126 0.0
C4477 C 0.34617 0.61886 0.58397 0.0
C4478 C 0.35546 0.57526 0.52247 0.0
C4479 C 0.3875 0.62869 0.59908 0.0
C4480 C 0.41538 0.57097 0.54831 0.0
C4481 C 0.42244 0.58162 0.52902 0.0
C4482 C 0.40096 0.57987 0.56235 0.0
C4483 C 0.39376 0.59958 0.5565 0.0
C4484 C 0.40401 0.61233 0.53974 0.0
C4485 C 0.41819 0.60289 0.52577 0.0
C4486 C 0.39044 0.56617 0.58041 0.0
C4487 C 0.39724 0.63389 0.53369 0.0
H4488 H 0.31667 0.5849 0.53498 0.0
H4489 H 0.34347 0.63064 0.59856 0.0
H4490 H 0.36632 0.58528 0.51131 0.0
H4491 H 0.36383 0.56142 0.52752 0.0
H4492 H 0.3391 0.56765 0.5114 0.0
H4493 H 0.38171 0.63622 0.61539 0.0
H4494 H 0.39913 0.61748 0.60425 0.0
H4495 H 0.3973 0.64249 0.59092 0.0
H4496 H 0.41935 0.55468 0.55098 0.0
H4497 H 0.4246 0.61132 0.51128 0.0
H4498 H 0.37395 0.55575 0.57203 0.0
H4499 H 0.38723 0.57723 0.59591 0.0
H4500 H 0.40131 0.55466 0.5868 0.0
H4501 H 0.38284 0.62976 0.51919 0.0
H4502 H 0.41138 0.64504 0.52723 0.0
H4503 H 0.3919 0.64322 0.54917 0.0
C4504 C 0.89476 0.92542 0.53964 0.0
C4505 C 0.87661 0.93553 0.54506 0.0
C4506 C 0.91564 0.93848 0.53633 0.0
C4507 C 0.91862 0.96231 0.53884 0.0
C4508 C 0.90031 0.97258 0.54414 0.0
C4509 C 0.87954 0.9591 0.54708 0.0
C4510 C 0.93454 0.92673 0.5304 0.0
C4511 C 0.90275 0.9979 0.54686 0.0
C4512 C 0.97837 0.99669 0.55604 0.0
C4513 C 0.98338 1.00458 0.53461 0.0
C4514 C 0.95731 0.98315 0.55767 0.0
C4515 C 0.94112 0.97665 0.53713 0.0
C4516 C 0.94634 0.98427 0.51525 0.0
C4517 C 0.96727 0.99853 0.51437 0.0
C4518 C 0.95244 0.97574 0.5814 0.0
C4519 C 0.93017 0.9767 0.49263 0.0
H4520 H 0.89262 0.90721 0.53779 0.0
H4521 H 0.86557 0.96705 0.551 0.0
H4522 H 0.94284 0.93392 0.51569 0.0
H4523 H 0.94755 0.92929 0.54616 0.0
H4524 H 0.92847 0.9083 0.52521 0.0
H4525 H 0.88704 1.00334 0.55126 0.0
H4526 H 0.91671 1.0058 0.56113 0.0
H4527 H 0.90721 1.00437 0.53012 0.0
H4528 H 0.991 1.00118 0.5716 0.0
H4529 H 0.9715 1.00406 0.49761 0.0
H4530 H 0.94946 0.95709 0.58011 0.0
H4531 H 0.93684 0.981 0.58641 0.0
H4532 H 0.96651 0.98292 0.59583 0.0
H4533 H 0.92789 0.95815 0.48813 0.0
H4534 H 0.9363 0.98487 0.47734 0.0
H4535 H 0.91334 0.98047 0.49515 0.0
C4536 C 0.91784 0.0948 0.28162 0.0
C4537 C 0.90847 0.07537 0.26567 0.0
C4538 C 0.90805 0.11394 0.28209 0.0
C4539 C 0.88856 0.11374 0.266 0.0
C4540 C 0.87978 0.09464 0.24892 0.0
C4541 C 0.8897 0.07553 0.24913 0.0
C4542 C 0.91802 0.13402 0.30052 0.0
C4543 C 0.85965 0.09427 0.23083 0.0
C4544 C 0.85183 0.15141 0.29176 0.0
C4545 C 0.85918 0.17134 0.28223 0.0
C4546 C 0.86011 0.13194 0.2852 0.0
C4547 C 0.87627 0.13262 0.26893 0.0
C4548 C 0.88256 0.15238 0.25807 0.0
C4549 C 0.87394 0.17161 0.26495 0.0
C4550 C 0.85275 0.11113 0.29696 0.0
C4551 C 0.89961 0.15392 0.24056 0.0
H4552 H 0.93244 0.09481 0.29433 0.0
H4553 H 0.88267 0.06068 0.23645 0.0
H4554 H 0.92131 0.14961 0.29189 0.0
H4555 H 0.90578 0.13628 0.3133 0.0
H4556 H 0.93406 0.13208 0.31064 0.0
H4557 H 0.85572 0.0787 0.21782 0.0
H4558 H 0.8446 0.09546 0.24 0.0
H4559 H 0.86285 0.1091 0.22096 0.0
H4560 H 0.84039 0.15139 0.30517 0.0
H4561 H 0.87962 0.1872 0.25775 0.0
H4562 H 0.86722 0.10813 0.30893 0.0
H4563 H 0.84728 0.0961 0.28335 0.0
H4564 H 0.83867 0.11271 0.30759 0.0
H4565 H 0.91686 0.15845 0.25051 0.0
H4566 H 0.89763 0.16715 0.2289 0.0
H4567 H 0.89817 0.1376 0.22924 0.0
C4568 C 0.69352 0.12009 0.03183 0.0
C4569 C 0.70653 0.10633 0.04271 0.0
C4570 C 0.67039 0.1127 0.0255 0.0
C4571 C 0.66029 0.09128 0.03067 0.0
C4572 C 0.67338 0.07704 0.04111 0.0
C4573 C 0.69661 0.08474 0.04688 0.0
C4574 C 0.65673 0.12816 0.01432 0.0
C4575 C 0.66271 0.05414 0.04706 0.0
C4576 C 0.60116 0.08102 0.04527 0.0
C4577 C 0.59039 0.0662 0.02535 0.0
C4578 C 0.62401 0.09022 0.0468 0.0
C4579 C 0.63577 0.08461 0.0276 0.0
C4580 C 0.62444 0.07083 0.00668 0.0
C4581 C 0.60164 0.06129 0.006 0.0
C4582 C 0.63576 0.10464 0.06951 0.0
C4583 C 0.63657 0.06544 0.98563 0.0
H4584 H 0.70138 0.13676 0.02838 0.0
H4585 H 0.70685 0.07422 0.05529 0.0
H4586 H 0.64458 0.1188 0.99904 0.0
H4587 H 0.64677 0.13497 0.02758 0.0
H4588 H 0.66762 0.14259 0.00808 0.0
H4589 H 0.67543 0.045 0.05465 0.0
H4590 H 0.65065 0.05606 0.06013 0.0
H4591 H 0.65297 0.04365 0.03084 0.0
H4592 H 0.59192 0.08452 0.06008 0.0
H4593 H 0.59283 0.0496 0.99076 0.0
H4594 H 0.64546 0.12082 0.06549 0.0
H4595 H 0.64796 0.0958 0.07859 0.0
H4596 H 0.6237 0.10836 0.08206 0.0
H4597 H 0.64548 0.08126 0.97997 0.0
H4598 H 0.62484 0.05563 0.97021 0.0
H4599 H 0.64953 0.05558 0.99078 0.0
C4600 C 0.23986 0.49691 0.23747 0.0
C4601 C 0.22117 0.50116 0.24809 0.0
C4602 C 0.24721 0.4767 0.23983 0.0
C4603 C 0.23587 0.46137 0.25373 0.0
C4604 C 0.21643 0.46546 0.26368 0.0
C4605 C 0.20922 0.48528 0.26049 0.0
C4606 C 0.2673 0.47201 0.22817 0.0
C4607 C 0.20423 0.44988 0.27934 0.0
C4608 C 0.23952 0.40313 0.26467 0.0
C4609 C 0.2511 0.40792 0.28774 0.0
C4610 C 0.23677 0.42071 0.25143 0.0
C4611 C 0.24598 0.44311 0.26179 0.0
C4612 C 0.2597 0.44764 0.28409 0.0
C4613 C 0.26191 0.42983 0.29696 0.0
C4614 C 0.22214 0.41554 0.22762 0.0
C4615 C 0.2698 0.4714 0.29564 0.0
H4616 H 0.24863 0.50929 0.22753 0.0
H4617 H 0.19477 0.48888 0.26879 0.0
H4618 H 0.28093 0.46989 0.2418 0.0
H4619 H 0.26237 0.45597 0.21595 0.0
H4620 H 0.2741 0.48571 0.21788 0.0
H4621 H 0.18863 0.45515 0.28442 0.0
H4622 H 0.19949 0.43239 0.27015 0.0
H4623 H 0.21552 0.44971 0.29594 0.0
H4624 H 0.23196 0.38584 0.25746 0.0
H4625 H 0.27164 0.43304 0.3145 0.0
H4626 H 0.22876 0.4271 0.21504 0.0
H4627 H 0.20483 0.41803 0.23001 0.0
H4628 H 0.22093 0.39784 0.21962 0.0
H4629 H 0.27759 0.48173 0.28263 0.0
H4630 H 0.2828 0.47172 0.31099 0.0
H4631 H 0.25624 0.47945 0.30217 0.0
C4632 C 0.25851 0.44934 0.04977 0.0
C4633 C 0.25624 0.42583 0.04639 0.0
C4634 C 0.23942 0.45933 0.04749 0.0
C4635 C 0.21762 0.44545 0.04192 0.0
C4636 C 0.21524 0.42171 0.03966 0.0
C4637 C 0.23456 0.41221 0.0418 0.0
C4638 C 0.2426 0.48471 0.05019 0.0
C4639 C 0.19231 0.40627 0.03395 0.0
C4640 C 0.16386 0.46821 0.04758 0.0
C4641 C 0.15657 0.46962 0.0237 0.0
C4642 C 0.18411 0.46102 0.05401 0.0
C4643 C 0.19745 0.45549 0.03614 0.0
C4644 C 0.19063 0.45797 0.01216 0.0
C4645 C 0.17023 0.4649 0.00623 0.0
C4646 C 0.1906 0.45826 0.0797 0.0
C4647 C 0.20451 0.45254 0.99261 0.0
H4648 H 0.27523 0.45994 0.05348 0.0
H4649 H 0.23267 0.39401 0.03941 0.0
H4650 H 0.2364 0.49017 0.03315 0.0
H4651 H 0.23249 0.49054 0.06383 0.0
H4652 H 0.26057 0.49313 0.05538 0.0
H4653 H 0.19315 0.38843 0.03575 0.0
H4654 H 0.18043 0.41165 0.04583 0.0
H4655 H 0.18523 0.40718 0.01539 0.0
H4656 H 0.15322 0.47178 0.06107 0.0
H4657 H 0.16472 0.46628 0.9878 0.0
H4658 H 0.20839 0.46675 0.08574 0.0
H4659 H 0.18933 0.44009 0.08143 0.0
H4660 H 0.17957 0.46519 0.09169 0.0
H4661 H 0.22206 0.46234 0.99703 0.0
H4662 H 0.19737 0.45632 0.97506 0.0
H4663 H 0.20539 0.4344 0.99103 0.0
C4664 C 0.90155 0.93406 0.26199 0.0
C4665 C 0.89489 0.95397 0.27055 0.0
C4666 C 0.88868 0.91273 0.26411 0.0
C4667 C 0.86851 0.91121 0.27483 0.0
C4668 C 0.86176 0.93128 0.28357 0.0
C4669 C 0.87503 0.95237 0.28137 0.0
C4670 C 0.89678 0.89182 0.25499 0.0
C4671 C 0.84055 0.93048 0.29538 0.0
C4672 C 0.82498 0.85604 0.25998 0.0
C4673 C 0.82794 0.84603 0.28079 0.0
C4674 C 0.8377 0.87747 0.258 0.0
C4675 C 0.85441 0.88869 0.27692 0.0
C4676 C 0.85727 0.87856 0.29805 0.0
C4677 C 0.84339 0.85779 0.30001 0.0
C4678 C 0.83322 0.88814 0.23569 0.0
C4679 C 0.87546 0.88925 0.31831 0.0
H4680 H 0.91694 0.93512 0.25374 0.0
H4681 H 0.86985 0.96764 0.28827 0.0
H4682 H 0.89755 0.88062 0.26911 0.0
H4683 H 0.88466 0.88224 0.23981 0.0
H4684 H 0.91372 0.89583 0.24898 0.0
H4685 H 0.83693 0.94753 0.30004 0.0
H4686 H 0.82588 0.92002 0.28346 0.0
H4687 H 0.84224 0.92246 0.31192 0.0
H4688 H 0.81268 0.8471 0.24528 0.0
H4689 H 0.84476 0.85066 0.3166 0.0
H4690 H 0.84844 0.89028 0.22632 0.0
H4691 H 0.82961 0.90517 0.24038 0.0
H4692 H 0.81875 0.87788 0.22327 0.0
H4693 H 0.89227 0.88932 0.31231 0.0
H4694 H 0.8744 0.88004 0.33414 0.0
H4695 H 0.87446 0.90704 0.3237 0.0
C4696 C 0.72433 0.13126 0.7845 0.0
C4697 C 0.73314 0.1241 0.76394 0.0
C4698 C 0.72801 0.15403 0.79311 0.0
C4699 C 0.74102 0.16956 0.78087 0.0
C4700 C 0.74956 0.16239 0.75973 0.0
C4701 C 0.74518 0.13946 0.75124 0.0
C4702 C 0.71819 0.16146 0.81523 0.0
C4703 C 0.7636 0.17881 0.74639 0.0
C4704 C 0.74204 0.23129 0.78742 0.0
C4705 C 0.7641 0.23901 0.79869 0.0
C4706 C 0.73334 0.20825 0.78271 0.0
C4707 C 0.74681 0.19328 0.79072 0.0
C4708 C 0.76769 0.20136 0.80525 0.0
C4709 C 0.77637 0.22443 0.80876 0.0
C4710 C 0.71134 0.20005 0.7665 0.0
C4711 C 0.78199 0.18561 0.81464 0.0
H4712 H 0.71421 0.11901 0.79358 0.0
H4713 H 0.75125 0.13352 0.73497 0.0
H4714 H 0.73194 0.1704 0.82926 0.0
H4715 H 0.70714 0.17356 0.81125 0.0
H4716 H 0.70816 0.14706 0.8224 0.0
H4717 H 0.76672 0.17075 0.72894 0.0
H4718 H 0.75511 0.19305 0.74332 0.0
H4719 H 0.78015 0.18595 0.75724 0.0
H4720 H 0.73281 0.24294 0.7796 0.0
H4721 H 0.79345 0.23086 0.81748 0.0
H4722 H 0.70071 0.18573 0.77312 0.0
H4723 H 0.71495 0.19392 0.74852 0.0
H4724 H 0.70159 0.21365 0.76468 0.0
H4725 H 0.77165 0.17245 0.82317 0.0
H4726 H 0.79647 0.19471 0.8278 0.0
H4727 H 0.7887 0.17695 0.79964 0.0
loop_
_geom_bond_atom_site_label_1
_geom_bond_atom_site_label_2
_geom_bond_distance
_geom_bond_site_symmetry_2
_ccdc_geom_bond_type
In0 O1 2.294 . S
In0 O2 2.326 . S
In0 O6 2.266 . S
In0 O7 2.326 . S
In0 O8 2.266 . S
In0 O9 2.326 . S
In0 O11 2.294 . S
In0 O12 2.326 . S
O1 In0 2.294 . S
O1 C10 1.240 . S
O2 In0 2.326 . S
O2 C10 1.252 . S
C3 O6 1.208 1_655 S
C3 O7 1.256 1_655 S
C4 O11 1.240 . S
C4 O12 1.252 . S
C5 O8 1.252 . S
C5 O9 1.260 . S
O6 In0 2.266 . S
O6 C3 1.208 1_455 S
O7 In0 2.326 . S
O7 C3 1.256 1_455 S
O8 In0 2.266 . S
O8 C5 1.252 . S
O9 In0 2.326 . S
O9 C5 1.260 . S
C10 O1 1.240 . S
C10 O2 1.252 . S
O11 In0 2.294 . S
O11 C4 1.240 . S
O12 In0 2.326 . S
O12 C4 1.252 . S
In13 O14 2.294 . S
In13 O15 2.326 . S
In13 O19 2.266 . S
In13 O20 2.326 . S
In13 O21 2.266 1_455 S
In13 O22 2.326 1_455 S
In13 O24 2.294 . S
In13 O25 2.326 . S
O14 In13 2.294 . S
O14 C23 1.240 . S
O15 In13 2.326 . S
O15 C23 1.252 . S
C16 O19 1.252 . S
C16 O20 1.260 . S
C17 O24 1.240 . S
C17 O25 1.252 . S
C18 O21 1.252 . S
C18 O22 1.260 . S
O19 In13 2.266 . S
O19 C16 1.252 . S
O20 In13 2.326 . S
O20 C16 1.260 . S
O21 In13 2.266 1_655 S
O21 C18 1.252 . S
O22 In13 2.326 1_655 S
O22 C18 1.260 . S
C23 O14 1.240 . S
C23 O15 1.252 . S
O24 In13 2.294 . S
O24 C17 1.240 . S
O25 In13 2.326 . S
O25 C17 1.252 . S
In26 O27 2.294 . S
In26 O28 2.326 . S
In26 O32 2.266 . S
In26 O33 2.326 . S
In26 O34 2.266 . S
In26 O35 2.326 . S
In26 O37 2.294 . S
In26 O38 2.326 . S
O27 In26 2.294 . S
O27 C36 1.240 . S
O28 In26 2.326 . S
O28 C36 1.252 . S
C29 O32 1.252 . S
C29 O33 1.260 . S
C30 O37 1.240 . S
C30 O38 1.252 . S
C31 O34 1.252 . S
C31 O35 1.260 . S
O32 In26 2.266 . S
O32 C29 1.252 . S
O33 In26 2.326 . S
O33 C29 1.260 . S
O34 In26 2.266 . S
O34 C31 1.252 . S
O35 In26 2.326 . S
O35 C31 1.260 . S
C36 O27 1.240 . S
C36 O28 1.252 . S
O37 In26 2.294 . S
O37 C30 1.240 . S
O38 In26 2.326 . S
O38 C30 1.252 . S
In39 O40 2.294 . S
In39 O41 2.326 . S
In39 O45 2.266 . S
In39 O46 2.326 . S
In39 O47 2.266 . S
In39 O48 2.326 . S
In39 O50 2.294 . S
In39 O51 2.326 . S
O40 In39 2.294 . S
O40 C49 1.240 . S
O41 In39 2.326 . S
O41 C49 1.252 . S
C42 O45 1.252 . S
C42 O46 1.260 . S
C43 O50 1.240 . S
C43 O51 1.252 . S
C44 O47 1.252 . S
C44 O48 1.260 . S
O45 In39 2.266 . S
O45 C42 1.252 . S
O46 In39 2.326 . S
O46 C42 1.260 . S
O47 In39 2.266 . S
O47 C44 1.252 . S
O48 In39 2.326 . S
O48 C44 1.260 . S
C49 O40 1.240 . S
C49 O41 1.252 . S
O50 In39 2.294 . S
O50 C43 1.240 . S
O51 In39 2.326 . S
O51 C43 1.252 . S
In52 O53 2.294 . S
In52 O54 2.326 . S
In52 O58 2.266 . S
In52 O59 2.326 . S
In52 O60 2.266 . S
In52 O61 2.326 . S
In52 O63 2.294 . S
In52 O64 2.326 . S
O53 In52 2.294 . S
O53 C62 1.240 . S
O54 In52 2.326 . S
O54 C62 1.252 . S
C55 O58 1.252 . S
C55 O59 1.260 . S
C56 O63 1.240 . S
C56 O64 1.252 . S
C57 O60 1.252 . S
C57 O61 1.260 . S
O58 In52 2.266 . S
O58 C55 1.252 . S
O59 In52 2.326 . S
O59 C55 1.260 . S
O60 In52 2.266 . S
O60 C57 1.252 . S
O61 In52 2.326 . S
O61 C57 1.260 . S
C62 O53 1.240 . S
C62 O54 1.252 . S
O63 In52 2.294 . S
O63 C56 1.240 . S
O64 In52 2.326 . S
O64 C56 1.252 . S
In65 O66 2.294 . S
In65 O67 2.326 . S
In65 O71 2.266 . S
In65 O72 2.326 . S
In65 O73 2.266 . S
In65 O74 2.326 . S
In65 O76 2.294 . S
In65 O77 2.326 . S
O66 In65 2.294 . S
O66 C75 1.240 . S
O67 In65 2.326 . S
O67 C75 1.252 . S
C68 O71 1.252 . S
C68 O72 1.260 . S
C69 O76 1.240 . S
C69 O77 1.252 . S
C70 O73 1.252 . S
C70 O74 1.260 . S
O71 In65 2.266 . S
O71 C68 1.252 . S
O72 In65 2.326 . S
O72 C68 1.260 . S
O73 In65 2.266 . S
O73 C70 1.252 . S
O74 In65 2.326 . S
O74 C70 1.260 . S
C75 O66 1.240 . S
C75 O67 1.252 . S
O76 In65 2.294 . S
O76 C69 1.240 . S
O77 In65 2.326 . S
O77 C69 1.252 . S
In78 O79 2.294 . S
In78 O80 2.326 . S
In78 O84 2.266 . S
In78 O85 2.326 . S
In78 O86 2.266 . S
In78 O87 2.326 . S
In78 O89 2.294 . S
In78 O90 2.326 . S
O79 In78 2.294 . S
O79 C88 1.240 . S
O80 In78 2.326 . S
O80 C88 1.252 . S
C81 O84 1.252 . S
C81 O85 1.260 . S
C82 O89 1.240 . S
C82 O90 1.252 . S
C83 O86 1.252 . S
C83 O87 1.260 . S
O84 In78 2.266 . S
O84 C81 1.252 . S
O85 In78 2.326 . S
O85 C81 1.260 . S
O86 In78 2.266 . S
O86 C83 1.252 . S
O87 In78 2.326 . S
O87 C83 1.260 . S
C88 O79 1.240 . S
C88 O80 1.252 . S
O89 In78 2.294 . S
O89 C82 1.240 . S
O90 In78 2.326 . S
O90 C82 1.252 . S
In91 O92 2.296 . S
In91 O93 2.334 1_455 S
In91 O97 2.270 . S
In91 O98 2.324 . S
In91 O99 2.259 1_455 S
In91 O100 2.314 1_455 S
In91 O102 2.301 . S
In91 O103 2.337 . S
O92 In91 2.296 . S
O92 C101 1.240 . S
O93 In91 2.334 1_655 S
O93 C101 1.251 1_655 S
C94 O97 1.251 . S
C94 O98 1.260 . S
C95 O102 1.240 . S
C95 O103 1.252 . S
C96 O99 1.252 . S
C96 O100 1.260 . S
O97 In91 2.270 . S
O97 C94 1.251 . S
O98 In91 2.324 . S
O98 C94 1.260 . S
O99 In91 2.259 1_655 S
O99 C96 1.252 . S
O100 In91 2.314 1_655 S
O100 C96 1.260 . S
C101 O92 1.240 . S
C101 O93 1.251 1_455 S
O102 In91 2.301 . S
O102 C95 1.240 . S
O103 In91 2.337 . S
O103 C95 1.252 . S
In104 O105 2.294 . S
In104 O106 2.326 . S
In104 O110 2.266 . S
In104 O111 2.326 . S
In104 O112 2.266 1_545 S
In104 O113 2.326 1_545 S
In104 O115 2.294 . S
In104 O116 2.326 . S
O105 In104 2.294 . S
O105 C114 1.240 . S
O106 In104 2.326 . S
O106 C114 1.252 . S
C107 O110 1.252 . S
C107 O111 1.260 . S
C108 O115 1.240 . S
C108 O116 1.252 . S
C109 O112 1.252 . S
C109 O113 1.260 . S
O110 In104 2.266 . S
O110 C107 1.252 . S
O111 In104 2.326 . S
O111 C107 1.260 . S
O112 In104 2.266 1_565 S
O112 C109 1.252 . S
O113 In104 2.326 1_565 S
O113 C109 1.260 . S
C114 O105 1.240 . S
C114 O106 1.252 . S
O115 In104 2.294 . S
O115 C108 1.240 . S
O116 In104 2.326 . S
O116 C108 1.252 . S
In117 O118 2.294 . S
In117 O119 2.326 . S
In117 O123 2.266 . S
In117 O124 2.326 . S
In117 O125 2.266 . S
In117 O126 2.326 . S
In117 O128 2.294 . S
In117 O129 2.326 . S
O118 In117 2.294 . S
O118 C127 1.240 . S
O119 In117 2.326 . S
O119 C127 1.252 . S
C120 O123 1.252 . S
C120 O124 1.260 . S
C121 O128 1.240 . S
C121 O129 1.252 . S
C122 O125 1.252 . S
C122 O126 1.260 . S
O123 In117 2.266 . S
O123 C120 1.252 . S
O124 In117 2.326 . S
O124 C120 1.260 . S
O125 In117 2.266 . S
O125 C122 1.252 . S
O126 In117 2.326 . S
O126 C122 1.260 . S
C127 O118 1.240 . S
C127 O119 1.252 . S
O128 In117 2.294 . S
O128 C121 1.240 . S
O129 In117 2.326 . S
O129 C121 1.252 . S
In130 O131 2.294 . S
In130 O132 2.326 . S
In130 O136 2.266 . S
In130 O137 2.326 . S
In130 O138 2.266 . S
In130 O139 2.326 . S
In130 O141 2.294 . S
In130 O142 2.326 . S
O131 In130 2.294 . S
O131 C140 1.240 . S
O132 In130 2.326 . S
O132 C140 1.252 . S
C133 O136 1.252 . S
C133 O137 1.260 . S
C134 O141 1.240 . S
C134 O142 1.252 . S
C135 O138 1.252 . S
C135 O139 1.260 . S
O136 In130 2.266 . S
O136 C133 1.252 . S
O137 In130 2.326 . S
O137 C133 1.260 . S
O138 In130 2.266 . S
O138 C135 1.252 . S
O139 In130 2.326 . S
O139 C135 1.260 . S
C140 O131 1.240 . S
C140 O132 1.252 . S
O141 In130 2.294 . S
O141 C134 1.240 . S
O142 In130 2.326 . S
O142 C134 1.252 . S
In143 O144 2.296 . S
In143 O145 2.329 . S
In143 O149 2.264 1_554 S
In143 O150 2.322 1_554 S
In143 O151 2.266 1_554 S
In143 O152 2.323 1_554 S
In143 O154 2.294 . S
In143 O155 2.327 . S
O144 In143 2.296 . S
O144 C153 1.240 . S
O145 In143 2.329 . S
O145 C153 1.252 . S
C146 O149 1.252 . S
C146 O150 1.260 . S
C147 O154 1.240 . S
C147 O155 1.252 . S
C148 O151 1.253 . S
C148 O152 1.257 . S
O149 In143 2.264 1_556 S
O149 C146 1.252 . S
O150 In143 2.322 1_556 S
O150 C146 1.260 . S
O151 In143 2.266 1_556 S
O151 C148 1.253 . S
O152 In143 2.323 1_556 S
O152 C148 1.257 . S
C153 O144 1.240 . S
C153 O145 1.252 . S
O154 In143 2.294 . S
O154 C147 1.240 . S
O155 In143 2.327 . S
O155 C147 1.252 . S
In156 O157 2.294 . S
In156 O158 2.326 . S
In156 O162 2.266 . S
In156 O163 2.326 . S
In156 O164 2.266 . S
In156 O165 2.326 . S
In156 O167 2.294 . S
In156 O168 2.326 . S
O157 In156 2.294 . S
O157 C166 1.240 . S
O158 In156 2.326 . S
O158 C166 1.252 . S
C159 O162 1.248 . S
C159 O163 1.260 . S
C160 O167 1.240 . S
C160 O168 1.252 . S
C161 O164 1.252 . S
C161 O165 1.260 . S
O162 In156 2.266 . S
O162 C159 1.248 . S
O163 In156 2.326 . S
O163 C159 1.260 . S
O164 In156 2.266 . S
O164 C161 1.252 . S
O165 In156 2.326 . S
O165 C161 1.260 . S
C166 O157 1.240 . S
C166 O158 1.252 . S
O167 In156 2.294 . S
O167 C160 1.240 . S
O168 In156 2.326 . S
O168 C160 1.252 . S
In169 O170 2.294 . S
In169 O171 2.326 . S
In169 O175 2.266 . S
In169 O176 2.326 . S
In169 O177 2.266 . S
In169 O178 2.326 . S
In169 O180 2.294 . S
In169 O181 2.326 . S
O170 In169 2.294 . S
O170 C179 1.240 . S
O171 In169 2.326 . S
O171 C179 1.252 . S
C172 O175 1.252 . S
C172 O176 1.260 . S
C173 O180 1.240 . S
C173 O181 1.252 . S
C174 O177 1.252 . S
C174 O178 1.260 . S
O175 In169 2.266 . S
O175 C172 1.252 . S
O176 In169 2.326 . S
O176 C172 1.260 . S
O177 In169 2.266 . S
O177 C174 1.252 . S
O178 In169 2.326 . S
O178 C174 1.260 . S
C179 O170 1.240 . S
C179 O171 1.252 . S
O180 In169 2.294 . S
O180 C173 1.240 . S
O181 In169 2.326 . S
O181 C173 1.252 . S
In182 O183 2.294 . S
In182 O184 2.326 . S
In182 O188 2.266 . S
In182 O189 2.326 . S
In182 O190 2.266 . S
In182 O191 2.326 . S
In182 O193 2.294 . S
In182 O194 2.326 . S
O183 In182 2.294 . S
O183 C192 1.240 . S
O184 In182 2.326 . S
O184 C192 1.252 . S
C185 O188 1.252 . S
C185 O189 1.260 . S
C186 O193 1.240 . S
C186 O194 1.252 . S
C187 O190 1.252 . S
C187 O191 1.260 . S
O188 In182 2.266 . S
O188 C185 1.252 . S
O189 In182 2.326 . S
O189 C185 1.260 . S
O190 In182 2.266 . S
O190 C187 1.252 . S
O191 In182 2.326 . S
O191 C187 1.260 . S
C192 O183 1.240 . S
C192 O184 1.252 . S
O193 In182 2.294 . S
O193 C186 1.240 . S
O194 In182 2.326 . S
O194 C186 1.252 . S
In195 O196 2.294 . S
In195 O197 2.326 . S
In195 O201 2.266 . S
In195 O202 2.326 . S
In195 O203 2.266 . S
In195 O204 2.326 . S
In195 O206 2.294 . S
In195 O207 2.326 . S
O196 In195 2.294 . S
O196 C205 1.240 . S
O197 In195 2.326 . S
O197 C205 1.252 . S
C198 O201 1.252 . S
C198 O202 1.260 . S
C199 O206 1.240 . S
C199 O207 1.252 . S
C200 O203 1.252 . S
C200 O204 1.260 . S
O201 In195 2.266 . S
O201 C198 1.252 . S
O202 In195 2.326 . S
O202 C198 1.260 . S
O203 In195 2.266 . S
O203 C200 1.252 . S
O204 In195 2.326 . S
O204 C200 1.260 . S
C205 O196 1.240 . S
C205 O197 1.252 . S
O206 In195 2.294 . S
O206 C199 1.240 . S
O207 In195 2.326 . S
O207 C199 1.252 . S
In208 O209 2.294 . S
In208 O210 2.326 . S
In208 O214 2.266 . S
In208 O215 2.326 . S
In208 O216 2.266 1_545 S
In208 O217 2.326 1_545 S
In208 O219 2.294 . S
In208 O220 2.326 . S
O209 In208 2.294 . S
O209 C218 1.240 . S
O210 In208 2.326 . S
O210 C218 1.252 . S
C211 O214 1.252 . S
C211 O215 1.260 . S
C212 O219 1.240 . S
C212 O220 1.252 . S
C213 O216 1.252 . S
C213 O217 1.260 . S
O214 In208 2.266 . S
O214 C211 1.252 . S
O215 In208 2.326 . S
O215 C211 1.260 . S
O216 In208 2.266 1_565 S
O216 C213 1.252 . S
O217 In208 2.326 1_565 S
O217 C213 1.260 . S
C218 O209 1.240 . S
C218 O210 1.252 . S
O219 In208 2.294 . S
O219 C212 1.240 . S
O220 In208 2.326 . S
O220 C212 1.252 . S
In221 O222 2.294 . S
In221 O223 2.326 . S
In221 O227 2.266 . S
In221 O228 2.326 . S
In221 O229 2.266 . S
In221 O230 2.326 . S
In221 O232 2.294 . S
In221 O233 2.326 . S
O222 In221 2.294 . S
O222 C231 1.240 . S
O223 In221 2.326 . S
O223 C231 1.252 . S
C224 O227 1.252 . S
C224 O228 1.260 . S
C225 O232 1.240 . S
C225 O233 1.252 . S
C226 O229 1.252 . S
C226 O230 1.260 . S
O227 In221 2.266 . S
O227 C224 1.252 . S
O228 In221 2.326 . S
O228 C224 1.260 . S
O229 In221 2.266 . S
O229 C226 1.252 . S
O230 In221 2.326 . S
O230 C226 1.260 . S
C231 O222 1.240 . S
C231 O223 1.252 . S
O232 In221 2.294 . S
O232 C225 1.240 . S
O233 In221 2.326 . S
O233 C225 1.252 . S
In234 O235 2.294 . S
In234 O236 2.326 . S
In234 O240 2.266 . S
In234 O241 2.326 . S
In234 O242 2.266 . S
In234 O243 2.326 . S
In234 O245 2.294 . S
In234 O246 2.326 . S
O235 In234 2.294 . S
O235 C244 1.240 . S
O236 In234 2.326 . S
O236 C244 1.252 . S
C237 O240 1.252 . S
C237 O241 1.260 . S
C238 O245 1.240 . S
C238 O246 1.252 . S
C239 O242 1.252 . S
C239 O243 1.260 . S
O240 In234 2.266 . S
O240 C237 1.252 . S
O241 In234 2.326 . S
O241 C237 1.260 . S
O242 In234 2.266 . S
O242 C239 1.252 . S
O243 In234 2.326 . S
O243 C239 1.260 . S
C244 O235 1.240 . S
C244 O236 1.252 . S
O245 In234 2.294 . S
O245 C238 1.240 . S
O246 In234 2.326 . S
O246 C238 1.252 . S
In247 O248 2.294 . S
In247 O249 2.326 . S
In247 O253 2.266 . S
In247 O254 2.326 . S
In247 O255 2.266 . S
In247 O256 2.326 . S
In247 O258 2.294 . S
In247 O259 2.326 . S
O248 In247 2.294 . S
O248 C257 1.240 . S
O249 In247 2.326 . S
O249 C257 1.252 . S
C250 O253 1.252 . S
C250 O254 1.260 . S
C251 O258 1.240 . S
C251 O259 1.252 . S
C252 O255 1.252 . S
C252 O256 1.260 . S
O253 In247 2.266 . S
O253 C250 1.252 . S
O254 In247 2.326 . S
O254 C250 1.260 . S
O255 In247 2.266 . S
O255 C252 1.252 . S
O256 In247 2.326 . S
O256 C252 1.260 . S
C257 O248 1.240 . S
C257 O249 1.252 . S
O258 In247 2.294 . S
O258 C251 1.240 . S
O259 In247 2.326 . S
O259 C251 1.252 . S
In260 O261 2.294 . S
In260 O262 2.326 . S
In260 O266 2.266 . S
In260 O267 2.326 . S
In260 O268 2.266 1_554 S
In260 O269 2.326 1_554 S
In260 O271 2.294 . S
In260 O272 2.326 . S
O261 In260 2.294 . S
O261 C270 1.240 . S
O262 In260 2.326 . S
O262 C270 1.252 . S
C263 O266 1.252 . S
C263 O267 1.260 . S
C264 O271 1.240 . S
C264 O272 1.252 . S
C265 O268 1.252 . S
C265 O269 1.260 . S
O266 In260 2.266 . S
O266 C263 1.252 . S
O267 In260 2.326 . S
O267 C263 1.260 . S
O268 In260 2.266 1_556 S
O268 C265 1.252 . S
O269 In260 2.326 1_556 S
O269 C265 1.260 . S
C270 O261 1.240 . S
C270 O262 1.252 . S
O271 In260 2.294 . S
O271 C264 1.240 . S
O272 In260 2.326 . S
O272 C264 1.252 . S
In273 O274 2.294 . S
In273 O275 2.326 . S
In273 O279 2.266 . S
In273 O280 2.326 . S
In273 O281 2.266 . S
In273 O282 2.326 . S
In273 O284 2.294 . S
In273 O285 2.326 . S
O274 In273 2.294 . S
O274 C283 1.240 . S
O275 In273 2.326 . S
O275 C283 1.252 . S
C276 O279 1.252 . S
C276 O280 1.260 . S
C277 O284 1.240 . S
C277 O285 1.252 . S
C278 O281 1.252 . S
C278 O282 1.260 . S
O279 In273 2.266 . S
O279 C276 1.252 . S
O280 In273 2.326 . S
O280 C276 1.260 . S
O281 In273 2.266 . S
O281 C278 1.252 . S
O282 In273 2.326 . S
O282 C278 1.260 . S
C283 O274 1.240 . S
C283 O275 1.252 . S
O284 In273 2.294 . S
O284 C277 1.240 . S
O285 In273 2.326 . S
O285 C277 1.252 . S
In286 O287 2.294 . S
In286 O288 2.326 . S
In286 O292 2.266 . S
In286 O293 2.326 . S
In286 O294 2.266 . S
In286 O295 2.326 . S
In286 O297 2.294 . S
In286 O298 2.326 . S
O287 In286 2.294 . S
O287 C296 1.240 . S
O288 In286 2.326 . S
O288 C296 1.252 . S
C289 O292 1.252 . S
C289 O293 1.260 . S
C290 O297 1.240 . S
C290 O298 1.252 . S
C291 O294 1.252 . S
C291 O295 1.260 . S
O292 In286 2.266 . S
O292 C289 1.252 . S
O293 In286 2.326 . S
O293 C289 1.260 . S
O294 In286 2.266 . S
O294 C291 1.252 . S
O295 In286 2.326 . S
O295 C291 1.260 . S
C296 O287 1.240 . S
C296 O288 1.252 . S
O297 In286 2.294 . S
O297 C290 1.240 . S
O298 In286 2.326 . S
O298 C290 1.252 . S
In299 O300 2.294 . S
In299 O301 2.326 . S
In299 O305 2.266 . S
In299 O306 2.326 . S
In299 O307 2.266 . S
In299 O308 2.326 . S
In299 O310 2.294 . S
In299 O311 2.326 . S
O300 In299 2.294 . S
O300 C309 1.240 . S
O301 In299 2.326 . S
O301 C309 1.252 . S
C302 O305 1.252 . S
C302 O306 1.260 . S
C303 O310 1.240 . S
C303 O311 1.252 . S
C304 O307 1.252 . S
C304 O308 1.260 . S
O305 In299 2.266 . S
O305 C302 1.252 . S
O306 In299 2.326 . S
O306 C302 1.260 . S
O307 In299 2.266 . S
O307 C304 1.252 . S
O308 In299 2.326 . S
O308 C304 1.260 . S
C309 O300 1.240 . S
C309 O301 1.252 . S
O310 In299 2.294 . S
O310 C303 1.240 . S
O311 In299 2.326 . S
O311 C303 1.252 . S
Eu312 N341 2.600 . S
Eu312 N347 2.562 . S
Eu312 O356 2.462 . S
Eu312 O357 2.373 . S
Eu312 O359 2.432 . S
Eu312 O360 2.291 . S
Eu312 O364 2.335 . S
Eu312 O367 2.372 . S
Eu312 C376 2.787 . S
C313 N314 1.406 . S
C313 C316 1.405 . S
C313 C320 1.448 1_556 S
N314 C313 1.406 . S
N314 C317 1.316 . S
N314 Eu323 2.569 1_666 S
C315 C317 1.404 . S
C315 C318 1.367 . S
C315 H335 0.931 . S
C316 C313 1.405 . S
C316 C318 1.403 . S
C316 C322 1.439 . S
C317 N314 1.316 . S
C317 C315 1.404 . S
C317 H328 0.921 1_665 S
C318 C315 1.367 . S
C318 C316 1.403 . S
C318 H339 0.929 . S
C319 C320 1.430 . S
C319 C321 1.387 . S
C319 C325 1.404 . S
C320 C313 1.448 1_554 S
C320 C319 1.430 . S
C320 N324 1.351 . S
C321 C319 1.387 . S
C321 C322 1.374 1_554 S
C321 H336 0.931 . S
C322 C316 1.439 . S
C322 C321 1.374 1_556 S
C322 H337 0.931 . S
Eu323 N314 2.569 1_444 S
Eu323 N324 2.562 1_445 S
Eu323 O358 2.335 . S
Eu323 O361 2.372 1_554 S
Eu323 O362 2.462 1_455 S
Eu323 O363 2.373 . S
Eu323 O365 2.432 1_455 S
Eu323 O366 2.291 . S
Eu323 C387 2.787 1_455 S
N324 C320 1.351 . S
N324 Eu323 2.562 1_665 S
N324 C326 1.325 . S
C325 C319 1.404 . S
C325 C327 1.366 . S
C325 H333 0.930 . S
C326 N324 1.325 . S
C326 C327 1.416 . S
C326 H332 0.929 1_565 S
C327 C325 1.366 . S
C327 C326 1.416 . S
C327 H329 0.930 . S
H328 C317 0.921 1_445 S
H329 C327 0.930 . S
H330 C345 0.930 . S
H331 C352 0.930 . S
H332 C326 0.929 1_545 S
H333 C325 0.930 . S
H334 C348 0.929 . S
H335 C315 0.931 . S
H336 C321 0.931 . S
H337 C322 0.931 . S
H338 C343 0.931 . S
H339 C318 0.929 . S
H340 C351 0.930 . S
N341 Eu312 2.600 . S
N341 C342 1.365 . S
N341 C345 1.319 . S
C342 N341 1.365 . S
C342 C344 1.405 . S
C342 C350 1.448 . S
C343 H338 0.931 . S
C343 C345 1.397 . S
C343 C346 1.367 . S
C344 C342 1.405 . S
C344 C346 1.403 . S
C344 C377 1.439 . S
C345 H330 0.930 . S
C345 N341 1.319 . S
C345 C343 1.397 . S
C346 C343 1.367 . S
C346 C344 1.403 . S
C346 H353 0.929 . S
N347 Eu312 2.562 . S
N347 C348 1.325 . S
N347 C350 1.351 . S
C348 H334 0.929 . S
C348 N347 1.325 . S
C348 C352 1.416 . S
C349 C350 1.430 . S
C349 C351 1.404 . S
C349 C378 1.387 . S
C350 C342 1.448 . S
C350 N347 1.351 . S
C350 C349 1.430 . S
C351 H340 0.930 . S
C351 C349 1.404 . S
C351 C352 1.366 . S
C352 H331 0.930 . S
C352 C348 1.416 . S
C352 C351 1.366 . S
H353 C346 0.929 . S
H354 C377 0.931 . S
H355 C378 0.931 . S
O356 Eu312 2.462 . S
O356 C376 1.252 . S
O357 Eu312 2.373 . S
O357 C368 1.249 . S
O358 Eu323 2.335 . S
O358 C368 1.264 . S
O359 Eu312 2.432 . S
O359 C376 1.268 . S
O360 Eu312 2.291 . S
O360 C375 1.255 . S
O361 Eu323 2.372 1_556 S
O361 C375 1.257 1_556 S
O362 Eu323 2.462 1_655 S
O362 C387 1.252 . S
O363 Eu323 2.373 . S
O363 C379 1.249 . S
O364 Eu312 2.335 . S
O364 C379 1.264 . S
O365 Eu323 2.432 1_655 S
O365 C387 1.268 . S
O366 Eu323 2.291 . S
O366 C386 1.255 . S
O367 Eu312 2.372 . S
O367 C386 1.257 . S
C368 O357 1.249 . S
C368 O358 1.264 . S
C369 C372 1.382 . S
C369 C374 1.390 . S
C369 C376 1.506 . S
C370 C371 1.398 . S
C370 C374 1.392 . S
C371 C370 1.398 . S
C371 C373 1.372 . S
C371 H388 0.931 . S
C372 C369 1.382 . S
C372 C373 1.390 . S
C372 H389 0.931 . S
C373 C371 1.372 . S
C373 C372 1.390 . S
C373 H390 0.929 . S
C374 C369 1.390 . S
C374 C370 1.392 . S
C374 H391 0.930 . S
C375 O360 1.255 . S
C375 O361 1.257 1_554 S
C376 Eu312 2.787 . S
C376 O356 1.252 . S
C376 O359 1.268 . S
C376 C369 1.506 . S
C377 C344 1.439 . S
C377 H354 0.931 . S
C377 C378 1.374 . S
C378 C349 1.387 . S
C378 H355 0.931 . S
C378 C377 1.374 . S
C379 O363 1.249 . S
C379 O364 1.264 . S
C380 C383 1.382 1_554 S
C380 C384 1.390 . S
C380 C387 1.506 . S
C381 C382 1.398 . S
C381 C384 1.392 . S
C382 C381 1.398 . S
C382 C385 1.372 1_554 S
C382 H392 0.931 . S
C383 C380 1.382 1_556 S
C383 C385 1.390 . S
C383 H393 0.931 . S
C384 C380 1.390 . S
C384 C381 1.392 . S
C384 H394 0.930 . S
C385 C382 1.372 1_556 S
C385 C383 1.390 . S
C385 H395 0.929 . S
C386 O366 1.255 . S
C386 O367 1.257 . S
C387 Eu323 2.787 1_655 S
C387 O362 1.252 . S
C387 O365 1.268 . S
C387 C380 1.506 . S
H388 C371 0.931 . S
H389 C372 0.931 . S
H390 C373 0.929 . S
H391 C374 0.930 . S
H392 C382 0.931 . S
H393 C383 0.931 . S
H394 C384 0.930 . S
H395 C385 0.929 . S
Eu396 N425 2.600 . S
Eu396 N431 2.562 . S
Eu396 O440 2.462 . S
Eu396 O441 2.373 . S
Eu396 O443 2.432 . S
Eu396 O444 2.291 . S
Eu396 O448 2.335 . S
Eu396 O451 2.372 . S
Eu396 C460 2.787 . S
C397 N398 1.365 . S
C397 C400 1.405 . S
C397 C404 1.448 . S
N398 C397 1.365 . S
N398 C401 1.319 . S
N398 Eu407 2.600 . S
C399 C401 1.397 . S
C399 C402 1.367 . S
C399 H419 0.931 . S
C400 C397 1.405 . S
C400 C402 1.403 . S
C400 C406 1.439 . S
C401 N398 1.319 . S
C401 C399 1.397 . S
C401 H412 0.930 . S
C402 C399 1.367 . S
C402 C400 1.403 . S
C402 H423 0.929 . S
C403 C404 1.430 . S
C403 C405 1.387 . S
C403 C409 1.404 . S
C404 C397 1.448 . S
C404 C403 1.430 . S
C404 N408 1.351 . S
C405 C403 1.387 . S
C405 C406 1.374 . S
C405 H420 0.931 . S
C406 C400 1.439 . S
C406 C405 1.374 . S
C406 H421 0.931 . S
Eu407 N398 2.600 . S
Eu407 N408 2.562 . S
Eu407 O442 2.335 . S
Eu407 O445 2.372 . S
Eu407 O446 2.462 . S
Eu407 O447 2.373 . S
Eu407 O449 2.432 . S
Eu407 O450 2.291 . S
Eu407 C471 2.787 . S
N408 C404 1.351 . S
N408 Eu407 2.562 . S
N408 C410 1.325 . S
C409 C403 1.404 . S
C409 C411 1.366 . S
C409 H417 0.930 . S
C410 N408 1.325 . S
C410 C411 1.416 . S
C410 H416 0.929 . S
C411 C409 1.366 . S
C411 C410 1.416 . S
C411 H413 0.930 . S
H412 C401 0.930 . S
H413 C411 0.930 . S
H414 C429 0.930 . S
H415 C436 0.930 . S
H416 C410 0.929 . S
H417 C409 0.930 . S
H418 C432 0.929 . S
H419 C399 0.931 . S
H420 C405 0.931 . S
H421 C406 0.931 . S
H422 C427 0.931 . S
H423 C402 0.929 . S
H424 C435 0.930 . S
N425 Eu396 2.600 . S
N425 C426 1.365 . S
N425 C429 1.319 . S
C426 N425 1.365 . S
C426 C428 1.405 . S
C426 C434 1.448 . S
C427 H422 0.931 . S
C427 C429 1.397 . S
C427 C430 1.367 . S
C428 C426 1.405 . S
C428 C430 1.403 . S
C428 C461 1.439 . S
C429 H414 0.930 . S
C429 N425 1.319 . S
C429 C427 1.397 . S
C430 C427 1.367 . S
C430 C428 1.403 . S
C430 H437 0.929 . S
N431 Eu396 2.562 . S
N431 C432 1.325 . S
N431 C434 1.351 . S
C432 H418 0.929 . S
C432 N431 1.325 . S
C432 C436 1.416 . S
C433 C434 1.430 . S
C433 C435 1.404 . S
C433 C462 1.387 . S
C434 C426 1.448 . S
C434 N431 1.351 . S
C434 C433 1.430 . S
C435 H424 0.930 . S
C435 C433 1.404 . S
C435 C436 1.366 . S
C436 H415 0.930 . S
C436 C432 1.416 . S
C436 C435 1.366 . S
H437 C430 0.929 . S
H438 C461 0.931 . S
H439 C462 0.931 . S
O440 Eu396 2.462 . S
O440 C460 1.252 . S
O441 Eu396 2.373 . S
O441 C452 1.249 . S
O442 Eu407 2.335 . S
O442 C452 1.264 . S
O443 Eu396 2.432 . S
O443 C460 1.268 . S
O444 Eu396 2.291 . S
O444 C459 1.255 . S
O445 Eu407 2.372 . S
O445 C459 1.257 . S
O446 Eu407 2.462 . S
O446 C471 1.252 . S
O447 Eu407 2.373 . S
O447 C463 1.249 . S
O448 Eu396 2.335 . S
O448 C463 1.264 . S
O449 Eu407 2.432 . S
O449 C471 1.268 . S
O450 Eu407 2.291 . S
O450 C470 1.255 . S
O451 Eu396 2.372 . S
O451 C470 1.257 . S
C452 O441 1.249 . S
C452 O442 1.264 . S
C453 C456 1.382 . S
C453 C458 1.390 . S
C453 C460 1.506 . S
C454 C455 1.398 . S
C454 C458 1.392 . S
C455 C454 1.398 . S
C455 C457 1.372 . S
C455 H472 0.931 . S
C456 C453 1.382 . S
C456 C457 1.390 . S
C456 H473 0.931 . S
C457 C455 1.372 . S
C457 C456 1.390 . S
C457 H474 0.929 . S
C458 C453 1.390 . S
C458 C454 1.392 . S
C458 H475 0.930 . S
C459 O444 1.255 . S
C459 O445 1.257 . S
C460 Eu396 2.787 . S
C460 O440 1.252 . S
C460 O443 1.268 . S
C460 C453 1.506 . S
C461 C428 1.439 . S
C461 H438 0.931 . S
C461 C462 1.374 . S
C462 C433 1.387 . S
C462 H439 0.931 . S
C462 C461 1.374 . S
C463 O447 1.249 . S
C463 O448 1.264 . S
C464 C467 1.382 . S
C464 C468 1.390 . S
C464 C471 1.506 . S
C465 C466 1.398 . S
C465 C468 1.392 . S
C466 C465 1.398 . S
C466 C469 1.372 . S
C466 H476 0.931 . S
C467 C464 1.382 . S
C467 C469 1.390 . S
C467 H477 0.931 . S
C468 C464 1.390 . S
C468 C465 1.392 . S
C468 H478 0.930 . S
C469 C466 1.372 . S
C469 C467 1.390 . S
C469 H479 0.929 . S
C470 O450 1.255 . S
C470 O451 1.257 . S
C471 Eu407 2.787 . S
C471 O446 1.252 . S
C471 O449 1.268 . S
C471 C464 1.506 . S
H472 C455 0.931 . S
H473 C456 0.931 . S
H474 C457 0.929 . S
H475 C458 0.930 . S
H476 C466 0.931 . S
H477 C467 0.931 . S
H478 C468 0.930 . S
H479 C469 0.929 . S
Eu480 N509 2.600 1_545 S
Eu480 N515 2.562 1_545 S
Eu480 O524 2.462 . S
Eu480 O525 2.373 1_545 S
Eu480 O527 2.432 . S
Eu480 O528 2.291 . S
Eu480 O532 2.335 . S
Eu480 O535 2.372 . S
Eu480 C544 2.787 . S
C481 N482 1.365 . S
C481 C484 1.405 . S
C481 C488 1.448 . S
N482 C481 1.365 . S
N482 C485 1.319 . S
N482 Eu491 2.600 . S
C483 C485 1.397 . S
C483 C486 1.367 . S
C483 H503 0.931 . S
C484 C481 1.405 . S
C484 C486 1.403 . S
C484 C490 1.439 . S
C485 N482 1.319 . S
C485 C483 1.397 . S
C485 H496 0.930 . S
C486 C483 1.367 . S
C486 C484 1.403 . S
C486 H507 0.929 . S
C487 C488 1.430 . S
C487 C489 1.387 . S
C487 C493 1.404 . S
C488 C481 1.448 . S
C488 C487 1.430 . S
C488 N492 1.351 . S
C489 C487 1.387 . S
C489 C490 1.374 . S
C489 H504 0.931 . S
C490 C484 1.439 . S
C490 C489 1.374 . S
C490 H505 0.931 . S
Eu491 N482 2.600 . S
Eu491 N492 2.562 . S
Eu491 O526 2.335 1_545 S
Eu491 O529 2.372 . S
Eu491 O530 2.462 . S
Eu491 O531 2.373 . S
Eu491 O533 2.432 . S
Eu491 O534 2.291 . S
Eu491 C555 2.787 . S
N492 C488 1.351 . S
N492 Eu491 2.562 . S
N492 C494 1.325 . S
C493 C487 1.404 . S
C493 C495 1.366 . S
C493 H501 0.930 . S
C494 N492 1.325 . S
C494 C495 1.416 . S
C494 H500 0.929 . S
C495 C493 1.366 . S
C495 C494 1.416 . S
C495 H497 0.930 . S
H496 C485 0.930 . S
H497 C495 0.930 . S
H498 C513 0.930 1_545 S
H499 C520 0.930 . S
H500 C494 0.929 . S
H501 C493 0.930 . S
H502 C516 0.929 . S
H503 C483 0.931 . S
H504 C489 0.931 . S
H505 C490 0.931 . S
H506 C511 0.931 . S
H507 C486 0.929 . S
H508 C519 0.930 . S
N509 Eu480 2.600 1_565 S
N509 C510 1.365 . S
N509 C513 1.319 . S
C510 N509 1.365 . S
C510 C512 1.405 . S
C510 C518 1.448 . S
C511 H506 0.931 . S
C511 C513 1.397 . S
C511 C514 1.367 . S
C512 C510 1.405 . S
C512 C514 1.403 . S
C512 C545 1.439 . S
C513 H498 0.930 1_565 S
C513 N509 1.319 . S
C513 C511 1.397 . S
C514 C511 1.367 . S
C514 C512 1.403 . S
C514 H521 0.929 . S
N515 Eu480 2.562 1_565 S
N515 C516 1.325 . S
N515 C518 1.351 . S
C516 H502 0.929 . S
C516 N515 1.325 . S
C516 C520 1.416 . S
C517 C518 1.430 . S
C517 C519 1.404 . S
C517 C546 1.387 . S
C518 C510 1.448 . S
C518 N515 1.351 . S
C518 C517 1.430 . S
C519 H508 0.930 . S
C519 C517 1.404 . S
C519 C520 1.366 . S
C520 H499 0.930 . S
C520 C516 1.416 . S
C520 C519 1.366 . S
H521 C514 0.929 . S
H522 C545 0.931 . S
H523 C546 0.931 . S
O524 Eu480 2.462 . S
O524 C544 1.252 . S
O525 Eu480 2.373 1_565 S
O525 C536 1.249 . S
O526 Eu491 2.335 1_565 S
O526 C536 1.264 . S
O527 Eu480 2.432 . S
O527 C544 1.268 . S
O528 Eu480 2.291 . S
O528 C543 1.255 . S
O529 Eu491 2.372 . S
O529 C543 1.257 . S
O530 Eu491 2.462 . S
O530 C555 1.252 . S
O531 Eu491 2.373 . S
O531 C547 1.249 . S
O532 Eu480 2.335 . S
O532 C547 1.264 . S
O533 Eu491 2.432 . S
O533 C555 1.268 . S
O534 Eu491 2.291 . S
O534 C554 1.255 . S
O535 Eu480 2.372 . S
O535 C554 1.257 . S
C536 O525 1.249 . S
C536 O526 1.264 . S
C537 C540 1.382 . S
C537 C542 1.390 . S
C537 C544 1.506 . S
C538 C539 1.398 . S
C538 C542 1.392 . S
C539 C538 1.398 . S
C539 C541 1.372 . S
C539 H556 0.931 . S
C540 C537 1.382 . S
C540 C541 1.390 . S
C540 H557 0.931 . S
C541 C539 1.372 . S
C541 C540 1.390 . S
C541 H558 0.929 . S
C542 C537 1.390 . S
C542 C538 1.392 . S
C542 H559 0.930 . S
C543 O528 1.255 . S
C543 O529 1.257 . S
C544 Eu480 2.787 . S
C544 O524 1.252 . S
C544 O527 1.268 . S
C544 C537 1.506 . S
C545 C512 1.439 . S
C545 H522 0.931 . S
C545 C546 1.374 . S
C546 C517 1.387 . S
C546 H523 0.931 . S
C546 C545 1.374 . S
C547 O531 1.249 . S
C547 O532 1.264 . S
C548 C551 1.382 . S
C548 C552 1.390 . S
C548 C555 1.506 1_565 S
C549 C550 1.398 . S
C549 C552 1.392 . S
C550 C549 1.398 . S
C550 C553 1.372 . S
C550 H560 0.931 . S
C551 C548 1.382 . S
C551 C553 1.390 . S
C551 H561 0.931 . S
C552 C548 1.390 . S
C552 C549 1.392 . S
C552 H562 0.930 . S
C553 C550 1.372 . S
C553 C551 1.390 . S
C553 H563 0.929 . S
C554 O534 1.255 . S
C554 O535 1.257 . S
C555 Eu491 2.787 . S
C555 O530 1.252 . S
C555 O533 1.268 . S
C555 C548 1.506 1_545 S
H556 C539 0.931 . S
H557 C540 0.931 . S
H558 C541 0.929 . S
H559 C542 0.930 . S
H560 C550 0.931 . S
H561 C551 0.931 . S
H562 C552 0.930 . S
H563 C553 0.929 . S
Eu564 N593 2.600 . S
Eu564 N599 2.562 . S
Eu564 O608 2.462 . S
Eu564 O609 2.373 . S
Eu564 O611 2.432 . S
Eu564 O612 2.291 . S
Eu564 O616 2.335 . S
Eu564 O619 2.372 . S
Eu564 C628 2.787 . S
C565 N566 1.365 . S
C565 C568 1.405 . S
C565 C572 1.448 . S
N566 C565 1.365 . S
N566 C569 1.319 . S
N566 Eu575 2.600 . S
C567 C569 1.397 . S
C567 C570 1.367 . S
C567 H587 0.931 . S
C568 C565 1.405 . S
C568 C570 1.403 . S
C568 C574 1.439 . S
C569 N566 1.319 . S
C569 C567 1.397 . S
C569 H580 0.930 . S
C570 C567 1.367 . S
C570 C568 1.403 . S
C570 H591 0.929 . S
C571 C572 1.430 . S
C571 C573 1.387 . S
C571 C577 1.404 . S
C572 C565 1.448 . S
C572 C571 1.430 . S
C572 N576 1.351 . S
C573 C571 1.387 . S
C573 C574 1.374 . S
C573 H588 0.931 . S
C574 C568 1.439 . S
C574 C573 1.374 . S
C574 H589 0.931 . S
Eu575 N566 2.600 . S
Eu575 N576 2.562 . S
Eu575 O610 2.335 . S
Eu575 O613 2.372 . S
Eu575 O614 2.462 . S
Eu575 O615 2.373 . S
Eu575 O617 2.432 . S
Eu575 O618 2.291 . S
Eu575 C639 2.787 . S
N576 C572 1.351 . S
N576 Eu575 2.562 . S
N576 C578 1.325 . S
C577 C571 1.404 . S
C577 C579 1.366 . S
C577 H585 0.930 . S
C578 N576 1.325 . S
C578 C579 1.416 . S
C578 H584 0.929 . S
C579 C577 1.366 . S
C579 C578 1.416 . S
C579 H581 0.930 . S
H580 C569 0.930 . S
H581 C579 0.930 . S
H582 C597 0.930 . S
H583 C604 0.930 . S
H584 C578 0.929 . S
H585 C577 0.930 . S
H586 C600 0.929 . S
H587 C567 0.931 . S
H588 C573 0.931 . S
H589 C574 0.931 . S
H590 C595 0.931 . S
H591 C570 0.929 . S
H592 C603 0.930 . S
N593 Eu564 2.600 . S
N593 C594 1.365 . S
N593 C597 1.319 . S
C594 N593 1.365 . S
C594 C596 1.405 . S
C594 C602 1.448 . S
C595 H590 0.931 . S
C595 C597 1.397 . S
C595 C598 1.367 . S
C596 C594 1.405 . S
C596 C598 1.403 . S
C596 C629 1.439 . S
C597 H582 0.930 . S
C597 N593 1.319 . S
C597 C595 1.397 . S
C598 C595 1.367 . S
C598 C596 1.403 . S
C598 H605 0.929 . S
N599 Eu564 2.562 . S
N599 C600 1.325 . S
N599 C602 1.351 . S
C600 H586 0.929 . S
C600 N599 1.325 . S
C600 C604 1.416 . S
C601 C602 1.430 . S
C601 C603 1.404 . S
C601 C630 1.387 . S
C602 C594 1.448 . S
C602 N599 1.351 . S
C602 C601 1.430 . S
C603 H592 0.930 . S
C603 C601 1.404 . S
C603 C604 1.366 . S
C604 H583 0.930 . S
C604 C600 1.416 . S
C604 C603 1.366 . S
H605 C598 0.929 . S
H606 C629 0.931 . S
H607 C630 0.931 . S
O608 Eu564 2.462 . S
O608 C628 1.252 . S
O609 Eu564 2.373 . S
O609 C620 1.249 . S
O610 Eu575 2.335 . S
O610 C620 1.264 . S
O611 Eu564 2.432 . S
O611 C628 1.268 . S
O612 Eu564 2.291 . S
O612 C627 1.255 . S
O613 Eu575 2.372 . S
O613 C627 1.257 . S
O614 Eu575 2.462 . S
O614 C639 1.252 . S
O615 Eu575 2.373 . S
O615 C631 1.249 . S
O616 Eu564 2.335 . S
O616 C631 1.264 . S
O617 Eu575 2.432 . S
O617 C639 1.268 . S
O618 Eu575 2.291 . S
O618 C638 1.255 . S
O619 Eu564 2.372 . S
O619 C638 1.257 . S
C620 O609 1.249 . S
C620 O610 1.264 . S
C621 C624 1.382 . S
C621 C626 1.390 . S
C621 C628 1.506 . S
C622 C623 1.398 . S
C622 C626 1.392 . S
C623 C622 1.398 . S
C623 C625 1.372 . S
C623 H640 0.931 . S
C624 C621 1.382 . S
C624 C625 1.390 . S
C624 H641 0.931 . S
C625 C623 1.372 . S
C625 C624 1.390 . S
C625 H642 0.929 . S
C626 C621 1.390 . S
C626 C622 1.392 . S
C626 H643 0.930 . S
C627 O612 1.255 . S
C627 O613 1.257 . S
C628 Eu564 2.787 . S
C628 O608 1.252 . S
C628 O611 1.268 . S
C628 C621 1.506 . S
C629 C596 1.439 . S
C629 H606 0.931 . S
C629 C630 1.374 . S
C630 C601 1.387 . S
C630 H607 0.931 . S
C630 C629 1.374 . S
C631 O615 1.249 . S
C631 O616 1.264 . S
C632 C635 1.382 . S
C632 C636 1.390 . S
C632 C639 1.506 . S
C633 C634 1.398 . S
C633 C636 1.392 . S
C634 C633 1.398 . S
C634 C637 1.372 . S
C634 H644 0.931 . S
C635 C632 1.382 . S
C635 C637 1.390 . S
C635 H645 0.931 . S
C636 C632 1.390 . S
C636 C633 1.392 . S
C636 H646 0.930 . S
C637 C634 1.372 . S
C637 C635 1.390 . S
C637 H647 0.929 . S
C638 O618 1.255 . S
C638 O619 1.257 . S
C639 Eu575 2.787 . S
C639 O614 1.252 . S
C639 O617 1.268 . S
C639 C632 1.506 . S
H640 C623 0.931 . S
H641 C624 0.931 . S
H642 C625 0.929 . S
H643 C626 0.930 . S
H644 C634 0.931 . S
H645 C635 0.931 . S
H646 C636 0.930 . S
H647 C637 0.929 . S
Eu648 N677 2.600 . S
Eu648 N683 2.562 . S
Eu648 O692 2.462 . S
Eu648 O693 2.373 1_565 S
Eu648 O695 2.432 . S
Eu648 O696 2.291 . S
Eu648 O700 2.335 1_565 S
Eu648 O703 2.372 1_565 S
Eu648 C712 2.787 . S
C649 N650 1.365 . S
C649 C652 1.438 . S
C649 C656 1.448 . S
N650 C649 1.365 . S
N650 C653 1.319 1_455 S
N650 Eu659 2.600 . S
C651 C653 1.397 . S
C651 C654 1.367 . S
C651 H671 0.931 . S
C652 C649 1.438 . S
C652 C654 1.357 1_455 S
C652 C658 1.455 . S
C653 N650 1.319 1_655 S
C653 C651 1.397 . S
C653 H664 0.930 . S
C654 C651 1.367 . S
C654 C652 1.357 1_655 S
C654 H675 0.929 . S
C655 C656 1.430 . S
C655 C657 1.387 . S
C655 C661 1.404 . S
C656 C649 1.448 . S
C656 C655 1.430 . S
C656 N660 1.351 . S
C657 C655 1.387 . S
C657 C658 1.374 . S
C657 H672 0.931 . S
C658 C652 1.455 . S
C658 C657 1.374 . S
C658 H673 0.931 . S
Eu659 N650 2.600 . S
Eu659 N660 2.562 . S
Eu659 O694 2.335 . S
Eu659 O697 2.372 1_455 S
Eu659 O698 2.462 . S
Eu659 O699 2.373 . S
Eu659 O701 2.432 . S
Eu659 O702 2.291 . S
Eu659 C723 2.787 . S
N660 C656 1.351 . S
N660 Eu659 2.562 . S
N660 C662 1.325 . S
C661 C655 1.404 . S
C661 C663 1.366 . S
C661 H669 0.930 . S
C662 N660 1.325 . S
C662 C663 1.416 . S
C662 H668 0.929 . S
C663 C661 1.366 . S
C663 C662 1.416 . S
C663 H665 0.930 . S
H664 C653 0.930 . S
H665 C663 0.930 . S
H666 C681 0.930 1_545 S
H667 C688 0.930 . S
H668 C662 0.929 . S
H669 C661 0.930 . S
H670 C684 0.929 . S
H671 C651 0.931 . S
H672 C657 0.931 . S
H673 C658 0.931 . S
H674 C679 0.931 . S
H675 C654 0.929 . S
H676 C687 0.921 1_655 S
N677 Eu648 2.600 . S
N677 C678 1.365 . S
N677 C681 1.319 . S
C678 N677 1.365 . S
C678 C680 1.405 . S
C678 C686 1.448 . S
C679 H674 0.931 . S
C679 C681 1.397 . S
C679 C682 1.367 . S
C680 C678 1.405 . S
C680 C682 1.403 . S
C680 C713 1.439 . S
C681 H666 0.930 1_565 S
C681 N677 1.319 . S
C681 C679 1.397 . S
C682 C679 1.367 . S
C682 C680 1.403 . S
C682 H689 0.929 . S
N683 Eu648 2.562 . S
N683 C684 1.325 . S
N683 C686 1.351 . S
C684 H670 0.929 . S
C684 N683 1.325 . S
C684 C688 1.416 1_455 S
C685 C686 1.430 . S
C685 C687 1.404 . S
C685 C714 1.387 . S
C686 C678 1.448 . S
C686 N683 1.351 . S
C686 C685 1.430 . S
C687 H676 0.921 1_455 S
C687 C685 1.404 . S
C687 C688 1.366 1_455 S
C688 H667 0.930 . S
C688 C684 1.416 1_655 S
C688 C687 1.366 1_655 S
H689 C682 0.929 . S
H690 C713 0.931 . S
H691 C714 0.931 . S
O692 Eu648 2.462 . S
O692 C712 1.252 . S
O693 Eu648 2.373 1_545 S
O693 C704 1.249 . S
O694 Eu659 2.335 . S
O694 C704 1.264 . S
O695 Eu648 2.432 . S
O695 C712 1.268 . S
O696 Eu648 2.291 . S
O696 C711 1.255 1_465 S
O697 Eu659 2.372 1_655 S
O697 C711 1.257 . S
O698 Eu659 2.462 . S
O698 C723 1.252 . S
O699 Eu659 2.373 . S
O699 C715 1.249 . S
O700 Eu648 2.335 1_545 S
O700 C715 1.264 . S
O701 Eu659 2.432 . S
O701 C723 1.268 . S
O702 Eu659 2.291 . S
O702 C722 1.255 . S
O703 Eu648 2.372 1_545 S
O703 C722 1.257 . S
C704 O693 1.249 . S
C704 O694 1.264 . S
C705 C708 1.382 . S
C705 C710 1.390 . S
C705 C712 1.506 . S
C706 C707 1.398 . S
C706 C710 1.392 . S
C707 C706 1.398 . S
C707 C709 1.372 . S
C707 H724 0.931 . S
C708 C705 1.382 . S
C708 C709 1.390 . S
C708 H725 0.931 . S
C709 C707 1.372 . S
C709 C708 1.390 . S
C709 H726 0.929 . S
C710 C705 1.390 . S
C710 C706 1.392 . S
C710 H727 0.930 . S
C711 O696 1.255 1_645 S
C711 O697 1.257 . S
C712 Eu648 2.787 . S
C712 O692 1.252 . S
C712 O695 1.268 . S
C712 C705 1.506 . S
C713 C680 1.439 . S
C713 H690 0.931 . S
C713 C714 1.374 . S
C714 C685 1.387 . S
C714 H691 0.931 . S
C714 C713 1.374 . S
C715 O699 1.249 . S
C715 O700 1.264 . S
C716 C719 1.382 1_455 S
C716 C720 1.390 . S
C716 C723 1.506 . S
C717 C718 1.398 . S
C717 C720 1.392 . S
C718 C717 1.398 . S
C718 C721 1.372 1_455 S
C718 H728 0.931 . S
C719 C716 1.382 1_655 S
C719 C721 1.390 . S
C719 H729 0.931 . S
C720 C716 1.390 . S
C720 C717 1.392 . S
C720 H730 0.930 . S
C721 C718 1.372 1_655 S
C721 C719 1.390 . S
C721 H731 0.929 . S
C722 O702 1.255 . S
C722 O703 1.257 . S
C723 Eu659 2.787 . S
C723 O698 1.252 . S
C723 O701 1.268 . S
C723 C716 1.506 . S
H724 C707 0.931 . S
H725 C708 0.931 . S
H726 C709 0.929 . S
H727 C710 0.930 . S
H728 C718 0.931 . S
H729 C719 0.931 . S
H730 C720 0.930 . S
H731 C721 0.929 . S
Eu732 N761 2.600 . S
Eu732 N767 2.562 . S
Eu732 O776 2.462 . S
Eu732 O777 2.373 . S
Eu732 O779 2.432 . S
Eu732 O780 2.291 . S
Eu732 O784 2.335 . S
Eu732 O787 2.372 . S
Eu732 C796 2.787 . S
C733 N734 1.365 . S
C733 C736 1.405 . S
C733 C740 1.448 . S
N734 C733 1.365 . S
N734 C737 1.319 . S
N734 Eu743 2.600 . S
C735 C737 1.397 . S
C735 C738 1.367 . S
C735 H755 0.931 . S
C736 C733 1.405 . S
C736 C738 1.403 . S
C736 C742 1.439 . S
C737 N734 1.319 . S
C737 C735 1.397 . S
C737 H748 0.930 . S
C738 C735 1.367 . S
C738 C736 1.403 . S
C738 H759 0.929 . S
C739 C740 1.430 . S
C739 C741 1.387 . S
C739 C745 1.404 . S
C740 C733 1.448 . S
C740 C739 1.430 . S
C740 N744 1.351 . S
C741 C739 1.387 . S
C741 C742 1.374 . S
C741 H756 0.931 . S
C742 C736 1.439 . S
C742 C741 1.374 . S
C742 H757 0.931 . S
Eu743 N734 2.600 . S
Eu743 N744 2.562 . S
Eu743 O778 2.335 . S
Eu743 O781 2.372 . S
Eu743 O782 2.462 . S
Eu743 O783 2.373 . S
Eu743 O785 2.432 . S
Eu743 O786 2.291 . S
Eu743 C807 2.787 . S
N744 C740 1.351 . S
N744 Eu743 2.562 . S
N744 C746 1.325 . S
C745 C739 1.404 . S
C745 C747 1.366 . S
C745 H753 0.930 . S
C746 N744 1.325 . S
C746 C747 1.416 . S
C746 H752 0.929 . S
C747 C745 1.366 . S
C747 C746 1.416 . S
C747 H749 0.930 . S
H748 C737 0.930 . S
H749 C747 0.930 . S
H750 C765 0.930 . S
H751 C772 0.930 . S
H752 C746 0.929 . S
H753 C745 0.930 . S
H754 C768 0.929 . S
H755 C735 0.931 . S
H756 C741 0.931 . S
H757 C742 0.931 . S
H758 C763 0.931 . S
H759 C738 0.929 . S
H760 C771 0.930 . S
N761 Eu732 2.600 . S
N761 C762 1.365 . S
N761 C765 1.319 . S
C762 N761 1.365 . S
C762 C764 1.405 . S
C762 C770 1.448 . S
C763 H758 0.931 . S
C763 C765 1.397 . S
C763 C766 1.367 . S
C764 C762 1.405 . S
C764 C766 1.403 . S
C764 C797 1.439 . S
C765 H750 0.930 . S
C765 N761 1.319 . S
C765 C763 1.397 . S
C766 C763 1.367 . S
C766 C764 1.403 . S
C766 H773 0.929 . S
N767 Eu732 2.562 . S
N767 C768 1.325 . S
N767 C770 1.351 . S
C768 H754 0.929 . S
C768 N767 1.325 . S
C768 C772 1.416 . S
C769 C770 1.430 . S
C769 C771 1.404 . S
C769 C798 1.387 . S
C770 C762 1.448 . S
C770 N767 1.351 . S
C770 C769 1.430 . S
C771 H760 0.930 . S
C771 C769 1.404 . S
C771 C772 1.366 . S
C772 H751 0.930 . S
C772 C768 1.416 . S
C772 C771 1.366 . S
H773 C766 0.929 . S
H774 C797 0.931 . S
H775 C798 0.931 . S
O776 Eu732 2.462 . S
O776 C796 1.252 . S
O777 Eu732 2.373 . S
O777 C788 1.249 . S
O778 Eu743 2.335 . S
O778 C788 1.264 . S
O779 Eu732 2.432 . S
O779 C796 1.268 . S
O780 Eu732 2.291 . S
O780 C795 1.255 . S
O781 Eu743 2.372 . S
O781 C795 1.257 . S
O782 Eu743 2.462 . S
O782 C807 1.252 . S
O783 Eu743 2.373 . S
O783 C799 1.249 . S
O784 Eu732 2.335 . S
O784 C799 1.264 . S
O785 Eu743 2.432 . S
O785 C807 1.268 . S
O786 Eu743 2.291 . S
O786 C806 1.255 . S
O787 Eu732 2.372 . S
O787 C806 1.257 . S
C788 O777 1.249 . S
C788 O778 1.264 . S
C789 C792 1.382 . S
C789 C794 1.390 . S
C789 C796 1.506 . S
C790 C791 1.398 . S
C790 C794 1.392 . S
C791 C790 1.398 . S
C791 C793 1.372 . S
C791 H808 0.931 . S
C792 C789 1.382 . S
C792 C793 1.390 . S
C792 H809 0.931 . S
C793 C791 1.372 . S
C793 C792 1.390 . S
C793 H810 0.929 . S
C794 C789 1.390 . S
C794 C790 1.392 . S
C794 H811 0.930 . S
C795 O780 1.255 . S
C795 O781 1.257 . S
C796 Eu732 2.787 . S
C796 O776 1.252 . S
C796 O779 1.268 . S
C796 C789 1.506 . S
C797 C764 1.439 . S
C797 H774 0.931 . S
C797 C798 1.374 . S
C798 C769 1.387 . S
C798 H775 0.931 . S
C798 C797 1.374 . S
C799 O783 1.249 . S
C799 O784 1.264 . S
C800 C803 1.382 . S
C800 C804 1.390 . S
C800 C807 1.506 . S
C801 C802 1.398 . S
C801 C804 1.392 . S
C802 C801 1.398 . S
C802 C805 1.372 . S
C802 H812 0.931 . S
C803 C800 1.382 . S
C803 C805 1.390 . S
C803 H813 0.931 . S
C804 C800 1.390 . S
C804 C801 1.392 . S
C804 H814 0.930 . S
C805 C802 1.372 . S
C805 C803 1.390 . S
C805 H815 0.929 . S
C806 O786 1.255 . S
C806 O787 1.257 . S
C807 Eu743 2.787 . S
C807 O782 1.252 . S
C807 O785 1.268 . S
C807 C800 1.506 . S
H808 C791 0.931 . S
H809 C792 0.931 . S
H810 C793 0.929 . S
H811 C794 0.930 . S
H812 C802 0.931 . S
H813 C803 0.931 . S
H814 C804 0.930 . S
H815 C805 0.929 . S
Eu816 N845 2.600 . S
Eu816 N851 2.562 . S
Eu816 O860 2.462 . S
Eu816 O861 2.373 1_556 S
Eu816 O863 2.432 . S
Eu816 O864 2.291 . S
Eu816 O868 2.335 1_556 S
Eu816 O871 2.372 1_556 S
Eu816 C880 2.787 . S
C817 N818 1.365 . S
C817 C820 1.407 . S
C817 C824 1.448 . S
N818 C817 1.365 . S
N818 C821 1.319 1_545 S
N818 Eu827 2.600 . S
C819 C821 1.397 . S
C819 C822 1.367 . S
C819 H839 0.931 . S
C820 C817 1.407 . S
C820 C822 1.401 1_545 S
C820 C826 1.440 . S
C821 N818 1.319 1_565 S
C821 C819 1.397 . S
C821 H832 0.930 . S
C822 C819 1.367 . S
C822 C820 1.401 1_565 S
C822 H843 0.929 . S
C823 C824 1.430 . S
C823 C825 1.387 . S
C823 C829 1.404 . S
C824 C817 1.448 . S
C824 C823 1.430 . S
C824 N828 1.351 . S
C825 C823 1.387 . S
C825 C826 1.374 . S
C825 H840 0.931 . S
C826 C820 1.440 . S
C826 C825 1.374 . S
C826 H841 0.931 . S
Eu827 N818 2.600 . S
Eu827 N828 2.562 . S
Eu827 O862 2.335 . S
Eu827 O865 2.365 1_545 S
Eu827 O866 2.462 . S
Eu827 O867 2.373 . S
Eu827 O869 2.430 1_545 S
Eu827 O870 2.291 . S
Eu827 C891 2.787 . S
N828 C824 1.351 . S
N828 Eu827 2.562 . S
N828 C830 1.325 . S
C829 C823 1.404 . S
C829 C831 1.366 . S
C829 H837 0.930 . S
C830 N828 1.325 . S
C830 C831 1.416 . S
C830 H836 0.929 . S
C831 C829 1.366 . S
C831 C830 1.416 . S
C831 H833 0.930 . S
H832 C821 0.930 . S
H833 C831 0.930 . S
H834 C849 0.930 . S
H835 C856 0.930 1_565 S
H836 C830 0.929 . S
H837 C829 0.930 . S
H838 C852 0.929 . S
H839 C819 0.931 . S
H840 C825 0.931 . S
H841 C826 0.931 . S
H842 C847 0.931 . S
H843 C822 0.929 . S
H844 C855 0.930 . S
N845 Eu816 2.600 . S
N845 C846 1.365 . S
N845 C849 1.319 . S
C846 N845 1.365 . S
C846 C848 1.405 . S
C846 C854 1.448 . S
C847 H842 0.931 . S
C847 C849 1.397 . S
C847 C850 1.367 . S
C848 C846 1.405 . S
C848 C850 1.403 . S
C848 C881 1.439 . S
C849 H834 0.930 . S
C849 N845 1.319 . S
C849 C847 1.397 . S
C850 C847 1.367 . S
C850 C848 1.403 . S
C850 H857 0.929 . S
N851 Eu816 2.562 . S
N851 C852 1.325 . S
N851 C854 1.351 . S
C852 H838 0.929 . S
C852 N851 1.325 . S
C852 C856 1.416 . S
C853 C854 1.430 . S
C853 C855 1.404 . S
C853 C882 1.387 . S
C854 C846 1.448 . S
C854 N851 1.351 . S
C854 C853 1.430 . S
C855 H844 0.930 . S
C855 C853 1.404 . S
C855 C856 1.366 . S
C856 H835 0.930 1_545 S
C856 C852 1.416 . S
C856 C855 1.366 . S
H857 C850 0.929 . S
H858 C881 0.931 . S
H859 C882 0.931 . S
O860 Eu816 2.462 . S
O860 C880 1.252 . S
O861 Eu816 2.373 1_554 S
O861 C872 1.249 . S
O862 Eu827 2.335 . S
O862 C872 1.264 . S
O863 Eu816 2.432 . S
O863 C880 1.268 . S
O864 Eu816 2.291 . S
O864 C879 1.255 . S
O865 Eu827 2.365 1_565 S
O865 C879 1.253 1_564 S
O866 Eu827 2.462 . S
O866 C891 1.252 . S
O867 Eu827 2.373 . S
O867 C883 1.249 . S
O868 Eu816 2.335 1_554 S
O868 C883 1.264 . S
O869 Eu827 2.430 1_565 S
O869 C891 1.266 1_565 S
O870 Eu827 2.291 . S
O870 C890 1.255 . S
O871 Eu816 2.372 1_554 S
O871 C890 1.257 . S
C872 O861 1.249 . S
C872 O862 1.264 . S
C873 C876 1.382 . S
C873 C878 1.390 . S
C873 C880 1.506 . S
C874 C875 1.398 . S
C874 C878 1.392 . S
C875 C874 1.398 . S
C875 C877 1.372 . S
C875 H892 0.931 . S
C876 C873 1.382 . S
C876 C877 1.390 . S
C876 H893 0.931 . S
C877 C875 1.372 . S
C877 C876 1.390 . S
C877 H894 0.929 . S
C878 C873 1.390 . S
C878 C874 1.392 . S
C878 H895 0.930 . S
C879 O864 1.255 . S
C879 O865 1.253 1_546 S
C880 Eu816 2.787 . S
C880 O860 1.252 . S
C880 O863 1.268 . S
C880 C873 1.506 . S
C881 C848 1.439 . S
C881 H858 0.931 . S
C881 C882 1.374 . S
C882 C853 1.387 . S
C882 H859 0.931 . S
C882 C881 1.374 . S
C883 O867 1.249 . S
C883 O868 1.264 . S
C884 C887 1.382 1_545 S
C884 C888 1.390 . S
C884 C891 1.506 . S
C885 C886 1.398 1_545 S
C885 C888 1.392 . S
C886 C885 1.398 1_565 S
C886 C889 1.372 . S
C886 H896 0.931 . S
C887 C884 1.382 1_565 S
C887 C889 1.390 . S
C887 H897 0.931 . S
C888 C884 1.390 . S
C888 C885 1.392 . S
C888 H898 0.930 . S
C889 C886 1.372 . S
C889 C887 1.390 . S
C889 H899 0.929 . S
C890 O870 1.255 . S
C890 O871 1.257 . S
C891 Eu827 2.787 . S
C891 O866 1.252 . S
C891 O869 1.266 1_545 S
C891 C884 1.506 . S
H892 C875 0.931 . S
H893 C876 0.931 . S
H894 C877 0.929 . S
H895 C878 0.930 . S
H896 C886 0.931 . S
H897 C887 0.931 . S
H898 C888 0.930 . S
H899 C889 0.929 . S
Eu900 N929 2.600 . S
Eu900 N935 2.562 . S
Eu900 O944 2.462 . S
Eu900 O945 2.373 . S
Eu900 O947 2.432 . S
Eu900 O948 2.291 . S
Eu900 O952 2.335 . S
Eu900 O955 2.372 . S
Eu900 C964 2.787 . S
C901 N902 1.365 . S
C901 C904 1.405 . S
C901 C908 1.448 . S
N902 C901 1.365 . S
N902 C905 1.319 . S
N902 Eu911 2.600 . S
C903 C905 1.397 . S
C903 C906 1.367 . S
C903 H923 0.931 . S
C904 C901 1.405 . S
C904 C906 1.403 . S
C904 C910 1.439 . S
C905 N902 1.319 . S
C905 C903 1.397 . S
C905 H916 0.930 . S
C906 C903 1.367 . S
C906 C904 1.403 . S
C906 H927 0.929 . S
C907 C908 1.430 . S
C907 C909 1.387 . S
C907 C913 1.404 . S
C908 C901 1.448 . S
C908 C907 1.430 . S
C908 N912 1.351 . S
C909 C907 1.387 . S
C909 C910 1.374 . S
C909 H924 0.931 . S
C910 C904 1.439 . S
C910 C909 1.374 . S
C910 H925 0.931 . S
Eu911 N902 2.600 . S
Eu911 N912 2.562 . S
Eu911 O946 2.335 . S
Eu911 O949 2.372 . S
Eu911 O950 2.462 . S
Eu911 O951 2.373 . S
Eu911 O953 2.432 . S
Eu911 O954 2.291 . S
Eu911 C975 2.787 . S
N912 C908 1.351 . S
N912 Eu911 2.562 . S
N912 C914 1.325 . S
C913 C907 1.404 . S
C913 C915 1.366 . S
C913 H921 0.930 . S
C914 N912 1.325 . S
C914 C915 1.416 . S
C914 H920 0.929 . S
C915 C913 1.366 . S
C915 C914 1.416 . S
C915 H917 0.930 . S
H916 C905 0.930 . S
H917 C915 0.930 . S
H918 C933 0.930 . S
H919 C940 0.930 . S
H920 C914 0.929 . S
H921 C913 0.930 . S
H922 C936 0.929 . S
H923 C903 0.931 . S
H924 C909 0.931 . S
H925 C910 0.931 . S
H926 C931 0.931 . S
H927 C906 0.929 . S
H928 C939 0.930 . S
N929 Eu900 2.600 . S
N929 C930 1.365 . S
N929 C933 1.319 . S
C930 N929 1.365 . S
C930 C932 1.405 . S
C930 C938 1.448 . S
C931 H926 0.931 . S
C931 C933 1.397 . S
C931 C934 1.367 . S
C932 C930 1.405 . S
C932 C934 1.403 . S
C932 C965 1.439 . S
C933 H918 0.930 . S
C933 N929 1.319 . S
C933 C931 1.397 . S
C934 C931 1.367 . S
C934 C932 1.403 . S
C934 H941 0.929 . S
N935 Eu900 2.562 . S
N935 C936 1.325 . S
N935 C938 1.351 . S
C936 H922 0.929 . S
C936 N935 1.325 . S
C936 C940 1.416 . S
C937 C938 1.430 . S
C937 C939 1.404 . S
C937 C966 1.387 . S
C938 C930 1.448 . S
C938 N935 1.351 . S
C938 C937 1.430 . S
C939 H928 0.930 . S
C939 C937 1.404 . S
C939 C940 1.366 . S
C940 H919 0.930 . S
C940 C936 1.416 . S
C940 C939 1.366 . S
H941 C934 0.929 . S
H942 C965 0.931 . S
H943 C966 0.931 . S
O944 Eu900 2.462 . S
O944 C964 1.252 . S
O945 Eu900 2.373 . S
O945 C956 1.249 . S
O946 Eu911 2.335 . S
O946 C956 1.264 . S
O947 Eu900 2.432 . S
O947 C964 1.268 . S
O948 Eu900 2.291 . S
O948 C963 1.255 . S
O949 Eu911 2.372 . S
O949 C963 1.257 . S
O950 Eu911 2.462 . S
O950 C975 1.252 . S
O951 Eu911 2.373 . S
O951 C967 1.249 . S
O952 Eu900 2.335 . S
O952 C967 1.264 . S
O953 Eu911 2.432 . S
O953 C975 1.268 . S
O954 Eu911 2.291 . S
O954 C974 1.255 . S
O955 Eu900 2.372 . S
O955 C974 1.257 . S
C956 O945 1.249 . S
C956 O946 1.264 . S
C957 C960 1.382 . S
C957 C962 1.390 . S
C957 C964 1.506 . S
C958 C959 1.398 . S
C958 C962 1.392 . S
C959 C958 1.398 . S
C959 C961 1.372 . S
C959 H976 0.931 . S
C960 C957 1.382 . S
C960 C961 1.390 . S
C960 H977 0.931 . S
C961 C959 1.372 . S
C961 C960 1.390 . S
C961 H978 0.929 . S
C962 C957 1.390 . S
C962 C958 1.392 . S
C962 H979 0.930 . S
C963 O948 1.255 . S
C963 O949 1.257 . S
C964 Eu900 2.787 . S
C964 O944 1.252 . S
C964 O947 1.268 . S
C964 C957 1.506 . S
C965 C932 1.439 . S
C965 H942 0.931 . S
C965 C966 1.374 . S
C966 C937 1.387 . S
C966 H943 0.931 . S
C966 C965 1.374 . S
C967 O951 1.249 . S
C967 O952 1.264 . S
C968 C971 1.382 . S
C968 C972 1.390 . S
C968 C975 1.506 . S
C969 C970 1.398 . S
C969 C972 1.392 . S
C970 C969 1.398 . S
C970 C973 1.372 . S
C970 H980 0.931 . S
C971 C968 1.382 . S
C971 C973 1.390 . S
C971 H981 0.931 . S
C972 C968 1.390 . S
C972 C969 1.392 . S
C972 H982 0.930 . S
C973 C970 1.372 . S
C973 C971 1.390 . S
C973 H983 0.929 . S
C974 O954 1.255 . S
C974 O955 1.257 . S
C975 Eu911 2.787 . S
C975 O950 1.252 . S
C975 O953 1.268 . S
C975 C968 1.506 . S
H976 C959 0.931 . S
H977 C960 0.931 . S
H978 C961 0.929 . S
H979 C962 0.930 . S
H980 C970 0.931 . S
H981 C971 0.931 . S
H982 C972 0.930 . S
H983 C973 0.929 . S
Eu984 N1013 2.600 1_554 S
Eu984 N1019 2.562 1_554 S
Eu984 O1028 2.462 . S
Eu984 O1029 2.373 1_554 S
Eu984 O1031 2.432 . S
Eu984 O1032 2.291 . S
Eu984 O1036 2.335 . S
Eu984 O1039 2.372 . S
Eu984 C1048 2.787 . S
C985 N986 1.365 . S
C985 C988 1.405 . S
C985 C992 1.448 . S
N986 C985 1.365 . S
N986 C989 1.319 . S
N986 Eu995 2.600 . S
C987 C989 1.397 . S
C987 C990 1.367 . S
C987 H1007 0.931 . S
C988 C985 1.405 . S
C988 C990 1.403 . S
C988 C994 1.439 . S
C989 N986 1.319 . S
C989 C987 1.397 . S
C989 H1000 0.930 . S
C990 C987 1.367 . S
C990 C988 1.403 . S
C990 H1011 0.929 . S
C991 C992 1.430 . S
C991 C993 1.387 . S
C991 C997 1.404 . S
C992 C985 1.448 . S
C992 C991 1.430 . S
C992 N996 1.351 . S
C993 C991 1.387 . S
C993 C994 1.374 . S
C993 H1008 0.931 . S
C994 C988 1.439 . S
C994 C993 1.374 . S
C994 H1009 0.931 . S
Eu995 N986 2.600 . S
Eu995 N996 2.562 . S
Eu995 O1030 2.335 1_554 S
Eu995 O1033 2.372 . S
Eu995 O1034 2.462 . S
Eu995 O1035 2.373 . S
Eu995 O1037 2.432 . S
Eu995 O1038 2.291 . S
Eu995 C1059 2.787 . S
N996 C992 1.351 . S
N996 Eu995 2.562 . S
N996 C998 1.325 . S
C997 C991 1.404 . S
C997 C999 1.366 . S
C997 H1005 0.930 . S
C998 N996 1.325 . S
C998 C999 1.416 . S
C998 H1004 0.929 . S
C999 C997 1.366 . S
C999 C998 1.416 . S
C999 H1001 0.930 . S
H1000 C989 0.930 . S
H1001 C999 0.930 . S
H1002 C1017 0.930 . S
H1003 C1024 0.930 . S
H1004 C998 0.929 . S
H1005 C997 0.930 . S
H1006 C1020 0.929 . S
H1007 C987 0.931 . S
H1008 C993 0.931 . S
H1009 C994 0.931 . S
H1010 C1015 0.931 . S
H1011 C990 0.929 . S
H1012 C1023 0.930 . S
N1013 Eu984 2.600 1_556 S
N1013 C1014 1.365 . S
N1013 C1017 1.319 . S
C1014 N1013 1.365 . S
C1014 C1016 1.405 . S
C1014 C1022 1.448 . S
C1015 H1010 0.931 . S
C1015 C1017 1.397 . S
C1015 C1018 1.367 . S
C1016 C1014 1.405 . S
C1016 C1018 1.403 . S
C1016 C1049 1.439 . S
C1017 H1002 0.930 . S
C1017 N1013 1.319 . S
C1017 C1015 1.397 . S
C1018 C1015 1.367 . S
C1018 C1016 1.403 . S
C1018 H1025 0.929 . S
N1019 Eu984 2.562 1_556 S
N1019 C1020 1.325 . S
N1019 C1022 1.351 . S
C1020 H1006 0.929 . S
C1020 N1019 1.325 . S
C1020 C1024 1.416 . S
C1021 C1022 1.430 . S
C1021 C1023 1.404 . S
C1021 C1050 1.387 . S
C1022 C1014 1.448 . S
C1022 N1019 1.351 . S
C1022 C1021 1.430 . S
C1023 H1012 0.930 . S
C1023 C1021 1.404 . S
C1023 C1024 1.366 . S
C1024 H1003 0.930 . S
C1024 C1020 1.416 . S
C1024 C1023 1.366 . S
H1025 C1018 0.929 . S
H1026 C1049 0.931 . S
H1027 C1050 0.931 . S
O1028 Eu984 2.462 . S
O1028 C1048 1.252 . S
O1029 Eu984 2.373 1_556 S
O1029 C1040 1.249 . S
O1030 Eu995 2.335 1_556 S
O1030 C1040 1.264 . S
O1031 Eu984 2.432 . S
O1031 C1048 1.268 . S
O1032 Eu984 2.291 . S
O1032 C1047 1.255 . S
O1033 Eu995 2.372 . S
O1033 C1047 1.257 . S
O1034 Eu995 2.462 . S
O1034 C1059 1.252 . S
O1035 Eu995 2.373 . S
O1035 C1051 1.249 . S
O1036 Eu984 2.335 . S
O1036 C1051 1.264 . S
O1037 Eu995 2.432 . S
O1037 C1059 1.268 . S
O1038 Eu995 2.291 . S
O1038 C1058 1.255 . S
O1039 Eu984 2.372 . S
O1039 C1058 1.257 . S
C1040 O1029 1.249 . S
C1040 O1030 1.264 . S
C1041 C1044 1.382 . S
C1041 C1046 1.390 . S
C1041 C1048 1.506 . S
C1042 C1043 1.398 . S
C1042 C1046 1.392 . S
C1043 C1042 1.398 . S
C1043 C1045 1.372 . S
C1043 H1060 0.931 . S
C1044 C1041 1.382 . S
C1044 C1045 1.390 . S
C1044 H1061 0.931 . S
C1045 C1043 1.372 . S
C1045 C1044 1.390 . S
C1045 H1062 0.929 . S
C1046 C1041 1.390 . S
C1046 C1042 1.392 . S
C1046 H1063 0.930 . S
C1047 O1032 1.255 . S
C1047 O1033 1.257 . S
C1048 Eu984 2.787 . S
C1048 O1028 1.252 . S
C1048 O1031 1.268 . S
C1048 C1041 1.506 . S
C1049 C1016 1.439 . S
C1049 H1026 0.931 . S
C1049 C1050 1.374 . S
C1050 C1021 1.387 . S
C1050 H1027 0.931 . S
C1050 C1049 1.374 . S
C1051 O1035 1.249 . S
C1051 O1036 1.264 . S
C1052 C1055 1.382 . S
C1052 C1056 1.390 . S
C1052 C1059 1.506 1_556 S
C1053 C1054 1.398 . S
C1053 C1056 1.392 . S
C1054 C1053 1.398 . S
C1054 C1057 1.372 . S
C1054 H1064 0.931 . S
C1055 C1052 1.382 . S
C1055 C1057 1.390 . S
C1055 H1065 0.931 . S
C1056 C1052 1.390 . S
C1056 C1053 1.392 . S
C1056 H1066 0.930 . S
C1057 C1054 1.372 . S
C1057 C1055 1.390 . S
C1057 H1067 0.929 . S
C1058 O1038 1.255 . S
C1058 O1039 1.257 . S
C1059 Eu995 2.787 . S
C1059 O1034 1.252 . S
C1059 O1037 1.268 . S
C1059 C1052 1.506 1_554 S
H1060 C1043 0.931 . S
H1061 C1044 0.931 . S
H1062 C1045 0.929 . S
H1063 C1046 0.930 . S
H1064 C1054 0.931 . S
H1065 C1055 0.931 . S
H1066 C1056 0.930 . S
H1067 C1057 0.929 . S
Eu1068 N1097 2.600 . S
Eu1068 N1103 2.562 . S
Eu1068 O1112 2.462 . S
Eu1068 O1113 2.373 . S
Eu1068 O1115 2.432 . S
Eu1068 O1116 2.291 . S
Eu1068 O1120 2.335 . S
Eu1068 O1123 2.372 . S
Eu1068 C1132 2.787 . S
C1069 N1070 1.365 . S
C1069 C1072 1.405 . S
C1069 C1076 1.448 . S
N1070 C1069 1.365 . S
N1070 C1073 1.319 . S
N1070 Eu1079 2.600 . S
C1071 C1073 1.397 . S
C1071 C1074 1.367 . S
C1071 H1091 0.931 . S
C1072 C1069 1.405 . S
C1072 C1074 1.403 . S
C1072 C1078 1.439 . S
C1073 N1070 1.319 . S
C1073 C1071 1.397 . S
C1073 H1084 0.930 . S
C1074 C1071 1.367 . S
C1074 C1072 1.403 . S
C1074 H1095 0.929 . S
C1075 C1076 1.430 . S
C1075 C1077 1.387 . S
C1075 C1081 1.404 . S
C1076 C1069 1.448 . S
C1076 C1075 1.430 . S
C1076 N1080 1.351 . S
C1077 C1075 1.387 . S
C1077 C1078 1.374 . S
C1077 H1092 0.931 . S
C1078 C1072 1.439 . S
C1078 C1077 1.374 . S
C1078 H1093 0.931 . S
Eu1079 N1070 2.600 . S
Eu1079 N1080 2.562 . S
Eu1079 O1114 2.335 . S
Eu1079 O1117 2.372 . S
Eu1079 O1118 2.462 . S
Eu1079 O1119 2.373 . S
Eu1079 O1121 2.432 . S
Eu1079 O1122 2.291 . S
Eu1079 C1143 2.787 . S
N1080 C1076 1.351 . S
N1080 Eu1079 2.562 . S
N1080 C1082 1.325 . S
C1081 C1075 1.404 . S
C1081 C1083 1.366 . S
C1081 H1089 0.930 . S
C1082 N1080 1.325 . S
C1082 C1083 1.416 . S
C1082 H1088 0.929 . S
C1083 C1081 1.366 . S
C1083 C1082 1.416 . S
C1083 H1085 0.930 . S
H1084 C1073 0.930 . S
H1085 C1083 0.930 . S
H1086 C1101 0.930 . S
H1087 C1108 0.930 . S
H1088 C1082 0.929 . S
H1089 C1081 0.930 . S
H1090 C1104 0.929 . S
H1091 C1071 0.931 . S
H1092 C1077 0.931 . S
H1093 C1078 0.931 . S
H1094 C1099 0.931 . S
H1095 C1074 0.929 . S
H1096 C1107 0.930 . S
N1097 Eu1068 2.600 . S
N1097 C1098 1.365 . S
N1097 C1101 1.319 . S
C1098 N1097 1.365 . S
C1098 C1100 1.405 . S
C1098 C1106 1.448 . S
C1099 H1094 0.931 . S
C1099 C1101 1.397 . S
C1099 C1102 1.367 . S
C1100 C1098 1.405 . S
C1100 C1102 1.403 . S
C1100 C1133 1.439 . S
C1101 H1086 0.930 . S
C1101 N1097 1.319 . S
C1101 C1099 1.397 . S
C1102 C1099 1.367 . S
C1102 C1100 1.403 . S
C1102 H1109 0.929 . S
N1103 Eu1068 2.562 . S
N1103 C1104 1.325 . S
N1103 C1106 1.351 . S
C1104 H1090 0.929 . S
C1104 N1103 1.325 . S
C1104 C1108 1.416 . S
C1105 C1106 1.430 . S
C1105 C1107 1.404 . S
C1105 C1134 1.387 . S
C1106 C1098 1.448 . S
C1106 N1103 1.351 . S
C1106 C1105 1.430 . S
C1107 H1096 0.930 . S
C1107 C1105 1.404 . S
C1107 C1108 1.366 . S
C1108 H1087 0.930 . S
C1108 C1104 1.416 . S
C1108 C1107 1.366 . S
H1109 C1102 0.929 . S
H1110 C1133 0.931 . S
H1111 C1134 0.931 . S
O1112 Eu1068 2.462 . S
O1112 C1132 1.252 . S
O1113 Eu1068 2.373 . S
O1113 C1124 1.249 . S
O1114 Eu1079 2.335 . S
O1114 C1124 1.264 . S
O1115 Eu1068 2.432 . S
O1115 C1132 1.268 . S
O1116 Eu1068 2.291 . S
O1116 C1131 1.255 . S
O1117 Eu1079 2.372 . S
O1117 C1131 1.257 . S
O1118 Eu1079 2.462 . S
O1118 C1143 1.252 . S
O1119 Eu1079 2.373 . S
O1119 C1135 1.249 . S
O1120 Eu1068 2.335 . S
O1120 C1135 1.264 . S
O1121 Eu1079 2.432 . S
O1121 C1143 1.268 . S
O1122 Eu1079 2.291 . S
O1122 C1142 1.255 . S
O1123 Eu1068 2.372 . S
O1123 C1142 1.257 . S
C1124 O1113 1.249 . S
C1124 O1114 1.264 . S
C1125 C1128 1.382 . S
C1125 C1130 1.390 . S
C1125 C1132 1.506 . S
C1126 C1127 1.398 . S
C1126 C1130 1.392 . S
C1127 C1126 1.398 . S
C1127 C1129 1.372 . S
C1127 H1144 0.931 . S
C1128 C1125 1.382 . S
C1128 C1129 1.390 . S
C1128 H1145 0.931 . S
C1129 C1127 1.372 . S
C1129 C1128 1.390 . S
C1129 H1146 0.929 . S
C1130 C1125 1.390 . S
C1130 C1126 1.392 . S
C1130 H1147 0.930 . S
C1131 O1116 1.255 . S
C1131 O1117 1.257 . S
C1132 Eu1068 2.787 . S
C1132 O1112 1.252 . S
C1132 O1115 1.268 . S
C1132 C1125 1.506 . S
C1133 C1100 1.439 . S
C1133 H1110 0.931 . S
C1133 C1134 1.374 . S
C1134 C1105 1.387 . S
C1134 H1111 0.931 . S
C1134 C1133 1.374 . S
C1135 O1119 1.249 . S
C1135 O1120 1.264 . S
C1136 C1139 1.382 . S
C1136 C1140 1.390 . S
C1136 C1143 1.506 . S
C1137 C1138 1.398 . S
C1137 C1140 1.392 . S
C1138 C1137 1.398 . S
C1138 C1141 1.372 . S
C1138 H1148 0.931 . S
C1139 C1136 1.382 . S
C1139 C1141 1.390 . S
C1139 H1149 0.931 . S
C1140 C1136 1.390 . S
C1140 C1137 1.392 . S
C1140 H1150 0.930 . S
C1141 C1138 1.372 . S
C1141 C1139 1.390 . S
C1141 H1151 0.929 . S
C1142 O1122 1.255 . S
C1142 O1123 1.257 . S
C1143 Eu1079 2.787 . S
C1143 O1118 1.252 . S
C1143 O1121 1.268 . S
C1143 C1136 1.506 . S
H1144 C1127 0.931 . S
H1145 C1128 0.931 . S
H1146 C1129 0.929 . S
H1147 C1130 0.930 . S
H1148 C1138 0.931 . S
H1149 C1139 0.931 . S
H1150 C1140 0.930 . S
H1151 C1141 0.929 . S
Eu1152 N1181 2.600 1_455 S
Eu1152 N1187 2.562 1_455 S
Eu1152 O1196 2.462 . S
Eu1152 O1197 2.373 1_455 S
Eu1152 O1199 2.432 . S
Eu1152 O1200 2.291 . S
Eu1152 O1204 2.335 . S
Eu1152 O1207 2.372 . S
Eu1152 C1216 2.787 . S
C1153 N1154 1.365 . S
C1153 C1156 1.405 . S
C1153 C1160 1.448 . S
N1154 C1153 1.365 . S
N1154 C1157 1.319 . S
N1154 Eu1163 2.600 . S
C1155 C1157 1.397 . S
C1155 C1158 1.367 . S
C1155 H1175 0.931 . S
C1156 C1153 1.405 . S
C1156 C1158 1.403 . S
C1156 C1162 1.439 . S
C1157 N1154 1.319 . S
C1157 C1155 1.397 . S
C1157 H1168 0.930 . S
C1158 C1155 1.367 . S
C1158 C1156 1.403 . S
C1158 H1179 0.929 . S
C1159 C1160 1.430 . S
C1159 C1161 1.387 . S
C1159 C1165 1.404 . S
C1160 C1153 1.448 . S
C1160 C1159 1.430 . S
C1160 N1164 1.351 . S
C1161 C1159 1.387 . S
C1161 C1162 1.374 . S
C1161 H1176 0.931 . S
C1162 C1156 1.439 . S
C1162 C1161 1.374 . S
C1162 H1177 0.931 . S
Eu1163 N1154 2.600 . S
Eu1163 N1164 2.562 . S
Eu1163 O1198 2.335 1_455 S
Eu1163 O1201 2.372 . S
Eu1163 O1202 2.462 . S
Eu1163 O1203 2.373 . S
Eu1163 O1205 2.432 . S
Eu1163 O1206 2.291 . S
Eu1163 C1227 2.787 1_455 S
N1164 C1160 1.351 . S
N1164 Eu1163 2.562 . S
N1164 C1166 1.325 . S
C1165 C1159 1.404 . S
C1165 C1167 1.366 . S
C1165 H1173 0.930 . S
C1166 N1164 1.325 . S
C1166 C1167 1.416 . S
C1166 H1172 0.929 . S
C1167 C1165 1.366 . S
C1167 C1166 1.416 . S
C1167 H1169 0.930 . S
H1168 C1157 0.930 . S
H1169 C1167 0.930 . S
H1170 C1185 0.930 1_455 S
H1171 C1192 0.930 . S
H1172 C1166 0.929 . S
H1173 C1165 0.930 . S
H1174 C1188 0.929 . S
H1175 C1155 0.931 . S
H1176 C1161 0.931 . S
H1177 C1162 0.931 . S
H1178 C1183 0.931 . S
H1179 C1158 0.929 . S
H1180 C1191 0.930 . S
N1181 Eu1152 2.600 1_655 S
N1181 C1182 1.365 . S
N1181 C1185 1.319 . S
C1182 N1181 1.365 . S
C1182 C1184 1.405 . S
C1182 C1190 1.448 . S
C1183 H1178 0.931 . S
C1183 C1185 1.397 . S
C1183 C1186 1.367 . S
C1184 C1182 1.405 . S
C1184 C1186 1.403 . S
C1184 C1217 1.439 . S
C1185 H1170 0.930 1_655 S
C1185 N1181 1.319 . S
C1185 C1183 1.397 . S
C1186 C1183 1.367 . S
C1186 C1184 1.403 . S
C1186 H1193 0.929 . S
N1187 Eu1152 2.562 1_655 S
N1187 C1188 1.325 . S
N1187 C1190 1.351 . S
C1188 H1174 0.929 . S
C1188 N1187 1.325 . S
C1188 C1192 1.416 . S
C1189 C1190 1.430 . S
C1189 C1191 1.404 . S
C1189 C1218 1.387 . S
C1190 C1182 1.448 . S
C1190 N1187 1.351 . S
C1190 C1189 1.430 . S
C1191 H1180 0.930 . S
C1191 C1189 1.404 . S
C1191 C1192 1.366 . S
C1192 H1171 0.930 . S
C1192 C1188 1.416 . S
C1192 C1191 1.366 . S
H1193 C1186 0.929 . S
H1194 C1217 0.931 . S
H1195 C1218 0.931 . S
O1196 Eu1152 2.462 . S
O1196 C1216 1.252 . S
O1197 Eu1152 2.373 1_655 S
O1197 C1208 1.249 . S
O1198 Eu1163 2.335 1_655 S
O1198 C1208 1.264 . S
O1199 Eu1152 2.432 . S
O1199 C1216 1.268 . S
O1200 Eu1152 2.291 . S
O1200 C1215 1.255 . S
O1201 Eu1163 2.372 . S
O1201 C1215 1.257 . S
O1202 Eu1163 2.462 . S
O1202 C1227 1.252 1_455 S
O1203 Eu1163 2.373 . S
O1203 C1219 1.249 . S
O1204 Eu1152 2.335 . S
O1204 C1219 1.264 . S
O1205 Eu1163 2.432 . S
O1205 C1227 1.268 1_455 S
O1206 Eu1163 2.291 . S
O1206 C1226 1.255 . S
O1207 Eu1152 2.372 . S
O1207 C1226 1.257 . S
C1208 O1197 1.249 . S
C1208 O1198 1.264 . S
C1209 C1212 1.382 . S
C1209 C1214 1.390 . S
C1209 C1216 1.506 . S
C1210 C1211 1.398 . S
C1210 C1214 1.392 . S
C1211 C1210 1.398 . S
C1211 C1213 1.372 . S
C1211 H1228 0.931 . S
C1212 C1209 1.382 . S
C1212 C1213 1.390 . S
C1212 H1229 0.931 . S
C1213 C1211 1.372 . S
C1213 C1212 1.390 . S
C1213 H1230 0.929 . S
C1214 C1209 1.390 . S
C1214 C1210 1.392 . S
C1214 H1231 0.930 . S
C1215 O1200 1.255 . S
C1215 O1201 1.257 . S
C1216 Eu1152 2.787 . S
C1216 O1196 1.252 . S
C1216 O1199 1.268 . S
C1216 C1209 1.506 . S
C1217 C1184 1.439 . S
C1217 H1194 0.931 . S
C1217 C1218 1.374 . S
C1218 C1189 1.387 . S
C1218 H1195 0.931 . S
C1218 C1217 1.374 . S
C1219 O1203 1.249 . S
C1219 O1204 1.264 . S
C1220 C1223 1.382 . S
C1220 C1224 1.390 . S
C1220 C1227 1.506 . S
C1221 C1222 1.398 . S
C1221 C1224 1.392 . S
C1222 C1221 1.398 . S
C1222 C1225 1.372 . S
C1222 H1232 0.931 . S
C1223 C1220 1.382 . S
C1223 C1225 1.390 . S
C1223 H1233 0.931 . S
C1224 C1220 1.390 . S
C1224 C1221 1.392 . S
C1224 H1234 0.930 . S
C1225 C1222 1.372 . S
C1225 C1223 1.390 . S
C1225 H1235 0.929 . S
C1226 O1206 1.255 . S
C1226 O1207 1.257 . S
C1227 Eu1163 2.787 1_655 S
C1227 O1202 1.252 1_655 S
C1227 O1205 1.268 1_655 S
C1227 C1220 1.506 . S
H1228 C1211 0.931 . S
H1229 C1212 0.931 . S
H1230 C1213 0.929 . S
H1231 C1214 0.930 . S
H1232 C1222 0.931 . S
H1233 C1223 0.931 . S
H1234 C1224 0.930 . S
H1235 C1225 0.929 . S
Eu1236 N1265 2.600 . S
Eu1236 N1271 2.562 . S
Eu1236 O1280 2.462 . S
Eu1236 O1281 2.373 . S
Eu1236 O1283 2.432 . S
Eu1236 O1284 2.291 . S
Eu1236 O1288 2.335 . S
Eu1236 O1291 2.372 . S
Eu1236 C1300 2.787 . S
C1237 N1238 1.365 . S
C1237 C1240 1.405 . S
C1237 C1244 1.448 . S
N1238 C1237 1.365 . S
N1238 C1241 1.319 . S
N1238 Eu1247 2.600 . S
C1239 C1241 1.397 . S
C1239 C1242 1.367 . S
C1239 H1259 0.931 . S
C1240 C1237 1.405 . S
C1240 C1242 1.403 . S
C1240 C1246 1.439 . S
C1241 N1238 1.319 . S
C1241 C1239 1.397 . S
C1241 H1252 0.930 . S
C1242 C1239 1.367 . S
C1242 C1240 1.403 . S
C1242 H1263 0.929 . S
C1243 C1244 1.430 . S
C1243 C1245 1.387 . S
C1243 C1249 1.404 . S
C1244 C1237 1.448 . S
C1244 C1243 1.430 . S
C1244 N1248 1.351 . S
C1245 C1243 1.387 . S
C1245 C1246 1.374 . S
C1245 H1260 0.931 . S
C1246 C1240 1.439 . S
C1246 C1245 1.374 . S
C1246 H1261 0.931 . S
Eu1247 N1238 2.600 . S
Eu1247 N1248 2.562 . S
Eu1247 O1282 2.335 . S
Eu1247 O1285 2.372 . S
Eu1247 O1286 2.462 . S
Eu1247 O1287 2.373 . S
Eu1247 O1289 2.432 . S
Eu1247 O1290 2.291 . S
Eu1247 C1311 2.787 . S
N1248 C1244 1.351 . S
N1248 Eu1247 2.562 . S
N1248 C1250 1.325 . S
C1249 C1243 1.404 . S
C1249 C1251 1.366 . S
C1249 H1257 0.930 . S
C1250 N1248 1.325 . S
C1250 C1251 1.416 . S
C1250 H1256 0.929 . S
C1251 C1249 1.366 . S
C1251 C1250 1.416 . S
C1251 H1253 0.930 . S
H1252 C1241 0.930 . S
H1253 C1251 0.930 . S
H1254 C1269 0.930 . S
H1255 C1276 0.930 . S
H1256 C1250 0.929 . S
H1257 C1249 0.930 . S
H1258 C1272 0.929 . S
H1259 C1239 0.931 . S
H1260 C1245 0.931 . S
H1261 C1246 0.931 . S
H1262 C1267 0.931 . S
H1263 C1242 0.929 . S
H1264 C1275 0.930 . S
N1265 Eu1236 2.600 . S
N1265 C1266 1.365 . S
N1265 C1269 1.319 . S
C1266 N1265 1.365 . S
C1266 C1268 1.405 . S
C1266 C1274 1.448 . S
C1267 H1262 0.931 . S
C1267 C1269 1.397 . S
C1267 C1270 1.367 . S
C1268 C1266 1.405 . S
C1268 C1270 1.403 . S
C1268 C1301 1.439 . S
C1269 H1254 0.930 . S
C1269 N1265 1.319 . S
C1269 C1267 1.397 . S
C1270 C1267 1.367 . S
C1270 C1268 1.403 . S
C1270 H1277 0.929 . S
N1271 Eu1236 2.562 . S
N1271 C1272 1.325 . S
N1271 C1274 1.351 . S
C1272 H1258 0.929 . S
C1272 N1271 1.325 . S
C1272 C1276 1.416 . S
C1273 C1274 1.430 . S
C1273 C1275 1.404 . S
C1273 C1302 1.387 . S
C1274 C1266 1.448 . S
C1274 N1271 1.351 . S
C1274 C1273 1.430 . S
C1275 H1264 0.930 . S
C1275 C1273 1.404 . S
C1275 C1276 1.366 . S
C1276 H1255 0.930 . S
C1276 C1272 1.416 . S
C1276 C1275 1.366 . S
H1277 C1270 0.929 . S
H1278 C1301 0.931 . S
H1279 C1302 0.931 . S
O1280 Eu1236 2.462 . S
O1280 C1300 1.252 . S
O1281 Eu1236 2.373 . S
O1281 C1292 1.249 . S
O1282 Eu1247 2.335 . S
O1282 C1292 1.264 . S
O1283 Eu1236 2.432 . S
O1283 C1300 1.268 . S
O1284 Eu1236 2.291 . S
O1284 C1299 1.255 . S
O1285 Eu1247 2.372 . S
O1285 C1299 1.257 . S
O1286 Eu1247 2.462 . S
O1286 C1311 1.252 . S
O1287 Eu1247 2.373 . S
O1287 C1303 1.249 . S
O1288 Eu1236 2.335 . S
O1288 C1303 1.264 . S
O1289 Eu1247 2.432 . S
O1289 C1311 1.268 . S
O1290 Eu1247 2.291 . S
O1290 C1310 1.255 . S
O1291 Eu1236 2.372 . S
O1291 C1310 1.257 . S
C1292 O1281 1.249 . S
C1292 O1282 1.264 . S
C1293 C1296 1.382 . S
C1293 C1298 1.390 . S
C1293 C1300 1.506 . S
C1294 C1295 1.398 . S
C1294 C1298 1.392 . S
C1295 C1294 1.398 . S
C1295 C1297 1.372 . S
C1295 H1312 0.931 . S
C1296 C1293 1.382 . S
C1296 C1297 1.390 . S
C1296 H1313 0.931 . S
C1297 C1295 1.372 . S
C1297 C1296 1.390 . S
C1297 H1314 0.929 . S
C1298 C1293 1.390 . S
C1298 C1294 1.392 . S
C1298 H1315 0.930 . S
C1299 O1284 1.255 . S
C1299 O1285 1.257 . S
C1300 Eu1236 2.787 . S
C1300 O1280 1.252 . S
C1300 O1283 1.268 . S
C1300 C1293 1.506 . S
C1301 C1268 1.439 . S
C1301 H1278 0.931 . S
C1301 C1302 1.374 . S
C1302 C1273 1.387 . S
C1302 H1279 0.931 . S
C1302 C1301 1.374 . S
C1303 O1287 1.249 . S
C1303 O1288 1.264 . S
C1304 C1307 1.382 . S
C1304 C1308 1.390 . S
C1304 C1311 1.506 . S
C1305 C1306 1.398 . S
C1305 C1308 1.392 . S
C1306 C1305 1.398 . S
C1306 C1309 1.372 . S
C1306 H1316 0.931 . S
C1307 C1304 1.382 . S
C1307 C1309 1.390 . S
C1307 H1317 0.931 . S
C1308 C1304 1.390 . S
C1308 C1305 1.392 . S
C1308 H1318 0.930 . S
C1309 C1306 1.372 . S
C1309 C1307 1.390 . S
C1309 H1319 0.929 . S
C1310 O1290 1.255 . S
C1310 O1291 1.257 . S
C1311 Eu1247 2.787 . S
C1311 O1286 1.252 . S
C1311 O1289 1.268 . S
C1311 C1304 1.506 . S
H1312 C1295 0.931 . S
H1313 C1296 0.931 . S
H1314 C1297 0.929 . S
H1315 C1298 0.930 . S
H1316 C1306 0.931 . S
H1317 C1307 0.931 . S
H1318 C1308 0.930 . S
H1319 C1309 0.929 . S
Eu1320 N1349 2.600 . S
Eu1320 N1355 2.562 . S
Eu1320 O1364 2.462 . S
Eu1320 O1365 2.373 . S
Eu1320 O1367 2.432 . S
Eu1320 O1368 2.291 . S
Eu1320 O1372 2.335 . S
Eu1320 O1375 2.372 . S
Eu1320 C1384 2.787 . S
C1321 N1322 1.365 . S
C1321 C1324 1.405 . S
C1321 C1328 1.448 . S
N1322 C1321 1.365 . S
N1322 C1325 1.319 . S
N1322 Eu1331 2.600 . S
C1323 C1325 1.397 . S
C1323 C1326 1.367 . S
C1323 H1343 0.931 . S
C1324 C1321 1.405 . S
C1324 C1326 1.403 . S
C1324 C1330 1.439 . S
C1325 N1322 1.319 . S
C1325 C1323 1.397 . S
C1325 H1336 0.930 . S
C1326 C1323 1.367 . S
C1326 C1324 1.403 . S
C1326 H1347 0.929 . S
C1327 C1328 1.430 . S
C1327 C1329 1.387 . S
C1327 C1333 1.404 . S
C1328 C1321 1.448 . S
C1328 C1327 1.430 . S
C1328 N1332 1.351 . S
C1329 C1327 1.387 . S
C1329 C1330 1.374 . S
C1329 H1344 0.931 . S
C1330 C1324 1.439 . S
C1330 C1329 1.374 . S
C1330 H1345 0.931 . S
Eu1331 N1322 2.600 . S
Eu1331 N1332 2.562 . S
Eu1331 O1366 2.335 . S
Eu1331 O1369 2.372 . S
Eu1331 O1370 2.462 . S
Eu1331 O1371 2.373 . S
Eu1331 O1373 2.432 . S
Eu1331 O1374 2.291 . S
Eu1331 C1395 2.787 . S
N1332 C1328 1.351 . S
N1332 Eu1331 2.562 . S
N1332 C1334 1.325 . S
C1333 C1327 1.404 . S
C1333 C1335 1.366 . S
C1333 H1341 0.930 . S
C1334 N1332 1.325 . S
C1334 C1335 1.416 . S
C1334 H1340 0.929 . S
C1335 C1333 1.366 . S
C1335 C1334 1.416 . S
C1335 H1337 0.930 . S
H1336 C1325 0.930 . S
H1337 C1335 0.930 . S
H1338 C1353 0.930 . S
H1339 C1360 0.930 . S
H1340 C1334 0.929 . S
H1341 C1333 0.930 . S
H1342 C1356 0.929 . S
H1343 C1323 0.931 . S
H1344 C1329 0.931 . S
H1345 C1330 0.931 . S
H1346 C1351 0.931 . S
H1347 C1326 0.929 . S
H1348 C1359 0.930 . S
N1349 Eu1320 2.600 . S
N1349 C1350 1.365 . S
N1349 C1353 1.319 . S
C1350 N1349 1.365 . S
C1350 C1352 1.405 . S
C1350 C1358 1.448 . S
C1351 H1346 0.931 . S
C1351 C1353 1.397 . S
C1351 C1354 1.367 . S
C1352 C1350 1.405 . S
C1352 C1354 1.403 . S
C1352 C1385 1.439 . S
C1353 H1338 0.930 . S
C1353 N1349 1.319 . S
C1353 C1351 1.397 . S
C1354 C1351 1.367 . S
C1354 C1352 1.403 . S
C1354 H1361 0.929 . S
N1355 Eu1320 2.562 . S
N1355 C1356 1.325 . S
N1355 C1358 1.351 . S
C1356 H1342 0.929 . S
C1356 N1355 1.325 . S
C1356 C1360 1.416 . S
C1357 C1358 1.430 . S
C1357 C1359 1.404 . S
C1357 C1386 1.387 . S
C1358 C1350 1.448 . S
C1358 N1355 1.351 . S
C1358 C1357 1.430 . S
C1359 H1348 0.930 . S
C1359 C1357 1.404 . S
C1359 C1360 1.366 . S
C1360 H1339 0.930 . S
C1360 C1356 1.416 . S
C1360 C1359 1.366 . S
H1361 C1354 0.929 . S
H1362 C1385 0.931 . S
H1363 C1386 0.931 . S
O1364 Eu1320 2.462 . S
O1364 C1384 1.252 . S
O1365 Eu1320 2.373 . S
O1365 C1376 1.249 . S
O1366 Eu1331 2.335 . S
O1366 C1376 1.264 . S
O1367 Eu1320 2.432 . S
O1367 C1384 1.268 . S
O1368 Eu1320 2.291 . S
O1368 C1383 1.255 . S
O1369 Eu1331 2.372 . S
O1369 C1383 1.257 . S
O1370 Eu1331 2.462 . S
O1370 C1395 1.252 . S
O1371 Eu1331 2.373 . S
O1371 C1387 1.249 . S
O1372 Eu1320 2.335 . S
O1372 C1387 1.264 . S
O1373 Eu1331 2.432 . S
O1373 C1395 1.268 . S
O1374 Eu1331 2.291 . S
O1374 C1394 1.255 . S
O1375 Eu1320 2.372 . S
O1375 C1394 1.257 . S
C1376 O1365 1.249 . S
C1376 O1366 1.264 . S
C1377 C1380 1.382 . S
C1377 C1382 1.390 . S
C1377 C1384 1.506 . S
C1378 C1379 1.398 . S
C1378 C1382 1.392 . S
C1379 C1378 1.398 . S
C1379 C1381 1.372 . S
C1379 H1396 0.931 . S
C1380 C1377 1.382 . S
C1380 C1381 1.390 . S
C1380 H1397 0.931 . S
C1381 C1379 1.372 . S
C1381 C1380 1.390 . S
C1381 H1398 0.929 . S
C1382 C1377 1.390 . S
C1382 C1378 1.392 . S
C1382 H1399 0.930 . S
C1383 O1368 1.255 . S
C1383 O1369 1.257 . S
C1384 Eu1320 2.787 . S
C1384 O1364 1.252 . S
C1384 O1367 1.268 . S
C1384 C1377 1.506 . S
C1385 C1352 1.439 . S
C1385 H1362 0.931 . S
C1385 C1386 1.374 . S
C1386 C1357 1.387 . S
C1386 H1363 0.931 . S
C1386 C1385 1.374 . S
C1387 O1371 1.249 . S
C1387 O1372 1.264 . S
C1388 C1391 1.382 . S
C1388 C1392 1.390 . S
C1388 C1395 1.506 . S
C1389 C1390 1.398 . S
C1389 C1392 1.392 . S
C1390 C1389 1.398 . S
C1390 C1393 1.372 . S
C1390 H1400 0.931 . S
C1391 C1388 1.382 . S
C1391 C1393 1.390 . S
C1391 H1401 0.931 . S
C1392 C1388 1.390 . S
C1392 C1389 1.392 . S
C1392 H1402 0.930 . S
C1393 C1390 1.372 . S
C1393 C1391 1.390 . S
C1393 H1403 0.929 . S
C1394 O1374 1.255 . S
C1394 O1375 1.257 . S
C1395 Eu1331 2.787 . S
C1395 O1370 1.252 . S
C1395 O1373 1.268 . S
C1395 C1388 1.506 . S
H1396 C1379 0.931 . S
H1397 C1380 0.931 . S
H1398 C1381 0.929 . S
H1399 C1382 0.930 . S
H1400 C1390 0.931 . S
H1401 C1391 0.931 . S
H1402 C1392 0.930 . S
H1403 C1393 0.929 . S
Eu1404 N1433 2.600 . S
Eu1404 N1439 2.562 . S
Eu1404 O1448 2.462 . S
Eu1404 O1449 2.373 . S
Eu1404 O1451 2.432 . S
Eu1404 O1452 2.291 . S
Eu1404 O1456 2.335 . S
Eu1404 O1459 2.372 . S
Eu1404 C1468 2.787 . S
C1405 N1406 1.365 . S
C1405 C1408 1.405 . S
C1405 C1412 1.448 . S
N1406 C1405 1.365 . S
N1406 C1409 1.319 . S
N1406 Eu1415 2.600 . S
C1407 C1409 1.397 . S
C1407 C1410 1.367 . S
C1407 H1427 0.931 . S
C1408 C1405 1.405 . S
C1408 C1410 1.403 . S
C1408 C1414 1.439 . S
C1409 N1406 1.319 . S
C1409 C1407 1.397 . S
C1409 H1420 0.930 . S
C1410 C1407 1.367 . S
C1410 C1408 1.403 . S
C1410 H1431 0.929 . S
C1411 C1412 1.430 . S
C1411 C1413 1.387 . S
C1411 C1417 1.404 . S
C1412 C1405 1.448 . S
C1412 C1411 1.430 . S
C1412 N1416 1.351 . S
C1413 C1411 1.387 . S
C1413 C1414 1.374 . S
C1413 H1428 0.931 . S
C1414 C1408 1.439 . S
C1414 C1413 1.374 . S
C1414 H1429 0.931 . S
Eu1415 N1406 2.600 . S
Eu1415 N1416 2.562 . S
Eu1415 O1450 2.335 . S
Eu1415 O1453 2.372 . S
Eu1415 O1454 2.462 . S
Eu1415 O1455 2.373 . S
Eu1415 O1457 2.432 . S
Eu1415 O1458 2.291 . S
Eu1415 C1479 2.787 . S
N1416 C1412 1.351 . S
N1416 Eu1415 2.562 . S
N1416 C1418 1.325 . S
C1417 C1411 1.404 . S
C1417 C1419 1.366 . S
C1417 H1425 0.930 . S
C1418 N1416 1.325 . S
C1418 C1419 1.416 . S
C1418 H1424 0.929 . S
C1419 C1417 1.366 . S
C1419 C1418 1.416 . S
C1419 H1421 0.930 . S
H1420 C1409 0.930 . S
H1421 C1419 0.930 . S
H1422 C1437 0.930 . S
H1423 C1444 0.930 . S
H1424 C1418 0.929 . S
H1425 C1417 0.930 . S
H1426 C1440 0.929 . S
H1427 C1407 0.931 . S
H1428 C1413 0.931 . S
H1429 C1414 0.931 . S
H1430 C1435 0.931 . S
H1431 C1410 0.929 . S
H1432 C1443 0.930 . S
N1433 Eu1404 2.600 . S
N1433 C1434 1.365 . S
N1433 C1437 1.319 . S
C1434 N1433 1.365 . S
C1434 C1436 1.405 . S
C1434 C1442 1.448 . S
C1435 H1430 0.931 . S
C1435 C1437 1.397 . S
C1435 C1438 1.367 . S
C1436 C1434 1.405 . S
C1436 C1438 1.403 . S
C1436 C1469 1.439 . S
C1437 H1422 0.930 . S
C1437 N1433 1.319 . S
C1437 C1435 1.397 . S
C1438 C1435 1.367 . S
C1438 C1436 1.403 . S
C1438 H1445 0.929 . S
N1439 Eu1404 2.562 . S
N1439 C1440 1.325 . S
N1439 C1442 1.351 . S
C1440 H1426 0.929 . S
C1440 N1439 1.325 . S
C1440 C1444 1.416 . S
C1441 C1442 1.430 . S
C1441 C1443 1.404 . S
C1441 C1470 1.387 . S
C1442 C1434 1.448 . S
C1442 N1439 1.351 . S
C1442 C1441 1.430 . S
C1443 H1432 0.930 . S
C1443 C1441 1.404 . S
C1443 C1444 1.366 . S
C1444 H1423 0.930 . S
C1444 C1440 1.416 . S
C1444 C1443 1.366 . S
H1445 C1438 0.929 . S
H1446 C1469 0.931 . S
H1447 C1470 0.931 . S
O1448 Eu1404 2.462 . S
O1448 C1468 1.252 . S
O1449 Eu1404 2.373 . S
O1449 C1460 1.249 . S
O1450 Eu1415 2.335 . S
O1450 C1460 1.264 . S
O1451 Eu1404 2.432 . S
O1451 C1468 1.268 . S
O1452 Eu1404 2.291 . S
O1452 C1467 1.255 . S
O1453 Eu1415 2.372 . S
O1453 C1467 1.257 . S
O1454 Eu1415 2.462 . S
O1454 C1479 1.252 . S
O1455 Eu1415 2.373 . S
O1455 C1471 1.249 . S
O1456 Eu1404 2.335 . S
O1456 C1471 1.264 . S
O1457 Eu1415 2.432 . S
O1457 C1479 1.268 . S
O1458 Eu1415 2.291 . S
O1458 C1478 1.255 . S
O1459 Eu1404 2.372 . S
O1459 C1478 1.257 . S
C1460 O1449 1.249 . S
C1460 O1450 1.264 . S
C1461 C1464 1.382 . S
C1461 C1466 1.390 . S
C1461 C1468 1.506 . S
C1462 C1463 1.398 . S
C1462 C1466 1.392 . S
C1463 C1462 1.398 . S
C1463 C1465 1.372 . S
C1463 H1480 0.931 . S
C1464 C1461 1.382 . S
C1464 C1465 1.390 . S
C1464 H1481 0.931 . S
C1465 C1463 1.372 . S
C1465 C1464 1.390 . S
C1465 H1482 0.929 . S
C1466 C1461 1.390 . S
C1466 C1462 1.392 . S
C1466 H1483 0.930 . S
C1467 O1452 1.255 . S
C1467 O1453 1.257 . S
C1468 Eu1404 2.787 . S
C1468 O1448 1.252 . S
C1468 O1451 1.268 . S
C1468 C1461 1.506 . S
C1469 C1436 1.439 . S
C1469 H1446 0.931 . S
C1469 C1470 1.374 . S
C1470 C1441 1.387 . S
C1470 H1447 0.931 . S
C1470 C1469 1.374 . S
C1471 O1455 1.249 . S
C1471 O1456 1.264 . S
C1472 C1475 1.382 . S
C1472 C1476 1.390 . S
C1472 C1479 1.506 . S
C1473 C1474 1.398 . S
C1473 C1476 1.392 . S
C1474 C1473 1.398 . S
C1474 C1477 1.372 . S
C1474 H1484 0.931 . S
C1475 C1472 1.382 . S
C1475 C1477 1.390 . S
C1475 H1485 0.931 . S
C1476 C1472 1.390 . S
C1476 C1473 1.392 . S
C1476 H1486 0.930 . S
C1477 C1474 1.372 . S
C1477 C1475 1.390 . S
C1477 H1487 0.929 . S
C1478 O1458 1.255 . S
C1478 O1459 1.257 . S
C1479 Eu1415 2.787 . S
C1479 O1454 1.252 . S
C1479 O1457 1.268 . S
C1479 C1472 1.506 . S
H1480 C1463 0.931 . S
H1481 C1464 0.931 . S
H1482 C1465 0.929 . S
H1483 C1466 0.930 . S
H1484 C1474 0.931 . S
H1485 C1475 0.931 . S
H1486 C1476 0.930 . S
H1487 C1477 0.929 . S
Eu1488 N1517 2.600 . S
Eu1488 N1523 2.562 . S
Eu1488 O1532 2.462 . S
Eu1488 O1533 2.373 . S
Eu1488 O1535 2.432 . S
Eu1488 O1536 2.291 . S
Eu1488 O1540 2.335 . S
Eu1488 O1543 2.372 . S
Eu1488 C1552 2.787 . S
C1489 N1490 1.365 . S
C1489 C1492 1.405 . S
C1489 C1496 1.448 . S
N1490 C1489 1.365 . S
N1490 C1493 1.319 . S
N1490 Eu1499 2.600 . S
C1491 C1493 1.397 . S
C1491 C1494 1.367 . S
C1491 H1511 0.931 . S
C1492 C1489 1.405 . S
C1492 C1494 1.403 . S
C1492 C1498 1.439 . S
C1493 N1490 1.319 . S
C1493 C1491 1.397 . S
C1493 H1504 0.930 . S
C1494 C1491 1.367 . S
C1494 C1492 1.403 . S
C1494 H1515 0.929 . S
C1495 C1496 1.430 . S
C1495 C1497 1.387 . S
C1495 C1501 1.404 . S
C1496 C1489 1.448 . S
C1496 C1495 1.430 . S
C1496 N1500 1.351 . S
C1497 C1495 1.387 . S
C1497 C1498 1.374 . S
C1497 H1512 0.931 . S
C1498 C1492 1.439 . S
C1498 C1497 1.374 . S
C1498 H1513 0.931 . S
Eu1499 N1490 2.600 . S
Eu1499 N1500 2.562 . S
Eu1499 O1534 2.335 . S
Eu1499 O1537 2.372 . S
Eu1499 O1538 2.462 . S
Eu1499 O1539 2.373 . S
Eu1499 O1541 2.432 . S
Eu1499 O1542 2.291 . S
Eu1499 C1563 2.787 . S
N1500 C1496 1.351 . S
N1500 Eu1499 2.562 . S
N1500 C1502 1.325 . S
C1501 C1495 1.404 . S
C1501 C1503 1.366 . S
C1501 H1509 0.930 . S
C1502 N1500 1.325 . S
C1502 C1503 1.416 . S
C1502 H1508 0.929 . S
C1503 C1501 1.366 . S
C1503 C1502 1.416 . S
C1503 H1505 0.930 . S
H1504 C1493 0.930 . S
H1505 C1503 0.930 . S
H1506 C1521 0.930 . S
H1507 C1528 0.930 . S
H1508 C1502 0.929 . S
H1509 C1501 0.930 . S
H1510 C1524 0.929 . S
H1511 C1491 0.931 . S
H1512 C1497 0.931 . S
H1513 C1498 0.931 . S
H1514 C1519 0.931 . S
H1515 C1494 0.929 . S
H1516 C1527 0.930 . S
N1517 Eu1488 2.600 . S
N1517 C1518 1.365 . S
N1517 C1521 1.319 . S
C1518 N1517 1.365 . S
C1518 C1520 1.405 . S
C1518 C1526 1.448 . S
C1519 H1514 0.931 . S
C1519 C1521 1.397 . S
C1519 C1522 1.367 . S
C1520 C1518 1.405 . S
C1520 C1522 1.403 . S
C1520 C1553 1.439 . S
C1521 H1506 0.930 . S
C1521 N1517 1.319 . S
C1521 C1519 1.397 . S
C1522 C1519 1.367 . S
C1522 C1520 1.403 . S
C1522 H1529 0.929 . S
N1523 Eu1488 2.562 . S
N1523 C1524 1.325 . S
N1523 C1526 1.351 . S
C1524 H1510 0.929 . S
C1524 N1523 1.325 . S
C1524 C1528 1.416 . S
C1525 C1526 1.430 . S
C1525 C1527 1.404 . S
C1525 C1554 1.387 . S
C1526 C1518 1.448 . S
C1526 N1523 1.351 . S
C1526 C1525 1.430 . S
C1527 H1516 0.930 . S
C1527 C1525 1.404 . S
C1527 C1528 1.366 . S
C1528 H1507 0.930 . S
C1528 C1524 1.416 . S
C1528 C1527 1.366 . S
H1529 C1522 0.929 . S
H1530 C1553 0.931 . S
H1531 C1554 0.931 . S
O1532 Eu1488 2.462 . S
O1532 C1552 1.252 . S
O1533 Eu1488 2.373 . S
O1533 C1544 1.249 . S
O1534 Eu1499 2.335 . S
O1534 C1544 1.264 . S
O1535 Eu1488 2.432 . S
O1535 C1552 1.268 . S
O1536 Eu1488 2.291 . S
O1536 C1551 1.255 . S
O1537 Eu1499 2.372 . S
O1537 C1551 1.257 . S
O1538 Eu1499 2.462 . S
O1538 C1563 1.252 . S
O1539 Eu1499 2.373 . S
O1539 C1555 1.249 . S
O1540 Eu1488 2.335 . S
O1540 C1555 1.264 . S
O1541 Eu1499 2.432 . S
O1541 C1563 1.268 . S
O1542 Eu1499 2.291 . S
O1542 C1562 1.255 . S
O1543 Eu1488 2.372 . S
O1543 C1562 1.257 . S
C1544 O1533 1.249 . S
C1544 O1534 1.264 . S
C1545 C1548 1.382 . S
C1545 C1550 1.390 . S
C1545 C1552 1.506 . S
C1546 C1547 1.398 . S
C1546 C1550 1.392 . S
C1547 C1546 1.398 . S
C1547 C1549 1.372 . S
C1547 H1564 0.931 . S
C1548 C1545 1.382 . S
C1548 C1549 1.390 . S
C1548 H1565 0.931 . S
C1549 C1547 1.372 . S
C1549 C1548 1.390 . S
C1549 H1566 0.929 . S
C1550 C1545 1.390 . S
C1550 C1546 1.392 . S
C1550 H1567 0.930 . S
C1551 O1536 1.255 . S
C1551 O1537 1.257 . S
C1552 Eu1488 2.787 . S
C1552 O1532 1.252 . S
C1552 O1535 1.268 . S
C1552 C1545 1.506 . S
C1553 C1520 1.439 . S
C1553 H1530 0.931 . S
C1553 C1554 1.374 . S
C1554 C1525 1.387 . S
C1554 H1531 0.931 . S
C1554 C1553 1.374 . S
C1555 O1539 1.249 . S
C1555 O1540 1.264 . S
C1556 C1559 1.382 . S
C1556 C1560 1.390 . S
C1556 C1563 1.506 . S
C1557 C1558 1.398 . S
C1557 C1560 1.392 . S
C1558 C1557 1.398 . S
C1558 C1561 1.372 . S
C1558 H1568 0.931 . S
C1559 C1556 1.382 . S
C1559 C1561 1.390 . S
C1559 H1569 0.931 . S
C1560 C1556 1.390 . S
C1560 C1557 1.392 . S
C1560 H1570 0.930 . S
C1561 C1558 1.372 . S
C1561 C1559 1.390 . S
C1561 H1571 0.929 . S
C1562 O1542 1.255 . S
C1562 O1543 1.257 . S
C1563 Eu1499 2.787 . S
C1563 O1538 1.252 . S
C1563 O1541 1.268 . S
C1563 C1556 1.506 . S
H1564 C1547 0.931 . S
H1565 C1548 0.931 . S
H1566 C1549 0.929 . S
H1567 C1550 0.930 . S
H1568 C1558 0.931 . S
H1569 C1559 0.931 . S
H1570 C1560 0.930 . S
H1571 C1561 0.929 . S
Eu1572 N1601 2.600 . S
Eu1572 N1607 2.562 . S
Eu1572 O1616 2.462 . S
Eu1572 O1617 2.373 1_655 S
Eu1572 O1619 2.432 . S
Eu1572 O1620 2.291 . S
Eu1572 O1624 2.335 1_655 S
Eu1572 O1627 2.372 1_655 S
Eu1572 C1636 2.787 . S
C1573 N1574 1.361 1_554 S
C1573 C1576 1.373 1_554 S
C1573 C1580 1.486 . S
N1574 C1573 1.361 1_556 S
N1574 C1577 1.319 . S
N1574 Eu1583 2.600 1_556 S
C1575 C1577 1.397 . S
C1575 C1578 1.367 . S
C1575 H1595 0.931 . S
C1576 C1573 1.373 1_556 S
C1576 C1578 1.403 . S
C1576 C1582 1.439 . S
C1577 N1574 1.319 . S
C1577 C1575 1.397 . S
C1577 H1588 0.930 . S
C1578 C1575 1.367 . S
C1578 C1576 1.403 . S
C1578 H1599 0.929 . S
C1579 C1580 1.430 . S
C1579 C1581 1.387 . S
C1579 C1585 1.404 . S
C1580 C1573 1.486 . S
C1580 C1579 1.430 . S
C1580 N1584 1.351 . S
C1581 C1579 1.387 . S
C1581 C1582 1.374 1_554 S
C1581 H1596 0.931 . S
C1582 C1576 1.439 . S
C1582 C1581 1.374 1_556 S
C1582 H1597 0.931 . S
Eu1583 N1574 2.600 1_554 S
Eu1583 N1584 2.562 . S
Eu1583 O1618 2.335 . S
Eu1583 O1621 2.372 1_554 S
Eu1583 O1622 2.462 . S
Eu1583 O1623 2.373 . S
Eu1583 O1625 2.447 . S
Eu1583 O1626 2.291 . S
Eu1583 C1647 2.787 . S
N1584 C1580 1.351 . S
N1584 Eu1583 2.562 . S
N1584 C1586 1.325 . S
C1585 C1579 1.404 . S
C1585 C1587 1.366 . S
C1585 H1593 0.930 . S
C1586 N1584 1.325 . S
C1586 C1587 1.416 . S
C1586 H1592 0.929 . S
C1587 C1585 1.366 . S
C1587 C1586 1.416 . S
C1587 H1589 0.930 . S
H1588 C1577 0.930 . S
H1589 C1587 0.930 . S
H1590 C1605 0.911 1_455 S
H1591 C1612 0.954 . S
H1592 C1586 0.929 . S
H1593 C1585 0.930 . S
H1594 C1608 0.929 . S
H1595 C1575 0.931 . S
H1596 C1581 0.931 . S
H1597 C1582 0.931 . S
H1598 C1603 0.931 . S
H1599 C1578 0.929 . S
H1600 C1611 0.930 . S
N1601 Eu1572 2.600 . S
N1601 C1602 1.365 . S
N1601 C1605 1.319 . S
C1602 N1601 1.365 . S
C1602 C1604 1.405 . S
C1602 C1610 1.448 . S
C1603 H1598 0.931 . S
C1603 C1605 1.397 . S
C1603 C1606 1.367 . S
C1604 C1602 1.405 . S
C1604 C1606 1.403 . S
C1604 C1637 1.439 . S
C1605 H1590 0.911 1_655 S
C1605 N1601 1.319 . S
C1605 C1603 1.397 . S
C1606 C1603 1.367 . S
C1606 C1604 1.403 . S
C1606 H1613 0.929 . S
N1607 Eu1572 2.562 . S
N1607 C1608 1.325 . S
N1607 C1610 1.351 . S
C1608 H1594 0.929 . S
C1608 N1607 1.325 . S
C1608 C1612 1.416 . S
C1609 C1610 1.430 . S
C1609 C1611 1.404 . S
C1609 C1638 1.387 . S
C1610 C1602 1.448 . S
C1610 N1607 1.351 . S
C1610 C1609 1.430 . S
C1611 H1600 0.930 . S
C1611 C1609 1.404 . S
C1611 C1612 1.366 . S
C1612 H1591 0.954 . S
C1612 C1608 1.416 . S
C1612 C1611 1.366 . S
H1613 C1606 0.929 . S
H1614 C1637 0.931 . S
H1615 C1638 0.931 . S
O1616 Eu1572 2.462 . S
O1616 C1636 1.252 . S
O1617 Eu1572 2.373 1_455 S
O1617 C1628 1.249 . S
O1618 Eu1583 2.335 . S
O1618 C1628 1.264 . S
O1619 Eu1572 2.432 . S
O1619 C1636 1.268 . S
O1620 Eu1572 2.291 . S
O1620 C1635 1.243 1_655 S
O1621 Eu1583 2.372 1_556 S
O1621 C1635 1.290 1_556 S
O1622 Eu1583 2.462 . S
O1622 C1647 1.252 . S
O1623 Eu1583 2.373 . S
O1623 C1639 1.249 . S
O1624 Eu1572 2.335 1_455 S
O1624 C1639 1.264 . S
O1625 Eu1583 2.447 . S
O1625 C1647 1.286 . S
O1626 Eu1583 2.291 . S
O1626 C1646 1.255 . S
O1627 Eu1572 2.372 1_455 S
O1627 C1646 1.257 . S
C1628 O1617 1.249 . S
C1628 O1618 1.264 . S
C1629 C1632 1.382 . S
C1629 C1634 1.390 . S
C1629 C1636 1.506 . S
C1630 C1631 1.398 . S
C1630 C1634 1.392 . S
C1631 C1630 1.398 . S
C1631 C1633 1.372 . S
C1631 H1648 0.931 . S
C1632 C1629 1.382 . S
C1632 C1633 1.390 . S
C1632 H1649 0.931 . S
C1633 C1631 1.372 . S
C1633 C1632 1.390 . S
C1633 H1650 0.929 . S
C1634 C1629 1.390 . S
C1634 C1630 1.392 . S
C1634 H1651 0.930 . S
C1635 O1620 1.243 1_455 S
C1635 O1621 1.290 1_554 S
C1636 Eu1572 2.787 . S
C1636 O1616 1.252 . S
C1636 O1619 1.268 . S
C1636 C1629 1.506 . S
C1637 C1604 1.439 . S
C1637 H1614 0.931 . S
C1637 C1638 1.374 . S
C1638 C1609 1.387 . S
C1638 H1615 0.931 . S
C1638 C1637 1.374 . S
C1639 O1623 1.249 . S
C1639 O1624 1.264 . S
C1640 C1643 1.382 1_554 S
C1640 C1644 1.390 . S
C1640 C1647 1.506 . S
C1641 C1642 1.398 . S
C1641 C1644 1.392 . S
C1642 C1641 1.398 . S
C1642 C1645 1.372 1_554 S
C1642 H1652 0.926 1_554 S
C1643 C1640 1.382 1_556 S
C1643 C1645 1.390 . S
C1643 H1653 0.931 . S
C1644 C1640 1.390 . S
C1644 C1641 1.392 . S
C1644 H1654 0.930 . S
C1645 C1642 1.372 1_556 S
C1645 C1643 1.390 . S
C1645 H1655 0.929 . S
C1646 O1626 1.255 . S
C1646 O1627 1.257 . S
C1647 Eu1583 2.787 . S
C1647 O1622 1.252 . S
C1647 O1625 1.286 . S
C1647 C1640 1.506 . S
H1648 C1631 0.931 . S
H1649 C1632 0.931 . S
H1650 C1633 0.929 . S
H1651 C1634 0.930 . S
H1652 C1642 0.926 1_556 S
H1653 C1643 0.931 . S
H1654 C1644 0.930 . S
H1655 C1645 0.929 . S
C1656 C1657 1.391 . S
C1656 C1658 1.394 . S
C1656 H1672 0.931 . S
C1657 C1656 1.391 . S
C1657 C1661 1.376 1_556 S
C1658 C1656 1.394 . S
C1658 C1659 1.369 . S
C1658 C1662 1.531 . S
C1659 C1658 1.369 . S
C1659 C1660 1.410 1_556 S
C1659 C1667 1.503 1_556 S
C1660 C1659 1.410 1_554 S
C1660 C1661 1.392 . S
C1660 C1663 1.511 . S
C1661 C1657 1.376 1_554 S
C1661 C1660 1.392 . S
C1661 H1673 0.929 . S
C1662 C1658 1.531 . S
C1662 H1674 0.960 . S
C1662 H1675 0.962 . S
C1662 H1676 0.960 . S
C1663 C1660 1.511 . S
C1663 H1677 0.961 . S
C1663 H1678 0.961 . S
C1663 H1679 0.961 . S
C1664 C1665 1.370 . S
C1664 C1666 1.363 . S
C1664 H1680 0.931 . S
C1665 C1664 1.370 . S
C1665 C1669 1.408 . S
C1666 C1664 1.363 . S
C1666 C1667 1.370 . S
C1666 C1670 1.519 1_454 S
C1667 C1659 1.503 1_554 S
C1667 C1666 1.370 . S
C1667 C1668 1.403 . S
C1668 C1667 1.403 . S
C1668 C1669 1.404 . S
C1668 C1671 1.539 . S
C1669 C1665 1.408 . S
C1669 C1668 1.404 . S
C1669 H1681 0.930 . S
C1670 C1666 1.519 1_656 S
C1670 H1682 0.973 . S
C1670 H1683 0.954 1_556 S
C1670 H1684 0.955 1_556 S
C1671 C1668 1.539 . S
C1671 H1685 0.958 . S
C1671 H1686 0.961 . S
C1671 H1687 0.960 . S
H1672 C1656 0.931 . S
H1673 C1661 0.929 . S
H1674 C1662 0.960 . S
H1675 C1662 0.962 . S
H1676 C1662 0.960 . S
H1677 C1663 0.961 . S
H1678 C1663 0.961 . S
H1679 C1663 0.961 . S
H1680 C1664 0.931 . S
H1681 C1669 0.930 . S
H1682 C1670 0.973 . S
H1683 C1670 0.954 1_554 S
H1684 C1670 0.955 1_554 S
H1685 C1671 0.958 . S
H1686 C1671 0.961 . S
H1687 C1671 0.960 . S
C1688 C1689 1.391 . S
C1688 C1690 1.394 . S
C1688 H1704 0.931 . S
C1689 C1688 1.391 . S
C1689 C1693 1.376 . S
C1690 C1688 1.394 . S
C1690 C1691 1.369 . S
C1690 C1694 1.531 . S
C1691 C1690 1.369 . S
C1691 C1692 1.410 . S
C1691 C1699 1.503 . S
C1692 C1691 1.410 . S
C1692 C1693 1.392 . S
C1692 C1695 1.511 . S
C1693 C1689 1.376 . S
C1693 C1692 1.392 . S
C1693 H1705 0.929 . S
C1694 C1690 1.531 . S
C1694 H1706 0.960 . S
C1694 H1707 0.962 . S
C1694 H1708 0.960 . S
C1695 C1692 1.511 . S
C1695 H1709 0.961 . S
C1695 H1710 0.961 . S
C1695 H1711 0.961 . S
C1696 C1697 1.370 . S
C1696 C1698 1.363 . S
C1696 H1712 0.931 . S
C1697 C1696 1.370 . S
C1697 C1701 1.408 . S
C1698 C1696 1.363 . S
C1698 C1699 1.370 . S
C1698 C1702 1.524 . S
C1699 C1691 1.503 . S
C1699 C1698 1.370 . S
C1699 C1700 1.403 . S
C1700 C1699 1.403 . S
C1700 C1701 1.404 . S
C1700 C1703 1.539 . S
C1701 C1697 1.408 . S
C1701 C1700 1.404 . S
C1701 H1713 0.930 . S
C1702 C1698 1.524 . S
C1702 H1714 0.956 . S
C1702 H1715 0.961 . S
C1702 H1716 0.961 . S
C1703 C1700 1.539 . S
C1703 H1717 0.958 . S
C1703 H1718 0.961 . S
C1703 H1719 0.960 . S
H1704 C1688 0.931 . S
H1705 C1693 0.929 . S
H1706 C1694 0.960 . S
H1707 C1694 0.962 . S
H1708 C1694 0.960 . S
H1709 C1695 0.961 . S
H1710 C1695 0.961 . S
H1711 C1695 0.961 . S
H1712 C1696 0.931 . S
H1713 C1701 0.930 . S
H1714 C1702 0.956 . S
H1715 C1702 0.961 . S
H1716 C1702 0.961 . S
H1717 C1703 0.958 . S
H1718 C1703 0.961 . S
H1719 C1703 0.960 . S
C1720 C1721 1.391 . S
C1720 C1722 1.394 . S
C1720 H1736 0.931 . S
C1721 C1720 1.391 . S
C1721 C1725 1.376 . S
C1722 C1720 1.394 . S
C1722 C1723 1.369 . S
C1722 C1726 1.531 . S
C1723 C1722 1.369 . S
C1723 C1724 1.410 . S
C1723 C1731 1.503 . S
C1724 C1723 1.410 . S
C1724 C1725 1.392 . S
C1724 C1727 1.511 . S
C1725 C1721 1.376 . S
C1725 C1724 1.392 . S
C1725 H1737 0.929 . S
C1726 C1722 1.531 . S
C1726 H1738 0.960 . S
C1726 H1739 0.962 . S
C1726 H1740 0.960 . S
C1727 C1724 1.511 . S
C1727 H1741 0.961 . S
C1727 H1742 0.961 . S
C1727 H1743 0.961 . S
C1728 C1729 1.370 . S
C1728 C1730 1.363 . S
C1728 H1744 0.931 . S
C1729 C1728 1.370 . S
C1729 C1733 1.408 . S
C1730 C1728 1.363 . S
C1730 C1731 1.370 . S
C1730 C1734 1.524 . S
C1731 C1723 1.503 . S
C1731 C1730 1.370 . S
C1731 C1732 1.403 . S
C1732 C1731 1.403 . S
C1732 C1733 1.404 . S
C1732 C1735 1.539 . S
C1733 C1729 1.408 . S
C1733 C1732 1.404 . S
C1733 H1745 0.930 . S
C1734 C1730 1.524 . S
C1734 H1746 0.956 . S
C1734 H1747 0.961 . S
C1734 H1748 0.961 . S
C1735 C1732 1.539 . S
C1735 H1749 0.958 . S
C1735 H1750 0.961 . S
C1735 H1751 0.960 . S
H1736 C1720 0.931 . S
H1737 C1725 0.929 . S
H1738 C1726 0.960 . S
H1739 C1726 0.962 . S
H1740 C1726 0.960 . S
H1741 C1727 0.961 . S
H1742 C1727 0.961 . S
H1743 C1727 0.961 . S
H1744 C1728 0.931 . S
H1745 C1733 0.930 . S
H1746 C1734 0.956 . S
H1747 C1734 0.961 . S
H1748 C1734 0.961 . S
H1749 C1735 0.958 . S
H1750 C1735 0.961 . S
H1751 C1735 0.960 . S
C1752 C1753 1.391 . S
C1752 C1754 1.394 . S
C1752 H1768 0.931 . S
C1753 C1752 1.391 . S
C1753 C1757 1.376 . S
C1754 C1752 1.394 . S
C1754 C1755 1.369 . S
C1754 C1758 1.531 . S
C1755 C1754 1.369 . S
C1755 C1756 1.410 . S
C1755 C1763 1.503 . S
C1756 C1755 1.410 . S
C1756 C1757 1.392 . S
C1756 C1759 1.511 . S
C1757 C1753 1.376 . S
C1757 C1756 1.392 . S
C1757 H1769 0.929 . S
C1758 C1754 1.531 . S
C1758 H1770 0.960 . S
C1758 H1771 0.962 . S
C1758 H1772 0.960 . S
C1759 C1756 1.511 . S
C1759 H1773 0.961 . S
C1759 H1774 0.961 . S
C1759 H1775 0.961 . S
C1760 C1761 1.370 . S
C1760 C1762 1.363 . S
C1760 H1776 0.931 . S
C1761 C1760 1.370 . S
C1761 C1765 1.408 . S
C1762 C1760 1.363 . S
C1762 C1763 1.370 . S
C1762 C1766 1.524 . S
C1763 C1755 1.503 . S
C1763 C1762 1.370 . S
C1763 C1764 1.403 . S
C1764 C1763 1.403 . S
C1764 C1765 1.404 . S
C1764 C1767 1.539 . S
C1765 C1761 1.408 . S
C1765 C1764 1.404 . S
C1765 H1777 0.930 . S
C1766 C1762 1.524 . S
C1766 H1778 0.956 . S
C1766 H1779 0.961 . S
C1766 H1780 0.961 . S
C1767 C1764 1.539 . S
C1767 H1781 0.958 . S
C1767 H1782 0.961 . S
C1767 H1783 0.960 . S
H1768 C1752 0.931 . S
H1769 C1757 0.929 . S
H1770 C1758 0.960 . S
H1771 C1758 0.962 . S
H1772 C1758 0.960 . S
H1773 C1759 0.961 . S
H1774 C1759 0.961 . S
H1775 C1759 0.961 . S
H1776 C1760 0.931 . S
H1777 C1765 0.930 . S
H1778 C1766 0.956 . S
H1779 C1766 0.961 . S
H1780 C1766 0.961 . S
H1781 C1767 0.958 . S
H1782 C1767 0.961 . S
H1783 C1767 0.960 . S
C1784 C1785 1.391 . S
C1784 C1786 1.394 . S
C1784 H1800 0.931 . S
C1785 C1784 1.391 . S
C1785 C1789 1.376 . S
C1786 C1784 1.394 . S
C1786 C1787 1.369 . S
C1786 C1790 1.531 . S
C1787 C1786 1.369 . S
C1787 C1788 1.410 . S
C1787 C1795 1.503 . S
C1788 C1787 1.410 . S
C1788 C1789 1.392 . S
C1788 C1791 1.511 . S
C1789 C1785 1.376 . S
C1789 C1788 1.392 . S
C1789 H1801 0.929 . S
C1790 C1786 1.531 . S
C1790 H1802 0.960 . S
C1790 H1803 0.962 . S
C1790 H1804 0.960 . S
C1791 C1788 1.511 . S
C1791 H1805 0.961 . S
C1791 H1806 0.961 . S
C1791 H1807 0.961 1_455 S
C1792 C1793 1.370 . S
C1792 C1794 1.363 . S
C1792 H1808 0.931 . S
C1793 C1792 1.370 . S
C1793 C1797 1.408 . S
C1794 C1792 1.363 . S
C1794 C1795 1.370 . S
C1794 C1798 1.524 . S
C1795 C1787 1.503 . S
C1795 C1794 1.370 . S
C1795 C1796 1.403 . S
C1796 C1795 1.403 . S
C1796 C1797 1.404 . S
C1796 C1799 1.539 1_455 S
C1797 C1793 1.408 . S
C1797 C1796 1.404 . S
C1797 H1809 0.930 . S
C1798 C1794 1.524 . S
C1798 H1810 0.956 . S
C1798 H1811 0.961 . S
C1798 H1812 0.961 . S
C1799 C1796 1.539 1_655 S
C1799 H1813 0.958 1_655 S
C1799 H1814 0.961 . S
C1799 H1815 0.960 . S
H1800 C1784 0.931 . S
H1801 C1789 0.929 . S
H1802 C1790 0.960 . S
H1803 C1790 0.962 . S
H1804 C1790 0.960 . S
H1805 C1791 0.961 . S
H1806 C1791 0.961 . S
H1807 C1791 0.961 1_655 S
H1808 C1792 0.931 . S
H1809 C1797 0.930 . S
H1810 C1798 0.956 . S
H1811 C1798 0.961 . S
H1812 C1798 0.961 . S
H1813 C1799 0.958 1_455 S
H1814 C1799 0.961 . S
H1815 C1799 0.960 . S
C1816 C1817 1.391 . S
C1816 C1818 1.394 . S
C1816 H1832 0.931 . S
C1817 C1816 1.391 . S
C1817 C1821 1.376 . S
C1818 C1816 1.394 . S
C1818 C1819 1.369 . S
C1818 C1822 1.531 . S
C1819 C1818 1.369 . S
C1819 C1820 1.410 . S
C1819 C1827 1.503 . S
C1820 C1819 1.410 . S
C1820 C1821 1.392 . S
C1820 C1823 1.511 . S
C1821 C1817 1.376 . S
C1821 C1820 1.392 . S
C1821 H1833 0.929 . S
C1822 C1818 1.531 . S
C1822 H1834 0.960 . S
C1822 H1835 0.962 . S
C1822 H1836 0.960 . S
C1823 C1820 1.511 . S
C1823 H1837 0.961 . S
C1823 H1838 0.961 . S
C1823 H1839 0.961 . S
C1824 C1825 1.370 . S
C1824 C1826 1.363 . S
C1824 H1840 0.931 . S
C1825 C1824 1.370 . S
C1825 C1829 1.408 . S
C1826 C1824 1.363 . S
C1826 C1827 1.370 . S
C1826 C1830 1.524 . S
C1827 C1819 1.503 . S
C1827 C1826 1.370 . S
C1827 C1828 1.403 . S
C1828 C1827 1.403 . S
C1828 C1829 1.404 . S
C1828 C1831 1.539 . S
C1829 C1825 1.408 . S
C1829 C1828 1.404 . S
C1829 H1841 0.930 . S
C1830 C1826 1.524 . S
C1830 H1842 0.956 . S
C1830 H1843 0.961 . S
C1830 H1844 0.961 . S
C1831 C1828 1.539 . S
C1831 H1845 0.958 . S
C1831 H1846 0.961 . S
C1831 H1847 0.960 . S
H1832 C1816 0.931 . S
H1833 C1821 0.929 . S
H1834 C1822 0.960 . S
H1835 C1822 0.962 . S
H1836 C1822 0.960 . S
H1837 C1823 0.961 . S
H1838 C1823 0.961 . S
H1839 C1823 0.961 . S
H1840 C1824 0.931 . S
H1841 C1829 0.930 . S
H1842 C1830 0.956 . S
H1843 C1830 0.961 . S
H1844 C1830 0.961 . S
H1845 C1831 0.958 . S
H1846 C1831 0.961 . S
H1847 C1831 0.960 . S
C1848 C1849 1.391 . S
C1848 C1850 1.394 . S
C1848 H1864 0.931 . S
C1849 C1848 1.391 . S
C1849 C1853 1.376 . S
C1850 C1848 1.394 . S
C1850 C1851 1.369 . S
C1850 C1854 1.531 . S
C1851 C1850 1.369 . S
C1851 C1852 1.410 . S
C1851 C1859 1.503 . S
C1852 C1851 1.410 . S
C1852 C1853 1.392 . S
C1852 C1855 1.511 . S
C1853 C1849 1.376 . S
C1853 C1852 1.392 . S
C1853 H1865 0.929 . S
C1854 C1850 1.531 . S
C1854 H1866 0.960 . S
C1854 H1867 0.962 . S
C1854 H1868 0.960 . S
C1855 C1852 1.511 . S
C1855 H1869 0.961 . S
C1855 H1870 0.961 . S
C1855 H1871 0.961 . S
C1856 C1857 1.370 . S
C1856 C1858 1.363 . S
C1856 H1872 0.931 . S
C1857 C1856 1.370 . S
C1857 C1861 1.408 . S
C1858 C1856 1.363 . S
C1858 C1859 1.370 . S
C1858 C1862 1.524 . S
C1859 C1851 1.503 . S
C1859 C1858 1.370 . S
C1859 C1860 1.403 . S
C1860 C1859 1.403 . S
C1860 C1861 1.404 . S
C1860 C1863 1.539 . S
C1861 C1857 1.408 . S
C1861 C1860 1.404 . S
C1861 H1873 0.930 . S
C1862 C1858 1.524 . S
C1862 H1874 0.956 . S
C1862 H1875 0.961 . S
C1862 H1876 0.961 . S
C1863 C1860 1.539 . S
C1863 H1877 0.958 . S
C1863 H1878 0.961 . S
C1863 H1879 0.960 . S
H1864 C1848 0.931 . S
H1865 C1853 0.929 . S
H1866 C1854 0.960 . S
H1867 C1854 0.962 . S
H1868 C1854 0.960 . S
H1869 C1855 0.961 . S
H1870 C1855 0.961 . S
H1871 C1855 0.961 . S
H1872 C1856 0.931 . S
H1873 C1861 0.930 . S
H1874 C1862 0.956 . S
H1875 C1862 0.961 . S
H1876 C1862 0.961 . S
H1877 C1863 0.958 . S
H1878 C1863 0.961 . S
H1879 C1863 0.960 . S
C1880 C1881 1.391 . S
C1880 C1882 1.394 . S
C1880 H1896 0.931 . S
C1881 C1880 1.391 . S
C1881 C1885 1.376 . S
C1882 C1880 1.394 . S
C1882 C1883 1.369 . S
C1882 C1886 1.531 . S
C1883 C1882 1.369 . S
C1883 C1884 1.410 . S
C1883 C1891 1.503 . S
C1884 C1883 1.410 . S
C1884 C1885 1.392 . S
C1884 C1887 1.511 . S
C1885 C1881 1.376 . S
C1885 C1884 1.392 . S
C1885 H1897 0.929 . S
C1886 C1882 1.531 . S
C1886 H1898 0.960 . S
C1886 H1899 0.962 . S
C1886 H1900 0.960 . S
C1887 C1884 1.511 . S
C1887 H1901 0.961 . S
C1887 H1902 0.961 . S
C1887 H1903 0.961 . S
C1888 C1889 1.370 . S
C1888 C1890 1.363 . S
C1888 H1904 0.931 . S
C1889 C1888 1.370 . S
C1889 C1893 1.408 . S
C1890 C1888 1.363 . S
C1890 C1891 1.370 . S
C1890 C1894 1.524 . S
C1891 C1883 1.503 . S
C1891 C1890 1.370 . S
C1891 C1892 1.403 . S
C1892 C1891 1.403 . S
C1892 C1893 1.404 . S
C1892 C1895 1.539 . S
C1893 C1889 1.408 . S
C1893 C1892 1.404 . S
C1893 H1905 0.930 . S
C1894 C1890 1.524 . S
C1894 H1906 0.956 . S
C1894 H1907 0.961 . S
C1894 H1908 0.961 . S
C1895 C1892 1.539 . S
C1895 H1909 0.958 . S
C1895 H1910 0.961 . S
C1895 H1911 0.960 . S
H1896 C1880 0.931 . S
H1897 C1885 0.929 . S
H1898 C1886 0.960 . S
H1899 C1886 0.962 . S
H1900 C1886 0.960 . S
H1901 C1887 0.961 . S
H1902 C1887 0.961 . S
H1903 C1887 0.961 . S
H1904 C1888 0.931 . S
H1905 C1893 0.930 . S
H1906 C1894 0.956 . S
H1907 C1894 0.961 . S
H1908 C1894 0.961 . S
H1909 C1895 0.958 . S
H1910 C1895 0.961 . S
H1911 C1895 0.960 . S
C1912 C1913 1.391 . S
C1912 C1914 1.394 . S
C1912 H1928 0.931 . S
C1913 C1912 1.391 . S
C1913 C1917 1.376 . S
C1914 C1912 1.394 . S
C1914 C1915 1.369 . S
C1914 C1918 1.531 1_655 S
C1915 C1914 1.369 . S
C1915 C1916 1.410 . S
C1915 C1923 1.503 . S
C1916 C1915 1.410 . S
C1916 C1917 1.392 . S
C1916 C1919 1.511 . S
C1917 C1913 1.376 . S
C1917 C1916 1.392 . S
C1917 H1929 0.929 . S
C1918 C1914 1.531 1_455 S
C1918 H1930 0.960 . S
C1918 H1931 0.962 . S
C1918 H1932 0.960 1_545 S
C1919 C1916 1.511 . S
C1919 H1933 0.961 . S
C1919 H1934 0.961 . S
C1919 H1935 0.961 . S
C1920 C1921 1.370 . S
C1920 C1922 1.363 . S
C1920 H1936 0.931 . S
C1921 C1920 1.370 . S
C1921 C1925 1.393 1_455 S
C1922 C1920 1.363 . S
C1922 C1923 1.370 1_455 S
C1922 C1926 1.524 . S
C1923 C1915 1.503 . S
C1923 C1922 1.370 1_655 S
C1923 C1924 1.403 . S
C1924 C1923 1.403 . S
C1924 C1925 1.423 . S
C1924 C1927 1.539 1_545 S
C1925 C1921 1.393 1_655 S
C1925 C1924 1.423 . S
C1925 H1937 0.927 . S
C1926 C1922 1.524 . S
C1926 H1938 0.956 . S
C1926 H1939 0.961 1_455 S
C1926 H1940 0.961 . S
C1927 C1924 1.539 1_565 S
C1927 H1941 0.958 . S
C1927 H1942 0.961 . S
C1927 H1943 0.965 . S
H1928 C1912 0.931 . S
H1929 C1917 0.929 . S
H1930 C1918 0.960 . S
H1931 C1918 0.962 . S
H1932 C1918 0.960 1_565 S
H1933 C1919 0.961 . S
H1934 C1919 0.961 . S
H1935 C1919 0.961 . S
H1936 C1920 0.931 . S
H1937 C1925 0.927 . S
H1938 C1926 0.956 . S
H1939 C1926 0.961 1_655 S
H1940 C1926 0.961 . S
H1941 C1927 0.958 . S
H1942 C1927 0.961 . S
H1943 C1927 0.965 . S
C1944 C1945 1.391 . S
C1944 C1946 1.394 . S
C1944 H1960 0.931 . S
C1945 C1944 1.391 . S
C1945 C1949 1.376 . S
C1946 C1944 1.394 . S
C1946 C1947 1.369 . S
C1946 C1950 1.531 . S
C1947 C1946 1.369 . S
C1947 C1948 1.410 . S
C1947 C1955 1.503 . S
C1948 C1947 1.410 . S
C1948 C1949 1.392 . S
C1948 C1951 1.511 . S
C1949 C1945 1.376 . S
C1949 C1948 1.392 . S
C1949 H1961 0.929 . S
C1950 C1946 1.531 . S
C1950 H1962 0.960 . S
C1950 H1963 0.962 . S
C1950 H1964 0.960 . S
C1951 C1948 1.511 . S
C1951 H1965 0.961 . S
C1951 H1966 0.961 . S
C1951 H1967 0.961 . S
C1952 C1953 1.370 . S
C1952 C1954 1.363 . S
C1952 H1968 0.931 . S
C1953 C1952 1.370 . S
C1953 C1957 1.408 . S
C1954 C1952 1.363 . S
C1954 C1955 1.370 . S
C1954 C1958 1.524 . S
C1955 C1947 1.503 . S
C1955 C1954 1.370 . S
C1955 C1956 1.403 . S
C1956 C1955 1.403 . S
C1956 C1957 1.404 . S
C1956 C1959 1.539 . S
C1957 C1953 1.408 . S
C1957 C1956 1.404 . S
C1957 H1969 0.930 . S
C1958 C1954 1.524 . S
C1958 H1970 0.956 . S
C1958 H1971 0.961 . S
C1958 H1972 0.961 . S
C1959 C1956 1.539 . S
C1959 H1973 0.958 . S
C1959 H1974 0.961 . S
C1959 H1975 0.960 . S
H1960 C1944 0.931 . S
H1961 C1949 0.929 . S
H1962 C1950 0.960 . S
H1963 C1950 0.962 . S
H1964 C1950 0.960 . S
H1965 C1951 0.961 . S
H1966 C1951 0.961 . S
H1967 C1951 0.961 . S
H1968 C1952 0.931 . S
H1969 C1957 0.930 . S
H1970 C1958 0.956 . S
H1971 C1958 0.961 . S
H1972 C1958 0.961 . S
H1973 C1959 0.958 . S
H1974 C1959 0.961 . S
H1975 C1959 0.960 . S
C1976 C1977 1.391 . S
C1976 C1978 1.394 . S
C1976 H1992 0.931 . S
C1977 C1976 1.391 . S
C1977 C1981 1.376 . S
C1978 C1976 1.394 . S
C1978 C1979 1.369 . S
C1978 C1982 1.551 . S
C1979 C1978 1.369 . S
C1979 C1980 1.410 . S
C1979 C1987 1.503 . S
C1980 C1979 1.410 . S
C1980 C1981 1.392 . S
C1980 C1983 1.511 . S
C1981 C1977 1.376 . S
C1981 C1980 1.392 . S
C1981 H1993 0.929 . S
C1982 C1978 1.551 . S
C1982 H1994 0.955 1_545 S
C1982 H1995 0.974 . S
C1982 H1996 0.934 1_545 S
C1983 C1980 1.511 . S
C1983 H1997 0.961 . S
C1983 H1998 0.961 . S
C1983 H1999 0.961 . S
C1984 C1985 1.370 . S
C1984 C1986 1.363 . S
C1984 H2000 0.931 . S
C1985 C1984 1.370 . S
C1985 C1989 1.408 . S
C1986 C1984 1.363 . S
C1986 C1987 1.370 . S
C1986 C1990 1.524 . S
C1987 C1979 1.503 . S
C1987 C1986 1.370 . S
C1987 C1988 1.403 . S
C1988 C1987 1.403 . S
C1988 C1989 1.404 . S
C1988 C1991 1.539 . S
C1989 C1985 1.408 . S
C1989 C1988 1.404 . S
C1989 H2001 0.930 . S
C1990 C1986 1.524 . S
C1990 H2002 0.956 . S
C1990 H2003 0.961 . S
C1990 H2004 0.961 . S
C1991 C1988 1.539 . S
C1991 H2005 0.958 1_545 S
C1991 H2006 0.964 1_545 S
C1991 H2007 0.960 . S
H1992 C1976 0.931 . S
H1993 C1981 0.929 . S
H1994 C1982 0.955 1_565 S
H1995 C1982 0.974 . S
H1996 C1982 0.934 1_565 S
H1997 C1983 0.961 . S
H1998 C1983 0.961 . S
H1999 C1983 0.961 . S
H2000 C1984 0.931 . S
H2001 C1989 0.930 . S
H2002 C1990 0.956 . S
H2003 C1990 0.961 . S
H2004 C1990 0.961 . S
H2005 C1991 0.958 1_565 S
H2006 C1991 0.964 1_565 S
H2007 C1991 0.960 . S
C2008 C2009 1.391 . S
C2008 C2010 1.394 . S
C2008 H2024 0.931 . S
C2009 C2008 1.391 . S
C2009 C2013 1.376 . S
C2010 C2008 1.394 . S
C2010 C2011 1.369 . S
C2010 C2014 1.531 . S
C2011 C2010 1.369 . S
C2011 C2012 1.410 . S
C2011 C2019 1.503 . S
C2012 C2011 1.410 . S
C2012 C2013 1.392 . S
C2012 C2015 1.511 . S
C2013 C2009 1.376 . S
C2013 C2012 1.392 . S
C2013 H2025 0.929 . S
C2014 C2010 1.531 . S
C2014 H2026 0.960 . S
C2014 H2027 0.962 . S
C2014 H2028 0.960 . S
C2015 C2012 1.511 . S
C2015 H2029 0.961 . S
C2015 H2030 0.961 . S
C2015 H2031 0.961 . S
C2016 C2017 1.370 . S
C2016 C2018 1.363 . S
C2016 H2032 0.931 . S
C2017 C2016 1.370 . S
C2017 C2021 1.408 . S
C2018 C2016 1.363 . S
C2018 C2019 1.370 . S
C2018 C2022 1.524 . S
C2019 C2011 1.503 . S
C2019 C2018 1.370 . S
C2019 C2020 1.403 . S
C2020 C2019 1.403 . S
C2020 C2021 1.404 . S
C2020 C2023 1.539 . S
C2021 C2017 1.408 . S
C2021 C2020 1.404 . S
C2021 H2033 0.930 . S
C2022 C2018 1.524 . S
C2022 H2034 0.956 . S
C2022 H2035 0.961 . S
C2022 H2036 0.961 . S
C2023 C2020 1.539 . S
C2023 H2037 0.958 . S
C2023 H2038 0.961 . S
C2023 H2039 0.960 . S
H2024 C2008 0.931 . S
H2025 C2013 0.929 . S
H2026 C2014 0.960 . S
H2027 C2014 0.962 . S
H2028 C2014 0.960 . S
H2029 C2015 0.961 . S
H2030 C2015 0.961 . S
H2031 C2015 0.961 . S
H2032 C2016 0.931 . S
H2033 C2021 0.930 . S
H2034 C2022 0.956 . S
H2035 C2022 0.961 . S
H2036 C2022 0.961 . S
H2037 C2023 0.958 . S
H2038 C2023 0.961 . S
H2039 C2023 0.960 . S
C2040 C2041 1.391 . S
C2040 C2042 1.394 . S
C2040 H2056 0.931 1_545 S
C2041 C2040 1.391 . S
C2041 C2045 1.376 . S
C2042 C2040 1.394 . S
C2042 C2043 1.369 . S
C2042 C2046 1.531 1_645 S
C2043 C2042 1.369 . S
C2043 C2044 1.410 . S
C2043 C2051 1.503 . S
C2044 C2043 1.410 . S
C2044 C2045 1.392 . S
C2044 C2047 1.511 . S
C2045 C2041 1.376 . S
C2045 C2044 1.392 . S
C2045 H2057 0.929 . S
C2046 C2042 1.531 1_465 S
C2046 H2058 0.960 1_565 S
C2046 H2059 0.966 . S
C2046 H2060 0.960 . S
C2047 C2044 1.511 . S
C2047 H2061 0.961 . S
C2047 H2062 0.961 . S
C2047 H2063 0.961 . S
C2048 C2049 1.370 1_655 S
C2048 C2050 1.363 . S
C2048 H2064 0.931 1_545 S
C2049 C2048 1.370 1_455 S
C2049 C2053 1.408 . S
C2050 C2048 1.363 . S
C2050 C2051 1.370 . S
C2050 C2054 1.524 1_545 S
C2051 C2043 1.503 . S
C2051 C2050 1.370 . S
C2051 C2052 1.403 1_655 S
C2052 C2051 1.403 1_455 S
C2052 C2053 1.404 . S
C2052 C2055 1.539 . S
C2053 C2049 1.408 . S
C2053 C2052 1.404 . S
C2053 H2065 0.930 . S
C2054 C2050 1.524 1_565 S
C2054 H2066 0.956 . S
C2054 H2067 0.961 . S
C2054 H2068 0.961 . S
C2055 C2052 1.539 . S
C2055 H2069 0.958 . S
C2055 H2070 0.961 . S
C2055 H2071 0.960 . S
H2056 C2040 0.931 1_565 S
H2057 C2045 0.929 . S
H2058 C2046 0.960 1_545 S
H2059 C2046 0.966 . S
H2060 C2046 0.960 . S
H2061 C2047 0.961 . S
H2062 C2047 0.961 . S
H2063 C2047 0.961 . S
H2064 C2048 0.931 1_565 S
H2065 C2053 0.930 . S
H2066 C2054 0.956 . S
H2067 C2054 0.961 . S
H2068 C2054 0.961 . S
H2069 C2055 0.958 . S
H2070 C2055 0.961 . S
H2071 C2055 0.960 . S
C2072 C2073 1.391 . S
C2072 C2074 1.394 . S
C2072 H2088 0.931 . S
C2073 C2072 1.391 . S
C2073 C2077 1.376 . S
C2074 C2072 1.394 . S
C2074 C2075 1.369 . S
C2074 C2078 1.531 . S
C2075 C2074 1.369 . S
C2075 C2076 1.410 . S
C2075 C2083 1.503 . S
C2076 C2075 1.410 . S
C2076 C2077 1.392 . S
C2076 C2079 1.511 . S
C2077 C2073 1.376 . S
C2077 C2076 1.392 . S
C2077 H2089 0.929 . S
C2078 C2074 1.531 . S
C2078 H2090 0.960 . S
C2078 H2091 0.962 . S
C2078 H2092 0.960 . S
C2079 C2076 1.511 . S
C2079 H2093 0.961 . S
C2079 H2094 0.961 . S
C2079 H2095 0.961 . S
C2080 C2081 1.370 . S
C2080 C2082 1.363 . S
C2080 H2096 0.931 . S
C2081 C2080 1.370 . S
C2081 C2085 1.408 . S
C2082 C2080 1.363 . S
C2082 C2083 1.370 . S
C2082 C2086 1.524 . S
C2083 C2075 1.503 . S
C2083 C2082 1.370 . S
C2083 C2084 1.403 . S
C2084 C2083 1.403 . S
C2084 C2085 1.404 . S
C2084 C2087 1.539 . S
C2085 C2081 1.408 . S
C2085 C2084 1.404 . S
C2085 H2097 0.930 . S
C2086 C2082 1.524 . S
C2086 H2098 0.956 . S
C2086 H2099 0.961 . S
C2086 H2100 0.961 . S
C2087 C2084 1.539 . S
C2087 H2101 0.958 . S
C2087 H2102 0.961 . S
C2087 H2103 0.960 . S
H2088 C2072 0.931 . S
H2089 C2077 0.929 . S
H2090 C2078 0.960 . S
H2091 C2078 0.962 . S
H2092 C2078 0.960 . S
H2093 C2079 0.961 . S
H2094 C2079 0.961 . S
H2095 C2079 0.961 . S
H2096 C2080 0.931 . S
H2097 C2085 0.930 . S
H2098 C2086 0.956 . S
H2099 C2086 0.961 . S
H2100 C2086 0.961 . S
H2101 C2087 0.958 . S
H2102 C2087 0.961 . S
H2103 C2087 0.960 . S
C2104 C2105 1.391 . S
C2104 C2106 1.394 . S
C2104 H2120 0.931 . S
C2105 C2104 1.391 . S
C2105 C2109 1.376 . S
C2106 C2104 1.394 . S
C2106 C2107 1.369 . S
C2106 C2110 1.531 . S
C2107 C2106 1.369 . S
C2107 C2108 1.410 . S
C2107 C2115 1.503 . S
C2108 C2107 1.410 . S
C2108 C2109 1.392 . S
C2108 C2111 1.511 . S
C2109 C2105 1.376 . S
C2109 C2108 1.392 . S
C2109 H2121 0.929 . S
C2110 C2106 1.531 . S
C2110 H2122 0.960 . S
C2110 H2123 0.962 . S
C2110 H2124 0.960 . S
C2111 C2108 1.511 . S
C2111 H2125 0.961 . S
C2111 H2126 0.961 . S
C2111 H2127 0.961 . S
C2112 C2113 1.370 . S
C2112 C2114 1.363 . S
C2112 H2128 0.931 . S
C2113 C2112 1.370 . S
C2113 C2117 1.408 . S
C2114 C2112 1.363 . S
C2114 C2115 1.370 . S
C2114 C2118 1.524 . S
C2115 C2107 1.503 . S
C2115 C2114 1.370 . S
C2115 C2116 1.403 . S
C2116 C2115 1.403 . S
C2116 C2117 1.404 . S
C2116 C2119 1.539 . S
C2117 C2113 1.408 . S
C2117 C2116 1.404 . S
C2117 H2129 0.930 . S
C2118 C2114 1.524 . S
C2118 H2130 0.956 . S
C2118 H2131 0.961 . S
C2118 H2132 0.961 . S
C2119 C2116 1.539 . S
C2119 H2133 0.958 . S
C2119 H2134 0.961 . S
C2119 H2135 0.960 . S
H2120 C2104 0.931 . S
H2121 C2109 0.929 . S
H2122 C2110 0.960 . S
H2123 C2110 0.962 . S
H2124 C2110 0.960 . S
H2125 C2111 0.961 . S
H2126 C2111 0.961 . S
H2127 C2111 0.961 . S
H2128 C2112 0.931 . S
H2129 C2117 0.930 . S
H2130 C2118 0.956 . S
H2131 C2118 0.961 . S
H2132 C2118 0.961 . S
H2133 C2119 0.958 . S
H2134 C2119 0.961 . S
H2135 C2119 0.960 . S
C2136 C2137 1.391 . S
C2136 C2138 1.394 . S
C2136 H2152 0.931 . S
C2137 C2136 1.391 . S
C2137 C2141 1.376 . S
C2138 C2136 1.394 . S
C2138 C2139 1.369 . S
C2138 C2142 1.531 . S
C2139 C2138 1.369 . S
C2139 C2140 1.410 . S
C2139 C2147 1.503 . S
C2140 C2139 1.410 . S
C2140 C2141 1.392 . S
C2140 C2143 1.511 . S
C2141 C2137 1.376 . S
C2141 C2140 1.392 . S
C2141 H2153 0.929 . S
C2142 C2138 1.531 . S
C2142 H2154 0.960 . S
C2142 H2155 0.962 . S
C2142 H2156 0.960 . S
C2143 C2140 1.511 . S
C2143 H2157 0.961 . S
C2143 H2158 0.961 . S
C2143 H2159 0.961 . S
C2144 C2145 1.370 . S
C2144 C2146 1.363 . S
C2144 H2160 0.931 . S
C2145 C2144 1.370 . S
C2145 C2149 1.408 . S
C2146 C2144 1.363 . S
C2146 C2147 1.370 . S
C2146 C2150 1.524 . S
C2147 C2139 1.503 . S
C2147 C2146 1.370 . S
C2147 C2148 1.403 . S
C2148 C2147 1.403 . S
C2148 C2149 1.404 . S
C2148 C2151 1.539 . S
C2149 C2145 1.408 . S
C2149 C2148 1.404 . S
C2149 H2161 0.930 . S
C2150 C2146 1.524 . S
C2150 H2162 0.956 . S
C2150 H2163 0.961 . S
C2150 H2164 0.961 . S
C2151 C2148 1.539 . S
C2151 H2165 0.958 . S
C2151 H2166 0.961 . S
C2151 H2167 0.960 . S
H2152 C2136 0.931 . S
H2153 C2141 0.929 . S
H2154 C2142 0.960 . S
H2155 C2142 0.962 . S
H2156 C2142 0.960 . S
H2157 C2143 0.961 . S
H2158 C2143 0.961 . S
H2159 C2143 0.961 . S
H2160 C2144 0.931 . S
H2161 C2149 0.930 . S
H2162 C2150 0.956 . S
H2163 C2150 0.961 . S
H2164 C2150 0.961 . S
H2165 C2151 0.958 . S
H2166 C2151 0.961 . S
H2167 C2151 0.960 . S
C2168 C2169 1.391 1_556 S
C2168 C2170 1.394 . S
C2168 H2184 0.931 . S
C2169 C2168 1.391 1_554 S
C2169 C2173 1.376 . S
C2170 C2168 1.394 . S
C2170 C2171 1.369 1_556 S
C2170 C2174 1.531 . S
C2171 C2170 1.369 1_554 S
C2171 C2172 1.410 . S
C2171 C2179 1.503 . S
C2172 C2171 1.410 . S
C2172 C2173 1.392 . S
C2172 C2175 1.511 . S
C2173 C2169 1.376 . S
C2173 C2172 1.392 . S
C2173 H2185 0.929 . S
C2174 C2170 1.531 . S
C2174 H2186 0.960 . S
C2174 H2187 0.962 1_565 S
C2174 H2188 0.960 . S
C2175 C2172 1.511 . S
C2175 H2189 0.961 . S
C2175 H2190 0.961 . S
C2175 H2191 0.961 . S
C2176 C2177 1.370 . S
C2176 C2178 1.363 . S
C2176 H2192 0.931 . S
C2177 C2176 1.370 . S
C2177 C2181 1.408 1_545 S
C2178 C2176 1.363 . S
C2178 C2179 1.370 1_545 S
C2178 C2182 1.524 . S
C2179 C2171 1.503 . S
C2179 C2178 1.370 1_565 S
C2179 C2180 1.403 . S
C2180 C2179 1.403 . S
C2180 C2181 1.404 . S
C2180 C2183 1.539 . S
C2181 C2177 1.408 1_565 S
C2181 C2180 1.404 . S
C2181 H2193 0.930 . S
C2182 C2178 1.524 . S
C2182 H2194 0.956 . S
C2182 H2195 0.961 . S
C2182 H2196 0.961 . S
C2183 C2180 1.539 . S
C2183 H2197 0.958 1_554 S
C2183 H2198 0.961 . S
C2183 H2199 0.960 . S
H2184 C2168 0.931 . S
H2185 C2173 0.929 . S
H2186 C2174 0.960 . S
H2187 C2174 0.962 1_545 S
H2188 C2174 0.960 . S
H2189 C2175 0.961 . S
H2190 C2175 0.961 . S
H2191 C2175 0.961 . S
H2192 C2176 0.931 . S
H2193 C2181 0.930 . S
H2194 C2182 0.956 . S
H2195 C2182 0.961 . S
H2196 C2182 0.961 . S
H2197 C2183 0.958 1_556 S
H2198 C2183 0.961 . S
H2199 C2183 0.960 . S
C2200 C2201 1.390 1_556 S
C2200 C2202 1.392 1_556 S
C2200 H2216 0.933 . S
C2201 C2200 1.390 1_554 S
C2201 C2205 1.376 . S
C2202 C2200 1.392 1_554 S
C2202 C2203 1.369 . S
C2202 C2206 1.531 1_554 S
C2203 C2202 1.369 . S
C2203 C2204 1.410 . S
C2203 C2211 1.503 . S
C2204 C2203 1.410 . S
C2204 C2205 1.392 . S
C2204 C2207 1.511 . S
C2205 C2201 1.376 . S
C2205 C2204 1.392 . S
C2205 H2217 0.929 . S
C2206 C2202 1.531 1_556 S
C2206 H2218 0.960 1_556 S
C2206 H2219 0.962 . S
C2206 H2220 0.960 . S
C2207 C2204 1.511 . S
C2207 H2221 0.961 . S
C2207 H2222 0.961 . S
C2207 H2223 0.961 . S
C2208 C2209 1.370 1_556 S
C2208 C2210 1.363 . S
C2208 H2224 0.931 . S
C2209 C2208 1.370 1_554 S
C2209 C2213 1.408 . S
C2210 C2208 1.363 . S
C2210 C2211 1.370 1_556 S
C2210 C2214 1.524 . S
C2211 C2203 1.503 . S
C2211 C2210 1.370 1_554 S
C2211 C2212 1.403 . S
C2212 C2211 1.403 . S
C2212 C2213 1.404 . S
C2212 C2215 1.539 . S
C2213 C2209 1.408 . S
C2213 C2212 1.404 . S
C2213 H2225 0.930 . S
C2214 C2210 1.524 . S
C2214 H2226 0.956 . S
C2214 H2227 0.961 . S
C2214 H2228 0.961 . S
C2215 C2212 1.539 . S
C2215 H2229 0.958 . S
C2215 H2230 0.961 . S
C2215 H2231 0.960 . S
H2216 C2200 0.933 . S
H2217 C2205 0.929 . S
H2218 C2206 0.960 1_554 S
H2219 C2206 0.962 . S
H2220 C2206 0.960 . S
H2221 C2207 0.961 . S
H2222 C2207 0.961 . S
H2223 C2207 0.961 . S
H2224 C2208 0.931 . S
H2225 C2213 0.930 . S
H2226 C2214 0.956 . S
H2227 C2214 0.961 . S
H2228 C2214 0.961 . S
H2229 C2215 0.958 . S
H2230 C2215 0.961 . S
H2231 C2215 0.960 . S
C2232 C2233 1.391 . S
C2232 C2234 1.394 . S
C2232 H2248 0.931 . S
C2233 C2232 1.391 . S
C2233 C2237 1.376 . S
C2234 C2232 1.394 . S
C2234 C2235 1.369 . S
C2234 C2238 1.531 . S
C2235 C2234 1.369 . S
C2235 C2236 1.410 . S
C2235 C2243 1.503 . S
C2236 C2235 1.410 . S
C2236 C2237 1.392 . S
C2236 C2239 1.511 . S
C2237 C2233 1.376 . S
C2237 C2236 1.392 . S
C2237 H2249 0.929 . S
C2238 C2234 1.531 . S
C2238 H2250 0.960 . S
C2238 H2251 0.962 . S
C2238 H2252 0.960 . S
C2239 C2236 1.511 . S
C2239 H2253 0.961 . S
C2239 H2254 0.961 . S
C2239 H2255 0.961 . S
C2240 C2241 1.370 . S
C2240 C2242 1.363 . S
C2240 H2256 0.931 . S
C2241 C2240 1.370 . S
C2241 C2245 1.408 . S
C2242 C2240 1.363 . S
C2242 C2243 1.370 . S
C2242 C2246 1.524 . S
C2243 C2235 1.503 . S
C2243 C2242 1.370 . S
C2243 C2244 1.403 . S
C2244 C2243 1.403 . S
C2244 C2245 1.404 . S
C2244 C2247 1.539 . S
C2245 C2241 1.408 . S
C2245 C2244 1.404 . S
C2245 H2257 0.930 . S
C2246 C2242 1.524 . S
C2246 H2258 0.956 . S
C2246 H2259 0.961 . S
C2246 H2260 0.961 . S
C2247 C2244 1.539 . S
C2247 H2261 0.958 . S
C2247 H2262 0.961 . S
C2247 H2263 0.960 . S
H2248 C2232 0.931 . S
H2249 C2237 0.929 . S
H2250 C2238 0.960 . S
H2251 C2238 0.962 . S
H2252 C2238 0.960 . S
H2253 C2239 0.961 . S
H2254 C2239 0.961 . S
H2255 C2239 0.961 . S
H2256 C2240 0.931 . S
H2257 C2245 0.930 . S
H2258 C2246 0.956 . S
H2259 C2246 0.961 . S
H2260 C2246 0.961 . S
H2261 C2247 0.958 . S
H2262 C2247 0.961 . S
H2263 C2247 0.960 . S
C2264 C2265 1.391 . S
C2264 C2266 1.394 . S
C2264 H2280 0.931 . S
C2265 C2264 1.391 . S
C2265 C2269 1.376 . S
C2266 C2264 1.394 . S
C2266 C2267 1.369 . S
C2266 C2270 1.531 . S
C2267 C2266 1.369 . S
C2267 C2268 1.410 . S
C2267 C2275 1.503 . S
C2268 C2267 1.410 . S
C2268 C2269 1.392 . S
C2268 C2271 1.511 . S
C2269 C2265 1.376 . S
C2269 C2268 1.392 . S
C2269 H2281 0.929 . S
C2270 C2266 1.531 . S
C2270 H2282 0.960 . S
C2270 H2283 0.962 . S
C2270 H2284 0.960 . S
C2271 C2268 1.511 . S
C2271 H2285 0.961 . S
C2271 H2286 0.961 . S
C2271 H2287 0.961 . S
C2272 C2273 1.370 . S
C2272 C2274 1.363 . S
C2272 H2288 0.931 . S
C2273 C2272 1.370 . S
C2273 C2277 1.408 . S
C2274 C2272 1.363 . S
C2274 C2275 1.370 . S
C2274 C2278 1.524 . S
C2275 C2267 1.503 . S
C2275 C2274 1.370 . S
C2275 C2276 1.403 . S
C2276 C2275 1.403 . S
C2276 C2277 1.404 . S
C2276 C2279 1.539 . S
C2277 C2273 1.408 . S
C2277 C2276 1.404 . S
C2277 H2289 0.930 . S
C2278 C2274 1.524 . S
C2278 H2290 0.956 . S
C2278 H2291 0.961 . S
C2278 H2292 0.961 . S
C2279 C2276 1.539 . S
C2279 H2293 0.958 . S
C2279 H2294 0.961 . S
C2279 H2295 0.960 . S
H2280 C2264 0.931 . S
H2281 C2269 0.929 . S
H2282 C2270 0.960 . S
H2283 C2270 0.962 . S
H2284 C2270 0.960 . S
H2285 C2271 0.961 . S
H2286 C2271 0.961 . S
H2287 C2271 0.961 . S
H2288 C2272 0.931 . S
H2289 C2277 0.930 . S
H2290 C2278 0.956 . S
H2291 C2278 0.961 . S
H2292 C2278 0.961 . S
H2293 C2279 0.958 . S
H2294 C2279 0.961 . S
H2295 C2279 0.960 . S
C2296 C2297 1.391 . S
C2296 C2298 1.394 . S
C2296 H2312 0.931 . S
C2297 C2296 1.391 . S
C2297 C2301 1.376 . S
C2298 C2296 1.394 . S
C2298 C2299 1.369 . S
C2298 C2302 1.531 . S
C2299 C2298 1.369 . S
C2299 C2300 1.410 . S
C2299 C2307 1.503 . S
C2300 C2299 1.410 . S
C2300 C2301 1.392 . S
C2300 C2303 1.511 . S
C2301 C2297 1.376 . S
C2301 C2300 1.392 . S
C2301 H2313 0.929 . S
C2302 C2298 1.531 . S
C2302 H2314 0.960 . S
C2302 H2315 0.962 . S
C2302 H2316 0.960 . S
C2303 C2300 1.511 . S
C2303 H2317 0.961 . S
C2303 H2318 0.961 . S
C2303 H2319 0.961 . S
C2304 C2305 1.370 . S
C2304 C2306 1.363 . S
C2304 H2320 0.931 . S
C2305 C2304 1.370 . S
C2305 C2309 1.408 . S
C2306 C2304 1.363 . S
C2306 C2307 1.370 . S
C2306 C2310 1.524 . S
C2307 C2299 1.503 . S
C2307 C2306 1.370 . S
C2307 C2308 1.403 . S
C2308 C2307 1.403 . S
C2308 C2309 1.404 . S
C2308 C2311 1.539 . S
C2309 C2305 1.408 . S
C2309 C2308 1.404 . S
C2309 H2321 0.930 . S
C2310 C2306 1.524 . S
C2310 H2322 0.956 . S
C2310 H2323 0.961 . S
C2310 H2324 0.961 . S
C2311 C2308 1.539 . S
C2311 H2325 0.958 . S
C2311 H2326 0.961 . S
C2311 H2327 0.960 . S
H2312 C2296 0.931 . S
H2313 C2301 0.929 . S
H2314 C2302 0.960 . S
H2315 C2302 0.962 . S
H2316 C2302 0.960 . S
H2317 C2303 0.961 . S
H2318 C2303 0.961 . S
H2319 C2303 0.961 . S
H2320 C2304 0.931 . S
H2321 C2309 0.930 . S
H2322 C2310 0.956 . S
H2323 C2310 0.961 . S
H2324 C2310 0.961 . S
H2325 C2311 0.958 . S
H2326 C2311 0.961 . S
H2327 C2311 0.960 . S
C2328 C2329 1.391 . S
C2328 C2330 1.394 . S
C2328 H2344 0.931 . S
C2329 C2328 1.391 . S
C2329 C2333 1.376 . S
C2330 C2328 1.394 . S
C2330 C2331 1.369 . S
C2330 C2334 1.531 . S
C2331 C2330 1.369 . S
C2331 C2332 1.410 . S
C2331 C2339 1.503 . S
C2332 C2331 1.410 . S
C2332 C2333 1.392 . S
C2332 C2335 1.511 . S
C2333 C2329 1.376 . S
C2333 C2332 1.392 . S
C2333 H2345 0.929 . S
C2334 C2330 1.531 . S
C2334 H2346 0.960 . S
C2334 H2347 0.962 . S
C2334 H2348 0.960 . S
C2335 C2332 1.511 . S
C2335 H2349 0.961 . S
C2335 H2350 0.961 . S
C2335 H2351 0.961 . S
C2336 C2337 1.370 . S
C2336 C2338 1.363 . S
C2336 H2352 0.931 . S
C2337 C2336 1.370 . S
C2337 C2341 1.408 . S
C2338 C2336 1.363 . S
C2338 C2339 1.370 . S
C2338 C2342 1.524 . S
C2339 C2331 1.503 . S
C2339 C2338 1.370 . S
C2339 C2340 1.403 . S
C2340 C2339 1.403 . S
C2340 C2341 1.404 . S
C2340 C2343 1.539 . S
C2341 C2337 1.408 . S
C2341 C2340 1.404 . S
C2341 H2353 0.930 . S
C2342 C2338 1.524 . S
C2342 H2354 0.956 . S
C2342 H2355 0.961 . S
C2342 H2356 0.961 . S
C2343 C2340 1.539 . S
C2343 H2357 0.958 . S
C2343 H2358 0.961 . S
C2343 H2359 0.960 . S
H2344 C2328 0.931 . S
H2345 C2333 0.929 . S
H2346 C2334 0.960 . S
H2347 C2334 0.962 . S
H2348 C2334 0.960 . S
H2349 C2335 0.961 . S
H2350 C2335 0.961 . S
H2351 C2335 0.961 . S
H2352 C2336 0.931 . S
H2353 C2341 0.930 . S
H2354 C2342 0.956 . S
H2355 C2342 0.961 . S
H2356 C2342 0.961 . S
H2357 C2343 0.958 . S
H2358 C2343 0.961 . S
H2359 C2343 0.960 . S
C2360 C2361 1.391 . S
C2360 C2362 1.394 . S
C2360 H2376 0.931 . S
C2361 C2360 1.391 . S
C2361 C2365 1.376 . S
C2362 C2360 1.394 . S
C2362 C2363 1.369 . S
C2362 C2366 1.531 . S
C2363 C2362 1.369 . S
C2363 C2364 1.410 . S
C2363 C2371 1.503 . S
C2364 C2363 1.410 . S
C2364 C2365 1.392 . S
C2364 C2367 1.511 . S
C2365 C2361 1.376 . S
C2365 C2364 1.392 . S
C2365 H2377 0.929 . S
C2366 C2362 1.531 . S
C2366 H2378 0.960 . S
C2366 H2379 0.962 . S
C2366 H2380 0.960 . S
C2367 C2364 1.511 . S
C2367 H2381 0.961 . S
C2367 H2382 0.961 . S
C2367 H2383 0.961 . S
C2368 C2369 1.370 . S
C2368 C2370 1.363 . S
C2368 H2384 0.931 . S
C2369 C2368 1.370 . S
C2369 C2373 1.408 . S
C2370 C2368 1.363 . S
C2370 C2371 1.370 . S
C2370 C2374 1.524 . S
C2371 C2363 1.503 . S
C2371 C2370 1.370 . S
C2371 C2372 1.403 . S
C2372 C2371 1.403 . S
C2372 C2373 1.404 . S
C2372 C2375 1.539 . S
C2373 C2369 1.408 . S
C2373 C2372 1.404 . S
C2373 H2385 0.930 . S
C2374 C2370 1.524 . S
C2374 H2386 0.956 . S
C2374 H2387 0.961 . S
C2374 H2388 0.961 . S
C2375 C2372 1.539 . S
C2375 H2389 0.958 . S
C2375 H2390 0.961 . S
C2375 H2391 0.960 . S
H2376 C2360 0.931 . S
H2377 C2365 0.929 . S
H2378 C2366 0.960 . S
H2379 C2366 0.962 . S
H2380 C2366 0.960 . S
H2381 C2367 0.961 . S
H2382 C2367 0.961 . S
H2383 C2367 0.961 . S
H2384 C2368 0.931 . S
H2385 C2373 0.930 . S
H2386 C2374 0.956 . S
H2387 C2374 0.961 . S
H2388 C2374 0.961 . S
H2389 C2375 0.958 . S
H2390 C2375 0.961 . S
H2391 C2375 0.960 . S
C2392 C2393 1.391 . S
C2392 C2394 1.394 . S
C2392 H2408 0.931 . S
C2393 C2392 1.391 . S
C2393 C2397 1.376 . S
C2394 C2392 1.394 . S
C2394 C2395 1.369 . S
C2394 C2398 1.531 . S
C2395 C2394 1.369 . S
C2395 C2396 1.410 . S
C2395 C2403 1.503 . S
C2396 C2395 1.410 . S
C2396 C2397 1.392 . S
C2396 C2399 1.511 . S
C2397 C2393 1.376 . S
C2397 C2396 1.392 . S
C2397 H2409 0.929 . S
C2398 C2394 1.531 . S
C2398 H2410 0.960 . S
C2398 H2411 0.962 . S
C2398 H2412 0.960 . S
C2399 C2396 1.511 . S
C2399 H2413 0.961 . S
C2399 H2414 0.961 . S
C2399 H2415 0.961 . S
C2400 C2401 1.370 . S
C2400 C2402 1.363 . S
C2400 H2416 0.931 . S
C2401 C2400 1.370 . S
C2401 C2405 1.408 . S
C2402 C2400 1.363 . S
C2402 C2403 1.370 . S
C2402 C2406 1.524 . S
C2403 C2395 1.503 . S
C2403 C2402 1.370 . S
C2403 C2404 1.403 . S
C2404 C2403 1.403 . S
C2404 C2405 1.404 . S
C2404 C2407 1.539 . S
C2405 C2401 1.408 . S
C2405 C2404 1.404 . S
C2405 H2417 0.930 . S
C2406 C2402 1.524 . S
C2406 H2418 0.956 . S
C2406 H2419 0.961 . S
C2406 H2420 0.961 . S
C2407 C2404 1.539 . S
C2407 H2421 0.958 . S
C2407 H2422 0.961 . S
C2407 H2423 0.960 . S
H2408 C2392 0.931 . S
H2409 C2397 0.929 . S
H2410 C2398 0.960 . S
H2411 C2398 0.962 . S
H2412 C2398 0.960 . S
H2413 C2399 0.961 . S
H2414 C2399 0.961 . S
H2415 C2399 0.961 . S
H2416 C2400 0.931 . S
H2417 C2405 0.930 . S
H2418 C2406 0.956 . S
H2419 C2406 0.961 . S
H2420 C2406 0.961 . S
H2421 C2407 0.958 . S
H2422 C2407 0.961 . S
H2423 C2407 0.960 . S
C2424 C2425 1.391 . S
C2424 C2426 1.394 . S
C2424 H2440 0.931 . S
C2425 C2424 1.391 . S
C2425 C2429 1.376 . S
C2426 C2424 1.394 . S
C2426 C2427 1.369 . S
C2426 C2430 1.531 . S
C2427 C2426 1.369 . S
C2427 C2428 1.410 . S
C2427 C2435 1.503 . S
C2428 C2427 1.410 . S
C2428 C2429 1.392 . S
C2428 C2431 1.511 . S
C2429 C2425 1.376 . S
C2429 C2428 1.392 . S
C2429 H2441 0.929 . S
C2430 C2426 1.531 . S
C2430 H2442 0.960 . S
C2430 H2443 0.962 . S
C2430 H2444 0.960 . S
C2431 C2428 1.511 . S
C2431 H2445 0.961 . S
C2431 H2446 0.961 . S
C2431 H2447 0.961 . S
C2432 C2433 1.370 . S
C2432 C2434 1.363 . S
C2432 H2448 0.931 . S
C2433 C2432 1.370 . S
C2433 C2437 1.408 . S
C2434 C2432 1.363 . S
C2434 C2435 1.370 . S
C2434 C2438 1.524 . S
C2435 C2427 1.503 . S
C2435 C2434 1.370 . S
C2435 C2436 1.403 . S
C2436 C2435 1.403 . S
C2436 C2437 1.404 . S
C2436 C2439 1.539 . S
C2437 C2433 1.408 . S
C2437 C2436 1.404 . S
C2437 H2449 0.930 . S
C2438 C2434 1.524 . S
C2438 H2450 0.956 . S
C2438 H2451 0.961 . S
C2438 H2452 0.961 . S
C2439 C2436 1.539 . S
C2439 H2453 0.958 . S
C2439 H2454 0.961 . S
C2439 H2455 0.960 . S
H2440 C2424 0.931 . S
H2441 C2429 0.929 . S
H2442 C2430 0.960 . S
H2443 C2430 0.962 . S
H2444 C2430 0.960 . S
H2445 C2431 0.961 . S
H2446 C2431 0.961 . S
H2447 C2431 0.961 . S
H2448 C2432 0.931 . S
H2449 C2437 0.930 . S
H2450 C2438 0.956 . S
H2451 C2438 0.961 . S
H2452 C2438 0.961 . S
H2453 C2439 0.958 . S
H2454 C2439 0.961 . S
H2455 C2439 0.960 . S
C2456 C2457 1.391 . S
C2456 C2458 1.394 . S
C2456 H2472 0.931 . S
C2457 C2456 1.391 . S
C2457 C2461 1.376 . S
C2458 C2456 1.394 . S
C2458 C2459 1.369 . S
C2458 C2462 1.531 . S
C2459 C2458 1.369 . S
C2459 C2460 1.410 . S
C2459 C2467 1.503 . S
C2460 C2459 1.410 . S
C2460 C2461 1.392 . S
C2460 C2463 1.511 . S
C2461 C2457 1.376 . S
C2461 C2460 1.392 . S
C2461 H2473 0.929 . S
C2462 C2458 1.531 . S
C2462 H2474 0.960 . S
C2462 H2475 0.962 . S
C2462 H2476 0.960 . S
C2463 C2460 1.511 . S
C2463 H2477 0.961 . S
C2463 H2478 0.961 . S
C2463 H2479 0.961 . S
C2464 C2465 1.370 . S
C2464 C2466 1.363 . S
C2464 H2480 0.931 . S
C2465 C2464 1.370 . S
C2465 C2469 1.408 . S
C2466 C2464 1.363 . S
C2466 C2467 1.370 . S
C2466 C2470 1.524 . S
C2467 C2459 1.503 . S
C2467 C2466 1.370 . S
C2467 C2468 1.403 . S
C2468 C2467 1.403 . S
C2468 C2469 1.404 . S
C2468 C2471 1.539 . S
C2469 C2465 1.408 . S
C2469 C2468 1.404 . S
C2469 H2481 0.930 . S
C2470 C2466 1.524 . S
C2470 H2482 0.956 . S
C2470 H2483 0.961 . S
C2470 H2484 0.961 . S
C2471 C2468 1.539 . S
C2471 H2485 0.958 . S
C2471 H2486 0.961 . S
C2471 H2487 0.960 . S
H2472 C2456 0.931 . S
H2473 C2461 0.929 . S
H2474 C2462 0.960 . S
H2475 C2462 0.962 . S
H2476 C2462 0.960 . S
H2477 C2463 0.961 . S
H2478 C2463 0.961 . S
H2479 C2463 0.961 . S
H2480 C2464 0.931 . S
H2481 C2469 0.930 . S
H2482 C2470 0.956 . S
H2483 C2470 0.961 . S
H2484 C2470 0.961 . S
H2485 C2471 0.958 . S
H2486 C2471 0.961 . S
H2487 C2471 0.960 . S
C2488 C2489 1.391 . S
C2488 C2490 1.394 . S
C2488 H2504 0.931 . S
C2489 C2488 1.391 . S
C2489 C2493 1.376 . S
C2490 C2488 1.394 . S
C2490 C2491 1.369 . S
C2490 C2494 1.531 . S
C2491 C2490 1.369 . S
C2491 C2492 1.410 . S
C2491 C2499 1.503 . S
C2492 C2491 1.410 . S
C2492 C2493 1.392 . S
C2492 C2495 1.511 . S
C2493 C2489 1.376 . S
C2493 C2492 1.392 . S
C2493 H2505 0.929 . S
C2494 C2490 1.531 . S
C2494 H2506 0.960 . S
C2494 H2507 0.962 . S
C2494 H2508 0.960 . S
C2495 C2492 1.511 . S
C2495 H2509 0.961 . S
C2495 H2510 0.961 . S
C2495 H2511 0.961 . S
C2496 C2497 1.370 . S
C2496 C2498 1.363 . S
C2496 H2512 0.931 . S
C2497 C2496 1.370 . S
C2497 C2501 1.408 . S
C2498 C2496 1.363 . S
C2498 C2499 1.370 . S
C2498 C2502 1.524 . S
C2499 C2491 1.503 . S
C2499 C2498 1.370 . S
C2499 C2500 1.403 . S
C2500 C2499 1.403 . S
C2500 C2501 1.404 . S
C2500 C2503 1.539 . S
C2501 C2497 1.408 . S
C2501 C2500 1.404 . S
C2501 H2513 0.930 . S
C2502 C2498 1.524 . S
C2502 H2514 0.956 . S
C2502 H2515 0.961 . S
C2502 H2516 0.961 . S
C2503 C2500 1.539 . S
C2503 H2517 0.958 . S
C2503 H2518 0.961 . S
C2503 H2519 0.960 . S
H2504 C2488 0.931 . S
H2505 C2493 0.929 . S
H2506 C2494 0.960 . S
H2507 C2494 0.962 . S
H2508 C2494 0.960 . S
H2509 C2495 0.961 . S
H2510 C2495 0.961 . S
H2511 C2495 0.961 . S
H2512 C2496 0.931 . S
H2513 C2501 0.930 . S
H2514 C2502 0.956 . S
H2515 C2502 0.961 . S
H2516 C2502 0.961 . S
H2517 C2503 0.958 . S
H2518 C2503 0.961 . S
H2519 C2503 0.960 . S
C2520 C2521 1.391 . S
C2520 C2522 1.394 . S
C2520 H2536 0.931 . S
C2521 C2520 1.391 . S
C2521 C2525 1.376 . S
C2522 C2520 1.394 . S
C2522 C2523 1.369 . S
C2522 C2526 1.531 . S
C2523 C2522 1.369 . S
C2523 C2524 1.410 . S
C2523 C2531 1.503 . S
C2524 C2523 1.410 . S
C2524 C2525 1.392 . S
C2524 C2527 1.511 . S
C2525 C2521 1.376 . S
C2525 C2524 1.392 . S
C2525 H2537 0.929 . S
C2526 C2522 1.531 . S
C2526 H2538 0.960 . S
C2526 H2539 0.962 . S
C2526 H2540 0.960 . S
C2527 C2524 1.511 . S
C2527 H2541 0.961 . S
C2527 H2542 0.961 . S
C2527 H2543 0.961 . S
C2528 C2529 1.370 . S
C2528 C2530 1.363 . S
C2528 H2544 0.931 . S
C2529 C2528 1.370 . S
C2529 C2533 1.408 . S
C2530 C2528 1.363 . S
C2530 C2531 1.370 . S
C2530 C2534 1.524 . S
C2531 C2523 1.503 . S
C2531 C2530 1.370 . S
C2531 C2532 1.403 . S
C2532 C2531 1.403 . S
C2532 C2533 1.404 . S
C2532 C2535 1.539 . S
C2533 C2529 1.408 . S
C2533 C2532 1.404 . S
C2533 H2545 0.930 . S
C2534 C2530 1.524 . S
C2534 H2546 0.956 . S
C2534 H2547 0.961 . S
C2534 H2548 0.961 . S
C2535 C2532 1.539 . S
C2535 H2549 0.958 . S
C2535 H2550 0.961 . S
C2535 H2551 0.960 . S
H2536 C2520 0.931 . S
H2537 C2525 0.929 . S
H2538 C2526 0.960 . S
H2539 C2526 0.962 . S
H2540 C2526 0.960 . S
H2541 C2527 0.961 . S
H2542 C2527 0.961 . S
H2543 C2527 0.961 . S
H2544 C2528 0.931 . S
H2545 C2533 0.930 . S
H2546 C2534 0.956 . S
H2547 C2534 0.961 . S
H2548 C2534 0.961 . S
H2549 C2535 0.958 . S
H2550 C2535 0.961 . S
H2551 C2535 0.960 . S
C2552 C2553 1.391 . S
C2552 C2554 1.394 . S
C2552 H2568 0.931 . S
C2553 C2552 1.391 . S
C2553 C2557 1.376 . S
C2554 C2552 1.394 . S
C2554 C2555 1.369 . S
C2554 C2558 1.531 . S
C2555 C2554 1.369 . S
C2555 C2556 1.410 . S
C2555 C2563 1.503 . S
C2556 C2555 1.410 . S
C2556 C2557 1.392 . S
C2556 C2559 1.511 . S
C2557 C2553 1.376 . S
C2557 C2556 1.392 . S
C2557 H2569 0.929 . S
C2558 C2554 1.531 . S
C2558 H2570 0.960 . S
C2558 H2571 0.962 . S
C2558 H2572 0.960 . S
C2559 C2556 1.511 . S
C2559 H2573 0.961 . S
C2559 H2574 0.961 . S
C2559 H2575 0.961 . S
C2560 C2561 1.370 . S
C2560 C2562 1.363 . S
C2560 H2576 0.931 . S
C2561 C2560 1.370 . S
C2561 C2565 1.408 . S
C2562 C2560 1.363 . S
C2562 C2563 1.370 . S
C2562 C2566 1.524 . S
C2563 C2555 1.503 . S
C2563 C2562 1.370 . S
C2563 C2564 1.403 . S
C2564 C2563 1.403 . S
C2564 C2565 1.404 . S
C2564 C2567 1.539 1_455 S
C2565 C2561 1.408 . S
C2565 C2564 1.404 . S
C2565 H2577 0.930 . S
C2566 C2562 1.524 . S
C2566 H2578 0.956 . S
C2566 H2579 0.961 . S
C2566 H2580 0.961 . S
C2567 C2564 1.539 1_655 S
C2567 H2581 0.958 . S
C2567 H2582 0.961 . S
C2567 H2583 0.960 . S
H2568 C2552 0.931 . S
H2569 C2557 0.929 . S
H2570 C2558 0.960 . S
H2571 C2558 0.962 . S
H2572 C2558 0.960 . S
H2573 C2559 0.961 . S
H2574 C2559 0.961 . S
H2575 C2559 0.961 . S
H2576 C2560 0.931 . S
H2577 C2565 0.930 . S
H2578 C2566 0.956 . S
H2579 C2566 0.961 . S
H2580 C2566 0.961 . S
H2581 C2567 0.958 . S
H2582 C2567 0.961 . S
H2583 C2567 0.960 . S
C2584 C2585 1.391 . S
C2584 C2586 1.394 . S
C2584 H2600 0.931 . S
C2585 C2584 1.391 . S
C2585 C2589 1.376 . S
C2586 C2584 1.394 . S
C2586 C2587 1.369 . S
C2586 C2590 1.531 . S
C2587 C2586 1.369 . S
C2587 C2588 1.410 . S
C2587 C2595 1.503 . S
C2588 C2587 1.410 . S
C2588 C2589 1.392 . S
C2588 C2591 1.511 . S
C2589 C2585 1.376 . S
C2589 C2588 1.392 . S
C2589 H2601 0.929 . S
C2590 C2586 1.531 . S
C2590 H2602 0.960 . S
C2590 H2603 0.962 . S
C2590 H2604 0.960 . S
C2591 C2588 1.511 . S
C2591 H2605 0.961 . S
C2591 H2606 0.961 . S
C2591 H2607 0.961 . S
C2592 C2593 1.370 . S
C2592 C2594 1.363 . S
C2592 H2608 0.931 . S
C2593 C2592 1.370 . S
C2593 C2597 1.408 . S
C2594 C2592 1.363 . S
C2594 C2595 1.370 . S
C2594 C2598 1.524 . S
C2595 C2587 1.503 . S
C2595 C2594 1.370 . S
C2595 C2596 1.403 . S
C2596 C2595 1.403 . S
C2596 C2597 1.404 . S
C2596 C2599 1.539 . S
C2597 C2593 1.408 . S
C2597 C2596 1.404 . S
C2597 H2609 0.930 . S
C2598 C2594 1.524 . S
C2598 H2610 0.956 . S
C2598 H2611 0.961 . S
C2598 H2612 0.961 . S
C2599 C2596 1.539 . S
C2599 H2613 0.958 . S
C2599 H2614 0.961 . S
C2599 H2615 0.960 . S
H2600 C2584 0.931 . S
H2601 C2589 0.929 . S
H2602 C2590 0.960 . S
H2603 C2590 0.962 . S
H2604 C2590 0.960 . S
H2605 C2591 0.961 . S
H2606 C2591 0.961 . S
H2607 C2591 0.961 . S
H2608 C2592 0.931 . S
H2609 C2597 0.930 . S
H2610 C2598 0.956 . S
H2611 C2598 0.961 . S
H2612 C2598 0.961 . S
H2613 C2599 0.958 . S
H2614 C2599 0.961 . S
H2615 C2599 0.960 . S
C2616 C2617 1.391 . S
C2616 C2618 1.394 . S
C2616 H2632 0.931 . S
C2617 C2616 1.391 . S
C2617 C2621 1.376 . S
C2618 C2616 1.394 . S
C2618 C2619 1.369 . S
C2618 C2622 1.531 . S
C2619 C2618 1.369 . S
C2619 C2620 1.410 . S
C2619 C2627 1.503 . S
C2620 C2619 1.410 . S
C2620 C2621 1.392 . S
C2620 C2623 1.511 . S
C2621 C2617 1.376 . S
C2621 C2620 1.392 . S
C2621 H2633 0.929 . S
C2622 C2618 1.531 . S
C2622 H2634 0.960 . S
C2622 H2635 0.962 . S
C2622 H2636 0.960 . S
C2623 C2620 1.511 . S
C2623 H2637 0.961 . S
C2623 H2638 0.961 . S
C2623 H2639 0.961 . S
C2624 C2625 1.370 . S
C2624 C2626 1.363 . S
C2624 H2640 0.931 . S
C2625 C2624 1.370 . S
C2625 C2629 1.408 . S
C2626 C2624 1.363 . S
C2626 C2627 1.370 . S
C2626 C2630 1.524 . S
C2627 C2619 1.503 . S
C2627 C2626 1.370 . S
C2627 C2628 1.403 . S
C2628 C2627 1.403 . S
C2628 C2629 1.404 . S
C2628 C2631 1.539 . S
C2629 C2625 1.408 . S
C2629 C2628 1.404 . S
C2629 H2641 0.930 . S
C2630 C2626 1.524 . S
C2630 H2642 0.956 . S
C2630 H2643 0.961 . S
C2630 H2644 0.961 . S
C2631 C2628 1.539 . S
C2631 H2645 0.958 . S
C2631 H2646 0.961 . S
C2631 H2647 0.960 . S
H2632 C2616 0.931 . S
H2633 C2621 0.929 . S
H2634 C2622 0.960 . S
H2635 C2622 0.962 . S
H2636 C2622 0.960 . S
H2637 C2623 0.961 . S
H2638 C2623 0.961 . S
H2639 C2623 0.961 . S
H2640 C2624 0.931 . S
H2641 C2629 0.930 . S
H2642 C2630 0.956 . S
H2643 C2630 0.961 . S
H2644 C2630 0.961 . S
H2645 C2631 0.958 . S
H2646 C2631 0.961 . S
H2647 C2631 0.960 . S
C2648 C2649 1.391 . S
C2648 C2650 1.394 . S
C2648 H2664 0.931 . S
C2649 C2648 1.391 . S
C2649 C2653 1.376 . S
C2650 C2648 1.394 . S
C2650 C2651 1.369 . S
C2650 C2654 1.531 . S
C2651 C2650 1.369 . S
C2651 C2652 1.410 . S
C2651 C2659 1.503 . S
C2652 C2651 1.410 . S
C2652 C2653 1.392 . S
C2652 C2655 1.511 . S
C2653 C2649 1.376 . S
C2653 C2652 1.392 . S
C2653 H2665 0.929 . S
C2654 C2650 1.531 . S
C2654 H2666 0.960 . S
C2654 H2667 0.962 . S
C2654 H2668 0.960 . S
C2655 C2652 1.511 . S
C2655 H2669 0.961 . S
C2655 H2670 0.961 . S
C2655 H2671 0.961 . S
C2656 C2657 1.370 . S
C2656 C2658 1.363 . S
C2656 H2672 0.931 . S
C2657 C2656 1.370 . S
C2657 C2661 1.408 . S
C2658 C2656 1.363 . S
C2658 C2659 1.370 . S
C2658 C2662 1.524 . S
C2659 C2651 1.503 . S
C2659 C2658 1.370 . S
C2659 C2660 1.403 . S
C2660 C2659 1.403 . S
C2660 C2661 1.404 . S
C2660 C2663 1.539 . S
C2661 C2657 1.408 . S
C2661 C2660 1.404 . S
C2661 H2673 0.930 . S
C2662 C2658 1.524 . S
C2662 H2674 0.956 . S
C2662 H2675 0.961 . S
C2662 H2676 0.961 . S
C2663 C2660 1.539 . S
C2663 H2677 0.958 . S
C2663 H2678 0.961 . S
C2663 H2679 0.960 . S
H2664 C2648 0.931 . S
H2665 C2653 0.929 . S
H2666 C2654 0.960 . S
H2667 C2654 0.962 . S
H2668 C2654 0.960 . S
H2669 C2655 0.961 . S
H2670 C2655 0.961 . S
H2671 C2655 0.961 . S
H2672 C2656 0.931 . S
H2673 C2661 0.930 . S
H2674 C2662 0.956 . S
H2675 C2662 0.961 . S
H2676 C2662 0.961 . S
H2677 C2663 0.958 . S
H2678 C2663 0.961 . S
H2679 C2663 0.960 . S
C2680 C2681 1.391 . S
C2680 C2682 1.394 . S
C2680 H2696 0.931 . S
C2681 C2680 1.391 . S
C2681 C2685 1.376 . S
C2682 C2680 1.394 . S
C2682 C2683 1.369 . S
C2682 C2686 1.531 . S
C2683 C2682 1.369 . S
C2683 C2684 1.410 . S
C2683 C2691 1.503 . S
C2684 C2683 1.410 . S
C2684 C2685 1.392 . S
C2684 C2687 1.511 . S
C2685 C2681 1.376 . S
C2685 C2684 1.392 . S
C2685 H2697 0.929 . S
C2686 C2682 1.531 . S
C2686 H2698 0.960 . S
C2686 H2699 0.962 . S
C2686 H2700 0.960 . S
C2687 C2684 1.511 . S
C2687 H2701 0.961 . S
C2687 H2702 0.961 . S
C2687 H2703 0.961 . S
C2688 C2689 1.370 . S
C2688 C2690 1.363 . S
C2688 H2704 0.931 . S
C2689 C2688 1.370 . S
C2689 C2693 1.408 . S
C2690 C2688 1.363 . S
C2690 C2691 1.370 . S
C2690 C2694 1.524 . S
C2691 C2683 1.503 . S
C2691 C2690 1.370 . S
C2691 C2692 1.403 . S
C2692 C2691 1.403 . S
C2692 C2693 1.404 . S
C2692 C2695 1.539 . S
C2693 C2689 1.408 . S
C2693 C2692 1.404 . S
C2693 H2705 0.930 . S
C2694 C2690 1.524 . S
C2694 H2706 0.956 . S
C2694 H2707 0.961 . S
C2694 H2708 0.961 . S
C2695 C2692 1.539 . S
C2695 H2709 0.958 1_545 S
C2695 H2710 0.963 1_545 S
C2695 H2711 0.960 . S
H2696 C2680 0.931 . S
H2697 C2685 0.929 . S
H2698 C2686 0.960 . S
H2699 C2686 0.962 . S
H2700 C2686 0.960 . S
H2701 C2687 0.961 . S
H2702 C2687 0.961 . S
H2703 C2687 0.961 . S
H2704 C2688 0.931 . S
H2705 C2693 0.930 . S
H2706 C2694 0.956 . S
H2707 C2694 0.961 . S
H2708 C2694 0.961 . S
H2709 C2695 0.958 1_565 S
H2710 C2695 0.963 1_565 S
H2711 C2695 0.960 . S
C2712 C2713 1.391 . S
C2712 C2714 1.394 . S
C2712 H2728 0.931 . S
C2713 C2712 1.391 . S
C2713 C2717 1.376 . S
C2714 C2712 1.394 . S
C2714 C2715 1.369 . S
C2714 C2718 1.531 . S
C2715 C2714 1.369 . S
C2715 C2716 1.410 . S
C2715 C2723 1.503 . S
C2716 C2715 1.410 . S
C2716 C2717 1.392 . S
C2716 C2719 1.511 . S
C2717 C2713 1.376 . S
C2717 C2716 1.392 . S
C2717 H2729 0.929 . S
C2718 C2714 1.531 . S
C2718 H2730 0.960 . S
C2718 H2731 0.962 . S
C2718 H2732 0.960 . S
C2719 C2716 1.511 . S
C2719 H2733 0.961 . S
C2719 H2734 0.961 . S
C2719 H2735 0.961 . S
C2720 C2721 1.370 . S
C2720 C2722 1.363 . S
C2720 H2736 0.931 . S
C2721 C2720 1.370 . S
C2721 C2725 1.408 . S
C2722 C2720 1.363 . S
C2722 C2723 1.370 . S
C2722 C2726 1.524 . S
C2723 C2715 1.503 . S
C2723 C2722 1.370 . S
C2723 C2724 1.403 . S
C2724 C2723 1.403 . S
C2724 C2725 1.404 . S
C2724 C2727 1.539 . S
C2725 C2721 1.408 . S
C2725 C2724 1.404 . S
C2725 H2737 0.930 . S
C2726 C2722 1.524 . S
C2726 H2738 0.956 . S
C2726 H2739 0.961 . S
C2726 H2740 0.961 . S
C2727 C2724 1.539 . S
C2727 H2741 0.958 . S
C2727 H2742 0.961 . S
C2727 H2743 0.960 . S
H2728 C2712 0.931 . S
H2729 C2717 0.929 . S
H2730 C2718 0.960 . S
H2731 C2718 0.962 . S
H2732 C2718 0.960 . S
H2733 C2719 0.961 . S
H2734 C2719 0.961 . S
H2735 C2719 0.961 . S
H2736 C2720 0.931 . S
H2737 C2725 0.930 . S
H2738 C2726 0.956 . S
H2739 C2726 0.961 . S
H2740 C2726 0.961 . S
H2741 C2727 0.958 . S
H2742 C2727 0.961 . S
H2743 C2727 0.960 . S
C2744 C2745 1.395 . S
C2744 C2746 1.392 . S
C2744 H2760 0.928 1_545 S
C2745 C2744 1.395 . S
C2745 C2749 1.376 . S
C2746 C2744 1.392 . S
C2746 C2747 1.369 . S
C2746 C2750 1.531 1_545 S
C2747 C2746 1.369 . S
C2747 C2748 1.410 . S
C2747 C2755 1.503 . S
C2748 C2747 1.410 . S
C2748 C2749 1.392 . S
C2748 C2751 1.511 . S
C2749 C2745 1.376 . S
C2749 C2748 1.392 . S
C2749 H2761 0.929 . S
C2750 C2746 1.531 1_565 S
C2750 H2762 0.960 . S
C2750 H2763 0.962 1_565 S
C2750 H2764 0.960 . S
C2751 C2748 1.511 . S
C2751 H2765 0.961 . S
C2751 H2766 0.961 . S
C2751 H2767 0.961 . S
C2752 C2753 1.370 . S
C2752 C2754 1.363 . S
C2752 H2768 0.931 . S
C2753 C2752 1.370 . S
C2753 C2757 1.408 . S
C2754 C2752 1.363 . S
C2754 C2755 1.370 . S
C2754 C2758 1.524 . S
C2755 C2747 1.503 . S
C2755 C2754 1.370 . S
C2755 C2756 1.403 1_545 S
C2756 C2755 1.403 1_565 S
C2756 C2757 1.404 1_565 S
C2756 C2759 1.539 . S
C2757 C2753 1.408 . S
C2757 C2756 1.404 1_545 S
C2757 H2769 0.930 1_545 S
C2758 C2754 1.524 . S
C2758 H2770 0.956 . S
C2758 H2771 0.961 . S
C2758 H2772 0.961 . S
C2759 C2756 1.539 . S
C2759 H2773 0.958 . S
C2759 H2774 0.961 . S
C2759 H2775 0.960 . S
H2760 C2744 0.928 1_565 S
H2761 C2749 0.929 . S
H2762 C2750 0.960 . S
H2763 C2750 0.962 1_545 S
H2764 C2750 0.960 . S
H2765 C2751 0.961 . S
H2766 C2751 0.961 . S
H2767 C2751 0.961 . S
H2768 C2752 0.931 . S
H2769 C2757 0.930 1_565 S
H2770 C2758 0.956 . S
H2771 C2758 0.961 . S
H2772 C2758 0.961 . S
H2773 C2759 0.958 . S
H2774 C2759 0.961 . S
H2775 C2759 0.960 . S
C2776 C2777 1.391 . S
C2776 C2778 1.394 . S
C2776 H2792 0.931 . S
C2777 C2776 1.391 . S
C2777 C2781 1.376 . S
C2778 C2776 1.394 . S
C2778 C2779 1.369 . S
C2778 C2782 1.531 . S
C2779 C2778 1.369 . S
C2779 C2780 1.410 . S
C2779 C2787 1.503 . S
C2780 C2779 1.410 . S
C2780 C2781 1.392 . S
C2780 C2783 1.511 . S
C2781 C2777 1.376 . S
C2781 C2780 1.392 . S
C2781 H2793 0.929 . S
C2782 C2778 1.531 . S
C2782 H2794 0.960 . S
C2782 H2795 0.962 . S
C2782 H2796 0.960 . S
C2783 C2780 1.511 . S
C2783 H2797 0.961 . S
C2783 H2798 0.961 . S
C2783 H2799 0.961 . S
C2784 C2785 1.370 . S
C2784 C2786 1.363 . S
C2784 H2800 0.931 . S
C2785 C2784 1.370 . S
C2785 C2789 1.408 . S
C2786 C2784 1.363 . S
C2786 C2787 1.370 . S
C2786 C2790 1.524 . S
C2787 C2779 1.503 . S
C2787 C2786 1.370 . S
C2787 C2788 1.403 . S
C2788 C2787 1.403 . S
C2788 C2789 1.404 . S
C2788 C2791 1.539 . S
C2789 C2785 1.408 . S
C2789 C2788 1.404 . S
C2789 H2801 0.930 . S
C2790 C2786 1.524 . S
C2790 H2802 0.956 . S
C2790 H2803 0.961 . S
C2790 H2804 0.961 . S
C2791 C2788 1.539 . S
C2791 H2805 0.958 . S
C2791 H2806 0.961 . S
C2791 H2807 0.960 . S
H2792 C2776 0.931 . S
H2793 C2781 0.929 . S
H2794 C2782 0.960 . S
H2795 C2782 0.962 . S
H2796 C2782 0.960 . S
H2797 C2783 0.961 . S
H2798 C2783 0.961 . S
H2799 C2783 0.961 . S
H2800 C2784 0.931 . S
H2801 C2789 0.930 . S
H2802 C2790 0.956 . S
H2803 C2790 0.961 . S
H2804 C2790 0.961 . S
H2805 C2791 0.958 . S
H2806 C2791 0.961 . S
H2807 C2791 0.960 . S
C2808 C2809 1.391 . S
C2808 C2810 1.394 . S
C2808 H2824 0.931 . S
C2809 C2808 1.391 . S
C2809 C2813 1.376 . S
C2810 C2808 1.394 . S
C2810 C2811 1.369 . S
C2810 C2814 1.531 . S
C2811 C2810 1.369 . S
C2811 C2812 1.410 . S
C2811 C2819 1.503 . S
C2812 C2811 1.410 . S
C2812 C2813 1.392 . S
C2812 C2815 1.511 . S
C2813 C2809 1.376 . S
C2813 C2812 1.392 . S
C2813 H2825 0.929 . S
C2814 C2810 1.531 . S
C2814 H2826 0.960 . S
C2814 H2827 0.962 . S
C2814 H2828 0.952 1_545 S
C2815 C2812 1.511 . S
C2815 H2829 0.961 . S
C2815 H2830 0.961 . S
C2815 H2831 0.961 . S
C2816 C2817 1.370 . S
C2816 C2818 1.363 . S
C2816 H2832 0.931 . S
C2817 C2816 1.370 . S
C2817 C2821 1.408 . S
C2818 C2816 1.363 . S
C2818 C2819 1.370 . S
C2818 C2822 1.524 . S
C2819 C2811 1.503 . S
C2819 C2818 1.370 . S
C2819 C2820 1.403 . S
C2820 C2819 1.403 . S
C2820 C2821 1.404 . S
C2820 C2823 1.539 1_545 S
C2821 C2817 1.408 . S
C2821 C2820 1.404 . S
C2821 H2833 0.912 1_545 S
C2822 C2818 1.524 . S
C2822 H2834 0.956 . S
C2822 H2835 0.961 . S
C2822 H2836 0.961 . S
C2823 C2820 1.539 1_565 S
C2823 H2837 0.958 . S
C2823 H2838 0.961 . S
C2823 H2839 0.960 . S
H2824 C2808 0.931 . S
H2825 C2813 0.929 . S
H2826 C2814 0.960 . S
H2827 C2814 0.962 . S
H2828 C2814 0.952 1_565 S
H2829 C2815 0.961 . S
H2830 C2815 0.961 . S
H2831 C2815 0.961 . S
H2832 C2816 0.931 . S
H2833 C2821 0.912 1_565 S
H2834 C2822 0.956 . S
H2835 C2822 0.961 . S
H2836 C2822 0.961 . S
H2837 C2823 0.958 . S
H2838 C2823 0.961 . S
H2839 C2823 0.960 . S
C2840 C2841 1.391 . S
C2840 C2842 1.394 . S
C2840 H2856 0.931 . S
C2841 C2840 1.391 . S
C2841 C2845 1.376 . S
C2842 C2840 1.394 . S
C2842 C2843 1.369 . S
C2842 C2846 1.531 . S
C2843 C2842 1.369 . S
C2843 C2844 1.410 . S
C2843 C2851 1.503 . S
C2844 C2843 1.410 . S
C2844 C2845 1.392 . S
C2844 C2847 1.511 . S
C2845 C2841 1.376 . S
C2845 C2844 1.392 . S
C2845 H2857 0.929 . S
C2846 C2842 1.531 . S
C2846 H2858 0.960 . S
C2846 H2859 0.962 . S
C2846 H2860 0.960 . S
C2847 C2844 1.511 . S
C2847 H2861 0.961 . S
C2847 H2862 0.961 . S
C2847 H2863 0.961 . S
C2848 C2849 1.370 . S
C2848 C2850 1.363 . S
C2848 H2864 0.931 . S
C2849 C2848 1.370 . S
C2849 C2853 1.408 . S
C2850 C2848 1.363 . S
C2850 C2851 1.370 . S
C2850 C2854 1.524 . S
C2851 C2843 1.503 . S
C2851 C2850 1.370 . S
C2851 C2852 1.403 . S
C2852 C2851 1.403 . S
C2852 C2853 1.404 . S
C2852 C2855 1.539 . S
C2853 C2849 1.408 . S
C2853 C2852 1.404 . S
C2853 H2865 0.930 . S
C2854 C2850 1.524 . S
C2854 H2866 0.956 . S
C2854 H2867 0.961 . S
C2854 H2868 0.961 . S
C2855 C2852 1.539 . S
C2855 H2869 0.958 . S
C2855 H2870 0.961 . S
C2855 H2871 0.960 . S
H2856 C2840 0.931 . S
H2857 C2845 0.929 . S
H2858 C2846 0.960 . S
H2859 C2846 0.962 . S
H2860 C2846 0.960 . S
H2861 C2847 0.961 . S
H2862 C2847 0.961 . S
H2863 C2847 0.961 . S
H2864 C2848 0.931 . S
H2865 C2853 0.930 . S
H2866 C2854 0.956 . S
H2867 C2854 0.961 . S
H2868 C2854 0.961 . S
H2869 C2855 0.958 . S
H2870 C2855 0.961 . S
H2871 C2855 0.960 . S
C2872 C2873 1.391 . S
C2872 C2874 1.394 . S
C2872 H2888 0.931 . S
C2873 C2872 1.391 . S
C2873 C2877 1.376 . S
C2874 C2872 1.394 . S
C2874 C2875 1.369 . S
C2874 C2878 1.531 . S
C2875 C2874 1.369 . S
C2875 C2876 1.410 . S
C2875 C2883 1.503 . S
C2876 C2875 1.410 . S
C2876 C2877 1.392 . S
C2876 C2879 1.511 . S
C2877 C2873 1.376 . S
C2877 C2876 1.392 . S
C2877 H2889 0.929 . S
C2878 C2874 1.531 . S
C2878 H2890 0.960 . S
C2878 H2891 0.962 . S
C2878 H2892 0.960 . S
C2879 C2876 1.511 . S
C2879 H2893 0.961 . S
C2879 H2894 0.961 . S
C2879 H2895 0.961 . S
C2880 C2881 1.370 . S
C2880 C2882 1.363 . S
C2880 H2896 0.931 1_545 S
C2881 C2880 1.370 . S
C2881 C2885 1.408 . S
C2882 C2880 1.363 . S
C2882 C2883 1.370 . S
C2882 C2886 1.524 1_545 S
C2883 C2875 1.503 . S
C2883 C2882 1.370 . S
C2883 C2884 1.403 . S
C2884 C2883 1.403 . S
C2884 C2885 1.404 . S
C2884 C2887 1.539 . S
C2885 C2881 1.408 . S
C2885 C2884 1.404 . S
C2885 H2897 0.930 . S
C2886 C2882 1.524 1_565 S
C2886 H2898 0.956 . S
C2886 H2899 0.961 . S
C2886 H2900 0.961 . S
C2887 C2884 1.539 . S
C2887 H2901 0.958 . S
C2887 H2902 0.961 . S
C2887 H2903 0.960 . S
H2888 C2872 0.931 . S
H2889 C2877 0.929 . S
H2890 C2878 0.960 . S
H2891 C2878 0.962 . S
H2892 C2878 0.960 . S
H2893 C2879 0.961 . S
H2894 C2879 0.961 . S
H2895 C2879 0.961 . S
H2896 C2880 0.931 1_565 S
H2897 C2885 0.930 . S
H2898 C2886 0.956 . S
H2899 C2886 0.961 . S
H2900 C2886 0.961 . S
H2901 C2887 0.958 . S
H2902 C2887 0.961 . S
H2903 C2887 0.960 . S
C2904 C2905 1.391 . S
C2904 C2906 1.394 . S
C2904 H2920 0.931 . S
C2905 C2904 1.391 . S
C2905 C2909 1.376 . S
C2906 C2904 1.394 . S
C2906 C2907 1.369 . S
C2906 C2910 1.531 . S
C2907 C2906 1.369 . S
C2907 C2908 1.410 . S
C2907 C2915 1.503 . S
C2908 C2907 1.410 . S
C2908 C2909 1.392 . S
C2908 C2911 1.511 . S
C2909 C2905 1.376 . S
C2909 C2908 1.392 . S
C2909 H2921 0.929 . S
C2910 C2906 1.531 . S
C2910 H2922 0.960 . S
C2910 H2923 0.962 . S
C2910 H2924 0.960 . S
C2911 C2908 1.511 . S
C2911 H2925 0.961 . S
C2911 H2926 0.961 . S
C2911 H2927 0.961 . S
C2912 C2913 1.370 . S
C2912 C2914 1.363 . S
C2912 H2928 0.931 . S
C2913 C2912 1.370 . S
C2913 C2917 1.408 . S
C2914 C2912 1.363 . S
C2914 C2915 1.370 . S
C2914 C2918 1.524 . S
C2915 C2907 1.503 . S
C2915 C2914 1.370 . S
C2915 C2916 1.403 . S
C2916 C2915 1.403 . S
C2916 C2917 1.404 . S
C2916 C2919 1.539 . S
C2917 C2913 1.408 . S
C2917 C2916 1.404 . S
C2917 H2929 0.930 . S
C2918 C2914 1.524 . S
C2918 H2930 0.956 . S
C2918 H2931 0.961 . S
C2918 H2932 0.961 . S
C2919 C2916 1.539 . S
C2919 H2933 0.958 . S
C2919 H2934 0.961 . S
C2919 H2935 0.960 . S
H2920 C2904 0.931 . S
H2921 C2909 0.929 . S
H2922 C2910 0.960 . S
H2923 C2910 0.962 . S
H2924 C2910 0.960 . S
H2925 C2911 0.961 . S
H2926 C2911 0.961 . S
H2927 C2911 0.961 . S
H2928 C2912 0.931 . S
H2929 C2917 0.930 . S
H2930 C2918 0.956 . S
H2931 C2918 0.961 . S
H2932 C2918 0.961 . S
H2933 C2919 0.958 . S
H2934 C2919 0.961 . S
H2935 C2919 0.960 . S
C2936 C2937 1.391 . S
C2936 C2938 1.394 . S
C2936 H2952 0.931 . S
C2937 C2936 1.391 . S
C2937 C2941 1.376 . S
C2938 C2936 1.394 . S
C2938 C2939 1.369 . S
C2938 C2942 1.531 . S
C2939 C2938 1.369 . S
C2939 C2940 1.410 . S
C2939 C2947 1.503 . S
C2940 C2939 1.410 . S
C2940 C2941 1.392 . S
C2940 C2943 1.511 . S
C2941 C2937 1.376 . S
C2941 C2940 1.392 . S
C2941 H2953 0.929 . S
C2942 C2938 1.531 . S
C2942 H2954 0.960 . S
C2942 H2955 0.962 . S
C2942 H2956 0.960 . S
C2943 C2940 1.511 . S
C2943 H2957 0.961 . S
C2943 H2958 0.961 . S
C2943 H2959 0.961 . S
C2944 C2945 1.370 . S
C2944 C2946 1.363 . S
C2944 H2960 0.931 . S
C2945 C2944 1.370 . S
C2945 C2949 1.408 . S
C2946 C2944 1.363 . S
C2946 C2947 1.370 . S
C2946 C2950 1.524 . S
C2947 C2939 1.503 . S
C2947 C2946 1.370 . S
C2947 C2948 1.403 . S
C2948 C2947 1.403 . S
C2948 C2949 1.404 . S
C2948 C2951 1.539 . S
C2949 C2945 1.408 . S
C2949 C2948 1.404 . S
C2949 H2961 0.930 . S
C2950 C2946 1.524 . S
C2950 H2962 0.956 . S
C2950 H2963 0.961 . S
C2950 H2964 0.961 . S
C2951 C2948 1.539 . S
C2951 H2965 0.958 . S
C2951 H2966 0.961 . S
C2951 H2967 0.960 . S
H2952 C2936 0.931 . S
H2953 C2941 0.929 . S
H2954 C2942 0.960 . S
H2955 C2942 0.962 . S
H2956 C2942 0.960 . S
H2957 C2943 0.961 . S
H2958 C2943 0.961 . S
H2959 C2943 0.961 . S
H2960 C2944 0.931 . S
H2961 C2949 0.930 . S
H2962 C2950 0.956 . S
H2963 C2950 0.961 . S
H2964 C2950 0.961 . S
H2965 C2951 0.958 . S
H2966 C2951 0.961 . S
H2967 C2951 0.960 . S
C2968 C2969 1.391 . S
C2968 C2970 1.394 . S
C2968 H2984 0.931 . S
C2969 C2968 1.391 . S
C2969 C2973 1.376 . S
C2970 C2968 1.394 . S
C2970 C2971 1.369 . S
C2970 C2974 1.531 . S
C2971 C2970 1.369 . S
C2971 C2972 1.410 . S
C2971 C2979 1.503 . S
C2972 C2971 1.410 . S
C2972 C2973 1.392 . S
C2972 C2975 1.511 . S
C2973 C2969 1.376 . S
C2973 C2972 1.392 . S
C2973 H2985 0.929 . S
C2974 C2970 1.531 . S
C2974 H2986 0.960 . S
C2974 H2987 0.962 . S
C2974 H2988 0.960 . S
C2975 C2972 1.511 . S
C2975 H2989 0.961 . S
C2975 H2990 0.961 . S
C2975 H2991 0.961 . S
C2976 C2977 1.370 . S
C2976 C2978 1.363 . S
C2976 H2992 0.931 . S
C2977 C2976 1.370 . S
C2977 C2981 1.408 . S
C2978 C2976 1.363 . S
C2978 C2979 1.370 . S
C2978 C2982 1.524 . S
C2979 C2971 1.503 . S
C2979 C2978 1.370 . S
C2979 C2980 1.403 . S
C2980 C2979 1.403 . S
C2980 C2981 1.404 . S
C2980 C2983 1.539 1_554 S
C2981 C2977 1.408 . S
C2981 C2980 1.404 . S
C2981 H2993 0.930 1_554 S
C2982 C2978 1.524 . S
C2982 H2994 0.956 . S
C2982 H2995 0.961 . S
C2982 H2996 0.961 . S
C2983 C2980 1.539 1_556 S
C2983 H2997 0.958 . S
C2983 H2998 0.961 . S
C2983 H2999 0.960 . S
H2984 C2968 0.931 . S
H2985 C2973 0.929 . S
H2986 C2974 0.960 . S
H2987 C2974 0.962 . S
H2988 C2974 0.960 . S
H2989 C2975 0.961 . S
H2990 C2975 0.961 . S
H2991 C2975 0.961 . S
H2992 C2976 0.931 . S
H2993 C2981 0.930 1_556 S
H2994 C2982 0.956 . S
H2995 C2982 0.961 . S
H2996 C2982 0.961 . S
H2997 C2983 0.958 . S
H2998 C2983 0.961 . S
H2999 C2983 0.960 . S
C3000 C3001 1.391 . S
C3000 C3002 1.394 . S
C3000 H3016 0.931 . S
C3001 C3000 1.391 . S
C3001 C3005 1.376 . S
C3002 C3000 1.394 . S
C3002 C3003 1.369 . S
C3002 C3006 1.531 . S
C3003 C3002 1.369 . S
C3003 C3004 1.410 . S
C3003 C3011 1.503 . S
C3004 C3003 1.410 . S
C3004 C3005 1.392 . S
C3004 C3007 1.511 . S
C3005 C3001 1.376 . S
C3005 C3004 1.392 . S
C3005 H3017 0.929 . S
C3006 C3002 1.531 . S
C3006 H3018 0.960 . S
C3006 H3019 0.962 . S
C3006 H3020 0.960 . S
C3007 C3004 1.511 . S
C3007 H3021 0.961 . S
C3007 H3022 0.961 . S
C3007 H3023 0.961 . S
C3008 C3009 1.370 . S
C3008 C3010 1.363 . S
C3008 H3024 0.931 . S
C3009 C3008 1.370 . S
C3009 C3013 1.408 . S
C3010 C3008 1.363 . S
C3010 C3011 1.370 . S
C3010 C3014 1.524 . S
C3011 C3003 1.503 . S
C3011 C3010 1.370 . S
C3011 C3012 1.403 . S
C3012 C3011 1.403 . S
C3012 C3013 1.404 . S
C3012 C3015 1.539 . S
C3013 C3009 1.408 . S
C3013 C3012 1.404 . S
C3013 H3025 0.930 . S
C3014 C3010 1.524 . S
C3014 H3026 0.956 . S
C3014 H3027 0.961 . S
C3014 H3028 0.961 . S
C3015 C3012 1.539 . S
C3015 H3029 0.958 . S
C3015 H3030 0.961 . S
C3015 H3031 0.960 . S
H3016 C3000 0.931 . S
H3017 C3005 0.929 . S
H3018 C3006 0.960 . S
H3019 C3006 0.962 . S
H3020 C3006 0.960 . S
H3021 C3007 0.961 . S
H3022 C3007 0.961 . S
H3023 C3007 0.961 . S
H3024 C3008 0.931 . S
H3025 C3013 0.930 . S
H3026 C3014 0.956 . S
H3027 C3014 0.961 . S
H3028 C3014 0.961 . S
H3029 C3015 0.958 . S
H3030 C3015 0.961 . S
H3031 C3015 0.960 . S
C3032 C3033 1.391 . S
C3032 C3034 1.394 . S
C3032 H3048 0.931 . S
C3033 C3032 1.391 . S
C3033 C3037 1.376 . S
C3034 C3032 1.394 . S
C3034 C3035 1.369 . S
C3034 C3038 1.531 . S
C3035 C3034 1.369 . S
C3035 C3036 1.410 . S
C3035 C3043 1.503 . S
C3036 C3035 1.410 . S
C3036 C3037 1.392 . S
C3036 C3039 1.511 . S
C3037 C3033 1.376 . S
C3037 C3036 1.392 . S
C3037 H3049 0.929 . S
C3038 C3034 1.531 . S
C3038 H3050 0.960 . S
C3038 H3051 0.962 . S
C3038 H3052 0.960 . S
C3039 C3036 1.511 . S
C3039 H3053 0.961 . S
C3039 H3054 0.961 . S
C3039 H3055 0.961 . S
C3040 C3041 1.370 . S
C3040 C3042 1.363 . S
C3040 H3056 0.931 . S
C3041 C3040 1.370 . S
C3041 C3045 1.408 . S
C3042 C3040 1.363 . S
C3042 C3043 1.370 . S
C3042 C3046 1.524 . S
C3043 C3035 1.503 . S
C3043 C3042 1.370 . S
C3043 C3044 1.403 . S
C3044 C3043 1.403 . S
C3044 C3045 1.404 . S
C3044 C3047 1.539 . S
C3045 C3041 1.408 . S
C3045 C3044 1.404 . S
C3045 H3057 0.930 . S
C3046 C3042 1.524 . S
C3046 H3058 0.956 . S
C3046 H3059 0.961 . S
C3046 H3060 0.961 . S
C3047 C3044 1.539 . S
C3047 H3061 0.958 . S
C3047 H3062 0.961 . S
C3047 H3063 0.960 . S
H3048 C3032 0.931 . S
H3049 C3037 0.929 . S
H3050 C3038 0.960 . S
H3051 C3038 0.962 . S
H3052 C3038 0.960 . S
H3053 C3039 0.961 . S
H3054 C3039 0.961 . S
H3055 C3039 0.961 . S
H3056 C3040 0.931 . S
H3057 C3045 0.930 . S
H3058 C3046 0.956 . S
H3059 C3046 0.961 . S
H3060 C3046 0.961 . S
H3061 C3047 0.958 . S
H3062 C3047 0.961 . S
H3063 C3047 0.960 . S
C3064 C3065 1.391 1_565 S
C3064 C3066 1.394 . S
C3064 H3080 0.931 1_565 S
C3065 C3064 1.391 1_545 S
C3065 C3069 1.376 1_545 S
C3066 C3064 1.394 . S
C3066 C3067 1.369 . S
C3066 C3070 1.531 . S
C3067 C3066 1.369 . S
C3067 C3068 1.410 . S
C3067 C3075 1.503 . S
C3068 C3067 1.410 . S
C3068 C3069 1.392 . S
C3068 C3071 1.511 . S
C3069 C3065 1.376 1_565 S
C3069 C3068 1.392 . S
C3069 H3081 0.929 . S
C3070 C3066 1.531 . S
C3070 H3082 0.960 . S
C3070 H3083 0.962 . S
C3070 H3084 0.960 . S
C3071 C3068 1.511 . S
C3071 H3085 0.961 . S
C3071 H3086 0.961 . S
C3071 H3087 0.961 . S
C3072 C3073 1.370 . S
C3072 C3074 1.363 . S
C3072 H3088 0.931 . S
C3073 C3072 1.370 . S
C3073 C3077 1.408 . S
C3074 C3072 1.363 . S
C3074 C3075 1.370 . S
C3074 C3078 1.524 . S
C3075 C3067 1.503 . S
C3075 C3074 1.370 . S
C3075 C3076 1.403 . S
C3076 C3075 1.403 . S
C3076 C3077 1.404 . S
C3076 C3079 1.539 . S
C3077 C3073 1.408 . S
C3077 C3076 1.404 . S
C3077 H3089 0.930 . S
C3078 C3074 1.524 . S
C3078 H3090 0.956 . S
C3078 H3091 0.961 . S
C3078 H3092 0.961 . S
C3079 C3076 1.539 . S
C3079 H3093 0.958 . S
C3079 H3094 0.961 . S
C3079 H3095 0.960 . S
H3080 C3064 0.931 1_545 S
H3081 C3069 0.929 . S
H3082 C3070 0.960 . S
H3083 C3070 0.962 . S
H3084 C3070 0.960 . S
H3085 C3071 0.961 . S
H3086 C3071 0.961 . S
H3087 C3071 0.961 . S
H3088 C3072 0.931 . S
H3089 C3077 0.930 . S
H3090 C3078 0.956 . S
H3091 C3078 0.961 . S
H3092 C3078 0.961 . S
H3093 C3079 0.958 . S
H3094 C3079 0.961 . S
H3095 C3079 0.960 . S
C3096 C3097 1.391 . S
C3096 C3098 1.394 . S
C3096 H3112 0.931 . S
C3097 C3096 1.391 . S
C3097 C3101 1.376 . S
C3098 C3096 1.394 . S
C3098 C3099 1.369 . S
C3098 C3102 1.531 . S
C3099 C3098 1.369 . S
C3099 C3100 1.410 . S
C3099 C3107 1.503 . S
C3100 C3099 1.410 . S
C3100 C3101 1.392 . S
C3100 C3103 1.511 . S
C3101 C3097 1.376 . S
C3101 C3100 1.392 . S
C3101 H3113 0.929 . S
C3102 C3098 1.531 . S
C3102 H3114 0.960 . S
C3102 H3115 0.962 . S
C3102 H3116 0.960 . S
C3103 C3100 1.511 . S
C3103 H3117 0.961 . S
C3103 H3118 0.961 . S
C3103 H3119 0.961 . S
C3104 C3105 1.370 . S
C3104 C3106 1.363 . S
C3104 H3120 0.931 . S
C3105 C3104 1.370 . S
C3105 C3109 1.408 . S
C3106 C3104 1.363 . S
C3106 C3107 1.370 . S
C3106 C3110 1.524 . S
C3107 C3099 1.503 . S
C3107 C3106 1.370 . S
C3107 C3108 1.403 . S
C3108 C3107 1.403 . S
C3108 C3109 1.404 . S
C3108 C3111 1.539 . S
C3109 C3105 1.408 . S
C3109 C3108 1.404 . S
C3109 H3121 0.930 . S
C3110 C3106 1.524 . S
C3110 H3122 0.956 . S
C3110 H3123 0.961 . S
C3110 H3124 0.961 . S
C3111 C3108 1.539 . S
C3111 H3125 0.958 . S
C3111 H3126 0.961 . S
C3111 H3127 0.960 . S
H3112 C3096 0.931 . S
H3113 C3101 0.929 . S
H3114 C3102 0.960 . S
H3115 C3102 0.962 . S
H3116 C3102 0.960 . S
H3117 C3103 0.961 . S
H3118 C3103 0.961 . S
H3119 C3103 0.961 . S
H3120 C3104 0.931 . S
H3121 C3109 0.930 . S
H3122 C3110 0.956 . S
H3123 C3110 0.961 . S
H3124 C3110 0.961 . S
H3125 C3111 0.958 . S
H3126 C3111 0.961 . S
H3127 C3111 0.960 . S
C3128 C3129 1.391 . S
C3128 C3130 1.394 . S
C3128 H3144 0.931 . S
C3129 C3128 1.391 . S
C3129 C3133 1.376 . S
C3130 C3128 1.394 . S
C3130 C3131 1.369 . S
C3130 C3134 1.531 . S
C3131 C3130 1.369 . S
C3131 C3132 1.410 . S
C3131 C3139 1.503 . S
C3132 C3131 1.410 . S
C3132 C3133 1.392 . S
C3132 C3135 1.511 . S
C3133 C3129 1.376 . S
C3133 C3132 1.392 . S
C3133 H3145 0.929 . S
C3134 C3130 1.531 . S
C3134 H3146 0.960 . S
C3134 H3147 0.962 . S
C3134 H3148 0.960 . S
C3135 C3132 1.511 . S
C3135 H3149 0.961 . S
C3135 H3150 0.961 . S
C3135 H3151 0.961 . S
C3136 C3137 1.370 . S
C3136 C3138 1.363 . S
C3136 H3152 0.931 . S
C3137 C3136 1.370 . S
C3137 C3141 1.408 . S
C3138 C3136 1.363 . S
C3138 C3139 1.370 . S
C3138 C3142 1.524 . S
C3139 C3131 1.503 . S
C3139 C3138 1.370 . S
C3139 C3140 1.403 . S
C3140 C3139 1.403 . S
C3140 C3141 1.404 . S
C3140 C3143 1.539 . S
C3141 C3137 1.408 . S
C3141 C3140 1.404 . S
C3141 H3153 0.930 . S
C3142 C3138 1.524 . S
C3142 H3154 0.956 . S
C3142 H3155 0.961 . S
C3142 H3156 0.961 . S
C3143 C3140 1.539 . S
C3143 H3157 0.958 . S
C3143 H3158 0.961 . S
C3143 H3159 0.960 . S
H3144 C3128 0.931 . S
H3145 C3133 0.929 . S
H3146 C3134 0.960 . S
H3147 C3134 0.962 . S
H3148 C3134 0.960 . S
H3149 C3135 0.961 . S
H3150 C3135 0.961 . S
H3151 C3135 0.961 . S
H3152 C3136 0.931 . S
H3153 C3141 0.930 . S
H3154 C3142 0.956 . S
H3155 C3142 0.961 . S
H3156 C3142 0.961 . S
H3157 C3143 0.958 . S
H3158 C3143 0.961 . S
H3159 C3143 0.960 . S
C3160 C3161 1.391 . S
C3160 C3162 1.394 . S
C3160 H3176 0.931 . S
C3161 C3160 1.391 . S
C3161 C3165 1.376 . S
C3162 C3160 1.394 . S
C3162 C3163 1.369 . S
C3162 C3166 1.531 . S
C3163 C3162 1.369 . S
C3163 C3164 1.410 . S
C3163 C3171 1.503 . S
C3164 C3163 1.410 . S
C3164 C3165 1.392 . S
C3164 C3167 1.511 . S
C3165 C3161 1.376 . S
C3165 C3164 1.392 . S
C3165 H3177 0.929 . S
C3166 C3162 1.531 . S
C3166 H3178 0.960 . S
C3166 H3179 0.962 . S
C3166 H3180 0.960 . S
C3167 C3164 1.511 . S
C3167 H3181 0.961 . S
C3167 H3182 0.961 . S
C3167 H3183 0.961 . S
C3168 C3169 1.370 . S
C3168 C3170 1.363 . S
C3168 H3184 0.931 . S
C3169 C3168 1.370 . S
C3169 C3173 1.408 . S
C3170 C3168 1.363 . S
C3170 C3171 1.370 . S
C3170 C3174 1.524 . S
C3171 C3163 1.503 . S
C3171 C3170 1.370 . S
C3171 C3172 1.403 . S
C3172 C3171 1.403 . S
C3172 C3173 1.404 . S
C3172 C3175 1.539 . S
C3173 C3169 1.408 . S
C3173 C3172 1.404 . S
C3173 H3185 0.930 . S
C3174 C3170 1.524 . S
C3174 H3186 0.956 . S
C3174 H3187 0.961 . S
C3174 H3188 0.961 . S
C3175 C3172 1.539 . S
C3175 H3189 0.958 . S
C3175 H3190 0.961 . S
C3175 H3191 0.960 . S
H3176 C3160 0.931 . S
H3177 C3165 0.929 . S
H3178 C3166 0.960 . S
H3179 C3166 0.962 . S
H3180 C3166 0.960 . S
H3181 C3167 0.961 . S
H3182 C3167 0.961 . S
H3183 C3167 0.961 . S
H3184 C3168 0.931 . S
H3185 C3173 0.930 . S
H3186 C3174 0.956 . S
H3187 C3174 0.961 . S
H3188 C3174 0.961 . S
H3189 C3175 0.958 . S
H3190 C3175 0.961 . S
H3191 C3175 0.960 . S
C3192 C3193 1.391 . S
C3192 C3194 1.394 . S
C3192 H3208 0.931 . S
C3193 C3192 1.391 . S
C3193 C3197 1.376 . S
C3194 C3192 1.394 . S
C3194 C3195 1.369 . S
C3194 C3198 1.531 . S
C3195 C3194 1.369 . S
C3195 C3196 1.410 . S
C3195 C3203 1.503 . S
C3196 C3195 1.410 . S
C3196 C3197 1.392 . S
C3196 C3199 1.511 . S
C3197 C3193 1.376 . S
C3197 C3196 1.392 . S
C3197 H3209 0.929 . S
C3198 C3194 1.531 . S
C3198 H3210 0.960 . S
C3198 H3211 0.962 . S
C3198 H3212 0.960 . S
C3199 C3196 1.511 . S
C3199 H3213 0.961 . S
C3199 H3214 0.961 . S
C3199 H3215 0.961 . S
C3200 C3201 1.370 . S
C3200 C3202 1.363 . S
C3200 H3216 0.931 . S
C3201 C3200 1.370 . S
C3201 C3205 1.408 . S
C3202 C3200 1.363 . S
C3202 C3203 1.370 . S
C3202 C3206 1.524 . S
C3203 C3195 1.503 . S
C3203 C3202 1.370 . S
C3203 C3204 1.403 . S
C3204 C3203 1.403 . S
C3204 C3205 1.404 . S
C3204 C3207 1.539 . S
C3205 C3201 1.408 . S
C3205 C3204 1.404 . S
C3205 H3217 0.930 . S
C3206 C3202 1.524 . S
C3206 H3218 0.956 . S
C3206 H3219 0.961 . S
C3206 H3220 0.961 . S
C3207 C3204 1.539 . S
C3207 H3221 0.958 . S
C3207 H3222 0.961 . S
C3207 H3223 0.960 . S
H3208 C3192 0.931 . S
H3209 C3197 0.929 . S
H3210 C3198 0.960 . S
H3211 C3198 0.962 . S
H3212 C3198 0.960 . S
H3213 C3199 0.961 . S
H3214 C3199 0.961 . S
H3215 C3199 0.961 . S
H3216 C3200 0.931 . S
H3217 C3205 0.930 . S
H3218 C3206 0.956 . S
H3219 C3206 0.961 . S
H3220 C3206 0.961 . S
H3221 C3207 0.958 . S
H3222 C3207 0.961 . S
H3223 C3207 0.960 . S
C3224 C3225 1.391 . S
C3224 C3226 1.394 . S
C3224 H3240 0.931 . S
C3225 C3224 1.391 . S
C3225 C3229 1.376 . S
C3226 C3224 1.394 . S
C3226 C3227 1.369 . S
C3226 C3230 1.531 . S
C3227 C3226 1.369 . S
C3227 C3228 1.410 . S
C3227 C3235 1.503 . S
C3228 C3227 1.410 . S
C3228 C3229 1.392 . S
C3228 C3231 1.511 . S
C3229 C3225 1.376 . S
C3229 C3228 1.392 . S
C3229 H3241 0.929 . S
C3230 C3226 1.531 . S
C3230 H3242 0.960 . S
C3230 H3243 0.962 . S
C3230 H3244 0.960 . S
C3231 C3228 1.511 . S
C3231 H3245 0.961 . S
C3231 H3246 0.961 . S
C3231 H3247 0.961 . S
C3232 C3233 1.370 . S
C3232 C3234 1.363 . S
C3232 H3248 0.931 . S
C3233 C3232 1.370 . S
C3233 C3237 1.408 . S
C3234 C3232 1.363 . S
C3234 C3235 1.370 . S
C3234 C3238 1.524 . S
C3235 C3227 1.503 . S
C3235 C3234 1.370 . S
C3235 C3236 1.403 . S
C3236 C3235 1.403 . S
C3236 C3237 1.404 . S
C3236 C3239 1.539 . S
C3237 C3233 1.408 . S
C3237 C3236 1.404 . S
C3237 H3249 0.930 . S
C3238 C3234 1.524 . S
C3238 H3250 0.956 . S
C3238 H3251 0.961 . S
C3238 H3252 0.961 . S
C3239 C3236 1.539 . S
C3239 H3253 0.958 . S
C3239 H3254 0.961 . S
C3239 H3255 0.960 . S
H3240 C3224 0.931 . S
H3241 C3229 0.929 . S
H3242 C3230 0.960 . S
H3243 C3230 0.962 . S
H3244 C3230 0.960 . S
H3245 C3231 0.961 . S
H3246 C3231 0.961 . S
H3247 C3231 0.961 . S
H3248 C3232 0.931 . S
H3249 C3237 0.930 . S
H3250 C3238 0.956 . S
H3251 C3238 0.961 . S
H3252 C3238 0.961 . S
H3253 C3239 0.958 . S
H3254 C3239 0.961 . S
H3255 C3239 0.960 . S
C3256 C3257 1.391 . S
C3256 C3258 1.394 . S
C3256 H3272 0.931 . S
C3257 C3256 1.391 . S
C3257 C3261 1.376 1_455 S
C3258 C3256 1.394 . S
C3258 C3259 1.369 . S
C3258 C3262 1.531 . S
C3259 C3258 1.369 . S
C3259 C3260 1.410 1_455 S
C3259 C3267 1.503 1_556 S
C3260 C3259 1.410 1_655 S
C3260 C3261 1.392 . S
C3260 C3263 1.511 1_556 S
C3261 C3257 1.376 1_655 S
C3261 C3260 1.392 . S
C3261 H3273 0.929 . S
C3262 C3258 1.531 . S
C3262 H3274 0.960 . S
C3262 H3275 0.962 . S
C3262 H3276 0.960 . S
C3263 C3260 1.511 1_554 S
C3263 H3277 0.961 . S
C3263 H3278 0.961 . S
C3263 H3279 0.961 1_554 S
C3264 C3265 1.370 . S
C3264 C3266 1.363 . S
C3264 H3280 0.931 . S
C3265 C3264 1.370 . S
C3265 C3269 1.408 . S
C3266 C3264 1.363 . S
C3266 C3267 1.370 . S
C3266 C3270 1.524 . S
C3267 C3259 1.503 1_554 S
C3267 C3266 1.370 . S
C3267 C3268 1.396 1_454 S
C3268 C3267 1.396 1_656 S
C3268 C3269 1.406 1_656 S
C3268 C3271 1.545 . S
C3269 C3265 1.408 . S
C3269 C3268 1.406 1_454 S
C3269 H3281 0.930 1_454 S
C3270 C3266 1.524 . S
C3270 H3282 0.956 . S
C3270 H3283 0.961 . S
C3270 H3284 0.961 . S
C3271 C3268 1.545 . S
C3271 H3285 0.958 . S
C3271 H3286 0.961 . S
C3271 H3287 0.960 . S
H3272 C3256 0.931 . S
H3273 C3261 0.929 . S
H3274 C3262 0.960 . S
H3275 C3262 0.962 . S
H3276 C3262 0.960 . S
H3277 C3263 0.961 . S
H3278 C3263 0.961 . S
H3279 C3263 0.961 1_556 S
H3280 C3264 0.931 . S
H3281 C3269 0.930 1_656 S
H3282 C3270 0.956 . S
H3283 C3270 0.961 . S
H3284 C3270 0.961 . S
H3285 C3271 0.958 . S
H3286 C3271 0.961 . S
H3287 C3271 0.960 . S
C3288 C3289 1.398 . S
C3288 C3290 1.394 . S
C3288 H3304 0.931 . S
C3289 C3288 1.398 . S
C3289 C3293 1.376 1_655 S
C3290 C3288 1.394 . S
C3290 C3291 1.369 . S
C3290 C3294 1.531 . S
C3291 C3290 1.369 . S
C3291 C3292 1.410 . S
C3291 C3299 1.503 . S
C3292 C3291 1.410 . S
C3292 C3293 1.392 1_655 S
C3292 C3295 1.511 . S
C3293 C3289 1.376 1_455 S
C3293 C3292 1.392 1_455 S
C3293 H3305 0.929 . S
C3294 C3290 1.531 . S
C3294 H3306 0.960 . S
C3294 H3307 0.962 . S
C3294 H3308 0.960 . S
C3295 C3292 1.511 . S
C3295 H3309 0.961 1_655 S
C3295 H3310 0.961 . S
C3295 H3311 0.961 1_655 S
C3296 C3297 1.370 . S
C3296 C3298 1.363 . S
C3296 H3312 0.931 . S
C3297 C3296 1.370 . S
C3297 C3301 1.408 . S
C3298 C3296 1.363 . S
C3298 C3299 1.370 . S
C3298 C3302 1.524 . S
C3299 C3291 1.503 . S
C3299 C3298 1.370 . S
C3299 C3300 1.403 . S
C3300 C3299 1.403 . S
C3300 C3301 1.404 . S
C3300 C3303 1.539 . S
C3301 C3297 1.408 . S
C3301 C3300 1.404 . S
C3301 H3313 0.930 . S
C3302 C3298 1.524 . S
C3302 H3314 0.956 . S
C3302 H3315 0.961 . S
C3302 H3316 0.961 . S
C3303 C3300 1.539 . S
C3303 H3317 0.958 . S
C3303 H3318 0.961 . S
C3303 H3319 0.960 . S
H3304 C3288 0.931 . S
H3305 C3293 0.929 . S
H3306 C3294 0.960 . S
H3307 C3294 0.962 . S
H3308 C3294 0.960 . S
H3309 C3295 0.961 1_455 S
H3310 C3295 0.961 . S
H3311 C3295 0.961 1_455 S
H3312 C3296 0.931 . S
H3313 C3301 0.930 . S
H3314 C3302 0.956 . S
H3315 C3302 0.961 . S
H3316 C3302 0.961 . S
H3317 C3303 0.958 . S
H3318 C3303 0.961 . S
H3319 C3303 0.960 . S
C3320 C3321 1.391 . S
C3320 C3322 1.394 . S
C3320 H3336 0.931 . S
C3321 C3320 1.391 . S
C3321 C3325 1.376 . S
C3322 C3320 1.394 . S
C3322 C3323 1.369 . S
C3322 C3326 1.531 . S
C3323 C3322 1.369 . S
C3323 C3324 1.410 . S
C3323 C3331 1.503 . S
C3324 C3323 1.410 . S
C3324 C3325 1.392 . S
C3324 C3327 1.511 . S
C3325 C3321 1.376 . S
C3325 C3324 1.392 . S
C3325 H3337 0.929 . S
C3326 C3322 1.531 . S
C3326 H3338 0.960 . S
C3326 H3339 0.962 . S
C3326 H3340 0.960 . S
C3327 C3324 1.511 . S
C3327 H3341 0.961 . S
C3327 H3342 0.961 . S
C3327 H3343 0.961 . S
C3328 C3329 1.370 . S
C3328 C3330 1.363 . S
C3328 H3344 0.931 . S
C3329 C3328 1.370 . S
C3329 C3333 1.408 . S
C3330 C3328 1.363 . S
C3330 C3331 1.370 . S
C3330 C3334 1.524 . S
C3331 C3323 1.503 . S
C3331 C3330 1.370 . S
C3331 C3332 1.403 . S
C3332 C3331 1.403 . S
C3332 C3333 1.404 . S
C3332 C3335 1.539 . S
C3333 C3329 1.408 . S
C3333 C3332 1.404 . S
C3333 H3345 0.930 . S
C3334 C3330 1.524 . S
C3334 H3346 0.956 . S
C3334 H3347 0.961 . S
C3334 H3348 0.961 . S
C3335 C3332 1.539 . S
C3335 H3349 0.958 . S
C3335 H3350 0.961 . S
C3335 H3351 0.960 . S
H3336 C3320 0.931 . S
H3337 C3325 0.929 . S
H3338 C3326 0.960 . S
H3339 C3326 0.962 . S
H3340 C3326 0.960 . S
H3341 C3327 0.961 . S
H3342 C3327 0.961 . S
H3343 C3327 0.961 . S
H3344 C3328 0.931 . S
H3345 C3333 0.930 . S
H3346 C3334 0.956 . S
H3347 C3334 0.961 . S
H3348 C3334 0.961 . S
H3349 C3335 0.958 . S
H3350 C3335 0.961 . S
H3351 C3335 0.960 . S
C3352 C3353 1.391 . S
C3352 C3354 1.394 . S
C3352 H3368 0.931 . S
C3353 C3352 1.391 . S
C3353 C3357 1.376 . S
C3354 C3352 1.394 . S
C3354 C3355 1.369 . S
C3354 C3358 1.531 . S
C3355 C3354 1.369 . S
C3355 C3356 1.410 . S
C3355 C3363 1.503 . S
C3356 C3355 1.410 . S
C3356 C3357 1.392 . S
C3356 C3359 1.511 . S
C3357 C3353 1.376 . S
C3357 C3356 1.392 . S
C3357 H3369 0.929 . S
C3358 C3354 1.531 . S
C3358 H3370 0.960 . S
C3358 H3371 0.962 . S
C3358 H3372 0.960 . S
C3359 C3356 1.511 . S
C3359 H3373 0.961 . S
C3359 H3374 0.961 . S
C3359 H3375 0.961 . S
C3360 C3361 1.370 . S
C3360 C3362 1.363 . S
C3360 H3376 0.931 . S
C3361 C3360 1.370 . S
C3361 C3365 1.408 . S
C3362 C3360 1.363 . S
C3362 C3363 1.370 . S
C3362 C3366 1.524 . S
C3363 C3355 1.503 . S
C3363 C3362 1.370 . S
C3363 C3364 1.403 . S
C3364 C3363 1.403 . S
C3364 C3365 1.404 . S
C3364 C3367 1.539 . S
C3365 C3361 1.408 . S
C3365 C3364 1.404 . S
C3365 H3377 0.930 . S
C3366 C3362 1.524 . S
C3366 H3378 0.956 . S
C3366 H3379 0.961 . S
C3366 H3380 0.961 . S
C3367 C3364 1.539 . S
C3367 H3381 0.958 . S
C3367 H3382 0.961 . S
C3367 H3383 0.960 . S
H3368 C3352 0.931 . S
H3369 C3357 0.929 . S
H3370 C3358 0.960 . S
H3371 C3358 0.962 . S
H3372 C3358 0.960 . S
H3373 C3359 0.961 . S
H3374 C3359 0.961 . S
H3375 C3359 0.961 . S
H3376 C3360 0.931 . S
H3377 C3365 0.930 . S
H3378 C3366 0.956 . S
H3379 C3366 0.961 . S
H3380 C3366 0.961 . S
H3381 C3367 0.958 . S
H3382 C3367 0.961 . S
H3383 C3367 0.960 . S
C3384 C3385 1.391 1_655 S
C3384 C3386 1.394 . S
C3384 H3400 0.931 . S
C3385 C3384 1.391 1_455 S
C3385 C3389 1.376 . S
C3386 C3384 1.394 . S
C3386 C3387 1.369 1_655 S
C3386 C3390 1.531 . S
C3387 C3386 1.369 1_455 S
C3387 C3388 1.410 . S
C3387 C3395 1.503 . S
C3388 C3387 1.410 . S
C3388 C3389 1.392 . S
C3388 C3391 1.511 . S
C3389 C3385 1.376 . S
C3389 C3388 1.392 . S
C3389 H3401 0.929 . S
C3390 C3386 1.531 . S
C3390 H3402 0.960 . S
C3390 H3403 0.962 . S
C3390 H3404 0.960 . S
C3391 C3388 1.511 . S
C3391 H3405 0.961 . S
C3391 H3406 0.961 . S
C3391 H3407 0.961 . S
C3392 C3393 1.393 . S
C3392 C3394 1.364 . S
C3392 H3408 0.918 1_455 S
C3393 C3392 1.393 . S
C3393 C3397 1.408 . S
C3394 C3392 1.364 . S
C3394 C3395 1.385 . S
C3394 C3398 1.501 1_455 S
C3395 C3387 1.503 . S
C3395 C3394 1.385 . S
C3395 C3396 1.403 . S
C3396 C3395 1.403 . S
C3396 C3397 1.404 . S
C3396 C3399 1.539 . S
C3397 C3393 1.408 . S
C3397 C3396 1.404 . S
C3397 H3409 0.930 . S
C3398 C3394 1.501 1_655 S
C3398 H3410 0.956 . S
C3398 H3411 0.961 . S
C3398 H3412 0.961 . S
C3399 C3396 1.539 . S
C3399 H3413 0.958 . S
C3399 H3414 0.961 . S
C3399 H3415 0.960 . S
H3400 C3384 0.931 . S
H3401 C3389 0.929 . S
H3402 C3390 0.960 . S
H3403 C3390 0.962 . S
H3404 C3390 0.960 . S
H3405 C3391 0.961 . S
H3406 C3391 0.961 . S
H3407 C3391 0.961 . S
H3408 C3392 0.918 1_655 S
H3409 C3397 0.930 . S
H3410 C3398 0.956 . S
H3411 C3398 0.961 . S
H3412 C3398 0.961 . S
H3413 C3399 0.958 . S
H3414 C3399 0.961 . S
H3415 C3399 0.960 . S
C3416 C3417 1.391 . S
C3416 C3418 1.394 . S
C3416 H3432 0.931 . S
C3417 C3416 1.391 . S
C3417 C3421 1.376 . S
C3418 C3416 1.394 . S
C3418 C3419 1.369 . S
C3418 C3422 1.531 . S
C3419 C3418 1.369 . S
C3419 C3420 1.410 . S
C3419 C3427 1.503 . S
C3420 C3419 1.410 . S
C3420 C3421 1.392 . S
C3420 C3423 1.511 . S
C3421 C3417 1.376 . S
C3421 C3420 1.392 . S
C3421 H3433 0.929 . S
C3422 C3418 1.531 . S
C3422 H3434 0.960 . S
C3422 H3435 0.962 . S
C3422 H3436 0.960 . S
C3423 C3420 1.511 . S
C3423 H3437 0.961 . S
C3423 H3438 0.961 . S
C3423 H3439 0.961 . S
C3424 C3425 1.370 . S
C3424 C3426 1.363 . S
C3424 H3440 0.931 . S
C3425 C3424 1.370 . S
C3425 C3429 1.408 . S
C3426 C3424 1.363 . S
C3426 C3427 1.370 . S
C3426 C3430 1.524 . S
C3427 C3419 1.503 . S
C3427 C3426 1.370 . S
C3427 C3428 1.403 . S
C3428 C3427 1.403 . S
C3428 C3429 1.404 . S
C3428 C3431 1.539 . S
C3429 C3425 1.408 . S
C3429 C3428 1.404 . S
C3429 H3441 0.930 . S
C3430 C3426 1.524 . S
C3430 H3442 0.956 . S
C3430 H3443 0.961 . S
C3430 H3444 0.961 . S
C3431 C3428 1.539 . S
C3431 H3445 0.958 . S
C3431 H3446 0.961 . S
C3431 H3447 0.960 . S
H3432 C3416 0.931 . S
H3433 C3421 0.929 . S
H3434 C3422 0.960 . S
H3435 C3422 0.962 . S
H3436 C3422 0.960 . S
H3437 C3423 0.961 . S
H3438 C3423 0.961 . S
H3439 C3423 0.961 . S
H3440 C3424 0.931 . S
H3441 C3429 0.930 . S
H3442 C3430 0.956 . S
H3443 C3430 0.961 . S
H3444 C3430 0.961 . S
H3445 C3431 0.958 . S
H3446 C3431 0.961 . S
H3447 C3431 0.960 . S
C3448 C3449 1.391 . S
C3448 C3450 1.394 . S
C3448 H3464 0.931 . S
C3449 C3448 1.391 . S
C3449 C3453 1.376 . S
C3450 C3448 1.394 . S
C3450 C3451 1.369 . S
C3450 C3454 1.531 . S
C3451 C3450 1.369 . S
C3451 C3452 1.410 . S
C3451 C3459 1.503 . S
C3452 C3451 1.410 . S
C3452 C3453 1.392 . S
C3452 C3455 1.511 . S
C3453 C3449 1.376 . S
C3453 C3452 1.392 . S
C3453 H3465 0.929 . S
C3454 C3450 1.531 . S
C3454 H3466 0.960 . S
C3454 H3467 0.962 . S
C3454 H3468 0.960 . S
C3455 C3452 1.511 . S
C3455 H3469 0.961 . S
C3455 H3470 0.961 . S
C3455 H3471 0.961 . S
C3456 C3457 1.370 . S
C3456 C3458 1.363 . S
C3456 H3472 0.931 . S
C3457 C3456 1.370 . S
C3457 C3461 1.408 . S
C3458 C3456 1.363 . S
C3458 C3459 1.370 . S
C3458 C3462 1.524 . S
C3459 C3451 1.503 . S
C3459 C3458 1.370 . S
C3459 C3460 1.403 . S
C3460 C3459 1.403 . S
C3460 C3461 1.404 . S
C3460 C3463 1.539 . S
C3461 C3457 1.408 . S
C3461 C3460 1.404 . S
C3461 H3473 0.930 . S
C3462 C3458 1.524 . S
C3462 H3474 0.956 . S
C3462 H3475 0.961 . S
C3462 H3476 0.961 . S
C3463 C3460 1.539 . S
C3463 H3477 0.958 . S
C3463 H3478 0.961 . S
C3463 H3479 0.960 . S
H3464 C3448 0.931 . S
H3465 C3453 0.929 . S
H3466 C3454 0.960 . S
H3467 C3454 0.962 . S
H3468 C3454 0.960 . S
H3469 C3455 0.961 . S
H3470 C3455 0.961 . S
H3471 C3455 0.961 . S
H3472 C3456 0.931 . S
H3473 C3461 0.930 . S
H3474 C3462 0.956 . S
H3475 C3462 0.961 . S
H3476 C3462 0.961 . S
H3477 C3463 0.958 . S
H3478 C3463 0.961 . S
H3479 C3463 0.960 . S
C3480 C3481 1.391 1_556 S
C3480 C3482 1.394 . S
C3480 H3496 0.931 1_556 S
C3481 C3480 1.391 1_554 S
C3481 C3485 1.376 1_554 S
C3482 C3480 1.394 . S
C3482 C3483 1.369 . S
C3482 C3486 1.531 . S
C3483 C3482 1.369 . S
C3483 C3484 1.410 . S
C3483 C3491 1.503 . S
C3484 C3483 1.410 . S
C3484 C3485 1.392 . S
C3484 C3487 1.511 . S
C3485 C3481 1.376 1_556 S
C3485 C3484 1.392 . S
C3485 H3497 0.929 . S
C3486 C3482 1.531 . S
C3486 H3498 0.960 . S
C3486 H3499 0.962 . S
C3486 H3500 0.960 . S
C3487 C3484 1.511 . S
C3487 H3501 0.961 . S
C3487 H3502 0.961 . S
C3487 H3503 0.961 . S
C3488 C3489 1.370 . S
C3488 C3490 1.363 . S
C3488 H3504 0.931 . S
C3489 C3488 1.370 . S
C3489 C3493 1.408 . S
C3490 C3488 1.363 . S
C3490 C3491 1.370 . S
C3490 C3494 1.524 . S
C3491 C3483 1.503 . S
C3491 C3490 1.370 . S
C3491 C3492 1.403 . S
C3492 C3491 1.403 . S
C3492 C3493 1.404 . S
C3492 C3495 1.539 . S
C3493 C3489 1.408 . S
C3493 C3492 1.404 . S
C3493 H3505 0.930 . S
C3494 C3490 1.524 . S
C3494 H3506 0.956 . S
C3494 H3507 0.961 . S
C3494 H3508 0.961 . S
C3495 C3492 1.539 . S
C3495 H3509 0.958 . S
C3495 H3510 0.961 . S
C3495 H3511 0.960 . S
H3496 C3480 0.931 1_554 S
H3497 C3485 0.929 . S
H3498 C3486 0.960 . S
H3499 C3486 0.962 . S
H3500 C3486 0.960 . S
H3501 C3487 0.961 . S
H3502 C3487 0.961 . S
H3503 C3487 0.961 . S
H3504 C3488 0.931 . S
H3505 C3493 0.930 . S
H3506 C3494 0.956 . S
H3507 C3494 0.961 . S
H3508 C3494 0.961 . S
H3509 C3495 0.958 . S
H3510 C3495 0.961 . S
H3511 C3495 0.960 . S
C3512 C3513 1.391 . S
C3512 C3514 1.394 . S
C3512 H3528 0.931 . S
C3513 C3512 1.391 . S
C3513 C3517 1.376 . S
C3514 C3512 1.394 . S
C3514 C3515 1.369 . S
C3514 C3518 1.531 . S
C3515 C3514 1.369 . S
C3515 C3516 1.410 . S
C3515 C3523 1.503 . S
C3516 C3515 1.410 . S
C3516 C3517 1.392 . S
C3516 C3519 1.511 . S
C3517 C3513 1.376 . S
C3517 C3516 1.392 . S
C3517 H3529 0.929 . S
C3518 C3514 1.531 . S
C3518 H3530 0.960 . S
C3518 H3531 0.962 . S
C3518 H3532 0.960 . S
C3519 C3516 1.511 . S
C3519 H3533 0.961 . S
C3519 H3534 0.961 . S
C3519 H3535 0.961 . S
C3520 C3521 1.370 . S
C3520 C3522 1.363 . S
C3520 H3536 0.931 . S
C3521 C3520 1.370 . S
C3521 C3525 1.408 . S
C3522 C3520 1.363 . S
C3522 C3523 1.370 . S
C3522 C3526 1.524 . S
C3523 C3515 1.503 . S
C3523 C3522 1.370 . S
C3523 C3524 1.403 . S
C3524 C3523 1.403 . S
C3524 C3525 1.404 . S
C3524 C3527 1.539 . S
C3525 C3521 1.408 . S
C3525 C3524 1.404 . S
C3525 H3537 0.930 . S
C3526 C3522 1.524 . S
C3526 H3538 0.956 . S
C3526 H3539 0.961 . S
C3526 H3540 0.961 . S
C3527 C3524 1.539 . S
C3527 H3541 0.958 . S
C3527 H3542 0.961 . S
C3527 H3543 0.960 . S
H3528 C3512 0.931 . S
H3529 C3517 0.929 . S
H3530 C3518 0.960 . S
H3531 C3518 0.962 . S
H3532 C3518 0.960 . S
H3533 C3519 0.961 . S
H3534 C3519 0.961 . S
H3535 C3519 0.961 . S
H3536 C3520 0.931 . S
H3537 C3525 0.930 . S
H3538 C3526 0.956 . S
H3539 C3526 0.961 . S
H3540 C3526 0.961 . S
H3541 C3527 0.958 . S
H3542 C3527 0.961 . S
H3543 C3527 0.960 . S
C3544 C3545 1.391 . S
C3544 C3546 1.394 . S
C3544 H3560 0.931 . S
C3545 C3544 1.391 . S
C3545 C3549 1.376 . S
C3546 C3544 1.394 . S
C3546 C3547 1.369 . S
C3546 C3550 1.531 . S
C3547 C3546 1.369 . S
C3547 C3548 1.410 . S
C3547 C3555 1.503 . S
C3548 C3547 1.410 . S
C3548 C3549 1.392 . S
C3548 C3551 1.511 . S
C3549 C3545 1.376 . S
C3549 C3548 1.392 . S
C3549 H3561 0.929 . S
C3550 C3546 1.531 . S
C3550 H3562 0.960 . S
C3550 H3563 0.962 . S
C3550 H3564 0.960 . S
C3551 C3548 1.511 . S
C3551 H3565 0.961 . S
C3551 H3566 0.961 . S
C3551 H3567 0.961 . S
C3552 C3553 1.370 . S
C3552 C3554 1.363 . S
C3552 H3568 0.931 . S
C3553 C3552 1.370 . S
C3553 C3557 1.408 . S
C3554 C3552 1.363 . S
C3554 C3555 1.370 . S
C3554 C3558 1.524 . S
C3555 C3547 1.503 . S
C3555 C3554 1.370 . S
C3555 C3556 1.403 . S
C3556 C3555 1.403 . S
C3556 C3557 1.404 . S
C3556 C3559 1.539 . S
C3557 C3553 1.408 . S
C3557 C3556 1.404 . S
C3557 H3569 0.930 . S
C3558 C3554 1.524 . S
C3558 H3570 0.956 . S
C3558 H3571 0.961 . S
C3558 H3572 0.961 . S
C3559 C3556 1.539 . S
C3559 H3573 0.958 . S
C3559 H3574 0.961 . S
C3559 H3575 0.960 . S
H3560 C3544 0.931 . S
H3561 C3549 0.929 . S
H3562 C3550 0.960 . S
H3563 C3550 0.962 . S
H3564 C3550 0.960 . S
H3565 C3551 0.961 . S
H3566 C3551 0.961 . S
H3567 C3551 0.961 . S
H3568 C3552 0.931 . S
H3569 C3557 0.930 . S
H3570 C3558 0.956 . S
H3571 C3558 0.961 . S
H3572 C3558 0.961 . S
H3573 C3559 0.958 . S
H3574 C3559 0.961 . S
H3575 C3559 0.960 . S
C3576 C3577 1.391 . S
C3576 C3578 1.394 . S
C3576 H3592 0.931 . S
C3577 C3576 1.391 . S
C3577 C3581 1.376 . S
C3578 C3576 1.394 . S
C3578 C3579 1.369 . S
C3578 C3582 1.531 . S
C3579 C3578 1.369 . S
C3579 C3580 1.410 . S
C3579 C3587 1.503 . S
C3580 C3579 1.410 . S
C3580 C3581 1.392 . S
C3580 C3583 1.511 . S
C3581 C3577 1.376 . S
C3581 C3580 1.392 . S
C3581 H3593 0.929 . S
C3582 C3578 1.531 . S
C3582 H3594 0.960 . S
C3582 H3595 0.962 . S
C3582 H3596 0.960 . S
C3583 C3580 1.511 . S
C3583 H3597 0.961 . S
C3583 H3598 0.961 . S
C3583 H3599 0.961 . S
C3584 C3585 1.370 . S
C3584 C3586 1.363 . S
C3584 H3600 0.931 . S
C3585 C3584 1.370 . S
C3585 C3589 1.408 . S
C3586 C3584 1.363 . S
C3586 C3587 1.370 . S
C3586 C3590 1.524 . S
C3587 C3579 1.503 . S
C3587 C3586 1.370 . S
C3587 C3588 1.403 . S
C3588 C3587 1.403 . S
C3588 C3589 1.404 . S
C3588 C3591 1.539 . S
C3589 C3585 1.408 . S
C3589 C3588 1.404 . S
C3589 H3601 0.930 . S
C3590 C3586 1.524 . S
C3590 H3602 0.956 . S
C3590 H3603 0.961 . S
C3590 H3604 0.961 . S
C3591 C3588 1.539 . S
C3591 H3605 0.958 . S
C3591 H3606 0.961 . S
C3591 H3607 0.960 . S
H3592 C3576 0.931 . S
H3593 C3581 0.929 . S
H3594 C3582 0.960 . S
H3595 C3582 0.962 . S
H3596 C3582 0.960 . S
H3597 C3583 0.961 . S
H3598 C3583 0.961 . S
H3599 C3583 0.961 . S
H3600 C3584 0.931 . S
H3601 C3589 0.930 . S
H3602 C3590 0.956 . S
H3603 C3590 0.961 . S
H3604 C3590 0.961 . S
H3605 C3591 0.958 . S
H3606 C3591 0.961 . S
H3607 C3591 0.960 . S
C3608 C3609 1.391 . S
C3608 C3610 1.394 . S
C3608 H3624 0.931 . S
C3609 C3608 1.391 . S
C3609 C3613 1.376 . S
C3610 C3608 1.394 . S
C3610 C3611 1.369 . S
C3610 C3614 1.531 . S
C3611 C3610 1.369 . S
C3611 C3612 1.410 . S
C3611 C3619 1.503 . S
C3612 C3611 1.410 . S
C3612 C3613 1.392 . S
C3612 C3615 1.511 . S
C3613 C3609 1.376 . S
C3613 C3612 1.392 . S
C3613 H3625 0.929 . S
C3614 C3610 1.531 . S
C3614 H3626 0.960 . S
C3614 H3627 0.962 . S
C3614 H3628 0.960 . S
C3615 C3612 1.511 . S
C3615 H3629 0.961 . S
C3615 H3630 0.961 . S
C3615 H3631 0.961 . S
C3616 C3617 1.370 . S
C3616 C3618 1.363 . S
C3616 H3632 0.931 . S
C3617 C3616 1.370 . S
C3617 C3621 1.408 . S
C3618 C3616 1.363 . S
C3618 C3619 1.370 . S
C3618 C3622 1.524 . S
C3619 C3611 1.503 . S
C3619 C3618 1.370 . S
C3619 C3620 1.403 . S
C3620 C3619 1.403 . S
C3620 C3621 1.404 . S
C3620 C3623 1.539 . S
C3621 C3617 1.408 . S
C3621 C3620 1.404 . S
C3621 H3633 0.930 . S
C3622 C3618 1.524 . S
C3622 H3634 0.956 . S
C3622 H3635 0.961 . S
C3622 H3636 0.961 . S
C3623 C3620 1.539 . S
C3623 H3637 0.958 . S
C3623 H3638 0.961 . S
C3623 H3639 0.960 . S
H3624 C3608 0.931 . S
H3625 C3613 0.929 . S
H3626 C3614 0.960 . S
H3627 C3614 0.962 . S
H3628 C3614 0.960 . S
H3629 C3615 0.961 . S
H3630 C3615 0.961 . S
H3631 C3615 0.961 . S
H3632 C3616 0.931 . S
H3633 C3621 0.930 . S
H3634 C3622 0.956 . S
H3635 C3622 0.961 . S
H3636 C3622 0.961 . S
H3637 C3623 0.958 . S
H3638 C3623 0.961 . S
H3639 C3623 0.960 . S
C3640 C3641 1.391 . S
C3640 C3642 1.394 . S
C3640 H3656 0.931 . S
C3641 C3640 1.391 . S
C3641 C3645 1.376 . S
C3642 C3640 1.394 . S
C3642 C3643 1.369 . S
C3642 C3646 1.531 . S
C3643 C3642 1.369 . S
C3643 C3644 1.410 . S
C3643 C3651 1.503 . S
C3644 C3643 1.410 . S
C3644 C3645 1.392 . S
C3644 C3647 1.511 . S
C3645 C3641 1.376 . S
C3645 C3644 1.392 . S
C3645 H3657 0.929 . S
C3646 C3642 1.531 . S
C3646 H3658 0.960 . S
C3646 H3659 0.962 . S
C3646 H3660 0.960 . S
C3647 C3644 1.511 . S
C3647 H3661 0.961 . S
C3647 H3662 0.961 . S
C3647 H3663 0.961 . S
C3648 C3649 1.370 . S
C3648 C3650 1.363 . S
C3648 H3664 0.931 . S
C3649 C3648 1.370 . S
C3649 C3653 1.408 . S
C3650 C3648 1.363 . S
C3650 C3651 1.370 . S
C3650 C3654 1.524 . S
C3651 C3643 1.503 . S
C3651 C3650 1.370 . S
C3651 C3652 1.403 . S
C3652 C3651 1.403 . S
C3652 C3653 1.404 . S
C3652 C3655 1.539 . S
C3653 C3649 1.408 . S
C3653 C3652 1.404 . S
C3653 H3665 0.930 . S
C3654 C3650 1.524 . S
C3654 H3666 0.956 . S
C3654 H3667 0.961 . S
C3654 H3668 0.961 . S
C3655 C3652 1.539 . S
C3655 H3669 0.958 . S
C3655 H3670 0.961 . S
C3655 H3671 0.960 . S
H3656 C3640 0.931 . S
H3657 C3645 0.929 . S
H3658 C3646 0.960 . S
H3659 C3646 0.962 . S
H3660 C3646 0.960 . S
H3661 C3647 0.961 . S
H3662 C3647 0.961 . S
H3663 C3647 0.961 . S
H3664 C3648 0.931 . S
H3665 C3653 0.930 . S
H3666 C3654 0.956 . S
H3667 C3654 0.961 . S
H3668 C3654 0.961 . S
H3669 C3655 0.958 . S
H3670 C3655 0.961 . S
H3671 C3655 0.960 . S
C3672 C3673 1.391 . S
C3672 C3674 1.394 . S
C3672 H3688 0.931 . S
C3673 C3672 1.391 . S
C3673 C3677 1.376 . S
C3674 C3672 1.394 . S
C3674 C3675 1.369 . S
C3674 C3678 1.531 . S
C3675 C3674 1.369 . S
C3675 C3676 1.410 . S
C3675 C3683 1.503 . S
C3676 C3675 1.410 . S
C3676 C3677 1.392 . S
C3676 C3679 1.511 . S
C3677 C3673 1.376 . S
C3677 C3676 1.392 . S
C3677 H3689 0.929 . S
C3678 C3674 1.531 . S
C3678 H3690 0.960 . S
C3678 H3691 0.962 . S
C3678 H3692 0.960 . S
C3679 C3676 1.511 . S
C3679 H3693 0.961 . S
C3679 H3694 0.961 . S
C3679 H3695 0.961 . S
C3680 C3681 1.370 . S
C3680 C3682 1.363 . S
C3680 H3696 0.931 . S
C3681 C3680 1.370 . S
C3681 C3685 1.408 . S
C3682 C3680 1.363 . S
C3682 C3683 1.370 . S
C3682 C3686 1.524 . S
C3683 C3675 1.503 . S
C3683 C3682 1.370 . S
C3683 C3684 1.403 . S
C3684 C3683 1.403 . S
C3684 C3685 1.404 . S
C3684 C3687 1.539 . S
C3685 C3681 1.408 . S
C3685 C3684 1.404 . S
C3685 H3697 0.930 . S
C3686 C3682 1.524 . S
C3686 H3698 0.956 . S
C3686 H3699 0.961 . S
C3686 H3700 0.961 . S
C3687 C3684 1.539 . S
C3687 H3701 0.958 . S
C3687 H3702 0.961 . S
C3687 H3703 0.960 . S
H3688 C3672 0.931 . S
H3689 C3677 0.929 . S
H3690 C3678 0.960 . S
H3691 C3678 0.962 . S
H3692 C3678 0.960 . S
H3693 C3679 0.961 . S
H3694 C3679 0.961 . S
H3695 C3679 0.961 . S
H3696 C3680 0.931 . S
H3697 C3685 0.930 . S
H3698 C3686 0.956 . S
H3699 C3686 0.961 . S
H3700 C3686 0.961 . S
H3701 C3687 0.958 . S
H3702 C3687 0.961 . S
H3703 C3687 0.960 . S
C3704 C3705 1.391 . S
C3704 C3706 1.394 . S
C3704 H3720 0.931 . S
C3705 C3704 1.391 . S
C3705 C3709 1.376 . S
C3706 C3704 1.394 . S
C3706 C3707 1.369 . S
C3706 C3710 1.531 . S
C3707 C3706 1.369 . S
C3707 C3708 1.410 . S
C3707 C3715 1.503 . S
C3708 C3707 1.410 . S
C3708 C3709 1.392 . S
C3708 C3711 1.511 . S
C3709 C3705 1.376 . S
C3709 C3708 1.392 . S
C3709 H3721 0.929 . S
C3710 C3706 1.531 . S
C3710 H3722 0.960 . S
C3710 H3723 0.962 . S
C3710 H3724 0.960 . S
C3711 C3708 1.511 . S
C3711 H3725 0.961 . S
C3711 H3726 0.961 . S
C3711 H3727 0.961 . S
C3712 C3713 1.370 . S
C3712 C3714 1.363 . S
C3712 H3728 0.931 . S
C3713 C3712 1.370 . S
C3713 C3717 1.408 . S
C3714 C3712 1.363 . S
C3714 C3715 1.370 . S
C3714 C3718 1.524 . S
C3715 C3707 1.503 . S
C3715 C3714 1.370 . S
C3715 C3716 1.403 . S
C3716 C3715 1.403 . S
C3716 C3717 1.404 . S
C3716 C3719 1.539 . S
C3717 C3713 1.408 . S
C3717 C3716 1.404 . S
C3717 H3729 0.930 . S
C3718 C3714 1.524 . S
C3718 H3730 0.956 . S
C3718 H3731 0.961 . S
C3718 H3732 0.961 . S
C3719 C3716 1.539 . S
C3719 H3733 0.958 . S
C3719 H3734 0.961 . S
C3719 H3735 0.960 . S
H3720 C3704 0.931 . S
H3721 C3709 0.929 . S
H3722 C3710 0.960 . S
H3723 C3710 0.962 . S
H3724 C3710 0.960 . S
H3725 C3711 0.961 . S
H3726 C3711 0.961 . S
H3727 C3711 0.961 . S
H3728 C3712 0.931 . S
H3729 C3717 0.930 . S
H3730 C3718 0.956 . S
H3731 C3718 0.961 . S
H3732 C3718 0.961 . S
H3733 C3719 0.958 . S
H3734 C3719 0.961 . S
H3735 C3719 0.960 . S
C3736 C3737 1.391 . S
C3736 C3738 1.394 . S
C3736 H3752 0.931 . S
C3737 C3736 1.391 . S
C3737 C3741 1.376 . S
C3738 C3736 1.394 . S
C3738 C3739 1.369 . S
C3738 C3742 1.531 . S
C3739 C3738 1.369 . S
C3739 C3740 1.410 . S
C3739 C3747 1.503 . S
C3740 C3739 1.410 . S
C3740 C3741 1.392 . S
C3740 C3743 1.511 . S
C3741 C3737 1.376 . S
C3741 C3740 1.392 . S
C3741 H3753 0.929 . S
C3742 C3738 1.531 . S
C3742 H3754 0.960 . S
C3742 H3755 0.962 . S
C3742 H3756 0.960 . S
C3743 C3740 1.511 . S
C3743 H3757 0.961 . S
C3743 H3758 0.961 . S
C3743 H3759 0.961 . S
C3744 C3745 1.370 . S
C3744 C3746 1.363 . S
C3744 H3760 0.931 . S
C3745 C3744 1.370 . S
C3745 C3749 1.408 . S
C3746 C3744 1.363 . S
C3746 C3747 1.370 . S
C3746 C3750 1.524 . S
C3747 C3739 1.503 . S
C3747 C3746 1.370 . S
C3747 C3748 1.403 . S
C3748 C3747 1.403 . S
C3748 C3749 1.404 . S
C3748 C3751 1.539 . S
C3749 C3745 1.408 . S
C3749 C3748 1.404 . S
C3749 H3761 0.930 . S
C3750 C3746 1.524 . S
C3750 H3762 0.956 . S
C3750 H3763 0.961 . S
C3750 H3764 0.961 . S
C3751 C3748 1.539 . S
C3751 H3765 0.958 . S
C3751 H3766 0.961 . S
C3751 H3767 0.960 . S
H3752 C3736 0.931 . S
H3753 C3741 0.929 . S
H3754 C3742 0.960 . S
H3755 C3742 0.962 . S
H3756 C3742 0.960 . S
H3757 C3743 0.961 . S
H3758 C3743 0.961 . S
H3759 C3743 0.961 . S
H3760 C3744 0.931 . S
H3761 C3749 0.930 . S
H3762 C3750 0.956 . S
H3763 C3750 0.961 . S
H3764 C3750 0.961 . S
H3765 C3751 0.958 . S
H3766 C3751 0.961 . S
H3767 C3751 0.960 . S
C3768 C3769 1.397 . S
C3768 C3770 1.425 . S
C3768 H3784 0.895 1_565 S
C3769 C3768 1.397 . S
C3769 C3773 1.376 . S
C3770 C3768 1.425 . S
C3770 C3771 1.369 . S
C3770 C3774 1.531 . S
C3771 C3770 1.369 . S
C3771 C3772 1.410 . S
C3771 C3779 1.503 . S
C3772 C3771 1.410 . S
C3772 C3773 1.392 . S
C3772 C3775 1.511 . S
C3773 C3769 1.376 . S
C3773 C3772 1.392 . S
C3773 H3785 0.929 . S
C3774 C3770 1.531 . S
C3774 H3786 0.960 . S
C3774 H3787 0.962 . S
C3774 H3788 0.960 1_565 S
C3775 C3772 1.511 . S
C3775 H3789 0.961 . S
C3775 H3790 0.961 . S
C3775 H3791 0.961 . S
C3776 C3777 1.370 . S
C3776 C3778 1.363 . S
C3776 H3792 0.931 . S
C3777 C3776 1.370 . S
C3777 C3781 1.408 . S
C3778 C3776 1.363 . S
C3778 C3779 1.370 . S
C3778 C3782 1.524 . S
C3779 C3771 1.503 . S
C3779 C3778 1.370 . S
C3779 C3780 1.403 . S
C3780 C3779 1.403 . S
C3780 C3781 1.404 . S
C3780 C3783 1.539 . S
C3781 C3777 1.408 . S
C3781 C3780 1.404 . S
C3781 H3793 0.930 . S
C3782 C3778 1.524 . S
C3782 H3794 0.956 . S
C3782 H3795 0.961 . S
C3782 H3796 0.961 . S
C3783 C3780 1.539 . S
C3783 H3797 0.958 . S
C3783 H3798 0.961 . S
C3783 H3799 0.960 . S
H3784 C3768 0.895 1_545 S
H3785 C3773 0.929 . S
H3786 C3774 0.960 . S
H3787 C3774 0.962 . S
H3788 C3774 0.960 1_545 S
H3789 C3775 0.961 . S
H3790 C3775 0.961 . S
H3791 C3775 0.961 . S
H3792 C3776 0.931 . S
H3793 C3781 0.930 . S
H3794 C3782 0.956 . S
H3795 C3782 0.961 . S
H3796 C3782 0.961 . S
H3797 C3783 0.958 . S
H3798 C3783 0.961 . S
H3799 C3783 0.960 . S
C3800 C3801 1.408 . S
C3800 C3802 1.394 . S
C3800 H3816 0.931 . S
C3801 C3800 1.408 . S
C3801 C3805 1.360 1_554 S
C3802 C3800 1.394 . S
C3802 C3803 1.369 . S
C3802 C3806 1.531 1_565 S
C3803 C3802 1.369 . S
C3803 C3804 1.410 1_554 S
C3803 C3811 1.503 . S
C3804 C3803 1.410 1_556 S
C3804 C3805 1.392 . S
C3804 C3807 1.511 . S
C3805 C3801 1.360 1_556 S
C3805 C3804 1.392 . S
C3805 H3817 0.929 . S
C3806 C3802 1.531 1_545 S
C3806 H3818 0.960 . S
C3806 H3819 0.962 . S
C3806 H3820 0.960 . S
C3807 C3804 1.511 . S
C3807 H3821 0.961 . S
C3807 H3822 0.961 . S
C3807 H3823 0.961 . S
C3808 C3809 1.370 1_556 S
C3808 C3810 1.363 . S
C3808 H3824 0.931 . S
C3809 C3808 1.370 1_554 S
C3809 C3813 1.408 . S
C3810 C3808 1.363 . S
C3810 C3811 1.370 1_546 S
C3810 C3814 1.524 . S
C3811 C3803 1.503 . S
C3811 C3810 1.370 1_564 S
C3811 C3812 1.403 . S
C3812 C3811 1.403 . S
C3812 C3813 1.404 1_565 S
C3812 C3815 1.539 . S
C3813 C3809 1.408 . S
C3813 C3812 1.404 1_545 S
C3813 H3825 0.930 . S
C3814 C3810 1.524 . S
C3814 H3826 0.956 . S
C3814 H3827 0.961 1_545 S
C3814 H3828 0.961 . S
C3815 C3812 1.539 . S
C3815 H3829 0.958 . S
C3815 H3830 0.961 . S
C3815 H3831 0.960 . S
H3816 C3800 0.931 . S
H3817 C3805 0.929 . S
H3818 C3806 0.960 . S
H3819 C3806 0.962 . S
H3820 C3806 0.960 . S
H3821 C3807 0.961 . S
H3822 C3807 0.961 . S
H3823 C3807 0.961 . S
H3824 C3808 0.931 . S
H3825 C3813 0.930 . S
H3826 C3814 0.956 . S
H3827 C3814 0.961 1_565 S
H3828 C3814 0.961 . S
H3829 C3815 0.958 . S
H3830 C3815 0.961 . S
H3831 C3815 0.960 . S
C3832 C3833 1.391 . S
C3832 C3834 1.394 . S
C3832 H3848 0.931 . S
C3833 C3832 1.391 . S
C3833 C3837 1.376 . S
C3834 C3832 1.394 . S
C3834 C3835 1.369 . S
C3834 C3838 1.531 . S
C3835 C3834 1.369 . S
C3835 C3836 1.410 . S
C3835 C3843 1.503 . S
C3836 C3835 1.410 . S
C3836 C3837 1.392 . S
C3836 C3839 1.511 . S
C3837 C3833 1.376 . S
C3837 C3836 1.392 . S
C3837 H3849 0.929 . S
C3838 C3834 1.531 . S
C3838 H3850 0.960 . S
C3838 H3851 0.962 . S
C3838 H3852 0.960 . S
C3839 C3836 1.511 . S
C3839 H3853 0.961 . S
C3839 H3854 0.961 . S
C3839 H3855 0.961 . S
C3840 C3841 1.370 . S
C3840 C3842 1.363 . S
C3840 H3856 0.931 . S
C3841 C3840 1.370 . S
C3841 C3845 1.408 . S
C3842 C3840 1.363 . S
C3842 C3843 1.370 . S
C3842 C3846 1.524 . S
C3843 C3835 1.503 . S
C3843 C3842 1.370 . S
C3843 C3844 1.403 . S
C3844 C3843 1.403 . S
C3844 C3845 1.404 . S
C3844 C3847 1.539 . S
C3845 C3841 1.408 . S
C3845 C3844 1.404 . S
C3845 H3857 0.930 . S
C3846 C3842 1.524 . S
C3846 H3858 0.956 . S
C3846 H3859 0.961 . S
C3846 H3860 0.961 . S
C3847 C3844 1.539 . S
C3847 H3861 0.958 . S
C3847 H3862 0.961 . S
C3847 H3863 0.960 . S
H3848 C3832 0.931 . S
H3849 C3837 0.929 . S
H3850 C3838 0.960 . S
H3851 C3838 0.962 . S
H3852 C3838 0.960 . S
H3853 C3839 0.961 . S
H3854 C3839 0.961 . S
H3855 C3839 0.961 . S
H3856 C3840 0.931 . S
H3857 C3845 0.930 . S
H3858 C3846 0.956 . S
H3859 C3846 0.961 . S
H3860 C3846 0.961 . S
H3861 C3847 0.958 . S
H3862 C3847 0.961 . S
H3863 C3847 0.960 . S
C3864 C3865 1.391 . S
C3864 C3866 1.394 . S
C3864 H3880 0.931 . S
C3865 C3864 1.391 . S
C3865 C3869 1.376 . S
C3866 C3864 1.394 . S
C3866 C3867 1.369 . S
C3866 C3870 1.531 . S
C3867 C3866 1.369 . S
C3867 C3868 1.410 . S
C3867 C3875 1.503 . S
C3868 C3867 1.410 . S
C3868 C3869 1.392 . S
C3868 C3871 1.511 . S
C3869 C3865 1.376 . S
C3869 C3868 1.392 . S
C3869 H3881 0.929 . S
C3870 C3866 1.531 . S
C3870 H3882 0.956 1_554 S
C3870 H3883 0.962 . S
C3870 H3884 0.960 1_554 S
C3871 C3868 1.511 . S
C3871 H3885 0.961 . S
C3871 H3886 0.961 . S
C3871 H3887 0.961 . S
C3872 C3873 1.370 . S
C3872 C3874 1.363 . S
C3872 H3888 0.931 . S
C3873 C3872 1.370 . S
C3873 C3877 1.408 . S
C3874 C3872 1.363 . S
C3874 C3875 1.370 . S
C3874 C3878 1.524 . S
C3875 C3867 1.503 . S
C3875 C3874 1.370 . S
C3875 C3876 1.403 . S
C3876 C3875 1.403 . S
C3876 C3877 1.404 . S
C3876 C3879 1.539 . S
C3877 C3873 1.408 . S
C3877 C3876 1.404 . S
C3877 H3889 0.930 . S
C3878 C3874 1.524 . S
C3878 H3890 0.956 . S
C3878 H3891 0.961 . S
C3878 H3892 0.961 . S
C3879 C3876 1.539 . S
C3879 H3893 0.958 1_554 S
C3879 H3894 0.961 . S
C3879 H3895 0.960 . S
H3880 C3864 0.931 . S
H3881 C3869 0.929 . S
H3882 C3870 0.956 1_556 S
H3883 C3870 0.962 . S
H3884 C3870 0.960 1_556 S
H3885 C3871 0.961 . S
H3886 C3871 0.961 . S
H3887 C3871 0.961 . S
H3888 C3872 0.931 . S
H3889 C3877 0.930 . S
H3890 C3878 0.956 . S
H3891 C3878 0.961 . S
H3892 C3878 0.961 . S
H3893 C3879 0.958 1_556 S
H3894 C3879 0.961 . S
H3895 C3879 0.960 . S
C3896 C3897 1.391 . S
C3896 C3898 1.394 . S
C3896 H3912 0.931 . S
C3897 C3896 1.391 . S
C3897 C3901 1.376 . S
C3898 C3896 1.394 . S
C3898 C3899 1.369 . S
C3898 C3902 1.531 . S
C3899 C3898 1.369 . S
C3899 C3900 1.410 . S
C3899 C3907 1.503 . S
C3900 C3899 1.410 . S
C3900 C3901 1.392 . S
C3900 C3903 1.511 . S
C3901 C3897 1.376 . S
C3901 C3900 1.392 . S
C3901 H3913 0.929 . S
C3902 C3898 1.531 . S
C3902 H3914 0.960 . S
C3902 H3915 0.962 . S
C3902 H3916 0.960 . S
C3903 C3900 1.511 . S
C3903 H3917 0.961 . S
C3903 H3918 0.961 . S
C3903 H3919 0.961 . S
C3904 C3905 1.370 . S
C3904 C3906 1.363 . S
C3904 H3920 0.931 . S
C3905 C3904 1.370 . S
C3905 C3909 1.408 . S
C3906 C3904 1.363 . S
C3906 C3907 1.370 . S
C3906 C3910 1.524 . S
C3907 C3899 1.503 . S
C3907 C3906 1.370 . S
C3907 C3908 1.403 . S
C3908 C3907 1.403 . S
C3908 C3909 1.404 . S
C3908 C3911 1.539 . S
C3909 C3905 1.408 . S
C3909 C3908 1.404 . S
C3909 H3921 0.930 . S
C3910 C3906 1.524 . S
C3910 H3922 0.956 . S
C3910 H3923 0.961 . S
C3910 H3924 0.961 . S
C3911 C3908 1.539 . S
C3911 H3925 0.958 . S
C3911 H3926 0.961 . S
C3911 H3927 0.960 . S
H3912 C3896 0.931 . S
H3913 C3901 0.929 . S
H3914 C3902 0.960 . S
H3915 C3902 0.962 . S
H3916 C3902 0.960 . S
H3917 C3903 0.961 . S
H3918 C3903 0.961 . S
H3919 C3903 0.961 . S
H3920 C3904 0.931 . S
H3921 C3909 0.930 . S
H3922 C3910 0.956 . S
H3923 C3910 0.961 . S
H3924 C3910 0.961 . S
H3925 C3911 0.958 . S
H3926 C3911 0.961 . S
H3927 C3911 0.960 . S
C3928 C3929 1.391 . S
C3928 C3930 1.394 . S
C3928 H3944 0.931 . S
C3929 C3928 1.391 . S
C3929 C3933 1.376 . S
C3930 C3928 1.394 . S
C3930 C3931 1.369 . S
C3930 C3934 1.531 . S
C3931 C3930 1.369 . S
C3931 C3932 1.410 . S
C3931 C3939 1.503 . S
C3932 C3931 1.410 . S
C3932 C3933 1.392 . S
C3932 C3935 1.511 . S
C3933 C3929 1.376 . S
C3933 C3932 1.392 . S
C3933 H3945 0.929 . S
C3934 C3930 1.531 . S
C3934 H3946 0.960 . S
C3934 H3947 0.962 . S
C3934 H3948 0.960 . S
C3935 C3932 1.511 . S
C3935 H3949 0.961 . S
C3935 H3950 0.961 . S
C3935 H3951 0.961 . S
C3936 C3937 1.370 . S
C3936 C3938 1.363 . S
C3936 H3952 0.931 . S
C3937 C3936 1.370 . S
C3937 C3941 1.408 . S
C3938 C3936 1.363 . S
C3938 C3939 1.370 . S
C3938 C3942 1.524 . S
C3939 C3931 1.503 . S
C3939 C3938 1.370 . S
C3939 C3940 1.403 . S
C3940 C3939 1.403 . S
C3940 C3941 1.404 . S
C3940 C3943 1.539 . S
C3941 C3937 1.408 . S
C3941 C3940 1.404 . S
C3941 H3953 0.930 . S
C3942 C3938 1.524 . S
C3942 H3954 0.956 . S
C3942 H3955 0.961 . S
C3942 H3956 0.961 . S
C3943 C3940 1.539 . S
C3943 H3957 0.958 . S
C3943 H3958 0.961 . S
C3943 H3959 0.960 . S
H3944 C3928 0.931 . S
H3945 C3933 0.929 . S
H3946 C3934 0.960 . S
H3947 C3934 0.962 . S
H3948 C3934 0.960 . S
H3949 C3935 0.961 . S
H3950 C3935 0.961 . S
H3951 C3935 0.961 . S
H3952 C3936 0.931 . S
H3953 C3941 0.930 . S
H3954 C3942 0.956 . S
H3955 C3942 0.961 . S
H3956 C3942 0.961 . S
H3957 C3943 0.958 . S
H3958 C3943 0.961 . S
H3959 C3943 0.960 . S
C3960 C3961 1.391 . S
C3960 C3962 1.394 . S
C3960 H3976 0.931 . S
C3961 C3960 1.391 . S
C3961 C3965 1.376 . S
C3962 C3960 1.394 . S
C3962 C3963 1.369 . S
C3962 C3966 1.531 . S
C3963 C3962 1.369 . S
C3963 C3964 1.410 . S
C3963 C3971 1.503 . S
C3964 C3963 1.410 . S
C3964 C3965 1.392 . S
C3964 C3967 1.511 . S
C3965 C3961 1.376 . S
C3965 C3964 1.392 . S
C3965 H3977 0.929 . S
C3966 C3962 1.531 . S
C3966 H3978 0.960 . S
C3966 H3979 0.962 . S
C3966 H3980 0.960 . S
C3967 C3964 1.511 . S
C3967 H3981 0.961 . S
C3967 H3982 0.961 . S
C3967 H3983 0.961 . S
C3968 C3969 1.370 . S
C3968 C3970 1.363 . S
C3968 H3984 0.931 . S
C3969 C3968 1.370 . S
C3969 C3973 1.408 . S
C3970 C3968 1.363 . S
C3970 C3971 1.370 . S
C3970 C3974 1.524 . S
C3971 C3963 1.503 . S
C3971 C3970 1.370 . S
C3971 C3972 1.403 . S
C3972 C3971 1.403 . S
C3972 C3973 1.404 . S
C3972 C3975 1.539 . S
C3973 C3969 1.408 . S
C3973 C3972 1.404 . S
C3973 H3985 0.930 . S
C3974 C3970 1.524 . S
C3974 H3986 0.956 . S
C3974 H3987 0.961 . S
C3974 H3988 0.961 . S
C3975 C3972 1.539 . S
C3975 H3989 0.958 . S
C3975 H3990 0.961 . S
C3975 H3991 0.960 . S
H3976 C3960 0.931 . S
H3977 C3965 0.929 . S
H3978 C3966 0.960 . S
H3979 C3966 0.962 . S
H3980 C3966 0.960 . S
H3981 C3967 0.961 . S
H3982 C3967 0.961 . S
H3983 C3967 0.961 . S
H3984 C3968 0.931 . S
H3985 C3973 0.930 . S
H3986 C3974 0.956 . S
H3987 C3974 0.961 . S
H3988 C3974 0.961 . S
H3989 C3975 0.958 . S
H3990 C3975 0.961 . S
H3991 C3975 0.960 . S
C3992 C3993 1.391 . S
C3992 C3994 1.394 . S
C3992 H4008 0.931 . S
C3993 C3992 1.391 . S
C3993 C3997 1.376 . S
C3994 C3992 1.394 . S
C3994 C3995 1.369 . S
C3994 C3998 1.531 . S
C3995 C3994 1.369 . S
C3995 C3996 1.410 . S
C3995 C4003 1.503 . S
C3996 C3995 1.410 . S
C3996 C3997 1.392 . S
C3996 C3999 1.511 . S
C3997 C3993 1.376 . S
C3997 C3996 1.392 . S
C3997 H4009 0.929 . S
C3998 C3994 1.531 . S
C3998 H4010 0.960 . S
C3998 H4011 0.962 . S
C3998 H4012 0.960 . S
C3999 C3996 1.511 . S
C3999 H4013 0.961 . S
C3999 H4014 0.961 . S
C3999 H4015 0.961 . S
C4000 C4001 1.370 . S
C4000 C4002 1.363 . S
C4000 H4016 0.931 . S
C4001 C4000 1.370 . S
C4001 C4005 1.408 . S
C4002 C4000 1.363 . S
C4002 C4003 1.370 . S
C4002 C4006 1.524 . S
C4003 C3995 1.503 . S
C4003 C4002 1.370 . S
C4003 C4004 1.403 . S
C4004 C4003 1.403 . S
C4004 C4005 1.404 . S
C4004 C4007 1.539 . S
C4005 C4001 1.408 . S
C4005 C4004 1.404 . S
C4005 H4017 0.930 . S
C4006 C4002 1.524 . S
C4006 H4018 0.956 . S
C4006 H4019 0.961 . S
C4006 H4020 0.961 . S
C4007 C4004 1.539 . S
C4007 H4021 0.958 . S
C4007 H4022 0.961 . S
C4007 H4023 0.960 . S
H4008 C3992 0.931 . S
H4009 C3997 0.929 . S
H4010 C3998 0.960 . S
H4011 C3998 0.962 . S
H4012 C3998 0.960 . S
H4013 C3999 0.961 . S
H4014 C3999 0.961 . S
H4015 C3999 0.961 . S
H4016 C4000 0.931 . S
H4017 C4005 0.930 . S
H4018 C4006 0.956 . S
H4019 C4006 0.961 . S
H4020 C4006 0.961 . S
H4021 C4007 0.958 . S
H4022 C4007 0.961 . S
H4023 C4007 0.960 . S
C4024 C4025 1.391 . S
C4024 C4026 1.394 . S
C4024 H4040 0.931 . S
C4025 C4024 1.391 . S
C4025 C4029 1.376 . S
C4026 C4024 1.394 . S
C4026 C4027 1.369 . S
C4026 C4030 1.531 . S
C4027 C4026 1.369 . S
C4027 C4028 1.410 . S
C4027 C4035 1.503 . S
C4028 C4027 1.410 . S
C4028 C4029 1.392 . S
C4028 C4031 1.511 1_455 S
C4029 C4025 1.376 . S
C4029 C4028 1.392 . S
C4029 H4041 0.929 . S
C4030 C4026 1.531 . S
C4030 H4042 0.960 . S
C4030 H4043 0.962 . S
C4030 H4044 0.960 . S
C4031 C4028 1.511 1_655 S
C4031 H4045 0.961 . S
C4031 H4046 0.961 . S
C4031 H4047 0.961 . S
C4032 C4033 1.370 . S
C4032 C4034 1.363 . S
C4032 H4048 0.931 . S
C4033 C4032 1.370 . S
C4033 C4037 1.408 . S
C4034 C4032 1.363 . S
C4034 C4035 1.370 . S
C4034 C4038 1.524 . S
C4035 C4027 1.503 . S
C4035 C4034 1.370 . S
C4035 C4036 1.403 . S
C4036 C4035 1.403 . S
C4036 C4037 1.404 . S
C4036 C4039 1.539 . S
C4037 C4033 1.408 . S
C4037 C4036 1.404 . S
C4037 H4049 0.930 . S
C4038 C4034 1.524 . S
C4038 H4050 0.956 . S
C4038 H4051 0.961 . S
C4038 H4052 0.961 . S
C4039 C4036 1.539 . S
C4039 H4053 0.958 . S
C4039 H4054 0.961 . S
C4039 H4055 0.960 . S
H4040 C4024 0.931 . S
H4041 C4029 0.929 . S
H4042 C4030 0.960 . S
H4043 C4030 0.962 . S
H4044 C4030 0.960 . S
H4045 C4031 0.961 . S
H4046 C4031 0.961 . S
H4047 C4031 0.961 . S
H4048 C4032 0.931 . S
H4049 C4037 0.930 . S
H4050 C4038 0.956 . S
H4051 C4038 0.961 . S
H4052 C4038 0.961 . S
H4053 C4039 0.958 . S
H4054 C4039 0.961 . S
H4055 C4039 0.960 . S
C4056 C4057 1.391 . S
C4056 C4058 1.394 . S
C4056 H4072 0.931 . S
C4057 C4056 1.391 . S
C4057 C4061 1.376 . S
C4058 C4056 1.394 . S
C4058 C4059 1.369 . S
C4058 C4062 1.531 . S
C4059 C4058 1.369 . S
C4059 C4060 1.410 . S
C4059 C4067 1.503 . S
C4060 C4059 1.410 . S
C4060 C4061 1.392 . S
C4060 C4063 1.511 . S
C4061 C4057 1.376 . S
C4061 C4060 1.392 . S
C4061 H4073 0.929 . S
C4062 C4058 1.531 . S
C4062 H4074 0.960 . S
C4062 H4075 0.962 . S
C4062 H4076 0.960 . S
C4063 C4060 1.511 . S
C4063 H4077 0.961 . S
C4063 H4078 0.961 . S
C4063 H4079 0.961 . S
C4064 C4065 1.370 . S
C4064 C4066 1.363 . S
C4064 H4080 0.931 . S
C4065 C4064 1.370 . S
C4065 C4069 1.408 . S
C4066 C4064 1.363 . S
C4066 C4067 1.370 . S
C4066 C4070 1.524 . S
C4067 C4059 1.503 . S
C4067 C4066 1.370 . S
C4067 C4068 1.403 . S
C4068 C4067 1.403 . S
C4068 C4069 1.404 . S
C4068 C4071 1.539 . S
C4069 C4065 1.408 . S
C4069 C4068 1.404 . S
C4069 H4081 0.930 . S
C4070 C4066 1.524 . S
C4070 H4082 0.956 . S
C4070 H4083 0.961 . S
C4070 H4084 0.961 . S
C4071 C4068 1.539 . S
C4071 H4085 0.958 . S
C4071 H4086 0.961 . S
C4071 H4087 0.960 . S
H4072 C4056 0.931 . S
H4073 C4061 0.929 . S
H4074 C4062 0.960 . S
H4075 C4062 0.962 . S
H4076 C4062 0.960 . S
H4077 C4063 0.961 . S
H4078 C4063 0.961 . S
H4079 C4063 0.961 . S
H4080 C4064 0.931 . S
H4081 C4069 0.930 . S
H4082 C4070 0.956 . S
H4083 C4070 0.961 . S
H4084 C4070 0.961 . S
H4085 C4071 0.958 . S
H4086 C4071 0.961 . S
H4087 C4071 0.960 . S
C4088 C4089 1.391 . S
C4088 C4090 1.394 . S
C4088 H4104 0.931 . S
C4089 C4088 1.391 . S
C4089 C4093 1.376 . S
C4090 C4088 1.394 . S
C4090 C4091 1.369 . S
C4090 C4094 1.531 . S
C4091 C4090 1.369 . S
C4091 C4092 1.410 . S
C4091 C4099 1.503 . S
C4092 C4091 1.410 . S
C4092 C4093 1.392 . S
C4092 C4095 1.511 . S
C4093 C4089 1.376 . S
C4093 C4092 1.392 . S
C4093 H4105 0.929 . S
C4094 C4090 1.531 . S
C4094 H4106 0.960 . S
C4094 H4107 0.962 . S
C4094 H4108 0.960 . S
C4095 C4092 1.511 . S
C4095 H4109 0.961 . S
C4095 H4110 0.961 . S
C4095 H4111 0.961 . S
C4096 C4097 1.370 . S
C4096 C4098 1.363 . S
C4096 H4112 0.931 . S
C4097 C4096 1.370 . S
C4097 C4101 1.408 . S
C4098 C4096 1.363 . S
C4098 C4099 1.370 . S
C4098 C4102 1.524 . S
C4099 C4091 1.503 . S
C4099 C4098 1.370 . S
C4099 C4100 1.403 . S
C4100 C4099 1.403 . S
C4100 C4101 1.404 . S
C4100 C4103 1.539 . S
C4101 C4097 1.408 . S
C4101 C4100 1.404 . S
C4101 H4113 0.930 . S
C4102 C4098 1.524 . S
C4102 H4114 0.956 . S
C4102 H4115 0.961 . S
C4102 H4116 0.961 . S
C4103 C4100 1.539 . S
C4103 H4117 0.958 . S
C4103 H4118 0.961 . S
C4103 H4119 0.960 . S
H4104 C4088 0.931 . S
H4105 C4093 0.929 . S
H4106 C4094 0.960 . S
H4107 C4094 0.962 . S
H4108 C4094 0.960 . S
H4109 C4095 0.961 . S
H4110 C4095 0.961 . S
H4111 C4095 0.961 . S
H4112 C4096 0.931 . S
H4113 C4101 0.930 . S
H4114 C4102 0.956 . S
H4115 C4102 0.961 . S
H4116 C4102 0.961 . S
H4117 C4103 0.958 . S
H4118 C4103 0.961 . S
H4119 C4103 0.960 . S
C4120 C4121 1.391 . S
C4120 C4122 1.394 . S
C4120 H4136 0.931 . S
C4121 C4120 1.391 . S
C4121 C4125 1.376 . S
C4122 C4120 1.394 . S
C4122 C4123 1.369 . S
C4122 C4126 1.531 . S
C4123 C4122 1.369 . S
C4123 C4124 1.410 . S
C4123 C4131 1.503 . S
C4124 C4123 1.410 . S
C4124 C4125 1.392 . S
C4124 C4127 1.511 . S
C4125 C4121 1.376 . S
C4125 C4124 1.392 . S
C4125 H4137 0.929 . S
C4126 C4122 1.531 . S
C4126 H4138 0.960 . S
C4126 H4139 0.962 . S
C4126 H4140 0.960 . S
C4127 C4124 1.511 . S
C4127 H4141 0.961 . S
C4127 H4142 0.961 . S
C4127 H4143 0.961 . S
C4128 C4129 1.370 . S
C4128 C4130 1.363 . S
C4128 H4144 0.931 . S
C4129 C4128 1.370 . S
C4129 C4133 1.408 . S
C4130 C4128 1.363 . S
C4130 C4131 1.370 . S
C4130 C4134 1.524 . S
C4131 C4123 1.503 . S
C4131 C4130 1.370 . S
C4131 C4132 1.403 . S
C4132 C4131 1.403 . S
C4132 C4133 1.404 . S
C4132 C4135 1.539 . S
C4133 C4129 1.408 . S
C4133 C4132 1.404 . S
C4133 H4145 0.930 . S
C4134 C4130 1.524 . S
C4134 H4146 0.956 . S
C4134 H4147 0.961 . S
C4134 H4148 0.961 . S
C4135 C4132 1.539 . S
C4135 H4149 0.958 . S
C4135 H4150 0.961 . S
C4135 H4151 0.960 . S
H4136 C4120 0.931 . S
H4137 C4125 0.929 . S
H4138 C4126 0.960 . S
H4139 C4126 0.962 . S
H4140 C4126 0.960 . S
H4141 C4127 0.961 . S
H4142 C4127 0.961 . S
H4143 C4127 0.961 . S
H4144 C4128 0.931 . S
H4145 C4133 0.930 . S
H4146 C4134 0.956 . S
H4147 C4134 0.961 . S
H4148 C4134 0.961 . S
H4149 C4135 0.958 . S
H4150 C4135 0.961 . S
H4151 C4135 0.960 . S
C4152 C4153 1.391 . S
C4152 C4154 1.394 . S
C4152 H4168 0.931 . S
C4153 C4152 1.391 . S
C4153 C4157 1.376 . S
C4154 C4152 1.394 . S
C4154 C4155 1.369 . S
C4154 C4158 1.531 . S
C4155 C4154 1.369 . S
C4155 C4156 1.410 . S
C4155 C4163 1.503 . S
C4156 C4155 1.410 . S
C4156 C4157 1.392 . S
C4156 C4159 1.511 . S
C4157 C4153 1.376 . S
C4157 C4156 1.392 . S
C4157 H4169 0.929 . S
C4158 C4154 1.531 . S
C4158 H4170 0.960 . S
C4158 H4171 0.962 . S
C4158 H4172 0.960 . S
C4159 C4156 1.511 . S
C4159 H4173 0.961 . S
C4159 H4174 0.961 . S
C4159 H4175 0.961 . S
C4160 C4161 1.370 . S
C4160 C4162 1.363 . S
C4160 H4176 0.931 1_455 S
C4161 C4160 1.370 . S
C4161 C4165 1.408 . S
C4162 C4160 1.363 . S
C4162 C4163 1.370 . S
C4162 C4166 1.524 1_455 S
C4163 C4155 1.503 . S
C4163 C4162 1.370 . S
C4163 C4164 1.403 . S
C4164 C4163 1.403 . S
C4164 C4165 1.404 . S
C4164 C4167 1.539 . S
C4165 C4161 1.408 . S
C4165 C4164 1.404 . S
C4165 H4177 0.930 . S
C4166 C4162 1.524 1_655 S
C4166 H4178 0.956 . S
C4166 H4179 0.961 . S
C4166 H4180 0.961 . S
C4167 C4164 1.539 . S
C4167 H4181 0.958 . S
C4167 H4182 0.961 . S
C4167 H4183 0.960 . S
H4168 C4152 0.931 . S
H4169 C4157 0.929 . S
H4170 C4158 0.960 . S
H4171 C4158 0.962 . S
H4172 C4158 0.960 . S
H4173 C4159 0.961 . S
H4174 C4159 0.961 . S
H4175 C4159 0.961 . S
H4176 C4160 0.931 1_655 S
H4177 C4165 0.930 . S
H4178 C4166 0.956 . S
H4179 C4166 0.961 . S
H4180 C4166 0.961 . S
H4181 C4167 0.958 . S
H4182 C4167 0.961 . S
H4183 C4167 0.960 . S
C4184 C4185 1.391 . S
C4184 C4186 1.394 . S
C4184 H4200 0.931 . S
C4185 C4184 1.391 . S
C4185 C4189 1.376 . S
C4186 C4184 1.394 . S
C4186 C4187 1.369 . S
C4186 C4190 1.531 . S
C4187 C4186 1.369 . S
C4187 C4188 1.410 . S
C4187 C4195 1.503 . S
C4188 C4187 1.410 . S
C4188 C4189 1.392 . S
C4188 C4191 1.511 . S
C4189 C4185 1.376 . S
C4189 C4188 1.392 . S
C4189 H4201 0.929 . S
C4190 C4186 1.531 . S
C4190 H4202 0.960 . S
C4190 H4203 0.962 . S
C4190 H4204 0.960 . S
C4191 C4188 1.511 . S
C4191 H4205 0.961 . S
C4191 H4206 0.961 . S
C4191 H4207 0.961 . S
C4192 C4193 1.370 . S
C4192 C4194 1.363 . S
C4192 H4208 0.931 . S
C4193 C4192 1.370 . S
C4193 C4197 1.408 . S
C4194 C4192 1.363 . S
C4194 C4195 1.370 . S
C4194 C4198 1.524 . S
C4195 C4187 1.503 . S
C4195 C4194 1.370 . S
C4195 C4196 1.403 . S
C4196 C4195 1.403 . S
C4196 C4197 1.404 . S
C4196 C4199 1.539 . S
C4197 C4193 1.408 . S
C4197 C4196 1.404 . S
C4197 H4209 0.930 . S
C4198 C4194 1.524 . S
C4198 H4210 0.956 . S
C4198 H4211 0.961 . S
C4198 H4212 0.961 . S
C4199 C4196 1.539 . S
C4199 H4213 0.958 . S
C4199 H4214 0.961 . S
C4199 H4215 0.960 . S
H4200 C4184 0.931 . S
H4201 C4189 0.929 . S
H4202 C4190 0.960 . S
H4203 C4190 0.962 . S
H4204 C4190 0.960 . S
H4205 C4191 0.961 . S
H4206 C4191 0.961 . S
H4207 C4191 0.961 . S
H4208 C4192 0.931 . S
H4209 C4197 0.930 . S
H4210 C4198 0.956 . S
H4211 C4198 0.961 . S
H4212 C4198 0.961 . S
H4213 C4199 0.958 . S
H4214 C4199 0.961 . S
H4215 C4199 0.960 . S
C4216 C4217 1.391 . S
C4216 C4218 1.394 . S
C4216 H4232 0.931 . S
C4217 C4216 1.391 . S
C4217 C4221 1.376 . S
C4218 C4216 1.394 . S
C4218 C4219 1.369 . S
C4218 C4222 1.531 . S
C4219 C4218 1.369 . S
C4219 C4220 1.410 . S
C4219 C4227 1.503 . S
C4220 C4219 1.410 . S
C4220 C4221 1.392 . S
C4220 C4223 1.511 . S
C4221 C4217 1.376 . S
C4221 C4220 1.392 . S
C4221 H4233 0.929 . S
C4222 C4218 1.531 . S
C4222 H4234 0.960 . S
C4222 H4235 0.962 . S
C4222 H4236 0.960 . S
C4223 C4220 1.511 . S
C4223 H4237 0.961 . S
C4223 H4238 0.961 . S
C4223 H4239 0.961 . S
C4224 C4225 1.370 . S
C4224 C4226 1.363 . S
C4224 H4240 0.931 . S
C4225 C4224 1.370 . S
C4225 C4229 1.408 . S
C4226 C4224 1.363 . S
C4226 C4227 1.370 . S
C4226 C4230 1.524 . S
C4227 C4219 1.503 . S
C4227 C4226 1.370 . S
C4227 C4228 1.403 . S
C4228 C4227 1.403 . S
C4228 C4229 1.404 . S
C4228 C4231 1.539 . S
C4229 C4225 1.408 . S
C4229 C4228 1.404 . S
C4229 H4241 0.930 . S
C4230 C4226 1.524 . S
C4230 H4242 0.956 . S
C4230 H4243 0.961 . S
C4230 H4244 0.961 . S
C4231 C4228 1.539 . S
C4231 H4245 0.958 . S
C4231 H4246 0.961 . S
C4231 H4247 0.960 . S
H4232 C4216 0.931 . S
H4233 C4221 0.929 . S
H4234 C4222 0.960 . S
H4235 C4222 0.962 . S
H4236 C4222 0.960 . S
H4237 C4223 0.961 . S
H4238 C4223 0.961 . S
H4239 C4223 0.961 . S
H4240 C4224 0.931 . S
H4241 C4229 0.930 . S
H4242 C4230 0.956 . S
H4243 C4230 0.961 . S
H4244 C4230 0.961 . S
H4245 C4231 0.958 . S
H4246 C4231 0.961 . S
H4247 C4231 0.960 . S
C4248 C4249 1.391 . S
C4248 C4250 1.394 . S
C4248 H4264 0.931 . S
C4249 C4248 1.391 . S
C4249 C4253 1.376 . S
C4250 C4248 1.394 . S
C4250 C4251 1.369 . S
C4250 C4254 1.531 . S
C4251 C4250 1.369 . S
C4251 C4252 1.410 . S
C4251 C4259 1.503 . S
C4252 C4251 1.410 . S
C4252 C4253 1.392 . S
C4252 C4255 1.511 . S
C4253 C4249 1.376 . S
C4253 C4252 1.392 . S
C4253 H4265 0.929 . S
C4254 C4250 1.531 . S
C4254 H4266 0.960 . S
C4254 H4267 0.962 . S
C4254 H4268 0.960 . S
C4255 C4252 1.511 . S
C4255 H4269 0.961 . S
C4255 H4270 0.961 . S
C4255 H4271 0.961 . S
C4256 C4257 1.370 . S
C4256 C4258 1.363 . S
C4256 H4272 0.931 . S
C4257 C4256 1.370 . S
C4257 C4261 1.408 . S
C4258 C4256 1.363 . S
C4258 C4259 1.370 . S
C4258 C4262 1.524 . S
C4259 C4251 1.503 . S
C4259 C4258 1.370 . S
C4259 C4260 1.403 . S
C4260 C4259 1.403 . S
C4260 C4261 1.404 . S
C4260 C4263 1.539 . S
C4261 C4257 1.408 . S
C4261 C4260 1.404 . S
C4261 H4273 0.930 . S
C4262 C4258 1.524 . S
C4262 H4274 0.956 . S
C4262 H4275 0.961 . S
C4262 H4276 0.961 . S
C4263 C4260 1.539 . S
C4263 H4277 0.958 . S
C4263 H4278 0.961 . S
C4263 H4279 0.960 . S
H4264 C4248 0.931 . S
H4265 C4253 0.929 . S
H4266 C4254 0.960 . S
H4267 C4254 0.962 . S
H4268 C4254 0.960 . S
H4269 C4255 0.961 . S
H4270 C4255 0.961 . S
H4271 C4255 0.961 . S
H4272 C4256 0.931 . S
H4273 C4261 0.930 . S
H4274 C4262 0.956 . S
H4275 C4262 0.961 . S
H4276 C4262 0.961 . S
H4277 C4263 0.958 . S
H4278 C4263 0.961 . S
H4279 C4263 0.960 . S
C4280 C4281 1.391 . S
C4280 C4282 1.394 . S
C4280 H4296 0.931 . S
C4281 C4280 1.391 . S
C4281 C4285 1.376 . S
C4282 C4280 1.394 . S
C4282 C4283 1.369 . S
C4282 C4286 1.531 . S
C4283 C4282 1.369 . S
C4283 C4284 1.410 . S
C4283 C4291 1.503 . S
C4284 C4283 1.410 . S
C4284 C4285 1.392 . S
C4284 C4287 1.511 . S
C4285 C4281 1.376 . S
C4285 C4284 1.392 . S
C4285 H4297 0.929 . S
C4286 C4282 1.531 . S
C4286 H4298 0.960 . S
C4286 H4299 0.962 . S
C4286 H4300 0.960 . S
C4287 C4284 1.511 . S
C4287 H4301 0.961 . S
C4287 H4302 0.961 . S
C4287 H4303 0.961 . S
C4288 C4289 1.370 . S
C4288 C4290 1.363 . S
C4288 H4304 0.931 . S
C4289 C4288 1.370 . S
C4289 C4293 1.408 . S
C4290 C4288 1.363 . S
C4290 C4291 1.370 . S
C4290 C4294 1.524 . S
C4291 C4283 1.503 . S
C4291 C4290 1.370 . S
C4291 C4292 1.403 . S
C4292 C4291 1.403 . S
C4292 C4293 1.404 . S
C4292 C4295 1.539 . S
C4293 C4289 1.408 . S
C4293 C4292 1.404 . S
C4293 H4305 0.930 . S
C4294 C4290 1.524 . S
C4294 H4306 0.956 . S
C4294 H4307 0.961 . S
C4294 H4308 0.961 . S
C4295 C4292 1.539 . S
C4295 H4309 0.958 . S
C4295 H4310 0.961 . S
C4295 H4311 0.960 . S
H4296 C4280 0.931 . S
H4297 C4285 0.929 . S
H4298 C4286 0.960 . S
H4299 C4286 0.962 . S
H4300 C4286 0.960 . S
H4301 C4287 0.961 . S
H4302 C4287 0.961 . S
H4303 C4287 0.961 . S
H4304 C4288 0.931 . S
H4305 C4293 0.930 . S
H4306 C4294 0.956 . S
H4307 C4294 0.961 . S
H4308 C4294 0.961 . S
H4309 C4295 0.958 . S
H4310 C4295 0.961 . S
H4311 C4295 0.960 . S
C4312 C4313 1.391 . S
C4312 C4314 1.394 . S
C4312 H4328 0.931 . S
C4313 C4312 1.391 . S
C4313 C4317 1.376 . S
C4314 C4312 1.394 . S
C4314 C4315 1.369 . S
C4314 C4318 1.531 . S
C4315 C4314 1.369 . S
C4315 C4316 1.410 . S
C4315 C4323 1.503 . S
C4316 C4315 1.410 . S
C4316 C4317 1.392 . S
C4316 C4319 1.511 . S
C4317 C4313 1.376 . S
C4317 C4316 1.392 . S
C4317 H4329 0.929 . S
C4318 C4314 1.531 . S
C4318 H4330 0.960 . S
C4318 H4331 0.962 . S
C4318 H4332 0.960 . S
C4319 C4316 1.511 . S
C4319 H4333 0.961 . S
C4319 H4334 0.961 . S
C4319 H4335 0.961 . S
C4320 C4321 1.370 . S
C4320 C4322 1.363 . S
C4320 H4336 0.931 . S
C4321 C4320 1.370 . S
C4321 C4325 1.408 . S
C4322 C4320 1.363 . S
C4322 C4323 1.370 . S
C4322 C4326 1.524 . S
C4323 C4315 1.503 . S
C4323 C4322 1.370 . S
C4323 C4324 1.403 . S
C4324 C4323 1.403 . S
C4324 C4325 1.404 . S
C4324 C4327 1.539 . S
C4325 C4321 1.408 . S
C4325 C4324 1.404 . S
C4325 H4337 0.930 . S
C4326 C4322 1.524 . S
C4326 H4338 0.956 . S
C4326 H4339 0.961 . S
C4326 H4340 0.961 . S
C4327 C4324 1.539 . S
C4327 H4341 0.958 . S
C4327 H4342 0.961 . S
C4327 H4343 0.960 . S
H4328 C4312 0.931 . S
H4329 C4317 0.929 . S
H4330 C4318 0.960 . S
H4331 C4318 0.962 . S
H4332 C4318 0.960 . S
H4333 C4319 0.961 . S
H4334 C4319 0.961 . S
H4335 C4319 0.961 . S
H4336 C4320 0.931 . S
H4337 C4325 0.930 . S
H4338 C4326 0.956 . S
H4339 C4326 0.961 . S
H4340 C4326 0.961 . S
H4341 C4327 0.958 . S
H4342 C4327 0.961 . S
H4343 C4327 0.960 . S
C4344 C4345 1.391 . S
C4344 C4346 1.394 . S
C4344 H4360 0.931 . S
C4345 C4344 1.391 . S
C4345 C4349 1.376 . S
C4346 C4344 1.394 . S
C4346 C4347 1.369 . S
C4346 C4350 1.531 . S
C4347 C4346 1.369 . S
C4347 C4348 1.410 . S
C4347 C4355 1.503 . S
C4348 C4347 1.410 . S
C4348 C4349 1.392 . S
C4348 C4351 1.511 . S
C4349 C4345 1.376 . S
C4349 C4348 1.392 . S
C4349 H4361 0.929 . S
C4350 C4346 1.531 . S
C4350 H4362 0.960 . S
C4350 H4363 0.962 . S
C4350 H4364 0.960 . S
C4351 C4348 1.511 . S
C4351 H4365 0.961 . S
C4351 H4366 0.961 . S
C4351 H4367 0.961 . S
C4352 C4353 1.370 . S
C4352 C4354 1.363 . S
C4352 H4368 0.931 . S
C4353 C4352 1.370 . S
C4353 C4357 1.408 . S
C4354 C4352 1.363 . S
C4354 C4355 1.370 . S
C4354 C4358 1.524 . S
C4355 C4347 1.503 . S
C4355 C4354 1.370 . S
C4355 C4356 1.403 . S
C4356 C4355 1.403 . S
C4356 C4357 1.404 . S
C4356 C4359 1.539 . S
C4357 C4353 1.408 . S
C4357 C4356 1.404 . S
C4357 H4369 0.930 . S
C4358 C4354 1.524 . S
C4358 H4370 0.956 . S
C4358 H4371 0.961 . S
C4358 H4372 0.961 . S
C4359 C4356 1.539 . S
C4359 H4373 0.958 . S
C4359 H4374 0.961 . S
C4359 H4375 0.960 . S
H4360 C4344 0.931 . S
H4361 C4349 0.929 . S
H4362 C4350 0.960 . S
H4363 C4350 0.962 . S
H4364 C4350 0.960 . S
H4365 C4351 0.961 . S
H4366 C4351 0.961 . S
H4367 C4351 0.961 . S
H4368 C4352 0.931 . S
H4369 C4357 0.930 . S
H4370 C4358 0.956 . S
H4371 C4358 0.961 . S
H4372 C4358 0.961 . S
H4373 C4359 0.958 . S
H4374 C4359 0.961 . S
H4375 C4359 0.960 . S
C4376 C4377 1.391 . S
C4376 C4378 1.394 . S
C4376 H4392 0.931 . S
C4377 C4376 1.391 . S
C4377 C4381 1.376 . S
C4378 C4376 1.394 . S
C4378 C4379 1.369 . S
C4378 C4382 1.531 . S
C4379 C4378 1.369 . S
C4379 C4380 1.410 . S
C4379 C4387 1.503 . S
C4380 C4379 1.410 . S
C4380 C4381 1.392 . S
C4380 C4383 1.511 . S
C4381 C4377 1.376 . S
C4381 C4380 1.392 . S
C4381 H4393 0.929 . S
C4382 C4378 1.531 . S
C4382 H4394 0.960 . S
C4382 H4395 0.962 . S
C4382 H4396 0.960 . S
C4383 C4380 1.511 . S
C4383 H4397 0.961 . S
C4383 H4398 0.961 . S
C4383 H4399 0.961 . S
C4384 C4385 1.370 . S
C4384 C4386 1.363 . S
C4384 H4400 0.931 . S
C4385 C4384 1.370 . S
C4385 C4389 1.408 . S
C4386 C4384 1.363 . S
C4386 C4387 1.370 . S
C4386 C4390 1.524 . S
C4387 C4379 1.503 . S
C4387 C4386 1.370 . S
C4387 C4388 1.403 . S
C4388 C4387 1.403 . S
C4388 C4389 1.404 . S
C4388 C4391 1.539 . S
C4389 C4385 1.408 . S
C4389 C4388 1.404 . S
C4389 H4401 0.930 . S
C4390 C4386 1.524 . S
C4390 H4402 0.956 . S
C4390 H4403 0.961 . S
C4390 H4404 0.961 . S
C4391 C4388 1.539 . S
C4391 H4405 0.958 . S
C4391 H4406 0.961 . S
C4391 H4407 0.960 . S
H4392 C4376 0.931 . S
H4393 C4381 0.929 . S
H4394 C4382 0.960 . S
H4395 C4382 0.962 . S
H4396 C4382 0.960 . S
H4397 C4383 0.961 . S
H4398 C4383 0.961 . S
H4399 C4383 0.961 . S
H4400 C4384 0.931 . S
H4401 C4389 0.930 . S
H4402 C4390 0.956 . S
H4403 C4390 0.961 . S
H4404 C4390 0.961 . S
H4405 C4391 0.958 . S
H4406 C4391 0.961 . S
H4407 C4391 0.960 . S
C4408 C4409 1.391 . S
C4408 C4410 1.394 . S
C4408 H4424 0.931 . S
C4409 C4408 1.391 . S
C4409 C4413 1.376 . S
C4410 C4408 1.394 . S
C4410 C4411 1.369 . S
C4410 C4414 1.531 . S
C4411 C4410 1.369 . S
C4411 C4412 1.410 . S
C4411 C4419 1.503 . S
C4412 C4411 1.410 . S
C4412 C4413 1.392 . S
C4412 C4415 1.511 . S
C4413 C4409 1.376 . S
C4413 C4412 1.392 . S
C4413 H4425 0.929 . S
C4414 C4410 1.531 . S
C4414 H4426 0.960 . S
C4414 H4427 0.962 . S
C4414 H4428 0.960 . S
C4415 C4412 1.511 . S
C4415 H4429 0.961 . S
C4415 H4430 0.961 . S
C4415 H4431 0.961 . S
C4416 C4417 1.370 . S
C4416 C4418 1.363 . S
C4416 H4432 0.931 . S
C4417 C4416 1.370 . S
C4417 C4421 1.408 . S
C4418 C4416 1.363 . S
C4418 C4419 1.370 . S
C4418 C4422 1.524 . S
C4419 C4411 1.503 . S
C4419 C4418 1.370 . S
C4419 C4420 1.403 . S
C4420 C4419 1.403 . S
C4420 C4421 1.404 . S
C4420 C4423 1.539 . S
C4421 C4417 1.408 . S
C4421 C4420 1.404 . S
C4421 H4433 0.930 . S
C4422 C4418 1.524 . S
C4422 H4434 0.956 . S
C4422 H4435 0.961 . S
C4422 H4436 0.961 . S
C4423 C4420 1.539 . S
C4423 H4437 0.958 . S
C4423 H4438 0.961 . S
C4423 H4439 0.960 . S
H4424 C4408 0.931 . S
H4425 C4413 0.929 . S
H4426 C4414 0.960 . S
H4427 C4414 0.962 . S
H4428 C4414 0.960 . S
H4429 C4415 0.961 . S
H4430 C4415 0.961 . S
H4431 C4415 0.961 . S
H4432 C4416 0.931 . S
H4433 C4421 0.930 . S
H4434 C4422 0.956 . S
H4435 C4422 0.961 . S
H4436 C4422 0.961 . S
H4437 C4423 0.958 . S
H4438 C4423 0.961 . S
H4439 C4423 0.960 . S
C4440 C4441 1.391 . S
C4440 C4442 1.394 . S
C4440 H4456 0.931 . S
C4441 C4440 1.391 . S
C4441 C4445 1.376 . S
C4442 C4440 1.394 . S
C4442 C4443 1.369 . S
C4442 C4446 1.531 . S
C4443 C4442 1.369 . S
C4443 C4444 1.410 . S
C4443 C4451 1.503 . S
C4444 C4443 1.410 . S
C4444 C4445 1.392 . S
C4444 C4447 1.511 . S
C4445 C4441 1.376 . S
C4445 C4444 1.392 . S
C4445 H4457 0.929 . S
C4446 C4442 1.531 . S
C4446 H4458 0.960 . S
C4446 H4459 0.962 . S
C4446 H4460 0.960 . S
C4447 C4444 1.511 . S
C4447 H4461 0.961 . S
C4447 H4462 0.961 . S
C4447 H4463 0.961 . S
C4448 C4449 1.370 . S
C4448 C4450 1.363 . S
C4448 H4464 0.931 . S
C4449 C4448 1.370 . S
C4449 C4453 1.408 . S
C4450 C4448 1.363 . S
C4450 C4451 1.370 . S
C4450 C4454 1.524 . S
C4451 C4443 1.503 . S
C4451 C4450 1.370 . S
C4451 C4452 1.403 . S
C4452 C4451 1.403 . S
C4452 C4453 1.404 . S
C4452 C4455 1.539 . S
C4453 C4449 1.408 . S
C4453 C4452 1.404 . S
C4453 H4465 0.930 . S
C4454 C4450 1.524 . S
C4454 H4466 0.956 . S
C4454 H4467 0.961 . S
C4454 H4468 0.961 . S
C4455 C4452 1.539 . S
C4455 H4469 0.958 . S
C4455 H4470 0.961 . S
C4455 H4471 0.960 . S
H4456 C4440 0.931 . S
H4457 C4445 0.929 . S
H4458 C4446 0.960 . S
H4459 C4446 0.962 . S
H4460 C4446 0.960 . S
H4461 C4447 0.961 . S
H4462 C4447 0.961 . S
H4463 C4447 0.961 . S
H4464 C4448 0.931 . S
H4465 C4453 0.930 . S
H4466 C4454 0.956 . S
H4467 C4454 0.961 . S
H4468 C4454 0.961 . S
H4469 C4455 0.958 . S
H4470 C4455 0.961 . S
H4471 C4455 0.960 . S
C4472 C4473 1.391 . S
C4472 C4474 1.394 . S
C4472 H4488 0.931 . S
C4473 C4472 1.391 . S
C4473 C4477 1.376 . S
C4474 C4472 1.394 . S
C4474 C4475 1.369 . S
C4474 C4478 1.531 . S
C4475 C4474 1.369 . S
C4475 C4476 1.410 . S
C4475 C4483 1.503 . S
C4476 C4475 1.410 . S
C4476 C4477 1.392 . S
C4476 C4479 1.511 . S
C4477 C4473 1.376 . S
C4477 C4476 1.392 . S
C4477 H4489 0.929 . S
C4478 C4474 1.531 . S
C4478 H4490 0.960 . S
C4478 H4491 0.962 . S
C4478 H4492 0.960 . S
C4479 C4476 1.511 . S
C4479 H4493 0.961 . S
C4479 H4494 0.961 . S
C4479 H4495 0.961 . S
C4480 C4481 1.370 . S
C4480 C4482 1.363 . S
C4480 H4496 0.931 . S
C4481 C4480 1.370 . S
C4481 C4485 1.408 . S
C4482 C4480 1.363 . S
C4482 C4483 1.370 . S
C4482 C4486 1.524 . S
C4483 C4475 1.503 . S
C4483 C4482 1.370 . S
C4483 C4484 1.403 . S
C4484 C4483 1.403 . S
C4484 C4485 1.404 . S
C4484 C4487 1.539 . S
C4485 C4481 1.408 . S
C4485 C4484 1.404 . S
C4485 H4497 0.930 . S
C4486 C4482 1.524 . S
C4486 H4498 0.956 . S
C4486 H4499 0.961 . S
C4486 H4500 0.961 . S
C4487 C4484 1.539 . S
C4487 H4501 0.958 . S
C4487 H4502 0.961 . S
C4487 H4503 0.960 . S
H4488 C4472 0.931 . S
H4489 C4477 0.929 . S
H4490 C4478 0.960 . S
H4491 C4478 0.962 . S
H4492 C4478 0.960 . S
H4493 C4479 0.961 . S
H4494 C4479 0.961 . S
H4495 C4479 0.961 . S
H4496 C4480 0.931 . S
H4497 C4485 0.930 . S
H4498 C4486 0.956 . S
H4499 C4486 0.961 . S
H4500 C4486 0.961 . S
H4501 C4487 0.958 . S
H4502 C4487 0.961 . S
H4503 C4487 0.960 . S
C4504 C4505 1.391 . S
C4504 C4506 1.394 . S
C4504 H4520 0.931 . S
C4505 C4504 1.391 . S
C4505 C4509 1.376 . S
C4506 C4504 1.394 . S
C4506 C4507 1.369 . S
C4506 C4510 1.531 . S
C4507 C4506 1.369 . S
C4507 C4508 1.410 . S
C4507 C4515 1.503 . S
C4508 C4507 1.410 . S
C4508 C4509 1.392 . S
C4508 C4511 1.511 . S
C4509 C4505 1.376 . S
C4509 C4508 1.392 . S
C4509 H4521 0.929 . S
C4510 C4506 1.531 . S
C4510 H4522 0.960 . S
C4510 H4523 0.962 . S
C4510 H4524 0.960 . S
C4511 C4508 1.511 . S
C4511 H4525 0.961 . S
C4511 H4526 0.961 . S
C4511 H4527 0.961 . S
C4512 C4513 1.370 . S
C4512 C4514 1.363 . S
C4512 H4528 0.931 . S
C4513 C4512 1.370 . S
C4513 C4517 1.408 . S
C4514 C4512 1.363 . S
C4514 C4515 1.370 . S
C4514 C4518 1.524 . S
C4515 C4507 1.503 . S
C4515 C4514 1.370 . S
C4515 C4516 1.403 . S
C4516 C4515 1.403 . S
C4516 C4517 1.404 . S
C4516 C4519 1.539 . S
C4517 C4513 1.408 . S
C4517 C4516 1.404 . S
C4517 H4529 0.930 . S
C4518 C4514 1.524 . S
C4518 H4530 0.956 . S
C4518 H4531 0.961 . S
C4518 H4532 0.961 . S
C4519 C4516 1.539 . S
C4519 H4533 0.958 . S
C4519 H4534 0.961 . S
C4519 H4535 0.960 . S
H4520 C4504 0.931 . S
H4521 C4509 0.929 . S
H4522 C4510 0.960 . S
H4523 C4510 0.962 . S
H4524 C4510 0.960 . S
H4525 C4511 0.961 . S
H4526 C4511 0.961 . S
H4527 C4511 0.961 . S
H4528 C4512 0.931 . S
H4529 C4517 0.930 . S
H4530 C4518 0.956 . S
H4531 C4518 0.961 . S
H4532 C4518 0.961 . S
H4533 C4519 0.958 . S
H4534 C4519 0.961 . S
H4535 C4519 0.960 . S
C4536 C4537 1.391 . S
C4536 C4538 1.394 . S
C4536 H4552 0.931 . S
C4537 C4536 1.391 . S
C4537 C4541 1.376 . S
C4538 C4536 1.394 . S
C4538 C4539 1.369 . S
C4538 C4542 1.531 . S
C4539 C4538 1.369 . S
C4539 C4540 1.410 . S
C4539 C4547 1.503 . S
C4540 C4539 1.410 . S
C4540 C4541 1.392 . S
C4540 C4543 1.511 . S
C4541 C4537 1.376 . S
C4541 C4540 1.392 . S
C4541 H4553 0.929 . S
C4542 C4538 1.531 . S
C4542 H4554 0.960 . S
C4542 H4555 0.962 . S
C4542 H4556 0.960 . S
C4543 C4540 1.511 . S
C4543 H4557 0.961 . S
C4543 H4558 0.961 . S
C4543 H4559 0.961 . S
C4544 C4545 1.370 . S
C4544 C4546 1.363 . S
C4544 H4560 0.931 . S
C4545 C4544 1.370 . S
C4545 C4549 1.408 . S
C4546 C4544 1.363 . S
C4546 C4547 1.370 . S
C4546 C4550 1.524 . S
C4547 C4539 1.503 . S
C4547 C4546 1.370 . S
C4547 C4548 1.403 . S
C4548 C4547 1.403 . S
C4548 C4549 1.404 . S
C4548 C4551 1.539 . S
C4549 C4545 1.408 . S
C4549 C4548 1.404 . S
C4549 H4561 0.930 . S
C4550 C4546 1.524 . S
C4550 H4562 0.956 . S
C4550 H4563 0.961 . S
C4550 H4564 0.961 . S
C4551 C4548 1.539 . S
C4551 H4565 0.958 . S
C4551 H4566 0.961 . S
C4551 H4567 0.960 . S
H4552 C4536 0.931 . S
H4553 C4541 0.929 . S
H4554 C4542 0.960 . S
H4555 C4542 0.962 . S
H4556 C4542 0.960 . S
H4557 C4543 0.961 . S
H4558 C4543 0.961 . S
H4559 C4543 0.961 . S
H4560 C4544 0.931 . S
H4561 C4549 0.930 . S
H4562 C4550 0.956 . S
H4563 C4550 0.961 . S
H4564 C4550 0.961 . S
H4565 C4551 0.958 . S
H4566 C4551 0.961 . S
H4567 C4551 0.960 . S
C4568 C4569 1.391 . S
C4568 C4570 1.394 . S
C4568 H4584 0.931 . S
C4569 C4568 1.391 . S
C4569 C4573 1.376 . S
C4570 C4568 1.394 . S
C4570 C4571 1.369 . S
C4570 C4574 1.531 . S
C4571 C4570 1.369 . S
C4571 C4572 1.410 . S
C4571 C4579 1.503 . S
C4572 C4571 1.410 . S
C4572 C4573 1.392 . S
C4572 C4575 1.511 . S
C4573 C4569 1.376 . S
C4573 C4572 1.392 . S
C4573 H4585 0.929 . S
C4574 C4570 1.531 . S
C4574 H4586 0.960 . S
C4574 H4587 0.962 . S
C4574 H4588 0.960 . S
C4575 C4572 1.511 . S
C4575 H4589 0.961 . S
C4575 H4590 0.961 . S
C4575 H4591 0.961 . S
C4576 C4577 1.370 . S
C4576 C4578 1.363 . S
C4576 H4592 0.931 . S
C4577 C4576 1.370 . S
C4577 C4581 1.408 . S
C4578 C4576 1.363 . S
C4578 C4579 1.370 . S
C4578 C4582 1.524 . S
C4579 C4571 1.503 . S
C4579 C4578 1.370 . S
C4579 C4580 1.403 . S
C4580 C4579 1.403 . S
C4580 C4581 1.404 . S
C4580 C4583 1.539 1_554 S
C4581 C4577 1.408 . S
C4581 C4580 1.404 . S
C4581 H4593 0.930 1_554 S
C4582 C4578 1.524 . S
C4582 H4594 0.956 . S
C4582 H4595 0.961 . S
C4582 H4596 0.961 . S
C4583 C4580 1.539 1_556 S
C4583 H4597 0.958 . S
C4583 H4598 0.961 . S
C4583 H4599 0.960 . S
H4584 C4568 0.931 . S
H4585 C4573 0.929 . S
H4586 C4574 0.960 . S
H4587 C4574 0.962 . S
H4588 C4574 0.960 . S
H4589 C4575 0.961 . S
H4590 C4575 0.961 . S
H4591 C4575 0.961 . S
H4592 C4576 0.931 . S
H4593 C4581 0.930 1_556 S
H4594 C4582 0.956 . S
H4595 C4582 0.961 . S
H4596 C4582 0.961 . S
H4597 C4583 0.958 . S
H4598 C4583 0.961 . S
H4599 C4583 0.960 . S
C4600 C4601 1.391 . S
C4600 C4602 1.394 . S
C4600 H4616 0.931 . S
C4601 C4600 1.391 . S
C4601 C4605 1.376 . S
C4602 C4600 1.394 . S
C4602 C4603 1.369 . S
C4602 C4606 1.531 . S
C4603 C4602 1.369 . S
C4603 C4604 1.410 . S
C4603 C4611 1.503 . S
C4604 C4603 1.410 . S
C4604 C4605 1.392 . S
C4604 C4607 1.511 . S
C4605 C4601 1.376 . S
C4605 C4604 1.392 . S
C4605 H4617 0.929 . S
C4606 C4602 1.531 . S
C4606 H4618 0.960 . S
C4606 H4619 0.962 . S
C4606 H4620 0.960 . S
C4607 C4604 1.511 . S
C4607 H4621 0.961 . S
C4607 H4622 0.961 . S
C4607 H4623 0.961 . S
C4608 C4609 1.370 . S
C4608 C4610 1.363 . S
C4608 H4624 0.931 . S
C4609 C4608 1.370 . S
C4609 C4613 1.408 . S
C4610 C4608 1.363 . S
C4610 C4611 1.370 . S
C4610 C4614 1.524 . S
C4611 C4603 1.503 . S
C4611 C4610 1.370 . S
C4611 C4612 1.403 . S
C4612 C4611 1.403 . S
C4612 C4613 1.404 . S
C4612 C4615 1.539 . S
C4613 C4609 1.408 . S
C4613 C4612 1.404 . S
C4613 H4625 0.930 . S
C4614 C4610 1.524 . S
C4614 H4626 0.956 . S
C4614 H4627 0.961 . S
C4614 H4628 0.961 . S
C4615 C4612 1.539 . S
C4615 H4629 0.958 . S
C4615 H4630 0.961 . S
C4615 H4631 0.960 . S
H4616 C4600 0.931 . S
H4617 C4605 0.929 . S
H4618 C4606 0.960 . S
H4619 C4606 0.962 . S
H4620 C4606 0.960 . S
H4621 C4607 0.961 . S
H4622 C4607 0.961 . S
H4623 C4607 0.961 . S
H4624 C4608 0.931 . S
H4625 C4613 0.930 . S
H4626 C4614 0.956 . S
H4627 C4614 0.961 . S
H4628 C4614 0.961 . S
H4629 C4615 0.958 . S
H4630 C4615 0.961 . S
H4631 C4615 0.960 . S
C4632 C4633 1.391 . S
C4632 C4634 1.394 . S
C4632 H4648 0.931 . S
C4633 C4632 1.391 . S
C4633 C4637 1.376 . S
C4634 C4632 1.394 . S
C4634 C4635 1.369 . S
C4634 C4638 1.531 . S
C4635 C4634 1.369 . S
C4635 C4636 1.410 . S
C4635 C4643 1.503 . S
C4636 C4635 1.410 . S
C4636 C4637 1.392 . S
C4636 C4639 1.511 . S
C4637 C4633 1.376 . S
C4637 C4636 1.392 . S
C4637 H4649 0.929 . S
C4638 C4634 1.531 . S
C4638 H4650 0.960 . S
C4638 H4651 0.962 . S
C4638 H4652 0.960 . S
C4639 C4636 1.511 . S
C4639 H4653 0.961 . S
C4639 H4654 0.961 . S
C4639 H4655 0.961 . S
C4640 C4641 1.370 . S
C4640 C4642 1.363 . S
C4640 H4656 0.931 . S
C4641 C4640 1.370 . S
C4641 C4645 1.408 . S
C4642 C4640 1.363 . S
C4642 C4643 1.370 . S
C4642 C4646 1.524 . S
C4643 C4635 1.503 . S
C4643 C4642 1.370 . S
C4643 C4644 1.403 . S
C4644 C4643 1.403 . S
C4644 C4645 1.404 . S
C4644 C4647 1.539 1_554 S
C4645 C4641 1.408 . S
C4645 C4644 1.404 . S
C4645 H4657 0.953 . S
C4646 C4642 1.524 . S
C4646 H4658 0.956 . S
C4646 H4659 0.961 . S
C4646 H4660 0.961 . S
C4647 C4644 1.539 1_556 S
C4647 H4661 0.958 . S
C4647 H4662 0.961 . S
C4647 H4663 0.960 . S
H4648 C4632 0.931 . S
H4649 C4637 0.929 . S
H4650 C4638 0.960 . S
H4651 C4638 0.962 . S
H4652 C4638 0.960 . S
H4653 C4639 0.961 . S
H4654 C4639 0.961 . S
H4655 C4639 0.961 . S
H4656 C4640 0.931 . S
H4657 C4645 0.953 . S
H4658 C4646 0.956 . S
H4659 C4646 0.961 . S
H4660 C4646 0.961 . S
H4661 C4647 0.958 . S
H4662 C4647 0.961 . S
H4663 C4647 0.960 . S
C4664 C4665 1.391 . S
C4664 C4666 1.394 . S
C4664 H4680 0.931 . S
C4665 C4664 1.391 . S
C4665 C4669 1.376 . S
C4666 C4664 1.394 . S
C4666 C4667 1.369 . S
C4666 C4670 1.531 . S
C4667 C4666 1.369 . S
C4667 C4668 1.410 . S
C4667 C4675 1.503 . S
C4668 C4667 1.410 . S
C4668 C4669 1.392 . S
C4668 C4671 1.511 . S
C4669 C4665 1.376 . S
C4669 C4668 1.392 . S
C4669 H4681 0.929 . S
C4670 C4666 1.531 . S
C4670 H4682 0.960 . S
C4670 H4683 0.962 . S
C4670 H4684 0.960 . S
C4671 C4668 1.511 . S
C4671 H4685 0.961 . S
C4671 H4686 0.961 . S
C4671 H4687 0.961 . S
C4672 C4673 1.370 . S
C4672 C4674 1.363 . S
C4672 H4688 0.931 . S
C4673 C4672 1.370 . S
C4673 C4677 1.408 . S
C4674 C4672 1.363 . S
C4674 C4675 1.370 . S
C4674 C4678 1.524 . S
C4675 C4667 1.503 . S
C4675 C4674 1.370 . S
C4675 C4676 1.403 . S
C4676 C4675 1.403 . S
C4676 C4677 1.404 . S
C4676 C4679 1.539 . S
C4677 C4673 1.408 . S
C4677 C4676 1.404 . S
C4677 H4689 0.930 . S
C4678 C4674 1.524 . S
C4678 H4690 0.956 . S
C4678 H4691 0.961 . S
C4678 H4692 0.961 . S
C4679 C4676 1.539 . S
C4679 H4693 0.958 . S
C4679 H4694 0.961 . S
C4679 H4695 0.960 . S
H4680 C4664 0.931 . S
H4681 C4669 0.929 . S
H4682 C4670 0.960 . S
H4683 C4670 0.962 . S
H4684 C4670 0.960 . S
H4685 C4671 0.961 . S
H4686 C4671 0.961 . S
H4687 C4671 0.961 . S
H4688 C4672 0.931 . S
H4689 C4677 0.930 . S
H4690 C4678 0.956 . S
H4691 C4678 0.961 . S
H4692 C4678 0.961 . S
H4693 C4679 0.958 . S
H4694 C4679 0.961 . S
H4695 C4679 0.960 . S
C4696 C4697 1.391 . S
C4696 C4698 1.394 . S
C4696 H4712 0.931 . S
C4697 C4696 1.391 . S
C4697 C4701 1.376 . S
C4698 C4696 1.394 . S
C4698 C4699 1.369 . S
C4698 C4702 1.531 . S
C4699 C4698 1.369 . S
C4699 C4700 1.410 . S
C4699 C4707 1.503 . S
C4700 C4699 1.410 . S
C4700 C4701 1.392 . S
C4700 C4703 1.511 . S
C4701 C4697 1.376 . S
C4701 C4700 1.392 . S
C4701 H4713 0.929 . S
C4702 C4698 1.531 . S
C4702 H4714 0.960 . S
C4702 H4715 0.962 . S
C4702 H4716 0.960 . S
C4703 C4700 1.511 . S
C4703 H4717 0.961 . S
C4703 H4718 0.961 . S
C4703 H4719 0.961 . S
C4704 C4705 1.370 . S
C4704 C4706 1.363 . S
C4704 H4720 0.931 . S
C4705 C4704 1.370 . S
C4705 C4709 1.408 . S
C4706 C4704 1.363 . S
C4706 C4707 1.370 . S
C4706 C4710 1.524 . S
C4707 C4699 1.503 . S
C4707 C4706 1.370 . S
C4707 C4708 1.403 . S
C4708 C4707 1.403 . S
C4708 C4709 1.404 . S
C4708 C4711 1.539 . S
C4709 C4705 1.408 . S
C4709 C4708 1.404 . S
C4709 H4721 0.930 . S
C4710 C4706 1.524 . S
C4710 H4722 0.956 . S
C4710 H4723 0.961 . S
C4710 H4724 0.961 . S
C4711 C4708 1.539 . S
C4711 H4725 0.958 . S
C4711 H4726 0.961 . S
C4711 H4727 0.960 . S
H4712 C4696 0.931 . S
H4713 C4701 0.929 . S
H4714 C4702 0.960 . S
H4715 C4702 0.962 . S
H4716 C4702 0.960 . S
H4717 C4703 0.961 . S
H4718 C4703 0.961 . S
H4719 C4703 0.961 . S
H4720 C4704 0.931 . S
H4721 C4709 0.930 . S
H4722 C4710 0.956 . S
H4723 C4710 0.961 . S
H4724 C4710 0.961 . S
H4725 C4711 0.958 . S
H4726 C4711 0.961 . S
H4727 C4711 0.960 . S
C1657 C101 2.009 . S
C1665 C368 2.027 . S
C1689 C57 1.776 . S
C1697 C470 1.806 . S
C1721 C70 1.706 . S
C1729 C536 1.704 . S
C1761 C622 1.411 . S
C1753 C82 1.484 . S
C1785 C23 1.464 . S
C1793 C706 1.413 . S
C1825 C788 1.706 . S
C1817 C29 1.707 . S
C1857 C890 1.807 . S
C1849 C49 1.795 . S
C1881 C10 2.009 . S
C1889 C956 2.028 . S
C1921 C386 1.597 . S
C1913 C218 1.648 . S
C1945 C226 0.952 . S
C1953 C454 0.877 . S
C1985 C554 1.151 . S
C1977 C251 1.103 . S
C2017 C620 1.545 . S
C2009 C159 1.552 1_556 S
C2041 C211 1.540 . S
C2049 C704 1.542 . S
C2081 C806 1.137 . S
C2073 C225 1.100 . S
C2113 C874 0.888 . S
C2105 C252 0.957 . S
C2145 C974 1.612 . S
C2137 C166 1.640 . S
C2177 C370 1.030 . S
C2169 C147 1.072 . S
C2201 C263 1.586 . S
C2209 C1058 1.607 . S
C2241 C1126 1.375 . S
C2233 C309 1.432 . S
C2273 C1208 0.726 . S
C2265 C291 0.717 . S
C2297 C108 1.077 . S
C2305 C958 1.040 . S
C2329 C121 1.397 . S
C2337 C538 1.378 . S
C2361 C302 1.588 . S
C2369 C1310 1.610 . S
C2401 C1376 0.739 . S
C2393 C276 0.734 . S
C2433 C379 2.260 1_565 S
C2425 C55 2.237 . S
C2465 C1383 2.101 . S
C2457 C96 2.106 . S
C2489 C88 2.042 . S
C2497 C547 2.049 . S
C2521 C75 1.672 . S
C2529 C1305 1.562 . S
C2561 C717 1.529 . S
C2553 C4 1.661 . S
C2585 C44 2.053 . S
C2593 C1135 2.056 . S
C2625 C879 2.100 1_565 S
C2617 C31 2.103 . S
C2657 C1471 2.263 . S
C2649 C18 2.225 . S
C2689 C375 1.898 1_556 S
C2681 C133 1.918 . S
C2721 C1389 1.025 . S
C2713 C296 1.121 . S
C2745 C107 1.361 . S
C2753 C543 1.346 . S
C2777 C264 1.846 . S
C2785 C1303 1.851 . S
C2809 C140 1.852 . S
C2817 C715 1.848 . S
C2849 C1131 1.360 . S
C2841 C289 1.351 . S
C2873 C114 1.122 . S
C2881 C885 1.072 . S
C2905 C265 1.928 . S
C2913 C1467 1.886 . S
C2937 C179 1.121 . S
C2945 C381 1.078 . S
C2969 C161 1.852 . S
C2977 C1047 1.835 . S
C3001 C244 1.499 . S
C3009 C801 1.403 . S
C3033 C224 1.060 . S
C3041 C1219 1.071 . S
C3073 C1473 1.043 . S
C3065 C257 1.091 . S
C3097 C199 1.508 . S
C3105 C549 1.432 . S
C3137 C627 1.846 . S
C3129 C237 1.863 . S
C3169 C463 1.070 . S
C3161 C185 1.057 . S
C3193 C69 2.013 . S
C3201 C1544 2.026 . S
C3233 C1394 1.809 . S
C3225 C83 1.790 . S
C3257 C94 1.700 . S
C3265 C1628 1.705 . S
C3289 C56 1.457 1_655 S
C3297 C1294 1.385 . S
C3321 C42 1.476 . S
C3329 C1042 1.392 . S
C3361 C1124 1.705 . S
C3353 C3 1.752 . S
C3393 C1226 1.807 . S
C3385 C16 1.759 . S
C3425 C1460 2.027 . S
C3417 C36 2.012 . S
C3457 C1562 1.611 . S
C3449 C238 1.642 . S
C3481 C174 0.954 . S
C3489 C1378 0.896 . S
C3521 C1646 1.154 . S
C3513 C186 1.115 . S
C3553 C1292 1.543 . S
C3545 C198 1.547 . S
C3585 C1040 1.548 . S
C3577 C239 1.541 . S
C3609 C173 1.145 . S
C3617 C1142 1.131 . S
C3649 C1210 0.910 . S
C3641 C187 0.947 . S
C3673 C205 1.628 . S
C3681 C1478 1.597 . S
C3713 C1546 1.034 . S
C3705 C290 1.024 . S
C3737 C122 1.606 . S
C3745 C722 1.613 . S
C3777 C790 1.383 . S
C3769 C134 1.427 1_565 S
C3809 C872 0.722 . S
C3801 C148 0.738 1_554 S
C3841 C1462 1.012 . S
C3833 C283 1.018 . S
C3865 C270 1.432 . S
C3873 C1630 1.375 . S
C3905 C638 1.622 . S
C3897 C135 1.620 . S
C3937 C452 0.727 . S
C3929 C109 0.750 . S
C3961 C81 2.232 . S
C3969 C1555 2.263 . S
C4001 C459 2.092 . S
C3993 C68 2.095 . S
C4025 C62 2.029 . S
C4033 C1639 2.049 . S
C4057 C95 1.670 . S
C4065 C633 1.537 . S
C4089 C30 1.667 . S
C4097 C1053 1.532 . S
C4129 C799 2.050 . S
C4121 C17 2.028 . S
C4153 C5 2.102 . S
C4161 C1215 2.100 . S
C4185 C43 2.224 . S
C4193 C967 2.254 . S
C4225 C1551 1.895 . S
C4217 C304 1.918 . S
C4249 C153 1.122 . S
C4257 C465 1.017 . S
C4289 C1635 1.344 1_656 S
C4281 C278 1.360 . S
C4313 C127 1.849 . S
C4321 C631 1.848 . S
C4345 C303 1.839 . S
C4353 C1051 1.849 . S
C4385 C795 1.346 . S
C4377 C146 1.373 . S
C4409 C277 1.124 . S
C4417 C1221 1.073 . S
C4449 C963 1.889 . S
C4441 C120 1.927 . S
C4481 C1557 1.050 . S
C4473 C231 1.091 . S
C4513 C711 1.834 1_565 S
C4505 C200 1.851 . S
C4537 C212 1.521 . S
C4545 C1137 1.433 . S
C4577 C883 1.063 . S
C4569 C172 1.068 . S
C4601 C192 1.086 . S
C4609 C969 1.039 . S
C4633 C160 1.501 . S
C4641 C1641 1.400 . S
C4673 C1299 1.838 . S
C4665 C213 1.857 . S
C4705 C1387 1.064 . S
C4697 C250 1.074 . S
