# Generated by pormake.
# Topology scu, (8,4)-cn, num edge types: 1
# Building blocks:
#     Node 0, Type 0, BuildingBlock: TAGTUT_clean_sbu_3, # of connection points: 8
#     Node 1, Type 1, BuildingBlock: NAWXER_clean_sbu_0, # of connection points: 4
#     Node 2, Type 1, BuildingBlock: NAWXER_clean_sbu_0, # of connection points: 4
#     Edge 3, Type (0, 1), BuildingBlock: ZUJKAS_clean_linker_0, # of connection points: 2
#     Edge 4, Type (0, 1), BuildingBlock: ZUJKAS_clean_linker_0, # of connection points: 2
#     Edge 5, Type (0, 1), BuildingBlock: ZUJKAS_clean_linker_0, # of connection points: 2
#     Edge 6, Type (0, 1), BuildingBlock: ZUJKAS_clean_linker_0, # of connection points: 2
#     Edge 7, Type (0, 1), BuildingBlock: ZUJKAS_clean_linker_0, # of connection points: 2
#     Edge 8, Type (0, 1), BuildingBlock: ZUJKAS_clean_linker_0, # of connection points: 2
#     Edge 9, Type (0, 1), BuildingBlock: ZUJKAS_clean_linker_0, # of connection points: 2
#     Edge 10, Type (0, 1), BuildingBlock: ZUJKAS_clean_linker_0, # of connection points: 2
# Relax obj value: 0.034
# Max RMSD: 0.102
# Mean RMSD: 0.062
data_MOF--net-scu--node1-TAGTUT_clean_sbu_3--node2-NAWXER_clean_sbu_0--edge1-ZUJKAS_clean_linker_0
_symmetry_space_group_name_H-M    P1
_symmetry_Int_Tables_number       1
_symmetry_cell_setting            triclinic
loop_
_symmetry_equiv_pos_as_xyz
'x, y, z'
_cell_length_a     34.046162
_cell_length_b     29.423406
_cell_length_c     25.676311
_cell_angle_alpha  90.056831
_cell_angle_beta   91.607088
_cell_angle_gamma 89.948983
loop_
_atom_site_label
_atom_site_type_symbol
_atom_site_fract_x
_atom_site_fract_y
_atom_site_fract_z
_atom_type_partial_charge
C0 C 1.00739 0.91811 0.07197 0.0
C1 C 0.86539 -0.00039 0.0585 0.0
C2 C 0.89894 0.02471 0.90331 0.0
Mg3 Mg 0.08709 0.94853 0.01033 0.0
Mg4 Mg 0.09697 0.05767 0.9848 0.0
O5 O 0.06749 0.00407 0.9725 0.0
Mg6 Mg 0.01281 0.00651 -0.00196 0.0
O7 O 0.9582 0.00679 0.02377 0.0
Mg8 Mg 0.93764 0.94963 0.99066 0.0
Mg9 Mg 0.92931 0.06015 0.00835 0.0
C10 C 0.02084 0.09828 0.92698 0.0
O11 O 0.02546 0.06536 0.05452 0.0
O12 O 0.14367 0.95758 0.9592 0.0
O13 O 0.97088 0.10848 0.04489 0.0
O14 O 0.11822 0.98791 0.07554 0.0
O15 O 0.1469 0.03337 0.94528 0.0
O16 O 0.11788 0.06293 0.06539 0.0
O17 O 0.99582 0.94756 0.94418 0.0
O18 O 0.0525 0.90887 0.94819 0.0
C19 C 0.01675 0.91311 0.93183 0.0
C20 C 0.16046 0.99303 0.94008 0.0
O21 O 1.00091 0.06262 0.93791 0.0
O22 O 0.88151 0.96291 0.04136 0.0
O23 O 0.05597 0.10509 0.9453 0.0
O24 O 0.90669 0.98576 0.92267 0.0
O25 O 0.87948 0.03925 0.05035 0.0
O26 O 0.9083 0.06119 0.92764 0.0
O27 O 0.02885 0.95065 0.05588 0.0
O28 O 0.97156 0.91336 0.05642 0.0
C29 C 0.12652 0.02762 0.09224 0.0
C30 C 1.00591 0.10177 0.06363 0.0
C31 C 0.01181 0.55561 0.56738 0.0
C32 C 0.04264 0.4351 0.44373 0.0
O33 O 0.04558 0.5384 0.56026 0.0
Zn34 Zn 0.02915 0.49393 0.50823 0.0
O35 O 0.9819 0.54051 0.5414 0.0
Zn36 Zn 0.96801 0.49111 0.48303 0.0
O37 O 0.93309 0.4493 0.51851 0.0
O38 O 0.99358 0.44991 0.55191 0.0
O39 O 1.00639 0.44682 0.44326 0.0
O40 O 0.06664 0.45258 0.47692 0.0
O41 O 0.01289 0.53661 0.44428 0.0
O42 O 0.94927 0.52995 0.42617 0.0
C43 C 0.95812 0.43555 0.5527 0.0
C44 C 0.98246 0.5476 0.41663 0.0
C45 C 0.56402 0.96464 0.56658 0.0
C46 C 0.45865 0.96478 0.43073 0.0
O47 O 0.54891 0.92884 0.54642 0.0
Zn48 Zn 0.51121 0.95968 0.49871 0.0
O49 O 0.55176 0.00371 0.55155 0.0
Zn50 Zn 0.51135 0.03459 0.49881 0.0
O51 O 0.47577 0.06548 0.54671 0.0
O52 O 0.47204 0.99059 0.54984 0.0
O53 O 0.47095 0.00385 0.44572 0.0
O54 O 0.47351 0.92893 0.45108 0.0
O55 O 0.55013 0.99042 0.44717 0.0
O56 O 0.54702 0.06531 0.45106 0.0
C57 C 0.46038 0.02959 0.56505 0.0
C58 C 0.56195 0.02935 0.43207 0.0
H59 H 0.06715 0.0903 0.13355 0.0
H60 H 0.09388 0.14546 0.19613 0.0
H61 H 0.00953 0.24484 0.14048 0.0
H62 H 0.98383 0.19049 0.076 0.0
H63 H 0.08526 0.28089 0.15993 0.0
H64 H 0.03444 0.17766 0.32699 0.0
H65 H 0.06711 0.15012 0.28316 0.0
H66 H 0.0186 0.16601 0.2607 0.0
C67 C 0.05501 0.12426 0.13354 0.0
C68 C 0.02358 0.1361 0.09937 0.0
C69 C 0.06996 0.15555 0.16993 0.0
C70 C 0.05334 0.19901 0.17341 0.0
C71 C 0.02276 0.2114 0.13842 0.0
H72 H 0.01015 0.42425 0.34773 0.0
H73 H 0.02544 0.36713 0.28295 0.0
C74 C 1.00795 0.18023 0.10179 0.0
C75 C 0.06601 0.23109 0.21507 0.0
H76 H 0.06005 0.24976 0.3459 0.0
C77 C 0.08044 0.2738 0.2007 0.0
C78 C 0.0601 0.22158 0.26835 0.0
C79 C 0.04399 0.17653 0.28599 0.0
C80 C 0.0869 0.30817 0.23785 0.0
C81 C 0.07831 0.29968 0.29048 0.0
C82 C 0.06673 0.256 0.30547 0.0
C83 C 0.0735 0.33729 0.32801 0.0
C84 C 0.10117 0.35398 0.22018 0.0
C85 C 0.09548 0.33941 0.37513 0.0
C86 C 0.08687 0.37254 0.41253 0.0
C87 C 0.05552 0.40291 0.40357 0.0
C88 C 0.03429 0.40107 0.35591 0.0
C89 C 0.04324 0.36872 0.31856 0.0
H90 H 0.1185 0.35097 0.18431 0.0
H91 H 0.07544 0.37608 0.2111 0.0
H92 H 0.1195 0.37076 0.25105 0.0
H93 H 0.11865 0.31497 0.38329 0.0
H94 H 0.10354 0.3732 0.44908 0.0
H95 H 0.83897 0.93003 0.12046 0.0
H96 H 0.78407 0.93389 0.18082 0.0
H97 H 0.75744 0.06986 0.12802 0.0
H98 H 0.8111 0.06609 0.06785 0.0
H99 H 0.7792 -0.0016 0.26119 0.0
H100 H 0.64924 0.01181 0.1272 0.0
H101 H 0.69641 0.99195 0.10606 0.0
H102 H 0.68717 0.05185 0.11292 0.0
C103 C 0.82074 0.96021 0.12095 0.0
C104 C 0.82948 -0.00222 0.08962 0.0
C105 C 0.78958 0.9625 0.15553 0.0
C106 C 0.76645 0.00205 0.15849 0.0
C107 C 0.77433 0.03873 0.12577 0.0
H108 H 0.58639 0.10064 0.37037 0.0
H109 H 0.63765 0.09766 0.30432 0.0
C110 C 0.80533 0.03659 0.09166 0.0
C111 C 0.73635 0.00714 0.19871 0.0
H112 H 0.6396 0.03258 0.21592 0.0
C113 C 0.74861 0.00546 0.2513 0.0
C114 C 0.69659 0.01712 0.18568 0.0
C115 C 0.68144 0.0179 0.1299 0.0
C116 C 0.72225 0.01388 0.29123 0.0
C117 C 0.68251 0.02371 0.27822 0.0
C118 C 0.67023 0.02565 0.22568 0.0
C119 C 0.65256 0.02715 0.31871 0.0
C120 C 0.73717 0.0125 0.34711 0.0
C121 C 0.64403 0.9886 0.34806 0.0
C122 C 0.61507 0.99015 0.38512 0.0
C123 C 0.59369 0.03033 0.39378 0.0
C124 C 0.60244 0.06931 0.36471 0.0
C125 C 0.63155 0.06759 0.327 0.0
H126 H 0.76955 0.0171 0.35012 0.0
H127 H 0.72294 0.03921 0.37069 0.0
H128 H 0.73007 0.97896 0.36416 0.0
H129 H 0.65947 0.95693 0.34177 0.0
H130 H 0.60936 0.95944 0.40687 0.0
H131 H 1.00327 0.91993 0.17641 0.0
H132 H 0.0087 0.85385 0.23397 0.0
H133 H 0.04819 0.77235 0.10572 0.0
H134 H 0.04202 0.83858 0.04793 0.0
H135 H 0.98339 0.73752 0.15018 0.0
H136 H 0.0947 0.7789 0.30416 0.0
H137 H 0.05872 0.82302 0.2955 0.0
H138 H 0.09105 0.80962 0.24337 0.0
C139 C 0.01488 0.88839 0.16133 0.0
C140 C 0.0231 0.88418 0.1084 0.0
C141 C 0.01788 0.85064 0.19409 0.0
C142 C 0.02916 0.80825 0.17423 0.0
C143 C 0.03971 0.80483 0.12186 0.0
H144 H 0.04998 0.5696 0.36956 0.0
H145 H 0.06069 0.63006 0.30696 0.0
C146 C 0.03661 0.84262 0.08908 0.0
C147 C 0.02455 0.76676 0.20604 0.0
H148 H 0.04911 0.71955 0.32369 0.0
C149 C 0.99816 0.73325 0.18785 0.0
C150 C 0.04386 0.76126 0.25504 0.0
C151 C 0.07396 0.79491 0.27546 0.0
C152 C 0.98985 0.69484 0.21792 0.0
C153 C 1.00783 0.69038 0.26792 0.0
C154 C 0.03495 0.72334 0.28556 0.0
C155 C 0.99986 0.65128 0.30233 0.0
C156 C 0.96221 0.65929 0.19569 0.0
C157 C 0.96184 0.64259 0.31991 0.0
C158 C 0.95547 0.60753 0.35559 0.0
C159 C 0.98719 0.5813 0.37471 0.0
C160 C 0.02495 0.58949 0.35594 0.0
C161 C 0.03118 0.62405 0.32013 0.0
H162 H 0.95952 0.6615 0.15254 0.0
H163 H 0.97222 0.62454 0.20651 0.0
H164 H 0.93257 0.66459 0.21155 0.0
H165 H 0.93734 0.66376 0.30732 0.0
H166 H 0.92615 0.60215 0.36969 0.0
H167 H 0.12705 0.96933 0.17393 0.0
H168 H 0.17971 0.95965 0.23941 0.0
H169 H 0.23665 0.08008 0.18289 0.0
H170 H 0.18353 0.09029 0.11741 0.0
H171 H 0.25516 0.94361 0.20817 0.0
H172 H 0.25193 0.09234 0.34082 0.0
H173 H 0.2104 0.07635 0.29948 0.0
H174 H 0.25085 0.107 0.27291 0.0
C175 C 0.1501 0.99468 0.17659 0.0
C176 C 0.1513 0.03047 0.14037 0.0
C177 C 0.18028 0.98894 0.21389 0.0
C178 C 0.21224 0.01893 0.21593 0.0
C179 C 0.21202 0.05681 0.18251 0.0
H180 H 0.44347 0.02606 0.35471 0.0
H181 H 0.38323 0.03477 0.30223 0.0
C182 C 0.18158 0.06274 0.14518 0.0
C183 C 0.2477 0.00728 0.24826 0.0
H184 H 0.31007 0.04704 0.34411 0.0
C185 C 0.26697 0.966 0.23831 0.0
C186 C 0.26308 0.03652 0.28742 0.0
C187 C 0.24284 0.08035 0.30124 0.0
C188 C 0.30189 0.95385 0.26528 0.0
C189 C 0.31765 0.98346 0.30383 0.0
C190 C 0.29797 0.02435 0.31446 0.0
C191 C 0.35563 0.97421 0.33172 0.0
C192 C 0.32238 0.91028 0.25098 0.0
C193 C 0.36077 0.9363 0.36464 0.0
C194 C 0.39568 0.93088 0.39449 0.0
C195 C 0.42556 0.96366 0.3922 0.0
C196 C 0.42089 0.0003 0.35744 0.0
C197 C 0.38639 0.00548 0.32757 0.0
H198 H 0.3112 0.89646 0.21311 0.0
H199 H 0.35457 0.91565 0.24871 0.0
H200 H 0.3173 0.88442 0.28147 0.0
H201 H 0.33721 0.91202 0.36895 0.0
H202 H 0.39828 0.90272 0.4215 0.0
H203 H 0.96375 0.92061 0.84972 0.0
H204 H 0.94767 0.86106 0.78502 0.0
H205 H 0.01825 0.7652 0.87375 0.0
H206 H 0.03437 0.82394 0.93761 0.0
H207 H 0.00894 0.8171 0.72932 0.0
H208 H 0.91901 0.69192 0.83368 0.0
H209 H 0.9238 0.75046 0.85434 0.0
H210 H 0.96155 0.70978 0.87115 0.0
C211 C 0.97482 0.88646 0.85592 0.0
C212 C 1.0005 0.87679 0.89823 0.0
C213 C 0.96578 0.85263 0.81901 0.0
C214 C 0.98157 0.80871 0.82493 0.0
C215 C 1.00526 0.79861 0.86888 0.0
H216 H 0.06808 0.6044 0.62222 0.0
H217 H 0.05724 0.66819 0.68177 0.0
C218 C 0.01468 0.8323 0.90512 0.0
C219 C 0.97803 0.77462 0.78278 0.0
H220 H 0.95529 0.6632 0.76117 0.0
C221 C 0.99647 0.78372 0.73573 0.0
C222 C 0.9617 0.73122 0.7913 0.0
C223 C 0.94005 0.72034 0.84019 0.0
C224 C 1.00099 0.74964 0.69812 0.0
C225 C 0.98708 0.70537 0.70829 0.0
C226 C 0.96657 0.69701 0.75395 0.0
C227 C 0.99386 0.6671 0.67228 0.0
C228 C 0.02114 0.76105 0.64822 0.0
C229 C 0.96181 0.64487 0.64838 0.0
C230 C 0.96787 0.60853 0.61467 0.0
C231 C 1.00616 0.5934 0.60448 0.0
C232 C 0.03828 0.61529 0.62916 0.0
C233 C 0.03215 0.65189 0.66284 0.0
H234 H 0.02095 0.79822 0.64062 0.0
H235 H 0.0522 0.74967 0.65124 0.0
H236 H 1.00681 0.7434 0.61449 0.0
H237 H 0.93206 0.65591 0.65549 0.0
H238 H 0.9424 0.59235 0.59653 0.0
H239 H 0.18166 0.92599 0.87131 0.0
H240 H 0.2363 0.92978 0.81048 0.0
H241 H 0.27414 0.05644 0.88004 0.0
H242 H 0.22049 0.05265 0.94046 0.0
H243 H 0.24367 0.00198 0.73944 0.0
H244 H 0.37766 0.98891 0.86617 0.0
H245 H 0.3299 0.97106 0.88717 0.0
H246 H 0.34316 0.03022 0.88848 0.0
C247 C 0.20244 0.95378 0.8745 0.0
C248 C 0.19684 0.98905 0.9104 0.0
C249 C 0.23342 0.95611 0.83964 0.0
C250 C 0.25946 0.99326 0.84105 0.0
C251 C 0.25494 0.0271 0.87878 0.0
H252 H 0.44183 0.09651 0.63621 0.0
H253 H 0.39121 0.09172 0.70304 0.0
C254 C 0.22405 0.02499 0.91308 0.0
C255 C 0.28869 -0.00022 0.79998 0.0
H256 H 0.38627 0.0182 0.78047 0.0
C257 C 0.27489 0.00507 0.74833 0.0
C258 C 0.32933 0.00468 0.81183 0.0
C259 C 0.34599 -0.00198 0.86636 0.0
C260 C 0.30057 0.01551 0.70826 0.0
C261 C 0.34119 0.02022 0.72006 0.0
C262 C 0.35503 0.01518 0.7717 0.0
C263 C 0.37012 0.02546 0.67849 0.0
C264 C 0.284 0.02184 0.65362 0.0
C265 C 0.37478 0.99 0.64289 0.0
C266 C 0.40336 0.99257 0.60538 0.0
C267 C 0.42817 0.03069 0.60251 0.0
C268 C 0.42299 0.06691 0.63737 0.0
C269 C 0.39431 0.06409 0.67556 0.0
H270 H 0.25212 0.02997 0.65349 0.0
H271 H 0.29961 0.0494 0.63315 0.0
H272 H 0.28779 0.98987 0.63135 0.0
H273 H 0.35684 0.95968 0.64488 0.0
H274 H 0.40636 0.96414 0.57893 0.0
H275 H 0.95941 0.08574 0.85763 0.0
H276 H 0.93067 0.14092 0.79655 0.0
H277 H 0.01433 0.24153 0.85078 0.0
H278 H 0.04231 0.187 0.91348 0.0
H279 H 0.93561 0.27454 0.83723 0.0
H280 H 0.98616 0.17957 0.66353 0.0
H281 H 0.95659 0.14872 0.70836 0.0
H282 H 1.00483 0.16748 0.72852 0.0
C283 C 0.97117 0.11988 0.85741 0.0
C284 C 1.00294 0.13209 0.89081 0.0
C285 C 0.95501 0.15119 0.82196 0.0
C286 C 0.97064 0.19513 0.8188 0.0
C287 C 1.00187 0.20772 0.85265 0.0
H288 H 0.99143 0.43021 0.64893 0.0
H289 H 0.98253 0.37148 0.71401 0.0
C290 C 0.01797 0.17647 0.88823 0.0
C291 C 0.95567 0.22778 0.77911 0.0
H292 H 0.95601 0.25015 0.64869 0.0
C293 C 0.93951 0.26896 0.79593 0.0
C294 C 0.96033 0.22015 0.7252 0.0
C295 C 0.97813 0.17677 0.70505 0.0
C296 C 0.92967 0.30364 0.76043 0.0
C297 C 0.93677 0.29717 0.70694 0.0
C298 C 0.95048 0.25491 0.68973 0.0
C299 C 0.93701 0.33578 0.67002 0.0
C300 C 0.913 0.34754 0.78069 0.0
C301 C 0.91426 0.33533 0.62345 0.0
C302 C 0.91924 0.36931 0.58586 0.0
C303 C 0.94771 0.40332 0.59407 0.0
C304 C 0.96939 0.40429 0.64142 0.0
C305 C 0.96408 0.37096 0.67893 0.0
H306 H 0.8967 0.34184 0.81699 0.0
H307 H 0.93746 0.37136 0.79002 0.0
H308 H 0.89301 0.36381 0.75131 0.0
H309 H 0.89354 0.30809 0.61565 0.0
H310 H 0.90236 0.36769 0.54952 0.0
H311 H 0.84632 0.09069 0.87214 0.0
H312 H 0.79163 0.08057 0.80883 0.0
H313 H 0.83791 0.94981 0.76577 0.0
H314 H 0.89257 0.95978 0.82824 0.0
H315 H 0.80263 -0.00059 0.68083 0.0
H316 H 0.70684 0.98747 0.85208 0.0
H317 H 0.73486 0.039 0.84785 0.0
H318 H 0.75976 0.98576 0.85806 0.0
C319 C 0.84557 0.06055 0.84788 0.0
C320 C 0.8734 0.02575 0.85571 0.0
C321 C 0.81409 0.05456 0.81215 0.0
C322 C 0.81021 0.01387 0.7837 0.0
C323 C 0.84011 0.98122 0.78772 0.0
H324 H 0.62135 0.89894 0.58066 0.0
H325 H 0.68192 0.90597 0.63497 0.0
C326 C 0.87136 0.98705 0.82344 0.0
C327 C 0.77341 0.00301 0.75392 0.0
H328 H 0.67565 0.9825 0.76902 0.0
C329 C 0.77484 -0.00434 0.69998 0.0
C330 C 0.73736 -0.00267 0.77927 0.0
C331 C 0.73444 0.00236 0.83756 0.0
C332 C 0.7408 0.98442 0.67039 0.0
C333 C 0.70462 0.97947 0.69568 0.0
C334 C 0.70344 0.98606 0.74975 0.0
C335 C 0.66698 0.97195 0.66629 0.0
C336 C 0.74357 0.97944 0.61212 0.0
C337 C 0.63783 0.00549 0.66793 0.0
C338 C 0.60345 0.00135 0.63764 0.0
C339 C 0.5972 0.96342 0.60505 0.0
C340 C 0.62533 0.92843 0.60553 0.0
C341 C 0.6601 0.93272 0.63596 0.0
H342 H 0.77176 0.99283 0.59769 0.0
H343 H 0.74156 0.94292 0.60159 0.0
H344 H 0.71895 -0.00248 0.59178 0.0
H345 H 0.64229 0.03582 0.69133 0.0
H346 H 0.58222 0.02879 0.63846 0.0
loop_
_geom_bond_atom_site_label_1
_geom_bond_atom_site_label_2
_geom_bond_distance
_geom_bond_site_symmetry_2
_ccdc_geom_bond_type
C0 O27 1.312 1_655 S
C0 O28 1.208 . S
C1 O22 1.331 . S
C1 O25 1.244 1_565 S
C2 O24 1.264 1_545 S
C2 O26 1.273 . S
Mg3 O5 1.936 1_565 S
Mg3 O12 2.081 . S
Mg3 O14 2.023 1_556 S
Mg3 O18 2.031 . S
Mg3 O27 2.291 1_556 S
Mg4 O5 1.963 . S
Mg4 O15 1.942 . S
Mg4 O16 1.955 1_556 S
Mg4 O23 1.986 . S
O5 Mg3 1.936 1_545 S
O5 Mg4 1.963 . S
O5 Mg6 1.915 1_556 S
Mg6 O5 1.915 1_554 S
Mg6 O7 1.915 1_455 S
Mg6 O11 2.013 . S
Mg6 O17 2.114 1_444 S
Mg6 O21 2.013 1_454 S
Mg6 O27 2.114 1_545 S
O7 Mg6 1.915 1_655 S
O7 Mg8 1.936 1_545 S
O7 Mg9 1.963 . S
Mg8 O7 1.936 1_565 S
Mg8 O17 2.291 1_554 S
Mg8 O22 2.081 . S
Mg8 O24 2.023 1_554 S
Mg8 O28 2.031 . S
Mg9 O7 1.963 . S
Mg9 O13 1.986 . S
Mg9 O25 1.942 . S
Mg9 O26 1.955 1_554 S
C10 O21 1.191 1_455 S
C10 O23 1.307 . S
O11 Mg6 2.013 . S
O11 C30 1.191 1_455 S
O12 Mg3 2.081 . S
O12 C20 1.331 . S
O13 Mg9 1.986 . S
O13 C30 1.307 . S
O14 Mg3 2.023 1_554 S
O14 C29 1.264 1_565 S
O15 Mg4 1.942 . S
O15 C20 1.244 1_545 S
O16 Mg4 1.955 1_554 S
O16 C29 1.273 . S
O17 Mg6 2.114 1_666 S
O17 Mg8 2.291 1_556 S
O17 C19 1.312 1_655 S
O18 Mg3 2.031 . S
O18 C19 1.208 . S
C19 O17 1.312 1_455 S
C19 O18 1.208 . S
C20 O12 1.331 . S
C20 O15 1.244 1_565 S
O21 Mg6 2.013 1_656 S
O21 C10 1.191 1_655 S
O22 C1 1.331 . S
O22 Mg8 2.081 . S
O23 Mg4 1.986 . S
O23 C10 1.307 . S
O24 C2 1.264 1_565 S
O24 Mg8 2.023 1_556 S
O25 C1 1.244 1_545 S
O25 Mg9 1.942 . S
O26 C2 1.273 . S
O26 Mg9 1.955 1_556 S
O27 C0 1.312 1_455 S
O27 Mg3 2.291 1_554 S
O27 Mg6 2.114 1_565 S
O28 C0 1.208 . S
O28 Mg8 2.031 . S
C29 O14 1.264 1_545 S
C29 O16 1.273 . S
C30 O11 1.191 1_655 S
C30 O13 1.307 . S
C31 O33 1.251 . S
C31 O35 1.254 1_455 S
C32 O39 1.245 . S
C32 O40 1.260 1_655 S
O33 C31 1.251 . S
O33 Zn34 2.028 . S
Zn34 O33 2.028 . S
Zn34 O38 2.035 . S
Zn34 O40 2.035 . S
Zn34 O41 2.028 . S
O35 C31 1.254 1_655 S
O35 Zn36 2.035 . S
Zn36 O35 2.035 . S
Zn36 O37 2.028 . S
Zn36 O39 2.028 . S
Zn36 O42 2.035 . S
O37 Zn36 2.028 . S
O37 C43 1.245 . S
O38 Zn34 2.035 . S
O38 C43 1.260 1_455 S
O39 C32 1.245 . S
O39 Zn36 2.028 . S
O40 C32 1.260 1_455 S
O40 Zn34 2.035 . S
O41 Zn34 2.028 . S
O41 C44 1.251 . S
O42 Zn36 2.035 . S
O42 C44 1.254 1_655 S
C43 O37 1.245 . S
C43 O38 1.260 1_655 S
C44 O41 1.251 . S
C44 O42 1.254 1_455 S
C45 O47 1.247 1_545 S
C45 O49 1.258 . S
C46 O53 1.247 . S
C46 O54 1.258 1_545 S
O47 C45 1.247 1_565 S
O47 Zn48 2.028 . S
Zn48 O47 2.028 . S
Zn48 O52 2.035 . S
Zn48 O54 2.035 . S
Zn48 O55 2.028 . S
O49 C45 1.258 . S
O49 Zn50 2.035 . S
Zn50 O49 2.035 . S
Zn50 O51 2.028 . S
Zn50 O53 2.028 . S
Zn50 O56 2.035 . S
O51 Zn50 2.028 . S
O51 C57 1.247 . S
O52 Zn48 2.035 . S
O52 C57 1.258 1_565 S
O53 C46 1.247 . S
O53 Zn50 2.028 . S
O54 C46 1.258 1_565 S
O54 Zn48 2.035 . S
O55 Zn48 2.028 . S
O55 C58 1.247 1_565 S
O56 Zn50 2.035 . S
O56 C58 1.258 . S
C57 O51 1.247 . S
C57 O52 1.258 1_545 S
C58 O55 1.247 1_545 S
C58 O56 1.258 . S
H59 C67 0.929 . S
H60 C69 0.930 . S
H61 C71 0.930 . S
H62 C74 0.929 . S
H63 C77 0.930 . S
H64 C79 0.960 . S
H65 C79 0.960 . S
H66 C79 0.960 . S
C67 H59 0.929 . S
C67 C68 1.377 1_455 S
C67 C69 1.384 . S
C68 C67 1.377 1_655 S
C68 C74 1.390 . S
C69 H60 0.930 . S
C69 C67 1.384 . S
C69 C70 1.368 1_455 S
C70 C69 1.368 1_655 S
C70 C71 1.404 . S
C70 C75 1.490 1_655 S
C71 H61 0.930 . S
C71 C70 1.404 . S
C71 C74 1.386 . S
H72 C88 0.930 . S
H73 C89 0.929 1_655 S
C74 H62 0.929 . S
C74 C68 1.390 . S
C74 C71 1.386 . S
C75 C70 1.490 1_455 S
C75 C77 1.420 . S
C75 C78 1.379 1_455 S
H76 C82 0.930 . S
C77 H63 0.930 . S
C77 C75 1.420 . S
C77 C80 1.403 . S
C78 C75 1.379 1_655 S
C78 C79 1.524 . S
C78 C82 1.400 . S
C79 H64 0.960 . S
C79 H65 0.960 . S
C79 H66 0.960 . S
C79 C78 1.524 . S
C80 C77 1.403 . S
C80 C81 1.392 . S
C80 C84 1.495 . S
C81 C80 1.392 . S
C81 C82 1.385 1_455 S
C81 C83 1.478 . S
C82 H76 0.930 . S
C82 C78 1.400 . S
C82 C81 1.385 1_655 S
C83 C81 1.478 . S
C83 C85 1.381 . S
C83 C89 1.386 . S
C84 C80 1.495 . S
C84 H90 0.959 . S
C84 H91 0.961 . S
C84 H92 0.960 . S
C85 C83 1.381 . S
C85 C86 1.394 . S
C85 H93 0.930 . S
C86 C85 1.394 . S
C86 C87 1.383 . S
C86 H94 0.929 . S
C87 C86 1.383 . S
C87 C88 1.377 1_455 S
C88 H72 0.930 . S
C88 C87 1.377 1_655 S
C88 C89 1.378 1_655 S
C89 H73 0.929 1_455 S
C89 C83 1.386 . S
C89 C88 1.378 1_455 S
H90 C84 0.959 . S
H91 C84 0.961 . S
H92 C84 0.960 . S
H93 C85 0.930 . S
H94 C86 0.929 . S
H95 C103 0.929 . S
H96 C105 0.930 . S
H97 C107 0.930 . S
H98 C110 0.929 . S
H99 C113 0.930 . S
H100 C115 0.960 . S
H101 C115 0.960 . S
H102 C115 0.960 1_545 S
C103 H95 0.929 . S
C103 C104 1.377 . S
C103 C105 1.384 . S
C104 C103 1.377 . S
C104 C110 1.390 1_565 S
C105 H96 0.930 . S
C105 C103 1.384 . S
C105 C106 1.372 . S
C106 C105 1.372 . S
C106 C107 1.400 1_565 S
C106 C111 1.490 . S
C107 H97 0.930 . S
C107 C106 1.400 1_545 S
C107 C110 1.386 . S
H108 C124 0.930 . S
H109 C125 0.931 . S
C110 H98 0.929 . S
C110 C104 1.390 1_545 S
C110 C107 1.386 . S
C111 C106 1.490 . S
C111 C113 1.395 . S
C111 C114 1.403 . S
H112 C118 0.930 . S
C113 H99 0.930 . S
C113 C111 1.395 . S
C113 C116 1.404 . S
C114 C111 1.403 . S
C114 C115 1.524 . S
C114 C118 1.400 . S
C115 H100 0.960 . S
C115 H101 0.960 . S
C115 H102 0.960 1_565 S
C115 C114 1.524 . S
C116 C113 1.404 . S
C116 C117 1.392 . S
C116 C120 1.495 1_565 S
C117 C116 1.392 . S
C117 C118 1.386 . S
C117 C119 1.477 1_565 S
C118 H112 0.930 . S
C118 C114 1.400 . S
C118 C117 1.386 . S
C119 C117 1.477 1_545 S
C119 C121 1.381 1_545 S
C119 C125 1.383 . S
C120 C116 1.495 1_545 S
C120 H126 0.959 . S
C120 H127 0.961 . S
C120 H128 0.960 1_545 S
C121 C119 1.381 1_565 S
C121 C122 1.394 . S
C121 H129 0.930 . S
C122 C121 1.394 . S
C122 C123 1.383 1_565 S
C122 H130 0.929 . S
C123 C122 1.383 1_545 S
C123 C124 1.377 . S
C124 H108 0.930 . S
C124 C123 1.377 . S
C124 C125 1.379 . S
C125 H109 0.931 . S
C125 C119 1.383 . S
C125 C124 1.379 . S
H126 C120 0.959 . S
H127 C120 0.961 . S
H128 C120 0.960 1_565 S
H129 C121 0.930 . S
H130 C122 0.929 . S
H131 C139 0.929 . S
H132 C141 0.930 . S
H133 C143 0.930 . S
H134 C146 0.929 . S
H135 C149 0.930 . S
H136 C151 0.960 . S
H137 C151 0.960 . S
H138 C151 0.960 . S
C139 H131 0.929 . S
C139 C140 1.377 1_655 S
C139 C141 1.384 . S
C140 C139 1.377 1_455 S
C140 C146 1.390 . S
C141 H132 0.930 . S
C141 C139 1.384 . S
C141 C142 1.372 1_655 S
C142 C141 1.372 1_455 S
C142 C143 1.400 . S
C142 C147 1.489 1_455 S
C143 H133 0.930 . S
C143 C142 1.400 . S
C143 C146 1.386 . S
H144 C160 0.930 . S
H145 C161 0.931 . S
C146 H134 0.929 . S
C146 C140 1.390 . S
C146 C143 1.386 . S
C147 C142 1.489 1_655 S
C147 C149 1.405 . S
C147 C150 1.393 1_655 S
H148 C154 0.930 . S
C149 H135 0.930 . S
C149 C147 1.405 . S
C149 C152 1.403 . S
C150 C147 1.393 1_455 S
C150 C151 1.524 . S
C150 C154 1.400 . S
C151 H136 0.960 . S
C151 H137 0.960 . S
C151 H138 0.960 . S
C151 C150 1.524 . S
C152 C149 1.403 . S
C152 C153 1.392 . S
C152 C156 1.495 . S
C153 C152 1.392 . S
C153 C154 1.385 1_655 S
C153 C155 1.478 . S
C154 H148 0.930 . S
C154 C150 1.400 . S
C154 C153 1.385 1_455 S
C155 C153 1.478 . S
C155 C157 1.381 . S
C155 C161 1.383 1_655 S
C156 C152 1.495 . S
C156 H162 0.959 . S
C156 H163 0.961 . S
C156 H164 0.960 . S
C157 C155 1.381 . S
C157 C158 1.394 . S
C157 H165 0.930 . S
C158 C157 1.394 . S
C158 C159 1.383 . S
C158 H166 0.929 . S
C159 C158 1.383 . S
C159 C160 1.377 1_655 S
C160 H144 0.930 . S
C160 C159 1.377 1_455 S
C160 C161 1.379 . S
C161 H145 0.931 . S
C161 C155 1.383 1_455 S
C161 C160 1.379 . S
H162 C156 0.959 . S
H163 C156 0.961 . S
H164 C156 0.960 . S
H165 C157 0.930 . S
H166 C158 0.929 . S
H167 C175 0.929 . S
H168 C177 0.930 . S
H169 C179 0.930 . S
H170 C182 0.929 . S
H171 C185 0.930 . S
H172 C187 0.960 . S
H173 C187 0.960 . S
H174 C187 0.960 . S
C175 H167 0.929 . S
C175 C176 1.377 1_565 S
C175 C177 1.384 . S
C176 C175 1.377 1_545 S
C176 C182 1.390 . S
C177 H168 0.930 . S
C177 C175 1.384 . S
C177 C178 1.372 1_565 S
C178 C177 1.372 1_545 S
C178 C179 1.400 . S
C178 C183 1.490 . S
C179 H169 0.930 . S
C179 C178 1.400 . S
C179 C182 1.386 . S
H180 C196 0.930 . S
H181 C197 0.931 . S
C182 H170 0.929 . S
C182 C176 1.390 . S
C182 C179 1.386 . S
C183 C178 1.490 . S
C183 C185 1.395 1_545 S
C183 C186 1.403 . S
H184 C190 0.930 . S
C185 H171 0.930 . S
C185 C183 1.395 1_565 S
C185 C188 1.403 . S
C186 C183 1.403 . S
C186 C187 1.524 . S
C186 C190 1.400 . S
C187 H172 0.960 . S
C187 H173 0.960 . S
C187 H174 0.960 . S
C187 C186 1.524 . S
C188 C185 1.403 . S
C188 C189 1.408 . S
C188 C192 1.495 . S
C189 C188 1.408 . S
C189 C190 1.368 1_565 S
C189 C191 1.478 . S
C190 H184 0.930 . S
C190 C186 1.400 . S
C190 C189 1.368 1_545 S
C191 C189 1.478 . S
C191 C193 1.381 . S
C191 C197 1.383 1_565 S
C192 C188 1.495 . S
C192 H198 0.959 . S
C192 H199 0.961 . S
C192 H200 0.960 . S
C193 C191 1.381 . S
C193 C194 1.394 . S
C193 H201 0.930 . S
C194 C193 1.394 . S
C194 C195 1.373 1_565 S
C194 H202 0.929 . S
C195 C194 1.373 1_545 S
C195 C196 1.386 . S
C196 H180 0.930 . S
C196 C195 1.386 . S
C196 C197 1.379 . S
C197 H181 0.931 . S
C197 C191 1.383 1_545 S
C197 C196 1.379 . S
H198 C192 0.959 . S
H199 C192 0.961 . S
H200 C192 0.960 . S
H201 C193 0.930 . S
H202 C194 0.929 . S
H203 C211 0.929 . S
H204 C213 0.930 . S
H205 C215 0.930 . S
H206 C218 0.929 . S
H207 C221 0.930 . S
H208 C223 0.960 . S
H209 C223 0.960 . S
H210 C223 0.960 . S
C211 H203 0.929 . S
C211 C212 1.377 . S
C211 C213 1.384 . S
C212 C211 1.377 . S
C212 C218 1.390 1_655 S
C213 H204 0.930 . S
C213 C211 1.384 . S
C213 C214 1.372 . S
C214 C213 1.372 . S
C214 C215 1.400 1_655 S
C214 C219 1.490 . S
C215 H205 0.930 . S
C215 C214 1.400 1_455 S
C215 C218 1.386 . S
H216 C232 0.930 . S
H217 C233 0.931 . S
C218 H206 0.929 . S
C218 C212 1.390 1_455 S
C218 C215 1.386 . S
C219 C214 1.490 . S
C219 C221 1.395 1_655 S
C219 C222 1.403 . S
H220 C226 0.930 . S
C221 H207 0.930 . S
C221 C219 1.395 1_455 S
C221 C224 1.403 . S
C222 C219 1.403 . S
C222 C223 1.524 . S
C222 C226 1.400 . S
C223 H208 0.960 . S
C223 H209 0.960 . S
C223 H210 0.960 . S
C223 C222 1.524 . S
C224 C221 1.403 . S
C224 C225 1.401 . S
C224 C228 1.495 . S
C225 C224 1.401 . S
C225 C226 1.376 1_455 S
C225 C227 1.479 . S
C226 H220 0.930 . S
C226 C222 1.400 . S
C226 C225 1.376 1_655 S
C227 C225 1.479 . S
C227 C229 1.381 1_455 S
C227 C233 1.383 . S
C228 C224 1.495 . S
C228 H234 0.959 . S
C228 H235 0.961 . S
C228 H236 0.960 . S
C229 C227 1.381 1_655 S
C229 C230 1.394 . S
C229 H237 0.930 . S
C230 C229 1.394 . S
C230 C231 1.383 1_655 S
C230 H238 0.929 . S
C231 C230 1.383 1_455 S
C231 C232 1.377 . S
C232 H216 0.930 . S
C232 C231 1.377 . S
C232 C233 1.379 . S
C233 H217 0.931 . S
C233 C227 1.383 . S
C233 C232 1.379 . S
H234 C228 0.959 . S
H235 C228 0.961 . S
H236 C228 0.960 . S
H237 C229 0.930 . S
H238 C230 0.929 . S
H239 C247 0.929 . S
H240 C249 0.930 . S
H241 C251 0.930 . S
H242 C254 0.929 . S
H243 C257 0.930 . S
H244 C259 0.960 . S
H245 C259 0.960 . S
H246 C259 0.960 . S
C247 H239 0.929 . S
C247 C248 1.377 . S
C247 C249 1.384 . S
C248 C247 1.377 . S
C248 C254 1.390 1_565 S
C249 H240 0.930 . S
C249 C247 1.384 . S
C249 C250 1.372 . S
C250 C249 1.372 . S
C250 C251 1.400 1_565 S
C250 C255 1.490 . S
C251 H241 0.930 . S
C251 C250 1.400 1_545 S
C251 C254 1.386 . S
H252 C268 0.930 . S
H253 C269 0.931 . S
C254 H242 0.929 . S
C254 C248 1.390 1_545 S
C254 C251 1.386 . S
C255 C250 1.490 . S
C255 C257 1.395 1_565 S
C255 C258 1.403 . S
H256 C262 0.930 . S
C257 H243 0.930 . S
C257 C255 1.395 1_545 S
C257 C260 1.403 . S
C258 C255 1.403 . S
C258 C259 1.524 . S
C258 C262 1.400 . S
C259 H244 0.960 . S
C259 H245 0.960 . S
C259 H246 0.960 . S
C259 C258 1.524 . S
C260 C257 1.403 . S
C260 C261 1.392 . S
C260 C264 1.495 . S
C261 C260 1.392 . S
C261 C262 1.385 1_545 S
C261 C263 1.478 . S
C262 H256 0.930 . S
C262 C258 1.400 . S
C262 C261 1.385 1_565 S
C263 C261 1.478 . S
C263 C265 1.381 1_545 S
C263 C269 1.383 . S
C264 C260 1.495 . S
C264 H270 0.959 . S
C264 H271 0.961 . S
C264 H272 0.960 . S
C265 C263 1.381 1_565 S
C265 C266 1.394 . S
C265 H273 0.930 . S
C266 C265 1.394 . S
C266 C267 1.383 1_565 S
C266 H274 0.929 . S
C267 C266 1.383 1_545 S
C267 C268 1.377 . S
C268 H252 0.930 . S
C268 C267 1.377 . S
C268 C269 1.379 . S
C269 H253 0.931 . S
C269 C263 1.383 . S
C269 C268 1.379 . S
H270 C264 0.959 . S
H271 C264 0.961 . S
H272 C264 0.960 . S
H273 C265 0.930 . S
H274 C266 0.929 . S
H275 C283 0.929 . S
H276 C285 0.930 . S
H277 C287 0.930 . S
H278 C290 0.929 . S
H279 C293 0.930 . S
H280 C295 0.960 . S
H281 C295 0.960 . S
H282 C295 0.960 . S
C283 H275 0.929 . S
C283 C284 1.377 1_655 S
C283 C285 1.384 . S
C284 C283 1.377 1_455 S
C284 C290 1.390 . S
C285 H276 0.930 . S
C285 C283 1.384 . S
C285 C286 1.373 . S
C286 C285 1.373 . S
C286 C287 1.398 1_655 S
C286 C291 1.490 . S
C287 H277 0.930 . S
C287 C286 1.398 1_455 S
C287 C290 1.386 . S
H288 C304 0.930 . S
H289 C305 0.931 . S
C290 H278 0.929 . S
C290 C284 1.390 . S
C290 C287 1.386 . S
C291 C286 1.490 . S
C291 C293 1.395 . S
C291 C294 1.403 1_655 S
H292 C298 0.930 . S
C293 H279 0.930 . S
C293 C291 1.395 . S
C293 C296 1.403 . S
C294 C291 1.403 1_455 S
C294 C295 1.524 . S
C294 C298 1.400 . S
C295 H280 0.960 . S
C295 H281 0.960 . S
C295 H282 0.960 . S
C295 C294 1.524 . S
C296 C293 1.403 . S
C296 C297 1.392 . S
C296 C300 1.495 . S
C297 C296 1.392 . S
C297 C298 1.385 1_655 S
C297 C299 1.478 . S
C298 H292 0.930 . S
C298 C294 1.400 . S
C298 C297 1.385 1_455 S
C299 C297 1.478 . S
C299 C301 1.381 . S
C299 C305 1.383 1_655 S
C300 C296 1.495 . S
C300 H306 0.959 . S
C300 H307 0.961 . S
C300 H308 0.960 . S
C301 C299 1.381 . S
C301 C302 1.394 . S
C301 H309 0.930 . S
C302 C301 1.394 . S
C302 C303 1.383 . S
C302 H310 0.929 . S
C303 C302 1.383 . S
C303 C304 1.377 1_655 S
C304 H288 0.930 . S
C304 C303 1.377 1_455 S
C304 C305 1.379 . S
C305 H289 0.931 . S
C305 C299 1.383 1_455 S
C305 C304 1.379 . S
H306 C300 0.959 . S
H307 C300 0.961 . S
H308 C300 0.960 . S
H309 C301 0.930 . S
H310 C302 0.929 . S
H311 C319 0.929 . S
H312 C321 0.930 . S
H313 C323 0.930 . S
H314 C326 0.929 . S
H315 C329 0.930 1_565 S
H316 C331 0.960 . S
H317 C331 0.960 . S
H318 C331 0.960 . S
C319 H311 0.929 . S
C319 C320 1.377 . S
C319 C321 1.384 . S
C320 C319 1.377 . S
C320 C326 1.390 1_545 S
C321 H312 0.930 . S
C321 C319 1.384 . S
C321 C322 1.372 . S
C322 C321 1.372 . S
C322 C323 1.400 1_545 S
C322 C327 1.490 . S
C323 H313 0.930 . S
C323 C322 1.400 1_565 S
C323 C326 1.386 . S
H324 C340 0.930 . S
H325 C341 0.931 . S
C326 H314 0.929 . S
C326 C320 1.390 1_565 S
C326 C323 1.386 . S
C327 C322 1.490 . S
C327 C329 1.395 . S
C327 C330 1.403 . S
H328 C334 0.930 . S
C329 H315 0.930 1_545 S
C329 C327 1.395 . S
C329 C332 1.402 1_545 S
C330 C327 1.403 . S
C330 C331 1.524 . S
C330 C334 1.400 . S
C331 H316 0.960 . S
C331 H317 0.960 . S
C331 H318 0.960 . S
C331 C330 1.524 . S
C332 C329 1.402 1_565 S
C332 C333 1.388 1_565 S
C332 C336 1.501 . S
C333 C332 1.388 1_545 S
C333 C334 1.385 . S
C333 C335 1.478 . S
C334 H328 0.930 . S
C334 C330 1.400 . S
C334 C333 1.385 . S
C335 C333 1.478 . S
C335 C337 1.381 . S
C335 C341 1.383 1_545 S
C336 C332 1.501 . S
C336 H342 0.959 . S
C336 H343 0.961 . S
C336 H344 0.960 1_565 S
C337 C335 1.381 . S
C337 C338 1.394 . S
C337 H345 0.930 . S
C338 C337 1.394 . S
C338 C339 1.383 . S
C338 H346 0.929 . S
C339 C338 1.383 . S
C339 C340 1.377 1_545 S
C340 H324 0.930 . S
C340 C339 1.377 1_565 S
C340 C341 1.379 . S
C341 H325 0.931 . S
C341 C335 1.383 1_565 S
C341 C340 1.379 . S
H342 C336 0.959 . S
H343 C336 0.961 . S
H344 C336 0.960 1_545 S
H345 C337 0.930 . S
H346 C338 0.929 . S
C68 C30 1.274 . S
C87 C32 1.302 1_455 S
C104 C1 1.540 . S
C123 C58 1.565 . S
C140 C0 1.273 1_455 S
C159 C44 1.314 1_655 S
C176 C29 1.583 . S
C195 C46 1.606 . S
C212 C19 1.271 1_655 S
C231 C31 1.321 . S
C248 C20 1.542 . S
C267 C57 1.567 . S
C303 C43 1.301 . S
C284 C10 1.278 . S
C320 C2 1.580 . S
C339 C45 1.610 . S
