# Generated by pormake.
# Topology pyr, (3,6)-cn, num edge types: 1
# Building blocks:
#     Node 0, Type 0, BuildingBlock: OLANEW_clean_sbu_2, # of connection points: 3
#     Node 1, Type 0, BuildingBlock: OLANEW_clean_sbu_2, # of connection points: 3
#     Node 2, Type 0, BuildingBlock: OLANEW_clean_sbu_2, # of connection points: 3
#     Node 3, Type 0, BuildingBlock: OLANEW_clean_sbu_2, # of connection points: 3
#     Node 4, Type 0, BuildingBlock: OLANEW_clean_sbu_2, # of connection points: 3
#     Node 5, Type 0, BuildingBlock: OLANEW_clean_sbu_2, # of connection points: 3
#     Node 6, Type 0, BuildingBlock: OLANEW_clean_sbu_2, # of connection points: 3
#     Node 7, Type 0, BuildingBlock: OLANEW_clean_sbu_2, # of connection points: 3
#     Node 8, Type 1, BuildingBlock: INOVEN_clean_sbu_0, # of connection points: 6
#     Node 9, Type 1, BuildingBlock: INOVEN_clean_sbu_0, # of connection points: 6
#     Node 10, Type 1, BuildingBlock: INOVEN_clean_sbu_0, # of connection points: 6
#     Node 11, Type 1, BuildingBlock: INOVEN_clean_sbu_0, # of connection points: 6
#     Edge 12, Type (0, 1), None
#     Edge 13, Type (0, 1), None
#     Edge 14, Type (0, 1), None
#     Edge 15, Type (0, 1), None
#     Edge 16, Type (0, 1), None
#     Edge 17, Type (0, 1), None
#     Edge 18, Type (0, 1), None
#     Edge 19, Type (0, 1), None
#     Edge 20, Type (0, 1), None
#     Edge 21, Type (0, 1), None
#     Edge 22, Type (0, 1), None
#     Edge 23, Type (0, 1), None
#     Edge 24, Type (0, 1), None
#     Edge 25, Type (0, 1), None
#     Edge 26, Type (0, 1), None
#     Edge 27, Type (0, 1), None
#     Edge 28, Type (0, 1), None
#     Edge 29, Type (0, 1), None
#     Edge 30, Type (0, 1), None
#     Edge 31, Type (0, 1), None
#     Edge 32, Type (0, 1), None
#     Edge 33, Type (0, 1), None
#     Edge 34, Type (0, 1), None
#     Edge 35, Type (0, 1), None
# Relax obj value: 0.340
# Max RMSD: 0.199
# Mean RMSD: 0.133
data_MOF--net-pyr--node1-OLANEW_clean_sbu_2--node2-INOVEN_clean_sbu_0--edge1-none
_symmetry_space_group_name_H-M    P1
_symmetry_Int_Tables_number       1
_symmetry_cell_setting            triclinic
loop_
_symmetry_equiv_pos_as_xyz
'x, y, z'
_cell_length_a     19.861281
_cell_length_b     23.526331
_cell_length_c     20.737962
_cell_angle_alpha  98.369532
_cell_angle_beta   87.21445
_cell_angle_gamma 106.39032
loop_
_atom_site_label
_atom_site_type_symbol
_atom_site_fract_x
_atom_site_fract_y
_atom_site_fract_z
_atom_type_partial_charge
O0 O 0.48804 0.26965 0.20106 0.0
Cd1 Cd 0.464 0.36717 0.23924 0.0
O2 O 0.38204 0.23047 0.23435 0.0
Cd3 Cd 0.30531 0.15667 0.26518 0.0
O4 O 0.31005 0.21228 0.35732 0.0
C5 C 0.36394 0.24272 0.39044 0.0
O6 O 0.42685 0.24052 0.36964 0.0
C7 C 0.44048 0.22392 0.21383 0.0
C8 C 0.35116 0.4071 0.20479 0.0
O9 O 0.40816 0.41446 0.1711 0.0
O10 O 0.34517 0.3775 0.25305 0.0
O11 O 0.21155 0.9011 0.74334 0.0
Cd12 Cd 0.17289 0.86588 0.63537 0.0
O13 O 0.10821 0.88674 0.79214 0.0
Cd14 Cd 0.99611 0.85918 0.7752 0.0
O15 O 0.03744 0.91576 0.70202 0.0
C16 C 0.07326 0.96843 0.72295 0.0
O17 O 0.07386 0.98825 0.78552 0.0
C18 C 0.17447 0.9013 0.79435 0.0
C19 C 0.27808 0.8146 0.60556 0.0
O20 O 0.28845 0.87045 0.60302 0.0
O21 O 0.21559 0.78201 0.61464 0.0
O22 O 0.78633 0.47313 0.92634 0.0
Cd23 Cd 0.69963 0.49292 0.83753 0.0
O24 O 0.78974 0.40351 0.99016 0.0
Cd25 Cd 0.6939 0.3191 0.98752 0.0
O26 O 0.60233 0.23482 1.0021 0.0
C27 C 0.60324 0.19628 0.03979 0.0
O28 O 0.66094 0.20349 0.072 0.0
C29 C 0.81811 0.45409 0.96909 0.0
C30 C 0.63435 0.53635 0.7354 0.0
O31 O 0.63696 0.56031 0.7952 0.0
O32 O 0.66314 0.4934 0.72221 0.0
O33 O 0.99395 0.86158 0.42926 0.0
Cd34 Cd 0.97939 0.76488 0.32767 0.0
O35 O 0.92811 0.83483 0.51635 0.0
Cd36 Cd 0.87232 0.74299 0.48898 0.0
O37 O 0.76248 0.69455 0.4958 0.0
C38 C 0.73651 0.67934 0.54984 0.0
O39 O 0.77715 0.68924 0.60075 0.0
C40 C 0.97112 0.87469 0.48826 0.0
C41 C 0.99052 0.66703 0.21743 0.0
O42 O 0.99186 0.71941 0.20519 0.0
O43 O 0.98627 0.66103 0.27834 0.0
O44 O 0.59097 0.76051 0.77848 0.0
Cd45 Cd 0.55922 0.69146 0.85382 0.0
O46 O 0.60249 0.81466 0.87298 0.0
Cd47 Cd 0.66179 0.89353 0.92982 0.0
O48 O 0.63982 0.96059 0.99795 0.0
C49 C 0.58075 0.96692 0.98615 0.0
O50 O 0.54591 0.93738 0.93377 0.0
C51 C 0.61489 0.81028 0.81256 0.0
C52 C 0.69226 0.69805 0.89502 0.0
O53 O 0.6694 0.67278 0.83864 0.0
O54 O 0.65164 0.72046 0.93422 0.0
O55 O 0.87174 0.22614 0.45345 0.0
Cd56 Cd 0.9886 0.24539 0.48668 0.0
O57 O 0.91185 0.3003 0.39784 0.0
Cd58 Cd 0.94543 0.34569 0.4939 0.0
O59 O 0.84682 0.36031 0.53712 0.0
C60 C 0.80149 0.35943 0.49531 0.0
O61 O 0.81975 0.35886 0.43381 0.0
C62 C 0.86401 0.25397 0.40833 0.0
C63 C 0.96252 0.14587 0.54122 0.0
O64 O 0.98836 0.14512 0.48343 0.0
O65 O 0.9561 0.19472 0.57369 0.0
O66 O 0.46757 0.88647 0.26538 0.0
Cd67 Cd 0.47547 0.78357 0.32807 0.0
O68 O 0.38146 0.88398 0.19745 0.0
Cd69 Cd 0.31959 0.79093 0.19893 0.0
O70 O 0.24224 0.70619 0.16251 0.0
C71 C 0.21122 0.70949 0.1116 0.0
O72 O 0.22637 0.76101 0.08897 0.0
C73 C 0.43803 0.91297 0.22704 0.0
C74 C 0.49435 0.69207 0.41707 0.0
O75 O 0.52781 0.69807 0.36262 0.0
O76 O 0.45539 0.72779 0.43077 0.0
O77 O 0.16429 0.51835 0.83756 0.0
Cd78 Cd 0.23518 0.48624 0.73476 0.0
O79 O 0.08877 0.43909 0.87431 0.0
Cd80 Cd 0.10164 0.35566 0.80583 0.0
O81 O 0.09652 0.26778 0.73664 0.0
C82 C 0.06058 0.21643 0.75029 0.0
O83 O 0.02621 0.21388 0.80601 0.0
C84 C 0.11644 0.49612 0.87872 0.0
C85 C 0.36015 0.51441 0.65131 0.0
O86 O 0.31764 0.54716 0.65712 0.0
O87 O 0.34732 0.47244 0.6872 0.0
Gd88 Gd 0.08501 0.06828 0.57909 0.0
Gd89 Gd 0.95503 1.02617 0.65927 0.0
C90 C 0.05102 0.15937 0.70441 0.0
C91 C 0.19074 0.12249 0.51539 0.0
C92 C 0.24604 0.17895 0.51957 0.0
C93 C 0.31588 0.17792 0.52525 0.0
C94 C 0.2326 0.22968 0.50096 0.0
C95 C 0.35087 0.25748 0.45995 0.0
C96 C 0.28692 0.27134 0.47406 0.0
C97 C 0.36959 0.21994 0.49807 0.0
C98 C 0.09625 1.01077 0.67813 0.0
C99 C 0.99012 0.9362 0.52888 0.0
C100 C 0.85634 0.98515 0.73878 0.0
C101 C 0.79347 0.93853 0.7521 0.0
C102 C 0.72883 0.95235 0.76055 0.0
C103 C 0.79801 0.88231 0.76247 0.0
C104 C 0.674 0.85376 0.78815 0.0
C105 C 0.7384 0.84009 0.78022 0.0
C106 C 0.66915 0.91006 0.77893 0.0
C107 C 0.94213 0.09294 0.57169 0.0
O108 O 0.0843 0.15556 0.6473 0.0
O109 O 1.0072 0.1112 0.72366 0.0
O110 O 0.19499 0.08586 0.55573 0.0
O111 O 0.12649 0.12347 0.50475 0.0
O112 O 0.12029 0.99792 0.62033 0.0
O113 O 0.06629 0.05052 0.67884 0.0
O114 O 0.955 0.94259 0.58526 0.0
O115 O 0.04009 0.98179 0.51092 0.0
O116 O 0.85021 1.01863 0.6956 0.0
O117 O 0.91735 0.97345 0.73696 0.0
O118 O 0.91155 0.09424 0.62797 0.0
O119 O 0.97343 0.05292 0.56219 0.0
H120 H 0.32798 0.14039 0.54195 0.0
H121 H 0.17949 0.23306 0.49867 0.0
H122 H 0.27323 0.30374 0.44889 0.0
H123 H 0.42087 0.21201 0.49236 0.0
H124 H 0.72487 0.99624 0.75436 0.0
H125 H 0.8475 0.87114 0.75791 0.0
H126 H 0.74287 0.7971 0.78935 0.0
H127 H 0.61984 0.92135 0.78669 0.0
Gd128 Gd 0.55667 0.08051 0.17621 0.0
Gd129 Gd 0.42716 0.05489 0.088 0.0
C130 C 0.451 0.16403 0.20032 0.0
C131 C 0.67929 0.13062 0.21861 0.0
C132 C 0.70478 0.17122 0.27662 0.0
C133 C 0.7007 0.14993 0.33661 0.0
C134 C 0.74467 0.22939 0.26962 0.0
C135 C 0.79993 0.23308 0.37072 0.0
C136 C 0.79287 0.26051 0.31698 0.0
C137 C 0.7488 0.18111 0.38404 0.0
C138 C 0.47059 0.97793 0.21321 0.0
C139 C 0.54868 1.00103 0.03425 0.0
C140 C 0.30583 1.01496 0.03444 0.0
C141 C 0.27562 0.98608 0.97095 0.0
C142 C 0.26946 1.02046 0.92258 0.0
C143 C 0.24824 0.92361 0.96002 0.0
C144 C 0.2084 0.93024 0.85469 0.0
C145 C 0.21444 0.89582 0.90212 0.0
C146 C 0.23609 0.99244 0.86439 0.0
C147 C 0.5398 0.14519 0.05047 0.0
O148 O 0.5117 0.15669 0.21479 0.0
O149 O 0.4031 0.12214 0.16569 0.0
O150 O 0.64667 0.07527 0.22574 0.0
O151 O 0.64999 0.15279 0.17761 0.0
O152 O 0.52643 1.01119 0.2433 0.0
O153 O 0.45489 1.00565 0.16804 0.0
O154 O 0.48316 0.99959 0.02557 0.0
O155 O 0.58671 0.03028 0.08534 0.0
O156 O 0.34316 0.07077 0.03791 0.0
O157 O 0.33245 0.98311 0.06742 0.0
O158 O 0.48062 0.12704 0.01963 0.0
O159 O 0.53127 0.11237 0.0941 0.0
H160 H 0.66672 0.1064 0.34413 0.0
H161 H 0.74521 0.24757 0.22442 0.0
H162 H 0.82945 0.30243 0.30785 0.0
H163 H 0.75067 0.16112 0.42756 0.0
H164 H 0.28945 0.06877 0.92993 0.0
H165 H 0.2518 0.89622 0.9967 0.0
H166 H 0.19321 0.84759 0.89427 0.0
H167 H 0.23124 1.01914 0.82733 0.0
Gd168 Gd 0.54563 0.54482 0.53475 0.0
Gd169 Gd 0.53195 0.6429 0.61484 0.0
C170 C 0.59956 0.55659 0.68297 0.0
C171 C 0.58762 0.46162 0.4674 0.0
C172 C 0.63321 0.42957 0.4914 0.0
C173 C 0.62261 0.36859 0.47021 0.0
C174 C 0.69107 0.46075 0.53165 0.0
C175 C 0.73643 0.37491 0.51361 0.0
C176 C 0.74192 0.43315 0.54344 0.0
C177 C 0.67461 0.34146 0.48042 0.0
C178 C 0.42185 0.52298 0.60489 0.0
C179 C 0.50481 0.65228 0.4676 0.0
C180 C 0.48325 0.71704 0.68658 0.0
C181 C 0.43252 0.74207 0.66179 0.0
C182 C 0.4442 0.80388 0.6711 0.0
C183 C 0.37693 0.70523 0.62218 0.0
C184 C 0.33732 0.79122 0.61251 0.0
C185 C 0.32897 0.72974 0.59828 0.0
C186 C 0.39682 0.82853 0.64641 0.0
C187 C 0.66059 0.66127 0.55815 0.0
O188 O 0.60339 0.53232 0.62193 0.0
O189 O 0.5692 0.60053 0.69506 0.0
O190 O 0.52405 0.45156 0.49159 0.0
O191 O 0.61732 0.51812 0.46306 0.0
O192 O 0.46281 0.48859 0.59684 0.0
O193 O 0.44715 0.56662 0.57351 0.0
O194 O 0.48886 0.66839 0.52814 0.0
O195 O 0.53156 0.60518 0.45597 0.0
O196 O 0.54553 0.73318 0.6598 0.0
O197 O 0.46096 0.65998 0.69245 0.0
O198 O 0.62375 0.69897 0.56268 0.0
O199 O 0.62852 0.61666 0.58448 0.0
H200 H 0.57751 0.3435 0.44073 0.0
H201 H 0.70049 0.50789 0.5493 0.0
H202 H 0.78967 0.45984 0.56826 0.0
H203 H 0.6699 0.29637 0.45657 0.0
H204 H 0.48883 0.83278 0.69889 0.0
H205 H 0.36936 0.65743 0.61113 0.0
H206 H 0.28372 0.7005 0.57162 0.0
H207 H 0.40409 0.87626 0.65803 0.0
Gd208 Gd 0.03715 0.52735 0.08304 0.0
Gd209 Gd 0.01663 0.61523 0.99634 0.0
C210 C 0.15302 0.66 0.08219 0.0
C211 C 0.11078 0.4595 0.11006 0.0
C212 C 0.17645 0.4599 0.14211 0.0
C213 C 0.17517 0.44248 0.20423 0.0
C214 C 0.23927 0.4676 0.10538 0.0
C215 C 0.2934 0.43043 0.18676 0.0
C216 C 0.2969 0.45324 0.12749 0.0
C217 C 0.23316 0.42785 0.22639 0.0
C218 C 0.99745 0.61484 0.166 0.0
C219 C 0.88944 0.49275 0.99633 0.0
C220 C 0.96769 0.6953 0.96225 0.0
C221 C 0.89684 0.69591 0.94646 0.0
C222 C 0.88259 0.70094 0.88249 0.0
C223 C 0.84327 0.69184 0.99411 0.0
C224 C 0.76293 0.6994 0.91375 0.0
C225 C 0.77694 0.69442 0.97792 0.0
C226 C 0.81603 0.70226 0.86612 0.0
C227 C 0.08228 0.53847 0.92207 0.0
O228 O 0.13271 0.60867 0.10661 0.0
O229 O 0.11892 0.67166 0.0354 0.0
O230 O 0.05513 0.46513 0.14476 0.0
O231 O 0.11965 0.4863 0.05807 0.0
O232 O 1.00466 0.56566 0.18271 0.0
O233 O 1.00493 0.61147 0.10361 0.0
O234 O 0.91128 0.54702 0.98003 0.0
O235 O 0.92876 0.4736 0.03506 0.0
O236 O 0.99669 0.66166 0.92053 0.0
O237 O 0.97855 0.69207 0.02316 0.0
O238 O 0.0706 0.58475 0.9027 0.0
O239 O 0.06216 0.53929 0.98141 0.0
H240 H 0.12799 0.43659 0.23396 0.0
H241 H 0.24277 0.48117 0.05733 0.0
H242 H 0.34283 0.45699 0.09625 0.0
H243 H 0.22952 0.41194 0.27322 0.0
H244 H 0.92302 0.70392 0.84509 0.0
H245 H 0.85248 0.68706 0.04384 0.0
H246 H 0.73624 0.69115 1.01505 0.0
H247 H 0.80618 0.70599 0.81619 0.0
loop_
_geom_bond_atom_site_label_1
_geom_bond_atom_site_label_2
_geom_bond_distance
_geom_bond_site_symmetry_2
_ccdc_geom_bond_type
O0 Cd1 2.300 . S
O0 C7 1.275 . S
Cd1 O0 2.300 . S
Cd1 O9 2.381 . S
Cd1 O10 2.378 . S
O2 Cd3 2.385 . S
O2 C7 1.255 . S
Cd3 O2 2.385 . S
Cd3 O4 2.317 . S
O4 Cd3 2.317 . S
O4 C5 1.232 . S
C5 O4 1.232 . S
C5 O6 1.218 . S
O6 C5 1.218 . S
C7 O0 1.275 . S
C7 O2 1.255 . S
C8 O9 1.258 . S
C8 O10 1.256 . S
O9 Cd1 2.381 . S
O9 C8 1.258 . S
O10 Cd1 2.378 . S
O10 C8 1.256 . S
O11 Cd12 2.300 . S
O11 C18 1.275 . S
Cd12 O11 2.300 . S
Cd12 O20 2.381 . S
Cd12 O21 2.378 . S
O13 Cd14 2.385 1_455 S
O13 C18 1.255 . S
Cd14 O13 2.385 1_655 S
Cd14 O15 2.317 1_655 S
O15 Cd14 2.317 1_455 S
O15 C16 1.232 1_455 S
C16 O15 1.232 1_655 S
C16 O17 1.218 . S
O17 C16 1.218 . S
C18 O11 1.275 . S
C18 O13 1.255 . S
C19 O20 1.258 . S
C19 O21 1.256 . S
O20 Cd12 2.381 . S
O20 C19 1.258 . S
O21 Cd12 2.378 . S
O21 C19 1.256 . S
O22 Cd23 2.300 . S
O22 C29 1.275 . S
Cd23 O22 2.300 . S
Cd23 O31 2.381 . S
Cd23 O32 2.378 . S
O24 Cd25 2.385 . S
O24 C29 1.255 . S
Cd25 O24 2.385 . S
Cd25 O26 2.317 . S
O26 Cd25 2.317 . S
O26 C27 1.232 . S
C27 O26 1.232 . S
C27 O28 1.218 . S
O28 C27 1.218 . S
C29 O22 1.275 . S
C29 O24 1.255 . S
C30 O31 1.258 . S
C30 O32 1.256 . S
O31 Cd23 2.381 . S
O31 C30 1.258 . S
O32 Cd23 2.378 . S
O32 C30 1.256 . S
O33 Cd34 2.300 . S
O33 C40 1.275 . S
Cd34 O33 2.300 . S
Cd34 O42 2.381 . S
Cd34 O43 2.378 . S
O35 Cd36 2.385 . S
O35 C40 1.255 . S
Cd36 O35 2.385 . S
Cd36 O37 2.317 . S
O37 Cd36 2.317 . S
O37 C38 1.232 . S
C38 O37 1.232 . S
C38 O39 1.218 . S
O39 C38 1.218 . S
C40 O33 1.275 . S
C40 O35 1.255 . S
C41 O42 1.258 . S
C41 O43 1.256 . S
O42 Cd34 2.381 . S
O42 C41 1.258 . S
O43 Cd34 2.378 . S
O43 C41 1.256 . S
O44 Cd45 2.300 . S
O44 C51 1.275 . S
Cd45 O44 2.300 . S
Cd45 O53 2.381 . S
Cd45 O54 2.378 . S
O46 Cd47 2.385 . S
O46 C51 1.255 . S
Cd47 O46 2.385 . S
Cd47 O48 2.317 . S
O48 Cd47 2.317 . S
O48 C49 1.232 . S
C49 O48 1.232 . S
C49 O50 1.218 . S
O50 C49 1.218 . S
C51 O44 1.275 . S
C51 O46 1.255 . S
C52 O53 1.258 . S
C52 O54 1.256 . S
O53 Cd45 2.381 . S
O53 C52 1.258 . S
O54 Cd45 2.378 . S
O54 C52 1.256 . S
O55 Cd56 2.300 . S
O55 C62 1.275 . S
Cd56 O55 2.300 . S
Cd56 O64 2.381 . S
Cd56 O65 2.378 1_655 S
O57 Cd58 2.385 . S
O57 C62 1.255 . S
Cd58 O57 2.385 . S
Cd58 O59 2.317 . S
O59 Cd58 2.317 . S
O59 C60 1.232 . S
C60 O59 1.232 . S
C60 O61 1.218 . S
O61 C60 1.218 . S
C62 O55 1.275 . S
C62 O57 1.255 . S
C63 O64 1.258 1_455 S
C63 O65 1.256 . S
O64 Cd56 2.381 . S
O64 C63 1.258 1_655 S
O65 Cd56 2.378 1_455 S
O65 C63 1.256 . S
O66 Cd67 2.300 . S
O66 C73 1.275 . S
Cd67 O66 2.300 . S
Cd67 O75 2.381 . S
Cd67 O76 2.378 . S
O68 Cd69 2.385 . S
O68 C73 1.255 . S
Cd69 O68 2.385 . S
Cd69 O70 2.317 . S
O70 Cd69 2.317 . S
O70 C71 1.232 . S
C71 O70 1.232 . S
C71 O72 1.218 . S
O72 C71 1.218 . S
C73 O66 1.275 . S
C73 O68 1.255 . S
C74 O75 1.258 . S
C74 O76 1.256 . S
O75 Cd67 2.381 . S
O75 C74 1.258 . S
O76 Cd67 2.378 . S
O76 C74 1.256 . S
O77 Cd78 2.300 . S
O77 C84 1.275 . S
Cd78 O77 2.300 . S
Cd78 O86 2.381 . S
Cd78 O87 2.378 . S
O79 Cd80 2.385 . S
O79 C84 1.255 . S
Cd80 O79 2.385 . S
Cd80 O81 2.317 . S
O81 Cd80 2.317 . S
O81 C82 1.232 . S
C82 O81 1.232 . S
C82 O83 1.218 . S
O83 C82 1.218 . S
C84 O77 1.275 . S
C84 O79 1.255 . S
C85 O86 1.258 . S
C85 O87 1.256 . S
O86 Cd78 2.381 . S
O86 C85 1.258 . S
O87 Cd78 2.378 . S
O87 C85 1.256 . S
Gd88 C91 2.818 . S
Gd88 O108 2.377 . S
Gd88 O110 2.448 . S
Gd88 O111 2.506 . S
Gd88 O112 2.435 1_545 S
Gd88 O113 2.717 1_545 S
Gd88 O115 2.395 1_445 S
Gd88 O119 2.327 1_455 S
Gd89 C100 2.818 1_545 S
Gd89 O109 2.395 1_655 S
Gd89 O113 2.327 1_645 S
Gd89 O114 2.377 1_545 S
Gd89 O116 2.448 1_545 S
Gd89 O117 2.506 1_545 S
Gd89 O118 2.435 . S
Gd89 O119 2.717 . S
C90 O108 1.240 . S
C90 O109 1.240 . S
C91 Gd88 2.818 . S
C91 C92 1.510 . S
C91 O110 1.249 . S
C91 O111 1.252 . S
C92 C91 1.510 . S
C92 C93 1.404 . S
C92 C94 1.352 . S
C93 C92 1.404 . S
C93 C97 1.389 . S
C93 H120 0.930 . S
C94 C92 1.352 . S
C94 C96 1.374 . S
C94 H121 0.931 . S
C95 C96 1.359 . S
C95 C97 1.364 . S
C96 C94 1.374 . S
C96 C95 1.359 . S
C96 H122 0.931 . S
C97 C93 1.389 . S
C97 C95 1.364 . S
C97 H123 0.931 . S
C98 O112 1.256 . S
C98 O113 1.257 . S
C99 O114 1.240 . S
C99 O115 1.240 . S
C100 Gd89 2.818 1_565 S
C100 C101 1.510 . S
C100 O116 1.249 . S
C100 O117 1.252 . S
C101 C100 1.510 . S
C101 C102 1.404 . S
C101 C103 1.352 . S
C102 C101 1.404 . S
C102 C106 1.389 . S
C102 H124 0.930 . S
C103 C101 1.352 . S
C103 C105 1.374 . S
C103 H125 0.931 . S
C104 C105 1.359 . S
C104 C106 1.364 . S
C105 C103 1.374 . S
C105 C104 1.359 . S
C105 H126 0.931 . S
C106 C102 1.389 . S
C106 C104 1.364 . S
C106 H127 0.931 . S
C107 O118 1.256 . S
C107 O119 1.257 . S
O108 Gd88 2.377 . S
O108 C90 1.240 . S
O109 Gd89 2.395 1_455 S
O109 C90 1.240 . S
O110 Gd88 2.448 . S
O110 C91 1.249 . S
O111 Gd88 2.506 . S
O111 C91 1.252 . S
O112 Gd88 2.435 1_565 S
O112 C98 1.256 . S
O113 Gd88 2.717 1_565 S
O113 Gd89 2.327 1_465 S
O113 C98 1.257 . S
O114 Gd89 2.377 1_565 S
O114 C99 1.240 . S
O115 Gd88 2.395 1_665 S
O115 C99 1.240 . S
O116 Gd89 2.448 1_565 S
O116 C100 1.249 . S
O117 Gd89 2.506 1_565 S
O117 C100 1.252 . S
O118 Gd89 2.435 . S
O118 C107 1.256 . S
O119 Gd88 2.327 1_655 S
O119 Gd89 2.717 . S
O119 C107 1.257 . S
H120 C93 0.930 . S
H121 C94 0.931 . S
H122 C96 0.931 . S
H123 C97 0.931 . S
H124 C102 0.930 . S
H125 C103 0.931 . S
H126 C105 0.931 . S
H127 C106 0.931 . S
Gd128 C131 2.818 . S
Gd128 O148 2.377 . S
Gd128 O150 2.448 . S
Gd128 O151 2.506 . S
Gd128 O152 2.435 1_545 S
Gd128 O153 2.717 . S
Gd128 O155 2.395 1_545 S
Gd128 O159 2.327 . S
Gd129 C140 2.818 1_544 S
Gd129 O149 2.395 . S
Gd129 O153 2.327 . S
Gd129 O154 2.377 1_554 S
Gd129 O156 2.448 1_554 S
Gd129 O157 2.505 1_545 S
Gd129 O158 2.435 1_554 S
Gd129 O159 2.717 . S
C130 O148 1.240 . S
C130 O149 1.240 . S
C131 Gd128 2.818 . S
C131 C132 1.510 . S
C131 O150 1.249 . S
C131 O151 1.252 . S
C132 C131 1.510 . S
C132 C133 1.404 . S
C132 C134 1.352 . S
C133 C132 1.404 . S
C133 C137 1.389 . S
C133 H160 0.930 . S
C134 C132 1.352 . S
C134 C136 1.374 . S
C134 H161 0.931 . S
C135 C136 1.359 . S
C135 C137 1.364 . S
C136 C134 1.374 . S
C136 C135 1.359 . S
C136 H162 0.931 . S
C137 C133 1.389 . S
C137 C135 1.364 . S
C137 H163 0.931 . S
C138 O152 1.256 . S
C138 O153 1.257 1_565 S
C139 O154 1.240 1_565 S
C139 O155 1.240 1_556 S
C140 Gd129 2.818 1_566 S
C140 C141 1.510 . S
C140 O156 1.249 1_565 S
C140 O157 1.253 1_556 S
C141 C140 1.510 . S
C141 C142 1.404 . S
C141 C143 1.352 . S
C142 C141 1.404 . S
C142 C146 1.389 . S
C142 H164 0.930 1_565 S
C143 C141 1.352 . S
C143 C145 1.374 . S
C143 H165 0.931 . S
C144 C145 1.359 . S
C144 C146 1.364 . S
C145 C143 1.374 . S
C145 C144 1.359 . S
C145 H166 0.931 . S
C146 C142 1.389 . S
C146 C144 1.364 . S
C146 H167 0.931 . S
C147 O158 1.256 1_554 S
C147 O159 1.257 . S
O148 Gd128 2.377 . S
O148 C130 1.240 . S
O149 Gd129 2.395 . S
O149 C130 1.240 . S
O150 Gd128 2.448 . S
O150 C131 1.249 . S
O151 Gd128 2.506 . S
O151 C131 1.252 . S
O152 Gd128 2.435 1_565 S
O152 C138 1.256 . S
O153 Gd128 2.717 . S
O153 Gd129 2.327 . S
O153 C138 1.257 1_545 S
O154 Gd129 2.377 1_556 S
O154 C139 1.240 1_545 S
O155 Gd128 2.395 1_565 S
O155 C139 1.240 1_554 S
O156 Gd129 2.448 1_556 S
O156 C140 1.249 1_545 S
O157 Gd129 2.505 1_565 S
O157 C140 1.253 1_554 S
O158 Gd129 2.435 1_556 S
O158 C147 1.256 1_556 S
O159 Gd128 2.327 . S
O159 Gd129 2.717 . S
O159 C147 1.257 . S
H160 C133 0.930 . S
H161 C134 0.931 . S
H162 C136 0.931 . S
H163 C137 0.931 . S
H164 C142 0.930 1_545 S
H165 C143 0.931 . S
H166 C145 0.931 . S
H167 C146 0.931 . S
Gd168 C171 2.818 . S
Gd168 O188 2.377 . S
Gd168 O190 2.448 . S
Gd168 O191 2.506 . S
Gd168 O192 2.435 . S
Gd168 O193 2.717 . S
Gd168 O195 2.395 . S
Gd168 O199 2.327 . S
Gd169 C180 2.818 . S
Gd169 O189 2.395 . S
Gd169 O193 2.327 . S
Gd169 O194 2.377 . S
Gd169 O196 2.448 . S
Gd169 O197 2.506 . S
Gd169 O198 2.435 . S
Gd169 O199 2.717 . S
C170 O188 1.240 . S
C170 O189 1.240 . S
C171 Gd168 2.818 . S
C171 C172 1.510 . S
C171 O190 1.249 . S
C171 O191 1.252 . S
C172 C171 1.510 . S
C172 C173 1.404 . S
C172 C174 1.352 . S
C173 C172 1.404 . S
C173 C177 1.389 . S
C173 H200 0.930 . S
C174 C172 1.352 . S
C174 C176 1.374 . S
C174 H201 0.931 . S
C175 C176 1.359 . S
C175 C177 1.364 . S
C176 C174 1.374 . S
C176 C175 1.359 . S
C176 H202 0.931 . S
C177 C173 1.389 . S
C177 C175 1.364 . S
C177 H203 0.931 . S
C178 O192 1.256 . S
C178 O193 1.257 . S
C179 O194 1.240 . S
C179 O195 1.240 . S
C180 Gd169 2.818 . S
C180 C181 1.510 . S
C180 O196 1.249 . S
C180 O197 1.252 . S
C181 C180 1.510 . S
C181 C182 1.404 . S
C181 C183 1.352 . S
C182 C181 1.404 . S
C182 C186 1.389 . S
C182 H204 0.930 . S
C183 C181 1.352 . S
C183 C185 1.374 . S
C183 H205 0.931 . S
C184 C185 1.359 . S
C184 C186 1.364 . S
C185 C183 1.374 . S
C185 C184 1.359 . S
C185 H206 0.931 . S
C186 C182 1.389 . S
C186 C184 1.364 . S
C186 H207 0.931 . S
C187 O198 1.256 . S
C187 O199 1.257 . S
O188 Gd168 2.377 . S
O188 C170 1.240 . S
O189 Gd169 2.395 . S
O189 C170 1.240 . S
O190 Gd168 2.448 . S
O190 C171 1.249 . S
O191 Gd168 2.506 . S
O191 C171 1.252 . S
O192 Gd168 2.435 . S
O192 C178 1.256 . S
O193 Gd168 2.717 . S
O193 Gd169 2.327 . S
O193 C178 1.257 . S
O194 Gd169 2.377 . S
O194 C179 1.240 . S
O195 Gd168 2.395 . S
O195 C179 1.240 . S
O196 Gd169 2.448 . S
O196 C180 1.249 . S
O197 Gd169 2.506 . S
O197 C180 1.252 . S
O198 Gd169 2.435 . S
O198 C187 1.256 . S
O199 Gd168 2.327 . S
O199 Gd169 2.717 . S
O199 C187 1.257 . S
H200 C173 0.930 . S
H201 C174 0.931 . S
H202 C176 0.931 . S
H203 C177 0.931 . S
H204 C182 0.930 . S
H205 C183 0.931 . S
H206 C185 0.931 . S
H207 C186 0.931 . S
Gd208 C211 2.818 . S
Gd208 O228 2.377 . S
Gd208 O230 2.448 . S
Gd208 O231 2.506 . S
Gd208 O232 2.435 1_455 S
Gd208 O233 2.717 1_455 S
Gd208 O235 2.395 1_455 S
Gd208 O239 2.327 1_554 S
Gd209 C220 2.818 1_455 S
Gd209 O229 2.395 1_556 S
Gd209 O233 2.327 1_456 S
Gd209 O234 2.377 1_455 S
Gd209 O236 2.448 1_455 S
Gd209 O237 2.506 1_455 S
Gd209 O238 2.435 . S
Gd209 O239 2.717 . S
C210 O228 1.240 . S
C210 O229 1.240 . S
C211 Gd208 2.818 . S
C211 C212 1.510 . S
C211 O230 1.249 . S
C211 O231 1.252 . S
C212 C211 1.510 . S
C212 C213 1.404 . S
C212 C214 1.352 . S
C213 C212 1.404 . S
C213 C217 1.389 . S
C213 H240 0.930 . S
C214 C212 1.352 . S
C214 C216 1.374 . S
C214 H241 0.931 . S
C215 C216 1.359 . S
C215 C217 1.364 . S
C216 C214 1.374 . S
C216 C215 1.359 . S
C216 H242 0.931 . S
C217 C213 1.389 . S
C217 C215 1.364 . S
C217 H243 0.931 . S
C218 O232 1.256 . S
C218 O233 1.257 . S
C219 O234 1.240 . S
C219 O235 1.240 1_556 S
C220 Gd209 2.818 1_655 S
C220 C221 1.510 . S
C220 O236 1.249 . S
C220 O237 1.252 . S
C221 C220 1.510 . S
C221 C222 1.404 . S
C221 C223 1.352 . S
C222 C221 1.404 . S
C222 C226 1.389 . S
C222 H244 0.930 . S
C223 C221 1.352 . S
C223 C225 1.374 . S
C223 H245 0.931 . S
C224 C225 1.359 . S
C224 C226 1.364 . S
C225 C223 1.374 . S
C225 C224 1.359 . S
C225 H246 0.931 . S
C226 C222 1.389 . S
C226 C224 1.364 . S
C226 H247 0.931 . S
C227 O238 1.256 . S
C227 O239 1.257 . S
O228 Gd208 2.377 . S
O228 C210 1.240 . S
O229 Gd209 2.395 1_554 S
O229 C210 1.240 . S
O230 Gd208 2.448 . S
O230 C211 1.249 . S
O231 Gd208 2.506 . S
O231 C211 1.252 . S
O232 Gd208 2.435 1_655 S
O232 C218 1.256 . S
O233 Gd208 2.717 1_655 S
O233 Gd209 2.327 1_654 S
O233 C218 1.257 . S
O234 Gd209 2.377 1_655 S
O234 C219 1.240 . S
O235 Gd208 2.395 1_655 S
O235 C219 1.240 1_554 S
O236 Gd209 2.448 1_655 S
O236 C220 1.249 . S
O237 Gd209 2.506 1_655 S
O237 C220 1.252 . S
O238 Gd209 2.435 . S
O238 C227 1.256 . S
O239 Gd208 2.327 1_556 S
O239 Gd209 2.717 . S
O239 C227 1.257 . S
H240 C213 0.930 . S
H241 C214 0.931 . S
H242 C216 0.931 . S
H243 C217 0.931 . S
H244 C222 0.930 . S
H245 C223 0.931 . S
H246 C225 0.931 . S
H247 C226 0.931 . S
C5 C95 1.514 . S
C18 C144 1.399 . S
C170 C30 3.377 . S
C41 C218 3.243 . S
C130 C7 3.062 . S
C98 C16 2.080 1_455 S
C219 C29 2.595 . S
C187 C38 1.524 . S
C8 C215 1.963 . S
C147 C27 3.423 1_554 S
C40 C99 3.673 . S
C19 C184 2.665 . S
C104 C51 1.455 . S
C62 C135 2.692 . S
C74 C179 3.794 . S
C84 C227 3.466 . S
C49 C139 2.762 . S
C107 C63 2.115 1_655 S
C210 C71 2.285 . S
C178 C85 2.200 . S
C52 C224 2.572 . S
C138 C73 4.055 . S
C90 C82 2.899 . S
C60 C175 2.438 . S
