# Generated by pormake.
# Topology zzz, (3,6)-cn, num edge types: 1
# Building blocks:
#     Node 0, Type 0, BuildingBlock: OLANEW_clean_sbu_2, # of connection points: 3
#     Node 1, Type 0, BuildingBlock: OLANEW_clean_sbu_2, # of connection points: 3
#     Node 2, Type 0, BuildingBlock: OLANEW_clean_sbu_2, # of connection points: 3
#     Node 3, Type 0, BuildingBlock: OLANEW_clean_sbu_2, # of connection points: 3
#     Node 4, Type 0, BuildingBlock: OLANEW_clean_sbu_2, # of connection points: 3
#     Node 5, Type 0, BuildingBlock: OLANEW_clean_sbu_2, # of connection points: 3
#     Node 6, Type 0, BuildingBlock: OLANEW_clean_sbu_2, # of connection points: 3
#     Node 7, Type 0, BuildingBlock: OLANEW_clean_sbu_2, # of connection points: 3
#     Node 8, Type 1, BuildingBlock: KUMJIN_clean_sbu_1, # of connection points: 6
#     Node 9, Type 1, BuildingBlock: KUMJIN_clean_sbu_1, # of connection points: 6
#     Node 10, Type 1, BuildingBlock: KUMJIN_clean_sbu_1, # of connection points: 6
#     Node 11, Type 1, BuildingBlock: KUMJIN_clean_sbu_1, # of connection points: 6
#     Edge 12, Type (0, 1), BuildingBlock: EZIPEK_clean_linker_0, # of connection points: 2
#     Edge 13, Type (0, 1), BuildingBlock: EZIPEK_clean_linker_0, # of connection points: 2
#     Edge 14, Type (0, 1), BuildingBlock: EZIPEK_clean_linker_0, # of connection points: 2
#     Edge 15, Type (0, 1), BuildingBlock: EZIPEK_clean_linker_0, # of connection points: 2
#     Edge 16, Type (0, 1), BuildingBlock: EZIPEK_clean_linker_0, # of connection points: 2
#     Edge 17, Type (0, 1), BuildingBlock: EZIPEK_clean_linker_0, # of connection points: 2
#     Edge 18, Type (0, 1), BuildingBlock: EZIPEK_clean_linker_0, # of connection points: 2
#     Edge 19, Type (0, 1), BuildingBlock: EZIPEK_clean_linker_0, # of connection points: 2
#     Edge 20, Type (0, 1), BuildingBlock: EZIPEK_clean_linker_0, # of connection points: 2
#     Edge 21, Type (0, 1), BuildingBlock: EZIPEK_clean_linker_0, # of connection points: 2
#     Edge 22, Type (0, 1), BuildingBlock: EZIPEK_clean_linker_0, # of connection points: 2
#     Edge 23, Type (0, 1), BuildingBlock: EZIPEK_clean_linker_0, # of connection points: 2
#     Edge 24, Type (0, 1), BuildingBlock: EZIPEK_clean_linker_0, # of connection points: 2
#     Edge 25, Type (0, 1), BuildingBlock: EZIPEK_clean_linker_0, # of connection points: 2
#     Edge 26, Type (0, 1), BuildingBlock: EZIPEK_clean_linker_0, # of connection points: 2
#     Edge 27, Type (0, 1), BuildingBlock: EZIPEK_clean_linker_0, # of connection points: 2
#     Edge 28, Type (0, 1), BuildingBlock: EZIPEK_clean_linker_0, # of connection points: 2
#     Edge 29, Type (0, 1), BuildingBlock: EZIPEK_clean_linker_0, # of connection points: 2
#     Edge 30, Type (0, 1), BuildingBlock: EZIPEK_clean_linker_0, # of connection points: 2
#     Edge 31, Type (0, 1), BuildingBlock: EZIPEK_clean_linker_0, # of connection points: 2
#     Edge 32, Type (0, 1), BuildingBlock: EZIPEK_clean_linker_0, # of connection points: 2
#     Edge 33, Type (0, 1), BuildingBlock: EZIPEK_clean_linker_0, # of connection points: 2
#     Edge 34, Type (0, 1), BuildingBlock: EZIPEK_clean_linker_0, # of connection points: 2
#     Edge 35, Type (0, 1), BuildingBlock: EZIPEK_clean_linker_0, # of connection points: 2
# Relax obj value: 0.187
# Max RMSD: 0.118
# Mean RMSD: 0.089
data_MOF--net-zzz--node1-OLANEW_clean_sbu_2--node2-KUMJIN_clean_sbu_1--edge1-EZIPEK_clean_linker_0
_symmetry_space_group_name_H-M    P1
_symmetry_Int_Tables_number       1
_symmetry_cell_setting            triclinic
loop_
_symmetry_equiv_pos_as_xyz
'x, y, z'
_cell_length_a     40.505952
_cell_length_b     40.738022
_cell_length_c     13.525295
_cell_angle_alpha  90.151711
_cell_angle_beta   89.62997
_cell_angle_gamma 90.352605
loop_
_atom_site_label
_atom_site_type_symbol
_atom_site_fract_x
_atom_site_fract_y
_atom_site_fract_z
_atom_type_partial_charge
O0 O 0.75044 0.55172 0.15133 0.0
Cd1 Cd 0.70044 0.58012 0.20021 0.0
O2 O 0.73944 0.5202 0.27847 0.0
Cd3 Cd 0.75749 0.48307 0.3782 0.0
O4 O 0.80389 0.48405 0.45626 0.0
C5 C 0.80999 0.51003 0.50517 0.0
O6 O 0.78702 0.53246 0.51478 0.0
C7 C 0.75781 0.52747 0.2052 0.0
C8 C 0.65364 0.56403 0.06089 0.0
O9 O 0.6706 0.59057 0.05332 0.0
O10 O 0.65779 0.54569 0.13656 0.0
O11 O 0.94542 0.76855 0.103 0.0
Cd12 Cd 0.92822 0.72064 0.19792 0.0
O13 O 0.98592 0.75991 0.2048 0.0
Cd14 Cd 0.03149 0.77315 0.27827 0.0
O15 O 0.03651 0.80978 0.39339 0.0
C16 C 0.01473 0.80967 0.46145 0.0
O17 O 0.99358 0.78517 0.46743 0.0
C18 C 0.97423 0.77582 0.13245 0.0
C19 C 0.95309 0.66895 0.08724 0.0
O20 O 0.92214 0.67532 0.08852 0.0
O21 O 0.97202 0.6857 0.14385 0.0
O22 O 0.76648 0.9595 0.19644 0.0
Cd23 Cd 0.82349 0.96928 0.24958 0.0
O24 O 0.7552 0.99162 0.32133 0.0
Cd25 Cd 0.72339 0.01941 0.42199 0.0
O26 O 0.71527 0.05182 0.54813 0.0
C27 C 0.68977 0.05409 0.60282 0.0
O28 O 0.69032 0.07431 0.67854 0.0
C29 C 0.74523 0.97485 0.2479 0.0
C30 C 0.86894 0.97127 0.09466 0.0
O31 O 0.86276 0.94451 0.14096 0.0
O32 O 0.85365 0.99734 0.12095 0.0
O33 O 0.54371 0.77601 0.23327 0.0
Cd34 Cd 0.539 0.82582 0.33291 0.0
O35 O 0.50162 0.75556 0.31364 0.0
Cd36 Cd 0.51309 0.78247 0.44903 0.0
O37 O 0.526 0.73454 0.5084 0.0
C38 C 0.50894 0.71992 0.57408 0.0
O39 O 0.48513 0.73567 0.62005 0.0
C40 C 0.52194 0.75365 0.24188 0.0
C41 C 0.52799 0.87645 0.19912 0.0
O42 O 0.55666 0.87186 0.23608 0.0
O43 O 0.5042 0.858 0.22862 0.0
O44 O 0.26049 0.43504 0.24896 0.0
Cd45 Cd 0.30874 0.4008 0.22789 0.0
O46 O 0.27004 0.46143 0.11031 0.0
Cd47 Cd 0.25439 0.49797 0.00439 0.0
O48 O 0.21135 0.51584 0.92823 0.0
C49 C 0.19492 0.49409 0.88223 0.0
O50 O 0.20597 0.46388 0.87798 0.0
C51 C 0.25309 0.45768 0.18891 0.0
C52 C 0.35849 0.43195 0.3328 0.0
O53 O 0.35607 0.43587 0.23912 0.0
O54 O 0.33804 0.41254 0.37606 0.0
O55 O 0.01362 0.28542 0.19751 0.0
Cd56 Cd 0.02693 0.336 0.11135 0.0
O57 O 0.05222 0.26792 0.09818 0.0
Cd58 Cd 0.07509 0.2288 0.0179 0.0
O59 O 0.05489 0.19164 0.92301 0.0
C60 C 0.05425 0.16254 0.95544 0.0
O61 O 0.06756 0.15621 0.04151 0.0
C62 C 0.03073 0.26188 0.16444 0.0
C63 C 0.02674 0.38849 0.24231 0.0
O64 O 0.00063 0.37976 0.19576 0.0
O65 O 0.05265 0.37129 0.22776 0.0
O66 O 0.24973 0.99683 0.1327 0.0
Cd67 Cd 0.19775 0.00507 0.0473 0.0
O68 O 0.27311 0.04589 0.12458 0.0
Cd69 Cd 0.24847 0.05799 0.98637 0.0
O70 O 0.29117 0.04698 0.89203 0.0
C71 C 0.31253 0.06893 0.87139 0.0
O72 O 0.30593 0.09985 0.89038 0.0
C73 C 0.27211 0.0169 0.15909 0.0
C74 C 0.15071 0.0037 0.19944 0.0
O75 O 0.16559 0.9777 0.17086 0.0
O76 O 0.15648 0.03024 0.15158 0.0
O77 O 0.46214 0.2487 0.24956 0.0
Cd78 Cd 0.43883 0.1972 0.18952 0.0
O79 O 0.48539 0.2494 0.10369 0.0
Cd80 Cd 0.51609 0.27212 0.99191 0.0
O81 O 0.52847 0.31482 0.90575 0.0
C82 C 0.50871 0.3384 0.9202 0.0
O83 O 0.48385 0.33475 0.98217 0.0
C84 C 0.48132 0.26265 0.18801 0.0
C85 C 0.45372 0.14723 0.31998 0.0
O86 O 0.47403 0.15486 0.25063 0.0
O87 O 0.4265 0.16296 0.32682 0.0
Eu88 Eu 0.985 0.00851 0.55815 0.0
C89 C 0.08896 0.05097 0.87434 0.0
N90 N 0.08971 0.03285 0.78981 0.0
C91 C 0.1378 0.06219 0.7343 0.0
C92 C 0.11267 0.07584 0.8914 0.0
C93 C 0.11451 0.03705 0.72238 0.0
C94 C 0.13673 0.08186 0.81889 0.0
C95 C 0.06544 0.06061 0.03734 0.0
C96 C 0.06534 0.04365 0.94607 0.0
C97 C 0.08915 0.08517 0.05462 0.0
C98 C 0.11246 0.09304 0.98146 0.0
Eu99 Eu 0.05197 0.98876 0.78083 0.0
N100 N 0.0432 0.01912 0.92852 0.0
C101 C 0.04214 0.05194 0.10959 0.0
C102 C 0.02097 0.01014 0.99988 0.0
C103 C 0.01984 0.02654 0.09075 0.0
H104 H 0.11679 0.02066 0.66015 0.0
H105 H 0.00213 0.01915 0.14686 0.0
H106 H 0.91382 0.0428 0.62462 0.0
H107 H 0.00762 0.91884 0.26312 0.0
H108 H 0.00491 0.98961 0.98875 0.0
H109 H 0.04149 0.06435 0.18053 0.0
H110 H 0.02148 0.96543 0.37391 0.0
H111 H 0.15705 0.06583 0.67949 0.0
H112 H 0.08973 0.09818 0.12459 0.0
H113 H 0.13063 0.11204 0.99605 0.0
H114 H 0.85386 0.03373 0.59841 0.0
H115 H 0.15525 0.10086 0.82902 0.0
H116 H 0.95052 0.89674 0.26091 0.0
N117 N 0.92786 0.00119 0.54003 0.0
C118 C 0.91807 0.97545 0.48315 0.0
C119 C 0.87165 0.0171 0.56597 0.0
C120 C 0.88427 0.96871 0.4688 0.0
C121 C 0.90546 0.02228 0.58039 0.0
C122 C 0.86098 0.98985 0.51142 0.0
N123 N 0.97403 0.96666 0.44079 0.0
C124 C 0.99692 0.95508 0.37494 0.0
C125 C 0.93243 0.93172 0.36893 0.0
C126 C 0.94189 0.95736 0.43321 0.0
C127 C 0.9568 0.91654 0.31115 0.0
C128 C 0.98905 0.92892 0.31212 0.0
H129 H 0.83477 0.98571 0.50119 0.0
H130 H 0.849 0.93593 0.39922 0.0
H131 H 0.89119 0.90346 0.31204 0.0
O132 O 0.0097 0.0485 0.47807 0.0
O133 O 0.00796 0.9576 0.56549 0.0
O134 O 0.02107 0.94577 0.72877 0.0
O135 O 0.95933 0.03628 0.44418 0.0
O136 O 0.03963 0.01774 0.54062 0.0
O137 O 0.07156 0.98075 0.62398 0.0
O138 O 0.06903 0.96574 0.91601 0.0
O139 O 0.03877 0.03779 0.7165 0.0
O140 O 0.98362 0.04238 0.6911 0.0
O141 O 0.0968 0.95879 0.78092 0.0
O142 O 0.99833 0.97542 0.8151 0.0
O143 O 0.95986 0.99927 0.70866 0.0
C144 C 0.01394 0.9369 0.63788 0.0
C145 C 0.97529 0.09182 0.42657 0.0
C146 C 0.9834 0.14675 0.35842 0.0
C147 C 0.95889 0.15861 0.42274 0.0
C148 C 0.95121 0.10436 0.49133 0.0
C149 C 0.94292 0.13751 0.48872 0.0
C150 C 0.99137 0.11313 0.35967 0.0
C151 C 0.0641 0.99702 0.54305 0.0
C152 C 0.9836 0.05666 0.42856 0.0
C153 C 0.87484 0.94189 0.40965 0.0
C154 C 0.89889 0.92333 0.36023 0.0
C155 C 0.01061 0.05202 0.73629 0.0
C156 C 0.09441 0.91427 0.89367 0.0
C157 C 0.06977 0.86351 0.95618 0.0
C158 C 0.09953 0.84716 0.93702 0.0
C159 C 0.12398 0.89754 0.87534 0.0
C160 C 0.06717 0.89702 0.93369 0.0
C161 C 0.12645 0.86413 0.89669 0.0
C162 C 0.96756 0.98134 0.78733 0.0
C163 C 0.09267 0.94971 0.87253 0.0
H164 H 0.95227 0.18434 0.42215 0.0
H165 H 0.93877 0.08853 0.54388 0.0
H166 H 0.92414 0.14692 0.53833 0.0
H167 H 0.01009 0.10377 0.30955 0.0
H168 H 0.10187 0.82126 0.95339 0.0
H169 H 0.1452 0.91037 0.84474 0.0
H170 H 0.04408 0.90948 0.94803 0.0
H171 H 0.14934 0.85137 0.88226 0.0
Eu172 Eu 0.52542 0.04624 0.83367 0.0
C173 C 0.5276 0.90166 0.64997 0.0
N174 N 0.52936 0.93063 0.60026 0.0
C175 C 0.57183 0.90902 0.49457 0.0
C176 C 0.54849 0.87532 0.6246 0.0
C177 C 0.55051 0.93438 0.52186 0.0
C178 C 0.571 0.87945 0.54655 0.0
C179 C 0.50059 0.86769 0.77436 0.0
C180 C 0.50387 0.89778 0.72389 0.0
C181 C 0.52195 0.84174 0.75101 0.0
C182 C 0.54578 0.84552 0.67624 0.0
Eu183 Eu 0.49149 0.97133 0.652 0.0
N184 N 0.4835 0.92326 0.74511 0.0
C185 C 0.4754 0.86437 0.84522 0.0
C186 C 0.45762 0.91956 0.8091 0.0
C187 C 0.45357 0.89029 0.86171 0.0
H188 H 0.55059 0.95663 0.47862 0.0
H189 H 0.43354 0.88768 0.91453 0.0
H190 H 0.46839 0.0846 0.97347 0.0
H191 H 0.6305 0.10328 0.64405 0.0
H192 H 0.44046 0.93943 0.82033 0.0
H193 H 0.47212 0.84167 0.88577 0.0
H194 H 0.6007 0.05948 0.73563 0.0
H195 H 0.58862 0.91216 0.43266 0.0
H196 H 0.51985 0.81844 0.78913 0.0
H197 H 0.56166 0.82505 0.65784 0.0
H198 H 0.44347 0.13957 0.9881 0.0
H199 H 0.58735 0.85974 0.52455 0.0
H200 H 0.60485 0.15765 0.62394 0.0
N201 N 0.50331 0.09901 0.86402 0.0
C202 C 0.51652 0.12414 0.81117 0.0
C203 C 0.46385 0.13555 0.93742 0.0
C204 C 0.50342 0.15608 0.8179 0.0
C205 C 0.47785 0.10438 0.92851 0.0
C206 C 0.47643 0.16146 0.88093 0.0
N207 N 0.55734 0.08752 0.75515 0.0
C208 C 0.58865 0.08247 0.72168 0.0
C209 C 0.56073 0.14429 0.70605 0.0
C210 C 0.54446 0.11821 0.75485 0.0
C211 C 0.59137 0.13826 0.66156 0.0
C212 C 0.60587 0.10749 0.67228 0.0
H213 H 0.46568 0.18564 0.88832 0.0
H214 H 0.5083 0.20631 0.76712 0.0
H215 H 0.55878 0.19605 0.66985 0.0
O216 O 0.57194 0.04087 0.91267 0.0
O217 O 0.49888 0.06354 0.6961 0.0
O218 O 0.49965 0.0214 0.58293 0.0
O219 O 0.5288 0.05853 0.99074 0.0
O220 O 0.55705 0.0099 0.74712 0.0
O221 O 0.53595 -0.00054 0.5946 0.0
O222 O 0.44001 0.96772 0.60512 0.0
O223 O 0.51722 0.9605 0.79656 0.0
O224 O 0.50067 0.00169 0.90061 0.0
O225 O 0.47911 0.94507 0.51535 0.0
O226 O 0.45105 0.9974 0.73962 0.0
O227 O 0.46992 0.04134 0.83697 0.0
C228 C 0.48911 0.05038 0.61177 0.0
C229 C 0.56577 0.0242 0.07845 0.0
C230 C 0.60604 0.99026 0.16485 0.0
C231 C 0.57984 0.97241 0.2078 0.0
C232 C 0.54011 0.0076 0.12813 0.0
C233 C 0.54728 0.98224 0.19364 0.0
C234 C 0.59863 0.01646 0.1009 0.0
C235 C 0.56058 0.00906 0.65052 0.0
C236 C 0.55895 0.04791 0.99863 0.0
C237 C 0.5182 0.18168 0.76379 0.0
C238 C 0.54687 0.17581 0.70807 0.0
C239 C 0.51061 0.97161 0.88552 0.0
C240 C 0.42292 0.93824 0.45799 0.0
C241 C 0.37312 0.94722 0.36341 0.0
C242 C 0.37629 0.91587 0.3213 0.0
C243 C 0.42601 0.90698 0.41526 0.0
C244 C 0.39613 0.95815 0.43318 0.0
C245 C 0.40256 0.89576 0.34773 0.0
C246 C 0.4463 0.02328 0.79715 0.0
C247 C 0.44768 0.95013 0.52794 0.0
H248 H 0.58463 0.95164 0.25534 0.0
H249 H 0.51451 0.01357 0.11465 0.0
H250 H 0.52751 0.96974 0.23243 0.0
H251 H 0.61852 0.03012 0.06573 0.0
H252 H 0.35896 0.90741 0.26597 0.0
H253 H 0.44653 0.8913 0.43411 0.0
H254 H 0.39406 0.98266 0.46399 0.0
H255 H 0.40511 0.87172 0.3144 0.0
Eu256 Eu 0.54386 0.50608 0.52893 0.0
C257 C 0.41075 0.49024 0.80147 0.0
N258 N 0.41909 0.51318 0.73294 0.0
C259 C 0.36566 0.50784 0.65906 0.0
C260 C 0.37974 0.47437 0.79971 0.0
C261 C 0.39651 0.52334 0.66532 0.0
C262 C 0.35742 0.48287 0.72559 0.0
C263 C 0.42365 0.46318 0.95577 0.0
C264 C 0.43239 0.48448 0.87782 0.0
C265 C 0.39347 0.44606 0.95211 0.0
C266 C 0.37159 0.45156 0.87396 0.0
Eu267 Eu 0.47334 0.53519 0.74208 0.0
N268 N 0.46118 0.5015 0.87912 0.0
C269 C 0.44492 0.46082 0.03674 0.0
C270 C 0.48082 0.50124 0.96062 0.0
C271 C 0.47331 0.48049 0.04007 0.0
H272 H 0.40247 0.54312 0.61502 0.0
H273 H 0.48938 0.47967 0.10364 0.0
H274 H 0.62249 0.52145 0.59143 0.0
H275 H 0.47185 0.55281 0.21909 0.0
H276 H 0.50264 0.51663 0.96318 0.0
H277 H 0.43907 0.44484 0.0984 0.0
H278 H 0.48452 0.51522 0.35636 0.0
H279 H 0.3482 0.5153 0.60333 0.0
H280 H 0.38641 0.4293 0.01074 0.0
H281 H 0.34799 0.4389 0.87346 0.0
H282 H 0.66758 0.55928 0.5423 0.0
H283 H 0.33339 0.47115 0.72128 0.0
H284 H 0.51181 0.5964 0.1725 0.0
N285 N 0.5889 0.5398 0.48508 0.0
C286 C 0.58375 0.56104 0.40946 0.0
C287 C 0.6441 0.5601 0.50464 0.0
C288 C 0.60869 0.58327 0.37978 0.0
C289 C 0.61852 0.53879 0.53239 0.0
C290 C 0.63914 0.58254 0.42829 0.0
N291 N 0.52946 0.53913 0.39294 0.0
C292 C 0.50137 0.53495 0.33947 0.0
C293 C 0.54728 0.58257 0.28379 0.0
C294 C 0.55318 0.56083 0.36257 0.0
C295 C 0.51722 0.58023 0.23373 0.0
C296 C 0.49452 0.55578 0.26017 0.0
H297 H 0.65897 0.59914 0.40731 0.0
H298 H 0.62116 0.62312 0.28026 0.0
H299 H 0.5672 0.62295 0.19791 0.0
O300 O 0.54351 0.47281 0.40164 0.0
O301 O 0.54107 0.56006 0.56989 0.0
O302 O 0.48667 0.56316 0.60436 0.0
O303 O 0.5861 0.47469 0.49635 0.0
O304 O 0.49134 0.48625 0.52512 0.0
O305 O 0.46145 0.52994 0.58022 0.0
O306 O 0.48878 0.57439 0.8411 0.0
O307 O 0.49201 0.48318 0.75872 0.0
O308 O 0.53692 0.47026 0.65449 0.0
O309 O 0.43791 0.57191 0.7939 0.0
O310 O 0.527 0.53646 0.78736 0.0
O311 O 0.56739 0.51629 0.67727 0.0
C312 C 0.51531 0.57777 0.59251 0.0
C313 C 0.5705 0.42244 0.43154 0.0
C314 C 0.55052 0.36915 0.37152 0.0
C315 C 0.56675 0.3538 0.45009 0.0
C316 C 0.58657 0.40629 0.50935 0.0
C317 C 0.58471 0.37225 0.51816 0.0
C318 C 0.55279 0.40354 0.36159 0.0
C319 C 0.46307 0.50134 0.53601 0.0
C320 C 0.57116 0.45883 0.42554 0.0
C321 C 0.60242 0.60562 0.30347 0.0
C322 C 0.57173 0.60544 0.25625 0.0
C323 C 0.51546 0.46361 0.72542 0.0
C324 C 0.46023 0.62439 0.83721 0.0
C325 C 0.47481 0.67628 0.91591 0.0
C326 C 0.45798 0.69321 0.84151 0.0
C327 C 0.44387 0.6415 0.76225 0.0
C328 C 0.47623 0.64194 0.91232 0.0
C329 C 0.44292 0.67584 0.76445 0.0
C330 C 0.55774 0.52952 0.76207 0.0
C331 C 0.46007 0.58839 0.84313 0.0
H332 H 0.5654 0.32739 0.45883 0.0
H333 H 0.60035 0.41993 0.56435 0.0
H334 H 0.59704 0.36012 0.57857 0.0
H335 H 0.54035 0.41546 0.30085 0.0
H336 H 0.45652 0.71975 0.8433 0.0
H337 H 0.43163 0.62845 0.70288 0.0
H338 H 0.48894 0.62881 0.97039 0.0
H339 H 0.43012 0.689 0.70699 0.0
Eu340 Eu 0.01865 0.5508 0.57344 0.0
C341 C 0.03657 0.44035 0.91926 0.0
N342 N 0.01924 0.44049 0.83356 0.0
C343 C 0.04184 0.38822 0.78874 0.0
C344 C 0.05853 0.41461 0.94074 0.0
C345 C 0.02064 0.41441 0.77015 0.0
C346 C 0.06122 0.38852 0.8737 0.0
C347 C 0.04932 0.46595 0.07674 0.0
C348 C 0.03181 0.46565 0.9868 0.0
C349 C 0.0724 0.44127 0.09597 0.0
C350 C 0.07681 0.41552 0.02856 0.0
Eu351 Eu 0.98634 0.48717 0.80527 0.0
N352 N 0.00957 0.4895 0.96583 0.0
C353 C 0.0431 0.49105 0.14492 0.0
C354 C 0.00145 0.51242 0.03577 0.0
C355 C 0.01902 0.51431 0.1243 0.0
H356 H 0.00553 0.4136 0.70485 0.0
H357 H 0.01431 0.53394 0.17612 0.0
H358 H 0.03427 0.62634 0.66987 0.0
H359 H 0.95437 0.52001 0.23172 0.0
H360 H 0.98205 0.52995 0.02281 0.0
H361 H 0.05639 0.49242 0.21413 0.0
H362 H 0.99278 0.51118 0.371 0.0
H363 H 0.04324 0.36783 0.73744 0.0
H364 H 0.08655 0.4416 0.16363 0.0
H365 H 0.09413 0.3962 0.04562 0.0
H366 H 0.01356 0.68287 0.6524 0.0
H367 H 0.07771 0.36824 0.88773 0.0
H368 H 0.92705 0.57371 0.21279 0.0
N369 N 0.00223 0.60646 0.56031 0.0
C370 C 0.98063 0.61321 0.48665 0.0
C371 C 0.00381 0.66345 0.60606 0.0
C372 C 0.96867 0.64534 0.47275 0.0
C373 C 0.0152 0.63133 0.6164 0.0
C374 C 0.98008 0.67042 0.53489 0.0
N375 N 0.98394 0.55772 0.43541 0.0
C376 C 0.97979 0.53405 0.36488 0.0
C377 C 0.95008 0.59479 0.34256 0.0
C378 C 0.97137 0.58821 0.42221 0.0
C379 C 0.94318 0.5696 0.27512 0.0
C380 C 0.95842 0.5392 0.28577 0.0
H381 H 0.97147 0.69538 0.5266 0.0
H382 H 0.93679 0.67609 0.38471 0.0
H383 H 0.92043 0.63179 0.27106 0.0
O384 O 0.05315 0.53183 0.46179 0.0
O385 O 0.96675 0.52929 0.55829 0.0
O386 O 0.95568 0.5243 0.72186 0.0
O387 O 0.05671 0.5823 0.50884 0.0
O388 O 0.02761 0.4967 0.58757 0.0
O389 O 0.98554 0.46598 0.64898 0.0
O390 O 0.93921 0.49299 0.88137 0.0
O391 O 0.04144 0.49145 0.77359 0.0
O392 O 0.05186 0.54382 0.70854 0.0
O393 O 0.95546 0.44431 0.84225 0.0
O394 O 0.9933 0.54027 0.85226 0.0
O395 O 0.0052 0.57573 0.7192 0.0
C396 C 0.94606 0.52176 0.63002 0.0
C397 C 0.10621 0.55622 0.46006 0.0
C398 C 0.15754 0.53533 0.38916 0.0
C399 C 0.17477 0.54826 0.47046 0.0
C400 C 0.12393 0.56872 0.54103 0.0
C401 C 0.15806 0.56495 0.54554 0.0
C402 C 0.12324 0.54015 0.38307 0.0
C403 C 0.0056 0.47361 0.57603 0.0
C404 C 0.07002 0.55906 0.45621 0.0
C405 C 0.94639 0.65162 0.396 0.0
C406 C 0.93706 0.6264 0.33123 0.0
C407 C 0.06123 0.51642 0.75279 0.0
C408 C 0.91914 0.45008 0.98187 0.0
C409 C 0.87552 0.45471 0.10604 0.0
C410 C 0.889 0.42822 0.15767 0.0
C411 C 0.93246 0.42351 0.03385 0.0
C412 C 0.89068 0.4655 0.01853 0.0
C413 C 0.91732 0.41265 0.12133 0.0
C414 C 0.99781 0.56958 0.81278 0.0
C415 C 0.93313 0.46174 0.88742 0.0
H416 H 0.2012 0.54498 0.4765 0.0
H417 H 0.11138 0.581 0.60152 0.0
H418 H 0.17154 0.57445 0.60835 0.0
H419 H 0.10978 0.53057 0.3201 0.0
H420 H 0.87756 0.41961 0.22547 0.0
H421 H 0.95439 0.41117 0.00709 0.0
H422 H 0.87997 0.48578 0.97826 0.0
H423 H 0.92765 0.39219 0.16127 0.0
C424 C 0.10759 0.97495 0.30316 0.0
C425 C 0.12828 0.0028 0.28732 0.0
C426 C 0.10506 0.02803 0.43727 0.0
C427 C 0.08804 0.99833 0.45961 0.0
N428 N 0.07912 0.94095 0.42277 0.0
N429 N 0.15027 0.05396 0.3564 0.0
C430 C 0.09148 0.97089 0.39589 0.0
C431 C 0.12807 0.02872 0.35835 0.0
N432 N 0.10124 0.95352 0.22763 0.0
N433 N 0.10051 0.05569 0.49305 0.0
H434 H 0.17017 0.05579 0.30744 0.0
H435 H 0.17017 0.05579 0.30744 0.0
H436 H 0.08416 0.05701 0.55262 0.0
H437 H 0.11258 0.07781 0.47732 0.0
H438 H 0.08378 0.93471 0.23332 0.0
H439 H 0.10999 0.95704 0.15575 0.0
H440 H 0.08383 0.91953 0.38291 0.0
H441 H 0.06632 0.93718 0.4887 0.0
C442 C 0.46172 0.13 0.49496 0.0
C443 C 0.46164 0.12161 0.39323 0.0
C444 C 0.4701 0.06374 0.43585 0.0
C445 C 0.4739 0.07298 0.53695 0.0
N446 N 0.45262 0.11031 0.66048 0.0
N447 N 0.46693 0.08076 0.2644 0.0
C448 C 0.4638 0.10486 0.5664 0.0
C449 C 0.46632 0.08856 0.36283 0.0
N450 N 0.46131 0.16219 0.52383 0.0
N451 N 0.46554 0.0315 0.41116 0.0
H452 H 0.46147 0.09749 0.20878 0.0
H453 H 0.47482 0.05816 0.23726 0.0
H454 H 0.46086 0.01355 0.46394 0.0
H455 H 0.46058 0.02322 0.33989 0.0
H456 H 0.465 0.16952 0.59686 0.0
H457 H 0.46079 0.18165 0.47391 0.0
H458 H 0.44244 0.13252 0.68343 0.0
H459 H 0.44861 0.0913 0.71061 0.0
C460 C 0.38606 0.48504 0.37954 0.0
C461 C 0.38347 0.45046 0.39035 0.0
C462 C 0.42572 0.4525 0.51842 0.0
C463 C 0.43304 0.48555 0.49327 0.0
N464 N 0.42014 0.53351 0.39575 0.0
N465 N 0.40355 0.40043 0.46384 0.0
C466 C 0.41307 0.50202 0.42313 0.0
C467 C 0.40389 0.43394 0.45856 0.0
N468 N 0.36184 0.50196 0.33192 0.0
N469 N 0.43844 0.43926 0.60236 0.0
H470 H 0.38935 0.3856 0.41759 0.0
H471 H 0.41982 0.3872 0.50751 0.0
H472 H 0.45287 0.45291 0.65076 0.0
H473 H 0.43139 0.41642 0.63006 0.0
H474 H 0.36065 0.52749 0.33099 0.0
H475 H 0.34087 0.49069 0.30264 0.0
H476 H 0.40926 0.54494 0.33547 0.0
H477 H 0.43845 0.54757 0.42876 0.0
C478 C 0.04994 0.41855 0.39262 0.0
C479 C 0.02532 0.41521 0.31855 0.0
C480 C 0.98701 0.44782 0.41808 0.0
C481 C 0.01073 0.45006 0.49402 0.0
N482 N 0.06297 0.43368 0.56177 0.0
N483 N 0.97922 0.44199 0.24254 0.0
C484 C 0.04179 0.43438 0.48345 0.0
C485 C 0.99625 0.4342 0.32592 0.0
N486 N 0.08174 0.40944 0.3732 0.0
N487 N 0.95556 0.4586 0.43352 0.0
H488 H 0.98801 0.43613 0.17204 0.0
H489 H 0.95946 0.45826 0.24233 0.0
H490 H 0.94773 0.46836 0.50071 0.0
H491 H 0.93661 0.45486 0.38283 0.0
H492 H 0.10097 0.41182 0.4232 0.0
H493 H 0.0903 0.40409 0.30237 0.0
H494 H 0.0842 0.41948 0.56417 0.0
H495 H 0.05789 0.44513 0.62903 0.0
C496 C 0.88303 0.97608 0.91346 0.0
C497 C 0.89329 0.9717 0.0127 0.0
C498 C 0.94825 0.95754 0.95197 0.0
C499 C 0.94048 0.97027 0.85764 0.0
N500 N 0.89611 0.97143 0.74107 0.0
N501 N 0.93785 0.9623 0.12653 0.0
C502 C 0.90659 0.97418 0.83581 0.0
C503 C 0.92649 0.96338 0.03203 0.0
N504 N 0.85083 0.98115 0.88981 0.0
N505 N 0.97406 0.93653 0.96315 0.0
H506 H 0.92296 0.96759 0.18765 0.0
H507 H 0.96291 0.95978 0.14182 0.0
H508 H 0.98707 0.92716 0.90269 0.0
H509 H 0.9791 0.92498 0.03009 0.0
H510 H 0.83162 0.98233 0.94145 0.0
H511 H 0.83162 0.98233 0.94145 0.0
H512 H 0.87123 0.9728 0.72211 0.0
H513 H 0.9119 0.96318 0.68552 0.0
C514 C 0.49547 0.92262 0.12277 0.0
C515 C 0.523 0.90116 0.12 0.0
C516 C 0.54444 0.93014 0.9749 0.0
C517 C 0.51509 0.94884 0.97004 0.0
N518 N 0.45919 0.95726 0.02834 0.0
N519 N 0.56817 0.87864 0.024 0.0
C520 C 0.48955 0.94357 0.04091 0.0
C521 C 0.54596 0.90321 0.0405 0.0
N522 N 0.47598 0.92442 0.20542 0.0
N523 N 0.57141 0.93872 0.91939 0.0
H524 H 0.56879 0.85724 0.06601 0.0
H525 H 0.58315 0.87769 0.96112 0.0
H526 H 0.57224 0.95994 0.87657 0.0
H527 H 0.59412 0.92703 0.92537 0.0
H528 H 0.45767 0.94203 0.21467 0.0
H529 H 0.48061 0.91103 0.2693 0.0
H530 H 0.43888 0.95147 0.07279 0.0
H531 H 0.45329 0.97141 0.9671 0.0
C532 C 0.60425 0.57666 0.96168 0.0
C533 C 0.62984 0.55478 0.98328 0.0
C534 C 0.60811 0.5152 0.8632 0.0
C535 C 0.58342 0.53824 0.83608 0.0
N536 N 0.5628 0.59401 0.84589 0.0
N537 N 0.66089 0.50634 0.94226 0.0
C538 C 0.58271 0.56989 0.88181 0.0
C539 C 0.63316 0.52488 0.93069 0.0
N540 N 0.60071 0.60343 0.02135 0.0
N541 N 0.60696 0.48365 0.82861 0.0
H542 H 0.6799 0.51284 0.99031 0.0
H543 H 0.66655 0.48624 0.89767 0.0
H544 H 0.58907 0.47496 0.78018 0.0
H545 H 0.62192 0.46502 0.85542 0.0
H546 H 0.58123 0.61999 0.01768 0.0
H547 H 0.58123 0.61999 0.01768 0.0
H548 H 0.56426 0.61851 0.86752 0.0
H549 H 0.54708 0.59064 0.78639 0.0
C550 C 0.95393 0.64438 0.91731 0.0
C551 C 0.96679 0.64515 0.01477 0.0
C552 C 0.00739 0.60424 0.96395 0.0
C553 C 0.98939 0.59804 0.87674 0.0
N554 N 0.94095 0.60926 0.77977 0.0
N555 N 0.00367 0.62095 0.13476 0.0
C556 C 0.96141 0.61739 0.85559 0.0
C557 C 0.99303 0.62372 0.03964 0.0
N558 N 0.93588 0.66991 0.88155 0.0
N559 N 0.03899 0.59353 0.97144 0.0
H560 H 0.99298 0.63358 0.1937 0.0
H561 H 0.02087 0.60339 0.15591 0.0
H562 H 0.05133 0.58423 0.90965 0.0
H563 H 0.05395 0.59879 0.03199 0.0
H564 H 0.92841 0.67113 0.808 0.0
H565 H 0.93223 0.69166 0.92084 0.0
H566 H 0.91876 0.62131 0.76665 0.0
H567 H 0.94437 0.58813 0.73812 0.0
C568 C 0.04373 0.21172 0.26386 0.0
C569 C 0.023 0.22776 0.19541 0.0
C570 C 0.9823 0.18312 0.20963 0.0
C571 C 0.00018 0.17041 0.29064 0.0
N572 N 0.04833 0.17118 0.39432 0.0
N573 N 0.97467 0.22773 0.09294 0.0
C574 C 0.03143 0.18385 0.31618 0.0
C575 C 0.99305 0.21288 0.16433 0.0
N576 N 0.07499 0.22339 0.2793 0.0
N577 N 0.95531 0.16629 0.17581 0.0
H578 H 0.98305 0.24828 0.05404 0.0
H579 H 0.95094 0.22044 0.0735 0.0
H580 H 0.94746 0.14415 0.207 0.0
H581 H 0.94243 0.1724 0.11228 0.0
H582 H 0.09257 0.21122 0.32106 0.0
H583 H 0.08435 0.24412 0.2435 0.0
H584 H 0.06915 0.18213 0.42507 0.0
H585 H 0.04059 0.1502 0.43199 0.0
C586 C 0.2925 0.99213 0.31647 0.0
C587 C 0.29941 0.00458 0.22056 0.0
C588 C 0.35684 0.98698 0.23449 0.0
C589 C 0.34862 0.97018 0.3226 0.0
N590 N 0.30901 0.95543 0.44847 0.0
N591 N 0.33687 0.00909 0.08135 0.0
C592 C 0.31659 0.97263 0.36466 0.0
C593 C 0.33139 0.00125 0.17819 0.0
N594 N 0.26305 0.99926 0.3613 0.0
N595 N 0.38903 0.98892 0.20401 0.0
H596 H 0.31888 0.01905 0.0362 0.0
H597 H 0.35828 0.00272 0.04304 0.0
H598 H 0.40849 0.97871 0.24327 0.0
H599 H 0.39682 0.00306 0.14443 0.0
H600 H 0.25747 0.99331 0.43434 0.0
H601 H 0.24513 0.01367 0.32769 0.0
H602 H 0.28518 0.95312 0.47694 0.0
H603 H 0.32653 0.9419 0.48694 0.0
C604 C 0.53357 0.29631 0.20855 0.0
C605 C 0.4986 0.29374 0.21535 0.0
C606 C 0.49677 0.34594 0.30656 0.0
C607 C 0.5317 0.34809 0.30083 0.0
N608 N 0.58166 0.33194 0.21796 0.0
N609 N 0.44666 0.321 0.24276 0.0
C610 C 0.54945 0.32551 0.24158 0.0
C611 C 0.48009 0.32019 0.25541 0.0
N612 N 0.55197 0.2701 0.17818 0.0
N613 N 0.4796 0.36745 0.36449 0.0
H614 H 0.43388 0.30297 0.20331 0.0
H615 H 0.43216 0.34107 0.26219 0.0
H616 H 0.49057 0.38754 0.39924 0.0
H617 H 0.45475 0.36426 0.38197 0.0
H618 H 0.57764 0.26965 0.1821 0.0
H619 H 0.54176 0.24762 0.15737 0.0
H620 H 0.59509 0.318 0.16728 0.0
H621 H 0.59367 0.35334 0.24119 0.0
C622 C 0.2292 0.51378 0.22385 0.0
C623 C 0.22476 0.47934 0.21287 0.0
C624 C 0.17162 0.48244 0.29944 0.0
C625 C 0.17632 0.51678 0.31214 0.0
N626 N 0.20308 0.5662 0.25543 0.0
N627 N 0.1869 0.43365 0.20742 0.0
C628 C 0.2029 0.53279 0.2631 0.0
C629 C 0.19424 0.46464 0.23958 0.0
N630 N 0.25914 0.5281 0.20456 0.0
N631 N 0.14721 0.46621 0.34965 0.0
H632 H 0.20291 0.42034 0.16194 0.0
H633 H 0.16372 0.4228 0.21672 0.0
H634 H 0.12971 0.47788 0.39379 0.0
H635 H 0.14598 0.44071 0.35302 0.0
H636 H 0.26456 0.55243 0.22235 0.0
H637 H 0.27949 0.5152 0.1781 0.0
H638 H 0.22037 0.57911 0.21315 0.0
H639 H 0.1838 0.58057 0.28285 0.0
C640 C 0.00349 0.79802 0.982 0.0
C641 C 0.99428 0.80168 0.08298 0.0
C642 C 0.03268 0.84813 0.09961 0.0
C643 C 0.04126 0.8449 0.99812 0.0
N644 N 0.02853 0.82305 0.83717 0.0
N645 N 0.99317 0.83523 0.22962 0.0
C646 C 0.0245 0.82188 0.93749 0.0
C647 C 0.00672 0.82839 0.13923 0.0
N648 N 0.99399 0.77073 0.9301 0.0
N649 N 0.05023 0.86895 0.15905 0.0
H650 H 0.97354 0.82165 0.25903 0.0
H651 H 0.99936 0.85584 0.27133 0.0
H652 H 0.06916 0.88405 0.13247 0.0
H653 H 0.04769 0.86953 0.23571 0.0
H654 H 0.0032 0.76501 0.8601 0.0
H655 H 0.97905 0.75225 0.95967 0.0
H656 H 0.01447 0.8091 0.78818 0.0
H657 H 0.0437 0.84038 0.80255 0.0
C658 C 0.69844 0.97942 0.1255 0.0
C659 C 0.70951 0.97363 0.22336 0.0
C660 C 0.65267 0.97773 0.28418 0.0
C661 C 0.64127 0.98169 0.18554 0.0
N662 N 0.65308 0.97344 0.01176 0.0
N663 N 0.69547 0.95534 0.38793 0.0
C664 C 0.66409 0.97839 0.10588 0.0
C665 C 0.68602 0.96878 0.30017 0.0
N666 N 0.72019 0.98779 0.05201 0.0
N667 N 0.63259 0.98436 0.36306 0.0
H668 H 0.71957 0.94759 0.40078 0.0
H669 H 0.67875 0.94853 0.44317 0.0
H670 H 0.60935 0.99486 0.35635 0.0
H671 H 0.64047 0.98278 0.43593 0.0
H672 H 0.71255 0.9953 0.9822 0.0
H673 H 0.74547 0.99059 0.06295 0.0
H674 H 0.66887 0.96797 0.95289 0.0
H675 H 0.62812 0.971 0.99501 0.0
C676 C 0.53335 0.72949 0.07011 0.0
C677 C 0.51724 0.72773 0.16374 0.0
C678 C 0.47687 0.68885 0.09734 0.0
C679 C 0.48991 0.69395 0.00089 0.0
N680 N 0.53152 0.71761 0.89392 0.0
N681 N 0.48813 0.6906 0.27226 0.0
C682 C 0.51859 0.71375 0.98682 0.0
C683 C 0.49327 0.7028 0.17943 0.0
N684 N 0.56422 0.74302 0.0631 0.0
N685 N 0.44783 0.67209 0.11059 0.0
H686 H 0.50286 0.69752 0.33189 0.0
H687 H 0.47302 0.67036 0.28673 0.0
H688 H 0.43415 0.66237 0.05228 0.0
H689 H 0.43571 0.67071 0.17867 0.0
H690 H 0.57822 0.74365 0.9984 0.0
H691 H 0.57808 0.74916 0.12512 0.0
H692 H 0.54961 0.73488 0.87597 0.0
H693 H 0.52298 0.70453 0.83281 0.0
C694 C 0.81947 0.52173 0.20318 0.0
C695 C 0.78786 0.50806 0.18414 0.0
C696 C 0.81366 0.45835 0.11663 0.0
C697 C 0.84512 0.47133 0.14141 0.0
N698 N 0.87766 0.51158 0.22824 0.0
N699 N 0.75416 0.4618 0.13509 0.0
C700 C 0.84792 0.50192 0.1907 0.0
C701 C 0.78474 0.47576 0.14525 0.0
N702 N 0.82246 0.55388 0.23081 0.0
N703 N 0.81149 0.43011 0.06213 0.0
H704 H 0.7323 0.47437 0.14961 0.0
H705 H 0.7504 0.43712 0.11817 0.0
H706 H 0.83207 0.41629 0.04195 0.0
H707 H 0.78962 0.42143 0.03129 0.0
H708 H 0.84504 0.56624 0.23306 0.0
H709 H 0.80224 0.56887 0.24549 0.0
H710 H 0.88045 0.53178 0.27484 0.0
H711 H 0.89891 0.49742 0.22097 0.0
C712 C 0.01366 0.11577 0.93774 0.0
C713 C 0.03879 0.13623 0.89585 0.0
C714 C 0.0323 0.1087 0.73689 0.0
C715 C 0.01214 0.08479 0.78268 0.0
N716 N 0.97778 0.06777 0.91816 0.0
N717 N 0.07496 0.14943 0.75803 0.0
C718 C 0.00067 0.08923 0.88062 0.0
C719 C 0.04853 0.13237 0.79555 0.0
N720 N 0.00264 0.12164 0.03186 0.0
N721 N 0.03549 0.10882 0.63652 0.0
H722 H 0.0892 0.16568 0.79967 0.0
H723 H 0.08506 0.14489 0.68834 0.0
H724 H 0.02257 0.09225 0.59265 0.0
H725 H 0.04737 0.12745 0.59726 0.0
H726 H 0.9847 0.10786 0.06832 0.0
H727 H 0.01101 0.14128 0.07428 0.0
H728 H 0.96871 0.06819 0.99015 0.0
H729 H 0.9674 0.04908 0.87542 0.0
C730 C 0.3713 0.06169 0.92457 0.0
C731 C 0.34696 0.05872 0.84985 0.0
C732 C 0.38852 0.03607 0.73692 0.0
C733 C 0.41158 0.0342 0.81605 0.0
N734 N 0.42214 0.04052 0.99089 0.0
N735 N 0.33113 0.03904 0.68864 0.0
C736 C 0.40227 0.04595 0.91136 0.0
C737 C 0.35512 0.04437 0.75753 0.0
N738 N 0.36465 0.07872 0.00962 0.0
N739 N 0.3988 0.0327 0.64103 0.0
H740 H 0.30673 0.04647 0.6987 0.0
H741 H 0.33506 0.0252 0.62473 0.0
H742 H 0.42338 0.02968 0.62079 0.0
H743 H 0.38358 0.03705 0.58071 0.0
H744 H 0.3828 0.08567 0.05984 0.0
H745 H 0.34145 0.08793 0.02758 0.0
H746 H 0.41635 0.04771 0.06273 0.0
H747 H 0.44351 0.02655 0.98727 0.0
C748 C 0.50752 0.37149 0.7652 0.0
C749 C 0.51354 0.36977 0.86825 0.0
C750 C 0.52572 0.42863 0.87399 0.0
C751 C 0.51759 0.43092 0.77236 0.0
N752 N 0.50764 0.40404 0.61566 0.0
N753 N 0.52626 0.39602 0.02358 0.0
C754 C 0.5107 0.40217 0.71612 0.0
C755 C 0.52222 0.39813 0.92337 0.0
N756 N 0.49639 0.34422 0.71586 0.0
N757 N 0.53887 0.45523 0.92154 0.0
H758 H 0.52625 0.37379 0.06172 0.0
H759 H 0.52788 0.41634 0.07017 0.0
H760 H 0.54183 0.47792 0.88753 0.0
H761 H 0.54915 0.45443 0.9918 0.0
H762 H 0.48742 0.34448 0.64398 0.0
H763 H 0.49383 0.32126 0.74902 0.0
H764 H 0.50724 0.38365 0.56935 0.0
H765 H 0.50771 0.42601 0.57667 0.0
C766 C 0.13624 0.50811 0.9185 0.0
C767 C 0.16127 0.50126 0.8479 0.0
C768 C 0.12061 0.50288 0.71468 0.0
C769 C 0.09617 0.51301 0.78398 0.0
N770 N 0.0812 0.52779 0.95061 0.0
N771 N 0.17881 0.49444 0.67875 0.0
C772 C 0.10422 0.51641 0.88547 0.0
C773 C 0.15387 0.49924 0.74586 0.0
N774 N 0.14248 0.50466 0.01733 0.0
N775 N 0.11182 0.49546 0.62 0.0
H776 H 0.20346 0.49199 0.69917 0.0
H777 H 0.17564 0.4949 0.60255 0.0
H778 H 0.0882 0.4993 0.59319 0.0
H779 H 0.12725 0.48364 0.56976 0.0
H780 H 0.12422 0.50531 0.07184 0.0
H781 H 0.16549 0.49816 0.04502 0.0
H782 H 0.08664 0.53539 0.02229 0.0
H783 H 0.05685 0.53155 0.93037 0.0
C784 C 0.98259 0.85787 0.52696 0.0
C785 C 0.01174 0.8386 0.52691 0.0
C786 C 0.04131 0.88182 0.6158 0.0
C787 C 0.01242 0.90141 0.614 0.0
N788 N 0.95337 0.90377 0.60001 0.0
N789 N 0.06484 0.82754 0.59766 0.0
C790 C 0.98229 0.88795 0.57999 0.0
C791 C 0.03981 0.84908 0.58028 0.0
N792 N 0.9559 0.84867 0.47186 0.0
N793 N 0.07062 0.89497 0.64577 0.0
H794 H 0.06403 0.80318 0.57361 0.0
H795 H 0.08455 0.83269 0.64441 0.0
H796 H 0.07272 0.91895 0.6706 0.0
H797 H 0.0932 0.8831 0.6384 0.0
H798 H 0.93557 0.86371 0.46082 0.0
H799 H 0.95478 0.82699 0.43116 0.0
H800 H 0.93019 0.89378 0.5852 0.0
H801 H 0.95264 0.92556 0.64049 0.0
C802 C 0.63552 0.04548 0.51999 0.0
C803 C 0.65982 0.03393 0.58582 0.0
C804 C 0.62018 0.99435 0.6537 0.0
C805 C 0.59438 0.0117 0.60725 0.0
N806 N 0.57716 0.05177 0.48692 0.0
N807 N 0.67713 0.99509 0.70828 0.0
C808 C 0.60196 0.03594 0.53495 0.0
C809 C 0.65283 0.0072 0.64937 0.0
N810 N 0.64459 0.06593 0.44458 0.0
N811 N 0.61318 0.96559 0.70127 0.0
H812 H 0.70164 0.00299 0.70259 0.0
H813 H 0.67286 0.9782 0.76462 0.0
H814 H 0.58948 0.9554 0.70159 0.0
H815 H 0.63107 0.95039 0.73123 0.0
H816 H 0.62871 0.07297 0.38837 0.0
H817 H 0.66904 0.07329 0.43321 0.0
H818 H 0.58083 0.07263 0.44387 0.0
H819 H 0.55247 0.04495 0.49328 0.0
C820 C 0.53962 0.66886 0.61915 0.0
C821 C 0.51105 0.6837 0.57983 0.0
C822 C 0.48996 0.6298 0.52927 0.0
C823 C 0.51665 0.61433 0.578 0.0
N824 N 0.57309 0.62036 0.63618 0.0
N825 N 0.45759 0.67858 0.50302 0.0
C826 C 0.54339 0.6341 0.61341 0.0
C827 C 0.48577 0.66424 0.53695 0.0
N828 N 0.56239 0.68794 0.6671 0.0
N829 N 0.47083 0.61199 0.46567 0.0
H830 H 0.45438 0.70388 0.49852 0.0
H831 H 0.43642 0.66529 0.48491 0.0
H832 H 0.47633 0.58786 0.44716 0.0
H833 H 0.45292 0.62209 0.42026 0.0
H834 H 0.58139 0.67849 0.70977 0.0
H835 H 0.56058 0.71343 0.67193 0.0
H836 H 0.59452 0.63402 0.64791 0.0
H837 H 0.5777 0.59536 0.63687 0.0
C838 C 0.86238 0.54309 0.5201 0.0
C839 C 0.84318 0.51529 0.54738 0.0
C840 C 0.89076 0.49185 0.63112 0.0
C841 C 0.90991 0.52023 0.60749 0.0
N842 N 0.90991 0.57679 0.55538 0.0
N843 N 0.83626 0.46802 0.65203 0.0
C844 C 0.89452 0.54701 0.5595 0.0
C845 C 0.85652 0.49116 0.61011 0.0
N846 N 0.85069 0.56521 0.45334 0.0
N847 N 0.90536 0.46472 0.66896 0.0
H848 H 0.81086 0.46721 0.63981 0.0
H849 H 0.84399 0.45194 0.70689 0.0
H850 H 0.93009 0.4643 0.68631 0.0
H851 H 0.8936 0.44201 0.67551 0.0
H852 H 0.86547 0.58333 0.42104 0.0
H853 H 0.82704 0.56403 0.42404 0.0
H854 H 0.89842 0.59817 0.53171 0.0
H855 H 0.93317 0.58071 0.58482 0.0
loop_
_geom_bond_atom_site_label_1
_geom_bond_atom_site_label_2
_geom_bond_distance
_geom_bond_site_symmetry_2
_ccdc_geom_bond_type
O0 Cd1 2.300 . S
O0 C7 1.275 . S
Cd1 O0 2.300 . S
Cd1 O9 2.381 . S
Cd1 O10 2.378 . S
O2 Cd3 2.385 . S
O2 C7 1.255 . S
Cd3 O2 2.385 . S
Cd3 O4 2.317 . S
O4 Cd3 2.317 . S
O4 C5 1.232 . S
C5 O4 1.232 . S
C5 O6 1.218 . S
O6 C5 1.218 . S
C7 O0 1.275 . S
C7 O2 1.255 . S
C8 O9 1.258 . S
C8 O10 1.256 . S
O9 Cd1 2.381 . S
O9 C8 1.258 . S
O10 Cd1 2.378 . S
O10 C8 1.256 . S
O11 Cd12 2.292 1_655 S
O11 C18 1.275 . S
Cd12 O11 2.292 1_455 S
Cd12 O20 2.372 1_455 S
Cd12 O21 2.380 . S
O13 Cd14 2.385 . S
O13 C18 1.255 1_455 S
Cd14 O13 2.385 . S
Cd14 O15 2.317 . S
O15 Cd14 2.317 . S
O15 C16 1.232 1_455 S
C16 O15 1.232 1_655 S
C16 O17 1.218 1_655 S
O17 C16 1.218 1_455 S
C18 O11 1.275 . S
C18 O13 1.255 1_655 S
C19 O20 1.258 . S
C19 O21 1.256 1_655 S
O20 Cd12 2.372 1_655 S
O20 C19 1.258 . S
O21 Cd12 2.380 . S
O21 C19 1.256 1_455 S
O22 Cd23 2.300 1_565 S
O22 C29 1.275 . S
Cd23 O22 2.300 1_545 S
Cd23 O31 2.381 1_545 S
Cd23 O32 2.378 . S
O24 Cd25 2.385 . S
O24 C29 1.255 1_545 S
Cd25 O24 2.385 . S
Cd25 O26 2.317 . S
O26 Cd25 2.317 . S
O26 C27 1.232 1_545 S
C27 O26 1.232 1_565 S
C27 O28 1.218 1_565 S
O28 C27 1.218 1_545 S
C29 O22 1.275 . S
C29 O24 1.255 1_565 S
C30 O31 1.258 . S
C30 O32 1.256 1_565 S
O31 Cd23 2.381 1_565 S
O31 C30 1.258 . S
O32 Cd23 2.378 . S
O32 C30 1.256 1_545 S
O33 Cd34 2.300 . S
O33 C40 1.275 . S
Cd34 O33 2.300 . S
Cd34 O42 2.381 . S
Cd34 O43 2.378 . S
O35 Cd36 2.385 . S
O35 C40 1.255 . S
Cd36 O35 2.385 . S
Cd36 O37 2.317 . S
O37 Cd36 2.317 . S
O37 C38 1.232 . S
C38 O37 1.232 . S
C38 O39 1.218 . S
O39 C38 1.218 . S
C40 O33 1.275 . S
C40 O35 1.255 . S
C41 O42 1.258 . S
C41 O43 1.256 . S
O42 Cd34 2.381 . S
O42 C41 1.258 . S
O43 Cd34 2.378 . S
O43 C41 1.256 . S
O44 Cd45 2.300 . S
O44 C51 1.275 . S
Cd45 O44 2.300 . S
Cd45 O53 2.381 . S
Cd45 O54 2.378 . S
O46 Cd47 2.385 1_554 S
O46 C51 1.255 . S
Cd47 O46 2.385 1_556 S
Cd47 O48 2.317 . S
O48 Cd47 2.317 . S
O48 C49 1.232 . S
C49 O48 1.232 . S
C49 O50 1.218 . S
O50 C49 1.218 . S
C51 O44 1.275 . S
C51 O46 1.255 . S
C52 O53 1.258 . S
C52 O54 1.256 . S
O53 Cd45 2.381 . S
O53 C52 1.258 . S
O54 Cd45 2.378 . S
O54 C52 1.256 . S
O55 Cd56 2.300 . S
O55 C62 1.275 . S
Cd56 O55 2.300 . S
Cd56 O64 2.381 . S
Cd56 O65 2.378 . S
O57 Cd58 2.385 1_554 S
O57 C62 1.255 . S
Cd58 O57 2.385 1_556 S
Cd58 O59 2.317 . S
O59 Cd58 2.317 . S
O59 C60 1.232 . S
C60 O59 1.232 . S
C60 O61 1.218 . S
O61 C60 1.218 . S
C62 O55 1.275 . S
C62 O57 1.255 . S
C63 O64 1.258 . S
C63 O65 1.256 . S
O64 Cd56 2.381 . S
O64 C63 1.258 . S
O65 Cd56 2.378 . S
O65 C63 1.256 . S
O66 Cd67 2.300 . S
O66 C73 1.275 . S
Cd67 O66 2.300 . S
Cd67 O75 2.381 . S
Cd67 O76 2.378 . S
O68 Cd69 2.385 1_554 S
O68 C73 1.255 . S
Cd69 O68 2.385 1_556 S
Cd69 O70 2.317 . S
O70 Cd69 2.317 . S
O70 C71 1.232 . S
C71 O70 1.232 . S
C71 O72 1.218 . S
O72 C71 1.218 . S
C73 O66 1.275 . S
C73 O68 1.255 . S
C74 O75 1.258 . S
C74 O76 1.256 . S
O75 Cd67 2.381 . S
O75 C74 1.258 . S
O76 Cd67 2.378 . S
O76 C74 1.256 . S
O77 Cd78 2.300 . S
O77 C84 1.275 . S
Cd78 O77 2.300 . S
Cd78 O86 2.381 . S
Cd78 O87 2.378 . S
O79 Cd80 2.385 1_554 S
O79 C84 1.255 . S
Cd80 O79 2.385 1_556 S
Cd80 O81 2.317 . S
O81 Cd80 2.317 . S
O81 C82 1.232 . S
C82 O81 1.232 . S
C82 O83 1.218 . S
O83 C82 1.218 . S
C84 O77 1.275 . S
C84 O79 1.255 . S
C85 O86 1.258 . S
C85 O87 1.256 . S
O86 Cd78 2.381 . S
O86 C85 1.258 . S
O87 Cd78 2.378 . S
O87 C85 1.256 . S
Eu88 N117 2.600 . S
Eu88 N123 2.562 . S
Eu88 O132 2.462 . S
Eu88 O133 2.373 1_545 S
Eu88 O135 2.432 . S
Eu88 O136 2.291 1_655 S
Eu88 O140 2.335 1_655 S
Eu88 O143 2.372 . S
Eu88 C152 2.787 . S
C89 N90 1.365 . S
C89 C92 1.405 . S
C89 C96 1.448 1_556 S
N90 C89 1.365 . S
N90 C93 1.319 . S
N90 Eu99 2.600 1_545 S
C91 C93 1.397 . S
C91 C94 1.367 . S
C91 H111 0.931 . S
C92 C89 1.405 . S
C92 C94 1.403 . S
C92 C98 1.439 1_556 S
C93 N90 1.319 . S
C93 C91 1.397 . S
C93 H104 0.930 1_545 S
C94 C91 1.367 . S
C94 C92 1.403 . S
C94 H115 0.929 . S
C95 C96 1.430 . S
C95 C97 1.387 . S
C95 C101 1.404 . S
C96 C89 1.448 1_554 S
C96 C95 1.430 . S
C96 N100 1.351 1_554 S
C97 C95 1.387 . S
C97 C98 1.374 . S
C97 H112 0.931 . S
C98 C92 1.439 1_554 S
C98 C97 1.374 . S
C98 H113 0.931 . S
Eu99 N90 2.600 1_565 S
Eu99 N100 2.562 1_565 S
Eu99 O134 2.335 . S
Eu99 O137 2.372 . S
Eu99 O138 2.462 . S
Eu99 O139 2.373 1_565 S
Eu99 O141 2.432 . S
Eu99 O142 2.291 1_465 S
Eu99 C163 2.787 . S
N100 C96 1.351 1_556 S
N100 Eu99 2.562 1_545 S
N100 C102 1.325 1_556 S
C101 C95 1.404 . S
C101 C103 1.366 . S
C101 H109 0.930 . S
C102 N100 1.325 1_554 S
C102 C103 1.416 . S
C102 H108 0.929 1_455 S
C103 C101 1.366 . S
C103 C102 1.416 . S
C103 H105 0.933 . S
H104 C93 0.930 1_565 S
H105 C103 0.933 . S
H106 C121 0.930 . S
H107 C128 0.930 1_455 S
H108 C102 0.929 1_655 S
H109 C101 0.930 . S
H110 C124 0.929 1_455 S
H111 C91 0.931 . S
H112 C97 0.931 . S
H113 C98 0.931 . S
H114 C119 0.931 . S
H115 C94 0.929 . S
H116 C127 0.930 . S
N117 Eu88 2.600 . S
N117 C118 1.368 . S
N117 C121 1.319 . S
C118 N117 1.368 . S
C118 C120 1.403 1_545 S
C118 C126 1.447 1_545 S
C119 H114 0.931 . S
C119 C121 1.397 . S
C119 C122 1.367 1_545 S
C120 C118 1.403 1_565 S
C120 C122 1.403 . S
C120 C153 1.439 . S
C121 H106 0.930 . S
C121 N117 1.319 . S
C121 C119 1.397 . S
C122 C119 1.367 1_565 S
C122 C120 1.403 . S
C122 H129 0.929 . S
N123 Eu88 2.562 . S
N123 C124 1.325 . S
N123 C126 1.351 1_545 S
C124 H110 0.929 1_655 S
C124 N123 1.325 . S
C124 C128 1.416 1_545 S
C125 C126 1.430 . S
C125 C127 1.404 . S
C125 C154 1.387 . S
C126 C118 1.447 1_565 S
C126 N123 1.351 1_565 S
C126 C125 1.430 . S
C127 H116 0.930 . S
C127 C125 1.404 . S
C127 C128 1.366 . S
C128 H107 0.930 1_655 S
C128 C124 1.416 1_565 S
C128 C127 1.366 . S
H129 C122 0.929 . S
H130 C153 0.931 . S
H131 C154 0.931 . S
O132 Eu88 2.462 . S
O132 C152 1.252 . S
O133 Eu88 2.373 1_565 S
O133 C144 1.249 . S
O134 Eu99 2.335 . S
O134 C144 1.264 1_455 S
O135 Eu88 2.432 . S
O135 C152 1.268 . S
O136 Eu88 2.291 1_455 S
O136 C151 1.255 . S
O137 Eu99 2.372 . S
O137 C151 1.257 1_565 S
O138 Eu99 2.462 . S
O138 C163 1.252 . S
O139 Eu99 2.373 1_545 S
O139 C155 1.249 . S
O140 Eu88 2.335 1_455 S
O140 C155 1.264 . S
O141 Eu99 2.432 . S
O141 C163 1.268 . S
O142 Eu99 2.291 1_645 S
O142 C162 1.255 . S
O143 Eu88 2.372 . S
O143 C162 1.257 . S
C144 O133 1.249 . S
C144 O134 1.264 1_655 S
C145 C148 1.382 . S
C145 C150 1.390 . S
C145 C152 1.506 . S
C146 C147 1.398 . S
C146 C150 1.392 . S
C147 C146 1.398 . S
C147 C149 1.372 . S
C147 H164 0.931 . S
C148 C145 1.382 . S
C148 C149 1.390 . S
C148 H165 0.931 . S
C149 C147 1.372 . S
C149 C148 1.390 . S
C149 H166 0.929 . S
C150 C145 1.390 . S
C150 C146 1.392 . S
C150 H167 0.930 1_655 S
C151 O136 1.255 . S
C151 O137 1.257 1_545 S
C152 Eu88 2.787 . S
C152 O132 1.252 . S
C152 O135 1.268 . S
C152 C145 1.506 . S
C153 C120 1.439 . S
C153 H130 0.931 . S
C153 C154 1.374 . S
C154 C125 1.387 . S
C154 H131 0.931 . S
C154 C153 1.374 . S
C155 O139 1.249 . S
C155 O140 1.264 . S
C156 C159 1.382 . S
C156 C160 1.390 1_556 S
C156 C163 1.506 . S
C157 C158 1.398 . S
C157 C160 1.392 . S
C158 C157 1.398 . S
C158 C161 1.372 1_554 S
C158 H168 0.931 . S
C159 C156 1.382 . S
C159 C161 1.390 . S
C159 H169 0.931 . S
C160 C156 1.390 1_554 S
C160 C157 1.392 . S
C160 H170 0.930 . S
C161 C158 1.372 1_556 S
C161 C159 1.390 . S
C161 H171 0.929 . S
C162 O142 1.255 . S
C162 O143 1.257 . S
C163 Eu99 2.787 . S
C163 O138 1.252 . S
C163 O141 1.268 . S
C163 C156 1.506 . S
H164 C147 0.931 . S
H165 C148 0.931 . S
H166 C149 0.929 . S
H167 C150 0.930 1_455 S
H168 C158 0.931 . S
H169 C159 0.931 . S
H170 C160 0.930 . S
H171 C161 0.929 . S
Eu172 N201 2.600 . S
Eu172 N207 2.562 . S
Eu172 O216 2.462 . S
Eu172 O217 2.373 . S
Eu172 O219 2.432 . S
Eu172 O220 2.291 . S
Eu172 O224 2.335 1_545 S
Eu172 O227 2.372 . S
Eu172 C236 2.787 . S
C173 N174 1.365 . S
C173 C176 1.405 . S
C173 C180 1.448 . S
N174 C173 1.365 . S
N174 C177 1.319 . S
N174 Eu183 2.600 . S
C175 C177 1.397 . S
C175 C178 1.367 . S
C175 H195 0.931 . S
C176 C173 1.405 . S
C176 C178 1.403 . S
C176 C182 1.439 . S
C177 N174 1.319 . S
C177 C175 1.397 . S
C177 H188 0.930 . S
C178 C175 1.367 . S
C178 C176 1.403 . S
C178 H199 0.929 . S
C179 C180 1.430 . S
C179 C181 1.387 . S
C179 C185 1.404 . S
C180 C173 1.448 . S
C180 C179 1.430 . S
C180 N184 1.351 . S
C181 C179 1.387 . S
C181 C182 1.374 . S
C181 H196 0.931 . S
C182 C176 1.439 . S
C182 C181 1.374 . S
C182 H197 0.931 . S
Eu183 N174 2.600 . S
Eu183 N184 2.562 . S
Eu183 O218 2.335 1_565 S
Eu183 O221 2.372 . S
Eu183 O222 2.462 . S
Eu183 O223 2.373 . S
Eu183 O225 2.432 . S
Eu183 O226 2.291 1_565 S
Eu183 C247 2.787 . S
N184 C180 1.351 . S
N184 Eu183 2.562 . S
N184 C186 1.325 . S
C185 C179 1.404 . S
C185 C187 1.366 . S
C185 H193 0.930 . S
C186 N184 1.325 . S
C186 C187 1.416 . S
C186 H192 0.929 . S
C187 C185 1.366 . S
C187 C186 1.416 . S
C187 H189 0.930 . S
H188 C177 0.930 . S
H189 C187 0.930 . S
H190 C205 0.930 . S
H191 C212 0.930 . S
H192 C186 0.929 . S
H193 C185 0.930 . S
H194 C208 0.929 . S
H195 C175 0.931 . S
H196 C181 0.931 . S
H197 C182 0.931 . S
H198 C203 0.931 . S
H199 C178 0.929 . S
H200 C211 0.930 . S
N201 Eu172 2.600 . S
N201 C202 1.365 . S
N201 C205 1.319 . S
C202 N201 1.365 . S
C202 C204 1.405 . S
C202 C210 1.448 . S
C203 H198 0.931 . S
C203 C205 1.397 . S
C203 C206 1.367 . S
C204 C202 1.405 . S
C204 C206 1.403 . S
C204 C237 1.439 . S
C205 H190 0.930 . S
C205 N201 1.319 . S
C205 C203 1.397 . S
C206 C203 1.367 . S
C206 C204 1.403 . S
C206 H213 0.929 . S
N207 Eu172 2.562 . S
N207 C208 1.325 . S
N207 C210 1.351 . S
C208 H194 0.929 . S
C208 N207 1.325 . S
C208 C212 1.416 . S
C209 C210 1.430 . S
C209 C211 1.404 . S
C209 C238 1.387 . S
C210 C202 1.448 . S
C210 N207 1.351 . S
C210 C209 1.430 . S
C211 H200 0.930 . S
C211 C209 1.404 . S
C211 C212 1.366 . S
C212 H191 0.930 . S
C212 C208 1.416 . S
C212 C211 1.366 . S
H213 C206 0.929 . S
H214 C237 0.931 . S
H215 C238 0.931 . S
O216 Eu172 2.462 . S
O216 C236 1.252 . S
O217 Eu172 2.373 . S
O217 C228 1.249 . S
O218 Eu183 2.335 1_545 S
O218 C228 1.264 . S
O219 Eu172 2.432 . S
O219 C236 1.268 . S
O220 Eu172 2.291 . S
O220 C235 1.255 1_545 S
O221 Eu183 2.372 . S
O221 C235 1.257 . S
O222 Eu183 2.462 . S
O222 C247 1.252 . S
O223 Eu183 2.373 . S
O223 C239 1.249 . S
O224 Eu172 2.335 1_565 S
O224 C239 1.264 . S
O225 Eu183 2.432 . S
O225 C247 1.268 . S
O226 Eu183 2.291 1_545 S
O226 C246 1.255 . S
O227 Eu172 2.372 . S
O227 C246 1.257 . S
C228 O217 1.249 . S
C228 O218 1.264 . S
C229 C232 1.382 . S
C229 C234 1.390 . S
C229 C236 1.506 1_554 S
C230 C231 1.398 . S
C230 C234 1.392 . S
C231 C230 1.398 . S
C231 C233 1.372 . S
C231 H248 0.931 . S
C232 C229 1.382 . S
C232 C233 1.390 . S
C232 H249 0.931 . S
C233 C231 1.372 . S
C233 C232 1.390 . S
C233 H250 0.929 . S
C234 C229 1.390 . S
C234 C230 1.392 . S
C234 H251 0.930 1_554 S
C235 O220 1.255 1_565 S
C235 O221 1.257 . S
C236 Eu172 2.787 . S
C236 O216 1.252 . S
C236 O219 1.268 . S
C236 C229 1.506 1_556 S
C237 C204 1.439 . S
C237 H214 0.931 . S
C237 C238 1.374 . S
C238 C209 1.387 . S
C238 H215 0.931 . S
C238 C237 1.374 . S
C239 O223 1.249 . S
C239 O224 1.264 . S
C240 C243 1.382 . S
C240 C244 1.390 . S
C240 C247 1.506 . S
C241 C242 1.398 . S
C241 C244 1.392 . S
C242 C241 1.398 . S
C242 C245 1.372 . S
C242 H252 0.931 . S
C243 C240 1.382 . S
C243 C245 1.390 . S
C243 H253 0.931 . S
C244 C240 1.390 . S
C244 C241 1.392 . S
C244 H254 0.930 1_565 S
C245 C242 1.372 . S
C245 C243 1.390 . S
C245 H255 0.929 . S
C246 O226 1.255 . S
C246 O227 1.257 . S
C247 Eu183 2.787 . S
C247 O222 1.252 . S
C247 O225 1.268 . S
C247 C240 1.506 . S
H248 C231 0.931 . S
H249 C232 0.931 . S
H250 C233 0.929 . S
H251 C234 0.930 1_556 S
H252 C242 0.931 . S
H253 C243 0.931 . S
H254 C244 0.930 1_545 S
H255 C245 0.929 . S
Eu256 N285 2.600 . S
Eu256 N291 2.562 . S
Eu256 O300 2.462 . S
Eu256 O301 2.373 . S
Eu256 O303 2.432 . S
Eu256 O304 2.291 . S
Eu256 O308 2.335 . S
Eu256 O311 2.372 . S
Eu256 C320 2.787 . S
C257 N258 1.365 . S
C257 C260 1.405 . S
C257 C264 1.448 1_556 S
N258 C257 1.365 . S
N258 C261 1.319 . S
N258 Eu267 2.600 . S
C259 C261 1.397 . S
C259 C262 1.367 . S
C259 H279 0.931 . S
C260 C257 1.405 . S
C260 C262 1.403 . S
C260 C266 1.439 1_556 S
C261 N258 1.319 . S
C261 C259 1.397 . S
C261 H272 0.930 . S
C262 C259 1.367 . S
C262 C260 1.403 . S
C262 H283 0.929 . S
C263 C264 1.430 . S
C263 C265 1.387 . S
C263 C269 1.404 . S
C264 C257 1.448 1_554 S
C264 C263 1.430 . S
C264 N268 1.351 1_554 S
C265 C263 1.387 . S
C265 C266 1.374 . S
C265 H280 0.931 . S
C266 C260 1.439 1_554 S
C266 C265 1.374 . S
C266 H281 0.931 . S
Eu267 N258 2.600 . S
Eu267 N268 2.562 . S
Eu267 O302 2.335 . S
Eu267 O305 2.372 . S
Eu267 O306 2.462 . S
Eu267 O307 2.373 . S
Eu267 O309 2.432 . S
Eu267 O310 2.291 . S
Eu267 C331 2.787 . S
N268 C264 1.351 1_556 S
N268 Eu267 2.562 . S
N268 C270 1.325 1_556 S
C269 C263 1.404 . S
C269 C271 1.366 . S
C269 H277 0.930 . S
C270 N268 1.325 1_554 S
C270 C271 1.416 . S
C270 H276 0.929 . S
C271 C269 1.366 . S
C271 C270 1.416 . S
C271 H273 0.930 . S
H272 C261 0.930 . S
H273 C271 0.930 . S
H274 C289 0.930 . S
H275 C296 0.930 . S
H276 C270 0.929 . S
H277 C269 0.930 . S
H278 C292 0.929 . S
H279 C259 0.931 . S
H280 C265 0.931 . S
H281 C266 0.931 . S
H282 C287 0.931 . S
H283 C262 0.929 . S
H284 C295 0.930 . S
N285 Eu256 2.600 . S
N285 C286 1.365 . S
N285 C289 1.319 . S
C286 N285 1.365 . S
C286 C288 1.405 . S
C286 C294 1.448 . S
C287 H282 0.931 . S
C287 C289 1.397 . S
C287 C290 1.367 . S
C288 C286 1.405 . S
C288 C290 1.403 . S
C288 C321 1.439 . S
C289 H274 0.930 . S
C289 N285 1.319 . S
C289 C287 1.397 . S
C290 C287 1.367 . S
C290 C288 1.403 . S
C290 H297 0.929 . S
N291 Eu256 2.562 . S
N291 C292 1.325 . S
N291 C294 1.351 . S
C292 H278 0.929 . S
C292 N291 1.325 . S
C292 C296 1.416 . S
C293 C294 1.430 . S
C293 C295 1.404 . S
C293 C322 1.387 . S
C294 C286 1.448 . S
C294 N291 1.351 . S
C294 C293 1.430 . S
C295 H284 0.930 . S
C295 C293 1.404 . S
C295 C296 1.366 . S
C296 H275 0.930 . S
C296 C292 1.416 . S
C296 C295 1.366 . S
H297 C290 0.929 . S
H298 C321 0.931 . S
H299 C322 0.931 . S
O300 Eu256 2.462 . S
O300 C320 1.252 . S
O301 Eu256 2.373 . S
O301 C312 1.249 . S
O302 Eu267 2.335 . S
O302 C312 1.264 . S
O303 Eu256 2.432 . S
O303 C320 1.268 . S
O304 Eu256 2.291 . S
O304 C319 1.255 . S
O305 Eu267 2.372 . S
O305 C319 1.257 . S
O306 Eu267 2.462 . S
O306 C331 1.252 . S
O307 Eu267 2.373 . S
O307 C323 1.249 . S
O308 Eu256 2.335 . S
O308 C323 1.264 . S
O309 Eu267 2.432 . S
O309 C331 1.268 . S
O310 Eu267 2.291 . S
O310 C330 1.255 . S
O311 Eu256 2.372 . S
O311 C330 1.257 . S
C312 O301 1.249 . S
C312 O302 1.264 . S
C313 C316 1.382 . S
C313 C318 1.390 . S
C313 C320 1.506 . S
C314 C315 1.398 . S
C314 C318 1.392 . S
C315 C314 1.398 . S
C315 C317 1.372 . S
C315 H332 0.931 . S
C316 C313 1.382 . S
C316 C317 1.390 . S
C316 H333 0.931 . S
C317 C315 1.372 . S
C317 C316 1.390 . S
C317 H334 0.929 . S
C318 C313 1.390 . S
C318 C314 1.392 . S
C318 H335 0.930 . S
C319 O304 1.255 . S
C319 O305 1.257 . S
C320 Eu256 2.787 . S
C320 O300 1.252 . S
C320 O303 1.268 . S
C320 C313 1.506 . S
C321 C288 1.439 . S
C321 H298 0.931 . S
C321 C322 1.374 . S
C322 C293 1.387 . S
C322 H299 0.931 . S
C322 C321 1.374 . S
C323 O307 1.249 . S
C323 O308 1.264 . S
C324 C327 1.382 . S
C324 C328 1.390 1_556 S
C324 C331 1.506 . S
C325 C326 1.398 . S
C325 C328 1.392 . S
C326 C325 1.398 . S
C326 C329 1.372 1_554 S
C326 H336 0.931 . S
C327 C324 1.382 . S
C327 C329 1.390 . S
C327 H337 0.931 . S
C328 C324 1.390 1_554 S
C328 C325 1.392 . S
C328 H338 0.930 . S
C329 C326 1.372 1_556 S
C329 C327 1.390 . S
C329 H339 0.929 . S
C330 O310 1.255 . S
C330 O311 1.257 . S
C331 Eu267 2.787 . S
C331 O306 1.252 . S
C331 O309 1.268 . S
C331 C324 1.506 . S
H332 C315 0.931 . S
H333 C316 0.931 . S
H334 C317 0.929 . S
H335 C318 0.930 . S
H336 C326 0.931 . S
H337 C327 0.931 . S
H338 C328 0.930 . S
H339 C329 0.929 . S
Eu340 N369 2.600 . S
Eu340 N375 2.562 . S
Eu340 O384 2.462 . S
Eu340 O385 2.373 1_455 S
Eu340 O387 2.432 . S
Eu340 O388 2.291 . S
Eu340 O392 2.335 . S
Eu340 O395 2.372 . S
Eu340 C404 2.787 . S
C341 N342 1.373 . S
C341 C344 1.405 . S
C341 C348 1.448 1_556 S
N342 C341 1.373 . S
N342 C345 1.317 1_455 S
N342 Eu351 2.596 1_455 S
C343 C345 1.397 1_455 S
C343 C346 1.367 . S
C343 H363 0.931 . S
C344 C341 1.405 . S
C344 C346 1.403 . S
C344 C350 1.439 1_556 S
C345 N342 1.317 1_655 S
C345 C343 1.397 1_655 S
C345 H356 0.930 . S
C346 C343 1.367 . S
C346 C344 1.403 . S
C346 H367 0.929 . S
C347 C348 1.430 . S
C347 C349 1.387 . S
C347 C353 1.404 . S
C348 C341 1.448 1_554 S
C348 C347 1.430 . S
C348 N352 1.351 1_554 S
C349 C347 1.387 . S
C349 C350 1.374 . S
C349 H364 0.931 . S
C350 C344 1.439 1_554 S
C350 C349 1.374 . S
C350 H365 0.931 . S
Eu351 N342 2.596 1_655 S
Eu351 N352 2.562 1_655 S
Eu351 O386 2.335 . S
Eu351 O389 2.372 . S
Eu351 O390 2.462 . S
Eu351 O391 2.373 1_655 S
Eu351 O393 2.432 . S
Eu351 O394 2.286 1_655 S
Eu351 C415 2.787 . S
N352 C348 1.351 1_556 S
N352 Eu351 2.562 1_455 S
N352 C354 1.325 1_556 S
C353 C347 1.404 . S
C353 C355 1.366 . S
C353 H361 0.930 . S
C354 N352 1.325 1_554 S
C354 C355 1.416 . S
C354 H360 0.929 . S
C355 C353 1.366 . S
C355 C354 1.416 . S
C355 H357 0.930 . S
H356 C345 0.930 . S
H357 C355 0.930 . S
H358 C373 0.930 . S
H359 C380 0.930 . S
H360 C354 0.929 . S
H361 C353 0.930 . S
H362 C376 0.929 . S
H363 C343 0.931 . S
H364 C349 0.931 . S
H365 C350 0.931 . S
H366 C371 0.931 . S
H367 C346 0.929 . S
H368 C379 0.930 . S
N369 Eu340 2.600 . S
N369 C370 1.358 1_455 S
N369 C373 1.319 . S
C370 N369 1.358 1_655 S
C370 C372 1.411 . S
C370 C378 1.449 . S
C371 H366 0.931 . S
C371 C373 1.397 . S
C371 C374 1.367 1_455 S
C372 C370 1.411 . S
C372 C374 1.403 . S
C372 C405 1.439 . S
C373 H358 0.930 . S
C373 N369 1.319 . S
C373 C371 1.397 . S
C374 C371 1.367 1_655 S
C374 C372 1.403 . S
C374 H381 0.929 . S
N375 Eu340 2.562 . S
N375 C376 1.325 . S
N375 C378 1.351 1_455 S
C376 H362 0.929 . S
C376 N375 1.325 . S
C376 C380 1.416 1_455 S
C377 C378 1.430 . S
C377 C379 1.404 . S
C377 C406 1.387 . S
C378 C370 1.449 . S
C378 N375 1.351 1_655 S
C378 C377 1.430 . S
C379 H368 0.930 . S
C379 C377 1.404 . S
C379 C380 1.366 . S
C380 H359 0.930 . S
C380 C376 1.416 1_655 S
C380 C379 1.366 . S
H381 C374 0.929 . S
H382 C405 0.931 . S
H383 C406 0.931 . S
O384 Eu340 2.462 . S
O384 C404 1.252 . S
O385 Eu340 2.373 1_655 S
O385 C396 1.249 . S
O386 Eu351 2.335 . S
O386 C396 1.264 . S
O387 Eu340 2.432 . S
O387 C404 1.268 . S
O388 Eu340 2.291 . S
O388 C403 1.255 . S
O389 Eu351 2.372 . S
O389 C403 1.257 1_655 S
O390 Eu351 2.462 . S
O390 C415 1.252 . S
O391 Eu351 2.373 1_455 S
O391 C407 1.249 . S
O392 Eu340 2.335 . S
O392 C407 1.264 . S
O393 Eu351 2.432 . S
O393 C415 1.268 . S
O394 Eu351 2.286 1_455 S
O394 C414 1.259 . S
O395 Eu340 2.372 . S
O395 C414 1.257 . S
C396 O385 1.249 . S
C396 O386 1.264 . S
C397 C400 1.382 . S
C397 C402 1.390 . S
C397 C404 1.506 . S
C398 C399 1.398 . S
C398 C402 1.392 . S
C399 C398 1.398 . S
C399 C401 1.372 . S
C399 H416 0.931 . S
C400 C397 1.382 . S
C400 C401 1.390 . S
C400 H417 0.931 . S
C401 C399 1.372 . S
C401 C400 1.390 . S
C401 H418 0.929 . S
C402 C397 1.390 . S
C402 C398 1.392 . S
C402 H419 0.930 . S
C403 O388 1.255 . S
C403 O389 1.257 1_455 S
C404 Eu340 2.787 . S
C404 O384 1.252 . S
C404 O387 1.268 . S
C404 C397 1.506 . S
C405 C372 1.439 . S
C405 H382 0.931 . S
C405 C406 1.374 . S
C406 C377 1.387 . S
C406 H383 0.931 . S
C406 C405 1.374 . S
C407 O391 1.249 . S
C407 O392 1.264 . S
C408 C411 1.382 . S
C408 C412 1.390 1_556 S
C408 C415 1.506 . S
C409 C410 1.398 . S
C409 C412 1.392 . S
C410 C409 1.398 . S
C410 C413 1.372 1_554 S
C410 H420 0.931 . S
C411 C408 1.382 . S
C411 C413 1.390 . S
C411 H421 0.931 . S
C412 C408 1.390 1_554 S
C412 C409 1.392 . S
C412 H422 0.930 . S
C413 C410 1.372 1_556 S
C413 C411 1.390 . S
C413 H423 0.929 . S
C414 O394 1.259 . S
C414 O395 1.257 . S
C415 Eu351 2.787 . S
C415 O390 1.252 . S
C415 O393 1.268 . S
C415 C408 1.506 . S
H416 C399 0.931 . S
H417 C400 0.931 . S
H418 C401 0.929 . S
H419 C402 0.930 . S
H420 C410 0.931 . S
H421 C411 0.931 . S
H422 C412 0.930 . S
H423 C413 0.929 . S
C424 C425 1.363 . S
C424 C430 1.379 . S
C424 N432 1.356 . S
C425 C424 1.363 . S
C425 C431 1.363 . S
C426 C427 1.363 . S
C426 C431 1.379 . S
C426 N433 1.356 . S
C427 C426 1.363 . S
C427 C430 1.363 . S
N428 C430 1.356 1_565 S
N428 H440 0.984 . S
N428 H441 0.985 . S
N429 C431 1.356 . S
N429 H434 0.984 . S
N429 H435 0.985 . S
C430 C424 1.379 . S
C430 C427 1.363 . S
C430 N428 1.356 1_545 S
C431 C425 1.363 . S
C431 C426 1.379 . S
C431 N429 1.356 . S
N432 C424 1.356 . S
N432 H438 0.984 1_545 S
N432 H439 0.984 . S
N433 C426 1.356 . S
N433 H436 0.984 . S
N433 H437 0.985 . S
H434 N429 0.984 . S
H435 N429 0.985 . S
H436 N433 0.984 . S
H437 N433 0.985 . S
H438 N432 0.984 1_565 S
H439 N432 0.984 . S
H440 N428 0.984 . S
H441 N428 0.985 . S
C442 C443 1.363 . S
C442 C448 1.379 . S
C442 N450 1.356 . S
C443 C442 1.363 . S
C443 C449 1.363 . S
C444 C445 1.363 . S
C444 C449 1.379 . S
C444 N451 1.356 . S
C445 C444 1.363 . S
C445 C448 1.363 . S
N446 C448 1.356 . S
N446 H458 0.984 . S
N446 H459 0.985 . S
N447 C449 1.356 . S
N447 H452 0.984 . S
N447 H453 0.985 . S
C448 C442 1.379 . S
C448 C445 1.363 . S
C448 N446 1.356 . S
C449 C443 1.363 . S
C449 C444 1.379 . S
C449 N447 1.356 . S
N450 C442 1.356 . S
N450 H456 0.984 . S
N450 H457 0.984 . S
N451 C444 1.356 . S
N451 H454 0.984 . S
N451 H455 0.985 . S
H452 N447 0.984 . S
H453 N447 0.985 . S
H454 N451 0.984 . S
H455 N451 0.985 . S
H456 N450 0.984 . S
H457 N450 0.984 . S
H458 N446 0.984 . S
H459 N446 0.985 . S
C460 C461 1.363 . S
C460 C466 1.379 . S
C460 N468 1.356 . S
C461 C460 1.363 . S
C461 C467 1.363 . S
C462 C463 1.363 . S
C462 C467 1.379 . S
C462 N469 1.356 . S
C463 C462 1.363 . S
C463 C466 1.363 . S
N464 C466 1.356 . S
N464 H476 0.984 . S
N464 H477 0.985 . S
N465 C467 1.356 . S
N465 H470 0.984 . S
N465 H471 0.985 . S
C466 C460 1.379 . S
C466 C463 1.363 . S
C466 N464 1.356 . S
C467 C461 1.363 . S
C467 C462 1.379 . S
C467 N465 1.356 . S
N468 C460 1.356 . S
N468 H474 0.984 . S
N468 H475 0.984 . S
N469 C462 1.356 . S
N469 H472 0.984 . S
N469 H473 0.985 . S
H470 N465 0.984 . S
H471 N465 0.985 . S
H472 N469 0.984 . S
H473 N469 0.985 . S
H474 N468 0.984 . S
H475 N468 0.984 . S
H476 N464 0.984 . S
H477 N464 0.985 . S
C478 C479 1.363 . S
C478 C484 1.379 . S
C478 N486 1.356 . S
C479 C478 1.363 . S
C479 C485 1.363 . S
C480 C481 1.362 1_655 S
C480 C485 1.379 1_655 S
C480 N487 1.357 . S
C481 C480 1.362 1_455 S
C481 C484 1.363 . S
N482 C484 1.356 . S
N482 H494 0.984 . S
N482 H495 0.985 . S
N483 C485 1.356 1_655 S
N483 H488 0.984 . S
N483 H489 0.985 . S
C484 C478 1.379 . S
C484 C481 1.363 . S
C484 N482 1.356 . S
C485 C479 1.363 . S
C485 C480 1.379 1_455 S
C485 N483 1.356 1_455 S
N486 C478 1.356 . S
N486 H492 0.984 . S
N486 H493 0.984 . S
N487 C480 1.357 . S
N487 H490 0.984 . S
N487 H491 0.985 . S
H488 N483 0.984 . S
H489 N483 0.985 . S
H490 N487 0.984 . S
H491 N487 0.985 . S
H492 N486 0.984 . S
H493 N486 0.984 . S
H494 N482 0.984 . S
H495 N482 0.985 . S
C496 C497 1.363 . S
C496 C502 1.379 1_554 S
C496 N504 1.356 . S
C497 C496 1.363 . S
C497 C503 1.363 . S
C498 C499 1.363 1_554 S
C498 C503 1.379 . S
C498 N505 1.356 1_554 S
C499 C498 1.363 1_556 S
C499 C502 1.363 . S
N500 C502 1.361 . S
N500 H512 0.984 . S
N500 H513 0.981 1_565 S
N501 C503 1.356 . S
N501 H506 0.984 . S
N501 H507 0.985 . S
C502 C496 1.379 1_556 S
C502 C499 1.363 . S
C502 N500 1.361 . S
C503 C497 1.363 . S
C503 C498 1.379 . S
C503 N501 1.356 . S
N504 C496 1.356 . S
N504 H510 0.984 . S
N504 H511 0.984 . S
N505 C498 1.356 1_556 S
N505 H508 0.984 . S
N505 H509 0.985 1_556 S
H506 N501 0.984 . S
H507 N501 0.985 . S
H508 N505 0.984 . S
H509 N505 0.985 1_554 S
H510 N504 0.984 . S
H511 N504 0.984 . S
H512 N500 0.984 . S
H513 N500 0.981 1_545 S
C514 C515 1.363 . S
C514 C520 1.379 . S
C514 N522 1.356 . S
C515 C514 1.363 . S
C515 C521 1.363 . S
C516 C517 1.363 . S
C516 C521 1.379 1_556 S
C516 N523 1.356 . S
C517 C516 1.363 . S
C517 C520 1.363 1_556 S
N518 C520 1.356 1_556 S
N518 H530 0.984 1_556 S
N518 H531 0.985 . S
N519 C521 1.356 . S
N519 H524 0.984 . S
N519 H525 0.985 . S
C520 C514 1.379 . S
C520 C517 1.363 1_554 S
C520 N518 1.356 1_554 S
C521 C515 1.363 . S
C521 C516 1.379 1_554 S
C521 N519 1.356 . S
N522 C514 1.356 . S
N522 H528 0.984 . S
N522 H529 0.984 . S
N523 C516 1.356 . S
N523 H526 0.984 . S
N523 H527 0.985 . S
H524 N519 0.984 . S
H525 N519 0.985 . S
H526 N523 0.984 . S
H527 N523 0.985 . S
H528 N522 0.984 . S
H529 N522 0.984 . S
H530 N518 0.984 1_554 S
H531 N518 0.985 . S
C532 C533 1.363 . S
C532 C538 1.379 1_554 S
C532 N540 1.356 . S
C533 C532 1.363 . S
C533 C539 1.363 . S
C534 C535 1.363 . S
C534 C539 1.379 1_556 S
C534 N541 1.356 . S
C535 C534 1.363 . S
C535 C538 1.363 . S
N536 C538 1.356 . S
N536 H548 0.984 . S
N536 H549 0.985 . S
N537 C539 1.356 . S
N537 H542 0.984 . S
N537 H543 0.985 . S
C538 C532 1.379 1_556 S
C538 C535 1.363 . S
C538 N536 1.356 . S
C539 C533 1.363 . S
C539 C534 1.379 1_554 S
C539 N537 1.356 . S
N540 C532 1.356 . S
N540 H546 0.984 . S
N540 H547 0.984 . S
N541 C534 1.356 . S
N541 H544 0.984 . S
N541 H545 0.985 . S
H542 N537 0.984 . S
H543 N537 0.985 . S
H544 N541 0.984 . S
H545 N541 0.985 . S
H546 N540 0.984 . S
H547 N540 0.984 . S
H548 N536 0.984 . S
H549 N536 0.985 . S
C550 C551 1.363 . S
C550 C556 1.379 1_554 S
C550 N558 1.356 . S
C551 C550 1.363 . S
C551 C557 1.363 . S
C552 C553 1.363 1_454 S
C552 C557 1.379 1_455 S
C552 N559 1.356 1_554 S
C553 C552 1.363 1_656 S
C553 C556 1.363 . S
N554 C556 1.356 . S
N554 H566 0.984 . S
N554 H567 0.985 . S
N555 C557 1.356 1_455 S
N555 H560 0.984 1_455 S
N555 H561 0.985 . S
C556 C550 1.379 1_556 S
C556 C553 1.363 . S
C556 N554 1.356 . S
C557 C551 1.363 . S
C557 C552 1.379 1_655 S
C557 N555 1.356 1_655 S
N558 C550 1.356 . S
N558 H564 0.984 . S
N558 H565 0.984 . S
N559 C552 1.356 1_556 S
N559 H562 0.984 . S
N559 H563 0.985 1_556 S
H560 N555 0.984 1_655 S
H561 N555 0.985 . S
H562 N559 0.984 . S
H563 N559 0.985 1_554 S
H564 N558 0.984 . S
H565 N558 0.984 . S
H566 N554 0.984 . S
H567 N554 0.985 . S
C568 C569 1.363 . S
C568 C574 1.379 . S
C568 N576 1.356 . S
C569 C568 1.363 . S
C569 C575 1.363 . S
C570 C571 1.363 1_655 S
C570 C575 1.379 1_655 S
C570 N577 1.356 . S
C571 C570 1.363 1_455 S
C571 C574 1.363 . S
N572 C574 1.356 . S
N572 H584 0.984 . S
N572 H585 0.985 . S
N573 C575 1.356 . S
N573 H578 0.984 . S
N573 H579 0.985 1_455 S
C574 C568 1.379 . S
C574 C571 1.363 . S
C574 N572 1.356 . S
C575 C569 1.363 . S
C575 C570 1.379 1_455 S
C575 N573 1.356 . S
N576 C568 1.356 . S
N576 H582 0.984 . S
N576 H583 0.984 . S
N577 C570 1.356 . S
N577 H580 0.984 . S
N577 H581 0.985 . S
H578 N573 0.984 . S
H579 N573 0.985 1_655 S
H580 N577 0.984 . S
H581 N577 0.985 . S
H582 N576 0.984 . S
H583 N576 0.984 . S
H584 N572 0.984 . S
H585 N572 0.985 . S
C586 C587 1.363 . S
C586 C592 1.379 . S
C586 N594 1.356 . S
C587 C586 1.363 . S
C587 C593 1.363 . S
C588 C589 1.363 . S
C588 C593 1.379 . S
C588 N595 1.356 . S
C589 C588 1.363 . S
C589 C592 1.363 . S
N590 C592 1.356 1_565 S
N590 H602 0.984 . S
N590 H603 0.985 . S
N591 C593 1.356 . S
N591 H596 0.984 . S
N591 H597 0.985 . S
C592 C586 1.379 . S
C592 C589 1.363 . S
C592 N590 1.356 1_545 S
C593 C587 1.363 . S
C593 C588 1.379 . S
C593 N591 1.356 . S
N594 C586 1.356 . S
N594 H600 0.984 . S
N594 H601 0.984 . S
N595 C588 1.356 . S
N595 H598 0.984 1_545 S
N595 H599 0.985 . S
H596 N591 0.984 . S
H597 N591 0.985 . S
H598 N595 0.984 1_565 S
H599 N595 0.985 . S
H600 N594 0.984 . S
H601 N594 0.984 . S
H602 N590 0.984 . S
H603 N590 0.985 . S
C604 C605 1.363 . S
C604 C610 1.379 . S
C604 N612 1.356 . S
C605 C604 1.363 . S
C605 C611 1.363 . S
C606 C607 1.363 . S
C606 C611 1.379 . S
C606 N613 1.356 . S
C607 C606 1.363 . S
C607 C610 1.363 . S
N608 C610 1.356 . S
N608 H620 0.984 . S
N608 H621 0.985 . S
N609 C611 1.356 . S
N609 H614 0.984 . S
N609 H615 0.985 . S
C610 C604 1.379 . S
C610 C607 1.363 . S
C610 N608 1.356 . S
C611 C605 1.363 . S
C611 C606 1.379 . S
C611 N609 1.356 . S
N612 C604 1.356 . S
N612 H618 0.984 . S
N612 H619 0.984 . S
N613 C606 1.356 . S
N613 H616 0.984 . S
N613 H617 0.985 . S
H614 N609 0.984 . S
H615 N609 0.985 . S
H616 N613 0.984 . S
H617 N613 0.985 . S
H618 N612 0.984 . S
H619 N612 0.984 . S
H620 N608 0.984 . S
H621 N608 0.985 . S
C622 C623 1.363 . S
C622 C628 1.379 . S
C622 N630 1.356 . S
C623 C622 1.363 . S
C623 C629 1.363 . S
C624 C625 1.363 . S
C624 C629 1.379 . S
C624 N631 1.356 . S
C625 C624 1.363 . S
C625 C628 1.363 . S
N626 C628 1.356 . S
N626 H638 0.984 . S
N626 H639 0.985 . S
N627 C629 1.356 . S
N627 H632 0.984 . S
N627 H633 0.985 . S
C628 C622 1.379 . S
C628 C625 1.363 . S
C628 N626 1.356 . S
C629 C623 1.363 . S
C629 C624 1.379 . S
C629 N627 1.356 . S
N630 C622 1.356 . S
N630 H636 0.984 . S
N630 H637 0.984 . S
N631 C624 1.356 . S
N631 H634 0.984 . S
N631 H635 0.985 . S
H632 N627 0.984 . S
H633 N627 0.985 . S
H634 N631 0.984 . S
H635 N631 0.985 . S
H636 N630 0.984 . S
H637 N630 0.984 . S
H638 N626 0.984 . S
H639 N626 0.985 . S
C640 C641 1.363 1_455 S
C640 C646 1.379 . S
C640 N648 1.356 . S
C641 C640 1.363 1_655 S
C641 C647 1.363 . S
C642 C643 1.363 1_655 S
C642 C647 1.379 . S
C642 N649 1.356 . S
C643 C642 1.363 1_455 S
C643 C646 1.363 . S
N644 C646 1.356 . S
N644 H656 0.984 . S
N644 H657 0.985 . S
N645 C647 1.356 . S
N645 H650 0.984 . S
N645 H651 0.985 . S
C646 C640 1.379 . S
C646 C643 1.363 . S
C646 N644 1.356 . S
C647 C641 1.363 . S
C647 C642 1.379 . S
C647 N645 1.356 . S
N648 C640 1.356 . S
N648 H654 0.984 . S
N648 H655 0.993 . S
N649 C642 1.356 . S
N649 H652 0.984 . S
N649 H653 0.985 . S
H650 N645 0.984 . S
H651 N645 0.985 . S
H652 N649 0.984 . S
H653 N649 0.985 . S
H654 N648 0.984 . S
H655 N648 0.993 . S
H656 N644 0.984 . S
H657 N644 0.985 . S
C658 C659 1.363 . S
C658 C664 1.379 . S
C658 N666 1.356 . S
C659 C658 1.363 . S
C659 C665 1.363 1_565 S
C660 C661 1.363 . S
C660 C665 1.379 . S
C660 N667 1.356 . S
C661 C660 1.363 . S
C661 C664 1.363 1_545 S
N662 C664 1.356 1_546 S
N662 H674 0.984 1_545 S
N662 H675 0.985 . S
N663 C665 1.356 1_565 S
N663 H668 0.984 . S
N663 H669 0.985 1_565 S
C664 C658 1.379 . S
C664 C661 1.363 1_565 S
C664 N662 1.356 1_564 S
C665 C659 1.363 1_545 S
C665 C660 1.379 . S
C665 N663 1.356 1_545 S
N666 C658 1.356 . S
N666 H672 0.984 1_554 S
N666 H673 0.984 . S
N667 C660 1.356 . S
N667 H670 0.984 . S
N667 H671 0.985 . S
H668 N663 0.984 . S
H669 N663 0.985 1_545 S
H670 N667 0.984 . S
H671 N667 0.985 . S
H672 N666 0.984 1_556 S
H673 N666 0.984 . S
H674 N662 0.984 1_565 S
H675 N662 0.985 . S
C676 C677 1.363 . S
C676 C682 1.379 . S
C676 N684 1.356 . S
C677 C676 1.363 . S
C677 C683 1.363 . S
C678 C679 1.363 . S
C678 C683 1.379 . S
C678 N685 1.356 . S
C679 C678 1.363 . S
C679 C682 1.363 . S
N680 C682 1.356 1_556 S
N680 H692 0.984 . S
N680 H693 0.985 . S
N681 C683 1.356 . S
N681 H686 0.984 . S
N681 H687 0.985 . S
C682 C676 1.379 . S
C682 C679 1.363 . S
C682 N680 1.356 1_554 S
C683 C677 1.363 . S
C683 C678 1.379 . S
C683 N681 1.356 . S
N684 C676 1.356 . S
N684 H690 0.984 . S
N684 H691 0.984 . S
N685 C678 1.356 . S
N685 H688 0.984 . S
N685 H689 0.985 . S
H686 N681 0.984 . S
H687 N681 0.985 . S
H688 N685 0.984 . S
H689 N685 0.985 . S
H690 N684 0.984 . S
H691 N684 0.984 . S
H692 N680 0.984 . S
H693 N680 0.985 . S
C694 C695 1.363 . S
C694 C700 1.379 . S
C694 N702 1.356 . S
C695 C694 1.363 . S
C695 C701 1.363 . S
C696 C697 1.363 . S
C696 C701 1.379 . S
C696 N703 1.356 . S
C697 C696 1.363 . S
C697 C700 1.363 . S
N698 C700 1.356 . S
N698 H710 0.984 . S
N698 H711 0.985 . S
N699 C701 1.356 . S
N699 H704 0.984 . S
N699 H705 0.985 . S
C700 C694 1.379 . S
C700 C697 1.363 . S
C700 N698 1.356 . S
C701 C695 1.363 . S
C701 C696 1.379 . S
C701 N699 1.356 . S
N702 C694 1.356 . S
N702 H708 0.984 . S
N702 H709 0.984 . S
N703 C696 1.356 . S
N703 H706 0.984 . S
N703 H707 0.985 . S
H704 N699 0.984 . S
H705 N699 0.985 . S
H706 N703 0.984 . S
H707 N703 0.985 . S
H708 N702 0.984 . S
H709 N702 0.984 . S
H710 N698 0.984 . S
H711 N698 0.985 . S
C712 C713 1.363 . S
C712 C718 1.379 . S
C712 N720 1.356 . S
C713 C712 1.363 . S
C713 C719 1.363 . S
C714 C715 1.363 . S
C714 C719 1.379 . S
C714 N721 1.356 1_455 S
C715 C714 1.363 . S
C715 C718 1.363 . S
N716 C718 1.356 . S
N716 H728 0.984 . S
N716 H729 0.985 . S
N717 C719 1.356 . S
N717 H722 0.984 . S
N717 H723 0.985 1_455 S
C718 C712 1.379 . S
C718 C715 1.363 . S
C718 N716 1.356 . S
C719 C713 1.363 . S
C719 C714 1.379 . S
C719 N717 1.356 . S
N720 C712 1.356 . S
N720 H726 0.984 . S
N720 H727 0.984 . S
N721 C714 1.356 1_655 S
N721 H724 0.984 1_655 S
N721 H725 0.985 . S
H722 N717 0.984 . S
H723 N717 0.985 1_655 S
H724 N721 0.984 1_455 S
H725 N721 0.985 . S
H726 N720 0.984 . S
H727 N720 0.984 . S
H728 N716 0.984 . S
H729 N716 0.985 . S
C730 C731 1.363 . S
C730 C736 1.379 . S
C730 N738 1.356 . S
C731 C730 1.363 . S
C731 C737 1.363 . S
C732 C733 1.363 . S
C732 C737 1.379 . S
C732 N739 1.356 . S
C733 C732 1.363 . S
C733 C736 1.363 . S
N734 C736 1.356 . S
N734 H746 0.984 . S
N734 H747 0.985 . S
N735 C737 1.356 . S
N735 H740 0.984 . S
N735 H741 0.985 . S
C736 C730 1.379 . S
C736 C733 1.363 . S
C736 N734 1.356 . S
C737 C731 1.363 . S
C737 C732 1.379 . S
C737 N735 1.356 . S
N738 C730 1.356 . S
N738 H744 0.984 1_556 S
N738 H745 0.984 . S
N739 C732 1.356 . S
N739 H742 0.984 . S
N739 H743 0.985 1_545 S
H740 N735 0.984 . S
H741 N735 0.985 . S
H742 N739 0.984 . S
H743 N739 0.985 1_565 S
H744 N738 0.984 1_554 S
H745 N738 0.984 . S
H746 N734 0.984 . S
H747 N734 0.985 . S
C748 C749 1.363 . S
C748 C754 1.379 . S
C748 N756 1.356 . S
C749 C748 1.363 . S
C749 C755 1.363 . S
C750 C751 1.363 . S
C750 C755 1.379 . S
C750 N757 1.356 . S
C751 C750 1.363 . S
C751 C754 1.363 . S
N752 C754 1.356 . S
N752 H764 0.984 . S
N752 H765 0.985 . S
N753 C755 1.356 . S
N753 H758 0.984 . S
N753 H759 0.985 . S
C754 C748 1.379 . S
C754 C751 1.363 . S
C754 N752 1.356 . S
C755 C749 1.363 . S
C755 C750 1.379 . S
C755 N753 1.356 . S
N756 C748 1.356 . S
N756 H762 0.984 . S
N756 H763 0.984 . S
N757 C750 1.356 . S
N757 H760 0.984 . S
N757 H761 0.985 . S
H758 N753 0.984 . S
H759 N753 0.985 . S
H760 N757 0.984 . S
H761 N757 0.985 . S
H762 N756 0.984 . S
H763 N756 0.984 . S
H764 N752 0.984 . S
H765 N752 0.985 . S
C766 C767 1.363 . S
C766 C772 1.379 . S
C766 N774 1.356 . S
C767 C766 1.363 . S
C767 C773 1.363 . S
C768 C769 1.363 . S
C768 C773 1.379 . S
C768 N775 1.356 . S
C769 C768 1.363 . S
C769 C772 1.363 . S
N770 C772 1.356 . S
N770 H782 0.984 . S
N770 H783 0.985 . S
N771 C773 1.356 . S
N771 H776 0.984 . S
N771 H777 0.985 . S
C772 C766 1.379 . S
C772 C769 1.363 . S
C772 N770 1.356 . S
C773 C767 1.363 . S
C773 C768 1.379 . S
C773 N771 1.356 . S
N774 C766 1.356 . S
N774 H780 0.984 . S
N774 H781 0.984 . S
N775 C768 1.356 . S
N775 H778 0.984 . S
N775 H779 0.985 . S
H776 N771 0.984 . S
H777 N771 0.985 . S
H778 N775 0.984 . S
H779 N775 0.985 . S
H780 N774 0.984 . S
H781 N774 0.984 . S
H782 N770 0.984 . S
H783 N770 0.985 . S
C784 C785 1.363 . S
C784 C790 1.379 . S
C784 N792 1.356 . S
C785 C784 1.363 . S
C785 C791 1.363 1_655 S
C786 C787 1.363 1_455 S
C786 C791 1.379 . S
C786 N793 1.356 . S
C787 C786 1.363 1_655 S
C787 C790 1.363 . S
N788 C790 1.356 . S
N788 H800 0.984 . S
N788 H801 0.985 . S
N789 C791 1.356 . S
N789 H794 0.984 . S
N789 H795 0.985 . S
C790 C784 1.379 . S
C790 C787 1.363 . S
C790 N788 1.356 . S
C791 C785 1.363 1_455 S
C791 C786 1.379 . S
C791 N789 1.356 . S
N792 C784 1.356 . S
N792 H798 0.984 . S
N792 H799 0.984 . S
N793 C786 1.356 . S
N793 H796 0.984 . S
N793 H797 0.985 . S
H794 N789 0.984 . S
H795 N789 0.985 . S
H796 N793 0.984 . S
H797 N793 0.985 . S
H798 N792 0.984 . S
H799 N792 0.984 . S
H800 N788 0.984 . S
H801 N788 0.985 . S
C802 C803 1.363 1_545 S
C802 C808 1.379 . S
C802 N810 1.356 . S
C803 C802 1.363 1_565 S
C803 C809 1.363 . S
C804 C805 1.363 . S
C804 C809 1.379 . S
C804 N811 1.356 . S
C805 C804 1.363 . S
C805 C808 1.363 1_565 S
N806 C808 1.356 . S
N806 H818 0.984 . S
N806 H819 0.985 . S
N807 C809 1.356 . S
N807 H812 0.984 . S
N807 H813 0.985 . S
C808 C802 1.379 . S
C808 C805 1.363 1_545 S
C808 N806 1.356 . S
C809 C803 1.363 . S
C809 C804 1.379 . S
C809 N807 1.356 . S
N810 C802 1.356 . S
N810 H816 0.984 . S
N810 H817 0.984 . S
N811 C804 1.356 . S
N811 H814 0.984 . S
N811 H815 0.985 . S
H812 N807 0.984 . S
H813 N807 0.985 . S
H814 N811 0.984 . S
H815 N811 0.985 . S
H816 N810 0.984 . S
H817 N810 0.984 . S
H818 N806 0.984 . S
H819 N806 0.985 . S
C820 C821 1.363 . S
C820 C826 1.379 . S
C820 N828 1.356 . S
C821 C820 1.363 . S
C821 C827 1.363 . S
C822 C823 1.363 . S
C822 C827 1.379 . S
C822 N829 1.356 . S
C823 C822 1.363 . S
C823 C826 1.363 . S
N824 C826 1.356 . S
N824 H836 0.984 . S
N824 H837 0.985 . S
N825 C827 1.356 . S
N825 H830 0.984 . S
N825 H831 0.985 . S
C826 C820 1.379 . S
C826 C823 1.363 . S
C826 N824 1.356 . S
C827 C821 1.363 . S
C827 C822 1.379 . S
C827 N825 1.356 . S
N828 C820 1.356 . S
N828 H834 0.984 . S
N828 H835 0.984 . S
N829 C822 1.356 . S
N829 H832 0.984 . S
N829 H833 0.985 . S
H830 N825 0.984 . S
H831 N825 0.985 . S
H832 N829 0.984 . S
H833 N829 0.985 . S
H834 N828 0.984 . S
H835 N828 0.984 . S
H836 N824 0.984 . S
H837 N824 0.985 . S
C838 C839 1.363 . S
C838 C844 1.379 . S
C838 N846 1.356 . S
C839 C838 1.363 . S
C839 C845 1.363 . S
C840 C841 1.363 . S
C840 C845 1.379 . S
C840 N847 1.356 . S
C841 C840 1.363 . S
C841 C844 1.363 . S
N842 C844 1.356 . S
N842 H854 0.984 . S
N842 H855 0.985 . S
N843 C845 1.356 . S
N843 H848 0.984 . S
N843 H849 0.985 . S
C844 C838 1.379 . S
C844 C841 1.363 . S
C844 N842 1.356 . S
C845 C839 1.363 . S
C845 C840 1.379 . S
C845 N843 1.356 . S
N846 C838 1.356 . S
N846 H852 0.984 . S
N846 H853 0.984 . S
N847 C840 1.356 . S
N847 H850 0.984 . S
N847 H851 0.985 . S
H848 N843 0.984 . S
H849 N843 0.985 . S
H850 N847 0.984 . S
H851 N847 0.985 . S
H852 N846 0.984 . S
H853 N846 0.984 . S
H854 N842 0.984 . S
H855 N842 0.985 . S
C425 C74 1.981 . S
C427 C151 2.119 . S
C445 C228 2.119 . S
C443 C85 1.979 . S
C463 C319 2.119 . S
C461 C52 1.980 . S
C481 C403 2.105 . S
C479 C63 1.969 . S
C499 C162 2.119 1_565 S
C497 C30 1.947 . S
C515 C41 1.946 . S
C517 C239 2.119 . S
C533 C8 1.947 . S
C535 C330 2.119 . S
C551 C19 1.937 . S
C553 C414 2.106 1_655 S
C571 C146 0.852 1_455 S
C569 C62 0.858 . S
C589 C241 0.825 1_545 S
C587 C73 0.840 . S
C607 C314 0.858 . S
C605 C84 0.863 . S
C623 C51 0.843 . S
C625 C398 0.838 . S
C641 C18 0.826 . S
C643 C157 0.852 . S
C661 C230 0.825 . S
C659 C29 0.814 . S
C679 C325 0.858 . S
C677 C40 0.829 . S
C695 C7 0.815 . S
C697 C409 0.838 . S
C713 C60 1.810 . S
C715 C155 2.276 . S
C731 C71 1.825 . S
C733 C246 2.338 . S
C751 C323 2.291 . S
C749 C82 1.825 . S
C769 C407 2.295 . S
C767 C49 1.828 . S
C785 C16 1.723 . S
C787 C144 2.276 . S
C805 C235 2.338 . S
C803 C27 1.728 . S
C823 C312 2.291 . S
C821 C38 1.732 . S
C839 C5 1.739 . S
C841 C396 2.295 . S
