# Generated by pormake.
# Topology pth, (4,4)-cn, num edge types: 1
# Building blocks:
#     Node 0, Type 0, BuildingBlock: AZAVOO_clean_sbu_0, # of connection points: 4
#     Node 1, Type 0, BuildingBlock: AZAVOO_clean_sbu_0, # of connection points: 4
#     Node 2, Type 0, BuildingBlock: AZAVOO_clean_sbu_0, # of connection points: 4
#     Node 3, Type 1, BuildingBlock: MUDLON_clean_sbu_0, # of connection points: 4
#     Node 4, Type 1, BuildingBlock: MUDLON_clean_sbu_0, # of connection points: 4
#     Node 5, Type 1, BuildingBlock: MUDLON_clean_sbu_0, # of connection points: 4
#     Edge 6, Type (0, 1), BuildingBlock: UVAHIK_clean_linker_0, # of connection points: 2
#     Edge 7, Type (0, 1), BuildingBlock: UVAHIK_clean_linker_0, # of connection points: 2
#     Edge 8, Type (0, 1), BuildingBlock: UVAHIK_clean_linker_0, # of connection points: 2
#     Edge 9, Type (0, 1), BuildingBlock: UVAHIK_clean_linker_0, # of connection points: 2
#     Edge 10, Type (0, 1), BuildingBlock: UVAHIK_clean_linker_0, # of connection points: 2
#     Edge 11, Type (0, 1), BuildingBlock: UVAHIK_clean_linker_0, # of connection points: 2
#     Edge 12, Type (0, 1), BuildingBlock: UVAHIK_clean_linker_0, # of connection points: 2
#     Edge 13, Type (0, 1), BuildingBlock: UVAHIK_clean_linker_0, # of connection points: 2
#     Edge 14, Type (0, 1), BuildingBlock: UVAHIK_clean_linker_0, # of connection points: 2
#     Edge 15, Type (0, 1), BuildingBlock: UVAHIK_clean_linker_0, # of connection points: 2
#     Edge 16, Type (0, 1), BuildingBlock: UVAHIK_clean_linker_0, # of connection points: 2
#     Edge 17, Type (0, 1), BuildingBlock: UVAHIK_clean_linker_0, # of connection points: 2
# Relax obj value: 0.104
# Max RMSD: 0.230
# Mean RMSD: 0.137
data_MOF--net-pth--node1-AZAVOO_clean_sbu_0--node2-MUDLON_clean_sbu_0--edge1-UVAHIK_clean_linker_0
_symmetry_space_group_name_H-M    P1
_symmetry_Int_Tables_number       1
_symmetry_cell_setting            triclinic
loop_
_symmetry_equiv_pos_as_xyz
'x, y, z'
_cell_length_a     28.923539
_cell_length_b     29.558885
_cell_length_c     76.866368
_cell_angle_alpha  90.847907
_cell_angle_beta   93.055453
_cell_angle_gamma 122.11183
loop_
_atom_site_label
_atom_site_type_symbol
_atom_site_fract_x
_atom_site_fract_y
_atom_site_fract_z
_atom_type_partial_charge
Mg0 Mg 0.11574 0.12718 0.08576 0.0
O1 O 0.04524 0.07049 0.06571 0.0
O2 O 0.03083 0.12141 0.04791 0.0
Mg3 Mg 0.0905 0.20945 0.05629 0.0
C4 C 0.01993 0.07562 0.05252 0.0
C5 C 0.08072 0.0108 0.09876 0.0
O6 O 0.08094 0.9987 0.08226 0.0
O7 O 0.06249 0.14771 0.10064 0.0
O8 O 0.05433 0.20217 0.08268 0.0
O9 O 0.177 0.13367 0.06724 0.0
O10 O 0.14642 0.18775 0.06826 0.0
C11 C 0.0464 0.17953 0.0972 0.0
C12 C 0.17628 0.17385 0.06104 0.0
O13 O 0.09356 0.05782 0.10334 0.0
Mg14 Mg 0.96198 0.04493 0.41228 0.0
O15 O 0.04334 0.08508 0.42904 0.0
O16 O 0.04876 0.14926 0.44635 0.0
Mg17 Mg 0.96982 0.14887 0.44118 0.0
C18 C 0.06878 0.1227 0.44085 0.0
C19 C 0.01016 0.97747 0.39986 0.0
O20 O 0.00795 0.96791 0.41653 0.0
O21 O 0.99307 0.11732 0.39544 0.0
O22 O 0.99102 0.17634 0.41335 0.0
O23 O 0.91906 0.98591 0.43279 0.0
O24 O 0.92671 0.06414 0.43178 0.0
C25 C 0.99864 0.16265 0.39844 0.0
C26 C 0.91024 0.02062 0.43971 0.0
O27 O 0.99395 0.00726 0.39413 0.0
Mg28 Mg 0.01243 0.06708 0.73695 0.0
O29 O 0.08272 0.13206 0.75528 0.0
O30 O 0.04774 0.16438 0.77326 0.0
Mg31 Mg 0.95544 0.12136 0.76615 0.0
C32 C 0.08827 0.16344 0.76792 0.0
C33 C 0.06078 0.04858 0.70427 0.0
O34 O 0.01031 0.03022 0.6981 0.0
O35 O 0.00858 0.12978 0.72098 0.0
O36 O 0.96839 0.1564 0.73899 0.0
O37 O 0.99356 0.00468 0.75652 0.0
O38 O 0.95541 0.05231 0.7551 0.0
C39 C 0.98754 0.15733 0.72428 0.0
C40 C 0.96021 0.01645 0.7627 0.0
O41 O 0.07501 0.06734 0.71996 0.0
Mg42 Mg 0.04418 0.59178 0.24881 0.0
C43 C 0.98623 0.47963 0.26097 0.0
O44 O 0.99548 0.47065 0.24513 0.0
C45 C 0.99354 0.65057 0.2338 0.0
O46 O 0.00828 0.67314 0.24963 0.0
C47 C 0.08404 0.56729 0.21699 0.0
O48 O 0.06597 0.59603 0.21019 0.0
O49 O 0.08697 0.56495 0.23348 0.0
O50 O 0.99681 0.52601 0.2654 0.0
O51 O 0.09392 0.66304 0.26591 0.0
C52 C 0.09809 0.65885 0.28228 0.0
O53 O 0.08017 0.6113 0.28827 0.0
O54 O 0.99816 0.611 0.23038 0.0
Mg55 Mg 0.54607 0.10561 0.57281 0.0
C56 C 0.49904 0.11867 0.53885 0.0
O57 O 0.50203 0.07707 0.5347 0.0
C58 C 0.63337 0.17613 0.60142 0.0
O59 O 0.59016 0.16415 0.60982 0.0
C60 C 0.43634 0.05413 0.58791 0.0
O61 O 0.42104 0.04892 0.57122 0.0
O62 O 0.48663 0.07385 0.59247 0.0
O63 O 0.51774 0.14155 0.55396 0.0
O64 O 0.55569 0.04631 0.55934 0.0
C65 C 0.5872 0.03303 0.56644 0.0
O66 O 0.60711 0.05018 0.5826 0.0
O67 O 0.62682 0.16066 0.58546 0.0
Mg68 Mg 0.59522 0.58418 0.90792 0.0
C69 C 0.57707 0.51968 0.87281 0.0
O70 O 0.61532 0.56478 0.86672 0.0
C71 C 0.71265 0.65862 0.92001 0.0
O72 O 0.71154 0.67695 0.90462 0.0
C73 C 0.53083 0.50648 0.93193 0.0
O74 O 0.56514 0.49445 0.92613 0.0
O75 O 0.53291 0.54793 0.92646 0.0
O76 O 0.56737 0.51826 0.8888 0.0
O77 O 0.60622 0.6542 0.8953 0.0
C78 C 0.58642 0.65351 0.88007 0.0
O79 O 0.54759 0.60761 0.87253 0.0
O80 O 0.67131 0.61427 0.92383 0.0
C81 C 0.00992 0.23414 0.10776 0.0
C82 C 0.02843 0.19969 0.11147 0.0
C83 C 0.00766 0.26538 0.12107 0.0
C84 C 0.07828 0.32795 0.16376 0.0
H85 H 0.98043 0.3802 0.16221 0.0
C86 C 0.09468 0.48883 0.21302 0.0
C87 C 0.08661 0.52771 0.20571 0.0
C88 C 0.0866 0.44551 0.20266 0.0
C89 C 0.00825 0.36615 0.16275 0.0
H90 H 0.05347 0.16693 0.13237 0.0
H91 H 0.04841 0.22078 0.15567 0.0
H92 H 0.95954 0.30419 0.14307 0.0
H93 H 0.06721 0.55328 0.18156 0.0
H94 H 0.05349 0.47806 0.16358 0.0
H95 H 0.12712 0.3904 0.1834 0.0
C96 C 0.03711 0.22465 0.14236 0.0
C97 C 0.99621 0.32252 0.15181 0.0
C98 C 0.03936 0.19328 0.12901 0.0
C99 C 0.07344 0.52395 0.18766 0.0
C100 C 0.06504 0.48056 0.17737 0.0
C101 C 0.09009 0.3714 0.17481 0.0
C102 C 0.0236 0.26277 0.13844 0.0
C103 C 0.03173 0.30364 0.15188 0.0
C104 C 0.07001 0.44012 0.18484 0.0
C105 C 0.05587 0.39173 0.1741 0.0
H106 H 1.00075 0.23981 0.09442 0.0
H107 H 0.99717 0.29432 0.11751 0.0
H108 H 0.10702 0.31505 0.164 0.0
H109 H 0.10477 0.49047 0.22688 0.0
H110 H 0.09088 0.41499 0.20875 0.0
C111 C 0.84417 0.95778 0.46052 0.0
C112 C 0.88083 0.01035 0.45579 0.0
C113 C 0.81142 0.94822 0.47451 0.0
C114 C 0.7215 0.94654 0.49504 0.0
H115 H 0.78037 0.03725 0.5375 0.0
C116 C 0.5962 0.99864 0.53759 0.0
C117 C 0.61005 0.00854 0.55565 0.0
C118 C 0.62531 0.98529 0.5269 0.0
C119 C 0.76318 0.01081 0.52589 0.0
H120 H 0.91378 0.09396 0.46263 0.0
H121 H 0.85776 0.07754 0.48696 0.0
H122 H 0.84241 0.04067 0.51662 0.0
H123 H 0.66232 0.00774 0.57681 0.0
H124 H 0.71272 0.98408 0.55818 0.0
H125 H 0.64207 0.91799 0.50409 0.0
C126 C 0.85393 0.04362 0.47987 0.0
C127 C 0.79879 0.01318 0.51385 0.0
C128 C 0.88586 0.05306 0.46579 0.0
C129 C 0.65092 1.00092 0.56293 0.0
C130 C 0.68003 0.98763 0.55225 0.0
C131 C 0.68575 0.94441 0.50705 0.0
C132 C 0.81563 0.99115 0.4842 0.0
C133 C 0.77832 0.98213 0.4981 0.0
C134 C 0.66887 0.98153 0.53405 0.0
C135 C 0.70618 0.97747 0.52243 0.0
H136 H 0.83922 0.924 0.453 0.0
H137 H 0.78237 0.90736 0.47762 0.0
H138 H 0.70454 0.92236 0.48295 0.0
H139 H 0.56483 0.00399 0.53155 0.0
H140 H 0.61583 0.98119 0.51293 0.0
C141 C 0.93021 0.94779 0.78543 0.0
C142 C 0.92656 0.98825 0.77737 0.0
C143 C 0.89401 0.91748 0.79796 0.0
C144 C 0.75633 0.8739 0.81118 0.0
H145 H 0.80084 0.8283 0.85234 0.0
C146 C 0.66374 0.74788 0.87712 0.0
C147 C 0.61723 0.70098 0.86953 0.0
C148 C 0.69979 0.78836 0.86669 0.0
C149 C 0.7878 0.8412 0.84102 0.0
H150 H 0.88301 0.02959 0.77657 0.0
H151 H 0.82074 0.97741 0.79848 0.0
H152 H 0.86968 0.88905 0.83316 0.0
H153 H 0.57019 0.66178 0.84511 0.0
H154 H 0.63298 0.73254 0.82694 0.0
H155 H 0.67441 0.82585 0.819 0.0
C156 C 0.85101 0.96857 0.79498 0.0
C157 C 0.8272 0.8755 0.82992 0.0
C158 C 0.88716 0.99886 0.78252 0.0
C159 C 0.60556 0.69731 0.85139 0.0
C160 C 0.64161 0.73794 0.84096 0.0
C161 C 0.71689 0.83939 0.82224 0.0
C162 C 0.85331 0.9269 0.80262 0.0
C163 C 0.8119 0.89201 0.81482 0.0
C164 C 0.69008 0.78307 0.84845 0.0
C165 C 0.73211 0.82239 0.83723 0.0
H166 H 0.95998 0.93851 0.78172 0.0
H167 H 0.89663 0.88539 0.80352 0.0
H168 H 0.74306 0.88539 0.79955 0.0
H169 H 0.67385 0.75228 0.89106 0.0
H170 H 0.73617 0.82315 0.87289 0.0
C171 C 0.0602 0.9824 0.12935 0.0
C172 C 0.06497 0.97015 0.11205 0.0
C173 C 0.04587 0.94472 0.14204 0.0
C174 C 0.98387 0.79994 0.14833 0.0
H175 H 0.06101 0.85118 0.19404 0.0
C176 C 0.98213 0.66231 0.20188 0.0
C177 C 0.98429 0.67833 0.2194 0.0
C178 C 0.98425 0.69452 0.18839 0.0
C179 C 0.03839 0.83624 0.18145 0.0
H180 H 0.05772 0.90822 0.0945 0.0
H181 H 0.03358 0.84255 0.11679 0.0
H182 H 0.08166 0.91401 0.17128 0.0
H183 H 0.98595 0.73863 0.23632 0.0
H184 H 0.98878 0.79421 0.21282 0.0
H185 H 0.94131 0.72179 0.15857 0.0
C186 C 0.04024 0.8812 0.12046 0.0
C187 C 0.05031 0.87233 0.16836 0.0
C188 C 0.05444 0.91897 0.10771 0.0
C189 C 0.98474 0.72531 0.22301 0.0
C190 C 0.9868 0.75742 0.20954 0.0
C191 C 0.97201 0.76368 0.16147 0.0
C192 C 0.03617 0.8938 0.13782 0.0
C193 C 0.02317 0.85475 0.15164 0.0
C194 C 0.98849 0.74336 0.19213 0.0
C195 C 0.99908 0.78149 0.1782 0.0
H196 H 0.06747 0.02123 0.13315 0.0
H197 H 0.04211 0.9555 0.15518 0.0
H198 H 0.96176 0.78512 0.13566 0.0
H199 H 0.98174 0.62633 0.19862 0.0
H200 H 0.98561 0.68256 0.17514 0.0
C201 C 0.14859 0.17196 0.46313 0.0
C202 C 0.12168 0.13386 0.44909 0.0
C203 C 0.19614 0.17952 0.47179 0.0
C204 C 0.30737 0.15342 0.46805 0.0
H205 H 0.31278 0.15831 0.5186 0.0
C206 C 0.44524 0.10626 0.51067 0.0
C207 C 0.46743 0.1334 0.52704 0.0
C208 C 0.40975 0.11497 0.50033 0.0
C209 C 0.31258 0.15805 0.5045 0.0
H210 H 0.12498 0.07507 0.43284 0.0
H211 H 0.20764 0.08812 0.44801 0.0
H212 H 0.23819 0.15735 0.50201 0.0
H213 H 0.47173 0.19301 0.54502 0.0
H214 H 0.41018 0.20868 0.52686 0.0
H215 H 0.38131 0.15312 0.47057 0.0
C216 C 0.19216 0.11243 0.45223 0.0
C217 C 0.26969 0.15741 0.49498 0.0
C218 C 0.14452 0.10474 0.4436 0.0
C219 C 0.45521 0.17128 0.5325 0.0
C220 C 0.41961 0.17998 0.52215 0.0
C221 C 0.35037 0.15417 0.47759 0.0
C222 C 0.21807 0.14934 0.4666 0.0
C223 C 0.26611 0.15428 0.47664 0.0
C224 C 0.39554 0.15108 0.5061 0.0
C225 C 0.35304 0.15566 0.49593 0.0
H226 H 0.13239 0.1953 0.46769 0.0
H227 H 0.21552 0.20878 0.48265 0.0
H228 H 0.30626 0.15183 0.45394 0.0
H229 H 0.45382 0.07685 0.50604 0.0
H230 H 0.39161 0.09159 0.48815 0.0
C231 C 0.19093 0.21433 0.76862 0.0
C232 C 0.14301 0.19828 0.77713 0.0
C233 C 0.24251 0.24631 0.77755 0.0
C234 C 0.31287 0.27537 0.82017 0.0
H235 H 0.41676 0.41799 0.8059 0.0
C236 C 0.48878 0.43192 0.86711 0.0
C237 C 0.53658 0.47447 0.86071 0.0
C238 C 0.44565 0.3941 0.85571 0.0
C239 C 0.38905 0.37783 0.80989 0.0
H240 H 0.11162 0.20273 0.80168 0.0
H241 H 0.20169 0.25711 0.81737 0.0
H242 H 0.33171 0.36035 0.78799 0.0
H243 H 0.57791 0.5083 0.83724 0.0
H244 H 0.50346 0.44071 0.81727 0.0
H245 H 0.36984 0.29159 0.84181 0.0
C246 C 0.19917 0.24549 0.80375 0.0
C247 C 0.34011 0.34504 0.79966 0.0
C248 C 0.14774 0.21467 0.79474 0.0
C249 C 0.54156 0.47621 0.84261 0.0
C250 C 0.49851 0.43772 0.83115 0.0
C251 C 0.3622 0.30757 0.83019 0.0
C252 C 0.24694 0.26157 0.79524 0.0
C253 C 0.30109 0.29412 0.80497 0.0
C254 C 0.44927 0.39698 0.83753 0.0
C255 C 0.40038 0.35993 0.8255 0.0
H256 H 0.18855 0.20242 0.75505 0.0
H257 H 0.27889 0.25831 0.77075 0.0
H258 H 0.28357 0.23589 0.82438 0.0
H259 H 0.48325 0.4292 0.88097 0.0
H260 H 0.40843 0.36418 0.86126 0.0
C261 C 0.94974 0.21129 0.71314 0.0
C262 C 0.97703 0.18464 0.70996 0.0
C263 C 0.9287 0.22679 0.69933 0.0
C264 C 0.87726 0.18457 0.65352 0.0
H265 H 0.84778 0.29776 0.65739 0.0
C266 C 0.72927 0.1959 0.60352 0.0
C267 C 0.68719 0.19783 0.61118 0.0
C268 C 0.77639 0.2075 0.61358 0.0
C269 C 0.8559 0.26612 0.65609 0.0
H270 H 0.00819 0.15818 0.68972 0.0
H271 H 0.97265 0.18652 0.66561 0.0
H272 H 0.91313 0.29632 0.6785 0.0
H273 H 0.66339 0.21709 0.63511 0.0
H274 H 0.74572 0.23763 0.65261 0.0
H275 H 0.81917 0.15374 0.63138 0.0
C276 C 0.96608 0.19395 0.67881 0.0
C277 C 0.89323 0.26516 0.6682 0.0
C278 C 0.98693 0.17812 0.69266 0.0
C279 C 0.69492 0.21504 0.62882 0.0
C280 C 0.74227 0.2271 0.63884 0.0
C281 C 0.84041 0.18585 0.64134 0.0
C282 C 0.93474 0.21649 0.68195 0.0
C283 C 0.90309 0.22339 0.6674 0.0
C284 C 0.78272 0.22182 0.63146 0.0
C285 C 0.82811 0.22573 0.64278 0.0
H286 H 0.94163 0.21742 0.72628 0.0
H287 H 0.90457 0.24364 0.70234 0.0
H288 H 0.88293 0.15127 0.65259 0.0
H289 H 0.72473 0.18287 0.58995 0.0
H290 H 0.80714 0.20363 0.6075 0.0
C291 C 0.96545 0.976 0.04579 0.0
C292 C 0.98126 0.02782 0.04102 0.0
C293 C 0.93396 0.93191 0.03399 0.0
C294 C 0.84941 0.89107 0.99143 0.0
H295 H 0.88396 0.78109 0.98917 0.0
C296 C 0.78724 0.75025 0.93111 0.0
C297 C 0.7529 0.6956 0.9341 0.0
C298 C 0.81641 0.78754 0.94501 0.0
C299 C 0.87381 0.81144 0.98976 0.0
H300 H 0.97531 0.07351 0.02013 0.0
H301 H 0.9224 0.99777 0.9996 0.0
H302 H 0.92883 0.85215 0.01227 0.0
H303 H 0.72592 0.63692 0.95394 0.0
H304 H 0.77856 0.70247 0.97824 0.0
H305 H 0.79624 0.85153 0.96847 0.0
C306 C 0.93281 0.99046 0.01255 0.0
C307 C 0.89912 0.85197 0.00305 0.0
C308 C 0.9636 0.03424 0.02437 0.0
C309 C 0.75189 0.67871 0.95119 0.0
C310 C 0.7819 0.71613 0.9651 0.0
C311 C 0.82502 0.85127 0.97802 0.0
C312 C 0.91796 0.93869 0.01709 0.0
C313 C 0.88782 0.89282 0.00391 0.0
C314 C 0.81274 0.77101 0.96217 0.0
C315 C 0.83748 0.81151 0.97693 0.0
H316 H 0.97819 0.96955 0.05853 0.0
H317 H 0.92256 0.89262 0.03809 0.0
H318 H 0.83833 0.92074 0.99189 0.0
H319 H 0.78922 0.76479 0.91815 0.0
H320 H 0.84051 0.82964 0.94241 0.0
C321 C 0.03754 0.967 0.37035 0.0
C322 C 0.03029 0.95305 0.38784 0.0
C323 C 0.05508 0.94284 0.3589 0.0
C324 C 0.11861 0.86138 0.35741 0.0
H325 H 0.04643 0.8194 0.31085 0.0
C326 C 0.1102 0.69793 0.31255 0.0
C327 C 0.11055 0.70397 0.29444 0.0
C328 C 0.11118 0.7359 0.3239 0.0
C329 C 0.06777 0.83166 0.32369 0.0
H330 H 0.03659 0.90325 0.40707 0.0
H331 H 0.06587 0.86024 0.38704 0.0
H332 H 0.02605 0.87028 0.33068 0.0
H333 H 0.11625 0.75674 0.27418 0.0
H334 H 0.11828 0.82305 0.294 0.0
H335 H 0.15894 0.82098 0.35048 0.0
C336 C 0.05903 0.89059 0.38221 0.0
C337 C 0.05605 0.86089 0.3351 0.0
C338 C 0.0418 0.91499 0.39368 0.0
C339 C 0.11564 0.75064 0.28805 0.0
C340 C 0.11637 0.78848 0.29939 0.0
C341 C 0.13012 0.83184 0.346 0.0
C342 C 0.06549 0.90388 0.36463 0.0
C343 C 0.08082 0.87565 0.35218 0.0
C344 C 0.11237 0.78067 0.31738 0.0
C345 C 0.10439 0.81618 0.32906 0.0
H346 H 0.02951 0.99653 0.36546 0.0
H347 H 0.06047 0.95475 0.34554 0.0
H348 H 0.13918 0.87284 0.37036 0.0
H349 H 0.10645 0.66255 0.31793 0.0
H350 H 0.10782 0.72853 0.33768 0.0
C351 C 0.08417 0.02602 0.67581 0.0
C352 C 0.10003 0.04634 0.6932 0.0
C353 C 0.1208 0.02323 0.66538 0.0
C354 C 0.26841 0.08011 0.66148 0.0
H355 H 0.21612 0.95802 0.62909 0.0
C356 C 0.41471 0.05822 0.61889 0.0
C357 C 0.39688 0.0439 0.60116 0.0
C358 C 0.37854 0.05414 0.63107 0.0
C359 C 0.2313 0.99251 0.638 0.0
H360 H 0.16697 0.07962 0.71327 0.0
H361 H 0.23073 0.0743 0.6951 0.0
H362 H 0.15329 0.96032 0.64849 0.0
H363 H 0.32649 0.01207 0.58247 0.0
H364 H 0.26361 0.00505 0.60366 0.0
H365 H 0.34629 0.11251 0.65087 0.0
C366 C 0.19012 0.06107 0.68947 0.0
C367 C 0.19527 0.99391 0.6491 0.0
C368 C 0.15346 0.0639 0.69991 0.0
C369 C 0.34161 0.02346 0.59602 0.0
C370 C 0.30544 0.01919 0.60819 0.0
C371 C 0.30447 0.07866 0.6504 0.0
C372 C 0.17421 0.04063 0.67207 0.0
C373 C 0.21321 0.038 0.66085 0.0
C374 C 0.32369 0.03539 0.6258 0.0
C375 C 0.2862 0.0351 0.6384 0.0
H376 H 0.04341 0.01231 0.6702 0.0
H377 H 0.10744 0.0081 0.65197 0.0
H378 H 0.28348 0.115 0.67019 0.0
H379 H 0.457 0.07403 0.62332 0.0
H380 H 0.39369 0.06624 0.64458 0.0
C381 C 0.24014 0.1887 0.03766 0.0
C382 C 0.20821 0.20357 0.04628 0.0
C383 C 0.27257 0.21965 0.02443 0.0
C384 C 0.33843 0.35691 0.0089 0.0
H385 H 0.35311 0.29389 0.96663 0.0
C386 C 0.45539 0.48409 0.95164 0.0
C387 C 0.49088 0.47146 0.94432 0.0
C388 C 0.41841 0.4504 0.96348 0.0
C389 C 0.34965 0.31206 0.97842 0.0
H390 H 0.18513 0.26244 0.04764 0.0
H391 H 0.2398 0.31479 0.0245 0.0
H392 H 0.29384 0.2359 0.98848 0.0
H393 H 0.51505 0.41334 0.94358 0.0
H394 H 0.45126 0.35532 0.96418 0.0
H395 H 0.39432 0.433 0.99891 0.0
C396 C 0.2407 0.27992 0.02805 0.0
C397 C 0.31585 0.27884 0.99095 0.0
C398 C 0.20868 0.24931 0.04121 0.0
C399 C 0.48831 0.42436 0.94895 0.0
C400 C 0.45139 0.39075 0.96068 0.0
C401 C 0.37209 0.39008 0.99637 0.0
C402 C 0.27366 0.26602 0.01966 0.0
C403 C 0.30988 0.30091 0.00633 0.0
C404 C 0.41611 0.40337 0.96812 0.0
C405 C 0.37825 0.36806 0.98103 0.0
H406 H 0.24081 0.15379 0.04131 0.0
H407 H 0.29785 0.20809 0.01828 0.0
H408 H 0.33551 0.37525 0.02075 0.0
H409 H 0.45631 0.52002 0.94829 0.0
H410 H 0.39138 0.46094 0.96892 0.0
C411 C 0.01434 0.24828 0.38705 0.0
C412 C 0.0072 0.19789 0.38381 0.0
C413 C 0.01279 0.27785 0.37331 0.0
C414 C 0.0204 0.29244 0.32574 0.0
H415 H 0.93024 0.35153 0.33224 0.0
C416 C 0.97063 0.39172 0.26999 0.0
C417 C 0.97595 0.44066 0.27447 0.0
C418 C 0.97043 0.35895 0.28296 0.0
C419 C 0.95592 0.33572 0.33026 0.0
H420 H 0.99632 0.14078 0.36341 0.0
H421 H 0.99371 0.19268 0.33938 0.0
H422 H 0.94318 0.30345 0.35551 0.0
H423 H 0.98243 0.49218 0.29611 0.0
H424 H 0.98243 0.43534 0.31866 0.0
H425 H 0.03363 0.32526 0.30054 0.0
C426 C 1.00042 0.20912 0.35261 0.0
C427 C 0.96345 0.30824 0.34361 0.0
C428 C 1.00193 0.17939 0.3664 0.0
C429 C 0.97812 0.45469 0.29218 0.0
C430 C 0.97803 0.42198 0.30514 0.0
C431 C 0.01302 0.32014 0.31238 0.0
C432 C 1.00413 0.2579 0.35596 0.0
C433 C 0.99612 0.28666 0.34158 0.0
C434 C 0.97554 0.37435 0.30069 0.0
C435 C 0.98095 0.34241 0.31452 0.0
H436 H 0.01914 0.26415 0.40027 0.0
H437 H 0.01713 0.31592 0.37629 0.0
H438 H 0.04607 0.27658 0.32382 0.0
H439 H 0.96863 0.37956 0.25647 0.0
H440 H 0.96731 0.32199 0.27908 0.0
loop_
_geom_bond_atom_site_label_1
_geom_bond_atom_site_label_2
_geom_bond_distance
_geom_bond_site_symmetry_2
_ccdc_geom_bond_type
Mg0 O1 2.028 . S
Mg0 O7 1.986 . S
Mg0 O9 2.114 . S
Mg0 O10 2.251 . S
Mg0 O13 2.010 . S
O1 Mg0 2.028 . S
O1 C4 1.250 . S
O2 Mg3 2.028 . S
O2 C4 1.248 . S
Mg3 O2 2.028 . S
Mg3 O8 2.032 . S
Mg3 O10 2.079 . S
C4 O1 1.250 . S
C4 O2 1.248 . S
C5 O6 1.264 . S
C5 O13 1.249 . S
O6 C5 1.264 . S
O7 Mg0 1.986 . S
O7 C11 1.246 . S
O8 Mg3 2.032 . S
O8 C11 1.259 . S
O9 Mg0 2.114 . S
O9 C12 1.252 . S
O10 Mg0 2.251 . S
O10 Mg3 2.079 . S
O10 C12 1.273 . S
C11 O7 1.246 . S
C11 O8 1.259 . S
C12 O9 1.252 . S
C12 O10 1.273 . S
O13 Mg0 2.010 . S
O13 C5 1.249 . S
Mg14 O15 2.028 1_655 S
Mg14 O21 1.986 1_655 S
Mg14 O23 2.114 . S
Mg14 O24 2.251 . S
Mg14 O27 2.025 . S
O15 Mg14 2.028 1_455 S
O15 C18 1.250 . S
O16 Mg17 2.028 . S
O16 C18 1.248 . S
Mg17 O16 2.028 . S
Mg17 O22 2.032 . S
Mg17 O24 2.079 1_455 S
C18 O15 1.250 . S
C18 O16 1.248 . S
C19 O20 1.264 . S
C19 O27 1.232 1_565 S
O20 C19 1.264 . S
O21 Mg14 1.986 1_455 S
O21 C25 1.246 . S
O22 Mg17 2.032 . S
O22 C25 1.259 . S
O23 Mg14 2.114 . S
O23 C26 1.252 . S
O24 Mg14 2.251 . S
O24 Mg17 2.079 1_655 S
O24 C26 1.273 . S
C25 O21 1.246 . S
C25 O22 1.259 . S
C26 O23 1.252 . S
C26 O24 1.273 . S
O27 Mg14 2.025 . S
O27 C19 1.232 1_545 S
Mg28 O29 2.028 . S
Mg28 O35 1.986 1_455 S
Mg28 O37 2.114 1_545 S
Mg28 O38 2.251 1_455 S
Mg28 O41 2.010 . S
O29 Mg28 2.028 . S
O29 C32 1.250 . S
O30 Mg31 2.028 1_455 S
O30 C32 1.248 . S
Mg31 O30 2.028 1_655 S
Mg31 O36 2.032 . S
Mg31 O38 2.079 . S
C32 O29 1.250 . S
C32 O30 1.248 . S
C33 O34 1.264 1_545 S
C33 O41 1.249 . S
O34 C33 1.264 1_565 S
O35 Mg28 1.986 1_655 S
O35 C39 1.246 . S
O36 Mg31 2.032 . S
O36 C39 1.259 . S
O37 Mg28 2.114 1_565 S
O37 C40 1.252 1_455 S
O38 Mg28 2.251 1_655 S
O38 Mg31 2.079 . S
O38 C40 1.273 1_545 S
C39 O35 1.246 . S
C39 O36 1.259 . S
C40 O37 1.252 1_655 S
C40 O38 1.273 1_565 S
O41 Mg28 2.010 . S
O41 C33 1.249 . S
Mg42 O49 2.141 . S
Mg42 O50 2.048 . S
Mg42 O51 2.048 . S
Mg42 O54 2.141 . S
C43 O44 1.313 1_455 S
C43 O50 1.195 . S
O44 C43 1.313 1_655 S
C45 O46 1.245 1_455 S
C45 O54 1.289 . S
O46 C45 1.245 1_655 S
C47 O48 1.245 1_455 S
C47 O49 1.289 . S
O48 C47 1.245 1_655 S
O49 Mg42 2.141 . S
O49 C47 1.289 . S
O50 Mg42 2.048 . S
O50 C43 1.195 . S
O51 Mg42 2.048 . S
O51 C52 1.195 . S
C52 O51 1.195 . S
C52 O53 1.313 1_455 S
O53 C52 1.313 1_655 S
O54 Mg42 2.141 . S
O54 C45 1.289 . S
Mg55 O62 2.141 . S
Mg55 O63 2.048 . S
Mg55 O64 2.048 . S
Mg55 O67 2.141 . S
C56 O57 1.313 . S
C56 O63 1.195 . S
O57 C56 1.313 . S
C58 O59 1.245 . S
C58 O67 1.289 . S
O59 C58 1.245 . S
C60 O61 1.245 . S
C60 O62 1.289 . S
O61 C60 1.245 . S
O62 Mg55 2.141 . S
O62 C60 1.289 . S
O63 Mg55 2.048 . S
O63 C56 1.195 . S
O64 Mg55 2.048 . S
O64 C65 1.195 . S
C65 O64 1.195 . S
C65 O66 1.313 . S
O66 C65 1.313 . S
O67 Mg55 2.141 . S
O67 C58 1.289 . S
Mg68 O75 2.141 . S
Mg68 O76 2.048 . S
Mg68 O77 2.048 . S
Mg68 O80 2.141 . S
C69 O70 1.313 . S
C69 O76 1.195 . S
O70 C69 1.313 . S
C71 O72 1.245 . S
C71 O80 1.289 . S
O72 C71 1.245 . S
C73 O74 1.245 . S
C73 O75 1.289 . S
O74 C73 1.245 . S
O75 Mg68 2.141 . S
O75 C73 1.289 . S
O76 Mg68 2.048 . S
O76 C69 1.195 . S
O77 Mg68 2.048 . S
O77 C78 1.195 . S
C78 O77 1.195 . S
C78 O79 1.313 . S
O79 C78 1.313 . S
O80 Mg68 2.141 . S
O80 C71 1.289 . S
C81 C82 1.349 . S
C81 C83 1.327 . S
C81 H106 0.950 1_455 S
C82 C81 1.349 . S
C82 C98 1.349 . S
C83 C81 1.327 . S
C83 C102 1.429 . S
C83 H107 0.950 1_455 S
C84 C101 1.574 . S
C84 C103 1.368 . S
C84 H108 0.949 . S
H85 C89 0.949 1_655 S
C86 C87 1.349 . S
C86 C88 1.327 . S
C86 H109 0.950 . S
C87 C86 1.349 . S
C87 C99 1.349 . S
C88 C86 1.327 . S
C88 C104 1.429 . S
C88 H110 0.950 . S
C89 H85 0.949 1_455 S
C89 C97 1.574 . S
C89 C105 1.368 . S
H90 C98 0.950 . S
H91 C96 0.950 . S
H92 C97 0.949 1_655 S
H93 C99 0.950 1_655 S
H94 C100 0.950 1_655 S
H95 C101 0.949 . S
C96 H91 0.950 . S
C96 C98 1.327 . S
C96 C102 1.429 . S
C97 C89 1.574 . S
C97 H92 0.949 1_455 S
C97 C103 1.368 . S
C98 C82 1.349 . S
C98 H90 0.950 . S
C98 C96 1.327 . S
C99 C87 1.349 . S
C99 H93 0.950 1_455 S
C99 C100 1.327 . S
C100 H94 0.950 1_455 S
C100 C99 1.327 . S
C100 C104 1.429 . S
C101 C84 1.574 . S
C101 H95 0.949 . S
C101 C105 1.368 . S
C102 C83 1.429 . S
C102 C96 1.429 . S
C102 C103 1.523 . S
C103 C84 1.368 . S
C103 C97 1.368 . S
C103 C102 1.523 . S
C104 C88 1.429 . S
C104 C100 1.429 . S
C104 C105 1.523 . S
C105 C89 1.368 . S
C105 C101 1.368 . S
C105 C104 1.523 . S
H106 C81 0.950 1_655 S
H107 C83 0.950 1_655 S
H108 C84 0.949 . S
H109 C86 0.950 . S
H110 C88 0.950 . S
C111 C112 1.349 . S
C111 C113 1.327 . S
C111 H136 0.950 . S
C112 C111 1.349 . S
C112 C128 1.349 . S
C113 C111 1.327 . S
C113 C132 1.429 . S
C113 H137 0.950 . S
C114 C131 1.574 . S
C114 C133 1.368 . S
C114 H138 0.949 . S
H115 C119 0.949 . S
C116 C117 1.349 . S
C116 C118 1.327 . S
C116 H139 0.950 . S
C117 C116 1.349 . S
C117 C129 1.349 . S
C118 C116 1.327 . S
C118 C134 1.429 . S
C118 H140 0.950 . S
C119 H115 0.949 . S
C119 C127 1.574 . S
C119 C135 1.368 . S
H120 C128 0.950 . S
H121 C126 0.950 . S
H122 C127 0.949 . S
H123 C129 0.950 . S
H124 C130 0.950 . S
H125 C131 0.949 . S
C126 H121 0.950 . S
C126 C128 1.327 . S
C126 C132 1.429 . S
C127 C119 1.574 . S
C127 H122 0.949 . S
C127 C133 1.368 . S
C128 C112 1.349 . S
C128 H120 0.950 . S
C128 C126 1.327 . S
C129 C117 1.349 . S
C129 H123 0.950 . S
C129 C130 1.327 . S
C130 H124 0.950 . S
C130 C129 1.327 . S
C130 C134 1.429 . S
C131 C114 1.574 . S
C131 H125 0.949 . S
C131 C135 1.368 . S
C132 C113 1.429 . S
C132 C126 1.429 . S
C132 C133 1.523 . S
C133 C114 1.368 . S
C133 C127 1.368 . S
C133 C132 1.523 . S
C134 C118 1.429 . S
C134 C130 1.429 . S
C134 C135 1.523 . S
C135 C119 1.368 . S
C135 C131 1.368 . S
C135 C134 1.523 . S
H136 C111 0.950 . S
H137 C113 0.950 . S
H138 C114 0.949 . S
H139 C116 0.950 . S
H140 C118 0.950 . S
C141 C142 1.349 . S
C141 C143 1.327 . S
C141 H166 0.950 . S
C142 C141 1.349 . S
C142 C158 1.349 . S
C143 C141 1.327 . S
C143 C162 1.429 . S
C143 H167 0.950 . S
C144 C161 1.574 . S
C144 C163 1.368 . S
C144 H168 0.949 . S
H145 C149 0.949 . S
C146 C147 1.349 . S
C146 C148 1.327 . S
C146 H169 0.950 . S
C147 C146 1.349 . S
C147 C159 1.349 . S
C148 C146 1.327 . S
C148 C164 1.429 . S
C148 H170 0.950 . S
C149 H145 0.949 . S
C149 C157 1.574 . S
C149 C165 1.368 . S
H150 C158 0.950 1_545 S
H151 C156 0.950 . S
H152 C157 0.949 . S
H153 C159 0.950 . S
H154 C160 0.950 . S
H155 C161 0.949 . S
C156 H151 0.950 . S
C156 C158 1.327 . S
C156 C162 1.429 . S
C157 C149 1.574 . S
C157 H152 0.949 . S
C157 C163 1.368 . S
C158 C142 1.349 . S
C158 H150 0.950 1_565 S
C158 C156 1.327 . S
C159 C147 1.349 . S
C159 H153 0.950 . S
C159 C160 1.327 . S
C160 H154 0.950 . S
C160 C159 1.327 . S
C160 C164 1.429 . S
C161 C144 1.574 . S
C161 H155 0.949 . S
C161 C165 1.368 . S
C162 C143 1.429 . S
C162 C156 1.429 . S
C162 C163 1.523 . S
C163 C144 1.368 . S
C163 C157 1.368 . S
C163 C162 1.523 . S
C164 C148 1.429 . S
C164 C160 1.429 . S
C164 C165 1.523 . S
C165 C149 1.368 . S
C165 C161 1.368 . S
C165 C164 1.523 . S
H166 C141 0.950 . S
H167 C143 0.950 . S
H168 C144 0.949 . S
H169 C146 0.950 . S
H170 C148 0.950 . S
C171 C172 1.350 . S
C171 C173 1.332 . S
C171 H196 0.943 1_565 S
C172 C171 1.350 . S
C172 C188 1.349 . S
C173 C171 1.332 . S
C173 C192 1.429 . S
C173 H197 0.950 . S
C174 C191 1.574 . S
C174 C193 1.368 . S
C174 H198 0.949 . S
H175 C179 0.949 . S
C176 C177 1.349 . S
C176 C178 1.327 . S
C176 H199 0.950 . S
C177 C176 1.349 . S
C177 C189 1.349 . S
C178 C176 1.327 . S
C178 C194 1.429 . S
C178 H200 0.950 . S
C179 H175 0.949 . S
C179 C187 1.574 . S
C179 C195 1.368 . S
H180 C188 0.950 . S
H181 C186 0.950 . S
H182 C187 0.949 . S
H183 C189 0.950 . S
H184 C190 0.950 . S
H185 C191 0.949 . S
C186 H181 0.950 . S
C186 C188 1.327 . S
C186 C192 1.429 . S
C187 C179 1.574 . S
C187 H182 0.949 . S
C187 C193 1.368 . S
C188 C172 1.349 . S
C188 H180 0.950 . S
C188 C186 1.327 . S
C189 C177 1.349 . S
C189 H183 0.950 . S
C189 C190 1.327 . S
C190 H184 0.950 . S
C190 C189 1.327 . S
C190 C194 1.429 . S
C191 C174 1.574 . S
C191 H185 0.949 . S
C191 C195 1.368 . S
C192 C173 1.429 . S
C192 C186 1.429 . S
C192 C193 1.523 . S
C193 C174 1.368 . S
C193 C187 1.368 . S
C193 C192 1.523 . S
C194 C178 1.429 . S
C194 C190 1.429 . S
C194 C195 1.523 . S
C195 C179 1.368 . S
C195 C191 1.368 . S
C195 C194 1.523 . S
H196 C171 0.943 1_545 S
H197 C173 0.950 . S
H198 C174 0.949 . S
H199 C176 0.950 . S
H200 C178 0.950 . S
C201 C202 1.349 . S
C201 C203 1.327 . S
C201 H226 0.950 . S
C202 C201 1.349 . S
C202 C218 1.349 . S
C203 C201 1.327 . S
C203 C222 1.429 . S
C203 H227 0.950 . S
C204 C221 1.574 . S
C204 C223 1.368 . S
C204 H228 0.949 . S
H205 C209 0.949 . S
C206 C207 1.349 . S
C206 C208 1.327 . S
C206 H229 0.950 . S
C207 C206 1.349 . S
C207 C219 1.349 . S
C208 C206 1.327 . S
C208 C224 1.429 . S
C208 H230 0.950 . S
C209 H205 0.949 . S
C209 C217 1.574 . S
C209 C225 1.368 . S
H210 C218 0.950 . S
H211 C216 0.950 . S
H212 C217 0.949 . S
H213 C219 0.950 . S
H214 C220 0.950 . S
H215 C221 0.949 . S
C216 H211 0.950 . S
C216 C218 1.327 . S
C216 C222 1.429 . S
C217 C209 1.574 . S
C217 H212 0.949 . S
C217 C223 1.368 . S
C218 C202 1.349 . S
C218 H210 0.950 . S
C218 C216 1.327 . S
C219 C207 1.349 . S
C219 H213 0.950 . S
C219 C220 1.327 . S
C220 H214 0.950 . S
C220 C219 1.327 . S
C220 C224 1.429 . S
C221 C204 1.574 . S
C221 H215 0.949 . S
C221 C225 1.368 . S
C222 C203 1.429 . S
C222 C216 1.429 . S
C222 C223 1.523 . S
C223 C204 1.368 . S
C223 C217 1.368 . S
C223 C222 1.523 . S
C224 C208 1.429 . S
C224 C220 1.429 . S
C224 C225 1.523 . S
C225 C209 1.368 . S
C225 C221 1.368 . S
C225 C224 1.523 . S
H226 C201 0.950 . S
H227 C203 0.950 . S
H228 C204 0.949 . S
H229 C206 0.950 . S
H230 C208 0.950 . S
C231 C232 1.349 . S
C231 C233 1.327 . S
C231 H256 0.950 . S
C232 C231 1.349 . S
C232 C248 1.349 . S
C233 C231 1.327 . S
C233 C252 1.429 . S
C233 H257 0.950 . S
C234 C251 1.574 . S
C234 C253 1.368 . S
C234 H258 0.949 . S
H235 C239 0.949 . S
C236 C237 1.349 . S
C236 C238 1.327 . S
C236 H259 0.950 . S
C237 C236 1.349 . S
C237 C249 1.349 . S
C238 C236 1.327 . S
C238 C254 1.429 . S
C238 H260 0.950 . S
C239 H235 0.949 . S
C239 C247 1.574 . S
C239 C255 1.368 . S
H240 C248 0.950 . S
H241 C246 0.950 . S
H242 C247 0.949 . S
H243 C249 0.950 . S
H244 C250 0.950 . S
H245 C251 0.949 . S
C246 H241 0.950 . S
C246 C248 1.327 . S
C246 C252 1.429 . S
C247 C239 1.574 . S
C247 H242 0.949 . S
C247 C253 1.368 . S
C248 C232 1.349 . S
C248 H240 0.950 . S
C248 C246 1.327 . S
C249 C237 1.349 . S
C249 H243 0.950 . S
C249 C250 1.327 . S
C250 H244 0.950 . S
C250 C249 1.327 . S
C250 C254 1.429 . S
C251 C234 1.574 . S
C251 H245 0.949 . S
C251 C255 1.368 . S
C252 C233 1.429 . S
C252 C246 1.429 . S
C252 C253 1.523 . S
C253 C234 1.368 . S
C253 C247 1.368 . S
C253 C252 1.523 . S
C254 C238 1.429 . S
C254 C250 1.429 . S
C254 C255 1.523 . S
C255 C239 1.368 . S
C255 C251 1.368 . S
C255 C254 1.523 . S
H256 C231 0.950 . S
H257 C233 0.950 . S
H258 C234 0.949 . S
H259 C236 0.950 . S
H260 C238 0.950 . S
C261 C262 1.349 . S
C261 C263 1.327 . S
C261 H286 0.950 . S
C262 C261 1.349 . S
C262 C278 1.349 . S
C263 C261 1.327 . S
C263 C282 1.429 . S
C263 H287 0.950 . S
C264 C281 1.574 . S
C264 C283 1.368 . S
C264 H288 0.949 . S
H265 C269 0.949 . S
C266 C267 1.349 . S
C266 C268 1.327 . S
C266 H289 0.950 . S
C267 C266 1.349 . S
C267 C279 1.349 . S
C268 C266 1.327 . S
C268 C284 1.429 . S
C268 H290 0.950 . S
C269 H265 0.949 . S
C269 C277 1.574 . S
C269 C285 1.368 . S
H270 C278 0.950 . S
H271 C276 0.950 . S
H272 C277 0.949 . S
H273 C279 0.950 . S
H274 C280 0.950 . S
H275 C281 0.949 . S
C276 H271 0.950 . S
C276 C278 1.327 . S
C276 C282 1.429 . S
C277 C269 1.574 . S
C277 H272 0.949 . S
C277 C283 1.368 . S
C278 C262 1.349 . S
C278 H270 0.950 . S
C278 C276 1.327 . S
C279 C267 1.349 . S
C279 H273 0.950 . S
C279 C280 1.327 . S
C280 H274 0.950 . S
C280 C279 1.327 . S
C280 C284 1.429 . S
C281 C264 1.574 . S
C281 H275 0.949 . S
C281 C285 1.368 . S
C282 C263 1.429 . S
C282 C276 1.429 . S
C282 C283 1.523 . S
C283 C264 1.368 . S
C283 C277 1.368 . S
C283 C282 1.523 . S
C284 C268 1.429 . S
C284 C280 1.429 . S
C284 C285 1.523 . S
C285 C269 1.368 . S
C285 C281 1.368 . S
C285 C284 1.523 . S
H286 C261 0.950 . S
H287 C263 0.950 . S
H288 C264 0.949 . S
H289 C266 0.950 . S
H290 C268 0.950 . S
C291 C292 1.349 1_565 S
C291 C293 1.327 . S
C291 H316 0.950 . S
C292 C291 1.349 1_545 S
C292 C308 1.349 . S
C293 C291 1.327 . S
C293 C312 1.429 . S
C293 H317 0.950 . S
C294 C311 1.574 . S
C294 C313 1.368 1_556 S
C294 H318 0.949 . S
H295 C299 0.949 . S
C296 C297 1.349 . S
C296 C298 1.327 . S
C296 H319 0.950 . S
C297 C296 1.349 . S
C297 C309 1.349 . S
C298 C296 1.327 . S
C298 C314 1.429 . S
C298 H320 0.950 . S
C299 H295 0.949 . S
C299 C307 1.574 . S
C299 C315 1.368 1_554 S
H300 C308 0.950 1_455 S
H301 C306 0.950 . S
H302 C307 0.949 . S
H303 C309 0.950 . S
H304 C310 0.950 . S
H305 C311 0.949 . S
C306 H301 0.950 . S
C306 C308 1.327 1_565 S
C306 C312 1.429 . S
C307 C299 1.574 . S
C307 H302 0.949 . S
C307 C313 1.368 . S
C308 C292 1.349 . S
C308 H300 0.950 1_655 S
C308 C306 1.327 1_545 S
C309 C297 1.349 . S
C309 H303 0.950 . S
C309 C310 1.327 . S
C310 H304 0.950 . S
C310 C309 1.327 . S
C310 C314 1.429 . S
C311 C294 1.574 . S
C311 H305 0.949 . S
C311 C315 1.368 . S
C312 C293 1.429 . S
C312 C306 1.429 . S
C312 C313 1.523 . S
C313 C294 1.368 1_554 S
C313 C307 1.368 . S
C313 C312 1.523 . S
C314 C298 1.429 . S
C314 C310 1.429 . S
C314 C315 1.523 . S
C315 C299 1.368 1_556 S
C315 C311 1.368 . S
C315 C314 1.523 . S
H316 C291 0.950 . S
H317 C293 0.950 . S
H318 C294 0.949 . S
H319 C296 0.950 . S
H320 C298 0.950 . S
C321 C322 1.349 . S
C321 C323 1.327 . S
C321 H346 0.950 . S
C322 C321 1.349 . S
C322 C338 1.349 1_655 S
C323 C321 1.327 . S
C323 C342 1.429 . S
C323 H347 0.950 . S
C324 C341 1.574 . S
C324 C343 1.368 . S
C324 H348 0.949 . S
H325 C329 0.949 . S
C326 C327 1.349 . S
C326 C328 1.327 . S
C326 H349 0.950 . S
C327 C326 1.349 . S
C327 C339 1.349 . S
C328 C326 1.327 . S
C328 C344 1.429 . S
C328 H350 0.950 . S
C329 H325 0.949 . S
C329 C337 1.574 . S
C329 C345 1.368 1_655 S
H330 C338 0.950 . S
H331 C336 0.950 . S
H332 C337 0.949 . S
H333 C339 0.950 . S
H334 C340 0.950 1_655 S
H335 C341 0.949 . S
C336 H331 0.950 . S
C336 C338 1.327 . S
C336 C342 1.429 1_455 S
C337 C329 1.574 . S
C337 H332 0.949 . S
C337 C343 1.368 1_655 S
C338 C322 1.349 1_455 S
C338 H330 0.950 . S
C338 C336 1.327 . S
C339 C327 1.349 . S
C339 H333 0.950 . S
C339 C340 1.327 . S
C340 H334 0.950 1_455 S
C340 C339 1.327 . S
C340 C344 1.429 . S
C341 C324 1.574 . S
C341 H335 0.949 . S
C341 C345 1.368 . S
C342 C323 1.429 . S
C342 C336 1.429 1_655 S
C342 C343 1.523 1_655 S
C343 C324 1.368 . S
C343 C337 1.368 1_455 S
C343 C342 1.523 1_455 S
C344 C328 1.429 . S
C344 C340 1.429 . S
C344 C345 1.523 . S
C345 C329 1.368 1_455 S
C345 C341 1.368 . S
C345 C344 1.523 . S
H346 C321 0.950 . S
H347 C323 0.950 . S
H348 C324 0.949 . S
H349 C326 0.950 . S
H350 C328 0.950 . S
C351 C352 1.349 . S
C351 C353 1.327 . S
C351 H376 0.950 . S
C352 C351 1.349 . S
C352 C368 1.349 . S
C353 C351 1.327 . S
C353 C372 1.429 . S
C353 H377 0.950 . S
C354 C371 1.574 . S
C354 C373 1.368 . S
C354 H378 0.949 . S
H355 C359 0.949 . S
C356 C357 1.349 . S
C356 C358 1.327 . S
C356 H379 0.950 . S
C357 C356 1.349 . S
C357 C369 1.349 . S
C358 C356 1.327 . S
C358 C374 1.429 . S
C358 H380 0.950 . S
C359 H355 0.949 . S
C359 C367 1.574 . S
C359 C375 1.368 . S
H360 C368 0.950 . S
H361 C366 0.950 . S
H362 C367 0.949 . S
H363 C369 0.950 . S
H364 C370 0.950 . S
H365 C371 0.949 . S
C366 H361 0.950 . S
C366 C368 1.327 . S
C366 C372 1.429 . S
C367 C359 1.574 . S
C367 H362 0.949 . S
C367 C373 1.368 . S
C368 C352 1.349 . S
C368 H360 0.950 . S
C368 C366 1.327 . S
C369 C357 1.349 . S
C369 H363 0.950 . S
C369 C370 1.327 . S
C370 H364 0.950 . S
C370 C369 1.327 . S
C370 C374 1.429 . S
C371 C354 1.574 . S
C371 H365 0.949 . S
C371 C375 1.368 . S
C372 C353 1.429 . S
C372 C366 1.429 . S
C372 C373 1.523 . S
C373 C354 1.368 . S
C373 C367 1.368 . S
C373 C372 1.523 . S
C374 C358 1.429 . S
C374 C370 1.429 . S
C374 C375 1.523 . S
C375 C359 1.368 . S
C375 C371 1.368 . S
C375 C374 1.523 . S
H376 C351 0.950 . S
H377 C353 0.950 . S
H378 C354 0.949 . S
H379 C356 0.950 . S
H380 C358 0.950 . S
C381 C382 1.349 . S
C381 C383 1.327 . S
C381 H406 0.950 . S
C382 C381 1.349 . S
C382 C398 1.349 . S
C383 C381 1.327 . S
C383 C402 1.429 . S
C383 H407 0.950 . S
C384 C401 1.574 . S
C384 C403 1.368 . S
C384 H408 0.949 . S
H385 C389 0.949 . S
C386 C387 1.349 . S
C386 C388 1.327 . S
C386 H409 0.950 . S
C387 C386 1.349 . S
C387 C399 1.349 . S
C388 C386 1.327 . S
C388 C404 1.429 . S
C388 H410 0.950 . S
C389 H385 0.949 . S
C389 C397 1.574 . S
C389 C405 1.368 . S
H390 C398 0.950 . S
H391 C396 0.950 . S
H392 C397 0.949 . S
H393 C399 0.950 . S
H394 C400 0.950 . S
H395 C401 0.949 . S
C396 H391 0.950 . S
C396 C398 1.327 . S
C396 C402 1.429 . S
C397 C389 1.574 . S
C397 H392 0.949 . S
C397 C403 1.368 1_556 S
C398 C382 1.349 . S
C398 H390 0.950 . S
C398 C396 1.327 . S
C399 C387 1.349 . S
C399 H393 0.950 . S
C399 C400 1.327 . S
C400 H394 0.950 . S
C400 C399 1.327 . S
C400 C404 1.429 . S
C401 C384 1.574 . S
C401 H395 0.949 . S
C401 C405 1.368 1_554 S
C402 C383 1.429 . S
C402 C396 1.429 . S
C402 C403 1.523 . S
C403 C384 1.368 . S
C403 C397 1.368 1_554 S
C403 C402 1.523 . S
C404 C388 1.429 . S
C404 C400 1.429 . S
C404 C405 1.523 . S
C405 C389 1.368 . S
C405 C401 1.368 1_556 S
C405 C404 1.523 . S
H406 C381 0.950 . S
H407 C383 0.950 . S
H408 C384 0.949 . S
H409 C386 0.950 . S
H410 C388 0.950 . S
C411 C412 1.349 . S
C411 C413 1.327 . S
C411 H436 0.950 . S
C412 C411 1.349 . S
C412 C428 1.349 . S
C413 C411 1.327 . S
C413 C432 1.429 . S
C413 H437 0.950 . S
C414 C431 1.574 . S
C414 C433 1.368 . S
C414 H438 0.949 1_455 S
H415 C419 0.949 . S
C416 C417 1.349 . S
C416 C418 1.327 . S
C416 H439 0.950 1_455 S
C417 C416 1.349 . S
C417 C429 1.349 . S
C418 C416 1.327 . S
C418 C434 1.429 . S
C418 H440 0.950 1_455 S
C419 H415 0.949 . S
C419 C427 1.574 . S
C419 C435 1.368 . S
H420 C428 0.950 1_655 S
H421 C426 0.950 1_655 S
H422 C427 0.949 . S
H423 C429 0.950 . S
H424 C430 0.950 . S
H425 C431 0.949 1_655 S
C426 H421 0.950 1_455 S
C426 C428 1.327 . S
C426 C432 1.429 . S
C427 C419 1.574 . S
C427 H422 0.949 . S
C427 C433 1.368 . S
C428 C412 1.349 . S
C428 H420 0.950 1_455 S
C428 C426 1.327 . S
C429 C417 1.349 . S
C429 H423 0.950 . S
C429 C430 1.327 . S
C430 H424 0.950 . S
C430 C429 1.327 . S
C430 C434 1.429 . S
C431 C414 1.574 . S
C431 H425 0.949 1_455 S
C431 C435 1.368 . S
C432 C413 1.429 . S
C432 C426 1.429 . S
C432 C433 1.523 . S
C433 C414 1.368 . S
C433 C427 1.368 . S
C433 C432 1.523 . S
C434 C418 1.429 . S
C434 C430 1.429 . S
C434 C435 1.523 . S
C435 C419 1.368 . S
C435 C431 1.368 . S
C435 C434 1.523 . S
H436 C411 0.950 . S
H437 C413 0.950 . S
H438 C414 0.949 1_655 S
H439 C416 0.950 1_655 S
H440 C418 0.950 1_655 S
C87 C47 1.298 . S
C82 C11 1.300 . S
C112 C26 1.485 . S
C117 C65 1.484 . S
C142 C40 1.376 . S
C147 C78 1.373 . S
C172 C5 1.125 1_565 S
C177 C45 1.282 . S
C207 C56 1.514 . S
C202 C18 1.497 . S
C232 C32 1.369 . S
C237 C69 1.390 . S
C267 C58 1.169 . S
C262 C39 1.169 . S
C292 C4 1.306 1_655 S
C297 C71 1.322 . S
C327 C52 1.360 . S
C322 C19 1.200 . S
C357 C60 1.194 . S
C352 C33 1.055 . S
C387 C73 1.303 . S
C382 C12 1.308 . S
C412 C25 1.383 . S
C417 C43 1.394 . S
