# Generated by pormake.
# Topology myd, (4,6)-cn, num edge types: 1
# Building blocks:
#     Node 0, Type 0, BuildingBlock: KOZSID_clean_sbu_0, # of connection points: 4
#     Node 1, Type 0, BuildingBlock: KOZSID_clean_sbu_0, # of connection points: 4
#     Node 2, Type 0, BuildingBlock: KOZSID_clean_sbu_0, # of connection points: 4
#     Node 3, Type 0, BuildingBlock: KOZSID_clean_sbu_0, # of connection points: 4
#     Node 4, Type 0, BuildingBlock: KOZSID_clean_sbu_0, # of connection points: 4
#     Node 5, Type 0, BuildingBlock: KOZSID_clean_sbu_0, # of connection points: 4
#     Node 6, Type 0, BuildingBlock: KOZSID_clean_sbu_0, # of connection points: 4
#     Node 7, Type 0, BuildingBlock: KOZSID_clean_sbu_0, # of connection points: 4
#     Node 8, Type 0, BuildingBlock: KOZSID_clean_sbu_0, # of connection points: 4
#     Node 9, Type 0, BuildingBlock: KOZSID_clean_sbu_0, # of connection points: 4
#     Node 10, Type 0, BuildingBlock: KOZSID_clean_sbu_0, # of connection points: 4
#     Node 11, Type 0, BuildingBlock: KOZSID_clean_sbu_0, # of connection points: 4
#     Node 12, Type 1, BuildingBlock: MIDCAF_clean_sbu_0, # of connection points: 6
#     Node 13, Type 1, BuildingBlock: MIDCAF_clean_sbu_0, # of connection points: 6
#     Node 14, Type 1, BuildingBlock: MIDCAF_clean_sbu_0, # of connection points: 6
#     Node 15, Type 1, BuildingBlock: MIDCAF_clean_sbu_0, # of connection points: 6
#     Node 16, Type 1, BuildingBlock: MIDCAF_clean_sbu_0, # of connection points: 6
#     Node 17, Type 1, BuildingBlock: MIDCAF_clean_sbu_0, # of connection points: 6
#     Node 18, Type 1, BuildingBlock: MIDCAF_clean_sbu_0, # of connection points: 6
#     Node 19, Type 1, BuildingBlock: MIDCAF_clean_sbu_0, # of connection points: 6
#     Edge 20, Type (0, 1), BuildingBlock: EZIPEK_clean_linker_0, # of connection points: 2
#     Edge 21, Type (0, 1), BuildingBlock: EZIPEK_clean_linker_0, # of connection points: 2
#     Edge 22, Type (0, 1), BuildingBlock: EZIPEK_clean_linker_0, # of connection points: 2
#     Edge 23, Type (0, 1), BuildingBlock: EZIPEK_clean_linker_0, # of connection points: 2
#     Edge 24, Type (0, 1), BuildingBlock: EZIPEK_clean_linker_0, # of connection points: 2
#     Edge 25, Type (0, 1), BuildingBlock: EZIPEK_clean_linker_0, # of connection points: 2
#     Edge 26, Type (0, 1), BuildingBlock: EZIPEK_clean_linker_0, # of connection points: 2
#     Edge 27, Type (0, 1), BuildingBlock: EZIPEK_clean_linker_0, # of connection points: 2
#     Edge 28, Type (0, 1), BuildingBlock: EZIPEK_clean_linker_0, # of connection points: 2
#     Edge 29, Type (0, 1), BuildingBlock: EZIPEK_clean_linker_0, # of connection points: 2
#     Edge 30, Type (0, 1), BuildingBlock: EZIPEK_clean_linker_0, # of connection points: 2
#     Edge 31, Type (0, 1), BuildingBlock: EZIPEK_clean_linker_0, # of connection points: 2
#     Edge 32, Type (0, 1), BuildingBlock: EZIPEK_clean_linker_0, # of connection points: 2
#     Edge 33, Type (0, 1), BuildingBlock: EZIPEK_clean_linker_0, # of connection points: 2
#     Edge 34, Type (0, 1), BuildingBlock: EZIPEK_clean_linker_0, # of connection points: 2
#     Edge 35, Type (0, 1), BuildingBlock: EZIPEK_clean_linker_0, # of connection points: 2
#     Edge 36, Type (0, 1), BuildingBlock: EZIPEK_clean_linker_0, # of connection points: 2
#     Edge 37, Type (0, 1), BuildingBlock: EZIPEK_clean_linker_0, # of connection points: 2
#     Edge 38, Type (0, 1), BuildingBlock: EZIPEK_clean_linker_0, # of connection points: 2
#     Edge 39, Type (0, 1), BuildingBlock: EZIPEK_clean_linker_0, # of connection points: 2
#     Edge 40, Type (0, 1), BuildingBlock: EZIPEK_clean_linker_0, # of connection points: 2
#     Edge 41, Type (0, 1), BuildingBlock: EZIPEK_clean_linker_0, # of connection points: 2
#     Edge 42, Type (0, 1), BuildingBlock: EZIPEK_clean_linker_0, # of connection points: 2
#     Edge 43, Type (0, 1), BuildingBlock: EZIPEK_clean_linker_0, # of connection points: 2
#     Edge 44, Type (0, 1), BuildingBlock: EZIPEK_clean_linker_0, # of connection points: 2
#     Edge 45, Type (0, 1), BuildingBlock: EZIPEK_clean_linker_0, # of connection points: 2
#     Edge 46, Type (0, 1), BuildingBlock: EZIPEK_clean_linker_0, # of connection points: 2
#     Edge 47, Type (0, 1), BuildingBlock: EZIPEK_clean_linker_0, # of connection points: 2
#     Edge 48, Type (0, 1), BuildingBlock: EZIPEK_clean_linker_0, # of connection points: 2
#     Edge 49, Type (0, 1), BuildingBlock: EZIPEK_clean_linker_0, # of connection points: 2
#     Edge 50, Type (0, 1), BuildingBlock: EZIPEK_clean_linker_0, # of connection points: 2
#     Edge 51, Type (0, 1), BuildingBlock: EZIPEK_clean_linker_0, # of connection points: 2
#     Edge 52, Type (0, 1), BuildingBlock: EZIPEK_clean_linker_0, # of connection points: 2
#     Edge 53, Type (0, 1), BuildingBlock: EZIPEK_clean_linker_0, # of connection points: 2
#     Edge 54, Type (0, 1), BuildingBlock: EZIPEK_clean_linker_0, # of connection points: 2
#     Edge 55, Type (0, 1), BuildingBlock: EZIPEK_clean_linker_0, # of connection points: 2
#     Edge 56, Type (0, 1), BuildingBlock: EZIPEK_clean_linker_0, # of connection points: 2
#     Edge 57, Type (0, 1), BuildingBlock: EZIPEK_clean_linker_0, # of connection points: 2
#     Edge 58, Type (0, 1), BuildingBlock: EZIPEK_clean_linker_0, # of connection points: 2
#     Edge 59, Type (0, 1), BuildingBlock: EZIPEK_clean_linker_0, # of connection points: 2
#     Edge 60, Type (0, 1), BuildingBlock: EZIPEK_clean_linker_0, # of connection points: 2
#     Edge 61, Type (0, 1), BuildingBlock: EZIPEK_clean_linker_0, # of connection points: 2
#     Edge 62, Type (0, 1), BuildingBlock: EZIPEK_clean_linker_0, # of connection points: 2
#     Edge 63, Type (0, 1), BuildingBlock: EZIPEK_clean_linker_0, # of connection points: 2
#     Edge 64, Type (0, 1), BuildingBlock: EZIPEK_clean_linker_0, # of connection points: 2
#     Edge 65, Type (0, 1), BuildingBlock: EZIPEK_clean_linker_0, # of connection points: 2
#     Edge 66, Type (0, 1), BuildingBlock: EZIPEK_clean_linker_0, # of connection points: 2
#     Edge 67, Type (0, 1), BuildingBlock: EZIPEK_clean_linker_0, # of connection points: 2
# Relax obj value: 0.151
# Max RMSD: 0.129
# Mean RMSD: 0.103
data_MOF--net-myd--node1-KOZSID_clean_sbu_0--node2-MIDCAF_clean_sbu_0--edge1-EZIPEK_clean_linker_0
_symmetry_space_group_name_H-M    P1
_symmetry_Int_Tables_number       1
_symmetry_cell_setting            triclinic
loop_
_symmetry_equiv_pos_as_xyz
'x, y, z'
_cell_length_a     38.420442
_cell_length_b     38.366153
_cell_length_c     38.186977
_cell_angle_alpha  92.140331
_cell_angle_beta   90.681338
_cell_angle_gamma 92.69932
loop_
_atom_site_label
_atom_site_type_symbol
_atom_site_fract_x
_atom_site_fract_y
_atom_site_fract_z
_atom_type_partial_charge
C0 C 0.96467 0.30651 0.33132 0.0
C1 C 0.93142 0.31484 0.34143 0.0
C2 C 0.90887 0.29087 0.32495 0.0
C3 C 0.92949 0.26936 0.3057 0.0
N4 N 0.96395 0.27773 0.30929 0.0
Co5 Co 0.00272 0.25477 0.28375 0.0
N6 N 0.96898 0.22459 0.25396 0.0
C7 C 0.93387 0.2228 0.25655 0.0
C8 C 0.91745 0.20043 0.23215 0.0
C9 C 0.9436 0.18733 0.21252 0.0
C10 C 0.97456 0.20256 0.22618 0.0
N11 N 0.04142 0.23229 0.25794 0.0
C12 C 0.04027 0.2097 0.2296 0.0
C13 C 0.07347 0.20137 0.2193 0.0
C14 C 0.09635 0.21951 0.24171 0.0
C15 C 0.07597 0.23786 0.26438 0.0
N16 N 0.03617 0.28562 0.31333 0.0
C17 C 0.07135 0.28496 0.31341 0.0
C18 C 0.08746 0.31051 0.3348 0.0
C19 C 0.06105 0.32901 0.34874 0.0
C20 C 0.0302 0.3137 0.33498 0.0
N21 N 0.00382 0.21707 0.31901 0.0
C22 C 0.00826 0.15566 0.35776 0.0
C23 C 0.03775 0.17695 0.35167 0.0
C24 C 0.03491 0.20736 0.33288 0.0
C25 C 0.97611 0.1666 0.34598 0.0
C26 C 0.97445 0.1973 0.3271 0.0
N27 N 0.00242 0.29099 0.24812 0.0
C28 C 0.03472 0.32855 0.20932 0.0
C29 C 0.00437 0.33488 0.19092 0.0
C30 C 0.97269 0.32034 0.2024 0.0
C31 C 0.97225 0.29879 0.23124 0.0
C32 C 0.03317 0.30673 0.23768 0.0
H33 H 0.94747 0.28802 0.23907 0.0
H34 H 0.05736 0.30226 0.25018 0.0
H35 H 0.05855 0.22205 0.32951 0.0
H36 H 0.94918 0.20411 0.31892 0.0
C37 C 0.91708 0.24399 0.28089 0.0
C38 C 0.99597 0.32744 0.34252 0.0
C39 C 0.00851 0.1957 0.2114 0.0
C40 C 0.08842 0.26248 0.29019 0.0
H41 H 0.92414 0.33658 0.35823 0.0
H42 H 0.88069 0.29021 0.32563 0.0
H43 H 0.88972 0.19492 0.22855 0.0
H44 H 0.94027 0.16904 0.19032 0.0
H45 H 0.08041 0.1843 0.19754 0.0
H46 H 0.12452 0.21996 0.24096 0.0
H47 H 0.11516 0.31598 0.33864 0.0
H48 H 0.06414 0.35177 0.36631 0.0
H49 H 0.0631 0.16992 0.3611 0.0
H50 H 0.95239 0.15129 0.35096 0.0
H51 H 0.05965 0.33979 0.20131 0.0
H52 H 0.94855 0.32523 0.18891 0.0
C53 C 0.96906 0.70387 0.14422 0.0
C54 C 0.93858 0.69108 0.12734 0.0
C55 C 0.91301 0.71298 0.13709 0.0
C56 C 0.92914 0.73767 0.15942 0.0
N57 N 0.96327 0.7326 0.16447 0.0
Co58 Co 0.99606 0.76207 0.19462 0.0
N59 N 0.95704 0.78234 0.2208 0.0
C60 C 0.92337 0.78147 0.21048 0.0
C61 C 0.90224 0.79699 0.23456 0.0
C62 C 0.92402 0.80862 0.2616 0.0
C63 C 0.9574 0.79969 0.2523 0.0
N64 N 0.02861 0.79252 0.22406 0.0
C65 C 0.0229 0.81037 0.25454 0.0
C66 C 0.05271 0.82958 0.26583 0.0
C67 C 0.07782 0.82351 0.2413 0.0
C68 C 0.062 0.80105 0.21646 0.0
N69 N 0.03488 0.74067 0.16906 0.0
C70 C 0.06792 0.75382 0.16785 0.0
C71 C 0.08889 0.73305 0.14797 0.0
C72 C 0.06756 0.70531 0.13582 0.0
C73 C 0.03469 0.71073 0.14899 0.0
N74 N 0.99523 0.79946 0.16071 0.0
C75 C 0.01288 0.85669 0.11968 0.0
C76 C 0.01832 0.82247 0.10747 0.0
C77 C 0.00768 0.79423 0.12759 0.0
C78 C 0.99555 0.86126 0.15144 0.0
C79 C 0.98791 0.83259 0.1719 0.0
N80 N 0.99834 0.72555 0.22879 0.0
C81 C 0.03333 0.69587 0.26977 0.0
C82 C 0.00385 0.67758 0.28155 0.0
C83 C 0.97144 0.68283 0.26581 0.0
C84 C 0.9692 0.70728 0.23951 0.0
C85 C 0.03009 0.71935 0.24325 0.0
H86 H 0.944 0.7118 0.22823 0.0
H87 H 0.05347 0.73294 0.23492 0.0
H88 H 0.01165 0.7683 0.11711 0.0
H89 H 0.9779 0.83778 0.19756 0.0
C90 C 0.912 0.76137 0.18096 0.0
C91 C 0.00319 0.68917 0.13907 0.0
C92 C 0.98907 0.81151 0.27196 0.0
C93 C 0.07888 0.7828 0.18948 0.0
H94 H 0.93506 0.66826 0.10992 0.0
H95 H 0.88562 0.71018 0.13007 0.0
H96 H 0.87422 0.79867 0.23318 0.0
H97 H 0.91624 0.82258 0.28515 0.0
H98 H 0.05587 0.84633 0.2892 0.0
H99 H 0.10471 0.83329 0.24223 0.0
H100 H 0.11653 0.73707 0.14356 0.0
H101 H 0.07511 0.68391 0.11872 0.0
H102 H 0.03112 0.81756 0.08278 0.0
H103 H 0.99 0.88715 0.16153 0.0
H104 H 0.05879 0.69209 0.28114 0.0
H105 H 0.94813 0.66874 0.27428 0.0
C106 C 0.34039 0.95565 0.30336 0.0
C107 C 0.35218 0.92303 0.31072 0.0
C108 C 0.34227 0.90107 0.28292 0.0
C109 C 0.3249 0.92134 0.26027 0.0
N110 N 0.32326 0.95473 0.27204 0.0
Co111 Co 0.29963 0.99229 0.24789 0.0
N112 N 0.27159 0.95777 0.21772 0.0
C113 C 0.27772 0.92366 0.2129 0.0
C114 C 0.25291 0.90577 0.19224 0.0
C115 C 0.22997 0.9302 0.18303 0.0
C116 C 0.2424 0.96187 0.19829 0.0
N117 N 0.27656 0.02987 0.2234 0.0
C118 C 0.24858 0.02811 0.20126 0.0
C119 C 0.24291 0.06066 0.18813 0.0
C120 C 0.26839 0.08335 0.20238 0.0
C121 C 0.28825 0.06352 0.22329 0.0
N122 N 0.32739 0.02616 0.27883 0.0
C123 C 0.33338 0.06026 0.27306 0.0
C124 C 0.35322 0.07726 0.29921 0.0
C125 C 0.36015 0.05221 0.32281 0.0
C126 C 0.34408 0.02123 0.30974 0.0
N127 N 0.33652 0.99436 0.21205 0.0
C128 C 0.3856 0.00892 0.15948 0.0
C129 C 0.39622 0.0064 0.19463 0.0
C130 C 0.37125 0.99891 0.22054 0.0
C131 C 0.35037 0.0027 0.1512 0.0
C132 C 0.32657 0.99551 0.17757 0.0
N133 N 0.2622 0.99164 0.2826 0.0
C134 C 0.21928 0.02364 0.31445 0.0
C135 C 0.20165 0.99252 0.32306 0.0
C136 C 0.21588 0.96084 0.31256 0.0
C137 C 0.24611 0.96095 0.29222 0.0
C138 C 0.24967 0.02262 0.29472 0.0
H139 H 0.25571 0.93627 0.28322 0.0
H140 H 0.26224 0.04712 0.28811 0.0
H141 H 0.37988 0.99772 0.24746 0.0
H142 H 0.29973 0.99229 0.16996 0.0
C143 C 0.30371 0.90852 0.23226 0.0
C144 C 0.34744 0.98717 0.32583 0.0
C145 C 0.22888 0.99573 0.18965 0.0
C146 C 0.31527 0.07603 0.24621 0.0
H147 H 0.36622 0.91574 0.33385 0.0
H148 H 0.34558 0.87323 0.28052 0.0
H149 H 0.25116 0.87809 0.18544 0.0
H150 H 0.20732 0.92544 0.16612 0.0
H151 H 0.22287 0.0672 0.16966 0.0
H152 H 0.27165 0.11109 0.19838 0.0
H153 H 0.36068 0.10482 0.30156 0.0
H154 H 0.37542 0.05618 0.34675 0.0
H155 H 0.42345 0.01045 0.20201 0.0
H156 H 0.34113 0.00395 0.12437 0.0
H157 H 0.20918 0.0486 0.32228 0.0
H158 H 0.20294 0.93622 0.31886 0.0
C159 C 0.6727 0.46067 0.21579 0.0
C160 C 0.65653 0.42957 0.203 0.0
C161 C 0.66758 0.40385 0.22388 0.0
C162 C 0.68991 0.42056 0.24805 0.0
N163 N 0.6937 0.45517 0.2436 0.0
Co164 Co 0.72377 0.48881 0.27241 0.0
N165 N 0.75156 0.45077 0.29047 0.0
C166 C 0.7416 0.41665 0.29012 0.0
C167 C 0.766 0.39648 0.30492 0.0
C168 C 0.79286 0.4194 0.31549 0.0
C169 C 0.78325 0.45235 0.30648 0.0
N170 N 0.75382 0.52226 0.30127 0.0
C171 C 0.78542 0.51795 0.31632 0.0
C172 C 0.79724 0.54829 0.33453 0.0
C173 C 0.77187 0.57207 0.33096 0.0
C174 C 0.74603 0.55509 0.31076 0.0
N175 N 0.69563 0.52638 0.25415 0.0
C176 C 0.69364 0.55865 0.26879 0.0
C177 C 0.67203 0.579 0.2502 0.0
C178 C 0.65962 0.55807 0.22232 0.0
C179 C 0.67442 0.52605 0.22542 0.0
N180 N 0.69195 0.48439 0.31242 0.0
C181 C 0.6507 0.49067 0.37254 0.0
C182 C 0.63589 0.49269 0.33892 0.0
C183 C 0.65692 0.48905 0.30914 0.0
C184 C 0.68597 0.48387 0.37526 0.0
C185 C 0.70597 0.48087 0.34515 0.0
N186 N 0.75627 0.49467 0.23353 0.0
C187 C 0.79435 0.53374 0.20185 0.0
C188 C 0.81154 0.50553 0.18735 0.0
C189 C 0.7991 0.47161 0.19449 0.0
C190 C 0.77116 0.46671 0.21747 0.0
C191 C 0.76711 0.52779 0.22503 0.0
H192 H 0.76249 0.44043 0.2233 0.0
H193 H 0.75593 0.55027 0.23724 0.0
H194 H 0.64514 0.49127 0.28358 0.0
H195 H 0.73327 0.47721 0.34863 0.0
C196 C 0.71215 0.40414 0.27083 0.0
C197 C 0.66583 0.49509 0.2024 0.0
C198 C 0.80329 0.48474 0.3163 0.0
C199 C 0.7171 0.57036 0.29572 0.0
H200 H 0.63859 0.42581 0.18098 0.0
H201 H 0.66123 0.37611 0.2208 0.0
H202 H 0.76493 0.36837 0.30679 0.0
H203 H 0.81659 0.41271 0.32869 0.0
H204 H 0.82144 0.55265 0.34917 0.0
H205 H 0.77274 0.59887 0.34097 0.0
H206 H 0.66696 0.6062 0.25543 0.0
H207 H 0.64162 0.56541 0.20217 0.0
H208 H 0.60852 0.49758 0.33577 0.0
H209 H 0.69832 0.48188 0.40072 0.0
H210 H 0.80297 0.56028 0.19649 0.0
H211 H 0.81146 0.44913 0.18311 0.0
C212 C 0.32499 0.36685 0.98586 0.0
C213 C 0.33174 0.38733 0.95722 0.0
C214 C 0.3091 0.37539 0.93105 0.0
C215 C 0.28952 0.34878 0.94523 0.0
N216 N 0.2984 0.34314 0.97868 0.0
Co217 Co 0.27281 0.31114 0.01007 0.0
N218 N 0.25111 0.28384 0.9695 0.0
C219 C 0.24996 0.29396 0.93613 0.0
C220 C 0.23512 0.26888 0.91335 0.0
C221 C 0.22587 0.24141 0.9337 0.0
C222 C 0.23517 0.25156 0.96797 0.0
N223 N 0.2463 0.27972 0.0414 0.0
C224 C 0.22785 0.24928 0.03386 0.0
C225 C 0.21114 0.2373 0.06345 0.0
C226 C 0.21936 0.26121 0.09025 0.0
C227 C 0.24041 0.28648 0.0756 0.0
N228 N 0.29557 0.33842 0.05005 0.0
C229 C 0.28596 0.33732 0.08379 0.0
C230 C 0.31014 0.35391 0.10621 0.0
C231 C 0.33632 0.36641 0.08525 0.0
C232 C 0.32626 0.35773 0.05086 0.0
N233 N 0.23317 0.34225 0.01091 0.0
C234 C 0.17433 0.38323 0.01657 0.0
C235 C 0.20822 0.39865 0.01975 0.0
C236 C 0.23735 0.37764 0.01697 0.0
C237 C 0.17071 0.34719 0.01036 0.0
C238 C 0.20015 0.32747 0.00743 0.0
N239 N 0.31148 0.27912 0.01038 0.0
C240 C 0.34327 0.23764 0.04268 0.0
C241 C 0.35733 0.22416 0.01184 0.0
C242 C 0.34963 0.24005 0.98027 0.0
C243 C 0.3266 0.26756 0.9801 0.0
C244 C 0.32081 0.26515 0.04145 0.0
H245 H 0.3199 0.2785 0.95541 0.0
H246 H 0.30975 0.2739 0.06574 0.0
H247 H 0.26314 0.38992 0.01997 0.0
H248 H 0.19598 0.29996 0.00294 0.0
C249 C 0.26672 0.32524 0.92666 0.0
C250 C 0.34431 0.37064 0.01936 0.0
C251 C 0.22329 0.23258 0.99862 0.0
C252 C 0.2591 0.31388 0.09381 0.0
H253 H 0.35116 0.4085 0.95529 0.0
H254 H 0.30789 0.38429 0.90451 0.0
H255 H 0.23193 0.27016 0.88523 0.0
H256 H 0.21243 0.21729 0.92457 0.0
H257 H 0.19443 0.21396 0.06537 0.0
H258 H 0.21158 0.25983 0.11733 0.0
H259 H 0.30997 0.35479 0.13457 0.0
H260 H 0.36002 0.38024 0.09448 0.0
H261 H 0.2121 0.42659 0.02432 0.0
H262 H 0.14508 0.33426 0.00756 0.0
H263 H 0.34866 0.22614 0.06754 0.0
H264 H 0.36011 0.23026 0.95581 0.0
C265 C 0.20638 0.64919 0.46175 0.0
C266 C 0.19797 0.63084 0.43053 0.0
C267 C 0.22191 0.64168 0.4065 0.0
C268 C 0.24344 0.66604 0.42424 0.0
N269 N 0.23455 0.67125 0.45796 0.0
Co270 Co 0.25852 0.70437 0.49259 0.0
N271 N 0.28128 0.73118 0.45479 0.0
C272 C 0.28405 0.72028 0.42105 0.0
C273 C 0.29972 0.74495 0.40057 0.0
C274 C 0.30774 0.773 0.42287 0.0
C275 C 0.29683 0.76366 0.45592 0.0
N276 N 0.28302 0.73714 0.52712 0.0
C277 C 0.30041 0.7682 0.52234 0.0
C278 C 0.31548 0.78137 0.55361 0.0
C279 C 0.30744 0.75752 0.57858 0.0
C280 C 0.28802 0.7311 0.56129 0.0
N281 N 0.23509 0.67752 0.52979 0.0
C282 C 0.24489 0.67799 0.56373 0.0
C283 C 0.22338 0.65695 0.58333 0.0
C284 C 0.19867 0.64231 0.56015 0.0
C285 C 0.20647 0.65527 0.52762 0.0
N286 N 0.2986 0.67427 0.49493 0.0
C287 C 0.35663 0.63704 0.51411 0.0
C288 C 0.32326 0.62047 0.51172 0.0
C289 C 0.29454 0.63956 0.50189 0.0
C290 C 0.36054 0.67179 0.5048 0.0
C291 C 0.33144 0.68967 0.49501 0.0
N292 N 0.21925 0.73512 0.49194 0.0
C293 C 0.1838 0.77496 0.52423 0.0
C294 C 0.16896 0.78559 0.49316 0.0
C295 C 0.17879 0.76964 0.46135 0.0
C296 C 0.2042 0.7445 0.46129 0.0
C297 C 0.2084 0.74944 0.52309 0.0
H298 H 0.2123 0.73331 0.43653 0.0
H299 H 0.21937 0.74209 0.54761 0.0
H300 H 0.26894 0.62668 0.50131 0.0
H301 H 0.33546 0.71666 0.48941 0.0
C302 C 0.26714 0.68917 0.40863 0.0
C303 C 0.18813 0.64387 0.49475 0.0
C304 C 0.3059 0.78421 0.48821 0.0
C305 C 0.27041 0.70274 0.57676 0.0
H306 H 0.17665 0.61179 0.42552 0.0
H307 H 0.22239 0.63406 0.37893 0.0
H308 H 0.30394 0.74314 0.3726 0.0
H309 H 0.32101 0.79717 0.41577 0.0
H310 H 0.33116 0.80538 0.55777 0.0
H311 H 0.31438 0.75958 0.60615 0.0
H312 H 0.22468 0.65362 0.61132 0.0
H313 H 0.17754 0.624 0.56634 0.0
H314 H 0.31937 0.59332 0.51811 0.0
H315 H 0.38595 0.68532 0.50578 0.0
H316 H 0.17666 0.78662 0.54925 0.0
H317 H 0.16767 0.77732 0.43677 0.0
C318 C 0.79434 0.83262 0.46067 0.0
C319 C 0.80048 0.84468 0.4274 0.0
C320 C 0.77477 0.82954 0.40591 0.0
C321 C 0.7545 0.80909 0.42716 0.0
N322 N 0.76587 0.81035 0.46068 0.0
Co323 Co 0.74431 0.78468 0.49985 0.0
N324 N 0.71798 0.75153 0.4668 0.0
C325 C 0.71285 0.75575 0.43229 0.0
C326 C 0.69508 0.72778 0.41582 0.0
C327 C 0.68816 0.70471 0.44164 0.0
C328 C 0.70177 0.72019 0.47261 0.0
N329 N 0.72248 0.75955 0.5391 0.0
C330 C 0.70386 0.72864 0.53891 0.0
C331 C 0.69127 0.72203 0.5721 0.0
C332 C 0.70221 0.74992 0.59358 0.0
C333 C 0.72071 0.772 0.57245 0.0
N334 N 0.77104 0.81783 0.53244 0.0
C335 C 0.76426 0.82393 0.56654 0.0
C336 C 0.78729 0.84822 0.58244 0.0
C337 C 0.80989 0.8581 0.55665 0.0
C338 C 0.79931 0.83922 0.5264 0.0
N339 N 0.7048 0.8158 0.50022 0.0
C340 C 0.64723 0.85813 0.50691 0.0
C341 C 0.68104 0.87309 0.50347 0.0
C342 C 0.70952 0.85141 0.50007 0.0
C343 C 0.64286 0.82185 0.50635 0.0
C344 C 0.67172 0.80136 0.50294 0.0
N345 N 0.78304 0.75289 0.50024 0.0
C346 C 0.82141 0.71752 0.53289 0.0
C347 C 0.83228 0.70103 0.50188 0.0
C348 C 0.8188 0.71172 0.46998 0.0
C349 C 0.79431 0.73769 0.4697 0.0
C350 C 0.79703 0.74351 0.53148 0.0
H351 H 0.78386 0.74482 0.4448 0.0
H352 H 0.78885 0.75538 0.55584 0.0
H353 H 0.73532 0.8634 0.49775 0.0
H354 H 0.66712 0.77365 0.5032 0.0
C355 C 0.72932 0.78367 0.41555 0.0
C356 C 0.81491 0.84422 0.4919 0.0
C357 C 0.69467 0.70673 0.50741 0.0
C358 C 0.73987 0.80248 0.58358 0.0
H359 H 0.82137 0.86246 0.41947 0.0
H360 H 0.77221 0.83186 0.37785 0.0
H361 H 0.6887 0.72416 0.38821 0.0
H362 H 0.67377 0.67985 0.43826 0.0
H363 H 0.67519 0.69979 0.57983 0.0
H364 H 0.69759 0.75341 0.62137 0.0
H365 H 0.78833 0.85683 0.60976 0.0
H366 H 0.83147 0.87721 0.55965 0.0
H367 H 0.68535 0.90118 0.50342 0.0
H368 H 0.61715 0.80934 0.50865 0.0
H369 H 0.83139 0.71005 0.55803 0.0
H370 H 0.82673 0.69964 0.44545 0.0
C371 C 0.48218 0.82491 0.85175 0.0
C372 C 0.45165 0.83602 0.86673 0.0
C373 C 0.42606 0.81121 0.85774 0.0
C374 C 0.44221 0.78647 0.83775 0.0
N375 N 0.47646 0.7941 0.83346 0.0
Co376 Co 0.5091 0.76496 0.80643 0.0
N377 N 0.46988 0.73826 0.78126 0.0
C378 C 0.4361 0.73781 0.79033 0.0
C379 C 0.41481 0.71743 0.76797 0.0
C380 C 0.43655 0.70383 0.74338 0.0
C381 C 0.47 0.71662 0.75229 0.0
N382 N 0.54151 0.73505 0.78025 0.0
C383 C 0.53547 0.71213 0.75263 0.0
C384 C 0.56559 0.69545 0.74375 0.0
C385 C 0.59119 0.70822 0.76678 0.0
C386 C 0.5754 0.73191 0.78843 0.0
N387 N 0.54793 0.79329 0.83033 0.0
C388 C 0.5814 0.78453 0.83205 0.0
C389 C 0.60245 0.80923 0.85001 0.0
C390 C 0.58082 0.83509 0.86038 0.0
C391 C 0.54766 0.82472 0.84816 0.0
N392 N 0.50899 0.73046 0.84434 0.0
C393 C 0.52333 0.67649 0.89048 0.0
C394 C 0.53528 0.71118 0.89787 0.0
C395 C 0.52628 0.73783 0.87561 0.0
C396 C 0.50195 0.67013 0.86078 0.0
C397 C 0.49613 0.69684 0.83777 0.0
N398 N 0.51061 0.79809 0.76849 0.0
C399 C 0.54414 0.82807 0.72477 0.0
C400 C 0.51375 0.83995 0.71001 0.0
C401 C 0.48179 0.83154 0.72564 0.0
C402 C 0.48078 0.81069 0.75501 0.0
C403 C 0.542 0.80712 0.75385 0.0
H404 H 0.45586 0.80422 0.76636 0.0
H405 H 0.56588 0.79773 0.76398 0.0
H406 H 0.53467 0.76411 0.8835 0.0
H407 H 0.48211 0.68926 0.81419 0.0
C408 C 0.42504 0.7597 0.81757 0.0
C409 C 0.51617 0.84365 0.85686 0.0
C410 C 0.50138 0.70402 0.73545 0.0
C411 C 0.59238 0.7551 0.81308 0.0
H412 H 0.44816 0.85967 0.88236 0.0
H413 H 0.39862 0.81199 0.86368 0.0
H414 H 0.38679 0.71335 0.76908 0.0
H415 H 0.4288 0.68575 0.72196 0.0
H416 H 0.56868 0.67596 0.72292 0.0
H417 H 0.6183 0.70174 0.767 0.0
H418 H 0.63031 0.8089 0.8544 0.0
H419 H 0.58841 0.8586 0.87567 0.0
H420 H 0.55146 0.71779 0.9208 0.0
H421 H 0.49117 0.64405 0.85428 0.0
H422 H 0.56929 0.83442 0.7135 0.0
H423 H 0.45778 0.84076 0.71501 0.0
C424 C 0.55585 0.32061 0.68465 0.0
C425 C 0.58685 0.33486 0.6718 0.0
C426 C 0.61245 0.31309 0.68076 0.0
C427 C 0.59581 0.28694 0.69863 0.0
N428 N 0.56131 0.29095 0.70158 0.0
Co429 Co 0.52782 0.25918 0.7254 0.0
N430 N 0.56603 0.23869 0.75222 0.0
C431 C 0.60013 0.2407 0.74446 0.0
C432 C 0.62044 0.22414 0.76787 0.0
C433 C 0.59766 0.2106 0.79171 0.0
C434 C 0.56462 0.21965 0.78136 0.0
N435 N 0.49474 0.22672 0.74866 0.0
C436 C 0.49943 0.20754 0.7773 0.0
C437 C 0.46955 0.18722 0.78391 0.0
C438 C 0.44558 0.1939 0.75828 0.0
C439 C 0.46204 0.21786 0.73746 0.0
N440 N 0.48996 0.28083 0.69922 0.0
C441 C 0.45746 0.26691 0.69379 0.0
C442 C 0.43695 0.28815 0.67498 0.0
C443 C 0.45802 0.31703 0.66808 0.0
C444 C 0.49032 0.31183 0.68309 0.0
N445 N 0.53152 0.22335 0.68728 0.0
C446 C 0.51392 0.16705 0.64006 0.0
C447 C 0.50898 0.20162 0.63101 0.0
C448 C 0.51969 0.22937 0.65418 0.0
C449 C 0.53133 0.16179 0.67173 0.0
C450 C 0.53895 0.18997 0.69523 0.0
N451 N 0.52215 0.29385 0.76347 0.0
C452 C 0.48308 0.32262 0.80268 0.0
C453 C 0.51122 0.3396 0.82036 0.0
C454 C 0.54508 0.33406 0.80873 0.0
C455 C 0.55001 0.31108 0.77998 0.0
C456 C 0.48909 0.29977 0.77456 0.0
H457 H 0.57619 0.30683 0.77138 0.0
H458 H 0.46673 0.2865 0.76217 0.0
H459 H 0.51586 0.25554 0.64615 0.0
H460 H 0.54868 0.18408 0.72064 0.0
C461 C 0.61242 0.26254 0.71842 0.0
C462 C 0.52166 0.3349 0.67864 0.0
C463 C 0.5324 0.20634 0.79727 0.0
C464 C 0.4462 0.23684 0.71126 0.0
H465 H 0.59066 0.35855 0.65752 0.0
H466 H 0.64012 0.31683 0.67624 0.0
H467 H 0.64853 0.2229 0.76817 0.0
H468 H 0.60449 0.19523 0.81375 0.0
H469 H 0.46557 0.16934 0.80491 0.0
H470 H 0.41896 0.18346 0.75592 0.0
H471 H 0.40967 0.28373 0.66802 0.0
H472 H 0.45068 0.33911 0.65328 0.0
H473 H 0.49628 0.2072 0.60651 0.0
H474 H 0.5367 0.13567 0.67946 0.0
H475 H 0.45663 0.32654 0.81099 0.0
H476 H 0.56741 0.3472 0.82189 0.0
C477 C 0.85882 0.4721 0.80448 0.0
C478 C 0.87781 0.44285 0.8101 0.0
C479 C 0.86595 0.41757 0.78595 0.0
C480 C 0.84073 0.43283 0.7668 0.0
N481 N 0.83609 0.46611 0.77736 0.0
Co482 Co 0.80456 0.49826 0.75496 0.0
N483 N 0.77567 0.45868 0.73341 0.0
C484 C 0.78517 0.42544 0.72949 0.0
C485 C 0.75931 0.40347 0.71481 0.0
C486 C 0.73201 0.42428 0.70871 0.0
C487 C 0.74296 0.45797 0.71971 0.0
N488 N 0.77352 0.53037 0.7317 0.0
C489 C 0.74188 0.52379 0.7161 0.0
C490 C 0.73016 0.55371 0.70137 0.0
C491 C 0.75552 0.57967 0.70794 0.0
C492 C 0.78135 0.56425 0.72613 0.0
N493 N 0.83339 0.53717 0.77766 0.0
C494 C 0.83367 0.57081 0.76885 0.0
C495 C 0.85148 0.59251 0.79304 0.0
C496 C 0.86313 0.57112 0.81835 0.0
C497 C 0.85258 0.53718 0.80786 0.0
N498 N 0.83425 0.49924 0.71309 0.0
C499 C 0.87318 0.50963 0.65197 0.0
C500 C 0.88951 0.51126 0.68517 0.0
C501 C 0.86955 0.50602 0.71545 0.0
C502 C 0.83732 0.5019 0.65009 0.0
C503 C 0.81858 0.49654 0.68065 0.0
N504 N 0.77429 0.49883 0.796 0.0
C505 C 0.73717 0.53208 0.83363 0.0
C506 C 0.72591 0.50198 0.85024 0.0
C507 C 0.74025 0.47015 0.84012 0.0
C508 C 0.76423 0.46908 0.81257 0.0
C509 C 0.76156 0.53004 0.80711 0.0
H510 H 0.77414 0.44428 0.80422 0.0
H511 H 0.76938 0.55394 0.79504 0.0
H512 H 0.88249 0.50813 0.74076 0.0
H513 H 0.79103 0.49126 0.67791 0.0
C514 C 0.8165 0.41516 0.74407 0.0
C515 C 0.86302 0.50512 0.82519 0.0
C516 C 0.72378 0.48911 0.71226 0.0
C517 C 0.81001 0.58159 0.74351 0.0
H518 H 0.89776 0.4399 0.82986 0.0
H519 H 0.87358 0.39078 0.78384 0.0
H520 H 0.75991 0.37555 0.70983 0.0
H521 H 0.70733 0.41582 0.69648 0.0
H522 H 0.70599 0.5564 0.68708 0.0
H523 H 0.75466 0.60678 0.70122 0.0
H524 H 0.85359 0.62076 0.79365 0.0
H525 H 0.87743 0.57977 0.84188 0.0
H526 H 0.91734 0.51679 0.68766 0.0
H527 H 0.82377 0.50009 0.62499 0.0
H528 H 0.72677 0.55708 0.84083 0.0
H529 H 0.73203 0.44627 0.85253 0.0
C530 C 0.17132 0.05335 0.79801 0.0
C531 C 0.15266 0.08295 0.80479 0.0
C532 C 0.16087 0.10571 0.779 0.0
C533 C 0.1837 0.08871 0.75776 0.0
N534 N 0.1903 0.05665 0.76852 0.0
Co535 Co 0.21925 0.02255 0.74349 0.0
N536 N 0.2438 0.05998 0.71727 0.0
C537 C 0.23327 0.09269 0.71396 0.0
C538 C 0.25629 0.11337 0.69577 0.0
C539 C 0.28273 0.09222 0.68661 0.0
C540 C 0.27407 0.05957 0.6994 0.0
N541 N 0.24762 0.98829 0.71788 0.0
C542 C 0.27615 0.99346 0.69778 0.0
C543 C 0.28623 0.96202 0.68281 0.0
C544 C 0.26303 0.93653 0.69383 0.0
C545 C 0.24001 0.9537 0.71472 0.0
N546 N 0.19485 0.98588 0.77076 0.0
C547 C 0.19425 0.9513 0.76319 0.0
C548 C 0.18032 0.93211 0.78972 0.0
C549 C 0.17147 0.95609 0.81531 0.0
C550 C 0.1796 0.98892 0.80269 0.0
N551 N 0.18389 0.016 0.70564 0.0
C552 C 0.138 0.99639 0.64964 0.0
C553 C 0.12596 0.99836 0.68426 0.0
C554 C 0.14943 0.00819 0.71199 0.0
C555 C 0.17296 0.00531 0.64374 0.0
C556 C 0.19512 0.01529 0.67176 0.0
N557 N 0.25537 0.02753 0.7802 0.0
C558 C 0.29905 0.99916 0.81286 0.0
C559 C 0.31408 0.03133 0.82445 0.0
C560 C 0.29819 0.06189 0.81496 0.0
C561 C 0.26875 0.0594 0.79255 0.0
C562 C 0.26979 0.99782 0.79115 0.0
H563 H 0.25739 0.08306 0.78446 0.0
H564 H 0.2597 0.97244 0.78226 0.0
H565 H 0.13995 0.00876 0.73852 0.0
H566 H 0.22182 0.0212 0.66586 0.0
C567 C 0.2042 0.10411 0.73202 0.0
C568 C 0.17005 0.02251 0.81984 0.0
C569 C 0.29216 0.02784 0.68956 0.0
C570 C 0.2145 0.93803 0.73583 0.0
H571 H 0.13524 0.08779 0.8263 0.0
H572 H 0.15245 0.13209 0.77696 0.0
H573 H 0.25444 0.14072 0.69038 0.0
H574 H 0.30511 0.0996 0.67113 0.0
H575 H 0.30773 0.95796 0.66529 0.0
H576 H 0.26345 0.90874 0.68795 0.0
H577 H 0.179 0.90398 0.79141 0.0
H578 H 0.16046 0.94989 0.84036 0.0
H579 H 0.09884 0.99215 0.68977 0.0
H580 H 0.18318 0.00455 0.6174 0.0
H581 H 0.31031 0.97503 0.8201 0.0
H582 H 0.30892 0.08727 0.82405 0.0
C583 C 0.72088 0.17641 0.96335 0.0
C584 C 0.71276 0.15848 0.9318 0.0
C585 C 0.73495 0.17191 0.90735 0.0
C586 C 0.7556 0.19685 0.92534 0.0
N587 N 0.74784 0.19988 0.95955 0.0
Co588 Co 0.77421 0.22952 0.99523 0.0
N589 N 0.79357 0.26045 0.95888 0.0
C590 C 0.79407 0.25278 0.9242 0.0
C591 C 0.80815 0.27956 0.90527 0.0
C592 C 0.81756 0.30554 0.92961 0.0
C593 C 0.80897 0.29294 0.96218 0.0
N594 N 0.80164 0.25864 0.03071 0.0
C595 C 0.81873 0.29016 0.02784 0.0
C596 C 0.83657 0.29994 0.05874 0.0
C597 C 0.83056 0.27341 0.08145 0.0
C598 C 0.80954 0.24888 0.06324 0.0
N599 N 0.75344 0.19877 0.03088 0.0
C600 C 0.76482 0.19682 0.06419 0.0
C601 C 0.7414 0.17864 0.08438 0.0
C602 C 0.71393 0.16845 0.06232 0.0
C603 C 0.72239 0.18002 0.02932 0.0
N604 N 0.81429 0.19964 0.99069 0.0
C605 C 0.87432 0.16181 0.99941 0.0
C606 C 0.84109 0.14487 0.99938 0.0
C607 C 0.81128 0.16433 0.99491 0.0
C608 C 0.87683 0.1974 0.99331 0.0
C609 C 0.84676 0.21554 0.98864 0.0
N610 N 0.73521 0.25995 1.00179 0.0
C611 C 0.70346 0.29533 0.04244 0.0
C612 C 0.68557 0.30947 0.01496 0.0
C613 C 0.69186 0.29753 0.98047 0.0
C614 C 0.71713 0.27272 0.97439 0.0
C615 C 0.72766 0.27048 0.03538 0.0
H616 H 0.7227 0.26447 0.94778 0.0
H617 H 0.74101 0.26068 0.05747 0.0
H618 H 0.78587 0.15116 0.99615 0.0
H619 H 0.84993 0.243 0.98537 0.0
C620 C 0.77756 0.22201 0.91019 0.0
C621 C 0.70242 0.1707 0.9963 0.0
C622 C 0.82093 0.30998 0.99552 0.0
C623 C 0.79215 0.21957 0.07722 0.0
H624 H 0.6926 0.13819 0.9268 0.0
H625 H 0.73491 0.16538 0.87953 0.0
H626 H 0.81082 0.28033 0.87712 0.0
H627 H 0.83059 0.33033 0.92413 0.0
H628 H 0.85254 0.32357 0.06414 0.0
H629 H 0.83962 0.27265 0.10835 0.0
H630 H 0.74281 0.17543 0.11239 0.0
H631 H 0.69037 0.1544 0.06998 0.0
H632 H 0.83823 0.11711 0.00347 0.0
H633 H 0.90202 0.21131 0.99272 0.0
H634 H 0.69911 0.30389 0.06934 0.0
H635 H 0.67824 0.3081 0.95857 0.0
Zn636 Zn 0.11091 0.09223 0.07279 0.0
Zn637 Zn 0.03551 0.03015 0.99415 0.0
Zn638 Zn 0.07702 0.0608 0.03467 0.0
C639 C 0.09476 0.04117 0.95281 0.0
C640 C 0.04913 0.98347 0.04706 0.0
O641 O 0.04515 0.09949 0.06596 0.0
O642 O 0.08063 0.10313 0.11182 0.0
C643 C 0.13048 0.11879 0.01435 0.0
O644 O 0.10458 0.0589 0.98116 0.0
O645 O 0.06466 0.02647 0.95184 0.0
O646 O 0.02747 0.9883 0.02278 0.0
O647 O 0.07298 0.00734 0.05485 0.0
O648 O 0.12346 0.13132 0.04417 0.0
O649 O 0.1188 0.08774 0.00486 0.0
O650 O 0.10046 0.02667 0.07448 0.0
O651 O 0.14777 0.06071 0.08326 0.0
C652 C 0.13124 0.03224 0.08811 0.0
O653 O 0.02637 0.08896 0.03537 0.0
O654 O 0.9971 0.0615 0.99156 0.0
C655 C 0.05167 0.10936 0.09832 0.0
C656 C 0.99924 0.08561 0.01487 0.0
Zn657 Zn 0.01038 0.5161 0.99438 0.0
Zn658 Zn 0.92451 0.43769 0.10643 0.0
Zn659 Zn 0.96853 0.48442 0.03412 0.0
C660 C 0.93701 0.50745 0.10601 0.0
C661 C 0.90379 0.43378 0.02291 0.0
O662 O 0.02069 0.45876 0.03575 0.0
O663 O 0.05085 0.48594 0.99521 0.0
C664 C 0.99379 0.56308 0.05017 0.0
O665 O 0.94435 0.51758 0.07517 0.0
O666 O 0.95253 0.48183 0.11712 0.0
O667 O 0.90565 0.4279 0.05549 0.0
O668 O 0.92445 0.45644 0.00865 0.0
O669 O 0.01407 0.56053 0.02444 0.0
O670 O 0.9724 0.53757 0.05694 0.0
O671 O 0.9391 0.48239 0.98249 0.0
O672 O 0.97827 0.51198 0.95254 0.0
C673 C 0.94816 0.49732 0.95396 0.0
O674 O 0.99582 0.44297 0.05891 0.0
O675 O 0.94944 0.40925 0.06948 0.0
C676 C 0.04877 0.46269 0.01769 0.0
C677 C 0.98206 0.41518 0.07191 0.0
Zn678 Zn 0.98611 0.99043 0.49379 0.0
Zn679 Zn 0.04455 0.89366 0.39739 0.0
Zn680 Zn 0.021 0.94744 0.45183 0.0
C681 C 0.07306 0.88673 0.468 0.0
C682 C 0.96672 0.89583 0.39741 0.0
O683 O 0.02783 0.99994 0.42915 0.0
O684 O 0.98942 0.02928 0.45974 0.0
C685 C 0.04829 0.96556 0.52826 0.0
O686 O 0.0597 0.91577 0.47798 0.0
O687 O 0.06786 0.87308 0.43752 0.0
O688 O 0.99459 0.90793 0.41188 0.0
O689 O 0.99382 0.90948 0.41344 0.0
O690 O 0.02449 0.98731 0.52951 0.0
O691 O 0.05077 0.94447 0.50137 0.0
O692 O 0.96532 0.93019 0.46182 0.0
O693 O 0.94054 0.96381 0.50086 0.0
C694 C 0.93915 0.9368 0.48088 0.0
O695 O 0.05268 0.97703 0.41352 0.0
O696 O 0.07385 0.93348 0.38073 0.0
C697 C 0.01078 0.02776 0.4348 0.0
C698 C 0.07374 0.96556 0.38995 0.0
Zn699 Zn 0.9553 0.58961 0.39762 0.0
Zn700 Zn 0.01546 0.49652 0.49067 0.0
Zn701 Zn 0.98181 0.53842 0.44973 0.0
C702 C 0.99284 0.45659 0.42926 0.0
C703 C 0.06281 0.55124 0.48122 0.0
O704 O 0.94243 0.571 0.47684 0.0
O705 O 0.93209 0.61187 0.43804 0.0
C706 C 0.93003 0.51646 0.38542 0.0
O707 O 0.97591 0.48439 0.42442 0.0
O708 O 0.01363 0.45579 0.45518 0.0
O709 O 0.06036 0.52501 0.50024 0.0
O710 O 0.03744 0.55731 0.46068 0.0
O711 O 0.92755 0.54822 0.37806 0.0
O712 O 0.95165 0.50696 0.40913 0.0
O713 O 0.00688 0.57495 0.41227 0.0
O714 O 0.0061 0.57637 0.41085 0.0
C715 C 0.03274 0.58792 0.39538 0.0
O716 O 0.95247 0.54361 0.49919 0.0
O717 O 0.97716 0.50061 0.52602 0.0
C718 C 0.92801 0.59937 0.46805 0.0
C719 C 0.95438 0.52341 0.5254 0.0
Zn720 Zn 0.41352 0.93153 0.57391 0.0
Zn721 Zn 0.4857 0.99632 0.49739 0.0
Zn722 Zn 0.44681 0.96351 0.53754 0.0
C723 C 0.4253 0.9788 0.45756 0.0
C724 C 0.47387 0.04193 0.55496 0.0
O725 O 0.48094 0.928 0.56669 0.0
O726 O 0.44602 0.9223 0.61167 0.0
C727 C 0.39244 0.90289 0.51397 0.0
O728 O 0.41984 0.95966 0.48434 0.0
O729 O 0.45163 0.99984 0.45766 0.0
O730 O 0.4951 0.03724 0.53041 0.0
O731 O 0.44994 0.01805 0.56047 0.0
O732 O 0.3985 0.89166 0.54385 0.0
O733 O 0.40522 0.93321 0.50576 0.0
O734 O 0.42239 0.99888 0.57774 0.0
O735 O 0.37726 0.963 0.58719 0.0
C736 C 0.39243 0.99262 0.5918 0.0
O737 O 0.49869 0.93827 0.53707 0.0
O738 O 0.52375 0.96307 0.49191 0.0
C739 C 0.47531 0.91818 0.59821 0.0
C740 C 0.52416 0.9407 0.51532 0.0
Zn741 Zn 0.51376 0.50118 0.54277 0.0
Zn742 Zn 0.58583 0.57641 0.61635 0.0
Zn743 Zn 0.55261 0.54101 0.57986 0.0
C744 C 0.6072 0.51675 0.63535 0.0
C745 C 0.60599 0.59763 0.55481 0.0
O746 O 0.50201 0.56757 0.57566 0.0
O747 O 0.476 0.53329 0.53448 0.0
C748 C 0.52683 0.46298 0.60109 0.0
O749 O 0.57693 0.5093 0.62119 0.0
O750 O 0.62177 0.54639 0.63167 0.0
O751 O 0.60073 0.61227 0.58415 0.0
O752 O 0.59333 0.56634 0.54787 0.0
O753 O 0.50544 0.46253 0.57569 0.0
O754 O 0.54874 0.48936 0.60608 0.0
O755 O 0.58167 0.53508 0.52811 0.0
O756 O 0.54737 0.49324 0.50411 0.0
C757 C 0.57575 0.51125 0.50351 0.0
O758 O 0.52085 0.58391 0.60488 0.0
O759 O 0.55388 0.59123 0.6524 0.0
C760 C 0.47639 0.56063 0.55391 0.0
C761 C 0.52639 0.59757 0.63611 0.0
Zn762 Zn 0.52028 0.51737 0.03497 0.0
Zn763 Zn 0.58444 0.44274 0.967 0.0
Zn764 Zn 0.55486 0.47793 0.9975 0.0
C765 C 0.59261 0.4147 0.02362 0.0
C766 C 0.52816 0.43221 0.9342 0.0
O767 O 0.56106 0.52924 0.97152 0.0
O768 O 0.52195 0.5569 0.00229 0.0
C769 C 0.57691 0.49766 0.07723 0.0
O770 O 0.59127 0.44793 0.02977 0.0
O771 O 0.57826 0.40162 0.99608 0.0
O772 O 0.55792 0.44105 0.92333 0.0
O773 O 0.52044 0.43958 0.96642 0.0
O774 O 0.55271 0.51896 0.07768 0.0
O775 O 0.58088 0.47767 0.04983 0.0
O776 O 0.50055 0.45172 0.99651 0.0
O777 O 0.47608 0.48717 0.03436 0.0
C778 C 0.47407 0.45931 0.01556 0.0
O779 O 0.58802 0.50555 0.9578 0.0
O780 O 0.62954 0.46924 0.96691 0.0
C781 C 0.54292 0.55637 0.97704 0.0
C782 C 0.61965 0.49637 0.95284 0.0
Zn783 Zn 0.53448 0.01821 0.99764 0.0
Zn784 Zn 0.43739 0.0822 0.9128 0.0
Zn785 Zn 0.49327 0.05586 0.96187 0.0
C786 C 0.50696 0.11519 0.90585 0.0
C787 C 0.43817 0.00631 0.90433 0.0
O788 O 0.46923 0.05575 0.01472 0.0
O789 O 0.50211 0.01727 0.03909 0.0
C790 C 0.57197 0.08303 0.97982 0.0
O791 O 0.51857 0.09875 0.93234 0.0
O792 O 0.47612 0.11024 0.89407 0.0
O793 O 0.45315 0.03184 0.92084 0.0
O794 O 0.45495 0.03071 0.92239 0.0
O795 O 0.57307 0.05454 0.9953 0.0
O796 O 0.54413 0.08902 0.96184 0.0
O797 O 0.50064 0.99973 0.93983 0.0
O798 O 0.53995 0.97363 0.96997 0.0
C799 C 0.51894 0.97305 0.9443 0.0
O800 O 0.45474 0.08373 0.99521 0.0
O801 O 0.42022 0.10588 0.95482 0.0
C802 C 0.47599 0.0362 0.0405 0.0
C803 C 0.4302 0.10392 0.98634 0.0
C804 C 0.01985 0.12343 0.41302 0.0
C805 C 0.01127 0.12231 0.3767 0.0
C806 C 0.00563 0.05801 0.3771 0.0
C807 C 0.01571 0.05921 0.41307 0.0
N808 N 0.04086 0.09233 0.46265 0.0
N809 N 0.00376 0.08838 0.32246 0.0
C810 C 0.02546 0.09177 0.43016 0.0
C811 C 0.00655 0.0895 0.3582 0.0
N812 N 0.02121 0.15465 0.43157 0.0
N813 N 0.9934 0.02719 0.36139 0.0
H814 H 0.00426 0.11079 0.30777 0.0
H815 H 0.00407 0.06532 0.30721 0.0
H816 H 0.99257 0.00359 0.37409 0.0
H817 H 0.98184 0.02538 0.33654 0.0
H818 H 0.02355 0.15674 0.45877 0.0
H819 H 0.01688 0.17836 0.42015 0.0
H820 H 0.0517 0.11495 0.47515 0.0
H821 H 0.04604 0.06959 0.47555 0.0
C822 C 0.98563 0.36011 0.40043 0.0
C823 C 0.99288 0.36114 0.36409 0.0
C824 C 0.99754 0.42562 0.36922 0.0
C825 C 0.98861 0.42455 0.40528 0.0
N826 N 0.96572 0.39097 0.45256 0.0
N827 N 0.99911 0.39481 0.31239 0.0
C828 C 0.98015 0.39178 0.42003 0.0
C829 C 0.99669 0.39393 0.34803 0.0
N830 N 0.98494 0.32887 0.41653 0.0
N831 N 0.0088 0.45653 0.3556 0.0
H832 H 0.99933 0.37226 0.29626 0.0
H833 H 0.99807 0.41767 0.29863 0.0
H834 H 0.00993 0.48016 0.37003 0.0
H835 H 0.01942 0.45845 0.33076 0.0
H836 H 0.98371 0.32673 0.4436 0.0
H837 H 0.98842 0.30516 0.40307 0.0
H838 H 0.95577 0.36818 0.46348 0.0
H839 H 0.96033 0.41358 0.46714 0.0
C840 C 0.01902 0.89059 0.06393 0.0
C841 C 0.02605 0.88782 0.10028 0.0
C842 C 0.049 0.94859 0.10264 0.0
C843 C 0.04568 0.94992 0.06564 0.0
N844 N 0.03903 0.91651 0.01074 0.0
N845 N 0.05987 0.9111 0.15055 0.0
C846 C 0.03451 0.91903 0.04614 0.0
C847 C 0.04509 0.91578 0.11848 0.0
N848 N 0.99597 0.86768 0.04659 0.0
N849 N 0.05292 0.97841 0.12315 0.0
H850 H 0.05951 0.88687 0.1621 0.0
H851 H 0.07594 0.93032 0.1634 0.0
H852 H 0.05138 0.00317 0.11321 0.0
H853 H 0.05293 0.97827 0.15046 0.0
H854 H 0.98825 0.87079 0.02066 0.0
H855 H 0.98146 0.84828 0.05908 0.0
H856 H 0.03333 0.89345 0.99603 0.0
H857 H 0.05243 0.93586 0.99705 0.0
C858 C 0.00074 0.65915 0.07931 0.0
C859 C 0.00513 0.65687 0.1161 0.0
C860 C 0.00571 0.59308 0.10926 0.0
C861 C 0.99652 0.59519 0.07324 0.0
N862 N 0.98014 0.63013 0.02503 0.0
N863 N 0.00816 0.62184 0.16698 0.0
C864 C 0.99284 0.62825 0.05847 0.0
C865 C 0.00664 0.62386 0.13134 0.0
N866 N 0.00401 0.69092 0.06436 0.0
N867 N 0.01533 0.56208 0.12202 0.0
H868 H 0.01023 0.64389 0.18387 0.0
H869 H 0.00509 0.59842 0.17979 0.0
H870 H 0.01578 0.53907 0.10666 0.0
H871 H 0.02581 0.55982 0.14707 0.0
H872 H 0.00459 0.69395 0.03738 0.0
H873 H 0.0093 0.71413 0.07893 0.0
H874 H 0.97342 0.65339 0.01407 0.0
H875 H 0.97305 0.60809 0.00926 0.0
C876 C 0.42015 0.98898 0.10747 0.0
C877 C 0.4106 0.01668 0.13048 0.0
C878 C 0.44362 0.05857 0.09424 0.0
C879 C 0.45106 0.03097 0.07003 0.0
N880 N 0.43883 0.97138 0.04936 0.0
N881 N 0.40872 0.07854 0.1432 0.0
C882 C 0.43719 0.99658 0.07553 0.0
C883 C 0.42107 0.05174 0.12312 0.0
N884 N 0.41344 0.95518 0.11646 0.0
N885 N 0.45903 0.09099 0.09038 0.0
H886 H 0.3931 0.07448 0.16497 0.0
H887 H 0.41199 0.10468 0.137 0.0
H888 H 0.47526 0.09687 0.06949 0.0
H889 H 0.45772 0.11139 0.109 0.0
H890 H 0.4231 0.93383 0.10273 0.0
H891 H 0.40094 0.94857 0.13957 0.0
H892 H 0.42611 0.94687 0.0503 0.0
H893 H 0.44971 0.97615 0.025 0.0
C894 C 0.65819 0.50334 0.13719 0.0
C895 C 0.64298 0.4974 0.17027 0.0
C896 C 0.58551 0.48732 0.14151 0.0
C897 C 0.60017 0.49603 0.10881 0.0
N898 N 0.64941 0.51872 0.07671 0.0
N899 N 0.59138 0.48959 0.20492 0.0
C900 C 0.63629 0.5057 0.10692 0.0
C901 C 0.60635 0.49125 0.1727 0.0
N902 N 0.69365 0.50605 0.13454 0.0
N903 N 0.55197 0.47385 0.14258 0.0
H904 H 0.60581 0.49182 0.22827 0.0
H905 H 0.56456 0.48897 0.20865 0.0
H906 H 0.53612 0.46991 0.12027 0.0
H907 H 0.54089 0.4635 0.16491 0.0
H908 H 0.70651 0.50629 0.11069 0.0
H909 H 0.7104 0.50558 0.15623 0.0
H910 H 0.67457 0.52975 0.07479 0.0
H911 H 0.63431 0.52091 0.05408 0.0
C912 C 0.40281 0.97802 0.36043 0.0
C913 C 0.36669 0.9843 0.36033 0.0
C914 C 0.36734 0.984 0.42507 0.0
C915 C 0.40305 0.9757 0.42484 0.0
N916 N 0.45171 0.95565 0.39179 0.0
N917 N 0.31308 0.98767 0.39201 0.0
C918 C 0.4198 0.96998 0.39229 0.0
C919 C 0.34848 0.9855 0.39254 0.0
N920 N 0.42119 0.98046 0.33012 0.0
N921 N 0.35187 0.99214 0.45615 0.0
H922 H 0.29874 0.98986 0.36887 0.0
H923 H 0.2977 0.98486 0.41408 0.0
H924 H 0.36462 0.99106 0.4803 0.0
H925 H 0.32721 0.00217 0.45793 0.0
H926 H 0.44825 0.97995 0.32927 0.0
H927 H 0.40975 0.98606 0.30621 0.0
H928 H 0.46385 0.94763 0.36881 0.0
H929 H 0.46433 0.94821 0.41449 0.0
C930 C 0.60906 0.46871 0.4185 0.0
C931 C 0.63048 0.49629 0.40547 0.0
C932 C 0.62547 0.52896 0.46173 0.0
C933 C 0.59998 0.50406 0.47299 0.0
N934 N 0.5832 0.44262 0.46942 0.0
N935 N 0.65542 0.55497 0.41302 0.0
C936 C 0.59585 0.47171 0.45326 0.0
C937 C 0.63744 0.52713 0.42658 0.0
N938 N 0.60115 0.43964 0.39762 0.0
N939 N 0.64256 0.55066 0.48576 0.0
H940 H 0.66461 0.55468 0.38741 0.0
H941 H 0.65816 0.5793 0.42612 0.0
H942 H 0.64103 0.54592 0.51232 0.0
H943 H 0.66326 0.56774 0.47952 0.0
H944 H 0.58225 0.42058 0.40376 0.0
H945 H 0.61154 0.4358 0.37275 0.0
H946 H 0.58209 0.41762 0.45779 0.0
H947 H 0.57866 0.44251 0.4963 0.0
C948 C 0.12149 0.40609 0.98706 0.0
C949 C 0.14222 0.40409 0.0179 0.0
C950 C 0.1001 0.43908 0.05046 0.0
C951 C 0.07833 0.43884 0.02011 0.0
N952 N 0.06435 0.41478 0.96222 0.0
N953 N 0.14793 0.41301 0.08059 0.0
C954 C 0.08789 0.42005 0.98925 0.0
C955 C 0.13053 0.41892 0.05014 0.0
N956 N 0.13443 0.39579 0.95532 0.0
N957 N 0.09266 0.45977 0.07901 0.0
H958 H 0.17034 0.39872 0.08133 0.0
H959 H 0.13863 0.41985 0.10529 0.0
H960 H 0.07078 0.47482 0.08006 0.0
H961 H 0.10944 0.46404 0.10052 0.0
H962 H 0.12206 0.4 0.93154 0.0
H963 H 0.15922 0.38615 0.95244 0.0
H964 H 0.06844 0.39838 0.94044 0.0
H965 H 0.03918 0.42385 0.9633 0.0
C966 C 0.15846 0.58348 0.49116 0.0
C967 C 0.15564 0.62022 0.49446 0.0
C968 C 0.09166 0.61194 0.49155 0.0
C969 C 0.09467 0.57547 0.48429 0.0
N970 N 0.13172 0.52797 0.47033 0.0
N971 N 0.11992 0.67006 0.49331 0.0
C972 C 0.12832 0.56161 0.48242 0.0
C973 C 0.12231 0.63462 0.49332 0.0
N974 N 0.19005 0.56944 0.49638 0.0
N975 N 0.05979 0.62478 0.4986 0.0
H976 H 0.14161 0.68742 0.49601 0.0
H977 H 0.09677 0.68216 0.48824 0.0
H978 H 0.03684 0.60919 0.49881 0.0
H979 H 0.05643 0.65036 0.50753 0.0
H980 H 0.19319 0.54273 0.49805 0.0
H981 H 0.21276 0.58465 0.50215 0.0
H982 H 0.15566 0.51746 0.46493 0.0
H983 H 0.11054 0.51157 0.46209 0.0
C984 C 0.88047 0.85365 0.48949 0.0
C985 C 0.84702 0.86775 0.48829 0.0
C986 C 0.87409 0.9253 0.47595 0.0
C987 C 0.90769 0.91224 0.48115 0.0
N988 N 0.94269 0.86476 0.49823 0.0
N989 N 0.81185 0.91797 0.48509 0.0
C990 C 0.9109 0.87651 0.48908 0.0
C991 C 0.84382 0.9039 0.48292 0.0
N992 N 0.88317 0.8183 0.49066 0.0
N993 N 0.87106 0.95771 0.46284 0.0
H994 H 0.789 0.90309 0.4894 0.0
H995 H 0.80832 0.94472 0.48542 0.0
H996 H 0.89255 0.97368 0.45631 0.0
H997 H 0.84739 0.96733 0.45507 0.0
H998 H 0.90657 0.80599 0.48754 0.0
H999 H 0.86153 0.80093 0.49203 0.0
H1000 H 0.94607 0.84011 0.50789 0.0
H1001 H 0.96552 0.88057 0.49925 0.0
C1002 C 0.39278 0.61067 0.56156 0.0
C1003 C 0.38794 0.61851 0.52571 0.0
C1004 C 0.4463 0.59848 0.51295 0.0
C1005 C 0.44893 0.58579 0.54725 0.0
N1006 N 0.4242 0.57798 0.60417 0.0
N1007 N 0.40834 0.61555 0.46621 0.0
C1008 C 0.42218 0.59167 0.57174 0.0
C1009 C 0.41434 0.61138 0.50114 0.0
N1010 N 0.36984 0.62219 0.58598 0.0
N1011 N 0.4748 0.59872 0.49183 0.0
H1012 H 0.38499 0.62427 0.45635 0.0
H1013 H 0.42515 0.60728 0.44673 0.0
H1014 H 0.49885 0.59014 0.50005 0.0
H1015 H 0.47566 0.61072 0.46782 0.0
H1016 H 0.37382 0.62051 0.61287 0.0
H1017 H 0.34806 0.63599 0.5795 0.0
H1018 H 0.40381 0.57785 0.62189 0.0
H1019 H 0.44578 0.56492 0.61262 0.0
C1020 C 0.54376 0.6148 0.89724 0.0
C1021 C 0.53298 0.64673 0.91303 0.0
C1022 C 0.54194 0.62137 0.97036 0.0
C1023 C 0.54464 0.58756 0.95433 0.0
N1024 N 0.53836 0.55216 0.90067 0.0
N1025 N 0.51385 0.67598 0.96629 0.0
C1026 C 0.54323 0.58417 0.91718 0.0
C1027 C 0.53011 0.649 0.95015 0.0
N1028 N 0.55504 0.61358 0.86348 0.0
N1029 N 0.55068 0.62727 0.0049 0.0
H1030 H 0.50146 0.69495 0.95259 0.0
H1031 H 0.50888 0.67689 0.99309 0.0
H1032 H 0.56114 0.60814 0.02006 0.0
H1033 H 0.55144 0.65214 0.01697 0.0
H1034 H 0.5652 0.59124 0.85196 0.0
H1035 H 0.55814 0.63584 0.84873 0.0
H1036 H 0.5345 0.54902 0.87363 0.0
H1037 H 0.53383 0.52937 0.91422 0.0
C1038 C 0.5195 0.9102 0.8627 0.0
C1039 C 0.51826 0.8774 0.87889 0.0
C1040 C 0.51043 0.90761 0.93612 0.0
C1041 C 0.51557 0.94063 0.92071 0.0
N1042 N 0.52949 0.97318 0.86941 0.0
N1043 N 0.51789 0.84516 0.93184 0.0
C1044 C 0.52108 0.94192 0.88393 0.0
C1045 C 0.51545 0.87627 0.91588 0.0
N1046 N 0.5186 0.91105 0.82696 0.0
N1047 N 0.49894 0.90609 0.96981 0.0
H1048 H 0.52094 0.8216 0.91796 0.0
H1049 H 0.51992 0.84315 0.9589 0.0
H1050 H 0.49333 0.92827 0.98496 0.0
H1051 H 0.49129 0.88287 0.98142 0.0
H1052 H 0.51535 0.93374 0.8134 0.0
H1053 H 0.51871 0.88852 0.81077 0.0
H1054 H 0.53752 0.97547 0.84362 0.0
H1055 H 0.53109 0.99682 0.88383 0.0
C1056 C 0.52481 0.36693 0.62218 0.0
C1057 C 0.52031 0.36814 0.65904 0.0
C1058 C 0.52087 0.43244 0.65882 0.0
C1059 C 0.52791 0.43112 0.62235 0.0
N1060 N 0.54495 0.3975 0.57132 0.0
N1061 N 0.51902 0.40178 0.71346 0.0
C1062 C 0.53215 0.39842 0.6046 0.0
C1063 C 0.51981 0.40088 0.67767 0.0
N1064 N 0.52208 0.33558 0.6039 0.0
N1065 N 0.51377 0.46355 0.67515 0.0
H1066 H 0.51685 0.37922 0.72788 0.0
H1067 H 0.52269 0.42464 0.72888 0.0
H1068 H 0.51452 0.48709 0.66231 0.0
H1069 H 0.50482 0.46577 0.70072 0.0
H1070 H 0.52124 0.33333 0.57664 0.0
H1071 H 0.51766 0.31184 0.61588 0.0
H1072 H 0.55206 0.37467 0.55825 0.0
H1073 H 0.55207 0.42 0.55809 0.0
C1074 C 0.50613 0.13413 0.58098 0.0
C1075 C 0.49997 0.13633 0.61759 0.0
C1076 C 0.47604 0.07581 0.61393 0.0
C1077 C 0.47827 0.07518 0.57681 0.0
N1078 N 0.48461 0.10962 0.52527 0.0
N1079 N 0.46681 0.11239 0.66545 0.0
C1080 C 0.48971 0.1063 0.56041 0.0
C1081 C 0.48089 0.10823 0.633 0.0
N1082 N 0.52922 0.15697 0.5659 0.0
N1083 N 0.47232 0.04563 0.63152 0.0
H1084 H 0.46765 0.13637 0.67934 0.0
H1085 H 0.45077 0.09308 0.67637 0.0
H1086 H 0.47306 0.02107 0.61912 0.0
H1087 H 0.47326 0.04521 0.65881 0.0
H1088 H 0.53633 0.15428 0.5397 0.0
H1089 H 0.54436 0.17581 0.58028 0.0
H1090 H 0.49046 0.13288 0.51281 0.0
H1091 H 0.47064 0.09077 0.50969 0.0
C1092 C 0.89573 0.48593 0.59451 0.0
C1093 C 0.8931 0.51463 0.61877 0.0
C1094 C 0.92751 0.5519 0.57923 0.0
C1095 C 0.92868 0.52342 0.55449 0.0
N1096 N 0.90559 0.46665 0.53443 0.0
N1097 N 0.90006 0.57674 0.63088 0.0
C1098 C 0.91007 0.49151 0.5609 0.0
C1099 C 0.90707 0.54822 0.61011 0.0
N1100 N 0.88593 0.45296 0.60409 0.0
N1101 N 0.94706 0.58187 0.57404 0.0
H1102 H 0.88537 0.57503 0.6536 0.0
H1103 H 0.90634 0.60229 0.62412 0.0
H1104 H 0.96169 0.58562 0.55156 0.0
H1105 H 0.95049 0.60211 0.59288 0.0
H1106 H 0.89066 0.43062 0.58887 0.0
H1107 H 0.87614 0.44752 0.62876 0.0
H1108 H 0.88947 0.44422 0.53635 0.0
H1109 H 0.91501 0.47032 0.50923 0.0
C1110 C 0.10856 0.01296 0.59408 0.0
C1111 C 0.11456 0.98705 0.61873 0.0
C1112 C 0.07993 0.94395 0.58149 0.0
C1113 C 0.07569 0.96968 0.55625 0.0
N1114 N 0.09435 0.02533 0.53402 0.0
N1115 N 0.11163 0.92623 0.63289 0.0
C1116 C 0.09274 0.00312 0.56121 0.0
C1117 C 0.10189 0.95197 0.61156 0.0
N1118 N 0.11682 0.04732 0.6026 0.0
N1119 N 0.06212 0.91238 0.57734 0.0
H1120 H 0.12734 0.93119 0.65515 0.0
H1121 H 0.10632 0.89975 0.62714 0.0
H1122 H 0.04688 0.90548 0.55515 0.0
H1123 H 0.06094 0.89388 0.5966 0.0
H1124 H 0.10979 0.06768 0.58708 0.0
H1125 H 0.12759 0.05579 0.62683 0.0
H1126 H 0.10923 0.04877 0.53492 0.0
H1127 H 0.08386 0.01851 0.50922 0.0
C1128 C 0.91474 0.52509 0.865 0.0
C1129 C 0.88296 0.5053 0.85974 0.0
C1130 C 0.89617 0.4754 0.91399 0.0
C1131 C 0.92395 0.50021 0.92256 0.0
N1132 N 0.94858 0.55785 0.90914 0.0
N1133 N 0.83989 0.46603 0.88501 0.0
C1134 C 0.92995 0.52793 0.89903 0.0
C1135 C 0.87229 0.48218 0.88636 0.0
N1136 N 0.93173 0.53971 0.83762 0.0
N1137 N 0.89428 0.44395 0.92934 0.0
H1138 H 0.82158 0.47089 0.86562 0.0
H1139 H 0.83041 0.45071 0.90513 0.0
H1140 H 0.91464 0.43565 0.94465 0.0
H1141 H 0.87552 0.42434 0.92224 0.0
H1142 H 0.95621 0.55251 0.84069 0.0
H1143 H 0.92318 0.53561 0.81169 0.0
H1144 H 0.95186 0.57874 0.89256 0.0
H1145 H 0.9559 0.56388 0.93512 0.0
C1146 C 0.16544 0.05117 0.88114 0.0
C1147 C 0.15316 0.02527 0.85564 0.0
C1148 C 0.11048 0.00523 0.89833 0.0
C1149 C 0.11751 0.0354 0.92086 0.0
N1150 N 0.1459 0.0929 0.92455 0.0
N1151 N 0.1037 0.9872 0.8375 0.0
C1152 C 0.14382 0.05995 0.91011 0.0
C1153 C 0.1226 0.00505 0.86339 0.0
N1154 N 0.19709 0.06815 0.87737 0.0
N1155 N 0.09345 0.97604 0.91016 0.0
H1156 H 0.10974 0.98896 0.81104 0.0
H1157 H 0.07998 0.97398 0.84238 0.0
H1158 H 0.08813 0.97279 0.93659 0.0
H1159 H 0.08945 0.95336 0.89438 0.0
H1160 H 0.20783 0.08567 0.89654 0.0
H1161 H 0.21374 0.06205 0.85687 0.0
H1162 H 0.16341 0.11229 0.91604 0.0
H1163 H 0.12629 0.10197 0.94045 0.0
C1164 C 0.593 0.88118 0.48051 0.0
C1165 C 0.61583 0.87969 0.50984 0.0
C1166 C 0.57737 0.91693 0.54451 0.0
C1167 C 0.55362 0.91667 0.51566 0.0
N1168 N 0.53477 0.89156 0.45943 0.0
N1169 N 0.62674 0.89056 0.57167 0.0
C1170 C 0.5603 0.8967 0.48461 0.0
C1171 C 0.60709 0.89591 0.54246 0.0
N1172 N 0.603 0.8686 0.44839 0.0
N1173 N 0.57249 0.93846 0.57317 0.0
H1174 H 0.64899 0.876 0.57101 0.0
H1175 H 0.61955 0.89827 0.5969 0.0
H1176 H 0.55119 0.95417 0.57562 0.0
H1177 H 0.59078 0.94269 0.59341 0.0
H1178 H 0.58921 0.87233 0.42529 0.0
H1179 H 0.62676 0.85713 0.44427 0.0
H1180 H 0.53667 0.87443 0.43781 0.0
H1181 H 0.51012 0.90163 0.462 0.0
C1182 C 0.64021 0.16059 0.97182 0.0
C1183 C 0.66738 0.15044 0.99456 0.0
C1184 C 0.62755 0.10369 0.01339 0.0
C1185 C 0.60349 0.10852 0.98524 0.0
N1186 N 0.59703 0.13667 0.93017 0.0
N1187 N 0.68902 0.10135 0.02483 0.0
C1188 C 0.61222 0.13599 0.96241 0.0
C1189 C 0.66185 0.11868 0.0118 0.0
N1190 N 0.64149 0.19299 0.95826 0.0
N1191 N 0.61789 0.08644 0.04259 0.0
H1192 H 0.71494 0.10943 0.02091 0.0
H1193 H 0.68536 0.077 0.03592 0.0
H1194 H 0.59194 0.08006 0.04827 0.0
H1195 H 0.63521 0.08376 0.06349 0.0
H1196 H 0.62119 0.20178 0.94303 0.0
H1197 H 0.66105 0.21186 0.96521 0.0
H1198 H 0.60417 0.15531 0.91206 0.0
H1199 H 0.58235 0.11523 0.91977 0.0
C1200 C 0.40501 0.38476 0.99594 0.0
C1201 C 0.37862 0.39204 0.02062 0.0
C1202 C 0.41786 0.43854 0.04603 0.0
C1203 C 0.44123 0.43574 0.01726 0.0
N1204 N 0.44351 0.41489 0.95698 0.0
N1205 N 0.35658 0.43752 0.05879 0.0
C1206 C 0.4315 0.41092 0.98996 0.0
C1207 C 0.38386 0.42245 0.04268 0.0
N1208 N 0.40423 0.35385 0.97708 0.0
N1209 N 0.42781 0.45484 0.07715 0.0
H1210 H 0.33078 0.42865 0.0542 0.0
H1211 H 0.3597 0.46105 0.07337 0.0
H1212 H 0.45361 0.46228 0.08346 0.0
H1213 H 0.4111 0.45582 0.09848 0.0
H1214 H 0.42405 0.34758 0.9598 0.0
H1215 H 0.38578 0.33366 0.98135 0.0
H1216 H 0.43497 0.39837 0.93596 0.0
H1217 H 0.45649 0.438 0.95 0.0
C1218 C 0.93094 0.14025 0.97708 0.0
C1219 C 0.90701 0.14301 0.00496 0.0
C1220 C 0.94674 0.11215 0.04286 0.0
C1221 C 0.97109 0.11088 0.01526 0.0
N1222 N 0.9907 0.13241 0.96015 0.0
N1223 N 0.89557 0.13877 0.06672 0.0
C1224 C 0.96451 0.12786 0.9837 0.0
C1225 C 0.91595 0.13114 0.03864 0.0
N1226 N 0.92108 0.14805 0.94386 0.0
N1227 N 0.9522 0.094 0.07237 0.0
H1228 H 0.87288 0.15249 0.06462 0.0
H1229 H 0.90265 0.13406 0.09246 0.0
H1230 H 0.97466 0.0804 0.07648 0.0
H1231 H 0.93361 0.09069 0.09174 0.0
H1232 H 0.93621 0.14313 0.92193 0.0
H1233 H 0.89633 0.15625 0.93765 0.0
H1234 H 0.98854 0.14743 0.93812 0.0
H1235 H 0.01585 0.12425 0.96471 0.0
C1236 C 0.01429 0.13519 0.18402 0.0
C1237 C 0.0109 0.17144 0.17973 0.0
C1238 C 0.02104 0.16362 0.11649 0.0
C1239 C 0.02707 0.12795 0.12136 0.0
N1240 N 0.01839 0.07753 0.15602 0.0
N1241 N 0.99989 0.2179 0.14107 0.0
C1242 C 0.01968 0.11304 0.15401 0.0
C1243 C 0.01048 0.18489 0.14558 0.0
N1244 N 0.01373 0.12224 0.2169 0.0
N1245 N 0.02757 0.17761 0.08474 0.0
H1246 H 0.99235 0.23405 0.16195 0.0
H1247 H 0.99557 0.22803 0.11657 0.0
H1248 H 0.03377 0.16238 0.06271 0.0
H1249 H 0.02806 0.20428 0.08054 0.0
H1250 H 0.01992 0.09686 0.22231 0.0
H1251 H 0.00872 0.13753 0.23928 0.0
H1252 H 0.01077 0.06437 0.17821 0.0
H1253 H 0.0219 0.06116 0.13399 0.0
C1254 C 0.00718 0.39318 0.1629 0.0
C1255 C 0.00599 0.35625 0.15929 0.0
C1256 C 0.00095 0.35942 0.09548 0.0
C1257 C 0.00056 0.39629 0.0992 0.0
N1258 N 0.0164 0.44822 0.1347 0.0
N1259 N 0.01251 0.30477 0.12238 0.0
C1260 C 0.00811 0.41321 0.13233 0.0
C1261 C 0.0064 0.33952 0.12555 0.0
N1262 N 0.0059 0.40908 0.19548 0.0
N1263 N 0.99497 0.34352 0.06321 0.0
H1264 H 0.01715 0.2898 0.14402 0.0
H1265 H 0.01619 0.2916 0.09847 0.0
H1266 H 0.99348 0.35767 0.04045 0.0
H1267 H 0.99036 0.31671 0.05916 0.0
H1268 H 0.00233 0.43566 0.19959 0.0
H1269 H 0.00585 0.39531 0.21853 0.0
H1270 H 0.0251 0.46127 0.1578 0.0
H1271 H 0.01839 0.46366 0.11296 0.0
C1272 C 0.97526 0.86825 0.30244 0.0
C1273 C 0.98545 0.83333 0.30483 0.0
C1274 C 0.98314 0.8387 0.36901 0.0
C1275 C 0.96993 0.87245 0.36615 0.0
N1276 N 0.94777 0.91723 0.3306 0.0
N1277 N 0.99739 0.78404 0.33946 0.0
C1278 C 0.96414 0.88648 0.33295 0.0
C1279 C 0.98903 0.81819 0.33792 0.0
N1280 N 0.97722 0.88429 0.27112 0.0
N1281 N 0.9902 0.82654 0.40141 0.0
H1282 H 0.00317 0.76884 0.31723 0.0
H1283 H 0.99709 0.77021 0.36238 0.0
H1284 H 0.98388 0.83993 0.42459 0.0
H1285 H 0.00356 0.80405 0.40551 0.0
H1286 H 0.97359 0.91077 0.26838 0.0
H1287 H 0.98593 0.87193 0.24835 0.0
H1288 H 0.93958 0.92701 0.30696 0.0
H1289 H 0.9395 0.9315 0.35251 0.0
C1290 C 0.00194 0.66471 0.34545 0.0
C1291 C 0.00801 0.65311 0.31041 0.0
C1292 C 0.03064 0.5987 0.33136 0.0
C1293 C 0.02708 0.61158 0.36638 0.0
N1294 N 0.01419 0.65825 0.40738 0.0
N1295 N 0.02987 0.61046 0.26934 0.0
C1296 C 0.01396 0.64499 0.37361 0.0
C1297 C 0.02283 0.62042 0.30319 0.0
N1298 N 0.98433 0.6944 0.35174 0.0
N1299 N 0.04021 0.56515 0.32511 0.0
H1300 H 0.02228 0.6245 0.2479 0.0
H1301 H 0.04458 0.58923 0.26244 0.0
H1302 H 0.04737 0.54891 0.34503 0.0
H1303 H 0.03917 0.55255 0.30048 0.0
H1304 H 0.97587 0.70242 0.37641 0.0
H1305 H 0.97554 0.70971 0.33178 0.0
H1306 H 0.00822 0.68376 0.41429 0.0
H1307 H 0.02335 0.6446 0.42847 0.0
C1308 C 0.20337 0.98783 0.12781 0.0
C1309 C 0.19914 0.99751 0.16388 0.0
C1310 C 0.14133 0.01862 0.15028 0.0
C1311 C 0.14631 0.00977 0.11435 0.0
N1312 N 0.17582 0.9769 0.07051 0.0
N1313 N 0.16186 0.01628 0.21049 0.0
C1314 C 0.17517 0.99088 0.10389 0.0
C1315 C 0.16712 0.01062 0.17547 0.0
N1316 N 0.235 0.97818 0.11584 0.0
N1317 N 0.11318 0.03713 0.15978 0.0
H1318 H 0.18111 0.01284 0.22934 0.0
H1319 H 0.13797 0.02241 0.22108 0.0
H1320 H 0.09347 0.04229 0.14199 0.0
H1321 H 0.1099 0.04849 0.18462 0.0
H1322 H 0.2406 0.97469 0.08937 0.0
H1323 H 0.25664 0.97628 0.13209 0.0
H1324 H 0.19473 0.96024 0.06166 0.0
H1325 H 0.15515 0.97937 0.05288 0.0
C1326 C 0.83992 0.5072 0.12824 0.0
C1327 C 0.84287 0.51165 0.16519 0.0
C1328 C 0.90566 0.5256 0.16001 0.0
C1329 C 0.90382 0.51629 0.1237 0.0
N1330 N 0.86848 0.49794 0.07279 0.0
N1331 N 0.87911 0.52971 0.21592 0.0
C1332 C 0.87066 0.50771 0.1075 0.0
C1333 C 0.87555 0.52245 0.18084 0.0
N1334 N 0.80751 0.50348 0.1129 0.0
N1335 N 0.93676 0.53688 0.17519 0.0
H1336 H 0.85869 0.52833 0.23365 0.0
H1337 H 0.85869 0.52833 0.23365 0.0
H1338 H 0.95942 0.54076 0.1608 0.0
H1339 H 0.93946 0.54345 0.2019 0.0
H1340 H 0.80298 0.50429 0.08603 0.0
H1341 H 0.7846 0.50265 0.12731 0.0
H1342 H 0.84614 0.4862 0.06106 0.0
H1343 H 0.88919 0.50015 0.05568 0.0
C1344 C 0.16567 0.9997 0.37785 0.0
C1345 C 0.16721 0.9932 0.34099 0.0
C1346 C 0.1032 0.98832 0.33809 0.0
C1347 C 0.10213 0.98776 0.375 0.0
N1348 N 0.13167 0.99445 0.43089 0.0
N1349 N 0.13728 0.97974 0.28584 0.0
C1350 C 0.13311 0.99489 0.39517 0.0
C1351 C 0.13585 0.98762 0.32096 0.0
N1352 N 0.19539 0.00972 0.39631 0.0
N1353 N 0.07256 0.98842 0.31962 0.0
H1354 H 0.16065 0.97823 0.27249 0.0
H1355 H 0.11556 0.97196 0.27043 0.0
H1356 H 0.04858 0.9886 0.3322 0.0
H1357 H 0.07106 0.99169 0.29271 0.0
H1358 H 0.19558 0.01829 0.4225 0.0
H1359 H 0.21987 0.01162 0.38483 0.0
H1360 H 0.15354 0.99455 0.44725 0.0
H1361 H 0.10816 0.99277 0.44423 0.0
C1362 C 0.86875 0.48158 0.31476 0.0
C1363 C 0.83786 0.48275 0.33464 0.0
C1364 C 0.873 0.48445 0.38889 0.0
C1365 C 0.9031 0.49201 0.36905 0.0
N1366 N 0.9313 0.49437 0.31345 0.0
N1367 N 0.80985 0.48151 0.39081 0.0
C1368 C 0.90153 0.48864 0.33199 0.0
C1369 C 0.83978 0.48239 0.37184 0.0
N1370 N 0.86663 0.47383 0.27959 0.0
N1371 N 0.87633 0.4802 0.42411 0.0
H1372 H 0.78521 0.47828 0.37919 0.0
H1373 H 0.8092 0.48551 0.41789 0.0
H1374 H 0.90052 0.48129 0.43686 0.0
H1375 H 0.85587 0.47229 0.44003 0.0
H1376 H 0.88825 0.4695 0.26412 0.0
H1377 H 0.8429 0.46909 0.26629 0.0
H1378 H 0.93175 0.49663 0.28638 0.0
H1379 H 0.95565 0.49807 0.32584 0.0
C1380 C 0.21323 0.1675 0.00345 0.0
C1381 C 0.20032 0.19995 0.99373 0.0
C1382 C 0.14277 0.17115 0.98091 0.0
C1383 C 0.15509 0.14012 0.99397 0.0
N1384 N 0.20278 0.10462 0.00652 0.0
N1385 N 0.15233 0.23328 0.97385 0.0
C1386 C 0.19081 0.13696 1.00112 0.0
C1387 C 0.16511 0.20181 0.98172 0.0
N1388 N 0.24593 0.16649 0.01769 0.0
N1389 N 0.10922 0.17093 0.96855 0.0
H1390 H 0.16752 0.25638 0.97422 0.0
H1391 H 0.12628 0.23721 0.96839 0.0
H1392 H 0.09286 0.14838 0.96839 0.0
H1393 H 0.09837 0.19159 0.95615 0.0
H1394 H 0.25557 0.14453 0.0289 0.0
H1395 H 0.26265 0.18859 0.0209 0.0
H1396 H 0.22904 0.09959 0.00924 0.0
H1397 H 0.18622 0.08223 0.0048 0.0
C1398 C 0.10921 0.80789 0.50452 0.0
C1399 C 0.14429 0.81447 0.49418 0.0
C1400 C 0.13268 0.87623 0.48698 0.0
C1401 C 0.0968 0.86799 0.49044 0.0
N1402 N 0.05014 0.82846 0.50635 0.0
N1403 N 0.18988 0.85481 0.47542 0.0
C1404 C 0.08501 0.83468 0.50135 0.0
C1405 C 0.15633 0.84882 0.48594 0.0
N1406 N 0.09896 0.77587 0.5164 0.0
N1407 N 0.14364 0.9103 0.48356 0.0
H1408 H 0.20779 0.83531 0.47398 0.0
H1409 H 0.19939 0.87837 0.46579 0.0
H1410 H 0.1262 0.93039 0.48431 0.0
H1411 H 0.16971 0.91897 0.48337 0.0
H1412 H 0.07472 0.77021 0.52722 0.0
H1413 H 0.11539 0.75503 0.51699 0.0
H1414 H 0.03845 0.80396 0.51041 0.0
H1415 H 0.03264 0.84847 0.50562 0.0
C1416 C 0.84438 0.6369 0.49601 0.0
C1417 C 0.85707 0.67204 0.50254 0.0
C1418 C 0.91692 0.65212 0.50454 0.0
C1419 C 0.9046 0.61874 0.49153 0.0
N1420 N 0.85728 0.57745 0.47764 0.0
N1421 N 0.90543 0.71348 0.51387 0.0
C1422 C 0.86839 0.61034 0.48902 0.0
C1423 C 0.89336 0.67966 0.50788 0.0
N1424 N 0.80934 0.62915 0.49625 0.0
N1425 N 0.95153 0.65733 0.51269 0.0
H1426 H 0.889 0.73427 0.51649 0.0
H1427 H 0.93171 0.7214 0.5143 0.0
H1428 H 0.96883 0.63721 0.51002 0.0
H1429 H 0.96244 0.68011 0.52477 0.0
H1430 H 0.7982 0.60388 0.49488 0.0
H1431 H 0.79129 0.64825 0.50017 0.0
H1432 H 0.83158 0.57018 0.47083 0.0
H1433 H 0.87447 0.55736 0.47412 0.0
C1434 C 0.3112 0.85003 0.49521 0.0
C1435 C 0.32694 0.81815 0.48632 0.0
C1436 C 0.38227 0.8507 0.47602 0.0
C1437 C 0.36839 0.88083 0.4913 0.0
N1438 N 0.31957 0.91195 0.51157 0.0
N1439 N 0.37846 0.78775 0.46988 0.0
C1440 C 0.33245 0.8815 0.49878 0.0
C1441 C 0.36264 0.81841 0.47645 0.0
N1442 N 0.27619 0.84987 0.50104 0.0
N1443 N 0.41494 0.85316 0.46237 0.0
H1444 H 0.36533 0.76347 0.47033 0.0
H1445 H 0.40516 0.78611 0.46639 0.0
H1446 H 0.42933 0.87697 0.46247 0.0
H1447 H 0.42611 0.83293 0.44822 0.0
H1448 H 0.26233 0.87228 0.50505 0.0
H1449 H 0.26048 0.82693 0.50032 0.0
H1450 H 0.29459 0.91423 0.52132 0.0
H1451 H 0.33476 0.93529 0.51282 0.0
C1452 C 0.49197 0.64057 0.71454 0.0
C1453 C 0.49805 0.67622 0.70647 0.0
C1454 C 0.50752 0.65873 0.64481 0.0
C1455 C 0.50394 0.62319 0.65366 0.0
N1456 N 0.48133 0.58059 0.69256 0.0
N1457 N 0.50172 0.71974 0.66276 0.0
C1458 C 0.49178 0.61444 0.6871 0.0
C1459 C 0.50235 0.68546 0.67106 0.0
N1460 N 0.4885 0.63146 0.74859 0.0
N1461 N 0.51815 0.66676 0.61197 0.0
H1462 H 0.49815 0.73963 0.68159 0.0
H1463 H 0.50185 0.72816 0.63717 0.0
H1464 H 0.5204 0.64767 0.59204 0.0
H1465 H 0.52562 0.6919 0.60476 0.0
H1466 H 0.48792 0.60578 0.75652 0.0
H1467 H 0.48855 0.64975 0.76938 0.0
H1468 H 0.46959 0.57241 0.71547 0.0
H1469 H 0.48153 0.56138 0.67245 0.0
C1470 C 0.51599 0.89838 0.68218 0.0
C1471 C 0.51518 0.86143 0.67833 0.0
C1472 C 0.50461 0.86469 0.61503 0.0
C1473 C 0.50122 0.90109 0.61983 0.0
N1474 N 0.51455 0.95397 0.65346 0.0
N1475 N 0.5193 0.81006 0.64062 0.0
C1476 C 0.51107 0.91835 0.65202 0.0
C1477 C 0.51328 0.8448 0.64442 0.0
N1478 N 0.51979 0.91409 0.71482 0.0
N1479 N 0.49716 0.84909 0.58291 0.0
H1480 H 0.52546 0.79499 0.66178 0.0
H1481 H 0.52086 0.79673 0.6165 0.0
H1482 H 0.49245 0.86356 0.56088 0.0
H1483 H 0.49491 0.8222 0.57811 0.0
H1484 H 0.51699 0.9406 0.72009 0.0
H1485 H 0.52463 0.90018 0.73719 0.0
H1486 H 0.52359 0.96877 0.67537 0.0
H1487 H 0.51103 0.96848 0.63118 0.0
C1488 C 0.50176 0.39938 0.84647 0.0
C1489 C 0.50502 0.36317 0.8511 0.0
C1490 C 0.50581 0.37268 0.91489 0.0
C1491 C 0.50668 0.40912 0.90999 0.0
N1492 N 0.49373 0.45666 0.87403 0.0
N1493 N 0.49864 0.31414 0.88857 0.0
C1494 C 0.50018 0.42214 0.87654 0.0
C1495 C 0.50303 0.34938 0.88504 0.0
N1496 N 0.50173 0.412 0.81346 0.0
N1497 N 0.51007 0.36062 0.94779 0.0
H1498 H 0.49671 0.29651 0.86712 0.0
H1499 H 0.494 0.30253 0.91237 0.0
H1500 H 0.50983 0.37699 0.97018 0.0
H1501 H 0.51451 0.33475 0.95295 0.0
H1502 H 0.50309 0.43846 0.80827 0.0
H1503 H 0.50169 0.39578 0.79093 0.0
H1504 H 0.48674 0.46808 0.85084 0.0
H1505 H 0.49257 0.47321 0.8963 0.0
C1506 C 0.53179 0.1981 0.86258 0.0
C1507 C 0.53468 0.18345 0.82811 0.0
C1508 C 0.53953 0.12545 0.85217 0.0
C1509 C 0.52893 0.139 0.88502 0.0
N1510 N 0.51757 0.18784 0.92342 0.0
N1511 N 0.54278 0.13318 0.78962 0.0
C1512 C 0.52665 0.17543 0.89099 0.0
C1513 C 0.53966 0.14714 0.82281 0.0
N1514 N 0.53386 0.23353 0.86796 0.0
N1515 N 0.54829 0.09138 0.84923 0.0
H1516 H 0.54363 0.14829 0.76755 0.0
H1517 H 0.54254 0.10649 0.78363 0.0
H1518 H 0.54798 0.07538 0.87078 0.0
H1519 H 0.55877 0.08005 0.82678 0.0
H1520 H 0.53497 0.24585 0.89272 0.0
H1521 H 0.5373 0.25062 0.84752 0.0
H1522 H 0.5113 0.21355 0.92894 0.0
H1523 H 0.51535 0.17159 0.94471 0.0
C1524 C 0.6586 0.49408 0.7123 0.0
C1525 C 0.68906 0.48552 0.69375 0.0
C1526 C 0.65418 0.47654 0.63965 0.0
C1527 C 0.62635 0.49245 0.65648 0.0
N1528 N 0.5985 0.51168 0.70889 0.0
N1529 N 0.71628 0.46906 0.63911 0.0
C1530 C 0.62719 0.49879 0.69317 0.0
C1531 C 0.68686 0.476 0.65733 0.0
N1532 N 0.66021 0.49868 0.74793 0.0
N1533 N 0.64938 0.46356 0.60609 0.0
H1534 H 0.74083 0.46878 0.65083 0.0
H1535 H 0.71682 0.46581 0.61194 0.0
H1536 H 0.62533 0.46449 0.59316 0.0
H1537 H 0.66766 0.44919 0.59265 0.0
H1538 H 0.63867 0.50272 0.76354 0.0
H1539 H 0.68328 0.49657 0.76221 0.0
H1540 H 0.59773 0.52051 0.73494 0.0
H1541 H 0.57519 0.51395 0.69497 0.0
C1542 C 0.35576 0.02061 0.67794 0.0
C1543 C 0.32263 0.02945 0.66524 0.0
C1544 C 0.34648 0.03294 0.60599 0.0
C1545 C 0.3764 0.01657 0.61741 0.0
N1546 N 0.41025 0.99411 0.6642 0.0
N1547 N 0.28564 0.04238 0.61604 0.0
C1548 C 0.38176 0.01117 0.6536 0.0
C1549 C 0.31789 0.03596 0.62902 0.0
N1550 N 0.36188 0.02023 0.71322 0.0
N1551 N 0.34508 0.04409 0.5725 0.0
H1552 H 0.26382 0.04445 0.63166 0.0
H1553 H 0.27995 0.04326 0.58937 0.0
H1554 H 0.36597 0.04145 0.55548 0.0
H1555 H 0.32513 0.05875 0.563 0.0
H1556 H 0.38639 0.01696 0.72422 0.0
H1557 H 0.34288 0.02615 0.73152 0.0
H1558 H 0.41366 0.98544 0.68947 0.0
H1559 H 0.42967 0.98688 0.64692 0.0
C1560 C 0.66282 0.49398 0.86644 0.0
C1561 C 0.69759 0.50427 0.87659 0.0
C1562 C 0.6775 0.52144 0.93547 0.0
C1563 C 0.64293 0.51046 0.92539 0.0
N1564 N 0.60129 0.4953 0.8791 0.0
N1565 N 0.73778 0.53262 0.91882 0.0
C1566 C 0.63519 0.49999 0.89004 0.0
C1567 C 0.70478 0.51985 0.91046 0.0
N1568 N 0.65629 0.47711 0.8347 0.0
N1569 N 0.68424 0.53177 0.96962 0.0
H1570 H 0.75887 0.52959 0.9022 0.0
H1571 H 0.74417 0.54755 0.94148 0.0
H1572 H 0.66431 0.53512 0.98763 0.0
H1573 H 0.70914 0.53602 0.9804 0.0
H1574 H 0.63226 0.46522 0.82736 0.0
H1575 H 0.67561 0.47233 0.81651 0.0
H1576 H 0.59359 0.49126 0.85298 0.0
H1577 H 0.58058 0.49892 0.89581 0.0
C1578 C 0.37944 0.03866 0.83211 0.0
C1579 C 0.34616 0.03143 0.84679 0.0
C1580 C 0.37362 0.00557 0.89734 0.0
C1581 C 0.4069 0.01357 0.88324 0.0
N1582 N 0.44241 0.04197 0.8401 0.0
N1583 N 0.31179 0.01599 0.89659 0.0
C1584 C 0.41009 0.03159 0.85153 0.0
C1585 C 0.3434 0.01737 0.8805 0.0
N1586 N 0.38168 0.05085 0.79901 0.0
N1587 N 0.37087 0.98613 0.92658 0.0
H1588 H 0.28935 0.02505 0.885 0.0
H1589 H 0.30836 0.00916 0.92249 0.0
H1590 H 0.39245 0.9774 0.93994 0.0
H1591 H 0.34724 0.97628 0.93607 0.0
H1592 H 0.40471 0.05252 0.78496 0.0
H1593 H 0.36001 0.05796 0.78477 0.0
H1594 H 0.44653 0.05883 0.81966 0.0
H1595 H 0.46541 0.03522 0.85238 0.0
C1596 C 0.63636 0.67249 0.50334 0.0
C1597 C 0.67274 0.67378 0.51135 0.0
C1598 C 0.66609 0.61745 0.53926 0.0
C1599 C 0.62988 0.61657 0.53148 0.0
N1600 N 0.58237 0.63691 0.49798 0.0
N1601 N 0.72341 0.64439 0.52982 0.0
C1602 C 0.61581 0.64187 0.51034 0.0
C1603 C 0.688 0.64494 0.52665 0.0
N1604 N 0.6209 0.70129 0.49164 0.0
N1605 N 0.67903 0.59305 0.56045 0.0
H1606 H 0.73991 0.66496 0.5221 0.0
H1607 H 0.73644 0.62274 0.53765 0.0
H1608 H 0.66378 0.57181 0.56888 0.0
H1609 H 0.70424 0.59457 0.57085 0.0
H1610 H 0.59401 0.70304 0.48929 0.0
H1611 H 0.63463 0.72456 0.48677 0.0
H1612 H 0.57127 0.65296 0.47994 0.0
H1613 H 0.56706 0.61454 0.50323 0.0
C1614 C 0.67418 0.37325 0.02043 0.0
C1615 C 0.66183 0.33799 0.02329 0.0
C1616 C 0.60646 0.35787 0.04622 0.0
C1617 C 0.61803 0.39269 0.04035 0.0
N1618 N 0.6665 0.43399 0.03723 0.0
N1619 N 0.61909 0.29636 0.04526 0.0
C1620 C 0.65332 0.40046 0.03292 0.0
C1621 C 0.62896 0.33017 0.0387 0.0
N1622 N 0.70515 0.3808 0.00455 0.0
N1623 N 0.57289 0.35167 0.05653 0.0
H1624 H 0.63383 0.27525 0.03777 0.0
H1625 H 0.59702 0.28914 0.05927 0.0
H1626 H 0.55699 0.37218 0.06325 0.0
H1627 H 0.56068 0.32697 0.05775 0.0
H1628 H 0.71377 0.406 0.99861 0.0
H1629 H 0.72091 0.36159 0.99447 0.0
H1630 H 0.69277 0.44124 0.03459 0.0
H1631 H 0.65158 0.45374 0.04762 0.0
C1632 C 0.35925 0.15852 0.00729 0.0
C1633 C 0.37725 0.19153 0.01268 0.0
C1634 C 0.43251 0.16197 0.01767 0.0
C1635 C 0.41429 0.12935 0.01081 0.0
N1636 N 0.36058 0.09558 0.01219 0.0
N1637 N 0.42977 0.22428 0.03123 0.0
C1638 C 0.37758 0.12752 0.0109 0.0
C1639 C 0.41351 0.19309 0.02094 0.0
N1640 N 0.32527 0.15671 0.99631 0.0
N1641 N 0.46808 0.16335 0.01836 0.0
H1642 H 0.41689 0.24763 0.03242 0.0
H1643 H 0.45532 0.22667 0.04071 0.0
H1644 H 0.48226 0.1408 0.01761 0.0
H1645 H 0.48337 0.18649 0.01855 0.0
H1646 H 0.31173 0.13339 0.98889 0.0
H1647 H 0.31173 0.17885 0.99111 0.0
H1648 H 0.33368 0.0922 0.01476 0.0
H1649 H 0.37429 0.07282 0.01415 0.0
C1650 C 0.87808 0.34436 0.98659 0.0
C1651 C 0.84211 0.34391 0.99534 0.0
C1652 C 0.84631 0.40769 0.0037 0.0
C1653 C 0.88289 0.40707 1.00184 0.0
N1654 N 0.93444 0.3758 0.98994 0.0
N1655 N 0.79208 0.37503 0.01385 0.0
C1656 C 0.89893 0.37577 0.99197 0.0
C1657 C 0.82611 0.37566 0.00392 0.0
N1658 N 0.89238 0.3148 0.9734 0.0
N1659 N 0.83119 0.43914 0.00514 0.0
H1660 H 0.77671 0.35194 0.0146 0.0
H1661 H 0.77999 0.39692 0.02388 0.0
H1662 H 0.84611 0.46246 0.00332 0.0
H1663 H 0.80436 0.44186 0.00413 0.0
H1664 H 0.91726 0.31435 0.96295 0.0
H1665 H 0.8785 0.291 0.9703 0.0
H1666 H 0.94845 0.35327 0.98789 0.0
H1667 H 0.95017 0.39874 0.99167 0.0
loop_
_geom_bond_atom_site_label_1
_geom_bond_atom_site_label_2
_geom_bond_distance
_geom_bond_site_symmetry_2
_ccdc_geom_bond_type
C0 C1 1.443 . S
C0 N4 1.376 . S
C0 C38 1.389 . S
C1 C0 1.443 . S
C1 C2 1.340 . S
C1 H41 0.951 . S
C2 C1 1.340 . S
C2 C3 1.439 . S
C2 H42 0.950 . S
C3 C2 1.439 . S
C3 N4 1.374 . S
C3 C37 1.395 . S
N4 C0 1.376 . S
N4 C3 1.374 . S
N4 Co5 2.008 1_655 S
Co5 N4 2.008 1_455 S
Co5 N6 1.995 1_455 S
Co5 N11 2.008 . S
Co5 N16 1.995 . S
Co5 N21 2.282 . S
Co5 N27 2.282 . S
N6 Co5 1.995 1_655 S
N6 C7 1.376 . S
N6 C10 1.383 1_655 S
C7 N6 1.376 . S
C7 C8 1.446 . S
C7 C37 1.391 . S
C8 C7 1.446 . S
C8 C9 1.339 . S
C8 H43 0.949 . S
C9 C8 1.339 . S
C9 C10 1.439 1_655 S
C9 H44 0.950 . S
C10 N6 1.383 1_455 S
C10 C9 1.439 1_455 S
C10 C39 1.392 . S
N11 Co5 2.008 . S
N11 C12 1.376 . S
N11 C15 1.374 . S
C12 N11 1.376 . S
C12 C13 1.443 . S
C12 C39 1.389 . S
C13 C12 1.443 . S
C13 C14 1.340 . S
C13 H45 0.951 . S
C14 C13 1.340 . S
C14 C15 1.439 . S
C14 H46 0.950 . S
C15 N11 1.374 . S
C15 C14 1.439 . S
C15 C40 1.395 . S
N16 Co5 1.995 . S
N16 C17 1.376 . S
N16 C20 1.383 . S
C17 N16 1.376 . S
C17 C18 1.446 . S
C17 C40 1.391 . S
C18 C17 1.446 . S
C18 C19 1.339 . S
C18 H47 0.949 . S
C19 C18 1.339 . S
C19 C20 1.439 . S
C19 H48 0.950 . S
C20 N16 1.383 . S
C20 C19 1.439 . S
C20 C38 1.392 1_455 S
N21 Co5 2.282 . S
N21 C24 1.332 . S
N21 C26 1.332 1_455 S
C22 C23 1.386 . S
C22 C25 1.388 . S
C23 C22 1.386 . S
C23 C24 1.382 . S
C23 H49 0.950 . S
C24 N21 1.332 . S
C24 C23 1.382 . S
C24 H35 0.952 . S
C25 C22 1.388 . S
C25 C26 1.382 1_455 S
C25 H50 0.950 1_455 S
C26 N21 1.332 1_655 S
C26 C25 1.382 1_655 S
C26 H36 0.948 . S
N27 Co5 2.282 . S
N27 C31 1.332 1_455 S
N27 C32 1.332 . S
C28 C29 1.388 1_455 S
C28 C32 1.382 . S
C28 H51 0.950 . S
C29 C28 1.388 1_655 S
C29 C30 1.386 . S
C30 C29 1.386 . S
C30 C31 1.382 . S
C30 H52 0.950 . S
C31 N27 1.332 1_655 S
C31 C30 1.382 . S
C31 H33 0.952 . S
C32 N27 1.332 . S
C32 C28 1.382 . S
C32 H34 0.948 . S
H33 C31 0.952 . S
H34 C32 0.948 . S
H35 C24 0.952 . S
H36 C26 0.948 . S
C37 C3 1.395 . S
C37 C7 1.391 . S
C38 C0 1.389 . S
C38 C20 1.392 1_655 S
C39 C10 1.392 . S
C39 C12 1.389 . S
C40 C15 1.395 . S
C40 C17 1.391 . S
H41 C1 0.951 . S
H42 C2 0.950 . S
H43 C8 0.949 . S
H44 C9 0.950 . S
H45 C13 0.951 . S
H46 C14 0.950 . S
H47 C18 0.949 . S
H48 C19 0.950 . S
H49 C23 0.950 . S
H50 C25 0.950 1_655 S
H51 C28 0.950 . S
H52 C30 0.950 . S
C53 C54 1.443 . S
C53 N57 1.376 . S
C53 C91 1.389 . S
C54 C53 1.443 . S
C54 C55 1.340 . S
C54 H94 0.951 . S
C55 C54 1.340 . S
C55 C56 1.439 . S
C55 H95 0.950 . S
C56 C55 1.439 . S
C56 N57 1.374 . S
C56 C90 1.395 . S
N57 C53 1.376 . S
N57 C56 1.374 . S
N57 Co58 2.008 1_655 S
Co58 N57 2.008 1_455 S
Co58 N59 1.995 1_455 S
Co58 N64 2.008 . S
Co58 N69 1.995 . S
Co58 N74 2.282 . S
Co58 N80 2.282 1_455 S
N59 Co58 1.995 1_655 S
N59 C60 1.376 . S
N59 C63 1.383 . S
C60 N59 1.376 . S
C60 C61 1.446 . S
C60 C90 1.391 . S
C61 C60 1.446 . S
C61 C62 1.339 . S
C61 H96 0.949 . S
C62 C61 1.339 . S
C62 C63 1.439 . S
C62 H97 0.950 . S
C63 N59 1.383 . S
C63 C62 1.439 . S
C63 C92 1.392 1_655 S
N64 Co58 2.008 . S
N64 C65 1.376 . S
N64 C68 1.374 . S
C65 N64 1.376 . S
C65 C66 1.443 . S
C65 C92 1.389 . S
C66 C65 1.443 . S
C66 C67 1.340 . S
C66 H98 0.951 . S
C67 C66 1.340 . S
C67 C68 1.439 . S
C67 H99 0.950 . S
C68 N64 1.374 . S
C68 C67 1.439 . S
C68 C93 1.395 . S
N69 Co58 1.995 . S
N69 C70 1.376 . S
N69 C73 1.383 . S
C70 N69 1.376 . S
C70 C71 1.446 . S
C70 C93 1.391 . S
C71 C70 1.446 . S
C71 C72 1.339 . S
C71 H100 0.949 . S
C72 C71 1.339 . S
C72 C73 1.439 . S
C72 H101 0.950 . S
C73 N69 1.383 . S
C73 C72 1.439 . S
C73 C91 1.392 1_455 S
N74 Co58 2.282 . S
N74 C77 1.332 . S
N74 C79 1.332 1_455 S
C75 C76 1.386 . S
C75 C78 1.386 1_455 S
C76 C75 1.386 . S
C76 C77 1.382 . S
C76 H102 0.950 . S
C77 N74 1.332 . S
C77 C76 1.382 . S
C77 H88 0.952 . S
C78 C75 1.386 1_655 S
C78 C79 1.383 . S
C78 H103 0.952 . S
C79 N74 1.332 1_655 S
C79 C78 1.383 . S
C79 H89 0.948 . S
N80 Co58 2.282 1_655 S
N80 C84 1.332 . S
N80 C85 1.332 1_655 S
C81 C82 1.388 1_455 S
C81 C85 1.382 . S
C81 H104 0.950 . S
C82 C81 1.388 1_655 S
C82 C83 1.386 . S
C83 C82 1.386 . S
C83 C84 1.382 . S
C83 H105 0.950 . S
C84 N80 1.332 . S
C84 C83 1.382 . S
C84 H86 0.952 . S
C85 N80 1.332 1_455 S
C85 C81 1.382 . S
C85 H87 0.948 . S
H86 C84 0.952 . S
H87 C85 0.948 . S
H88 C77 0.952 . S
H89 C79 0.948 . S
C90 C56 1.395 . S
C90 C60 1.391 . S
C91 C53 1.389 . S
C91 C73 1.392 1_655 S
C92 C63 1.392 1_455 S
C92 C65 1.389 . S
C93 C68 1.395 . S
C93 C70 1.391 . S
H94 C54 0.951 . S
H95 C55 0.950 . S
H96 C61 0.949 . S
H97 C62 0.950 . S
H98 C66 0.951 . S
H99 C67 0.950 . S
H100 C71 0.949 . S
H101 C72 0.950 . S
H102 C76 0.950 . S
H103 C78 0.952 . S
H104 C81 0.950 . S
H105 C83 0.950 . S
C106 C107 1.443 . S
C106 N110 1.376 . S
C106 C144 1.389 . S
C107 C106 1.443 . S
C107 C108 1.340 . S
C107 H147 0.951 . S
C108 C107 1.340 . S
C108 C109 1.439 . S
C108 H148 0.950 . S
C109 C108 1.439 . S
C109 N110 1.374 . S
C109 C143 1.395 . S
N110 C106 1.376 . S
N110 C109 1.374 . S
N110 Co111 2.008 1_565 S
Co111 N110 2.008 1_545 S
Co111 N112 1.995 1_545 S
Co111 N117 2.008 . S
Co111 N122 1.995 . S
Co111 N127 2.282 . S
Co111 N133 2.282 . S
N112 Co111 1.995 1_565 S
N112 C113 1.376 . S
N112 C116 1.383 . S
C113 N112 1.376 . S
C113 C114 1.446 . S
C113 C143 1.391 . S
C114 C113 1.446 . S
C114 C115 1.339 . S
C114 H149 0.949 . S
C115 C114 1.339 . S
C115 C116 1.439 . S
C115 H150 0.950 . S
C116 N112 1.383 . S
C116 C115 1.439 . S
C116 C145 1.392 1_565 S
N117 Co111 2.008 . S
N117 C118 1.376 . S
N117 C121 1.374 . S
C118 N117 1.376 . S
C118 C119 1.443 . S
C118 C145 1.389 . S
C119 C118 1.443 . S
C119 C120 1.340 . S
C119 H151 0.951 . S
C120 C119 1.340 . S
C120 C121 1.439 . S
C120 H152 0.950 . S
C121 N117 1.374 . S
C121 C120 1.439 . S
C121 C146 1.395 . S
N122 Co111 1.995 . S
N122 C123 1.376 . S
N122 C126 1.383 . S
C123 N122 1.376 . S
C123 C124 1.446 . S
C123 C146 1.391 . S
C124 C123 1.446 . S
C124 C125 1.339 . S
C124 H153 0.949 . S
C125 C124 1.339 . S
C125 C126 1.439 . S
C125 H154 0.950 . S
C126 N122 1.383 . S
C126 C125 1.439 . S
C126 C144 1.392 1_545 S
N127 Co111 2.282 . S
N127 C130 1.332 . S
N127 C132 1.332 1_545 S
C128 C129 1.386 . S
C128 C131 1.388 . S
C129 C128 1.386 . S
C129 C130 1.382 . S
C129 H155 0.950 . S
C130 N127 1.332 . S
C130 C129 1.382 . S
C130 H141 0.952 . S
C131 C128 1.388 . S
C131 C132 1.382 1_545 S
C131 H156 0.950 1_545 S
C132 N127 1.332 1_565 S
C132 C131 1.382 1_565 S
C132 H142 0.948 . S
N133 Co111 2.282 . S
N133 C137 1.332 1_545 S
N133 C138 1.332 . S
C134 C135 1.388 1_545 S
C134 C138 1.382 . S
C134 H157 0.950 . S
C135 C134 1.388 1_565 S
C135 C136 1.386 . S
C136 C135 1.386 . S
C136 C137 1.382 . S
C136 H158 0.950 . S
C137 N133 1.332 1_565 S
C137 C136 1.382 . S
C137 H139 0.952 . S
C138 N133 1.332 . S
C138 C134 1.382 . S
C138 H140 0.948 . S
H139 C137 0.952 . S
H140 C138 0.948 . S
H141 C130 0.952 . S
H142 C132 0.948 . S
C143 C109 1.395 . S
C143 C113 1.391 . S
C144 C106 1.389 . S
C144 C126 1.392 1_565 S
C145 C116 1.392 1_545 S
C145 C118 1.389 . S
C146 C121 1.395 . S
C146 C123 1.391 . S
H147 C107 0.951 . S
H148 C108 0.950 . S
H149 C114 0.949 . S
H150 C115 0.950 . S
H151 C119 0.951 . S
H152 C120 0.950 . S
H153 C124 0.949 . S
H154 C125 0.950 . S
H155 C129 0.950 . S
H156 C131 0.950 1_565 S
H157 C134 0.950 . S
H158 C136 0.950 . S
C159 C160 1.443 . S
C159 N163 1.376 . S
C159 C197 1.389 . S
C160 C159 1.443 . S
C160 C161 1.340 . S
C160 H200 0.951 . S
C161 C160 1.340 . S
C161 C162 1.439 . S
C161 H201 0.950 . S
C162 C161 1.439 . S
C162 N163 1.374 . S
C162 C196 1.395 . S
N163 C159 1.376 . S
N163 C162 1.374 . S
N163 Co164 2.008 . S
Co164 N163 2.008 . S
Co164 N165 1.995 . S
Co164 N170 2.008 . S
Co164 N175 1.995 . S
Co164 N180 2.282 . S
Co164 N186 2.282 . S
N165 Co164 1.995 . S
N165 C166 1.376 . S
N165 C169 1.383 . S
C166 N165 1.376 . S
C166 C167 1.446 . S
C166 C196 1.391 . S
C167 C166 1.446 . S
C167 C168 1.339 . S
C167 H202 0.949 . S
C168 C167 1.339 . S
C168 C169 1.439 . S
C168 H203 0.950 . S
C169 N165 1.383 . S
C169 C168 1.439 . S
C169 C198 1.392 . S
N170 Co164 2.008 . S
N170 C171 1.376 . S
N170 C174 1.374 . S
C171 N170 1.376 . S
C171 C172 1.443 . S
C171 C198 1.389 . S
C172 C171 1.443 . S
C172 C173 1.340 . S
C172 H204 0.951 . S
C173 C172 1.340 . S
C173 C174 1.439 . S
C173 H205 0.950 . S
C174 N170 1.374 . S
C174 C173 1.439 . S
C174 C199 1.395 . S
N175 Co164 1.995 . S
N175 C176 1.376 . S
N175 C179 1.383 . S
C176 N175 1.376 . S
C176 C177 1.446 . S
C176 C199 1.391 . S
C177 C176 1.446 . S
C177 C178 1.339 . S
C177 H206 0.949 . S
C178 C177 1.339 . S
C178 C179 1.439 . S
C178 H207 0.950 . S
C179 N175 1.383 . S
C179 C178 1.439 . S
C179 C197 1.392 . S
N180 Co164 2.282 . S
N180 C183 1.332 . S
N180 C185 1.332 . S
C181 C182 1.386 . S
C181 C184 1.388 . S
C182 C181 1.386 . S
C182 C183 1.382 . S
C182 H208 0.950 . S
C183 N180 1.332 . S
C183 C182 1.382 . S
C183 H194 0.952 . S
C184 C181 1.388 . S
C184 C185 1.382 . S
C184 H209 0.950 . S
C185 N180 1.332 . S
C185 C184 1.382 . S
C185 H195 0.948 . S
N186 Co164 2.282 . S
N186 C190 1.332 . S
N186 C191 1.332 . S
C187 C188 1.388 . S
C187 C191 1.382 . S
C187 H210 0.950 . S
C188 C187 1.388 . S
C188 C189 1.386 . S
C189 C188 1.386 . S
C189 C190 1.382 . S
C189 H211 0.950 . S
C190 N186 1.332 . S
C190 C189 1.382 . S
C190 H192 0.952 . S
C191 N186 1.332 . S
C191 C187 1.382 . S
C191 H193 0.948 . S
H192 C190 0.952 . S
H193 C191 0.948 . S
H194 C183 0.952 . S
H195 C185 0.948 . S
C196 C162 1.395 . S
C196 C166 1.391 . S
C197 C159 1.389 . S
C197 C179 1.392 . S
C198 C169 1.392 . S
C198 C171 1.389 . S
C199 C174 1.395 . S
C199 C176 1.391 . S
H200 C160 0.951 . S
H201 C161 0.950 . S
H202 C167 0.949 . S
H203 C168 0.950 . S
H204 C172 0.951 . S
H205 C173 0.950 . S
H206 C177 0.949 . S
H207 C178 0.950 . S
H208 C182 0.950 . S
H209 C184 0.950 . S
H210 C187 0.950 . S
H211 C189 0.950 . S
C212 C213 1.443 . S
C212 N216 1.376 . S
C212 C250 1.389 . S
C213 C212 1.443 . S
C213 C214 1.340 . S
C213 H253 0.951 . S
C214 C213 1.340 . S
C214 C215 1.439 . S
C214 H254 0.950 . S
C215 C214 1.439 . S
C215 N216 1.374 . S
C215 C249 1.395 . S
N216 C212 1.376 . S
N216 C215 1.374 . S
N216 Co217 2.008 1_556 S
Co217 N216 2.008 1_554 S
Co217 N218 1.995 1_554 S
Co217 N223 2.008 . S
Co217 N228 1.995 . S
Co217 N233 2.282 . S
Co217 N239 2.282 1_554 S
N218 Co217 1.995 1_556 S
N218 C219 1.376 . S
N218 C222 1.383 . S
C219 N218 1.376 . S
C219 C220 1.446 . S
C219 C249 1.391 . S
C220 C219 1.446 . S
C220 C221 1.339 . S
C220 H255 0.949 . S
C221 C220 1.339 . S
C221 C222 1.439 . S
C221 H256 0.950 . S
C222 N218 1.383 . S
C222 C221 1.439 . S
C222 C251 1.392 1_556 S
N223 Co217 2.008 . S
N223 C224 1.376 . S
N223 C227 1.374 . S
C224 N223 1.376 . S
C224 C225 1.443 . S
C224 C251 1.389 . S
C225 C224 1.443 . S
C225 C226 1.340 . S
C225 H257 0.951 . S
C226 C225 1.340 . S
C226 C227 1.439 . S
C226 H258 0.950 . S
C227 N223 1.374 . S
C227 C226 1.439 . S
C227 C252 1.395 . S
N228 Co217 1.995 . S
N228 C229 1.376 . S
N228 C232 1.383 . S
C229 N228 1.376 . S
C229 C230 1.446 . S
C229 C252 1.391 . S
C230 C229 1.446 . S
C230 C231 1.339 . S
C230 H259 0.949 . S
C231 C230 1.339 . S
C231 C232 1.439 . S
C231 H260 0.950 . S
C232 N228 1.383 . S
C232 C231 1.439 . S
C232 C250 1.392 1_554 S
N233 Co217 2.282 . S
N233 C236 1.332 . S
N233 C238 1.332 1_554 S
C234 C235 1.386 . S
C234 C237 1.388 1_554 S
C235 C234 1.386 . S
C235 C236 1.382 . S
C235 H261 0.950 . S
C236 N233 1.332 . S
C236 C235 1.382 . S
C236 H247 0.952 . S
C237 C234 1.388 1_556 S
C237 C238 1.382 . S
C237 H262 0.950 . S
C238 N233 1.332 1_556 S
C238 C237 1.382 . S
C238 H248 0.948 . S
N239 Co217 2.282 1_556 S
N239 C243 1.333 . S
N239 C244 1.331 1_556 S
C240 C241 1.388 1_554 S
C240 C244 1.382 . S
C240 H263 0.950 . S
C241 C240 1.388 1_556 S
C241 C242 1.386 . S
C242 C241 1.386 . S
C242 C243 1.382 . S
C242 H264 0.950 . S
C243 N239 1.333 . S
C243 C242 1.382 . S
C243 H245 0.952 . S
C244 N239 1.331 1_554 S
C244 C240 1.382 . S
C244 H246 0.948 . S
H245 C243 0.952 . S
H246 C244 0.948 . S
H247 C236 0.952 . S
H248 C238 0.948 . S
C249 C215 1.395 . S
C249 C219 1.391 . S
C250 C212 1.389 . S
C250 C232 1.392 1_556 S
C251 C222 1.392 1_554 S
C251 C224 1.389 . S
C252 C227 1.395 . S
C252 C229 1.391 . S
H253 C213 0.951 . S
H254 C214 0.950 . S
H255 C220 0.949 . S
H256 C221 0.950 . S
H257 C225 0.951 . S
H258 C226 0.950 . S
H259 C230 0.949 . S
H260 C231 0.950 . S
H261 C235 0.950 . S
H262 C237 0.950 . S
H263 C240 0.950 . S
H264 C242 0.950 . S
C265 C266 1.443 . S
C265 N269 1.376 . S
C265 C303 1.389 . S
C266 C265 1.443 . S
C266 C267 1.340 . S
C266 H306 0.951 . S
C267 C266 1.340 . S
C267 C268 1.439 . S
C267 H307 0.950 . S
C268 C267 1.439 . S
C268 N269 1.374 . S
C268 C302 1.395 . S
N269 C265 1.376 . S
N269 C268 1.374 . S
N269 Co270 2.008 . S
Co270 N269 2.008 . S
Co270 N271 1.995 . S
Co270 N276 2.008 . S
Co270 N281 1.995 . S
Co270 N286 2.282 . S
Co270 N292 2.282 . S
N271 Co270 1.995 . S
N271 C272 1.376 . S
N271 C275 1.383 . S
C272 N271 1.376 . S
C272 C273 1.446 . S
C272 C302 1.391 . S
C273 C272 1.446 . S
C273 C274 1.339 . S
C273 H308 0.949 . S
C274 C273 1.339 . S
C274 C275 1.439 . S
C274 H309 0.950 . S
C275 N271 1.383 . S
C275 C274 1.439 . S
C275 C304 1.392 . S
N276 Co270 2.008 . S
N276 C277 1.376 . S
N276 C280 1.374 . S
C277 N276 1.376 . S
C277 C278 1.443 . S
C277 C304 1.389 . S
C278 C277 1.443 . S
C278 C279 1.340 . S
C278 H310 0.951 . S
C279 C278 1.340 . S
C279 C280 1.439 . S
C279 H311 0.950 . S
C280 N276 1.374 . S
C280 C279 1.439 . S
C280 C305 1.395 . S
N281 Co270 1.995 . S
N281 C282 1.376 . S
N281 C285 1.383 . S
C282 N281 1.376 . S
C282 C283 1.446 . S
C282 C305 1.391 . S
C283 C282 1.446 . S
C283 C284 1.339 . S
C283 H312 0.949 . S
C284 C283 1.339 . S
C284 C285 1.439 . S
C284 H313 0.950 . S
C285 N281 1.383 . S
C285 C284 1.439 . S
C285 C303 1.392 . S
N286 Co270 2.282 . S
N286 C289 1.332 . S
N286 C291 1.332 . S
C287 C288 1.386 . S
C287 C290 1.388 . S
C288 C287 1.386 . S
C288 C289 1.382 . S
C288 H314 0.950 . S
C289 N286 1.332 . S
C289 C288 1.382 . S
C289 H300 0.952 . S
C290 C287 1.388 . S
C290 C291 1.382 . S
C290 H315 0.950 . S
C291 N286 1.332 . S
C291 C290 1.382 . S
C291 H301 0.948 . S
N292 Co270 2.282 . S
N292 C296 1.332 . S
N292 C297 1.332 . S
C293 C294 1.388 . S
C293 C297 1.382 . S
C293 H316 0.950 . S
C294 C293 1.388 . S
C294 C295 1.386 . S
C295 C294 1.386 . S
C295 C296 1.382 . S
C295 H317 0.950 . S
C296 N292 1.332 . S
C296 C295 1.382 . S
C296 H298 0.952 . S
C297 N292 1.332 . S
C297 C293 1.382 . S
C297 H299 0.948 . S
H298 C296 0.952 . S
H299 C297 0.948 . S
H300 C289 0.952 . S
H301 C291 0.948 . S
C302 C268 1.395 . S
C302 C272 1.391 . S
C303 C265 1.389 . S
C303 C285 1.392 . S
C304 C275 1.392 . S
C304 C277 1.389 . S
C305 C280 1.395 . S
C305 C282 1.391 . S
H306 C266 0.951 . S
H307 C267 0.950 . S
H308 C273 0.949 . S
H309 C274 0.950 . S
H310 C278 0.951 . S
H311 C279 0.950 . S
H312 C283 0.949 . S
H313 C284 0.950 . S
H314 C288 0.950 . S
H315 C290 0.950 . S
H316 C293 0.950 . S
H317 C295 0.950 . S
C318 C319 1.443 . S
C318 N322 1.376 . S
C318 C356 1.389 . S
C319 C318 1.443 . S
C319 C320 1.340 . S
C319 H359 0.951 . S
C320 C319 1.340 . S
C320 C321 1.439 . S
C320 H360 0.950 . S
C321 C320 1.439 . S
C321 N322 1.374 . S
C321 C355 1.395 . S
N322 C318 1.376 . S
N322 C321 1.374 . S
N322 Co323 2.008 . S
Co323 N322 2.008 . S
Co323 N324 1.995 . S
Co323 N329 2.008 . S
Co323 N334 1.995 . S
Co323 N339 2.282 . S
Co323 N345 2.282 . S
N324 Co323 1.995 . S
N324 C325 1.376 . S
N324 C328 1.383 . S
C325 N324 1.376 . S
C325 C326 1.446 . S
C325 C355 1.391 . S
C326 C325 1.446 . S
C326 C327 1.339 . S
C326 H361 0.949 . S
C327 C326 1.339 . S
C327 C328 1.439 . S
C327 H362 0.950 . S
C328 N324 1.383 . S
C328 C327 1.439 . S
C328 C357 1.392 . S
N329 Co323 2.008 . S
N329 C330 1.376 . S
N329 C333 1.374 . S
C330 N329 1.376 . S
C330 C331 1.443 . S
C330 C357 1.389 . S
C331 C330 1.443 . S
C331 C332 1.340 . S
C331 H363 0.951 . S
C332 C331 1.340 . S
C332 C333 1.439 . S
C332 H364 0.950 . S
C333 N329 1.374 . S
C333 C332 1.439 . S
C333 C358 1.395 . S
N334 Co323 1.995 . S
N334 C335 1.376 . S
N334 C338 1.383 . S
C335 N334 1.376 . S
C335 C336 1.446 . S
C335 C358 1.391 . S
C336 C335 1.446 . S
C336 C337 1.339 . S
C336 H365 0.949 . S
C337 C336 1.339 . S
C337 C338 1.439 . S
C337 H366 0.950 . S
C338 N334 1.383 . S
C338 C337 1.439 . S
C338 C356 1.392 . S
N339 Co323 2.282 . S
N339 C342 1.332 . S
N339 C344 1.332 . S
C340 C341 1.386 . S
C340 C343 1.388 . S
C341 C340 1.386 . S
C341 C342 1.382 . S
C341 H367 0.950 . S
C342 N339 1.332 . S
C342 C341 1.382 . S
C342 H353 0.952 . S
C343 C340 1.388 . S
C343 C344 1.382 . S
C343 H368 0.950 . S
C344 N339 1.332 . S
C344 C343 1.382 . S
C344 H354 0.948 . S
N345 Co323 2.282 . S
N345 C349 1.332 . S
N345 C350 1.332 . S
C346 C347 1.388 . S
C346 C350 1.382 . S
C346 H369 0.950 . S
C347 C346 1.388 . S
C347 C348 1.386 . S
C348 C347 1.386 . S
C348 C349 1.382 . S
C348 H370 0.950 . S
C349 N345 1.332 . S
C349 C348 1.382 . S
C349 H351 0.952 . S
C350 N345 1.332 . S
C350 C346 1.382 . S
C350 H352 0.948 . S
H351 C349 0.952 . S
H352 C350 0.948 . S
H353 C342 0.952 . S
H354 C344 0.948 . S
C355 C321 1.395 . S
C355 C325 1.391 . S
C356 C318 1.389 . S
C356 C338 1.392 . S
C357 C328 1.392 . S
C357 C330 1.389 . S
C358 C333 1.395 . S
C358 C335 1.391 . S
H359 C319 0.951 . S
H360 C320 0.950 . S
H361 C326 0.949 . S
H362 C327 0.950 . S
H363 C331 0.951 . S
H364 C332 0.950 . S
H365 C336 0.949 . S
H366 C337 0.950 . S
H367 C341 0.950 . S
H368 C343 0.950 . S
H369 C346 0.950 . S
H370 C348 0.950 . S
C371 C372 1.443 . S
C371 N375 1.376 . S
C371 C409 1.389 . S
C372 C371 1.443 . S
C372 C373 1.340 . S
C372 H412 0.951 . S
C373 C372 1.340 . S
C373 C374 1.439 . S
C373 H413 0.950 . S
C374 C373 1.439 . S
C374 N375 1.374 . S
C374 C408 1.395 . S
N375 C371 1.376 . S
N375 C374 1.374 . S
N375 Co376 2.008 . S
Co376 N375 2.008 . S
Co376 N377 1.995 . S
Co376 N382 2.008 . S
Co376 N387 1.995 . S
Co376 N392 2.282 . S
Co376 N398 2.282 . S
N377 Co376 1.995 . S
N377 C378 1.376 . S
N377 C381 1.383 . S
C378 N377 1.376 . S
C378 C379 1.446 . S
C378 C408 1.391 . S
C379 C378 1.446 . S
C379 C380 1.339 . S
C379 H414 0.949 . S
C380 C379 1.339 . S
C380 C381 1.439 . S
C380 H415 0.950 . S
C381 N377 1.383 . S
C381 C380 1.439 . S
C381 C410 1.392 . S
N382 Co376 2.008 . S
N382 C383 1.376 . S
N382 C386 1.374 . S
C383 N382 1.376 . S
C383 C384 1.443 . S
C383 C410 1.389 . S
C384 C383 1.443 . S
C384 C385 1.340 . S
C384 H416 0.951 . S
C385 C384 1.340 . S
C385 C386 1.439 . S
C385 H417 0.950 . S
C386 N382 1.374 . S
C386 C385 1.439 . S
C386 C411 1.395 . S
N387 Co376 1.995 . S
N387 C388 1.376 . S
N387 C391 1.383 . S
C388 N387 1.376 . S
C388 C389 1.446 . S
C388 C411 1.391 . S
C389 C388 1.446 . S
C389 C390 1.339 . S
C389 H418 0.949 . S
C390 C389 1.339 . S
C390 C391 1.439 . S
C390 H419 0.950 . S
C391 N387 1.383 . S
C391 C390 1.439 . S
C391 C409 1.392 . S
N392 Co376 2.282 . S
N392 C395 1.332 . S
N392 C397 1.332 . S
C393 C394 1.386 . S
C393 C396 1.388 . S
C394 C393 1.386 . S
C394 C395 1.382 . S
C394 H420 0.950 . S
C395 N392 1.332 . S
C395 C394 1.382 . S
C395 H406 0.952 . S
C396 C393 1.388 . S
C396 C397 1.382 . S
C396 H421 0.950 . S
C397 N392 1.332 . S
C397 C396 1.382 . S
C397 H407 0.948 . S
N398 Co376 2.282 . S
N398 C402 1.332 . S
N398 C403 1.332 . S
C399 C400 1.388 . S
C399 C403 1.382 . S
C399 H422 0.950 . S
C400 C399 1.388 . S
C400 C401 1.386 . S
C401 C400 1.386 . S
C401 C402 1.382 . S
C401 H423 0.950 . S
C402 N398 1.332 . S
C402 C401 1.382 . S
C402 H404 0.952 . S
C403 N398 1.332 . S
C403 C399 1.382 . S
C403 H405 0.948 . S
H404 C402 0.952 . S
H405 C403 0.948 . S
H406 C395 0.952 . S
H407 C397 0.948 . S
C408 C374 1.395 . S
C408 C378 1.391 . S
C409 C371 1.389 . S
C409 C391 1.392 . S
C410 C381 1.392 . S
C410 C383 1.389 . S
C411 C386 1.395 . S
C411 C388 1.391 . S
H412 C372 0.951 . S
H413 C373 0.950 . S
H414 C379 0.949 . S
H415 C380 0.950 . S
H416 C384 0.951 . S
H417 C385 0.950 . S
H418 C389 0.949 . S
H419 C390 0.950 . S
H420 C394 0.950 . S
H421 C396 0.950 . S
H422 C399 0.950 . S
H423 C401 0.950 . S
C424 C425 1.443 . S
C424 N428 1.376 . S
C424 C462 1.389 . S
C425 C424 1.443 . S
C425 C426 1.340 . S
C425 H465 0.951 . S
C426 C425 1.340 . S
C426 C427 1.439 . S
C426 H466 0.950 . S
C427 C426 1.439 . S
C427 N428 1.374 . S
C427 C461 1.395 . S
N428 C424 1.376 . S
N428 C427 1.374 . S
N428 Co429 2.008 . S
Co429 N428 2.008 . S
Co429 N430 1.995 . S
Co429 N435 2.008 . S
Co429 N440 1.995 . S
Co429 N445 2.282 . S
Co429 N451 2.282 . S
N430 Co429 1.995 . S
N430 C431 1.376 . S
N430 C434 1.383 . S
C431 N430 1.376 . S
C431 C432 1.446 . S
C431 C461 1.391 . S
C432 C431 1.446 . S
C432 C433 1.339 . S
C432 H467 0.949 . S
C433 C432 1.339 . S
C433 C434 1.439 . S
C433 H468 0.950 . S
C434 N430 1.383 . S
C434 C433 1.439 . S
C434 C463 1.392 . S
N435 Co429 2.008 . S
N435 C436 1.376 . S
N435 C439 1.374 . S
C436 N435 1.376 . S
C436 C437 1.443 . S
C436 C463 1.389 . S
C437 C436 1.443 . S
C437 C438 1.340 . S
C437 H469 0.951 . S
C438 C437 1.340 . S
C438 C439 1.439 . S
C438 H470 0.950 . S
C439 N435 1.374 . S
C439 C438 1.439 . S
C439 C464 1.395 . S
N440 Co429 1.995 . S
N440 C441 1.376 . S
N440 C444 1.383 . S
C441 N440 1.376 . S
C441 C442 1.446 . S
C441 C464 1.391 . S
C442 C441 1.446 . S
C442 C443 1.339 . S
C442 H471 0.949 . S
C443 C442 1.339 . S
C443 C444 1.439 . S
C443 H472 0.950 . S
C444 N440 1.383 . S
C444 C443 1.439 . S
C444 C462 1.392 . S
N445 Co429 2.282 . S
N445 C448 1.332 . S
N445 C450 1.332 . S
C446 C447 1.386 . S
C446 C449 1.388 . S
C447 C446 1.386 . S
C447 C448 1.382 . S
C447 H473 0.950 . S
C448 N445 1.332 . S
C448 C447 1.382 . S
C448 H459 0.952 . S
C449 C446 1.388 . S
C449 C450 1.382 . S
C449 H474 0.950 . S
C450 N445 1.332 . S
C450 C449 1.382 . S
C450 H460 0.948 . S
N451 Co429 2.282 . S
N451 C455 1.332 . S
N451 C456 1.332 . S
C452 C453 1.388 . S
C452 C456 1.382 . S
C452 H475 0.950 . S
C453 C452 1.388 . S
C453 C454 1.386 . S
C454 C453 1.386 . S
C454 C455 1.382 . S
C454 H476 0.950 . S
C455 N451 1.332 . S
C455 C454 1.382 . S
C455 H457 0.952 . S
C456 N451 1.332 . S
C456 C452 1.382 . S
C456 H458 0.948 . S
H457 C455 0.952 . S
H458 C456 0.948 . S
H459 C448 0.952 . S
H460 C450 0.948 . S
C461 C427 1.395 . S
C461 C431 1.391 . S
C462 C424 1.389 . S
C462 C444 1.392 . S
C463 C434 1.392 . S
C463 C436 1.389 . S
C464 C439 1.395 . S
C464 C441 1.391 . S
H465 C425 0.951 . S
H466 C426 0.950 . S
H467 C432 0.949 . S
H468 C433 0.950 . S
H469 C437 0.951 . S
H470 C438 0.950 . S
H471 C442 0.949 . S
H472 C443 0.950 . S
H473 C447 0.950 . S
H474 C449 0.950 . S
H475 C452 0.950 . S
H476 C454 0.950 . S
C477 C478 1.443 . S
C477 N481 1.376 . S
C477 C515 1.389 . S
C478 C477 1.443 . S
C478 C479 1.340 . S
C478 H518 0.951 . S
C479 C478 1.340 . S
C479 C480 1.439 . S
C479 H519 0.950 . S
C480 C479 1.439 . S
C480 N481 1.374 . S
C480 C514 1.395 . S
N481 C477 1.376 . S
N481 C480 1.374 . S
N481 Co482 2.008 . S
Co482 N481 2.008 . S
Co482 N483 1.995 . S
Co482 N488 2.008 . S
Co482 N493 1.995 . S
Co482 N498 2.282 . S
Co482 N504 2.282 . S
N483 Co482 1.995 . S
N483 C484 1.376 . S
N483 C487 1.383 . S
C484 N483 1.376 . S
C484 C485 1.446 . S
C484 C514 1.391 . S
C485 C484 1.446 . S
C485 C486 1.339 . S
C485 H520 0.949 . S
C486 C485 1.339 . S
C486 C487 1.439 . S
C486 H521 0.950 . S
C487 N483 1.383 . S
C487 C486 1.439 . S
C487 C516 1.392 . S
N488 Co482 2.008 . S
N488 C489 1.376 . S
N488 C492 1.374 . S
C489 N488 1.376 . S
C489 C490 1.443 . S
C489 C516 1.389 . S
C490 C489 1.443 . S
C490 C491 1.340 . S
C490 H522 0.951 . S
C491 C490 1.340 . S
C491 C492 1.439 . S
C491 H523 0.950 . S
C492 N488 1.374 . S
C492 C491 1.439 . S
C492 C517 1.395 . S
N493 Co482 1.995 . S
N493 C494 1.376 . S
N493 C497 1.383 . S
C494 N493 1.376 . S
C494 C495 1.446 . S
C494 C517 1.391 . S
C495 C494 1.446 . S
C495 C496 1.339 . S
C495 H524 0.949 . S
C496 C495 1.339 . S
C496 C497 1.439 . S
C496 H525 0.950 . S
C497 N493 1.383 . S
C497 C496 1.439 . S
C497 C515 1.392 . S
N498 Co482 2.282 . S
N498 C501 1.332 . S
N498 C503 1.332 . S
C499 C500 1.386 . S
C499 C502 1.388 . S
C500 C499 1.386 . S
C500 C501 1.382 . S
C500 H526 0.950 . S
C501 N498 1.332 . S
C501 C500 1.382 . S
C501 H512 0.952 . S
C502 C499 1.388 . S
C502 C503 1.382 . S
C502 H527 0.950 . S
C503 N498 1.332 . S
C503 C502 1.382 . S
C503 H513 0.948 . S
N504 Co482 2.282 . S
N504 C508 1.332 . S
N504 C509 1.332 . S
C505 C506 1.388 . S
C505 C509 1.382 . S
C505 H528 0.950 . S
C506 C505 1.388 . S
C506 C507 1.386 . S
C507 C506 1.386 . S
C507 C508 1.382 . S
C507 H529 0.950 . S
C508 N504 1.332 . S
C508 C507 1.382 . S
C508 H510 0.952 . S
C509 N504 1.332 . S
C509 C505 1.382 . S
C509 H511 0.948 . S
H510 C508 0.952 . S
H511 C509 0.948 . S
H512 C501 0.952 . S
H513 C503 0.948 . S
C514 C480 1.395 . S
C514 C484 1.391 . S
C515 C477 1.389 . S
C515 C497 1.392 . S
C516 C487 1.392 . S
C516 C489 1.389 . S
C517 C492 1.395 . S
C517 C494 1.391 . S
H518 C478 0.951 . S
H519 C479 0.950 . S
H520 C485 0.949 . S
H521 C486 0.950 . S
H522 C490 0.951 . S
H523 C491 0.950 . S
H524 C495 0.949 . S
H525 C496 0.950 . S
H526 C500 0.950 . S
H527 C502 0.950 . S
H528 C505 0.950 . S
H529 C507 0.950 . S
C530 C531 1.443 . S
C530 N534 1.376 . S
C530 C568 1.389 . S
C531 C530 1.443 . S
C531 C532 1.340 . S
C531 H571 0.951 . S
C532 C531 1.340 . S
C532 C533 1.439 . S
C532 H572 0.950 . S
C533 C532 1.439 . S
C533 N534 1.374 . S
C533 C567 1.395 . S
N534 C530 1.376 . S
N534 C533 1.374 . S
N534 Co535 2.008 . S
Co535 N534 2.008 . S
Co535 N536 1.995 . S
Co535 N541 2.008 1_545 S
Co535 N546 1.995 1_545 S
Co535 N551 2.282 1_545 S
Co535 N557 2.282 . S
N536 Co535 1.995 . S
N536 C537 1.376 . S
N536 C540 1.383 . S
C537 N536 1.376 . S
C537 C538 1.446 . S
C537 C567 1.391 . S
C538 C537 1.446 . S
C538 C539 1.339 . S
C538 H573 0.949 . S
C539 C538 1.339 . S
C539 C540 1.439 . S
C539 H574 0.950 . S
C540 N536 1.383 . S
C540 C539 1.439 . S
C540 C569 1.392 1_545 S
N541 Co535 2.008 1_565 S
N541 C542 1.376 . S
N541 C545 1.374 . S
C542 N541 1.376 . S
C542 C543 1.443 . S
C542 C569 1.389 . S
C543 C542 1.443 . S
C543 C544 1.340 . S
C543 H575 0.951 . S
C544 C543 1.340 . S
C544 C545 1.439 . S
C544 H576 0.950 . S
C545 N541 1.374 . S
C545 C544 1.439 . S
C545 C570 1.395 . S
N546 Co535 1.995 1_565 S
N546 C547 1.376 . S
N546 C550 1.383 . S
C547 N546 1.376 . S
C547 C548 1.446 . S
C547 C570 1.391 . S
C548 C547 1.446 . S
C548 C549 1.339 . S
C548 H577 0.949 . S
C549 C548 1.339 . S
C549 C550 1.439 . S
C549 H578 0.950 . S
C550 N546 1.383 . S
C550 C549 1.439 . S
C550 C568 1.392 1_565 S
N551 Co535 2.282 1_565 S
N551 C554 1.332 . S
N551 C556 1.332 1_565 S
C552 C553 1.386 . S
C552 C555 1.388 1_565 S
C553 C552 1.386 . S
C553 C554 1.382 . S
C553 H579 0.950 . S
C554 N551 1.332 . S
C554 C553 1.382 . S
C554 H565 0.952 . S
C555 C552 1.388 1_545 S
C555 C556 1.382 . S
C555 H580 0.950 . S
C556 N551 1.332 1_545 S
C556 C555 1.382 . S
C556 H566 0.948 . S
N557 Co535 2.282 . S
N557 C561 1.332 . S
N557 C562 1.332 1_545 S
C558 C559 1.388 1_565 S
C558 C562 1.382 . S
C558 H581 0.950 . S
C559 C558 1.388 1_545 S
C559 C560 1.386 . S
C560 C559 1.386 . S
C560 C561 1.382 . S
C560 H582 0.950 . S
C561 N557 1.332 . S
C561 C560 1.382 . S
C561 H563 0.952 . S
C562 N557 1.332 1_565 S
C562 C558 1.382 . S
C562 H564 0.948 . S
H563 C561 0.952 . S
H564 C562 0.948 . S
H565 C554 0.952 . S
H566 C556 0.948 . S
C567 C533 1.395 . S
C567 C537 1.391 . S
C568 C530 1.389 . S
C568 C550 1.392 1_545 S
C569 C540 1.392 1_565 S
C569 C542 1.389 . S
C570 C545 1.395 . S
C570 C547 1.391 . S
H571 C531 0.951 . S
H572 C532 0.950 . S
H573 C538 0.949 . S
H574 C539 0.950 . S
H575 C543 0.951 . S
H576 C544 0.950 . S
H577 C548 0.949 . S
H578 C549 0.950 . S
H579 C553 0.950 . S
H580 C555 0.950 . S
H581 C558 0.950 . S
H582 C560 0.950 . S
C583 C584 1.443 . S
C583 N587 1.376 . S
C583 C621 1.389 . S
C584 C583 1.443 . S
C584 C585 1.340 . S
C584 H624 0.951 . S
C585 C584 1.340 . S
C585 C586 1.439 . S
C585 H625 0.950 . S
C586 C585 1.439 . S
C586 N587 1.374 . S
C586 C620 1.395 . S
N587 C583 1.376 . S
N587 C586 1.374 . S
N587 Co588 2.008 1_556 S
Co588 N587 2.008 1_554 S
Co588 N589 1.995 1_554 S
Co588 N594 2.008 . S
Co588 N599 1.995 . S
Co588 N604 2.282 . S
Co588 N610 2.282 1_554 S
N589 Co588 1.995 1_556 S
N589 C590 1.376 . S
N589 C593 1.383 . S
C590 N589 1.376 . S
C590 C591 1.446 . S
C590 C620 1.391 . S
C591 C590 1.446 . S
C591 C592 1.339 . S
C591 H626 0.949 . S
C592 C591 1.339 . S
C592 C593 1.439 . S
C592 H627 0.950 . S
C593 N589 1.383 . S
C593 C592 1.439 . S
C593 C622 1.392 1_556 S
N594 Co588 2.008 . S
N594 C595 1.376 . S
N594 C598 1.374 . S
C595 N594 1.376 . S
C595 C596 1.443 . S
C595 C622 1.389 . S
C596 C595 1.443 . S
C596 C597 1.340 . S
C596 H628 0.951 . S
C597 C596 1.340 . S
C597 C598 1.439 . S
C597 H629 0.950 . S
C598 N594 1.374 . S
C598 C597 1.439 . S
C598 C623 1.395 . S
N599 Co588 1.995 . S
N599 C600 1.376 . S
N599 C603 1.383 . S
C600 N599 1.376 . S
C600 C601 1.446 . S
C600 C623 1.391 . S
C601 C600 1.446 . S
C601 C602 1.339 . S
C601 H630 0.949 . S
C602 C601 1.339 . S
C602 C603 1.439 . S
C602 H631 0.950 . S
C603 N599 1.383 . S
C603 C602 1.439 . S
C603 C621 1.392 1_554 S
N604 Co588 2.282 . S
N604 C607 1.332 . S
N604 C609 1.332 1_554 S
C605 C606 1.386 . S
C605 C608 1.388 1_554 S
C606 C605 1.386 . S
C606 C607 1.382 . S
C606 H632 0.950 . S
C607 N604 1.332 . S
C607 C606 1.382 . S
C607 H618 0.952 . S
C608 C605 1.388 1_556 S
C608 C609 1.382 . S
C608 H633 0.950 . S
C609 N604 1.332 1_556 S
C609 C608 1.382 . S
C609 H619 0.948 . S
N610 Co588 2.282 1_556 S
N610 C614 1.332 . S
N610 C615 1.332 1_556 S
C611 C612 1.388 1_554 S
C611 C615 1.382 . S
C611 H634 0.950 . S
C612 C611 1.388 1_556 S
C612 C613 1.386 . S
C613 C612 1.386 . S
C613 C614 1.382 . S
C613 H635 0.950 . S
C614 N610 1.332 . S
C614 C613 1.382 . S
C614 H616 0.952 . S
C615 N610 1.332 1_554 S
C615 C611 1.382 . S
C615 H617 0.948 . S
H616 C614 0.952 . S
H617 C615 0.948 . S
H618 C607 0.952 . S
H619 C609 0.948 . S
C620 C586 1.395 . S
C620 C590 1.391 . S
C621 C583 1.389 . S
C621 C603 1.392 1_556 S
C622 C593 1.392 1_554 S
C622 C595 1.389 . S
C623 C598 1.395 . S
C623 C600 1.391 . S
H624 C584 0.951 . S
H625 C585 0.950 . S
H626 C591 0.949 . S
H627 C592 0.950 . S
H628 C596 0.951 . S
H629 C597 0.950 . S
H630 C601 0.949 . S
H631 C602 0.950 . S
H632 C606 0.950 . S
H633 C608 0.950 . S
H634 C611 0.950 . S
H635 C613 0.950 . S
Zn636 O642 1.920 . S
Zn636 O648 1.898 . S
Zn636 O651 1.905 . S
Zn637 O645 1.905 . S
Zn637 O646 1.898 1_546 S
Zn637 O654 1.920 1_556 S
Zn638 O641 2.080 . S
Zn638 O644 2.114 . S
Zn638 O647 2.120 . S
Zn638 O649 2.120 . S
Zn638 O650 2.114 . S
Zn638 O653 2.080 . S
C639 O644 1.166 1_556 S
C639 O645 1.182 . S
C640 O646 1.167 . S
C640 O647 1.299 1_565 S
O641 Zn638 2.080 . S
O641 C655 1.305 . S
O642 Zn636 1.920 . S
O642 C655 1.234 . S
C643 O648 1.167 . S
C643 O649 1.299 . S
O644 Zn638 2.114 . S
O644 C639 1.166 1_554 S
O645 Zn637 1.905 . S
O645 C639 1.182 . S
O646 Zn637 1.898 1_564 S
O646 C640 1.167 . S
O647 Zn638 2.120 . S
O647 C640 1.299 1_545 S
O648 Zn636 1.898 . S
O648 C643 1.167 . S
O649 Zn638 2.120 . S
O649 C643 1.299 . S
O650 Zn638 2.114 . S
O650 C652 1.166 . S
O651 Zn636 1.905 . S
O651 C652 1.182 . S
C652 O650 1.166 . S
C652 O651 1.182 . S
O653 Zn638 2.080 . S
O653 C656 1.305 . S
O654 Zn637 1.920 1_554 S
O654 C656 1.234 . S
C655 O641 1.305 . S
C655 O642 1.234 . S
C656 O653 1.305 . S
C656 O654 1.234 . S
Zn657 O663 1.920 1_556 S
Zn657 O669 1.898 1_456 S
Zn657 O672 1.905 1_455 S
Zn658 O666 1.905 . S
Zn658 O667 1.898 . S
Zn658 O675 1.920 . S
Zn659 O662 2.080 . S
Zn659 O665 2.114 . S
Zn659 O668 2.120 . S
Zn659 O670 2.120 . S
Zn659 O671 2.114 1_554 S
Zn659 O674 2.080 . S
C660 O665 1.166 . S
C660 O666 1.182 . S
C661 O667 1.167 . S
C661 O668 1.299 . S
O662 Zn659 2.080 . S
O662 C676 1.305 1_655 S
O663 Zn657 1.920 1_554 S
O663 C676 1.234 . S
C664 O669 1.167 . S
C664 O670 1.299 . S
O665 Zn659 2.114 . S
O665 C660 1.166 . S
O666 Zn658 1.905 . S
O666 C660 1.182 . S
O667 Zn658 1.898 . S
O667 C661 1.167 . S
O668 Zn659 2.120 . S
O668 C661 1.299 . S
O669 Zn657 1.898 1_654 S
O669 C664 1.167 . S
O670 Zn659 2.120 . S
O670 C664 1.299 . S
O671 Zn659 2.114 1_556 S
O671 C673 1.166 . S
O672 Zn657 1.905 1_655 S
O672 C673 1.182 . S
C673 O671 1.166 . S
C673 O672 1.182 . S
O674 Zn659 2.080 . S
O674 C677 1.305 . S
O675 Zn658 1.920 . S
O675 C677 1.234 . S
C676 O662 1.305 1_455 S
C676 O663 1.234 . S
C677 O674 1.305 . S
C677 O675 1.234 . S
Zn678 O684 1.920 1_665 S
Zn678 O690 1.898 1_655 S
Zn678 O693 1.905 . S
Zn679 O687 1.905 . S
Zn679 O688 1.898 . S
Zn679 O696 1.920 . S
Zn680 O683 2.080 . S
Zn680 O686 2.114 . S
Zn680 O689 2.120 . S
Zn680 O691 2.120 . S
Zn680 O692 2.114 1_455 S
Zn680 O695 2.080 . S
C681 O686 1.166 . S
C681 O687 1.182 . S
C682 O688 1.167 . S
C682 O689 1.299 . S
O683 Zn680 2.080 . S
O683 C697 1.305 1_565 S
O684 Zn678 1.920 1_445 S
O684 C697 1.234 . S
C685 O690 1.167 . S
C685 O691 1.299 . S
O686 Zn680 2.114 . S
O686 C681 1.166 . S
O687 Zn679 1.905 . S
O687 C681 1.182 . S
O688 Zn679 1.898 . S
O688 C682 1.167 . S
O689 Zn680 2.120 . S
O689 C682 1.299 . S
O690 Zn678 1.898 1_455 S
O690 C685 1.167 . S
O691 Zn680 2.120 . S
O691 C685 1.299 . S
O692 Zn680 2.114 1_655 S
O692 C694 1.166 . S
O693 Zn678 1.905 . S
O693 C694 1.182 . S
C694 O692 1.166 . S
C694 O693 1.182 . S
O695 Zn680 2.080 . S
O695 C698 1.305 . S
O696 Zn679 1.920 . S
O696 C698 1.234 . S
C697 O683 1.305 1_545 S
C697 O684 1.234 . S
C698 O695 1.305 . S
C698 O696 1.234 . S
Zn699 O705 1.920 . S
Zn699 O711 1.898 . S
Zn699 O714 1.905 . S
Zn700 O708 1.905 1_455 S
Zn700 O709 1.898 . S
Zn700 O717 1.920 1_455 S
Zn701 O704 2.080 . S
Zn701 O707 2.114 . S
Zn701 O710 2.120 1_655 S
Zn701 O712 2.120 . S
Zn701 O713 2.114 . S
Zn701 O716 2.080 . S
C702 O707 1.166 . S
C702 O708 1.182 . S
C703 O709 1.167 . S
C703 O710 1.299 . S
O704 Zn701 2.080 . S
O704 C718 1.305 . S
O705 Zn699 1.920 . S
O705 C718 1.234 . S
C706 O711 1.167 . S
C706 O712 1.299 . S
O707 Zn701 2.114 . S
O707 C702 1.166 . S
O708 Zn700 1.905 1_655 S
O708 C702 1.182 . S
O709 Zn700 1.898 . S
O709 C703 1.167 . S
O710 Zn701 2.120 1_455 S
O710 C703 1.299 . S
O711 Zn699 1.898 . S
O711 C706 1.167 . S
O712 Zn701 2.120 . S
O712 C706 1.299 . S
O713 Zn701 2.114 . S
O713 C715 1.166 . S
O714 Zn699 1.905 . S
O714 C715 1.182 . S
C715 O713 1.166 . S
C715 O714 1.182 . S
O716 Zn701 2.080 . S
O716 C719 1.305 . S
O717 Zn700 1.920 1_655 S
O717 C719 1.234 . S
C718 O704 1.305 . S
C718 O705 1.234 . S
C719 O716 1.305 . S
C719 O717 1.234 . S
Zn720 O726 1.920 . S
Zn720 O732 1.898 . S
Zn720 O735 1.905 . S
Zn721 O729 1.905 . S
Zn721 O730 1.898 1_565 S
Zn721 O738 1.920 . S
Zn722 O725 2.080 . S
Zn722 O728 2.114 . S
Zn722 O731 2.120 . S
Zn722 O733 2.120 . S
Zn722 O734 2.114 . S
Zn722 O737 2.080 . S
C723 O728 1.166 . S
C723 O729 1.182 . S
C724 O730 1.167 . S
C724 O731 1.299 1_545 S
O725 Zn722 2.080 . S
O725 C739 1.305 . S
O726 Zn720 1.920 . S
O726 C739 1.234 . S
C727 O732 1.167 . S
C727 O733 1.299 . S
O728 Zn722 2.114 . S
O728 C723 1.166 . S
O729 Zn721 1.905 . S
O729 C723 1.182 . S
O730 Zn721 1.898 1_545 S
O730 C724 1.167 . S
O731 Zn722 2.120 . S
O731 C724 1.299 1_565 S
O732 Zn720 1.898 . S
O732 C727 1.167 . S
O733 Zn722 2.120 . S
O733 C727 1.299 . S
O734 Zn722 2.114 . S
O734 C736 1.166 . S
O735 Zn720 1.905 . S
O735 C736 1.182 . S
C736 O734 1.166 . S
C736 O735 1.182 . S
O737 Zn722 2.080 . S
O737 C740 1.305 . S
O738 Zn721 1.920 . S
O738 C740 1.234 . S
C739 O725 1.305 . S
C739 O726 1.234 . S
C740 O737 1.305 . S
C740 O738 1.234 . S
Zn741 O747 1.920 . S
Zn741 O753 1.898 . S
Zn741 O756 1.905 . S
Zn742 O750 1.905 . S
Zn742 O751 1.898 . S
Zn742 O759 1.920 . S
Zn743 O746 2.080 . S
Zn743 O749 2.114 . S
Zn743 O752 2.120 . S
Zn743 O754 2.120 . S
Zn743 O755 2.114 . S
Zn743 O758 2.080 . S
C744 O749 1.166 . S
C744 O750 1.182 . S
C745 O751 1.167 . S
C745 O752 1.299 . S
O746 Zn743 2.080 . S
O746 C760 1.305 . S
O747 Zn741 1.920 . S
O747 C760 1.234 . S
C748 O753 1.167 . S
C748 O754 1.299 . S
O749 Zn743 2.114 . S
O749 C744 1.166 . S
O750 Zn742 1.905 . S
O750 C744 1.182 . S
O751 Zn742 1.898 . S
O751 C745 1.167 . S
O752 Zn743 2.120 . S
O752 C745 1.299 . S
O753 Zn741 1.898 . S
O753 C748 1.167 . S
O754 Zn743 2.120 . S
O754 C748 1.299 . S
O755 Zn743 2.114 . S
O755 C757 1.166 . S
O756 Zn741 1.905 . S
O756 C757 1.182 . S
C757 O755 1.166 . S
C757 O756 1.182 . S
O758 Zn743 2.080 . S
O758 C761 1.305 . S
O759 Zn742 1.920 . S
O759 C761 1.234 . S
C760 O746 1.305 . S
C760 O747 1.234 . S
C761 O758 1.305 . S
C761 O759 1.234 . S
Zn762 O768 1.920 1_554 S
Zn762 O774 1.898 . S
Zn762 O777 1.905 . S
Zn763 O771 1.905 . S
Zn763 O772 1.898 . S
Zn763 O780 1.920 . S
Zn764 O767 2.080 . S
Zn764 O770 2.114 . S
Zn764 O773 2.120 . S
Zn764 O775 2.120 1_556 S
Zn764 O776 2.114 . S
Zn764 O779 2.080 . S
C765 O770 1.166 . S
C765 O771 1.182 . S
C766 O772 1.167 . S
C766 O773 1.299 . S
O767 Zn764 2.080 . S
O767 C781 1.305 . S
O768 Zn762 1.920 1_556 S
O768 C781 1.234 . S
C769 O774 1.167 . S
C769 O775 1.299 . S
O770 Zn764 2.114 . S
O770 C765 1.166 . S
O771 Zn763 1.905 . S
O771 C765 1.182 . S
O772 Zn763 1.898 . S
O772 C766 1.167 . S
O773 Zn764 2.120 . S
O773 C766 1.299 . S
O774 Zn762 1.898 . S
O774 C769 1.167 . S
O775 Zn764 2.120 1_554 S
O775 C769 1.299 . S
O776 Zn764 2.114 . S
O776 C778 1.166 1_556 S
O777 Zn762 1.905 . S
O777 C778 1.182 . S
C778 O776 1.166 1_554 S
C778 O777 1.182 . S
O779 Zn764 2.080 . S
O779 C782 1.305 . S
O780 Zn763 1.920 . S
O780 C782 1.234 . S
C781 O767 1.305 . S
C781 O768 1.234 . S
C782 O779 1.305 . S
C782 O780 1.234 . S
Zn783 O789 1.920 1_556 S
Zn783 O795 1.898 . S
Zn783 O798 1.905 1_545 S
Zn784 O792 1.905 . S
Zn784 O793 1.898 . S
Zn784 O801 1.920 . S
Zn785 O788 2.080 . S
Zn785 O791 2.114 . S
Zn785 O794 2.120 . S
Zn785 O796 2.120 . S
Zn785 O797 2.114 . S
Zn785 O800 2.080 . S
C786 O791 1.166 . S
C786 O792 1.182 . S
C787 O793 1.167 . S
C787 O794 1.299 . S
O788 Zn785 2.080 . S
O788 C802 1.305 1_556 S
O789 Zn783 1.920 1_554 S
O789 C802 1.234 . S
C790 O795 1.167 . S
C790 O796 1.299 . S
O791 Zn785 2.114 . S
O791 C786 1.166 . S
O792 Zn784 1.905 . S
O792 C786 1.182 . S
O793 Zn784 1.898 . S
O793 C787 1.167 . S
O794 Zn785 2.120 . S
O794 C787 1.299 . S
O795 Zn783 1.898 . S
O795 C790 1.167 . S
O796 Zn785 2.120 . S
O796 C790 1.299 . S
O797 Zn785 2.114 . S
O797 C799 1.166 1_545 S
O798 Zn783 1.905 1_565 S
O798 C799 1.182 . S
C799 O797 1.166 1_565 S
C799 O798 1.182 . S
O800 Zn785 2.080 . S
O800 C803 1.305 . S
O801 Zn784 1.920 . S
O801 C803 1.234 . S
C802 O788 1.305 1_554 S
C802 O789 1.234 . S
C803 O800 1.305 . S
C803 O801 1.234 . S
C804 C805 1.363 . S
C804 C810 1.379 . S
C804 N812 1.356 . S
C805 C804 1.363 . S
C805 C811 1.363 . S
C806 C807 1.363 . S
C806 C811 1.379 . S
C806 N813 1.356 1_455 S
C807 C806 1.363 . S
C807 C810 1.363 . S
N808 C810 1.356 . S
N808 H820 0.984 . S
N808 H821 0.985 . S
N809 C811 1.356 . S
N809 H814 0.984 . S
N809 H815 0.985 1_455 S
C810 C804 1.379 . S
C810 C807 1.363 . S
C810 N808 1.356 . S
C811 C805 1.363 . S
C811 C806 1.379 . S
C811 N809 1.356 . S
N812 C804 1.356 . S
N812 H818 0.984 . S
N812 H819 0.984 . S
N813 C806 1.356 1_655 S
N813 H816 0.984 . S
N813 H817 0.985 . S
H814 N809 0.984 . S
H815 N809 0.985 1_655 S
H816 N813 0.984 . S
H817 N813 0.985 . S
H818 N812 0.984 . S
H819 N812 0.984 . S
H820 N808 0.984 . S
H821 N808 0.985 . S
C822 C823 1.363 . S
C822 C828 1.379 . S
C822 N830 1.356 . S
C823 C822 1.363 . S
C823 C829 1.364 1_655 S
C824 C825 1.363 . S
C824 C829 1.379 1_655 S
C824 N831 1.356 1_655 S
C825 C824 1.363 . S
C825 C828 1.363 . S
N826 C828 1.356 . S
N826 H838 0.984 . S
N826 H839 0.985 . S
N827 C829 1.355 . S
N827 H832 0.984 . S
N827 H833 0.985 . S
C828 C822 1.379 . S
C828 C825 1.363 . S
C828 N826 1.356 . S
C829 C823 1.364 1_455 S
C829 C824 1.379 1_455 S
C829 N827 1.355 . S
N830 C822 1.356 . S
N830 H836 0.984 . S
N830 H837 0.984 . S
N831 C824 1.356 1_455 S
N831 H834 0.984 1_455 S
N831 H835 0.985 . S
H832 N827 0.984 . S
H833 N827 0.985 . S
H834 N831 0.984 1_655 S
H835 N831 0.985 . S
H836 N830 0.984 . S
H837 N830 0.984 . S
H838 N826 0.984 . S
H839 N826 0.985 . S
C840 C841 1.363 . S
C840 C846 1.379 . S
C840 N848 1.356 . S
C841 C840 1.363 . S
C841 C847 1.363 . S
C842 C843 1.363 . S
C842 C847 1.379 . S
C842 N849 1.356 . S
C843 C842 1.363 . S
C843 C846 1.363 . S
N844 C846 1.356 . S
N844 H856 0.984 . S
N844 H857 0.985 . S
N845 C847 1.356 . S
N845 H850 0.984 . S
N845 H851 0.985 1_455 S
C846 C840 1.379 . S
C846 C843 1.363 . S
C846 N844 1.356 . S
C847 C841 1.363 . S
C847 C842 1.379 . S
C847 N845 1.356 . S
N848 C840 1.356 . S
N848 H854 0.984 . S
N848 H855 0.984 . S
N849 C842 1.356 . S
N849 H852 0.984 1_565 S
N849 H853 0.985 . S
H850 N845 0.984 . S
H851 N845 0.985 1_655 S
H852 N849 0.984 1_545 S
H853 N849 0.985 . S
H854 N848 0.984 . S
H855 N848 0.984 . S
H856 N844 0.984 . S
H857 N844 0.985 . S
C858 C859 1.363 1_455 S
C858 C864 1.379 . S
C858 N866 1.356 . S
C859 C858 1.363 1_655 S
C859 C865 1.363 . S
C860 C861 1.363 . S
C860 C865 1.379 . S
C860 N867 1.356 . S
C861 C860 1.363 . S
C861 C864 1.363 1_655 S
N862 C864 1.356 . S
N862 H874 0.984 . S
N862 H875 0.985 . S
N863 C865 1.356 . S
N863 H868 0.984 . S
N863 H869 0.985 . S
C864 C858 1.379 . S
C864 C861 1.363 1_455 S
C864 N862 1.356 . S
C865 C859 1.363 . S
C865 C860 1.379 . S
C865 N863 1.356 . S
N866 C858 1.356 . S
N866 H872 0.984 . S
N866 H873 0.984 . S
N867 C860 1.356 . S
N867 H870 0.984 . S
N867 H871 0.985 . S
H868 N863 0.984 . S
H869 N863 0.985 . S
H870 N867 0.984 . S
H871 N867 0.985 . S
H872 N866 0.984 . S
H873 N866 0.984 . S
H874 N862 0.984 . S
H875 N862 0.985 . S
C876 C877 1.363 . S
C876 C882 1.379 . S
C876 N884 1.356 1_545 S
C877 C876 1.363 . S
C877 C883 1.363 . S
C878 C879 1.363 . S
C878 C883 1.379 . S
C878 N885 1.356 . S
C879 C878 1.363 . S
C879 C882 1.363 . S
N880 C882 1.374 . S
N880 H892 0.958 1_545 S
N880 H893 0.994 . S
N881 C883 1.356 . S
N881 H886 0.984 . S
N881 H887 0.985 . S
C882 C876 1.379 . S
C882 C879 1.363 . S
C882 N880 1.374 . S
C883 C877 1.363 . S
C883 C878 1.379 . S
C883 N881 1.356 . S
N884 C876 1.356 1_565 S
N884 H890 0.984 . S
N884 H891 0.984 1_565 S
N885 C878 1.356 . S
N885 H888 0.984 . S
N885 H889 0.985 . S
H886 N881 0.984 . S
H887 N881 0.985 . S
H888 N885 0.984 . S
H889 N885 0.985 . S
H890 N884 0.984 . S
H891 N884 0.984 1_545 S
H892 N880 0.958 1_565 S
H893 N880 0.994 . S
C894 C895 1.363 . S
C894 C900 1.379 . S
C894 N902 1.356 . S
C895 C894 1.363 . S
C895 C901 1.363 . S
C896 C897 1.363 . S
C896 C901 1.379 . S
C896 N903 1.356 . S
C897 C896 1.363 . S
C897 C900 1.363 . S
N898 C900 1.356 . S
N898 H910 0.984 . S
N898 H911 0.985 . S
N899 C901 1.356 . S
N899 H904 0.984 . S
N899 H905 0.985 . S
C900 C894 1.379 . S
C900 C897 1.363 . S
C900 N898 1.356 . S
C901 C895 1.363 . S
C901 C896 1.379 . S
C901 N899 1.356 . S
N902 C894 1.356 . S
N902 H908 0.984 . S
N902 H909 0.984 . S
N903 C896 1.356 . S
N903 H906 0.984 . S
N903 H907 0.985 . S
H904 N899 0.984 . S
H905 N899 0.985 . S
H906 N903 0.984 . S
H907 N903 0.985 . S
H908 N902 0.984 . S
H909 N902 0.984 . S
H910 N898 0.984 . S
H911 N898 0.985 . S
C912 C913 1.363 . S
C912 C918 1.379 . S
C912 N920 1.356 . S
C913 C912 1.363 . S
C913 C919 1.363 . S
C914 C915 1.363 . S
C914 C919 1.379 . S
C914 N921 1.356 . S
C915 C914 1.363 . S
C915 C918 1.363 . S
N916 C918 1.356 . S
N916 H928 0.984 . S
N916 H929 0.985 . S
N917 C919 1.356 1_545 S
N917 H922 0.984 . S
N917 H923 0.985 . S
C918 C912 1.379 . S
C918 C915 1.363 . S
C918 N916 1.356 . S
C919 C913 1.363 . S
C919 C914 1.379 . S
C919 N917 1.356 1_565 S
N920 C912 1.356 . S
N920 H926 0.984 . S
N920 H927 0.984 . S
N921 C914 1.356 . S
N921 H924 0.984 . S
N921 H925 0.985 1_565 S
H922 N917 0.984 . S
H923 N917 0.985 . S
H924 N921 0.984 . S
H925 N921 0.985 1_545 S
H926 N920 0.984 . S
H927 N920 0.984 . S
H928 N916 0.984 . S
H929 N916 0.985 . S
C930 C931 1.363 . S
C930 C936 1.379 . S
C930 N938 1.356 . S
C931 C930 1.363 . S
C931 C937 1.363 . S
C932 C933 1.363 . S
C932 C937 1.379 . S
C932 N939 1.356 . S
C933 C932 1.363 . S
C933 C936 1.363 . S
N934 C936 1.356 . S
N934 H946 0.984 . S
N934 H947 0.985 . S
N935 C937 1.356 . S
N935 H940 0.984 . S
N935 H941 0.985 . S
C936 C930 1.379 . S
C936 C933 1.363 . S
C936 N934 1.356 . S
C937 C931 1.363 . S
C937 C932 1.379 . S
C937 N935 1.356 . S
N938 C930 1.356 . S
N938 H944 0.984 . S
N938 H945 0.984 . S
N939 C932 1.356 . S
N939 H942 0.984 . S
N939 H943 0.985 . S
H940 N935 0.984 . S
H941 N935 0.985 . S
H942 N939 0.984 . S
H943 N939 0.985 . S
H944 N938 0.984 . S
H945 N938 0.984 . S
H946 N934 0.984 . S
H947 N934 0.985 . S
C948 C949 1.363 1_556 S
C948 C954 1.379 . S
C948 N956 1.356 . S
C949 C948 1.363 1_554 S
C949 C955 1.363 . S
C950 C951 1.363 . S
C950 C955 1.379 . S
C950 N957 1.356 . S
C951 C950 1.363 . S
C951 C954 1.363 1_554 S
N952 C954 1.356 . S
N952 H964 0.984 . S
N952 H965 0.985 . S
N953 C955 1.356 . S
N953 H958 0.984 . S
N953 H959 0.985 . S
C954 C948 1.379 . S
C954 C951 1.363 1_556 S
C954 N952 1.356 . S
C955 C949 1.363 . S
C955 C950 1.379 . S
C955 N953 1.356 . S
N956 C948 1.356 . S
N956 H962 0.984 . S
N956 H963 0.984 . S
N957 C950 1.356 . S
N957 H960 0.984 . S
N957 H961 0.985 . S
H958 N953 0.984 . S
H959 N953 0.985 . S
H960 N957 0.984 . S
H961 N957 0.985 . S
H962 N956 0.984 . S
H963 N956 0.984 . S
H964 N952 0.984 . S
H965 N952 0.985 . S
C966 C967 1.363 . S
C966 C972 1.379 . S
C966 N974 1.356 . S
C967 C966 1.363 . S
C967 C973 1.363 . S
C968 C969 1.363 . S
C968 C973 1.379 . S
C968 N975 1.356 . S
C969 C968 1.363 . S
C969 C972 1.363 . S
N970 C972 1.356 . S
N970 H982 0.984 . S
N970 H983 0.985 . S
N971 C973 1.356 . S
N971 H976 0.984 . S
N971 H977 0.985 . S
C972 C966 1.379 . S
C972 C969 1.363 . S
C972 N970 1.356 . S
C973 C967 1.363 . S
C973 C968 1.379 . S
C973 N971 1.356 . S
N974 C966 1.356 . S
N974 H980 0.984 . S
N974 H981 0.984 . S
N975 C968 1.356 . S
N975 H978 0.984 . S
N975 H979 0.985 . S
H976 N971 0.984 . S
H977 N971 0.985 . S
H978 N975 0.984 . S
H979 N975 0.985 . S
H980 N974 0.984 . S
H981 N974 0.984 . S
H982 N970 0.984 . S
H983 N970 0.985 . S
C984 C985 1.363 . S
C984 C990 1.379 . S
C984 N992 1.356 . S
C985 C984 1.363 . S
C985 C991 1.363 . S
C986 C987 1.363 . S
C986 C991 1.379 . S
C986 N993 1.356 . S
C987 C986 1.363 . S
C987 C990 1.363 . S
N988 C990 1.356 . S
N988 H1000 0.984 . S
N988 H1001 0.985 . S
N989 C991 1.356 . S
N989 H994 0.984 . S
N989 H995 0.985 . S
C990 C984 1.379 . S
C990 C987 1.363 . S
C990 N988 1.356 . S
C991 C985 1.363 . S
C991 C986 1.379 . S
C991 N989 1.356 . S
N992 C984 1.356 . S
N992 H998 0.984 . S
N992 H999 0.984 . S
N993 C986 1.356 . S
N993 H996 0.984 . S
N993 H997 0.985 . S
H994 N989 0.984 . S
H995 N989 0.985 . S
H996 N993 0.984 . S
H997 N993 0.985 . S
H998 N992 0.984 . S
H999 N992 0.984 . S
H1000 N988 0.984 . S
H1001 N988 0.985 . S
C1002 C1003 1.363 . S
C1002 C1008 1.379 . S
C1002 N1010 1.356 . S
C1003 C1002 1.363 . S
C1003 C1009 1.363 . S
C1004 C1005 1.363 . S
C1004 C1009 1.379 . S
C1004 N1011 1.356 . S
C1005 C1004 1.363 . S
C1005 C1008 1.363 . S
N1006 C1008 1.356 . S
N1006 H1018 0.984 . S
N1006 H1019 0.985 . S
N1007 C1009 1.356 . S
N1007 H1012 0.984 . S
N1007 H1013 0.985 . S
C1008 C1002 1.379 . S
C1008 C1005 1.363 . S
C1008 N1006 1.356 . S
C1009 C1003 1.363 . S
C1009 C1004 1.379 . S
C1009 N1007 1.356 . S
N1010 C1002 1.356 . S
N1010 H1016 0.984 . S
N1010 H1017 0.984 . S
N1011 C1004 1.356 . S
N1011 H1014 0.984 . S
N1011 H1015 0.985 . S
H1012 N1007 0.984 . S
H1013 N1007 0.985 . S
H1014 N1011 0.984 . S
H1015 N1011 0.985 . S
H1016 N1010 0.984 . S
H1017 N1010 0.984 . S
H1018 N1006 0.984 . S
H1019 N1006 0.985 . S
C1020 C1021 1.363 . S
C1020 C1026 1.379 . S
C1020 N1028 1.356 . S
C1021 C1020 1.363 . S
C1021 C1027 1.363 . S
C1022 C1023 1.363 . S
C1022 C1027 1.379 . S
C1022 N1029 1.356 . S
C1023 C1022 1.363 . S
C1023 C1026 1.363 . S
N1024 C1026 1.356 . S
N1024 H1036 0.984 . S
N1024 H1037 0.985 . S
N1025 C1027 1.356 . S
N1025 H1030 0.984 . S
N1025 H1031 0.985 . S
C1026 C1020 1.379 . S
C1026 C1023 1.363 . S
C1026 N1024 1.356 . S
C1027 C1021 1.363 . S
C1027 C1022 1.379 . S
C1027 N1025 1.356 . S
N1028 C1020 1.356 . S
N1028 H1034 0.984 . S
N1028 H1035 0.984 . S
N1029 C1022 1.356 . S
N1029 H1032 0.984 . S
N1029 H1033 0.985 1_556 S
H1030 N1025 0.984 . S
H1031 N1025 0.985 . S
H1032 N1029 0.984 . S
H1033 N1029 0.985 1_554 S
H1034 N1028 0.984 . S
H1035 N1028 0.984 . S
H1036 N1024 0.984 . S
H1037 N1024 0.985 . S
C1038 C1039 1.363 . S
C1038 C1044 1.379 . S
C1038 N1046 1.356 . S
C1039 C1038 1.363 . S
C1039 C1045 1.363 . S
C1040 C1041 1.363 . S
C1040 C1045 1.379 . S
C1040 N1047 1.356 . S
C1041 C1040 1.363 . S
C1041 C1044 1.363 . S
N1042 C1044 1.356 . S
N1042 H1054 0.984 . S
N1042 H1055 0.985 . S
N1043 C1045 1.356 . S
N1043 H1048 0.984 . S
N1043 H1049 0.985 . S
C1044 C1038 1.379 . S
C1044 C1041 1.363 . S
C1044 N1042 1.356 . S
C1045 C1039 1.363 . S
C1045 C1040 1.379 . S
C1045 N1043 1.356 . S
N1046 C1038 1.356 . S
N1046 H1052 0.984 . S
N1046 H1053 0.984 . S
N1047 C1040 1.356 . S
N1047 H1050 0.984 . S
N1047 H1051 0.985 . S
H1048 N1043 0.984 . S
H1049 N1043 0.985 . S
H1050 N1047 0.984 . S
H1051 N1047 0.985 . S
H1052 N1046 0.984 . S
H1053 N1046 0.984 . S
H1054 N1042 0.984 . S
H1055 N1042 0.985 . S
C1056 C1057 1.363 . S
C1056 C1062 1.379 . S
C1056 N1064 1.356 . S
C1057 C1056 1.363 . S
C1057 C1063 1.363 . S
C1058 C1059 1.363 . S
C1058 C1063 1.379 . S
C1058 N1065 1.356 . S
C1059 C1058 1.363 . S
C1059 C1062 1.363 . S
N1060 C1062 1.356 . S
N1060 H1072 0.984 . S
N1060 H1073 0.985 . S
N1061 C1063 1.356 . S
N1061 H1066 0.984 . S
N1061 H1067 0.985 . S
C1062 C1056 1.379 . S
C1062 C1059 1.363 . S
C1062 N1060 1.356 . S
C1063 C1057 1.363 . S
C1063 C1058 1.379 . S
C1063 N1061 1.356 . S
N1064 C1056 1.356 . S
N1064 H1070 0.984 . S
N1064 H1071 0.984 . S
N1065 C1058 1.356 . S
N1065 H1068 0.984 . S
N1065 H1069 0.985 . S
H1066 N1061 0.984 . S
H1067 N1061 0.985 . S
H1068 N1065 0.984 . S
H1069 N1065 0.985 . S
H1070 N1064 0.984 . S
H1071 N1064 0.984 . S
H1072 N1060 0.984 . S
H1073 N1060 0.985 . S
C1074 C1075 1.363 . S
C1074 C1080 1.379 . S
C1074 N1082 1.356 . S
C1075 C1074 1.363 . S
C1075 C1081 1.363 . S
C1076 C1077 1.363 . S
C1076 C1081 1.379 . S
C1076 N1083 1.356 . S
C1077 C1076 1.363 . S
C1077 C1080 1.363 . S
N1078 C1080 1.356 . S
N1078 H1090 0.984 . S
N1078 H1091 0.985 . S
N1079 C1081 1.356 . S
N1079 H1084 0.984 . S
N1079 H1085 0.985 . S
C1080 C1074 1.379 . S
C1080 C1077 1.363 . S
C1080 N1078 1.356 . S
C1081 C1075 1.363 . S
C1081 C1076 1.379 . S
C1081 N1079 1.356 . S
N1082 C1074 1.356 . S
N1082 H1088 0.984 . S
N1082 H1089 0.984 . S
N1083 C1076 1.356 . S
N1083 H1086 0.984 . S
N1083 H1087 0.985 . S
H1084 N1079 0.984 . S
H1085 N1079 0.985 . S
H1086 N1083 0.984 . S
H1087 N1083 0.985 . S
H1088 N1082 0.984 . S
H1089 N1082 0.984 . S
H1090 N1078 0.984 . S
H1091 N1078 0.985 . S
C1092 C1093 1.363 . S
C1092 C1098 1.379 . S
C1092 N1100 1.356 . S
C1093 C1092 1.363 . S
C1093 C1099 1.363 . S
C1094 C1095 1.363 . S
C1094 C1099 1.379 . S
C1094 N1101 1.356 . S
C1095 C1094 1.363 . S
C1095 C1098 1.363 . S
N1096 C1098 1.356 . S
N1096 H1108 0.984 . S
N1096 H1109 0.985 . S
N1097 C1099 1.356 . S
N1097 H1102 0.984 . S
N1097 H1103 0.985 . S
C1098 C1092 1.379 . S
C1098 C1095 1.363 . S
C1098 N1096 1.356 . S
C1099 C1093 1.363 . S
C1099 C1094 1.379 . S
C1099 N1097 1.356 . S
N1100 C1092 1.356 . S
N1100 H1106 0.984 . S
N1100 H1107 0.984 . S
N1101 C1094 1.356 . S
N1101 H1104 0.984 . S
N1101 H1105 0.985 . S
H1102 N1097 0.984 . S
H1103 N1097 0.985 . S
H1104 N1101 0.984 . S
H1105 N1101 0.985 . S
H1106 N1100 0.984 . S
H1107 N1100 0.984 . S
H1108 N1096 0.984 . S
H1109 N1096 0.985 . S
C1110 C1111 1.363 . S
C1110 C1116 1.379 . S
C1110 N1118 1.356 1_565 S
C1111 C1110 1.363 . S
C1111 C1117 1.363 . S
C1112 C1113 1.363 . S
C1112 C1117 1.379 . S
C1112 N1119 1.356 . S
C1113 C1112 1.363 . S
C1113 C1116 1.363 . S
N1114 C1116 1.356 1_545 S
N1114 H1126 0.984 . S
N1114 H1127 0.985 1_545 S
N1115 C1117 1.356 . S
N1115 H1120 0.984 . S
N1115 H1121 0.985 . S
C1116 C1110 1.379 . S
C1116 C1113 1.363 . S
C1116 N1114 1.356 1_565 S
C1117 C1111 1.363 . S
C1117 C1112 1.379 . S
C1117 N1115 1.356 . S
N1118 C1110 1.356 1_545 S
N1118 H1124 0.984 . S
N1118 H1125 0.984 . S
N1119 C1112 1.356 . S
N1119 H1122 0.984 . S
N1119 H1123 0.985 . S
H1120 N1115 0.984 . S
H1121 N1115 0.985 . S
H1122 N1119 0.984 . S
H1123 N1119 0.985 . S
H1124 N1118 0.984 . S
H1125 N1118 0.984 . S
H1126 N1114 0.984 . S
H1127 N1114 0.985 1_565 S
C1128 C1129 1.363 . S
C1128 C1134 1.379 . S
C1128 N1136 1.356 . S
C1129 C1128 1.363 . S
C1129 C1135 1.363 . S
C1130 C1131 1.363 . S
C1130 C1135 1.379 . S
C1130 N1137 1.356 . S
C1131 C1130 1.363 . S
C1131 C1134 1.363 . S
N1132 C1134 1.356 . S
N1132 H1144 0.984 . S
N1132 H1145 0.985 . S
N1133 C1135 1.356 . S
N1133 H1138 0.984 . S
N1133 H1139 0.985 . S
C1134 C1128 1.379 . S
C1134 C1131 1.363 . S
C1134 N1132 1.356 . S
C1135 C1129 1.363 . S
C1135 C1130 1.379 . S
C1135 N1133 1.356 . S
N1136 C1128 1.356 . S
N1136 H1142 0.984 . S
N1136 H1143 0.984 . S
N1137 C1130 1.356 . S
N1137 H1140 0.984 . S
N1137 H1141 0.985 . S
H1138 N1133 0.984 . S
H1139 N1133 0.985 . S
H1140 N1137 0.984 . S
H1141 N1137 0.985 . S
H1142 N1136 0.984 . S
H1143 N1136 0.984 . S
H1144 N1132 0.984 . S
H1145 N1132 0.985 . S
C1146 C1147 1.363 . S
C1146 C1152 1.379 . S
C1146 N1154 1.356 . S
C1147 C1146 1.363 . S
C1147 C1153 1.363 . S
C1148 C1149 1.363 . S
C1148 C1153 1.379 . S
C1148 N1155 1.356 1_545 S
C1149 C1148 1.363 . S
C1149 C1152 1.363 . S
N1150 C1152 1.356 . S
N1150 H1162 0.984 . S
N1150 H1163 0.985 . S
N1151 C1153 1.356 1_565 S
N1151 H1156 0.984 . S
N1151 H1157 0.985 . S
C1152 C1146 1.379 . S
C1152 C1149 1.363 . S
C1152 N1150 1.356 . S
C1153 C1147 1.363 . S
C1153 C1148 1.379 . S
C1153 N1151 1.356 1_545 S
N1154 C1146 1.356 . S
N1154 H1160 0.984 . S
N1154 H1161 0.984 . S
N1155 C1148 1.356 1_565 S
N1155 H1158 0.984 1_565 S
N1155 H1159 0.985 . S
H1156 N1151 0.984 . S
H1157 N1151 0.985 . S
H1158 N1155 0.984 1_545 S
H1159 N1155 0.985 . S
H1160 N1154 0.984 . S
H1161 N1154 0.984 . S
H1162 N1150 0.984 . S
H1163 N1150 0.985 . S
C1164 C1165 1.363 . S
C1164 C1170 1.379 . S
C1164 N1172 1.356 . S
C1165 C1164 1.363 . S
C1165 C1171 1.363 . S
C1166 C1167 1.363 . S
C1166 C1171 1.379 . S
C1166 N1173 1.356 . S
C1167 C1166 1.363 . S
C1167 C1170 1.363 . S
N1168 C1170 1.356 . S
N1168 H1180 0.984 . S
N1168 H1181 0.985 . S
N1169 C1171 1.356 . S
N1169 H1174 0.984 . S
N1169 H1175 0.985 . S
C1170 C1164 1.379 . S
C1170 C1167 1.363 . S
C1170 N1168 1.356 . S
C1171 C1165 1.363 . S
C1171 C1166 1.379 . S
C1171 N1169 1.356 . S
N1172 C1164 1.356 . S
N1172 H1178 0.984 . S
N1172 H1179 0.984 . S
N1173 C1166 1.356 . S
N1173 H1176 0.984 . S
N1173 H1177 0.985 . S
H1174 N1169 0.984 . S
H1175 N1169 0.985 . S
H1176 N1173 0.984 . S
H1177 N1173 0.985 . S
H1178 N1172 0.984 . S
H1179 N1172 0.984 . S
H1180 N1168 0.984 . S
H1181 N1168 0.985 . S
C1182 C1183 1.363 . S
C1182 C1188 1.379 . S
C1182 N1190 1.356 . S
C1183 C1182 1.363 . S
C1183 C1189 1.363 1_556 S
C1184 C1185 1.363 . S
C1184 C1189 1.379 1_556 S
C1184 N1191 1.356 1_556 S
C1185 C1184 1.363 . S
C1185 C1188 1.363 . S
N1186 C1188 1.356 . S
N1186 H1198 0.984 . S
N1186 H1199 0.985 . S
N1187 C1189 1.356 . S
N1187 H1192 0.984 . S
N1187 H1193 0.985 . S
C1188 C1182 1.379 . S
C1188 C1185 1.363 . S
C1188 N1186 1.356 . S
C1189 C1183 1.363 1_554 S
C1189 C1184 1.379 1_554 S
C1189 N1187 1.356 . S
N1190 C1182 1.356 . S
N1190 H1196 0.984 . S
N1190 H1197 0.984 . S
N1191 C1184 1.356 1_554 S
N1191 H1194 0.984 . S
N1191 H1195 0.985 . S
H1192 N1187 0.984 . S
H1193 N1187 0.985 . S
H1194 N1191 0.984 . S
H1195 N1191 0.985 . S
H1196 N1190 0.984 . S
H1197 N1190 0.984 . S
H1198 N1186 0.984 . S
H1199 N1186 0.985 . S
C1200 C1201 1.363 . S
C1200 C1206 1.379 . S
C1200 N1208 1.356 . S
C1201 C1200 1.363 . S
C1201 C1207 1.363 1_556 S
C1202 C1203 1.363 1_554 S
C1202 C1207 1.379 . S
C1202 N1209 1.356 . S
C1203 C1202 1.363 1_556 S
C1203 C1206 1.363 . S
N1204 C1206 1.356 . S
N1204 H1216 0.984 . S
N1204 H1217 0.985 . S
N1205 C1207 1.356 . S
N1205 H1210 0.984 . S
N1205 H1211 0.985 . S
C1206 C1200 1.379 . S
C1206 C1203 1.363 . S
C1206 N1204 1.356 . S
C1207 C1201 1.363 1_554 S
C1207 C1202 1.379 . S
C1207 N1205 1.356 . S
N1208 C1200 1.356 . S
N1208 H1214 0.984 . S
N1208 H1215 0.984 . S
N1209 C1202 1.356 . S
N1209 H1212 0.984 . S
N1209 H1213 0.985 . S
H1210 N1205 0.984 . S
H1211 N1205 0.985 . S
H1212 N1209 0.984 . S
H1213 N1209 0.985 . S
H1214 N1208 0.984 . S
H1215 N1208 0.984 . S
H1216 N1204 0.984 . S
H1217 N1204 0.985 . S
C1218 C1219 1.363 1_556 S
C1218 C1224 1.380 . S
C1218 N1226 1.356 . S
C1219 C1218 1.363 1_554 S
C1219 C1225 1.363 . S
C1220 C1221 1.363 . S
C1220 C1225 1.379 . S
C1220 N1227 1.356 . S
C1221 C1220 1.363 . S
C1221 C1224 1.355 1_554 S
N1222 C1224 1.362 . S
N1222 H1234 0.984 . S
N1222 H1235 0.985 1_655 S
N1223 C1225 1.356 . S
N1223 H1228 0.984 . S
N1223 H1229 0.985 . S
C1224 C1218 1.380 . S
C1224 C1221 1.355 1_556 S
C1224 N1222 1.362 . S
C1225 C1219 1.363 . S
C1225 C1220 1.379 . S
C1225 N1223 1.356 . S
N1226 C1218 1.356 . S
N1226 H1232 0.984 . S
N1226 H1233 0.984 . S
N1227 C1220 1.356 . S
N1227 H1230 0.984 1_655 S
N1227 H1231 0.985 . S
H1228 N1223 0.984 . S
H1229 N1223 0.985 . S
H1230 N1227 0.984 1_455 S
H1231 N1227 0.985 . S
H1232 N1226 0.984 . S
H1233 N1226 0.984 . S
H1234 N1222 0.984 . S
H1235 N1222 0.985 1_455 S
C1236 C1237 1.363 . S
C1236 C1242 1.379 . S
C1236 N1244 1.356 . S
C1237 C1236 1.363 . S
C1237 C1243 1.363 . S
C1238 C1239 1.363 . S
C1238 C1243 1.379 . S
C1238 N1245 1.356 . S
C1239 C1238 1.363 . S
C1239 C1242 1.363 . S
N1240 C1242 1.356 . S
N1240 H1252 0.984 . S
N1240 H1253 0.985 . S
N1241 C1243 1.356 . S
N1241 H1246 0.984 . S
N1241 H1247 0.985 1_455 S
C1242 C1236 1.379 . S
C1242 C1239 1.363 . S
C1242 N1240 1.356 . S
C1243 C1237 1.363 . S
C1243 C1238 1.379 . S
C1243 N1241 1.356 . S
N1244 C1236 1.356 . S
N1244 H1250 0.984 . S
N1244 H1251 0.984 . S
N1245 C1238 1.356 . S
N1245 H1248 0.984 . S
N1245 H1249 0.985 . S
H1246 N1241 0.984 . S
H1247 N1241 0.985 1_655 S
H1248 N1245 0.984 . S
H1249 N1245 0.985 . S
H1250 N1244 0.984 . S
H1251 N1244 0.984 . S
H1252 N1240 0.984 . S
H1253 N1240 0.985 . S
C1254 C1255 1.363 . S
C1254 C1260 1.379 . S
C1254 N1262 1.356 . S
C1255 C1254 1.363 . S
C1255 C1261 1.363 1_655 S
C1256 C1257 1.363 1_455 S
C1256 C1261 1.379 . S
C1256 N1263 1.356 . S
C1257 C1256 1.363 1_655 S
C1257 C1260 1.363 . S
N1258 C1260 1.356 . S
N1258 H1270 0.984 . S
N1258 H1271 0.985 . S
N1259 C1261 1.356 . S
N1259 H1264 0.984 . S
N1259 H1265 0.985 . S
C1260 C1254 1.379 . S
C1260 C1257 1.363 . S
C1260 N1258 1.356 . S
C1261 C1255 1.363 1_455 S
C1261 C1256 1.379 . S
C1261 N1259 1.356 . S
N1262 C1254 1.356 . S
N1262 H1268 0.984 . S
N1262 H1269 0.984 . S
N1263 C1256 1.356 . S
N1263 H1266 0.984 . S
N1263 H1267 0.985 . S
H1264 N1259 0.984 . S
H1265 N1259 0.985 . S
H1266 N1263 0.984 . S
H1267 N1263 0.985 . S
H1268 N1262 0.984 . S
H1269 N1262 0.984 . S
H1270 N1258 0.984 . S
H1271 N1258 0.985 . S
C1272 C1273 1.363 1_655 S
C1272 C1278 1.379 . S
C1272 N1280 1.356 . S
C1273 C1272 1.363 1_455 S
C1273 C1279 1.363 . S
C1274 C1275 1.363 . S
C1274 C1279 1.379 . S
C1274 N1281 1.356 . S
C1275 C1274 1.363 . S
C1275 C1278 1.363 1_455 S
N1276 C1278 1.356 . S
N1276 H1288 0.984 . S
N1276 H1289 0.985 . S
N1277 C1279 1.356 . S
N1277 H1282 0.984 . S
N1277 H1283 0.985 . S
C1278 C1272 1.379 . S
C1278 C1275 1.363 1_655 S
C1278 N1276 1.356 . S
C1279 C1273 1.363 . S
C1279 C1274 1.379 . S
C1279 N1277 1.356 . S
N1280 C1272 1.356 . S
N1280 H1286 0.984 . S
N1280 H1287 0.984 . S
N1281 C1274 1.356 . S
N1281 H1284 0.984 . S
N1281 H1285 0.985 . S
H1282 N1277 0.984 . S
H1283 N1277 0.985 . S
H1284 N1281 0.984 . S
H1285 N1281 0.985 . S
H1286 N1280 0.984 . S
H1287 N1280 0.984 . S
H1288 N1276 0.984 . S
H1289 N1276 0.985 . S
C1290 C1291 1.363 . S
C1290 C1296 1.379 . S
C1290 N1298 1.356 . S
C1291 C1290 1.363 . S
C1291 C1297 1.363 1_655 S
C1292 C1293 1.363 1_455 S
C1292 C1297 1.379 . S
C1292 N1299 1.356 . S
C1293 C1292 1.363 1_655 S
C1293 C1296 1.363 . S
N1294 C1296 1.356 . S
N1294 H1306 0.984 . S
N1294 H1307 0.985 . S
N1295 C1297 1.356 . S
N1295 H1300 0.984 . S
N1295 H1301 0.985 . S
C1296 C1290 1.379 . S
C1296 C1293 1.363 . S
C1296 N1294 1.356 . S
C1297 C1291 1.363 1_455 S
C1297 C1292 1.379 . S
C1297 N1295 1.356 . S
N1298 C1290 1.356 . S
N1298 H1304 0.984 . S
N1298 H1305 0.984 . S
N1299 C1292 1.356 . S
N1299 H1302 0.984 . S
N1299 H1303 0.985 . S
H1300 N1295 0.984 . S
H1301 N1295 0.985 . S
H1302 N1299 0.984 . S
H1303 N1299 0.985 . S
H1304 N1298 0.984 . S
H1305 N1298 0.984 . S
H1306 N1294 0.984 . S
H1307 N1294 0.985 . S
C1308 C1309 1.363 . S
C1308 C1314 1.379 . S
C1308 N1316 1.356 1_545 S
C1309 C1308 1.363 . S
C1309 C1315 1.363 . S
C1310 C1311 1.363 . S
C1310 C1315 1.379 . S
C1310 N1317 1.356 . S
C1311 C1310 1.363 . S
C1311 C1314 1.363 . S
N1312 C1314 1.356 1_565 S
N1312 H1324 0.984 . S
N1312 H1325 0.985 1_565 S
N1313 C1315 1.356 . S
N1313 H1318 0.984 . S
N1313 H1319 0.985 . S
C1314 C1308 1.379 . S
C1314 C1311 1.363 . S
C1314 N1312 1.356 1_545 S
C1315 C1309 1.363 . S
C1315 C1310 1.379 . S
C1315 N1313 1.356 . S
N1316 C1308 1.356 1_565 S
N1316 H1322 0.984 . S
N1316 H1323 0.984 . S
N1317 C1310 1.356 . S
N1317 H1320 0.984 . S
N1317 H1321 0.985 . S
H1318 N1313 0.984 . S
H1319 N1313 0.985 . S
H1320 N1317 0.984 . S
H1321 N1317 0.985 . S
H1322 N1316 0.984 . S
H1323 N1316 0.984 . S
H1324 N1312 0.984 . S
H1325 N1312 0.985 1_545 S
C1326 C1327 1.363 . S
C1326 C1332 1.379 . S
C1326 N1334 1.356 . S
C1327 C1326 1.363 . S
C1327 C1333 1.363 . S
C1328 C1329 1.363 . S
C1328 C1333 1.379 . S
C1328 N1335 1.356 . S
C1329 C1328 1.363 . S
C1329 C1332 1.363 . S
N1330 C1332 1.356 . S
N1330 H1342 0.984 . S
N1330 H1343 0.985 . S
N1331 C1333 1.356 . S
N1331 H1336 0.984 . S
N1331 H1337 0.985 . S
C1332 C1326 1.379 . S
C1332 C1329 1.363 . S
C1332 N1330 1.356 . S
C1333 C1327 1.363 . S
C1333 C1328 1.379 . S
C1333 N1331 1.356 . S
N1334 C1326 1.356 . S
N1334 H1340 0.984 . S
N1334 H1341 0.984 . S
N1335 C1328 1.356 . S
N1335 H1338 0.984 . S
N1335 H1339 0.985 . S
H1336 N1331 0.984 . S
H1337 N1331 0.985 . S
H1338 N1335 0.984 . S
H1339 N1335 0.985 . S
H1340 N1334 0.984 . S
H1341 N1334 0.984 . S
H1342 N1330 0.984 . S
H1343 N1330 0.985 . S
C1344 C1345 1.363 . S
C1344 C1350 1.379 . S
C1344 N1352 1.356 1_565 S
C1345 C1344 1.363 . S
C1345 C1351 1.363 . S
C1346 C1347 1.363 . S
C1346 C1351 1.379 . S
C1346 N1353 1.356 . S
C1347 C1346 1.363 . S
C1347 C1350 1.363 . S
N1348 C1350 1.356 . S
N1348 H1360 0.984 1_565 S
N1348 H1361 0.985 . S
N1349 C1351 1.356 . S
N1349 H1354 0.984 . S
N1349 H1355 0.985 . S
C1350 C1344 1.379 . S
C1350 C1347 1.363 . S
C1350 N1348 1.356 . S
C1351 C1345 1.363 . S
C1351 C1346 1.379 . S
C1351 N1349 1.356 . S
N1352 C1344 1.356 1_545 S
N1352 H1358 0.984 . S
N1352 H1359 0.984 . S
N1353 C1346 1.356 . S
N1353 H1356 0.984 . S
N1353 H1357 0.985 . S
H1354 N1349 0.984 . S
H1355 N1349 0.985 . S
H1356 N1353 0.984 . S
H1357 N1353 0.985 . S
H1358 N1352 0.984 . S
H1359 N1352 0.984 . S
H1360 N1348 0.984 1_545 S
H1361 N1348 0.985 . S
C1362 C1363 1.363 . S
C1362 C1368 1.379 . S
C1362 N1370 1.356 . S
C1363 C1362 1.363 . S
C1363 C1369 1.363 . S
C1364 C1365 1.363 . S
C1364 C1369 1.379 . S
C1364 N1371 1.356 . S
C1365 C1364 1.363 . S
C1365 C1368 1.363 . S
N1366 C1368 1.356 . S
N1366 H1378 0.984 . S
N1366 H1379 0.985 . S
N1367 C1369 1.356 . S
N1367 H1372 0.984 . S
N1367 H1373 0.985 . S
C1368 C1362 1.379 . S
C1368 C1365 1.363 . S
C1368 N1366 1.356 . S
C1369 C1363 1.363 . S
C1369 C1364 1.379 . S
C1369 N1367 1.356 . S
N1370 C1362 1.356 . S
N1370 H1376 0.984 . S
N1370 H1377 0.984 . S
N1371 C1364 1.356 . S
N1371 H1374 0.984 . S
N1371 H1375 0.985 . S
H1372 N1367 0.984 . S
H1373 N1367 0.985 . S
H1374 N1371 0.984 . S
H1375 N1371 0.985 . S
H1376 N1370 0.984 . S
H1377 N1370 0.984 . S
H1378 N1366 0.984 . S
H1379 N1366 0.985 . S
C1380 C1381 1.363 . S
C1380 C1386 1.379 . S
C1380 N1388 1.356 . S
C1381 C1380 1.363 . S
C1381 C1387 1.363 1_554 S
C1382 C1383 1.363 1_556 S
C1382 C1387 1.379 . S
C1382 N1389 1.356 . S
C1383 C1382 1.363 1_554 S
C1383 C1386 1.363 . S
N1384 C1386 1.356 . S
N1384 H1396 0.984 . S
N1384 H1397 0.985 . S
N1385 C1387 1.356 . S
N1385 H1390 0.984 . S
N1385 H1391 0.985 . S
C1386 C1380 1.379 . S
C1386 C1383 1.363 . S
C1386 N1384 1.356 . S
C1387 C1381 1.363 1_556 S
C1387 C1382 1.379 . S
C1387 N1385 1.356 . S
N1388 C1380 1.356 . S
N1388 H1394 0.984 . S
N1388 H1395 0.984 . S
N1389 C1382 1.356 . S
N1389 H1392 0.984 . S
N1389 H1393 0.985 . S
H1390 N1385 0.984 . S
H1391 N1385 0.985 . S
H1392 N1389 0.984 . S
H1393 N1389 0.985 . S
H1394 N1388 0.984 . S
H1395 N1388 0.984 . S
H1396 N1384 0.984 . S
H1397 N1384 0.985 . S
C1398 C1399 1.363 . S
C1398 C1404 1.379 . S
C1398 N1406 1.356 . S
C1399 C1398 1.363 . S
C1399 C1405 1.363 . S
C1400 C1401 1.363 . S
C1400 C1405 1.379 . S
C1400 N1407 1.356 . S
C1401 C1400 1.363 . S
C1401 C1404 1.363 . S
N1402 C1404 1.356 . S
N1402 H1414 0.984 . S
N1402 H1415 0.985 . S
N1403 C1405 1.356 . S
N1403 H1408 0.984 . S
N1403 H1409 0.985 . S
C1404 C1398 1.379 . S
C1404 C1401 1.363 . S
C1404 N1402 1.356 . S
C1405 C1399 1.363 . S
C1405 C1400 1.379 . S
C1405 N1403 1.356 . S
N1406 C1398 1.356 . S
N1406 H1412 0.984 . S
N1406 H1413 0.984 . S
N1407 C1400 1.356 . S
N1407 H1410 0.984 . S
N1407 H1411 0.985 . S
H1408 N1403 0.984 . S
H1409 N1403 0.985 . S
H1410 N1407 0.984 . S
H1411 N1407 0.985 . S
H1412 N1406 0.984 . S
H1413 N1406 0.984 . S
H1414 N1402 0.984 . S
H1415 N1402 0.985 . S
C1416 C1417 1.363 . S
C1416 C1422 1.379 . S
C1416 N1424 1.356 . S
C1417 C1416 1.363 . S
C1417 C1423 1.363 . S
C1418 C1419 1.363 . S
C1418 C1423 1.379 . S
C1418 N1425 1.356 . S
C1419 C1418 1.363 . S
C1419 C1422 1.363 . S
N1420 C1422 1.356 . S
N1420 H1432 0.984 . S
N1420 H1433 0.985 . S
N1421 C1423 1.356 . S
N1421 H1426 0.984 . S
N1421 H1427 0.985 . S
C1422 C1416 1.379 . S
C1422 C1419 1.363 . S
C1422 N1420 1.356 . S
C1423 C1417 1.363 . S
C1423 C1418 1.379 . S
C1423 N1421 1.356 . S
N1424 C1416 1.356 . S
N1424 H1430 0.984 . S
N1424 H1431 0.984 . S
N1425 C1418 1.356 . S
N1425 H1428 0.984 . S
N1425 H1429 0.985 . S
H1426 N1421 0.984 . S
H1427 N1421 0.985 . S
H1428 N1425 0.984 . S
H1429 N1425 0.985 . S
H1430 N1424 0.984 . S
H1431 N1424 0.984 . S
H1432 N1420 0.984 . S
H1433 N1420 0.985 . S
C1434 C1435 1.363 . S
C1434 C1440 1.379 . S
C1434 N1442 1.356 . S
C1435 C1434 1.363 . S
C1435 C1441 1.363 . S
C1436 C1437 1.363 . S
C1436 C1441 1.379 . S
C1436 N1443 1.356 . S
C1437 C1436 1.363 . S
C1437 C1440 1.363 . S
N1438 C1440 1.356 . S
N1438 H1450 0.984 . S
N1438 H1451 0.985 . S
N1439 C1441 1.356 . S
N1439 H1444 0.984 . S
N1439 H1445 0.985 . S
C1440 C1434 1.379 . S
C1440 C1437 1.363 . S
C1440 N1438 1.356 . S
C1441 C1435 1.363 . S
C1441 C1436 1.379 . S
C1441 N1439 1.356 . S
N1442 C1434 1.356 . S
N1442 H1448 0.984 . S
N1442 H1449 0.984 . S
N1443 C1436 1.356 . S
N1443 H1446 0.984 . S
N1443 H1447 0.985 . S
H1444 N1439 0.984 . S
H1445 N1439 0.985 . S
H1446 N1443 0.984 . S
H1447 N1443 0.985 . S
H1448 N1442 0.984 . S
H1449 N1442 0.984 . S
H1450 N1438 0.984 . S
H1451 N1438 0.985 . S
C1452 C1453 1.363 . S
C1452 C1458 1.379 . S
C1452 N1460 1.356 . S
C1453 C1452 1.363 . S
C1453 C1459 1.363 . S
C1454 C1455 1.363 . S
C1454 C1459 1.379 . S
C1454 N1461 1.356 . S
C1455 C1454 1.363 . S
C1455 C1458 1.363 . S
N1456 C1458 1.356 . S
N1456 H1468 0.984 . S
N1456 H1469 0.985 . S
N1457 C1459 1.356 . S
N1457 H1462 0.984 . S
N1457 H1463 0.985 . S
C1458 C1452 1.379 . S
C1458 C1455 1.363 . S
C1458 N1456 1.356 . S
C1459 C1453 1.363 . S
C1459 C1454 1.379 . S
C1459 N1457 1.356 . S
N1460 C1452 1.356 . S
N1460 H1466 0.984 . S
N1460 H1467 0.984 . S
N1461 C1454 1.356 . S
N1461 H1464 0.984 . S
N1461 H1465 0.985 . S
H1462 N1457 0.984 . S
H1463 N1457 0.985 . S
H1464 N1461 0.984 . S
H1465 N1461 0.985 . S
H1466 N1460 0.984 . S
H1467 N1460 0.984 . S
H1468 N1456 0.984 . S
H1469 N1456 0.985 . S
C1470 C1471 1.363 . S
C1470 C1476 1.379 . S
C1470 N1478 1.356 . S
C1471 C1470 1.363 . S
C1471 C1477 1.363 . S
C1472 C1473 1.363 . S
C1472 C1477 1.379 . S
C1472 N1479 1.356 . S
C1473 C1472 1.363 . S
C1473 C1476 1.363 . S
N1474 C1476 1.356 . S
N1474 H1486 0.984 . S
N1474 H1487 0.985 . S
N1475 C1477 1.356 . S
N1475 H1480 0.984 . S
N1475 H1481 0.985 . S
C1476 C1470 1.379 . S
C1476 C1473 1.363 . S
C1476 N1474 1.356 . S
C1477 C1471 1.363 . S
C1477 C1472 1.379 . S
C1477 N1475 1.356 . S
N1478 C1470 1.356 . S
N1478 H1484 0.984 . S
N1478 H1485 0.984 . S
N1479 C1472 1.356 . S
N1479 H1482 0.984 . S
N1479 H1483 0.985 . S
H1480 N1475 0.984 . S
H1481 N1475 0.985 . S
H1482 N1479 0.984 . S
H1483 N1479 0.985 . S
H1484 N1478 0.984 . S
H1485 N1478 0.984 . S
H1486 N1474 0.984 . S
H1487 N1474 0.985 . S
C1488 C1489 1.363 . S
C1488 C1494 1.379 . S
C1488 N1496 1.356 . S
C1489 C1488 1.363 . S
C1489 C1495 1.363 . S
C1490 C1491 1.363 . S
C1490 C1495 1.379 . S
C1490 N1497 1.356 . S
C1491 C1490 1.363 . S
C1491 C1494 1.363 . S
N1492 C1494 1.356 . S
N1492 H1504 0.984 . S
N1492 H1505 0.985 . S
N1493 C1495 1.356 . S
N1493 H1498 0.984 . S
N1493 H1499 0.985 . S
C1494 C1488 1.379 . S
C1494 C1491 1.363 . S
C1494 N1492 1.356 . S
C1495 C1489 1.363 . S
C1495 C1490 1.379 . S
C1495 N1493 1.356 . S
N1496 C1488 1.356 . S
N1496 H1502 0.984 . S
N1496 H1503 0.984 . S
N1497 C1490 1.356 . S
N1497 H1500 0.984 . S
N1497 H1501 0.985 . S
H1498 N1493 0.984 . S
H1499 N1493 0.985 . S
H1500 N1497 0.984 . S
H1501 N1497 0.985 . S
H1502 N1496 0.984 . S
H1503 N1496 0.984 . S
H1504 N1492 0.984 . S
H1505 N1492 0.985 . S
C1506 C1507 1.363 . S
C1506 C1512 1.379 . S
C1506 N1514 1.356 . S
C1507 C1506 1.363 . S
C1507 C1513 1.363 . S
C1508 C1509 1.363 . S
C1508 C1513 1.379 . S
C1508 N1515 1.356 . S
C1509 C1508 1.363 . S
C1509 C1512 1.363 . S
N1510 C1512 1.356 . S
N1510 H1522 0.984 . S
N1510 H1523 0.985 . S
N1511 C1513 1.356 . S
N1511 H1516 0.984 . S
N1511 H1517 0.985 . S
C1512 C1506 1.379 . S
C1512 C1509 1.363 . S
C1512 N1510 1.356 . S
C1513 C1507 1.363 . S
C1513 C1508 1.379 . S
C1513 N1511 1.356 . S
N1514 C1506 1.356 . S
N1514 H1520 0.984 . S
N1514 H1521 0.984 . S
N1515 C1508 1.356 . S
N1515 H1518 0.984 . S
N1515 H1519 0.985 . S
H1516 N1511 0.984 . S
H1517 N1511 0.985 . S
H1518 N1515 0.984 . S
H1519 N1515 0.985 . S
H1520 N1514 0.984 . S
H1521 N1514 0.984 . S
H1522 N1510 0.984 . S
H1523 N1510 0.985 . S
C1524 C1525 1.363 . S
C1524 C1530 1.379 . S
C1524 N1532 1.356 . S
C1525 C1524 1.363 . S
C1525 C1531 1.363 . S
C1526 C1527 1.363 . S
C1526 C1531 1.379 . S
C1526 N1533 1.356 . S
C1527 C1526 1.363 . S
C1527 C1530 1.363 . S
N1528 C1530 1.356 . S
N1528 H1540 0.984 . S
N1528 H1541 0.985 . S
N1529 C1531 1.356 . S
N1529 H1534 0.984 . S
N1529 H1535 0.985 . S
C1530 C1524 1.379 . S
C1530 C1527 1.363 . S
C1530 N1528 1.356 . S
C1531 C1525 1.363 . S
C1531 C1526 1.379 . S
C1531 N1529 1.356 . S
N1532 C1524 1.356 . S
N1532 H1538 0.984 . S
N1532 H1539 0.984 . S
N1533 C1526 1.356 . S
N1533 H1536 0.984 . S
N1533 H1537 0.985 . S
H1534 N1529 0.984 . S
H1535 N1529 0.985 . S
H1536 N1533 0.984 . S
H1537 N1533 0.985 . S
H1538 N1532 0.984 . S
H1539 N1532 0.984 . S
H1540 N1528 0.984 . S
H1541 N1528 0.985 . S
C1542 C1543 1.363 . S
C1542 C1548 1.379 . S
C1542 N1550 1.356 . S
C1543 C1542 1.363 . S
C1543 C1549 1.363 1_565 S
C1544 C1545 1.342 1_545 S
C1544 C1549 1.380 . S
C1544 N1551 1.372 . S
C1545 C1544 1.342 1_565 S
C1545 C1548 1.363 . S
N1546 C1548 1.356 . S
N1546 H1558 0.984 . S
N1546 H1559 0.985 . S
N1547 C1549 1.356 . S
N1547 H1552 0.984 . S
N1547 H1553 0.985 . S
C1548 C1542 1.379 . S
C1548 C1545 1.363 . S
C1548 N1546 1.356 . S
C1549 C1543 1.363 1_545 S
C1549 C1544 1.380 . S
C1549 N1547 1.356 . S
N1550 C1542 1.356 . S
N1550 H1556 0.984 . S
N1550 H1557 0.984 . S
N1551 C1544 1.372 . S
N1551 H1554 0.984 . S
N1551 H1555 0.985 . S
H1552 N1547 0.984 . S
H1553 N1547 0.985 . S
H1554 N1551 0.984 . S
H1555 N1551 0.985 . S
H1556 N1550 0.984 . S
H1557 N1550 0.984 . S
H1558 N1546 0.984 . S
H1559 N1546 0.985 . S
C1560 C1561 1.363 . S
C1560 C1566 1.379 . S
C1560 N1568 1.356 . S
C1561 C1560 1.363 . S
C1561 C1567 1.363 . S
C1562 C1563 1.363 . S
C1562 C1567 1.379 . S
C1562 N1569 1.356 . S
C1563 C1562 1.363 . S
C1563 C1566 1.363 . S
N1564 C1566 1.356 . S
N1564 H1576 0.984 . S
N1564 H1577 0.985 . S
N1565 C1567 1.356 . S
N1565 H1570 0.984 . S
N1565 H1571 0.985 . S
C1566 C1560 1.379 . S
C1566 C1563 1.363 . S
C1566 N1564 1.356 . S
C1567 C1561 1.363 . S
C1567 C1562 1.379 . S
C1567 N1565 1.356 . S
N1568 C1560 1.356 . S
N1568 H1574 0.984 . S
N1568 H1575 0.984 . S
N1569 C1562 1.356 . S
N1569 H1572 0.984 . S
N1569 H1573 0.985 . S
H1570 N1565 0.984 . S
H1571 N1565 0.985 . S
H1572 N1569 0.984 . S
H1573 N1569 0.985 . S
H1574 N1568 0.984 . S
H1575 N1568 0.984 . S
H1576 N1564 0.984 . S
H1577 N1564 0.985 . S
C1578 C1579 1.363 . S
C1578 C1584 1.379 . S
C1578 N1586 1.356 . S
C1579 C1578 1.363 . S
C1579 C1585 1.363 . S
C1580 C1581 1.363 . S
C1580 C1585 1.379 . S
C1580 N1587 1.356 1_545 S
C1581 C1580 1.363 . S
C1581 C1584 1.363 . S
N1582 C1584 1.356 . S
N1582 H1594 0.984 . S
N1582 H1595 0.985 . S
N1583 C1585 1.356 1_565 S
N1583 H1588 0.984 . S
N1583 H1589 0.985 . S
C1584 C1578 1.379 . S
C1584 C1581 1.363 . S
C1584 N1582 1.356 . S
C1585 C1579 1.363 . S
C1585 C1580 1.379 . S
C1585 N1583 1.356 1_545 S
N1586 C1578 1.356 . S
N1586 H1592 0.984 . S
N1586 H1593 0.984 . S
N1587 C1580 1.356 1_565 S
N1587 H1590 0.984 . S
N1587 H1591 0.985 . S
H1588 N1583 0.984 . S
H1589 N1583 0.985 . S
H1590 N1587 0.984 . S
H1591 N1587 0.985 . S
H1592 N1586 0.984 . S
H1593 N1586 0.984 . S
H1594 N1582 0.984 . S
H1595 N1582 0.985 . S
C1596 C1597 1.363 . S
C1596 C1602 1.379 . S
C1596 N1604 1.356 . S
C1597 C1596 1.363 . S
C1597 C1603 1.363 . S
C1598 C1599 1.363 . S
C1598 C1603 1.379 . S
C1598 N1605 1.356 . S
C1599 C1598 1.363 . S
C1599 C1602 1.363 . S
N1600 C1602 1.356 . S
N1600 H1612 0.984 . S
N1600 H1613 0.985 . S
N1601 C1603 1.356 . S
N1601 H1606 0.984 . S
N1601 H1607 0.985 . S
C1602 C1596 1.379 . S
C1602 C1599 1.363 . S
C1602 N1600 1.356 . S
C1603 C1597 1.363 . S
C1603 C1598 1.379 . S
C1603 N1601 1.356 . S
N1604 C1596 1.356 . S
N1604 H1610 0.984 . S
N1604 H1611 0.984 . S
N1605 C1598 1.356 . S
N1605 H1608 0.984 . S
N1605 H1609 0.985 . S
H1606 N1601 0.984 . S
H1607 N1601 0.985 . S
H1608 N1605 0.984 . S
H1609 N1605 0.985 . S
H1610 N1604 0.984 . S
H1611 N1604 0.984 . S
H1612 N1600 0.984 . S
H1613 N1600 0.985 . S
C1614 C1615 1.363 . S
C1614 C1620 1.379 . S
C1614 N1622 1.356 . S
C1615 C1614 1.363 . S
C1615 C1621 1.363 1_556 S
C1616 C1617 1.356 1_554 S
C1616 C1621 1.379 . S
C1616 N1623 1.356 . S
C1617 C1616 1.356 1_556 S
C1617 C1620 1.372 . S
N1618 C1620 1.356 . S
N1618 H1630 0.984 . S
N1618 H1631 0.985 . S
N1619 C1621 1.356 . S
N1619 H1624 0.984 . S
N1619 H1625 0.985 . S
C1620 C1614 1.379 . S
C1620 C1617 1.372 . S
C1620 N1618 1.356 . S
C1621 C1615 1.363 1_554 S
C1621 C1616 1.379 . S
C1621 N1619 1.356 . S
N1622 C1614 1.356 . S
N1622 H1628 0.984 . S
N1622 H1629 0.984 . S
N1623 C1616 1.356 . S
N1623 H1626 0.984 . S
N1623 H1627 0.985 . S
H1624 N1619 0.984 . S
H1625 N1619 0.985 . S
H1626 N1623 0.984 . S
H1627 N1623 0.985 . S
H1628 N1622 0.984 . S
H1629 N1622 0.984 . S
H1630 N1618 0.984 . S
H1631 N1618 0.985 . S
C1632 C1633 1.363 . S
C1632 C1638 1.379 . S
C1632 N1640 1.356 . S
C1633 C1632 1.363 . S
C1633 C1639 1.363 1_556 S
C1634 C1635 1.363 1_554 S
C1634 C1639 1.379 . S
C1634 N1641 1.356 . S
C1635 C1634 1.363 1_556 S
C1635 C1638 1.363 . S
N1636 C1638 1.356 . S
N1636 H1648 0.984 . S
N1636 H1649 0.985 . S
N1637 C1639 1.356 . S
N1637 H1642 0.984 . S
N1637 H1643 0.985 . S
C1638 C1632 1.379 . S
C1638 C1635 1.363 . S
C1638 N1636 1.356 . S
C1639 C1633 1.363 1_554 S
C1639 C1634 1.379 . S
C1639 N1637 1.356 . S
N1640 C1632 1.356 . S
N1640 H1646 0.984 . S
N1640 H1647 0.984 . S
N1641 C1634 1.356 . S
N1641 H1644 0.984 . S
N1641 H1645 0.985 . S
H1642 N1637 0.984 . S
H1643 N1637 0.985 . S
H1644 N1641 0.984 . S
H1645 N1641 0.985 . S
H1646 N1640 0.984 . S
H1647 N1640 0.984 . S
H1648 N1636 0.984 . S
H1649 N1636 0.985 . S
C1650 C1651 1.363 1_556 S
C1650 C1656 1.379 . S
C1650 N1658 1.356 . S
C1651 C1650 1.363 1_554 S
C1651 C1657 1.363 . S
C1652 C1653 1.363 . S
C1652 C1657 1.379 . S
C1652 N1659 1.356 . S
C1653 C1652 1.363 . S
C1653 C1656 1.363 1_554 S
N1654 C1656 1.356 . S
N1654 H1666 0.984 . S
N1654 H1667 0.985 . S
N1655 C1657 1.356 . S
N1655 H1660 0.984 . S
N1655 H1661 0.985 . S
C1656 C1650 1.379 . S
C1656 C1653 1.363 1_556 S
C1656 N1654 1.356 . S
C1657 C1651 1.363 . S
C1657 C1652 1.379 . S
C1657 N1655 1.356 . S
N1658 C1650 1.356 . S
N1658 H1664 0.984 . S
N1658 H1665 0.984 . S
N1659 C1652 1.356 . S
N1659 H1662 0.984 . S
N1659 H1663 0.985 . S
H1660 N1655 0.984 . S
H1661 N1655 0.985 . S
H1662 N1659 0.984 . S
H1663 N1659 0.985 . S
H1664 N1658 0.984 . S
H1665 N1658 0.984 . S
H1666 N1654 0.984 . S
H1667 N1654 0.985 . S
C805 C22 1.668 . S
C807 C697 1.623 . S
C825 C702 1.706 . S
C823 C38 1.777 . S
C843 C640 1.569 . S
C841 C75 1.678 . S
C859 C91 1.699 . S
C861 C664 1.619 . S
C877 C128 1.683 . S
C879 C802 1.635 . S
C895 C197 1.667 . S
C897 C769 1.614 . S
C915 C723 1.712 . S
C913 C144 1.825 . S
C931 C181 1.657 . S
C933 C757 1.575 . S
C951 C676 1.675 . S
C949 C234 1.716 . S
C969 C703 1.648 . S
C967 C303 1.734 . S
C985 C356 1.725 . S
C987 C694 1.636 . S
C1003 C287 1.739 . S
C1005 C760 1.629 . S
C1023 C781 1.586 . S
C1021 C393 1.620 . S
C1041 C799 1.763 . S
C1039 C409 1.829 . S
C1057 C462 1.884 . S
C1059 C748 1.769 . S
C1077 C724 1.456 . S
C1075 C446 1.546 . S
C1093 C499 1.662 . S
C1095 C719 1.616 . S
C1111 C552 1.577 . S
C1113 C685 1.513 . S
C1131 C673 1.606 . S
C1129 C515 1.682 . S
C1147 C568 1.954 . S
C1149 C639 1.838 . S
C1167 C740 1.731 . S
C1165 C340 1.785 . S
C1185 C790 1.562 . S
C1183 C621 1.646 . S
C1201 C250 1.661 . S
C1203 C778 1.615 1_556 S
C1219 C605 1.660 . S
C1221 C656 1.574 1_655 S
C1239 C655 1.362 . S
C1237 C39 1.511 . S
C1255 C29 1.252 . S
C1257 C677 1.116 . S
C1275 C682 1.262 . S
C1273 C92 1.545 . S
C1293 C715 1.145 . S
C1291 C82 1.335 . S
C1309 C145 1.522 . S
C1311 C652 1.342 . S
C1327 C188 1.296 . S
C1329 C660 1.111 . S
C1347 C698 1.198 . S
C1345 C135 1.326 . S
C1363 C198 1.527 . S
C1365 C706 1.259 . S
C1381 C251 1.467 . S
C1383 C643 1.268 . S
C1401 C681 1.141 . S
C1399 C294 1.293 . S
C1417 C347 1.320 . S
C1419 C718 1.175 . S
C1435 C304 1.568 . S
C1437 C727 1.320 . S
C1455 C761 1.315 . S
C1453 C410 1.496 . S
C1471 C400 1.277 . S
C1473 C739 1.179 . S
C1489 C453 1.278 . S
C1491 C766 1.072 . S
C1507 C463 1.645 . S
C1509 C786 1.353 . S
C1525 C516 1.542 . S
C1527 C744 1.352 . S
C1545 C736 1.353 . S
C1543 C569 1.565 . S
C1561 C506 1.253 . S
C1563 C782 1.089 . S
C1581 C787 1.140 . S
C1579 C559 1.314 . S
C1599 C745 1.297 . S
C1597 C357 1.451 . S
C1617 C765 1.133 . S
C1615 C612 1.349 . S
C1635 C803 1.121 . S
C1633 C241 1.255 . S
C1651 C622 1.513 . S
C1653 C661 1.241 . S
