# Generated by pormake.
# Topology ocu, (6,8)-cn, num edge types: 1
# Building blocks:
#     Node 0, Type 0, BuildingBlock: KUMBOL_clean_sbu_1, # of connection points: 6
#     Node 1, Type 0, BuildingBlock: KUMBOL_clean_sbu_1, # of connection points: 6
#     Node 2, Type 0, BuildingBlock: KUMBOL_clean_sbu_1, # of connection points: 6
#     Node 3, Type 0, BuildingBlock: KUMBOL_clean_sbu_1, # of connection points: 6
#     Node 4, Type 0, BuildingBlock: KUMBOL_clean_sbu_1, # of connection points: 6
#     Node 5, Type 0, BuildingBlock: KUMBOL_clean_sbu_1, # of connection points: 6
#     Node 6, Type 0, BuildingBlock: KUMBOL_clean_sbu_1, # of connection points: 6
#     Node 7, Type 0, BuildingBlock: KUMBOL_clean_sbu_1, # of connection points: 6
#     Node 8, Type 1, BuildingBlock: VETTIZ_charged_sbu_0, # of connection points: 8
#     Node 9, Type 1, BuildingBlock: VETTIZ_charged_sbu_0, # of connection points: 8
#     Node 10, Type 1, BuildingBlock: VETTIZ_charged_sbu_0, # of connection points: 8
#     Node 11, Type 1, BuildingBlock: VETTIZ_charged_sbu_0, # of connection points: 8
#     Node 12, Type 1, BuildingBlock: VETTIZ_charged_sbu_0, # of connection points: 8
#     Node 13, Type 1, BuildingBlock: VETTIZ_charged_sbu_0, # of connection points: 8
#     Edge 14, Type (0, 1), BuildingBlock: UVAHIK_clean_linker_0, # of connection points: 2
#     Edge 15, Type (0, 1), BuildingBlock: UVAHIK_clean_linker_0, # of connection points: 2
#     Edge 16, Type (0, 1), BuildingBlock: UVAHIK_clean_linker_0, # of connection points: 2
#     Edge 17, Type (0, 1), BuildingBlock: UVAHIK_clean_linker_0, # of connection points: 2
#     Edge 18, Type (0, 1), BuildingBlock: UVAHIK_clean_linker_0, # of connection points: 2
#     Edge 19, Type (0, 1), BuildingBlock: UVAHIK_clean_linker_0, # of connection points: 2
#     Edge 20, Type (0, 1), BuildingBlock: UVAHIK_clean_linker_0, # of connection points: 2
#     Edge 21, Type (0, 1), BuildingBlock: UVAHIK_clean_linker_0, # of connection points: 2
#     Edge 22, Type (0, 1), BuildingBlock: UVAHIK_clean_linker_0, # of connection points: 2
#     Edge 23, Type (0, 1), BuildingBlock: UVAHIK_clean_linker_0, # of connection points: 2
#     Edge 24, Type (0, 1), BuildingBlock: UVAHIK_clean_linker_0, # of connection points: 2
#     Edge 25, Type (0, 1), BuildingBlock: UVAHIK_clean_linker_0, # of connection points: 2
#     Edge 26, Type (0, 1), BuildingBlock: UVAHIK_clean_linker_0, # of connection points: 2
#     Edge 27, Type (0, 1), BuildingBlock: UVAHIK_clean_linker_0, # of connection points: 2
#     Edge 28, Type (0, 1), BuildingBlock: UVAHIK_clean_linker_0, # of connection points: 2
#     Edge 29, Type (0, 1), BuildingBlock: UVAHIK_clean_linker_0, # of connection points: 2
#     Edge 30, Type (0, 1), BuildingBlock: UVAHIK_clean_linker_0, # of connection points: 2
#     Edge 31, Type (0, 1), BuildingBlock: UVAHIK_clean_linker_0, # of connection points: 2
#     Edge 32, Type (0, 1), BuildingBlock: UVAHIK_clean_linker_0, # of connection points: 2
#     Edge 33, Type (0, 1), BuildingBlock: UVAHIK_clean_linker_0, # of connection points: 2
#     Edge 34, Type (0, 1), BuildingBlock: UVAHIK_clean_linker_0, # of connection points: 2
#     Edge 35, Type (0, 1), BuildingBlock: UVAHIK_clean_linker_0, # of connection points: 2
#     Edge 36, Type (0, 1), BuildingBlock: UVAHIK_clean_linker_0, # of connection points: 2
#     Edge 37, Type (0, 1), BuildingBlock: UVAHIK_clean_linker_0, # of connection points: 2
#     Edge 38, Type (0, 1), BuildingBlock: UVAHIK_clean_linker_0, # of connection points: 2
#     Edge 39, Type (0, 1), BuildingBlock: UVAHIK_clean_linker_0, # of connection points: 2
#     Edge 40, Type (0, 1), BuildingBlock: UVAHIK_clean_linker_0, # of connection points: 2
#     Edge 41, Type (0, 1), BuildingBlock: UVAHIK_clean_linker_0, # of connection points: 2
#     Edge 42, Type (0, 1), BuildingBlock: UVAHIK_clean_linker_0, # of connection points: 2
#     Edge 43, Type (0, 1), BuildingBlock: UVAHIK_clean_linker_0, # of connection points: 2
#     Edge 44, Type (0, 1), BuildingBlock: UVAHIK_clean_linker_0, # of connection points: 2
#     Edge 45, Type (0, 1), BuildingBlock: UVAHIK_clean_linker_0, # of connection points: 2
#     Edge 46, Type (0, 1), BuildingBlock: UVAHIK_clean_linker_0, # of connection points: 2
#     Edge 47, Type (0, 1), BuildingBlock: UVAHIK_clean_linker_0, # of connection points: 2
#     Edge 48, Type (0, 1), BuildingBlock: UVAHIK_clean_linker_0, # of connection points: 2
#     Edge 49, Type (0, 1), BuildingBlock: UVAHIK_clean_linker_0, # of connection points: 2
#     Edge 50, Type (0, 1), BuildingBlock: UVAHIK_clean_linker_0, # of connection points: 2
#     Edge 51, Type (0, 1), BuildingBlock: UVAHIK_clean_linker_0, # of connection points: 2
#     Edge 52, Type (0, 1), BuildingBlock: UVAHIK_clean_linker_0, # of connection points: 2
#     Edge 53, Type (0, 1), BuildingBlock: UVAHIK_clean_linker_0, # of connection points: 2
#     Edge 54, Type (0, 1), BuildingBlock: UVAHIK_clean_linker_0, # of connection points: 2
#     Edge 55, Type (0, 1), BuildingBlock: UVAHIK_clean_linker_0, # of connection points: 2
#     Edge 56, Type (0, 1), BuildingBlock: UVAHIK_clean_linker_0, # of connection points: 2
#     Edge 57, Type (0, 1), BuildingBlock: UVAHIK_clean_linker_0, # of connection points: 2
#     Edge 58, Type (0, 1), BuildingBlock: UVAHIK_clean_linker_0, # of connection points: 2
#     Edge 59, Type (0, 1), BuildingBlock: UVAHIK_clean_linker_0, # of connection points: 2
#     Edge 60, Type (0, 1), BuildingBlock: UVAHIK_clean_linker_0, # of connection points: 2
#     Edge 61, Type (0, 1), BuildingBlock: UVAHIK_clean_linker_0, # of connection points: 2
# Relax obj value: 0.058
# Max RMSD: 0.138
# Mean RMSD: 0.098
data_MOF--net-ocu--node1-KUMBOL_clean_sbu_1--node2-VETTIZ_charged_sbu_0--edge1-UVAHIK_clean_linker_0
_symmetry_space_group_name_H-M    P1
_symmetry_Int_Tables_number       1
_symmetry_cell_setting            triclinic
loop_
_symmetry_equiv_pos_as_xyz
'x, y, z'
_cell_length_a     49.466899
_cell_length_b     49.825622
_cell_length_c     51.943294
_cell_angle_alpha  98.374069
_cell_angle_beta   82.015373
_cell_angle_gamma 101.52046
loop_
_atom_site_label
_atom_site_type_symbol
_atom_site_fract_x
_atom_site_fract_y
_atom_site_fract_z
_atom_type_partial_charge
C0 C 0.29782 0.32563 0.32937 0.0
C1 C 0.26369 0.31792 0.36719 0.0
C2 C 0.27659 0.3084 0.34256 0.0
C3 C 0.27135 0.3456 0.37768 0.0
C4 C 0.3066 0.35302 0.34053 0.0
C5 C 0.29272 0.36314 0.36434 0.0
N6 N 0.31124 0.31499 0.3067 0.0
C7 C 0.33539 0.32974 0.29589 0.0
C8 C 0.32982 0.36906 0.32802 0.0
C9 C 0.34461 0.35717 0.30589 0.0
Gd10 Gd 0.24491 0.26526 0.23192 0.0
Gd11 Gd 0.2924 0.26931 0.29051 0.0
N12 N 0.26931 0.28187 0.33172 0.0
C13 C 0.24407 0.29911 0.38085 0.0
C14 C 0.25162 0.26301 0.34562 0.0
C15 C 0.2384 0.2714 0.37022 0.0
H16 H 0.24751 0.24162 0.33747 0.0
H17 H 0.22385 0.25654 0.38092 0.0
H18 H 0.28332 0.31162 0.19367 0.0
H19 H 0.34794 0.32035 0.27977 0.0
H20 H 0.31113 0.31151 0.15057 0.0
H21 H 0.23375 0.30559 0.39987 0.0
H22 H 0.26142 0.35343 0.39642 0.0
H23 H 0.20991 0.20093 0.23504 0.0
H24 H 0.33723 0.39019 0.33595 0.0
H25 H 0.36339 0.36895 0.2968 0.0
H26 H 0.29307 0.21686 0.11273 0.0
H27 H 0.29899 0.38421 0.37305 0.0
H28 H 0.22992 0.15219 0.1625 0.0
H29 H 0.20435 0.15615 0.20694 0.0
N30 N 0.23904 0.22175 0.20712 0.0
C31 C 0.25241 0.22034 0.18237 0.0
C32 C 0.22145 0.19932 0.21584 0.0
C33 C 0.23247 0.17188 0.17475 0.0
C34 C 0.21809 0.174 0.19988 0.0
C35 C 0.24981 0.19522 0.16565 0.0
H36 H 0.26324 0.17496 0.12756 0.0
N37 N 0.27083 0.26807 0.19051 0.0
C38 C 0.26928 0.24403 0.17408 0.0
C39 C 0.29979 0.26756 0.14056 0.0
C40 C 0.28392 0.2431 0.14873 0.0
C41 C 0.28468 0.29223 0.1819 0.0
C42 C 0.29984 0.2923 0.1571 0.0
O43 O 0.25028 0.2832 0.2994 0.0
O44 O 0.24744 0.30254 0.26287 0.0
O45 O 0.22484 0.28288 0.20525 0.0
O46 O 0.19997 0.25955 0.23484 0.0
O47 O 0.26269 0.23058 0.2782 0.0
O48 O 0.22431 0.24312 0.26699 0.0
O49 O 0.27431 0.23419 0.2289 0.0
O50 O 0.31223 0.2573 0.24937 0.0
O51 O 0.29803 0.23217 0.3049 0.0
O52 O 0.32865 0.26935 0.30985 0.0
O53 O 0.2764 0.30476 0.23963 0.0
O54 O 0.3126 0.29172 0.25577 0.0
C55 C 0.24139 0.30131 0.28814 0.0
C56 C 0.23569 0.22828 0.28002 0.0
C57 C 0.18282 0.29724 0.2238 0.0
C58 C 0.15741 0.32949 0.21029 0.0
C59 C 0.15847 0.32665 0.25655 0.0
C60 C 0.17477 0.3063 0.25013 0.0
C61 C 0.14983 0.33815 0.23687 0.0
C62 C 0.1742 0.30906 0.2039 0.0
C63 C 0.20006 0.27551 0.21701 0.0
C64 C 0.28184 0.21798 0.1322 0.0
C65 C 0.26478 0.19413 0.14061 0.0
H66 H 0.31135 0.26771 0.12125 0.0
C67 C 0.30124 0.23889 0.23095 0.0
C68 C 0.30289 0.3081 0.243 0.0
C69 C 0.34424 0.22689 0.30473 0.0
C70 C 0.37024 0.19328 0.31438 0.0
C71 C 0.38101 0.21276 0.27292 0.0
C72 C 0.36024 0.22852 0.28035 0.0
C73 C 0.38608 0.19534 0.28978 0.0
C74 C 0.34919 0.20923 0.32164 0.0
C75 C 0.3221 0.24323 0.31261 0.0
H76 H 0.15248 0.33355 0.27691 0.0
H77 H 0.18104 0.29764 0.26582 0.0
H78 H 0.13739 0.3541 0.24251 0.0
H79 H 0.18017 0.30202 0.18354 0.0
H80 H 0.39336 0.21418 0.25408 0.0
H81 H 0.35672 0.24207 0.26716 0.0
H82 H 0.40275 0.18383 0.28366 0.0
H83 H 0.33643 0.20775 0.34029 0.0
C84 C 0.8479 0.24771 0.21355 0.0
C85 C 0.88474 0.28149 0.232 0.0
C86 C 0.85787 0.26525 0.23474 0.0
C87 C 0.90044 0.28126 0.20729 0.0
C88 C 0.86406 0.24644 0.18895 0.0
C89 C 0.89013 0.26376 0.1858 0.0
N90 N 0.82231 0.23177 0.21703 0.0
C91 C 0.81216 0.21306 0.19715 0.0
C92 C 0.85349 0.22783 0.16826 0.0
C93 C 0.82752 0.21088 0.17246 0.0
Gd94 Gd 0.74927 0.29652 0.26344 0.0
Gd95 Gd 0.797 0.2379 0.25848 0.0
N96 N 0.8421 0.26506 0.25837 0.0
C97 C 0.89549 0.2965 0.25441 0.0
C98 C 0.85403 0.2767 0.28053 0.0
C99 C 0.88036 0.29344 0.27889 0.0
H100 H 0.84356 0.27279 0.29961 0.0
H101 H 0.88919 0.30348 0.29654 0.0
H102 H 0.68622 0.25656 0.27132 0.0
H103 H 0.79198 0.20014 0.2003 0.0
H104 H 0.64442 0.25354 0.3038 0.0
H105 H 0.91602 0.30922 0.25317 0.0
H106 H 0.92093 0.29393 0.20475 0.0
H107 H 0.78796 0.35854 0.27789 0.0
H108 H 0.86525 0.22627 0.14906 0.0
H109 H 0.81926 0.19629 0.15664 0.0
H110 H 0.66546 0.33278 0.36741 0.0
H111 H 0.90267 0.26341 0.16696 0.0
H112 H 0.75066 0.39627 0.35002 0.0
H113 H 0.78877 0.39741 0.31362 0.0
N114 N 0.75051 0.33546 0.2947 0.0
C115 C 0.72898 0.33475 0.31403 0.0
C116 C 0.77147 0.35783 0.29394 0.0
C117 C 0.75035 0.37912 0.33456 0.0
C118 C 0.7719 0.37986 0.31402 0.0
C119 C 0.72831 0.35656 0.33455 0.0
H120 H 0.70468 0.37187 0.37008 0.0
N121 N 0.70799 0.29246 0.29212 0.0
C122 C 0.70692 0.3127 0.31258 0.0
C123 C 0.66104 0.29006 0.3285 0.0
C124 C 0.68354 0.3119 0.33153 0.0
C125 C 0.68551 0.272 0.28817 0.0
C126 C 0.6619 0.27022 0.30655 0.0
O127 O 0.79386 0.26074 0.22432 0.0
O128 O 0.79316 0.30425 0.24431 0.0
O129 O 0.73838 0.29504 0.22407 0.0
O130 O 0.73225 0.32987 0.25312 0.0
O131 O 0.79483 0.26977 0.29471 0.0
O132 O 0.79216 0.30792 0.27629 0.0
O133 O 0.73846 0.26919 0.29574 0.0
O134 O 0.75533 0.22825 0.2826 0.0
O135 O 0.81704 0.21869 0.28394 0.0
O136 O 0.79911 0.19425 0.25086 0.0
O137 O 0.73209 0.25484 0.24176 0.0
O138 O 0.7584 0.22003 0.23887 0.0
C139 C 0.80164 0.28752 0.22442 0.0
C140 C 0.7986 0.2968 0.29546 0.0
C141 C 0.74063 0.3381 0.20902 0.0
C142 C 0.72981 0.36489 0.17709 0.0
C143 C 0.77767 0.36808 0.18579 0.0
C144 C 0.76888 0.34934 0.2041 0.0
C145 C 0.75836 0.37594 0.17247 0.0
C146 C 0.72124 0.34573 0.19543 0.0
C147 C 0.73081 0.31909 0.22885 0.0
C148 C 0.68315 0.33313 0.35252 0.0
C149 C 0.70549 0.3554 0.35404 0.0
H150 H 0.64271 0.28864 0.34269 0.0
C151 C 0.73883 0.24326 0.2977 0.0
C152 C 0.73686 0.22956 0.23377 0.0
C153 C 0.79596 0.17271 0.28912 0.0
C154 C 0.7979 0.14237 0.32176 0.0
C155 C 0.75387 0.14359 0.30634 0.0
C156 C 0.76719 0.16321 0.28996 0.0
C157 C 0.76903 0.13316 0.32205 0.0
C158 C 0.81123 0.16228 0.30509 0.0
C159 C 0.80996 0.19395 0.27216 0.0
H160 H 0.79951 0.37682 0.18212 0.0
H161 H 0.78401 0.34385 0.2146 0.0
H162 H 0.76581 0.3911 0.15894 0.0
H163 H 0.69949 0.33661 0.19919 0.0
H164 H 0.73169 0.13634 0.30679 0.0
H165 H 0.75498 0.17092 0.2779 0.0
H166 H 0.75813 0.11755 0.33416 0.0
H167 H 0.83336 0.16998 0.30475 0.0
C168 C 0.83224 0.81156 0.19071 0.0
C169 C 0.82581 0.77809 0.152 0.0
C170 C 0.81633 0.78871 0.1776 0.0
C171 C 0.85133 0.79074 0.13973 0.0
C172 C 0.85793 0.82418 0.17845 0.0
C173 C 0.86733 0.81369 0.15291 0.0
N174 N 0.82288 0.82106 0.2156 0.0
C175 C 0.83776 0.84343 0.22907 0.0
C176 C 0.8735 0.8469 0.19229 0.0
C177 C 0.86334 0.85659 0.21767 0.0
Gd178 Gd 0.77349 0.74189 0.28138 0.0
Gd179 Gd 0.77953 0.79775 0.2322 0.0
N180 N 0.79218 0.77618 0.19032 0.0
C181 C 0.80948 0.75488 0.13959 0.0
C182 C 0.7757 0.75423 0.17798 0.0
C183 C 0.78424 0.74302 0.15258 0.0
H184 H 0.75587 0.74547 0.18747 0.0
H185 H 0.77125 0.72537 0.14297 0.0
H186 H 0.79481 0.79213 0.32868 0.0
H187 H 0.82974 0.85154 0.24841 0.0
H188 H 0.77721 0.81087 0.37303 0.0
H189 H 0.81607 0.74609 0.11995 0.0
H190 H 0.85896 0.78282 0.12009 0.0
H191 H 0.72764 0.68492 0.2643 0.0
H192 H 0.89334 0.85716 0.18354 0.0
H193 H 0.87512 0.87431 0.22841 0.0
H194 H 0.68974 0.7511 0.39169 0.0
H195 H 0.88703 0.82312 0.1432 0.0
H196 H 0.66126 0.6759 0.32657 0.0
H197 H 0.68246 0.65972 0.2825 0.0
N198 N 0.73129 0.71565 0.29722 0.0
C199 C 0.72028 0.72462 0.32167 0.0
C200 C 0.71823 0.69251 0.28327 0.0
C201 C 0.68094 0.6872 0.31857 0.0
C202 C 0.69281 0.67803 0.29366 0.0
C203 C 0.69474 0.71066 0.33298 0.0
H204 H 0.66417 0.71006 0.36721 0.0
N205 N 0.75905 0.76115 0.32383 0.0
C206 C 0.73466 0.74787 0.33549 0.0
C207 C 0.73928 0.78078 0.37438 0.0
C208 C 0.72394 0.75759 0.36096 0.0
C209 C 0.77472 0.7829 0.33728 0.0
C210 C 0.76491 0.79331 0.36258 0.0
O211 O 0.81183 0.76902 0.22496 0.0
O212 O 0.78791 0.72857 0.23915 0.0
O213 O 0.81071 0.73583 0.29569 0.0
O214 O 0.77621 0.70175 0.2915 0.0
O215 O 0.73987 0.76624 0.23715 0.0
O216 O 0.75356 0.72682 0.24434 0.0
O217 O 0.74178 0.77082 0.29027 0.0
O218 O 0.76258 0.81154 0.27394 0.0
O219 O 0.74656 0.80446 0.21165 0.0
O220 O 0.77902 0.8386 0.22249 0.0
O221 O 0.81182 0.77568 0.27847 0.0
O222 O 0.79791 0.8145 0.26965 0.0
C223 C 0.80902 0.74211 0.22516 0.0
C224 C 0.736 0.73927 0.236 0.0
C225 C 0.80475 0.70224 0.32448 0.0
C226 C 0.83012 0.67932 0.349 0.0
C227 C 0.79455 0.70433 0.3717 0.0
C228 C 0.78956 0.71116 0.34791 0.0
C229 C 0.81479 0.6886 0.37232 0.0
C230 C 0.82486 0.68614 0.32506 0.0
C231 C 0.80065 0.71027 0.2994 0.0
C232 C 0.69838 0.74386 0.37219 0.0
C233 C 0.68382 0.72048 0.35824 0.0
H234 H 0.73174 0.78892 0.39397 0.0
C235 C 0.74381 0.79757 0.29 0.0
C236 C 0.81423 0.80264 0.28035 0.0
C237 C 0.73436 0.84832 0.222 0.0
C238 C 0.70073 0.87439 0.21255 0.0
C239 C 0.70598 0.87019 0.25762 0.0
C240 C 0.72651 0.85439 0.24886 0.0
C241 C 0.69313 0.88014 0.23964 0.0
C242 C 0.72148 0.85836 0.20388 0.0
C243 C 0.75544 0.831 0.2127 0.0
H244 H 0.78276 0.71131 0.38972 0.0
H245 H 0.77399 0.72348 0.34791 0.0
H246 H 0.81826 0.68342 0.39099 0.0
H247 H 0.8368 0.67943 0.30698 0.0
H248 H 0.70007 0.8748 0.27842 0.0
H249 H 0.73627 0.84693 0.26301 0.0
H250 H 0.67753 0.89269 0.24695 0.0
H251 H 0.72735 0.85336 0.1831 0.0
C252 C 0.32576 0.69464 0.30498 0.0
C253 C 0.30054 0.64771 0.30491 0.0
C254 C 0.3087 0.6723 0.2932 0.0
C255 C 0.30853 0.64666 0.32961 0.0
C256 C 0.33544 0.69313 0.32891 0.0
C257 C 0.32597 0.66937 0.34161 0.0
N258 N 0.33496 0.71683 0.29173 0.0
C259 C 0.35629 0.73684 0.29989 0.0
C260 C 0.35533 0.71496 0.33866 0.0
C261 C 0.36625 0.73663 0.32377 0.0
Gd262 Gd 0.25817 0.7678 0.26073 0.0
Gd263 Gd 0.31381 0.71716 0.25369 0.0
N264 N 0.30182 0.67398 0.26925 0.0
C265 C 0.28551 0.62467 0.29096 0.0
C266 C 0.28846 0.65128 0.25493 0.0
C267 C 0.2799 0.62633 0.26564 0.0
H268 H 0.28392 0.65258 0.23545 0.0
H269 H 0.26883 0.60848 0.25446 0.0
H270 H 0.27207 0.81526 0.31403 0.0
H271 H 0.36565 0.75314 0.28808 0.0
H272 H 0.29939 0.86192 0.32278 0.0
H273 H 0.27886 0.60535 0.29923 0.0
H274 H 0.30216 0.62809 0.33913 0.0
H275 H 0.23905 0.76386 0.20094 0.0
H276 H 0.36331 0.71464 0.357 0.0
H277 H 0.38254 0.75303 0.33052 0.0
H278 H 0.32577 0.89209 0.23775 0.0
H279 H 0.33286 0.66795 0.3602 0.0
H280 H 0.28321 0.83538 0.16617 0.0
H281 H 0.25072 0.79056 0.16287 0.0
N282 N 0.26508 0.79321 0.22495 0.0
C283 C 0.28139 0.81853 0.22776 0.0
C284 C 0.25295 0.78362 0.20249 0.0
C285 C 0.27802 0.82385 0.18288 0.0
C286 C 0.25962 0.79858 0.18096 0.0
C287 C 0.28871 0.8344 0.20665 0.0
H288 H 0.31198 0.87287 0.1941 0.0
N289 N 0.27994 0.81397 0.27248 0.0
C290 C 0.28933 0.82915 0.25226 0.0
C291 C 0.30916 0.86766 0.282 0.0
C292 C 0.3046 0.85622 0.25638 0.0
C293 C 0.28184 0.82616 0.29768 0.0
C294 C 0.2971 0.85281 0.30279 0.0
O295 O 0.26996 0.70254 0.27204 0.0
O296 O 0.25805 0.74269 0.29374 0.0
O297 O 0.22594 0.79239 0.26736 0.0
O298 O 0.21476 0.74856 0.269 0.0
O299 O 0.27902 0.70036 0.22756 0.0
O300 O 0.2462 0.72928 0.23383 0.0
O301 O 0.28724 0.75949 0.22367 0.0
O302 O 0.32513 0.76027 0.24304 0.0
O303 O 0.32727 0.70751 0.21239 0.0
O304 O 0.35334 0.70378 0.24143 0.0
O305 O 0.28279 0.77107 0.29541 0.0
O306 O 0.32377 0.76113 0.27386 0.0
C307 C 0.2558 0.71571 0.29136 0.0
C308 C 0.25539 0.70671 0.22318 0.0
C309 C 0.19091 0.77731 0.30008 0.0
C310 C 0.18699 0.80634 0.34197 0.0
C311 C 0.14878 0.76945 0.32995 0.0
C312 C 0.164 0.7627 0.30594 0.0
C313 C 0.15991 0.79146 0.34768 0.0
C314 C 0.20269 0.79789 0.31875 0.0
C315 C 0.20657 0.77213 0.27427 0.0
C316 C 0.31361 0.87145 0.23504 0.0
C317 C 0.30569 0.86054 0.2102 0.0
H318 H 0.32079 0.88839 0.28601 0.0
C319 C 0.31413 0.76629 0.22379 0.0
C320 C 0.30979 0.77285 0.29434 0.0
C321 C 0.37433 0.72686 0.20483 0.0
C322 C 0.39563 0.74828 0.16574 0.0
C323 C 0.40886 0.76912 0.20843 0.0
C324 C 0.39028 0.74818 0.22019 0.0
C325 C 0.41164 0.76917 0.18132 0.0
C326 C 0.37706 0.72717 0.17768 0.0
C327 C 0.35222 0.70648 0.21702 0.0
H328 H 0.12787 0.75832 0.33439 0.0
H329 H 0.15471 0.74644 0.29188 0.0
H330 H 0.14681 0.79745 0.36519 0.0
H331 H 0.22383 0.80833 0.31454 0.0
H332 H 0.42099 0.78547 0.2204 0.0
H333 H 0.38805 0.749 0.2413 0.0
H334 H 0.42625 0.78547 0.17251 0.0
H335 H 0.3648 0.71074 0.16581 0.0
C336 C 0.33173 0.71962 0.70305 0.0
C337 C 0.37705 0.7475 0.70929 0.0
C338 C 0.34908 0.73838 0.71886 0.0
C339 C 0.38706 0.73808 0.6836 0.0
C340 C 0.34173 0.71005 0.67729 0.0
C341 C 0.36946 0.71941 0.66765 0.0
N342 N 0.3047 0.71169 0.71254 0.0
C343 C 0.28681 0.69357 0.69769 0.0
C344 C 0.32341 0.69168 0.66182 0.0
C345 C 0.29586 0.68335 0.67211 0.0
Gd346 Gd 0.25052 0.79464 0.76251 0.0
Gd347 Gd 0.29115 0.73039 0.75532 0.0
N348 N 0.33859 0.74775 0.74347 0.0
C349 C 0.39425 0.76561 0.72592 0.0
C350 C 0.3559 0.76371 0.7603 0.0
C351 C 0.38373 0.77336 0.75167 0.0
H352 H 0.34884 0.76842 0.78063 0.0
H353 H 0.39718 0.78642 0.76504 0.0
H354 H 0.19783 0.76614 0.72546 0.0
H355 H 0.2656 0.6868 0.70568 0.0
H356 H 0.14836 0.74582 0.7326 0.0
H357 H 0.41585 0.77308 0.71932 0.0
H358 H 0.40843 0.74502 0.6759 0.0
H359 H 0.26722 0.82975 0.81963 0.0
H360 H 0.3303 0.68387 0.64192 0.0
H361 H 0.28158 0.66905 0.66035 0.0
H362 H 0.12425 0.76658 0.82492 0.0
H363 H 0.37748 0.71238 0.64786 0.0
H364 H 0.1944 0.82116 0.87527 0.0
H365 H 0.24433 0.83981 0.86456 0.0
N366 N 0.23064 0.80563 0.80543 0.0
C367 C 0.20296 0.79596 0.8106 0.0
C368 C 0.24543 0.82163 0.82424 0.0
C369 C 0.20429 0.81685 0.85555 0.0
C370 C 0.23251 0.82737 0.8496 0.0
C371 C 0.18914 0.80099 0.83596 0.0
H372 H 0.14987 0.79334 0.86044 0.0
N373 N 0.20249 0.7764 0.76611 0.0
C374 C 0.18865 0.78047 0.79053 0.0
C375 C 0.14559 0.75662 0.77443 0.0
C376 C 0.15993 0.77021 0.7954 0.0
C377 C 0.18795 0.76576 0.74527 0.0
C378 C 0.15956 0.75494 0.74916 0.0
O379 O 0.29666 0.75542 0.72123 0.0
O380 O 0.29362 0.79933 0.74051 0.0
O381 O 0.23654 0.81877 0.73603 0.0
O382 O 0.2547 0.83875 0.77152 0.0
O383 O 0.29927 0.76427 0.78964 0.0
O384 O 0.29351 0.80421 0.77497 0.0
O385 O 0.24618 0.76891 0.7962 0.0
O386 O 0.24763 0.72511 0.77618 0.0
O387 O 0.30875 0.71246 0.78411 0.0
O388 O 0.28863 0.68624 0.75203 0.0
O389 O 0.24455 0.76167 0.72736 0.0
O390 O 0.24786 0.72133 0.7429 0.0
C391 C 0.3038 0.78224 0.72173 0.0
C392 C 0.30364 0.79149 0.79087 0.0
C393 C 0.24154 0.86951 0.74553 0.0
C394 C 0.22864 0.90021 0.71844 0.0
C395 C 0.25213 0.91931 0.75692 0.0
C396 C 0.25283 0.89281 0.76206 0.0
C397 C 0.24029 0.92304 0.73521 0.0
C398 C 0.22909 0.87332 0.72379 0.0
C399 C 0.24418 0.84176 0.75083 0.0
C400 C 0.14624 0.77456 0.82081 0.0
C401 C 0.16079 0.78992 0.84102 0.0
H402 H 0.12353 0.74845 0.77736 0.0
C403 C 0.23769 0.74214 0.79512 0.0
C404 C 0.23862 0.73452 0.72668 0.0
C405 C 0.30642 0.66229 0.78152 0.0
C406 C 0.32704 0.63904 0.81017 0.0
C407 C 0.29677 0.61223 0.77892 0.0
C408 C 0.29324 0.63639 0.77036 0.0
C409 C 0.31343 0.61349 0.79874 0.0
C410 C 0.32364 0.66352 0.80136 0.0
C411 C 0.30141 0.68754 0.77251 0.0
H412 H 0.26095 0.93706 0.76975 0.0
H413 H 0.26253 0.89064 0.77891 0.0
H414 H 0.23994 0.94386 0.73165 0.0
H415 H 0.22036 0.85561 0.71082 0.0
H416 H 0.28646 0.59242 0.77021 0.0
H417 H 0.27992 0.63475 0.7551 0.0
H418 H 0.31589 0.5944 0.80502 0.0
H419 H 0.33395 0.68331 0.81017 0.0
C420 C 0.32435 0.30217 0.69933 0.0
C421 C 0.31823 0.27517 0.65699 0.0
C422 C 0.30822 0.28247 0.68332 0.0
C423 C 0.34517 0.2872 0.64726 0.0
C424 C 0.35105 0.31498 0.68936 0.0
C425 C 0.36156 0.30701 0.66343 0.0
N426 N 0.31345 0.30972 0.72421 0.0
C427 C 0.32728 0.33142 0.73938 0.0
C428 C 0.36611 0.33594 0.70553 0.0
C429 C 0.354 0.34444 0.73052 0.0
Gd430 Gd 0.26359 0.22865 0.78662 0.0
Gd431 Gd 0.26875 0.2859 0.73726 0.0
N432 N 0.2824 0.27088 0.69336 0.0
C433 C 0.30068 0.25634 0.64112 0.0
C434 C 0.26457 0.25383 0.67762 0.0
C435 C 0.2736 0.24591 0.6514 0.0
H436 H 0.24356 0.24614 0.68551 0.0
H437 H 0.25964 0.23191 0.63911 0.0
H438 H 0.31165 0.26136 0.82699 0.0
H439 H 0.3176 0.33915 0.75816 0.0
H440 H 0.31244 0.28662 0.87127 0.0
H441 H 0.3076 0.25021 0.62078 0.0
H442 H 0.35335 0.28166 0.62715 0.0
H443 H 0.19919 0.19441 0.78272 0.0
H444 H 0.3867 0.34627 0.69862 0.0
H445 H 0.36506 0.36132 0.74283 0.0
H446 H 0.21721 0.27025 0.90848 0.0
H447 H 0.38211 0.31648 0.6555 0.0
H448 H 0.15108 0.21061 0.85668 0.0
H449 H 0.15441 0.18723 0.81121 0.0
N450 N 0.22034 0.22188 0.81175 0.0
C451 C 0.21935 0.23396 0.83698 0.0
C452 C 0.19771 0.2047 0.80254 0.0
C453 C 0.1707 0.21373 0.84432 0.0
C454 C 0.17247 0.20056 0.81862 0.0
C455 C 0.19432 0.23061 0.85384 0.0
H456 H 0.17456 0.24213 0.89269 0.0
N457 N 0.26757 0.25156 0.82933 0.0
C458 C 0.24349 0.24984 0.8458 0.0
C459 C 0.26805 0.27703 0.88072 0.0
C460 C 0.24306 0.26275 0.87186 0.0
C461 C 0.29224 0.26323 0.83871 0.0
C462 C 0.29282 0.27683 0.8642 0.0
O463 O 0.28599 0.24668 0.72084 0.0
O464 O 0.3007 0.23121 0.75546 0.0
O465 O 0.27977 0.20398 0.81056 0.0
O466 O 0.25601 0.18398 0.77825 0.0
O467 O 0.23043 0.25272 0.73959 0.0
O468 O 0.24333 0.21357 0.7494 0.0
O469 O 0.23012 0.25571 0.7906 0.0
O470 O 0.25609 0.29665 0.78042 0.0
O471 O 0.23046 0.29585 0.72829 0.0
O472 O 0.26807 0.32641 0.72687 0.0
O473 O 0.30432 0.25895 0.78174 0.0
O474 O 0.28966 0.29781 0.77427 0.0
C475 C 0.30166 0.23274 0.73024 0.0
C476 C 0.22826 0.22576 0.73735 0.0
C477 C 0.27214 0.15343 0.80296 0.0
C478 C 0.29207 0.12386 0.82613 0.0
C479 C 0.25737 0.10363 0.7965 0.0
C480 C 0.25575 0.12979 0.79104 0.0
C481 C 0.27529 0.10064 0.81392 0.0
C482 C 0.29053 0.15035 0.82043 0.0
C483 C 0.26933 0.18096 0.79727 0.0
C484 C 0.21795 0.26029 0.88847 0.0
C485 C 0.19367 0.24418 0.87952 0.0
H486 H 0.2686 0.28727 0.90058 0.0
C487 C 0.23407 0.28288 0.79304 0.0
C488 C 0.30811 0.28587 0.78184 0.0
C489 C 0.23582 0.32788 0.69787 0.0
C490 C 0.20682 0.34841 0.67481 0.0
C491 C 0.24509 0.32808 0.65076 0.0
C492 C 0.25177 0.32158 0.67403 0.0
C493 C 0.2227 0.3413 0.65107 0.0
C494 C 0.21349 0.34156 0.69823 0.0
C495 C 0.2422 0.32033 0.72242 0.0
H496 H 0.24462 0.08557 0.78722 0.0
H497 H 0.24145 0.13149 0.7776 0.0
H498 H 0.27624 0.08004 0.81766 0.0
H499 H 0.30325 0.16841 0.82982 0.0
H500 H 0.25746 0.32307 0.63245 0.0
H501 H 0.2695 0.31185 0.67335 0.0
H502 H 0.21818 0.34656 0.6328 0.0
H503 H 0.20125 0.3467 0.71663 0.0
C504 C 0.76964 0.2253 0.81607 0.0
C505 C 0.74218 0.17899 0.81066 0.0
C506 C 0.75606 0.20327 0.80018 0.0
C507 C 0.74153 0.17737 0.83749 0.0
C508 C 0.76981 0.22327 0.84287 0.0
C509 C 0.75525 0.19947 0.85356 0.0
N510 N 0.78347 0.2482 0.80517 0.0
C511 C 0.80097 0.26774 0.81925 0.0
C512 C 0.78529 0.24489 0.85798 0.0
C513 C 0.80144 0.26694 0.84597 0.0
Gd514 Gd 0.72687 0.29855 0.76431 0.0
Gd515 Gd 0.78083 0.24697 0.75987 0.0
N516 N 0.75612 0.20575 0.77447 0.0
C517 C 0.7293 0.15707 0.79383 0.0
C518 C 0.74437 0.1842 0.75777 0.0
C519 C 0.73064 0.15961 0.76723 0.0
H520 H 0.74554 0.18606 0.73716 0.0
H521 H 0.72108 0.14264 0.75401 0.0
H522 H 0.71785 0.32362 0.82713 0.0
H523 H 0.81563 0.28332 0.80986 0.0
H524 H 0.71837 0.36894 0.85409 0.0
H525 H 0.71848 0.13806 0.80114 0.0
H526 H 0.73069 0.15901 0.84596 0.0
H527 H 0.71901 0.30795 0.70385 0.0
H528 H 0.78596 0.24414 0.87862 0.0
H529 H 0.81487 0.28293 0.8571 0.0
H530 H 0.7297 0.43298 0.79073 0.0
H531 H 0.75495 0.19772 0.87415 0.0
H532 H 0.72643 0.39466 0.70057 0.0
H533 H 0.72018 0.34667 0.67846 0.0
N534 N 0.72579 0.334 0.73941 0.0
C535 C 0.72776 0.35991 0.7521 0.0
C536 C 0.7219 0.32888 0.71353 0.0
C537 C 0.72614 0.37779 0.71168 0.0
C538 C 0.72253 0.35072 0.69915 0.0
C539 C 0.72822 0.38262 0.73864 0.0
H540 H 0.73035 0.42691 0.7427 0.0
N541 N 0.72466 0.34047 0.79099 0.0
C542 C 0.72722 0.36328 0.77891 0.0
C543 C 0.72469 0.39158 0.82074 0.0
C544 C 0.72738 0.38952 0.79336 0.0
C545 C 0.72076 0.34208 0.81765 0.0
C546 C 0.72103 0.36768 0.83294 0.0
O547 O 0.73489 0.2389 0.77399 0.0
O548 O 0.73087 0.27861 0.79916 0.0
O549 O 0.68382 0.3034 0.77382 0.0
O550 O 0.69371 0.26315 0.75871 0.0
O551 O 0.75725 0.23547 0.72472 0.0
O552 O 0.72803 0.26773 0.72765 0.0
O553 O 0.76184 0.30681 0.73189 0.0
O554 O 0.79556 0.27952 0.73186 0.0
O555 O 0.8006 0.21681 0.73315 0.0
O556 O 0.82164 0.24039 0.76514 0.0
O557 O 0.75866 0.3065 0.79339 0.0
O558 O 0.79758 0.29218 0.77126 0.0
C559 C 0.72554 0.25178 0.79618 0.0
C560 C 0.73789 0.24558 0.71621 0.0
C561 C 0.65486 0.2639 0.78995 0.0
C562 C 0.6371 0.26227 0.83605 0.0
C563 C 0.61992 0.22525 0.80311 0.0
C564 C 0.63742 0.23862 0.78351 0.0
C565 C 0.61968 0.23698 0.82924 0.0
C566 C 0.6546 0.27561 0.81618 0.0
C567 C 0.6744 0.27692 0.76935 0.0
C568 C 0.7293 0.41257 0.78003 0.0
C569 C 0.7297 0.40912 0.75269 0.0
H570 H 0.72472 0.41136 0.8326 0.0
C571 C 0.78577 0.29899 0.72305 0.0
C572 C 0.78574 0.31057 0.78724 0.0
C573 C 0.8209 0.19238 0.75872 0.0
C574 C 0.81414 0.14206 0.75256 0.0
C575 C 0.82056 0.16715 0.79559 0.0
C576 C 0.82318 0.1921 0.78542 0.0
C577 C 0.81605 0.1422 0.77929 0.0
C578 C 0.81662 0.16726 0.74246 0.0
C579 C 0.81982 0.21824 0.74835 0.0
H580 H 0.60663 0.20566 0.79805 0.0
H581 H 0.6376 0.22908 0.76338 0.0
H582 H 0.60608 0.22615 0.84411 0.0
H583 H 0.66788 0.29527 0.82107 0.0
H584 H 0.82199 0.16716 0.8162 0.0
H585 H 0.82634 0.21107 0.79866 0.0
H586 H 0.81426 0.12306 0.7875 0.0
H587 H 0.81545 0.16743 0.72179 0.0
C588 C 0.78467 0.8097 0.84328 0.0
C589 C 0.75576 0.78351 0.87609 0.0
C590 C 0.76974 0.78476 0.85058 0.0
C591 C 0.75641 0.80776 0.89378 0.0
C592 C 0.78605 0.83394 0.86118 0.0
C593 C 0.77158 0.83289 0.88638 0.0
N594 N 0.79768 0.81026 0.81847 0.0
C595 C 0.81393 0.83389 0.81079 0.0
C596 C 0.80188 0.85853 0.85316 0.0
C597 C 0.81605 0.85844 0.82792 0.0
Gd598 Gd 0.74685 0.76433 0.73321 0.0
Gd599 Gd 0.79409 0.76801 0.79155 0.0
N600 N 0.76974 0.76161 0.83309 0.0
C601 C 0.7421 0.75781 0.88326 0.0
C602 C 0.75816 0.73634 0.84065 0.0
C603 C 0.74365 0.73407 0.86557 0.0
H604 H 0.76081 0.71782 0.82785 0.0
H605 H 0.73414 0.71398 0.87127 0.0
H606 H 0.79091 0.79479 0.6874 0.0
H607 H 0.82521 0.83379 0.79144 0.0
H608 H 0.81537 0.78203 0.64372 0.0
H609 H 0.73111 0.75597 0.90265 0.0
H610 H 0.74564 0.8072 0.9134 0.0
H611 H 0.69355 0.71063 0.74297 0.0
H612 H 0.80348 0.8776 0.86635 0.0
H613 H 0.82866 0.87725 0.82169 0.0
H614 H 0.78134 0.68468 0.62529 0.0
H615 H 0.77217 0.85136 0.90034 0.0
H616 H 0.70734 0.64325 0.68487 0.0
H617 H 0.68034 0.66213 0.7247 0.0
N618 N 0.73008 0.71838 0.7161 0.0
C619 C 0.74389 0.70901 0.69309 0.0
C620 C 0.70659 0.70233 0.72661 0.0
C621 C 0.71383 0.66438 0.69335 0.0
C622 C 0.69858 0.67493 0.71587 0.0
C623 C 0.73628 0.68169 0.6812 0.0
H624 H 0.74514 0.65188 0.64784 0.0
N625 N 0.77075 0.75374 0.69197 0.0
C626 C 0.76439 0.72739 0.68034 0.0
C627 C 0.79662 0.73894 0.64243 0.0
C628 C 0.77765 0.7191 0.65548 0.0
C629 C 0.78779 0.77355 0.67872 0.0
C630 C 0.80136 0.76639 0.65394 0.0
O631 O 0.76399 0.79866 0.79575 0.0
O632 O 0.72652 0.77598 0.77433 0.0
O633 O 0.73969 0.80091 0.71888 0.0
O634 O 0.71047 0.76267 0.71358 0.0
O635 O 0.76295 0.72838 0.7833 0.0
O636 O 0.7266 0.74154 0.76761 0.0
O637 O 0.78939 0.75109 0.72429 0.0
O638 O 0.79167 0.73097 0.76044 0.0
O639 O 0.81719 0.75066 0.81633 0.0
O640 O 0.8391 0.77562 0.78582 0.0
O641 O 0.77517 0.8038 0.74616 0.0
O642 O 0.81373 0.79129 0.75698 0.0
C643 C 0.73714 0.794 0.79325 0.0
C644 C 0.73639 0.72519 0.78033 0.0
C645 C 0.69296 0.80396 0.71812 0.0
C646 C 0.66448 0.83427 0.70675 0.0
C647 C 0.65443 0.81618 0.74881 0.0
C648 C 0.67663 0.80207 0.74234 0.0
C649 C 0.64825 0.83207 0.7311 0.0
C650 C 0.68701 0.82026 0.70049 0.0
C651 C 0.71602 0.7888 0.71082 0.0
C652 C 0.7711 0.69156 0.64422 0.0
C653 C 0.75053 0.67287 0.6571 0.0
H654 H 0.80719 0.73341 0.62326 0.0
C655 C 0.79822 0.73272 0.7353 0.0
C656 C 0.80217 0.80665 0.74473 0.0
C657 C 0.86816 0.75852 0.81149 0.0
C658 C 0.89751 0.73401 0.83054 0.0
C659 C 0.91776 0.7758 0.81046 0.0
C660 C 0.89178 0.77796 0.8044 0.0
C661 C 0.92065 0.7541 0.82339 0.0
C662 C 0.87105 0.73661 0.82482 0.0
C663 C 0.84094 0.76144 0.80449 0.0
H664 H 0.6419 0.81467 0.76754 0.0
H665 H 0.68093 0.78953 0.75607 0.0
H666 H 0.63091 0.84281 0.7365 0.0
H667 H 0.69954 0.82152 0.68169 0.0
H668 H 0.93578 0.79105 0.80509 0.0
H669 H 0.89017 0.79503 0.7943 0.0
H670 H 0.94112 0.75322 0.82801 0.0
H671 H 0.85298 0.72132 0.83007 0.0
Fe672 Fe 1.0154 0.07478 0.50564 0.0
O673 O 1.01784 0.03531 0.49773 0.0
Fe674 Fe 0.05125 0.02216 0.51002 0.0
Fe675 Fe 0.98748 1.00593 0.51102 0.0
O676 O 0.02054 0.0362 0.49807 0.0
O677 O 0.02085 0.99252 0.52289 0.0
O678 O 1.0182 0.9917 0.52267 0.0
Fe679 Fe 0.02224 0.95287 0.51505 0.0
C680 C 0.9737 0.051 0.54954 0.0
O681 O 0.98709 0.06286 0.47878 0.0
O682 O 0.95919 0.02487 0.4957 0.0
O683 O 0.05467 0.95815 0.48579 0.0
O684 O 0.05667 0.99981 0.47416 0.0
O685 O 0.07931 0.05489 0.49365 0.0
O686 O 0.05118 0.08074 0.4799 0.0
O687 O 0.99061 0.98256 0.47511 0.0
O688 O 0.99432 0.94279 0.48757 0.0
C689 C 0.07486 0.07331 0.47998 0.0
O690 O 0.05255 0.96378 0.54004 0.0
O691 O 0.07957 1.00319 0.5249 0.0
O692 O 0.981 0.06851 0.53319 0.0
O693 O 0.98345 0.02903 0.54663 0.0
C694 C 0.9645 0.04435 0.48029 0.0
C695 C 0.98773 0.95647 0.47131 0.0
C696 C 0.96398 0.95517 0.54217 0.0
O697 O 0.95933 0.97341 0.5283 0.0
O698 O 0.98791 0.94819 0.54221 0.0
C699 C 0.06358 0.97629 0.47024 0.0
O700 O 0.04751 0.04513 0.54596 0.0
O701 O 0.04133 0.08491 0.53505 0.0
C702 C 0.07524 0.98209 0.53822 0.0
C703 C 0.04899 0.07109 0.55064 0.0
Fe704 Fe 0.51716 0.98273 1.00969 0.0
O705 O 0.538 0.0159 0.99333 0.0
Fe706 Fe 0.45504 1.00387 0.03707 0.0
Fe707 Fe 0.57882 0.0248 0.98853 0.0
O708 O 0.49569 1.01015 0.03099 0.0
O709 O 0.49572 1.01318 0.03155 0.0
O710 O 0.53797 0.01898 0.99383 0.0
Fe711 Fe 0.51637 0.04641 0.01514 0.0
C712 C 0.56957 0.99024 0.03434 0.0
O713 O 0.54375 0.95851 0.98423 0.0
O714 O 0.57373 0.99036 0.96068 0.0
O715 O 0.48948 0.04012 0.98681 0.0
O716 O 0.44914 0.0299 0.01164 0.0
O717 O 0.45 0.97164 1.00708 0.0
O718 O 0.49025 0.97421 0.9813 0.0
O719 O 0.57294 0.05402 0.96647 0.0
O720 O 0.54172 0.07729 0.99384 0.0
C721 C 0.46402 0.96624 0.98505 0.0
O722 O 0.48999 0.07054 0.04059 0.0
O723 O 0.46022 0.03878 0.06445 0.0
O724 O 0.54351 0.98946 0.03814 0.0
O725 O 0.58409 0.99801 0.01359 0.0
C726 C 0.56272 0.96513 0.96472 0.0
C727 C 0.56022 0.07485 0.97343 0.0
C728 C 0.56944 0.06188 0.04083 0.0
O729 O 0.58395 0.05648 0.01909 0.0
O730 O 0.54308 0.05484 0.04376 0.0
C731 C 0.46319 0.03822 0.99087 0.0
O732 O 0.4616 0.97509 0.0594 0.0
O733 O 0.49194 0.95176 0.03097 0.0
C734 C 0.47121 0.06398 0.06021 0.0
C735 C 0.47382 0.95401 0.05171 0.0
Fe736 Fe 0.02253 0.54402 0.01191 0.0
O737 O 0.99649 0.51107 0.02433 0.0
Fe738 Fe 0.08136 0.5155 0.98588 0.0
Fe739 Fe 0.95591 0.50752 0.02685 0.0
O740 O 0.0412 0.51508 0.98927 0.0
O741 O 0.04072 0.51187 0.9882 0.0
O742 O 0.99603 0.50791 0.02328 0.0
Fe743 Fe 1.01476 0.47891 1.00077 0.0
C744 C 0.97717 0.56351 0.05612 0.0
O745 O 0.9991 0.54461 0.98218 0.0
O746 O 0.95696 0.53888 1.00425 0.0
O747 O 0.03934 0.45304 0.97451 0.0
O748 O 0.07423 0.48448 0.95538 0.0
O749 O 0.08236 0.54928 0.96672 0.0
O750 O 0.05275 0.57434 0.99423 0.0
O751 O 0.94949 0.47922 0.99436 0.0
O752 O 0.99034 0.47677 0.97067 0.0
C753 C 0.07255 0.57176 0.97503 0.0
O754 O 0.03819 0.47872 0.03061 0.0
O755 O 0.0803 0.48415 1.00851 0.0
O756 O 0.99818 0.56992 0.03827 0.0
O757 O 0.96305 0.53866 0.05736 0.0
C758 C 0.97388 0.54765 0.98517 0.0
C759 C 0.96383 0.47295 0.97282 0.0
C760 C 0.96477 0.45137 0.03788 0.0
O761 O 0.95503 0.47389 0.04611 0.0
O762 O 0.98459 0.44866 0.01871 0.0
C763 C 0.06038 0.45955 0.95669 0.0
O764 O 0.08779 0.54353 0.01852 0.0
O765 O 0.04671 0.5456 0.04198 0.0
C766 C 0.06347 0.47593 0.02787 0.0
C767 C 0.07313 0.54872 0.04013 0.0
Fe768 Fe 0.52282 0.50814 0.97994 0.0
O769 O 0.54296 0.5346 1.00677 0.0
Fe770 Fe 0.45644 0.49101 0.01155 0.0
Fe771 Fe 0.58335 0.53944 1.008 0.0
O772 O 0.49673 0.49573 1.01058 0.0
O773 O 0.49678 0.49565 0.01314 0.0
O774 O 0.54305 0.53446 1.00932 0.0
Fe775 Fe 0.51696 0.52208 0.03999 0.0
C776 C 0.57123 0.48065 0.98241 0.0
O777 O 0.55306 0.52504 0.95109 0.0
O778 O 0.58424 0.55714 0.97432 0.0
O779 O 0.49497 0.55161 0.03584 0.0
O780 O 0.45213 0.52716 0.03527 0.0
O781 O 0.45807 0.51174 0.97958 0.0
O782 O 0.50031 0.53744 0.97518 0.0
O783 O 0.57739 0.57251 0.03579 0.0
O784 O 0.54146 0.55208 0.06407 0.0
C785 C 0.47463 0.53293 0.97215 0.0
O786 O 0.48659 0.50538 0.06886 0.0
O787 O 0.45498 0.47382 0.04566 0.0
O788 O 0.54509 0.47877 0.98383 0.0
O789 O 0.58774 0.50381 0.9835 0.0
C790 C 0.57345 0.54611 0.95293 0.0
C791 C 0.56238 0.57166 0.05843 0.0
C792 C 0.56543 0.49691 0.04694 0.0
O793 O 0.5821 0.51794 0.03928 0.0
O794 O 0.53952 0.49279 0.04484 0.0
C795 C 0.469 0.55009 0.03607 0.0
O796 O 0.46258 0.45754 0.98448 0.0
O797 O 0.49833 0.47779 0.95587 0.0
C798 C 0.46586 0.48464 0.06705 0.0
C799 C 0.47773 0.458 0.9619 0.0
Fe800 Fe 0.02874 0.45544 0.51434 0.0
O801 O 0.03219 0.49547 0.5152 0.0
Fe802 Fe 0.0246 0.50992 0.48124 0.0
Fe803 Fe 1.0119 0.51917 0.54291 0.0
O804 O 0.0336 0.4953 0.51223 0.0
O805 O 1.00431 0.53358 0.50892 0.0
O806 O 1.00284 0.53369 0.51187 0.0
Fe807 Fe 1.00759 0.57347 0.50942 0.0
C808 C 0.97337 0.46479 0.54696 0.0
O809 O 0.04999 0.46823 0.54684 0.0
O810 O 0.02574 0.50047 0.57135 0.0
O811 O 0.04299 0.57716 0.48316 0.0
O812 O 0.06088 0.539 0.4806 0.0
O813 O 0.048 0.48221 0.45634 0.0
O814 O 0.06206 0.45873 0.48564 0.0
O815 O 0.04792 0.54812 0.54454 0.0
O816 O 0.03216 0.58573 0.53992 0.0
C817 C 0.06328 0.46579 0.46234 0.0
O818 O 0.98623 0.56037 0.47706 0.0
O819 O 1.01089 0.52845 0.45272 0.0
O820 O 0.99334 0.45165 0.54046 0.0
O821 O 0.97564 0.49004 0.5436 0.0
C822 C 0.04345 0.48368 0.56835 0.0
C823 C 0.04954 0.57415 0.54813 0.0
C824 C 0.97315 0.56344 0.5616 0.0
O825 O 0.98841 0.54703 0.56773 0.0
O826 O 0.97434 0.57026 0.53821 0.0
C827 C 0.06305 0.56411 0.47682 0.0
O828 O 0.98851 0.48118 0.47961 0.0
O829 O 1.00411 0.44338 0.48371 0.0
C830 C 0.99288 0.54487 0.45563 0.0
C831 C 0.98671 0.45516 0.47575 0.0
Fe832 Fe 0.52007 0.98022 0.50693 0.0
O833 O 0.5006 1.00874 0.52939 0.0
Fe834 Fe 0.54081 1.00973 0.44927 0.0
Fe835 Fe 0.49847 0.01483 0.56797 0.0
O836 O 0.5377 1.01213 0.48741 0.0
O837 O 0.53767 0.01522 0.48771 0.0
O838 O 0.50062 1.01196 0.52971 0.0
Fe839 Fe 0.51847 0.04383 0.51013 0.0
C840 C 0.4793 0.95334 0.55177 0.0
O841 O 0.5525 0.98867 0.52957 0.0
O842 O 0.52976 0.99362 0.56968 0.0
O843 O 0.54069 0.07328 0.48558 0.0
O844 O 0.5663 0.04762 0.45426 0.0
O845 O 0.56914 0.98509 0.45166 0.0
O846 O 0.54449 0.95499 0.48008 0.0
O847 O 0.52681 0.05153 0.57183 0.0
O848 O 0.55116 0.05376 0.5327 0.0
C849 C 0.56482 0.96204 0.46182 0.0
O850 O 0.48624 0.03593 0.48725 0.0
O851 O 0.50973 0.03129 0.44737 0.0
O852 O 0.49819 0.9509 0.5317 0.0
O853 O 0.47323 0.97656 0.56373 0.0
C854 C 0.55081 0.98825 0.55418 0.0
C855 C 0.54882 0.06033 0.55738 0.0
C856 C 0.47419 0.06229 0.5559 0.0
O857 O 0.46991 0.03912 0.56583 0.0
O858 O 0.49429 0.06927 0.53737 0.0
C859 C 0.55998 0.07083 0.46588 0.0
O860 O 0.51238 0.97355 0.445 0.0
O861 O 0.48758 0.9694 0.48382 0.0
C862 C 0.48845 0.03666 0.46261 0.0
C863 C 0.49023 0.96405 0.45892 0.0
C864 C 0.23041 0.19005 0.30772 0.0
C865 C 0.21831 0.20903 0.29769 0.0
C866 C 0.21547 0.17397 0.3267 0.0
C867 C 0.15428 0.17165 0.37721 0.0
H868 H 0.16822 0.09851 0.38087 0.0
C869 C 0.10788 0.11479 0.46663 0.0
C870 C 0.09777 0.08637 0.462 0.0
C871 C 0.12454 0.12883 0.44692 0.0
C872 C 0.16383 0.1188 0.38012 0.0
H873 H 0.18048 0.22506 0.29902 0.0
H874 H 0.15394 0.19627 0.33163 0.0
H875 H 0.19068 0.1234 0.3444 0.0
H876 H 0.09694 0.05021 0.43334 0.0
H877 H 0.12563 0.07454 0.3987 0.0
H878 H 0.12656 0.16665 0.41229 0.0
C879 C 0.17534 0.19437 0.32529 0.0
C880 C 0.17704 0.13329 0.35927 0.0
C881 C 0.19042 0.21066 0.30633 0.0
C882 C 0.10526 0.07199 0.43761 0.0
C883 C 0.12161 0.08607 0.41772 0.0
C884 C 0.14087 0.15706 0.39791 0.0
C885 C 0.18782 0.1761 0.33606 0.0
C886 C 0.17261 0.16002 0.35758 0.0
C887 C 0.13087 0.11486 0.42185 0.0
C888 C 0.14557 0.13048 0.39982 0.0
H889 H 0.25182 0.18811 0.30147 0.0
H890 H 0.22604 0.16053 0.33464 0.0
H891 H 0.15055 0.19228 0.3769 0.0
H892 H 0.10197 0.12635 0.48519 0.0
H893 H 0.13178 0.15082 0.45117 0.0
C894 C 0.84035 0.12501 0.32948 0.0
C895 C 0.8138 0.1309 0.33868 0.0
C896 C 0.85459 0.11304 0.34496 0.0
C897 C 0.85626 0.10046 0.41371 0.0
H898 H 0.90125 0.04703 0.38004 0.0
C899 C 0.91538 0.04475 0.47268 0.0
C900 C 0.94363 0.04661 0.46328 0.0
C901 C 0.89693 0.05155 0.45745 0.0
C902 C 0.88875 0.06191 0.38974 0.0
H903 H 0.78191 0.1295 0.37194 0.0
H904 H 0.80626 0.10796 0.39847 0.0
H905 H 0.87484 0.06688 0.35382 0.0
H906 H 0.97447 0.05549 0.43023 0.0
H907 H 0.94244 0.0667 0.40363 0.0
H908 H 0.87037 0.09545 0.44965 0.0
C909 C 0.81627 0.11281 0.37938 0.0
C910 C 0.87375 0.07347 0.37468 0.0
C911 C 0.80211 0.12489 0.36397 0.0
C912 C 0.95278 0.05391 0.43797 0.0
C913 C 0.93439 0.06022 0.42267 0.0
C914 C 0.87114 0.08873 0.42881 0.0
C915 C 0.84265 0.10654 0.37005 0.0
C916 C 0.85764 0.09327 0.38637 0.0
C917 C 0.90638 0.05978 0.43241 0.0
C918 C 0.88793 0.06966 0.41693 0.0
H919 H 0.84996 0.12912 0.31007 0.0
H920 H 0.87506 0.109 0.33724 0.0
H921 H 0.84437 0.11584 0.42343 0.0
H922 H 0.90787 0.0394 0.49222 0.0
H923 H 0.87541 0.05087 0.46541 0.0
C924 C 0.83097 0.84565 0.3092 0.0
C925 C 0.83556 0.82016 0.29571 0.0
C926 C 0.85004 0.86125 0.32556 0.0
C927 C 0.89761 0.89675 0.35222 0.0
H928 H 0.93649 0.85689 0.3892 0.0
C929 C 0.97315 0.95408 0.42647 0.0
C930 C 0.97384 0.94124 0.44866 0.0
C931 C 0.95895 0.93972 0.40564 0.0
C932 C 0.92559 0.86844 0.37933 0.0
H933 H 0.86416 0.79149 0.28763 0.0
H934 H 0.89826 0.81931 0.31487 0.0
H935 H 0.90609 0.83165 0.35779 0.0
H936 H 0.95987 0.90346 0.46659 0.0
H937 H 0.9342 0.879 0.43118 0.0
H938 H 0.91553 0.93336 0.3753 0.0
C939 C 0.87944 0.82688 0.31389 0.0
C940 C 0.90847 0.85392 0.36078 0.0
C941 C 0.86002 0.81099 0.29806 0.0
C942 C 0.96008 0.91382 0.4496 0.0
C943 C 0.94546 0.89969 0.4291 0.0
C944 C 0.91428 0.91124 0.37122 0.0
C945 C 0.87449 0.852 0.32833 0.0
C946 C 0.89401 0.8678 0.34706 0.0
C947 C 0.94466 0.91237 0.40677 0.0
C948 C 0.92829 0.89726 0.38527 0.0
H949 H 0.81208 0.85305 0.30795 0.0
H950 H 0.84505 0.88011 0.33665 0.0
H951 H 0.88735 0.90835 0.34175 0.0
H952 H 0.98366 0.97519 0.42516 0.0
H953 H 0.95927 0.95009 0.38865 0.0
C954 C 0.21356 0.85507 0.34536 0.0
C955 C 0.19737 0.83288 0.35783 0.0
C956 C 0.21771 0.8817 0.35855 0.0
C957 C 0.19587 0.9236 0.42096 0.0
H958 H 0.1599 0.95518 0.37393 0.0
C959 C 0.11025 0.99355 0.4477 0.0
C960 C 0.08729 0.97198 0.45085 0.0
C961 C 0.13557 0.98792 0.43467 0.0
C962 C 0.17088 0.94751 0.38714 0.0
H963 H 0.17683 0.82092 0.3952 0.0
H964 H 0.18224 0.86756 0.41759 0.0
H965 H 0.18969 0.92225 0.35609 0.0
H966 H 0.07197 0.92827 0.44156 0.0
H967 H 0.11596 0.9186 0.41806 0.0
H968 H 0.17394 0.94668 0.45211 0.0
C969 C 0.19212 0.86438 0.39772 0.0
C970 C 0.18802 0.92856 0.37701 0.0
C971 C 0.18842 0.83758 0.38468 0.0
C972 C 0.08934 0.94518 0.43922 0.0
C973 C 0.1144 0.93968 0.42595 0.0
C974 C 0.17875 0.94266 0.43107 0.0
C975 C 0.20512 0.88691 0.38418 0.0
C976 C 0.19868 0.91464 0.39396 0.0
C977 C 0.13781 0.9608 0.42442 0.0
C978 C 0.1646 0.95301 0.41422 0.0
H979 H 0.221 0.85265 0.32472 0.0
H980 H 0.22833 0.89857 0.34778 0.0
H981 H 0.20426 0.91362 0.43443 0.0
H982 H 0.10927 0.0143 0.45701 0.0
H983 H 0.15356 1.00434 0.43366 0.0
C984 C 0.1883 0.89364 0.69228 0.0
C985 C 0.21606 0.90515 0.69564 0.0
C986 C 0.17538 0.90161 0.67299 0.0
C987 C 0.1829 0.95861 0.63165 0.0
H988 H 0.12452 0.90845 0.59748 0.0
C989 C 0.10916 0.99535 0.57162 0.0
C990 C 0.09796 0.97672 0.55119 0.0
C991 C 0.12625 0.98723 0.58736 0.0
C992 C 0.14108 0.92273 0.60646 0.0
H993 H 0.25257 0.93274 0.68067 0.0
H994 H 0.23057 0.94577 0.64636 0.0
H995 H 0.1491 0.8917 0.62727 0.0
H996 H 0.09715 0.93595 0.52987 0.0
H997 H 0.12806 0.92231 0.55611 0.0
H998 H 0.17543 0.98943 0.61013 0.0
C999 C 0.2183 0.93141 0.65912 0.0
C1000 C 0.15491 0.91316 0.62399 0.0
C1001 C 0.23104 0.92374 0.6786 0.0
C1002 C 0.1055 0.95063 0.54564 0.0
C1003 C 0.12291 0.94271 0.56095 0.0
C1004 C 0.16926 0.96813 0.61386 0.0
C1005 C 0.19009 0.92099 0.65641 0.0
C1006 C 0.17593 0.93097 0.63699 0.0
C1007 C 0.13269 0.96046 0.58268 0.0
C1008 C 0.14806 0.95035 0.60106 0.0
H1009 H 0.17622 0.8795 0.70536 0.0
H1010 H 0.15357 0.89332 0.67179 0.0
H1011 H 0.19863 0.97316 0.64154 0.0
H1012 H 0.1034 0.01548 0.57639 0.0
H1013 H 0.13321 1.00148 0.60395 0.0
C1014 C 0.20459 0.17972 0.71661 0.0
C1015 C 0.20727 0.20861 0.72106 0.0
C1016 C 0.18572 0.164 0.69999 0.0
C1017 C 0.14943 0.17043 0.64463 0.0
H1018 H 0.10154 0.10215 0.66154 0.0
C1019 C 0.06586 0.11491 0.57898 0.0
C1020 C 0.06277 0.08605 0.57359 0.0
C1021 C 0.08164 0.12932 0.59866 0.0
C1022 C 0.11497 0.12104 0.6564 0.0
H1023 H 0.19145 0.24347 0.7121 0.0
H1024 H 0.15888 0.21617 0.68329 0.0
H1025 H 0.13327 0.12786 0.69246 0.0
H1026 H 0.07283 0.04965 0.58567 0.0
H1027 H 0.10085 0.07479 0.61951 0.0
H1028 H 0.13171 0.1636 0.60849 0.0
C1029 C 0.17156 0.20567 0.69236 0.0
C1030 C 0.13313 0.13575 0.67413 0.0
C1031 C 0.19019 0.2213 0.70903 0.0
C1032 C 0.07489 0.07188 0.58915 0.0
C1033 C 0.09085 0.08631 0.60871 0.0
C1034 C 0.13145 0.15571 0.62689 0.0
C1035 C 0.16931 0.17689 0.68738 0.0
C1036 C 0.15042 0.16071 0.66849 0.0
C1037 C 0.0949 0.11528 0.61336 0.0
C1038 C 0.11384 0.1309 0.63258 0.0
H1039 H 0.21736 0.16925 0.72559 0.0
H1040 H 0.18452 0.14185 0.69643 0.0
H1041 H 0.16287 0.18933 0.63949 0.0
H1042 H 0.05663 0.12652 0.56759 0.0
H1043 H 0.08376 0.15156 0.6021 0.0
C1044 C 0.8308 0.09827 0.7349 0.0
C1045 C 0.81234 0.11618 0.73437 0.0
C1046 C 0.8357 0.07903 0.71325 0.0
C1047 C 0.84335 0.08455 0.64566 0.0
H1048 H 0.87357 0.01756 0.6391 0.0
C1049 C 0.92711 0.06353 0.56192 0.0
C1050 C 0.94904 0.05282 0.56851 0.0
C1051 C 0.90257 0.0631 0.57879 0.0
C1052 C 0.86532 0.03636 0.64064 0.0
H1053 H 0.78105 0.12496 0.71307 0.0
H1054 H 0.79003 0.09162 0.67496 0.0
H1055 H 0.84029 0.02818 0.67681 0.0
H1056 H 0.96258 0.03277 0.59742 0.0
H1057 H 0.92064 0.03395 0.62797 0.0
H1058 H 0.87004 0.09448 0.61136 0.0
C1059 C 0.80095 0.0927 0.69189 0.0
C1060 C 0.84599 0.04218 0.66203 0.0
C1061 C 0.79598 0.11187 0.71357 0.0
C1062 C 0.94601 0.04148 0.59213 0.0
C1063 C 0.92174 0.04171 0.60937 0.0
C1064 C 0.86296 0.07904 0.62465 0.0
C1065 C 0.8223 0.0776 0.69082 0.0
C1066 C 0.83569 0.06688 0.66522 0.0
C1067 C 0.89971 0.05264 0.60297 0.0
C1068 C 0.87508 0.05545 0.62242 0.0
H1069 H 0.8436 0.10104 0.75073 0.0
H1070 H 0.85231 0.0677 0.71297 0.0
H1071 H 0.83617 0.10401 0.64779 0.0
H1072 H 0.92861 0.07156 0.54337 0.0
H1073 H 0.88587 0.07104 0.57283 0.0
C1074 C 0.84378 0.81898 0.71229 0.0
C1075 C 0.81927 0.82551 0.72672 0.0
C1076 C 0.85727 0.83429 0.69207 0.0
C1077 C 0.86697 0.90061 0.66612 0.0
H1078 H 0.88164 0.85803 0.59876 0.0
C1079 C 0.92029 0.95344 0.57424 0.0
C1080 C 0.94094 0.94032 0.55921 0.0
C1081 C 0.90191 0.93999 0.5936 0.0
C1082 C 0.87801 0.87033 0.61744 0.0
H1083 H 0.79043 0.85393 0.73222 0.0
H1084 H 0.81464 0.88129 0.69759 0.0
H1085 H 0.85935 0.83444 0.63617 0.0
H1086 H 0.95749 0.90242 0.55171 0.0
H1087 H 0.92632 0.87951 0.58507 0.0
H1088 H 0.88665 0.93647 0.64771 0.0
C1089 C 0.82317 0.86415 0.70165 0.0
C1090 C 0.8652 0.85673 0.63888 0.0
C1091 C 0.80935 0.84848 0.72145 0.0
C1092 C 0.94188 0.91317 0.56299 0.0
C1093 C 0.92372 0.89987 0.58211 0.0
C1094 C 0.88029 0.91426 0.64471 0.0
C1095 C 0.84687 0.8568 0.68631 0.0
C1096 C 0.8599 0.87164 0.66354 0.0
C1097 C 0.90377 0.91315 0.5981 0.0
C1098 C 0.88646 0.89926 0.62014 0.0
H1099 H 0.85169 0.80118 0.71567 0.0
H1100 H 0.87561 0.82827 0.68063 0.0
H1101 H 0.86302 0.91263 0.68491 0.0
H1102 H 0.91922 0.97445 0.57192 0.0
H1103 H 0.88663 0.9508 0.60534 0.0
C1104 C 0.34895 0.2312 0.21031 0.0
C1105 C 0.31991 0.22237 0.21276 0.0
C1106 C 0.36664 0.21563 0.1937 0.0
C1107 C 0.36956 0.16394 0.13501 0.0
H1108 H 0.43339 0.14778 0.16143 0.0
C1109 C 0.45352 0.1092 0.06846 0.0
C1110 C 0.45927 0.08619 0.07809 0.0
C1111 C 0.438 0.12743 0.08454 0.0
C1112 C 0.41572 0.15218 0.15369 0.0
H1113 H 0.28712 0.1895 0.19988 0.0
H1114 H 0.31773 0.16326 0.16974 0.0
H1115 H 0.403 0.17588 0.18973 0.0
H1116 H 0.45401 0.06509 0.11259 0.0
H1117 H 0.42814 0.09733 0.14074 0.0
H1118 H 0.38244 0.1404 0.09888 0.0
C1119 C 0.32681 0.1823 0.18077 0.0
C1120 C 0.39834 0.16841 0.1699 0.0
C1121 C 0.30916 0.19754 0.19789 0.0
C1122 C 0.45013 0.08264 0.10451 0.0
C1123 C 0.43525 0.10116 0.1207 0.0
C1124 C 0.38729 0.14819 0.11861 0.0
C1125 C 0.35585 0.19101 0.17855 0.0
C1126 C 0.37483 0.17431 0.16091 0.0
C1127 C 0.4284 0.1235 0.11084 0.0
C1128 C 0.41049 0.14183 0.12778 0.0
H1129 H 0.35813 0.25029 0.22119 0.0
H1130 H 0.38884 0.22312 0.19242 0.0
H1131 H 0.35177 0.16818 0.12735 0.0
H1132 H 0.45985 0.11239 0.04815 0.0
H1133 H 0.43327 0.14449 0.07631 0.0
C1134 C 0.82116 0.28538 0.17708 0.0
C1135 C 0.82094 0.29908 0.20269 0.0
C1136 C 0.83943 0.29662 0.15664 0.0
C1137 C 0.90341 0.34862 0.14282 0.0
H1138 H 0.87243 0.35119 0.07884 0.0
C1139 C 0.96554 0.40877 0.05861 0.0
C1140 C 0.95072 0.42704 0.05101 0.0
C1141 C 0.95179 0.38817 0.07418 0.0
C1142 C 0.88149 0.35048 0.0965 0.0
H1143 H 0.83968 0.33511 0.22712 0.0
H1144 H 0.87123 0.35494 0.19152 0.0
H1145 H 0.84468 0.32516 0.1127 0.0
H1146 H 0.9099 0.43724 0.05242 0.0
H1147 H 0.8861 0.40145 0.07894 0.0
H1148 H 0.93977 0.37505 0.12702 0.0
C1149 C 0.85768 0.33532 0.18717 0.0
C1150 C 0.86564 0.33537 0.11585 0.0
C1151 C 0.83936 0.32414 0.20753 0.0
C1152 C 0.92189 0.42352 0.05809 0.0
C1153 C 0.90819 0.40284 0.07315 0.0
C1154 C 0.91932 0.36367 0.12339 0.0
C1155 C 0.85786 0.32181 0.16142 0.0
C1156 C 0.8761 0.33488 0.13956 0.0
C1157 C 0.92297 0.38522 0.08184 0.0
C1158 C 0.90822 0.36543 0.10033 0.0
H1159 H 0.80706 0.26609 0.17282 0.0
H1160 H 0.83914 0.28558 0.13708 0.0
H1161 H 0.91225 0.34831 0.16069 0.0
H1162 H 0.98781 0.41117 0.05354 0.0
H1163 H 0.96372 0.37484 0.08052 0.0
C1164 C 0.65837 0.885 0.19741 0.0
C1165 C 0.68713 0.88531 0.19354 0.0
C1166 C 0.64569 0.89621 0.18013 0.0
C1167 C 0.66106 0.94583 0.13147 0.0
H1168 H 0.5894 0.90927 0.11014 0.0
C1169 C 0.61202 0.98076 0.05017 0.0
C1170 C 0.58317 0.97998 0.05371 0.0
C1171 C 0.62469 0.96976 0.06761 0.0
C1172 C 0.60925 0.91993 0.11617 0.0
H1173 H 0.72508 0.89751 0.16832 0.0
H1174 H 0.70287 0.91672 0.13792 0.0
H1175 H 0.61156 0.88832 0.13919 0.0
H1176 H 0.54513 0.96747 0.07881 0.0
H1177 H 0.56733 0.94857 0.10934 0.0
H1178 H 0.65874 0.97746 0.10847 0.0
C1179 C 0.69017 0.90805 0.1545 0.0
C1180 C 0.62198 0.90789 0.13279 0.0
C1181 C 0.70285 0.89676 0.17176 0.0
C1182 C 0.56739 0.96838 0.07541 0.0
C1183 C 0.58008 0.95734 0.09283 0.0
C1184 C 0.64832 0.95789 0.11486 0.0
C1185 C 0.66146 0.90805 0.15857 0.0
C1186 C 0.64804 0.92069 0.14064 0.0
C1187 C 0.60886 0.95769 0.08902 0.0
C1188 C 0.62226 0.94509 0.107 0.0
H1189 H 0.64561 0.87606 0.21382 0.0
H1190 H 0.62357 0.89606 0.18396 0.0
H1191 H 0.68093 0.95646 0.13748 0.0
H1192 H 0.62485 0.98954 0.0337 0.0
H1193 H 0.64685 0.97012 0.06392 0.0
C1194 C 0.24509 0.66384 0.19047 0.0
C1195 C 0.23686 0.68724 0.20567 0.0
C1196 C 0.22696 0.64606 0.17418 0.0
C1197 C 0.15209 0.6263 0.1638 0.0
H1198 H 0.1798 0.60178 0.09261 0.0
C1199 C 0.07959 0.57983 0.08269 0.0
C1200 C 0.08846 0.5598 0.06317 0.0
C1201 C 0.09686 0.59297 0.10192 0.0
C1202 C 0.17168 0.60801 0.11256 0.0
H1203 H 0.2027 0.70986 0.2156 0.0
H1204 H 0.17178 0.67931 0.18751 0.0
H1205 H 0.21205 0.62831 0.12236 0.0
H1206 H 0.12131 0.53632 0.0497 0.0
H1207 H 0.15075 0.55842 0.08336 0.0
H1208 H 0.11167 0.6062 0.15395 0.0
C1209 C 0.19202 0.67442 0.18824 0.0
C1210 C 0.19027 0.62327 0.12964 0.0
C1211 C 0.21004 0.69217 0.20426 0.0
C1212 C 0.11408 0.55205 0.06421 0.0
C1213 C 0.1311 0.56489 0.08344 0.0
C1214 C 0.13349 0.61095 0.14674 0.0
C1215 C 0.20013 0.65113 0.17296 0.0
C1216 C 0.1807 0.6329 0.1554 0.0
C1217 C 0.12319 0.58613 0.10211 0.0
C1218 C 0.14297 0.60175 0.12079 0.0
H1219 H 0.26551 0.65935 0.19103 0.0
H1220 H 0.23384 0.6282 0.16271 0.0
H1221 H 0.14402 0.63306 0.18364 0.0
H1222 H 0.06002 0.5863 0.08232 0.0
H1223 H 0.09006 0.60929 0.11591 0.0
C1224 C 0.33096 0.79735 0.82967 0.0
C1225 C 0.32148 0.80885 0.81018 0.0
C1226 C 0.34755 0.81414 0.84781 0.0
C1227 C 0.36464 0.88668 0.87773 0.0
H1228 H 0.42813 0.86417 0.89879 0.0
C1229 C 0.4198 0.94444 0.96597 0.0
C1230 C 0.449 0.949 0.96369 0.0
C1231 C 0.40522 0.92754 0.94662 0.0
C1232 C 0.41059 0.87084 0.89295 0.0
H1233 H 0.32243 0.84717 0.79449 0.0
H1234 H 0.35102 0.87614 0.82593 0.0
H1235 H 0.40092 0.83393 0.86637 0.0
H1236 H 0.48571 0.93932 0.93894 0.0
H1237 H 0.4601 0.90967 0.90502 0.0
H1238 H 0.37427 0.92357 0.90409 0.0
C1239 C 0.34549 0.85422 0.82741 0.0
C1240 C 0.3948 0.85337 0.8746 0.0
C1241 C 0.32912 0.83749 0.80927 0.0
C1242 C 0.46325 0.93631 0.94134 0.0
C1243 C 0.44856 0.91915 0.92199 0.0
C1244 C 0.38027 0.90401 0.89614 0.0
C1245 C 0.35483 0.84284 0.84701 0.0
C1246 C 0.37163 0.8611 0.86674 0.0
C1247 C 0.41934 0.91456 0.92442 0.0
C1248 C 0.4034 0.89632 0.90407 0.0
H1249 H 0.32546 0.7754 0.83102 0.0
H1250 H 0.35419 0.80473 0.86279 0.0
H1251 H 0.34679 0.89321 0.87235 0.0
H1252 H 0.40807 0.95389 0.98283 0.0
H1253 H 0.38274 0.92425 0.94931 0.0
C1254 C 0.21919 0.32754 0.8139 0.0
C1255 C 0.21342 0.29847 0.80957 0.0
C1256 C 0.2 0.34245 0.82904 0.0
C1257 C 0.14172 0.33927 0.88172 0.0
H1258 H 0.12437 0.40041 0.85287 0.0
C1259 C 0.06551 0.40935 0.94086 0.0
C1260 C 0.07185 0.43761 0.9376 0.0
C1261 C 0.0798 0.39012 0.92447 0.0
C1262 C 0.12918 0.38378 0.86166 0.0
H1263 H 0.182 0.26271 0.81735 0.0
H1264 H 0.14922 0.28862 0.84504 0.0
H1265 H 0.15582 0.37235 0.82723 0.0
H1266 H 0.09801 0.46713 0.91354 0.0
H1267 H 0.12284 0.43472 0.88638 0.0
H1268 H 0.11607 0.3514 0.91667 0.0
C1269 C 0.16876 0.2998 0.83666 0.0
C1270 C 0.14721 0.36748 0.8467 0.0
C1271 C 0.18772 0.28488 0.82094 0.0
C1272 C 0.09225 0.4457 0.91698 0.0
C1273 C 0.10654 0.42677 0.90095 0.0
C1274 C 0.12404 0.35599 0.897 0.0
C1275 C 0.17453 0.32885 0.84076 0.0
C1276 C 0.15404 0.34517 0.85656 0.0
C1277 C 0.10089 0.39859 0.90436 0.0
C1278 C 0.11776 0.3789 0.88742 0.0
H1279 H 0.23861 0.33892 0.8055 0.0
H1280 H 0.20526 0.36477 0.83182 0.0
H1281 H 0.14653 0.32226 0.88998 0.0
H1282 H 0.05012 0.40219 0.95652 0.0
H1283 H 0.07438 0.36865 0.92773 0.0
C1284 C 0.68881 0.21158 0.80747 0.0
C1285 C 0.706 0.23652 0.81556 0.0
C1286 C 0.6707 0.19679 0.82578 0.0
C1287 C 0.65668 0.1895 0.89705 0.0
H1288 H 0.58561 0.14931 0.87711 0.0
C1289 C 0.57707 0.12492 0.9679 0.0
C1290 C 0.56882 0.09752 0.95689 0.0
C1291 C 0.59072 0.14508 0.95187 0.0
C1292 C 0.60535 0.1605 0.883 0.0
H1293 H 0.71863 0.26504 0.84908 0.0
H1294 H 0.68631 0.23981 0.88118 0.0
H1295 H 0.61647 0.1778 0.84685 0.0
H1296 H 0.5668 0.06999 0.9206 0.0
H1297 H 0.58969 0.10511 0.89269 0.0
H1298 H 0.64541 0.17187 0.9332 0.0
C1299 C 0.68686 0.23144 0.86072 0.0
C1300 C 0.62319 0.17671 0.86558 0.0
C1301 C 0.70508 0.24617 0.84234 0.0
C1302 C 0.57286 0.09101 0.92956 0.0
C1303 C 0.58593 0.11115 0.91358 0.0
C1304 C 0.63869 0.17343 0.91458 0.0
C1305 C 0.66919 0.20665 0.85268 0.0
C1306 C 0.64938 0.191 0.8721 0.0
C1307 C 0.59577 0.13823 0.92456 0.0
C1308 C 0.61306 0.1583 0.90754 0.0
H1309 H 0.68931 0.20352 0.78692 0.0
H1310 H 0.65803 0.17748 0.81879 0.0
H1311 H 0.67675 0.19988 0.90273 0.0
H1312 H 0.5745 0.13037 0.98894 0.0
H1313 H 0.59794 0.16584 0.96086 0.0
C1314 C 0.88361 0.70183 0.86562 0.0
C1315 C 0.90169 0.71071 0.84385 0.0
C1316 C 0.88971 0.68212 0.87967 0.0
C1317 C 0.94987 0.65519 0.89359 0.0
H1318 H 0.89503 0.59572 0.92034 0.0
C1319 C 0.98201 0.57323 0.94547 0.0
C1320 C 0.96433 0.56368 0.96718 0.0
C1321 C 0.97344 0.58959 0.92948 0.0
C1322 C 0.9106 0.6124 0.9133 0.0
H1323 H 0.93927 0.70416 0.81873 0.0
H1324 H 0.9499 0.67023 0.84318 0.0
H1325 H 0.88114 0.62699 0.89461 0.0
H1326 H 0.92349 0.56377 0.98877 0.0
H1327 H 0.90887 0.59262 0.96139 0.0
H1328 H 0.97923 0.64123 0.9126 0.0
C1329 C 0.93136 0.67891 0.84983 0.0
C1330 C 0.90259 0.63031 0.89849 0.0
C1331 C 0.92523 0.6984 0.83578 0.0
C1332 C 0.93769 0.5706 0.97219 0.0
C1333 C 0.9292 0.58709 0.95632 0.0
C1334 C 0.95783 0.63748 0.90853 0.0
C1335 C 0.91406 0.67092 0.87229 0.0
C1336 C 0.92217 0.65186 0.88833 0.0
C1337 C 0.94701 0.59705 0.93483 0.0
C1338 C 0.93837 0.61573 0.91857 0.0
H1339 H 0.86537 0.71092 0.87244 0.0
H1340 H 0.87594 0.67646 0.89691 0.0
H1341 H 0.96543 0.67187 0.8865 0.0
H1342 H 1.00263 0.56828 0.94089 0.0
H1343 H 0.98761 0.59636 0.91287 0.0
C1344 C 0.16567 0.35077 0.16788 0.0
C1345 C 0.14757 0.34202 0.18967 0.0
C1346 C 0.15674 0.36464 0.14986 0.0
C1347 C 0.1021 0.40472 0.14416 0.0
H1348 H 0.12681 0.39403 0.06988 0.0
C1349 C 0.05508 0.45039 0.06765 0.0
C1350 C 0.07335 0.46134 0.04687 0.0
C1351 C 0.0643 0.4359 0.08492 0.0
C1352 C 0.11992 0.39749 0.09061 0.0
H1353 H 0.10545 0.33974 0.20873 0.0
H1354 H 0.08984 0.36337 0.17731 0.0
H1355 H 0.14244 0.36811 0.09958 0.0
H1356 H 0.11588 0.46575 0.02836 0.0
H1357 H 0.13185 0.4407 0.05848 0.0
H1358 H 0.07947 0.43397 0.13518 0.0
C1359 C 0.11118 0.36035 0.17445 0.0
C1360 C 0.12892 0.3826 0.10769 0.0
C1361 C 0.12012 0.34665 0.19246 0.0
C1362 C 0.10113 0.45756 0.04402 0.0
C1363 C 0.11029 0.443 0.06123 0.0
C1364 C 0.09303 0.4195 0.1271 0.0
C1365 C 0.12945 0.36998 0.1531 0.0
C1366 C 0.12009 0.38594 0.13473 0.0
C1367 C 0.092 0.43187 0.08187 0.0
C1368 C 0.10177 0.41609 0.10007 0.0
H1369 H 0.187 0.34774 0.16524 0.0
H1370 H 0.17152 0.3719 0.13382 0.0
H1371 H 0.09527 0.40836 0.16489 0.0
H1372 H 0.03353 0.45275 0.07045 0.0
H1373 H 0.04952 0.42739 0.1004 0.0
C1374 C 0.19898 0.70522 0.81002 0.0
C1375 C 0.21677 0.73051 0.81579 0.0
C1376 C 0.17987 0.69346 0.82959 0.0
C1377 C 0.16993 0.69162 0.9005 0.0
H1378 H 0.09709 0.65007 0.88708 0.0
C1379 C 0.11511 0.59995 0.95448 0.0
C1380 C 0.08633 0.59622 0.96194 0.0
C1381 C 0.12852 0.62119 0.93994 0.0
C1382 C 0.11717 0.66194 0.89132 0.0
H1383 H 0.2284 0.76342 0.84653 0.0
H1384 H 0.1949 0.74295 0.88084 0.0
H1385 H 0.1245 0.67853 0.85458 0.0
H1386 H 0.049 0.61214 0.96043 0.0
H1387 H 0.07257 0.64934 0.93423 0.0
H1388 H 0.16302 0.67434 0.93681 0.0
C1389 C 0.19573 0.7322 0.86114 0.0
C1390 C 0.133 0.67802 0.87259 0.0
C1391 C 0.21477 0.74404 0.84148 0.0
C1392 C 0.07125 0.6147 0.95507 0.0
C1393 C 0.08469 0.6358 0.93997 0.0
C1394 C 0.15422 0.6754 0.91909 0.0
C1395 C 0.17824 0.7066 0.85549 0.0
C1396 C 0.15986 0.69252 0.87669 0.0
C1397 C 0.11348 0.63911 0.93211 0.0
C1398 C 0.12797 0.65981 0.91443 0.0
H1399 H 0.19996 0.69438 0.79035 0.0
H1400 H 0.167 0.67358 0.82459 0.0
H1401 H 0.19056 0.70236 0.90427 0.0
H1402 H 0.12729 0.58608 0.95958 0.0
H1403 H 0.15061 0.6229 0.93396 0.0
C1404 C 0.30088 0.10174 0.8637 0.0
C1405 C 0.31092 0.11972 0.84463 0.0
C1406 C 0.3189 0.09465 0.87895 0.0
C1407 C 0.38975 0.11313 0.90027 0.0
H1408 H 0.37467 0.03617 0.91198 0.0
C1409 C 0.46195 0.06399 0.95264 0.0
C1410 C 0.44807 0.04708 0.97168 0.0
C1411 C 0.44696 0.07344 0.9358 0.0
C1412 C 0.37911 0.05777 0.90905 0.0
H1413 H 0.34767 0.14534 0.82742 0.0
H1414 H 0.37945 0.13274 0.85401 0.0
H1415 H 0.34529 0.05258 0.88622 0.0
H1416 H 0.40755 0.02643 0.98744 0.0
H1417 H 0.38172 0.04267 0.95828 0.0
H1418 H 0.42373 0.11808 0.92325 0.0
C1419 C 0.3575 0.12425 0.85727 0.0
C1420 C 0.36217 0.06725 0.89433 0.0
C1421 C 0.33932 0.13152 0.84204 0.0
C1422 C 0.41899 0.03946 0.9731 0.0
C1423 C 0.40413 0.04866 0.95622 0.0
C1424 C 0.40684 0.10356 0.915 0.0
C1425 C 0.34759 0.10514 0.87546 0.0
C1426 C 0.36687 0.09516 0.89011 0.0
C1427 C 0.41783 0.06587 0.93743 0.0
C1428 C 0.4014 0.07584 0.91994 0.0
H1429 H 0.27902 0.09269 0.86648 0.0
H1430 H 0.31033 0.08055 0.89328 0.0
H1431 H 0.39397 0.13476 0.8975 0.0
H1432 H 0.48432 0.07034 0.95106 0.0
H1433 H 0.45816 0.08653 0.92142 0.0
C1434 C 0.79392 0.34433 0.8278 0.0
C1435 C 0.80412 0.33195 0.80329 0.0
C1436 C 0.81208 0.36148 0.84429 0.0
C1437 C 0.88531 0.40011 0.84672 0.0
H1438 H 0.86793 0.3927 0.9207 0.0
C1439 C 0.96074 0.44674 0.92708 0.0
C1440 C 0.94807 0.45941 0.95041 0.0
C1441 C 0.94456 0.43219 0.90743 0.0
C1442 C 0.87304 0.39515 0.90011 0.0
H1443 H 0.84144 0.32899 0.77646 0.0
H1444 H 0.87305 0.35826 0.80533 0.0
H1445 H 0.83674 0.36646 0.89001 0.0
H1446 H 0.90843 0.46774 0.97047 0.0
H1447 H 0.88084 0.44264 0.93675 0.0
H1448 H 0.92205 0.42858 0.85716 0.0
C1449 C 0.85101 0.35509 0.81181 0.0
C1450 C 0.855 0.38022 0.88246 0.0
C1451 C 0.83283 0.33811 0.79526 0.0
C1452 C 0.91908 0.45797 0.95308 0.0
C1453 C 0.90309 0.44344 0.93371 0.0
C1454 C 0.90355 0.41494 0.86445 0.0
C1455 C 0.841 0.36658 0.83683 0.0
C1456 C 0.86062 0.38267 0.8555 0.0
C1457 C 0.91544 0.4299 0.91086 0.0
C1458 C 0.89742 0.4129 0.89142 0.0
H1459 H 0.77206 0.3399 0.83478 0.0
H1460 H 0.80342 0.37039 0.86314 0.0
H1461 H 0.89033 0.40275 0.82617 0.0
H1462 H 0.98297 0.44745 0.9243 0.0
H1463 H 0.9547 0.422 0.88998 0.0
C1464 C 0.72842 0.83442 0.82738 0.0
C1465 C 0.71807 0.81009 0.81158 0.0
C1466 C 0.71041 0.84928 0.84454 0.0
C1467 C 0.63844 0.86285 0.85459 0.0
H1468 H 0.65317 0.88997 0.92606 0.0
C1469 C 0.58401 0.9467 0.92038 0.0
C1470 C 0.57499 0.94306 0.94681 0.0
C1471 C 0.59942 0.9286 0.90417 0.0
C1472 C 0.64862 0.88243 0.90621 0.0
H1473 H 0.68008 0.78261 0.80174 0.0
H1474 H 0.64881 0.80908 0.83057 0.0
H1475 H 0.6845 0.86294 0.89756 0.0
H1476 H 0.5753 0.91713 0.97673 0.0
H1477 H 0.60273 0.88575 0.94854 0.0
H1478 H 0.603 0.88292 0.86298 0.0
C1479 C 0.67098 0.81653 0.82994 0.0
C1480 C 0.66676 0.8671 0.88976 0.0
C1481 C 0.68902 0.80136 0.81326 0.0
C1482 C 0.58146 0.92035 0.95641 0.0
C1483 C 0.5975 0.90255 0.94031 0.0
C1484 C 0.62064 0.87864 0.87085 0.0
C1485 C 0.68135 0.8407 0.84596 0.0
C1486 C 0.66195 0.85703 0.86367 0.0
C1487 C 0.60697 0.90658 0.91398 0.0
C1488 C 0.6254 0.88869 0.89695 0.0
H1489 H 0.75047 0.84239 0.8261 0.0
H1490 H 0.71925 0.86796 0.85624 0.0
H1491 H 0.63407 0.85565 0.83463 0.0
H1492 H 0.57966 0.96404 0.91231 0.0
H1493 H 0.6064 0.93256 0.88415 0.0
C1494 C 0.85196 0.73937 0.19216 0.0
C1495 C 0.82896 0.7262 0.20787 0.0
C1496 C 0.87026 0.72409 0.17588 0.0
C1497 C 0.89544 0.65764 0.16876 0.0
H1498 H 0.91919 0.66961 0.09637 0.0
C1499 C 0.94722 0.57781 0.0971 0.0
C1500 C 0.96624 0.58557 0.07543 0.0
C1501 C 0.93339 0.59689 0.11352 0.0
C1502 C 0.91326 0.6662 0.11665 0.0
H1503 H 0.8079 0.68625 0.21879 0.0
H1504 H 0.83995 0.65996 0.19118 0.0
H1505 H 0.88952 0.69892 0.12393 0.0
H1506 H 0.98596 0.62047 0.05486 0.0
H1507 H 0.96234 0.6542 0.08409 0.0
H1508 H 0.91934 0.62547 0.16202 0.0
C1509 C 0.84373 0.68214 0.1912 0.0
C1510 C 0.89605 0.68304 0.13248 0.0
C1511 C 0.82521 0.69731 0.20706 0.0
C1512 C 0.97167 0.6136 0.07137 0.0
C1513 C 0.95776 0.63292 0.08802 0.0
C1514 C 0.91286 0.64113 0.15313 0.0
C1515 C 0.86656 0.69522 0.17531 0.0
C1516 C 0.88643 0.67865 0.15866 0.0
C1517 C 0.93806 0.6248 0.10926 0.0
C1518 C 0.92165 0.64461 0.12657 0.0
H1519 H 0.85606 0.76156 0.19256 0.0
H1520 H 0.88771 0.73499 0.16418 0.0
H1521 H 0.88905 0.65396 0.18894 0.0
H1522 H 0.94226 0.55654 0.10112 0.0
H1523 H 0.91818 0.5893 0.12911 0.0
C1524 C 0.32676 0.77895 0.17805 0.0
C1525 C 0.33153 0.78331 0.20445 0.0
C1526 C 0.34415 0.79457 0.15977 0.0
C1527 C 0.41329 0.84235 0.15179 0.0
H1528 H 0.38341 0.86201 0.09343 0.0
C1529 C 0.46217 0.9351 0.09457 0.0
C1530 C 0.46448 0.93041 0.06709 0.0
C1531 C 0.44887 0.91412 0.10962 0.0
C1532 C 0.39211 0.85637 0.10945 0.0
H1533 H 0.35751 0.80789 0.23273 0.0
H1534 H 0.38686 0.83601 0.20145 0.0
H1535 H 0.3534 0.83225 0.12325 0.0
H1536 H 0.45502 0.90009 0.03374 0.0
H1537 H 0.43088 0.86341 0.0602 0.0
H1538 H 0.45157 0.86797 0.13866 0.0
C1539 C 0.37058 0.81987 0.1943 0.0
C1540 C 0.37494 0.8392 0.12658 0.0
C1541 C 0.35358 0.80389 0.21238 0.0
C1542 C 0.45389 0.90407 0.05489 0.0
C1543 C 0.43989 0.88323 0.07 0.0
C1544 C 0.43025 0.85995 0.13498 0.0
C1545 C 0.36644 0.81526 0.16759 0.0
C1546 C 0.38514 0.8322 0.14827 0.0
C1547 C 0.4369 0.88821 0.09753 0.0
C1548 C 0.41978 0.86736 0.11379 0.0
H1549 H 0.30996 0.76304 0.17144 0.0
H1550 H 0.34035 0.79003 0.13943 0.0
H1551 H 0.42231 0.83692 0.1677 0.0
H1552 H 0.46994 0.95532 0.10442 0.0
H1553 H 0.44672 0.9186 0.13077 0.0
C1554 C 0.72345 0.18581 0.20358 0.0
C1555 C 0.71687 0.21067 0.21715 0.0
C1556 C 0.70581 0.16907 0.18636 0.0
C1557 C 0.64628 0.17066 0.14909 0.0
H1558 H 0.64478 0.0918 0.13599 0.0
C1559 C 0.57102 0.09486 0.08266 0.0
C1560 C 0.5841 0.07751 0.06314 0.0
C1561 C 0.58564 0.11059 0.10279 0.0
C1562 C 0.64501 0.11381 0.13942 0.0
H1563 H 0.68569 0.23673 0.22368 0.0
H1564 H 0.65441 0.20706 0.19483 0.0
H1565 H 0.67226 0.11969 0.1691 0.0
H1566 H 0.6225 0.06239 0.05006 0.0
H1567 H 0.64763 0.08917 0.0855 0.0
H1568 H 0.61831 0.16433 0.1197 0.0
C1569 C 0.67374 0.20085 0.19667 0.0
C1570 C 0.66098 0.12996 0.15833 0.0
C1571 C 0.69164 0.21785 0.21356 0.0
C1572 C 0.61185 0.0757 0.06466 0.0
C1573 C 0.62622 0.09092 0.08506 0.0
C1574 C 0.6299 0.15439 0.13053 0.0
C1575 C 0.68067 0.17633 0.18246 0.0
C1576 C 0.66225 0.15877 0.16326 0.0
C1577 C 0.61343 0.10879 0.10422 0.0
C1578 C 0.62936 0.12583 0.12521 0.0
H1579 H 0.74264 0.17948 0.20568 0.0
H1580 H 0.7124 0.15076 0.17561 0.0
H1581 H 0.64691 0.19272 0.15175 0.0
H1582 H 0.54969 0.09678 0.08203 0.0
H1583 H 0.57517 0.12407 0.11735 0.0
C1584 C 0.68811 0.70383 0.79709 0.0
C1585 C 0.71652 0.70263 0.79207 0.0
C1586 C 0.66946 0.6833 0.80933 0.0
C1587 C 0.66354 0.61336 0.8308 0.0
H1588 H 0.60539 0.63778 0.88148 0.0
C1589 C 0.61551 0.5644 0.92429 0.0
C1590 C 0.58644 0.55807 0.92892 0.0
C1591 C 0.62837 0.57805 0.90298 0.0
C1592 C 0.62123 0.63059 0.86705 0.0
H1593 H 0.74745 0.67829 0.795 0.0
H1594 H 0.71547 0.64352 0.81787 0.0
H1595 H 0.63409 0.66998 0.85332 0.0
H1596 H 0.54789 0.56046 0.91485 0.0
H1597 H 0.57061 0.58572 0.87788 0.0
H1598 H 0.65175 0.57453 0.84631 0.0
C1599 C 0.70723 0.65982 0.81173 0.0
C1600 C 0.63769 0.64899 0.85079 0.0
C1601 C 0.72575 0.68005 0.79896 0.0
C1602 C 0.57035 0.56505 0.91153 0.0
C1603 C 0.58328 0.57947 0.89053 0.0
C1604 C 0.64743 0.59518 0.84747 0.0
C1605 C 0.67882 0.66128 0.81736 0.0
C1606 C 0.65946 0.64081 0.83275 0.0
C1607 C 0.6124 0.58623 0.88627 0.0
C1608 C 0.62646 0.6038 0.86599 0.0
H1609 H 0.68027 0.72092 0.79196 0.0
H1610 H 0.64772 0.68491 0.81272 0.0
H1611 H 0.67954 0.60599 0.81675 0.0
H1612 H 0.62831 0.55912 0.93743 0.0
H1613 H 0.65083 0.58327 0.90021 0.0
C1614 C 0.3335 0.62464 0.85263 0.0
C1615 C 0.3445 0.63937 0.8313 0.0
C1616 C 0.35057 0.62114 0.87068 0.0
C1617 C 0.42244 0.61599 0.87473 0.0
H1618 H 0.39588 0.61241 0.94821 0.0
C1619 C 0.48066 0.57179 0.94431 0.0
C1620 C 0.46328 0.55214 0.95901 0.0
C1621 C 0.46924 0.58862 0.93093 0.0
C1622 C 0.40364 0.61334 0.92774 0.0
H1623 H 0.38176 0.66288 0.81262 0.0
H1624 H 0.41192 0.65662 0.84428 0.0
H1625 H 0.37005 0.63166 0.92093 0.0
H1626 H 0.42031 0.53567 0.97202 0.0
H1627 H 0.40066 0.56475 0.94899 0.0
H1628 H 0.45546 0.59663 0.88137 0.0
C1629 C 0.39001 0.64778 0.84696 0.0
C1630 C 0.38885 0.62439 0.91212 0.0
C1631 C 0.37276 0.65158 0.829 0.0
C1632 C 0.43437 0.55038 0.96073 0.0
C1633 C 0.42305 0.56731 0.9477 0.0
C1634 C 0.43727 0.60488 0.8904 0.0
C1635 C 0.37917 0.63208 0.86776 0.0
C1636 C 0.39754 0.62502 0.88523 0.0
C1637 C 0.44025 0.58642 0.93236 0.0
C1638 C 0.4275 0.60256 0.91688 0.0
H1639 H 0.31177 0.61504 0.85486 0.0
H1640 H 0.34153 0.60867 0.88623 0.0
H1641 H 0.42962 0.61599 0.85406 0.0
H1642 H 0.50301 0.57377 0.94268 0.0
H1643 H 0.48306 0.60325 0.91939 0.0
C1644 C 0.35502 0.29388 0.79772 0.0
C1645 C 0.33045 0.30333 0.79607 0.0
C1646 C 0.37483 0.30948 0.8134 0.0
C1647 C 0.37841 0.3588 0.87227 0.0
H1648 H 0.45785 0.37566 0.85186 0.0
C1649 C 0.47506 0.43952 0.91444 0.0
C1650 C 0.46869 0.43568 0.94105 0.0
C1651 C 0.46204 0.42053 0.89525 0.0
C1652 C 0.43571 0.37102 0.85777 0.0
H1653 H 0.30768 0.33678 0.80883 0.0
H1654 H 0.34215 0.36386 0.83608 0.0
H1655 H 0.42704 0.349 0.82017 0.0
H1656 H 0.44588 0.40752 0.96808 0.0
H1657 H 0.42349 0.37454 0.93472 0.0
H1658 H 0.38666 0.38086 0.90959 0.0
C1659 C 0.34608 0.34442 0.82538 0.0
C1660 C 0.41816 0.35571 0.83974 0.0
C1661 C 0.32647 0.32901 0.80962 0.0
C1662 C 0.45085 0.41141 0.94782 0.0
C1663 C 0.43796 0.3925 0.92872 0.0
C1664 C 0.39586 0.37376 0.89026 0.0
C1665 C 0.37019 0.33459 0.82784 0.0
C1666 C 0.38931 0.34979 0.84679 0.0
C1667 C 0.44253 0.39741 0.90239 0.0
C1668 C 0.42467 0.38019 0.88322 0.0
H1669 H 0.35858 0.27416 0.78739 0.0
H1670 H 0.39322 0.30141 0.81505 0.0
H1671 H 0.35628 0.35426 0.87832 0.0
H1672 H 0.48875 0.45797 0.90856 0.0
H1673 H 0.46594 0.42485 0.87509 0.0
C1674 C 0.61082 0.27586 0.87922 0.0
C1675 C 0.63631 0.27563 0.86353 0.0
C1676 C 0.60951 0.2928 0.90309 0.0
C1677 C 0.6472 0.3594 0.92813 0.0
H1678 H 0.58575 0.35331 0.98334 0.0
C1679 C 0.61123 0.45631 0.98043 0.0
C1680 C 0.58277 0.45511 0.97935 0.0
C1681 C 0.62221 0.43216 0.97677 0.0
C1682 C 0.60323 0.35526 0.96823 0.0
H1683 H 0.68071 0.29092 0.86193 0.0
H1684 H 0.67857 0.31928 0.90388 0.0
H1685 H 0.59825 0.31151 0.95765 0.0
H1686 H 0.54325 0.42755 0.97511 0.0
H1687 H 0.56255 0.38562 0.9676 0.0
H1688 H 0.65116 0.40294 0.93733 0.0
C1689 C 0.65947 0.30707 0.89744 0.0
C1690 C 0.61037 0.33137 0.95354 0.0
C1691 C 0.6607 0.29066 0.87336 0.0
C1692 C 0.56533 0.42923 0.97575 0.0
C1693 C 0.57634 0.40512 0.97188 0.0
C1694 C 0.64014 0.38316 0.9428 0.0
C1695 C 0.63371 0.3096 0.91183 0.0
C1696 C 0.63142 0.33331 0.93236 0.0
C1697 C 0.605 0.40636 0.97168 0.0
C1698 C 0.61711 0.3814 0.96199 0.0
H1699 H 0.5916 0.26471 0.8722 0.0
H1700 H 0.58924 0.2944 0.91348 0.0
H1701 H 0.66337 0.36185 0.91186 0.0
H1702 H 0.62515 0.47592 0.98372 0.0
H1703 H 0.64433 0.43372 0.97702 0.0
C1704 C 0.71582 0.37961 0.13713 0.0
C1705 C 0.70912 0.37368 0.16318 0.0
C1706 C 0.69691 0.38885 0.1244 0.0
C1707 C 0.63364 0.42088 0.13786 0.0
H1708 H 0.63385 0.4044 0.06255 0.0
C1709 C 0.56198 0.46237 0.07881 0.0
C1710 C 0.57724 0.4772 0.05883 0.0
C1711 C 0.57469 0.44582 0.09132 0.0
C1712 C 0.63347 0.40904 0.08362 0.0
H1713 H 0.67675 0.37275 0.19605 0.0
H1714 H 0.64342 0.38756 0.17351 0.0
H1715 H 0.66223 0.38263 0.08504 0.0
H1716 H 0.61721 0.4853 0.03546 0.0
H1717 H 0.63889 0.45588 0.05654 0.0
H1718 H 0.60468 0.44727 0.13619 0.0
C1719 C 0.6636 0.38569 0.16306 0.0
C1720 C 0.64993 0.39678 0.09654 0.0
C1721 C 0.68266 0.37674 0.17591 0.0
C1722 C 0.60493 0.47422 0.05086 0.0
C1723 C 0.61734 0.45725 0.06284 0.0
C1724 C 0.61685 0.43283 0.12495 0.0
C1725 C 0.67053 0.39212 0.13717 0.0
C1726 C 0.65083 0.40305 0.12378 0.0
C1727 C 0.60257 0.44328 0.08352 0.0
C1728 C 0.61711 0.42754 0.09762 0.0
H1729 H 0.73576 0.37713 0.12645 0.0
H1730 H 0.70332 0.39396 0.10464 0.0
H1731 H 0.63393 0.42657 0.15875 0.0
H1732 H 0.54063 0.46433 0.08537 0.0
H1733 H 0.56283 0.43519 0.10719 0.0
C1734 C 0.69032 0.73496 0.2189 0.0
C1735 C 0.71229 0.72264 0.22304 0.0
C1736 C 0.66883 0.71986 0.20503 0.0
C1737 C 0.63911 0.68976 0.159 0.0
H1738 H 0.61211 0.61169 0.16285 0.0
C1739 C 0.59265 0.61579 0.07445 0.0
C1740 C 0.57176 0.59305 0.07993 0.0
C1741 C 0.60463 0.63374 0.0947 0.0
C1742 C 0.61902 0.63358 0.16182 0.0
H1743 H 0.72884 0.68475 0.21611 0.0
H1744 H 0.69153 0.65846 0.19173 0.0
H1745 H 0.64262 0.63816 0.19426 0.0
H1746 H 0.5459 0.57242 0.11122 0.0
H1747 H 0.56676 0.60401 0.1466 0.0
H1748 H 0.6157 0.68515 0.12645 0.0
C1749 C 0.69057 0.67964 0.19963 0.0
C1750 C 0.63681 0.64867 0.17961 0.0
C1751 C 0.71202 0.69473 0.21356 0.0
C1752 C 0.56202 0.58964 0.10624 0.0
C1753 C 0.57411 0.60762 0.12654 0.0
C1754 C 0.6213 0.67469 0.14125 0.0
C1755 C 0.66892 0.69214 0.19489 0.0
C1756 C 0.64757 0.67678 0.17802 0.0
C1757 C 0.59603 0.62944 0.12096 0.0
C1758 C 0.61159 0.64629 0.14205 0.0
H1759 H 0.68984 0.7564 0.22613 0.0
H1760 H 0.65228 0.72999 0.20204 0.0
H1761 H 0.64715 0.71133 0.15708 0.0
H1762 H 0.60056 0.61921 0.05445 0.0
H1763 H 0.62164 0.65019 0.08967 0.0
C1764 C 0.42704 0.74662 0.12406 0.0
C1765 C 0.40012 0.7463 0.13686 0.0
C1766 C 0.43091 0.73498 0.09804 0.0
C1767 C 0.3923 0.67467 0.06465 0.0
H1768 H 0.46351 0.67671 0.02244 0.0
C1769 C 0.43164 0.5746 0.02886 0.0
C1770 C 0.45835 0.5757 0.0358 0.0
C1771 C 0.42191 0.59886 0.02797 0.0
C1772 C 0.44334 0.67586 0.03382 0.0
H1773 H 0.35649 0.73872 0.13147 0.0
H1774 H 0.36322 0.71879 0.08578 0.0
H1775 H 0.44983 0.71975 0.04375 0.0
H1776 H 0.49622 0.6031 0.04616 0.0
H1777 H 0.47884 0.64525 0.04596 0.0
H1778 H 0.38669 0.63091 0.05679 0.0
C1779 C 0.38132 0.72709 0.09598 0.0
C1780 C 0.43545 0.70052 0.0459 0.0
C1781 C 0.37744 0.73847 0.12213 0.0
C1782 C 0.47543 0.60152 0.04102 0.0
C1783 C 0.46561 0.62574 0.04041 0.0
C1784 C 0.40018 0.65012 0.05263 0.0
C1785 C 0.40785 0.7229 0.08448 0.0
C1786 C 0.41083 0.69997 0.06315 0.0
C1787 C 0.43855 0.62474 0.03433 0.0
C1788 C 0.42667 0.65035 0.03875 0.0
H1789 H 0.44492 0.75279 0.13491 0.0
H1790 H 0.45172 0.73236 0.08989 0.0
H1791 H 0.37313 0.67324 0.07769 0.0
H1792 H 0.41823 0.55498 0.02408 0.0
H1793 H 0.4011 0.59736 0.02291 0.0
C1794 C 0.35123 0.32934 0.22602 0.0
C1795 C 0.32281 0.33051 0.231 0.0
C1796 C 0.36979 0.34954 0.21321 0.0
C1797 C 0.37532 0.41855 0.18977 0.0
H1798 H 0.43368 0.39339 0.13988 0.0
C1799 C 0.42363 0.46599 0.09541 0.0
C1800 C 0.45271 0.47265 0.09107 0.0
C1801 C 0.41067 0.45241 0.11675 0.0
C1802 C 0.41777 0.40079 0.15405 0.0
H1803 H 0.29174 0.35436 0.2272 0.0
H1804 H 0.32357 0.38855 0.20353 0.0
H1805 H 0.40515 0.36189 0.16884 0.0
H1806 H 0.49113 0.4708 0.10567 0.0
H1807 H 0.46826 0.44572 0.1427 0.0
H1808 H 0.38689 0.45684 0.17326 0.0
C1809 C 0.33191 0.3726 0.21015 0.0
C1810 C 0.40139 0.3828 0.17078 0.0
C1811 C 0.31349 0.35272 0.22346 0.0
C1812 C 0.46867 0.46598 0.10875 0.0
C1813 C 0.45565 0.45163 0.12979 0.0
C1814 C 0.39132 0.43631 0.17263 0.0
C1815 C 0.36033 0.37117 0.20456 0.0
C1816 C 0.37957 0.39124 0.18859 0.0
C1817 C 0.42653 0.44462 0.1338 0.0
C1818 C 0.41239 0.42743 0.15439 0.0
H1819 H 0.35914 0.31247 0.23152 0.0
H1820 H 0.39153 0.34795 0.20985 0.0
H1821 H 0.35929 0.42616 0.2036 0.0
H1822 H 0.41089 0.47099 0.08207 0.0
H1823 H 0.38821 0.44701 0.11934 0.0
C1824 C 0.82961 0.72001 0.69443 0.0
C1825 C 0.81667 0.71435 0.7194 0.0
C1826 C 0.8466 0.7027 0.67932 0.0
C1827 C 0.86635 0.6324 0.67398 0.0
H1828 H 0.92648 0.665 0.62551 0.0
C1829 C 0.95007 0.57286 0.60878 0.0
C1830 C 0.95438 0.57764 0.58227 0.0
C1831 C 0.93352 0.58815 0.62753 0.0
C1832 C 0.90976 0.65547 0.63892 0.0
H1833 H 0.81242 0.68604 0.74829 0.0
H1834 H 0.84278 0.65647 0.72253 0.0
H1835 H 0.89798 0.69428 0.65383 0.0
H1836 H 0.94365 0.6024 0.55522 0.0
H1837 H 0.91592 0.62851 0.58735 0.0
H1838 H 0.87886 0.5935 0.65895 0.0
C1839 C 0.83912 0.67386 0.71408 0.0
C1840 C 0.89311 0.67232 0.65513 0.0
C1841 C 0.82181 0.69106 0.72906 0.0
C1842 C 0.94126 0.59782 0.57525 0.0
C1843 C 0.92528 0.61314 0.59383 0.0
C1844 C 0.88333 0.61552 0.65789 0.0
C1845 C 0.85187 0.67933 0.68886 0.0
C1846 C 0.87068 0.66112 0.67263 0.0
C1847 C 0.92134 0.60889 0.6203 0.0
C1848 C 0.90496 0.62676 0.63973 0.0
H1849 H 0.82687 0.73807 0.68656 0.0
H1850 H 0.85543 0.7077 0.65997 0.0
H1851 H 0.8493 0.62269 0.68691 0.0
H1852 H 0.95968 0.5576 0.61509 0.0
H1853 H 0.93089 0.58427 0.64779 0.0
C1854 C 0.34186 0.81939 0.70648 0.0
C1855 C 0.32482 0.79362 0.70109 0.0
C1856 C 0.36192 0.83027 0.68721 0.0
C1857 C 0.37806 0.83039 0.61681 0.0
H1858 H 0.45035 0.86797 0.6358 0.0
C1859 C 0.4577 0.90257 0.5506 0.0
C1860 C 0.46567 0.92868 0.56462 0.0
C1861 C 0.44352 0.88028 0.56395 0.0
C1862 C 0.43034 0.85736 0.63008 0.0
H1863 H 0.31519 0.75903 0.67123 0.0
H1864 H 0.3502 0.77836 0.63724 0.0
H1865 H 0.4192 0.8396 0.66606 0.0
H1866 H 0.46631 0.95155 0.60351 0.0
H1867 H 0.44221 0.91324 0.62637 0.0
H1868 H 0.38877 0.84951 0.58137 0.0
C1869 C 0.3481 0.78998 0.6565 0.0
C1870 C 0.4125 0.8412 0.64744 0.0
C1871 C 0.32821 0.7789 0.67596 0.0
C1872 C 0.46014 0.93182 0.59206 0.0
C1873 C 0.44657 0.90972 0.60525 0.0
C1874 C 0.39595 0.84675 0.59941 0.0
C1875 C 0.36519 0.81578 0.66197 0.0
C1876 C 0.38576 0.82844 0.64146 0.0
C1877 C 0.43789 0.88374 0.59147 0.0
C1878 C 0.42181 0.86131 0.6064 0.0
H1879 H 0.33985 0.83112 0.72571 0.0
H1880 H 0.37454 0.85037 0.69192 0.0
H1881 H 0.35754 0.82078 0.61171 0.0
H1882 H 0.46174 0.89961 0.52944 0.0
H1883 H 0.43698 0.86044 0.55285 0.0
C1884 C 0.16473 0.35488 0.65645 0.0
C1885 C 0.18393 0.36363 0.67486 0.0
C1886 C 0.14518 0.37087 0.65422 0.0
C1887 C 0.13775 0.44263 0.66228 0.0
H1888 H 0.06378 0.41132 0.64352 0.0
C1889 C 0.08592 0.48252 0.58796 0.0
C1890 C 0.05705 0.48079 0.59097 0.0
C1891 C 0.09881 0.47374 0.60662 0.0
C1892 C 0.08412 0.42059 0.64928 0.0
H1893 H 0.19708 0.39541 0.70607 0.0
H1894 H 0.16294 0.42367 0.70198 0.0
H1895 H 0.08994 0.38293 0.6612 0.0
H1896 H 1.01896 0.46986 0.61623 0.0
H1897 H 0.04152 0.45385 0.64896 0.0
H1898 H 0.13247 0.47985 0.64906 0.0
C1899 C 0.16304 0.40436 0.68934 0.0
C1900 C 0.09921 0.40423 0.65915 0.0
C1901 C 0.18243 0.38815 0.69178 0.0
C1902 C 0.04133 0.47166 0.61373 0.0
C1903 C 0.0542 0.46233 0.63227 0.0
C1904 C 0.12274 0.45892 0.65221 0.0
C1905 C 0.14455 0.39612 0.6702 0.0
C1906 C 0.12655 0.41478 0.66486 0.0
C1907 C 0.08298 0.46253 0.62846 0.0
C1908 C 0.09617 0.44776 0.64471 0.0
H1909 H 0.16532 0.33597 0.64328 0.0
H1910 H 0.13145 0.36408 0.63908 0.0
H1911 H 0.15881 0.45134 0.66639 0.0
H1912 H 0.09838 0.48936 0.57043 0.0
H1913 H 0.12093 0.47388 0.60291 0.0
C1914 C 0.73375 0.20676 0.67886 0.0
C1915 C 0.7238 0.22947 0.69371 0.0
C1916 C 0.71822 0.18961 0.66009 0.0
C1917 C 0.65508 0.18434 0.62486 0.0
H1918 H 0.65552 0.10586 0.61761 0.0
C1919 C 0.56489 0.09803 0.59232 0.0
C1920 C 0.57137 0.08018 0.5697 0.0
C1921 C 0.58585 0.11679 0.60427 0.0
C1922 C 0.65544 0.12777 0.61927 0.0
H1923 H 0.68968 0.25203 0.69986 0.0
H1924 H 0.66252 0.22201 0.66839 0.0
H1925 H 0.68798 0.13788 0.64412 0.0
H1926 H 0.60501 0.06779 0.5421 0.0
H1927 H 0.64194 0.10008 0.56381 0.0
H1928 H 0.62117 0.1737 0.60136 0.0
C1929 C 0.68265 0.21766 0.67036 0.0
C1930 C 0.67416 0.14625 0.63434 0.0
C1931 C 0.69832 0.23498 0.68872 0.0
C1932 C 0.59939 0.08138 0.55943 0.0
C1933 C 0.62048 0.09972 0.57185 0.0
C1934 C 0.636 0.16581 0.61034 0.0
C1935 C 0.6921 0.19445 0.65592 0.0
C1936 C 0.67401 0.17486 0.63776 0.0
C1937 C 0.61383 0.11769 0.59429 0.0
C1938 C 0.63579 0.13735 0.60764 0.0
H1939 H 0.75328 0.20185 0.6821 0.0
H1940 H 0.72662 0.17236 0.6491 0.0
H1941 H 0.65466 0.20613 0.62621 0.0
H1942 H 0.54351 0.09772 0.60065 0.0
H1943 H 0.58022 0.13038 0.62159 0.0
C1944 C 0.83143 0.33968 0.31071 0.0
C1945 C 0.8143 0.31455 0.31603 0.0
C1946 C 0.84833 0.35514 0.32918 0.0
C1947 C 0.87445 0.391 0.375 0.0
H1948 H 0.90571 0.35167 0.41921 0.0
C1949 C 0.94261 0.44978 0.4549 0.0
C1950 C 0.96497 0.43844 0.45985 0.0
C1951 C 0.92296 0.43464 0.43878 0.0
C1952 C 0.89748 0.36309 0.40687 0.0
H1953 H 0.80071 0.28643 0.34527 0.0
H1954 H 0.82922 0.31381 0.37795 0.0
H1955 H 0.8747 0.32604 0.38818 0.0
H1956 H 0.98403 0.40208 0.45161 0.0
H1957 H 0.95047 0.37607 0.42293 0.0
H1958 H 0.89839 0.42792 0.39267 0.0
C1959 C 0.83042 0.32129 0.3592 0.0
C1960 C 0.87917 0.34832 0.38927 0.0
C1961 C 0.81381 0.30565 0.34056 0.0
C1962 C 0.96697 0.41142 0.44845 0.0
C1963 C 0.94753 0.3964 0.43203 0.0
C1964 C 0.89303 0.40574 0.39236 0.0
C1965 C 0.84831 0.34609 0.35367 0.0
C1966 C 0.86737 0.36201 0.37299 0.0
C1967 C 0.92526 0.40781 0.42679 0.0
C1968 C 0.90492 0.39204 0.40858 0.0
H1969 H 0.83264 0.34689 0.29182 0.0
H1970 H 0.86206 0.37377 0.32383 0.0
H1971 H 0.8656 0.40247 0.36319 0.0
H1972 H 0.94028 0.47048 0.46346 0.0
H1973 H 0.9059 0.44406 0.43582 0.0
C1974 C 0.73254 0.8414 0.3168 0.0
C1975 C 0.72534 0.81274 0.30979 0.0
C1976 C 0.71528 0.85565 0.33534 0.0
C1977 C 0.64251 0.8502 0.36879 0.0
H1978 H 0.67583 0.91211 0.41547 0.0
C1979 C 0.57547 0.91362 0.44801 0.0
C1980 C 0.58396 0.9425 0.45005 0.0
C1981 C 0.59263 0.89599 0.43328 0.0
C1982 C 0.66605 0.89501 0.40249 0.0
H1983 H 0.69408 0.77667 0.31726 0.0
H1984 H 0.66433 0.80131 0.3499 0.0
H1985 H 0.7054 0.88542 0.38508 0.0
H1986 H 0.61788 0.97514 0.43895 0.0
H1987 H 0.64733 0.94491 0.41383 0.0
H1988 H 0.60311 0.86008 0.38617 0.0
C1989 C 0.68314 0.81296 0.34073 0.0
C1990 C 0.68313 0.87965 0.38491 0.0
C1991 C 0.70041 0.79872 0.32212 0.0
C1992 C 0.61047 0.95307 0.43789 0.0
C1993 C 0.62757 0.9356 0.42349 0.0
C1994 C 0.62538 0.86561 0.38644 0.0
C1995 C 0.69024 0.84172 0.34767 0.0
C1996 C 0.67172 0.85721 0.36745 0.0
C1997 C 0.61886 0.90677 0.4205 0.0
C1998 C 0.63688 0.88857 0.40332 0.0
H1999 H 0.75166 0.85293 0.30799 0.0
H2000 H 0.72146 0.87777 0.33973 0.0
H2001 H 0.63278 0.83329 0.35561 0.0
H2002 H 0.55516 0.90469 0.45689 0.0
H2003 H 0.58522 0.87392 0.43171 0.0
C2004 C 0.23229 0.67089 0.30805 0.0
C2005 C 0.23771 0.69991 0.31154 0.0
C2006 C 0.21558 0.65596 0.32714 0.0
C2007 C 0.16037 0.66243 0.38221 0.0
H2008 H 0.17944 0.5965 0.40091 0.0
C2009 C 0.09509 0.60739 0.46588 0.0
C2010 C 0.08842 0.57842 0.46204 0.0
C2011 C 0.11561 0.62179 0.44908 0.0
C2012 C 0.17365 0.61471 0.39576 0.0
H2013 H 0.22924 0.73599 0.3379 0.0
H2014 H 0.19992 0.71001 0.37108 0.0
H2015 H 0.21019 0.62249 0.36838 0.0
H2016 H 0.09904 0.54177 0.43819 0.0
H2017 H 0.13475 0.56696 0.40843 0.0
H2018 H 0.1237 0.65459 0.40906 0.0
C2019 C 0.20869 0.69873 0.35353 0.0
C2020 C 0.19131 0.62964 0.3771 0.0
C2021 C 0.2256 0.71366 0.33451 0.0
C2022 C 0.10386 0.56408 0.44179 0.0
C2023 C 0.1243 0.57857 0.4247 0.0
C2024 C 0.14271 0.6475 0.40073 0.0
C2025 C 0.20347 0.66967 0.35013 0.0
C2026 C 0.18492 0.65375 0.37013 0.0
C2027 C 0.12985 0.60769 0.42767 0.0
C2028 C 0.14911 0.62348 0.40791 0.0
H2029 H 0.24061 0.65961 0.29037 0.0
H2030 H 0.21164 0.63364 0.32359 0.0
H2031 H 0.15445 0.68054 0.37698 0.0
H2032 H 0.08379 0.61905 0.48149 0.0
H2033 H 0.11982 0.64411 0.45256 0.0
C2034 C 0.37483 0.18288 0.35957 0.0
C2035 C 0.37598 0.17479 0.33238 0.0
C2036 C 0.3816 0.16607 0.37621 0.0
C2037 C 0.39316 0.09458 0.37874 0.0
H2038 H 0.43794 0.13041 0.43401 0.0
C2039 C 0.46473 0.04092 0.42432 0.0
C2040 C 0.46736 0.04726 0.45123 0.0
C2041 C 0.44836 0.05423 0.4124 0.0
C2042 C 0.42503 0.12006 0.41898 0.0
H2043 H 0.3842 0.142 0.30165 0.0
H2044 H 0.39694 0.11334 0.33034 0.0
H2045 H 0.41973 0.15833 0.40816 0.0
H2046 H 0.45387 0.07173 0.48698 0.0
H2047 H 0.42536 0.09524 0.46602 0.0
H2048 H 0.39956 0.05632 0.38896 0.0
C2049 C 0.39041 0.13247 0.33898 0.0
C2050 C 0.41454 0.13609 0.40411 0.0
C2051 C 0.3835 0.14918 0.3224 0.0
C2052 C 0.45217 0.06629 0.46623 0.0
C2053 C 0.43605 0.07993 0.45419 0.0
C2054 C 0.40386 0.07858 0.39347 0.0
C2055 C 0.38981 0.14077 0.36611 0.0
C2056 C 0.39885 0.1236 0.38347 0.0
C2057 C 0.43445 0.07445 0.42703 0.0
C2058 C 0.4203 0.09114 0.41347 0.0
H2059 H 0.36935 0.20253 0.368 0.0
H2060 H 0.38052 0.17302 0.39701 0.0
H2061 H 0.38066 0.08415 0.36343 0.0
H2062 H 0.4761 0.02629 0.41225 0.0
H2063 H 0.44774 0.04965 0.39143 0.0
C2064 C 0.67824 0.86991 0.67539 0.0
C2065 C 0.65756 0.85076 0.68779 0.0
C2066 C 0.67145 0.8858 0.65794 0.0
C2067 C 0.64503 0.92847 0.63732 0.0
H2068 H 0.59578 0.89397 0.5851 0.0
C2069 C 0.57594 0.98506 0.59179 0.0
C2070 C 0.57214 0.97775 0.56519 0.0
C2071 C 0.59209 0.97152 0.6037 0.0
C2072 C 0.60987 0.90388 0.59931 0.0
H2073 H 0.61376 0.83277 0.69119 0.0
H2074 H 0.60195 0.86027 0.66052 0.0
H2075 H 0.61222 0.86535 0.61182 0.0
H2076 H 0.58345 0.95149 0.52986 0.0
H2077 H 0.61145 0.92747 0.55087 0.0
H2078 H 0.64181 0.9671 0.62545 0.0
C2079 C 0.62337 0.86307 0.66435 0.0
C2080 C 0.61905 0.88752 0.61477 0.0
C2081 C 0.63007 0.84751 0.68207 0.0
C2082 C 0.58611 0.95766 0.55037 0.0
C2083 C 0.60194 0.94377 0.56242 0.0
C2084 C 0.63553 0.94488 0.62209 0.0
C2085 C 0.64394 0.88249 0.65221 0.0
C2086 C 0.63634 0.89967 0.63422 0.0
C2087 C 0.6045 0.9501 0.58936 0.0
C2088 C 0.61752 0.93277 0.60319 0.0
H2089 H 0.69957 0.87291 0.67954 0.0
H2090 H 0.68771 0.90057 0.6488 0.0
H2091 H 0.65825 0.9384 0.65224 0.0
H2092 H 0.56549 1.00053 0.60368 0.0
H2093 H 0.59353 0.97675 0.62452 0.0
C2094 C 0.70739 0.20216 0.31441 0.0
C2095 C 0.7191 0.23029 0.31834 0.0
C2096 C 0.68756 0.19025 0.33334 0.0
C2097 C 0.6635 0.193 0.40196 0.0
H2098 H 0.59409 0.15235 0.37857 0.0
C2099 C 0.58121 0.12167 0.46651 0.0
C2100 C 0.57382 0.09527 0.45284 0.0
C2101 C 0.59596 0.14361 0.45296 0.0
C2102 C 0.6133 0.16372 0.38549 0.0
H2103 H 0.71974 0.26797 0.34529 0.0
H2104 H 0.6854 0.24679 0.37876 0.0
H2105 H 0.62732 0.17961 0.34883 0.0
H2106 H 0.57469 0.07154 0.41428 0.0
H2107 H 0.59999 0.10901 0.39119 0.0
H2108 H 0.65023 0.17553 0.43808 0.0
C2109 C 0.69148 0.23415 0.36093 0.0
C2110 C 0.63227 0.17927 0.36845 0.0
C2111 C 0.71099 0.2462 0.34177 0.0
C2112 C 0.58041 0.0915 0.42552 0.0
C2113 C 0.59465 0.11317 0.41214 0.0
C2114 C 0.6446 0.17703 0.41899 0.0
C2115 C 0.67938 0.20615 0.3567 0.0
C2116 C 0.65789 0.19328 0.37622 0.0
C2117 C 0.60282 0.13944 0.42558 0.0
C2118 C 0.61977 0.16136 0.41051 0.0
H2119 H 0.71294 0.18954 0.29641 0.0
H2120 H 0.67857 0.16855 0.32973 0.0
H2121 H 0.68316 0.20375 0.40836 0.0
H2122 H 0.57633 0.12513 0.48757 0.0
H2123 H 0.60204 0.1637 0.46381 0.0
C2124 C 0.87087 0.67098 0.36819 0.0
C2125 C 0.85159 0.66267 0.34983 0.0
C2126 C 0.89003 0.65453 0.37026 0.0
C2127 C 0.89706 0.58277 0.36181 0.0
H2128 H 0.97177 0.61394 0.37863 0.0
C2129 C 0.99437 0.55505 0.40974 0.0
C2130 C 0.97896 0.54703 0.43303 0.0
C2131 C 0.98123 0.56345 0.39086 0.0
C2132 C 0.95123 0.60468 0.37336 0.0
H2133 H 0.83762 0.63106 0.31878 0.0
H2134 H 0.87103 0.60194 0.32268 0.0
H2135 H 0.94517 0.64223 0.36142 0.0
H2136 H 0.93788 0.53922 0.45421 0.0
H2137 H 0.91484 0.55317 0.42121 0.0
H2138 H 0.90258 0.54571 0.37516 0.0
C2139 C 0.87134 0.62127 0.33534 0.0
C2140 C 0.9359 0.62099 0.36378 0.0
C2141 C 0.85234 0.63795 0.33305 0.0
C2142 C 0.95009 0.54532 0.43631 0.0
C2143 C 0.93693 0.55316 0.41733 0.0
C2144 C 0.91233 0.56652 0.37158 0.0
C2145 C 0.89017 0.62928 0.35417 0.0
C2146 C 0.90829 0.61053 0.35891 0.0
C2147 C 0.95248 0.56338 0.39492 0.0
C2148 C 0.93915 0.57768 0.37843 0.0
H2149 H 0.8709 0.69007 0.38119 0.0
H2150 H 0.90403 0.66108 0.3852 0.0
H2151 H 0.8758 0.57417 0.35829 0.0
H2152 H 1.01674 0.55672 0.407 0.0
H2153 H 0.99367 0.5712 0.37373 0.0
C2154 C 0.31383 0.79744 0.33992 0.0
C2155 C 0.32525 0.79275 0.31369 0.0
C2156 C 0.32858 0.81662 0.35793 0.0
C2157 C 0.38338 0.87862 0.361 0.0
H2158 H 0.39498 0.8596 0.42793 0.0
C2159 C 0.47131 0.94073 0.41748 0.0
C2160 C 0.46781 0.94545 0.44503 0.0
C2161 C 0.4511 0.9232 0.4037 0.0
C2162 C 0.39155 0.86546 0.40954 0.0
H2163 H 0.36084 0.80469 0.28566 0.0
H2164 H 0.38637 0.8382 0.31685 0.0
H2165 H 0.36472 0.82675 0.39963 0.0
H2166 H 0.43983 0.93515 0.47961 0.0
H2167 H 0.40407 0.90443 0.4553 0.0
H2168 H 0.41 0.91716 0.3706 0.0
C2169 C 0.36611 0.82705 0.32362 0.0
C2170 C 0.37427 0.84659 0.3933 0.0
C2171 C 0.35158 0.80768 0.30579 0.0
C2172 C 0.44324 0.93205 0.45843 0.0
C2173 C 0.42282 0.91433 0.44449 0.0
C2174 C 0.40037 0.8975 0.37725 0.0
C2175 C 0.35482 0.83182 0.34989 0.0
C2176 C 0.3706 0.85271 0.36854 0.0
C2177 C 0.42649 0.90979 0.41688 0.0
C2178 C 0.40538 0.89092 0.40142 0.0
H2179 H 0.29354 0.7862 0.34651 0.0
H2180 H 0.31929 0.81993 0.37801 0.0
H2181 H 0.3805 0.8842 0.34231 0.0
H2182 H 0.48988 0.95049 0.40631 0.0
H2183 H 0.4551 0.91981 0.38255 0.0
C2184 C 0.2091 0.31326 0.32839 0.0
C2185 C 0.22302 0.3197 0.30397 0.0
C2186 C 0.19173 0.33023 0.34333 0.0
C2187 C 0.17285 0.40076 0.35053 0.0
H2188 H 0.10961 0.36583 0.39441 0.0
C2189 C 0.08806 0.45867 0.41565 0.0
C2190 C 0.08208 0.45191 0.44153 0.0
C2191 C 0.10497 0.44404 0.39669 0.0
C2192 C 0.1272 0.37601 0.38231 0.0
H2193 H 0.22898 0.34921 0.27597 0.0
H2194 H 0.19807 0.37842 0.30158 0.0
H2195 H 0.139 0.33757 0.36588 0.0
H2196 H 0.08994 0.42418 0.46729 0.0
H2197 H 0.11842 0.39921 0.43479 0.0
H2198 H 0.16044 0.43931 0.36712 0.0
C2199 C 0.20114 0.36055 0.30964 0.0
C2200 C 0.14431 0.35974 0.36599 0.0
C2201 C 0.21878 0.34362 0.29478 0.0
C2202 C 0.09376 0.43033 0.44776 0.0
C2203 C 0.11012 0.41567 0.42895 0.0
C2204 C 0.15545 0.41709 0.36676 0.0
C2205 C 0.18719 0.3541 0.33419 0.0
C2206 C 0.16785 0.37178 0.35021 0.0
C2207 C 0.11584 0.422 0.40308 0.0
C2208 C 0.13271 0.40495 0.38332 0.0
H2209 H 0.21126 0.29477 0.33589 0.0
H2210 H 0.18198 0.32456 0.36223 0.0
H2211 H 0.19074 0.41102 0.33888 0.0
H2212 H 0.07959 0.4751 0.41 0.0
H2213 H 0.10899 0.44951 0.37691 0.0
C2214 C 0.34087 0.22977 0.69377 0.0
C2215 C 0.32011 0.21674 0.71155 0.0
C2216 C 0.35794 0.21454 0.67593 0.0
C2217 C 0.38074 0.14557 0.66333 0.0
H2218 H 0.40705 0.16674 0.59397 0.0
C2219 C 0.43054 0.07182 0.58365 0.0
C2220 C 0.45558 0.08208 0.56873 0.0
C2221 C 0.41468 0.08953 0.5995 0.0
C2222 C 0.40011 0.16068 0.61334 0.0
H2223 H 0.3013 0.17742 0.72484 0.0
H2224 H 0.33041 0.15064 0.69362 0.0
H2225 H 0.37811 0.19437 0.62464 0.0
H2226 H 0.48247 0.1197 0.55806 0.0
H2227 H 0.45427 0.15092 0.58565 0.0
H2228 H 0.40222 0.11164 0.65189 0.0
C2229 C 0.33402 0.17277 0.69345 0.0
C2230 C 0.38347 0.17659 0.63107 0.0
C2231 C 0.31711 0.18809 0.71137 0.0
C2232 C 0.46335 0.11094 0.56911 0.0
C2233 C 0.4472 0.12885 0.58505 0.0
C2234 C 0.39707 0.12961 0.64559 0.0
C2235 C 0.35483 0.18568 0.67536 0.0
C2236 C 0.37325 0.16918 0.65637 0.0
C2237 C 0.42303 0.11832 0.60108 0.0
C2238 C 0.40682 0.13668 0.6202 0.0
H2239 H 0.34455 0.2519 0.69414 0.0
H2240 H 0.37398 0.22559 0.66296 0.0
H2241 H 0.37418 0.13938 0.68269 0.0
H2242 H 0.42341 0.04981 0.58372 0.0
H2243 H 0.39591 0.08053 0.61092 0.0
C2244 C 0.83249 0.32212 0.70368 0.0
C2245 C 0.80365 0.3147 0.70287 0.0
C2246 C 0.84891 0.33924 0.68606 0.0
C2247 C 0.85067 0.36328 0.62176 0.0
H2248 H 0.90621 0.42402 0.64772 0.0
C2249 C 0.93994 0.42156 0.55529 0.0
C2250 C 0.94794 0.45026 0.56131 0.0
C2251 C 0.91945 0.40641 0.57154 0.0
C2252 C 0.89058 0.40734 0.64021 0.0
H2253 H 0.76971 0.31821 0.68214 0.0
H2254 H 0.79821 0.34794 0.65144 0.0
H2255 H 0.87724 0.39405 0.67815 0.0
H2256 H 0.94003 0.48574 0.58867 0.0
H2257 H 0.90416 0.45911 0.61741 0.0
H2258 H 0.86429 0.3763 0.58376 0.0
C2259 C 0.80816 0.34082 0.6658 0.0
C2260 C 0.87423 0.38995 0.65759 0.0
C2261 C 0.79175 0.324 0.68357 0.0
C2262 C 0.93408 0.4637 0.58339 0.0
C2263 C 0.91381 0.44841 0.59998 0.0
C2264 C 0.86724 0.38046 0.60434 0.0
C2265 C 0.8369 0.34896 0.66701 0.0
C2266 C 0.85417 0.36761 0.64856 0.0
C2267 C 0.90668 0.4195 0.5945 0.0
C2268 C 0.8875 0.40262 0.61331 0.0
H2269 H 0.84222 0.31538 0.71843 0.0
H2270 H 0.87104 0.34486 0.68733 0.0
H2271 H 0.83551 0.3462 0.61413 0.0
H2272 H 0.95032 0.41064 0.53843 0.0
H2273 H 0.91462 0.3842 0.56681 0.0
C2274 C 0.20383 0.69287 0.71264 0.0
C2275 C 0.22056 0.71815 0.70726 0.0
C2276 C 0.18639 0.67756 0.69458 0.0
C2277 C 0.16088 0.64143 0.64881 0.0
H2278 H 0.1276 0.67941 0.60501 0.0
C2279 C 0.09386 0.58069 0.56888 0.0
C2280 C 0.07097 0.59128 0.56408 0.0
C2281 C 0.11326 0.59639 0.58497 0.0
C2282 C 0.1364 0.66835 0.61725 0.0
H2283 H 0.23263 0.74694 0.67847 0.0
H2284 H 0.20313 0.71985 0.64647 0.0
H2285 H 0.15786 0.70595 0.63626 0.0
H2286 H 0.05058 0.62677 0.57262 0.0
H2287 H 0.08359 0.65363 0.60131 0.0
H2288 H 0.13821 0.60391 0.63087 0.0
C2289 C 0.20265 0.71212 0.66498 0.0
C2290 C 0.15426 0.68367 0.63498 0.0
C2291 C 0.21976 0.72764 0.68326 0.0
C2292 C 0.0681 0.61803 0.57564 0.0
C2293 C 0.08723 0.63356 0.59206 0.0
C2294 C 0.1427 0.62613 0.63137 0.0
C2295 C 0.18554 0.68688 0.6704 0.0
C2296 C 0.16677 0.67047 0.6511 0.0
C2297 C 0.11009 0.62297 0.5971 0.0
C2298 C 0.13009 0.63933 0.61532 0.0
H2299 H 0.2038 0.68514 0.7311 0.0
H2300 H 0.17321 0.65862 0.69988 0.0
H2301 H 0.17037 0.63033 0.66045 0.0
H2302 H 0.09682 0.56021 0.56018 0.0
H2303 H 0.1308 0.58761 0.58781 0.0
loop_
_geom_bond_atom_site_label_1
_geom_bond_atom_site_label_2
_geom_bond_distance
_geom_bond_site_symmetry_2
_ccdc_geom_bond_type
C0 C2 1.422 . S
C0 C4 1.415 . S
C0 N6 1.369 . S
C1 C2 1.421 . S
C1 C3 1.417 . S
C1 C13 1.422 . S
C2 C0 1.422 . S
C2 C1 1.421 . S
C2 N12 1.359 . S
C3 C1 1.417 . S
C3 C5 1.329 . S
C3 H22 0.930 . S
C4 C0 1.415 . S
C4 C5 1.437 . S
C4 C8 1.413 . S
C5 C3 1.329 . S
C5 C4 1.437 . S
C5 H27 0.929 . S
N6 C0 1.369 . S
N6 C7 1.338 . S
N6 Gd11 2.622 . S
C7 N6 1.338 . S
C7 C9 1.378 . S
C7 H19 0.929 . S
C8 C4 1.413 . S
C8 C9 1.348 . S
C8 H24 0.931 . S
C9 C7 1.378 . S
C9 C8 1.348 . S
C9 H25 0.930 . S
Gd10 N30 2.622 . S
Gd10 N37 2.570 . S
Gd10 O44 2.353 . S
Gd10 O45 2.468 . S
Gd10 O46 2.427 . S
Gd10 O48 2.388 . S
Gd10 O49 2.386 . S
Gd10 O53 2.307 . S
Gd10 C63 2.805 . S
Gd11 N6 2.622 . S
Gd11 N12 2.570 . S
Gd11 O43 2.386 . S
Gd11 O47 2.307 . S
Gd11 O50 2.353 . S
Gd11 O51 2.468 . S
Gd11 O52 2.427 . S
Gd11 O54 2.388 . S
Gd11 C75 2.805 . S
N12 C2 1.359 . S
N12 Gd11 2.570 . S
N12 C14 1.343 . S
C13 C1 1.422 . S
C13 C15 1.321 . S
C13 H21 0.931 . S
C14 N12 1.343 . S
C14 C15 1.390 . S
C14 H16 0.931 . S
C15 C13 1.321 . S
C15 C14 1.390 . S
C15 H17 0.930 . S
H16 C14 0.931 . S
H17 C15 0.930 . S
H18 C41 0.931 . S
H19 C7 0.929 . S
H20 C42 0.930 . S
H21 C13 0.931 . S
H22 C3 0.930 . S
H23 C32 0.929 . S
H24 C8 0.931 . S
H25 C9 0.930 . S
H26 C64 0.930 . S
H27 C5 0.929 . S
H28 C33 0.931 . S
H29 C34 0.930 . S
N30 Gd10 2.622 . S
N30 C31 1.369 . S
N30 C32 1.338 . S
C31 N30 1.369 . S
C31 C35 1.415 . S
C31 C38 1.422 . S
C32 H23 0.929 . S
C32 N30 1.338 . S
C32 C34 1.378 . S
C33 H28 0.931 . S
C33 C34 1.348 . S
C33 C35 1.413 . S
C34 H29 0.930 . S
C34 C32 1.378 . S
C34 C33 1.348 . S
C35 C31 1.415 . S
C35 C33 1.413 . S
C35 C65 1.437 . S
H36 C65 0.929 . S
N37 Gd10 2.570 . S
N37 C38 1.359 . S
N37 C41 1.343 . S
C38 C31 1.422 . S
C38 N37 1.359 . S
C38 C40 1.421 . S
C39 C40 1.422 . S
C39 C42 1.321 . S
C39 H66 0.931 . S
C40 C38 1.421 . S
C40 C39 1.422 . S
C40 C64 1.417 . S
C41 H18 0.931 . S
C41 N37 1.343 . S
C41 C42 1.390 . S
C42 H20 0.930 . S
C42 C39 1.321 . S
C42 C41 1.390 . S
O43 Gd11 2.386 . S
O43 C55 1.265 . S
O44 Gd10 2.353 . S
O44 C55 1.242 . S
O45 Gd10 2.468 . S
O45 C63 1.263 . S
O46 Gd10 2.427 . S
O46 C63 1.252 . S
O47 Gd11 2.307 . S
O47 C56 1.261 . S
O48 Gd10 2.388 . S
O48 C56 1.252 . S
O49 Gd10 2.386 . S
O49 C67 1.265 . S
O50 Gd11 2.353 . S
O50 C67 1.242 . S
O51 Gd11 2.468 . S
O51 C75 1.263 . S
O52 Gd11 2.427 . S
O52 C75 1.252 . S
O53 Gd10 2.307 . S
O53 C68 1.261 . S
O54 Gd11 2.388 . S
O54 C68 1.252 . S
C55 O43 1.265 . S
C55 O44 1.242 . S
C56 O47 1.261 . S
C56 O48 1.252 . S
C57 C60 1.394 . S
C57 C62 1.370 . S
C57 C63 1.500 . S
C58 C61 1.383 . S
C58 C62 1.395 . S
C59 C60 1.396 . S
C59 C61 1.365 . S
C59 H76 0.929 . S
C60 C57 1.394 . S
C60 C59 1.396 . S
C60 H77 0.930 . S
C61 C58 1.383 . S
C61 C59 1.365 . S
C61 H78 0.931 . S
C62 C57 1.370 . S
C62 C58 1.395 . S
C62 H79 0.930 . S
C63 Gd10 2.805 . S
C63 O45 1.263 . S
C63 O46 1.252 . S
C63 C57 1.500 . S
C64 H26 0.930 . S
C64 C40 1.417 . S
C64 C65 1.329 . S
C65 C35 1.437 . S
C65 H36 0.929 . S
C65 C64 1.329 . S
H66 C39 0.931 . S
C67 O49 1.265 . S
C67 O50 1.242 . S
C68 O53 1.261 . S
C68 O54 1.252 . S
C69 C72 1.394 . S
C69 C74 1.370 . S
C69 C75 1.500 . S
C70 C73 1.383 . S
C70 C74 1.395 . S
C71 C72 1.396 . S
C71 C73 1.365 . S
C71 H80 0.929 . S
C72 C69 1.394 . S
C72 C71 1.396 . S
C72 H81 0.930 . S
C73 C70 1.383 . S
C73 C71 1.365 . S
C73 H82 0.931 . S
C74 C69 1.370 . S
C74 C70 1.395 . S
C74 H83 0.930 . S
C75 Gd11 2.805 . S
C75 O51 1.263 . S
C75 O52 1.252 . S
C75 C69 1.500 . S
H76 C59 0.929 . S
H77 C60 0.930 . S
H78 C61 0.931 . S
H79 C62 0.930 . S
H80 C71 0.929 . S
H81 C72 0.930 . S
H82 C73 0.931 . S
H83 C74 0.930 . S
C84 C86 1.422 . S
C84 C88 1.415 . S
C84 N90 1.369 . S
C85 C86 1.421 . S
C85 C87 1.417 . S
C85 C97 1.422 . S
C86 C84 1.422 . S
C86 C85 1.421 . S
C86 N96 1.359 . S
C87 C85 1.417 . S
C87 C89 1.329 . S
C87 H106 0.930 . S
C88 C84 1.415 . S
C88 C89 1.437 . S
C88 C92 1.413 . S
C89 C87 1.329 . S
C89 C88 1.437 . S
C89 H111 0.929 . S
N90 C84 1.369 . S
N90 C91 1.338 . S
N90 Gd95 2.622 . S
C91 N90 1.338 . S
C91 C93 1.378 . S
C91 H103 0.929 . S
C92 C88 1.413 . S
C92 C93 1.348 . S
C92 H108 0.931 . S
C93 C91 1.378 . S
C93 C92 1.348 . S
C93 H109 0.930 . S
Gd94 N114 2.622 . S
Gd94 N121 2.570 . S
Gd94 O128 2.353 . S
Gd94 O129 2.468 . S
Gd94 O130 2.427 . S
Gd94 O132 2.388 . S
Gd94 O133 2.386 . S
Gd94 O137 2.307 . S
Gd94 C147 2.805 . S
Gd95 N90 2.622 . S
Gd95 N96 2.570 . S
Gd95 O127 2.386 . S
Gd95 O131 2.307 . S
Gd95 O134 2.353 . S
Gd95 O135 2.468 . S
Gd95 O136 2.427 . S
Gd95 O138 2.388 . S
Gd95 C159 2.805 . S
N96 C86 1.359 . S
N96 Gd95 2.570 . S
N96 C98 1.343 . S
C97 C85 1.422 . S
C97 C99 1.321 . S
C97 H105 0.931 . S
C98 N96 1.343 . S
C98 C99 1.390 . S
C98 H100 0.931 . S
C99 C97 1.321 . S
C99 C98 1.390 . S
C99 H101 0.930 . S
H100 C98 0.931 . S
H101 C99 0.930 . S
H102 C125 0.931 . S
H103 C91 0.929 . S
H104 C126 0.930 . S
H105 C97 0.931 . S
H106 C87 0.930 . S
H107 C116 0.929 . S
H108 C92 0.931 . S
H109 C93 0.930 . S
H110 C148 0.930 . S
H111 C89 0.929 . S
H112 C117 0.931 . S
H113 C118 0.930 . S
N114 Gd94 2.622 . S
N114 C115 1.369 . S
N114 C116 1.338 . S
C115 N114 1.369 . S
C115 C119 1.415 . S
C115 C122 1.422 . S
C116 H107 0.929 . S
C116 N114 1.338 . S
C116 C118 1.378 . S
C117 H112 0.931 . S
C117 C118 1.348 . S
C117 C119 1.413 . S
C118 H113 0.930 . S
C118 C116 1.378 . S
C118 C117 1.348 . S
C119 C115 1.415 . S
C119 C117 1.413 . S
C119 C149 1.437 . S
H120 C149 0.929 . S
N121 Gd94 2.570 . S
N121 C122 1.359 . S
N121 C125 1.343 . S
C122 C115 1.422 . S
C122 N121 1.359 . S
C122 C124 1.421 . S
C123 C124 1.422 . S
C123 C126 1.321 . S
C123 H150 0.931 . S
C124 C122 1.421 . S
C124 C123 1.422 . S
C124 C148 1.417 . S
C125 H102 0.931 . S
C125 N121 1.343 . S
C125 C126 1.390 . S
C126 H104 0.930 . S
C126 C123 1.321 . S
C126 C125 1.390 . S
O127 Gd95 2.386 . S
O127 C139 1.265 . S
O128 Gd94 2.353 . S
O128 C139 1.242 . S
O129 Gd94 2.468 . S
O129 C147 1.263 . S
O130 Gd94 2.427 . S
O130 C147 1.252 . S
O131 Gd95 2.307 . S
O131 C140 1.261 . S
O132 Gd94 2.388 . S
O132 C140 1.252 . S
O133 Gd94 2.386 . S
O133 C151 1.265 . S
O134 Gd95 2.353 . S
O134 C151 1.242 . S
O135 Gd95 2.468 . S
O135 C159 1.263 . S
O136 Gd95 2.427 . S
O136 C159 1.252 . S
O137 Gd94 2.307 . S
O137 C152 1.261 . S
O138 Gd95 2.388 . S
O138 C152 1.252 . S
C139 O127 1.265 . S
C139 O128 1.242 . S
C140 O131 1.261 . S
C140 O132 1.252 . S
C141 C144 1.394 . S
C141 C146 1.370 . S
C141 C147 1.500 . S
C142 C145 1.383 . S
C142 C146 1.395 . S
C143 C144 1.396 . S
C143 C145 1.365 . S
C143 H160 0.929 . S
C144 C141 1.394 . S
C144 C143 1.396 . S
C144 H161 0.930 . S
C145 C142 1.383 . S
C145 C143 1.365 . S
C145 H162 0.931 . S
C146 C141 1.370 . S
C146 C142 1.395 . S
C146 H163 0.930 . S
C147 Gd94 2.805 . S
C147 O129 1.263 . S
C147 O130 1.252 . S
C147 C141 1.500 . S
C148 H110 0.930 . S
C148 C124 1.417 . S
C148 C149 1.329 . S
C149 C119 1.437 . S
C149 H120 0.929 . S
C149 C148 1.329 . S
H150 C123 0.931 . S
C151 O133 1.265 . S
C151 O134 1.242 . S
C152 O137 1.261 . S
C152 O138 1.252 . S
C153 C156 1.394 . S
C153 C158 1.370 . S
C153 C159 1.500 . S
C154 C157 1.383 . S
C154 C158 1.395 . S
C155 C156 1.396 . S
C155 C157 1.365 . S
C155 H164 0.929 . S
C156 C153 1.394 . S
C156 C155 1.396 . S
C156 H165 0.930 . S
C157 C154 1.383 . S
C157 C155 1.365 . S
C157 H166 0.931 . S
C158 C153 1.370 . S
C158 C154 1.395 . S
C158 H167 0.930 . S
C159 Gd95 2.805 . S
C159 O135 1.263 . S
C159 O136 1.252 . S
C159 C153 1.500 . S
H160 C143 0.929 . S
H161 C144 0.930 . S
H162 C145 0.931 . S
H163 C146 0.930 . S
H164 C155 0.929 . S
H165 C156 0.930 . S
H166 C157 0.931 . S
H167 C158 0.930 . S
C168 C170 1.422 . S
C168 C172 1.415 . S
C168 N174 1.369 . S
C169 C170 1.421 . S
C169 C171 1.417 . S
C169 C181 1.422 . S
C170 C168 1.422 . S
C170 C169 1.421 . S
C170 N180 1.359 . S
C171 C169 1.417 . S
C171 C173 1.329 . S
C171 H190 0.930 . S
C172 C168 1.415 . S
C172 C173 1.437 . S
C172 C176 1.413 . S
C173 C171 1.329 . S
C173 C172 1.437 . S
C173 H195 0.929 . S
N174 C168 1.369 . S
N174 C175 1.338 . S
N174 Gd179 2.622 . S
C175 N174 1.338 . S
C175 C177 1.378 . S
C175 H187 0.929 . S
C176 C172 1.413 . S
C176 C177 1.348 . S
C176 H192 0.931 . S
C177 C175 1.378 . S
C177 C176 1.348 . S
C177 H193 0.930 . S
Gd178 N198 2.622 . S
Gd178 N205 2.570 . S
Gd178 O212 2.353 . S
Gd178 O213 2.468 . S
Gd178 O214 2.427 . S
Gd178 O216 2.388 . S
Gd178 O217 2.386 . S
Gd178 O221 2.307 . S
Gd178 C231 2.805 . S
Gd179 N174 2.622 . S
Gd179 N180 2.570 . S
Gd179 O211 2.386 . S
Gd179 O215 2.307 . S
Gd179 O218 2.353 . S
Gd179 O219 2.468 . S
Gd179 O220 2.427 . S
Gd179 O222 2.388 . S
Gd179 C243 2.805 . S
N180 C170 1.359 . S
N180 Gd179 2.570 . S
N180 C182 1.343 . S
C181 C169 1.422 . S
C181 C183 1.321 . S
C181 H189 0.931 . S
C182 N180 1.343 . S
C182 C183 1.390 . S
C182 H184 0.931 . S
C183 C181 1.321 . S
C183 C182 1.390 . S
C183 H185 0.930 . S
H184 C182 0.931 . S
H185 C183 0.930 . S
H186 C209 0.931 . S
H187 C175 0.929 . S
H188 C210 0.930 . S
H189 C181 0.931 . S
H190 C171 0.930 . S
H191 C200 0.929 . S
H192 C176 0.931 . S
H193 C177 0.930 . S
H194 C232 0.930 . S
H195 C173 0.929 . S
H196 C201 0.931 . S
H197 C202 0.930 . S
N198 Gd178 2.622 . S
N198 C199 1.369 . S
N198 C200 1.338 . S
C199 N198 1.369 . S
C199 C203 1.415 . S
C199 C206 1.422 . S
C200 H191 0.929 . S
C200 N198 1.338 . S
C200 C202 1.378 . S
C201 H196 0.931 . S
C201 C202 1.348 . S
C201 C203 1.413 . S
C202 H197 0.930 . S
C202 C200 1.378 . S
C202 C201 1.348 . S
C203 C199 1.415 . S
C203 C201 1.413 . S
C203 C233 1.437 . S
H204 C233 0.929 . S
N205 Gd178 2.570 . S
N205 C206 1.359 . S
N205 C209 1.343 . S
C206 C199 1.422 . S
C206 N205 1.359 . S
C206 C208 1.421 . S
C207 C208 1.422 . S
C207 C210 1.321 . S
C207 H234 0.931 . S
C208 C206 1.421 . S
C208 C207 1.422 . S
C208 C232 1.417 . S
C209 H186 0.931 . S
C209 N205 1.343 . S
C209 C210 1.390 . S
C210 H188 0.930 . S
C210 C207 1.321 . S
C210 C209 1.390 . S
O211 Gd179 2.386 . S
O211 C223 1.265 . S
O212 Gd178 2.353 . S
O212 C223 1.242 . S
O213 Gd178 2.468 . S
O213 C231 1.263 . S
O214 Gd178 2.427 . S
O214 C231 1.252 . S
O215 Gd179 2.307 . S
O215 C224 1.261 . S
O216 Gd178 2.388 . S
O216 C224 1.252 . S
O217 Gd178 2.386 . S
O217 C235 1.265 . S
O218 Gd179 2.353 . S
O218 C235 1.242 . S
O219 Gd179 2.468 . S
O219 C243 1.263 . S
O220 Gd179 2.427 . S
O220 C243 1.252 . S
O221 Gd178 2.307 . S
O221 C236 1.261 . S
O222 Gd179 2.388 . S
O222 C236 1.252 . S
C223 O211 1.265 . S
C223 O212 1.242 . S
C224 O215 1.261 . S
C224 O216 1.252 . S
C225 C228 1.394 . S
C225 C230 1.370 . S
C225 C231 1.500 . S
C226 C229 1.383 . S
C226 C230 1.395 . S
C227 C228 1.396 . S
C227 C229 1.365 . S
C227 H244 0.929 . S
C228 C225 1.394 . S
C228 C227 1.396 . S
C228 H245 0.930 . S
C229 C226 1.383 . S
C229 C227 1.365 . S
C229 H246 0.931 . S
C230 C225 1.370 . S
C230 C226 1.395 . S
C230 H247 0.930 . S
C231 Gd178 2.805 . S
C231 O213 1.263 . S
C231 O214 1.252 . S
C231 C225 1.500 . S
C232 H194 0.930 . S
C232 C208 1.417 . S
C232 C233 1.329 . S
C233 C203 1.437 . S
C233 H204 0.929 . S
C233 C232 1.329 . S
H234 C207 0.931 . S
C235 O217 1.265 . S
C235 O218 1.242 . S
C236 O221 1.261 . S
C236 O222 1.252 . S
C237 C240 1.394 . S
C237 C242 1.370 . S
C237 C243 1.500 . S
C238 C241 1.383 . S
C238 C242 1.395 . S
C239 C240 1.396 . S
C239 C241 1.365 . S
C239 H248 0.929 . S
C240 C237 1.394 . S
C240 C239 1.396 . S
C240 H249 0.930 . S
C241 C238 1.383 . S
C241 C239 1.365 . S
C241 H250 0.931 . S
C242 C237 1.370 . S
C242 C238 1.395 . S
C242 H251 0.930 . S
C243 Gd179 2.805 . S
C243 O219 1.263 . S
C243 O220 1.252 . S
C243 C237 1.500 . S
H244 C227 0.929 . S
H245 C228 0.930 . S
H246 C229 0.931 . S
H247 C230 0.930 . S
H248 C239 0.929 . S
H249 C240 0.930 . S
H250 C241 0.931 . S
H251 C242 0.930 . S
C252 C254 1.422 . S
C252 C256 1.415 . S
C252 N258 1.369 . S
C253 C254 1.421 . S
C253 C255 1.417 . S
C253 C265 1.422 . S
C254 C252 1.422 . S
C254 C253 1.421 . S
C254 N264 1.359 . S
C255 C253 1.417 . S
C255 C257 1.329 . S
C255 H274 0.930 . S
C256 C252 1.415 . S
C256 C257 1.437 . S
C256 C260 1.413 . S
C257 C255 1.329 . S
C257 C256 1.437 . S
C257 H279 0.929 . S
N258 C252 1.369 . S
N258 C259 1.338 . S
N258 Gd263 2.622 . S
C259 N258 1.338 . S
C259 C261 1.378 . S
C259 H271 0.929 . S
C260 C256 1.413 . S
C260 C261 1.348 . S
C260 H276 0.931 . S
C261 C259 1.378 . S
C261 C260 1.348 . S
C261 H277 0.930 . S
Gd262 N282 2.622 . S
Gd262 N289 2.570 . S
Gd262 O296 2.353 . S
Gd262 O297 2.468 . S
Gd262 O298 2.427 . S
Gd262 O300 2.388 . S
Gd262 O301 2.386 . S
Gd262 O305 2.307 . S
Gd262 C315 2.805 . S
Gd263 N258 2.622 . S
Gd263 N264 2.570 . S
Gd263 O295 2.386 . S
Gd263 O299 2.307 . S
Gd263 O302 2.353 . S
Gd263 O303 2.468 . S
Gd263 O304 2.427 . S
Gd263 O306 2.388 . S
Gd263 C327 2.805 . S
N264 C254 1.359 . S
N264 Gd263 2.570 . S
N264 C266 1.343 . S
C265 C253 1.422 . S
C265 C267 1.321 . S
C265 H273 0.931 . S
C266 N264 1.343 . S
C266 C267 1.390 . S
C266 H268 0.931 . S
C267 C265 1.321 . S
C267 C266 1.390 . S
C267 H269 0.930 . S
H268 C266 0.931 . S
H269 C267 0.930 . S
H270 C293 0.931 . S
H271 C259 0.929 . S
H272 C294 0.930 . S
H273 C265 0.931 . S
H274 C255 0.930 . S
H275 C284 0.929 . S
H276 C260 0.931 . S
H277 C261 0.930 . S
H278 C316 0.930 . S
H279 C257 0.929 . S
H280 C285 0.931 . S
H281 C286 0.930 . S
N282 Gd262 2.622 . S
N282 C283 1.369 . S
N282 C284 1.338 . S
C283 N282 1.369 . S
C283 C287 1.415 . S
C283 C290 1.422 . S
C284 H275 0.929 . S
C284 N282 1.338 . S
C284 C286 1.378 . S
C285 H280 0.931 . S
C285 C286 1.348 . S
C285 C287 1.413 . S
C286 H281 0.930 . S
C286 C284 1.378 . S
C286 C285 1.348 . S
C287 C283 1.415 . S
C287 C285 1.413 . S
C287 C317 1.437 . S
H288 C317 0.929 . S
N289 Gd262 2.570 . S
N289 C290 1.359 . S
N289 C293 1.343 . S
C290 C283 1.422 . S
C290 N289 1.359 . S
C290 C292 1.421 . S
C291 C292 1.422 . S
C291 C294 1.321 . S
C291 H318 0.931 . S
C292 C290 1.421 . S
C292 C291 1.422 . S
C292 C316 1.417 . S
C293 H270 0.931 . S
C293 N289 1.343 . S
C293 C294 1.390 . S
C294 H272 0.930 . S
C294 C291 1.321 . S
C294 C293 1.390 . S
O295 Gd263 2.386 . S
O295 C307 1.265 . S
O296 Gd262 2.353 . S
O296 C307 1.242 . S
O297 Gd262 2.468 . S
O297 C315 1.263 . S
O298 Gd262 2.427 . S
O298 C315 1.252 . S
O299 Gd263 2.307 . S
O299 C308 1.261 . S
O300 Gd262 2.388 . S
O300 C308 1.252 . S
O301 Gd262 2.386 . S
O301 C319 1.265 . S
O302 Gd263 2.353 . S
O302 C319 1.242 . S
O303 Gd263 2.468 . S
O303 C327 1.263 . S
O304 Gd263 2.427 . S
O304 C327 1.252 . S
O305 Gd262 2.307 . S
O305 C320 1.261 . S
O306 Gd263 2.388 . S
O306 C320 1.252 . S
C307 O295 1.265 . S
C307 O296 1.242 . S
C308 O299 1.261 . S
C308 O300 1.252 . S
C309 C312 1.394 . S
C309 C314 1.370 . S
C309 C315 1.500 . S
C310 C313 1.383 . S
C310 C314 1.395 . S
C311 C312 1.396 . S
C311 C313 1.365 . S
C311 H328 0.929 . S
C312 C309 1.394 . S
C312 C311 1.396 . S
C312 H329 0.930 . S
C313 C310 1.383 . S
C313 C311 1.365 . S
C313 H330 0.931 . S
C314 C309 1.370 . S
C314 C310 1.395 . S
C314 H331 0.930 . S
C315 Gd262 2.805 . S
C315 O297 1.263 . S
C315 O298 1.252 . S
C315 C309 1.500 . S
C316 H278 0.930 . S
C316 C292 1.417 . S
C316 C317 1.329 . S
C317 C287 1.437 . S
C317 H288 0.929 . S
C317 C316 1.329 . S
H318 C291 0.931 . S
C319 O301 1.265 . S
C319 O302 1.242 . S
C320 O305 1.261 . S
C320 O306 1.252 . S
C321 C324 1.394 . S
C321 C326 1.370 . S
C321 C327 1.500 . S
C322 C325 1.383 . S
C322 C326 1.395 . S
C323 C324 1.396 . S
C323 C325 1.365 . S
C323 H332 0.929 . S
C324 C321 1.394 . S
C324 C323 1.396 . S
C324 H333 0.930 . S
C325 C322 1.383 . S
C325 C323 1.365 . S
C325 H334 0.931 . S
C326 C321 1.370 . S
C326 C322 1.395 . S
C326 H335 0.930 . S
C327 Gd263 2.805 . S
C327 O303 1.263 . S
C327 O304 1.252 . S
C327 C321 1.500 . S
H328 C311 0.929 . S
H329 C312 0.930 . S
H330 C313 0.931 . S
H331 C314 0.930 . S
H332 C323 0.929 . S
H333 C324 0.930 . S
H334 C325 0.931 . S
H335 C326 0.930 . S
C336 C338 1.422 . S
C336 C340 1.415 . S
C336 N342 1.369 . S
C337 C338 1.421 . S
C337 C339 1.417 . S
C337 C349 1.422 . S
C338 C336 1.422 . S
C338 C337 1.421 . S
C338 N348 1.359 . S
C339 C337 1.417 . S
C339 C341 1.329 . S
C339 H358 0.930 . S
C340 C336 1.415 . S
C340 C341 1.437 . S
C340 C344 1.413 . S
C341 C339 1.329 . S
C341 C340 1.437 . S
C341 H363 0.929 . S
N342 C336 1.369 . S
N342 C343 1.338 . S
N342 Gd347 2.622 . S
C343 N342 1.338 . S
C343 C345 1.378 . S
C343 H355 0.929 . S
C344 C340 1.413 . S
C344 C345 1.348 . S
C344 H360 0.931 . S
C345 C343 1.378 . S
C345 C344 1.348 . S
C345 H361 0.930 . S
Gd346 N366 2.622 . S
Gd346 N373 2.570 . S
Gd346 O380 2.353 . S
Gd346 O381 2.468 . S
Gd346 O382 2.427 . S
Gd346 O384 2.388 . S
Gd346 O385 2.386 . S
Gd346 O389 2.307 . S
Gd346 C399 2.805 . S
Gd347 N342 2.622 . S
Gd347 N348 2.570 . S
Gd347 O379 2.386 . S
Gd347 O383 2.307 . S
Gd347 O386 2.353 . S
Gd347 O387 2.468 . S
Gd347 O388 2.427 . S
Gd347 O390 2.388 . S
Gd347 C411 2.805 . S
N348 C338 1.359 . S
N348 Gd347 2.570 . S
N348 C350 1.343 . S
C349 C337 1.422 . S
C349 C351 1.321 . S
C349 H357 0.931 . S
C350 N348 1.343 . S
C350 C351 1.390 . S
C350 H352 0.931 . S
C351 C349 1.321 . S
C351 C350 1.390 . S
C351 H353 0.930 . S
H352 C350 0.931 . S
H353 C351 0.930 . S
H354 C377 0.931 . S
H355 C343 0.929 . S
H356 C378 0.930 . S
H357 C349 0.931 . S
H358 C339 0.930 . S
H359 C368 0.929 . S
H360 C344 0.931 . S
H361 C345 0.930 . S
H362 C400 0.930 . S
H363 C341 0.929 . S
H364 C369 0.931 . S
H365 C370 0.930 . S
N366 Gd346 2.622 . S
N366 C367 1.369 . S
N366 C368 1.338 . S
C367 N366 1.369 . S
C367 C371 1.415 . S
C367 C374 1.422 . S
C368 H359 0.929 . S
C368 N366 1.338 . S
C368 C370 1.378 . S
C369 H364 0.931 . S
C369 C370 1.348 . S
C369 C371 1.413 . S
C370 H365 0.930 . S
C370 C368 1.378 . S
C370 C369 1.348 . S
C371 C367 1.415 . S
C371 C369 1.413 . S
C371 C401 1.437 . S
H372 C401 0.929 . S
N373 Gd346 2.570 . S
N373 C374 1.359 . S
N373 C377 1.343 . S
C374 C367 1.422 . S
C374 N373 1.359 . S
C374 C376 1.421 . S
C375 C376 1.422 . S
C375 C378 1.321 . S
C375 H402 0.931 . S
C376 C374 1.421 . S
C376 C375 1.422 . S
C376 C400 1.417 . S
C377 H354 0.931 . S
C377 N373 1.343 . S
C377 C378 1.390 . S
C378 H356 0.930 . S
C378 C375 1.321 . S
C378 C377 1.390 . S
O379 Gd347 2.386 . S
O379 C391 1.265 . S
O380 Gd346 2.353 . S
O380 C391 1.242 . S
O381 Gd346 2.468 . S
O381 C399 1.263 . S
O382 Gd346 2.427 . S
O382 C399 1.252 . S
O383 Gd347 2.307 . S
O383 C392 1.261 . S
O384 Gd346 2.388 . S
O384 C392 1.252 . S
O385 Gd346 2.386 . S
O385 C403 1.265 . S
O386 Gd347 2.353 . S
O386 C403 1.242 . S
O387 Gd347 2.468 . S
O387 C411 1.263 . S
O388 Gd347 2.427 . S
O388 C411 1.252 . S
O389 Gd346 2.307 . S
O389 C404 1.261 . S
O390 Gd347 2.388 . S
O390 C404 1.252 . S
C391 O379 1.265 . S
C391 O380 1.242 . S
C392 O383 1.261 . S
C392 O384 1.252 . S
C393 C396 1.394 . S
C393 C398 1.370 . S
C393 C399 1.500 . S
C394 C397 1.383 . S
C394 C398 1.395 . S
C395 C396 1.396 . S
C395 C397 1.365 . S
C395 H412 0.929 . S
C396 C393 1.394 . S
C396 C395 1.396 . S
C396 H413 0.930 . S
C397 C394 1.383 . S
C397 C395 1.365 . S
C397 H414 0.931 . S
C398 C393 1.370 . S
C398 C394 1.395 . S
C398 H415 0.930 . S
C399 Gd346 2.805 . S
C399 O381 1.263 . S
C399 O382 1.252 . S
C399 C393 1.500 . S
C400 H362 0.930 . S
C400 C376 1.417 . S
C400 C401 1.329 . S
C401 C371 1.437 . S
C401 H372 0.929 . S
C401 C400 1.329 . S
H402 C375 0.931 . S
C403 O385 1.265 . S
C403 O386 1.242 . S
C404 O389 1.261 . S
C404 O390 1.252 . S
C405 C408 1.394 . S
C405 C410 1.370 . S
C405 C411 1.500 . S
C406 C409 1.383 . S
C406 C410 1.395 . S
C407 C408 1.396 . S
C407 C409 1.365 . S
C407 H416 0.929 . S
C408 C405 1.394 . S
C408 C407 1.396 . S
C408 H417 0.930 . S
C409 C406 1.383 . S
C409 C407 1.365 . S
C409 H418 0.931 . S
C410 C405 1.370 . S
C410 C406 1.395 . S
C410 H419 0.930 . S
C411 Gd347 2.805 . S
C411 O387 1.263 . S
C411 O388 1.252 . S
C411 C405 1.500 . S
H412 C395 0.929 . S
H413 C396 0.930 . S
H414 C397 0.931 . S
H415 C398 0.930 . S
H416 C407 0.929 . S
H417 C408 0.930 . S
H418 C409 0.931 . S
H419 C410 0.930 . S
C420 C422 1.422 . S
C420 C424 1.415 . S
C420 N426 1.369 . S
C421 C422 1.421 . S
C421 C423 1.417 . S
C421 C433 1.422 . S
C422 C420 1.422 . S
C422 C421 1.421 . S
C422 N432 1.359 . S
C423 C421 1.417 . S
C423 C425 1.329 . S
C423 H442 0.930 . S
C424 C420 1.415 . S
C424 C425 1.437 . S
C424 C428 1.413 . S
C425 C423 1.329 . S
C425 C424 1.437 . S
C425 H447 0.929 . S
N426 C420 1.369 . S
N426 C427 1.338 . S
N426 Gd431 2.622 . S
C427 N426 1.338 . S
C427 C429 1.378 . S
C427 H439 0.929 . S
C428 C424 1.413 . S
C428 C429 1.348 . S
C428 H444 0.931 . S
C429 C427 1.378 . S
C429 C428 1.348 . S
C429 H445 0.930 . S
Gd430 N450 2.622 . S
Gd430 N457 2.570 . S
Gd430 O464 2.353 . S
Gd430 O465 2.468 . S
Gd430 O466 2.427 . S
Gd430 O468 2.388 . S
Gd430 O469 2.386 . S
Gd430 O473 2.307 . S
Gd430 C483 2.805 . S
Gd431 N426 2.622 . S
Gd431 N432 2.570 . S
Gd431 O463 2.386 . S
Gd431 O467 2.307 . S
Gd431 O470 2.353 . S
Gd431 O471 2.468 . S
Gd431 O472 2.427 . S
Gd431 O474 2.388 . S
Gd431 C495 2.805 . S
N432 C422 1.359 . S
N432 Gd431 2.570 . S
N432 C434 1.343 . S
C433 C421 1.422 . S
C433 C435 1.321 . S
C433 H441 0.931 . S
C434 N432 1.343 . S
C434 C435 1.390 . S
C434 H436 0.931 . S
C435 C433 1.321 . S
C435 C434 1.390 . S
C435 H437 0.930 . S
H436 C434 0.931 . S
H437 C435 0.930 . S
H438 C461 0.931 . S
H439 C427 0.929 . S
H440 C462 0.930 . S
H441 C433 0.931 . S
H442 C423 0.930 . S
H443 C452 0.929 . S
H444 C428 0.931 . S
H445 C429 0.930 . S
H446 C484 0.930 . S
H447 C425 0.929 . S
H448 C453 0.931 . S
H449 C454 0.930 . S
N450 Gd430 2.622 . S
N450 C451 1.369 . S
N450 C452 1.338 . S
C451 N450 1.369 . S
C451 C455 1.415 . S
C451 C458 1.422 . S
C452 H443 0.929 . S
C452 N450 1.338 . S
C452 C454 1.378 . S
C453 H448 0.931 . S
C453 C454 1.348 . S
C453 C455 1.413 . S
C454 H449 0.930 . S
C454 C452 1.378 . S
C454 C453 1.348 . S
C455 C451 1.415 . S
C455 C453 1.413 . S
C455 C485 1.437 . S
H456 C485 0.929 . S
N457 Gd430 2.570 . S
N457 C458 1.359 . S
N457 C461 1.343 . S
C458 C451 1.422 . S
C458 N457 1.359 . S
C458 C460 1.421 . S
C459 C460 1.422 . S
C459 C462 1.321 . S
C459 H486 0.931 . S
C460 C458 1.421 . S
C460 C459 1.422 . S
C460 C484 1.417 . S
C461 H438 0.931 . S
C461 N457 1.343 . S
C461 C462 1.390 . S
C462 H440 0.930 . S
C462 C459 1.321 . S
C462 C461 1.390 . S
O463 Gd431 2.386 . S
O463 C475 1.265 . S
O464 Gd430 2.353 . S
O464 C475 1.242 . S
O465 Gd430 2.468 . S
O465 C483 1.263 . S
O466 Gd430 2.427 . S
O466 C483 1.252 . S
O467 Gd431 2.307 . S
O467 C476 1.261 . S
O468 Gd430 2.388 . S
O468 C476 1.252 . S
O469 Gd430 2.386 . S
O469 C487 1.265 . S
O470 Gd431 2.353 . S
O470 C487 1.242 . S
O471 Gd431 2.468 . S
O471 C495 1.263 . S
O472 Gd431 2.427 . S
O472 C495 1.252 . S
O473 Gd430 2.307 . S
O473 C488 1.261 . S
O474 Gd431 2.388 . S
O474 C488 1.252 . S
C475 O463 1.265 . S
C475 O464 1.242 . S
C476 O467 1.261 . S
C476 O468 1.252 . S
C477 C480 1.394 . S
C477 C482 1.370 . S
C477 C483 1.500 . S
C478 C481 1.383 . S
C478 C482 1.395 . S
C479 C480 1.396 . S
C479 C481 1.365 . S
C479 H496 0.929 . S
C480 C477 1.394 . S
C480 C479 1.396 . S
C480 H497 0.930 . S
C481 C478 1.383 . S
C481 C479 1.365 . S
C481 H498 0.931 . S
C482 C477 1.370 . S
C482 C478 1.395 . S
C482 H499 0.930 . S
C483 Gd430 2.805 . S
C483 O465 1.263 . S
C483 O466 1.252 . S
C483 C477 1.500 . S
C484 H446 0.930 . S
C484 C460 1.417 . S
C484 C485 1.329 . S
C485 C455 1.437 . S
C485 H456 0.929 . S
C485 C484 1.329 . S
H486 C459 0.931 . S
C487 O469 1.265 . S
C487 O470 1.242 . S
C488 O473 1.261 . S
C488 O474 1.252 . S
C489 C492 1.394 . S
C489 C494 1.370 . S
C489 C495 1.500 . S
C490 C493 1.383 . S
C490 C494 1.395 . S
C491 C492 1.396 . S
C491 C493 1.365 . S
C491 H500 0.929 . S
C492 C489 1.394 . S
C492 C491 1.396 . S
C492 H501 0.930 . S
C493 C490 1.383 . S
C493 C491 1.365 . S
C493 H502 0.931 . S
C494 C489 1.370 . S
C494 C490 1.395 . S
C494 H503 0.930 . S
C495 Gd431 2.805 . S
C495 O471 1.263 . S
C495 O472 1.252 . S
C495 C489 1.500 . S
H496 C479 0.929 . S
H497 C480 0.930 . S
H498 C481 0.931 . S
H499 C482 0.930 . S
H500 C491 0.929 . S
H501 C492 0.930 . S
H502 C493 0.931 . S
H503 C494 0.930 . S
C504 C506 1.422 . S
C504 C508 1.415 . S
C504 N510 1.369 . S
C505 C506 1.421 . S
C505 C507 1.417 . S
C505 C517 1.422 . S
C506 C504 1.422 . S
C506 C505 1.421 . S
C506 N516 1.359 . S
C507 C505 1.417 . S
C507 C509 1.329 . S
C507 H526 0.930 . S
C508 C504 1.415 . S
C508 C509 1.437 . S
C508 C512 1.413 . S
C509 C507 1.329 . S
C509 C508 1.437 . S
C509 H531 0.929 . S
N510 C504 1.369 . S
N510 C511 1.338 . S
N510 Gd515 2.622 . S
C511 N510 1.338 . S
C511 C513 1.378 . S
C511 H523 0.929 . S
C512 C508 1.413 . S
C512 C513 1.348 . S
C512 H528 0.931 . S
C513 C511 1.378 . S
C513 C512 1.348 . S
C513 H529 0.930 . S
Gd514 N534 2.622 . S
Gd514 N541 2.570 . S
Gd514 O548 2.353 . S
Gd514 O549 2.468 . S
Gd514 O550 2.427 . S
Gd514 O552 2.388 . S
Gd514 O553 2.386 . S
Gd514 O557 2.307 . S
Gd514 C567 2.805 . S
Gd515 N510 2.622 . S
Gd515 N516 2.570 . S
Gd515 O547 2.386 . S
Gd515 O551 2.307 . S
Gd515 O554 2.353 . S
Gd515 O555 2.468 . S
Gd515 O556 2.427 . S
Gd515 O558 2.388 . S
Gd515 C579 2.805 . S
N516 C506 1.359 . S
N516 Gd515 2.570 . S
N516 C518 1.343 . S
C517 C505 1.422 . S
C517 C519 1.321 . S
C517 H525 0.931 . S
C518 N516 1.343 . S
C518 C519 1.390 . S
C518 H520 0.931 . S
C519 C517 1.321 . S
C519 C518 1.390 . S
C519 H521 0.930 . S
H520 C518 0.931 . S
H521 C519 0.930 . S
H522 C545 0.931 . S
H523 C511 0.929 . S
H524 C546 0.930 . S
H525 C517 0.931 . S
H526 C507 0.930 . S
H527 C536 0.929 . S
H528 C512 0.931 . S
H529 C513 0.930 . S
H530 C568 0.930 . S
H531 C509 0.929 . S
H532 C537 0.931 . S
H533 C538 0.930 . S
N534 Gd514 2.622 . S
N534 C535 1.369 . S
N534 C536 1.338 . S
C535 N534 1.369 . S
C535 C539 1.415 . S
C535 C542 1.422 . S
C536 H527 0.929 . S
C536 N534 1.338 . S
C536 C538 1.378 . S
C537 H532 0.931 . S
C537 C538 1.348 . S
C537 C539 1.413 . S
C538 H533 0.930 . S
C538 C536 1.378 . S
C538 C537 1.348 . S
C539 C535 1.415 . S
C539 C537 1.413 . S
C539 C569 1.437 . S
H540 C569 0.929 . S
N541 Gd514 2.570 . S
N541 C542 1.359 . S
N541 C545 1.343 . S
C542 C535 1.422 . S
C542 N541 1.359 . S
C542 C544 1.421 . S
C543 C544 1.422 . S
C543 C546 1.321 . S
C543 H570 0.931 . S
C544 C542 1.421 . S
C544 C543 1.422 . S
C544 C568 1.417 . S
C545 H522 0.931 . S
C545 N541 1.343 . S
C545 C546 1.390 . S
C546 H524 0.930 . S
C546 C543 1.321 . S
C546 C545 1.390 . S
O547 Gd515 2.386 . S
O547 C559 1.265 . S
O548 Gd514 2.353 . S
O548 C559 1.242 . S
O549 Gd514 2.468 . S
O549 C567 1.263 . S
O550 Gd514 2.427 . S
O550 C567 1.252 . S
O551 Gd515 2.307 . S
O551 C560 1.261 . S
O552 Gd514 2.388 . S
O552 C560 1.252 . S
O553 Gd514 2.386 . S
O553 C571 1.265 . S
O554 Gd515 2.353 . S
O554 C571 1.242 . S
O555 Gd515 2.468 . S
O555 C579 1.263 . S
O556 Gd515 2.427 . S
O556 C579 1.252 . S
O557 Gd514 2.307 . S
O557 C572 1.261 . S
O558 Gd515 2.388 . S
O558 C572 1.252 . S
C559 O547 1.265 . S
C559 O548 1.242 . S
C560 O551 1.261 . S
C560 O552 1.252 . S
C561 C564 1.394 . S
C561 C566 1.370 . S
C561 C567 1.500 . S
C562 C565 1.383 . S
C562 C566 1.395 . S
C563 C564 1.396 . S
C563 C565 1.365 . S
C563 H580 0.929 . S
C564 C561 1.394 . S
C564 C563 1.396 . S
C564 H581 0.930 . S
C565 C562 1.383 . S
C565 C563 1.365 . S
C565 H582 0.931 . S
C566 C561 1.370 . S
C566 C562 1.395 . S
C566 H583 0.930 . S
C567 Gd514 2.805 . S
C567 O549 1.263 . S
C567 O550 1.252 . S
C567 C561 1.500 . S
C568 H530 0.930 . S
C568 C544 1.417 . S
C568 C569 1.329 . S
C569 C539 1.437 . S
C569 H540 0.929 . S
C569 C568 1.329 . S
H570 C543 0.931 . S
C571 O553 1.265 . S
C571 O554 1.242 . S
C572 O557 1.261 . S
C572 O558 1.252 . S
C573 C576 1.394 . S
C573 C578 1.370 . S
C573 C579 1.500 . S
C574 C577 1.383 . S
C574 C578 1.395 . S
C575 C576 1.396 . S
C575 C577 1.365 . S
C575 H584 0.929 . S
C576 C573 1.394 . S
C576 C575 1.396 . S
C576 H585 0.930 . S
C577 C574 1.383 . S
C577 C575 1.365 . S
C577 H586 0.931 . S
C578 C573 1.370 . S
C578 C574 1.395 . S
C578 H587 0.930 . S
C579 Gd515 2.805 . S
C579 O555 1.263 . S
C579 O556 1.252 . S
C579 C573 1.500 . S
H580 C563 0.929 . S
H581 C564 0.930 . S
H582 C565 0.931 . S
H583 C566 0.930 . S
H584 C575 0.929 . S
H585 C576 0.930 . S
H586 C577 0.931 . S
H587 C578 0.930 . S
C588 C590 1.422 . S
C588 C592 1.415 . S
C588 N594 1.369 . S
C589 C590 1.421 . S
C589 C591 1.417 . S
C589 C601 1.422 . S
C590 C588 1.422 . S
C590 C589 1.421 . S
C590 N600 1.359 . S
C591 C589 1.417 . S
C591 C593 1.329 . S
C591 H610 0.930 . S
C592 C588 1.415 . S
C592 C593 1.437 . S
C592 C596 1.413 . S
C593 C591 1.329 . S
C593 C592 1.437 . S
C593 H615 0.929 . S
N594 C588 1.369 . S
N594 C595 1.338 . S
N594 Gd599 2.622 . S
C595 N594 1.338 . S
C595 C597 1.378 . S
C595 H607 0.929 . S
C596 C592 1.413 . S
C596 C597 1.348 . S
C596 H612 0.931 . S
C597 C595 1.378 . S
C597 C596 1.348 . S
C597 H613 0.930 . S
Gd598 N618 2.622 . S
Gd598 N625 2.570 . S
Gd598 O632 2.353 . S
Gd598 O633 2.468 . S
Gd598 O634 2.427 . S
Gd598 O636 2.388 . S
Gd598 O637 2.386 . S
Gd598 O641 2.307 . S
Gd598 C651 2.805 . S
Gd599 N594 2.622 . S
Gd599 N600 2.570 . S
Gd599 O631 2.386 . S
Gd599 O635 2.307 . S
Gd599 O638 2.353 . S
Gd599 O639 2.468 . S
Gd599 O640 2.427 . S
Gd599 O642 2.388 . S
Gd599 C663 2.805 . S
N600 C590 1.359 . S
N600 Gd599 2.570 . S
N600 C602 1.343 . S
C601 C589 1.422 . S
C601 C603 1.321 . S
C601 H609 0.931 . S
C602 N600 1.343 . S
C602 C603 1.390 . S
C602 H604 0.931 . S
C603 C601 1.321 . S
C603 C602 1.390 . S
C603 H605 0.930 . S
H604 C602 0.931 . S
H605 C603 0.930 . S
H606 C629 0.931 . S
H607 C595 0.929 . S
H608 C630 0.930 . S
H609 C601 0.931 . S
H610 C591 0.930 . S
H611 C620 0.929 . S
H612 C596 0.931 . S
H613 C597 0.930 . S
H614 C652 0.930 . S
H615 C593 0.929 . S
H616 C621 0.931 . S
H617 C622 0.930 . S
N618 Gd598 2.622 . S
N618 C619 1.369 . S
N618 C620 1.338 . S
C619 N618 1.369 . S
C619 C623 1.415 . S
C619 C626 1.422 . S
C620 H611 0.929 . S
C620 N618 1.338 . S
C620 C622 1.378 . S
C621 H616 0.931 . S
C621 C622 1.348 . S
C621 C623 1.413 . S
C622 H617 0.930 . S
C622 C620 1.378 . S
C622 C621 1.348 . S
C623 C619 1.415 . S
C623 C621 1.413 . S
C623 C653 1.437 . S
H624 C653 0.929 . S
N625 Gd598 2.570 . S
N625 C626 1.359 . S
N625 C629 1.343 . S
C626 C619 1.422 . S
C626 N625 1.359 . S
C626 C628 1.421 . S
C627 C628 1.422 . S
C627 C630 1.321 . S
C627 H654 0.931 . S
C628 C626 1.421 . S
C628 C627 1.422 . S
C628 C652 1.417 . S
C629 H606 0.931 . S
C629 N625 1.343 . S
C629 C630 1.390 . S
C630 H608 0.930 . S
C630 C627 1.321 . S
C630 C629 1.390 . S
O631 Gd599 2.386 . S
O631 C643 1.265 . S
O632 Gd598 2.353 . S
O632 C643 1.242 . S
O633 Gd598 2.468 . S
O633 C651 1.263 . S
O634 Gd598 2.427 . S
O634 C651 1.252 . S
O635 Gd599 2.307 . S
O635 C644 1.261 . S
O636 Gd598 2.388 . S
O636 C644 1.252 . S
O637 Gd598 2.386 . S
O637 C655 1.265 . S
O638 Gd599 2.353 . S
O638 C655 1.242 . S
O639 Gd599 2.468 . S
O639 C663 1.263 . S
O640 Gd599 2.427 . S
O640 C663 1.252 . S
O641 Gd598 2.307 . S
O641 C656 1.261 . S
O642 Gd599 2.388 . S
O642 C656 1.252 . S
C643 O631 1.265 . S
C643 O632 1.242 . S
C644 O635 1.261 . S
C644 O636 1.252 . S
C645 C648 1.394 . S
C645 C650 1.370 . S
C645 C651 1.500 . S
C646 C649 1.383 . S
C646 C650 1.395 . S
C647 C648 1.396 . S
C647 C649 1.365 . S
C647 H664 0.929 . S
C648 C645 1.394 . S
C648 C647 1.396 . S
C648 H665 0.930 . S
C649 C646 1.383 . S
C649 C647 1.365 . S
C649 H666 0.931 . S
C650 C645 1.370 . S
C650 C646 1.395 . S
C650 H667 0.930 . S
C651 Gd598 2.805 . S
C651 O633 1.263 . S
C651 O634 1.252 . S
C651 C645 1.500 . S
C652 H614 0.930 . S
C652 C628 1.417 . S
C652 C653 1.329 . S
C653 C623 1.437 . S
C653 H624 0.929 . S
C653 C652 1.329 . S
H654 C627 0.931 . S
C655 O637 1.265 . S
C655 O638 1.242 . S
C656 O641 1.261 . S
C656 O642 1.252 . S
C657 C660 1.394 . S
C657 C662 1.370 . S
C657 C663 1.500 . S
C658 C661 1.383 . S
C658 C662 1.395 . S
C659 C660 1.396 . S
C659 C661 1.365 . S
C659 H668 0.929 . S
C660 C657 1.394 . S
C660 C659 1.396 . S
C660 H669 0.930 . S
C661 C658 1.383 . S
C661 C659 1.365 . S
C661 H670 0.931 . S
C662 C657 1.370 . S
C662 C658 1.395 . S
C662 H671 0.930 . S
C663 Gd599 2.805 . S
C663 O639 1.263 . S
C663 O640 1.252 . S
C663 C657 1.500 . S
H664 C647 0.929 . S
H665 C648 0.930 . S
H666 C649 0.931 . S
H667 C650 0.930 . S
H668 C659 0.929 . S
H669 C660 0.930 . S
H670 C661 0.931 . S
H671 C662 0.930 . S
Fe672 O673 1.886 1_455 S
Fe672 O676 1.715 . S
Fe672 O681 2.077 1_455 S
Fe672 O686 1.935 . S
Fe672 O692 2.077 1_455 S
Fe672 O701 1.935 . S
O673 Fe672 1.886 1_655 S
O673 Fe675 1.715 1_545 S
Fe674 O676 1.886 . S
Fe674 O677 1.715 1_545 S
Fe674 O684 1.935 1_545 S
Fe674 O685 2.077 . S
Fe674 O691 1.935 1_545 S
Fe674 O700 2.077 . S
Fe675 O673 1.715 1_565 S
Fe675 O678 1.886 . S
Fe675 O682 1.935 1_565 S
Fe675 O687 2.077 . S
Fe675 O693 1.935 1_565 S
Fe675 O697 2.077 . S
O676 Fe672 1.715 . S
O676 Fe674 1.886 . S
O677 Fe674 1.715 1_565 S
O677 Fe679 1.886 1_455 S
O678 Fe675 1.886 . S
O678 Fe679 1.715 . S
Fe679 O677 1.886 1_655 S
Fe679 O678 1.715 . S
Fe679 O683 2.077 1_655 S
Fe679 O688 1.935 . S
Fe679 O690 2.077 1_655 S
Fe679 O698 1.935 . S
C680 O692 1.381 . S
C680 O693 1.421 . S
O681 Fe672 2.077 1_655 S
O681 C694 1.381 . S
O682 Fe675 1.935 1_545 S
O682 C694 1.421 . S
O683 Fe679 2.077 1_455 S
O683 C699 1.381 . S
O684 Fe674 1.935 1_565 S
O684 C699 1.421 . S
O685 Fe674 2.077 . S
O685 C689 1.381 . S
O686 Fe672 1.935 . S
O686 C689 1.421 . S
O687 Fe675 2.077 . S
O687 C695 1.381 . S
O688 Fe679 1.935 . S
O688 C695 1.421 . S
C689 O685 1.381 . S
C689 O686 1.421 . S
O690 Fe679 2.077 1_455 S
O690 C702 1.381 . S
O691 Fe674 1.935 1_565 S
O691 C702 1.421 . S
O692 Fe672 2.077 1_655 S
O692 C680 1.381 . S
O693 Fe675 1.935 1_545 S
O693 C680 1.421 . S
C694 O681 1.381 . S
C694 O682 1.421 . S
C695 O687 1.381 . S
C695 O688 1.421 . S
C696 O697 1.381 . S
C696 O698 1.421 . S
O697 Fe675 2.077 . S
O697 C696 1.381 . S
O698 Fe679 1.935 . S
O698 C696 1.421 . S
C699 O683 1.381 . S
C699 O684 1.421 . S
O700 Fe674 2.077 . S
O700 C703 1.381 . S
O701 Fe672 1.935 . S
O701 C703 1.421 . S
C702 O690 1.381 . S
C702 O691 1.421 . S
C703 O700 1.381 . S
C703 O701 1.421 . S
Fe704 O705 1.886 . S
Fe704 O708 1.715 . S
Fe704 O713 2.077 . S
Fe704 O718 1.935 . S
Fe704 O724 2.077 1_556 S
Fe704 O733 1.935 1_556 S
O705 Fe704 1.886 . S
O705 Fe707 1.715 1_565 S
Fe706 O708 1.886 1_554 S
Fe706 O709 1.715 1_565 S
Fe706 O716 1.935 1_564 S
Fe706 O717 2.077 1_554 S
Fe706 O723 1.935 1_565 S
Fe706 O732 2.077 . S
Fe707 O705 1.715 1_545 S
Fe707 O710 1.887 1_556 S
Fe707 O714 1.935 1_545 S
Fe707 O719 2.077 . S
Fe707 O725 1.935 1_546 S
Fe707 O729 2.077 1_556 S
O708 Fe704 1.715 . S
O708 Fe706 1.886 1_556 S
O709 Fe706 1.715 1_545 S
O709 Fe711 1.886 . S
O710 Fe707 1.887 1_554 S
O710 Fe711 1.714 . S
Fe711 O709 1.886 . S
Fe711 O710 1.714 . S
Fe711 O715 2.077 1_554 S
Fe711 O720 1.935 1_554 S
Fe711 O722 2.077 . S
Fe711 O730 1.935 . S
C712 O724 1.381 . S
C712 O725 1.421 . S
O713 Fe704 2.077 . S
O713 C726 1.381 . S
O714 Fe707 1.935 1_565 S
O714 C726 1.421 . S
O715 Fe711 2.077 1_556 S
O715 C731 1.381 . S
O716 Fe706 1.935 1_546 S
O716 C731 1.421 . S
O717 Fe706 2.077 1_556 S
O717 C721 1.381 . S
O718 Fe704 1.935 . S
O718 C721 1.421 . S
O719 Fe707 2.077 . S
O719 C727 1.381 . S
O720 Fe711 1.935 1_556 S
O720 C727 1.421 . S
C721 O717 1.381 . S
C721 O718 1.421 . S
O722 Fe711 2.077 . S
O722 C734 1.381 . S
O723 Fe706 1.935 1_545 S
O723 C734 1.421 . S
O724 Fe704 2.077 1_554 S
O724 C712 1.381 . S
O725 Fe707 1.935 1_564 S
O725 C712 1.421 . S
C726 O713 1.381 . S
C726 O714 1.421 . S
C727 O719 1.381 . S
C727 O720 1.421 . S
C728 O729 1.381 . S
C728 O730 1.421 . S
O729 Fe707 2.077 1_554 S
O729 C728 1.381 . S
O730 Fe711 1.935 . S
O730 C728 1.421 . S
C731 O715 1.381 . S
C731 O716 1.421 . S
O732 Fe706 2.077 . S
O732 C735 1.381 . S
O733 Fe704 1.935 1_554 S
O733 C735 1.421 . S
C734 O722 1.381 . S
C734 O723 1.421 . S
C735 O732 1.381 . S
C735 O733 1.421 . S
Fe736 O737 1.886 1_455 S
Fe736 O740 1.714 . S
Fe736 O745 2.077 1_454 S
Fe736 O750 1.935 1_554 S
Fe736 O756 2.077 1_455 S
Fe736 O765 1.935 . S
O737 Fe736 1.886 1_655 S
O737 Fe739 1.715 . S
Fe738 O740 1.886 1_556 S
Fe738 O741 1.715 . S
Fe738 O748 1.935 . S
Fe738 O749 2.077 . S
Fe738 O755 1.935 1_556 S
Fe738 O764 2.077 1_556 S
Fe739 O737 1.715 . S
Fe739 O742 1.886 1_554 S
Fe739 O746 1.935 1_554 S
Fe739 O751 2.077 1_554 S
Fe739 O757 1.935 . S
Fe739 O761 2.077 . S
O740 Fe736 1.714 . S
O740 Fe738 1.886 1_554 S
O741 Fe738 1.715 . S
O741 Fe743 1.886 1_455 S
O742 Fe739 1.886 1_556 S
O742 Fe743 1.715 . S
Fe743 O741 1.886 1_655 S
Fe743 O742 1.715 . S
Fe743 O747 2.077 1_655 S
Fe743 O752 1.935 . S
Fe743 O754 2.077 1_656 S
Fe743 O762 1.935 1_556 S
C744 O756 1.381 . S
C744 O757 1.421 . S
O745 Fe736 2.077 1_656 S
O745 C758 1.381 . S
O746 Fe739 1.935 1_556 S
O746 C758 1.421 . S
O747 Fe743 2.077 1_455 S
O747 C763 1.381 . S
O748 Fe738 1.935 . S
O748 C763 1.421 . S
O749 Fe738 2.077 . S
O749 C753 1.381 . S
O750 Fe736 1.935 1_556 S
O750 C753 1.421 . S
O751 Fe739 2.077 1_556 S
O751 C759 1.381 . S
O752 Fe743 1.935 . S
O752 C759 1.421 . S
C753 O749 1.381 . S
C753 O750 1.421 . S
O754 Fe743 2.077 1_454 S
O754 C766 1.381 . S
O755 Fe738 1.935 1_554 S
O755 C766 1.421 . S
O756 Fe736 2.077 1_655 S
O756 C744 1.381 . S
O757 Fe739 1.935 . S
O757 C744 1.421 . S
C758 O745 1.381 . S
C758 O746 1.421 . S
C759 O751 1.381 . S
C759 O752 1.421 . S
C760 O761 1.381 . S
C760 O762 1.421 . S
O761 Fe739 2.077 . S
O761 C760 1.381 . S
O762 Fe743 1.935 1_554 S
O762 C760 1.421 . S
C763 O747 1.381 . S
C763 O748 1.421 . S
O764 Fe738 2.077 1_554 S
O764 C767 1.381 . S
O765 Fe736 1.935 . S
O765 C767 1.421 . S
C766 O754 1.381 . S
C766 O755 1.421 . S
C767 O764 1.381 . S
C767 O765 1.421 . S
Fe768 O769 1.886 . S
Fe768 O772 1.715 . S
Fe768 O777 2.077 . S
Fe768 O782 1.935 . S
Fe768 O788 2.077 . S
Fe768 O797 1.935 . S
O769 Fe768 1.886 . S
O769 Fe771 1.715 . S
Fe770 O772 1.886 1_554 S
Fe770 O773 1.715 . S
Fe770 O780 1.935 . S
Fe770 O781 2.077 1_554 S
Fe770 O787 1.935 . S
Fe770 O796 2.077 1_554 S
Fe771 O769 1.715 . S
Fe771 O774 1.886 1_556 S
Fe771 O778 1.935 . S
Fe771 O783 2.077 1_556 S
Fe771 O789 1.935 . S
Fe771 O793 2.077 1_556 S
O772 Fe768 1.715 . S
O772 Fe770 1.886 1_556 S
O773 Fe770 1.715 . S
O773 Fe775 1.886 . S
O774 Fe771 1.886 1_554 S
O774 Fe775 1.715 . S
Fe775 O773 1.886 . S
Fe775 O774 1.715 . S
Fe775 O779 2.077 . S
Fe775 O784 1.935 . S
Fe775 O786 2.077 . S
Fe775 O794 1.935 . S
C776 O788 1.381 . S
C776 O789 1.421 . S
O777 Fe768 2.077 . S
O777 C790 1.381 . S
O778 Fe771 1.935 . S
O778 C790 1.421 . S
O779 Fe775 2.077 . S
O779 C795 1.381 . S
O780 Fe770 1.935 . S
O780 C795 1.421 . S
O781 Fe770 2.077 1_556 S
O781 C785 1.381 . S
O782 Fe768 1.935 . S
O782 C785 1.421 . S
O783 Fe771 2.077 1_554 S
O783 C791 1.381 . S
O784 Fe775 1.935 . S
O784 C791 1.421 . S
C785 O781 1.381 . S
C785 O782 1.421 . S
O786 Fe775 2.077 . S
O786 C798 1.381 . S
O787 Fe770 1.935 . S
O787 C798 1.421 . S
O788 Fe768 2.077 . S
O788 C776 1.381 . S
O789 Fe771 1.935 . S
O789 C776 1.421 . S
C790 O777 1.381 . S
C790 O778 1.421 . S
C791 O783 1.381 . S
C791 O784 1.421 . S
C792 O793 1.381 . S
C792 O794 1.421 . S
O793 Fe771 2.077 1_554 S
O793 C792 1.381 . S
O794 Fe775 1.935 . S
O794 C792 1.421 . S
C795 O779 1.381 . S
C795 O780 1.421 . S
O796 Fe770 2.077 1_556 S
O796 C799 1.381 . S
O797 Fe768 1.935 . S
O797 C799 1.421 . S
C798 O786 1.381 . S
C798 O787 1.421 . S
C799 O796 1.381 . S
C799 O797 1.421 . S
Fe800 O801 1.886 . S
Fe800 O804 1.715 . S
Fe800 O809 2.077 1_655 S
Fe800 O814 1.935 1_655 S
Fe800 O820 2.077 . S
Fe800 O829 1.935 . S
O801 Fe800 1.886 . S
O801 Fe803 1.715 . S
Fe802 O804 1.886 1_455 S
Fe802 O805 1.715 . S
Fe802 O812 1.935 . S
Fe802 O813 2.077 . S
Fe802 O819 1.935 1_455 S
Fe802 O828 2.077 1_455 S
Fe803 O801 1.715 . S
Fe803 O806 1.886 1_655 S
Fe803 O810 1.935 1_655 S
Fe803 O815 2.077 1_655 S
Fe803 O821 1.935 . S
Fe803 O825 2.077 . S
O804 Fe800 1.715 . S
O804 Fe802 1.886 1_655 S
O805 Fe802 1.715 . S
O805 Fe807 1.886 . S
O806 Fe803 1.886 1_455 S
O806 Fe807 1.715 . S
Fe807 O805 1.886 . S
Fe807 O806 1.715 . S
Fe807 O811 2.077 . S
Fe807 O816 1.935 . S
Fe807 O818 2.077 1_455 S
Fe807 O826 1.935 1_455 S
C808 O820 1.381 . S
C808 O821 1.421 . S
O809 Fe800 2.077 1_455 S
O809 C822 1.381 . S
O810 Fe803 1.935 1_455 S
O810 C822 1.421 . S
O811 Fe807 2.077 . S
O811 C827 1.381 . S
O812 Fe802 1.935 . S
O812 C827 1.421 . S
O813 Fe802 2.077 . S
O813 C817 1.381 . S
O814 Fe800 1.935 1_455 S
O814 C817 1.421 . S
O815 Fe803 2.077 1_455 S
O815 C823 1.381 . S
O816 Fe807 1.935 . S
O816 C823 1.421 . S
C817 O813 1.381 . S
C817 O814 1.421 . S
O818 Fe807 2.077 1_655 S
O818 C830 1.381 . S
O819 Fe802 1.935 1_655 S
O819 C830 1.421 . S
O820 Fe800 2.077 . S
O820 C808 1.381 . S
O821 Fe803 1.935 . S
O821 C808 1.421 . S
C822 O809 1.381 . S
C822 O810 1.421 . S
C823 O815 1.381 . S
C823 O816 1.421 . S
C824 O825 1.381 . S
C824 O826 1.421 . S
O825 Fe803 2.077 . S
O825 C824 1.381 . S
O826 Fe807 1.935 1_655 S
O826 C824 1.421 . S
C827 O811 1.381 . S
C827 O812 1.421 . S
O828 Fe802 2.077 1_655 S
O828 C831 1.381 . S
O829 Fe800 1.935 . S
O829 C831 1.421 . S
C830 O818 1.381 . S
C830 O819 1.421 . S
C831 O828 1.381 . S
C831 O829 1.421 . S
Fe832 O833 1.886 . S
Fe832 O836 1.715 . S
Fe832 O841 2.077 . S
Fe832 O846 1.935 . S
Fe832 O852 2.077 . S
Fe832 O861 1.935 . S
O833 Fe832 1.886 . S
O833 Fe835 1.715 1_565 S
Fe834 O836 1.886 . S
Fe834 O837 1.715 1_565 S
Fe834 O844 1.935 1_565 S
Fe834 O845 2.077 . S
Fe834 O851 1.935 1_565 S
Fe834 O860 2.077 . S
Fe835 O833 1.715 1_545 S
Fe835 O838 1.886 . S
Fe835 O842 1.935 1_545 S
Fe835 O847 2.077 . S
Fe835 O853 1.935 1_545 S
Fe835 O857 2.077 . S
O836 Fe832 1.715 . S
O836 Fe834 1.886 . S
O837 Fe834 1.715 1_545 S
O837 Fe839 1.886 . S
O838 Fe835 1.886 . S
O838 Fe839 1.715 . S
Fe839 O837 1.886 . S
Fe839 O838 1.715 . S
Fe839 O843 2.077 . S
Fe839 O848 1.935 . S
Fe839 O850 2.077 . S
Fe839 O858 1.935 . S
C840 O852 1.381 . S
C840 O853 1.421 . S
O841 Fe832 2.077 . S
O841 C854 1.381 . S
O842 Fe835 1.935 1_565 S
O842 C854 1.421 . S
O843 Fe839 2.077 . S
O843 C859 1.381 . S
O844 Fe834 1.935 1_545 S
O844 C859 1.421 . S
O845 Fe834 2.077 . S
O845 C849 1.381 . S
O846 Fe832 1.935 . S
O846 C849 1.421 . S
O847 Fe835 2.077 . S
O847 C855 1.381 . S
O848 Fe839 1.935 . S
O848 C855 1.421 . S
C849 O845 1.381 . S
C849 O846 1.421 . S
O850 Fe839 2.077 . S
O850 C862 1.381 . S
O851 Fe834 1.935 1_545 S
O851 C862 1.421 . S
O852 Fe832 2.077 . S
O852 C840 1.381 . S
O853 Fe835 1.935 1_565 S
O853 C840 1.421 . S
C854 O841 1.381 . S
C854 O842 1.421 . S
C855 O847 1.381 . S
C855 O848 1.421 . S
C856 O857 1.381 . S
C856 O858 1.421 . S
O857 Fe835 2.077 . S
O857 C856 1.381 . S
O858 Fe839 1.935 . S
O858 C856 1.421 . S
C859 O843 1.381 . S
C859 O844 1.421 . S
O860 Fe834 2.077 . S
O860 C863 1.381 . S
O861 Fe832 1.935 . S
O861 C863 1.421 . S
C862 O850 1.381 . S
C862 O851 1.421 . S
C863 O860 1.381 . S
C863 O861 1.421 . S
C864 C865 1.349 . S
C864 C866 1.327 . S
C864 H889 0.950 . S
C865 C864 1.349 . S
C865 C881 1.349 . S
C866 C864 1.327 . S
C866 C885 1.429 . S
C866 H890 0.950 . S
C867 C884 1.574 . S
C867 C886 1.368 . S
C867 H891 0.949 . S
H868 C872 0.949 . S
C869 C870 1.349 . S
C869 C871 1.327 . S
C869 H892 0.950 . S
C870 C869 1.349 . S
C870 C882 1.349 . S
C871 C869 1.327 . S
C871 C887 1.429 . S
C871 H893 0.950 . S
C872 H868 0.949 . S
C872 C880 1.574 . S
C872 C888 1.368 . S
H873 C881 0.950 . S
H874 C879 0.950 . S
H875 C880 0.949 . S
H876 C882 0.950 . S
H877 C883 0.950 . S
H878 C884 0.949 . S
C879 H874 0.950 . S
C879 C881 1.327 . S
C879 C885 1.429 . S
C880 C872 1.574 . S
C880 H875 0.949 . S
C880 C886 1.368 . S
C881 C865 1.349 . S
C881 H873 0.950 . S
C881 C879 1.327 . S
C882 C870 1.349 . S
C882 H876 0.950 . S
C882 C883 1.327 . S
C883 H877 0.950 . S
C883 C882 1.327 . S
C883 C887 1.429 . S
C884 C867 1.574 . S
C884 H878 0.949 . S
C884 C888 1.368 . S
C885 C866 1.429 . S
C885 C879 1.429 . S
C885 C886 1.523 . S
C886 C867 1.368 . S
C886 C880 1.368 . S
C886 C885 1.523 . S
C887 C871 1.429 . S
C887 C883 1.429 . S
C887 C888 1.523 . S
C888 C872 1.368 . S
C888 C884 1.368 . S
C888 C887 1.523 . S
H889 C864 0.950 . S
H890 C866 0.950 . S
H891 C867 0.949 . S
H892 C869 0.950 . S
H893 C871 0.950 . S
C894 C895 1.349 . S
C894 C896 1.327 . S
C894 H919 0.950 . S
C895 C894 1.349 . S
C895 C911 1.349 . S
C896 C894 1.327 . S
C896 C915 1.429 . S
C896 H920 0.950 . S
C897 C914 1.574 . S
C897 C916 1.368 . S
C897 H921 0.949 . S
H898 C902 0.949 . S
C899 C900 1.349 . S
C899 C901 1.327 . S
C899 H922 0.950 . S
C900 C899 1.349 . S
C900 C912 1.349 . S
C901 C899 1.327 . S
C901 C917 1.429 . S
C901 H923 0.950 . S
C902 H898 0.949 . S
C902 C910 1.574 . S
C902 C918 1.368 . S
H903 C911 0.950 . S
H904 C909 0.950 . S
H905 C910 0.949 . S
H906 C912 0.950 . S
H907 C913 0.950 . S
H908 C914 0.949 . S
C909 H904 0.950 . S
C909 C911 1.327 . S
C909 C915 1.429 . S
C910 C902 1.574 . S
C910 H905 0.949 . S
C910 C916 1.368 . S
C911 C895 1.349 . S
C911 H903 0.950 . S
C911 C909 1.327 . S
C912 C900 1.349 . S
C912 H906 0.950 . S
C912 C913 1.327 . S
C913 H907 0.950 . S
C913 C912 1.327 . S
C913 C917 1.429 . S
C914 C897 1.574 . S
C914 H908 0.949 . S
C914 C918 1.368 . S
C915 C896 1.429 . S
C915 C909 1.429 . S
C915 C916 1.523 . S
C916 C897 1.368 . S
C916 C910 1.368 . S
C916 C915 1.523 . S
C917 C901 1.429 . S
C917 C913 1.429 . S
C917 C918 1.523 . S
C918 C902 1.368 . S
C918 C914 1.368 . S
C918 C917 1.523 . S
H919 C894 0.950 . S
H920 C896 0.950 . S
H921 C897 0.949 . S
H922 C899 0.950 . S
H923 C901 0.950 . S
C924 C925 1.349 . S
C924 C926 1.327 . S
C924 H949 0.950 . S
C925 C924 1.349 . S
C925 C941 1.349 . S
C926 C924 1.327 . S
C926 C945 1.429 . S
C926 H950 0.950 . S
C927 C944 1.574 . S
C927 C946 1.368 . S
C927 H951 0.949 . S
H928 C932 0.949 . S
C929 C930 1.349 . S
C929 C931 1.327 . S
C929 H952 0.950 . S
C930 C929 1.349 . S
C930 C942 1.349 . S
C931 C929 1.327 . S
C931 C947 1.429 . S
C931 H953 0.950 . S
C932 H928 0.949 . S
C932 C940 1.574 . S
C932 C948 1.368 . S
H933 C941 0.950 . S
H934 C939 0.950 . S
H935 C940 0.949 . S
H936 C942 0.950 . S
H937 C943 0.950 . S
H938 C944 0.949 . S
C939 H934 0.950 . S
C939 C941 1.327 . S
C939 C945 1.429 . S
C940 C932 1.574 . S
C940 H935 0.949 . S
C940 C946 1.368 . S
C941 C925 1.349 . S
C941 H933 0.950 . S
C941 C939 1.327 . S
C942 C930 1.349 . S
C942 H936 0.950 . S
C942 C943 1.327 . S
C943 H937 0.950 . S
C943 C942 1.327 . S
C943 C947 1.429 . S
C944 C927 1.574 . S
C944 H938 0.949 . S
C944 C948 1.368 . S
C945 C926 1.429 . S
C945 C939 1.429 . S
C945 C946 1.523 . S
C946 C927 1.368 . S
C946 C940 1.368 . S
C946 C945 1.523 . S
C947 C931 1.429 . S
C947 C943 1.429 . S
C947 C948 1.523 . S
C948 C932 1.368 . S
C948 C944 1.368 . S
C948 C947 1.523 . S
H949 C924 0.950 . S
H950 C926 0.950 . S
H951 C927 0.949 . S
H952 C929 0.950 . S
H953 C931 0.950 . S
C954 C955 1.349 . S
C954 C956 1.327 . S
C954 H979 0.950 . S
C955 C954 1.349 . S
C955 C971 1.349 . S
C956 C954 1.327 . S
C956 C975 1.429 . S
C956 H980 0.950 . S
C957 C974 1.574 . S
C957 C976 1.368 . S
C957 H981 0.949 . S
H958 C962 0.949 . S
C959 C960 1.349 . S
C959 C961 1.327 . S
C959 H982 0.950 . S
C960 C959 1.349 . S
C960 C972 1.349 . S
C961 C959 1.327 . S
C961 C977 1.429 . S
C961 H983 0.950 . S
C962 H958 0.949 . S
C962 C970 1.574 . S
C962 C978 1.368 . S
H963 C971 0.950 . S
H964 C969 0.950 . S
H965 C970 0.949 . S
H966 C972 0.950 . S
H967 C973 0.950 . S
H968 C974 0.949 . S
C969 H964 0.950 . S
C969 C971 1.327 . S
C969 C975 1.429 . S
C970 C962 1.574 . S
C970 H965 0.949 . S
C970 C976 1.368 . S
C971 C955 1.349 . S
C971 H963 0.950 . S
C971 C969 1.327 . S
C972 C960 1.349 . S
C972 H966 0.950 . S
C972 C973 1.327 . S
C973 H967 0.950 . S
C973 C972 1.327 . S
C973 C977 1.429 . S
C974 C957 1.574 . S
C974 H968 0.949 . S
C974 C978 1.368 . S
C975 C956 1.429 . S
C975 C969 1.429 . S
C975 C976 1.523 . S
C976 C957 1.368 . S
C976 C970 1.368 . S
C976 C975 1.523 . S
C977 C961 1.429 . S
C977 C973 1.429 . S
C977 C978 1.523 . S
C978 C962 1.368 . S
C978 C974 1.368 . S
C978 C977 1.523 . S
H979 C954 0.950 . S
H980 C956 0.950 . S
H981 C957 0.949 . S
H982 C959 0.950 . S
H983 C961 0.950 . S
C984 C985 1.349 . S
C984 C986 1.327 . S
C984 H1009 0.950 . S
C985 C984 1.349 . S
C985 C1001 1.349 . S
C986 C984 1.327 . S
C986 C1005 1.429 . S
C986 H1010 0.950 . S
C987 C1004 1.574 . S
C987 C1006 1.368 . S
C987 H1011 0.949 . S
H988 C992 0.949 . S
C989 C990 1.349 . S
C989 C991 1.327 . S
C989 H1012 0.950 . S
C990 C989 1.349 . S
C990 C1002 1.349 . S
C991 C989 1.327 . S
C991 C1007 1.429 . S
C991 H1013 0.950 . S
C992 H988 0.949 . S
C992 C1000 1.574 . S
C992 C1008 1.368 . S
H993 C1001 0.950 . S
H994 C999 0.950 . S
H995 C1000 0.949 . S
H996 C1002 0.950 . S
H997 C1003 0.950 . S
H998 C1004 0.949 . S
C999 H994 0.950 . S
C999 C1001 1.327 . S
C999 C1005 1.429 . S
C1000 C992 1.574 . S
C1000 H995 0.949 . S
C1000 C1006 1.368 . S
C1001 C985 1.349 . S
C1001 H993 0.950 . S
C1001 C999 1.327 . S
C1002 C990 1.349 . S
C1002 H996 0.950 . S
C1002 C1003 1.327 . S
C1003 H997 0.950 . S
C1003 C1002 1.327 . S
C1003 C1007 1.429 . S
C1004 C987 1.574 . S
C1004 H998 0.949 . S
C1004 C1008 1.368 . S
C1005 C986 1.429 . S
C1005 C999 1.429 . S
C1005 C1006 1.523 . S
C1006 C987 1.368 . S
C1006 C1000 1.368 . S
C1006 C1005 1.523 . S
C1007 C991 1.429 . S
C1007 C1003 1.429 . S
C1007 C1008 1.523 . S
C1008 C992 1.368 . S
C1008 C1004 1.368 . S
C1008 C1007 1.523 . S
H1009 C984 0.950 . S
H1010 C986 0.950 . S
H1011 C987 0.949 . S
H1012 C989 0.950 . S
H1013 C991 0.950 . S
C1014 C1015 1.349 . S
C1014 C1016 1.327 . S
C1014 H1039 0.950 . S
C1015 C1014 1.349 . S
C1015 C1031 1.349 . S
C1016 C1014 1.327 . S
C1016 C1035 1.429 . S
C1016 H1040 0.950 . S
C1017 C1034 1.574 . S
C1017 C1036 1.368 . S
C1017 H1041 0.949 . S
H1018 C1022 0.949 . S
C1019 C1020 1.349 . S
C1019 C1021 1.327 . S
C1019 H1042 0.950 . S
C1020 C1019 1.349 . S
C1020 C1032 1.349 . S
C1021 C1019 1.327 . S
C1021 C1037 1.429 . S
C1021 H1043 0.950 . S
C1022 H1018 0.949 . S
C1022 C1030 1.574 . S
C1022 C1038 1.368 . S
H1023 C1031 0.950 . S
H1024 C1029 0.950 . S
H1025 C1030 0.949 . S
H1026 C1032 0.950 . S
H1027 C1033 0.950 . S
H1028 C1034 0.949 . S
C1029 H1024 0.950 . S
C1029 C1031 1.327 . S
C1029 C1035 1.429 . S
C1030 C1022 1.574 . S
C1030 H1025 0.949 . S
C1030 C1036 1.368 . S
C1031 C1015 1.349 . S
C1031 H1023 0.950 . S
C1031 C1029 1.327 . S
C1032 C1020 1.349 . S
C1032 H1026 0.950 . S
C1032 C1033 1.327 . S
C1033 H1027 0.950 . S
C1033 C1032 1.327 . S
C1033 C1037 1.429 . S
C1034 C1017 1.574 . S
C1034 H1028 0.949 . S
C1034 C1038 1.368 . S
C1035 C1016 1.429 . S
C1035 C1029 1.429 . S
C1035 C1036 1.523 . S
C1036 C1017 1.368 . S
C1036 C1030 1.368 . S
C1036 C1035 1.523 . S
C1037 C1021 1.429 . S
C1037 C1033 1.429 . S
C1037 C1038 1.523 . S
C1038 C1022 1.368 . S
C1038 C1034 1.368 . S
C1038 C1037 1.523 . S
H1039 C1014 0.950 . S
H1040 C1016 0.950 . S
H1041 C1017 0.949 . S
H1042 C1019 0.950 . S
H1043 C1021 0.950 . S
C1044 C1045 1.349 . S
C1044 C1046 1.327 . S
C1044 H1069 0.950 . S
C1045 C1044 1.349 . S
C1045 C1061 1.349 . S
C1046 C1044 1.327 . S
C1046 C1065 1.429 . S
C1046 H1070 0.950 . S
C1047 C1064 1.574 . S
C1047 C1066 1.368 . S
C1047 H1071 0.949 . S
H1048 C1052 0.949 . S
C1049 C1050 1.349 . S
C1049 C1051 1.327 . S
C1049 H1072 0.950 . S
C1050 C1049 1.349 . S
C1050 C1062 1.349 . S
C1051 C1049 1.327 . S
C1051 C1067 1.429 . S
C1051 H1073 0.950 . S
C1052 H1048 0.949 . S
C1052 C1060 1.574 . S
C1052 C1068 1.368 . S
H1053 C1061 0.950 . S
H1054 C1059 0.950 . S
H1055 C1060 0.949 . S
H1056 C1062 0.950 . S
H1057 C1063 0.950 . S
H1058 C1064 0.949 . S
C1059 H1054 0.950 . S
C1059 C1061 1.327 . S
C1059 C1065 1.429 . S
C1060 C1052 1.574 . S
C1060 H1055 0.949 . S
C1060 C1066 1.368 . S
C1061 C1045 1.349 . S
C1061 H1053 0.950 . S
C1061 C1059 1.327 . S
C1062 C1050 1.349 . S
C1062 H1056 0.950 . S
C1062 C1063 1.327 . S
C1063 H1057 0.950 . S
C1063 C1062 1.327 . S
C1063 C1067 1.429 . S
C1064 C1047 1.574 . S
C1064 H1058 0.949 . S
C1064 C1068 1.368 . S
C1065 C1046 1.429 . S
C1065 C1059 1.429 . S
C1065 C1066 1.523 . S
C1066 C1047 1.368 . S
C1066 C1060 1.368 . S
C1066 C1065 1.523 . S
C1067 C1051 1.429 . S
C1067 C1063 1.429 . S
C1067 C1068 1.523 . S
C1068 C1052 1.368 . S
C1068 C1064 1.368 . S
C1068 C1067 1.523 . S
H1069 C1044 0.950 . S
H1070 C1046 0.950 . S
H1071 C1047 0.949 . S
H1072 C1049 0.950 . S
H1073 C1051 0.950 . S
C1074 C1075 1.349 . S
C1074 C1076 1.327 . S
C1074 H1099 0.950 . S
C1075 C1074 1.349 . S
C1075 C1091 1.349 . S
C1076 C1074 1.327 . S
C1076 C1095 1.429 . S
C1076 H1100 0.950 . S
C1077 C1094 1.574 . S
C1077 C1096 1.368 . S
C1077 H1101 0.949 . S
H1078 C1082 0.949 . S
C1079 C1080 1.349 . S
C1079 C1081 1.327 . S
C1079 H1102 0.950 . S
C1080 C1079 1.349 . S
C1080 C1092 1.349 . S
C1081 C1079 1.327 . S
C1081 C1097 1.429 . S
C1081 H1103 0.950 . S
C1082 H1078 0.949 . S
C1082 C1090 1.574 . S
C1082 C1098 1.368 . S
H1083 C1091 0.950 . S
H1084 C1089 0.950 . S
H1085 C1090 0.949 . S
H1086 C1092 0.950 . S
H1087 C1093 0.950 . S
H1088 C1094 0.949 . S
C1089 H1084 0.950 . S
C1089 C1091 1.327 . S
C1089 C1095 1.429 . S
C1090 C1082 1.574 . S
C1090 H1085 0.949 . S
C1090 C1096 1.368 . S
C1091 C1075 1.349 . S
C1091 H1083 0.950 . S
C1091 C1089 1.327 . S
C1092 C1080 1.349 . S
C1092 H1086 0.950 . S
C1092 C1093 1.327 . S
C1093 H1087 0.950 . S
C1093 C1092 1.327 . S
C1093 C1097 1.429 . S
C1094 C1077 1.574 . S
C1094 H1088 0.949 . S
C1094 C1098 1.368 . S
C1095 C1076 1.429 . S
C1095 C1089 1.429 . S
C1095 C1096 1.523 . S
C1096 C1077 1.368 . S
C1096 C1090 1.368 . S
C1096 C1095 1.523 . S
C1097 C1081 1.429 . S
C1097 C1093 1.429 . S
C1097 C1098 1.523 . S
C1098 C1082 1.368 . S
C1098 C1094 1.368 . S
C1098 C1097 1.523 . S
H1099 C1074 0.950 . S
H1100 C1076 0.950 . S
H1101 C1077 0.949 . S
H1102 C1079 0.950 . S
H1103 C1081 0.950 . S
C1104 C1105 1.349 . S
C1104 C1106 1.327 . S
C1104 H1129 0.950 . S
C1105 C1104 1.349 . S
C1105 C1121 1.349 . S
C1106 C1104 1.327 . S
C1106 C1125 1.429 . S
C1106 H1130 0.950 . S
C1107 C1124 1.574 . S
C1107 C1126 1.368 . S
C1107 H1131 0.949 . S
H1108 C1112 0.949 . S
C1109 C1110 1.349 . S
C1109 C1111 1.327 . S
C1109 H1132 0.950 . S
C1110 C1109 1.349 . S
C1110 C1122 1.349 . S
C1111 C1109 1.327 . S
C1111 C1127 1.429 . S
C1111 H1133 0.950 . S
C1112 H1108 0.949 . S
C1112 C1120 1.574 . S
C1112 C1128 1.368 . S
H1113 C1121 0.950 . S
H1114 C1119 0.950 . S
H1115 C1120 0.949 . S
H1116 C1122 0.950 . S
H1117 C1123 0.950 . S
H1118 C1124 0.949 . S
C1119 H1114 0.950 . S
C1119 C1121 1.327 . S
C1119 C1125 1.429 . S
C1120 C1112 1.574 . S
C1120 H1115 0.949 . S
C1120 C1126 1.368 . S
C1121 C1105 1.349 . S
C1121 H1113 0.950 . S
C1121 C1119 1.327 . S
C1122 C1110 1.349 . S
C1122 H1116 0.950 . S
C1122 C1123 1.327 . S
C1123 H1117 0.950 . S
C1123 C1122 1.327 . S
C1123 C1127 1.429 . S
C1124 C1107 1.574 . S
C1124 H1118 0.949 . S
C1124 C1128 1.368 . S
C1125 C1106 1.429 . S
C1125 C1119 1.429 . S
C1125 C1126 1.523 . S
C1126 C1107 1.368 . S
C1126 C1120 1.368 . S
C1126 C1125 1.523 . S
C1127 C1111 1.429 . S
C1127 C1123 1.429 . S
C1127 C1128 1.523 . S
C1128 C1112 1.368 . S
C1128 C1124 1.368 . S
C1128 C1127 1.523 . S
H1129 C1104 0.950 . S
H1130 C1106 0.950 . S
H1131 C1107 0.949 . S
H1132 C1109 0.950 . S
H1133 C1111 0.950 . S
C1134 C1135 1.349 . S
C1134 C1136 1.327 . S
C1134 H1159 0.950 . S
C1135 C1134 1.349 . S
C1135 C1151 1.349 . S
C1136 C1134 1.327 . S
C1136 C1155 1.429 . S
C1136 H1160 0.950 . S
C1137 C1154 1.574 . S
C1137 C1156 1.368 . S
C1137 H1161 0.949 . S
H1138 C1142 0.949 . S
C1139 C1140 1.349 . S
C1139 C1141 1.327 . S
C1139 H1162 0.950 . S
C1140 C1139 1.349 . S
C1140 C1152 1.349 . S
C1141 C1139 1.327 . S
C1141 C1157 1.429 . S
C1141 H1163 0.950 . S
C1142 H1138 0.949 . S
C1142 C1150 1.574 . S
C1142 C1158 1.368 . S
H1143 C1151 0.950 . S
H1144 C1149 0.950 . S
H1145 C1150 0.949 . S
H1146 C1152 0.950 . S
H1147 C1153 0.950 . S
H1148 C1154 0.949 . S
C1149 H1144 0.950 . S
C1149 C1151 1.327 . S
C1149 C1155 1.429 . S
C1150 C1142 1.574 . S
C1150 H1145 0.949 . S
C1150 C1156 1.368 . S
C1151 C1135 1.349 . S
C1151 H1143 0.950 . S
C1151 C1149 1.327 . S
C1152 C1140 1.349 . S
C1152 H1146 0.950 . S
C1152 C1153 1.327 . S
C1153 H1147 0.950 . S
C1153 C1152 1.327 . S
C1153 C1157 1.429 . S
C1154 C1137 1.574 . S
C1154 H1148 0.949 . S
C1154 C1158 1.368 . S
C1155 C1136 1.429 . S
C1155 C1149 1.429 . S
C1155 C1156 1.523 . S
C1156 C1137 1.368 . S
C1156 C1150 1.368 . S
C1156 C1155 1.523 . S
C1157 C1141 1.429 . S
C1157 C1153 1.429 . S
C1157 C1158 1.523 . S
C1158 C1142 1.368 . S
C1158 C1154 1.368 . S
C1158 C1157 1.523 . S
H1159 C1134 0.950 . S
H1160 C1136 0.950 . S
H1161 C1137 0.949 . S
H1162 C1139 0.950 . S
H1163 C1141 0.950 . S
C1164 C1165 1.349 . S
C1164 C1166 1.327 . S
C1164 H1189 0.950 . S
C1165 C1164 1.349 . S
C1165 C1181 1.349 . S
C1166 C1164 1.327 . S
C1166 C1185 1.429 . S
C1166 H1190 0.950 . S
C1167 C1184 1.574 . S
C1167 C1186 1.368 . S
C1167 H1191 0.949 . S
H1168 C1172 0.949 . S
C1169 C1170 1.349 . S
C1169 C1171 1.327 . S
C1169 H1192 0.950 . S
C1170 C1169 1.349 . S
C1170 C1182 1.349 . S
C1171 C1169 1.327 . S
C1171 C1187 1.429 . S
C1171 H1193 0.950 . S
C1172 H1168 0.949 . S
C1172 C1180 1.574 . S
C1172 C1188 1.368 . S
H1173 C1181 0.950 . S
H1174 C1179 0.950 . S
H1175 C1180 0.949 . S
H1176 C1182 0.950 . S
H1177 C1183 0.950 . S
H1178 C1184 0.949 . S
C1179 H1174 0.950 . S
C1179 C1181 1.327 . S
C1179 C1185 1.429 . S
C1180 C1172 1.574 . S
C1180 H1175 0.949 . S
C1180 C1186 1.368 . S
C1181 C1165 1.349 . S
C1181 H1173 0.950 . S
C1181 C1179 1.327 . S
C1182 C1170 1.349 . S
C1182 H1176 0.950 . S
C1182 C1183 1.327 . S
C1183 H1177 0.950 . S
C1183 C1182 1.327 . S
C1183 C1187 1.429 . S
C1184 C1167 1.574 . S
C1184 H1178 0.949 . S
C1184 C1188 1.368 . S
C1185 C1166 1.429 . S
C1185 C1179 1.429 . S
C1185 C1186 1.523 . S
C1186 C1167 1.368 . S
C1186 C1180 1.368 . S
C1186 C1185 1.523 . S
C1187 C1171 1.429 . S
C1187 C1183 1.429 . S
C1187 C1188 1.523 . S
C1188 C1172 1.368 . S
C1188 C1184 1.368 . S
C1188 C1187 1.523 . S
H1189 C1164 0.950 . S
H1190 C1166 0.950 . S
H1191 C1167 0.949 . S
H1192 C1169 0.950 . S
H1193 C1171 0.950 . S
C1194 C1195 1.349 . S
C1194 C1196 1.327 . S
C1194 H1219 0.950 . S
C1195 C1194 1.349 . S
C1195 C1211 1.349 . S
C1196 C1194 1.327 . S
C1196 C1215 1.429 . S
C1196 H1220 0.950 . S
C1197 C1214 1.574 . S
C1197 C1216 1.368 . S
C1197 H1221 0.949 . S
H1198 C1202 0.949 . S
C1199 C1200 1.349 . S
C1199 C1201 1.327 . S
C1199 H1222 0.950 . S
C1200 C1199 1.349 . S
C1200 C1212 1.349 . S
C1201 C1199 1.327 . S
C1201 C1217 1.429 . S
C1201 H1223 0.950 . S
C1202 H1198 0.949 . S
C1202 C1210 1.574 . S
C1202 C1218 1.368 . S
H1203 C1211 0.950 . S
H1204 C1209 0.950 . S
H1205 C1210 0.949 . S
H1206 C1212 0.950 . S
H1207 C1213 0.950 . S
H1208 C1214 0.949 . S
C1209 H1204 0.950 . S
C1209 C1211 1.327 . S
C1209 C1215 1.429 . S
C1210 C1202 1.574 . S
C1210 H1205 0.949 . S
C1210 C1216 1.368 . S
C1211 C1195 1.349 . S
C1211 H1203 0.950 . S
C1211 C1209 1.327 . S
C1212 C1200 1.349 . S
C1212 H1206 0.950 . S
C1212 C1213 1.327 . S
C1213 H1207 0.950 . S
C1213 C1212 1.327 . S
C1213 C1217 1.429 . S
C1214 C1197 1.574 . S
C1214 H1208 0.949 . S
C1214 C1218 1.368 . S
C1215 C1196 1.429 . S
C1215 C1209 1.429 . S
C1215 C1216 1.523 . S
C1216 C1197 1.368 . S
C1216 C1210 1.368 . S
C1216 C1215 1.523 . S
C1217 C1201 1.429 . S
C1217 C1213 1.429 . S
C1217 C1218 1.523 . S
C1218 C1202 1.368 . S
C1218 C1214 1.368 . S
C1218 C1217 1.523 . S
H1219 C1194 0.950 . S
H1220 C1196 0.950 . S
H1221 C1197 0.949 . S
H1222 C1199 0.950 . S
H1223 C1201 0.950 . S
C1224 C1225 1.349 . S
C1224 C1226 1.327 . S
C1224 H1249 0.950 . S
C1225 C1224 1.349 . S
C1225 C1241 1.349 . S
C1226 C1224 1.327 . S
C1226 C1245 1.429 . S
C1226 H1250 0.950 . S
C1227 C1244 1.574 . S
C1227 C1246 1.368 . S
C1227 H1251 0.949 . S
H1228 C1232 0.949 . S
C1229 C1230 1.349 . S
C1229 C1231 1.327 . S
C1229 H1252 0.950 . S
C1230 C1229 1.349 . S
C1230 C1242 1.349 . S
C1231 C1229 1.327 . S
C1231 C1247 1.429 . S
C1231 H1253 0.950 . S
C1232 H1228 0.949 . S
C1232 C1240 1.574 . S
C1232 C1248 1.368 . S
H1233 C1241 0.950 . S
H1234 C1239 0.950 . S
H1235 C1240 0.949 . S
H1236 C1242 0.950 . S
H1237 C1243 0.950 . S
H1238 C1244 0.949 . S
C1239 H1234 0.950 . S
C1239 C1241 1.327 . S
C1239 C1245 1.429 . S
C1240 C1232 1.574 . S
C1240 H1235 0.949 . S
C1240 C1246 1.368 . S
C1241 C1225 1.349 . S
C1241 H1233 0.950 . S
C1241 C1239 1.327 . S
C1242 C1230 1.349 . S
C1242 H1236 0.950 . S
C1242 C1243 1.327 . S
C1243 H1237 0.950 . S
C1243 C1242 1.327 . S
C1243 C1247 1.429 . S
C1244 C1227 1.574 . S
C1244 H1238 0.949 . S
C1244 C1248 1.368 . S
C1245 C1226 1.429 . S
C1245 C1239 1.429 . S
C1245 C1246 1.523 . S
C1246 C1227 1.368 . S
C1246 C1240 1.368 . S
C1246 C1245 1.523 . S
C1247 C1231 1.429 . S
C1247 C1243 1.429 . S
C1247 C1248 1.523 . S
C1248 C1232 1.368 . S
C1248 C1244 1.368 . S
C1248 C1247 1.523 . S
H1249 C1224 0.950 . S
H1250 C1226 0.950 . S
H1251 C1227 0.949 . S
H1252 C1229 0.950 . S
H1253 C1231 0.950 . S
C1254 C1255 1.349 . S
C1254 C1256 1.327 . S
C1254 H1279 0.950 . S
C1255 C1254 1.349 . S
C1255 C1271 1.349 . S
C1256 C1254 1.327 . S
C1256 C1275 1.429 . S
C1256 H1280 0.950 . S
C1257 C1274 1.574 . S
C1257 C1276 1.368 . S
C1257 H1281 0.949 . S
H1258 C1262 0.949 . S
C1259 C1260 1.349 . S
C1259 C1261 1.327 . S
C1259 H1282 0.950 . S
C1260 C1259 1.349 . S
C1260 C1272 1.349 . S
C1261 C1259 1.327 . S
C1261 C1277 1.429 . S
C1261 H1283 0.950 . S
C1262 H1258 0.949 . S
C1262 C1270 1.574 . S
C1262 C1278 1.368 . S
H1263 C1271 0.950 . S
H1264 C1269 0.950 . S
H1265 C1270 0.949 . S
H1266 C1272 0.950 . S
H1267 C1273 0.950 . S
H1268 C1274 0.949 . S
C1269 H1264 0.950 . S
C1269 C1271 1.327 . S
C1269 C1275 1.429 . S
C1270 C1262 1.574 . S
C1270 H1265 0.949 . S
C1270 C1276 1.368 . S
C1271 C1255 1.349 . S
C1271 H1263 0.950 . S
C1271 C1269 1.327 . S
C1272 C1260 1.349 . S
C1272 H1266 0.950 . S
C1272 C1273 1.327 . S
C1273 H1267 0.950 . S
C1273 C1272 1.327 . S
C1273 C1277 1.429 . S
C1274 C1257 1.574 . S
C1274 H1268 0.949 . S
C1274 C1278 1.368 . S
C1275 C1256 1.429 . S
C1275 C1269 1.429 . S
C1275 C1276 1.523 . S
C1276 C1257 1.368 . S
C1276 C1270 1.368 . S
C1276 C1275 1.523 . S
C1277 C1261 1.429 . S
C1277 C1273 1.429 . S
C1277 C1278 1.523 . S
C1278 C1262 1.368 . S
C1278 C1274 1.368 . S
C1278 C1277 1.523 . S
H1279 C1254 0.950 . S
H1280 C1256 0.950 . S
H1281 C1257 0.949 . S
H1282 C1259 0.950 . S
H1283 C1261 0.950 . S
C1284 C1285 1.349 . S
C1284 C1286 1.327 . S
C1284 H1309 0.950 . S
C1285 C1284 1.349 . S
C1285 C1301 1.349 . S
C1286 C1284 1.327 . S
C1286 C1305 1.429 . S
C1286 H1310 0.950 . S
C1287 C1304 1.574 . S
C1287 C1306 1.368 . S
C1287 H1311 0.949 . S
H1288 C1292 0.949 . S
C1289 C1290 1.349 . S
C1289 C1291 1.327 . S
C1289 H1312 0.950 . S
C1290 C1289 1.349 . S
C1290 C1302 1.349 . S
C1291 C1289 1.327 . S
C1291 C1307 1.429 . S
C1291 H1313 0.950 . S
C1292 H1288 0.949 . S
C1292 C1300 1.574 . S
C1292 C1308 1.368 . S
H1293 C1301 0.950 . S
H1294 C1299 0.950 . S
H1295 C1300 0.949 . S
H1296 C1302 0.950 . S
H1297 C1303 0.950 . S
H1298 C1304 0.949 . S
C1299 H1294 0.950 . S
C1299 C1301 1.327 . S
C1299 C1305 1.429 . S
C1300 C1292 1.574 . S
C1300 H1295 0.949 . S
C1300 C1306 1.368 . S
C1301 C1285 1.349 . S
C1301 H1293 0.950 . S
C1301 C1299 1.327 . S
C1302 C1290 1.349 . S
C1302 H1296 0.950 . S
C1302 C1303 1.327 . S
C1303 H1297 0.950 . S
C1303 C1302 1.327 . S
C1303 C1307 1.429 . S
C1304 C1287 1.574 . S
C1304 H1298 0.949 . S
C1304 C1308 1.368 . S
C1305 C1286 1.429 . S
C1305 C1299 1.429 . S
C1305 C1306 1.523 . S
C1306 C1287 1.368 . S
C1306 C1300 1.368 . S
C1306 C1305 1.523 . S
C1307 C1291 1.429 . S
C1307 C1303 1.429 . S
C1307 C1308 1.523 . S
C1308 C1292 1.368 . S
C1308 C1304 1.368 . S
C1308 C1307 1.523 . S
H1309 C1284 0.950 . S
H1310 C1286 0.950 . S
H1311 C1287 0.949 . S
H1312 C1289 0.950 . S
H1313 C1291 0.950 . S
C1314 C1315 1.349 . S
C1314 C1316 1.327 . S
C1314 H1339 0.950 . S
C1315 C1314 1.349 . S
C1315 C1331 1.349 . S
C1316 C1314 1.327 . S
C1316 C1335 1.429 . S
C1316 H1340 0.950 . S
C1317 C1334 1.574 . S
C1317 C1336 1.368 . S
C1317 H1341 0.949 . S
H1318 C1322 0.949 . S
C1319 C1320 1.349 . S
C1319 C1321 1.327 . S
C1319 H1342 0.950 . S
C1320 C1319 1.349 . S
C1320 C1332 1.349 . S
C1321 C1319 1.327 . S
C1321 C1337 1.429 . S
C1321 H1343 0.950 . S
C1322 H1318 0.949 . S
C1322 C1330 1.574 . S
C1322 C1338 1.368 . S
H1323 C1331 0.950 . S
H1324 C1329 0.950 . S
H1325 C1330 0.949 . S
H1326 C1332 0.950 . S
H1327 C1333 0.950 . S
H1328 C1334 0.949 . S
C1329 H1324 0.950 . S
C1329 C1331 1.327 . S
C1329 C1335 1.429 . S
C1330 C1322 1.574 . S
C1330 H1325 0.949 . S
C1330 C1336 1.368 . S
C1331 C1315 1.349 . S
C1331 H1323 0.950 . S
C1331 C1329 1.327 . S
C1332 C1320 1.349 . S
C1332 H1326 0.950 . S
C1332 C1333 1.327 . S
C1333 H1327 0.950 . S
C1333 C1332 1.327 . S
C1333 C1337 1.429 . S
C1334 C1317 1.574 . S
C1334 H1328 0.949 . S
C1334 C1338 1.368 . S
C1335 C1316 1.429 . S
C1335 C1329 1.429 . S
C1335 C1336 1.523 . S
C1336 C1317 1.368 . S
C1336 C1330 1.368 . S
C1336 C1335 1.523 . S
C1337 C1321 1.429 . S
C1337 C1333 1.429 . S
C1337 C1338 1.523 . S
C1338 C1322 1.368 . S
C1338 C1334 1.368 . S
C1338 C1337 1.523 . S
H1339 C1314 0.950 . S
H1340 C1316 0.950 . S
H1341 C1317 0.949 . S
H1342 C1319 0.950 . S
H1343 C1321 0.950 . S
C1344 C1345 1.349 . S
C1344 C1346 1.327 . S
C1344 H1369 0.950 . S
C1345 C1344 1.349 . S
C1345 C1361 1.349 . S
C1346 C1344 1.327 . S
C1346 C1365 1.429 . S
C1346 H1370 0.950 . S
C1347 C1364 1.574 . S
C1347 C1366 1.368 . S
C1347 H1371 0.949 . S
H1348 C1352 0.949 . S
C1349 C1350 1.349 . S
C1349 C1351 1.327 . S
C1349 H1372 0.950 . S
C1350 C1349 1.349 . S
C1350 C1362 1.349 . S
C1351 C1349 1.327 . S
C1351 C1367 1.429 . S
C1351 H1373 0.950 . S
C1352 H1348 0.949 . S
C1352 C1360 1.574 . S
C1352 C1368 1.368 . S
H1353 C1361 0.950 . S
H1354 C1359 0.950 . S
H1355 C1360 0.949 . S
H1356 C1362 0.950 . S
H1357 C1363 0.950 . S
H1358 C1364 0.949 . S
C1359 H1354 0.950 . S
C1359 C1361 1.327 . S
C1359 C1365 1.429 . S
C1360 C1352 1.574 . S
C1360 H1355 0.949 . S
C1360 C1366 1.368 . S
C1361 C1345 1.349 . S
C1361 H1353 0.950 . S
C1361 C1359 1.327 . S
C1362 C1350 1.349 . S
C1362 H1356 0.950 . S
C1362 C1363 1.327 . S
C1363 H1357 0.950 . S
C1363 C1362 1.327 . S
C1363 C1367 1.429 . S
C1364 C1347 1.574 . S
C1364 H1358 0.949 . S
C1364 C1368 1.368 . S
C1365 C1346 1.429 . S
C1365 C1359 1.429 . S
C1365 C1366 1.523 . S
C1366 C1347 1.368 . S
C1366 C1360 1.368 . S
C1366 C1365 1.523 . S
C1367 C1351 1.429 . S
C1367 C1363 1.429 . S
C1367 C1368 1.523 . S
C1368 C1352 1.368 . S
C1368 C1364 1.368 . S
C1368 C1367 1.523 . S
H1369 C1344 0.950 . S
H1370 C1346 0.950 . S
H1371 C1347 0.949 . S
H1372 C1349 0.950 . S
H1373 C1351 0.950 . S
C1374 C1375 1.349 . S
C1374 C1376 1.327 . S
C1374 H1399 0.950 . S
C1375 C1374 1.349 . S
C1375 C1391 1.349 . S
C1376 C1374 1.327 . S
C1376 C1395 1.429 . S
C1376 H1400 0.950 . S
C1377 C1394 1.574 . S
C1377 C1396 1.368 . S
C1377 H1401 0.949 . S
H1378 C1382 0.949 . S
C1379 C1380 1.349 . S
C1379 C1381 1.327 . S
C1379 H1402 0.950 . S
C1380 C1379 1.349 . S
C1380 C1392 1.349 . S
C1381 C1379 1.327 . S
C1381 C1397 1.429 . S
C1381 H1403 0.950 . S
C1382 H1378 0.949 . S
C1382 C1390 1.574 . S
C1382 C1398 1.368 . S
H1383 C1391 0.950 . S
H1384 C1389 0.950 . S
H1385 C1390 0.949 . S
H1386 C1392 0.950 . S
H1387 C1393 0.950 . S
H1388 C1394 0.949 . S
C1389 H1384 0.950 . S
C1389 C1391 1.327 . S
C1389 C1395 1.429 . S
C1390 C1382 1.574 . S
C1390 H1385 0.949 . S
C1390 C1396 1.368 . S
C1391 C1375 1.349 . S
C1391 H1383 0.950 . S
C1391 C1389 1.327 . S
C1392 C1380 1.349 . S
C1392 H1386 0.950 . S
C1392 C1393 1.327 . S
C1393 H1387 0.950 . S
C1393 C1392 1.327 . S
C1393 C1397 1.429 . S
C1394 C1377 1.574 . S
C1394 H1388 0.949 . S
C1394 C1398 1.368 . S
C1395 C1376 1.429 . S
C1395 C1389 1.429 . S
C1395 C1396 1.523 . S
C1396 C1377 1.368 . S
C1396 C1390 1.368 . S
C1396 C1395 1.523 . S
C1397 C1381 1.429 . S
C1397 C1393 1.429 . S
C1397 C1398 1.523 . S
C1398 C1382 1.368 . S
C1398 C1394 1.368 . S
C1398 C1397 1.523 . S
H1399 C1374 0.950 . S
H1400 C1376 0.950 . S
H1401 C1377 0.949 . S
H1402 C1379 0.950 . S
H1403 C1381 0.950 . S
C1404 C1405 1.349 . S
C1404 C1406 1.327 . S
C1404 H1429 0.950 . S
C1405 C1404 1.349 . S
C1405 C1421 1.349 . S
C1406 C1404 1.327 . S
C1406 C1425 1.429 . S
C1406 H1430 0.950 . S
C1407 C1424 1.574 . S
C1407 C1426 1.368 . S
C1407 H1431 0.949 . S
H1408 C1412 0.949 . S
C1409 C1410 1.349 . S
C1409 C1411 1.327 . S
C1409 H1432 0.950 . S
C1410 C1409 1.349 . S
C1410 C1422 1.349 . S
C1411 C1409 1.327 . S
C1411 C1427 1.429 . S
C1411 H1433 0.950 . S
C1412 H1408 0.949 . S
C1412 C1420 1.574 . S
C1412 C1428 1.368 . S
H1413 C1421 0.950 . S
H1414 C1419 0.950 . S
H1415 C1420 0.949 . S
H1416 C1422 0.950 . S
H1417 C1423 0.950 . S
H1418 C1424 0.949 . S
C1419 H1414 0.950 . S
C1419 C1421 1.327 . S
C1419 C1425 1.429 . S
C1420 C1412 1.574 . S
C1420 H1415 0.949 . S
C1420 C1426 1.368 . S
C1421 C1405 1.349 . S
C1421 H1413 0.950 . S
C1421 C1419 1.327 . S
C1422 C1410 1.349 . S
C1422 H1416 0.950 . S
C1422 C1423 1.327 . S
C1423 H1417 0.950 . S
C1423 C1422 1.327 . S
C1423 C1427 1.429 . S
C1424 C1407 1.574 . S
C1424 H1418 0.949 . S
C1424 C1428 1.368 . S
C1425 C1406 1.429 . S
C1425 C1419 1.429 . S
C1425 C1426 1.523 . S
C1426 C1407 1.368 . S
C1426 C1420 1.368 . S
C1426 C1425 1.523 . S
C1427 C1411 1.429 . S
C1427 C1423 1.429 . S
C1427 C1428 1.523 . S
C1428 C1412 1.368 . S
C1428 C1424 1.368 . S
C1428 C1427 1.523 . S
H1429 C1404 0.950 . S
H1430 C1406 0.950 . S
H1431 C1407 0.949 . S
H1432 C1409 0.950 . S
H1433 C1411 0.950 . S
C1434 C1435 1.349 . S
C1434 C1436 1.327 . S
C1434 H1459 0.950 . S
C1435 C1434 1.349 . S
C1435 C1451 1.349 . S
C1436 C1434 1.327 . S
C1436 C1455 1.429 . S
C1436 H1460 0.950 . S
C1437 C1454 1.574 . S
C1437 C1456 1.368 . S
C1437 H1461 0.949 . S
H1438 C1442 0.949 . S
C1439 C1440 1.349 . S
C1439 C1441 1.327 . S
C1439 H1462 0.950 . S
C1440 C1439 1.349 . S
C1440 C1452 1.349 . S
C1441 C1439 1.327 . S
C1441 C1457 1.429 . S
C1441 H1463 0.950 . S
C1442 H1438 0.949 . S
C1442 C1450 1.574 . S
C1442 C1458 1.368 . S
H1443 C1451 0.950 . S
H1444 C1449 0.950 . S
H1445 C1450 0.949 . S
H1446 C1452 0.950 . S
H1447 C1453 0.950 . S
H1448 C1454 0.949 . S
C1449 H1444 0.950 . S
C1449 C1451 1.327 . S
C1449 C1455 1.429 . S
C1450 C1442 1.574 . S
C1450 H1445 0.949 . S
C1450 C1456 1.368 . S
C1451 C1435 1.349 . S
C1451 H1443 0.950 . S
C1451 C1449 1.327 . S
C1452 C1440 1.349 . S
C1452 H1446 0.950 . S
C1452 C1453 1.327 . S
C1453 H1447 0.950 . S
C1453 C1452 1.327 . S
C1453 C1457 1.429 . S
C1454 C1437 1.574 . S
C1454 H1448 0.949 . S
C1454 C1458 1.368 . S
C1455 C1436 1.429 . S
C1455 C1449 1.429 . S
C1455 C1456 1.523 . S
C1456 C1437 1.368 . S
C1456 C1450 1.368 . S
C1456 C1455 1.523 . S
C1457 C1441 1.429 . S
C1457 C1453 1.429 . S
C1457 C1458 1.523 . S
C1458 C1442 1.368 . S
C1458 C1454 1.368 . S
C1458 C1457 1.523 . S
H1459 C1434 0.950 . S
H1460 C1436 0.950 . S
H1461 C1437 0.949 . S
H1462 C1439 0.950 . S
H1463 C1441 0.950 . S
C1464 C1465 1.349 . S
C1464 C1466 1.327 . S
C1464 H1489 0.950 . S
C1465 C1464 1.349 . S
C1465 C1481 1.349 . S
C1466 C1464 1.327 . S
C1466 C1485 1.429 . S
C1466 H1490 0.950 . S
C1467 C1484 1.574 . S
C1467 C1486 1.368 . S
C1467 H1491 0.949 . S
H1468 C1472 0.949 . S
C1469 C1470 1.349 . S
C1469 C1471 1.327 . S
C1469 H1492 0.950 . S
C1470 C1469 1.349 . S
C1470 C1482 1.349 . S
C1471 C1469 1.327 . S
C1471 C1487 1.429 . S
C1471 H1493 0.950 . S
C1472 H1468 0.949 . S
C1472 C1480 1.574 . S
C1472 C1488 1.368 . S
H1473 C1481 0.950 . S
H1474 C1479 0.950 . S
H1475 C1480 0.949 . S
H1476 C1482 0.950 . S
H1477 C1483 0.950 . S
H1478 C1484 0.949 . S
C1479 H1474 0.950 . S
C1479 C1481 1.327 . S
C1479 C1485 1.429 . S
C1480 C1472 1.574 . S
C1480 H1475 0.949 . S
C1480 C1486 1.368 . S
C1481 C1465 1.349 . S
C1481 H1473 0.950 . S
C1481 C1479 1.327 . S
C1482 C1470 1.349 . S
C1482 H1476 0.950 . S
C1482 C1483 1.327 . S
C1483 H1477 0.950 . S
C1483 C1482 1.327 . S
C1483 C1487 1.429 . S
C1484 C1467 1.574 . S
C1484 H1478 0.949 . S
C1484 C1488 1.368 . S
C1485 C1466 1.429 . S
C1485 C1479 1.429 . S
C1485 C1486 1.523 . S
C1486 C1467 1.368 . S
C1486 C1480 1.368 . S
C1486 C1485 1.523 . S
C1487 C1471 1.429 . S
C1487 C1483 1.429 . S
C1487 C1488 1.523 . S
C1488 C1472 1.368 . S
C1488 C1484 1.368 . S
C1488 C1487 1.523 . S
H1489 C1464 0.950 . S
H1490 C1466 0.950 . S
H1491 C1467 0.949 . S
H1492 C1469 0.950 . S
H1493 C1471 0.950 . S
C1494 C1495 1.349 . S
C1494 C1496 1.327 . S
C1494 H1519 0.950 . S
C1495 C1494 1.349 . S
C1495 C1511 1.349 . S
C1496 C1494 1.327 . S
C1496 C1515 1.429 . S
C1496 H1520 0.950 . S
C1497 C1514 1.574 . S
C1497 C1516 1.368 . S
C1497 H1521 0.949 . S
H1498 C1502 0.949 . S
C1499 C1500 1.349 . S
C1499 C1501 1.327 . S
C1499 H1522 0.950 . S
C1500 C1499 1.349 . S
C1500 C1512 1.349 . S
C1501 C1499 1.327 . S
C1501 C1517 1.429 . S
C1501 H1523 0.950 . S
C1502 H1498 0.949 . S
C1502 C1510 1.574 . S
C1502 C1518 1.368 . S
H1503 C1511 0.950 . S
H1504 C1509 0.950 . S
H1505 C1510 0.949 . S
H1506 C1512 0.950 . S
H1507 C1513 0.950 . S
H1508 C1514 0.949 . S
C1509 H1504 0.950 . S
C1509 C1511 1.327 . S
C1509 C1515 1.429 . S
C1510 C1502 1.574 . S
C1510 H1505 0.949 . S
C1510 C1516 1.368 . S
C1511 C1495 1.349 . S
C1511 H1503 0.950 . S
C1511 C1509 1.327 . S
C1512 C1500 1.349 . S
C1512 H1506 0.950 . S
C1512 C1513 1.327 . S
C1513 H1507 0.950 . S
C1513 C1512 1.327 . S
C1513 C1517 1.429 . S
C1514 C1497 1.574 . S
C1514 H1508 0.949 . S
C1514 C1518 1.368 . S
C1515 C1496 1.429 . S
C1515 C1509 1.429 . S
C1515 C1516 1.523 . S
C1516 C1497 1.368 . S
C1516 C1510 1.368 . S
C1516 C1515 1.523 . S
C1517 C1501 1.429 . S
C1517 C1513 1.429 . S
C1517 C1518 1.523 . S
C1518 C1502 1.368 . S
C1518 C1514 1.368 . S
C1518 C1517 1.523 . S
H1519 C1494 0.950 . S
H1520 C1496 0.950 . S
H1521 C1497 0.949 . S
H1522 C1499 0.950 . S
H1523 C1501 0.950 . S
C1524 C1525 1.349 . S
C1524 C1526 1.327 . S
C1524 H1549 0.950 . S
C1525 C1524 1.349 . S
C1525 C1541 1.349 . S
C1526 C1524 1.327 . S
C1526 C1545 1.429 . S
C1526 H1550 0.950 . S
C1527 C1544 1.574 . S
C1527 C1546 1.368 . S
C1527 H1551 0.949 . S
H1528 C1532 0.949 . S
C1529 C1530 1.349 . S
C1529 C1531 1.327 . S
C1529 H1552 0.950 . S
C1530 C1529 1.349 . S
C1530 C1542 1.349 . S
C1531 C1529 1.327 . S
C1531 C1547 1.429 . S
C1531 H1553 0.950 . S
C1532 H1528 0.949 . S
C1532 C1540 1.574 . S
C1532 C1548 1.368 . S
H1533 C1541 0.950 . S
H1534 C1539 0.950 . S
H1535 C1540 0.949 . S
H1536 C1542 0.950 . S
H1537 C1543 0.950 . S
H1538 C1544 0.949 . S
C1539 H1534 0.950 . S
C1539 C1541 1.327 . S
C1539 C1545 1.429 . S
C1540 C1532 1.574 . S
C1540 H1535 0.949 . S
C1540 C1546 1.368 . S
C1541 C1525 1.349 . S
C1541 H1533 0.950 . S
C1541 C1539 1.327 . S
C1542 C1530 1.349 . S
C1542 H1536 0.950 . S
C1542 C1543 1.327 . S
C1543 H1537 0.950 . S
C1543 C1542 1.327 . S
C1543 C1547 1.429 . S
C1544 C1527 1.574 . S
C1544 H1538 0.949 . S
C1544 C1548 1.368 . S
C1545 C1526 1.429 . S
C1545 C1539 1.429 . S
C1545 C1546 1.523 . S
C1546 C1527 1.368 . S
C1546 C1540 1.368 . S
C1546 C1545 1.523 . S
C1547 C1531 1.429 . S
C1547 C1543 1.429 . S
C1547 C1548 1.523 . S
C1548 C1532 1.368 . S
C1548 C1544 1.368 . S
C1548 C1547 1.523 . S
H1549 C1524 0.950 . S
H1550 C1526 0.950 . S
H1551 C1527 0.949 . S
H1552 C1529 0.950 . S
H1553 C1531 0.950 . S
C1554 C1555 1.349 . S
C1554 C1556 1.327 . S
C1554 H1579 0.950 . S
C1555 C1554 1.349 . S
C1555 C1571 1.349 . S
C1556 C1554 1.327 . S
C1556 C1575 1.429 . S
C1556 H1580 0.950 . S
C1557 C1574 1.574 . S
C1557 C1576 1.368 . S
C1557 H1581 0.949 . S
H1558 C1562 0.949 . S
C1559 C1560 1.349 . S
C1559 C1561 1.327 . S
C1559 H1582 0.950 . S
C1560 C1559 1.349 . S
C1560 C1572 1.349 . S
C1561 C1559 1.327 . S
C1561 C1577 1.429 . S
C1561 H1583 0.950 . S
C1562 H1558 0.949 . S
C1562 C1570 1.574 . S
C1562 C1578 1.368 . S
H1563 C1571 0.950 . S
H1564 C1569 0.950 . S
H1565 C1570 0.949 . S
H1566 C1572 0.950 . S
H1567 C1573 0.950 . S
H1568 C1574 0.949 . S
C1569 H1564 0.950 . S
C1569 C1571 1.327 . S
C1569 C1575 1.429 . S
C1570 C1562 1.574 . S
C1570 H1565 0.949 . S
C1570 C1576 1.368 . S
C1571 C1555 1.349 . S
C1571 H1563 0.950 . S
C1571 C1569 1.327 . S
C1572 C1560 1.349 . S
C1572 H1566 0.950 . S
C1572 C1573 1.327 . S
C1573 H1567 0.950 . S
C1573 C1572 1.327 . S
C1573 C1577 1.429 . S
C1574 C1557 1.574 . S
C1574 H1568 0.949 . S
C1574 C1578 1.368 . S
C1575 C1556 1.429 . S
C1575 C1569 1.429 . S
C1575 C1576 1.523 . S
C1576 C1557 1.368 . S
C1576 C1570 1.368 . S
C1576 C1575 1.523 . S
C1577 C1561 1.429 . S
C1577 C1573 1.429 . S
C1577 C1578 1.523 . S
C1578 C1562 1.368 . S
C1578 C1574 1.368 . S
C1578 C1577 1.523 . S
H1579 C1554 0.950 . S
H1580 C1556 0.950 . S
H1581 C1557 0.949 . S
H1582 C1559 0.950 . S
H1583 C1561 0.950 . S
C1584 C1585 1.349 . S
C1584 C1586 1.327 . S
C1584 H1609 0.950 . S
C1585 C1584 1.349 . S
C1585 C1601 1.349 . S
C1586 C1584 1.327 . S
C1586 C1605 1.429 . S
C1586 H1610 0.950 . S
C1587 C1604 1.574 . S
C1587 C1606 1.368 . S
C1587 H1611 0.949 . S
H1588 C1592 0.949 . S
C1589 C1590 1.349 . S
C1589 C1591 1.327 . S
C1589 H1612 0.950 . S
C1590 C1589 1.349 . S
C1590 C1602 1.349 . S
C1591 C1589 1.327 . S
C1591 C1607 1.429 . S
C1591 H1613 0.950 . S
C1592 H1588 0.949 . S
C1592 C1600 1.574 . S
C1592 C1608 1.368 . S
H1593 C1601 0.950 . S
H1594 C1599 0.950 . S
H1595 C1600 0.949 . S
H1596 C1602 0.950 . S
H1597 C1603 0.950 . S
H1598 C1604 0.949 . S
C1599 H1594 0.950 . S
C1599 C1601 1.327 . S
C1599 C1605 1.429 . S
C1600 C1592 1.574 . S
C1600 H1595 0.949 . S
C1600 C1606 1.368 . S
C1601 C1585 1.349 . S
C1601 H1593 0.950 . S
C1601 C1599 1.327 . S
C1602 C1590 1.349 . S
C1602 H1596 0.950 . S
C1602 C1603 1.327 . S
C1603 H1597 0.950 . S
C1603 C1602 1.327 . S
C1603 C1607 1.429 . S
C1604 C1587 1.574 . S
C1604 H1598 0.949 . S
C1604 C1608 1.368 . S
C1605 C1586 1.429 . S
C1605 C1599 1.429 . S
C1605 C1606 1.523 . S
C1606 C1587 1.368 . S
C1606 C1600 1.368 . S
C1606 C1605 1.523 . S
C1607 C1591 1.429 . S
C1607 C1603 1.429 . S
C1607 C1608 1.523 . S
C1608 C1592 1.368 . S
C1608 C1604 1.368 . S
C1608 C1607 1.523 . S
H1609 C1584 0.950 . S
H1610 C1586 0.950 . S
H1611 C1587 0.949 . S
H1612 C1589 0.950 . S
H1613 C1591 0.950 . S
C1614 C1615 1.349 . S
C1614 C1616 1.327 . S
C1614 H1639 0.950 . S
C1615 C1614 1.349 . S
C1615 C1631 1.349 . S
C1616 C1614 1.327 . S
C1616 C1635 1.429 . S
C1616 H1640 0.950 . S
C1617 C1634 1.574 . S
C1617 C1636 1.368 . S
C1617 H1641 0.949 . S
H1618 C1622 0.949 . S
C1619 C1620 1.349 . S
C1619 C1621 1.327 . S
C1619 H1642 0.950 . S
C1620 C1619 1.349 . S
C1620 C1632 1.349 . S
C1621 C1619 1.327 . S
C1621 C1637 1.429 . S
C1621 H1643 0.950 . S
C1622 H1618 0.949 . S
C1622 C1630 1.574 . S
C1622 C1638 1.368 . S
H1623 C1631 0.950 . S
H1624 C1629 0.950 . S
H1625 C1630 0.949 . S
H1626 C1632 0.950 . S
H1627 C1633 0.950 . S
H1628 C1634 0.949 . S
C1629 H1624 0.950 . S
C1629 C1631 1.327 . S
C1629 C1635 1.429 . S
C1630 C1622 1.574 . S
C1630 H1625 0.949 . S
C1630 C1636 1.368 . S
C1631 C1615 1.349 . S
C1631 H1623 0.950 . S
C1631 C1629 1.327 . S
C1632 C1620 1.349 . S
C1632 H1626 0.950 . S
C1632 C1633 1.327 . S
C1633 H1627 0.950 . S
C1633 C1632 1.327 . S
C1633 C1637 1.429 . S
C1634 C1617 1.574 . S
C1634 H1628 0.949 . S
C1634 C1638 1.368 . S
C1635 C1616 1.429 . S
C1635 C1629 1.429 . S
C1635 C1636 1.523 . S
C1636 C1617 1.368 . S
C1636 C1630 1.368 . S
C1636 C1635 1.523 . S
C1637 C1621 1.429 . S
C1637 C1633 1.429 . S
C1637 C1638 1.523 . S
C1638 C1622 1.368 . S
C1638 C1634 1.368 . S
C1638 C1637 1.523 . S
H1639 C1614 0.950 . S
H1640 C1616 0.950 . S
H1641 C1617 0.949 . S
H1642 C1619 0.950 . S
H1643 C1621 0.950 . S
C1644 C1645 1.349 . S
C1644 C1646 1.327 . S
C1644 H1669 0.950 . S
C1645 C1644 1.349 . S
C1645 C1661 1.349 . S
C1646 C1644 1.327 . S
C1646 C1665 1.429 . S
C1646 H1670 0.950 . S
C1647 C1664 1.574 . S
C1647 C1666 1.368 . S
C1647 H1671 0.949 . S
H1648 C1652 0.949 . S
C1649 C1650 1.349 . S
C1649 C1651 1.327 . S
C1649 H1672 0.950 . S
C1650 C1649 1.349 . S
C1650 C1662 1.349 . S
C1651 C1649 1.327 . S
C1651 C1667 1.429 . S
C1651 H1673 0.950 . S
C1652 H1648 0.949 . S
C1652 C1660 1.574 . S
C1652 C1668 1.368 . S
H1653 C1661 0.950 . S
H1654 C1659 0.950 . S
H1655 C1660 0.949 . S
H1656 C1662 0.950 . S
H1657 C1663 0.950 . S
H1658 C1664 0.949 . S
C1659 H1654 0.950 . S
C1659 C1661 1.327 . S
C1659 C1665 1.429 . S
C1660 C1652 1.574 . S
C1660 H1655 0.949 . S
C1660 C1666 1.368 . S
C1661 C1645 1.349 . S
C1661 H1653 0.950 . S
C1661 C1659 1.327 . S
C1662 C1650 1.349 . S
C1662 H1656 0.950 . S
C1662 C1663 1.327 . S
C1663 H1657 0.950 . S
C1663 C1662 1.327 . S
C1663 C1667 1.429 . S
C1664 C1647 1.574 . S
C1664 H1658 0.949 . S
C1664 C1668 1.368 . S
C1665 C1646 1.429 . S
C1665 C1659 1.429 . S
C1665 C1666 1.523 . S
C1666 C1647 1.368 . S
C1666 C1660 1.368 . S
C1666 C1665 1.523 . S
C1667 C1651 1.429 . S
C1667 C1663 1.429 . S
C1667 C1668 1.523 . S
C1668 C1652 1.368 . S
C1668 C1664 1.368 . S
C1668 C1667 1.523 . S
H1669 C1644 0.950 . S
H1670 C1646 0.950 . S
H1671 C1647 0.949 . S
H1672 C1649 0.950 . S
H1673 C1651 0.950 . S
C1674 C1675 1.349 . S
C1674 C1676 1.327 . S
C1674 H1699 0.950 . S
C1675 C1674 1.349 . S
C1675 C1691 1.349 . S
C1676 C1674 1.327 . S
C1676 C1695 1.429 . S
C1676 H1700 0.950 . S
C1677 C1694 1.574 . S
C1677 C1696 1.368 . S
C1677 H1701 0.949 . S
H1678 C1682 0.949 . S
C1679 C1680 1.349 . S
C1679 C1681 1.327 . S
C1679 H1702 0.950 . S
C1680 C1679 1.349 . S
C1680 C1692 1.349 . S
C1681 C1679 1.327 . S
C1681 C1697 1.429 . S
C1681 H1703 0.950 . S
C1682 H1678 0.949 . S
C1682 C1690 1.574 . S
C1682 C1698 1.368 . S
H1683 C1691 0.950 . S
H1684 C1689 0.950 . S
H1685 C1690 0.949 . S
H1686 C1692 0.950 . S
H1687 C1693 0.950 . S
H1688 C1694 0.949 . S
C1689 H1684 0.950 . S
C1689 C1691 1.327 . S
C1689 C1695 1.429 . S
C1690 C1682 1.574 . S
C1690 H1685 0.949 . S
C1690 C1696 1.368 . S
C1691 C1675 1.349 . S
C1691 H1683 0.950 . S
C1691 C1689 1.327 . S
C1692 C1680 1.349 . S
C1692 H1686 0.950 . S
C1692 C1693 1.327 . S
C1693 H1687 0.950 . S
C1693 C1692 1.327 . S
C1693 C1697 1.429 . S
C1694 C1677 1.574 . S
C1694 H1688 0.949 . S
C1694 C1698 1.368 . S
C1695 C1676 1.429 . S
C1695 C1689 1.429 . S
C1695 C1696 1.523 . S
C1696 C1677 1.368 . S
C1696 C1690 1.368 . S
C1696 C1695 1.523 . S
C1697 C1681 1.429 . S
C1697 C1693 1.429 . S
C1697 C1698 1.523 . S
C1698 C1682 1.368 . S
C1698 C1694 1.368 . S
C1698 C1697 1.523 . S
H1699 C1674 0.950 . S
H1700 C1676 0.950 . S
H1701 C1677 0.949 . S
H1702 C1679 0.950 . S
H1703 C1681 0.950 . S
C1704 C1705 1.349 . S
C1704 C1706 1.327 . S
C1704 H1729 0.950 . S
C1705 C1704 1.349 . S
C1705 C1721 1.349 . S
C1706 C1704 1.327 . S
C1706 C1725 1.429 . S
C1706 H1730 0.950 . S
C1707 C1724 1.574 . S
C1707 C1726 1.368 . S
C1707 H1731 0.949 . S
H1708 C1712 0.949 . S
C1709 C1710 1.349 . S
C1709 C1711 1.327 . S
C1709 H1732 0.950 . S
C1710 C1709 1.349 . S
C1710 C1722 1.349 . S
C1711 C1709 1.327 . S
C1711 C1727 1.429 . S
C1711 H1733 0.950 . S
C1712 H1708 0.949 . S
C1712 C1720 1.574 . S
C1712 C1728 1.368 . S
H1713 C1721 0.950 . S
H1714 C1719 0.950 . S
H1715 C1720 0.949 . S
H1716 C1722 0.950 . S
H1717 C1723 0.950 . S
H1718 C1724 0.949 . S
C1719 H1714 0.950 . S
C1719 C1721 1.327 . S
C1719 C1725 1.429 . S
C1720 C1712 1.574 . S
C1720 H1715 0.949 . S
C1720 C1726 1.368 . S
C1721 C1705 1.349 . S
C1721 H1713 0.950 . S
C1721 C1719 1.327 . S
C1722 C1710 1.349 . S
C1722 H1716 0.950 . S
C1722 C1723 1.327 . S
C1723 H1717 0.950 . S
C1723 C1722 1.327 . S
C1723 C1727 1.429 . S
C1724 C1707 1.574 . S
C1724 H1718 0.949 . S
C1724 C1728 1.368 . S
C1725 C1706 1.429 . S
C1725 C1719 1.429 . S
C1725 C1726 1.523 . S
C1726 C1707 1.368 . S
C1726 C1720 1.368 . S
C1726 C1725 1.523 . S
C1727 C1711 1.429 . S
C1727 C1723 1.429 . S
C1727 C1728 1.523 . S
C1728 C1712 1.368 . S
C1728 C1724 1.368 . S
C1728 C1727 1.523 . S
H1729 C1704 0.950 . S
H1730 C1706 0.950 . S
H1731 C1707 0.949 . S
H1732 C1709 0.950 . S
H1733 C1711 0.950 . S
C1734 C1735 1.349 . S
C1734 C1736 1.327 . S
C1734 H1759 0.950 . S
C1735 C1734 1.349 . S
C1735 C1751 1.349 . S
C1736 C1734 1.327 . S
C1736 C1755 1.429 . S
C1736 H1760 0.950 . S
C1737 C1754 1.574 . S
C1737 C1756 1.368 . S
C1737 H1761 0.949 . S
H1738 C1742 0.949 . S
C1739 C1740 1.349 . S
C1739 C1741 1.327 . S
C1739 H1762 0.950 . S
C1740 C1739 1.349 . S
C1740 C1752 1.349 . S
C1741 C1739 1.327 . S
C1741 C1757 1.429 . S
C1741 H1763 0.950 . S
C1742 H1738 0.949 . S
C1742 C1750 1.574 . S
C1742 C1758 1.368 . S
H1743 C1751 0.950 . S
H1744 C1749 0.950 . S
H1745 C1750 0.949 . S
H1746 C1752 0.950 . S
H1747 C1753 0.950 . S
H1748 C1754 0.949 . S
C1749 H1744 0.950 . S
C1749 C1751 1.327 . S
C1749 C1755 1.429 . S
C1750 C1742 1.574 . S
C1750 H1745 0.949 . S
C1750 C1756 1.368 . S
C1751 C1735 1.349 . S
C1751 H1743 0.950 . S
C1751 C1749 1.327 . S
C1752 C1740 1.349 . S
C1752 H1746 0.950 . S
C1752 C1753 1.327 . S
C1753 H1747 0.950 . S
C1753 C1752 1.327 . S
C1753 C1757 1.429 . S
C1754 C1737 1.574 . S
C1754 H1748 0.949 . S
C1754 C1758 1.368 . S
C1755 C1736 1.429 . S
C1755 C1749 1.429 . S
C1755 C1756 1.523 . S
C1756 C1737 1.368 . S
C1756 C1750 1.368 . S
C1756 C1755 1.523 . S
C1757 C1741 1.429 . S
C1757 C1753 1.429 . S
C1757 C1758 1.523 . S
C1758 C1742 1.368 . S
C1758 C1754 1.368 . S
C1758 C1757 1.523 . S
H1759 C1734 0.950 . S
H1760 C1736 0.950 . S
H1761 C1737 0.949 . S
H1762 C1739 0.950 . S
H1763 C1741 0.950 . S
C1764 C1765 1.349 . S
C1764 C1766 1.327 . S
C1764 H1789 0.950 . S
C1765 C1764 1.349 . S
C1765 C1781 1.349 . S
C1766 C1764 1.327 . S
C1766 C1785 1.429 . S
C1766 H1790 0.950 . S
C1767 C1784 1.574 . S
C1767 C1786 1.368 . S
C1767 H1791 0.949 . S
H1768 C1772 0.949 . S
C1769 C1770 1.349 . S
C1769 C1771 1.327 . S
C1769 H1792 0.950 . S
C1770 C1769 1.349 . S
C1770 C1782 1.349 . S
C1771 C1769 1.327 . S
C1771 C1787 1.429 . S
C1771 H1793 0.950 . S
C1772 H1768 0.949 . S
C1772 C1780 1.574 . S
C1772 C1788 1.368 . S
H1773 C1781 0.950 . S
H1774 C1779 0.950 . S
H1775 C1780 0.949 . S
H1776 C1782 0.950 . S
H1777 C1783 0.950 . S
H1778 C1784 0.949 . S
C1779 H1774 0.950 . S
C1779 C1781 1.327 . S
C1779 C1785 1.429 . S
C1780 C1772 1.574 . S
C1780 H1775 0.949 . S
C1780 C1786 1.368 . S
C1781 C1765 1.349 . S
C1781 H1773 0.950 . S
C1781 C1779 1.327 . S
C1782 C1770 1.349 . S
C1782 H1776 0.950 . S
C1782 C1783 1.327 . S
C1783 H1777 0.950 . S
C1783 C1782 1.327 . S
C1783 C1787 1.429 . S
C1784 C1767 1.574 . S
C1784 H1778 0.949 . S
C1784 C1788 1.368 . S
C1785 C1766 1.429 . S
C1785 C1779 1.429 . S
C1785 C1786 1.523 . S
C1786 C1767 1.368 . S
C1786 C1780 1.368 . S
C1786 C1785 1.523 . S
C1787 C1771 1.429 . S
C1787 C1783 1.429 . S
C1787 C1788 1.523 . S
C1788 C1772 1.368 . S
C1788 C1784 1.368 . S
C1788 C1787 1.523 . S
H1789 C1764 0.950 . S
H1790 C1766 0.950 . S
H1791 C1767 0.949 . S
H1792 C1769 0.950 . S
H1793 C1771 0.950 . S
C1794 C1795 1.349 . S
C1794 C1796 1.327 . S
C1794 H1819 0.950 . S
C1795 C1794 1.349 . S
C1795 C1811 1.349 . S
C1796 C1794 1.327 . S
C1796 C1815 1.429 . S
C1796 H1820 0.950 . S
C1797 C1814 1.574 . S
C1797 C1816 1.368 . S
C1797 H1821 0.949 . S
H1798 C1802 0.949 . S
C1799 C1800 1.349 . S
C1799 C1801 1.327 . S
C1799 H1822 0.950 . S
C1800 C1799 1.349 . S
C1800 C1812 1.349 . S
C1801 C1799 1.327 . S
C1801 C1817 1.429 . S
C1801 H1823 0.950 . S
C1802 H1798 0.949 . S
C1802 C1810 1.574 . S
C1802 C1818 1.368 . S
H1803 C1811 0.950 . S
H1804 C1809 0.950 . S
H1805 C1810 0.949 . S
H1806 C1812 0.950 . S
H1807 C1813 0.950 . S
H1808 C1814 0.949 . S
C1809 H1804 0.950 . S
C1809 C1811 1.327 . S
C1809 C1815 1.429 . S
C1810 C1802 1.574 . S
C1810 H1805 0.949 . S
C1810 C1816 1.368 . S
C1811 C1795 1.349 . S
C1811 H1803 0.950 . S
C1811 C1809 1.327 . S
C1812 C1800 1.349 . S
C1812 H1806 0.950 . S
C1812 C1813 1.327 . S
C1813 H1807 0.950 . S
C1813 C1812 1.327 . S
C1813 C1817 1.429 . S
C1814 C1797 1.574 . S
C1814 H1808 0.949 . S
C1814 C1818 1.368 . S
C1815 C1796 1.429 . S
C1815 C1809 1.429 . S
C1815 C1816 1.523 . S
C1816 C1797 1.368 . S
C1816 C1810 1.368 . S
C1816 C1815 1.523 . S
C1817 C1801 1.429 . S
C1817 C1813 1.429 . S
C1817 C1818 1.523 . S
C1818 C1802 1.368 . S
C1818 C1814 1.368 . S
C1818 C1817 1.523 . S
H1819 C1794 0.950 . S
H1820 C1796 0.950 . S
H1821 C1797 0.949 . S
H1822 C1799 0.950 . S
H1823 C1801 0.950 . S
C1824 C1825 1.349 . S
C1824 C1826 1.327 . S
C1824 H1849 0.950 . S
C1825 C1824 1.349 . S
C1825 C1841 1.349 . S
C1826 C1824 1.327 . S
C1826 C1845 1.429 . S
C1826 H1850 0.950 . S
C1827 C1844 1.574 . S
C1827 C1846 1.368 . S
C1827 H1851 0.949 . S
H1828 C1832 0.949 . S
C1829 C1830 1.349 . S
C1829 C1831 1.327 . S
C1829 H1852 0.950 . S
C1830 C1829 1.349 . S
C1830 C1842 1.349 . S
C1831 C1829 1.327 . S
C1831 C1847 1.429 . S
C1831 H1853 0.950 . S
C1832 H1828 0.949 . S
C1832 C1840 1.574 . S
C1832 C1848 1.368 . S
H1833 C1841 0.950 . S
H1834 C1839 0.950 . S
H1835 C1840 0.949 . S
H1836 C1842 0.950 . S
H1837 C1843 0.950 . S
H1838 C1844 0.949 . S
C1839 H1834 0.950 . S
C1839 C1841 1.327 . S
C1839 C1845 1.429 . S
C1840 C1832 1.574 . S
C1840 H1835 0.949 . S
C1840 C1846 1.368 . S
C1841 C1825 1.349 . S
C1841 H1833 0.950 . S
C1841 C1839 1.327 . S
C1842 C1830 1.349 . S
C1842 H1836 0.950 . S
C1842 C1843 1.327 . S
C1843 H1837 0.950 . S
C1843 C1842 1.327 . S
C1843 C1847 1.429 . S
C1844 C1827 1.574 . S
C1844 H1838 0.949 . S
C1844 C1848 1.368 . S
C1845 C1826 1.429 . S
C1845 C1839 1.429 . S
C1845 C1846 1.523 . S
C1846 C1827 1.368 . S
C1846 C1840 1.368 . S
C1846 C1845 1.523 . S
C1847 C1831 1.429 . S
C1847 C1843 1.429 . S
C1847 C1848 1.523 . S
C1848 C1832 1.368 . S
C1848 C1844 1.368 . S
C1848 C1847 1.523 . S
H1849 C1824 0.950 . S
H1850 C1826 0.950 . S
H1851 C1827 0.949 . S
H1852 C1829 0.950 . S
H1853 C1831 0.950 . S
C1854 C1855 1.349 . S
C1854 C1856 1.327 . S
C1854 H1879 0.950 . S
C1855 C1854 1.349 . S
C1855 C1871 1.349 . S
C1856 C1854 1.327 . S
C1856 C1875 1.429 . S
C1856 H1880 0.950 . S
C1857 C1874 1.574 . S
C1857 C1876 1.368 . S
C1857 H1881 0.949 . S
H1858 C1862 0.949 . S
C1859 C1860 1.349 . S
C1859 C1861 1.327 . S
C1859 H1882 0.950 . S
C1860 C1859 1.349 . S
C1860 C1872 1.349 . S
C1861 C1859 1.327 . S
C1861 C1877 1.429 . S
C1861 H1883 0.950 . S
C1862 H1858 0.949 . S
C1862 C1870 1.574 . S
C1862 C1878 1.368 . S
H1863 C1871 0.950 . S
H1864 C1869 0.950 . S
H1865 C1870 0.949 . S
H1866 C1872 0.950 . S
H1867 C1873 0.950 . S
H1868 C1874 0.949 . S
C1869 H1864 0.950 . S
C1869 C1871 1.327 . S
C1869 C1875 1.429 . S
C1870 C1862 1.574 . S
C1870 H1865 0.949 . S
C1870 C1876 1.368 . S
C1871 C1855 1.349 . S
C1871 H1863 0.950 . S
C1871 C1869 1.327 . S
C1872 C1860 1.349 . S
C1872 H1866 0.950 . S
C1872 C1873 1.327 . S
C1873 H1867 0.950 . S
C1873 C1872 1.327 . S
C1873 C1877 1.429 . S
C1874 C1857 1.574 . S
C1874 H1868 0.949 . S
C1874 C1878 1.368 . S
C1875 C1856 1.429 . S
C1875 C1869 1.429 . S
C1875 C1876 1.523 . S
C1876 C1857 1.368 . S
C1876 C1870 1.368 . S
C1876 C1875 1.523 . S
C1877 C1861 1.429 . S
C1877 C1873 1.429 . S
C1877 C1878 1.523 . S
C1878 C1862 1.368 . S
C1878 C1874 1.368 . S
C1878 C1877 1.523 . S
H1879 C1854 0.950 . S
H1880 C1856 0.950 . S
H1881 C1857 0.949 . S
H1882 C1859 0.950 . S
H1883 C1861 0.950 . S
C1884 C1885 1.349 . S
C1884 C1886 1.327 . S
C1884 H1909 0.950 . S
C1885 C1884 1.349 . S
C1885 C1901 1.349 . S
C1886 C1884 1.327 . S
C1886 C1905 1.429 . S
C1886 H1910 0.950 . S
C1887 C1904 1.574 . S
C1887 C1906 1.368 . S
C1887 H1911 0.949 . S
H1888 C1892 0.949 . S
C1889 C1890 1.349 . S
C1889 C1891 1.327 . S
C1889 H1912 0.950 . S
C1890 C1889 1.349 . S
C1890 C1902 1.349 . S
C1891 C1889 1.327 . S
C1891 C1907 1.429 . S
C1891 H1913 0.950 . S
C1892 H1888 0.949 . S
C1892 C1900 1.574 . S
C1892 C1908 1.368 . S
H1893 C1901 0.950 . S
H1894 C1899 0.950 . S
H1895 C1900 0.949 . S
H1896 C1902 0.950 . S
H1897 C1903 0.950 . S
H1898 C1904 0.949 . S
C1899 H1894 0.950 . S
C1899 C1901 1.327 . S
C1899 C1905 1.429 . S
C1900 C1892 1.574 . S
C1900 H1895 0.949 . S
C1900 C1906 1.368 . S
C1901 C1885 1.349 . S
C1901 H1893 0.950 . S
C1901 C1899 1.327 . S
C1902 C1890 1.349 . S
C1902 H1896 0.950 . S
C1902 C1903 1.327 . S
C1903 H1897 0.950 . S
C1903 C1902 1.327 . S
C1903 C1907 1.429 . S
C1904 C1887 1.574 . S
C1904 H1898 0.949 . S
C1904 C1908 1.368 . S
C1905 C1886 1.429 . S
C1905 C1899 1.429 . S
C1905 C1906 1.523 . S
C1906 C1887 1.368 . S
C1906 C1900 1.368 . S
C1906 C1905 1.523 . S
C1907 C1891 1.429 . S
C1907 C1903 1.429 . S
C1907 C1908 1.523 . S
C1908 C1892 1.368 . S
C1908 C1904 1.368 . S
C1908 C1907 1.523 . S
H1909 C1884 0.950 . S
H1910 C1886 0.950 . S
H1911 C1887 0.949 . S
H1912 C1889 0.950 . S
H1913 C1891 0.950 . S
C1914 C1915 1.349 . S
C1914 C1916 1.327 . S
C1914 H1939 0.950 . S
C1915 C1914 1.349 . S
C1915 C1931 1.349 . S
C1916 C1914 1.327 . S
C1916 C1935 1.429 . S
C1916 H1940 0.950 . S
C1917 C1934 1.574 . S
C1917 C1936 1.368 . S
C1917 H1941 0.949 . S
H1918 C1922 0.949 . S
C1919 C1920 1.349 . S
C1919 C1921 1.327 . S
C1919 H1942 0.950 . S
C1920 C1919 1.349 . S
C1920 C1932 1.349 . S
C1921 C1919 1.327 . S
C1921 C1937 1.429 . S
C1921 H1943 0.950 . S
C1922 H1918 0.949 . S
C1922 C1930 1.574 . S
C1922 C1938 1.368 . S
H1923 C1931 0.950 . S
H1924 C1929 0.950 . S
H1925 C1930 0.949 . S
H1926 C1932 0.950 . S
H1927 C1933 0.950 . S
H1928 C1934 0.949 . S
C1929 H1924 0.950 . S
C1929 C1931 1.327 . S
C1929 C1935 1.429 . S
C1930 C1922 1.574 . S
C1930 H1925 0.949 . S
C1930 C1936 1.368 . S
C1931 C1915 1.349 . S
C1931 H1923 0.950 . S
C1931 C1929 1.327 . S
C1932 C1920 1.349 . S
C1932 H1926 0.950 . S
C1932 C1933 1.327 . S
C1933 H1927 0.950 . S
C1933 C1932 1.327 . S
C1933 C1937 1.429 . S
C1934 C1917 1.574 . S
C1934 H1928 0.949 . S
C1934 C1938 1.368 . S
C1935 C1916 1.429 . S
C1935 C1929 1.429 . S
C1935 C1936 1.523 . S
C1936 C1917 1.368 . S
C1936 C1930 1.368 . S
C1936 C1935 1.523 . S
C1937 C1921 1.429 . S
C1937 C1933 1.429 . S
C1937 C1938 1.523 . S
C1938 C1922 1.368 . S
C1938 C1934 1.368 . S
C1938 C1937 1.523 . S
H1939 C1914 0.950 . S
H1940 C1916 0.950 . S
H1941 C1917 0.949 . S
H1942 C1919 0.950 . S
H1943 C1921 0.950 . S
C1944 C1945 1.349 . S
C1944 C1946 1.327 . S
C1944 H1969 0.950 . S
C1945 C1944 1.349 . S
C1945 C1961 1.349 . S
C1946 C1944 1.327 . S
C1946 C1965 1.429 . S
C1946 H1970 0.950 . S
C1947 C1964 1.574 . S
C1947 C1966 1.368 . S
C1947 H1971 0.949 . S
H1948 C1952 0.949 . S
C1949 C1950 1.349 . S
C1949 C1951 1.327 . S
C1949 H1972 0.950 . S
C1950 C1949 1.349 . S
C1950 C1962 1.349 . S
C1951 C1949 1.327 . S
C1951 C1967 1.429 . S
C1951 H1973 0.950 . S
C1952 H1948 0.949 . S
C1952 C1960 1.574 . S
C1952 C1968 1.368 . S
H1953 C1961 0.950 . S
H1954 C1959 0.950 . S
H1955 C1960 0.949 . S
H1956 C1962 0.950 . S
H1957 C1963 0.950 . S
H1958 C1964 0.949 . S
C1959 H1954 0.950 . S
C1959 C1961 1.327 . S
C1959 C1965 1.429 . S
C1960 C1952 1.574 . S
C1960 H1955 0.949 . S
C1960 C1966 1.368 . S
C1961 C1945 1.349 . S
C1961 H1953 0.950 . S
C1961 C1959 1.327 . S
C1962 C1950 1.349 . S
C1962 H1956 0.950 . S
C1962 C1963 1.327 . S
C1963 H1957 0.950 . S
C1963 C1962 1.327 . S
C1963 C1967 1.429 . S
C1964 C1947 1.574 . S
C1964 H1958 0.949 . S
C1964 C1968 1.368 . S
C1965 C1946 1.429 . S
C1965 C1959 1.429 . S
C1965 C1966 1.523 . S
C1966 C1947 1.368 . S
C1966 C1960 1.368 . S
C1966 C1965 1.523 . S
C1967 C1951 1.429 . S
C1967 C1963 1.429 . S
C1967 C1968 1.523 . S
C1968 C1952 1.368 . S
C1968 C1964 1.368 . S
C1968 C1967 1.523 . S
H1969 C1944 0.950 . S
H1970 C1946 0.950 . S
H1971 C1947 0.949 . S
H1972 C1949 0.950 . S
H1973 C1951 0.950 . S
C1974 C1975 1.349 . S
C1974 C1976 1.327 . S
C1974 H1999 0.950 . S
C1975 C1974 1.349 . S
C1975 C1991 1.349 . S
C1976 C1974 1.327 . S
C1976 C1995 1.429 . S
C1976 H2000 0.950 . S
C1977 C1994 1.574 . S
C1977 C1996 1.368 . S
C1977 H2001 0.949 . S
H1978 C1982 0.949 . S
C1979 C1980 1.349 . S
C1979 C1981 1.327 . S
C1979 H2002 0.950 . S
C1980 C1979 1.349 . S
C1980 C1992 1.349 . S
C1981 C1979 1.327 . S
C1981 C1997 1.429 . S
C1981 H2003 0.950 . S
C1982 H1978 0.949 . S
C1982 C1990 1.574 . S
C1982 C1998 1.368 . S
H1983 C1991 0.950 . S
H1984 C1989 0.950 . S
H1985 C1990 0.949 . S
H1986 C1992 0.950 . S
H1987 C1993 0.950 . S
H1988 C1994 0.949 . S
C1989 H1984 0.950 . S
C1989 C1991 1.327 . S
C1989 C1995 1.429 . S
C1990 C1982 1.574 . S
C1990 H1985 0.949 . S
C1990 C1996 1.368 . S
C1991 C1975 1.349 . S
C1991 H1983 0.950 . S
C1991 C1989 1.327 . S
C1992 C1980 1.349 . S
C1992 H1986 0.950 . S
C1992 C1993 1.327 . S
C1993 H1987 0.950 . S
C1993 C1992 1.327 . S
C1993 C1997 1.429 . S
C1994 C1977 1.574 . S
C1994 H1988 0.949 . S
C1994 C1998 1.368 . S
C1995 C1976 1.429 . S
C1995 C1989 1.429 . S
C1995 C1996 1.523 . S
C1996 C1977 1.368 . S
C1996 C1990 1.368 . S
C1996 C1995 1.523 . S
C1997 C1981 1.429 . S
C1997 C1993 1.429 . S
C1997 C1998 1.523 . S
C1998 C1982 1.368 . S
C1998 C1994 1.368 . S
C1998 C1997 1.523 . S
H1999 C1974 0.950 . S
H2000 C1976 0.950 . S
H2001 C1977 0.949 . S
H2002 C1979 0.950 . S
H2003 C1981 0.950 . S
C2004 C2005 1.349 . S
C2004 C2006 1.327 . S
C2004 H2029 0.950 . S
C2005 C2004 1.349 . S
C2005 C2021 1.349 . S
C2006 C2004 1.327 . S
C2006 C2025 1.429 . S
C2006 H2030 0.950 . S
C2007 C2024 1.574 . S
C2007 C2026 1.368 . S
C2007 H2031 0.949 . S
H2008 C2012 0.949 . S
C2009 C2010 1.349 . S
C2009 C2011 1.327 . S
C2009 H2032 0.950 . S
C2010 C2009 1.349 . S
C2010 C2022 1.349 . S
C2011 C2009 1.327 . S
C2011 C2027 1.429 . S
C2011 H2033 0.950 . S
C2012 H2008 0.949 . S
C2012 C2020 1.574 . S
C2012 C2028 1.368 . S
H2013 C2021 0.950 . S
H2014 C2019 0.950 . S
H2015 C2020 0.949 . S
H2016 C2022 0.950 . S
H2017 C2023 0.950 . S
H2018 C2024 0.949 . S
C2019 H2014 0.950 . S
C2019 C2021 1.327 . S
C2019 C2025 1.429 . S
C2020 C2012 1.574 . S
C2020 H2015 0.949 . S
C2020 C2026 1.368 . S
C2021 C2005 1.349 . S
C2021 H2013 0.950 . S
C2021 C2019 1.327 . S
C2022 C2010 1.349 . S
C2022 H2016 0.950 . S
C2022 C2023 1.327 . S
C2023 H2017 0.950 . S
C2023 C2022 1.327 . S
C2023 C2027 1.429 . S
C2024 C2007 1.574 . S
C2024 H2018 0.949 . S
C2024 C2028 1.368 . S
C2025 C2006 1.429 . S
C2025 C2019 1.429 . S
C2025 C2026 1.523 . S
C2026 C2007 1.368 . S
C2026 C2020 1.368 . S
C2026 C2025 1.523 . S
C2027 C2011 1.429 . S
C2027 C2023 1.429 . S
C2027 C2028 1.523 . S
C2028 C2012 1.368 . S
C2028 C2024 1.368 . S
C2028 C2027 1.523 . S
H2029 C2004 0.950 . S
H2030 C2006 0.950 . S
H2031 C2007 0.949 . S
H2032 C2009 0.950 . S
H2033 C2011 0.950 . S
C2034 C2035 1.349 . S
C2034 C2036 1.327 . S
C2034 H2059 0.950 . S
C2035 C2034 1.349 . S
C2035 C2051 1.349 . S
C2036 C2034 1.327 . S
C2036 C2055 1.429 . S
C2036 H2060 0.950 . S
C2037 C2054 1.574 . S
C2037 C2056 1.368 . S
C2037 H2061 0.949 . S
H2038 C2042 0.949 . S
C2039 C2040 1.349 . S
C2039 C2041 1.327 . S
C2039 H2062 0.950 . S
C2040 C2039 1.349 . S
C2040 C2052 1.349 . S
C2041 C2039 1.327 . S
C2041 C2057 1.429 . S
C2041 H2063 0.950 . S
C2042 H2038 0.949 . S
C2042 C2050 1.574 . S
C2042 C2058 1.368 . S
H2043 C2051 0.950 . S
H2044 C2049 0.950 . S
H2045 C2050 0.949 . S
H2046 C2052 0.950 . S
H2047 C2053 0.950 . S
H2048 C2054 0.949 . S
C2049 H2044 0.950 . S
C2049 C2051 1.327 . S
C2049 C2055 1.429 . S
C2050 C2042 1.574 . S
C2050 H2045 0.949 . S
C2050 C2056 1.368 . S
C2051 C2035 1.349 . S
C2051 H2043 0.950 . S
C2051 C2049 1.327 . S
C2052 C2040 1.349 . S
C2052 H2046 0.950 . S
C2052 C2053 1.327 . S
C2053 H2047 0.950 . S
C2053 C2052 1.327 . S
C2053 C2057 1.429 . S
C2054 C2037 1.574 . S
C2054 H2048 0.949 . S
C2054 C2058 1.368 . S
C2055 C2036 1.429 . S
C2055 C2049 1.429 . S
C2055 C2056 1.523 . S
C2056 C2037 1.368 . S
C2056 C2050 1.368 . S
C2056 C2055 1.523 . S
C2057 C2041 1.429 . S
C2057 C2053 1.429 . S
C2057 C2058 1.523 . S
C2058 C2042 1.368 . S
C2058 C2054 1.368 . S
C2058 C2057 1.523 . S
H2059 C2034 0.950 . S
H2060 C2036 0.950 . S
H2061 C2037 0.949 . S
H2062 C2039 0.950 . S
H2063 C2041 0.950 . S
C2064 C2065 1.349 . S
C2064 C2066 1.327 . S
C2064 H2089 0.950 . S
C2065 C2064 1.349 . S
C2065 C2081 1.349 . S
C2066 C2064 1.327 . S
C2066 C2085 1.429 . S
C2066 H2090 0.950 . S
C2067 C2084 1.574 . S
C2067 C2086 1.368 . S
C2067 H2091 0.949 . S
H2068 C2072 0.949 . S
C2069 C2070 1.349 . S
C2069 C2071 1.327 . S
C2069 H2092 0.950 . S
C2070 C2069 1.349 . S
C2070 C2082 1.349 . S
C2071 C2069 1.327 . S
C2071 C2087 1.429 . S
C2071 H2093 0.950 . S
C2072 H2068 0.949 . S
C2072 C2080 1.574 . S
C2072 C2088 1.368 . S
H2073 C2081 0.950 . S
H2074 C2079 0.950 . S
H2075 C2080 0.949 . S
H2076 C2082 0.950 . S
H2077 C2083 0.950 . S
H2078 C2084 0.949 . S
C2079 H2074 0.950 . S
C2079 C2081 1.327 . S
C2079 C2085 1.429 . S
C2080 C2072 1.574 . S
C2080 H2075 0.949 . S
C2080 C2086 1.368 . S
C2081 C2065 1.349 . S
C2081 H2073 0.950 . S
C2081 C2079 1.327 . S
C2082 C2070 1.349 . S
C2082 H2076 0.950 . S
C2082 C2083 1.327 . S
C2083 H2077 0.950 . S
C2083 C2082 1.327 . S
C2083 C2087 1.429 . S
C2084 C2067 1.574 . S
C2084 H2078 0.949 . S
C2084 C2088 1.368 . S
C2085 C2066 1.429 . S
C2085 C2079 1.429 . S
C2085 C2086 1.523 . S
C2086 C2067 1.368 . S
C2086 C2080 1.368 . S
C2086 C2085 1.523 . S
C2087 C2071 1.429 . S
C2087 C2083 1.429 . S
C2087 C2088 1.523 . S
C2088 C2072 1.368 . S
C2088 C2084 1.368 . S
C2088 C2087 1.523 . S
H2089 C2064 0.950 . S
H2090 C2066 0.950 . S
H2091 C2067 0.949 . S
H2092 C2069 0.950 . S
H2093 C2071 0.950 . S
C2094 C2095 1.349 . S
C2094 C2096 1.327 . S
C2094 H2119 0.950 . S
C2095 C2094 1.349 . S
C2095 C2111 1.349 . S
C2096 C2094 1.327 . S
C2096 C2115 1.429 . S
C2096 H2120 0.950 . S
C2097 C2114 1.574 . S
C2097 C2116 1.368 . S
C2097 H2121 0.949 . S
H2098 C2102 0.949 . S
C2099 C2100 1.349 . S
C2099 C2101 1.327 . S
C2099 H2122 0.950 . S
C2100 C2099 1.349 . S
C2100 C2112 1.349 . S
C2101 C2099 1.327 . S
C2101 C2117 1.429 . S
C2101 H2123 0.950 . S
C2102 H2098 0.949 . S
C2102 C2110 1.574 . S
C2102 C2118 1.368 . S
H2103 C2111 0.950 . S
H2104 C2109 0.950 . S
H2105 C2110 0.949 . S
H2106 C2112 0.950 . S
H2107 C2113 0.950 . S
H2108 C2114 0.949 . S
C2109 H2104 0.950 . S
C2109 C2111 1.327 . S
C2109 C2115 1.429 . S
C2110 C2102 1.574 . S
C2110 H2105 0.949 . S
C2110 C2116 1.368 . S
C2111 C2095 1.349 . S
C2111 H2103 0.950 . S
C2111 C2109 1.327 . S
C2112 C2100 1.349 . S
C2112 H2106 0.950 . S
C2112 C2113 1.327 . S
C2113 H2107 0.950 . S
C2113 C2112 1.327 . S
C2113 C2117 1.429 . S
C2114 C2097 1.574 . S
C2114 H2108 0.949 . S
C2114 C2118 1.368 . S
C2115 C2096 1.429 . S
C2115 C2109 1.429 . S
C2115 C2116 1.523 . S
C2116 C2097 1.368 . S
C2116 C2110 1.368 . S
C2116 C2115 1.523 . S
C2117 C2101 1.429 . S
C2117 C2113 1.429 . S
C2117 C2118 1.523 . S
C2118 C2102 1.368 . S
C2118 C2114 1.368 . S
C2118 C2117 1.523 . S
H2119 C2094 0.950 . S
H2120 C2096 0.950 . S
H2121 C2097 0.949 . S
H2122 C2099 0.950 . S
H2123 C2101 0.950 . S
C2124 C2125 1.349 . S
C2124 C2126 1.327 . S
C2124 H2149 0.950 . S
C2125 C2124 1.349 . S
C2125 C2141 1.349 . S
C2126 C2124 1.327 . S
C2126 C2145 1.429 . S
C2126 H2150 0.950 . S
C2127 C2144 1.574 . S
C2127 C2146 1.368 . S
C2127 H2151 0.949 . S
H2128 C2132 0.949 . S
C2129 C2130 1.349 . S
C2129 C2131 1.327 . S
C2129 H2152 0.950 . S
C2130 C2129 1.349 . S
C2130 C2142 1.349 . S
C2131 C2129 1.327 . S
C2131 C2147 1.429 . S
C2131 H2153 0.950 . S
C2132 H2128 0.949 . S
C2132 C2140 1.574 . S
C2132 C2148 1.368 . S
H2133 C2141 0.950 . S
H2134 C2139 0.950 . S
H2135 C2140 0.949 . S
H2136 C2142 0.950 . S
H2137 C2143 0.950 . S
H2138 C2144 0.949 . S
C2139 H2134 0.950 . S
C2139 C2141 1.327 . S
C2139 C2145 1.429 . S
C2140 C2132 1.574 . S
C2140 H2135 0.949 . S
C2140 C2146 1.368 . S
C2141 C2125 1.349 . S
C2141 H2133 0.950 . S
C2141 C2139 1.327 . S
C2142 C2130 1.349 . S
C2142 H2136 0.950 . S
C2142 C2143 1.327 . S
C2143 H2137 0.950 . S
C2143 C2142 1.327 . S
C2143 C2147 1.429 . S
C2144 C2127 1.574 . S
C2144 H2138 0.949 . S
C2144 C2148 1.368 . S
C2145 C2126 1.429 . S
C2145 C2139 1.429 . S
C2145 C2146 1.523 . S
C2146 C2127 1.368 . S
C2146 C2140 1.368 . S
C2146 C2145 1.523 . S
C2147 C2131 1.429 . S
C2147 C2143 1.429 . S
C2147 C2148 1.523 . S
C2148 C2132 1.368 . S
C2148 C2144 1.368 . S
C2148 C2147 1.523 . S
H2149 C2124 0.950 . S
H2150 C2126 0.950 . S
H2151 C2127 0.949 . S
H2152 C2129 0.950 . S
H2153 C2131 0.950 . S
C2154 C2155 1.349 . S
C2154 C2156 1.327 . S
C2154 H2179 0.950 . S
C2155 C2154 1.349 . S
C2155 C2171 1.349 . S
C2156 C2154 1.327 . S
C2156 C2175 1.429 . S
C2156 H2180 0.950 . S
C2157 C2174 1.574 . S
C2157 C2176 1.368 . S
C2157 H2181 0.949 . S
H2158 C2162 0.949 . S
C2159 C2160 1.349 . S
C2159 C2161 1.327 . S
C2159 H2182 0.950 . S
C2160 C2159 1.349 . S
C2160 C2172 1.349 . S
C2161 C2159 1.327 . S
C2161 C2177 1.429 . S
C2161 H2183 0.950 . S
C2162 H2158 0.949 . S
C2162 C2170 1.574 . S
C2162 C2178 1.368 . S
H2163 C2171 0.950 . S
H2164 C2169 0.950 . S
H2165 C2170 0.949 . S
H2166 C2172 0.950 . S
H2167 C2173 0.950 . S
H2168 C2174 0.949 . S
C2169 H2164 0.950 . S
C2169 C2171 1.327 . S
C2169 C2175 1.429 . S
C2170 C2162 1.574 . S
C2170 H2165 0.949 . S
C2170 C2176 1.368 . S
C2171 C2155 1.349 . S
C2171 H2163 0.950 . S
C2171 C2169 1.327 . S
C2172 C2160 1.349 . S
C2172 H2166 0.950 . S
C2172 C2173 1.327 . S
C2173 H2167 0.950 . S
C2173 C2172 1.327 . S
C2173 C2177 1.429 . S
C2174 C2157 1.574 . S
C2174 H2168 0.949 . S
C2174 C2178 1.368 . S
C2175 C2156 1.429 . S
C2175 C2169 1.429 . S
C2175 C2176 1.523 . S
C2176 C2157 1.368 . S
C2176 C2170 1.368 . S
C2176 C2175 1.523 . S
C2177 C2161 1.429 . S
C2177 C2173 1.429 . S
C2177 C2178 1.523 . S
C2178 C2162 1.368 . S
C2178 C2174 1.368 . S
C2178 C2177 1.523 . S
H2179 C2154 0.950 . S
H2180 C2156 0.950 . S
H2181 C2157 0.949 . S
H2182 C2159 0.950 . S
H2183 C2161 0.950 . S
C2184 C2185 1.349 . S
C2184 C2186 1.327 . S
C2184 H2209 0.950 . S
C2185 C2184 1.349 . S
C2185 C2201 1.349 . S
C2186 C2184 1.327 . S
C2186 C2205 1.429 . S
C2186 H2210 0.950 . S
C2187 C2204 1.574 . S
C2187 C2206 1.368 . S
C2187 H2211 0.949 . S
H2188 C2192 0.949 . S
C2189 C2190 1.349 . S
C2189 C2191 1.327 . S
C2189 H2212 0.950 . S
C2190 C2189 1.349 . S
C2190 C2202 1.349 . S
C2191 C2189 1.327 . S
C2191 C2207 1.429 . S
C2191 H2213 0.950 . S
C2192 H2188 0.949 . S
C2192 C2200 1.574 . S
C2192 C2208 1.368 . S
H2193 C2201 0.950 . S
H2194 C2199 0.950 . S
H2195 C2200 0.949 . S
H2196 C2202 0.950 . S
H2197 C2203 0.950 . S
H2198 C2204 0.949 . S
C2199 H2194 0.950 . S
C2199 C2201 1.327 . S
C2199 C2205 1.429 . S
C2200 C2192 1.574 . S
C2200 H2195 0.949 . S
C2200 C2206 1.368 . S
C2201 C2185 1.349 . S
C2201 H2193 0.950 . S
C2201 C2199 1.327 . S
C2202 C2190 1.349 . S
C2202 H2196 0.950 . S
C2202 C2203 1.327 . S
C2203 H2197 0.950 . S
C2203 C2202 1.327 . S
C2203 C2207 1.429 . S
C2204 C2187 1.574 . S
C2204 H2198 0.949 . S
C2204 C2208 1.368 . S
C2205 C2186 1.429 . S
C2205 C2199 1.429 . S
C2205 C2206 1.523 . S
C2206 C2187 1.368 . S
C2206 C2200 1.368 . S
C2206 C2205 1.523 . S
C2207 C2191 1.429 . S
C2207 C2203 1.429 . S
C2207 C2208 1.523 . S
C2208 C2192 1.368 . S
C2208 C2204 1.368 . S
C2208 C2207 1.523 . S
H2209 C2184 0.950 . S
H2210 C2186 0.950 . S
H2211 C2187 0.949 . S
H2212 C2189 0.950 . S
H2213 C2191 0.950 . S
C2214 C2215 1.349 . S
C2214 C2216 1.327 . S
C2214 H2239 0.950 . S
C2215 C2214 1.349 . S
C2215 C2231 1.349 . S
C2216 C2214 1.327 . S
C2216 C2235 1.429 . S
C2216 H2240 0.950 . S
C2217 C2234 1.574 . S
C2217 C2236 1.368 . S
C2217 H2241 0.949 . S
H2218 C2222 0.949 . S
C2219 C2220 1.349 . S
C2219 C2221 1.327 . S
C2219 H2242 0.950 . S
C2220 C2219 1.349 . S
C2220 C2232 1.349 . S
C2221 C2219 1.327 . S
C2221 C2237 1.429 . S
C2221 H2243 0.950 . S
C2222 H2218 0.949 . S
C2222 C2230 1.574 . S
C2222 C2238 1.368 . S
H2223 C2231 0.950 . S
H2224 C2229 0.950 . S
H2225 C2230 0.949 . S
H2226 C2232 0.950 . S
H2227 C2233 0.950 . S
H2228 C2234 0.949 . S
C2229 H2224 0.950 . S
C2229 C2231 1.327 . S
C2229 C2235 1.429 . S
C2230 C2222 1.574 . S
C2230 H2225 0.949 . S
C2230 C2236 1.368 . S
C2231 C2215 1.349 . S
C2231 H2223 0.950 . S
C2231 C2229 1.327 . S
C2232 C2220 1.349 . S
C2232 H2226 0.950 . S
C2232 C2233 1.327 . S
C2233 H2227 0.950 . S
C2233 C2232 1.327 . S
C2233 C2237 1.429 . S
C2234 C2217 1.574 . S
C2234 H2228 0.949 . S
C2234 C2238 1.368 . S
C2235 C2216 1.429 . S
C2235 C2229 1.429 . S
C2235 C2236 1.523 . S
C2236 C2217 1.368 . S
C2236 C2230 1.368 . S
C2236 C2235 1.523 . S
C2237 C2221 1.429 . S
C2237 C2233 1.429 . S
C2237 C2238 1.523 . S
C2238 C2222 1.368 . S
C2238 C2234 1.368 . S
C2238 C2237 1.523 . S
H2239 C2214 0.950 . S
H2240 C2216 0.950 . S
H2241 C2217 0.949 . S
H2242 C2219 0.950 . S
H2243 C2221 0.950 . S
C2244 C2245 1.349 . S
C2244 C2246 1.327 . S
C2244 H2269 0.950 . S
C2245 C2244 1.349 . S
C2245 C2261 1.349 . S
C2246 C2244 1.327 . S
C2246 C2265 1.429 . S
C2246 H2270 0.950 . S
C2247 C2264 1.574 . S
C2247 C2266 1.368 . S
C2247 H2271 0.949 . S
H2248 C2252 0.949 . S
C2249 C2250 1.349 . S
C2249 C2251 1.327 . S
C2249 H2272 0.950 . S
C2250 C2249 1.349 . S
C2250 C2262 1.349 . S
C2251 C2249 1.327 . S
C2251 C2267 1.429 . S
C2251 H2273 0.950 . S
C2252 H2248 0.949 . S
C2252 C2260 1.574 . S
C2252 C2268 1.368 . S
H2253 C2261 0.950 . S
H2254 C2259 0.950 . S
H2255 C2260 0.949 . S
H2256 C2262 0.950 . S
H2257 C2263 0.950 . S
H2258 C2264 0.949 . S
C2259 H2254 0.950 . S
C2259 C2261 1.327 . S
C2259 C2265 1.429 . S
C2260 C2252 1.574 . S
C2260 H2255 0.949 . S
C2260 C2266 1.368 . S
C2261 C2245 1.349 . S
C2261 H2253 0.950 . S
C2261 C2259 1.327 . S
C2262 C2250 1.349 . S
C2262 H2256 0.950 . S
C2262 C2263 1.327 . S
C2263 H2257 0.950 . S
C2263 C2262 1.327 . S
C2263 C2267 1.429 . S
C2264 C2247 1.574 . S
C2264 H2258 0.949 . S
C2264 C2268 1.368 . S
C2265 C2246 1.429 . S
C2265 C2259 1.429 . S
C2265 C2266 1.523 . S
C2266 C2247 1.368 . S
C2266 C2260 1.368 . S
C2266 C2265 1.523 . S
C2267 C2251 1.429 . S
C2267 C2263 1.429 . S
C2267 C2268 1.523 . S
C2268 C2252 1.368 . S
C2268 C2264 1.368 . S
C2268 C2267 1.523 . S
H2269 C2244 0.950 . S
H2270 C2246 0.950 . S
H2271 C2247 0.949 . S
H2272 C2249 0.950 . S
H2273 C2251 0.950 . S
C2274 C2275 1.349 . S
C2274 C2276 1.327 . S
C2274 H2299 0.950 . S
C2275 C2274 1.349 . S
C2275 C2291 1.349 . S
C2276 C2274 1.327 . S
C2276 C2295 1.429 . S
C2276 H2300 0.950 . S
C2277 C2294 1.574 . S
C2277 C2296 1.368 . S
C2277 H2301 0.949 . S
H2278 C2282 0.949 . S
C2279 C2280 1.349 . S
C2279 C2281 1.327 . S
C2279 H2302 0.950 . S
C2280 C2279 1.349 . S
C2280 C2292 1.349 . S
C2281 C2279 1.327 . S
C2281 C2297 1.429 . S
C2281 H2303 0.950 . S
C2282 H2278 0.949 . S
C2282 C2290 1.574 . S
C2282 C2298 1.368 . S
H2283 C2291 0.950 . S
H2284 C2289 0.950 . S
H2285 C2290 0.949 . S
H2286 C2292 0.950 . S
H2287 C2293 0.950 . S
H2288 C2294 0.949 . S
C2289 H2284 0.950 . S
C2289 C2291 1.327 . S
C2289 C2295 1.429 . S
C2290 C2282 1.574 . S
C2290 H2285 0.949 . S
C2290 C2296 1.368 . S
C2291 C2275 1.349 . S
C2291 H2283 0.950 . S
C2291 C2289 1.327 . S
C2292 C2280 1.349 . S
C2292 H2286 0.950 . S
C2292 C2293 1.327 . S
C2293 H2287 0.950 . S
C2293 C2292 1.327 . S
C2293 C2297 1.429 . S
C2294 C2277 1.574 . S
C2294 H2288 0.949 . S
C2294 C2298 1.368 . S
C2295 C2276 1.429 . S
C2295 C2289 1.429 . S
C2295 C2296 1.523 . S
C2296 C2277 1.368 . S
C2296 C2290 1.368 . S
C2296 C2295 1.523 . S
C2297 C2281 1.429 . S
C2297 C2293 1.429 . S
C2297 C2298 1.523 . S
C2298 C2282 1.368 . S
C2298 C2294 1.368 . S
C2298 C2297 1.523 . S
H2299 C2274 0.950 . S
H2300 C2276 0.950 . S
H2301 C2277 0.949 . S
H2302 C2279 0.950 . S
H2303 C2281 0.950 . S
C870 C689 1.593 . S
C865 C56 1.578 . S
C900 C694 1.310 . S
C895 C154 1.234 . S
C930 C695 1.534 . S
C925 C236 1.523 . S
C955 C310 0.800 . S
C960 C699 0.551 . S
C985 C394 1.232 . S
C990 C702 1.310 . S
C1020 C703 1.534 . S
C1015 C476 1.516 . S
C1045 C574 0.800 . S
C1050 C680 0.549 . S
C1075 C656 1.581 . S
C1080 C696 1.595 . S
C1110 C734 2.342 . S
C1105 C67 2.423 . S
C1135 C139 1.526 . S
C1140 C760 1.487 . S
C1170 C712 1.293 . S
C1165 C238 1.228 . S
C1200 C767 1.486 . S
C1195 C308 1.476 . S
C1225 C392 1.506 . S
C1230 C721 1.505 . S
C1260 C763 2.329 . S
C1255 C487 2.409 . S
C1285 C559 1.546 . S
C1290 C727 1.510 . S
C1315 C658 1.221 . S
C1320 C758 1.290 . S
C1345 C58 1.222 . S
C1350 C766 1.280 . S
C1375 C403 1.526 . S
C1380 C753 1.490 . S
C1410 C731 1.293 . S
C1405 C478 1.231 . S
C1440 C759 1.486 . S
C1435 C572 1.484 . S
C1465 C643 2.427 . S
C1470 C726 2.346 . S
C1495 C223 2.410 . S
C1500 C744 2.329 . S
C1530 C735 1.508 . S
C1525 C319 1.546 . S
C1555 C152 1.506 . S
C1560 C728 1.497 . S
C1585 C644 1.547 . S
C1590 C790 1.535 . S
C1615 C406 1.202 . S
C1620 C785 1.280 . S
C1650 C799 1.464 . S
C1645 C488 1.497 . S
C1680 C776 0.415 . S
C1675 C562 0.822 . S
C1705 C142 1.202 . S
C1710 C792 1.277 . S
C1740 C791 1.464 . S
C1735 C224 1.492 . S
C1765 C322 0.820 . S
C1770 C795 0.416 . S
C1795 C68 1.548 . S
C1800 C798 1.530 . S
C1825 C655 2.433 . S
C1830 C824 2.385 . S
C1860 C840 1.473 . S
C1855 C391 1.542 . S
C1885 C490 1.236 . S
C1890 C822 1.306 . S
C1915 C560 1.502 . S
C1920 C855 1.500 . S
C1950 C831 1.476 . S
C1945 C140 1.492 . S
C1975 C235 2.447 . S
C1980 C849 2.380 . S
C2010 C827 1.461 . S
C2005 C307 1.528 . S
C2040 C862 1.313 . S
C2035 C70 1.244 . S
C2070 C854 1.313 . S
C2065 C646 1.250 . S
C2095 C151 1.541 . S
C2100 C859 1.471 . S
C2125 C226 1.236 . S
C2130 C830 1.312 . S
C2160 C863 1.500 . S
C2155 C320 1.503 . S
C2185 C55 2.433 . S
C2190 C817 2.379 . S
C2215 C475 2.447 . S
C2220 C856 2.376 . S
C2250 C808 1.461 . S
C2245 C571 1.532 . S
C2280 C823 1.476 . S
C2275 C404 1.488 . S
