# Generated by pormake.
# Topology zzz, (3,6)-cn, num edge types: 1
# Building blocks:
#     Node 0, Type 0, BuildingBlock: OLANEW_clean_sbu_2, # of connection points: 3
#     Node 1, Type 0, BuildingBlock: OLANEW_clean_sbu_2, # of connection points: 3
#     Node 2, Type 0, BuildingBlock: OLANEW_clean_sbu_2, # of connection points: 3
#     Node 3, Type 0, BuildingBlock: OLANEW_clean_sbu_2, # of connection points: 3
#     Node 4, Type 0, BuildingBlock: OLANEW_clean_sbu_2, # of connection points: 3
#     Node 5, Type 0, BuildingBlock: OLANEW_clean_sbu_2, # of connection points: 3
#     Node 6, Type 0, BuildingBlock: OLANEW_clean_sbu_2, # of connection points: 3
#     Node 7, Type 0, BuildingBlock: OLANEW_clean_sbu_2, # of connection points: 3
#     Node 8, Type 1, BuildingBlock: BETDAH_clean_sbu_0, # of connection points: 6
#     Node 9, Type 1, BuildingBlock: BETDAH_clean_sbu_0, # of connection points: 6
#     Node 10, Type 1, BuildingBlock: BETDAH_clean_sbu_0, # of connection points: 6
#     Node 11, Type 1, BuildingBlock: BETDAH_clean_sbu_0, # of connection points: 6
#     Edge 12, Type (0, 1), BuildingBlock: AJUNOK_clean_linker_0, # of connection points: 2
#     Edge 13, Type (0, 1), BuildingBlock: AJUNOK_clean_linker_0, # of connection points: 2
#     Edge 14, Type (0, 1), BuildingBlock: AJUNOK_clean_linker_0, # of connection points: 2
#     Edge 15, Type (0, 1), BuildingBlock: AJUNOK_clean_linker_0, # of connection points: 2
#     Edge 16, Type (0, 1), BuildingBlock: AJUNOK_clean_linker_0, # of connection points: 2
#     Edge 17, Type (0, 1), BuildingBlock: AJUNOK_clean_linker_0, # of connection points: 2
#     Edge 18, Type (0, 1), BuildingBlock: AJUNOK_clean_linker_0, # of connection points: 2
#     Edge 19, Type (0, 1), BuildingBlock: AJUNOK_clean_linker_0, # of connection points: 2
#     Edge 20, Type (0, 1), BuildingBlock: AJUNOK_clean_linker_0, # of connection points: 2
#     Edge 21, Type (0, 1), BuildingBlock: AJUNOK_clean_linker_0, # of connection points: 2
#     Edge 22, Type (0, 1), BuildingBlock: AJUNOK_clean_linker_0, # of connection points: 2
#     Edge 23, Type (0, 1), BuildingBlock: AJUNOK_clean_linker_0, # of connection points: 2
#     Edge 24, Type (0, 1), BuildingBlock: AJUNOK_clean_linker_0, # of connection points: 2
#     Edge 25, Type (0, 1), BuildingBlock: AJUNOK_clean_linker_0, # of connection points: 2
#     Edge 26, Type (0, 1), BuildingBlock: AJUNOK_clean_linker_0, # of connection points: 2
#     Edge 27, Type (0, 1), BuildingBlock: AJUNOK_clean_linker_0, # of connection points: 2
#     Edge 28, Type (0, 1), BuildingBlock: AJUNOK_clean_linker_0, # of connection points: 2
#     Edge 29, Type (0, 1), BuildingBlock: AJUNOK_clean_linker_0, # of connection points: 2
#     Edge 30, Type (0, 1), BuildingBlock: AJUNOK_clean_linker_0, # of connection points: 2
#     Edge 31, Type (0, 1), BuildingBlock: AJUNOK_clean_linker_0, # of connection points: 2
#     Edge 32, Type (0, 1), BuildingBlock: AJUNOK_clean_linker_0, # of connection points: 2
#     Edge 33, Type (0, 1), BuildingBlock: AJUNOK_clean_linker_0, # of connection points: 2
#     Edge 34, Type (0, 1), BuildingBlock: AJUNOK_clean_linker_0, # of connection points: 2
#     Edge 35, Type (0, 1), BuildingBlock: AJUNOK_clean_linker_0, # of connection points: 2
# Relax obj value: 0.304
# Max RMSD: 0.209
# Mean RMSD: 0.176
data_MOF--net-zzz--node1-OLANEW_clean_sbu_2--node2-BETDAH_clean_sbu_0--edge1-AJUNOK_clean_linker_0
_symmetry_space_group_name_H-M    P1
_symmetry_Int_Tables_number       1
_symmetry_cell_setting            triclinic
loop_
_symmetry_equiv_pos_as_xyz
'x, y, z'
_cell_length_a     42.851659
_cell_length_b     42.887836
_cell_length_c     11.539134
_cell_angle_alpha  89.622524
_cell_angle_beta   89.908759
_cell_angle_gamma 90.009682
loop_
_atom_site_label
_atom_site_type_symbol
_atom_site_fract_x
_atom_site_fract_y
_atom_site_fract_z
_atom_type_partial_charge
O0 O 0.72426 0.59418 0.2166 0.0
Cd1 Cd 0.67241 0.61174 0.27484 0.0
O2 O 0.71333 0.54967 0.30288 0.0
Cd3 Cd 0.73314 0.50573 0.3633 0.0
O4 O 0.78012 0.49349 0.4185 0.0
C5 C 0.79325 0.51417 0.47997 0.0
O6 O 0.77734 0.53926 0.50741 0.0
C7 C 0.73189 0.56646 0.2433 0.0
C8 C 0.62895 0.58156 0.13563 0.0
O9 O 0.64123 0.60758 0.1048 0.0
O10 O 0.63662 0.57014 0.23445 0.0
O11 O 0.92139 0.71738 0.1817 0.0
Cd12 Cd 0.89594 0.66716 0.21278 0.0
O13 O 0.90723 0.73121 0.35645 0.0
Cd14 Cd 0.909 0.76328 0.50161 0.0
O15 O 0.9252 0.80365 0.59651 0.0
C16 C 0.91307 0.82987 0.57223 0.0
O17 O 0.88942 0.83098 0.5001 0.0
C18 C 0.92111 0.73754 0.26165 0.0
C19 C 0.92299 0.62366 0.06581 0.0
O20 O 0.89935 0.63987 0.03386 0.0
O21 O 0.93338 0.62761 0.16874 0.0
O22 O 0.79032 0.00283 0.35218 0.0
Cd23 Cd 0.84248 0.98517 0.40537 0.0
O24 O 0.77476 0.96435 0.46356 0.0
Cd25 Cd 0.73757 0.93559 0.53437 0.0
O26 O 0.69004 0.92931 0.59313 0.0
C27 C 0.68368 0.9331 0.69956 0.0
O28 O 0.70672 0.93749 0.77263 0.0
C29 C 0.76824 0.98723 0.39737 0.0
C30 C 0.8843 0.9939 0.22401 0.0
O31 O 0.86693 0.96961 0.22911 0.0
O32 O 0.88189 0.01406 0.30504 0.0
O33 O 0.45064 0.78161 0.4357 0.0
Cd34 Cd 0.46099 0.83298 0.51515 0.0
O35 O 0.50057 0.78079 0.39212 0.0
Cd36 Cd 0.5403 0.75161 0.34399 0.0
O37 O 0.54503 0.70304 0.39705 0.0
C38 C 0.5331 0.69875 0.49675 0.0
O39 O 0.52298 0.72323 0.55338 0.0
C40 C 0.47386 0.76782 0.39071 0.0
C41 C 0.47124 0.87372 0.33078 0.0
O42 O 0.49353 0.85725 0.37256 0.0
O43 O 0.44429 0.87155 0.37854 0.0
O44 O 0.27012 0.48798 0.17034 0.0
Cd45 Cd 0.32368 0.47373 0.12121 0.0
O46 O 0.25705 0.44082 0.11593 0.0
Cd47 Cd 0.21889 0.40935 0.07504 0.0
O48 O 0.17064 0.41349 0.02009 0.0
C49 C 0.16577 0.43467 0.94483 0.0
O50 O 0.18971 0.45032 0.90329 0.0
C51 C 0.24938 0.46721 0.1567 0.0
C52 C 0.36332 0.48421 0.30802 0.0
O53 O 0.36001 0.50469 0.22756 0.0
O54 O 0.34814 0.45859 0.29926 0.0
O55 O 0.06913 0.26711 0.20113 0.0
Cd56 Cd 0.08372 0.32116 0.16631 0.0
O57 O 0.11545 0.24926 0.15328 0.0
Cd58 Cd 0.14387 0.20859 0.11308 0.0
O59 O 0.13443 0.16127 0.05666 0.0
C60 C 0.11141 0.15939 0.98785 0.0
O61 O 0.09774 0.1853 0.9538 0.0
C62 C 0.08769 0.24435 0.18816 0.0
C63 C 0.05015 0.35775 0.32094 0.0
O64 O 0.03947 0.35195 0.21969 0.0
O65 O 0.077 0.34672 0.34776 0.0
O66 O 0.23707 0.99383 0.169 0.0
Cd67 Cd 0.18242 0.00245 0.12319 0.0
O68 O 0.23867 0.04448 0.19432 0.0
Cd69 Cd 0.26823 0.08518 0.21873 0.0
O70 O 0.31628 0.08687 0.15915 0.0
C71 C 0.32043 0.07432 0.06083 0.0
O72 O 0.29587 0.06467 0.00326 0.0
C73 C 0.25222 0.01809 0.1966 0.0
C74 C 0.14693 0.99171 0.32157 0.0
O75 O 0.14895 0.97101 0.2423 0.0
O76 O 0.16137 0.01754 0.30623 0.0
O77 O 0.52836 0.2239 0.23566 0.0
Cd78 Cd 0.5201 0.16972 0.18144 0.0
O79 O 0.48135 0.23359 0.16888 0.0
Cd80 Cd 0.4477 0.26975 0.12341 0.0
O81 O 0.44598 0.31896 0.07737 0.0
C82 C 0.44729 0.32644 0.97085 0.0
O83 O 0.44712 0.30422 0.89301 0.0
C84 C 0.50618 0.24292 0.21791 0.0
C85 C 0.52092 0.13226 0.37932 0.0
O86 O 0.54556 0.13614 0.31779 0.0
O87 O 0.4958 0.14586 0.34636 0.0
Ho88 Ho 0.02802 0.97419 0.89896 0.0
Ho89 Ho 0.01054 0.00557 0.66353 0.0
C90 C 0.98356 0.93869 0.71011 0.0
C91 C 0.02601 0.94388 0.09291 0.0
C92 C 0.00941 0.91546 0.13124 0.0
C93 C 0.97845 0.90968 0.09722 0.0
C94 C 0.96411 0.88126 0.12468 0.0
C95 C 0.98057 0.858 0.18532 0.0
C96 C 0.01117 0.86421 0.2223 0.0
C97 C 0.02545 0.8927 0.19551 0.0
C98 C 0.06998 0.96955 0.72691 0.0
C99 C 0.05325 0.04271 0.85505 0.0
C100 C 0.01276 0.03343 0.46461 0.0
C101 C 0.02359 0.06389 0.41883 0.0
C102 C 0.05165 0.06578 0.35582 0.0
C103 C 0.06195 0.09437 0.31122 0.0
C104 C 0.04416 0.12149 0.32693 0.0
C105 C 0.01602 0.1196 0.38906 0.0
C106 C 0.00581 0.09111 0.43457 0.0
C107 C 0.96837 0.01038 0.8348 0.0
O108 O 0.99178 0.94217 0.82003 0.0
O109 O 0.99275 0.95812 0.62781 0.0
O110 O 0.0477 0.93953 0.01468 0.0
O111 O 0.00885 0.96853 0.07132 0.0
O112 O 0.07773 0.97298 0.8349 0.0
O113 O 0.04087 0.96734 0.71748 0.0
O114 O 0.04307 0.04036 0.74685 0.0
O115 O 0.04771 0.02125 0.93546 0.0
O116 O 0.98803 0.03348 0.53155 0.0
O117 O 0.03444 0.01428 0.50146 0.0
O118 O 0.96067 0.00742 0.72655 0.0
O119 O 0.99749 0.01229 0.84462 0.0
H120 H 0.96557 0.92678 0.04696 0.0
H121 H 0.94051 0.87705 0.09513 0.0
H122 H 0.02417 0.84686 0.27083 0.0
H123 H 0.04931 0.89669 0.22262 0.0
H124 H 0.06569 0.04516 0.34122 0.0
H125 H 0.08375 0.09533 0.26401 0.0
H126 H 0.00213 0.14029 0.40414 0.0
H127 H 0.98399 0.09049 0.48199 0.0
Ho128 Ho 0.51471 0.01859 0.9821 0.0
Ho129 Ho 0.49009 0.99413 0.75007 0.0
C130 C 0.55938 0.97642 0.81336 0.0
C131 C 0.54268 0.02364 0.17893 0.0
C132 C 0.57563 0.02032 0.21485 0.0
C133 C 0.58357 0.99871 0.30181 0.0
C134 C 0.61475 0.99443 0.33394 0.0
C135 C 0.63861 0.01174 0.27987 0.0
C136 C 0.63067 0.03321 0.19233 0.0
C137 C 0.59951 0.03747 0.16009 0.0
C138 C 0.51995 0.0575 0.7996 0.0
C139 C 0.44451 0.0336 0.92492 0.0
C140 C 0.46589 0.98912 0.54584 0.0
C141 C 0.43572 0.99507 0.48764 0.0
C142 C 0.42407 0.02547 0.47179 0.0
C143 C 0.39557 0.03033 0.41544 0.0
C144 C 0.37835 0.00497 0.37304 0.0
C145 C 0.39014 0.97466 0.38814 0.0
C146 C 0.4185 0.9698 0.44494 0.0
C147 C 0.48622 0.95454 0.93065 0.0
O148 O 0.55321 0.9868 0.91876 0.0
O149 O 0.53974 0.9805 0.72661 0.0
O150 O 0.5358 0.04761 0.11288 0.0
O151 O 0.52895 0.99798 0.14544 0.0
O152 O 0.51285 0.06692 0.90291 0.0
O153 O 0.52485 0.02869 0.7997 0.0
O154 O 0.45105 0.02511 0.81704 0.0
O155 O 0.46454 0.02924 0.01046 0.0
O156 O 0.46644 0.96628 0.6216 0.0
O157 O 0.48203 0.0134 0.57926 0.0
O158 O 0.49247 0.94557 0.82593 0.0
O159 O 0.48062 0.98325 0.93253 0.0
H160 H 0.56564 0.985 0.34452 0.0
H161 H 0.62024 0.97726 0.39995 0.0
H162 H 0.64858 0.04678 0.14895 0.0
H163 H 0.59423 0.05403 0.09162 0.0
H164 H 0.43679 0.0455 0.50344 0.0
H165 H 0.38693 0.05393 0.4052 0.0
H166 H 0.37705 0.95463 0.35864 0.0
H167 H 0.42689 0.94616 0.45661 0.0
Ho168 Ho 0.48469 0.52432 0.86888 0.0
Ho169 Ho 0.51211 0.49925 0.63816 0.0
C170 C 0.51045 0.57267 0.66765 0.0
C171 C 0.47431 0.55055 0.06697 0.0
C172 C 0.47034 0.58191 0.1152 0.0
C173 C 0.45769 0.60626 0.04855 0.0
C174 C 0.45552 0.63626 0.09435 0.0
C175 C 0.46618 0.6424 0.20704 0.0
C176 C 0.47753 0.61768 0.27527 0.0
C177 C 0.47976 0.58767 0.22942 0.0
C178 C 0.44355 0.51266 0.69808 0.0
C179 C 0.48297 0.45205 0.83346 0.0
C180 C 0.52296 0.46885 0.44926 0.0
C181 C 0.52052 0.43588 0.41575 0.0
C182 C 0.51726 0.41249 0.50057 0.0
C183 C 0.5151 0.38121 0.46863 0.0
C184 C 0.51671 0.37275 0.3514 0.0
C185 C 0.52072 0.39609 0.26681 0.0
C186 C 0.5221 0.42748 0.29865 0.0
C187 C 0.55374 0.51348 0.80389 0.0
O188 O 0.50288 0.56781 0.77821 0.0
O189 O 0.51195 0.54981 0.59118 0.0
O190 O 0.45222 0.54059 0.99844 0.0
O191 O 0.50222 0.54381 0.02867 0.0
O192 O 0.43744 0.508 0.80696 0.0
O193 O 0.47006 0.52468 0.68661 0.0
O194 O 0.48855 0.45786 0.72268 0.0
O195 O 0.48597 0.47374 0.91312 0.0
O196 O 0.54433 0.47503 0.52653 0.0
O197 O 0.49661 0.48325 0.46988 0.0
O198 O 0.55874 0.51716 0.69378 0.0
O199 O 0.52769 0.50033 0.81987 0.0
H200 H 0.4498 0.60214 0.96085 0.0
H201 H 0.44579 0.65477 0.04138 0.0
H202 H 0.48544 0.62175 0.36282 0.0
H203 H 0.48928 0.56904 0.28257 0.0
H204 H 0.51655 0.41834 0.59153 0.0
H205 H 0.51249 0.36358 0.53563 0.0
H206 H 0.52231 0.39006 0.17603 0.0
H207 H 0.52439 0.44511 0.23175 0.0
Ho208 Ho 0.96862 0.47441 0.8171 0.0
Ho209 Ho 0.99582 0.4965 0.57959 0.0
C210 C 0.92297 0.4993 0.6134 0.0
C211 C 0.93727 0.47018 0.00743 0.0
C212 C 0.90851 0.48529 0.04871 0.0
C213 C 0.90253 0.51691 0.02485 0.0
C214 C 0.87435 0.53051 0.05865 0.0
C215 C 0.85127 0.51251 0.11397 0.0
C216 C 0.85743 0.48089 0.13811 0.0
C217 C 0.88588 0.46749 0.10657 0.0
C218 C 0.98183 0.42941 0.66258 0.0
C219 C 0.0416 0.47038 0.78915 0.0
C220 C 0.02509 0.503 0.38387 0.0
C221 C 0.05787 0.50073 0.34723 0.0
C222 C 0.08159 0.49963 0.4305 0.0
C223 C 0.11258 0.49521 0.39718 0.0
C224 C 0.12042 0.4924 0.27952 0.0
C225 C 0.09685 0.49502 0.19556 0.0
C226 C 0.06565 0.49869 0.22936 0.0
C227 C 0.98221 0.54163 0.73294 0.0
O228 O 0.92875 0.49835 0.7259 0.0
O229 O 0.94497 0.49404 0.53533 0.0
O230 O 0.9337 0.45081 0.92123 0.0
O231 O 0.96171 0.48822 0.99483 0.0
O232 O 0.98504 0.42587 0.77381 0.0
O233 O 0.97016 0.45568 0.64101 0.0
O234 O 0.03768 0.47687 0.67713 0.0
O235 O 0.01855 0.47165 0.86491 0.0
O236 O 0.01839 0.5262 0.4525 0.0
O237 O 0.01231 0.47686 0.41837 0.0
O238 O 0.97859 0.54473 0.62182 0.0
O239 O 0.99413 0.51549 0.75551 0.0
H240 H 0.91933 0.53096 0.97801 0.0
H241 H 0.87022 0.55484 0.03816 0.0
H242 H 0.84017 0.46641 0.18089 0.0
H243 H 0.88997 0.44304 0.12521 0.0
H244 H 0.07599 0.50191 0.5213 0.0
H245 H 0.13045 0.49379 0.46336 0.0
H246 H 0.10246 0.4932 0.10434 0.0
H247 H 0.04762 0.49945 0.16374 0.0
C248 C 0.10336 0.96458 0.42453 0.0
C249 C 0.12823 0.98597 0.42728 0.0
C250 C 0.08479 0.9592 0.52264 0.0
C251 C 0.09094 0.97444 0.62751 0.0
H252 H 0.09776 0.95235 0.34536 0.0
H253 H 0.06543 0.94304 0.51635 0.0
S254 S 0.1532 0.03252 0.68108 0.0
N255 N 0.15785 0.02265 0.54397 0.0
N256 N 0.12333 0.01179 0.72913 0.0
C257 C 0.11592 0.99552 0.6323 0.0
C258 C 0.13445 0.00153 0.5318 0.0
C259 C 0.49819 0.11731 0.57164 0.0
C260 C 0.52145 0.11313 0.48662 0.0
C261 C 0.49831 0.09985 0.67483 0.0
C262 C 0.52123 0.07712 0.69495 0.0
H263 H 0.47988 0.1344 0.55896 0.0
H264 H 0.47995 0.10361 0.73789 0.0
S265 S 0.58778 0.05762 0.50368 0.0
N266 N 0.56866 0.08512 0.43246 0.0
N267 N 0.56809 0.05167 0.62485 0.0
C268 C 0.54456 0.07262 0.61135 0.0
C269 C 0.5449 0.09082 0.50753 0.0
C270 C 0.40699 0.51356 0.40013 0.0
C271 C 0.38393 0.49027 0.40835 0.0
C272 C 0.42641 0.52034 0.49413 0.0
C273 C 0.42305 0.50456 0.60052 0.0
H274 H 0.41022 0.52659 0.32025 0.0
H275 H 0.44389 0.53842 0.48383 0.0
S276 S 0.36717 0.44095 0.66693 0.0
N277 N 0.35963 0.45068 0.53109 0.0
N278 N 0.39578 0.46411 0.70848 0.0
C279 C 0.40033 0.48113 0.61015 0.0
C280 C 0.38088 0.47378 0.51378 0.0
C281 C 0.0407 0.37567 0.52354 0.0
C282 C 0.03185 0.37595 0.40602 0.0
C283 C 0.02377 0.39227 0.60671 0.0
C284 C 0.99757 0.41004 0.57527 0.0
H285 H 0.06086 0.36247 0.55193 0.0
H286 H 0.03174 0.39176 0.69578 0.0
S287 S 0.96423 0.41853 0.28044 0.0
N288 N 0.99475 0.39548 0.26312 0.0
N289 N 0.96295 0.42656 0.42013 0.0
C290 C 0.98817 0.41034 0.45876 0.0
C291 C 0.00533 0.39336 0.37388 0.0
C292 C 0.90053 0.9836 0.0199 0.0
C293 C 0.90608 0.99866 0.12598 0.0
C294 C 0.92042 0.98808 0.92473 0.0
C295 C 0.94688 0.0072 0.93342 0.0
H296 H 0.88048 0.96848 0.00977 0.0
H297 H 0.91541 0.97601 0.84469 0.0
S298 S 0.9721 0.05175 0.19054 0.0
N299 N 0.93999 0.03369 0.23315 0.0
N300 N 0.97775 0.04137 0.05469 0.0
C301 C 0.95289 0.02221 0.03867 0.0
C302 C 0.93237 0.01815 0.13493 0.0
C303 C 0.4557 0.91945 0.20921 0.0
C304 C 0.47618 0.89436 0.22926 0.0
C305 C 0.45954 0.93924 0.11334 0.0
C306 C 0.48325 0.93387 0.03184 0.0
H307 H 0.43656 0.9239 0.26802 0.0
H308 H 0.44338 0.95844 0.1015 0.0
S309 S 0.54299 0.87159 0.04271 0.0
N310 N 0.52148 0.86566 0.15975 0.0
N311 N 0.52769 0.90223 0.97653 0.0
C312 C 0.50375 0.90886 0.04968 0.0
C313 C 0.50046 0.88923 0.14923 0.0
C314 C 0.60728 0.57316 0.93796 0.0
C315 C 0.60808 0.56449 0.05567 0.0
C316 C 0.58961 0.55637 0.85796 0.0
C317 C 0.57169 0.53046 0.89244 0.0
H318 H 0.62091 0.59273 0.9064 0.0
H319 H 0.58998 0.56391 0.76815 0.0
S320 S 0.56457 0.49883 0.19068 0.0
N321 N 0.58858 0.5287 0.20343 0.0
N322 N 0.55519 0.49715 0.05205 0.0
C323 C 0.57169 0.52179 0.00991 0.0
C324 C 0.58992 0.53881 0.09174 0.0
C325 C 0.9289 0.60156 0.8673 0.0
C326 C 0.93841 0.60202 0.98403 0.0
C327 C 0.94365 0.58235 0.78645 0.0
C328 C 0.96817 0.56251 0.81941 0.0
H329 H 0.91 0.61632 0.83746 0.0
H330 H 0.93541 0.58272 0.69774 0.0
S331 S 0.0023 0.5547 0.11309 0.0
N332 N 0.97427 0.58079 0.12802 0.0
N333 N 0.00189 0.54464 0.97522 0.0
C334 C 0.97806 0.56263 0.93531 0.0
C335 C 0.96318 0.58236 0.01787 0.0
C336 C 0.09614 0.192 0.27881 0.0
C337 C 0.07693 0.21237 0.21495 0.0
C338 C 0.0857 0.16225 0.31164 0.0
C339 C 0.05554 0.15198 0.28292 0.0
H340 H 0.11908 0.19943 0.3066 0.0
H341 H 0.10097 0.14757 0.36312 0.0
S342 S 0.99716 0.19547 0.1087 0.0
N343 N 0.02704 0.21963 0.11884 0.0
N344 N 0.00737 0.16364 0.18057 0.0
C345 C 0.03639 0.17183 0.21671 0.0
C346 C 0.04705 0.20209 0.18313 0.0
C347 C 0.2942 0.03059 0.33734 0.0
C348 C 0.28498 0.01571 0.2348 0.0
C349 C 0.3247 0.02773 0.37943 0.0
C350 C 0.34711 0.00983 0.32057 0.0
H351 H 0.27747 0.04397 0.38695 0.0
H352 H 0.33051 0.03889 0.46046 0.0
S353 S 0.3357 0.96957 0.04031 0.0
N354 N 0.30109 0.98446 0.07055 0.0
N355 N 0.35875 0.97943 0.14871 0.0
C356 C 0.33847 0.99573 0.21564 0.0
C357 C 0.30729 0.99849 0.17317 0.0
C358 C 0.53494 0.2937 0.22006 0.0
C359 C 0.509 0.27573 0.25373 0.0
C360 C 0.53715 0.32529 0.25054 0.0
C361 C 0.51379 0.33962 0.31757 0.0
H362 H 0.55334 0.28342 0.16836 0.0
H363 H 0.5574 0.33851 0.22272 0.0
S364 S 0.44172 0.30222 0.42958 0.0
N365 N 0.46001 0.27413 0.35966 0.0
N366 N 0.46401 0.33344 0.41586 0.0
C367 C 0.48796 0.32171 0.35242 0.0
C368 C 0.48563 0.28975 0.3209 0.0
C369 C 0.20114 0.50008 0.14469 0.0
C370 C 0.21655 0.47347 0.18769 0.0
C371 C 0.16968 0.50579 0.17222 0.0
C372 C 0.15301 0.48545 0.24574 0.0
H373 H 0.21335 0.51631 0.0884 0.0
H374 H 0.1585 0.52649 0.13763 0.0
S375 S 0.18296 0.41287 0.3815 0.0
N376 N 0.21296 0.42685 0.30759 0.0
N377 N 0.15403 0.43763 0.35952 0.0
C378 C 0.16824 0.45886 0.28918 0.0
C379 C 0.2 0.45289 0.26026 0.0
C380 C 0.92223 0.79565 0.27724 0.0
C381 C 0.93701 0.76784 0.24425 0.0
C382 C 0.93644 0.82474 0.25809 0.0
C383 C 0.96612 0.82699 0.20647 0.0
H384 H 0.89915 0.79494 0.3154 0.0
H385 H 0.92413 0.84562 0.2837 0.0
S386 S 0.01404 0.76107 0.09983 0.0
N387 N 0.98248 0.74433 0.15417 0.0
N388 N 0.00933 0.79891 0.1189 0.0
C389 C 0.98106 0.79931 0.17243 0.0
C390 C 0.96642 0.76977 0.19074 0.0
C391 C 0.72572 0.99603 0.25357 0.0
C392 C 0.73548 0.99475 0.36964 0.0
C393 C 0.69441 0.00181 0.22522 0.0
C394 C 0.67182 0.00673 0.31204 0.0
H395 H 0.74228 0.99186 0.18431 0.0
H396 H 0.68775 0.0019 0.13471 0.0
S397 S 0.68686 0.01118 0.62794 0.0
N398 N 0.72108 0.00211 0.57117 0.0
N399 N 0.66228 0.01343 0.51811 0.0
C400 C 0.68165 0.00676 0.4283 0.0
C401 C 0.71348 0.00068 0.45705 0.0
C402 C 0.45564 0.71247 0.40403 0.0
C403 C 0.47037 0.73645 0.34089 0.0
C404 C 0.45428 0.682 0.36038 0.0
C405 C 0.467 0.67479 0.25119 0.0
H406 H 0.44596 0.71708 0.489 0.0
H407 H 0.44323 0.66397 0.4123 0.0
S408 S 0.50708 0.72981 0.0511 0.0
N409 N 0.49694 0.75139 0.16301 0.0
N410 N 0.49473 0.69422 0.08148 0.0
C411 C 0.48127 0.6988 0.18674 0.0
C412 C 0.48281 0.72963 0.2314 0.0
C413 C 0.79021 0.56886 0.23033 0.0
C414 C 0.76208 0.55346 0.20573 0.0
C415 C 0.81904 0.55551 0.20036 0.0
C416 C 0.82059 0.52651 0.14378 0.0
H417 H 0.78994 0.5909 0.27561 0.0
H418 H 0.84026 0.5677 0.22337 0.0
S419 S 0.75309 0.47906 0.04785 0.0
N420 N 0.73724 0.50913 0.11436 0.0
N421 N 0.79119 0.48435 0.05572 0.0
C422 C 0.79245 0.51155 0.1153 0.0
C423 C 0.76325 0.525 0.14659 0.0
C424 C 0.07538 0.12796 0.86574 0.0
C425 C 0.09858 0.12887 0.95188 0.0
C426 C 0.06136 0.09987 0.83363 0.0
C427 C 0.06957 0.07162 0.88777 0.0
H428 H 0.06772 0.14917 0.82292 0.0
H429 H 0.04338 0.10046 0.76771 0.0
S430 S 0.1304 0.06064 0.11202 0.0
N431 N 0.13041 0.09853 0.08597 0.0
N432 N 0.10337 0.04574 0.02701 0.0
C433 C 0.09304 0.07194 0.9725 0.0
C434 C 0.10776 0.10055 0.00405 0.0
C435 C 0.37749 0.06793 0.0974 0.0
C436 C 0.35225 0.06657 0.01989 0.0
C437 C 0.40727 0.05782 0.06488 0.0
C438 C 0.41315 0.04614 0.95314 0.0
H439 H 0.37411 0.07597 0.18533 0.0
H440 H 0.42568 0.05879 0.12896 0.0
S441 S 0.35524 0.03901 0.71553 0.0
N442 N 0.33525 0.0536 0.82487 0.0
N443 N 0.39125 0.03474 0.76343 0.0
C444 C 0.38829 0.04545 0.87354 0.0
C445 C 0.35786 0.05559 0.90702 0.0
C446 C 0.46598 0.38019 0.01685 0.0
C447 C 0.45346 0.35916 0.93606 0.0
C448 C 0.47518 0.41031 0.9834 0.0
C449 C 0.47211 0.42055 0.86796 0.0
H450 H 0.46951 0.37306 0.10608 0.0
H451 H 0.48534 0.42541 0.04805 0.0
S452 S 0.4355 0.37649 0.62791 0.0
N453 N 0.4352 0.35194 0.73866 0.0
N454 N 0.45201 0.40862 0.6761 0.0
C455 C 0.45809 0.40033 0.7877 0.0
C456 C 0.44887 0.36963 0.82168 0.0
C457 C 0.12943 0.45914 0.80225 0.0
C458 C 0.13378 0.44256 0.90652 0.0
C459 C 0.0996 0.46782 0.76486 0.0
C460 C 0.0729 0.46071 0.83087 0.0
H461 H 0.14924 0.46544 0.74852 0.0
H462 H 0.09764 0.48061 0.68433 0.0
S463 S 0.0717 0.41787 0.11201 0.0
N464 N 0.10895 0.41934 0.07595 0.0
N465 N 0.05285 0.43584 0.00638 0.0
C466 C 0.07692 0.4441 0.9357 0.0
C467 C 0.10734 0.43493 0.97316 0.0
C468 C 0.94697 0.85829 0.71214 0.0
C469 C 0.9283 0.85878 0.61192 0.0
C470 C 0.9641 0.88456 0.74538 0.0
C471 C 0.96373 0.91199 0.67799 0.0
H472 H 0.94866 0.83732 0.76461 0.0
H473 H 0.97847 0.88301 0.8224 0.0
S474 S 0.91752 0.9258 0.41056 0.0
N475 N 0.90932 0.88956 0.44864 0.0
N476 N 0.94204 0.93864 0.50952 0.0
C477 C 0.9446 0.91305 0.57907 0.0
C478 C 0.92671 0.88652 0.5465 0.0
C479 C 0.62819 0.94362 0.64803 0.0
C480 C 0.65102 0.93949 0.73432 0.0
C481 C 0.59843 0.95471 0.67507 0.0
C482 C 0.59008 0.96188 0.7898 0.0
H483 H 0.63366 0.93953 0.55776 0.0
H484 H 0.58223 0.95855 0.60443 0.0
S485 S 0.63979 0.95069 0.05043 0.0
N486 N 0.66229 0.94042 0.9409 0.0
N487 N 0.6061 0.96086 0.9924 0.0
C488 C 0.61204 0.95603 0.87814 0.0
C489 C 0.64253 0.94489 0.85028 0.0
C490 C 0.54077 0.64079 0.48762 0.0
C491 C 0.52815 0.66689 0.54427 0.0
C492 C 0.53504 0.61041 0.52833 0.0
C493 C 0.51658 0.60498 0.62747 0.0
H494 H 0.55492 0.64376 0.41049 0.0
H495 H 0.54516 0.59106 0.48154 0.0
S496 S 0.4772 0.66515 0.80507 0.0
N497 N 0.49579 0.6851 0.70376 0.0
N498 N 0.4852 0.6282 0.7798 0.0
C499 C 0.50396 0.63084 0.68517 0.0
C500 C 0.50968 0.66172 0.64367 0.0
C501 C 0.84664 0.49196 0.45081 0.0
C502 C 0.82632 0.51103 0.51484 0.0
C503 C 0.87831 0.48934 0.47982 0.0
C504 C 0.89051 0.50496 0.57635 0.0
H505 H 0.83797 0.47897 0.37773 0.0
H506 H 0.89305 0.47418 0.42866 0.0
S507 S 0.84714 0.55747 0.77383 0.0
N508 N 0.82084 0.54603 0.67872 0.0
N509 N 0.87999 0.5402 0.73595 0.0
C510 C 0.87045 0.524 0.64155 0.0
C511 C 0.83843 0.52725 0.61026 0.0
loop_
_geom_bond_atom_site_label_1
_geom_bond_atom_site_label_2
_geom_bond_distance
_geom_bond_site_symmetry_2
_ccdc_geom_bond_type
O0 Cd1 2.300 . S
O0 C7 1.275 . S
Cd1 O0 2.300 . S
Cd1 O9 2.381 . S
Cd1 O10 2.378 . S
O2 Cd3 2.385 . S
O2 C7 1.255 . S
Cd3 O2 2.385 . S
Cd3 O4 2.317 . S
O4 Cd3 2.317 . S
O4 C5 1.232 . S
C5 O4 1.232 . S
C5 O6 1.218 . S
O6 C5 1.218 . S
C7 O0 1.275 . S
C7 O2 1.255 . S
C8 O9 1.258 . S
C8 O10 1.256 . S
O9 Cd1 2.381 . S
O9 C8 1.258 . S
O10 Cd1 2.378 . S
O10 C8 1.256 . S
O11 Cd12 2.300 1_655 S
O11 C18 1.275 1_655 S
Cd12 O11 2.300 1_455 S
Cd12 O20 2.381 1_455 S
Cd12 O21 2.378 . S
O13 Cd14 2.385 . S
O13 C18 1.255 . S
Cd14 O13 2.385 . S
Cd14 O15 2.317 . S
O15 Cd14 2.317 . S
O15 C16 1.232 . S
C16 O15 1.232 . S
C16 O17 1.218 . S
O17 C16 1.218 . S
C18 O11 1.275 1_455 S
C18 O13 1.255 . S
C19 O20 1.258 1_455 S
C19 O21 1.256 . S
O20 Cd12 2.381 1_655 S
O20 C19 1.258 1_655 S
O21 Cd12 2.378 . S
O21 C19 1.256 . S
O22 Cd23 2.300 1_565 S
O22 C29 1.275 1_565 S
Cd23 O22 2.300 1_545 S
Cd23 O31 2.381 1_545 S
Cd23 O32 2.378 . S
O24 Cd25 2.385 . S
O24 C29 1.255 . S
Cd25 O24 2.385 . S
Cd25 O26 2.317 . S
O26 Cd25 2.317 . S
O26 C27 1.232 . S
C27 O26 1.232 . S
C27 O28 1.218 . S
O28 C27 1.218 . S
C29 O22 1.275 1_545 S
C29 O24 1.255 . S
C30 O31 1.258 1_545 S
C30 O32 1.256 . S
O31 Cd23 2.381 1_565 S
O31 C30 1.258 1_565 S
O32 Cd23 2.378 . S
O32 C30 1.256 . S
O33 Cd34 2.300 . S
O33 C40 1.275 . S
Cd34 O33 2.300 . S
Cd34 O42 2.381 . S
Cd34 O43 2.378 . S
O35 Cd36 2.385 . S
O35 C40 1.255 . S
Cd36 O35 2.385 . S
Cd36 O37 2.317 . S
O37 Cd36 2.317 . S
O37 C38 1.232 . S
C38 O37 1.232 . S
C38 O39 1.218 . S
O39 C38 1.218 . S
C40 O33 1.275 . S
C40 O35 1.255 . S
C41 O42 1.258 . S
C41 O43 1.256 . S
O42 Cd34 2.381 . S
O42 C41 1.258 . S
O43 Cd34 2.378 . S
O43 C41 1.256 . S
O44 Cd45 2.300 . S
O44 C51 1.275 . S
Cd45 O44 2.300 . S
Cd45 O53 2.381 . S
Cd45 O54 2.378 . S
O46 Cd47 2.385 1_554 S
O46 C51 1.255 . S
Cd47 O46 2.385 1_556 S
Cd47 O48 2.317 . S
O48 Cd47 2.317 . S
O48 C49 1.232 . S
C49 O48 1.232 . S
C49 O50 1.218 . S
O50 C49 1.218 . S
C51 O44 1.275 . S
C51 O46 1.255 . S
C52 O53 1.258 . S
C52 O54 1.256 . S
O53 Cd45 2.381 . S
O53 C52 1.258 . S
O54 Cd45 2.378 . S
O54 C52 1.256 . S
O55 Cd56 2.300 1_655 S
O55 C62 1.275 1_655 S
Cd56 O55 2.300 1_455 S
Cd56 O64 2.381 1_455 S
Cd56 O65 2.378 . S
O57 Cd58 2.385 1_554 S
O57 C62 1.255 . S
Cd58 O57 2.385 1_556 S
Cd58 O59 2.317 . S
O59 Cd58 2.317 . S
O59 C60 1.232 . S
C60 O59 1.232 . S
C60 O61 1.218 . S
O61 C60 1.218 . S
C62 O55 1.275 1_455 S
C62 O57 1.255 . S
C63 O64 1.258 1_455 S
C63 O65 1.256 . S
O64 Cd56 2.381 1_655 S
O64 C63 1.258 1_655 S
O65 Cd56 2.378 . S
O65 C63 1.256 . S
O66 Cd67 2.300 1_565 S
O66 C73 1.275 1_565 S
Cd67 O66 2.300 1_545 S
Cd67 O75 2.381 1_545 S
Cd67 O76 2.378 . S
O68 Cd69 2.385 1_554 S
O68 C73 1.255 . S
Cd69 O68 2.385 1_556 S
Cd69 O70 2.317 . S
O70 Cd69 2.317 . S
O70 C71 1.232 . S
C71 O70 1.232 . S
C71 O72 1.218 . S
O72 C71 1.218 . S
C73 O66 1.275 1_545 S
C73 O68 1.255 . S
C74 O75 1.258 1_545 S
C74 O76 1.256 . S
O75 Cd67 2.381 1_565 S
O75 C74 1.258 1_565 S
O76 Cd67 2.378 . S
O76 C74 1.256 . S
O77 Cd78 2.300 . S
O77 C84 1.275 . S
Cd78 O77 2.300 . S
Cd78 O86 2.381 . S
Cd78 O87 2.378 . S
O79 Cd80 2.385 1_554 S
O79 C84 1.255 . S
Cd80 O79 2.385 1_556 S
Cd80 O81 2.317 . S
O81 Cd80 2.317 . S
O81 C82 1.232 . S
C82 O81 1.232 . S
C82 O83 1.218 . S
O83 C82 1.218 . S
C84 O77 1.275 . S
C84 O79 1.255 . S
C85 O86 1.258 . S
C85 O87 1.256 . S
O86 Cd78 2.381 . S
O86 C85 1.258 . S
O87 Cd78 2.378 . S
O87 C85 1.256 . S
Ho88 C91 2.811 1_556 S
Ho88 O108 2.322 . S
Ho88 O110 2.378 . S
Ho88 O111 2.524 1_556 S
Ho88 O112 2.381 . S
Ho88 O113 2.669 1_565 S
Ho88 O115 2.346 1_565 S
Ho88 O119 2.305 1_455 S
Ho89 C100 2.811 . S
Ho89 O109 2.346 1_545 S
Ho89 O113 2.305 1_655 S
Ho89 O114 2.322 . S
Ho89 O116 2.378 . S
Ho89 O117 2.524 . S
Ho89 O118 2.381 . S
Ho89 O119 2.669 1_545 S
C90 O108 1.259 1_655 S
C90 O109 1.268 . S
C91 Ho88 2.811 1_554 S
C91 C92 1.488 . S
C91 O110 1.215 1_554 S
C91 O111 1.289 . S
C92 C91 1.488 . S
C92 C93 1.348 . S
C92 C97 1.413 . S
C93 C92 1.348 . S
C93 C94 1.442 . S
C93 H120 0.930 1_455 S
C94 C93 1.442 . S
C94 C95 1.381 . S
C94 H121 0.931 1_455 S
C95 C94 1.381 . S
C95 C96 1.321 . S
C96 C95 1.321 . S
C96 C97 1.403 . S
C96 H122 0.934 . S
C97 C92 1.413 . S
C97 C96 1.403 . S
C97 H123 0.930 . S
C98 O112 1.275 . S
C98 O113 1.256 1_565 S
C99 O114 1.259 1_455 S
C99 O115 1.268 . S
C100 Ho89 2.811 . S
C100 C101 1.488 . S
C100 O116 1.215 . S
C100 O117 1.289 . S
C101 C100 1.488 . S
C101 C102 1.348 . S
C101 C106 1.413 . S
C102 C101 1.348 . S
C102 C103 1.442 . S
C102 H124 0.930 1_655 S
C103 C102 1.442 . S
C103 C104 1.381 . S
C103 H125 0.931 1_655 S
C104 C103 1.381 . S
C104 C105 1.321 . S
C105 C104 1.321 . S
C105 C106 1.403 . S
C105 H126 0.934 . S
C106 C101 1.413 . S
C106 C105 1.403 . S
C106 H127 0.930 . S
C107 O118 1.275 . S
C107 O119 1.256 1_545 S
O108 Ho88 2.322 . S
O108 C90 1.259 1_455 S
O109 Ho89 2.346 1_565 S
O109 C90 1.268 . S
O110 Ho88 2.378 . S
O110 C91 1.215 1_556 S
O111 Ho88 2.524 1_554 S
O111 C91 1.289 . S
O112 Ho88 2.381 . S
O112 C98 1.275 . S
O113 Ho88 2.669 1_545 S
O113 Ho89 2.305 1_455 S
O113 C98 1.256 1_545 S
O114 Ho89 2.322 . S
O114 C99 1.259 1_655 S
O115 Ho88 2.346 1_545 S
O115 C99 1.268 . S
O116 Ho89 2.378 . S
O116 C100 1.215 . S
O117 Ho89 2.524 . S
O117 C100 1.289 . S
O118 Ho89 2.381 . S
O118 C107 1.275 . S
O119 Ho88 2.305 1_655 S
O119 Ho89 2.669 1_565 S
O119 C107 1.256 1_565 S
H120 C93 0.930 1_655 S
H121 C94 0.931 1_655 S
H122 C96 0.934 . S
H123 C97 0.930 . S
H124 C102 0.930 1_455 S
H125 C103 0.931 1_455 S
H126 C105 0.934 . S
H127 C106 0.930 . S
Ho128 C131 2.811 1_556 S
Ho128 O148 2.322 . S
Ho128 O150 2.378 . S
Ho128 O151 2.524 1_556 S
Ho128 O152 2.381 . S
Ho128 O153 2.669 . S
Ho128 O155 2.346 . S
Ho128 O159 2.305 1_545 S
Ho129 C140 2.811 . S
Ho129 O149 2.346 . S
Ho129 O153 2.305 1_565 S
Ho129 O154 2.322 . S
Ho129 O156 2.378 . S
Ho129 O157 2.524 . S
Ho129 O158 2.381 . S
Ho129 O159 2.669 . S
C130 O148 1.259 1_565 S
C130 O149 1.268 . S
C131 Ho128 2.811 1_554 S
C131 C132 1.488 . S
C131 O150 1.215 1_554 S
C131 O151 1.289 . S
C132 C131 1.488 . S
C132 C133 1.348 . S
C132 C137 1.413 . S
C133 C132 1.348 . S
C133 C134 1.442 . S
C133 H160 0.930 1_545 S
C134 C133 1.442 . S
C134 C135 1.381 . S
C134 H161 0.931 1_545 S
C135 C134 1.381 . S
C135 C136 1.321 . S
C136 C135 1.321 . S
C136 C137 1.403 . S
C136 H162 0.934 . S
C137 C132 1.413 . S
C137 C136 1.403 . S
C137 H163 0.930 . S
C138 O152 1.275 . S
C138 O153 1.256 . S
C139 O154 1.259 1_545 S
C139 O155 1.268 . S
C140 Ho129 2.811 . S
C140 C141 1.488 . S
C140 O156 1.215 . S
C140 O157 1.289 . S
C141 C140 1.488 . S
C141 C142 1.348 . S
C141 C146 1.413 . S
C142 C141 1.348 . S
C142 C143 1.442 . S
C142 H164 0.930 1_565 S
C143 C142 1.442 . S
C143 C144 1.381 . S
C143 H165 0.931 1_565 S
C144 C143 1.381 . S
C144 C145 1.321 . S
C145 C144 1.321 . S
C145 C146 1.403 . S
C145 H166 0.934 . S
C146 C141 1.413 . S
C146 C145 1.403 . S
C146 H167 0.930 . S
C147 O158 1.275 . S
C147 O159 1.256 . S
O148 Ho128 2.322 . S
O148 C130 1.259 1_545 S
O149 Ho129 2.346 . S
O149 C130 1.268 . S
O150 Ho128 2.378 . S
O150 C131 1.215 1_556 S
O151 Ho128 2.524 1_554 S
O151 C131 1.289 . S
O152 Ho128 2.381 . S
O152 C138 1.275 . S
O153 Ho128 2.669 . S
O153 Ho129 2.305 1_545 S
O153 C138 1.256 . S
O154 Ho129 2.322 . S
O154 C139 1.259 1_565 S
O155 Ho128 2.346 . S
O155 C139 1.268 . S
O156 Ho129 2.378 . S
O156 C140 1.215 . S
O157 Ho129 2.524 . S
O157 C140 1.289 . S
O158 Ho129 2.381 . S
O158 C147 1.275 . S
O159 Ho128 2.305 1_565 S
O159 Ho129 2.669 . S
O159 C147 1.256 . S
H160 C133 0.930 1_565 S
H161 C134 0.931 1_565 S
H162 C136 0.934 . S
H163 C137 0.930 . S
H164 C142 0.930 1_545 S
H165 C143 0.931 1_545 S
H166 C145 0.934 . S
H167 C146 0.930 . S
Ho168 C171 2.811 1_556 S
Ho168 O188 2.322 . S
Ho168 O190 2.378 . S
Ho168 O191 2.524 1_556 S
Ho168 O192 2.381 . S
Ho168 O193 2.669 . S
Ho168 O195 2.346 . S
Ho168 O199 2.305 . S
Ho169 C180 2.811 . S
Ho169 O189 2.346 . S
Ho169 O193 2.305 . S
Ho169 O194 2.322 . S
Ho169 O196 2.378 . S
Ho169 O197 2.524 . S
Ho169 O198 2.381 . S
Ho169 O199 2.669 . S
C170 O188 1.259 . S
C170 O189 1.268 . S
C171 Ho168 2.811 1_554 S
C171 C172 1.488 . S
C171 O190 1.215 1_554 S
C171 O191 1.289 . S
C172 C171 1.488 . S
C172 C173 1.348 . S
C172 C177 1.413 . S
C173 C172 1.348 . S
C173 C174 1.442 . S
C173 H200 0.930 . S
C174 C173 1.442 . S
C174 C175 1.381 . S
C174 H201 0.931 . S
C175 C174 1.381 . S
C175 C176 1.321 . S
C176 C175 1.321 . S
C176 C177 1.403 . S
C176 H202 0.934 . S
C177 C172 1.413 . S
C177 C176 1.403 . S
C177 H203 0.930 . S
C178 O192 1.275 . S
C178 O193 1.256 . S
C179 O194 1.259 . S
C179 O195 1.268 . S
C180 Ho169 2.811 . S
C180 C181 1.488 . S
C180 O196 1.215 . S
C180 O197 1.289 . S
C181 C180 1.488 . S
C181 C182 1.348 . S
C181 C186 1.413 . S
C182 C181 1.348 . S
C182 C183 1.442 . S
C182 H204 0.930 . S
C183 C182 1.442 . S
C183 C184 1.381 . S
C183 H205 0.931 . S
C184 C183 1.381 . S
C184 C185 1.321 . S
C185 C184 1.321 . S
C185 C186 1.403 . S
C185 H206 0.934 . S
C186 C181 1.413 . S
C186 C185 1.403 . S
C186 H207 0.930 . S
C187 O198 1.275 . S
C187 O199 1.256 . S
O188 Ho168 2.322 . S
O188 C170 1.259 . S
O189 Ho169 2.346 . S
O189 C170 1.268 . S
O190 Ho168 2.378 . S
O190 C171 1.215 1_556 S
O191 Ho168 2.524 1_554 S
O191 C171 1.289 . S
O192 Ho168 2.381 . S
O192 C178 1.275 . S
O193 Ho168 2.669 . S
O193 Ho169 2.305 . S
O193 C178 1.256 . S
O194 Ho169 2.322 . S
O194 C179 1.259 . S
O195 Ho168 2.346 . S
O195 C179 1.268 . S
O196 Ho169 2.378 . S
O196 C180 1.215 . S
O197 Ho169 2.524 . S
O197 C180 1.289 . S
O198 Ho169 2.381 . S
O198 C187 1.275 . S
O199 Ho168 2.305 . S
O199 Ho169 2.669 . S
O199 C187 1.256 . S
H200 C173 0.930 . S
H201 C174 0.931 . S
H202 C176 0.934 . S
H203 C177 0.930 . S
H204 C182 0.930 . S
H205 C183 0.931 . S
H206 C185 0.934 . S
H207 C186 0.930 . S
Ho208 C211 2.811 1_556 S
Ho208 O228 2.322 . S
Ho208 O230 2.378 . S
Ho208 O231 2.524 1_556 S
Ho208 O232 2.381 . S
Ho208 O233 2.669 1_655 S
Ho208 O235 2.346 1_655 S
Ho208 O239 2.305 . S
Ho209 C220 2.811 . S
Ho209 O229 2.346 1_455 S
Ho209 O233 2.305 . S
Ho209 O234 2.322 . S
Ho209 O236 2.378 . S
Ho209 O237 2.524 . S
Ho209 O238 2.381 . S
Ho209 O239 2.669 1_455 S
C210 O228 1.259 . S
C210 O229 1.268 . S
C211 Ho208 2.811 1_554 S
C211 C212 1.488 . S
C211 O230 1.215 1_554 S
C211 O231 1.289 . S
C212 C211 1.488 . S
C212 C213 1.348 . S
C212 C217 1.413 . S
C213 C212 1.348 . S
C213 C214 1.442 . S
C213 H240 0.930 . S
C214 C213 1.442 . S
C214 C215 1.381 . S
C214 H241 0.931 . S
C215 C214 1.381 . S
C215 C216 1.321 . S
C216 C215 1.321 . S
C216 C217 1.403 . S
C216 H242 0.934 . S
C217 C212 1.413 . S
C217 C216 1.403 . S
C217 H243 0.930 . S
C218 O232 1.286 . S
C218 O233 1.250 1_655 S
C219 O234 1.259 . S
C219 O235 1.268 . S
C220 Ho209 2.811 . S
C220 C221 1.488 . S
C220 O236 1.215 . S
C220 O237 1.289 . S
C221 C220 1.488 . S
C221 C222 1.348 . S
C221 C226 1.413 . S
C222 C221 1.348 . S
C222 C223 1.442 . S
C222 H244 0.930 . S
C223 C222 1.442 . S
C223 C224 1.381 . S
C223 H245 0.931 . S
C224 C223 1.381 . S
C224 C225 1.321 . S
C225 C224 1.321 . S
C225 C226 1.403 . S
C225 H246 0.934 . S
C226 C221 1.413 . S
C226 C225 1.403 . S
C226 H247 0.930 . S
C227 O238 1.290 . S
C227 O239 1.248 1_455 S
O228 Ho208 2.322 . S
O228 C210 1.259 . S
O229 Ho209 2.346 1_655 S
O229 C210 1.268 . S
O230 Ho208 2.378 . S
O230 C211 1.215 1_556 S
O231 Ho208 2.524 1_554 S
O231 C211 1.289 . S
O232 Ho208 2.381 . S
O232 C218 1.286 . S
O233 Ho208 2.669 1_455 S
O233 Ho209 2.305 . S
O233 C218 1.250 1_455 S
O234 Ho209 2.322 . S
O234 C219 1.259 . S
O235 Ho208 2.346 1_455 S
O235 C219 1.268 . S
O236 Ho209 2.378 . S
O236 C220 1.215 . S
O237 Ho209 2.524 . S
O237 C220 1.289 . S
O238 Ho209 2.381 . S
O238 C227 1.290 . S
O239 Ho208 2.305 . S
O239 Ho209 2.669 1_655 S
O239 C227 1.248 1_655 S
H240 C213 0.930 . S
H241 C214 0.931 . S
H242 C216 0.934 . S
H243 C217 0.930 . S
H244 C222 0.930 . S
H245 C223 0.931 . S
H246 C225 0.934 . S
H247 C226 0.930 . S
C248 C249 1.343 1_565 S
C248 C250 1.419 . S
C248 H252 0.930 . S
C249 C248 1.343 1_545 S
C249 C258 1.456 . S
C250 C248 1.419 . S
C250 C251 1.363 1_565 S
C250 H253 0.929 . S
C251 C250 1.363 1_545 S
C251 C257 1.428 . S
H252 C248 0.930 . S
H253 C250 0.929 . S
S254 N255 1.613 . S
S254 N256 1.610 . S
N255 S254 1.613 . S
N255 C258 1.350 . S
N256 S254 1.610 . S
N256 C257 1.351 . S
C257 C251 1.428 . S
C257 N256 1.351 . S
C257 C258 1.434 . S
C258 C249 1.456 . S
C258 N255 1.350 . S
C258 C257 1.434 . S
C259 C260 1.369 . S
C259 C261 1.419 . S
C259 H263 0.930 . S
C260 C259 1.369 . S
C260 C269 1.429 . S
C261 C259 1.419 . S
C261 C262 1.363 . S
C261 H264 0.929 . S
C262 C261 1.363 . S
C262 C268 1.428 . S
H263 C259 0.930 . S
H264 C261 0.929 . S
S265 N266 1.613 . S
S265 N267 1.610 . S
N266 S265 1.613 . S
N266 C269 1.350 . S
N267 S265 1.610 . S
N267 C268 1.351 . S
C268 C262 1.428 . S
C268 N267 1.351 . S
C268 C269 1.434 . S
C269 C260 1.429 . S
C269 N266 1.350 . S
C269 C268 1.434 . S
C270 C271 1.369 . S
C270 C272 1.419 . S
C270 H274 0.930 . S
C271 C270 1.369 . S
C271 C280 1.429 . S
C272 C270 1.419 . S
C272 C273 1.363 . S
C272 H275 0.929 . S
C273 C272 1.363 . S
C273 C279 1.428 . S
H274 C270 0.930 . S
H275 C272 0.929 . S
S276 N277 1.613 . S
S276 N278 1.610 . S
N277 S276 1.613 . S
N277 C280 1.350 . S
N278 S276 1.610 . S
N278 C279 1.351 . S
C279 C273 1.428 . S
C279 N278 1.351 . S
C279 C280 1.434 . S
C280 C271 1.429 . S
C280 N277 1.350 . S
C280 C279 1.434 . S
C281 C282 1.381 . S
C281 C283 1.419 . S
C281 H285 0.930 . S
C282 C281 1.381 . S
C282 C291 1.418 1_455 S
C283 C281 1.419 . S
C283 C284 1.363 . S
C283 H286 0.929 . S
C284 C283 1.363 . S
C284 C290 1.428 1_455 S
H285 C281 0.930 . S
H286 C283 0.929 . S
S287 N288 1.613 . S
S287 N289 1.610 . S
N288 S287 1.613 . S
N288 C291 1.350 . S
N289 S287 1.610 . S
N289 C290 1.351 . S
C290 C284 1.428 1_655 S
C290 N289 1.351 . S
C290 C291 1.434 . S
C291 C282 1.418 1_655 S
C291 N288 1.350 . S
C291 C290 1.434 . S
C292 C293 1.372 1_565 S
C292 C294 1.419 . S
C292 H296 0.930 . S
C293 C292 1.372 1_545 S
C293 C302 1.426 . S
C294 C292 1.419 . S
C294 C295 1.390 . S
C294 H297 0.929 . S
C295 C294 1.390 . S
C295 C301 1.401 1_565 S
H296 C292 0.930 . S
H297 C294 0.929 . S
S298 N299 1.613 . S
S298 N300 1.610 . S
N299 S298 1.613 . S
N299 C302 1.350 . S
N300 S298 1.610 . S
N300 C301 1.351 . S
C301 C295 1.401 1_545 S
C301 N300 1.351 . S
C301 C302 1.434 . S
C302 C293 1.426 . S
C302 N299 1.350 . S
C302 C301 1.434 . S
C303 C304 1.369 . S
C303 C305 1.419 . S
C303 H307 0.930 . S
C304 C303 1.369 . S
C304 C313 1.429 . S
C305 C303 1.419 . S
C305 C306 1.363 . S
C305 H308 0.929 1_554 S
C306 C305 1.363 . S
C306 C312 1.428 . S
H307 C303 0.930 . S
H308 C305 0.929 1_556 S
S309 N310 1.613 . S
S309 N311 1.610 . S
N310 S309 1.613 . S
N310 C313 1.350 . S
N311 S309 1.610 . S
N311 C312 1.351 . S
C312 C306 1.428 . S
C312 N311 1.351 . S
C312 C313 1.434 . S
C313 C304 1.429 . S
C313 N310 1.350 . S
C313 C312 1.434 . S
C314 C315 1.369 . S
C314 C316 1.419 . S
C314 H318 0.930 . S
C315 C314 1.369 . S
C315 C324 1.429 . S
C316 C314 1.419 . S
C316 C317 1.363 . S
C316 H319 0.929 1_554 S
C317 C316 1.363 . S
C317 C323 1.428 . S
H318 C314 0.930 . S
H319 C316 0.929 1_556 S
S320 N321 1.613 . S
S320 N322 1.610 . S
N321 S320 1.613 . S
N321 C324 1.350 . S
N322 S320 1.610 . S
N322 C323 1.351 . S
C323 C317 1.428 . S
C323 N322 1.351 . S
C323 C324 1.434 . S
C324 C315 1.429 . S
C324 N321 1.350 . S
C324 C323 1.434 . S
C325 C326 1.381 . S
C325 C327 1.419 . S
C325 H329 0.930 . S
C326 C325 1.381 . S
C326 C335 1.418 1_655 S
C327 C325 1.419 . S
C327 C328 1.363 . S
C327 H330 0.929 . S
C328 C327 1.363 . S
C328 C334 1.428 1_655 S
H329 C325 0.930 . S
H330 C327 0.929 . S
S331 N332 1.613 . S
S331 N333 1.610 1_554 S
N332 S331 1.613 . S
N332 C335 1.350 . S
N333 S331 1.610 1_556 S
N333 C334 1.351 1_556 S
C334 C328 1.428 1_455 S
C334 N333 1.351 1_554 S
C334 C335 1.434 . S
C335 C326 1.418 1_455 S
C335 N332 1.350 . S
C335 C334 1.434 . S
C336 C337 1.369 1_455 S
C336 C338 1.419 1_455 S
C336 H340 0.930 . S
C337 C336 1.369 1_655 S
C337 C346 1.429 . S
C338 C336 1.419 1_655 S
C338 C339 1.363 . S
C338 H341 0.929 . S
C339 C338 1.363 . S
C339 C345 1.428 . S
H340 C336 0.930 . S
H341 C338 0.929 . S
S342 N343 1.613 . S
S342 N344 1.610 . S
N343 S342 1.613 . S
N343 C346 1.350 . S
N344 S342 1.610 . S
N344 C345 1.351 . S
C345 C339 1.428 . S
C345 N344 1.351 . S
C345 C346 1.434 . S
C346 C337 1.429 . S
C346 N343 1.350 . S
C346 C345 1.434 . S
C347 C348 1.369 . S
C347 C349 1.419 . S
C347 H351 0.933 . S
C348 C347 1.369 . S
C348 C357 1.429 . S
C349 C347 1.419 . S
C349 C350 1.363 . S
C349 H352 0.929 . S
C350 C349 1.363 . S
C350 C356 1.428 . S
H351 C347 0.933 . S
H352 C349 0.929 . S
S353 N354 1.613 1_556 S
S353 N355 1.610 1_556 S
N354 S353 1.613 1_554 S
N354 C357 1.350 . S
N355 S353 1.610 1_554 S
N355 C356 1.351 . S
C356 C350 1.428 . S
C356 N355 1.351 . S
C356 C357 1.434 . S
C357 C348 1.429 . S
C357 N354 1.350 . S
C357 C356 1.434 . S
C358 C359 1.369 . S
C358 C360 1.419 . S
C358 H362 0.930 . S
C359 C358 1.369 . S
C359 C368 1.429 . S
C360 C358 1.419 . S
C360 C361 1.363 . S
C360 H363 0.929 . S
C361 C360 1.363 . S
C361 C367 1.428 . S
H362 C358 0.930 . S
H363 C360 0.929 . S
S364 N365 1.613 . S
S364 N366 1.610 . S
N365 S364 1.613 . S
N365 C368 1.350 . S
N366 S364 1.610 . S
N366 C367 1.351 . S
C367 C361 1.428 . S
C367 N366 1.351 . S
C367 C368 1.434 . S
C368 C359 1.429 . S
C368 N365 1.350 . S
C368 C367 1.434 . S
C369 C370 1.369 . S
C369 C371 1.419 . S
C369 H373 0.930 . S
C370 C369 1.369 . S
C370 C379 1.429 . S
C371 C369 1.419 . S
C371 C372 1.363 . S
C371 H374 0.929 . S
C372 C371 1.363 . S
C372 C378 1.428 . S
H373 C369 0.930 . S
H374 C371 0.929 . S
S375 N376 1.613 . S
S375 N377 1.610 . S
N376 S375 1.613 . S
N376 C379 1.350 . S
N377 S375 1.610 . S
N377 C378 1.351 . S
C378 C372 1.428 . S
C378 N377 1.351 . S
C378 C379 1.434 . S
C379 C370 1.429 . S
C379 N376 1.350 . S
C379 C378 1.434 . S
C380 C381 1.369 . S
C380 C382 1.419 . S
C380 H384 0.930 1_455 S
C381 C380 1.369 . S
C381 C390 1.429 . S
C382 C380 1.419 . S
C382 C383 1.363 . S
C382 H385 0.929 . S
C383 C382 1.363 . S
C383 C389 1.428 . S
H384 C380 0.930 1_655 S
H385 C382 0.929 . S
S386 N387 1.613 . S
S386 N388 1.610 . S
N387 S386 1.613 . S
N387 C390 1.350 . S
N388 S386 1.610 . S
N388 C389 1.351 . S
C389 C383 1.428 . S
C389 N388 1.351 . S
C389 C390 1.434 . S
C390 C381 1.429 . S
C390 N387 1.350 . S
C390 C389 1.434 . S
C391 C392 1.369 1_565 S
C391 C393 1.419 1_565 S
C391 H395 0.930 . S
C392 C391 1.369 1_545 S
C392 C401 1.429 . S
C393 C391 1.419 1_545 S
C393 C394 1.363 . S
C393 H396 0.929 . S
C394 C393 1.363 . S
C394 C400 1.428 . S
H395 C391 0.930 . S
H396 C393 0.929 . S
S397 N398 1.613 . S
S397 N399 1.610 . S
N398 S397 1.613 . S
N398 C401 1.350 . S
N399 S397 1.610 . S
N399 C400 1.351 . S
C400 C394 1.428 . S
C400 N399 1.351 . S
C400 C401 1.434 . S
C401 C392 1.429 . S
C401 N398 1.350 . S
C401 C400 1.434 . S
C402 C403 1.369 . S
C402 C404 1.419 . S
C402 H406 0.930 . S
C403 C402 1.369 . S
C403 C412 1.429 . S
C404 C402 1.419 . S
C404 C405 1.363 . S
C404 H407 0.929 . S
C405 C404 1.363 . S
C405 C411 1.428 . S
H406 C402 0.930 . S
H407 C404 0.929 . S
S408 N409 1.613 . S
S408 N410 1.610 . S
N409 S408 1.613 . S
N409 C412 1.350 . S
N410 S408 1.610 . S
N410 C411 1.351 . S
C411 C405 1.428 . S
C411 N410 1.351 . S
C411 C412 1.434 . S
C412 C403 1.429 . S
C412 N409 1.350 . S
C412 C411 1.434 . S
C413 C414 1.369 . S
C413 C415 1.419 . S
C413 H417 0.930 . S
C414 C413 1.369 . S
C414 C423 1.429 . S
C415 C413 1.419 . S
C415 C416 1.363 . S
C415 H418 0.929 . S
C416 C415 1.363 . S
C416 C422 1.428 . S
H417 C413 0.930 . S
H418 C415 0.929 . S
S419 N420 1.613 . S
S419 N421 1.610 . S
N420 S419 1.613 . S
N420 C423 1.350 . S
N421 S419 1.610 . S
N421 C422 1.351 . S
C422 C416 1.428 . S
C422 N421 1.351 . S
C422 C423 1.434 . S
C423 C414 1.429 . S
C423 N420 1.350 . S
C423 C422 1.434 . S
C424 C425 1.369 . S
C424 C426 1.419 . S
C424 H428 0.930 . S
C425 C424 1.369 . S
C425 C434 1.431 . S
C426 C424 1.419 . S
C426 C427 1.363 . S
C426 H429 0.929 . S
C427 C426 1.363 . S
C427 C433 1.428 . S
H428 C424 0.930 . S
H429 C426 0.929 . S
S430 N431 1.613 . S
S430 N432 1.611 1_655 S
N431 S430 1.613 . S
N431 C434 1.347 1_654 S
N432 S430 1.611 1_455 S
N432 C433 1.351 1_554 S
C433 C427 1.428 . S
C433 N432 1.351 1_556 S
C433 C434 1.436 . S
C434 C425 1.431 . S
C434 N431 1.347 1_456 S
C434 C433 1.436 . S
C435 C436 1.369 1_565 S
C435 C437 1.419 . S
C435 H439 0.930 . S
C436 C435 1.369 1_545 S
C436 C445 1.429 . S
C437 C435 1.419 . S
C437 C438 1.363 1_565 S
C437 H440 0.929 . S
C438 C437 1.363 1_545 S
C438 C444 1.428 . S
H439 C435 0.930 . S
H440 C437 0.929 . S
S441 N442 1.613 . S
S441 N443 1.610 . S
N442 S441 1.613 . S
N442 C445 1.350 . S
N443 S441 1.610 . S
N443 C444 1.351 . S
C444 C438 1.428 . S
C444 N443 1.351 . S
C444 C445 1.434 . S
C445 C436 1.429 . S
C445 N442 1.350 . S
C445 C444 1.434 . S
C446 C447 1.369 . S
C446 C448 1.419 . S
C446 H450 0.930 . S
C447 C446 1.369 . S
C447 C456 1.429 . S
C448 C446 1.419 . S
C448 C449 1.363 . S
C448 H451 0.929 . S
C449 C448 1.363 . S
C449 C455 1.428 . S
H450 C446 0.930 . S
H451 C448 0.929 . S
S452 N453 1.613 . S
S452 N454 1.610 . S
N453 S452 1.613 . S
N453 C456 1.350 . S
N454 S452 1.610 . S
N454 C455 1.351 . S
C455 C449 1.428 . S
C455 N454 1.351 . S
C455 C456 1.434 . S
C456 C447 1.429 . S
C456 N453 1.350 . S
C456 C455 1.434 . S
C457 C458 1.369 . S
C457 C459 1.419 . S
C457 H461 0.930 . S
C458 C457 1.369 . S
C458 C467 1.429 . S
C459 C457 1.419 . S
C459 C460 1.363 . S
C459 H462 0.929 . S
C460 C459 1.363 . S
C460 C466 1.428 . S
H461 C457 0.930 . S
H462 C459 0.929 . S
S463 N464 1.613 1_554 S
S463 N465 1.614 . S
N464 S463 1.613 1_556 S
N464 C467 1.350 . S
N465 S463 1.614 . S
N465 C466 1.344 1_554 S
C466 C460 1.428 . S
C466 N465 1.344 1_556 S
C466 C467 1.434 . S
C467 C458 1.429 . S
C467 N464 1.350 . S
C467 C466 1.434 . S
C468 C469 1.369 1_455 S
C468 C470 1.419 . S
C468 H472 0.930 . S
C469 C468 1.369 1_655 S
C469 C478 1.429 . S
C470 C468 1.419 . S
C470 C471 1.363 1_455 S
C470 H473 0.929 . S
C471 C470 1.363 1_655 S
C471 C477 1.428 . S
H472 C468 0.930 . S
H473 C470 0.929 . S
S474 N475 1.613 . S
S474 N476 1.610 . S
N475 S474 1.613 . S
N475 C478 1.350 . S
N476 S474 1.610 . S
N476 C477 1.351 . S
C477 C471 1.428 . S
C477 N476 1.351 . S
C477 C478 1.434 . S
C478 C469 1.429 . S
C478 N475 1.350 . S
C478 C477 1.434 . S
C479 C480 1.369 1_545 S
C479 C481 1.419 1_545 S
C479 H483 0.930 . S
C480 C479 1.369 1_565 S
C480 C489 1.429 . S
C481 C479 1.419 1_565 S
C481 C482 1.363 . S
C481 H484 0.929 1_565 S
C482 C481 1.363 . S
C482 C488 1.428 . S
H483 C479 0.930 . S
H484 C481 0.929 1_545 S
S485 N486 1.613 1_554 S
S485 N487 1.610 1_554 S
N486 S485 1.613 1_556 S
N486 C489 1.350 . S
N487 S485 1.610 1_556 S
N487 C488 1.351 . S
C488 C482 1.428 . S
C488 N487 1.351 . S
C488 C489 1.434 . S
C489 C480 1.429 . S
C489 N486 1.350 . S
C489 C488 1.434 . S
C490 C491 1.369 . S
C490 C492 1.419 . S
C490 H494 0.930 . S
C491 C490 1.369 . S
C491 C500 1.429 . S
C492 C490 1.419 . S
C492 C493 1.363 . S
C492 H495 0.929 . S
C493 C492 1.363 . S
C493 C499 1.428 . S
H494 C490 0.930 . S
H495 C492 0.929 . S
S496 N497 1.613 . S
S496 N498 1.610 . S
N497 S496 1.613 . S
N497 C500 1.350 . S
N498 S496 1.610 . S
N498 C499 1.351 . S
C499 C493 1.428 . S
C499 N498 1.351 . S
C499 C500 1.434 . S
C500 C491 1.429 . S
C500 N497 1.350 . S
C500 C499 1.434 . S
C501 C502 1.369 . S
C501 C503 1.419 . S
C501 H505 0.930 . S
C502 C501 1.369 . S
C502 C511 1.429 . S
C503 C501 1.419 . S
C503 C504 1.363 . S
C503 H506 0.929 . S
C504 C503 1.363 . S
C504 C510 1.428 . S
H505 C501 0.930 . S
H506 C503 0.929 . S
S507 N508 1.613 . S
S507 N509 1.610 . S
N508 S507 1.613 . S
N508 C511 1.350 . S
N509 S507 1.610 . S
N509 C510 1.351 . S
C510 C504 1.428 . S
C510 N509 1.351 . S
C510 C511 1.434 . S
C511 C502 1.429 . S
C511 N508 1.350 . S
C511 C510 1.434 . S
C249 C74 1.922 . S
C251 C98 2.117 1_545 S
C262 C138 2.126 . S
C260 C85 1.932 . S
C273 C178 2.134 . S
C271 C52 1.930 . S
C284 C218 2.121 1_455 S
C282 C63 1.937 . S
C295 C107 2.118 1_564 S
C293 C30 1.925 . S
C304 C41 1.948 . S
C306 C147 2.129 1_554 S
C315 C8 1.951 . S
C317 C187 2.130 1_554 S
C326 C19 1.927 1_655 S
C328 C227 2.123 1_654 S
C339 C104 0.884 . S
C337 C62 0.909 1_655 S
C350 C144 0.881 . S
C348 C73 0.915 1_565 S
C361 C184 0.864 . S
C359 C84 0.911 . S
C370 C51 0.911 . S
C372 C224 0.860 . S
C381 C18 0.843 . S
C383 C95 0.885 . S
C394 C135 0.884 . S
C392 C29 0.846 . S
C405 C175 0.866 . S
C403 C40 0.863 . S
C414 C7 0.839 . S
C416 C215 0.880 . S
C425 C60 1.915 . S
C427 C99 2.560 . S
C436 C71 1.899 . S
C438 C139 2.543 . S
C449 C179 2.535 . S
C447 C82 1.879 . S
C460 C219 2.557 . S
C458 C49 1.888 . S
C469 C16 2.039 1_655 S
C471 C90 2.569 . S
C482 C130 2.544 . S
C480 C27 2.028 1_565 S
C493 C170 2.534 . S
C491 C38 2.040 . S
C502 C5 2.063 . S
C504 C210 2.562 . S
