# Generated by pormake.
# Topology ssa, (4,4)-cn, num edge types: 1
# Building blocks:
#     Node 0, Type 0, BuildingBlock: ESEHIV_clean_sbu_0, # of connection points: 4
#     Node 1, Type 0, BuildingBlock: ESEHIV_clean_sbu_0, # of connection points: 4
#     Node 2, Type 0, BuildingBlock: ESEHIV_clean_sbu_0, # of connection points: 4
#     Node 3, Type 0, BuildingBlock: ESEHIV_clean_sbu_0, # of connection points: 4
#     Node 4, Type 0, BuildingBlock: ESEHIV_clean_sbu_0, # of connection points: 4
#     Node 5, Type 0, BuildingBlock: ESEHIV_clean_sbu_0, # of connection points: 4
#     Node 6, Type 1, BuildingBlock: KOZSID_clean_sbu_0, # of connection points: 4
#     Node 7, Type 1, BuildingBlock: KOZSID_clean_sbu_0, # of connection points: 4
#     Node 8, Type 1, BuildingBlock: KOZSID_clean_sbu_0, # of connection points: 4
#     Node 9, Type 1, BuildingBlock: KOZSID_clean_sbu_0, # of connection points: 4
#     Node 10, Type 1, BuildingBlock: KOZSID_clean_sbu_0, # of connection points: 4
#     Node 11, Type 1, BuildingBlock: KOZSID_clean_sbu_0, # of connection points: 4
#     Edge 12, Type (0, 1), BuildingBlock: EYOCIG_clean_linker_4, # of connection points: 2
#     Edge 13, Type (0, 1), BuildingBlock: EYOCIG_clean_linker_4, # of connection points: 2
#     Edge 14, Type (0, 1), BuildingBlock: EYOCIG_clean_linker_4, # of connection points: 2
#     Edge 15, Type (0, 1), BuildingBlock: EYOCIG_clean_linker_4, # of connection points: 2
#     Edge 16, Type (0, 1), BuildingBlock: EYOCIG_clean_linker_4, # of connection points: 2
#     Edge 17, Type (0, 1), BuildingBlock: EYOCIG_clean_linker_4, # of connection points: 2
#     Edge 18, Type (0, 1), BuildingBlock: EYOCIG_clean_linker_4, # of connection points: 2
#     Edge 19, Type (0, 1), BuildingBlock: EYOCIG_clean_linker_4, # of connection points: 2
#     Edge 20, Type (0, 1), BuildingBlock: EYOCIG_clean_linker_4, # of connection points: 2
#     Edge 21, Type (0, 1), BuildingBlock: EYOCIG_clean_linker_4, # of connection points: 2
#     Edge 22, Type (0, 1), BuildingBlock: EYOCIG_clean_linker_4, # of connection points: 2
#     Edge 23, Type (0, 1), BuildingBlock: EYOCIG_clean_linker_4, # of connection points: 2
#     Edge 24, Type (0, 1), BuildingBlock: EYOCIG_clean_linker_4, # of connection points: 2
#     Edge 25, Type (0, 1), BuildingBlock: EYOCIG_clean_linker_4, # of connection points: 2
#     Edge 26, Type (0, 1), BuildingBlock: EYOCIG_clean_linker_4, # of connection points: 2
#     Edge 27, Type (0, 1), BuildingBlock: EYOCIG_clean_linker_4, # of connection points: 2
#     Edge 28, Type (0, 1), BuildingBlock: EYOCIG_clean_linker_4, # of connection points: 2
#     Edge 29, Type (0, 1), BuildingBlock: EYOCIG_clean_linker_4, # of connection points: 2
#     Edge 30, Type (0, 1), BuildingBlock: EYOCIG_clean_linker_4, # of connection points: 2
#     Edge 31, Type (0, 1), BuildingBlock: EYOCIG_clean_linker_4, # of connection points: 2
#     Edge 32, Type (0, 1), BuildingBlock: EYOCIG_clean_linker_4, # of connection points: 2
#     Edge 33, Type (0, 1), BuildingBlock: EYOCIG_clean_linker_4, # of connection points: 2
#     Edge 34, Type (0, 1), BuildingBlock: EYOCIG_clean_linker_4, # of connection points: 2
#     Edge 35, Type (0, 1), BuildingBlock: EYOCIG_clean_linker_4, # of connection points: 2
# Relax obj value: 0.021
# Max RMSD: 0.107
# Mean RMSD: 0.058
data_MOF--net-ssa--node1-ESEHIV_clean_sbu_0--node2-KOZSID_clean_sbu_0--edge1-EYOCIG_clean_linker_4
_symmetry_space_group_name_H-M    P1
_symmetry_Int_Tables_number       1
_symmetry_cell_setting            triclinic
loop_
_symmetry_equiv_pos_as_xyz
'x, y, z'
_cell_length_a     42.819055
_cell_length_b     45.932101
_cell_length_c     32.077056
_cell_angle_alpha  92.334106
_cell_angle_beta   94.789951
_cell_angle_gamma 122.33676
loop_
_atom_site_label
_atom_site_type_symbol
_atom_site_fract_x
_atom_site_fract_y
_atom_site_fract_z
_atom_type_partial_charge
Cu0 Cu 0.04309 0.52559 1.00006 0.0
N1 N 1.00315 0.48093 0.99667 0.0
N2 N 0.97062 0.42898 0.9618 0.0
C3 C 0.9904 0.46292 0.9587 0.0
C4 C 0.97007 0.42479 1.00298 0.0
C5 C 0.99056 0.45737 0.02487 0.0
O6 O 1.00505 0.53416 0.97246 0.0
C7 C 0.09379 0.50402 0.0348 0.0
O8 O 0.10435 0.50592 0.99728 0.0
H9 H 0.99912 0.47446 0.92965 0.0
H10 H 0.99896 0.46321 0.05843 0.0
N11 N 0.05746 0.56485 0.03424 0.0
N12 N 0.08086 0.60686 0.08575 0.0
C13 C 0.06628 0.57292 0.07607 0.0
C14 C 0.06762 0.59478 0.01775 0.0
C15 C 0.08176 0.62074 0.04958 0.0
C16 C 1.00304 0.54458 0.93657 0.0
O17 O 1.02738 0.54944 0.91101 0.0
H18 H 0.06415 0.55507 0.09841 0.0
H19 H 0.06673 0.59786 0.98455 0.0
O20 O 0.07036 0.51234 0.0416 0.0
H21 H 0.95859 0.4002 0.01604 0.0
H22 H 0.09369 0.64799 0.04644 0.0
Cu23 Cu 0.52939 1.01238 0.53163 0.0
N24 N 0.56083 1.00119 0.50264 0.0
N25 N 0.58452 0.97627 0.46441 0.0
C26 C 0.56388 0.99096 0.46314 0.0
C27 C 0.59444 0.97684 0.50515 0.0
C28 C 0.5799 0.99147 0.52802 0.0
O29 O 0.48107 0.97133 0.52023 0.0
C30 C 0.58761 0.05409 0.58225 0.0
O31 O 0.59193 0.06817 0.54659 0.0
H32 H 0.54987 0.99233 0.43435 0.0
H33 H 0.58094 0.99214 0.56176 0.0
N34 N 0.51665 0.04707 0.53207 0.0
N35 N 0.49161 0.07348 0.56456 0.0
C36 C 0.51537 0.06249 0.56882 0.0
C37 C 0.49212 0.04854 0.50422 0.0
C38 C 0.477 0.06471 0.52398 0.0
C39 C 0.47073 0.96867 0.4812 0.0
O40 O 0.49432 0.98989 0.45689 0.0
H41 H 0.52902 0.06295 0.59901 0.0
H42 H 0.48301 0.03618 0.47245 0.0
O43 O 0.5572 0.02591 0.58618 0.0
H44 H 0.60959 0.96568 0.51766 0.0
H45 H 0.45536 0.0681 0.51005 0.0
Cu46 Cu 0.53424 0.52794 0.01032 0.0
N47 N 0.50875 0.47836 0.99143 0.0
N48 N 0.48695 0.42671 0.95359 0.0
C49 C 0.51729 0.45549 0.97573 0.0
C50 C 0.45886 0.43139 0.95477 0.0
C51 C 0.47204 0.4625 0.97704 0.0
O52 O 0.56039 0.55009 0.96451 0.0
C53 C 0.48069 0.51163 0.05324 0.0
O54 O 0.50005 0.50029 0.07207 0.0
H55 H 0.54508 0.46044 0.97797 0.0
H56 H 0.45578 0.47395 0.97876 0.0
N57 N 0.56784 0.55945 0.05867 0.0
N58 N 0.5936 0.61048 0.09983 0.0
C59 C 0.56187 0.5823 0.07974 0.0
C60 C 0.60521 0.57482 0.06606 0.0
C61 C 0.62083 0.60578 0.09121 0.0
C62 C 0.58605 0.54414 0.96306 0.0
O63 O 0.58879 0.52415 0.98916 0.0
H64 H 0.53531 0.58005 0.0774 0.0
H65 H 0.62096 0.56609 0.05145 0.0
O66 O 0.49163 0.5285 0.02133 0.0
H67 H 0.43103 0.41432 0.93833 0.0
H68 H 0.65027 0.62443 0.10043 0.0
Cu69 Cu 0.03339 0.52059 0.50369 0.0
N70 N 1.02366 0.49191 0.45646 0.0
N71 N 0.04268 0.46612 0.41535 0.0
C72 C 0.05257 0.49499 0.43898 0.0
C73 C 1.00634 0.44352 0.41774 0.0
C74 C 0.99454 0.45956 0.44373 0.0
O75 O 0.07068 0.56171 0.47599 0.0
C76 C 1.0173 0.46841 0.57156 0.0
O77 O 0.05138 0.48445 0.59077 0.0
H78 H 0.0812 0.5164 0.44726 0.0
H79 H 0.96801 0.44738 0.45591 0.0
N80 N 1.00319 0.53735 0.51091 0.0
N81 N 0.97291 0.55146 0.55125 0.0
C82 C 0.97752 0.52613 0.53788 0.0
C83 C 1.01458 0.57082 0.50776 0.0
C84 C 0.99593 0.57953 0.53277 0.0
C85 C 0.10166 0.59083 0.48278 0.0
O86 O 0.12166 0.59997 0.51964 0.0
H87 H 0.96579 0.5016 0.55111 0.0
H88 H 0.03762 0.58912 0.49215 0.0
O89 O 1.00982 0.48098 0.54023 0.0
H90 H 0.99052 0.41672 0.40453 0.0
H91 H 1.00106 0.60513 0.53971 0.0
Cu92 Cu 0.5413 0.02119 0.01162 0.0
N93 N 0.5319 0.05563 0.01544 0.0
N94 N 0.50372 0.08005 0.98726 0.0
C95 C 0.52014 0.06295 0.97969 0.0
C96 C 0.50484 0.08398 0.02921 0.0
C97 C 0.5222 0.06842 0.04684 0.0
O98 O 0.57957 0.05018 0.97401 0.0
C99 C 0.46813 0.96823 0.04209 0.0
O100 O 0.45354 0.95352 1.00371 0.0
H101 H 0.52032 0.0529 0.9486 0.0
H102 H 0.52435 0.06392 0.07947 0.0
N103 N 0.57775 0.01967 0.04463 0.0
N104 N 0.60121 0.99916 0.0899 0.0
C105 C 0.57696 1.00904 0.08324 0.0
C106 C 0.60277 1.01539 0.02694 0.0
C107 C 0.61745 1.00303 0.05493 0.0
C108 C 0.58553 0.04578 0.93669 0.0
O109 O 0.56177 1.01685 0.91318 0.0
H110 H 0.55657 1.00504 0.10395 0.0
H111 H 0.60699 1.01692 0.99424 0.0
O112 O 0.50195 0.99374 0.0489 0.0
H113 H 0.49174 0.09497 0.04546 0.0
H114 H 0.63583 0.99434 0.04874 0.0
Cu115 Cu 0.52716 0.52301 0.52155 0.0
N116 N 0.55889 0.54902 0.48412 0.0
N117 N 0.58866 0.59594 0.4512 0.0
C118 C 0.55876 0.57612 0.47042 0.0
C119 C 0.6087 0.58132 0.45246 0.0
C120 C 0.59006 0.55194 0.47304 0.0
O121 O 0.48962 0.50414 0.46952 0.0
C122 C 0.59028 0.55321 0.58961 0.0
O123 O 0.57702 0.57121 0.60345 0.0
H124 H 0.5385 0.5824 0.47706 0.0
H125 H 0.59984 0.53543 0.48192 0.0
N126 N 0.5 0.47745 0.5335 0.0
N127 N 0.48156 0.42783 0.55947 0.0
C128 C 0.51097 0.4573 0.54956 0.0
C129 C 0.46279 0.45989 0.53433 0.0
C130 C 0.45129 0.42899 0.54983 0.0
C131 C 0.46247 0.50836 0.46271 0.0
O132 O 0.45892 0.5279 0.49035 0.0
H133 H 0.53966 0.4647 0.55609 0.0
H134 H 0.44533 0.46975 0.52681 0.0
O135 O 0.57287 0.53128 0.55709 0.0
H136 H 0.63566 0.59218 0.44145 0.0
H137 H 0.42336 0.40979 0.55603 0.0
C138 C 0.22092 0.48965 0.18908 0.0
C139 C 0.22821 0.52231 0.18256 0.0
C140 C 0.25996 0.54554 0.20815 0.0
C141 C 0.27034 0.52597 0.22879 0.0
N142 N 0.24746 0.4915 0.21766 0.0
Co143 Co 0.25196 0.45405 0.24213 0.0
N144 N 0.29776 0.48874 0.2816 0.0
C145 C 0.31448 0.52359 0.28505 0.0
C146 C 0.34548 0.541 0.31413 0.0
C147 C 0.34938 0.51595 0.32998 0.0
C148 C 0.32035 0.48446 0.30948 0.0
N149 N 0.25663 0.41686 0.26703 0.0
C150 C 0.28363 0.41923 0.29565 0.0
C151 C 0.27665 0.38676 0.30237 0.0
C152 C 0.24448 0.36316 0.27706 0.0
C153 C 0.23348 0.38238 0.25631 0.0
N154 N 0.20627 0.41974 0.20212 0.0
C155 C 0.18981 0.38494 0.19824 0.0
C156 C 0.15827 0.36787 0.16959 0.0
C157 C 0.1541 0.39322 0.15454 0.0
C158 C 0.18338 0.42449 0.17492 0.0
N159 N 0.28391 0.45677 0.2 0.0
C160 C 0.33443 0.46059 0.14821 0.0
C161 C 0.30307 0.4287 0.15279 0.0
C162 C 0.27808 0.42739 0.17882 0.0
C163 C 0.34011 0.49055 0.1685 0.0
C164 C 0.31422 0.48811 0.19362 0.0
N165 N 0.21986 0.45093 0.28434 0.0
C166 C 0.16092 0.4187 0.31147 0.0
C167 C 0.16798 0.44904 0.33237 0.0
C168 C 0.20202 0.47972 0.33197 0.0
C169 C 0.22755 0.4801 0.30779 0.0
C170 C 0.18764 0.42012 0.28835 0.0
H171 H 0.25251 0.50455 0.30737 0.0
H172 H 0.18109 0.39621 0.2731 0.0
H173 H 0.2547 0.40235 0.18161 0.0
H174 H 0.3195 0.51186 0.20774 0.0
C175 C 0.30059 0.53927 0.26001 0.0
C176 C 0.18774 0.45793 0.16821 0.0
C177 C 0.31655 0.4516 0.31665 0.0
C178 C 0.20331 0.36916 0.22436 0.0
H179 H 0.21189 0.52874 0.16197 0.0
H180 H 0.27345 0.5734 0.21197 0.0
H181 H 0.36344 0.56869 0.32239 0.0
H182 H 0.37154 0.52052 0.35354 0.0
H183 H 0.29345 0.38086 0.32297 0.0
H184 H 0.23122 0.33532 0.2734 0.0
H185 H 0.13989 0.3402 0.16147 0.0
H186 H 0.13166 0.38918 0.13177 0.0
H187 H 0.29795 0.40508 0.13661 0.0
H188 H 0.36426 0.51577 0.16477 0.0
H189 H 0.13466 0.39434 0.31198 0.0
H190 H 0.20825 0.5036 0.34865 0.0
C191 C 0.74513 0.19634 0.68807 0.0
C192 C 0.71329 0.19634 0.67565 0.0
C193 C 0.71758 0.22487 0.69671 0.0
C194 C 0.75163 0.24057 0.72059 0.0
N195 N 0.7697 0.22415 0.7154 0.0
Co196 Co 0.81723 0.23487 0.74752 0.0
N197 N 0.82243 0.27535 0.78072 0.0
C198 C 0.79905 0.28673 0.77788 0.0
C199 C 0.81082 0.31572 0.80448 0.0
C200 C 0.84439 0.32408 0.82442 0.0
C201 C 0.85097 0.29943 0.80873 0.0
N202 N 0.86437 0.2449 0.78022 0.0
C203 C 0.88934 0.27266 0.80723 0.0
C204 C 0.92026 0.27156 0.82104 0.0
C205 C 0.91476 0.24202 0.80147 0.0
C206 C 0.88097 0.22695 0.77713 0.0
N207 N 0.81278 0.19499 0.71336 0.0
C208 C 0.83665 0.1842 0.71571 0.0
C209 C 0.82476 0.15477 0.68982 0.0
C210 C 0.79091 0.14586 0.67018 0.0
C211 C 0.7843 0.17052 0.6855 0.0
N212 N 0.84702 0.26738 0.70571 0.0
C213 C 0.89481 0.32143 0.65754 0.0
C214 C 0.90149 0.29565 0.66791 0.0
C215 C 0.87747 0.26906 0.69196 0.0
C216 C 0.86285 0.31847 0.6698 0.0
C217 C 0.83934 0.29132 0.69285 0.0
N218 N 0.78684 0.20301 0.78982 0.0
C219 C 0.76017 0.14885 0.82254 0.0
C220 C 0.73599 0.15537 0.84188 0.0
C221 C 0.73899 0.18653 0.83635 0.0
C222 C 0.7641 0.20955 0.81071 0.0
C223 C 0.78552 0.17305 0.79706 0.0
H224 H 0.76344 0.23205 0.80778 0.0
H225 H 0.80327 0.16676 0.7829 0.0
H226 H 0.88447 0.25066 0.70009 0.0
H227 H 0.81541 0.29078 0.70072 0.0
C228 C 0.76624 0.26944 0.74989 0.0
C229 C 0.74929 0.1679 0.6761 0.0
C230 C 0.88571 0.30134 0.81864 0.0
C231 C 0.86724 0.19932 0.74648 0.0
H232 H 0.68891 0.177 0.65472 0.0
H233 H 0.69764 0.23253 0.69595 0.0
H234 H 0.79709 0.32958 0.80819 0.0
H235 H 0.86247 0.34636 0.84702 0.0
H236 H 0.94481 0.29077 0.84186 0.0
H237 H 0.93405 0.23358 0.80293 0.0
H238 H 0.83812 0.14046 0.68733 0.0
H239 H 0.7724 0.123 0.64853 0.0
H240 H 0.92566 0.29649 0.65856 0.0
H241 H 0.85613 0.33742 0.66212 0.0
H242 H 0.75908 0.12501 0.82633 0.0
H243 H 0.72114 0.19288 0.85096 0.0
C244 C 0.59155 0.75051 0.22199 0.0
C245 C 0.55684 0.7219 0.20597 0.0
C246 C 0.53107 0.72555 0.22335 0.0
C247 C 0.55126 0.75603 0.24885 0.0
N248 N 0.58852 0.77254 0.24852 0.0
Co249 Co 0.62767 0.81691 0.28308 0.0
N250 N 0.58906 0.82153 0.30914 0.0
C251 C 0.55166 0.79928 0.30167 0.0
C252 C 0.53199 0.80883 0.32368 0.0
C253 C 0.55822 0.8396 0.34584 0.0
C254 C 0.5926 0.84709 0.33595 0.0
N255 N 0.66646 0.8611 0.3183 0.0
C256 C 0.66278 0.8838 0.34303 0.0
C257 C 0.69723 0.91228 0.35969 0.0
C258 C 0.72349 0.90767 0.34471 0.0
C259 C 0.70376 0.87667 0.31983 0.0
N260 N 0.66589 0.8123 0.25606 0.0
C261 C 0.70327 0.83469 0.26342 0.0
C262 C 0.72263 0.82449 0.24158 0.0
C263 C 0.69607 0.79358 0.21923 0.0
C264 C 0.66182 0.78652 0.22873 0.0
N265 N 0.62636 0.84417 0.23842 0.0
C266 C 0.6243 0.89352 0.19408 0.0
C267 C 0.65827 0.89749 0.20642 0.0
C268 C 0.65864 0.87219 0.22829 0.0
C269 C 0.59136 0.86318 0.19958 0.0
C270 C 0.59303 0.83845 0.22116 0.0
N271 N 0.6294 0.78981 0.32809 0.0
C272 C 0.66144 0.76677 0.36507 0.0
C273 C 0.62799 0.74101 0.37718 0.0
C274 C 0.59611 0.74148 0.36814 0.0
C275 C 0.59744 0.76616 0.34372 0.0
C276 C 0.66168 0.79152 0.34135 0.0
H277 H 0.57186 0.76439 0.33658 0.0
H278 H 0.68798 0.81092 0.33309 0.0
H279 H 0.6853 0.87683 0.23851 0.0
H280 H 0.56715 0.81583 0.22536 0.0
C281 C 0.53587 0.76944 0.27386 0.0
C282 C 0.62626 0.75453 0.21206 0.0
C283 C 0.62731 0.87972 0.35089 0.0
C284 C 0.71913 0.86353 0.29367 0.0
H285 H 0.55072 0.70023 0.18445 0.0
H286 H 0.50112 0.7078 0.21848 0.0
H287 H 0.50207 0.79529 0.32315 0.0
H288 H 0.55256 0.85513 0.36628 0.0
H289 H 0.70271 0.93441 0.37983 0.0
H290 H 0.75343 0.92551 0.35001 0.0
H291 H 0.75255 0.83746 0.24272 0.0
H292 H 0.70126 0.77763 0.1989 0.0
H293 H 0.68427 0.92057 0.20113 0.0
H294 H 0.56453 0.85921 0.1889 0.0
H295 H 0.68684 0.76719 0.37266 0.0
H296 H 0.56986 0.72192 0.37812 0.0
C297 C 0.77946 0.61895 0.73 0.0
C298 C 0.78645 0.65131 0.72253 0.0
C299 C 0.81936 0.6752 0.74647 0.0
C300 C 0.83074 0.65625 0.7672 0.0
N301 N 0.80701 0.62168 0.75804 0.0
Co302 Co 0.81249 0.58495 0.78301 0.0
N303 N 0.86015 0.6199 0.81976 0.0
C304 C 0.87686 0.65471 0.82262 0.0
C305 C 0.90978 0.67221 0.84902 0.0
C306 C 0.91465 0.64711 0.86353 0.0
C307 C 0.88434 0.61558 0.84508 0.0
N308 N 0.81801 0.54796 0.80702 0.0
C309 C 0.84631 0.55029 0.83285 0.0
C310 C 0.83973 0.51782 0.83907 0.0
C311 C 0.80648 0.49419 0.81617 0.0
C312 C 0.79458 0.51337 0.79735 0.0
N313 N 0.76455 0.54968 0.74689 0.0
C314 C 0.74708 0.5148 0.74533 0.0
C315 C 0.71551 0.497 0.71708 0.0
C316 C 0.71195 0.52184 0.69996 0.0
C317 C 0.74178 0.55359 0.71882 0.0
N318 N 0.84148 0.5862 0.73809 0.0
C319 C 0.88782 0.584 0.68469 0.0
C320 C 0.85309 0.55477 0.68685 0.0
C321 C 0.83047 0.55636 0.71376 0.0
C322 C 0.8985 0.61524 0.70657 0.0
C323 C 0.87438 0.6159 0.73255 0.0
N324 N 0.78352 0.58401 0.82799 0.0
C325 C 0.72672 0.55243 0.8592 0.0
C326 C 0.73173 0.58342 0.875 0.0
C327 C 0.76449 0.61448 0.87123 0.0
C328 C 0.79017 0.61417 0.84776 0.0
C329 C 0.75343 0.5533 0.83656 0.0
H330 H 0.81414 0.63872 0.84452 0.0
H331 H 0.74836 0.52898 0.82483 0.0
H332 H 0.80498 0.53272 0.7153 0.0
H333 H 0.88334 0.64039 0.74849 0.0
C334 C 0.86233 0.66998 0.79716 0.0
C335 C 0.74626 0.58641 0.70978 0.0
C336 C 0.88039 0.58232 0.85135 0.0
C337 C 0.7624 0.49958 0.76895 0.0
H338 H 0.76935 0.65698 0.7021 0.0
H339 H 0.83305 0.70309 0.74896 0.0
H340 H 0.92864 0.69997 0.85583 0.0
H341 H 0.93823 0.65148 0.88452 0.0
H342 H 0.85744 0.51179 0.85767 0.0
H343 H 0.79296 0.46632 0.81285 0.0
H344 H 0.69739 0.46924 0.70959 0.0
H345 H 0.6897 0.51703 0.67635 0.0
H346 H 0.844 0.53033 0.66917 0.0
H347 H 0.92529 0.63859 0.70433 0.0
H348 H 0.70175 0.52778 0.86285 0.0
H349 H 0.76939 0.63891 0.88437 0.0
C350 C 0.28872 0.8747 0.33577 0.0
C351 C 0.2824 0.90061 0.34604 0.0
C352 C 0.25091 0.89267 0.32121 0.0
C353 C 0.23996 0.86254 0.29739 0.0
N354 N 0.26251 0.85068 0.30548 0.0
Co355 Co 0.25983 0.81036 0.275 0.0
N356 N 0.2152 0.80051 0.23653 0.0
C357 C 0.19887 0.81882 0.23504 0.0
C358 C 0.16692 0.80381 0.20721 0.0
C359 C 0.16206 0.7736 0.19069 0.0
C360 C 0.19152 0.77222 0.20962 0.0
N361 N 0.25677 0.76992 0.24488 0.0
C362 C 0.22884 0.74477 0.21714 0.0
C363 C 0.23519 0.71909 0.20577 0.0
C364 C 0.26798 0.72788 0.22836 0.0
C365 C 0.27961 0.75828 0.25196 0.0
N366 N 0.30494 0.82071 0.31288 0.0
C367 C 0.32262 0.80351 0.31238 0.0
C368 C 0.35317 0.81716 0.34192 0.0
C369 C 0.35566 0.84515 0.362 0.0
C370 C 0.32618 0.84683 0.34348 0.0
N371 N 0.22611 0.77777 0.31464 0.0
C372 C 0.17601 0.72239 0.35971 0.0
C373 C 0.21257 0.73165 0.35918 0.0
C374 C 0.23672 0.75888 0.33697 0.0
C375 C 0.16505 0.74248 0.33893 0.0
C376 C 0.19058 0.77022 0.31708 0.0
N377 N 0.29388 0.84197 0.23504 0.0
C378 C 0.34997 0.86314 0.20098 0.0
C379 C 0.34528 0.88734 0.18174 0.0
C380 C 0.3141 0.88844 0.18919 0.0
C381 C 0.289 0.86581 0.21599 0.0
C382 C 0.32413 0.84077 0.22657 0.0
H383 H 0.266 0.86811 0.22095 0.0
H384 H 0.3294 0.82257 0.23887 0.0
H385 H 0.26361 0.76313 0.33764 0.0
H386 H 0.18091 0.78481 0.3017 0.0
C387 C 0.21099 0.84694 0.2645 0.0
C388 C 0.32031 0.87432 0.35494 0.0
C389 C 0.19411 0.74224 0.20499 0.0
C390 C 0.30953 0.77441 0.2839 0.0
H391 H 0.29929 0.92326 0.36851 0.0
H392 H 0.23828 0.90772 0.31961 0.0
H393 H 0.14814 0.81262 0.20168 0.0
H394 H 0.13863 0.75398 0.1689 0.0
H395 H 0.21702 0.69559 0.18498 0.0
H396 H 0.28072 0.71292 0.22923 0.0
H397 H 0.37166 0.80808 0.34781 0.0
H398 H 0.37716 0.86261 0.38705 0.0
H399 H 0.22257 0.71733 0.37532 0.0
H400 H 0.137 0.73669 0.33912 0.0
H401 H 0.37344 0.86105 0.19588 0.0
H402 H 0.30907 0.90663 0.17451 0.0
C403 C 0.40851 0.2539 0.81202 0.0
C404 C 0.37394 0.24812 0.81758 0.0
C405 C 0.34791 0.21771 0.79388 0.0
C406 C 0.36788 0.20651 0.77518 0.0
N407 N 0.4051 0.2279 0.78567 0.0
Co408 Co 0.44428 0.22262 0.76268 0.0
N409 N 0.40654 0.18004 0.72389 0.0
C410 C 0.36917 0.16505 0.71966 0.0
C411 C 0.35016 0.13544 0.69224 0.0
C412 C 0.37697 0.13115 0.67831 0.0
C413 C 0.41098 0.15842 0.69809 0.0
N414 N 0.48385 0.21761 0.74033 0.0
C415 C 0.4812 0.19285 0.71275 0.0
C416 C 0.51605 0.19919 0.70718 0.0
C417 C 0.54153 0.22845 0.73245 0.0
C418 C 0.52103 0.23839 0.75197 0.0
N419 N 0.48251 0.26552 0.80068 0.0
C420 C 0.51994 0.28068 0.80475 0.0
C421 C 0.53933 0.30969 0.83276 0.0
C422 C 0.51293 0.31399 0.84706 0.0
C423 C 0.4787 0.28717 0.82674 0.0
N424 N 0.44114 0.19301 0.80683 0.0
C425 C 0.44061 0.14487 0.85675 0.0
C426 C 0.47295 0.17718 0.857 0.0
C427 C 0.47261 0.20082 0.83193 0.0
C428 C 0.40771 0.13751 0.83423 0.0
C429 C 0.40844 0.16238 0.81023 0.0
N430 N 0.44699 0.25181 0.71856 0.0
C431 C 0.48374 0.30358 0.68553 0.0
C432 C 0.45157 0.29946 0.66542 0.0
C433 C 0.417 0.27072 0.67008 0.0
C434 C 0.41535 0.24706 0.69686 0.0
C435 C 0.48085 0.27915 0.71132 0.0
H436 H 0.38829 0.22575 0.70015 0.0
H437 H 0.50633 0.28329 0.7256 0.0
H438 H 0.49848 0.22459 0.83246 0.0
H439 H 0.38248 0.15589 0.79409 0.0
C440 C 0.35292 0.17807 0.74456 0.0
C441 C 0.44387 0.28458 0.83202 0.0
C442 C 0.44669 0.16225 0.6922 0.0
C443 C 0.53609 0.2669 0.78178 0.0
H444 H 0.36826 0.26453 0.83629 0.0
H445 H 0.31801 0.20576 0.78971 0.0
H446 H 0.32029 0.11843 0.68424 0.0
H447 H 0.37207 0.11001 0.65667 0.0
H448 H 0.52248 0.1839 0.68741 0.0
H449 H 0.57147 0.24076 0.73663 0.0
H450 H 0.56917 0.32603 0.84138 0.0
H451 H 0.51849 0.33495 0.86946 0.0
H452 H 0.49872 0.18382 0.87543 0.0
H453 H 0.38188 0.11278 0.83478 0.0
H454 H 0.511 0.32569 0.68162 0.0
H455 H 0.3916 0.26691 0.65395 0.0
C456 C 0.12246 0.48036 0.09175 0.0
C457 C 0.10828 0.4913 0.06757 0.0
C458 C 0.14149 0.46838 0.11814 0.0
C459 C 0.16039 0.46087 0.14032 0.0
C460 C 0.6502 0.08512 0.63078 0.0
C461 C 0.61945 0.06794 0.61237 0.0
C462 C 0.68691 0.11016 0.64683 0.0
C463 C 0.71673 0.13527 0.65952 0.0
C464 C 0.60639 0.66763 0.14147 0.0
C465 C 0.59889 0.64068 0.12198 0.0
C466 C 0.61692 0.69961 0.16533 0.0
C467 C 0.62407 0.72586 0.18625 0.0
C468 C 0.94069 0.55811 0.61135 0.0
C469 C 0.95428 0.55198 0.58422 0.0
C470 C 0.92688 0.57093 0.63934 0.0
C471 C 0.91207 0.58043 0.66087 0.0
C472 C 0.42344 0.94331 0.10279 0.0
C473 C 0.44507 0.95574 0.07653 0.0
C474 C 0.39597 0.92629 0.13115 0.0
C475 C 0.37198 0.9095 0.15369 0.0
C476 C 0.4757 0.37856 0.59978 0.0
C477 C 0.48154 0.40254 0.58131 0.0
C478 C 0.46372 0.3495 0.62105 0.0
C479 C 0.45505 0.3253 0.64036 0.0
C480 C 0.60338 0.94495 0.41108 0.0
C481 C 0.59292 0.96003 0.4325 0.0
C482 C 0.61653 0.92582 0.39037 0.0
C483 C 0.62497 0.90715 0.37315 0.0
C484 C 0.64248 0.57231 0.92099 0.0
C485 C 0.61492 0.56173 0.93763 0.0
C486 C 0.67536 0.58014 0.90558 0.0
C487 C 0.70203 0.58326 0.89202 0.0
C488 C 0.12169 0.63881 0.42764 0.0
C489 C 0.11166 0.61631 0.45187 0.0
C490 C 0.13583 0.66728 0.40186 0.0
C491 C 0.15132 0.69249 0.3819 0.0
C492 C 0.46754 0.09319 0.93059 0.0
C493 C 0.48428 0.0871 0.95673 0.0
C494 C 0.45096 0.10447 0.90195 0.0
C495 C 0.44217 0.12001 0.88015 0.0
C496 C 0.40606 0.47464 0.40026 0.0
C497 C 0.4329 0.48887 0.42754 0.0
C498 C 0.37328 0.46046 0.37012 0.0
C499 C 0.34603 0.45261 0.34532 0.0
C500 C 0.95145 0.38289 0.89974 0.0
C501 C 0.96017 0.40393 0.9287 0.0
C502 C 0.93603 0.35614 0.86764 0.0
C503 C 0.91588 0.3313 0.84337 0.0
C504 C 0.95512 0.56298 0.9118 0.0
C505 C 0.97613 0.55414 0.92497 0.0
C506 C 0.93125 0.5734 0.89338 0.0
C507 C 0.90976 0.58002 0.8755 0.0
C508 C 0.40307 0.9351 0.44363 0.0
C509 C 0.43264 0.94887 0.46469 0.0
C510 C 0.3713 0.91897 0.41423 0.0
C511 C 0.34637 0.90097 0.38706 0.0
C512 C 0.47221 0.37134 0.90719 0.0
C513 C 0.48271 0.39792 0.92951 0.0
C514 C 0.45658 0.33953 0.88056 0.0
C515 C 0.44633 0.31311 0.85804 0.0
C516 C 0.09006 0.45535 0.38494 0.0
C517 C 0.06748 0.45952 0.39865 0.0
C518 C 0.11676 0.45151 0.36815 0.0
C519 C 0.13955 0.4495 0.35154 0.0
C520 C 0.64906 0.0908 0.90644 0.0
C521 C 0.62063 0.07118 0.92167 0.0
C522 C 0.68122 0.11223 0.88561 0.0
C523 C 0.70674 0.13038 0.86547 0.0
C524 C 0.6085 0.65552 0.42638 0.0
C525 C 0.5992 0.62797 0.4379 0.0
C526 C 0.61889 0.68706 0.41148 0.0
C527 C 0.62514 0.71244 0.39587 0.0
C528 C 0.47034 0.10196 0.61963 0.0
C529 C 0.4813 0.08877 0.5957 0.0
C530 C 0.45751 0.11933 0.64485 0.0
C531 C 0.44936 0.13669 0.66575 0.0
C532 C 0.41669 0.48671 0.0801 0.0
C533 C 0.44513 0.49969 0.06505 0.0
C534 C 0.3855 0.47193 0.10126 0.0
C535 C 0.36052 0.4635 0.12165 0.0
C536 C 0.96566 0.4085 0.59973 0.0
C537 C 0.98811 0.43558 0.58578 0.0
C538 C 0.94094 0.37711 0.61833 0.0
C539 C 0.9207 0.35146 0.63605 0.0
C540 C 0.60947 0.96406 0.14487 0.0
C541 C 0.60348 0.98055 0.1216 0.0
C542 C 0.61771 0.94212 0.16438 0.0
C543 C 0.62273 0.92104 0.17808 0.0
C544 C 0.65484 0.56813 0.63179 0.0
C545 C 0.62548 0.55986 0.61097 0.0
C546 C 0.68888 0.57865 0.65812 0.0
C547 C 0.71649 0.58527 0.68141 0.0
C548 C 0.11377 0.64859 0.15282 0.0
C549 C 0.09758 0.62633 0.12433 0.0
C550 C 0.13753 0.68039 0.17642 0.0
C551 C 0.16164 0.709 0.19069 0.0
loop_
_geom_bond_atom_site_label_1
_geom_bond_atom_site_label_2
_geom_bond_distance
_geom_bond_site_symmetry_2
_ccdc_geom_bond_type
Cu0 N1 1.999 1_454 S
Cu0 O6 1.957 1_454 S
Cu0 N11 1.986 . S
Cu0 O20 1.976 . S
N1 Cu0 1.999 1_656 S
N1 C3 1.263 . S
N1 C5 1.389 1_556 S
N2 C3 1.358 . S
N2 C4 1.400 . S
C3 N1 1.263 . S
C3 N2 1.358 . S
C3 H9 0.930 . S
C4 N2 1.400 . S
C4 C5 1.351 1_556 S
C4 H21 0.930 . S
C5 N1 1.389 1_554 S
C5 C4 1.351 1_554 S
C5 H10 0.930 . S
O6 Cu0 1.957 1_656 S
O6 C16 1.282 . S
C7 O8 1.271 . S
C7 O20 1.251 . S
O8 C7 1.271 . S
H9 C3 0.930 . S
H10 C5 0.930 . S
N11 Cu0 1.986 . S
N11 C13 1.335 . S
N11 C14 1.390 . S
N12 C13 1.345 . S
N12 C15 1.336 . S
C13 N11 1.335 . S
C13 N12 1.345 . S
C13 H18 0.930 . S
C14 N11 1.390 . S
C14 C15 1.346 . S
C14 H19 0.924 1_554 S
C15 N12 1.336 . S
C15 C14 1.346 . S
C15 H22 0.929 . S
C16 O6 1.282 . S
C16 O17 1.216 1_655 S
O17 C16 1.216 1_455 S
H18 C13 0.930 . S
H19 C14 0.924 1_556 S
O20 Cu0 1.976 . S
O20 C7 1.251 . S
H21 C4 0.930 . S
H22 C15 0.929 . S
Cu23 N24 1.999 . S
Cu23 O29 1.974 . S
Cu23 N34 1.985 1_565 S
Cu23 O43 1.959 1_565 S
N24 Cu23 1.999 . S
N24 C26 1.263 . S
N24 C28 1.389 . S
N25 C26 1.358 . S
N25 C27 1.400 . S
C26 N24 1.263 . S
C26 N25 1.358 . S
C26 H32 0.930 . S
C27 N25 1.400 . S
C27 C28 1.351 . S
C27 H44 0.930 . S
C28 N24 1.389 . S
C28 C27 1.351 . S
C28 H33 0.930 . S
O29 Cu23 1.974 . S
O29 C39 1.282 . S
C30 O31 1.261 . S
C30 O43 1.251 . S
O31 C30 1.261 . S
H32 C26 0.930 . S
H33 C28 0.930 . S
N34 Cu23 1.985 1_545 S
N34 C36 1.335 . S
N34 C37 1.390 . S
N35 C36 1.345 . S
N35 C38 1.336 . S
C36 N34 1.335 . S
C36 N35 1.345 . S
C36 H41 0.930 . S
C37 N34 1.390 . S
C37 C38 1.346 . S
C37 H42 0.930 . S
C38 N35 1.336 . S
C38 C37 1.346 . S
C38 H45 0.929 . S
C39 O29 1.282 . S
C39 O40 1.216 . S
O40 C39 1.216 . S
H41 C36 0.930 . S
H42 C37 0.930 . S
O43 Cu23 1.959 1_545 S
O43 C30 1.251 . S
H44 C27 0.930 . S
H45 C38 0.929 . S
Cu46 N47 1.999 1_554 S
Cu46 O52 1.974 1_554 S
Cu46 N57 1.985 . S
Cu46 O66 1.959 . S
N47 Cu46 1.999 1_556 S
N47 C49 1.263 . S
N47 C51 1.389 . S
N48 C49 1.358 . S
N48 C50 1.400 . S
C49 N47 1.263 . S
C49 N48 1.358 . S
C49 H55 0.930 . S
C50 N48 1.400 . S
C50 C51 1.351 . S
C50 H67 0.930 . S
C51 N47 1.389 . S
C51 C50 1.351 . S
C51 H56 0.930 . S
O52 Cu46 1.974 1_556 S
O52 C62 1.282 . S
C53 O54 1.261 . S
C53 O66 1.251 . S
O54 C53 1.261 . S
H55 C49 0.930 . S
H56 C51 0.930 . S
N57 Cu46 1.985 . S
N57 C59 1.335 . S
N57 C60 1.390 . S
N58 C59 1.345 . S
N58 C61 1.336 . S
C59 N57 1.335 . S
C59 N58 1.345 . S
C59 H64 0.930 . S
C60 N57 1.390 . S
C60 C61 1.346 . S
C60 H65 0.930 . S
C61 N58 1.336 . S
C61 C60 1.346 . S
C61 H68 0.929 . S
C62 O52 1.282 . S
C62 O63 1.216 1_556 S
O63 C62 1.216 1_554 S
H64 C59 0.930 . S
H65 C60 0.930 . S
O66 Cu46 1.959 . S
O66 C53 1.251 . S
H67 C50 0.930 . S
H68 C61 0.929 . S
Cu69 N70 1.999 1_655 S
Cu69 O75 1.974 1_655 S
Cu69 N80 1.985 . S
Cu69 O89 1.959 . S
N70 Cu69 1.999 1_455 S
N70 C72 1.263 . S
N70 C74 1.389 1_455 S
N71 C72 1.358 . S
N71 C73 1.400 . S
C72 N70 1.263 . S
C72 N71 1.358 . S
C72 H78 0.930 . S
C73 N71 1.400 . S
C73 C74 1.351 1_455 S
C73 H90 0.930 . S
C74 N70 1.389 1_655 S
C74 C73 1.351 1_655 S
C74 H79 0.930 . S
O75 Cu69 1.974 1_455 S
O75 C85 1.282 . S
C76 O77 1.261 1_655 S
C76 O89 1.251 . S
O77 C76 1.261 1_455 S
H78 C72 0.930 . S
H79 C74 0.930 . S
N80 Cu69 1.985 . S
N80 C82 1.335 . S
N80 C83 1.390 . S
N81 C82 1.345 . S
N81 C84 1.336 . S
C82 N80 1.335 . S
C82 N81 1.345 . S
C82 H87 0.930 . S
C83 N80 1.390 . S
C83 C84 1.346 . S
C83 H88 0.930 1_655 S
C84 N81 1.336 . S
C84 C83 1.346 . S
C84 H91 0.929 . S
C85 O75 1.282 . S
C85 O86 1.216 . S
O86 C85 1.216 . S
H87 C82 0.930 . S
H88 C83 0.930 1_455 S
O89 Cu69 1.959 . S
O89 C76 1.251 . S
H90 C73 0.930 . S
H91 C84 0.929 . S
Cu92 N93 1.999 . S
Cu92 O98 1.974 1_554 S
Cu92 N103 1.985 1_545 S
Cu92 O112 1.959 1_545 S
N93 Cu92 1.999 . S
N93 C95 1.263 1_554 S
N93 C97 1.389 . S
N94 C95 1.358 . S
N94 C96 1.377 1_556 S
C95 N93 1.263 1_556 S
C95 N94 1.358 . S
C95 H101 0.930 . S
C96 N94 1.377 1_554 S
C96 C97 1.366 . S
C96 H113 0.937 . S
C97 N93 1.389 . S
C97 C96 1.366 . S
C97 H102 0.930 . S
O98 Cu92 1.974 1_556 S
O98 C108 1.282 . S
C99 O100 1.261 . S
C99 O112 1.251 . S
O100 C99 1.261 . S
H101 C95 0.930 . S
H102 C97 0.930 . S
N103 Cu92 1.985 1_565 S
N103 C105 1.335 . S
N103 C106 1.390 . S
N104 C105 1.345 . S
N104 C107 1.336 . S
C105 N103 1.335 . S
C105 N104 1.345 . S
C105 H110 0.930 . S
C106 N103 1.390 . S
C106 C107 1.346 . S
C106 H111 0.930 . S
C107 N104 1.336 . S
C107 C106 1.346 . S
C107 H114 0.929 . S
C108 O98 1.282 . S
C108 O109 1.216 . S
O109 C108 1.216 . S
H110 C105 0.930 . S
H111 C106 0.930 . S
O112 Cu92 1.959 1_565 S
O112 C99 1.251 . S
H113 C96 0.937 . S
H114 C107 0.929 . S
Cu115 N116 1.999 . S
Cu115 O121 1.974 . S
Cu115 N126 1.985 . S
Cu115 O135 1.959 . S
N116 Cu115 1.999 . S
N116 C118 1.263 . S
N116 C120 1.389 . S
N117 C118 1.358 . S
N117 C119 1.400 . S
C118 N116 1.263 . S
C118 N117 1.358 . S
C118 H124 0.930 . S
C119 N117 1.400 . S
C119 C120 1.351 . S
C119 H136 0.930 . S
C120 N116 1.389 . S
C120 C119 1.351 . S
C120 H125 0.930 . S
O121 Cu115 1.974 . S
O121 C131 1.282 . S
C122 O123 1.261 . S
C122 O135 1.251 . S
O123 C122 1.261 . S
H124 C118 0.930 . S
H125 C120 0.930 . S
N126 Cu115 1.985 . S
N126 C128 1.335 . S
N126 C129 1.390 . S
N127 C128 1.345 . S
N127 C130 1.336 . S
C128 N126 1.335 . S
C128 N127 1.345 . S
C128 H133 0.930 . S
C129 N126 1.390 . S
C129 C130 1.346 . S
C129 H134 0.930 . S
C130 N127 1.336 . S
C130 C129 1.346 . S
C130 H137 0.929 . S
C131 O121 1.282 . S
C131 O132 1.216 . S
O132 C131 1.216 . S
H133 C128 0.930 . S
H134 C129 0.930 . S
O135 Cu115 1.959 . S
O135 C122 1.251 . S
H136 C119 0.930 . S
H137 C130 0.929 . S
C138 C139 1.443 . S
C138 N142 1.376 . S
C138 C176 1.389 . S
C139 C138 1.443 . S
C139 C140 1.340 . S
C139 H179 0.951 . S
C140 C139 1.340 . S
C140 C141 1.439 . S
C140 H180 0.950 . S
C141 C140 1.439 . S
C141 N142 1.374 . S
C141 C175 1.395 . S
N142 C138 1.376 . S
N142 C141 1.374 . S
N142 Co143 2.008 . S
Co143 N142 2.008 . S
Co143 N144 1.995 . S
Co143 N149 2.008 . S
Co143 N154 1.995 . S
Co143 N159 2.282 . S
Co143 N165 2.282 . S
N144 Co143 1.995 . S
N144 C145 1.376 . S
N144 C148 1.383 . S
C145 N144 1.376 . S
C145 C146 1.446 . S
C145 C175 1.391 . S
C146 C145 1.446 . S
C146 C147 1.339 . S
C146 H181 0.949 . S
C147 C146 1.339 . S
C147 C148 1.439 . S
C147 H182 0.950 . S
C148 N144 1.383 . S
C148 C147 1.439 . S
C148 C177 1.392 . S
N149 Co143 2.008 . S
N149 C150 1.376 . S
N149 C153 1.374 . S
C150 N149 1.376 . S
C150 C151 1.443 . S
C150 C177 1.389 . S
C151 C150 1.443 . S
C151 C152 1.340 . S
C151 H183 0.951 . S
C152 C151 1.340 . S
C152 C153 1.439 . S
C152 H184 0.950 . S
C153 N149 1.374 . S
C153 C152 1.439 . S
C153 C178 1.395 . S
N154 Co143 1.995 . S
N154 C155 1.376 . S
N154 C158 1.383 . S
C155 N154 1.376 . S
C155 C156 1.446 . S
C155 C178 1.391 . S
C156 C155 1.446 . S
C156 C157 1.339 . S
C156 H185 0.949 . S
C157 C156 1.339 . S
C157 C158 1.439 . S
C157 H186 0.950 . S
C158 N154 1.383 . S
C158 C157 1.439 . S
C158 C176 1.392 . S
N159 Co143 2.282 . S
N159 C162 1.332 . S
N159 C164 1.332 . S
C160 C161 1.386 . S
C160 C163 1.388 . S
C161 C160 1.386 . S
C161 C162 1.382 . S
C161 H187 0.950 . S
C162 N159 1.332 . S
C162 C161 1.382 . S
C162 H173 0.952 . S
C163 C160 1.388 . S
C163 C164 1.382 . S
C163 H188 0.950 . S
C164 N159 1.332 . S
C164 C163 1.382 . S
C164 H174 0.948 . S
N165 Co143 2.282 . S
N165 C169 1.332 . S
N165 C170 1.332 . S
C166 C167 1.388 . S
C166 C170 1.382 . S
C166 H189 0.950 . S
C167 C166 1.388 . S
C167 C168 1.386 . S
C168 C167 1.386 . S
C168 C169 1.382 . S
C168 H190 0.950 . S
C169 N165 1.332 . S
C169 C168 1.382 . S
C169 H171 0.952 . S
C170 N165 1.332 . S
C170 C166 1.382 . S
C170 H172 0.948 . S
H171 C169 0.952 . S
H172 C170 0.948 . S
H173 C162 0.952 . S
H174 C164 0.948 . S
C175 C141 1.395 . S
C175 C145 1.391 . S
C176 C138 1.389 . S
C176 C158 1.392 . S
C177 C148 1.392 . S
C177 C150 1.389 . S
C178 C153 1.395 . S
C178 C155 1.391 . S
H179 C139 0.951 . S
H180 C140 0.950 . S
H181 C146 0.949 . S
H182 C147 0.950 . S
H183 C151 0.951 . S
H184 C152 0.950 . S
H185 C156 0.949 . S
H186 C157 0.950 . S
H187 C161 0.950 . S
H188 C163 0.950 . S
H189 C166 0.950 . S
H190 C168 0.950 . S
C191 C192 1.443 . S
C191 N195 1.376 . S
C191 C229 1.389 . S
C192 C191 1.443 . S
C192 C193 1.340 . S
C192 H232 0.951 . S
C193 C192 1.340 . S
C193 C194 1.439 . S
C193 H233 0.950 . S
C194 C193 1.439 . S
C194 N195 1.374 . S
C194 C228 1.395 . S
N195 C191 1.376 . S
N195 C194 1.374 . S
N195 Co196 2.008 . S
Co196 N195 2.008 . S
Co196 N197 1.995 . S
Co196 N202 2.008 . S
Co196 N207 1.995 . S
Co196 N212 2.282 . S
Co196 N218 2.282 . S
N197 Co196 1.995 . S
N197 C198 1.376 . S
N197 C201 1.383 . S
C198 N197 1.376 . S
C198 C199 1.446 . S
C198 C228 1.391 . S
C199 C198 1.446 . S
C199 C200 1.339 . S
C199 H234 0.949 . S
C200 C199 1.339 . S
C200 C201 1.439 . S
C200 H235 0.950 . S
C201 N197 1.383 . S
C201 C200 1.439 . S
C201 C230 1.392 . S
N202 Co196 2.008 . S
N202 C203 1.376 . S
N202 C206 1.374 . S
C203 N202 1.376 . S
C203 C204 1.443 . S
C203 C230 1.389 . S
C204 C203 1.443 . S
C204 C205 1.340 . S
C204 H236 0.951 . S
C205 C204 1.340 . S
C205 C206 1.439 . S
C205 H237 0.950 . S
C206 N202 1.374 . S
C206 C205 1.439 . S
C206 C231 1.395 . S
N207 Co196 1.995 . S
N207 C208 1.376 . S
N207 C211 1.383 . S
C208 N207 1.376 . S
C208 C209 1.446 . S
C208 C231 1.391 . S
C209 C208 1.446 . S
C209 C210 1.339 . S
C209 H238 0.949 . S
C210 C209 1.339 . S
C210 C211 1.439 . S
C210 H239 0.950 . S
C211 N207 1.383 . S
C211 C210 1.439 . S
C211 C229 1.392 . S
N212 Co196 2.282 . S
N212 C215 1.332 . S
N212 C217 1.332 . S
C213 C214 1.386 . S
C213 C216 1.388 . S
C214 C213 1.386 . S
C214 C215 1.382 . S
C214 H240 0.950 . S
C215 N212 1.332 . S
C215 C214 1.382 . S
C215 H226 0.952 . S
C216 C213 1.388 . S
C216 C217 1.382 . S
C216 H241 0.950 . S
C217 N212 1.332 . S
C217 C216 1.382 . S
C217 H227 0.948 . S
N218 Co196 2.282 . S
N218 C222 1.332 . S
N218 C223 1.332 . S
C219 C220 1.388 . S
C219 C223 1.382 . S
C219 H242 0.950 . S
C220 C219 1.388 . S
C220 C221 1.386 . S
C221 C220 1.386 . S
C221 C222 1.382 . S
C221 H243 0.950 . S
C222 N218 1.332 . S
C222 C221 1.382 . S
C222 H224 0.952 . S
C223 N218 1.332 . S
C223 C219 1.382 . S
C223 H225 0.948 . S
H224 C222 0.952 . S
H225 C223 0.948 . S
H226 C215 0.952 . S
H227 C217 0.948 . S
C228 C194 1.395 . S
C228 C198 1.391 . S
C229 C191 1.389 . S
C229 C211 1.392 . S
C230 C201 1.392 . S
C230 C203 1.389 . S
C231 C206 1.395 . S
C231 C208 1.391 . S
H232 C192 0.951 . S
H233 C193 0.950 . S
H234 C199 0.949 . S
H235 C200 0.950 . S
H236 C204 0.951 . S
H237 C205 0.950 . S
H238 C209 0.949 . S
H239 C210 0.950 . S
H240 C214 0.950 . S
H241 C216 0.950 . S
H242 C219 0.950 . S
H243 C221 0.950 . S
C244 C245 1.443 . S
C244 N248 1.376 . S
C244 C282 1.389 . S
C245 C244 1.443 . S
C245 C246 1.340 . S
C245 H285 0.951 . S
C246 C245 1.340 . S
C246 C247 1.439 . S
C246 H286 0.950 . S
C247 C246 1.439 . S
C247 N248 1.374 . S
C247 C281 1.395 . S
N248 C244 1.376 . S
N248 C247 1.374 . S
N248 Co249 2.008 . S
Co249 N248 2.008 . S
Co249 N250 1.995 . S
Co249 N255 2.008 . S
Co249 N260 1.995 . S
Co249 N265 2.282 . S
Co249 N271 2.282 . S
N250 Co249 1.995 . S
N250 C251 1.376 . S
N250 C254 1.383 . S
C251 N250 1.376 . S
C251 C252 1.446 . S
C251 C281 1.391 . S
C252 C251 1.446 . S
C252 C253 1.339 . S
C252 H287 0.949 . S
C253 C252 1.339 . S
C253 C254 1.439 . S
C253 H288 0.950 . S
C254 N250 1.383 . S
C254 C253 1.439 . S
C254 C283 1.392 . S
N255 Co249 2.008 . S
N255 C256 1.376 . S
N255 C259 1.374 . S
C256 N255 1.376 . S
C256 C257 1.443 . S
C256 C283 1.389 . S
C257 C256 1.443 . S
C257 C258 1.340 . S
C257 H289 0.951 . S
C258 C257 1.340 . S
C258 C259 1.439 . S
C258 H290 0.950 . S
C259 N255 1.374 . S
C259 C258 1.439 . S
C259 C284 1.395 . S
N260 Co249 1.995 . S
N260 C261 1.376 . S
N260 C264 1.383 . S
C261 N260 1.376 . S
C261 C262 1.446 . S
C261 C284 1.391 . S
C262 C261 1.446 . S
C262 C263 1.339 . S
C262 H291 0.949 . S
C263 C262 1.339 . S
C263 C264 1.439 . S
C263 H292 0.950 . S
C264 N260 1.383 . S
C264 C263 1.439 . S
C264 C282 1.392 . S
N265 Co249 2.282 . S
N265 C268 1.332 . S
N265 C270 1.332 . S
C266 C267 1.386 . S
C266 C269 1.388 . S
C267 C266 1.386 . S
C267 C268 1.382 . S
C267 H293 0.950 . S
C268 N265 1.332 . S
C268 C267 1.382 . S
C268 H279 0.952 . S
C269 C266 1.388 . S
C269 C270 1.382 . S
C269 H294 0.950 . S
C270 N265 1.332 . S
C270 C269 1.382 . S
C270 H280 0.948 . S
N271 Co249 2.282 . S
N271 C275 1.332 . S
N271 C276 1.332 . S
C272 C273 1.388 . S
C272 C276 1.382 . S
C272 H295 0.950 . S
C273 C272 1.388 . S
C273 C274 1.386 . S
C274 C273 1.386 . S
C274 C275 1.382 . S
C274 H296 0.950 . S
C275 N271 1.332 . S
C275 C274 1.382 . S
C275 H277 0.952 . S
C276 N271 1.332 . S
C276 C272 1.382 . S
C276 H278 0.948 . S
H277 C275 0.952 . S
H278 C276 0.948 . S
H279 C268 0.952 . S
H280 C270 0.948 . S
C281 C247 1.395 . S
C281 C251 1.391 . S
C282 C244 1.389 . S
C282 C264 1.392 . S
C283 C254 1.392 . S
C283 C256 1.389 . S
C284 C259 1.395 . S
C284 C261 1.391 . S
H285 C245 0.951 . S
H286 C246 0.950 . S
H287 C252 0.949 . S
H288 C253 0.950 . S
H289 C257 0.951 . S
H290 C258 0.950 . S
H291 C262 0.949 . S
H292 C263 0.950 . S
H293 C267 0.950 . S
H294 C269 0.950 . S
H295 C272 0.950 . S
H296 C274 0.950 . S
C297 C298 1.443 . S
C297 N301 1.376 . S
C297 C335 1.389 . S
C298 C297 1.443 . S
C298 C299 1.340 . S
C298 H338 0.951 . S
C299 C298 1.340 . S
C299 C300 1.439 . S
C299 H339 0.950 . S
C300 C299 1.439 . S
C300 N301 1.374 . S
C300 C334 1.395 . S
N301 C297 1.376 . S
N301 C300 1.374 . S
N301 Co302 2.008 . S
Co302 N301 2.008 . S
Co302 N303 1.995 . S
Co302 N308 2.008 . S
Co302 N313 1.995 . S
Co302 N318 2.282 . S
Co302 N324 2.282 . S
N303 Co302 1.995 . S
N303 C304 1.376 . S
N303 C307 1.383 . S
C304 N303 1.376 . S
C304 C305 1.446 . S
C304 C334 1.391 . S
C305 C304 1.446 . S
C305 C306 1.339 . S
C305 H340 0.949 . S
C306 C305 1.339 . S
C306 C307 1.439 . S
C306 H341 0.950 . S
C307 N303 1.383 . S
C307 C306 1.439 . S
C307 C336 1.392 . S
N308 Co302 2.008 . S
N308 C309 1.376 . S
N308 C312 1.374 . S
C309 N308 1.376 . S
C309 C310 1.443 . S
C309 C336 1.389 . S
C310 C309 1.443 . S
C310 C311 1.340 . S
C310 H342 0.951 . S
C311 C310 1.340 . S
C311 C312 1.439 . S
C311 H343 0.950 . S
C312 N308 1.374 . S
C312 C311 1.439 . S
C312 C337 1.395 . S
N313 Co302 1.995 . S
N313 C314 1.376 . S
N313 C317 1.383 . S
C314 N313 1.376 . S
C314 C315 1.446 . S
C314 C337 1.391 . S
C315 C314 1.446 . S
C315 C316 1.339 . S
C315 H344 0.949 . S
C316 C315 1.339 . S
C316 C317 1.439 . S
C316 H345 0.950 . S
C317 N313 1.383 . S
C317 C316 1.439 . S
C317 C335 1.392 . S
N318 Co302 2.282 . S
N318 C321 1.332 . S
N318 C323 1.332 . S
C319 C320 1.386 . S
C319 C322 1.388 . S
C320 C319 1.386 . S
C320 C321 1.382 . S
C320 H346 0.950 . S
C321 N318 1.332 . S
C321 C320 1.382 . S
C321 H332 0.952 . S
C322 C319 1.388 . S
C322 C323 1.382 . S
C322 H347 0.950 . S
C323 N318 1.332 . S
C323 C322 1.382 . S
C323 H333 0.948 . S
N324 Co302 2.282 . S
N324 C328 1.332 . S
N324 C329 1.332 . S
C325 C326 1.388 . S
C325 C329 1.382 . S
C325 H348 0.950 . S
C326 C325 1.388 . S
C326 C327 1.386 . S
C327 C326 1.386 . S
C327 C328 1.382 . S
C327 H349 0.950 . S
C328 N324 1.332 . S
C328 C327 1.382 . S
C328 H330 0.952 . S
C329 N324 1.332 . S
C329 C325 1.382 . S
C329 H331 0.948 . S
H330 C328 0.952 . S
H331 C329 0.948 . S
H332 C321 0.952 . S
H333 C323 0.948 . S
C334 C300 1.395 . S
C334 C304 1.391 . S
C335 C297 1.389 . S
C335 C317 1.392 . S
C336 C307 1.392 . S
C336 C309 1.389 . S
C337 C312 1.395 . S
C337 C314 1.391 . S
H338 C298 0.951 . S
H339 C299 0.950 . S
H340 C305 0.949 . S
H341 C306 0.950 . S
H342 C310 0.951 . S
H343 C311 0.950 . S
H344 C315 0.949 . S
H345 C316 0.950 . S
H346 C320 0.950 . S
H347 C322 0.950 . S
H348 C325 0.950 . S
H349 C327 0.950 . S
C350 C351 1.443 . S
C350 N354 1.376 . S
C350 C388 1.389 . S
C351 C350 1.443 . S
C351 C352 1.340 . S
C351 H391 0.951 . S
C352 C351 1.340 . S
C352 C353 1.439 . S
C352 H392 0.950 . S
C353 C352 1.439 . S
C353 N354 1.374 . S
C353 C387 1.395 . S
N354 C350 1.376 . S
N354 C353 1.374 . S
N354 Co355 2.008 . S
Co355 N354 2.008 . S
Co355 N356 1.995 . S
Co355 N361 2.008 . S
Co355 N366 1.995 . S
Co355 N371 2.282 . S
Co355 N377 2.282 . S
N356 Co355 1.995 . S
N356 C357 1.376 . S
N356 C360 1.383 . S
C357 N356 1.376 . S
C357 C358 1.446 . S
C357 C387 1.391 . S
C358 C357 1.446 . S
C358 C359 1.339 . S
C358 H393 0.949 . S
C359 C358 1.339 . S
C359 C360 1.439 . S
C359 H394 0.950 . S
C360 N356 1.383 . S
C360 C359 1.439 . S
C360 C389 1.392 . S
N361 Co355 2.008 . S
N361 C362 1.376 . S
N361 C365 1.374 . S
C362 N361 1.376 . S
C362 C363 1.443 . S
C362 C389 1.389 . S
C363 C362 1.443 . S
C363 C364 1.340 . S
C363 H395 0.951 . S
C364 C363 1.340 . S
C364 C365 1.439 . S
C364 H396 0.950 . S
C365 N361 1.374 . S
C365 C364 1.439 . S
C365 C390 1.395 . S
N366 Co355 1.995 . S
N366 C367 1.376 . S
N366 C370 1.383 . S
C367 N366 1.376 . S
C367 C368 1.446 . S
C367 C390 1.391 . S
C368 C367 1.446 . S
C368 C369 1.339 . S
C368 H397 0.949 . S
C369 C368 1.339 . S
C369 C370 1.439 . S
C369 H398 0.950 . S
C370 N366 1.383 . S
C370 C369 1.439 . S
C370 C388 1.392 . S
N371 Co355 2.282 . S
N371 C374 1.332 . S
N371 C376 1.332 . S
C372 C373 1.386 . S
C372 C375 1.388 . S
C373 C372 1.386 . S
C373 C374 1.382 . S
C373 H399 0.950 . S
C374 N371 1.332 . S
C374 C373 1.382 . S
C374 H385 0.952 . S
C375 C372 1.388 . S
C375 C376 1.382 . S
C375 H400 0.950 . S
C376 N371 1.332 . S
C376 C375 1.382 . S
C376 H386 0.948 . S
N377 Co355 2.282 . S
N377 C381 1.332 . S
N377 C382 1.332 . S
C378 C379 1.388 . S
C378 C382 1.382 . S
C378 H401 0.950 . S
C379 C378 1.388 . S
C379 C380 1.386 . S
C380 C379 1.386 . S
C380 C381 1.382 . S
C380 H402 0.950 . S
C381 N377 1.332 . S
C381 C380 1.382 . S
C381 H383 0.952 . S
C382 N377 1.332 . S
C382 C378 1.382 . S
C382 H384 0.948 . S
H383 C381 0.952 . S
H384 C382 0.948 . S
H385 C374 0.952 . S
H386 C376 0.948 . S
C387 C353 1.395 . S
C387 C357 1.391 . S
C388 C350 1.389 . S
C388 C370 1.392 . S
C389 C360 1.392 . S
C389 C362 1.389 . S
C390 C365 1.395 . S
C390 C367 1.391 . S
H391 C351 0.951 . S
H392 C352 0.950 . S
H393 C358 0.949 . S
H394 C359 0.950 . S
H395 C363 0.951 . S
H396 C364 0.950 . S
H397 C368 0.949 . S
H398 C369 0.950 . S
H399 C373 0.950 . S
H400 C375 0.950 . S
H401 C378 0.950 . S
H402 C380 0.950 . S
C403 C404 1.443 . S
C403 N407 1.376 . S
C403 C441 1.389 . S
C404 C403 1.443 . S
C404 C405 1.340 . S
C404 H444 0.951 . S
C405 C404 1.340 . S
C405 C406 1.439 . S
C405 H445 0.950 . S
C406 C405 1.439 . S
C406 N407 1.374 . S
C406 C440 1.395 . S
N407 C403 1.376 . S
N407 C406 1.374 . S
N407 Co408 2.008 . S
Co408 N407 2.008 . S
Co408 N409 1.995 . S
Co408 N414 2.008 . S
Co408 N419 1.995 . S
Co408 N424 2.282 . S
Co408 N430 2.282 . S
N409 Co408 1.995 . S
N409 C410 1.376 . S
N409 C413 1.383 . S
C410 N409 1.376 . S
C410 C411 1.446 . S
C410 C440 1.391 . S
C411 C410 1.446 . S
C411 C412 1.339 . S
C411 H446 0.949 . S
C412 C411 1.339 . S
C412 C413 1.439 . S
C412 H447 0.950 . S
C413 N409 1.383 . S
C413 C412 1.439 . S
C413 C442 1.392 . S
N414 Co408 2.008 . S
N414 C415 1.376 . S
N414 C418 1.374 . S
C415 N414 1.376 . S
C415 C416 1.443 . S
C415 C442 1.389 . S
C416 C415 1.443 . S
C416 C417 1.340 . S
C416 H448 0.951 . S
C417 C416 1.340 . S
C417 C418 1.439 . S
C417 H449 0.950 . S
C418 N414 1.374 . S
C418 C417 1.439 . S
C418 C443 1.395 . S
N419 Co408 1.995 . S
N419 C420 1.376 . S
N419 C423 1.383 . S
C420 N419 1.376 . S
C420 C421 1.446 . S
C420 C443 1.391 . S
C421 C420 1.446 . S
C421 C422 1.339 . S
C421 H450 0.949 . S
C422 C421 1.339 . S
C422 C423 1.439 . S
C422 H451 0.950 . S
C423 N419 1.383 . S
C423 C422 1.439 . S
C423 C441 1.392 . S
N424 Co408 2.282 . S
N424 C427 1.332 . S
N424 C429 1.332 . S
C425 C426 1.386 . S
C425 C428 1.388 . S
C426 C425 1.386 . S
C426 C427 1.382 . S
C426 H452 0.950 . S
C427 N424 1.332 . S
C427 C426 1.382 . S
C427 H438 0.952 . S
C428 C425 1.388 . S
C428 C429 1.382 . S
C428 H453 0.950 . S
C429 N424 1.332 . S
C429 C428 1.382 . S
C429 H439 0.948 . S
N430 Co408 2.282 . S
N430 C434 1.332 . S
N430 C435 1.332 . S
C431 C432 1.388 . S
C431 C435 1.382 . S
C431 H454 0.950 . S
C432 C431 1.388 . S
C432 C433 1.386 . S
C433 C432 1.386 . S
C433 C434 1.382 . S
C433 H455 0.950 . S
C434 N430 1.332 . S
C434 C433 1.382 . S
C434 H436 0.952 . S
C435 N430 1.332 . S
C435 C431 1.382 . S
C435 H437 0.948 . S
H436 C434 0.952 . S
H437 C435 0.948 . S
H438 C427 0.952 . S
H439 C429 0.948 . S
C440 C406 1.395 . S
C440 C410 1.391 . S
C441 C403 1.389 . S
C441 C423 1.392 . S
C442 C413 1.392 . S
C442 C415 1.389 . S
C443 C418 1.395 . S
C443 C420 1.391 . S
H444 C404 0.951 . S
H445 C405 0.950 . S
H446 C411 0.949 . S
H447 C412 0.950 . S
H448 C416 0.951 . S
H449 C417 0.950 . S
H450 C421 0.949 . S
H451 C422 0.950 . S
H452 C426 0.950 . S
H453 C428 0.950 . S
H454 C431 0.950 . S
H455 C433 0.950 . S
C456 C457 1.170 . S
C456 C458 1.380 . S
C457 C456 1.170 . S
C458 C456 1.380 . S
C458 C459 1.170 . S
C459 C458 1.170 . S
C460 C461 1.170 . S
C460 C462 1.380 . S
C461 C460 1.170 . S
C462 C460 1.380 . S
C462 C463 1.170 . S
C463 C462 1.170 . S
C464 C465 1.170 . S
C464 C466 1.380 . S
C465 C464 1.170 . S
C466 C464 1.380 . S
C466 C467 1.170 . S
C467 C466 1.170 . S
C468 C469 1.170 . S
C468 C470 1.380 . S
C469 C468 1.170 . S
C470 C468 1.380 . S
C470 C471 1.170 . S
C471 C470 1.170 . S
C472 C473 1.170 . S
C472 C474 1.380 . S
C473 C472 1.170 . S
C474 C472 1.380 . S
C474 C475 1.170 . S
C475 C474 1.170 . S
C476 C477 1.170 . S
C476 C478 1.380 . S
C477 C476 1.170 . S
C478 C476 1.380 . S
C478 C479 1.170 . S
C479 C478 1.170 . S
C480 C481 1.170 . S
C480 C482 1.380 . S
C481 C480 1.170 . S
C482 C480 1.380 . S
C482 C483 1.170 . S
C483 C482 1.170 . S
C484 C485 1.170 . S
C484 C486 1.380 . S
C485 C484 1.170 . S
C486 C484 1.380 . S
C486 C487 1.170 . S
C487 C486 1.170 . S
C488 C489 1.170 . S
C488 C490 1.380 . S
C489 C488 1.170 . S
C490 C488 1.380 . S
C490 C491 1.170 . S
C491 C490 1.170 . S
C492 C493 1.170 . S
C492 C494 1.380 . S
C493 C492 1.170 . S
C494 C492 1.380 . S
C494 C495 1.170 . S
C495 C494 1.170 . S
C496 C497 1.170 . S
C496 C498 1.380 . S
C497 C496 1.170 . S
C498 C496 1.380 . S
C498 C499 1.170 . S
C499 C498 1.170 . S
C500 C501 1.170 . S
C500 C502 1.380 . S
C501 C500 1.170 . S
C502 C500 1.380 . S
C502 C503 1.170 . S
C503 C502 1.170 . S
C504 C505 1.170 . S
C504 C506 1.380 . S
C505 C504 1.170 . S
C506 C504 1.380 . S
C506 C507 1.170 . S
C507 C506 1.170 . S
C508 C509 1.170 . S
C508 C510 1.380 . S
C509 C508 1.170 . S
C510 C508 1.380 . S
C510 C511 1.170 . S
C511 C510 1.170 . S
C512 C513 1.170 . S
C512 C514 1.380 . S
C513 C512 1.170 . S
C514 C512 1.380 . S
C514 C515 1.170 . S
C515 C514 1.170 . S
C516 C517 1.170 . S
C516 C518 1.380 . S
C517 C516 1.170 . S
C518 C516 1.380 . S
C518 C519 1.170 . S
C519 C518 1.170 . S
C520 C521 1.170 . S
C520 C522 1.380 . S
C521 C520 1.170 . S
C522 C520 1.380 . S
C522 C523 1.170 . S
C523 C522 1.170 . S
C524 C525 1.170 . S
C524 C526 1.380 . S
C525 C524 1.170 . S
C526 C524 1.380 . S
C526 C527 1.170 . S
C527 C526 1.170 . S
C528 C529 1.170 . S
C528 C530 1.380 . S
C529 C528 1.170 . S
C530 C528 1.380 . S
C530 C531 1.170 . S
C531 C530 1.170 . S
C532 C533 1.170 . S
C532 C534 1.380 . S
C533 C532 1.170 . S
C534 C532 1.380 . S
C534 C535 1.170 . S
C535 C534 1.170 . S
C536 C537 1.170 . S
C536 C538 1.380 . S
C537 C536 1.170 . S
C538 C536 1.380 . S
C538 C539 1.170 . S
C539 C538 1.170 . S
C540 C541 1.170 . S
C540 C542 1.380 . S
C541 C540 1.170 . S
C542 C540 1.380 . S
C542 C543 1.170 . S
C543 C542 1.170 . S
C544 C545 1.170 . S
C544 C546 1.380 . S
C545 C544 1.170 . S
C546 C544 1.380 . S
C546 C547 1.170 . S
C547 C546 1.170 . S
C548 C549 1.170 . S
C548 C550 1.380 . S
C549 C548 1.170 . S
C550 C548 1.380 . S
C550 C551 1.170 . S
C551 C550 1.170 . S
C457 C7 2.083 . S
C459 C176 2.051 . S
C461 C30 1.533 . S
C463 C229 1.521 . S
C467 C282 1.811 . S
C465 N58 1.796 . S
C471 C319 1.276 . S
C469 N81 1.286 . S
C475 C379 1.792 . S
C473 C99 1.826 . S
C479 C432 1.414 . S
C477 N127 1.344 . S
C481 N25 1.895 . S
C483 C283 1.907 . S
C485 C62 1.504 . S
C487 C326 1.478 . S
C491 C372 1.824 . S
C489 C85 1.858 . S
C495 C425 1.357 . S
C493 N94 1.317 . S
C497 C131 1.944 . S
C499 C177 1.893 . S
C503 C230 1.390 . S
C501 N2 1.405 . S
C507 C336 2.017 . S
C505 C16 2.027 . S
C509 C39 1.489 . S
C511 C388 1.504 . S
C515 C441 1.814 . S
C513 N48 1.804 . S
C517 N71 1.221 . S
C519 C167 1.271 . S
C521 C108 1.811 . S
C523 C220 1.794 . S
C525 N117 1.336 . S
C527 C273 1.411 . S
C529 N35 1.874 . S
C531 C442 1.907 . S
C535 C160 1.459 . S
C533 C53 1.494 . S
C537 C76 1.883 . S
C539 C213 1.863 . S
C541 N104 1.309 . S
C543 C266 1.300 . S
C545 C122 1.895 . S
C547 C335 1.874 . S
C549 N12 1.357 . S
C551 C389 1.362 . S
