# Generated by pormake.
# Topology tph, (6,8)-cn, num edge types: 1
# Building blocks:
#     Node 0, Type 0, BuildingBlock: MIDCAF_clean_sbu_0, # of connection points: 6
#     Node 1, Type 0, BuildingBlock: MIDCAF_clean_sbu_0, # of connection points: 6
#     Node 2, Type 0, BuildingBlock: MIDCAF_clean_sbu_0, # of connection points: 6
#     Node 3, Type 0, BuildingBlock: MIDCAF_clean_sbu_0, # of connection points: 6
#     Node 4, Type 0, BuildingBlock: MIDCAF_clean_sbu_0, # of connection points: 6
#     Node 5, Type 0, BuildingBlock: MIDCAF_clean_sbu_0, # of connection points: 6
#     Node 6, Type 0, BuildingBlock: MIDCAF_clean_sbu_0, # of connection points: 6
#     Node 7, Type 0, BuildingBlock: MIDCAF_clean_sbu_0, # of connection points: 6
#     Node 8, Type 0, BuildingBlock: MIDCAF_clean_sbu_0, # of connection points: 6
#     Node 9, Type 0, BuildingBlock: MIDCAF_clean_sbu_0, # of connection points: 6
#     Node 10, Type 0, BuildingBlock: MIDCAF_clean_sbu_0, # of connection points: 6
#     Node 11, Type 0, BuildingBlock: MIDCAF_clean_sbu_0, # of connection points: 6
#     Node 12, Type 0, BuildingBlock: MIDCAF_clean_sbu_0, # of connection points: 6
#     Node 13, Type 0, BuildingBlock: MIDCAF_clean_sbu_0, # of connection points: 6
#     Node 14, Type 0, BuildingBlock: MIDCAF_clean_sbu_0, # of connection points: 6
#     Node 15, Type 0, BuildingBlock: MIDCAF_clean_sbu_0, # of connection points: 6
#     Node 16, Type 1, BuildingBlock: TAGTUT_clean_sbu_1, # of connection points: 8
#     Node 17, Type 1, BuildingBlock: TAGTUT_clean_sbu_1, # of connection points: 8
#     Node 18, Type 1, BuildingBlock: TAGTUT_clean_sbu_1, # of connection points: 8
#     Node 19, Type 1, BuildingBlock: TAGTUT_clean_sbu_1, # of connection points: 8
#     Node 20, Type 1, BuildingBlock: TAGTUT_clean_sbu_1, # of connection points: 8
#     Node 21, Type 1, BuildingBlock: TAGTUT_clean_sbu_1, # of connection points: 8
#     Node 22, Type 1, BuildingBlock: TAGTUT_clean_sbu_1, # of connection points: 8
#     Node 23, Type 1, BuildingBlock: TAGTUT_clean_sbu_1, # of connection points: 8
#     Node 24, Type 1, BuildingBlock: TAGTUT_clean_sbu_1, # of connection points: 8
#     Node 25, Type 1, BuildingBlock: TAGTUT_clean_sbu_1, # of connection points: 8
#     Node 26, Type 1, BuildingBlock: TAGTUT_clean_sbu_1, # of connection points: 8
#     Node 27, Type 1, BuildingBlock: TAGTUT_clean_sbu_1, # of connection points: 8
#     Edge 28, Type (0, 1), BuildingBlock: XIVTED_clean_linker_0, # of connection points: 2
#     Edge 29, Type (0, 1), BuildingBlock: XIVTED_clean_linker_0, # of connection points: 2
#     Edge 30, Type (0, 1), BuildingBlock: XIVTED_clean_linker_0, # of connection points: 2
#     Edge 31, Type (0, 1), BuildingBlock: XIVTED_clean_linker_0, # of connection points: 2
#     Edge 32, Type (0, 1), BuildingBlock: XIVTED_clean_linker_0, # of connection points: 2
#     Edge 33, Type (0, 1), BuildingBlock: XIVTED_clean_linker_0, # of connection points: 2
#     Edge 34, Type (0, 1), BuildingBlock: XIVTED_clean_linker_0, # of connection points: 2
#     Edge 35, Type (0, 1), BuildingBlock: XIVTED_clean_linker_0, # of connection points: 2
#     Edge 36, Type (0, 1), BuildingBlock: XIVTED_clean_linker_0, # of connection points: 2
#     Edge 37, Type (0, 1), BuildingBlock: XIVTED_clean_linker_0, # of connection points: 2
#     Edge 38, Type (0, 1), BuildingBlock: XIVTED_clean_linker_0, # of connection points: 2
#     Edge 39, Type (0, 1), BuildingBlock: XIVTED_clean_linker_0, # of connection points: 2
#     Edge 40, Type (0, 1), BuildingBlock: XIVTED_clean_linker_0, # of connection points: 2
#     Edge 41, Type (0, 1), BuildingBlock: XIVTED_clean_linker_0, # of connection points: 2
#     Edge 42, Type (0, 1), BuildingBlock: XIVTED_clean_linker_0, # of connection points: 2
#     Edge 43, Type (0, 1), BuildingBlock: XIVTED_clean_linker_0, # of connection points: 2
#     Edge 44, Type (0, 1), BuildingBlock: XIVTED_clean_linker_0, # of connection points: 2
#     Edge 45, Type (0, 1), BuildingBlock: XIVTED_clean_linker_0, # of connection points: 2
#     Edge 46, Type (0, 1), BuildingBlock: XIVTED_clean_linker_0, # of connection points: 2
#     Edge 47, Type (0, 1), BuildingBlock: XIVTED_clean_linker_0, # of connection points: 2
#     Edge 48, Type (0, 1), BuildingBlock: XIVTED_clean_linker_0, # of connection points: 2
#     Edge 49, Type (0, 1), BuildingBlock: XIVTED_clean_linker_0, # of connection points: 2
#     Edge 50, Type (0, 1), BuildingBlock: XIVTED_clean_linker_0, # of connection points: 2
#     Edge 51, Type (0, 1), BuildingBlock: XIVTED_clean_linker_0, # of connection points: 2
#     Edge 52, Type (0, 1), BuildingBlock: XIVTED_clean_linker_0, # of connection points: 2
#     Edge 53, Type (0, 1), BuildingBlock: XIVTED_clean_linker_0, # of connection points: 2
#     Edge 54, Type (0, 1), BuildingBlock: XIVTED_clean_linker_0, # of connection points: 2
#     Edge 55, Type (0, 1), BuildingBlock: XIVTED_clean_linker_0, # of connection points: 2
#     Edge 56, Type (0, 1), BuildingBlock: XIVTED_clean_linker_0, # of connection points: 2
#     Edge 57, Type (0, 1), BuildingBlock: XIVTED_clean_linker_0, # of connection points: 2
#     Edge 58, Type (0, 1), BuildingBlock: XIVTED_clean_linker_0, # of connection points: 2
#     Edge 59, Type (0, 1), BuildingBlock: XIVTED_clean_linker_0, # of connection points: 2
#     Edge 60, Type (0, 1), BuildingBlock: XIVTED_clean_linker_0, # of connection points: 2
#     Edge 61, Type (0, 1), BuildingBlock: XIVTED_clean_linker_0, # of connection points: 2
#     Edge 62, Type (0, 1), BuildingBlock: XIVTED_clean_linker_0, # of connection points: 2
#     Edge 63, Type (0, 1), BuildingBlock: XIVTED_clean_linker_0, # of connection points: 2
#     Edge 64, Type (0, 1), BuildingBlock: XIVTED_clean_linker_0, # of connection points: 2
#     Edge 65, Type (0, 1), BuildingBlock: XIVTED_clean_linker_0, # of connection points: 2
#     Edge 66, Type (0, 1), BuildingBlock: XIVTED_clean_linker_0, # of connection points: 2
#     Edge 67, Type (0, 1), BuildingBlock: XIVTED_clean_linker_0, # of connection points: 2
#     Edge 68, Type (0, 1), BuildingBlock: XIVTED_clean_linker_0, # of connection points: 2
#     Edge 69, Type (0, 1), BuildingBlock: XIVTED_clean_linker_0, # of connection points: 2
#     Edge 70, Type (0, 1), BuildingBlock: XIVTED_clean_linker_0, # of connection points: 2
#     Edge 71, Type (0, 1), BuildingBlock: XIVTED_clean_linker_0, # of connection points: 2
#     Edge 72, Type (0, 1), BuildingBlock: XIVTED_clean_linker_0, # of connection points: 2
#     Edge 73, Type (0, 1), BuildingBlock: XIVTED_clean_linker_0, # of connection points: 2
#     Edge 74, Type (0, 1), BuildingBlock: XIVTED_clean_linker_0, # of connection points: 2
#     Edge 75, Type (0, 1), BuildingBlock: XIVTED_clean_linker_0, # of connection points: 2
#     Edge 76, Type (0, 1), BuildingBlock: XIVTED_clean_linker_0, # of connection points: 2
#     Edge 77, Type (0, 1), BuildingBlock: XIVTED_clean_linker_0, # of connection points: 2
#     Edge 78, Type (0, 1), BuildingBlock: XIVTED_clean_linker_0, # of connection points: 2
#     Edge 79, Type (0, 1), BuildingBlock: XIVTED_clean_linker_0, # of connection points: 2
#     Edge 80, Type (0, 1), BuildingBlock: XIVTED_clean_linker_0, # of connection points: 2
#     Edge 81, Type (0, 1), BuildingBlock: XIVTED_clean_linker_0, # of connection points: 2
#     Edge 82, Type (0, 1), BuildingBlock: XIVTED_clean_linker_0, # of connection points: 2
#     Edge 83, Type (0, 1), BuildingBlock: XIVTED_clean_linker_0, # of connection points: 2
#     Edge 84, Type (0, 1), BuildingBlock: XIVTED_clean_linker_0, # of connection points: 2
#     Edge 85, Type (0, 1), BuildingBlock: XIVTED_clean_linker_0, # of connection points: 2
#     Edge 86, Type (0, 1), BuildingBlock: XIVTED_clean_linker_0, # of connection points: 2
#     Edge 87, Type (0, 1), BuildingBlock: XIVTED_clean_linker_0, # of connection points: 2
#     Edge 88, Type (0, 1), BuildingBlock: XIVTED_clean_linker_0, # of connection points: 2
#     Edge 89, Type (0, 1), BuildingBlock: XIVTED_clean_linker_0, # of connection points: 2
#     Edge 90, Type (0, 1), BuildingBlock: XIVTED_clean_linker_0, # of connection points: 2
#     Edge 91, Type (0, 1), BuildingBlock: XIVTED_clean_linker_0, # of connection points: 2
#     Edge 92, Type (0, 1), BuildingBlock: XIVTED_clean_linker_0, # of connection points: 2
#     Edge 93, Type (0, 1), BuildingBlock: XIVTED_clean_linker_0, # of connection points: 2
#     Edge 94, Type (0, 1), BuildingBlock: XIVTED_clean_linker_0, # of connection points: 2
#     Edge 95, Type (0, 1), BuildingBlock: XIVTED_clean_linker_0, # of connection points: 2
#     Edge 96, Type (0, 1), BuildingBlock: XIVTED_clean_linker_0, # of connection points: 2
#     Edge 97, Type (0, 1), BuildingBlock: XIVTED_clean_linker_0, # of connection points: 2
#     Edge 98, Type (0, 1), BuildingBlock: XIVTED_clean_linker_0, # of connection points: 2
#     Edge 99, Type (0, 1), BuildingBlock: XIVTED_clean_linker_0, # of connection points: 2
#     Edge 100, Type (0, 1), BuildingBlock: XIVTED_clean_linker_0, # of connection points: 2
#     Edge 101, Type (0, 1), BuildingBlock: XIVTED_clean_linker_0, # of connection points: 2
#     Edge 102, Type (0, 1), BuildingBlock: XIVTED_clean_linker_0, # of connection points: 2
#     Edge 103, Type (0, 1), BuildingBlock: XIVTED_clean_linker_0, # of connection points: 2
#     Edge 104, Type (0, 1), BuildingBlock: XIVTED_clean_linker_0, # of connection points: 2
#     Edge 105, Type (0, 1), BuildingBlock: XIVTED_clean_linker_0, # of connection points: 2
#     Edge 106, Type (0, 1), BuildingBlock: XIVTED_clean_linker_0, # of connection points: 2
#     Edge 107, Type (0, 1), BuildingBlock: XIVTED_clean_linker_0, # of connection points: 2
#     Edge 108, Type (0, 1), BuildingBlock: XIVTED_clean_linker_0, # of connection points: 2
#     Edge 109, Type (0, 1), BuildingBlock: XIVTED_clean_linker_0, # of connection points: 2
#     Edge 110, Type (0, 1), BuildingBlock: XIVTED_clean_linker_0, # of connection points: 2
#     Edge 111, Type (0, 1), BuildingBlock: XIVTED_clean_linker_0, # of connection points: 2
#     Edge 112, Type (0, 1), BuildingBlock: XIVTED_clean_linker_0, # of connection points: 2
#     Edge 113, Type (0, 1), BuildingBlock: XIVTED_clean_linker_0, # of connection points: 2
#     Edge 114, Type (0, 1), BuildingBlock: XIVTED_clean_linker_0, # of connection points: 2
#     Edge 115, Type (0, 1), BuildingBlock: XIVTED_clean_linker_0, # of connection points: 2
#     Edge 116, Type (0, 1), BuildingBlock: XIVTED_clean_linker_0, # of connection points: 2
#     Edge 117, Type (0, 1), BuildingBlock: XIVTED_clean_linker_0, # of connection points: 2
#     Edge 118, Type (0, 1), BuildingBlock: XIVTED_clean_linker_0, # of connection points: 2
#     Edge 119, Type (0, 1), BuildingBlock: XIVTED_clean_linker_0, # of connection points: 2
#     Edge 120, Type (0, 1), BuildingBlock: XIVTED_clean_linker_0, # of connection points: 2
#     Edge 121, Type (0, 1), BuildingBlock: XIVTED_clean_linker_0, # of connection points: 2
#     Edge 122, Type (0, 1), BuildingBlock: XIVTED_clean_linker_0, # of connection points: 2
#     Edge 123, Type (0, 1), BuildingBlock: XIVTED_clean_linker_0, # of connection points: 2
# Relax obj value: 0.175
# Max RMSD: 0.314
# Mean RMSD: 0.182
data_MOF--net-tph--node1-MIDCAF_clean_sbu_0--node2-TAGTUT_clean_sbu_1--edge1-XIVTED_clean_linker_0
_symmetry_space_group_name_H-M    P1
_symmetry_Int_Tables_number       1
_symmetry_cell_setting            triclinic
loop_
_symmetry_equiv_pos_as_xyz
'x, y, z'
_cell_length_a     46.997314
_cell_length_b     46.516269
_cell_length_c     45.983701
_cell_angle_alpha  90.070966
_cell_angle_beta   92.369593
_cell_angle_gamma 90.374953
loop_
_atom_site_label
_atom_site_type_symbol
_atom_site_fract_x
_atom_site_fract_y
_atom_site_fract_z
_atom_type_partial_charge
Zn0 Zn 0.20485 0.20939 0.20645 0.0
Zn1 Zn 0.15963 0.16738 0.12974 0.0
Zn2 Zn 0.18454 0.18696 0.16695 0.0
C3 C 0.12427 0.15945 0.1711 0.0
C4 C 0.16951 0.21902 0.10908 0.0
O5 O 0.23092 0.17993 0.16368 0.0
O6 O 0.2412 0.21909 0.18897 0.0
C7 C 0.18531 0.16075 0.22918 0.0
O8 O 0.14931 0.16078 0.1836 0.0
O9 O 0.12083 0.16843 0.1453 0.0
O10 O 0.17043 0.19408 0.09848 0.0
O11 O 0.16937 0.22199 0.13694 0.0
O12 O 0.20697 0.17648 0.23342 0.0
O13 O 0.16926 0.16439 0.20613 0.0
O14 O 0.17118 0.23276 0.16468 0.0
O15 O 0.17555 0.23942 0.21202 0.0
C16 C 0.166 0.24776 0.18744 0.0
O17 O 0.21525 0.15927 0.14498 0.0
O18 O 0.17965 0.13035 0.13218 0.0
C19 C 0.24935 0.19855 0.17343 0.0
C20 C 0.20607 0.13465 0.13561 0.0
Zn21 Zn 0.37865 0.60753 0.07771 0.0
Zn22 Zn 0.45822 0.55394 0.05211 0.0
Zn23 Zn 0.42401 0.58464 0.07003 0.0
C24 C 0.44689 0.52811 0.102 0.0
C25 C 0.48462 0.60685 0.05591 0.0
O26 O 0.39922 0.60087 0.02886 0.0
O27 O 0.35881 0.61977 0.0424 0.0
C28 C 0.37529 0.56353 0.11424 0.0
O29 O 0.4247 0.5437 0.09638 0.0
O30 O 0.46901 0.53249 0.08799 0.0
O31 O 0.4841 0.58494 0.03969 0.0
O32 O 0.46487 0.61014 0.07429 0.0
O33 O 0.35826 0.58031 0.10114 0.0
O34 O 0.4014 0.56224 0.1066 0.0
O35 O 0.4417 0.62267 0.09112 0.0
O36 O 0.39887 0.63915 0.09977 0.0
C37 C 0.42565 0.64146 0.10258 0.0
O38 O 0.41221 0.57378 0.02418 0.0
O39 O 0.43515 0.53292 0.02128 0.0
C40 C 0.3758 0.61466 0.02268 0.0
C41 C 0.41694 0.55016 0.01063 0.0
Zn42 Zn 0.79019 0.28968 0.21183 0.0
Zn43 Zn 0.86239 0.34111 0.1614 0.0
Zn44 Zn 0.82755 0.3142 0.18624 0.0
C45 C 0.87561 0.35866 0.21417 0.0
C46 C 0.87583 0.28507 0.1524 0.0
O47 O 0.78486 0.33152 0.1724 0.0
O48 O 0.75727 0.31569 0.20665 0.0
C49 C 0.82919 0.30674 0.25434 0.0
O50 O 0.8596 0.33628 0.21735 0.0
O51 O 0.87658 0.3703 0.18954 0.0
O52 O 0.88874 0.30884 0.15484 0.0
O53 O 0.85028 0.28267 0.16102 0.0
O54 O 0.80989 0.28806 0.25034 0.0
O55 O 0.83774 0.32152 0.23272 0.0
O56 O 0.829 0.2672 0.17607 0.0
O57 O 0.78744 0.25267 0.19116 0.0
C58 C 0.81027 0.2471 0.17892 0.0
O59 O 0.8053 0.34472 0.1558 0.0
O60 O 0.84019 0.35513 0.127 0.0
C61 C 0.7604 0.33052 0.18407 0.0
C62 C 0.81424 0.35678 0.13264 0.0
Zn63 Zn 0.54446 0.94957 0.05975 0.0
Zn64 Zn 0.61239 0.90281 0.11354 0.0
Zn65 Zn 0.57984 0.92692 0.08838 0.0
C66 C 0.57627 0.8616 0.1013 0.0
C67 C 0.59623 0.94009 0.15216 0.0
O68 O 0.59601 0.92736 0.04429 0.0
O69 O 0.55451 0.93387 0.02143 0.0
C70 C 0.51338 0.91158 0.08854 0.0
O71 O 0.56161 0.88497 0.10195 0.0
O72 O 0.60285 0.86355 0.0991 0.0
O73 O 0.59812 0.9131 0.15202 0.0
O74 O 0.5931 0.95314 0.12751 0.0
O75 O 0.50898 0.93582 0.07707 0.0
O76 O 0.53907 0.90251 0.0924 0.0
O77 O 0.57888 0.97188 0.10622 0.0
O78 O 0.5562 0.9897 0.06754 0.0
C79 C 0.56978 0.99378 0.09143 0.0
O80 O 0.61722 0.91274 0.06368 0.0
O81 O 0.6485 0.92008 0.09949 0.0
C82 C 0.58077 0.9286 0.02046 0.0
C83 C 0.64325 0.91157 0.07369 0.0
Zn84 Zn 0.15655 0.85721 0.35283 0.0
Zn85 Zn 0.20124 0.79594 0.2868 0.0
Zn86 Zn 0.18154 0.82683 0.32459 0.0
C87 C 0.24777 0.82564 0.31369 0.0
C88 C 0.18231 0.7581 0.32776 0.0
O89 O 0.1445 0.84451 0.2982 0.0
O90 O 0.11748 0.85203 0.33518 0.0
C91 C 0.20448 0.88691 0.3424 0.0
O92 O 0.22786 0.83693 0.32831 0.0
O93 O 0.24145 0.80773 0.29378 0.0
O94 O 0.19234 0.75848 0.30278 0.0
O95 O 0.17616 0.78179 0.34058 0.0
O96 O 0.17827 0.89243 0.3431 0.0
O97 O 0.21238 0.86055 0.34032 0.0
O98 O 0.16379 0.80124 0.36173 0.0
O99 O 0.1643 0.8386 0.39103 0.0
C100 C 0.16165 0.81178 0.38757 0.0
O101 O 0.16616 0.83899 0.27875 0.0
O102 O 0.18412 0.8071 0.24905 0.0
C103 C 0.11977 0.84956 0.30808 0.0
C104 C 0.17037 0.82988 0.25264 0.0
Zn105 Zn 0.05706 0.56104 0.96494 0.0
Zn106 Zn 0.14185 0.64369 0.89785 0.0
Zn107 Zn 0.08236 0.59023 0.9328 0.0
C108 C 0.14507 0.62656 0.96049 0.0
C109 C 0.07591 0.64335 0.90637 0.0
O110 O 0.08276 0.54649 0.91276 0.0
O111 O 0.07006 0.52317 0.95192 0.0
C112 C 0.0959 0.58498 0.00112 0.0
O113 O 0.12151 0.61148 0.95757 0.0
O114 O 0.15654 0.63982 0.93947 0.0
O115 O 0.10063 0.63271 0.90626 0.0
O116 O 0.05678 0.62697 0.91645 0.0
O117 O 0.07167 0.57377 0.00361 0.0
O118 O 0.10464 0.59136 0.97579 0.0
O119 O 0.03743 0.60811 0.93146 0.0
O120 O 0.01769 0.57116 0.95309 0.0
C121 C 0.015 0.59473 0.93981 0.0
O122 O 0.09976 0.56561 0.89561 0.0
O123 O 0.11765 0.60789 0.89657 0.0
C124 C 0.07823 0.52266 0.92615 0.0
C125 C 0.1179 0.58306 0.88552 0.0
Zn126 Zn 0.79463 0.71503 0.29458 0.0
Zn127 Zn 0.85064 0.64606 0.35722 0.0
Zn128 Zn 0.82345 0.67722 0.32456 0.0
C129 C 0.81944 0.67281 0.39508 0.0
C130 C 0.824 0.60884 0.31893 0.0
O131 O 0.80173 0.65265 0.28881 0.0
O132 O 0.7787 0.6876 0.26559 0.0
C133 C 0.85141 0.73038 0.29111 0.0
O134 O 0.81392 0.68602 0.37086 0.0
O135 O 0.83231 0.64916 0.39469 0.0
O136 O 0.84529 0.60956 0.33648 0.0
O137 O 0.81162 0.63249 0.31142 0.0
O138 O 0.82696 0.73875 0.28273 0.0
O139 O 0.85433 0.70746 0.30651 0.0
O140 O 0.79205 0.69846 0.35226 0.0
O141 O 0.76949 0.73013 0.32414 0.0
C142 C 0.77264 0.7177 0.3484 0.0
O143 O 0.86994 0.6843 0.31916 0.0
O144 O 0.88949 0.66176 0.35692 0.0
C145 C 0.78581 0.66151 0.2672 0.0
C146 C 0.89231 0.67653 0.33428 0.0
Zn147 Zn 0.95295 0.9652 0.94888 0.0
Zn148 Zn 0.9351 0.90965 0.86625 0.0
Zn149 Zn 0.93267 0.92964 0.91334 0.0
C150 C 0.88441 0.89314 0.90481 0.0
C151 C 0.96659 0.87263 0.88578 0.0
O152 O 0.93661 0.97203 0.89249 0.0
O153 O 0.94595 0.00212 0.92876 0.0
C154 C 0.90895 0.93805 0.97703 0.0
O155 O 0.89486 0.9099 0.92468 0.0
O156 O 0.89728 0.89024 0.88105 0.0
O157 O 0.96851 0.88518 0.86175 0.0
O158 O 0.95521 0.88629 0.90683 0.0
O159 O 0.92984 0.95477 0.98188 0.0
O160 O 0.90451 0.92682 0.95159 0.0
O161 O 0.97592 0.91392 0.92228 0.0
O162 O 0.99244 0.95051 0.94828 0.0
C163 C 0.99674 0.92692 0.93562 0.0
O164 O 0.91401 0.95437 0.873 0.0
O165 O 0.92901 0.93467 0.83282 0.0
C166 C 0.94094 0.99772 0.90198 0.0
C167 C 0.91408 0.95325 0.84477 0.0
Zn168 Zn 0.41359 0.39092 0.34093 0.0
Zn169 Zn 0.44782 0.46619 0.44987 0.0
Zn170 Zn 0.43103 0.43141 0.41222 0.0
C171 C 0.49387 0.42977 0.43857 0.0
C172 C 0.40334 0.43374 0.47311 0.0
O173 O 0.41913 0.45682 0.37326 0.0
O174 O 0.43835 0.42726 0.34356 0.0
C175 C 0.46204 0.38649 0.37759 0.0
O176 O 0.47405 0.416 0.4243 0.0
O177 O 0.48826 0.4534 0.45058 0.0
O178 O 0.4232 0.45117 0.47987 0.0
O179 O 0.40031 0.42402 0.44692 0.0
O180 O 0.45323 0.40329 0.35764 0.0
O181 O 0.45938 0.39512 0.40376 0.0
O182 O 0.3908 0.4089 0.41681 0.0
O183 O 0.38305 0.3884 0.37267 0.0
C184 C 0.37515 0.39413 0.39835 0.0
O185 O 0.43379 0.4757 0.39452 0.0
O186 O 0.43926 0.50437 0.43256 0.0
C187 C 0.422 0.44841 0.34699 0.0
C188 C 0.43608 0.50112 0.4054 0.0
Zn189 Zn 0.35349 0.8332 0.65212 0.0
Zn190 Zn 0.2893 0.78695 0.7141 0.0
Zn191 Zn 0.32512 0.81065 0.68364 0.0
C192 C 0.30955 0.743 0.68128 0.0
C193 C 0.33134 0.80916 0.75231 0.0
O194 O 0.30144 0.8454 0.65971 0.0
O195 O 0.33876 0.87279 0.65252 0.0
C196 C 0.34749 0.78387 0.6269 0.0
O197 O 0.32631 0.76363 0.67418 0.0
O198 O 0.28931 0.74804 0.69765 0.0
O199 O 0.31031 0.79216 0.75157 0.0
O200 O 0.34008 0.82025 0.72864 0.0
O201 O 0.34471 0.80903 0.6171 0.0
O202 O 0.3439 0.7793 0.6541 0.0
O203 O 0.36192 0.83035 0.70985 0.0
O204 O 0.39048 0.8271 0.67341 0.0
C205 C 0.3873 0.8315 0.70015 0.0
O206 O 0.28138 0.82734 0.67192 0.0
O207 O 0.2545 0.80963 0.706 0.0
C208 C 0.31211 0.86985 0.6526 0.0
C209 C 0.25694 0.82477 0.68352 0.0
Zn210 Zn 0.04055 0.4467 0.55818 0.0
Zn211 Zn 0.10793 0.40103 0.61341 0.0
Zn212 Zn 0.07577 0.42479 0.58758 0.0
C213 C 0.07238 0.35952 0.60161 0.0
C214 C 0.09158 0.43858 0.65139 0.0
O215 O 0.09228 0.42532 0.54351 0.0
O216 O 0.05105 0.4312 0.51993 0.0
C217 C 0.00937 0.40897 0.5871 0.0
O218 O 0.05762 0.38286 0.60166 0.0
O219 O 0.09895 0.36153 0.5994 0.0
O220 O 0.09296 0.41155 0.6516 0.0
O221 O 0.08894 0.45134 0.62655 0.0
O222 O 0.00495 0.43294 0.57507 0.0
O223 O 0.0351 0.40018 0.59155 0.0
O224 O 0.07471 0.46978 0.60489 0.0
O225 O 0.05201 0.48689 0.56589 0.0
C226 C 0.06558 0.49139 0.58971 0.0
O227 O 0.11331 0.41082 0.56335 0.0
O228 O 0.14402 0.41859 0.59957 0.0
C229 C 0.07745 0.42649 0.51941 0.0
C230 C 0.13924 0.41011 0.5737 0.0
Zn231 Zn 0.95874 0.05031 0.55932 0.0
Zn232 Zn 0.88808 0.11427 0.58812 0.0
Zn233 Zn 0.92485 0.08248 0.57624 0.0
C234 C 0.93391 0.14706 0.59792 0.0
C235 C 0.88807 0.07477 0.63197 0.0
O236 O 0.91215 0.07162 0.53062 0.0
O237 O 0.93462 0.03041 0.52872 0.0
C238 C 0.98672 0.10176 0.56095 0.0
O239 O 0.94468 0.12175 0.59557 0.0
O240 O 0.90892 0.1514 0.58794 0.0
O241 O 0.88081 0.10044 0.62751 0.0
O242 O 0.90304 0.06167 0.61324 0.0
O243 O 0.98642 0.07904 0.54598 0.0
O244 O 0.96661 0.10627 0.57856 0.0
O245 O 0.92429 0.04155 0.60307 0.0
O246 O 0.96826 0.02847 0.59529 0.0
C247 C 0.94573 0.0249 0.60885 0.0
O248 O 0.89571 0.09624 0.53806 0.0
O249 O 0.85671 0.11065 0.5585 0.0
C250 C 0.91661 0.04763 0.51764 0.0
C251 C 0.8701 0.10631 0.53575 0.0
Zn252 Zn 0.70323 0.70644 0.71049 0.0
Zn253 Zn 0.66134 0.66401 0.63105 0.0
Zn254 Zn 0.68433 0.68329 0.6695 0.0
C255 C 0.62341 0.65572 0.66962 0.0
C256 C 0.67238 0.71537 0.611 0.0
O257 O 0.73075 0.6755 0.66813 0.0
O258 O 0.74162 0.71289 0.69589 0.0
C259 C 0.68004 0.6583 0.73214 0.0
O260 O 0.64771 0.65705 0.68371 0.0
O261 O 0.62156 0.66502 0.64383 0.0
O262 O 0.67404 0.69049 0.60042 0.0
O263 O 0.67069 0.71823 0.63876 0.0
O264 O 0.70076 0.67475 0.73845 0.0
O265 O 0.66655 0.66072 0.70734 0.0
O266 O 0.67212 0.72951 0.66632 0.0
O267 O 0.67608 0.73882 0.71327 0.0
C268 C 0.66737 0.7461 0.68806 0.0
O269 O 0.71576 0.65526 0.64885 0.0
O270 O 0.68056 0.62669 0.63413 0.0
C271 C 0.74954 0.69285 0.67958 0.0
C272 C 0.70686 0.63081 0.63878 0.0
Zn273 Zn 0.69652 0.29365 0.78416 0.0
Zn274 Zn 0.65127 0.35495 0.85056 0.0
Zn275 Zn 0.67657 0.32515 0.82204 0.0
C276 C 0.66036 0.31 0.88542 0.0
C277 C 0.6978 0.38617 0.8388 0.0
O278 O 0.66022 0.33692 0.77686 0.0
O279 O 0.67894 0.30586 0.74681 0.0
C280 C 0.67684 0.25592 0.825 0.0
O281 O 0.66122 0.29927 0.85956 0.0
O282 O 0.66189 0.33693 0.88849 0.0
O283 O 0.67139 0.39076 0.83939 0.0
O284 O 0.70657 0.36003 0.83725 0.0
O285 O 0.68713 0.25608 0.80012 0.0
O286 O 0.6712 0.2798 0.8378 0.0
O287 O 0.72219 0.33664 0.82495 0.0
O288 O 0.73644 0.3064 0.79159 0.0
C289 C 0.74228 0.32531 0.81067 0.0
O290 O 0.63885 0.34198 0.79653 0.0
O291 O 0.61201 0.34753 0.834 0.0
C292 C 0.66455 0.32818 0.7507 0.0
C293 C 0.61407 0.34567 0.80682 0.0
Zn294 Zn 0.63879 0.14253 0.39544 0.0
Zn295 Zn 0.55441 0.06088 0.46459 0.0
Zn296 Zn 0.5801 0.08975 0.43324 0.0
C297 C 0.51244 0.09366 0.43907 0.0
C298 C 0.59229 0.0862 0.50127 0.0
O299 O 0.59761 0.06451 0.39667 0.0
O300 O 0.61383 0.10734 0.39431 0.0
C301 C 0.57315 0.14252 0.40633 0.0
O302 O 0.53502 0.10737 0.43159 0.0
O303 O 0.51502 0.06972 0.45166 0.0
O304 O 0.56777 0.0754 0.50299 0.0
O305 O 0.60215 0.09175 0.47624 0.0
O306 O 0.59776 0.13174 0.40526 0.0
O307 O 0.55422 0.12617 0.41678 0.0
O308 O 0.61886 0.11176 0.45696 0.0
O309 O 0.65354 0.13961 0.43754 0.0
C310 C 0.64229 0.12705 0.45915 0.0
O311 O 0.58129 0.04571 0.41414 0.0
O312 O 0.5686 0.02284 0.45356 0.0
C313 C 0.61405 0.08213 0.38426 0.0
C314 C 0.57717 0.02204 0.42796 0.0
Zn315 Zn 0.31035 0.15268 0.86608 0.0
Zn316 Zn 0.29576 0.23264 0.80179 0.0
Zn317 Zn 0.3151 0.18857 0.82847 0.0
C318 C 0.26458 0.23095 0.84933 0.0
C319 C 0.35677 0.23614 0.81096 0.0
O320 O 0.3594 0.18184 0.833 0.0
O321 O 0.34956 0.14015 0.85342 0.0
C322 C 0.28261 0.12953 0.82475 0.0
O323 O 0.28265 0.2105 0.85322 0.0
O324 O 0.26555 0.2466 0.82701 0.0
O325 O 0.33448 0.24988 0.80364 0.0
O326 O 0.35522 0.2102 0.82021 0.0
O327 O 0.27324 0.13841 0.84836 0.0
O328 O 0.30121 0.14525 0.8124 0.0
O329 O 0.30765 0.20513 0.87369 0.0
O330 O 0.31119 0.16928 0.90487 0.0
C331 C 0.31035 0.19592 0.90017 0.0
O332 O 0.29586 0.17058 0.78834 0.0
O333 O 0.28322 0.21099 0.7665 0.0
C334 C 0.36732 0.15701 0.84207 0.0
C335 C 0.28522 0.18393 0.76613 0.0
C336 C 0.97731 0.26209 0.97908 0.0
C337 C 0.06051 0.27487 0.94838 0.0
C338 C 0.01428 0.32979 0.85719 0.0
Mg339 Mg 0.01286 0.23255 0.93277 0.0
O340 O 0.99198 0.25922 0.90999 0.0
Mg341 Mg 0.99736 0.3007 0.92096 0.0
Mg342 Mg 0.00377 0.26092 0.86926 0.0
O343 O 0.0167 0.26144 0.82871 0.0
Mg344 Mg 1.00108 0.28795 0.80261 0.0
Mg345 Mg 0.01333 0.21933 0.81932 0.0
C346 C 0.99732 0.1913 0.87982 0.0
C347 C 0.06481 0.22919 0.86761 0.0
O348 O 0.97755 0.28588 0.96464 0.0
O349 O 0.98973 0.23925 0.97084 0.0
O350 O 0.04226 0.29475 0.94347 0.0
O351 O 0.05495 0.2487 0.94206 0.0
O352 O 0.00589 0.19389 0.90658 0.0
O353 O 0.99262 0.21321 0.86343 0.0
C354 C 0.94367 0.29464 0.8739 0.0
O355 O 0.95803 0.27714 0.85859 0.0
O356 O 0.95394 0.30544 0.8978 0.0
O357 O 0.03316 0.22961 0.77495 0.0
O358 O 0.02764 0.2773 0.76754 0.0
O359 O 0.9709 0.22545 0.79448 0.0
C360 C 0.03633 0.2525 0.75977 0.0
O361 O 0.96027 0.27159 0.78669 0.0
O362 O 0.00837 0.32643 0.82977 0.0
C363 C 0.95481 0.24481 0.78309 0.0
O364 O 0.01564 0.30825 0.87481 0.0
O365 O 0.04885 0.24682 0.88055 0.0
O366 O 0.05636 0.21582 0.8444 0.0
C367 C 0.48034 0.75782 0.47702 0.0
C368 C 0.56621 0.77135 0.44974 0.0
C369 C 0.52014 0.82766 0.35782 0.0
Mg370 Mg 0.51853 0.72874 0.43266 0.0
O371 O 0.49973 0.75628 0.40927 0.0
Mg372 Mg 0.50399 0.79761 0.42104 0.0
Mg373 Mg 0.51194 0.75873 0.36881 0.0
O374 O 0.5248 0.76014 0.32814 0.0
Mg375 Mg 0.50645 0.78609 0.30306 0.0
Mg376 Mg 0.52171 0.718 0.31835 0.0
C377 C 0.50513 0.68894 0.37827 0.0
C378 C 0.57368 0.72749 0.36655 0.0
O379 O 0.48323 0.78229 0.46422 0.0
O380 O 0.49169 0.7346 0.46825 0.0
O381 O 0.54854 0.79154 0.44387 0.0
O382 O 0.56015 0.74507 0.44434 0.0
O383 O 0.51258 0.69068 0.40538 0.0
O384 O 0.50137 0.71128 0.36238 0.0
C385 C 0.4508 0.79149 0.37343 0.0
O386 O 0.46565 0.77438 0.35812 0.0
O387 O 0.46074 0.80224 0.39746 0.0
O388 O 0.54054 0.7293 0.27367 0.0
O389 O 0.53143 0.77652 0.26655 0.0
O390 O 0.4788 0.72318 0.29467 0.0
C391 C 0.54145 0.75239 0.25837 0.0
O392 O 0.46553 0.76875 0.28849 0.0
O393 O 0.51342 0.82443 0.33053 0.0
C394 C 0.46111 0.74182 0.28478 0.0
O395 O 0.52285 0.80603 0.37519 0.0
O396 O 0.55775 0.74477 0.38013 0.0
O397 O 0.56501 0.71478 0.34301 0.0
C398 C 0.95242 0.74135 0.54138 0.0
C399 C 0.04456 0.75859 0.55185 0.0
C400 C 0.0337 0.69398 0.65308 0.0
Mg401 Mg 0.98986 0.78582 0.57591 0.0
O402 O 0.99047 0.75648 0.60343 0.0
Mg403 Mg 1.00086 0.71642 0.5919 0.0
Mg404 Mg 0.00786 0.75961 0.64344 0.0
O405 O 0.02461 0.76248 0.68366 0.0
Mg406 Mg 0.02011 0.73206 0.70877 0.0
Mg407 Mg 0.01064 0.80104 0.69607 0.0
C408 C 0.97846 0.82379 0.63319 0.0
C409 C 0.05896 0.80749 0.64685 0.0
O410 O 0.96736 0.72117 0.55338 0.0
O411 O 0.95695 0.76796 0.54721 0.0
O412 O 0.03695 0.73424 0.56239 0.0
O413 O 0.03065 0.78169 0.55617 0.0
O414 O 0.97884 0.82098 0.60535 0.0
O415 O 0.98601 0.80327 0.65071 0.0
C416 C 0.9555 0.71263 0.64335 0.0
O417 O 0.96812 0.73388 0.65636 0.0
O418 O 0.96472 0.70202 0.61989 0.0
O419 O 0.03674 0.79375 0.74082 0.0
O420 O 0.04876 0.74689 0.74228 0.0
O421 O 0.97318 0.78257 0.72183 0.0
C422 C 0.04935 0.77217 0.75325 0.0
O423 O 0.97968 0.73541 0.72845 0.0
O424 O 0.03088 0.69681 0.6806 0.0
C425 C 0.96645 0.75864 0.73366 0.0
O426 O 0.0294 0.71526 0.63536 0.0
O427 O 0.04779 0.78646 0.63194 0.0
O428 O 0.04858 0.8162 0.67071 0.0
C429 C 0.96848 0.02766 0.22739 0.0
C430 C 0.94703 0.93816 0.23564 0.0
C431 C 0.84618 0.97161 0.17648 0.0
Mg432 Mg 0.93233 0.99283 0.26934 0.0
O433 O 0.90381 0.00139 0.24131 0.0
Mg434 Mg 0.91041 0.99171 0.19974 0.0
Mg435 Mg 0.86452 0.98615 0.24427 0.0
O436 O 0.82496 0.97137 0.24772 0.0
Mg437 Mg 0.79653 0.98475 0.22182 0.0
Mg438 Mg 0.81994 0.97625 0.2906 0.0
C439 C 0.88258 0.00204 0.31298 0.0
C440 C 0.86748 0.92658 0.28087 0.0
O441 O 0.95233 0.01801 0.20627 0.0
O442 O 0.96442 0.02148 0.25406 0.0
O443 O 0.93673 0.94962 0.21206 0.0
O444 O 0.94511 0.95019 0.26038 0.0
O445 O 0.90932 0.99999 0.30876 0.0
O446 O 0.8636 1.00034 0.29211 0.0
C447 C 0.86368 0.04321 0.20366 0.0
O448 O 0.85145 0.03011 0.22449 0.0
O449 O 0.88526 0.03262 0.19134 0.0
O450 O 0.77473 0.95462 0.28275 0.0
O451 O 0.76542 0.95409 0.23416 0.0
O452 O 0.79472 0.01748 0.28571 0.0
C453 C 0.75851 0.94853 0.26023 0.0
O454 O 0.77788 0.02396 0.24009 0.0
O455 O 0.82003 0.97803 0.18118 0.0
C456 C 0.77908 0.0311 0.2671 0.0
O457 O 0.86527 0.96994 0.19742 0.0
O458 O 0.87849 0.94268 0.26175 0.0
O459 O 0.84538 0.93414 0.29441 0.0
C460 C 0.2778 0.96336 0.94345 0.0
C461 C 0.23996 0.95882 0.02794 0.0
C462 C 0.19454 0.85626 0.97736 0.0
Mg463 Mg 0.29429 0.93301 0.00159 0.0
O464 O 0.26845 0.90487 0.98918 0.0
Mg465 Mg 0.23148 0.91479 0.96935 0.0
Mg466 Mg 0.25867 0.86711 0.00645 0.0
O467 O 0.24885 0.82874 0.02196 0.0
Mg468 Mg 0.23298 0.8023 0.99539 0.0
Mg469 Mg 0.28552 0.81881 0.04323 0.0
C470 C 0.3255 0.87796 0.03061 0.0
C471 C 0.2524 0.87034 0.07656 0.0
O472 O 0.25333 0.95157 0.94581 0.0
O473 O 0.29874 0.95782 0.96137 0.0
O474 O 0.22333 0.94651 0.00855 0.0
O475 O 0.26696 0.95571 0.02902 0.0
O476 O 0.32582 0.90469 0.02337 0.0
O477 O 0.30423 0.86124 0.02434 0.0
C478 C 0.26259 0.8626 0.93634 0.0
O479 O 0.26952 0.85125 0.96104 0.0
O480 O 0.24646 0.8847 0.93421 0.0
O481 O 0.26177 0.77665 0.05882 0.0
O482 O 0.22396 0.77097 0.0273 0.0
O483 O 0.30176 0.79184 0.00506 0.0
C484 C 0.23868 0.76353 0.05007 0.0
O485 O 0.26712 0.78444 0.97102 0.0
O486 O 0.19859 0.82895 0.97652 0.0
C487 C 0.29284 0.7812 0.98061 0.0
O488 O 0.21287 0.87347 0.9898 0.0
O489 O 0.24729 0.88281 0.052 0.0
O490 O 0.2667 0.84694 0.07873 0.0
C491 C 0.04134 0.55357 0.27629 0.0
C492 C 0.05075 0.46159 0.26139 0.0
C493 C 0.15137 0.47733 0.32613 0.0
Mg494 Mg 0.074 0.51655 0.23256 0.0
O495 O 0.1016 0.51968 0.26282 0.0
Mg496 Mg 0.09172 0.50785 0.30301 0.0
Mg497 Mg 0.14008 0.50275 0.26038 0.0
O498 O 0.17843 0.48615 0.25774 0.0
Mg499 Mg 0.20598 0.48849 0.28746 0.0
Mg500 Mg 0.18854 0.49709 0.21758 0.0
C501 C 0.12902 0.53004 0.19515 0.0
C502 C 0.13743 0.44958 0.21357 0.0
O503 O 0.05404 0.53989 0.29735 0.0
O504 O 0.04602 0.54841 0.24951 0.0
O505 O 0.06196 0.47075 0.28559 0.0
O506 O 0.05465 0.47449 0.23731 0.0
O507 O 0.10181 0.52845 0.19714 0.0
O508 O 0.14646 0.52387 0.21642 0.0
C509 C 0.1428 0.55514 0.30828 0.0
O510 O 0.15522 0.54357 0.28677 0.0
O511 O 0.11988 0.54459 0.3179 0.0
O512 O 0.22977 0.46847 0.22473 0.0
O513 O 0.23064 0.45448 0.27165 0.0
O514 O 0.2168 0.53463 0.23322 0.0
C515 C 0.24054 0.45367 0.24615 0.0
O516 O 0.23356 0.52498 0.2784 0.0
O517 O 0.17853 0.48025 0.32418 0.0
C518 C 0.23469 0.53902 0.25452 0.0
O519 O 0.13389 0.481 0.30413 0.0
O520 O 0.125 0.46202 0.23452 0.0
O521 O 0.16079 0.45923 0.20395 0.0
C522 C 0.75028 0.52699 0.02373 0.0
C523 C 0.75217 0.55802 0.93806 0.0
C524 C 0.81643 0.6479 0.9866 0.0
Mg525 Mg 0.7155 0.57344 0.99042 0.0
O526 O 0.74501 0.597 0.00512 0.0
Mg527 Mg 0.78547 0.58545 0.999 0.0
Mg528 Mg 0.7473 0.63788 0.99308 0.0
O529 O 0.74956 0.67875 0.98102 0.0
Mg530 Mg 0.7772 0.70238 0.99933 0.0
Mg531 Mg 0.70893 0.69118 0.98171 0.0
C532 C 0.67802 0.62984 0.00295 0.0
C533 C 0.71184 0.64297 0.93064 0.0
O534 O 0.77282 0.54144 0.01816 0.0
O535 O 0.72509 0.53592 0.01699 0.0
O536 O 0.77465 0.565 0.95333 0.0
O537 O 0.72715 0.56222 0.94709 0.0
O538 O 0.67971 0.6027 0.99768 0.0
O539 O 0.70025 0.64629 0.0046 0.0
C540 C 0.78092 0.62755 0.05558 0.0
O541 O 0.76421 0.6444 0.04075 0.0
O542 O 0.79199 0.6053 0.04413 0.0
O543 O 0.72487 0.73395 0.95803 0.0
O544 O 0.77219 0.73641 0.96917 0.0
O545 O 0.71593 0.71611 0.02406 0.0
C546 C 0.74963 0.74603 0.95622 0.0
O547 O 0.76146 0.72166 0.0385 0.0
O548 O 0.81381 0.67418 0.99491 0.0
C549 C 0.73502 0.72656 0.04164 0.0
O550 O 0.7944 0.63154 0.98135 0.0
O551 O 0.73 0.62855 0.94612 0.0
O552 O 0.70185 0.66676 0.9395 0.0
C553 C 0.25091 0.0346 0.53399 0.0
C554 C 0.25441 0.05763 0.44363 0.0
C555 C 0.31482 0.15182 0.48513 0.0
Mg556 Mg 0.2159 0.07553 0.49336 0.0
O557 O 0.24438 0.10118 0.50651 0.0
Mg558 Mg 0.2854 0.09039 0.50328 0.0
Mg559 Mg 0.24574 0.14132 0.4921 0.0
O560 O 0.24732 0.18169 0.47827 0.0
Mg561 Mg 0.27434 0.20513 0.49807 0.0
Mg562 Mg 0.20638 0.19297 0.48075 0.0
C563 C 0.17706 0.13145 0.50256 0.0
C564 C 0.21014 0.1445 0.42984 0.0
O565 O 0.2733 0.04906 0.52793 0.0
O566 O 0.22598 0.04106 0.5237 0.0
O567 O 0.27619 0.0657 0.45942 0.0
O568 O 0.22894 0.06199 0.45128 0.0
O569 O 0.17924 0.10413 0.49866 0.0
O570 O 0.19892 0.14836 0.50339 0.0
C571 C 0.2789 0.13696 0.55549 0.0
O572 O 0.26179 0.15154 0.53887 0.0
O573 O 0.29105 0.11425 0.54648 0.0
O574 O 0.22045 0.23671 0.45829 0.0
O575 O 0.26746 0.24104 0.47052 0.0
O576 O 0.21364 0.2173 0.52333 0.0
C577 C 0.24455 0.25025 0.45786 0.0
O578 O 0.259 0.22148 0.53863 0.0
O579 O 0.31182 0.17825 0.49275 0.0
C580 C 0.23264 0.22679 0.54157 0.0
O581 O 0.29309 0.13487 0.48101 0.0
O582 O 0.22833 0.13025 0.44557 0.0
O583 O 0.1999 0.16835 0.43845 0.0
C584 C 0.46355 0.52537 0.72093 0.0
C585 C 0.44331 0.43593 0.7324 0.0
C586 C 0.34202 0.46452 0.67189 0.0
Mg587 Mg 0.42754 0.49156 0.76387 0.0
O588 O 0.39896 0.49811 0.73544 0.0
Mg589 Mg 0.40604 0.48739 0.69423 0.0
Mg590 Mg 0.36023 0.4817 0.73917 0.0
O591 O 0.32111 0.46594 0.74351 0.0
Mg592 Mg 0.29215 0.47665 0.71703 0.0
Mg593 Mg 0.31562 0.47341 0.786 0.0
C594 C 0.37772 0.5016 0.80702 0.0
C595 C 0.36466 0.42437 0.77955 0.0
O596 O 0.44768 0.51496 0.69992 0.0
O597 O 0.45922 0.51993 0.74769 0.0
O598 O 0.43309 0.4463 0.70826 0.0
O599 O 0.44098 0.4489 0.7566 0.0
O600 O 0.40451 0.50026 0.8029 0.0
O601 O 0.35882 0.4981 0.7863 0.0
C602 C 0.35781 0.53755 0.69669 0.0
O603 O 0.34602 0.52438 0.71773 0.0
O604 O 0.37976 0.52752 0.68454 0.0
O605 O 0.27099 0.45014 0.77943 0.0
O606 O 0.26208 0.44574 0.73101 0.0
O607 O 0.28942 0.51411 0.77834 0.0
C608 C 0.25513 0.44186 0.75737 0.0
O609 O 0.27254 0.51626 0.73224 0.0
O610 O 0.31572 0.4698 0.67691 0.0
C611 C 0.27369 0.5258 0.75842 0.0
O612 O 0.3615 0.46395 0.69258 0.0
O613 O 0.37528 0.43927 0.75918 0.0
O614 O 0.34234 0.43236 0.79251 0.0
C615 C 0.77582 0.45785 0.44453 0.0
C616 C 0.7383 0.45578 0.52953 0.0
C617 C 0.68964 0.35441 0.48122 0.0
Mg618 Mg 0.79147 0.4279 0.50317 0.0
O619 O 0.76512 0.40047 0.49063 0.0
Mg620 Mg 0.72811 0.41145 0.47133 0.0
Mg621 Mg 0.75431 0.36365 0.50912 0.0
O622 O 0.74345 0.32619 0.52599 0.0
Mg623 Mg 0.7259 0.29955 0.50086 0.0
Mg624 Mg 0.78008 0.3154 0.5468 0.0
C625 C 0.82159 0.3726 0.53232 0.0
C626 C 0.74924 0.36927 0.57894 0.0
O627 O 0.7507 0.44748 0.44675 0.0
O628 O 0.79637 0.4514 0.46258 0.0
O629 O 0.72128 0.44399 0.51017 0.0
O630 O 0.76515 0.45166 0.53062 0.0
O631 O 0.82251 0.39923 0.52487 0.0
O632 O 0.79988 0.3564 0.52633 0.0
C633 C 0.75669 0.35696 0.43931 0.0
O634 O 0.76346 0.34609 0.46425 0.0
O635 O 0.74165 0.37983 0.43666 0.0
O636 O 0.75547 0.27459 0.56395 0.0
O637 O 0.71629 0.26991 0.53414 0.0
O638 O 0.79442 0.28621 0.50933 0.0
C639 C 0.73164 0.26222 0.55641 0.0
O640 O 0.75851 0.27881 0.47668 0.0
O641 O 0.69258 0.32694 0.48126 0.0
C642 C 0.78424 0.27469 0.48576 0.0
O643 O 0.70863 0.37126 0.49306 0.0
O644 O 0.74449 0.38124 0.5541 0.0
O645 O 0.76271 0.34539 0.58167 0.0
C646 C 0.53172 0.04186 0.78203 0.0
C647 C 0.54974 0.95347 0.76002 0.0
C648 C 0.64953 0.97395 0.82408 0.0
Mg649 Mg 0.56667 0.01265 0.73461 0.0
O650 O 0.59495 0.01512 0.76405 0.0
Mg651 Mg 0.5874 1.00055 0.80389 0.0
Mg652 Mg 0.63417 1.00063 0.75949 0.0
O653 O 0.6732 0.98695 0.75499 0.0
Mg654 Mg 0.70164 0.98881 0.78371 0.0
Mg655 Mg 0.68142 1.00042 0.71519 0.0
C656 C 0.61926 0.03161 0.69635 0.0
C657 C 0.63409 0.94894 0.71115 0.0
O658 O 0.54656 0.02813 0.8015 0.0
O659 O 0.53636 0.03999 0.75482 0.0
O660 O 0.56052 0.96155 0.78486 0.0
O661 O 0.5518 0.96876 0.73707 0.0
O662 O 0.59222 0.02936 0.69932 0.0
O663 O 0.63747 0.02352 0.71616 0.0
C664 C 0.63516 0.05179 0.80851 0.0
O665 O 0.64737 0.04107 0.78648 0.0
O666 O 0.61319 0.03991 0.81907 0.0
O667 O 0.72518 0.97572 0.72034 0.0
O668 O 0.72614 0.95622 0.76505 0.0
O669 O 0.7065 0.03962 0.73236 0.0
C670 C 0.73701 0.95976 0.74025 0.0
O671 O 0.72768 0.02636 0.77461 0.0
O672 O 0.6764 0.97824 0.8214 0.0
C673 C 0.72687 0.04193 0.75163 0.0
O674 O 0.63129 0.97729 0.80269 0.0
O675 O 0.62136 0.95989 0.73275 0.0
O676 O 0.65637 0.96063 0.70099 0.0
C677 C 0.46236 0.25216 0.03659 0.0
C678 C 0.55395 0.26183 0.05532 0.0
C679 C 0.53182 0.19603 0.15198 0.0
Mg680 Mg 0.50002 0.29238 0.07585 0.0
O681 O 0.49486 0.26207 0.10169 0.0
Mg682 Mg 0.50437 0.22187 0.08977 0.0
Mg683 Mg 0.51005 0.26313 0.14246 0.0
O684 O 0.52471 0.26416 0.18354 0.0
Mg685 Mg 0.51531 0.23356 0.20719 0.0
Mg686 Mg 0.51202 0.30339 0.19563 0.0
C687 C 0.48593 0.32931 0.13257 0.0
C688 C 0.56276 0.30904 0.14922 0.0
O689 O 0.47417 0.23038 0.0493 0.0
O690 O 0.46887 0.27814 0.04344 0.0
O691 O 0.54334 0.23792 0.06382 0.0
O692 O 0.54199 0.28593 0.05994 0.0
O693 O 0.4892 0.32774 0.10498 0.0
O694 O 0.48966 0.30748 0.14954 0.0
C695 C 0.45569 0.21859 0.13785 0.0
O696 O 0.46854 0.23878 0.15237 0.0
O697 O 0.46569 0.20847 0.11454 0.0
O698 O 0.53575 0.2942 0.24119 0.0
O699 O 0.54187 0.2461 0.24335 0.0
O700 O 0.47225 0.28685 0.21816 0.0
C701 C 0.54519 0.27134 0.25409 0.0
O702 O 0.47342 0.23916 0.22336 0.0
O703 O 0.52664 0.19823 0.17912 0.0
C704 C 0.46195 0.26345 0.22805 0.0
O705 O 0.53004 0.21797 0.13473 0.0
O706 O 0.55158 0.28867 0.13344 0.0
O707 O 0.5517 0.31746 0.17281 0.0
H708 H 0.09816 0.30736 0.59935 0.0
H709 H 0.99886 0.23978 0.71637 0.0
H710 H 0.02096 0.34794 0.62569 0.0
H711 H 0.08694 0.26205 0.73409 0.0
H712 H 0.00327 0.25504 0.66566 0.0
H713 H 0.088 0.26662 0.63079 0.0
C714 C 0.07842 0.30722 0.61073 0.0
C715 C 0.06072 0.33151 0.61057 0.0
C716 C 0.02192 0.25518 0.68032 0.0
C717 C 0.04883 0.28463 0.6456 0.0
C718 C 0.01952 0.2464 0.70907 0.0
C719 C 0.04264 0.24974 0.72909 0.0
C720 C 0.04781 0.26669 0.67171 0.0
C721 C 0.0688 0.25899 0.71909 0.0
C722 C 0.07273 0.2839 0.62855 0.0
C723 C 0.03526 0.32985 0.62531 0.0
N724 N 0.07064 0.26752 0.69098 0.0
N725 N 0.03033 0.30699 0.64282 0.0
H726 H 0.70202 0.72527 0.56296 0.0
H727 H 0.57254 0.81243 0.49194 0.0
H728 H 0.63265 0.7581 0.61131 0.0
H729 H 0.61698 0.7431 0.45157 0.0
H730 H 0.60795 0.81173 0.53264 0.0
H731 H 0.68464 0.75232 0.52036 0.0
C732 C 0.68381 0.73922 0.56493 0.0
C733 C 0.66856 0.73939 0.5905 0.0
C734 C 0.61047 0.79747 0.51429 0.0
C735 C 0.64835 0.76979 0.54188 0.0
C736 C 0.59042 0.79794 0.49098 0.0
C737 C 0.59171 0.77752 0.46853 0.0
C738 C 0.63213 0.77688 0.51468 0.0
C739 C 0.61514 0.75906 0.46851 0.0
C740 C 0.67387 0.75451 0.54062 0.0
C741 C 0.64508 0.75764 0.59202 0.0
N742 N 0.63425 0.75894 0.49144 0.0
N743 N 0.63522 0.77167 0.56772 0.0
H744 H 0.96612 0.13414 0.64662 0.0
H745 H 0.94079 0.27636 0.73411 0.0
H746 H 0.92388 0.20479 0.60251 0.0
H747 H 0.93317 0.19139 0.77074 0.0
H748 H 0.93861 0.25508 0.68532 0.0
H749 H 0.96469 0.16079 0.69229 0.0
C750 C 0.95762 0.15574 0.64625 0.0
C751 C 0.94474 0.16709 0.62077 0.0
C752 C 0.93671 0.24126 0.7041 0.0
C753 C 0.94227 0.19724 0.67308 0.0
C754 C 0.93733 0.25339 0.732 0.0
C755 C 0.93807 0.23553 0.75672 0.0
C756 C 0.93704 0.21126 0.70119 0.0
C757 C 0.93342 0.20594 0.75237 0.0
C758 C 0.95618 0.17063 0.67247 0.0
C759 C 0.93384 0.19519 0.62178 0.0
N760 N 0.93415 0.19462 0.72522 0.0
N761 N 0.93249 0.20924 0.64765 0.0
H762 H 0.39852 0.76086 0.64101 0.0
H763 H 0.43789 0.71895 0.4815 0.0
H764 H 0.33352 0.76465 0.57227 0.0
H765 H 0.47894 0.79023 0.52668 0.0
H766 H 0.40442 0.71459 0.521 0.0
H767 H 0.43341 0.74795 0.605 0.0
C768 C 0.39128 0.75728 0.61861 0.0
C769 C 0.36325 0.76371 0.60938 0.0
C770 C 0.42107 0.73082 0.52232 0.0
C771 C 0.40266 0.74925 0.56864 0.0
C772 C 0.43999 0.73344 0.49994 0.0
C773 C 0.46087 0.75516 0.50096 0.0
C774 C 0.42384 0.7494 0.54619 0.0
C775 C 0.46286 0.77346 0.52512 0.0
C776 C 0.41123 0.75042 0.59814 0.0
C777 C 0.35497 0.75963 0.58006 0.0
N778 N 0.44455 0.77008 0.54701 0.0
N779 N 0.37476 0.75294 0.5605 0.0
H780 H 0.11491 0.68597 0.90059 0.0
H781 H 0.01431 0.78178 0.79708 0.0
H782 H 0.02555 0.66744 0.88487 0.0
H783 H 0.10091 0.76037 0.77963 0.0
H784 H 0.01946 0.7567 0.84401 0.0
H785 H 0.10986 0.72928 0.87115 0.0
C786 C 0.09409 0.69116 0.89122 0.0
C787 C 0.0708 0.67248 0.89433 0.0
C788 C 0.03765 0.75863 0.83042 0.0
C789 C 0.06485 0.72262 0.86119 0.0
C790 C 0.03494 0.77334 0.80393 0.0
C791 C 0.05722 0.773 0.7845 0.0
C792 C 0.06316 0.74442 0.83775 0.0
C793 C 0.08332 0.76126 0.79409 0.0
C794 C 0.09125 0.71605 0.87462 0.0
C795 C 0.04413 0.68102 0.88263 0.0
N796 N 0.08546 0.74706 0.81989 0.0
N797 N 0.04194 0.70531 0.86608 0.0
H798 H 0.82521 0.7308 0.40344 0.0
H799 H 0.92555 0.68916 0.53737 0.0
H800 H 0.81897 0.65078 0.45003 0.0
H801 H 0.92074 0.77577 0.50395 0.0
H802 H 0.8825 0.67687 0.50869 0.0
H803 H 0.85298 0.75111 0.44463 0.0
C804 C 0.82842 0.7179 0.42289 0.0
C805 C 0.82066 0.68869 0.42292 0.0
C806 C 0.89069 0.69864 0.50771 0.0
C807 C 0.85319 0.71147 0.46961 0.0
C808 C 0.91558 0.70558 0.5238 0.0
C809 C 0.92712 0.73343 0.5227 0.0
C810 C 0.87732 0.71954 0.48994 0.0
C811 C 0.91279 0.75394 0.50521 0.0
C812 C 0.84477 0.7294 0.44626 0.0
C813 C 0.82524 0.67318 0.44883 0.0
N814 N 0.88883 0.74649 0.48924 0.0
N815 N 0.84203 0.68442 0.47076 0.0
H816 H 0.92117 0.83815 0.89366 0.0
H817 H 0.92627 0.79751 0.75005 0.0
H818 H 0.00884 0.8364 0.87002 0.0
H819 H 0.97632 0.72595 0.78216 0.0
H820 H 0.92125 0.8135 0.80036 0.0
H821 H 0.91076 0.79806 0.86021 0.0
C822 C 0.93868 0.82808 0.88304 0.0
C823 C 0.96583 0.84103 0.8841 0.0
C824 C 0.93224 0.79357 0.79635 0.0
C825 C 0.95409 0.79508 0.84637 0.0
C826 C 0.93499 0.78436 0.76764 0.0
C827 C 0.95203 0.76056 0.76171 0.0
C828 C 0.94727 0.77936 0.81906 0.0
C829 C 0.96307 0.74451 0.78556 0.0
C830 C 0.93254 0.80548 0.86362 0.0
C831 C 0.9876 0.82718 0.86967 0.0
N832 N 0.96166 0.75495 0.81311 0.0
N833 N 0.98113 0.80536 0.85076 0.0
H834 H 0.17622 0.82222 0.44412 0.0
H835 H 0.05858 0.71895 0.51056 0.0
H836 H 0.12612 0.76396 0.38963 0.0
H837 H 0.0833 0.80189 0.54545 0.0
H838 H 0.09222 0.72578 0.47136 0.0
H839 H 0.15231 0.80432 0.48656 0.0
C840 C 0.16065 0.80507 0.44116 0.0
C841 C 0.15301 0.79476 0.41315 0.0
C842 C 0.09055 0.74221 0.4879 0.0
C843 C 0.12511 0.77438 0.46197 0.0
C844 C 0.07159 0.73825 0.5104 0.0
C845 C 0.06815 0.75992 0.53132 0.0
C846 C 0.10664 0.76771 0.48674 0.0
C847 C 0.0852 0.78469 0.52977 0.0
C848 C 0.14686 0.79502 0.46544 0.0
C849 C 0.13277 0.77241 0.41078 0.0
N850 N 0.10365 0.78787 0.50794 0.0
N851 N 0.11917 0.76322 0.43486 0.0
H852 H 0.62409 0.10893 0.33327 0.0
H853 H 0.77834 0.05398 0.32173 0.0
H854 H 0.65299 0.03837 0.38714 0.0
H855 H 0.72635 0.0461 0.24244 0.0
H856 H 0.7358 0.06539 0.34806 0.0
H857 H 0.66383 0.10045 0.30101 0.0
C858 C 0.63855 0.09133 0.33797 0.0
C859 C 0.63509 0.07401 0.36263 0.0
C860 C 0.73388 0.06171 0.32478 0.0
C861 C 0.68109 0.06526 0.32678 0.0
C862 C 0.75818 0.05558 0.30954 0.0
C863 C 0.7561 0.04868 0.27969 0.0
C864 C 0.70724 0.06193 0.31009 0.0
C865 C 0.72917 0.05134 0.26532 0.0
C866 C 0.66115 0.08663 0.31965 0.0
C867 C 0.65465 0.05187 0.36811 0.0
N868 N 0.70569 0.05758 0.28071 0.0
N869 N 0.67717 0.04848 0.35065 0.0
H870 H 0.23679 0.0937 0.82182 0.0
H871 H 0.32559 0.99395 0.92742 0.0
H872 H 0.32847 0.09429 0.82423 0.0
H873 H 0.23765 0.97726 0.90142 0.0
H874 H 0.32852 0.02772 0.88653 0.0
H875 H 0.23756 0.04642 0.84461 0.0
C876 C 0.25709 0.08317 0.82577 0.0
C877 C 0.28257 0.09807 0.82149 0.0
C878 C 0.30874 0.01628 0.88963 0.0
C879 C 0.28379 0.04483 0.84944 0.0
C880 C 0.307 0.9972 0.91313 0.0
C881 C 0.28122 0.98306 0.91833 0.0
C882 C 0.28448 0.02136 0.8714 0.0
C883 C 0.25791 0.98791 0.89876 0.0
C884 C 0.2576 0.05637 0.83939 0.0
C885 C 0.30831 0.08361 0.82743 0.0
N886 N 0.26003 0.00679 0.87651 0.0
N887 N 0.30834 0.05824 0.84216 0.0
H888 H 0.42229 0.45089 0.28776 0.0
H889 H 0.26115 0.40573 0.27275 0.0
H890 H 0.36577 0.4492 0.35933 0.0
H891 H 0.28624 0.47724 0.21979 0.0
H892 H 0.3098 0.40308 0.29337 0.0
H893 H 0.38055 0.44635 0.25352 0.0
C894 C 0.4011 0.45002 0.29617 0.0
C895 C 0.39733 0.45082 0.32632 0.0
C896 C 0.30484 0.41859 0.27637 0.0
C897 C 0.35039 0.44396 0.28778 0.0
C898 C 0.27727 0.41983 0.26426 0.0
C899 C 0.26957 0.44213 0.24504 0.0
C900 C 0.32485 0.4394 0.26876 0.0
C901 C 0.29129 0.45987 0.23474 0.0
C902 C 0.37753 0.44719 0.27673 0.0
C903 C 0.3696 0.44913 0.33627 0.0
N904 N 0.31799 0.45871 0.24741 0.0
N905 N 0.34722 0.44533 0.31704 0.0
H906 H 0.6909 0.43756 0.81251 0.0
H907 H 0.79332 0.51797 0.92914 0.0
H908 H 0.74718 0.39257 0.87289 0.0
H909 H 0.7153 0.55197 0.89084 0.0
H910 H 0.78852 0.4763 0.89645 0.0
H911 H 0.71268 0.48305 0.82817 0.0
C912 C 0.70851 0.43723 0.82849 0.0
C913 C 0.71707 0.41134 0.84169 0.0
C914 C 0.77298 0.49336 0.89464 0.0
C915 C 0.74164 0.46348 0.86025 0.0
C916 C 0.77584 0.51733 0.91304 0.0
C917 C 0.75461 0.53853 0.91277 0.0
C918 C 0.74903 0.49089 0.87552 0.0
C919 C 0.73218 0.53625 0.89179 0.0
C920 C 0.7208 0.46322 0.83754 0.0
C921 C 0.74002 0.41209 0.86218 0.0
N922 N 0.72985 0.51276 0.87425 0.0
N923 N 0.75117 0.43789 0.87135 0.0
H924 H 0.62963 0.98843 0.15956 0.0
H925 H 0.72414 0.98801 0.28259 0.0
H926 H 0.58663 0.92236 0.20694 0.0
H927 H 0.72328 0.90483 0.2413 0.0
H928 H 0.67462 0.99521 0.265 0.0
H929 H 0.66403 0.9938 0.20092 0.0
C930 C 0.6264 0.97626 0.17924 0.0
C931 C 0.60571 0.95444 0.17959 0.0
C932 C 0.68491 0.97488 0.26109 0.0
C933 C 0.64526 0.95974 0.22613 0.0
C934 C 0.71294 0.97049 0.27146 0.0
C935 C 0.72767 0.94564 0.26353 0.0
C936 C 0.67145 0.95377 0.24363 0.0
C937 C 0.71254 0.92405 0.2482 0.0
C938 C 0.6462 0.97911 0.20272 0.0
C939 C 0.6027 0.93905 0.20564 0.0
N940 N 0.68527 0.92874 0.23847 0.0
N941 N 0.62314 0.94093 0.22731 0.0
H942 H 0.2276 0.13195 0.08237 0.0
H943 H 0.24684 0.96209 0.08675 0.0
H944 H 0.22102 0.08485 0.16234 0.0
H945 H 0.21304 0.00795 0.01183 0.0
H946 H 0.24489 0.00648 0.11557 0.0
H947 H 0.23422 0.08656 0.05647 0.0
C948 C 0.22918 0.11215 0.09472 0.0
C949 C 0.22431 0.11209 0.12456 0.0
C950 C 0.2374 0.00667 0.09298 0.0
C951 C 0.23037 0.06014 0.09503 0.0
C952 C 0.23802 0.98131 0.07671 0.0
C953 C 0.22945 0.98133 0.04711 0.0
C954 C 0.22901 0.03234 0.07923 0.0
C955 C 0.21911 0.00693 0.03478 0.0
C956 C 0.23213 0.08623 0.07984 0.0
C957 C 0.22535 0.08576 0.13941 0.0
N958 N 0.21961 0.03156 0.05078 0.0
N959 N 0.22797 0.06073 0.12444 0.0
H960 H 0.39745 0.56725 0.17025 0.0
H961 H 0.24337 0.58142 0.21496 0.0
H962 H 0.32716 0.53234 0.11816 0.0
H963 H 0.28862 0.52291 0.27273 0.0
H964 H 0.28502 0.58368 0.18488 0.0
H965 H 0.36774 0.56512 0.21337 0.0
C966 C 0.37638 0.55769 0.16819 0.0
C967 C 0.36473 0.54978 0.14065 0.0
C968 C 0.28611 0.5712 0.20478 0.0
C969 C 0.33064 0.54878 0.18905 0.0
C970 C 0.26253 0.57022 0.22219 0.0
C971 C 0.26227 0.55169 0.24624 0.0
C972 C 0.30975 0.55389 0.21161 0.0
C973 C 0.28783 0.5375 0.25439 0.0
C974 C 0.35935 0.55701 0.19264 0.0
C975 C 0.33698 0.53846 0.139 0.0
N976 N 0.31039 0.53825 0.23663 0.0
N977 N 0.32065 0.53904 0.16264 0.0
H978 H 0.7685 0.38963 0.14745 0.0
H979 H 0.79212 0.48941 0.01333 0.0
H980 H 0.81862 0.36563 0.0749 0.0
H981 H 0.71728 0.49941 0.06351 0.0
H982 H 0.80086 0.44314 0.0363 0.0
H983 H 0.74661 0.42801 0.11756 0.0
C984 C 0.77418 0.39182 0.12498 0.0
C985 C 0.79563 0.37474 0.11367 0.0
C986 C 0.78232 0.45519 0.04219 0.0
C987 C 0.77141 0.41873 0.07987 0.0
C988 C 0.77748 0.48175 0.02924 0.0
C989 C 0.75415 0.49831 0.03682 0.0
C990 C 0.76409 0.44524 0.06348 0.0
C991 C 0.73557 0.48721 0.05722 0.0
C992 C 0.76185 0.41382 0.10802 0.0
C993 C 0.80252 0.37868 0.08459 0.0
N994 N 0.74122 0.46146 0.07032 0.0
N995 N 0.79081 0.40052 0.06888 0.0
H996 H 0.32797 0.61467 0.98734 0.0
H997 H 0.3509 0.77598 0.98552 0.0
H998 H 0.4116 0.65244 0.99786 0.0
H999 H 0.27597 0.73607 0.94551 0.0
H1000 H 0.37718 0.73167 0.97822 0.0
H1001 H 0.31217 0.65655 0.95934 0.0
C1002 C 0.34339 0.63121 0.98244 0.0
C1003 C 0.37098 0.63035 0.99517 0.0
C1004 C 0.35524 0.7328 0.97017 0.0
C1005 C 0.35272 0.67916 0.9647 0.0
C1006 C 0.3402 0.7582 0.97432 0.0
C1007 C 0.31097 0.75949 0.96688 0.0
C1008 C 0.34072 0.7083 0.95921 0.0
C1009 C 0.29836 0.73592 0.95206 0.0
C1010 C 0.33431 0.65535 0.96671 0.0
C1011 C 0.39009 0.6524 0.98845 0.0
N1012 N 0.31304 0.71098 0.94957 0.0
N1013 N 0.38034 0.67645 0.97459 0.0
H1014 H 0.35317 0.38861 0.45312 0.0
H1015 H 0.24936 0.26473 0.4008 0.0
H1016 H 0.33391 0.37029 0.36231 0.0
H1017 H 0.24906 0.30003 0.48736 0.0
H1018 H 0.27463 0.30774 0.38473 0.0
H1019 H 0.31099 0.3607 0.46557 0.0
C1020 C 0.33992 0.37919 0.43578 0.0
C1021 C 0.34758 0.38135 0.40669 0.0
C1022 C 0.26818 0.30662 0.40704 0.0
C1023 C 0.29938 0.34915 0.42075 0.0
C1024 C 0.25333 0.28224 0.41602 0.0
C1025 C 0.2469 0.27911 0.44529 0.0
C1026 C 0.27729 0.32746 0.42773 0.0
C1027 C 0.25342 0.30193 0.46448 0.0
C1028 C 0.31577 0.36323 0.44288 0.0
C1029 C 0.32935 0.3687 0.38514 0.0
N1030 N 0.26888 0.32484 0.45557 0.0
N1031 N 0.30647 0.35281 0.39262 0.0
H1032 H 0.56105 0.32775 0.8187 0.0
H1033 H 0.48486 0.42264 0.69432 0.0
H1034 H 0.60762 0.37071 0.75242 0.0
H1035 H 0.44795 0.39486 0.77384 0.0
H1036 H 0.52646 0.39214 0.70597 0.0
H1037 H 0.51659 0.33986 0.79275 0.0
C1038 C 0.56189 0.33946 0.79839 0.0
C1039 C 0.588 0.34868 0.78794 0.0
C1040 C 0.50871 0.39198 0.72025 0.0
C1041 C 0.53694 0.36326 0.75827 0.0
C1042 C 0.48481 0.40905 0.71342 0.0
C1043 C 0.46269 0.41099 0.73297 0.0
C1044 C 0.51014 0.37658 0.74658 0.0
C1045 C 0.46411 0.39356 0.75783 0.0
C1046 C 0.53647 0.34639 0.78355 0.0
C1047 C 0.58787 0.36336 0.76126 0.0
N1048 N 0.48745 0.37738 0.76401 0.0
N1049 N 0.56263 0.37077 0.74758 0.0
H1050 H 0.61654 0.14891 0.50603 0.0
H1051 H 0.76306 0.21362 0.55774 0.0
H1052 H 0.69801 0.12176 0.47687 0.0
H1053 H 0.68134 0.24689 0.5793 0.0
H1054 H 0.74081 0.16706 0.54679 0.0
H1055 H 0.64032 0.17107 0.54881 0.0
C1056 C 0.63938 0.14666 0.50929 0.0
C1057 C 0.65538 0.13341 0.48811 0.0
C1058 C 0.72787 0.18412 0.55517 0.0
C1059 C 0.68294 0.15993 0.53612 0.0
C1060 C 0.74072 0.21061 0.56201 0.0
C1061 C 0.7238 0.23425 0.56864 0.0
C1062 C 0.69801 0.18161 0.55498 0.0
C1063 C 0.69498 0.22922 0.57369 0.0
C1064 C 0.65301 0.1595 0.53359 0.0
C1065 C 0.68498 0.13184 0.49281 0.0
N1066 N 0.68274 0.20372 0.56576 0.0
N1067 N 0.69788 0.14542 0.51604 0.0
H1068 H 0.90481 0.67388 0.2769 0.0
H1069 H 0.03681 0.58054 0.32873 0.0
H1070 H 0.94402 0.67727 0.36326 0.0
H1071 H 0.00449 0.58319 0.23949 0.0
H1072 H 0.00749 0.62179 0.33962 0.0
H1073 H 0.94693 0.64957 0.25983 0.0
C1074 C 0.92284 0.67079 0.29199 0.0
C1075 C 0.92064 0.67677 0.32172 0.0
C1076 C 0.00689 0.61352 0.31758 0.0
C1077 C 0.96832 0.64816 0.30264 0.0
C1078 C 0.0234 0.58967 0.31142 0.0
C1079 C 0.02274 0.57799 0.28326 0.0
C1080 C 0.98922 0.62569 0.29555 0.0
C1081 C 0.00541 0.59124 0.2616 0.0
C1082 C 0.94673 0.65643 0.28233 0.0
C1083 C 0.94466 0.67237 0.34027 0.0
N1084 N 0.98909 0.61417 0.26828 0.0
N1085 N 0.96718 0.65755 0.33062 0.0
H1086 H 0.12652 0.36642 0.53543 0.0
H1087 H 0.26497 0.27413 0.55765 0.0
H1088 H 0.1959 0.40221 0.58862 0.0
H1089 H 0.18011 0.23866 0.56115 0.0
H1090 H 0.24519 0.32247 0.5634 0.0
H1091 H 0.15216 0.3211 0.53347 0.0
C1092 C 0.14758 0.36519 0.54583 0.0
C1093 C 0.15882 0.38811 0.56265 0.0
C1094 C 0.23111 0.30395 0.56359 0.0
C1095 C 0.18803 0.336 0.5608 0.0
C1096 C 0.24239 0.27629 0.56091 0.0
C1097 C 0.22411 0.25223 0.55849 0.0
C1098 C 0.20146 0.30738 0.5634 0.0
C1099 C 0.19498 0.25655 0.56253 0.0
C1100 C 0.16194 0.33908 0.54517 0.0
C1101 C 0.18631 0.38499 0.57565 0.0
N1102 N 0.18447 0.2836 0.5639 0.0
N1103 N 0.19993 0.35925 0.57473 0.0
H1104 H 0.621 0.62334 0.71963 0.0
H1105 H 0.47185 0.55356 0.6698 0.0
H1106 H 0.56956 0.65269 0.6457 0.0
H1107 H 0.5084 0.54289 0.75682 0.0
H1108 H 0.50966 0.58783 0.65969 0.0
H1109 H 0.58133 0.59266 0.73377 0.0
C1110 C 0.60127 0.62376 0.70669 0.0
C1111 C 0.5987 0.6405 0.68136 0.0
C1112 C 0.50937 0.57805 0.68104 0.0
C1113 C 0.55362 0.60504 0.69695 0.0
C1114 C 0.4879 0.5583 0.68674 0.0
C1115 C 0.48697 0.5453 0.71417 0.0
C1116 C 0.53028 0.58463 0.70279 0.0
C1117 C 0.50826 0.55247 0.73537 0.0
C1118 C 0.5787 0.60612 0.71466 0.0
C1119 C 0.57266 0.63996 0.66525 0.0
N1120 N 0.52916 0.57157 0.72919 0.0
N1121 N 0.55129 0.62229 0.67314 0.0
H1122 H 0.44213 0.8182 0.69081 0.0
H1123 H 0.51134 0.93582 0.79955 0.0
H1124 H 0.39102 0.86645 0.7492 0.0
H1125 H 0.54322 0.91456 0.71569 0.0
H1126 H 0.47271 0.90035 0.79126 0.0
H1127 H 0.48465 0.84243 0.71086 0.0
C1128 C 0.43989 0.8335 0.70835 0.0
C1129 C 0.41285 0.84065 0.718 0.0
C1130 C 0.48852 0.9031 0.775 0.0
C1131 C 0.46175 0.86872 0.74095 0.0
C1132 C 0.51072 0.92307 0.7798 0.0
C1133 C 0.53052 0.92808 0.75824 0.0
C1134 C 0.48658 0.88762 0.74876 0.0
C1135 C 0.52841 0.91139 0.73284 0.0
C1136 C 0.46423 0.84741 0.71967 0.0
C1137 C 0.41141 0.86037 0.74106 0.0
N1138 N 0.50685 0.89197 0.72881 0.0
N1139 N 0.43554 0.87411 0.75149 0.0
H1140 H 0.60121 0.80918 0.09649 0.0
H1141 H 0.5926 0.75595 0.23219 0.0
H1142 H 0.5253 0.84983 0.12611 0.0
H1143 H 0.50218 0.74701 0.21512 0.0
H1144 H 0.59782 0.77027 0.18136 0.0
H1145 H 0.59155 0.76775 0.12723 0.0
C1146 C 0.58193 0.809 0.10864 0.0
C1147 C 0.56454 0.83346 0.10966 0.0
C1148 C 0.577 0.76382 0.18834 0.0
C1149 C 0.55356 0.78623 0.14449 0.0
C1150 C 0.57412 0.75566 0.2173 0.0
C1151 C 0.54701 0.75031 0.22745 0.0
C1152 C 0.55244 0.76751 0.17014 0.0
C1153 C 0.52345 0.75096 0.20774 0.0
C1154 C 0.57659 0.78537 0.1262 0.0
C1155 C 0.53954 0.83171 0.12512 0.0
N1156 N 0.52654 0.76045 0.18018 0.0
N1157 N 0.5351 0.80867 0.14253 0.0
H1158 H 0.19793 0.22909 0.06034 0.0
H1159 H 0.06681 0.3155 0.99117 0.0
H1160 H 0.12943 0.26143 0.11024 0.0
H1161 H 0.11127 0.24658 0.95012 0.0
H1162 H 0.10238 0.31453 0.03175 0.0
H1163 H 0.17936 0.2558 0.01802 0.0
C1164 C 0.17966 0.24287 0.06269 0.0
C1165 C 0.16503 0.24301 0.08865 0.0
C1166 C 0.10484 0.30043 0.01328 0.0
C1167 C 0.14338 0.27296 0.0403 0.0
C1168 C 0.08472 0.30106 0.99001 0.0
C1169 C 0.08601 0.28091 0.96731 0.0
C1170 C 0.12662 0.27997 0.01337 0.0
C1171 C 0.10946 0.26246 0.96712 0.0
C1172 C 0.16901 0.25795 0.03853 0.0
C1173 C 0.1414 0.261 0.09063 0.0
N1174 N 0.12867 0.26223 0.98997 0.0
N1175 N 0.13083 0.27482 0.06646 0.0
H1176 H 0.41255 0.69813 0.10673 0.0
H1177 H 0.43797 0.68847 0.27685 0.0
H1178 H 0.46016 0.63042 0.14965 0.0
H1179 H 0.44397 0.77147 0.23566 0.0
H1180 H 0.43131 0.66624 0.22893 0.0
H1181 H 0.41479 0.7259 0.15233 0.0
C1182 C 0.42447 0.68968 0.12547 0.0
C1183 C 0.43659 0.66218 0.12445 0.0
C1184 C 0.43347 0.6894 0.23048 0.0
C1185 C 0.43736 0.69269 0.1767 0.0
C1186 C 0.4366 0.70219 0.25782 0.0
C1187 C 0.44232 0.73179 0.26025 0.0
C1188 C 0.43527 0.70641 0.20549 0.0
C1189 C 0.43997 0.74853 0.23481 0.0
C1190 C 0.42527 0.70526 0.15149 0.0
C1191 C 0.45106 0.65176 0.14943 0.0
N1192 N 0.43722 0.73552 0.20829 0.0
N1193 N 0.45048 0.66675 0.17478 0.0
H1194 H 0.92958 0.26398 0.15358 0.0
H1195 H 0.92662 0.28721 0.99031 0.0
H1196 H 0.84925 0.26152 0.10495 0.0
H1197 H 0.99109 0.23106 0.02754 0.0
H1198 H 0.89872 0.28012 0.03373 0.0
H1199 H 0.95368 0.24998 0.10962 0.0
C1200 C 0.91693 0.25906 0.13395 0.0
C1201 C 0.88756 0.26408 0.13258 0.0
C1202 C 0.91886 0.26915 0.03216 0.0
C1203 C 0.91487 0.24989 0.08234 0.0
C1204 C 0.93494 0.27361 0.00774 0.0
C1205 C 0.96121 0.25995 0.00567 0.0
C1206 C 0.92957 0.25152 0.0548 0.0
C1207 C 0.97092 0.24207 0.02852 0.0
C1208 C 0.93066 0.25141 0.10885 0.0
C1209 C 0.872 0.25785 0.10669 0.0
N1210 N 0.95529 0.23871 0.05245 0.0
N1211 N 0.886 0.25214 0.08213 0.0
H1212 H 0.61125 0.18627 0.40464 0.0
H1213 H 0.59774 0.26042 0.27789 0.0
H1214 H 0.52359 0.16545 0.38195 0.0
H1215 H 0.51155 0.27896 0.29938 0.0
H1216 H 0.6053 0.23703 0.32496 0.0
H1217 H 0.60694 0.23022 0.37597 0.0
C1218 C 0.59095 0.19113 0.39382 0.0
C1219 C 0.56797 0.17176 0.39486 0.0
C1220 C 0.58509 0.24738 0.32015 0.0
C1221 C 0.56307 0.22188 0.36169 0.0
C1222 C 0.58095 0.26106 0.29333 0.0
C1223 C 0.55414 0.27189 0.28501 0.0
C1224 C 0.56193 0.24376 0.33829 0.0
C1225 C 0.53264 0.27114 0.30531 0.0
C1226 C 0.58856 0.21621 0.37745 0.0
C1227 C 0.54192 0.17962 0.38131 0.0
N1228 N 0.53662 0.25628 0.33062 0.0
N1229 N 0.5403 0.20392 0.36475 0.0
H1230 H 0.33666 0.24825 0.89557 0.0
H1231 H 0.42832 0.20464 0.03337 0.0
H1232 H 0.30833 0.18683 0.95856 0.0
H1233 H 0.43868 0.28879 0.99554 0.0
H1234 H 0.38415 0.1984 0.00456 0.0
H1235 H 0.3716 0.26685 0.93188 0.0
C1236 C 0.33684 0.23954 0.91743 0.0
C1237 C 0.32016 0.21539 0.92387 0.0
C1238 C 0.39599 0.21832 0.0026 0.0
C1239 C 0.36053 0.23587 0.96493 0.0
C1240 C 0.42151 0.22168 0.01869 0.0
C1241 C 0.4374 0.24715 0.01662 0.0
C1242 C 0.38641 0.24033 0.98384 0.0
C1243 C 0.42714 0.26873 0.99763 0.0
C1244 C 0.35709 0.24994 0.93802 0.0
C1245 C 0.32129 0.20503 0.95251 0.0
N1246 N 0.40237 0.26472 0.98168 0.0
N1247 N 0.34178 0.21475 0.97175 0.0
H1248 H 0.41872 0.34866 0.38718 0.0
H1249 H 0.42098 0.30333 0.23878 0.0
H1250 H 0.50077 0.35565 0.34944 0.0
H1251 H 0.46736 0.23275 0.27818 0.0
H1252 H 0.41543 0.32382 0.28729 0.0
H1253 H 0.40711 0.30761 0.35474 0.0
C1254 C 0.43478 0.34065 0.37314 0.0
C1255 C 0.4606 0.35565 0.37061 0.0
C1256 C 0.42555 0.30307 0.28532 0.0
C1257 C 0.44788 0.30873 0.33451 0.0
C1258 C 0.42852 0.29126 0.25767 0.0
C1259 C 0.44509 0.26657 0.25432 0.0
C1260 C 0.43969 0.29038 0.30946 0.0
C1261 C 0.45461 0.25196 0.27967 0.0
C1262 C 0.42808 0.3174 0.35465 0.0
C1263 C 0.48072 0.34455 0.35209 0.0
N1264 N 0.4531 0.26487 0.30612 0.0
N1265 N 0.47379 0.32195 0.33441 0.0
H1266 H 0.62733 0.26093 0.88985 0.0
H1267 H 0.59629 0.30188 0.05121 0.0
H1268 H 0.67865 0.3211 0.94084 0.0
H1269 H 0.56548 0.22205 0.01357 0.0
H1270 H 0.62941 0.30655 0.0119 0.0
H1271 H 0.6075 0.24263 0.93504 0.0
C1272 C 0.63516 0.26957 0.91056 0.0
C1273 C 0.6544 0.29277 0.91159 0.0
C1274 C 0.61584 0.28768 0.01245 0.0
C1275 C 0.63138 0.27263 0.9631 0.0
C1276 C 0.59695 0.28503 0.03496 0.0
C1277 C 0.57811 0.26159 0.03563 0.0
C1278 C 0.61537 0.26719 0.98988 0.0
C1279 C 0.5798 0.24039 0.01394 0.0
C1280 C 0.62366 0.25932 0.93634 0.0
C1281 C 0.66353 0.30346 0.93902 0.0
N1282 N 0.59764 0.24399 0.99157 0.0
N1283 N 0.6516 0.2937 0.96353 0.0
H1284 H 0.11559 0.5421 0.84144 0.0
H1285 H 0.27718 0.56668 0.80101 0.0
H1286 H 0.17052 0.60661 0.88171 0.0
H1287 H 0.21708 0.52373 0.7422 0.0
H1288 H 0.23782 0.58221 0.8302 0.0
H1289 H 0.15228 0.5333 0.80549 0.0
C1290 C 0.13529 0.55434 0.84276 0.0
C1291 C 0.13982 0.57535 0.86445 0.0
C1292 C 0.23306 0.56993 0.81056 0.0
C1293 C 0.18168 0.56557 0.82355 0.0
C1294 C 0.25557 0.56144 0.79363 0.0
C1295 C 0.25048 0.54409 0.76896 0.0
C1296 C 0.20519 0.56043 0.80329 0.0
C1297 C 0.22199 0.53745 0.7608 0.0
C1298 C 0.15608 0.54955 0.82211 0.0
C1299 C 0.16574 0.59064 0.8651 0.0
N1300 N 0.20047 0.54503 0.77827 0.0
N1301 N 0.18559 0.58537 0.84517 0.0
H1302 H 0.76772 0.59668 0.32443 0.0
H1303 H 0.82659 0.47026 0.41961 0.0
H1304 H 0.84845 0.55693 0.31009 0.0
H1305 H 0.73648 0.48743 0.41111 0.0
H1306 H 0.83386 0.50027 0.37684 0.0
H1307 H 0.75279 0.55355 0.35015 0.0
C1308 C 0.7817 0.57824 0.32515 0.0
C1309 C 0.80968 0.58067 0.31591 0.0
C1310 C 0.81244 0.49722 0.38415 0.0
C1311 C 0.79336 0.53193 0.3464 0.0
C1312 C 0.80836 0.48041 0.40882 0.0
C1313 C 0.78096 0.47658 0.41919 0.0
C1314 C 0.78903 0.51077 0.37001 0.0
C1315 C 0.75803 0.48991 0.40399 0.0
C1316 C 0.77341 0.55379 0.34045 0.0
C1317 C 0.82688 0.55609 0.3175 0.0
N1318 N 0.76262 0.50669 0.38044 0.0
N1319 N 0.81892 0.53316 0.33358 0.0
H1320 H 0.91773 0.97076 0.78824 0.0
H1321 H 0.76527 0.91492 0.76526 0.0
H1322 H 0.85999 0.96531 0.85854 0.0
H1323 H 0.77876 0.99312 0.71732 0.0
H1324 H 0.81256 0.9206 0.78865 0.0
H1325 H 0.87664 0.9723 0.75332 0.0
C1326 C 0.89644 0.9712 0.79639 0.0
C1327 C 0.89217 0.96763 0.82631 0.0
C1328 C 0.80542 0.936 0.7723 0.0
C1329 C 0.84579 0.96794 0.7867 0.0
C1330 C 0.77875 0.93248 0.75851 0.0
C1331 C 0.76779 0.95402 0.73999 0.0
C1332 C 0.82143 0.96077 0.76692 0.0
C1333 C 0.78628 0.97626 0.73186 0.0
C1334 C 0.87315 0.97171 0.77645 0.0
C1335 C 0.86424 0.96808 0.83574 0.0
N1336 N 0.81214 0.97959 0.74603 0.0
N1337 N 0.84205 0.96715 0.8159 0.0
H1338 H 0.20104 0.93769 0.31446 0.0
H1339 H 0.29592 0.01727 0.43785 0.0
H1340 H 0.25199 0.89222 0.37919 0.0
H1341 H 0.2203 0.05122 0.3945 0.0
H1342 H 0.29337 0.97569 0.40481 0.0
H1343 H 0.22276 0.98288 0.33116 0.0
C1344 C 0.21759 0.93717 0.33159 0.0
C1345 C 0.22457 0.9113 0.3457 0.0
C1346 C 0.2779 0.99273 0.40203 0.0
C1347 C 0.2489 0.96305 0.36549 0.0
C1348 C 0.27946 0.01659 0.42066 0.0
C1349 C 0.25819 0.03772 0.41897 0.0
C1350 C 0.25525 0.99036 0.38128 0.0
C1351 C 0.23712 0.0355 0.39658 0.0
C1352 C 0.22981 0.96299 0.34124 0.0
C1353 C 0.2461 0.91175 0.36774 0.0
N1354 N 0.23605 0.01214 0.37882 0.0
N1355 N 0.25711 0.9374 0.37748 0.0
H1356 H 0.07838 0.4245 0.70636 0.0
H1357 H 0.22128 0.3983 0.73603 0.0
H1358 H 0.13014 0.4827 0.65804 0.0
H1359 H 0.21947 0.47865 0.78252 0.0
H1360 H 0.17123 0.40514 0.72052 0.0
H1361 H 0.11411 0.42589 0.7466 0.0
C1362 C 0.09638 0.43906 0.70495 0.0
C1363 C 0.10171 0.45296 0.67854 0.0
C1364 C 0.18154 0.42068 0.73511 0.0
C1365 C 0.14227 0.45466 0.72442 0.0
C1366 C 0.20989 0.41656 0.74429 0.0
C1367 C 0.22438 0.43781 0.76076 0.0
C1368 C 0.16805 0.44658 0.74168 0.0
C1369 C 0.20886 0.46166 0.77005 0.0
C1370 C 0.11683 0.43953 0.72782 0.0
C1371 C 0.12534 0.47144 0.67786 0.0
N1372 N 0.1818 0.46611 0.75932 0.0
N1373 N 0.14536 0.471 0.70015 0.0
H1374 H 0.72401 0.58218 0.66654 0.0
H1375 H 0.70861 0.50368 0.51414 0.0
H1376 H 0.72671 0.62723 0.58501 0.0
H1377 H 0.74893 0.46083 0.58779 0.0
H1378 H 0.70765 0.54819 0.5428 0.0
H1379 H 0.73054 0.53662 0.64072 0.0
C1380 C 0.7276 0.58259 0.64342 0.0
C1381 C 0.72543 0.60846 0.62789 0.0
C1382 C 0.71631 0.5289 0.55281 0.0
C1383 C 0.73056 0.55657 0.59808 0.0
C1384 C 0.7162 0.50339 0.53671 0.0
C1385 C 0.72852 0.47859 0.54882 0.0
C1386 C 0.7285 0.5294 0.58126 0.0
C1387 C 0.73896 0.47954 0.57788 0.0
C1388 C 0.73061 0.55657 0.62861 0.0
C1389 C 0.72892 0.60776 0.59778 0.0
N1390 N 0.73877 0.50458 0.59316 0.0
N1391 N 0.73058 0.58216 0.58371 0.0
H1392 H 0.85004 0.03077 0.62886 0.0
H1393 H 0.78039 0.04214 0.77952 0.0
H1394 H 0.89305 0.08885 0.68928 0.0
H1395 H 0.73644 0.06671 0.69902 0.0
H1396 H 0.82583 0.04527 0.75478 0.0
H1397 H 0.81231 0.02417 0.66372 0.0
C1398 C 0.85238 0.0408 0.65011 0.0
C1399 C 0.87468 0.06022 0.65634 0.0
C1400 C 0.80611 0.05032 0.74289 0.0
C1401 C 0.83159 0.05332 0.69577 0.0
C1402 C 0.7802 0.04899 0.75702 0.0
C1403 C 0.75424 0.05373 0.74132 0.0
C1404 C 0.8058 0.05557 0.71287 0.0
C1405 C 0.75562 0.06239 0.71209 0.0
C1406 C 0.83064 0.03748 0.66971 0.0
C1407 C 0.87624 0.07347 0.6839 0.0
N1408 N 0.78078 0.06221 0.69866 0.0
N1409 N 0.8547 0.07014 0.70255 0.0
H1410 H 0.32093 0.9254 0.66678 0.0
H1411 H 0.21699 0.98645 0.53988 0.0
H1412 H 0.26408 0.86988 0.61631 0.0
H1413 H 0.2923 0.02885 0.57629 0.0
H1414 H 0.22521 0.94658 0.57446 0.0
H1415 H 0.30004 0.96696 0.64217 0.0
C1416 C 0.30355 0.92209 0.65087 0.0
C1417 C 0.29439 0.89431 0.64322 0.0
C1418 C 0.2397 0.96479 0.57491 0.0
C1419 C 0.27099 0.94167 0.61422 0.0
C1420 C 0.23507 0.98746 0.55525 0.0
C1421 C 0.25425 0.01074 0.55497 0.0
C1422 C 0.2633 0.9659 0.59466 0.0
C1423 C 0.27725 0.01112 0.57536 0.0
C1424 C 0.29175 0.94577 0.63668 0.0
C1425 C 0.27166 0.89108 0.6227 0.0
N1426 N 0.2811 0.98908 0.59428 0.0
N1427 N 0.26103 0.91456 0.60836 0.0
H1428 H 0.81556 0.10872 0.51311 0.0
H1429 H 0.84202 0.26657 0.48752 0.0
H1430 H 0.90055 0.13993 0.49997 0.0
H1431 H 0.76287 0.22696 0.45764 0.0
H1432 H 0.86548 0.22006 0.4838 0.0
H1433 H 0.79649 0.1489 0.48441 0.0
C1434 C 0.83024 0.12332 0.50301 0.0
C1435 C 0.85963 0.12116 0.5091 0.0
C1436 C 0.84318 0.22168 0.4771 0.0
C1437 C 0.838 0.16802 0.47751 0.0
C1438 C 0.82979 0.24831 0.47917 0.0
C1439 C 0.80034 0.25058 0.47342 0.0
C1440 C 0.82681 0.19704 0.47006 0.0
C1441 C 0.78558 0.22619 0.46257 0.0
C1442 C 0.81937 0.14644 0.48678 0.0
C1443 C 0.87773 0.14085 0.49579 0.0
N1444 N 0.79875 0.20024 0.46217 0.0
N1445 N 0.86661 0.16406 0.48147 0.0
H1446 H 0.84942 0.89431 0.9515 0.0
H1447 H 0.7648 0.75353 0.90042 0.0
H1448 H 0.85891 0.85334 0.8682 0.0
H1449 H 0.7479 0.79941 0.97909 0.0
H1450 H 0.79296 0.7945 0.88423 0.0
H1451 H 0.80771 0.86379 0.95916 0.0
C1452 C 0.84265 0.87908 0.93472 0.0
C1453 C 0.85796 0.87625 0.90929 0.0
C1454 C 0.78234 0.79612 0.90461 0.0
C1455 C 0.8101 0.8412 0.9179 0.0
C1456 C 0.76577 0.7729 0.91355 0.0
C1457 C 0.75357 0.77336 0.94083 0.0
C1458 C 0.78731 0.81964 0.92347 0.0
C1459 C 0.75649 0.79851 0.95761 0.0
C1460 C 0.81872 0.86172 0.93905 0.0
C1461 C 0.84798 0.85622 0.88825 0.0
N1462 N 0.77354 0.8204 0.94897 0.0
N1463 N 0.82494 0.83934 0.89315 0.0
H1464 H 0.11441 0.87349 0.25296 0.0
H1465 H 0.94884 0.89241 0.27205 0.0
H1466 H 0.066 0.83435 0.32016 0.0
H1467 H 0.99163 0.92989 0.20013 0.0
H1468 H 0.98978 0.86209 0.28247 0.0
H1469 H 0.06938 0.88661 0.22698 0.0
C1470 C 0.09437 0.86705 0.26185 0.0
C1471 C 0.09389 0.85321 0.28895 0.0
C1472 C 0.99016 0.87632 0.26387 0.0
C1473 C 0.04253 0.86808 0.25959 0.0
C1474 C 0.9664 0.8933 0.25758 0.0
C1475 C 0.96656 0.91339 0.23491 0.0
C1476 C 0.01493 0.88018 0.24815 0.0
C1477 C 0.99049 0.91436 0.21757 0.0
C1478 C 0.06869 0.87462 0.24711 0.0
C1479 C 0.06737 0.84548 0.29959 0.0
N1480 N 0.01407 0.89856 0.22501 0.0
N1481 N 0.04291 0.85323 0.28509 0.0
H1482 H 0.19943 0.61529 0.97923 0.0
H1483 H 0.18908 0.75063 0.07533 0.0
H1484 H 0.12113 0.65228 0.00643 0.0
H1485 H 0.26782 0.71346 0.04974 0.0
H1486 H 0.16548 0.70419 0.06801 0.0
H1487 H 0.22498 0.63924 0.01997 0.0
C1488 C 0.18749 0.62759 0.99456 0.0
C1489 C 0.15823 0.63193 0.98959 0.0
C1490 C 0.18818 0.70573 0.06508 0.0
C1491 C 0.18735 0.66043 0.03545 0.0
C1492 C 0.20177 0.7322 0.06977 0.0
C1493 C 0.23029 0.7359 0.06267 0.0
C1494 C 0.20313 0.68316 0.05241 0.0
C1495 C 0.24572 0.71147 0.05528 0.0
C1496 C 0.20207 0.64138 0.01775 0.0
C1497 C 0.14371 0.64832 0.0097 0.0
N1498 N 0.23172 0.68633 0.04926 0.0
N1499 N 0.15851 0.66251 0.0314 0.0
H1500 H 0.39716 0.11842 0.87486 0.0
H1501 H 0.50176 0.08181 0.74952 0.0
H1502 H 0.40196 0.17018 0.79743 0.0
H1503 H 0.5112 0.04729 0.83655 0.0
H1504 H 0.46543 0.1146 0.76632 0.0
H1505 H 0.44003 0.09324 0.86164 0.0
C1506 C 0.4076 0.12479 0.85529 0.0
C1507 C 0.39601 0.14622 0.83708 0.0
C1508 C 0.47563 0.09997 0.78173 0.0
C1509 C 0.44466 0.11704 0.8214 0.0
C1510 C 0.49619 0.08106 0.77213 0.0
C1511 C 0.50939 0.06155 0.7916 0.0
C1512 C 0.46803 0.09915 0.81092 0.0
C1513 C 0.50152 0.06181 0.8207 0.0
C1514 C 0.43204 0.11039 0.84771 0.0
C1515 C 0.41035 0.15378 0.81204 0.0
N1516 N 0.48122 0.08016 0.82941 0.0
N1517 N 0.43374 0.13881 0.80462 0.0
H1518 H 0.62972 0.86884 0.0344 0.0
H1519 H 0.68318 0.73684 0.06378 0.0
H1520 H 0.69949 0.90161 0.08909 0.0
H1521 H 0.76577 0.77585 0.05398 0.0
H1522 H 0.66279 0.78467 0.06881 0.0
H1523 H 0.65413 0.82281 0.03178 0.0
C1524 C 0.65057 0.86676 0.04511 0.0
C1525 C 0.66225 0.88906 0.06251 0.0
C1526 C 0.68546 0.78269 0.06596 0.0
C1527 C 0.68989 0.83605 0.0602 0.0
C1528 C 0.69725 0.75539 0.06379 0.0
C1529 C 0.72618 0.75226 0.05799 0.0
C1530 C 0.70272 0.80709 0.06262 0.0
C1531 C 0.74336 0.77719 0.05834 0.0
C1532 C 0.66419 0.84023 0.04411 0.0
C1533 C 0.6895 0.88489 0.07575 0.0
N1534 N 0.73128 0.8037 0.06011 0.0
N1535 N 0.70232 0.85874 0.07459 0.0
H1536 H 0.1259 0.12429 0.21916 0.0
H1537 H 0.97395 0.05851 0.17762 0.0
H1538 H 0.06844 0.15995 0.15321 0.0
H1539 H 0.01485 0.0438 0.26209 0.0
H1540 H 0.0107 0.09368 0.16731 0.0
H1541 H 0.08704 0.09378 0.2356 0.0
C1542 C 0.10501 0.12622 0.20861 0.0
C1543 C 0.10044 0.14458 0.1847 0.0
C1544 C 0.01161 0.08285 0.18817 0.0
C1545 C 0.05635 0.10928 0.20274 0.0
C1546 C 0.99077 0.06255 0.19396 0.0
C1547 C 0.9914 0.04811 0.22072 0.0
C1548 C 0.03352 0.08855 0.20908 0.0
C1549 C 0.01358 0.05448 0.24118 0.0
C1550 C 0.08292 0.10865 0.21784 0.0
C1551 C 0.07303 0.14587 0.17151 0.0
N1552 N 0.03395 0.07414 0.23486 0.0
N1553 N 0.05214 0.12818 0.18047 0.0
H1554 H 0.88078 0.40656 0.24858 0.0
H1555 H 0.03896 0.41865 0.22154 0.0
H1556 H 0.92444 0.32985 0.22374 0.0
H1557 H 0.01059 0.45452 0.30176 0.0
H1558 H 0.99629 0.38765 0.21894 0.0
H1559 H 0.92648 0.42692 0.26721 0.0
C1560 C 0.89978 0.39352 0.24832 0.0
C1561 C 0.89883 0.36625 0.23532 0.0
C1562 C 0.99979 0.4019 0.23741 0.0
C1563 C 0.95114 0.39003 0.25454 0.0
C1564 C 0.02406 0.41956 0.23887 0.0
C1565 C 0.02839 0.439 0.26198 0.0
C1566 C 0.97922 0.40457 0.25858 0.0
C1567 C 0.00822 0.43957 0.28374 0.0
C1568 C 0.92585 0.40523 0.2586 0.0
C1569 C 0.92426 0.35067 0.23432 0.0
N1570 N 0.98415 0.42315 0.28116 0.0
N1571 N 0.94952 0.36307 0.24299 0.0
H1572 H 0.24402 0.18962 0.88512 0.0
H1573 H 0.09983 0.18268 0.86487 0.0
H1574 H 0.22861 0.27634 0.85536 0.0
H1575 H 0.09791 0.27133 0.89231 0.0
H1576 H 0.15145 0.1826 0.87434 0.0
H1577 H 0.19545 0.1874 0.90218 0.0
C1578 C 0.23076 0.20853 0.88301 0.0
C1579 C 0.23998 0.23294 0.86802 0.0
C1580 C 0.13962 0.20176 0.8793 0.0
C1581 C 0.18459 0.23025 0.88693 0.0
C1582 C 0.11025 0.20187 0.87355 0.0
C1583 C 0.09478 0.22705 0.87772 0.0
C1584 C 0.15352 0.22723 0.88855 0.0
C1585 C 0.10916 0.25145 0.88887 0.0
C1586 C 0.20297 0.20707 0.89244 0.0
C1587 C 0.22203 0.25687 0.86616 0.0
N1588 N 0.13789 0.25117 0.8932 0.0
N1589 N 0.19494 0.25477 0.87506 0.0
H1590 H 0.47363 0.50669 0.36266 0.0
H1591 H 0.45652 0.67567 0.34715 0.0
H1592 H 0.40915 0.55268 0.40735 0.0
H1593 H 0.53306 0.63805 0.3849 0.0
H1594 H 0.43568 0.62723 0.34145 0.0
H1595 H 0.49078 0.55257 0.34306 0.0
C1596 C 0.46228 0.52629 0.36719 0.0
C1597 C 0.44007 0.52618 0.38663 0.0
C1598 C 0.45743 0.62968 0.34988 0.0
C1599 C 0.45903 0.57798 0.36401 0.0
C1600 C 0.46937 0.65714 0.35303 0.0
C1601 C 0.49641 0.66063 0.36672 0.0
C1602 C 0.47311 0.6058 0.35963 0.0
C1603 C 0.51209 0.63609 0.3744 0.0
C1604 C 0.47215 0.55231 0.35616 0.0
C1605 C 0.42636 0.55207 0.39241 0.0
N1606 N 0.50009 0.6096 0.37096 0.0
N1607 N 0.43622 0.57709 0.3813 0.0
H1608 H 0.78632 0.32023 0.77481 0.0
H1609 H 0.90504 0.32544 0.90398 0.0
H1610 H 0.76745 0.34217 0.86309 0.0
H1611 H 0.9158 0.2838 0.8212 0.0
H1612 H 0.85721 0.33982 0.88744 0.0
H1613 H 0.83662 0.31691 0.7893 0.0
C1614 C 0.79288 0.32498 0.79718 0.0
C1615 C 0.77266 0.33117 0.81789 0.0
C1616 C 0.8701 0.32766 0.87288 0.0
C1617 C 0.83024 0.32684 0.83473 0.0
C1618 C 0.89743 0.31936 0.88226 0.0
C1619 C 0.91455 0.30323 0.86396 0.0
C1620 C 0.85979 0.32001 0.84489 0.0
C1621 C 0.90343 0.29607 0.8361 0.0
C1622 C 0.82159 0.32285 0.80546 0.0
C1623 C 0.78237 0.33739 0.84646 0.0
N1624 N 0.87677 0.30451 0.82743 0.0
N1625 N 0.81052 0.33464 0.85418 0.0
H1626 H 0.59302 0.97183 0.4532 0.0
H1627 H 0.51414 0.87838 0.32823 0.0
H1628 H 0.56176 0.00762 0.37166 0.0
H1629 H 0.54599 0.8435 0.41018 0.0
H1630 H 0.53366 0.92524 0.3424 0.0
H1631 H 0.58076 0.92381 0.43529 0.0
C1632 C 0.58426 0.96943 0.43115 0.0
C1633 C 0.57822 0.99365 0.41389 0.0
C1634 C 0.53635 0.90736 0.35731 0.0
C1635 C 0.56319 0.93884 0.39359 0.0
C1636 C 0.525 0.88059 0.34936 0.0
C1637 C 0.52836 0.85686 0.36807 0.0
C1638 C 0.55121 0.91056 0.3842 0.0
C1639 C 0.54269 0.86114 0.39512 0.0
C1640 C 0.57697 0.94204 0.42106 0.0
C1641 C 0.56686 0.98944 0.38556 0.0
N1642 N 0.55364 0.88744 0.40232 0.0
N1643 N 0.55922 0.96252 0.37643 0.0
H1644 H 0.21689 0.85761 0.70778 0.0
H1645 H 0.0793 0.86116 0.65966 0.0
H1646 H 0.23689 0.81508 0.62804 0.0
H1647 H 0.10195 0.78236 0.61708 0.0
H1648 H 0.12906 0.87651 0.66002 0.0
H1649 H 0.16781 0.86291 0.68957 0.0
C1650 C 0.21108 0.85048 0.68587 0.0
C1651 C 0.23083 0.83615 0.66924 0.0
C1652 C 0.12315 0.85597 0.65036 0.0
C1653 C 0.17446 0.84132 0.64835 0.0
C1654 C 0.0947 0.84729 0.6499 0.0
C1655 C 0.08664 0.82005 0.63912 0.0
C1656 C 0.1438 0.83704 0.6405 0.0
C1657 C 0.10735 0.80332 0.62606 0.0
C1658 C 0.18302 0.8535 0.67537 0.0
C1659 C 0.22221 0.8266 0.64128 0.0
N1660 N 0.13518 0.8118 0.62772 0.0
N1661 N 0.19439 0.82859 0.632 0.0
H1662 H 0.0659 0.53866 0.55538 0.0
H1663 H 0.04708 0.64759 0.68687 0.0
H1664 H 0.0713 0.51343 0.64567 0.0
H1665 H 0.0396 0.67339 0.59665 0.0
H1666 H 0.05992 0.59971 0.67199 0.0
H1667 H 0.06141 0.58867 0.57006 0.0
C1668 C 0.06653 0.5437 0.57841 0.0
C1669 C 0.06865 0.52171 0.59937 0.0
C1670 C 0.05556 0.61574 0.65536 0.0
C1671 C 0.06315 0.57927 0.61631 0.0
C1672 C 0.04806 0.64331 0.66378 0.0
C1673 C 0.04186 0.66484 0.64296 0.0
C1674 C 0.05694 0.60917 0.62577 0.0
C1675 C 0.04394 0.65759 0.61349 0.0
C1676 C 0.06387 0.57234 0.58672 0.0
C1677 C 0.06968 0.52963 0.6288 0.0
N1678 N 0.05116 0.63031 0.60577 0.0
N1679 N 0.06656 0.55776 0.6364 0.0
H1680 H 0.77771 0.66214 0.63771 0.0
H1681 H 0.92838 0.72813 0.69258 0.0
H1682 H 0.79206 0.716 0.71353 0.0
H1683 H 0.91812 0.67487 0.61585 0.0
H1684 H 0.87918 0.71792 0.70373 0.0
H1685 H 0.82963 0.6612 0.63174 0.0
C1686 C 0.7917 0.67353 0.65315 0.0
C1687 C 0.78049 0.68959 0.6758 0.0
C1688 C 0.88772 0.70816 0.68458 0.0
C1689 C 0.8395 0.68844 0.66936 0.0
C1690 C 0.91596 0.71392 0.67831 0.0
C1691 C 0.92744 0.70261 0.65313 0.0
C1692 C 0.87059 0.69123 0.66536 0.0
C1693 C 0.91017 0.68423 0.63546 0.0
C1694 C 0.82127 0.673 0.64978 0.0
C1695 C 0.79959 0.70379 0.69535 0.0
N1696 N 0.88249 0.67944 0.64168 0.0
N1697 N 0.82797 0.70299 0.69158 0.0
H1698 H 0.90063 0.98757 0.61428 0.0
H1699 H 0.00752 0.86324 0.6681 0.0
H1700 H 0.9878 0.00201 0.6437 0.0
H1701 H 0.92782 0.84878 0.62059 0.0
H1702 H 0.99498 0.91429 0.67325 0.0
H1703 H 0.90451 0.93749 0.63095 0.0
C1704 C 0.9202 0.98054 0.62526 0.0
C1705 C 0.94401 0.99887 0.62734 0.0
C1706 C 0.97989 0.89976 0.66238 0.0
C1707 C 0.94886 0.94155 0.64591 0.0
C1708 C 0.98697 0.8706 0.65972 0.0
C1709 C 0.96863 0.85186 0.64397 0.0
C1710 C 0.95431 0.9101 0.64923 0.0
C1711 C 0.9425 0.86261 0.63294 0.0
C1712 C 0.92256 0.95185 0.63446 0.0
C1713 C 0.96899 0.98848 0.64145 0.0
N1714 N 0.93625 0.89098 0.6355 0.0
N1715 N 0.97092 0.96048 0.64977 0.0
H1716 H 0.77268 0.20225 0.17641 0.0
H1717 H 0.89238 0.08207 0.17131 0.0
H1718 H 0.86181 0.22222 0.16811 0.0
H1719 H 0.81332 0.07037 0.21464 0.0
H1720 H 0.87805 0.13082 0.15827 0.0
H1721 H 0.78417 0.1512 0.17759 0.0
C1722 C 0.79463 0.19593 0.17416 0.0
C1723 C 0.81639 0.21666 0.17241 0.0
C1724 C 0.86378 0.11748 0.17042 0.0
C1725 C 0.82955 0.15819 0.17385 0.0
C1726 C 0.87184 0.0896 0.17786 0.0
C1727 C 0.85406 0.07209 0.1943 0.0
C1728 C 0.83757 0.1279 0.17912 0.0
C1729 C 0.82777 0.08315 0.20217 0.0
C1730 C 0.80112 0.16677 0.17502 0.0
C1731 C 0.84435 0.2071 0.16932 0.0
N1732 N 0.82032 0.11041 0.19451 0.0
N1733 N 0.85019 0.1785 0.17043 0.0
H1734 H 0.5011 0.85896 0.06493 0.0
H1735 H 0.33802 0.89174 0.08661 0.0
H1736 H 0.46845 0.92396 0.12111 0.0
H1737 H 0.36871 0.84297 0.01484 0.0
H1738 H 0.3849 0.88812 0.11141 0.0
H1739 H 0.45288 0.83837 0.05873 0.0
C1740 C 0.48399 0.86805 0.07699 0.0
C1741 C 0.48849 0.8932 0.09342 0.0
C1742 C 0.38126 0.87748 0.09061 0.0
C1743 C 0.43361 0.87028 0.08614 0.0
C1744 C 0.35448 0.87939 0.07659 0.0
C1745 C 0.34977 0.86771 0.04874 0.0
C1746 C 0.40365 0.86443 0.07629 0.0
C1747 C 0.37168 0.85217 0.03641 0.0
C1748 C 0.45648 0.85651 0.07323 0.0
C1749 C 0.46569 0.90456 0.10821 0.0
N1750 N 0.39798 0.85149 0.05001 0.0
N1751 N 0.43916 0.89327 0.10391 0.0
H1752 H 0.13173 0.26962 0.22776 0.0
H1753 H 0.09924 0.41214 0.23769 0.0
H1754 H 0.16519 0.28825 0.14398 0.0
H1755 H 0.15331 0.42172 0.16467 0.0
H1756 H 0.09435 0.36102 0.22654 0.0
H1757 H 0.11284 0.31786 0.22982 0.0
C1758 C 0.13445 0.28381 0.20939 0.0
C1759 C 0.15014 0.27502 0.1857 0.0
C1760 C 0.10738 0.37415 0.21293 0.0
C1761 C 0.12831 0.3308 0.18766 0.0
C1762 C 0.10975 0.40357 0.21906 0.0
C1763 C 0.12758 0.42104 0.20278 0.0
C1764 C 0.12335 0.36219 0.19065 0.0
C1765 C 0.1401 0.40888 0.17845 0.0
C1766 C 0.12337 0.31149 0.21042 0.0
C1767 C 0.15297 0.29412 0.16249 0.0
N1768 N 0.13824 0.38017 0.17352 0.0
N1769 N 0.14263 0.32131 0.1643 0.0
H1770 H 0.52613 0.62345 0.09678 0.0
H1771 H 0.66255 0.65989 0.0512 0.0
H1772 H 0.49969 0.63269 0.00655 0.0
H1773 H 0.62849 0.62265 0.97123 0.0
H1774 H 0.61364 0.66551 0.06772 0.0
H1775 H 0.57425 0.63964 0.08497 0.0
C1776 C 0.53006 0.63034 0.0748 0.0
C1777 C 0.50884 0.62698 0.05265 0.0
C1778 C 0.61686 0.65653 0.04639 0.0
C1779 C 0.56394 0.64463 0.03869 0.0
C1780 C 0.64473 0.65377 0.03676 0.0
C1781 C 0.64951 0.64083 0.00978 0.0
C1782 C 0.5937 0.64656 0.02868 0.0
C1783 C 0.62573 0.63277 0.99215 0.0
C1784 C 0.55765 0.63936 0.06795 0.0
C1785 C 0.51539 0.63519 0.02431 0.0
N1786 N 0.59898 0.63569 0.00191 0.0
N1787 N 0.54239 0.64294 0.01806 0.0
H1788 H 0.86973 0.75548 0.242 0.0
H1789 H 0.86691 0.89319 0.32985 0.0
H1790 H 0.88348 0.75405 0.33513 0.0
H1791 H 0.89392 0.89365 0.24133 0.0
H1792 H 0.87992 0.8424 0.33361 0.0
H1793 H 0.88813 0.8046 0.24117 0.0
C1794 C 0.87807 0.76508 0.26211 0.0
C1795 C 0.87483 0.75104 0.28869 0.0
C1796 C 0.88369 0.85379 0.3136 0.0
C1797 C 0.89411 0.80763 0.28824 0.0
C1798 C 0.876 0.88267 0.31139 0.0
C1799 C 0.87897 0.89742 0.28514 0.0
C1800 C 0.89362 0.83944 0.2891 0.0
C1801 C 0.89107 0.88296 0.26192 0.0
C1802 C 0.88826 0.79327 0.26174 0.0
C1803 C 0.88559 0.76437 0.31421 0.0
N1804 N 0.89739 0.85459 0.26422 0.0
N1805 N 0.89373 0.79245 0.31355 0.0
H1806 H 0.01574 0.87158 0.92504 0.0
H1807 H 0.17617 0.91224 0.976 0.0
H1808 H 0.04525 0.95699 0.94822 0.0
H1809 H 0.14987 0.82611 0.9515 0.0
H1810 H 0.12886 0.92936 0.96127 0.0
H1811 H 0.06515 0.85462 0.93026 0.0
C1812 C 0.03253 0.88679 0.93088 0.0
C1813 C 0.02623 0.91569 0.93643 0.0
C1814 C 0.13347 0.90672 0.95886 0.0
C1815 C 0.08262 0.89652 0.94259 0.0
C1816 C 0.16062 0.89695 0.96719 0.0
C1817 C 0.1671 0.86764 0.9652 0.0
C1818 C 0.11245 0.88708 0.94864 0.0
C1819 C 0.14587 0.84889 0.95361 0.0
C1820 C 0.06072 0.87711 0.93397 0.0
C1821 C 0.04892 0.93442 0.94411 0.0
N1822 N 0.11945 0.85887 0.94604 0.0
N1823 N 0.07592 0.92451 0.94709 0.0
H1824 H 0.2241 0.71977 0.33647 0.0
H1825 H 0.11556 0.58863 0.34703 0.0
H1826 H 0.13413 0.73116 0.34628 0.0
H1827 H 0.19189 0.58603 0.29782 0.0
H1828 H 0.12755 0.6375 0.36222 0.0
H1829 H 0.21753 0.6677 0.33942 0.0
C1830 C 0.20311 0.71126 0.34055 0.0
C1831 C 0.17959 0.72966 0.34125 0.0
C1832 C 0.14185 0.62605 0.34847 0.0
C1833 C 0.17188 0.67024 0.34386 0.0
C1834 C 0.13515 0.59806 0.33974 0.0
C1835 C 0.15262 0.58314 0.32071 0.0
C1836 C 0.16641 0.63926 0.33855 0.0
C1837 C 0.17769 0.5967 0.31224 0.0
C1838 C 0.19937 0.68159 0.34181 0.0
C1839 C 0.15281 0.71768 0.34608 0.0
N1840 N 0.18376 0.62411 0.32111 0.0
N1841 N 0.14956 0.68855 0.34677 0.0
H1842 H 0.96734 0.56645 0.92075 0.0
H1843 H 0.86656 0.67469 0.00231 0.0
H1844 H 0.99599 0.64811 0.95553 0.0
H1845 H 0.83374 0.60054 0.95504 0.0
H1846 H 0.91387 0.66452 0.98572 0.0
H1847 H 0.91829 0.57901 0.93097 0.0
C1848 C 0.96313 0.5875 0.92967 0.0
C1849 C 0.98576 0.60642 0.937 0.0
C1850 C 0.89642 0.65039 0.97895 0.0
C1851 C 0.92963 0.62046 0.95004 0.0
C1852 C 0.86926 0.65602 0.98862 0.0
C1853 C 0.84582 0.63848 0.98008 0.0
C1854 C 0.90064 0.62687 0.96058 0.0
C1855 C 0.85104 0.61459 0.96238 0.0
C1856 C 0.93513 0.5945 0.93584 0.0
C1857 C 0.97917 0.63312 0.94906 0.0
N1858 N 0.87785 0.60952 0.9532 0.0
N1859 N 0.95177 0.63916 0.95562 0.0
H1860 H 0.14612 0.8182 0.19891 0.0
H1861 H 0.27292 0.87702 0.13264 0.0
H1862 H 0.19137 0.88374 0.24865 0.0
H1863 H 0.19602 0.88192 0.07855 0.0
H1864 H 0.24413 0.87934 0.17596 0.0
H1865 H 0.16158 0.84078 0.15398 0.0
C1866 C 0.15807 0.83818 0.20027 0.0
C1867 C 0.16739 0.84923 0.22743 0.0
C1868 C 0.23367 0.88085 0.15458 0.0
C1869 C 0.18653 0.87396 0.17651 0.0
C1870 C 0.25006 0.87952 0.12995 0.0
C1871 C 0.23678 0.87948 0.10212 0.0
C1872 C 0.20382 0.88083 0.15126 0.0
C1873 C 0.20702 0.88223 0.09972 0.0
C1874 C 0.16712 0.8509 0.1747 0.0
C1875 C 0.18352 0.87476 0.22808 0.0
N1876 N 0.1914 0.88184 0.124 0.0
N1877 N 0.1936 0.88563 0.20302 0.0
H1878 H 0.21667 0.11578 0.24824 0.0
H1879 H 0.23567 0.10466 0.39524 0.0
H1880 H 0.14029 0.16261 0.26442 0.0
H1881 H 0.16259 0.16005 0.3981 0.0
H1882 H 0.22258 0.09315 0.34474 0.0
H1883 H 0.2181 0.09842 0.29794 0.0
C1884 C 0.19939 0.12127 0.2621 0.0
C1885 C 0.17844 0.14072 0.25246 0.0
C1886 C 0.20924 0.1078 0.35617 0.0
C1887 C 0.18055 0.12229 0.3102 0.0
C1888 C 0.2167 0.11418 0.38526 0.0
C1889 C 0.20073 0.134 0.40062 0.0
C1890 C 0.18578 0.12172 0.34232 0.0
C1891 C 0.1761 0.14534 0.38682 0.0
C1892 C 0.20038 0.11167 0.29083 0.0
C1893 C 0.15676 0.14755 0.27113 0.0
N1894 N 0.16968 0.13939 0.35843 0.0
N1895 N 0.15878 0.13894 0.29938 0.0
H1896 H 0.39735 0.58719 0.96805 0.0
H1897 H 0.37756 0.4628 0.85073 0.0
H1898 H 0.40461 0.49708 0.98831 0.0
H1899 H 0.36229 0.55201 0.83131 0.0
H1900 H 0.37923 0.47422 0.90275 0.0
H1901 H 0.37711 0.57467 0.91982 0.0
C1902 C 0.39385 0.56481 0.96268 0.0
C1903 C 0.40232 0.54321 0.98236 0.0
C1904 C 0.37477 0.49126 0.88724 0.0
C1905 C 0.38016 0.52853 0.92678 0.0
C1906 C 0.37351 0.48464 0.8576 0.0
C1907 C 0.36945 0.50649 0.83699 0.0
C1908 C 0.3727 0.52007 0.8962 0.0
C1909 C 0.36505 0.53458 0.84674 0.0
C1910 C 0.3826 0.55761 0.93499 0.0
C1911 C 0.3985 0.51444 0.97374 0.0
N1912 N 0.36727 0.54069 0.87569 0.0
N1913 N 0.38794 0.50796 0.94656 0.0
H1914 H 0.83962 0.27089 0.29978 0.0
H1915 H 0.79447 0.31235 0.436 0.0
H1916 H 0.83197 0.36048 0.27737 0.0
H1917 H 0.75373 0.37908 0.38429 0.0
H1918 H 0.82421 0.30116 0.39526 0.0
H1919 H 0.82749 0.28213 0.34942 0.0
C1920 C 0.83685 0.2932 0.30583 0.0
C1921 C 0.83638 0.31478 0.28456 0.0
C1922 C 0.80848 0.31794 0.39272 0.0
C1923 C 0.82173 0.32779 0.34095 0.0
C1924 C 0.79129 0.32422 0.41591 0.0
C1925 C 0.77118 0.34641 0.4135 0.0
C1926 C 0.80554 0.33405 0.36698 0.0
C1927 C 0.76861 0.36155 0.38713 0.0
C1928 C 0.8297 0.29962 0.33417 0.0
C1929 C 0.83243 0.34326 0.29322 0.0
N1930 N 0.78568 0.35516 0.36501 0.0
N1931 N 0.82425 0.34885 0.32063 0.0
H1932 H 0.13393 0.43423 0.50775 0.0
H1933 H 0.09692 0.46117 0.33855 0.0
H1934 H 0.05111 0.41942 0.4661 0.0
H1935 H 0.18112 0.47264 0.37833 0.0
H1936 H 0.08037 0.44378 0.38499 0.0
H1937 H 0.1529 0.4444 0.45995 0.0
C1938 C 0.1199 0.43252 0.48853 0.0
C1939 C 0.09083 0.42638 0.49093 0.0
C1940 C 0.10249 0.45009 0.38356 0.0
C1941 C 0.11215 0.43849 0.43643 0.0
C1942 C 0.11188 0.46027 0.35707 0.0
C1943 C 0.14041 0.46856 0.35451 0.0
C1944 C 0.12172 0.44824 0.40773 0.0
C1945 C 0.15891 0.46655 0.37925 0.0
C1946 C 0.13065 0.43858 0.46129 0.0
C1947 C 0.07358 0.42449 0.46531 0.0
N1948 N 0.14923 0.45665 0.40481 0.0
N1949 N 0.08442 0.43085 0.43921 0.0
H1950 H 0.24293 0.19709 0.7269 0.0
H1951 H 0.31325 0.11146 0.59762 0.0
H1952 H 0.31356 0.13943 0.74121 0.0
H1953 H 0.24913 0.17696 0.58552 0.0
H1954 H 0.31154 0.11795 0.65028 0.0
H1955 H 0.24077 0.18414 0.67552 0.0
C1956 C 0.25752 0.18107 0.71927 0.0
C1957 C 0.27854 0.16939 0.73821 0.0
C1958 C 0.29796 0.13096 0.63607 0.0
C1959 C 0.27691 0.15521 0.67916 0.0
C1960 C 0.29907 0.12748 0.60596 0.0
C1961 C 0.28135 0.14377 0.58699 0.0
C1962 C 0.2789 0.15077 0.64734 0.0
C1963 C 0.26332 0.16404 0.59916 0.0
C1964 C 0.25652 0.17394 0.68986 0.0
C1965 C 0.29695 0.14878 0.72728 0.0
N1966 N 0.26249 0.16684 0.62851 0.0
N1967 N 0.29602 0.14265 0.69827 0.0
H1968 H 0.41646 0.39708 0.51681 0.0
H1969 H 0.31031 0.47616 0.6221 0.0
H1970 H 0.35162 0.45563 0.48568 0.0
H1971 H 0.38925 0.43699 0.65179 0.0
H1972 H 0.31976 0.46183 0.57232 0.0
H1973 H 0.39956 0.40215 0.56618 0.0
C1974 C 0.39764 0.40982 0.52015 0.0
C1975 C 0.38506 0.42553 0.49702 0.0
C1976 C 0.33501 0.45634 0.5897 0.0
C1977 C 0.36651 0.43269 0.55377 0.0
C1978 C 0.32973 0.46462 0.61819 0.0
C1979 C 0.34909 0.45792 0.64132 0.0
C1980 C 0.35972 0.44089 0.58408 0.0
C1981 C 0.37384 0.44288 0.63472 0.0
C1982 C 0.38844 0.41326 0.54847 0.0
C1983 C 0.36148 0.44263 0.50277 0.0
N1984 N 0.37838 0.43479 0.60677 0.0
N1985 N 0.35319 0.44609 0.53063 0.0
H1986 H 0.64211 0.05941 0.51637 0.0
H1987 H 0.60833 0.08632 0.68188 0.0
H1988 H 0.58014 0.11832 0.54794 0.0
H1989 H 0.65072 0.01066 0.652 0.0
H1990 H 0.61403 0.10867 0.63448 0.0
H1991 H 0.66055 0.05215 0.56673 0.0
C1992 C 0.63325 0.07171 0.53382 0.0
C1993 C 0.60955 0.08932 0.52835 0.0
C1994 C 0.62265 0.08741 0.63836 0.0
C1995 C 0.63009 0.08103 0.58541 0.0
C1996 C 0.61942 0.07471 0.66537 0.0
C1997 C 0.62874 0.0466 0.67043 0.0
C1998 C 0.63458 0.07155 0.61597 0.0
C1999 C 0.64314 0.03238 0.64863 0.0
C2000 C 0.64357 0.06739 0.56247 0.0
C2001 C 0.59839 0.10447 0.55149 0.0
N2002 N 0.64508 0.0448 0.62194 0.0
N2003 N 0.60856 0.09976 0.57905 0.0
H2004 H 0.74502 0.76672 0.36264 0.0
H2005 H 0.60701 0.67997 0.36216 0.0
H2006 H 0.74693 0.67552 0.3789 0.0
H2007 H 0.60849 0.76735 0.39364 0.0
H2008 H 0.65847 0.67723 0.3722 0.0
H2009 H 0.69648 0.76825 0.37968 0.0
C2010 C 0.73559 0.74723 0.37096 0.0
C2011 C 0.74979 0.72091 0.3691 0.0
C2012 C 0.64746 0.69679 0.37757 0.0
C2013 C 0.69394 0.72223 0.38725 0.0
C2014 C 0.61815 0.69841 0.37163 0.0
C2015 C 0.60363 0.72401 0.37678 0.0
C2016 C 0.66245 0.72124 0.38786 0.0
C2017 C 0.61897 0.74725 0.38923 0.0
C2018 C 0.70782 0.74805 0.38052 0.0
C2019 C 0.73663 0.69624 0.37995 0.0
N2020 N 0.6477 0.74555 0.39372 0.0
N2021 N 0.70902 0.69728 0.38764 0.0
H2022 H 0.9038 0.04115 0.88971 0.0
H2023 H 0.95209 0.17424 0.84454 0.0
H2024 H 0.98758 0.01034 0.87236 0.0
H2025 H 0.02686 0.14219 0.89101 0.0
H2026 H 0.93537 0.12441 0.837 0.0
H2027 H 0.91718 0.08863 0.87126 0.0
C2028 C 0.92456 0.04412 0.88071 0.0
C2029 C 0.94456 0.02195 0.8821 0.0
C2030 C 0.9557 0.12838 0.84828 0.0
C2031 C 0.96039 0.07609 0.86216 0.0
C2032 C 0.96536 0.15668 0.85237 0.0
C2033 C 0.99065 0.16217 0.8688 0.0
C2034 C 0.97181 0.10565 0.86028 0.0
C2035 C 0.00704 0.13878 0.87858 0.0
C2036 C 0.93223 0.07117 0.87024 0.0
C2037 C 0.97152 0.02693 0.87115 0.0
N2038 N 0.99725 0.11151 0.87432 0.0
N2039 N 0.97897 0.05375 0.86245 0.0
H2040 H 0.27331 0.84247 0.36619 0.0
H2041 H 0.42207 0.77796 0.32174 0.0
H2042 H 0.29208 0.81764 0.27865 0.0
H2043 H 0.41227 0.82349 0.40254 0.0
H2044 H 0.37396 0.79226 0.30604 0.0
H2045 H 0.32409 0.83747 0.38027 0.0
C2046 C 0.28817 0.83676 0.34979 0.0
C2047 C 0.2784 0.83018 0.3213 0.0
C2048 C 0.38242 0.79931 0.32714 0.0
C2049 C 0.33615 0.82361 0.33733 0.0
C2050 C 0.40993 0.79104 0.33614 0.0
C2051 C 0.42144 0.79956 0.36344 0.0
C2052 C 0.36603 0.81593 0.34571 0.0
C2053 C 0.40441 0.8164 0.38125 0.0
C2054 C 0.3171 0.8336 0.35787 0.0
C2055 C 0.29859 0.82255 0.30098 0.0
N2056 N 0.37756 0.82386 0.37217 0.0
N2057 N 0.32633 0.81907 0.30946 0.0
H2058 H 0.09459 0.47194 0.94987 0.0
H2059 H 0.00868 0.3806 0.82769 0.0
H2060 H 0.05979 0.50911 0.87041 0.0
H2061 H 0.04128 0.34528 0.90912 0.0
H2062 H 0.02961 0.42705 0.84128 0.0
H2063 H 0.08023 0.42435 0.93228 0.0
C2064 C 0.08463 0.46992 0.92828 0.0
C2065 C 0.07826 0.49444 0.91157 0.0
C2066 C 0.03213 0.40918 0.85622 0.0
C2067 C 0.06077 0.4401 0.89171 0.0
C2068 C 0.01998 0.38264 0.84861 0.0
C2069 C 0.02315 0.35888 0.86733 0.0
C2070 C 0.04767 0.41212 0.88276 0.0
C2071 C 0.03808 0.36295 0.89409 0.0
C2072 C 0.0761 0.44277 0.9184 0.0
C2073 C 0.06524 0.4907 0.88385 0.0
N2074 N 0.04986 0.38901 0.90093 0.0
N2075 N 0.05646 0.46402 0.87495 0.0
H2076 H 0.74259 0.32016 0.12803 0.0
H2077 H 0.58453 0.36045 0.16792 0.0
H2078 H 0.71886 0.36313 0.20635 0.0
H2079 H 0.60443 0.28727 0.11481 0.0
H2080 H 0.63404 0.3761 0.16709 0.0
H2081 H 0.69285 0.32291 0.10933 0.0
C2082 C 0.72714 0.33134 0.14067 0.0
C2083 C 0.73458 0.34135 0.16878 0.0
C2084 C 0.62747 0.35695 0.15511 0.0
C2085 C 0.67815 0.34443 0.14775 0.0
C2086 C 0.59921 0.34792 0.15558 0.0
C2087 C 0.59052 0.32198 0.14219 0.0
C2088 C 0.64732 0.33993 0.14122 0.0
C2089 C 0.61035 0.30712 0.12589 0.0
C2090 C 0.6988 0.33261 0.13014 0.0
C2091 C 0.71384 0.35516 0.18459 0.0
N2092 N 0.63808 0.31598 0.12638 0.0
N2093 N 0.68648 0.35604 0.17398 0.0
H2094 H 0.57339 0.0146 0.14789 0.0
H2095 H 0.54412 0.17765 0.09623 0.0
H2096 H 0.57131 0.04174 0.05817 0.0
H2097 H 0.53986 0.1479 0.18494 0.0
H2098 H 0.5589 0.12911 0.08204 0.0
H2099 H 0.56743 0.06501 0.16255 0.0
C2100 C 0.57233 0.03118 0.13137 0.0
C2101 C 0.57253 0.02392 0.1018 0.0
C2102 C 0.55477 0.13337 0.10462 0.0
C2103 C 0.56519 0.08146 0.11819 0.0
C2104 C 0.54622 0.16106 0.11268 0.0
C2105 C 0.54044 0.16703 0.14176 0.0
C2106 C 0.5577 0.11157 0.12583 0.0
C2107 C 0.5438 0.14455 0.16217 0.0
C2108 C 0.56863 0.05993 0.13965 0.0
C2109 C 0.57087 0.04633 0.08124 0.0
N2110 N 0.55211 0.11802 0.15383 0.0
N2111 N 0.56701 0.07394 0.08976 0.0
H2112 H 0.29108 0.2192 0.20965 0.0
H2113 H 0.41934 0.18092 0.10864 0.0
H2114 H 0.27828 0.17088 0.12993 0.0
H2115 H 0.42606 0.23476 0.18519 0.0
H2116 H 0.36954 0.17091 0.11877 0.0
H2117 H 0.34188 0.21857 0.20373 0.0
C2118 C 0.299 0.20844 0.19073 0.0
C2119 C 0.28031 0.19559 0.16988 0.0
C2120 C 0.38207 0.18459 0.13352 0.0
C2121 C 0.33911 0.1949 0.1629 0.0
C2122 C 0.41057 0.19028 0.12787 0.0
C2123 C 0.42701 0.2089 0.14607 0.0
C2124 C 0.36997 0.19752 0.15759 0.0
C2125 C 0.41439 0.22034 0.17056 0.0
C2126 C 0.32817 0.20802 0.18744 0.0
C2127 C 0.29197 0.18131 0.14631 0.0
N2128 N 0.38665 0.21462 0.17545 0.0
N2129 N 0.32075 0.18167 0.14321 0.0
H2130 H 0.48999 0.51009 0.13826 0.0
H2131 H 0.43206 0.34941 0.13139 0.0
H2132 H 0.40477 0.48736 0.10818 0.0
H2133 H 0.51843 0.37325 0.15566 0.0
H2134 H 0.4181 0.39998 0.13478 0.0
H2135 H 0.49659 0.46149 0.15712 0.0
C2136 C 0.47231 0.49504 0.13645 0.0
C2137 C 0.44686 0.50271 0.12143 0.0
C2138 C 0.43994 0.39415 0.14021 0.0
C2139 C 0.45463 0.44647 0.14213 0.0
C2140 C 0.44785 0.36525 0.13857 0.0
C2141 C 0.47633 0.3572 0.14372 0.0
C2142 C 0.46081 0.41525 0.14656 0.0
C2143 C 0.49617 0.37856 0.15205 0.0
C2144 C 0.47618 0.46716 0.14702 0.0
C2145 C 0.4247 0.48235 0.11966 0.0
N2146 N 0.48812 0.40664 0.15285 0.0
N2147 N 0.42931 0.45494 0.12929 0.0
H2148 H 0.3586 0.71843 0.66185 0.0
H2149 H 0.30769 0.56374 0.70963 0.0
H2150 H 0.27203 0.6985 0.683 0.0
H2151 H 0.38467 0.577 0.66313 0.0
H2152 H 0.29375 0.61309 0.69825 0.0
H2153 H 0.36829 0.66671 0.65918 0.0
C2154 C 0.3415 0.70325 0.66525 0.0
C2155 C 0.31464 0.71277 0.67315 0.0
C2156 C 0.31353 0.60508 0.69021 0.0
C2157 C 0.32563 0.65386 0.67074 0.0
C2158 C 0.32152 0.57691 0.69679 0.0
C2159 C 0.34745 0.56625 0.68752 0.0
C2160 C 0.33184 0.62289 0.67466 0.0
C2161 C 0.36449 0.58431 0.67081 0.0
C2162 C 0.34705 0.67375 0.66389 0.0
C2163 C 0.29324 0.69214 0.6774 0.0
N2164 N 0.35658 0.61186 0.66527 0.0
N2165 N 0.29932 0.66372 0.67661 0.0
H2166 H 0.99923 0.3538 0.56862 0.0
H2167 H 0.86203 0.33458 0.51628 0.0
H2168 H 0.96254 0.42353 0.61568 0.0
H2169 H 0.83723 0.38821 0.58711 0.0
H2170 H 0.9099 0.33129 0.53882 0.0
H2171 H 0.95205 0.33106 0.56341 0.0
C2172 C 0.98133 0.36378 0.57868 0.0
C2173 C 0.98451 0.39065 0.59232 0.0
C2174 C 0.89386 0.34275 0.55029 0.0
C2175 C 0.93044 0.36572 0.58534 0.0
C2176 C 0.86642 0.34452 0.53734 0.0
C2177 C 0.84596 0.36178 0.54991 0.0
C2178 C 0.90064 0.35863 0.57581 0.0
C2179 C 0.85263 0.37476 0.5768 0.0
C2180 C 0.95427 0.35109 0.57526 0.0
C2181 C 0.96081 0.40289 0.60481 0.0
N2182 N 0.87952 0.37336 0.58858 0.0
N2183 N 0.93474 0.39055 0.60067 0.0
H2184 H 0.67092 0.78475 0.64333 0.0
H2185 H 0.60141 0.90787 0.73721 0.0
H2186 H 0.63159 0.77096 0.72521 0.0
H2187 H 0.64941 0.92336 0.66068 0.0
H2188 H 0.60052 0.85653 0.72557 0.0
H2189 H 0.65222 0.8339 0.64227 0.0
C2190 C 0.65765 0.79183 0.66061 0.0
C2191 C 0.65278 0.77391 0.68437 0.0
C2192 C 0.61078 0.87125 0.71102 0.0
C2193 C 0.63192 0.83008 0.68379 0.0
C2194 C 0.6111 0.90062 0.71755 0.0
C2195 C 0.62617 0.91985 0.70033 0.0
C2196 C 0.62566 0.86113 0.68716 0.0
C2197 C 0.63813 0.90921 0.67498 0.0
C2198 C 0.64718 0.81992 0.66018 0.0
C2199 C 0.63605 0.78428 0.70663 0.0
N2200 N 0.6381 0.88053 0.66947 0.0
N2201 N 0.62647 0.81175 0.70595 0.0
H2202 H 0.02993 0.11928 0.59934 0.0
H2203 H 0.12922 0.13118 0.46739 0.0
H2204 H 0.99808 0.12804 0.51069 0.0
H2205 H 0.16011 0.15317 0.55405 0.0
H2206 H 0.08032 0.1356 0.48299 0.0
H2207 H 0.07653 0.13765 0.58479 0.0
C2208 C 0.03238 0.12632 0.57714 0.0
C2209 C 0.01016 0.12233 0.55619 0.0
C2210 C 0.09768 0.14024 0.49853 0.0
C2211 C 0.06346 0.14215 0.53913 0.0
C2212 C 0.1256 0.13789 0.4895 0.0
C2213 C 0.14861 0.14222 0.50935 0.0
C2214 C 0.09266 0.14588 0.52797 0.0
C2215 C 0.14283 0.15015 0.53799 0.0
C2216 C 0.05906 0.13649 0.56872 0.0
C2217 C 0.01468 0.13096 0.52751 0.0
N2218 N 0.11543 0.15111 0.54665 0.0
N2219 N 0.04086 0.13992 0.51974 0.0
H2220 H 0.38217 0.26232 0.85756 0.0
H2221 H 0.39358 0.3886 0.74431 0.0
H2222 H 0.38854 0.25063 0.76528 0.0
H2223 H 0.36531 0.3966 0.83199 0.0
H2224 H 0.41037 0.34004 0.75563 0.0
H2225 H 0.39795 0.31213 0.85256 0.0
C2226 C 0.3888 0.26967 0.8365 0.0
C2227 C 0.38331 0.25274 0.81164 0.0
C2228 C 0.40099 0.35262 0.77256 0.0
C2229 C 0.40016 0.30973 0.80554 0.0
C2230 C 0.39131 0.38029 0.7661 0.0
C2231 C 0.37765 0.39642 0.78715 0.0
C2232 C 0.39695 0.341 0.80026 0.0
C2233 C 0.37533 0.38466 0.81501 0.0
C2234 C 0.39714 0.29835 0.83354 0.0
C2235 C 0.39209 0.26328 0.7849 0.0
N2236 N 0.38461 0.35754 0.82068 0.0
N2237 N 0.39906 0.29152 0.78229 0.0
H2238 H 0.54075 0.45894 0.45932 0.0
H2239 H 0.64626 0.32594 0.45136 0.0
H2240 H 0.51491 0.37672 0.42293 0.0
H2241 H 0.67114 0.41024 0.48306 0.0
H2242 H 0.59934 0.34467 0.4371 0.0
H2243 H 0.5893 0.44187 0.46488 0.0
C2244 C 0.54525 0.4372 0.45246 0.0
C2245 C 0.52353 0.41913 0.4409 0.0
C2246 C 0.61516 0.35913 0.44689 0.0
C2247 C 0.57959 0.39937 0.44727 0.0
C2248 C 0.64203 0.34849 0.45503 0.0
C2249 C 0.6627 0.36648 0.46873 0.0
C2250 C 0.60879 0.38796 0.4526 0.0
C2251 C 0.65594 0.39551 0.47269 0.0
C2252 C 0.57313 0.42751 0.45556 0.0
C2253 C 0.5309 0.39134 0.43209 0.0
N2254 N 0.62951 0.40525 0.46493 0.0
N2255 N 0.55833 0.38221 0.43568 0.0
H2256 H 0.62716 0.23155 0.84302 0.0
H2257 H 0.68593 0.07998 0.8012 0.0
H2258 H 0.71641 0.21515 0.83375 0.0
H2259 H 0.60532 0.08876 0.84196 0.0
H2260 H 0.69801 0.12934 0.81563 0.0
H2261 H 0.61875 0.17946 0.8471 0.0
C2262 C 0.64512 0.21707 0.8432 0.0
C2263 C 0.67251 0.22751 0.83822 0.0
C2264 C 0.67784 0.12032 0.82183 0.0
C2265 C 0.66303 0.16821 0.8414 0.0
C2266 C 0.67093 0.09214 0.81349 0.0
C2267 C 0.64453 0.08022 0.82021 0.0
C2268 C 0.65799 0.13697 0.83644 0.0
C2269 C 0.62594 0.09704 0.83628 0.0
C2270 C 0.64032 0.18733 0.8451 0.0
C2271 C 0.69497 0.20783 0.83766 0.0
N2272 N 0.6328 0.12469 0.84341 0.0
N2273 N 0.68969 0.17915 0.83861 0.0
H2274 H 0.46406 0.06499 0.42297 0.0
H2275 H 0.36476 0.18125 0.49554 0.0
H2276 H 0.49428 0.14829 0.45185 0.0
H2277 H 0.33215 0.10188 0.45807 0.0
H2278 H 0.41185 0.1696 0.47916 0.0
H2279 H 0.41541 0.07911 0.43278 0.0
C2280 C 0.46029 0.08664 0.43059 0.0
C2281 C 0.48327 0.10557 0.43643 0.0
C2282 C 0.39448 0.15467 0.47449 0.0
C2283 C 0.4275 0.12155 0.44885 0.0
C2284 C 0.36745 0.16118 0.48405 0.0
C2285 C 0.34416 0.14252 0.47825 0.0
C2286 C 0.39867 0.12918 0.459 0.0
C2287 C 0.34934 0.11687 0.46324 0.0
C2288 C 0.4325 0.09456 0.4365 0.0
C2289 C 0.4772 0.13318 0.44666 0.0
N2290 N 0.37599 0.11099 0.45414 0.0
N2291 N 0.44995 0.14019 0.45296 0.0
H2292 H 0.64108 0.31704 0.69652 0.0
H2293 H 0.69503 0.38933 0.57831 0.0
H2294 H 0.68415 0.38258 0.74823 0.0
H2295 H 0.76673 0.37009 0.63644 0.0
H2296 H 0.66429 0.39066 0.62024 0.0
H2297 H 0.65663 0.34097 0.65235 0.0
C2298 C 0.65248 0.33731 0.69847 0.0
C2299 C 0.66125 0.34797 0.72593 0.0
C2300 C 0.68695 0.38726 0.62376 0.0
C2301 C 0.68034 0.37435 0.67594 0.0
C2302 C 0.70455 0.38667 0.6 0.0
C2303 C 0.73342 0.37935 0.60401 0.0
C2304 C 0.69858 0.38131 0.65162 0.0
C2305 C 0.74457 0.37564 0.63248 0.0
C2306 C 0.66152 0.35084 0.67334 0.0
C2307 C 0.67673 0.3739 0.72738 0.0
N2308 N 0.72704 0.37643 0.65525 0.0
N2309 N 0.68694 0.38553 0.70275 0.0
H2310 H 0.7063 0.60892 0.74777 0.0
H2311 H 0.73871 0.60694 0.89317 0.0
H2312 H 0.6373 0.66425 0.76934 0.0
H2313 H 0.66128 0.65465 0.90262 0.0
H2314 H 0.72362 0.59578 0.84312 0.0
H2315 H 0.70926 0.5916 0.79768 0.0
C2316 C 0.69087 0.6164 0.76288 0.0
C2317 C 0.67169 0.63815 0.75468 0.0
C2318 C 0.70948 0.60821 0.85603 0.0
C2319 C 0.67633 0.62037 0.81254 0.0
C2320 C 0.71827 0.61463 0.88478 0.0
C2321 C 0.7016 0.63236 0.90176 0.0
C2322 C 0.68377 0.61971 0.84428 0.0
C2323 C 0.6752 0.64156 0.88998 0.0
C2324 C 0.69303 0.60709 0.79174 0.0
C2325 C 0.65238 0.64744 0.77494 0.0
N2326 N 0.66734 0.63547 0.86195 0.0
N2327 N 0.6557 0.63908 0.80316 0.0
H2328 H 0.90651 0.994 0.49622 0.0
H2329 H 0.85714 0.04825 0.33736 0.0
H2330 H 0.89357 0.08339 0.4752 0.0
H2331 H 0.8917 0.96468 0.35714 0.0
H2332 H 0.85714 0.05892 0.38986 0.0
H2333 H 0.88812 0.98084 0.44769 0.0
C2334 C 0.89945 0.01089 0.48147 0.0
C2335 C 0.9018 0.03989 0.48968 0.0
C2336 C 0.864 0.03798 0.3827 0.0
C2337 C 0.88085 0.02493 0.43383 0.0
C2338 C 0.8637 0.03181 0.35286 0.0
C2339 C 0.87436 0.00556 0.34321 0.0
C2340 C 0.87491 0.01762 0.40273 0.0
C2341 C 0.88324 0.98513 0.3639 0.0
C2342 C 0.8889 0.00334 0.45376 0.0
C2343 C 0.89194 0.06081 0.46981 0.0
N2344 N 0.88353 0.99166 0.39267 0.0
N2345 N 0.88225 0.05296 0.44258 0.0
H2346 H 0.33619 0.86469 0.7698 0.0
H2347 H 0.29748 0.81591 0.92964 0.0
H2348 H 0.3449 0.77755 0.80029 0.0
H2349 H 0.26409 0.89047 0.88428 0.0
H2350 H 0.32695 0.8058 0.88815 0.0
H2351 H 0.32569 0.87982 0.81919 0.0
C2352 C 0.33747 0.84903 0.78723 0.0
C2353 C 0.34085 0.81982 0.78109 0.0
C2354 C 0.31319 0.8244 0.88746 0.0
C2355 C 0.32788 0.83658 0.83697 0.0
C2356 C 0.29607 0.82995 0.91092 0.0
C2357 C 0.27781 0.85374 0.91031 0.0
C2358 C 0.31239 0.84307 0.86347 0.0
C2359 C 0.27739 0.87156 0.88564 0.0
C2360 C 0.33087 0.85753 0.81527 0.0
C2361 C 0.34202 0.80027 0.80431 0.0
N2362 N 0.29443 0.86587 0.86329 0.0
N2363 N 0.33477 0.80885 0.83121 0.0
H2364 H 0.63698 0.93547 0.00727 0.0
H2365 H 0.59625 0.95531 0.83785 0.0
H2366 H 0.55327 0.91966 0.96808 0.0
H2367 H 0.68065 0.9708 0.87564 0.0
H2368 H 0.58116 0.93873 0.8851 0.0
H2369 H 0.65498 0.94336 0.95861 0.0
C2370 C 0.62254 0.93307 0.98844 0.0
C2371 C 0.59352 0.92736 0.99171 0.0
C2372 C 0.60301 0.94571 0.88306 0.0
C2373 C 0.61374 0.93677 0.93624 0.0
C2374 C 0.61157 0.95542 0.85609 0.0
C2375 C 0.63968 0.96475 0.85277 0.0
C2376 C 0.62265 0.94538 0.90696 0.0
C2377 C 0.65871 0.96393 0.87717 0.0
C2378 C 0.63275 0.93781 0.96069 0.0
C2379 C 0.57573 0.92449 0.96658 0.0
N2380 N 0.64982 0.95452 0.90324 0.0
N2381 N 0.58605 0.92955 0.93997 0.0
H2382 H 0.82149 0.62226 0.24392 0.0
H2383 H 0.81562 0.59703 0.09343 0.0
H2384 H 0.74075 0.66412 0.22844 0.0
H2385 H 0.75278 0.66439 0.09122 0.0
H2386 H 0.8152 0.59683 0.14622 0.0
H2387 H 0.82247 0.61083 0.19221 0.0
C2388 C 0.80329 0.6278 0.22984 0.0
C2389 C 0.78107 0.64427 0.24045 0.0
C2390 C 0.8019 0.61209 0.13442 0.0
C2391 C 0.78216 0.63187 0.18091 0.0
C2392 C 0.80212 0.61225 0.10406 0.0
C2393 C 0.78431 0.6309 0.08767 0.0
C2394 C 0.78378 0.63084 0.1487 0.0
C2395 C 0.76707 0.64981 0.10281 0.0
C2396 C 0.80398 0.62159 0.20007 0.0
C2397 C 0.75835 0.65147 0.2211 0.0
N2398 N 0.76714 0.64915 0.1324 0.0
N2399 N 0.75976 0.64575 0.19225 0.0
H2400 H 0.85635 0.9592 0.98832 0.0
H2401 H 0.89486 0.94601 0.15818 0.0
H2402 H 0.92412 0.90661 0.02412 0.0
H2403 H 0.81471 0.98046 0.12549 0.0
H2404 H 0.9055 0.93163 0.10869 0.0
H2405 H 0.8386 0.96534 0.03753 0.0
C2406 C 0.86663 0.9478 0.00635 0.0
C2407 C 0.89137 0.93188 0.00212 0.0
C2408 C 0.88553 0.94227 0.11231 0.0
C2409 C 0.87235 0.94014 0.05858 0.0
C2410 C 0.87956 0.95077 0.14061 0.0
C2411 C 0.85388 0.96462 0.14615 0.0
C2412 C 0.86586 0.94787 0.08913 0.0
C2413 C 0.83481 0.96989 0.12235 0.0
C2414 C 0.85686 0.95174 0.03453 0.0
C2415 C 0.90464 0.91857 0.02641 0.0
N2416 N 0.84123 0.96167 0.09493 0.0
N2417 N 0.89529 0.92336 0.05357 0.0
H2418 H 0.08865 0.61941 0.04755 0.0
H2419 H 0.15402 0.50361 0.14952 0.0
H2420 H 0.14334 0.55406 0.0148 0.0
H2421 H 0.126 0.58568 0.18044 0.0
H2422 H 0.15811 0.52437 0.10066 0.0
H2423 H 0.10964 0.61197 0.09634 0.0
C2424 C 0.10584 0.60416 0.05063 0.0
C2425 C 0.11444 0.58737 0.02741 0.0
C2426 C 0.152 0.53811 0.11834 0.0
C2427 C 0.13741 0.57738 0.08326 0.0
C2428 C 0.14976 0.52625 0.14615 0.0
C2429 C 0.13955 0.54307 0.16865 0.0
C2430 C 0.1434 0.56669 0.11326 0.0
C2431 C 0.13385 0.57212 0.1634 0.0
C2432 C 0.11777 0.59975 0.07847 0.0
C2433 C 0.13641 0.56752 0.03235 0.0
N2434 N 0.13537 0.58291 0.13613 0.0
N2435 N 0.14665 0.56244 0.05997 0.0
loop_
_geom_bond_atom_site_label_1
_geom_bond_atom_site_label_2
_geom_bond_distance
_geom_bond_site_symmetry_2
_ccdc_geom_bond_type
Zn0 O6 1.920 . S
Zn0 O12 1.898 . S
Zn0 O15 1.905 . S
Zn1 O9 1.905 . S
Zn1 O10 1.898 . S
Zn1 O18 1.920 . S
Zn2 O5 2.080 . S
Zn2 O8 2.114 . S
Zn2 O11 2.120 . S
Zn2 O13 2.120 . S
Zn2 O14 2.114 . S
Zn2 O17 2.080 . S
C3 O8 1.166 . S
C3 O9 1.182 . S
C4 O10 1.167 . S
C4 O11 1.299 . S
O5 Zn2 2.080 . S
O5 C19 1.305 . S
O6 Zn0 1.920 . S
O6 C19 1.234 . S
C7 O12 1.167 . S
C7 O13 1.299 . S
O8 Zn2 2.114 . S
O8 C3 1.166 . S
O9 Zn1 1.905 . S
O9 C3 1.182 . S
O10 Zn1 1.898 . S
O10 C4 1.167 . S
O11 Zn2 2.120 . S
O11 C4 1.299 . S
O12 Zn0 1.898 . S
O12 C7 1.167 . S
O13 Zn2 2.120 . S
O13 C7 1.299 . S
O14 Zn2 2.114 . S
O14 C16 1.166 . S
O15 Zn0 1.905 . S
O15 C16 1.182 . S
C16 O14 1.166 . S
C16 O15 1.182 . S
O17 Zn2 2.080 . S
O17 C20 1.305 . S
O18 Zn1 1.920 . S
O18 C20 1.234 . S
C19 O5 1.305 . S
C19 O6 1.234 . S
C20 O17 1.305 . S
C20 O18 1.234 . S
Zn21 O27 1.920 . S
Zn21 O33 1.898 . S
Zn21 O36 1.905 . S
Zn22 O30 1.905 . S
Zn22 O31 1.898 . S
Zn22 O39 1.912 1_554 S
Zn23 O26 2.080 . S
Zn23 O29 2.114 . S
Zn23 O32 2.120 . S
Zn23 O34 2.120 . S
Zn23 O35 2.114 . S
Zn23 O38 2.080 . S
C24 O29 1.166 . S
C24 O30 1.182 . S
C25 O31 1.167 . S
C25 O32 1.299 . S
O26 Zn23 2.080 . S
O26 C40 1.305 . S
O27 Zn21 1.920 . S
O27 C40 1.234 . S
C28 O33 1.167 . S
C28 O34 1.299 . S
O29 Zn23 2.114 . S
O29 C24 1.166 . S
O30 Zn22 1.905 . S
O30 C24 1.182 . S
O31 Zn22 1.898 . S
O31 C25 1.167 . S
O32 Zn23 2.120 . S
O32 C25 1.299 . S
O33 Zn21 1.898 . S
O33 C28 1.167 . S
O34 Zn23 2.120 . S
O34 C28 1.299 . S
O35 Zn23 2.114 . S
O35 C37 1.166 . S
O36 Zn21 1.905 . S
O36 C37 1.182 . S
C37 O35 1.166 . S
C37 O36 1.182 . S
O38 Zn23 2.080 . S
O38 C41 1.305 . S
O39 Zn22 1.912 1_556 S
O39 C41 1.231 1_556 S
C40 O26 1.305 . S
C40 O27 1.234 . S
C41 O38 1.305 . S
C41 O39 1.231 1_554 S
Zn42 O48 1.920 . S
Zn42 O54 1.898 . S
Zn42 O57 1.905 . S
Zn43 O51 1.905 . S
Zn43 O52 1.898 . S
Zn43 O60 1.920 . S
Zn44 O47 2.080 . S
Zn44 O50 2.114 . S
Zn44 O53 2.120 . S
Zn44 O55 2.120 . S
Zn44 O56 2.114 . S
Zn44 O59 2.080 . S
C45 O50 1.166 . S
C45 O51 1.182 . S
C46 O52 1.167 . S
C46 O53 1.299 . S
O47 Zn44 2.080 . S
O47 C61 1.305 . S
O48 Zn42 1.920 . S
O48 C61 1.234 . S
C49 O54 1.167 . S
C49 O55 1.299 . S
O50 Zn44 2.114 . S
O50 C45 1.166 . S
O51 Zn43 1.905 . S
O51 C45 1.182 . S
O52 Zn43 1.898 . S
O52 C46 1.167 . S
O53 Zn44 2.120 . S
O53 C46 1.299 . S
O54 Zn42 1.898 . S
O54 C49 1.167 . S
O55 Zn44 2.120 . S
O55 C49 1.299 . S
O56 Zn44 2.114 . S
O56 C58 1.166 . S
O57 Zn42 1.905 . S
O57 C58 1.182 . S
C58 O56 1.166 . S
C58 O57 1.182 . S
O59 Zn44 2.080 . S
O59 C62 1.305 . S
O60 Zn43 1.920 . S
O60 C62 1.234 . S
C61 O47 1.305 . S
C61 O48 1.234 . S
C62 O59 1.305 . S
C62 O60 1.234 . S
Zn63 O69 1.920 . S
Zn63 O75 1.898 . S
Zn63 O78 1.905 . S
Zn64 O72 1.905 . S
Zn64 O73 1.898 . S
Zn64 O81 1.920 . S
Zn65 O68 2.080 . S
Zn65 O71 2.114 . S
Zn65 O74 2.120 . S
Zn65 O76 2.120 . S
Zn65 O77 2.114 . S
Zn65 O80 2.080 . S
C66 O71 1.166 . S
C66 O72 1.182 . S
C67 O73 1.167 . S
C67 O74 1.299 . S
O68 Zn65 2.080 . S
O68 C82 1.305 . S
O69 Zn63 1.920 . S
O69 C82 1.234 . S
C70 O75 1.167 . S
C70 O76 1.299 . S
O71 Zn65 2.114 . S
O71 C66 1.166 . S
O72 Zn64 1.905 . S
O72 C66 1.182 . S
O73 Zn64 1.898 . S
O73 C67 1.167 . S
O74 Zn65 2.120 . S
O74 C67 1.299 . S
O75 Zn63 1.898 . S
O75 C70 1.167 . S
O76 Zn65 2.120 . S
O76 C70 1.299 . S
O77 Zn65 2.114 . S
O77 C79 1.166 . S
O78 Zn63 1.905 . S
O78 C79 1.182 . S
C79 O77 1.166 . S
C79 O78 1.182 . S
O80 Zn65 2.080 . S
O80 C83 1.305 . S
O81 Zn64 1.920 . S
O81 C83 1.234 . S
C82 O68 1.305 . S
C82 O69 1.234 . S
C83 O80 1.305 . S
C83 O81 1.234 . S
Zn84 O90 1.920 . S
Zn84 O96 1.898 . S
Zn84 O99 1.905 . S
Zn85 O93 1.905 . S
Zn85 O94 1.898 . S
Zn85 O102 1.920 . S
Zn86 O89 2.080 . S
Zn86 O92 2.114 . S
Zn86 O95 2.120 . S
Zn86 O97 2.120 . S
Zn86 O98 2.114 . S
Zn86 O101 2.080 . S
C87 O92 1.166 . S
C87 O93 1.182 . S
C88 O94 1.167 . S
C88 O95 1.299 . S
O89 Zn86 2.080 . S
O89 C103 1.305 . S
O90 Zn84 1.920 . S
O90 C103 1.234 . S
C91 O96 1.167 . S
C91 O97 1.299 . S
O92 Zn86 2.114 . S
O92 C87 1.166 . S
O93 Zn85 1.905 . S
O93 C87 1.182 . S
O94 Zn85 1.898 . S
O94 C88 1.167 . S
O95 Zn86 2.120 . S
O95 C88 1.299 . S
O96 Zn84 1.898 . S
O96 C91 1.167 . S
O97 Zn86 2.120 . S
O97 C91 1.299 . S
O98 Zn86 2.114 . S
O98 C100 1.166 . S
O99 Zn84 1.905 . S
O99 C100 1.182 . S
C100 O98 1.166 . S
C100 O99 1.182 . S
O101 Zn86 2.080 . S
O101 C104 1.305 . S
O102 Zn85 1.920 . S
O102 C104 1.234 . S
C103 O89 1.305 . S
C103 O90 1.234 . S
C104 O101 1.305 . S
C104 O102 1.234 . S
Zn105 O111 1.920 . S
Zn105 O117 1.898 1_556 S
Zn105 O120 1.905 . S
Zn106 O114 1.905 . S
Zn106 O115 1.898 . S
Zn106 O123 1.920 . S
Zn107 O110 2.080 . S
Zn107 O113 2.114 . S
Zn107 O116 2.120 . S
Zn107 O118 2.120 . S
Zn107 O119 2.114 . S
Zn107 O122 2.080 . S
C108 O113 1.166 . S
C108 O114 1.182 . S
C109 O115 1.167 . S
C109 O116 1.299 . S
O110 Zn107 2.080 . S
O110 C124 1.305 . S
O111 Zn105 1.920 . S
O111 C124 1.234 . S
C112 O117 1.167 . S
C112 O118 1.299 1_554 S
O113 Zn107 2.114 . S
O113 C108 1.166 . S
O114 Zn106 1.905 . S
O114 C108 1.182 . S
O115 Zn106 1.898 . S
O115 C109 1.167 . S
O116 Zn107 2.120 . S
O116 C109 1.299 . S
O117 Zn105 1.898 1_554 S
O117 C112 1.167 . S
O118 Zn107 2.120 . S
O118 C112 1.299 1_556 S
O119 Zn107 2.114 . S
O119 C121 1.166 . S
O120 Zn105 1.905 . S
O120 C121 1.182 . S
C121 O119 1.166 . S
C121 O120 1.182 . S
O122 Zn107 2.080 . S
O122 C125 1.305 . S
O123 Zn106 1.920 . S
O123 C125 1.234 . S
C124 O110 1.305 . S
C124 O111 1.234 . S
C125 O122 1.305 . S
C125 O123 1.234 . S
Zn126 O132 1.920 . S
Zn126 O138 1.898 . S
Zn126 O141 1.905 . S
Zn127 O135 1.905 . S
Zn127 O136 1.898 . S
Zn127 O144 1.920 . S
Zn128 O131 2.080 . S
Zn128 O134 2.114 . S
Zn128 O137 2.120 . S
Zn128 O139 2.120 . S
Zn128 O140 2.114 . S
Zn128 O143 2.080 . S
C129 O134 1.166 . S
C129 O135 1.182 . S
C130 O136 1.167 . S
C130 O137 1.299 . S
O131 Zn128 2.080 . S
O131 C145 1.305 . S
O132 Zn126 1.920 . S
O132 C145 1.234 . S
C133 O138 1.167 . S
C133 O139 1.299 . S
O134 Zn128 2.114 . S
O134 C129 1.166 . S
O135 Zn127 1.905 . S
O135 C129 1.182 . S
O136 Zn127 1.898 . S
O136 C130 1.167 . S
O137 Zn128 2.120 . S
O137 C130 1.299 . S
O138 Zn126 1.898 . S
O138 C133 1.167 . S
O139 Zn128 2.120 . S
O139 C133 1.299 . S
O140 Zn128 2.114 . S
O140 C142 1.166 . S
O141 Zn126 1.905 . S
O141 C142 1.182 . S
C142 O140 1.166 . S
C142 O141 1.182 . S
O143 Zn128 2.080 . S
O143 C146 1.305 . S
O144 Zn127 1.920 . S
O144 C146 1.234 . S
C145 O131 1.305 . S
C145 O132 1.234 . S
C146 O143 1.305 . S
C146 O144 1.234 . S
Zn147 O153 1.920 . S
Zn147 O159 1.898 . S
Zn147 O162 1.905 . S
Zn148 O156 1.905 . S
Zn148 O157 1.898 . S
Zn148 O165 1.920 . S
Zn149 O152 2.080 . S
Zn149 O155 2.114 . S
Zn149 O158 2.120 . S
Zn149 O160 2.120 . S
Zn149 O161 2.114 . S
Zn149 O164 2.080 . S
C150 O155 1.166 . S
C150 O156 1.182 . S
C151 O157 1.167 . S
C151 O158 1.299 . S
O152 Zn149 2.080 . S
O152 C166 1.305 . S
O153 Zn147 1.920 . S
O153 C166 1.234 . S
C154 O159 1.167 . S
C154 O160 1.299 . S
O155 Zn149 2.114 . S
O155 C150 1.166 . S
O156 Zn148 1.905 . S
O156 C150 1.182 . S
O157 Zn148 1.898 . S
O157 C151 1.167 . S
O158 Zn149 2.120 . S
O158 C151 1.299 . S
O159 Zn147 1.898 . S
O159 C154 1.167 . S
O160 Zn149 2.120 . S
O160 C154 1.299 . S
O161 Zn149 2.114 . S
O161 C163 1.166 . S
O162 Zn147 1.905 . S
O162 C163 1.182 . S
C163 O161 1.166 . S
C163 O162 1.182 . S
O164 Zn149 2.080 . S
O164 C167 1.305 . S
O165 Zn148 1.920 . S
O165 C167 1.234 . S
C166 O152 1.305 . S
C166 O153 1.234 . S
C167 O164 1.305 . S
C167 O165 1.234 . S
Zn168 O174 1.920 . S
Zn168 O180 1.898 . S
Zn168 O183 1.905 . S
Zn169 O177 1.905 . S
Zn169 O178 1.898 . S
Zn169 O186 1.920 . S
Zn170 O173 2.080 . S
Zn170 O176 2.114 . S
Zn170 O179 2.120 . S
Zn170 O181 2.120 . S
Zn170 O182 2.114 . S
Zn170 O185 2.080 . S
C171 O176 1.166 . S
C171 O177 1.182 . S
C172 O178 1.167 . S
C172 O179 1.299 . S
O173 Zn170 2.080 . S
O173 C187 1.305 . S
O174 Zn168 1.920 . S
O174 C187 1.234 . S
C175 O180 1.167 . S
C175 O181 1.299 . S
O176 Zn170 2.114 . S
O176 C171 1.166 . S
O177 Zn169 1.905 . S
O177 C171 1.182 . S
O178 Zn169 1.898 . S
O178 C172 1.167 . S
O179 Zn170 2.120 . S
O179 C172 1.299 . S
O180 Zn168 1.898 . S
O180 C175 1.167 . S
O181 Zn170 2.120 . S
O181 C175 1.299 . S
O182 Zn170 2.114 . S
O182 C184 1.166 . S
O183 Zn168 1.905 . S
O183 C184 1.182 . S
C184 O182 1.166 . S
C184 O183 1.182 . S
O185 Zn170 2.080 . S
O185 C188 1.305 . S
O186 Zn169 1.920 . S
O186 C188 1.234 . S
C187 O173 1.305 . S
C187 O174 1.234 . S
C188 O185 1.305 . S
C188 O186 1.234 . S
Zn189 O195 1.920 . S
Zn189 O201 1.898 . S
Zn189 O204 1.905 . S
Zn190 O198 1.905 . S
Zn190 O199 1.898 . S
Zn190 O207 1.920 . S
Zn191 O194 2.080 . S
Zn191 O197 2.114 . S
Zn191 O200 2.120 . S
Zn191 O202 2.120 . S
Zn191 O203 2.114 . S
Zn191 O206 2.080 . S
C192 O197 1.166 . S
C192 O198 1.182 . S
C193 O199 1.167 . S
C193 O200 1.299 . S
O194 Zn191 2.080 . S
O194 C208 1.305 . S
O195 Zn189 1.920 . S
O195 C208 1.234 . S
C196 O201 1.167 . S
C196 O202 1.299 . S
O197 Zn191 2.114 . S
O197 C192 1.166 . S
O198 Zn190 1.905 . S
O198 C192 1.182 . S
O199 Zn190 1.898 . S
O199 C193 1.167 . S
O200 Zn191 2.120 . S
O200 C193 1.299 . S
O201 Zn189 1.898 . S
O201 C196 1.167 . S
O202 Zn191 2.120 . S
O202 C196 1.299 . S
O203 Zn191 2.114 . S
O203 C205 1.166 . S
O204 Zn189 1.905 . S
O204 C205 1.182 . S
C205 O203 1.166 . S
C205 O204 1.182 . S
O206 Zn191 2.080 . S
O206 C209 1.305 . S
O207 Zn190 1.920 . S
O207 C209 1.234 . S
C208 O194 1.305 . S
C208 O195 1.234 . S
C209 O206 1.305 . S
C209 O207 1.234 . S
Zn210 O216 1.920 . S
Zn210 O222 1.898 . S
Zn210 O225 1.905 . S
Zn211 O219 1.905 . S
Zn211 O220 1.898 . S
Zn211 O228 1.920 . S
Zn212 O215 2.080 . S
Zn212 O218 2.114 . S
Zn212 O221 2.120 . S
Zn212 O223 2.120 . S
Zn212 O224 2.114 . S
Zn212 O227 2.080 . S
C213 O218 1.166 . S
C213 O219 1.182 . S
C214 O220 1.167 . S
C214 O221 1.299 . S
O215 Zn212 2.080 . S
O215 C229 1.305 . S
O216 Zn210 1.920 . S
O216 C229 1.234 . S
C217 O222 1.167 . S
C217 O223 1.299 . S
O218 Zn212 2.114 . S
O218 C213 1.166 . S
O219 Zn211 1.905 . S
O219 C213 1.182 . S
O220 Zn211 1.898 . S
O220 C214 1.167 . S
O221 Zn212 2.120 . S
O221 C214 1.299 . S
O222 Zn210 1.898 . S
O222 C217 1.167 . S
O223 Zn212 2.120 . S
O223 C217 1.299 . S
O224 Zn212 2.114 . S
O224 C226 1.166 . S
O225 Zn210 1.905 . S
O225 C226 1.182 . S
C226 O224 1.166 . S
C226 O225 1.182 . S
O227 Zn212 2.080 . S
O227 C230 1.305 . S
O228 Zn211 1.920 . S
O228 C230 1.234 . S
C229 O215 1.305 . S
C229 O216 1.234 . S
C230 O227 1.305 . S
C230 O228 1.234 . S
Zn231 O237 1.920 . S
Zn231 O243 1.898 . S
Zn231 O246 1.905 . S
Zn232 O240 1.905 . S
Zn232 O241 1.898 . S
Zn232 O249 1.920 . S
Zn233 O236 2.080 . S
Zn233 O239 2.114 . S
Zn233 O242 2.120 . S
Zn233 O244 2.120 . S
Zn233 O245 2.114 . S
Zn233 O248 2.080 . S
C234 O239 1.166 . S
C234 O240 1.182 . S
C235 O241 1.167 . S
C235 O242 1.299 . S
O236 Zn233 2.080 . S
O236 C250 1.305 . S
O237 Zn231 1.920 . S
O237 C250 1.234 . S
C238 O243 1.167 . S
C238 O244 1.299 . S
O239 Zn233 2.114 . S
O239 C234 1.166 . S
O240 Zn232 1.905 . S
O240 C234 1.182 . S
O241 Zn232 1.898 . S
O241 C235 1.167 . S
O242 Zn233 2.120 . S
O242 C235 1.299 . S
O243 Zn231 1.898 . S
O243 C238 1.167 . S
O244 Zn233 2.120 . S
O244 C238 1.299 . S
O245 Zn233 2.114 . S
O245 C247 1.166 . S
O246 Zn231 1.905 . S
O246 C247 1.182 . S
C247 O245 1.166 . S
C247 O246 1.182 . S
O248 Zn233 2.080 . S
O248 C251 1.305 . S
O249 Zn232 1.920 . S
O249 C251 1.234 . S
C250 O236 1.305 . S
C250 O237 1.234 . S
C251 O248 1.305 . S
C251 O249 1.234 . S
Zn252 O258 1.920 . S
Zn252 O264 1.898 . S
Zn252 O267 1.905 . S
Zn253 O261 1.905 . S
Zn253 O262 1.898 . S
Zn253 O270 1.920 . S
Zn254 O257 2.080 . S
Zn254 O260 2.114 . S
Zn254 O263 2.120 . S
Zn254 O265 2.120 . S
Zn254 O266 2.114 . S
Zn254 O269 2.080 . S
C255 O260 1.166 . S
C255 O261 1.182 . S
C256 O262 1.167 . S
C256 O263 1.299 . S
O257 Zn254 2.080 . S
O257 C271 1.305 . S
O258 Zn252 1.920 . S
O258 C271 1.234 . S
C259 O264 1.167 . S
C259 O265 1.299 . S
O260 Zn254 2.114 . S
O260 C255 1.166 . S
O261 Zn253 1.905 . S
O261 C255 1.182 . S
O262 Zn253 1.898 . S
O262 C256 1.167 . S
O263 Zn254 2.120 . S
O263 C256 1.299 . S
O264 Zn252 1.898 . S
O264 C259 1.167 . S
O265 Zn254 2.120 . S
O265 C259 1.299 . S
O266 Zn254 2.114 . S
O266 C268 1.166 . S
O267 Zn252 1.905 . S
O267 C268 1.182 . S
C268 O266 1.166 . S
C268 O267 1.182 . S
O269 Zn254 2.080 . S
O269 C272 1.305 . S
O270 Zn253 1.920 . S
O270 C272 1.234 . S
C271 O257 1.305 . S
C271 O258 1.234 . S
C272 O269 1.305 . S
C272 O270 1.234 . S
Zn273 O279 1.920 . S
Zn273 O285 1.898 . S
Zn273 O288 1.905 . S
Zn274 O282 1.905 . S
Zn274 O283 1.898 . S
Zn274 O291 1.920 . S
Zn275 O278 2.080 . S
Zn275 O281 2.114 . S
Zn275 O284 2.120 . S
Zn275 O286 2.120 . S
Zn275 O287 2.114 . S
Zn275 O290 2.080 . S
C276 O281 1.166 . S
C276 O282 1.182 . S
C277 O283 1.167 . S
C277 O284 1.299 . S
O278 Zn275 2.080 . S
O278 C292 1.305 . S
O279 Zn273 1.920 . S
O279 C292 1.234 . S
C280 O285 1.167 . S
C280 O286 1.299 . S
O281 Zn275 2.114 . S
O281 C276 1.166 . S
O282 Zn274 1.905 . S
O282 C276 1.182 . S
O283 Zn274 1.898 . S
O283 C277 1.167 . S
O284 Zn275 2.120 . S
O284 C277 1.299 . S
O285 Zn273 1.898 . S
O285 C280 1.167 . S
O286 Zn275 2.120 . S
O286 C280 1.299 . S
O287 Zn275 2.114 . S
O287 C289 1.166 . S
O288 Zn273 1.905 . S
O288 C289 1.182 . S
C289 O287 1.166 . S
C289 O288 1.182 . S
O290 Zn275 2.080 . S
O290 C293 1.305 . S
O291 Zn274 1.920 . S
O291 C293 1.234 . S
C292 O278 1.305 . S
C292 O279 1.234 . S
C293 O290 1.305 . S
C293 O291 1.234 . S
Zn294 O300 1.920 . S
Zn294 O306 1.898 . S
Zn294 O309 1.905 . S
Zn295 O303 1.905 . S
Zn295 O304 1.898 . S
Zn295 O312 1.920 . S
Zn296 O299 2.080 . S
Zn296 O302 2.114 . S
Zn296 O305 2.120 . S
Zn296 O307 2.120 . S
Zn296 O308 2.114 . S
Zn296 O311 2.080 . S
C297 O302 1.166 . S
C297 O303 1.182 . S
C298 O304 1.167 . S
C298 O305 1.299 . S
O299 Zn296 2.080 . S
O299 C313 1.305 . S
O300 Zn294 1.920 . S
O300 C313 1.234 . S
C301 O306 1.167 . S
C301 O307 1.299 . S
O302 Zn296 2.114 . S
O302 C297 1.166 . S
O303 Zn295 1.905 . S
O303 C297 1.182 . S
O304 Zn295 1.898 . S
O304 C298 1.167 . S
O305 Zn296 2.120 . S
O305 C298 1.299 . S
O306 Zn294 1.898 . S
O306 C301 1.167 . S
O307 Zn296 2.120 . S
O307 C301 1.299 . S
O308 Zn296 2.114 . S
O308 C310 1.166 . S
O309 Zn294 1.905 . S
O309 C310 1.182 . S
C310 O308 1.166 . S
C310 O309 1.182 . S
O311 Zn296 2.080 . S
O311 C314 1.305 . S
O312 Zn295 1.920 . S
O312 C314 1.234 . S
C313 O299 1.305 . S
C313 O300 1.234 . S
C314 O311 1.305 . S
C314 O312 1.234 . S
Zn315 O321 1.920 . S
Zn315 O327 1.898 . S
Zn315 O330 1.905 . S
Zn316 O324 1.905 . S
Zn316 O325 1.898 . S
Zn316 O333 1.920 . S
Zn317 O320 2.080 . S
Zn317 O323 2.114 . S
Zn317 O326 2.120 . S
Zn317 O328 2.120 . S
Zn317 O329 2.114 . S
Zn317 O332 2.080 . S
C318 O323 1.166 . S
C318 O324 1.182 . S
C319 O325 1.167 . S
C319 O326 1.299 . S
O320 Zn317 2.080 . S
O320 C334 1.305 . S
O321 Zn315 1.920 . S
O321 C334 1.234 . S
C322 O327 1.167 . S
C322 O328 1.299 . S
O323 Zn317 2.114 . S
O323 C318 1.166 . S
O324 Zn316 1.905 . S
O324 C318 1.182 . S
O325 Zn316 1.898 . S
O325 C319 1.167 . S
O326 Zn317 2.120 . S
O326 C319 1.299 . S
O327 Zn315 1.898 . S
O327 C322 1.167 . S
O328 Zn317 2.120 . S
O328 C322 1.299 . S
O329 Zn317 2.114 . S
O329 C331 1.166 . S
O330 Zn315 1.905 . S
O330 C331 1.182 . S
C331 O329 1.166 . S
C331 O330 1.182 . S
O332 Zn317 2.080 . S
O332 C335 1.305 . S
O333 Zn316 1.920 . S
O333 C335 1.234 . S
C334 O320 1.305 . S
C334 O321 1.234 . S
C335 O332 1.305 . S
C335 O333 1.234 . S
C336 O348 1.241 . S
C336 O349 1.280 . S
C337 O350 1.277 . S
C337 O351 1.245 . S
C338 O362 1.247 . S
C338 O364 1.289 . S
Mg339 O340 1.926 1_455 S
Mg339 O349 1.984 1_455 S
Mg339 O351 1.988 . S
Mg339 O352 2.061 1_455 S
O340 Mg339 1.926 1_655 S
O340 Mg341 1.986 . S
O340 Mg342 1.917 1_655 S
Mg341 O340 1.986 . S
Mg341 O348 2.042 . S
Mg341 O350 2.041 1_655 S
Mg341 O356 2.038 . S
Mg341 O364 2.238 1_655 S
Mg342 O340 1.917 1_455 S
Mg342 O343 1.917 . S
Mg342 O353 2.106 1_455 S
Mg342 O355 2.079 1_455 S
Mg342 O364 2.106 . S
Mg342 O365 2.079 . S
O343 Mg342 1.917 . S
O343 Mg344 1.926 1_455 S
O343 Mg345 1.986 . S
Mg344 O343 1.926 1_655 S
Mg344 O358 1.984 1_655 S
Mg344 O361 1.988 . S
Mg344 O362 2.061 1_655 S
Mg345 O343 1.986 . S
Mg345 O353 2.238 1_455 S
Mg345 O357 2.042 . S
Mg345 O359 2.041 1_455 S
Mg345 O366 2.038 . S
C346 O352 1.247 . S
C346 O353 1.289 . S
C347 O365 1.245 . S
C347 O366 1.274 . S
O348 C336 1.241 . S
O348 Mg341 2.042 . S
O349 C336 1.280 . S
O349 Mg339 1.984 1_655 S
O350 C337 1.277 . S
O350 Mg341 2.041 1_455 S
O351 C337 1.245 . S
O351 Mg339 1.988 . S
O352 Mg339 2.061 1_655 S
O352 C346 1.247 . S
O353 Mg342 2.106 1_655 S
O353 Mg345 2.238 1_655 S
O353 C346 1.289 . S
C354 O355 1.245 . S
C354 O356 1.274 . S
O355 Mg342 2.079 1_655 S
O355 C354 1.245 . S
O356 Mg341 2.038 . S
O356 C354 1.274 . S
O357 Mg345 2.042 . S
O357 C360 1.241 . S
O358 Mg344 1.984 1_455 S
O358 C360 1.280 . S
O359 Mg345 2.041 1_655 S
O359 C363 1.277 . S
C360 O357 1.241 . S
C360 O358 1.280 . S
O361 Mg344 1.988 . S
O361 C363 1.245 . S
O362 C338 1.247 . S
O362 Mg344 2.061 1_455 S
C363 O359 1.277 . S
C363 O361 1.245 . S
O364 C338 1.289 . S
O364 Mg341 2.238 1_455 S
O364 Mg342 2.106 . S
O365 Mg342 2.079 . S
O365 C347 1.245 . S
O366 Mg345 2.038 . S
O366 C347 1.274 . S
C367 O379 1.241 . S
C367 O380 1.280 . S
C368 O381 1.277 . S
C368 O382 1.245 . S
C369 O393 1.247 . S
C369 O395 1.289 . S
Mg370 O371 1.926 . S
Mg370 O380 1.984 . S
Mg370 O382 1.988 . S
Mg370 O383 2.061 . S
O371 Mg370 1.926 . S
O371 Mg372 1.986 . S
O371 Mg373 1.917 . S
Mg372 O371 1.986 . S
Mg372 O379 2.042 . S
Mg372 O381 2.041 . S
Mg372 O387 2.038 . S
Mg372 O395 2.238 . S
Mg373 O371 1.917 . S
Mg373 O374 1.917 . S
Mg373 O384 2.106 . S
Mg373 O386 2.079 . S
Mg373 O395 2.106 . S
Mg373 O396 2.079 . S
O374 Mg373 1.917 . S
O374 Mg375 1.926 . S
O374 Mg376 1.986 . S
Mg375 O374 1.926 . S
Mg375 O389 1.984 . S
Mg375 O392 1.988 . S
Mg375 O393 2.061 . S
Mg376 O374 1.986 . S
Mg376 O384 2.238 . S
Mg376 O388 2.042 . S
Mg376 O390 2.041 . S
Mg376 O397 2.038 . S
C377 O383 1.247 . S
C377 O384 1.289 . S
C378 O396 1.245 . S
C378 O397 1.274 . S
O379 C367 1.241 . S
O379 Mg372 2.042 . S
O380 C367 1.280 . S
O380 Mg370 1.984 . S
O381 C368 1.277 . S
O381 Mg372 2.041 . S
O382 C368 1.245 . S
O382 Mg370 1.988 . S
O383 Mg370 2.061 . S
O383 C377 1.247 . S
O384 Mg373 2.106 . S
O384 Mg376 2.238 . S
O384 C377 1.289 . S
C385 O386 1.245 . S
C385 O387 1.274 . S
O386 Mg373 2.079 . S
O386 C385 1.245 . S
O387 Mg372 2.038 . S
O387 C385 1.274 . S
O388 Mg376 2.042 . S
O388 C391 1.241 . S
O389 Mg375 1.984 . S
O389 C391 1.280 . S
O390 Mg376 2.041 . S
O390 C394 1.277 . S
C391 O388 1.241 . S
C391 O389 1.280 . S
O392 Mg375 1.988 . S
O392 C394 1.245 . S
O393 C369 1.247 . S
O393 Mg375 2.061 . S
C394 O390 1.277 . S
C394 O392 1.245 . S
O395 C369 1.289 . S
O395 Mg372 2.238 . S
O395 Mg373 2.106 . S
O396 Mg373 2.079 . S
O396 C378 1.245 . S
O397 Mg376 2.038 . S
O397 C378 1.274 . S
C398 O410 1.241 . S
C398 O411 1.280 . S
C399 O412 1.277 . S
C399 O413 1.245 . S
C400 O424 1.247 . S
C400 O426 1.289 . S
Mg401 O402 1.926 1_455 S
Mg401 O411 1.984 1_455 S
Mg401 O413 1.988 . S
Mg401 O414 2.061 . S
O402 Mg401 1.926 1_655 S
O402 Mg403 1.986 . S
O402 Mg404 1.917 1_655 S
Mg403 O402 1.986 . S
Mg403 O410 2.042 . S
Mg403 O412 2.041 1_655 S
Mg403 O418 2.038 . S
Mg403 O426 2.238 1_655 S
Mg404 O402 1.917 1_455 S
Mg404 O405 1.917 . S
Mg404 O415 2.104 1_455 S
Mg404 O417 2.079 1_455 S
Mg404 O426 2.106 . S
Mg404 O427 2.079 . S
O405 Mg404 1.917 . S
O405 Mg406 1.926 1_455 S
O405 Mg407 1.986 . S
Mg406 O405 1.926 1_655 S
Mg406 O420 1.984 1_655 S
Mg406 O423 1.988 . S
Mg406 O424 2.061 1_655 S
Mg407 O405 1.986 . S
Mg407 O415 2.226 1_455 S
Mg407 O419 2.042 . S
Mg407 O421 2.041 1_455 S
Mg407 O428 2.038 . S
C408 O414 1.247 1_655 S
C408 O415 1.293 . S
C409 O427 1.245 . S
C409 O428 1.274 . S
O410 C398 1.241 . S
O410 Mg403 2.042 . S
O411 C398 1.280 . S
O411 Mg401 1.984 1_655 S
O412 C399 1.277 . S
O412 Mg403 2.041 1_455 S
O413 C399 1.245 . S
O413 Mg401 1.988 . S
O414 Mg401 2.061 . S
O414 C408 1.247 1_455 S
O415 Mg404 2.104 1_655 S
O415 Mg407 2.226 1_655 S
O415 C408 1.293 . S
C416 O417 1.245 . S
C416 O418 1.274 . S
O417 Mg404 2.079 1_655 S
O417 C416 1.245 . S
O418 Mg403 2.038 . S
O418 C416 1.274 . S
O419 Mg407 2.042 . S
O419 C422 1.241 . S
O420 Mg406 1.984 1_455 S
O420 C422 1.280 . S
O421 Mg407 2.041 1_655 S
O421 C425 1.277 . S
C422 O419 1.241 . S
C422 O420 1.280 . S
O423 Mg406 1.988 . S
O423 C425 1.245 . S
O424 C400 1.247 . S
O424 Mg406 2.061 1_455 S
C425 O421 1.277 . S
C425 O423 1.245 . S
O426 C400 1.289 . S
O426 Mg403 2.238 1_455 S
O426 Mg404 2.106 . S
O427 Mg404 2.079 . S
O427 C409 1.245 . S
O428 Mg407 2.038 . S
O428 C409 1.274 . S
C429 O441 1.241 . S
C429 O442 1.280 . S
C430 O443 1.277 . S
C430 O444 1.245 . S
C431 O455 1.260 . S
C431 O457 1.289 . S
Mg432 O433 1.926 1_565 S
Mg432 O442 1.984 1_565 S
Mg432 O444 1.988 . S
Mg432 O445 2.061 1_565 S
O433 Mg432 1.926 1_545 S
O433 Mg434 1.986 . S
O433 Mg435 1.917 . S
Mg434 O433 1.986 . S
Mg434 O441 2.042 . S
Mg434 O443 2.041 1_545 S
Mg434 O449 2.038 . S
Mg434 O457 2.238 1_545 S
Mg435 O433 1.917 . S
Mg435 O436 1.917 1_545 S
Mg435 O446 2.106 . S
Mg435 O448 2.079 . S
Mg435 O457 2.106 1_545 S
Mg435 O458 2.079 1_545 S
O436 Mg435 1.917 1_565 S
O436 Mg437 1.926 1_565 S
O436 Mg438 1.986 . S
Mg437 O436 1.926 1_545 S
Mg437 O451 1.984 1_545 S
Mg437 O454 1.988 . S
Mg437 O455 2.054 1_545 S
Mg438 O436 1.986 . S
Mg438 O446 2.238 1_565 S
Mg438 O450 2.042 . S
Mg438 O452 2.041 1_565 S
Mg438 O459 2.038 . S
C439 O445 1.247 . S
C439 O446 1.289 . S
C440 O458 1.245 . S
C440 O459 1.274 . S
O441 C429 1.241 . S
O441 Mg434 2.042 . S
O442 C429 1.280 . S
O442 Mg432 1.984 1_545 S
O443 C430 1.277 . S
O443 Mg434 2.041 1_565 S
O444 C430 1.245 . S
O444 Mg432 1.988 . S
O445 Mg432 2.061 1_545 S
O445 C439 1.247 . S
O446 Mg435 2.106 . S
O446 Mg438 2.238 1_545 S
O446 C439 1.289 . S
C447 O448 1.245 . S
C447 O449 1.274 . S
O448 Mg435 2.079 . S
O448 C447 1.245 . S
O449 Mg434 2.038 . S
O449 C447 1.274 . S
O450 Mg438 2.042 . S
O450 C453 1.241 . S
O451 Mg437 1.984 1_565 S
O451 C453 1.280 . S
O452 Mg438 2.041 1_545 S
O452 C456 1.277 . S
C453 O450 1.241 . S
C453 O451 1.280 . S
O454 Mg437 1.988 . S
O454 C456 1.245 . S
O455 C431 1.260 . S
O455 Mg437 2.054 1_565 S
C456 O452 1.277 . S
C456 O454 1.245 . S
O457 C431 1.289 . S
O457 Mg434 2.238 1_565 S
O457 Mg435 2.106 1_565 S
O458 Mg435 2.079 1_565 S
O458 C440 1.245 . S
O459 Mg438 2.038 . S
O459 C440 1.274 . S
C460 O472 1.241 . S
C460 O473 1.280 . S
C461 O474 1.277 . S
C461 O475 1.245 . S
C462 O486 1.247 . S
C462 O488 1.289 . S
Mg463 O464 1.910 1_554 S
Mg463 O473 1.984 1_554 S
Mg463 O475 1.988 . S
Mg463 O476 2.061 . S
O464 Mg463 1.910 1_556 S
O464 Mg465 2.002 . S
O464 Mg466 1.914 1_556 S
Mg465 O464 2.002 . S
Mg465 O472 2.042 . S
Mg465 O474 2.041 1_556 S
Mg465 O480 2.038 . S
Mg465 O488 2.238 . S
Mg466 O464 1.914 1_554 S
Mg466 O467 1.917 . S
Mg466 O477 2.106 . S
Mg466 O479 2.079 1_554 S
Mg466 O488 2.106 1_554 S
Mg466 O489 2.079 . S
O467 Mg466 1.917 . S
O467 Mg468 1.926 1_554 S
O467 Mg469 1.986 . S
Mg468 O467 1.926 1_556 S
Mg468 O482 1.984 1_556 S
Mg468 O485 1.988 . S
Mg468 O486 2.061 . S
Mg469 O467 1.986 . S
Mg469 O477 2.238 . S
Mg469 O481 2.042 . S
Mg469 O483 2.041 . S
Mg469 O490 2.038 . S
C470 O476 1.247 . S
C470 O477 1.289 . S
C471 O489 1.245 . S
C471 O490 1.274 . S
O472 C460 1.241 . S
O472 Mg465 2.042 . S
O473 C460 1.280 . S
O473 Mg463 1.984 1_556 S
O474 C461 1.277 . S
O474 Mg465 2.041 1_554 S
O475 C461 1.245 . S
O475 Mg463 1.988 . S
O476 Mg463 2.061 . S
O476 C470 1.247 . S
O477 Mg466 2.106 . S
O477 Mg469 2.238 . S
O477 C470 1.289 . S
C478 O479 1.245 . S
C478 O480 1.274 . S
O479 Mg466 2.079 1_556 S
O479 C478 1.245 . S
O480 Mg465 2.038 . S
O480 C478 1.274 . S
O481 Mg469 2.042 . S
O481 C484 1.241 . S
O482 Mg468 1.984 1_554 S
O482 C484 1.280 . S
O483 Mg469 2.041 . S
O483 C487 1.277 1_554 S
C484 O481 1.241 . S
C484 O482 1.280 . S
O485 Mg468 1.988 . S
O485 C487 1.245 . S
O486 C462 1.247 . S
O486 Mg468 2.061 . S
C487 O483 1.277 1_556 S
C487 O485 1.245 . S
O488 C462 1.289 . S
O488 Mg465 2.238 . S
O488 Mg466 2.106 1_556 S
O489 Mg466 2.079 . S
O489 C471 1.245 . S
O490 Mg469 2.038 . S
O490 C471 1.274 . S
C491 O503 1.241 . S
C491 O504 1.280 . S
C492 O505 1.277 . S
C492 O506 1.245 . S
C493 O517 1.247 . S
C493 O519 1.289 . S
Mg494 O495 1.926 . S
Mg494 O504 1.984 . S
Mg494 O506 1.988 . S
Mg494 O507 2.061 . S
O495 Mg494 1.926 . S
O495 Mg496 1.986 . S
O495 Mg497 1.917 . S
Mg496 O495 1.986 . S
Mg496 O503 2.042 . S
Mg496 O505 2.041 . S
Mg496 O511 2.038 . S
Mg496 O519 2.238 . S
Mg497 O495 1.917 . S
Mg497 O498 1.917 . S
Mg497 O508 2.106 . S
Mg497 O510 2.079 . S
Mg497 O519 2.106 . S
Mg497 O520 2.079 . S
O498 Mg497 1.917 . S
O498 Mg499 1.926 . S
O498 Mg500 1.986 . S
Mg499 O498 1.926 . S
Mg499 O513 1.984 . S
Mg499 O516 1.988 . S
Mg499 O517 2.061 . S
Mg500 O498 1.986 . S
Mg500 O508 2.238 . S
Mg500 O512 2.042 . S
Mg500 O514 2.041 . S
Mg500 O521 2.038 . S
C501 O507 1.247 . S
C501 O508 1.289 . S
C502 O520 1.245 . S
C502 O521 1.274 . S
O503 C491 1.241 . S
O503 Mg496 2.042 . S
O504 C491 1.280 . S
O504 Mg494 1.984 . S
O505 C492 1.277 . S
O505 Mg496 2.041 . S
O506 C492 1.245 . S
O506 Mg494 1.988 . S
O507 Mg494 2.061 . S
O507 C501 1.247 . S
O508 Mg497 2.106 . S
O508 Mg500 2.238 . S
O508 C501 1.289 . S
C509 O510 1.245 . S
C509 O511 1.274 . S
O510 Mg497 2.079 . S
O510 C509 1.245 . S
O511 Mg496 2.038 . S
O511 C509 1.274 . S
O512 Mg500 2.042 . S
O512 C515 1.241 . S
O513 Mg499 1.984 . S
O513 C515 1.280 . S
O514 Mg500 2.041 . S
O514 C518 1.277 . S
C515 O512 1.241 . S
C515 O513 1.280 . S
O516 Mg499 1.988 . S
O516 C518 1.245 . S
O517 C493 1.247 . S
O517 Mg499 2.061 . S
C518 O514 1.277 . S
C518 O516 1.245 . S
O519 C493 1.289 . S
O519 Mg496 2.238 . S
O519 Mg497 2.106 . S
O520 Mg497 2.079 . S
O520 C502 1.245 . S
O521 Mg500 2.038 . S
O521 C502 1.274 . S
C522 O534 1.241 . S
C522 O535 1.280 . S
C523 O536 1.277 . S
C523 O537 1.245 . S
C524 O548 1.248 1_556 S
C524 O550 1.289 . S
Mg525 O526 1.926 1_556 S
Mg525 O535 1.984 1_556 S
Mg525 O537 1.988 . S
Mg525 O538 2.061 1_556 S
O526 Mg525 1.926 1_554 S
O526 Mg527 1.986 . S
O526 Mg528 1.917 . S
Mg527 O526 1.986 . S
Mg527 O534 2.042 . S
Mg527 O536 2.041 1_554 S
Mg527 O542 2.038 . S
Mg527 O550 2.238 1_554 S
Mg528 O526 1.917 . S
Mg528 O529 1.917 1_554 S
Mg528 O539 2.106 . S
Mg528 O541 2.079 . S
Mg528 O550 2.106 1_554 S
Mg528 O551 2.079 1_554 S
O529 Mg528 1.917 1_556 S
O529 Mg530 1.926 1_556 S
O529 Mg531 1.986 . S
Mg530 O529 1.926 1_554 S
Mg530 O544 1.984 1_554 S
Mg530 O547 1.988 . S
Mg530 O548 2.061 . S
Mg531 O529 1.986 . S
Mg531 O539 2.238 1_556 S
Mg531 O543 2.042 . S
Mg531 O545 2.041 1_556 S
Mg531 O552 2.038 . S
C532 O538 1.248 . S
C532 O539 1.289 . S
C533 O551 1.245 . S
C533 O552 1.274 . S
O534 C522 1.241 . S
O534 Mg527 2.042 . S
O535 C522 1.280 . S
O535 Mg525 1.984 1_554 S
O536 C523 1.277 . S
O536 Mg527 2.041 1_556 S
O537 C523 1.245 . S
O537 Mg525 1.988 . S
O538 Mg525 2.061 1_554 S
O538 C532 1.248 . S
O539 Mg528 2.106 . S
O539 Mg531 2.238 1_554 S
O539 C532 1.289 . S
C540 O541 1.245 . S
C540 O542 1.274 . S
O541 Mg528 2.079 . S
O541 C540 1.245 . S
O542 Mg527 2.038 . S
O542 C540 1.274 . S
O543 Mg531 2.042 . S
O543 C546 1.241 . S
O544 Mg530 1.984 1_556 S
O544 C546 1.280 . S
O545 Mg531 2.041 1_554 S
O545 C549 1.277 . S
C546 O543 1.241 . S
C546 O544 1.280 . S
O547 Mg530 1.988 . S
O547 C549 1.245 . S
O548 C524 1.248 1_554 S
O548 Mg530 2.061 . S
C549 O545 1.277 . S
C549 O547 1.245 . S
O550 C524 1.289 . S
O550 Mg527 2.238 1_556 S
O550 Mg528 2.106 1_556 S
O551 Mg528 2.079 1_556 S
O551 C533 1.245 . S
O552 Mg531 2.038 . S
O552 C533 1.274 . S
C553 O565 1.241 . S
C553 O566 1.280 . S
C554 O567 1.277 . S
C554 O568 1.245 . S
C555 O579 1.247 . S
C555 O581 1.289 . S
Mg556 O557 1.926 . S
Mg556 O566 1.984 . S
Mg556 O568 1.988 . S
Mg556 O569 2.061 . S
O557 Mg556 1.926 . S
O557 Mg558 1.986 . S
O557 Mg559 1.917 . S
Mg558 O557 1.986 . S
Mg558 O565 2.042 . S
Mg558 O567 2.041 . S
Mg558 O573 2.038 . S
Mg558 O581 2.238 . S
Mg559 O557 1.917 . S
Mg559 O560 1.917 . S
Mg559 O570 2.106 . S
Mg559 O572 2.079 . S
Mg559 O581 2.106 . S
Mg559 O582 2.079 . S
O560 Mg559 1.917 . S
O560 Mg561 1.926 . S
O560 Mg562 1.986 . S
Mg561 O560 1.926 . S
Mg561 O575 1.984 . S
Mg561 O578 1.988 . S
Mg561 O579 2.061 . S
Mg562 O560 1.986 . S
Mg562 O570 2.238 . S
Mg562 O574 2.042 . S
Mg562 O576 2.041 . S
Mg562 O583 2.038 . S
C563 O569 1.247 . S
C563 O570 1.289 . S
C564 O582 1.245 . S
C564 O583 1.274 . S
O565 C553 1.241 . S
O565 Mg558 2.042 . S
O566 C553 1.280 . S
O566 Mg556 1.984 . S
O567 C554 1.277 . S
O567 Mg558 2.041 . S
O568 C554 1.245 . S
O568 Mg556 1.988 . S
O569 Mg556 2.061 . S
O569 C563 1.247 . S
O570 Mg559 2.106 . S
O570 Mg562 2.238 . S
O570 C563 1.289 . S
C571 O572 1.245 . S
C571 O573 1.274 . S
O572 Mg559 2.079 . S
O572 C571 1.245 . S
O573 Mg558 2.038 . S
O573 C571 1.274 . S
O574 Mg562 2.042 . S
O574 C577 1.241 . S
O575 Mg561 1.984 . S
O575 C577 1.280 . S
O576 Mg562 2.041 . S
O576 C580 1.277 . S
C577 O574 1.241 . S
C577 O575 1.280 . S
O578 Mg561 1.988 . S
O578 C580 1.245 . S
O579 C555 1.247 . S
O579 Mg561 2.061 . S
C580 O576 1.277 . S
C580 O578 1.245 . S
O581 C555 1.289 . S
O581 Mg558 2.238 . S
O581 Mg559 2.106 . S
O582 Mg559 2.079 . S
O582 C564 1.245 . S
O583 Mg562 2.038 . S
O583 C564 1.274 . S
C584 O596 1.241 . S
C584 O597 1.280 . S
C585 O598 1.277 . S
C585 O599 1.245 . S
C586 O610 1.247 . S
C586 O612 1.289 . S
Mg587 O588 1.926 . S
Mg587 O597 1.984 . S
Mg587 O599 1.988 . S
Mg587 O600 2.061 . S
O588 Mg587 1.926 . S
O588 Mg589 1.986 . S
O588 Mg590 1.917 . S
Mg589 O588 1.986 . S
Mg589 O596 2.042 . S
Mg589 O598 2.041 . S
Mg589 O604 2.038 . S
Mg589 O612 2.238 . S
Mg590 O588 1.917 . S
Mg590 O591 1.917 . S
Mg590 O601 2.106 . S
Mg590 O603 2.079 . S
Mg590 O612 2.106 . S
Mg590 O613 2.079 . S
O591 Mg590 1.917 . S
O591 Mg592 1.926 . S
O591 Mg593 1.986 . S
Mg592 O591 1.926 . S
Mg592 O606 1.984 . S
Mg592 O609 1.988 . S
Mg592 O610 2.061 . S
Mg593 O591 1.986 . S
Mg593 O601 2.238 . S
Mg593 O605 2.042 . S
Mg593 O607 2.041 . S
Mg593 O614 2.038 . S
C594 O600 1.247 . S
C594 O601 1.289 . S
C595 O613 1.245 . S
C595 O614 1.274 . S
O596 C584 1.241 . S
O596 Mg589 2.042 . S
O597 C584 1.280 . S
O597 Mg587 1.984 . S
O598 C585 1.277 . S
O598 Mg589 2.041 . S
O599 C585 1.245 . S
O599 Mg587 1.988 . S
O600 Mg587 2.061 . S
O600 C594 1.247 . S
O601 Mg590 2.106 . S
O601 Mg593 2.238 . S
O601 C594 1.289 . S
C602 O603 1.245 . S
C602 O604 1.274 . S
O603 Mg590 2.079 . S
O603 C602 1.245 . S
O604 Mg589 2.038 . S
O604 C602 1.274 . S
O605 Mg593 2.042 . S
O605 C608 1.241 . S
O606 Mg592 1.984 . S
O606 C608 1.280 . S
O607 Mg593 2.041 . S
O607 C611 1.277 . S
C608 O605 1.241 . S
C608 O606 1.280 . S
O609 Mg592 1.988 . S
O609 C611 1.245 . S
O610 C586 1.247 . S
O610 Mg592 2.061 . S
C611 O607 1.277 . S
C611 O609 1.245 . S
O612 C586 1.289 . S
O612 Mg589 2.238 . S
O612 Mg590 2.106 . S
O613 Mg590 2.079 . S
O613 C595 1.245 . S
O614 Mg593 2.038 . S
O614 C595 1.274 . S
C615 O627 1.241 . S
C615 O628 1.280 . S
C616 O629 1.277 . S
C616 O630 1.245 . S
C617 O641 1.247 . S
C617 O643 1.289 . S
Mg618 O619 1.926 . S
Mg618 O628 1.984 . S
Mg618 O630 1.988 . S
Mg618 O631 2.061 . S
O619 Mg618 1.926 . S
O619 Mg620 1.986 . S
O619 Mg621 1.917 . S
Mg620 O619 1.986 . S
Mg620 O627 2.042 . S
Mg620 O629 2.041 . S
Mg620 O635 2.038 . S
Mg620 O643 2.238 . S
Mg621 O619 1.917 . S
Mg621 O622 1.917 . S
Mg621 O632 2.106 . S
Mg621 O634 2.079 . S
Mg621 O643 2.106 . S
Mg621 O644 2.079 . S
O622 Mg621 1.917 . S
O622 Mg623 1.926 . S
O622 Mg624 1.986 . S
Mg623 O622 1.926 . S
Mg623 O637 1.984 . S
Mg623 O640 1.988 . S
Mg623 O641 2.061 . S
Mg624 O622 1.986 . S
Mg624 O632 2.238 . S
Mg624 O636 2.042 . S
Mg624 O638 2.041 . S
Mg624 O645 2.038 . S
C625 O631 1.247 . S
C625 O632 1.289 . S
C626 O644 1.245 . S
C626 O645 1.274 . S
O627 C615 1.241 . S
O627 Mg620 2.042 . S
O628 C615 1.280 . S
O628 Mg618 1.984 . S
O629 C616 1.277 . S
O629 Mg620 2.041 . S
O630 C616 1.245 . S
O630 Mg618 1.988 . S
O631 Mg618 2.061 . S
O631 C625 1.247 . S
O632 Mg621 2.106 . S
O632 Mg624 2.238 . S
O632 C625 1.289 . S
C633 O634 1.245 . S
C633 O635 1.274 . S
O634 Mg621 2.079 . S
O634 C633 1.245 . S
O635 Mg620 2.038 . S
O635 C633 1.274 . S
O636 Mg624 2.042 . S
O636 C639 1.241 . S
O637 Mg623 1.984 . S
O637 C639 1.280 . S
O638 Mg624 2.041 . S
O638 C642 1.277 . S
C639 O636 1.241 . S
C639 O637 1.280 . S
O640 Mg623 1.988 . S
O640 C642 1.245 . S
O641 C617 1.247 . S
O641 Mg623 2.061 . S
C642 O638 1.277 . S
C642 O640 1.245 . S
O643 C617 1.289 . S
O643 Mg620 2.238 . S
O643 Mg621 2.106 . S
O644 Mg621 2.079 . S
O644 C626 1.245 . S
O645 Mg624 2.038 . S
O645 C626 1.274 . S
C646 O658 1.241 . S
C646 O659 1.280 . S
C647 O660 1.277 . S
C647 O661 1.245 . S
C648 O672 1.247 . S
C648 O674 1.289 . S
Mg649 O650 1.926 1_565 S
Mg649 O659 1.984 1_565 S
Mg649 O661 1.988 . S
Mg649 O662 2.061 1_565 S
O650 Mg649 1.926 1_545 S
O650 Mg651 1.986 . S
O650 Mg652 1.921 . S
Mg651 O650 1.986 . S
Mg651 O658 2.042 . S
Mg651 O660 2.041 1_545 S
Mg651 O666 2.038 . S
Mg651 O674 2.238 1_545 S
Mg652 O650 1.921 . S
Mg652 O653 1.913 1_545 S
Mg652 O663 2.108 . S
Mg652 O665 2.098 . S
Mg652 O674 2.105 1_545 S
Mg652 O675 2.059 1_545 S
O653 Mg652 1.913 1_565 S
O653 Mg654 1.926 1_565 S
O653 Mg655 1.986 . S
Mg654 O653 1.926 1_545 S
Mg654 O668 1.984 1_545 S
Mg654 O671 1.988 . S
Mg654 O672 2.061 1_545 S
Mg655 O653 1.986 . S
Mg655 O663 2.238 1_565 S
Mg655 O667 2.042 . S
Mg655 O669 2.041 1_565 S
Mg655 O676 2.038 . S
C656 O662 1.247 . S
C656 O663 1.289 . S
C657 O675 1.245 . S
C657 O676 1.274 . S
O658 C646 1.241 . S
O658 Mg651 2.042 . S
O659 C646 1.280 . S
O659 Mg649 1.984 1_545 S
O660 C647 1.277 . S
O660 Mg651 2.041 1_565 S
O661 C647 1.245 . S
O661 Mg649 1.988 . S
O662 Mg649 2.061 1_545 S
O662 C656 1.247 . S
O663 Mg652 2.108 . S
O663 Mg655 2.238 1_545 S
O663 C656 1.289 . S
C664 O665 1.245 . S
C664 O666 1.274 . S
O665 Mg652 2.098 . S
O665 C664 1.245 . S
O666 Mg651 2.038 . S
O666 C664 1.274 . S
O667 Mg655 2.042 . S
O667 C670 1.241 . S
O668 Mg654 1.984 1_565 S
O668 C670 1.280 . S
O669 Mg655 2.041 1_545 S
O669 C673 1.277 . S
C670 O667 1.241 . S
C670 O668 1.280 . S
O671 Mg654 1.988 . S
O671 C673 1.245 . S
O672 C648 1.247 . S
O672 Mg654 2.061 1_565 S
C673 O669 1.277 . S
C673 O671 1.245 . S
O674 C648 1.289 . S
O674 Mg651 2.238 1_565 S
O674 Mg652 2.105 1_565 S
O675 Mg652 2.059 1_565 S
O675 C657 1.245 . S
O676 Mg655 2.038 . S
O676 C657 1.274 . S
C677 O689 1.241 . S
C677 O690 1.280 . S
C678 O691 1.277 . S
C678 O692 1.245 . S
C679 O703 1.247 . S
C679 O705 1.289 . S
Mg680 O681 1.926 . S
Mg680 O690 1.984 . S
Mg680 O692 1.988 . S
Mg680 O693 2.061 . S
O681 Mg680 1.926 . S
O681 Mg682 1.986 . S
O681 Mg683 1.917 . S
Mg682 O681 1.986 . S
Mg682 O689 2.042 . S
Mg682 O691 2.041 . S
Mg682 O697 2.038 . S
Mg682 O705 2.238 . S
Mg683 O681 1.917 . S
Mg683 O684 1.917 . S
Mg683 O694 2.106 . S
Mg683 O696 2.079 . S
Mg683 O705 2.106 . S
Mg683 O706 2.079 . S
O684 Mg683 1.917 . S
O684 Mg685 1.926 . S
O684 Mg686 1.986 . S
Mg685 O684 1.926 . S
Mg685 O699 1.984 . S
Mg685 O702 1.988 . S
Mg685 O703 2.061 . S
Mg686 O684 1.986 . S
Mg686 O694 2.238 . S
Mg686 O698 2.042 . S
Mg686 O700 2.041 . S
Mg686 O707 2.038 . S
C687 O693 1.247 . S
C687 O694 1.289 . S
C688 O706 1.245 . S
C688 O707 1.274 . S
O689 C677 1.241 . S
O689 Mg682 2.042 . S
O690 C677 1.280 . S
O690 Mg680 1.984 . S
O691 C678 1.277 . S
O691 Mg682 2.041 . S
O692 C678 1.245 . S
O692 Mg680 1.988 . S
O693 Mg680 2.061 . S
O693 C687 1.247 . S
O694 Mg683 2.106 . S
O694 Mg686 2.238 . S
O694 C687 1.289 . S
C695 O696 1.245 . S
C695 O697 1.274 . S
O696 Mg683 2.079 . S
O696 C695 1.245 . S
O697 Mg682 2.038 . S
O697 C695 1.274 . S
O698 Mg686 2.042 . S
O698 C701 1.241 . S
O699 Mg685 1.984 . S
O699 C701 1.280 . S
O700 Mg686 2.041 . S
O700 C704 1.277 . S
C701 O698 1.241 . S
C701 O699 1.280 . S
O702 Mg685 1.988 . S
O702 C704 1.245 . S
O703 C679 1.247 . S
O703 Mg685 2.061 . S
C704 O700 1.277 . S
C704 O702 1.245 . S
O705 C679 1.289 . S
O705 Mg682 2.238 . S
O705 Mg683 2.106 . S
O706 Mg683 2.079 . S
O706 C688 1.245 . S
O707 Mg686 2.038 . S
O707 C688 1.274 . S
H708 C714 0.930 . S
H709 C718 0.930 . S
H710 C723 0.929 . S
H711 C721 0.929 . S
H712 C716 0.929 . S
H713 C722 0.929 . S
C714 H708 0.930 . S
C714 C715 1.367 . S
C714 C722 1.378 . S
C715 C714 1.367 . S
C715 C723 1.433 . S
C716 H712 0.929 . S
C716 C718 1.378 . S
C716 C720 1.350 . S
C717 C720 1.463 . S
C717 C722 1.350 . S
C717 N725 1.427 . S
C718 H709 0.930 . S
C718 C716 1.378 . S
C718 C719 1.367 . S
C719 C718 1.367 . S
C719 C721 1.433 . S
C720 C716 1.350 . S
C720 C717 1.463 . S
C720 N724 1.427 . S
C721 H711 0.929 . S
C721 C719 1.433 . S
C721 N724 1.384 . S
C722 H713 0.929 . S
C722 C714 1.378 . S
C722 C717 1.350 . S
C723 H710 0.929 . S
C723 C715 1.433 . S
C723 N725 1.384 . S
N724 C720 1.427 . S
N724 C721 1.384 . S
N725 C717 1.427 . S
N725 C723 1.384 . S
H726 C732 0.930 . S
H727 C736 0.930 . S
H728 C741 0.929 . S
H729 C739 0.929 . S
H730 C734 0.929 . S
H731 C740 0.929 . S
C732 H726 0.930 . S
C732 C733 1.367 . S
C732 C740 1.378 . S
C733 C732 1.367 . S
C733 C741 1.433 . S
C734 H730 0.929 . S
C734 C736 1.378 . S
C734 C738 1.350 . S
C735 C738 1.463 . S
C735 C740 1.350 . S
C735 N743 1.427 . S
C736 H727 0.930 . S
C736 C734 1.378 . S
C736 C737 1.367 . S
C737 C736 1.367 . S
C737 C739 1.433 . S
C738 C734 1.350 . S
C738 C735 1.463 . S
C738 N742 1.427 . S
C739 H729 0.929 . S
C739 C737 1.433 . S
C739 N742 1.384 . S
C740 H731 0.929 . S
C740 C732 1.378 . S
C740 C735 1.350 . S
C741 H728 0.929 . S
C741 C733 1.433 . S
C741 N743 1.384 . S
N742 C738 1.427 . S
N742 C739 1.384 . S
N743 C735 1.427 . S
N743 C741 1.384 . S
H744 C750 0.930 . S
H745 C754 0.930 . S
H746 C759 0.929 . S
H747 C757 0.929 . S
H748 C752 0.929 . S
H749 C758 0.929 . S
C750 H744 0.930 . S
C750 C751 1.367 . S
C750 C758 1.378 . S
C751 C750 1.367 . S
C751 C759 1.433 . S
C752 H748 0.929 . S
C752 C754 1.378 . S
C752 C756 1.350 . S
C753 C756 1.463 . S
C753 C758 1.350 . S
C753 N761 1.427 . S
C754 H745 0.930 . S
C754 C752 1.378 . S
C754 C755 1.367 . S
C755 C754 1.367 . S
C755 C757 1.433 . S
C756 C752 1.350 . S
C756 C753 1.463 . S
C756 N760 1.427 . S
C757 H747 0.929 . S
C757 C755 1.433 . S
C757 N760 1.384 . S
C758 H749 0.929 . S
C758 C750 1.378 . S
C758 C753 1.350 . S
C759 H746 0.929 . S
C759 C751 1.433 . S
C759 N761 1.384 . S
N760 C756 1.427 . S
N760 C757 1.384 . S
N761 C753 1.427 . S
N761 C759 1.384 . S
H762 C768 0.930 . S
H763 C772 0.930 . S
H764 C777 0.929 . S
H765 C775 0.929 . S
H766 C770 0.929 . S
H767 C776 0.929 . S
C768 H762 0.930 . S
C768 C769 1.367 . S
C768 C776 1.378 . S
C769 C768 1.367 . S
C769 C777 1.433 . S
C770 H766 0.929 . S
C770 C772 1.378 . S
C770 C774 1.350 . S
C771 C774 1.463 . S
C771 C776 1.350 . S
C771 N779 1.427 . S
C772 H763 0.930 . S
C772 C770 1.378 . S
C772 C773 1.367 . S
C773 C772 1.367 . S
C773 C775 1.433 . S
C774 C770 1.350 . S
C774 C771 1.463 . S
C774 N778 1.427 . S
C775 H765 0.929 . S
C775 C773 1.433 . S
C775 N778 1.384 . S
C776 H767 0.929 . S
C776 C768 1.378 . S
C776 C771 1.350 . S
C777 H764 0.929 . S
C777 C769 1.433 . S
C777 N779 1.384 . S
N778 C774 1.427 . S
N778 C775 1.384 . S
N779 C771 1.427 . S
N779 C777 1.384 . S
H780 C786 0.930 . S
H781 C790 0.930 . S
H782 C795 0.929 . S
H783 C793 0.929 . S
H784 C788 0.929 . S
H785 C794 0.929 . S
C786 H780 0.930 . S
C786 C787 1.367 . S
C786 C794 1.378 . S
C787 C786 1.367 . S
C787 C795 1.433 . S
C788 H784 0.929 . S
C788 C790 1.378 . S
C788 C792 1.350 . S
C789 C792 1.463 . S
C789 C794 1.350 . S
C789 N797 1.427 . S
C790 H781 0.930 . S
C790 C788 1.378 . S
C790 C791 1.367 . S
C791 C790 1.367 . S
C791 C793 1.433 . S
C792 C788 1.350 . S
C792 C789 1.463 . S
C792 N796 1.427 . S
C793 H783 0.929 . S
C793 C791 1.433 . S
C793 N796 1.384 . S
C794 H785 0.929 . S
C794 C786 1.378 . S
C794 C789 1.350 . S
C795 H782 0.929 . S
C795 C787 1.433 . S
C795 N797 1.384 . S
N796 C792 1.427 . S
N796 C793 1.384 . S
N797 C789 1.427 . S
N797 C795 1.384 . S
H798 C804 0.930 . S
H799 C808 0.930 . S
H800 C813 0.929 . S
H801 C811 0.929 . S
H802 C806 0.929 . S
H803 C812 0.929 . S
C804 H798 0.930 . S
C804 C805 1.367 . S
C804 C812 1.378 . S
C805 C804 1.367 . S
C805 C813 1.433 . S
C806 H802 0.929 . S
C806 C808 1.378 . S
C806 C810 1.350 . S
C807 C810 1.463 . S
C807 C812 1.350 . S
C807 N815 1.427 . S
C808 H799 0.930 . S
C808 C806 1.378 . S
C808 C809 1.367 . S
C809 C808 1.367 . S
C809 C811 1.433 . S
C810 C806 1.350 . S
C810 C807 1.463 . S
C810 N814 1.427 . S
C811 H801 0.929 . S
C811 C809 1.433 . S
C811 N814 1.384 . S
C812 H803 0.929 . S
C812 C804 1.378 . S
C812 C807 1.350 . S
C813 H800 0.929 . S
C813 C805 1.433 . S
C813 N815 1.384 . S
N814 C810 1.427 . S
N814 C811 1.384 . S
N815 C807 1.427 . S
N815 C813 1.384 . S
H816 C822 0.930 . S
H817 C826 0.930 . S
H818 C831 0.929 . S
H819 C829 0.929 . S
H820 C824 0.929 . S
H821 C830 0.929 . S
C822 H816 0.930 . S
C822 C823 1.367 . S
C822 C830 1.378 . S
C823 C822 1.367 . S
C823 C831 1.433 . S
C824 H820 0.929 . S
C824 C826 1.378 . S
C824 C828 1.350 . S
C825 C828 1.463 . S
C825 C830 1.350 . S
C825 N833 1.427 . S
C826 H817 0.930 . S
C826 C824 1.378 . S
C826 C827 1.367 . S
C827 C826 1.367 . S
C827 C829 1.433 . S
C828 C824 1.350 . S
C828 C825 1.463 . S
C828 N832 1.427 . S
C829 H819 0.929 . S
C829 C827 1.433 . S
C829 N832 1.384 . S
C830 H821 0.929 . S
C830 C822 1.378 . S
C830 C825 1.350 . S
C831 H818 0.929 . S
C831 C823 1.433 . S
C831 N833 1.384 . S
N832 C828 1.427 . S
N832 C829 1.384 . S
N833 C825 1.427 . S
N833 C831 1.384 . S
H834 C840 0.930 . S
H835 C844 0.930 . S
H836 C849 0.929 . S
H837 C847 0.929 . S
H838 C842 0.929 . S
H839 C848 0.929 . S
C840 H834 0.930 . S
C840 C841 1.367 . S
C840 C848 1.378 . S
C841 C840 1.367 . S
C841 C849 1.433 . S
C842 H838 0.929 . S
C842 C844 1.378 . S
C842 C846 1.350 . S
C843 C846 1.463 . S
C843 C848 1.350 . S
C843 N851 1.427 . S
C844 H835 0.930 . S
C844 C842 1.378 . S
C844 C845 1.367 . S
C845 C844 1.367 . S
C845 C847 1.433 . S
C846 C842 1.350 . S
C846 C843 1.463 . S
C846 N850 1.427 . S
C847 H837 0.929 . S
C847 C845 1.433 . S
C847 N850 1.384 . S
C848 H839 0.929 . S
C848 C840 1.378 . S
C848 C843 1.350 . S
C849 H836 0.929 . S
C849 C841 1.433 . S
C849 N851 1.384 . S
N850 C846 1.427 . S
N850 C847 1.384 . S
N851 C843 1.427 . S
N851 C849 1.384 . S
H852 C858 0.930 . S
H853 C862 0.930 . S
H854 C867 0.929 . S
H855 C865 0.929 . S
H856 C860 0.929 . S
H857 C866 0.929 . S
C858 H852 0.930 . S
C858 C859 1.367 . S
C858 C866 1.378 . S
C859 C858 1.367 . S
C859 C867 1.433 . S
C860 H856 0.929 . S
C860 C862 1.378 . S
C860 C864 1.350 . S
C861 C864 1.463 . S
C861 C866 1.350 . S
C861 N869 1.427 . S
C862 H853 0.930 . S
C862 C860 1.378 . S
C862 C863 1.367 . S
C863 C862 1.367 . S
C863 C865 1.433 . S
C864 C860 1.350 . S
C864 C861 1.463 . S
C864 N868 1.427 . S
C865 H855 0.929 . S
C865 C863 1.433 . S
C865 N868 1.384 . S
C866 H857 0.929 . S
C866 C858 1.378 . S
C866 C861 1.350 . S
C867 H854 0.929 . S
C867 C859 1.433 . S
C867 N869 1.384 . S
N868 C864 1.427 . S
N868 C865 1.384 . S
N869 C861 1.427 . S
N869 C867 1.384 . S
H870 C876 0.930 . S
H871 C880 0.930 . S
H872 C885 0.929 . S
H873 C883 0.929 . S
H874 C878 0.929 . S
H875 C884 0.929 . S
C876 H870 0.930 . S
C876 C877 1.367 . S
C876 C884 1.378 . S
C877 C876 1.367 . S
C877 C885 1.433 . S
C878 H874 0.929 . S
C878 C880 1.378 1_545 S
C878 C882 1.350 . S
C879 C882 1.463 . S
C879 C884 1.350 . S
C879 N887 1.427 . S
C880 H871 0.930 . S
C880 C878 1.378 1_565 S
C880 C881 1.367 . S
C881 C880 1.367 . S
C881 C883 1.433 1_565 S
C882 C878 1.350 . S
C882 C879 1.463 . S
C882 N886 1.427 . S
C883 H873 0.929 . S
C883 C881 1.433 1_545 S
C883 N886 1.384 . S
C884 H875 0.929 . S
C884 C876 1.378 . S
C884 C879 1.350 . S
C885 H872 0.929 . S
C885 C877 1.433 . S
C885 N887 1.384 . S
N886 C882 1.427 . S
N886 C883 1.384 . S
N887 C879 1.427 . S
N887 C885 1.384 . S
H888 C894 0.930 . S
H889 C898 0.930 . S
H890 C903 0.929 . S
H891 C901 0.929 . S
H892 C896 0.929 . S
H893 C902 0.929 . S
C894 H888 0.930 . S
C894 C895 1.367 . S
C894 C902 1.378 . S
C895 C894 1.367 . S
C895 C903 1.433 . S
C896 H892 0.929 . S
C896 C898 1.378 . S
C896 C900 1.350 . S
C897 C900 1.463 . S
C897 C902 1.350 . S
C897 N905 1.427 . S
C898 H889 0.930 . S
C898 C896 1.378 . S
C898 C899 1.367 . S
C899 C898 1.367 . S
C899 C901 1.433 . S
C900 C896 1.350 . S
C900 C897 1.463 . S
C900 N904 1.427 . S
C901 H891 0.929 . S
C901 C899 1.433 . S
C901 N904 1.384 . S
C902 H893 0.929 . S
C902 C894 1.378 . S
C902 C897 1.350 . S
C903 H890 0.929 . S
C903 C895 1.433 . S
C903 N905 1.384 . S
N904 C900 1.427 . S
N904 C901 1.384 . S
N905 C897 1.427 . S
N905 C903 1.384 . S
H906 C912 0.930 . S
H907 C916 0.930 . S
H908 C921 0.929 . S
H909 C919 0.929 . S
H910 C914 0.929 . S
H911 C920 0.929 . S
C912 H906 0.930 . S
C912 C913 1.367 . S
C912 C920 1.378 . S
C913 C912 1.367 . S
C913 C921 1.433 . S
C914 H910 0.929 . S
C914 C916 1.378 . S
C914 C918 1.350 . S
C915 C918 1.463 . S
C915 C920 1.350 . S
C915 N923 1.427 . S
C916 H907 0.930 . S
C916 C914 1.378 . S
C916 C917 1.367 . S
C917 C916 1.367 . S
C917 C919 1.433 . S
C918 C914 1.350 . S
C918 C915 1.463 . S
C918 N922 1.427 . S
C919 H909 0.929 . S
C919 C917 1.433 . S
C919 N922 1.384 . S
C920 H911 0.929 . S
C920 C912 1.378 . S
C920 C915 1.350 . S
C921 H908 0.929 . S
C921 C913 1.433 . S
C921 N923 1.384 . S
N922 C918 1.427 . S
N922 C919 1.384 . S
N923 C915 1.427 . S
N923 C921 1.384 . S
H924 C930 0.930 . S
H925 C934 0.930 . S
H926 C939 0.929 . S
H927 C937 0.929 . S
H928 C932 0.929 . S
H929 C938 0.929 . S
C930 H924 0.930 . S
C930 C931 1.367 . S
C930 C938 1.378 . S
C931 C930 1.367 . S
C931 C939 1.433 . S
C932 H928 0.929 . S
C932 C934 1.378 . S
C932 C936 1.350 . S
C933 C936 1.463 . S
C933 C938 1.350 . S
C933 N941 1.427 . S
C934 H925 0.930 . S
C934 C932 1.378 . S
C934 C935 1.367 . S
C935 C934 1.367 . S
C935 C937 1.433 . S
C936 C932 1.350 . S
C936 C933 1.463 . S
C936 N940 1.427 . S
C937 H927 0.929 . S
C937 C935 1.433 . S
C937 N940 1.384 . S
C938 H929 0.929 . S
C938 C930 1.378 . S
C938 C933 1.350 . S
C939 H926 0.929 . S
C939 C931 1.433 . S
C939 N941 1.384 . S
N940 C936 1.427 . S
N940 C937 1.384 . S
N941 C933 1.427 . S
N941 C939 1.384 . S
H942 C948 0.930 . S
H943 C952 0.930 . S
H944 C957 0.929 . S
H945 C955 0.929 . S
H946 C950 0.929 . S
H947 C956 0.929 . S
C948 H942 0.930 . S
C948 C949 1.367 . S
C948 C956 1.378 . S
C949 C948 1.367 . S
C949 C957 1.433 . S
C950 H946 0.929 . S
C950 C952 1.378 1_545 S
C950 C954 1.350 . S
C951 C954 1.463 . S
C951 C956 1.350 . S
C951 N959 1.427 . S
C952 H943 0.930 . S
C952 C950 1.378 1_565 S
C952 C953 1.367 . S
C953 C952 1.367 . S
C953 C955 1.433 1_565 S
C954 C950 1.350 . S
C954 C951 1.463 . S
C954 N958 1.427 . S
C955 H945 0.929 . S
C955 C953 1.433 1_545 S
C955 N958 1.384 . S
C956 H947 0.929 . S
C956 C948 1.378 . S
C956 C951 1.350 . S
C957 H944 0.929 . S
C957 C949 1.433 . S
C957 N959 1.384 . S
N958 C954 1.427 . S
N958 C955 1.384 . S
N959 C951 1.427 . S
N959 C957 1.384 . S
H960 C966 0.930 . S
H961 C970 0.930 . S
H962 C975 0.929 . S
H963 C973 0.929 . S
H964 C968 0.929 . S
H965 C974 0.929 . S
C966 H960 0.930 . S
C966 C967 1.367 . S
C966 C974 1.378 . S
C967 C966 1.367 . S
C967 C975 1.433 . S
C968 H964 0.929 . S
C968 C970 1.378 . S
C968 C972 1.350 . S
C969 C972 1.463 . S
C969 C974 1.350 . S
C969 N977 1.427 . S
C970 H961 0.930 . S
C970 C968 1.378 . S
C970 C971 1.367 . S
C971 C970 1.367 . S
C971 C973 1.433 . S
C972 C968 1.350 . S
C972 C969 1.463 . S
C972 N976 1.427 . S
C973 H963 0.929 . S
C973 C971 1.433 . S
C973 N976 1.384 . S
C974 H965 0.929 . S
C974 C966 1.378 . S
C974 C969 1.350 . S
C975 H962 0.929 . S
C975 C967 1.433 . S
C975 N977 1.384 . S
N976 C972 1.427 . S
N976 C973 1.384 . S
N977 C969 1.427 . S
N977 C975 1.384 . S
H978 C984 0.930 . S
H979 C988 0.930 . S
H980 C993 0.929 . S
H981 C991 0.929 . S
H982 C986 0.929 . S
H983 C992 0.929 . S
C984 H978 0.930 . S
C984 C985 1.367 . S
C984 C992 1.378 . S
C985 C984 1.367 . S
C985 C993 1.433 . S
C986 H982 0.929 . S
C986 C988 1.378 . S
C986 C990 1.350 . S
C987 C990 1.463 . S
C987 C992 1.350 . S
C987 N995 1.427 . S
C988 H979 0.930 . S
C988 C986 1.378 . S
C988 C989 1.367 . S
C989 C988 1.367 . S
C989 C991 1.433 . S
C990 C986 1.350 . S
C990 C987 1.463 . S
C990 N994 1.427 . S
C991 H981 0.929 . S
C991 C989 1.433 . S
C991 N994 1.384 . S
C992 H983 0.929 . S
C992 C984 1.378 . S
C992 C987 1.350 . S
C993 H980 0.929 . S
C993 C985 1.433 . S
C993 N995 1.384 . S
N994 C990 1.427 . S
N994 C991 1.384 . S
N995 C987 1.427 . S
N995 C993 1.384 . S
H996 C1002 0.930 . S
H997 C1006 0.920 1_554 S
H998 C1011 0.929 . S
H999 C1009 0.929 . S
H1000 C1004 0.929 . S
H1001 C1010 0.929 1_556 S
C1002 H996 0.930 . S
C1002 C1003 1.367 . S
C1002 C1010 1.378 . S
C1003 C1002 1.367 . S
C1003 C1011 1.433 . S
C1004 H1000 0.929 . S
C1004 C1006 1.362 1_554 S
C1004 C1008 1.350 . S
C1005 C1008 1.463 . S
C1005 C1010 1.350 . S
C1005 N1013 1.427 . S
C1006 H997 0.920 1_556 S
C1006 C1004 1.362 1_556 S
C1006 C1007 1.395 . S
C1007 C1006 1.395 . S
C1007 C1009 1.433 . S
C1008 C1004 1.350 . S
C1008 C1005 1.463 . S
C1008 N1012 1.427 1_554 S
C1009 H999 0.929 . S
C1009 C1007 1.433 . S
C1009 N1012 1.384 . S
C1010 H1001 0.929 1_554 S
C1010 C1002 1.378 . S
C1010 C1005 1.350 . S
C1011 H998 0.929 . S
C1011 C1003 1.433 . S
C1011 N1013 1.384 . S
N1012 C1008 1.427 1_556 S
N1012 C1009 1.384 . S
N1013 C1005 1.427 . S
N1013 C1011 1.384 . S
H1014 C1020 0.930 . S
H1015 C1024 0.930 . S
H1016 C1029 0.929 . S
H1017 C1027 0.929 . S
H1018 C1022 0.929 . S
H1019 C1028 0.929 . S
C1020 H1014 0.930 . S
C1020 C1021 1.367 . S
C1020 C1028 1.378 . S
C1021 C1020 1.367 . S
C1021 C1029 1.433 . S
C1022 H1018 0.929 . S
C1022 C1024 1.378 . S
C1022 C1026 1.350 . S
C1023 C1026 1.463 . S
C1023 C1028 1.350 . S
C1023 N1031 1.427 . S
C1024 H1015 0.930 . S
C1024 C1022 1.378 . S
C1024 C1025 1.367 . S
C1025 C1024 1.367 . S
C1025 C1027 1.433 . S
C1026 C1022 1.350 . S
C1026 C1023 1.463 . S
C1026 N1030 1.427 . S
C1027 H1017 0.929 . S
C1027 C1025 1.433 . S
C1027 N1030 1.384 . S
C1028 H1019 0.929 . S
C1028 C1020 1.378 . S
C1028 C1023 1.350 . S
C1029 H1016 0.929 . S
C1029 C1021 1.433 . S
C1029 N1031 1.384 . S
N1030 C1026 1.427 . S
N1030 C1027 1.384 . S
N1031 C1023 1.427 . S
N1031 C1029 1.384 . S
H1032 C1038 0.930 . S
H1033 C1042 0.930 . S
H1034 C1047 0.929 . S
H1035 C1045 0.929 . S
H1036 C1040 0.929 . S
H1037 C1046 0.929 . S
C1038 H1032 0.930 . S
C1038 C1039 1.367 . S
C1038 C1046 1.378 . S
C1039 C1038 1.367 . S
C1039 C1047 1.433 . S
C1040 H1036 0.929 . S
C1040 C1042 1.378 . S
C1040 C1044 1.350 . S
C1041 C1044 1.463 . S
C1041 C1046 1.350 . S
C1041 N1049 1.427 . S
C1042 H1033 0.930 . S
C1042 C1040 1.378 . S
C1042 C1043 1.367 . S
C1043 C1042 1.367 . S
C1043 C1045 1.433 . S
C1044 C1040 1.350 . S
C1044 C1041 1.463 . S
C1044 N1048 1.427 . S
C1045 H1035 0.929 . S
C1045 C1043 1.433 . S
C1045 N1048 1.384 . S
C1046 H1037 0.929 . S
C1046 C1038 1.378 . S
C1046 C1041 1.350 . S
C1047 H1034 0.929 . S
C1047 C1039 1.433 . S
C1047 N1049 1.384 . S
N1048 C1044 1.427 . S
N1048 C1045 1.384 . S
N1049 C1041 1.427 . S
N1049 C1047 1.384 . S
H1050 C1056 0.930 . S
H1051 C1060 0.930 . S
H1052 C1065 0.929 . S
H1053 C1063 0.929 . S
H1054 C1058 0.929 . S
H1055 C1064 0.929 . S
C1056 H1050 0.930 . S
C1056 C1057 1.367 . S
C1056 C1064 1.378 . S
C1057 C1056 1.367 . S
C1057 C1065 1.433 . S
C1058 H1054 0.929 . S
C1058 C1060 1.378 . S
C1058 C1062 1.350 . S
C1059 C1062 1.463 . S
C1059 C1064 1.350 . S
C1059 N1067 1.427 . S
C1060 H1051 0.930 . S
C1060 C1058 1.378 . S
C1060 C1061 1.367 . S
C1061 C1060 1.367 . S
C1061 C1063 1.433 . S
C1062 C1058 1.350 . S
C1062 C1059 1.463 . S
C1062 N1066 1.427 . S
C1063 H1053 0.929 . S
C1063 C1061 1.433 . S
C1063 N1066 1.384 . S
C1064 H1055 0.929 . S
C1064 C1056 1.378 . S
C1064 C1059 1.350 . S
C1065 H1052 0.929 . S
C1065 C1057 1.433 . S
C1065 N1067 1.384 . S
N1066 C1062 1.427 . S
N1066 C1063 1.384 . S
N1067 C1059 1.427 . S
N1067 C1065 1.384 . S
H1068 C1074 0.930 . S
H1069 C1078 0.940 . S
H1070 C1083 0.929 . S
H1071 C1081 0.941 . S
H1072 C1076 0.929 . S
H1073 C1082 0.929 . S
C1074 H1068 0.930 . S
C1074 C1075 1.367 . S
C1074 C1082 1.378 . S
C1075 C1074 1.367 . S
C1075 C1083 1.433 . S
C1076 H1072 0.929 . S
C1076 C1078 1.359 1_655 S
C1076 C1080 1.350 . S
C1077 C1080 1.463 . S
C1077 C1082 1.350 . S
C1077 N1085 1.427 . S
C1078 H1069 0.940 . S
C1078 C1076 1.359 1_455 S
C1078 C1079 1.377 . S
C1079 C1078 1.377 . S
C1079 C1081 1.443 . S
C1080 C1076 1.350 . S
C1080 C1077 1.463 . S
C1080 N1084 1.427 . S
C1081 H1071 0.941 . S
C1081 C1079 1.443 . S
C1081 N1084 1.362 1_455 S
C1082 H1073 0.929 . S
C1082 C1074 1.378 . S
C1082 C1077 1.350 . S
C1083 H1070 0.929 . S
C1083 C1075 1.433 . S
C1083 N1085 1.384 . S
N1084 C1080 1.427 . S
N1084 C1081 1.362 1_655 S
N1085 C1077 1.427 . S
N1085 C1083 1.384 . S
H1086 C1092 0.930 . S
H1087 C1096 0.930 . S
H1088 C1101 0.929 . S
H1089 C1099 0.929 . S
H1090 C1094 0.929 . S
H1091 C1100 0.929 . S
C1092 H1086 0.930 . S
C1092 C1093 1.367 . S
C1092 C1100 1.378 . S
C1093 C1092 1.367 . S
C1093 C1101 1.433 . S
C1094 H1090 0.929 . S
C1094 C1096 1.378 . S
C1094 C1098 1.350 . S
C1095 C1098 1.463 . S
C1095 C1100 1.350 . S
C1095 N1103 1.427 . S
C1096 H1087 0.930 . S
C1096 C1094 1.378 . S
C1096 C1097 1.367 . S
C1097 C1096 1.367 . S
C1097 C1099 1.433 . S
C1098 C1094 1.350 . S
C1098 C1095 1.463 . S
C1098 N1102 1.427 . S
C1099 H1089 0.929 . S
C1099 C1097 1.433 . S
C1099 N1102 1.384 . S
C1100 H1091 0.929 . S
C1100 C1092 1.378 . S
C1100 C1095 1.350 . S
C1101 H1088 0.929 . S
C1101 C1093 1.433 . S
C1101 N1103 1.384 . S
N1102 C1098 1.427 . S
N1102 C1099 1.384 . S
N1103 C1095 1.427 . S
N1103 C1101 1.384 . S
H1104 C1110 0.930 . S
H1105 C1114 0.930 . S
H1106 C1119 0.929 . S
H1107 C1117 0.929 . S
H1108 C1112 0.929 . S
H1109 C1118 0.929 . S
C1110 H1104 0.930 . S
C1110 C1111 1.367 . S
C1110 C1118 1.378 . S
C1111 C1110 1.367 . S
C1111 C1119 1.433 . S
C1112 H1108 0.929 . S
C1112 C1114 1.378 . S
C1112 C1116 1.350 . S
C1113 C1116 1.463 . S
C1113 C1118 1.350 . S
C1113 N1121 1.427 . S
C1114 H1105 0.930 . S
C1114 C1112 1.378 . S
C1114 C1115 1.367 . S
C1115 C1114 1.367 . S
C1115 C1117 1.433 . S
C1116 C1112 1.350 . S
C1116 C1113 1.463 . S
C1116 N1120 1.427 . S
C1117 H1107 0.929 . S
C1117 C1115 1.433 . S
C1117 N1120 1.384 . S
C1118 H1109 0.929 . S
C1118 C1110 1.378 . S
C1118 C1113 1.350 . S
C1119 H1106 0.929 . S
C1119 C1111 1.433 . S
C1119 N1121 1.384 . S
N1120 C1116 1.427 . S
N1120 C1117 1.384 . S
N1121 C1113 1.427 . S
N1121 C1119 1.384 . S
H1122 C1128 0.930 . S
H1123 C1132 0.930 . S
H1124 C1137 0.929 . S
H1125 C1135 0.929 . S
H1126 C1130 0.929 . S
H1127 C1136 0.929 . S
C1128 H1122 0.930 . S
C1128 C1129 1.367 . S
C1128 C1136 1.378 . S
C1129 C1128 1.367 . S
C1129 C1137 1.433 . S
C1130 H1126 0.929 . S
C1130 C1132 1.378 . S
C1130 C1134 1.350 . S
C1131 C1134 1.463 . S
C1131 C1136 1.350 . S
C1131 N1139 1.427 . S
C1132 H1123 0.930 . S
C1132 C1130 1.378 . S
C1132 C1133 1.367 . S
C1133 C1132 1.367 . S
C1133 C1135 1.433 . S
C1134 C1130 1.350 . S
C1134 C1131 1.463 . S
C1134 N1138 1.427 . S
C1135 H1125 0.929 . S
C1135 C1133 1.433 . S
C1135 N1138 1.384 . S
C1136 H1127 0.929 . S
C1136 C1128 1.378 . S
C1136 C1131 1.350 . S
C1137 H1124 0.929 . S
C1137 C1129 1.433 . S
C1137 N1139 1.384 . S
N1138 C1134 1.427 . S
N1138 C1135 1.384 . S
N1139 C1131 1.427 . S
N1139 C1137 1.384 . S
H1140 C1146 0.930 . S
H1141 C1150 0.930 . S
H1142 C1155 0.929 . S
H1143 C1153 0.929 . S
H1144 C1148 0.929 . S
H1145 C1154 0.929 . S
C1146 H1140 0.930 . S
C1146 C1147 1.367 . S
C1146 C1154 1.378 . S
C1147 C1146 1.367 . S
C1147 C1155 1.433 . S
C1148 H1144 0.929 . S
C1148 C1150 1.378 . S
C1148 C1152 1.350 . S
C1149 C1152 1.463 . S
C1149 C1154 1.350 . S
C1149 N1157 1.427 . S
C1150 H1141 0.930 . S
C1150 C1148 1.378 . S
C1150 C1151 1.367 . S
C1151 C1150 1.367 . S
C1151 C1153 1.433 . S
C1152 C1148 1.350 . S
C1152 C1149 1.463 . S
C1152 N1156 1.427 . S
C1153 H1143 0.929 . S
C1153 C1151 1.433 . S
C1153 N1156 1.384 . S
C1154 H1145 0.929 . S
C1154 C1146 1.378 . S
C1154 C1149 1.350 . S
C1155 H1142 0.929 . S
C1155 C1147 1.433 . S
C1155 N1157 1.384 . S
N1156 C1152 1.427 . S
N1156 C1153 1.384 . S
N1157 C1149 1.427 . S
N1157 C1155 1.384 . S
H1158 C1164 0.930 . S
H1159 C1168 0.930 . S
H1160 C1173 0.929 . S
H1161 C1171 0.929 . S
H1162 C1166 0.929 . S
H1163 C1172 0.929 . S
C1164 H1158 0.930 . S
C1164 C1165 1.367 . S
C1164 C1172 1.378 . S
C1165 C1164 1.367 . S
C1165 C1173 1.433 . S
C1166 H1162 0.929 . S
C1166 C1168 1.378 . S
C1166 C1170 1.350 . S
C1167 C1170 1.463 . S
C1167 C1172 1.350 . S
C1167 N1175 1.427 . S
C1168 H1159 0.930 . S
C1168 C1166 1.378 . S
C1168 C1169 1.367 1_554 S
C1169 C1168 1.367 1_556 S
C1169 C1171 1.433 . S
C1170 C1166 1.350 . S
C1170 C1167 1.463 . S
C1170 N1174 1.427 . S
C1171 H1161 0.929 . S
C1171 C1169 1.433 . S
C1171 N1174 1.384 1_556 S
C1172 H1163 0.929 . S
C1172 C1164 1.378 . S
C1172 C1167 1.350 . S
C1173 H1160 0.929 . S
C1173 C1165 1.433 . S
C1173 N1175 1.384 . S
N1174 C1170 1.427 . S
N1174 C1171 1.384 1_554 S
N1175 C1167 1.427 . S
N1175 C1173 1.384 . S
H1176 C1182 0.930 . S
H1177 C1186 0.930 . S
H1178 C1191 0.929 . S
H1179 C1189 0.929 . S
H1180 C1184 0.929 . S
H1181 C1190 0.929 . S
C1182 H1176 0.930 . S
C1182 C1183 1.367 . S
C1182 C1190 1.378 . S
C1183 C1182 1.367 . S
C1183 C1191 1.433 . S
C1184 H1180 0.929 . S
C1184 C1186 1.378 . S
C1184 C1188 1.350 . S
C1185 C1188 1.463 . S
C1185 C1190 1.350 . S
C1185 N1193 1.427 . S
C1186 H1177 0.930 . S
C1186 C1184 1.378 . S
C1186 C1187 1.367 . S
C1187 C1186 1.367 . S
C1187 C1189 1.433 . S
C1188 C1184 1.350 . S
C1188 C1185 1.463 . S
C1188 N1192 1.427 . S
C1189 H1179 0.929 . S
C1189 C1187 1.433 . S
C1189 N1192 1.384 . S
C1190 H1181 0.929 . S
C1190 C1182 1.378 . S
C1190 C1185 1.350 . S
C1191 H1178 0.929 . S
C1191 C1183 1.433 . S
C1191 N1193 1.384 . S
N1192 C1188 1.427 . S
N1192 C1189 1.384 . S
N1193 C1185 1.427 . S
N1193 C1191 1.384 . S
H1194 C1200 0.930 . S
H1195 C1204 0.908 1_556 S
H1196 C1209 0.929 . S
H1197 C1207 0.929 . S
H1198 C1202 0.929 . S
H1199 C1208 0.929 . S
C1200 H1194 0.930 . S
C1200 C1201 1.367 . S
C1200 C1208 1.378 . S
C1201 C1200 1.367 . S
C1201 C1209 1.433 . S
C1202 H1198 0.929 . S
C1202 C1204 1.410 . S
C1202 C1206 1.350 . S
C1203 C1206 1.463 . S
C1203 C1208 1.350 . S
C1203 N1211 1.427 . S
C1204 H1195 0.908 1_554 S
C1204 C1202 1.410 . S
C1204 C1205 1.359 1_554 S
C1205 C1204 1.359 1_556 S
C1205 C1207 1.433 1_556 S
C1206 C1202 1.350 . S
C1206 C1203 1.463 . S
C1206 N1210 1.427 . S
C1207 H1197 0.929 . S
C1207 C1205 1.433 1_554 S
C1207 N1210 1.384 . S
C1208 H1199 0.929 . S
C1208 C1200 1.378 . S
C1208 C1203 1.350 . S
C1209 H1196 0.929 . S
C1209 C1201 1.433 . S
C1209 N1211 1.384 . S
N1210 C1206 1.427 . S
N1210 C1207 1.384 . S
N1211 C1203 1.427 . S
N1211 C1209 1.384 . S
H1212 C1218 0.930 . S
H1213 C1222 0.930 . S
H1214 C1227 0.929 . S
H1215 C1225 0.929 . S
H1216 C1220 0.929 . S
H1217 C1226 0.929 . S
C1218 H1212 0.930 . S
C1218 C1219 1.367 . S
C1218 C1226 1.378 . S
C1219 C1218 1.367 . S
C1219 C1227 1.433 . S
C1220 H1216 0.929 . S
C1220 C1222 1.378 . S
C1220 C1224 1.350 . S
C1221 C1224 1.463 . S
C1221 C1226 1.350 . S
C1221 N1229 1.427 . S
C1222 H1213 0.930 . S
C1222 C1220 1.378 . S
C1222 C1223 1.367 . S
C1223 C1222 1.367 . S
C1223 C1225 1.433 . S
C1224 C1220 1.350 . S
C1224 C1221 1.463 . S
C1224 N1228 1.427 . S
C1225 H1215 0.929 . S
C1225 C1223 1.433 . S
C1225 N1228 1.384 . S
C1226 H1217 0.929 . S
C1226 C1218 1.378 . S
C1226 C1221 1.350 . S
C1227 H1214 0.929 . S
C1227 C1219 1.433 . S
C1227 N1229 1.384 . S
N1228 C1224 1.427 . S
N1228 C1225 1.384 . S
N1229 C1221 1.427 . S
N1229 C1227 1.384 . S
H1230 C1236 0.930 . S
H1231 C1240 0.930 . S
H1232 C1245 0.929 . S
H1233 C1243 0.929 . S
H1234 C1238 0.929 . S
H1235 C1244 0.929 . S
C1236 H1230 0.930 . S
C1236 C1237 1.367 . S
C1236 C1244 1.378 . S
C1237 C1236 1.367 . S
C1237 C1245 1.433 . S
C1238 H1234 0.929 . S
C1238 C1240 1.378 1_556 S
C1238 C1242 1.350 . S
C1239 C1242 1.463 . S
C1239 C1244 1.350 . S
C1239 N1247 1.427 . S
C1240 H1231 0.930 . S
C1240 C1238 1.378 1_554 S
C1240 C1241 1.367 . S
C1241 C1240 1.367 . S
C1241 C1243 1.433 1_554 S
C1242 C1238 1.350 . S
C1242 C1239 1.463 . S
C1242 N1246 1.427 . S
C1243 H1233 0.929 . S
C1243 C1241 1.433 1_556 S
C1243 N1246 1.384 . S
C1244 H1235 0.929 . S
C1244 C1236 1.378 . S
C1244 C1239 1.350 . S
C1245 H1232 0.929 . S
C1245 C1237 1.433 . S
C1245 N1247 1.384 . S
N1246 C1242 1.427 . S
N1246 C1243 1.384 . S
N1247 C1239 1.427 . S
N1247 C1245 1.384 . S
H1248 C1254 0.930 . S
H1249 C1258 0.930 . S
H1250 C1263 0.929 . S
H1251 C1261 0.929 . S
H1252 C1256 0.929 . S
H1253 C1262 0.929 . S
C1254 H1248 0.930 . S
C1254 C1255 1.367 . S
C1254 C1262 1.378 . S
C1255 C1254 1.367 . S
C1255 C1263 1.433 . S
C1256 H1252 0.929 . S
C1256 C1258 1.378 . S
C1256 C1260 1.350 . S
C1257 C1260 1.463 . S
C1257 C1262 1.350 . S
C1257 N1265 1.427 . S
C1258 H1249 0.930 . S
C1258 C1256 1.378 . S
C1258 C1259 1.367 . S
C1259 C1258 1.367 . S
C1259 C1261 1.433 . S
C1260 C1256 1.350 . S
C1260 C1257 1.463 . S
C1260 N1264 1.427 . S
C1261 H1251 0.929 . S
C1261 C1259 1.433 . S
C1261 N1264 1.384 . S
C1262 H1253 0.929 . S
C1262 C1254 1.378 . S
C1262 C1257 1.350 . S
C1263 H1250 0.929 . S
C1263 C1255 1.433 . S
C1263 N1265 1.384 . S
N1264 C1260 1.427 . S
N1264 C1261 1.384 . S
N1265 C1257 1.427 . S
N1265 C1263 1.384 . S
H1266 C1272 0.930 . S
H1267 C1276 0.930 . S
H1268 C1281 0.929 . S
H1269 C1279 0.929 . S
H1270 C1274 0.929 . S
H1271 C1280 0.929 . S
C1272 H1266 0.930 . S
C1272 C1273 1.367 . S
C1272 C1280 1.378 . S
C1273 C1272 1.367 . S
C1273 C1281 1.433 . S
C1274 H1270 0.929 . S
C1274 C1276 1.378 1_556 S
C1274 C1278 1.350 . S
C1275 C1278 1.463 . S
C1275 C1280 1.350 . S
C1275 N1283 1.427 . S
C1276 H1267 0.930 . S
C1276 C1274 1.378 1_554 S
C1276 C1277 1.367 . S
C1277 C1276 1.367 . S
C1277 C1279 1.433 1_554 S
C1278 C1274 1.350 . S
C1278 C1275 1.463 . S
C1278 N1282 1.427 . S
C1279 H1269 0.929 . S
C1279 C1277 1.433 1_556 S
C1279 N1282 1.384 . S
C1280 H1271 0.929 . S
C1280 C1272 1.378 . S
C1280 C1275 1.350 . S
C1281 H1268 0.929 . S
C1281 C1273 1.433 . S
C1281 N1283 1.384 . S
N1282 C1278 1.427 . S
N1282 C1279 1.384 . S
N1283 C1275 1.427 . S
N1283 C1281 1.384 . S
H1284 C1290 0.930 . S
H1285 C1294 0.930 . S
H1286 C1299 0.929 . S
H1287 C1297 0.929 . S
H1288 C1292 0.929 . S
H1289 C1298 0.929 . S
C1290 H1284 0.930 . S
C1290 C1291 1.367 . S
C1290 C1298 1.378 . S
C1291 C1290 1.367 . S
C1291 C1299 1.433 . S
C1292 H1288 0.929 . S
C1292 C1294 1.378 . S
C1292 C1296 1.350 . S
C1293 C1296 1.463 . S
C1293 C1298 1.350 . S
C1293 N1301 1.427 . S
C1294 H1285 0.930 . S
C1294 C1292 1.378 . S
C1294 C1295 1.367 . S
C1295 C1294 1.367 . S
C1295 C1297 1.433 . S
C1296 C1292 1.350 . S
C1296 C1293 1.463 . S
C1296 N1300 1.427 . S
C1297 H1287 0.929 . S
C1297 C1295 1.433 . S
C1297 N1300 1.384 . S
C1298 H1289 0.929 . S
C1298 C1290 1.378 . S
C1298 C1293 1.350 . S
C1299 H1286 0.929 . S
C1299 C1291 1.433 . S
C1299 N1301 1.384 . S
N1300 C1296 1.427 . S
N1300 C1297 1.384 . S
N1301 C1293 1.427 . S
N1301 C1299 1.384 . S
H1302 C1308 0.930 . S
H1303 C1312 0.930 . S
H1304 C1317 0.929 . S
H1305 C1315 0.929 . S
H1306 C1310 0.929 . S
H1307 C1316 0.929 . S
C1308 H1302 0.930 . S
C1308 C1309 1.367 . S
C1308 C1316 1.378 . S
C1309 C1308 1.367 . S
C1309 C1317 1.433 . S
C1310 H1306 0.929 . S
C1310 C1312 1.378 . S
C1310 C1314 1.350 . S
C1311 C1314 1.463 . S
C1311 C1316 1.350 . S
C1311 N1319 1.427 . S
C1312 H1303 0.930 . S
C1312 C1310 1.378 . S
C1312 C1313 1.367 . S
C1313 C1312 1.367 . S
C1313 C1315 1.433 . S
C1314 C1310 1.350 . S
C1314 C1311 1.463 . S
C1314 N1318 1.427 . S
C1315 H1305 0.929 . S
C1315 C1313 1.433 . S
C1315 N1318 1.384 . S
C1316 H1307 0.929 . S
C1316 C1308 1.378 . S
C1316 C1311 1.350 . S
C1317 H1304 0.929 . S
C1317 C1309 1.433 . S
C1317 N1319 1.384 . S
N1318 C1314 1.427 . S
N1318 C1315 1.384 . S
N1319 C1311 1.427 . S
N1319 C1317 1.384 . S
H1320 C1326 0.930 . S
H1321 C1330 0.930 . S
H1322 C1335 0.929 . S
H1323 C1333 0.929 . S
H1324 C1328 0.929 . S
H1325 C1334 0.929 . S
C1326 H1320 0.930 . S
C1326 C1327 1.367 . S
C1326 C1334 1.378 . S
C1327 C1326 1.367 . S
C1327 C1335 1.433 . S
C1328 H1324 0.929 . S
C1328 C1330 1.378 . S
C1328 C1332 1.350 . S
C1329 C1332 1.463 . S
C1329 C1334 1.350 . S
C1329 N1337 1.427 . S
C1330 H1321 0.930 . S
C1330 C1328 1.378 . S
C1330 C1331 1.367 . S
C1331 C1330 1.367 . S
C1331 C1333 1.433 . S
C1332 C1328 1.350 . S
C1332 C1329 1.463 . S
C1332 N1336 1.427 . S
C1333 H1323 0.929 . S
C1333 C1331 1.433 . S
C1333 N1336 1.384 . S
C1334 H1325 0.929 . S
C1334 C1326 1.378 . S
C1334 C1329 1.350 . S
C1335 H1322 0.929 . S
C1335 C1327 1.433 . S
C1335 N1337 1.384 . S
N1336 C1332 1.427 . S
N1336 C1333 1.384 . S
N1337 C1329 1.427 . S
N1337 C1335 1.384 . S
H1338 C1344 0.930 . S
H1339 C1348 0.930 . S
H1340 C1353 0.929 . S
H1341 C1351 0.929 . S
H1342 C1346 0.929 . S
H1343 C1352 0.929 . S
C1344 H1338 0.930 . S
C1344 C1345 1.367 . S
C1344 C1352 1.378 . S
C1345 C1344 1.367 . S
C1345 C1353 1.433 . S
C1346 H1342 0.929 . S
C1346 C1348 1.378 . S
C1346 C1350 1.350 . S
C1347 C1350 1.463 . S
C1347 C1352 1.350 . S
C1347 N1355 1.427 . S
C1348 H1339 0.930 . S
C1348 C1346 1.378 . S
C1348 C1349 1.367 1_565 S
C1349 C1348 1.367 1_545 S
C1349 C1351 1.433 . S
C1350 C1346 1.350 . S
C1350 C1347 1.463 . S
C1350 N1354 1.427 . S
C1351 H1341 0.929 . S
C1351 C1349 1.433 . S
C1351 N1354 1.384 1_545 S
C1352 H1343 0.929 . S
C1352 C1344 1.378 . S
C1352 C1347 1.350 . S
C1353 H1340 0.929 . S
C1353 C1345 1.433 . S
C1353 N1355 1.384 . S
N1354 C1350 1.427 . S
N1354 C1351 1.384 1_565 S
N1355 C1347 1.427 . S
N1355 C1353 1.384 . S
H1356 C1362 0.930 . S
H1357 C1366 0.930 . S
H1358 C1371 0.929 . S
H1359 C1369 0.929 . S
H1360 C1364 0.929 . S
H1361 C1370 0.929 . S
C1362 H1356 0.930 . S
C1362 C1363 1.367 . S
C1362 C1370 1.378 . S
C1363 C1362 1.367 . S
C1363 C1371 1.433 . S
C1364 H1360 0.929 . S
C1364 C1366 1.378 . S
C1364 C1368 1.350 . S
C1365 C1368 1.463 . S
C1365 C1370 1.350 . S
C1365 N1373 1.427 . S
C1366 H1357 0.930 . S
C1366 C1364 1.378 . S
C1366 C1367 1.367 . S
C1367 C1366 1.367 . S
C1367 C1369 1.433 . S
C1368 C1364 1.350 . S
C1368 C1365 1.463 . S
C1368 N1372 1.427 . S
C1369 H1359 0.929 . S
C1369 C1367 1.433 . S
C1369 N1372 1.384 . S
C1370 H1361 0.929 . S
C1370 C1362 1.378 . S
C1370 C1365 1.350 . S
C1371 H1358 0.929 . S
C1371 C1363 1.433 . S
C1371 N1373 1.384 . S
N1372 C1368 1.427 . S
N1372 C1369 1.384 . S
N1373 C1365 1.427 . S
N1373 C1371 1.384 . S
H1374 C1380 0.930 . S
H1375 C1384 0.930 . S
H1376 C1389 0.929 . S
H1377 C1387 0.929 . S
H1378 C1382 0.929 . S
H1379 C1388 0.929 . S
C1380 H1374 0.930 . S
C1380 C1381 1.367 . S
C1380 C1388 1.378 . S
C1381 C1380 1.367 . S
C1381 C1389 1.433 . S
C1382 H1378 0.929 . S
C1382 C1384 1.378 . S
C1382 C1386 1.350 . S
C1383 C1386 1.463 . S
C1383 C1388 1.350 . S
C1383 N1391 1.427 . S
C1384 H1375 0.930 . S
C1384 C1382 1.378 . S
C1384 C1385 1.367 . S
C1385 C1384 1.367 . S
C1385 C1387 1.433 . S
C1386 C1382 1.350 . S
C1386 C1383 1.463 . S
C1386 N1390 1.427 . S
C1387 H1377 0.929 . S
C1387 C1385 1.433 . S
C1387 N1390 1.384 . S
C1388 H1379 0.929 . S
C1388 C1380 1.378 . S
C1388 C1383 1.350 . S
C1389 H1376 0.929 . S
C1389 C1381 1.433 . S
C1389 N1391 1.384 . S
N1390 C1386 1.427 . S
N1390 C1387 1.384 . S
N1391 C1383 1.427 . S
N1391 C1389 1.384 . S
H1392 C1398 0.930 . S
H1393 C1402 0.930 . S
H1394 C1407 0.929 . S
H1395 C1405 0.929 . S
H1396 C1400 0.929 . S
H1397 C1406 0.929 . S
C1398 H1392 0.930 . S
C1398 C1399 1.367 . S
C1398 C1406 1.378 . S
C1399 C1398 1.367 . S
C1399 C1407 1.433 . S
C1400 H1396 0.929 . S
C1400 C1402 1.378 . S
C1400 C1404 1.350 . S
C1401 C1404 1.463 . S
C1401 C1406 1.350 . S
C1401 N1409 1.427 . S
C1402 H1393 0.930 . S
C1402 C1400 1.378 . S
C1402 C1403 1.367 . S
C1403 C1402 1.367 . S
C1403 C1405 1.433 . S
C1404 C1400 1.350 . S
C1404 C1401 1.463 . S
C1404 N1408 1.427 . S
C1405 H1395 0.929 . S
C1405 C1403 1.433 . S
C1405 N1408 1.384 . S
C1406 H1397 0.929 . S
C1406 C1398 1.378 . S
C1406 C1401 1.350 . S
C1407 H1394 0.929 . S
C1407 C1399 1.433 . S
C1407 N1409 1.384 . S
N1408 C1404 1.427 . S
N1408 C1405 1.384 . S
N1409 C1401 1.427 . S
N1409 C1407 1.384 . S
H1410 C1416 0.930 . S
H1411 C1420 0.930 . S
H1412 C1425 0.929 . S
H1413 C1423 0.929 . S
H1414 C1418 0.929 . S
H1415 C1424 0.929 . S
C1416 H1410 0.930 . S
C1416 C1417 1.367 . S
C1416 C1424 1.378 . S
C1417 C1416 1.367 . S
C1417 C1425 1.433 . S
C1418 H1414 0.929 . S
C1418 C1420 1.378 . S
C1418 C1422 1.350 . S
C1419 C1422 1.463 . S
C1419 C1424 1.350 . S
C1419 N1427 1.427 . S
C1420 H1411 0.930 . S
C1420 C1418 1.378 . S
C1420 C1421 1.367 1_565 S
C1421 C1420 1.367 1_545 S
C1421 C1423 1.433 . S
C1422 C1418 1.350 . S
C1422 C1419 1.463 . S
C1422 N1426 1.427 . S
C1423 H1413 0.929 . S
C1423 C1421 1.433 . S
C1423 N1426 1.384 1_545 S
C1424 H1415 0.929 . S
C1424 C1416 1.378 . S
C1424 C1419 1.350 . S
C1425 H1412 0.929 . S
C1425 C1417 1.433 . S
C1425 N1427 1.384 . S
N1426 C1422 1.427 . S
N1426 C1423 1.384 1_565 S
N1427 C1419 1.427 . S
N1427 C1425 1.384 . S
H1428 C1434 0.930 . S
H1429 C1438 0.930 . S
H1430 C1443 0.929 . S
H1431 C1441 0.929 . S
H1432 C1436 0.929 . S
H1433 C1442 0.929 . S
C1434 H1428 0.930 . S
C1434 C1435 1.367 . S
C1434 C1442 1.378 . S
C1435 C1434 1.367 . S
C1435 C1443 1.433 . S
C1436 H1432 0.929 . S
C1436 C1438 1.378 . S
C1436 C1440 1.350 . S
C1437 C1440 1.463 . S
C1437 C1442 1.350 . S
C1437 N1445 1.427 . S
C1438 H1429 0.930 . S
C1438 C1436 1.378 . S
C1438 C1439 1.367 . S
C1439 C1438 1.367 . S
C1439 C1441 1.433 . S
C1440 C1436 1.350 . S
C1440 C1437 1.463 . S
C1440 N1444 1.427 . S
C1441 H1431 0.929 . S
C1441 C1439 1.433 . S
C1441 N1444 1.384 . S
C1442 H1433 0.929 . S
C1442 C1434 1.378 . S
C1442 C1437 1.350 . S
C1443 H1430 0.929 . S
C1443 C1435 1.433 . S
C1443 N1445 1.384 . S
N1444 C1440 1.427 . S
N1444 C1441 1.384 . S
N1445 C1437 1.427 . S
N1445 C1443 1.384 . S
H1446 C1452 0.930 . S
H1447 C1456 0.930 . S
H1448 C1461 0.929 . S
H1449 C1459 0.929 . S
H1450 C1454 0.929 . S
H1451 C1460 0.929 . S
C1452 H1446 0.930 . S
C1452 C1453 1.367 . S
C1452 C1460 1.378 . S
C1453 C1452 1.367 . S
C1453 C1461 1.433 . S
C1454 H1450 0.929 . S
C1454 C1456 1.378 . S
C1454 C1458 1.350 . S
C1455 C1458 1.463 . S
C1455 C1460 1.350 . S
C1455 N1463 1.427 . S
C1456 H1447 0.930 . S
C1456 C1454 1.378 . S
C1456 C1457 1.367 . S
C1457 C1456 1.367 . S
C1457 C1459 1.433 . S
C1458 C1454 1.350 . S
C1458 C1455 1.463 . S
C1458 N1462 1.427 . S
C1459 H1449 0.929 . S
C1459 C1457 1.433 . S
C1459 N1462 1.384 . S
C1460 H1451 0.929 . S
C1460 C1452 1.378 . S
C1460 C1455 1.350 . S
C1461 H1448 0.929 . S
C1461 C1453 1.433 . S
C1461 N1463 1.384 . S
N1462 C1458 1.427 . S
N1462 C1459 1.384 . S
N1463 C1455 1.427 . S
N1463 C1461 1.384 . S
H1464 C1470 0.930 . S
H1465 C1474 0.930 . S
H1466 C1479 0.929 . S
H1467 C1477 0.929 . S
H1468 C1472 0.929 . S
H1469 C1478 0.929 . S
C1470 H1464 0.930 . S
C1470 C1471 1.367 . S
C1470 C1478 1.378 . S
C1471 C1470 1.367 . S
C1471 C1479 1.433 . S
C1472 H1468 0.929 . S
C1472 C1474 1.378 1_455 S
C1472 C1476 1.350 . S
C1473 C1476 1.463 . S
C1473 C1478 1.350 . S
C1473 N1481 1.427 . S
C1474 H1465 0.930 . S
C1474 C1472 1.378 1_655 S
C1474 C1475 1.367 . S
C1475 C1474 1.367 . S
C1475 C1477 1.433 1_655 S
C1476 C1472 1.350 . S
C1476 C1473 1.463 . S
C1476 N1480 1.427 . S
C1477 H1467 0.929 . S
C1477 C1475 1.433 1_455 S
C1477 N1480 1.384 . S
C1478 H1469 0.929 . S
C1478 C1470 1.378 . S
C1478 C1473 1.350 . S
C1479 H1466 0.929 . S
C1479 C1471 1.433 . S
C1479 N1481 1.384 . S
N1480 C1476 1.427 . S
N1480 C1477 1.384 . S
N1481 C1473 1.427 . S
N1481 C1479 1.384 . S
H1482 C1488 0.930 1_554 S
H1483 C1492 0.930 . S
H1484 C1497 0.929 . S
H1485 C1495 0.929 . S
H1486 C1490 0.929 1_556 S
H1487 C1496 0.929 . S
C1488 H1482 0.930 1_556 S
C1488 C1489 1.367 . S
C1488 C1496 1.378 1_556 S
C1489 C1488 1.367 . S
C1489 C1497 1.433 . S
C1490 H1486 0.929 1_554 S
C1490 C1492 1.378 . S
C1490 C1494 1.350 . S
C1491 C1494 1.463 1_556 S
C1491 C1496 1.350 1_556 S
C1491 N1499 1.427 . S
C1492 H1483 0.930 . S
C1492 C1490 1.378 . S
C1492 C1493 1.367 . S
C1493 C1492 1.367 . S
C1493 C1495 1.433 . S
C1494 C1490 1.350 . S
C1494 C1491 1.463 1_554 S
C1494 N1498 1.427 . S
C1495 H1485 0.929 . S
C1495 C1493 1.433 . S
C1495 N1498 1.384 . S
C1496 H1487 0.929 . S
C1496 C1488 1.378 1_554 S
C1496 C1491 1.350 1_554 S
C1497 H1484 0.929 . S
C1497 C1489 1.433 . S
C1497 N1499 1.384 . S
N1498 C1494 1.427 . S
N1498 C1495 1.384 . S
N1499 C1491 1.427 . S
N1499 C1497 1.384 . S
H1500 C1506 0.930 . S
H1501 C1510 0.930 . S
H1502 C1515 0.929 . S
H1503 C1513 0.929 . S
H1504 C1508 0.929 . S
H1505 C1514 0.929 . S
C1506 H1500 0.930 . S
C1506 C1507 1.367 . S
C1506 C1514 1.378 . S
C1507 C1506 1.367 . S
C1507 C1515 1.433 . S
C1508 H1504 0.929 . S
C1508 C1510 1.378 . S
C1508 C1512 1.350 . S
C1509 C1512 1.463 . S
C1509 C1514 1.350 . S
C1509 N1517 1.427 . S
C1510 H1501 0.930 . S
C1510 C1508 1.378 . S
C1510 C1511 1.367 . S
C1511 C1510 1.367 . S
C1511 C1513 1.433 . S
C1512 C1508 1.350 . S
C1512 C1509 1.463 . S
C1512 N1516 1.427 . S
C1513 H1503 0.929 . S
C1513 C1511 1.433 . S
C1513 N1516 1.384 . S
C1514 H1505 0.929 . S
C1514 C1506 1.378 . S
C1514 C1509 1.350 . S
C1515 H1502 0.929 . S
C1515 C1507 1.433 . S
C1515 N1517 1.384 . S
N1516 C1512 1.427 . S
N1516 C1513 1.384 . S
N1517 C1509 1.427 . S
N1517 C1515 1.384 . S
H1518 C1524 0.930 . S
H1519 C1528 0.930 . S
H1520 C1533 0.929 . S
H1521 C1531 0.929 . S
H1522 C1526 0.929 . S
H1523 C1532 0.929 . S
C1524 H1518 0.930 . S
C1524 C1525 1.367 . S
C1524 C1532 1.378 . S
C1525 C1524 1.367 . S
C1525 C1533 1.433 . S
C1526 H1522 0.929 . S
C1526 C1528 1.378 . S
C1526 C1530 1.350 . S
C1527 C1530 1.463 . S
C1527 C1532 1.350 . S
C1527 N1535 1.427 . S
C1528 H1519 0.930 . S
C1528 C1526 1.378 . S
C1528 C1529 1.367 . S
C1529 C1528 1.367 . S
C1529 C1531 1.433 . S
C1530 C1526 1.350 . S
C1530 C1527 1.463 . S
C1530 N1534 1.427 . S
C1531 H1521 0.929 . S
C1531 C1529 1.433 . S
C1531 N1534 1.384 . S
C1532 H1523 0.929 . S
C1532 C1524 1.378 . S
C1532 C1527 1.350 . S
C1533 H1520 0.929 . S
C1533 C1525 1.433 . S
C1533 N1535 1.384 . S
N1534 C1530 1.427 . S
N1534 C1531 1.384 . S
N1535 C1527 1.427 . S
N1535 C1533 1.384 . S
H1536 C1542 0.930 . S
H1537 C1546 0.930 . S
H1538 C1551 0.929 . S
H1539 C1549 0.929 . S
H1540 C1544 0.929 . S
H1541 C1550 0.929 . S
C1542 H1536 0.930 . S
C1542 C1543 1.367 . S
C1542 C1550 1.378 . S
C1543 C1542 1.367 . S
C1543 C1551 1.433 . S
C1544 H1540 0.929 . S
C1544 C1546 1.378 1_455 S
C1544 C1548 1.350 . S
C1545 C1548 1.463 . S
C1545 C1550 1.350 . S
C1545 N1553 1.427 . S
C1546 H1537 0.930 . S
C1546 C1544 1.378 1_655 S
C1546 C1547 1.367 . S
C1547 C1546 1.367 . S
C1547 C1549 1.433 1_655 S
C1548 C1544 1.350 . S
C1548 C1545 1.463 . S
C1548 N1552 1.427 . S
C1549 H1539 0.929 . S
C1549 C1547 1.433 1_455 S
C1549 N1552 1.384 . S
C1550 H1541 0.929 . S
C1550 C1542 1.378 . S
C1550 C1545 1.350 . S
C1551 H1538 0.929 . S
C1551 C1543 1.433 . S
C1551 N1553 1.384 . S
N1552 C1548 1.427 . S
N1552 C1549 1.384 . S
N1553 C1545 1.427 . S
N1553 C1551 1.384 . S
H1554 C1560 0.930 . S
H1555 C1564 0.930 . S
H1556 C1569 0.929 . S
H1557 C1567 0.929 . S
H1558 C1562 0.929 . S
H1559 C1568 0.929 . S
C1560 H1554 0.930 . S
C1560 C1561 1.367 . S
C1560 C1568 1.378 . S
C1561 C1560 1.367 . S
C1561 C1569 1.433 . S
C1562 H1558 0.929 . S
C1562 C1564 1.378 1_655 S
C1562 C1566 1.350 . S
C1563 C1566 1.463 . S
C1563 C1568 1.350 . S
C1563 N1571 1.427 . S
C1564 H1555 0.930 . S
C1564 C1562 1.378 1_455 S
C1564 C1565 1.367 . S
C1565 C1564 1.367 . S
C1565 C1567 1.433 . S
C1566 C1562 1.350 . S
C1566 C1563 1.463 . S
C1566 N1570 1.427 . S
C1567 H1557 0.929 . S
C1567 C1565 1.433 . S
C1567 N1570 1.384 1_455 S
C1568 H1559 0.929 . S
C1568 C1560 1.378 . S
C1568 C1563 1.350 . S
C1569 H1556 0.929 . S
C1569 C1561 1.433 . S
C1569 N1571 1.384 . S
N1570 C1566 1.427 . S
N1570 C1567 1.384 1_655 S
N1571 C1563 1.427 . S
N1571 C1569 1.384 . S
H1572 C1578 0.930 . S
H1573 C1582 0.930 . S
H1574 C1587 0.929 . S
H1575 C1585 0.929 . S
H1576 C1580 0.929 . S
H1577 C1586 0.929 . S
C1578 H1572 0.930 . S
C1578 C1579 1.367 . S
C1578 C1586 1.378 . S
C1579 C1578 1.367 . S
C1579 C1587 1.433 . S
C1580 H1576 0.929 . S
C1580 C1582 1.378 . S
C1580 C1584 1.350 . S
C1581 C1584 1.463 . S
C1581 C1586 1.350 . S
C1581 N1589 1.427 . S
C1582 H1573 0.930 . S
C1582 C1580 1.378 . S
C1582 C1583 1.367 . S
C1583 C1582 1.367 . S
C1583 C1585 1.433 . S
C1584 C1580 1.350 . S
C1584 C1581 1.463 . S
C1584 N1588 1.427 . S
C1585 H1575 0.929 . S
C1585 C1583 1.433 . S
C1585 N1588 1.384 . S
C1586 H1577 0.929 . S
C1586 C1578 1.378 . S
C1586 C1581 1.350 . S
C1587 H1574 0.929 . S
C1587 C1579 1.433 . S
C1587 N1589 1.384 . S
N1588 C1584 1.427 . S
N1588 C1585 1.384 . S
N1589 C1581 1.427 . S
N1589 C1587 1.384 . S
H1590 C1596 0.930 . S
H1591 C1600 0.930 . S
H1592 C1605 0.929 . S
H1593 C1603 0.929 . S
H1594 C1598 0.929 . S
H1595 C1604 0.929 . S
C1596 H1590 0.930 . S
C1596 C1597 1.367 . S
C1596 C1604 1.378 . S
C1597 C1596 1.367 . S
C1597 C1605 1.433 . S
C1598 H1594 0.929 . S
C1598 C1600 1.378 . S
C1598 C1602 1.350 . S
C1599 C1602 1.463 . S
C1599 C1604 1.350 . S
C1599 N1607 1.427 . S
C1600 H1591 0.930 . S
C1600 C1598 1.378 . S
C1600 C1601 1.367 . S
C1601 C1600 1.367 . S
C1601 C1603 1.433 . S
C1602 C1598 1.350 . S
C1602 C1599 1.463 . S
C1602 N1606 1.427 . S
C1603 H1593 0.929 . S
C1603 C1601 1.433 . S
C1603 N1606 1.384 . S
C1604 H1595 0.929 . S
C1604 C1596 1.378 . S
C1604 C1599 1.350 . S
C1605 H1592 0.929 . S
C1605 C1597 1.433 . S
C1605 N1607 1.384 . S
N1606 C1602 1.427 . S
N1606 C1603 1.384 . S
N1607 C1599 1.427 . S
N1607 C1605 1.384 . S
H1608 C1614 0.930 . S
H1609 C1618 0.930 . S
H1610 C1623 0.929 . S
H1611 C1621 0.929 . S
H1612 C1616 0.929 . S
H1613 C1622 0.929 . S
C1614 H1608 0.930 . S
C1614 C1615 1.367 . S
C1614 C1622 1.378 . S
C1615 C1614 1.367 . S
C1615 C1623 1.433 . S
C1616 H1612 0.929 . S
C1616 C1618 1.378 . S
C1616 C1620 1.350 . S
C1617 C1620 1.463 . S
C1617 C1622 1.350 . S
C1617 N1625 1.427 . S
C1618 H1609 0.930 . S
C1618 C1616 1.378 . S
C1618 C1619 1.367 . S
C1619 C1618 1.367 . S
C1619 C1621 1.433 . S
C1620 C1616 1.350 . S
C1620 C1617 1.463 . S
C1620 N1624 1.427 . S
C1621 H1611 0.929 . S
C1621 C1619 1.433 . S
C1621 N1624 1.384 . S
C1622 H1613 0.929 . S
C1622 C1614 1.378 . S
C1622 C1617 1.350 . S
C1623 H1610 0.929 . S
C1623 C1615 1.433 . S
C1623 N1625 1.384 . S
N1624 C1620 1.427 . S
N1624 C1621 1.384 . S
N1625 C1617 1.427 . S
N1625 C1623 1.384 . S
H1626 C1632 0.930 . S
H1627 C1636 0.930 . S
H1628 C1641 0.929 . S
H1629 C1639 0.929 . S
H1630 C1634 0.929 . S
H1631 C1640 0.929 . S
C1632 H1626 0.930 . S
C1632 C1633 1.367 . S
C1632 C1640 1.378 . S
C1633 C1632 1.367 . S
C1633 C1641 1.433 . S
C1634 H1630 0.929 . S
C1634 C1636 1.378 . S
C1634 C1638 1.350 . S
C1635 C1638 1.463 . S
C1635 C1640 1.350 . S
C1635 N1643 1.427 . S
C1636 H1627 0.930 . S
C1636 C1634 1.378 . S
C1636 C1637 1.367 . S
C1637 C1636 1.367 . S
C1637 C1639 1.433 . S
C1638 C1634 1.350 . S
C1638 C1635 1.463 . S
C1638 N1642 1.427 . S
C1639 H1629 0.929 . S
C1639 C1637 1.433 . S
C1639 N1642 1.384 . S
C1640 H1631 0.929 . S
C1640 C1632 1.378 . S
C1640 C1635 1.350 . S
C1641 H1628 0.929 . S
C1641 C1633 1.433 . S
C1641 N1643 1.384 . S
N1642 C1638 1.427 . S
N1642 C1639 1.384 . S
N1643 C1635 1.427 . S
N1643 C1641 1.384 . S
H1644 C1650 0.930 . S
H1645 C1654 0.930 . S
H1646 C1659 0.929 . S
H1647 C1657 0.929 . S
H1648 C1652 0.929 . S
H1649 C1658 0.929 . S
C1650 H1644 0.930 . S
C1650 C1651 1.367 . S
C1650 C1658 1.378 . S
C1651 C1650 1.367 . S
C1651 C1659 1.433 . S
C1652 H1648 0.929 . S
C1652 C1654 1.378 . S
C1652 C1656 1.350 . S
C1653 C1656 1.463 . S
C1653 C1658 1.350 . S
C1653 N1661 1.427 . S
C1654 H1645 0.930 . S
C1654 C1652 1.378 . S
C1654 C1655 1.367 . S
C1655 C1654 1.367 . S
C1655 C1657 1.433 . S
C1656 C1652 1.350 . S
C1656 C1653 1.463 . S
C1656 N1660 1.427 . S
C1657 H1647 0.929 . S
C1657 C1655 1.433 . S
C1657 N1660 1.384 . S
C1658 H1649 0.929 . S
C1658 C1650 1.378 . S
C1658 C1653 1.350 . S
C1659 H1646 0.929 . S
C1659 C1651 1.433 . S
C1659 N1661 1.384 . S
N1660 C1656 1.427 . S
N1660 C1657 1.384 . S
N1661 C1653 1.427 . S
N1661 C1659 1.384 . S
H1662 C1668 0.930 . S
H1663 C1672 0.930 . S
H1664 C1677 0.929 . S
H1665 C1675 0.929 . S
H1666 C1670 0.929 . S
H1667 C1676 0.929 . S
C1668 H1662 0.930 . S
C1668 C1669 1.367 . S
C1668 C1676 1.378 . S
C1669 C1668 1.367 . S
C1669 C1677 1.433 . S
C1670 H1666 0.929 . S
C1670 C1672 1.378 . S
C1670 C1674 1.350 . S
C1671 C1674 1.463 . S
C1671 C1676 1.350 . S
C1671 N1679 1.427 . S
C1672 H1663 0.930 . S
C1672 C1670 1.378 . S
C1672 C1673 1.367 . S
C1673 C1672 1.367 . S
C1673 C1675 1.433 . S
C1674 C1670 1.350 . S
C1674 C1671 1.463 . S
C1674 N1678 1.427 . S
C1675 H1665 0.929 . S
C1675 C1673 1.433 . S
C1675 N1678 1.384 . S
C1676 H1667 0.929 . S
C1676 C1668 1.378 . S
C1676 C1671 1.350 . S
C1677 H1664 0.929 . S
C1677 C1669 1.433 . S
C1677 N1679 1.384 . S
N1678 C1674 1.427 . S
N1678 C1675 1.384 . S
N1679 C1671 1.427 . S
N1679 C1677 1.384 . S
H1680 C1686 0.930 . S
H1681 C1690 0.930 . S
H1682 C1695 0.929 . S
H1683 C1693 0.929 . S
H1684 C1688 0.929 . S
H1685 C1694 0.929 . S
C1686 H1680 0.930 . S
C1686 C1687 1.367 . S
C1686 C1694 1.378 . S
C1687 C1686 1.367 . S
C1687 C1695 1.433 . S
C1688 H1684 0.929 . S
C1688 C1690 1.378 . S
C1688 C1692 1.350 . S
C1689 C1692 1.463 . S
C1689 C1694 1.350 . S
C1689 N1697 1.427 . S
C1690 H1681 0.930 . S
C1690 C1688 1.378 . S
C1690 C1691 1.367 . S
C1691 C1690 1.367 . S
C1691 C1693 1.433 . S
C1692 C1688 1.350 . S
C1692 C1689 1.463 . S
C1692 N1696 1.427 . S
C1693 H1683 0.929 . S
C1693 C1691 1.433 . S
C1693 N1696 1.384 . S
C1694 H1685 0.929 . S
C1694 C1686 1.378 . S
C1694 C1689 1.350 . S
C1695 H1682 0.929 . S
C1695 C1687 1.433 . S
C1695 N1697 1.384 . S
N1696 C1692 1.427 . S
N1696 C1693 1.384 . S
N1697 C1689 1.427 . S
N1697 C1695 1.384 . S
H1698 C1704 0.930 . S
H1699 C1708 0.930 1_455 S
H1700 C1713 0.929 1_545 S
H1701 C1711 0.929 . S
H1702 C1706 0.929 . S
H1703 C1712 0.929 . S
C1704 H1698 0.930 . S
C1704 C1705 1.367 . S
C1704 C1712 1.378 . S
C1705 C1704 1.367 . S
C1705 C1713 1.433 . S
C1706 H1702 0.929 . S
C1706 C1708 1.378 . S
C1706 C1710 1.350 . S
C1707 C1710 1.463 . S
C1707 C1712 1.350 . S
C1707 N1715 1.427 . S
C1708 H1699 0.930 1_655 S
C1708 C1706 1.378 . S
C1708 C1709 1.367 . S
C1709 C1708 1.367 . S
C1709 C1711 1.433 . S
C1710 C1706 1.350 . S
C1710 C1707 1.463 . S
C1710 N1714 1.427 . S
C1711 H1701 0.929 . S
C1711 C1709 1.433 . S
C1711 N1714 1.384 . S
C1712 H1703 0.929 . S
C1712 C1704 1.378 . S
C1712 C1707 1.350 . S
C1713 H1700 0.929 1_565 S
C1713 C1705 1.433 . S
C1713 N1715 1.384 . S
N1714 C1710 1.427 . S
N1714 C1711 1.384 . S
N1715 C1707 1.427 . S
N1715 C1713 1.384 . S
H1716 C1722 0.930 . S
H1717 C1726 0.930 . S
H1718 C1731 0.929 . S
H1719 C1729 0.929 . S
H1720 C1724 0.929 . S
H1721 C1730 0.929 . S
C1722 H1716 0.930 . S
C1722 C1723 1.367 . S
C1722 C1730 1.378 . S
C1723 C1722 1.367 . S
C1723 C1731 1.433 . S
C1724 H1720 0.929 . S
C1724 C1726 1.378 . S
C1724 C1728 1.350 . S
C1725 C1728 1.463 . S
C1725 C1730 1.350 . S
C1725 N1733 1.427 . S
C1726 H1717 0.930 . S
C1726 C1724 1.378 . S
C1726 C1727 1.367 . S
C1727 C1726 1.367 . S
C1727 C1729 1.433 . S
C1728 C1724 1.350 . S
C1728 C1725 1.463 . S
C1728 N1732 1.427 . S
C1729 H1719 0.929 . S
C1729 C1727 1.433 . S
C1729 N1732 1.384 . S
C1730 H1721 0.929 . S
C1730 C1722 1.378 . S
C1730 C1725 1.350 . S
C1731 H1718 0.929 . S
C1731 C1723 1.433 . S
C1731 N1733 1.384 . S
N1732 C1728 1.427 . S
N1732 C1729 1.384 . S
N1733 C1725 1.427 . S
N1733 C1731 1.384 . S
H1734 C1740 0.930 . S
H1735 C1744 0.930 . S
H1736 C1749 0.929 . S
H1737 C1747 0.930 1_556 S
H1738 C1742 0.929 . S
H1739 C1748 0.929 . S
C1740 H1734 0.930 . S
C1740 C1741 1.367 . S
C1740 C1748 1.378 . S
C1741 C1740 1.367 . S
C1741 C1749 1.433 . S
C1742 H1738 0.929 . S
C1742 C1744 1.378 . S
C1742 C1746 1.350 . S
C1743 C1746 1.463 . S
C1743 C1748 1.350 . S
C1743 N1751 1.427 . S
C1744 H1735 0.930 . S
C1744 C1742 1.378 . S
C1744 C1745 1.367 . S
C1745 C1744 1.367 . S
C1745 C1747 1.433 . S
C1746 C1742 1.350 . S
C1746 C1743 1.463 . S
C1746 N1750 1.427 . S
C1747 H1737 0.930 1_554 S
C1747 C1745 1.433 . S
C1747 N1750 1.384 . S
C1748 H1739 0.929 . S
C1748 C1740 1.378 . S
C1748 C1743 1.350 . S
C1749 H1736 0.929 . S
C1749 C1741 1.433 . S
C1749 N1751 1.384 . S
N1750 C1746 1.427 . S
N1750 C1747 1.384 . S
N1751 C1743 1.427 . S
N1751 C1749 1.384 . S
H1752 C1758 0.930 . S
H1753 C1762 0.930 . S
H1754 C1767 0.929 . S
H1755 C1765 0.929 . S
H1756 C1760 0.929 . S
H1757 C1766 0.929 . S
C1758 H1752 0.930 . S
C1758 C1759 1.367 . S
C1758 C1766 1.378 . S
C1759 C1758 1.367 . S
C1759 C1767 1.433 . S
C1760 H1756 0.929 . S
C1760 C1762 1.378 . S
C1760 C1764 1.350 . S
C1761 C1764 1.463 . S
C1761 C1766 1.350 . S
C1761 N1769 1.427 . S
C1762 H1753 0.930 . S
C1762 C1760 1.378 . S
C1762 C1763 1.367 . S
C1763 C1762 1.367 . S
C1763 C1765 1.433 . S
C1764 C1760 1.350 . S
C1764 C1761 1.463 . S
C1764 N1768 1.427 . S
C1765 H1755 0.929 . S
C1765 C1763 1.433 . S
C1765 N1768 1.384 . S
C1766 H1757 0.929 . S
C1766 C1758 1.378 . S
C1766 C1761 1.350 . S
C1767 H1754 0.929 . S
C1767 C1759 1.433 . S
C1767 N1769 1.384 . S
N1768 C1764 1.427 . S
N1768 C1765 1.384 . S
N1769 C1761 1.427 . S
N1769 C1767 1.384 . S
H1770 C1776 0.930 . S
H1771 C1780 0.930 . S
H1772 C1785 0.929 . S
H1773 C1783 0.929 . S
H1774 C1778 0.929 . S
H1775 C1784 0.929 . S
C1776 H1770 0.930 . S
C1776 C1777 1.367 . S
C1776 C1784 1.378 . S
C1777 C1776 1.367 . S
C1777 C1785 1.433 . S
C1778 H1774 0.929 . S
C1778 C1780 1.378 . S
C1778 C1782 1.350 . S
C1779 C1782 1.463 . S
C1779 C1784 1.350 . S
C1779 N1787 1.427 . S
C1780 H1771 0.930 . S
C1780 C1778 1.378 . S
C1780 C1781 1.367 . S
C1781 C1780 1.367 . S
C1781 C1783 1.433 . S
C1782 C1778 1.350 . S
C1782 C1779 1.463 . S
C1782 N1786 1.427 . S
C1783 H1773 0.929 . S
C1783 C1781 1.433 . S
C1783 N1786 1.384 . S
C1784 H1775 0.929 . S
C1784 C1776 1.378 . S
C1784 C1779 1.350 . S
C1785 H1772 0.929 . S
C1785 C1777 1.433 . S
C1785 N1787 1.384 . S
N1786 C1782 1.427 . S
N1786 C1783 1.384 . S
N1787 C1779 1.427 . S
N1787 C1785 1.384 . S
H1788 C1794 0.930 . S
H1789 C1798 0.930 . S
H1790 C1803 0.929 . S
H1791 C1801 0.929 . S
H1792 C1796 0.929 . S
H1793 C1802 0.929 . S
C1794 H1788 0.930 . S
C1794 C1795 1.367 . S
C1794 C1802 1.378 . S
C1795 C1794 1.367 . S
C1795 C1803 1.433 . S
C1796 H1792 0.929 . S
C1796 C1798 1.378 . S
C1796 C1800 1.350 . S
C1797 C1800 1.463 . S
C1797 C1802 1.350 . S
C1797 N1805 1.427 . S
C1798 H1789 0.930 . S
C1798 C1796 1.378 . S
C1798 C1799 1.367 . S
C1799 C1798 1.367 . S
C1799 C1801 1.433 . S
C1800 C1796 1.350 . S
C1800 C1797 1.463 . S
C1800 N1804 1.427 . S
C1801 H1791 0.929 . S
C1801 C1799 1.433 . S
C1801 N1804 1.384 . S
C1802 H1793 0.929 . S
C1802 C1794 1.378 . S
C1802 C1797 1.350 . S
C1803 H1790 0.929 . S
C1803 C1795 1.433 . S
C1803 N1805 1.384 . S
N1804 C1800 1.427 . S
N1804 C1801 1.384 . S
N1805 C1797 1.427 . S
N1805 C1803 1.384 . S
H1806 C1812 0.930 . S
H1807 C1816 0.930 . S
H1808 C1821 0.929 . S
H1809 C1819 0.929 . S
H1810 C1814 0.929 . S
H1811 C1820 0.929 . S
C1812 H1806 0.930 . S
C1812 C1813 1.367 . S
C1812 C1820 1.378 . S
C1813 C1812 1.367 . S
C1813 C1821 1.433 . S
C1814 H1810 0.929 . S
C1814 C1816 1.378 . S
C1814 C1818 1.350 . S
C1815 C1818 1.463 . S
C1815 C1820 1.350 . S
C1815 N1823 1.427 . S
C1816 H1807 0.930 . S
C1816 C1814 1.378 . S
C1816 C1817 1.367 . S
C1817 C1816 1.367 . S
C1817 C1819 1.433 . S
C1818 C1814 1.350 . S
C1818 C1815 1.463 . S
C1818 N1822 1.427 . S
C1819 H1809 0.929 . S
C1819 C1817 1.433 . S
C1819 N1822 1.384 . S
C1820 H1811 0.929 . S
C1820 C1812 1.378 . S
C1820 C1815 1.350 . S
C1821 H1808 0.929 . S
C1821 C1813 1.433 . S
C1821 N1823 1.384 . S
N1822 C1818 1.427 . S
N1822 C1819 1.384 . S
N1823 C1815 1.427 . S
N1823 C1821 1.384 . S
H1824 C1830 0.930 . S
H1825 C1834 0.930 . S
H1826 C1839 0.929 . S
H1827 C1837 0.929 . S
H1828 C1832 0.929 . S
H1829 C1838 0.929 . S
C1830 H1824 0.930 . S
C1830 C1831 1.367 . S
C1830 C1838 1.378 . S
C1831 C1830 1.367 . S
C1831 C1839 1.433 . S
C1832 H1828 0.929 . S
C1832 C1834 1.378 . S
C1832 C1836 1.350 . S
C1833 C1836 1.463 . S
C1833 C1838 1.350 . S
C1833 N1841 1.427 . S
C1834 H1825 0.930 . S
C1834 C1832 1.378 . S
C1834 C1835 1.367 . S
C1835 C1834 1.367 . S
C1835 C1837 1.433 . S
C1836 C1832 1.350 . S
C1836 C1833 1.463 . S
C1836 N1840 1.427 . S
C1837 H1827 0.929 . S
C1837 C1835 1.433 . S
C1837 N1840 1.384 . S
C1838 H1829 0.929 . S
C1838 C1830 1.378 . S
C1838 C1833 1.350 . S
C1839 H1826 0.929 . S
C1839 C1831 1.433 . S
C1839 N1841 1.384 . S
N1840 C1836 1.427 . S
N1840 C1837 1.384 . S
N1841 C1833 1.427 . S
N1841 C1839 1.384 . S
H1842 C1848 0.930 . S
H1843 C1852 0.930 . S
H1844 C1857 0.929 . S
H1845 C1855 0.929 . S
H1846 C1850 0.929 . S
H1847 C1856 0.929 . S
C1848 H1842 0.930 . S
C1848 C1849 1.367 . S
C1848 C1856 1.378 . S
C1849 C1848 1.367 . S
C1849 C1857 1.433 . S
C1850 H1846 0.929 . S
C1850 C1852 1.378 . S
C1850 C1854 1.350 . S
C1851 C1854 1.463 . S
C1851 C1856 1.350 . S
C1851 N1859 1.427 . S
C1852 H1843 0.930 . S
C1852 C1850 1.378 . S
C1852 C1853 1.367 . S
C1853 C1852 1.367 . S
C1853 C1855 1.433 . S
C1854 C1850 1.350 . S
C1854 C1851 1.463 . S
C1854 N1858 1.427 . S
C1855 H1845 0.929 . S
C1855 C1853 1.433 . S
C1855 N1858 1.384 . S
C1856 H1847 0.929 . S
C1856 C1848 1.378 . S
C1856 C1851 1.350 . S
C1857 H1844 0.929 . S
C1857 C1849 1.433 . S
C1857 N1859 1.384 . S
N1858 C1854 1.427 . S
N1858 C1855 1.384 . S
N1859 C1851 1.427 . S
N1859 C1857 1.384 . S
H1860 C1866 0.930 . S
H1861 C1870 0.930 . S
H1862 C1875 0.929 . S
H1863 C1873 0.929 . S
H1864 C1868 0.929 . S
H1865 C1874 0.929 . S
C1866 H1860 0.930 . S
C1866 C1867 1.367 . S
C1866 C1874 1.378 . S
C1867 C1866 1.367 . S
C1867 C1875 1.433 . S
C1868 H1864 0.929 . S
C1868 C1870 1.378 . S
C1868 C1872 1.350 . S
C1869 C1872 1.463 . S
C1869 C1874 1.350 . S
C1869 N1877 1.427 . S
C1870 H1861 0.930 . S
C1870 C1868 1.378 . S
C1870 C1871 1.367 . S
C1871 C1870 1.367 . S
C1871 C1873 1.433 . S
C1872 C1868 1.350 . S
C1872 C1869 1.463 . S
C1872 N1876 1.427 . S
C1873 H1863 0.929 . S
C1873 C1871 1.433 . S
C1873 N1876 1.384 . S
C1874 H1865 0.929 . S
C1874 C1866 1.378 . S
C1874 C1869 1.350 . S
C1875 H1862 0.929 . S
C1875 C1867 1.433 . S
C1875 N1877 1.384 . S
N1876 C1872 1.427 . S
N1876 C1873 1.384 . S
N1877 C1869 1.427 . S
N1877 C1875 1.384 . S
H1878 C1884 0.930 . S
H1879 C1888 0.930 . S
H1880 C1893 0.929 . S
H1881 C1891 0.929 . S
H1882 C1886 0.929 . S
H1883 C1892 0.929 . S
C1884 H1878 0.930 . S
C1884 C1885 1.367 . S
C1884 C1892 1.378 . S
C1885 C1884 1.367 . S
C1885 C1893 1.433 . S
C1886 H1882 0.929 . S
C1886 C1888 1.378 . S
C1886 C1890 1.350 . S
C1887 C1890 1.463 . S
C1887 C1892 1.350 . S
C1887 N1895 1.427 . S
C1888 H1879 0.930 . S
C1888 C1886 1.378 . S
C1888 C1889 1.367 . S
C1889 C1888 1.367 . S
C1889 C1891 1.433 . S
C1890 C1886 1.350 . S
C1890 C1887 1.463 . S
C1890 N1894 1.427 . S
C1891 H1881 0.929 . S
C1891 C1889 1.433 . S
C1891 N1894 1.384 . S
C1892 H1883 0.929 . S
C1892 C1884 1.378 . S
C1892 C1887 1.350 . S
C1893 H1880 0.929 . S
C1893 C1885 1.433 . S
C1893 N1895 1.384 . S
N1894 C1890 1.427 . S
N1894 C1891 1.384 . S
N1895 C1887 1.427 . S
N1895 C1893 1.384 . S
H1896 C1902 0.930 . S
H1897 C1906 0.930 . S
H1898 C1911 0.929 . S
H1899 C1909 0.929 . S
H1900 C1904 0.929 . S
H1901 C1910 0.929 . S
C1902 H1896 0.930 . S
C1902 C1903 1.367 . S
C1902 C1910 1.378 . S
C1903 C1902 1.367 . S
C1903 C1911 1.433 . S
C1904 H1900 0.929 . S
C1904 C1906 1.378 . S
C1904 C1908 1.350 . S
C1905 C1908 1.463 . S
C1905 C1910 1.350 . S
C1905 N1913 1.427 . S
C1906 H1897 0.930 . S
C1906 C1904 1.378 . S
C1906 C1907 1.367 . S
C1907 C1906 1.367 . S
C1907 C1909 1.433 . S
C1908 C1904 1.350 . S
C1908 C1905 1.463 . S
C1908 N1912 1.427 . S
C1909 H1899 0.929 . S
C1909 C1907 1.433 . S
C1909 N1912 1.384 . S
C1910 H1901 0.929 . S
C1910 C1902 1.378 . S
C1910 C1905 1.350 . S
C1911 H1898 0.929 . S
C1911 C1903 1.433 . S
C1911 N1913 1.384 . S
N1912 C1908 1.427 . S
N1912 C1909 1.384 . S
N1913 C1905 1.427 . S
N1913 C1911 1.384 . S
H1914 C1920 0.930 . S
H1915 C1924 0.930 . S
H1916 C1929 0.929 . S
H1917 C1927 0.929 . S
H1918 C1922 0.929 . S
H1919 C1928 0.929 . S
C1920 H1914 0.930 . S
C1920 C1921 1.367 . S
C1920 C1928 1.378 . S
C1921 C1920 1.367 . S
C1921 C1929 1.433 . S
C1922 H1918 0.929 . S
C1922 C1924 1.378 . S
C1922 C1926 1.350 . S
C1923 C1926 1.463 . S
C1923 C1928 1.350 . S
C1923 N1931 1.427 . S
C1924 H1915 0.930 . S
C1924 C1922 1.378 . S
C1924 C1925 1.367 . S
C1925 C1924 1.367 . S
C1925 C1927 1.433 . S
C1926 C1922 1.350 . S
C1926 C1923 1.463 . S
C1926 N1930 1.427 . S
C1927 H1917 0.929 . S
C1927 C1925 1.433 . S
C1927 N1930 1.384 . S
C1928 H1919 0.929 . S
C1928 C1920 1.378 . S
C1928 C1923 1.350 . S
C1929 H1916 0.929 . S
C1929 C1921 1.433 . S
C1929 N1931 1.384 . S
N1930 C1926 1.427 . S
N1930 C1927 1.384 . S
N1931 C1923 1.427 . S
N1931 C1929 1.384 . S
H1932 C1938 0.930 . S
H1933 C1942 0.930 . S
H1934 C1947 0.929 . S
H1935 C1945 0.929 . S
H1936 C1940 0.929 . S
H1937 C1946 0.929 . S
C1938 H1932 0.930 . S
C1938 C1939 1.367 . S
C1938 C1946 1.378 . S
C1939 C1938 1.367 . S
C1939 C1947 1.433 . S
C1940 H1936 0.929 . S
C1940 C1942 1.378 . S
C1940 C1944 1.350 . S
C1941 C1944 1.463 . S
C1941 C1946 1.350 . S
C1941 N1949 1.427 . S
C1942 H1933 0.930 . S
C1942 C1940 1.378 . S
C1942 C1943 1.367 . S
C1943 C1942 1.367 . S
C1943 C1945 1.433 . S
C1944 C1940 1.350 . S
C1944 C1941 1.463 . S
C1944 N1948 1.427 . S
C1945 H1935 0.929 . S
C1945 C1943 1.433 . S
C1945 N1948 1.384 . S
C1946 H1937 0.929 . S
C1946 C1938 1.378 . S
C1946 C1941 1.350 . S
C1947 H1934 0.929 . S
C1947 C1939 1.433 . S
C1947 N1949 1.384 . S
N1948 C1944 1.427 . S
N1948 C1945 1.384 . S
N1949 C1941 1.427 . S
N1949 C1947 1.384 . S
H1950 C1956 0.930 . S
H1951 C1960 0.930 . S
H1952 C1965 0.929 . S
H1953 C1963 0.929 . S
H1954 C1958 0.929 . S
H1955 C1964 0.929 . S
C1956 H1950 0.930 . S
C1956 C1957 1.367 . S
C1956 C1964 1.378 . S
C1957 C1956 1.367 . S
C1957 C1965 1.433 . S
C1958 H1954 0.929 . S
C1958 C1960 1.378 . S
C1958 C1962 1.350 . S
C1959 C1962 1.463 . S
C1959 C1964 1.350 . S
C1959 N1967 1.427 . S
C1960 H1951 0.930 . S
C1960 C1958 1.378 . S
C1960 C1961 1.367 . S
C1961 C1960 1.367 . S
C1961 C1963 1.433 . S
C1962 C1958 1.350 . S
C1962 C1959 1.463 . S
C1962 N1966 1.427 . S
C1963 H1953 0.929 . S
C1963 C1961 1.433 . S
C1963 N1966 1.384 . S
C1964 H1955 0.929 . S
C1964 C1956 1.378 . S
C1964 C1959 1.350 . S
C1965 H1952 0.929 . S
C1965 C1957 1.433 . S
C1965 N1967 1.384 . S
N1966 C1962 1.427 . S
N1966 C1963 1.384 . S
N1967 C1959 1.427 . S
N1967 C1965 1.384 . S
H1968 C1974 0.930 . S
H1969 C1978 0.930 . S
H1970 C1983 0.929 . S
H1971 C1981 0.929 . S
H1972 C1976 0.929 . S
H1973 C1982 0.929 . S
C1974 H1968 0.930 . S
C1974 C1975 1.367 . S
C1974 C1982 1.378 . S
C1975 C1974 1.367 . S
C1975 C1983 1.433 . S
C1976 H1972 0.929 . S
C1976 C1978 1.378 . S
C1976 C1980 1.350 . S
C1977 C1980 1.463 . S
C1977 C1982 1.350 . S
C1977 N1985 1.427 . S
C1978 H1969 0.930 . S
C1978 C1976 1.378 . S
C1978 C1979 1.367 . S
C1979 C1978 1.367 . S
C1979 C1981 1.433 . S
C1980 C1976 1.350 . S
C1980 C1977 1.463 . S
C1980 N1984 1.427 . S
C1981 H1971 0.929 . S
C1981 C1979 1.433 . S
C1981 N1984 1.384 . S
C1982 H1973 0.929 . S
C1982 C1974 1.378 . S
C1982 C1977 1.350 . S
C1983 H1970 0.929 . S
C1983 C1975 1.433 . S
C1983 N1985 1.384 . S
N1984 C1980 1.427 . S
N1984 C1981 1.384 . S
N1985 C1977 1.427 . S
N1985 C1983 1.384 . S
H1986 C1992 0.930 . S
H1987 C1996 0.930 . S
H1988 C2001 0.929 . S
H1989 C1999 0.929 1_565 S
H1990 C1994 0.929 . S
H1991 C2000 0.929 . S
C1992 H1986 0.930 . S
C1992 C1993 1.367 . S
C1992 C2000 1.378 . S
C1993 C1992 1.367 . S
C1993 C2001 1.433 . S
C1994 H1990 0.929 . S
C1994 C1996 1.378 . S
C1994 C1998 1.350 . S
C1995 C1998 1.463 . S
C1995 C2000 1.350 . S
C1995 N2003 1.427 . S
C1996 H1987 0.930 . S
C1996 C1994 1.378 . S
C1996 C1997 1.367 . S
C1997 C1996 1.367 . S
C1997 C1999 1.433 . S
C1998 C1994 1.350 . S
C1998 C1995 1.463 . S
C1998 N2002 1.427 . S
C1999 H1989 0.929 1_545 S
C1999 C1997 1.433 . S
C1999 N2002 1.384 . S
C2000 H1991 0.929 . S
C2000 C1992 1.378 . S
C2000 C1995 1.350 . S
C2001 H1988 0.929 . S
C2001 C1993 1.433 . S
C2001 N2003 1.384 . S
N2002 C1998 1.427 . S
N2002 C1999 1.384 . S
N2003 C1995 1.427 . S
N2003 C2001 1.384 . S
H2004 C2010 0.930 . S
H2005 C2014 0.930 . S
H2006 C2019 0.929 . S
H2007 C2017 0.929 . S
H2008 C2012 0.929 . S
H2009 C2018 0.929 . S
C2010 H2004 0.930 . S
C2010 C2011 1.367 . S
C2010 C2018 1.378 . S
C2011 C2010 1.367 . S
C2011 C2019 1.433 . S
C2012 H2008 0.929 . S
C2012 C2014 1.378 . S
C2012 C2016 1.350 . S
C2013 C2016 1.463 . S
C2013 C2018 1.350 . S
C2013 N2021 1.427 . S
C2014 H2005 0.930 . S
C2014 C2012 1.378 . S
C2014 C2015 1.367 . S
C2015 C2014 1.367 . S
C2015 C2017 1.433 . S
C2016 C2012 1.350 . S
C2016 C2013 1.463 . S
C2016 N2020 1.427 . S
C2017 H2007 0.929 . S
C2017 C2015 1.433 . S
C2017 N2020 1.384 . S
C2018 H2009 0.929 . S
C2018 C2010 1.378 . S
C2018 C2013 1.350 . S
C2019 H2006 0.929 . S
C2019 C2011 1.433 . S
C2019 N2021 1.384 . S
N2020 C2016 1.427 . S
N2020 C2017 1.384 . S
N2021 C2013 1.427 . S
N2021 C2019 1.384 . S
H2022 C2028 0.930 . S
H2023 C2032 0.930 . S
H2024 C2037 0.929 . S
H2025 C2035 0.929 . S
H2026 C2030 0.929 . S
H2027 C2036 0.929 . S
C2028 H2022 0.930 . S
C2028 C2029 1.367 . S
C2028 C2036 1.378 . S
C2029 C2028 1.367 . S
C2029 C2037 1.433 . S
C2030 H2026 0.929 . S
C2030 C2032 1.378 . S
C2030 C2034 1.350 . S
C2031 C2034 1.463 . S
C2031 C2036 1.350 . S
C2031 N2039 1.427 . S
C2032 H2023 0.930 . S
C2032 C2030 1.378 . S
C2032 C2033 1.367 . S
C2033 C2032 1.367 . S
C2033 C2035 1.433 . S
C2034 C2030 1.350 . S
C2034 C2031 1.463 . S
C2034 N2038 1.427 . S
C2035 H2025 0.929 . S
C2035 C2033 1.433 . S
C2035 N2038 1.384 . S
C2036 H2027 0.929 . S
C2036 C2028 1.378 . S
C2036 C2031 1.350 . S
C2037 H2024 0.929 . S
C2037 C2029 1.433 . S
C2037 N2039 1.384 . S
N2038 C2034 1.427 . S
N2038 C2035 1.384 . S
N2039 C2031 1.427 . S
N2039 C2037 1.384 . S
H2040 C2046 0.930 . S
H2041 C2050 0.930 . S
H2042 C2055 0.929 . S
H2043 C2053 0.929 . S
H2044 C2048 0.929 . S
H2045 C2054 0.929 . S
C2046 H2040 0.930 . S
C2046 C2047 1.367 . S
C2046 C2054 1.378 . S
C2047 C2046 1.367 . S
C2047 C2055 1.433 . S
C2048 H2044 0.929 . S
C2048 C2050 1.378 . S
C2048 C2052 1.350 . S
C2049 C2052 1.463 . S
C2049 C2054 1.350 . S
C2049 N2057 1.427 . S
C2050 H2041 0.930 . S
C2050 C2048 1.378 . S
C2050 C2051 1.367 . S
C2051 C2050 1.367 . S
C2051 C2053 1.433 . S
C2052 C2048 1.350 . S
C2052 C2049 1.463 . S
C2052 N2056 1.427 . S
C2053 H2043 0.929 . S
C2053 C2051 1.433 . S
C2053 N2056 1.384 . S
C2054 H2045 0.929 . S
C2054 C2046 1.378 . S
C2054 C2049 1.350 . S
C2055 H2042 0.929 . S
C2055 C2047 1.433 . S
C2055 N2057 1.384 . S
N2056 C2052 1.427 . S
N2056 C2053 1.384 . S
N2057 C2049 1.427 . S
N2057 C2055 1.384 . S
H2058 C2064 0.930 . S
H2059 C2068 0.930 . S
H2060 C2073 0.929 . S
H2061 C2071 0.929 . S
H2062 C2066 0.929 . S
H2063 C2072 0.929 . S
C2064 H2058 0.930 . S
C2064 C2065 1.367 . S
C2064 C2072 1.378 . S
C2065 C2064 1.367 . S
C2065 C2073 1.433 . S
C2066 H2062 0.929 . S
C2066 C2068 1.378 . S
C2066 C2070 1.350 . S
C2067 C2070 1.463 . S
C2067 C2072 1.350 . S
C2067 N2075 1.427 . S
C2068 H2059 0.930 . S
C2068 C2066 1.378 . S
C2068 C2069 1.367 . S
C2069 C2068 1.367 . S
C2069 C2071 1.433 . S
C2070 C2066 1.350 . S
C2070 C2067 1.463 . S
C2070 N2074 1.427 . S
C2071 H2061 0.929 . S
C2071 C2069 1.433 . S
C2071 N2074 1.384 . S
C2072 H2063 0.929 . S
C2072 C2064 1.378 . S
C2072 C2067 1.350 . S
C2073 H2060 0.929 . S
C2073 C2065 1.433 . S
C2073 N2075 1.384 . S
N2074 C2070 1.427 . S
N2074 C2071 1.384 . S
N2075 C2067 1.427 . S
N2075 C2073 1.384 . S
H2076 C2082 0.930 . S
H2077 C2086 0.930 . S
H2078 C2091 0.929 . S
H2079 C2089 0.929 . S
H2080 C2084 0.929 . S
H2081 C2090 0.929 . S
C2082 H2076 0.930 . S
C2082 C2083 1.367 . S
C2082 C2090 1.378 . S
C2083 C2082 1.367 . S
C2083 C2091 1.433 . S
C2084 H2080 0.929 . S
C2084 C2086 1.378 . S
C2084 C2088 1.350 . S
C2085 C2088 1.463 . S
C2085 C2090 1.350 . S
C2085 N2093 1.427 . S
C2086 H2077 0.930 . S
C2086 C2084 1.378 . S
C2086 C2087 1.367 . S
C2087 C2086 1.367 . S
C2087 C2089 1.433 . S
C2088 C2084 1.350 . S
C2088 C2085 1.463 . S
C2088 N2092 1.427 . S
C2089 H2079 0.929 . S
C2089 C2087 1.433 . S
C2089 N2092 1.384 . S
C2090 H2081 0.929 . S
C2090 C2082 1.378 . S
C2090 C2085 1.350 . S
C2091 H2078 0.929 . S
C2091 C2083 1.433 . S
C2091 N2093 1.384 . S
N2092 C2088 1.427 . S
N2092 C2089 1.384 . S
N2093 C2085 1.427 . S
N2093 C2091 1.384 . S
H2094 C2100 0.930 . S
H2095 C2104 0.930 . S
H2096 C2109 0.929 . S
H2097 C2107 0.929 . S
H2098 C2102 0.929 . S
H2099 C2108 0.929 . S
C2100 H2094 0.930 . S
C2100 C2101 1.367 . S
C2100 C2108 1.378 . S
C2101 C2100 1.367 . S
C2101 C2109 1.433 . S
C2102 H2098 0.929 . S
C2102 C2104 1.378 . S
C2102 C2106 1.350 . S
C2103 C2106 1.463 . S
C2103 C2108 1.350 . S
C2103 N2111 1.427 . S
C2104 H2095 0.930 . S
C2104 C2102 1.378 . S
C2104 C2105 1.367 . S
C2105 C2104 1.367 . S
C2105 C2107 1.433 . S
C2106 C2102 1.350 . S
C2106 C2103 1.463 . S
C2106 N2110 1.427 . S
C2107 H2097 0.929 . S
C2107 C2105 1.433 . S
C2107 N2110 1.384 . S
C2108 H2099 0.929 . S
C2108 C2100 1.378 . S
C2108 C2103 1.350 . S
C2109 H2096 0.929 . S
C2109 C2101 1.433 . S
C2109 N2111 1.384 . S
N2110 C2106 1.427 . S
N2110 C2107 1.384 . S
N2111 C2103 1.427 . S
N2111 C2109 1.384 . S
H2112 C2118 0.930 . S
H2113 C2122 0.930 . S
H2114 C2127 0.929 . S
H2115 C2125 0.929 . S
H2116 C2120 0.929 . S
H2117 C2126 0.929 . S
C2118 H2112 0.930 . S
C2118 C2119 1.367 . S
C2118 C2126 1.378 . S
C2119 C2118 1.367 . S
C2119 C2127 1.433 . S
C2120 H2116 0.929 . S
C2120 C2122 1.378 . S
C2120 C2124 1.350 . S
C2121 C2124 1.463 . S
C2121 C2126 1.350 . S
C2121 N2129 1.427 . S
C2122 H2113 0.930 . S
C2122 C2120 1.378 . S
C2122 C2123 1.367 . S
C2123 C2122 1.367 . S
C2123 C2125 1.433 . S
C2124 C2120 1.350 . S
C2124 C2121 1.463 . S
C2124 N2128 1.427 . S
C2125 H2115 0.929 . S
C2125 C2123 1.433 . S
C2125 N2128 1.384 . S
C2126 H2117 0.929 . S
C2126 C2118 1.378 . S
C2126 C2121 1.350 . S
C2127 H2114 0.929 . S
C2127 C2119 1.433 . S
C2127 N2129 1.384 . S
N2128 C2124 1.427 . S
N2128 C2125 1.384 . S
N2129 C2121 1.427 . S
N2129 C2127 1.384 . S
H2130 C2136 0.930 . S
H2131 C2140 0.930 . S
H2132 C2145 0.929 . S
H2133 C2143 0.929 . S
H2134 C2138 0.929 . S
H2135 C2144 0.929 . S
C2136 H2130 0.930 . S
C2136 C2137 1.367 . S
C2136 C2144 1.378 . S
C2137 C2136 1.367 . S
C2137 C2145 1.433 . S
C2138 H2134 0.929 . S
C2138 C2140 1.378 . S
C2138 C2142 1.350 . S
C2139 C2142 1.463 . S
C2139 C2144 1.350 . S
C2139 N2147 1.427 . S
C2140 H2131 0.930 . S
C2140 C2138 1.378 . S
C2140 C2141 1.367 . S
C2141 C2140 1.367 . S
C2141 C2143 1.433 . S
C2142 C2138 1.350 . S
C2142 C2139 1.463 . S
C2142 N2146 1.427 . S
C2143 H2133 0.929 . S
C2143 C2141 1.433 . S
C2143 N2146 1.384 . S
C2144 H2135 0.929 . S
C2144 C2136 1.378 . S
C2144 C2139 1.350 . S
C2145 H2132 0.929 . S
C2145 C2137 1.433 . S
C2145 N2147 1.384 . S
N2146 C2142 1.427 . S
N2146 C2143 1.384 . S
N2147 C2139 1.427 . S
N2147 C2145 1.384 . S
H2148 C2154 0.930 . S
H2149 C2158 0.930 . S
H2150 C2163 0.929 . S
H2151 C2161 0.929 . S
H2152 C2156 0.929 . S
H2153 C2162 0.929 . S
C2154 H2148 0.930 . S
C2154 C2155 1.367 . S
C2154 C2162 1.378 . S
C2155 C2154 1.367 . S
C2155 C2163 1.433 . S
C2156 H2152 0.929 . S
C2156 C2158 1.378 . S
C2156 C2160 1.350 . S
C2157 C2160 1.463 . S
C2157 C2162 1.350 . S
C2157 N2165 1.427 . S
C2158 H2149 0.930 . S
C2158 C2156 1.378 . S
C2158 C2159 1.367 . S
C2159 C2158 1.367 . S
C2159 C2161 1.433 . S
C2160 C2156 1.350 . S
C2160 C2157 1.463 . S
C2160 N2164 1.427 . S
C2161 H2151 0.929 . S
C2161 C2159 1.433 . S
C2161 N2164 1.384 . S
C2162 H2153 0.929 . S
C2162 C2154 1.378 . S
C2162 C2157 1.350 . S
C2163 H2150 0.929 . S
C2163 C2155 1.433 . S
C2163 N2165 1.384 . S
N2164 C2160 1.427 . S
N2164 C2161 1.384 . S
N2165 C2157 1.427 . S
N2165 C2163 1.384 . S
H2166 C2172 0.930 . S
H2167 C2176 0.930 . S
H2168 C2181 0.929 . S
H2169 C2179 0.929 . S
H2170 C2174 0.929 . S
H2171 C2180 0.929 . S
C2172 H2166 0.930 . S
C2172 C2173 1.367 . S
C2172 C2180 1.378 . S
C2173 C2172 1.367 . S
C2173 C2181 1.433 . S
C2174 H2170 0.929 . S
C2174 C2176 1.378 . S
C2174 C2178 1.350 . S
C2175 C2178 1.463 . S
C2175 C2180 1.350 . S
C2175 N2183 1.427 . S
C2176 H2167 0.930 . S
C2176 C2174 1.378 . S
C2176 C2177 1.367 . S
C2177 C2176 1.367 . S
C2177 C2179 1.433 . S
C2178 C2174 1.350 . S
C2178 C2175 1.463 . S
C2178 N2182 1.427 . S
C2179 H2169 0.929 . S
C2179 C2177 1.433 . S
C2179 N2182 1.384 . S
C2180 H2171 0.929 . S
C2180 C2172 1.378 . S
C2180 C2175 1.350 . S
C2181 H2168 0.929 . S
C2181 C2173 1.433 . S
C2181 N2183 1.384 . S
N2182 C2178 1.427 . S
N2182 C2179 1.384 . S
N2183 C2175 1.427 . S
N2183 C2181 1.384 . S
H2184 C2190 0.930 . S
H2185 C2194 0.930 . S
H2186 C2199 0.929 . S
H2187 C2197 0.929 . S
H2188 C2192 0.929 . S
H2189 C2198 0.929 . S
C2190 H2184 0.930 . S
C2190 C2191 1.367 . S
C2190 C2198 1.378 . S
C2191 C2190 1.367 . S
C2191 C2199 1.433 . S
C2192 H2188 0.929 . S
C2192 C2194 1.378 . S
C2192 C2196 1.350 . S
C2193 C2196 1.463 . S
C2193 C2198 1.350 . S
C2193 N2201 1.427 . S
C2194 H2185 0.930 . S
C2194 C2192 1.378 . S
C2194 C2195 1.367 . S
C2195 C2194 1.367 . S
C2195 C2197 1.433 . S
C2196 C2192 1.350 . S
C2196 C2193 1.463 . S
C2196 N2200 1.427 . S
C2197 H2187 0.929 . S
C2197 C2195 1.433 . S
C2197 N2200 1.384 . S
C2198 H2189 0.929 . S
C2198 C2190 1.378 . S
C2198 C2193 1.350 . S
C2199 H2186 0.929 . S
C2199 C2191 1.433 . S
C2199 N2201 1.384 . S
N2200 C2196 1.427 . S
N2200 C2197 1.384 . S
N2201 C2193 1.427 . S
N2201 C2199 1.384 . S
H2202 C2208 0.930 . S
H2203 C2212 0.930 . S
H2204 C2217 0.929 . S
H2205 C2215 0.929 . S
H2206 C2210 0.929 . S
H2207 C2216 0.929 . S
C2208 H2202 0.930 . S
C2208 C2209 1.367 . S
C2208 C2216 1.378 . S
C2209 C2208 1.367 . S
C2209 C2217 1.433 . S
C2210 H2206 0.929 . S
C2210 C2212 1.378 . S
C2210 C2214 1.350 . S
C2211 C2214 1.463 . S
C2211 C2216 1.350 . S
C2211 N2219 1.427 . S
C2212 H2203 0.930 . S
C2212 C2210 1.378 . S
C2212 C2213 1.367 . S
C2213 C2212 1.367 . S
C2213 C2215 1.433 . S
C2214 C2210 1.350 . S
C2214 C2211 1.463 . S
C2214 N2218 1.427 . S
C2215 H2205 0.929 . S
C2215 C2213 1.433 . S
C2215 N2218 1.384 . S
C2216 H2207 0.929 . S
C2216 C2208 1.378 . S
C2216 C2211 1.350 . S
C2217 H2204 0.929 . S
C2217 C2209 1.433 . S
C2217 N2219 1.384 . S
N2218 C2214 1.427 . S
N2218 C2215 1.384 . S
N2219 C2211 1.427 . S
N2219 C2217 1.384 . S
H2220 C2226 0.930 . S
H2221 C2230 0.930 . S
H2222 C2235 0.929 . S
H2223 C2233 0.929 . S
H2224 C2228 0.929 . S
H2225 C2234 0.929 . S
C2226 H2220 0.930 . S
C2226 C2227 1.367 . S
C2226 C2234 1.378 . S
C2227 C2226 1.367 . S
C2227 C2235 1.433 . S
C2228 H2224 0.929 . S
C2228 C2230 1.378 . S
C2228 C2232 1.350 . S
C2229 C2232 1.463 . S
C2229 C2234 1.350 . S
C2229 N2237 1.427 . S
C2230 H2221 0.930 . S
C2230 C2228 1.378 . S
C2230 C2231 1.367 . S
C2231 C2230 1.367 . S
C2231 C2233 1.433 . S
C2232 C2228 1.350 . S
C2232 C2229 1.463 . S
C2232 N2236 1.427 . S
C2233 H2223 0.929 . S
C2233 C2231 1.433 . S
C2233 N2236 1.384 . S
C2234 H2225 0.929 . S
C2234 C2226 1.378 . S
C2234 C2229 1.350 . S
C2235 H2222 0.929 . S
C2235 C2227 1.433 . S
C2235 N2237 1.384 . S
N2236 C2232 1.427 . S
N2236 C2233 1.384 . S
N2237 C2229 1.427 . S
N2237 C2235 1.384 . S
H2238 C2244 0.930 . S
H2239 C2248 0.930 . S
H2240 C2253 0.929 . S
H2241 C2251 0.929 . S
H2242 C2246 0.929 . S
H2243 C2252 0.929 . S
C2244 H2238 0.930 . S
C2244 C2245 1.367 . S
C2244 C2252 1.378 . S
C2245 C2244 1.367 . S
C2245 C2253 1.433 . S
C2246 H2242 0.929 . S
C2246 C2248 1.378 . S
C2246 C2250 1.350 . S
C2247 C2250 1.463 . S
C2247 C2252 1.350 . S
C2247 N2255 1.427 . S
C2248 H2239 0.930 . S
C2248 C2246 1.378 . S
C2248 C2249 1.367 . S
C2249 C2248 1.367 . S
C2249 C2251 1.433 . S
C2250 C2246 1.350 . S
C2250 C2247 1.463 . S
C2250 N2254 1.427 . S
C2251 H2241 0.929 . S
C2251 C2249 1.433 . S
C2251 N2254 1.384 . S
C2252 H2243 0.929 . S
C2252 C2244 1.378 . S
C2252 C2247 1.350 . S
C2253 H2240 0.929 . S
C2253 C2245 1.433 . S
C2253 N2255 1.384 . S
N2254 C2250 1.427 . S
N2254 C2251 1.384 . S
N2255 C2247 1.427 . S
N2255 C2253 1.384 . S
H2256 C2262 0.930 . S
H2257 C2266 0.930 . S
H2258 C2271 0.929 . S
H2259 C2269 0.929 . S
H2260 C2264 0.929 . S
H2261 C2270 0.929 . S
C2262 H2256 0.930 . S
C2262 C2263 1.367 . S
C2262 C2270 1.378 . S
C2263 C2262 1.367 . S
C2263 C2271 1.433 . S
C2264 H2260 0.929 . S
C2264 C2266 1.378 . S
C2264 C2268 1.350 . S
C2265 C2268 1.463 . S
C2265 C2270 1.350 . S
C2265 N2273 1.427 . S
C2266 H2257 0.930 . S
C2266 C2264 1.378 . S
C2266 C2267 1.367 . S
C2267 C2266 1.367 . S
C2267 C2269 1.433 . S
C2268 C2264 1.350 . S
C2268 C2265 1.463 . S
C2268 N2272 1.427 . S
C2269 H2259 0.929 . S
C2269 C2267 1.433 . S
C2269 N2272 1.384 . S
C2270 H2261 0.929 . S
C2270 C2262 1.378 . S
C2270 C2265 1.350 . S
C2271 H2258 0.929 . S
C2271 C2263 1.433 . S
C2271 N2273 1.384 . S
N2272 C2268 1.427 . S
N2272 C2269 1.384 . S
N2273 C2265 1.427 . S
N2273 C2271 1.384 . S
H2274 C2280 0.930 . S
H2275 C2284 0.930 . S
H2276 C2289 0.929 . S
H2277 C2287 0.929 . S
H2278 C2282 0.929 . S
H2279 C2288 0.929 . S
C2280 H2274 0.930 . S
C2280 C2281 1.367 . S
C2280 C2288 1.378 . S
C2281 C2280 1.367 . S
C2281 C2289 1.433 . S
C2282 H2278 0.929 . S
C2282 C2284 1.378 . S
C2282 C2286 1.350 . S
C2283 C2286 1.463 . S
C2283 C2288 1.350 . S
C2283 N2291 1.427 . S
C2284 H2275 0.930 . S
C2284 C2282 1.378 . S
C2284 C2285 1.367 . S
C2285 C2284 1.367 . S
C2285 C2287 1.433 . S
C2286 C2282 1.350 . S
C2286 C2283 1.463 . S
C2286 N2290 1.427 . S
C2287 H2277 0.929 . S
C2287 C2285 1.433 . S
C2287 N2290 1.384 . S
C2288 H2279 0.929 . S
C2288 C2280 1.378 . S
C2288 C2283 1.350 . S
C2289 H2276 0.929 . S
C2289 C2281 1.433 . S
C2289 N2291 1.384 . S
N2290 C2286 1.427 . S
N2290 C2287 1.384 . S
N2291 C2283 1.427 . S
N2291 C2289 1.384 . S
H2292 C2298 0.930 . S
H2293 C2302 0.930 . S
H2294 C2307 0.929 . S
H2295 C2305 0.929 . S
H2296 C2300 0.929 . S
H2297 C2306 0.929 . S
C2298 H2292 0.930 . S
C2298 C2299 1.367 . S
C2298 C2306 1.378 . S
C2299 C2298 1.367 . S
C2299 C2307 1.433 . S
C2300 H2296 0.929 . S
C2300 C2302 1.378 . S
C2300 C2304 1.350 . S
C2301 C2304 1.463 . S
C2301 C2306 1.350 . S
C2301 N2309 1.427 . S
C2302 H2293 0.930 . S
C2302 C2300 1.378 . S
C2302 C2303 1.367 . S
C2303 C2302 1.367 . S
C2303 C2305 1.433 . S
C2304 C2300 1.350 . S
C2304 C2301 1.463 . S
C2304 N2308 1.427 . S
C2305 H2295 0.929 . S
C2305 C2303 1.433 . S
C2305 N2308 1.384 . S
C2306 H2297 0.929 . S
C2306 C2298 1.378 . S
C2306 C2301 1.350 . S
C2307 H2294 0.929 . S
C2307 C2299 1.433 . S
C2307 N2309 1.384 . S
N2308 C2304 1.427 . S
N2308 C2305 1.384 . S
N2309 C2301 1.427 . S
N2309 C2307 1.384 . S
H2310 C2316 0.930 . S
H2311 C2320 0.930 . S
H2312 C2325 0.929 . S
H2313 C2323 0.929 . S
H2314 C2318 0.929 . S
H2315 C2324 0.929 . S
C2316 H2310 0.930 . S
C2316 C2317 1.367 . S
C2316 C2324 1.378 . S
C2317 C2316 1.367 . S
C2317 C2325 1.433 . S
C2318 H2314 0.929 . S
C2318 C2320 1.378 . S
C2318 C2322 1.350 . S
C2319 C2322 1.463 . S
C2319 C2324 1.350 . S
C2319 N2327 1.427 . S
C2320 H2311 0.930 . S
C2320 C2318 1.378 . S
C2320 C2321 1.367 . S
C2321 C2320 1.367 . S
C2321 C2323 1.433 . S
C2322 C2318 1.350 . S
C2322 C2319 1.463 . S
C2322 N2326 1.427 . S
C2323 H2313 0.929 . S
C2323 C2321 1.433 . S
C2323 N2326 1.384 . S
C2324 H2315 0.929 . S
C2324 C2316 1.378 . S
C2324 C2319 1.350 . S
C2325 H2312 0.929 . S
C2325 C2317 1.433 . S
C2325 N2327 1.384 . S
N2326 C2322 1.427 . S
N2326 C2323 1.384 . S
N2327 C2319 1.427 . S
N2327 C2325 1.384 . S
H2328 C2334 0.930 . S
H2329 C2338 0.930 . S
H2330 C2343 0.929 . S
H2331 C2341 0.929 1_565 S
H2332 C2336 0.929 . S
H2333 C2342 0.929 . S
C2334 H2328 0.930 . S
C2334 C2335 1.367 . S
C2334 C2342 1.378 . S
C2335 C2334 1.367 . S
C2335 C2343 1.433 . S
C2336 H2332 0.929 . S
C2336 C2338 1.378 . S
C2336 C2340 1.350 . S
C2337 C2340 1.463 . S
C2337 C2342 1.350 . S
C2337 N2345 1.427 . S
C2338 H2329 0.930 . S
C2338 C2336 1.378 . S
C2338 C2339 1.367 . S
C2339 C2338 1.367 . S
C2339 C2341 1.433 . S
C2340 C2336 1.350 . S
C2340 C2337 1.463 . S
C2340 N2344 1.427 . S
C2341 H2331 0.929 1_545 S
C2341 C2339 1.433 . S
C2341 N2344 1.384 . S
C2342 H2333 0.929 . S
C2342 C2334 1.378 . S
C2342 C2337 1.350 . S
C2343 H2330 0.929 . S
C2343 C2335 1.433 . S
C2343 N2345 1.384 . S
N2344 C2340 1.427 . S
N2344 C2341 1.384 . S
N2345 C2337 1.427 . S
N2345 C2343 1.384 . S
H2346 C2352 0.930 . S
H2347 C2356 0.930 . S
H2348 C2361 0.929 . S
H2349 C2359 0.929 . S
H2350 C2354 0.929 . S
H2351 C2360 0.929 . S
C2352 H2346 0.930 . S
C2352 C2353 1.367 . S
C2352 C2360 1.378 . S
C2353 C2352 1.367 . S
C2353 C2361 1.433 . S
C2354 H2350 0.929 . S
C2354 C2356 1.378 . S
C2354 C2358 1.350 . S
C2355 C2358 1.463 . S
C2355 C2360 1.350 . S
C2355 N2363 1.427 . S
C2356 H2347 0.930 . S
C2356 C2354 1.378 . S
C2356 C2357 1.367 . S
C2357 C2356 1.367 . S
C2357 C2359 1.433 . S
C2358 C2354 1.350 . S
C2358 C2355 1.463 . S
C2358 N2362 1.427 . S
C2359 H2349 0.929 . S
C2359 C2357 1.433 . S
C2359 N2362 1.384 . S
C2360 H2351 0.929 . S
C2360 C2352 1.378 . S
C2360 C2355 1.350 . S
C2361 H2348 0.929 . S
C2361 C2353 1.433 . S
C2361 N2363 1.384 . S
N2362 C2358 1.427 . S
N2362 C2359 1.384 . S
N2363 C2355 1.427 . S
N2363 C2361 1.384 . S
H2364 C2370 0.930 . S
H2365 C2374 0.930 . S
H2366 C2379 0.929 . S
H2367 C2377 0.929 1_545 S
H2368 C2372 0.929 . S
H2369 C2378 0.929 . S
C2370 H2364 0.930 . S
C2370 C2371 1.367 . S
C2370 C2378 1.378 . S
C2371 C2370 1.367 . S
C2371 C2379 1.433 . S
C2372 H2368 0.929 . S
C2372 C2374 1.378 . S
C2372 C2376 1.350 . S
C2373 C2376 1.463 . S
C2373 C2378 1.350 . S
C2373 N2381 1.427 . S
C2374 H2365 0.930 . S
C2374 C2372 1.378 . S
C2374 C2375 1.367 . S
C2375 C2374 1.367 . S
C2375 C2377 1.433 . S
C2376 C2372 1.350 . S
C2376 C2373 1.463 . S
C2376 N2380 1.427 . S
C2377 H2367 0.929 1_565 S
C2377 C2375 1.433 . S
C2377 N2380 1.384 . S
C2378 H2369 0.929 . S
C2378 C2370 1.378 . S
C2378 C2373 1.350 . S
C2379 H2366 0.929 . S
C2379 C2371 1.433 . S
C2379 N2381 1.384 . S
N2380 C2376 1.427 . S
N2380 C2377 1.384 . S
N2381 C2373 1.427 . S
N2381 C2379 1.384 . S
H2382 C2388 0.930 . S
H2383 C2392 0.930 . S
H2384 C2397 0.929 . S
H2385 C2395 0.929 . S
H2386 C2390 0.929 . S
H2387 C2396 0.929 . S
C2388 H2382 0.930 . S
C2388 C2389 1.367 . S
C2388 C2396 1.378 . S
C2389 C2388 1.367 . S
C2389 C2397 1.433 . S
C2390 H2386 0.929 . S
C2390 C2392 1.378 . S
C2390 C2394 1.350 . S
C2391 C2394 1.463 . S
C2391 C2396 1.350 . S
C2391 N2399 1.427 . S
C2392 H2383 0.930 . S
C2392 C2390 1.378 . S
C2392 C2393 1.367 . S
C2393 C2392 1.367 . S
C2393 C2395 1.433 . S
C2394 C2390 1.350 . S
C2394 C2391 1.463 . S
C2394 N2398 1.427 . S
C2395 H2385 0.929 . S
C2395 C2393 1.433 . S
C2395 N2398 1.384 . S
C2396 H2387 0.929 . S
C2396 C2388 1.378 . S
C2396 C2391 1.350 . S
C2397 H2384 0.929 . S
C2397 C2389 1.433 . S
C2397 N2399 1.384 . S
N2398 C2394 1.427 . S
N2398 C2395 1.384 . S
N2399 C2391 1.427 . S
N2399 C2397 1.384 . S
H2400 C2406 0.930 . S
H2401 C2410 0.930 . S
H2402 C2415 0.929 . S
H2403 C2413 0.929 1_545 S
H2404 C2408 0.929 . S
H2405 C2414 0.929 . S
C2406 H2400 0.930 . S
C2406 C2407 1.367 . S
C2406 C2414 1.378 . S
C2407 C2406 1.367 . S
C2407 C2415 1.433 . S
C2408 H2404 0.929 . S
C2408 C2410 1.378 . S
C2408 C2412 1.350 . S
C2409 C2412 1.463 . S
C2409 C2414 1.350 . S
C2409 N2417 1.427 . S
C2410 H2401 0.930 . S
C2410 C2408 1.378 . S
C2410 C2411 1.367 . S
C2411 C2410 1.367 . S
C2411 C2413 1.433 . S
C2412 C2408 1.350 . S
C2412 C2409 1.463 . S
C2412 N2416 1.427 . S
C2413 H2403 0.929 1_565 S
C2413 C2411 1.433 . S
C2413 N2416 1.384 . S
C2414 H2405 0.929 . S
C2414 C2406 1.378 . S
C2414 C2409 1.350 . S
C2415 H2402 0.929 . S
C2415 C2407 1.433 . S
C2415 N2417 1.384 . S
N2416 C2412 1.427 . S
N2416 C2413 1.384 . S
N2417 C2409 1.427 . S
N2417 C2415 1.384 . S
H2418 C2424 0.930 . S
H2419 C2428 0.930 . S
H2420 C2433 0.929 . S
H2421 C2431 0.929 . S
H2422 C2426 0.929 . S
H2423 C2432 0.929 . S
C2424 H2418 0.930 . S
C2424 C2425 1.367 . S
C2424 C2432 1.378 . S
C2425 C2424 1.367 . S
C2425 C2433 1.433 . S
C2426 H2422 0.929 . S
C2426 C2428 1.378 . S
C2426 C2430 1.350 . S
C2427 C2430 1.463 . S
C2427 C2432 1.350 . S
C2427 N2435 1.427 . S
C2428 H2419 0.930 . S
C2428 C2426 1.378 . S
C2428 C2429 1.367 . S
C2429 C2428 1.367 . S
C2429 C2431 1.433 . S
C2430 C2426 1.350 . S
C2430 C2427 1.463 . S
C2430 N2434 1.427 . S
C2431 H2421 0.929 . S
C2431 C2429 1.433 . S
C2431 N2434 1.384 . S
C2432 H2423 0.929 . S
C2432 C2424 1.378 . S
C2432 C2427 1.350 . S
C2433 H2420 0.929 . S
C2433 C2425 1.433 . S
C2433 N2435 1.384 . S
N2434 C2430 1.427 . S
N2434 C2431 1.384 . S
N2435 C2427 1.427 . S
N2435 C2433 1.384 . S
C719 C360 1.092 . S
C715 C213 1.044 . S
C737 C368 1.134 . S
C733 C256 1.115 . S
C755 C363 1.281 . S
C751 C234 1.189 . S
C769 C196 1.476 . S
C773 C367 1.519 . S
C791 C422 1.329 . S
C787 C109 1.256 . S
C805 C129 1.130 . S
C809 C398 1.126 . S
C827 C425 1.143 . S
C823 C151 1.057 . S
C841 C100 1.598 . S
C845 C399 1.590 . S
C859 C313 1.522 . S
C863 C456 1.655 . S
C877 C322 1.237 . S
C881 C460 1.389 . S
C899 C515 0.978 . S
C895 C187 0.942 . S
C917 C523 1.582 . S
C913 C277 1.586 . S
C935 C453 1.038 . S
C931 C67 0.989 . S
C953 C461 1.529 . S
C949 C20 1.393 . S
C967 C28 1.482 . S
C971 C518 1.608 . S
C985 C62 1.451 . S
C989 C522 1.443 . S
C1003 C40 1.322 . S
C1007 C487 1.237 . S
C1025 C577 1.173 . S
C1021 C184 1.124 . S
C1039 C293 1.472 . S
C1043 C585 1.505 . S
C1061 C639 1.130 . S
C1057 C310 1.274 . S
C1075 C146 1.344 . S
C1079 C491 1.353 . S
C1097 C580 1.160 . S
C1093 C230 1.068 . S
C1115 C584 1.437 . S
C1111 C255 1.446 . S
C1133 C647 1.398 . S
C1129 C205 1.337 . S
C1147 C66 1.075 . S
C1151 C391 1.119 . S
C1165 C4 1.118 . S
C1169 C337 1.129 . S
C1187 C394 1.289 . S
C1183 C37 1.194 . S
C1201 C46 1.478 . S
C1205 C336 1.522 . S
C1219 C301 1.242 . S
C1223 C701 1.320 . S
C1237 C331 1.108 . S
C1241 C677 1.144 . S
C1259 C704 1.139 . S
C1255 C175 1.053 . S
C1273 C276 1.593 . S
C1277 C678 1.603 . S
C1291 C125 1.547 . S
C1295 C611 1.674 . S
C1313 C615 1.389 . S
C1309 C130 1.237 . S
C1331 C670 0.974 . S
C1327 C167 0.937 . S
C1349 C554 1.579 . S
C1345 C91 1.586 . S
C1367 C608 1.043 . S
C1363 C214 0.993 . S
C1381 C272 1.400 . S
C1385 C616 1.526 . S
C1399 C235 1.487 . S
C1403 C673 1.609 . S
C1421 C553 1.451 . S
C1417 C208 1.444 . S
C1435 C251 1.321 . S
C1439 C642 1.238 . S
C1457 C546 1.163 . S
C1453 C150 1.115 . S
C1471 C103 1.467 . S
C1475 C430 1.516 . S
C1489 C108 1.286 . S
C1493 C484 1.115 . S
C1507 C334 1.339 . S
C1511 C646 1.353 . S
C1525 C83 1.094 . S
C1529 C549 1.180 . S
C1543 C3 1.454 . S
C1547 C429 1.426 . S
C1565 C492 1.388 . S
C1561 C45 1.356 . S
C1583 C347 1.651 . S
C1579 C318 1.601 . S
C1601 C377 1.781 . S
C1597 C188 1.642 . S
C1619 C354 1.623 . S
C1615 C289 1.509 . S
C1637 C369 1.878 . S
C1633 C314 1.710 1_565 S
C1655 C409 1.514 . S
C1651 C209 1.449 . S
C1669 C226 1.874 . S
C1673 C400 2.063 . S
C1687 C271 1.596 . S
C1691 C416 1.700 . S
C1705 C247 1.858 1_565 S
C1709 C408 1.954 . S
C1727 C447 1.330 . S
C1723 C58 1.239 . S
C1745 C470 1.764 . S
C1741 C70 1.636 . S
C1759 C16 1.164 . S
C1763 C502 1.193 . S
C1781 C532 1.800 . S
C1777 C25 1.642 . S
C1795 C133 1.150 . S
C1799 C440 1.213 . S
C1817 C462 1.877 . S
C1813 C163 1.726 1_455 S
C1835 C509 1.228 . S
C1831 C88 1.129 . S
C1849 C121 1.756 1_655 S
C1853 C524 1.898 . S
C1871 C471 1.297 . S
C1867 C104 1.259 . S
C1885 C7 1.359 . S
C1889 C564 1.371 . S
C1903 C41 1.244 1_556 S
C1907 C594 1.363 . S
C1921 C49 1.140 . S
C1925 C633 1.251 . S
C1943 C493 1.700 . S
C1939 C229 1.525 . S
C1961 C571 1.251 . S
C1957 C335 1.167 . S
C1975 C172 1.653 . S
C1979 C586 1.832 . S
C1997 C656 1.193 . S
C1993 C298 1.078 . S
C2015 C378 1.646 . S
C2011 C142 1.600 . S
C2029 C166 1.642 1_545 S
C2033 C346 1.784 . S
C2047 C87 1.523 . S
C2051 C385 1.629 . S
C2065 C124 1.709 . S
C2069 C338 1.877 . S
C2087 C688 1.501 . S
C2083 C61 1.456 . S
C2105 C679 2.063 . S
C2101 C79 1.892 1_545 S
C2119 C19 1.585 . S
C2123 C695 1.700 . S
C2137 C24 1.851 . S
C2141 C687 1.955 . S
C2155 C192 1.261 . S
C2159 C602 1.338 . S
C2177 C625 1.764 . S
C2173 C217 1.645 1_655 S
C2195 C657 1.209 . S
C2191 C268 1.154 . S
C2209 C238 1.646 1_455 S
C2213 C563 1.798 . S
C2231 C595 1.209 . S
C2227 C319 1.177 . S
C2245 C171 1.706 . S
C2249 C617 1.868 . S
C2267 C664 1.230 . S
C2263 C280 1.145 . S
C2281 C297 1.752 . S
C2285 C555 1.900 . S
C2299 C292 1.248 . S
C2303 C626 1.302 . S
C2317 C259 1.364 . S
C2321 C533 1.379 . S
C2339 C439 1.365 . S
C2335 C250 1.232 . S
C2353 C193 1.159 . S
C2357 C478 1.247 . S
C2371 C82 1.516 1_556 S
C2375 C648 1.699 . S
C2389 C145 1.174 . S
C2393 C540 1.253 . S
C2411 C431 1.838 . S
C2407 C154 1.648 1_554 S
C2425 C112 1.096 . S
C2429 C501 1.188 . S
