# Generated by pormake.
# Topology ocu, (6,8)-cn, num edge types: 1
# Building blocks:
#     Node 0, Type 0, BuildingBlock: KUMJIN_clean_sbu_0, # of connection points: 6
#     Node 1, Type 0, BuildingBlock: KUMJIN_clean_sbu_0, # of connection points: 6
#     Node 2, Type 0, BuildingBlock: KUMJIN_clean_sbu_0, # of connection points: 6
#     Node 3, Type 0, BuildingBlock: KUMJIN_clean_sbu_0, # of connection points: 6
#     Node 4, Type 0, BuildingBlock: KUMJIN_clean_sbu_0, # of connection points: 6
#     Node 5, Type 0, BuildingBlock: KUMJIN_clean_sbu_0, # of connection points: 6
#     Node 6, Type 0, BuildingBlock: KUMJIN_clean_sbu_0, # of connection points: 6
#     Node 7, Type 0, BuildingBlock: KUMJIN_clean_sbu_0, # of connection points: 6
#     Node 8, Type 1, BuildingBlock: VETTIZ_charged_sbu_0, # of connection points: 8
#     Node 9, Type 1, BuildingBlock: VETTIZ_charged_sbu_0, # of connection points: 8
#     Node 10, Type 1, BuildingBlock: VETTIZ_charged_sbu_0, # of connection points: 8
#     Node 11, Type 1, BuildingBlock: VETTIZ_charged_sbu_0, # of connection points: 8
#     Node 12, Type 1, BuildingBlock: VETTIZ_charged_sbu_0, # of connection points: 8
#     Node 13, Type 1, BuildingBlock: VETTIZ_charged_sbu_0, # of connection points: 8
#     Edge 14, Type (0, 1), BuildingBlock: MIFKUJ_clean_linker_0, # of connection points: 2
#     Edge 15, Type (0, 1), BuildingBlock: MIFKUJ_clean_linker_0, # of connection points: 2
#     Edge 16, Type (0, 1), BuildingBlock: MIFKUJ_clean_linker_0, # of connection points: 2
#     Edge 17, Type (0, 1), BuildingBlock: MIFKUJ_clean_linker_0, # of connection points: 2
#     Edge 18, Type (0, 1), BuildingBlock: MIFKUJ_clean_linker_0, # of connection points: 2
#     Edge 19, Type (0, 1), BuildingBlock: MIFKUJ_clean_linker_0, # of connection points: 2
#     Edge 20, Type (0, 1), BuildingBlock: MIFKUJ_clean_linker_0, # of connection points: 2
#     Edge 21, Type (0, 1), BuildingBlock: MIFKUJ_clean_linker_0, # of connection points: 2
#     Edge 22, Type (0, 1), BuildingBlock: MIFKUJ_clean_linker_0, # of connection points: 2
#     Edge 23, Type (0, 1), BuildingBlock: MIFKUJ_clean_linker_0, # of connection points: 2
#     Edge 24, Type (0, 1), BuildingBlock: MIFKUJ_clean_linker_0, # of connection points: 2
#     Edge 25, Type (0, 1), BuildingBlock: MIFKUJ_clean_linker_0, # of connection points: 2
#     Edge 26, Type (0, 1), BuildingBlock: MIFKUJ_clean_linker_0, # of connection points: 2
#     Edge 27, Type (0, 1), BuildingBlock: MIFKUJ_clean_linker_0, # of connection points: 2
#     Edge 28, Type (0, 1), BuildingBlock: MIFKUJ_clean_linker_0, # of connection points: 2
#     Edge 29, Type (0, 1), BuildingBlock: MIFKUJ_clean_linker_0, # of connection points: 2
#     Edge 30, Type (0, 1), BuildingBlock: MIFKUJ_clean_linker_0, # of connection points: 2
#     Edge 31, Type (0, 1), BuildingBlock: MIFKUJ_clean_linker_0, # of connection points: 2
#     Edge 32, Type (0, 1), BuildingBlock: MIFKUJ_clean_linker_0, # of connection points: 2
#     Edge 33, Type (0, 1), BuildingBlock: MIFKUJ_clean_linker_0, # of connection points: 2
#     Edge 34, Type (0, 1), BuildingBlock: MIFKUJ_clean_linker_0, # of connection points: 2
#     Edge 35, Type (0, 1), BuildingBlock: MIFKUJ_clean_linker_0, # of connection points: 2
#     Edge 36, Type (0, 1), BuildingBlock: MIFKUJ_clean_linker_0, # of connection points: 2
#     Edge 37, Type (0, 1), BuildingBlock: MIFKUJ_clean_linker_0, # of connection points: 2
#     Edge 38, Type (0, 1), BuildingBlock: MIFKUJ_clean_linker_0, # of connection points: 2
#     Edge 39, Type (0, 1), BuildingBlock: MIFKUJ_clean_linker_0, # of connection points: 2
#     Edge 40, Type (0, 1), BuildingBlock: MIFKUJ_clean_linker_0, # of connection points: 2
#     Edge 41, Type (0, 1), BuildingBlock: MIFKUJ_clean_linker_0, # of connection points: 2
#     Edge 42, Type (0, 1), BuildingBlock: MIFKUJ_clean_linker_0, # of connection points: 2
#     Edge 43, Type (0, 1), BuildingBlock: MIFKUJ_clean_linker_0, # of connection points: 2
#     Edge 44, Type (0, 1), BuildingBlock: MIFKUJ_clean_linker_0, # of connection points: 2
#     Edge 45, Type (0, 1), BuildingBlock: MIFKUJ_clean_linker_0, # of connection points: 2
#     Edge 46, Type (0, 1), BuildingBlock: MIFKUJ_clean_linker_0, # of connection points: 2
#     Edge 47, Type (0, 1), BuildingBlock: MIFKUJ_clean_linker_0, # of connection points: 2
#     Edge 48, Type (0, 1), BuildingBlock: MIFKUJ_clean_linker_0, # of connection points: 2
#     Edge 49, Type (0, 1), BuildingBlock: MIFKUJ_clean_linker_0, # of connection points: 2
#     Edge 50, Type (0, 1), BuildingBlock: MIFKUJ_clean_linker_0, # of connection points: 2
#     Edge 51, Type (0, 1), BuildingBlock: MIFKUJ_clean_linker_0, # of connection points: 2
#     Edge 52, Type (0, 1), BuildingBlock: MIFKUJ_clean_linker_0, # of connection points: 2
#     Edge 53, Type (0, 1), BuildingBlock: MIFKUJ_clean_linker_0, # of connection points: 2
#     Edge 54, Type (0, 1), BuildingBlock: MIFKUJ_clean_linker_0, # of connection points: 2
#     Edge 55, Type (0, 1), BuildingBlock: MIFKUJ_clean_linker_0, # of connection points: 2
#     Edge 56, Type (0, 1), BuildingBlock: MIFKUJ_clean_linker_0, # of connection points: 2
#     Edge 57, Type (0, 1), BuildingBlock: MIFKUJ_clean_linker_0, # of connection points: 2
#     Edge 58, Type (0, 1), BuildingBlock: MIFKUJ_clean_linker_0, # of connection points: 2
#     Edge 59, Type (0, 1), BuildingBlock: MIFKUJ_clean_linker_0, # of connection points: 2
#     Edge 60, Type (0, 1), BuildingBlock: MIFKUJ_clean_linker_0, # of connection points: 2
#     Edge 61, Type (0, 1), BuildingBlock: MIFKUJ_clean_linker_0, # of connection points: 2
# Relax obj value: 0.105
# Max RMSD: 0.249
# Mean RMSD: 0.161
data_MOF--net-ocu--node1-KUMJIN_clean_sbu_0--node2-VETTIZ_charged_sbu_0--edge1-MIFKUJ_clean_linker_0
_symmetry_space_group_name_H-M    P1
_symmetry_Int_Tables_number       1
_symmetry_cell_setting            triclinic
loop_
_symmetry_equiv_pos_as_xyz
'x, y, z'
_cell_length_a     48.846071
_cell_length_b     49.299038
_cell_length_c     52.450035
_cell_angle_alpha  80.38181
_cell_angle_beta   98.145548
_cell_angle_gamma 102.04041
loop_
_atom_site_label
_atom_site_type_symbol
_atom_site_fract_x
_atom_site_fract_y
_atom_site_fract_z
_atom_type_partial_charge
Eu0 Eu 0.26845 0.23184 0.23609 0.0
C1 C 0.34832 0.31662 0.30333 0.0
C2 C 0.36193 0.28874 0.34391 0.0
C3 C 0.39301 0.33189 0.32857 0.0
C4 C 0.34278 0.29298 0.32149 0.0
C5 C 0.37314 0.33675 0.30702 0.0
C6 C 0.38742 0.3079 0.34697 0.0
C7 C 0.35546 0.3664 0.26953 0.0
N8 N 0.32845 0.32093 0.28302 0.0
C9 C 0.33116 0.34587 0.26672 0.0
C10 C 0.37675 0.36165 0.28953 0.0
Eu11 Eu 0.28793 0.2851 0.27971 0.0
N12 N 0.3178 0.27512 0.31818 0.0
C13 C 0.30962 0.25393 0.33749 0.0
C14 C 0.35435 0.26604 0.3631 0.0
C15 C 0.32782 0.24893 0.36008 0.0
H16 H 0.31486 0.34991 0.25124 0.0
H17 H 0.3213 0.23191 0.37512 0.0
H18 H 0.40252 0.30484 0.36393 0.0
H19 H 0.35772 0.38587 0.25627 0.0
H20 H 0.28923 0.24046 0.33542 0.0
H21 H 0.23423 0.28733 0.14179 0.0
H22 H 0.36842 0.26208 0.38064 0.0
H23 H 0.24047 0.16734 0.26432 0.0
H24 H 0.26719 0.27688 0.1805 0.0
H25 H 0.19673 0.13238 0.25975 0.0
H26 H 0.41234 0.34697 0.3316 0.0
H27 H 0.18664 0.25795 0.13669 0.0
H28 H 0.15223 0.21536 0.15327 0.0
H29 H 0.3955 0.37766 0.29175 0.0
H30 H 0.14211 0.17299 0.18529 0.0
N31 N 0.23843 0.24247 0.19777 0.0
C32 C 0.24659 0.2638 0.17856 0.0
C33 C 0.20106 0.25328 0.1538 0.0
C34 C 0.19351 0.23029 0.17271 0.0
C35 C 0.22792 0.26984 0.15655 0.0
C36 C 0.21302 0.22526 0.19468 0.0
H37 H 0.1588 0.14159 0.22474 0.0
N38 N 0.22742 0.19657 0.23253 0.0
C39 C 0.19937 0.15179 0.24642 0.0
C40 C 0.20733 0.2015 0.21262 0.0
C41 C 0.2242 0.17172 0.24893 0.0
C42 C 0.17799 0.15711 0.22669 0.0
C43 C 0.18196 0.18201 0.20923 0.0
O44 O 0.28751 0.19605 0.23401 0.0
O45 O 0.29834 0.24532 0.27084 0.0
O46 O 0.32391 0.2914 0.25533 0.0
O47 O 0.29908 0.27004 0.22044 0.0
O48 O 0.28142 0.20315 0.27177 0.0
O49 O 0.29135 0.2313 0.20333 0.0
O50 O 0.26411 0.31814 0.27928 0.0
O51 O 0.25814 0.27106 0.24549 0.0
O52 O 0.2321 0.22716 0.25966 0.0
O53 O 0.2578 0.24647 0.29518 0.0
O54 O 0.27487 0.31334 0.2434 0.0
O55 O 0.26872 0.2887 0.31408 0.0
C56 C 0.29847 0.22119 0.28434 0.0
C57 C 0.29088 0.18687 0.19213 0.0
C58 C 0.30817 0.15818 0.1667 0.0
C59 C 0.31338 0.17774 0.18433 0.0
C60 C 0.28025 0.14828 0.1567 0.0
C61 C 0.26321 0.17686 0.18187 0.0
C62 C 0.25796 0.15768 0.16419 0.0
C63 C 0.32104 0.28676 0.2309 0.0
C64 C 0.29643 0.20621 0.21148 0.0
C65 C 0.16184 0.18758 0.1881 0.0
C66 C 0.1676 0.2117 0.16988 0.0
C67 C 0.25777 0.29473 0.23146 0.0
C68 C 0.26417 0.33439 0.31882 0.0
C69 C 0.24151 0.34162 0.32831 0.0
C70 C 0.24581 0.36513 0.34155 0.0
C71 C 0.27321 0.38129 0.3447 0.0
C72 C 0.29127 0.35036 0.32298 0.0
C73 C 0.29571 0.37373 0.33574 0.0
C74 C 0.23498 0.2314 0.28418 0.0
C75 C 0.25915 0.31116 0.30342 0.0
H76 H 0.33479 0.18537 0.19237 0.0
H77 H 0.2757 0.13346 0.14287 0.0
H78 H 0.24569 0.18373 0.1876 0.0
H79 H 0.23656 0.15 0.15634 0.0
H80 H 0.2207 0.32883 0.32544 0.0
H81 H 0.27739 0.40007 0.35385 0.0
H82 H 0.30895 0.34505 0.31604 0.0
H83 H 0.31664 0.38625 0.33848 0.0
Eu84 Eu 0.78242 0.23604 0.27006 0.0
C85 C 0.71659 0.30462 0.30531 0.0
C86 C 0.67008 0.27553 0.30172 0.0
C87 C 0.68446 0.30296 0.33729 0.0
C88 C 0.69651 0.28592 0.29223 0.0
C89 C 0.71021 0.31424 0.3273 0.0
C90 C 0.66449 0.28371 0.32445 0.0
C91 C 0.75295 0.34894 0.32542 0.0
N92 N 0.74137 0.31526 0.29535 0.0
C93 C 0.75849 0.33857 0.30386 0.0
C94 C 0.72913 0.33613 0.33772 0.0
Eu95 Eu 0.74966 0.2957 0.25936 0.0
N96 N 0.70215 0.27896 0.2697 0.0
C97 C 0.68125 0.26287 0.25529 0.0
C98 C 0.64962 0.25769 0.28783 0.0
C99 C 0.65518 0.25156 0.26441 0.0
H100 H 0.77728 0.34851 0.29479 0.0
H101 H 0.63939 0.23791 0.25341 0.0
H102 H 0.64422 0.27619 0.33148 0.0
H103 H 0.76723 0.3666 0.33267 0.0
H104 H 0.68376 0.25814 0.2367 0.0
H105 H 0.89162 0.29536 0.272 0.0
H106 H 0.62928 0.249 0.29473 0.0
H107 H 0.7527 0.1845 0.2333 0.0
H108 H 0.84539 0.27976 0.28643 0.0
H109 H 0.76054 0.16739 0.19431 0.0
H110 H 0.67931 0.30986 0.35429 0.0
H111 H 0.90211 0.2801 0.23273 0.0
H112 H 0.88596 0.25423 0.19492 0.0
H113 H 0.72488 0.34414 0.35448 0.0
H114 H 0.84972 0.22087 0.17279 0.0
N115 N 0.82887 0.25352 0.25724 0.0
C116 C 0.84927 0.27148 0.27015 0.0
C117 C 0.8816 0.27277 0.23925 0.0
C118 C 0.86085 0.25501 0.22561 0.0
C119 C 0.87581 0.28108 0.26159 0.0
C120 C 0.83442 0.24534 0.23529 0.0
H121 H 0.80353 0.18824 0.17274 0.0
N122 N 0.78896 0.21734 0.23258 0.0
C123 C 0.77544 0.18465 0.20158 0.0
C124 C 0.81379 0.22711 0.22244 0.0
C125 C 0.77088 0.19483 0.22358 0.0
C126 C 0.7996 0.19642 0.18949 0.0
C127 C 0.81945 0.21738 0.20021 0.0
O128 O 0.7618 0.19252 0.27889 0.0
O129 O 0.74318 0.25043 0.27591 0.0
O130 O 0.78239 0.29813 0.29496 0.0
O131 O 0.80445 0.25943 0.30322 0.0
O132 O 0.76573 0.23254 0.30861 0.0
O133 O 0.80611 0.20514 0.29182 0.0
O134 O 0.77368 0.33792 0.24984 0.0
O135 O 0.78899 0.28139 0.25386 0.0
O136 O 0.7449 0.23069 0.23863 0.0
O137 O 0.72849 0.27257 0.22605 0.0
O138 O 0.76583 0.29778 0.22074 0.0
O139 O 0.72841 0.32924 0.23974 0.0
C140 C 0.74308 0.24213 0.30019 0.0
C141 C 0.77786 0.17397 0.32131 0.0
C142 C 0.79682 0.16381 0.36645 0.0
C143 C 0.80072 0.17201 0.34016 0.0
C144 C 0.76958 0.15671 0.374 0.0
C145 C 0.75045 0.16698 0.32897 0.0
C146 C 0.74647 0.15853 0.35523 0.0
C147 C 0.80057 0.28347 0.30877 0.0
C148 C 0.78336 0.18589 0.29442 0.0
C149 C 0.84525 0.22783 0.19004 0.0
C150 C 0.86592 0.24665 0.20271 0.0
C151 C 0.78892 0.28909 0.22948 0.0
C152 C 0.75626 0.35688 0.20803 0.0
C153 C 0.73286 0.35396 0.18942 0.0
C154 C 0.73602 0.35736 0.163 0.0
C155 C 0.76294 0.36461 0.15471 0.0
C156 C 0.78331 0.36509 0.19966 0.0
C157 C 0.78656 0.36892 0.17311 0.0
C158 C 0.72877 0.24651 0.22314 0.0
C159 C 0.75218 0.34648 0.23554 0.0
H160 H 0.82182 0.1766 0.33426 0.0
H161 H 0.76627 0.14951 0.39419 0.0
H162 H 0.73219 0.16843 0.31485 0.0
H163 H 0.72548 0.15331 0.36108 0.0
H164 H 0.71183 0.34769 0.19549 0.0
H165 H 0.76559 0.36734 0.13423 0.0
H166 H 0.80193 0.36751 0.21361 0.0
H167 H 0.80742 0.37479 0.16686 0.0
Eu168 Eu 0.74795 0.74763 0.28865 0.0
C169 C 0.82733 0.82514 0.21108 0.0
C170 C 0.79667 0.83869 0.17277 0.0
C171 C 0.84074 0.86981 0.18402 0.0
C172 C 0.80243 0.81968 0.1952 0.0
C173 C 0.84717 0.84991 0.20532 0.0
C174 C 0.8155 0.86419 0.16775 0.0
C175 C 0.87946 0.83203 0.24017 0.0
N176 N 0.83306 0.80518 0.23105 0.0
C177 C 0.85911 0.8078 0.24503 0.0
C178 C 0.8733 0.85341 0.2205 0.0
Eu179 Eu 0.79712 0.76522 0.23917 0.0
N180 N 0.78508 0.7946 0.20037 0.0
C181 C 0.76316 0.78607 0.18247 0.0
C182 C 0.77295 0.83084 0.15538 0.0
C183 C 0.75656 0.80411 0.15996 0.0
H184 H 0.86412 0.79153 0.2604 0.0
H185 H 0.73894 0.79725 0.14615 0.0
H186 H 0.81126 0.87921 0.15079 0.0
H187 H 0.89982 0.83423 0.25167 0.0
H188 H 0.75035 0.76549 0.18546 0.0
H189 H 0.81254 0.71713 0.37863 0.0
H190 H 0.76779 0.84476 0.13787 0.0
H191 H 0.68208 0.71764 0.26798 0.0
H192 H 0.79764 0.74903 0.34053 0.0
H193 H 0.64908 0.67276 0.2767 0.0
H194 H 0.85556 0.88912 0.17944 0.0
H195 H 0.78532 0.66893 0.38753 0.0
H196 H 0.74254 0.63308 0.37592 0.0
H197 H 0.88913 0.87213 0.21669 0.0
H198 H 0.69782 0.6211 0.34836 0.0
N199 N 0.76276 0.71909 0.32698 0.0
C200 C 0.78544 0.72816 0.34395 0.0
C201 C 0.77866 0.68289 0.37063 0.0
C202 C 0.75427 0.6744 0.35421 0.0
C203 C 0.79402 0.71009 0.36572 0.0
C204 C 0.74664 0.69334 0.33239 0.0
H205 H 0.66255 0.63593 0.31159 0.0
N206 N 0.71415 0.70615 0.29731 0.0
C207 C 0.6694 0.67635 0.28817 0.0
C208 C 0.72148 0.68667 0.31708 0.0
C209 C 0.6881 0.7018 0.28338 0.0
C210 C 0.67713 0.6556 0.30782 0.0
C211 C 0.70326 0.66077 0.32284 0.0
O212 O 0.71063 0.76105 0.29748 0.0
O213 O 0.759 0.77641 0.2517 0.0
O214 O 0.80697 0.80136 0.26332 0.0
O215 O 0.78762 0.77788 0.3008 0.0
O216 O 0.71677 0.76138 0.25558 0.0
O217 O 0.7514 0.7768 0.31655 0.0
O218 O 0.8329 0.74706 0.23372 0.0
O219 O 0.78535 0.73577 0.27566 0.0
O220 O 0.73877 0.71223 0.26405 0.0
O221 O 0.75618 0.73681 0.22612 0.0
O222 O 0.82747 0.75222 0.27341 0.0
O223 O 0.79373 0.73788 0.20956 0.0
C224 C 0.73405 0.77729 0.24064 0.0
C225 C 0.71243 0.77367 0.33943 0.0
C226 C 0.69221 0.79384 0.37045 0.0
C227 C 0.70232 0.79613 0.34608 0.0
C228 C 0.69206 0.76869 0.38771 0.0
C229 C 0.71193 0.74886 0.357 0.0
C230 C 0.70175 0.74642 0.38097 0.0
C231 C 0.80397 0.79936 0.28836 0.0
C232 C 0.7245 0.77651 0.31468 0.0
C233 C 0.71139 0.64123 0.34374 0.0
C234 C 0.73687 0.64804 0.35941 0.0
C235 C 0.80997 0.7354 0.28753 0.0
C236 C 0.8352 0.73775 0.19138 0.0
C237 C 0.84604 0.71517 0.18597 0.0
C238 C 0.85932 0.71781 0.16324 0.0
C239 C 0.86201 0.74332 0.14638 0.0
C240 C 0.83841 0.76307 0.17435 0.0
C241 C 0.85181 0.76581 0.15202 0.0
C242 C 0.73972 0.7155 0.23865 0.0
C243 C 0.81981 0.7346 0.21426 0.0
H244 H 0.70286 0.81543 0.33261 0.0
H245 H 0.68411 0.7661 0.4064 0.0
H246 H 0.71956 0.73144 0.35225 0.0
H247 H 0.70143 0.72719 0.39443 0.0
H248 H 0.84357 0.69549 0.19901 0.0
H249 H 0.8722 0.74587 0.12884 0.0
H250 H 0.83035 0.78064 0.17821 0.0
H251 H 0.85411 0.78539 0.13893 0.0
Eu252 Eu 0.29259 0.73447 0.26751 0.0
C253 C 0.22853 0.8245 0.20215 0.0
C254 C 0.26486 0.8642 0.18987 0.0
C255 C 0.2196 0.85737 0.16335 0.0
C256 C 0.25573 0.83924 0.20638 0.0
C257 C 0.20995 0.83376 0.18092 0.0
C258 C 0.24678 0.87287 0.16814 0.0
C259 C 0.17201 0.80003 0.1994 0.0
N260 N 0.21913 0.80346 0.22081 0.0
C261 C 0.19106 0.79216 0.22045 0.0
C262 C 0.1816 0.82053 0.17924 0.0
Eu263 Eu 0.25225 0.79077 0.25586 0.0
N264 N 0.27162 0.83153 0.22874 0.0
C265 C 0.29592 0.84882 0.23663 0.0
C266 C 0.29086 0.88089 0.1969 0.0
C267 C 0.30631 0.87332 0.22055 0.0
H268 H 0.18332 0.77647 0.23602 0.0
H269 H 0.326 0.88654 0.2266 0.0
H270 H 0.2528 0.89247 0.15583 0.0
H271 H 0.14994 0.79038 0.19882 0.0
H272 H 0.30771 0.84353 0.25517 0.0
H273 H 0.21332 0.63977 0.28755 0.0
H274 H 0.29851 0.90037 0.18493 0.0
H275 H 0.35768 0.75069 0.29785 0.0
H276 H 0.23651 0.68196 0.2609 0.0
H277 H 0.38472 0.73648 0.3398 0.0
H278 H 0.20561 0.86495 0.14702 0.0
H279 H 0.23387 0.62606 0.33258 0.0
H280 H 0.2737 0.63445 0.36813 0.0
H281 H 0.1667 0.82701 0.1632 0.0
H282 H 0.32039 0.66084 0.38244 0.0
N283 N 0.26969 0.69253 0.29068 0.0
C284 C 0.2459 0.67618 0.28042 0.0
C285 C 0.24424 0.64461 0.32093 0.0
C286 C 0.26957 0.66052 0.33072 0.0
C287 C 0.23262 0.65221 0.29549 0.0
C288 C 0.28207 0.68459 0.31484 0.0
H289 H 0.36228 0.69852 0.37176 0.0
N290 N 0.32034 0.72152 0.30649 0.0
C291 C 0.36317 0.72604 0.33539 0.0
C292 C 0.30818 0.6996 0.32306 0.0
C293 C 0.34788 0.73399 0.31168 0.0
C294 C 0.35038 0.70468 0.35342 0.0
C295 C 0.32274 0.69078 0.34715 0.0
O296 O 0.32968 0.73049 0.25073 0.0
O297 O 0.28711 0.77511 0.24269 0.0
O298 O 0.23883 0.76782 0.22099 0.0
O299 O 0.25567 0.72624 0.23611 0.0
O300 O 0.32796 0.77073 0.25706 0.0
O301 O 0.29133 0.69977 0.24601 0.0
O302 O 0.21929 0.79726 0.27712 0.0
O303 O 0.25742 0.74981 0.27967 0.0
O304 O 0.30026 0.75587 0.30343 0.0
O305 O 0.29201 0.79969 0.2842 0.0
O306 O 0.21675 0.75521 0.26775 0.0
O307 O 0.25984 0.8249 0.27916 0.0
C308 C 0.31279 0.78696 0.24243 0.0
C309 C 0.33454 0.6846 0.24906 0.0
C310 C 0.36445 0.65642 0.23622 0.0
C311 C 0.34676 0.67638 0.22965 0.0
C312 C 0.36993 0.64535 0.2626 0.0
C313 C 0.33943 0.67238 0.27495 0.0
C314 C 0.35722 0.65307 0.28171 0.0
C315 C 0.24024 0.74168 0.21922 0.0
C316 C 0.3179 0.70686 0.24243 0.0
C317 C 0.30972 0.66773 0.36367 0.0
C318 C 0.28315 0.65267 0.35549 0.0
C319 C 0.23188 0.73811 0.28079 0.0
C320 C 0.2202 0.8444 0.2799 0.0
C321 C 0.21034 0.85331 0.30028 0.0
C322 C 0.19675 0.87647 0.2953 0.0
C323 C 0.19272 0.8901 0.26962 0.0
C324 C 0.21671 0.85881 0.25465 0.0
C325 C 0.20283 0.88137 0.24948 0.0
C326 C 0.30293 0.78302 0.30366 0.0
C327 C 0.23408 0.82013 0.28496 0.0
H328 H 0.34224 0.68538 0.20957 0.0
H329 H 0.38419 0.63079 0.26862 0.0
H330 H 0.32978 0.67789 0.29001 0.0
H331 H 0.3613 0.64417 0.30187 0.0
H332 H 0.21367 0.84251 0.31991 0.0
H333 H 0.18164 0.90748 0.26504 0.0
H334 H 0.22474 0.85276 0.23894 0.0
H335 H 0.19994 0.89212 0.22981 0.0
Eu336 Eu 0.29959 0.71544 0.77333 0.0
C337 C 0.22831 0.77522 0.80079 0.0
C338 C 0.18043 0.75578 0.78496 0.0
C339 C 0.19091 0.76788 0.82876 0.0
C340 C 0.20921 0.76433 0.78129 0.0
C341 C 0.21918 0.77783 0.8245 0.0
C342 C 0.17156 0.75704 0.80897 0.0
C343 C 0.26562 0.80318 0.83675 0.0
N344 N 0.25552 0.78464 0.79608 0.0
C345 C 0.27349 0.80045 0.81286 0.0
C346 C 0.23851 0.7912 0.8429 0.0
Eu347 Eu 0.26809 0.77554 0.75626 0.0
N348 N 0.21839 0.76392 0.75814 0.0
C349 C 0.19925 0.75814 0.73709 0.0
C350 C 0.16124 0.74732 0.76404 0.0
C351 C 0.17065 0.74898 0.73988 0.0
H352 H 0.29384 0.81175 0.80794 0.0
H353 H 0.15579 0.74374 0.72325 0.0
H354 H 0.14961 0.7508 0.81212 0.0
H355 H 0.28033 0.81502 0.85017 0.0
H356 H 0.20557 0.76092 0.7178 0.0
H357 H 0.41208 0.7588 0.79565 0.0
H358 H 0.13898 0.74083 0.76594 0.0
H359 H 0.27353 0.67089 0.72836 0.0
H360 H 0.36429 0.7389 0.80605 0.0
H361 H 0.28375 0.66401 0.68571 0.0
H362 H 0.1836 0.76942 0.84694 0.0
H363 H 0.42511 0.75815 0.75217 0.0
H364 H 0.41133 0.74354 0.70778 0.0
H365 H 0.23233 0.79355 0.86133 0.0
H366 H 0.37608 0.71869 0.67737 0.0
N367 N 0.34826 0.73045 0.76741 0.0
C368 C 0.36865 0.73998 0.78631 0.0
C369 C 0.40355 0.75036 0.75613 0.0
C370 C 0.38334 0.73841 0.73751 0.0
C371 C 0.39627 0.75072 0.78075 0.0
C372 C 0.35558 0.72812 0.74393 0.0
H373 H 0.32847 0.68883 0.66891 0.0
N374 N 0.30966 0.70299 0.73407 0.0
C375 C 0.29828 0.67875 0.69668 0.0
C376 C 0.33567 0.71408 0.72673 0.0
C377 C 0.29214 0.68342 0.72062 0.0
C378 C 0.32357 0.69267 0.68735 0.0
C379 C 0.34311 0.70974 0.70286 0.0
O380 O 0.27828 0.67181 0.78249 0.0
O381 O 0.26106 0.73178 0.77728 0.0
O382 O 0.30947 0.78494 0.78248 0.0
O383 O 0.31778 0.74223 0.80483 0.0
O384 O 0.28391 0.71736 0.81141 0.0
O385 O 0.32253 0.68375 0.79465 0.0
O386 O 0.28919 0.81924 0.75534 0.0
O387 O 0.30643 0.75925 0.75185 0.0
O388 O 0.25917 0.7053 0.74666 0.0
O389 O 0.24901 0.74776 0.72536 0.0
O390 O 0.2832 0.77396 0.71799 0.0
O391 O 0.25061 0.80874 0.73046 0.0
C392 C 0.26073 0.72565 0.80171 0.0
C393 C 0.29379 0.65843 0.82652 0.0
C394 C 0.30888 0.67102 0.87009 0.0
C395 C 0.31502 0.66796 0.84554 0.0
C396 C 0.2814 0.66111 0.8768 0.0
C397 C 0.26627 0.6486 0.8334 0.0
C398 C 0.26031 0.64947 0.85857 0.0
C399 C 0.32156 0.76973 0.80235 0.0
C400 C 0.29941 0.66571 0.79896 0.0
C401 C 0.37015 0.72145 0.69577 0.0
C402 C 0.39024 0.73568 0.7131 0.0
C403 C 0.30637 0.76545 0.7273 0.0
C404 C 0.28837 0.84057 0.71178 0.0
C405 C 0.2751 0.83715 0.68679 0.0
C406 C 0.28951 0.84698 0.66469 0.0
C407 C 0.31757 0.86115 0.66799 0.0
C408 C 0.31669 0.85419 0.7147 0.0
C409 C 0.33113 0.86443 0.69287 0.0
C410 C 0.24576 0.72025 0.7276 0.0
C411 C 0.27336 0.82743 0.73462 0.0
H412 H 0.3365 0.67447 0.84071 0.0
H413 H 0.27626 0.66251 0.89589 0.0
H414 H 0.24918 0.64146 0.81907 0.0
H415 H 0.23908 0.64199 0.86364 0.0
H416 H 0.253 0.82756 0.68458 0.0
H417 H 0.32884 0.87027 0.65139 0.0
H418 H 0.32775 0.8567 0.73382 0.0
H419 H 0.35289 0.87507 0.6952 0.0
Eu420 Eu 0.25123 0.25316 0.78855 0.0
C421 C 0.32719 0.32724 0.70602 0.0
C422 C 0.29388 0.34076 0.66983 0.0
C423 C 0.33966 0.3708 0.6771 0.0
C424 C 0.30098 0.32211 0.69209 0.0
C425 C 0.3472 0.35121 0.69824 0.0
C426 C 0.31301 0.36558 0.66291 0.0
C427 C 0.38161 0.33284 0.73054 0.0
N428 N 0.33394 0.30753 0.72584 0.0
C429 C 0.36105 0.3094 0.73745 0.0
C430 C 0.37453 0.35412 0.71117 0.0
Eu431 Eu 0.29783 0.26884 0.73725 0.0
N432 N 0.28329 0.29771 0.69905 0.0
C433 C 0.25928 0.2895 0.68324 0.0
C434 C 0.26833 0.33331 0.65456 0.0
C435 C 0.25121 0.3073 0.66103 0.0
H436 H 0.36686 0.29313 0.75242 0.0
H437 H 0.23174 0.30097 0.64902 0.0
H438 H 0.3078 0.38034 0.64607 0.0
H439 H 0.40287 0.33449 0.7402 0.0
H440 H 0.24582 0.26952 0.68795 0.0
H441 H 0.31797 0.23098 0.8793 0.0
H442 H 0.26208 0.34706 0.63732 0.0
H443 H 0.18586 0.21976 0.77051 0.0
H444 H 0.30118 0.25995 0.83974 0.0
H445 H 0.15486 0.17407 0.78178 0.0
H446 H 0.35461 0.38951 0.671 0.0
H447 H 0.29348 0.18204 0.89049 0.0
H448 H 0.25244 0.14357 0.88079 0.0
H449 H 0.39053 0.3722 0.70575 0.0
H450 H 0.20779 0.12813 0.85435 0.0
N451 N 0.26795 0.22753 0.82784 0.0
C452 C 0.29016 0.23869 0.84426 0.0
C453 C 0.28598 0.19468 0.873 0.0
C454 C 0.26196 0.18408 0.85709 0.0
C455 C 0.2998 0.22231 0.86681 0.0
C456 C 0.25321 0.20135 0.83446 0.0
H457 H 0.17094 0.13957 0.81769 0.0
N458 N 0.21939 0.21079 0.79926 0.0
C459 C 0.17544 0.17899 0.79254 0.0
C460 C 0.22808 0.1927 0.81971 0.0
C461 C 0.19299 0.20487 0.78629 0.0
C462 C 0.18465 0.15954 0.81276 0.0
C463 C 0.21103 0.16648 0.82696 0.0
O464 O 0.21361 0.26795 0.79436 0.0
O465 O 0.26107 0.28178 0.75104 0.0
O466 O 0.31129 0.3057 0.76022 0.0
O467 O 0.28991 0.28613 0.79791 0.0
O468 O 0.21931 0.26419 0.75522 0.0
O469 O 0.25245 0.27932 0.81865 0.0
O470 O 0.33007 0.24542 0.73294 0.0
O471 O 0.2883 0.24181 0.77523 0.0
O472 O 0.24337 0.21544 0.76698 0.0
O473 O 0.25672 0.23895 0.72736 0.0
O474 O 0.33017 0.25748 0.77056 0.0
O475 O 0.29344 0.24464 0.70494 0.0
C476 C 0.2358 0.28145 0.74031 0.0
C477 C 0.21017 0.27512 0.83706 0.0
C478 C 0.18521 0.29183 0.86681 0.0
C479 C 0.1997 0.29682 0.84453 0.0
C480 C 0.18109 0.26475 0.88112 0.0
C481 C 0.20589 0.24841 0.85175 0.0
C482 C 0.19136 0.24328 0.87361 0.0
C483 C 0.30773 0.30571 0.78485 0.0
C484 C 0.22577 0.28046 0.81413 0.0
C485 C 0.22043 0.1485 0.84861 0.0
C486 C 0.24587 0.15728 0.86365 0.0
C487 C 0.31333 0.24224 0.78629 0.0
C488 C 0.33569 0.24056 0.69015 0.0
C489 C 0.34453 0.21736 0.68359 0.0
C490 C 0.36291 0.2213 0.66427 0.0
C491 C 0.37197 0.24842 0.65148 0.0
C492 C 0.34478 0.26738 0.67686 0.0
C493 C 0.3628 0.27125 0.65765 0.0
C494 C 0.24258 0.21724 0.74151 0.0
C495 C 0.31772 0.237 0.71126 0.0
H496 H 0.20325 0.31756 0.83333 0.0
H497 H 0.16966 0.26008 0.89807 0.0
H498 H 0.21378 0.23153 0.84634 0.0
H499 H 0.18805 0.22256 0.88479 0.0
H500 H 0.33764 0.19653 0.69376 0.0
H501 H 0.38609 0.25189 0.63659 0.0
H502 H 0.33805 0.28537 0.6814 0.0
H503 H 0.3698 0.29205 0.64758 0.0
Eu504 Eu 0.79416 0.22958 0.76305 0.0
C505 C 0.73809 0.32328 0.69689 0.0
C506 C 0.77714 0.36134 0.68747 0.0
C507 C 0.73508 0.3553 0.65647 0.0
C508 C 0.76498 0.3375 0.70383 0.0
C509 C 0.72251 0.33247 0.6735 0.0
C510 C 0.76237 0.36968 0.66343 0.0
C511 C 0.68246 0.29751 0.68668 0.0
N512 N 0.72649 0.30148 0.71388 0.0
C513 C 0.69877 0.28917 0.70964 0.0
C514 C 0.6945 0.31899 0.66833 0.0
Eu515 Eu 0.7559 0.28768 0.75148 0.0
N516 N 0.77844 0.32917 0.72738 0.0
C517 C 0.80302 0.34507 0.73671 0.0
C518 C 0.80332 0.37663 0.69618 0.0
C519 C 0.81606 0.36874 0.72112 0.0
H520 H 0.68943 0.27241 0.72365 0.0
H521 H 0.83601 0.38076 0.72828 0.0
H522 H 0.77151 0.38774 0.65044 0.0
H523 H 0.6607 0.28725 0.68307 0.0
H524 H 0.81321 0.33908 0.75586 0.0
H525 H 0.71185 0.13693 0.78187 0.0
H526 H 0.81346 0.39498 0.68414 0.0
H527 H 0.86046 0.24033 0.79143 0.0
H528 H 0.73592 0.17921 0.75618 0.0
H529 H 0.88762 0.22444 0.83274 0.0
H530 H 0.7236 0.36249 0.63823 0.0
H531 H 0.73302 0.12042 0.82594 0.0
H532 H 0.77393 0.12585 0.86091 0.0
H533 H 0.68182 0.32542 0.65055 0.0
H534 H 0.82183 0.14994 0.87497 0.0
N535 N 0.77031 0.18738 0.78553 0.0
C536 C 0.74563 0.17235 0.77526 0.0
C537 C 0.74378 0.13905 0.81469 0.0
C538 C 0.76994 0.15352 0.82441 0.0
C539 C 0.73182 0.14826 0.7898 0.0
C540 C 0.78298 0.17772 0.809 0.0
H541 H 0.8646 0.18659 0.86446 0.0
N542 N 0.82229 0.21291 0.80051 0.0
C543 C 0.8657 0.21496 0.8286 0.0
C544 C 0.8098 0.19111 0.81687 0.0
C545 C 0.8503 0.22392 0.80528 0.0
C546 C 0.8526 0.19366 0.84647 0.0
C547 C 0.8245 0.18094 0.84041 0.0
O548 O 0.82977 0.22308 0.74551 0.0
O549 O 0.79075 0.27123 0.73984 0.0
O550 O 0.74765 0.2676 0.71478 0.0
O551 O 0.75565 0.22329 0.7329 0.0
O552 O 0.83093 0.26453 0.75309 0.0
O553 O 0.78823 0.19906 0.73614 0.0
O554 O 0.7204 0.29237 0.77025 0.0
O555 O 0.75998 0.24641 0.77572 0.0
O556 O 0.80725 0.25249 0.79805 0.0
O557 O 0.79365 0.29548 0.78197 0.0
O558 O 0.71966 0.2522 0.7613 0.0
O559 O 0.7597 0.32208 0.77391 0.0
C560 C 0.81659 0.28216 0.73953 0.0
C561 C 0.82678 0.17787 0.73549 0.0
C562 C 0.84523 0.14598 0.71466 0.0
C563 C 0.83347 0.16999 0.71305 0.0
C564 C 0.85011 0.13 0.73918 0.0
C565 C 0.83152 0.16163 0.75971 0.0
C566 C 0.84319 0.13779 0.7615 0.0
C567 C 0.74547 0.24068 0.7136 0.0
C568 C 0.81487 0.20308 0.73328 0.0
C569 C 0.81103 0.15787 0.85662 0.0
C570 C 0.78378 0.14415 0.84861 0.0
C571 C 0.73414 0.23527 0.77582 0.0
C572 C 0.7176 0.33844 0.77329 0.0
C573 C 0.70325 0.3436 0.79277 0.0
C574 C 0.68642 0.36419 0.78731 0.0
C575 C 0.68416 0.37954 0.76223 0.0
C576 C 0.71551 0.35425 0.74851 0.0
C577 C 0.69878 0.37464 0.743 0.0
C578 C 0.80771 0.27917 0.79925 0.0
C579 C 0.73343 0.31561 0.7786 0.0
H580 H 0.82922 0.18245 0.69435 0.0
H581 H 0.85962 0.11167 0.74118 0.0
H582 H 0.82629 0.1674 0.77715 0.0
H583 H 0.847 0.12538 0.78026 0.0
H584 H 0.70479 0.33134 0.81195 0.0
H585 H 0.67147 0.39567 0.75768 0.0
H586 H 0.7267 0.35081 0.73342 0.0
H587 H 0.69716 0.38668 0.72378 0.0
Eu588 Eu 0.76649 0.73202 0.74121 0.0
C589 C 0.83746 0.81076 0.8175 0.0
C590 C 0.8509 0.77914 0.85542 0.0
C591 C 0.88165 0.82391 0.84422 0.0
C592 C 0.83221 0.78531 0.83314 0.0
C593 C 0.86179 0.83078 0.82328 0.0
C594 C 0.87617 0.79811 0.86033 0.0
C595 C 0.84278 0.86415 0.78999 0.0
N596 N 0.81727 0.81696 0.79819 0.0
C597 C 0.8188 0.84368 0.78543 0.0
C598 C 0.86465 0.85752 0.80868 0.0
Eu599 Eu 0.7785 0.78054 0.78956 0.0
N600 N 0.80732 0.76787 0.8281 0.0
C601 C 0.79855 0.74528 0.84588 0.0
C602 C 0.84286 0.75489 0.87282 0.0
C603 C 0.81624 0.73832 0.86829 0.0
H604 H 0.80171 0.84911 0.77139 0.0
H605 H 0.80921 0.72021 0.88198 0.0
H606 H 0.89101 0.79356 0.87714 0.0
H607 H 0.84425 0.88507 0.77926 0.0
H608 H 0.77812 0.73216 0.84269 0.0
H609 H 0.7393 0.79002 0.64614 0.0
H610 H 0.8565 0.74941 0.89026 0.0
H611 H 0.73768 0.66616 0.76539 0.0
H612 H 0.76969 0.77809 0.68639 0.0
H613 H 0.6942 0.6315 0.75758 0.0
H614 H 0.90066 0.83886 0.84881 0.0
H615 H 0.69159 0.76169 0.63812 0.0
H616 H 0.6558 0.71899 0.6519 0.0
H617 H 0.88304 0.87351 0.81246 0.0
H618 H 0.64369 0.67547 0.68208 0.0
N619 N 0.73915 0.74405 0.7016 0.0
C620 C 0.74891 0.76559 0.68321 0.0
C621 C 0.70481 0.75642 0.6559 0.0
C622 C 0.69582 0.73303 0.67392 0.0
C623 C 0.73176 0.77239 0.66031 0.0
C624 C 0.71384 0.72717 0.69677 0.0
H625 H 0.65816 0.64236 0.72122 0.0
N626 N 0.72609 0.69679 0.73424 0.0
C627 C 0.69749 0.65149 0.74513 0.0
C628 C 0.70711 0.70266 0.71361 0.0
C629 C 0.72216 0.67118 0.74945 0.0
C630 C 0.67716 0.65774 0.72465 0.0
C631 C 0.68205 0.68337 0.70829 0.0
O632 O 0.78695 0.69713 0.73933 0.0
O633 O 0.79331 0.7442 0.77799 0.0
O634 O 0.81549 0.7932 0.76653 0.0
O635 O 0.7971 0.77216 0.72929 0.0
O636 O 0.77896 0.70191 0.77598 0.0
O637 O 0.79219 0.73351 0.70989 0.0
O638 O 0.75519 0.81296 0.79275 0.0
O639 O 0.75319 0.76875 0.75247 0.0
O640 O 0.72783 0.72392 0.76244 0.0
O641 O 0.74996 0.73923 0.80099 0.0
O642 O 0.76485 0.81099 0.75485 0.0
O643 O 0.75286 0.77608 0.82151 0.0
C644 C 0.79428 0.71958 0.79006 0.0
C645 C 0.79279 0.68978 0.69756 0.0
C646 C 0.81125 0.66059 0.67342 0.0
C647 C 0.81544 0.67907 0.69202 0.0
C648 C 0.78394 0.65286 0.66078 0.0
C649 C 0.76591 0.68206 0.68449 0.0
C650 C 0.76154 0.66364 0.66623 0.0
C651 C 0.81572 0.79008 0.74208 0.0
C652 C 0.79717 0.70829 0.71755 0.0
C653 C 0.6632 0.68988 0.68637 0.0
C654 C 0.67007 0.71468 0.66921 0.0
C655 C 0.75162 0.79298 0.74011 0.0
C656 C 0.75132 0.81862 0.83546 0.0
C657 C 0.72962 0.83102 0.84049 0.0
C658 C 0.73501 0.84974 0.85888 0.0
C659 C 0.76203 0.85553 0.87244 0.0
C660 C 0.7781 0.82443 0.84937 0.0
C661 C 0.78339 0.84278 0.86778 0.0
C662 C 0.72914 0.72411 0.78766 0.0
C663 C 0.74642 0.8008 0.81487 0.0
H664 H 0.83625 0.68532 0.70202 0.0
H665 H 0.77975 0.63815 0.64687 0.0
H666 H 0.7483 0.6901 0.68851 0.0
H667 H 0.74066 0.65755 0.65637 0.0
H668 H 0.70889 0.82668 0.82976 0.0
H669 H 0.7665 0.86976 0.88681 0.0
H670 H 0.79495 0.81494 0.84592 0.0
H671 H 0.80414 0.84724 0.87836 0.0
Fe672 Fe 0.02709 0.06805 0.51001 0.0
O673 O 1.01233 0.03468 0.53125 0.0
Fe674 Fe 0.06943 0.01903 0.51527 0.0
Fe675 Fe 0.98724 0.00941 0.51145 0.0
O676 O 0.05113 0.04589 0.49616 0.0
O677 O 0.02795 0.99651 0.51547 0.0
O678 O 1.02215 0.99288 0.51416 0.0
Fe679 Fe 1.01823 0.95348 0.51554 0.0
C680 C 0.96798 0.06399 0.5194 0.0
O681 O 1.00127 0.06738 0.47662 0.0
O682 O 0.99683 0.02386 0.47429 0.0
O683 O 0.048 0.95862 0.49017 0.0
O684 O 0.07054 1.00373 0.4812 0.0
O685 O 0.06777 0.0653 0.49522 0.0
O686 O 0.0478 0.10319 0.49005 0.0
O687 O 0.95833 0.98049 0.49199 0.0
O688 O 0.98826 0.95508 0.4838 0.0
C689 C 0.06672 0.09205 0.48371 0.0
O690 O 0.04795 0.95049 0.54656 0.0
O691 O 0.08392 0.98507 0.53539 0.0
O692 O 0.99342 0.07931 0.5214 0.0
O693 O 0.96134 0.03886 0.51204 0.0
C694 C 0.99844 0.04831 0.46319 0.0
C695 C 0.96475 0.96328 0.47914 0.0
C696 C 0.97704 0.96235 0.55337 0.0
O697 O 0.97678 0.98829 0.54602 0.0
O698 O 0.98865 0.9476 0.54166 0.0
C699 C 0.0644 0.97806 0.47712 0.0
O700 O 0.07122 0.03404 0.55096 0.0
O701 O 0.05427 0.07405 0.54249 0.0
C702 C 0.07381 0.96203 0.54866 0.0
C703 C 0.06868 0.05753 0.55712 0.0
Fe704 Fe 0.52663 0.97796 0.01632 0.0
O705 O 0.54872 0.01351 0.02824 0.0
Fe706 Fe 0.46238 0.99751 0.99067 0.0
Fe707 Fe 0.59012 0.02381 0.02982 0.0
O708 O 0.50354 1.00428 0.99415 0.0
O709 O 0.50383 1.0076 0.99264 0.0
O710 O 0.54889 0.0168 0.02693 0.0
Fe711 Fe 0.52571 0.04309 1.00483 0.0
C712 C 0.57707 0.96404 0.05834 0.0
O713 O 0.55045 0.98232 0.98642 0.0
O714 O 0.59375 0.99583 1.00582 0.0
O715 O 0.49678 0.06548 0.9791 0.0
O716 O 0.46548 0.03042 0.96044 0.0
O717 O 0.46725 0.96613 0.97111 0.0
O718 O 0.50004 0.94463 0.99911 0.0
O719 O 0.59283 0.05499 0.99831 0.0
O720 O 0.55104 0.05025 0.97457 0.0
C721 C 0.48076 0.94566 0.97915 0.0
O722 O 0.50099 0.03838 0.03462 0.0
O723 O 0.45863 0.02681 0.01305 0.0
O724 O 0.55551 0.95534 0.04175 0.0
O725 O 0.58787 0.99028 0.05946 0.0
C726 C 0.57696 0.98487 0.98783 0.0
C727 C 0.57777 0.05848 0.9766 0.0
C728 C 0.57141 0.07458 0.04298 0.0
O729 O 0.58503 0.05406 0.05031 0.0
O730 O 0.55221 0.07617 0.0229 0.0
C731 C 0.47585 0.05673 0.96188 0.0
O732 O 0.45933 0.96762 0.02345 0.0
O733 O 0.5018 0.9711 0.04646 0.0
C734 C 0.47452 0.03731 0.03176 0.0
C735 C 0.47508 0.96337 0.0447 0.0
Fe736 Fe 1.0246 0.53889 1.00773 0.0
O737 O 0.99914 0.504 0.99762 0.0
Fe738 Fe 0.08779 0.51535 0.02858 0.0
Fe739 Fe 0.95811 0.49746 0.99845 0.0
O740 O 0.04692 0.51121 0.02883 0.0
O741 O 0.04672 0.50785 0.02991 0.0
O742 O 0.99891 0.50069 0.99878 0.0
Fe743 Fe 1.02135 0.47294 0.01963 0.0
C744 C 0.97719 0.53963 0.03747 0.0
O745 O 0.99638 0.56286 0.98296 0.0
O746 O 0.96134 0.52875 0.96697 0.0
O747 O 0.0422 0.47434 0.98793 0.0
O748 O 0.0869 0.48577 1.00471 0.0
O749 O 0.08988 0.54605 0.99673 0.0
O750 O 0.04672 0.54281 0.97567 0.0
O751 O 0.95729 0.46355 0.97994 0.0
O752 O 0.99126 0.44059 1.00444 0.0
C753 C 0.07332 0.55127 0.97636 0.0
O754 O 0.04984 0.44875 0.04353 0.0
O755 O 0.08562 0.48259 0.0588 0.0
O756 O 1.00308 0.53795 0.03931 0.0
O757 O 0.95942 0.52928 0.01981 0.0
C758 C 0.97401 0.55472 0.96694 0.0
C759 C 0.9694 0.44197 0.98709 0.0
C760 C 0.97279 0.46327 0.05208 0.0
O761 O 0.95578 0.46936 0.03222 0.0
O762 O 0.99948 0.46842 0.0517 0.0
C763 C 0.0683 0.47479 0.98796 0.0
O764 O 0.08765 0.54727 0.0489 0.0
O765 O 0.05511 0.57118 0.02317 0.0
C766 C 0.07289 0.4567 0.05876 0.0
C767 C 0.07652 0.5694 0.04111 0.0
Fe768 Fe 0.52999 0.51691 0.98173 0.0
O769 O 0.54416 0.49359 0.01362 0.0
Fe770 Fe 0.46659 0.52786 0.99707 0.0
Fe771 Fe 0.58475 0.49464 0.0242 0.0
O772 O 0.50676 0.52787 1.00525 0.0
O773 O 0.5071 0.52852 1.00771 0.0
O774 O 0.54428 0.49396 0.01608 0.0
Fe775 Fe 0.5211 0.50517 0.03955 0.0
C776 C 0.57148 0.48327 0.96808 0.0
O777 O 0.56064 0.55029 0.99004 0.0
O778 O 0.59807 0.53027 0.99897 0.0
O779 O 0.49508 0.52075 0.06019 0.0
O780 O 0.47199 0.54904 0.02848 0.0
O781 O 0.48201 0.56087 0.97044 0.0
O782 O 0.51368 0.54393 0.95142 0.0
O783 O 0.58961 0.51778 0.05446 0.0
O784 O 0.55233 0.53832 0.04897 0.0
C785 C 0.49949 0.56278 0.95344 0.0
O786 O 0.48987 0.47226 0.03121 0.0
O787 O 0.45286 0.49291 0.02317 0.0
O788 O 0.55603 0.5023 0.96077 0.0
O789 O 0.58012 0.47456 0.992 0.0
C790 C 0.58657 0.55114 0.98925 0.0
C791 C 0.57725 0.53649 0.05901 0.0
C792 C 0.55267 0.45911 0.06765 0.0
O793 O 0.56983 0.46121 0.05036 0.0
O794 O 0.53754 0.47737 0.06959 0.0
C795 C 0.48072 0.5408 0.05255 0.0
O796 O 0.46123 0.50333 0.96772 0.0
O797 O 0.49907 0.48365 0.97228 0.0
C798 C 0.46418 0.4719 0.03286 0.0
C799 C 0.47372 0.48473 0.96305 0.0
Fe800 Fe 0.04036 0.4497 0.51473 0.0
O801 O 0.04235 0.49023 0.51303 0.0
Fe802 Fe 1.02074 0.51085 0.47912 0.0
Fe803 Fe 0.02946 0.50651 0.54063 0.0
O804 O 0.04138 0.49032 0.50994 0.0
O805 O 1.00832 0.52747 0.50668 0.0
O806 O 1.00926 0.52736 0.50969 0.0
Fe807 Fe 1.01039 0.56799 0.50477 0.0
C808 C 0.99392 0.44938 0.54963 0.0
O809 O 0.07217 0.45647 0.54463 0.0
O810 O 0.05344 0.48122 0.56933 0.0
O811 O 0.03756 0.57957 0.47591 0.0
O812 O 0.05615 0.54208 0.47601 0.0
O813 O 0.0382 0.49029 0.45476 0.0
O814 O 0.06417 0.46172 0.48379 0.0
O815 O 0.06488 0.53798 0.54058 0.0
O816 O 0.04401 0.57511 0.53236 0.0
C817 C 0.05758 0.47484 0.46078 0.0
O818 O 0.97843 0.56135 0.47511 0.0
O819 O 0.99627 0.53581 0.45051 0.0
O820 O 1.01277 0.43792 0.54348 0.0
O821 O 0.99414 0.47544 0.54316 0.0
C822 C 0.07095 0.46531 0.56629 0.0
C823 C 0.06489 0.5636 0.54184 0.0
C824 C 0.99236 0.54249 0.55851 0.0
O825 O 1.01148 0.52675 0.56486 0.0
O826 O 0.98673 0.55613 0.53554 0.0
C827 C 0.05659 0.56826 0.46999 0.0
O828 O 0.98536 0.4792 0.48009 0.0
O829 O 1.00696 0.44258 0.48689 0.0
C830 C 0.97924 0.55222 0.45352 0.0
C831 C 0.98575 0.45385 0.47815 0.0
Fe832 Fe 0.52333 0.97444 0.51893 0.0
O833 O 0.54425 1.00872 0.53373 0.0
Fe834 Fe 0.49658 1.0037 0.45717 0.0
Fe835 Fe 0.55051 0.01108 0.57111 0.0
O836 O 0.50314 1.00246 0.49526 0.0
O837 O 0.50304 1.00581 0.49462 0.0
O838 O 0.54413 0.01192 0.53314 0.0
Fe839 Fe 0.52473 0.04009 0.50896 0.0
C840 C 0.49728 0.96404 0.56921 0.0
O841 O 0.54872 0.94997 0.5468 0.0
O842 O 0.57616 0.98279 0.57091 0.0
O843 O 0.55504 0.04582 0.48355 0.0
O844 O 0.52669 0.03883 0.44723 0.0
O845 O 0.52516 0.97852 0.45617 0.0
O846 O 0.55326 0.97889 0.49353 0.0
O847 O 0.57817 0.04739 0.56035 0.0
O848 O 0.55158 0.07194 0.52809 0.0
C849 C 0.5478 0.97399 0.47004 0.0
O850 O 0.50008 0.06479 0.48069 0.0
O851 O 0.47077 0.03192 0.45775 0.0
O852 O 0.49299 0.96701 0.54444 0.0
O853 O 0.5198 0.97645 0.58108 0.0
C854 C 0.56977 0.95785 0.56422 0.0
C855 C 0.57327 0.07023 0.54564 0.0
C856 C 0.50018 0.04195 0.55757 0.0
O857 O 0.52248 0.03683 0.57163 0.0
O858 O 0.49473 0.03709 0.53408 0.0
C859 C 0.5499 0.0501 0.45886 0.0
O860 O 0.46941 0.96688 0.46793 0.0
O861 O 0.49733 0.94269 0.4993 0.0
C862 C 0.47817 0.05704 0.46408 0.0
C863 C 0.47528 0.94411 0.48214 0.0
H864 H 0.18523 0.19552 0.27182 0.0
H865 H 0.15273 0.16798 0.30238 0.0
H866 H 0.20374 0.20734 0.36521 0.0
H867 H 0.23628 0.23398 0.33553 0.0
H868 H 0.19258 0.15151 0.37706 0.0
H869 H 0.14358 0.22697 0.33942 0.0
H870 H 0.12036 0.25581 0.30317 0.0
H871 H 0.06001 0.18295 0.28487 0.0
H872 H 0.08319 0.15361 0.32079 0.0
H873 H 0.07495 0.14667 0.4614 0.0
H874 H 0.09958 0.16711 0.42319 0.0
H875 H 0.11769 0.08628 0.41787 0.0
H876 H 0.09371 0.06595 0.4563 0.0
H877 H 0.09201 0.15767 0.37378 0.0
H878 H 0.18409 0.09707 0.39774 0.0
H879 H 0.2106 0.07371 0.43556 0.0
H880 H 0.18813 0.12461 0.48519 0.0
H881 H 0.16244 0.14913 0.44748 0.0
C882 C 0.18955 0.1981 0.29217 0.0
C883 C 0.21369 0.2164 0.30132 0.0
C884 C 0.17091 0.18255 0.3095 0.0
C885 C 0.17616 0.18554 0.33598 0.0
C886 C 0.19963 0.20452 0.34487 0.0
C887 C 0.21818 0.21979 0.32777 0.0
C888 C 0.1579 0.16871 0.35508 0.0
C889 C 0.17047 0.15252 0.37622 0.0
C890 C 0.12928 0.17045 0.35396 0.0
C891 C 0.11531 0.18807 0.33251 0.0
C892 C 0.12551 0.21708 0.3275 0.0
C893 C 0.11234 0.23352 0.30705 0.0
C894 C 0.08878 0.2212 0.29166 0.0
C895 C 0.0783 0.19244 0.29675 0.0
C896 C 0.09144 0.1759 0.31715 0.0
C897 C 0.08428 0.13337 0.45209 0.0
C898 C 0.08284 0.10494 0.4619 0.0
C899 C 0.0981 0.14495 0.43021 0.0
C900 C 0.11052 0.12817 0.41791 0.0
C901 C 0.10853 0.0996 0.42737 0.0
C902 C 0.09503 0.08811 0.4494 0.0
C903 C 0.12692 0.14099 0.39607 0.0
C904 C 0.11395 0.15619 0.37437 0.0
C905 C 0.15552 0.13904 0.39699 0.0
C906 C 0.1709 0.12454 0.41987 0.0
C907 C 0.18482 0.10328 0.41673 0.0
C908 C 0.19972 0.08985 0.43814 0.0
C909 C 0.20073 0.09736 0.46283 0.0
C910 C 0.18714 0.11863 0.4661 0.0
C911 C 0.17246 0.13237 0.44469 0.0
H912 H 0.21221 0.08683 0.47939 0.0
H913 H 0.0786 0.23397 0.27584 0.0
H914 H 0.84514 0.2011 0.37622 0.0
H915 H 0.89099 0.18698 0.38298 0.0
H916 H 0.8504 0.10082 0.40246 0.0
H917 H 0.80455 0.11474 0.39486 0.0
H918 H 0.9247 0.15649 0.41654 0.0
H919 H 0.8673 0.0628 0.36278 0.0
H920 H 0.82502 0.05154 0.3318 0.0
H921 H 0.82907 0.13909 0.30364 0.0
H922 H 0.87155 0.15084 0.33422 0.0
H923 H 0.95054 0.02458 0.43713 0.0
H924 H 0.92553 0.05221 0.40263 0.0
H925 H 1.00218 0.11295 0.39196 0.0
H926 H 0.02676 0.08618 0.42812 0.0
H927 H 0.91928 0.08572 0.35785 0.0
H928 H 0.99376 0.16775 0.39572 0.0
H929 H 0.03344 0.18234 0.42846 0.0
H930 H 0.99315 0.12283 0.48757 0.0
H931 H 0.95362 0.10722 0.45507 0.0
C932 C 0.84627 0.17939 0.38345 0.0
C933 C 0.82157 0.15879 0.38442 0.0
C934 C 0.87234 0.17134 0.38693 0.0
C935 C 0.87357 0.14282 0.39187 0.0
C936 C 0.84944 0.12289 0.39773 0.0
C937 C 0.82336 0.13088 0.39397 0.0
C938 C 0.89889 0.13342 0.38765 0.0
C939 C 0.92381 0.14153 0.40327 0.0
C940 C 0.89778 0.11471 0.36963 0.0
C941 C 0.87254 0.10769 0.35085 0.0
C942 C 0.85928 0.07963 0.34985 0.0
C943 C 0.83525 0.07316 0.3324 0.0
C944 C 0.82434 0.09459 0.3158 0.0
C945 C 0.83749 0.12252 0.31656 0.0
C946 C 0.86152 0.12909 0.33396 0.0
C947 C 0.96241 0.0429 0.42632 0.0
C948 C 0.99001 0.05409 0.43555 0.0
C949 C 0.94814 0.05877 0.40651 0.0
C950 C 0.96181 0.08545 0.39591 0.0
C951 C 0.99113 0.09299 0.40082 0.0
C952 C 1.0052 0.07761 0.42127 0.0
C953 C 0.9445 0.10719 0.38816 0.0
C954 C 0.92072 0.10171 0.37015 0.0
C955 C 0.94671 0.12863 0.40378 0.0
C956 C 0.97112 0.13614 0.423 0.0
C957 C 0.99364 0.15754 0.41568 0.0
C958 C 1.01604 0.16593 0.43417 0.0
C959 C 1.0158 0.15338 0.46008 0.0
C960 C 0.99332 0.13224 0.46749 0.0
C961 C 0.97102 0.12351 0.44904 0.0
H962 H 0.03295 0.16012 0.47448 0.0
H963 H 0.80572 0.08954 0.30232 0.0
H964 H 0.79959 0.80231 0.33909 0.0
H965 H 0.82637 0.83563 0.36659 0.0
H966 H 0.87327 0.87858 0.30323 0.0
H967 H 0.84542 0.84551 0.27471 0.0
H968 H 0.90642 0.86438 0.35453 0.0
H969 H 0.8298 0.91081 0.31749 0.0
H970 H 0.77955 0.91219 0.30445 0.0
H971 H 0.76268 0.88874 0.38411 0.0
H972 H 0.81282 0.88679 0.3976 0.0
H973 H 0.97805 0.96724 0.43036 0.0
H974 H 0.95014 0.94537 0.39416 0.0
H975 H 0.88171 0.91336 0.4414 0.0
H976 H 0.90931 0.93684 0.47727 0.0
H977 H 0.86018 0.92497 0.39442 0.0
H978 H 0.93233 0.8734 0.43212 0.0
H979 H 0.98081 0.86648 0.44758 0.0
H980 H 1.0045 0.89364 0.37027 0.0
H981 H 0.95622 0.90112 0.35442 0.0
C982 C 0.81539 0.81882 0.33062 0.0
C983 C 0.82039 0.82085 0.30446 0.0
C984 C 0.83075 0.83795 0.34657 0.0
C985 C 0.8518 0.85962 0.33703 0.0
C986 C 0.85711 0.86192 0.31101 0.0
C987 C 0.84126 0.84293 0.29474 0.0
C988 C 0.86819 0.87933 0.35477 0.0
C989 C 0.89657 0.87818 0.36281 0.0
C990 C 0.85496 0.89638 0.36639 0.0
C991 C 0.82501 0.89844 0.35851 0.0
C992 C 0.81536 0.90582 0.33221 0.0
C993 C 0.78691 0.90671 0.32475 0.0
C994 C 0.76793 0.90044 0.34343 0.0
C995 C 0.77741 0.89354 0.36967 0.0
C996 C 0.80586 0.89257 0.37724 0.0
C997 C 0.9568 0.95599 0.43278 0.0
C998 C 0.94578 0.95365 0.45655 0.0
C999 C 0.94095 0.94321 0.41218 0.0
C1000 C 0.91406 0.92683 0.41517 0.0
C1001 C 0.90245 0.92566 0.43856 0.0
C1002 C 0.91814 0.93911 0.45905 0.0
C1003 C 0.89867 0.91015 0.39436 0.0
C1004 C 0.87035 0.91162 0.3859 0.0
C1005 C 0.91181 0.89286 0.38275 0.0
C1006 C 0.94077 0.88813 0.39216 0.0
C1007 C 0.94793 0.87807 0.41846 0.0
C1008 C 0.97537 0.87404 0.42728 0.0
C1009 C 0.99575 0.87972 0.40994 0.0
C1010 C 0.9887 0.88932 0.3837 0.0
C1011 C 0.96131 0.89345 0.37478 0.0
H1012 H 1.01699 0.87662 0.41681 0.0
H1013 H 0.74588 0.90089 0.33756 0.0
H1014 H 0.17149 0.84532 0.33711 0.0
H1015 H 0.15187 0.86274 0.37018 0.0
H1016 H 0.17838 0.94771 0.33374 0.0
H1017 H 0.19972 0.93065 0.30188 0.0
H1018 H 0.18587 0.94588 0.38387 0.0
H1019 H 0.10958 0.90786 0.32182 0.0
H1020 H 0.08062 0.87069 0.29811 0.0
H1021 H 0.06027 0.8204 0.37048 0.0
H1022 H 0.08943 0.8571 0.39463 0.0
H1023 H 0.09456 0.0108 0.43862 0.0
H1024 H 0.1188 0.99433 0.40796 0.0
H1025 H 0.09133 0.90881 0.44258 0.0
H1026 H 0.06652 0.92467 0.47219 0.0
H1027 H 0.08444 0.9111 0.39325 0.0
H1028 H 0.15936 0.94712 0.45577 0.0
H1029 H 0.18877 0.98267 0.48104 0.0
H1030 H 0.2124 0.03454 0.41031 0.0
H1031 H 0.18264 0.99956 0.3846 0.0
C1032 C 0.17364 0.86773 0.33649 0.0
C1033 C 0.18667 0.88662 0.3166 0.0
C1034 C 0.16214 0.87763 0.3552 0.0
C1035 C 0.16303 0.90647 0.35395 0.0
C1036 C 0.1772 0.92535 0.33488 0.0
C1037 C 0.18907 0.91554 0.31649 0.0
C1038 C 0.14837 0.91721 0.37177 0.0
C1039 C 0.16362 0.93848 0.38577 0.0
C1040 C 0.1195 0.9071 0.37461 0.0
C1041 C 0.10191 0.88511 0.36002 0.0
C1042 C 0.09908 0.88879 0.33267 0.0
C1043 C 0.08262 0.86781 0.31916 0.0
C1044 C 0.06867 0.84317 0.33278 0.0
C1045 C 0.07111 0.83947 0.35995 0.0
C1046 C 0.0876 0.86035 0.37355 0.0
C1047 C 0.09358 0.98851 0.4395 0.0
C1048 C 0.07848 0.9691 0.45774 0.0
C1049 C 0.10756 0.97914 0.42213 0.0
C1050 C 0.10704 0.95035 0.42318 0.0
C1051 C 0.09189 0.93109 0.44131 0.0
C1052 C 0.07768 0.9403 0.45826 0.0
C1053 C 0.12194 0.93976 0.40545 0.0
C1054 C 0.10671 0.91853 0.3914 0.0
C1055 C 0.15086 0.9497 0.40281 0.0
C1056 C 0.16854 0.97086 0.41826 0.0
C1057 C 0.1706 0.96624 0.4456 0.0
C1058 C 0.18735 0.98628 0.46001 0.0
C1059 C 0.20239 0.01087 0.4473 0.0
C1060 C 0.20068 0.01552 0.42015 0.0
C1061 C 0.18386 0.9956 0.40564 0.0
H1062 H 0.21547 0.02626 0.45853 0.0
H1063 H 0.05593 0.82696 0.32229 0.0
H1064 H 0.29516 0.88651 0.62118 0.0
H1065 H 0.25562 0.89589 0.59008 0.0
H1066 H 0.2062 0.81653 0.61908 0.0
H1067 H 0.24685 0.80527 0.64834 0.0
H1068 H 0.18136 0.84362 0.57045 0.0
H1069 H 0.2117 0.86332 0.66169 0.0
H1070 H 0.2471 0.88014 0.69695 0.0
H1071 H 0.27333 0.95701 0.64719 0.0
H1072 H 0.23734 0.94102 0.612 0.0
H1073 H 0.06321 0.90776 0.57251 0.0
H1074 H 0.09857 0.8788 0.58931 0.0
H1075 H 0.16464 0.95077 0.57385 0.0
H1076 H 0.13 0.97994 0.55839 0.0
H1077 H 0.17587 0.92053 0.61882 0.0
H1078 H 0.13949 0.90262 0.52908 0.0
H1079 H 0.10016 0.8865 0.4967 0.0
H1080 H 0.08283 0.80652 0.54447 0.0
H1081 H 0.12199 0.82226 0.57716 0.0
C1082 C 0.2768 0.86998 0.61976 0.0
C1083 C 0.27337 0.846 0.63859 0.0
C1084 C 0.25406 0.87545 0.60184 0.0
C1085 C 0.2278 0.85759 0.60362 0.0
C1086 C 0.22623 0.8309 0.61805 0.0
C1087 C 0.2494 0.82479 0.63512 0.0
C1088 C 0.20253 0.87007 0.59891 0.0
C1089 C 0.18005 0.86043 0.58092 0.0
C1090 C 0.20053 0.8913 0.61333 0.0
C1091 C 0.22232 0.9008 0.63421 0.0
C1092 C 0.22514 0.88374 0.65831 0.0
C1093 C 0.24519 0.89317 0.67828 0.0
C1094 C 0.26276 0.91942 0.67418 0.0
C1095 C 0.25988 0.93659 0.65027 0.0
C1096 C 0.23953 0.92746 0.63039 0.0
C1097 C 0.08529 0.9175 0.57339 0.0
C1098 C 0.09393 0.94596 0.56381 0.0
C1099 C 0.10532 0.9009 0.58265 0.0
C1100 C 0.13391 0.91268 0.58207 0.0
C1101 C 0.14252 0.94139 0.57417 0.0
C1102 C 0.12268 0.958 0.56536 0.0
C1103 C 0.15548 0.89552 0.58908 0.0
C1104 C 0.1771 0.90379 0.60816 0.0
C1105 C 0.15643 0.87324 0.5756 0.0
C1106 C 0.13357 0.8636 0.55554 0.0
C1107 C 0.12728 0.8816 0.53264 0.0
C1108 C 0.10502 0.87255 0.51425 0.0
C1109 C 0.089 0.84551 0.51853 0.0
C1110 C 0.09527 0.82744 0.54116 0.0
C1111 C 0.11753 0.83638 0.55959 0.0
H1112 H 0.07173 0.83856 0.50432 0.0
H1113 H 0.27845 0.92653 0.68959 0.0
H1114 H 0.22787 0.16047 0.75682 0.0
H1115 H 0.19699 0.12583 0.7313 0.0
H1116 H 0.18067 0.19238 0.67002 0.0
H1117 H 0.21193 0.22665 0.69476 0.0
H1118 H 0.13069 0.14308 0.69384 0.0
H1119 H 0.21932 0.16881 0.65228 0.0
H1120 H 0.27074 0.17284 0.65415 0.0
H1121 H 0.26287 0.08515 0.68332 0.0
H1122 H 0.21143 0.08079 0.6822 0.0
H1123 H 0.06834 0.10645 0.57456 0.0
H1124 H 0.09644 0.12575 0.61132 0.0
H1125 H 0.13209 0.05102 0.63287 0.0
H1126 H 0.10448 0.03165 0.59479 0.0
H1127 H 0.17221 0.09531 0.63689 0.0
H1128 H 0.08313 0.06663 0.66852 0.0
H1129 H 0.03158 0.06103 0.66679 0.0
H1130 H 0.03899 0.15027 0.65916 0.0
H1131 H 0.09053 0.15647 0.66032 0.0
C1132 C 0.21764 0.16759 0.7379 0.0
C1133 C 0.22268 0.19616 0.72755 0.0
C1134 C 0.20008 0.14786 0.72339 0.0
C1135 C 0.18682 0.1566 0.6987 0.0
C1136 C 0.1909 0.18522 0.68893 0.0
C1137 C 0.20891 0.20474 0.70304 0.0
C1138 C 0.169 0.13621 0.6825 0.0
C1139 C 0.13965 0.13252 0.68141 0.0
C1140 C 0.18079 0.12185 0.66693 0.0
C1141 C 0.21165 0.12459 0.66764 0.0
C1142 C 0.22861 0.1505 0.65949 0.0
C1143 C 0.25774 0.15282 0.66032 0.0
C1144 C 0.27008 0.12929 0.66896 0.0
C1145 C 0.2533 0.10338 0.67674 0.0
C1146 C 0.22418 0.10098 0.67604 0.0
C1147 C 0.08184 0.09374 0.58713 0.0
C1148 C 0.08391 0.06727 0.58162 0.0
C1149 C 0.09788 0.10487 0.60841 0.0
C1150 C 0.11603 0.0897 0.62535 0.0
C1151 C 0.11807 0.06309 0.62021 0.0
C1152 C 0.10214 0.05195 0.59853 0.0
C1153 C 0.13357 0.10265 0.6475 0.0
C1154 C 0.16298 0.10513 0.64972 0.0
C1155 C 0.12174 0.11564 0.66438 0.0
C1156 C 0.09076 0.11201 0.66444 0.0
C1157 C 0.07378 0.08508 0.66639 0.0
C1158 C 0.04454 0.0818 0.66549 0.0
C1159 C 0.03202 0.10528 0.66286 0.0
C1160 C 0.04872 0.13209 0.66121 0.0
C1161 C 0.07796 0.1355 0.66203 0.0
H1162 H 1.00937 0.10269 0.6621 0.0
H1163 H 0.29263 0.13111 0.66953 0.0
H1164 H 0.86895 0.18012 0.67345 0.0
H1165 H 0.88285 0.16603 0.63539 0.0
H1166 H 0.85274 0.07925 0.66435 0.0
H1167 H 0.83821 0.09313 0.70216 0.0
H1168 H 0.90519 0.08747 0.65064 0.0
H1169 H 0.81713 0.11079 0.61313 0.0
H1170 H 0.78054 0.13973 0.60136 0.0
H1171 H 0.8364 0.20199 0.55595 0.0
H1172 H 0.87363 0.17371 0.56801 0.0
H1173 H 0.9215 0.03236 0.54008 0.0
H1174 H 0.89369 0.04696 0.56868 0.0
H1175 H 0.93832 0.13213 0.55322 0.0
H1176 H 0.96651 0.11778 0.52479 0.0
H1177 H 0.87606 0.12327 0.55867 0.0
H1178 H 0.96585 0.10134 0.60281 0.0
H1179 H 1.00098 0.07054 0.61323 0.0
H1180 H 0.93844 1.00309 0.64459 0.0
H1181 H 0.90291 0.03349 0.63411 0.0
C1182 C 0.86483 0.15806 0.67152 0.0
C1183 C 0.85262 0.13771 0.69095 0.0
C1184 C 0.87283 0.15006 0.64978 0.0
C1185 C 0.86873 0.12161 0.64707 0.0
C1186 C 0.85618 0.10131 0.66618 0.0
C1187 C 0.84805 0.10928 0.68783 0.0
C1188 C 0.87885 0.1129 0.625 0.0
C1189 C 0.89844 0.095 0.63056 0.0
C1190 C 0.87041 0.12305 0.5988 0.0
C1191 C 0.84826 0.14029 0.59172 0.0
C1192 C 0.82173 0.13081 0.60089 0.0
C1193 C 0.80085 0.14707 0.59412 0.0
C1194 C 0.80613 0.17269 0.57792 0.0
C1195 C 0.83235 0.18215 0.56851 0.0
C1196 C 0.85336 0.16603 0.57534 0.0
C1197 C 0.92467 0.05439 0.54189 0.0
C1198 C 0.94625 0.07394 0.5302 0.0
C1199 C 0.90887 0.06263 0.55837 0.0
C1200 C 0.91421 0.09052 0.56306 0.0
C1201 C 0.93392 0.11053 0.54965 0.0
C1202 C 0.94999 0.10228 0.53344 0.0
C1203 C 0.90216 0.098 0.5845 0.0
C1204 C 0.88249 0.11571 0.57882 0.0
C1205 C 0.9103 0.08758 0.61061 0.0
C1206 C 0.93175 0.06956 0.61752 0.0
C1207 C 0.95961 0.07989 0.61183 0.0
C1208 C 0.97957 0.06253 0.61774 0.0
C1209 C 0.97192 0.03485 0.62949 0.0
C1210 C 0.94432 0.02452 0.63546 0.0
C1211 C 0.92428 0.04182 0.62958 0.0
H1212 H 0.98739 0.02141 0.63402 0.0
H1213 H 0.78988 0.18519 0.57262 0.0
H1214 H 0.85565 0.78016 0.71596 0.0
H1215 H 0.88614 0.81508 0.68799 0.0
H1216 H 0.84793 0.88046 0.70521 0.0
H1217 H 0.81705 0.84554 0.73231 0.0
H1218 H 0.84987 0.88178 0.6533 0.0
H1219 H 0.91232 0.8779 0.73148 0.0
H1220 H 0.93797 0.85534 0.7704 0.0
H1221 H 0.98142 0.82038 0.72195 0.0
H1222 H 0.95563 0.84234 0.68272 0.0
H1223 H 0.94675 0.98456 0.58198 0.0
H1224 H 0.92167 0.9601 0.61884 0.0
H1225 H 0.95025 0.88442 0.6131 0.0
H1226 H 0.97554 0.90849 0.57658 0.0
H1227 H 0.95418 0.89467 0.66342 0.0
H1228 H 0.88639 0.89366 0.58583 0.0
H1229 H 0.86002 0.91581 0.54709 0.0
H1230 H 0.82634 0.96035 0.59526 0.0
H1231 H 0.85286 0.93874 0.63424 0.0
C1232 C 0.85427 0.80209 0.71399 0.0
C1233 C 0.83511 0.81065 0.72692 0.0
C1234 C 0.87157 0.8219 0.6982 0.0
C1235 C 0.86952 0.85027 0.69513 0.0
C1236 C 0.85005 0.85869 0.70781 0.0
C1237 C 0.83285 0.83891 0.7236 0.0
C1238 C 0.88663 0.8709 0.67743 0.0
C1239 C 0.87271 0.88508 0.65574 0.0
C1240 C 0.91629 0.8748 0.68069 0.0
C1241 C 0.9319 0.8616 0.70418 0.0
C1242 C 0.92717 0.86521 0.72913 0.0
C1243 C 0.94176 0.85256 0.75125 0.0
C1244 C 0.96129 0.8364 0.74865 0.0
C1245 C 0.96628 0.83289 0.72393 0.0
C1246 C 0.9517 0.84546 0.70175 0.0
C1247 C 0.94783 0.96276 0.58865 0.0
C1248 C 0.96283 0.94833 0.57619 0.0
C1249 C 0.93354 0.94891 0.60967 0.0
C1250 C 0.9341 0.92056 0.61837 0.0
C1251 C 0.94972 0.90638 0.60654 0.0
C1252 C 0.96396 0.92013 0.58558 0.0
C1253 C 0.91737 0.90498 0.63903 0.0
C1254 C 0.93137 0.89175 0.66127 0.0
C1255 C 0.88776 0.90196 0.63629 0.0
C1256 C 0.87186 0.91489 0.61286 0.0
C1257 C 0.87356 0.90837 0.58811 0.0
C1258 C 0.85855 0.92079 0.56612 0.0
C1259 C 0.84159 0.93955 0.56869 0.0
C1260 C 0.83954 0.94587 0.59328 0.0
C1261 C 0.85455 0.93355 0.61531 0.0
H1262 H 0.82997 0.94913 0.55165 0.0
H1263 H 0.97259 0.82664 0.7658 0.0
H1264 H 0.35701 0.18896 0.14893 0.0
H1265 H 0.3925 0.1716 0.13052 0.0
H1266 H 0.34709 0.08689 0.14762 0.0
H1267 H 0.3118 0.10406 0.16604 0.0
H1268 H 0.40471 0.09007 0.15687 0.0
H1269 H 0.3353 0.12186 0.08892 0.0
H1270 H 0.30861 0.15674 0.06379 0.0
H1271 H 0.38584 0.21079 0.04358 0.0
H1272 H 0.41298 0.17633 0.06891 0.0
H1273 H 0.41937 0.04106 0.02929 0.0
H1274 H 0.39794 0.06481 0.05594 0.0
H1275 H 0.4784 0.08807 0.10032 0.0
H1276 H 0.50039 0.06416 0.07348 0.0
H1277 H 0.40905 0.12007 0.06215 0.0
H1278 H 0.46202 0.08765 0.16405 0.0
H1279 H 0.48576 0.04991 0.18801 0.0
H1280 H 0.43662 0.99231 0.13839 0.0
H1281 H 0.4123 0.02961 0.11445 0.0
C1282 C 0.35497 0.16661 0.14918 0.0
C1283 C 0.33152 0.14783 0.15858 0.0
C1284 C 0.37516 0.15674 0.13862 0.0
C1285 C 0.37226 0.12798 0.13753 0.0
C1286 C 0.34973 0.10914 0.14829 0.0
C1287 C 0.32948 0.11898 0.1586 0.0
C1288 C 0.39101 0.11747 0.12318 0.0
C1289 C 0.406 0.09691 0.13624 0.0
C1290 C 0.39242 0.12611 0.09622 0.0
C1291 C 0.37614 0.14676 0.08105 0.0
C1292 C 0.34657 0.14131 0.0793 0.0
C1293 C 0.33137 0.16096 0.06499 0.0
C1294 C 0.34552 0.18601 0.05217 0.0
C1295 C 0.37491 0.19142 0.05358 0.0
C1296 C 0.39021 0.17184 0.0679 0.0
C1297 C 0.43266 0.05106 0.04476 0.0
C1298 C 0.46166 0.0506 0.04924 0.0
C1299 C 0.42032 0.06479 0.05989 0.0
C1300 C 0.43656 0.07823 0.08004 0.0
C1301 C 0.46549 0.07769 0.0849 0.0
C1302 C 0.47798 0.06398 0.06958 0.0
C1303 C 0.42268 0.09257 0.09579 0.0
C1304 C 0.40846 0.11379 0.08294 0.0
C1305 C 0.42167 0.08421 0.12282 0.0
C1306 C 0.43566 0.06148 0.13731 0.0
C1307 C 0.45625 0.0669 0.15834 0.0
C1308 C 0.46979 0.04559 0.17191 0.0
C1309 C 0.46278 0.01876 0.16466 0.0
C1310 C 0.44211 0.01313 0.14392 0.0
C1311 C 0.42846 0.03435 0.13034 0.0
H1312 H 0.47334 1.00231 0.17516 0.0
H1313 H 0.33372 0.20121 0.04109 0.0
H1314 H 0.79777 0.28239 0.18133 0.0
H1315 H 0.83423 0.30999 0.15486 0.0
H1316 H 0.87083 0.35536 0.21881 0.0
H1317 H 0.83494 0.32703 0.24549 0.0
H1318 H 0.84001 0.36405 0.13957 0.0
H1319 H 0.9217 0.37454 0.22044 0.0
H1320 H 0.9514 0.35105 0.25577 0.0
H1321 H 0.9544 0.28946 0.20765 0.0
H1322 H 0.92357 0.3119 0.17261 0.0
H1323 H 0.93129 0.47574 0.0749 0.0
H1324 H 0.90455 0.44625 0.10877 0.0
H1325 H 0.95659 0.38426 0.11396 0.0
H1326 H 0.9846 0.41483 0.08128 0.0
H1327 H 0.94397 0.38256 0.15897 0.0
H1328 H 0.88603 0.38188 0.07648 0.0
H1329 H 0.86181 0.40305 0.03584 0.0
H1330 H 0.815 0.4396 0.07999 0.0
H1331 H 0.83912 0.41883 0.12086 0.0
C1332 C 0.81428 0.29755 0.19 0.0
C1333 C 0.8141 0.30187 0.21575 0.0
C1334 C 0.83508 0.31344 0.17484 0.0
C1335 C 0.85593 0.33452 0.18485 0.0
C1336 C 0.85595 0.33858 0.21079 0.0
C1337 C 0.83529 0.3224 0.22608 0.0
C1338 C 0.87497 0.35439 0.1671 0.0
C1339 C 0.86274 0.3682 0.14402 0.0
C1340 C 0.90471 0.35972 0.1722 0.0
C1341 C 0.91972 0.34429 0.19438 0.0
C1342 C 0.92805 0.35551 0.21778 0.0
C1343 C 0.94515 0.34246 0.23768 0.0
C1344 C 0.9547 0.31871 0.23401 0.0
C1345 C 0.94695 0.30781 0.21051 0.0
C1346 C 0.92926 0.32038 0.19082 0.0
C1347 C 0.93739 0.45608 0.08375 0.0
C1348 C 0.96008 0.44761 0.07556 0.0
C1349 C 0.92182 0.43899 0.10288 0.0
C1350 C 0.92774 0.41239 0.1135 0.0
C1351 C 0.95131 0.40451 0.10612 0.0
C1352 C 0.96744 0.42204 0.08749 0.0
C1353 C 0.90901 0.39254 0.1316 0.0
C1354 C 0.92122 0.3787 0.15464 0.0
C1355 C 0.87921 0.38682 0.12619 0.0
C1356 C 0.86453 0.39903 0.10166 0.0
C1357 C 0.87065 0.39453 0.07748 0.0
C1358 C 0.85693 0.40644 0.05442 0.0
C1359 C 0.83692 0.42271 0.05533 0.0
C1360 C 0.83051 0.42702 0.0793 0.0
C1361 C 0.84416 0.41516 0.10242 0.0
H1362 H 0.82635 0.43194 0.03745 0.0
H1363 H 0.96815 0.30878 0.24935 0.0
H1364 H 0.68498 0.76516 0.21131 0.0
H1365 H 0.65927 0.79603 0.18117 0.0
H1366 H 0.73055 0.86396 0.18721 0.0
H1367 H 0.7555 0.8331 0.22031 0.0
H1368 H 0.68808 0.88512 0.18507 0.0
H1369 H 0.70229 0.82315 0.12674 0.0
H1370 H 0.70071 0.77651 0.11436 0.0
H1371 H 0.61177 0.75529 0.1201 0.0
H1372 H 0.6129 0.80166 0.13256 0.0
H1373 H 0.63097 0.97462 0.08169 0.0
H1374 H 0.65797 0.94337 0.10982 0.0
H1375 H 0.58676 0.87525 0.10512 0.0
H1376 H 0.5597 0.90667 0.07509 0.0
H1377 H 0.62935 0.85431 0.10615 0.0
H1378 H 0.61315 0.91505 0.16252 0.0
H1379 H 0.61293 0.96005 0.17711 0.0
H1380 H 0.70272 0.98261 0.17704 0.0
H1381 H 0.70343 0.93787 0.1622 0.0
C1382 C 0.6956 0.78655 0.20592 0.0
C1383 C 0.72284 0.7962 0.21781 0.0
C1384 C 0.68079 0.80434 0.18816 0.0
C1385 C 0.69292 0.8325 0.1805 0.0
C1386 C 0.72046 0.84234 0.19219 0.0
C1387 C 0.73508 0.82454 0.21087 0.0
C1388 C 0.67609 0.85165 0.16174 0.0
C1389 C 0.67577 0.87845 0.16755 0.0
C1390 C 0.65865 0.84309 0.13918 0.0
C1391 C 0.6578 0.81565 0.13085 0.0
C1392 C 0.68248 0.80841 0.12546 0.0
C1393 C 0.68164 0.78208 0.11842 0.0
C1394 C 0.6562 0.76291 0.11661 0.0
C1395 C 0.63147 0.77013 0.12156 0.0
C1396 C 0.63219 0.79646 0.12851 0.0
C1397 C 0.62066 0.95305 0.08665 0.0
C1398 C 0.59265 0.94355 0.07622 0.0
C1399 C 0.63632 0.93505 0.10318 0.0
C1400 C 0.62447 0.90682 0.11085 0.0
C1401 C 0.59662 0.89694 0.10005 0.0
C1402 C 0.58098 0.91499 0.08285 0.0
C1403 C 0.64155 0.88783 0.12939 0.0
C1404 C 0.64183 0.86107 0.12357 0.0
C1405 C 0.65868 0.89632 0.15209 0.0
C1406 C 0.6583 0.9232 0.16107 0.0
C1407 C 0.63282 0.92968 0.16549 0.0
C1408 C 0.63262 0.95513 0.17382 0.0
C1409 C 0.65779 0.9742 0.17795 0.0
C1410 C 0.68324 0.96783 0.17382 0.0
C1411 C 0.68356 0.94241 0.16549 0.0
H1412 H 0.65759 0.99389 0.1844 0.0
H1413 H 0.65563 0.7425 0.1113 0.0
H1414 H 0.18907 0.7509 0.19516 0.0
H1415 H 0.15968 0.72774 0.16064 0.0
H1416 H 0.22247 0.67811 0.1599 0.0
H1417 H 0.25215 0.70154 0.19472 0.0
H1418 H 0.19903 0.70173 0.10911 0.0
H1419 H 0.16989 0.64903 0.19008 0.0
H1420 H 0.15352 0.64367 0.23331 0.0
H1421 H 0.07882 0.67446 0.19851 0.0
H1422 H 0.09506 0.68053 0.15509 0.0
H1423 H 0.13225 0.58317 0.05463 0.0
H1424 H 0.15718 0.61914 0.08019 0.0
H1425 H 0.07991 0.64856 0.08017 0.0
H1426 H 0.05424 0.61133 0.0548 0.0
H1427 H 0.10721 0.64165 0.12833 0.0
H1428 H 0.13356 0.68845 0.04631 0.0
H1429 H 0.14996 0.69306 1.00318 0.0
H1430 H 0.22951 0.67378 0.03921 0.0
H1431 H 0.21345 0.66859 0.08257 0.0
C1432 C 0.19692 0.73557 0.1874 0.0
C1433 C 0.22302 0.72836 0.19752 0.0
C1434 C 0.17997 0.72212 0.16778 0.0
C1435 C 0.18892 0.70124 0.15779 0.0
C1436 C 0.21527 0.69428 0.16738 0.0
C1437 C 0.23209 0.70755 0.18731 0.0
C1438 C 0.17028 0.68596 0.13799 0.0
C1439 C 0.17902 0.68845 0.11326 0.0
C1440 C 0.14378 0.6695 0.1433 0.0
C1441 C 0.13386 0.66558 0.16937 0.0
C1442 C 0.15011 0.65493 0.19167 0.0
C1443 C 0.14084 0.65172 0.21621 0.0
C1444 C 0.11519 0.6588 0.21867 0.0
C1445 C 0.09872 0.66904 0.19658 0.0
C1446 C 0.10795 0.67237 0.172 0.0
C1447 C 0.1205 0.59746 0.05977 0.0
C1448 C 0.09125 0.59437 0.05289 0.0
C1449 C 0.13489 0.61824 0.07421 0.0
C1450 C 0.12054 0.63683 0.08183 0.0
C1451 C 0.0914 0.6345 0.07431 0.0
C1452 C 0.07681 0.61346 0.0597 0.0
C1453 C 0.1361 0.65694 0.09938 0.0
C1454 C 0.12689 0.65537 0.12383 0.0
C1455 C 0.16217 0.67434 0.09376 0.0
C1456 C 0.17221 0.67802 0.06773 0.0
C1457 C 0.15451 0.68506 0.04505 0.0
C1458 C 0.16375 0.68778 0.02055 0.0
C1459 C 0.19075 0.68368 0.01846 0.0
C1460 C 0.2086 0.67696 0.04087 0.0
C1461 C 0.19945 0.67418 0.06542 0.0
H1462 H 0.19784 0.68573 0.99947 0.0
H1463 H 0.10803 0.65629 0.23768 0.0
H1464 H 0.3589 0.819 0.79519 0.0
H1465 H 0.39 0.84318 0.8288 0.0
H1466 H 0.35704 0.77759 0.88814 0.0
H1467 H 0.32541 0.75383 0.85453 0.0
H1468 H 0.36036 0.83083 0.90031 0.0
H1469 H 0.41754 0.77892 0.8713 0.0
H1470 H 0.44015 0.76116 0.8402 0.0
H1471 H 0.4862 0.844 0.81773 0.0
H1472 H 0.4636 0.86243 0.84858 0.0
H1473 H 0.46149 0.89054 0.99682 0.0
H1474 H 0.43883 0.85392 0.96982 0.0
H1475 H 0.45887 0.91159 0.90063 0.0
H1476 H 0.48086 0.94815 0.92743 0.0
H1477 H 0.4639 0.85564 0.89774 0.0
H1478 H 0.39839 0.90752 0.91983 0.0
H1479 H 0.37498 0.92554 0.95038 0.0
H1480 H 0.34432 0.84142 0.9853 0.0
H1481 H 0.36799 0.82293 0.9552 0.0
C1482 C 0.35843 0.80978 0.81541 0.0
C1483 C 0.34047 0.78421 0.82237 0.0
C1484 C 0.3762 0.8235 0.83455 0.0
C1485 C 0.37608 0.81196 0.86092 0.0
C1486 C 0.35762 0.78671 0.8679 0.0
C1487 C 0.33996 0.77295 0.84874 0.0
C1488 C 0.39507 0.82652 0.88115 0.0
C1489 C 0.38304 0.83574 0.90008 0.0
C1490 C 0.42465 0.83314 0.88062 0.0
C1491 C 0.43857 0.82217 0.86212 0.0
C1492 C 0.43216 0.7935 0.85948 0.0
C1493 C 0.44507 0.78326 0.84194 0.0
C1494 C 0.46446 0.80147 0.82684 0.0
C1495 C 0.47113 0.82992 0.82942 0.0
C1496 C 0.45834 0.84027 0.84701 0.0
C1497 C 0.46175 0.895 0.97591 0.0
C1498 C 0.47289 0.922 0.9641 0.0
C1499 C 0.44873 0.8742 0.96052 0.0
C1500 C 0.44705 0.88013 0.93322 0.0
C1501 C 0.46001 0.90654 0.92162 0.0
C1502 C 0.47251 0.92739 0.93692 0.0
C1503 C 0.42906 0.86032 0.91652 0.0
C1504 C 0.44126 0.85022 0.8982 0.0
C1505 C 0.3996 0.85281 0.91755 0.0
C1506 C 0.38529 0.86388 0.93555 0.0
C1507 C 0.38689 0.89289 0.9342 0.0
C1508 C 0.37354 0.90318 0.9514 0.0
C1509 C 0.35827 0.88464 0.96984 0.0
C1510 C 0.35624 0.85576 0.97106 0.0
C1511 C 0.36962 0.84536 0.95395 0.0
H1512 H 0.34794 0.89264 0.98314 0.0
H1513 H 0.47439 0.79351 0.81321 0.0
H1514 H 0.15696 0.33122 0.83728 0.0
H1515 H 0.13667 0.36624 0.85284 0.0
H1516 H 0.1681 0.33773 0.93172 0.0
H1517 H 0.18891 0.30349 0.91633 0.0
H1518 H 0.09668 0.36005 0.88514 0.0
H1519 H 0.18651 0.39098 0.96647 0.0
H1520 H 0.23828 0.39725 0.97443 0.0
H1521 H 0.24376 0.41201 0.89211 0.0
H1522 H 0.19207 0.40627 0.88365 0.0
H1523 H 0.04552 0.42216 0.97747 0.0
H1524 H 0.06447 0.39401 0.95258 0.0
H1525 H 0.13007 0.46494 0.93225 0.0
H1526 H 0.11226 0.49222 0.95893 0.0
H1527 H 0.15325 0.42496 0.94397 0.0
H1528 H 0.06856 0.43478 0.88758 0.0
H1529 H 1.01744 0.43242 0.8762 0.0
H1530 H 1.00254 0.34363 0.90123 0.0
H1531 H 0.05357 0.34551 0.91307 0.0
C1532 C 0.15988 0.33276 0.85788 0.0
C1533 C 0.17446 0.31449 0.87558 0.0
C1534 C 0.14806 0.35258 0.86677 0.0
C1535 C 0.15093 0.35472 0.89345 0.0
C1536 C 0.16581 0.33673 0.91103 0.0
C1537 C 0.17754 0.31699 0.90221 0.0
C1538 C 0.13815 0.37531 0.90329 0.0
C1539 C 0.10903 0.37445 0.89784 0.0
C1540 C 0.15428 0.39441 0.91953 0.0
C1541 C 0.18539 0.39793 0.92445 0.0
C1542 C 0.19877 0.39566 0.95007 0.0
C1543 C 0.2281 0.39912 0.95467 0.0
C1544 C 0.24429 0.40494 0.93379 0.0
C1545 C 0.23119 0.40739 0.90826 0.0
C1546 C 0.20187 0.404 0.90356 0.0
C1547 C 0.06365 0.4318 0.96721 0.0
C1548 C 0.0773 0.45939 0.96982 0.0
C1549 C 0.07447 0.41574 0.95285 0.0
C1550 C 0.09856 0.42731 0.93996 0.0
C1551 C 0.11155 0.45532 0.94196 0.0
C1552 C 0.10129 0.47103 0.95705 0.0
C1553 C 0.1115 0.40985 0.92605 0.0
C1554 C 0.14074 0.41101 0.93095 0.0
C1555 C 0.09552 0.39163 0.90877 0.0
C1556 C 0.06487 0.39034 0.90135 0.0
C1557 C 0.05437 0.41478 0.89075 0.0
C1558 C 0.02541 0.41352 0.88422 0.0
C1559 C 1.00676 0.38789 0.88799 0.0
C1560 C 1.01702 0.36345 0.89829 0.0
C1561 C 0.04596 0.3646 0.90488 0.0
H1562 H 0.98435 0.38697 0.88294 0.0
H1563 H 0.267 0.4076 0.93739 0.0
H1564 H 0.68104 0.20576 0.77185 0.0
H1565 H 0.65566 0.17447 0.80572 0.0
H1566 H 0.73057 0.18541 0.86015 0.0
H1567 H 0.75592 0.21802 0.82637 0.0
H1568 H 0.69221 0.12364 0.85433 0.0
H1569 H 0.69362 0.21704 0.87319 0.0
H1570 H 0.68726 0.26599 0.86046 0.0
H1571 H 0.6004 0.23756 0.83352 0.0
H1572 H 0.60644 0.18841 0.84563 0.0
H1573 H 0.63382 0.06657 0.97209 0.0
H1574 H 0.65991 0.09414 0.93736 0.0
H1575 H 0.58261 0.11314 0.89429 0.0
H1576 H 0.55604 0.08554 0.92962 0.0
H1577 H 0.62234 0.1595 0.89324 0.0
H1578 H 0.61831 0.06707 0.8765 0.0
H1579 H 0.62332 0.01753 0.88432 0.0
H1580 H 0.71256 0.04216 0.90327 0.0
H1581 H 0.70805 0.09182 0.89614 0.0
C1582 C 0.69224 0.20135 0.79098 0.0
C1583 C 0.72069 0.21394 0.79625 0.0
C1584 C 0.67767 0.18343 0.81031 0.0
C1585 C 0.69116 0.17748 0.83546 0.0
C1586 C 0.71976 0.18957 0.84082 0.0
C1587 C 0.73429 0.20804 0.82148 0.0
C1588 C 0.67468 0.15965 0.85614 0.0
C1589 C 0.67733 0.13154 0.86328 0.0
C1590 C 0.65434 0.16962 0.86691 0.0
C1591 C 0.65057 0.19909 0.86001 0.0
C1592 C 0.67325 0.22124 0.8643 0.0
C1593 C 0.66969 0.24901 0.85724 0.0
C1594 C 0.64346 0.25488 0.84611 0.0
C1595 C 0.62072 0.23298 0.8421 0.0
C1596 C 0.6242 0.20517 0.84906 0.0
C1597 C 0.62215 0.07645 0.95523 0.0
C1598 C 0.59267 0.07379 0.95383 0.0
C1599 C 0.63723 0.09215 0.93518 0.0
C1600 C 0.62339 0.10564 0.9129 0.0
C1601 C 0.59388 0.10291 0.91121 0.0
C1602 C 0.57864 0.08698 0.93136 0.0
C1603 C 0.64009 0.12327 0.89205 0.0
C1604 C 0.63734 0.15141 0.88461 0.0
C1605 C 0.66016 0.11315 0.88083 0.0
C1606 C 0.6628 0.08321 0.88599 0.0
C1607 C 0.63896 0.06193 0.88266 0.0
C1608 C 0.64172 0.03382 0.8869 0.0
C1609 C 0.66826 0.02673 0.89419 0.0
C1610 C 0.69204 0.0477 0.89756 0.0
C1611 C 0.68938 0.07583 0.89345 0.0
H1612 H 0.67043 1.00498 0.89717 0.0
H1613 H 0.64075 0.2764 0.84065 0.0
H1614 H 0.78641 0.66958 0.81967 0.0
H1615 H 0.81958 0.64674 0.84954 0.0
H1616 H 0.88314 0.7218 0.83997 0.0
H1617 H 0.8499 0.74413 0.80727 0.0
H1618 H 0.9088 0.68223 0.84415 0.0
H1619 H 0.84567 0.69168 0.9044 0.0
H1620 H 0.8001 0.68841 0.92125 0.0
H1621 H 0.77872 0.60077 0.91447 0.0
H1622 H 0.82431 0.60341 0.89811 0.0
H1623 H 0.99181 0.61265 0.95395 0.0
H1624 H 0.96529 0.64582 0.92553 0.0
H1625 H 0.89665 0.57758 0.91098 0.0
H1626 H 0.9224 0.5449 0.93869 0.0
H1627 H 0.87706 0.61933 0.92281 0.0
H1628 H 0.94216 0.61004 0.86506 0.0
H1629 H 0.98935 0.61319 0.85186 0.0
H1630 H 1.00844 0.70142 0.85643 0.0
H1631 H 0.96148 0.6987 0.87003 0.0
C1632 C 0.80724 0.68167 0.82422 0.0
C1633 C 0.8149 0.70925 0.81167 0.0
C1634 C 0.82637 0.6685 0.84181 0.0
C1635 C 0.85393 0.68259 0.8485 0.0
C1636 C 0.86196 0.71029 0.8358 0.0
C1637 C 0.84279 0.72335 0.81735 0.0
C1638 C 0.87422 0.66748 0.86749 0.0
C1639 C 0.90189 0.66903 0.86164 0.0
C1640 C 0.86571 0.64949 0.89035 0.0
C1641 C 0.83813 0.64789 0.89969 0.0
C1642 C 0.8311 0.6718 0.90632 0.0
C1643 C 0.80536 0.67002 0.91588 0.0
C1644 C 0.78642 0.6445 0.91862 0.0
C1645 C 0.79334 0.62057 0.91219 0.0
C1646 C 0.81918 0.62215 0.90295 0.0
C1647 C 0.97119 0.60472 0.94451 0.0
C1648 C 0.9596 0.57584 0.94874 0.0
C1649 C 0.956 0.62373 0.92816 0.0
C1650 C 0.92881 0.61435 0.91585 0.0
C1651 C 0.91745 0.5856 0.92007 0.0
C1652 C 0.93251 0.56676 0.93603 0.0
C1653 C 0.91127 0.63393 0.8993 0.0
C1654 C 0.88405 0.63299 0.90555 0.0
C1655 C 0.92034 0.6525 0.8771 0.0
C1656 C 0.94845 0.65412 0.86882 0.0
C1657 C 0.95651 0.63006 0.86345 0.0
C1658 C 0.9832 0.63178 0.85587 0.0
C1659 C 1.00191 0.65747 0.85338 0.0
C1660 C 0.99394 0.68152 0.85841 0.0
C1661 C 0.9673 0.67991 0.86604 0.0
H1662 H 1.02256 0.65876 0.84749 0.0
H1663 H 0.76646 0.64324 0.92588 0.0
H1664 H 0.26519 0.33962 0.19475 0.0
H1665 H 0.22994 0.36164 0.16583 0.0
H1666 H 0.16445 0.2943 0.19308 0.0
H1667 H 0.20023 0.27196 0.22258 0.0
H1668 H 0.15468 0.31357 0.13848 0.0
H1669 H 0.17545 0.35488 0.21763 0.0
H1670 H 0.20667 0.37688 0.25279 0.0
H1671 H 0.24124 0.44492 0.19693 0.0
H1672 H 0.21045 0.42314 0.16139 0.0
H1673 H 0.05304 0.40029 0.07757 0.0
H1674 H 0.07943 0.36795 0.10711 0.0
H1675 H 0.15391 0.43289 0.10726 0.0
H1676 H 0.12775 0.46502 0.07954 0.0
H1677 H 0.15422 0.4106 0.15208 0.0
H1678 H 0.13842 0.36899 0.07253 0.0
H1679 H 0.10944 0.34736 0.03603 0.0
H1680 H 0.06814 0.28145 0.08998 0.0
H1681 H 0.09668 0.30287 0.12679 0.0
C1682 C 0.24333 0.32913 0.19433 0.0
C1683 C 0.23567 0.30388 0.21091 0.0
C1684 C 0.22309 0.34189 0.1778 0.0
C1685 C 0.19429 0.33008 0.17742 0.0
C1686 C 0.18648 0.30403 0.19302 0.0
C1687 C 0.20695 0.29115 0.20981 0.0
C1688 C 0.17286 0.34612 0.16186 0.0
C1689 C 0.15425 0.33464 0.14169 0.0
C1690 C 0.17247 0.37392 0.1655 0.0
C1691 C 0.19076 0.38727 0.18685 0.0
C1692 C 0.18981 0.37446 0.21284 0.0
C1693 C 0.20742 0.3869 0.23283 0.0
C1694 C 0.22596 0.41226 0.22709 0.0
C1695 C 0.22687 0.42527 0.20134 0.0
C1696 C 0.20931 0.41291 0.18127 0.0
C1697 C 0.075 0.40761 0.08401 0.0
C1698 C 0.08791 0.43555 0.0762 0.0
C1699 C 0.0903 0.38897 0.10081 0.0
C1700 C 0.11911 0.39757 0.10963 0.0
C1701 C 0.13184 0.42535 0.10134 0.0
C1702 C 0.11661 0.44391 0.0852 0.0
C1703 C 0.13639 0.37858 0.12781 0.0
C1704 C 0.15435 0.38952 0.14869 0.0
C1705 C 0.13645 0.35054 0.12447 0.0
C1706 C 0.11945 0.33766 0.10237 0.0
C1707 C 0.12304 0.34997 0.07658 0.0
C1708 C 0.10672 0.33774 0.05585 0.0
C1709 C 0.08691 0.31309 0.06069 0.0
C1710 C 0.08345 0.30057 0.08626 0.0
C1711 C 0.0997 0.31272 0.10706 0.0
H1712 H 0.07429 0.30365 0.04461 0.0
H1713 H 0.23959 0.42184 0.2426 0.0
H1714 H 0.21261 0.69174 0.78285 0.0
H1715 H 0.17645 0.66206 0.80834 0.0
H1716 H 0.21499 0.70113 0.87583 0.0
H1717 H 0.2525 0.72855 0.8509 0.0
H1718 H 0.20663 0.65132 0.89105 0.0
H1719 H 0.13285 0.70384 0.84013 0.0
H1720 H 0.10547 0.72156 0.79964 0.0
H1721 H 0.0942 0.64194 0.77281 0.0
H1722 H 0.1204 0.62346 0.8136 0.0
H1723 H 0.11012 0.59968 0.98022 0.0
H1724 H 0.13683 0.6297 0.9469 0.0
H1725 H 0.09403 0.57659 0.8902 0.0
H1726 H 0.06595 0.54701 0.92373 0.0
H1727 H 0.10353 0.62799 0.86685 0.0
H1728 H 0.16327 0.57243 0.92137 0.0
H1729 H 0.18628 0.55114 0.96257 0.0
H1730 H 0.22613 0.63289 0.98091 0.0
H1731 H 0.20309 0.65467 0.93995 0.0
C1732 C 0.21284 0.69441 0.80298 0.0
C1733 C 0.23514 0.71277 0.81483 0.0
C1734 C 0.19192 0.67751 0.81762 0.0
C1735 C 0.19233 0.67924 0.84427 0.0
C1736 C 0.21392 0.69892 0.8555 0.0
C1737 C 0.23531 0.71491 0.84117 0.0
C1738 C 0.17262 0.65894 0.86139 0.0
C1739 C 0.18406 0.64674 0.8857 0.0
C1740 C 0.14319 0.65111 0.8544 0.0
C1741 C 0.12897 0.66257 0.8295 0.0
C1742 C 0.12475 0.6903 0.82541 0.0
C1743 C 0.1093 0.70037 0.80256 0.0
C1744 C 0.09858 0.68306 0.78349 0.0
C1745 C 0.10278 0.65543 0.78746 0.0
C1746 C 0.11766 0.64506 0.81052 0.0
C1747 C 0.10607 0.5946 0.96055 0.0
C1748 C 0.08604 0.57091 0.95461 0.0
C1749 C 0.12161 0.61165 0.94149 0.0
C1750 C 0.11835 0.60502 0.91607 0.0
C1751 C 0.09728 0.58209 0.90969 0.0
C1752 C 0.08114 0.56522 0.9288 0.0
C1753 C 0.13756 0.62173 0.89674 0.0
C1754 C 0.12614 0.63279 0.87206 0.0
C1755 C 0.16717 0.62816 0.90316 0.0
C1756 C 0.18129 0.61516 0.92769 0.0
C1757 C 0.17683 0.58586 0.93426 0.0
C1758 C 0.1899 0.57371 0.95756 0.0
C1759 C 0.20763 0.59065 0.97436 0.0
C1760 C 0.2124 0.61979 0.96787 0.0
C1761 C 0.19937 0.63205 0.9446 0.0
H1762 H 0.21771 0.5812 0.9924 0.0
H1763 H 0.08677 0.69101 0.76577 0.0
H1764 H 0.35811 0.25608 0.82085 0.0
H1765 H 0.38395 0.22549 0.85211 0.0
H1766 H 0.32287 0.15351 0.83163 0.0
H1767 H 0.296 0.1847 0.8009 0.0
H1768 H 0.34001 0.14276 0.88038 0.0
H1769 H 0.39245 0.17699 0.80711 0.0
H1770 H 0.41646 0.21261 0.77452 0.0
H1771 H 0.47265 0.24956 0.83547 0.0
H1772 H 0.44876 0.21434 0.86842 0.0
H1773 H 0.42888 0.04479 0.9273 0.0
H1774 H 0.40104 0.07618 0.90022 0.0
H1775 H 0.458 0.14712 0.92783 0.0
H1776 H 0.48661 0.11538 0.95542 0.0
H1777 H 0.44305 0.15829 0.87615 0.0
H1778 H 0.39105 0.12197 0.9493 0.0
H1779 H 0.36718 0.08533 0.98117 0.0
H1780 H 0.31037 0.05079 0.91933 0.0
H1781 H 0.33416 0.08701 0.88706 0.0
C1782 C 0.3498 0.23375 0.82338 0.0
C1783 C 0.32477 0.22296 0.80853 0.0
C1784 C 0.36492 0.21611 0.84107 0.0
C1785 C 0.35627 0.18681 0.84385 0.0
C1786 C 0.33046 0.17593 0.82984 0.0
C1787 C 0.31491 0.19379 0.81233 0.0
C1788 C 0.37456 0.16794 0.86086 0.0
C1789 C 0.36245 0.14602 0.87908 0.0
C1790 C 0.4042 0.17212 0.85998 0.0
C1791 C 0.41865 0.19321 0.84021 0.0
C1792 C 0.40982 0.19282 0.81355 0.0
C1793 C 0.42342 0.21292 0.79502 0.0
C1794 C 0.44602 0.23338 0.80293 0.0
C1795 C 0.45513 0.23372 0.82938 0.0
C1796 C 0.44159 0.21369 0.84798 0.0
C1797 C 0.43591 0.06705 0.92776 0.0
C1798 C 0.46038 0.07726 0.94388 0.0
C1799 C 0.41955 0.08511 0.91222 0.0
C1800 C 0.42678 0.11422 0.91213 0.0
C1801 C 0.45163 0.12476 0.92757 0.0
C1802 C 0.46809 0.10654 0.94338 0.0
C1803 C 0.40849 0.13327 0.89563 0.0
C1804 C 0.42061 0.15513 0.87746 0.0
C1805 C 0.37888 0.12885 0.89641 0.0
C1806 C 0.36454 0.10706 0.91576 0.0
C1807 C 0.3736 0.10643 0.94249 0.0
C1808 C 0.36006 0.08576 0.96063 0.0
C1809 C 0.33731 0.06571 0.95228 0.0
C1810 C 0.32801 0.06632 0.92577 0.0
C1811 C 0.3415 0.08693 0.90755 0.0
H1812 H 0.32684 0.04974 0.96635 0.0
H1813 H 0.45651 0.24893 0.78855 0.0
H1814 H 0.86399 0.28155 0.81167 0.0
H1815 H 0.89481 0.30604 0.845 0.0
H1816 H 0.82307 0.3314 0.86715 0.0
H1817 H 0.79254 0.30782 0.83296 0.0
H1818 H 0.86431 0.37336 0.865 0.0
H1819 H 0.85667 0.27588 0.90292 0.0
H1820 H 0.86037 0.227 0.90162 0.0
H1821 H 0.94892 0.25276 0.89485 0.0
H1822 H 0.94563 0.30189 0.89559 0.0
H1823 H 0.91444 0.41838 0.98269 0.0
H1824 H 0.89026 0.38545 0.95314 0.0
H1825 H 0.97014 0.37847 0.93134 0.0
H1826 H 0.9946 0.41132 0.96151 0.0
H1827 H 0.92933 0.32762 0.93186 0.0
H1828 H 0.9372 0.42444 0.89497 0.0
H1829 H 0.93362 0.4736 0.89502 0.0
H1830 H 0.84453 0.44884 0.89919 0.0
H1831 H 0.84766 0.39946 0.89959 0.0
C1832 C 0.85482 0.29182 0.82408 0.0
C1833 C 0.8259 0.29223 0.82037 0.0
C1834 C 0.87242 0.30593 0.84305 0.0
C1835 C 0.86123 0.3201 0.85906 0.0
C1836 C 0.83223 0.32053 0.85518 0.0
C1837 C 0.81477 0.30695 0.83581 0.0
C1838 C 0.87967 0.33511 0.87943 0.0
C1839 C 0.87822 0.36316 0.87977 0.0
C1840 C 0.89865 0.32223 0.89824 0.0
C1841 C 0.90087 0.29255 0.89915 0.0
C1842 C 0.87692 0.27111 0.90114 0.0
C1843 C 0.87893 0.24337 0.90044 0.0
C1844 C 0.90486 0.23679 0.89812 0.0
C1845 C 0.92885 0.2579 0.89663 0.0
C1846 C 0.92694 0.28569 0.8972 0.0
C1847 C 0.92688 0.40915 0.97217 0.0
C1848 C 0.95631 0.41732 0.97426 0.0
C1849 C 0.91307 0.39044 0.95525 0.0
C1850 C 0.92838 0.38003 0.93963 0.0
C1851 C 0.95797 0.38641 0.94314 0.0
C1852 C 0.97192 0.40502 0.96043 0.0
C1853 C 0.91311 0.3654 0.91778 0.0
C1854 C 0.91535 0.33765 0.91704 0.0
C1855 C 0.89479 0.37849 0.89851 0.0
C1856 C 0.8927 0.40826 0.89747 0.0
C1857 C 0.91687 0.42948 0.896 0.0
C1858 C 0.91492 0.45738 0.89596 0.0
C1859 C 0.88887 0.46434 0.89715 0.0
C1860 C 0.86469 0.44342 0.89828 0.0
C1861 C 0.86653 0.41548 0.89838 0.0
H1862 H 0.88742 0.48594 0.89716 0.0
H1863 H 0.90636 0.21532 0.89751 0.0
H1864 H 0.73659 0.90549 0.85432 0.0
H1865 H 0.70415 0.92876 0.87024 0.0
H1866 H 0.65201 0.84843 0.89262 0.0
H1867 H 0.68415 0.82514 0.87582 0.0
H1868 H 0.62041 0.88894 0.87584 0.0
H1869 H 0.70289 0.87809 0.93638 0.0
H1870 H 0.75395 0.88304 0.94987 0.0
H1871 H 0.76381 0.97253 0.9317 0.0
H1872 H 0.71286 0.96808 0.91774 0.0
H1873 H 0.55725 0.93398 0.97221 0.0
H1874 H 0.57977 0.91052 0.94581 0.0
H1875 H 0.64437 0.98471 0.93453 0.0
H1876 H 0.62299 1.00722 0.96258 0.0
H1877 H 0.66838 0.94528 0.94498 0.0
H1878 H 0.58534 0.95696 0.88499 0.0
H1879 H 0.53421 0.95197 0.87181 0.0
H1880 H 0.5247 0.8624 0.88807 0.0
H1881 H 0.57573 0.86687 0.90174 0.0
C1882 C 0.71785 0.89292 0.86211 0.0
C1883 C 0.71289 0.86361 0.86419 0.0
C1884 C 0.69941 0.90616 0.87125 0.0
C1885 C 0.67611 0.89025 0.88322 0.0
C1886 C 0.66998 0.86106 0.88359 0.0
C1887 C 0.68828 0.84779 0.87404 0.0
C1888 C 0.65995 0.90388 0.8975 0.0
C1889 C 0.63075 0.90119 0.89107 0.0
C1890 C 0.67356 0.92004 0.91717 0.0
C1891 C 0.70414 0.92272 0.92581 0.0
C1892 C 0.71599 0.8988 0.93512 0.0
C1893 C 0.7449 0.90152 0.94286 0.0
C1894 C 0.76212 0.92808 0.94159 0.0
C1895 C 0.75046 0.95198 0.93264 0.0
C1896 C 0.72157 0.94937 0.92483 0.0
C1897 C 0.57607 0.94531 0.9637 0.0
C1898 C 0.58853 0.97231 0.96931 0.0
C1899 C 0.5888 0.93201 0.94839 0.0
C1900 C 0.61353 0.94599 0.93748 0.0
C1901 C 0.62527 0.97345 0.94246 0.0
C1902 C 0.6131 0.98635 0.95849 0.0
C1903 C 0.62864 0.93147 0.9228 0.0
C1904 C 0.65779 0.93356 0.92946 0.0
C1905 C 0.61489 0.91497 0.90327 0.0
C1906 C 0.58431 0.91228 0.89461 0.0
C1907 C 0.57232 0.93621 0.88588 0.0
C1908 C 0.54336 0.93347 0.87833 0.0
C1909 C 0.52621 0.90689 0.87919 0.0
C1910 C 0.53801 0.88298 0.88747 0.0
C1911 C 0.56695 0.8856 0.8951 0.0
H1912 H 0.50379 0.90481 0.87338 0.0
H1913 H 0.7845 0.93014 0.94758 0.0
H1914 H 0.90074 0.69098 0.19018 0.0
H1915 H 0.92286 0.65696 0.17488 0.0
H1916 H 0.86441 0.65826 0.10506 0.0
H1917 H 0.84272 0.69241 0.12008 0.0
H1918 H 0.8732 0.60394 0.12688 0.0
H1919 H 0.92816 0.69756 0.10404 0.0
H1920 H 0.95723 0.74241 0.11455 0.0
H1921 H 1.01699 0.69838 0.1633 0.0
H1922 H 0.98803 0.65323 0.15337 0.0
H1923 H 0.92703 0.55692 0.03099 0.0
H1924 H 0.90977 0.58383 0.05769 0.0
H1925 H 0.98646 0.58626 0.11012 0.0
H1926 H 1.00471 0.56002 0.08239 0.0
H1927 H 0.9715 0.63454 0.10487 0.0
H1928 H 0.92208 0.542 0.12552 0.0
H1929 H 0.89459 0.49575 0.11726 0.0
H1930 H 0.82614 0.53423 0.07779 0.0
H1931 H 0.8534 0.5808 0.08543 0.0
C1932 C 0.89238 0.68355 0.17181 0.0
C1933 C 0.87005 0.69425 0.15628 0.0
C1934 C 0.90511 0.6643 0.163 0.0
C1935 C 0.89544 0.65522 0.1387 0.0
C1936 C 0.87225 0.66494 0.12384 0.0
C1937 C 0.85987 0.68443 0.13241 0.0
C1938 C 0.90999 0.63664 0.12791 0.0
C1939 C 0.89466 0.61062 0.122 0.0
C1940 C 0.93836 0.64487 0.12242 0.0
C1941 C 0.95577 0.67203 0.12822 0.0
C1942 C 0.94737 0.69744 0.11718 0.0
C1943 C 0.96385 0.72291 0.123 0.0
C1944 C 0.98889 0.72324 0.13965 0.0
C1945 C 0.99756 0.6981 0.15045 0.0
C1946 C 0.98112 0.67257 0.14474 0.0
C1947 C 0.94034 0.56293 0.04826 0.0
C1948 C 0.96717 0.5558 0.0547 0.0
C1949 C 0.93028 0.5783 0.06368 0.0
C1950 C 0.94632 0.58644 0.08649 0.0
C1951 C 0.97346 0.57996 0.0928 0.0
C1952 C 0.98384 0.56484 0.07701 0.0
C1953 C 0.93448 0.60197 0.10319 0.0
C1954 C 0.95023 0.62746 0.11017 0.0
C1955 C 0.90666 0.59296 0.11023 0.0
C1956 C 0.88987 0.56494 0.10596 0.0
C1957 C 0.90121 0.54063 0.11498 0.0
C1958 C 0.88567 0.51435 0.1104 0.0
C1959 C 0.85865 0.51205 0.09699 0.0
C1960 C 0.84708 0.53604 0.08819 0.0
C1961 C 0.86255 0.56239 0.09267 0.0
H1962 H 0.84666 0.49169 0.09345 0.0
H1963 H 1.00163 0.74298 0.14412 0.0
H1964 H 0.35883 0.82746 0.24837 0.0
H1965 H 0.38403 0.85917 0.21492 0.0
H1966 H 0.32411 0.8218 0.15579 0.0
H1967 H 0.29689 0.79292 0.18955 0.0
H1968 H 0.41322 0.85376 0.18532 0.0
H1969 H 0.32501 0.84203 0.10744 0.0
H1970 H 0.27645 0.84864 0.09131 0.0
H1971 H 0.28884 0.91978 0.13193 0.0
H1972 H 0.33643 0.91201 0.14993 0.0
H1973 H 0.48662 0.91528 0.07475 0.0
H1974 H 0.45865 0.88529 0.10769 0.0
H1975 H 0.40477 0.9462 0.09931 0.0
H1976 H 0.43142 0.97486 0.06498 0.0
H1977 H 0.37307 0.90073 0.10174 0.0
H1978 H 0.4577 0.93151 0.15577 0.0
H1979 H 0.50888 0.93942 0.16919 0.0
H1980 H 0.50716 0.85092 0.17777 0.0
H1981 H 0.456 0.84252 0.1641 0.0
C1982 C 0.35055 0.82681 0.22814 0.0
C1983 C 0.32553 0.8082 0.22161 0.0
C1984 C 0.36519 0.84478 0.20883 0.0
C1985 C 0.35626 0.84367 0.18218 0.0
C1986 C 0.33116 0.82472 0.17574 0.0
C1987 C 0.31565 0.80768 0.19519 0.0
C1988 C 0.37452 0.86077 0.16186 0.0
C1989 C 0.40413 0.86414 0.16721 0.0
C1990 C 0.36366 0.87455 0.13774 0.0
C1991 C 0.33364 0.87572 0.13085 0.0
C1992 C 0.31685 0.85838 0.11366 0.0
C1993 C 0.2895 0.86228 0.10426 0.0
C1994 C 0.27932 0.88429 0.11098 0.0
C1995 C 0.2964 0.90226 0.12728 0.0
C1996 C 0.32329 0.89774 0.13756 0.0
C1997 C 0.46904 0.92235 0.08031 0.0
C1998 C 0.46128 0.94745 0.06751 0.0
C1999 C 0.45303 0.90523 0.09926 0.0
C2000 C 0.42951 0.91336 0.1065 0.0
C2001 C 0.42251 0.93906 0.09416 0.0
C2002 C 0.43793 0.95566 0.07468 0.0
C2003 C 0.41138 0.89482 0.12595 0.0
C2004 C 0.382 0.89066 0.12013 0.0
C2005 C 0.4225 0.88149 0.1501 0.0
C2006 C 0.45312 0.88641 0.15872 0.0
C2007 C 0.46828 0.91375 0.16042 0.0
C2008 C 0.49727 0.91832 0.16807 0.0
C2009 C 0.51128 0.89569 0.17426 0.0
C2010 C 0.49629 0.86843 0.17293 0.0
C2011 C 0.4673 0.86374 0.16528 0.0
H2012 H 0.53374 0.89927 0.18014 0.0
H2013 H 0.25832 0.88762 0.10335 0.0
H2014 H 0.70767 0.19114 0.22118 0.0
H2015 H 0.67962 0.16962 0.18508 0.0
H2016 H 0.67586 0.25139 0.14163 0.0
H2017 H 0.70533 0.27327 0.17758 0.0
H2018 H 0.62317 0.21291 0.1402 0.0
H2019 H 0.71685 0.21737 0.12268 0.0
H2020 H 0.76634 0.21158 0.12758 0.0
H2021 H 0.74051 0.12258 0.14684 0.0
H2022 H 0.69093 0.12785 0.14256 0.0
H2023 H 0.57381 0.13155 0.02803 0.0
H2024 H 0.59653 0.16884 0.05452 0.0
H2025 H 0.61057 0.10609 0.12028 0.0
H2026 H 0.588 0.06931 0.09449 0.0
H2027 H 0.66014 0.14438 0.10182 0.0
H2028 H 0.56597 0.14153 0.12319 0.0
H2029 H 0.51658 0.14748 0.1129 0.0
H2030 H 0.54392 0.23444 0.08424 0.0
H2031 H 0.5935 0.22883 0.09379 0.0
C2032 C 0.70159 0.20461 0.20374 0.0
C2033 C 0.70968 0.23388 0.20188 0.0
C2034 C 0.68524 0.19226 0.1832 0.0
C2035 C 0.67615 0.20888 0.16046 0.0
C2036 C 0.68298 0.23819 0.15891 0.0
C2037 C 0.69973 0.25063 0.17946 0.0
C2038 C 0.65948 0.19508 0.13865 0.0
C2039 C 0.63141 0.19832 0.13143 0.0
C2040 C 0.67016 0.17598 0.12724 0.0
C2041 C 0.70014 0.17303 0.1323 0.0
C2042 C 0.72174 0.19662 0.12838 0.0
C2043 C 0.7498 0.1934 0.13088 0.0
C2044 C 0.75649 0.16669 0.13718 0.0
C2045 C 0.73525 0.14322 0.14172 0.0
C2046 C 0.70719 0.14632 0.13929 0.0
C2047 C 0.58106 0.12588 0.04833 0.0
C2048 C 0.57951 0.09755 0.05909 0.0
C2049 C 0.59406 0.14712 0.06338 0.0
C2050 C 0.60542 0.14011 0.08925 0.0
C2051 C 0.60212 0.11191 0.10032 0.0
C2052 C 0.58924 0.09092 0.08549 0.0
C2053 C 0.62361 0.16124 0.10436 0.0
C2054 C 0.65207 0.15934 0.1103 0.0
C2055 C 0.61323 0.18144 0.11451 0.0
C2056 C 0.58343 0.18463 0.10871 0.0
C2057 C 0.56146 0.16181 0.1143 0.0
C2058 C 0.53342 0.16514 0.10869 0.0
C2059 C 0.5271 0.19129 0.09779 0.0
C2060 C 0.54882 0.21417 0.09256 0.0
C2061 C 0.57689 0.21091 0.09804 0.0
H2062 H 0.50538 0.19385 0.0935 0.0
H2063 H 0.77813 0.16413 0.13857 0.0
H2064 H 0.6717 0.71399 0.78306 0.0
H2065 H 0.64206 0.68326 0.81485 0.0
H2066 H 0.71589 0.65581 0.85786 0.0
H2067 H 0.74524 0.68682 0.82693 0.0
H2068 H 0.66567 0.61246 0.85144 0.0
H2069 H 0.69911 0.70585 0.87683 0.0
H2070 H 0.70345 0.75725 0.86858 0.0
H2071 H 0.61335 0.74804 0.85966 0.0
H2072 H 0.60852 0.69656 0.86736 0.0
H2073 H 0.64118 0.55879 0.97895 0.0
H2074 H 0.66186 0.58868 0.94188 0.0
H2075 H 0.58591 0.62268 0.92021 0.0
H2076 H 0.56544 0.59365 0.95767 0.0
H2077 H 0.63058 0.66208 0.91138 0.0
H2078 H 0.59671 0.5689 0.89133 0.0
H2079 H 0.59115 0.51754 0.89516 0.0
H2080 H 0.67981 0.52552 0.89168 0.0
H2081 H 0.686 0.57689 0.88818 0.0
C2082 C 0.68125 0.70083 0.79902 0.0
C2083 C 0.71049 0.70256 0.80288 0.0
C2084 C 0.66449 0.68349 0.81707 0.0
C2085 C 0.677 0.66756 0.83858 0.0
C2086 C 0.70598 0.66795 0.84129 0.0
C2087 C 0.72266 0.68561 0.82371 0.0
C2088 C 0.66079 0.65229 0.85976 0.0
C2089 C 0.65793 0.62316 0.86462 0.0
C2090 C 0.65043 0.66652 0.87645 0.0
C2091 C 0.65344 0.69741 0.8723 0.0
C2092 C 0.68024 0.7148 0.87287 0.0
C2093 C 0.68279 0.74394 0.86833 0.0
C2094 C 0.65869 0.7559 0.8635 0.0
C2095 C 0.632 0.73875 0.86333 0.0
C2096 C 0.62934 0.70961 0.86776 0.0
C2097 C 0.62913 0.57311 0.96669 0.0
C2098 C 0.60149 0.5735 0.97101 0.0
C2099 C 0.64085 0.58995 0.94537 0.0
C2100 C 0.62501 0.60714 0.92792 0.0
C2101 C 0.59832 0.60925 0.93331 0.0
C2102 C 0.58668 0.59265 0.95477 0.0
C2103 C 0.63587 0.62201 0.90353 0.0
C2104 C 0.63782 0.65114 0.89808 0.0
C2105 C 0.6453 0.60771 0.88618 0.0
C2106 C 0.64183 0.57674 0.88964 0.0
C2107 C 0.61507 0.55968 0.89173 0.0
C2108 C 0.6118 0.53057 0.89378 0.0
C2109 C 0.63511 0.51832 0.8936 0.0
C2110 C 0.66178 0.53508 0.89176 0.0
C2111 C 0.66518 0.56417 0.88973 0.0
H2112 H 0.63255 0.4959 0.89463 0.0
H2113 H 0.66069 0.77845 0.85994 0.0
H2114 H 0.32182 0.65111 0.92123 0.0
H2115 H 0.37024 0.65402 0.94115 0.0
H2116 H 0.39812 0.71872 0.87906 0.0
H2117 H 0.34992 0.71693 0.86002 0.0
H2118 H 0.38911 0.63394 0.90511 0.0
H2119 H 0.47528 0.73598 0.88855 0.0
H2120 H 0.4854 0.78477 0.89737 0.0
H2121 H 0.42907 0.76264 0.9565 0.0
H2122 H 0.41993 0.71335 0.9493 0.0
H2123 H 0.4927 0.57387 0.90033 0.0
H2124 H 0.47668 0.61652 0.87818 0.0
H2125 H 0.49994 0.65338 0.94913 0.0
H2126 H 0.51771 0.61214 0.97028 0.0
H2127 H 0.48536 0.69114 0.91356 0.0
H2128 H 0.43759 0.59186 0.94572 0.0
H2129 H 0.4273 0.54105 0.94313 0.0
H2130 H 0.40401 0.55774 0.86079 0.0
H2131 H 0.41396 0.60861 0.86301 0.0
C2132 C 0.33795 0.66745 0.91294 0.0
C2133 C 0.3324 0.68288 0.88847 0.0
C2134 C 0.36572 0.66914 0.92435 0.0
C2135 C 0.38778 0.68555 0.91078 0.0
C2136 C 0.38154 0.70554 0.88966 0.0
C2137 C 0.35377 0.7044 0.87868 0.0
C2138 C 0.41379 0.67448 0.91174 0.0
C2139 C 0.41012 0.6466 0.90729 0.0
C2140 C 0.44113 0.6912 0.91327 0.0
C2141 C 0.44648 0.72086 0.91799 0.0
C2142 C 0.46521 0.74138 0.90363 0.0
C2143 C 0.47097 0.76913 0.9085 0.0
C2144 C 0.45771 0.77684 0.92733 0.0
C2145 C 0.43913 0.75668 0.94174 0.0
C2146 C 0.43376 0.72876 0.93736 0.0
C2147 C 0.49635 0.59201 0.91038 0.0
C2148 C 0.50494 0.58973 0.93711 0.0
C2149 C 0.48709 0.61632 0.89784 0.0
C2150 C 0.48517 0.63701 0.9127 0.0
C2151 C 0.50026 0.63727 0.93748 0.0
C2152 C 0.51022 0.61351 0.94971 0.0
C2153 C 0.46045 0.65073 0.90784 0.0
C2154 C 0.46415 0.67901 0.91115 0.0
C2155 C 0.4329 0.63438 0.90585 0.0
C2156 C 0.42693 0.6039 0.90446 0.0
C2157 C 0.43033 0.58462 0.92709 0.0
C2158 C 0.42457 0.55585 0.92569 0.0
C2159 C 0.41527 0.54619 0.90177 0.0
C2160 C 0.4114 0.56526 0.87926 0.0
C2161 C 0.41703 0.59403 0.88058 0.0
H2162 H 0.41092 0.52394 0.90067 0.0
H2163 H 0.46192 0.79843 0.93082 0.0
H2164 H 0.3557 0.34409 0.77202 0.0
H2165 H 0.38775 0.3745 0.80041 0.0
H2166 H 0.33144 0.34759 0.8599 0.0
H2167 H 0.30028 0.31661 0.83242 0.0
H2168 H 0.38477 0.41789 0.82447 0.0
H2169 H 0.366 0.33951 0.9186 0.0
H2170 H 0.35233 0.28845 0.93119 0.0
H2171 H 0.38726 0.27399 0.86512 0.0
H2172 H 0.4015 0.3249 0.85235 0.0
H2173 H 0.42125 0.48384 0.93655 0.0
H2174 H 0.39719 0.45368 0.90468 0.0
H2175 H 0.46719 0.4106 0.91594 0.0
H2176 H 0.49176 0.44101 0.94794 0.0
H2177 H 0.41474 0.3741 0.91362 0.0
H2178 H 0.46169 0.45557 0.86316 0.0
H2179 H 0.47608 0.5066 0.8511 0.0
H2180 H 0.38959 0.51394 0.82887 0.0
H2181 H 0.37465 0.46296 0.84114 0.0
C2182 C 0.3502 0.34458 0.79113 0.0
C2183 C 0.32571 0.3272 0.80003 0.0
C2184 C 0.36848 0.36213 0.80733 0.0
C2185 C 0.36243 0.36281 0.83263 0.0
C2186 C 0.33708 0.34687 0.84081 0.0
C2187 C 0.31914 0.32916 0.82489 0.0
C2188 C 0.3827 0.3793 0.85101 0.0
C2189 C 0.39145 0.40824 0.84387 0.0
C2190 C 0.39199 0.36674 0.87626 0.0
C2191 C 0.38471 0.33604 0.88448 0.0
C2192 C 0.37101 0.32543 0.9069 0.0
C2193 C 0.36308 0.29651 0.91402 0.0
C2194 C 0.36887 0.27798 0.89893 0.0
C2195 C 0.38272 0.28834 0.87676 0.0
C2196 C 0.39074 0.31723 0.86958 0.0
C2197 C 0.43163 0.46794 0.9324 0.0
C2198 C 0.45859 0.46503 0.9448 0.0
C2199 C 0.4178 0.45071 0.91408 0.0
C2200 C 0.43048 0.43005 0.90771 0.0
C2201 C 0.45703 0.42645 0.92052 0.0
C2202 C 0.47105 0.44389 0.93879 0.0
C2203 C 0.41599 0.4127 0.88731 0.0
C2204 C 0.40834 0.38362 0.8941 0.0
C2205 C 0.40813 0.42504 0.86165 0.0
C2206 C 0.41705 0.45548 0.85315 0.0
C2207 C 0.44574 0.46808 0.85573 0.0
C2208 C 0.45399 0.49699 0.84888 0.0
C2209 C 0.43376 0.51351 0.83925 0.0
C2210 C 0.40524 0.50111 0.83631 0.0
C2211 C 0.39687 0.4722 0.84316 0.0
H2212 H 0.44017 0.53591 0.83406 0.0
H2213 H 0.3627 0.25561 0.90446 0.0
H2214 H 0.631 0.36662 0.78446 0.0
H2215 H 0.60762 0.38233 0.81606 0.0
H2216 H 0.68542 0.39218 0.86716 0.0
H2217 H 0.70858 0.37551 0.8359 0.0
H2218 H 0.64184 0.37314 0.89459 0.0
H2219 H 0.6648 0.44831 0.82429 0.0
H2220 H 0.66393 0.46905 0.77806 0.0
H2221 H 0.57358 0.45544 0.77078 0.0
H2222 H 0.57393 0.43431 0.8169 0.0
H2223 H 0.62318 0.47215 0.96797 0.0
H2224 H 0.63879 0.44803 0.9375 0.0
H2225 H 0.55755 0.4434 0.89187 0.0
H2226 H 0.54178 0.46787 0.92271 0.0
H2227 H 0.59883 0.45688 0.86146 0.0
H2228 H 0.57593 0.38428 0.9327 0.0
H2229 H 0.57705 0.36386 0.97901 0.0
H2230 H 0.66701 0.37315 0.98482 0.0
H2231 H 0.66642 0.39367 0.93853 0.0
C2232 C 0.64294 0.37183 0.80261 0.0
C2233 C 0.6716 0.37028 0.8077 0.0
C2234 C 0.62964 0.38085 0.82058 0.0
C2235 C 0.64498 0.38913 0.84364 0.0
C2236 C 0.67324 0.38607 0.84941 0.0
C2237 C 0.68645 0.37658 0.83159 0.0
C2238 C 0.63211 0.40255 0.86094 0.0
C2239 C 0.63258 0.39153 0.88738 0.0
C2240 C 0.61952 0.42623 0.85144 0.0
C2241 C 0.61938 0.43958 0.82394 0.0
C2242 C 0.64476 0.44968 0.81279 0.0
C2243 C 0.64436 0.46148 0.78662 0.0
C2244 C 0.61872 0.46352 0.77148 0.0
C2245 C 0.59343 0.45384 0.78252 0.0
C2246 C 0.59371 0.44198 0.80867 0.0
C2247 C 0.60852 0.46564 0.95166 0.0
C2248 C 0.58109 0.47112 0.94801 0.0
C2249 C 0.61743 0.45182 0.93428 0.0
C2250 C 0.59902 0.44304 0.91291 0.0
C2251 C 0.57194 0.44965 0.90848 0.0
C2252 C 0.563 0.46367 0.92596 0.0
C2253 C 0.60859 0.42749 0.89511 0.0
C2254 C 0.60768 0.43823 0.8686 0.0
C2255 C 0.62077 0.40355 0.90456 0.0
C2256 C 0.62113 0.39053 0.93219 0.0
C2257 C 0.59595 0.38195 0.94387 0.0
C2258 C 0.59648 0.37033 0.97009 0.0
C2259 C 0.62208 0.3672 0.98485 0.0
C2260 C 0.64719 0.37554 0.97336 0.0
C2261 C 0.64676 0.38705 0.9471 0.0
H2262 H 0.62247 0.35834 1.00519 0.0
H2263 H 0.61844 0.47263 0.75121 0.0
H2264 H 0.69559 0.38754 0.15643 0.0
H2265 H 0.64779 0.37497 0.13581 0.0
H2266 H 0.66966 0.30464 0.10944 0.0
H2267 H 0.71804 0.31677 0.13133 0.0
H2268 H 0.63967 0.35657 0.0734 0.0
H2269 H 0.62297 0.27518 0.13275 0.0
H2270 H 0.62832 0.2433 0.17393 0.0
H2271 H 0.59881 0.29857 0.21425 0.0
H2272 H 0.59373 0.3311 0.17358 0.0
H2273 H 0.52248 0.41305 0.05079 0.0
H2274 H 0.53435 0.36715 0.06472 0.0
H2275 H 0.58794 0.39802 0.13044 0.0
H2276 H 0.5753 0.44413 0.1168 0.0
H2277 H 0.56452 0.33283 0.13232 0.0
H2278 H 0.63205 0.41465 0.09023 0.0
H2279 H 0.64386 0.45704 0.05845 0.0
H2280 H 0.59083 0.41611 0.99809 0.0
H2281 H 0.57886 0.37324 0.02966 0.0
C2282 C 0.69034 0.36972 0.14583 0.0
C2283 C 0.71028 0.35333 0.14498 0.0
C2284 C 0.66305 0.36223 0.13454 0.0
C2285 C 0.65529 0.33846 0.12183 0.0
C2286 C 0.6754 0.32269 0.11968 0.0
C2287 C 0.70294 0.32997 0.13157 0.0
C2288 C 0.62639 0.33298 0.10914 0.0
C2289 C 0.62234 0.34988 0.08533 0.0
C2290 C 0.60429 0.32452 0.12516 0.0
C2291 C 0.60764 0.30543 0.14995 0.0
C2292 C 0.61774 0.28063 0.15041 0.0
C2293 C 0.62075 0.26246 0.17366 0.0
C2294 C 0.61374 0.26885 0.19657 0.0
C2295 C 0.60403 0.29358 0.19641 0.0
C2296 C 0.601 0.31186 0.17323 0.0
C2297 C 0.53453 0.40933 0.06961 0.0
C2298 C 0.54749 0.43173 0.08319 0.0
C2299 C 0.54158 0.38312 0.07734 0.0
C2300 C 0.56202 0.37944 0.0984 0.0
C2301 C 0.57172 0.40056 0.1143 0.0
C2302 C 0.5645 0.42686 0.10661 0.0
C2303 C 0.5799 0.35905 0.09841 0.0
C2304 C 0.58072 0.33742 0.11923 0.0
C2305 C 0.60044 0.36482 0.08076 0.0
C2306 C 0.60449 0.39098 0.06218 0.0
C2307 C 0.62268 0.41486 0.07021 0.0
C2308 C 0.62955 0.43881 0.05228 0.0
C2309 C 0.61841 0.43905 0.02628 0.0
C2310 C 0.59964 0.41567 0.01825 0.0
C2311 C 0.59275 0.39155 0.03615 0.0
H2312 H 0.62453 0.45742 0.01246 0.0
H2313 H 0.6157 0.25455 0.21441 0.0
H2314 H 0.7105 0.72979 0.19213 0.0
H2315 H 0.67994 0.6987 0.16371 0.0
H2316 H 0.6929 0.62715 0.22044 0.0
H2317 H 0.72322 0.65848 0.24943 0.0
H2318 H 0.70449 0.62992 0.16266 0.0
H2319 H 0.63414 0.63722 0.21712 0.0
H2320 H 0.60835 0.66422 0.23765 0.0
H2321 H 0.58054 0.70523 0.16248 0.0
H2322 H 0.60645 0.6787 0.14152 0.0
H2323 H 0.61628 0.52488 0.09945 0.0
H2324 H 0.64068 0.55471 0.13139 0.0
H2325 H 0.59673 0.62062 0.09367 0.0
H2326 H 0.5708 0.58987 0.0624 0.0
H2327 H 0.60102 0.62198 0.14212 0.0
H2328 H 0.66866 0.61995 0.08633 0.0
H2329 H 0.69653 0.59945 0.06154 0.0
H2330 H 0.73273 0.55723 0.13264 0.0
H2331 H 0.70477 0.57719 0.15785 0.0
C2332 C 0.70686 0.70744 0.19858 0.0
C2333 C 0.71962 0.69646 0.22277 0.0
C2334 C 0.68924 0.68974 0.1824 0.0
C2335 C 0.68432 0.66067 0.18992 0.0
C2336 C 0.69655 0.64958 0.2143 0.0
C2337 C 0.71375 0.66741 0.23083 0.0
C2338 C 0.66752 0.64198 0.17162 0.0
C2339 C 0.68179 0.62766 0.1585 0.0
C2340 C 0.6382 0.64044 0.16519 0.0
C2341 C 0.62236 0.6561 0.17777 0.0
C2342 C 0.62268 0.65214 0.20499 0.0
C2343 C 0.60801 0.66732 0.2167 0.0
C2344 C 0.59283 0.68645 0.20139 0.0
C2345 C 0.59227 0.6904 0.17432 0.0
C2346 C 0.60691 0.67525 0.16251 0.0
C2347 C 0.61182 0.54576 0.09788 0.0
C2348 C 0.59188 0.55516 0.07817 0.0
C2349 C 0.62593 0.56292 0.11614 0.0
C2350 C 0.62129 0.59036 0.11465 0.0
C2351 C 0.60091 0.59964 0.09524 0.0
C2352 C 0.58617 0.58212 0.07729 0.0
C2353 C 0.63785 0.60914 0.13331 0.0
C2354 C 0.62367 0.62384 0.14633 0.0
C2355 C 0.66752 0.61186 0.13902 0.0
C2356 C 0.68444 0.59987 0.12395 0.0
C2357 C 0.68242 0.60615 0.09666 0.0
C2358 C 0.69825 0.59465 0.08254 0.0
C2359 C 0.71634 0.577 0.0955 0.0
C2360 C 0.71869 0.57088 0.12263 0.0
C2361 C 0.70288 0.5823 0.13684 0.0
H2362 H 0.72859 0.56812 0.08454 0.0
H2363 H 0.58147 0.69817 0.2105 0.0
H2364 H 0.37453 0.60401 0.2355 0.0
H2365 H 0.39796 0.58877 0.204 0.0
H2366 H 0.4043 0.67037 0.15798 0.0
H2367 H 0.38276 0.68683 0.1905 0.0
H2368 H 0.37725 0.60845 0.1363 0.0
H2369 H 0.45775 0.6712 0.17247 0.0
H2370 H 0.49021 0.69155 0.20778 0.0
H2371 H 0.50977 0.61063 0.23861 0.0
H2372 H 0.47692 0.58969 0.20372 0.0
H2373 H 0.45711 0.58733 0.04377 0.0
H2374 H 0.43998 0.60892 0.07501 0.0
H2375 H 0.46851 0.54893 0.13743 0.0
H2376 H 0.48616 0.5269 0.10597 0.0
H2377 H 0.47849 0.60182 0.15072 0.0
H2378 H 0.39936 0.53993 0.1124 0.0
H2379 H 0.36769 0.52026 0.07636 0.0
H2380 H 0.34565 0.60074 0.04833 0.0
H2381 H 0.37748 0.62089 0.08417 0.0
C2382 C 0.38145 0.61908 0.21908 0.0
C2383 C 0.37716 0.64688 0.21593 0.0
C2384 C 0.39461 0.61018 0.20098 0.0
C2385 C 0.40315 0.62861 0.17904 0.0
C2386 C 0.39806 0.65602 0.17508 0.0
C2387 C 0.38547 0.66524 0.19356 0.0
C2388 C 0.41662 0.61849 0.16005 0.0
C2389 C 0.39948 0.60744 0.13908 0.0
C2390 C 0.44537 0.61651 0.16437 0.0
C2391 C 0.46451 0.62881 0.18577 0.0
C2392 C 0.46857 0.65765 0.18705 0.0
C2393 C 0.48715 0.66932 0.20691 0.0
C2394 C 0.50196 0.65237 0.22549 0.0
C2395 C 0.49821 0.62372 0.22425 0.0
C2396 C 0.4796 0.61194 0.20445 0.0
C2397 C 0.45985 0.57853 0.06411 0.0
C2398 C 0.47252 0.55491 0.07228 0.0
C2399 C 0.44995 0.59098 0.08195 0.0
C2400 C 0.4522 0.58 0.10838 0.0
C2401 C 0.46615 0.55737 0.11697 0.0
C2402 C 0.47618 0.54481 0.09902 0.0
C2403 C 0.43919 0.59192 0.12666 0.0
C2404 C 0.4563 0.60299 0.14772 0.0
C2405 C 0.41036 0.59407 0.12232 0.0
C2406 C 0.39096 0.58192 0.10091 0.0
C2407 C 0.38787 0.55343 0.09852 0.0
C2408 C 0.36987 0.5422 0.07812 0.0
C2409 C 0.35469 0.55925 0.06003 0.0
C2410 C 0.35742 0.58755 0.06236 0.0
C2411 C 0.37541 0.59887 0.08275 0.0
H2412 H 0.34077 0.55054 0.04422 0.0
H2413 H 0.51643 0.66147 0.24079 0.0
H2414 H 0.31736 0.28666 0.17876 0.0
H2415 H 0.34637 0.31699 0.14799 0.0
H2416 H 0.39941 0.35506 0.21058 0.0
H2417 H 0.36973 0.32465 0.24205 0.0
H2418 H 0.38715 0.39382 0.17195 0.0
H2419 H 0.42289 0.31085 0.17877 0.0
H2420 H 0.42146 0.26027 0.18078 0.0
H2421 H 0.38093 0.26289 0.10246 0.0
H2422 H 0.38167 0.31343 0.10012 0.0
H2423 H 0.48409 0.42717 0.06059 0.0
H2424 H 0.46453 0.39525 0.09682 0.0
H2425 H 0.39125 0.43393 0.08375 0.0
H2426 H 0.41146 0.46676 0.04784 0.0
H2427 H 0.42118 0.35696 0.10225 0.0
H2428 H 0.36746 0.43524 0.13982 0.0
H2429 H 0.37558 0.48538 0.14452 0.0
H2430 H 0.46423 0.49203 0.14191 0.0
H2431 H 0.45662 0.44207 0.13699 0.0
C2432 C 0.33518 0.30131 0.18626 0.0
C2433 C 0.34088 0.30354 0.21296 0.0
C2434 C 0.35194 0.31856 0.16851 0.0
C2435 C 0.37521 0.33802 0.17702 0.0
C2436 C 0.38147 0.34008 0.20368 0.0
C2437 C 0.36449 0.32279 0.2216 0.0
C2438 C 0.39197 0.35684 0.15757 0.0
C2439 C 0.39481 0.38581 0.15681 0.0
C2440 C 0.4025 0.3463 0.1382 0.0
C2441 C 0.40221 0.31593 0.13934 0.0
C2442 C 0.41351 0.30062 0.16203 0.0
C2443 C 0.41283 0.27195 0.16322 0.0
C2444 C 0.40107 0.25837 0.14177 0.0
C2445 C 0.39002 0.27345 0.11906 0.0
C2446 C 0.3906 0.30212 0.11778 0.0
C2447 C 0.46372 0.42868 0.06517 0.0
C2448 C 0.44952 0.44958 0.05139 0.0
C2449 C 0.45254 0.41045 0.08596 0.0
C2450 C 0.42669 0.41258 0.0933 0.0
C2451 C 0.41159 0.4324 0.07876 0.0
C2452 C 0.42298 0.45089 0.05803 0.0
C2453 C 0.41566 0.39399 0.11619 0.0
C2454 C 0.4138 0.36502 0.11751 0.0
C2455 C 0.40698 0.40458 0.13655 0.0
C2456 C 0.41143 0.43499 0.13789 0.0
C2457 C 0.38865 0.44748 0.14009 0.0
C2458 C 0.39316 0.47586 0.14276 0.0
C2459 C 0.42041 0.49185 0.14355 0.0
C2460 C 0.44313 0.47966 0.14116 0.0
C2461 C 0.43871 0.45135 0.13831 0.0
H2462 H 0.42396 0.51361 0.14628 0.0
H2463 H 0.40055 0.23616 0.14274 0.0
H2464 H 0.82131 0.6523 0.6257 0.0
H2465 H 0.85631 0.62806 0.61579 0.0
H2466 H 0.89076 0.61929 0.69641 0.0
H2467 H 0.85495 0.6428 0.70685 0.0
H2468 H 0.93198 0.63541 0.6561 0.0
H2469 H 0.85269 0.56537 0.68162 0.0
H2470 H 0.80226 0.5443 0.68155 0.0
H2471 H 0.79594 0.54043 0.59969 0.0
H2472 H 0.84624 0.56195 0.59917 0.0
H2473 H 1.00838 0.54578 0.61075 0.0
H2474 H 0.98155 0.561 0.64043 0.0
H2475 H 0.9125 0.56478 0.57942 0.0
H2476 H 0.93834 0.54873 0.55064 0.0
H2477 H 0.89228 0.54546 0.62234 0.0
H2478 H 0.96724 0.62317 0.59433 0.0
H2479 H 1.01694 0.64632 0.59203 0.0
H2480 H 0.03094 0.63785 0.67544 0.0
H2481 H 0.9814 0.61428 0.67821 0.0
C2482 C 0.83621 0.64518 0.64142 0.0
C2483 C 0.83489 0.64899 0.66717 0.0
C2484 C 0.85635 0.63153 0.63566 0.0
C2485 C 0.87581 0.62162 0.65544 0.0
C2486 C 0.87581 0.62678 0.68093 0.0
C2487 C 0.85539 0.64027 0.68681 0.0
C2488 C 0.89468 0.60433 0.64928 0.0
C2489 C 0.92354 0.61542 0.64924 0.0
C2490 C 0.88347 0.57844 0.64014 0.0
C2491 C 0.85321 0.56543 0.64036 0.0
C2492 C 0.84049 0.56025 0.66356 0.0
C2493 C 0.81194 0.54819 0.66363 0.0
C2494 C 0.7959 0.54106 0.64062 0.0
C2495 C 0.80839 0.54597 0.61749 0.0
C2496 C 0.83693 0.55807 0.61731 0.0
C2497 C 0.98716 0.54914 0.6041 0.0
C2498 C 0.9755 0.54635 0.57837 0.0
C2499 C 0.97201 0.55816 0.62089 0.0
C2500 C 0.94519 0.56456 0.61201 0.0
C2501 C 0.93312 0.5601 0.5868 0.0
C2502 C 0.94801 0.55101 0.57028 0.0
C2503 C 0.92954 0.57709 0.62787 0.0
C2504 C 0.90108 0.56507 0.6298 0.0
C2505 C 0.9411 0.60233 0.63828 0.0
C2506 C 0.97078 0.61659 0.63649 0.0
C2507 C 0.98099 0.62605 0.61217 0.0
C2508 C 1.00911 0.63927 0.61078 0.0
C2509 C 0.02712 0.64344 0.63358 0.0
C2510 C 1.017 0.63451 0.6578 0.0
C2511 C 0.98892 0.62121 0.65929 0.0
H2512 H 0.04889 0.65366 0.63247 0.0
H2513 H 0.7738 0.5317 0.64072 0.0
H2514 H 0.31339 0.76411 0.67745 0.0
H2515 H 0.34921 0.79374 0.65169 0.0
H2516 H 0.38981 0.83033 0.7199 0.0
H2517 H 0.35482 0.7993 0.74589 0.0
H2518 H 0.35573 0.84416 0.63863 0.0
H2519 H 0.44704 0.86625 0.71602 0.0
H2520 H 0.47592 0.84301 0.7523 0.0
H2521 H 0.46031 0.76945 0.71468 0.0
H2522 H 0.4303 0.79187 0.67879 0.0
H2523 H 0.49507 0.95853 0.62172 0.0
H2524 H 0.46413 0.92371 0.64862 0.0
H2525 H 0.42262 0.88785 0.58036 0.0
H2526 H 0.45308 0.92337 0.55314 0.0
H2527 H 0.45856 0.87188 0.66085 0.0
H2528 H 0.3548 0.85322 0.58907 0.0
H2529 H 0.32643 0.88047 0.55576 0.0
H2530 H 0.36634 0.95599 0.58694 0.0
H2531 H 0.39445 0.92915 0.62077 0.0
C2532 C 0.33064 0.77773 0.6871 0.0
C2533 C 0.33159 0.77895 0.71376 0.0
C2534 C 0.35107 0.79492 0.67232 0.0
C2535 C 0.3727 0.81448 0.68357 0.0
C2536 C 0.37418 0.81501 0.71057 0.0
C2537 C 0.35398 0.7973 0.72553 0.0
C2538 C 0.39104 0.83637 0.66644 0.0
C2539 C 0.37818 0.85024 0.64369 0.0
C2540 C 0.42044 0.84485 0.67265 0.0
C2541 C 0.43626 0.8305 0.69505 0.0
C2542 C 0.4495 0.84496 0.71576 0.0
C2543 C 0.46594 0.83192 0.73624 0.0
C2544 C 0.46981 0.80471 0.73584 0.0
C2545 C 0.45707 0.79043 0.71504 0.0
C2546 C 0.44002 0.80311 0.69484 0.0
C2547 C 0.47914 0.94348 0.61229 0.0
C2548 C 0.47661 0.94397 0.58513 0.0
C2549 C 0.46146 0.92336 0.62782 0.0
C2550 C 0.44073 0.90297 0.61675 0.0
C2551 C 0.43796 0.90354 0.58954 0.0
C2552 C 0.45551 0.92391 0.57392 0.0
C2553 C 0.42286 0.88068 0.63384 0.0
C2554 C 0.4359 0.86647 0.65627 0.0
C2555 C 0.39331 0.87283 0.628 0.0
C2556 C 0.37713 0.88921 0.60715 0.0
C2557 C 0.35757 0.87565 0.58878 0.0
C2558 C 0.34147 0.89102 0.56985 0.0
C2559 C 0.3447 0.91996 0.56914 0.0
C2560 C 0.36397 0.9336 0.5874 0.0
C2561 C 0.38003 0.91832 0.60643 0.0
H2562 H 0.33219 0.93181 0.55449 0.0
H2563 H 0.48272 0.7947 0.75161 0.0
H2564 H 0.25992 0.33664 0.71933 0.0
H2565 H 0.23594 0.37009 0.68888 0.0
H2566 H 0.15755 0.31033 0.69255 0.0
H2567 H 0.18229 0.27608 0.71848 0.0
H2568 H 0.15014 0.33206 0.65118 0.0
H2569 H 0.18676 0.3819 0.72539 0.0
H2570 H 0.22376 0.40389 0.75683 0.0
H2571 H 0.26418 0.45715 0.69398 0.0
H2572 H 0.22752 0.43532 0.66221 0.0
H2573 H 0.05564 0.4282 0.60933 0.0
H2574 H 0.08565 0.39963 0.63927 0.0
H2575 H 0.15826 0.44525 0.60231 0.0
H2576 H 0.12823 0.47331 0.57214 0.0
H2577 H 0.1701 0.43351 0.65752 0.0
H2578 H 0.12682 0.38322 0.58517 0.0
H2579 H 0.08635 0.36147 0.55679 0.0
H2580 H 0.05309 0.30822 0.62323 0.0
H2581 H 0.09324 0.32986 0.65201 0.0
C2582 C 0.2378 0.33045 0.71278 0.0
C2583 C 0.22342 0.30315 0.72091 0.0
C2584 C 0.22362 0.35003 0.69586 0.0
C2585 C 0.19415 0.34369 0.68823 0.0
C2586 C 0.18008 0.31648 0.6971 0.0
C2587 C 0.19443 0.29665 0.71247 0.0
C2588 C 0.17741 0.36437 0.67115 0.0
C2589 C 0.15447 0.35405 0.65343 0.0
C2590 C 0.18271 0.3937 0.67246 0.0
C2591 C 0.20464 0.40679 0.69148 0.0
C2592 C 0.20363 0.39822 0.71832 0.0
C2593 C 0.22451 0.41066 0.73618 0.0
C2594 C 0.24635 0.43184 0.72741 0.0
C2595 C 0.24729 0.44071 0.70075 0.0
C2596 C 0.22647 0.42833 0.68282 0.0
C2597 C 0.07816 0.43285 0.60827 0.0
C2598 C 0.08962 0.45373 0.58883 0.0
C2599 C 0.09532 0.41619 0.62517 0.0
C2600 C 0.12444 0.42004 0.62317 0.0
C2601 C 0.13604 0.44179 0.60453 0.0
C2602 C 0.11884 0.45807 0.58739 0.0
C2603 C 0.1425 0.40055 0.63929 0.0
C2604 C 0.16577 0.41126 0.65619 0.0
C2605 C 0.13689 0.3714 0.63808 0.0
C2606 C 0.11287 0.35833 0.62074 0.0
C2607 C 0.11077 0.36701 0.59372 0.0
C2608 C 0.08791 0.35467 0.57757 0.0
C2609 C 0.06712 0.33353 0.5882 0.0
C2610 C 0.06919 0.32462 0.61501 0.0
C2611 C 0.092 0.33688 0.63125 0.0
H2612 H 0.04944 0.32402 0.57566 0.0
H2613 H 0.26251 0.44142 0.74126 0.0
H2614 H 0.72041 0.26856 0.66968 0.0
H2615 H 0.69204 0.24833 0.63268 0.0
H2616 H 0.70936 0.1669 0.66633 0.0
H2617 H 0.73625 0.18646 0.70409 0.0
H2618 H 0.71573 0.18995 0.60687 0.0
H2619 H 0.65339 0.17137 0.67703 0.0
H2620 H 0.6313 0.18899 0.70883 0.0
H2621 H 0.59395 0.24334 0.64714 0.0
H2622 H 0.61627 0.22635 0.61504 0.0
H2623 H 0.62784 0.07389 0.56544 0.0
H2624 H 0.65814 0.1124 0.58442 0.0
H2625 H 0.59536 0.16397 0.55812 0.0
H2626 H 0.56384 0.1243 0.54 0.0
H2627 H 0.61171 0.16803 0.60587 0.0
H2628 H 0.66282 0.17885 0.53442 0.0
H2629 H 0.68632 0.16605 0.5008 0.0
H2630 H 0.74587 0.13301 0.55973 0.0
H2631 H 0.72261 0.1453 0.59382 0.0
C2632 C 0.71781 0.24629 0.66948 0.0
C2633 C 0.72994 0.22905 0.69027 0.0
C2634 C 0.70192 0.23488 0.64814 0.0
C2635 C 0.69868 0.2062 0.64694 0.0
C2636 C 0.71174 0.18913 0.66701 0.0
C2637 C 0.72701 0.20037 0.68862 0.0
C2638 C 0.68045 0.19344 0.62549 0.0
C2639 C 0.69298 0.18506 0.60647 0.0
C2640 C 0.65083 0.18843 0.6245 0.0
C2641 C 0.63673 0.19786 0.64371 0.0
C2642 C 0.64064 0.18723 0.67029 0.0
C2643 C 0.62806 0.19708 0.68836 0.0
C2644 C 0.61131 0.21734 0.68002 0.0
C2645 C 0.60698 0.22769 0.65358 0.0
C2646 C 0.61957 0.21795 0.63545 0.0
C2647 C 0.62057 0.09356 0.56318 0.0
C2648 C 0.59334 0.09597 0.55134 0.0
C2649 C 0.63816 0.11581 0.57384 0.0
C2650 C 0.62937 0.1414 0.57243 0.0
C2651 C 0.60272 0.14448 0.55933 0.0
C2652 C 0.58482 0.12192 0.54877 0.0
C2653 C 0.64691 0.16321 0.5874 0.0
C2654 C 0.63436 0.17339 0.60546 0.0
C2655 C 0.67658 0.17041 0.58708 0.0
C2656 C 0.69085 0.16297 0.56672 0.0
C2657 C 0.68084 0.16872 0.54026 0.0
C2658 C 0.69416 0.1616 0.52111 0.0
C2659 C 0.71761 0.14878 0.52815 0.0
C2660 C 0.72779 0.14306 0.55435 0.0
C2661 C 0.71457 0.15016 0.57359 0.0
H2662 H 0.72789 0.14327 0.51329 0.0
H2663 H 0.60162 0.22497 0.69404 0.0
H2664 H 0.857 0.28671 0.32668 0.0
H2665 H 0.88343 0.31407 0.35971 0.0
H2666 H 0.80617 0.33145 0.37845 0.0
H2667 H 0.77964 0.304 0.34505 0.0
H2668 H 0.84467 0.37883 0.37227 0.0
H2669 H 0.84285 0.28708 0.41976 0.0
H2670 H 0.84818 0.23771 0.4253 0.0
H2671 H 0.93635 0.26384 0.41691 0.0
H2672 H 0.93146 0.31337 0.4108 0.0
H2673 H 0.92834 0.45186 0.47431 0.0
H2674 H 0.89137 0.41982 0.451 0.0
H2675 H 0.95537 0.38711 0.42335 0.0
H2676 H 0.99174 0.41796 0.44696 0.0
H2677 H 0.91691 0.34551 0.43969 0.0
H2678 H 0.9171 0.43581 0.38503 0.0
H2679 H 0.9125 0.4855 0.37762 0.0
H2680 H 0.82808 0.462 0.39873 0.0
H2681 H 0.83237 0.41219 0.40662 0.0
C2682 C 0.84554 0.29631 0.33766 0.0
C2683 C 0.81634 0.29471 0.33213 0.0
C2684 C 0.86071 0.31183 0.35681 0.0
C2685 C 0.84683 0.32518 0.37137 0.0
C2686 C 0.81742 0.32189 0.36709 0.0
C2687 C 0.80233 0.30652 0.34784 0.0
C2688 C 0.8632 0.34331 0.39038 0.0
C2689 C 0.86009 0.3714 0.38736 0.0
C2690 C 0.88347 0.33372 0.40992 0.0
C2691 C 0.88676 0.30396 0.41476 0.0
C2692 C 0.86337 0.2823 0.41906 0.0
C2693 C 0.8663 0.25428 0.42226 0.0
C2694 C 0.89258 0.24764 0.42144 0.0
C2695 C 0.91601 0.26901 0.41755 0.0
C2696 C 0.91318 0.29707 0.41426 0.0
C2697 C 0.93431 0.43792 0.46307 0.0
C2698 C 0.96281 0.43721 0.46258 0.0
C2699 C 0.91327 0.4196 0.44982 0.0
C2700 C 0.92059 0.40091 0.43547 0.0
C2701 C 0.94911 0.40094 0.43454 0.0
C2702 C 0.96991 0.41873 0.44798 0.0
C2703 C 0.89908 0.38129 0.421 0.0
C2704 C 0.90115 0.35283 0.42492 0.0
C2705 C 0.87799 0.39057 0.40221 0.0
C2706 C 0.87514 0.42037 0.39664 0.0
C2707 C 0.8976 0.44128 0.38816 0.0
C2708 C 0.89506 0.46945 0.38389 0.0
C2709 C 0.87004 0.47692 0.38777 0.0
C2710 C 0.84746 0.4562 0.39578 0.0
C2711 C 0.84992 0.428 0.40013 0.0
H2712 H 0.86814 0.49874 0.38453 0.0
H2713 H 0.89478 0.22594 0.42383 0.0
H2714 H 0.65436 0.825 0.34276 0.0
H2715 H 0.63244 0.85848 0.35866 0.0
H2716 H 0.68449 0.84882 0.43205 0.0
H2717 H 0.70572 0.81489 0.41646 0.0
H2718 H 0.63423 0.84614 0.442 0.0
H2719 H 0.69403 0.9111 0.38521 0.0
H2720 H 0.71431 0.93078 0.34408 0.0
H2721 H 0.6322 0.93945 0.30591 0.0
H2722 H 0.61142 0.91994 0.34688 0.0
H2723 H 0.59667 0.95638 0.49334 0.0
H2724 H 0.62451 0.92948 0.47553 0.0
H2725 H 0.56843 0.93151 0.40418 0.0
H2726 H 0.54111 0.95888 0.42139 0.0
H2727 H 0.62158 0.93896 0.3937 0.0
H2728 H 0.56254 0.87312 0.45224 0.0
H2729 H 0.5444 0.85699 0.49487 0.0
H2730 H 0.6281 0.85208 0.53111 0.0
H2731 H 0.64676 0.86842 0.4887 0.0
C2732 C 0.66142 0.83041 0.36211 0.0
C2733 C 0.68165 0.81715 0.3784 0.0
C2734 C 0.64889 0.84959 0.37124 0.0
C2735 C 0.65676 0.85638 0.39666 0.0
C2736 C 0.67775 0.84387 0.4125 0.0
C2737 C 0.68998 0.82451 0.40352 0.0
C2738 C 0.64248 0.8755 0.40727 0.0
C2739 C 0.63188 0.86659 0.43151 0.0
C2740 C 0.6388 0.90208 0.39363 0.0
C2741 C 0.65116 0.91382 0.36901 0.0
C2742 C 0.68029 0.91705 0.36799 0.0
C2743 C 0.69187 0.92818 0.34473 0.0
C2744 C 0.67453 0.93615 0.32234 0.0
C2745 C 0.64559 0.9332 0.32324 0.0
C2746 C 0.63391 0.9222 0.3465 0.0
C2747 C 0.59048 0.95144 0.47374 0.0
C2748 C 0.56655 0.95983 0.4589 0.0
C2749 C 0.60632 0.93587 0.46362 0.0
C2750 C 0.59837 0.92807 0.4386 0.0
C2751 C 0.57506 0.93721 0.4235 0.0
C2752 C 0.55937 0.95286 0.43348 0.0
C2753 C 0.61357 0.90959 0.42833 0.0
C2754 C 0.62412 0.91854 0.40415 0.0
C2755 C 0.61744 0.88317 0.44212 0.0
C2756 C 0.60605 0.87211 0.46735 0.0
C2757 C 0.57706 0.86858 0.46931 0.0
C2758 C 0.56669 0.85943 0.49343 0.0
C2759 C 0.58509 0.85356 0.51569 0.0
C2760 C 0.61387 0.85663 0.51384 0.0
C2761 C 0.62435 0.86577 0.48977 0.0
H2762 H 0.57706 0.84661 0.53437 0.0
H2763 H 0.68355 0.94472 0.30434 0.0
H2764 H 0.18188 0.703 0.27655 0.0
H2765 H 0.15688 0.67274 0.31108 0.0
H2766 H 0.22828 0.69514 0.36719 0.0
H2767 H 0.2532 0.72615 0.3324 0.0
H2768 H 0.16297 0.62803 0.34441 0.0
H2769 H 0.20287 0.69696 0.42575 0.0
H2770 H 0.22322 0.74624 0.43069 0.0
H2771 H 0.18269 0.77332 0.35538 0.0
H2772 H 0.16141 0.72428 0.35031 0.0
H2773 H 0.10419 0.55384 0.45775 0.0
H2774 H 0.13866 0.58162 0.42949 0.0
H2775 H 0.09323 0.64976 0.41661 0.0
H2776 H 0.0593 0.62253 0.44568 0.0
H2777 H 0.14777 0.67075 0.41923 0.0
H2778 H 0.08538 0.60253 0.36995 0.0
H2779 H 0.06128 0.55354 0.36784 0.0
H2780 H 0.14129 0.52778 0.37741 0.0
H2781 H 0.16578 0.5766 0.37919 0.0
C2782 C 0.19244 0.70112 0.2962 0.0
C2783 C 0.21967 0.7166 0.30166 0.0
C2784 C 0.17813 0.68373 0.31598 0.0
C2785 C 0.19042 0.68166 0.34195 0.0
C2786 C 0.21809 0.69651 0.34741 0.0
C2787 C 0.2325 0.71401 0.32749 0.0
C2788 C 0.17334 0.66524 0.36306 0.0
C2789 C 0.1599 0.63743 0.36082 0.0
C2790 C 0.16874 0.6773 0.38448 0.0
C2791 C 0.1809 0.70692 0.38751 0.0
C2792 C 0.19823 0.71344 0.41029 0.0
C2793 C 0.20993 0.74133 0.41311 0.0
C2794 C 0.20447 0.76287 0.39327 0.0
C2795 C 0.18703 0.7566 0.37067 0.0
C2796 C 0.17511 0.72877 0.36784 0.0
C2797 C 0.10162 0.57484 0.44913 0.0
C2798 C 0.07872 0.58577 0.45399 0.0
C2799 C 0.12135 0.59072 0.43279 0.0
C2800 C 0.11842 0.61774 0.42032 0.0
C2801 C 0.0961 0.62903 0.42583 0.0
C2802 C 0.07657 0.61331 0.44246 0.0
C2803 C 0.13761 0.63362 0.40058 0.0
C2804 C 0.15122 0.66132 0.40298 0.0
C2805 C 0.14196 0.62173 0.37901 0.0
C2806 C 0.12736 0.5931 0.37479 0.0
C2807 C 0.09778 0.58641 0.37124 0.0
C2808 C 0.08406 0.55869 0.37014 0.0
C2809 C 0.09972 0.53752 0.37254 0.0
C2810 C 0.12915 0.54415 0.37541 0.0
C2811 C 0.14297 0.57187 0.37631 0.0
H2812 H 0.08904 0.51599 0.37229 0.0
H2813 H 0.21362 0.78444 0.39546 0.0
H2814 H 0.28947 0.17209 0.31516 0.0
H2815 H 0.32196 0.14856 0.34512 0.0
H2816 H 0.38732 0.22202 0.33468 0.0
H2817 H 0.35505 0.24449 0.301 0.0
H2818 H 0.41281 0.18296 0.34248 0.0
H2819 H 0.34556 0.19438 0.39584 0.0
H2820 H 0.29843 0.19272 0.40874 0.0
H2821 H 0.27906 0.10355 0.40958 0.0
H2822 H 0.32588 0.10479 0.39634 0.0
H2823 H 0.49281 0.11528 0.45423 0.0
H2824 H 0.46559 0.14786 0.42602 0.0
H2825 H 0.39809 0.07859 0.41144 0.0
H2826 H 0.42467 0.0464 0.43953 0.0
H2827 H 0.37696 0.12076 0.41991 0.0
H2828 H 0.44746 0.11199 0.36643 0.0
H2829 H 0.49646 0.11624 0.35723 0.0
H2830 H 0.51226 0.20432 0.36216 0.0
H2831 H 0.46346 0.20051 0.37174 0.0
C2832 C 0.31068 0.18361 0.31929 0.0
C2833 C 0.31908 0.21078 0.30608 0.0
C2834 C 0.3294 0.17008 0.33707 0.0
C2835 C 0.3572 0.18358 0.34386 0.0
C2836 C 0.36598 0.21089 0.33053 0.0
C2837 C 0.34733 0.2241 0.3115 0.0
C2838 C 0.37671 0.16841 0.36395 0.0
C2839 C 0.40491 0.16987 0.35963 0.0
C2840 C 0.36711 0.15075 0.38665 0.0
C2841 C 0.33904 0.1498 0.39482 0.0
C2842 C 0.3311 0.1745 0.39857 0.0
C2843 C 0.30449 0.17361 0.40597 0.0
C2844 C 0.28573 0.14807 0.40986 0.0
C2845 C 0.29359 0.12333 0.4065 0.0
C2846 C 0.32017 0.12411 0.39909 0.0
C2847 C 0.47199 0.10706 0.44533 0.0
C2848 C 0.46107 0.07804 0.44944 0.0
C2849 C 0.45652 0.12572 0.42886 0.0
C2850 C 0.42969 0.11586 0.41608 0.0
C2851 C 0.41862 0.08701 0.4208 0.0
C2852 C 0.434 0.06849 0.43702 0.0
C2853 C 0.41258 0.13508 0.39816 0.0
C2854 C 0.38481 0.13419 0.40288 0.0
C2855 C 0.42283 0.15362 0.37634 0.0
C2856 C 0.45191 0.15592 0.37002 0.0
C2857 C 0.46144 0.13223 0.36567 0.0
C2858 C 0.48917 0.13456 0.36038 0.0
C2859 C 0.50749 0.16052 0.35917 0.0
C2860 C 0.49807 0.18422 0.36313 0.0
C2861 C 0.47038 0.182 0.36847 0.0
H2862 H 0.52896 0.16227 0.35513 0.0
H2863 H 0.26513 0.14743 0.41556 0.0
H2864 H 0.76459 0.82817 0.6964 0.0
H2865 H 0.73315 0.85006 0.66279 0.0
H2866 H 0.6619 0.80529 0.70257 0.0
H2867 H 0.69348 0.77999 0.73391 0.0
H2868 H 0.64064 0.81456 0.65913 0.0
H2869 H 0.7038 0.88348 0.70554 0.0
H2870 H 0.74985 0.90926 0.72264 0.0
H2871 H 0.77278 0.93478 0.64493 0.0
H2872 H 0.72696 0.90901 0.62741 0.0
H2873 H 0.60599 0.9651 0.6082 0.0
H2874 H 0.63359 0.93365 0.63476 0.0
H2875 H 0.60287 0.87225 0.58254 0.0
H2876 H 0.57335 0.90379 0.55605 0.0
H2877 H 0.67451 0.91567 0.63125 0.0
H2878 H 0.61086 0.80679 0.6122 0.0
H2879 H 0.56147 0.78378 0.60185 0.0
H2880 H 0.53302 0.84383 0.63731 0.0
H2881 H 0.58222 0.86699 0.64808 0.0
C2882 C 0.74208 0.82224 0.6974 0.0
C2883 C 0.73157 0.80165 0.71741 0.0
C2884 C 0.72395 0.8355 0.67849 0.0
C2885 C 0.69477 0.83097 0.68041 0.0
C2886 C 0.68412 0.80976 0.70022 0.0
C2887 C 0.70223 0.79507 0.71825 0.0
C2888 C 0.67589 0.84889 0.66254 0.0
C2889 C 0.64824 0.83669 0.65324 0.0
C2890 C 0.68479 0.87818 0.65471 0.0
C2891 C 0.7121 0.8941 0.66521 0.0
C2892 C 0.71871 0.89455 0.69214 0.0
C2893 C 0.74476 0.90915 0.70189 0.0
C2894 C 0.76425 0.92357 0.68489 0.0
C2895 C 0.75768 0.92358 0.65808 0.0
C2896 C 0.73166 0.90902 0.64822 0.0
C2897 C 0.60479 0.94495 0.60203 0.0
C2898 C 0.58717 0.93735 0.57955 0.0
C2899 C 0.62096 0.92676 0.61749 0.0
C2900 C 0.62073 0.90013 0.61114 0.0
C2901 C 0.60334 0.89233 0.58851 0.0
C2902 C 0.58653 0.91056 0.57309 0.0
C2903 C 0.63922 0.88148 0.62825 0.0
C2904 C 0.66688 0.89356 0.63729 0.0
C2905 C 0.62975 0.8526 0.63693 0.0
C2906 C 0.60017 0.83875 0.63067 0.0
C2907 C 0.59404 0.81501 0.61783 0.0
C2908 C 0.5661 0.80197 0.61188 0.0
C2909 C 0.54412 0.81239 0.61884 0.0
C2910 C 0.55005 0.83584 0.63184 0.0
C2911 C 0.57795 0.84895 0.63784 0.0
H2912 H 0.5225 0.80226 0.61422 0.0
H2913 H 0.78444 0.93479 0.69248 0.0
H2914 H 0.69443 0.20822 0.28281 0.0
H2915 H 0.65903 0.17876 0.30971 0.0
H2916 H 0.70244 0.21534 0.37684 0.0
H2917 H 0.73715 0.2453 0.34989 0.0
H2918 H 0.67723 0.14004 0.35556 0.0
H2919 H 0.66843 0.22307 0.40175 0.0
H2920 H 0.65579 0.26893 0.40198 0.0
H2921 H 0.58327 0.24812 0.34714 0.0
H2922 H 0.59619 0.20254 0.34596 0.0
H2923 H 0.60742 0.06749 0.46991 0.0
H2924 H 0.63935 0.10199 0.44264 0.0
H2925 H 0.56909 0.11495 0.38534 0.0
H2926 H 0.53745 0.08031 0.41184 0.0
H2927 H 0.60623 0.16576 0.40114 0.0
H2928 H 0.60803 0.07763 0.37213 0.0
H2929 H 0.6167 0.0293 0.37872 0.0
H2930 H 0.70345 0.05857 0.40544 0.0
H2931 H 0.69516 0.10702 0.39947 0.0
C2932 C 0.69549 0.21101 0.303 0.0
C2933 C 0.71792 0.22987 0.31405 0.0
C2934 C 0.67547 0.1939 0.31847 0.0
C2935 C 0.67753 0.19523 0.34529 0.0
C2936 C 0.69958 0.21459 0.35613 0.0
C2937 C 0.71952 0.23168 0.34069 0.0
C2938 C 0.65908 0.17404 0.36245 0.0
C2939 C 0.66215 0.14587 0.36589 0.0
C2940 C 0.6388 0.18111 0.37565 0.0
C2941 C 0.63374 0.20991 0.37315 0.0
C2942 C 0.65035 0.22871 0.3891 0.0
C2943 C 0.64295 0.25449 0.38965 0.0
C2944 C 0.61863 0.26137 0.37474 0.0
C2945 C 0.60204 0.24275 0.35876 0.0
C2946 C 0.60958 0.21711 0.3579 0.0
C2947 C 0.59886 0.07761 0.45144 0.0
C2948 C 0.5699 0.07087 0.44298 0.0
C2949 C 0.61711 0.09727 0.43588 0.0
C2950 C 0.60661 0.11096 0.41187 0.0
C2951 C 0.5777 0.10461 0.4037 0.0
C2952 C 0.55965 0.08464 0.41888 0.0
C2953 C 0.62541 0.13216 0.39515 0.0
C2954 C 0.622 0.16014 0.39141 0.0
C2955 C 0.64594 0.12498 0.38234 0.0
C2956 C 0.65088 0.09588 0.38569 0.0
C2957 C 0.62888 0.07372 0.37969 0.0
C2958 C 0.63374 0.04631 0.38325 0.0
C2959 C 0.66058 0.04085 0.39258 0.0
C2960 C 0.68265 0.06281 0.39828 0.0
C2961 C 0.67788 0.09024 0.39481 0.0
H2962 H 0.66431 0.01961 0.39531 0.0
H2963 H 0.6128 0.28123 0.37535 0.0
H2964 H 0.85756 0.74323 0.31996 0.0
H2965 H 0.88277 0.70865 0.34613 0.0
H2966 H 0.81427 0.64246 0.32584 0.0
H2967 H 0.78861 0.67765 0.2992 0.0
H2968 H 0.83776 0.63034 0.37691 0.0
H2969 H 0.87451 0.6571 0.29475 0.0
H2970 H 0.894 0.68962 0.25779 0.0
H2971 H 0.96457 0.72401 0.30905 0.0
H2972 H 0.94532 0.6919 0.34637 0.0
H2973 H 0.92755 0.53058 0.42817 0.0
H2974 H 0.89557 0.55739 0.39873 0.0
H2975 H 0.95902 0.63255 0.40158 0.0
H2976 H 0.99098 0.60558 0.42993 0.0
H2977 H 0.93494 0.63628 0.35606 0.0
H2978 H 0.89644 0.61228 0.43876 0.0
H2979 H 0.87681 0.58018 0.47593 0.0
H2980 H 0.80998 0.54076 0.42403 0.0
H2981 H 0.82937 0.57249 0.38655 0.0
C2982 C 0.84748 0.72134 0.32139 0.0
C2983 C 0.82088 0.71341 0.30751 0.0
C2984 C 0.86214 0.70143 0.33627 0.0
C2985 C 0.85103 0.67261 0.33767 0.0
C2986 C 0.82365 0.66447 0.32502 0.0
C2987 C 0.8088 0.68464 0.3099 0.0
C2988 C 0.86881 0.65158 0.35147 0.0
C2989 C 0.85882 0.63136 0.37201 0.0
C2990 C 0.89668 0.65288 0.34572 0.0
C2991 C 0.90834 0.67226 0.32337 0.0
C2992 C 0.89408 0.67174 0.29816 0.0
C2993 C 0.90511 0.69007 0.27714 0.0
C2994 C 0.93048 0.70891 0.28108 0.0
C2995 C 0.94491 0.70942 0.30603 0.0
C2996 C 0.93397 0.69114 0.32712 0.0
C2997 C 0.93496 0.55261 0.42168 0.0
C2998 C 0.96222 0.56571 0.43078 0.0
C2999 C 0.91639 0.5682 0.40525 0.0
C3000 C 0.92431 0.59748 0.39801 0.0
C3001 C 0.95197 0.61018 0.40652 0.0
C3002 C 0.97048 0.59462 0.42266 0.0
C3003 C 0.90422 0.61522 0.38197 0.0
C3004 C 0.91383 0.63501 0.36096 0.0
C3005 C 0.8761 0.61353 0.38739 0.0
C3006 C 0.86451 0.59451 0.40988 0.0
C3007 C 0.87766 0.59664 0.43529 0.0
C3008 C 0.86656 0.57854 0.4564 0.0
C3009 C 0.84221 0.55838 0.45234 0.0
C3010 C 0.82886 0.55635 0.42715 0.0
C3011 C 0.83987 0.57439 0.40598 0.0
H3012 H 0.83366 0.54439 0.4687 0.0
H3013 H 0.93898 0.72308 0.26478 0.0
H3014 H 0.32323 0.75575 0.35 0.0
H3015 H 0.35448 0.7762 0.3852 0.0
H3016 H 0.35101 0.85905 0.34389 0.0
H3017 H 0.32144 0.83863 0.30772 0.0
H3018 H 0.40257 0.85737 0.36355 0.0
H3019 H 0.31161 0.82704 0.39685 0.0
H3020 H 0.26954 0.792 0.40829 0.0
H3021 H 0.32167 0.74279 0.4614 0.0
H3022 H 0.36407 0.77736 0.45003 0.0
H3023 H 0.41876 0.9356 0.4704 0.0
H3024 H 0.38989 0.89877 0.44714 0.0
H3025 H 0.46095 0.85778 0.45411 0.0
H3026 H 0.49018 0.89484 0.47747 0.0
H3027 H 0.37874 0.83388 0.45459 0.0
H3028 H 0.46923 0.86046 0.40351 0.0
H3029 H 0.50967 0.89868 0.39395 0.0
H3030 H 0.4545 0.95833 0.37725 0.0
H3031 H 0.41389 0.92042 0.38701 0.0
C3032 C 0.32954 0.77829 0.34816 0.0
C3033 C 0.3203 0.7955 0.32579 0.0
C3034 C 0.3471 0.79 0.36852 0.0
C3035 C 0.35496 0.8192 0.36734 0.0
C3036 C 0.34536 0.83645 0.3452 0.0
C3037 C 0.32825 0.82473 0.32461 0.0
C3038 C 0.37314 0.83194 0.3891 0.0
C3039 C 0.39736 0.8519 0.38343 0.0
C3040 C 0.36658 0.82498 0.41519 0.0
C3041 C 0.341 0.80465 0.42245 0.0
C3042 C 0.31409 0.80869 0.4109 0.0
C3043 C 0.29019 0.78891 0.41736 0.0
C3044 C 0.29295 0.76515 0.43551 0.0
C3045 C 0.31958 0.76119 0.44733 0.0
C3046 C 0.34354 0.78087 0.44091 0.0
C3047 C 0.42795 0.91817 0.46783 0.0
C3048 C 0.45667 0.91805 0.4756 0.0
C3049 C 0.41142 0.89713 0.45463 0.0
C3050 C 0.42339 0.87575 0.44884 0.0
C3051 C 0.45142 0.87417 0.45852 0.0
C3052 C 0.46801 0.89521 0.47197 0.0
C3053 C 0.40801 0.85867 0.42887 0.0
C3054 C 0.38419 0.83842 0.43478 0.0
C3055 C 0.41472 0.86532 0.403 0.0
C3056 C 0.43869 0.88774 0.3958 0.0
C3057 C 0.4658 0.88173 0.3976 0.0
C3058 C 0.48872 0.90331 0.39227 0.0
C3059 C 0.48464 0.93091 0.38493 0.0
C3060 C 0.45763 0.93696 0.38289 0.0
C3061 C 0.43468 0.91545 0.38832 0.0
H3062 H 0.5024 0.94759 0.38086 0.0
H3063 H 0.27448 0.74981 0.44047 0.0
H3064 H 0.24811 0.38877 0.38572 0.0
H3065 H 0.21145 0.40614 0.40082 0.0
H3066 H 0.15197 0.37474 0.33856 0.0
H3067 H 0.18966 0.35989 0.32144 0.0
H3068 H 0.14194 0.42155 0.34298 0.0
H3069 H 0.15212 0.34289 0.40609 0.0
H3070 H 0.17606 0.3104 0.43811 0.0
H3071 H 0.20872 0.37576 0.48526 0.0
H3072 H 0.1853 0.40875 0.45335 0.0
H3073 H 0.03614 0.45024 0.41746 0.0
H3074 H 0.06296 0.42994 0.39173 0.0
H3075 H 0.14048 0.4675 0.43336 0.0
H3076 H 0.1137 0.48684 0.45953 0.0
H3077 H 0.13322 0.41023 0.43738 0.0
H3078 H 0.13669 0.48788 0.35527 0.0
H3079 H 0.11 0.51684 0.32172 0.0
H3080 H 0.04436 0.44505 0.31222 0.0
H3081 H 0.07087 0.41586 0.34561 0.0
C3082 C 0.22742 0.38586 0.37483 0.0
C3083 C 0.22218 0.37315 0.35206 0.0
C3084 C 0.20615 0.39531 0.38393 0.0
C3085 C 0.1786 0.39122 0.37129 0.0
C3086 C 0.17299 0.37803 0.34881 0.0
C3087 C 0.19456 0.36921 0.33922 0.0
C3088 C 0.15627 0.40195 0.38111 0.0
C3089 C 0.13977 0.41853 0.36361 0.0
C3090 C 0.15291 0.39805 0.40797 0.0
C3091 C 0.16705 0.37831 0.42726 0.0
C3092 C 0.16454 0.35037 0.42322 0.0
C3093 C 0.17801 0.33186 0.44135 0.0
C3094 C 0.19392 0.34101 0.46369 0.0
C3095 C 0.19638 0.36869 0.46795 0.0
C3096 C 0.18297 0.38729 0.44987 0.0
C3097 C 0.05895 0.45508 0.42024 0.0
C3098 C 0.07299 0.47024 0.44023 0.0
C3099 C 0.07428 0.44348 0.40555 0.0
C3100 C 0.1038 0.44729 0.4105 0.0
C3101 C 0.11776 0.46429 0.42916 0.0
C3102 C 0.10251 0.47549 0.44399 0.0
C3103 C 0.12008 0.43063 0.3994 0.0
C3104 C 0.1353 0.41281 0.41675 0.0
C3105 C 0.12151 0.43255 0.37247 0.0
C3106 C 0.10533 0.45006 0.35316 0.0
C3107 C 0.1164 0.47852 0.34617 0.0
C3108 C 0.10142 0.49486 0.3271 0.0
C3109 C 0.07538 0.48285 0.315 0.0
C3110 C 0.06441 0.45439 0.32174 0.0
C3111 C 0.07942 0.43795 0.34067 0.0
H3112 H 0.06378 0.49555 0.3003 0.0
H3113 H 0.20433 0.32665 0.47771 0.0
H3114 H 0.3335 0.17829 0.6388 0.0
H3115 H 0.3532 0.14508 0.62015 0.0
H3116 H 0.43612 0.17841 0.65554 0.0
H3117 H 0.41654 0.21254 0.67272 0.0
H3118 H 0.44146 0.17421 0.60998 0.0
H3119 H 0.39364 0.11026 0.67588 0.0
H3120 H 0.35319 0.08724 0.69996 0.0
H3121 H 0.30881 0.0558 0.63099 0.0
H3122 H 0.34882 0.07906 0.60636 0.0
H3123 H 0.5129 0.06673 0.60151 0.0
H3124 H 0.48545 0.09381 0.61883 0.0
H3125 H 0.41873 0.07843 0.55681 0.0
H3126 H 0.4465 0.05126 0.53878 0.0
H3127 H 0.40272 0.07255 0.61243 0.0
H3128 H 0.45505 0.13676 0.54811 0.0
H3129 H 0.49855 0.15769 0.52775 0.0
H3130 H 0.53803 0.18639 0.59942 0.0
H3131 H 0.49489 0.16519 0.62036 0.0
C3132 C 0.35583 0.17804 0.64293 0.0
C3133 C 0.37354 0.19776 0.6573 0.0
C3134 C 0.36713 0.15903 0.63231 0.0
C3135 C 0.39627 0.15893 0.63646 0.0
C3136 C 0.41366 0.17801 0.6518 0.0
C3137 C 0.40246 0.19735 0.66188 0.0
C3138 C 0.40906 0.14016 0.62387 0.0
C3139 C 0.433 0.15195 0.61085 0.0
C3140 C 0.39796 0.11108 0.62433 0.0
C3141 C 0.37409 0.09669 0.6392 0.0
C3142 C 0.37518 0.0986 0.6658 0.0
C3143 C 0.35233 0.08551 0.67955 0.0
C3144 C 0.3284 0.07016 0.66699 0.0
C3145 C 0.32733 0.06776 0.64068 0.0
C3146 C 0.35009 0.08089 0.62681 0.0
C3147 C 0.49227 0.06871 0.59154 0.0
C3148 C 0.48195 0.05671 0.56865 0.0
C3149 C 0.47661 0.0843 0.60154 0.0
C3150 C 0.45011 0.08817 0.58911 0.0
C3151 C 0.43916 0.07559 0.56672 0.0
C3152 C 0.45507 0.06018 0.5564 0.0
C3153 C 0.43493 0.10673 0.59902 0.0
C3154 C 0.41077 0.09489 0.61152 0.0
C3155 C 0.44613 0.13564 0.59863 0.0
C3156 C 0.47179 0.14919 0.58585 0.0
C3157 C 0.47306 0.14739 0.55958 0.0
C3158 C 0.49765 0.15931 0.54793 0.0
C3159 C 0.52106 0.1733 0.5623 0.0
C3160 C 0.51988 0.17553 0.58832 0.0
C3161 C 0.49534 0.16358 0.60008 0.0
H3162 H 0.5401 0.18246 0.55327 0.0
H3163 H 0.31072 0.06008 0.67765 0.0
H3164 H 0.79638 0.29499 0.68777 0.0
H3165 H 0.82309 0.32419 0.65323 0.0
H3166 H 0.89364 0.34545 0.71049 0.0
H3167 H 0.8674 0.31591 0.7446 0.0
H3168 H 0.84844 0.37728 0.64029 0.0
H3169 H 0.95448 0.34731 0.68858 0.0
H3170 H 0.97129 0.30786 0.71752 0.0
H3171 H 0.89671 0.2514 0.69195 0.0
H3172 H 0.87969 0.29044 0.66258 0.0
H3173 H 0.96044 0.46827 0.57802 0.0
H3174 H 0.92774 0.44084 0.60799 0.0
H3175 H 0.9451 0.36451 0.58941 0.0
H3176 H 0.97894 0.39198 0.56032 0.0
H3177 H 0.94319 0.35706 0.63726 0.0
H3178 H 0.87987 0.39125 0.56755 0.0
H3179 H 0.86028 0.42661 0.53519 0.0
H3180 H 0.84471 0.46725 0.59658 0.0
H3181 H 0.86454 0.43232 0.6293 0.0
C3182 C 0.81738 0.30636 0.69295 0.0
C3183 C 0.82978 0.3033 0.71892 0.0
C3184 C 0.83271 0.323 0.6732 0.0
C3185 C 0.86075 0.33665 0.67904 0.0
C3186 C 0.87239 0.3347 0.70522 0.0
C3187 C 0.85729 0.31794 0.72479 0.0
C3188 C 0.87858 0.35163 0.65797 0.0
C3189 C 0.86915 0.37285 0.63962 0.0
C3190 C 0.90537 0.34552 0.65641 0.0
C3191 C 0.91574 0.32183 0.67358 0.0
C3192 C 0.94177 0.32645 0.68904 0.0
C3193 C 0.95131 0.30417 0.70553 0.0
C3194 C 0.93504 0.27716 0.70663 0.0
C3195 C 0.90926 0.27234 0.69114 0.0
C3196 C 0.89965 0.29454 0.67458 0.0
C3197 C 0.95715 0.44562 0.58008 0.0
C3198 C 0.97235 0.43241 0.56651 0.0
C3199 C 0.9382 0.42985 0.59723 0.0
C3200 C 0.93327 0.40035 0.60088 0.0
C3201 C 0.94829 0.38716 0.58714 0.0
C3202 C 0.96764 0.40293 0.57032 0.0
C3203 C 0.91343 0.38331 0.6197 0.0
C3204 C 0.92249 0.3616 0.63773 0.0
C3205 C 0.88599 0.38846 0.6204 0.0
C3206 C 0.8739 0.40934 0.60083 0.0
C3207 C 0.87242 0.40784 0.57413 0.0
C3208 C 0.86126 0.42778 0.55573 0.0
C3209 C 0.85131 0.4492 0.56382 0.0
C3210 C 0.85244 0.45067 0.59034 0.0
C3211 C 0.86361 0.43079 0.60882 0.0
H3212 H 0.84269 0.46463 0.54954 0.0
H3213 H 0.94245 0.25995 0.71945 0.0
H3214 H 0.22479 0.74136 0.67864 0.0
H3215 H 0.19559 0.71469 0.6456 0.0
H3216 H 0.19544 0.63816 0.69913 0.0
H3217 H 0.22323 0.66449 0.7325 0.0
H3218 H 0.21201 0.65667 0.63126 0.0
H3219 H 0.14307 0.6267 0.70063 0.0
H3220 H 0.12004 0.64181 0.73337 0.0
H3221 H 0.09432 0.70766 0.67635 0.0
H3222 H 0.1177 0.69313 0.64344 0.0
H3223 H 0.11076 0.54674 0.57305 0.0
H3224 H 0.14413 0.57402 0.60338 0.0
H3225 H 0.10343 0.64492 0.57706 0.0
H3226 H 0.07086 0.61861 0.54666 0.0
H3227 H 0.10824 0.62961 0.63131 0.0
H3228 H 0.16362 0.64993 0.55955 0.0
H3229 H 0.18771 0.63856 0.52558 0.0
H3230 H 0.24057 0.59564 0.58416 0.0
H3231 H 0.21644 0.60639 0.61849 0.0
C3232 C 0.21818 0.71892 0.68346 0.0
C3233 C 0.22651 0.70501 0.7081 0.0
C3234 C 0.20178 0.70373 0.66454 0.0
C3235 C 0.19361 0.67454 0.67003 0.0
C3236 C 0.20159 0.6607 0.69462 0.0
C3237 C 0.21757 0.67581 0.71359 0.0
C3238 C 0.17625 0.65834 0.6503 0.0
C3239 C 0.18936 0.65045 0.63132 0.0
C3240 C 0.14681 0.65072 0.6503 0.0
C3241 C 0.13224 0.65901 0.66975 0.0
C3242 C 0.13261 0.64448 0.69518 0.0
C3243 C 0.11951 0.65294 0.71374 0.0
C3244 C 0.10576 0.67572 0.70696 0.0
C3245 C 0.10503 0.69005 0.68159 0.0
C3246 C 0.11821 0.68174 0.66299 0.0
C3247 C 0.10932 0.5683 0.57338 0.0
C3248 C 0.08795 0.58032 0.55752 0.0
C3249 C 0.12828 0.5838 0.59076 0.0
C3250 C 0.12593 0.61134 0.59258 0.0
C3251 C 0.10538 0.62362 0.57611 0.0
C3252 C 0.08681 0.60844 0.55865 0.0
C3253 C 0.14395 0.62732 0.61228 0.0
C3254 C 0.13092 0.63541 0.63126 0.0
C3255 C 0.17347 0.63515 0.61212 0.0
C3256 C 0.18799 0.62865 0.59156 0.0
C3257 C 0.18017 0.63781 0.56518 0.0
C3258 C 0.19387 0.63154 0.54586 0.0
C3259 C 0.21559 0.61631 0.5527 0.0
C3260 C 0.2237 0.60739 0.57889 0.0
C3261 C 0.21003 0.61357 0.59828 0.0
H3262 H 0.2262 0.61149 0.53771 0.0
H3263 H 0.09561 0.68224 0.72133 0.0
loop_
_geom_bond_atom_site_label_1
_geom_bond_atom_site_label_2
_geom_bond_distance
_geom_bond_site_symmetry_2
_ccdc_geom_bond_type
Eu0 N31 2.657 . S
Eu0 N38 2.609 . S
Eu0 O44 2.558 . S
Eu0 O45 2.612 . S
Eu0 O47 2.339 . S
Eu0 O48 2.563 . S
Eu0 O49 2.419 . S
Eu0 O51 2.380 . S
Eu0 O52 2.432 . S
Eu0 C64 2.848 . S
C1 C4 1.429 . S
C1 C5 1.411 . S
C1 N8 1.377 . S
C2 C4 1.420 . S
C2 C6 1.423 . S
C2 C14 1.392 . S
C3 C5 1.420 . S
C3 C6 1.351 . S
C3 H26 0.931 . S
C4 C1 1.429 . S
C4 C2 1.420 . S
C4 N12 1.362 . S
C5 C1 1.411 . S
C5 C3 1.420 . S
C5 C10 1.395 . S
C6 C2 1.423 . S
C6 C3 1.351 . S
C6 H18 0.930 . S
C7 C9 1.400 . S
C7 C10 1.386 . S
C7 H19 0.930 . S
N8 C1 1.377 . S
N8 C9 1.321 . S
N8 Eu11 2.609 . S
C9 C7 1.400 . S
C9 N8 1.321 . S
C9 H16 0.930 . S
C10 C5 1.395 . S
C10 C7 1.386 . S
C10 H29 0.930 . S
Eu11 N8 2.609 . S
Eu11 N12 2.657 . S
Eu11 O45 2.380 . S
Eu11 O46 2.432 . S
Eu11 O50 2.558 . S
Eu11 O51 2.612 . S
Eu11 O53 2.339 . S
Eu11 O54 2.563 . S
Eu11 O55 2.419 . S
Eu11 C75 2.848 . S
N12 C4 1.362 . S
N12 Eu11 2.657 . S
N12 C13 1.334 . S
C13 N12 1.334 . S
C13 C15 1.413 . S
C13 H20 0.929 . S
C14 C2 1.392 . S
C14 C15 1.367 . S
C14 H22 0.930 . S
C15 C13 1.413 . S
C15 C14 1.367 . S
C15 H17 0.930 . S
H16 C9 0.930 . S
H17 C15 0.930 . S
H18 C6 0.930 . S
H19 C7 0.930 . S
H20 C13 0.929 . S
H21 C35 0.930 . S
H22 C14 0.930 . S
H23 C41 0.930 . S
H24 C32 0.929 . S
H25 C39 0.930 . S
H26 C3 0.931 . S
H27 C33 0.930 . S
H28 C66 0.930 . S
H29 C10 0.930 . S
H30 C65 0.931 . S
N31 Eu0 2.657 . S
N31 C32 1.334 . S
N31 C36 1.362 . S
C32 H24 0.929 . S
C32 N31 1.334 . S
C32 C35 1.413 . S
C33 H27 0.930 . S
C33 C34 1.392 . S
C33 C35 1.367 . S
C34 C33 1.392 . S
C34 C36 1.420 . S
C34 C66 1.423 . S
C35 H21 0.930 . S
C35 C32 1.413 . S
C35 C33 1.367 . S
C36 N31 1.362 . S
C36 C34 1.420 . S
C36 C40 1.429 . S
H37 C42 0.930 . S
N38 Eu0 2.609 . S
N38 C40 1.377 . S
N38 C41 1.321 . S
C39 H25 0.930 . S
C39 C41 1.400 . S
C39 C42 1.386 . S
C40 C36 1.429 . S
C40 N38 1.377 . S
C40 C43 1.411 . S
C41 H23 0.930 . S
C41 N38 1.321 . S
C41 C39 1.400 . S
C42 H37 0.930 . S
C42 C39 1.386 . S
C42 C43 1.395 . S
C43 C40 1.411 . S
C43 C42 1.395 . S
C43 C65 1.420 . S
O44 Eu0 2.558 . S
O44 C64 1.257 . S
O45 Eu0 2.612 . S
O45 Eu11 2.380 . S
O45 C56 1.276 . S
O46 Eu11 2.432 . S
O46 C63 1.264 . S
O47 Eu0 2.339 . S
O47 C63 1.254 . S
O48 Eu0 2.563 . S
O48 C56 1.235 . S
O49 Eu0 2.419 . S
O49 C64 1.249 . S
O50 Eu11 2.558 . S
O50 C75 1.257 . S
O51 Eu0 2.380 . S
O51 Eu11 2.612 . S
O51 C67 1.276 . S
O52 Eu0 2.432 . S
O52 C74 1.264 . S
O53 Eu11 2.339 . S
O53 C74 1.254 . S
O54 Eu11 2.563 . S
O54 C67 1.235 . S
O55 Eu11 2.419 . S
O55 C75 1.249 . S
C56 O45 1.276 . S
C56 O48 1.235 . S
C57 C59 1.393 . S
C57 C61 1.395 . S
C57 C64 1.492 . S
C58 C59 1.392 . S
C58 C60 1.386 . S
C59 C57 1.393 . S
C59 C58 1.392 . S
C59 H76 0.930 . S
C60 C58 1.386 . S
C60 C62 1.395 . S
C60 H77 0.930 . S
C61 C57 1.395 . S
C61 C62 1.379 . S
C61 H78 0.930 . S
C62 C60 1.395 . S
C62 C61 1.379 . S
C62 H79 0.930 . S
C63 O46 1.264 . S
C63 O47 1.254 . S
C64 Eu0 2.848 . S
C64 O44 1.257 . S
C64 O49 1.249 . S
C64 C57 1.492 . S
C65 H30 0.931 . S
C65 C43 1.420 . S
C65 C66 1.351 . S
C66 H28 0.930 . S
C66 C34 1.423 . S
C66 C65 1.351 . S
C67 O51 1.276 . S
C67 O54 1.235 . S
C68 C69 1.393 . S
C68 C72 1.395 . S
C68 C75 1.492 . S
C69 C68 1.393 . S
C69 C70 1.392 . S
C69 H80 0.930 . S
C70 C69 1.392 . S
C70 C71 1.386 . S
C71 C70 1.386 . S
C71 C73 1.395 . S
C71 H81 0.930 . S
C72 C68 1.395 . S
C72 C73 1.379 . S
C72 H82 0.930 . S
C73 C71 1.395 . S
C73 C72 1.379 . S
C73 H83 0.930 . S
C74 O52 1.264 . S
C74 O53 1.254 . S
C75 Eu11 2.848 . S
C75 O50 1.257 . S
C75 O55 1.249 . S
C75 C68 1.492 . S
H76 C59 0.930 . S
H77 C60 0.930 . S
H78 C61 0.930 . S
H79 C62 0.930 . S
H80 C69 0.930 . S
H81 C71 0.930 . S
H82 C72 0.930 . S
H83 C73 0.930 . S
Eu84 N115 2.657 . S
Eu84 N122 2.609 . S
Eu84 O128 2.558 . S
Eu84 O129 2.612 . S
Eu84 O131 2.339 . S
Eu84 O132 2.563 . S
Eu84 O133 2.419 . S
Eu84 O135 2.380 . S
Eu84 O136 2.432 . S
Eu84 C148 2.848 . S
C85 C88 1.429 . S
C85 C89 1.411 . S
C85 N92 1.377 . S
C86 C88 1.420 . S
C86 C90 1.423 . S
C86 C98 1.392 . S
C87 C89 1.420 . S
C87 C90 1.351 . S
C87 H110 0.931 . S
C88 C85 1.429 . S
C88 C86 1.420 . S
C88 N96 1.362 . S
C89 C85 1.411 . S
C89 C87 1.420 . S
C89 C94 1.395 . S
C90 C86 1.423 . S
C90 C87 1.351 . S
C90 H102 0.930 . S
C91 C93 1.400 . S
C91 C94 1.386 . S
C91 H103 0.930 . S
N92 C85 1.377 . S
N92 C93 1.321 . S
N92 Eu95 2.609 . S
C93 C91 1.400 . S
C93 N92 1.321 . S
C93 H100 0.930 . S
C94 C89 1.395 . S
C94 C91 1.386 . S
C94 H113 0.930 . S
Eu95 N92 2.609 . S
Eu95 N96 2.657 . S
Eu95 O129 2.380 . S
Eu95 O130 2.432 . S
Eu95 O134 2.558 . S
Eu95 O135 2.612 . S
Eu95 O137 2.339 . S
Eu95 O138 2.563 . S
Eu95 O139 2.419 . S
Eu95 C159 2.848 . S
N96 C88 1.362 . S
N96 Eu95 2.657 . S
N96 C97 1.334 . S
C97 N96 1.334 . S
C97 C99 1.413 . S
C97 H104 0.929 . S
C98 C86 1.392 . S
C98 C99 1.367 . S
C98 H106 0.930 . S
C99 C97 1.413 . S
C99 C98 1.367 . S
C99 H101 0.930 . S
H100 C93 0.930 . S
H101 C99 0.930 . S
H102 C90 0.930 . S
H103 C91 0.930 . S
H104 C97 0.929 . S
H105 C119 0.930 . S
H106 C98 0.930 . S
H107 C125 0.930 . S
H108 C116 0.929 . S
H109 C123 0.930 . S
H110 C87 0.931 . S
H111 C117 0.930 . S
H112 C150 0.930 . S
H113 C94 0.930 . S
H114 C149 0.931 . S
N115 Eu84 2.657 . S
N115 C116 1.334 . S
N115 C120 1.362 . S
C116 H108 0.929 . S
C116 N115 1.334 . S
C116 C119 1.413 . S
C117 H111 0.930 . S
C117 C118 1.392 . S
C117 C119 1.367 . S
C118 C117 1.392 . S
C118 C120 1.420 . S
C118 C150 1.423 . S
C119 H105 0.930 . S
C119 C116 1.413 . S
C119 C117 1.367 . S
C120 N115 1.362 . S
C120 C118 1.420 . S
C120 C124 1.429 . S
H121 C126 0.930 . S
N122 Eu84 2.609 . S
N122 C124 1.377 . S
N122 C125 1.321 . S
C123 H109 0.930 . S
C123 C125 1.400 . S
C123 C126 1.386 . S
C124 C120 1.429 . S
C124 N122 1.377 . S
C124 C127 1.411 . S
C125 H107 0.930 . S
C125 N122 1.321 . S
C125 C123 1.400 . S
C126 H121 0.930 . S
C126 C123 1.386 . S
C126 C127 1.395 . S
C127 C124 1.411 . S
C127 C126 1.395 . S
C127 C149 1.420 . S
O128 Eu84 2.558 . S
O128 C148 1.257 . S
O129 Eu84 2.612 . S
O129 Eu95 2.380 . S
O129 C140 1.276 . S
O130 Eu95 2.432 . S
O130 C147 1.264 . S
O131 Eu84 2.339 . S
O131 C147 1.254 . S
O132 Eu84 2.563 . S
O132 C140 1.235 . S
O133 Eu84 2.419 . S
O133 C148 1.249 . S
O134 Eu95 2.558 . S
O134 C159 1.257 . S
O135 Eu84 2.380 . S
O135 Eu95 2.612 . S
O135 C151 1.276 . S
O136 Eu84 2.432 . S
O136 C158 1.264 . S
O137 Eu95 2.339 . S
O137 C158 1.254 . S
O138 Eu95 2.563 . S
O138 C151 1.235 . S
O139 Eu95 2.419 . S
O139 C159 1.249 . S
C140 O129 1.276 . S
C140 O132 1.235 . S
C141 C143 1.393 . S
C141 C145 1.395 . S
C141 C148 1.492 . S
C142 C143 1.392 . S
C142 C144 1.386 . S
C143 C141 1.393 . S
C143 C142 1.392 . S
C143 H160 0.930 . S
C144 C142 1.386 . S
C144 C146 1.395 . S
C144 H161 0.930 . S
C145 C141 1.395 . S
C145 C146 1.379 . S
C145 H162 0.930 . S
C146 C144 1.395 . S
C146 C145 1.379 . S
C146 H163 0.930 . S
C147 O130 1.264 . S
C147 O131 1.254 . S
C148 Eu84 2.848 . S
C148 O128 1.257 . S
C148 O133 1.249 . S
C148 C141 1.492 . S
C149 H114 0.931 . S
C149 C127 1.420 . S
C149 C150 1.351 . S
C150 H112 0.930 . S
C150 C118 1.423 . S
C150 C149 1.351 . S
C151 O135 1.276 . S
C151 O138 1.235 . S
C152 C153 1.393 . S
C152 C156 1.395 . S
C152 C159 1.492 . S
C153 C152 1.393 . S
C153 C154 1.392 . S
C153 H164 0.930 . S
C154 C153 1.392 . S
C154 C155 1.386 . S
C155 C154 1.386 . S
C155 C157 1.395 . S
C155 H165 0.930 . S
C156 C152 1.395 . S
C156 C157 1.379 . S
C156 H166 0.930 . S
C157 C155 1.395 . S
C157 C156 1.379 . S
C157 H167 0.930 . S
C158 O136 1.264 . S
C158 O137 1.254 . S
C159 Eu95 2.848 . S
C159 O134 1.257 . S
C159 O139 1.249 . S
C159 C152 1.492 . S
H160 C143 0.930 . S
H161 C144 0.930 . S
H162 C145 0.930 . S
H163 C146 0.930 . S
H164 C153 0.930 . S
H165 C155 0.930 . S
H166 C156 0.930 . S
H167 C157 0.930 . S
Eu168 N199 2.657 . S
Eu168 N206 2.609 . S
Eu168 O212 2.558 . S
Eu168 O213 2.612 . S
Eu168 O215 2.339 . S
Eu168 O216 2.563 . S
Eu168 O217 2.419 . S
Eu168 O219 2.380 . S
Eu168 O220 2.432 . S
Eu168 C232 2.848 . S
C169 C172 1.429 . S
C169 C173 1.411 . S
C169 N176 1.377 . S
C170 C172 1.420 . S
C170 C174 1.423 . S
C170 C182 1.392 . S
C171 C173 1.420 . S
C171 C174 1.351 . S
C171 H194 0.931 . S
C172 C169 1.429 . S
C172 C170 1.420 . S
C172 N180 1.362 . S
C173 C169 1.411 . S
C173 C171 1.420 . S
C173 C178 1.395 . S
C174 C170 1.423 . S
C174 C171 1.351 . S
C174 H186 0.930 . S
C175 C177 1.400 . S
C175 C178 1.386 . S
C175 H187 0.930 . S
N176 C169 1.377 . S
N176 C177 1.321 . S
N176 Eu179 2.609 . S
C177 C175 1.400 . S
C177 N176 1.321 . S
C177 H184 0.930 . S
C178 C173 1.395 . S
C178 C175 1.386 . S
C178 H197 0.930 . S
Eu179 N176 2.609 . S
Eu179 N180 2.657 . S
Eu179 O213 2.380 . S
Eu179 O214 2.432 . S
Eu179 O218 2.558 . S
Eu179 O219 2.612 . S
Eu179 O221 2.339 . S
Eu179 O222 2.563 . S
Eu179 O223 2.419 . S
Eu179 C243 2.848 . S
N180 C172 1.362 . S
N180 Eu179 2.657 . S
N180 C181 1.334 . S
C181 N180 1.334 . S
C181 C183 1.413 . S
C181 H188 0.929 . S
C182 C170 1.392 . S
C182 C183 1.367 . S
C182 H190 0.930 . S
C183 C181 1.413 . S
C183 C182 1.367 . S
C183 H185 0.930 . S
H184 C177 0.930 . S
H185 C183 0.930 . S
H186 C174 0.930 . S
H187 C175 0.930 . S
H188 C181 0.929 . S
H189 C203 0.930 . S
H190 C182 0.930 . S
H191 C209 0.930 . S
H192 C200 0.929 . S
H193 C207 0.930 . S
H194 C171 0.931 . S
H195 C201 0.930 . S
H196 C234 0.930 . S
H197 C178 0.930 . S
H198 C233 0.931 . S
N199 Eu168 2.657 . S
N199 C200 1.334 . S
N199 C204 1.362 . S
C200 H192 0.929 . S
C200 N199 1.334 . S
C200 C203 1.413 . S
C201 H195 0.930 . S
C201 C202 1.392 . S
C201 C203 1.367 . S
C202 C201 1.392 . S
C202 C204 1.420 . S
C202 C234 1.423 . S
C203 H189 0.930 . S
C203 C200 1.413 . S
C203 C201 1.367 . S
C204 N199 1.362 . S
C204 C202 1.420 . S
C204 C208 1.429 . S
H205 C210 0.930 . S
N206 Eu168 2.609 . S
N206 C208 1.377 . S
N206 C209 1.321 . S
C207 H193 0.930 . S
C207 C209 1.400 . S
C207 C210 1.386 . S
C208 C204 1.429 . S
C208 N206 1.377 . S
C208 C211 1.411 . S
C209 H191 0.930 . S
C209 N206 1.321 . S
C209 C207 1.400 . S
C210 H205 0.930 . S
C210 C207 1.386 . S
C210 C211 1.395 . S
C211 C208 1.411 . S
C211 C210 1.395 . S
C211 C233 1.420 . S
O212 Eu168 2.558 . S
O212 C232 1.257 . S
O213 Eu168 2.612 . S
O213 Eu179 2.380 . S
O213 C224 1.276 . S
O214 Eu179 2.432 . S
O214 C231 1.264 . S
O215 Eu168 2.339 . S
O215 C231 1.254 . S
O216 Eu168 2.563 . S
O216 C224 1.235 . S
O217 Eu168 2.419 . S
O217 C232 1.249 . S
O218 Eu179 2.558 . S
O218 C243 1.257 . S
O219 Eu168 2.380 . S
O219 Eu179 2.612 . S
O219 C235 1.276 . S
O220 Eu168 2.432 . S
O220 C242 1.264 . S
O221 Eu179 2.339 . S
O221 C242 1.254 . S
O222 Eu179 2.563 . S
O222 C235 1.235 . S
O223 Eu179 2.419 . S
O223 C243 1.249 . S
C224 O213 1.276 . S
C224 O216 1.235 . S
C225 C227 1.393 . S
C225 C229 1.395 . S
C225 C232 1.492 . S
C226 C227 1.392 . S
C226 C228 1.386 . S
C227 C225 1.393 . S
C227 C226 1.392 . S
C227 H244 0.930 . S
C228 C226 1.386 . S
C228 C230 1.395 . S
C228 H245 0.930 . S
C229 C225 1.395 . S
C229 C230 1.379 . S
C229 H246 0.930 . S
C230 C228 1.395 . S
C230 C229 1.379 . S
C230 H247 0.930 . S
C231 O214 1.264 . S
C231 O215 1.254 . S
C232 Eu168 2.848 . S
C232 O212 1.257 . S
C232 O217 1.249 . S
C232 C225 1.492 . S
C233 H198 0.931 . S
C233 C211 1.420 . S
C233 C234 1.351 . S
C234 H196 0.930 . S
C234 C202 1.423 . S
C234 C233 1.351 . S
C235 O219 1.276 . S
C235 O222 1.235 . S
C236 C237 1.393 . S
C236 C240 1.395 . S
C236 C243 1.492 . S
C237 C236 1.393 . S
C237 C238 1.392 . S
C237 H248 0.930 . S
C238 C237 1.392 . S
C238 C239 1.386 . S
C239 C238 1.386 . S
C239 C241 1.395 . S
C239 H249 0.930 . S
C240 C236 1.395 . S
C240 C241 1.379 . S
C240 H250 0.930 . S
C241 C239 1.395 . S
C241 C240 1.379 . S
C241 H251 0.930 . S
C242 O220 1.264 . S
C242 O221 1.254 . S
C243 Eu179 2.848 . S
C243 O218 1.257 . S
C243 O223 1.249 . S
C243 C236 1.492 . S
H244 C227 0.930 . S
H245 C228 0.930 . S
H246 C229 0.930 . S
H247 C230 0.930 . S
H248 C237 0.930 . S
H249 C239 0.930 . S
H250 C240 0.930 . S
H251 C241 0.930 . S
Eu252 N283 2.657 . S
Eu252 N290 2.609 . S
Eu252 O296 2.558 . S
Eu252 O297 2.612 . S
Eu252 O299 2.339 . S
Eu252 O300 2.563 . S
Eu252 O301 2.419 . S
Eu252 O303 2.380 . S
Eu252 O304 2.432 . S
Eu252 C316 2.848 . S
C253 C256 1.429 . S
C253 C257 1.411 . S
C253 N260 1.377 . S
C254 C256 1.420 . S
C254 C258 1.423 . S
C254 C266 1.392 . S
C255 C257 1.420 . S
C255 C258 1.351 . S
C255 H278 0.931 . S
C256 C253 1.429 . S
C256 C254 1.420 . S
C256 N264 1.362 . S
C257 C253 1.411 . S
C257 C255 1.420 . S
C257 C262 1.395 . S
C258 C254 1.423 . S
C258 C255 1.351 . S
C258 H270 0.930 . S
C259 C261 1.400 . S
C259 C262 1.386 . S
C259 H271 0.930 . S
N260 C253 1.377 . S
N260 C261 1.321 . S
N260 Eu263 2.609 . S
C261 C259 1.400 . S
C261 N260 1.321 . S
C261 H268 0.930 . S
C262 C257 1.395 . S
C262 C259 1.386 . S
C262 H281 0.930 . S
Eu263 N260 2.609 . S
Eu263 N264 2.657 . S
Eu263 O297 2.380 . S
Eu263 O298 2.432 . S
Eu263 O302 2.558 . S
Eu263 O303 2.612 . S
Eu263 O305 2.339 . S
Eu263 O306 2.563 . S
Eu263 O307 2.419 . S
Eu263 C327 2.848 . S
N264 C256 1.362 . S
N264 Eu263 2.657 . S
N264 C265 1.334 . S
C265 N264 1.334 . S
C265 C267 1.413 . S
C265 H272 0.929 . S
C266 C254 1.392 . S
C266 C267 1.367 . S
C266 H274 0.930 . S
C267 C265 1.413 . S
C267 C266 1.367 . S
C267 H269 0.930 . S
H268 C261 0.930 . S
H269 C267 0.930 . S
H270 C258 0.930 . S
H271 C259 0.930 . S
H272 C265 0.929 . S
H273 C287 0.930 . S
H274 C266 0.930 . S
H275 C293 0.930 . S
H276 C284 0.929 . S
H277 C291 0.930 . S
H278 C255 0.931 . S
H279 C285 0.930 . S
H280 C318 0.930 . S
H281 C262 0.930 . S
H282 C317 0.931 . S
N283 Eu252 2.657 . S
N283 C284 1.334 . S
N283 C288 1.362 . S
C284 H276 0.929 . S
C284 N283 1.334 . S
C284 C287 1.413 . S
C285 H279 0.930 . S
C285 C286 1.392 . S
C285 C287 1.367 . S
C286 C285 1.392 . S
C286 C288 1.420 . S
C286 C318 1.423 . S
C287 H273 0.930 . S
C287 C284 1.413 . S
C287 C285 1.367 . S
C288 N283 1.362 . S
C288 C286 1.420 . S
C288 C292 1.429 . S
H289 C294 0.930 . S
N290 Eu252 2.609 . S
N290 C292 1.377 . S
N290 C293 1.321 . S
C291 H277 0.930 . S
C291 C293 1.400 . S
C291 C294 1.386 . S
C292 C288 1.429 . S
C292 N290 1.377 . S
C292 C295 1.411 . S
C293 H275 0.930 . S
C293 N290 1.321 . S
C293 C291 1.400 . S
C294 H289 0.930 . S
C294 C291 1.386 . S
C294 C295 1.395 . S
C295 C292 1.411 . S
C295 C294 1.395 . S
C295 C317 1.420 . S
O296 Eu252 2.558 . S
O296 C316 1.257 . S
O297 Eu252 2.612 . S
O297 Eu263 2.380 . S
O297 C308 1.276 . S
O298 Eu263 2.432 . S
O298 C315 1.264 . S
O299 Eu252 2.339 . S
O299 C315 1.254 . S
O300 Eu252 2.563 . S
O300 C308 1.235 . S
O301 Eu252 2.419 . S
O301 C316 1.249 . S
O302 Eu263 2.558 . S
O302 C327 1.257 . S
O303 Eu252 2.380 . S
O303 Eu263 2.612 . S
O303 C319 1.276 . S
O304 Eu252 2.432 . S
O304 C326 1.264 . S
O305 Eu263 2.339 . S
O305 C326 1.254 . S
O306 Eu263 2.563 . S
O306 C319 1.235 . S
O307 Eu263 2.419 . S
O307 C327 1.249 . S
C308 O297 1.276 . S
C308 O300 1.235 . S
C309 C311 1.393 . S
C309 C313 1.395 . S
C309 C316 1.492 . S
C310 C311 1.392 . S
C310 C312 1.386 . S
C311 C309 1.393 . S
C311 C310 1.392 . S
C311 H328 0.930 . S
C312 C310 1.386 . S
C312 C314 1.395 . S
C312 H329 0.930 . S
C313 C309 1.395 . S
C313 C314 1.379 . S
C313 H330 0.930 . S
C314 C312 1.395 . S
C314 C313 1.379 . S
C314 H331 0.930 . S
C315 O298 1.264 . S
C315 O299 1.254 . S
C316 Eu252 2.848 . S
C316 O296 1.257 . S
C316 O301 1.249 . S
C316 C309 1.492 . S
C317 H282 0.931 . S
C317 C295 1.420 . S
C317 C318 1.351 . S
C318 H280 0.930 . S
C318 C286 1.423 . S
C318 C317 1.351 . S
C319 O303 1.276 . S
C319 O306 1.235 . S
C320 C321 1.393 . S
C320 C324 1.395 . S
C320 C327 1.492 . S
C321 C320 1.393 . S
C321 C322 1.392 . S
C321 H332 0.930 . S
C322 C321 1.392 . S
C322 C323 1.386 . S
C323 C322 1.386 . S
C323 C325 1.395 . S
C323 H333 0.930 . S
C324 C320 1.395 . S
C324 C325 1.379 . S
C324 H334 0.930 . S
C325 C323 1.395 . S
C325 C324 1.379 . S
C325 H335 0.930 . S
C326 O304 1.264 . S
C326 O305 1.254 . S
C327 Eu263 2.848 . S
C327 O302 1.257 . S
C327 O307 1.249 . S
C327 C320 1.492 . S
H328 C311 0.930 . S
H329 C312 0.930 . S
H330 C313 0.930 . S
H331 C314 0.930 . S
H332 C321 0.930 . S
H333 C323 0.930 . S
H334 C324 0.930 . S
H335 C325 0.930 . S
Eu336 N367 2.657 . S
Eu336 N374 2.609 . S
Eu336 O380 2.558 . S
Eu336 O381 2.612 . S
Eu336 O383 2.339 . S
Eu336 O384 2.563 . S
Eu336 O385 2.419 . S
Eu336 O387 2.380 . S
Eu336 O388 2.432 . S
Eu336 C400 2.848 . S
C337 C340 1.429 . S
C337 C341 1.411 . S
C337 N344 1.377 . S
C338 C340 1.420 . S
C338 C342 1.423 . S
C338 C350 1.392 . S
C339 C341 1.420 . S
C339 C342 1.351 . S
C339 H362 0.931 . S
C340 C337 1.429 . S
C340 C338 1.420 . S
C340 N348 1.362 . S
C341 C337 1.411 . S
C341 C339 1.420 . S
C341 C346 1.395 . S
C342 C338 1.423 . S
C342 C339 1.351 . S
C342 H354 0.930 . S
C343 C345 1.400 . S
C343 C346 1.386 . S
C343 H355 0.930 . S
N344 C337 1.377 . S
N344 C345 1.321 . S
N344 Eu347 2.609 . S
C345 C343 1.400 . S
C345 N344 1.321 . S
C345 H352 0.930 . S
C346 C341 1.395 . S
C346 C343 1.386 . S
C346 H365 0.930 . S
Eu347 N344 2.609 . S
Eu347 N348 2.657 . S
Eu347 O381 2.380 . S
Eu347 O382 2.432 . S
Eu347 O386 2.558 . S
Eu347 O387 2.612 . S
Eu347 O389 2.339 . S
Eu347 O390 2.563 . S
Eu347 O391 2.419 . S
Eu347 C411 2.848 . S
N348 C340 1.362 . S
N348 Eu347 2.657 . S
N348 C349 1.334 . S
C349 N348 1.334 . S
C349 C351 1.413 . S
C349 H356 0.929 . S
C350 C338 1.392 . S
C350 C351 1.367 . S
C350 H358 0.930 . S
C351 C349 1.413 . S
C351 C350 1.367 . S
C351 H353 0.930 . S
H352 C345 0.930 . S
H353 C351 0.930 . S
H354 C342 0.930 . S
H355 C343 0.930 . S
H356 C349 0.929 . S
H357 C371 0.930 . S
H358 C350 0.930 . S
H359 C377 0.930 . S
H360 C368 0.929 . S
H361 C375 0.930 . S
H362 C339 0.931 . S
H363 C369 0.930 . S
H364 C402 0.930 . S
H365 C346 0.930 . S
H366 C401 0.931 . S
N367 Eu336 2.657 . S
N367 C368 1.334 . S
N367 C372 1.362 . S
C368 H360 0.929 . S
C368 N367 1.334 . S
C368 C371 1.413 . S
C369 H363 0.930 . S
C369 C370 1.392 . S
C369 C371 1.367 . S
C370 C369 1.392 . S
C370 C372 1.420 . S
C370 C402 1.423 . S
C371 H357 0.930 . S
C371 C368 1.413 . S
C371 C369 1.367 . S
C372 N367 1.362 . S
C372 C370 1.420 . S
C372 C376 1.429 . S
H373 C378 0.930 . S
N374 Eu336 2.609 . S
N374 C376 1.377 . S
N374 C377 1.321 . S
C375 H361 0.930 . S
C375 C377 1.400 . S
C375 C378 1.386 . S
C376 C372 1.429 . S
C376 N374 1.377 . S
C376 C379 1.411 . S
C377 H359 0.930 . S
C377 N374 1.321 . S
C377 C375 1.400 . S
C378 H373 0.930 . S
C378 C375 1.386 . S
C378 C379 1.395 . S
C379 C376 1.411 . S
C379 C378 1.395 . S
C379 C401 1.420 . S
O380 Eu336 2.558 . S
O380 C400 1.257 . S
O381 Eu336 2.612 . S
O381 Eu347 2.380 . S
O381 C392 1.276 . S
O382 Eu347 2.432 . S
O382 C399 1.264 . S
O383 Eu336 2.339 . S
O383 C399 1.254 . S
O384 Eu336 2.563 . S
O384 C392 1.235 . S
O385 Eu336 2.419 . S
O385 C400 1.249 . S
O386 Eu347 2.558 . S
O386 C411 1.257 . S
O387 Eu336 2.380 . S
O387 Eu347 2.612 . S
O387 C403 1.276 . S
O388 Eu336 2.432 . S
O388 C410 1.264 . S
O389 Eu347 2.339 . S
O389 C410 1.254 . S
O390 Eu347 2.563 . S
O390 C403 1.235 . S
O391 Eu347 2.419 . S
O391 C411 1.249 . S
C392 O381 1.276 . S
C392 O384 1.235 . S
C393 C395 1.393 . S
C393 C397 1.395 . S
C393 C400 1.492 . S
C394 C395 1.392 . S
C394 C396 1.386 . S
C395 C393 1.393 . S
C395 C394 1.392 . S
C395 H412 0.930 . S
C396 C394 1.386 . S
C396 C398 1.395 . S
C396 H413 0.930 . S
C397 C393 1.395 . S
C397 C398 1.379 . S
C397 H414 0.930 . S
C398 C396 1.395 . S
C398 C397 1.379 . S
C398 H415 0.930 . S
C399 O382 1.264 . S
C399 O383 1.254 . S
C400 Eu336 2.848 . S
C400 O380 1.257 . S
C400 O385 1.249 . S
C400 C393 1.492 . S
C401 H366 0.931 . S
C401 C379 1.420 . S
C401 C402 1.351 . S
C402 H364 0.930 . S
C402 C370 1.423 . S
C402 C401 1.351 . S
C403 O387 1.276 . S
C403 O390 1.235 . S
C404 C405 1.393 . S
C404 C408 1.395 . S
C404 C411 1.492 . S
C405 C404 1.393 . S
C405 C406 1.392 . S
C405 H416 0.930 . S
C406 C405 1.392 . S
C406 C407 1.386 . S
C407 C406 1.386 . S
C407 C409 1.395 . S
C407 H417 0.930 . S
C408 C404 1.395 . S
C408 C409 1.379 . S
C408 H418 0.930 . S
C409 C407 1.395 . S
C409 C408 1.379 . S
C409 H419 0.930 . S
C410 O388 1.264 . S
C410 O389 1.254 . S
C411 Eu347 2.848 . S
C411 O386 1.257 . S
C411 O391 1.249 . S
C411 C404 1.492 . S
H412 C395 0.930 . S
H413 C396 0.930 . S
H414 C397 0.930 . S
H415 C398 0.930 . S
H416 C405 0.930 . S
H417 C407 0.930 . S
H418 C408 0.930 . S
H419 C409 0.930 . S
Eu420 N451 2.657 . S
Eu420 N458 2.609 . S
Eu420 O464 2.558 . S
Eu420 O465 2.612 . S
Eu420 O467 2.339 . S
Eu420 O468 2.563 . S
Eu420 O469 2.419 . S
Eu420 O471 2.380 . S
Eu420 O472 2.432 . S
Eu420 C484 2.848 . S
C421 C424 1.429 . S
C421 C425 1.411 . S
C421 N428 1.377 . S
C422 C424 1.420 . S
C422 C426 1.423 . S
C422 C434 1.392 . S
C423 C425 1.420 . S
C423 C426 1.351 . S
C423 H446 0.931 . S
C424 C421 1.429 . S
C424 C422 1.420 . S
C424 N432 1.362 . S
C425 C421 1.411 . S
C425 C423 1.420 . S
C425 C430 1.395 . S
C426 C422 1.423 . S
C426 C423 1.351 . S
C426 H438 0.930 . S
C427 C429 1.400 . S
C427 C430 1.386 . S
C427 H439 0.930 . S
N428 C421 1.377 . S
N428 C429 1.321 . S
N428 Eu431 2.609 . S
C429 C427 1.400 . S
C429 N428 1.321 . S
C429 H436 0.930 . S
C430 C425 1.395 . S
C430 C427 1.386 . S
C430 H449 0.930 . S
Eu431 N428 2.609 . S
Eu431 N432 2.657 . S
Eu431 O465 2.380 . S
Eu431 O466 2.432 . S
Eu431 O470 2.558 . S
Eu431 O471 2.612 . S
Eu431 O473 2.339 . S
Eu431 O474 2.563 . S
Eu431 O475 2.419 . S
Eu431 C495 2.848 . S
N432 C424 1.362 . S
N432 Eu431 2.657 . S
N432 C433 1.334 . S
C433 N432 1.334 . S
C433 C435 1.413 . S
C433 H440 0.929 . S
C434 C422 1.392 . S
C434 C435 1.367 . S
C434 H442 0.930 . S
C435 C433 1.413 . S
C435 C434 1.367 . S
C435 H437 0.930 . S
H436 C429 0.930 . S
H437 C435 0.930 . S
H438 C426 0.930 . S
H439 C427 0.930 . S
H440 C433 0.929 . S
H441 C455 0.930 . S
H442 C434 0.930 . S
H443 C461 0.930 . S
H444 C452 0.929 . S
H445 C459 0.930 . S
H446 C423 0.931 . S
H447 C453 0.930 . S
H448 C486 0.930 . S
H449 C430 0.930 . S
H450 C485 0.931 . S
N451 Eu420 2.657 . S
N451 C452 1.334 . S
N451 C456 1.362 . S
C452 H444 0.929 . S
C452 N451 1.334 . S
C452 C455 1.413 . S
C453 H447 0.930 . S
C453 C454 1.392 . S
C453 C455 1.367 . S
C454 C453 1.392 . S
C454 C456 1.420 . S
C454 C486 1.423 . S
C455 H441 0.930 . S
C455 C452 1.413 . S
C455 C453 1.367 . S
C456 N451 1.362 . S
C456 C454 1.420 . S
C456 C460 1.429 . S
H457 C462 0.930 . S
N458 Eu420 2.609 . S
N458 C460 1.377 . S
N458 C461 1.321 . S
C459 H445 0.930 . S
C459 C461 1.400 . S
C459 C462 1.386 . S
C460 C456 1.429 . S
C460 N458 1.377 . S
C460 C463 1.411 . S
C461 H443 0.930 . S
C461 N458 1.321 . S
C461 C459 1.400 . S
C462 H457 0.930 . S
C462 C459 1.386 . S
C462 C463 1.395 . S
C463 C460 1.411 . S
C463 C462 1.395 . S
C463 C485 1.420 . S
O464 Eu420 2.558 . S
O464 C484 1.257 . S
O465 Eu420 2.612 . S
O465 Eu431 2.380 . S
O465 C476 1.276 . S
O466 Eu431 2.432 . S
O466 C483 1.264 . S
O467 Eu420 2.339 . S
O467 C483 1.254 . S
O468 Eu420 2.563 . S
O468 C476 1.235 . S
O469 Eu420 2.419 . S
O469 C484 1.249 . S
O470 Eu431 2.558 . S
O470 C495 1.257 . S
O471 Eu420 2.380 . S
O471 Eu431 2.612 . S
O471 C487 1.276 . S
O472 Eu420 2.432 . S
O472 C494 1.264 . S
O473 Eu431 2.339 . S
O473 C494 1.254 . S
O474 Eu431 2.563 . S
O474 C487 1.235 . S
O475 Eu431 2.419 . S
O475 C495 1.249 . S
C476 O465 1.276 . S
C476 O468 1.235 . S
C477 C479 1.393 . S
C477 C481 1.395 . S
C477 C484 1.492 . S
C478 C479 1.392 . S
C478 C480 1.386 . S
C479 C477 1.393 . S
C479 C478 1.392 . S
C479 H496 0.930 . S
C480 C478 1.386 . S
C480 C482 1.395 . S
C480 H497 0.930 . S
C481 C477 1.395 . S
C481 C482 1.379 . S
C481 H498 0.930 . S
C482 C480 1.395 . S
C482 C481 1.379 . S
C482 H499 0.930 . S
C483 O466 1.264 . S
C483 O467 1.254 . S
C484 Eu420 2.848 . S
C484 O464 1.257 . S
C484 O469 1.249 . S
C484 C477 1.492 . S
C485 H450 0.931 . S
C485 C463 1.420 . S
C485 C486 1.351 . S
C486 H448 0.930 . S
C486 C454 1.423 . S
C486 C485 1.351 . S
C487 O471 1.276 . S
C487 O474 1.235 . S
C488 C489 1.393 . S
C488 C492 1.395 . S
C488 C495 1.492 . S
C489 C488 1.393 . S
C489 C490 1.392 . S
C489 H500 0.930 . S
C490 C489 1.392 . S
C490 C491 1.386 . S
C491 C490 1.386 . S
C491 C493 1.395 . S
C491 H501 0.930 . S
C492 C488 1.395 . S
C492 C493 1.379 . S
C492 H502 0.930 . S
C493 C491 1.395 . S
C493 C492 1.379 . S
C493 H503 0.930 . S
C494 O472 1.264 . S
C494 O473 1.254 . S
C495 Eu431 2.848 . S
C495 O470 1.257 . S
C495 O475 1.249 . S
C495 C488 1.492 . S
H496 C479 0.930 . S
H497 C480 0.930 . S
H498 C481 0.930 . S
H499 C482 0.930 . S
H500 C489 0.930 . S
H501 C491 0.930 . S
H502 C492 0.930 . S
H503 C493 0.930 . S
Eu504 N535 2.657 . S
Eu504 N542 2.609 . S
Eu504 O548 2.558 . S
Eu504 O549 2.612 . S
Eu504 O551 2.339 . S
Eu504 O552 2.563 . S
Eu504 O553 2.419 . S
Eu504 O555 2.380 . S
Eu504 O556 2.432 . S
Eu504 C568 2.848 . S
C505 C508 1.429 . S
C505 C509 1.411 . S
C505 N512 1.377 . S
C506 C508 1.420 . S
C506 C510 1.423 . S
C506 C518 1.392 . S
C507 C509 1.420 . S
C507 C510 1.351 . S
C507 H530 0.931 . S
C508 C505 1.429 . S
C508 C506 1.420 . S
C508 N516 1.362 . S
C509 C505 1.411 . S
C509 C507 1.420 . S
C509 C514 1.395 . S
C510 C506 1.423 . S
C510 C507 1.351 . S
C510 H522 0.930 . S
C511 C513 1.400 . S
C511 C514 1.386 . S
C511 H523 0.930 . S
N512 C505 1.377 . S
N512 C513 1.321 . S
N512 Eu515 2.609 . S
C513 C511 1.400 . S
C513 N512 1.321 . S
C513 H520 0.930 . S
C514 C509 1.395 . S
C514 C511 1.386 . S
C514 H533 0.930 . S
Eu515 N512 2.609 . S
Eu515 N516 2.657 . S
Eu515 O549 2.380 . S
Eu515 O550 2.432 . S
Eu515 O554 2.558 . S
Eu515 O555 2.612 . S
Eu515 O557 2.339 . S
Eu515 O558 2.563 . S
Eu515 O559 2.419 . S
Eu515 C579 2.848 . S
N516 C508 1.362 . S
N516 Eu515 2.657 . S
N516 C517 1.334 . S
C517 N516 1.334 . S
C517 C519 1.413 . S
C517 H524 0.929 . S
C518 C506 1.392 . S
C518 C519 1.367 . S
C518 H526 0.930 . S
C519 C517 1.413 . S
C519 C518 1.367 . S
C519 H521 0.930 . S
H520 C513 0.930 . S
H521 C519 0.930 . S
H522 C510 0.930 . S
H523 C511 0.930 . S
H524 C517 0.929 . S
H525 C539 0.930 . S
H526 C518 0.930 . S
H527 C545 0.930 . S
H528 C536 0.929 . S
H529 C543 0.930 . S
H530 C507 0.931 . S
H531 C537 0.930 . S
H532 C570 0.930 . S
H533 C514 0.930 . S
H534 C569 0.931 . S
N535 Eu504 2.657 . S
N535 C536 1.334 . S
N535 C540 1.362 . S
C536 H528 0.929 . S
C536 N535 1.334 . S
C536 C539 1.413 . S
C537 H531 0.930 . S
C537 C538 1.392 . S
C537 C539 1.367 . S
C538 C537 1.392 . S
C538 C540 1.420 . S
C538 C570 1.423 . S
C539 H525 0.930 . S
C539 C536 1.413 . S
C539 C537 1.367 . S
C540 N535 1.362 . S
C540 C538 1.420 . S
C540 C544 1.429 . S
H541 C546 0.930 . S
N542 Eu504 2.609 . S
N542 C544 1.377 . S
N542 C545 1.321 . S
C543 H529 0.930 . S
C543 C545 1.400 . S
C543 C546 1.386 . S
C544 C540 1.429 . S
C544 N542 1.377 . S
C544 C547 1.411 . S
C545 H527 0.930 . S
C545 N542 1.321 . S
C545 C543 1.400 . S
C546 H541 0.930 . S
C546 C543 1.386 . S
C546 C547 1.395 . S
C547 C544 1.411 . S
C547 C546 1.395 . S
C547 C569 1.420 . S
O548 Eu504 2.558 . S
O548 C568 1.257 . S
O549 Eu504 2.612 . S
O549 Eu515 2.380 . S
O549 C560 1.276 . S
O550 Eu515 2.432 . S
O550 C567 1.264 . S
O551 Eu504 2.339 . S
O551 C567 1.254 . S
O552 Eu504 2.563 . S
O552 C560 1.235 . S
O553 Eu504 2.419 . S
O553 C568 1.249 . S
O554 Eu515 2.558 . S
O554 C579 1.257 . S
O555 Eu504 2.380 . S
O555 Eu515 2.612 . S
O555 C571 1.276 . S
O556 Eu504 2.432 . S
O556 C578 1.264 . S
O557 Eu515 2.339 . S
O557 C578 1.254 . S
O558 Eu515 2.563 . S
O558 C571 1.235 . S
O559 Eu515 2.419 . S
O559 C579 1.249 . S
C560 O549 1.276 . S
C560 O552 1.235 . S
C561 C563 1.393 . S
C561 C565 1.395 . S
C561 C568 1.492 . S
C562 C563 1.392 . S
C562 C564 1.386 . S
C563 C561 1.393 . S
C563 C562 1.392 . S
C563 H580 0.930 . S
C564 C562 1.386 . S
C564 C566 1.395 . S
C564 H581 0.930 . S
C565 C561 1.395 . S
C565 C566 1.379 . S
C565 H582 0.930 . S
C566 C564 1.395 . S
C566 C565 1.379 . S
C566 H583 0.930 . S
C567 O550 1.264 . S
C567 O551 1.254 . S
C568 Eu504 2.848 . S
C568 O548 1.257 . S
C568 O553 1.249 . S
C568 C561 1.492 . S
C569 H534 0.931 . S
C569 C547 1.420 . S
C569 C570 1.351 . S
C570 H532 0.930 . S
C570 C538 1.423 . S
C570 C569 1.351 . S
C571 O555 1.276 . S
C571 O558 1.235 . S
C572 C573 1.393 . S
C572 C576 1.395 . S
C572 C579 1.492 . S
C573 C572 1.393 . S
C573 C574 1.392 . S
C573 H584 0.930 . S
C574 C573 1.392 . S
C574 C575 1.386 . S
C575 C574 1.386 . S
C575 C577 1.395 . S
C575 H585 0.930 . S
C576 C572 1.395 . S
C576 C577 1.379 . S
C576 H586 0.930 . S
C577 C575 1.395 . S
C577 C576 1.379 . S
C577 H587 0.930 . S
C578 O556 1.264 . S
C578 O557 1.254 . S
C579 Eu515 2.848 . S
C579 O554 1.257 . S
C579 O559 1.249 . S
C579 C572 1.492 . S
H580 C563 0.930 . S
H581 C564 0.930 . S
H582 C565 0.930 . S
H583 C566 0.930 . S
H584 C573 0.930 . S
H585 C575 0.930 . S
H586 C576 0.930 . S
H587 C577 0.930 . S
Eu588 N619 2.657 . S
Eu588 N626 2.609 . S
Eu588 O632 2.558 . S
Eu588 O633 2.612 . S
Eu588 O635 2.339 . S
Eu588 O636 2.563 . S
Eu588 O637 2.419 . S
Eu588 O639 2.380 . S
Eu588 O640 2.432 . S
Eu588 C652 2.848 . S
C589 C592 1.429 . S
C589 C593 1.411 . S
C589 N596 1.377 . S
C590 C592 1.420 . S
C590 C594 1.423 . S
C590 C602 1.392 . S
C591 C593 1.420 . S
C591 C594 1.351 . S
C591 H614 0.931 . S
C592 C589 1.429 . S
C592 C590 1.420 . S
C592 N600 1.362 . S
C593 C589 1.411 . S
C593 C591 1.420 . S
C593 C598 1.395 . S
C594 C590 1.423 . S
C594 C591 1.351 . S
C594 H606 0.930 . S
C595 C597 1.400 . S
C595 C598 1.386 . S
C595 H607 0.930 . S
N596 C589 1.377 . S
N596 C597 1.321 . S
N596 Eu599 2.609 . S
C597 C595 1.400 . S
C597 N596 1.321 . S
C597 H604 0.930 . S
C598 C593 1.395 . S
C598 C595 1.386 . S
C598 H617 0.930 . S
Eu599 N596 2.609 . S
Eu599 N600 2.657 . S
Eu599 O633 2.380 . S
Eu599 O634 2.432 . S
Eu599 O638 2.558 . S
Eu599 O639 2.612 . S
Eu599 O641 2.339 . S
Eu599 O642 2.563 . S
Eu599 O643 2.419 . S
Eu599 C663 2.848 . S
N600 C592 1.362 . S
N600 Eu599 2.657 . S
N600 C601 1.334 . S
C601 N600 1.334 . S
C601 C603 1.413 . S
C601 H608 0.929 . S
C602 C590 1.392 . S
C602 C603 1.367 . S
C602 H610 0.930 . S
C603 C601 1.413 . S
C603 C602 1.367 . S
C603 H605 0.930 . S
H604 C597 0.930 . S
H605 C603 0.930 . S
H606 C594 0.930 . S
H607 C595 0.930 . S
H608 C601 0.929 . S
H609 C623 0.930 . S
H610 C602 0.930 . S
H611 C629 0.930 . S
H612 C620 0.929 . S
H613 C627 0.930 . S
H614 C591 0.931 . S
H615 C621 0.930 . S
H616 C654 0.930 . S
H617 C598 0.930 . S
H618 C653 0.931 . S
N619 Eu588 2.657 . S
N619 C620 1.334 . S
N619 C624 1.362 . S
C620 H612 0.929 . S
C620 N619 1.334 . S
C620 C623 1.413 . S
C621 H615 0.930 . S
C621 C622 1.392 . S
C621 C623 1.367 . S
C622 C621 1.392 . S
C622 C624 1.420 . S
C622 C654 1.423 . S
C623 H609 0.930 . S
C623 C620 1.413 . S
C623 C621 1.367 . S
C624 N619 1.362 . S
C624 C622 1.420 . S
C624 C628 1.429 . S
H625 C630 0.930 . S
N626 Eu588 2.609 . S
N626 C628 1.377 . S
N626 C629 1.321 . S
C627 H613 0.930 . S
C627 C629 1.400 . S
C627 C630 1.386 . S
C628 C624 1.429 . S
C628 N626 1.377 . S
C628 C631 1.411 . S
C629 H611 0.930 . S
C629 N626 1.321 . S
C629 C627 1.400 . S
C630 H625 0.930 . S
C630 C627 1.386 . S
C630 C631 1.395 . S
C631 C628 1.411 . S
C631 C630 1.395 . S
C631 C653 1.420 . S
O632 Eu588 2.558 . S
O632 C652 1.257 . S
O633 Eu588 2.612 . S
O633 Eu599 2.380 . S
O633 C644 1.276 . S
O634 Eu599 2.432 . S
O634 C651 1.264 . S
O635 Eu588 2.339 . S
O635 C651 1.254 . S
O636 Eu588 2.563 . S
O636 C644 1.235 . S
O637 Eu588 2.419 . S
O637 C652 1.249 . S
O638 Eu599 2.558 . S
O638 C663 1.257 . S
O639 Eu588 2.380 . S
O639 Eu599 2.612 . S
O639 C655 1.276 . S
O640 Eu588 2.432 . S
O640 C662 1.264 . S
O641 Eu599 2.339 . S
O641 C662 1.254 . S
O642 Eu599 2.563 . S
O642 C655 1.235 . S
O643 Eu599 2.419 . S
O643 C663 1.249 . S
C644 O633 1.276 . S
C644 O636 1.235 . S
C645 C647 1.393 . S
C645 C649 1.395 . S
C645 C652 1.492 . S
C646 C647 1.392 . S
C646 C648 1.386 . S
C647 C645 1.393 . S
C647 C646 1.392 . S
C647 H664 0.930 . S
C648 C646 1.386 . S
C648 C650 1.395 . S
C648 H665 0.930 . S
C649 C645 1.395 . S
C649 C650 1.379 . S
C649 H666 0.930 . S
C650 C648 1.395 . S
C650 C649 1.379 . S
C650 H667 0.930 . S
C651 O634 1.264 . S
C651 O635 1.254 . S
C652 Eu588 2.848 . S
C652 O632 1.257 . S
C652 O637 1.249 . S
C652 C645 1.492 . S
C653 H618 0.931 . S
C653 C631 1.420 . S
C653 C654 1.351 . S
C654 H616 0.930 . S
C654 C622 1.423 . S
C654 C653 1.351 . S
C655 O639 1.276 . S
C655 O642 1.235 . S
C656 C657 1.393 . S
C656 C660 1.395 . S
C656 C663 1.492 . S
C657 C656 1.393 . S
C657 C658 1.392 . S
C657 H668 0.930 . S
C658 C657 1.392 . S
C658 C659 1.386 . S
C659 C658 1.386 . S
C659 C661 1.395 . S
C659 H669 0.930 . S
C660 C656 1.395 . S
C660 C661 1.379 . S
C660 H670 0.930 . S
C661 C659 1.395 . S
C661 C660 1.379 . S
C661 H671 0.930 . S
C662 O640 1.264 . S
C662 O641 1.254 . S
C663 Eu599 2.848 . S
C663 O638 1.257 . S
C663 O643 1.249 . S
C663 C656 1.492 . S
H664 C647 0.930 . S
H665 C648 0.930 . S
H666 C649 0.930 . S
H667 C650 0.930 . S
H668 C657 0.930 . S
H669 C659 0.930 . S
H670 C660 0.930 . S
H671 C661 0.930 . S
Fe672 O673 1.886 1_455 S
Fe672 O676 1.715 . S
Fe672 O681 2.077 1_455 S
Fe672 O686 1.935 . S
Fe672 O692 2.077 1_455 S
Fe672 O701 1.935 . S
O673 Fe672 1.886 1_655 S
O673 Fe675 1.715 1_545 S
Fe674 O676 1.886 . S
Fe674 O677 1.715 1_545 S
Fe674 O684 1.935 1_545 S
Fe674 O685 2.077 . S
Fe674 O691 1.935 1_545 S
Fe674 O700 2.077 . S
Fe675 O673 1.715 1_565 S
Fe675 O678 1.886 . S
Fe675 O682 1.935 1_565 S
Fe675 O687 2.077 . S
Fe675 O693 1.935 1_565 S
Fe675 O697 2.077 . S
O676 Fe672 1.715 . S
O676 Fe674 1.886 . S
O677 Fe674 1.715 1_565 S
O677 Fe679 1.886 1_455 S
O678 Fe675 1.886 . S
O678 Fe679 1.715 . S
Fe679 O677 1.886 1_655 S
Fe679 O678 1.715 . S
Fe679 O683 2.077 1_655 S
Fe679 O688 1.935 . S
Fe679 O690 2.077 1_655 S
Fe679 O698 1.935 . S
C680 O692 1.381 . S
C680 O693 1.421 . S
O681 Fe672 2.077 1_655 S
O681 C694 1.381 . S
O682 Fe675 1.935 1_545 S
O682 C694 1.421 . S
O683 Fe679 2.077 1_455 S
O683 C699 1.381 . S
O684 Fe674 1.935 1_565 S
O684 C699 1.421 . S
O685 Fe674 2.077 . S
O685 C689 1.381 . S
O686 Fe672 1.935 . S
O686 C689 1.421 . S
O687 Fe675 2.077 . S
O687 C695 1.381 . S
O688 Fe679 1.935 . S
O688 C695 1.421 . S
C689 O685 1.381 . S
C689 O686 1.421 . S
O690 Fe679 2.077 1_455 S
O690 C702 1.381 . S
O691 Fe674 1.935 1_565 S
O691 C702 1.421 . S
O692 Fe672 2.077 1_655 S
O692 C680 1.381 . S
O693 Fe675 1.935 1_545 S
O693 C680 1.421 . S
C694 O681 1.381 . S
C694 O682 1.421 . S
C695 O687 1.381 . S
C695 O688 1.421 . S
C696 O697 1.381 . S
C696 O698 1.421 . S
O697 Fe675 2.077 . S
O697 C696 1.381 . S
O698 Fe679 1.935 . S
O698 C696 1.421 . S
C699 O683 1.381 . S
C699 O684 1.421 . S
O700 Fe674 2.077 . S
O700 C703 1.381 . S
O701 Fe672 1.935 . S
O701 C703 1.421 . S
C702 O690 1.381 . S
C702 O691 1.421 . S
C703 O700 1.381 . S
C703 O701 1.421 . S
Fe704 O705 1.886 . S
Fe704 O708 1.715 . S
Fe704 O713 2.077 1_554 S
Fe704 O718 1.935 1_554 S
Fe704 O724 2.077 . S
Fe704 O733 1.935 . S
O705 Fe704 1.886 . S
O705 Fe707 1.715 1_565 S
Fe706 O708 1.886 1_556 S
Fe706 O709 1.715 1_565 S
Fe706 O716 1.935 1_565 S
Fe706 O717 2.077 . S
Fe706 O723 1.935 1_566 S
Fe706 O732 2.077 1_556 S
Fe707 O705 1.715 1_545 S
Fe707 O710 1.885 1_554 S
Fe707 O714 1.935 1_544 S
Fe707 O719 2.077 1_554 S
Fe707 O725 1.935 1_545 S
Fe707 O729 2.077 . S
O708 Fe704 1.715 . S
O708 Fe706 1.886 1_554 S
O709 Fe706 1.715 1_545 S
O709 Fe711 1.886 . S
O710 Fe707 1.885 1_556 S
O710 Fe711 1.715 . S
Fe711 O709 1.886 . S
Fe711 O710 1.715 . S
Fe711 O715 2.077 . S
Fe711 O720 1.935 . S
Fe711 O722 2.077 1_556 S
Fe711 O730 1.935 1_556 S
C712 O724 1.381 . S
C712 O725 1.421 . S
O713 Fe704 2.077 1_556 S
O713 C726 1.381 . S
O714 Fe707 1.935 1_566 S
O714 C726 1.421 . S
O715 Fe711 2.077 . S
O715 C731 1.381 . S
O716 Fe706 1.935 1_545 S
O716 C731 1.421 . S
O717 Fe706 2.077 . S
O717 C721 1.381 . S
O718 Fe704 1.935 1_556 S
O718 C721 1.421 . S
O719 Fe707 2.077 1_556 S
O719 C727 1.381 . S
O720 Fe711 1.935 . S
O720 C727 1.421 . S
C721 O717 1.381 . S
C721 O718 1.421 . S
O722 Fe711 2.077 1_554 S
O722 C734 1.381 . S
O723 Fe706 1.935 1_544 S
O723 C734 1.421 . S
O724 Fe704 2.077 . S
O724 C712 1.381 . S
O725 Fe707 1.935 1_565 S
O725 C712 1.421 . S
C726 O713 1.381 . S
C726 O714 1.421 . S
C727 O719 1.381 . S
C727 O720 1.421 . S
C728 O729 1.381 . S
C728 O730 1.421 . S
O729 Fe707 2.077 . S
O729 C728 1.381 . S
O730 Fe711 1.935 1_554 S
O730 C728 1.421 . S
C731 O715 1.381 . S
C731 O716 1.421 . S
O732 Fe706 2.077 1_554 S
O732 C735 1.381 . S
O733 Fe704 1.935 . S
O733 C735 1.421 . S
C734 O722 1.381 . S
C734 O723 1.421 . S
C735 O732 1.381 . S
C735 O733 1.421 . S
Fe736 O737 1.886 1_455 S
Fe736 O740 1.716 . S
Fe736 O745 2.077 1_455 S
Fe736 O750 1.935 . S
Fe736 O756 2.077 1_456 S
Fe736 O765 1.935 1_556 S
O737 Fe736 1.886 1_655 S
O737 Fe739 1.715 . S
Fe738 O740 1.885 1_554 S
Fe738 O741 1.715 . S
Fe738 O748 1.935 1_554 S
Fe738 O749 2.077 1_554 S
Fe738 O755 1.935 . S
Fe738 O764 2.077 . S
Fe739 O737 1.715 . S
Fe739 O742 1.886 1_556 S
Fe739 O746 1.935 . S
Fe739 O751 2.077 . S
Fe739 O757 1.935 1_556 S
Fe739 O761 2.077 1_556 S
O740 Fe736 1.716 . S
O740 Fe738 1.885 1_556 S
O741 Fe738 1.715 . S
O741 Fe743 1.886 1_455 S
O742 Fe739 1.886 1_554 S
O742 Fe743 1.715 . S
Fe743 O741 1.886 1_655 S
Fe743 O742 1.715 . S
Fe743 O747 2.077 1_654 S
Fe743 O752 1.935 1_554 S
Fe743 O754 2.077 1_655 S
Fe743 O762 1.935 . S
C744 O756 1.381 . S
C744 O757 1.421 . S
O745 Fe736 2.077 1_655 S
O745 C758 1.381 . S
O746 Fe739 1.935 . S
O746 C758 1.421 . S
O747 Fe743 2.077 1_456 S
O747 C763 1.381 . S
O748 Fe738 1.935 1_556 S
O748 C763 1.421 . S
O749 Fe738 2.077 1_556 S
O749 C753 1.381 . S
O750 Fe736 1.935 . S
O750 C753 1.421 . S
O751 Fe739 2.077 . S
O751 C759 1.381 . S
O752 Fe743 1.935 1_556 S
O752 C759 1.421 . S
C753 O749 1.381 . S
C753 O750 1.421 . S
O754 Fe743 2.077 1_455 S
O754 C766 1.381 . S
O755 Fe738 1.935 . S
O755 C766 1.421 . S
O756 Fe736 2.077 1_654 S
O756 C744 1.381 . S
O757 Fe739 1.935 1_554 S
O757 C744 1.421 . S
C758 O745 1.381 . S
C758 O746 1.421 . S
C759 O751 1.381 . S
C759 O752 1.421 . S
C760 O761 1.381 . S
C760 O762 1.421 . S
O761 Fe739 2.077 1_554 S
O761 C760 1.381 . S
O762 Fe743 1.935 . S
O762 C760 1.421 . S
C763 O747 1.381 . S
C763 O748 1.421 . S
O764 Fe738 2.077 . S
O764 C767 1.381 . S
O765 Fe736 1.935 1_554 S
O765 C767 1.421 . S
C766 O754 1.381 . S
C766 O755 1.421 . S
C767 O764 1.381 . S
C767 O765 1.421 . S
Fe768 O769 1.886 . S
Fe768 O772 1.715 . S
Fe768 O777 2.077 . S
Fe768 O782 1.935 . S
Fe768 O788 2.077 . S
Fe768 O797 1.935 . S
O769 Fe768 1.886 . S
O769 Fe771 1.715 1_556 S
Fe770 O772 1.886 . S
Fe770 O773 1.715 1_556 S
Fe770 O780 1.935 1_556 S
Fe770 O781 2.077 . S
Fe770 O787 1.935 1_556 S
Fe770 O796 2.077 . S
Fe771 O769 1.715 1_554 S
Fe771 O774 1.886 . S
Fe771 O778 1.935 1_554 S
Fe771 O783 2.077 . S
Fe771 O789 1.935 1_554 S
Fe771 O793 2.077 . S
O772 Fe768 1.715 . S
O772 Fe770 1.886 . S
O773 Fe770 1.715 1_554 S
O773 Fe775 1.886 . S
O774 Fe771 1.886 . S
O774 Fe775 1.715 . S
Fe775 O773 1.886 . S
Fe775 O774 1.715 . S
Fe775 O779 2.077 . S
Fe775 O784 1.935 . S
Fe775 O786 2.077 . S
Fe775 O794 1.935 . S
C776 O788 1.381 . S
C776 O789 1.421 . S
O777 Fe768 2.077 . S
O777 C790 1.381 . S
O778 Fe771 1.935 1_556 S
O778 C790 1.421 . S
O779 Fe775 2.077 . S
O779 C795 1.381 . S
O780 Fe770 1.935 1_554 S
O780 C795 1.421 . S
O781 Fe770 2.077 . S
O781 C785 1.381 . S
O782 Fe768 1.935 . S
O782 C785 1.421 . S
O783 Fe771 2.077 . S
O783 C791 1.381 . S
O784 Fe775 1.935 . S
O784 C791 1.421 . S
C785 O781 1.381 . S
C785 O782 1.421 . S
O786 Fe775 2.077 . S
O786 C798 1.381 . S
O787 Fe770 1.935 1_554 S
O787 C798 1.421 . S
O788 Fe768 2.077 . S
O788 C776 1.381 . S
O789 Fe771 1.935 1_556 S
O789 C776 1.421 . S
C790 O777 1.381 . S
C790 O778 1.421 . S
C791 O783 1.381 . S
C791 O784 1.421 . S
C792 O793 1.381 . S
C792 O794 1.421 . S
O793 Fe771 2.077 . S
O793 C792 1.381 . S
O794 Fe775 1.935 . S
O794 C792 1.421 . S
C795 O779 1.381 . S
C795 O780 1.421 . S
O796 Fe770 2.077 . S
O796 C799 1.381 . S
O797 Fe768 1.935 . S
O797 C799 1.421 . S
C798 O786 1.381 . S
C798 O787 1.421 . S
C799 O796 1.381 . S
C799 O797 1.421 . S
Fe800 O801 1.886 . S
Fe800 O804 1.715 . S
Fe800 O809 2.077 1_655 S
Fe800 O814 1.935 1_655 S
Fe800 O820 2.077 . S
Fe800 O829 1.935 . S
O801 Fe800 1.886 . S
O801 Fe803 1.715 1_655 S
Fe802 O804 1.886 . S
Fe802 O805 1.715 1_655 S
Fe802 O812 1.935 1_655 S
Fe802 O813 2.077 1_655 S
Fe802 O819 1.935 . S
Fe802 O828 2.077 . S
Fe803 O801 1.715 1_455 S
Fe803 O806 1.886 . S
Fe803 O810 1.935 . S
Fe803 O815 2.077 . S
Fe803 O821 1.935 1_455 S
Fe803 O825 2.077 1_455 S
O804 Fe800 1.715 . S
O804 Fe802 1.886 . S
O805 Fe802 1.715 1_455 S
O805 Fe807 1.886 . S
O806 Fe803 1.886 . S
O806 Fe807 1.715 . S
Fe807 O805 1.886 . S
Fe807 O806 1.715 . S
Fe807 O811 2.077 . S
Fe807 O816 1.935 . S
Fe807 O818 2.077 1_455 S
Fe807 O826 1.935 1_455 S
C808 O820 1.381 . S
C808 O821 1.421 . S
O809 Fe800 2.077 1_455 S
O809 C822 1.381 . S
O810 Fe803 1.935 . S
O810 C822 1.421 . S
O811 Fe807 2.077 . S
O811 C827 1.381 . S
O812 Fe802 1.935 1_455 S
O812 C827 1.421 . S
O813 Fe802 2.077 1_455 S
O813 C817 1.381 . S
O814 Fe800 1.935 1_455 S
O814 C817 1.421 . S
O815 Fe803 2.077 . S
O815 C823 1.381 . S
O816 Fe807 1.935 . S
O816 C823 1.421 . S
C817 O813 1.381 . S
C817 O814 1.421 . S
O818 Fe807 2.077 1_655 S
O818 C830 1.381 . S
O819 Fe802 1.935 . S
O819 C830 1.421 . S
O820 Fe800 2.077 . S
O820 C808 1.381 . S
O821 Fe803 1.935 1_655 S
O821 C808 1.421 . S
C822 O809 1.381 . S
C822 O810 1.421 . S
C823 O815 1.381 . S
C823 O816 1.421 . S
C824 O825 1.381 . S
C824 O826 1.421 . S
O825 Fe803 2.077 1_655 S
O825 C824 1.381 . S
O826 Fe807 1.935 1_655 S
O826 C824 1.421 . S
C827 O811 1.381 . S
C827 O812 1.421 . S
O828 Fe802 2.077 . S
O828 C831 1.381 . S
O829 Fe800 1.935 . S
O829 C831 1.421 . S
C830 O818 1.381 . S
C830 O819 1.421 . S
C831 O828 1.381 . S
C831 O829 1.421 . S
Fe832 O833 1.886 . S
Fe832 O836 1.715 . S
Fe832 O841 2.077 . S
Fe832 O846 1.935 . S
Fe832 O852 2.077 . S
Fe832 O861 1.935 . S
O833 Fe832 1.886 . S
O833 Fe835 1.715 . S
Fe834 O836 1.886 1_545 S
Fe834 O837 1.715 . S
Fe834 O844 1.935 . S
Fe834 O845 2.077 1_545 S
Fe834 O851 1.935 . S
Fe834 O860 2.077 1_545 S
Fe835 O833 1.715 . S
Fe835 O838 1.886 1_565 S
Fe835 O842 1.935 . S
Fe835 O847 2.077 1_565 S
Fe835 O853 1.935 . S
Fe835 O857 2.077 1_565 S
O836 Fe832 1.715 . S
O836 Fe834 1.886 1_565 S
O837 Fe834 1.715 . S
O837 Fe839 1.886 . S
O838 Fe835 1.886 1_545 S
O838 Fe839 1.715 . S
Fe839 O837 1.886 . S
Fe839 O838 1.715 . S
Fe839 O843 2.077 . S
Fe839 O848 1.935 . S
Fe839 O850 2.077 . S
Fe839 O858 1.935 . S
C840 O852 1.381 . S
C840 O853 1.421 . S
O841 Fe832 2.077 . S
O841 C854 1.381 . S
O842 Fe835 1.935 . S
O842 C854 1.421 . S
O843 Fe839 2.077 . S
O843 C859 1.381 . S
O844 Fe834 1.935 . S
O844 C859 1.421 . S
O845 Fe834 2.077 1_565 S
O845 C849 1.381 . S
O846 Fe832 1.935 . S
O846 C849 1.421 . S
O847 Fe835 2.077 1_545 S
O847 C855 1.381 . S
O848 Fe839 1.935 . S
O848 C855 1.421 . S
C849 O845 1.381 . S
C849 O846 1.421 . S
O850 Fe839 2.077 . S
O850 C862 1.381 . S
O851 Fe834 1.935 . S
O851 C862 1.421 . S
O852 Fe832 2.077 . S
O852 C840 1.381 . S
O853 Fe835 1.935 . S
O853 C840 1.421 . S
C854 O841 1.381 . S
C854 O842 1.421 . S
C855 O847 1.381 . S
C855 O848 1.421 . S
C856 O857 1.381 . S
C856 O858 1.421 . S
O857 Fe835 2.077 1_545 S
O857 C856 1.381 . S
O858 Fe839 1.935 . S
O858 C856 1.421 . S
C859 O843 1.381 . S
C859 O844 1.421 . S
O860 Fe834 2.077 1_565 S
O860 C863 1.381 . S
O861 Fe832 1.935 . S
O861 C863 1.421 . S
C862 O850 1.381 . S
C862 O851 1.421 . S
C863 O860 1.381 . S
C863 O861 1.421 . S
H864 C882 0.951 . S
H865 C884 0.951 . S
H866 C886 0.950 . S
H867 C887 0.950 . S
H868 C889 0.950 . S
H869 C892 0.950 . S
H870 C893 0.950 . S
H871 C895 0.950 . S
H872 C896 0.950 . S
H873 C897 0.951 . S
H874 C899 0.951 . S
H875 C901 0.950 . S
H876 C902 0.950 . S
H877 C904 0.950 . S
H878 C907 0.950 . S
H879 C908 0.950 . S
H880 C910 0.950 . S
H881 C911 0.950 . S
C882 H864 0.951 . S
C882 C883 1.366 . S
C882 C884 1.388 . S
C883 C882 1.366 . S
C883 C887 1.385 . S
C884 H865 0.951 . S
C884 C882 1.388 . S
C884 C885 1.366 . S
C885 C884 1.366 . S
C885 C886 1.414 . S
C885 C888 1.499 . S
C886 H866 0.950 . S
C886 C885 1.414 . S
C886 C887 1.374 . S
C887 H867 0.950 . S
C887 C883 1.385 . S
C887 C886 1.374 . S
C888 C885 1.499 . S
C888 C889 1.373 . S
C888 C890 1.389 . S
C889 H868 0.950 . S
C889 C888 1.373 . S
C889 C905 1.377 . S
C890 C888 1.389 . S
C890 C891 1.524 . S
C890 C904 1.377 . S
C891 C890 1.524 . S
C891 C892 1.397 . S
C891 C896 1.363 . S
C892 H869 0.950 . S
C892 C891 1.397 . S
C892 C893 1.334 . S
C893 H870 0.950 . S
C893 C892 1.334 . S
C893 C894 1.287 . S
C894 C893 1.287 . S
C894 C895 1.524 . S
C894 H913 0.913 . S
C895 H871 0.950 . S
C895 C894 1.524 . S
C895 C896 1.415 . S
C896 H872 0.950 . S
C896 C891 1.363 . S
C896 C895 1.415 . S
C897 H873 0.951 . S
C897 C898 1.366 . S
C897 C899 1.388 . S
C898 C897 1.366 . S
C898 C902 1.385 . S
C899 H874 0.951 . S
C899 C897 1.388 . S
C899 C900 1.366 . S
C900 C899 1.366 . S
C900 C901 1.414 . S
C900 C903 1.499 . S
C901 H875 0.950 . S
C901 C900 1.414 . S
C901 C902 1.374 . S
C902 H876 0.950 . S
C902 C898 1.385 . S
C902 C901 1.374 . S
C903 C900 1.499 . S
C903 C904 1.373 . S
C903 C905 1.389 . S
C904 H877 0.950 . S
C904 C890 1.377 . S
C904 C903 1.373 . S
C905 C889 1.377 . S
C905 C903 1.389 . S
C905 C906 1.524 . S
C906 C905 1.524 . S
C906 C907 1.397 . S
C906 C911 1.363 . S
C907 H878 0.950 . S
C907 C906 1.397 . S
C907 C908 1.334 . S
C908 H879 0.950 . S
C908 C907 1.334 . S
C908 C909 1.287 . S
C909 C908 1.287 . S
C909 C910 1.524 . S
C909 H912 0.999 . S
C910 H880 0.950 . S
C910 C909 1.524 . S
C910 C911 1.415 . S
C911 H881 0.950 . S
C911 C906 1.363 . S
C911 C910 1.415 . S
H912 C909 0.999 . S
H913 C894 0.913 . S
H914 C932 0.951 . S
H915 C934 0.951 . S
H916 C936 0.950 . S
H917 C937 0.950 . S
H918 C939 0.950 . S
H919 C942 0.950 . S
H920 C943 0.950 . S
H921 C945 0.950 . S
H922 C946 0.950 . S
H923 C947 0.951 . S
H924 C949 0.951 . S
H925 C951 0.950 . S
H926 C952 0.950 . S
H927 C954 0.950 . S
H928 C957 0.950 . S
H929 C958 0.950 . S
H930 C960 0.950 . S
H931 C961 0.950 . S
C932 H914 0.951 . S
C932 C933 1.366 . S
C932 C934 1.388 . S
C933 C932 1.366 . S
C933 C937 1.385 . S
C934 H915 0.951 . S
C934 C932 1.388 . S
C934 C935 1.366 . S
C935 C934 1.366 . S
C935 C936 1.414 . S
C935 C938 1.499 . S
C936 H916 0.950 . S
C936 C935 1.414 . S
C936 C937 1.374 . S
C937 H917 0.950 . S
C937 C933 1.385 . S
C937 C936 1.374 . S
C938 C935 1.499 . S
C938 C939 1.373 . S
C938 C940 1.389 . S
C939 H918 0.950 . S
C939 C938 1.373 . S
C939 C955 1.377 . S
C940 C938 1.389 . S
C940 C941 1.524 . S
C940 C954 1.377 . S
C941 C940 1.524 . S
C941 C942 1.397 . S
C941 C946 1.363 . S
C942 H919 0.950 . S
C942 C941 1.397 . S
C942 C943 1.334 . S
C943 H920 0.950 . S
C943 C942 1.334 . S
C943 C944 1.287 . S
C944 C943 1.287 . S
C944 C945 1.524 . S
C944 H963 0.913 . S
C945 H921 0.950 . S
C945 C944 1.524 . S
C945 C946 1.415 . S
C946 H922 0.950 . S
C946 C941 1.363 . S
C946 C945 1.415 . S
C947 H923 0.951 . S
C947 C948 1.366 . S
C947 C949 1.388 . S
C948 C947 1.366 . S
C948 C952 1.385 . S
C949 H924 0.951 . S
C949 C947 1.388 . S
C949 C950 1.366 . S
C950 C949 1.366 . S
C950 C951 1.414 . S
C950 C953 1.499 . S
C951 H925 0.950 . S
C951 C950 1.414 . S
C951 C952 1.374 . S
C952 H926 0.950 . S
C952 C948 1.385 . S
C952 C951 1.374 . S
C953 C950 1.499 . S
C953 C954 1.373 . S
C953 C955 1.389 . S
C954 H927 0.950 . S
C954 C940 1.377 . S
C954 C953 1.373 . S
C955 C939 1.377 . S
C955 C953 1.389 . S
C955 C956 1.524 . S
C956 C955 1.524 . S
C956 C957 1.397 . S
C956 C961 1.363 . S
C957 H928 0.950 . S
C957 C956 1.397 . S
C957 C958 1.334 . S
C958 H929 0.950 . S
C958 C957 1.334 . S
C958 C959 1.287 . S
C959 C958 1.287 . S
C959 C960 1.524 . S
C959 H962 0.999 . S
C960 H930 0.950 . S
C960 C959 1.524 . S
C960 C961 1.415 . S
C961 H931 0.950 . S
C961 C956 1.363 . S
C961 C960 1.415 . S
H962 C959 0.999 . S
H963 C944 0.913 . S
H964 C982 0.951 . S
H965 C984 0.951 . S
H966 C986 0.950 . S
H967 C987 0.950 . S
H968 C989 0.950 . S
H969 C992 0.950 . S
H970 C993 0.950 . S
H971 C995 0.950 . S
H972 C996 0.950 . S
H973 C997 0.951 . S
H974 C999 0.951 . S
H975 C1001 0.950 . S
H976 C1002 0.950 . S
H977 C1004 0.950 . S
H978 C1007 0.950 . S
H979 C1008 0.950 . S
H980 C1010 0.950 . S
H981 C1011 0.950 . S
C982 H964 0.951 . S
C982 C983 1.366 . S
C982 C984 1.388 . S
C983 C982 1.366 . S
C983 C987 1.385 . S
C984 H965 0.951 . S
C984 C982 1.388 . S
C984 C985 1.366 . S
C985 C984 1.366 . S
C985 C986 1.414 . S
C985 C988 1.499 . S
C986 H966 0.950 . S
C986 C985 1.414 . S
C986 C987 1.374 . S
C987 H967 0.950 . S
C987 C983 1.385 . S
C987 C986 1.374 . S
C988 C985 1.499 . S
C988 C989 1.373 . S
C988 C990 1.389 . S
C989 H968 0.950 . S
C989 C988 1.373 . S
C989 C1005 1.377 . S
C990 C988 1.389 . S
C990 C991 1.524 . S
C990 C1004 1.377 . S
C991 C990 1.524 . S
C991 C992 1.397 . S
C991 C996 1.363 . S
C992 H969 0.950 . S
C992 C991 1.397 . S
C992 C993 1.334 . S
C993 H970 0.950 . S
C993 C992 1.334 . S
C993 C994 1.287 . S
C994 C993 1.287 . S
C994 C995 1.524 . S
C994 H1013 0.913 . S
C995 H971 0.950 . S
C995 C994 1.524 . S
C995 C996 1.415 . S
C996 H972 0.950 . S
C996 C991 1.363 . S
C996 C995 1.415 . S
C997 H973 0.951 . S
C997 C998 1.366 . S
C997 C999 1.388 . S
C998 C997 1.366 . S
C998 C1002 1.385 . S
C999 H974 0.951 . S
C999 C997 1.388 . S
C999 C1000 1.366 . S
C1000 C999 1.366 . S
C1000 C1001 1.414 . S
C1000 C1003 1.499 . S
C1001 H975 0.950 . S
C1001 C1000 1.414 . S
C1001 C1002 1.374 . S
C1002 H976 0.950 . S
C1002 C998 1.385 . S
C1002 C1001 1.374 . S
C1003 C1000 1.499 . S
C1003 C1004 1.373 . S
C1003 C1005 1.389 . S
C1004 H977 0.950 . S
C1004 C990 1.377 . S
C1004 C1003 1.373 . S
C1005 C989 1.377 . S
C1005 C1003 1.389 . S
C1005 C1006 1.524 . S
C1006 C1005 1.524 . S
C1006 C1007 1.397 . S
C1006 C1011 1.363 . S
C1007 H978 0.950 . S
C1007 C1006 1.397 . S
C1007 C1008 1.334 . S
C1008 H979 0.950 . S
C1008 C1007 1.334 . S
C1008 C1009 1.287 . S
C1009 C1008 1.287 . S
C1009 C1010 1.524 . S
C1009 H1012 0.999 . S
C1010 H980 0.950 . S
C1010 C1009 1.524 . S
C1010 C1011 1.415 . S
C1011 H981 0.950 . S
C1011 C1006 1.363 . S
C1011 C1010 1.415 . S
H1012 C1009 0.999 . S
H1013 C994 0.913 . S
H1014 C1032 0.951 . S
H1015 C1034 0.951 . S
H1016 C1036 0.950 . S
H1017 C1037 0.950 . S
H1018 C1039 0.950 . S
H1019 C1042 0.950 . S
H1020 C1043 0.950 . S
H1021 C1045 0.950 . S
H1022 C1046 0.950 . S
H1023 C1047 0.951 . S
H1024 C1049 0.951 . S
H1025 C1051 0.950 . S
H1026 C1052 0.950 . S
H1027 C1054 0.950 . S
H1028 C1057 0.950 . S
H1029 C1058 0.950 . S
H1030 C1060 0.950 1_545 S
H1031 C1061 0.950 . S
C1032 H1014 0.951 . S
C1032 C1033 1.366 . S
C1032 C1034 1.388 . S
C1033 C1032 1.366 . S
C1033 C1037 1.385 . S
C1034 H1015 0.951 . S
C1034 C1032 1.388 . S
C1034 C1035 1.366 . S
C1035 C1034 1.366 . S
C1035 C1036 1.414 . S
C1035 C1038 1.499 . S
C1036 H1016 0.950 . S
C1036 C1035 1.414 . S
C1036 C1037 1.374 . S
C1037 H1017 0.950 . S
C1037 C1033 1.385 . S
C1037 C1036 1.374 . S
C1038 C1035 1.499 . S
C1038 C1039 1.373 . S
C1038 C1040 1.389 . S
C1039 H1018 0.950 . S
C1039 C1038 1.373 . S
C1039 C1055 1.377 . S
C1040 C1038 1.389 . S
C1040 C1041 1.524 . S
C1040 C1054 1.377 . S
C1041 C1040 1.524 . S
C1041 C1042 1.397 . S
C1041 C1046 1.363 . S
C1042 H1019 0.950 . S
C1042 C1041 1.397 . S
C1042 C1043 1.334 . S
C1043 H1020 0.950 . S
C1043 C1042 1.334 . S
C1043 C1044 1.287 . S
C1044 C1043 1.287 . S
C1044 C1045 1.524 . S
C1044 H1063 0.913 . S
C1045 H1021 0.950 . S
C1045 C1044 1.524 . S
C1045 C1046 1.415 . S
C1046 H1022 0.950 . S
C1046 C1041 1.363 . S
C1046 C1045 1.415 . S
C1047 H1023 0.951 . S
C1047 C1048 1.366 . S
C1047 C1049 1.388 . S
C1048 C1047 1.366 . S
C1048 C1052 1.385 . S
C1049 H1024 0.951 . S
C1049 C1047 1.388 . S
C1049 C1050 1.366 . S
C1050 C1049 1.366 . S
C1050 C1051 1.414 . S
C1050 C1053 1.499 . S
C1051 H1025 0.950 . S
C1051 C1050 1.414 . S
C1051 C1052 1.374 . S
C1052 H1026 0.950 . S
C1052 C1048 1.385 . S
C1052 C1051 1.374 . S
C1053 C1050 1.499 . S
C1053 C1054 1.373 . S
C1053 C1055 1.389 . S
C1054 H1027 0.950 . S
C1054 C1040 1.377 . S
C1054 C1053 1.373 . S
C1055 C1039 1.377 . S
C1055 C1053 1.389 . S
C1055 C1056 1.524 . S
C1056 C1055 1.524 . S
C1056 C1057 1.397 . S
C1056 C1061 1.363 . S
C1057 H1028 0.950 . S
C1057 C1056 1.397 . S
C1057 C1058 1.334 . S
C1058 H1029 0.950 . S
C1058 C1057 1.334 . S
C1058 C1059 1.284 1_565 S
C1059 C1058 1.284 1_545 S
C1059 C1060 1.523 1_545 S
C1059 H1062 1.004 . S
C1060 H1030 0.950 1_565 S
C1060 C1059 1.523 1_565 S
C1060 C1061 1.415 . S
C1061 H1031 0.950 . S
C1061 C1056 1.363 . S
C1061 C1060 1.415 . S
H1062 C1059 1.004 . S
H1063 C1044 0.913 . S
H1064 C1082 0.951 . S
H1065 C1084 0.951 . S
H1066 C1086 0.950 . S
H1067 C1087 0.950 . S
H1068 C1089 0.950 . S
H1069 C1092 0.950 . S
H1070 C1093 0.950 . S
H1071 C1095 0.950 . S
H1072 C1096 0.950 . S
H1073 C1097 0.951 . S
H1074 C1099 0.951 . S
H1075 C1101 0.950 . S
H1076 C1102 0.950 . S
H1077 C1104 0.950 . S
H1078 C1107 0.950 . S
H1079 C1108 0.950 1_655 S
H1080 C1110 0.950 . S
H1081 C1111 0.950 . S
C1082 H1064 0.951 . S
C1082 C1083 1.366 . S
C1082 C1084 1.388 . S
C1083 C1082 1.366 . S
C1083 C1087 1.385 . S
C1084 H1065 0.951 . S
C1084 C1082 1.388 . S
C1084 C1085 1.366 . S
C1085 C1084 1.366 . S
C1085 C1086 1.414 . S
C1085 C1088 1.499 . S
C1086 H1066 0.950 . S
C1086 C1085 1.414 . S
C1086 C1087 1.374 . S
C1087 H1067 0.950 . S
C1087 C1083 1.385 . S
C1087 C1086 1.374 . S
C1088 C1085 1.499 . S
C1088 C1089 1.373 . S
C1088 C1090 1.389 . S
C1089 H1068 0.950 . S
C1089 C1088 1.373 . S
C1089 C1105 1.377 . S
C1090 C1088 1.389 . S
C1090 C1091 1.524 . S
C1090 C1104 1.377 . S
C1091 C1090 1.524 . S
C1091 C1092 1.397 . S
C1091 C1096 1.363 . S
C1092 H1069 0.950 . S
C1092 C1091 1.397 . S
C1092 C1093 1.334 . S
C1093 H1070 0.950 . S
C1093 C1092 1.334 . S
C1093 C1094 1.287 . S
C1094 C1093 1.287 . S
C1094 C1095 1.524 . S
C1094 H1113 0.913 . S
C1095 H1071 0.950 . S
C1095 C1094 1.524 . S
C1095 C1096 1.415 . S
C1096 H1072 0.950 . S
C1096 C1091 1.363 . S
C1096 C1095 1.415 . S
C1097 H1073 0.951 . S
C1097 C1098 1.366 . S
C1097 C1099 1.388 . S
C1098 C1097 1.366 . S
C1098 C1102 1.385 . S
C1099 H1074 0.951 . S
C1099 C1097 1.388 . S
C1099 C1100 1.366 . S
C1100 C1099 1.366 . S
C1100 C1101 1.414 . S
C1100 C1103 1.499 . S
C1101 H1075 0.950 . S
C1101 C1100 1.414 . S
C1101 C1102 1.374 . S
C1102 H1076 0.950 . S
C1102 C1098 1.385 . S
C1102 C1101 1.374 . S
C1103 C1100 1.499 . S
C1103 C1104 1.373 . S
C1103 C1105 1.389 . S
C1104 H1077 0.950 . S
C1104 C1090 1.377 . S
C1104 C1103 1.373 . S
C1105 C1089 1.377 . S
C1105 C1103 1.389 . S
C1105 C1106 1.524 . S
C1106 C1105 1.524 . S
C1106 C1107 1.397 . S
C1106 C1111 1.363 . S
C1107 H1078 0.950 . S
C1107 C1106 1.397 . S
C1107 C1108 1.334 . S
C1108 H1079 0.950 1_455 S
C1108 C1107 1.334 . S
C1108 C1109 1.287 1_455 S
C1109 C1108 1.287 1_655 S
C1109 C1110 1.524 1_655 S
C1109 H1112 0.999 . S
C1110 H1080 0.950 . S
C1110 C1109 1.524 1_455 S
C1110 C1111 1.415 . S
C1111 H1081 0.950 . S
C1111 C1106 1.363 . S
C1111 C1110 1.415 . S
H1112 C1109 0.999 . S
H1113 C1094 0.913 . S
H1114 C1132 0.951 . S
H1115 C1134 0.951 . S
H1116 C1136 0.950 . S
H1117 C1137 0.950 . S
H1118 C1139 0.950 . S
H1119 C1142 0.950 . S
H1120 C1143 0.950 . S
H1121 C1145 0.950 . S
H1122 C1146 0.950 . S
H1123 C1147 0.951 . S
H1124 C1149 0.951 . S
H1125 C1151 0.950 . S
H1126 C1152 0.950 . S
H1127 C1154 0.950 . S
H1128 C1157 0.950 . S
H1129 C1158 0.950 . S
H1130 C1160 0.950 . S
H1131 C1161 0.950 . S
C1132 H1114 0.951 . S
C1132 C1133 1.366 . S
C1132 C1134 1.388 . S
C1133 C1132 1.366 . S
C1133 C1137 1.385 . S
C1134 H1115 0.951 . S
C1134 C1132 1.388 . S
C1134 C1135 1.366 . S
C1135 C1134 1.366 . S
C1135 C1136 1.414 . S
C1135 C1138 1.499 . S
C1136 H1116 0.950 . S
C1136 C1135 1.414 . S
C1136 C1137 1.374 . S
C1137 H1117 0.950 . S
C1137 C1133 1.385 . S
C1137 C1136 1.374 . S
C1138 C1135 1.499 . S
C1138 C1139 1.373 . S
C1138 C1140 1.389 . S
C1139 H1118 0.950 . S
C1139 C1138 1.373 . S
C1139 C1155 1.377 . S
C1140 C1138 1.389 . S
C1140 C1141 1.524 . S
C1140 C1154 1.377 . S
C1141 C1140 1.524 . S
C1141 C1142 1.397 . S
C1141 C1146 1.363 . S
C1142 H1119 0.950 . S
C1142 C1141 1.397 . S
C1142 C1143 1.334 . S
C1143 H1120 0.950 . S
C1143 C1142 1.334 . S
C1143 C1144 1.287 . S
C1144 C1143 1.287 . S
C1144 C1145 1.524 . S
C1144 H1163 0.913 . S
C1145 H1121 0.950 . S
C1145 C1144 1.524 . S
C1145 C1146 1.415 . S
C1146 H1122 0.950 . S
C1146 C1141 1.363 . S
C1146 C1145 1.415 . S
C1147 H1123 0.951 . S
C1147 C1148 1.366 . S
C1147 C1149 1.388 . S
C1148 C1147 1.366 . S
C1148 C1152 1.385 . S
C1149 H1124 0.951 . S
C1149 C1147 1.388 . S
C1149 C1150 1.366 . S
C1150 C1149 1.366 . S
C1150 C1151 1.414 . S
C1150 C1153 1.499 . S
C1151 H1125 0.950 . S
C1151 C1150 1.414 . S
C1151 C1152 1.374 . S
C1152 H1126 0.950 . S
C1152 C1148 1.385 . S
C1152 C1151 1.374 . S
C1153 C1150 1.499 . S
C1153 C1154 1.373 . S
C1153 C1155 1.389 . S
C1154 H1127 0.950 . S
C1154 C1140 1.377 . S
C1154 C1153 1.373 . S
C1155 C1139 1.377 . S
C1155 C1153 1.389 . S
C1155 C1156 1.524 . S
C1156 C1155 1.524 . S
C1156 C1157 1.397 . S
C1156 C1161 1.363 . S
C1157 H1128 0.950 . S
C1157 C1156 1.397 . S
C1157 C1158 1.334 . S
C1158 H1129 0.950 . S
C1158 C1157 1.334 . S
C1158 C1159 1.287 . S
C1159 C1158 1.287 . S
C1159 C1160 1.524 . S
C1159 H1162 0.999 . S
C1160 H1130 0.950 . S
C1160 C1159 1.524 . S
C1160 C1161 1.415 . S
C1161 H1131 0.950 . S
C1161 C1156 1.363 . S
C1161 C1160 1.415 . S
H1162 C1159 0.999 . S
H1163 C1144 0.913 . S
H1164 C1182 0.951 . S
H1165 C1184 0.951 . S
H1166 C1186 0.950 . S
H1167 C1187 0.950 . S
H1168 C1189 0.950 . S
H1169 C1192 0.950 . S
H1170 C1193 0.950 . S
H1171 C1195 0.950 . S
H1172 C1196 0.950 . S
H1173 C1197 0.951 . S
H1174 C1199 0.951 . S
H1175 C1201 0.950 . S
H1176 C1202 0.950 . S
H1177 C1204 0.950 . S
H1178 C1207 0.950 . S
H1179 C1208 0.950 1_455 S
H1180 C1210 0.950 . S
H1181 C1211 0.950 . S
C1182 H1164 0.951 . S
C1182 C1183 1.366 . S
C1182 C1184 1.388 . S
C1183 C1182 1.366 . S
C1183 C1187 1.385 . S
C1184 H1165 0.951 . S
C1184 C1182 1.388 . S
C1184 C1185 1.366 . S
C1185 C1184 1.366 . S
C1185 C1186 1.414 . S
C1185 C1188 1.499 . S
C1186 H1166 0.950 . S
C1186 C1185 1.414 . S
C1186 C1187 1.374 . S
C1187 H1167 0.950 . S
C1187 C1183 1.385 . S
C1187 C1186 1.374 . S
C1188 C1185 1.499 . S
C1188 C1189 1.373 . S
C1188 C1190 1.389 . S
C1189 H1168 0.950 . S
C1189 C1188 1.373 . S
C1189 C1205 1.377 . S
C1190 C1188 1.389 . S
C1190 C1191 1.524 . S
C1190 C1204 1.377 . S
C1191 C1190 1.524 . S
C1191 C1192 1.397 . S
C1191 C1196 1.363 . S
C1192 H1169 0.950 . S
C1192 C1191 1.397 . S
C1192 C1193 1.334 . S
C1193 H1170 0.950 . S
C1193 C1192 1.334 . S
C1193 C1194 1.287 . S
C1194 C1193 1.287 . S
C1194 C1195 1.524 . S
C1194 H1213 0.913 . S
C1195 H1171 0.950 . S
C1195 C1194 1.524 . S
C1195 C1196 1.415 . S
C1196 H1172 0.950 . S
C1196 C1191 1.363 . S
C1196 C1195 1.415 . S
C1197 H1173 0.951 . S
C1197 C1198 1.366 . S
C1197 C1199 1.388 . S
C1198 C1197 1.366 . S
C1198 C1202 1.385 . S
C1199 H1174 0.951 . S
C1199 C1197 1.388 . S
C1199 C1200 1.366 . S
C1200 C1199 1.366 . S
C1200 C1201 1.414 . S
C1200 C1203 1.499 . S
C1201 H1175 0.950 . S
C1201 C1200 1.414 . S
C1201 C1202 1.374 . S
C1202 H1176 0.950 . S
C1202 C1198 1.385 . S
C1202 C1201 1.374 . S
C1203 C1200 1.499 . S
C1203 C1204 1.373 . S
C1203 C1205 1.389 . S
C1204 H1177 0.950 . S
C1204 C1190 1.377 . S
C1204 C1203 1.373 . S
C1205 C1189 1.377 . S
C1205 C1203 1.389 . S
C1205 C1206 1.524 . S
C1206 C1205 1.524 . S
C1206 C1207 1.397 . S
C1206 C1211 1.363 . S
C1207 H1178 0.950 . S
C1207 C1206 1.397 . S
C1207 C1208 1.334 . S
C1208 H1179 0.950 1_655 S
C1208 C1207 1.334 . S
C1208 C1209 1.287 . S
C1209 C1208 1.287 . S
C1209 C1210 1.524 . S
C1209 H1212 0.999 1_655 S
C1210 H1180 0.950 . S
C1210 C1209 1.524 . S
C1210 C1211 1.415 . S
C1211 H1181 0.950 . S
C1211 C1206 1.363 . S
C1211 C1210 1.415 . S
H1212 C1209 0.999 1_455 S
H1213 C1194 0.913 . S
H1214 C1232 0.951 . S
H1215 C1234 0.951 . S
H1216 C1236 0.950 . S
H1217 C1237 0.950 . S
H1218 C1239 0.950 . S
H1219 C1242 0.950 . S
H1220 C1243 0.950 . S
H1221 C1245 0.950 . S
H1222 C1246 0.950 . S
H1223 C1247 0.951 . S
H1224 C1249 0.951 . S
H1225 C1251 0.950 . S
H1226 C1252 0.950 . S
H1227 C1254 0.950 . S
H1228 C1257 0.950 . S
H1229 C1258 0.950 . S
H1230 C1260 0.950 . S
H1231 C1261 0.950 . S
C1232 H1214 0.951 . S
C1232 C1233 1.366 . S
C1232 C1234 1.388 . S
C1233 C1232 1.366 . S
C1233 C1237 1.385 . S
C1234 H1215 0.951 . S
C1234 C1232 1.388 . S
C1234 C1235 1.366 . S
C1235 C1234 1.366 . S
C1235 C1236 1.414 . S
C1235 C1238 1.499 . S
C1236 H1216 0.950 . S
C1236 C1235 1.414 . S
C1236 C1237 1.374 . S
C1237 H1217 0.950 . S
C1237 C1233 1.385 . S
C1237 C1236 1.374 . S
C1238 C1235 1.499 . S
C1238 C1239 1.373 . S
C1238 C1240 1.389 . S
C1239 H1218 0.950 . S
C1239 C1238 1.373 . S
C1239 C1255 1.377 . S
C1240 C1238 1.389 . S
C1240 C1241 1.524 . S
C1240 C1254 1.377 . S
C1241 C1240 1.524 . S
C1241 C1242 1.397 . S
C1241 C1246 1.363 . S
C1242 H1219 0.950 . S
C1242 C1241 1.397 . S
C1242 C1243 1.334 . S
C1243 H1220 0.950 . S
C1243 C1242 1.334 . S
C1243 C1244 1.287 . S
C1244 C1243 1.287 . S
C1244 C1245 1.524 . S
C1244 H1263 0.913 . S
C1245 H1221 0.950 . S
C1245 C1244 1.524 . S
C1245 C1246 1.415 . S
C1246 H1222 0.950 . S
C1246 C1241 1.363 . S
C1246 C1245 1.415 . S
C1247 H1223 0.951 . S
C1247 C1248 1.366 . S
C1247 C1249 1.388 . S
C1248 C1247 1.366 . S
C1248 C1252 1.385 . S
C1249 H1224 0.951 . S
C1249 C1247 1.388 . S
C1249 C1250 1.366 . S
C1250 C1249 1.366 . S
C1250 C1251 1.414 . S
C1250 C1253 1.499 . S
C1251 H1225 0.950 . S
C1251 C1250 1.414 . S
C1251 C1252 1.374 . S
C1252 H1226 0.950 . S
C1252 C1248 1.385 . S
C1252 C1251 1.374 . S
C1253 C1250 1.499 . S
C1253 C1254 1.373 . S
C1253 C1255 1.389 . S
C1254 H1227 0.950 . S
C1254 C1240 1.377 . S
C1254 C1253 1.373 . S
C1255 C1239 1.377 . S
C1255 C1253 1.389 . S
C1255 C1256 1.524 . S
C1256 C1255 1.524 . S
C1256 C1257 1.397 . S
C1256 C1261 1.363 . S
C1257 H1228 0.950 . S
C1257 C1256 1.397 . S
C1257 C1258 1.334 . S
C1258 H1229 0.950 . S
C1258 C1257 1.334 . S
C1258 C1259 1.287 . S
C1259 C1258 1.287 . S
C1259 C1260 1.524 . S
C1259 H1262 0.999 . S
C1260 H1230 0.950 . S
C1260 C1259 1.524 . S
C1260 C1261 1.415 . S
C1261 H1231 0.950 . S
C1261 C1256 1.363 . S
C1261 C1260 1.415 . S
H1262 C1259 0.999 . S
H1263 C1244 0.913 . S
H1264 C1282 0.951 . S
H1265 C1284 0.951 . S
H1266 C1286 0.950 . S
H1267 C1287 0.950 . S
H1268 C1289 0.950 . S
H1269 C1292 0.950 . S
H1270 C1293 0.950 . S
H1271 C1295 0.950 . S
H1272 C1296 0.950 . S
H1273 C1297 0.951 . S
H1274 C1299 0.951 . S
H1275 C1301 0.950 . S
H1276 C1302 0.950 . S
H1277 C1304 0.950 . S
H1278 C1307 0.950 . S
H1279 C1308 0.950 . S
H1280 C1310 0.950 . S
H1281 C1311 0.950 . S
C1282 H1264 0.951 . S
C1282 C1283 1.366 . S
C1282 C1284 1.388 . S
C1283 C1282 1.366 . S
C1283 C1287 1.385 . S
C1284 H1265 0.951 . S
C1284 C1282 1.388 . S
C1284 C1285 1.366 . S
C1285 C1284 1.366 . S
C1285 C1286 1.414 . S
C1285 C1288 1.499 . S
C1286 H1266 0.950 . S
C1286 C1285 1.414 . S
C1286 C1287 1.374 . S
C1287 H1267 0.950 . S
C1287 C1283 1.385 . S
C1287 C1286 1.374 . S
C1288 C1285 1.499 . S
C1288 C1289 1.373 . S
C1288 C1290 1.389 . S
C1289 H1268 0.950 . S
C1289 C1288 1.373 . S
C1289 C1305 1.377 . S
C1290 C1288 1.389 . S
C1290 C1291 1.524 . S
C1290 C1304 1.377 . S
C1291 C1290 1.524 . S
C1291 C1292 1.397 . S
C1291 C1296 1.363 . S
C1292 H1269 0.950 . S
C1292 C1291 1.397 . S
C1292 C1293 1.334 . S
C1293 H1270 0.950 . S
C1293 C1292 1.334 . S
C1293 C1294 1.287 . S
C1294 C1293 1.287 . S
C1294 C1295 1.524 . S
C1294 H1313 0.913 . S
C1295 H1271 0.950 . S
C1295 C1294 1.524 . S
C1295 C1296 1.415 . S
C1296 H1272 0.950 . S
C1296 C1291 1.363 . S
C1296 C1295 1.415 . S
C1297 H1273 0.951 . S
C1297 C1298 1.366 . S
C1297 C1299 1.388 . S
C1298 C1297 1.366 . S
C1298 C1302 1.385 . S
C1299 H1274 0.951 . S
C1299 C1297 1.388 . S
C1299 C1300 1.366 . S
C1300 C1299 1.366 . S
C1300 C1301 1.414 . S
C1300 C1303 1.499 . S
C1301 H1275 0.950 . S
C1301 C1300 1.414 . S
C1301 C1302 1.374 . S
C1302 H1276 0.950 . S
C1302 C1298 1.385 . S
C1302 C1301 1.374 . S
C1303 C1300 1.499 . S
C1303 C1304 1.373 . S
C1303 C1305 1.389 . S
C1304 H1277 0.950 . S
C1304 C1290 1.377 . S
C1304 C1303 1.373 . S
C1305 C1289 1.377 . S
C1305 C1303 1.389 . S
C1305 C1306 1.524 . S
C1306 C1305 1.524 . S
C1306 C1307 1.397 . S
C1306 C1311 1.363 . S
C1307 H1278 0.950 . S
C1307 C1306 1.397 . S
C1307 C1308 1.334 . S
C1308 H1279 0.950 . S
C1308 C1307 1.334 . S
C1308 C1309 1.287 . S
C1309 C1308 1.287 . S
C1309 C1310 1.524 . S
C1309 H1312 0.999 . S
C1310 H1280 0.950 . S
C1310 C1309 1.524 . S
C1310 C1311 1.415 . S
C1311 H1281 0.950 . S
C1311 C1306 1.363 . S
C1311 C1310 1.415 . S
H1312 C1309 0.999 . S
H1313 C1294 0.913 . S
H1314 C1332 0.951 . S
H1315 C1334 0.951 . S
H1316 C1336 0.950 . S
H1317 C1337 0.950 . S
H1318 C1339 0.950 . S
H1319 C1342 0.950 . S
H1320 C1343 0.950 . S
H1321 C1345 0.950 . S
H1322 C1346 0.950 . S
H1323 C1347 0.951 . S
H1324 C1349 0.951 . S
H1325 C1351 0.950 . S
H1326 C1352 0.950 . S
H1327 C1354 0.950 . S
H1328 C1357 0.950 . S
H1329 C1358 0.950 . S
H1330 C1360 0.950 . S
H1331 C1361 0.950 . S
C1332 H1314 0.951 . S
C1332 C1333 1.366 . S
C1332 C1334 1.388 . S
C1333 C1332 1.366 . S
C1333 C1337 1.385 . S
C1334 H1315 0.951 . S
C1334 C1332 1.388 . S
C1334 C1335 1.366 . S
C1335 C1334 1.366 . S
C1335 C1336 1.414 . S
C1335 C1338 1.499 . S
C1336 H1316 0.950 . S
C1336 C1335 1.414 . S
C1336 C1337 1.374 . S
C1337 H1317 0.950 . S
C1337 C1333 1.385 . S
C1337 C1336 1.374 . S
C1338 C1335 1.499 . S
C1338 C1339 1.373 . S
C1338 C1340 1.389 . S
C1339 H1318 0.950 . S
C1339 C1338 1.373 . S
C1339 C1355 1.377 . S
C1340 C1338 1.389 . S
C1340 C1341 1.524 . S
C1340 C1354 1.377 . S
C1341 C1340 1.524 . S
C1341 C1342 1.397 . S
C1341 C1346 1.363 . S
C1342 H1319 0.950 . S
C1342 C1341 1.397 . S
C1342 C1343 1.334 . S
C1343 H1320 0.950 . S
C1343 C1342 1.334 . S
C1343 C1344 1.287 . S
C1344 C1343 1.287 . S
C1344 C1345 1.524 . S
C1344 H1363 0.913 . S
C1345 H1321 0.950 . S
C1345 C1344 1.524 . S
C1345 C1346 1.415 . S
C1346 H1322 0.950 . S
C1346 C1341 1.363 . S
C1346 C1345 1.415 . S
C1347 H1323 0.951 . S
C1347 C1348 1.366 . S
C1347 C1349 1.388 . S
C1348 C1347 1.366 . S
C1348 C1352 1.385 . S
C1349 H1324 0.951 . S
C1349 C1347 1.388 . S
C1349 C1350 1.366 . S
C1350 C1349 1.366 . S
C1350 C1351 1.414 . S
C1350 C1353 1.499 . S
C1351 H1325 0.950 . S
C1351 C1350 1.414 . S
C1351 C1352 1.374 . S
C1352 H1326 0.950 . S
C1352 C1348 1.385 . S
C1352 C1351 1.374 . S
C1353 C1350 1.499 . S
C1353 C1354 1.373 . S
C1353 C1355 1.389 . S
C1354 H1327 0.950 . S
C1354 C1340 1.377 . S
C1354 C1353 1.373 . S
C1355 C1339 1.377 . S
C1355 C1353 1.389 . S
C1355 C1356 1.524 . S
C1356 C1355 1.524 . S
C1356 C1357 1.397 . S
C1356 C1361 1.363 . S
C1357 H1328 0.950 . S
C1357 C1356 1.397 . S
C1357 C1358 1.334 . S
C1358 H1329 0.950 . S
C1358 C1357 1.334 . S
C1358 C1359 1.287 . S
C1359 C1358 1.287 . S
C1359 C1360 1.524 . S
C1359 H1362 0.999 . S
C1360 H1330 0.950 . S
C1360 C1359 1.524 . S
C1360 C1361 1.415 . S
C1361 H1331 0.950 . S
C1361 C1356 1.363 . S
C1361 C1360 1.415 . S
H1362 C1359 0.999 . S
H1363 C1344 0.913 . S
H1364 C1382 0.951 . S
H1365 C1384 0.951 . S
H1366 C1386 0.950 . S
H1367 C1387 0.950 . S
H1368 C1389 0.950 . S
H1369 C1392 0.950 . S
H1370 C1393 0.950 . S
H1371 C1395 0.950 . S
H1372 C1396 0.950 . S
H1373 C1397 0.951 . S
H1374 C1399 0.951 . S
H1375 C1401 0.950 . S
H1376 C1402 0.950 . S
H1377 C1404 0.950 . S
H1378 C1407 0.950 . S
H1379 C1408 0.950 . S
H1380 C1410 0.950 . S
H1381 C1411 0.950 . S
C1382 H1364 0.951 . S
C1382 C1383 1.366 . S
C1382 C1384 1.388 . S
C1383 C1382 1.366 . S
C1383 C1387 1.385 . S
C1384 H1365 0.951 . S
C1384 C1382 1.388 . S
C1384 C1385 1.366 . S
C1385 C1384 1.366 . S
C1385 C1386 1.414 . S
C1385 C1388 1.499 . S
C1386 H1366 0.950 . S
C1386 C1385 1.414 . S
C1386 C1387 1.374 . S
C1387 H1367 0.950 . S
C1387 C1383 1.385 . S
C1387 C1386 1.374 . S
C1388 C1385 1.499 . S
C1388 C1389 1.373 . S
C1388 C1390 1.389 . S
C1389 H1368 0.950 . S
C1389 C1388 1.373 . S
C1389 C1405 1.377 . S
C1390 C1388 1.389 . S
C1390 C1391 1.524 . S
C1390 C1404 1.377 . S
C1391 C1390 1.524 . S
C1391 C1392 1.397 . S
C1391 C1396 1.363 . S
C1392 H1369 0.950 . S
C1392 C1391 1.397 . S
C1392 C1393 1.334 . S
C1393 H1370 0.950 . S
C1393 C1392 1.334 . S
C1393 C1394 1.287 . S
C1394 C1393 1.287 . S
C1394 C1395 1.524 . S
C1394 H1413 0.913 . S
C1395 H1371 0.950 . S
C1395 C1394 1.524 . S
C1395 C1396 1.415 . S
C1396 H1372 0.950 . S
C1396 C1391 1.363 . S
C1396 C1395 1.415 . S
C1397 H1373 0.951 . S
C1397 C1398 1.366 . S
C1397 C1399 1.388 . S
C1398 C1397 1.366 . S
C1398 C1402 1.385 . S
C1399 H1374 0.951 . S
C1399 C1397 1.388 . S
C1399 C1400 1.366 . S
C1400 C1399 1.366 . S
C1400 C1401 1.414 . S
C1400 C1403 1.499 . S
C1401 H1375 0.950 . S
C1401 C1400 1.414 . S
C1401 C1402 1.374 . S
C1402 H1376 0.950 . S
C1402 C1398 1.385 . S
C1402 C1401 1.374 . S
C1403 C1400 1.499 . S
C1403 C1404 1.373 . S
C1403 C1405 1.389 . S
C1404 H1377 0.950 . S
C1404 C1390 1.377 . S
C1404 C1403 1.373 . S
C1405 C1389 1.377 . S
C1405 C1403 1.389 . S
C1405 C1406 1.524 . S
C1406 C1405 1.524 . S
C1406 C1407 1.397 . S
C1406 C1411 1.363 . S
C1407 H1378 0.950 . S
C1407 C1406 1.397 . S
C1407 C1408 1.334 . S
C1408 H1379 0.950 . S
C1408 C1407 1.334 . S
C1408 C1409 1.287 . S
C1409 C1408 1.287 . S
C1409 C1410 1.524 . S
C1409 H1412 0.999 1_565 S
C1410 H1380 0.950 . S
C1410 C1409 1.524 . S
C1410 C1411 1.415 . S
C1411 H1381 0.950 . S
C1411 C1406 1.363 . S
C1411 C1410 1.415 . S
H1412 C1409 0.999 1_545 S
H1413 C1394 0.913 . S
H1414 C1432 0.951 . S
H1415 C1434 0.951 . S
H1416 C1436 0.950 . S
H1417 C1437 0.950 . S
H1418 C1439 0.950 . S
H1419 C1442 0.950 . S
H1420 C1443 0.950 . S
H1421 C1445 0.950 . S
H1422 C1446 0.950 . S
H1423 C1447 0.951 . S
H1424 C1449 0.951 . S
H1425 C1451 0.950 . S
H1426 C1452 0.950 . S
H1427 C1454 0.950 . S
H1428 C1457 0.950 . S
H1429 C1458 0.950 . S
H1430 C1460 0.950 . S
H1431 C1461 0.950 . S
C1432 H1414 0.951 . S
C1432 C1433 1.366 . S
C1432 C1434 1.388 . S
C1433 C1432 1.366 . S
C1433 C1437 1.385 . S
C1434 H1415 0.951 . S
C1434 C1432 1.388 . S
C1434 C1435 1.366 . S
C1435 C1434 1.366 . S
C1435 C1436 1.414 . S
C1435 C1438 1.499 . S
C1436 H1416 0.950 . S
C1436 C1435 1.414 . S
C1436 C1437 1.374 . S
C1437 H1417 0.950 . S
C1437 C1433 1.385 . S
C1437 C1436 1.374 . S
C1438 C1435 1.499 . S
C1438 C1439 1.373 . S
C1438 C1440 1.389 . S
C1439 H1418 0.950 . S
C1439 C1438 1.373 . S
C1439 C1455 1.377 . S
C1440 C1438 1.389 . S
C1440 C1441 1.524 . S
C1440 C1454 1.377 . S
C1441 C1440 1.524 . S
C1441 C1442 1.397 . S
C1441 C1446 1.363 . S
C1442 H1419 0.950 . S
C1442 C1441 1.397 . S
C1442 C1443 1.334 . S
C1443 H1420 0.950 . S
C1443 C1442 1.334 . S
C1443 C1444 1.287 . S
C1444 C1443 1.287 . S
C1444 C1445 1.524 . S
C1444 H1463 0.913 . S
C1445 H1421 0.950 . S
C1445 C1444 1.524 . S
C1445 C1446 1.415 . S
C1446 H1422 0.950 . S
C1446 C1441 1.363 . S
C1446 C1445 1.415 . S
C1447 H1423 0.951 . S
C1447 C1448 1.366 . S
C1447 C1449 1.388 . S
C1448 C1447 1.366 . S
C1448 C1452 1.385 . S
C1449 H1424 0.951 . S
C1449 C1447 1.388 . S
C1449 C1450 1.366 . S
C1450 C1449 1.366 . S
C1450 C1451 1.414 . S
C1450 C1453 1.499 . S
C1451 H1425 0.950 . S
C1451 C1450 1.414 . S
C1451 C1452 1.374 . S
C1452 H1426 0.950 . S
C1452 C1448 1.385 . S
C1452 C1451 1.374 . S
C1453 C1450 1.499 . S
C1453 C1454 1.373 . S
C1453 C1455 1.389 . S
C1454 H1427 0.950 . S
C1454 C1440 1.377 . S
C1454 C1453 1.373 . S
C1455 C1439 1.377 . S
C1455 C1453 1.389 . S
C1455 C1456 1.524 . S
C1456 C1455 1.524 . S
C1456 C1457 1.397 . S
C1456 C1461 1.363 . S
C1457 H1428 0.950 . S
C1457 C1456 1.397 . S
C1457 C1458 1.334 . S
C1458 H1429 0.950 . S
C1458 C1457 1.334 . S
C1458 C1459 1.287 . S
C1459 C1458 1.287 . S
C1459 C1460 1.524 . S
C1459 H1462 0.999 . S
C1460 H1430 0.950 . S
C1460 C1459 1.524 . S
C1460 C1461 1.415 . S
C1461 H1431 0.950 . S
C1461 C1456 1.363 . S
C1461 C1460 1.415 . S
H1462 C1459 0.999 . S
H1463 C1444 0.913 . S
H1464 C1482 0.951 . S
H1465 C1484 0.951 . S
H1466 C1486 0.950 . S
H1467 C1487 0.950 . S
H1468 C1489 0.950 . S
H1469 C1492 0.950 . S
H1470 C1493 0.950 . S
H1471 C1495 0.950 . S
H1472 C1496 0.950 . S
H1473 C1497 0.951 . S
H1474 C1499 0.951 . S
H1475 C1501 0.950 . S
H1476 C1502 0.950 . S
H1477 C1504 0.950 . S
H1478 C1507 0.950 . S
H1479 C1508 0.950 . S
H1480 C1510 0.950 . S
H1481 C1511 0.950 . S
C1482 H1464 0.951 . S
C1482 C1483 1.366 . S
C1482 C1484 1.388 . S
C1483 C1482 1.366 . S
C1483 C1487 1.385 . S
C1484 H1465 0.951 . S
C1484 C1482 1.388 . S
C1484 C1485 1.366 . S
C1485 C1484 1.366 . S
C1485 C1486 1.414 . S
C1485 C1488 1.499 . S
C1486 H1466 0.950 . S
C1486 C1485 1.414 . S
C1486 C1487 1.374 . S
C1487 H1467 0.950 . S
C1487 C1483 1.385 . S
C1487 C1486 1.374 . S
C1488 C1485 1.499 . S
C1488 C1489 1.373 . S
C1488 C1490 1.389 . S
C1489 H1468 0.950 . S
C1489 C1488 1.373 . S
C1489 C1505 1.377 . S
C1490 C1488 1.389 . S
C1490 C1491 1.524 . S
C1490 C1504 1.377 . S
C1491 C1490 1.524 . S
C1491 C1492 1.397 . S
C1491 C1496 1.363 . S
C1492 H1469 0.950 . S
C1492 C1491 1.397 . S
C1492 C1493 1.334 . S
C1493 H1470 0.950 . S
C1493 C1492 1.334 . S
C1493 C1494 1.287 . S
C1494 C1493 1.287 . S
C1494 C1495 1.524 . S
C1494 H1513 0.913 . S
C1495 H1471 0.950 . S
C1495 C1494 1.524 . S
C1495 C1496 1.415 . S
C1496 H1472 0.950 . S
C1496 C1491 1.363 . S
C1496 C1495 1.415 . S
C1497 H1473 0.951 . S
C1497 C1498 1.366 . S
C1497 C1499 1.388 . S
C1498 C1497 1.366 . S
C1498 C1502 1.385 . S
C1499 H1474 0.951 . S
C1499 C1497 1.388 . S
C1499 C1500 1.366 . S
C1500 C1499 1.366 . S
C1500 C1501 1.414 . S
C1500 C1503 1.499 . S
C1501 H1475 0.950 . S
C1501 C1500 1.414 . S
C1501 C1502 1.374 . S
C1502 H1476 0.950 . S
C1502 C1498 1.385 . S
C1502 C1501 1.374 . S
C1503 C1500 1.499 . S
C1503 C1504 1.373 . S
C1503 C1505 1.389 . S
C1504 H1477 0.950 . S
C1504 C1490 1.377 . S
C1504 C1503 1.373 . S
C1505 C1489 1.377 . S
C1505 C1503 1.389 . S
C1505 C1506 1.524 . S
C1506 C1505 1.524 . S
C1506 C1507 1.397 . S
C1506 C1511 1.363 . S
C1507 H1478 0.950 . S
C1507 C1506 1.397 . S
C1507 C1508 1.334 . S
C1508 H1479 0.950 . S
C1508 C1507 1.334 . S
C1508 C1509 1.287 . S
C1509 C1508 1.287 . S
C1509 C1510 1.524 . S
C1509 H1512 0.999 . S
C1510 H1480 0.950 . S
C1510 C1509 1.524 . S
C1510 C1511 1.415 . S
C1511 H1481 0.950 . S
C1511 C1506 1.363 . S
C1511 C1510 1.415 . S
H1512 C1509 0.999 . S
H1513 C1494 0.913 . S
H1514 C1532 0.951 . S
H1515 C1534 0.951 . S
H1516 C1536 0.950 . S
H1517 C1537 0.950 . S
H1518 C1539 0.950 . S
H1519 C1542 0.950 . S
H1520 C1543 0.950 . S
H1521 C1545 0.950 . S
H1522 C1546 0.950 . S
H1523 C1547 0.951 . S
H1524 C1549 0.951 . S
H1525 C1551 0.950 . S
H1526 C1552 0.950 . S
H1527 C1554 0.950 . S
H1528 C1557 0.950 . S
H1529 C1558 0.961 . S
H1530 C1560 0.950 1_655 S
H1531 C1561 0.950 . S
C1532 H1514 0.951 . S
C1532 C1533 1.366 . S
C1532 C1534 1.388 . S
C1533 C1532 1.366 . S
C1533 C1537 1.385 . S
C1534 H1515 0.951 . S
C1534 C1532 1.388 . S
C1534 C1535 1.366 . S
C1535 C1534 1.366 . S
C1535 C1536 1.414 . S
C1535 C1538 1.499 . S
C1536 H1516 0.950 . S
C1536 C1535 1.414 . S
C1536 C1537 1.374 . S
C1537 H1517 0.950 . S
C1537 C1533 1.385 . S
C1537 C1536 1.374 . S
C1538 C1535 1.499 . S
C1538 C1539 1.373 . S
C1538 C1540 1.389 . S
C1539 H1518 0.950 . S
C1539 C1538 1.373 . S
C1539 C1555 1.377 . S
C1540 C1538 1.389 . S
C1540 C1541 1.524 . S
C1540 C1554 1.377 . S
C1541 C1540 1.524 . S
C1541 C1542 1.397 . S
C1541 C1546 1.363 . S
C1542 H1519 0.950 . S
C1542 C1541 1.397 . S
C1542 C1543 1.334 . S
C1543 H1520 0.950 . S
C1543 C1542 1.334 . S
C1543 C1544 1.287 . S
C1544 C1543 1.287 . S
C1544 C1545 1.524 . S
C1544 H1563 0.913 . S
C1545 H1521 0.950 . S
C1545 C1544 1.524 . S
C1545 C1546 1.415 . S
C1546 H1522 0.950 . S
C1546 C1541 1.363 . S
C1546 C1545 1.415 . S
C1547 H1523 0.951 . S
C1547 C1548 1.366 . S
C1547 C1549 1.388 . S
C1548 C1547 1.366 . S
C1548 C1552 1.385 . S
C1549 H1524 0.951 . S
C1549 C1547 1.388 . S
C1549 C1550 1.366 . S
C1550 C1549 1.366 . S
C1550 C1551 1.414 . S
C1550 C1553 1.499 . S
C1551 H1525 0.950 . S
C1551 C1550 1.414 . S
C1551 C1552 1.374 . S
C1552 H1526 0.950 . S
C1552 C1548 1.385 . S
C1552 C1551 1.374 . S
C1553 C1550 1.499 . S
C1553 C1554 1.373 . S
C1553 C1555 1.389 . S
C1554 H1527 0.950 . S
C1554 C1540 1.377 . S
C1554 C1553 1.373 . S
C1555 C1539 1.377 . S
C1555 C1553 1.389 . S
C1555 C1556 1.524 . S
C1556 C1555 1.524 . S
C1556 C1557 1.397 . S
C1556 C1561 1.363 . S
C1557 H1528 0.950 . S
C1557 C1556 1.397 . S
C1557 C1558 1.319 1_455 S
C1558 H1529 0.961 . S
C1558 C1557 1.319 1_655 S
C1558 C1559 1.290 . S
C1559 C1558 1.290 . S
C1559 C1560 1.524 1_655 S
C1559 H1562 0.999 . S
C1560 H1530 0.950 1_455 S
C1560 C1559 1.524 1_455 S
C1560 C1561 1.415 . S
C1561 H1531 0.950 . S
C1561 C1556 1.363 . S
C1561 C1560 1.415 . S
H1562 C1559 0.999 . S
H1563 C1544 0.913 . S
H1564 C1582 0.951 . S
H1565 C1584 0.951 . S
H1566 C1586 0.950 . S
H1567 C1587 0.950 . S
H1568 C1589 0.950 . S
H1569 C1592 0.950 . S
H1570 C1593 0.950 . S
H1571 C1595 0.950 . S
H1572 C1596 0.950 . S
H1573 C1597 0.951 . S
H1574 C1599 0.951 . S
H1575 C1601 0.950 . S
H1576 C1602 0.950 . S
H1577 C1604 0.950 . S
H1578 C1607 0.950 . S
H1579 C1608 0.950 . S
H1580 C1610 0.950 . S
H1581 C1611 0.950 . S
C1582 H1564 0.951 . S
C1582 C1583 1.366 . S
C1582 C1584 1.388 . S
C1583 C1582 1.366 . S
C1583 C1587 1.385 . S
C1584 H1565 0.951 . S
C1584 C1582 1.388 . S
C1584 C1585 1.366 . S
C1585 C1584 1.366 . S
C1585 C1586 1.414 . S
C1585 C1588 1.499 . S
C1586 H1566 0.950 . S
C1586 C1585 1.414 . S
C1586 C1587 1.374 . S
C1587 H1567 0.950 . S
C1587 C1583 1.385 . S
C1587 C1586 1.374 . S
C1588 C1585 1.499 . S
C1588 C1589 1.373 . S
C1588 C1590 1.389 . S
C1589 H1568 0.950 . S
C1589 C1588 1.373 . S
C1589 C1605 1.377 . S
C1590 C1588 1.389 . S
C1590 C1591 1.524 . S
C1590 C1604 1.377 . S
C1591 C1590 1.524 . S
C1591 C1592 1.397 . S
C1591 C1596 1.363 . S
C1592 H1569 0.950 . S
C1592 C1591 1.397 . S
C1592 C1593 1.334 . S
C1593 H1570 0.950 . S
C1593 C1592 1.334 . S
C1593 C1594 1.287 . S
C1594 C1593 1.287 . S
C1594 C1595 1.524 . S
C1594 H1613 0.913 . S
C1595 H1571 0.950 . S
C1595 C1594 1.524 . S
C1595 C1596 1.415 . S
C1596 H1572 0.950 . S
C1596 C1591 1.363 . S
C1596 C1595 1.415 . S
C1597 H1573 0.951 . S
C1597 C1598 1.366 . S
C1597 C1599 1.388 . S
C1598 C1597 1.366 . S
C1598 C1602 1.385 . S
C1599 H1574 0.951 . S
C1599 C1597 1.388 . S
C1599 C1600 1.366 . S
C1600 C1599 1.366 . S
C1600 C1601 1.414 . S
C1600 C1603 1.499 . S
C1601 H1575 0.950 . S
C1601 C1600 1.414 . S
C1601 C1602 1.374 . S
C1602 H1576 0.950 . S
C1602 C1598 1.385 . S
C1602 C1601 1.374 . S
C1603 C1600 1.499 . S
C1603 C1604 1.373 . S
C1603 C1605 1.389 . S
C1604 H1577 0.950 . S
C1604 C1590 1.377 . S
C1604 C1603 1.373 . S
C1605 C1589 1.377 . S
C1605 C1603 1.389 . S
C1605 C1606 1.524 . S
C1606 C1605 1.524 . S
C1606 C1607 1.397 . S
C1606 C1611 1.363 . S
C1607 H1578 0.950 . S
C1607 C1606 1.397 . S
C1607 C1608 1.334 . S
C1608 H1579 0.950 . S
C1608 C1607 1.334 . S
C1608 C1609 1.287 . S
C1609 C1608 1.287 . S
C1609 C1610 1.524 . S
C1609 H1612 0.999 . S
C1610 H1580 0.950 . S
C1610 C1609 1.524 . S
C1610 C1611 1.415 . S
C1611 H1581 0.950 . S
C1611 C1606 1.363 . S
C1611 C1610 1.415 . S
H1612 C1609 0.999 . S
H1613 C1594 0.913 . S
H1614 C1632 0.951 . S
H1615 C1634 0.951 . S
H1616 C1636 0.950 . S
H1617 C1637 0.950 . S
H1618 C1639 0.950 . S
H1619 C1642 0.950 . S
H1620 C1643 0.950 . S
H1621 C1645 0.950 . S
H1622 C1646 0.950 . S
H1623 C1647 0.951 . S
H1624 C1649 0.951 . S
H1625 C1651 0.950 . S
H1626 C1652 0.950 . S
H1627 C1654 0.950 . S
H1628 C1657 0.950 . S
H1629 C1658 0.950 . S
H1630 C1660 0.950 . S
H1631 C1661 0.950 . S
C1632 H1614 0.951 . S
C1632 C1633 1.366 . S
C1632 C1634 1.388 . S
C1633 C1632 1.366 . S
C1633 C1637 1.385 . S
C1634 H1615 0.951 . S
C1634 C1632 1.388 . S
C1634 C1635 1.366 . S
C1635 C1634 1.366 . S
C1635 C1636 1.414 . S
C1635 C1638 1.499 . S
C1636 H1616 0.950 . S
C1636 C1635 1.414 . S
C1636 C1637 1.374 . S
C1637 H1617 0.950 . S
C1637 C1633 1.385 . S
C1637 C1636 1.374 . S
C1638 C1635 1.499 . S
C1638 C1639 1.373 . S
C1638 C1640 1.389 . S
C1639 H1618 0.950 . S
C1639 C1638 1.373 . S
C1639 C1655 1.377 . S
C1640 C1638 1.389 . S
C1640 C1641 1.524 . S
C1640 C1654 1.377 . S
C1641 C1640 1.524 . S
C1641 C1642 1.397 . S
C1641 C1646 1.363 . S
C1642 H1619 0.950 . S
C1642 C1641 1.397 . S
C1642 C1643 1.334 . S
C1643 H1620 0.950 . S
C1643 C1642 1.334 . S
C1643 C1644 1.287 . S
C1644 C1643 1.287 . S
C1644 C1645 1.524 . S
C1644 H1663 0.913 . S
C1645 H1621 0.950 . S
C1645 C1644 1.524 . S
C1645 C1646 1.415 . S
C1646 H1622 0.950 . S
C1646 C1641 1.363 . S
C1646 C1645 1.415 . S
C1647 H1623 0.951 . S
C1647 C1648 1.366 . S
C1647 C1649 1.388 . S
C1648 C1647 1.366 . S
C1648 C1652 1.385 . S
C1649 H1624 0.951 . S
C1649 C1647 1.388 . S
C1649 C1650 1.366 . S
C1650 C1649 1.366 . S
C1650 C1651 1.414 . S
C1650 C1653 1.499 . S
C1651 H1625 0.950 . S
C1651 C1650 1.414 . S
C1651 C1652 1.374 . S
C1652 H1626 0.950 . S
C1652 C1648 1.385 . S
C1652 C1651 1.374 . S
C1653 C1650 1.499 . S
C1653 C1654 1.373 . S
C1653 C1655 1.389 . S
C1654 H1627 0.950 . S
C1654 C1640 1.377 . S
C1654 C1653 1.373 . S
C1655 C1639 1.377 . S
C1655 C1653 1.389 . S
C1655 C1656 1.524 . S
C1656 C1655 1.524 . S
C1656 C1657 1.397 . S
C1656 C1661 1.363 . S
C1657 H1628 0.950 . S
C1657 C1656 1.397 . S
C1657 C1658 1.334 . S
C1658 H1629 0.950 . S
C1658 C1657 1.334 . S
C1658 C1659 1.287 . S
C1659 C1658 1.287 . S
C1659 C1660 1.524 . S
C1659 H1662 0.999 . S
C1660 H1630 0.950 . S
C1660 C1659 1.524 . S
C1660 C1661 1.415 . S
C1661 H1631 0.950 . S
C1661 C1656 1.363 . S
C1661 C1660 1.415 . S
H1662 C1659 0.999 . S
H1663 C1644 0.913 . S
H1664 C1682 0.951 . S
H1665 C1684 0.951 . S
H1666 C1686 0.950 . S
H1667 C1687 0.950 . S
H1668 C1689 0.950 . S
H1669 C1692 0.950 . S
H1670 C1693 0.950 . S
H1671 C1695 0.950 . S
H1672 C1696 0.950 . S
H1673 C1697 0.951 . S
H1674 C1699 0.951 . S
H1675 C1701 0.950 . S
H1676 C1702 0.950 . S
H1677 C1704 0.950 . S
H1678 C1707 0.950 . S
H1679 C1708 0.950 . S
H1680 C1710 0.950 . S
H1681 C1711 0.950 . S
C1682 H1664 0.951 . S
C1682 C1683 1.366 . S
C1682 C1684 1.388 . S
C1683 C1682 1.366 . S
C1683 C1687 1.385 . S
C1684 H1665 0.951 . S
C1684 C1682 1.388 . S
C1684 C1685 1.366 . S
C1685 C1684 1.366 . S
C1685 C1686 1.414 . S
C1685 C1688 1.499 . S
C1686 H1666 0.950 . S
C1686 C1685 1.414 . S
C1686 C1687 1.374 . S
C1687 H1667 0.950 . S
C1687 C1683 1.385 . S
C1687 C1686 1.374 . S
C1688 C1685 1.499 . S
C1688 C1689 1.373 . S
C1688 C1690 1.389 . S
C1689 H1668 0.950 . S
C1689 C1688 1.373 . S
C1689 C1705 1.377 . S
C1690 C1688 1.389 . S
C1690 C1691 1.524 . S
C1690 C1704 1.377 . S
C1691 C1690 1.524 . S
C1691 C1692 1.397 . S
C1691 C1696 1.363 . S
C1692 H1669 0.950 . S
C1692 C1691 1.397 . S
C1692 C1693 1.334 . S
C1693 H1670 0.950 . S
C1693 C1692 1.334 . S
C1693 C1694 1.287 . S
C1694 C1693 1.287 . S
C1694 C1695 1.524 . S
C1694 H1713 0.913 . S
C1695 H1671 0.950 . S
C1695 C1694 1.524 . S
C1695 C1696 1.415 . S
C1696 H1672 0.950 . S
C1696 C1691 1.363 . S
C1696 C1695 1.415 . S
C1697 H1673 0.951 . S
C1697 C1698 1.366 . S
C1697 C1699 1.388 . S
C1698 C1697 1.366 . S
C1698 C1702 1.385 . S
C1699 H1674 0.951 . S
C1699 C1697 1.388 . S
C1699 C1700 1.366 . S
C1700 C1699 1.366 . S
C1700 C1701 1.414 . S
C1700 C1703 1.499 . S
C1701 H1675 0.950 . S
C1701 C1700 1.414 . S
C1701 C1702 1.374 . S
C1702 H1676 0.950 . S
C1702 C1698 1.385 . S
C1702 C1701 1.374 . S
C1703 C1700 1.499 . S
C1703 C1704 1.373 . S
C1703 C1705 1.389 . S
C1704 H1677 0.950 . S
C1704 C1690 1.377 . S
C1704 C1703 1.373 . S
C1705 C1689 1.377 . S
C1705 C1703 1.389 . S
C1705 C1706 1.524 . S
C1706 C1705 1.524 . S
C1706 C1707 1.397 . S
C1706 C1711 1.363 . S
C1707 H1678 0.950 . S
C1707 C1706 1.397 . S
C1707 C1708 1.334 . S
C1708 H1679 0.950 . S
C1708 C1707 1.334 . S
C1708 C1709 1.287 . S
C1709 C1708 1.287 . S
C1709 C1710 1.524 . S
C1709 H1712 0.999 . S
C1710 H1680 0.950 . S
C1710 C1709 1.524 . S
C1710 C1711 1.415 . S
C1711 H1681 0.950 . S
C1711 C1706 1.363 . S
C1711 C1710 1.415 . S
H1712 C1709 0.999 . S
H1713 C1694 0.913 . S
H1714 C1732 0.951 . S
H1715 C1734 0.951 . S
H1716 C1736 0.950 . S
H1717 C1737 0.950 . S
H1718 C1739 0.950 . S
H1719 C1742 0.950 . S
H1720 C1743 0.950 . S
H1721 C1745 0.950 . S
H1722 C1746 0.950 . S
H1723 C1747 0.951 . S
H1724 C1749 0.951 . S
H1725 C1751 0.950 . S
H1726 C1752 0.950 . S
H1727 C1754 0.950 . S
H1728 C1757 0.950 . S
H1729 C1758 0.950 . S
H1730 C1760 0.950 . S
H1731 C1761 0.950 . S
C1732 H1714 0.951 . S
C1732 C1733 1.366 . S
C1732 C1734 1.388 . S
C1733 C1732 1.366 . S
C1733 C1737 1.385 . S
C1734 H1715 0.951 . S
C1734 C1732 1.388 . S
C1734 C1735 1.366 . S
C1735 C1734 1.366 . S
C1735 C1736 1.414 . S
C1735 C1738 1.499 . S
C1736 H1716 0.950 . S
C1736 C1735 1.414 . S
C1736 C1737 1.374 . S
C1737 H1717 0.950 . S
C1737 C1733 1.385 . S
C1737 C1736 1.374 . S
C1738 C1735 1.499 . S
C1738 C1739 1.373 . S
C1738 C1740 1.389 . S
C1739 H1718 0.950 . S
C1739 C1738 1.373 . S
C1739 C1755 1.377 . S
C1740 C1738 1.389 . S
C1740 C1741 1.524 . S
C1740 C1754 1.377 . S
C1741 C1740 1.524 . S
C1741 C1742 1.397 . S
C1741 C1746 1.363 . S
C1742 H1719 0.950 . S
C1742 C1741 1.397 . S
C1742 C1743 1.334 . S
C1743 H1720 0.950 . S
C1743 C1742 1.334 . S
C1743 C1744 1.287 . S
C1744 C1743 1.287 . S
C1744 C1745 1.524 . S
C1744 H1763 0.913 . S
C1745 H1721 0.950 . S
C1745 C1744 1.524 . S
C1745 C1746 1.415 . S
C1746 H1722 0.950 . S
C1746 C1741 1.363 . S
C1746 C1745 1.415 . S
C1747 H1723 0.951 . S
C1747 C1748 1.366 . S
C1747 C1749 1.388 . S
C1748 C1747 1.366 . S
C1748 C1752 1.385 . S
C1749 H1724 0.951 . S
C1749 C1747 1.388 . S
C1749 C1750 1.366 . S
C1750 C1749 1.366 . S
C1750 C1751 1.414 . S
C1750 C1753 1.499 . S
C1751 H1725 0.950 . S
C1751 C1750 1.414 . S
C1751 C1752 1.374 . S
C1752 H1726 0.950 . S
C1752 C1748 1.385 . S
C1752 C1751 1.374 . S
C1753 C1750 1.499 . S
C1753 C1754 1.373 . S
C1753 C1755 1.389 . S
C1754 H1727 0.950 . S
C1754 C1740 1.377 . S
C1754 C1753 1.373 . S
C1755 C1739 1.377 . S
C1755 C1753 1.389 . S
C1755 C1756 1.524 . S
C1756 C1755 1.524 . S
C1756 C1757 1.397 . S
C1756 C1761 1.363 . S
C1757 H1728 0.950 . S
C1757 C1756 1.397 . S
C1757 C1758 1.334 . S
C1758 H1729 0.950 . S
C1758 C1757 1.334 . S
C1758 C1759 1.287 . S
C1759 C1758 1.287 . S
C1759 C1760 1.524 . S
C1759 H1762 0.999 . S
C1760 H1730 0.950 . S
C1760 C1759 1.524 . S
C1760 C1761 1.415 . S
C1761 H1731 0.950 . S
C1761 C1756 1.363 . S
C1761 C1760 1.415 . S
H1762 C1759 0.999 . S
H1763 C1744 0.913 . S
H1764 C1782 0.951 . S
H1765 C1784 0.951 . S
H1766 C1786 0.950 . S
H1767 C1787 0.950 . S
H1768 C1789 0.950 . S
H1769 C1792 0.950 . S
H1770 C1793 0.950 . S
H1771 C1795 0.950 . S
H1772 C1796 0.950 . S
H1773 C1797 0.951 . S
H1774 C1799 0.951 . S
H1775 C1801 0.950 . S
H1776 C1802 0.950 . S
H1777 C1804 0.950 . S
H1778 C1807 0.950 . S
H1779 C1808 0.950 . S
H1780 C1810 0.950 . S
H1781 C1811 0.950 . S
C1782 H1764 0.951 . S
C1782 C1783 1.366 . S
C1782 C1784 1.388 . S
C1783 C1782 1.366 . S
C1783 C1787 1.385 . S
C1784 H1765 0.951 . S
C1784 C1782 1.388 . S
C1784 C1785 1.366 . S
C1785 C1784 1.366 . S
C1785 C1786 1.414 . S
C1785 C1788 1.499 . S
C1786 H1766 0.950 . S
C1786 C1785 1.414 . S
C1786 C1787 1.374 . S
C1787 H1767 0.950 . S
C1787 C1783 1.385 . S
C1787 C1786 1.374 . S
C1788 C1785 1.499 . S
C1788 C1789 1.373 . S
C1788 C1790 1.389 . S
C1789 H1768 0.950 . S
C1789 C1788 1.373 . S
C1789 C1805 1.377 . S
C1790 C1788 1.389 . S
C1790 C1791 1.524 . S
C1790 C1804 1.377 . S
C1791 C1790 1.524 . S
C1791 C1792 1.397 . S
C1791 C1796 1.363 . S
C1792 H1769 0.950 . S
C1792 C1791 1.397 . S
C1792 C1793 1.334 . S
C1793 H1770 0.950 . S
C1793 C1792 1.334 . S
C1793 C1794 1.287 . S
C1794 C1793 1.287 . S
C1794 C1795 1.524 . S
C1794 H1813 0.913 . S
C1795 H1771 0.950 . S
C1795 C1794 1.524 . S
C1795 C1796 1.415 . S
C1796 H1772 0.950 . S
C1796 C1791 1.363 . S
C1796 C1795 1.415 . S
C1797 H1773 0.951 . S
C1797 C1798 1.366 . S
C1797 C1799 1.388 . S
C1798 C1797 1.366 . S
C1798 C1802 1.385 . S
C1799 H1774 0.951 . S
C1799 C1797 1.388 . S
C1799 C1800 1.366 . S
C1800 C1799 1.366 . S
C1800 C1801 1.414 . S
C1800 C1803 1.499 . S
C1801 H1775 0.950 . S
C1801 C1800 1.414 . S
C1801 C1802 1.374 . S
C1802 H1776 0.950 . S
C1802 C1798 1.385 . S
C1802 C1801 1.374 . S
C1803 C1800 1.499 . S
C1803 C1804 1.373 . S
C1803 C1805 1.389 . S
C1804 H1777 0.950 . S
C1804 C1790 1.377 . S
C1804 C1803 1.373 . S
C1805 C1789 1.377 . S
C1805 C1803 1.389 . S
C1805 C1806 1.524 . S
C1806 C1805 1.524 . S
C1806 C1807 1.397 . S
C1806 C1811 1.363 . S
C1807 H1778 0.950 . S
C1807 C1806 1.397 . S
C1807 C1808 1.334 . S
C1808 H1779 0.950 . S
C1808 C1807 1.334 . S
C1808 C1809 1.287 . S
C1809 C1808 1.287 . S
C1809 C1810 1.524 . S
C1809 H1812 0.999 . S
C1810 H1780 0.950 . S
C1810 C1809 1.524 . S
C1810 C1811 1.415 . S
C1811 H1781 0.950 . S
C1811 C1806 1.363 . S
C1811 C1810 1.415 . S
H1812 C1809 0.999 . S
H1813 C1794 0.913 . S
H1814 C1832 0.951 . S
H1815 C1834 0.951 . S
H1816 C1836 0.950 . S
H1817 C1837 0.950 . S
H1818 C1839 0.950 . S
H1819 C1842 0.950 . S
H1820 C1843 0.950 . S
H1821 C1845 0.950 . S
H1822 C1846 0.950 . S
H1823 C1847 0.951 . S
H1824 C1849 0.951 . S
H1825 C1851 0.950 . S
H1826 C1852 0.950 . S
H1827 C1854 0.950 . S
H1828 C1857 0.950 . S
H1829 C1858 0.950 . S
H1830 C1860 0.950 . S
H1831 C1861 0.950 . S
C1832 H1814 0.951 . S
C1832 C1833 1.366 . S
C1832 C1834 1.388 . S
C1833 C1832 1.366 . S
C1833 C1837 1.385 . S
C1834 H1815 0.951 . S
C1834 C1832 1.388 . S
C1834 C1835 1.366 . S
C1835 C1834 1.366 . S
C1835 C1836 1.414 . S
C1835 C1838 1.499 . S
C1836 H1816 0.950 . S
C1836 C1835 1.414 . S
C1836 C1837 1.374 . S
C1837 H1817 0.950 . S
C1837 C1833 1.385 . S
C1837 C1836 1.374 . S
C1838 C1835 1.499 . S
C1838 C1839 1.373 . S
C1838 C1840 1.389 . S
C1839 H1818 0.950 . S
C1839 C1838 1.373 . S
C1839 C1855 1.377 . S
C1840 C1838 1.389 . S
C1840 C1841 1.524 . S
C1840 C1854 1.377 . S
C1841 C1840 1.524 . S
C1841 C1842 1.397 . S
C1841 C1846 1.363 . S
C1842 H1819 0.950 . S
C1842 C1841 1.397 . S
C1842 C1843 1.334 . S
C1843 H1820 0.950 . S
C1843 C1842 1.334 . S
C1843 C1844 1.287 . S
C1844 C1843 1.287 . S
C1844 C1845 1.524 . S
C1844 H1863 0.913 . S
C1845 H1821 0.950 . S
C1845 C1844 1.524 . S
C1845 C1846 1.415 . S
C1846 H1822 0.950 . S
C1846 C1841 1.363 . S
C1846 C1845 1.415 . S
C1847 H1823 0.951 . S
C1847 C1848 1.366 . S
C1847 C1849 1.388 . S
C1848 C1847 1.366 . S
C1848 C1852 1.385 . S
C1849 H1824 0.951 . S
C1849 C1847 1.388 . S
C1849 C1850 1.366 . S
C1850 C1849 1.366 . S
C1850 C1851 1.414 . S
C1850 C1853 1.499 . S
C1851 H1825 0.950 . S
C1851 C1850 1.414 . S
C1851 C1852 1.374 . S
C1852 H1826 0.950 . S
C1852 C1848 1.385 . S
C1852 C1851 1.374 . S
C1853 C1850 1.499 . S
C1853 C1854 1.373 . S
C1853 C1855 1.389 . S
C1854 H1827 0.950 . S
C1854 C1840 1.377 . S
C1854 C1853 1.373 . S
C1855 C1839 1.377 . S
C1855 C1853 1.389 . S
C1855 C1856 1.524 . S
C1856 C1855 1.524 . S
C1856 C1857 1.397 . S
C1856 C1861 1.363 . S
C1857 H1828 0.950 . S
C1857 C1856 1.397 . S
C1857 C1858 1.334 . S
C1858 H1829 0.950 . S
C1858 C1857 1.334 . S
C1858 C1859 1.287 . S
C1859 C1858 1.287 . S
C1859 C1860 1.524 . S
C1859 H1862 0.999 . S
C1860 H1830 0.950 . S
C1860 C1859 1.524 . S
C1860 C1861 1.415 . S
C1861 H1831 0.950 . S
C1861 C1856 1.363 . S
C1861 C1860 1.415 . S
H1862 C1859 0.999 . S
H1863 C1844 0.913 . S
H1864 C1882 0.951 . S
H1865 C1884 0.951 . S
H1866 C1886 0.950 . S
H1867 C1887 0.950 . S
H1868 C1889 0.950 . S
H1869 C1892 0.950 . S
H1870 C1893 0.950 . S
H1871 C1895 0.950 . S
H1872 C1896 0.950 . S
H1873 C1897 0.951 . S
H1874 C1899 0.951 . S
H1875 C1901 0.950 . S
H1876 C1902 0.950 . S
H1877 C1904 0.950 . S
H1878 C1907 0.950 . S
H1879 C1908 0.950 . S
H1880 C1910 0.950 . S
H1881 C1911 0.950 . S
C1882 H1864 0.951 . S
C1882 C1883 1.366 . S
C1882 C1884 1.388 . S
C1883 C1882 1.366 . S
C1883 C1887 1.385 . S
C1884 H1865 0.951 . S
C1884 C1882 1.388 . S
C1884 C1885 1.366 . S
C1885 C1884 1.366 . S
C1885 C1886 1.414 . S
C1885 C1888 1.499 . S
C1886 H1866 0.950 . S
C1886 C1885 1.414 . S
C1886 C1887 1.374 . S
C1887 H1867 0.950 . S
C1887 C1883 1.385 . S
C1887 C1886 1.374 . S
C1888 C1885 1.499 . S
C1888 C1889 1.373 . S
C1888 C1890 1.389 . S
C1889 H1868 0.950 . S
C1889 C1888 1.373 . S
C1889 C1905 1.377 . S
C1890 C1888 1.389 . S
C1890 C1891 1.524 . S
C1890 C1904 1.377 . S
C1891 C1890 1.524 . S
C1891 C1892 1.397 . S
C1891 C1896 1.363 . S
C1892 H1869 0.950 . S
C1892 C1891 1.397 . S
C1892 C1893 1.334 . S
C1893 H1870 0.950 . S
C1893 C1892 1.334 . S
C1893 C1894 1.287 . S
C1894 C1893 1.287 . S
C1894 C1895 1.524 . S
C1894 H1913 0.913 . S
C1895 H1871 0.950 . S
C1895 C1894 1.524 . S
C1895 C1896 1.415 . S
C1896 H1872 0.950 . S
C1896 C1891 1.363 . S
C1896 C1895 1.415 . S
C1897 H1873 0.951 . S
C1897 C1898 1.366 . S
C1897 C1899 1.388 . S
C1898 C1897 1.366 . S
C1898 C1902 1.385 . S
C1899 H1874 0.951 . S
C1899 C1897 1.388 . S
C1899 C1900 1.366 . S
C1900 C1899 1.366 . S
C1900 C1901 1.414 . S
C1900 C1903 1.499 . S
C1901 H1875 0.950 . S
C1901 C1900 1.414 . S
C1901 C1902 1.374 . S
C1902 H1876 0.950 . S
C1902 C1898 1.385 . S
C1902 C1901 1.374 . S
C1903 C1900 1.499 . S
C1903 C1904 1.373 . S
C1903 C1905 1.389 . S
C1904 H1877 0.950 . S
C1904 C1890 1.377 . S
C1904 C1903 1.373 . S
C1905 C1889 1.377 . S
C1905 C1903 1.389 . S
C1905 C1906 1.524 . S
C1906 C1905 1.524 . S
C1906 C1907 1.397 . S
C1906 C1911 1.363 . S
C1907 H1878 0.950 . S
C1907 C1906 1.397 . S
C1907 C1908 1.334 . S
C1908 H1879 0.950 . S
C1908 C1907 1.334 . S
C1908 C1909 1.287 . S
C1909 C1908 1.287 . S
C1909 C1910 1.524 . S
C1909 H1912 0.999 . S
C1910 H1880 0.950 . S
C1910 C1909 1.524 . S
C1910 C1911 1.415 . S
C1911 H1881 0.950 . S
C1911 C1906 1.363 . S
C1911 C1910 1.415 . S
H1912 C1909 0.999 . S
H1913 C1894 0.913 . S
H1914 C1932 0.951 . S
H1915 C1934 0.951 . S
H1916 C1936 0.950 . S
H1917 C1937 0.950 . S
H1918 C1939 0.950 . S
H1919 C1942 0.950 . S
H1920 C1943 0.950 . S
H1921 C1945 0.950 . S
H1922 C1946 0.950 . S
H1923 C1947 0.951 . S
H1924 C1949 0.951 . S
H1925 C1951 0.950 . S
H1926 C1952 0.950 . S
H1927 C1954 0.950 . S
H1928 C1957 0.950 . S
H1929 C1958 0.950 . S
H1930 C1960 0.950 . S
H1931 C1961 0.950 . S
C1932 H1914 0.951 . S
C1932 C1933 1.366 . S
C1932 C1934 1.388 . S
C1933 C1932 1.366 . S
C1933 C1937 1.385 . S
C1934 H1915 0.951 . S
C1934 C1932 1.388 . S
C1934 C1935 1.366 . S
C1935 C1934 1.366 . S
C1935 C1936 1.414 . S
C1935 C1938 1.499 . S
C1936 H1916 0.950 . S
C1936 C1935 1.414 . S
C1936 C1937 1.374 . S
C1937 H1917 0.950 . S
C1937 C1933 1.385 . S
C1937 C1936 1.374 . S
C1938 C1935 1.499 . S
C1938 C1939 1.373 . S
C1938 C1940 1.389 . S
C1939 H1918 0.950 . S
C1939 C1938 1.373 . S
C1939 C1955 1.377 . S
C1940 C1938 1.389 . S
C1940 C1941 1.524 . S
C1940 C1954 1.377 . S
C1941 C1940 1.524 . S
C1941 C1942 1.397 . S
C1941 C1946 1.363 . S
C1942 H1919 0.950 . S
C1942 C1941 1.397 . S
C1942 C1943 1.334 . S
C1943 H1920 0.950 . S
C1943 C1942 1.334 . S
C1943 C1944 1.287 . S
C1944 C1943 1.287 . S
C1944 C1945 1.524 . S
C1944 H1963 0.913 . S
C1945 H1921 0.950 . S
C1945 C1944 1.524 . S
C1945 C1946 1.415 . S
C1946 H1922 0.950 . S
C1946 C1941 1.363 . S
C1946 C1945 1.415 . S
C1947 H1923 0.951 . S
C1947 C1948 1.366 . S
C1947 C1949 1.388 . S
C1948 C1947 1.366 . S
C1948 C1952 1.385 . S
C1949 H1924 0.951 . S
C1949 C1947 1.388 . S
C1949 C1950 1.366 . S
C1950 C1949 1.366 . S
C1950 C1951 1.414 . S
C1950 C1953 1.499 . S
C1951 H1925 0.950 . S
C1951 C1950 1.414 . S
C1951 C1952 1.374 . S
C1952 H1926 0.950 . S
C1952 C1948 1.385 . S
C1952 C1951 1.374 . S
C1953 C1950 1.499 . S
C1953 C1954 1.373 . S
C1953 C1955 1.389 . S
C1954 H1927 0.950 . S
C1954 C1940 1.377 . S
C1954 C1953 1.373 . S
C1955 C1939 1.377 . S
C1955 C1953 1.389 . S
C1955 C1956 1.524 . S
C1956 C1955 1.524 . S
C1956 C1957 1.397 . S
C1956 C1961 1.363 . S
C1957 H1928 0.950 . S
C1957 C1956 1.397 . S
C1957 C1958 1.334 . S
C1958 H1929 0.950 . S
C1958 C1957 1.334 . S
C1958 C1959 1.287 . S
C1959 C1958 1.287 . S
C1959 C1960 1.524 . S
C1959 H1962 0.999 . S
C1960 H1930 0.950 . S
C1960 C1959 1.524 . S
C1960 C1961 1.415 . S
C1961 H1931 0.950 . S
C1961 C1956 1.363 . S
C1961 C1960 1.415 . S
H1962 C1959 0.999 . S
H1963 C1944 0.913 . S
H1964 C1982 0.951 . S
H1965 C1984 0.951 . S
H1966 C1986 0.950 . S
H1967 C1987 0.950 . S
H1968 C1989 0.950 . S
H1969 C1992 0.950 . S
H1970 C1993 0.950 . S
H1971 C1995 0.950 . S
H1972 C1996 0.950 . S
H1973 C1997 0.951 . S
H1974 C1999 0.951 . S
H1975 C2001 0.950 . S
H1976 C2002 0.950 . S
H1977 C2004 0.950 . S
H1978 C2007 0.950 . S
H1979 C2008 0.950 . S
H1980 C2010 0.950 . S
H1981 C2011 0.950 . S
C1982 H1964 0.951 . S
C1982 C1983 1.366 . S
C1982 C1984 1.388 . S
C1983 C1982 1.366 . S
C1983 C1987 1.385 . S
C1984 H1965 0.951 . S
C1984 C1982 1.388 . S
C1984 C1985 1.366 . S
C1985 C1984 1.366 . S
C1985 C1986 1.414 . S
C1985 C1988 1.499 . S
C1986 H1966 0.950 . S
C1986 C1985 1.414 . S
C1986 C1987 1.374 . S
C1987 H1967 0.950 . S
C1987 C1983 1.385 . S
C1987 C1986 1.374 . S
C1988 C1985 1.499 . S
C1988 C1989 1.373 . S
C1988 C1990 1.389 . S
C1989 H1968 0.950 . S
C1989 C1988 1.373 . S
C1989 C2005 1.377 . S
C1990 C1988 1.389 . S
C1990 C1991 1.524 . S
C1990 C2004 1.377 . S
C1991 C1990 1.524 . S
C1991 C1992 1.397 . S
C1991 C1996 1.363 . S
C1992 H1969 0.950 . S
C1992 C1991 1.397 . S
C1992 C1993 1.334 . S
C1993 H1970 0.950 . S
C1993 C1992 1.334 . S
C1993 C1994 1.287 . S
C1994 C1993 1.287 . S
C1994 C1995 1.524 . S
C1994 H2013 0.913 . S
C1995 H1971 0.950 . S
C1995 C1994 1.524 . S
C1995 C1996 1.415 . S
C1996 H1972 0.950 . S
C1996 C1991 1.363 . S
C1996 C1995 1.415 . S
C1997 H1973 0.951 . S
C1997 C1998 1.366 . S
C1997 C1999 1.388 . S
C1998 C1997 1.366 . S
C1998 C2002 1.385 . S
C1999 H1974 0.951 . S
C1999 C1997 1.388 . S
C1999 C2000 1.366 . S
C2000 C1999 1.366 . S
C2000 C2001 1.414 . S
C2000 C2003 1.499 . S
C2001 H1975 0.950 . S
C2001 C2000 1.414 . S
C2001 C2002 1.374 . S
C2002 H1976 0.950 . S
C2002 C1998 1.385 . S
C2002 C2001 1.374 . S
C2003 C2000 1.499 . S
C2003 C2004 1.373 . S
C2003 C2005 1.389 . S
C2004 H1977 0.950 . S
C2004 C1990 1.377 . S
C2004 C2003 1.373 . S
C2005 C1989 1.377 . S
C2005 C2003 1.389 . S
C2005 C2006 1.524 . S
C2006 C2005 1.524 . S
C2006 C2007 1.397 . S
C2006 C2011 1.363 . S
C2007 H1978 0.950 . S
C2007 C2006 1.397 . S
C2007 C2008 1.334 . S
C2008 H1979 0.950 . S
C2008 C2007 1.334 . S
C2008 C2009 1.287 . S
C2009 C2008 1.287 . S
C2009 C2010 1.524 . S
C2009 H2012 0.999 . S
C2010 H1980 0.950 . S
C2010 C2009 1.524 . S
C2010 C2011 1.415 . S
C2011 H1981 0.950 . S
C2011 C2006 1.363 . S
C2011 C2010 1.415 . S
H2012 C2009 0.999 . S
H2013 C1994 0.913 . S
H2014 C2032 0.951 . S
H2015 C2034 0.951 . S
H2016 C2036 0.950 . S
H2017 C2037 0.950 . S
H2018 C2039 0.950 . S
H2019 C2042 0.950 . S
H2020 C2043 0.950 . S
H2021 C2045 0.950 . S
H2022 C2046 0.950 . S
H2023 C2047 0.951 . S
H2024 C2049 0.951 . S
H2025 C2051 0.950 . S
H2026 C2052 0.950 . S
H2027 C2054 0.950 . S
H2028 C2057 0.950 . S
H2029 C2058 0.950 . S
H2030 C2060 0.950 . S
H2031 C2061 0.950 . S
C2032 H2014 0.951 . S
C2032 C2033 1.366 . S
C2032 C2034 1.388 . S
C2033 C2032 1.366 . S
C2033 C2037 1.385 . S
C2034 H2015 0.951 . S
C2034 C2032 1.388 . S
C2034 C2035 1.366 . S
C2035 C2034 1.366 . S
C2035 C2036 1.414 . S
C2035 C2038 1.499 . S
C2036 H2016 0.950 . S
C2036 C2035 1.414 . S
C2036 C2037 1.374 . S
C2037 H2017 0.950 . S
C2037 C2033 1.385 . S
C2037 C2036 1.374 . S
C2038 C2035 1.499 . S
C2038 C2039 1.373 . S
C2038 C2040 1.389 . S
C2039 H2018 0.950 . S
C2039 C2038 1.373 . S
C2039 C2055 1.377 . S
C2040 C2038 1.389 . S
C2040 C2041 1.524 . S
C2040 C2054 1.377 . S
C2041 C2040 1.524 . S
C2041 C2042 1.397 . S
C2041 C2046 1.363 . S
C2042 H2019 0.950 . S
C2042 C2041 1.397 . S
C2042 C2043 1.334 . S
C2043 H2020 0.950 . S
C2043 C2042 1.334 . S
C2043 C2044 1.287 . S
C2044 C2043 1.287 . S
C2044 C2045 1.524 . S
C2044 H2063 0.913 . S
C2045 H2021 0.950 . S
C2045 C2044 1.524 . S
C2045 C2046 1.415 . S
C2046 H2022 0.950 . S
C2046 C2041 1.363 . S
C2046 C2045 1.415 . S
C2047 H2023 0.951 . S
C2047 C2048 1.366 . S
C2047 C2049 1.388 . S
C2048 C2047 1.366 . S
C2048 C2052 1.385 . S
C2049 H2024 0.951 . S
C2049 C2047 1.388 . S
C2049 C2050 1.366 . S
C2050 C2049 1.366 . S
C2050 C2051 1.414 . S
C2050 C2053 1.499 . S
C2051 H2025 0.950 . S
C2051 C2050 1.414 . S
C2051 C2052 1.374 . S
C2052 H2026 0.950 . S
C2052 C2048 1.385 . S
C2052 C2051 1.374 . S
C2053 C2050 1.499 . S
C2053 C2054 1.373 . S
C2053 C2055 1.389 . S
C2054 H2027 0.950 . S
C2054 C2040 1.377 . S
C2054 C2053 1.373 . S
C2055 C2039 1.377 . S
C2055 C2053 1.389 . S
C2055 C2056 1.524 . S
C2056 C2055 1.524 . S
C2056 C2057 1.397 . S
C2056 C2061 1.363 . S
C2057 H2028 0.950 . S
C2057 C2056 1.397 . S
C2057 C2058 1.334 . S
C2058 H2029 0.950 . S
C2058 C2057 1.334 . S
C2058 C2059 1.287 . S
C2059 C2058 1.287 . S
C2059 C2060 1.524 . S
C2059 H2062 0.999 . S
C2060 H2030 0.950 . S
C2060 C2059 1.524 . S
C2060 C2061 1.415 . S
C2061 H2031 0.950 . S
C2061 C2056 1.363 . S
C2061 C2060 1.415 . S
H2062 C2059 0.999 . S
H2063 C2044 0.913 . S
H2064 C2082 0.951 . S
H2065 C2084 0.951 . S
H2066 C2086 0.950 . S
H2067 C2087 0.950 . S
H2068 C2089 0.950 . S
H2069 C2092 0.950 . S
H2070 C2093 0.950 . S
H2071 C2095 0.950 . S
H2072 C2096 0.950 . S
H2073 C2097 0.951 . S
H2074 C2099 0.951 . S
H2075 C2101 0.950 . S
H2076 C2102 0.950 . S
H2077 C2104 0.950 . S
H2078 C2107 0.950 . S
H2079 C2108 0.950 . S
H2080 C2110 0.950 . S
H2081 C2111 0.950 . S
C2082 H2064 0.951 . S
C2082 C2083 1.366 . S
C2082 C2084 1.388 . S
C2083 C2082 1.366 . S
C2083 C2087 1.385 . S
C2084 H2065 0.951 . S
C2084 C2082 1.388 . S
C2084 C2085 1.366 . S
C2085 C2084 1.366 . S
C2085 C2086 1.414 . S
C2085 C2088 1.499 . S
C2086 H2066 0.950 . S
C2086 C2085 1.414 . S
C2086 C2087 1.374 . S
C2087 H2067 0.950 . S
C2087 C2083 1.385 . S
C2087 C2086 1.374 . S
C2088 C2085 1.499 . S
C2088 C2089 1.373 . S
C2088 C2090 1.389 . S
C2089 H2068 0.950 . S
C2089 C2088 1.373 . S
C2089 C2105 1.377 . S
C2090 C2088 1.389 . S
C2090 C2091 1.524 . S
C2090 C2104 1.377 . S
C2091 C2090 1.524 . S
C2091 C2092 1.397 . S
C2091 C2096 1.363 . S
C2092 H2069 0.950 . S
C2092 C2091 1.397 . S
C2092 C2093 1.334 . S
C2093 H2070 0.950 . S
C2093 C2092 1.334 . S
C2093 C2094 1.287 . S
C2094 C2093 1.287 . S
C2094 C2095 1.524 . S
C2094 H2113 0.913 . S
C2095 H2071 0.950 . S
C2095 C2094 1.524 . S
C2095 C2096 1.415 . S
C2096 H2072 0.950 . S
C2096 C2091 1.363 . S
C2096 C2095 1.415 . S
C2097 H2073 0.951 . S
C2097 C2098 1.366 . S
C2097 C2099 1.388 . S
C2098 C2097 1.366 . S
C2098 C2102 1.385 . S
C2099 H2074 0.951 . S
C2099 C2097 1.388 . S
C2099 C2100 1.366 . S
C2100 C2099 1.366 . S
C2100 C2101 1.414 . S
C2100 C2103 1.499 . S
C2101 H2075 0.950 . S
C2101 C2100 1.414 . S
C2101 C2102 1.374 . S
C2102 H2076 0.950 . S
C2102 C2098 1.385 . S
C2102 C2101 1.374 . S
C2103 C2100 1.499 . S
C2103 C2104 1.373 . S
C2103 C2105 1.389 . S
C2104 H2077 0.950 . S
C2104 C2090 1.377 . S
C2104 C2103 1.373 . S
C2105 C2089 1.377 . S
C2105 C2103 1.389 . S
C2105 C2106 1.524 . S
C2106 C2105 1.524 . S
C2106 C2107 1.397 . S
C2106 C2111 1.363 . S
C2107 H2078 0.950 . S
C2107 C2106 1.397 . S
C2107 C2108 1.334 . S
C2108 H2079 0.950 . S
C2108 C2107 1.334 . S
C2108 C2109 1.287 . S
C2109 C2108 1.287 . S
C2109 C2110 1.524 . S
C2109 H2112 0.999 . S
C2110 H2080 0.950 . S
C2110 C2109 1.524 . S
C2110 C2111 1.415 . S
C2111 H2081 0.950 . S
C2111 C2106 1.363 . S
C2111 C2110 1.415 . S
H2112 C2109 0.999 . S
H2113 C2094 0.913 . S
H2114 C2132 0.951 . S
H2115 C2134 0.951 . S
H2116 C2136 0.950 . S
H2117 C2137 0.950 . S
H2118 C2139 0.950 . S
H2119 C2142 0.950 . S
H2120 C2143 0.950 . S
H2121 C2145 0.950 . S
H2122 C2146 0.950 . S
H2123 C2147 0.951 . S
H2124 C2149 0.951 . S
H2125 C2151 0.950 . S
H2126 C2152 0.950 . S
H2127 C2154 0.950 . S
H2128 C2157 0.950 . S
H2129 C2158 0.950 . S
H2130 C2160 0.950 . S
H2131 C2161 0.950 . S
C2132 H2114 0.951 . S
C2132 C2133 1.366 . S
C2132 C2134 1.388 . S
C2133 C2132 1.366 . S
C2133 C2137 1.385 . S
C2134 H2115 0.951 . S
C2134 C2132 1.388 . S
C2134 C2135 1.366 . S
C2135 C2134 1.366 . S
C2135 C2136 1.414 . S
C2135 C2138 1.499 . S
C2136 H2116 0.950 . S
C2136 C2135 1.414 . S
C2136 C2137 1.374 . S
C2137 H2117 0.950 . S
C2137 C2133 1.385 . S
C2137 C2136 1.374 . S
C2138 C2135 1.499 . S
C2138 C2139 1.373 . S
C2138 C2140 1.389 . S
C2139 H2118 0.950 . S
C2139 C2138 1.373 . S
C2139 C2155 1.377 . S
C2140 C2138 1.389 . S
C2140 C2141 1.524 . S
C2140 C2154 1.377 . S
C2141 C2140 1.524 . S
C2141 C2142 1.397 . S
C2141 C2146 1.363 . S
C2142 H2119 0.950 . S
C2142 C2141 1.397 . S
C2142 C2143 1.334 . S
C2143 H2120 0.950 . S
C2143 C2142 1.334 . S
C2143 C2144 1.287 . S
C2144 C2143 1.287 . S
C2144 C2145 1.524 . S
C2144 H2163 0.913 . S
C2145 H2121 0.950 . S
C2145 C2144 1.524 . S
C2145 C2146 1.415 . S
C2146 H2122 0.950 . S
C2146 C2141 1.363 . S
C2146 C2145 1.415 . S
C2147 H2123 0.951 . S
C2147 C2148 1.366 . S
C2147 C2149 1.388 . S
C2148 C2147 1.366 . S
C2148 C2152 1.385 . S
C2149 H2124 0.951 . S
C2149 C2147 1.388 . S
C2149 C2150 1.366 . S
C2150 C2149 1.366 . S
C2150 C2151 1.414 . S
C2150 C2153 1.499 . S
C2151 H2125 0.950 . S
C2151 C2150 1.414 . S
C2151 C2152 1.374 . S
C2152 H2126 0.950 . S
C2152 C2148 1.385 . S
C2152 C2151 1.374 . S
C2153 C2150 1.499 . S
C2153 C2154 1.373 . S
C2153 C2155 1.389 . S
C2154 H2127 0.950 . S
C2154 C2140 1.377 . S
C2154 C2153 1.373 . S
C2155 C2139 1.377 . S
C2155 C2153 1.389 . S
C2155 C2156 1.524 . S
C2156 C2155 1.524 . S
C2156 C2157 1.397 . S
C2156 C2161 1.363 . S
C2157 H2128 0.950 . S
C2157 C2156 1.397 . S
C2157 C2158 1.334 . S
C2158 H2129 0.950 . S
C2158 C2157 1.334 . S
C2158 C2159 1.287 . S
C2159 C2158 1.287 . S
C2159 C2160 1.524 . S
C2159 H2162 0.999 . S
C2160 H2130 0.950 . S
C2160 C2159 1.524 . S
C2160 C2161 1.415 . S
C2161 H2131 0.950 . S
C2161 C2156 1.363 . S
C2161 C2160 1.415 . S
H2162 C2159 0.999 . S
H2163 C2144 0.913 . S
H2164 C2182 0.951 . S
H2165 C2184 0.951 . S
H2166 C2186 0.950 . S
H2167 C2187 0.950 . S
H2168 C2189 0.950 . S
H2169 C2192 0.950 . S
H2170 C2193 0.950 . S
H2171 C2195 0.950 . S
H2172 C2196 0.950 . S
H2173 C2197 0.951 . S
H2174 C2199 0.951 . S
H2175 C2201 0.950 . S
H2176 C2202 0.950 . S
H2177 C2204 0.950 . S
H2178 C2207 0.950 . S
H2179 C2208 0.950 . S
H2180 C2210 0.950 . S
H2181 C2211 0.950 . S
C2182 H2164 0.951 . S
C2182 C2183 1.366 . S
C2182 C2184 1.388 . S
C2183 C2182 1.366 . S
C2183 C2187 1.385 . S
C2184 H2165 0.951 . S
C2184 C2182 1.388 . S
C2184 C2185 1.366 . S
C2185 C2184 1.366 . S
C2185 C2186 1.414 . S
C2185 C2188 1.499 . S
C2186 H2166 0.950 . S
C2186 C2185 1.414 . S
C2186 C2187 1.374 . S
C2187 H2167 0.950 . S
C2187 C2183 1.385 . S
C2187 C2186 1.374 . S
C2188 C2185 1.499 . S
C2188 C2189 1.373 . S
C2188 C2190 1.389 . S
C2189 H2168 0.950 . S
C2189 C2188 1.373 . S
C2189 C2205 1.377 . S
C2190 C2188 1.389 . S
C2190 C2191 1.524 . S
C2190 C2204 1.377 . S
C2191 C2190 1.524 . S
C2191 C2192 1.397 . S
C2191 C2196 1.363 . S
C2192 H2169 0.950 . S
C2192 C2191 1.397 . S
C2192 C2193 1.334 . S
C2193 H2170 0.950 . S
C2193 C2192 1.334 . S
C2193 C2194 1.287 . S
C2194 C2193 1.287 . S
C2194 C2195 1.524 . S
C2194 H2213 0.913 . S
C2195 H2171 0.950 . S
C2195 C2194 1.524 . S
C2195 C2196 1.415 . S
C2196 H2172 0.950 . S
C2196 C2191 1.363 . S
C2196 C2195 1.415 . S
C2197 H2173 0.951 . S
C2197 C2198 1.366 . S
C2197 C2199 1.388 . S
C2198 C2197 1.366 . S
C2198 C2202 1.385 . S
C2199 H2174 0.951 . S
C2199 C2197 1.388 . S
C2199 C2200 1.366 . S
C2200 C2199 1.366 . S
C2200 C2201 1.414 . S
C2200 C2203 1.499 . S
C2201 H2175 0.950 . S
C2201 C2200 1.414 . S
C2201 C2202 1.374 . S
C2202 H2176 0.950 . S
C2202 C2198 1.385 . S
C2202 C2201 1.374 . S
C2203 C2200 1.499 . S
C2203 C2204 1.373 . S
C2203 C2205 1.389 . S
C2204 H2177 0.950 . S
C2204 C2190 1.377 . S
C2204 C2203 1.373 . S
C2205 C2189 1.377 . S
C2205 C2203 1.389 . S
C2205 C2206 1.524 . S
C2206 C2205 1.524 . S
C2206 C2207 1.397 . S
C2206 C2211 1.363 . S
C2207 H2178 0.950 . S
C2207 C2206 1.397 . S
C2207 C2208 1.334 . S
C2208 H2179 0.950 . S
C2208 C2207 1.334 . S
C2208 C2209 1.287 . S
C2209 C2208 1.287 . S
C2209 C2210 1.524 . S
C2209 H2212 0.999 . S
C2210 H2180 0.950 . S
C2210 C2209 1.524 . S
C2210 C2211 1.415 . S
C2211 H2181 0.950 . S
C2211 C2206 1.363 . S
C2211 C2210 1.415 . S
H2212 C2209 0.999 . S
H2213 C2194 0.913 . S
H2214 C2232 0.951 . S
H2215 C2234 0.951 . S
H2216 C2236 0.950 . S
H2217 C2237 0.950 . S
H2218 C2239 0.950 . S
H2219 C2242 0.950 . S
H2220 C2243 0.950 . S
H2221 C2245 0.950 . S
H2222 C2246 0.950 . S
H2223 C2247 0.951 . S
H2224 C2249 0.951 . S
H2225 C2251 0.950 . S
H2226 C2252 0.950 . S
H2227 C2254 0.950 . S
H2228 C2257 0.950 . S
H2229 C2258 0.950 . S
H2230 C2260 0.950 . S
H2231 C2261 0.950 . S
C2232 H2214 0.951 . S
C2232 C2233 1.366 . S
C2232 C2234 1.388 . S
C2233 C2232 1.366 . S
C2233 C2237 1.385 . S
C2234 H2215 0.951 . S
C2234 C2232 1.388 . S
C2234 C2235 1.366 . S
C2235 C2234 1.366 . S
C2235 C2236 1.414 . S
C2235 C2238 1.499 . S
C2236 H2216 0.950 . S
C2236 C2235 1.414 . S
C2236 C2237 1.374 . S
C2237 H2217 0.950 . S
C2237 C2233 1.385 . S
C2237 C2236 1.374 . S
C2238 C2235 1.499 . S
C2238 C2239 1.373 . S
C2238 C2240 1.389 . S
C2239 H2218 0.950 . S
C2239 C2238 1.373 . S
C2239 C2255 1.377 . S
C2240 C2238 1.389 . S
C2240 C2241 1.524 . S
C2240 C2254 1.377 . S
C2241 C2240 1.524 . S
C2241 C2242 1.397 . S
C2241 C2246 1.363 . S
C2242 H2219 0.950 . S
C2242 C2241 1.397 . S
C2242 C2243 1.334 . S
C2243 H2220 0.950 . S
C2243 C2242 1.334 . S
C2243 C2244 1.287 . S
C2244 C2243 1.287 . S
C2244 C2245 1.524 . S
C2244 H2263 0.913 . S
C2245 H2221 0.950 . S
C2245 C2244 1.524 . S
C2245 C2246 1.415 . S
C2246 H2222 0.950 . S
C2246 C2241 1.363 . S
C2246 C2245 1.415 . S
C2247 H2223 0.951 . S
C2247 C2248 1.366 . S
C2247 C2249 1.388 . S
C2248 C2247 1.366 . S
C2248 C2252 1.385 . S
C2249 H2224 0.951 . S
C2249 C2247 1.388 . S
C2249 C2250 1.366 . S
C2250 C2249 1.366 . S
C2250 C2251 1.414 . S
C2250 C2253 1.499 . S
C2251 H2225 0.950 . S
C2251 C2250 1.414 . S
C2251 C2252 1.374 . S
C2252 H2226 0.950 . S
C2252 C2248 1.385 . S
C2252 C2251 1.374 . S
C2253 C2250 1.499 . S
C2253 C2254 1.373 . S
C2253 C2255 1.389 . S
C2254 H2227 0.950 . S
C2254 C2240 1.377 . S
C2254 C2253 1.373 . S
C2255 C2239 1.377 . S
C2255 C2253 1.389 . S
C2255 C2256 1.524 . S
C2256 C2255 1.524 . S
C2256 C2257 1.397 . S
C2256 C2261 1.363 . S
C2257 H2228 0.950 . S
C2257 C2256 1.397 . S
C2257 C2258 1.334 . S
C2258 H2229 0.950 . S
C2258 C2257 1.334 . S
C2258 C2259 1.287 . S
C2259 C2258 1.287 . S
C2259 C2260 1.524 . S
C2259 H2262 0.999 1_556 S
C2260 H2230 0.950 . S
C2260 C2259 1.524 . S
C2260 C2261 1.415 . S
C2261 H2231 0.950 . S
C2261 C2256 1.363 . S
C2261 C2260 1.415 . S
H2262 C2259 0.999 1_554 S
H2263 C2244 0.913 . S
H2264 C2282 0.951 . S
H2265 C2284 0.951 . S
H2266 C2286 0.950 . S
H2267 C2287 0.950 . S
H2268 C2289 0.950 . S
H2269 C2292 0.950 . S
H2270 C2293 0.950 . S
H2271 C2295 0.950 . S
H2272 C2296 0.950 . S
H2273 C2297 0.951 . S
H2274 C2299 0.951 . S
H2275 C2301 0.950 . S
H2276 C2302 0.950 . S
H2277 C2304 0.950 . S
H2278 C2307 0.950 . S
H2279 C2308 0.950 . S
H2280 C2310 0.950 . S
H2281 C2311 0.950 . S
C2282 H2264 0.951 . S
C2282 C2283 1.366 . S
C2282 C2284 1.388 . S
C2283 C2282 1.366 . S
C2283 C2287 1.385 . S
C2284 H2265 0.951 . S
C2284 C2282 1.388 . S
C2284 C2285 1.366 . S
C2285 C2284 1.366 . S
C2285 C2286 1.414 . S
C2285 C2288 1.499 . S
C2286 H2266 0.950 . S
C2286 C2285 1.414 . S
C2286 C2287 1.374 . S
C2287 H2267 0.950 . S
C2287 C2283 1.385 . S
C2287 C2286 1.374 . S
C2288 C2285 1.499 . S
C2288 C2289 1.373 . S
C2288 C2290 1.389 . S
C2289 H2268 0.950 . S
C2289 C2288 1.373 . S
C2289 C2305 1.377 . S
C2290 C2288 1.389 . S
C2290 C2291 1.524 . S
C2290 C2304 1.377 . S
C2291 C2290 1.524 . S
C2291 C2292 1.397 . S
C2291 C2296 1.363 . S
C2292 H2269 0.950 . S
C2292 C2291 1.397 . S
C2292 C2293 1.334 . S
C2293 H2270 0.950 . S
C2293 C2292 1.334 . S
C2293 C2294 1.287 . S
C2294 C2293 1.287 . S
C2294 C2295 1.524 . S
C2294 H2313 0.913 . S
C2295 H2271 0.950 . S
C2295 C2294 1.524 . S
C2295 C2296 1.415 . S
C2296 H2272 0.950 . S
C2296 C2291 1.363 . S
C2296 C2295 1.415 . S
C2297 H2273 0.951 . S
C2297 C2298 1.366 . S
C2297 C2299 1.388 . S
C2298 C2297 1.366 . S
C2298 C2302 1.385 . S
C2299 H2274 0.951 . S
C2299 C2297 1.388 . S
C2299 C2300 1.366 . S
C2300 C2299 1.366 . S
C2300 C2301 1.414 . S
C2300 C2303 1.499 . S
C2301 H2275 0.950 . S
C2301 C2300 1.414 . S
C2301 C2302 1.374 . S
C2302 H2276 0.950 . S
C2302 C2298 1.385 . S
C2302 C2301 1.374 . S
C2303 C2300 1.499 . S
C2303 C2304 1.373 . S
C2303 C2305 1.389 . S
C2304 H2277 0.950 . S
C2304 C2290 1.377 . S
C2304 C2303 1.373 . S
C2305 C2289 1.377 . S
C2305 C2303 1.389 . S
C2305 C2306 1.524 . S
C2306 C2305 1.524 . S
C2306 C2307 1.397 . S
C2306 C2311 1.363 . S
C2307 H2278 0.950 . S
C2307 C2306 1.397 . S
C2307 C2308 1.334 . S
C2308 H2279 0.950 . S
C2308 C2307 1.334 . S
C2308 C2309 1.287 . S
C2309 C2308 1.287 . S
C2309 C2310 1.524 . S
C2309 H2312 0.999 . S
C2310 H2280 0.950 . S
C2310 C2309 1.524 . S
C2310 C2311 1.415 . S
C2311 H2281 0.950 . S
C2311 C2306 1.363 . S
C2311 C2310 1.415 . S
H2312 C2309 0.999 . S
H2313 C2294 0.913 . S
H2314 C2332 0.951 . S
H2315 C2334 0.951 . S
H2316 C2336 0.950 . S
H2317 C2337 0.950 . S
H2318 C2339 0.950 . S
H2319 C2342 0.950 . S
H2320 C2343 0.950 . S
H2321 C2345 0.950 . S
H2322 C2346 0.950 . S
H2323 C2347 0.951 . S
H2324 C2349 0.951 . S
H2325 C2351 0.950 . S
H2326 C2352 0.950 . S
H2327 C2354 0.950 . S
H2328 C2357 0.950 . S
H2329 C2358 0.950 . S
H2330 C2360 0.950 . S
H2331 C2361 0.950 . S
C2332 H2314 0.951 . S
C2332 C2333 1.366 . S
C2332 C2334 1.388 . S
C2333 C2332 1.366 . S
C2333 C2337 1.385 . S
C2334 H2315 0.951 . S
C2334 C2332 1.388 . S
C2334 C2335 1.366 . S
C2335 C2334 1.366 . S
C2335 C2336 1.414 . S
C2335 C2338 1.499 . S
C2336 H2316 0.950 . S
C2336 C2335 1.414 . S
C2336 C2337 1.374 . S
C2337 H2317 0.950 . S
C2337 C2333 1.385 . S
C2337 C2336 1.374 . S
C2338 C2335 1.499 . S
C2338 C2339 1.373 . S
C2338 C2340 1.389 . S
C2339 H2318 0.950 . S
C2339 C2338 1.373 . S
C2339 C2355 1.377 . S
C2340 C2338 1.389 . S
C2340 C2341 1.524 . S
C2340 C2354 1.377 . S
C2341 C2340 1.524 . S
C2341 C2342 1.397 . S
C2341 C2346 1.363 . S
C2342 H2319 0.950 . S
C2342 C2341 1.397 . S
C2342 C2343 1.334 . S
C2343 H2320 0.950 . S
C2343 C2342 1.334 . S
C2343 C2344 1.287 . S
C2344 C2343 1.287 . S
C2344 C2345 1.524 . S
C2344 H2363 0.913 . S
C2345 H2321 0.950 . S
C2345 C2344 1.524 . S
C2345 C2346 1.415 . S
C2346 H2322 0.950 . S
C2346 C2341 1.363 . S
C2346 C2345 1.415 . S
C2347 H2323 0.951 . S
C2347 C2348 1.366 . S
C2347 C2349 1.388 . S
C2348 C2347 1.366 . S
C2348 C2352 1.385 . S
C2349 H2324 0.951 . S
C2349 C2347 1.388 . S
C2349 C2350 1.366 . S
C2350 C2349 1.366 . S
C2350 C2351 1.414 . S
C2350 C2353 1.499 . S
C2351 H2325 0.950 . S
C2351 C2350 1.414 . S
C2351 C2352 1.374 . S
C2352 H2326 0.950 . S
C2352 C2348 1.385 . S
C2352 C2351 1.374 . S
C2353 C2350 1.499 . S
C2353 C2354 1.373 . S
C2353 C2355 1.389 . S
C2354 H2327 0.950 . S
C2354 C2340 1.377 . S
C2354 C2353 1.373 . S
C2355 C2339 1.377 . S
C2355 C2353 1.389 . S
C2355 C2356 1.524 . S
C2356 C2355 1.524 . S
C2356 C2357 1.397 . S
C2356 C2361 1.363 . S
C2357 H2328 0.950 . S
C2357 C2356 1.397 . S
C2357 C2358 1.334 . S
C2358 H2329 0.950 . S
C2358 C2357 1.334 . S
C2358 C2359 1.287 . S
C2359 C2358 1.287 . S
C2359 C2360 1.524 . S
C2359 H2362 0.999 . S
C2360 H2330 0.950 . S
C2360 C2359 1.524 . S
C2360 C2361 1.415 . S
C2361 H2331 0.950 . S
C2361 C2356 1.363 . S
C2361 C2360 1.415 . S
H2362 C2359 0.999 . S
H2363 C2344 0.913 . S
H2364 C2382 0.951 . S
H2365 C2384 0.951 . S
H2366 C2386 0.950 . S
H2367 C2387 0.950 . S
H2368 C2389 0.950 . S
H2369 C2392 0.950 . S
H2370 C2393 0.950 . S
H2371 C2395 0.950 . S
H2372 C2396 0.950 . S
H2373 C2397 0.951 . S
H2374 C2399 0.951 . S
H2375 C2401 0.950 . S
H2376 C2402 0.950 . S
H2377 C2404 0.950 . S
H2378 C2407 0.950 . S
H2379 C2408 0.950 . S
H2380 C2410 0.950 . S
H2381 C2411 0.950 . S
C2382 H2364 0.951 . S
C2382 C2383 1.366 . S
C2382 C2384 1.388 . S
C2383 C2382 1.366 . S
C2383 C2387 1.385 . S
C2384 H2365 0.951 . S
C2384 C2382 1.388 . S
C2384 C2385 1.366 . S
C2385 C2384 1.366 . S
C2385 C2386 1.414 . S
C2385 C2388 1.499 . S
C2386 H2366 0.950 . S
C2386 C2385 1.414 . S
C2386 C2387 1.374 . S
C2387 H2367 0.950 . S
C2387 C2383 1.385 . S
C2387 C2386 1.374 . S
C2388 C2385 1.499 . S
C2388 C2389 1.373 . S
C2388 C2390 1.389 . S
C2389 H2368 0.950 . S
C2389 C2388 1.373 . S
C2389 C2405 1.377 . S
C2390 C2388 1.389 . S
C2390 C2391 1.524 . S
C2390 C2404 1.377 . S
C2391 C2390 1.524 . S
C2391 C2392 1.397 . S
C2391 C2396 1.363 . S
C2392 H2369 0.950 . S
C2392 C2391 1.397 . S
C2392 C2393 1.334 . S
C2393 H2370 0.950 . S
C2393 C2392 1.334 . S
C2393 C2394 1.287 . S
C2394 C2393 1.287 . S
C2394 C2395 1.524 . S
C2394 H2413 0.913 . S
C2395 H2371 0.950 . S
C2395 C2394 1.524 . S
C2395 C2396 1.415 . S
C2396 H2372 0.950 . S
C2396 C2391 1.363 . S
C2396 C2395 1.415 . S
C2397 H2373 0.951 . S
C2397 C2398 1.366 . S
C2397 C2399 1.388 . S
C2398 C2397 1.366 . S
C2398 C2402 1.385 . S
C2399 H2374 0.951 . S
C2399 C2397 1.388 . S
C2399 C2400 1.366 . S
C2400 C2399 1.366 . S
C2400 C2401 1.414 . S
C2400 C2403 1.499 . S
C2401 H2375 0.950 . S
C2401 C2400 1.414 . S
C2401 C2402 1.374 . S
C2402 H2376 0.950 . S
C2402 C2398 1.385 . S
C2402 C2401 1.374 . S
C2403 C2400 1.499 . S
C2403 C2404 1.373 . S
C2403 C2405 1.389 . S
C2404 H2377 0.950 . S
C2404 C2390 1.377 . S
C2404 C2403 1.373 . S
C2405 C2389 1.377 . S
C2405 C2403 1.389 . S
C2405 C2406 1.524 . S
C2406 C2405 1.524 . S
C2406 C2407 1.397 . S
C2406 C2411 1.363 . S
C2407 H2378 0.950 . S
C2407 C2406 1.397 . S
C2407 C2408 1.334 . S
C2408 H2379 0.950 . S
C2408 C2407 1.334 . S
C2408 C2409 1.287 . S
C2409 C2408 1.287 . S
C2409 C2410 1.524 . S
C2409 H2412 0.999 . S
C2410 H2380 0.950 . S
C2410 C2409 1.524 . S
C2410 C2411 1.415 . S
C2411 H2381 0.950 . S
C2411 C2406 1.363 . S
C2411 C2410 1.415 . S
H2412 C2409 0.999 . S
H2413 C2394 0.913 . S
H2414 C2432 0.951 . S
H2415 C2434 0.951 . S
H2416 C2436 0.950 . S
H2417 C2437 0.950 . S
H2418 C2439 0.950 . S
H2419 C2442 0.950 . S
H2420 C2443 0.950 . S
H2421 C2445 0.950 . S
H2422 C2446 0.950 . S
H2423 C2447 0.951 . S
H2424 C2449 0.951 . S
H2425 C2451 0.950 . S
H2426 C2452 0.950 . S
H2427 C2454 0.950 . S
H2428 C2457 0.950 . S
H2429 C2458 0.950 . S
H2430 C2460 0.950 . S
H2431 C2461 0.950 . S
C2432 H2414 0.951 . S
C2432 C2433 1.366 . S
C2432 C2434 1.388 . S
C2433 C2432 1.366 . S
C2433 C2437 1.385 . S
C2434 H2415 0.951 . S
C2434 C2432 1.388 . S
C2434 C2435 1.366 . S
C2435 C2434 1.366 . S
C2435 C2436 1.414 . S
C2435 C2438 1.499 . S
C2436 H2416 0.950 . S
C2436 C2435 1.414 . S
C2436 C2437 1.374 . S
C2437 H2417 0.950 . S
C2437 C2433 1.385 . S
C2437 C2436 1.374 . S
C2438 C2435 1.499 . S
C2438 C2439 1.373 . S
C2438 C2440 1.389 . S
C2439 H2418 0.950 . S
C2439 C2438 1.373 . S
C2439 C2455 1.377 . S
C2440 C2438 1.389 . S
C2440 C2441 1.524 . S
C2440 C2454 1.377 . S
C2441 C2440 1.524 . S
C2441 C2442 1.397 . S
C2441 C2446 1.363 . S
C2442 H2419 0.950 . S
C2442 C2441 1.397 . S
C2442 C2443 1.334 . S
C2443 H2420 0.950 . S
C2443 C2442 1.334 . S
C2443 C2444 1.287 . S
C2444 C2443 1.287 . S
C2444 C2445 1.524 . S
C2444 H2463 0.913 . S
C2445 H2421 0.950 . S
C2445 C2444 1.524 . S
C2445 C2446 1.415 . S
C2446 H2422 0.950 . S
C2446 C2441 1.363 . S
C2446 C2445 1.415 . S
C2447 H2423 0.951 . S
C2447 C2448 1.366 . S
C2447 C2449 1.388 . S
C2448 C2447 1.366 . S
C2448 C2452 1.385 . S
C2449 H2424 0.951 . S
C2449 C2447 1.388 . S
C2449 C2450 1.366 . S
C2450 C2449 1.366 . S
C2450 C2451 1.414 . S
C2450 C2453 1.499 . S
C2451 H2425 0.950 . S
C2451 C2450 1.414 . S
C2451 C2452 1.374 . S
C2452 H2426 0.950 . S
C2452 C2448 1.385 . S
C2452 C2451 1.374 . S
C2453 C2450 1.499 . S
C2453 C2454 1.373 . S
C2453 C2455 1.389 . S
C2454 H2427 0.950 . S
C2454 C2440 1.377 . S
C2454 C2453 1.373 . S
C2455 C2439 1.377 . S
C2455 C2453 1.389 . S
C2455 C2456 1.524 . S
C2456 C2455 1.524 . S
C2456 C2457 1.397 . S
C2456 C2461 1.363 . S
C2457 H2428 0.950 . S
C2457 C2456 1.397 . S
C2457 C2458 1.334 . S
C2458 H2429 0.950 . S
C2458 C2457 1.334 . S
C2458 C2459 1.287 . S
C2459 C2458 1.287 . S
C2459 C2460 1.524 . S
C2459 H2462 0.999 . S
C2460 H2430 0.950 . S
C2460 C2459 1.524 . S
C2460 C2461 1.415 . S
C2461 H2431 0.950 . S
C2461 C2456 1.363 . S
C2461 C2460 1.415 . S
H2462 C2459 0.999 . S
H2463 C2444 0.913 . S
H2464 C2482 0.951 . S
H2465 C2484 0.951 . S
H2466 C2486 0.950 . S
H2467 C2487 0.950 . S
H2468 C2489 0.950 . S
H2469 C2492 0.950 . S
H2470 C2493 0.950 . S
H2471 C2495 0.950 . S
H2472 C2496 0.950 . S
H2473 C2497 0.951 . S
H2474 C2499 0.951 . S
H2475 C2501 0.950 . S
H2476 C2502 0.950 . S
H2477 C2504 0.950 . S
H2478 C2507 0.950 . S
H2479 C2508 0.950 . S
H2480 C2510 0.950 1_455 S
H2481 C2511 0.950 . S
C2482 H2464 0.951 . S
C2482 C2483 1.366 . S
C2482 C2484 1.388 . S
C2483 C2482 1.366 . S
C2483 C2487 1.385 . S
C2484 H2465 0.951 . S
C2484 C2482 1.388 . S
C2484 C2485 1.366 . S
C2485 C2484 1.366 . S
C2485 C2486 1.414 . S
C2485 C2488 1.499 . S
C2486 H2466 0.950 . S
C2486 C2485 1.414 . S
C2486 C2487 1.374 . S
C2487 H2467 0.950 . S
C2487 C2483 1.385 . S
C2487 C2486 1.374 . S
C2488 C2485 1.499 . S
C2488 C2489 1.373 . S
C2488 C2490 1.389 . S
C2489 H2468 0.950 . S
C2489 C2488 1.373 . S
C2489 C2505 1.377 . S
C2490 C2488 1.389 . S
C2490 C2491 1.524 . S
C2490 C2504 1.377 . S
C2491 C2490 1.524 . S
C2491 C2492 1.397 . S
C2491 C2496 1.363 . S
C2492 H2469 0.950 . S
C2492 C2491 1.397 . S
C2492 C2493 1.334 . S
C2493 H2470 0.950 . S
C2493 C2492 1.334 . S
C2493 C2494 1.287 . S
C2494 C2493 1.287 . S
C2494 C2495 1.524 . S
C2494 H2513 0.913 . S
C2495 H2471 0.950 . S
C2495 C2494 1.524 . S
C2495 C2496 1.415 . S
C2496 H2472 0.950 . S
C2496 C2491 1.363 . S
C2496 C2495 1.415 . S
C2497 H2473 0.951 . S
C2497 C2498 1.366 . S
C2497 C2499 1.388 . S
C2498 C2497 1.366 . S
C2498 C2502 1.385 . S
C2499 H2474 0.951 . S
C2499 C2497 1.388 . S
C2499 C2500 1.366 . S
C2500 C2499 1.366 . S
C2500 C2501 1.414 . S
C2500 C2503 1.499 . S
C2501 H2475 0.950 . S
C2501 C2500 1.414 . S
C2501 C2502 1.374 . S
C2502 H2476 0.950 . S
C2502 C2498 1.385 . S
C2502 C2501 1.374 . S
C2503 C2500 1.499 . S
C2503 C2504 1.373 . S
C2503 C2505 1.389 . S
C2504 H2477 0.950 . S
C2504 C2490 1.377 . S
C2504 C2503 1.373 . S
C2505 C2489 1.377 . S
C2505 C2503 1.389 . S
C2505 C2506 1.524 . S
C2506 C2505 1.524 . S
C2506 C2507 1.397 . S
C2506 C2511 1.363 . S
C2507 H2478 0.950 . S
C2507 C2506 1.397 . S
C2507 C2508 1.334 . S
C2508 H2479 0.950 . S
C2508 C2507 1.334 . S
C2508 C2509 1.281 1_655 S
C2509 C2508 1.281 1_455 S
C2509 C2510 1.520 1_455 S
C2509 H2512 1.012 . S
C2510 H2480 0.950 1_655 S
C2510 C2509 1.520 1_655 S
C2510 C2511 1.415 . S
C2511 H2481 0.950 . S
C2511 C2506 1.363 . S
C2511 C2510 1.415 . S
H2512 C2509 1.012 . S
H2513 C2494 0.913 . S
H2514 C2532 0.951 . S
H2515 C2534 0.951 . S
H2516 C2536 0.950 . S
H2517 C2537 0.950 . S
H2518 C2539 0.950 . S
H2519 C2542 0.950 . S
H2520 C2543 0.950 . S
H2521 C2545 0.950 . S
H2522 C2546 0.950 . S
H2523 C2547 0.951 . S
H2524 C2549 0.951 . S
H2525 C2551 0.950 . S
H2526 C2552 0.950 . S
H2527 C2554 0.950 . S
H2528 C2557 0.950 . S
H2529 C2558 0.950 . S
H2530 C2560 0.950 . S
H2531 C2561 0.950 . S
C2532 H2514 0.951 . S
C2532 C2533 1.366 . S
C2532 C2534 1.388 . S
C2533 C2532 1.366 . S
C2533 C2537 1.385 . S
C2534 H2515 0.951 . S
C2534 C2532 1.388 . S
C2534 C2535 1.366 . S
C2535 C2534 1.366 . S
C2535 C2536 1.414 . S
C2535 C2538 1.499 . S
C2536 H2516 0.950 . S
C2536 C2535 1.414 . S
C2536 C2537 1.374 . S
C2537 H2517 0.950 . S
C2537 C2533 1.385 . S
C2537 C2536 1.374 . S
C2538 C2535 1.499 . S
C2538 C2539 1.373 . S
C2538 C2540 1.389 . S
C2539 H2518 0.950 . S
C2539 C2538 1.373 . S
C2539 C2555 1.377 . S
C2540 C2538 1.389 . S
C2540 C2541 1.524 . S
C2540 C2554 1.377 . S
C2541 C2540 1.524 . S
C2541 C2542 1.397 . S
C2541 C2546 1.363 . S
C2542 H2519 0.950 . S
C2542 C2541 1.397 . S
C2542 C2543 1.334 . S
C2543 H2520 0.950 . S
C2543 C2542 1.334 . S
C2543 C2544 1.287 . S
C2544 C2543 1.287 . S
C2544 C2545 1.524 . S
C2544 H2563 0.913 . S
C2545 H2521 0.950 . S
C2545 C2544 1.524 . S
C2545 C2546 1.415 . S
C2546 H2522 0.950 . S
C2546 C2541 1.363 . S
C2546 C2545 1.415 . S
C2547 H2523 0.951 . S
C2547 C2548 1.366 . S
C2547 C2549 1.388 . S
C2548 C2547 1.366 . S
C2548 C2552 1.385 . S
C2549 H2524 0.951 . S
C2549 C2547 1.388 . S
C2549 C2550 1.366 . S
C2550 C2549 1.366 . S
C2550 C2551 1.414 . S
C2550 C2553 1.499 . S
C2551 H2525 0.950 . S
C2551 C2550 1.414 . S
C2551 C2552 1.374 . S
C2552 H2526 0.950 . S
C2552 C2548 1.385 . S
C2552 C2551 1.374 . S
C2553 C2550 1.499 . S
C2553 C2554 1.373 . S
C2553 C2555 1.389 . S
C2554 H2527 0.950 . S
C2554 C2540 1.377 . S
C2554 C2553 1.373 . S
C2555 C2539 1.377 . S
C2555 C2553 1.389 . S
C2555 C2556 1.524 . S
C2556 C2555 1.524 . S
C2556 C2557 1.397 . S
C2556 C2561 1.363 . S
C2557 H2528 0.950 . S
C2557 C2556 1.397 . S
C2557 C2558 1.334 . S
C2558 H2529 0.950 . S
C2558 C2557 1.334 . S
C2558 C2559 1.287 . S
C2559 C2558 1.287 . S
C2559 C2560 1.524 . S
C2559 H2562 0.999 . S
C2560 H2530 0.950 . S
C2560 C2559 1.524 . S
C2560 C2561 1.415 . S
C2561 H2531 0.950 . S
C2561 C2556 1.363 . S
C2561 C2560 1.415 . S
H2562 C2559 0.999 . S
H2563 C2544 0.913 . S
H2564 C2582 0.951 . S
H2565 C2584 0.951 . S
H2566 C2586 0.950 . S
H2567 C2587 0.950 . S
H2568 C2589 0.950 . S
H2569 C2592 0.950 . S
H2570 C2593 0.950 . S
H2571 C2595 0.950 . S
H2572 C2596 0.950 . S
H2573 C2597 0.951 . S
H2574 C2599 0.951 . S
H2575 C2601 0.950 . S
H2576 C2602 0.950 . S
H2577 C2604 0.950 . S
H2578 C2607 0.950 . S
H2579 C2608 0.950 . S
H2580 C2610 0.950 . S
H2581 C2611 0.950 . S
C2582 H2564 0.951 . S
C2582 C2583 1.366 . S
C2582 C2584 1.388 . S
C2583 C2582 1.366 . S
C2583 C2587 1.385 . S
C2584 H2565 0.951 . S
C2584 C2582 1.388 . S
C2584 C2585 1.366 . S
C2585 C2584 1.366 . S
C2585 C2586 1.414 . S
C2585 C2588 1.499 . S
C2586 H2566 0.950 . S
C2586 C2585 1.414 . S
C2586 C2587 1.374 . S
C2587 H2567 0.950 . S
C2587 C2583 1.385 . S
C2587 C2586 1.374 . S
C2588 C2585 1.499 . S
C2588 C2589 1.373 . S
C2588 C2590 1.389 . S
C2589 H2568 0.950 . S
C2589 C2588 1.373 . S
C2589 C2605 1.377 . S
C2590 C2588 1.389 . S
C2590 C2591 1.524 . S
C2590 C2604 1.377 . S
C2591 C2590 1.524 . S
C2591 C2592 1.397 . S
C2591 C2596 1.363 . S
C2592 H2569 0.950 . S
C2592 C2591 1.397 . S
C2592 C2593 1.334 . S
C2593 H2570 0.950 . S
C2593 C2592 1.334 . S
C2593 C2594 1.287 . S
C2594 C2593 1.287 . S
C2594 C2595 1.524 . S
C2594 H2613 0.913 . S
C2595 H2571 0.950 . S
C2595 C2594 1.524 . S
C2595 C2596 1.415 . S
C2596 H2572 0.950 . S
C2596 C2591 1.363 . S
C2596 C2595 1.415 . S
C2597 H2573 0.951 . S
C2597 C2598 1.366 . S
C2597 C2599 1.388 . S
C2598 C2597 1.366 . S
C2598 C2602 1.385 . S
C2599 H2574 0.951 . S
C2599 C2597 1.388 . S
C2599 C2600 1.366 . S
C2600 C2599 1.366 . S
C2600 C2601 1.414 . S
C2600 C2603 1.499 . S
C2601 H2575 0.950 . S
C2601 C2600 1.414 . S
C2601 C2602 1.374 . S
C2602 H2576 0.950 . S
C2602 C2598 1.385 . S
C2602 C2601 1.374 . S
C2603 C2600 1.499 . S
C2603 C2604 1.373 . S
C2603 C2605 1.389 . S
C2604 H2577 0.950 . S
C2604 C2590 1.377 . S
C2604 C2603 1.373 . S
C2605 C2589 1.377 . S
C2605 C2603 1.389 . S
C2605 C2606 1.524 . S
C2606 C2605 1.524 . S
C2606 C2607 1.397 . S
C2606 C2611 1.363 . S
C2607 H2578 0.950 . S
C2607 C2606 1.397 . S
C2607 C2608 1.334 . S
C2608 H2579 0.950 . S
C2608 C2607 1.334 . S
C2608 C2609 1.287 . S
C2609 C2608 1.287 . S
C2609 C2610 1.524 . S
C2609 H2612 0.999 . S
C2610 H2580 0.950 . S
C2610 C2609 1.524 . S
C2610 C2611 1.415 . S
C2611 H2581 0.950 . S
C2611 C2606 1.363 . S
C2611 C2610 1.415 . S
H2612 C2609 0.999 . S
H2613 C2594 0.913 . S
H2614 C2632 0.951 . S
H2615 C2634 0.951 . S
H2616 C2636 0.950 . S
H2617 C2637 0.950 . S
H2618 C2639 0.950 . S
H2619 C2642 0.950 . S
H2620 C2643 0.950 . S
H2621 C2645 0.950 . S
H2622 C2646 0.950 . S
H2623 C2647 0.951 . S
H2624 C2649 0.951 . S
H2625 C2651 0.950 . S
H2626 C2652 0.950 . S
H2627 C2654 0.950 . S
H2628 C2657 0.950 . S
H2629 C2658 0.950 . S
H2630 C2660 0.950 . S
H2631 C2661 0.950 . S
C2632 H2614 0.951 . S
C2632 C2633 1.366 . S
C2632 C2634 1.388 . S
C2633 C2632 1.366 . S
C2633 C2637 1.385 . S
C2634 H2615 0.951 . S
C2634 C2632 1.388 . S
C2634 C2635 1.366 . S
C2635 C2634 1.366 . S
C2635 C2636 1.414 . S
C2635 C2638 1.499 . S
C2636 H2616 0.950 . S
C2636 C2635 1.414 . S
C2636 C2637 1.374 . S
C2637 H2617 0.950 . S
C2637 C2633 1.385 . S
C2637 C2636 1.374 . S
C2638 C2635 1.499 . S
C2638 C2639 1.373 . S
C2638 C2640 1.389 . S
C2639 H2618 0.950 . S
C2639 C2638 1.373 . S
C2639 C2655 1.377 . S
C2640 C2638 1.389 . S
C2640 C2641 1.524 . S
C2640 C2654 1.377 . S
C2641 C2640 1.524 . S
C2641 C2642 1.397 . S
C2641 C2646 1.363 . S
C2642 H2619 0.950 . S
C2642 C2641 1.397 . S
C2642 C2643 1.334 . S
C2643 H2620 0.950 . S
C2643 C2642 1.334 . S
C2643 C2644 1.287 . S
C2644 C2643 1.287 . S
C2644 C2645 1.524 . S
C2644 H2663 0.913 . S
C2645 H2621 0.950 . S
C2645 C2644 1.524 . S
C2645 C2646 1.415 . S
C2646 H2622 0.950 . S
C2646 C2641 1.363 . S
C2646 C2645 1.415 . S
C2647 H2623 0.951 . S
C2647 C2648 1.366 . S
C2647 C2649 1.388 . S
C2648 C2647 1.366 . S
C2648 C2652 1.385 . S
C2649 H2624 0.951 . S
C2649 C2647 1.388 . S
C2649 C2650 1.366 . S
C2650 C2649 1.366 . S
C2650 C2651 1.414 . S
C2650 C2653 1.499 . S
C2651 H2625 0.950 . S
C2651 C2650 1.414 . S
C2651 C2652 1.374 . S
C2652 H2626 0.950 . S
C2652 C2648 1.385 . S
C2652 C2651 1.374 . S
C2653 C2650 1.499 . S
C2653 C2654 1.373 . S
C2653 C2655 1.389 . S
C2654 H2627 0.950 . S
C2654 C2640 1.377 . S
C2654 C2653 1.373 . S
C2655 C2639 1.377 . S
C2655 C2653 1.389 . S
C2655 C2656 1.524 . S
C2656 C2655 1.524 . S
C2656 C2657 1.397 . S
C2656 C2661 1.363 . S
C2657 H2628 0.950 . S
C2657 C2656 1.397 . S
C2657 C2658 1.334 . S
C2658 H2629 0.950 . S
C2658 C2657 1.334 . S
C2658 C2659 1.287 . S
C2659 C2658 1.287 . S
C2659 C2660 1.524 . S
C2659 H2662 0.999 . S
C2660 H2630 0.950 . S
C2660 C2659 1.524 . S
C2660 C2661 1.415 . S
C2661 H2631 0.950 . S
C2661 C2656 1.363 . S
C2661 C2660 1.415 . S
H2662 C2659 0.999 . S
H2663 C2644 0.913 . S
H2664 C2682 0.951 . S
H2665 C2684 0.951 . S
H2666 C2686 0.950 . S
H2667 C2687 0.950 . S
H2668 C2689 0.950 . S
H2669 C2692 0.950 . S
H2670 C2693 0.950 . S
H2671 C2695 0.950 . S
H2672 C2696 0.950 . S
H2673 C2697 0.951 . S
H2674 C2699 0.951 . S
H2675 C2701 0.950 . S
H2676 C2702 0.950 . S
H2677 C2704 0.950 . S
H2678 C2707 0.950 . S
H2679 C2708 0.950 . S
H2680 C2710 0.950 . S
H2681 C2711 0.950 . S
C2682 H2664 0.951 . S
C2682 C2683 1.366 . S
C2682 C2684 1.388 . S
C2683 C2682 1.366 . S
C2683 C2687 1.385 . S
C2684 H2665 0.951 . S
C2684 C2682 1.388 . S
C2684 C2685 1.366 . S
C2685 C2684 1.366 . S
C2685 C2686 1.414 . S
C2685 C2688 1.499 . S
C2686 H2666 0.950 . S
C2686 C2685 1.414 . S
C2686 C2687 1.374 . S
C2687 H2667 0.950 . S
C2687 C2683 1.385 . S
C2687 C2686 1.374 . S
C2688 C2685 1.499 . S
C2688 C2689 1.373 . S
C2688 C2690 1.389 . S
C2689 H2668 0.950 . S
C2689 C2688 1.373 . S
C2689 C2705 1.377 . S
C2690 C2688 1.389 . S
C2690 C2691 1.524 . S
C2690 C2704 1.377 . S
C2691 C2690 1.524 . S
C2691 C2692 1.397 . S
C2691 C2696 1.363 . S
C2692 H2669 0.950 . S
C2692 C2691 1.397 . S
C2692 C2693 1.334 . S
C2693 H2670 0.950 . S
C2693 C2692 1.334 . S
C2693 C2694 1.287 . S
C2694 C2693 1.287 . S
C2694 C2695 1.524 . S
C2694 H2713 0.913 . S
C2695 H2671 0.950 . S
C2695 C2694 1.524 . S
C2695 C2696 1.415 . S
C2696 H2672 0.950 . S
C2696 C2691 1.363 . S
C2696 C2695 1.415 . S
C2697 H2673 0.951 . S
C2697 C2698 1.366 . S
C2697 C2699 1.388 . S
C2698 C2697 1.366 . S
C2698 C2702 1.385 . S
C2699 H2674 0.951 . S
C2699 C2697 1.388 . S
C2699 C2700 1.366 . S
C2700 C2699 1.366 . S
C2700 C2701 1.414 . S
C2700 C2703 1.499 . S
C2701 H2675 0.950 . S
C2701 C2700 1.414 . S
C2701 C2702 1.374 . S
C2702 H2676 0.950 . S
C2702 C2698 1.385 . S
C2702 C2701 1.374 . S
C2703 C2700 1.499 . S
C2703 C2704 1.373 . S
C2703 C2705 1.389 . S
C2704 H2677 0.950 . S
C2704 C2690 1.377 . S
C2704 C2703 1.373 . S
C2705 C2689 1.377 . S
C2705 C2703 1.389 . S
C2705 C2706 1.524 . S
C2706 C2705 1.524 . S
C2706 C2707 1.397 . S
C2706 C2711 1.363 . S
C2707 H2678 0.950 . S
C2707 C2706 1.397 . S
C2707 C2708 1.334 . S
C2708 H2679 0.950 . S
C2708 C2707 1.334 . S
C2708 C2709 1.287 . S
C2709 C2708 1.287 . S
C2709 C2710 1.524 . S
C2709 H2712 0.999 . S
C2710 H2680 0.950 . S
C2710 C2709 1.524 . S
C2710 C2711 1.415 . S
C2711 H2681 0.950 . S
C2711 C2706 1.363 . S
C2711 C2710 1.415 . S
H2712 C2709 0.999 . S
H2713 C2694 0.913 . S
H2714 C2732 0.951 . S
H2715 C2734 0.951 . S
H2716 C2736 0.950 . S
H2717 C2737 0.950 . S
H2718 C2739 0.950 . S
H2719 C2742 0.950 . S
H2720 C2743 0.950 . S
H2721 C2745 0.950 . S
H2722 C2746 0.950 . S
H2723 C2747 0.951 . S
H2724 C2749 0.951 . S
H2725 C2751 0.950 . S
H2726 C2752 0.950 . S
H2727 C2754 0.950 . S
H2728 C2757 0.950 . S
H2729 C2758 0.950 . S
H2730 C2760 0.950 . S
H2731 C2761 0.950 . S
C2732 H2714 0.951 . S
C2732 C2733 1.366 . S
C2732 C2734 1.388 . S
C2733 C2732 1.366 . S
C2733 C2737 1.385 . S
C2734 H2715 0.951 . S
C2734 C2732 1.388 . S
C2734 C2735 1.366 . S
C2735 C2734 1.366 . S
C2735 C2736 1.414 . S
C2735 C2738 1.499 . S
C2736 H2716 0.950 . S
C2736 C2735 1.414 . S
C2736 C2737 1.374 . S
C2737 H2717 0.950 . S
C2737 C2733 1.385 . S
C2737 C2736 1.374 . S
C2738 C2735 1.499 . S
C2738 C2739 1.373 . S
C2738 C2740 1.389 . S
C2739 H2718 0.950 . S
C2739 C2738 1.373 . S
C2739 C2755 1.377 . S
C2740 C2738 1.389 . S
C2740 C2741 1.524 . S
C2740 C2754 1.377 . S
C2741 C2740 1.524 . S
C2741 C2742 1.397 . S
C2741 C2746 1.363 . S
C2742 H2719 0.950 . S
C2742 C2741 1.397 . S
C2742 C2743 1.334 . S
C2743 H2720 0.950 . S
C2743 C2742 1.334 . S
C2743 C2744 1.287 . S
C2744 C2743 1.287 . S
C2744 C2745 1.524 . S
C2744 H2763 0.913 . S
C2745 H2721 0.950 . S
C2745 C2744 1.524 . S
C2745 C2746 1.415 . S
C2746 H2722 0.950 . S
C2746 C2741 1.363 . S
C2746 C2745 1.415 . S
C2747 H2723 0.951 . S
C2747 C2748 1.366 . S
C2747 C2749 1.388 . S
C2748 C2747 1.366 . S
C2748 C2752 1.385 . S
C2749 H2724 0.951 . S
C2749 C2747 1.388 . S
C2749 C2750 1.366 . S
C2750 C2749 1.366 . S
C2750 C2751 1.414 . S
C2750 C2753 1.499 . S
C2751 H2725 0.950 . S
C2751 C2750 1.414 . S
C2751 C2752 1.374 . S
C2752 H2726 0.950 . S
C2752 C2748 1.385 . S
C2752 C2751 1.374 . S
C2753 C2750 1.499 . S
C2753 C2754 1.373 . S
C2753 C2755 1.389 . S
C2754 H2727 0.950 . S
C2754 C2740 1.377 . S
C2754 C2753 1.373 . S
C2755 C2739 1.377 . S
C2755 C2753 1.389 . S
C2755 C2756 1.524 . S
C2756 C2755 1.524 . S
C2756 C2757 1.397 . S
C2756 C2761 1.363 . S
C2757 H2728 0.950 . S
C2757 C2756 1.397 . S
C2757 C2758 1.334 . S
C2758 H2729 0.950 . S
C2758 C2757 1.334 . S
C2758 C2759 1.287 . S
C2759 C2758 1.287 . S
C2759 C2760 1.524 . S
C2759 H2762 0.999 . S
C2760 H2730 0.950 . S
C2760 C2759 1.524 . S
C2760 C2761 1.415 . S
C2761 H2731 0.950 . S
C2761 C2756 1.363 . S
C2761 C2760 1.415 . S
H2762 C2759 0.999 . S
H2763 C2744 0.913 . S
H2764 C2782 0.951 . S
H2765 C2784 0.951 . S
H2766 C2786 0.950 . S
H2767 C2787 0.950 . S
H2768 C2789 0.950 . S
H2769 C2792 0.950 . S
H2770 C2793 0.950 . S
H2771 C2795 0.950 . S
H2772 C2796 0.950 . S
H2773 C2797 0.951 . S
H2774 C2799 0.951 . S
H2775 C2801 0.950 . S
H2776 C2802 0.950 . S
H2777 C2804 0.950 . S
H2778 C2807 0.950 . S
H2779 C2808 0.950 . S
H2780 C2810 0.950 . S
H2781 C2811 0.950 . S
C2782 H2764 0.951 . S
C2782 C2783 1.366 . S
C2782 C2784 1.388 . S
C2783 C2782 1.366 . S
C2783 C2787 1.385 . S
C2784 H2765 0.951 . S
C2784 C2782 1.388 . S
C2784 C2785 1.366 . S
C2785 C2784 1.366 . S
C2785 C2786 1.414 . S
C2785 C2788 1.499 . S
C2786 H2766 0.950 . S
C2786 C2785 1.414 . S
C2786 C2787 1.374 . S
C2787 H2767 0.950 . S
C2787 C2783 1.385 . S
C2787 C2786 1.374 . S
C2788 C2785 1.499 . S
C2788 C2789 1.373 . S
C2788 C2790 1.389 . S
C2789 H2768 0.950 . S
C2789 C2788 1.373 . S
C2789 C2805 1.377 . S
C2790 C2788 1.389 . S
C2790 C2791 1.524 . S
C2790 C2804 1.377 . S
C2791 C2790 1.524 . S
C2791 C2792 1.397 . S
C2791 C2796 1.363 . S
C2792 H2769 0.950 . S
C2792 C2791 1.397 . S
C2792 C2793 1.334 . S
C2793 H2770 0.950 . S
C2793 C2792 1.334 . S
C2793 C2794 1.287 . S
C2794 C2793 1.287 . S
C2794 C2795 1.524 . S
C2794 H2813 0.913 . S
C2795 H2771 0.950 . S
C2795 C2794 1.524 . S
C2795 C2796 1.415 . S
C2796 H2772 0.950 . S
C2796 C2791 1.363 . S
C2796 C2795 1.415 . S
C2797 H2773 0.951 . S
C2797 C2798 1.366 . S
C2797 C2799 1.388 . S
C2798 C2797 1.366 . S
C2798 C2802 1.385 . S
C2799 H2774 0.951 . S
C2799 C2797 1.388 . S
C2799 C2800 1.366 . S
C2800 C2799 1.366 . S
C2800 C2801 1.414 . S
C2800 C2803 1.499 . S
C2801 H2775 0.950 . S
C2801 C2800 1.414 . S
C2801 C2802 1.374 . S
C2802 H2776 0.950 . S
C2802 C2798 1.385 . S
C2802 C2801 1.374 . S
C2803 C2800 1.499 . S
C2803 C2804 1.373 . S
C2803 C2805 1.389 . S
C2804 H2777 0.950 . S
C2804 C2790 1.377 . S
C2804 C2803 1.373 . S
C2805 C2789 1.377 . S
C2805 C2803 1.389 . S
C2805 C2806 1.524 . S
C2806 C2805 1.524 . S
C2806 C2807 1.397 . S
C2806 C2811 1.363 . S
C2807 H2778 0.950 . S
C2807 C2806 1.397 . S
C2807 C2808 1.334 . S
C2808 H2779 0.950 . S
C2808 C2807 1.334 . S
C2808 C2809 1.287 . S
C2809 C2808 1.287 . S
C2809 C2810 1.524 . S
C2809 H2812 0.999 . S
C2810 H2780 0.950 . S
C2810 C2809 1.524 . S
C2810 C2811 1.415 . S
C2811 H2781 0.950 . S
C2811 C2806 1.363 . S
C2811 C2810 1.415 . S
H2812 C2809 0.999 . S
H2813 C2794 0.913 . S
H2814 C2832 0.951 . S
H2815 C2834 0.951 . S
H2816 C2836 0.950 . S
H2817 C2837 0.950 . S
H2818 C2839 0.950 . S
H2819 C2842 0.950 . S
H2820 C2843 0.950 . S
H2821 C2845 0.950 . S
H2822 C2846 0.950 . S
H2823 C2847 0.951 . S
H2824 C2849 0.951 . S
H2825 C2851 0.950 . S
H2826 C2852 0.950 . S
H2827 C2854 0.950 . S
H2828 C2857 0.950 . S
H2829 C2858 0.950 . S
H2830 C2860 0.950 . S
H2831 C2861 0.950 . S
C2832 H2814 0.951 . S
C2832 C2833 1.366 . S
C2832 C2834 1.388 . S
C2833 C2832 1.366 . S
C2833 C2837 1.385 . S
C2834 H2815 0.951 . S
C2834 C2832 1.388 . S
C2834 C2835 1.366 . S
C2835 C2834 1.366 . S
C2835 C2836 1.414 . S
C2835 C2838 1.499 . S
C2836 H2816 0.950 . S
C2836 C2835 1.414 . S
C2836 C2837 1.374 . S
C2837 H2817 0.950 . S
C2837 C2833 1.385 . S
C2837 C2836 1.374 . S
C2838 C2835 1.499 . S
C2838 C2839 1.373 . S
C2838 C2840 1.389 . S
C2839 H2818 0.950 . S
C2839 C2838 1.373 . S
C2839 C2855 1.377 . S
C2840 C2838 1.389 . S
C2840 C2841 1.524 . S
C2840 C2854 1.377 . S
C2841 C2840 1.524 . S
C2841 C2842 1.397 . S
C2841 C2846 1.363 . S
C2842 H2819 0.950 . S
C2842 C2841 1.397 . S
C2842 C2843 1.334 . S
C2843 H2820 0.950 . S
C2843 C2842 1.334 . S
C2843 C2844 1.287 . S
C2844 C2843 1.287 . S
C2844 C2845 1.524 . S
C2844 H2863 0.913 . S
C2845 H2821 0.950 . S
C2845 C2844 1.524 . S
C2845 C2846 1.415 . S
C2846 H2822 0.950 . S
C2846 C2841 1.363 . S
C2846 C2845 1.415 . S
C2847 H2823 0.951 . S
C2847 C2848 1.366 . S
C2847 C2849 1.388 . S
C2848 C2847 1.366 . S
C2848 C2852 1.385 . S
C2849 H2824 0.951 . S
C2849 C2847 1.388 . S
C2849 C2850 1.366 . S
C2850 C2849 1.366 . S
C2850 C2851 1.414 . S
C2850 C2853 1.499 . S
C2851 H2825 0.950 . S
C2851 C2850 1.414 . S
C2851 C2852 1.374 . S
C2852 H2826 0.950 . S
C2852 C2848 1.385 . S
C2852 C2851 1.374 . S
C2853 C2850 1.499 . S
C2853 C2854 1.373 . S
C2853 C2855 1.389 . S
C2854 H2827 0.950 . S
C2854 C2840 1.377 . S
C2854 C2853 1.373 . S
C2855 C2839 1.377 . S
C2855 C2853 1.389 . S
C2855 C2856 1.524 . S
C2856 C2855 1.524 . S
C2856 C2857 1.397 . S
C2856 C2861 1.363 . S
C2857 H2828 0.950 . S
C2857 C2856 1.397 . S
C2857 C2858 1.334 . S
C2858 H2829 0.950 . S
C2858 C2857 1.334 . S
C2858 C2859 1.287 . S
C2859 C2858 1.287 . S
C2859 C2860 1.524 . S
C2859 H2862 0.999 . S
C2860 H2830 0.950 . S
C2860 C2859 1.524 . S
C2860 C2861 1.415 . S
C2861 H2831 0.950 . S
C2861 C2856 1.363 . S
C2861 C2860 1.415 . S
H2862 C2859 0.999 . S
H2863 C2844 0.913 . S
H2864 C2882 0.951 . S
H2865 C2884 0.951 . S
H2866 C2886 0.950 . S
H2867 C2887 0.950 . S
H2868 C2889 0.950 . S
H2869 C2892 0.950 . S
H2870 C2893 0.950 . S
H2871 C2895 0.950 . S
H2872 C2896 0.950 . S
H2873 C2897 0.951 . S
H2874 C2899 0.951 . S
H2875 C2901 0.950 . S
H2876 C2902 0.950 . S
H2877 C2904 0.950 . S
H2878 C2907 0.950 . S
H2879 C2908 0.950 . S
H2880 C2910 0.950 . S
H2881 C2911 0.950 . S
C2882 H2864 0.951 . S
C2882 C2883 1.366 . S
C2882 C2884 1.388 . S
C2883 C2882 1.366 . S
C2883 C2887 1.385 . S
C2884 H2865 0.951 . S
C2884 C2882 1.388 . S
C2884 C2885 1.366 . S
C2885 C2884 1.366 . S
C2885 C2886 1.414 . S
C2885 C2888 1.499 . S
C2886 H2866 0.950 . S
C2886 C2885 1.414 . S
C2886 C2887 1.374 . S
C2887 H2867 0.950 . S
C2887 C2883 1.385 . S
C2887 C2886 1.374 . S
C2888 C2885 1.499 . S
C2888 C2889 1.373 . S
C2888 C2890 1.389 . S
C2889 H2868 0.950 . S
C2889 C2888 1.373 . S
C2889 C2905 1.377 . S
C2890 C2888 1.389 . S
C2890 C2891 1.524 . S
C2890 C2904 1.377 . S
C2891 C2890 1.524 . S
C2891 C2892 1.397 . S
C2891 C2896 1.363 . S
C2892 H2869 0.950 . S
C2892 C2891 1.397 . S
C2892 C2893 1.334 . S
C2893 H2870 0.950 . S
C2893 C2892 1.334 . S
C2893 C2894 1.287 . S
C2894 C2893 1.287 . S
C2894 C2895 1.524 . S
C2894 H2913 0.913 . S
C2895 H2871 0.950 . S
C2895 C2894 1.524 . S
C2895 C2896 1.415 . S
C2896 H2872 0.950 . S
C2896 C2891 1.363 . S
C2896 C2895 1.415 . S
C2897 H2873 0.951 . S
C2897 C2898 1.366 . S
C2897 C2899 1.388 . S
C2898 C2897 1.366 . S
C2898 C2902 1.385 . S
C2899 H2874 0.951 . S
C2899 C2897 1.388 . S
C2899 C2900 1.366 . S
C2900 C2899 1.366 . S
C2900 C2901 1.414 . S
C2900 C2903 1.499 . S
C2901 H2875 0.950 . S
C2901 C2900 1.414 . S
C2901 C2902 1.374 . S
C2902 H2876 0.950 . S
C2902 C2898 1.385 . S
C2902 C2901 1.374 . S
C2903 C2900 1.499 . S
C2903 C2904 1.373 . S
C2903 C2905 1.389 . S
C2904 H2877 0.950 . S
C2904 C2890 1.377 . S
C2904 C2903 1.373 . S
C2905 C2889 1.377 . S
C2905 C2903 1.389 . S
C2905 C2906 1.524 . S
C2906 C2905 1.524 . S
C2906 C2907 1.397 . S
C2906 C2911 1.363 . S
C2907 H2878 0.950 . S
C2907 C2906 1.397 . S
C2907 C2908 1.334 . S
C2908 H2879 0.950 . S
C2908 C2907 1.334 . S
C2908 C2909 1.287 . S
C2909 C2908 1.287 . S
C2909 C2910 1.524 . S
C2909 H2912 0.999 . S
C2910 H2880 0.950 . S
C2910 C2909 1.524 . S
C2910 C2911 1.415 . S
C2911 H2881 0.950 . S
C2911 C2906 1.363 . S
C2911 C2910 1.415 . S
H2912 C2909 0.999 . S
H2913 C2894 0.913 . S
H2914 C2932 0.951 . S
H2915 C2934 0.951 . S
H2916 C2936 0.950 . S
H2917 C2937 0.950 . S
H2918 C2939 0.950 . S
H2919 C2942 0.950 . S
H2920 C2943 0.950 . S
H2921 C2945 0.950 . S
H2922 C2946 0.950 . S
H2923 C2947 0.951 . S
H2924 C2949 0.951 . S
H2925 C2951 0.950 . S
H2926 C2952 0.950 . S
H2927 C2954 0.950 . S
H2928 C2957 0.950 . S
H2929 C2958 0.950 . S
H2930 C2960 0.950 . S
H2931 C2961 0.950 . S
C2932 H2914 0.951 . S
C2932 C2933 1.366 . S
C2932 C2934 1.388 . S
C2933 C2932 1.366 . S
C2933 C2937 1.385 . S
C2934 H2915 0.951 . S
C2934 C2932 1.388 . S
C2934 C2935 1.366 . S
C2935 C2934 1.366 . S
C2935 C2936 1.414 . S
C2935 C2938 1.499 . S
C2936 H2916 0.950 . S
C2936 C2935 1.414 . S
C2936 C2937 1.374 . S
C2937 H2917 0.950 . S
C2937 C2933 1.385 . S
C2937 C2936 1.374 . S
C2938 C2935 1.499 . S
C2938 C2939 1.373 . S
C2938 C2940 1.389 . S
C2939 H2918 0.950 . S
C2939 C2938 1.373 . S
C2939 C2955 1.377 . S
C2940 C2938 1.389 . S
C2940 C2941 1.524 . S
C2940 C2954 1.377 . S
C2941 C2940 1.524 . S
C2941 C2942 1.397 . S
C2941 C2946 1.363 . S
C2942 H2919 0.950 . S
C2942 C2941 1.397 . S
C2942 C2943 1.334 . S
C2943 H2920 0.950 . S
C2943 C2942 1.334 . S
C2943 C2944 1.287 . S
C2944 C2943 1.287 . S
C2944 C2945 1.524 . S
C2944 H2963 0.913 . S
C2945 H2921 0.950 . S
C2945 C2944 1.524 . S
C2945 C2946 1.415 . S
C2946 H2922 0.950 . S
C2946 C2941 1.363 . S
C2946 C2945 1.415 . S
C2947 H2923 0.951 . S
C2947 C2948 1.366 . S
C2947 C2949 1.388 . S
C2948 C2947 1.366 . S
C2948 C2952 1.385 . S
C2949 H2924 0.951 . S
C2949 C2947 1.388 . S
C2949 C2950 1.366 . S
C2950 C2949 1.366 . S
C2950 C2951 1.414 . S
C2950 C2953 1.499 . S
C2951 H2925 0.950 . S
C2951 C2950 1.414 . S
C2951 C2952 1.374 . S
C2952 H2926 0.950 . S
C2952 C2948 1.385 . S
C2952 C2951 1.374 . S
C2953 C2950 1.499 . S
C2953 C2954 1.373 . S
C2953 C2955 1.389 . S
C2954 H2927 0.950 . S
C2954 C2940 1.377 . S
C2954 C2953 1.373 . S
C2955 C2939 1.377 . S
C2955 C2953 1.389 . S
C2955 C2956 1.524 . S
C2956 C2955 1.524 . S
C2956 C2957 1.397 . S
C2956 C2961 1.363 . S
C2957 H2928 0.950 . S
C2957 C2956 1.397 . S
C2957 C2958 1.334 . S
C2958 H2929 0.950 . S
C2958 C2957 1.334 . S
C2958 C2959 1.287 . S
C2959 C2958 1.287 . S
C2959 C2960 1.524 . S
C2959 H2962 0.999 . S
C2960 H2930 0.950 . S
C2960 C2959 1.524 . S
C2960 C2961 1.415 . S
C2961 H2931 0.950 . S
C2961 C2956 1.363 . S
C2961 C2960 1.415 . S
H2962 C2959 0.999 . S
H2963 C2944 0.913 . S
H2964 C2982 0.951 . S
H2965 C2984 0.951 . S
H2966 C2986 0.950 . S
H2967 C2987 0.950 . S
H2968 C2989 0.950 . S
H2969 C2992 0.950 . S
H2970 C2993 0.950 . S
H2971 C2995 0.950 . S
H2972 C2996 0.950 . S
H2973 C2997 0.951 . S
H2974 C2999 0.951 . S
H2975 C3001 0.950 . S
H2976 C3002 0.950 . S
H2977 C3004 0.950 . S
H2978 C3007 0.950 . S
H2979 C3008 0.950 . S
H2980 C3010 0.950 . S
H2981 C3011 0.950 . S
C2982 H2964 0.951 . S
C2982 C2983 1.366 . S
C2982 C2984 1.388 . S
C2983 C2982 1.366 . S
C2983 C2987 1.385 . S
C2984 H2965 0.951 . S
C2984 C2982 1.388 . S
C2984 C2985 1.366 . S
C2985 C2984 1.366 . S
C2985 C2986 1.414 . S
C2985 C2988 1.499 . S
C2986 H2966 0.950 . S
C2986 C2985 1.414 . S
C2986 C2987 1.374 . S
C2987 H2967 0.950 . S
C2987 C2983 1.385 . S
C2987 C2986 1.374 . S
C2988 C2985 1.499 . S
C2988 C2989 1.373 . S
C2988 C2990 1.389 . S
C2989 H2968 0.950 . S
C2989 C2988 1.373 . S
C2989 C3005 1.377 . S
C2990 C2988 1.389 . S
C2990 C2991 1.524 . S
C2990 C3004 1.377 . S
C2991 C2990 1.524 . S
C2991 C2992 1.397 . S
C2991 C2996 1.363 . S
C2992 H2969 0.950 . S
C2992 C2991 1.397 . S
C2992 C2993 1.334 . S
C2993 H2970 0.950 . S
C2993 C2992 1.334 . S
C2993 C2994 1.287 . S
C2994 C2993 1.287 . S
C2994 C2995 1.524 . S
C2994 H3013 0.913 . S
C2995 H2971 0.950 . S
C2995 C2994 1.524 . S
C2995 C2996 1.415 . S
C2996 H2972 0.950 . S
C2996 C2991 1.363 . S
C2996 C2995 1.415 . S
C2997 H2973 0.951 . S
C2997 C2998 1.366 . S
C2997 C2999 1.388 . S
C2998 C2997 1.366 . S
C2998 C3002 1.385 . S
C2999 H2974 0.951 . S
C2999 C2997 1.388 . S
C2999 C3000 1.366 . S
C3000 C2999 1.366 . S
C3000 C3001 1.414 . S
C3000 C3003 1.499 . S
C3001 H2975 0.950 . S
C3001 C3000 1.414 . S
C3001 C3002 1.374 . S
C3002 H2976 0.950 . S
C3002 C2998 1.385 . S
C3002 C3001 1.374 . S
C3003 C3000 1.499 . S
C3003 C3004 1.373 . S
C3003 C3005 1.389 . S
C3004 H2977 0.950 . S
C3004 C2990 1.377 . S
C3004 C3003 1.373 . S
C3005 C2989 1.377 . S
C3005 C3003 1.389 . S
C3005 C3006 1.524 . S
C3006 C3005 1.524 . S
C3006 C3007 1.397 . S
C3006 C3011 1.363 . S
C3007 H2978 0.950 . S
C3007 C3006 1.397 . S
C3007 C3008 1.334 . S
C3008 H2979 0.950 . S
C3008 C3007 1.334 . S
C3008 C3009 1.287 . S
C3009 C3008 1.287 . S
C3009 C3010 1.524 . S
C3009 H3012 0.999 . S
C3010 H2980 0.950 . S
C3010 C3009 1.524 . S
C3010 C3011 1.415 . S
C3011 H2981 0.950 . S
C3011 C3006 1.363 . S
C3011 C3010 1.415 . S
H3012 C3009 0.999 . S
H3013 C2994 0.913 . S
H3014 C3032 0.951 . S
H3015 C3034 0.951 . S
H3016 C3036 0.950 . S
H3017 C3037 0.950 . S
H3018 C3039 0.950 . S
H3019 C3042 0.950 . S
H3020 C3043 0.950 . S
H3021 C3045 0.950 . S
H3022 C3046 0.950 . S
H3023 C3047 0.951 . S
H3024 C3049 0.951 . S
H3025 C3051 0.950 . S
H3026 C3052 0.950 . S
H3027 C3054 0.950 . S
H3028 C3057 0.950 . S
H3029 C3058 0.950 . S
H3030 C3060 0.950 . S
H3031 C3061 0.950 . S
C3032 H3014 0.951 . S
C3032 C3033 1.366 . S
C3032 C3034 1.388 . S
C3033 C3032 1.366 . S
C3033 C3037 1.385 . S
C3034 H3015 0.951 . S
C3034 C3032 1.388 . S
C3034 C3035 1.366 . S
C3035 C3034 1.366 . S
C3035 C3036 1.414 . S
C3035 C3038 1.499 . S
C3036 H3016 0.950 . S
C3036 C3035 1.414 . S
C3036 C3037 1.374 . S
C3037 H3017 0.950 . S
C3037 C3033 1.385 . S
C3037 C3036 1.374 . S
C3038 C3035 1.499 . S
C3038 C3039 1.373 . S
C3038 C3040 1.389 . S
C3039 H3018 0.950 . S
C3039 C3038 1.373 . S
C3039 C3055 1.377 . S
C3040 C3038 1.389 . S
C3040 C3041 1.524 . S
C3040 C3054 1.377 . S
C3041 C3040 1.524 . S
C3041 C3042 1.397 . S
C3041 C3046 1.363 . S
C3042 H3019 0.950 . S
C3042 C3041 1.397 . S
C3042 C3043 1.334 . S
C3043 H3020 0.950 . S
C3043 C3042 1.334 . S
C3043 C3044 1.287 . S
C3044 C3043 1.287 . S
C3044 C3045 1.524 . S
C3044 H3063 0.913 . S
C3045 H3021 0.950 . S
C3045 C3044 1.524 . S
C3045 C3046 1.415 . S
C3046 H3022 0.950 . S
C3046 C3041 1.363 . S
C3046 C3045 1.415 . S
C3047 H3023 0.951 . S
C3047 C3048 1.366 . S
C3047 C3049 1.388 . S
C3048 C3047 1.366 . S
C3048 C3052 1.385 . S
C3049 H3024 0.951 . S
C3049 C3047 1.388 . S
C3049 C3050 1.366 . S
C3050 C3049 1.366 . S
C3050 C3051 1.414 . S
C3050 C3053 1.499 . S
C3051 H3025 0.950 . S
C3051 C3050 1.414 . S
C3051 C3052 1.374 . S
C3052 H3026 0.950 . S
C3052 C3048 1.385 . S
C3052 C3051 1.374 . S
C3053 C3050 1.499 . S
C3053 C3054 1.373 . S
C3053 C3055 1.389 . S
C3054 H3027 0.950 . S
C3054 C3040 1.377 . S
C3054 C3053 1.373 . S
C3055 C3039 1.377 . S
C3055 C3053 1.389 . S
C3055 C3056 1.524 . S
C3056 C3055 1.524 . S
C3056 C3057 1.397 . S
C3056 C3061 1.363 . S
C3057 H3028 0.950 . S
C3057 C3056 1.397 . S
C3057 C3058 1.334 . S
C3058 H3029 0.950 . S
C3058 C3057 1.334 . S
C3058 C3059 1.287 . S
C3059 C3058 1.287 . S
C3059 C3060 1.524 . S
C3059 H3062 0.999 . S
C3060 H3030 0.950 . S
C3060 C3059 1.524 . S
C3060 C3061 1.415 . S
C3061 H3031 0.950 . S
C3061 C3056 1.363 . S
C3061 C3060 1.415 . S
H3062 C3059 0.999 . S
H3063 C3044 0.913 . S
H3064 C3082 0.951 . S
H3065 C3084 0.951 . S
H3066 C3086 0.950 . S
H3067 C3087 0.950 . S
H3068 C3089 0.950 . S
H3069 C3092 0.950 . S
H3070 C3093 0.950 . S
H3071 C3095 0.950 . S
H3072 C3096 0.950 . S
H3073 C3097 0.951 . S
H3074 C3099 0.951 . S
H3075 C3101 0.950 . S
H3076 C3102 0.950 . S
H3077 C3104 0.950 . S
H3078 C3107 0.950 . S
H3079 C3108 0.950 . S
H3080 C3110 0.950 . S
H3081 C3111 0.950 . S
C3082 H3064 0.951 . S
C3082 C3083 1.366 . S
C3082 C3084 1.388 . S
C3083 C3082 1.366 . S
C3083 C3087 1.385 . S
C3084 H3065 0.951 . S
C3084 C3082 1.388 . S
C3084 C3085 1.366 . S
C3085 C3084 1.366 . S
C3085 C3086 1.414 . S
C3085 C3088 1.499 . S
C3086 H3066 0.950 . S
C3086 C3085 1.414 . S
C3086 C3087 1.374 . S
C3087 H3067 0.950 . S
C3087 C3083 1.385 . S
C3087 C3086 1.374 . S
C3088 C3085 1.499 . S
C3088 C3089 1.373 . S
C3088 C3090 1.389 . S
C3089 H3068 0.950 . S
C3089 C3088 1.373 . S
C3089 C3105 1.377 . S
C3090 C3088 1.389 . S
C3090 C3091 1.524 . S
C3090 C3104 1.377 . S
C3091 C3090 1.524 . S
C3091 C3092 1.397 . S
C3091 C3096 1.363 . S
C3092 H3069 0.950 . S
C3092 C3091 1.397 . S
C3092 C3093 1.334 . S
C3093 H3070 0.950 . S
C3093 C3092 1.334 . S
C3093 C3094 1.287 . S
C3094 C3093 1.287 . S
C3094 C3095 1.524 . S
C3094 H3113 0.913 . S
C3095 H3071 0.950 . S
C3095 C3094 1.524 . S
C3095 C3096 1.415 . S
C3096 H3072 0.950 . S
C3096 C3091 1.363 . S
C3096 C3095 1.415 . S
C3097 H3073 0.951 . S
C3097 C3098 1.366 . S
C3097 C3099 1.388 . S
C3098 C3097 1.366 . S
C3098 C3102 1.385 . S
C3099 H3074 0.951 . S
C3099 C3097 1.388 . S
C3099 C3100 1.366 . S
C3100 C3099 1.366 . S
C3100 C3101 1.414 . S
C3100 C3103 1.499 . S
C3101 H3075 0.950 . S
C3101 C3100 1.414 . S
C3101 C3102 1.374 . S
C3102 H3076 0.950 . S
C3102 C3098 1.385 . S
C3102 C3101 1.374 . S
C3103 C3100 1.499 . S
C3103 C3104 1.373 . S
C3103 C3105 1.389 . S
C3104 H3077 0.950 . S
C3104 C3090 1.377 . S
C3104 C3103 1.373 . S
C3105 C3089 1.377 . S
C3105 C3103 1.389 . S
C3105 C3106 1.524 . S
C3106 C3105 1.524 . S
C3106 C3107 1.397 . S
C3106 C3111 1.363 . S
C3107 H3078 0.950 . S
C3107 C3106 1.397 . S
C3107 C3108 1.334 . S
C3108 H3079 0.950 . S
C3108 C3107 1.334 . S
C3108 C3109 1.287 . S
C3109 C3108 1.287 . S
C3109 C3110 1.524 . S
C3109 H3112 0.999 . S
C3110 H3080 0.950 . S
C3110 C3109 1.524 . S
C3110 C3111 1.415 . S
C3111 H3081 0.950 . S
C3111 C3106 1.363 . S
C3111 C3110 1.415 . S
H3112 C3109 0.999 . S
H3113 C3094 0.913 . S
H3114 C3132 0.951 . S
H3115 C3134 0.951 . S
H3116 C3136 0.950 . S
H3117 C3137 0.950 . S
H3118 C3139 0.950 . S
H3119 C3142 0.950 . S
H3120 C3143 0.950 . S
H3121 C3145 0.950 . S
H3122 C3146 0.950 . S
H3123 C3147 0.951 . S
H3124 C3149 0.951 . S
H3125 C3151 0.950 . S
H3126 C3152 0.950 . S
H3127 C3154 0.950 . S
H3128 C3157 0.950 . S
H3129 C3158 0.950 . S
H3130 C3160 0.950 . S
H3131 C3161 0.950 . S
C3132 H3114 0.951 . S
C3132 C3133 1.366 . S
C3132 C3134 1.388 . S
C3133 C3132 1.366 . S
C3133 C3137 1.385 . S
C3134 H3115 0.951 . S
C3134 C3132 1.388 . S
C3134 C3135 1.366 . S
C3135 C3134 1.366 . S
C3135 C3136 1.414 . S
C3135 C3138 1.499 . S
C3136 H3116 0.950 . S
C3136 C3135 1.414 . S
C3136 C3137 1.374 . S
C3137 H3117 0.950 . S
C3137 C3133 1.385 . S
C3137 C3136 1.374 . S
C3138 C3135 1.499 . S
C3138 C3139 1.373 . S
C3138 C3140 1.389 . S
C3139 H3118 0.950 . S
C3139 C3138 1.373 . S
C3139 C3155 1.377 . S
C3140 C3138 1.389 . S
C3140 C3141 1.524 . S
C3140 C3154 1.377 . S
C3141 C3140 1.524 . S
C3141 C3142 1.397 . S
C3141 C3146 1.363 . S
C3142 H3119 0.950 . S
C3142 C3141 1.397 . S
C3142 C3143 1.334 . S
C3143 H3120 0.950 . S
C3143 C3142 1.334 . S
C3143 C3144 1.287 . S
C3144 C3143 1.287 . S
C3144 C3145 1.524 . S
C3144 H3163 0.913 . S
C3145 H3121 0.950 . S
C3145 C3144 1.524 . S
C3145 C3146 1.415 . S
C3146 H3122 0.950 . S
C3146 C3141 1.363 . S
C3146 C3145 1.415 . S
C3147 H3123 0.951 . S
C3147 C3148 1.366 . S
C3147 C3149 1.388 . S
C3148 C3147 1.366 . S
C3148 C3152 1.385 . S
C3149 H3124 0.951 . S
C3149 C3147 1.388 . S
C3149 C3150 1.366 . S
C3150 C3149 1.366 . S
C3150 C3151 1.414 . S
C3150 C3153 1.499 . S
C3151 H3125 0.950 . S
C3151 C3150 1.414 . S
C3151 C3152 1.374 . S
C3152 H3126 0.950 . S
C3152 C3148 1.385 . S
C3152 C3151 1.374 . S
C3153 C3150 1.499 . S
C3153 C3154 1.373 . S
C3153 C3155 1.389 . S
C3154 H3127 0.950 . S
C3154 C3140 1.377 . S
C3154 C3153 1.373 . S
C3155 C3139 1.377 . S
C3155 C3153 1.389 . S
C3155 C3156 1.524 . S
C3156 C3155 1.524 . S
C3156 C3157 1.397 . S
C3156 C3161 1.363 . S
C3157 H3128 0.950 . S
C3157 C3156 1.397 . S
C3157 C3158 1.334 . S
C3158 H3129 0.950 . S
C3158 C3157 1.334 . S
C3158 C3159 1.287 . S
C3159 C3158 1.287 . S
C3159 C3160 1.524 . S
C3159 H3162 0.999 . S
C3160 H3130 0.950 . S
C3160 C3159 1.524 . S
C3160 C3161 1.415 . S
C3161 H3131 0.950 . S
C3161 C3156 1.363 . S
C3161 C3160 1.415 . S
H3162 C3159 0.999 . S
H3163 C3144 0.913 . S
H3164 C3182 0.951 . S
H3165 C3184 0.951 . S
H3166 C3186 0.950 . S
H3167 C3187 0.950 . S
H3168 C3189 0.950 . S
H3169 C3192 0.950 . S
H3170 C3193 0.950 . S
H3171 C3195 0.950 . S
H3172 C3196 0.950 . S
H3173 C3197 0.951 . S
H3174 C3199 0.951 . S
H3175 C3201 0.950 . S
H3176 C3202 0.950 . S
H3177 C3204 0.950 . S
H3178 C3207 0.950 . S
H3179 C3208 0.950 . S
H3180 C3210 0.950 . S
H3181 C3211 0.950 . S
C3182 H3164 0.951 . S
C3182 C3183 1.366 . S
C3182 C3184 1.388 . S
C3183 C3182 1.366 . S
C3183 C3187 1.385 . S
C3184 H3165 0.951 . S
C3184 C3182 1.388 . S
C3184 C3185 1.366 . S
C3185 C3184 1.366 . S
C3185 C3186 1.414 . S
C3185 C3188 1.499 . S
C3186 H3166 0.950 . S
C3186 C3185 1.414 . S
C3186 C3187 1.374 . S
C3187 H3167 0.950 . S
C3187 C3183 1.385 . S
C3187 C3186 1.374 . S
C3188 C3185 1.499 . S
C3188 C3189 1.373 . S
C3188 C3190 1.389 . S
C3189 H3168 0.950 . S
C3189 C3188 1.373 . S
C3189 C3205 1.377 . S
C3190 C3188 1.389 . S
C3190 C3191 1.524 . S
C3190 C3204 1.377 . S
C3191 C3190 1.524 . S
C3191 C3192 1.397 . S
C3191 C3196 1.363 . S
C3192 H3169 0.950 . S
C3192 C3191 1.397 . S
C3192 C3193 1.334 . S
C3193 H3170 0.950 . S
C3193 C3192 1.334 . S
C3193 C3194 1.287 . S
C3194 C3193 1.287 . S
C3194 C3195 1.524 . S
C3194 H3213 0.913 . S
C3195 H3171 0.950 . S
C3195 C3194 1.524 . S
C3195 C3196 1.415 . S
C3196 H3172 0.950 . S
C3196 C3191 1.363 . S
C3196 C3195 1.415 . S
C3197 H3173 0.951 . S
C3197 C3198 1.366 . S
C3197 C3199 1.388 . S
C3198 C3197 1.366 . S
C3198 C3202 1.385 . S
C3199 H3174 0.951 . S
C3199 C3197 1.388 . S
C3199 C3200 1.366 . S
C3200 C3199 1.366 . S
C3200 C3201 1.414 . S
C3200 C3203 1.499 . S
C3201 H3175 0.950 . S
C3201 C3200 1.414 . S
C3201 C3202 1.374 . S
C3202 H3176 0.950 . S
C3202 C3198 1.385 . S
C3202 C3201 1.374 . S
C3203 C3200 1.499 . S
C3203 C3204 1.373 . S
C3203 C3205 1.389 . S
C3204 H3177 0.950 . S
C3204 C3190 1.377 . S
C3204 C3203 1.373 . S
C3205 C3189 1.377 . S
C3205 C3203 1.389 . S
C3205 C3206 1.524 . S
C3206 C3205 1.524 . S
C3206 C3207 1.397 . S
C3206 C3211 1.363 . S
C3207 H3178 0.950 . S
C3207 C3206 1.397 . S
C3207 C3208 1.334 . S
C3208 H3179 0.950 . S
C3208 C3207 1.334 . S
C3208 C3209 1.287 . S
C3209 C3208 1.287 . S
C3209 C3210 1.524 . S
C3209 H3212 0.999 . S
C3210 H3180 0.950 . S
C3210 C3209 1.524 . S
C3210 C3211 1.415 . S
C3211 H3181 0.950 . S
C3211 C3206 1.363 . S
C3211 C3210 1.415 . S
H3212 C3209 0.999 . S
H3213 C3194 0.913 . S
H3214 C3232 0.951 . S
H3215 C3234 0.951 . S
H3216 C3236 0.950 . S
H3217 C3237 0.950 . S
H3218 C3239 0.950 . S
H3219 C3242 0.950 . S
H3220 C3243 0.950 . S
H3221 C3245 0.950 . S
H3222 C3246 0.950 . S
H3223 C3247 0.951 . S
H3224 C3249 0.951 . S
H3225 C3251 0.950 . S
H3226 C3252 0.950 . S
H3227 C3254 0.950 . S
H3228 C3257 0.950 . S
H3229 C3258 0.950 . S
H3230 C3260 0.950 . S
H3231 C3261 0.950 . S
C3232 H3214 0.951 . S
C3232 C3233 1.366 . S
C3232 C3234 1.388 . S
C3233 C3232 1.366 . S
C3233 C3237 1.385 . S
C3234 H3215 0.951 . S
C3234 C3232 1.388 . S
C3234 C3235 1.366 . S
C3235 C3234 1.366 . S
C3235 C3236 1.414 . S
C3235 C3238 1.499 . S
C3236 H3216 0.950 . S
C3236 C3235 1.414 . S
C3236 C3237 1.374 . S
C3237 H3217 0.950 . S
C3237 C3233 1.385 . S
C3237 C3236 1.374 . S
C3238 C3235 1.499 . S
C3238 C3239 1.373 . S
C3238 C3240 1.389 . S
C3239 H3218 0.950 . S
C3239 C3238 1.373 . S
C3239 C3255 1.377 . S
C3240 C3238 1.389 . S
C3240 C3241 1.524 . S
C3240 C3254 1.377 . S
C3241 C3240 1.524 . S
C3241 C3242 1.397 . S
C3241 C3246 1.363 . S
C3242 H3219 0.950 . S
C3242 C3241 1.397 . S
C3242 C3243 1.334 . S
C3243 H3220 0.950 . S
C3243 C3242 1.334 . S
C3243 C3244 1.287 . S
C3244 C3243 1.287 . S
C3244 C3245 1.524 . S
C3244 H3263 0.913 . S
C3245 H3221 0.950 . S
C3245 C3244 1.524 . S
C3245 C3246 1.415 . S
C3246 H3222 0.950 . S
C3246 C3241 1.363 . S
C3246 C3245 1.415 . S
C3247 H3223 0.951 . S
C3247 C3248 1.366 . S
C3247 C3249 1.388 . S
C3248 C3247 1.366 . S
C3248 C3252 1.385 . S
C3249 H3224 0.951 . S
C3249 C3247 1.388 . S
C3249 C3250 1.366 . S
C3250 C3249 1.366 . S
C3250 C3251 1.414 . S
C3250 C3253 1.499 . S
C3251 H3225 0.950 . S
C3251 C3250 1.414 . S
C3251 C3252 1.374 . S
C3252 H3226 0.950 . S
C3252 C3248 1.385 . S
C3252 C3251 1.374 . S
C3253 C3250 1.499 . S
C3253 C3254 1.373 . S
C3253 C3255 1.389 . S
C3254 H3227 0.950 . S
C3254 C3240 1.377 . S
C3254 C3253 1.373 . S
C3255 C3239 1.377 . S
C3255 C3253 1.389 . S
C3255 C3256 1.524 . S
C3256 C3255 1.524 . S
C3256 C3257 1.397 . S
C3256 C3261 1.363 . S
C3257 H3228 0.950 . S
C3257 C3256 1.397 . S
C3257 C3258 1.334 . S
C3258 H3229 0.950 . S
C3258 C3257 1.334 . S
C3258 C3259 1.287 . S
C3259 C3258 1.287 . S
C3259 C3260 1.524 . S
C3259 H3262 0.999 . S
C3260 H3230 0.950 . S
C3260 C3259 1.524 . S
C3260 C3261 1.415 . S
C3261 H3231 0.950 . S
C3261 C3256 1.363 . S
C3261 C3260 1.415 . S
H3262 C3259 0.999 . S
H3263 C3244 0.913 . S
C898 C689 1.412 . S
C883 C74 1.330 . S
C948 C694 0.600 . S
C933 C142 0.935 . S
C998 C695 1.407 . S
C983 C231 1.333 . S
C1033 C322 1.343 . S
C1048 C699 1.449 . S
C1083 C406 0.934 . S
C1098 C702 0.600 . S
C1148 C703 1.407 . S
C1133 C494 1.328 . S
C1183 C562 1.342 . S
C1198 C680 1.448 . S
C1233 C651 1.333 . S
C1248 C696 1.414 . S
C1298 C734 1.433 . S
C1283 C58 1.351 . S
C1333 C151 1.392 . S
C1348 C760 1.420 . S
C1398 C712 2.404 . S
C1383 C224 2.339 . S
C1448 C767 1.311 . S
C1433 C315 1.282 . S
C1483 C399 1.296 . S
C1498 C721 1.330 . S
C1548 C763 1.426 . S
C1533 C478 1.341 . S
C1583 C571 1.384 . S
C1598 C727 1.437 . S
C1633 C644 2.322 . S
C1648 C758 2.398 . S
C1683 C67 2.323 . S
C1698 C766 2.392 . S
C1733 C392 1.392 . S
C1748 C753 1.421 . S
C1798 C731 2.404 . S
C1783 C487 2.338 . S
C1848 C759 1.310 . S
C1833 C578 1.287 . S
C1883 C658 1.353 . S
C1898 C726 1.438 . S
C1933 C238 1.343 . S
C1948 C744 1.426 . S
C1998 C735 1.435 . S
C1983 C308 1.382 . S
C2033 C158 1.296 . S
C2048 C728 1.323 . S
C2083 C662 1.308 . S
C2098 C790 1.345 . S
C2133 C394 0.955 . S
C2148 C785 0.444 . S
C2198 C799 1.324 . S
C2183 C483 1.300 . S
C2248 C776 1.414 . S
C2233 C574 1.315 . S
C2283 C154 0.957 . S
C2298 C792 0.446 . S
C2348 C791 1.324 . S
C2333 C242 1.297 . S
C2383 C310 1.311 . S
C2398 C795 1.413 . S
C2433 C63 1.308 . S
C2448 C798 1.342 . S
C2483 C646 1.360 . S
C2498 C824 1.456 . S
C2548 C840 1.432 . S
C2533 C403 1.415 . S
C2583 C476 2.343 . S
C2598 C822 2.445 . S
C2633 C567 1.297 . S
C2648 C855 1.298 . S
C2698 C831 1.285 . S
C2683 C147 1.279 . S
C2733 C226 1.367 . S
C2748 C849 1.447 . S
C2798 C827 1.406 . S
C2783 C319 1.363 . S
C2848 C862 2.440 . S
C2833 C56 2.358 . S
C2898 C854 2.440 . S
C2883 C655 2.361 . S
C2933 C140 1.414 . S
C2948 C859 1.432 . S
C2983 C235 2.343 . S
C2998 C830 2.449 . S
C3048 C863 1.300 . S
C3033 C326 1.297 . S
C3083 C70 1.359 . S
C3098 C817 1.450 . S
C3133 C490 1.367 . S
C3148 C856 1.443 . S
C3198 C808 1.405 . S
C3183 C560 1.366 . S
C3248 C823 1.285 . S
C3233 C410 1.279 . S
