# Generated by pormake.
# Topology scu, (8,4)-cn, num edge types: 1
# Building blocks:
#     Node 0, Type 0, BuildingBlock: GIZVER_clean_sbu_0, # of connection points: 8
#     Node 1, Type 1, BuildingBlock: ESEHIV_clean_sbu_0, # of connection points: 4
#     Node 2, Type 1, BuildingBlock: ESEHIV_clean_sbu_0, # of connection points: 4
#     Edge 3, Type (0, 1), BuildingBlock: FUNLAD_clean_linker_0, # of connection points: 2
#     Edge 4, Type (0, 1), BuildingBlock: FUNLAD_clean_linker_0, # of connection points: 2
#     Edge 5, Type (0, 1), BuildingBlock: FUNLAD_clean_linker_0, # of connection points: 2
#     Edge 6, Type (0, 1), BuildingBlock: FUNLAD_clean_linker_0, # of connection points: 2
#     Edge 7, Type (0, 1), BuildingBlock: FUNLAD_clean_linker_0, # of connection points: 2
#     Edge 8, Type (0, 1), BuildingBlock: FUNLAD_clean_linker_0, # of connection points: 2
#     Edge 9, Type (0, 1), BuildingBlock: FUNLAD_clean_linker_0, # of connection points: 2
#     Edge 10, Type (0, 1), BuildingBlock: FUNLAD_clean_linker_0, # of connection points: 2
# Relax obj value: 0.031
# Max RMSD: 0.138
# Mean RMSD: 0.116
data_MOF--net-scu--node1-GIZVER_clean_sbu_0--node2-ESEHIV_clean_sbu_0--edge1-FUNLAD_clean_linker_0
_symmetry_space_group_name_H-M    P1
_symmetry_Int_Tables_number       1
_symmetry_cell_setting            triclinic
loop_
_symmetry_equiv_pos_as_xyz
'x, y, z'
_cell_length_a     28.480643
_cell_length_b     29.22537
_cell_length_c     25.310014
_cell_angle_alpha  101.77111
_cell_angle_beta   86.061785
_cell_angle_gamma 112.35659
loop_
_atom_site_label
_atom_site_type_symbol
_atom_site_fract_x
_atom_site_fract_y
_atom_site_fract_z
_atom_type_partial_charge
Co0 Co 0.02132 0.98591 0.13905 0.0
Co1 Co 0.09295 0.05555 0.09679 0.0
Co2 Co 0.99247 0.03183 0.0352 0.0
O3 O 0.03319 1.00253 0.06859 0.0
H4 H 0.0415 0.97754 0.04269 0.0
O5 O 0.95417 0.0636 1.00188 0.0
Co6 Co 0.97946 0.08881 0.93668 0.0
Co7 Co 0.89921 1.01938 0.96121 0.0
H8 H 0.94417 0.08713 1.02819 0.0
O9 O 0.15032 0.04525 0.11167 0.0
O10 O 0.08456 0.04429 0.16692 0.0
O11 O 0.09857 0.12414 0.10012 0.0
O12 O 0.01554 0.0982 0.08847 0.0
O13 O 0.05108 0.0563 0.98655 0.0
O14 O 1.00161 0.11622 0.87952 0.0
O15 O 0.96168 0.14386 0.95134 0.0
O16 O 1.00484 0.03658 0.91294 0.0
O17 O 0.9673 0.96431 0.98227 0.0
O18 O 0.89411 0.95112 0.94304 0.0
O19 O 0.91275 0.04716 0.89965 0.0
O20 O 0.84565 0.03783 0.95554 0.0
C21 C 0.04076 0.94084 0.17915 0.0
C22 C 0.93791 1.01279 0.1349 0.0
C23 C 0.05808 0.13291 0.10451 0.0
C24 C 0.13036 0.04429 0.15934 0.0
C25 C 0.98422 0.14971 0.90497 0.0
C26 C 0.04514 0.04061 0.93571 0.0
C27 C 0.92886 0.93622 0.95149 0.0
C28 C 0.86914 0.05166 0.91215 0.0
O29 O 0.01349 0.96623 0.20233 0.0
O30 O 0.05577 0.94396 0.1296 0.0
O31 O 0.93409 1.00603 0.08366 0.0
O32 O 0.98102 0.02601 0.15749 0.0
Cu33 Cu 0.06044 0.56389 0.54406 0.0
N34 N 0.0929 0.53979 0.58748 0.0
N35 N 0.09579 0.48929 0.64176 0.0
C36 C 0.06799 0.49685 0.60579 0.0
C37 C 0.14033 0.52925 0.64624 0.0
C38 C 0.1385 0.56039 0.61253 0.0
O39 O 0.03215 0.50845 0.48304 0.0
C40 C 0.03731 0.61992 0.63228 0.0
O41 O 0.08705 0.63564 0.63394 0.0
H42 H 0.02905 0.47282 0.59471 0.0
H43 H 0.16746 0.59633 0.60841 0.0
N44 N 0.1022 0.61986 0.51525 0.0
N45 N 0.11986 0.68306 0.47046 0.0
C46 C 0.08329 0.64671 0.4919 0.0
C47 C 0.15278 0.63979 0.50854 0.0
C48 C 0.16379 0.67881 0.48079 0.0
C49 C 0.06687 0.49681 0.45599 0.0
O50 O 0.11425 0.52291 0.47162 0.0
H51 H 0.04302 0.63835 0.48916 0.0
H52 H 0.17961 0.62623 0.5216 0.0
O53 O 0.0136 0.58631 0.59228 0.0
H54 H 0.17166 0.53586 0.67245 0.0
H55 H 0.20116 0.70201 0.46902 0.0
Cu56 Cu 0.48544 0.99164 0.53213 0.0
N57 N 0.43787 0.95871 0.58024 0.0
N58 N 0.37208 0.9447 0.63676 0.0
C59 C 0.40043 0.97369 0.60218 0.0
C60 C 0.39295 0.91026 0.63704 0.0
C61 C 0.43358 0.919 0.60206 0.0
O62 O 0.45362 0.02631 0.49761 0.0
C63 C 0.57561 1.01075 0.58116 0.0
O64 O 0.55874 0.96154 0.56565 0.0
H65 H 0.39482 1.00605 0.5936 0.0
H66 H 0.45839 0.89817 0.59354 0.0
N67 N 0.50213 0.94825 0.47579 0.0
N68 N 0.54735 0.92777 0.40587 0.0
C69 C 0.5366 0.9652 0.43822 0.0
C70 C 0.48998 0.89804 0.4667 0.0
C71 C 0.5182 0.88531 0.42361 0.0
C72 C 0.41204 0.99658 0.47365 0.0
O73 O 0.3964 0.94829 0.4748 0.0
H74 H 0.55561 1.0048 0.43674 0.0
H75 H 0.46418 0.87286 0.49095 0.0
O76 O 0.54838 0.0343 0.57189 0.0
H77 H 0.37966 0.88068 0.66045 0.0
H78 H 0.51811 0.84802 0.40741 0.0
C79 C 0.01362 0.1883 0.15452 0.0
C80 C 0.05898 0.18224 0.13552 0.0
C81 C 0.01473 0.23319 0.18821 0.0
C82 C 0.0613 0.27318 0.20333 0.0
C83 C 0.10633 0.26781 0.18241 0.0
C84 C 0.10529 0.22284 0.14931 0.0
C85 C 0.06524 0.32084 0.24119 0.0
C86 C 0.03059 0.32501 0.27927 0.0
C87 C 0.03976 0.37099 0.32232 0.0
C88 C 0.99849 0.37981 0.35013 0.0
C89 C 1.00654 0.42116 0.39301 0.0
C90 C 0.05614 0.45419 0.40916 0.0
H91 H 0.12233 0.39829 0.32041 0.0
C92 C 0.09718 0.44532 0.38114 0.0
C93 C 0.08922 0.40433 0.33873 0.0
H94 H 0.13601 0.46961 0.39254 0.0
H95 H 0.97719 0.15788 0.14453 0.0
H96 H 0.97909 0.23625 0.20217 0.0
H97 H 0.14276 0.2981 0.19296 0.0
H98 H 0.14091 0.21966 0.1352 0.0
H99 H 0.10013 0.35308 0.23936 0.0
H100 H 0.99515 0.29328 0.28074 0.0
H101 H 0.95994 0.35442 0.33894 0.0
H102 H 0.97411 0.42674 0.41394 0.0
C103 C 0.84372 0.99032 0.1453 0.0
C104 C 0.89152 1.00245 0.16845 0.0
C105 C 0.79967 0.97747 0.17643 0.0
C106 C 0.80247 0.97646 0.2315 0.0
C107 C 0.85023 0.98876 0.25454 0.0
C108 C 0.89423 1.00192 0.22358 0.0
C109 C 0.75657 0.96102 0.26574 0.0
C110 C 0.71277 0.96569 0.25621 0.0
C111 C 0.66851 0.953 0.29292 0.0
C112 C 0.637 0.98069 0.29846 0.0
C113 C 0.59663 0.97162 0.33465 0.0
C114 C 0.58619 0.93389 0.36532 0.0
H115 H 0.67977 0.89104 0.31794 0.0
C116 C 0.61624 0.90454 0.35804 0.0
C117 C 0.65715 0.9141 0.32235 0.0
H118 H 0.60913 0.87531 0.38122 0.0
H119 H 0.84017 0.98999 0.10287 0.0
H120 H 0.76351 0.96706 0.15678 0.0
H121 H 0.85355 0.98807 0.29674 0.0
H122 H 0.93029 1.01071 0.24276 0.0
H123 H 0.7602 0.94815 0.30206 0.0
H124 H 0.71043 0.98313 0.22301 0.0
H125 H 0.64448 1.01041 0.2758 0.0
H126 H 0.57369 0.99437 0.33898 0.0
C127 C 0.04772 0.9156 0.26619 0.0
C128 C 0.0569 0.91142 0.21045 0.0
C129 C 0.06311 0.88868 0.29647 0.0
C130 C 0.0874 0.85599 0.27164 0.0
C131 C 0.09763 0.85273 0.21611 0.0
C132 C 0.08259 0.88011 0.18582 0.0
C133 C 0.1029 0.82524 0.30232 0.0
C134 C 0.08146 0.81302 0.34939 0.0
C135 C 0.09389 0.78049 0.38018 0.0
C136 C 0.06028 0.76127 0.42067 0.0
C137 C 0.06925 0.73012 0.45054 0.0
C138 C 0.11233 0.71731 0.44103 0.0
H139 H 0.16548 0.78364 0.34161 0.0
C140 C 0.14685 0.73749 0.40147 0.0
C141 C 0.13781 0.76875 0.37135 0.0
H142 H 0.18039 0.72841 0.39303 0.0
H143 H 0.02908 0.94026 0.28682 0.0
H144 H 0.05632 0.89432 0.33942 0.0
H145 H 0.11685 0.82845 0.19589 0.0
H146 H 0.09079 0.87646 0.14309 0.0
H147 H 0.13071 0.81008 0.28372 0.0
H148 H 0.05086 0.82514 0.36537 0.0
H149 H 0.02648 0.77003 0.42906 0.0
H150 H 0.04236 0.71625 0.48137 0.0
C151 C 0.21033 0.0462 0.19678 0.0
C152 C 0.16 0.0433 0.20471 0.0
C153 C 0.23846 0.04469 0.23902 0.0
C154 C 0.21686 0.04011 0.29027 0.0
C155 C 0.1665 0.03694 0.29817 0.0
C156 C 0.13855 0.03917 0.25606 0.0
C157 C 0.2445 0.03447 0.3347 0.0
C158 C 0.29559 0.05351 0.33922 0.0
C159 C 0.32335 0.04133 0.37862 0.0
C160 C 0.37337 0.07384 0.39404 0.0
C161 C 0.40203 0.06064 0.42684 0.0
C162 C 0.38135 1.0142 0.44389 0.0
H163 H 0.26464 0.96871 0.38507 0.0
C164 C 0.33102 0.98227 0.42937 0.0
C165 C 0.30239 0.99556 0.39716 0.0
H166 H 0.31388 0.9462 0.4419 0.0
H167 H 0.22805 0.04924 0.15773 0.0
H168 H 0.27656 0.04557 0.2308 0.0
H169 H 0.14869 0.03267 0.33703 0.0
H170 H 0.09994 0.03697 0.26364 0.0
H171 H 0.22168 1.01379 0.36457 0.0
H172 H 0.31819 0.07844 0.31268 0.0
H173 H 0.39061 0.10912 0.37988 0.0
H174 H 0.4408 0.08588 0.4372 0.0
C175 C 0.96845 0.8716 0.92087 0.0
C176 C 0.92775 0.88729 0.91897 0.0
C177 C 0.97043 0.82915 0.88473 0.0
C178 C 0.93164 0.80131 0.84587 0.0
C179 C 0.89037 0.81615 0.84508 0.0
C180 C 0.88818 0.8583 0.88138 0.0
C181 C 0.9356 0.76006 0.80243 0.0
C182 C 0.96176 0.73157 0.80857 0.0
C183 C 0.97492 0.69698 0.76347 0.0
C184 C 0.01672 0.6848 0.77115 0.0
C185 C 0.03509 0.65778 0.72881 0.0
C186 C 0.01164 0.6413 0.67768 0.0
H187 H 0.91619 0.68535 0.70575 0.0
C188 C 0.96765 0.65021 0.67044 0.0
C189 C 0.94947 0.67811 0.71299 0.0
H190 H 0.9488 0.63775 0.63143 0.0
H191 H 0.99985 0.89323 0.9488 0.0
H192 H 1.00368 0.81991 0.88574 0.0
H193 H 0.86018 0.79571 0.81543 0.0
H194 H 0.85621 0.86915 0.87849 0.0
H195 H 0.91802 0.75486 0.76384 0.0
H196 H 0.97805 0.73672 0.84795 0.0
H197 H 0.0368 0.69817 0.80953 0.0
H198 H 0.06874 0.65091 0.73581 0.0
C199 C 0.07577 1.00285 0.84859 0.0
C200 C 0.08358 0.02401 0.90391 0.0
C201 C 0.11232 0.98781 0.81848 0.0
C202 C 0.1579 0.99399 0.84293 0.0
C203 C 0.16502 1.01398 0.89849 0.0
C204 C 0.12845 0.02893 0.92861 0.0
C205 C 0.19868 0.97989 0.81228 0.0
C206 C 0.20446 0.97637 0.7584 0.0
C207 C 0.24726 0.96615 0.7278 0.0
C208 C 0.25916 0.98011 0.67718 0.0
C209 C 0.29956 0.97255 0.64729 0.0
C210 C 0.32906 0.9504 0.66699 0.0
H211 H 0.26717 0.92996 0.78507 0.0
C212 C 0.31634 0.93496 0.71693 0.0
C213 C 0.27589 0.94271 0.74706 0.0
H214 H 0.33821 0.91772 0.73324 0.0
H215 H 0.04131 0.99778 0.82842 0.0
H216 H 0.10426 0.97092 0.77628 0.0
H217 H 0.19939 1.01873 0.91865 0.0
H218 H 0.13558 0.04465 0.97125 0.0
H219 H 0.22678 0.97572 0.83576 0.0
H220 H 0.17878 0.98476 0.73569 0.0
H221 H 0.23748 0.99759 0.66086 0.0
H222 H 0.30749 0.9839 0.60849 0.0
C223 C 1.00657 0.19262 0.82609 0.0
C224 C 0.99077 0.19349 0.88003 0.0
C225 C 0.01753 0.23459 0.80249 0.0
C226 C 0.01255 0.2788 0.83195 0.0
C227 C 0.9961 0.27964 0.88576 0.0
C228 C 0.9849 0.23723 0.90953 0.0
C229 C 0.02722 0.32503 0.80817 0.0
C230 C 0.02565 0.32297 0.75449 0.0
C231 C 0.04356 0.3676 0.72788 0.0
C232 C 0.02626 0.3612 0.67525 0.0
C233 C 0.04363 0.40093 0.64719 0.0
C234 C 0.07928 0.44818 0.67076 0.0
H235 H 0.09481 0.42097 0.79157 0.0
C236 C 0.09725 0.45466 0.72325 0.0
C237 C 0.07952 0.41483 0.75164 0.0
H238 H 0.12454 0.49067 0.74262 0.0
H239 H 0.0116 0.15964 0.80204 0.0
H240 H 0.03162 0.23257 0.76163 0.0
H241 H 0.99233 0.31332 0.90961 0.0
H242 H 0.9731 0.23921 0.95126 0.0
H243 H 0.03889 0.36126 0.83564 0.0
H244 H 1.00925 0.2864 0.72805 0.0
H245 H 0.99916 0.32515 0.65555 0.0
H246 H 0.02956 0.39439 0.60659 0.0
C247 C 0.86396 0.07799 0.82452 0.0
C248 C 0.84379 0.06884 0.87532 0.0
C249 C 0.83696 0.0897 0.78842 0.0
C250 C 0.78912 0.09233 0.8025 0.0
C251 C 0.77081 0.08636 0.85454 0.0
C252 C 0.7976 0.07459 0.89038 0.0
C253 C 0.75516 0.09739 0.76363 0.0
C254 C 0.75725 0.0827 0.70977 0.0
C255 C 0.71421 0.07178 0.67283 0.0
C256 C 0.70652 0.03308 0.6274 0.0
C257 C 0.66241 1.01524 0.59627 0.0
C258 C 0.62533 0.03642 0.60904 0.0
H259 H 0.68415 0.12646 0.71741 0.0
C260 C 0.63464 0.07801 0.65168 0.0
C261 C 0.67871 0.09547 0.68363 0.0
H262 H 0.60671 0.09514 0.66212 0.0
H263 H 0.89995 0.07487 0.81207 0.0
H264 H 0.8534 0.09586 0.74945 0.0
H265 H 0.73446 0.0887 0.86688 0.0
H266 H 0.78126 0.06873 0.92953 0.0
H267 H 0.72278 0.10615 0.7805 0.0
H268 H 0.7874 0.07016 0.693 0.0
H269 H 0.73335 1.0145 0.61766 0.0
H270 H 0.65651 0.98355 0.5631 0.0
loop_
_geom_bond_atom_site_label_1
_geom_bond_atom_site_label_2
_geom_bond_distance
_geom_bond_site_symmetry_2
_ccdc_geom_bond_type
Co0 O3 2.042 . S
Co0 O10 2.264 1_565 S
Co0 O29 2.286 1_455 S
Co0 O30 2.069 . S
Co0 O32 2.015 1_455 S
Co1 O3 2.122 1_545 S
Co1 O9 2.073 . S
Co1 O10 2.327 . S
Co1 O11 1.976 . S
Co2 O3 2.087 1_545 S
Co2 O5 2.087 1_454 S
Co2 O12 2.111 . S
Co2 O13 2.143 1_554 S
Co2 O17 2.111 1_444 S
Co2 O31 2.143 1_445 S
O3 Co0 2.042 . S
O3 Co1 2.122 1_565 S
O3 Co2 2.087 1_565 S
O3 H4 0.980 . S
H4 O3 0.980 . S
O5 Co2 2.087 1_656 S
O5 Co6 2.042 1_655 S
O5 Co7 2.122 1_545 S
O5 H8 0.980 . S
Co6 O5 2.042 1_455 S
Co6 O14 2.286 . S
Co6 O15 2.069 1_455 S
Co6 O16 2.015 . S
Co6 O19 2.264 1_455 S
Co7 O5 2.122 1_565 S
Co7 O18 1.976 . S
Co7 O19 2.327 1_565 S
Co7 O20 2.073 . S
H8 O5 0.980 . S
O9 Co1 2.073 . S
O9 C24 1.245 . S
O10 Co0 2.264 1_545 S
O10 Co1 2.327 . S
O10 C24 1.257 . S
O11 Co1 1.976 . S
O11 C23 1.251 . S
O12 Co2 2.111 . S
O12 C23 1.274 . S
O13 Co2 2.143 1_556 S
O13 C26 1.246 . S
O14 Co6 2.286 . S
O14 C25 1.259 1_455 S
O15 Co6 2.069 1_655 S
O15 C25 1.289 . S
O16 Co6 2.015 . S
O16 C26 1.257 . S
O17 Co2 2.111 1_666 S
O17 C27 1.274 . S
O18 Co7 1.976 . S
O18 C27 1.251 . S
O19 Co6 2.264 1_655 S
O19 Co7 2.327 1_545 S
O19 C28 1.257 . S
O20 Co7 2.073 . S
O20 C28 1.245 1_565 S
C21 O29 1.259 1_455 S
C21 O30 1.289 . S
C22 O31 1.246 . S
C22 O32 1.257 . S
C23 O11 1.251 . S
C23 O12 1.274 . S
C24 O9 1.245 . S
C24 O10 1.257 . S
C25 O14 1.259 1_655 S
C25 O15 1.289 . S
C26 O13 1.246 . S
C26 O16 1.257 . S
C27 O17 1.274 . S
C27 O18 1.251 . S
C28 O19 1.257 . S
C28 O20 1.245 1_545 S
O29 Co0 2.286 1_655 S
O29 C21 1.259 1_655 S
O30 Co0 2.069 . S
O30 C21 1.289 . S
O31 Co2 2.143 1_665 S
O31 C22 1.246 . S
O32 Co0 2.015 1_655 S
O32 C22 1.257 . S
Cu33 N34 1.999 . S
Cu33 O39 1.974 . S
Cu33 N44 1.985 . S
Cu33 O53 1.959 . S
N34 Cu33 1.999 . S
N34 C36 1.263 . S
N34 C38 1.389 . S
N35 C36 1.358 . S
N35 C37 1.400 . S
C36 N34 1.263 . S
C36 N35 1.358 . S
C36 H42 0.930 1_655 S
C37 N35 1.400 . S
C37 C38 1.351 . S
C37 H54 0.930 . S
C38 N34 1.389 . S
C38 C37 1.351 . S
C38 H43 0.930 . S
O39 Cu33 1.974 . S
O39 C49 1.282 1_655 S
C40 O41 1.261 . S
C40 O53 1.251 1_455 S
O41 C40 1.261 . S
H42 C36 0.930 1_455 S
H43 C38 0.930 . S
N44 Cu33 1.985 . S
N44 C46 1.335 . S
N44 C47 1.390 1_655 S
N45 C46 1.345 . S
N45 C48 1.336 1_655 S
C46 N44 1.335 . S
C46 N45 1.345 . S
C46 H51 0.930 . S
C47 N44 1.390 1_455 S
C47 C48 1.346 . S
C47 H52 0.930 . S
C48 N45 1.336 1_455 S
C48 C47 1.346 . S
C48 H55 0.929 . S
C49 O39 1.282 1_455 S
C49 O50 1.216 . S
O50 C49 1.216 . S
H51 C46 0.930 . S
H52 C47 0.930 . S
O53 Cu33 1.959 . S
O53 C40 1.251 1_655 S
H54 C37 0.930 . S
H55 C48 0.929 . S
Cu56 N57 1.999 . S
Cu56 O62 1.974 . S
Cu56 N67 1.985 . S
Cu56 O76 1.959 . S
N57 Cu56 1.999 . S
N57 C59 1.263 . S
N57 C61 1.389 . S
N58 C59 1.358 . S
N58 C60 1.400 . S
C59 N57 1.263 . S
C59 N58 1.358 . S
C59 H65 0.930 1_545 S
C60 N58 1.400 . S
C60 C61 1.351 . S
C60 H77 0.930 . S
C61 N57 1.389 . S
C61 C60 1.351 . S
C61 H66 0.930 . S
O62 Cu56 1.974 . S
O62 C72 1.282 1_545 S
C63 O64 1.261 . S
C63 O76 1.251 1_565 S
O64 C63 1.261 . S
H65 C59 0.930 1_565 S
H66 C61 0.930 . S
N67 Cu56 1.985 . S
N67 C69 1.335 . S
N67 C70 1.391 . S
N68 C69 1.345 . S
N68 C71 1.337 1_545 S
C69 N67 1.335 . S
C69 N68 1.345 . S
C69 H74 0.930 . S
C70 N67 1.391 . S
C70 C71 1.340 1_545 S
C70 H75 0.934 1_545 S
C71 N68 1.337 1_565 S
C71 C70 1.340 1_565 S
C71 H78 0.931 . S
C72 O62 1.282 1_565 S
C72 O73 1.216 . S
O73 C72 1.216 . S
H74 C69 0.930 . S
H75 C70 0.934 1_565 S
O76 Cu56 1.959 . S
O76 C63 1.251 1_545 S
H77 C60 0.930 . S
H78 C71 0.931 . S
C79 C80 1.386 1_655 S
C79 C81 1.383 . S
C79 H95 0.951 . S
C80 C79 1.386 1_455 S
C80 C84 1.383 . S
C81 C79 1.383 . S
C81 C82 1.402 1_655 S
C81 H96 0.951 . S
C82 C81 1.402 1_455 S
C82 C83 1.375 . S
C82 C85 1.481 . S
C83 C82 1.375 . S
C83 C84 1.367 . S
C83 H97 0.951 . S
C84 C80 1.383 . S
C84 C83 1.367 . S
C84 H98 0.950 . S
C85 C82 1.481 . S
C85 C86 1.297 1_455 S
C85 H99 0.950 . S
C86 C85 1.297 1_655 S
C86 C87 1.477 . S
C86 H100 0.950 . S
C87 C86 1.477 . S
C87 C88 1.390 . S
C87 C93 1.393 1_655 S
C88 C87 1.390 . S
C88 C89 1.369 . S
C88 H101 0.950 . S
C89 C88 1.369 . S
C89 C90 1.392 1_655 S
C89 H102 0.951 . S
C90 C89 1.392 1_455 S
C90 C92 1.384 . S
H91 C93 0.949 . S
C92 C90 1.384 . S
C92 C93 1.385 . S
C92 H94 0.950 . S
C93 C87 1.393 1_455 S
C93 H91 0.949 . S
C93 C92 1.385 . S
H94 C92 0.950 . S
H95 C79 0.951 . S
H96 C81 0.951 . S
H97 C83 0.951 . S
H98 C84 0.950 . S
H99 C85 0.950 . S
H100 C86 0.950 . S
H101 C88 0.950 . S
H102 C89 0.951 . S
C103 C104 1.376 1_545 S
C103 C105 1.383 . S
C103 H119 0.951 . S
C104 C103 1.376 1_565 S
C104 C108 1.392 . S
C105 C103 1.383 . S
C105 C106 1.402 1_545 S
C105 H120 0.951 . S
C106 C105 1.402 1_565 S
C106 C107 1.375 . S
C106 C109 1.481 . S
C107 C106 1.375 . S
C107 C108 1.367 . S
C107 H121 0.951 . S
C108 C104 1.392 . S
C108 C107 1.367 . S
C108 H122 0.950 . S
C109 C106 1.481 . S
C109 C110 1.297 1_565 S
C109 H123 0.950 . S
C110 C109 1.297 1_545 S
C110 C111 1.479 . S
C110 H124 0.950 . S
C111 C110 1.479 . S
C111 C112 1.375 . S
C111 C117 1.404 1_545 S
C112 C111 1.375 . S
C112 C113 1.369 . S
C112 H125 0.950 . S
C113 C112 1.369 . S
C113 C114 1.392 . S
C113 H126 0.951 . S
C114 C113 1.392 . S
C114 C116 1.384 1_545 S
H115 C117 0.949 . S
C116 C114 1.384 1_565 S
C116 C117 1.385 . S
C116 H118 0.950 . S
C117 C111 1.404 1_565 S
C117 H115 0.949 . S
C117 C116 1.385 . S
H118 C116 0.950 . S
H119 C103 0.951 . S
H120 C105 0.951 . S
H121 C107 0.951 . S
H122 C108 0.950 . S
H123 C109 0.950 . S
H124 C110 0.950 . S
H125 C112 0.950 . S
H126 C113 0.951 . S
C127 C128 1.386 . S
C127 C129 1.383 . S
C127 H143 0.951 . S
C128 C127 1.386 . S
C128 C132 1.382 1_455 S
C129 C127 1.383 . S
C129 C130 1.402 1_455 S
C129 H144 0.951 . S
C130 C129 1.402 1_655 S
C130 C131 1.375 . S
C130 C133 1.481 . S
C131 C130 1.375 . S
C131 C132 1.364 . S
C131 H145 0.951 . S
C132 C128 1.382 1_655 S
C132 C131 1.364 . S
C132 H146 0.954 . S
C133 C130 1.481 . S
C133 C134 1.297 . S
C133 H147 0.950 . S
C134 C133 1.297 . S
C134 C135 1.479 . S
C134 H148 0.950 . S
C135 C134 1.479 . S
C135 C136 1.375 1_655 S
C135 C141 1.404 . S
C136 C135 1.375 1_455 S
C136 C137 1.369 . S
C136 H149 0.950 . S
C137 C136 1.369 . S
C137 C138 1.392 1_455 S
C137 H150 0.951 . S
C138 C137 1.392 1_655 S
C138 C140 1.384 . S
H139 C141 0.949 . S
C140 C138 1.384 . S
C140 C141 1.385 . S
C140 H142 0.950 . S
C141 C135 1.404 . S
C141 H139 0.949 . S
C141 C140 1.385 . S
H142 C140 0.950 . S
H143 C127 0.951 . S
H144 C129 0.951 . S
H145 C131 0.951 . S
H146 C132 0.954 . S
H147 C133 0.950 . S
H148 C134 0.950 . S
H149 C136 0.950 . S
H150 C137 0.951 . S
C151 C152 1.386 1_545 S
C151 C153 1.383 . S
C151 H167 0.951 . S
C152 C151 1.386 1_565 S
C152 C156 1.383 . S
C153 C151 1.383 . S
C153 C154 1.402 1_545 S
C153 H168 0.951 . S
C154 C153 1.402 1_565 S
C154 C155 1.375 . S
C154 C157 1.481 . S
C155 C154 1.375 . S
C155 C156 1.367 . S
C155 H169 0.951 . S
C156 C152 1.383 . S
C156 C155 1.367 . S
C156 H170 0.950 . S
C157 C154 1.481 . S
C157 C158 1.297 1_565 S
C157 H171 0.950 . S
C158 C157 1.297 1_545 S
C158 C159 1.479 . S
C158 H172 0.950 . S
C159 C158 1.479 . S
C159 C160 1.375 . S
C159 C165 1.404 1_545 S
C160 C159 1.375 . S
C160 C161 1.369 . S
C160 H173 0.950 . S
C161 C160 1.369 . S
C161 C162 1.392 1_545 S
C161 H174 0.951 . S
C162 C161 1.392 1_565 S
C162 C164 1.384 . S
H163 C165 0.949 . S
C164 C162 1.384 . S
C164 C165 1.385 . S
C164 H166 0.950 . S
C165 C159 1.404 1_565 S
C165 H163 0.949 . S
C165 C164 1.385 . S
H166 C164 0.950 . S
H167 C151 0.951 . S
H168 C153 0.951 . S
H169 C155 0.951 . S
H170 C156 0.950 . S
H171 C157 0.950 . S
H172 C158 0.950 . S
H173 C160 0.950 . S
H174 C161 0.951 . S
C175 C176 1.402 . S
C175 C177 1.383 . S
C175 H191 0.951 . S
C176 C175 1.402 . S
C176 C180 1.370 1_455 S
C177 C175 1.383 . S
C177 C178 1.402 1_455 S
C177 H192 0.951 . S
C178 C177 1.402 1_655 S
C178 C179 1.375 . S
C178 C181 1.481 . S
C179 C178 1.375 . S
C179 C180 1.367 . S
C179 H193 0.951 . S
C180 C176 1.370 1_655 S
C180 C179 1.367 . S
C180 H194 0.950 . S
C181 C178 1.481 . S
C181 C182 1.297 1_655 S
C181 H195 0.950 . S
C182 C181 1.297 1_455 S
C182 C183 1.479 . S
C182 H196 0.950 . S
C183 C182 1.479 . S
C183 C184 1.375 . S
C183 C189 1.404 1_455 S
C184 C183 1.375 . S
C184 C185 1.369 . S
C184 H197 0.950 . S
C185 C184 1.369 . S
C185 C186 1.392 . S
C185 H198 0.951 . S
C186 C185 1.392 . S
C186 C188 1.384 1_455 S
H187 C189 0.949 . S
C188 C186 1.384 1_655 S
C188 C189 1.385 . S
C188 H190 0.950 . S
C189 C183 1.404 1_655 S
C189 H187 0.949 . S
C189 C188 1.385 . S
H190 C188 0.950 . S
H191 C175 0.951 . S
H192 C177 0.951 . S
H193 C179 0.951 . S
H194 C180 0.950 . S
H195 C181 0.950 . S
H196 C182 0.950 . S
H197 C184 0.950 . S
H198 C185 0.951 . S
C199 C200 1.386 . S
C199 C201 1.383 . S
C199 H215 0.951 1_545 S
C200 C199 1.386 . S
C200 C204 1.383 . S
C201 C199 1.383 . S
C201 C202 1.402 . S
C201 H216 0.951 1_545 S
C202 C201 1.402 . S
C202 C203 1.375 . S
C202 C205 1.481 . S
C203 C202 1.375 . S
C203 C204 1.367 . S
C203 H217 0.951 . S
C204 C200 1.383 . S
C204 C203 1.367 . S
C204 H218 0.950 . S
C205 C202 1.481 . S
C205 C206 1.297 . S
C205 H219 0.950 . S
C206 C205 1.297 . S
C206 C207 1.479 . S
C206 H220 0.950 . S
C207 C206 1.479 . S
C207 C208 1.375 . S
C207 C213 1.404 . S
C208 C207 1.375 . S
C208 C209 1.369 . S
C208 H221 0.950 1_545 S
C209 C208 1.369 . S
C209 C210 1.392 . S
C209 H222 0.951 1_545 S
C210 C209 1.392 . S
C210 C212 1.384 . S
H211 C213 0.949 . S
C212 C210 1.384 . S
C212 C213 1.385 . S
C212 H214 0.950 . S
C213 C207 1.404 . S
C213 H211 0.949 . S
C213 C212 1.385 . S
H214 C212 0.950 . S
H215 C199 0.951 1_565 S
H216 C201 0.951 1_565 S
H217 C203 0.951 . S
H218 C204 0.950 . S
H219 C205 0.950 . S
H220 C206 0.950 . S
H221 C208 0.950 1_565 S
H222 C209 0.951 1_565 S
C223 C224 1.386 . S
C223 C225 1.383 . S
C223 H239 0.951 . S
C224 C223 1.386 . S
C224 C228 1.383 1_655 S
C225 C223 1.383 . S
C225 C226 1.403 . S
C225 H240 0.951 . S
C226 C225 1.403 . S
C226 C227 1.373 1_655 S
C226 C229 1.481 1_655 S
C227 C226 1.373 1_455 S
C227 C228 1.367 . S
C227 H241 0.951 . S
C228 C224 1.383 1_455 S
C228 C227 1.367 . S
C228 H242 0.950 . S
C229 C226 1.481 1_455 S
C229 C230 1.297 1_455 S
C229 H243 0.950 . S
C230 C229 1.297 1_655 S
C230 C231 1.479 . S
C230 H244 0.950 . S
C231 C230 1.479 . S
C231 C232 1.375 . S
C231 C237 1.404 1_655 S
C232 C231 1.375 . S
C232 C233 1.369 . S
C232 H245 0.950 . S
C233 C232 1.369 . S
C233 C234 1.392 . S
C233 H246 0.951 . S
C234 C233 1.392 . S
C234 C236 1.384 1_655 S
H235 C237 0.949 . S
C236 C234 1.384 1_455 S
C236 C237 1.385 . S
C236 H238 0.950 . S
C237 C231 1.404 1_455 S
C237 H235 0.949 . S
C237 C236 1.385 . S
H238 C236 0.950 . S
H239 C223 0.951 . S
H240 C225 0.951 . S
H241 C227 0.951 . S
H242 C228 0.950 . S
H243 C229 0.950 . S
H244 C230 0.950 . S
H245 C232 0.950 . S
H246 C233 0.951 . S
C247 C248 1.386 1_565 S
C247 C249 1.383 . S
C247 H263 0.951 . S
C248 C247 1.386 1_545 S
C248 C252 1.383 . S
C249 C247 1.383 . S
C249 C250 1.402 1_565 S
C249 H264 0.951 . S
C250 C249 1.402 1_545 S
C250 C251 1.375 . S
C250 C253 1.481 . S
C251 C250 1.375 . S
C251 C252 1.367 . S
C251 H265 0.951 . S
C252 C248 1.383 . S
C252 C251 1.367 . S
C252 H266 0.950 . S
C253 C250 1.481 . S
C253 C254 1.297 . S
C253 H267 0.950 . S
C254 C253 1.297 . S
C254 C255 1.479 . S
C254 H268 0.950 1_545 S
C255 C254 1.479 . S
C255 C256 1.375 1_545 S
C255 C261 1.404 . S
C256 C255 1.375 1_565 S
C256 C257 1.369 . S
C256 H269 0.950 . S
C257 C256 1.369 . S
C257 C258 1.392 . S
C257 H270 0.951 . S
C258 C257 1.392 . S
C258 C260 1.384 1_565 S
H259 C261 0.949 . S
C260 C258 1.384 1_545 S
C260 C261 1.385 . S
C260 H262 0.950 . S
C261 C255 1.404 . S
C261 H259 0.949 . S
C261 C260 1.385 . S
H262 C260 0.950 . S
H263 C247 0.951 . S
H264 C249 0.951 . S
H265 C251 0.951 . S
H266 C252 0.950 . S
H267 C253 0.950 . S
H268 C254 0.950 1_565 S
H269 C256 0.950 . S
H270 C257 0.951 . S
C80 C23 1.332 . S
C90 C49 1.441 . S
C104 C22 1.379 . S
C114 N68 1.319 . S
C128 C21 1.719 . S
C138 N45 1.716 . S
C152 C24 1.590 1_565 S
C162 C72 1.626 . S
C176 C27 1.365 1_455 S
C186 C40 1.454 . S
C200 C26 1.399 . S
C210 N58 1.404 . S
C234 N35 1.667 . S
C224 C25 1.753 . S
C248 C28 1.629 . S
C258 C63 1.655 . S
