# Generated by pormake.
# Topology gar, (4,6)-cn, num edge types: 1
# Building blocks:
#     Node 0, Type 0, BuildingBlock: CEKHIL_clean_sbu_0, # of connection points: 4
#     Node 1, Type 0, BuildingBlock: CEKHIL_clean_sbu_0, # of connection points: 4
#     Node 2, Type 0, BuildingBlock: CEKHIL_clean_sbu_0, # of connection points: 4
#     Node 3, Type 0, BuildingBlock: CEKHIL_clean_sbu_0, # of connection points: 4
#     Node 4, Type 0, BuildingBlock: CEKHIL_clean_sbu_0, # of connection points: 4
#     Node 5, Type 0, BuildingBlock: CEKHIL_clean_sbu_0, # of connection points: 4
#     Node 6, Type 0, BuildingBlock: CEKHIL_clean_sbu_0, # of connection points: 4
#     Node 7, Type 0, BuildingBlock: CEKHIL_clean_sbu_0, # of connection points: 4
#     Node 8, Type 0, BuildingBlock: CEKHIL_clean_sbu_0, # of connection points: 4
#     Node 9, Type 0, BuildingBlock: CEKHIL_clean_sbu_0, # of connection points: 4
#     Node 10, Type 0, BuildingBlock: CEKHIL_clean_sbu_0, # of connection points: 4
#     Node 11, Type 0, BuildingBlock: CEKHIL_clean_sbu_0, # of connection points: 4
#     Node 12, Type 0, BuildingBlock: CEKHIL_clean_sbu_0, # of connection points: 4
#     Node 13, Type 0, BuildingBlock: CEKHIL_clean_sbu_0, # of connection points: 4
#     Node 14, Type 0, BuildingBlock: CEKHIL_clean_sbu_0, # of connection points: 4
#     Node 15, Type 0, BuildingBlock: CEKHIL_clean_sbu_0, # of connection points: 4
#     Node 16, Type 0, BuildingBlock: CEKHIL_clean_sbu_0, # of connection points: 4
#     Node 17, Type 0, BuildingBlock: CEKHIL_clean_sbu_0, # of connection points: 4
#     Node 18, Type 0, BuildingBlock: CEKHIL_clean_sbu_0, # of connection points: 4
#     Node 19, Type 0, BuildingBlock: CEKHIL_clean_sbu_0, # of connection points: 4
#     Node 20, Type 0, BuildingBlock: CEKHIL_clean_sbu_0, # of connection points: 4
#     Node 21, Type 0, BuildingBlock: CEKHIL_clean_sbu_0, # of connection points: 4
#     Node 22, Type 0, BuildingBlock: CEKHIL_clean_sbu_0, # of connection points: 4
#     Node 23, Type 0, BuildingBlock: CEKHIL_clean_sbu_0, # of connection points: 4
#     Node 24, Type 1, BuildingBlock: KUMBOL_clean_sbu_1, # of connection points: 6
#     Node 25, Type 1, BuildingBlock: KUMBOL_clean_sbu_1, # of connection points: 6
#     Node 26, Type 1, BuildingBlock: KUMBOL_clean_sbu_1, # of connection points: 6
#     Node 27, Type 1, BuildingBlock: KUMBOL_clean_sbu_1, # of connection points: 6
#     Node 28, Type 1, BuildingBlock: KUMBOL_clean_sbu_1, # of connection points: 6
#     Node 29, Type 1, BuildingBlock: KUMBOL_clean_sbu_1, # of connection points: 6
#     Node 30, Type 1, BuildingBlock: KUMBOL_clean_sbu_1, # of connection points: 6
#     Node 31, Type 1, BuildingBlock: KUMBOL_clean_sbu_1, # of connection points: 6
#     Node 32, Type 1, BuildingBlock: KUMBOL_clean_sbu_1, # of connection points: 6
#     Node 33, Type 1, BuildingBlock: KUMBOL_clean_sbu_1, # of connection points: 6
#     Node 34, Type 1, BuildingBlock: KUMBOL_clean_sbu_1, # of connection points: 6
#     Node 35, Type 1, BuildingBlock: KUMBOL_clean_sbu_1, # of connection points: 6
#     Node 36, Type 1, BuildingBlock: KUMBOL_clean_sbu_1, # of connection points: 6
#     Node 37, Type 1, BuildingBlock: KUMBOL_clean_sbu_1, # of connection points: 6
#     Node 38, Type 1, BuildingBlock: KUMBOL_clean_sbu_1, # of connection points: 6
#     Node 39, Type 1, BuildingBlock: KUMBOL_clean_sbu_1, # of connection points: 6
#     Edge 40, Type (0, 1), BuildingBlock: XUDNAN_clean_linker_2, # of connection points: 2
#     Edge 41, Type (0, 1), BuildingBlock: XUDNAN_clean_linker_2, # of connection points: 2
#     Edge 42, Type (0, 1), BuildingBlock: XUDNAN_clean_linker_2, # of connection points: 2
#     Edge 43, Type (0, 1), BuildingBlock: XUDNAN_clean_linker_2, # of connection points: 2
#     Edge 44, Type (0, 1), BuildingBlock: XUDNAN_clean_linker_2, # of connection points: 2
#     Edge 45, Type (0, 1), BuildingBlock: XUDNAN_clean_linker_2, # of connection points: 2
#     Edge 46, Type (0, 1), BuildingBlock: XUDNAN_clean_linker_2, # of connection points: 2
#     Edge 47, Type (0, 1), BuildingBlock: XUDNAN_clean_linker_2, # of connection points: 2
#     Edge 48, Type (0, 1), BuildingBlock: XUDNAN_clean_linker_2, # of connection points: 2
#     Edge 49, Type (0, 1), BuildingBlock: XUDNAN_clean_linker_2, # of connection points: 2
#     Edge 50, Type (0, 1), BuildingBlock: XUDNAN_clean_linker_2, # of connection points: 2
#     Edge 51, Type (0, 1), BuildingBlock: XUDNAN_clean_linker_2, # of connection points: 2
#     Edge 52, Type (0, 1), BuildingBlock: XUDNAN_clean_linker_2, # of connection points: 2
#     Edge 53, Type (0, 1), BuildingBlock: XUDNAN_clean_linker_2, # of connection points: 2
#     Edge 54, Type (0, 1), BuildingBlock: XUDNAN_clean_linker_2, # of connection points: 2
#     Edge 55, Type (0, 1), BuildingBlock: XUDNAN_clean_linker_2, # of connection points: 2
#     Edge 56, Type (0, 1), BuildingBlock: XUDNAN_clean_linker_2, # of connection points: 2
#     Edge 57, Type (0, 1), BuildingBlock: XUDNAN_clean_linker_2, # of connection points: 2
#     Edge 58, Type (0, 1), BuildingBlock: XUDNAN_clean_linker_2, # of connection points: 2
#     Edge 59, Type (0, 1), BuildingBlock: XUDNAN_clean_linker_2, # of connection points: 2
#     Edge 60, Type (0, 1), BuildingBlock: XUDNAN_clean_linker_2, # of connection points: 2
#     Edge 61, Type (0, 1), BuildingBlock: XUDNAN_clean_linker_2, # of connection points: 2
#     Edge 62, Type (0, 1), BuildingBlock: XUDNAN_clean_linker_2, # of connection points: 2
#     Edge 63, Type (0, 1), BuildingBlock: XUDNAN_clean_linker_2, # of connection points: 2
#     Edge 64, Type (0, 1), BuildingBlock: XUDNAN_clean_linker_2, # of connection points: 2
#     Edge 65, Type (0, 1), BuildingBlock: XUDNAN_clean_linker_2, # of connection points: 2
#     Edge 66, Type (0, 1), BuildingBlock: XUDNAN_clean_linker_2, # of connection points: 2
#     Edge 67, Type (0, 1), BuildingBlock: XUDNAN_clean_linker_2, # of connection points: 2
#     Edge 68, Type (0, 1), BuildingBlock: XUDNAN_clean_linker_2, # of connection points: 2
#     Edge 69, Type (0, 1), BuildingBlock: XUDNAN_clean_linker_2, # of connection points: 2
#     Edge 70, Type (0, 1), BuildingBlock: XUDNAN_clean_linker_2, # of connection points: 2
#     Edge 71, Type (0, 1), BuildingBlock: XUDNAN_clean_linker_2, # of connection points: 2
#     Edge 72, Type (0, 1), BuildingBlock: XUDNAN_clean_linker_2, # of connection points: 2
#     Edge 73, Type (0, 1), BuildingBlock: XUDNAN_clean_linker_2, # of connection points: 2
#     Edge 74, Type (0, 1), BuildingBlock: XUDNAN_clean_linker_2, # of connection points: 2
#     Edge 75, Type (0, 1), BuildingBlock: XUDNAN_clean_linker_2, # of connection points: 2
#     Edge 76, Type (0, 1), BuildingBlock: XUDNAN_clean_linker_2, # of connection points: 2
#     Edge 77, Type (0, 1), BuildingBlock: XUDNAN_clean_linker_2, # of connection points: 2
#     Edge 78, Type (0, 1), BuildingBlock: XUDNAN_clean_linker_2, # of connection points: 2
#     Edge 79, Type (0, 1), BuildingBlock: XUDNAN_clean_linker_2, # of connection points: 2
#     Edge 80, Type (0, 1), BuildingBlock: XUDNAN_clean_linker_2, # of connection points: 2
#     Edge 81, Type (0, 1), BuildingBlock: XUDNAN_clean_linker_2, # of connection points: 2
#     Edge 82, Type (0, 1), BuildingBlock: XUDNAN_clean_linker_2, # of connection points: 2
#     Edge 83, Type (0, 1), BuildingBlock: XUDNAN_clean_linker_2, # of connection points: 2
#     Edge 84, Type (0, 1), BuildingBlock: XUDNAN_clean_linker_2, # of connection points: 2
#     Edge 85, Type (0, 1), BuildingBlock: XUDNAN_clean_linker_2, # of connection points: 2
#     Edge 86, Type (0, 1), BuildingBlock: XUDNAN_clean_linker_2, # of connection points: 2
#     Edge 87, Type (0, 1), BuildingBlock: XUDNAN_clean_linker_2, # of connection points: 2
#     Edge 88, Type (0, 1), BuildingBlock: XUDNAN_clean_linker_2, # of connection points: 2
#     Edge 89, Type (0, 1), BuildingBlock: XUDNAN_clean_linker_2, # of connection points: 2
#     Edge 90, Type (0, 1), BuildingBlock: XUDNAN_clean_linker_2, # of connection points: 2
#     Edge 91, Type (0, 1), BuildingBlock: XUDNAN_clean_linker_2, # of connection points: 2
#     Edge 92, Type (0, 1), BuildingBlock: XUDNAN_clean_linker_2, # of connection points: 2
#     Edge 93, Type (0, 1), BuildingBlock: XUDNAN_clean_linker_2, # of connection points: 2
#     Edge 94, Type (0, 1), BuildingBlock: XUDNAN_clean_linker_2, # of connection points: 2
#     Edge 95, Type (0, 1), BuildingBlock: XUDNAN_clean_linker_2, # of connection points: 2
#     Edge 96, Type (0, 1), BuildingBlock: XUDNAN_clean_linker_2, # of connection points: 2
#     Edge 97, Type (0, 1), BuildingBlock: XUDNAN_clean_linker_2, # of connection points: 2
#     Edge 98, Type (0, 1), BuildingBlock: XUDNAN_clean_linker_2, # of connection points: 2
#     Edge 99, Type (0, 1), BuildingBlock: XUDNAN_clean_linker_2, # of connection points: 2
#     Edge 100, Type (0, 1), BuildingBlock: XUDNAN_clean_linker_2, # of connection points: 2
#     Edge 101, Type (0, 1), BuildingBlock: XUDNAN_clean_linker_2, # of connection points: 2
#     Edge 102, Type (0, 1), BuildingBlock: XUDNAN_clean_linker_2, # of connection points: 2
#     Edge 103, Type (0, 1), BuildingBlock: XUDNAN_clean_linker_2, # of connection points: 2
#     Edge 104, Type (0, 1), BuildingBlock: XUDNAN_clean_linker_2, # of connection points: 2
#     Edge 105, Type (0, 1), BuildingBlock: XUDNAN_clean_linker_2, # of connection points: 2
#     Edge 106, Type (0, 1), BuildingBlock: XUDNAN_clean_linker_2, # of connection points: 2
#     Edge 107, Type (0, 1), BuildingBlock: XUDNAN_clean_linker_2, # of connection points: 2
#     Edge 108, Type (0, 1), BuildingBlock: XUDNAN_clean_linker_2, # of connection points: 2
#     Edge 109, Type (0, 1), BuildingBlock: XUDNAN_clean_linker_2, # of connection points: 2
#     Edge 110, Type (0, 1), BuildingBlock: XUDNAN_clean_linker_2, # of connection points: 2
#     Edge 111, Type (0, 1), BuildingBlock: XUDNAN_clean_linker_2, # of connection points: 2
#     Edge 112, Type (0, 1), BuildingBlock: XUDNAN_clean_linker_2, # of connection points: 2
#     Edge 113, Type (0, 1), BuildingBlock: XUDNAN_clean_linker_2, # of connection points: 2
#     Edge 114, Type (0, 1), BuildingBlock: XUDNAN_clean_linker_2, # of connection points: 2
#     Edge 115, Type (0, 1), BuildingBlock: XUDNAN_clean_linker_2, # of connection points: 2
#     Edge 116, Type (0, 1), BuildingBlock: XUDNAN_clean_linker_2, # of connection points: 2
#     Edge 117, Type (0, 1), BuildingBlock: XUDNAN_clean_linker_2, # of connection points: 2
#     Edge 118, Type (0, 1), BuildingBlock: XUDNAN_clean_linker_2, # of connection points: 2
#     Edge 119, Type (0, 1), BuildingBlock: XUDNAN_clean_linker_2, # of connection points: 2
#     Edge 120, Type (0, 1), BuildingBlock: XUDNAN_clean_linker_2, # of connection points: 2
#     Edge 121, Type (0, 1), BuildingBlock: XUDNAN_clean_linker_2, # of connection points: 2
#     Edge 122, Type (0, 1), BuildingBlock: XUDNAN_clean_linker_2, # of connection points: 2
#     Edge 123, Type (0, 1), BuildingBlock: XUDNAN_clean_linker_2, # of connection points: 2
#     Edge 124, Type (0, 1), BuildingBlock: XUDNAN_clean_linker_2, # of connection points: 2
#     Edge 125, Type (0, 1), BuildingBlock: XUDNAN_clean_linker_2, # of connection points: 2
#     Edge 126, Type (0, 1), BuildingBlock: XUDNAN_clean_linker_2, # of connection points: 2
#     Edge 127, Type (0, 1), BuildingBlock: XUDNAN_clean_linker_2, # of connection points: 2
#     Edge 128, Type (0, 1), BuildingBlock: XUDNAN_clean_linker_2, # of connection points: 2
#     Edge 129, Type (0, 1), BuildingBlock: XUDNAN_clean_linker_2, # of connection points: 2
#     Edge 130, Type (0, 1), BuildingBlock: XUDNAN_clean_linker_2, # of connection points: 2
#     Edge 131, Type (0, 1), BuildingBlock: XUDNAN_clean_linker_2, # of connection points: 2
#     Edge 132, Type (0, 1), BuildingBlock: XUDNAN_clean_linker_2, # of connection points: 2
#     Edge 133, Type (0, 1), BuildingBlock: XUDNAN_clean_linker_2, # of connection points: 2
#     Edge 134, Type (0, 1), BuildingBlock: XUDNAN_clean_linker_2, # of connection points: 2
#     Edge 135, Type (0, 1), BuildingBlock: XUDNAN_clean_linker_2, # of connection points: 2
# Relax obj value: 0.068
# Max RMSD: 0.180
# Mean RMSD: 0.110
data_MOF--net-gar--node1-CEKHIL_clean_sbu_0--node2-KUMBOL_clean_sbu_1--edge1-XUDNAN_clean_linker_2
_symmetry_space_group_name_H-M    P1
_symmetry_Int_Tables_number       1
_symmetry_cell_setting            triclinic
loop_
_symmetry_equiv_pos_as_xyz
'x, y, z'
_cell_length_a     60.175473
_cell_length_b     59.657529
_cell_length_c     55.226119
_cell_angle_alpha  96.264033
_cell_angle_beta   96.311982
_cell_angle_gamma 101.01962
loop_
_atom_site_label
_atom_site_type_symbol
_atom_site_fract_x
_atom_site_fract_y
_atom_site_fract_z
_atom_type_partial_charge
Co0 Co 0.06607 0.3306 0.36666 0.0
O1 O 0.09987 0.33287 0.37458 0.0
O2 O 0.08218 0.32177 0.33783 0.0
C3 C 0.06418 0.36582 0.39003 0.0
O4 O 0.03094 0.32549 0.35042 0.0
Co5 Co 0.03302 0.32963 0.40691 0.0
O6 O 1.00819 0.32899 0.38001 0.0
C7 C 0.05469 0.28997 0.39496 0.0
C8 C 0.10169 0.32562 0.35199 0.0
C9 C 1.01073 0.32587 0.3574 0.0
O10 O 0.06068 0.29756 0.37504 0.0
O11 O 0.04599 0.30157 0.41093 0.0
O12 O 0.07027 0.3653 0.36806 0.0
O13 O 0.06079 0.34585 0.39716 0.0
Co14 Co 0.02848 0.76417 0.70337 0.0
O15 O 0.99543 0.76416 0.69446 0.0
O16 O 1.00866 0.75917 0.7308 0.0
C17 C 0.03799 0.7966 0.68442 0.0
O18 O 0.06304 0.76502 0.72029 0.0
Co19 Co 0.06529 0.7671 0.66779 0.0
O20 O 0.08765 0.78134 0.69631 0.0
C21 C 0.0343 0.72153 0.6699 0.0
C22 C 0.99094 0.76205 0.71656 0.0
C23 C 0.084 0.77418 0.71657 0.0
O24 O 0.024 0.72964 0.68768 0.0
O25 O 0.05062 0.73395 0.66133 0.0
O26 O 0.03363 0.79873 0.70702 0.0
O27 O 0.03758 0.77596 0.6752 0.0
Co28 Co 0.56589 0.82893 0.86524 0.0
O29 O 0.59979 0.8302 0.87134 0.0
O30 O 0.58035 0.82146 0.83507 0.0
C31 C 0.56503 0.86311 0.8908 0.0
O32 O 0.53057 0.82527 0.85066 0.0
Co33 Co 0.53499 0.82626 0.90742 0.0
O34 O 0.50955 0.82732 0.88195 0.0
C35 C 0.55592 0.78732 0.89221 0.0
C36 C 0.60026 0.82392 0.84816 0.0
C37 C 0.51089 0.82534 0.85898 0.0
O38 O 0.56021 0.79535 0.87195 0.0
O39 O 0.54882 0.79864 0.90973 0.0
O40 O 0.57056 0.86392 0.86868 0.0
O41 O 0.56208 0.84265 0.89664 0.0
Co42 Co 0.52749 0.26271 0.20271 0.0
O43 O 0.49331 0.25973 0.19592 0.0
O44 O 0.50997 0.25616 0.23129 0.0
C45 C 0.53455 0.29727 0.18699 0.0
O46 O 0.56306 0.26664 0.21748 0.0
Co47 Co 0.55806 0.26576 0.16127 0.0
O48 O 0.58493 0.26986 0.18678 0.0
C49 C 0.52948 0.22157 0.16469 0.0
C50 C 0.49083 0.25767 0.21858 0.0
C51 C 0.58316 0.26904 0.20945 0.0
O52 O 0.52651 0.22861 0.18723 0.0
O53 O 0.5357 0.236 0.15004 0.0
O54 O 0.53034 0.29642 0.2094 0.0
O55 O 0.53356 0.27747 0.17461 0.0
Co56 Co 0.07082 0.80939 0.12135 0.0
O57 O 0.03771 0.80497 0.11312 0.0
O58 O 0.05518 0.80236 0.14952 0.0
C59 C 0.07726 0.84509 0.10378 0.0
O60 O 0.1035 0.81268 0.14051 0.0
Co61 Co 0.1016 0.8063 0.08843 0.0
O62 O 0.12812 0.80849 0.11431 0.0
C63 C 0.07584 0.7616 0.09352 0.0
C64 C 0.03615 0.80157 0.13573 0.0
C65 C 0.12387 0.8111 0.13628 0.0
O66 O 0.06875 0.77373 0.11104 0.0
O67 O 0.08881 0.77195 0.07968 0.0
O68 O 0.07328 0.84351 0.12614 0.0
O69 O 0.0777 0.82504 0.09163 0.0
Co70 Co 0.52128 0.78292 0.44832 0.0
O71 O 0.55461 0.78881 0.45564 0.0
O72 O 0.53498 0.7732 0.41976 0.0
C73 C 0.51847 0.82032 0.46662 0.0
O74 O 0.48791 0.77633 0.42933 0.0
Co75 Co 0.48866 0.77928 0.48147 0.0
O76 O 0.46367 0.78201 0.45564 0.0
C77 C 0.51224 0.74035 0.47823 0.0
C78 C 0.55472 0.78027 0.43298 0.0
C79 C 0.46779 0.77909 0.43361 0.0
O80 O 0.51997 0.74944 0.45953 0.0
O81 O 0.49973 0.75086 0.49076 0.0
O82 O 0.52292 0.81606 0.44433 0.0
O83 O 0.51632 0.80213 0.47806 0.0
Co84 Co 0.57222 0.30866 0.62065 0.0
O85 O 0.5384 0.30356 0.61688 0.0
O86 O 0.56062 0.30019 0.64994 0.0
C87 C 0.57643 0.34476 0.60359 0.0
O88 O 0.60557 0.31375 0.63861 0.0
Co89 Co 0.60319 0.30895 0.58843 0.0
O90 O 0.62965 0.30714 0.61283 0.0
C91 C 0.5786 0.26267 0.59037 0.0
C92 C 0.54019 0.29926 0.63956 0.0
C93 C 0.62557 0.31066 0.63472 0.0
O94 O 0.57032 0.27289 0.60839 0.0
O95 O 0.59173 0.27511 0.57828 0.0
O96 O 0.57352 0.34276 0.62622 0.0
O97 O 0.57728 0.32508 0.59104 0.0
Co98 Co 0.02122 0.28284 0.94793 0.0
O99 O 0.05469 0.29159 0.95312 0.0
O100 O 0.03411 0.27313 0.91894 0.0
C101 C 1.01748 0.32084 0.96333 0.0
O102 O 0.98782 0.27266 0.93006 0.0
Co103 Co 0.99096 0.27755 0.97933 0.0
O104 O 0.96631 0.28497 0.95582 0.0
C105 C 1.01348 0.23888 0.97573 0.0
C106 C 0.0541 0.28257 0.9305 0.0
C107 C 0.96902 0.27889 0.93388 0.0
O108 O 0.02338 0.25097 0.96029 0.0
O109 O 0.99854 0.24673 0.98689 0.0
O110 O 0.01997 0.31397 0.94098 0.0
O111 O 1.01639 0.30435 0.97738 0.0
Co112 Co 0.39531 0.02855 0.32639 0.0
O113 O 0.40011 0.06079 0.3332 0.0
O114 O 0.36749 0.03616 0.31596 0.0
C115 C 0.41256 0.02492 0.36216 0.0
O116 O 0.38493 0.99495 0.31753 0.0
Co117 Co 0.4382 1.0052 0.32664 0.0
O118 O 0.41443 0.97652 0.31906 0.0
C119 C 0.42623 0.03409 0.29179 0.0
C120 C 0.37869 0.05697 0.32428 0.0
C121 C 0.39324 0.9769 0.31509 0.0
O122 O 0.40502 0.03051 0.29351 0.0
O123 O 0.44045 0.03436 0.31076 0.0
O124 O 0.39118 0.02631 0.36028 0.0
O125 O 0.42272 0.02688 0.34299 0.0
Co126 Co 0.28192 0.18423 0.51407 0.0
O127 O 0.31479 0.192 0.5151 0.0
O128 O 0.29509 0.15905 0.5233 0.0
C129 C 0.27618 0.19698 0.47623 0.0
O130 O 0.24904 0.16719 0.51446 0.0
Co131 Co 0.25016 0.21511 0.51379 0.0
O132 O 0.22336 0.18881 0.50824 0.0
C133 C 0.27648 0.21362 0.56133 0.0
C134 C 0.31466 0.17139 0.52067 0.0
C135 C 0.22819 0.16948 0.51144 0.0
O136 O 0.28431 0.19726 0.55021 0.0
O137 O 0.26343 0.22455 0.54963 0.0
O138 O 0.27892 0.17629 0.47872 0.0
O139 O 0.27623 0.21002 0.49679 0.0
Co140 Co 0.15297 0.05485 0.80466 0.0
O141 O 0.14439 0.02173 0.80054 0.0
O142 O 0.17815 0.04178 0.79515 0.0
C143 C 0.13889 0.05908 0.84193 0.0
O144 O 0.16959 0.08893 0.80741 0.0
Co145 Co 0.11876 0.08598 0.80788 0.0
O146 O 0.14514 0.11237 0.81311 0.0
C147 C 0.12209 0.06123 0.75926 0.0
C148 C 0.16494 0.02191 0.7954 0.0
C149 C 0.16513 0.10927 0.81053 0.0
O150 O 0.14038 0.05505 0.76839 0.0
O151 O 0.10993 0.07116 0.77286 0.0
O152 O 0.15924 0.05516 0.8407 0.0
O153 O 0.12739 0.05966 0.8209 0.0
Co154 Co 0.31142 0.94536 0.99527 0.0
O155 O 0.28034 0.94386 0.99554 0.0
O156 O 0.30816 0.97543 0.00738 0.0
C157 C 0.30718 0.9264 0.95838 0.0
O158 O 0.34505 0.95188 0.9968 0.0
Co159 Co 0.32715 0.89783 0.99038 0.0
O160 O 0.35768 0.91854 0.9962 0.0
C161 C 0.30852 0.91534 0.03241 0.0
C162 C 0.28656 0.96566 1.0035 0.0
C163 C 0.36094 0.94048 0.99844 0.0
O164 O 0.31446 0.93629 0.02888 0.0
O165 O 0.30432 0.89912 0.01441 0.0
O166 O 0.30801 0.94843 0.96046 0.0
O167 O 0.30716 0.91677 0.97801 0.0
Co168 Co 0.31075 0.39867 0.04274 0.0
O169 O 0.27808 0.38911 0.03697 0.0
O170 O 0.29706 0.42448 0.05169 0.0
C171 C 0.31554 0.38064 0.00532 0.0
O172 O 0.34382 0.41649 0.05008 0.0
Co173 Co 0.3437 0.36654 0.04523 0.0
O174 O 0.3672 0.39313 0.03996 0.0
C175 C 0.31711 0.37249 0.08662 0.0
C176 C 0.27758 0.41037 0.04457 0.0
C177 C 0.36353 0.41318 0.04562 0.0
O178 O 0.31059 0.38956 0.07747 0.0
O179 O 0.32898 0.36003 0.0755 0.0
O180 O 0.31114 0.4012 0.0075 0.0
O181 O 0.31659 0.37148 0.02554 0.0
Co182 Co 0.78305 0.13744 0.06444 0.0
O183 O 0.81524 0.14485 0.07337 0.0
O184 O 0.79297 0.10952 0.06721 0.0
C185 C 0.7828 0.16042 0.03537 0.0
O186 O 0.74988 0.12381 0.05494 0.0
Co187 Co 0.75274 0.17411 0.06839 0.0
O188 O 0.73333 0.15171 0.04201 0.0
C189 C 0.76831 0.15395 0.11091 0.0
C190 C 0.81317 0.12274 0.07267 0.0
C191 C 0.73385 0.1306 0.04257 0.0
O192 O 0.77921 0.14073 0.09964 0.0
O193 O 0.75149 0.16078 0.10011 0.0
O194 O 0.78663 0.13983 0.03015 0.0
O195 O 0.78048 0.16671 0.05791 0.0
Co196 Co 0.19725 0.55217 0.25855 0.0
O197 O 0.19715 0.52023 0.25116 0.0
O198 O 0.22607 0.54967 0.24976 0.0
C199 C 0.18155 0.54827 0.29252 0.0
O200 O 0.20468 0.58632 0.26505 0.0
Co201 Co 0.15427 0.57295 0.26478 0.0
O202 O 0.17556 0.60331 0.27254 0.0
C203 C 0.1661 0.55701 0.21579 0.0
C204 C 0.2184 0.52767 0.24846 0.0
C205 C 0.19646 0.60408 0.2703 0.0
O206 O 0.18569 0.55395 0.22427 0.0
O207 O 0.15089 0.56173 0.22886 0.0
O208 O 0.20347 0.55014 0.29334 0.0
O209 O 0.16983 0.54839 0.27162 0.0
Co210 Co 0.81016 0.8982 0.54397 0.0
O211 O 0.77704 0.89463 0.53904 0.0
O212 O 0.80192 0.92545 0.5581 0.0
C213 C 0.81198 0.88429 0.50348 0.0
O214 O 0.84426 0.91237 0.55193 0.0
Co215 Co 0.83946 0.86411 0.53794 0.0
O216 O 0.86447 0.88981 0.53365 0.0
C217 C 0.8159 0.86657 0.58273 0.0
C218 C 0.78102 0.91592 0.54951 0.0
C219 C 0.86277 0.90941 0.54381 0.0
O220 O 0.80899 0.8846 0.57657 0.0
O221 O 0.82747 0.85578 0.56914 0.0
O222 O 0.81082 0.90549 0.51037 0.0
O223 O 0.81209 0.87156 0.5211 0.0
Co224 Co 0.93961 0.02697 0.27575 0.0
O225 O 0.94265 0.06036 0.27968 0.0
O226 O 0.91084 0.03463 0.26597 0.0
C227 C 0.95955 0.02621 0.31379 0.0
O228 O 0.9266 0.99198 0.27059 0.0
Co229 Co 0.97835 1.00149 0.27527 0.0
O230 O 0.95527 0.9743 0.27944 0.0
C231 C 0.96613 0.02263 0.23132 0.0
C232 C 0.92077 0.05602 0.27239 0.0
C233 C 0.93397 0.97378 0.27484 0.0
O234 O 0.94847 0.02742 0.24072 0.0
O235 O 0.98073 0.0133 0.24294 0.0
O236 O 0.93802 0.02712 0.31141 0.0
O237 O 0.96853 0.02668 0.29357 0.0
Co238 Co 0.28655 0.6398 0.56446 0.0
O239 O 0.31862 0.64727 0.57268 0.0
O240 O 0.2957 0.61432 0.57744 0.0
C241 C 0.28609 0.65217 0.52813 0.0
O242 O 0.25346 0.62662 0.55779 0.0
Co243 Co 0.25935 0.6787 0.55569 0.0
O244 O 0.23297 0.65273 0.54726 0.0
C245 C 0.28591 0.67556 0.6025 0.0
C246 C 0.3162 0.62669 0.57898 0.0
C247 C 0.23468 0.63239 0.55096 0.0
O248 O 0.28325 0.65385 0.59721 0.0
O249 O 0.28002 0.68888 0.58747 0.0
O250 O 0.28958 0.63154 0.52988 0.0
O251 O 0.28464 0.66456 0.54823 0.0
Co252 Co 0.44243 0.52727 0.77625 0.0
O253 O 0.45014 0.56059 0.78019 0.0
O254 O 0.41608 0.5391 0.76517 0.0
C255 C 0.45999 0.52373 0.81445 0.0
O256 O 0.42543 0.49373 0.77114 0.0
Co257 Co 0.47435 0.49508 0.77438 0.0
O258 O 0.44869 0.46928 0.77647 0.0
C259 C 0.46774 0.51927 0.73171 0.0
C260 C 0.42898 0.55939 0.77115 0.0
C261 C 0.42871 0.47336 0.77326 0.0
O262 O 0.45147 0.52639 0.74158 0.0
O263 O 0.48006 0.50712 0.74251 0.0
O264 O 0.43963 0.52818 0.8113 0.0
O265 O 0.46988 0.52266 0.79471 0.0
Co266 Co 0.70073 0.05393 0.75812 0.0
O267 O 0.69756 0.02208 0.75382 0.0
O268 O 0.72777 0.0471 0.74607 0.0
C269 C 0.68911 0.05613 0.79459 0.0
O270 O 0.70792 0.08823 0.76113 0.0
Co271 Co 0.65444 0.07115 0.76206 0.0
O272 O 0.67573 0.10151 0.7671 0.0
C273 C 0.66447 0.04652 0.71883 0.0
C274 C 0.71746 0.02583 0.74648 0.0
C275 C 0.69694 0.1044 0.76492 0.0
O276 O 0.68591 0.05256 0.72465 0.0
O277 O 0.65102 0.04472 0.73511 0.0
O278 O 0.71041 0.05562 0.79304 0.0
O279 O 0.67559 0.05306 0.77426 0.0
Co280 Co 0.78201 0.68238 0.01319 0.0
O281 O 0.81484 0.69122 0.01545 0.0
O282 O 0.79575 0.65661 0.01995 0.0
C283 C 0.77594 0.69923 0.97799 0.0
O284 O 0.74858 0.66529 0.01241 0.0
Co285 Co 0.75028 0.71593 0.0159 0.0
O286 O 0.72431 0.68936 0.01142 0.0
C287 C 0.77634 0.70928 0.0622 0.0
C288 C 0.81522 0.6703 0.01962 0.0
C289 C 0.72819 0.66921 0.01181 0.0
O290 O 0.78427 0.69342 0.0501 0.0
O291 O 0.76324 0.72094 0.05174 0.0
O292 O 0.77969 0.67841 0.97685 0.0
O293 O 0.776 0.70915 1.00007 0.0
Co294 Co 0.89596 0.5296 0.82544 0.0
O295 O 0.90387 0.56155 0.8284 0.0
O296 O 0.86938 0.5397 0.81287 0.0
C297 C 0.91224 0.52739 0.86251 0.0
O298 O 0.88407 0.49585 0.82052 0.0
Co299 Co 0.93968 0.50721 0.82811 0.0
O300 O 0.91508 0.47921 0.82335 0.0
C301 C 0.92676 0.53205 0.78977 0.0
C302 C 0.88316 0.55982 0.81819 0.0
C303 C 0.89358 0.47843 0.81999 0.0
O304 O 0.90576 0.52725 0.79244 0.0
O305 O 0.94212 0.5336 0.80805 0.0
O306 O 0.89163 0.53125 0.85995 0.0
O307 O 0.92244 0.52751 0.84333 0.0
Co308 Co 0.81001 0.44063 0.4984 0.0
O309 O 0.77819 0.43098 0.49412 0.0
O310 O 0.79785 0.4662 0.51057 0.0
C311 C 0.81352 0.42591 0.46104 0.0
O312 O 0.84308 0.45522 0.50454 0.0
Co313 Co 0.83698 0.40059 0.49488 0.0
O314 O 0.86142 0.4271 0.49233 0.0
C315 C 0.81122 0.40928 0.53573 0.0
C316 C 0.77838 0.45174 0.50379 0.0
C317 C 0.86079 0.44808 0.49901 0.0
O318 O 0.8115 0.42981 0.5311 0.0
O319 O 0.81827 0.39413 0.52207 0.0
O320 O 0.80905 0.44637 0.46452 0.0
O321 O 0.81384 0.41475 0.47972 0.0
Co322 Co 0.65288 0.55532 0.30568 0.0
O323 O 0.64544 0.52213 0.30427 0.0
O324 O 0.67852 0.54279 0.29765 0.0
C325 C 0.63753 0.56093 0.34172 0.0
O326 O 0.6692 0.58882 0.30612 0.0
Co327 Co 0.62045 0.58825 0.30654 0.0
O328 O 0.64711 0.61452 0.31135 0.0
C329 C 0.62412 0.56164 0.25876 0.0
C330 C 0.66629 0.52289 0.29968 0.0
C331 C 0.66646 0.60973 0.30878 0.0
O332 O 0.64082 0.55368 0.26908 0.0
O333 O 0.61302 0.57413 0.27104 0.0
O334 O 0.65824 0.5575 0.34201 0.0
O335 O 0.62697 0.56116 0.32008 0.0
C336 C 1.00022 0.97826 0.99113 0.0
C337 C 0.98114 0.95629 0.02035 0.0
C338 C 0.9948 0.97667 0.015 0.0
C339 C 0.9727 0.93781 1.0016 0.0
C340 C 0.99184 0.95956 0.97239 0.0
C341 C 0.97797 0.93946 0.97772 0.0
N342 N 1.01306 0.99821 0.98608 0.0
C343 C 0.01843 1.00039 0.96292 0.0
C344 C 0.99725 0.96172 0.94863 0.0
C345 C 1.01071 0.98215 0.94393 0.0
Gd346 Gd 0.07637 0.05202 0.05332 0.0
Gd347 Gd 0.01847 0.02878 0.01779 0.0
N348 N 1.00244 0.9951 0.03278 0.0
C349 C 0.97587 0.95522 0.04432 0.0
C350 C 0.9966 0.99435 0.05588 0.0
C351 C 0.9837 0.97433 0.06217 0.0
H352 H 1.0008 1.00929 0.06924 0.0
H353 H 0.97921 0.97392 0.08059 0.0
H354 H 0.10825 0.06747 0.00977 0.0
H355 H 0.02749 0.01651 0.95853 0.0
H356 H 0.13233 0.10238 0.99943 0.0
H357 H 0.96541 0.93987 0.04911 0.0
H358 H 0.96192 0.92218 0.00535 0.0
H359 H 0.06763 0.06402 0.11265 0.0
H360 H 0.99096 0.94778 0.93373 0.0
H361 H 1.01467 0.98408 0.92553 0.0
H362 H 0.13758 0.15813 0.0703 0.0
H363 H 0.97117 0.92506 0.96345 0.0
H364 H 0.101 0.13361 0.13831 0.0
H365 H 0.07763 0.09673 0.14549 0.0
N366 N 0.08321 0.08253 0.08587 0.0
C367 C 0.09699 0.10237 0.08192 0.0
C368 C 0.07666 0.08027 0.10857 0.0
C369 C 0.09609 0.11944 0.12346 0.0
C370 C 0.0828 0.0987 0.12755 0.0
C371 C 0.10357 0.12143 0.10055 0.0
H372 H 0.12306 0.15641 0.1101 0.0
N373 N 0.09995 0.08424 0.04245 0.0
C374 C 0.10563 0.10321 0.05963 0.0
C375 C 0.12946 0.12318 0.03291 0.0
C376 C 0.12048 0.12327 0.05524 0.0
C377 C 0.11034 0.08339 0.02175 0.0
C378 C 0.12463 0.10301 0.01624 0.0
O379 O 0.04084 1.00139 0.02595 0.0
O380 O 0.06074 0.01634 0.06329 0.0
O381 O 0.10451 0.03581 0.04563 0.0
O382 O 0.10336 0.05338 0.08275 0.0
O383 O 0.01936 0.04944 0.05527 0.0
O384 O 0.04926 0.03905 0.0762 0.0
O385 O 0.06028 0.08204 0.04025 0.0
O386 O 0.02773 0.06723 0.01251 0.0
O387 O 0.98472 0.03163 0.02576 0.0
O388 O 0.99141 0.02586 0.988 0.0
O389 O 0.0751 0.03728 0.01266 0.0
O390 O 0.04258 0.04526 0.99345 0.0
C391 C 0.05192 0.99808 0.04705 0.0
C392 C 0.03019 0.04633 0.07612 0.0
C393 C 0.13535 0.03605 0.0776 0.0
C394 C 0.16977 0.02448 0.06891 0.0
C395 C 0.16177 0.02894 0.11087 0.0
C396 C 0.14142 0.03544 0.10278 0.0
C397 C 0.17595 0.02323 0.09386 0.0
C398 C 0.14962 0.03079 0.06079 0.0
C399 C 0.11408 0.04179 0.06847 0.0
C400 C 0.12626 0.14256 0.07339 0.0
C401 C 0.11795 0.14159 0.09603 0.0
H402 H 0.14079 0.13829 0.02878 0.0
C403 C 0.0432 0.08511 0.02424 0.0
C404 C 0.06363 0.04272 0.99312 0.0
C405 C 0.96386 0.04752 0.99596 0.0
C406 C 0.93694 0.07096 0.00631 0.0
C407 C 0.94977 0.07029 0.9662 0.0
C408 C 0.96338 0.05485 0.97257 0.0
C409 C 0.93649 0.0783 0.98297 0.0
C410 C 0.9507 0.05575 0.01278 0.0
C411 C 0.97681 0.03029 1.00255 0.0
H412 H 0.16647 0.02823 0.1302 0.0
H413 H 0.13037 0.03964 0.11605 0.0
H414 H 0.19169 0.01806 0.10007 0.0
H415 H 0.14506 0.03139 0.04131 0.0
H416 H 0.94925 0.07578 0.94815 0.0
H417 H 0.97326 0.04848 0.95911 0.0
H418 H 0.92566 0.08999 0.97764 0.0
H419 H 0.95036 0.04956 0.03055 0.0
C420 C 0.32858 0.75329 0.22539 0.0
C421 C 0.29779 0.73516 0.19321 0.0
C422 C 0.30771 0.75322 0.21227 0.0
C423 C 0.30887 0.71679 0.18835 0.0
C424 C 0.34026 0.73541 0.22001 0.0
C425 C 0.33012 0.71695 0.20169 0.0
N426 N 0.33743 0.77088 0.24361 0.0
C427 C 0.35853 0.77248 0.2563 0.0
C428 C 0.36173 0.73662 0.2333 0.0
C429 C 0.37104 0.75542 0.2513 0.0
Gd430 Gd 0.27575 0.79169 0.31665 0.0
Gd431 Gd 0.31359 0.79579 0.25498 0.0
N432 N 0.29711 0.77084 0.21818 0.0
C433 C 0.27701 0.73608 0.1797 0.0
C434 C 0.27787 0.77278 0.20351 0.0
C435 C 0.26729 0.75524 0.18453 0.0
H436 H 0.27045 0.7878 0.20593 0.0
H437 H 0.25168 0.7566 0.17354 0.0
H438 H 0.32462 0.80298 0.35956 0.0
H439 H 0.36562 0.78673 0.27056 0.0
H440 H 0.34445 0.83423 0.39111 0.0
H441 H 0.26872 0.72246 0.16509 0.0
H442 H 0.30131 0.70255 0.17412 0.0
H443 H 0.22392 0.80236 0.30303 0.0
H444 H 0.37131 0.72326 0.2297 0.0
H445 H 0.38771 0.75661 0.26156 0.0
H446 H 0.29104 0.88355 0.4005 0.0
H447 H 0.33864 0.70283 0.19755 0.0
H448 H 0.21862 0.86281 0.34955 0.0
H449 H 0.20181 0.8314 0.31574 0.0
N450 N 0.25261 0.81674 0.32994 0.0
C451 C 0.26187 0.83337 0.3492 0.0
C452 C 0.23128 0.81577 0.31809 0.0
C453 C 0.22823 0.84984 0.34441 0.0
C454 C 0.21871 0.83219 0.32524 0.0
C455 C 0.25011 0.85071 0.35653 0.0
H456 H 0.25206 0.8823 0.38084 0.0
N457 N 0.29521 0.81758 0.35189 0.0
C458 C 0.2839 0.83399 0.36033 0.0
C459 C 0.31683 0.85241 0.38977 0.0
C460 C 0.29462 0.85209 0.37906 0.0
C461 C 0.31627 0.817 0.36373 0.0
C462 C 0.32753 0.83457 0.38235 0.0
O463 O 0.30714 0.76153 0.26799 0.0
O464 O 0.27496 0.7682 0.28173 0.0
O465 O 0.27706 0.76441 0.33864 0.0
O466 O 0.24437 0.77228 0.32589 0.0
O467 O 0.27588 0.79988 0.24742 0.0
O468 O 0.25361 0.7909 0.27925 0.0
O469 O 0.28581 0.82843 0.3117 0.0
O470 O 0.29859 0.80751 0.28554 0.0
O471 O 0.31152 0.82363 0.23411 0.0
O472 O 0.34436 0.82107 0.25289 0.0
O473 O 0.31228 0.78385 0.32038 0.0
O474 O 0.33606 0.80051 0.29302 0.0
C475 C 0.28933 0.75462 0.2788 0.0
C476 C 0.25608 0.79659 0.25674 0.0
C477 C 0.24776 0.75671 0.36315 0.0
C478 C 0.25444 0.74209 0.40175 0.0
C479 C 0.21794 0.75203 0.38936 0.0
C480 C 0.22559 0.75835 0.3677 0.0
C481 C 0.23216 0.74367 0.40624 0.0
C482 C 0.26223 0.74904 0.38046 0.0
C483 C 0.2551 0.76014 0.33936 0.0
C484 C 0.28298 0.86944 0.38631 0.0
C485 C 0.26076 0.8687 0.37515 0.0
H486 H 0.32569 0.86609 0.40407 0.0
C487 C 0.29678 0.828 0.29348 0.0
C488 C 0.33284 0.79067 0.31338 0.0
C489 C 0.34392 0.83985 0.2172 0.0
C490 C 0.34088 0.84896 0.1755 0.0
C491 C 0.37744 0.85933 0.20167 0.0
C492 C 0.36732 0.84972 0.22062 0.0
C493 C 0.36429 0.85912 0.17929 0.0
C494 C 0.33059 0.83953 0.1945 0.0
C495 C 0.33334 0.83209 0.23816 0.0
H496 H 0.20073 0.75291 0.39272 0.0
H497 H 0.214 0.76391 0.3543 0.0
H498 H 0.22543 0.73771 0.42233 0.0
H499 H 0.27932 0.74758 0.37698 0.0
H500 H 0.39546 0.86709 0.20438 0.0
H501 H 0.37768 0.85039 0.23811 0.0
H502 H 0.37246 0.86676 0.16475 0.0
H503 H 0.31246 0.83201 0.19148 0.0
C504 C 0.59585 0.08359 0.49713 0.0
C505 C 0.62376 0.1099 0.52788 0.0
C506 C 0.60705 0.08943 0.52125 0.0
C507 C 0.62893 0.1246 0.51023 0.0
C508 C 0.6014 0.09827 0.47936 0.0
C509 C 0.61778 0.11884 0.4861 0.0
N510 N 0.58014 0.0634 0.49089 0.0
C511 C 0.57087 0.05622 0.46692 0.0
C512 C 0.59068 0.09168 0.45516 0.0
C513 C 0.57555 0.07047 0.44888 0.0
Gd514 Gd 0.51493 0.0379 0.5507 0.0
Gd515 Gd 0.57536 0.04123 0.52322 0.0
N516 N 0.6013 0.07533 0.53836 0.0
C517 C 0.63489 0.11493 0.55207 0.0
C518 C 0.61327 0.07927 0.56132 0.0
C519 C 0.62982 0.09937 0.56878 0.0
H520 H 0.61075 0.06654 0.57346 0.0
H521 H 0.63902 0.10257 0.58721 0.0
H522 H 0.47858 0.01326 0.50109 0.0
H523 H 0.56035 0.03929 0.46125 0.0
H524 H 0.44756 0.97834 0.48944 0.0
H525 H 0.64785 0.13048 0.55784 0.0
H526 H 0.64167 0.14043 0.51502 0.0
H527 H 0.53252 0.03904 0.61219 0.0
H528 H 0.59448 0.10253 0.44102 0.0
H529 H 0.56784 0.06486 0.43001 0.0
H530 H 0.4482 0.93951 0.56073 0.0
H531 H 0.62218 0.1303 0.47266 0.0
H532 H 0.49867 0.97607 0.63305 0.0
H533 H 0.52597 0.01338 0.64339 0.0
N534 N 0.51123 0.01548 0.58299 0.0
C535 C 0.49519 0.99553 0.57719 0.0
C536 C 0.5216 0.0223 0.60667 0.0
C537 C 0.502 0.98699 0.61887 0.0
C538 C 0.5175 1.00798 0.62476 0.0
C539 C 0.49031 0.98072 0.59503 0.0
H540 H 0.46965 0.94885 0.60226 0.0
N541 N 0.48778 1.00459 0.53648 0.0
C542 C 0.48294 0.99014 0.55354 0.0
C543 C 0.45329 0.96564 0.52395 0.0
C544 C 0.46579 0.97 0.54748 0.0
C545 C 0.47536 1.00083 0.51376 0.0
C546 C 0.45787 0.98127 0.50719 0.0
O547 O 0.56629 0.07664 0.53668 0.0
O548 O 0.53458 0.07561 0.55749 0.0
O549 O 0.48467 0.05159 0.53752 0.0
O550 O 0.49545 0.05042 0.57675 0.0
O551 O 0.56623 0.02918 0.55833 0.0
O552 O 0.54543 0.05193 0.57675 0.0
O553 O 0.5242 1.00221 0.5377 0.0
O554 O 0.55392 1.00418 0.5134 0.0
O555 O 0.6035 0.02629 0.53838 0.0
O556 O 0.60081 0.03452 0.50092 0.0
O557 O 0.52426 0.04959 0.51567 0.0
O558 O 0.54485 0.02737 0.49608 0.0
C559 C 0.55244 0.08727 0.54895 0.0
C560 C 0.56365 0.04356 0.57671 0.0
C561 C 0.46312 0.06733 0.56872 0.0
C562 C 0.43362 0.08939 0.56195 0.0
C563 C 0.4451 0.08127 0.60301 0.0
C564 C 0.46073 0.06932 0.59391 0.0
C565 C 0.43161 0.09127 0.58716 0.0
C566 C 0.44953 0.07752 0.55266 0.0
C567 C 0.4814 0.05657 0.56039 0.0
C568 C 0.46131 0.95509 0.56512 0.0
C569 C 0.47355 0.9604 0.58877 0.0
H570 H 0.43974 0.9505 0.51872 0.0
C571 C 0.53702 0.99214 0.52328 0.0
C572 C 0.52641 0.03552 0.49684 0.0
C573 C 0.62128 1.00599 0.50891 0.0
C574 C 0.65234 0.98563 0.51233 0.0
C575 C 0.62472 0.97731 0.47551 0.0
C576 C 0.61314 0.99348 0.48547 0.0
C577 C 0.64432 0.97342 0.48886 0.0
C578 C 0.64084 1.00188 0.52238 0.0
C579 C 0.61216 0.02594 0.51769 0.0
H580 H 0.44355 0.08289 0.62243 0.0
H581 H 0.47119 0.06193 0.60679 0.0
H582 H 0.41962 0.10067 0.59464 0.0
H583 H 0.4514 0.07642 0.53329 0.0
H584 H 0.61878 0.96815 0.45723 0.0
H585 H 0.59832 0.99673 0.47448 0.0
H586 H 0.65356 0.96129 0.4807 0.0
H587 H 0.64768 1.01199 0.5401 0.0
C588 C 0.24572 0.31153 0.73015 0.0
C589 C 0.22319 0.27598 0.7069 0.0
C590 C 0.23791 0.28774 0.72793 0.0
C591 C 0.21691 0.28826 0.68786 0.0
C592 C 0.2393 0.32389 0.71111 0.0
C593 C 0.22504 0.3121 0.6899 0.0
N594 N 0.25903 0.32266 0.75115 0.0
C595 C 0.26559 0.34607 0.75472 0.0
C596 C 0.24702 0.34782 0.71416 0.0
C597 C 0.2601 0.35897 0.73614 0.0
Gd598 Gd 0.32654 0.27967 0.78955 0.0
Gd599 Gd 0.26674 0.29916 0.78084 0.0
N600 N 0.24461 0.27614 0.74643 0.0
C601 C 0.2149 0.25226 0.70582 0.0
C602 C 0.23588 0.25327 0.74595 0.0
C603 C 0.22111 0.24091 0.72553 0.0
H604 H 0.23982 0.24464 0.76146 0.0
H605 H 0.21429 0.2227 0.72515 0.0
H606 H 0.35573 0.33309 0.80993 0.0
H607 H 0.27431 0.35491 0.77217 0.0
H608 H 0.38209 0.35387 0.8461 0.0
H609 H 0.20337 0.24265 0.69006 0.0
H610 H 0.20563 0.27949 0.67154 0.0
H611 H 0.31762 0.22325 0.79673 0.0
H612 H 0.24251 0.35791 0.69992 0.0
H613 H 0.26555 0.37754 0.73899 0.0
H614 H 0.38956 0.29542 0.89788 0.0
H615 H 0.2199 0.32134 0.67512 0.0
H616 H 0.35041 0.21799 0.86794 0.0
H617 H 0.3264 0.19969 0.82896 0.0
N618 N 0.33467 0.25505 0.8181 0.0
C619 C 0.34831 0.26541 0.83921 0.0
C620 C 0.32726 0.23168 0.81404 0.0
C621 C 0.34612 0.22857 0.8541 0.0
C622 C 0.33253 0.21817 0.83213 0.0
C623 C 0.35452 0.2524 0.8577 0.0
H624 H 0.37417 0.25369 0.89334 0.0
N625 N 0.35004 0.30127 0.82412 0.0
C626 C 0.35665 0.28908 0.84206 0.0
C627 C 0.38076 0.32379 0.86468 0.0
C628 C 0.37183 0.30014 0.86309 0.0
C629 C 0.35949 0.32404 0.82505 0.0
C630 C 0.37475 0.33573 0.84542 0.0
O631 O 0.28193 0.28702 0.74597 0.0
O632 O 0.30242 0.26004 0.75704 0.0
O633 O 0.3517 0.29259 0.76596 0.0
O634 O 0.35474 0.26277 0.78404 0.0
O635 O 0.27231 0.27003 0.8019 0.0
O636 O 0.29536 0.24965 0.78316 0.0
O637 O 0.31353 0.29309 0.82454 0.0
O638 O 0.28858 0.31746 0.81643 0.0
O639 O 0.23798 0.2843 0.79903 0.0
O640 O 0.23988 0.31778 0.78695 0.0
O641 O 0.32398 0.3127 0.77295 0.0
O642 O 0.29658 0.32915 0.78972 0.0
C643 C 0.29132 0.26914 0.74018 0.0
C644 C 0.27675 0.25022 0.7936 0.0
C645 C 0.37337 0.26676 0.74861 0.0
C646 C 0.40475 0.26792 0.72369 0.0
C647 C 0.37446 0.23375 0.71923 0.0
C648 C 0.36371 0.24434 0.73705 0.0
C649 C 0.39482 0.24541 0.71263 0.0
C650 C 0.39398 0.27861 0.74183 0.0
C651 C 0.36356 0.27684 0.76957 0.0
C652 C 0.37794 0.28722 0.88157 0.0
C653 C 0.36919 0.26345 0.87896 0.0
H654 H 0.39265 0.33287 0.88042 0.0
C655 C 0.30221 0.30895 0.83176 0.0
C656 C 0.31643 0.33097 0.78143 0.0
C657 C 0.21992 0.31085 0.82082 0.0
C658 C 0.18871 0.31094 0.84579 0.0
C659 C 0.22385 0.33995 0.85623 0.0
C660 C 0.23286 0.33021 0.83639 0.0
C661 C 0.20196 0.33046 0.86086 0.0
C662 C 0.19778 0.30106 0.82568 0.0
C663 C 0.2286 0.30223 0.79833 0.0
H664 H 0.36721 0.21626 0.71082 0.0
H665 H 0.34815 0.23478 0.74223 0.0
H666 H 0.40324 0.23658 0.6993 0.0
H667 H 0.40203 0.29561 0.75126 0.0
H668 H 0.23373 0.35518 0.86782 0.0
H669 H 0.24975 0.33815 0.83289 0.0
H670 H 0.19505 0.33872 0.87594 0.0
H671 H 0.18737 0.28654 0.81337 0.0
C672 C 0.02548 0.09564 0.58191 0.0
C673 C 0.06011 0.12191 0.60209 0.0
C674 C 0.04856 0.10497 0.58258 0.0
C675 C 0.04821 0.12907 0.62101 0.0
C676 C 1.01341 0.10313 0.60068 0.0
C677 C 0.02494 0.11969 0.62031 0.0
N678 N 1.01482 0.07935 0.5629 0.0
C679 C 0.99175 0.07129 0.56056 0.0
C680 C 0.99002 0.09392 0.59905 0.0
C681 C 0.9791 0.07818 0.57873 0.0
Gd682 Gd 0.05746 1.00785 0.52979 0.0
Gd683 Gd 0.03795 0.06897 0.53367 0.0
N684 N 0.05996 0.09674 0.5648 0.0
C685 C 0.0834 0.13077 0.60225 0.0
C686 C 0.08223 0.10645 0.564 0.0
C687 C 0.09443 0.12322 0.58292 0.0
H688 H 0.09041 0.10191 0.54844 0.0
H689 H 0.11224 0.13055 0.58238 0.0
H690 H 1.00786 0.97221 0.51281 0.0
H691 H 0.98282 0.0599 0.54448 0.0
H692 H 0.98683 0.94629 0.47573 0.0
H693 H 0.0929 0.14371 0.61695 0.0
H694 H 0.05686 0.14186 0.63626 0.0
H695 H 0.11297 0.02158 0.52113 0.0
H696 H 0.98016 0.09924 0.61309 0.0
H697 H 0.96089 0.07148 0.57692 0.0
H698 H 0.04302 0.94673 0.42049 0.0
H699 H 1.01596 0.12549 0.63498 0.0
H700 H 0.11854 0.99052 0.44918 0.0
H701 H 0.13625 0.01501 0.48815 0.0
N702 N 0.08184 1.00274 0.50028 0.0
C703 C 0.07186 0.9887 0.47922 0.0
C704 C 0.10475 1.01174 0.50384 0.0
C705 C 0.10806 0.99382 0.46337 0.0
C706 C 0.11812 1.0077 0.48533 0.0
C707 C 0.08473 0.98386 0.46021 0.0
H708 H 0.08372 0.96503 0.42412 0.0
N709 N 0.03679 0.98338 0.49569 0.0
C710 C 0.04874 0.9786 0.47695 0.0
C711 C 1.01532 0.95206 0.45519 0.0
C712 C 0.03816 0.96311 0.45594 0.0
C713 C 1.01544 0.97106 0.49612 0.0
C714 C 1.00403 0.95573 0.4756 0.0
O715 O 0.05095 0.05842 0.57083 0.0
O716 O 0.07024 0.02804 0.56741 0.0
O717 O 0.04526 0.97799 0.54813 0.0
O718 O 0.07857 0.98293 0.53594 0.0
O719 O 0.0707 0.06472 0.51819 0.0
O720 O 0.08566 0.03959 0.54075 0.0
O721 O 0.04872 0.02359 0.49451 0.0
O722 O 0.02001 0.04257 0.50161 0.0
O723 O 0.04922 0.09606 0.50998 0.0
O724 O 1.01585 0.091 0.52293 0.0
O725 O 0.02338 1.0084 0.54376 0.0
O726 O 1.00853 0.03811 0.52875 0.0
C727 C 0.06318 0.04443 0.58059 0.0
C728 C 0.0883 0.05807 0.52944 0.0
C729 C 0.07308 0.96004 0.56838 0.0
C730 C 0.06947 0.92953 0.59497 0.0
C731 C 0.10542 0.95685 0.59736 0.0
C732 C 0.0959 0.968 0.57919 0.0
C733 C 0.09233 0.9378 0.60523 0.0
C734 C 0.05986 0.94059 0.57631 0.0
C735 C 0.06393 0.97011 0.547 0.0
C736 C 0.05087 0.95856 0.4368 0.0
C737 C 0.07407 0.96896 0.43891 0.0
H738 H 1.00658 0.93995 0.43942 0.0
C739 C 0.03057 0.03135 0.48643 0.0
C740 C 1.00641 0.01893 0.53884 0.0
C741 C 0.02313 0.12281 0.49991 0.0
C742 C 0.02858 0.15478 0.47529 0.0
C743 C 0.99582 0.14808 0.49746 0.0
C744 C 1.00304 0.12939 0.5063 0.0
C745 C 1.00848 0.16073 0.48216 0.0
C746 C 0.036 0.13563 0.48411 0.0
C747 C 0.02997 0.10298 0.51077 0.0
H748 H 0.12316 0.96279 0.60513 0.0
H749 H 0.10661 0.98254 0.57322 0.0
H750 H 0.10028 0.92905 0.61892 0.0
H751 H 0.04248 0.93374 0.5676 0.0
H752 H 0.98032 0.15283 0.50258 0.0
H753 H 0.99275 0.12015 0.51839 0.0
H754 H 1.00249 0.17525 0.47552 0.0
H755 H 0.05156 0.13099 0.47899 0.0
C756 C 0.25669 0.74291 0.82888 0.0
C757 C 0.23214 0.71073 0.80166 0.0
C758 C 0.25183 0.72854 0.80655 0.0
C759 C 0.21688 0.70816 0.8191 0.0
C760 C 0.24182 0.73964 0.84682 0.0
C761 C 0.22169 0.72259 0.84159 0.0
N762 N 0.27642 0.75922 0.83355 0.0
C763 C 0.28337 0.77081 0.85673 0.0
C764 C 0.24797 0.75307 0.86982 0.0
C765 C 0.26903 0.76838 0.87494 0.0
Gd766 Gd 0.29703 0.82276 0.76824 0.0
Gd767 Gd 0.29777 0.76238 0.80028 0.0
N768 N 0.2664 0.7319 0.78956 0.0
C769 C 0.22826 0.69625 0.77921 0.0
C770 C 0.26361 0.71692 0.76855 0.0
C771 C 0.24427 0.69916 0.76272 0.0
H772 H 0.27674 0.71827 0.7568 0.0
H773 H 0.2419 0.68753 0.74575 0.0
H774 H 0.32374 0.8595 0.8173 0.0
H775 H 0.30008 0.78174 0.86172 0.0
H776 H 0.35978 0.88888 0.82847 0.0
H777 H 0.21325 0.68249 0.7747 0.0
H778 H 0.20147 0.69485 0.8155 0.0
H779 H 0.29009 0.81051 0.70597 0.0
H780 H 0.23701 0.75107 0.88408 0.0
H781 H 0.27442 0.77807 0.89306 0.0
H782 H 0.39431 0.88906 0.75446 0.0
H783 H 0.20998 0.72005 0.85509 0.0
H784 H 0.35163 0.84335 0.68151 0.0
H785 H 0.31317 0.81817 0.6725 0.0
N786 N 0.31593 0.82978 0.73407 0.0
C787 C 0.33641 0.84492 0.73922 0.0
C788 C 0.30709 0.82103 0.71034 0.0
C789 C 0.3417 0.83983 0.69638 0.0
C790 C 0.32001 0.82557 0.69123 0.0
C791 C 0.34997 0.85008 0.72051 0.0
H792 H 0.38179 0.86966 0.7122 0.0
N793 N 0.33017 0.85083 0.78091 0.0
C794 C 0.34354 0.85601 0.76314 0.0
C795 C 0.37032 0.8838 0.79279 0.0
C796 C 0.3643 0.87227 0.76881 0.0
C797 C 0.33539 0.86265 0.80401 0.0
C798 C 0.35559 0.87929 0.8103 0.0
O799 O 0.26137 0.76738 0.78386 0.0
O800 O 0.26137 0.80044 0.76446 0.0
O801 O 0.28541 0.85277 0.78469 0.0
O802 O 0.27642 0.83988 0.74559 0.0
O803 O 0.3078 0.77268 0.76492 0.0
O804 O 0.28648 0.79106 0.74157 0.0
O805 O 0.33322 0.8151 0.77992 0.0
O806 O 0.33311 0.78612 0.80543 0.0
O807 O 0.31288 0.7334 0.78661 0.0
O808 O 0.31624 0.74604 0.82571 0.0
O809 O 0.28701 0.81108 0.80288 0.0
O810 O 0.31029 0.79465 0.82553 0.0
C811 C 0.25053 0.78147 0.77187 0.0
C812 C 0.29383 0.77248 0.74522 0.0
C813 C 0.27414 0.87812 0.75727 0.0
C814 C 0.25243 0.90823 0.75474 0.0
C815 C 0.28308 0.90666 0.72986 0.0
C816 C 0.28737 0.88716 0.73982 0.0
C817 C 0.26553 0.91703 0.73708 0.0
C818 C 0.25701 0.88898 0.76513 0.0
C819 C 0.27453 0.85512 0.76361 0.0
C820 C 0.37819 0.87677 0.75038 0.0
C821 C 0.37106 0.86568 0.72631 0.0
H822 H 0.38602 0.89661 0.79781 0.0
C823 C 0.34391 0.80287 0.79447 0.0
C824 C 0.30184 0.81254 0.8221 0.0
C825 C 0.32426 0.70917 0.81614 0.0
C826 C 0.34452 0.67752 0.8125 0.0
C827 C 0.32467 0.68413 0.8479 0.0
C828 C 0.31783 0.70281 0.83855 0.0
C829 C 0.33781 0.6715 0.83499 0.0
C830 C 0.33746 0.69635 0.80305 0.0
C831 C 0.32135 0.73149 0.80894 0.0
H832 H 0.29289 0.91333 0.71598 0.0
H833 H 0.30029 0.8786 0.73317 0.0
H834 H 0.26189 0.93171 0.72861 0.0
H835 H 0.24619 0.88152 0.7779 0.0
H836 H 0.31996 0.67953 0.86534 0.0
H837 H 0.30814 0.71272 0.84931 0.0
H838 H 0.34256 0.65687 0.84266 0.0
H839 H 0.34319 0.70179 0.78627 0.0
C840 C 0.58975 1.01003 0.09364 0.0
C841 C 0.60842 0.04194 0.12486 0.0
C842 C 0.59066 0.03194 0.10571 0.0
C843 C 0.62513 0.02955 0.13185 0.0
C844 C 0.60634 0.99742 0.10086 0.0
C845 C 0.62405 1.00732 0.11994 0.0
N846 N 0.5728 1.00113 0.07473 0.0
C847 C 0.57068 0.97924 0.06331 0.0
C848 C 0.60464 0.97522 0.08866 0.0
C849 C 0.58659 0.96601 0.06997 0.0
Gd850 Gd 0.54094 0.05752 0.99872 0.0
Gd851 Gd 0.54714 0.02471 0.06461 0.0
N852 N 0.57471 0.04389 0.09782 0.0
C853 C 0.60895 0.06419 0.13629 0.0
C854 C 0.57452 0.06512 0.10978 0.0
C855 C 0.59178 0.07571 0.12888 0.0
H856 H 0.56109 0.07399 0.10494 0.0
H857 H 0.59176 0.09273 0.13797 0.0
H858 H 0.52055 1.00527 0.96347 0.0
H859 H 0.5564 0.97169 0.04953 0.0
H860 H 0.48906 0.98799 0.93114 0.0
H861 H 0.62237 0.0725 0.15102 0.0
H862 H 0.63896 0.03698 0.14647 0.0
H863 H 0.53251 0.10994 0.01735 0.0
H864 H 0.617 0.96494 0.09372 0.0
H865 H 0.58484 0.94868 0.06077 0.0
H866 H 0.44633 0.0473 0.92217 0.0
H867 H 0.63702 0.99792 0.12562 0.0
H868 H 0.47215 0.11926 0.9745 0.0
H869 H 0.50501 0.13425 0.00698 0.0
N870 N 0.51469 0.08098 0.99201 0.0
C871 C 0.49703 0.0725 0.9738 0.0
C872 C 0.51786 0.10291 1.00371 0.0
C873 C 0.484 0.10836 0.97923 0.0
C874 C 0.50247 0.11686 0.99765 0.0
C875 C 0.48112 0.08596 0.967 0.0
H876 H 0.45056 0.08686 0.94273 0.0
N877 N 0.51005 0.03737 0.96963 0.0
C878 C 0.49464 0.05009 0.96226 0.0
C879 C 0.47427 0.01814 0.93233 0.0
C880 C 0.47627 0.04074 0.94354 0.0
C881 C 0.50823 0.01536 0.95854 0.0
C882 C 0.49033 1.00543 0.93986 0.0
O883 O 0.58179 0.04319 0.06127 0.0
O884 O 0.56091 0.04739 0.02916 0.0
O885 O 0.55597 0.05631 0.96508 0.0
O886 O 0.56143 0.08904 0.99 0.0
O887 O 0.53629 0.06015 0.06719 0.0
O888 O 0.54981 0.08123 0.03604 0.0
O889 O 0.50756 0.04785 0.01234 0.0
O890 O 0.52447 0.02282 0.02949 0.0
O891 O 0.52233 0.02824 0.08948 0.0
O892 O 0.53106 0.99443 0.07939 0.0
O893 O 0.55224 0.02224 0.99278 0.0
O894 O 0.54598 1.00191 0.02697 0.0
C895 C 0.58111 0.05209 0.04132 0.0
C896 C 0.54213 0.07982 0.05781 0.0
C897 C 0.5772 0.08989 0.95181 0.0
C898 C 0.60175 0.08775 0.92058 0.0
C899 C 0.58521 0.12139 0.92784 0.0
C900 C 0.57447 0.11172 0.9465 0.0
C901 C 0.59885 0.10941 0.91482 0.0
C902 C 0.59086 0.0779 0.93887 0.0
C903 C 0.56395 0.07847 0.96886 0.0
C904 C 0.4605 0.05419 0.93656 0.0
C905 C 0.46291 0.07672 0.94827 0.0
H906 H 0.46045 1.01039 0.91781 0.0
C907 C 0.50697 0.03252 0.02723 0.0
C908 C 0.55038 1.003 1.00362 0.0
C909 C 0.50351 0.99616 0.10736 0.0
C910 C 0.48523 0.99927 0.14359 0.0
C911 C 0.47477 0.96423 0.11464 0.0
C912 C 0.49102 0.97357 0.10047 0.0
C913 C 0.47184 0.97705 0.13621 0.0
C914 C 0.50058 1.00912 0.12889 0.0
C915 C 0.51926 1.00644 0.09191 0.0
H916 H 0.58299 0.13814 0.92349 0.0
H917 H 0.56356 0.12092 0.95625 0.0
H918 H 0.6075 0.11715 0.90064 0.0
H919 H 0.5932 0.06109 0.94314 0.0
H920 H 0.46486 0.94691 0.10922 0.0
H921 H 0.49355 0.96335 0.08394 0.0
H922 H 0.45997 0.96926 0.14781 0.0
H923 H 0.511 0.02623 0.1348 0.0
C924 C 0.3575 0.34121 0.33121 0.0
C925 C 0.38073 0.35941 0.30262 0.0
C926 C 0.3603 0.34562 0.30739 0.0
C927 C 0.39807 0.36907 0.32213 0.0
C928 C 0.37511 0.35056 0.35075 0.0
C929 C 0.3953 0.3646 0.3461 0.0
N930 N 0.3374 0.32826 0.33535 0.0
C931 C 0.33396 0.32404 0.35864 0.0
C932 C 0.37178 0.34585 0.37451 0.0
C933 C 0.35114 0.33247 0.37844 0.0
Gd934 Gd 0.2818 0.26057 0.26643 0.0
Gd935 Gd 0.30857 0.31992 0.30132 0.0
N936 N 0.34338 0.33579 0.28877 0.0
C937 C 0.38325 0.36287 0.27833 0.0
C938 C 0.34596 0.33874 0.26502 0.0
C939 C 0.36587 0.35228 0.25942 0.0
H940 H 0.3329 0.33041 0.25034 0.0
H941 H 0.36777 0.35458 0.24053 0.0
H942 H 0.26181 0.24144 0.31598 0.0
H943 H 0.31755 0.3156 0.36239 0.0
H944 H 0.22699 0.21839 0.32685 0.0
H945 H 0.39867 0.3734 0.27394 0.0
H946 H 0.4138 0.37985 0.31883 0.0
H947 H 0.27386 0.25665 0.20433 0.0
H948 H 0.38489 0.35275 0.38999 0.0
H949 H 0.34817 0.32925 0.39685 0.0
H950 H 0.17556 0.20219 0.2518 0.0
H951 H 0.40889 0.37211 0.36094 0.0
H952 H 0.20439 0.22423 0.17897 0.0
H953 H 0.24258 0.24248 0.1703 0.0
N954 N 0.25279 0.25011 0.2324 0.0
C955 C 0.23216 0.23903 0.23752 0.0
C956 C 0.25678 0.25054 0.20849 0.0
C957 C 0.21777 0.2315 0.19409 0.0
C958 C 0.23927 0.24183 0.1891 0.0
C959 C 0.21417 0.22938 0.2184 0.0
H960 H 0.17967 0.20921 0.2094 0.0
N961 N 0.24779 0.24312 0.27962 0.0
C962 C 0.22976 0.23503 0.26163 0.0
C963 C 0.2083 0.21586 0.29078 0.0
C964 C 0.20942 0.22139 0.26691 0.0
C965 C 0.24715 0.23653 0.30245 0.0
C966 C 0.22739 0.22318 0.30853 0.0
O967 O 0.3355 0.29856 0.29028 0.0
O968 O 0.31874 0.27173 0.25683 0.0
O969 O 0.29249 0.23034 0.27824 0.0
O970 O 0.27681 0.22983 0.24099 0.0
O971 O 0.29262 0.32131 0.26201 0.0
O972 O 0.29104 0.28593 0.23978 0.0
O973 O 0.25404 0.27866 0.28169 0.0
O974 O 0.27111 0.31136 0.30854 0.0
O975 O 0.30241 0.35198 0.29016 0.0
O976 O 0.31132 0.34919 0.32883 0.0
O977 O 0.3026 0.26357 0.3042 0.0
O978 O 0.29457 0.29435 0.32644 0.0
C979 C 0.33745 0.28376 0.27107 0.0
C980 C 0.29066 0.30799 0.2409 0.0
C981 C 0.30154 0.2053 0.24672 0.0
C982 C 0.32175 0.17529 0.25297 0.0
C983 C 0.32119 0.19084 0.21428 0.0
C984 C 0.30796 0.20599 0.22301 0.0
C985 C 0.32817 0.17544 0.22927 0.0
C986 C 0.30813 0.18984 0.26128 0.0
C987 C 0.28621 0.21868 0.25636 0.0
C988 C 0.19126 0.21269 0.24803 0.0
C989 C 0.19361 0.21672 0.22388 0.0
H990 H 0.19304 0.20529 0.29547 0.0
C991 C 0.25257 0.29648 0.29772 0.0
C992 C 0.29853 0.27345 0.32524 0.0
C993 C 0.28662 0.3736 0.3189 0.0
C994 C 0.2678 0.40472 0.31194 0.0
C995 C 0.25843 0.38231 0.34469 0.0
C996 C 0.27409 0.36887 0.33847 0.0
C997 C 0.25547 0.40049 0.33162 0.0
C998 C 0.28301 0.39115 0.30538 0.0
C999 C 0.30455 0.3617 0.31286 0.0
H1000 H 0.32602 0.19105 0.196 0.0
H1001 H 0.30252 0.21782 0.2112 0.0
H1002 H 0.33866 0.1639 0.22253 0.0
H1003 H 0.30217 0.18882 0.2791 0.0
H1004 H 0.24905 0.37904 0.36 0.0
H1005 H 0.27667 0.35518 0.34916 0.0
H1006 H 0.24407 0.41155 0.33714 0.0
H1007 H 0.29301 0.39513 0.29058 0.0
C1008 C 0.52399 0.59374 0.0849 0.0
C1009 C 0.55669 0.62247 0.10534 0.0
C1010 C 0.54622 0.60549 0.08548 0.0
C1011 C 0.54474 0.62665 0.12526 0.0
C1012 C 0.51149 0.59877 0.10424 0.0
C1013 C 0.52218 0.6148 0.12472 0.0
N1014 N 0.51412 0.57859 0.06464 0.0
C1015 C 0.49111 0.56997 0.06145 0.0
C1016 C 0.48837 0.58828 0.10194 0.0
C1017 C 0.47803 0.57425 0.08021 0.0
Gd1018 Gd 0.55746 0.50878 0.03102 0.0
Gd1019 Gd 0.53819 0.57152 0.03485 0.0
N1020 N 0.55747 0.60062 0.0662 0.0
C1021 C 0.57873 0.63492 0.10434 0.0
C1022 C 0.57826 0.61361 0.06435 0.0
C1023 C 0.58943 0.63068 0.08356 0.0
H1024 H 0.5861 0.61079 0.04793 0.0
H1025 H 0.60621 0.64061 0.08229 0.0
H1026 H 0.50708 0.47338 0.01429 0.0
H1027 H 0.48255 0.55999 0.04437 0.0
H1028 H 0.48627 0.44694 0.97732 0.0
H1029 H 0.5874 0.6481 0.11922 0.0
H1030 H 0.55259 0.6394 0.14086 0.0
H1031 H 0.61282 0.52261 0.02162 0.0
H1032 H 0.47814 0.59172 0.11634 0.0
H1033 H 0.45992 0.56689 0.07776 0.0
H1034 H 0.54265 0.44544 0.92278 0.0
H1035 H 0.5129 0.61868 0.13986 0.0
H1036 H 0.61808 0.48988 0.95031 0.0
H1037 H 0.63585 0.51544 0.98861 0.0
N1038 N 0.58174 0.5027 1.00161 0.0
C1039 C 0.57178 0.48799 0.98101 0.0
C1040 C 0.60456 0.51211 0.00471 0.0
C1041 C 0.60772 0.49329 0.96459 0.0
C1042 C 0.61781 0.50777 0.98616 0.0
C1043 C 0.5845 0.483 0.96189 0.0
H1044 H 0.58329 0.46379 0.92595 0.0
N1045 N 0.53687 0.48281 0.99783 0.0
C1046 C 0.54876 0.47768 0.97912 0.0
C1047 C 0.51514 0.45137 0.95746 0.0
C1048 C 0.53807 0.46205 0.95823 0.0
C1049 C 0.51515 0.47124 0.99801 0.0
C1050 C 0.50372 0.45577 0.97757 0.0
O1051 O 0.55758 0.56463 0.07066 0.0
O1052 O 0.5652 0.5277 0.06957 0.0
O1053 O 0.54606 0.47734 0.04789 0.0
O1054 O 0.58196 0.48912 0.04339 0.0
O1055 O 0.57077 0.56683 0.01918 0.0
O1056 O 0.5856 0.54079 0.0407 0.0
O1057 O 0.54783 0.52292 0.99473 0.0
O1058 O 0.5211 0.54416 1.00345 0.0
O1059 O 0.5489 0.59819 0.01105 0.0
O1060 O 0.51477 0.59151 0.02138 0.0
O1061 O 0.52398 0.50988 0.04543 0.0
O1062 O 0.5097 0.53968 0.02991 0.0
C1063 C 0.56487 0.54798 0.08131 0.0
C1064 C 0.58822 0.55965 0.03007 0.0
C1065 C 0.57366 0.45463 0.06319 0.0
C1066 C 0.56726 0.42247 0.08768 0.0
C1067 C 0.60401 0.43426 0.0734 0.0
C1068 C 0.59603 0.45135 0.06201 0.0
C1069 C 0.58983 0.41998 0.08608 0.0
C1070 C 0.55914 0.44015 0.07634 0.0
C1071 C 0.56693 0.47414 0.0517 0.0
C1072 C 0.55062 0.45733 0.93902 0.0
C1073 C 0.57377 0.46778 0.94084 0.0
H1074 H 0.50628 0.43928 0.94172 0.0
C1075 C 0.5314 0.53351 0.98749 0.0
C1076 C 0.50737 0.52071 0.04038 0.0
C1077 C 0.52481 0.62642 0.0043 0.0
C1078 C 0.52808 0.6576 0.97858 0.0
C1079 C 0.50009 0.65428 0.00711 0.0
C1080 C 0.50729 0.63503 0.01477 0.0
C1081 C 0.51037 0.66547 0.98913 0.0
C1082 C 0.53532 0.63796 0.98612 0.0
C1083 C 0.52869 0.60329 0.00883 0.0
H1084 H 0.62136 0.43214 0.07249 0.0
H1085 H 0.60764 0.46218 0.05238 0.0
H1086 H 0.59671 0.407 0.09499 0.0
H1087 H 0.54191 0.44258 0.07775 0.0
H1088 H 0.4862 0.66032 0.01485 0.0
H1089 H 0.49844 0.62639 0.02829 0.0
H1090 H 0.50427 0.6802 0.98317 0.0
H1091 H 0.54833 0.63125 0.97726 0.0
C1092 C 0.75012 0.24158 0.32514 0.0
C1093 C 0.72331 0.21415 0.29442 0.0
C1094 C 0.74352 0.23113 0.30078 0.0
C1095 C 0.70968 0.20789 0.31262 0.0
C1096 C 0.73643 0.23511 0.3434 0.0
C1097 C 0.71619 0.21835 0.33699 0.0
N1098 N 0.77023 0.25725 0.33115 0.0
C1099 C 0.77785 0.26649 0.35508 0.0
C1100 C 0.74374 0.24526 0.36776 0.0
C1101 C 0.76454 0.26096 0.37361 0.0
Gd1102 Gd 0.80142 0.32263 0.26775 0.0
Gd1103 Gd 0.79185 0.26144 0.29855 0.0
N1104 N 0.75695 0.23736 0.28335 0.0
C1105 C 0.71756 0.20365 0.26996 0.0
C1106 C 0.75176 0.22694 0.25963 0.0
C1107 C 0.73187 0.21006 0.25251 0.0
H1108 H 0.76291 0.23185 0.24626 0.0
H1109 H 0.72764 0.20194 0.23363 0.0
H1110 H 0.82572 0.35403 0.32157 0.0
H1111 H 0.79457 0.27737 0.36032 0.0
H1112 H 0.86092 0.38262 0.33772 0.0
H1113 H 0.70218 0.19051 0.2644 0.0
H1114 H 0.69412 0.19483 0.30807 0.0
H1115 H 0.79908 0.31659 0.20603 0.0
H1116 H 0.73369 0.2407 0.38228 0.0
H1117 H 0.77063 0.26836 0.3925 0.0
H1118 H 0.90058 0.3916 0.26765 0.0
H1119 H 0.70556 0.21313 0.35083 0.0
H1120 H 0.86268 0.35318 0.18934 0.0
H1121 H 0.82443 0.32861 0.17551 0.0
N1122 N 0.82391 0.33167 0.23684 0.0
C1123 C 0.84426 0.34648 0.24489 0.0
C1124 C 0.81628 0.32622 0.21228 0.0
C1125 C 0.85193 0.34732 0.20285 0.0
C1126 C 0.83037 0.33342 0.19495 0.0
C1127 C 0.85886 0.35455 0.22799 0.0
H1128 H 0.89086 0.37659 0.22377 0.0
N1129 N 0.83507 0.34796 0.28593 0.0
C1130 C 0.84979 0.35513 0.2699 0.0
C1131 C 0.87417 0.38133 0.30301 0.0
C1132 C 0.86997 0.37176 0.27823 0.0
C1133 C 0.83837 0.35829 0.30969 0.0
C1134 C 0.85817 0.37477 0.31873 0.0
O1135 O 0.75834 0.27248 0.28223 0.0
O1136 O 0.76601 0.29933 0.25454 0.0
O1137 O 0.78512 0.35041 0.28229 0.0
O1138 O 0.79443 0.34831 0.24565 0.0
O1139 O 0.80366 0.26274 0.26215 0.0
O1140 O 0.79666 0.29196 0.23939 0.0
O1141 O 0.83499 0.31397 0.2854 0.0
O1142 O 0.82965 0.27932 0.30238 0.0
O1143 O 0.80262 0.22998 0.28511 0.0
O1144 O 0.80023 0.23801 0.3237 0.0
O1145 O 0.78527 0.31072 0.29935 0.0
O1146 O 0.80492 0.29319 0.32497 0.0
C1147 C 0.75144 0.28496 0.2652 0.0
C1148 C 0.80273 0.27227 0.24191 0.0
C1149 C 0.76595 0.36917 0.25211 0.0
C1150 C 0.74432 0.39968 0.25573 0.0
C1151 C 0.74178 0.37588 0.21649 0.0
C1152 C 0.75677 0.36351 0.2271 0.0
C1153 C 0.73558 0.39382 0.23064 0.0
C1154 C 0.75946 0.38715 0.26644 0.0
C1155 C 0.78528 0.3595 0.26188 0.0
C1156 C 0.88493 0.37894 0.26151 0.0
C1157 C 0.87941 0.37035 0.23651 0.0
H1158 H 0.8894 0.39429 0.31002 0.0
C1159 C 0.84292 0.29791 0.29658 0.0
C1160 C 0.79696 0.31123 0.32052 0.0
C1161 C 0.82744 0.21594 0.3135 0.0
C1162 C 0.85034 0.1867 0.30776 0.0
C1163 C 0.86191 0.21768 0.3417 0.0
C1164 C 0.84301 0.22684 0.33423 0.0
C1165 C 0.86558 0.19772 0.32855 0.0
C1166 C 0.83122 0.19579 0.30025 0.0
C1167 C 0.80619 0.22408 0.30698 0.0
H1168 H 0.73509 0.37167 0.19718 0.0
H1169 H 0.76171 0.35001 0.21543 0.0
H1170 H 0.72364 0.40293 0.22192 0.0
H1171 H 0.76694 0.39202 0.28553 0.0
H1172 H 0.87352 0.22585 0.35799 0.0
H1173 H 0.84037 0.24217 0.34499 0.0
H1174 H 0.87993 0.19042 0.33508 0.0
H1175 H 0.81896 0.18679 0.28472 0.0
C1176 C 0.08899 0.50889 0.59306 0.0
C1177 C 0.11138 0.54198 0.62026 0.0
C1178 C 0.09194 0.5317 0.6031 0.0
C1179 C 0.12792 0.52916 0.62653 0.0
C1180 C 0.10545 0.49587 0.5994 0.0
C1181 C 0.12496 0.50615 0.61612 0.0
N1182 N 0.0703 0.49958 0.57642 0.0
C1183 C 0.06662 0.47725 0.56583 0.0
C1184 C 0.10192 0.47295 0.58849 0.0
C1185 C 0.08237 0.46359 0.57169 0.0
Gd1186 Gd 0.04751 0.55998 0.50296 0.0
Gd1187 Gd 0.04559 0.52354 0.56523 0.0
N1188 N 0.07572 0.54371 0.59632 0.0
C1189 C 0.11356 0.56476 0.63086 0.0
C1190 C 0.0773 0.56555 0.60797 0.0
C1191 C 0.09624 0.57646 0.62495 0.0
H1192 H 0.06406 0.57491 0.60521 0.0
H1193 H 0.0973 0.59384 0.63371 0.0
H1194 H 0.0397 0.51399 0.45629 0.0
H1195 H 0.05163 0.47007 0.55264 0.0
H1196 H 1.00851 0.49285 0.4252 0.0
H1197 H 0.1282 0.57325 0.64409 0.0
H1198 H 0.14298 0.53683 0.63955 0.0
H1199 H 0.03822 0.61315 0.51289 0.0
H1200 H 0.11419 0.46238 0.59285 0.0
H1201 H 0.07951 0.4459 0.56313 0.0
H1202 H 0.95387 0.54168 0.42224 0.0
H1203 H 0.13785 0.49644 0.62115 0.0
H1204 H 0.97464 0.61571 0.47159 0.0
H1205 H 1.00814 0.63454 0.50206 0.0
N1206 N 0.02189 0.58268 0.48963 0.0
C1207 C 1.00452 0.57262 0.47164 0.0
C1208 C 0.02363 0.60482 0.49997 0.0
C1209 C 0.98792 0.60637 0.47629 0.0
C1210 C 1.00671 0.61701 0.49357 0.0
C1211 C 0.9867 0.58392 0.46496 0.0
H1212 H 0.95424 0.58072 0.44225 0.0
N1213 N 0.02202 0.54043 0.46755 0.0
C1214 C 1.00432 0.55061 0.4606 0.0
C1215 C 0.98742 0.5179 0.43012 0.0
C1216 C 0.9863 0.53939 0.44219 0.0
C1217 C 0.0244 0.52077 0.45369 0.0
C1218 C 1.00688 0.50888 0.43539 0.0
O1219 O 0.07751 0.52531 0.5496 0.0
O1220 O 0.07052 0.55781 0.53722 0.0
O1221 O 0.07368 0.5595 0.47935 0.0
O1222 O 0.06743 0.59208 0.49547 0.0
O1223 O 0.03796 0.5604 0.5716 0.0
O1224 O 0.04997 0.58233 0.5404 0.0
O1225 O 1.01158 0.55331 0.51176 0.0
O1226 O 0.0312 0.53677 0.53426 0.0
O1227 O 0.02622 0.52472 0.595 0.0
O1228 O 0.01955 0.49318 0.56822 0.0
O1229 O 0.05303 0.5221 0.49771 0.0
O1230 O 0.03793 0.50021 0.52756 0.0
C1231 C 0.08358 0.5427 0.53806 0.0
C1232 C 0.0429 0.58037 0.56241 0.0
C1233 C 0.07817 0.58995 0.4557 0.0
C1234 C 0.09005 0.58611 0.41546 0.0
C1235 C 0.07211 0.61771 0.42794 0.0
C1236 C 0.07007 0.60978 0.45063 0.0
C1237 C 0.0823 0.60603 0.4104 0.0
C1238 C 0.08792 0.57811 0.43794 0.0
C1239 C 0.07775 0.58177 0.4796 0.0
C1240 C 0.96803 0.5502 0.43607 0.0
C1241 C 0.96826 0.57245 0.44739 0.0
H1242 H 0.97388 0.50866 0.41594 0.0
C1243 C 1.01094 0.53975 0.52807 0.0
C1244 C 0.04601 0.50202 0.50601 0.0
C1245 C 0.99734 0.49399 0.60238 0.0
C1246 C 0.98133 0.49601 0.64027 0.0
C1247 C 0.96798 0.46254 0.60948 0.0
C1248 C 0.9833 0.47225 0.59445 0.0
C1249 C 0.96708 0.47431 0.63246 0.0
C1250 C 0.99601 0.50603 0.62514 0.0
C1251 C 1.01451 0.50388 0.58807 0.0
H1252 H 0.06613 0.63311 0.42409 0.0
H1253 H 0.06247 0.61928 0.46418 0.0
H1254 H 0.08431 0.61257 0.39306 0.0
H1255 H 0.09472 0.5631 0.44192 0.0
H1256 H 0.95722 0.44568 0.60359 0.0
H1257 H 0.98431 0.46275 0.57689 0.0
H1258 H 0.95582 0.46626 0.64448 0.0
H1259 H 1.00728 0.52256 0.63185 0.0
C1260 C 0.74622 0.81295 0.23171 0.0
C1261 C 0.72075 0.77821 0.21029 0.0
C1262 C 0.73679 0.78967 0.23048 0.0
C1263 C 0.71489 0.79034 0.19097 0.0
C1264 C 0.73981 0.82536 0.21273 0.0
C1265 C 0.72437 0.81387 0.1922 0.0
N1266 N 0.76095 0.82363 0.25191 0.0
C1267 C 0.76899 0.8469 0.25483 0.0
C1268 C 0.74874 0.84907 0.21519 0.0
C1269 C 0.76321 0.85991 0.23644 0.0
Gd1270 Gd 0.82849 0.77822 0.29141 0.0
Gd1271 Gd 0.76951 0.80013 0.28161 0.0
N1272 N 0.74296 0.77836 0.24938 0.0
C1273 C 0.71068 0.75506 0.21048 0.0
C1274 C 0.73185 0.75648 0.2506 0.0
C1275 C 0.71597 0.74426 0.23094 0.0
H1276 H 0.73465 0.74876 0.26703 0.0
H1277 H 0.70753 0.72669 0.23179 0.0
H1278 H 0.84925 0.83272 0.31999 0.0
H1279 H 0.77935 0.85565 0.27164 0.0
H1280 H 0.87693 0.85174 0.35596 0.0
H1281 H 0.69826 0.74563 0.19533 0.0
H1282 H 0.7027 0.7818 0.17522 0.0
H1283 H 0.81483 0.72172 0.29823 0.0
H1284 H 0.74416 0.85923 0.20105 0.0
H1285 H 0.76971 0.87833 0.23882 0.0
H1286 H 0.89108 0.78944 0.39926 0.0
H1287 H 0.71935 0.82311 0.17737 0.0
H1288 H 0.85014 0.71326 0.36696 0.0
H1289 H 0.82369 0.69682 0.32901 0.0
N1290 N 0.83448 0.75254 0.31942 0.0
C1291 C 0.84911 0.76198 0.34019 0.0
C1292 C 0.82556 0.72942 0.31517 0.0
C1293 C 0.84589 0.72446 0.35376 0.0
C1294 C 0.83088 0.71512 0.33241 0.0
C1295 C 0.85534 0.74809 0.35781 0.0
H1296 H 0.8758 0.74767 0.39253 0.0
N1297 N 0.8503 0.79894 0.3276 0.0
C1298 C 0.85762 0.7857 0.34413 0.0
C1299 C 0.88013 0.81984 0.36949 0.0
C1300 C 0.87266 0.79587 0.36561 0.0
C1301 C 0.85672 0.82235 0.33189 0.0
C1302 C 0.87189 0.83315 0.3527 0.0
O1303 O 0.78006 0.7845 0.24569 0.0
O1304 O 0.80746 0.76277 0.2549 0.0
O1305 O 0.85981 0.79139 0.2755 0.0
O1306 O 0.85106 0.75548 0.28189 0.0
O1307 O 0.77103 0.76733 0.29914 0.0
O1308 O 0.79715 0.7501 0.28094 0.0
O1309 O 0.8134 0.79064 0.32642 0.0
O1310 O 0.79661 0.81834 0.31196 0.0
O1311 O 0.74333 0.79059 0.30688 0.0
O1312 O 0.74747 0.8226 0.29075 0.0
O1313 O 0.8265 0.80803 0.26951 0.0
O1314 O 0.80183 0.8289 0.28503 0.0
C1315 C 0.79336 0.77023 0.23915 0.0
C1316 C 0.77783 0.74883 0.29007 0.0
C1317 C 0.88656 0.76618 0.26531 0.0
C1318 C 0.91576 0.76829 0.23726 0.0
C1319 C 0.91705 0.74506 0.27078 0.0
C1320 C 0.89737 0.75122 0.27796 0.0
C1321 C 0.92617 0.75352 0.25071 0.0
C1322 C 0.89588 0.77495 0.2448 0.0
C1323 C 0.86517 0.77124 0.27352 0.0
C1324 C 0.87942 0.78193 0.38275 0.0
C1325 C 0.87069 0.75814 0.37893 0.0
H1326 H 0.89175 0.82826 0.38572 0.0
C1327 C 0.80396 0.80874 0.33056 0.0
C1328 C 0.82084 0.82792 0.27528 0.0
C1329 C 0.71727 0.81793 0.31595 0.0
C1330 C 0.68409 0.81432 0.33921 0.0
C1331 C 0.6942 0.84719 0.31695 0.0
C1332 C 0.71287 0.83912 0.30994 0.0
C1333 C 0.67966 0.8347 0.33063 0.0
C1334 C 0.70296 0.80553 0.33112 0.0
C1335 C 0.73626 0.80973 0.30467 0.0
H1336 H 0.92512 0.73339 0.28064 0.0
H1337 H 0.89053 0.74417 0.29352 0.0
H1338 H 0.94122 0.74797 0.24521 0.0
H1339 H 0.88733 0.78596 0.23437 0.0
H1340 H 0.6907 0.86311 0.3113 0.0
H1341 H 0.72348 0.84945 0.29894 0.0
H1342 H 0.66466 0.8413 0.33425 0.0
H1343 H 0.70647 0.7895 0.33649 0.0
C1344 C 0.82725 0.24749 0.72406 0.0
C1345 C 0.79455 0.2278 0.69494 0.0
C1346 C 0.80541 0.24661 0.71278 0.0
C1347 C 0.80573 0.20963 0.6894 0.0
C1348 C 0.83894 0.22978 0.71792 0.0
C1349 C 0.82795 0.21069 0.70076 0.0
N1350 N 0.83714 0.26579 0.74107 0.0
C1351 C 0.85895 0.2679 0.75221 0.0
C1352 C 0.86132 0.23178 0.72928 0.0
C1353 C 0.87143 0.25104 0.74636 0.0
Gd1354 Gd 0.77697 0.29214 0.81644 0.0
Gd1355 Gd 0.81419 0.29126 0.75337 0.0
N1356 N 0.79522 0.26461 0.71851 0.0
C1357 C 0.77307 0.22809 0.68269 0.0
C1358 C 0.77545 0.26604 0.70445 0.0
C1359 C 0.76377 0.24757 0.68702 0.0
H1360 H 0.76856 0.28142 0.7059 0.0
H1361 H 0.7478 0.24853 0.67658 0.0
H1362 H 0.8209 0.2997 0.86464 0.0
H1363 H 0.86671 0.28247 0.76587 0.0
H1364 H 0.8409 0.33104 0.89646 0.0
H1365 H 0.76407 0.2139 0.66903 0.0
H1366 H 0.79754 0.19496 0.67594 0.0
H1367 H 0.72455 0.30184 0.80312 0.0
H1368 H 0.87093 0.2186 0.72497 0.0
H1369 H 0.88872 0.25275 0.75528 0.0
H1370 H 0.7932 0.38671 0.89625 0.0
H1371 H 0.83656 0.19678 0.696 0.0
H1372 H 0.72116 0.36593 0.84426 0.0
H1373 H 0.70327 0.33233 0.81326 0.0
N1374 N 0.75397 0.31778 0.82847 0.0
C1375 C 0.76373 0.3356 0.84622 0.0
C1376 C 0.7324 0.31625 0.81693 0.0
C1377 C 0.73047 0.35244 0.84011 0.0
C1378 C 0.72031 0.33351 0.82261 0.0
C1379 C 0.75243 0.35365 0.85222 0.0
H1380 H 0.7551 0.38647 0.87465 0.0
N1381 N 0.79522 0.31771 0.8522 0.0
C1382 C 0.78519 0.33576 0.85821 0.0
C1383 C 0.81669 0.35262 0.88994 0.0
C1384 C 0.79586 0.35393 0.87683 0.0
C1385 C 0.81422 0.31519 0.86686 0.0
C1386 C 0.82553 0.33284 0.88543 0.0
O1387 O 0.80847 0.25777 0.76771 0.0
O1388 O 0.77922 0.26905 0.78251 0.0
O1389 O 0.77789 0.26642 0.84042 0.0
O1390 O 0.74528 0.27042 0.8226 0.0
O1391 O 0.77686 0.29661 0.74623 0.0
O1392 O 0.75513 0.29286 0.77946 0.0
O1393 O 0.78599 0.32763 0.80647 0.0
O1394 O 0.80355 0.30685 0.78586 0.0
O1395 O 0.81387 0.32096 0.73486 0.0
O1396 O 0.84618 0.31272 0.74765 0.0
O1397 O 0.81463 0.28698 0.82298 0.0
O1398 O 0.83684 0.29367 0.79057 0.0
C1399 C 0.79273 0.25444 0.78187 0.0
C1400 C 0.75746 0.29594 0.75617 0.0
C1401 C 0.74572 0.25323 0.85946 0.0
C1402 C 0.74926 0.23924 0.89886 0.0
C1403 C 0.71216 0.24275 0.87966 0.0
C1404 C 0.72209 0.25089 0.85983 0.0
C1405 C 0.72568 0.23695 0.89916 0.0
C1406 C 0.75928 0.24718 0.87905 0.0
C1407 C 0.75584 0.25936 0.83763 0.0
C1408 C 0.78511 0.37245 0.88224 0.0
C1409 C 0.76339 0.37227 0.87001 0.0
H1410 H 0.82549 0.36624 0.90434 0.0
C1411 C 0.80008 0.32735 0.79074 0.0
C1412 C 0.8344 0.28948 0.81355 0.0
C1413 C 0.84341 0.32994 0.71118 0.0
C1414 C 0.83629 0.34409 0.67241 0.0
C1415 C 0.872 0.33236 0.68328 0.0
C1416 C 0.86492 0.32678 0.70552 0.0
C1417 C 0.85778 0.34119 0.66676 0.0
C1418 C 0.82915 0.33849 0.6944 0.0
C1419 C 0.83587 0.32558 0.73479 0.0
H1420 H 0.69394 0.24087 0.87988 0.0
H1421 H 0.71126 0.25496 0.84464 0.0
H1422 H 0.71781 0.23076 0.91456 0.0
H1423 H 0.77752 0.24856 0.879 0.0
H1424 H 0.88862 0.33011 0.67898 0.0
H1425 H 0.87629 0.3203 0.71832 0.0
H1426 H 0.8635 0.34584 0.64971 0.0
H1427 H 0.81267 0.34147 0.69863 0.0
C1428 C 0.85888 0.8395 0.82733 0.0
C1429 C 0.8806 0.8609 0.79946 0.0
C1430 C 0.86038 0.84672 0.80421 0.0
C1431 C 0.89917 0.86802 0.81816 0.0
C1432 C 0.87755 0.84699 0.84618 0.0
C1433 C 0.89762 0.86118 0.84145 0.0
N1434 N 0.83896 0.82626 0.83177 0.0
C1435 C 0.8366 0.82084 0.85492 0.0
C1436 C 0.87534 0.84066 0.86957 0.0
C1437 C 0.85476 0.8276 0.87395 0.0
Gd1438 Gd 0.78263 0.75937 0.77005 0.0
Gd1439 Gd 0.80848 0.82202 0.79987 0.0
N1440 N 0.84194 0.84022 0.78648 0.0
C1441 C 0.8814 0.86806 0.7762 0.0
C1442 C 0.84234 0.84803 0.76418 0.0
C1443 C 0.86214 0.86165 0.75852 0.0
H1444 H 0.8273 0.84436 0.75096 0.0
H1445 H 0.86237 0.86758 0.74069 0.0
H1446 H 0.76489 0.73636 0.81879 0.0
H1447 H 0.82044 0.8128 0.85953 0.0
H1448 H 0.73031 0.71315 0.83017 0.0
H1449 H 0.89664 0.87894 0.77189 0.0
H1450 H 0.91473 0.87911 0.81489 0.0
H1451 H 0.76957 0.76627 0.71012 0.0
H1452 H 0.88922 0.84628 0.88454 0.0
H1453 H 0.8526 0.82337 0.89223 0.0
H1454 H 0.67725 0.69884 0.75623 0.0
H1455 H 0.912 0.86719 0.8558 0.0
H1456 H 0.70171 0.73 0.68525 0.0
H1457 H 0.73777 0.75376 0.67713 0.0
N1458 N 0.75179 0.75253 0.73791 0.0
C1459 C 0.73222 0.73895 0.74258 0.0
C1460 C 0.75376 0.75763 0.71462 0.0
C1461 C 0.71553 0.73633 0.70017 0.0
C1462 C 0.73576 0.74984 0.69555 0.0
C1463 C 0.71358 0.73059 0.72382 0.0
H1464 H 0.67943 0.70961 0.71476 0.0
N1465 N 0.74967 0.73962 0.78336 0.0
C1466 C 0.73112 0.73237 0.7659 0.0
C1467 C 0.7108 0.71149 0.79468 0.0
C1468 C 0.71122 0.71798 0.77112 0.0
C1469 C 0.74967 0.73237 0.80591 0.0
C1470 C 0.73017 0.71867 0.81213 0.0
O1471 O 0.83598 0.80396 0.7847 0.0
O1472 O 0.82105 0.76692 0.7657 0.0
O1473 O 0.79069 0.72715 0.77864 0.0
O1474 O 0.78121 0.7324 0.74018 0.0
O1475 O 0.79172 0.81969 0.76033 0.0
O1476 O 0.79689 0.78429 0.74474 0.0
O1477 O 0.75437 0.77691 0.78477 0.0
O1478 O 0.76951 0.81519 0.80003 0.0
O1479 O 0.80593 0.85612 0.79286 0.0
O1480 O 0.81054 0.84868 0.83042 0.0
O1481 O 0.79995 0.76312 0.80941 0.0
O1482 O 0.79271 0.79753 0.82491 0.0
C1483 C 0.83867 0.7843 0.77284 0.0
C1484 C 0.79465 0.80533 0.74174 0.0
C1485 C 0.78933 0.69568 0.74685 0.0
C1486 C 0.81083 0.66633 0.75177 0.0
C1487 C 0.78646 0.6648 0.71358 0.0
C1488 C 0.78027 0.6851 0.7229 0.0
C1489 C 0.80208 0.65554 0.7279 0.0
C1490 C 0.80398 0.68584 0.76149 0.0
C1491 C 0.78697 0.71873 0.75536 0.0
C1492 C 0.69259 0.71006 0.75259 0.0
C1493 C 0.69381 0.71623 0.72899 0.0
H1494 H 0.69582 0.70049 0.79938 0.0
C1495 C 0.75199 0.79741 0.79494 0.0
C1496 C 0.79565 0.7767 0.82787 0.0
C1497 C 0.79177 0.87874 0.82239 0.0
C1498 C 0.77242 0.90845 0.81088 0.0
C1499 C 0.7712 0.89704 0.85151 0.0
C1500 C 0.78473 0.88111 0.84581 0.0
C1501 C 0.76496 0.91074 0.83403 0.0
C1502 C 0.78546 0.8924 0.80509 0.0
C1503 C 0.80742 0.86395 0.81607 0.0
H1504 H 0.77977 0.6567 0.69505 0.0
H1505 H 0.76906 0.69285 0.71124 0.0
H1506 H 0.8076 0.64031 0.72034 0.0
H1507 H 0.81161 0.69435 0.77973 0.0
H1508 H 0.76586 0.89902 0.86957 0.0
H1509 H 0.7899 0.87099 0.85973 0.0
H1510 H 0.75488 0.92341 0.83871 0.0
H1511 H 0.79115 0.89097 0.78709 0.0
C1512 C 0.50039 0.47818 0.49245 0.0
C1513 C 0.48121 0.45636 0.52167 0.0
C1514 C 0.49488 0.4767 0.51626 0.0
C1515 C 0.47323 0.43763 0.5031 0.0
C1516 C 0.49222 0.45935 0.4738 0.0
C1517 C 0.47868 0.43913 0.47927 0.0
N1518 N 0.51274 0.49832 0.48725 0.0
C1519 C 0.51751 0.50063 0.46391 0.0
C1520 C 0.49733 0.46158 0.44995 0.0
C1521 C 0.51007 0.48227 0.44502 0.0
Gd1522 Gd 0.57683 0.55369 0.5527 0.0
Gd1523 Gd 0.5184 0.52901 0.51905 0.0
N1524 N 0.50209 0.49537 0.53383 0.0
C1525 C 0.47521 0.45569 0.54539 0.0
C1526 C 0.4951 0.49519 0.55645 0.0
C1527 C 0.48208 0.47526 0.56281 0.0
H1528 H 0.49817 0.51065 0.56909 0.0
H1529 H 0.47656 0.4753 0.5808 0.0
H1530 H 0.60096 0.57305 0.50483 0.0
H1531 H 0.52578 0.51691 0.45929 0.0
H1532 H 0.62316 0.60861 0.49444 0.0
H1533 H 0.46463 0.44043 0.5502 0.0
H1534 H 0.46251 0.42198 0.50691 0.0
H1535 H 0.57012 0.56443 0.61276 0.0
H1536 H 0.49118 0.44754 0.43512 0.0
H1537 H 0.51361 0.48433 0.4265 0.0
H1538 H 0.63529 0.66081 0.5691 0.0
H1539 H 0.47209 0.42461 0.46509 0.0
H1540 H 0.60449 0.63356 0.63917 0.0
H1541 H 0.58174 0.59639 0.64638 0.0
N1542 N 0.58403 0.58377 0.58567 0.0
C1543 C 0.59683 0.60403 0.58141 0.0
C1544 C 0.57874 0.58089 0.60875 0.0
C1545 C 0.59873 0.61979 0.624 0.0
C1546 C 0.58582 0.59887 0.62813 0.0
C1547 C 0.60454 0.62255 0.60052 0.0
H1548 H 0.62443 0.65734 0.61034 0.0
N1549 N 0.5963 0.58756 0.54024 0.0
C1550 C 0.60314 0.60596 0.5581 0.0
C1551 C 0.62376 0.62761 0.53004 0.0
C1552 C 0.61708 0.62649 0.55343 0.0
C1553 C 0.60401 0.58818 0.51795 0.0
C1554 C 0.61732 0.60828 0.51228 0.0
O1555 O 0.54036 0.50144 0.52739 0.0
O1556 O 0.56353 0.51732 0.56296 0.0
O1557 O 0.60668 0.54122 0.54333 0.0
O1558 O 0.60494 0.55608 0.58128 0.0
O1559 O 0.52044 0.54916 0.55702 0.0
O1560 O 0.55124 0.53902 0.57655 0.0
O1561 O 0.55738 0.58264 0.54299 0.0
O1562 O 0.52925 0.56663 0.51062 0.0
O1563 O 0.48576 0.53469 0.52825 0.0
O1564 O 0.49002 0.52439 0.49043 0.0
O1565 O 0.57536 0.53825 0.51222 0.0
O1566 O 0.54184 0.54519 0.49446 0.0
C1567 C 0.55296 0.49873 0.54779 0.0
C1568 C 0.53181 0.54544 0.57729 0.0
C1569 C 0.63932 0.54352 0.57395 0.0
C1570 C 0.67024 0.52535 0.56538 0.0
C1571 C 0.67102 0.54559 0.60586 0.0
C1572 C 0.65 0.55097 0.59821 0.0
C1573 C 0.68115 0.53259 0.58945 0.0
C1574 C 0.64969 0.53105 0.55752 0.0
C1575 C 0.61669 0.54708 0.566 0.0
C1576 C 0.62447 0.645 0.57235 0.0
C1577 C 0.61828 0.64301 0.59583 0.0
H1578 H 0.63447 0.64305 0.52576 0.0
C1579 C 0.54249 0.58509 0.52426 0.0
C1580 C 0.56267 0.54249 0.49288 0.0
C1581 C 0.46265 0.54655 0.49704 0.0
C1582 C 0.43459 0.56921 0.50571 0.0
C1583 C 0.44842 0.56786 0.46596 0.0
C1584 C 0.46247 0.55316 0.47337 0.0
C1585 C 0.43471 0.57612 0.48211 0.0
C1586 C 0.44842 0.55422 0.51284 0.0
C1587 C 0.47643 0.53062 0.50529 0.0
H1588 H 0.67918 0.55106 0.62458 0.0
H1589 H 0.64199 0.56058 0.61128 0.0
H1590 H 0.69711 0.52778 0.59556 0.0
H1591 H 0.64139 0.52482 0.53887 0.0
H1592 H 0.44822 0.57294 0.44774 0.0
H1593 H 0.47304 0.54695 0.46058 0.0
H1594 H 0.42432 0.58792 0.47609 0.0
H1595 H 0.44777 0.548 0.53055 0.0
C1596 C 0.09704 0.58625 0.999 0.0
C1597 C 0.12567 0.61116 0.03019 0.0
C1598 C 0.10892 0.59083 0.02288 0.0
C1599 C 0.13048 0.62686 0.01339 0.0
C1600 C 0.10246 0.60184 0.982 0.0
C1601 C 0.11898 0.62218 0.98939 0.0
N1602 N 0.08118 0.56624 0.99206 0.0
C1603 C 0.07203 0.56004 0.96784 0.0
C1604 C 0.09165 0.59627 0.95775 0.0
C1605 C 0.07662 0.57516 0.9506 0.0
Gd1606 Gd 1.01372 0.53872 0.04806 0.0
Gd1607 Gd 0.07704 0.54229 0.02324 0.0
N1608 N 0.10406 0.57545 0.03903 0.0
C1609 C 0.13736 0.61501 0.05413 0.0
C1610 C 0.11635 0.57837 0.0618 0.0
C1611 C 0.1328 0.59845 0.06994 0.0
H1612 H 0.11357 0.56511 0.07348 0.0
H1613 H 0.14219 0.60097 0.08824 0.0
H1614 H 0.97832 0.51306 0.99779 0.0
H1615 H 0.06182 0.54317 0.9611 0.0
H1616 H 0.9491 0.47693 0.98527 0.0
H1617 H 0.1503 0.63047 0.06041 0.0
H1618 H 0.14334 0.64255 0.01868 0.0
H1619 H 0.0276 0.54178 0.11087 0.0
H1620 H 0.09543 0.60778 0.9442 0.0
H1621 H 0.069 0.57023 0.93161 0.0
H1622 H 0.94864 0.43899 0.05728 0.0
H1623 H 0.12326 0.63429 0.97653 0.0
H1624 H 0.99607 0.47744 0.13084 0.0
H1625 H 0.02139 0.51583 0.14191 0.0
N1626 N 1.00829 0.51732 0.08109 0.0
C1627 C 0.99305 0.49684 0.07493 0.0
C1628 C 1.01748 0.52465 0.10511 0.0
C1629 C 0.99922 0.48853 0.11677 0.0
C1630 C 1.01359 0.51015 0.12308 0.0
C1631 C 0.9883 0.48186 0.09265 0.0
H1632 H 0.96876 0.4492 0.09937 0.0
N1633 N 0.98632 0.50542 0.03395 0.0
C1634 C 0.98147 0.49098 0.051 0.0
C1635 C 0.95372 0.46509 0.02048 0.0
C1636 C 0.96526 0.47016 0.04448 0.0
C1637 C 0.97476 0.50094 0.01072 0.0
C1638 C 0.95832 0.48064 1.00363 0.0
O1639 O 0.07095 0.57721 0.04275 0.0
O1640 O 0.0334 0.57638 0.05038 0.0
O1641 O 0.98326 0.55013 0.03248 0.0
O1642 O 0.99624 0.55789 0.07164 0.0
O1643 O 0.06463 0.5276 0.05608 0.0
O1644 O 0.04383 0.54967 0.07572 0.0
O1645 O 0.02026 0.50254 0.03104 0.0
O1646 O 0.05662 0.50543 0.01881 0.0
O1647 O 0.10747 0.52887 0.03626 0.0
O1648 O 0.09657 0.52988 0.99706 0.0
O1649 O 0.02865 0.55141 0.0163 0.0
O1650 O 0.04717 0.52974 0.99459 0.0
C1651 C 0.05444 0.58781 0.04922 0.0
C1652 C 0.06166 0.54057 0.07545 0.0
C1653 C 0.95853 0.56155 0.06078 0.0
C1654 C 0.92964 0.58468 0.06429 0.0
C1655 C 0.93135 0.55411 0.0897 0.0
C1656 C 0.94993 0.54887 0.07891 0.0
C1657 C 0.92137 0.57204 0.08261 0.0
C1658 C 0.94803 0.57914 0.05309 0.0
C1659 C 0.98108 0.56043 0.05396 0.0
C1660 C 0.96098 0.45511 0.06202 0.0
C1661 C 0.97249 0.46091 0.08598 0.0
H1662 H 0.94104 0.44932 0.01484 0.0
C1663 C 0.03666 0.49301 0.02207 0.0
C1664 C 0.02881 0.5375 0.99678 0.0
C1665 C 0.13052 0.51571 0.00538 0.0
C1666 C 0.15907 0.49245 0.01028 0.0
C1667 C 0.1535 0.50936 0.97275 0.0
C1668 C 0.13644 0.51918 0.98191 0.0
C1669 C 0.1648 0.49601 0.98687 0.0
C1670 C 0.14197 0.50235 0.0197 0.0
C1671 C 0.11119 0.52465 0.01348 0.0
H1672 H 0.92506 0.5447 0.10407 0.0
H1673 H 0.95822 0.53567 0.08548 0.0
H1674 H 0.90731 0.57626 0.09164 0.0
H1675 H 0.95517 0.58956 0.03979 0.0
H1676 H 0.15778 0.51189 0.95458 0.0
H1677 H 0.12768 0.52929 0.97044 0.0
H1678 H 0.17781 0.48812 0.97939 0.0
H1679 H 0.13723 0.49911 0.03758 0.0
H1680 H 0.99109 0.19111 0.96839 0.0
H1681 H 0.05472 0.2368 1.00097 0.0
H1682 H 0.06847 0.20385 0.01663 0.0
H1683 H 0.98582 0.15258 0.01495 0.0
H1684 H 0.97577 0.12643 0.99379 0.0
H1685 H 0.97042 0.15343 0.98526 0.0
H1686 H 0.98991 0.14729 0.94628 0.0
H1687 H 0.99517 0.12024 0.95477 0.0
H1688 H 0.01856 0.14209 0.94931 0.0
H1689 H 0.07493 0.16528 0.03137 0.0
H1690 H 0.07482 0.12573 0.04002 0.0
H1691 H 1.00886 0.10214 0.99547 0.0
C1692 C 1.008 0.19421 0.9787 0.0
C1693 C 0.02172 0.21723 0.98329 0.0
C1694 C 0.04374 0.21985 0.99687 0.0
C1695 C 0.05172 0.20101 0.00602 0.0
C1696 C 0.03789 0.17881 1.0013 0.0
C1697 C 1.0166 0.1752 0.98752 0.0
C1698 C 1.00568 0.14923 0.98432 0.0
C1699 C 0.98307 0.14519 0.99522 0.0
C1700 C 1.0021 0.13911 0.95704 0.0
C1701 C 0.02371 0.13897 0.99898 0.0
C1702 C 0.04212 0.15648 0.00867 0.0
C1703 C 0.06059 0.15159 0.02346 0.0
C1704 C 0.06042 0.12867 0.02833 0.0
C1705 C 0.04214 0.10988 0.01847 0.0
C1706 C 0.02343 0.11554 1.00341 0.0
H1707 H 0.16197 0.84088 0.16569 0.0
H1708 H 0.12506 0.76991 0.15166 0.0
H1709 H 0.15403 0.75894 0.18082 0.0
H1710 H 0.21844 0.83059 0.17125 0.0
H1711 H 0.23024 0.85278 0.19672 0.0
H1712 H 0.20607 0.85573 0.17587 0.0
H1713 H 0.18306 0.86064 0.21241 0.0
H1714 H 0.20729 0.85782 0.23332 0.0
H1715 H 0.17996 0.83899 0.23285 0.0
H1716 H 0.18777 0.75498 0.21079 0.0
H1717 H 0.22331 0.75861 0.23945 0.0
H1718 H 0.24 0.8318 0.2349 0.0
C1719 C 0.15984 0.82312 0.16908 0.0
C1720 C 0.14087 0.80626 0.15637 0.0
C1721 C 0.13907 0.78319 0.16125 0.0
C1722 C 0.15557 0.77676 0.1778 0.0
C1723 C 0.17405 0.79357 0.18987 0.0
C1724 C 0.1762 0.81637 0.186 0.0
C1725 C 0.19789 0.83087 0.20158 0.0
C1726 C 0.21412 0.84322 0.18538 0.0
C1727 C 0.19168 0.84812 0.22119 0.0
C1728 C 0.20811 0.81256 0.21366 0.0
C1729 C 0.19375 0.79123 0.20698 0.0
C1730 C 0.19905 0.77165 0.21611 0.0
C1731 C 0.21932 0.77386 0.23246 0.0
C1732 C 0.23456 0.79539 0.23948 0.0
C1733 C 0.22882 0.81503 0.22979 0.0
H1734 H 0.51734 0.86192 0.44641 0.0
H1735 H 0.52508 0.83614 0.51655 0.0
H1736 H 0.52998 0.87584 0.53795 0.0
H1737 H 0.55761 0.91594 0.46184 0.0
H1738 H 0.5403 0.9324 0.44539 0.0
H1739 H 0.53714 0.902 0.43565 0.0
H1740 H 0.49399 0.89591 0.43924 0.0
H1741 H 0.49706 0.92631 0.44908 0.0
H1742 H 0.48489 0.90557 0.46788 0.0
H1743 H 0.53328 0.91998 0.55245 0.0
H1744 H 0.53661 0.96236 0.55782 0.0
H1745 H 0.52841 0.96111 0.47879 0.0
C1746 C 0.52003 0.86452 0.4663 0.0
C1747 C 0.52069 0.84517 0.47952 0.0
C1748 C 0.52422 0.85004 0.50563 0.0
C1749 C 0.5271 0.87281 0.51807 0.0
C1750 C 0.52625 0.8913 0.50454 0.0
C1751 C 0.52271 0.88734 0.47913 0.0
C1752 C 0.52203 0.91023 0.46895 0.0
C1753 C 0.54037 0.91545 0.45195 0.0
C1754 C 0.49808 0.90946 0.45547 0.0
C1755 C 0.52698 0.92787 0.49235 0.0
C1756 C 0.52872 0.91645 0.51275 0.0
C1757 C 0.53207 0.92885 0.53643 0.0
C1758 C 0.53389 0.95315 0.53937 0.0
C1759 C 0.53304 0.96566 0.51894 0.0
C1760 C 0.52947 0.95248 0.495 0.0
H1761 H 0.49646 0.3103 0.63463 0.0
H1762 H 0.54062 0.27558 0.67804 0.0
H1763 H 0.51269 0.26941 0.70685 0.0
H1764 H 0.47467 0.33757 0.6881 0.0
H1765 H 0.44598 0.33408 0.67272 0.0
H1766 H 0.46979 0.33743 0.6553 0.0
H1767 H 0.4516 0.29918 0.62726 0.0
H1768 H 0.42752 0.29603 0.64419 0.0
H1769 H 0.44332 0.27329 0.64101 0.0
H1770 H 0.48159 0.26723 0.73178 0.0
H1771 H 0.44413 0.26155 0.74691 0.0
H1772 H 0.41724 0.29475 0.68751 0.0
C1773 C 0.50004 0.30119 0.65005 0.0
C1774 C 0.52093 0.29358 0.65409 0.0
C1775 C 0.52496 0.28184 0.6746 0.0
C1776 C 0.50924 0.27835 0.69127 0.0
C1777 C 0.48929 0.28662 0.6874 0.0
C1778 C 0.48425 0.29738 0.66713 0.0
C1779 C 0.46075 0.30339 0.66722 0.0
C1780 C 0.46293 0.32968 0.67105 0.0
C1781 C 0.44485 0.29229 0.64351 0.0
C1782 C 0.45303 0.29292 0.68969 0.0
C1783 C 0.47036 0.28435 0.70156 0.0
C1784 C 0.46782 0.27386 0.7227 0.0
C1785 C 0.44658 0.27087 0.73131 0.0
C1786 C 0.42799 0.27793 0.71858 0.0
C1787 C 0.43137 0.28963 0.69783 0.0
H1788 H 0.0376 0.84416 0.69376 0.0
H1789 H 0.04702 0.79086 0.63775 0.0
H1790 H 0.04989 0.81811 0.60796 0.0
H1791 H 1.00521 0.87387 0.65116 0.0
H1792 H 0.01863 0.9024 0.66603 0.0
H1793 H 1.01524 0.8785 0.68364 0.0
H1794 H 0.05877 0.88734 0.69845 0.0
H1795 H 0.06216 0.91156 0.68143 0.0
H1796 H 0.07848 0.88952 0.67604 0.0
H1797 H 0.05155 0.84997 0.58325 0.0
H1798 H 0.06046 0.88756 0.5678 0.0
H1799 H 0.0536 0.92222 0.63889 0.0
C1800 C 0.04034 0.83832 0.67527 0.0
C1801 C 0.04182 0.81512 0.6683 0.0
C1802 C 0.04557 0.80835 0.64383 0.0
C1803 C 0.04707 0.82369 0.62648 0.0
C1804 C 0.04502 0.84611 0.6336 0.0
C1805 C 0.04228 0.85372 0.65746 0.0
C1806 C 0.04242 0.87941 0.66022 0.0
C1807 C 0.01898 0.8838 0.66559 0.0
C1808 C 0.06161 0.89274 0.68022 0.0
C1809 C 0.04687 0.88497 0.63467 0.0
C1810 C 0.04728 0.86521 0.61938 0.0
C1811 C 0.05123 0.86563 0.59499 0.0
C1812 C 0.05605 0.887 0.58626 0.0
C1813 C 0.05739 0.90765 0.60204 0.0
C1814 C 0.05219 0.90658 0.62637 0.0
H1815 H 0.46993 0.83291 0.87279 0.0
H1816 H 0.49822 0.80969 0.80797 0.0
H1817 H 0.45931 0.80227 0.78397 0.0
H1818 H 0.41762 0.79157 0.86227 0.0
H1819 H 0.40117 0.81148 0.87424 0.0
H1820 H 0.43114 0.81556 0.88524 0.0
H1821 H 0.43777 0.85689 0.87333 0.0
H1822 H 0.40778 0.85292 0.86226 0.0
H1823 H 0.42878 0.86115 0.84223 0.0
H1824 H 0.41465 0.79756 0.76697 0.0
H1825 H 0.37259 0.79486 0.76039 0.0
H1826 H 0.37427 0.81936 0.83733 0.0
C1827 C 0.46829 0.82638 0.85347 0.0
C1828 C 0.48786 0.82219 0.84254 0.0
C1829 C 0.48408 0.81351 0.81707 0.0
C1830 C 0.4618 0.8091 0.80327 0.0
C1831 C 0.44304 0.8134 0.8149 0.0
C1832 C 0.44632 0.82186 0.83958 0.0
C1833 C 0.42376 0.82494 0.84837 0.0
C1834 C 0.41809 0.80999 0.86873 0.0
C1835 C 0.42458 0.85049 0.85707 0.0
C1836 C 0.40688 0.81655 0.82504 0.0
C1837 C 0.41824 0.81025 0.80569 0.0
C1838 C 0.40595 0.80254 0.78219 0.0
C1839 C 0.38192 0.80119 0.77852 0.0
C1840 C 0.36986 0.80713 0.79818 0.0
C1841 C 0.38278 0.81482 0.82178 0.0
H1842 H 0.49984 0.17767 0.14744 0.0
H1843 H 0.57082 0.21331 0.16019 0.0
H1844 H 0.58109 0.18209 0.13374 0.0
H1845 H 0.51597 0.11845 0.14876 0.0
H1846 H 0.49197 0.10421 0.12636 0.0
H1847 H 0.48978 0.12899 0.14711 0.0
H1848 H 0.47803 0.14905 0.1099 0.0
H1849 H 0.48056 0.12451 0.08907 0.0
H1850 H 0.49652 0.15276 0.08642 0.0
H1851 H 0.58311 0.15057 0.10026 0.0
H1852 H 0.57874 0.11534 0.07058 0.0
H1853 H 0.50844 0.09463 0.08348 0.0
C1854 C 0.51767 0.17837 0.14565 0.0
C1855 C 0.53457 0.19818 0.1566 0.0
C1856 C 0.55757 0.19837 0.15273 0.0
C1857 C 0.56359 0.18076 0.13732 0.0
C1858 C 0.54666 0.16206 0.1262 0.0
C1859 C 0.52433 0.16006 0.13101 0.0
C1860 C 0.51003 0.13714 0.11744 0.0
C1861 C 0.50141 0.12125 0.13602 0.0
C1862 C 0.4901 0.14112 0.09966 0.0
C1863 C 0.5275 0.12742 0.10338 0.0
C1864 C 0.54844 0.14242 0.10853 0.0
C1865 C 0.56692 0.13842 0.09659 0.0
C1866 C 0.56423 0.11839 0.07951 0.0
C1867 C 0.54338 0.10197 0.07461 0.0
C1868 C 0.52473 0.10665 0.0869 0.0
H1869 H 0.13447 0.34435 0.32099 0.0
H1870 H 0.11982 0.2898 0.3662 0.0
H1871 H 0.15473 0.27649 0.3566 0.0
H1872 H 0.15972 0.31182 0.27383 0.0
H1873 H 0.18187 0.33583 0.2704 0.0
H1874 H 0.1552 0.34084 0.27958 0.0
H1875 H 0.1772 0.3676 0.31833 0.0
H1876 H 0.20388 0.36256 0.30915 0.0
H1877 H 0.19672 0.35681 0.33901 0.0
H1878 H 0.1926 0.26875 0.34253 0.0
H1879 H 0.22953 0.26868 0.32718 0.0
H1880 H 0.2226 0.3281 0.29086 0.0
C1881 C 0.13846 0.32948 0.32874 0.0
C1882 C 0.12357 0.31807 0.34443 0.0
C1883 C 0.13029 0.29894 0.3542 0.0
C1884 C 0.15034 0.29118 0.34876 0.0
C1885 C 0.16454 0.30269 0.33354 0.0
C1886 C 0.159 0.3216 0.32375 0.0
C1887 C 0.17796 0.3312 0.30859 0.0
C1888 C 0.16809 0.32985 0.28149 0.0
C1889 C 0.18962 0.35603 0.31941 0.0
C1890 C 0.19486 0.31489 0.31139 0.0
C1891 C 0.18654 0.29845 0.32575 0.0
C1892 C 0.19893 0.28153 0.3311 0.0
C1893 C 0.22002 0.28135 0.32185 0.0
C1894 C 0.22931 0.2977 0.30687 0.0
C1895 C 0.21629 0.31497 0.30189 0.0
H1896 H 0.99311 1.00387 0.20125 0.0
H1897 H 0.95071 0.05501 0.20497 0.0
H1898 H 0.96271 0.06708 0.16593 0.0
H1899 H 0.03961 0.03636 0.17921 0.0
H1900 H 0.045 0.01279 0.15888 0.0
H1901 H 0.03184 1.00719 0.18594 0.0
H1902 H 0.99747 0.97908 0.15925 0.0
H1903 H 1.01076 0.98434 0.13214 0.0
H1904 H 0.9822 0.98889 0.13389 0.0
H1905 H 0.98035 0.07383 0.12611 0.0
H1906 H 1.00099 0.07408 0.08963 0.0
H1907 H 0.03312 0.01973 0.11363 0.0
C1908 C 0.98611 0.0175 0.19383 0.0
C1909 C 0.97087 0.02847 0.20638 0.0
C1910 C 0.96217 0.04615 0.19575 0.0
C1911 C 0.96903 0.0532 0.17361 0.0
C1912 C 0.98445 0.0423 0.16209 0.0
C1913 C 0.99265 0.02462 0.17178 0.0
C1914 C 1.00909 0.01565 0.15606 0.0
C1915 C 0.03279 0.01816 0.17091 0.0
C1916 C 0.9993 0.9905 0.14467 0.0
C1917 C 1.00967 0.03162 0.13646 0.0
C1918 C 0.99501 0.0466 0.13993 0.0
C1919 C 0.99189 0.06221 0.12338 0.0
C1920 C 1.0037 0.06227 0.1027 0.0
C1921 C 0.01885 0.04716 0.09887 0.0
C1922 C 0.02202 0.03185 0.11626 0.0
H1923 H 0.26954 0.68967 0.52132 0.0
H1924 H 0.29966 0.63746 0.4839 0.0
H1925 H 0.30103 0.6591 0.44778 0.0
H1926 H 0.23446 0.69885 0.4702 0.0
H1927 H 0.23787 0.72905 0.48116 0.0
H1928 H 0.2401 0.70887 0.5027 0.0
H1929 H 0.28018 0.73328 0.52113 0.0
H1930 H 0.27856 0.75294 0.49876 0.0
H1931 H 0.30224 0.73846 0.50161 0.0
H1932 H 0.29563 0.68534 0.41543 0.0
H1933 H 0.28044 0.71074 0.3885 0.0
H1934 H 0.25936 0.74767 0.45121 0.0
C1935 C 0.27652 0.68261 0.50568 0.0
C1936 C 0.28464 0.66208 0.50528 0.0
C1937 C 0.29328 0.65326 0.48428 0.0
C1938 C 0.29441 0.66556 0.464 0.0
C1939 C 0.28709 0.68645 0.46561 0.0
C1940 C 0.27812 0.69464 0.48591 0.0
C1941 C 0.27001 0.71655 0.48315 0.0
C1942 C 0.24409 0.71311 0.48436 0.0
C1943 C 0.28358 0.73649 0.5023 0.0
C1944 C 0.27551 0.71957 0.45777 0.0
C1945 C 0.28536 0.70212 0.4478 0.0
C1946 C 0.28846 0.69939 0.42317 0.0
C1947 C 0.2799 0.714 0.40808 0.0
C1948 C 0.2686 0.731 0.41799 0.0
C1949 C 0.26785 0.73474 0.4433 0.0
H1950 H 0.66007 0.024 0.67302 0.0
H1951 H 0.64956 0.08527 0.71618 0.0
H1952 H 0.62726 0.09497 0.68032 0.0
H1953 H 0.65677 0.04926 0.60944 0.0
H1954 H 0.64205 0.02125 0.59427 0.0
H1955 H 0.66415 0.02367 0.61987 0.0
H1956 H 0.63524 0.99711 0.64137 0.0
H1957 H 0.61293 0.99548 0.61649 0.0
H1958 H 0.60895 1.00565 0.64735 0.0
H1959 H 0.59839 0.09191 0.64667 0.0
H1960 H 0.56803 0.08001 0.61164 0.0
H1961 H 0.59593 0.0199 0.59009 0.0
C1962 C 0.65389 0.03994 0.67421 0.0
C1963 C 0.65585 0.05388 0.69666 0.0
C1964 C 0.64766 0.07451 0.69864 0.0
C1965 C 0.63533 0.08026 0.67844 0.0
C1966 C 0.63196 0.06529 0.65671 0.0
C1967 C 0.6415 0.04587 0.65408 0.0
C1968 C 0.63183 0.03066 0.6302 0.0
C1969 C 0.64978 0.03125 0.6124 0.0
C1970 C 0.62163 1.00578 0.63413 0.0
C1971 C 0.61365 0.04311 0.62158 0.0
C1972 C 0.61454 0.0634 0.63667 0.0
C1973 C 0.59803 0.07664 0.634 0.0
C1974 C 0.58069 0.06951 0.61445 0.0
C1975 C 0.58017 0.04928 0.59832 0.0
C1976 C 0.59643 0.03566 0.60212 0.0
H1977 H 0.31476 0.3949 0.95874 0.0
H1978 H 0.31403 0.33453 0.99621 0.0
H1979 H 0.3105 0.3103 0.95635 0.0
H1980 H 0.27432 0.36825 0.90605 0.0
H1981 H 0.2893 0.38334 0.88418 0.0
H1982 H 0.29224 0.39641 0.91566 0.0
H1983 H 0.33627 0.40115 0.91873 0.0
H1984 H 0.33336 0.38806 0.88723 0.0
H1985 H 0.3483 0.37623 0.91122 0.0
H1986 H 0.30767 0.2923 0.91257 0.0
H1987 H 0.30429 0.28163 0.86768 0.0
H1988 H 0.30537 0.35276 0.85706 0.0
C1989 C 0.31401 0.37661 0.95855 0.0
C1990 C 0.31484 0.36672 0.98085 0.0
C1991 C 0.3137 0.34266 0.97961 0.0
C1992 C 0.31161 0.32867 0.95696 0.0
C1993 C 0.31084 0.33887 0.93542 0.0
C1994 C 0.31207 0.36228 0.93593 0.0
C1995 C 0.31103 0.3687 0.90988 0.0
C1996 C 0.29049 0.37984 0.90359 0.0
C1997 C 0.33358 0.38448 0.90657 0.0
C1998 C 0.30814 0.34518 0.89471 0.0
C1999 C 0.30855 0.32831 0.90994 0.0
C2000 C 0.30717 0.30537 0.90051 0.0
C2001 C 0.30527 0.29947 0.87493 0.0
C2002 C 0.30424 0.31625 0.85878 0.0
C2003 C 0.30567 0.33946 0.86889 0.0
H2004 H 0.94594 0.015 0.35854 0.0
H2005 H 1.00569 0.04091 0.32464 0.0
H2006 H 0.03001 0.04471 0.36447 0.0
H2007 H 0.96182 0.05001 0.41708 0.0
H2008 H 0.95158 0.02743 0.43478 0.0
H2009 H 0.93869 0.02653 0.40358 0.0
H2010 H 0.9471 0.98586 0.39271 0.0
H2011 H 0.96004 0.98672 0.42393 0.0
H2012 H 0.97595 0.98161 0.3988 0.0
H2013 H 0.04839 0.04519 0.40826 0.0
H2014 H 0.05882 0.04351 0.4526 0.0
H2015 H 0.98762 0.01822 0.45925 0.0
C2016 C 0.96414 0.02146 0.35952 0.0
C2017 C 0.97382 0.02763 0.33823 0.0
C2018 C 0.99778 0.03587 0.34045 0.0
C2019 C 1.0118 0.03815 0.3631 0.0
C2020 C 1.00182 0.03184 0.38365 0.0
C2021 C 0.97855 0.02353 0.38209 0.0
C2022 C 0.97237 0.01746 0.40696 0.0
C2023 C 0.95509 0.03119 0.41614 0.0
C2024 C 0.96331 0.99137 0.40551 0.0
C2025 C 0.99551 0.02472 0.42294 0.0
C2026 C 1.01237 0.03247 0.40896 0.0
C2027 C 0.03527 0.03922 0.41933 0.0
C2028 C 0.04108 0.03813 0.44455 0.0
C2029 C 0.02408 0.03087 0.45944 0.0
C2030 C 1.00097 0.02408 0.44838 0.0
H2031 H 0.27311 0.66704 0.64573 0.0
H2032 H 0.32415 0.70801 0.61052 0.0
H2033 H 0.3383 0.73359 0.64931 0.0
H2034 H 0.25275 0.70552 0.66868 0.0
H2035 H 0.24813 0.69815 0.69881 0.0
H2036 H 0.24973 0.67605 0.67488 0.0
H2037 H 0.28289 0.66409 0.70117 0.0
H2038 H 0.28057 0.68565 0.72578 0.0
H2039 H 0.30764 0.68564 0.7148 0.0
H2040 H 0.33963 0.75983 0.68595 0.0
H2041 H 0.32871 0.78466 0.71956 0.0
H2042 H 0.26933 0.732 0.72307 0.0
C2043 C 0.28819 0.68059 0.64701 0.0
C2044 C 0.29788 0.68594 0.62601 0.0
C2045 C 0.31691 0.70401 0.62704 0.0
C2046 C 0.32517 0.71833 0.64897 0.0
C2047 C 0.31392 0.71418 0.66921 0.0
C2048 C 0.29598 0.69546 0.66863 0.0
C2049 C 0.28293 0.69825 0.69017 0.0
C2050 C 0.25687 0.69431 0.68262 0.0
C2051 C 0.28886 0.68249 0.7091 0.0
C2052 C 0.29339 0.72294 0.69976 0.0
C2053 C 0.31255 0.73103 0.68907 0.0
C2054 C 0.32497 0.75354 0.69488 0.0
C2055 C 0.31828 0.7677 0.71321 0.0
C2056 C 0.29842 0.75959 0.72368 0.0
C2057 C 0.28529 0.73757 0.71616 0.0
H2058 H 0.64586 0.04121 0.80289 0.0
H2059 H 0.71291 0.07802 0.83801 0.0
H2060 H 0.69787 0.08231 0.87773 0.0
H2061 H 0.61362 0.07404 0.83136 0.0
H2062 H 0.59086 0.05051 0.83465 0.0
H2063 H 0.60806 0.0476 0.81041 0.0
H2064 H 0.61752 1.0107 0.82612 0.0
H2065 H 0.60085 0.01399 0.85101 0.0
H2066 H 0.63037 1.01196 0.85741 0.0
H2067 H 0.67589 0.08584 0.9114 0.0
H2068 H 0.64641 0.09542 0.93602 0.0
H2069 H 0.59333 0.0567 0.87931 0.0
C2070 C 0.65738 0.04989 0.81909 0.0
C2071 C 0.68051 0.05901 0.8179 0.0
C2072 C 0.69522 0.07054 0.83904 0.0
C2073 C 0.68689 0.07284 0.86156 0.0
C2074 C 0.66409 0.06306 0.86237 0.0
C2075 C 0.64945 0.05204 0.84168 0.0
C2076 C 0.6252 0.04527 0.84701 0.0
C2077 C 0.60849 0.05498 0.82986 0.0
C2078 C 0.61806 0.01892 0.8453 0.0
C2079 C 0.62813 0.05659 0.87333 0.0
C2080 C 0.65094 0.06551 0.88215 0.0
C2081 C 0.65803 0.07864 0.90504 0.0
C2082 C 0.64131 0.08405 0.91879 0.0
C2083 C 0.61809 0.07669 0.90917 0.0
C2084 C 0.61121 0.06202 0.88684 0.0
H2085 H 0.32699 0.38981 0.13703 0.0
H2086 H 0.28578 0.33391 0.08465 0.0
H2087 H 0.27229 0.31392 0.11865 0.0
H2088 H 0.34585 0.35672 0.18035 0.0
H2089 H 0.34343 0.37505 0.20773 0.0
H2090 H 0.34783 0.38722 0.17977 0.0
H2091 H 0.31148 0.40424 0.18184 0.0
H2092 H 0.30712 0.3922 0.20996 0.0
H2093 H 0.28475 0.38545 0.18419 0.0
H2094 H 0.26318 0.29963 0.15738 0.0
H2095 H 0.26159 0.29002 0.19903 0.0
H2096 H 0.31185 0.35136 0.22843 0.0
C2097 C 0.31462 0.3737 0.13287 0.0
C2098 C 0.30707 0.36354 0.10807 0.0
C2099 C 0.29144 0.34213 0.10338 0.0
C2100 C 0.28369 0.33064 0.12261 0.0
C2101 C 0.29164 0.34071 0.14674 0.0
C2102 C 0.30663 0.36179 0.15215 0.0
C2103 C 0.31314 0.36775 0.18005 0.0
C2104 C 0.33912 0.37192 0.18739 0.0
C2105 C 0.30357 0.38866 0.18957 0.0
C2106 C 0.30086 0.346 0.1891 0.0
C2107 C 0.28797 0.33118 0.16944 0.0
C2108 C 0.27403 0.31067 0.17274 0.0
C2109 C 0.27389 0.30469 0.19653 0.0
C2110 C 0.28851 0.31802 0.21694 0.0
C2111 C 0.30138 0.33978 0.21325 0.0
H2112 H 0.24678 0.94834 0.01713 0.0
H2113 H 0.28754 1.0108 0.99877 0.0
H2114 H 0.25555 0.03081 1.00407 0.0
H2115 H 0.18923 0.95671 0.99129 0.0
H2116 H 0.17673 0.94535 0.01678 0.0
H2117 H 0.20031 0.93465 0.00562 0.0
H2118 H 0.22334 0.9446 0.04935 0.0
H2119 H 0.1999 0.95497 0.06067 0.0
H2120 H 0.22781 0.97357 0.06498 0.0
H2121 H 0.2228 0.04475 0.01697 0.0
H2122 H 0.19428 0.05397 0.0434 0.0
H2123 H 0.17622 0.9824 0.05447 0.0
C2124 C 0.2487 0.9661 0.01364 0.0
C2125 C 0.26908 0.97828 0.00745 0.0
C2126 C 0.27171 1.00154 1.00367 0.0
C2127 C 0.2536 0.01273 0.00609 0.0
C2128 C 0.23344 1.00012 0.01215 0.0
C2129 C 0.23109 0.97738 0.01621 0.0
C2130 C 0.2099 0.96885 0.02726 0.0
C2131 C 0.19304 0.9503 0.00914 0.0
C2132 C 0.21561 0.96002 0.05202 0.0
C2133 C 0.20148 0.99092 0.03055 0.0
C2134 C 0.21466 1.00847 0.02067 0.0
C2135 C 0.21202 0.03118 0.02433 0.0
C2136 C 0.19615 0.03629 0.03947 0.0
C2137 C 0.18396 0.01875 0.0509 0.0
C2138 C 0.18576 0.9958 0.04568 0.0
H2139 H 0.70254 0.62777 0.98512 0.0
H2140 H 0.7117 0.67211 0.05463 0.0
H2141 H 0.67936 0.64656 0.06788 0.0
H2142 H 0.64291 0.61591 0.97533 0.0
H2143 H 0.63879 0.58583 0.96336 0.0
H2144 H 0.66477 0.60538 0.96029 0.0
H2145 H 0.68839 0.57961 0.98206 0.0
H2146 H 0.66238 0.55998 0.98524 0.0
H2147 H 0.68273 0.57245 0.01196 0.0
H2148 H 0.64682 0.61624 0.07444 0.0
H2149 H 0.61125 0.58675 0.07092 0.0
H2150 H 0.61804 0.56497 0.99515 0.0
C2151 C 0.69793 0.63173 1.00327 0.0
C2152 C 0.7098 0.65181 0.01904 0.0
C2153 C 0.70298 0.65672 0.04243 0.0
C2154 C 0.68469 0.64226 0.05017 0.0
C2155 C 0.67313 0.62279 0.0343 0.0
C2156 C 0.67926 0.61747 0.01125 0.0
C2157 C 0.66261 0.59623 0.99741 0.0
C2158 C 0.65161 0.60116 0.97263 0.0
C2159 C 0.67475 0.57586 0.99395 0.0
C2160 C 0.64527 0.59186 0.01543 0.0
C2161 C 0.65255 0.6066 0.03712 0.0
C2162 C 0.64067 0.60493 0.05736 0.0
C2163 C 0.62043 0.58825 0.05518 0.0
C2164 C 0.61136 0.5745 0.0325 0.0
C2165 C 0.62425 0.57589 0.01248 0.0
H2166 H 0.68983 0.50949 0.26404 0.0
H2167 H 0.66635 0.49142 0.33208 0.0
H2168 H 0.68816 0.45995 0.33137 0.0
H2169 H 0.68457 0.45029 0.23699 0.0
H2170 H 0.70855 0.45751 0.22041 0.0
H2171 H 0.69149 0.47845 0.22744 0.0
H2172 H 0.72822 0.50717 0.24885 0.0
H2173 H 0.74525 0.48601 0.24255 0.0
H2174 H 0.74568 0.49897 0.2737 0.0
H2175 H 0.71226 0.42988 0.32199 0.0
H2176 H 0.73198 0.4013 0.30236 0.0
H2177 H 0.73999 0.44093 0.2414 0.0
C2178 C 0.68921 0.49878 0.27868 0.0
C2179 C 0.67649 0.50254 0.29801 0.0
C2180 C 0.67584 0.48833 0.31692 0.0
C2181 C 0.68835 0.4707 0.31679 0.0
C2182 C 0.70105 0.46756 0.29749 0.0
C2183 C 0.70113 0.48097 0.27856 0.0
C2184 C 0.71461 0.47325 0.25898 0.0
C2185 C 0.69887 0.46435 0.23452 0.0
C2186 C 0.73464 0.4925 0.25586 0.0
C2187 C 0.72278 0.45382 0.2701 0.0
C2188 C 0.71479 0.45062 0.29225 0.0
C2189 C 0.71871 0.43234 0.30473 0.0
C2190 C 0.73007 0.41631 0.29357 0.0
C2191 C 0.7372 0.41879 0.27022 0.0
C2192 C 0.73447 0.43842 0.25911 0.0
H2193 H 0.88413 0.4791 0.53743 0.0
H2194 H 0.88323 0.45327 0.46064 0.0
H2195 H 0.92301 0.47359 0.4622 0.0
H2196 H 0.92256 0.53678 0.5361 0.0
H2197 H 0.93719 0.53686 0.56642 0.0
H2198 H 0.90757 0.52283 0.55871 0.0
H2199 H 0.91779 0.48517 0.57196 0.0
H2200 H 0.94745 0.49918 0.57895 0.0
H2201 H 0.93907 0.47301 0.55759 0.0
H2202 H 0.96277 0.48596 0.47413 0.0
H2203 H 1.00117 0.50693 0.49071 0.0
H2204 H 0.97731 0.53143 0.55799 0.0
C2205 C 0.89222 0.47865 0.52085 0.0
C2206 C 0.88131 0.46476 0.49894 0.0
C2207 C 0.89189 0.46388 0.47748 0.0
C2208 C 0.91431 0.47515 0.47825 0.0
C2209 C 0.92538 0.48718 0.50057 0.0
C2210 C 0.91471 0.49005 0.52126 0.0
C2211 C 0.93131 0.50376 0.54283 0.0
C2212 C 0.92424 0.52642 0.55151 0.0
C2213 C 0.93405 0.48941 0.56407 0.0
C2214 C 0.95279 0.50785 0.53074 0.0
C2215 C 0.94885 0.49703 0.50677 0.0
C2216 C 0.96604 0.49541 0.49245 0.0
C2217 C 0.98778 0.50704 0.50215 0.0
C2218 C 0.99164 0.52102 0.52509 0.0
C2219 C 0.97438 0.52086 0.54025 0.0
H2220 H 0.35518 0.06119 0.28285 0.0
H2221 H 0.38085 0.09495 0.3569 0.0
H2222 H 0.36394 0.12849 0.34799 0.0
H2223 H 0.3707 0.11158 0.25634 0.0
H2224 H 0.34731 0.10339 0.23169 0.0
H2225 H 0.35896 0.08157 0.24563 0.0
H2226 H 0.31842 0.06352 0.25479 0.0
H2227 H 0.30668 0.08573 0.24158 0.0
H2228 H 0.30298 0.08083 0.27268 0.0
H2229 H 0.34827 0.15858 0.3295 0.0
H2230 H 0.33691 0.18543 0.30203 0.0
H2231 H 0.32106 0.13038 0.24054 0.0
C2232 C 0.35649 0.07537 0.29737 0.0
C2233 C 0.3682 0.0758 0.32063 0.0
C2234 C 0.37119 0.09476 0.3391 0.0
C2235 C 0.36167 0.11357 0.33425 0.0
C2236 C 0.34991 0.11263 0.31088 0.0
C2237 C 0.34772 0.09421 0.29267 0.0
C2238 C 0.33743 0.09855 0.26818 0.0
C2239 C 0.35463 0.09878 0.24938 0.0
C2240 C 0.31502 0.08113 0.25877 0.0
C2241 C 0.33355 0.12219 0.2755 0.0
C2242 C 0.34094 0.13009 0.30013 0.0
C2243 C 0.34194 0.15257 0.31032 0.0
C2244 C 0.33561 0.16758 0.29462 0.0
C2245 C 0.32835 0.15967 0.26929 0.0
C2246 C 0.32676 0.1367 0.25981 0.0
H2247 H 0.31925 0.13101 0.53704 0.0
H2248 H 0.35661 0.18951 0.50797 0.0
H2249 H 0.39064 0.1717 0.50951 0.0
H2250 H 0.36477 0.12477 0.57958 0.0
H2251 H 0.35672 0.09379 0.57597 0.0
H2252 H 0.3353 0.11058 0.57055 0.0
H2253 H 0.32299 0.08763 0.52675 0.0
H2254 H 0.34481 0.07113 0.53198 0.0
H2255 H 0.34394 0.08677 0.50587 0.0
H2256 H 0.42126 0.14824 0.5169 0.0
H2257 H 0.44634 0.12339 0.53361 0.0
H2258 H 0.38787 0.08065 0.55655 0.0
C2259 C 0.33452 0.14005 0.53081 0.0
C2260 C 0.33536 0.1616 0.52237 0.0
C2261 C 0.35571 0.17299 0.51462 0.0
C2262 C 0.375 0.16292 0.5152 0.0
C2263 C 0.37351 0.1415 0.52348 0.0
C2264 C 0.35379 0.13034 0.53132 0.0
C2265 C 0.3569 0.10841 0.54118 0.0
C2266 C 0.35321 0.10947 0.56843 0.0
C2267 C 0.34122 0.08724 0.5255 0.0
C2268 C 0.38155 0.10909 0.5381 0.0
C2269 C 0.3909 0.12809 0.52758 0.0
C2270 C 0.41404 0.13312 0.52482 0.0
C2271 C 0.4281 0.11888 0.53412 0.0
C2272 C 0.41878 0.10017 0.54607 0.0
C2273 C 0.39517 0.09472 0.5471 0.0
H2274 H 0.69662 0.64519 0.33958 0.0
H2275 H 0.67677 0.61513 0.2634 0.0
H2276 H 0.70469 0.64621 0.25061 0.0
H2277 H 0.70427 0.70324 0.33227 0.0
H2278 H 0.72989 0.71316 0.35397 0.0
H2279 H 0.70997 0.68749 0.35756 0.0
H2280 H 0.74227 0.66435 0.3573 0.0
H2281 H 0.76232 0.69006 0.35378 0.0
H2282 H 0.75879 0.66446 0.33199 0.0
H2283 H 0.7341 0.68089 0.24584 0.0
H2284 H 0.76145 0.71814 0.24931 0.0
H2285 H 0.76112 0.72752 0.32817 0.0
C2286 C 0.69842 0.64513 0.32029 0.0
C2287 C 0.68459 0.62783 0.30241 0.0
C2288 C 0.68734 0.62819 0.27732 0.0
C2289 C 0.70317 0.64574 0.2699 0.0
C2290 C 0.71646 0.66269 0.28784 0.0
C2291 C 0.71447 0.66246 0.31255 0.0
C2292 C 0.73073 0.68304 0.32791 0.0
C2293 C 0.71793 0.6976 0.34386 0.0
C2294 C 0.74964 0.675 0.34369 0.0
C2295 C 0.74055 0.69585 0.3079 0.0
C2296 C 0.73281 0.68326 0.28499 0.0
C2297 C 0.74021 0.6909 0.26368 0.0
C2298 C 0.75576 0.71202 0.26582 0.0
C2299 C 0.76296 0.72578 0.28891 0.0
C2300 C 0.75544 0.71748 0.31025 0.0
H2301 H 0.8669 0.45278 0.77984 0.0
H2302 H 0.88844 0.45545 0.85793 0.0
H2303 H 0.86832 0.41522 0.85648 0.0
H2304 H 0.81004 0.41697 0.77809 0.0
H2305 H 0.81075 0.40058 0.74884 0.0
H2306 H 0.82636 0.42992 0.75584 0.0
H2307 H 0.86321 0.41613 0.74641 0.0
H2308 H 0.84772 0.38664 0.74018 0.0
H2309 H 0.87263 0.39451 0.76301 0.0
H2310 H 0.85387 0.37506 0.84579 0.0
H2311 H 0.83081 0.33696 0.8299 0.0
H2312 H 0.81125 0.36066 0.7607 0.0
C2313 C 0.86686 0.44477 0.79653 0.0
C2314 C 0.87909 0.45639 0.81898 0.0
C2315 C 0.87915 0.44613 0.84071 0.0
C2316 C 0.868 0.4235 0.84 0.0
C2317 C 0.85712 0.41188 0.81741 0.0
C2318 C 0.85561 0.42211 0.79618 0.0
C2319 C 0.8421 0.40529 0.77467 0.0
C2320 C 0.82104 0.41369 0.76374 0.0
C2321 C 0.85733 0.40037 0.7549 0.0
C2322 C 0.83572 0.38446 0.78765 0.0
C2323 C 0.84587 0.38856 0.81186 0.0
C2324 C 0.8451 0.37169 0.82717 0.0
C2325 C 0.83215 0.35018 0.81798 0.0
C2326 C 0.81908 0.34647 0.79455 0.0
C2327 C 0.82124 0.36337 0.7787 0.0
H2328 H 0.06448 0.88689 0.12237 0.0
H2329 H 0.08414 0.8541 0.05643 0.0
H2330 H 0.07975 0.88809 0.03569 0.0
H2331 H 0.02163 0.91377 0.08962 0.0
H2332 H 0.02749 0.93959 0.11148 0.0
H2333 H 0.03207 0.91276 0.12127 0.0
H2334 H 0.07392 0.93182 0.13825 0.0
H2335 H 0.06941 0.95867 0.12857 0.0
H2336 H 0.09219 0.94596 0.11827 0.0
H2337 H 0.07137 0.92659 0.02065 0.0
H2338 H 0.06287 0.96475 0.01451 0.0
H2339 H 0.05038 0.97523 0.09023 0.0
C2340 C 0.06803 0.88677 0.10358 0.0
C2341 C 0.07488 0.86702 0.09139 0.0
C2342 C 0.07895 0.86834 0.06662 0.0
C2343 C 0.07643 0.88786 0.05454 0.0
C2344 C 0.0696 0.90675 0.06696 0.0
C2345 C 0.0655 0.90635 0.09107 0.0
C2346 C 0.05804 0.92887 0.10012 0.0
C2347 C 0.03335 0.92343 0.10599 0.0
C2348 C 0.07437 0.94212 0.12264 0.0
C2349 C 0.05943 0.9424 0.07784 0.0
C2350 C 0.06561 0.92897 0.05868 0.0
C2351 C 0.06677 0.93708 0.03579 0.0
C2352 C 0.06179 0.95904 0.03237 0.0
C2353 C 0.05611 0.97383 0.05168 0.0
C2354 C 0.05499 0.96498 0.07489 0.0
H2355 H 0.9405 0.30965 0.92462 0.0
H2356 H 0.95387 0.24393 0.89531 0.0
H2357 H 0.92158 0.23968 0.86198 0.0
H2358 H 0.87988 0.29805 0.91209 0.0
H2359 H 0.87855 0.32571 0.90232 0.0
H2360 H 0.90241 0.32279 0.92347 0.0
H2361 H 0.92959 0.33981 0.89367 0.0
H2362 H 0.90541 0.34203 0.87234 0.0
H2363 H 0.92612 0.32612 0.86236 0.0
H2364 H 0.88639 0.2422 0.83176 0.0
H2365 H 0.85326 0.25173 0.80725 0.0
H2366 H 0.86269 0.31653 0.85469 0.0
C2367 C 0.93658 0.29431 0.91122 0.0
C2368 C 0.94972 0.2769 0.91306 0.0
C2369 C 0.9442 0.25745 0.89462 0.0
C2370 C 0.92577 0.2549 0.87553 0.0
C2371 C 0.91307 0.27223 0.87438 0.0
C2372 C 0.91856 0.29179 0.89151 0.0
C2373 C 0.90291 0.30837 0.8854 0.0
C2374 C 0.89016 0.31403 0.90712 0.0
C2375 C 0.91683 0.3304 0.87802 0.0
C2376 C 0.88664 0.29448 0.86328 0.0
C2377 C 0.89318 0.27384 0.85691 0.0
C2378 C 0.88127 0.25833 0.83672 0.0
C2379 C 0.86237 0.2639 0.82281 0.0
C2380 C 0.85501 0.28474 0.82896 0.0
C2381 C 0.86752 0.30027 0.84958 0.0
H2382 H 0.5522 0.22205 0.60835 0.0
H2383 H 0.59592 0.24139 0.55306 0.0
H2384 H 0.59326 0.20115 0.53813 0.0
H2385 H 0.57392 0.17066 0.62105 0.0
H2386 H 0.54669 0.15254 0.62296 0.0
H2387 H 0.55078 0.18338 0.63031 0.0
H2388 H 0.51622 0.18352 0.59814 0.0
H2389 H 0.51207 0.15265 0.59078 0.0
H2390 H 0.51567 0.17079 0.56687 0.0
H2391 H 0.58706 0.15881 0.52749 0.0
H2392 H 0.57682 0.11674 0.52224 0.0
H2393 H 0.53776 0.11942 0.5835 0.0
C2394 C 0.56118 0.2179 0.59308 0.0
C2395 C 0.57454 0.23615 0.58238 0.0
C2396 C 0.58566 0.22889 0.56224 0.0
C2397 C 0.58428 0.2056 0.55331 0.0
C2398 C 0.57149 0.18844 0.56414 0.0
C2399 C 0.55989 0.194 0.58347 0.0
C2400 C 0.54721 0.17119 0.59098 0.0
C2401 C 0.55512 0.16934 0.61794 0.0
C2402 C 0.52124 0.16944 0.58644 0.0
C2403 C 0.55428 0.15247 0.57349 0.0
C2404 C 0.56811 0.1632 0.55806 0.0
C2405 C 0.57653 0.15031 0.53984 0.0
C2406 C 0.57094 0.12603 0.53724 0.0
C2407 C 0.55736 0.11387 0.55294 0.0
C2408 C 0.5486 0.12768 0.57126 0.0
H2409 H 0.58428 0.81701 0.422 0.0
H2410 H 0.5722 0.74278 0.41766 0.0
H2411 H 0.60601 0.74232 0.39551 0.0
H2412 H 0.59964 0.81724 0.36081 0.0
H2413 H 0.61984 0.84426 0.36845 0.0
H2414 H 0.59564 0.83838 0.38497 0.0
H2415 H 0.62275 0.84593 0.42631 0.0
H2416 H 0.64697 0.85209 0.40991 0.0
H2417 H 0.64541 0.83019 0.43009 0.0
H2418 H 0.64065 0.751 0.36993 0.0
H2419 H 0.67078 0.76766 0.34575 0.0
H2420 H 0.66115 0.83603 0.37203 0.0
C2421 C 0.58912 0.80073 0.41689 0.0
C2422 C 0.57606 0.77998 0.42199 0.0
C2423 C 0.5823 0.7589 0.41418 0.0
C2424 C 0.60142 0.7585 0.40153 0.0
C2425 C 0.61393 0.77934 0.39649 0.0
C2426 C 0.60786 0.80003 0.404 0.0
C2427 C 0.62282 0.81994 0.39512 0.0
C2428 C 0.60864 0.83058 0.37624 0.0
C2429 C 0.63524 0.8381 0.41665 0.0
C2430 C 0.63917 0.80763 0.38279 0.0
C2431 C 0.63353 0.78414 0.38283 0.0
C2432 C 0.64525 0.76947 0.37011 0.0
C2433 C 0.66258 0.77912 0.35654 0.0
C2434 C 0.66833 0.8033 0.35612 0.0
C2435 C 0.65696 0.81745 0.37065 0.0
H2436 H 0.06706 0.27808 0.43956 0.0
H2437 H 0.04588 0.24916 0.36324 0.0
H2438 H 0.04255 0.20975 0.37516 0.0
H2439 H 0.09934 0.23327 0.45681 0.0
H2440 H 0.09034 0.23448 0.48692 0.0
H2441 H 0.0942 0.2599 0.47164 0.0
H2442 H 0.0527 0.26388 0.47644 0.0
H2443 H 0.04882 0.23865 0.49176 0.0
H2444 H 0.02946 0.2399 0.46484 0.0
H2445 H 0.03646 0.17353 0.39694 0.0
H2446 H 0.02771 0.14493 0.42577 0.0
H2447 H 0.05349 0.19826 0.48737 0.0
C2448 C 0.06238 0.26346 0.42522 0.0
C2449 C 0.05702 0.26664 0.40041 0.0
C2450 C 0.05057 0.24711 0.38225 0.0
C2451 C 0.04852 0.22469 0.38892 0.0
C2452 C 0.05341 0.22219 0.41375 0.0
C2453 C 0.06047 0.24118 0.43153 0.0
C2454 C 0.06312 0.23424 0.45709 0.0
C2455 C 0.08825 0.24087 0.46881 0.0
C2456 C 0.04759 0.24478 0.47347 0.0
C2457 C 0.0554 0.20836 0.45121 0.0
C2458 C 0.05024 0.20159 0.4261 0.0
C2459 C 0.04103 0.17862 0.41654 0.0
C2460 C 0.03635 0.16241 0.43301 0.0
C2461 C 0.04074 0.16926 0.45872 0.0
C2462 C 0.0509 0.19242 0.4678 0.0
H2463 H 0.61161 0.23986 0.2285 0.0
H2464 H 0.60915 0.31146 0.22457 0.0
H2465 H 0.65049 0.32254 0.23893 0.0
H2466 H 0.65676 0.25367 0.28633 0.0
H2467 H 0.67038 0.23044 0.27663 0.0
H2468 H 0.64009 0.22783 0.26807 0.0
H2469 H 0.64519 0.21931 0.22236 0.0
H2470 H 0.67548 0.22214 0.23083 0.0
H2471 H 0.66511 0.23954 0.20918 0.0
H2472 H 0.69336 0.32596 0.24801 0.0
H2473 H 0.73334 0.32226 0.25712 0.0
H2474 H 0.71072 0.24932 0.26053 0.0
C2475 C 0.61952 0.258 0.23183 0.0
C2476 C 0.60623 0.27487 0.2261 0.0
C2477 C 0.61813 0.2982 0.22959 0.0
C2478 C 0.64192 0.30467 0.2375 0.0
C2479 C 0.65442 0.28781 0.24249 0.0
C2480 C 0.64357 0.26496 0.2406 0.0
C2481 C 0.66155 0.25055 0.24743 0.0
C2482 C 0.65692 0.23998 0.27101 0.0
C2483 C 0.66184 0.23177 0.22618 0.0
C2484 C 0.68413 0.26864 0.25203 0.0
C2485 C 0.67937 0.29 0.24898 0.0
C2486 C 0.69709 0.30931 0.25078 0.0
C2487 C 0.72002 0.30698 0.25586 0.0
C2488 C 0.72592 0.28555 0.25961 0.0
C2489 C 0.70732 0.26608 0.25794 0.0
H2490 H 0.57392 0.91228 0.89019 0.0
H2491 H 0.54641 0.85903 0.93291 0.0
H2492 H 0.53931 0.88821 0.96384 0.0
H2493 H 0.60265 0.95371 0.94298 0.0
H2494 H 0.59619 0.9788 0.93057 0.0
H2495 H 0.5985 0.95386 0.91017 0.0
H2496 H 0.55793 0.95211 0.888 0.0
H2497 H 0.55552 0.97707 0.90834 0.0
H2498 H 0.53433 0.9508 0.90563 0.0
H2499 H 0.53445 0.92216 0.9909 0.0
H2500 H 0.53355 0.95953 0.0134 0.0
H2501 H 0.56616 0.99412 0.95738 0.0
C2502 C 0.56622 0.90677 0.90593 0.0
C2503 C 0.56058 0.88278 0.90847 0.0
C2504 C 0.55079 0.87681 0.9298 0.0
C2505 C 0.54666 0.89344 0.94781 0.0
C2506 C 0.55244 0.9166 0.94493 0.0
C2507 C 0.56207 0.92351 0.92466 0.0
C2508 C 0.56697 0.94997 0.92705 0.0
C2509 C 0.59261 0.95966 0.92773 0.0
C2510 C 0.55285 0.95797 0.906 0.0
C2511 C 0.55895 0.95657 0.95187 0.0
C2512 C 0.55043 0.93679 0.9615 0.0
C2513 C 0.54149 0.93778 0.98373 0.0
C2514 C 0.54142 0.95936 0.99672 0.0
C2515 C 0.55072 0.9803 0.98818 0.0
C2516 C 0.55931 0.97868 0.96498 0.0
H2517 H 0.95946 0.74137 0.74867 0.0
H2518 H 0.97056 0.79637 0.70333 0.0
H2519 H 0.93523 0.80787 0.71364 0.0
H2520 H 0.89722 0.72614 0.7312 0.0
H2521 H 0.89044 0.72003 0.7611 0.0
H2522 H 0.91753 0.7164 0.75194 0.0
H2523 H 0.93861 0.74385 0.79056 0.0
H2524 H 0.91154 0.7475 0.79976 0.0
H2525 H 0.93268 0.77232 0.79624 0.0
H2526 H 0.89806 0.81453 0.72885 0.0
H2527 H 0.86126 0.81346 0.74472 0.0
H2528 H 0.86964 0.75318 0.77897 0.0
C2529 C 0.9546 0.75595 0.74105 0.0
C2530 C 0.96866 0.76797 0.72501 0.0
C2531 C 0.96075 0.78667 0.71547 0.0
C2532 C 0.94046 0.79348 0.72134 0.0
C2533 C 0.92706 0.78138 0.73674 0.0
C2534 C 0.93361 0.7628 0.74635 0.0
C2535 C 0.91501 0.75233 0.76154 0.0
C2536 C 0.90443 0.72722 0.75081 0.0
C2537 C 0.92506 0.75409 0.78864 0.0
C2538 C 0.89714 0.76769 0.75873 0.0
C2539 C 0.90487 0.7846 0.74465 0.0
C2540 C 0.89202 0.80125 0.73983 0.0
C2541 C 0.87095 0.80068 0.74926 0.0
C2542 C 0.86194 0.78355 0.76353 0.0
C2543 C 0.87553 0.76663 0.76812 0.0
H2544 H 0.11809 0.02372 0.8658 0.0
H2545 H 0.1364 0.09809 0.87113 0.0
H2546 H 0.1188 0.10161 0.90955 0.0
H2547 H 0.06302 0.02231 0.88914 0.0
H2548 H 0.06485 0.99807 0.90551 0.0
H2549 H 0.07857 1.00111 0.87828 0.0
H2550 H 0.11724 0.99918 0.90271 0.0
H2551 H 0.10362 0.99596 0.92994 0.0
H2552 H 0.12804 0.01893 0.93046 0.0
H2553 H 0.09694 0.09719 0.94603 0.0
H2554 H 0.07668 0.08538 0.98062 0.0
H2555 H 0.07495 0.01376 0.95492 0.0
C2556 C 0.11844 0.04073 0.87519 0.0
C2557 C 0.12871 0.06074 0.86547 0.0
C2558 C 0.12867 0.08262 0.87817 0.0
C2559 C 0.11864 0.08474 0.9 0.0
C2560 C 0.10852 0.0648 0.90904 0.0
C2561 C 0.10842 0.04316 0.89714 0.0
C2562 C 0.09631 0.02457 0.91093 0.0
C2563 C 0.07439 1.01068 0.89502 0.0
C2564 C 0.11227 1.00872 0.91899 0.0
C2565 C 0.09057 0.03909 0.93301 0.0
C2566 C 0.09715 0.06227 0.93102 0.0
C2567 C 0.09224 0.07912 0.94801 0.0
C2568 C 0.08076 0.07225 0.9677 0.0
C2569 C 0.07516 0.04879 0.97124 0.0
C2570 C 0.07983 0.03192 0.95332 0.0
H2571 H 0.82671 0.42954 0.58195 0.0
H2572 H 0.77751 0.37347 0.53819 0.0
H2573 H 0.76908 0.35626 0.57544 0.0
H2574 H 0.8535 0.39989 0.61242 0.0
H2575 H 0.85942 0.41669 0.64245 0.0
H2576 H 0.85395 0.43043 0.61592 0.0
H2577 H 0.82107 0.44547 0.63456 0.0
H2578 H 0.82646 0.43155 0.66139 0.0
H2579 H 0.79828 0.42553 0.64415 0.0
H2580 H 0.77586 0.33861 0.61136 0.0
H2581 H 0.79719 0.32227 0.64346 0.0
H2582 H 0.84317 0.3883 0.66515 0.0
C2583 C 0.81324 0.41439 0.58075 0.0
C2584 C 0.80251 0.40268 0.55781 0.0
C2585 C 0.78564 0.38248 0.556 0.0
C2586 C 0.7806 0.37282 0.57706 0.0
C2587 C 0.79274 0.38361 0.59958 0.0
C2588 C 0.80852 0.40428 0.6017 0.0
C2589 C 0.82323 0.40931 0.62646 0.0
C2590 C 0.84901 0.41432 0.62412 0.0
C2591 C 0.81686 0.42914 0.64259 0.0
C2592 C 0.81576 0.38674 0.63606 0.0
C2593 C 0.7972 0.37275 0.62106 0.0
C2594 C 0.78977 0.34965 0.6238 0.0
C2595 C 0.80208 0.34042 0.64174 0.0
C2596 C 0.82167 0.35428 0.65611 0.0
C2597 C 0.82803 0.37776 0.65409 0.0
H2598 H 0.42715 0.9951 0.38969 0.0
H2599 H 0.43166 0.06742 0.38274 0.0
H2600 H 0.46707 0.07756 0.4122 0.0
H2601 H 0.44657 1.00364 0.45524 0.0
H2602 H 0.46092 0.97969 0.45189 0.0
H2603 H 0.43613 0.98011 0.43079 0.0
H2604 H 0.46127 0.97426 0.39579 0.0
H2605 H 0.48616 0.97609 0.41786 0.0
H2606 H 0.48682 0.99551 0.39499 0.0
H2607 H 0.49993 0.0799 0.44228 0.0
H2608 H 0.52582 0.07513 0.4783 0.0
H2609 H 0.50105 1.00113 0.46469 0.0
C2610 C 0.43521 0.01306 0.3953 0.0
C2611 C 0.42679 0.03066 0.38513 0.0
C2612 C 0.43783 0.054 0.39157 0.0
C2613 C 0.45811 0.05979 0.40759 0.0
C2614 C 0.46667 0.04192 0.41665 0.0
C2615 C 0.45535 0.01914 0.41134 0.0
C2616 C 0.46735 1.00352 0.42498 0.0
C2617 C 0.45179 0.99104 0.44175 0.0
C2618 C 0.47592 0.98634 0.40733 0.0
C2619 C 0.48682 0.02123 0.43944 0.0
C2620 C 0.48637 0.04322 0.43381 0.0
C2621 C 0.50079 0.06285 0.44674 0.0
C2622 C 0.51518 0.06004 0.46707 0.0
C2623 C 0.51478 0.03782 0.47366 0.0
C2624 C 0.50151 0.01812 0.45926 0.0
H2625 H 0.74898 0.7101 0.09904 0.0
H2626 H 0.81971 0.72444 0.08613 0.0
H2627 H 0.8313 0.74212 0.12956 0.0
H2628 H 0.74845 0.75936 0.1388 0.0
H2629 H 0.73126 0.7454 0.15979 0.0
H2630 H 0.72851 0.73251 0.12827 0.0
H2631 H 0.73734 0.69475 0.14229 0.0
H2632 H 0.73962 0.70736 0.1739 0.0
H2633 H 0.7629 0.69588 0.1631 0.0
H2634 H 0.83482 0.76077 0.17366 0.0
H2635 H 0.83092 0.77506 0.21634 0.0
H2636 H 0.75792 0.74796 0.20201 0.0
C2637 C 0.76696 0.71655 0.10557 0.0
C2638 C 0.7835 0.71579 0.08921 0.0
C2639 C 0.80682 0.72451 0.09836 0.0
C2640 C 0.81351 0.73476 0.12298 0.0
C2641 C 0.79674 0.73571 0.1385 0.0
C2642 C 0.774 0.72627 0.13034 0.0
C2643 C 0.75952 0.72905 0.15105 0.0
C2644 C 0.74083 0.74238 0.14405 0.0
C2645 C 0.74923 0.70536 0.15799 0.0
C2646 C 0.77739 0.74284 0.1717 0.0
C2647 C 0.7988 0.74618 0.16406 0.0
C2648 C 0.81816 0.75805 0.1798 0.0
C2649 C 0.81576 0.76618 0.20404 0.0
C2650 C 0.79415 0.76282 0.21255 0.0
C2651 C 0.77462 0.75116 0.19598 0.0
H2652 H 0.12143 0.0275 0.71743 0.0
H2653 H 0.10869 0.09572 0.73923 0.0
H2654 H 0.09251 0.09733 0.69727 0.0
H2655 H 0.13717 0.04033 0.65572 0.0
H2656 H 0.1233 0.01231 0.63975 0.0
H2657 H 0.13473 0.01541 0.6718 0.0
H2658 H 0.09513 0.99596 0.68168 0.0
H2659 H 0.08365 0.99303 0.64967 0.0
H2660 H 0.07051 1.00775 0.67264 0.0
H2661 H 0.07195 0.09025 0.65647 0.0
H2662 H 0.05578 0.07858 0.61374 0.0
H2663 H 0.08654 0.01866 0.61115 0.0
C2664 C 0.11559 0.04288 0.71317 0.0
C2665 C 0.11601 0.06138 0.73213 0.0
C2666 C 0.10817 0.08111 0.72552 0.0
C2667 C 0.09888 0.08226 0.70159 0.0
C2668 C 0.09773 0.06372 0.68371 0.0
C2669 C 0.10634 0.04457 0.68864 0.0
C2670 C 0.10289 0.02763 0.6648 0.0
C2671 C 0.12591 0.02369 0.6576 0.0
C2672 C 0.08712 1.00473 0.66736 0.0
C2673 C 0.09122 0.04056 0.64626 0.0
C2674 C 0.088 0.06098 0.65816 0.0
C2675 C 0.07546 0.07493 0.64653 0.0
C2676 C 0.06663 0.06843 0.62179 0.0
C2677 C 0.07127 0.04894 0.60791 0.0
C2678 C 0.08344 0.03438 0.62068 0.0
H2679 H 0.83139 0.38873 0.44928 0.0
H2680 H 0.79169 0.43521 0.41892 0.0
H2681 H 0.78118 0.40861 0.38014 0.0
H2682 H 0.85321 0.37092 0.39325 0.0
H2683 H 0.85121 0.34169 0.39979 0.0
H2684 H 0.85607 0.36498 0.42465 0.0
H2685 H 0.82042 0.34427 0.4421 0.0
H2686 H 0.81507 0.32129 0.41682 0.0
H2687 H 0.79314 0.33708 0.42293 0.0
H2688 H 0.77021 0.37513 0.34864 0.0
H2689 H 0.768 0.34087 0.31914 0.0
H2690 H 0.81929 0.31871 0.3674 0.0
C2691 C 0.82099 0.39354 0.4342 0.0
C2692 C 0.81229 0.41379 0.43672 0.0
C2693 C 0.79865 0.41975 0.41694 0.0
C2694 C 0.79232 0.40467 0.39513 0.0
C2695 C 0.80016 0.38419 0.39372 0.0
C2696 C 0.81474 0.37888 0.41231 0.0
C2697 C 0.82099 0.35589 0.40579 0.0
C2698 C 0.84691 0.35854 0.40586 0.0
C2699 C 0.81186 0.33862 0.42294 0.0
C2700 C 0.80811 0.34948 0.38026 0.0
C2701 C 0.79549 0.36563 0.37422 0.0
C2702 C 0.7807 0.36279 0.35259 0.0
C2703 C 0.77983 0.34345 0.33588 0.0
C2704 C 0.79465 0.32815 0.34047 0.0
C2705 C 0.80828 0.33058 0.3633 0.0
H2706 H 0.4257 0.05333 0.24856 0.0
H2707 H 0.44129 0.99531 0.28341 0.0
H2708 H 0.46496 0.9868 0.25167 0.0
H2709 H 0.42069 0.022 0.18493 0.0
H2710 H 0.43209 0.04805 0.17284 0.0
H2711 H 0.41634 0.04942 0.19864 0.0
H2712 H 0.45116 0.0793 0.22242 0.0
H2713 H 0.46752 0.07651 0.19719 0.0
H2714 H 0.47855 0.0713 0.22729 0.0
H2715 H 0.4923 0.98935 0.22351 0.0
H2716 H 0.50484 0.98518 0.18279 0.0
H2717 H 0.46674 0.03582 0.15996 0.0
C2718 C 0.43368 0.03855 0.24895 0.0
C2719 C 0.43291 0.02558 0.26877 0.0
C2720 C 0.44269 1.00587 0.26867 0.0
C2721 C 0.45635 1.00111 0.25104 0.0
C2722 C 0.45915 0.01578 0.23334 0.0
C2723 C 0.44678 0.03283 0.23073 0.0
C2724 C 0.45101 0.04367 0.20764 0.0
C2725 C 0.4287 0.04057 0.18997 0.0
C2726 C 0.46276 0.06922 0.21402 0.0
C2727 C 0.4672 0.02942 0.19774 0.0
C2728 C 0.47284 0.01484 0.21413 0.0
C2729 C 0.48768 1.00012 0.21004 0.0
C2730 C 0.49481 0.99801 0.1871 0.0
C2731 C 0.48605 1.00971 0.16864 0.0
C2732 C 0.47344 0.02679 0.17416 0.0
H2733 H 0.78746 0.68822 0.93064 0.0
H2734 H 0.76661 0.74186 0.97711 0.0
H2735 H 0.77004 0.76676 0.9445 0.0
H2736 H 0.82921 0.72603 0.90349 0.0
H2737 H 0.82268 0.71001 0.87308 0.0
H2738 H 0.81793 0.6954 0.89952 0.0
H2739 H 0.77561 0.67968 0.88102 0.0
H2740 H 0.78035 0.69424 0.85453 0.0
H2741 H 0.75805 0.69957 0.87227 0.0
H2742 H 0.77461 0.78598 0.90707 0.0
H2743 H 0.78115 0.79891 0.86729 0.0
H2744 H 0.80198 0.73495 0.84422 0.0
C2745 C 0.78332 0.70509 0.93379 0.0
C2746 C 0.77648 0.71288 0.95662 0.0
C2747 C 0.77167 0.73527 0.95995 0.0
C2748 C 0.77362 0.74965 0.94146 0.0
C2749 C 0.7805 0.74164 0.91942 0.0
C2750 C 0.78529 0.71991 0.91535 0.0
C2751 C 0.79266 0.71602 0.88982 0.0
C2752 C 0.81707 0.7116 0.8916 0.0
C2753 C 0.77566 0.69619 0.87345 0.0
C2754 C 0.79153 0.73903 0.88053 0.0
C2755 C 0.78415 0.75333 0.89789 0.0
C2756 C 0.78063 0.775 0.89343 0.0
C2757 C 0.78455 0.78226 0.87064 0.0
C2758 C 0.79249 0.76828 0.85237 0.0
C2759 C 0.79621 0.74633 0.8577 0.0
H2760 H 0.81956 0.09658 0.03401 0.0
H2761 H 0.85147 0.12952 0.10652 0.0
H2762 H 0.88707 0.1157 0.09934 0.0
H2763 H 0.84499 0.04748 0.02721 0.0
H2764 H 0.84916 0.05034 0.99576 0.0
H2765 H 0.82575 0.06014 0.00821 0.0
H2766 H 0.83967 0.10103 0.99653 0.0
H2767 H 0.86284 0.09129 0.98358 0.0
H2768 H 0.8687 0.11595 0.00697 0.0
H2769 H 0.91937 0.10007 0.08214 0.0
H2770 H 0.94666 0.08764 0.05549 0.0
H2771 H 0.8921 0.06757 0.99432 0.0
C2772 C 0.83378 0.10004 0.04872 0.0
C2773 C 0.83297 0.1129 0.07114 0.0
C2774 C 0.85206 0.11881 0.08955 0.0
C2775 C 0.87213 0.11114 0.08558 0.0
C2776 C 0.87247 0.09839 0.06293 0.0
C2777 C 0.85386 0.09337 0.04472 0.0
C2778 C 0.85917 0.08269 0.02079 0.0
C2779 C 0.84387 0.05872 0.01253 0.0
C2780 C 0.85749 0.0987 1.00082 0.0
C2781 C 0.88346 0.08144 0.0285 0.0
C2782 C 0.89104 0.09061 0.05277 0.0
C2783 C 0.91362 0.09275 0.06316 0.0
C2784 C 0.9289 0.08575 0.04799 0.0
C2785 C 0.92127 0.0772 0.02292 0.0
C2786 C 0.89827 0.07445 0.01336 0.0
H2787 H 0.3957 0.42122 0.01486 0.0
H2788 H 0.37469 0.45006 0.08198 0.0
H2789 H 0.40878 0.48194 0.0876 0.0
H2790 H 0.45464 0.43445 0.03542 0.0
H2791 H 0.4635 0.44166 0.00679 0.0
H2792 H 0.43724 0.42136 0.00684 0.0
H2793 H 0.41391 0.44543 0.98224 0.0
H2794 H 0.43999 0.46547 0.98048 0.0
H2795 H 0.41662 0.47564 0.99279 0.0
H2796 H 0.44836 0.5073 0.08841 0.0
H2797 H 0.48643 0.52758 0.08084 0.0
H2798 H 0.47634 0.48775 0.00869 0.0
C2799 C 0.39819 0.4344 0.0306 0.0
C2800 C 0.3828 0.43315 0.04814 0.0
C2801 C 0.3864 0.45075 0.06839 0.0
C2802 C 0.4057 0.46885 0.07174 0.0
C2803 C 0.42078 0.4694 0.05425 0.0
C2804 C 0.41684 0.45297 0.03373 0.0
C2805 C 0.43552 0.45743 0.01759 0.0
C2806 C 0.44846 0.43754 0.01658 0.0
C2807 C 0.42592 0.46123 0.99174 0.0
C2808 C 0.45035 0.47928 0.03185 0.0
C2809 C 0.44208 0.48542 0.05345 0.0
C2810 C 0.45457 0.50313 0.07116 0.0
C2811 C 0.47604 0.51471 0.06666 0.0
C2812 C 0.48423 0.50936 0.04418 0.0
C2813 C 0.47086 0.49185 0.02631 0.0
H2814 H 0.42743 0.59021 0.80976 0.0
H2815 H 0.40647 0.57302 0.73138 0.0
H2816 H 0.38562 0.60525 0.73192 0.0
H2817 H 0.37286 0.59982 0.82097 0.0
H2818 H 0.38407 0.62158 0.84694 0.0
H2819 H 0.39939 0.59924 0.8393 0.0
H2820 H 0.43547 0.63033 0.83676 0.0
H2821 H 0.42016 0.65274 0.84428 0.0
H2822 H 0.43351 0.65192 0.81661 0.0
H2823 H 0.36411 0.63755 0.74264 0.0
H2824 H 0.34289 0.6646 0.76251 0.0
H2825 H 0.37943 0.66008 0.83349 0.0
C2826 C 0.41912 0.59382 0.79261 0.0
C2827 C 0.41909 0.57992 0.77041 0.0
C2828 C 0.40699 0.58406 0.74845 0.0
C2829 C 0.39515 0.60223 0.74862 0.0
C2830 C 0.39526 0.61559 0.77103 0.0
C2831 C 0.40678 0.61134 0.79262 0.0
C2832 C 0.40204 0.62592 0.81472 0.0
C2833 C 0.38882 0.61074 0.83146 0.0
C2834 C 0.42412 0.64114 0.82891 0.0
C2835 C 0.38703 0.63993 0.80226 0.0
C2836 C 0.38288 0.63362 0.77711 0.0
C2837 C 0.36751 0.64281 0.7623 0.0
C2838 C 0.35564 0.65826 0.77372 0.0
C2839 C 0.35927 0.66424 0.79963 0.0
C2840 C 0.3759 0.65561 0.81372 0.0
H2841 H 0.19238 0.63447 0.52996 0.0
H2842 H 0.23107 0.59046 0.56698 0.0
H2843 H 0.1963 0.5605 0.56334 0.0
H2844 H 0.14402 0.62096 0.55965 0.0
H2845 H 0.12408 0.62191 0.53309 0.0
H2846 H 0.15255 0.63904 0.53677 0.0
H2847 H 0.1582 0.61988 0.49375 0.0
H2848 H 0.12976 0.6025 0.49031 0.0
H2849 H 0.15385 0.58893 0.48769 0.0
H2850 H 0.15827 0.536 0.55644 0.0
H2851 H 0.11708 0.51984 0.55127 0.0
H2852 H 0.10377 0.58143 0.52203 0.0
C2853 C 0.1936 0.61845 0.53705 0.0
C2854 C 0.21427 0.61455 0.54833 0.0
C2855 C 0.2153 0.59355 0.55779 0.0
C2856 C 0.19576 0.57642 0.55581 0.0
C2857 C 0.1757 0.58073 0.54426 0.0
C2858 C 0.17437 0.60124 0.53529 0.0
C2859 C 0.15037 0.60218 0.52545 0.0
C2860 C 0.14228 0.62219 0.5396 0.0
C2861 C 0.14792 0.60345 0.49765 0.0
C2862 C 0.13845 0.57916 0.53083 0.0
C2863 C 0.1534 0.56683 0.54111 0.0
C2864 C 0.14629 0.5453 0.54821 0.0
C2865 C 0.12296 0.53633 0.54515 0.0
C2866 C 0.10745 0.54945 0.53592 0.0
C2867 C 0.11528 0.57079 0.52825 0.0
H2868 H 0.69785 0.98199 0.74758 0.0
H2869 H 0.7615 0.02609 0.73749 0.0
H2870 H 0.78132 0.99395 0.74283 0.0
H2871 H 0.72077 0.96748 0.79836 0.0
H2872 H 0.70355 0.93885 0.79558 0.0
H2873 H 0.69263 0.96056 0.78094 0.0
H2874 H 0.68602 0.93463 0.73882 0.0
H2875 H 0.69686 0.91256 0.75341 0.0
H2876 H 0.70933 0.92343 0.72767 0.0
H2877 H 0.79538 0.96236 0.7596 0.0
H2878 H 0.80332 0.9351 0.78836 0.0
H2879 H 0.731 0.91452 0.79272 0.0
C2880 C 0.71579 0.98467 0.74533 0.0
C2881 C 0.72829 1.00632 0.74203 0.0
C2882 C 0.75171 1.00938 0.73968 0.0
C2883 C 0.763 0.99124 0.74267 0.0
C2884 C 0.75048 0.97063 0.74819 0.0
C2885 C 0.72732 0.96738 0.74964 0.0
C2886 C 0.71876 0.9469 0.76226 0.0
C2887 C 0.70835 0.9539 0.78564 0.0
C2888 C 0.70174 0.92826 0.74447 0.0
C2889 C 0.74091 0.93957 0.76865 0.0
C2890 C 0.75887 0.95294 0.75971 0.0
C2891 C 0.78145 0.9514 0.76617 0.0
C2892 C 0.78579 0.93616 0.78263 0.0
C2893 C 0.76761 0.92326 0.79265 0.0
C2894 C 0.74498 0.92444 0.78514 0.0
H2895 H 0.73542 0.90715 0.55673 0.0
H2896 H 0.78928 0.95791 0.53586 0.0
H2897 H 0.76283 0.98418 0.53052 0.0
H2898 H 0.69017 0.91469 0.51608 0.0
H2899 H 0.66934 0.91275 0.53728 0.0
H2900 H 0.69312 0.89877 0.54182 0.0
H2901 H 0.70392 0.92112 0.58597 0.0
H2902 H 0.68039 0.93561 0.58115 0.0
H2903 H 0.70903 0.95215 0.59018 0.0
H2904 H 0.73094 1.00351 0.52391 0.0
H2905 H 0.69337 0.0132 0.51249 0.0
H2906 H 0.65975 0.95113 0.53824 0.0
C2907 C 0.74154 0.9239 0.55131 0.0
C2908 C 0.76433 0.93073 0.54696 0.0
C2909 C 0.77191 0.95264 0.53972 0.0
C2910 C 0.75709 0.96772 0.53673 0.0
C2911 C 0.73487 0.96083 0.54159 0.0
C2912 C 0.727 0.93953 0.54876 0.0
C2913 C 0.7019 0.93629 0.55163 0.0
C2914 C 0.68782 0.91433 0.53573 0.0
C2915 C 0.69862 0.93628 0.57885 0.0
C2916 C 0.69657 0.95795 0.54248 0.0
C2917 C 0.7161 0.97231 0.53785 0.0
C2918 C 0.71553 0.99269 0.52787 0.0
C2919 C 0.69426 0.99809 0.52152 0.0
C2920 C 0.6741 0.98292 0.52484 0.0
C2921 C 0.67519 0.96304 0.53609 0.0
H2922 H 0.42524 0.42627 0.76332 0.0
H2923 H 0.38649 0.47803 0.78403 0.0
H2924 H 0.35371 0.44736 0.78788 0.0
H2925 H 0.37716 0.38559 0.72645 0.0
H2926 H 0.38678 0.36063 0.73581 0.0
H2927 H 0.40724 0.3867 0.73462 0.0
H2928 H 0.42321 0.38695 0.7803 0.0
H2929 H 0.40265 0.36099 0.78165 0.0
H2930 H 0.40404 0.38631 0.80323 0.0
H2931 H 0.32723 0.4114 0.79473 0.0
H2932 H 0.30597 0.3725 0.79722 0.0
H2933 H 0.35886 0.34327 0.76579 0.0
C2934 C 0.4098 0.43113 0.76848 0.0
C2935 C 0.40854 0.45461 0.7735 0.0
C2936 C 0.38792 0.46022 0.78003 0.0
C2937 C 0.36921 0.44291 0.78239 0.0
C2938 C 0.37115 0.41999 0.77769 0.0
C2939 C 0.3907 0.41403 0.77036 0.0
C2940 C 0.38804 0.38802 0.76601 0.0
C2941 C 0.38991 0.37975 0.73912 0.0
C2942 C 0.40553 0.3801 0.78385 0.0
C2943 C 0.36395 0.38033 0.77197 0.0
C2944 C 0.35479 0.39911 0.77925 0.0
C2945 C 0.33381 0.39654 0.78811 0.0
C2946 C 0.32166 0.37423 0.78913 0.0
C2947 C 0.32992 0.35454 0.78036 0.0
C2948 C 0.35153 0.35781 0.77178 0.0
H2949 H 0.2199 0.63714 0.30691 0.0
H2950 H 0.20705 0.61748 0.22792 0.0
H2951 H 0.23504 0.65184 0.22219 0.0
H2952 H 0.22326 0.69551 0.30689 0.0
H2953 H 0.24625 0.70498 0.3319 0.0
H2954 H 0.22772 0.67722 0.33014 0.0
H2955 H 0.26296 0.6578 0.33133 0.0
H2956 H 0.2814 0.68575 0.33319 0.0
H2957 H 0.28255 0.66316 0.30914 0.0
H2958 H 0.25731 0.68999 0.22426 0.0
H2959 H 0.27582 0.73069 0.23439 0.0
H2960 H 0.27853 0.72542 0.31201 0.0
C2961 C 0.22305 0.64036 0.28854 0.0
C2962 C 0.21111 0.62557 0.26776 0.0
C2963 C 0.21579 0.62938 0.24387 0.0
C2964 C 0.23184 0.64847 0.2405 0.0
C2965 C 0.24319 0.66308 0.2613 0.0
C2966 C 0.23926 0.65928 0.28488 0.0
C2967 C 0.25253 0.67883 0.30378 0.0
C2968 C 0.23648 0.68979 0.31905 0.0
C2969 C 0.27095 0.67089 0.32033 0.0
C2970 C 0.26314 0.69479 0.28692 0.0
C2971 C 0.25782 0.68506 0.26254 0.0
C2972 C 0.26276 0.69741 0.24325 0.0
C2973 C 0.27354 0.72038 0.24907 0.0
C2974 C 0.27977 0.73035 0.27377 0.0
C2975 C 0.27459 0.71761 0.29301 0.0
H2976 H 0.53075 0.70158 0.45574 0.0
H2977 H 0.50635 0.72638 0.52279 0.0
H2978 H 0.51242 0.69195 0.54042 0.0
H2979 H 0.50551 0.64068 0.45466 0.0
H2980 H 0.52942 0.62964 0.44487 0.0
H2981 H 0.52454 0.65696 0.43684 0.0
H2982 H 0.56545 0.67651 0.45683 0.0
H2983 H 0.57039 0.64921 0.46494 0.0
H2984 H 0.57449 0.67368 0.48837 0.0
H2985 H 0.5215 0.65461 0.55295 0.0
H2986 H 0.52997 0.6162 0.55721 0.0
H2987 H 0.54642 0.61048 0.48264 0.0
C2988 C 0.52673 0.69991 0.47417 0.0
C2989 C 0.51775 0.71775 0.48742 0.0
C2990 C 0.51298 0.71382 0.51156 0.0
C2991 C 0.51649 0.69398 0.52208 0.0
C2992 C 0.52494 0.67697 0.50875 0.0
C2993 C 0.53 0.67952 0.48523 0.0
C2994 C 0.53863 0.65786 0.47527 0.0
C2995 C 0.52363 0.64556 0.45148 0.0
C2996 C 0.56373 0.66472 0.47108 0.0
C2997 C 0.53654 0.64261 0.49628 0.0
C2998 C 0.52923 0.65457 0.51567 0.0
C2999 C 0.52698 0.6451 0.53767 0.0
C3000 C 0.5319 0.62303 0.54 0.0
C3001 C 0.53857 0.6095 0.52041 0.0
C3002 C 0.54098 0.6198 0.49809 0.0
H3003 H 0.65305 0.27901 0.64398 0.0
H3004 H 0.64024 0.34469 0.67418 0.0
H3005 H 0.67184 0.34787 0.70808 0.0
H3006 H 0.66596 0.26084 0.70585 0.0
H3007 H 0.68666 0.24494 0.69584 0.0
H3008 H 0.66289 0.24782 0.67432 0.0
H3009 H 0.69088 0.26525 0.64554 0.0
H3010 H 0.71446 0.26203 0.6669 0.0
H3011 H 0.7133 0.28988 0.65763 0.0
H3012 H 0.70648 0.34439 0.73857 0.0
H3013 H 0.73914 0.33401 0.76308 0.0
H3014 H 0.72901 0.26965 0.71475 0.0
C3015 C 0.65692 0.29409 0.65773 0.0
C3016 C 0.64421 0.31185 0.65598 0.0
C3017 C 0.64962 0.33094 0.67483 0.0
C3018 C 0.66764 0.33287 0.69424 0.0
C3019 C 0.67997 0.31524 0.69527 0.0
C3020 C 0.67448 0.29596 0.67775 0.0
C3021 C 0.68978 0.27902 0.68369 0.0
C3022 C 0.67547 0.25683 0.6903 0.0
C3023 C 0.7029 0.27376 0.66215 0.0
C3024 C 0.7058 0.29236 0.70624 0.0
C3025 C 0.69952 0.31307 0.71289 0.0
C3026 C 0.7114 0.3282 0.73339 0.0
C3027 C 0.73001 0.32215 0.7473 0.0
C3028 C 0.73712 0.30122 0.74081 0.0
C3029 C 0.72456 0.28606 0.71998 0.0
H3030 H 1.00916 0.34884 0.00753 0.0
H3031 H 0.03709 0.3543 0.93856 0.0
H3032 H 0.04386 0.39612 0.94686 0.0
H3033 H 0.98059 0.39729 0.00583 0.0
H3034 H 0.98794 0.4089 0.03788 0.0
H3035 H 0.98583 0.37857 0.02841 0.0
H3036 H 0.02696 0.38147 0.0494 0.0
H3037 H 0.02906 0.41176 0.05909 0.0
H3038 H 0.04991 0.4024 0.0415 0.0
H3039 H 0.04701 0.4375 0.96006 0.0
H3040 H 0.04763 0.47681 0.97867 0.0
H3041 H 0.01799 0.45019 0.04062 0.0
C3042 C 1.01685 0.3588 0.99425 0.0
C3043 C 0.02225 0.34721 0.97192 0.0
C3044 C 0.03232 0.36172 0.95552 0.0
C3045 C 0.0364 0.38594 0.96011 0.0
C3046 C 0.0305 0.39662 0.98148 0.0
C3047 C 0.02114 0.38377 0.99859 0.0
C3048 C 1.01664 0.40074 0.02002 0.0
C3049 C 0.99123 0.39609 0.02323 0.0
C3050 C 0.03152 0.39898 0.04393 0.0
C3051 C 0.02405 0.42468 0.01156 0.0
C3052 C 0.03228 0.42144 0.98934 0.0
C3053 C 0.04056 0.44016 0.97745 0.0
C3054 C 0.04077 0.46271 0.98829 0.0
C3055 C 0.03266 0.4674 0.01114 0.0
C3056 C 0.02396 0.4477 0.02293 0.0
H3057 H 1.01597 0.82735 0.16818 0.0
H3058 H 1.00675 0.76059 0.12449 0.0
H3059 H 0.97081 0.74749 0.14142 0.0
H3060 H 0.99736 0.81098 0.22157 0.0
H3061 H 0.98121 0.83308 0.22749 0.0
H3062 H 1.00456 0.83811 0.20975 0.0
H3063 H 0.97745 0.84741 0.17425 0.0
H3064 H 0.95387 0.84211 0.19186 0.0
H3065 H 0.95185 0.82663 0.16154 0.0
H3066 H 0.93756 0.74068 0.1644 0.0
H3067 H 0.91203 0.73838 0.19635 0.0
H3068 H 0.94238 0.80897 0.22706 0.0
C3069 C 1.00606 0.81013 0.16194 0.0
C3070 C 1.01387 0.79495 0.14479 0.0
C3071 C 1.00077 0.7725 0.13723 0.0
C3072 C 0.98034 0.76498 0.14671 0.0
C3073 C 0.97291 0.78028 0.16342 0.0
C3074 C 0.98528 0.80243 0.17098 0.0
C3075 C 0.97371 0.81492 0.18995 0.0
C3076 C 0.99021 0.82483 0.2136 0.0
C3077 C 0.96363 0.8339 0.17875 0.0
C3078 C 0.95462 0.79544 0.19405 0.0
C3079 C 0.95378 0.77609 0.17743 0.0
C3080 C 0.93793 0.75576 0.17737 0.0
C3081 C 0.92333 0.75467 0.19549 0.0
C3082 C 0.92496 0.77351 0.21402 0.0
C3083 C 0.94035 0.79448 0.2128 0.0
H3084 H 0.54552 0.30366 0.14081 0.0
H3085 H 0.52814 0.33957 0.2064 0.0
H3086 H 0.52938 0.37466 0.186 0.0
H3087 H 0.5855 0.35143 0.12691 0.0
H3088 H 0.57801 0.34408 0.09411 0.0
H3089 H 0.57453 0.32183 0.11373 0.0
H3090 H 0.53186 0.30914 0.09494 0.0
H3091 H 0.53519 0.33177 0.07571 0.0
H3092 H 0.51364 0.32987 0.09605 0.0
H3093 H 0.53402 0.40676 0.15819 0.0
H3094 H 0.54605 0.43312 0.12801 0.0
H3095 H 0.55958 0.37573 0.08089 0.0
C3096 C 0.54192 0.31888 0.15089 0.0
C3097 C 0.5367 0.3188 0.17525 0.0
C3098 C 0.53227 0.33919 0.18779 0.0
C3099 C 0.53275 0.35918 0.17625 0.0
C3100 C 0.53769 0.3586 0.1521 0.0
C3101 C 0.54243 0.33899 0.1397 0.0
C3102 C 0.54862 0.34314 0.11447 0.0
C3103 C 0.57311 0.33994 0.11218 0.0
C3104 C 0.53129 0.32755 0.09409 0.0
C3105 C 0.54686 0.36815 0.11462 0.0
C3106 C 0.54031 0.37682 0.13633 0.0
C3107 C 0.53896 0.40003 0.14105 0.0
C3108 C 0.54555 0.41486 0.12368 0.0
C3109 C 0.55352 0.40644 0.10198 0.0
C3110 C 0.55322 0.38259 0.09713 0.0
H3111 H 0.97527 0.34941 0.3574 0.0
H3112 H 0.9937 0.28954 0.31966 0.0
H3113 H 0.95354 0.27644 0.29949 0.0
H3114 H 0.92111 0.32336 0.36933 0.0
H3115 H 0.90741 0.34699 0.36365 0.0
H3116 H 0.93772 0.35238 0.37346 0.0
H3117 H 0.94556 0.37266 0.33514 0.0
H3118 H 0.9152 0.36778 0.32578 0.0
H3119 H 0.93341 0.35783 0.30499 0.0
H3120 H 0.90872 0.26727 0.28775 0.0
H3121 H 0.86707 0.26596 0.28112 0.0
H3122 H 0.87781 0.33358 0.32326 0.0
C3123 C 0.97112 0.33391 0.34421 0.0
C3124 C 0.98831 0.3209 0.33988 0.0
C3125 C 0.98151 0.30036 0.32294 0.0
C3126 C 0.95845 0.2926 0.3116 0.0
C3127 C 0.94196 0.30561 0.31683 0.0
C3128 C 0.94827 0.32622 0.33229 0.0
C3129 C 0.92744 0.33712 0.33497 0.0
C3130 C 0.92318 0.34014 0.36196 0.0
C3131 C 0.9306 0.36022 0.3246 0.0
C3132 C 0.90813 0.31925 0.31926 0.0
C3133 C 0.91685 0.30104 0.30911 0.0
C3134 C 0.90207 0.28175 0.29532 0.0
C3135 C 0.87823 0.28109 0.2917 0.0
C3136 C 0.86875 0.2997 0.30127 0.0
C3137 C 0.88423 0.31916 0.31517 0.0
H3138 H 0.02757 0.67341 0.67764 0.0
H3139 H 0.02233 0.71913 0.62209 0.0
H3140 H 0.02633 0.68883 0.59047 0.0
H3141 H 0.06216 0.63883 0.65537 0.0
H3142 H 0.04572 0.61069 0.65765 0.0
H3143 H 0.0422 0.63549 0.67746 0.0
H3144 H 0.99884 0.62652 0.66232 0.0
H3145 H 1.00212 0.60136 0.64284 0.0
H3146 H 0.98909 0.6229 0.62982 0.0
H3147 H 0.04339 0.65919 0.56865 0.0
H3148 H 0.05264 0.62388 0.55005 0.0
H3149 H 0.03061 0.58898 0.61085 0.0
C3150 C 0.026 0.67667 0.65871 0.0
C3151 C 0.02523 0.6993 0.65279 0.0
C3152 C 0.0232 0.70234 0.62748 0.0
C3153 C 0.02581 0.68527 0.60923 0.0
C3154 C 0.02823 0.66401 0.61576 0.0
C3155 C 0.0263 0.65876 0.63928 0.0
C3156 C 0.02625 0.63298 0.63942 0.0
C3157 C 0.04522 0.62929 0.65863 0.0
C3158 C 1.00268 0.62017 0.64388 0.0
C3159 C 0.03073 0.62565 0.6131 0.0
C3160 C 0.03244 0.64435 0.60034 0.0
C3161 C 0.04018 0.6438 0.57754 0.0
C3162 C 0.04492 0.62325 0.56668 0.0
C3163 C 0.04028 0.60252 0.57725 0.0
C3164 C 0.03346 0.604 0.60137 0.0
H3165 H 0.63581 0.80013 0.8629 0.0
H3166 H 0.61518 0.84051 0.8071 0.0
H3167 H 0.65018 0.83775 0.78828 0.0
H3168 H 0.69709 0.82049 0.86953 0.0
H3169 H 0.7044 0.79271 0.87117 0.0
H3170 H 0.67805 0.79807 0.8809 0.0
H3171 H 0.65546 0.76296 0.85072 0.0
H3172 H 0.68177 0.75752 0.84087 0.0
H3173 H 0.65899 0.76127 0.81862 0.0
H3174 H 0.68951 0.83277 0.77625 0.0
H3175 H 0.72686 0.82314 0.77008 0.0
H3176 H 0.72247 0.78219 0.83014 0.0
C3177 C 0.63866 0.8085 0.84676 0.0
C3178 C 0.62226 0.82103 0.83693 0.0
C3179 C 0.62698 0.83102 0.81537 0.0
C3180 C 0.64708 0.82953 0.80446 0.0
C3181 C 0.66276 0.8173 0.81452 0.0
C3182 C 0.65857 0.80648 0.83494 0.0
C3183 C 0.67778 0.79326 0.841 0.0
C3184 C 0.69006 0.80164 0.86722 0.0
C3185 C 0.66792 0.7672 0.83762 0.0
C3186 C 0.69393 0.79929 0.82169 0.0
C3187 C 0.68473 0.81319 0.8066 0.0
C3188 C 0.69654 0.82166 0.78788 0.0
C3189 C 0.71798 0.81605 0.78444 0.0
C3190 C 0.72806 0.80162 0.79915 0.0
C3191 C 0.71547 0.79301 0.81811 0.0
H3192 H 0.48779 0.49642 0.69688 0.0
H3193 H 0.46138 0.55847 0.71215 0.0
H3194 H 0.47513 0.57226 0.67463 0.0
H3195 H 0.53792 0.52003 0.67508 0.0
H3196 H 0.53637 0.49701 0.65051 0.0
H3197 H 0.52299 0.49125 0.67739 0.0
H3198 H 0.48386 0.47472 0.65035 0.0
H3199 H 0.49772 0.4797 0.62356 0.0
H3200 H 0.47304 0.49173 0.62856 0.0
H3201 H 0.49282 0.57957 0.63523 0.0
H3202 H 0.51171 0.57907 0.59746 0.0
H3203 H 0.52815 0.51319 0.6093 0.0
C3204 C 0.48468 0.51282 0.69222 0.0
C3205 C 0.47351 0.52636 0.7076 0.0
C3206 C 0.46968 0.54765 0.70064 0.0
C3207 C 0.47755 0.55569 0.67939 0.0
C3208 C 0.4889 0.54209 0.66492 0.0
C3209 C 0.49209 0.52092 0.67088 0.0
C3210 C 0.50459 0.50949 0.65221 0.0
C3211 C 0.5268 0.50415 0.66455 0.0
C3212 C 0.48886 0.48761 0.63782 0.0
C3213 C 0.5093 0.52812 0.63571 0.0
C3214 C 0.49954 0.54654 0.6429 0.0
C3215 C 0.50051 0.56522 0.62954 0.0
C3216 C 0.51128 0.56483 0.60813 0.0
C3217 C 0.5215 0.54623 0.60059 0.0
C3218 C 0.52082 0.52786 0.61489 0.0
H3219 H 0.78353 0.15202 0.98531 0.0
H3220 H 0.77482 0.20327 0.04391 0.0
H3221 H 0.77311 0.23107 0.01479 0.0
H3222 H 0.81752 0.19261 0.95116 0.0
H3223 H 0.80382 0.17832 0.92132 0.0
H3224 H 0.80656 0.16194 0.94668 0.0
H3225 H 0.76276 0.14624 0.94099 0.0
H3226 H 0.76024 0.1616 0.9149 0.0
H3227 H 0.74381 0.16627 0.93971 0.0
H3228 H 0.77257 0.25341 0.98153 0.0
H3229 H 0.76076 0.26611 0.94209 0.0
H3230 H 0.76732 0.20104 0.90328 0.0
C3231 C 0.78148 0.16918 0.99192 0.0
C3232 C 0.78005 0.1758 0.01694 0.0
C3233 C 0.77656 0.19805 0.02492 0.0
C3234 C 0.77578 0.21407 0.0086 0.0
C3235 C 0.77841 0.20754 0.98438 0.0
C3236 C 0.78036 0.18549 0.9757 0.0
C3237 C 0.78019 0.18259 0.94807 0.0
C3238 C 0.80341 0.17863 0.94141 0.0
C3239 C 0.76057 0.16302 0.93518 0.0
C3240 C 0.77641 0.20609 0.9427 0.0
C3241 C 0.7767 0.22044 0.96419 0.0
C3242 C 0.77236 0.24251 0.96448 0.0
C3243 C 0.76576 0.2496 0.94213 0.0
C3244 C 0.76321 0.23443 0.92015 0.0
C3245 C 0.76962 0.2129 0.9201 0.0
H3246 H 0.15622 0.52388 0.17629 0.0
H3247 H 0.16512 0.59702 0.20015 0.0
H3248 H 0.1413 0.60133 0.16268 0.0
H3249 H 0.15155 0.52993 0.10509 0.0
H3250 H 0.13075 0.50322 0.09874 0.0
H3251 H 0.15406 0.50697 0.1233 0.0
H3252 H 0.12432 0.49612 0.15302 0.0
H3253 H 0.10097 0.49371 0.12901 0.0
H3254 H 0.10292 0.51321 0.15684 0.0
H3255 H 0.10507 0.59392 0.13701 0.0
H3256 H 0.07007 0.57941 0.10756 0.0
H3257 H 0.09009 0.51402 0.09223 0.0
C3258 C 0.15454 0.54095 0.17246 0.0
C3259 C 0.16214 0.56018 0.19048 0.0
C3260 C 0.15929 0.58231 0.18599 0.0
C3261 C 0.14576 0.58489 0.16496 0.0
C3262 C 0.13634 0.56525 0.1485 0.0
C3263 C 0.14163 0.54392 0.15099 0.0
C3264 C 0.12716 0.52537 0.13175 0.0
C3265 C 0.14177 0.51582 0.11364 0.0
C3266 C 0.11303 0.50598 0.14338 0.0
C3267 C 0.11205 0.53939 0.11959 0.0
C3268 C 0.11715 0.56215 0.13015 0.0
C3269 C 0.10212 0.57689 0.12668 0.0
C3270 C 0.08245 0.56866 0.11005 0.0
C3271 C 0.07919 0.54676 0.09618 0.0
C3272 C 0.09348 0.53151 0.10156 0.0
H3273 H 0.80922 0.83886 0.47993 0.0
H3274 H 0.81286 0.90957 0.46563 0.0
H3275 H 0.81114 0.89722 0.42156 0.0
H3276 H 0.84375 0.82255 0.43373 0.0
H3277 H 0.82665 0.79406 0.42391 0.0
H3278 H 0.82753 0.80766 0.4549 0.0
H3279 H 0.78349 0.80203 0.44878 0.0
H3280 H 0.78249 0.78833 0.4178 0.0
H3281 H 0.76954 0.81294 0.42336 0.0
H3282 H 0.80937 0.87874 0.3795 0.0
H3283 H 0.80767 0.85468 0.34037 0.0
H3284 H 0.80562 0.79424 0.37813 0.0
C3285 C 0.80976 0.85172 0.46749 0.0
C3286 C 0.81137 0.87542 0.47667 0.0
C3287 C 0.81176 0.89147 0.45951 0.0
C3288 C 0.81074 0.88459 0.43424 0.0
C3289 C 0.80927 0.86142 0.42584 0.0
C3290 C 0.8087 0.84507 0.44174 0.0
C3291 C 0.80695 0.82125 0.42707 0.0
C3292 C 0.82745 0.81076 0.43541 0.0
C3293 C 0.78427 0.80518 0.4294 0.0
C3294 C 0.80743 0.82709 0.40073 0.0
C3295 C 0.80843 0.85042 0.40079 0.0
C3296 C 0.8086 0.86044 0.37922 0.0
C3297 C 0.80759 0.84646 0.35691 0.0
C3298 C 0.80654 0.82238 0.35575 0.0
C3299 C 0.80665 0.81257 0.37821 0.0
H3300 H 0.46601 0.49345 0.8485 0.0
H3301 H 0.48424 0.56497 0.83707 0.0
H3302 H 0.50584 0.57462 0.87893 0.0
H3303 H 0.45835 0.50383 0.91215 0.0
H3304 H 0.47059 0.48024 0.92134 0.0
H3305 H 0.45714 0.47876 0.89024 0.0
H3306 H 0.49421 0.47153 0.87395 0.0
H3307 H 0.50782 0.4731 0.90503 0.0
H3308 H 0.52076 0.49171 0.88459 0.0
H3309 H 0.52377 0.57709 0.9229 0.0
H3310 H 0.53744 0.57215 0.96545 0.0
H3311 H 0.5093 0.49889 0.94949 0.0
C3312 C 0.47475 0.51107 0.85484 0.0
C3313 C 0.47358 0.5285 0.83944 0.0
C3314 C 0.48505 0.55137 0.84845 0.0
C3315 C 0.49735 0.557 0.87224 0.0
C3316 C 0.49823 0.53954 0.88702 0.0
C3317 C 0.48734 0.517 0.87869 0.0
C3318 C 0.49088 0.50168 0.89861 0.0
C3319 C 0.46787 0.49046 0.90602 0.0
C3320 C 0.50421 0.48342 0.89003 0.0
C3321 C 0.50511 0.51915 0.91954 0.0
C3322 C 0.50912 0.54089 0.91232 0.0
C3323 C 0.52094 0.56009 0.92858 0.0
C3324 C 0.52869 0.55713 0.95279 0.0
C3325 C 0.52494 0.53513 0.96081 0.0
C3326 C 0.51305 0.51583 0.94379 0.0
H3327 H 0.77615 0.15492 0.16021 0.0
H3328 H 0.79263 0.19273 0.09974 0.0
H3329 H 0.81228 0.2267 0.12864 0.0
H3330 H 0.75957 0.19642 0.19264 0.0
H3331 H 0.77065 0.19158 0.22286 0.0
H3332 H 0.76424 0.16833 0.19815 0.0
H3333 H 0.80601 0.16214 0.20609 0.0
H3334 H 0.8123 0.18564 0.23093 0.0
H3335 H 0.82955 0.18597 0.20622 0.0
H3336 H 0.81859 0.25829 0.16153 0.0
H3337 H 0.81581 0.28458 0.19779 0.0
H3338 H 0.7983 0.22624 0.23747 0.0
C3339 C 0.78491 0.17007 0.15338 0.0
C3340 C 0.78317 0.17164 0.12826 0.0
C3341 C 0.7941 0.19158 0.11925 0.0
C3342 C 0.80542 0.21081 0.13544 0.0
C3343 C 0.80591 0.20941 0.16037 0.0
C3344 C 0.79642 0.1894 0.16941 0.0
C3345 C 0.79571 0.19365 0.1966 0.0
C3346 C 0.77109 0.18713 0.20288 0.0
C3347 C 0.81187 0.1811 0.21079 0.0
C3348 C 0.80455 0.21927 0.20085 0.0
C3349 C 0.81059 0.22808 0.17992 0.0
C3350 C 0.81488 0.25163 0.17842 0.0
C3351 C 0.81281 0.26651 0.19898 0.0
C3352 C 0.80657 0.25767 0.22047 0.0
C3353 C 0.80328 0.23381 0.2215 0.0
H3354 H 0.1859 0.58217 0.3302 0.0
H3355 H 0.1498 0.513 0.30062 0.0
H3356 H 0.12445 0.51343 0.3329 0.0
H3357 H 0.17991 0.57889 0.39637 0.0
H3358 H 0.17454 0.60764 0.40111 0.0
H3359 H 0.19281 0.60054 0.37893 0.0
H3360 H 0.16754 0.61441 0.34477 0.0
H3361 H 0.14942 0.62181 0.36686 0.0
H3362 H 0.13728 0.60239 0.33924 0.0
H3363 H 0.10093 0.52275 0.36488 0.0
H3364 H 0.07908 0.54155 0.39369 0.0
H3365 H 0.1293 0.60529 0.40044 0.0
C3366 C 0.17337 0.5668 0.33147 0.0
C3367 C 0.17014 0.54714 0.31407 0.0
C3368 C 0.15273 0.52778 0.3147 0.0
C3369 C 0.13835 0.52791 0.33283 0.0
C3370 C 0.14164 0.54769 0.34971 0.0
C3371 C 0.15861 0.56685 0.34914 0.0
C3372 C 0.15635 0.58703 0.36697 0.0
C3373 C 0.17714 0.59392 0.38704 0.0
C3374 C 0.15241 0.60761 0.35365 0.0
C3375 C 0.13523 0.57637 0.37716 0.0
C3376 C 0.12721 0.55356 0.36734 0.0
C3377 C 0.1071 0.54053 0.37293 0.0
C3378 C 0.09477 0.55129 0.38899 0.0
C3379 C 0.10254 0.5748 0.39849 0.0
C3380 C 0.12306 0.58735 0.39288 0.0
H3381 H 0.80827 0.88603 0.63048 0.0
H3382 H 0.80719 0.8214 0.58502 0.0
H3383 H 0.80113 0.80061 0.62003 0.0
H3384 H 0.837 0.87202 0.68614 0.0
H3385 H 0.82039 0.88416 0.70735 0.0
H3386 H 0.82396 0.8957 0.67884 0.0
H3387 H 0.78009 0.88867 0.66759 0.0
H3388 H 0.77648 0.87731 0.69619 0.0
H3389 H 0.76308 0.86026 0.66749 0.0
H3390 H 0.80444 0.78764 0.65974 0.0
H3391 H 0.80451 0.77972 0.70192 0.0
H3392 H 0.79329 0.84844 0.72414 0.0
C3393 C 0.80635 0.86748 0.6279 0.0
C3394 C 0.80886 0.85551 0.60473 0.0
C3395 C 0.80608 0.83121 0.60239 0.0
C3396 C 0.80254 0.81909 0.62227 0.0
C3397 C 0.8013 0.83118 0.64483 0.0
C3398 C 0.80233 0.85466 0.64795 0.0
C3399 C 0.79998 0.86248 0.67489 0.0
C3400 C 0.82162 0.87962 0.68754 0.0
C3401 C 0.77862 0.8728 0.67663 0.0
C3402 C 0.79761 0.8397 0.68585 0.0
C3403 C 0.79931 0.82229 0.66802 0.0
C3404 C 0.8016 0.80067 0.67362 0.0
C3405 C 0.80132 0.79626 0.69789 0.0
C3406 C 0.79685 0.81257 0.7165 0.0
C3407 C 0.79544 0.83498 0.71032 0.0
H3408 H 0.76779 0.4933 0.50039 0.0
H3409 H 0.74144 0.42372 0.5144 0.0
H3410 H 0.70472 0.43384 0.52097 0.0
H3411 H 0.74894 0.52178 0.54445 0.0
H3412 H 0.74023 0.54395 0.52816 0.0
H3413 H 0.7617 0.5297 0.51771 0.0
H3414 H 0.7376 0.51821 0.47467 0.0
H3415 H 0.71573 0.53231 0.48514 0.0
H3416 H 0.70854 0.50245 0.47186 0.0
H3417 H 0.67629 0.45235 0.53536 0.0
H3418 H 0.65807 0.47936 0.55927 0.0
H3419 H 0.70125 0.5371 0.5352 0.0
C3420 C 0.75397 0.48026 0.50433 0.0
C3421 C 0.75695 0.45795 0.50701 0.0
C3422 C 0.739 0.44095 0.51216 0.0
C3423 C 0.71809 0.44641 0.51554 0.0
C3424 C 0.71548 0.4687 0.51301 0.0
C3425 C 0.73283 0.48536 0.50733 0.0
C3426 C 0.72682 0.50877 0.5094 0.0
C3427 C 0.74552 0.52708 0.52594 0.0
C3428 C 0.72187 0.51585 0.48374 0.0
C3429 C 0.70519 0.50324 0.52091 0.0
C3430 C 0.69824 0.47977 0.52137 0.0
C3431 C 0.68093 0.47064 0.53443 0.0
C3432 C 0.67099 0.48596 0.54819 0.0
C3433 C 0.67887 0.50982 0.54887 0.0
C3434 C 0.69529 0.51868 0.53446 0.0
H3435 H 0.18634 0.14949 0.48344 0.0
H3436 H 0.22918 0.14638 0.55091 0.0
H3437 H 0.19877 0.11674 0.56211 0.0
H3438 H 0.13308 0.14231 0.50435 0.0
H3439 H 0.11734 0.12283 0.47814 0.0
H3440 H 0.14283 0.14291 0.47464 0.0
H3441 H 0.1603 0.10934 0.45661 0.0
H3442 H 0.13472 0.08915 0.45988 0.0
H3443 H 0.16213 0.08559 0.47377 0.0
H3444 H 0.16297 0.08884 0.56716 0.0
H3445 H 0.12477 0.06388 0.56507 0.0
H3446 H 0.10475 0.08392 0.49404 0.0
C3447 C 0.18929 0.14239 0.50045 0.0
C3448 C 0.2101 0.15034 0.5164 0.0
C3449 C 0.21345 0.14047 0.53838 0.0
C3450 C 0.19625 0.12364 0.54492 0.0
C3451 C 0.17587 0.11627 0.52898 0.0
C3452 C 0.17246 0.12496 0.50695 0.0
C3453 C 0.1491 0.11354 0.49298 0.0
C3454 C 0.13474 0.13148 0.48721 0.0
C3455 C 0.15172 0.09853 0.46941 0.0
C3456 C 0.13927 0.09855 0.51143 0.0
C3457 C 0.15527 0.09994 0.53178 0.0
C3458 C 0.15039 0.08748 0.55119 0.0
C3459 C 0.12866 0.07324 0.54981 0.0
C3460 C 0.1118 0.0718 0.52938 0.0
C3461 C 0.11728 0.08466 0.50992 0.0
H3462 H 0.19552 1.0018 0.8213 0.0
H3463 H 0.15086 0.9946 0.75256 0.0
H3464 H 0.16426 0.95961 0.7377 0.0
H3465 H 0.24221 0.9869 0.79992 0.0
H3466 H 0.24931 0.96952 0.82323 0.0
H3467 H 0.23373 0.99176 0.83008 0.0
H3468 H 0.2018 0.96171 0.84317 0.0
H3469 H 0.21728 0.93928 0.83602 0.0
H3470 H 0.18822 0.9364 0.82199 0.0
H3471 H 0.18518 0.92962 0.7281 0.0
H3472 H 0.21495 0.90698 0.72293 0.0
H3473 H 0.24602 0.93176 0.79802 0.0
C3474 C 0.18834 0.99244 0.80335 0.0
C3475 C 0.17215 1.00049 0.78791 0.0
C3476 C 0.16311 0.9883 0.76452 0.0
C3477 C 0.17049 0.96842 0.75607 0.0
C3478 C 0.18647 0.96076 0.77157 0.0
C3479 C 0.19521 0.97217 0.79482 0.0
C3480 C 0.21336 0.96091 0.80688 0.0
C3481 C 0.23599 0.97832 0.8155 0.0
C3482 C 0.20465 0.94886 0.82829 0.0
C3483 C 0.21528 0.9433 0.78561 0.0
C3484 C 0.1988 0.94287 0.76591 0.0
C3485 C 0.19791 0.92943 0.74347 0.0
C3486 C 0.21487 0.91674 0.74065 0.0
C3487 C 0.23254 0.91785 0.76006 0.0
C3488 C 0.23236 0.93054 0.78312 0.0
H3489 H 0.37945 0.98431 0.99163 0.0
H3490 H 0.39165 0.92677 0.02946 0.0
H3491 H 0.42726 0.95047 0.05155 0.0
H3492 H 0.43336 1.00079 0.97929 0.0
H3493 H 0.43486 0.03145 0.98355 0.0
H3494 H 0.40768 1.01211 0.97514 0.0
H3495 H 0.39314 0.03092 0.01348 0.0
H3496 H 0.42066 0.05002 0.02209 0.0
H3497 H 0.40867 0.03207 0.0436 0.0
H3498 H 0.46367 0.97188 0.05561 0.0
H3499 H 0.4995 0.99337 0.04715 0.0
H3500 H 0.4657 0.04373 0.0171 0.0
C3501 C 0.38971 0.97692 0.00473 0.0
C3502 C 0.38334 0.95372 0.00861 0.0
C3503 C 0.39679 0.94435 0.02575 0.0
C3504 C 0.41667 0.95785 0.03883 0.0
C3505 C 0.4227 0.98059 0.0345 0.0
C3506 C 0.40973 0.99022 0.01793 0.0
C3507 C 0.42214 0.01373 0.01379 0.0
C3508 C 0.42467 0.01454 0.98634 0.0
C3509 C 0.41044 0.03281 0.02385 0.0
C3510 C 0.44477 0.01481 0.02913 0.0
C3511 C 0.44446 0.99549 0.04104 0.0
C3512 C 0.46423 0.98842 0.04922 0.0
C3513 C 0.48475 1.00106 0.04485 0.0
C3514 C 0.48565 0.02171 0.03459 0.0
C3515 C 0.46545 0.02903 0.02706 0.0
H3516 H 0.84892 0.57992 0.83066 0.0
H3517 H 0.90571 0.58451 0.78833 0.0
H3518 H 0.89928 0.6215 0.77658 0.0
H3519 H 0.81223 0.59589 0.7914 0.0
H3520 H 0.79987 0.6135 0.81265 0.0
H3521 H 0.81297 0.59117 0.82316 0.0
H3522 H 0.83959 0.62111 0.85667 0.0
H3523 H 0.82676 0.64382 0.84596 0.0
H3524 H 0.85724 0.64613 0.84804 0.0
H3525 H 0.88275 0.65088 0.76222 0.0
H3526 H 0.85367 0.66874 0.7415 0.0
H3527 H 0.80768 0.64755 0.79359 0.0
C3528 C 0.85991 0.58909 0.81912 0.0
C3529 C 0.87747 0.57998 0.80999 0.0
C3530 C 0.89203 0.59177 0.79516 0.0
C3531 C 0.88886 0.61287 0.78892 0.0
C3532 C 0.87141 0.62185 0.79822 0.0
C3533 C 0.85709 0.61037 0.81295 0.0
C3534 C 0.83738 0.62182 0.81695 0.0
C3535 C 0.81427 0.60457 0.81061 0.0
C3536 C 0.84043 0.63395 0.84347 0.0
C3537 C 0.84089 0.63906 0.79893 0.0
C3538 C 0.8615 0.63983 0.78969 0.0
C3539 C 0.8669 0.65111 0.76969 0.0
C3540 C 0.85028 0.66076 0.75779 0.0
C3541 C 0.8288 0.65876 0.76604 0.0
C3542 C 0.82434 0.64907 0.78745 0.0
H3543 H 0.8375 0.64104 0.99429 0.0
H3544 H 0.84042 0.68402 0.06355 0.0
H3545 H 0.87503 0.67116 0.07991 0.0
H3546 H 0.85266 0.59385 0.01541 0.0
H3547 H 0.87132 0.58805 0.99313 0.0
H3548 H 0.84895 0.60317 0.98549 0.0
H3549 H 0.87883 0.63672 0.97482 0.0
H3550 H 0.90139 0.6217 0.98277 0.0
H3551 H 0.90283 0.65055 0.99741 0.0
H3552 H 0.90549 0.65104 0.09055 0.0
H3553 H 0.92888 0.6219 0.09628 0.0
H3554 H 0.90791 0.59178 0.02022 0.0
C3555 C 0.84587 0.64803 0.01267 0.0
C3556 C 0.83672 0.66365 0.02776 0.0
C3557 C 0.8476 0.67232 0.05178 0.0
C3558 C 0.86726 0.66521 0.06113 0.0
C3559 C 0.87604 0.64985 0.04594 0.0
C3560 C 0.86591 0.64143 0.02215 0.0
C3561 C 0.87825 0.62394 0.0105 0.0
C3562 C 0.8618 0.60089 1.00059 0.0
C3563 C 0.89108 0.63381 0.99017 0.0
C3564 C 0.89498 0.62192 0.03245 0.0
C3565 C 0.89406 0.63789 0.05226 0.0
C3566 C 0.90666 0.63867 0.07513 0.0
C3567 C 0.91981 0.62206 0.07825 0.0
C3568 C 0.91998 0.60472 0.05873 0.0
C3569 C 0.90818 0.60514 0.03526 0.0
H3570 H 0.19866 0.12074 0.77963 0.0
H3571 H 0.17251 0.1459 0.84527 0.0
H3572 H 0.19964 0.18285 0.84831 0.0
H3573 H 0.259 0.15066 0.79795 0.0
H3574 H 0.26334 0.15816 0.76783 0.0
H3575 H 0.24301 0.13254 0.77095 0.0
H3576 H 0.21136 0.147 0.74522 0.0
H3577 H 0.23163 0.17263 0.74206 0.0
H3578 H 0.20566 0.17503 0.75461 0.0
H3579 H 0.22764 0.21685 0.8447 0.0
H3580 H 0.25532 0.24846 0.83376 0.0
H3581 H 0.26482 0.20459 0.76916 0.0
C3582 C 0.1991 0.13392 0.7949 0.0
C3583 C 0.18366 0.13024 0.8126 0.0
C3584 C 0.18424 0.14818 0.83176 0.0
C3585 C 0.19961 0.16927 0.83362 0.0
C3586 C 0.21435 0.17252 0.816 0.0
C3587 C 0.21432 0.15557 0.79685 0.0
C3588 C 0.23146 0.16472 0.77986 0.0
C3589 C 0.25032 0.15067 0.7791 0.0
C3590 C 0.21929 0.16485 0.7539 0.0
C3591 C 0.24104 0.18927 0.79271 0.0
C3592 C 0.23076 0.19305 0.81353 0.0
C3593 C 0.23591 0.21412 0.82851 0.0
C3594 C 0.25176 0.23204 0.82206 0.0
C3595 C 0.26252 0.22915 0.80069 0.0
C3596 C 0.25727 0.20726 0.78588 0.0
H3597 H 0.38742 0.9396 0.33821 0.0
H3598 H 0.36229 0.96822 0.27433 0.0
H3599 H 0.33426 0.93167 0.26001 0.0
H3600 H 0.38576 0.8848 0.31262 0.0
H3601 H 0.37453 0.87054 0.33718 0.0
H3602 H 0.39094 0.89955 0.34365 0.0
H3603 H 0.35767 0.91369 0.36287 0.0
H3604 H 0.34157 0.88447 0.35737 0.0
H3605 H 0.3295 0.90712 0.34556 0.0
H3606 H 0.30917 0.89228 0.25354 0.0
H3607 H 0.28832 0.85253 0.25599 0.0
H3608 H 0.33355 0.85019 0.32185 0.0
C3609 C 0.37606 0.93794 0.32117 0.0
C3610 C 0.37706 0.95581 0.30679 0.0
C3611 C 0.36164 0.95402 0.28509 0.0
C3612 C 0.34573 0.9336 0.27698 0.0
C3613 C 0.3455 0.91583 0.29129 0.0
C3614 C 0.35991 0.91801 0.31315 0.0
C3615 C 0.35614 0.8966 0.32529 0.0
C3616 C 0.37816 0.88733 0.32992 0.0
C3617 C 0.3456 0.90073 0.34917 0.0
C3618 C 0.33903 0.88135 0.30567 0.0
C3619 C 0.33228 0.89289 0.28668 0.0
C3620 C 0.31463 0.88281 0.26793 0.0
C3621 C 0.3032 0.86036 0.26918 0.0
C3622 C 0.31067 0.8485 0.28819 0.0
C3623 C 0.32875 0.85886 0.30639 0.0
H3624 H 0.56076 0.38534 0.62136 0.0
H3625 H 0.58679 0.35563 0.55797 0.0
H3626 H 0.58357 0.39016 0.53779 0.0
H3627 H 0.51958 0.41186 0.58469 0.0
H3628 H 0.52281 0.43694 0.60716 0.0
H3629 H 0.52705 0.40995 0.6168 0.0
H3630 H 0.56736 0.42975 0.63849 0.0
H3631 H 0.56317 0.45676 0.62895 0.0
H3632 H 0.58752 0.44529 0.62126 0.0
H3633 H 0.57637 0.42902 0.52307 0.0
H3634 H 0.56785 0.46715 0.5168 0.0
H3635 H 0.54749 0.47425 0.58958 0.0
C3636 C 0.56593 0.38603 0.60326 0.0
C3637 C 0.57429 0.36699 0.59164 0.0
C3638 C 0.5804 0.3693 0.56771 0.0
C3639 C 0.57858 0.38915 0.55595 0.0
C3640 C 0.57031 0.40733 0.56778 0.0
C3641 C 0.564 0.40591 0.59099 0.0
C3642 C 0.5551 0.42777 0.59935 0.0
C3643 C 0.52963 0.42125 0.60219 0.0
C3644 C 0.56913 0.44066 0.62346 0.0
C3645 C 0.55839 0.4422 0.57793 0.0
C3646 C 0.56669 0.42971 0.55963 0.0
C3647 C 0.57004 0.43876 0.53754 0.0
C3648 C 0.56505 0.4607 0.53404 0.0
C3649 C 0.55715 0.47452 0.55251 0.0
C3650 C 0.55383 0.46474 0.57493 0.0
H3651 H 0.45641 0.81026 0.40151 0.0
H3652 H 0.43311 0.74173 0.41997 0.0
H3653 H 0.39799 0.73712 0.39047 0.0
H3654 H 0.40126 0.8256 0.39591 0.0
H3655 H 0.40548 0.84161 0.37035 0.0
H3656 H 0.42969 0.83926 0.39153 0.0
H3657 H 0.44828 0.82255 0.35551 0.0
H3658 H 0.42417 0.82496 0.3342 0.0
H3659 H 0.4325 0.79757 0.33509 0.0
H3660 H 0.36366 0.74063 0.36106 0.0
H3661 H 0.33367 0.7511 0.33303 0.0
H3662 H 0.37762 0.81737 0.33106 0.0
C3663 C 0.44414 0.79409 0.3989 0.0
C3664 C 0.448 0.77609 0.41301 0.0
C3665 C 0.43098 0.75559 0.40936 0.0
C3666 C 0.41081 0.75287 0.39259 0.0
C3667 C 0.40737 0.77085 0.37926 0.0
C3668 C 0.42362 0.79107 0.38204 0.0
C3669 C 0.41501 0.80792 0.36589 0.0
C3670 C 0.41273 0.82991 0.38187 0.0
C3671 C 0.43095 0.81359 0.34652 0.0
C3672 C 0.39147 0.7941 0.3537 0.0
C3673 C 0.38753 0.77277 0.3619 0.0
C3674 C 0.3668 0.75719 0.35438 0.0
C3675 C 0.34972 0.76335 0.33832 0.0
C3676 C 0.35299 0.78493 0.32917 0.0
C3677 C 0.37448 0.8005 0.33703 0.0
H3678 H 0.05623 0.7272 0.05287 0.0
H3679 H 0.08757 0.7352 0.1286 0.0
H3680 H 0.08692 0.69332 0.12475 0.0
H3681 H 1.01732 0.67116 0.05593 0.0
H3682 H 0.0189 0.65949 0.0248 0.0
H3683 H 0.02235 0.69017 0.03297 0.0
H3684 H 0.06125 0.69636 0.01629 0.0
H3685 H 0.05795 0.66567 0.00834 0.0
H3686 H 0.08299 0.68187 0.0281 0.0
H3687 H 0.08786 0.65051 0.11051 0.0
H3688 H 0.08194 0.61024 0.09138 0.0
H3689 H 0.0422 0.62594 0.02771 0.0
C3690 C 0.06266 0.72011 0.0688 0.0
C3691 C 0.07197 0.73512 0.09127 0.0
C3692 C 0.08016 0.72461 0.11136 0.0
C3693 C 0.08003 0.70063 0.10921 0.0
C3694 C 0.07105 0.68651 0.08693 0.0
C3695 C 0.06179 0.69574 0.06726 0.0
C3696 C 0.05196 0.67623 0.04589 0.0
C3697 C 0.02609 0.67415 0.03952 0.0
C3698 C 0.06426 0.68029 0.02331 0.0
C3699 C 0.05722 0.65472 0.0565 0.0
C3700 C 0.06894 0.66132 0.07996 0.0
C3701 C 0.0778 0.6452 0.0926 0.0
C3702 C 0.07405 0.62194 0.08162 0.0
C3703 C 0.06036 0.61385 0.05859 0.0
C3704 C 0.05211 0.63093 0.04573 0.0
H3705 H 0.09033 0.26048 0.92355 0.0
H3706 H 0.0602 0.31774 0.90452 0.0
H3707 H 0.08837 0.32681 0.87597 0.0
H3708 H 0.14873 0.28807 0.92381 0.0
H3709 H 0.1574 0.26283 0.91005 0.0
H3710 H 0.13385 0.25971 0.92773 0.0
H3711 H 0.10819 0.23371 0.8905 0.0
H3712 H 0.13159 0.23725 0.8725 0.0
H3713 H 0.10493 0.24453 0.86137 0.0
H3714 H 0.11831 0.32962 0.84917 0.0
H3715 H 0.15481 0.33212 0.83231 0.0
H3716 H 0.16892 0.2753 0.86996 0.0
C3717 C 0.08995 0.27503 0.9135 0.0
C3718 C 0.07324 0.28861 0.91625 0.0
C3719 C 0.07298 0.30732 0.90269 0.0
C3720 C 0.08873 0.31242 0.88624 0.0
C3721 C 0.10469 0.29858 0.88345 0.0
C3722 C 0.10585 0.28056 0.89698 0.0
C3723 C 0.12584 0.26953 0.8912 0.0
C3724 C 0.14245 0.27009 0.91459 0.0
C3725 C 0.11712 0.24478 0.87813 0.0
C3726 C 0.13646 0.28519 0.87365 0.0
C3727 C 0.12315 0.30103 0.86861 0.0
C3728 C 0.12896 0.31737 0.85298 0.0
C3729 C 0.14961 0.31856 0.84332 0.0
C3730 C 0.16451 0.30386 0.84969 0.0
C3731 C 0.15758 0.28645 0.86447 0.0
H3732 H 0.57761 0.77377 0.9318 0.0
H3733 H 0.53459 0.74756 0.8626 0.0
H3734 H 0.52758 0.70842 0.87519 0.0
H3735 H 0.60097 0.71926 0.93806 0.0
H3736 H 0.60138 0.72339 0.97093 0.0
H3737 H 0.60642 0.74799 0.95447 0.0
H3738 H 0.57357 0.76323 0.97299 0.0
H3739 H 0.56845 0.73878 0.98939 0.0
H3740 H 0.5455 0.74493 0.969 0.0
H3741 H 0.52031 0.67396 0.89834 0.0
H3742 H 0.51334 0.6476 0.92964 0.0
H3743 H 0.56133 0.69638 0.98364 0.0
C3744 C 0.56763 0.75952 0.91883 0.0
C3745 C 0.55722 0.76344 0.89589 0.0
C3746 C 0.54343 0.74468 0.87979 0.0
C3747 C 0.53921 0.72247 0.88694 0.0
C3748 C 0.54926 0.7193 0.91005 0.0
C3749 C 0.5635 0.73731 0.92559 0.0
C3750 C 0.57066 0.72998 0.95023 0.0
C3751 C 0.59639 0.73017 0.95362 0.0
C3752 C 0.56413 0.74513 0.97164 0.0
C3753 C 0.55684 0.70555 0.94689 0.0
C3754 C 0.54512 0.69945 0.92336 0.0
C3755 C 0.5299 0.67833 0.91656 0.0
C3756 C 0.52615 0.66338 0.93437 0.0
C3757 C 0.53739 0.6697 0.95873 0.0
C3758 C 0.55325 0.69082 0.96487 0.0
H3759 H 0.12513 0.80565 0.72393 0.0
H3760 H 0.09419 0.73981 0.74408 0.0
H3761 H 0.13272 0.73462 0.76082 0.0
H3762 H 0.1739 0.79043 0.70389 0.0
H3763 H 0.19336 0.81715 0.71621 0.0
H3764 H 0.16345 0.81677 0.70829 0.0
H3765 H 0.16144 0.83521 0.75241 0.0
H3766 H 0.19148 0.83598 0.76032 0.0
H3767 H 0.1711 0.82185 0.77824 0.0
H3768 H 0.17675 0.73518 0.7717 0.0
H3769 H 0.21888 0.7429 0.77862 0.0
H3770 H 0.22143 0.80889 0.75251 0.0
C3771 C 0.12624 0.7904 0.73261 0.0
C3772 C 0.10599 0.77335 0.733 0.0
C3773 C 0.10885 0.75351 0.74404 0.0
C3774 C 0.13093 0.75031 0.75333 0.0
C3775 C 0.15043 0.76714 0.75186 0.0
C3776 C 0.14813 0.78708 0.74219 0.0
C3777 C 0.17167 0.80249 0.7423 0.0
C3778 C 0.17583 0.80697 0.71611 0.0
C3779 C 0.17406 0.82524 0.75932 0.0
C3780 C 0.18777 0.78789 0.75274 0.0
C3781 C 0.17521 0.76759 0.75828 0.0
C3782 C 0.18645 0.75125 0.76765 0.0
C3783 C 0.21071 0.75577 0.77168 0.0
C3784 C 0.22425 0.7765 0.76661 0.0
C3785 C 0.21215 0.79272 0.75682 0.0
H3786 H 0.09147 0.40843 0.41343 0.0
H3787 H 0.02201 0.36898 0.40163 0.0
H3788 H 1.01037 0.39854 0.4293 0.0
H3789 H 0.09096 0.42778 0.47848 0.0
H3790 H 0.1082 0.45601 0.47841 0.0
H3791 H 0.11142 0.43211 0.45704 0.0
H3792 H 0.10353 0.4547 0.42071 0.0
H3793 H 0.10044 0.4787 0.44199 0.0
H3794 H 0.07778 0.46599 0.41741 0.0
H3795 H 1.00619 0.43157 0.46076 0.0
H3796 H 1.00936 0.46647 0.49059 0.0
H3797 H 0.08072 0.48739 0.48185 0.0
C3798 C 0.0737 0.40629 0.41622 0.0
C3799 C 0.05755 0.38618 0.40456 0.0
C3800 C 0.03472 0.38399 0.40974 0.0
C3801 C 0.02792 0.40083 0.42567 0.0
C3802 C 0.04411 0.42019 0.43699 0.0
C3803 C 0.06656 0.42313 0.43244 0.0
C3804 C 0.0805 0.44544 0.4477 0.0
C3805 C 0.09887 0.44001 0.46651 0.0
C3806 C 0.0912 0.46221 0.43094 0.0
C3807 C 0.06231 0.45485 0.4608 0.0
C3808 C 0.04153 0.43962 0.4547 0.0
C3809 C 0.02238 0.44366 0.46541 0.0
C3810 C 0.02435 0.46362 0.48252 0.0
C3811 C 0.04516 0.48006 0.48872 0.0
C3812 C 0.06442 0.47544 0.47747 0.0
H3813 H 0.44286 0.23606 0.20798 0.0
H3814 H 0.48947 0.29215 0.25516 0.0
H3815 H 0.45673 0.30439 0.27229 0.0
H3816 H 0.39524 0.26301 0.19497 0.0
H3817 H 0.3732 0.23885 0.19836 0.0
H3818 H 0.40009 0.23407 0.18965 0.0
H3819 H 0.40545 0.21148 0.2265 0.0
H3820 H 0.3785 0.21619 0.23522 0.0
H3821 H 0.40412 0.22492 0.257 0.0
H3822 H 0.41796 0.31099 0.28519 0.0
H3823 H 0.37872 0.31087 0.29288 0.0
H3824 H 0.35409 0.25119 0.23782 0.0
C3825 C 0.44627 0.25081 0.22208 0.0
C3826 C 0.46954 0.26292 0.2301 0.0
C3827 C 0.47245 0.28214 0.24867 0.0
C3828 C 0.45367 0.28938 0.25853 0.0
C3829 C 0.43125 0.27715 0.25039 0.0
C3830 C 0.42745 0.25797 0.23284 0.0
C3831 C 0.40151 0.24737 0.2284 0.0
C3832 C 0.39194 0.24573 0.20121 0.0
C3833 C 0.39713 0.22357 0.23728 0.0
C3834 C 0.39117 0.2644 0.24466 0.0
C3835 C 0.40891 0.28112 0.2576 0.0
C3836 C 0.40417 0.29804 0.27474 0.0
C3837 C 0.38127 0.29801 0.27883 0.0
C3838 C 0.36211 0.2818 0.26557 0.0
C3839 C 0.36764 0.26448 0.24816 0.0
H3840 H 0.64885 0.54771 0.3883 0.0
H3841 H 0.59697 0.57339 0.34471 0.0
H3842 H 0.57322 0.57078 0.37807 0.0
H3843 H 0.60937 0.50698 0.41535 0.0
H3844 H 0.62594 0.51174 0.44537 0.0
H3845 H 0.64002 0.51607 0.41857 0.0
H3846 H 0.6589 0.55783 0.43804 0.0
H3847 H 0.64493 0.55348 0.46491 0.0
H3848 H 0.64112 0.57714 0.44828 0.0
H3849 H 0.55465 0.56567 0.41493 0.0
H3850 H 0.54176 0.55864 0.45429 0.0
H3851 H 0.60394 0.53484 0.47642 0.0
C3852 C 0.63265 0.55311 0.386 0.0
C3853 C 0.62494 0.561 0.36371 0.0
C3854 C 0.60342 0.56744 0.36141 0.0
C3855 C 0.58971 0.56597 0.38032 0.0
C3856 C 0.59754 0.55797 0.40176 0.0
C3857 C 0.61848 0.55168 0.40493 0.0
C3858 C 0.62219 0.54335 0.43006 0.0
C3859 C 0.62453 0.51803 0.42716 0.0
C3860 C 0.64304 0.55887 0.44628 0.0
C3861 C 0.60011 0.546 0.44027 0.0
C3862 C 0.58631 0.55452 0.42343 0.0
C3863 C 0.56526 0.5589 0.42823 0.0
C3864 C 0.55805 0.5547 0.45084 0.0
C3865 C 0.57158 0.54587 0.46878 0.0
C3866 C 0.59301 0.5414 0.46323 0.0
H3867 H 0.28933 0.91598 0.07583 0.0
H3868 H 0.34629 0.89934 0.04065 0.0
H3869 H 0.3521 0.87237 0.07008 0.0
H3870 H 0.3194 0.91635 0.1391 0.0
H3871 H 0.29307 0.90541 0.15057 0.0
H3872 H 0.29293 0.92277 0.12591 0.0
H3873 H 0.26204 0.88986 0.10035 0.0
H3874 H 0.26341 0.87184 0.12443 0.0
H3875 H 0.26831 0.86163 0.09393 0.0
H3876 H 0.34562 0.84136 0.09474 0.0
H3877 H 0.34929 0.82647 0.13427 0.0
H3878 H 0.3049 0.86978 0.16196 0.0
C3879 C 0.30349 0.90724 0.07505 0.0
C3880 C 0.31686 0.90873 0.05563 0.0
C3881 C 0.3356 0.8977 0.05519 0.0
C3882 C 0.33868 0.88203 0.07138 0.0
C3883 C 0.32354 0.87866 0.08846 0.0
C3884 C 0.30783 0.89238 0.09214 0.0
C3885 C 0.29675 0.88745 0.11493 0.0
C3886 C 0.30081 0.9093 0.13375 0.0
C3887 C 0.2711 0.87708 0.108 0.0
C3888 C 0.30962 0.86954 0.12368 0.0
C3889 C 0.32311 0.86335 0.10648 0.0
C3890 C 0.33588 0.84652 0.10894 0.0
C3891 C 0.33766 0.838 0.13128 0.0
C3892 C 0.32819 0.8478 0.15107 0.0
C3893 C 0.31242 0.86227 0.14693 0.0
H3894 H 0.93159 0.49676 0.88502 0.0
H3895 H 0.92596 0.5684 0.88934 0.0
H3896 H 0.96003 0.57931 0.92063 0.0
H3897 H 0.94781 0.4989 0.95048 0.0
H3898 H 0.96664 0.47893 0.94658 0.0
H3899 H 0.94219 0.47715 0.924 0.0
H3900 H 0.96892 0.48067 0.89026 0.0
H3901 H 0.99354 0.48312 0.91289 0.0
H3902 H 0.99225 0.50521 0.89326 0.0
H3903 H 0.99384 0.58265 0.94953 0.0
H3904 H 0.02209 0.57771 0.98316 0.0
H3905 H 1.0057 0.50367 0.96152 0.0
C3906 C 0.93718 0.51455 0.89337 0.0
C3907 C 0.9262 0.5318 0.88581 0.0
C3908 C 0.93399 0.55506 0.89602 0.0
C3909 C 0.95353 0.56142 0.91317 0.0
C3910 C 0.96458 0.54414 0.91973 0.0
C3911 C 0.9564 0.52114 0.91085 0.0
C3912 C 0.97054 0.50595 0.92262 0.0
C3913 C 0.95593 0.48924 0.93678 0.0
C3914 C 0.98199 0.49298 0.90361 0.0
C3915 C 0.98778 0.52411 0.93971 0.0
C3916 C 0.98427 0.54604 0.93715 0.0
C3917 C 0.99687 0.56566 0.95185 0.0
C3918 C 1.01267 0.56269 0.97083 0.0
C3919 C 1.01539 0.54032 0.97463 0.0
C3920 C 1.00374 0.52087 0.95844 0.0
H3921 H 0.27986 0.25508 0.59134 0.0
H3922 H 0.28285 0.1833 0.59391 0.0
H3923 H 0.28622 0.18984 0.63924 0.0
H3924 H 0.32228 0.27609 0.64779 0.0
H3925 H 0.30851 0.29927 0.65722 0.0
H3926 H 0.3071 0.28908 0.62501 0.0
H3927 H 0.26289 0.28191 0.62069 0.0
H3928 H 0.26418 0.29172 0.65295 0.0
H3929 H 0.24789 0.26353 0.64007 0.0
H3930 H 0.28712 0.20346 0.68417 0.0
H3931 H 0.28915 0.22377 0.72584 0.0
H3932 H 0.28667 0.28758 0.69571 0.0
C3933 C 0.2814 0.24079 0.60148 0.0
C3934 C 0.28096 0.21858 0.58887 0.0
C3935 C 0.28327 0.20046 0.60295 0.0
C3936 C 0.28508 0.20399 0.62879 0.0
C3937 C 0.28506 0.22592 0.64057 0.0
C3938 C 0.2838 0.24416 0.62745 0.0
C3939 C 0.28496 0.26617 0.64489 0.0
C3940 C 0.30702 0.2837 0.64365 0.0
C3941 C 0.26371 0.27643 0.63931 0.0
C3942 C 0.28566 0.25719 0.66971 0.0
C3943 C 0.28603 0.23394 0.66668 0.0
C3944 C 0.28702 0.22168 0.6867 0.0
C3945 C 0.28815 0.23344 0.7104 0.0
C3946 C 0.28813 0.25734 0.71427 0.0
C3947 C 0.28653 0.26929 0.69346 0.0
H3948 H 0.60902 0.52454 0.21983 0.0
H3949 H 0.62903 0.59899 0.23627 0.0
H3950 H 0.61678 0.60279 0.19334 0.0
H3951 H 0.6265 0.52221 0.1559 0.0
H3952 H 0.60294 0.49902 0.14292 0.0
H3953 H 0.61484 0.50123 0.17473 0.0
H3954 H 0.57482 0.50113 0.18765 0.0
H3955 H 0.56289 0.49911 0.15592 0.0
H3956 H 0.55917 0.52226 0.17796 0.0
H3957 H 0.60088 0.5999 0.15029 0.0
H3958 H 0.58375 0.58993 0.10722 0.0
H3959 H 0.57221 0.51741 0.11533 0.0
C3960 C 0.61138 0.54153 0.21411 0.0
C3961 C 0.62024 0.56158 0.23154 0.0
C3962 C 0.6225 0.58347 0.22337 0.0
C3963 C 0.6155 0.58583 0.19896 0.0
C3964 C 0.60632 0.5661 0.18242 0.0
C3965 C 0.60448 0.54428 0.18929 0.0
C3966 C 0.59352 0.52624 0.16716 0.0
C3967 C 0.61046 0.51128 0.15975 0.0
C3968 C 0.57127 0.51131 0.17251 0.0
C3969 C 0.58882 0.54152 0.14742 0.0
C3970 C 0.59662 0.56441 0.15686 0.0
C3971 C 0.59453 0.58202 0.14272 0.0
C3972 C 0.5843 0.57624 0.11823 0.0
C3973 C 0.57566 0.55311 0.10777 0.0
C3974 C 0.57828 0.5354 0.12268 0.0
H3975 H 0.33727 0.91432 0.92992 0.0
H3976 H 0.26553 0.9041 0.93876 0.0
H3977 H 0.25703 0.86967 0.90748 0.0
H3978 H 0.32979 0.89612 0.86338 0.0
H3979 H 0.35474 0.88347 0.86731 0.0
H3980 H 0.35234 0.90766 0.88847 0.0
H3981 H 0.35989 0.8815 0.9226 0.0
H3982 H 0.35924 0.85719 0.8999 0.0
H3983 H 0.3399 0.8548 0.92265 0.0
H3984 H 0.25608 0.83857 0.87532 0.0
H3985 H 0.26208 0.81308 0.83948 0.0
H3986 H 0.33499 0.84115 0.85373 0.0
C3987 C 0.31973 0.90526 0.92435 0.0
C3988 C 0.30178 0.91191 0.93542 0.0
C3989 C 0.27912 0.89939 0.92922 0.0
C3990 C 0.27428 0.8797 0.91206 0.0
C3991 C 0.29245 0.87306 0.90183 0.0
C3992 C 0.31464 0.88553 0.90738 0.0
C3993 C 0.33084 0.8748 0.89334 0.0
C3994 C 0.34256 0.89154 0.87712 0.0
C3995 C 0.3485 0.86658 0.91067 0.0
C3996 C 0.31405 0.85483 0.87829 0.0
C3997 C 0.29207 0.85402 0.88387 0.0
C3998 C 0.27315 0.83878 0.87079 0.0
C3999 C 0.27664 0.82467 0.85049 0.0
C4000 C 0.29885 0.82599 0.8441 0.0
C4001 C 0.31792 0.84025 0.85864 0.0
H4002 H 0.92752 0.55298 0.74769 0.0
H4003 H 0.93954 0.49246 0.77997 0.0
H4004 H 0.96369 0.4842 0.74857 0.0
H4005 H 0.9217 0.52366 0.68393 0.0
H4006 H 0.93432 0.54976 0.67265 0.0
H4007 H 0.91894 0.5513 0.69871 0.0
H4008 H 0.955 0.57915 0.72278 0.0
H4009 H 0.97095 0.57604 0.69724 0.0
H4010 H 0.98161 0.56951 0.7269 0.0
H4011 H 0.9908 0.48598 0.7204 0.0
H4012 H 1.00063 0.48007 0.67859 0.0
H4013 H 0.96631 0.53425 0.65825 0.0
C4014 C 0.93487 0.53775 0.74756 0.0
C4015 C 0.93291 0.52383 0.76651 0.0
C4016 C 0.94179 0.50358 0.76577 0.0
C4017 C 0.95582 0.49906 0.74845 0.0
C4018 C 0.95985 0.51455 0.73169 0.0
C4019 C 0.9482 0.53223 0.72955 0.0
C4020 C 0.95289 0.54342 0.70681 0.0
C4021 C 0.93064 0.54191 0.6895 0.0
C4022 C 0.96589 0.56852 0.71386 0.0
C4023 C 0.96806 0.52829 0.69622 0.0
C4024 C 0.97333 0.51331 0.71232 0.0
C4025 C 0.98651 0.49714 0.70722 0.0
C4026 C 0.99199 0.49392 0.6836 0.0
C4027 C 0.98337 0.50618 0.66565 0.0
C4028 C 0.97282 0.52474 0.67209 0.0
H4029 H 0.28228 0.24268 0.46423 0.0
H4030 H 0.27787 0.1717 0.43285 0.0
H4031 H 0.28574 0.18442 0.39337 0.0
H4032 H 0.25468 0.26118 0.41113 0.0
H4033 H 0.27338 0.28912 0.41414 0.0
H4034 H 0.26894 0.27505 0.44097 0.0
H4035 H 0.31255 0.27868 0.45121 0.0
H4036 H 0.31711 0.29258 0.42423 0.0
H4037 H 0.32815 0.26707 0.42855 0.0
H4038 H 0.29636 0.20405 0.3578 0.0
H4039 H 0.30194 0.22862 0.32545 0.0
H4040 H 0.29385 0.2872 0.37539 0.0
C4041 C 0.2828 0.22982 0.44898 0.0
C4042 C 0.27936 0.20599 0.45202 0.0
C4043 C 0.28042 0.18995 0.43142 0.0
C4044 C 0.28505 0.19703 0.40876 0.0
C4045 C 0.28858 0.2204 0.40644 0.0
C4046 C 0.28724 0.23664 0.42576 0.0
C4047 C 0.2911 0.26061 0.41744 0.0
C4048 C 0.2708 0.27217 0.42113 0.0
C4049 C 0.31355 0.27563 0.43118 0.0
C4050 C 0.29318 0.25491 0.39012 0.0
C4051 C 0.29283 0.2317 0.38478 0.0
C4052 C 0.29621 0.22219 0.36166 0.0
C4053 C 0.29941 0.23648 0.34324 0.0
C4054 C 0.29808 0.2601 0.34717 0.0
C4055 C 0.2951 0.26941 0.37131 0.0
H4056 H 0.32359 0.6093 0.53634 0.0
H4057 H 0.35012 0.62033 0.61377 0.0
H4058 H 0.38411 0.60454 0.60385 0.0
H4059 H 0.34107 0.55791 0.51743 0.0
H4060 H 0.34886 0.567 0.48887 0.0
H4061 H 0.32663 0.57772 0.50278 0.0
H4062 H 0.34811 0.61981 0.50267 0.0
H4063 H 0.3704 0.60929 0.48862 0.0
H4064 H 0.37735 0.62867 0.51701 0.0
H4065 H 0.41602 0.59073 0.58381 0.0
H4066 H 0.44269 0.57897 0.55642 0.0
H4067 H 0.39194 0.57601 0.49305 0.0
C4068 C 0.3363 0.6078 0.55125 0.0
C4069 C 0.33451 0.6151 0.57571 0.0
C4070 C 0.35149 0.61403 0.59496 0.0
C4071 C 0.37068 0.60534 0.58944 0.0
C4072 C 0.37213 0.59848 0.56475 0.0
C4073 C 0.35536 0.59979 0.54607 0.0
C4074 C 0.36122 0.59316 0.52099 0.0
C4075 C 0.34339 0.57271 0.5067 0.0
C4076 C 0.36446 0.61397 0.50649 0.0
C4077 C 0.38355 0.58668 0.52832 0.0
C4078 C 0.38997 0.59035 0.55349 0.0
C4079 C 0.41104 0.58741 0.56411 0.0
C4080 C 0.42595 0.58064 0.54839 0.0
C4081 C 0.41933 0.5766 0.52251 0.0
C4082 C 0.39773 0.57933 0.51261 0.0
H4083 H 0.8971 0.91658 0.51519 0.0
H4084 H 0.873 0.94725 0.5795 0.0
H4085 H 0.90654 0.97969 0.58509 0.0
H4086 H 0.95637 0.9322 0.53763 0.0
H4087 H 0.96516 0.93815 0.5085 0.0
H4088 H 0.93941 0.91736 0.50946 0.0
H4089 H 0.91562 0.93951 0.48242 0.0
H4090 H 0.94129 0.96007 0.48052 0.0
H4091 H 0.91715 0.96979 0.49149 0.0
H4092 H 0.94586 1.00682 0.58563 0.0
H4093 H 0.98367 0.02786 0.57789 0.0
H4094 H 0.97635 0.98403 0.5085 0.0
C4095 C 0.89889 0.93008 0.5305 0.0
C4096 C 0.88266 0.92911 0.54717 0.0
C4097 C 0.88537 0.94745 0.56664 0.0
C4098 C 0.90437 0.96596 0.56996 0.0
C4099 C 0.92022 0.9662 0.55329 0.0
C4100 C 0.9173 0.94895 0.53364 0.0
C4101 C 0.93633 0.95333 0.51794 0.0
C4102 C 0.95012 0.93412 0.5184 0.0
C4103 C 0.92703 0.95583 0.49153 0.0
C4104 C 0.9503 0.97591 0.53149 0.0
C4105 C 0.94125 0.98275 0.55233 0.0
C4106 C 0.95275 1.00182 0.56904 0.0
C4107 C 0.97411 0.01382 0.56443 0.0
C4108 C 0.98326 1.00732 0.54282 0.0
C4109 C 0.97064 0.98868 0.52581 0.0
H4110 H 0.92522 0.10006 0.25831 0.0
H4111 H 0.88447 0.0505 0.29618 0.0
H4112 H 0.8588 0.07716 0.30374 0.0
H4113 H 0.92259 0.15075 0.29568 0.0
H4114 H 0.9187 0.16782 0.27113 0.0
H4115 H 0.93314 0.14421 0.26694 0.0
H4116 H 0.90427 0.12686 0.22798 0.0
H4117 H 0.88941 0.15023 0.23252 0.0
H4118 H 0.87413 0.12084 0.23025 0.0
H4119 H 0.83849 0.1084 0.30897 0.0
H4120 H 0.82738 0.14597 0.31676 0.0
H4121 H 0.88047 0.1767 0.27634 0.0
C4122 C 0.9108 0.09495 0.26806 0.0
C4123 C 0.90656 0.07319 0.27651 0.0
C4124 C 0.88767 0.06696 0.28925 0.0
C4125 C 0.87295 0.08192 0.29355 0.0
C4126 C 0.87706 0.10295 0.28456 0.0
C4127 C 0.89549 0.10967 0.27217 0.0
C4128 C 0.89602 0.13377 0.26539 0.0
C4129 C 0.91898 0.15009 0.27541 0.0
C4130 C 0.89065 0.13287 0.23737 0.0
C4131 C 0.87649 0.14013 0.27809 0.0
C4132 C 0.86518 0.12159 0.28794 0.0
C4133 C 0.84696 0.12304 0.30113 0.0
C4134 C 0.84067 0.14434 0.30534 0.0
C4135 C 0.85291 0.16389 0.29685 0.0
C4136 C 0.87065 0.16173 0.28252 0.0
H4137 H 0.70957 0.10894 0.07355 0.0
H4138 H 0.71036 0.11888 0.99707 0.0
H4139 H 0.66984 0.09861 0.98756 0.0
H4140 H 0.6665 0.05258 0.06359 0.0
H4141 H 0.65374 0.06124 0.09018 0.0
H4142 H 0.68389 0.07099 0.0896 0.0
H4143 H 0.67886 0.11308 0.09934 0.0
H4144 H 0.64863 0.10344 0.09891 0.0
H4145 H 0.65909 0.12399 0.07907 0.0
H4146 H 0.62981 0.07841 0.98696 0.0
H4147 H 0.59186 0.05963 0.99606 0.0
H4148 H 0.61644 0.07324 0.07392 0.0
C4149 C 0.70137 0.10581 0.05466 0.0
C4150 C 0.71259 0.11456 0.03569 0.0
C4151 C 0.70162 0.11153 0.01138 0.0
C4152 C 0.67883 0.1002 0.00594 0.0
C4153 C 0.66772 0.09273 0.02526 0.0
C4154 C 0.67858 0.09528 0.04915 0.0
C4155 C 0.66215 0.08851 0.06702 0.0
C4156 C 0.66685 0.06705 0.07824 0.0
C4157 C 0.6622 0.10847 0.08725 0.0
C4158 C 0.64037 0.08294 0.04948 0.0
C4159 C 0.64394 0.0846 0.02543 0.0
C4160 C 0.6265 0.07771 0.00576 0.0
C4161 C 0.60489 0.0679 0.01095 0.0
C4162 C 0.60114 0.06656 0.03546 0.0
C4163 C 0.61884 0.07485 0.05495 0.0
H4164 H 0.215 0.48303 0.22895 0.0
H4165 H 0.25629 0.53978 0.28025 0.0
H4166 H 0.27917 0.51392 0.29679 0.0
H4167 H 0.20887 0.4428 0.26436 0.0
H4168 H 0.21304 0.4188 0.24374 0.0
H4169 H 0.20357 0.4425 0.23151 0.0
H4170 H 0.23777 0.44798 0.2066 0.0
H4171 H 0.24757 0.42425 0.21894 0.0
H4172 H 0.26646 0.45207 0.22216 0.0
H4173 H 0.29045 0.48289 0.31431 0.0
H4174 H 0.29108 0.44655 0.33135 0.0
H4175 H 0.24538 0.40871 0.26776 0.0
C4176 C 0.22971 0.48998 0.24267 0.0
C4177 C 0.23463 0.51325 0.25281 0.0
C4178 C 0.25311 0.52206 0.27158 0.0
C4179 C 0.26616 0.50754 0.28114 0.0
C4180 C 0.26089 0.48453 0.27109 0.0
C4181 C 0.24345 0.47574 0.25195 0.0
C4182 C 0.23993 0.44986 0.2466 0.0
C4183 C 0.21487 0.43783 0.2466 0.0
C4184 C 0.24844 0.44312 0.22213 0.0
C4185 C 0.25555 0.44545 0.26816 0.0
C4186 C 0.2682 0.46583 0.2813 0.0
C4187 C 0.28134 0.46673 0.30386 0.0
C4188 C 0.2813 0.44624 0.31358 0.0
C4189 C 0.268 0.4255 0.30078 0.0
C4190 C 0.2556 0.42474 0.27753 0.0
H4191 H 0.27151 0.45442 0.05622 0.0
H4192 H 0.23483 0.3844 0.03015 0.0
H4193 H 0.19861 0.39794 0.02572 0.0
H4194 H 0.22538 0.47254 0.0892 0.0
H4195 H 0.23121 0.50105 0.08032 0.0
H4196 H 0.25405 0.48567 0.08509 0.0
H4197 H 0.26389 0.49053 0.04109 0.0
H4198 H 0.24144 0.50622 0.03649 0.0
H4199 H 0.24171 0.48111 0.01525 0.0
H4200 H 0.16738 0.41891 0.02001 0.0
H4201 H 0.14371 0.44688 0.00919 0.0
H4202 H 0.2003 0.50324 0.03829 0.0
C4203 C 0.25578 0.44187 0.05016 0.0
C4204 C 0.25588 0.41831 0.04386 0.0
C4205 C 0.23507 0.40248 0.03539 0.0
C4206 C 0.21441 0.40998 0.03293 0.0
C4207 C 0.21487 0.43329 0.03924 0.0
C4208 C 0.23499 0.44906 0.04758 0.0
C4209 C 0.231 0.47343 0.05071 0.0
C4210 C 0.23569 0.48378 0.07795 0.0
C4211 C 0.24535 0.4887 0.03493 0.0
C4212 C 0.20576 0.46894 0.04139 0.0
C4213 C 0.19665 0.44561 0.03565 0.0
C4214 C 0.17411 0.4372 0.02493 0.0
C4215 C 0.16077 0.4531 0.01901 0.0
C4216 C 0.17024 0.47693 0.02357 0.0
C4217 C 0.19268 0.48502 0.03551 0.0
H4218 H 0.8857 0.95921 0.25936 0.0
H4219 H 0.9456 0.93685 0.29228 0.0
H4220 H 0.92263 0.89923 0.29364 0.0
H4221 H 0.8449 0.92835 0.29445 0.0
H4222 H 0.82189 0.91854 0.2695 0.0
H4223 H 0.8424 0.94478 0.26909 0.0
H4224 H 0.85122 0.92881 0.2266 0.0
H4225 H 0.83077 0.90248 0.22699 0.0
H4226 H 0.85985 0.90147 0.22282 0.0
H4227 H 0.89712 0.86375 0.28796 0.0
H4228 H 0.86613 0.83134 0.285 0.0
H4229 H 0.81751 0.87264 0.26202 0.0
C4230 C 0.89387 0.94631 0.2668 0.0
C4231 C 0.91792 0.95126 0.2753 0.0
C4232 C 0.92765 0.93383 0.2851 0.0
C4233 C 0.91467 0.91215 0.286 0.0
C4234 C 0.89159 0.90763 0.27718 0.0
C4235 C 0.88082 0.92395 0.26806 0.0
C4236 C 0.85521 0.9133 0.2606 0.0
C4237 C 0.84021 0.92708 0.27425 0.0
C4238 C 0.84888 0.91142 0.23259 0.0
C4239 C 0.85365 0.8892 0.26854 0.0
C4240 C 0.87533 0.88654 0.27676 0.0
C4241 C 0.87988 0.86576 0.28242 0.0
C4242 C 0.86182 0.84714 0.28054 0.0
C4243 C 0.83885 0.84911 0.27462 0.0
C4244 C 0.83466 0.8706 0.26795 0.0
H4245 H 0.71462 0.13311 0.73391 0.0
H4246 H 0.71009 0.12546 0.81051 0.0
H4247 H 0.73762 0.16237 0.82329 0.0
H4248 H 0.77469 0.16014 0.74133 0.0
H4249 H 0.7711 0.17995 0.71952 0.0
H4250 H 0.75197 0.15224 0.71589 0.0
H4251 H 0.71726 0.17222 0.71557 0.0
H4252 H 0.73637 0.19986 0.71887 0.0
H4253 H 0.71644 0.194 0.74062 0.0
H4254 H 0.76751 0.19719 0.82771 0.0
H4255 H 0.79255 0.23424 0.82358 0.0
H4256 H 0.77265 0.22219 0.74474 0.0
C4257 C 0.71936 0.13954 0.75328 0.0
C4258 C 0.71053 0.12716 0.77147 0.0
C4259 C 0.71682 0.13537 0.79665 0.0
C4260 C 0.73251 0.15596 0.80399 0.0
C4261 C 0.74133 0.16779 0.78574 0.0
C4262 C 0.73468 0.1603 0.76091 0.0
C4263 C 0.74579 0.17722 0.74524 0.0
C4264 C 0.76183 0.16674 0.72958 0.0
C4265 C 0.72789 0.18638 0.72915 0.0
C4266 C 0.75919 0.19545 0.76529 0.0
C4267 C 0.75704 0.18925 0.78843 0.0
C4268 C 0.76887 0.20269 0.8098 0.0
C4269 C 0.78263 0.2237 0.80741 0.0
C4270 C 0.78315 0.23105 0.78413 0.0
C4271 C 0.77203 0.21666 0.76275 0.0
loop_
_geom_bond_atom_site_label_1
_geom_bond_atom_site_label_2
_geom_bond_distance
_geom_bond_site_symmetry_2
_ccdc_geom_bond_type
Co0 O1 2.216 . S
Co0 O2 2.091 . S
Co0 O4 2.004 . S
Co0 O10 2.021 . S
Co0 O12 2.137 . S
Co0 O13 2.244 . S
O1 Co0 2.216 . S
O1 C8 1.247 . S
O2 Co0 2.091 . S
O2 C8 1.261 . S
C3 O12 1.247 . S
C3 O13 1.272 . S
O4 Co0 2.004 . S
O4 C9 1.259 1_455 S
Co5 O6 2.061 1_455 S
Co5 O11 2.052 . S
Co5 O13 2.135 . S
O6 Co5 2.061 1_655 S
O6 C9 1.235 . S
C7 O10 1.238 . S
C7 O11 1.241 . S
C8 O1 1.247 . S
C8 O2 1.261 . S
C9 O4 1.259 1_655 S
C9 O6 1.235 . S
O10 Co0 2.021 . S
O10 C7 1.238 . S
O11 Co5 2.052 . S
O11 C7 1.241 . S
O12 Co0 2.137 . S
O12 C3 1.247 . S
O13 Co0 2.244 . S
O13 C3 1.272 . S
O13 Co5 2.135 . S
Co14 O15 2.216 1_455 S
Co14 O16 2.091 1_455 S
Co14 O18 2.004 . S
Co14 O24 2.021 . S
Co14 O26 2.137 . S
Co14 O27 2.244 . S
O15 Co14 2.216 1_655 S
O15 C22 1.247 . S
O16 Co14 2.091 1_655 S
O16 C22 1.261 . S
C17 O26 1.247 . S
C17 O27 1.272 . S
O18 Co14 2.004 . S
O18 C23 1.259 . S
Co19 O20 2.061 . S
Co19 O25 2.052 . S
Co19 O27 2.135 . S
O20 Co19 2.061 . S
O20 C23 1.235 . S
C21 O24 1.238 . S
C21 O25 1.241 . S
C22 O15 1.247 . S
C22 O16 1.261 . S
C23 O18 1.259 . S
C23 O20 1.235 . S
O24 Co14 2.021 . S
O24 C21 1.238 . S
O25 Co19 2.052 . S
O25 C21 1.241 . S
O26 Co14 2.137 . S
O26 C17 1.247 . S
O27 Co14 2.244 . S
O27 C17 1.272 . S
O27 Co19 2.135 . S
Co28 O29 2.216 . S
Co28 O30 2.091 . S
Co28 O32 2.004 . S
Co28 O38 2.021 . S
Co28 O40 2.137 . S
Co28 O41 2.244 . S
O29 Co28 2.216 . S
O29 C36 1.247 . S
O30 Co28 2.091 . S
O30 C36 1.261 . S
C31 O40 1.247 . S
C31 O41 1.272 . S
O32 Co28 2.004 . S
O32 C37 1.259 . S
Co33 O34 2.061 . S
Co33 O39 2.052 . S
Co33 O41 2.135 . S
O34 Co33 2.061 . S
O34 C37 1.235 . S
C35 O38 1.238 . S
C35 O39 1.241 . S
C36 O29 1.247 . S
C36 O30 1.261 . S
C37 O32 1.259 . S
C37 O34 1.235 . S
O38 Co28 2.021 . S
O38 C35 1.238 . S
O39 Co33 2.052 . S
O39 C35 1.241 . S
O40 Co28 2.137 . S
O40 C31 1.247 . S
O41 Co28 2.244 . S
O41 C31 1.272 . S
O41 Co33 2.135 . S
Co42 O43 2.216 . S
Co42 O44 2.091 . S
Co42 O46 2.004 . S
Co42 O52 2.021 . S
Co42 O54 2.137 . S
Co42 O55 2.244 . S
O43 Co42 2.216 . S
O43 C50 1.247 . S
O44 Co42 2.091 . S
O44 C50 1.261 . S
C45 O54 1.247 . S
C45 O55 1.272 . S
O46 Co42 2.004 . S
O46 C51 1.259 . S
Co47 O48 2.061 . S
Co47 O53 2.052 . S
Co47 O55 2.135 . S
O48 Co47 2.061 . S
O48 C51 1.235 . S
C49 O52 1.238 . S
C49 O53 1.241 . S
C50 O43 1.247 . S
C50 O44 1.261 . S
C51 O46 1.259 . S
C51 O48 1.235 . S
O52 Co42 2.021 . S
O52 C49 1.238 . S
O53 Co47 2.052 . S
O53 C49 1.241 . S
O54 Co42 2.137 . S
O54 C45 1.247 . S
O55 Co42 2.244 . S
O55 C45 1.272 . S
O55 Co47 2.135 . S
Co56 O57 2.216 . S
Co56 O58 2.091 . S
Co56 O60 2.004 . S
Co56 O66 2.021 . S
Co56 O68 2.137 . S
Co56 O69 2.244 . S
O57 Co56 2.216 . S
O57 C64 1.247 . S
O58 Co56 2.091 . S
O58 C64 1.261 . S
C59 O68 1.247 . S
C59 O69 1.272 . S
O60 Co56 2.004 . S
O60 C65 1.259 . S
Co61 O62 2.061 . S
Co61 O67 2.052 . S
Co61 O69 2.135 . S
O62 Co61 2.061 . S
O62 C65 1.235 . S
C63 O66 1.238 . S
C63 O67 1.241 . S
C64 O57 1.247 . S
C64 O58 1.261 . S
C65 O60 1.259 . S
C65 O62 1.235 . S
O66 Co56 2.021 . S
O66 C63 1.238 . S
O67 Co61 2.052 . S
O67 C63 1.241 . S
O68 Co56 2.137 . S
O68 C59 1.247 . S
O69 Co56 2.244 . S
O69 C59 1.272 . S
O69 Co61 2.135 . S
Co70 O71 2.216 . S
Co70 O72 2.091 . S
Co70 O74 2.004 . S
Co70 O80 2.021 . S
Co70 O82 2.137 . S
Co70 O83 2.244 . S
O71 Co70 2.216 . S
O71 C78 1.247 . S
O72 Co70 2.091 . S
O72 C78 1.261 . S
C73 O82 1.247 . S
C73 O83 1.272 . S
O74 Co70 2.004 . S
O74 C79 1.259 . S
Co75 O76 2.061 . S
Co75 O81 2.052 . S
Co75 O83 2.135 . S
O76 Co75 2.061 . S
O76 C79 1.235 . S
C77 O80 1.238 . S
C77 O81 1.241 . S
C78 O71 1.247 . S
C78 O72 1.261 . S
C79 O74 1.259 . S
C79 O76 1.235 . S
O80 Co70 2.021 . S
O80 C77 1.238 . S
O81 Co75 2.052 . S
O81 C77 1.241 . S
O82 Co70 2.137 . S
O82 C73 1.247 . S
O83 Co70 2.244 . S
O83 C73 1.272 . S
O83 Co75 2.135 . S
Co84 O85 2.216 . S
Co84 O86 2.091 . S
Co84 O88 2.004 . S
Co84 O94 2.021 . S
Co84 O96 2.137 . S
Co84 O97 2.244 . S
O85 Co84 2.216 . S
O85 C92 1.247 . S
O86 Co84 2.091 . S
O86 C92 1.261 . S
C87 O96 1.247 . S
C87 O97 1.272 . S
O88 Co84 2.004 . S
O88 C93 1.259 . S
Co89 O90 2.061 . S
Co89 O95 2.052 . S
Co89 O97 2.135 . S
O90 Co89 2.061 . S
O90 C93 1.235 . S
C91 O94 1.238 . S
C91 O95 1.241 . S
C92 O85 1.247 . S
C92 O86 1.261 . S
C93 O88 1.259 . S
C93 O90 1.235 . S
O94 Co84 2.021 . S
O94 C91 1.238 . S
O95 Co89 2.052 . S
O95 C91 1.241 . S
O96 Co84 2.137 . S
O96 C87 1.247 . S
O97 Co84 2.244 . S
O97 C87 1.272 . S
O97 Co89 2.135 . S
Co98 O99 2.216 . S
Co98 O100 2.091 . S
Co98 O102 2.004 1_455 S
Co98 O108 2.021 1_455 S
Co98 O110 2.137 . S
Co98 O111 2.244 1_455 S
O99 Co98 2.216 . S
O99 C106 1.247 . S
O100 Co98 2.091 . S
O100 C106 1.261 . S
C101 O110 1.247 . S
C101 O111 1.272 1_455 S
O102 Co98 2.004 1_655 S
O102 C107 1.259 . S
Co103 O104 2.061 . S
Co103 O109 2.052 . S
Co103 O111 2.135 . S
O104 Co103 2.061 . S
O104 C107 1.235 . S
C105 O108 1.238 . S
C105 O109 1.241 . S
C106 O99 1.247 . S
C106 O100 1.261 . S
C107 O102 1.259 . S
C107 O104 1.235 . S
O108 Co98 2.021 1_655 S
O108 C105 1.238 . S
O109 Co103 2.052 . S
O109 C105 1.241 . S
O110 Co98 2.137 . S
O110 C101 1.247 . S
O111 Co98 2.244 1_655 S
O111 C101 1.272 1_655 S
O111 Co103 2.135 . S
Co112 O113 2.216 . S
Co112 O114 2.091 . S
Co112 O116 2.004 1_545 S
Co112 O122 2.021 . S
Co112 O124 2.137 . S
Co112 O125 2.244 . S
O113 Co112 2.216 . S
O113 C120 1.247 . S
O114 Co112 2.091 . S
O114 C120 1.261 . S
C115 O124 1.247 . S
C115 O125 1.272 . S
O116 Co112 2.004 1_565 S
O116 C121 1.259 . S
Co117 O118 2.061 . S
Co117 O123 2.052 . S
Co117 O125 2.135 1_565 S
O118 Co117 2.061 . S
O118 C121 1.235 . S
C119 O122 1.238 . S
C119 O123 1.241 1_545 S
C120 O113 1.247 . S
C120 O114 1.261 . S
C121 O116 1.259 . S
C121 O118 1.235 . S
O122 Co112 2.021 . S
O122 C119 1.238 . S
O123 Co117 2.052 . S
O123 C119 1.241 1_565 S
O124 Co112 2.137 . S
O124 C115 1.247 . S
O125 Co112 2.244 . S
O125 C115 1.272 . S
O125 Co117 2.135 1_545 S
Co126 O127 2.216 . S
Co126 O128 2.091 . S
Co126 O130 2.004 . S
Co126 O136 2.021 . S
Co126 O138 2.137 . S
Co126 O139 2.244 . S
O127 Co126 2.216 . S
O127 C134 1.247 . S
O128 Co126 2.091 . S
O128 C134 1.261 . S
C129 O138 1.247 . S
C129 O139 1.272 . S
O130 Co126 2.004 . S
O130 C135 1.259 . S
Co131 O132 2.061 . S
Co131 O137 2.052 . S
Co131 O139 2.135 . S
O132 Co131 2.061 . S
O132 C135 1.235 . S
C133 O136 1.238 . S
C133 O137 1.241 . S
C134 O127 1.247 . S
C134 O128 1.261 . S
C135 O130 1.259 . S
C135 O132 1.235 . S
O136 Co126 2.021 . S
O136 C133 1.238 . S
O137 Co131 2.052 . S
O137 C133 1.241 . S
O138 Co126 2.137 . S
O138 C129 1.247 . S
O139 Co126 2.244 . S
O139 C129 1.272 . S
O139 Co131 2.135 . S
Co140 O141 2.216 . S
Co140 O142 2.091 . S
Co140 O144 2.004 . S
Co140 O150 2.021 . S
Co140 O152 2.137 . S
Co140 O153 2.244 . S
O141 Co140 2.216 . S
O141 C148 1.247 . S
O142 Co140 2.091 . S
O142 C148 1.261 . S
C143 O152 1.247 . S
C143 O153 1.272 . S
O144 Co140 2.004 . S
O144 C149 1.259 . S
Co145 O146 2.061 . S
Co145 O151 2.052 . S
Co145 O153 2.135 . S
O146 Co145 2.061 . S
O146 C149 1.235 . S
C147 O150 1.238 . S
C147 O151 1.241 . S
C148 O141 1.247 . S
C148 O142 1.261 . S
C149 O144 1.259 . S
C149 O146 1.235 . S
O150 Co140 2.021 . S
O150 C147 1.238 . S
O151 Co145 2.052 . S
O151 C147 1.241 . S
O152 Co140 2.137 . S
O152 C143 1.247 . S
O153 Co140 2.244 . S
O153 C143 1.272 . S
O153 Co145 2.135 . S
Co154 O155 2.216 . S
Co154 O156 2.091 1_556 S
Co154 O158 2.002 . S
Co154 O164 2.021 1_556 S
Co154 O166 2.137 . S
Co154 O167 2.244 . S
O155 Co154 2.216 . S
O155 C162 1.247 . S
O156 Co154 2.091 1_554 S
O156 C162 1.261 1_554 S
C157 O166 1.247 . S
C157 O167 1.272 . S
O158 Co154 2.002 . S
O158 C163 1.256 1_556 S
Co159 O160 2.061 1_556 S
Co159 O165 2.052 1_556 S
Co159 O167 2.135 . S
O160 Co159 2.061 1_554 S
O160 C163 1.235 . S
C161 O164 1.238 . S
C161 O165 1.241 . S
C162 O155 1.247 . S
C162 O156 1.261 1_556 S
C163 O158 1.256 1_554 S
C163 O160 1.235 . S
O164 Co154 2.021 1_554 S
O164 C161 1.238 . S
O165 Co159 2.052 1_554 S
O165 C161 1.241 . S
O166 Co154 2.137 . S
O166 C157 1.247 . S
O167 Co154 2.244 . S
O167 C157 1.272 . S
O167 Co159 2.135 . S
Co168 O169 2.216 . S
Co168 O170 2.091 . S
Co168 O172 2.004 . S
Co168 O178 2.021 . S
Co168 O180 2.137 . S
Co168 O181 2.244 . S
O169 Co168 2.216 . S
O169 C176 1.247 . S
O170 Co168 2.091 . S
O170 C176 1.261 . S
C171 O180 1.247 . S
C171 O181 1.272 . S
O172 Co168 2.004 . S
O172 C177 1.259 . S
Co173 O174 2.061 . S
Co173 O179 2.052 . S
Co173 O181 2.135 . S
O174 Co173 2.061 . S
O174 C177 1.235 . S
C175 O178 1.238 . S
C175 O179 1.241 . S
C176 O169 1.247 . S
C176 O170 1.261 . S
C177 O172 1.259 . S
C177 O174 1.235 . S
O178 Co168 2.021 . S
O178 C175 1.238 . S
O179 Co173 2.052 . S
O179 C175 1.241 . S
O180 Co168 2.137 . S
O180 C171 1.247 . S
O181 Co168 2.244 . S
O181 C171 1.272 . S
O181 Co173 2.135 . S
Co182 O183 2.216 . S
Co182 O184 2.091 . S
Co182 O186 2.004 . S
Co182 O192 2.021 . S
Co182 O194 2.137 . S
Co182 O195 2.244 . S
O183 Co182 2.216 . S
O183 C190 1.247 . S
O184 Co182 2.091 . S
O184 C190 1.261 . S
C185 O194 1.247 . S
C185 O195 1.272 . S
O186 Co182 2.004 . S
O186 C191 1.259 . S
Co187 O188 2.061 . S
Co187 O193 2.052 . S
Co187 O195 2.135 . S
O188 Co187 2.061 . S
O188 C191 1.235 . S
C189 O192 1.238 . S
C189 O193 1.241 . S
C190 O183 1.247 . S
C190 O184 1.261 . S
C191 O186 1.259 . S
C191 O188 1.235 . S
O192 Co182 2.021 . S
O192 C189 1.238 . S
O193 Co187 2.052 . S
O193 C189 1.241 . S
O194 Co182 2.137 . S
O194 C185 1.247 . S
O195 Co182 2.244 . S
O195 C185 1.272 . S
O195 Co187 2.135 . S
Co196 O197 2.216 . S
Co196 O198 2.091 . S
Co196 O200 2.004 . S
Co196 O206 2.021 . S
Co196 O208 2.137 . S
Co196 O209 2.244 . S
O197 Co196 2.216 . S
O197 C204 1.247 . S
O198 Co196 2.091 . S
O198 C204 1.261 . S
C199 O208 1.247 . S
C199 O209 1.272 . S
O200 Co196 2.004 . S
O200 C205 1.259 . S
Co201 O202 2.061 . S
Co201 O207 2.052 . S
Co201 O209 2.135 . S
O202 Co201 2.061 . S
O202 C205 1.235 . S
C203 O206 1.238 . S
C203 O207 1.241 . S
C204 O197 1.247 . S
C204 O198 1.261 . S
C205 O200 1.259 . S
C205 O202 1.235 . S
O206 Co196 2.021 . S
O206 C203 1.238 . S
O207 Co201 2.052 . S
O207 C203 1.241 . S
O208 Co196 2.137 . S
O208 C199 1.247 . S
O209 Co196 2.244 . S
O209 C199 1.272 . S
O209 Co201 2.135 . S
Co210 O211 2.216 . S
Co210 O212 2.091 . S
Co210 O214 2.004 . S
Co210 O220 2.021 . S
Co210 O222 2.137 . S
Co210 O223 2.244 . S
O211 Co210 2.216 . S
O211 C218 1.247 . S
O212 Co210 2.091 . S
O212 C218 1.261 . S
C213 O222 1.247 . S
C213 O223 1.272 . S
O214 Co210 2.004 . S
O214 C219 1.259 . S
Co215 O216 2.061 . S
Co215 O221 2.052 . S
Co215 O223 2.135 . S
O216 Co215 2.061 . S
O216 C219 1.235 . S
C217 O220 1.238 . S
C217 O221 1.241 . S
C218 O211 1.247 . S
C218 O212 1.261 . S
C219 O214 1.259 . S
C219 O216 1.235 . S
O220 Co210 2.021 . S
O220 C217 1.238 . S
O221 Co215 2.052 . S
O221 C217 1.241 . S
O222 Co210 2.137 . S
O222 C213 1.247 . S
O223 Co210 2.244 . S
O223 C213 1.272 . S
O223 Co215 2.135 . S
Co224 O225 2.216 . S
Co224 O226 2.091 . S
Co224 O228 2.004 1_545 S
Co224 O234 2.021 . S
Co224 O236 2.137 . S
Co224 O237 2.244 . S
O225 Co224 2.216 . S
O225 C232 1.247 . S
O226 Co224 2.091 . S
O226 C232 1.261 . S
C227 O236 1.247 . S
C227 O237 1.272 . S
O228 Co224 2.004 1_565 S
O228 C233 1.259 . S
Co229 O230 2.061 . S
Co229 O235 2.052 1_565 S
Co229 O237 2.135 1_565 S
O230 Co229 2.061 . S
O230 C233 1.235 . S
C231 O234 1.238 . S
C231 O235 1.241 . S
C232 O225 1.247 . S
C232 O226 1.261 . S
C233 O228 1.259 . S
C233 O230 1.235 . S
O234 Co224 2.021 . S
O234 C231 1.238 . S
O235 Co229 2.052 1_545 S
O235 C231 1.241 . S
O236 Co224 2.137 . S
O236 C227 1.247 . S
O237 Co224 2.244 . S
O237 C227 1.272 . S
O237 Co229 2.135 1_545 S
Co238 O239 2.216 . S
Co238 O240 2.091 . S
Co238 O242 2.004 . S
Co238 O248 2.021 . S
Co238 O250 2.137 . S
Co238 O251 2.244 . S
O239 Co238 2.216 . S
O239 C246 1.247 . S
O240 Co238 2.091 . S
O240 C246 1.261 . S
C241 O250 1.247 . S
C241 O251 1.272 . S
O242 Co238 2.004 . S
O242 C247 1.259 . S
Co243 O244 2.061 . S
Co243 O249 2.052 . S
Co243 O251 2.135 . S
O244 Co243 2.061 . S
O244 C247 1.235 . S
C245 O248 1.238 . S
C245 O249 1.241 . S
C246 O239 1.247 . S
C246 O240 1.261 . S
C247 O242 1.259 . S
C247 O244 1.235 . S
O248 Co238 2.021 . S
O248 C245 1.238 . S
O249 Co243 2.052 . S
O249 C245 1.241 . S
O250 Co238 2.137 . S
O250 C241 1.247 . S
O251 Co238 2.244 . S
O251 C241 1.272 . S
O251 Co243 2.135 . S
Co252 O253 2.216 . S
Co252 O254 2.091 . S
Co252 O256 2.004 . S
Co252 O262 2.021 . S
Co252 O264 2.137 . S
Co252 O265 2.244 . S
O253 Co252 2.216 . S
O253 C260 1.247 . S
O254 Co252 2.091 . S
O254 C260 1.261 . S
C255 O264 1.247 . S
C255 O265 1.272 . S
O256 Co252 2.004 . S
O256 C261 1.259 . S
Co257 O258 2.061 . S
Co257 O263 2.052 . S
Co257 O265 2.135 . S
O258 Co257 2.061 . S
O258 C261 1.235 . S
C259 O262 1.238 . S
C259 O263 1.241 . S
C260 O253 1.247 . S
C260 O254 1.261 . S
C261 O256 1.259 . S
C261 O258 1.235 . S
O262 Co252 2.021 . S
O262 C259 1.238 . S
O263 Co257 2.052 . S
O263 C259 1.241 . S
O264 Co252 2.137 . S
O264 C255 1.247 . S
O265 Co252 2.244 . S
O265 C255 1.272 . S
O265 Co257 2.135 . S
Co266 O267 2.216 . S
Co266 O268 2.091 . S
Co266 O270 2.004 . S
Co266 O276 2.021 . S
Co266 O278 2.137 . S
Co266 O279 2.244 . S
O267 Co266 2.216 . S
O267 C274 1.247 . S
O268 Co266 2.091 . S
O268 C274 1.261 . S
C269 O278 1.247 . S
C269 O279 1.272 . S
O270 Co266 2.004 . S
O270 C275 1.259 . S
Co271 O272 2.061 . S
Co271 O277 2.052 . S
Co271 O279 2.135 . S
O272 Co271 2.061 . S
O272 C275 1.235 . S
C273 O276 1.238 . S
C273 O277 1.241 . S
C274 O267 1.247 . S
C274 O268 1.261 . S
C275 O270 1.259 . S
C275 O272 1.235 . S
O276 Co266 2.021 . S
O276 C273 1.238 . S
O277 Co271 2.052 . S
O277 C273 1.241 . S
O278 Co266 2.137 . S
O278 C269 1.247 . S
O279 Co266 2.244 . S
O279 C269 1.272 . S
O279 Co271 2.135 . S
Co280 O281 2.216 . S
Co280 O282 2.091 . S
Co280 O284 2.004 . S
Co280 O290 2.021 . S
Co280 O292 2.137 1_554 S
Co280 O293 2.244 1_554 S
O281 Co280 2.216 . S
O281 C288 1.247 . S
O282 Co280 2.091 . S
O282 C288 1.261 . S
C283 O292 1.247 . S
C283 O293 1.272 . S
O284 Co280 2.004 . S
O284 C289 1.259 . S
Co285 O286 2.061 . S
Co285 O291 2.052 . S
Co285 O293 2.135 1_554 S
O286 Co285 2.061 . S
O286 C289 1.235 . S
C287 O290 1.238 . S
C287 O291 1.241 . S
C288 O281 1.247 . S
C288 O282 1.261 . S
C289 O284 1.259 . S
C289 O286 1.235 . S
O290 Co280 2.021 . S
O290 C287 1.238 . S
O291 Co285 2.052 . S
O291 C287 1.241 . S
O292 Co280 2.137 1_556 S
O292 C283 1.247 . S
O293 Co280 2.244 1_556 S
O293 C283 1.272 . S
O293 Co285 2.135 1_556 S
Co294 O295 2.216 . S
Co294 O296 2.091 . S
Co294 O298 2.004 . S
Co294 O304 2.021 . S
Co294 O306 2.137 . S
Co294 O307 2.244 . S
O295 Co294 2.216 . S
O295 C302 1.247 . S
O296 Co294 2.091 . S
O296 C302 1.261 . S
C297 O306 1.247 . S
C297 O307 1.272 . S
O298 Co294 2.004 . S
O298 C303 1.259 . S
Co299 O300 2.061 . S
Co299 O305 2.052 . S
Co299 O307 2.135 . S
O300 Co299 2.061 . S
O300 C303 1.235 . S
C301 O304 1.238 . S
C301 O305 1.241 . S
C302 O295 1.247 . S
C302 O296 1.261 . S
C303 O298 1.259 . S
C303 O300 1.235 . S
O304 Co294 2.021 . S
O304 C301 1.238 . S
O305 Co299 2.052 . S
O305 C301 1.241 . S
O306 Co294 2.137 . S
O306 C297 1.247 . S
O307 Co294 2.244 . S
O307 C297 1.272 . S
O307 Co299 2.135 . S
Co308 O309 2.216 . S
Co308 O310 2.091 . S
Co308 O312 2.004 . S
Co308 O318 2.021 . S
Co308 O320 2.137 . S
Co308 O321 2.244 . S
O309 Co308 2.216 . S
O309 C316 1.247 . S
O310 Co308 2.091 . S
O310 C316 1.261 . S
C311 O320 1.247 . S
C311 O321 1.272 . S
O312 Co308 2.004 . S
O312 C317 1.259 . S
Co313 O314 2.061 . S
Co313 O319 2.052 . S
Co313 O321 2.135 . S
O314 Co313 2.061 . S
O314 C317 1.235 . S
C315 O318 1.238 . S
C315 O319 1.241 . S
C316 O309 1.247 . S
C316 O310 1.261 . S
C317 O312 1.259 . S
C317 O314 1.235 . S
O318 Co308 2.021 . S
O318 C315 1.238 . S
O319 Co313 2.052 . S
O319 C315 1.241 . S
O320 Co308 2.137 . S
O320 C311 1.247 . S
O321 Co308 2.244 . S
O321 C311 1.272 . S
O321 Co313 2.135 . S
Co322 O323 2.216 . S
Co322 O324 2.091 . S
Co322 O326 2.004 . S
Co322 O332 2.021 . S
Co322 O334 2.137 . S
Co322 O335 2.244 . S
O323 Co322 2.216 . S
O323 C330 1.247 . S
O324 Co322 2.091 . S
O324 C330 1.261 . S
C325 O334 1.247 . S
C325 O335 1.272 . S
O326 Co322 2.004 . S
O326 C331 1.259 . S
Co327 O328 2.061 . S
Co327 O333 2.052 . S
Co327 O335 2.135 . S
O328 Co327 2.061 . S
O328 C331 1.235 . S
C329 O332 1.238 . S
C329 O333 1.241 . S
C330 O323 1.247 . S
C330 O324 1.261 . S
C331 O326 1.259 . S
C331 O328 1.235 . S
O332 Co322 2.021 . S
O332 C329 1.238 . S
O333 Co327 2.052 . S
O333 C329 1.241 . S
O334 Co322 2.137 . S
O334 C325 1.247 . S
O335 Co322 2.244 . S
O335 C325 1.272 . S
O335 Co327 2.135 . S
C336 C338 1.422 1_556 S
C336 C340 1.415 . S
C336 N342 1.369 . S
C337 C338 1.421 . S
C337 C339 1.417 1_554 S
C337 C349 1.422 . S
C338 C336 1.422 1_554 S
C338 C337 1.421 . S
C338 N348 1.359 . S
C339 C337 1.417 1_556 S
C339 C341 1.329 . S
C339 H358 0.928 1_556 S
C340 C336 1.415 . S
C340 C341 1.437 . S
C340 C344 1.413 . S
C341 C339 1.329 . S
C341 C340 1.437 . S
C341 H363 0.929 . S
N342 C336 1.369 . S
N342 C343 1.338 . S
N342 Gd347 2.622 1_566 S
C343 N342 1.338 . S
C343 C345 1.378 . S
C343 H355 0.941 . S
C344 C340 1.413 . S
C344 C345 1.348 . S
C344 H360 0.931 . S
C345 C343 1.378 . S
C345 C344 1.348 . S
C345 H361 0.930 . S
Gd346 N366 2.622 . S
Gd346 N373 2.570 . S
Gd346 O380 2.353 . S
Gd346 O381 2.468 . S
Gd346 O382 2.427 . S
Gd346 O384 2.388 . S
Gd346 O385 2.386 . S
Gd346 O389 2.307 . S
Gd346 C399 2.805 . S
Gd347 N342 2.622 1_544 S
Gd347 N348 2.570 1_545 S
Gd347 O379 2.386 1_645 S
Gd347 O383 2.307 1_655 S
Gd347 O386 2.353 1_655 S
Gd347 O387 2.468 . S
Gd347 O388 2.427 1_554 S
Gd347 O390 2.388 1_654 S
Gd347 C411 2.805 . S
N348 C338 1.359 . S
N348 Gd347 2.570 1_565 S
N348 C350 1.343 . S
C349 C337 1.422 . S
C349 C351 1.321 . S
C349 H357 0.931 . S
C350 N348 1.343 . S
C350 C351 1.390 . S
C350 H352 0.931 . S
C351 C349 1.321 . S
C351 C350 1.390 . S
C351 H353 0.930 . S
H352 C350 0.931 . S
H353 C351 0.930 . S
H354 C377 0.931 . S
H355 C343 0.941 . S
H356 C378 0.930 1_556 S
H357 C349 0.931 . S
H358 C339 0.928 1_554 S
H359 C368 0.929 . S
H360 C344 0.931 . S
H361 C345 0.930 . S
H362 C400 0.930 . S
H363 C341 0.929 . S
H364 C369 0.931 . S
H365 C370 0.930 . S
N366 Gd346 2.622 . S
N366 C367 1.369 . S
N366 C368 1.338 . S
C367 N366 1.369 . S
C367 C371 1.415 . S
C367 C374 1.422 . S
C368 H359 0.929 . S
C368 N366 1.338 . S
C368 C370 1.378 . S
C369 H364 0.931 . S
C369 C370 1.348 . S
C369 C371 1.413 . S
C370 H365 0.930 . S
C370 C368 1.378 . S
C370 C369 1.348 . S
C371 C367 1.415 . S
C371 C369 1.413 . S
C371 C401 1.437 . S
H372 C401 0.929 . S
N373 Gd346 2.570 . S
N373 C374 1.359 . S
N373 C377 1.343 . S
C374 C367 1.422 . S
C374 N373 1.359 . S
C374 C376 1.421 . S
C375 C376 1.422 . S
C375 C378 1.321 . S
C375 H402 0.931 . S
C376 C374 1.421 . S
C376 C375 1.422 . S
C376 C400 1.417 . S
C377 H354 0.931 . S
C377 N373 1.343 . S
C377 C378 1.390 . S
C378 H356 0.930 1_554 S
C378 C375 1.321 . S
C378 C377 1.390 . S
O379 Gd347 2.386 1_465 S
O379 C391 1.265 . S
O380 Gd346 2.353 . S
O380 C391 1.242 1_545 S
O381 Gd346 2.468 . S
O381 C399 1.263 . S
O382 Gd346 2.427 . S
O382 C399 1.252 . S
O383 Gd347 2.307 1_455 S
O383 C392 1.261 . S
O384 Gd346 2.388 . S
O384 C392 1.252 . S
O385 Gd346 2.386 . S
O385 C403 1.265 . S
O386 Gd347 2.353 1_455 S
O386 C403 1.242 . S
O387 Gd347 2.468 . S
O387 C411 1.263 . S
O388 Gd347 2.427 1_556 S
O388 C411 1.252 1_556 S
O389 Gd346 2.307 . S
O389 C404 1.261 1_554 S
O390 Gd347 2.388 1_456 S
O390 C404 1.252 . S
C391 O379 1.265 . S
C391 O380 1.242 1_565 S
C392 O383 1.261 . S
C392 O384 1.252 . S
C393 C396 1.394 . S
C393 C398 1.370 . S
C393 C399 1.500 . S
C394 C397 1.383 . S
C394 C398 1.395 . S
C395 C396 1.396 . S
C395 C397 1.365 . S
C395 H412 0.929 . S
C396 C393 1.394 . S
C396 C395 1.396 . S
C396 H413 0.930 . S
C397 C394 1.383 . S
C397 C395 1.365 . S
C397 H414 0.931 . S
C398 C393 1.370 . S
C398 C394 1.395 . S
C398 H415 0.930 . S
C399 Gd346 2.805 . S
C399 O381 1.263 . S
C399 O382 1.252 . S
C399 C393 1.500 . S
C400 H362 0.930 . S
C400 C376 1.417 . S
C400 C401 1.329 . S
C401 C371 1.437 . S
C401 H372 0.929 . S
C401 C400 1.329 . S
H402 C375 0.931 . S
C403 O385 1.265 . S
C403 O386 1.242 . S
C404 O389 1.261 1_556 S
C404 O390 1.252 . S
C405 C408 1.394 1_554 S
C405 C410 1.370 . S
C405 C411 1.500 . S
C406 C409 1.383 1_554 S
C406 C410 1.395 . S
C407 C408 1.396 . S
C407 C409 1.365 . S
C407 H416 0.929 . S
C408 C405 1.394 1_556 S
C408 C407 1.396 . S
C408 H417 0.930 . S
C409 C406 1.383 1_556 S
C409 C407 1.365 . S
C409 H418 0.931 . S
C410 C405 1.370 . S
C410 C406 1.395 . S
C410 H419 0.930 . S
C411 Gd347 2.805 . S
C411 O387 1.263 . S
C411 O388 1.252 1_554 S
C411 C405 1.500 . S
H412 C395 0.929 . S
H413 C396 0.930 . S
H414 C397 0.931 . S
H415 C398 0.930 . S
H416 C407 0.929 . S
H417 C408 0.930 . S
H418 C409 0.931 . S
H419 C410 0.930 . S
C420 C422 1.422 . S
C420 C424 1.415 . S
C420 N426 1.369 . S
C421 C422 1.421 . S
C421 C423 1.417 . S
C421 C433 1.422 . S
C422 C420 1.422 . S
C422 C421 1.421 . S
C422 N432 1.359 . S
C423 C421 1.417 . S
C423 C425 1.329 . S
C423 H442 0.930 . S
C424 C420 1.415 . S
C424 C425 1.437 . S
C424 C428 1.413 . S
C425 C423 1.329 . S
C425 C424 1.437 . S
C425 H447 0.929 . S
N426 C420 1.369 . S
N426 C427 1.338 . S
N426 Gd431 2.622 . S
C427 N426 1.338 . S
C427 C429 1.378 . S
C427 H439 0.929 . S
C428 C424 1.413 . S
C428 C429 1.348 . S
C428 H444 0.931 . S
C429 C427 1.378 . S
C429 C428 1.348 . S
C429 H445 0.930 . S
Gd430 N450 2.622 . S
Gd430 N457 2.570 . S
Gd430 O464 2.353 . S
Gd430 O465 2.468 . S
Gd430 O466 2.427 . S
Gd430 O468 2.388 . S
Gd430 O469 2.386 . S
Gd430 O473 2.307 . S
Gd430 C483 2.805 . S
Gd431 N426 2.622 . S
Gd431 N432 2.570 . S
Gd431 O463 2.386 . S
Gd431 O467 2.307 . S
Gd431 O470 2.353 . S
Gd431 O471 2.468 . S
Gd431 O472 2.427 . S
Gd431 O474 2.388 . S
Gd431 C495 2.805 . S
N432 C422 1.359 . S
N432 Gd431 2.570 . S
N432 C434 1.343 . S
C433 C421 1.422 . S
C433 C435 1.321 . S
C433 H441 0.931 . S
C434 N432 1.343 . S
C434 C435 1.390 . S
C434 H436 0.931 . S
C435 C433 1.321 . S
C435 C434 1.390 . S
C435 H437 0.930 . S
H436 C434 0.931 . S
H437 C435 0.930 . S
H438 C461 0.931 . S
H439 C427 0.929 . S
H440 C462 0.930 . S
H441 C433 0.931 . S
H442 C423 0.930 . S
H443 C452 0.929 . S
H444 C428 0.931 . S
H445 C429 0.930 . S
H446 C484 0.930 . S
H447 C425 0.929 . S
H448 C453 0.931 . S
H449 C454 0.930 . S
N450 Gd430 2.622 . S
N450 C451 1.369 . S
N450 C452 1.338 . S
C451 N450 1.369 . S
C451 C455 1.415 . S
C451 C458 1.422 . S
C452 H443 0.929 . S
C452 N450 1.338 . S
C452 C454 1.378 . S
C453 H448 0.931 . S
C453 C454 1.348 . S
C453 C455 1.413 . S
C454 H449 0.930 . S
C454 C452 1.378 . S
C454 C453 1.348 . S
C455 C451 1.415 . S
C455 C453 1.413 . S
C455 C485 1.437 . S
H456 C485 0.929 . S
N457 Gd430 2.570 . S
N457 C458 1.359 . S
N457 C461 1.343 . S
C458 C451 1.422 . S
C458 N457 1.359 . S
C458 C460 1.421 . S
C459 C460 1.422 . S
C459 C462 1.321 . S
C459 H486 0.931 . S
C460 C458 1.421 . S
C460 C459 1.422 . S
C460 C484 1.417 . S
C461 H438 0.931 . S
C461 N457 1.343 . S
C461 C462 1.390 . S
C462 H440 0.930 . S
C462 C459 1.321 . S
C462 C461 1.390 . S
O463 Gd431 2.386 . S
O463 C475 1.265 . S
O464 Gd430 2.353 . S
O464 C475 1.242 . S
O465 Gd430 2.468 . S
O465 C483 1.263 . S
O466 Gd430 2.427 . S
O466 C483 1.252 . S
O467 Gd431 2.307 . S
O467 C476 1.261 . S
O468 Gd430 2.388 . S
O468 C476 1.252 . S
O469 Gd430 2.386 . S
O469 C487 1.265 . S
O470 Gd431 2.353 . S
O470 C487 1.242 . S
O471 Gd431 2.468 . S
O471 C495 1.263 . S
O472 Gd431 2.427 . S
O472 C495 1.252 . S
O473 Gd430 2.307 . S
O473 C488 1.261 . S
O474 Gd431 2.388 . S
O474 C488 1.252 . S
C475 O463 1.265 . S
C475 O464 1.242 . S
C476 O467 1.261 . S
C476 O468 1.252 . S
C477 C480 1.394 . S
C477 C482 1.370 . S
C477 C483 1.500 . S
C478 C481 1.383 . S
C478 C482 1.395 . S
C479 C480 1.396 . S
C479 C481 1.365 . S
C479 H496 0.929 . S
C480 C477 1.394 . S
C480 C479 1.396 . S
C480 H497 0.930 . S
C481 C478 1.383 . S
C481 C479 1.365 . S
C481 H498 0.931 . S
C482 C477 1.370 . S
C482 C478 1.395 . S
C482 H499 0.930 . S
C483 Gd430 2.805 . S
C483 O465 1.263 . S
C483 O466 1.252 . S
C483 C477 1.500 . S
C484 H446 0.930 . S
C484 C460 1.417 . S
C484 C485 1.329 . S
C485 C455 1.437 . S
C485 H456 0.929 . S
C485 C484 1.329 . S
H486 C459 0.931 . S
C487 O469 1.265 . S
C487 O470 1.242 . S
C488 O473 1.261 . S
C488 O474 1.252 . S
C489 C492 1.394 . S
C489 C494 1.370 . S
C489 C495 1.500 . S
C490 C493 1.383 . S
C490 C494 1.395 . S
C491 C492 1.396 . S
C491 C493 1.365 . S
C491 H500 0.929 . S
C492 C489 1.394 . S
C492 C491 1.396 . S
C492 H501 0.930 . S
C493 C490 1.383 . S
C493 C491 1.365 . S
C493 H502 0.931 . S
C494 C489 1.370 . S
C494 C490 1.395 . S
C494 H503 0.930 . S
C495 Gd431 2.805 . S
C495 O471 1.263 . S
C495 O472 1.252 . S
C495 C489 1.500 . S
H496 C479 0.929 . S
H497 C480 0.930 . S
H498 C481 0.931 . S
H499 C482 0.930 . S
H500 C491 0.929 . S
H501 C492 0.930 . S
H502 C493 0.931 . S
H503 C494 0.930 . S
C504 C506 1.422 . S
C504 C508 1.415 . S
C504 N510 1.369 . S
C505 C506 1.421 . S
C505 C507 1.417 . S
C505 C517 1.422 . S
C506 C504 1.422 . S
C506 C505 1.421 . S
C506 N516 1.359 . S
C507 C505 1.417 . S
C507 C509 1.329 . S
C507 H526 0.930 . S
C508 C504 1.415 . S
C508 C509 1.437 . S
C508 C512 1.413 . S
C509 C507 1.329 . S
C509 C508 1.437 . S
C509 H531 0.929 . S
N510 C504 1.369 . S
N510 C511 1.338 . S
N510 Gd515 2.622 . S
C511 N510 1.338 . S
C511 C513 1.378 . S
C511 H523 0.929 . S
C512 C508 1.413 . S
C512 C513 1.348 . S
C512 H528 0.931 . S
C513 C511 1.378 . S
C513 C512 1.348 . S
C513 H529 0.930 . S
Gd514 N534 2.600 1_545 S
Gd514 N541 2.570 1_545 S
Gd514 O548 2.353 . S
Gd514 O549 2.468 . S
Gd514 O550 2.427 . S
Gd514 O552 2.388 . S
Gd514 O553 2.386 1_545 S
Gd514 O557 2.307 . S
Gd514 C567 2.805 . S
Gd515 N510 2.622 . S
Gd515 N516 2.570 . S
Gd515 O547 2.386 . S
Gd515 O551 2.307 . S
Gd515 O554 2.353 1_545 S
Gd515 O555 2.468 . S
Gd515 O556 2.427 . S
Gd515 O558 2.388 . S
Gd515 C579 2.805 . S
N516 C506 1.359 . S
N516 Gd515 2.570 . S
N516 C518 1.343 . S
C517 C505 1.422 . S
C517 C519 1.321 . S
C517 H525 0.931 . S
C518 N516 1.343 . S
C518 C519 1.390 . S
C518 H520 0.931 . S
C519 C517 1.321 . S
C519 C518 1.390 . S
C519 H521 0.930 . S
H520 C518 0.931 . S
H521 C519 0.930 . S
H522 C545 0.931 . S
H523 C511 0.929 . S
H524 C546 0.930 . S
H525 C517 0.931 . S
H526 C507 0.930 . S
H527 C536 0.929 . S
H528 C512 0.931 . S
H529 C513 0.930 . S
H530 C568 0.930 . S
H531 C509 0.929 . S
H532 C537 0.931 . S
H533 C538 0.930 . S
N534 Gd514 2.600 1_565 S
N534 C535 1.394 . S
N534 C536 1.339 1_565 S
C535 N534 1.394 . S
C535 C539 1.415 . S
C535 C542 1.422 . S
C536 H527 0.929 . S
C536 N534 1.339 1_545 S
C536 C538 1.378 1_545 S
C537 H532 0.931 . S
C537 C538 1.348 . S
C537 C539 1.413 . S
C538 H533 0.930 . S
C538 C536 1.378 1_565 S
C538 C537 1.348 . S
C539 C535 1.415 . S
C539 C537 1.413 . S
C539 C569 1.437 . S
H540 C569 0.929 . S
N541 Gd514 2.570 1_565 S
N541 C542 1.359 . S
N541 C545 1.343 . S
C542 C535 1.422 . S
C542 N541 1.359 . S
C542 C544 1.421 . S
C543 C544 1.422 . S
C543 C546 1.321 . S
C543 H570 0.931 . S
C544 C542 1.421 . S
C544 C543 1.422 . S
C544 C568 1.417 . S
C545 H522 0.931 . S
C545 N541 1.343 . S
C545 C546 1.390 . S
C546 H524 0.930 . S
C546 C543 1.321 . S
C546 C545 1.390 . S
O547 Gd515 2.386 . S
O547 C559 1.265 . S
O548 Gd514 2.353 . S
O548 C559 1.242 . S
O549 Gd514 2.468 . S
O549 C567 1.263 . S
O550 Gd514 2.427 . S
O550 C567 1.252 . S
O551 Gd515 2.307 . S
O551 C560 1.261 . S
O552 Gd514 2.388 . S
O552 C560 1.252 . S
O553 Gd514 2.386 1_565 S
O553 C571 1.265 . S
O554 Gd515 2.353 1_565 S
O554 C571 1.242 . S
O555 Gd515 2.468 . S
O555 C579 1.263 . S
O556 Gd515 2.427 . S
O556 C579 1.252 . S
O557 Gd514 2.307 . S
O557 C572 1.261 . S
O558 Gd515 2.388 . S
O558 C572 1.252 . S
C559 O547 1.265 . S
C559 O548 1.242 . S
C560 O551 1.261 . S
C560 O552 1.252 . S
C561 C564 1.394 . S
C561 C566 1.370 . S
C561 C567 1.500 . S
C562 C565 1.383 . S
C562 C566 1.395 . S
C563 C564 1.396 . S
C563 C565 1.365 . S
C563 H580 0.929 . S
C564 C561 1.394 . S
C564 C563 1.396 . S
C564 H581 0.930 . S
C565 C562 1.383 . S
C565 C563 1.365 . S
C565 H582 0.931 . S
C566 C561 1.370 . S
C566 C562 1.395 . S
C566 H583 0.930 . S
C567 Gd514 2.805 . S
C567 O549 1.263 . S
C567 O550 1.252 . S
C567 C561 1.500 . S
C568 H530 0.930 . S
C568 C544 1.417 . S
C568 C569 1.329 . S
C569 C539 1.437 . S
C569 H540 0.929 . S
C569 C568 1.329 . S
H570 C543 0.931 . S
C571 O553 1.265 . S
C571 O554 1.242 . S
C572 O557 1.261 . S
C572 O558 1.252 . S
C573 C576 1.394 . S
C573 C578 1.370 . S
C573 C579 1.500 1_565 S
C574 C577 1.383 . S
C574 C578 1.395 . S
C575 C576 1.396 . S
C575 C577 1.365 . S
C575 H584 0.929 . S
C576 C573 1.394 . S
C576 C575 1.396 . S
C576 H585 0.930 . S
C577 C574 1.383 . S
C577 C575 1.365 . S
C577 H586 0.931 . S
C578 C573 1.370 . S
C578 C574 1.395 . S
C578 H587 0.930 . S
C579 Gd515 2.805 . S
C579 O555 1.263 . S
C579 O556 1.252 . S
C579 C573 1.500 1_545 S
H580 C563 0.929 . S
H581 C564 0.930 . S
H582 C565 0.931 . S
H583 C566 0.930 . S
H584 C575 0.929 . S
H585 C576 0.930 . S
H586 C577 0.931 . S
H587 C578 0.930 . S
C588 C590 1.422 . S
C588 C592 1.415 . S
C588 N594 1.369 . S
C589 C590 1.421 . S
C589 C591 1.417 . S
C589 C601 1.422 . S
C590 C588 1.422 . S
C590 C589 1.421 . S
C590 N600 1.359 . S
C591 C589 1.417 . S
C591 C593 1.329 . S
C591 H610 0.930 . S
C592 C588 1.415 . S
C592 C593 1.437 . S
C592 C596 1.413 . S
C593 C591 1.329 . S
C593 C592 1.437 . S
C593 H615 0.929 . S
N594 C588 1.369 . S
N594 C595 1.338 . S
N594 Gd599 2.622 . S
C595 N594 1.338 . S
C595 C597 1.378 . S
C595 H607 0.929 . S
C596 C592 1.413 . S
C596 C597 1.348 . S
C596 H612 0.931 . S
C597 C595 1.378 . S
C597 C596 1.348 . S
C597 H613 0.930 . S
Gd598 N618 2.622 . S
Gd598 N625 2.570 . S
Gd598 O632 2.353 . S
Gd598 O633 2.468 . S
Gd598 O634 2.427 . S
Gd598 O636 2.388 . S
Gd598 O637 2.386 . S
Gd598 O641 2.307 . S
Gd598 C651 2.805 . S
Gd599 N594 2.622 . S
Gd599 N600 2.570 . S
Gd599 O631 2.386 . S
Gd599 O635 2.307 . S
Gd599 O638 2.353 . S
Gd599 O639 2.468 . S
Gd599 O640 2.427 . S
Gd599 O642 2.388 . S
Gd599 C663 2.805 . S
N600 C590 1.359 . S
N600 Gd599 2.570 . S
N600 C602 1.343 . S
C601 C589 1.422 . S
C601 C603 1.321 . S
C601 H609 0.931 . S
C602 N600 1.343 . S
C602 C603 1.390 . S
C602 H604 0.931 . S
C603 C601 1.321 . S
C603 C602 1.390 . S
C603 H605 0.930 . S
H604 C602 0.931 . S
H605 C603 0.930 . S
H606 C629 0.931 . S
H607 C595 0.929 . S
H608 C630 0.930 . S
H609 C601 0.931 . S
H610 C591 0.930 . S
H611 C620 0.929 . S
H612 C596 0.931 . S
H613 C597 0.930 . S
H614 C652 0.930 . S
H615 C593 0.929 . S
H616 C621 0.931 . S
H617 C622 0.930 . S
N618 Gd598 2.622 . S
N618 C619 1.369 . S
N618 C620 1.338 . S
C619 N618 1.369 . S
C619 C623 1.415 . S
C619 C626 1.422 . S
C620 H611 0.929 . S
C620 N618 1.338 . S
C620 C622 1.378 . S
C621 H616 0.931 . S
C621 C622 1.348 . S
C621 C623 1.413 . S
C622 H617 0.930 . S
C622 C620 1.378 . S
C622 C621 1.348 . S
C623 C619 1.415 . S
C623 C621 1.413 . S
C623 C653 1.437 . S
H624 C653 0.929 . S
N625 Gd598 2.570 . S
N625 C626 1.359 . S
N625 C629 1.343 . S
C626 C619 1.422 . S
C626 N625 1.359 . S
C626 C628 1.421 . S
C627 C628 1.422 . S
C627 C630 1.321 . S
C627 H654 0.931 . S
C628 C626 1.421 . S
C628 C627 1.422 . S
C628 C652 1.417 . S
C629 H606 0.931 . S
C629 N625 1.343 . S
C629 C630 1.390 . S
C630 H608 0.930 . S
C630 C627 1.321 . S
C630 C629 1.390 . S
O631 Gd599 2.386 . S
O631 C643 1.265 . S
O632 Gd598 2.353 . S
O632 C643 1.242 . S
O633 Gd598 2.468 . S
O633 C651 1.263 . S
O634 Gd598 2.427 . S
O634 C651 1.252 . S
O635 Gd599 2.307 . S
O635 C644 1.261 . S
O636 Gd598 2.388 . S
O636 C644 1.252 . S
O637 Gd598 2.386 . S
O637 C655 1.265 . S
O638 Gd599 2.353 . S
O638 C655 1.242 . S
O639 Gd599 2.468 . S
O639 C663 1.263 . S
O640 Gd599 2.427 . S
O640 C663 1.252 . S
O641 Gd598 2.307 . S
O641 C656 1.261 . S
O642 Gd599 2.388 . S
O642 C656 1.252 . S
C643 O631 1.265 . S
C643 O632 1.242 . S
C644 O635 1.261 . S
C644 O636 1.252 . S
C645 C648 1.394 . S
C645 C650 1.370 . S
C645 C651 1.500 . S
C646 C649 1.383 . S
C646 C650 1.395 . S
C647 C648 1.396 . S
C647 C649 1.365 . S
C647 H664 0.929 . S
C648 C645 1.394 . S
C648 C647 1.396 . S
C648 H665 0.930 . S
C649 C646 1.383 . S
C649 C647 1.365 . S
C649 H666 0.931 . S
C650 C645 1.370 . S
C650 C646 1.395 . S
C650 H667 0.930 . S
C651 Gd598 2.805 . S
C651 O633 1.263 . S
C651 O634 1.252 . S
C651 C645 1.500 . S
C652 H614 0.930 . S
C652 C628 1.417 . S
C652 C653 1.329 . S
C653 C623 1.437 . S
C653 H624 0.929 . S
C653 C652 1.329 . S
H654 C627 0.931 . S
C655 O637 1.265 . S
C655 O638 1.242 . S
C656 O641 1.261 . S
C656 O642 1.252 . S
C657 C660 1.394 . S
C657 C662 1.370 . S
C657 C663 1.500 . S
C658 C661 1.383 . S
C658 C662 1.395 . S
C659 C660 1.396 . S
C659 C661 1.365 . S
C659 H668 0.929 . S
C660 C657 1.394 . S
C660 C659 1.396 . S
C660 H669 0.930 . S
C661 C658 1.383 . S
C661 C659 1.365 . S
C661 H670 0.931 . S
C662 C657 1.370 . S
C662 C658 1.395 . S
C662 H671 0.930 . S
C663 Gd599 2.805 . S
C663 O639 1.263 . S
C663 O640 1.252 . S
C663 C657 1.500 . S
H664 C647 0.929 . S
H665 C648 0.930 . S
H666 C649 0.931 . S
H667 C650 0.930 . S
H668 C659 0.929 . S
H669 C660 0.930 . S
H670 C661 0.931 . S
H671 C662 0.930 . S
C672 C674 1.422 . S
C672 C676 1.415 1_455 S
C672 N678 1.369 1_455 S
C673 C674 1.421 . S
C673 C675 1.417 . S
C673 C685 1.422 . S
C674 C672 1.422 . S
C674 C673 1.421 . S
C674 N684 1.359 . S
C675 C673 1.417 . S
C675 C677 1.329 . S
C675 H694 0.930 . S
C676 C672 1.415 1_655 S
C676 C677 1.437 1_655 S
C676 C680 1.413 . S
C677 C675 1.329 . S
C677 C676 1.437 1_455 S
C677 H699 0.904 1_455 S
N678 C672 1.369 1_655 S
N678 C679 1.338 . S
N678 Gd683 2.622 1_655 S
C679 N678 1.338 . S
C679 C681 1.378 . S
C679 H691 0.929 . S
C680 C676 1.413 . S
C680 C681 1.348 . S
C680 H696 0.931 . S
C681 C679 1.378 . S
C681 C680 1.348 . S
C681 H697 0.930 . S
Gd682 N702 2.622 . S
Gd682 N709 2.570 . S
Gd682 O716 2.353 1_565 S
Gd682 O717 2.468 . S
Gd682 O718 2.427 . S
Gd682 O720 2.388 1_565 S
Gd682 O721 2.386 1_565 S
Gd682 O725 2.307 1_565 S
Gd682 C735 2.805 . S
Gd683 N678 2.622 1_455 S
Gd683 N684 2.570 . S
Gd683 O715 2.386 . S
Gd683 O719 2.307 . S
Gd683 O722 2.353 . S
Gd683 O723 2.468 . S
Gd683 O724 2.427 1_455 S
Gd683 O726 2.388 1_455 S
Gd683 C747 2.805 . S
N684 C674 1.359 . S
N684 Gd683 2.570 . S
N684 C686 1.343 . S
C685 C673 1.422 . S
C685 C687 1.321 . S
C685 H693 0.931 . S
C686 N684 1.343 . S
C686 C687 1.390 . S
C686 H688 0.931 . S
C687 C685 1.321 . S
C687 C686 1.390 . S
C687 H689 0.930 . S
H688 C686 0.931 . S
H689 C687 0.930 . S
H690 C713 0.930 1_655 S
H691 C679 0.929 . S
H692 C714 0.930 . S
H693 C685 0.931 . S
H694 C675 0.930 . S
H695 C704 0.929 1_545 S
H696 C680 0.931 . S
H697 C681 0.930 . S
H698 C736 0.930 . S
H699 C677 0.904 1_655 S
H700 C705 0.931 . S
H701 C706 0.930 . S
N702 Gd682 2.622 . S
N702 C703 1.369 . S
N702 C704 1.338 . S
C703 N702 1.369 . S
C703 C707 1.415 . S
C703 C710 1.422 . S
C704 H695 0.929 1_565 S
C704 N702 1.338 . S
C704 C706 1.378 . S
C705 H700 0.931 . S
C705 C706 1.348 . S
C705 C707 1.413 . S
C706 H701 0.930 . S
C706 C704 1.378 . S
C706 C705 1.348 . S
C707 C703 1.415 . S
C707 C705 1.413 . S
C707 C737 1.437 . S
H708 C737 0.929 . S
N709 Gd682 2.570 . S
N709 C710 1.359 . S
N709 C713 1.345 . S
C710 C703 1.422 . S
C710 N709 1.359 . S
C710 C712 1.421 . S
C711 C712 1.422 1_655 S
C711 C714 1.321 . S
C711 H738 0.931 . S
C712 C710 1.421 . S
C712 C711 1.422 1_455 S
C712 C736 1.417 . S
C713 H690 0.930 1_455 S
C713 N709 1.345 . S
C713 C714 1.390 1_455 S
C714 H692 0.930 . S
C714 C711 1.321 . S
C714 C713 1.390 1_655 S
O715 Gd683 2.386 . S
O715 C727 1.265 . S
O716 Gd682 2.353 1_545 S
O716 C727 1.242 . S
O717 Gd682 2.468 . S
O717 C735 1.263 . S
O718 Gd682 2.427 . S
O718 C735 1.252 . S
O719 Gd683 2.307 . S
O719 C728 1.261 . S
O720 Gd682 2.388 1_545 S
O720 C728 1.252 . S
O721 Gd682 2.386 1_545 S
O721 C739 1.265 . S
O722 Gd683 2.353 . S
O722 C739 1.242 . S
O723 Gd683 2.468 . S
O723 C747 1.263 . S
O724 Gd683 2.427 1_655 S
O724 C747 1.252 1_655 S
O725 Gd682 2.307 1_545 S
O725 C740 1.261 1_455 S
O726 Gd683 2.388 1_655 S
O726 C740 1.252 . S
C727 O715 1.265 . S
C727 O716 1.242 . S
C728 O719 1.261 . S
C728 O720 1.252 . S
C729 C732 1.394 . S
C729 C734 1.370 . S
C729 C735 1.500 . S
C730 C733 1.383 . S
C730 C734 1.395 . S
C731 C732 1.396 . S
C731 C733 1.365 . S
C731 H748 0.929 . S
C732 C729 1.394 . S
C732 C731 1.396 . S
C732 H749 0.930 . S
C733 C730 1.383 . S
C733 C731 1.365 . S
C733 H750 0.931 . S
C734 C729 1.370 . S
C734 C730 1.395 . S
C734 H751 0.930 . S
C735 Gd682 2.805 . S
C735 O717 1.263 . S
C735 O718 1.252 . S
C735 C729 1.500 . S
C736 H698 0.930 . S
C736 C712 1.417 . S
C736 C737 1.329 . S
C737 C707 1.437 . S
C737 H708 0.929 . S
C737 C736 1.329 . S
H738 C711 0.931 . S
C739 O721 1.265 . S
C739 O722 1.242 . S
C740 O725 1.261 1_655 S
C740 O726 1.252 . S
C741 C744 1.394 1_455 S
C741 C746 1.370 . S
C741 C747 1.500 . S
C742 C745 1.336 1_455 S
C742 C746 1.395 . S
C743 C744 1.396 . S
C743 C745 1.400 . S
C743 H752 0.929 . S
C744 C741 1.394 1_655 S
C744 C743 1.396 . S
C744 H753 0.930 . S
C745 C742 1.336 1_655 S
C745 C743 1.400 . S
C745 H754 0.946 . S
C746 C741 1.370 . S
C746 C742 1.395 . S
C746 H755 0.930 . S
C747 Gd683 2.805 . S
C747 O723 1.263 . S
C747 O724 1.252 1_455 S
C747 C741 1.500 . S
H748 C731 0.929 . S
H749 C732 0.930 . S
H750 C733 0.931 . S
H751 C734 0.930 . S
H752 C743 0.929 . S
H753 C744 0.930 . S
H754 C745 0.946 . S
H755 C746 0.930 . S
C756 C758 1.422 . S
C756 C760 1.415 . S
C756 N762 1.369 . S
C757 C758 1.421 . S
C757 C759 1.417 . S
C757 C769 1.422 . S
C758 C756 1.422 . S
C758 C757 1.421 . S
C758 N768 1.359 . S
C759 C757 1.417 . S
C759 C761 1.329 . S
C759 H778 0.930 . S
C760 C756 1.415 . S
C760 C761 1.437 . S
C760 C764 1.413 . S
C761 C759 1.329 . S
C761 C760 1.437 . S
C761 H783 0.929 . S
N762 C756 1.369 . S
N762 C763 1.338 . S
N762 Gd767 2.622 . S
C763 N762 1.338 . S
C763 C765 1.378 . S
C763 H775 0.929 . S
C764 C760 1.413 . S
C764 C765 1.348 . S
C764 H780 0.931 . S
C765 C763 1.378 . S
C765 C764 1.348 . S
C765 H781 0.930 . S
Gd766 N786 2.622 . S
Gd766 N793 2.570 . S
Gd766 O800 2.353 . S
Gd766 O801 2.468 . S
Gd766 O802 2.427 . S
Gd766 O804 2.388 . S
Gd766 O805 2.386 . S
Gd766 O809 2.307 . S
Gd766 C819 2.805 . S
Gd767 N762 2.622 . S
Gd767 N768 2.570 . S
Gd767 O799 2.386 . S
Gd767 O803 2.307 . S
Gd767 O806 2.353 . S
Gd767 O807 2.468 . S
Gd767 O808 2.427 . S
Gd767 O810 2.388 . S
Gd767 C831 2.805 . S
N768 C758 1.359 . S
N768 Gd767 2.570 . S
N768 C770 1.343 . S
C769 C757 1.422 . S
C769 C771 1.321 . S
C769 H777 0.931 . S
C770 N768 1.343 . S
C770 C771 1.390 . S
C770 H772 0.931 . S
C771 C769 1.321 . S
C771 C770 1.390 . S
C771 H773 0.930 . S
H772 C770 0.931 . S
H773 C771 0.930 . S
H774 C797 0.931 . S
H775 C763 0.929 . S
H776 C798 0.930 . S
H777 C769 0.931 . S
H778 C759 0.930 . S
H779 C788 0.929 . S
H780 C764 0.931 . S
H781 C765 0.930 . S
H782 C820 0.930 . S
H783 C761 0.929 . S
H784 C789 0.931 . S
H785 C790 0.930 . S
N786 Gd766 2.622 . S
N786 C787 1.369 . S
N786 C788 1.338 . S
C787 N786 1.369 . S
C787 C791 1.415 . S
C787 C794 1.422 . S
C788 H779 0.929 . S
C788 N786 1.338 . S
C788 C790 1.378 . S
C789 H784 0.931 . S
C789 C790 1.348 . S
C789 C791 1.413 . S
C790 H785 0.930 . S
C790 C788 1.378 . S
C790 C789 1.348 . S
C791 C787 1.415 . S
C791 C789 1.413 . S
C791 C821 1.437 . S
H792 C821 0.929 . S
N793 Gd766 2.570 . S
N793 C794 1.359 . S
N793 C797 1.343 . S
C794 C787 1.422 . S
C794 N793 1.359 . S
C794 C796 1.421 . S
C795 C796 1.422 . S
C795 C798 1.321 . S
C795 H822 0.931 . S
C796 C794 1.421 . S
C796 C795 1.422 . S
C796 C820 1.417 . S
C797 H774 0.931 . S
C797 N793 1.343 . S
C797 C798 1.390 . S
C798 H776 0.930 . S
C798 C795 1.321 . S
C798 C797 1.390 . S
O799 Gd767 2.386 . S
O799 C811 1.265 . S
O800 Gd766 2.353 . S
O800 C811 1.242 . S
O801 Gd766 2.468 . S
O801 C819 1.263 . S
O802 Gd766 2.427 . S
O802 C819 1.252 . S
O803 Gd767 2.307 . S
O803 C812 1.261 . S
O804 Gd766 2.388 . S
O804 C812 1.252 . S
O805 Gd766 2.386 . S
O805 C823 1.265 . S
O806 Gd767 2.353 . S
O806 C823 1.242 . S
O807 Gd767 2.468 . S
O807 C831 1.263 . S
O808 Gd767 2.427 . S
O808 C831 1.252 . S
O809 Gd766 2.307 . S
O809 C824 1.261 . S
O810 Gd767 2.388 . S
O810 C824 1.252 . S
C811 O799 1.265 . S
C811 O800 1.242 . S
C812 O803 1.261 . S
C812 O804 1.252 . S
C813 C816 1.394 . S
C813 C818 1.370 . S
C813 C819 1.500 . S
C814 C817 1.383 . S
C814 C818 1.395 . S
C815 C816 1.396 . S
C815 C817 1.365 . S
C815 H832 0.929 . S
C816 C813 1.394 . S
C816 C815 1.396 . S
C816 H833 0.930 . S
C817 C814 1.383 . S
C817 C815 1.365 . S
C817 H834 0.931 . S
C818 C813 1.370 . S
C818 C814 1.395 . S
C818 H835 0.930 . S
C819 Gd766 2.805 . S
C819 O801 1.263 . S
C819 O802 1.252 . S
C819 C813 1.500 . S
C820 H782 0.930 . S
C820 C796 1.417 . S
C820 C821 1.329 . S
C821 C791 1.437 . S
C821 H792 0.929 . S
C821 C820 1.329 . S
H822 C795 0.931 . S
C823 O805 1.265 . S
C823 O806 1.242 . S
C824 O809 1.261 . S
C824 O810 1.252 . S
C825 C828 1.394 . S
C825 C830 1.370 . S
C825 C831 1.500 . S
C826 C829 1.383 . S
C826 C830 1.395 . S
C827 C828 1.396 . S
C827 C829 1.365 . S
C827 H836 0.929 . S
C828 C825 1.394 . S
C828 C827 1.396 . S
C828 H837 0.930 . S
C829 C826 1.383 . S
C829 C827 1.365 . S
C829 H838 0.931 . S
C830 C825 1.370 . S
C830 C826 1.395 . S
C830 H839 0.930 . S
C831 Gd767 2.805 . S
C831 O807 1.263 . S
C831 O808 1.252 . S
C831 C825 1.500 . S
H832 C815 0.929 . S
H833 C816 0.930 . S
H834 C817 0.931 . S
H835 C818 0.930 . S
H836 C827 0.929 . S
H837 C828 0.930 . S
H838 C829 0.931 . S
H839 C830 0.930 . S
C840 C842 1.375 1_565 S
C840 C844 1.452 . S
C840 N846 1.380 . S
C841 C842 1.421 . S
C841 C843 1.417 . S
C841 C853 1.422 . S
C842 C840 1.375 1_545 S
C842 C841 1.421 . S
C842 N852 1.359 . S
C843 C841 1.417 . S
C843 C845 1.329 1_545 S
C843 H862 0.930 . S
C844 C840 1.452 . S
C844 C845 1.437 . S
C844 C848 1.413 . S
C845 C843 1.329 1_565 S
C845 C844 1.437 . S
C845 H867 0.929 . S
N846 C840 1.380 . S
N846 C847 1.338 . S
N846 Gd851 2.622 1_565 S
C847 N846 1.338 . S
C847 C849 1.378 . S
C847 H859 0.929 . S
C848 C844 1.413 . S
C848 C849 1.348 . S
C848 H864 0.931 . S
C849 C847 1.378 . S
C849 C848 1.348 . S
C849 H865 0.930 . S
Gd850 N870 2.622 . S
Gd850 N877 2.570 . S
Gd850 O884 2.353 1_556 S
Gd850 O885 2.468 . S
Gd850 O886 2.427 . S
Gd850 O888 2.388 1_556 S
Gd850 O889 2.386 1_556 S
Gd850 O893 2.305 1_556 S
Gd850 C903 2.805 . S
Gd851 N846 2.622 1_545 S
Gd851 N852 2.570 . S
Gd851 O883 2.386 . S
Gd851 O887 2.307 . S
Gd851 O890 2.353 . S
Gd851 O891 2.468 . S
Gd851 O892 2.427 1_545 S
Gd851 O894 2.388 1_545 S
Gd851 C915 2.805 . S
N852 C842 1.359 . S
N852 Gd851 2.570 . S
N852 C854 1.343 . S
C853 C841 1.422 . S
C853 C855 1.321 . S
C853 H861 0.931 . S
C854 N852 1.343 . S
C854 C855 1.390 . S
C854 H856 0.931 . S
C855 C853 1.321 . S
C855 C854 1.390 . S
C855 H857 0.930 . S
H856 C854 0.931 . S
H857 C855 0.930 . S
H858 C881 0.952 . S
H859 C847 0.929 . S
H860 C882 0.930 . S
H861 C853 0.931 . S
H862 C843 0.930 . S
H863 C872 0.929 1_554 S
H864 C848 0.931 . S
H865 C849 0.930 . S
H866 C904 0.930 . S
H867 C845 0.929 . S
H868 C873 0.931 . S
H869 C874 0.930 . S
N870 Gd850 2.622 . S
N870 C871 1.369 . S
N870 C872 1.338 . S
C871 N870 1.369 . S
C871 C875 1.415 . S
C871 C878 1.422 . S
C872 H863 0.929 1_556 S
C872 N870 1.338 . S
C872 C874 1.378 . S
C873 H868 0.931 . S
C873 C874 1.348 . S
C873 C875 1.413 . S
C874 H869 0.930 . S
C874 C872 1.378 . S
C874 C873 1.348 . S
C875 C871 1.415 . S
C875 C873 1.413 . S
C875 C905 1.437 . S
H876 C905 0.929 . S
N877 Gd850 2.570 . S
N877 C878 1.359 . S
N877 C881 1.343 . S
C878 C871 1.422 . S
C878 N877 1.359 . S
C878 C880 1.421 . S
C879 C880 1.422 . S
C879 C882 1.321 1_545 S
C879 H906 0.932 1_545 S
C880 C878 1.421 . S
C880 C879 1.422 . S
C880 C904 1.417 . S
C881 H858 0.952 . S
C881 N877 1.343 . S
C881 C882 1.390 1_545 S
C882 H860 0.930 . S
C882 C879 1.321 1_565 S
C882 C881 1.390 1_565 S
O883 Gd851 2.386 . S
O883 C895 1.265 . S
O884 Gd850 2.353 1_554 S
O884 C895 1.242 . S
O885 Gd850 2.468 . S
O885 C903 1.263 . S
O886 Gd850 2.427 . S
O886 C903 1.252 . S
O887 Gd851 2.307 . S
O887 C896 1.261 . S
O888 Gd850 2.388 1_554 S
O888 C896 1.252 . S
O889 Gd850 2.386 1_554 S
O889 C907 1.265 . S
O890 Gd851 2.353 . S
O890 C907 1.242 . S
O891 Gd851 2.468 . S
O891 C915 1.263 . S
O892 Gd851 2.427 1_565 S
O892 C915 1.252 1_565 S
O893 Gd850 2.305 1_554 S
O893 C908 1.265 1_545 S
O894 Gd851 2.388 1_565 S
O894 C908 1.252 . S
C895 O883 1.265 . S
C895 O884 1.242 . S
C896 O887 1.261 . S
C896 O888 1.252 . S
C897 C900 1.394 . S
C897 C902 1.370 . S
C897 C903 1.500 . S
C898 C901 1.383 . S
C898 C902 1.395 . S
C899 C900 1.396 . S
C899 C901 1.365 . S
C899 H916 0.929 . S
C900 C897 1.394 . S
C900 C899 1.396 . S
C900 H917 0.930 . S
C901 C898 1.383 . S
C901 C899 1.365 . S
C901 H918 0.931 . S
C902 C897 1.370 . S
C902 C898 1.395 . S
C902 H919 0.930 . S
C903 Gd850 2.805 . S
C903 O885 1.263 . S
C903 O886 1.252 . S
C903 C897 1.500 . S
C904 H866 0.930 . S
C904 C880 1.417 . S
C904 C905 1.329 . S
C905 C875 1.437 . S
C905 H876 0.929 . S
C905 C904 1.329 . S
H906 C879 0.932 1_565 S
C907 O889 1.265 . S
C907 O890 1.242 . S
C908 O893 1.265 1_565 S
C908 O894 1.252 . S
C909 C912 1.394 . S
C909 C914 1.370 1_565 S
C909 C915 1.500 1_565 S
C910 C913 1.383 1_545 S
C910 C914 1.395 . S
C911 C912 1.396 . S
C911 C913 1.365 . S
C911 H920 0.929 . S
C912 C909 1.394 . S
C912 C911 1.396 . S
C912 H921 0.930 . S
C913 C910 1.383 1_565 S
C913 C911 1.365 . S
C913 H922 0.931 . S
C914 C909 1.370 1_545 S
C914 C910 1.395 . S
C914 H923 0.930 . S
C915 Gd851 2.805 . S
C915 O891 1.263 . S
C915 O892 1.252 1_545 S
C915 C909 1.500 1_545 S
H916 C899 0.929 . S
H917 C900 0.930 . S
H918 C901 0.931 . S
H919 C902 0.930 . S
H920 C911 0.929 . S
H921 C912 0.930 . S
H922 C913 0.931 . S
H923 C914 0.930 . S
C924 C926 1.422 . S
C924 C928 1.415 . S
C924 N930 1.369 . S
C925 C926 1.421 . S
C925 C927 1.417 . S
C925 C937 1.422 . S
C926 C924 1.422 . S
C926 C925 1.421 . S
C926 N936 1.359 . S
C927 C925 1.417 . S
C927 C929 1.329 . S
C927 H946 0.930 . S
C928 C924 1.415 . S
C928 C929 1.437 . S
C928 C932 1.413 . S
C929 C927 1.329 . S
C929 C928 1.437 . S
C929 H951 0.929 . S
N930 C924 1.369 . S
N930 C931 1.338 . S
N930 Gd935 2.622 . S
C931 N930 1.338 . S
C931 C933 1.378 . S
C931 H943 0.929 . S
C932 C928 1.413 . S
C932 C933 1.348 . S
C932 H948 0.931 . S
C933 C931 1.378 . S
C933 C932 1.348 . S
C933 H949 0.930 . S
Gd934 N954 2.622 . S
Gd934 N961 2.570 . S
Gd934 O968 2.353 . S
Gd934 O969 2.468 . S
Gd934 O970 2.427 . S
Gd934 O972 2.388 . S
Gd934 O973 2.386 . S
Gd934 O977 2.307 . S
Gd934 C987 2.805 . S
Gd935 N930 2.622 . S
Gd935 N936 2.570 . S
Gd935 O967 2.386 . S
Gd935 O971 2.307 . S
Gd935 O974 2.353 . S
Gd935 O975 2.468 . S
Gd935 O976 2.427 . S
Gd935 O978 2.388 . S
Gd935 C999 2.805 . S
N936 C926 1.359 . S
N936 Gd935 2.570 . S
N936 C938 1.343 . S
C937 C925 1.422 . S
C937 C939 1.321 . S
C937 H945 0.931 . S
C938 N936 1.343 . S
C938 C939 1.390 . S
C938 H940 0.931 . S
C939 C937 1.321 . S
C939 C938 1.390 . S
C939 H941 0.930 . S
H940 C938 0.931 . S
H941 C939 0.930 . S
H942 C965 0.931 . S
H943 C931 0.929 . S
H944 C966 0.930 . S
H945 C937 0.931 . S
H946 C927 0.930 . S
H947 C956 0.929 . S
H948 C932 0.931 . S
H949 C933 0.930 . S
H950 C988 0.930 . S
H951 C929 0.929 . S
H952 C957 0.931 . S
H953 C958 0.930 . S
N954 Gd934 2.622 . S
N954 C955 1.369 . S
N954 C956 1.338 . S
C955 N954 1.369 . S
C955 C959 1.415 . S
C955 C962 1.422 . S
C956 H947 0.929 . S
C956 N954 1.338 . S
C956 C958 1.378 . S
C957 H952 0.931 . S
C957 C958 1.348 . S
C957 C959 1.413 . S
C958 H953 0.930 . S
C958 C956 1.378 . S
C958 C957 1.348 . S
C959 C955 1.415 . S
C959 C957 1.413 . S
C959 C989 1.437 . S
H960 C989 0.929 . S
N961 Gd934 2.570 . S
N961 C962 1.359 . S
N961 C965 1.343 . S
C962 C955 1.422 . S
C962 N961 1.359 . S
C962 C964 1.421 . S
C963 C964 1.422 . S
C963 C966 1.321 . S
C963 H990 0.931 . S
C964 C962 1.421 . S
C964 C963 1.422 . S
C964 C988 1.417 . S
C965 H942 0.931 . S
C965 N961 1.343 . S
C965 C966 1.390 . S
C966 H944 0.930 . S
C966 C963 1.321 . S
C966 C965 1.390 . S
O967 Gd935 2.386 . S
O967 C979 1.265 . S
O968 Gd934 2.353 . S
O968 C979 1.242 . S
O969 Gd934 2.468 . S
O969 C987 1.263 . S
O970 Gd934 2.427 . S
O970 C987 1.252 . S
O971 Gd935 2.307 . S
O971 C980 1.261 . S
O972 Gd934 2.388 . S
O972 C980 1.252 . S
O973 Gd934 2.386 . S
O973 C991 1.265 . S
O974 Gd935 2.353 . S
O974 C991 1.242 . S
O975 Gd935 2.468 . S
O975 C999 1.263 . S
O976 Gd935 2.427 . S
O976 C999 1.252 . S
O977 Gd934 2.307 . S
O977 C992 1.261 . S
O978 Gd935 2.388 . S
O978 C992 1.252 . S
C979 O967 1.265 . S
C979 O968 1.242 . S
C980 O971 1.261 . S
C980 O972 1.252 . S
C981 C984 1.394 . S
C981 C986 1.370 . S
C981 C987 1.500 . S
C982 C985 1.383 . S
C982 C986 1.395 . S
C983 C984 1.396 . S
C983 C985 1.365 . S
C983 H1000 0.929 . S
C984 C981 1.394 . S
C984 C983 1.396 . S
C984 H1001 0.930 . S
C985 C982 1.383 . S
C985 C983 1.365 . S
C985 H1002 0.931 . S
C986 C981 1.370 . S
C986 C982 1.395 . S
C986 H1003 0.930 . S
C987 Gd934 2.805 . S
C987 O969 1.263 . S
C987 O970 1.252 . S
C987 C981 1.500 . S
C988 H950 0.930 . S
C988 C964 1.417 . S
C988 C989 1.329 . S
C989 C959 1.437 . S
C989 H960 0.929 . S
C989 C988 1.329 . S
H990 C963 0.931 . S
C991 O973 1.265 . S
C991 O974 1.242 . S
C992 O977 1.261 . S
C992 O978 1.252 . S
C993 C996 1.394 . S
C993 C998 1.370 . S
C993 C999 1.500 . S
C994 C997 1.383 . S
C994 C998 1.395 . S
C995 C996 1.396 . S
C995 C997 1.365 . S
C995 H1004 0.929 . S
C996 C993 1.394 . S
C996 C995 1.396 . S
C996 H1005 0.930 . S
C997 C994 1.383 . S
C997 C995 1.365 . S
C997 H1006 0.931 . S
C998 C993 1.370 . S
C998 C994 1.395 . S
C998 H1007 0.930 . S
C999 Gd935 2.805 . S
C999 O975 1.263 . S
C999 O976 1.252 . S
C999 C993 1.500 . S
H1000 C983 0.929 . S
H1001 C984 0.930 . S
H1002 C985 0.931 . S
H1003 C986 0.930 . S
H1004 C995 0.929 . S
H1005 C996 0.930 . S
H1006 C997 0.931 . S
H1007 C998 0.930 . S
C1008 C1010 1.422 . S
C1008 C1012 1.415 . S
C1008 N1014 1.369 . S
C1009 C1010 1.421 . S
C1009 C1011 1.417 . S
C1009 C1021 1.422 . S
C1010 C1008 1.422 . S
C1010 C1009 1.421 . S
C1010 N1020 1.359 . S
C1011 C1009 1.417 . S
C1011 C1013 1.329 . S
C1011 H1030 0.930 . S
C1012 C1008 1.415 . S
C1012 C1013 1.437 . S
C1012 C1016 1.413 . S
C1013 C1011 1.329 . S
C1013 C1012 1.437 . S
C1013 H1035 0.929 . S
N1014 C1008 1.369 . S
N1014 C1015 1.338 . S
N1014 Gd1019 2.622 . S
C1015 N1014 1.338 . S
C1015 C1017 1.378 . S
C1015 H1027 0.929 . S
C1016 C1012 1.413 . S
C1016 C1017 1.348 . S
C1016 H1032 0.931 . S
C1017 C1015 1.378 . S
C1017 C1016 1.348 . S
C1017 H1033 0.930 . S
Gd1018 N1038 2.622 1_554 S
Gd1018 N1045 2.570 1_554 S
Gd1018 O1052 2.353 . S
Gd1018 O1053 2.468 . S
Gd1018 O1054 2.427 . S
Gd1018 O1056 2.388 . S
Gd1018 O1057 2.386 1_554 S
Gd1018 O1061 2.307 . S
Gd1018 C1071 2.805 . S
Gd1019 N1014 2.622 . S
Gd1019 N1020 2.570 . S
Gd1019 O1051 2.386 . S
Gd1019 O1055 2.307 . S
Gd1019 O1058 2.353 1_554 S
Gd1019 O1059 2.468 . S
Gd1019 O1060 2.427 . S
Gd1019 O1062 2.388 . S
Gd1019 C1083 2.805 . S
N1020 C1010 1.359 . S
N1020 Gd1019 2.570 . S
N1020 C1022 1.343 . S
C1021 C1009 1.422 . S
C1021 C1023 1.321 . S
C1021 H1029 0.931 . S
C1022 N1020 1.343 . S
C1022 C1023 1.390 . S
C1022 H1024 0.931 . S
C1023 C1021 1.321 . S
C1023 C1022 1.390 . S
C1023 H1025 0.930 . S
H1024 C1022 0.931 . S
H1025 C1023 0.930 . S
H1026 C1049 0.931 1_554 S
H1027 C1015 0.929 . S
H1028 C1050 0.930 . S
H1029 C1021 0.931 . S
H1030 C1011 0.930 . S
H1031 C1040 0.929 1_554 S
H1032 C1016 0.931 . S
H1033 C1017 0.930 . S
H1034 C1072 0.930 . S
H1035 C1013 0.929 . S
H1036 C1041 0.931 . S
H1037 C1042 0.930 . S
N1038 Gd1018 2.622 1_556 S
N1038 C1039 1.369 . S
N1038 C1040 1.338 . S
C1039 N1038 1.369 . S
C1039 C1043 1.415 . S
C1039 C1046 1.422 . S
C1040 H1031 0.929 1_556 S
C1040 N1038 1.338 . S
C1040 C1042 1.378 . S
C1041 H1036 0.931 . S
C1041 C1042 1.348 . S
C1041 C1043 1.413 . S
C1042 H1037 0.930 . S
C1042 C1040 1.378 . S
C1042 C1041 1.348 . S
C1043 C1039 1.415 . S
C1043 C1041 1.413 . S
C1043 C1073 1.437 . S
H1044 C1073 0.929 . S
N1045 Gd1018 2.570 1_556 S
N1045 C1046 1.359 . S
N1045 C1049 1.343 . S
C1046 C1039 1.422 . S
C1046 N1045 1.359 . S
C1046 C1048 1.421 . S
C1047 C1048 1.422 . S
C1047 C1050 1.321 . S
C1047 H1074 0.931 . S
C1048 C1046 1.421 . S
C1048 C1047 1.422 . S
C1048 C1072 1.417 . S
C1049 H1026 0.931 1_556 S
C1049 N1045 1.343 . S
C1049 C1050 1.390 . S
C1050 H1028 0.930 . S
C1050 C1047 1.321 . S
C1050 C1049 1.390 . S
O1051 Gd1019 2.386 . S
O1051 C1063 1.265 . S
O1052 Gd1018 2.353 . S
O1052 C1063 1.242 . S
O1053 Gd1018 2.468 . S
O1053 C1071 1.263 . S
O1054 Gd1018 2.427 . S
O1054 C1071 1.252 . S
O1055 Gd1019 2.307 . S
O1055 C1064 1.261 . S
O1056 Gd1018 2.388 . S
O1056 C1064 1.252 . S
O1057 Gd1018 2.386 1_556 S
O1057 C1075 1.265 . S
O1058 Gd1019 2.353 1_556 S
O1058 C1075 1.242 . S
O1059 Gd1019 2.468 . S
O1059 C1083 1.263 . S
O1060 Gd1019 2.427 . S
O1060 C1083 1.252 . S
O1061 Gd1018 2.307 . S
O1061 C1076 1.261 . S
O1062 Gd1019 2.388 . S
O1062 C1076 1.252 . S
C1063 O1051 1.265 . S
C1063 O1052 1.242 . S
C1064 O1055 1.261 . S
C1064 O1056 1.252 . S
C1065 C1068 1.394 . S
C1065 C1070 1.370 . S
C1065 C1071 1.500 . S
C1066 C1069 1.383 . S
C1066 C1070 1.395 . S
C1067 C1068 1.396 . S
C1067 C1069 1.365 . S
C1067 H1084 0.929 . S
C1068 C1065 1.394 . S
C1068 C1067 1.396 . S
C1068 H1085 0.930 . S
C1069 C1066 1.383 . S
C1069 C1067 1.365 . S
C1069 H1086 0.931 . S
C1070 C1065 1.370 . S
C1070 C1066 1.395 . S
C1070 H1087 0.930 . S
C1071 Gd1018 2.805 . S
C1071 O1053 1.263 . S
C1071 O1054 1.252 . S
C1071 C1065 1.500 . S
C1072 H1034 0.930 . S
C1072 C1048 1.417 . S
C1072 C1073 1.329 . S
C1073 C1043 1.437 . S
C1073 H1044 0.929 . S
C1073 C1072 1.329 . S
H1074 C1047 0.931 . S
C1075 O1057 1.265 . S
C1075 O1058 1.242 . S
C1076 O1061 1.261 . S
C1076 O1062 1.252 . S
C1077 C1080 1.394 . S
C1077 C1082 1.370 . S
C1077 C1083 1.500 1_556 S
C1078 C1081 1.383 . S
C1078 C1082 1.395 . S
C1079 C1080 1.396 . S
C1079 C1081 1.365 . S
C1079 H1088 0.929 . S
C1080 C1077 1.394 . S
C1080 C1079 1.396 . S
C1080 H1089 0.932 . S
C1081 C1078 1.383 . S
C1081 C1079 1.365 . S
C1081 H1090 0.931 . S
C1082 C1077 1.370 . S
C1082 C1078 1.395 . S
C1082 H1091 0.930 . S
C1083 Gd1019 2.805 . S
C1083 O1059 1.263 . S
C1083 O1060 1.252 . S
C1083 C1077 1.500 1_554 S
H1084 C1067 0.929 . S
H1085 C1068 0.930 . S
H1086 C1069 0.931 . S
H1087 C1070 0.930 . S
H1088 C1079 0.929 . S
H1089 C1080 0.932 . S
H1090 C1081 0.931 . S
H1091 C1082 0.930 . S
C1092 C1094 1.422 . S
C1092 C1096 1.415 . S
C1092 N1098 1.369 . S
C1093 C1094 1.421 . S
C1093 C1095 1.417 . S
C1093 C1105 1.422 . S
C1094 C1092 1.422 . S
C1094 C1093 1.421 . S
C1094 N1104 1.359 . S
C1095 C1093 1.417 . S
C1095 C1097 1.329 . S
C1095 H1114 0.930 . S
C1096 C1092 1.415 . S
C1096 C1097 1.437 . S
C1096 C1100 1.413 . S
C1097 C1095 1.329 . S
C1097 C1096 1.437 . S
C1097 H1119 0.929 . S
N1098 C1092 1.369 . S
N1098 C1099 1.338 . S
N1098 Gd1103 2.622 . S
C1099 N1098 1.338 . S
C1099 C1101 1.378 . S
C1099 H1111 0.929 . S
C1100 C1096 1.413 . S
C1100 C1101 1.348 . S
C1100 H1116 0.931 . S
C1101 C1099 1.378 . S
C1101 C1100 1.348 . S
C1101 H1117 0.930 . S
Gd1102 N1122 2.622 . S
Gd1102 N1129 2.570 . S
Gd1102 O1136 2.353 . S
Gd1102 O1137 2.468 . S
Gd1102 O1138 2.427 . S
Gd1102 O1140 2.388 . S
Gd1102 O1141 2.386 . S
Gd1102 O1145 2.307 . S
Gd1102 C1155 2.805 . S
Gd1103 N1098 2.622 . S
Gd1103 N1104 2.570 . S
Gd1103 O1135 2.386 . S
Gd1103 O1139 2.307 . S
Gd1103 O1142 2.353 . S
Gd1103 O1143 2.468 . S
Gd1103 O1144 2.427 . S
Gd1103 O1146 2.388 . S
Gd1103 C1167 2.805 . S
N1104 C1094 1.359 . S
N1104 Gd1103 2.570 . S
N1104 C1106 1.343 . S
C1105 C1093 1.422 . S
C1105 C1107 1.321 . S
C1105 H1113 0.931 . S
C1106 N1104 1.343 . S
C1106 C1107 1.390 . S
C1106 H1108 0.931 . S
C1107 C1105 1.321 . S
C1107 C1106 1.390 . S
C1107 H1109 0.930 . S
H1108 C1106 0.931 . S
H1109 C1107 0.930 . S
H1110 C1133 0.931 . S
H1111 C1099 0.929 . S
H1112 C1134 0.930 . S
H1113 C1105 0.931 . S
H1114 C1095 0.930 . S
H1115 C1124 0.929 . S
H1116 C1100 0.931 . S
H1117 C1101 0.930 . S
H1118 C1156 0.930 . S
H1119 C1097 0.929 . S
H1120 C1125 0.931 . S
H1121 C1126 0.930 . S
N1122 Gd1102 2.622 . S
N1122 C1123 1.369 . S
N1122 C1124 1.338 . S
C1123 N1122 1.369 . S
C1123 C1127 1.415 . S
C1123 C1130 1.422 . S
C1124 H1115 0.929 . S
C1124 N1122 1.338 . S
C1124 C1126 1.378 . S
C1125 H1120 0.931 . S
C1125 C1126 1.348 . S
C1125 C1127 1.413 . S
C1126 H1121 0.930 . S
C1126 C1124 1.378 . S
C1126 C1125 1.348 . S
C1127 C1123 1.415 . S
C1127 C1125 1.413 . S
C1127 C1157 1.437 . S
H1128 C1157 0.929 . S
N1129 Gd1102 2.570 . S
N1129 C1130 1.359 . S
N1129 C1133 1.343 . S
C1130 C1123 1.422 . S
C1130 N1129 1.359 . S
C1130 C1132 1.421 . S
C1131 C1132 1.422 . S
C1131 C1134 1.321 . S
C1131 H1158 0.931 . S
C1132 C1130 1.421 . S
C1132 C1131 1.422 . S
C1132 C1156 1.417 . S
C1133 H1110 0.931 . S
C1133 N1129 1.343 . S
C1133 C1134 1.390 . S
C1134 H1112 0.930 . S
C1134 C1131 1.321 . S
C1134 C1133 1.390 . S
O1135 Gd1103 2.386 . S
O1135 C1147 1.265 . S
O1136 Gd1102 2.353 . S
O1136 C1147 1.242 . S
O1137 Gd1102 2.468 . S
O1137 C1155 1.263 . S
O1138 Gd1102 2.427 . S
O1138 C1155 1.252 . S
O1139 Gd1103 2.307 . S
O1139 C1148 1.261 . S
O1140 Gd1102 2.388 . S
O1140 C1148 1.252 . S
O1141 Gd1102 2.386 . S
O1141 C1159 1.265 . S
O1142 Gd1103 2.353 . S
O1142 C1159 1.242 . S
O1143 Gd1103 2.468 . S
O1143 C1167 1.263 . S
O1144 Gd1103 2.427 . S
O1144 C1167 1.252 . S
O1145 Gd1102 2.307 . S
O1145 C1160 1.261 . S
O1146 Gd1103 2.388 . S
O1146 C1160 1.252 . S
C1147 O1135 1.265 . S
C1147 O1136 1.242 . S
C1148 O1139 1.261 . S
C1148 O1140 1.252 . S
C1149 C1152 1.394 . S
C1149 C1154 1.370 . S
C1149 C1155 1.500 . S
C1150 C1153 1.383 . S
C1150 C1154 1.395 . S
C1151 C1152 1.396 . S
C1151 C1153 1.365 . S
C1151 H1168 0.929 . S
C1152 C1149 1.394 . S
C1152 C1151 1.396 . S
C1152 H1169 0.930 . S
C1153 C1150 1.383 . S
C1153 C1151 1.365 . S
C1153 H1170 0.931 . S
C1154 C1149 1.370 . S
C1154 C1150 1.395 . S
C1154 H1171 0.930 . S
C1155 Gd1102 2.805 . S
C1155 O1137 1.263 . S
C1155 O1138 1.252 . S
C1155 C1149 1.500 . S
C1156 H1118 0.930 . S
C1156 C1132 1.417 . S
C1156 C1157 1.329 . S
C1157 C1127 1.437 . S
C1157 H1128 0.929 . S
C1157 C1156 1.329 . S
H1158 C1131 0.931 . S
C1159 O1141 1.265 . S
C1159 O1142 1.242 . S
C1160 O1145 1.261 . S
C1160 O1146 1.252 . S
C1161 C1164 1.394 . S
C1161 C1166 1.370 . S
C1161 C1167 1.500 . S
C1162 C1165 1.383 . S
C1162 C1166 1.395 . S
C1163 C1164 1.396 . S
C1163 C1165 1.365 . S
C1163 H1172 0.929 . S
C1164 C1161 1.394 . S
C1164 C1163 1.396 . S
C1164 H1173 0.930 . S
C1165 C1162 1.383 . S
C1165 C1163 1.365 . S
C1165 H1174 0.931 . S
C1166 C1161 1.370 . S
C1166 C1162 1.395 . S
C1166 H1175 0.930 . S
C1167 Gd1103 2.805 . S
C1167 O1143 1.263 . S
C1167 O1144 1.252 . S
C1167 C1161 1.500 . S
H1168 C1151 0.929 . S
H1169 C1152 0.930 . S
H1170 C1153 0.931 . S
H1171 C1154 0.930 . S
H1172 C1163 0.929 . S
H1173 C1164 0.930 . S
H1174 C1165 0.931 . S
H1175 C1166 0.930 . S
C1176 C1178 1.422 . S
C1176 C1180 1.415 . S
C1176 N1182 1.369 . S
C1177 C1178 1.421 . S
C1177 C1179 1.417 . S
C1177 C1189 1.422 . S
C1178 C1176 1.422 . S
C1178 C1177 1.421 . S
C1178 N1188 1.359 . S
C1179 C1177 1.417 . S
C1179 C1181 1.329 . S
C1179 H1198 0.930 . S
C1180 C1176 1.415 . S
C1180 C1181 1.437 . S
C1180 C1184 1.413 . S
C1181 C1179 1.329 . S
C1181 C1180 1.437 . S
C1181 H1203 0.929 . S
N1182 C1176 1.369 . S
N1182 C1183 1.338 . S
N1182 Gd1187 2.622 . S
C1183 N1182 1.338 . S
C1183 C1185 1.378 . S
C1183 H1195 0.929 . S
C1184 C1180 1.413 . S
C1184 C1185 1.348 . S
C1184 H1200 0.931 . S
C1185 C1183 1.378 . S
C1185 C1184 1.348 . S
C1185 H1201 0.930 . S
Gd1186 N1206 2.622 1_455 S
Gd1186 N1213 2.570 1_455 S
Gd1186 O1220 2.353 . S
Gd1186 O1221 2.468 . S
Gd1186 O1222 2.427 . S
Gd1186 O1224 2.388 . S
Gd1186 O1225 2.386 1_455 S
Gd1186 O1229 2.307 . S
Gd1186 C1239 2.805 . S
Gd1187 N1182 2.622 . S
Gd1187 N1188 2.570 . S
Gd1187 O1219 2.386 . S
Gd1187 O1223 2.307 . S
Gd1187 O1226 2.353 1_455 S
Gd1187 O1227 2.468 . S
Gd1187 O1228 2.427 . S
Gd1187 O1230 2.388 . S
Gd1187 C1251 2.805 . S
N1188 C1178 1.359 . S
N1188 Gd1187 2.570 . S
N1188 C1190 1.343 . S
C1189 C1177 1.422 . S
C1189 C1191 1.321 . S
C1189 H1197 0.931 . S
C1190 N1188 1.343 . S
C1190 C1191 1.390 . S
C1190 H1192 0.931 . S
C1191 C1189 1.321 . S
C1191 C1190 1.390 . S
C1191 H1193 0.930 . S
H1192 C1190 0.931 . S
H1193 C1191 0.930 . S
H1194 C1217 0.931 1_455 S
H1195 C1183 0.929 . S
H1196 C1218 0.930 . S
H1197 C1189 0.931 . S
H1198 C1179 0.930 . S
H1199 C1208 0.929 1_455 S
H1200 C1184 0.931 . S
H1201 C1185 0.930 . S
H1202 C1240 0.930 . S
H1203 C1181 0.929 . S
H1204 C1209 0.931 . S
H1205 C1210 0.930 . S
N1206 Gd1186 2.622 1_655 S
N1206 C1207 1.369 . S
N1206 C1208 1.338 . S
C1207 N1206 1.369 . S
C1207 C1211 1.415 . S
C1207 C1214 1.422 . S
C1208 H1199 0.929 1_655 S
C1208 N1206 1.338 . S
C1208 C1210 1.378 . S
C1209 H1204 0.931 . S
C1209 C1210 1.348 . S
C1209 C1211 1.413 . S
C1210 H1205 0.930 . S
C1210 C1208 1.378 . S
C1210 C1209 1.348 . S
C1211 C1207 1.415 . S
C1211 C1209 1.413 . S
C1211 C1241 1.437 . S
H1212 C1241 0.929 . S
N1213 Gd1186 2.570 1_655 S
N1213 C1214 1.359 . S
N1213 C1217 1.343 . S
C1214 C1207 1.422 . S
C1214 N1213 1.359 . S
C1214 C1216 1.421 . S
C1215 C1216 1.422 . S
C1215 C1218 1.321 . S
C1215 H1242 0.931 . S
C1216 C1214 1.421 . S
C1216 C1215 1.422 . S
C1216 C1240 1.417 . S
C1217 H1194 0.931 1_655 S
C1217 N1213 1.343 . S
C1217 C1218 1.390 . S
C1218 H1196 0.930 . S
C1218 C1215 1.321 . S
C1218 C1217 1.390 . S
O1219 Gd1187 2.386 . S
O1219 C1231 1.265 . S
O1220 Gd1186 2.353 . S
O1220 C1231 1.242 . S
O1221 Gd1186 2.468 . S
O1221 C1239 1.263 . S
O1222 Gd1186 2.427 . S
O1222 C1239 1.252 . S
O1223 Gd1187 2.307 . S
O1223 C1232 1.261 . S
O1224 Gd1186 2.388 . S
O1224 C1232 1.252 . S
O1225 Gd1186 2.386 1_655 S
O1225 C1243 1.265 . S
O1226 Gd1187 2.353 1_655 S
O1226 C1243 1.242 . S
O1227 Gd1187 2.468 . S
O1227 C1251 1.263 . S
O1228 Gd1187 2.427 . S
O1228 C1251 1.252 . S
O1229 Gd1186 2.307 . S
O1229 C1244 1.261 . S
O1230 Gd1187 2.388 . S
O1230 C1244 1.252 . S
C1231 O1219 1.265 . S
C1231 O1220 1.242 . S
C1232 O1223 1.261 . S
C1232 O1224 1.252 . S
C1233 C1236 1.394 . S
C1233 C1238 1.370 . S
C1233 C1239 1.500 . S
C1234 C1237 1.383 . S
C1234 C1238 1.395 . S
C1235 C1236 1.396 . S
C1235 C1237 1.365 . S
C1235 H1252 0.929 . S
C1236 C1233 1.394 . S
C1236 C1235 1.396 . S
C1236 H1253 0.930 . S
C1237 C1234 1.383 . S
C1237 C1235 1.365 . S
C1237 H1254 0.931 . S
C1238 C1233 1.370 . S
C1238 C1234 1.395 . S
C1238 H1255 0.930 . S
C1239 Gd1186 2.805 . S
C1239 O1221 1.263 . S
C1239 O1222 1.252 . S
C1239 C1233 1.500 . S
C1240 H1202 0.930 . S
C1240 C1216 1.417 . S
C1240 C1241 1.329 . S
C1241 C1211 1.437 . S
C1241 H1212 0.929 . S
C1241 C1240 1.329 . S
H1242 C1215 0.931 . S
C1243 O1225 1.265 . S
C1243 O1226 1.242 . S
C1244 O1229 1.261 . S
C1244 O1230 1.252 . S
C1245 C1248 1.394 . S
C1245 C1250 1.370 . S
C1245 C1251 1.500 1_655 S
C1246 C1249 1.383 . S
C1246 C1250 1.395 . S
C1247 C1248 1.396 . S
C1247 C1249 1.365 . S
C1247 H1256 0.929 . S
C1248 C1245 1.394 . S
C1248 C1247 1.396 . S
C1248 H1257 0.930 . S
C1249 C1246 1.383 . S
C1249 C1247 1.365 . S
C1249 H1258 0.931 . S
C1250 C1245 1.370 . S
C1250 C1246 1.395 . S
C1250 H1259 0.930 . S
C1251 Gd1187 2.805 . S
C1251 O1227 1.263 . S
C1251 O1228 1.252 . S
C1251 C1245 1.500 1_455 S
H1252 C1235 0.929 . S
H1253 C1236 0.930 . S
H1254 C1237 0.931 . S
H1255 C1238 0.930 . S
H1256 C1247 0.929 . S
H1257 C1248 0.930 . S
H1258 C1249 0.931 . S
H1259 C1250 0.930 . S
C1260 C1262 1.422 . S
C1260 C1264 1.415 . S
C1260 N1266 1.369 . S
C1261 C1262 1.421 . S
C1261 C1263 1.417 . S
C1261 C1273 1.422 . S
C1262 C1260 1.422 . S
C1262 C1261 1.421 . S
C1262 N1272 1.359 . S
C1263 C1261 1.417 . S
C1263 C1265 1.329 . S
C1263 H1282 0.930 . S
C1264 C1260 1.415 . S
C1264 C1265 1.437 . S
C1264 C1268 1.413 . S
C1265 C1263 1.329 . S
C1265 C1264 1.437 . S
C1265 H1287 0.929 . S
N1266 C1260 1.369 . S
N1266 C1267 1.338 . S
N1266 Gd1271 2.622 . S
C1267 N1266 1.338 . S
C1267 C1269 1.378 . S
C1267 H1279 0.929 . S
C1268 C1264 1.413 . S
C1268 C1269 1.348 . S
C1268 H1284 0.931 . S
C1269 C1267 1.378 . S
C1269 C1268 1.348 . S
C1269 H1285 0.930 . S
Gd1270 N1290 2.622 . S
Gd1270 N1297 2.570 . S
Gd1270 O1304 2.353 . S
Gd1270 O1305 2.468 . S
Gd1270 O1306 2.427 . S
Gd1270 O1308 2.388 . S
Gd1270 O1309 2.386 . S
Gd1270 O1313 2.307 . S
Gd1270 C1323 2.805 . S
Gd1271 N1266 2.622 . S
Gd1271 N1272 2.570 . S
Gd1271 O1303 2.386 . S
Gd1271 O1307 2.307 . S
Gd1271 O1310 2.353 . S
Gd1271 O1311 2.468 . S
Gd1271 O1312 2.427 . S
Gd1271 O1314 2.388 . S
Gd1271 C1335 2.805 . S
N1272 C1262 1.359 . S
N1272 Gd1271 2.570 . S
N1272 C1274 1.343 . S
C1273 C1261 1.422 . S
C1273 C1275 1.321 . S
C1273 H1281 0.931 . S
C1274 N1272 1.343 . S
C1274 C1275 1.390 . S
C1274 H1276 0.931 . S
C1275 C1273 1.321 . S
C1275 C1274 1.390 . S
C1275 H1277 0.930 . S
H1276 C1274 0.931 . S
H1277 C1275 0.930 . S
H1278 C1301 0.931 . S
H1279 C1267 0.929 . S
H1280 C1302 0.930 . S
H1281 C1273 0.931 . S
H1282 C1263 0.930 . S
H1283 C1292 0.929 . S
H1284 C1268 0.931 . S
H1285 C1269 0.930 . S
H1286 C1324 0.930 . S
H1287 C1265 0.929 . S
H1288 C1293 0.931 . S
H1289 C1294 0.930 . S
N1290 Gd1270 2.622 . S
N1290 C1291 1.369 . S
N1290 C1292 1.338 . S
C1291 N1290 1.369 . S
C1291 C1295 1.415 . S
C1291 C1298 1.422 . S
C1292 H1283 0.929 . S
C1292 N1290 1.338 . S
C1292 C1294 1.378 . S
C1293 H1288 0.931 . S
C1293 C1294 1.348 . S
C1293 C1295 1.413 . S
C1294 H1289 0.930 . S
C1294 C1292 1.378 . S
C1294 C1293 1.348 . S
C1295 C1291 1.415 . S
C1295 C1293 1.413 . S
C1295 C1325 1.437 . S
H1296 C1325 0.929 . S
N1297 Gd1270 2.570 . S
N1297 C1298 1.359 . S
N1297 C1301 1.343 . S
C1298 C1291 1.422 . S
C1298 N1297 1.359 . S
C1298 C1300 1.421 . S
C1299 C1300 1.422 . S
C1299 C1302 1.321 . S
C1299 H1326 0.931 . S
C1300 C1298 1.421 . S
C1300 C1299 1.422 . S
C1300 C1324 1.417 . S
C1301 H1278 0.931 . S
C1301 N1297 1.343 . S
C1301 C1302 1.390 . S
C1302 H1280 0.930 . S
C1302 C1299 1.321 . S
C1302 C1301 1.390 . S
O1303 Gd1271 2.386 . S
O1303 C1315 1.265 . S
O1304 Gd1270 2.353 . S
O1304 C1315 1.242 . S
O1305 Gd1270 2.468 . S
O1305 C1323 1.263 . S
O1306 Gd1270 2.427 . S
O1306 C1323 1.252 . S
O1307 Gd1271 2.307 . S
O1307 C1316 1.261 . S
O1308 Gd1270 2.388 . S
O1308 C1316 1.252 . S
O1309 Gd1270 2.386 . S
O1309 C1327 1.265 . S
O1310 Gd1271 2.353 . S
O1310 C1327 1.242 . S
O1311 Gd1271 2.468 . S
O1311 C1335 1.263 . S
O1312 Gd1271 2.427 . S
O1312 C1335 1.252 . S
O1313 Gd1270 2.307 . S
O1313 C1328 1.261 . S
O1314 Gd1271 2.388 . S
O1314 C1328 1.252 . S
C1315 O1303 1.265 . S
C1315 O1304 1.242 . S
C1316 O1307 1.261 . S
C1316 O1308 1.252 . S
C1317 C1320 1.394 . S
C1317 C1322 1.370 . S
C1317 C1323 1.500 . S
C1318 C1321 1.383 . S
C1318 C1322 1.395 . S
C1319 C1320 1.396 . S
C1319 C1321 1.365 . S
C1319 H1336 0.929 . S
C1320 C1317 1.394 . S
C1320 C1319 1.396 . S
C1320 H1337 0.930 . S
C1321 C1318 1.383 . S
C1321 C1319 1.365 . S
C1321 H1338 0.931 . S
C1322 C1317 1.370 . S
C1322 C1318 1.395 . S
C1322 H1339 0.930 . S
C1323 Gd1270 2.805 . S
C1323 O1305 1.263 . S
C1323 O1306 1.252 . S
C1323 C1317 1.500 . S
C1324 H1286 0.930 . S
C1324 C1300 1.417 . S
C1324 C1325 1.329 . S
C1325 C1295 1.437 . S
C1325 H1296 0.929 . S
C1325 C1324 1.329 . S
H1326 C1299 0.931 . S
C1327 O1309 1.265 . S
C1327 O1310 1.242 . S
C1328 O1313 1.261 . S
C1328 O1314 1.252 . S
C1329 C1332 1.394 . S
C1329 C1334 1.370 . S
C1329 C1335 1.500 . S
C1330 C1333 1.383 . S
C1330 C1334 1.395 . S
C1331 C1332 1.396 . S
C1331 C1333 1.365 . S
C1331 H1340 0.929 . S
C1332 C1329 1.394 . S
C1332 C1331 1.396 . S
C1332 H1341 0.930 . S
C1333 C1330 1.383 . S
C1333 C1331 1.365 . S
C1333 H1342 0.931 . S
C1334 C1329 1.370 . S
C1334 C1330 1.395 . S
C1334 H1343 0.930 . S
C1335 Gd1271 2.805 . S
C1335 O1311 1.263 . S
C1335 O1312 1.252 . S
C1335 C1329 1.500 . S
H1336 C1319 0.929 . S
H1337 C1320 0.930 . S
H1338 C1321 0.931 . S
H1339 C1322 0.930 . S
H1340 C1331 0.929 . S
H1341 C1332 0.930 . S
H1342 C1333 0.931 . S
H1343 C1334 0.930 . S
C1344 C1346 1.422 . S
C1344 C1348 1.415 . S
C1344 N1350 1.369 . S
C1345 C1346 1.421 . S
C1345 C1347 1.417 . S
C1345 C1357 1.422 . S
C1346 C1344 1.422 . S
C1346 C1345 1.421 . S
C1346 N1356 1.359 . S
C1347 C1345 1.417 . S
C1347 C1349 1.329 . S
C1347 H1366 0.930 . S
C1348 C1344 1.415 . S
C1348 C1349 1.437 . S
C1348 C1352 1.413 . S
C1349 C1347 1.329 . S
C1349 C1348 1.437 . S
C1349 H1371 0.929 . S
N1350 C1344 1.369 . S
N1350 C1351 1.338 . S
N1350 Gd1355 2.622 . S
C1351 N1350 1.338 . S
C1351 C1353 1.378 . S
C1351 H1363 0.929 . S
C1352 C1348 1.413 . S
C1352 C1353 1.348 . S
C1352 H1368 0.931 . S
C1353 C1351 1.378 . S
C1353 C1352 1.348 . S
C1353 H1369 0.930 . S
Gd1354 N1374 2.622 . S
Gd1354 N1381 2.570 . S
Gd1354 O1388 2.353 . S
Gd1354 O1389 2.468 . S
Gd1354 O1390 2.427 . S
Gd1354 O1392 2.388 . S
Gd1354 O1393 2.386 . S
Gd1354 O1397 2.307 . S
Gd1354 C1407 2.805 . S
Gd1355 N1350 2.622 . S
Gd1355 N1356 2.570 . S
Gd1355 O1387 2.386 . S
Gd1355 O1391 2.307 . S
Gd1355 O1394 2.353 . S
Gd1355 O1395 2.468 . S
Gd1355 O1396 2.427 . S
Gd1355 O1398 2.388 . S
Gd1355 C1419 2.805 . S
N1356 C1346 1.359 . S
N1356 Gd1355 2.570 . S
N1356 C1358 1.343 . S
C1357 C1345 1.422 . S
C1357 C1359 1.321 . S
C1357 H1365 0.931 . S
C1358 N1356 1.343 . S
C1358 C1359 1.390 . S
C1358 H1360 0.931 . S
C1359 C1357 1.321 . S
C1359 C1358 1.390 . S
C1359 H1361 0.930 . S
H1360 C1358 0.931 . S
H1361 C1359 0.930 . S
H1362 C1385 0.931 . S
H1363 C1351 0.929 . S
H1364 C1386 0.930 . S
H1365 C1357 0.931 . S
H1366 C1347 0.930 . S
H1367 C1376 0.929 . S
H1368 C1352 0.931 . S
H1369 C1353 0.930 . S
H1370 C1408 0.930 . S
H1371 C1349 0.929 . S
H1372 C1377 0.931 . S
H1373 C1378 0.930 . S
N1374 Gd1354 2.622 . S
N1374 C1375 1.369 . S
N1374 C1376 1.338 . S
C1375 N1374 1.369 . S
C1375 C1379 1.415 . S
C1375 C1382 1.422 . S
C1376 H1367 0.929 . S
C1376 N1374 1.338 . S
C1376 C1378 1.378 . S
C1377 H1372 0.931 . S
C1377 C1378 1.348 . S
C1377 C1379 1.413 . S
C1378 H1373 0.930 . S
C1378 C1376 1.378 . S
C1378 C1377 1.348 . S
C1379 C1375 1.415 . S
C1379 C1377 1.413 . S
C1379 C1409 1.437 . S
H1380 C1409 0.929 . S
N1381 Gd1354 2.570 . S
N1381 C1382 1.359 . S
N1381 C1385 1.343 . S
C1382 C1375 1.422 . S
C1382 N1381 1.359 . S
C1382 C1384 1.421 . S
C1383 C1384 1.422 . S
C1383 C1386 1.321 . S
C1383 H1410 0.931 . S
C1384 C1382 1.421 . S
C1384 C1383 1.422 . S
C1384 C1408 1.417 . S
C1385 H1362 0.931 . S
C1385 N1381 1.343 . S
C1385 C1386 1.390 . S
C1386 H1364 0.930 . S
C1386 C1383 1.321 . S
C1386 C1385 1.390 . S
O1387 Gd1355 2.386 . S
O1387 C1399 1.265 . S
O1388 Gd1354 2.353 . S
O1388 C1399 1.242 . S
O1389 Gd1354 2.468 . S
O1389 C1407 1.263 . S
O1390 Gd1354 2.427 . S
O1390 C1407 1.252 . S
O1391 Gd1355 2.307 . S
O1391 C1400 1.261 . S
O1392 Gd1354 2.388 . S
O1392 C1400 1.252 . S
O1393 Gd1354 2.386 . S
O1393 C1411 1.265 . S
O1394 Gd1355 2.353 . S
O1394 C1411 1.242 . S
O1395 Gd1355 2.468 . S
O1395 C1419 1.263 . S
O1396 Gd1355 2.427 . S
O1396 C1419 1.252 . S
O1397 Gd1354 2.307 . S
O1397 C1412 1.261 . S
O1398 Gd1355 2.388 . S
O1398 C1412 1.252 . S
C1399 O1387 1.265 . S
C1399 O1388 1.242 . S
C1400 O1391 1.261 . S
C1400 O1392 1.252 . S
C1401 C1404 1.394 . S
C1401 C1406 1.370 . S
C1401 C1407 1.500 . S
C1402 C1405 1.383 . S
C1402 C1406 1.395 . S
C1403 C1404 1.396 . S
C1403 C1405 1.365 . S
C1403 H1420 0.929 . S
C1404 C1401 1.394 . S
C1404 C1403 1.396 . S
C1404 H1421 0.930 . S
C1405 C1402 1.383 . S
C1405 C1403 1.365 . S
C1405 H1422 0.931 . S
C1406 C1401 1.370 . S
C1406 C1402 1.395 . S
C1406 H1423 0.930 . S
C1407 Gd1354 2.805 . S
C1407 O1389 1.263 . S
C1407 O1390 1.252 . S
C1407 C1401 1.500 . S
C1408 H1370 0.930 . S
C1408 C1384 1.417 . S
C1408 C1409 1.329 . S
C1409 C1379 1.437 . S
C1409 H1380 0.929 . S
C1409 C1408 1.329 . S
H1410 C1383 0.931 . S
C1411 O1393 1.265 . S
C1411 O1394 1.242 . S
C1412 O1397 1.261 . S
C1412 O1398 1.252 . S
C1413 C1416 1.394 . S
C1413 C1418 1.370 . S
C1413 C1419 1.500 . S
C1414 C1417 1.383 . S
C1414 C1418 1.395 . S
C1415 C1416 1.396 . S
C1415 C1417 1.365 . S
C1415 H1424 0.929 . S
C1416 C1413 1.394 . S
C1416 C1415 1.396 . S
C1416 H1425 0.930 . S
C1417 C1414 1.383 . S
C1417 C1415 1.365 . S
C1417 H1426 0.931 . S
C1418 C1413 1.370 . S
C1418 C1414 1.395 . S
C1418 H1427 0.930 . S
C1419 Gd1355 2.805 . S
C1419 O1395 1.263 . S
C1419 O1396 1.252 . S
C1419 C1413 1.500 . S
H1420 C1403 0.929 . S
H1421 C1404 0.930 . S
H1422 C1405 0.931 . S
H1423 C1406 0.930 . S
H1424 C1415 0.929 . S
H1425 C1416 0.930 . S
H1426 C1417 0.931 . S
H1427 C1418 0.930 . S
C1428 C1430 1.422 . S
C1428 C1432 1.415 . S
C1428 N1434 1.369 . S
C1429 C1430 1.421 . S
C1429 C1431 1.417 . S
C1429 C1441 1.422 . S
C1430 C1428 1.422 . S
C1430 C1429 1.421 . S
C1430 N1440 1.359 . S
C1431 C1429 1.417 . S
C1431 C1433 1.329 . S
C1431 H1450 0.930 . S
C1432 C1428 1.415 . S
C1432 C1433 1.437 . S
C1432 C1436 1.413 . S
C1433 C1431 1.329 . S
C1433 C1432 1.437 . S
C1433 H1455 0.929 . S
N1434 C1428 1.369 . S
N1434 C1435 1.338 . S
N1434 Gd1439 2.622 . S
C1435 N1434 1.338 . S
C1435 C1437 1.378 . S
C1435 H1447 0.929 . S
C1436 C1432 1.413 . S
C1436 C1437 1.348 . S
C1436 H1452 0.931 . S
C1437 C1435 1.378 . S
C1437 C1436 1.348 . S
C1437 H1453 0.930 . S
Gd1438 N1458 2.622 . S
Gd1438 N1465 2.570 . S
Gd1438 O1472 2.353 . S
Gd1438 O1473 2.468 . S
Gd1438 O1474 2.427 . S
Gd1438 O1476 2.388 . S
Gd1438 O1477 2.386 . S
Gd1438 O1481 2.307 . S
Gd1438 C1491 2.805 . S
Gd1439 N1434 2.622 . S
Gd1439 N1440 2.570 . S
Gd1439 O1471 2.386 . S
Gd1439 O1475 2.307 . S
Gd1439 O1478 2.353 . S
Gd1439 O1479 2.468 . S
Gd1439 O1480 2.427 . S
Gd1439 O1482 2.388 . S
Gd1439 C1503 2.805 . S
N1440 C1430 1.359 . S
N1440 Gd1439 2.570 . S
N1440 C1442 1.343 . S
C1441 C1429 1.422 . S
C1441 C1443 1.321 . S
C1441 H1449 0.931 . S
C1442 N1440 1.343 . S
C1442 C1443 1.390 . S
C1442 H1444 0.931 . S
C1443 C1441 1.321 . S
C1443 C1442 1.390 . S
C1443 H1445 0.930 . S
H1444 C1442 0.931 . S
H1445 C1443 0.930 . S
H1446 C1469 0.931 . S
H1447 C1435 0.929 . S
H1448 C1470 0.930 . S
H1449 C1441 0.931 . S
H1450 C1431 0.930 . S
H1451 C1460 0.929 . S
H1452 C1436 0.931 . S
H1453 C1437 0.930 . S
H1454 C1492 0.930 . S
H1455 C1433 0.929 . S
H1456 C1461 0.931 . S
H1457 C1462 0.930 . S
N1458 Gd1438 2.622 . S
N1458 C1459 1.369 . S
N1458 C1460 1.338 . S
C1459 N1458 1.369 . S
C1459 C1463 1.415 . S
C1459 C1466 1.422 . S
C1460 H1451 0.929 . S
C1460 N1458 1.338 . S
C1460 C1462 1.378 . S
C1461 H1456 0.931 . S
C1461 C1462 1.348 . S
C1461 C1463 1.413 . S
C1462 H1457 0.930 . S
C1462 C1460 1.378 . S
C1462 C1461 1.348 . S
C1463 C1459 1.415 . S
C1463 C1461 1.413 . S
C1463 C1493 1.437 . S
H1464 C1493 0.929 . S
N1465 Gd1438 2.570 . S
N1465 C1466 1.359 . S
N1465 C1469 1.343 . S
C1466 C1459 1.422 . S
C1466 N1465 1.359 . S
C1466 C1468 1.421 . S
C1467 C1468 1.422 . S
C1467 C1470 1.321 . S
C1467 H1494 0.931 . S
C1468 C1466 1.421 . S
C1468 C1467 1.422 . S
C1468 C1492 1.417 . S
C1469 H1446 0.931 . S
C1469 N1465 1.343 . S
C1469 C1470 1.390 . S
C1470 H1448 0.930 . S
C1470 C1467 1.321 . S
C1470 C1469 1.390 . S
O1471 Gd1439 2.386 . S
O1471 C1483 1.265 . S
O1472 Gd1438 2.353 . S
O1472 C1483 1.242 . S
O1473 Gd1438 2.468 . S
O1473 C1491 1.263 . S
O1474 Gd1438 2.427 . S
O1474 C1491 1.252 . S
O1475 Gd1439 2.307 . S
O1475 C1484 1.261 . S
O1476 Gd1438 2.388 . S
O1476 C1484 1.252 . S
O1477 Gd1438 2.386 . S
O1477 C1495 1.265 . S
O1478 Gd1439 2.353 . S
O1478 C1495 1.242 . S
O1479 Gd1439 2.468 . S
O1479 C1503 1.263 . S
O1480 Gd1439 2.427 . S
O1480 C1503 1.252 . S
O1481 Gd1438 2.307 . S
O1481 C1496 1.261 . S
O1482 Gd1439 2.388 . S
O1482 C1496 1.252 . S
C1483 O1471 1.265 . S
C1483 O1472 1.242 . S
C1484 O1475 1.261 . S
C1484 O1476 1.252 . S
C1485 C1488 1.394 . S
C1485 C1490 1.370 . S
C1485 C1491 1.500 . S
C1486 C1489 1.383 . S
C1486 C1490 1.395 . S
C1487 C1488 1.396 . S
C1487 C1489 1.365 . S
C1487 H1504 0.929 . S
C1488 C1485 1.394 . S
C1488 C1487 1.396 . S
C1488 H1505 0.930 . S
C1489 C1486 1.383 . S
C1489 C1487 1.365 . S
C1489 H1506 0.931 . S
C1490 C1485 1.370 . S
C1490 C1486 1.395 . S
C1490 H1507 0.930 . S
C1491 Gd1438 2.805 . S
C1491 O1473 1.263 . S
C1491 O1474 1.252 . S
C1491 C1485 1.500 . S
C1492 H1454 0.930 . S
C1492 C1468 1.417 . S
C1492 C1493 1.329 . S
C1493 C1463 1.437 . S
C1493 H1464 0.929 . S
C1493 C1492 1.329 . S
H1494 C1467 0.931 . S
C1495 O1477 1.265 . S
C1495 O1478 1.242 . S
C1496 O1481 1.261 . S
C1496 O1482 1.252 . S
C1497 C1500 1.394 . S
C1497 C1502 1.370 . S
C1497 C1503 1.500 . S
C1498 C1501 1.383 . S
C1498 C1502 1.395 . S
C1499 C1500 1.396 . S
C1499 C1501 1.365 . S
C1499 H1508 0.929 . S
C1500 C1497 1.394 . S
C1500 C1499 1.396 . S
C1500 H1509 0.930 . S
C1501 C1498 1.383 . S
C1501 C1499 1.365 . S
C1501 H1510 0.931 . S
C1502 C1497 1.370 . S
C1502 C1498 1.395 . S
C1502 H1511 0.930 . S
C1503 Gd1439 2.805 . S
C1503 O1479 1.263 . S
C1503 O1480 1.252 . S
C1503 C1497 1.500 . S
H1504 C1487 0.929 . S
H1505 C1488 0.930 . S
H1506 C1489 0.931 . S
H1507 C1490 0.930 . S
H1508 C1499 0.929 . S
H1509 C1500 0.930 . S
H1510 C1501 0.931 . S
H1511 C1502 0.930 . S
C1512 C1514 1.422 . S
C1512 C1516 1.415 . S
C1512 N1518 1.369 . S
C1513 C1514 1.421 . S
C1513 C1515 1.417 . S
C1513 C1525 1.422 . S
C1514 C1512 1.422 . S
C1514 C1513 1.421 . S
C1514 N1524 1.359 . S
C1515 C1513 1.417 . S
C1515 C1517 1.329 . S
C1515 H1534 0.930 . S
C1516 C1512 1.415 . S
C1516 C1517 1.437 . S
C1516 C1520 1.413 . S
C1517 C1515 1.329 . S
C1517 C1516 1.437 . S
C1517 H1539 0.929 . S
N1518 C1512 1.369 . S
N1518 C1519 1.338 . S
N1518 Gd1523 2.622 . S
C1519 N1518 1.338 . S
C1519 C1521 1.378 . S
C1519 H1531 0.929 . S
C1520 C1516 1.413 . S
C1520 C1521 1.348 . S
C1520 H1536 0.931 . S
C1521 C1519 1.378 . S
C1521 C1520 1.348 . S
C1521 H1537 0.930 . S
Gd1522 N1542 2.622 . S
Gd1522 N1549 2.570 . S
Gd1522 O1556 2.353 . S
Gd1522 O1557 2.468 . S
Gd1522 O1558 2.427 . S
Gd1522 O1560 2.388 . S
Gd1522 O1561 2.386 . S
Gd1522 O1565 2.307 . S
Gd1522 C1575 2.805 . S
Gd1523 N1518 2.622 . S
Gd1523 N1524 2.570 . S
Gd1523 O1555 2.386 . S
Gd1523 O1559 2.307 . S
Gd1523 O1562 2.353 . S
Gd1523 O1563 2.468 . S
Gd1523 O1564 2.427 . S
Gd1523 O1566 2.388 . S
Gd1523 C1587 2.805 . S
N1524 C1514 1.359 . S
N1524 Gd1523 2.570 . S
N1524 C1526 1.343 . S
C1525 C1513 1.422 . S
C1525 C1527 1.321 . S
C1525 H1533 0.931 . S
C1526 N1524 1.343 . S
C1526 C1527 1.390 . S
C1526 H1528 0.931 . S
C1527 C1525 1.321 . S
C1527 C1526 1.390 . S
C1527 H1529 0.930 . S
H1528 C1526 0.931 . S
H1529 C1527 0.930 . S
H1530 C1553 0.931 . S
H1531 C1519 0.929 . S
H1532 C1554 0.930 . S
H1533 C1525 0.931 . S
H1534 C1515 0.930 . S
H1535 C1544 0.929 . S
H1536 C1520 0.931 . S
H1537 C1521 0.930 . S
H1538 C1576 0.930 . S
H1539 C1517 0.929 . S
H1540 C1545 0.931 . S
H1541 C1546 0.930 . S
N1542 Gd1522 2.622 . S
N1542 C1543 1.369 . S
N1542 C1544 1.338 . S
C1543 N1542 1.369 . S
C1543 C1547 1.415 . S
C1543 C1550 1.422 . S
C1544 H1535 0.929 . S
C1544 N1542 1.338 . S
C1544 C1546 1.378 . S
C1545 H1540 0.931 . S
C1545 C1546 1.348 . S
C1545 C1547 1.413 . S
C1546 H1541 0.930 . S
C1546 C1544 1.378 . S
C1546 C1545 1.348 . S
C1547 C1543 1.415 . S
C1547 C1545 1.413 . S
C1547 C1577 1.437 . S
H1548 C1577 0.929 . S
N1549 Gd1522 2.570 . S
N1549 C1550 1.359 . S
N1549 C1553 1.343 . S
C1550 C1543 1.422 . S
C1550 N1549 1.359 . S
C1550 C1552 1.421 . S
C1551 C1552 1.422 . S
C1551 C1554 1.321 . S
C1551 H1578 0.931 . S
C1552 C1550 1.421 . S
C1552 C1551 1.422 . S
C1552 C1576 1.417 . S
C1553 H1530 0.931 . S
C1553 N1549 1.343 . S
C1553 C1554 1.390 . S
C1554 H1532 0.930 . S
C1554 C1551 1.321 . S
C1554 C1553 1.390 . S
O1555 Gd1523 2.386 . S
O1555 C1567 1.265 . S
O1556 Gd1522 2.353 . S
O1556 C1567 1.242 . S
O1557 Gd1522 2.468 . S
O1557 C1575 1.263 . S
O1558 Gd1522 2.427 . S
O1558 C1575 1.252 . S
O1559 Gd1523 2.307 . S
O1559 C1568 1.261 . S
O1560 Gd1522 2.388 . S
O1560 C1568 1.252 . S
O1561 Gd1522 2.386 . S
O1561 C1579 1.265 . S
O1562 Gd1523 2.353 . S
O1562 C1579 1.242 . S
O1563 Gd1523 2.468 . S
O1563 C1587 1.263 . S
O1564 Gd1523 2.427 . S
O1564 C1587 1.252 . S
O1565 Gd1522 2.307 . S
O1565 C1580 1.261 . S
O1566 Gd1523 2.388 . S
O1566 C1580 1.252 . S
C1567 O1555 1.265 . S
C1567 O1556 1.242 . S
C1568 O1559 1.261 . S
C1568 O1560 1.252 . S
C1569 C1572 1.394 . S
C1569 C1574 1.370 . S
C1569 C1575 1.500 . S
C1570 C1573 1.383 . S
C1570 C1574 1.395 . S
C1571 C1572 1.396 . S
C1571 C1573 1.365 . S
C1571 H1588 0.929 . S
C1572 C1569 1.394 . S
C1572 C1571 1.396 . S
C1572 H1589 0.930 . S
C1573 C1570 1.383 . S
C1573 C1571 1.365 . S
C1573 H1590 0.931 . S
C1574 C1569 1.370 . S
C1574 C1570 1.395 . S
C1574 H1591 0.930 . S
C1575 Gd1522 2.805 . S
C1575 O1557 1.263 . S
C1575 O1558 1.252 . S
C1575 C1569 1.500 . S
C1576 H1538 0.930 . S
C1576 C1552 1.417 . S
C1576 C1577 1.329 . S
C1577 C1547 1.437 . S
C1577 H1548 0.929 . S
C1577 C1576 1.329 . S
H1578 C1551 0.931 . S
C1579 O1561 1.265 . S
C1579 O1562 1.242 . S
C1580 O1565 1.261 . S
C1580 O1566 1.252 . S
C1581 C1584 1.394 . S
C1581 C1586 1.370 . S
C1581 C1587 1.500 . S
C1582 C1585 1.383 . S
C1582 C1586 1.395 . S
C1583 C1584 1.396 . S
C1583 C1585 1.365 . S
C1583 H1592 0.929 . S
C1584 C1581 1.394 . S
C1584 C1583 1.396 . S
C1584 H1593 0.930 . S
C1585 C1582 1.383 . S
C1585 C1583 1.365 . S
C1585 H1594 0.931 . S
C1586 C1581 1.370 . S
C1586 C1582 1.395 . S
C1586 H1595 0.930 . S
C1587 Gd1523 2.805 . S
C1587 O1563 1.263 . S
C1587 O1564 1.252 . S
C1587 C1581 1.500 . S
H1588 C1571 0.929 . S
H1589 C1572 0.930 . S
H1590 C1573 0.931 . S
H1591 C1574 0.930 . S
H1592 C1583 0.929 . S
H1593 C1584 0.930 . S
H1594 C1585 0.931 . S
H1595 C1586 0.930 . S
C1596 C1598 1.422 1_556 S
C1596 C1600 1.415 . S
C1596 N1602 1.369 . S
C1597 C1598 1.421 . S
C1597 C1599 1.417 . S
C1597 C1609 1.422 . S
C1598 C1596 1.422 1_554 S
C1598 C1597 1.421 . S
C1598 N1608 1.359 . S
C1599 C1597 1.417 . S
C1599 C1601 1.329 1_554 S
C1599 H1618 0.930 . S
C1600 C1596 1.415 . S
C1600 C1601 1.437 . S
C1600 C1604 1.413 . S
C1601 C1599 1.329 1_556 S
C1601 C1600 1.437 . S
C1601 H1623 0.929 . S
N1602 C1596 1.369 . S
N1602 C1603 1.338 . S
N1602 Gd1607 2.622 1_556 S
C1603 N1602 1.338 . S
C1603 C1605 1.378 . S
C1603 H1615 0.929 . S
C1604 C1600 1.413 . S
C1604 C1605 1.348 . S
C1604 H1620 0.931 . S
C1605 C1603 1.378 . S
C1605 C1604 1.348 . S
C1605 H1621 0.930 . S
Gd1606 N1626 2.633 . S
Gd1606 N1633 2.599 . S
Gd1606 O1640 2.340 1_655 S
Gd1606 O1641 2.507 . S
Gd1606 O1642 2.459 . S
Gd1606 O1644 2.355 1_655 S
Gd1606 O1645 2.361 1_655 S
Gd1606 O1649 2.299 1_655 S
Gd1606 C1659 2.845 . S
Gd1607 N1602 2.622 1_554 S
Gd1607 N1608 2.570 . S
Gd1607 O1639 2.386 . S
Gd1607 O1643 2.307 . S
Gd1607 O1646 2.353 . S
Gd1607 O1647 2.468 . S
Gd1607 O1648 2.427 1_554 S
Gd1607 O1650 2.388 1_554 S
Gd1607 C1671 2.805 . S
N1608 C1598 1.359 . S
N1608 Gd1607 2.570 . S
N1608 C1610 1.343 . S
C1609 C1597 1.422 . S
C1609 C1611 1.321 . S
C1609 H1617 0.931 . S
C1610 N1608 1.343 . S
C1610 C1611 1.390 . S
C1610 H1612 0.931 . S
C1611 C1609 1.321 . S
C1611 C1610 1.390 . S
C1611 H1613 0.930 . S
H1612 C1610 0.931 . S
H1613 C1611 0.930 . S
H1614 C1637 0.931 . S
H1615 C1603 0.929 . S
H1616 C1638 0.930 1_556 S
H1617 C1609 0.931 . S
H1618 C1599 0.930 . S
H1619 C1628 0.929 1_455 S
H1620 C1604 0.931 . S
H1621 C1605 0.930 . S
H1622 C1660 0.930 . S
H1623 C1601 0.929 . S
H1624 C1629 0.931 . S
H1625 C1630 0.922 1_455 S
N1626 Gd1606 2.633 . S
N1626 C1627 1.369 . S
N1626 C1628 1.338 . S
C1627 N1626 1.369 . S
C1627 C1631 1.415 . S
C1627 C1634 1.422 . S
C1628 H1619 0.929 1_655 S
C1628 N1626 1.338 . S
C1628 C1630 1.378 . S
C1629 H1624 0.931 . S
C1629 C1630 1.348 . S
C1629 C1631 1.413 . S
C1630 H1625 0.922 1_655 S
C1630 C1628 1.378 . S
C1630 C1629 1.348 . S
C1631 C1627 1.415 . S
C1631 C1629 1.413 . S
C1631 C1661 1.437 . S
H1632 C1661 0.929 . S
N1633 Gd1606 2.599 . S
N1633 C1634 1.359 . S
N1633 C1637 1.343 . S
C1634 C1627 1.422 . S
C1634 N1633 1.359 . S
C1634 C1636 1.421 . S
C1635 C1636 1.422 . S
C1635 C1638 1.321 . S
C1635 H1662 0.931 . S
C1636 C1634 1.421 . S
C1636 C1635 1.422 . S
C1636 C1660 1.417 . S
C1637 H1614 0.931 . S
C1637 N1633 1.343 . S
C1637 C1638 1.390 . S
C1638 H1616 0.930 1_554 S
C1638 C1635 1.321 . S
C1638 C1637 1.390 . S
O1639 Gd1607 2.386 . S
O1639 C1651 1.265 . S
O1640 Gd1606 2.340 1_455 S
O1640 C1651 1.242 . S
O1641 Gd1606 2.507 . S
O1641 C1659 1.263 . S
O1642 Gd1606 2.459 . S
O1642 C1659 1.252 . S
O1643 Gd1607 2.307 . S
O1643 C1652 1.261 . S
O1644 Gd1606 2.355 1_455 S
O1644 C1652 1.252 . S
O1645 Gd1606 2.361 1_455 S
O1645 C1663 1.265 . S
O1646 Gd1607 2.353 . S
O1646 C1663 1.242 . S
O1647 Gd1607 2.468 . S
O1647 C1671 1.263 . S
O1648 Gd1607 2.427 1_556 S
O1648 C1671 1.252 1_556 S
O1649 Gd1606 2.299 1_455 S
O1649 C1664 1.261 1_554 S
O1650 Gd1607 2.388 1_556 S
O1650 C1664 1.252 . S
C1651 O1639 1.265 . S
C1651 O1640 1.242 . S
C1652 O1643 1.261 . S
C1652 O1644 1.252 . S
C1653 C1656 1.394 . S
C1653 C1658 1.370 . S
C1653 C1659 1.500 . S
C1654 C1657 1.383 . S
C1654 C1658 1.395 . S
C1655 C1656 1.396 . S
C1655 C1657 1.365 . S
C1655 H1672 0.929 . S
C1656 C1653 1.394 . S
C1656 C1655 1.396 . S
C1656 H1673 0.930 . S
C1657 C1654 1.383 . S
C1657 C1655 1.365 . S
C1657 H1674 0.931 . S
C1658 C1653 1.370 . S
C1658 C1654 1.395 . S
C1658 H1675 0.930 . S
C1659 Gd1606 2.845 . S
C1659 O1641 1.263 . S
C1659 O1642 1.252 . S
C1659 C1653 1.500 . S
C1660 H1622 0.930 . S
C1660 C1636 1.417 . S
C1660 C1661 1.329 . S
C1661 C1631 1.437 . S
C1661 H1632 0.929 . S
C1661 C1660 1.329 . S
H1662 C1635 0.931 . S
C1663 O1645 1.265 . S
C1663 O1646 1.242 . S
C1664 O1649 1.261 1_556 S
C1664 O1650 1.252 . S
C1665 C1668 1.358 1_554 S
C1665 C1670 1.397 . S
C1665 C1671 1.509 . S
C1666 C1669 1.383 1_554 S
C1666 C1670 1.395 . S
C1667 C1668 1.396 . S
C1667 C1669 1.365 . S
C1667 H1676 0.929 . S
C1668 C1665 1.358 1_556 S
C1668 C1667 1.396 . S
C1668 H1677 0.930 . S
C1669 C1666 1.383 1_556 S
C1669 C1667 1.365 . S
C1669 H1678 0.931 . S
C1670 C1665 1.397 . S
C1670 C1666 1.395 . S
C1670 H1679 0.930 . S
C1671 Gd1607 2.805 . S
C1671 O1647 1.263 . S
C1671 O1648 1.252 1_554 S
C1671 C1665 1.509 . S
H1672 C1655 0.929 . S
H1673 C1656 0.930 . S
H1674 C1657 0.931 . S
H1675 C1658 0.930 . S
H1676 C1667 0.929 . S
H1677 C1668 0.930 . S
H1678 C1669 0.931 . S
H1679 C1670 0.930 . S
H1680 C1692 0.930 . S
H1681 C1694 0.930 . S
H1682 C1695 0.930 . S
H1683 C1699 0.959 1_554 S
H1684 C1699 0.959 . S
H1685 C1699 0.961 . S
H1686 C1700 0.960 . S
H1687 C1700 0.961 . S
H1688 C1700 0.959 1_455 S
H1689 C1703 0.929 . S
H1690 C1704 0.931 . S
H1691 C1706 0.930 1_656 S
C1692 H1680 0.930 . S
C1692 C1693 1.399 1_655 S
C1692 C1697 1.402 1_655 S
C1693 C1692 1.399 1_455 S
C1693 C1694 1.376 . S
C1694 H1681 0.930 . S
C1694 C1693 1.376 . S
C1694 C1695 1.388 1_556 S
C1695 H1682 0.930 . S
C1695 C1694 1.388 1_554 S
C1695 C1696 1.390 1_554 S
C1696 C1695 1.390 1_556 S
C1696 C1697 1.389 . S
C1696 C1702 1.465 1_556 S
C1697 C1692 1.402 1_455 S
C1697 C1696 1.389 . S
C1697 C1698 1.517 1_455 S
C1698 C1697 1.517 1_655 S
C1698 C1699 1.502 . S
C1698 C1700 1.561 . S
C1698 C1701 1.526 1_655 S
C1699 H1683 0.959 1_556 S
C1699 H1684 0.959 . S
C1699 H1685 0.961 . S
C1699 C1698 1.502 . S
C1700 H1686 0.960 . S
C1700 H1687 0.961 . S
C1700 H1688 0.959 1_655 S
C1700 C1698 1.561 . S
C1701 C1698 1.526 1_455 S
C1701 C1702 1.396 1_556 S
C1701 C1706 1.390 1_556 S
C1702 C1696 1.465 1_554 S
C1702 C1701 1.396 1_554 S
C1702 C1703 1.399 . S
C1703 H1689 0.929 . S
C1703 C1702 1.399 . S
C1703 C1704 1.385 . S
C1704 H1690 0.931 . S
C1704 C1703 1.385 . S
C1704 C1705 1.389 . S
C1705 C1704 1.389 . S
C1705 C1706 1.387 . S
C1706 H1691 0.930 1_454 S
C1706 C1701 1.390 1_554 S
C1706 C1705 1.387 . S
H1707 C1719 0.930 . S
H1708 C1721 0.930 . S
H1709 C1722 0.930 . S
H1710 C1726 0.959 . S
H1711 C1726 0.959 . S
H1712 C1726 0.961 . S
H1713 C1727 0.960 . S
H1714 C1727 0.961 . S
H1715 C1727 0.959 . S
H1716 C1730 0.929 . S
H1717 C1731 0.931 . S
H1718 C1733 0.930 . S
C1719 H1707 0.930 . S
C1719 C1720 1.399 . S
C1719 C1724 1.399 . S
C1720 C1719 1.399 . S
C1720 C1721 1.376 . S
C1721 H1708 0.930 . S
C1721 C1720 1.376 . S
C1721 C1722 1.388 . S
C1722 H1709 0.930 . S
C1722 C1721 1.388 . S
C1722 C1723 1.390 . S
C1723 C1722 1.390 . S
C1723 C1724 1.394 . S
C1723 C1729 1.465 . S
C1724 C1719 1.399 . S
C1724 C1723 1.394 . S
C1724 C1725 1.516 . S
C1725 C1724 1.516 . S
C1725 C1726 1.502 . S
C1725 C1727 1.561 . S
C1725 C1728 1.526 . S
C1726 H1710 0.959 . S
C1726 H1711 0.959 . S
C1726 H1712 0.961 . S
C1726 C1725 1.502 . S
C1727 H1713 0.960 . S
C1727 H1714 0.961 . S
C1727 H1715 0.959 . S
C1727 C1725 1.561 . S
C1728 C1725 1.526 . S
C1728 C1729 1.396 . S
C1728 C1733 1.390 . S
C1729 C1723 1.465 . S
C1729 C1728 1.396 . S
C1729 C1730 1.399 . S
C1730 H1716 0.929 . S
C1730 C1729 1.399 . S
C1730 C1731 1.385 . S
C1731 H1717 0.931 . S
C1731 C1730 1.385 . S
C1731 C1732 1.389 . S
C1732 C1731 1.389 . S
C1732 C1733 1.387 . S
C1733 H1718 0.930 . S
C1733 C1728 1.390 . S
C1733 C1732 1.387 . S
H1734 C1746 0.930 . S
H1735 C1748 0.930 . S
H1736 C1749 0.930 . S
H1737 C1753 0.959 . S
H1738 C1753 0.959 . S
H1739 C1753 0.961 . S
H1740 C1754 0.960 . S
H1741 C1754 0.961 . S
H1742 C1754 0.959 . S
H1743 C1757 0.929 . S
H1744 C1758 0.931 . S
H1745 C1760 0.930 . S
C1746 H1734 0.930 . S
C1746 C1747 1.399 . S
C1746 C1751 1.399 . S
C1747 C1746 1.399 . S
C1747 C1748 1.376 . S
C1748 H1735 0.930 . S
C1748 C1747 1.376 . S
C1748 C1749 1.388 . S
C1749 H1736 0.930 . S
C1749 C1748 1.388 . S
C1749 C1750 1.390 . S
C1750 C1749 1.390 . S
C1750 C1751 1.394 . S
C1750 C1756 1.465 . S
C1751 C1746 1.399 . S
C1751 C1750 1.394 . S
C1751 C1752 1.516 . S
C1752 C1751 1.516 . S
C1752 C1753 1.502 . S
C1752 C1754 1.561 . S
C1752 C1755 1.526 . S
C1753 H1737 0.959 . S
C1753 H1738 0.959 . S
C1753 H1739 0.961 . S
C1753 C1752 1.502 . S
C1754 H1740 0.960 . S
C1754 H1741 0.961 . S
C1754 H1742 0.959 . S
C1754 C1752 1.561 . S
C1755 C1752 1.526 . S
C1755 C1756 1.396 . S
C1755 C1760 1.390 . S
C1756 C1750 1.465 . S
C1756 C1755 1.396 . S
C1756 C1757 1.399 . S
C1757 H1743 0.929 . S
C1757 C1756 1.399 . S
C1757 C1758 1.385 . S
C1758 H1744 0.931 . S
C1758 C1757 1.385 . S
C1758 C1759 1.389 . S
C1759 C1758 1.389 . S
C1759 C1760 1.387 . S
C1760 H1745 0.930 . S
C1760 C1755 1.390 . S
C1760 C1759 1.387 . S
H1761 C1773 0.930 . S
H1762 C1775 0.930 . S
H1763 C1776 0.930 . S
H1764 C1780 0.959 . S
H1765 C1780 0.959 . S
H1766 C1780 0.961 . S
H1767 C1781 0.960 . S
H1768 C1781 0.961 . S
H1769 C1781 0.959 . S
H1770 C1784 0.929 . S
H1771 C1785 0.931 . S
H1772 C1787 0.930 . S
C1773 H1761 0.930 . S
C1773 C1774 1.399 . S
C1773 C1778 1.399 . S
C1774 C1773 1.399 . S
C1774 C1775 1.376 . S
C1775 H1762 0.930 . S
C1775 C1774 1.376 . S
C1775 C1776 1.388 . S
C1776 H1763 0.930 . S
C1776 C1775 1.388 . S
C1776 C1777 1.390 . S
C1777 C1776 1.390 . S
C1777 C1778 1.394 . S
C1777 C1783 1.465 . S
C1778 C1773 1.399 . S
C1778 C1777 1.394 . S
C1778 C1779 1.516 . S
C1779 C1778 1.516 . S
C1779 C1780 1.502 . S
C1779 C1781 1.561 . S
C1779 C1782 1.526 . S
C1780 H1764 0.959 . S
C1780 H1765 0.959 . S
C1780 H1766 0.961 . S
C1780 C1779 1.502 . S
C1781 H1767 0.960 . S
C1781 H1768 0.961 . S
C1781 H1769 0.959 . S
C1781 C1779 1.561 . S
C1782 C1779 1.526 . S
C1782 C1783 1.396 . S
C1782 C1787 1.390 . S
C1783 C1777 1.465 . S
C1783 C1782 1.396 . S
C1783 C1784 1.399 . S
C1784 H1770 0.929 . S
C1784 C1783 1.399 . S
C1784 C1785 1.385 . S
C1785 H1771 0.931 . S
C1785 C1784 1.385 . S
C1785 C1786 1.389 . S
C1786 C1785 1.389 . S
C1786 C1787 1.387 . S
C1787 H1772 0.930 . S
C1787 C1782 1.390 . S
C1787 C1786 1.387 . S
H1788 C1800 0.930 . S
H1789 C1802 0.930 . S
H1790 C1803 0.930 . S
H1791 C1807 0.961 1_655 S
H1792 C1807 0.956 1_655 S
H1793 C1807 0.962 1_655 S
H1794 C1808 0.960 . S
H1795 C1808 0.961 . S
H1796 C1808 0.959 . S
H1797 C1811 0.929 . S
H1798 C1812 0.931 . S
H1799 C1814 0.930 . S
C1800 H1788 0.930 . S
C1800 C1801 1.399 . S
C1800 C1805 1.399 . S
C1801 C1800 1.399 . S
C1801 C1802 1.376 . S
C1802 H1789 0.930 . S
C1802 C1801 1.376 . S
C1802 C1803 1.388 . S
C1803 H1790 0.930 . S
C1803 C1802 1.388 . S
C1803 C1804 1.390 . S
C1804 C1803 1.390 . S
C1804 C1805 1.394 . S
C1804 C1810 1.465 . S
C1805 C1800 1.399 . S
C1805 C1804 1.394 . S
C1805 C1806 1.516 . S
C1806 C1805 1.516 . S
C1806 C1807 1.498 . S
C1806 C1808 1.561 . S
C1806 C1809 1.526 . S
C1807 H1791 0.961 1_455 S
C1807 H1792 0.956 1_455 S
C1807 H1793 0.962 1_455 S
C1807 C1806 1.498 . S
C1808 H1794 0.960 . S
C1808 H1795 0.961 . S
C1808 H1796 0.959 . S
C1808 C1806 1.561 . S
C1809 C1806 1.526 . S
C1809 C1810 1.396 . S
C1809 C1814 1.390 . S
C1810 C1804 1.465 . S
C1810 C1809 1.396 . S
C1810 C1811 1.399 . S
C1811 H1797 0.929 . S
C1811 C1810 1.399 . S
C1811 C1812 1.385 . S
C1812 H1798 0.931 . S
C1812 C1811 1.385 . S
C1812 C1813 1.389 . S
C1813 C1812 1.389 . S
C1813 C1814 1.387 . S
C1814 H1799 0.930 . S
C1814 C1809 1.390 . S
C1814 C1813 1.387 . S
H1815 C1827 0.930 . S
H1816 C1829 0.930 . S
H1817 C1830 0.930 . S
H1818 C1834 0.959 . S
H1819 C1834 0.959 . S
H1820 C1834 0.961 . S
H1821 C1835 0.960 . S
H1822 C1835 0.961 . S
H1823 C1835 0.959 . S
H1824 C1838 0.929 . S
H1825 C1839 0.931 . S
H1826 C1841 0.930 . S
C1827 H1815 0.930 . S
C1827 C1828 1.399 . S
C1827 C1832 1.399 . S
C1828 C1827 1.399 . S
C1828 C1829 1.376 . S
C1829 H1816 0.930 . S
C1829 C1828 1.376 . S
C1829 C1830 1.388 . S
C1830 H1817 0.930 . S
C1830 C1829 1.388 . S
C1830 C1831 1.390 . S
C1831 C1830 1.390 . S
C1831 C1832 1.394 . S
C1831 C1837 1.465 . S
C1832 C1827 1.399 . S
C1832 C1831 1.394 . S
C1832 C1833 1.516 . S
C1833 C1832 1.516 . S
C1833 C1834 1.502 . S
C1833 C1835 1.561 . S
C1833 C1836 1.526 . S
C1834 H1818 0.959 . S
C1834 H1819 0.959 . S
C1834 H1820 0.961 . S
C1834 C1833 1.502 . S
C1835 H1821 0.960 . S
C1835 H1822 0.961 . S
C1835 H1823 0.959 . S
C1835 C1833 1.561 . S
C1836 C1833 1.526 . S
C1836 C1837 1.396 . S
C1836 C1841 1.390 . S
C1837 C1831 1.465 . S
C1837 C1836 1.396 . S
C1837 C1838 1.399 . S
C1838 H1824 0.929 . S
C1838 C1837 1.399 . S
C1838 C1839 1.385 . S
C1839 H1825 0.931 . S
C1839 C1838 1.385 . S
C1839 C1840 1.389 . S
C1840 C1839 1.389 . S
C1840 C1841 1.387 . S
C1841 H1826 0.930 . S
C1841 C1836 1.390 . S
C1841 C1840 1.387 . S
H1842 C1854 0.930 . S
H1843 C1856 0.930 . S
H1844 C1857 0.930 . S
H1845 C1861 0.959 . S
H1846 C1861 0.959 . S
H1847 C1861 0.961 . S
H1848 C1862 0.960 . S
H1849 C1862 0.961 . S
H1850 C1862 0.959 . S
H1851 C1865 0.929 . S
H1852 C1866 0.931 . S
H1853 C1868 0.930 . S
C1854 H1842 0.930 . S
C1854 C1855 1.399 . S
C1854 C1859 1.399 . S
C1855 C1854 1.399 . S
C1855 C1856 1.376 . S
C1856 H1843 0.930 . S
C1856 C1855 1.376 . S
C1856 C1857 1.388 . S
C1857 H1844 0.930 . S
C1857 C1856 1.388 . S
C1857 C1858 1.390 . S
C1858 C1857 1.390 . S
C1858 C1859 1.394 . S
C1858 C1864 1.465 . S
C1859 C1854 1.399 . S
C1859 C1858 1.394 . S
C1859 C1860 1.516 . S
C1860 C1859 1.516 . S
C1860 C1861 1.502 . S
C1860 C1862 1.561 . S
C1860 C1863 1.526 . S
C1861 H1845 0.959 . S
C1861 H1846 0.959 . S
C1861 H1847 0.961 . S
C1861 C1860 1.502 . S
C1862 H1848 0.960 . S
C1862 H1849 0.961 . S
C1862 H1850 0.959 . S
C1862 C1860 1.561 . S
C1863 C1860 1.526 . S
C1863 C1864 1.396 . S
C1863 C1868 1.390 . S
C1864 C1858 1.465 . S
C1864 C1863 1.396 . S
C1864 C1865 1.399 . S
C1865 H1851 0.929 . S
C1865 C1864 1.399 . S
C1865 C1866 1.385 . S
C1866 H1852 0.931 . S
C1866 C1865 1.385 . S
C1866 C1867 1.389 . S
C1867 C1866 1.389 . S
C1867 C1868 1.387 . S
C1868 H1853 0.930 . S
C1868 C1863 1.390 . S
C1868 C1867 1.387 . S
H1869 C1881 0.930 . S
H1870 C1883 0.930 . S
H1871 C1884 0.930 . S
H1872 C1888 0.959 . S
H1873 C1888 0.959 . S
H1874 C1888 0.961 . S
H1875 C1889 0.960 . S
H1876 C1889 0.961 . S
H1877 C1889 0.959 . S
H1878 C1892 0.929 . S
H1879 C1893 0.931 . S
H1880 C1895 0.930 . S
C1881 H1869 0.930 . S
C1881 C1882 1.399 . S
C1881 C1886 1.399 . S
C1882 C1881 1.399 . S
C1882 C1883 1.376 . S
C1883 H1870 0.930 . S
C1883 C1882 1.376 . S
C1883 C1884 1.388 . S
C1884 H1871 0.930 . S
C1884 C1883 1.388 . S
C1884 C1885 1.390 . S
C1885 C1884 1.390 . S
C1885 C1886 1.394 . S
C1885 C1891 1.465 . S
C1886 C1881 1.399 . S
C1886 C1885 1.394 . S
C1886 C1887 1.516 . S
C1887 C1886 1.516 . S
C1887 C1888 1.502 . S
C1887 C1889 1.561 . S
C1887 C1890 1.526 . S
C1888 H1872 0.959 . S
C1888 H1873 0.959 . S
C1888 H1874 0.961 . S
C1888 C1887 1.502 . S
C1889 H1875 0.960 . S
C1889 H1876 0.961 . S
C1889 H1877 0.959 . S
C1889 C1887 1.561 . S
C1890 C1887 1.526 . S
C1890 C1891 1.396 . S
C1890 C1895 1.390 . S
C1891 C1885 1.465 . S
C1891 C1890 1.396 . S
C1891 C1892 1.399 . S
C1892 H1878 0.929 . S
C1892 C1891 1.399 . S
C1892 C1893 1.385 . S
C1893 H1879 0.931 . S
C1893 C1892 1.385 . S
C1893 C1894 1.389 . S
C1894 C1893 1.389 . S
C1894 C1895 1.387 . S
C1895 H1880 0.930 . S
C1895 C1890 1.390 . S
C1895 C1894 1.387 . S
H1896 C1908 0.930 1_565 S
H1897 C1910 0.930 . S
H1898 C1911 0.930 . S
H1899 C1915 0.959 . S
H1900 C1915 0.959 1_565 S
H1901 C1915 0.961 1_565 S
H1902 C1916 0.960 . S
H1903 C1916 0.961 . S
H1904 C1916 0.959 . S
H1905 C1919 0.929 . S
H1906 C1920 0.931 . S
H1907 C1922 0.930 . S
C1908 H1896 0.930 1_545 S
C1908 C1909 1.399 . S
C1908 C1913 1.399 . S
C1909 C1908 1.399 . S
C1909 C1910 1.376 . S
C1910 H1897 0.930 . S
C1910 C1909 1.376 . S
C1910 C1911 1.388 . S
C1911 H1898 0.930 . S
C1911 C1910 1.388 . S
C1911 C1912 1.390 . S
C1912 C1911 1.390 . S
C1912 C1913 1.394 . S
C1912 C1918 1.465 . S
C1913 C1908 1.399 . S
C1913 C1912 1.394 . S
C1913 C1914 1.516 . S
C1914 C1913 1.516 . S
C1914 C1915 1.502 1_655 S
C1914 C1916 1.561 1_545 S
C1914 C1917 1.526 . S
C1915 H1899 0.959 . S
C1915 H1900 0.959 1_545 S
C1915 H1901 0.961 1_545 S
C1915 C1914 1.502 1_455 S
C1916 H1902 0.960 . S
C1916 H1903 0.961 . S
C1916 H1904 0.959 . S
C1916 C1914 1.561 1_565 S
C1917 C1914 1.526 . S
C1917 C1918 1.396 . S
C1917 C1922 1.390 1_655 S
C1918 C1912 1.465 . S
C1918 C1917 1.396 . S
C1918 C1919 1.399 . S
C1919 H1905 0.929 . S
C1919 C1918 1.399 . S
C1919 C1920 1.385 . S
C1920 H1906 0.931 . S
C1920 C1919 1.385 . S
C1920 C1921 1.389 1_655 S
C1921 C1920 1.389 1_455 S
C1921 C1922 1.387 . S
C1922 H1907 0.930 . S
C1922 C1917 1.390 1_455 S
C1922 C1921 1.387 . S
H1923 C1935 0.930 . S
H1924 C1937 0.930 . S
H1925 C1938 0.930 . S
H1926 C1942 0.959 . S
H1927 C1942 0.959 . S
H1928 C1942 0.961 . S
H1929 C1943 0.960 . S
H1930 C1943 0.961 . S
H1931 C1943 0.959 . S
H1932 C1946 0.929 . S
H1933 C1947 0.931 . S
H1934 C1949 0.930 . S
C1935 H1923 0.930 . S
C1935 C1936 1.399 . S
C1935 C1940 1.399 . S
C1936 C1935 1.399 . S
C1936 C1937 1.376 . S
C1937 H1924 0.930 . S
C1937 C1936 1.376 . S
C1937 C1938 1.388 . S
C1938 H1925 0.930 . S
C1938 C1937 1.388 . S
C1938 C1939 1.390 . S
C1939 C1938 1.390 . S
C1939 C1940 1.394 . S
C1939 C1945 1.465 . S
C1940 C1935 1.399 . S
C1940 C1939 1.394 . S
C1940 C1941 1.516 . S
C1941 C1940 1.516 . S
C1941 C1942 1.502 . S
C1941 C1943 1.561 . S
C1941 C1944 1.526 . S
C1942 H1926 0.959 . S
C1942 H1927 0.959 . S
C1942 H1928 0.961 . S
C1942 C1941 1.502 . S
C1943 H1929 0.960 . S
C1943 H1930 0.961 . S
C1943 H1931 0.959 . S
C1943 C1941 1.561 . S
C1944 C1941 1.526 . S
C1944 C1945 1.396 . S
C1944 C1949 1.390 . S
C1945 C1939 1.465 . S
C1945 C1944 1.396 . S
C1945 C1946 1.399 . S
C1946 H1932 0.929 . S
C1946 C1945 1.399 . S
C1946 C1947 1.385 . S
C1947 H1933 0.931 . S
C1947 C1946 1.385 . S
C1947 C1948 1.389 . S
C1948 C1947 1.389 . S
C1948 C1949 1.387 . S
C1949 H1934 0.930 . S
C1949 C1944 1.390 . S
C1949 C1948 1.387 . S
H1950 C1962 0.930 . S
H1951 C1964 0.930 . S
H1952 C1965 0.930 . S
H1953 C1969 0.959 . S
H1954 C1969 0.959 . S
H1955 C1969 0.961 . S
H1956 C1970 0.960 . S
H1957 C1970 0.961 . S
H1958 C1970 0.959 . S
H1959 C1973 0.929 . S
H1960 C1974 0.931 . S
H1961 C1976 0.930 . S
C1962 H1950 0.930 . S
C1962 C1963 1.399 . S
C1962 C1967 1.399 . S
C1963 C1962 1.399 . S
C1963 C1964 1.376 . S
C1964 H1951 0.930 . S
C1964 C1963 1.376 . S
C1964 C1965 1.388 . S
C1965 H1952 0.930 . S
C1965 C1964 1.388 . S
C1965 C1966 1.390 . S
C1966 C1965 1.390 . S
C1966 C1967 1.394 . S
C1966 C1972 1.465 . S
C1967 C1962 1.399 . S
C1967 C1966 1.394 . S
C1967 C1968 1.516 . S
C1968 C1967 1.516 . S
C1968 C1969 1.502 . S
C1968 C1970 1.561 1_545 S
C1968 C1971 1.526 . S
C1969 H1953 0.959 . S
C1969 H1954 0.959 . S
C1969 H1955 0.961 . S
C1969 C1968 1.502 . S
C1970 H1956 0.960 . S
C1970 H1957 0.961 . S
C1970 H1958 0.959 . S
C1970 C1968 1.561 1_565 S
C1971 C1968 1.526 . S
C1971 C1972 1.396 . S
C1971 C1976 1.390 . S
C1972 C1966 1.465 . S
C1972 C1971 1.396 . S
C1972 C1973 1.399 . S
C1973 H1959 0.929 . S
C1973 C1972 1.399 . S
C1973 C1974 1.385 . S
C1974 H1960 0.931 . S
C1974 C1973 1.385 . S
C1974 C1975 1.389 . S
C1975 C1974 1.389 . S
C1975 C1976 1.387 . S
C1976 H1961 0.930 . S
C1976 C1971 1.390 . S
C1976 C1975 1.387 . S
H1977 C1989 0.930 . S
H1978 C1991 0.930 . S
H1979 C1992 0.930 . S
H1980 C1996 0.959 . S
H1981 C1996 0.959 . S
H1982 C1996 0.961 . S
H1983 C1997 0.960 . S
H1984 C1997 0.961 . S
H1985 C1997 0.959 . S
H1986 C2000 0.929 . S
H1987 C2001 0.931 . S
H1988 C2003 0.930 . S
C1989 H1977 0.930 . S
C1989 C1990 1.399 . S
C1989 C1994 1.399 . S
C1990 C1989 1.399 . S
C1990 C1991 1.376 . S
C1991 H1978 0.930 . S
C1991 C1990 1.376 . S
C1991 C1992 1.388 . S
C1992 H1979 0.930 . S
C1992 C1991 1.388 . S
C1992 C1993 1.390 . S
C1993 C1992 1.390 . S
C1993 C1994 1.394 . S
C1993 C1999 1.465 . S
C1994 C1989 1.399 . S
C1994 C1993 1.394 . S
C1994 C1995 1.516 . S
C1995 C1994 1.516 . S
C1995 C1996 1.502 . S
C1995 C1997 1.561 . S
C1995 C1998 1.526 . S
C1996 H1980 0.959 . S
C1996 H1981 0.959 . S
C1996 H1982 0.961 . S
C1996 C1995 1.502 . S
C1997 H1983 0.960 . S
C1997 H1984 0.961 . S
C1997 H1985 0.959 . S
C1997 C1995 1.561 . S
C1998 C1995 1.526 . S
C1998 C1999 1.396 . S
C1998 C2003 1.390 . S
C1999 C1993 1.465 . S
C1999 C1998 1.396 . S
C1999 C2000 1.399 . S
C2000 H1986 0.929 . S
C2000 C1999 1.399 . S
C2000 C2001 1.385 . S
C2001 H1987 0.931 . S
C2001 C2000 1.385 . S
C2001 C2002 1.389 . S
C2002 C2001 1.389 . S
C2002 C2003 1.387 . S
C2003 H1988 0.930 . S
C2003 C1998 1.390 . S
C2003 C2002 1.387 . S
H2004 C2016 0.930 . S
H2005 C2018 0.930 . S
H2006 C2019 0.930 1_455 S
H2007 C2023 0.959 . S
H2008 C2023 0.959 . S
H2009 C2023 0.961 . S
H2010 C2024 0.960 . S
H2011 C2024 0.961 . S
H2012 C2024 0.959 . S
H2013 C2027 0.929 . S
H2014 C2028 0.931 . S
H2015 C2030 0.930 . S
C2016 H2004 0.930 . S
C2016 C2017 1.399 . S
C2016 C2021 1.399 . S
C2017 C2016 1.399 . S
C2017 C2018 1.376 . S
C2018 H2005 0.930 . S
C2018 C2017 1.376 . S
C2018 C2019 1.388 . S
C2019 H2006 0.930 1_655 S
C2019 C2018 1.388 . S
C2019 C2020 1.390 . S
C2020 C2019 1.390 . S
C2020 C2021 1.394 . S
C2020 C2026 1.465 . S
C2021 C2016 1.399 . S
C2021 C2020 1.394 . S
C2021 C2022 1.516 . S
C2022 C2021 1.516 . S
C2022 C2023 1.502 . S
C2022 C2024 1.561 1_545 S
C2022 C2025 1.526 . S
C2023 H2007 0.959 . S
C2023 H2008 0.959 . S
C2023 H2009 0.961 . S
C2023 C2022 1.502 . S
C2024 H2010 0.960 . S
C2024 H2011 0.961 . S
C2024 H2012 0.959 . S
C2024 C2022 1.561 1_565 S
C2025 C2022 1.526 . S
C2025 C2026 1.396 . S
C2025 C2030 1.390 . S
C2026 C2020 1.465 . S
C2026 C2025 1.396 . S
C2026 C2027 1.399 1_655 S
C2027 H2013 0.929 . S
C2027 C2026 1.399 1_455 S
C2027 C2028 1.385 . S
C2028 H2014 0.931 . S
C2028 C2027 1.385 . S
C2028 C2029 1.389 . S
C2029 C2028 1.389 . S
C2029 C2030 1.387 1_455 S
C2030 H2015 0.930 . S
C2030 C2025 1.390 . S
C2030 C2029 1.387 1_655 S
H2031 C2043 0.930 . S
H2032 C2045 0.930 . S
H2033 C2046 0.930 . S
H2034 C2050 0.959 . S
H2035 C2050 0.959 . S
H2036 C2050 0.961 . S
H2037 C2051 0.960 . S
H2038 C2051 0.961 . S
H2039 C2051 0.959 . S
H2040 C2054 0.929 . S
H2041 C2055 0.931 . S
H2042 C2057 0.930 . S
C2043 H2031 0.930 . S
C2043 C2044 1.399 . S
C2043 C2048 1.399 . S
C2044 C2043 1.399 . S
C2044 C2045 1.376 . S
C2045 H2032 0.930 . S
C2045 C2044 1.376 . S
C2045 C2046 1.388 . S
C2046 H2033 0.930 . S
C2046 C2045 1.388 . S
C2046 C2047 1.390 . S
C2047 C2046 1.390 . S
C2047 C2048 1.394 . S
C2047 C2053 1.465 . S
C2048 C2043 1.399 . S
C2048 C2047 1.394 . S
C2048 C2049 1.516 . S
C2049 C2048 1.516 . S
C2049 C2050 1.502 . S
C2049 C2051 1.561 . S
C2049 C2052 1.526 . S
C2050 H2034 0.959 . S
C2050 H2035 0.959 . S
C2050 H2036 0.961 . S
C2050 C2049 1.502 . S
C2051 H2037 0.960 . S
C2051 H2038 0.961 . S
C2051 H2039 0.959 . S
C2051 C2049 1.561 . S
C2052 C2049 1.526 . S
C2052 C2053 1.396 . S
C2052 C2057 1.390 . S
C2053 C2047 1.465 . S
C2053 C2052 1.396 . S
C2053 C2054 1.399 . S
C2054 H2040 0.929 . S
C2054 C2053 1.399 . S
C2054 C2055 1.385 . S
C2055 H2041 0.931 . S
C2055 C2054 1.385 . S
C2055 C2056 1.389 . S
C2056 C2055 1.389 . S
C2056 C2057 1.387 . S
C2057 H2042 0.930 . S
C2057 C2052 1.390 . S
C2057 C2056 1.387 . S
H2058 C2070 0.930 . S
H2059 C2072 0.930 . S
H2060 C2073 0.930 . S
H2061 C2077 0.959 . S
H2062 C2077 0.959 . S
H2063 C2077 0.961 . S
H2064 C2078 0.945 1_565 S
H2065 C2078 0.961 1_565 S
H2066 C2078 0.959 . S
H2067 C2081 0.929 . S
H2068 C2082 0.931 . S
H2069 C2084 0.930 . S
C2070 H2058 0.930 . S
C2070 C2071 1.399 . S
C2070 C2075 1.399 . S
C2071 C2070 1.399 . S
C2071 C2072 1.376 . S
C2072 H2059 0.930 . S
C2072 C2071 1.376 . S
C2072 C2073 1.388 . S
C2073 H2060 0.930 . S
C2073 C2072 1.388 . S
C2073 C2074 1.390 . S
C2074 C2073 1.390 . S
C2074 C2075 1.394 . S
C2074 C2080 1.465 . S
C2075 C2070 1.399 . S
C2075 C2074 1.394 . S
C2075 C2076 1.516 . S
C2076 C2075 1.516 . S
C2076 C2077 1.502 . S
C2076 C2078 1.561 . S
C2076 C2079 1.526 . S
C2077 H2061 0.959 . S
C2077 H2062 0.959 . S
C2077 H2063 0.961 . S
C2077 C2076 1.502 . S
C2078 H2064 0.945 1_545 S
C2078 H2065 0.961 1_545 S
C2078 H2066 0.959 . S
C2078 C2076 1.561 . S
C2079 C2076 1.526 . S
C2079 C2080 1.396 . S
C2079 C2084 1.390 . S
C2080 C2074 1.465 . S
C2080 C2079 1.396 . S
C2080 C2081 1.399 . S
C2081 H2067 0.929 . S
C2081 C2080 1.399 . S
C2081 C2082 1.385 . S
C2082 H2068 0.931 . S
C2082 C2081 1.385 . S
C2082 C2083 1.389 . S
C2083 C2082 1.389 . S
C2083 C2084 1.387 . S
C2084 H2069 0.930 . S
C2084 C2079 1.390 . S
C2084 C2083 1.387 . S
H2085 C2097 0.930 . S
H2086 C2099 0.930 . S
H2087 C2100 0.930 . S
H2088 C2104 0.959 . S
H2089 C2104 0.959 . S
H2090 C2104 0.961 . S
H2091 C2105 0.960 . S
H2092 C2105 0.961 . S
H2093 C2105 0.959 . S
H2094 C2108 0.929 . S
H2095 C2109 0.931 . S
H2096 C2111 0.930 . S
C2097 H2085 0.930 . S
C2097 C2098 1.399 . S
C2097 C2102 1.399 . S
C2098 C2097 1.399 . S
C2098 C2099 1.376 . S
C2099 H2086 0.930 . S
C2099 C2098 1.376 . S
C2099 C2100 1.388 . S
C2100 H2087 0.930 . S
C2100 C2099 1.388 . S
C2100 C2101 1.390 . S
C2101 C2100 1.390 . S
C2101 C2102 1.394 . S
C2101 C2107 1.465 . S
C2102 C2097 1.399 . S
C2102 C2101 1.394 . S
C2102 C2103 1.516 . S
C2103 C2102 1.516 . S
C2103 C2104 1.502 . S
C2103 C2105 1.561 . S
C2103 C2106 1.526 . S
C2104 H2088 0.959 . S
C2104 H2089 0.959 . S
C2104 H2090 0.961 . S
C2104 C2103 1.502 . S
C2105 H2091 0.960 . S
C2105 H2092 0.961 . S
C2105 H2093 0.959 . S
C2105 C2103 1.561 . S
C2106 C2103 1.526 . S
C2106 C2107 1.396 . S
C2106 C2111 1.390 . S
C2107 C2101 1.465 . S
C2107 C2106 1.396 . S
C2107 C2108 1.399 . S
C2108 H2094 0.929 . S
C2108 C2107 1.399 . S
C2108 C2109 1.385 . S
C2109 H2095 0.931 . S
C2109 C2108 1.385 . S
C2109 C2110 1.389 . S
C2110 C2109 1.389 . S
C2110 C2111 1.387 . S
C2111 H2096 0.930 . S
C2111 C2106 1.390 . S
C2111 C2110 1.387 . S
H2112 C2124 0.930 . S
H2113 C2126 0.930 1_556 S
H2114 C2127 0.930 1_545 S
H2115 C2131 0.959 1_556 S
H2116 C2131 0.959 . S
H2117 C2131 0.961 . S
H2118 C2132 0.960 . S
H2119 C2132 0.961 . S
H2120 C2132 0.959 . S
H2121 C2135 0.929 . S
H2122 C2136 0.931 . S
H2123 C2138 0.930 . S
C2124 H2112 0.930 . S
C2124 C2125 1.399 . S
C2124 C2129 1.399 . S
C2125 C2124 1.399 . S
C2125 C2126 1.376 . S
C2126 H2113 0.930 1_554 S
C2126 C2125 1.376 . S
C2126 C2127 1.388 . S
C2127 H2114 0.930 1_565 S
C2127 C2126 1.388 . S
C2127 C2128 1.390 . S
C2128 C2127 1.390 . S
C2128 C2129 1.394 . S
C2128 C2134 1.465 . S
C2129 C2124 1.399 . S
C2129 C2128 1.394 . S
C2129 C2130 1.516 . S
C2130 C2129 1.516 . S
C2130 C2131 1.502 . S
C2130 C2132 1.561 . S
C2130 C2133 1.526 . S
C2131 H2115 0.959 1_554 S
C2131 H2116 0.959 . S
C2131 H2117 0.961 . S
C2131 C2130 1.502 . S
C2132 H2118 0.960 . S
C2132 H2119 0.961 . S
C2132 H2120 0.959 . S
C2132 C2130 1.561 . S
C2133 C2130 1.526 . S
C2133 C2134 1.396 . S
C2133 C2138 1.390 . S
C2134 C2128 1.465 . S
C2134 C2133 1.396 . S
C2134 C2135 1.399 1_565 S
C2135 H2121 0.929 . S
C2135 C2134 1.399 1_545 S
C2135 C2136 1.385 . S
C2136 H2122 0.931 . S
C2136 C2135 1.385 . S
C2136 C2137 1.389 . S
C2137 C2136 1.389 . S
C2137 C2138 1.387 1_545 S
C2138 H2123 0.930 . S
C2138 C2133 1.390 . S
C2138 C2137 1.387 1_565 S
H2139 C2151 0.930 . S
H2140 C2153 0.930 . S
H2141 C2154 0.930 . S
H2142 C2158 0.959 . S
H2143 C2158 0.959 . S
H2144 C2158 0.961 . S
H2145 C2159 0.960 . S
H2146 C2159 0.961 . S
H2147 C2159 0.959 1_554 S
H2148 C2162 0.929 . S
H2149 C2163 0.931 . S
H2150 C2165 0.930 1_556 S
C2151 H2139 0.930 . S
C2151 C2152 1.399 1_556 S
C2151 C2156 1.399 1_556 S
C2152 C2151 1.399 1_554 S
C2152 C2153 1.376 . S
C2153 H2140 0.930 . S
C2153 C2152 1.376 . S
C2153 C2154 1.388 . S
C2154 H2141 0.930 . S
C2154 C2153 1.388 . S
C2154 C2155 1.390 . S
C2155 C2154 1.390 . S
C2155 C2156 1.394 . S
C2155 C2161 1.465 . S
C2156 C2151 1.399 1_554 S
C2156 C2155 1.394 . S
C2156 C2157 1.516 1_554 S
C2157 C2156 1.516 1_556 S
C2157 C2158 1.502 . S
C2157 C2159 1.561 . S
C2157 C2160 1.526 1_556 S
C2158 H2142 0.959 . S
C2158 H2143 0.959 . S
C2158 H2144 0.961 . S
C2158 C2157 1.502 . S
C2159 H2145 0.960 . S
C2159 H2146 0.961 . S
C2159 H2147 0.959 1_556 S
C2159 C2157 1.561 . S
C2160 C2157 1.526 1_554 S
C2160 C2161 1.396 . S
C2160 C2165 1.390 . S
C2161 C2155 1.465 . S
C2161 C2160 1.396 . S
C2161 C2162 1.399 . S
C2162 H2148 0.929 . S
C2162 C2161 1.399 . S
C2162 C2163 1.385 . S
C2163 H2149 0.931 . S
C2163 C2162 1.385 . S
C2163 C2164 1.389 . S
C2164 C2163 1.389 . S
C2164 C2165 1.387 . S
C2165 H2150 0.930 1_554 S
C2165 C2160 1.390 . S
C2165 C2164 1.387 . S
H2166 C2178 0.930 . S
H2167 C2180 0.930 . S
H2168 C2181 0.930 . S
H2169 C2185 0.959 . S
H2170 C2185 0.959 . S
H2171 C2185 0.961 . S
H2172 C2186 0.960 . S
H2173 C2186 0.961 . S
H2174 C2186 0.959 . S
H2175 C2189 0.929 . S
H2176 C2190 0.931 . S
H2177 C2192 0.930 . S
C2178 H2166 0.930 . S
C2178 C2179 1.399 . S
C2178 C2183 1.399 . S
C2179 C2178 1.399 . S
C2179 C2180 1.376 . S
C2180 H2167 0.930 . S
C2180 C2179 1.376 . S
C2180 C2181 1.388 . S
C2181 H2168 0.930 . S
C2181 C2180 1.388 . S
C2181 C2182 1.390 . S
C2182 C2181 1.390 . S
C2182 C2183 1.394 . S
C2182 C2188 1.465 . S
C2183 C2178 1.399 . S
C2183 C2182 1.394 . S
C2183 C2184 1.516 . S
C2184 C2183 1.516 . S
C2184 C2185 1.502 . S
C2184 C2186 1.561 . S
C2184 C2187 1.526 . S
C2185 H2169 0.959 . S
C2185 H2170 0.959 . S
C2185 H2171 0.961 . S
C2185 C2184 1.502 . S
C2186 H2172 0.960 . S
C2186 H2173 0.961 . S
C2186 H2174 0.959 . S
C2186 C2184 1.561 . S
C2187 C2184 1.526 . S
C2187 C2188 1.396 . S
C2187 C2192 1.390 . S
C2188 C2182 1.465 . S
C2188 C2187 1.396 . S
C2188 C2189 1.399 . S
C2189 H2175 0.929 . S
C2189 C2188 1.399 . S
C2189 C2190 1.385 . S
C2190 H2176 0.931 . S
C2190 C2189 1.385 . S
C2190 C2191 1.389 . S
C2191 C2190 1.389 . S
C2191 C2192 1.387 . S
C2192 H2177 0.930 . S
C2192 C2187 1.390 . S
C2192 C2191 1.387 . S
H2193 C2205 0.930 . S
H2194 C2207 0.930 . S
H2195 C2208 0.930 . S
H2196 C2212 0.959 . S
H2197 C2212 0.959 . S
H2198 C2212 0.961 . S
H2199 C2213 0.960 . S
H2200 C2213 0.961 . S
H2201 C2213 0.959 . S
H2202 C2216 0.929 . S
H2203 C2217 0.931 . S
H2204 C2219 0.930 . S
C2205 H2193 0.930 . S
C2205 C2206 1.399 . S
C2205 C2210 1.399 . S
C2206 C2205 1.399 . S
C2206 C2207 1.376 . S
C2207 H2194 0.930 . S
C2207 C2206 1.376 . S
C2207 C2208 1.388 . S
C2208 H2195 0.930 . S
C2208 C2207 1.388 . S
C2208 C2209 1.390 . S
C2209 C2208 1.390 . S
C2209 C2210 1.394 . S
C2209 C2215 1.465 . S
C2210 C2205 1.399 . S
C2210 C2209 1.394 . S
C2210 C2211 1.516 . S
C2211 C2210 1.516 . S
C2211 C2212 1.502 . S
C2211 C2213 1.561 . S
C2211 C2214 1.526 . S
C2212 H2196 0.959 . S
C2212 H2197 0.959 . S
C2212 H2198 0.961 . S
C2212 C2211 1.502 . S
C2213 H2199 0.960 . S
C2213 H2200 0.961 . S
C2213 H2201 0.959 . S
C2213 C2211 1.561 . S
C2214 C2211 1.526 . S
C2214 C2215 1.396 . S
C2214 C2219 1.390 . S
C2215 C2209 1.465 . S
C2215 C2214 1.396 . S
C2215 C2216 1.399 . S
C2216 H2202 0.929 . S
C2216 C2215 1.399 . S
C2216 C2217 1.385 . S
C2217 H2203 0.931 . S
C2217 C2216 1.385 . S
C2217 C2218 1.389 . S
C2218 C2217 1.389 . S
C2218 C2219 1.387 . S
C2219 H2204 0.930 . S
C2219 C2214 1.390 . S
C2219 C2218 1.387 . S
H2220 C2232 0.930 . S
H2221 C2234 0.930 . S
H2222 C2235 0.930 . S
H2223 C2239 0.959 . S
H2224 C2239 0.959 . S
H2225 C2239 0.961 . S
H2226 C2240 0.960 . S
H2227 C2240 0.961 . S
H2228 C2240 0.959 . S
H2229 C2243 0.929 . S
H2230 C2244 0.931 . S
H2231 C2246 0.930 . S
C2232 H2220 0.930 . S
C2232 C2233 1.399 . S
C2232 C2237 1.399 . S
C2233 C2232 1.399 . S
C2233 C2234 1.376 . S
C2234 H2221 0.930 . S
C2234 C2233 1.376 . S
C2234 C2235 1.388 . S
C2235 H2222 0.930 . S
C2235 C2234 1.388 . S
C2235 C2236 1.390 . S
C2236 C2235 1.390 . S
C2236 C2237 1.394 . S
C2236 C2242 1.465 . S
C2237 C2232 1.399 . S
C2237 C2236 1.394 . S
C2237 C2238 1.516 . S
C2238 C2237 1.516 . S
C2238 C2239 1.502 . S
C2238 C2240 1.561 . S
C2238 C2241 1.526 . S
C2239 H2223 0.959 . S
C2239 H2224 0.959 . S
C2239 H2225 0.961 . S
C2239 C2238 1.502 . S
C2240 H2226 0.960 . S
C2240 H2227 0.961 . S
C2240 H2228 0.959 . S
C2240 C2238 1.561 . S
C2241 C2238 1.526 . S
C2241 C2242 1.396 . S
C2241 C2246 1.390 . S
C2242 C2236 1.465 . S
C2242 C2241 1.396 . S
C2242 C2243 1.399 . S
C2243 H2229 0.929 . S
C2243 C2242 1.399 . S
C2243 C2244 1.385 . S
C2244 H2230 0.931 . S
C2244 C2243 1.385 . S
C2244 C2245 1.389 . S
C2245 C2244 1.389 . S
C2245 C2246 1.387 . S
C2246 H2231 0.930 . S
C2246 C2241 1.390 . S
C2246 C2245 1.387 . S
H2247 C2259 0.930 . S
H2248 C2261 0.930 . S
H2249 C2262 0.930 . S
H2250 C2266 0.959 . S
H2251 C2266 0.959 . S
H2252 C2266 0.961 . S
H2253 C2267 0.960 . S
H2254 C2267 0.961 . S
H2255 C2267 0.959 . S
H2256 C2270 0.929 . S
H2257 C2271 0.931 . S
H2258 C2273 0.930 . S
C2259 H2247 0.930 . S
C2259 C2260 1.399 . S
C2259 C2264 1.399 . S
C2260 C2259 1.399 . S
C2260 C2261 1.376 . S
C2261 H2248 0.930 . S
C2261 C2260 1.376 . S
C2261 C2262 1.388 . S
C2262 H2249 0.930 . S
C2262 C2261 1.388 . S
C2262 C2263 1.390 . S
C2263 C2262 1.390 . S
C2263 C2264 1.394 . S
C2263 C2269 1.465 . S
C2264 C2259 1.399 . S
C2264 C2263 1.394 . S
C2264 C2265 1.516 . S
C2265 C2264 1.516 . S
C2265 C2266 1.502 . S
C2265 C2267 1.561 . S
C2265 C2268 1.526 . S
C2266 H2250 0.959 . S
C2266 H2251 0.959 . S
C2266 H2252 0.961 . S
C2266 C2265 1.502 . S
C2267 H2253 0.960 . S
C2267 H2254 0.961 . S
C2267 H2255 0.959 . S
C2267 C2265 1.561 . S
C2268 C2265 1.526 . S
C2268 C2269 1.396 . S
C2268 C2273 1.390 . S
C2269 C2263 1.465 . S
C2269 C2268 1.396 . S
C2269 C2270 1.399 . S
C2270 H2256 0.929 . S
C2270 C2269 1.399 . S
C2270 C2271 1.385 . S
C2271 H2257 0.931 . S
C2271 C2270 1.385 . S
C2271 C2272 1.389 . S
C2272 C2271 1.389 . S
C2272 C2273 1.387 . S
C2273 H2258 0.930 . S
C2273 C2268 1.390 . S
C2273 C2272 1.387 . S
H2274 C2286 0.930 . S
H2275 C2288 0.930 . S
H2276 C2289 0.930 . S
H2277 C2293 0.959 . S
H2278 C2293 0.959 . S
H2279 C2293 0.961 . S
H2280 C2294 0.960 . S
H2281 C2294 0.961 . S
H2282 C2294 0.959 . S
H2283 C2297 0.929 . S
H2284 C2298 0.931 . S
H2285 C2300 0.930 . S
C2286 H2274 0.930 . S
C2286 C2287 1.399 . S
C2286 C2291 1.399 . S
C2287 C2286 1.399 . S
C2287 C2288 1.376 . S
C2288 H2275 0.930 . S
C2288 C2287 1.376 . S
C2288 C2289 1.388 . S
C2289 H2276 0.930 . S
C2289 C2288 1.388 . S
C2289 C2290 1.390 . S
C2290 C2289 1.390 . S
C2290 C2291 1.394 . S
C2290 C2296 1.465 . S
C2291 C2286 1.399 . S
C2291 C2290 1.394 . S
C2291 C2292 1.516 . S
C2292 C2291 1.516 . S
C2292 C2293 1.502 . S
C2292 C2294 1.561 . S
C2292 C2295 1.526 . S
C2293 H2277 0.959 . S
C2293 H2278 0.959 . S
C2293 H2279 0.961 . S
C2293 C2292 1.502 . S
C2294 H2280 0.960 . S
C2294 H2281 0.961 . S
C2294 H2282 0.959 . S
C2294 C2292 1.561 . S
C2295 C2292 1.526 . S
C2295 C2296 1.396 . S
C2295 C2300 1.390 . S
C2296 C2290 1.465 . S
C2296 C2295 1.396 . S
C2296 C2297 1.399 . S
C2297 H2283 0.929 . S
C2297 C2296 1.399 . S
C2297 C2298 1.385 . S
C2298 H2284 0.931 . S
C2298 C2297 1.385 . S
C2298 C2299 1.389 . S
C2299 C2298 1.389 . S
C2299 C2300 1.387 . S
C2300 H2285 0.930 . S
C2300 C2295 1.390 . S
C2300 C2299 1.387 . S
H2301 C2313 0.930 . S
H2302 C2315 0.930 . S
H2303 C2316 0.930 . S
H2304 C2320 0.959 . S
H2305 C2320 0.959 . S
H2306 C2320 0.961 . S
H2307 C2321 0.960 . S
H2308 C2321 0.961 . S
H2309 C2321 0.959 . S
H2310 C2324 0.929 . S
H2311 C2325 0.931 . S
H2312 C2327 0.930 . S
C2313 H2301 0.930 . S
C2313 C2314 1.399 . S
C2313 C2318 1.399 . S
C2314 C2313 1.399 . S
C2314 C2315 1.376 . S
C2315 H2302 0.930 . S
C2315 C2314 1.376 . S
C2315 C2316 1.388 . S
C2316 H2303 0.930 . S
C2316 C2315 1.388 . S
C2316 C2317 1.390 . S
C2317 C2316 1.390 . S
C2317 C2318 1.394 . S
C2317 C2323 1.465 . S
C2318 C2313 1.399 . S
C2318 C2317 1.394 . S
C2318 C2319 1.516 . S
C2319 C2318 1.516 . S
C2319 C2320 1.502 . S
C2319 C2321 1.561 . S
C2319 C2322 1.526 . S
C2320 H2304 0.959 . S
C2320 H2305 0.959 . S
C2320 H2306 0.961 . S
C2320 C2319 1.502 . S
C2321 H2307 0.960 . S
C2321 H2308 0.961 . S
C2321 H2309 0.959 . S
C2321 C2319 1.561 . S
C2322 C2319 1.526 . S
C2322 C2323 1.396 . S
C2322 C2327 1.390 . S
C2323 C2317 1.465 . S
C2323 C2322 1.396 . S
C2323 C2324 1.399 . S
C2324 H2310 0.929 . S
C2324 C2323 1.399 . S
C2324 C2325 1.385 . S
C2325 H2311 0.931 . S
C2325 C2324 1.385 . S
C2325 C2326 1.389 . S
C2326 C2325 1.389 . S
C2326 C2327 1.387 . S
C2327 H2312 0.930 . S
C2327 C2322 1.390 . S
C2327 C2326 1.387 . S
H2328 C2340 0.930 . S
H2329 C2342 0.930 . S
H2330 C2343 0.930 . S
H2331 C2347 0.959 . S
H2332 C2347 0.959 . S
H2333 C2347 0.961 . S
H2334 C2348 0.960 . S
H2335 C2348 0.961 . S
H2336 C2348 0.959 . S
H2337 C2351 0.929 . S
H2338 C2352 0.931 . S
H2339 C2354 0.930 . S
C2340 H2328 0.930 . S
C2340 C2341 1.399 . S
C2340 C2345 1.399 . S
C2341 C2340 1.399 . S
C2341 C2342 1.376 . S
C2342 H2329 0.930 . S
C2342 C2341 1.376 . S
C2342 C2343 1.388 . S
C2343 H2330 0.930 . S
C2343 C2342 1.388 . S
C2343 C2344 1.390 . S
C2344 C2343 1.390 . S
C2344 C2345 1.394 . S
C2344 C2350 1.465 . S
C2345 C2340 1.399 . S
C2345 C2344 1.394 . S
C2345 C2346 1.516 . S
C2346 C2345 1.516 . S
C2346 C2347 1.502 . S
C2346 C2348 1.561 . S
C2346 C2349 1.526 . S
C2347 H2331 0.959 . S
C2347 H2332 0.959 . S
C2347 H2333 0.961 . S
C2347 C2346 1.502 . S
C2348 H2334 0.960 . S
C2348 H2335 0.961 . S
C2348 H2336 0.959 . S
C2348 C2346 1.561 . S
C2349 C2346 1.526 . S
C2349 C2350 1.396 . S
C2349 C2354 1.390 . S
C2350 C2344 1.465 . S
C2350 C2349 1.396 . S
C2350 C2351 1.399 . S
C2351 H2337 0.929 . S
C2351 C2350 1.399 . S
C2351 C2352 1.385 . S
C2352 H2338 0.931 . S
C2352 C2351 1.385 . S
C2352 C2353 1.389 . S
C2353 C2352 1.389 . S
C2353 C2354 1.387 . S
C2354 H2339 0.930 . S
C2354 C2349 1.390 . S
C2354 C2353 1.387 . S
H2355 C2367 0.930 . S
H2356 C2369 0.930 . S
H2357 C2370 0.930 . S
H2358 C2374 0.959 . S
H2359 C2374 0.959 . S
H2360 C2374 0.961 . S
H2361 C2375 0.960 . S
H2362 C2375 0.961 . S
H2363 C2375 0.959 . S
H2364 C2378 0.929 . S
H2365 C2379 0.931 . S
H2366 C2381 0.930 . S
C2367 H2355 0.930 . S
C2367 C2368 1.399 . S
C2367 C2372 1.399 . S
C2368 C2367 1.399 . S
C2368 C2369 1.376 . S
C2369 H2356 0.930 . S
C2369 C2368 1.376 . S
C2369 C2370 1.388 . S
C2370 H2357 0.930 . S
C2370 C2369 1.388 . S
C2370 C2371 1.390 . S
C2371 C2370 1.390 . S
C2371 C2372 1.394 . S
C2371 C2377 1.465 . S
C2372 C2367 1.399 . S
C2372 C2371 1.394 . S
C2372 C2373 1.516 . S
C2373 C2372 1.516 . S
C2373 C2374 1.502 . S
C2373 C2375 1.561 . S
C2373 C2376 1.526 . S
C2374 H2358 0.959 . S
C2374 H2359 0.959 . S
C2374 H2360 0.961 . S
C2374 C2373 1.502 . S
C2375 H2361 0.960 . S
C2375 H2362 0.961 . S
C2375 H2363 0.959 . S
C2375 C2373 1.561 . S
C2376 C2373 1.526 . S
C2376 C2377 1.396 . S
C2376 C2381 1.390 . S
C2377 C2371 1.465 . S
C2377 C2376 1.396 . S
C2377 C2378 1.399 . S
C2378 H2364 0.929 . S
C2378 C2377 1.399 . S
C2378 C2379 1.385 . S
C2379 H2365 0.931 . S
C2379 C2378 1.385 . S
C2379 C2380 1.389 . S
C2380 C2379 1.389 . S
C2380 C2381 1.387 . S
C2381 H2366 0.930 . S
C2381 C2376 1.390 . S
C2381 C2380 1.387 . S
H2382 C2394 0.930 . S
H2383 C2396 0.930 . S
H2384 C2397 0.930 . S
H2385 C2401 0.959 . S
H2386 C2401 0.959 . S
H2387 C2401 0.961 . S
H2388 C2402 0.960 . S
H2389 C2402 0.961 . S
H2390 C2402 0.959 . S
H2391 C2405 0.929 . S
H2392 C2406 0.931 . S
H2393 C2408 0.930 . S
C2394 H2382 0.930 . S
C2394 C2395 1.399 . S
C2394 C2399 1.399 . S
C2395 C2394 1.399 . S
C2395 C2396 1.376 . S
C2396 H2383 0.930 . S
C2396 C2395 1.376 . S
C2396 C2397 1.388 . S
C2397 H2384 0.930 . S
C2397 C2396 1.388 . S
C2397 C2398 1.390 . S
C2398 C2397 1.390 . S
C2398 C2399 1.394 . S
C2398 C2404 1.465 . S
C2399 C2394 1.399 . S
C2399 C2398 1.394 . S
C2399 C2400 1.516 . S
C2400 C2399 1.516 . S
C2400 C2401 1.502 . S
C2400 C2402 1.561 . S
C2400 C2403 1.526 . S
C2401 H2385 0.959 . S
C2401 H2386 0.959 . S
C2401 H2387 0.961 . S
C2401 C2400 1.502 . S
C2402 H2388 0.960 . S
C2402 H2389 0.961 . S
C2402 H2390 0.959 . S
C2402 C2400 1.561 . S
C2403 C2400 1.526 . S
C2403 C2404 1.396 . S
C2403 C2408 1.390 . S
C2404 C2398 1.465 . S
C2404 C2403 1.396 . S
C2404 C2405 1.399 . S
C2405 H2391 0.929 . S
C2405 C2404 1.399 . S
C2405 C2406 1.385 . S
C2406 H2392 0.931 . S
C2406 C2405 1.385 . S
C2406 C2407 1.389 . S
C2407 C2406 1.389 . S
C2407 C2408 1.387 . S
C2408 H2393 0.930 . S
C2408 C2403 1.390 . S
C2408 C2407 1.387 . S
H2409 C2421 0.930 . S
H2410 C2423 0.930 . S
H2411 C2424 0.930 . S
H2412 C2428 0.959 . S
H2413 C2428 0.959 . S
H2414 C2428 0.961 . S
H2415 C2429 0.960 . S
H2416 C2429 0.961 . S
H2417 C2429 0.959 . S
H2418 C2432 0.929 . S
H2419 C2433 0.931 . S
H2420 C2435 0.930 . S
C2421 H2409 0.930 . S
C2421 C2422 1.399 . S
C2421 C2426 1.399 . S
C2422 C2421 1.399 . S
C2422 C2423 1.376 . S
C2423 H2410 0.930 . S
C2423 C2422 1.376 . S
C2423 C2424 1.388 . S
C2424 H2411 0.930 . S
C2424 C2423 1.388 . S
C2424 C2425 1.390 . S
C2425 C2424 1.390 . S
C2425 C2426 1.394 . S
C2425 C2431 1.465 . S
C2426 C2421 1.399 . S
C2426 C2425 1.394 . S
C2426 C2427 1.516 . S
C2427 C2426 1.516 . S
C2427 C2428 1.502 . S
C2427 C2429 1.561 . S
C2427 C2430 1.526 . S
C2428 H2412 0.959 . S
C2428 H2413 0.959 . S
C2428 H2414 0.961 . S
C2428 C2427 1.502 . S
C2429 H2415 0.960 . S
C2429 H2416 0.961 . S
C2429 H2417 0.959 . S
C2429 C2427 1.561 . S
C2430 C2427 1.526 . S
C2430 C2431 1.396 . S
C2430 C2435 1.390 . S
C2431 C2425 1.465 . S
C2431 C2430 1.396 . S
C2431 C2432 1.399 . S
C2432 H2418 0.929 . S
C2432 C2431 1.399 . S
C2432 C2433 1.385 . S
C2433 H2419 0.931 . S
C2433 C2432 1.385 . S
C2433 C2434 1.389 . S
C2434 C2433 1.389 . S
C2434 C2435 1.387 . S
C2435 H2420 0.930 . S
C2435 C2430 1.390 . S
C2435 C2434 1.387 . S
H2436 C2448 0.930 . S
H2437 C2450 0.930 . S
H2438 C2451 0.930 . S
H2439 C2455 0.959 . S
H2440 C2455 0.959 . S
H2441 C2455 0.961 . S
H2442 C2456 0.960 . S
H2443 C2456 0.961 . S
H2444 C2456 0.959 . S
H2445 C2459 0.929 . S
H2446 C2460 0.931 . S
H2447 C2462 0.930 . S
C2448 H2436 0.930 . S
C2448 C2449 1.399 . S
C2448 C2453 1.399 . S
C2449 C2448 1.399 . S
C2449 C2450 1.376 . S
C2450 H2437 0.930 . S
C2450 C2449 1.376 . S
C2450 C2451 1.388 . S
C2451 H2438 0.930 . S
C2451 C2450 1.388 . S
C2451 C2452 1.390 . S
C2452 C2451 1.390 . S
C2452 C2453 1.394 . S
C2452 C2458 1.465 . S
C2453 C2448 1.399 . S
C2453 C2452 1.394 . S
C2453 C2454 1.516 . S
C2454 C2453 1.516 . S
C2454 C2455 1.502 . S
C2454 C2456 1.561 . S
C2454 C2457 1.526 . S
C2455 H2439 0.959 . S
C2455 H2440 0.959 . S
C2455 H2441 0.961 . S
C2455 C2454 1.502 . S
C2456 H2442 0.960 . S
C2456 H2443 0.961 . S
C2456 H2444 0.959 . S
C2456 C2454 1.561 . S
C2457 C2454 1.526 . S
C2457 C2458 1.396 . S
C2457 C2462 1.390 . S
C2458 C2452 1.465 . S
C2458 C2457 1.396 . S
C2458 C2459 1.399 . S
C2459 H2445 0.929 . S
C2459 C2458 1.399 . S
C2459 C2460 1.385 . S
C2460 H2446 0.931 . S
C2460 C2459 1.385 . S
C2460 C2461 1.389 . S
C2461 C2460 1.389 . S
C2461 C2462 1.387 . S
C2462 H2447 0.930 . S
C2462 C2457 1.390 . S
C2462 C2461 1.387 . S
H2463 C2475 0.930 . S
H2464 C2477 0.930 . S
H2465 C2478 0.930 . S
H2466 C2482 0.959 . S
H2467 C2482 0.959 . S
H2468 C2482 0.961 . S
H2469 C2483 0.960 . S
H2470 C2483 0.961 . S
H2471 C2483 0.959 . S
H2472 C2486 0.929 . S
H2473 C2487 0.931 . S
H2474 C2489 0.930 . S
C2475 H2463 0.930 . S
C2475 C2476 1.399 . S
C2475 C2480 1.399 . S
C2476 C2475 1.399 . S
C2476 C2477 1.376 . S
C2477 H2464 0.930 . S
C2477 C2476 1.376 . S
C2477 C2478 1.388 . S
C2478 H2465 0.930 . S
C2478 C2477 1.388 . S
C2478 C2479 1.390 . S
C2479 C2478 1.390 . S
C2479 C2480 1.394 . S
C2479 C2485 1.465 . S
C2480 C2475 1.399 . S
C2480 C2479 1.394 . S
C2480 C2481 1.516 . S
C2481 C2480 1.516 . S
C2481 C2482 1.502 . S
C2481 C2483 1.561 . S
C2481 C2484 1.526 . S
C2482 H2466 0.959 . S
C2482 H2467 0.959 . S
C2482 H2468 0.961 . S
C2482 C2481 1.502 . S
C2483 H2469 0.960 . S
C2483 H2470 0.961 . S
C2483 H2471 0.959 . S
C2483 C2481 1.561 . S
C2484 C2481 1.526 . S
C2484 C2485 1.396 . S
C2484 C2489 1.390 . S
C2485 C2479 1.465 . S
C2485 C2484 1.396 . S
C2485 C2486 1.399 . S
C2486 H2472 0.929 . S
C2486 C2485 1.399 . S
C2486 C2487 1.385 . S
C2487 H2473 0.931 . S
C2487 C2486 1.385 . S
C2487 C2488 1.389 . S
C2488 C2487 1.389 . S
C2488 C2489 1.387 . S
C2489 H2474 0.930 . S
C2489 C2484 1.390 . S
C2489 C2488 1.387 . S
H2490 C2502 0.930 . S
H2491 C2504 0.930 . S
H2492 C2505 0.930 . S
H2493 C2509 0.959 . S
H2494 C2509 0.959 . S
H2495 C2509 0.961 . S
H2496 C2510 0.960 . S
H2497 C2510 0.961 . S
H2498 C2510 0.959 . S
H2499 C2513 0.929 . S
H2500 C2514 0.931 1_554 S
H2501 C2516 0.930 . S
C2502 H2490 0.930 . S
C2502 C2503 1.399 . S
C2502 C2507 1.399 . S
C2503 C2502 1.399 . S
C2503 C2504 1.376 . S
C2504 H2491 0.930 . S
C2504 C2503 1.376 . S
C2504 C2505 1.388 . S
C2505 H2492 0.930 . S
C2505 C2504 1.388 . S
C2505 C2506 1.390 . S
C2506 C2505 1.390 . S
C2506 C2507 1.394 . S
C2506 C2512 1.465 . S
C2507 C2502 1.399 . S
C2507 C2506 1.394 . S
C2507 C2508 1.516 . S
C2508 C2507 1.516 . S
C2508 C2509 1.502 . S
C2508 C2510 1.561 . S
C2508 C2511 1.526 . S
C2509 H2493 0.959 . S
C2509 H2494 0.959 . S
C2509 H2495 0.961 . S
C2509 C2508 1.502 . S
C2510 H2496 0.960 . S
C2510 H2497 0.961 . S
C2510 H2498 0.959 . S
C2510 C2508 1.561 . S
C2511 C2508 1.526 . S
C2511 C2512 1.396 . S
C2511 C2516 1.390 . S
C2512 C2506 1.465 . S
C2512 C2511 1.396 . S
C2512 C2513 1.399 . S
C2513 H2499 0.929 . S
C2513 C2512 1.399 . S
C2513 C2514 1.385 . S
C2514 H2500 0.931 1_556 S
C2514 C2513 1.385 . S
C2514 C2515 1.389 . S
C2515 C2514 1.389 . S
C2515 C2516 1.387 . S
C2516 H2501 0.930 . S
C2516 C2511 1.390 . S
C2516 C2515 1.387 . S
H2517 C2529 0.930 . S
H2518 C2531 0.930 . S
H2519 C2532 0.930 . S
H2520 C2536 0.959 . S
H2521 C2536 0.959 . S
H2522 C2536 0.961 . S
H2523 C2537 0.960 . S
H2524 C2537 0.961 . S
H2525 C2537 0.959 . S
H2526 C2540 0.929 . S
H2527 C2541 0.931 . S
H2528 C2543 0.930 . S
C2529 H2517 0.930 . S
C2529 C2530 1.399 . S
C2529 C2534 1.399 . S
C2530 C2529 1.399 . S
C2530 C2531 1.376 . S
C2531 H2518 0.930 . S
C2531 C2530 1.376 . S
C2531 C2532 1.388 . S
C2532 H2519 0.930 . S
C2532 C2531 1.388 . S
C2532 C2533 1.390 . S
C2533 C2532 1.390 . S
C2533 C2534 1.394 . S
C2533 C2539 1.465 . S
C2534 C2529 1.399 . S
C2534 C2533 1.394 . S
C2534 C2535 1.516 . S
C2535 C2534 1.516 . S
C2535 C2536 1.502 . S
C2535 C2537 1.561 . S
C2535 C2538 1.526 . S
C2536 H2520 0.959 . S
C2536 H2521 0.959 . S
C2536 H2522 0.961 . S
C2536 C2535 1.502 . S
C2537 H2523 0.960 . S
C2537 H2524 0.961 . S
C2537 H2525 0.959 . S
C2537 C2535 1.561 . S
C2538 C2535 1.526 . S
C2538 C2539 1.396 . S
C2538 C2543 1.390 . S
C2539 C2533 1.465 . S
C2539 C2538 1.396 . S
C2539 C2540 1.399 . S
C2540 H2526 0.929 . S
C2540 C2539 1.399 . S
C2540 C2541 1.385 . S
C2541 H2527 0.931 . S
C2541 C2540 1.385 . S
C2541 C2542 1.389 . S
C2542 C2541 1.389 . S
C2542 C2543 1.387 . S
C2543 H2528 0.930 . S
C2543 C2538 1.390 . S
C2543 C2542 1.387 . S
H2544 C2556 0.930 . S
H2545 C2558 0.930 . S
H2546 C2559 0.930 . S
H2547 C2563 0.959 1_545 S
H2548 C2563 0.959 . S
H2549 C2563 0.961 . S
H2550 C2564 0.960 . S
H2551 C2564 0.961 . S
H2552 C2564 0.959 1_545 S
H2553 C2567 0.929 . S
H2554 C2568 0.931 . S
H2555 C2570 0.930 1_565 S
C2556 H2544 0.930 . S
C2556 C2557 1.399 . S
C2556 C2561 1.399 . S
C2557 C2556 1.399 . S
C2557 C2558 1.376 . S
C2558 H2545 0.930 . S
C2558 C2557 1.376 . S
C2558 C2559 1.388 . S
C2559 H2546 0.930 . S
C2559 C2558 1.388 . S
C2559 C2560 1.390 . S
C2560 C2559 1.390 . S
C2560 C2561 1.394 . S
C2560 C2566 1.465 . S
C2561 C2556 1.399 . S
C2561 C2560 1.394 . S
C2561 C2562 1.516 . S
C2562 C2561 1.516 . S
C2562 C2563 1.502 1_545 S
C2562 C2564 1.561 1_545 S
C2562 C2565 1.526 . S
C2563 H2547 0.959 1_565 S
C2563 H2548 0.959 . S
C2563 H2549 0.961 . S
C2563 C2562 1.502 1_565 S
C2564 H2550 0.960 . S
C2564 H2551 0.961 . S
C2564 H2552 0.959 1_565 S
C2564 C2562 1.561 1_565 S
C2565 C2562 1.526 . S
C2565 C2566 1.396 . S
C2565 C2570 1.390 . S
C2566 C2560 1.465 . S
C2566 C2565 1.396 . S
C2566 C2567 1.399 . S
C2567 H2553 0.929 . S
C2567 C2566 1.399 . S
C2567 C2568 1.385 . S
C2568 H2554 0.931 . S
C2568 C2567 1.385 . S
C2568 C2569 1.389 . S
C2569 C2568 1.389 . S
C2569 C2570 1.387 . S
C2570 H2555 0.930 1_545 S
C2570 C2565 1.390 . S
C2570 C2569 1.387 . S
H2571 C2583 0.930 . S
H2572 C2585 0.930 . S
H2573 C2586 0.930 . S
H2574 C2590 0.959 . S
H2575 C2590 0.959 . S
H2576 C2590 0.961 . S
H2577 C2591 0.960 . S
H2578 C2591 0.961 . S
H2579 C2591 0.959 . S
H2580 C2594 0.929 . S
H2581 C2595 0.931 . S
H2582 C2597 0.930 . S
C2583 H2571 0.930 . S
C2583 C2584 1.399 . S
C2583 C2588 1.399 . S
C2584 C2583 1.399 . S
C2584 C2585 1.376 . S
C2585 H2572 0.930 . S
C2585 C2584 1.376 . S
C2585 C2586 1.388 . S
C2586 H2573 0.930 . S
C2586 C2585 1.388 . S
C2586 C2587 1.390 . S
C2587 C2586 1.390 . S
C2587 C2588 1.394 . S
C2587 C2593 1.465 . S
C2588 C2583 1.399 . S
C2588 C2587 1.394 . S
C2588 C2589 1.516 . S
C2589 C2588 1.516 . S
C2589 C2590 1.502 . S
C2589 C2591 1.561 . S
C2589 C2592 1.526 . S
C2590 H2574 0.959 . S
C2590 H2575 0.959 . S
C2590 H2576 0.961 . S
C2590 C2589 1.502 . S
C2591 H2577 0.960 . S
C2591 H2578 0.961 . S
C2591 H2579 0.959 . S
C2591 C2589 1.561 . S
C2592 C2589 1.526 . S
C2592 C2593 1.396 . S
C2592 C2597 1.390 . S
C2593 C2587 1.465 . S
C2593 C2592 1.396 . S
C2593 C2594 1.399 . S
C2594 H2580 0.929 . S
C2594 C2593 1.399 . S
C2594 C2595 1.385 . S
C2595 H2581 0.931 . S
C2595 C2594 1.385 . S
C2595 C2596 1.389 . S
C2596 C2595 1.389 . S
C2596 C2597 1.387 . S
C2597 H2582 0.930 . S
C2597 C2592 1.390 . S
C2597 C2596 1.387 . S
H2598 C2610 0.930 . S
H2599 C2612 0.930 . S
H2600 C2613 0.930 . S
H2601 C2617 0.959 . S
H2602 C2617 0.959 . S
H2603 C2617 0.961 . S
H2604 C2618 0.960 . S
H2605 C2618 0.961 . S
H2606 C2618 0.959 . S
H2607 C2621 0.929 . S
H2608 C2622 0.931 . S
H2609 C2624 0.930 1_565 S
C2610 H2598 0.930 . S
C2610 C2611 1.399 1_565 S
C2610 C2615 1.399 1_565 S
C2611 C2610 1.399 1_545 S
C2611 C2612 1.376 . S
C2612 H2599 0.930 . S
C2612 C2611 1.376 . S
C2612 C2613 1.388 . S
C2613 H2600 0.930 . S
C2613 C2612 1.388 . S
C2613 C2614 1.390 . S
C2614 C2613 1.390 . S
C2614 C2615 1.394 . S
C2614 C2620 1.465 . S
C2615 C2610 1.399 1_545 S
C2615 C2614 1.394 . S
C2615 C2616 1.516 1_545 S
C2616 C2615 1.516 1_565 S
C2616 C2617 1.502 . S
C2616 C2618 1.561 . S
C2616 C2619 1.526 1_565 S
C2617 H2601 0.959 . S
C2617 H2602 0.959 . S
C2617 H2603 0.961 . S
C2617 C2616 1.502 . S
C2618 H2604 0.960 . S
C2618 H2605 0.961 . S
C2618 H2606 0.959 . S
C2618 C2616 1.561 . S
C2619 C2616 1.526 1_545 S
C2619 C2620 1.396 . S
C2619 C2624 1.390 . S
C2620 C2614 1.465 . S
C2620 C2619 1.396 . S
C2620 C2621 1.399 . S
C2621 H2607 0.929 . S
C2621 C2620 1.399 . S
C2621 C2622 1.385 . S
C2622 H2608 0.931 . S
C2622 C2621 1.385 . S
C2622 C2623 1.389 . S
C2623 C2622 1.389 . S
C2623 C2624 1.387 . S
C2624 H2609 0.930 1_545 S
C2624 C2619 1.390 . S
C2624 C2623 1.387 . S
H2625 C2637 0.930 . S
H2626 C2639 0.930 . S
H2627 C2640 0.930 . S
H2628 C2644 0.959 . S
H2629 C2644 0.959 . S
H2630 C2644 0.961 . S
H2631 C2645 0.960 . S
H2632 C2645 0.961 . S
H2633 C2645 0.959 . S
H2634 C2648 0.929 . S
H2635 C2649 0.931 . S
H2636 C2651 0.930 . S
C2637 H2625 0.930 . S
C2637 C2638 1.399 . S
C2637 C2642 1.399 . S
C2638 C2637 1.399 . S
C2638 C2639 1.376 . S
C2639 H2626 0.930 . S
C2639 C2638 1.376 . S
C2639 C2640 1.388 . S
C2640 H2627 0.930 . S
C2640 C2639 1.388 . S
C2640 C2641 1.390 . S
C2641 C2640 1.390 . S
C2641 C2642 1.394 . S
C2641 C2647 1.465 . S
C2642 C2637 1.399 . S
C2642 C2641 1.394 . S
C2642 C2643 1.516 . S
C2643 C2642 1.516 . S
C2643 C2644 1.502 . S
C2643 C2645 1.561 . S
C2643 C2646 1.526 . S
C2644 H2628 0.959 . S
C2644 H2629 0.959 . S
C2644 H2630 0.961 . S
C2644 C2643 1.502 . S
C2645 H2631 0.960 . S
C2645 H2632 0.961 . S
C2645 H2633 0.959 . S
C2645 C2643 1.561 . S
C2646 C2643 1.526 . S
C2646 C2647 1.396 . S
C2646 C2651 1.390 . S
C2647 C2641 1.465 . S
C2647 C2646 1.396 . S
C2647 C2648 1.399 . S
C2648 H2634 0.929 . S
C2648 C2647 1.399 . S
C2648 C2649 1.385 . S
C2649 H2635 0.931 . S
C2649 C2648 1.385 . S
C2649 C2650 1.389 . S
C2650 C2649 1.389 . S
C2650 C2651 1.387 . S
C2651 H2636 0.930 . S
C2651 C2646 1.390 . S
C2651 C2650 1.387 . S
H2652 C2664 0.930 . S
H2653 C2666 0.930 . S
H2654 C2667 0.930 . S
H2655 C2671 0.959 . S
H2656 C2671 0.959 1_565 S
H2657 C2671 0.961 1_565 S
H2658 C2672 0.960 . S
H2659 C2672 0.961 . S
H2660 C2672 0.959 . S
H2661 C2675 0.929 . S
H2662 C2676 0.931 . S
H2663 C2678 0.930 . S
C2664 H2652 0.930 . S
C2664 C2665 1.399 . S
C2664 C2669 1.399 . S
C2665 C2664 1.399 . S
C2665 C2666 1.376 . S
C2666 H2653 0.930 . S
C2666 C2665 1.376 . S
C2666 C2667 1.388 . S
C2667 H2654 0.930 . S
C2667 C2666 1.388 . S
C2667 C2668 1.390 . S
C2668 C2667 1.390 . S
C2668 C2669 1.394 . S
C2668 C2674 1.465 . S
C2669 C2664 1.399 . S
C2669 C2668 1.394 . S
C2669 C2670 1.516 . S
C2670 C2669 1.516 . S
C2670 C2671 1.502 . S
C2670 C2672 1.561 1_545 S
C2670 C2673 1.526 . S
C2671 H2655 0.959 . S
C2671 H2656 0.959 1_545 S
C2671 H2657 0.961 1_545 S
C2671 C2670 1.502 . S
C2672 H2658 0.960 . S
C2672 H2659 0.961 . S
C2672 H2660 0.959 . S
C2672 C2670 1.561 1_565 S
C2673 C2670 1.526 . S
C2673 C2674 1.396 . S
C2673 C2678 1.390 . S
C2674 C2668 1.465 . S
C2674 C2673 1.396 . S
C2674 C2675 1.399 . S
C2675 H2661 0.929 . S
C2675 C2674 1.399 . S
C2675 C2676 1.385 . S
C2676 H2662 0.931 . S
C2676 C2675 1.385 . S
C2676 C2677 1.389 . S
C2677 C2676 1.389 . S
C2677 C2678 1.387 . S
C2678 H2663 0.930 . S
C2678 C2673 1.390 . S
C2678 C2677 1.387 . S
H2679 C2691 0.930 . S
H2680 C2693 0.930 . S
H2681 C2694 0.930 . S
H2682 C2698 0.959 . S
H2683 C2698 0.959 . S
H2684 C2698 0.961 . S
H2685 C2699 0.960 . S
H2686 C2699 0.961 . S
H2687 C2699 0.959 . S
H2688 C2702 0.929 . S
H2689 C2703 0.931 . S
H2690 C2705 0.930 . S
C2691 H2679 0.930 . S
C2691 C2692 1.399 . S
C2691 C2696 1.399 . S
C2692 C2691 1.399 . S
C2692 C2693 1.376 . S
C2693 H2680 0.930 . S
C2693 C2692 1.376 . S
C2693 C2694 1.388 . S
C2694 H2681 0.930 . S
C2694 C2693 1.388 . S
C2694 C2695 1.390 . S
C2695 C2694 1.390 . S
C2695 C2696 1.394 . S
C2695 C2701 1.465 . S
C2696 C2691 1.399 . S
C2696 C2695 1.394 . S
C2696 C2697 1.516 . S
C2697 C2696 1.516 . S
C2697 C2698 1.502 . S
C2697 C2699 1.561 . S
C2697 C2700 1.526 . S
C2698 H2682 0.959 . S
C2698 H2683 0.959 . S
C2698 H2684 0.961 . S
C2698 C2697 1.502 . S
C2699 H2685 0.960 . S
C2699 H2686 0.961 . S
C2699 H2687 0.959 . S
C2699 C2697 1.561 . S
C2700 C2697 1.526 . S
C2700 C2701 1.396 . S
C2700 C2705 1.390 . S
C2701 C2695 1.465 . S
C2701 C2700 1.396 . S
C2701 C2702 1.399 . S
C2702 H2688 0.929 . S
C2702 C2701 1.399 . S
C2702 C2703 1.385 . S
C2703 H2689 0.931 . S
C2703 C2702 1.385 . S
C2703 C2704 1.389 . S
C2704 C2703 1.389 . S
C2704 C2705 1.387 . S
C2705 H2690 0.930 . S
C2705 C2700 1.390 . S
C2705 C2704 1.387 . S
H2706 C2718 0.930 . S
H2707 C2720 0.930 . S
H2708 C2721 0.930 . S
H2709 C2725 0.959 . S
H2710 C2725 0.959 . S
H2711 C2725 0.961 . S
H2712 C2726 0.960 . S
H2713 C2726 0.961 . S
H2714 C2726 0.959 . S
H2715 C2729 0.929 . S
H2716 C2730 0.931 . S
H2717 C2732 0.930 . S
C2718 H2706 0.930 . S
C2718 C2719 1.399 . S
C2718 C2723 1.399 . S
C2719 C2718 1.399 . S
C2719 C2720 1.376 1_545 S
C2720 H2707 0.930 . S
C2720 C2719 1.376 1_565 S
C2720 C2721 1.388 . S
C2721 H2708 0.930 . S
C2721 C2720 1.388 . S
C2721 C2722 1.402 . S
C2722 C2721 1.402 . S
C2722 C2723 1.380 1_565 S
C2722 C2728 1.465 1_565 S
C2723 C2718 1.399 . S
C2723 C2722 1.380 1_545 S
C2723 C2724 1.516 . S
C2724 C2723 1.516 . S
C2724 C2725 1.502 . S
C2724 C2726 1.561 . S
C2724 C2727 1.526 . S
C2725 H2709 0.959 . S
C2725 H2710 0.959 . S
C2725 H2711 0.961 . S
C2725 C2724 1.502 . S
C2726 H2712 0.960 . S
C2726 H2713 0.961 . S
C2726 H2714 0.959 . S
C2726 C2724 1.561 . S
C2727 C2724 1.526 . S
C2727 C2728 1.423 . S
C2727 C2732 1.390 . S
C2728 C2722 1.465 1_545 S
C2728 C2727 1.423 . S
C2728 C2729 1.378 1_545 S
C2729 H2715 0.929 . S
C2729 C2728 1.378 1_565 S
C2729 C2730 1.385 . S
C2730 H2716 0.931 . S
C2730 C2729 1.385 . S
C2730 C2731 1.389 1_565 S
C2731 C2730 1.389 1_545 S
C2731 C2732 1.387 . S
C2732 H2717 0.930 . S
C2732 C2727 1.390 . S
C2732 C2731 1.387 . S
H2733 C2745 0.930 . S
H2734 C2747 0.930 . S
H2735 C2748 0.930 . S
H2736 C2752 0.959 . S
H2737 C2752 0.959 . S
H2738 C2752 0.961 . S
H2739 C2753 0.960 . S
H2740 C2753 0.961 . S
H2741 C2753 0.959 . S
H2742 C2756 0.929 . S
H2743 C2757 0.931 . S
H2744 C2759 0.930 . S
C2745 H2733 0.930 . S
C2745 C2746 1.399 . S
C2745 C2750 1.399 . S
C2746 C2745 1.399 . S
C2746 C2747 1.376 . S
C2747 H2734 0.930 . S
C2747 C2746 1.376 . S
C2747 C2748 1.388 . S
C2748 H2735 0.930 . S
C2748 C2747 1.388 . S
C2748 C2749 1.390 . S
C2749 C2748 1.390 . S
C2749 C2750 1.394 . S
C2749 C2755 1.465 . S
C2750 C2745 1.399 . S
C2750 C2749 1.394 . S
C2750 C2751 1.516 . S
C2751 C2750 1.516 . S
C2751 C2752 1.502 . S
C2751 C2753 1.561 . S
C2751 C2754 1.526 . S
C2752 H2736 0.959 . S
C2752 H2737 0.959 . S
C2752 H2738 0.961 . S
C2752 C2751 1.502 . S
C2753 H2739 0.960 . S
C2753 H2740 0.961 . S
C2753 H2741 0.959 . S
C2753 C2751 1.561 . S
C2754 C2751 1.526 . S
C2754 C2755 1.396 . S
C2754 C2759 1.390 . S
C2755 C2749 1.465 . S
C2755 C2754 1.396 . S
C2755 C2756 1.399 . S
C2756 H2742 0.929 . S
C2756 C2755 1.399 . S
C2756 C2757 1.385 . S
C2757 H2743 0.931 . S
C2757 C2756 1.385 . S
C2757 C2758 1.389 . S
C2758 C2757 1.389 . S
C2758 C2759 1.387 . S
C2759 H2744 0.930 . S
C2759 C2754 1.390 . S
C2759 C2758 1.387 . S
H2760 C2772 0.930 . S
H2761 C2774 0.930 . S
H2762 C2775 0.930 . S
H2763 C2779 0.959 . S
H2764 C2779 0.959 1_556 S
H2765 C2779 0.965 . S
H2766 C2780 0.960 . S
H2767 C2780 0.961 . S
H2768 C2780 0.959 1_554 S
H2769 C2783 0.929 . S
H2770 C2784 0.931 . S
H2771 C2786 0.930 . S
C2772 H2760 0.930 . S
C2772 C2773 1.399 . S
C2772 C2777 1.399 . S
C2773 C2772 1.399 . S
C2773 C2774 1.376 . S
C2774 H2761 0.930 . S
C2774 C2773 1.376 . S
C2774 C2775 1.388 . S
C2775 H2762 0.930 . S
C2775 C2774 1.388 . S
C2775 C2776 1.390 . S
C2776 C2775 1.390 . S
C2776 C2777 1.394 . S
C2776 C2782 1.465 . S
C2777 C2772 1.399 . S
C2777 C2776 1.394 . S
C2777 C2778 1.516 . S
C2778 C2777 1.516 . S
C2778 C2779 1.502 . S
C2778 C2780 1.561 1_554 S
C2778 C2781 1.526 . S
C2779 H2763 0.959 . S
C2779 H2764 0.959 1_554 S
C2779 H2765 0.965 . S
C2779 C2778 1.502 . S
C2780 H2766 0.960 . S
C2780 H2767 0.961 . S
C2780 H2768 0.959 1_556 S
C2780 C2778 1.561 1_556 S
C2781 C2778 1.526 . S
C2781 C2782 1.396 . S
C2781 C2786 1.390 . S
C2782 C2776 1.465 . S
C2782 C2781 1.396 . S
C2782 C2783 1.399 . S
C2783 H2769 0.929 . S
C2783 C2782 1.399 . S
C2783 C2784 1.385 . S
C2784 H2770 0.931 . S
C2784 C2783 1.385 . S
C2784 C2785 1.389 . S
C2785 C2784 1.389 . S
C2785 C2786 1.387 . S
C2786 H2771 0.930 . S
C2786 C2781 1.390 . S
C2786 C2785 1.387 . S
H2787 C2799 0.930 . S
H2788 C2801 0.930 . S
H2789 C2802 0.930 . S
H2790 C2806 0.959 . S
H2791 C2806 0.959 . S
H2792 C2806 0.961 . S
H2793 C2807 0.960 . S
H2794 C2807 0.961 . S
H2795 C2807 0.959 . S
H2796 C2810 0.929 . S
H2797 C2811 0.931 . S
H2798 C2813 0.930 . S
C2799 H2787 0.930 . S
C2799 C2800 1.399 . S
C2799 C2804 1.399 . S
C2800 C2799 1.399 . S
C2800 C2801 1.376 . S
C2801 H2788 0.930 . S
C2801 C2800 1.376 . S
C2801 C2802 1.388 . S
C2802 H2789 0.930 . S
C2802 C2801 1.388 . S
C2802 C2803 1.390 . S
C2803 C2802 1.390 . S
C2803 C2804 1.394 . S
C2803 C2809 1.465 . S
C2804 C2799 1.399 . S
C2804 C2803 1.394 . S
C2804 C2805 1.516 . S
C2805 C2804 1.516 . S
C2805 C2806 1.502 . S
C2805 C2807 1.561 1_554 S
C2805 C2808 1.526 . S
C2806 H2790 0.959 . S
C2806 H2791 0.959 . S
C2806 H2792 0.961 . S
C2806 C2805 1.502 . S
C2807 H2793 0.960 . S
C2807 H2794 0.961 . S
C2807 H2795 0.959 . S
C2807 C2805 1.561 1_556 S
C2808 C2805 1.526 . S
C2808 C2809 1.396 . S
C2808 C2813 1.390 . S
C2809 C2803 1.465 . S
C2809 C2808 1.396 . S
C2809 C2810 1.399 . S
C2810 H2796 0.929 . S
C2810 C2809 1.399 . S
C2810 C2811 1.385 . S
C2811 H2797 0.931 . S
C2811 C2810 1.385 . S
C2811 C2812 1.389 . S
C2812 C2811 1.389 . S
C2812 C2813 1.387 . S
C2813 H2798 0.930 . S
C2813 C2808 1.390 . S
C2813 C2812 1.387 . S
H2814 C2826 0.930 . S
H2815 C2828 0.930 . S
H2816 C2829 0.930 . S
H2817 C2833 0.959 . S
H2818 C2833 0.959 . S
H2819 C2833 0.961 . S
H2820 C2834 0.960 . S
H2821 C2834 0.961 . S
H2822 C2834 0.959 . S
H2823 C2837 0.929 . S
H2824 C2838 0.931 . S
H2825 C2840 0.930 . S
C2826 H2814 0.930 . S
C2826 C2827 1.399 . S
C2826 C2831 1.399 . S
C2827 C2826 1.399 . S
C2827 C2828 1.376 . S
C2828 H2815 0.930 . S
C2828 C2827 1.376 . S
C2828 C2829 1.388 . S
C2829 H2816 0.930 . S
C2829 C2828 1.388 . S
C2829 C2830 1.390 . S
C2830 C2829 1.390 . S
C2830 C2831 1.394 . S
C2830 C2836 1.465 . S
C2831 C2826 1.399 . S
C2831 C2830 1.394 . S
C2831 C2832 1.516 . S
C2832 C2831 1.516 . S
C2832 C2833 1.502 . S
C2832 C2834 1.561 . S
C2832 C2835 1.526 . S
C2833 H2817 0.959 . S
C2833 H2818 0.959 . S
C2833 H2819 0.961 . S
C2833 C2832 1.502 . S
C2834 H2820 0.960 . S
C2834 H2821 0.961 . S
C2834 H2822 0.959 . S
C2834 C2832 1.561 . S
C2835 C2832 1.526 . S
C2835 C2836 1.396 . S
C2835 C2840 1.390 . S
C2836 C2830 1.465 . S
C2836 C2835 1.396 . S
C2836 C2837 1.399 . S
C2837 H2823 0.929 . S
C2837 C2836 1.399 . S
C2837 C2838 1.385 . S
C2838 H2824 0.931 . S
C2838 C2837 1.385 . S
C2838 C2839 1.389 . S
C2839 C2838 1.389 . S
C2839 C2840 1.387 . S
C2840 H2825 0.930 . S
C2840 C2835 1.390 . S
C2840 C2839 1.387 . S
H2841 C2853 0.930 . S
H2842 C2855 0.930 . S
H2843 C2856 0.930 . S
H2844 C2860 0.959 . S
H2845 C2860 0.959 . S
H2846 C2860 0.961 . S
H2847 C2861 0.960 . S
H2848 C2861 0.961 . S
H2849 C2861 0.959 . S
H2850 C2864 0.929 . S
H2851 C2865 0.931 . S
H2852 C2867 0.930 . S
C2853 H2841 0.930 . S
C2853 C2854 1.399 . S
C2853 C2858 1.399 . S
C2854 C2853 1.399 . S
C2854 C2855 1.376 . S
C2855 H2842 0.930 . S
C2855 C2854 1.376 . S
C2855 C2856 1.388 . S
C2856 H2843 0.930 . S
C2856 C2855 1.388 . S
C2856 C2857 1.390 . S
C2857 C2856 1.390 . S
C2857 C2858 1.394 . S
C2857 C2863 1.465 . S
C2858 C2853 1.399 . S
C2858 C2857 1.394 . S
C2858 C2859 1.516 . S
C2859 C2858 1.516 . S
C2859 C2860 1.502 . S
C2859 C2861 1.561 . S
C2859 C2862 1.526 . S
C2860 H2844 0.959 . S
C2860 H2845 0.959 . S
C2860 H2846 0.961 . S
C2860 C2859 1.502 . S
C2861 H2847 0.960 . S
C2861 H2848 0.961 . S
C2861 H2849 0.959 . S
C2861 C2859 1.561 . S
C2862 C2859 1.526 . S
C2862 C2863 1.396 . S
C2862 C2867 1.390 . S
C2863 C2857 1.465 . S
C2863 C2862 1.396 . S
C2863 C2864 1.399 . S
C2864 H2850 0.929 . S
C2864 C2863 1.399 . S
C2864 C2865 1.385 . S
C2865 H2851 0.931 . S
C2865 C2864 1.385 . S
C2865 C2866 1.389 . S
C2866 C2865 1.389 . S
C2866 C2867 1.387 . S
C2867 H2852 0.930 . S
C2867 C2862 1.390 . S
C2867 C2866 1.387 . S
H2868 C2880 0.930 . S
H2869 C2882 0.930 . S
H2870 C2883 0.930 . S
H2871 C2887 0.959 . S
H2872 C2887 0.959 . S
H2873 C2887 0.961 . S
H2874 C2888 0.960 . S
H2875 C2888 0.961 . S
H2876 C2888 0.959 . S
H2877 C2891 0.929 . S
H2878 C2892 0.931 . S
H2879 C2894 0.930 . S
C2880 H2868 0.930 . S
C2880 C2881 1.411 . S
C2880 C2885 1.399 . S
C2881 C2880 1.411 . S
C2881 C2882 1.376 1_565 S
C2882 H2869 0.930 . S
C2882 C2881 1.376 1_545 S
C2882 C2883 1.388 1_545 S
C2883 H2870 0.930 . S
C2883 C2882 1.388 1_565 S
C2883 C2884 1.390 . S
C2884 C2883 1.390 . S
C2884 C2885 1.394 . S
C2884 C2890 1.465 . S
C2885 C2880 1.399 . S
C2885 C2884 1.394 . S
C2885 C2886 1.516 . S
C2886 C2885 1.516 . S
C2886 C2887 1.502 . S
C2886 C2888 1.561 . S
C2886 C2889 1.526 . S
C2887 H2871 0.959 . S
C2887 H2872 0.959 . S
C2887 H2873 0.961 . S
C2887 C2886 1.502 . S
C2888 H2874 0.960 . S
C2888 H2875 0.961 . S
C2888 H2876 0.959 . S
C2888 C2886 1.561 . S
C2889 C2886 1.526 . S
C2889 C2890 1.396 . S
C2889 C2894 1.390 . S
C2890 C2884 1.465 . S
C2890 C2889 1.396 . S
C2890 C2891 1.399 . S
C2891 H2877 0.929 . S
C2891 C2890 1.399 . S
C2891 C2892 1.385 . S
C2892 H2878 0.931 . S
C2892 C2891 1.385 . S
C2892 C2893 1.389 . S
C2893 C2892 1.389 . S
C2893 C2894 1.387 . S
C2894 H2879 0.930 . S
C2894 C2889 1.390 . S
C2894 C2893 1.387 . S
H2895 C2907 0.930 . S
H2896 C2909 0.930 . S
H2897 C2910 0.930 . S
H2898 C2914 0.959 . S
H2899 C2914 0.959 . S
H2900 C2914 0.961 . S
H2901 C2915 0.960 . S
H2902 C2915 0.961 . S
H2903 C2915 0.959 . S
H2904 C2918 0.929 . S
H2905 C2919 0.931 . S
H2906 C2921 0.930 . S
C2907 H2895 0.930 . S
C2907 C2908 1.399 . S
C2907 C2912 1.399 . S
C2908 C2907 1.399 . S
C2908 C2909 1.376 . S
C2909 H2896 0.930 . S
C2909 C2908 1.376 . S
C2909 C2910 1.388 . S
C2910 H2897 0.930 . S
C2910 C2909 1.388 . S
C2910 C2911 1.390 . S
C2911 C2910 1.390 . S
C2911 C2912 1.394 . S
C2911 C2917 1.465 . S
C2912 C2907 1.399 . S
C2912 C2911 1.394 . S
C2912 C2913 1.516 . S
C2913 C2912 1.516 . S
C2913 C2914 1.502 . S
C2913 C2915 1.561 . S
C2913 C2916 1.526 . S
C2914 H2898 0.959 . S
C2914 H2899 0.959 . S
C2914 H2900 0.961 . S
C2914 C2913 1.502 . S
C2915 H2901 0.960 . S
C2915 H2902 0.961 . S
C2915 H2903 0.959 . S
C2915 C2913 1.561 . S
C2916 C2913 1.526 . S
C2916 C2917 1.396 . S
C2916 C2921 1.390 . S
C2917 C2911 1.465 . S
C2917 C2916 1.396 . S
C2917 C2918 1.399 . S
C2918 H2904 0.929 . S
C2918 C2917 1.399 . S
C2918 C2919 1.385 . S
C2919 H2905 0.931 . S
C2919 C2918 1.385 . S
C2919 C2920 1.389 . S
C2920 C2919 1.389 . S
C2920 C2921 1.387 . S
C2921 H2906 0.930 . S
C2921 C2916 1.390 . S
C2921 C2920 1.387 . S
H2922 C2934 0.930 . S
H2923 C2936 0.930 . S
H2924 C2937 0.930 . S
H2925 C2941 0.959 . S
H2926 C2941 0.959 . S
H2927 C2941 0.961 . S
H2928 C2942 0.960 . S
H2929 C2942 0.961 . S
H2930 C2942 0.959 . S
H2931 C2945 0.929 . S
H2932 C2946 0.931 . S
H2933 C2948 0.930 . S
C2934 H2922 0.930 . S
C2934 C2935 1.399 . S
C2934 C2939 1.399 . S
C2935 C2934 1.399 . S
C2935 C2936 1.376 . S
C2936 H2923 0.930 . S
C2936 C2935 1.376 . S
C2936 C2937 1.388 . S
C2937 H2924 0.930 . S
C2937 C2936 1.388 . S
C2937 C2938 1.390 . S
C2938 C2937 1.390 . S
C2938 C2939 1.394 . S
C2938 C2944 1.465 . S
C2939 C2934 1.399 . S
C2939 C2938 1.394 . S
C2939 C2940 1.516 . S
C2940 C2939 1.516 . S
C2940 C2941 1.502 . S
C2940 C2942 1.561 . S
C2940 C2943 1.526 . S
C2941 H2925 0.959 . S
C2941 H2926 0.959 . S
C2941 H2927 0.961 . S
C2941 C2940 1.502 . S
C2942 H2928 0.960 . S
C2942 H2929 0.961 . S
C2942 H2930 0.959 . S
C2942 C2940 1.561 . S
C2943 C2940 1.526 . S
C2943 C2944 1.396 . S
C2943 C2948 1.390 . S
C2944 C2938 1.465 . S
C2944 C2943 1.396 . S
C2944 C2945 1.399 . S
C2945 H2931 0.929 . S
C2945 C2944 1.399 . S
C2945 C2946 1.385 . S
C2946 H2932 0.931 . S
C2946 C2945 1.385 . S
C2946 C2947 1.389 . S
C2947 C2946 1.389 . S
C2947 C2948 1.387 . S
C2948 H2933 0.930 . S
C2948 C2943 1.390 . S
C2948 C2947 1.387 . S
H2949 C2961 0.930 . S
H2950 C2963 0.930 . S
H2951 C2964 0.930 . S
H2952 C2968 0.959 . S
H2953 C2968 0.959 . S
H2954 C2968 0.961 . S
H2955 C2969 0.960 . S
H2956 C2969 0.961 . S
H2957 C2969 0.959 . S
H2958 C2972 0.929 . S
H2959 C2973 0.931 . S
H2960 C2975 0.930 . S
C2961 H2949 0.930 . S
C2961 C2962 1.399 . S
C2961 C2966 1.399 . S
C2962 C2961 1.399 . S
C2962 C2963 1.376 . S
C2963 H2950 0.930 . S
C2963 C2962 1.376 . S
C2963 C2964 1.388 . S
C2964 H2951 0.930 . S
C2964 C2963 1.388 . S
C2964 C2965 1.390 . S
C2965 C2964 1.390 . S
C2965 C2966 1.394 . S
C2965 C2971 1.465 . S
C2966 C2961 1.399 . S
C2966 C2965 1.394 . S
C2966 C2967 1.516 . S
C2967 C2966 1.516 . S
C2967 C2968 1.502 . S
C2967 C2969 1.561 . S
C2967 C2970 1.526 . S
C2968 H2952 0.959 . S
C2968 H2953 0.959 . S
C2968 H2954 0.961 . S
C2968 C2967 1.502 . S
C2969 H2955 0.960 . S
C2969 H2956 0.961 . S
C2969 H2957 0.959 . S
C2969 C2967 1.561 . S
C2970 C2967 1.526 . S
C2970 C2971 1.396 . S
C2970 C2975 1.390 . S
C2971 C2965 1.465 . S
C2971 C2970 1.396 . S
C2971 C2972 1.399 . S
C2972 H2958 0.929 . S
C2972 C2971 1.399 . S
C2972 C2973 1.385 . S
C2973 H2959 0.931 . S
C2973 C2972 1.385 . S
C2973 C2974 1.389 . S
C2974 C2973 1.389 . S
C2974 C2975 1.387 . S
C2975 H2960 0.930 . S
C2975 C2970 1.390 . S
C2975 C2974 1.387 . S
H2976 C2988 0.930 . S
H2977 C2990 0.930 . S
H2978 C2991 0.930 . S
H2979 C2995 0.959 . S
H2980 C2995 0.959 . S
H2981 C2995 0.961 . S
H2982 C2996 0.960 . S
H2983 C2996 0.961 . S
H2984 C2996 0.959 . S
H2985 C2999 0.929 . S
H2986 C3000 0.931 . S
H2987 C3002 0.930 . S
C2988 H2976 0.930 . S
C2988 C2989 1.399 . S
C2988 C2993 1.399 . S
C2989 C2988 1.399 . S
C2989 C2990 1.376 . S
C2990 H2977 0.930 . S
C2990 C2989 1.376 . S
C2990 C2991 1.388 . S
C2991 H2978 0.930 . S
C2991 C2990 1.388 . S
C2991 C2992 1.390 . S
C2992 C2991 1.390 . S
C2992 C2993 1.394 . S
C2992 C2998 1.465 . S
C2993 C2988 1.399 . S
C2993 C2992 1.394 . S
C2993 C2994 1.516 . S
C2994 C2993 1.516 . S
C2994 C2995 1.502 . S
C2994 C2996 1.561 . S
C2994 C2997 1.526 . S
C2995 H2979 0.959 . S
C2995 H2980 0.959 . S
C2995 H2981 0.961 . S
C2995 C2994 1.502 . S
C2996 H2982 0.960 . S
C2996 H2983 0.961 . S
C2996 H2984 0.959 . S
C2996 C2994 1.561 . S
C2997 C2994 1.526 . S
C2997 C2998 1.396 . S
C2997 C3002 1.390 . S
C2998 C2992 1.465 . S
C2998 C2997 1.396 . S
C2998 C2999 1.399 . S
C2999 H2985 0.929 . S
C2999 C2998 1.399 . S
C2999 C3000 1.385 . S
C3000 H2986 0.931 . S
C3000 C2999 1.385 . S
C3000 C3001 1.389 . S
C3001 C3000 1.389 . S
C3001 C3002 1.387 . S
C3002 H2987 0.930 . S
C3002 C2997 1.390 . S
C3002 C3001 1.387 . S
H3003 C3015 0.930 . S
H3004 C3017 0.930 . S
H3005 C3018 0.930 . S
H3006 C3022 0.959 . S
H3007 C3022 0.959 . S
H3008 C3022 0.961 . S
H3009 C3023 0.960 . S
H3010 C3023 0.961 . S
H3011 C3023 0.959 . S
H3012 C3026 0.929 . S
H3013 C3027 0.931 . S
H3014 C3029 0.930 . S
C3015 H3003 0.930 . S
C3015 C3016 1.399 . S
C3015 C3020 1.399 . S
C3016 C3015 1.399 . S
C3016 C3017 1.376 . S
C3017 H3004 0.930 . S
C3017 C3016 1.376 . S
C3017 C3018 1.388 . S
C3018 H3005 0.930 . S
C3018 C3017 1.388 . S
C3018 C3019 1.390 . S
C3019 C3018 1.390 . S
C3019 C3020 1.394 . S
C3019 C3025 1.465 . S
C3020 C3015 1.399 . S
C3020 C3019 1.394 . S
C3020 C3021 1.516 . S
C3021 C3020 1.516 . S
C3021 C3022 1.502 . S
C3021 C3023 1.561 . S
C3021 C3024 1.526 . S
C3022 H3006 0.959 . S
C3022 H3007 0.959 . S
C3022 H3008 0.961 . S
C3022 C3021 1.502 . S
C3023 H3009 0.960 . S
C3023 H3010 0.961 . S
C3023 H3011 0.959 . S
C3023 C3021 1.561 . S
C3024 C3021 1.526 . S
C3024 C3025 1.396 . S
C3024 C3029 1.390 . S
C3025 C3019 1.465 . S
C3025 C3024 1.396 . S
C3025 C3026 1.399 . S
C3026 H3012 0.929 . S
C3026 C3025 1.399 . S
C3026 C3027 1.385 . S
C3027 H3013 0.931 . S
C3027 C3026 1.385 . S
C3027 C3028 1.389 . S
C3028 C3027 1.389 . S
C3028 C3029 1.387 . S
C3029 H3014 0.930 . S
C3029 C3024 1.390 . S
C3029 C3028 1.387 . S
H3030 C3042 0.939 1_655 S
H3031 C3044 0.930 . S
H3032 C3045 0.930 . S
H3033 C3049 0.959 . S
H3034 C3049 0.959 . S
H3035 C3049 0.961 . S
H3036 C3050 0.960 . S
H3037 C3050 0.961 . S
H3038 C3050 0.959 . S
H3039 C3053 0.929 . S
H3040 C3054 0.931 . S
H3041 C3056 0.930 . S
C3042 H3030 0.939 1_455 S
C3042 C3043 1.390 1_554 S
C3042 C3047 1.399 . S
C3043 C3042 1.390 1_556 S
C3043 C3044 1.376 . S
C3044 H3031 0.930 . S
C3044 C3043 1.376 . S
C3044 C3045 1.388 . S
C3045 H3032 0.930 . S
C3045 C3044 1.388 . S
C3045 C3046 1.390 . S
C3046 C3045 1.390 . S
C3046 C3047 1.394 1_556 S
C3046 C3052 1.465 . S
C3047 C3042 1.399 . S
C3047 C3046 1.394 1_554 S
C3047 C3048 1.516 . S
C3048 C3047 1.516 . S
C3048 C3049 1.502 1_455 S
C3048 C3050 1.561 . S
C3048 C3051 1.526 . S
C3049 H3033 0.959 . S
C3049 H3034 0.959 . S
C3049 H3035 0.961 . S
C3049 C3048 1.502 1_655 S
C3050 H3036 0.960 . S
C3050 H3037 0.961 . S
C3050 H3038 0.959 . S
C3050 C3048 1.561 . S
C3051 C3048 1.526 . S
C3051 C3052 1.396 1_554 S
C3051 C3056 1.390 . S
C3052 C3046 1.465 . S
C3052 C3051 1.396 1_556 S
C3052 C3053 1.399 . S
C3053 H3039 0.929 . S
C3053 C3052 1.399 . S
C3053 C3054 1.385 . S
C3054 H3040 0.931 . S
C3054 C3053 1.385 . S
C3054 C3055 1.389 1_556 S
C3055 C3054 1.389 1_554 S
C3055 C3056 1.387 . S
C3056 H3041 0.930 . S
C3056 C3051 1.390 . S
C3056 C3055 1.387 . S
H3057 C3069 0.930 . S
H3058 C3071 0.930 . S
H3059 C3072 0.930 . S
H3060 C3076 0.959 . S
H3061 C3076 0.959 . S
H3062 C3076 0.961 . S
H3063 C3077 0.960 . S
H3064 C3077 0.961 . S
H3065 C3077 0.959 . S
H3066 C3080 0.929 . S
H3067 C3081 0.931 . S
H3068 C3083 0.930 . S
C3069 H3057 0.930 . S
C3069 C3070 1.399 . S
C3069 C3074 1.399 . S
C3070 C3069 1.399 . S
C3070 C3071 1.376 . S
C3071 H3058 0.930 . S
C3071 C3070 1.376 . S
C3071 C3072 1.388 . S
C3072 H3059 0.930 . S
C3072 C3071 1.388 . S
C3072 C3073 1.390 . S
C3073 C3072 1.390 . S
C3073 C3074 1.394 . S
C3073 C3079 1.465 . S
C3074 C3069 1.399 . S
C3074 C3073 1.394 . S
C3074 C3075 1.516 . S
C3075 C3074 1.516 . S
C3075 C3076 1.502 . S
C3075 C3077 1.561 . S
C3075 C3078 1.526 . S
C3076 H3060 0.959 . S
C3076 H3061 0.959 . S
C3076 H3062 0.961 . S
C3076 C3075 1.502 . S
C3077 H3063 0.960 . S
C3077 H3064 0.961 . S
C3077 H3065 0.959 . S
C3077 C3075 1.561 . S
C3078 C3075 1.526 . S
C3078 C3079 1.396 . S
C3078 C3083 1.390 . S
C3079 C3073 1.465 . S
C3079 C3078 1.396 . S
C3079 C3080 1.399 . S
C3080 H3066 0.929 . S
C3080 C3079 1.399 . S
C3080 C3081 1.385 . S
C3081 H3067 0.931 . S
C3081 C3080 1.385 . S
C3081 C3082 1.389 . S
C3082 C3081 1.389 . S
C3082 C3083 1.387 . S
C3083 H3068 0.930 . S
C3083 C3078 1.390 . S
C3083 C3082 1.387 . S
H3084 C3096 0.930 . S
H3085 C3098 0.930 . S
H3086 C3099 0.930 . S
H3087 C3103 0.959 . S
H3088 C3103 0.959 . S
H3089 C3103 0.961 . S
H3090 C3104 0.960 . S
H3091 C3104 0.961 . S
H3092 C3104 0.959 . S
H3093 C3107 0.929 . S
H3094 C3108 0.931 . S
H3095 C3110 0.930 . S
C3096 H3084 0.930 . S
C3096 C3097 1.399 . S
C3096 C3101 1.399 . S
C3097 C3096 1.399 . S
C3097 C3098 1.376 . S
C3098 H3085 0.930 . S
C3098 C3097 1.376 . S
C3098 C3099 1.388 . S
C3099 H3086 0.930 . S
C3099 C3098 1.388 . S
C3099 C3100 1.390 . S
C3100 C3099 1.390 . S
C3100 C3101 1.394 . S
C3100 C3106 1.465 . S
C3101 C3096 1.399 . S
C3101 C3100 1.394 . S
C3101 C3102 1.516 . S
C3102 C3101 1.516 . S
C3102 C3103 1.502 . S
C3102 C3104 1.561 . S
C3102 C3105 1.526 . S
C3103 H3087 0.959 . S
C3103 H3088 0.959 . S
C3103 H3089 0.961 . S
C3103 C3102 1.502 . S
C3104 H3090 0.960 . S
C3104 H3091 0.961 . S
C3104 H3092 0.959 . S
C3104 C3102 1.561 . S
C3105 C3102 1.526 . S
C3105 C3106 1.396 . S
C3105 C3110 1.390 . S
C3106 C3100 1.465 . S
C3106 C3105 1.396 . S
C3106 C3107 1.399 . S
C3107 H3093 0.929 . S
C3107 C3106 1.399 . S
C3107 C3108 1.385 . S
C3108 H3094 0.931 . S
C3108 C3107 1.385 . S
C3108 C3109 1.389 . S
C3109 C3108 1.389 . S
C3109 C3110 1.387 . S
C3110 H3095 0.930 . S
C3110 C3105 1.390 . S
C3110 C3109 1.387 . S
H3111 C3123 0.930 . S
H3112 C3125 0.930 . S
H3113 C3126 0.930 . S
H3114 C3130 0.959 . S
H3115 C3130 0.959 . S
H3116 C3130 0.961 . S
H3117 C3131 0.960 . S
H3118 C3131 0.961 . S
H3119 C3131 0.959 . S
H3120 C3134 0.929 . S
H3121 C3135 0.931 . S
H3122 C3137 0.930 . S
C3123 H3111 0.930 . S
C3123 C3124 1.399 . S
C3123 C3128 1.399 . S
C3124 C3123 1.399 . S
C3124 C3125 1.376 . S
C3125 H3112 0.930 . S
C3125 C3124 1.376 . S
C3125 C3126 1.388 . S
C3126 H3113 0.930 . S
C3126 C3125 1.388 . S
C3126 C3127 1.390 . S
C3127 C3126 1.390 . S
C3127 C3128 1.394 . S
C3127 C3133 1.465 . S
C3128 C3123 1.399 . S
C3128 C3127 1.394 . S
C3128 C3129 1.516 . S
C3129 C3128 1.516 . S
C3129 C3130 1.502 . S
C3129 C3131 1.561 . S
C3129 C3132 1.526 . S
C3130 H3114 0.959 . S
C3130 H3115 0.959 . S
C3130 H3116 0.961 . S
C3130 C3129 1.502 . S
C3131 H3117 0.960 . S
C3131 H3118 0.961 . S
C3131 H3119 0.959 . S
C3131 C3129 1.561 . S
C3132 C3129 1.526 . S
C3132 C3133 1.396 . S
C3132 C3137 1.390 . S
C3133 C3127 1.465 . S
C3133 C3132 1.396 . S
C3133 C3134 1.399 . S
C3134 H3120 0.929 . S
C3134 C3133 1.399 . S
C3134 C3135 1.385 . S
C3135 H3121 0.931 . S
C3135 C3134 1.385 . S
C3135 C3136 1.389 . S
C3136 C3135 1.389 . S
C3136 C3137 1.387 . S
C3137 H3122 0.930 . S
C3137 C3132 1.390 . S
C3137 C3136 1.387 . S
H3138 C3150 0.930 . S
H3139 C3152 0.930 . S
H3140 C3153 0.930 . S
H3141 C3157 0.959 . S
H3142 C3157 0.959 . S
H3143 C3157 0.961 . S
H3144 C3158 0.960 . S
H3145 C3158 0.961 . S
H3146 C3158 0.959 . S
H3147 C3161 0.929 . S
H3148 C3162 0.931 . S
H3149 C3164 0.930 . S
C3150 H3138 0.930 . S
C3150 C3151 1.399 . S
C3150 C3155 1.399 . S
C3151 C3150 1.399 . S
C3151 C3152 1.376 . S
C3152 H3139 0.930 . S
C3152 C3151 1.376 . S
C3152 C3153 1.388 . S
C3153 H3140 0.930 . S
C3153 C3152 1.388 . S
C3153 C3154 1.390 . S
C3154 C3153 1.390 . S
C3154 C3155 1.394 . S
C3154 C3160 1.465 . S
C3155 C3150 1.399 . S
C3155 C3154 1.394 . S
C3155 C3156 1.516 . S
C3156 C3155 1.516 . S
C3156 C3157 1.502 . S
C3156 C3158 1.561 1_455 S
C3156 C3159 1.526 . S
C3157 H3141 0.959 . S
C3157 H3142 0.959 . S
C3157 H3143 0.961 . S
C3157 C3156 1.502 . S
C3158 H3144 0.960 . S
C3158 H3145 0.961 . S
C3158 H3146 0.959 . S
C3158 C3156 1.561 1_655 S
C3159 C3156 1.526 . S
C3159 C3160 1.396 . S
C3159 C3164 1.390 . S
C3160 C3154 1.465 . S
C3160 C3159 1.396 . S
C3160 C3161 1.399 . S
C3161 H3147 0.929 . S
C3161 C3160 1.399 . S
C3161 C3162 1.385 . S
C3162 H3148 0.931 . S
C3162 C3161 1.385 . S
C3162 C3163 1.389 . S
C3163 C3162 1.389 . S
C3163 C3164 1.387 . S
C3164 H3149 0.930 . S
C3164 C3159 1.390 . S
C3164 C3163 1.387 . S
H3165 C3177 0.930 . S
H3166 C3179 0.930 . S
H3167 C3180 0.930 . S
H3168 C3184 0.959 . S
H3169 C3184 0.959 . S
H3170 C3184 0.961 . S
H3171 C3185 0.960 . S
H3172 C3185 0.961 . S
H3173 C3185 0.959 . S
H3174 C3188 0.929 . S
H3175 C3189 0.931 . S
H3176 C3191 0.930 . S
C3177 H3165 0.930 . S
C3177 C3178 1.399 . S
C3177 C3182 1.399 . S
C3178 C3177 1.399 . S
C3178 C3179 1.376 . S
C3179 H3166 0.930 . S
C3179 C3178 1.376 . S
C3179 C3180 1.388 . S
C3180 H3167 0.930 . S
C3180 C3179 1.388 . S
C3180 C3181 1.390 . S
C3181 C3180 1.390 . S
C3181 C3182 1.394 . S
C3181 C3187 1.465 . S
C3182 C3177 1.399 . S
C3182 C3181 1.394 . S
C3182 C3183 1.516 . S
C3183 C3182 1.516 . S
C3183 C3184 1.502 . S
C3183 C3185 1.561 . S
C3183 C3186 1.526 . S
C3184 H3168 0.959 . S
C3184 H3169 0.959 . S
C3184 H3170 0.961 . S
C3184 C3183 1.502 . S
C3185 H3171 0.960 . S
C3185 H3172 0.961 . S
C3185 H3173 0.959 . S
C3185 C3183 1.561 . S
C3186 C3183 1.526 . S
C3186 C3187 1.396 . S
C3186 C3191 1.390 . S
C3187 C3181 1.465 . S
C3187 C3186 1.396 . S
C3187 C3188 1.399 . S
C3188 H3174 0.929 . S
C3188 C3187 1.399 . S
C3188 C3189 1.385 . S
C3189 H3175 0.931 . S
C3189 C3188 1.385 . S
C3189 C3190 1.389 . S
C3190 C3189 1.389 . S
C3190 C3191 1.387 . S
C3191 H3176 0.930 . S
C3191 C3186 1.390 . S
C3191 C3190 1.387 . S
H3192 C3204 0.930 . S
H3193 C3206 0.930 . S
H3194 C3207 0.930 . S
H3195 C3211 0.959 . S
H3196 C3211 0.959 . S
H3197 C3211 0.961 . S
H3198 C3212 0.960 . S
H3199 C3212 0.961 . S
H3200 C3212 0.959 . S
H3201 C3215 0.929 . S
H3202 C3216 0.931 . S
H3203 C3218 0.930 . S
C3204 H3192 0.930 . S
C3204 C3205 1.399 . S
C3204 C3209 1.399 . S
C3205 C3204 1.399 . S
C3205 C3206 1.376 . S
C3206 H3193 0.930 . S
C3206 C3205 1.376 . S
C3206 C3207 1.388 . S
C3207 H3194 0.930 . S
C3207 C3206 1.388 . S
C3207 C3208 1.390 . S
C3208 C3207 1.390 . S
C3208 C3209 1.394 . S
C3208 C3214 1.465 . S
C3209 C3204 1.399 . S
C3209 C3208 1.394 . S
C3209 C3210 1.516 . S
C3210 C3209 1.516 . S
C3210 C3211 1.502 . S
C3210 C3212 1.561 . S
C3210 C3213 1.526 . S
C3211 H3195 0.959 . S
C3211 H3196 0.959 . S
C3211 H3197 0.961 . S
C3211 C3210 1.502 . S
C3212 H3198 0.960 . S
C3212 H3199 0.961 . S
C3212 H3200 0.959 . S
C3212 C3210 1.561 . S
C3213 C3210 1.526 . S
C3213 C3214 1.396 . S
C3213 C3218 1.390 . S
C3214 C3208 1.465 . S
C3214 C3213 1.396 . S
C3214 C3215 1.399 . S
C3215 H3201 0.929 . S
C3215 C3214 1.399 . S
C3215 C3216 1.385 . S
C3216 H3202 0.931 . S
C3216 C3215 1.385 . S
C3216 C3217 1.389 . S
C3217 C3216 1.389 . S
C3217 C3218 1.387 . S
C3218 H3203 0.930 . S
C3218 C3213 1.390 . S
C3218 C3217 1.387 . S
H3219 C3231 0.930 . S
H3220 C3233 0.930 . S
H3221 C3234 0.931 . S
H3222 C3238 0.959 . S
H3223 C3238 0.959 . S
H3224 C3238 0.961 . S
H3225 C3239 0.960 . S
H3226 C3239 0.961 . S
H3227 C3239 0.959 . S
H3228 C3242 0.929 . S
H3229 C3243 0.931 . S
H3230 C3245 0.930 . S
C3231 H3219 0.930 . S
C3231 C3232 1.399 1_556 S
C3231 C3236 1.399 . S
C3232 C3231 1.399 1_554 S
C3232 C3233 1.376 . S
C3233 H3220 0.930 . S
C3233 C3232 1.376 . S
C3233 C3234 1.393 . S
C3234 H3221 0.931 . S
C3234 C3233 1.393 . S
C3234 C3235 1.384 1_554 S
C3235 C3234 1.384 1_556 S
C3235 C3236 1.394 . S
C3235 C3241 1.465 . S
C3236 C3231 1.399 . S
C3236 C3235 1.394 . S
C3236 C3237 1.516 . S
C3237 C3236 1.516 . S
C3237 C3238 1.502 . S
C3237 C3239 1.561 . S
C3237 C3240 1.526 . S
C3238 H3222 0.959 . S
C3238 H3223 0.959 . S
C3238 H3224 0.961 . S
C3238 C3237 1.502 . S
C3239 H3225 0.960 . S
C3239 H3226 0.961 . S
C3239 H3227 0.959 . S
C3239 C3237 1.561 . S
C3240 C3237 1.526 . S
C3240 C3241 1.396 . S
C3240 C3245 1.390 . S
C3241 C3235 1.465 . S
C3241 C3240 1.396 . S
C3241 C3242 1.399 . S
C3242 H3228 0.929 . S
C3242 C3241 1.399 . S
C3242 C3243 1.385 . S
C3243 H3229 0.931 . S
C3243 C3242 1.385 . S
C3243 C3244 1.389 . S
C3244 C3243 1.389 . S
C3244 C3245 1.387 . S
C3245 H3230 0.930 . S
C3245 C3240 1.390 . S
C3245 C3244 1.387 . S
H3246 C3258 0.930 . S
H3247 C3260 0.930 . S
H3248 C3261 0.930 . S
H3249 C3265 0.959 . S
H3250 C3265 0.959 . S
H3251 C3265 0.961 . S
H3252 C3266 0.960 . S
H3253 C3266 0.961 . S
H3254 C3266 0.959 . S
H3255 C3269 0.929 . S
H3256 C3270 0.931 . S
H3257 C3272 0.930 . S
C3258 H3246 0.930 . S
C3258 C3259 1.399 . S
C3258 C3263 1.399 . S
C3259 C3258 1.399 . S
C3259 C3260 1.376 . S
C3260 H3247 0.930 . S
C3260 C3259 1.376 . S
C3260 C3261 1.388 . S
C3261 H3248 0.930 . S
C3261 C3260 1.388 . S
C3261 C3262 1.390 . S
C3262 C3261 1.390 . S
C3262 C3263 1.394 . S
C3262 C3268 1.465 . S
C3263 C3258 1.399 . S
C3263 C3262 1.394 . S
C3263 C3264 1.516 . S
C3264 C3263 1.516 . S
C3264 C3265 1.502 . S
C3264 C3266 1.561 . S
C3264 C3267 1.526 . S
C3265 H3249 0.959 . S
C3265 H3250 0.959 . S
C3265 H3251 0.961 . S
C3265 C3264 1.502 . S
C3266 H3252 0.960 . S
C3266 H3253 0.961 . S
C3266 H3254 0.959 . S
C3266 C3264 1.561 . S
C3267 C3264 1.526 . S
C3267 C3268 1.396 . S
C3267 C3272 1.390 . S
C3268 C3262 1.465 . S
C3268 C3267 1.396 . S
C3268 C3269 1.399 . S
C3269 H3255 0.929 . S
C3269 C3268 1.399 . S
C3269 C3270 1.385 . S
C3270 H3256 0.931 . S
C3270 C3269 1.385 . S
C3270 C3271 1.389 . S
C3271 C3270 1.389 . S
C3271 C3272 1.387 . S
C3272 H3257 0.930 . S
C3272 C3267 1.390 . S
C3272 C3271 1.387 . S
H3273 C3285 0.930 . S
H3274 C3287 0.930 . S
H3275 C3288 0.930 . S
H3276 C3292 0.959 . S
H3277 C3292 0.959 . S
H3278 C3292 0.961 . S
H3279 C3293 0.960 . S
H3280 C3293 0.961 . S
H3281 C3293 0.959 . S
H3282 C3296 0.929 . S
H3283 C3297 0.931 . S
H3284 C3299 0.930 . S
C3285 H3273 0.930 . S
C3285 C3286 1.399 . S
C3285 C3290 1.399 . S
C3286 C3285 1.399 . S
C3286 C3287 1.376 . S
C3287 H3274 0.930 . S
C3287 C3286 1.376 . S
C3287 C3288 1.388 . S
C3288 H3275 0.930 . S
C3288 C3287 1.388 . S
C3288 C3289 1.390 . S
C3289 C3288 1.390 . S
C3289 C3290 1.394 . S
C3289 C3295 1.465 . S
C3290 C3285 1.399 . S
C3290 C3289 1.394 . S
C3290 C3291 1.516 . S
C3291 C3290 1.516 . S
C3291 C3292 1.502 . S
C3291 C3293 1.561 . S
C3291 C3294 1.526 . S
C3292 H3276 0.959 . S
C3292 H3277 0.959 . S
C3292 H3278 0.961 . S
C3292 C3291 1.502 . S
C3293 H3279 0.960 . S
C3293 H3280 0.961 . S
C3293 H3281 0.959 . S
C3293 C3291 1.561 . S
C3294 C3291 1.526 . S
C3294 C3295 1.396 . S
C3294 C3299 1.390 . S
C3295 C3289 1.465 . S
C3295 C3294 1.396 . S
C3295 C3296 1.399 . S
C3296 H3282 0.929 . S
C3296 C3295 1.399 . S
C3296 C3297 1.385 . S
C3297 H3283 0.931 . S
C3297 C3296 1.385 . S
C3297 C3298 1.389 . S
C3298 C3297 1.389 . S
C3298 C3299 1.387 . S
C3299 H3284 0.930 . S
C3299 C3294 1.390 . S
C3299 C3298 1.387 . S
H3300 C3312 0.930 . S
H3301 C3314 0.930 . S
H3302 C3315 0.930 . S
H3303 C3319 0.959 . S
H3304 C3319 0.959 . S
H3305 C3319 0.961 . S
H3306 C3320 0.960 . S
H3307 C3320 0.961 . S
H3308 C3320 0.959 . S
H3309 C3323 0.929 . S
H3310 C3324 0.931 . S
H3311 C3326 0.930 . S
C3312 H3300 0.930 . S
C3312 C3313 1.399 . S
C3312 C3317 1.399 . S
C3313 C3312 1.399 . S
C3313 C3314 1.376 . S
C3314 H3301 0.930 . S
C3314 C3313 1.376 . S
C3314 C3315 1.388 . S
C3315 H3302 0.930 . S
C3315 C3314 1.388 . S
C3315 C3316 1.390 . S
C3316 C3315 1.390 . S
C3316 C3317 1.394 . S
C3316 C3322 1.465 . S
C3317 C3312 1.399 . S
C3317 C3316 1.394 . S
C3317 C3318 1.516 . S
C3318 C3317 1.516 . S
C3318 C3319 1.502 . S
C3318 C3320 1.561 . S
C3318 C3321 1.526 . S
C3319 H3303 0.959 . S
C3319 H3304 0.959 . S
C3319 H3305 0.961 . S
C3319 C3318 1.502 . S
C3320 H3306 0.960 . S
C3320 H3307 0.961 . S
C3320 H3308 0.959 . S
C3320 C3318 1.561 . S
C3321 C3318 1.526 . S
C3321 C3322 1.396 . S
C3321 C3326 1.390 . S
C3322 C3316 1.465 . S
C3322 C3321 1.396 . S
C3322 C3323 1.399 . S
C3323 H3309 0.929 . S
C3323 C3322 1.399 . S
C3323 C3324 1.385 . S
C3324 H3310 0.931 . S
C3324 C3323 1.385 . S
C3324 C3325 1.389 . S
C3325 C3324 1.389 . S
C3325 C3326 1.387 . S
C3326 H3311 0.930 . S
C3326 C3321 1.390 . S
C3326 C3325 1.387 . S
H3327 C3339 0.930 . S
H3328 C3341 0.930 . S
H3329 C3342 0.930 . S
H3330 C3346 0.959 . S
H3331 C3346 0.959 . S
H3332 C3346 0.961 . S
H3333 C3347 0.960 . S
H3334 C3347 0.961 . S
H3335 C3347 0.959 . S
H3336 C3350 0.929 . S
H3337 C3351 0.931 . S
H3338 C3353 0.930 . S
C3339 H3327 0.930 . S
C3339 C3340 1.399 . S
C3339 C3344 1.399 . S
C3340 C3339 1.399 . S
C3340 C3341 1.376 . S
C3341 H3328 0.930 . S
C3341 C3340 1.376 . S
C3341 C3342 1.388 . S
C3342 H3329 0.930 . S
C3342 C3341 1.388 . S
C3342 C3343 1.390 . S
C3343 C3342 1.390 . S
C3343 C3344 1.394 . S
C3343 C3349 1.465 . S
C3344 C3339 1.399 . S
C3344 C3343 1.394 . S
C3344 C3345 1.516 . S
C3345 C3344 1.516 . S
C3345 C3346 1.502 . S
C3345 C3347 1.561 . S
C3345 C3348 1.526 . S
C3346 H3330 0.959 . S
C3346 H3331 0.959 . S
C3346 H3332 0.961 . S
C3346 C3345 1.502 . S
C3347 H3333 0.960 . S
C3347 H3334 0.961 . S
C3347 H3335 0.959 . S
C3347 C3345 1.561 . S
C3348 C3345 1.526 . S
C3348 C3349 1.396 . S
C3348 C3353 1.390 . S
C3349 C3343 1.465 . S
C3349 C3348 1.396 . S
C3349 C3350 1.399 . S
C3350 H3336 0.929 . S
C3350 C3349 1.399 . S
C3350 C3351 1.385 . S
C3351 H3337 0.931 . S
C3351 C3350 1.385 . S
C3351 C3352 1.389 . S
C3352 C3351 1.389 . S
C3352 C3353 1.387 . S
C3353 H3338 0.930 . S
C3353 C3348 1.390 . S
C3353 C3352 1.387 . S
H3354 C3366 0.930 . S
H3355 C3368 0.930 . S
H3356 C3369 0.930 . S
H3357 C3373 0.959 . S
H3358 C3373 0.959 . S
H3359 C3373 0.961 . S
H3360 C3374 0.960 . S
H3361 C3374 0.961 . S
H3362 C3374 0.959 . S
H3363 C3377 0.929 . S
H3364 C3378 0.931 . S
H3365 C3380 0.930 . S
C3366 H3354 0.930 . S
C3366 C3367 1.399 . S
C3366 C3371 1.399 . S
C3367 C3366 1.399 . S
C3367 C3368 1.376 . S
C3368 H3355 0.930 . S
C3368 C3367 1.376 . S
C3368 C3369 1.388 . S
C3369 H3356 0.930 . S
C3369 C3368 1.388 . S
C3369 C3370 1.390 . S
C3370 C3369 1.390 . S
C3370 C3371 1.394 . S
C3370 C3376 1.465 . S
C3371 C3366 1.399 . S
C3371 C3370 1.394 . S
C3371 C3372 1.516 . S
C3372 C3371 1.516 . S
C3372 C3373 1.502 . S
C3372 C3374 1.561 . S
C3372 C3375 1.526 . S
C3373 H3357 0.959 . S
C3373 H3358 0.959 . S
C3373 H3359 0.961 . S
C3373 C3372 1.502 . S
C3374 H3360 0.960 . S
C3374 H3361 0.961 . S
C3374 H3362 0.959 . S
C3374 C3372 1.561 . S
C3375 C3372 1.526 . S
C3375 C3376 1.396 . S
C3375 C3380 1.390 . S
C3376 C3370 1.465 . S
C3376 C3375 1.396 . S
C3376 C3377 1.399 . S
C3377 H3363 0.929 . S
C3377 C3376 1.399 . S
C3377 C3378 1.385 . S
C3378 H3364 0.931 . S
C3378 C3377 1.385 . S
C3378 C3379 1.389 . S
C3379 C3378 1.389 . S
C3379 C3380 1.387 . S
C3380 H3365 0.930 . S
C3380 C3375 1.390 . S
C3380 C3379 1.387 . S
H3381 C3393 0.930 . S
H3382 C3395 0.930 . S
H3383 C3396 0.930 . S
H3384 C3400 0.959 . S
H3385 C3400 0.959 . S
H3386 C3400 0.961 . S
H3387 C3401 0.960 . S
H3388 C3401 0.961 . S
H3389 C3401 0.959 . S
H3390 C3404 0.929 . S
H3391 C3405 0.931 . S
H3392 C3407 0.930 . S
C3393 H3381 0.930 . S
C3393 C3394 1.399 . S
C3393 C3398 1.399 . S
C3394 C3393 1.399 . S
C3394 C3395 1.376 . S
C3395 H3382 0.930 . S
C3395 C3394 1.376 . S
C3395 C3396 1.388 . S
C3396 H3383 0.930 . S
C3396 C3395 1.388 . S
C3396 C3397 1.390 . S
C3397 C3396 1.390 . S
C3397 C3398 1.394 . S
C3397 C3403 1.465 . S
C3398 C3393 1.399 . S
C3398 C3397 1.394 . S
C3398 C3399 1.516 . S
C3399 C3398 1.516 . S
C3399 C3400 1.502 . S
C3399 C3401 1.561 . S
C3399 C3402 1.526 . S
C3400 H3384 0.959 . S
C3400 H3385 0.959 . S
C3400 H3386 0.961 . S
C3400 C3399 1.502 . S
C3401 H3387 0.960 . S
C3401 H3388 0.961 . S
C3401 H3389 0.959 . S
C3401 C3399 1.561 . S
C3402 C3399 1.526 . S
C3402 C3403 1.396 . S
C3402 C3407 1.390 . S
C3403 C3397 1.465 . S
C3403 C3402 1.396 . S
C3403 C3404 1.399 . S
C3404 H3390 0.929 . S
C3404 C3403 1.399 . S
C3404 C3405 1.385 . S
C3405 H3391 0.931 . S
C3405 C3404 1.385 . S
C3405 C3406 1.389 . S
C3406 C3405 1.389 . S
C3406 C3407 1.387 . S
C3407 H3392 0.930 . S
C3407 C3402 1.390 . S
C3407 C3406 1.387 . S
H3408 C3420 0.930 . S
H3409 C3422 0.930 . S
H3410 C3423 0.930 . S
H3411 C3427 0.959 . S
H3412 C3427 0.959 . S
H3413 C3427 0.961 . S
H3414 C3428 0.960 . S
H3415 C3428 0.961 . S
H3416 C3428 0.959 . S
H3417 C3431 0.929 . S
H3418 C3432 0.931 . S
H3419 C3434 0.930 . S
C3420 H3408 0.930 . S
C3420 C3421 1.399 . S
C3420 C3425 1.399 . S
C3421 C3420 1.399 . S
C3421 C3422 1.376 . S
C3422 H3409 0.930 . S
C3422 C3421 1.376 . S
C3422 C3423 1.388 . S
C3423 H3410 0.930 . S
C3423 C3422 1.388 . S
C3423 C3424 1.390 . S
C3424 C3423 1.390 . S
C3424 C3425 1.394 . S
C3424 C3430 1.465 . S
C3425 C3420 1.399 . S
C3425 C3424 1.394 . S
C3425 C3426 1.516 . S
C3426 C3425 1.516 . S
C3426 C3427 1.502 . S
C3426 C3428 1.561 . S
C3426 C3429 1.526 . S
C3427 H3411 0.959 . S
C3427 H3412 0.959 . S
C3427 H3413 0.961 . S
C3427 C3426 1.502 . S
C3428 H3414 0.960 . S
C3428 H3415 0.961 . S
C3428 H3416 0.959 . S
C3428 C3426 1.561 . S
C3429 C3426 1.526 . S
C3429 C3430 1.396 . S
C3429 C3434 1.390 . S
C3430 C3424 1.465 . S
C3430 C3429 1.396 . S
C3430 C3431 1.399 . S
C3431 H3417 0.929 . S
C3431 C3430 1.399 . S
C3431 C3432 1.385 . S
C3432 H3418 0.931 . S
C3432 C3431 1.385 . S
C3432 C3433 1.389 . S
C3433 C3432 1.389 . S
C3433 C3434 1.387 . S
C3434 H3419 0.930 . S
C3434 C3429 1.390 . S
C3434 C3433 1.387 . S
H3435 C3447 0.930 . S
H3436 C3449 0.930 . S
H3437 C3450 0.930 . S
H3438 C3454 0.959 . S
H3439 C3454 0.959 . S
H3440 C3454 0.961 . S
H3441 C3455 0.960 . S
H3442 C3455 0.961 . S
H3443 C3455 0.959 . S
H3444 C3458 0.929 . S
H3445 C3459 0.931 . S
H3446 C3461 0.930 . S
C3447 H3435 0.930 . S
C3447 C3448 1.399 . S
C3447 C3452 1.399 . S
C3448 C3447 1.399 . S
C3448 C3449 1.376 . S
C3449 H3436 0.930 . S
C3449 C3448 1.376 . S
C3449 C3450 1.388 . S
C3450 H3437 0.930 . S
C3450 C3449 1.388 . S
C3450 C3451 1.390 . S
C3451 C3450 1.390 . S
C3451 C3452 1.394 . S
C3451 C3457 1.465 . S
C3452 C3447 1.399 . S
C3452 C3451 1.394 . S
C3452 C3453 1.516 . S
C3453 C3452 1.516 . S
C3453 C3454 1.502 . S
C3453 C3455 1.561 . S
C3453 C3456 1.526 . S
C3454 H3438 0.959 . S
C3454 H3439 0.959 . S
C3454 H3440 0.961 . S
C3454 C3453 1.502 . S
C3455 H3441 0.960 . S
C3455 H3442 0.961 . S
C3455 H3443 0.959 . S
C3455 C3453 1.561 . S
C3456 C3453 1.526 . S
C3456 C3457 1.396 . S
C3456 C3461 1.390 . S
C3457 C3451 1.465 . S
C3457 C3456 1.396 . S
C3457 C3458 1.399 . S
C3458 H3444 0.929 . S
C3458 C3457 1.399 . S
C3458 C3459 1.385 . S
C3459 H3445 0.931 . S
C3459 C3458 1.385 . S
C3459 C3460 1.389 . S
C3460 C3459 1.389 . S
C3460 C3461 1.387 . S
C3461 H3446 0.930 . S
C3461 C3456 1.390 . S
C3461 C3460 1.387 . S
H3462 C3474 0.930 . S
H3463 C3476 0.930 . S
H3464 C3477 0.930 . S
H3465 C3481 0.959 . S
H3466 C3481 0.959 . S
H3467 C3481 0.961 . S
H3468 C3482 0.960 . S
H3469 C3482 0.961 . S
H3470 C3482 0.959 . S
H3471 C3485 0.929 . S
H3472 C3486 0.931 . S
H3473 C3488 0.930 . S
C3474 H3462 0.930 . S
C3474 C3475 1.399 . S
C3474 C3479 1.399 . S
C3475 C3474 1.399 . S
C3475 C3476 1.376 . S
C3476 H3463 0.930 . S
C3476 C3475 1.376 . S
C3476 C3477 1.388 . S
C3477 H3464 0.930 . S
C3477 C3476 1.388 . S
C3477 C3478 1.390 . S
C3478 C3477 1.390 . S
C3478 C3479 1.394 . S
C3478 C3484 1.465 . S
C3479 C3474 1.399 . S
C3479 C3478 1.394 . S
C3479 C3480 1.516 . S
C3480 C3479 1.516 . S
C3480 C3481 1.502 . S
C3480 C3482 1.561 . S
C3480 C3483 1.526 . S
C3481 H3465 0.959 . S
C3481 H3466 0.959 . S
C3481 H3467 0.961 . S
C3481 C3480 1.502 . S
C3482 H3468 0.960 . S
C3482 H3469 0.961 . S
C3482 H3470 0.959 . S
C3482 C3480 1.561 . S
C3483 C3480 1.526 . S
C3483 C3484 1.396 . S
C3483 C3488 1.390 . S
C3484 C3478 1.465 . S
C3484 C3483 1.396 . S
C3484 C3485 1.399 . S
C3485 H3471 0.929 . S
C3485 C3484 1.399 . S
C3485 C3486 1.385 . S
C3486 H3472 0.931 . S
C3486 C3485 1.385 . S
C3486 C3487 1.389 . S
C3487 C3486 1.389 . S
C3487 C3488 1.387 . S
C3488 H3473 0.930 . S
C3488 C3483 1.390 . S
C3488 C3487 1.387 . S
H3489 C3501 0.938 . S
H3490 C3503 0.930 . S
H3491 C3504 0.930 . S
H3492 C3508 0.959 1_565 S
H3493 C3508 0.959 . S
H3494 C3508 0.961 . S
H3495 C3509 0.960 . S
H3496 C3509 0.961 . S
H3497 C3509 0.959 . S
H3498 C3512 0.929 . S
H3499 C3513 0.931 . S
H3500 C3515 0.930 . S
C3501 H3489 0.938 . S
C3501 C3502 1.393 1_556 S
C3501 C3506 1.397 1_556 S
C3502 C3501 1.393 1_554 S
C3502 C3503 1.376 . S
C3503 H3490 0.930 . S
C3503 C3502 1.376 . S
C3503 C3504 1.388 . S
C3504 H3491 0.930 . S
C3504 C3503 1.388 . S
C3504 C3505 1.390 . S
C3505 C3504 1.390 . S
C3505 C3506 1.394 . S
C3505 C3511 1.465 . S
C3506 C3501 1.397 1_554 S
C3506 C3505 1.394 . S
C3506 C3507 1.516 1_565 S
C3507 C3506 1.516 1_545 S
C3507 C3508 1.502 1_554 S
C3507 C3509 1.561 . S
C3507 C3510 1.526 . S
C3508 H3492 0.959 1_545 S
C3508 H3493 0.959 . S
C3508 H3494 0.961 . S
C3508 C3507 1.502 1_556 S
C3509 H3495 0.960 . S
C3509 H3496 0.961 . S
C3509 H3497 0.959 . S
C3509 C3507 1.561 . S
C3510 C3507 1.526 . S
C3510 C3511 1.396 1_545 S
C3510 C3515 1.390 . S
C3511 C3505 1.465 . S
C3511 C3510 1.396 1_565 S
C3511 C3512 1.399 . S
C3512 H3498 0.929 . S
C3512 C3511 1.399 . S
C3512 C3513 1.385 . S
C3513 H3499 0.931 . S
C3513 C3512 1.385 . S
C3513 C3514 1.389 1_565 S
C3514 C3513 1.389 1_545 S
C3514 C3515 1.387 . S
C3515 H3500 0.930 . S
C3515 C3510 1.390 . S
C3515 C3514 1.387 . S
H3516 C3528 0.930 . S
H3517 C3530 0.930 . S
H3518 C3531 0.930 . S
H3519 C3535 0.959 . S
H3520 C3535 0.959 . S
H3521 C3535 0.961 . S
H3522 C3536 0.960 . S
H3523 C3536 0.961 . S
H3524 C3536 0.959 . S
H3525 C3539 0.929 . S
H3526 C3540 0.931 . S
H3527 C3542 0.930 . S
C3528 H3516 0.930 . S
C3528 C3529 1.399 . S
C3528 C3533 1.399 . S
C3529 C3528 1.399 . S
C3529 C3530 1.376 . S
C3530 H3517 0.930 . S
C3530 C3529 1.376 . S
C3530 C3531 1.388 . S
C3531 H3518 0.930 . S
C3531 C3530 1.388 . S
C3531 C3532 1.390 . S
C3532 C3531 1.390 . S
C3532 C3533 1.394 . S
C3532 C3538 1.465 . S
C3533 C3528 1.399 . S
C3533 C3532 1.394 . S
C3533 C3534 1.516 . S
C3534 C3533 1.516 . S
C3534 C3535 1.502 . S
C3534 C3536 1.561 . S
C3534 C3537 1.526 . S
C3535 H3519 0.959 . S
C3535 H3520 0.959 . S
C3535 H3521 0.961 . S
C3535 C3534 1.502 . S
C3536 H3522 0.960 . S
C3536 H3523 0.961 . S
C3536 H3524 0.959 . S
C3536 C3534 1.561 . S
C3537 C3534 1.526 . S
C3537 C3538 1.396 . S
C3537 C3542 1.390 . S
C3538 C3532 1.465 . S
C3538 C3537 1.396 . S
C3538 C3539 1.399 . S
C3539 H3525 0.929 . S
C3539 C3538 1.399 . S
C3539 C3540 1.385 . S
C3540 H3526 0.931 . S
C3540 C3539 1.385 . S
C3540 C3541 1.389 . S
C3541 C3540 1.389 . S
C3541 C3542 1.387 . S
C3542 H3527 0.930 . S
C3542 C3537 1.390 . S
C3542 C3541 1.387 . S
H3543 C3555 0.930 1_556 S
H3544 C3557 0.930 . S
H3545 C3558 0.930 . S
H3546 C3562 0.959 . S
H3547 C3562 0.959 . S
H3548 C3562 0.961 . S
H3549 C3563 0.960 . S
H3550 C3563 0.961 . S
H3551 C3563 0.967 . S
H3552 C3566 0.929 . S
H3553 C3567 0.931 . S
H3554 C3569 0.930 . S
C3555 H3543 0.930 1_554 S
C3555 C3556 1.399 . S
C3555 C3560 1.399 . S
C3556 C3555 1.399 . S
C3556 C3557 1.376 . S
C3557 H3544 0.930 . S
C3557 C3556 1.376 . S
C3557 C3558 1.388 . S
C3558 H3545 0.930 . S
C3558 C3557 1.388 . S
C3558 C3559 1.390 . S
C3559 C3558 1.390 . S
C3559 C3560 1.394 . S
C3559 C3565 1.465 . S
C3560 C3555 1.399 . S
C3560 C3559 1.394 . S
C3560 C3561 1.541 . S
C3561 C3560 1.541 . S
C3561 C3562 1.477 1_554 S
C3561 C3563 1.533 1_554 S
C3561 C3564 1.560 . S
C3562 H3546 0.959 . S
C3562 H3547 0.959 . S
C3562 H3548 0.961 . S
C3562 C3561 1.477 1_556 S
C3563 H3549 0.960 . S
C3563 H3550 0.961 . S
C3563 H3551 0.967 . S
C3563 C3561 1.533 1_556 S
C3564 C3561 1.560 . S
C3564 C3565 1.396 . S
C3564 C3569 1.390 . S
C3565 C3559 1.465 . S
C3565 C3564 1.396 . S
C3565 C3566 1.399 . S
C3566 H3552 0.929 . S
C3566 C3565 1.399 . S
C3566 C3567 1.385 . S
C3567 H3553 0.931 . S
C3567 C3566 1.385 . S
C3567 C3568 1.389 . S
C3568 C3567 1.389 . S
C3568 C3569 1.387 . S
C3569 H3554 0.930 . S
C3569 C3564 1.390 . S
C3569 C3568 1.387 . S
H3570 C3582 0.930 . S
H3571 C3584 0.930 . S
H3572 C3585 0.930 . S
H3573 C3589 0.959 . S
H3574 C3589 0.959 . S
H3575 C3589 0.961 . S
H3576 C3590 0.960 . S
H3577 C3590 0.961 . S
H3578 C3590 0.959 . S
H3579 C3593 0.929 . S
H3580 C3594 0.931 . S
H3581 C3596 0.930 . S
C3582 H3570 0.930 . S
C3582 C3583 1.399 . S
C3582 C3587 1.399 . S
C3583 C3582 1.399 . S
C3583 C3584 1.376 . S
C3584 H3571 0.930 . S
C3584 C3583 1.376 . S
C3584 C3585 1.388 . S
C3585 H3572 0.930 . S
C3585 C3584 1.388 . S
C3585 C3586 1.390 . S
C3586 C3585 1.390 . S
C3586 C3587 1.394 . S
C3586 C3592 1.465 . S
C3587 C3582 1.399 . S
C3587 C3586 1.394 . S
C3587 C3588 1.516 . S
C3588 C3587 1.516 . S
C3588 C3589 1.502 . S
C3588 C3590 1.561 . S
C3588 C3591 1.526 . S
C3589 H3573 0.959 . S
C3589 H3574 0.959 . S
C3589 H3575 0.961 . S
C3589 C3588 1.502 . S
C3590 H3576 0.960 . S
C3590 H3577 0.961 . S
C3590 H3578 0.959 . S
C3590 C3588 1.561 . S
C3591 C3588 1.526 . S
C3591 C3592 1.396 . S
C3591 C3596 1.390 . S
C3592 C3586 1.465 . S
C3592 C3591 1.396 . S
C3592 C3593 1.399 . S
C3593 H3579 0.929 . S
C3593 C3592 1.399 . S
C3593 C3594 1.385 . S
C3594 H3580 0.931 . S
C3594 C3593 1.385 . S
C3594 C3595 1.389 . S
C3595 C3594 1.389 . S
C3595 C3596 1.387 . S
C3596 H3581 0.930 . S
C3596 C3591 1.390 . S
C3596 C3595 1.387 . S
H3597 C3609 0.930 . S
H3598 C3611 0.930 . S
H3599 C3612 0.930 . S
H3600 C3616 0.959 . S
H3601 C3616 0.959 . S
H3602 C3616 0.961 . S
H3603 C3617 0.960 . S
H3604 C3617 0.961 . S
H3605 C3617 0.959 . S
H3606 C3620 0.929 . S
H3607 C3621 0.931 . S
H3608 C3623 0.930 . S
C3609 H3597 0.930 . S
C3609 C3610 1.399 . S
C3609 C3614 1.399 . S
C3610 C3609 1.399 . S
C3610 C3611 1.376 . S
C3611 H3598 0.930 . S
C3611 C3610 1.376 . S
C3611 C3612 1.388 . S
C3612 H3599 0.930 . S
C3612 C3611 1.388 . S
C3612 C3613 1.390 . S
C3613 C3612 1.390 . S
C3613 C3614 1.394 . S
C3613 C3619 1.465 . S
C3614 C3609 1.399 . S
C3614 C3613 1.394 . S
C3614 C3615 1.516 . S
C3615 C3614 1.516 . S
C3615 C3616 1.502 . S
C3615 C3617 1.561 . S
C3615 C3618 1.526 . S
C3616 H3600 0.959 . S
C3616 H3601 0.959 . S
C3616 H3602 0.961 . S
C3616 C3615 1.502 . S
C3617 H3603 0.960 . S
C3617 H3604 0.961 . S
C3617 H3605 0.959 . S
C3617 C3615 1.561 . S
C3618 C3615 1.526 . S
C3618 C3619 1.396 . S
C3618 C3623 1.390 . S
C3619 C3613 1.465 . S
C3619 C3618 1.396 . S
C3619 C3620 1.399 . S
C3620 H3606 0.929 . S
C3620 C3619 1.399 . S
C3620 C3621 1.385 . S
C3621 H3607 0.931 . S
C3621 C3620 1.385 . S
C3621 C3622 1.389 . S
C3622 C3621 1.389 . S
C3622 C3623 1.387 . S
C3623 H3608 0.930 . S
C3623 C3618 1.390 . S
C3623 C3622 1.387 . S
H3624 C3636 0.930 . S
H3625 C3638 0.930 . S
H3626 C3639 0.930 . S
H3627 C3643 0.959 . S
H3628 C3643 0.959 . S
H3629 C3643 0.961 . S
H3630 C3644 0.960 . S
H3631 C3644 0.961 . S
H3632 C3644 0.959 . S
H3633 C3647 0.929 . S
H3634 C3648 0.931 . S
H3635 C3650 0.930 . S
C3636 H3624 0.930 . S
C3636 C3637 1.399 . S
C3636 C3641 1.399 . S
C3637 C3636 1.399 . S
C3637 C3638 1.376 . S
C3638 H3625 0.930 . S
C3638 C3637 1.376 . S
C3638 C3639 1.388 . S
C3639 H3626 0.930 . S
C3639 C3638 1.388 . S
C3639 C3640 1.390 . S
C3640 C3639 1.390 . S
C3640 C3641 1.394 . S
C3640 C3646 1.465 . S
C3641 C3636 1.399 . S
C3641 C3640 1.394 . S
C3641 C3642 1.516 . S
C3642 C3641 1.516 . S
C3642 C3643 1.502 . S
C3642 C3644 1.561 . S
C3642 C3645 1.526 . S
C3643 H3627 0.959 . S
C3643 H3628 0.959 . S
C3643 H3629 0.961 . S
C3643 C3642 1.502 . S
C3644 H3630 0.960 . S
C3644 H3631 0.961 . S
C3644 H3632 0.959 . S
C3644 C3642 1.561 . S
C3645 C3642 1.526 . S
C3645 C3646 1.396 . S
C3645 C3650 1.390 . S
C3646 C3640 1.465 . S
C3646 C3645 1.396 . S
C3646 C3647 1.399 . S
C3647 H3633 0.929 . S
C3647 C3646 1.399 . S
C3647 C3648 1.385 . S
C3648 H3634 0.931 . S
C3648 C3647 1.385 . S
C3648 C3649 1.389 . S
C3649 C3648 1.389 . S
C3649 C3650 1.387 . S
C3650 H3635 0.930 . S
C3650 C3645 1.390 . S
C3650 C3649 1.387 . S
H3651 C3663 0.930 . S
H3652 C3665 0.930 . S
H3653 C3666 0.930 . S
H3654 C3670 0.959 . S
H3655 C3670 0.959 . S
H3656 C3670 0.961 . S
H3657 C3671 0.960 . S
H3658 C3671 0.961 . S
H3659 C3671 0.959 . S
H3660 C3674 0.929 . S
H3661 C3675 0.931 . S
H3662 C3677 0.930 . S
C3663 H3651 0.930 . S
C3663 C3664 1.399 . S
C3663 C3668 1.399 . S
C3664 C3663 1.399 . S
C3664 C3665 1.376 . S
C3665 H3652 0.930 . S
C3665 C3664 1.376 . S
C3665 C3666 1.388 . S
C3666 H3653 0.930 . S
C3666 C3665 1.388 . S
C3666 C3667 1.390 . S
C3667 C3666 1.390 . S
C3667 C3668 1.394 . S
C3667 C3673 1.465 . S
C3668 C3663 1.399 . S
C3668 C3667 1.394 . S
C3668 C3669 1.516 . S
C3669 C3668 1.516 . S
C3669 C3670 1.502 . S
C3669 C3671 1.561 . S
C3669 C3672 1.526 . S
C3670 H3654 0.959 . S
C3670 H3655 0.959 . S
C3670 H3656 0.961 . S
C3670 C3669 1.502 . S
C3671 H3657 0.960 . S
C3671 H3658 0.961 . S
C3671 H3659 0.959 . S
C3671 C3669 1.561 . S
C3672 C3669 1.526 . S
C3672 C3673 1.396 . S
C3672 C3677 1.390 . S
C3673 C3667 1.465 . S
C3673 C3672 1.396 . S
C3673 C3674 1.399 . S
C3674 H3660 0.929 . S
C3674 C3673 1.399 . S
C3674 C3675 1.385 . S
C3675 H3661 0.931 . S
C3675 C3674 1.385 . S
C3675 C3676 1.389 . S
C3676 C3675 1.389 . S
C3676 C3677 1.387 . S
C3677 H3662 0.930 . S
C3677 C3672 1.390 . S
C3677 C3676 1.387 . S
H3678 C3690 0.930 . S
H3679 C3692 0.930 . S
H3680 C3693 0.930 . S
H3681 C3697 0.933 1_655 S
H3682 C3697 0.959 . S
H3683 C3697 0.961 . S
H3684 C3698 0.960 . S
H3685 C3698 0.961 . S
H3686 C3698 0.959 . S
H3687 C3701 0.929 . S
H3688 C3702 0.931 . S
H3689 C3704 0.930 . S
C3690 H3678 0.930 . S
C3690 C3691 1.399 . S
C3690 C3695 1.399 . S
C3691 C3690 1.399 . S
C3691 C3692 1.376 . S
C3692 H3679 0.930 . S
C3692 C3691 1.376 . S
C3692 C3693 1.388 . S
C3693 H3680 0.930 . S
C3693 C3692 1.388 . S
C3693 C3694 1.390 . S
C3694 C3693 1.390 . S
C3694 C3695 1.394 . S
C3694 C3700 1.465 . S
C3695 C3690 1.399 . S
C3695 C3694 1.394 . S
C3695 C3696 1.516 . S
C3696 C3695 1.516 . S
C3696 C3697 1.502 . S
C3696 C3698 1.561 . S
C3696 C3699 1.526 . S
C3697 H3681 0.933 1_455 S
C3697 H3682 0.959 . S
C3697 H3683 0.961 . S
C3697 C3696 1.502 . S
C3698 H3684 0.960 . S
C3698 H3685 0.961 . S
C3698 H3686 0.959 . S
C3698 C3696 1.561 . S
C3699 C3696 1.526 . S
C3699 C3700 1.396 . S
C3699 C3704 1.390 . S
C3700 C3694 1.465 . S
C3700 C3699 1.396 . S
C3700 C3701 1.399 . S
C3701 H3687 0.929 . S
C3701 C3700 1.399 . S
C3701 C3702 1.385 . S
C3702 H3688 0.931 . S
C3702 C3701 1.385 . S
C3702 C3703 1.389 . S
C3703 C3702 1.389 . S
C3703 C3704 1.387 . S
C3704 H3689 0.930 . S
C3704 C3699 1.390 . S
C3704 C3703 1.387 . S
H3705 C3717 0.930 . S
H3706 C3719 0.930 . S
H3707 C3720 0.930 . S
H3708 C3724 0.959 . S
H3709 C3724 0.959 . S
H3710 C3724 0.961 . S
H3711 C3725 0.960 . S
H3712 C3725 0.961 . S
H3713 C3725 0.959 . S
H3714 C3728 0.929 . S
H3715 C3729 0.931 . S
H3716 C3731 0.930 . S
C3717 H3705 0.930 . S
C3717 C3718 1.399 . S
C3717 C3722 1.399 . S
C3718 C3717 1.399 . S
C3718 C3719 1.376 . S
C3719 H3706 0.930 . S
C3719 C3718 1.376 . S
C3719 C3720 1.388 . S
C3720 H3707 0.930 . S
C3720 C3719 1.388 . S
C3720 C3721 1.390 . S
C3721 C3720 1.390 . S
C3721 C3722 1.394 . S
C3721 C3727 1.465 . S
C3722 C3717 1.399 . S
C3722 C3721 1.394 . S
C3722 C3723 1.516 . S
C3723 C3722 1.516 . S
C3723 C3724 1.502 . S
C3723 C3725 1.561 . S
C3723 C3726 1.526 . S
C3724 H3708 0.959 . S
C3724 H3709 0.959 . S
C3724 H3710 0.961 . S
C3724 C3723 1.502 . S
C3725 H3711 0.960 . S
C3725 H3712 0.961 . S
C3725 H3713 0.959 . S
C3725 C3723 1.561 . S
C3726 C3723 1.526 . S
C3726 C3727 1.396 . S
C3726 C3731 1.390 . S
C3727 C3721 1.465 . S
C3727 C3726 1.396 . S
C3727 C3728 1.399 . S
C3728 H3714 0.929 . S
C3728 C3727 1.399 . S
C3728 C3729 1.385 . S
C3729 H3715 0.931 . S
C3729 C3728 1.385 . S
C3729 C3730 1.389 . S
C3730 C3729 1.389 . S
C3730 C3731 1.387 . S
C3731 H3716 0.930 . S
C3731 C3726 1.390 . S
C3731 C3730 1.387 . S
H3732 C3744 0.930 . S
H3733 C3746 0.930 . S
H3734 C3747 0.930 . S
H3735 C3751 0.959 . S
H3736 C3751 0.959 . S
H3737 C3751 0.961 . S
H3738 C3752 0.960 . S
H3739 C3752 0.961 . S
H3740 C3752 0.959 . S
H3741 C3755 0.929 . S
H3742 C3756 0.931 . S
H3743 C3758 0.930 . S
C3744 H3732 0.930 . S
C3744 C3745 1.399 . S
C3744 C3749 1.399 . S
C3745 C3744 1.399 . S
C3745 C3746 1.376 . S
C3746 H3733 0.930 . S
C3746 C3745 1.376 . S
C3746 C3747 1.388 . S
C3747 H3734 0.930 . S
C3747 C3746 1.388 . S
C3747 C3748 1.390 . S
C3748 C3747 1.390 . S
C3748 C3749 1.394 . S
C3748 C3754 1.465 . S
C3749 C3744 1.399 . S
C3749 C3748 1.394 . S
C3749 C3750 1.516 . S
C3750 C3749 1.516 . S
C3750 C3751 1.502 . S
C3750 C3752 1.561 . S
C3750 C3753 1.526 . S
C3751 H3735 0.959 . S
C3751 H3736 0.959 . S
C3751 H3737 0.961 . S
C3751 C3750 1.502 . S
C3752 H3738 0.960 . S
C3752 H3739 0.961 . S
C3752 H3740 0.959 . S
C3752 C3750 1.561 . S
C3753 C3750 1.526 . S
C3753 C3754 1.396 . S
C3753 C3758 1.390 . S
C3754 C3748 1.465 . S
C3754 C3753 1.396 . S
C3754 C3755 1.399 . S
C3755 H3741 0.929 . S
C3755 C3754 1.399 . S
C3755 C3756 1.385 . S
C3756 H3742 0.931 . S
C3756 C3755 1.385 . S
C3756 C3757 1.389 . S
C3757 C3756 1.389 . S
C3757 C3758 1.387 . S
C3758 H3743 0.930 . S
C3758 C3753 1.390 . S
C3758 C3757 1.387 . S
H3759 C3771 0.930 . S
H3760 C3773 0.930 . S
H3761 C3774 0.930 . S
H3762 C3778 0.959 . S
H3763 C3778 0.959 . S
H3764 C3778 0.961 . S
H3765 C3779 0.960 . S
H3766 C3779 0.961 . S
H3767 C3779 0.959 . S
H3768 C3782 0.929 . S
H3769 C3783 0.931 . S
H3770 C3785 0.930 . S
C3771 H3759 0.930 . S
C3771 C3772 1.399 . S
C3771 C3776 1.399 . S
C3772 C3771 1.399 . S
C3772 C3773 1.376 . S
C3773 H3760 0.930 . S
C3773 C3772 1.376 . S
C3773 C3774 1.388 . S
C3774 H3761 0.930 . S
C3774 C3773 1.388 . S
C3774 C3775 1.390 . S
C3775 C3774 1.390 . S
C3775 C3776 1.394 . S
C3775 C3781 1.465 . S
C3776 C3771 1.399 . S
C3776 C3775 1.394 . S
C3776 C3777 1.516 . S
C3777 C3776 1.516 . S
C3777 C3778 1.502 . S
C3777 C3779 1.561 . S
C3777 C3780 1.526 . S
C3778 H3762 0.959 . S
C3778 H3763 0.959 . S
C3778 H3764 0.961 . S
C3778 C3777 1.502 . S
C3779 H3765 0.960 . S
C3779 H3766 0.961 . S
C3779 H3767 0.959 . S
C3779 C3777 1.561 . S
C3780 C3777 1.526 . S
C3780 C3781 1.396 . S
C3780 C3785 1.390 . S
C3781 C3775 1.465 . S
C3781 C3780 1.396 . S
C3781 C3782 1.399 . S
C3782 H3768 0.929 . S
C3782 C3781 1.399 . S
C3782 C3783 1.385 . S
C3783 H3769 0.931 . S
C3783 C3782 1.385 . S
C3783 C3784 1.389 . S
C3784 C3783 1.389 . S
C3784 C3785 1.387 . S
C3785 H3770 0.930 . S
C3785 C3780 1.390 . S
C3785 C3784 1.387 . S
H3786 C3798 0.930 . S
H3787 C3800 0.930 . S
H3788 C3801 0.930 1_655 S
H3789 C3805 0.959 . S
H3790 C3805 0.959 . S
H3791 C3805 0.961 . S
H3792 C3806 0.960 . S
H3793 C3806 0.961 . S
H3794 C3806 0.959 . S
H3795 C3809 0.929 1_655 S
H3796 C3810 0.932 1_655 S
H3797 C3812 0.930 . S
C3798 H3786 0.930 . S
C3798 C3799 1.399 . S
C3798 C3803 1.399 . S
C3799 C3798 1.399 . S
C3799 C3800 1.376 . S
C3800 H3787 0.930 . S
C3800 C3799 1.376 . S
C3800 C3801 1.388 . S
C3801 H3788 0.930 1_455 S
C3801 C3800 1.388 . S
C3801 C3802 1.390 . S
C3802 C3801 1.390 . S
C3802 C3803 1.394 . S
C3802 C3808 1.465 . S
C3803 C3798 1.399 . S
C3803 C3802 1.394 . S
C3803 C3804 1.516 . S
C3804 C3803 1.516 . S
C3804 C3805 1.502 . S
C3804 C3806 1.561 . S
C3804 C3807 1.526 . S
C3805 H3789 0.959 . S
C3805 H3790 0.959 . S
C3805 H3791 0.961 . S
C3805 C3804 1.502 . S
C3806 H3792 0.960 . S
C3806 H3793 0.961 . S
C3806 H3794 0.959 . S
C3806 C3804 1.561 . S
C3807 C3804 1.526 . S
C3807 C3808 1.396 . S
C3807 C3812 1.390 . S
C3808 C3802 1.465 . S
C3808 C3807 1.396 . S
C3808 C3809 1.399 . S
C3809 H3795 0.929 1_455 S
C3809 C3808 1.399 . S
C3809 C3810 1.385 . S
C3810 H3796 0.932 1_455 S
C3810 C3809 1.385 . S
C3810 C3811 1.389 . S
C3811 C3810 1.389 . S
C3811 C3812 1.387 . S
C3812 H3797 0.930 . S
C3812 C3807 1.390 . S
C3812 C3811 1.387 . S
H3813 C3825 0.930 . S
H3814 C3827 0.930 . S
H3815 C3828 0.930 . S
H3816 C3832 0.959 . S
H3817 C3832 0.959 . S
H3818 C3832 0.961 . S
H3819 C3833 0.960 . S
H3820 C3833 0.961 . S
H3821 C3833 0.959 . S
H3822 C3836 0.929 . S
H3823 C3837 0.931 . S
H3824 C3839 0.930 . S
C3825 H3813 0.930 . S
C3825 C3826 1.399 . S
C3825 C3830 1.399 . S
C3826 C3825 1.399 . S
C3826 C3827 1.376 . S
C3827 H3814 0.930 . S
C3827 C3826 1.376 . S
C3827 C3828 1.388 . S
C3828 H3815 0.930 . S
C3828 C3827 1.388 . S
C3828 C3829 1.390 . S
C3829 C3828 1.390 . S
C3829 C3830 1.394 . S
C3829 C3835 1.465 . S
C3830 C3825 1.399 . S
C3830 C3829 1.394 . S
C3830 C3831 1.516 . S
C3831 C3830 1.516 . S
C3831 C3832 1.502 . S
C3831 C3833 1.561 . S
C3831 C3834 1.526 . S
C3832 H3816 0.959 . S
C3832 H3817 0.959 . S
C3832 H3818 0.961 . S
C3832 C3831 1.502 . S
C3833 H3819 0.960 . S
C3833 H3820 0.961 . S
C3833 H3821 0.959 . S
C3833 C3831 1.561 . S
C3834 C3831 1.526 . S
C3834 C3835 1.396 . S
C3834 C3839 1.390 . S
C3835 C3829 1.465 . S
C3835 C3834 1.396 . S
C3835 C3836 1.399 . S
C3836 H3822 0.929 . S
C3836 C3835 1.399 . S
C3836 C3837 1.385 . S
C3837 H3823 0.931 . S
C3837 C3836 1.385 . S
C3837 C3838 1.389 . S
C3838 C3837 1.389 . S
C3838 C3839 1.387 . S
C3839 H3824 0.930 . S
C3839 C3834 1.390 . S
C3839 C3838 1.387 . S
H3840 C3852 0.930 . S
H3841 C3854 0.930 . S
H3842 C3855 0.930 . S
H3843 C3859 0.959 . S
H3844 C3859 0.959 . S
H3845 C3859 0.961 . S
H3846 C3860 0.960 . S
H3847 C3860 0.961 . S
H3848 C3860 0.959 . S
H3849 C3863 0.929 . S
H3850 C3864 0.931 . S
H3851 C3866 0.930 . S
C3852 H3840 0.930 . S
C3852 C3853 1.399 . S
C3852 C3857 1.399 . S
C3853 C3852 1.399 . S
C3853 C3854 1.376 . S
C3854 H3841 0.930 . S
C3854 C3853 1.376 . S
C3854 C3855 1.388 . S
C3855 H3842 0.930 . S
C3855 C3854 1.388 . S
C3855 C3856 1.390 . S
C3856 C3855 1.390 . S
C3856 C3857 1.394 . S
C3856 C3862 1.465 . S
C3857 C3852 1.399 . S
C3857 C3856 1.394 . S
C3857 C3858 1.516 . S
C3858 C3857 1.516 . S
C3858 C3859 1.502 . S
C3858 C3860 1.561 . S
C3858 C3861 1.526 . S
C3859 H3843 0.959 . S
C3859 H3844 0.959 . S
C3859 H3845 0.961 . S
C3859 C3858 1.502 . S
C3860 H3846 0.960 . S
C3860 H3847 0.961 . S
C3860 H3848 0.959 . S
C3860 C3858 1.561 . S
C3861 C3858 1.526 . S
C3861 C3862 1.396 . S
C3861 C3866 1.390 . S
C3862 C3856 1.465 . S
C3862 C3861 1.396 . S
C3862 C3863 1.399 . S
C3863 H3849 0.929 . S
C3863 C3862 1.399 . S
C3863 C3864 1.385 . S
C3864 H3850 0.931 . S
C3864 C3863 1.385 . S
C3864 C3865 1.389 . S
C3865 C3864 1.389 . S
C3865 C3866 1.387 . S
C3866 H3851 0.930 . S
C3866 C3861 1.390 . S
C3866 C3865 1.387 . S
H3867 C3879 0.930 . S
H3868 C3881 0.930 . S
H3869 C3882 0.930 . S
H3870 C3886 0.959 . S
H3871 C3886 0.959 . S
H3872 C3886 0.961 . S
H3873 C3887 0.960 . S
H3874 C3887 0.961 . S
H3875 C3887 0.959 . S
H3876 C3890 0.929 . S
H3877 C3891 0.931 . S
H3878 C3893 0.930 . S
C3879 H3867 0.930 . S
C3879 C3880 1.399 . S
C3879 C3884 1.399 . S
C3880 C3879 1.399 . S
C3880 C3881 1.376 . S
C3881 H3868 0.930 . S
C3881 C3880 1.376 . S
C3881 C3882 1.388 . S
C3882 H3869 0.930 . S
C3882 C3881 1.388 . S
C3882 C3883 1.390 . S
C3883 C3882 1.390 . S
C3883 C3884 1.394 . S
C3883 C3889 1.465 . S
C3884 C3879 1.399 . S
C3884 C3883 1.394 . S
C3884 C3885 1.516 . S
C3885 C3884 1.516 . S
C3885 C3886 1.502 . S
C3885 C3887 1.561 . S
C3885 C3888 1.526 . S
C3886 H3870 0.959 . S
C3886 H3871 0.959 . S
C3886 H3872 0.961 . S
C3886 C3885 1.502 . S
C3887 H3873 0.960 . S
C3887 H3874 0.961 . S
C3887 H3875 0.959 . S
C3887 C3885 1.561 . S
C3888 C3885 1.526 . S
C3888 C3889 1.396 . S
C3888 C3893 1.390 . S
C3889 C3883 1.465 . S
C3889 C3888 1.396 . S
C3889 C3890 1.399 . S
C3890 H3876 0.929 . S
C3890 C3889 1.399 . S
C3890 C3891 1.385 . S
C3891 H3877 0.931 . S
C3891 C3890 1.385 . S
C3891 C3892 1.389 . S
C3892 C3891 1.389 . S
C3892 C3893 1.387 . S
C3893 H3878 0.930 . S
C3893 C3888 1.390 . S
C3893 C3892 1.387 . S
H3894 C3906 0.930 . S
H3895 C3908 0.930 . S
H3896 C3909 0.930 . S
H3897 C3913 0.959 . S
H3898 C3913 0.959 . S
H3899 C3913 0.961 . S
H3900 C3914 0.960 . S
H3901 C3914 0.961 . S
H3902 C3914 0.959 . S
H3903 C3917 0.929 . S
H3904 C3918 0.923 1_455 S
H3905 C3920 0.930 . S
C3906 H3894 0.930 . S
C3906 C3907 1.399 . S
C3906 C3911 1.399 . S
C3907 C3906 1.399 . S
C3907 C3908 1.376 . S
C3908 H3895 0.930 . S
C3908 C3907 1.376 . S
C3908 C3909 1.388 . S
C3909 H3896 0.930 . S
C3909 C3908 1.388 . S
C3909 C3910 1.390 . S
C3910 C3909 1.390 . S
C3910 C3911 1.394 . S
C3910 C3916 1.465 . S
C3911 C3906 1.399 . S
C3911 C3910 1.394 . S
C3911 C3912 1.516 . S
C3912 C3911 1.516 . S
C3912 C3913 1.502 . S
C3912 C3914 1.561 . S
C3912 C3915 1.526 . S
C3913 H3897 0.959 . S
C3913 H3898 0.959 . S
C3913 H3899 0.961 . S
C3913 C3912 1.502 . S
C3914 H3900 0.960 . S
C3914 H3901 0.961 . S
C3914 H3902 0.959 . S
C3914 C3912 1.561 . S
C3915 C3912 1.526 . S
C3915 C3916 1.396 . S
C3915 C3920 1.390 . S
C3916 C3910 1.465 . S
C3916 C3915 1.396 . S
C3916 C3917 1.399 . S
C3917 H3903 0.929 . S
C3917 C3916 1.399 . S
C3917 C3918 1.385 . S
C3918 H3904 0.923 1_655 S
C3918 C3917 1.385 . S
C3918 C3919 1.389 . S
C3919 C3918 1.389 . S
C3919 C3920 1.387 . S
C3920 H3905 0.930 . S
C3920 C3915 1.390 . S
C3920 C3919 1.387 . S
H3921 C3933 0.930 . S
H3922 C3935 0.930 . S
H3923 C3936 0.930 . S
H3924 C3940 0.959 . S
H3925 C3940 0.959 . S
H3926 C3940 0.961 . S
H3927 C3941 0.960 . S
H3928 C3941 0.961 . S
H3929 C3941 0.959 . S
H3930 C3944 0.929 . S
H3931 C3945 0.931 . S
H3932 C3947 0.930 . S
C3933 H3921 0.930 . S
C3933 C3934 1.399 . S
C3933 C3938 1.399 . S
C3934 C3933 1.399 . S
C3934 C3935 1.376 . S
C3935 H3922 0.930 . S
C3935 C3934 1.376 . S
C3935 C3936 1.388 . S
C3936 H3923 0.930 . S
C3936 C3935 1.388 . S
C3936 C3937 1.390 . S
C3937 C3936 1.390 . S
C3937 C3938 1.394 . S
C3937 C3943 1.465 . S
C3938 C3933 1.399 . S
C3938 C3937 1.394 . S
C3938 C3939 1.516 . S
C3939 C3938 1.516 . S
C3939 C3940 1.502 . S
C3939 C3941 1.561 . S
C3939 C3942 1.526 . S
C3940 H3924 0.959 . S
C3940 H3925 0.959 . S
C3940 H3926 0.961 . S
C3940 C3939 1.502 . S
C3941 H3927 0.960 . S
C3941 H3928 0.961 . S
C3941 H3929 0.959 . S
C3941 C3939 1.561 . S
C3942 C3939 1.526 . S
C3942 C3943 1.396 . S
C3942 C3947 1.390 . S
C3943 C3937 1.465 . S
C3943 C3942 1.396 . S
C3943 C3944 1.399 . S
C3944 H3930 0.929 . S
C3944 C3943 1.399 . S
C3944 C3945 1.385 . S
C3945 H3931 0.931 . S
C3945 C3944 1.385 . S
C3945 C3946 1.389 . S
C3946 C3945 1.389 . S
C3946 C3947 1.387 . S
C3947 H3932 0.930 . S
C3947 C3942 1.390 . S
C3947 C3946 1.387 . S
H3948 C3960 0.930 . S
H3949 C3962 0.930 . S
H3950 C3963 0.930 . S
H3951 C3967 0.959 . S
H3952 C3967 0.959 . S
H3953 C3967 0.961 . S
H3954 C3968 0.960 . S
H3955 C3968 0.961 . S
H3956 C3968 0.959 . S
H3957 C3971 0.929 . S
H3958 C3972 0.931 . S
H3959 C3974 0.930 . S
C3960 H3948 0.930 . S
C3960 C3961 1.399 . S
C3960 C3965 1.399 . S
C3961 C3960 1.399 . S
C3961 C3962 1.376 . S
C3962 H3949 0.930 . S
C3962 C3961 1.376 . S
C3962 C3963 1.388 . S
C3963 H3950 0.930 . S
C3963 C3962 1.388 . S
C3963 C3964 1.390 . S
C3964 C3963 1.390 . S
C3964 C3965 1.394 . S
C3964 C3970 1.465 . S
C3965 C3960 1.399 . S
C3965 C3964 1.394 . S
C3965 C3966 1.516 . S
C3966 C3965 1.516 . S
C3966 C3967 1.502 . S
C3966 C3968 1.561 . S
C3966 C3969 1.526 . S
C3967 H3951 0.959 . S
C3967 H3952 0.959 . S
C3967 H3953 0.961 . S
C3967 C3966 1.502 . S
C3968 H3954 0.960 . S
C3968 H3955 0.961 . S
C3968 H3956 0.959 . S
C3968 C3966 1.561 . S
C3969 C3966 1.526 . S
C3969 C3970 1.396 . S
C3969 C3974 1.390 . S
C3970 C3964 1.465 . S
C3970 C3969 1.396 . S
C3970 C3971 1.399 . S
C3971 H3957 0.929 . S
C3971 C3970 1.399 . S
C3971 C3972 1.385 . S
C3972 H3958 0.931 . S
C3972 C3971 1.385 . S
C3972 C3973 1.389 . S
C3973 C3972 1.389 . S
C3973 C3974 1.387 . S
C3974 H3959 0.930 . S
C3974 C3969 1.390 . S
C3974 C3973 1.387 . S
H3975 C3987 0.930 . S
H3976 C3989 0.930 . S
H3977 C3990 0.930 . S
H3978 C3994 0.959 . S
H3979 C3994 0.959 . S
H3980 C3994 0.961 . S
H3981 C3995 0.960 . S
H3982 C3995 0.961 . S
H3983 C3995 0.959 . S
H3984 C3998 0.929 . S
H3985 C3999 0.931 . S
H3986 C4001 0.930 . S
C3987 H3975 0.930 . S
C3987 C3988 1.399 . S
C3987 C3992 1.399 . S
C3988 C3987 1.399 . S
C3988 C3989 1.376 . S
C3989 H3976 0.930 . S
C3989 C3988 1.376 . S
C3989 C3990 1.388 . S
C3990 H3977 0.930 . S
C3990 C3989 1.388 . S
C3990 C3991 1.390 . S
C3991 C3990 1.390 . S
C3991 C3992 1.394 . S
C3991 C3997 1.465 . S
C3992 C3987 1.399 . S
C3992 C3991 1.394 . S
C3992 C3993 1.516 . S
C3993 C3992 1.516 . S
C3993 C3994 1.502 . S
C3993 C3995 1.561 . S
C3993 C3996 1.526 . S
C3994 H3978 0.959 . S
C3994 H3979 0.959 . S
C3994 H3980 0.961 . S
C3994 C3993 1.502 . S
C3995 H3981 0.960 . S
C3995 H3982 0.961 . S
C3995 H3983 0.959 . S
C3995 C3993 1.561 . S
C3996 C3993 1.526 . S
C3996 C3997 1.396 . S
C3996 C4001 1.390 . S
C3997 C3991 1.465 . S
C3997 C3996 1.396 . S
C3997 C3998 1.399 . S
C3998 H3984 0.929 . S
C3998 C3997 1.399 . S
C3998 C3999 1.385 . S
C3999 H3985 0.931 . S
C3999 C3998 1.385 . S
C3999 C4000 1.389 . S
C4000 C3999 1.389 . S
C4000 C4001 1.387 . S
C4001 H3986 0.930 . S
C4001 C3996 1.390 . S
C4001 C4000 1.387 . S
H4002 C4014 0.930 . S
H4003 C4016 0.930 . S
H4004 C4017 0.930 . S
H4005 C4021 0.959 . S
H4006 C4021 0.959 . S
H4007 C4021 0.961 . S
H4008 C4022 0.960 . S
H4009 C4022 0.961 . S
H4010 C4022 0.959 . S
H4011 C4025 0.929 . S
H4012 C4026 0.931 . S
H4013 C4028 0.930 . S
C4014 H4002 0.930 . S
C4014 C4015 1.399 . S
C4014 C4019 1.399 . S
C4015 C4014 1.399 . S
C4015 C4016 1.376 . S
C4016 H4003 0.930 . S
C4016 C4015 1.376 . S
C4016 C4017 1.388 . S
C4017 H4004 0.930 . S
C4017 C4016 1.388 . S
C4017 C4018 1.390 . S
C4018 C4017 1.390 . S
C4018 C4019 1.394 . S
C4018 C4024 1.465 . S
C4019 C4014 1.399 . S
C4019 C4018 1.394 . S
C4019 C4020 1.516 . S
C4020 C4019 1.516 . S
C4020 C4021 1.502 . S
C4020 C4022 1.561 . S
C4020 C4023 1.526 . S
C4021 H4005 0.959 . S
C4021 H4006 0.959 . S
C4021 H4007 0.961 . S
C4021 C4020 1.502 . S
C4022 H4008 0.960 . S
C4022 H4009 0.961 . S
C4022 H4010 0.959 . S
C4022 C4020 1.561 . S
C4023 C4020 1.526 . S
C4023 C4024 1.396 . S
C4023 C4028 1.390 . S
C4024 C4018 1.465 . S
C4024 C4023 1.396 . S
C4024 C4025 1.399 . S
C4025 H4011 0.929 . S
C4025 C4024 1.399 . S
C4025 C4026 1.385 . S
C4026 H4012 0.931 . S
C4026 C4025 1.385 . S
C4026 C4027 1.389 . S
C4027 C4026 1.389 . S
C4027 C4028 1.387 . S
C4028 H4013 0.930 . S
C4028 C4023 1.390 . S
C4028 C4027 1.387 . S
H4029 C4041 0.930 . S
H4030 C4043 0.930 . S
H4031 C4044 0.930 . S
H4032 C4048 0.959 . S
H4033 C4048 0.959 . S
H4034 C4048 0.961 . S
H4035 C4049 0.960 . S
H4036 C4049 0.961 . S
H4037 C4049 0.959 . S
H4038 C4052 0.929 . S
H4039 C4053 0.931 . S
H4040 C4055 0.930 . S
C4041 H4029 0.930 . S
C4041 C4042 1.399 . S
C4041 C4046 1.399 . S
C4042 C4041 1.399 . S
C4042 C4043 1.376 . S
C4043 H4030 0.930 . S
C4043 C4042 1.376 . S
C4043 C4044 1.388 . S
C4044 H4031 0.930 . S
C4044 C4043 1.388 . S
C4044 C4045 1.390 . S
C4045 C4044 1.390 . S
C4045 C4046 1.394 . S
C4045 C4051 1.465 . S
C4046 C4041 1.399 . S
C4046 C4045 1.394 . S
C4046 C4047 1.516 . S
C4047 C4046 1.516 . S
C4047 C4048 1.502 . S
C4047 C4049 1.561 . S
C4047 C4050 1.526 . S
C4048 H4032 0.959 . S
C4048 H4033 0.959 . S
C4048 H4034 0.961 . S
C4048 C4047 1.502 . S
C4049 H4035 0.960 . S
C4049 H4036 0.961 . S
C4049 H4037 0.959 . S
C4049 C4047 1.561 . S
C4050 C4047 1.526 . S
C4050 C4051 1.396 . S
C4050 C4055 1.390 . S
C4051 C4045 1.465 . S
C4051 C4050 1.396 . S
C4051 C4052 1.399 . S
C4052 H4038 0.929 . S
C4052 C4051 1.399 . S
C4052 C4053 1.385 . S
C4053 H4039 0.931 . S
C4053 C4052 1.385 . S
C4053 C4054 1.389 . S
C4054 C4053 1.389 . S
C4054 C4055 1.387 . S
C4055 H4040 0.930 . S
C4055 C4050 1.390 . S
C4055 C4054 1.387 . S
H4056 C4068 0.930 . S
H4057 C4070 0.930 . S
H4058 C4071 0.930 . S
H4059 C4075 0.959 . S
H4060 C4075 0.959 . S
H4061 C4075 0.961 . S
H4062 C4076 0.960 . S
H4063 C4076 0.961 . S
H4064 C4076 0.959 . S
H4065 C4079 0.929 . S
H4066 C4080 0.931 . S
H4067 C4082 0.930 . S
C4068 H4056 0.930 . S
C4068 C4069 1.399 . S
C4068 C4073 1.399 . S
C4069 C4068 1.399 . S
C4069 C4070 1.376 . S
C4070 H4057 0.930 . S
C4070 C4069 1.376 . S
C4070 C4071 1.388 . S
C4071 H4058 0.930 . S
C4071 C4070 1.388 . S
C4071 C4072 1.390 . S
C4072 C4071 1.390 . S
C4072 C4073 1.394 . S
C4072 C4078 1.465 . S
C4073 C4068 1.399 . S
C4073 C4072 1.394 . S
C4073 C4074 1.516 . S
C4074 C4073 1.516 . S
C4074 C4075 1.502 . S
C4074 C4076 1.561 . S
C4074 C4077 1.526 . S
C4075 H4059 0.959 . S
C4075 H4060 0.959 . S
C4075 H4061 0.961 . S
C4075 C4074 1.502 . S
C4076 H4062 0.960 . S
C4076 H4063 0.961 . S
C4076 H4064 0.959 . S
C4076 C4074 1.561 . S
C4077 C4074 1.526 . S
C4077 C4078 1.396 . S
C4077 C4082 1.390 . S
C4078 C4072 1.465 . S
C4078 C4077 1.396 . S
C4078 C4079 1.399 . S
C4079 H4065 0.929 . S
C4079 C4078 1.399 . S
C4079 C4080 1.385 . S
C4080 H4066 0.931 . S
C4080 C4079 1.385 . S
C4080 C4081 1.389 . S
C4081 C4080 1.389 . S
C4081 C4082 1.387 . S
C4082 H4067 0.930 . S
C4082 C4077 1.390 . S
C4082 C4081 1.387 . S
H4083 C4095 0.930 . S
H4084 C4097 0.930 . S
H4085 C4098 0.930 . S
H4086 C4102 0.959 . S
H4087 C4102 0.959 . S
H4088 C4102 0.961 . S
H4089 C4103 0.960 . S
H4090 C4103 0.961 . S
H4091 C4103 0.959 . S
H4092 C4106 0.946 . S
H4093 C4107 0.931 . S
H4094 C4109 0.930 . S
C4095 H4083 0.930 . S
C4095 C4096 1.399 . S
C4095 C4100 1.399 . S
C4096 C4095 1.399 . S
C4096 C4097 1.376 . S
C4097 H4084 0.930 . S
C4097 C4096 1.376 . S
C4097 C4098 1.388 . S
C4098 H4085 0.930 . S
C4098 C4097 1.388 . S
C4098 C4099 1.390 . S
C4099 C4098 1.390 . S
C4099 C4100 1.394 . S
C4099 C4105 1.465 . S
C4100 C4095 1.399 . S
C4100 C4099 1.394 . S
C4100 C4101 1.516 . S
C4101 C4100 1.516 . S
C4101 C4102 1.502 . S
C4101 C4103 1.561 . S
C4101 C4104 1.526 . S
C4102 H4086 0.959 . S
C4102 H4087 0.959 . S
C4102 H4088 0.961 . S
C4102 C4101 1.502 . S
C4103 H4089 0.960 . S
C4103 H4090 0.961 . S
C4103 H4091 0.959 . S
C4103 C4101 1.561 . S
C4104 C4101 1.526 . S
C4104 C4105 1.396 . S
C4104 C4109 1.390 . S
C4105 C4099 1.465 . S
C4105 C4104 1.396 . S
C4105 C4106 1.399 . S
C4106 H4092 0.946 . S
C4106 C4105 1.399 . S
C4106 C4107 1.385 1_565 S
C4107 H4093 0.931 . S
C4107 C4106 1.385 1_545 S
C4107 C4108 1.389 1_545 S
C4108 C4107 1.389 1_565 S
C4108 C4109 1.387 . S
C4109 H4094 0.930 . S
C4109 C4104 1.390 . S
C4109 C4108 1.387 . S
H4110 C4122 0.930 . S
H4111 C4124 0.930 . S
H4112 C4125 0.930 . S
H4113 C4129 0.959 . S
H4114 C4129 0.959 . S
H4115 C4129 0.961 . S
H4116 C4130 0.960 . S
H4117 C4130 0.961 . S
H4118 C4130 0.959 . S
H4119 C4133 0.929 . S
H4120 C4134 0.931 . S
H4121 C4136 0.930 . S
C4122 H4110 0.930 . S
C4122 C4123 1.399 . S
C4122 C4127 1.399 . S
C4123 C4122 1.399 . S
C4123 C4124 1.376 . S
C4124 H4111 0.930 . S
C4124 C4123 1.376 . S
C4124 C4125 1.388 . S
C4125 H4112 0.930 . S
C4125 C4124 1.388 . S
C4125 C4126 1.390 . S
C4126 C4125 1.390 . S
C4126 C4127 1.394 . S
C4126 C4132 1.465 . S
C4127 C4122 1.399 . S
C4127 C4126 1.394 . S
C4127 C4128 1.516 . S
C4128 C4127 1.516 . S
C4128 C4129 1.502 . S
C4128 C4130 1.561 . S
C4128 C4131 1.526 . S
C4129 H4113 0.959 . S
C4129 H4114 0.959 . S
C4129 H4115 0.961 . S
C4129 C4128 1.502 . S
C4130 H4116 0.960 . S
C4130 H4117 0.961 . S
C4130 H4118 0.959 . S
C4130 C4128 1.561 . S
C4131 C4128 1.526 . S
C4131 C4132 1.396 . S
C4131 C4136 1.390 . S
C4132 C4126 1.465 . S
C4132 C4131 1.396 . S
C4132 C4133 1.399 . S
C4133 H4119 0.929 . S
C4133 C4132 1.399 . S
C4133 C4134 1.385 . S
C4134 H4120 0.931 . S
C4134 C4133 1.385 . S
C4134 C4135 1.389 . S
C4135 C4134 1.389 . S
C4135 C4136 1.387 . S
C4136 H4121 0.930 . S
C4136 C4131 1.390 . S
C4136 C4135 1.387 . S
H4137 C4149 0.930 . S
H4138 C4151 0.930 . S
H4139 C4152 0.930 . S
H4140 C4156 0.959 . S
H4141 C4156 0.959 . S
H4142 C4156 0.961 . S
H4143 C4157 0.960 . S
H4144 C4157 0.961 . S
H4145 C4157 0.959 . S
H4146 C4160 0.929 1_556 S
H4147 C4161 0.951 . S
H4148 C4163 0.930 . S
C4149 H4137 0.930 . S
C4149 C4150 1.399 . S
C4149 C4154 1.399 . S
C4150 C4149 1.399 . S
C4150 C4151 1.376 . S
C4151 H4138 0.930 . S
C4151 C4150 1.376 . S
C4151 C4152 1.388 . S
C4152 H4139 0.930 . S
C4152 C4151 1.388 . S
C4152 C4153 1.390 . S
C4153 C4152 1.390 . S
C4153 C4154 1.394 . S
C4153 C4159 1.465 . S
C4154 C4149 1.399 . S
C4154 C4153 1.394 . S
C4154 C4155 1.516 . S
C4155 C4154 1.516 . S
C4155 C4156 1.502 . S
C4155 C4157 1.561 . S
C4155 C4158 1.526 . S
C4156 H4140 0.959 . S
C4156 H4141 0.959 . S
C4156 H4142 0.961 . S
C4156 C4155 1.502 . S
C4157 H4143 0.960 . S
C4157 H4144 0.961 . S
C4157 H4145 0.959 . S
C4157 C4155 1.561 . S
C4158 C4155 1.526 . S
C4158 C4159 1.396 . S
C4158 C4163 1.390 . S
C4159 C4153 1.465 . S
C4159 C4158 1.396 . S
C4159 C4160 1.399 . S
C4160 H4146 0.929 1_554 S
C4160 C4159 1.399 . S
C4160 C4161 1.385 . S
C4161 H4147 0.951 . S
C4161 C4160 1.385 . S
C4161 C4162 1.389 . S
C4162 C4161 1.389 . S
C4162 C4163 1.387 . S
C4163 H4148 0.930 . S
C4163 C4158 1.390 . S
C4163 C4162 1.387 . S
H4164 C4176 0.930 . S
H4165 C4178 0.930 . S
H4166 C4179 0.930 . S
H4167 C4183 0.959 . S
H4168 C4183 0.959 . S
H4169 C4183 0.961 . S
H4170 C4184 0.960 . S
H4171 C4184 0.961 . S
H4172 C4184 0.959 . S
H4173 C4187 0.929 . S
H4174 C4188 0.931 . S
H4175 C4190 0.930 . S
C4176 H4164 0.930 . S
C4176 C4177 1.399 . S
C4176 C4181 1.399 . S
C4177 C4176 1.399 . S
C4177 C4178 1.376 . S
C4178 H4165 0.930 . S
C4178 C4177 1.376 . S
C4178 C4179 1.388 . S
C4179 H4166 0.930 . S
C4179 C4178 1.388 . S
C4179 C4180 1.390 . S
C4180 C4179 1.390 . S
C4180 C4181 1.394 . S
C4180 C4186 1.465 . S
C4181 C4176 1.399 . S
C4181 C4180 1.394 . S
C4181 C4182 1.516 . S
C4182 C4181 1.516 . S
C4182 C4183 1.502 . S
C4182 C4184 1.561 . S
C4182 C4185 1.526 . S
C4183 H4167 0.959 . S
C4183 H4168 0.959 . S
C4183 H4169 0.961 . S
C4183 C4182 1.502 . S
C4184 H4170 0.960 . S
C4184 H4171 0.961 . S
C4184 H4172 0.959 . S
C4184 C4182 1.561 . S
C4185 C4182 1.526 . S
C4185 C4186 1.396 . S
C4185 C4190 1.390 . S
C4186 C4180 1.465 . S
C4186 C4185 1.396 . S
C4186 C4187 1.399 . S
C4187 H4173 0.929 . S
C4187 C4186 1.399 . S
C4187 C4188 1.385 . S
C4188 H4174 0.931 . S
C4188 C4187 1.385 . S
C4188 C4189 1.389 . S
C4189 C4188 1.389 . S
C4189 C4190 1.387 . S
C4190 H4175 0.930 . S
C4190 C4185 1.390 . S
C4190 C4189 1.387 . S
H4191 C4203 0.930 . S
H4192 C4205 0.930 . S
H4193 C4206 0.930 . S
H4194 C4210 0.959 . S
H4195 C4210 0.959 . S
H4196 C4210 0.961 . S
H4197 C4211 0.960 . S
H4198 C4211 0.961 . S
H4199 C4211 0.959 . S
H4200 C4214 0.929 . S
H4201 C4215 0.931 . S
H4202 C4217 0.930 . S
C4203 H4191 0.930 . S
C4203 C4204 1.399 . S
C4203 C4208 1.399 . S
C4204 C4203 1.399 . S
C4204 C4205 1.376 . S
C4205 H4192 0.930 . S
C4205 C4204 1.376 . S
C4205 C4206 1.388 . S
C4206 H4193 0.930 . S
C4206 C4205 1.388 . S
C4206 C4207 1.390 . S
C4207 C4206 1.390 . S
C4207 C4208 1.394 . S
C4207 C4213 1.465 . S
C4208 C4203 1.399 . S
C4208 C4207 1.394 . S
C4208 C4209 1.516 . S
C4209 C4208 1.516 . S
C4209 C4210 1.502 . S
C4209 C4211 1.561 . S
C4209 C4212 1.526 . S
C4210 H4194 0.959 . S
C4210 H4195 0.959 . S
C4210 H4196 0.961 . S
C4210 C4209 1.502 . S
C4211 H4197 0.960 . S
C4211 H4198 0.961 . S
C4211 H4199 0.959 . S
C4211 C4209 1.561 . S
C4212 C4209 1.526 . S
C4212 C4213 1.396 . S
C4212 C4217 1.390 . S
C4213 C4207 1.465 . S
C4213 C4212 1.396 . S
C4213 C4214 1.399 . S
C4214 H4200 0.929 . S
C4214 C4213 1.399 . S
C4214 C4215 1.385 . S
C4215 H4201 0.931 . S
C4215 C4214 1.385 . S
C4215 C4216 1.389 . S
C4216 C4215 1.389 . S
C4216 C4217 1.387 . S
C4217 H4202 0.930 . S
C4217 C4212 1.390 . S
C4217 C4216 1.387 . S
H4218 C4230 0.930 . S
H4219 C4232 0.930 . S
H4220 C4233 0.930 . S
H4221 C4237 0.959 . S
H4222 C4237 0.959 . S
H4223 C4237 0.961 . S
H4224 C4238 0.960 . S
H4225 C4238 0.961 . S
H4226 C4238 0.959 . S
H4227 C4241 0.929 . S
H4228 C4242 0.931 . S
H4229 C4244 0.930 . S
C4230 H4218 0.930 . S
C4230 C4231 1.399 . S
C4230 C4235 1.399 . S
C4231 C4230 1.399 . S
C4231 C4232 1.376 . S
C4232 H4219 0.930 . S
C4232 C4231 1.376 . S
C4232 C4233 1.388 . S
C4233 H4220 0.930 . S
C4233 C4232 1.388 . S
C4233 C4234 1.390 . S
C4234 C4233 1.390 . S
C4234 C4235 1.394 . S
C4234 C4240 1.465 . S
C4235 C4230 1.399 . S
C4235 C4234 1.394 . S
C4235 C4236 1.516 . S
C4236 C4235 1.516 . S
C4236 C4237 1.502 . S
C4236 C4238 1.561 . S
C4236 C4239 1.526 . S
C4237 H4221 0.959 . S
C4237 H4222 0.959 . S
C4237 H4223 0.961 . S
C4237 C4236 1.502 . S
C4238 H4224 0.960 . S
C4238 H4225 0.961 . S
C4238 H4226 0.959 . S
C4238 C4236 1.561 . S
C4239 C4236 1.526 . S
C4239 C4240 1.396 . S
C4239 C4244 1.390 . S
C4240 C4234 1.465 . S
C4240 C4239 1.396 . S
C4240 C4241 1.399 . S
C4241 H4227 0.929 . S
C4241 C4240 1.399 . S
C4241 C4242 1.385 . S
C4242 H4228 0.931 . S
C4242 C4241 1.385 . S
C4242 C4243 1.389 . S
C4243 C4242 1.389 . S
C4243 C4244 1.387 . S
C4244 H4229 0.930 . S
C4244 C4239 1.390 . S
C4244 C4243 1.387 . S
H4245 C4257 0.930 . S
H4246 C4259 0.930 . S
H4247 C4260 0.930 . S
H4248 C4264 0.959 . S
H4249 C4264 0.959 . S
H4250 C4264 0.961 . S
H4251 C4265 0.960 . S
H4252 C4265 0.961 . S
H4253 C4265 0.959 . S
H4254 C4268 0.929 . S
H4255 C4269 0.931 . S
H4256 C4271 0.930 . S
C4257 H4245 0.930 . S
C4257 C4258 1.399 . S
C4257 C4262 1.399 . S
C4258 C4257 1.399 . S
C4258 C4259 1.376 . S
C4259 H4246 0.930 . S
C4259 C4258 1.376 . S
C4259 C4260 1.388 . S
C4260 H4247 0.930 . S
C4260 C4259 1.388 . S
C4260 C4261 1.390 . S
C4261 C4260 1.390 . S
C4261 C4262 1.394 . S
C4261 C4267 1.465 . S
C4262 C4257 1.399 . S
C4262 C4261 1.394 . S
C4262 C4263 1.516 . S
C4263 C4262 1.516 . S
C4263 C4264 1.502 . S
C4263 C4265 1.561 . S
C4263 C4266 1.526 . S
C4264 H4248 0.959 . S
C4264 H4249 0.959 . S
C4264 H4250 0.961 . S
C4264 C4263 1.502 . S
C4265 H4251 0.960 . S
C4265 H4252 0.961 . S
C4265 H4253 0.959 . S
C4265 C4263 1.561 . S
C4266 C4263 1.526 . S
C4266 C4267 1.396 . S
C4266 C4271 1.390 . S
C4267 C4261 1.465 . S
C4267 C4266 1.396 . S
C4267 C4268 1.399 . S
C4268 H4254 0.929 . S
C4268 C4267 1.399 . S
C4268 C4269 1.385 . S
C4269 H4255 0.931 . S
C4269 C4268 1.385 . S
C4269 C4270 1.389 . S
C4270 C4269 1.389 . S
C4270 C4271 1.387 . S
C4271 H4256 0.930 . S
C4271 C4266 1.390 . S
C4271 C4270 1.387 . S
C1693 C105 2.163 1_455 S
C1705 C403 2.168 . S
C1720 C65 1.889 . S
C1732 C476 1.870 . S
C1747 C73 1.881 . S
C1759 C571 1.882 . S
C1786 C646 1.351 . S
C1774 C92 1.484 . S
C1801 C17 1.545 . S
C1813 C730 1.404 . S
C1840 C823 1.846 . S
C1828 C37 1.834 . S
C1867 C896 1.883 . S
C1855 C49 1.769 . S
C1882 C8 2.088 . S
C1894 C991 2.093 . S
C1921 C392 1.711 . S
C1909 C231 1.727 . S
C1936 C241 0.946 . S
C1948 C478 0.962 . S
C1975 C560 1.138 . S
C1963 C273 1.065 . S
C2002 C655 1.627 . S
C1990 C171 1.632 1_556 S
C2017 C227 1.620 . S
C2029 C739 1.610 . S
C2056 C812 1.185 . S
C2044 C245 1.121 . S
C2083 C898 0.861 . S
C2071 C269 0.957 . S
C2110 C980 1.683 . S
C2098 C175 1.692 . S
C2137 C394 1.020 . S
C2125 C162 1.014 1_554 S
C2152 C289 1.688 . S
C2164 C1064 1.669 . S
C2191 C1150 1.376 . S
C2179 C330 1.388 . S
C2218 C1243 0.842 . S
C2206 C317 0.805 . S
C2233 C120 1.020 . S
C2245 C982 1.036 . S
C2260 C134 1.417 . S
C2272 C562 1.359 . S
C2287 C331 1.652 . S
C2299 C1316 1.625 . S
C2326 C1411 0.781 . S
C2314 C303 0.752 . S
C2353 C391 2.181 . S
C2341 C59 2.174 . S
C2380 C1412 1.940 . S
C2368 C107 1.944 . S
C2395 C91 1.906 . S
C2407 C559 1.934 . S
C2422 C78 1.530 . S
C2434 C1330 1.469 . S
C2461 C742 1.435 . S
C2449 C7 1.532 . S
C2476 C51 1.832 . S
C2488 C1147 1.885 . S
C2515 C908 1.926 1_556 S
C2503 C31 1.939 . S
C2542 C1483 2.126 . S
C2530 C22 2.086 . S
C2569 C404 1.701 . S
C2557 C143 1.764 . S
C2596 C1414 0.978 . S
C2584 C315 0.959 . S
C2611 C115 1.186 . S
C2623 C572 1.214 . S
C2638 C287 1.661 . S
C2650 C1315 1.660 . S
C2665 C147 1.601 . S
C2677 C727 1.665 . S
C2704 C1160 1.223 . S
C2692 C311 1.214 . S
C2719 C119 0.902 . S
C2731 C910 0.858 . S
C2746 C283 1.759 . S
C2758 C1496 1.687 . S
C2773 C190 1.066 . S
C2785 C406 1.061 . S
C2800 C177 1.737 . S
C2812 C1076 1.721 . S
C2827 C260 1.414 . S
C2839 C826 1.379 . S
C2854 C247 0.910 . S
C2866 C1231 0.878 . S
C2893 C1498 1.006 . S
C2881 C274 0.998 1_565 S
C2908 C218 1.382 . S
C2920 C574 1.331 . S
C2947 C656 1.663 . S
C2935 C261 1.682 . S
C2974 C475 0.822 . S
C2962 C205 0.839 . S
C2989 C77 2.154 . S
C3001 C1579 2.161 . S
C3028 C1400 1.901 . S
C3016 C93 1.908 . S
C3043 C101 1.852 . S
C3055 C1663 1.879 . S
C3070 C64 1.500 1_655 S
C3082 C1318 1.344 . S
C3097 C45 1.546 . S
C3109 C1066 1.462 . S
C3136 C1159 1.843 . S
C3124 C9 1.834 . S
C3163 C1232 1.891 . S
C3151 C21 1.786 . S
C3190 C1495 2.089 . S
C3178 C36 2.094 . S
C3217 C1568 1.713 . S
C3205 C259 1.726 . S
C3232 C185 0.947 . S
C3244 C1402 0.863 . S
C3271 C1652 1.130 . S
C3259 C203 1.067 . S
C3298 C1327 1.622 . S
C3286 C213 1.617 . S
C3325 C1075 1.604 . S
C3313 C255 1.618 . S
C3340 C189 1.109 . S
C3352 C1148 1.178 . S
C3379 C1234 0.969 . S
C3367 C199 0.932 . S
C3394 C217 1.683 . S
C3406 C1484 1.670 . S
C3433 C1570 0.984 . S
C3421 C316 1.049 . S
C3448 C135 1.694 . S
C3460 C728 1.661 . S
C3487 C814 1.278 . S
C3475 C148 1.396 1_565 S
C3514 C907 0.825 . S
C3502 C163 0.812 . S
C3541 C1486 0.927 . S
C3529 C302 1.006 . S
C3556 C288 1.405 . S
C3568 C1654 1.287 . S
C3595 C644 1.663 . S
C3583 C149 1.660 . S
C3622 C487 0.766 . S
C3610 C121 0.799 . S
C3637 C87 2.174 . S
C3649 C1567 2.180 . S
C3676 C488 1.945 . S
C3664 C79 1.948 . S
C3691 C63 1.897 . S
C3703 C1651 1.938 . S
C3718 C106 1.495 . S
C3730 C658 1.372 . S
C3745 C35 1.516 . S
C3757 C1078 1.416 . S
C3784 C811 1.897 . S
C3772 C23 1.868 . S
C3799 C3 1.944 . S
C3811 C1244 1.925 . S
C3826 C50 2.096 . S
C3838 C979 2.128 . S
C3865 C1580 1.697 . S
C3853 C325 1.770 . S
C3880 C161 0.905 . S
C3892 C490 0.858 . S
C3919 C1664 1.218 1_655 S
C3907 C297 1.189 . S
C3934 C133 1.635 . S
C3946 C643 1.670 . S
C3961 C329 1.599 . S
C3973 C1063 1.667 . S
C4000 C824 1.223 . S
C3988 C157 1.200 . S
C4015 C301 0.902 . S
C4027 C1246 0.855 . S
C4054 C992 1.723 . S
C4042 C129 1.738 . S
C4081 C1582 1.067 . S
C4069 C246 1.070 . S
C4108 C740 1.720 1_565 S
C4096 C219 1.736 . S
C4123 C232 1.362 . S
C4135 C1162 1.309 . S
C4162 C895 0.869 . S
C4150 C191 0.839 . S
C4177 C204 0.963 . S
C4189 C994 0.930 . S
C4204 C176 1.404 . S
C4216 C1666 1.307 . S
C4243 C1328 1.680 . S
C4231 C233 1.683 . S
C4270 C1399 0.804 . S
C4258 C275 0.782 . S
