# Generated by pormake.
# Topology pyr, (3,6)-cn, num edge types: 1
# Building blocks:
#     Node 0, Type 0, BuildingBlock: OLANEW_clean_sbu_2, # of connection points: 3
#     Node 1, Type 0, BuildingBlock: OLANEW_clean_sbu_2, # of connection points: 3
#     Node 2, Type 0, BuildingBlock: OLANEW_clean_sbu_2, # of connection points: 3
#     Node 3, Type 0, BuildingBlock: OLANEW_clean_sbu_2, # of connection points: 3
#     Node 4, Type 0, BuildingBlock: OLANEW_clean_sbu_2, # of connection points: 3
#     Node 5, Type 0, BuildingBlock: OLANEW_clean_sbu_2, # of connection points: 3
#     Node 6, Type 0, BuildingBlock: OLANEW_clean_sbu_2, # of connection points: 3
#     Node 7, Type 0, BuildingBlock: OLANEW_clean_sbu_2, # of connection points: 3
#     Node 8, Type 1, BuildingBlock: MIDCAF_clean_sbu_0, # of connection points: 6
#     Node 9, Type 1, BuildingBlock: MIDCAF_clean_sbu_0, # of connection points: 6
#     Node 10, Type 1, BuildingBlock: MIDCAF_clean_sbu_0, # of connection points: 6
#     Node 11, Type 1, BuildingBlock: MIDCAF_clean_sbu_0, # of connection points: 6
#     Edge 12, Type (0, 1), BuildingBlock: XIVTED_clean_linker_0, # of connection points: 2
#     Edge 13, Type (0, 1), BuildingBlock: XIVTED_clean_linker_0, # of connection points: 2
#     Edge 14, Type (0, 1), BuildingBlock: XIVTED_clean_linker_0, # of connection points: 2
#     Edge 15, Type (0, 1), BuildingBlock: XIVTED_clean_linker_0, # of connection points: 2
#     Edge 16, Type (0, 1), BuildingBlock: XIVTED_clean_linker_0, # of connection points: 2
#     Edge 17, Type (0, 1), BuildingBlock: XIVTED_clean_linker_0, # of connection points: 2
#     Edge 18, Type (0, 1), BuildingBlock: XIVTED_clean_linker_0, # of connection points: 2
#     Edge 19, Type (0, 1), BuildingBlock: XIVTED_clean_linker_0, # of connection points: 2
#     Edge 20, Type (0, 1), BuildingBlock: XIVTED_clean_linker_0, # of connection points: 2
#     Edge 21, Type (0, 1), BuildingBlock: XIVTED_clean_linker_0, # of connection points: 2
#     Edge 22, Type (0, 1), BuildingBlock: XIVTED_clean_linker_0, # of connection points: 2
#     Edge 23, Type (0, 1), BuildingBlock: XIVTED_clean_linker_0, # of connection points: 2
#     Edge 24, Type (0, 1), BuildingBlock: XIVTED_clean_linker_0, # of connection points: 2
#     Edge 25, Type (0, 1), BuildingBlock: XIVTED_clean_linker_0, # of connection points: 2
#     Edge 26, Type (0, 1), BuildingBlock: XIVTED_clean_linker_0, # of connection points: 2
#     Edge 27, Type (0, 1), BuildingBlock: XIVTED_clean_linker_0, # of connection points: 2
#     Edge 28, Type (0, 1), BuildingBlock: XIVTED_clean_linker_0, # of connection points: 2
#     Edge 29, Type (0, 1), BuildingBlock: XIVTED_clean_linker_0, # of connection points: 2
#     Edge 30, Type (0, 1), BuildingBlock: XIVTED_clean_linker_0, # of connection points: 2
#     Edge 31, Type (0, 1), BuildingBlock: XIVTED_clean_linker_0, # of connection points: 2
#     Edge 32, Type (0, 1), BuildingBlock: XIVTED_clean_linker_0, # of connection points: 2
#     Edge 33, Type (0, 1), BuildingBlock: XIVTED_clean_linker_0, # of connection points: 2
#     Edge 34, Type (0, 1), BuildingBlock: XIVTED_clean_linker_0, # of connection points: 2
#     Edge 35, Type (0, 1), BuildingBlock: XIVTED_clean_linker_0, # of connection points: 2
# Relax obj value: 0.074
# Max RMSD: 0.157
# Mean RMSD: 0.119
data_MOF--net-pry--node1-OLANEW_clean_sbu_2--node2-MIDCAF_clean_sbu_0--edge1-XIVTED_clean_linker_0
_symmetry_space_group_name_H-M    P1
_symmetry_Int_Tables_number       1
_symmetry_cell_setting            triclinic
loop_
_symmetry_equiv_pos_as_xyz
'x, y, z'
_cell_length_a     37.76858
_cell_length_b     37.889717
_cell_length_c     37.192524
_cell_angle_alpha  94.313652
_cell_angle_beta   89.447952
_cell_angle_gamma 95.600301
loop_
_atom_site_label
_atom_site_type_symbol
_atom_site_fract_x
_atom_site_fract_y
_atom_site_fract_z
_atom_type_partial_charge
O0 O 0.2969 0.24294 0.24118 0.0
Cd1 Cd 0.24104 0.26703 0.25975 0.0
O2 O 0.29363 0.20437 0.28291 0.0
Cd3 Cd 0.24526 0.21846 0.31085 0.0
O4 O 0.2076 0.20043 0.35225 0.0
C5 C 0.22038 0.1804 0.37372 0.0
O6 O 0.25387 0.17408 0.36986 0.0
C7 C 0.30948 0.21766 0.25602 0.0
C8 C 0.22048 0.31994 0.21767 0.0
O9 O 0.23644 0.32812 0.24784 0.0
O10 O 0.21484 0.28692 0.20704 0.0
O11 O 0.36286 0.81119 0.82732 0.0
Cd12 Cd 0.34435 0.79027 0.76588 0.0
O13 O 0.31519 0.83925 0.82919 0.0
Cd14 Cd 0.27095 0.87181 0.84146 0.0
O15 O 0.22005 0.88393 0.81951 0.0
C16 C 0.2116 0.91515 0.81586 0.0
O17 O 0.23338 0.94261 0.82779 0.0
C18 C 0.34361 0.83254 0.8444 0.0
C19 C 0.38483 0.73902 0.7334 0.0
O20 O 0.39663 0.77198 0.73611 0.0
O21 O 0.35397 0.73007 0.74637 0.0
O22 O 0.82596 0.32317 0.78764 0.0
Cd23 Cd 0.78548 0.28496 0.74634 0.0
O24 O 0.81162 0.28426 0.82684 0.0
Cd25 Cd 0.80473 0.25429 0.87518 0.0
O26 O 0.77771 0.2121 0.90565 0.0
C27 C 0.77228 0.21489 0.93949 0.0
O28 O 0.78452 0.2442 0.95832 0.0
C29 C 0.82986 0.31274 0.81895 0.0
C30 C 0.74367 0.32 0.70148 0.0
O31 O 0.73187 0.31059 0.73212 0.0
O32 O 0.77534 0.31344 0.69245 0.0
O33 O 0.87592 0.86367 0.26495 0.0
Cd34 Cd 0.866 0.8432 0.2013 0.0
O35 O 0.83808 0.82069 0.28222 0.0
Cd36 Cd 0.80508 0.78921 0.31919 0.0
O37 O 0.77198 0.74945 0.34746 0.0
C38 C 0.73911 0.74176 0.3404 0.0
O39 O 0.72422 0.7587 0.31592 0.0
C40 C 0.85969 0.84798 0.29025 0.0
C41 C 0.89634 0.78094 0.17784 0.0
O42 O 0.91399 0.81149 0.17664 0.0
O43 O 0.8647 0.7798 0.1908 0.0
O44 O 0.94297 0.91252 0.92186 0.0
Cd45 Cd 0.91929 0.89523 0.98033 0.0
O46 O 0.95941 0.9676 0.94236 0.0
Cd47 Cd 0.92939 0.96191 0.99217 0.0
O48 O 0.87861 0.96371 0.02024 0.0
C49 C 0.86364 0.9924 0.02106 0.0
O50 O 0.88032 0.02024 0.00708 0.0
C51 C 0.95832 0.94318 0.91687 0.0
C52 C 0.94423 0.83188 0.99831 0.0
O53 O 0.91452 0.83175 0.98191 0.0
O54 O 0.96194 0.86198 0.00648 0.0
O55 O 0.56352 0.99257 0.43892 0.0
Cd56 Cd 0.58615 0.96743 0.49186 0.0
O57 O 0.58312 0.0464 0.46018 0.0
Cd58 Cd 0.59051 0.10462 0.4625 0.0
O59 O 0.59311 0.16213 0.47554 0.0
C60 C 0.57398 0.17315 0.50153 0.0
O61 O 0.554 0.14974 0.51903 0.0
C62 C 0.5672 0.02588 0.4355 0.0
C63 C 0.66029 0.97572 0.49589 0.0
O64 O 0.64413 0.94651 0.4823 0.0
O65 O 0.64145 1.00065 0.50726 0.0
O66 O 0.55529 0.67726 0.11018 0.0
Cd67 Cd 0.58175 0.62315 0.12327 0.0
O68 O 0.50192 0.65356 0.12317 0.0
Cd69 Cd 0.44374 0.64693 0.12746 0.0
O70 O 0.3888 0.62203 0.12572 0.0
C71 C 0.38368 0.59028 0.11173 0.0
O72 O 0.41121 0.57431 0.09949 0.0
C73 C 0.52202 0.67981 0.11275 0.0
C74 C 0.57342 0.60616 0.19478 0.0
O75 O 0.60166 0.62444 0.18475 0.0
O76 O 0.54926 0.59637 0.17114 0.0
O77 O 0.11384 0.51853 0.67702 0.0
Cd78 Cd 0.14286 0.53077 0.61977 0.0
O79 O 0.12594 0.46368 0.66504 0.0
Cd80 Cd 0.12555 0.40637 0.66877 0.0
O81 O 0.12339 0.3498 0.65152 0.0
C82 C 0.11537 0.34077 0.61877 0.0
O83 O 0.10917 0.36558 0.59744 0.0
C84 C 0.11196 0.48666 0.6859 0.0
C85 C 0.21702 0.5391 0.62283 0.0
O86 O 0.19918 0.56628 0.62437 0.0
O87 O 0.19982 0.50815 0.62052 0.0
Zn88 Zn 0.96037 0.05846 0.6147 0.0
Zn89 Zn 0.03666 0.95843 0.55104 0.0
Zn90 Zn 0.99731 0.00969 0.58086 0.0
C91 C 0.06545 0.02708 0.53095 0.0
C92 C 0.96786 0.94687 0.52101 0.0
O93 O 0.99564 0.00141 0.63913 0.0
O94 O 0.96513 0.04376 0.66445 0.0
C95 C 0.0158 0.09566 0.58095 0.0
O96 O 0.03978 0.03772 0.55065 0.0
O97 O 0.07013 0.99438 0.52706 0.0
O98 O 0.99655 0.9324 0.52233 0.0
O99 O 0.96375 0.97579 0.54058 0.0
O100 O 0.98915 0.10126 0.60045 0.0
O101 O 0.02265 0.06368 0.57115 0.0
O102 O 0.9422 0.99986 0.55934 0.0
O103 O 0.9161 0.04389 0.58769 0.0
C104 C 0.91469 0.01713 0.56519 0.0
O105 O 0.02212 0.98137 0.62312 0.0
O106 O 0.05259 0.93983 0.59615 0.0
C107 C 0.98193 0.01688 0.66726 0.0
C108 C 0.04279 0.95633 0.62471 0.0
Zn109 Zn 0.50603 0.05213 0.05423 0.0
Zn110 Zn 0.5527 0.97566 0.14305 0.0
Zn111 Zn 0.5299 0.01247 0.10067 0.0
C112 C 0.60895 0.98986 0.09952 0.0
C113 C 0.50208 0.93094 0.11143 0.0
O114 O 0.50026 0.05285 0.13164 0.0
O115 O 0.48763 0.08775 0.08945 0.0
C116 C 0.57841 0.0586 0.04419 0.0
O117 O 0.58838 0.01371 0.09252 0.0
O118 O 0.5975 0.96489 0.11839 0.0
O119 O 0.51433 0.93619 0.14298 0.0
O120 O 0.50736 0.95572 0.0894 0.0
O121 O 0.55089 0.06606 0.02857 0.0
O122 O 0.57571 0.03965 0.07169 0.0
O123 O 0.4928 0.97744 0.06398 0.0
O124 O 0.47068 0.016 0.03074 0.0
C125 C 0.47131 0.98447 0.03932 0.0
O126 O 0.51743 0.03397 0.15668 0.0
O127 O 0.55751 0.00893 0.1862 0.0
C128 C 0.48662 0.08064 0.12209 0.0
C129 C 0.53461 0.03092 0.1859 0.0
Zn130 Zn 0.59671 0.55023 0.56663 0.0
Zn131 Zn 0.49333 0.47699 0.48908 0.0
Zn132 Zn 0.54561 0.51444 0.52626 0.0
C133 C 0.53397 0.42811 0.51709 0.0
C134 C 0.53245 0.51888 0.44078 0.0
O135 O 0.52071 0.54917 0.56801 0.0
O136 O 0.56562 0.57616 0.60056 0.0
C137 C 0.60628 0.4796 0.57114 0.0
O138 O 0.55229 0.45707 0.52898 0.0
O139 O 0.506 0.42922 0.49909 0.0
O140 O 0.50576 0.49622 0.44221 0.0
O141 O 0.55102 0.52888 0.46933 0.0
O142 O 0.62016 0.50997 0.58247 0.0
O143 O 0.57867 0.47638 0.55051 0.0
O144 O 0.57769 0.54936 0.49023 0.0
O145 O 0.61985 0.5756 0.52689 0.0
C146 C 0.60595 0.57099 0.49596 0.0
O147 O 0.49324 0.52654 0.55012 0.0
O148 O 0.45258 0.49505 0.51521 0.0
C149 C 0.53266 0.57134 0.59417 0.0
C150 C 0.46043 0.51656 0.54208 0.0
Zn151 Zn 0.10009 0.55681 0.98039 0.0
Zn152 Zn 0.0088 0.48685 0.0691 0.0
Zn153 Zn 0.05405 0.52051 0.022 0.0
C154 C 0.07893 0.47667 0.08805 0.0
C155 C 0.99414 0.45639 0.99762 0.0
O156 O 0.04209 0.57673 0.024 0.0
O157 O 0.08293 0.60452 0.99025 0.0
C158 C 0.14091 0.52747 0.02907 0.0
O159 O 0.08603 0.49458 0.06028 0.0
O160 O 0.04717 0.47044 0.09856 0.0
O161 O 0.98515 0.45351 0.0302 0.0
O162 O 0.01936 0.4799 0.98937 0.0
O163 O 0.1446 0.54624 0.00244 0.0
O164 O 0.10962 0.51591 0.03981 0.0
O165 O 0.04446 0.49683 0.96607 0.0
O166 O 0.08494 0.52883 0.93543 0.0
C167 C 0.06012 0.50408 0.93621 0.0
O168 O 0.02265 0.55983 0.0518 0.0
O169 O 0.98558 0.52986 0.08764 0.0
C170 C 0.05555 0.60515 0.00994 0.0
C171 C 0.99791 0.55905 0.07598 0.0
H172 H 0.14972 0.18636 0.38962 0.0
H173 H 0.13532 0.02305 0.51434 0.0
H174 H 0.23944 0.13239 0.41925 0.0
H175 H 0.04959 0.08871 0.50336 0.0
H176 H 0.17377 0.06348 0.47952 0.0
H177 H 0.11239 0.15195 0.43148 0.0
C178 C 0.16163 0.16749 0.40507 0.0
C179 C 0.19772 0.16208 0.4007 0.0
C180 C 0.14668 0.06936 0.48503 0.0
C181 C 0.15519 0.12253 0.44836 0.0
C182 C 0.12471 0.04621 0.50483 0.0
C183 C 0.08937 0.05278 0.51201 0.0
C184 C 0.13306 0.09904 0.47174 0.0
C185 C 0.07692 0.08313 0.49904 0.0
C186 C 0.14032 0.14789 0.42898 0.0
C187 C 0.21174 0.13737 0.42153 0.0
N188 N 0.09867 0.10504 0.47926 0.0
N189 N 0.19041 0.11836 0.44418 0.0
H190 H 0.31858 0.89016 0.88313 0.0
H191 H 0.48554 0.91711 0.01568 0.0
H192 H 0.39772 0.8156 0.8859 0.0
H193 H 0.40452 0.98945 0.01522 0.0
H194 H 0.44939 0.87509 0.97438 0.0
H195 H 0.34512 0.92261 0.93702 0.0
C196 C 0.34107 0.88017 0.89534 0.0
C197 C 0.35596 0.85015 0.87969 0.0
C198 C 0.43914 0.89984 0.98386 0.0
C199 C 0.38701 0.88761 0.94124 0.0
C200 C 0.45959 0.9235 0.00793 0.0
C201 C 0.44779 0.95641 0.0193 0.0
C202 C 0.40684 0.90948 0.97079 0.0
C203 C 0.41461 0.96428 0.00702 0.0
C204 C 0.3564 0.89887 0.9261 0.0
C205 C 0.38548 0.8388 0.89675 0.0
N206 N 0.39547 0.94116 0.98323 0.0
N207 N 0.4002 0.85769 0.92631 0.0
H208 H 0.76409 0.35066 0.63939 0.0
H209 H 0.57528 0.42108 0.60288 0.0
H210 H 0.67282 0.33042 0.70823 0.0
H211 H 0.67557 0.46879 0.56483 0.0
H212 H 0.60713 0.37623 0.63068 0.0
H213 H 0.72822 0.38301 0.60132 0.0
C214 C 0.73645 0.35283 0.64641 0.0
C215 C 0.72159 0.3382 0.67734 0.0
C216 C 0.622 0.39622 0.61574 0.0
C217 C 0.68026 0.37499 0.6336 0.0
C218 C 0.60386 0.4215 0.59969 0.0
C219 C 0.62301 0.44849 0.58172 0.0
C220 C 0.65933 0.39801 0.61333 0.0
C221 C 0.65998 0.44836 0.57859 0.0
C222 C 0.71598 0.37129 0.62464 0.0
C223 C 0.68549 0.34166 0.68489 0.0
N224 N 0.67695 0.42362 0.59434 0.0
N225 N 0.66606 0.35984 0.66325 0.0
H226 H 0.86424 0.7128 0.17341 0.0
H227 H 0.03413 0.62481 0.08976 0.0
H228 H 0.96313 0.77398 0.14996 0.0
H229 H 0.93004 0.56814 0.09754 0.0
H230 H 0.00982 0.67939 0.11413 0.0
H231 H 0.88915 0.65901 0.1487 0.0
C232 C 0.89125 0.71494 0.16317 0.0
C233 C 0.91162 0.748 0.16382 0.0
C234 C 0.99225 0.65506 0.11038 0.0
C235 C 0.94036 0.68636 0.13536 0.0
C236 C 0.00606 0.62402 0.09619 0.0
C237 C 0.98383 0.59222 0.09075 0.0
C238 C 0.95608 0.65407 0.1199 0.0
C239 C 0.94799 0.59223 0.10094 0.0
C240 C 0.90544 0.68418 0.14895 0.0
C241 C 0.94646 0.74907 0.15006 0.0
N242 N 0.93522 0.62267 0.11494 0.0
N243 N 0.95974 0.71871 0.13642 0.0
H244 H 0.35195 0.23912 0.19976 0.0
H245 H 0.45547 0.0646 0.18678 0.0
H246 H 0.33947 0.15974 0.27756 0.0
H247 H 0.47411 0.14936 0.11571 0.0
H248 H 0.41746 0.10142 0.22428 0.0
H249 H 0.40073 0.20897 0.17192 0.0
C250 C 0.35963 0.21554 0.21119 0.0
C251 C 0.3413 0.20181 0.24084 0.0
C252 C 0.43031 0.11215 0.20075 0.0
C253 C 0.39706 0.16691 0.20892 0.0
C254 C 0.45229 0.09123 0.17959 0.0
C255 C 0.46796 0.10388 0.14812 0.0
C256 C 0.42379 0.14581 0.19013 0.0
C257 C 0.46226 0.13837 0.13957 0.0
C258 C 0.38753 0.19831 0.1953 0.0
C259 C 0.35264 0.17121 0.25459 0.0
N260 N 0.44043 0.15793 0.16021 0.0
N261 N 0.37951 0.15461 0.23831 0.0
H262 H 0.1652 0.86406 0.78089 0.0
H263 H 0.06229 0.00397 0.68161 0.0
H264 H 0.18547 0.97785 0.80164 0.0
H265 H 0.06128 0.89306 0.64549 0.0
H266 H 0.09722 0.9934 0.73427 0.0
H267 H 0.11739 0.87314 0.73985 0.0
C268 C 0.15937 0.89097 0.77717 0.0
C269 C 0.17978 0.92026 0.79444 0.0
C270 C 0.08891 0.97128 0.7151 0.0
C271 C 0.12494 0.9308 0.7473 0.0
C272 C 0.06868 0.97722 0.68525 0.0
C273 C 0.0587 0.94927 0.65931 0.0
C274 C 0.0994 0.93718 0.7189 0.0
C275 C 0.06844 0.91532 0.66488 0.0
C276 C 0.13208 0.89612 0.75364 0.0
C277 C 0.17073 0.95449 0.78866 0.0
N278 N 0.08839 0.91026 0.69394 0.0
N279 N 0.14418 0.95882 0.76537 0.0
H280 H 0.86236 0.37983 0.8134 0.0
H281 H 0.96272 0.38919 0.00292 0.0
H282 H 0.8564 0.29314 0.88277 0.0
H283 H 0.97786 0.47178 0.92915 0.0
H284 H 0.92416 0.35343 0.95885 0.0
H285 H 0.90487 0.41377 0.85496 0.0
C286 C 0.86978 0.3679 0.83745 0.0
C287 C 0.85512 0.33362 0.84477 0.0
C288 C 0.93623 0.37918 0.95201 0.0
C289 C 0.90412 0.37249 0.89255 0.0
C290 C 0.95829 0.3996 0.97716 0.0
C291 C 0.97397 0.43331 0.96941 0.0
C292 C 0.9293 0.39271 0.91893 0.0
C293 C 0.96715 0.44555 0.93574 0.0
C294 C 0.89416 0.38734 0.86115 0.0
C295 C 0.86605 0.31965 0.8763 0.0
N296 N 0.94514 0.42538 0.91182 0.0
N297 N 0.88976 0.33913 0.899 0.0
H298 H 0.66703 0.7222 0.33697 0.0
H299 H 0.67598 0.57658 0.48094 0.0
H300 H 0.76327 0.69737 0.38715 0.0
H301 H 0.57682 0.61032 0.44657 0.0
H302 H 0.70783 0.61497 0.43922 0.0
H303 H 0.63312 0.67651 0.3702 0.0
C304 C 0.68106 0.70712 0.35487 0.0
C305 C 0.71806 0.71383 0.35949 0.0
C306 C 0.67909 0.61387 0.44041 0.0
C307 C 0.67948 0.66152 0.3973 0.0
C308 C 0.66092 0.59185 0.46412 0.0
C309 C 0.62383 0.59028 0.46693 0.0
C310 C 0.6601 0.635 0.4196 0.0
C311 C 0.60548 0.61065 0.44479 0.0
C312 C 0.66166 0.68107 0.37379 0.0
C313 C 0.73481 0.69338 0.3829 0.0
N314 N 0.62386 0.63246 0.4221 0.0
N315 N 0.7154 0.66828 0.40091 0.0
H316 H 0.20426 0.31571 0.14574 0.0
H317 H 0.08593 0.47361 0.16033 0.0
H318 H 0.20563 0.38681 0.24203 0.0
H319 H 0.13529 0.44405 0.05898 0.0
H320 H 0.12717 0.44012 0.19128 0.0
H321 H 0.17656 0.35976 0.11309 0.0
C322 C 0.19903 0.34071 0.15991 0.0
C323 C 0.20707 0.34756 0.1967 0.0
C324 C 0.12939 0.44145 0.16235 0.0
C325 C 0.17495 0.39763 0.15972 0.0
C326 C 0.10587 0.46047 0.14471 0.0
C327 C 0.1073 0.4615 0.10713 0.0
C328 C 0.15373 0.42236 0.14212 0.0
C329 C 0.13353 0.444 0.08805 0.0
C330 C 0.18343 0.36586 0.14122 0.0
C331 C 0.19987 0.38045 0.2137 0.0
N332 N 0.15531 0.42446 0.10568 0.0
N333 N 0.18363 0.404 0.19525 0.0
H334 H 0.74052 0.15233 0.90768 0.0
H335 H 0.62695 0.10323 0.08297 0.0
H336 H 0.75187 0.21322 0.01049 0.0
H337 H 0.60676 0.05194 0.9769 0.0
H338 H 0.67965 0.13726 0.05945 0.0
H339 H 0.6984 0.10916 0.93506 0.0
C340 C 0.73441 0.15651 0.93611 0.0
C341 C 0.74948 0.18675 0.9567 0.0
C342 C 0.66409 0.11812 0.04141 0.0
C343 C 0.70105 0.1373 0.98824 0.0
C344 C 0.63427 0.09853 0.0549 0.0
C345 C 0.61314 0.07435 0.0319 0.0
C346 C 0.6724 0.11383 0.00451 0.0
C347 C 0.62283 0.07001 0.99552 0.0
C348 C 0.71029 0.13182 0.95172 0.0
C349 C 0.74069 0.19051 0.99348 0.0
N350 N 0.65171 0.08964 0.98289 0.0
N351 N 0.71685 0.16624 0.008 0.0
H352 H 0.86196 0.81033 0.3504 0.0
H353 H 0.92576 0.98291 0.48014 0.0
H354 H 0.874 0.91699 0.31592 0.0
H355 H 0.95075 0.87717 0.49874 0.0
H356 H 0.89103 0.95837 0.42702 0.0
H357 H 0.87951 0.83411 0.41154 0.0
C358 C 0.86746 0.83879 0.35587 0.0
C359 C 0.86646 0.86175 0.32811 0.0
C360 C 0.90361 0.9405 0.44313 0.0
C361 C 0.88671 0.88905 0.39775 0.0
C362 C 0.9231 0.95443 0.47362 0.0
C363 C 0.94112 0.932 0.49379 0.0
C364 C 0.90207 0.90389 0.43291 0.0
C365 C 0.93735 0.89536 0.48377 0.0
C366 C 0.87776 0.85231 0.39067 0.0
C367 C 0.87467 0.89836 0.33654 0.0
N368 N 0.91843 0.88246 0.45391 0.0
N369 N 0.88451 0.91088 0.37055 0.0
H370 H 0.45702 0.74005 0.73096 0.0
H371 H 0.46918 0.59316 0.57447 0.0
H372 H 0.36077 0.67766 0.69414 0.0
H373 H 0.54316 0.60119 0.6628 0.0
H374 H 0.43048 0.63006 0.61106 0.0
H375 H 0.49198 0.69626 0.69882 0.0
C376 C 0.44331 0.71711 0.71613 0.0
C377 C 0.40605 0.71228 0.7152 0.0
C378 C 0.4549 0.62314 0.62255 0.0
C379 C 0.44567 0.66287 0.67797 0.0
C380 C 0.47655 0.60151 0.60199 0.0
C381 C 0.50847 0.59263 0.6162 0.0
C382 C 0.46622 0.63734 0.65688 0.0
C383 C 0.51847 0.60695 0.65096 0.0
C384 C 0.4632 0.69216 0.69801 0.0
C385 C 0.38949 0.68211 0.69566 0.0
N386 N 0.49759 0.62893 0.67001 0.0
N387 N 0.40945 0.65871 0.6773 0.0
H388 H 0.99073 0.00639 0.89667 0.0
H389 H 0.98192 0.94801 0.68536 0.0
H390 H 0.95574 0.89959 0.85421 0.0
H391 H 0.99059 0.05657 0.73087 0.0
H392 H 0.98452 0.92782 0.7465 0.0
H393 H 0.00386 0.02276 0.8355 0.0
C394 C 0.98621 0.98622 0.87455 0.0
C395 C 0.97154 0.95169 0.8806 0.0
C396 C 0.98616 0.95605 0.74301 0.0
C397 C 0.98632 0.97043 0.81032 0.0
C398 C 0.98481 0.96754 0.70822 0.0
C399 C 0.98596 0.00396 0.70325 0.0
C400 C 0.98873 0.98124 0.77283 0.0
C401 C 0.98935 0.02823 0.73363 0.0
C402 C 0.99363 0.99565 0.83957 0.0
C403 C 0.96665 0.92663 0.85079 0.0
N404 N 0.99053 0.01645 0.76711 0.0
N405 N 0.97365 0.9366 0.81686 0.0
H406 H 0.5957 0.08256 0.39929 0.0
H407 H 0.47614 0.01862 0.22758 0.0
H408 H 0.5088 0.99965 0.39626 0.0
H409 H 0.57706 0.08173 0.22397 0.0
H410 H 0.47587 0.02912 0.29338 0.0
H411 H 0.57791 0.0984 0.33991 0.0
C412 C 0.57222 0.06843 0.38668 0.0
C413 C 0.55373 0.0397 0.40266 0.0
C414 C 0.49748 0.04177 0.27814 0.0
C415 C 0.53359 0.05727 0.33454 0.0
C416 C 0.4973 0.03628 0.24056 0.0
C417 C 0.52653 0.04959 0.22054 0.0
C418 C 0.52736 0.0603 0.29559 0.0
C419 C 0.55391 0.07131 0.23863 0.0
C420 C 0.56223 0.0773 0.35264 0.0
C421 C 0.52402 0.02173 0.38465 0.0
N422 N 0.55403 0.07546 0.27524 0.0
N423 N 0.51508 0.03057 0.35142 0.0
H424 H 0.62318 0.61254 0.24909 0.0
H425 H 0.48403 0.53474 0.39327 0.0
H426 H 0.51315 0.57677 0.22605 0.0
H427 H 0.59727 0.53852 0.40933 0.0
H428 H 0.49463 0.55837 0.33469 0.0
H429 H 0.61454 0.59361 0.31061 0.0
C430 C 0.59721 0.60086 0.25698 0.0
C431 C 0.56884 0.59611 0.23235 0.0
C432 C 0.51727 0.55429 0.35099 0.0
C433 C 0.55887 0.57464 0.30244 0.0
C434 C 0.51124 0.5408 0.38447 0.0
C435 C 0.53986 0.53508 0.4063 0.0
C436 C 0.55227 0.56208 0.33894 0.0
C437 C 0.57453 0.54338 0.39359 0.0
C438 C 0.59239 0.58997 0.292 0.0
C439 C 0.53581 0.58081 0.24399 0.0
N440 N 0.57985 0.55652 0.36061 0.0
N441 N 0.53177 0.57071 0.27813 0.0
H442 H 0.12563 0.4346 0.73023 0.0
H443 H 0.01185 0.52036 0.8885 0.0
H444 H 0.05784 0.51841 0.71941 0.0
H445 H 0.08957 0.44723 0.90446 0.0
H446 H 0.01453 0.5054 0.82347 0.0
H447 H 0.10046 0.42595 0.79024 0.0
C448 C 0.10479 0.45051 0.74003 0.0
C449 C 0.09393 0.47738 0.71988 0.0
C450 C 0.0302 0.49169 0.84117 0.0
C451 C 0.06537 0.46799 0.78865 0.0
C452 C 0.0282 0.49984 0.87832 0.0
C453 C 0.0502 0.48463 0.90166 0.0
C454 C 0.05512 0.4689 0.82735 0.0
C455 C 0.07184 0.45907 0.88719 0.0
C456 C 0.09058 0.44573 0.77441 0.0
C457 C 0.06732 0.4977 0.73426 0.0
N458 N 0.07433 0.4525 0.85084 0.0
N459 N 0.05421 0.49282 0.76784 0.0
H460 H 0.82493 0.05003 0.02987 0.0
H461 H 0.64537 0.93356 0.07862 0.0
H462 H 0.81801 0.93714 0.04216 0.0
H463 H 0.65687 0.04788 0.09245 0.0
H464 H 0.70766 0.93461 0.06019 0.0
H465 H 0.76253 0.05025 0.04825 0.0
C466 C 0.81038 0.02533 0.03662 0.0
C467 C 0.82673 0.99349 0.03444 0.0
C468 C 0.69655 0.95958 0.06686 0.0
C469 C 0.75532 0.99356 0.05512 0.0
C470 C 0.66099 0.95899 0.07727 0.0
C471 C 0.64581 0.99085 0.08602 0.0
C472 C 0.71721 0.9923 0.06533 0.0
C473 C 0.66721 0.02299 0.08419 0.0
C474 C 0.77477 0.0255 0.04709 0.0
C475 C 0.80656 0.96231 0.0435 0.0
N476 N 0.70192 0.02297 0.07401 0.0
N477 N 0.77189 0.96311 0.05324 0.0
H478 H 0.70211 0.03807 0.50686 0.0
H479 H 0.87986 0.95068 0.54656 0.0
H480 H 0.70765 0.92468 0.49231 0.0
H481 H 0.87286 0.06284 0.53957 0.0
H482 H 0.81872 0.93879 0.52278 0.0
H483 H 0.76606 0.04641 0.51601 0.0
C484 C 0.71687 0.01488 0.50547 0.0
C485 C 0.69949 0.98064 0.49909 0.0
C486 C 0.83088 0.96592 0.52595 0.0
C487 C 0.77313 0.9899 0.50988 0.0
C488 C 0.86574 0.97263 0.53929 0.0
C489 C 0.88113 0.00778 0.54525 0.0
C490 C 0.81161 0.99465 0.51892 0.0
C491 C 0.86175 0.03537 0.53578 0.0
C492 C 0.75351 0.01963 0.51056 0.0
C493 C 0.72007 0.95157 0.49724 0.0
N494 N 0.82802 0.02825 0.52345 0.0
N495 N 0.75585 0.9568 0.50306 0.0
H496 H 0.36307 0.52933 0.07015 0.0
H497 H 0.15479 0.543 0.10069 0.0
H498 H 0.32118 0.61037 0.14163 0.0
H499 H 0.20071 0.50203 0.00154 0.0
H500 H 0.2145 0.55112 0.12795 0.0
H501 H 0.30231 0.50352 0.05688 0.0
C502 C 0.34115 0.54146 0.08345 0.0
C503 C 0.34721 0.57244 0.10659 0.0
C504 C 0.21126 0.53946 0.10055 0.0
C505 C 0.27767 0.54267 0.09181 0.0
C506 C 0.17727 0.53448 0.08518 0.0
C507 C 0.17315 0.522 0.04889 0.0
C508 C 0.24089 0.53133 0.07947 0.0
C509 C 0.20301 0.51181 0.02962 0.0
C510 C 0.30651 0.52666 0.07585 0.0
C511 C 0.3177 0.58679 0.1232 0.0
N512 N 0.2357 0.51695 0.04505 0.0
N513 N 0.28414 0.57192 0.1153 0.0
H514 H 0.26028 0.59558 0.6009 0.0
H515 H 0.43939 0.50035 0.60968 0.0
H516 H 0.26299 0.49157 0.64013 0.0
H517 H 0.41386 0.56086 0.52156 0.0
H518 H 0.38218 0.51225 0.63841 0.0
H519 H 0.32451 0.59776 0.58933 0.0
C520 C 0.2745 0.57356 0.6078 0.0
C521 C 0.25629 0.54312 0.62101 0.0
C522 C 0.38966 0.52362 0.61324 0.0
C523 C 0.32948 0.54578 0.60842 0.0
C524 C 0.42219 0.51704 0.59706 0.0
C525 C 0.431 0.52979 0.56343 0.0
C526 C 0.36641 0.54351 0.59578 0.0
C527 C 0.40778 0.55073 0.5476 0.0
C528 C 0.31104 0.57482 0.60112 0.0
C529 C 0.276 0.51531 0.62945 0.0
N530 N 0.37644 0.55694 0.5639 0.0
N531 N 0.31158 0.51721 0.62285 0.0
H532 H 0.91056 0.76429 0.99082 0.0
H533 H 0.0878 0.67243 0.02025 0.0
H534 H 0.01021 0.82279 0.02376 0.0
H535 H 0.98449 0.61333 0.00998 0.0
H536 H 0.05936 0.72789 0.02333 0.0
H537 H 0.93627 0.70874 0.99955 0.0
C538 C 0.93777 0.76547 1.00011 0.0
C539 C 0.95838 0.79824 0.00623 0.0
C540 C 0.04281 0.70284 0.02082 0.0
C541 C 0.98803 0.73477 0.01601 0.0
C542 C 0.05905 0.67124 0.01896 0.0
C543 C 0.03838 0.63844 0.01503 0.0
C544 C 0.00564 0.70162 0.01791 0.0
C545 C 1.00128 0.6382 0.01331 0.0
C546 C 0.9524 0.73375 0.00518 0.0
C547 C 0.9934 0.79816 0.01851 0.0
N548 N 0.98606 0.66936 0.01447 0.0
N549 N 0.00722 0.76692 0.02262 0.0
H550 H 0.46434 0.71099 0.14201 0.0
H551 H 0.52442 0.89217 0.05285 0.0
H552 H 0.54845 0.72503 0.06363 0.0
H553 H 0.45488 0.88523 0.14501 0.0
H554 H 0.51912 0.82733 0.04434 0.0
H555 H 0.44785 0.77062 0.13229 0.0
C556 C 0.47872 0.7262 0.12209 0.0
C557 C 0.50792 0.71314 0.10373 0.0
C558 C 0.50407 0.83991 0.06577 0.0
C559 C 0.48948 0.78135 0.09273 0.0
C560 C 0.50648 0.877 0.07011 0.0
C561 C 0.4894 0.89404 0.09915 0.0
C562 C 0.48504 0.81975 0.09113 0.0
C563 C 0.46813 0.87299 0.12203 0.0
C564 C 0.46946 0.76032 0.11673 0.0
C565 C 0.52602 0.73426 0.07868 0.0
N566 N 0.46695 0.83692 0.11789 0.0
N567 N 0.5167 0.76735 0.07413 0.0
H568 H 0.13499 0.28303 0.65125 0.0
H569 H 1.0001 0.14948 0.54207 0.0
H570 H 0.08335 0.31206 0.55625 0.0
H571 H 0.0843 0.11289 0.60242 0.0
H572 H 0.03302 0.2084 0.54301 0.0
H573 H 0.11961 0.22024 0.63194 0.0
C574 C 0.12076 0.2762 0.62615 0.0
C575 C 0.10994 0.30282 0.60562 0.0
C576 C 0.04487 0.18732 0.55521 0.0
C577 C 0.09214 0.23116 0.58352 0.0
C578 C 0.02615 0.15372 0.5545 0.0
C579 C 0.03973 0.12661 0.57211 0.0
C580 C 0.07669 0.19407 0.57487 0.0
C581 C 0.07324 0.13328 0.58836 0.0
C582 C 0.11223 0.24037 0.61501 0.0
C583 C 0.09193 0.29244 0.57311 0.0
N584 N 0.09029 0.1667 0.59016 0.0
N585 N 0.08302 0.25745 0.5634 0.0
H586 H 0.52737 0.20494 0.54694 0.0
H587 H 0.60029 0.40452 0.51002 0.0
H588 H 0.61704 0.22921 0.47712 0.0
H589 H 0.49177 0.37179 0.53843 0.0
H590 H 0.61444 0.34255 0.5123 0.0
H591 H 0.5219 0.26849 0.55822 0.0
C592 C 0.54614 0.22362 0.53422 0.0
C593 C 0.57241 0.21169 0.51065 0.0
C594 C 0.58769 0.34917 0.51851 0.0
C595 C 0.5664 0.28454 0.52372 0.0
C596 C 0.57973 0.38441 0.51749 0.0
C597 C 0.54484 0.39298 0.52396 0.0
C598 C 0.5606 0.32273 0.52649 0.0
C599 C 0.51895 0.36608 0.53311 0.0
C600 C 0.54296 0.25989 0.54067 0.0
C601 C 0.59611 0.23723 0.49513 0.0
N602 N 0.52732 0.33216 0.53404 0.0
N603 N 0.59245 0.27251 0.5018 0.0
loop_
_geom_bond_atom_site_label_1
_geom_bond_atom_site_label_2
_geom_bond_distance
_geom_bond_site_symmetry_2
_ccdc_geom_bond_type
O0 Cd1 2.300 . S
O0 C7 1.275 . S
Cd1 O0 2.300 . S
Cd1 O9 2.381 . S
Cd1 O10 2.378 . S
O2 Cd3 2.385 . S
O2 C7 1.255 . S
Cd3 O2 2.385 . S
Cd3 O4 2.317 . S
O4 Cd3 2.317 . S
O4 C5 1.232 . S
C5 O4 1.232 . S
C5 O6 1.218 . S
O6 C5 1.218 . S
C7 O0 1.275 . S
C7 O2 1.255 . S
C8 O9 1.258 . S
C8 O10 1.256 . S
O9 Cd1 2.381 . S
O9 C8 1.258 . S
O10 Cd1 2.378 . S
O10 C8 1.256 . S
O11 Cd12 2.300 . S
O11 C18 1.275 . S
Cd12 O11 2.300 . S
Cd12 O20 2.381 . S
Cd12 O21 2.378 . S
O13 Cd14 2.385 . S
O13 C18 1.255 . S
Cd14 O13 2.385 . S
Cd14 O15 2.317 . S
O15 Cd14 2.317 . S
O15 C16 1.232 . S
C16 O15 1.232 . S
C16 O17 1.218 . S
O17 C16 1.218 . S
C18 O11 1.275 . S
C18 O13 1.255 . S
C19 O20 1.258 . S
C19 O21 1.256 . S
O20 Cd12 2.381 . S
O20 C19 1.258 . S
O21 Cd12 2.378 . S
O21 C19 1.256 . S
O22 Cd23 2.300 . S
O22 C29 1.275 . S
Cd23 O22 2.300 . S
Cd23 O31 2.381 . S
Cd23 O32 2.378 . S
O24 Cd25 2.385 . S
O24 C29 1.255 . S
Cd25 O24 2.385 . S
Cd25 O26 2.317 . S
O26 Cd25 2.317 . S
O26 C27 1.232 . S
C27 O26 1.232 . S
C27 O28 1.218 . S
O28 C27 1.218 . S
C29 O22 1.275 . S
C29 O24 1.255 . S
C30 O31 1.258 . S
C30 O32 1.256 . S
O31 Cd23 2.381 . S
O31 C30 1.258 . S
O32 Cd23 2.378 . S
O32 C30 1.256 . S
O33 Cd34 2.300 . S
O33 C40 1.275 . S
Cd34 O33 2.300 . S
Cd34 O42 2.381 . S
Cd34 O43 2.378 . S
O35 Cd36 2.385 . S
O35 C40 1.255 . S
Cd36 O35 2.385 . S
Cd36 O37 2.317 . S
O37 Cd36 2.317 . S
O37 C38 1.232 . S
C38 O37 1.232 . S
C38 O39 1.218 . S
O39 C38 1.218 . S
C40 O33 1.275 . S
C40 O35 1.255 . S
C41 O42 1.258 . S
C41 O43 1.256 . S
O42 Cd34 2.381 . S
O42 C41 1.258 . S
O43 Cd34 2.378 . S
O43 C41 1.256 . S
O44 Cd45 2.300 . S
O44 C51 1.275 . S
Cd45 O44 2.300 . S
Cd45 O53 2.381 . S
Cd45 O54 2.378 1_556 S
O46 Cd47 2.385 1_566 S
O46 C51 1.255 . S
Cd47 O46 2.385 1_544 S
Cd47 O48 2.317 1_545 S
O48 Cd47 2.317 1_565 S
O48 C49 1.232 . S
C49 O48 1.232 . S
C49 O50 1.218 1_565 S
O50 C49 1.218 1_545 S
C51 O44 1.275 . S
C51 O46 1.255 . S
C52 O53 1.258 1_554 S
C52 O54 1.256 . S
O53 Cd45 2.381 . S
O53 C52 1.258 1_556 S
O54 Cd45 2.378 1_554 S
O54 C52 1.256 . S
O55 Cd56 2.300 . S
O55 C62 1.275 . S
Cd56 O55 2.300 . S
Cd56 O64 2.381 . S
Cd56 O65 2.378 . S
O57 Cd58 2.385 . S
O57 C62 1.255 . S
Cd58 O57 2.385 . S
Cd58 O59 2.317 . S
O59 Cd58 2.317 . S
O59 C60 1.232 . S
C60 O59 1.232 . S
C60 O61 1.218 . S
O61 C60 1.218 . S
C62 O55 1.275 . S
C62 O57 1.255 . S
C63 O64 1.258 . S
C63 O65 1.256 . S
O64 Cd56 2.381 . S
O64 C63 1.258 . S
O65 Cd56 2.378 . S
O65 C63 1.256 . S
O66 Cd67 2.300 . S
O66 C73 1.275 . S
Cd67 O66 2.300 . S
Cd67 O75 2.381 . S
Cd67 O76 2.378 . S
O68 Cd69 2.385 . S
O68 C73 1.255 . S
Cd69 O68 2.385 . S
Cd69 O70 2.317 . S
O70 Cd69 2.317 . S
O70 C71 1.232 . S
C71 O70 1.232 . S
C71 O72 1.218 . S
O72 C71 1.218 . S
C73 O66 1.275 . S
C73 O68 1.255 . S
C74 O75 1.258 . S
C74 O76 1.256 . S
O75 Cd67 2.381 . S
O75 C74 1.258 . S
O76 Cd67 2.378 . S
O76 C74 1.256 . S
O77 Cd78 2.300 . S
O77 C84 1.275 . S
Cd78 O77 2.300 . S
Cd78 O86 2.381 . S
Cd78 O87 2.378 . S
O79 Cd80 2.385 . S
O79 C84 1.255 . S
Cd80 O79 2.385 . S
Cd80 O81 2.317 . S
O81 Cd80 2.317 . S
O81 C82 1.232 . S
C82 O81 1.232 . S
C82 O83 1.218 . S
O83 C82 1.218 . S
C84 O77 1.275 . S
C84 O79 1.255 . S
C85 O86 1.258 . S
C85 O87 1.256 . S
O86 Cd78 2.381 . S
O86 C85 1.258 . S
O87 Cd78 2.378 . S
O87 C85 1.256 . S
Zn88 O94 1.920 . S
Zn88 O100 1.898 . S
Zn88 O103 1.905 . S
Zn89 O97 1.905 1_565 S
Zn89 O98 1.898 . S
Zn89 O106 1.920 . S
Zn90 O93 2.080 1_455 S
Zn90 O96 2.114 . S
Zn90 O99 2.120 1_445 S
Zn90 O101 2.120 . S
Zn90 O102 2.114 1_455 S
Zn90 O105 2.080 . S
C91 O96 1.166 . S
C91 O97 1.182 . S
C92 O98 1.167 1_655 S
C92 O99 1.299 . S
O93 Zn90 2.080 1_655 S
O93 C107 1.305 . S
O94 Zn88 1.920 . S
O94 C107 1.234 . S
C95 O100 1.167 1_455 S
C95 O101 1.299 . S
O96 Zn90 2.114 . S
O96 C91 1.166 . S
O97 Zn89 1.905 1_545 S
O97 C91 1.182 . S
O98 Zn89 1.898 . S
O98 C92 1.167 1_455 S
O99 Zn90 2.120 1_665 S
O99 C92 1.299 . S
O100 Zn88 1.898 . S
O100 C95 1.167 1_655 S
O101 Zn90 2.120 . S
O101 C95 1.299 . S
O102 Zn90 2.114 1_655 S
O102 C104 1.166 . S
O103 Zn88 1.905 . S
O103 C104 1.182 . S
C104 O102 1.166 . S
C104 O103 1.182 . S
O105 Zn90 2.080 . S
O105 C108 1.305 1_545 S
O106 Zn89 1.920 . S
O106 C108 1.234 . S
C107 O93 1.305 . S
C107 O94 1.234 . S
C108 O105 1.305 1_565 S
C108 O106 1.234 . S
Zn109 O115 1.920 . S
Zn109 O121 1.898 . S
Zn109 O124 1.905 . S
Zn110 O118 1.905 . S
Zn110 O119 1.898 . S
Zn110 O127 1.920 . S
Zn111 O114 2.080 . S
Zn111 O117 2.114 1_545 S
Zn111 O120 2.120 1_545 S
Zn111 O122 2.120 . S
Zn111 O123 2.110 1_545 S
Zn111 O126 2.080 . S
C112 O117 1.166 . S
C112 O118 1.182 . S
C113 O119 1.167 . S
C113 O120 1.299 . S
O114 Zn111 2.080 . S
O114 C128 1.305 . S
O115 Zn109 1.920 . S
O115 C128 1.234 . S
C116 O121 1.167 . S
C116 O122 1.299 . S
O117 Zn111 2.114 1_565 S
O117 C112 1.166 . S
O118 Zn110 1.905 . S
O118 C112 1.182 . S
O119 Zn110 1.898 . S
O119 C113 1.167 . S
O120 Zn111 2.120 1_565 S
O120 C113 1.299 . S
O121 Zn109 1.898 . S
O121 C116 1.167 . S
O122 Zn111 2.120 . S
O122 C116 1.299 . S
O123 Zn111 2.110 1_565 S
O123 C125 1.165 . S
O124 Zn109 1.905 . S
O124 C125 1.182 1_545 S
C125 O123 1.165 . S
C125 O124 1.182 1_565 S
O126 Zn111 2.080 . S
O126 C129 1.305 . S
O127 Zn110 1.920 . S
O127 C129 1.234 1_565 S
C128 O114 1.305 . S
C128 O115 1.234 . S
C129 O126 1.305 . S
C129 O127 1.234 1_545 S
Zn130 O136 1.920 . S
Zn130 O142 1.898 . S
Zn130 O145 1.905 . S
Zn131 O139 1.905 . S
Zn131 O140 1.898 . S
Zn131 O148 1.920 . S
Zn132 O135 2.080 . S
Zn132 O138 2.114 . S
Zn132 O141 2.120 . S
Zn132 O143 2.120 . S
Zn132 O144 2.114 . S
Zn132 O147 2.080 . S
C133 O138 1.166 . S
C133 O139 1.182 . S
C134 O140 1.167 . S
C134 O141 1.299 . S
O135 Zn132 2.080 . S
O135 C149 1.305 . S
O136 Zn130 1.920 . S
O136 C149 1.234 . S
C137 O142 1.167 . S
C137 O143 1.299 . S
O138 Zn132 2.114 . S
O138 C133 1.166 . S
O139 Zn131 1.905 . S
O139 C133 1.182 . S
O140 Zn131 1.898 . S
O140 C134 1.167 . S
O141 Zn132 2.120 . S
O141 C134 1.299 . S
O142 Zn130 1.898 . S
O142 C137 1.167 . S
O143 Zn132 2.120 . S
O143 C137 1.299 . S
O144 Zn132 2.114 . S
O144 C146 1.166 . S
O145 Zn130 1.905 . S
O145 C146 1.182 . S
C146 O144 1.166 . S
C146 O145 1.182 . S
O147 Zn132 2.080 . S
O147 C150 1.305 . S
O148 Zn131 1.920 . S
O148 C150 1.234 . S
C149 O135 1.305 . S
C149 O136 1.234 . S
C150 O147 1.305 . S
C150 O148 1.234 . S
Zn151 O157 1.920 . S
Zn151 O163 1.898 . S
Zn151 O166 1.905 . S
Zn152 O160 1.905 1_655 S
Zn152 O161 1.898 . S
Zn152 O169 1.920 . S
Zn153 O156 2.080 1_554 S
Zn153 O159 2.114 . S
Zn153 O162 2.120 1_554 S
Zn153 O164 2.120 . S
Zn153 O165 2.114 1_554 S
Zn153 O168 2.080 . S
C154 O159 1.166 . S
C154 O160 1.182 . S
C155 O161 1.167 1_556 S
C155 O162 1.299 1_655 S
O156 Zn153 2.080 1_556 S
O156 C170 1.305 . S
O157 Zn151 1.920 . S
O157 C170 1.234 . S
C158 O163 1.167 1_554 S
C158 O164 1.299 . S
O159 Zn153 2.114 . S
O159 C154 1.166 . S
O160 Zn152 1.905 1_455 S
O160 C154 1.182 . S
O161 Zn152 1.898 . S
O161 C155 1.167 1_554 S
O162 Zn153 2.120 1_556 S
O162 C155 1.299 1_455 S
O163 Zn151 1.898 . S
O163 C158 1.167 1_556 S
O164 Zn153 2.120 . S
O164 C158 1.299 . S
O165 Zn153 2.114 1_556 S
O165 C167 1.166 . S
O166 Zn151 1.905 . S
O166 C167 1.182 . S
C167 O165 1.166 . S
C167 O166 1.182 . S
O168 Zn153 2.080 . S
O168 C171 1.305 . S
O169 Zn152 1.920 . S
O169 C171 1.234 1_655 S
C170 O156 1.305 . S
C170 O157 1.234 . S
C171 O168 1.305 . S
C171 O169 1.234 1_455 S
H172 C178 0.930 . S
H173 C182 0.930 . S
H174 C187 0.929 . S
H175 C185 0.929 . S
H176 C180 0.929 . S
H177 C186 0.929 . S
C178 H172 0.930 . S
C178 C179 1.367 . S
C178 C186 1.378 . S
C179 C178 1.367 . S
C179 C187 1.433 . S
C180 H176 0.929 . S
C180 C182 1.378 . S
C180 C184 1.350 . S
C181 C184 1.463 . S
C181 C186 1.350 . S
C181 N189 1.427 . S
C182 H173 0.930 . S
C182 C180 1.378 . S
C182 C183 1.367 . S
C183 C182 1.367 . S
C183 C185 1.433 . S
C184 C180 1.350 . S
C184 C181 1.463 . S
C184 N188 1.427 . S
C185 H175 0.929 . S
C185 C183 1.433 . S
C185 N188 1.384 . S
C186 H177 0.929 . S
C186 C178 1.378 . S
C186 C181 1.350 . S
C187 H174 0.929 . S
C187 C179 1.433 . S
C187 N189 1.384 . S
N188 C184 1.427 . S
N188 C185 1.384 . S
N189 C181 1.427 . S
N189 C187 1.384 . S
H190 C196 0.930 . S
H191 C200 0.930 . S
H192 C205 0.929 . S
H193 C203 0.929 . S
H194 C198 0.929 . S
H195 C204 0.929 . S
C196 H190 0.930 . S
C196 C197 1.367 . S
C196 C204 1.378 . S
C197 C196 1.367 . S
C197 C205 1.433 . S
C198 H194 0.929 . S
C198 C200 1.378 . S
C198 C202 1.350 . S
C199 C202 1.463 . S
C199 C204 1.350 . S
C199 N207 1.427 . S
C200 H191 0.930 . S
C200 C198 1.378 . S
C200 C201 1.367 . S
C201 C200 1.367 . S
C201 C203 1.433 . S
C202 C198 1.350 . S
C202 C199 1.463 . S
C202 N206 1.427 . S
C203 H193 0.929 . S
C203 C201 1.433 . S
C203 N206 1.384 . S
C204 H195 0.929 . S
C204 C196 1.378 . S
C204 C199 1.350 . S
C205 H192 0.929 . S
C205 C197 1.433 . S
C205 N207 1.384 . S
N206 C202 1.427 . S
N206 C203 1.384 . S
N207 C199 1.427 . S
N207 C205 1.384 . S
H208 C214 0.930 . S
H209 C218 0.930 . S
H210 C223 0.929 . S
H211 C221 0.929 . S
H212 C216 0.929 . S
H213 C222 0.929 . S
C214 H208 0.930 . S
C214 C215 1.367 . S
C214 C222 1.378 . S
C215 C214 1.367 . S
C215 C223 1.433 . S
C216 H212 0.929 . S
C216 C218 1.378 . S
C216 C220 1.350 . S
C217 C220 1.463 . S
C217 C222 1.350 . S
C217 N225 1.427 . S
C218 H209 0.930 . S
C218 C216 1.378 . S
C218 C219 1.367 . S
C219 C218 1.367 . S
C219 C221 1.433 . S
C220 C216 1.350 . S
C220 C217 1.463 . S
C220 N224 1.427 . S
C221 H211 0.929 . S
C221 C219 1.433 . S
C221 N224 1.384 . S
C222 H213 0.929 . S
C222 C214 1.378 . S
C222 C217 1.350 . S
C223 H210 0.929 . S
C223 C215 1.433 . S
C223 N225 1.384 . S
N224 C220 1.427 . S
N224 C221 1.384 . S
N225 C217 1.427 . S
N225 C223 1.384 . S
H226 C232 0.930 . S
H227 C236 0.930 . S
H228 C241 0.929 . S
H229 C239 0.929 . S
H230 C234 0.929 . S
H231 C240 0.929 . S
C232 H226 0.930 . S
C232 C233 1.367 . S
C232 C240 1.378 . S
C233 C232 1.367 . S
C233 C241 1.433 . S
C234 H230 0.929 . S
C234 C236 1.378 . S
C234 C238 1.350 1_455 S
C235 C238 1.463 . S
C235 C240 1.350 . S
C235 N243 1.427 . S
C236 H227 0.930 . S
C236 C234 1.378 . S
C236 C237 1.367 . S
C237 C236 1.367 . S
C237 C239 1.433 1_455 S
C238 C234 1.350 1_655 S
C238 C235 1.463 . S
C238 N242 1.427 . S
C239 H229 0.929 . S
C239 C237 1.433 1_655 S
C239 N242 1.384 . S
C240 H231 0.929 . S
C240 C232 1.378 . S
C240 C235 1.350 . S
C241 H228 0.929 . S
C241 C233 1.433 . S
C241 N243 1.384 . S
N242 C238 1.427 . S
N242 C239 1.384 . S
N243 C235 1.427 . S
N243 C241 1.384 . S
H244 C250 0.930 . S
H245 C254 0.930 . S
H246 C259 0.929 . S
H247 C257 0.929 . S
H248 C252 0.929 . S
H249 C258 0.929 . S
C250 H244 0.930 . S
C250 C251 1.367 . S
C250 C258 1.378 . S
C251 C250 1.367 . S
C251 C259 1.433 . S
C252 H248 0.929 . S
C252 C254 1.378 . S
C252 C256 1.350 . S
C253 C256 1.463 . S
C253 C258 1.350 . S
C253 N261 1.427 . S
C254 H245 0.930 . S
C254 C252 1.378 . S
C254 C255 1.367 . S
C255 C254 1.367 . S
C255 C257 1.433 . S
C256 C252 1.350 . S
C256 C253 1.463 . S
C256 N260 1.427 . S
C257 H247 0.929 . S
C257 C255 1.433 . S
C257 N260 1.384 . S
C258 H249 0.929 . S
C258 C250 1.378 . S
C258 C253 1.350 . S
C259 H246 0.929 . S
C259 C251 1.433 . S
C259 N261 1.384 . S
N260 C256 1.427 . S
N260 C257 1.384 . S
N261 C253 1.427 . S
N261 C259 1.384 . S
H262 C268 0.930 . S
H263 C272 0.930 1_545 S
H264 C277 0.929 . S
H265 C275 0.929 . S
H266 C270 0.929 . S
H267 C276 0.929 . S
C268 H262 0.930 . S
C268 C269 1.367 . S
C268 C276 1.378 . S
C269 C268 1.367 . S
C269 C277 1.433 . S
C270 H266 0.929 . S
C270 C272 1.378 . S
C270 C274 1.350 . S
C271 C274 1.463 . S
C271 C276 1.350 . S
C271 N279 1.427 . S
C272 H263 0.930 1_565 S
C272 C270 1.378 . S
C272 C273 1.367 . S
C273 C272 1.367 . S
C273 C275 1.433 . S
C274 C270 1.350 . S
C274 C271 1.463 . S
C274 N278 1.427 . S
C275 H265 0.929 . S
C275 C273 1.433 . S
C275 N278 1.384 . S
C276 H267 0.929 . S
C276 C268 1.378 . S
C276 C271 1.350 . S
C277 H264 0.929 . S
C277 C269 1.433 . S
C277 N279 1.384 . S
N278 C274 1.427 . S
N278 C275 1.384 . S
N279 C271 1.427 . S
N279 C277 1.384 . S
H280 C286 0.930 . S
H281 C290 0.930 . S
H282 C295 0.929 . S
H283 C293 0.929 1_554 S
H284 C288 0.929 . S
H285 C294 0.929 . S
C286 H280 0.930 . S
C286 C287 1.367 . S
C286 C294 1.378 . S
C287 C286 1.367 . S
C287 C295 1.433 . S
C288 H284 0.929 . S
C288 C290 1.378 . S
C288 C292 1.350 . S
C289 C292 1.463 . S
C289 C294 1.350 . S
C289 N297 1.427 . S
C290 H281 0.930 . S
C290 C288 1.378 . S
C290 C291 1.367 . S
C291 C290 1.367 . S
C291 C293 1.433 . S
C292 C288 1.350 . S
C292 C289 1.463 . S
C292 N296 1.427 . S
C293 H283 0.929 1_556 S
C293 C291 1.433 . S
C293 N296 1.384 . S
C294 H285 0.929 . S
C294 C286 1.378 . S
C294 C289 1.350 . S
C295 H282 0.929 . S
C295 C287 1.433 . S
C295 N297 1.384 . S
N296 C292 1.427 . S
N296 C293 1.384 . S
N297 C289 1.427 . S
N297 C295 1.384 . S
H298 C304 0.930 . S
H299 C308 0.930 . S
H300 C313 0.929 . S
H301 C311 0.929 . S
H302 C306 0.929 . S
H303 C312 0.929 . S
C304 H298 0.930 . S
C304 C305 1.367 . S
C304 C312 1.378 . S
C305 C304 1.367 . S
C305 C313 1.433 . S
C306 H302 0.929 . S
C306 C308 1.378 . S
C306 C310 1.350 . S
C307 C310 1.463 . S
C307 C312 1.350 . S
C307 N315 1.427 . S
C308 H299 0.930 . S
C308 C306 1.378 . S
C308 C309 1.367 . S
C309 C308 1.367 . S
C309 C311 1.433 . S
C310 C306 1.350 . S
C310 C307 1.463 . S
C310 N314 1.427 . S
C311 H301 0.929 . S
C311 C309 1.433 . S
C311 N314 1.384 . S
C312 H303 0.929 . S
C312 C304 1.378 . S
C312 C307 1.350 . S
C313 H300 0.929 . S
C313 C305 1.433 . S
C313 N315 1.384 . S
N314 C310 1.427 . S
N314 C311 1.384 . S
N315 C307 1.427 . S
N315 C313 1.384 . S
H316 C322 0.930 . S
H317 C326 0.930 . S
H318 C331 0.929 . S
H319 C329 0.929 . S
H320 C324 0.929 . S
H321 C330 0.929 . S
C322 H316 0.930 . S
C322 C323 1.367 . S
C322 C330 1.378 . S
C323 C322 1.367 . S
C323 C331 1.433 . S
C324 H320 0.929 . S
C324 C326 1.378 . S
C324 C328 1.350 . S
C325 C328 1.463 . S
C325 C330 1.350 . S
C325 N333 1.427 . S
C326 H317 0.930 . S
C326 C324 1.378 . S
C326 C327 1.367 . S
C327 C326 1.367 . S
C327 C329 1.433 . S
C328 C324 1.350 . S
C328 C325 1.463 . S
C328 N332 1.427 . S
C329 H319 0.929 . S
C329 C327 1.433 . S
C329 N332 1.384 . S
C330 H321 0.929 . S
C330 C322 1.378 . S
C330 C325 1.350 . S
C331 H318 0.929 . S
C331 C323 1.433 . S
C331 N333 1.384 . S
N332 C328 1.427 . S
N332 C329 1.384 . S
N333 C325 1.427 . S
N333 C331 1.384 . S
H334 C340 0.930 . S
H335 C344 0.930 . S
H336 C349 0.929 . S
H337 C347 0.929 . S
H338 C342 0.929 . S
H339 C348 0.929 . S
C340 H334 0.930 . S
C340 C341 1.367 . S
C340 C348 1.378 . S
C341 C340 1.367 . S
C341 C349 1.433 . S
C342 H338 0.929 . S
C342 C344 1.378 . S
C342 C346 1.350 1_554 S
C343 C346 1.463 . S
C343 C348 1.350 . S
C343 N351 1.427 . S
C344 H335 0.930 . S
C344 C342 1.378 . S
C344 C345 1.367 . S
C345 C344 1.367 . S
C345 C347 1.433 1_554 S
C346 C342 1.350 1_556 S
C346 C343 1.463 . S
C346 N350 1.427 . S
C347 H337 0.929 . S
C347 C345 1.433 1_556 S
C347 N350 1.384 . S
C348 H339 0.929 . S
C348 C340 1.378 . S
C348 C343 1.350 . S
C349 H336 0.929 . S
C349 C341 1.433 . S
C349 N351 1.384 . S
N350 C346 1.427 . S
N350 C347 1.384 . S
N351 C343 1.427 . S
N351 C349 1.384 . S
H352 C358 0.930 . S
H353 C362 0.930 . S
H354 C367 0.929 . S
H355 C365 0.929 1_455 S
H356 C360 0.929 . S
H357 C366 0.929 . S
C358 H352 0.930 . S
C358 C359 1.367 . S
C358 C366 1.378 . S
C359 C358 1.367 . S
C359 C367 1.433 . S
C360 H356 0.929 . S
C360 C362 1.378 . S
C360 C364 1.350 . S
C361 C364 1.463 . S
C361 C366 1.350 . S
C361 N369 1.427 . S
C362 H353 0.930 . S
C362 C360 1.378 . S
C362 C363 1.367 . S
C363 C362 1.367 . S
C363 C365 1.433 . S
C364 C360 1.350 . S
C364 C361 1.463 . S
C364 N368 1.427 . S
C365 H355 0.929 1_655 S
C365 C363 1.433 . S
C365 N368 1.384 . S
C366 H357 0.929 . S
C366 C358 1.378 . S
C366 C361 1.350 . S
C367 H354 0.929 . S
C367 C359 1.433 . S
C367 N369 1.384 . S
N368 C364 1.427 . S
N368 C365 1.384 . S
N369 C361 1.427 . S
N369 C367 1.384 . S
H370 C376 0.930 . S
H371 C380 0.930 . S
H372 C385 0.929 . S
H373 C383 0.929 . S
H374 C378 0.929 . S
H375 C384 0.929 . S
C376 H370 0.930 . S
C376 C377 1.367 . S
C376 C384 1.378 . S
C377 C376 1.367 . S
C377 C385 1.433 . S
C378 H374 0.929 . S
C378 C380 1.378 . S
C378 C382 1.350 . S
C379 C382 1.463 . S
C379 C384 1.350 . S
C379 N387 1.427 . S
C380 H371 0.930 . S
C380 C378 1.378 . S
C380 C381 1.367 . S
C381 C380 1.367 . S
C381 C383 1.433 . S
C382 C378 1.350 . S
C382 C379 1.463 . S
C382 N386 1.427 . S
C383 H373 0.929 . S
C383 C381 1.433 . S
C383 N386 1.384 . S
C384 H375 0.929 . S
C384 C376 1.378 . S
C384 C379 1.350 . S
C385 H372 0.929 . S
C385 C377 1.433 . S
C385 N387 1.384 . S
N386 C382 1.427 . S
N386 C383 1.384 . S
N387 C379 1.427 . S
N387 C385 1.384 . S
H388 C394 0.930 . S
H389 C398 0.930 . S
H390 C403 0.929 . S
H391 C401 0.929 . S
H392 C396 0.929 . S
H393 C402 0.929 1_455 S
C394 H388 0.930 . S
C394 C395 1.367 1_545 S
C394 C402 1.378 . S
C395 C394 1.367 1_565 S
C395 C403 1.433 . S
C396 H392 0.929 . S
C396 C398 1.378 . S
C396 C400 1.350 . S
C397 C400 1.463 . S
C397 C402 1.350 1_565 S
C397 N405 1.427 . S
C398 H389 0.930 . S
C398 C396 1.378 . S
C398 C399 1.367 . S
C399 C398 1.367 . S
C399 C401 1.433 1_665 S
C400 C396 1.350 . S
C400 C397 1.463 . S
C400 N404 1.420 1_665 S
C401 H391 0.929 . S
C401 C399 1.433 1_445 S
C401 N404 1.386 . S
C402 H393 0.929 1_655 S
C402 C394 1.378 . S
C402 C397 1.350 1_545 S
C403 H390 0.929 . S
C403 C395 1.433 . S
C403 N405 1.384 . S
N404 C400 1.420 1_445 S
N404 C401 1.386 . S
N405 C397 1.427 . S
N405 C403 1.384 . S
H406 C412 0.930 . S
H407 C416 0.930 . S
H408 C421 0.929 . S
H409 C419 0.929 . S
H410 C414 0.929 . S
H411 C420 0.929 . S
C412 H406 0.930 . S
C412 C413 1.367 . S
C412 C420 1.378 . S
C413 C412 1.367 . S
C413 C421 1.433 . S
C414 H410 0.929 . S
C414 C416 1.378 . S
C414 C418 1.350 . S
C415 C418 1.463 . S
C415 C420 1.350 . S
C415 N423 1.427 . S
C416 H407 0.930 . S
C416 C414 1.378 . S
C416 C417 1.367 . S
C417 C416 1.367 . S
C417 C419 1.433 . S
C418 C414 1.350 . S
C418 C415 1.463 . S
C418 N422 1.427 . S
C419 H409 0.929 . S
C419 C417 1.433 . S
C419 N422 1.384 . S
C420 H411 0.929 . S
C420 C412 1.378 . S
C420 C415 1.350 . S
C421 H408 0.929 . S
C421 C413 1.433 . S
C421 N423 1.384 . S
N422 C418 1.427 . S
N422 C419 1.384 . S
N423 C415 1.427 . S
N423 C421 1.384 . S
H424 C430 0.930 . S
H425 C434 0.930 . S
H426 C439 0.929 . S
H427 C437 0.929 . S
H428 C432 0.929 . S
H429 C438 0.929 . S
C430 H424 0.930 . S
C430 C431 1.367 . S
C430 C438 1.378 . S
C431 C430 1.367 . S
C431 C439 1.433 . S
C432 H428 0.929 . S
C432 C434 1.378 . S
C432 C436 1.350 . S
C433 C436 1.463 . S
C433 C438 1.350 . S
C433 N441 1.427 . S
C434 H425 0.930 . S
C434 C432 1.378 . S
C434 C435 1.367 . S
C435 C434 1.367 . S
C435 C437 1.433 . S
C436 C432 1.350 . S
C436 C433 1.463 . S
C436 N440 1.427 . S
C437 H427 0.929 . S
C437 C435 1.433 . S
C437 N440 1.384 . S
C438 H429 0.929 . S
C438 C430 1.378 . S
C438 C433 1.350 . S
C439 H426 0.929 . S
C439 C431 1.433 . S
C439 N441 1.384 . S
N440 C436 1.427 . S
N440 C437 1.384 . S
N441 C433 1.427 . S
N441 C439 1.384 . S
H442 C448 0.930 . S
H443 C452 0.930 . S
H444 C457 0.929 . S
H445 C455 0.929 . S
H446 C450 0.929 . S
H447 C456 0.929 . S
C448 H442 0.930 . S
C448 C449 1.367 . S
C448 C456 1.378 . S
C449 C448 1.367 . S
C449 C457 1.433 . S
C450 H446 0.929 . S
C450 C452 1.378 . S
C450 C454 1.350 . S
C451 C454 1.463 . S
C451 C456 1.350 . S
C451 N459 1.427 . S
C452 H443 0.930 . S
C452 C450 1.378 . S
C452 C453 1.367 . S
C453 C452 1.367 . S
C453 C455 1.433 . S
C454 C450 1.350 . S
C454 C451 1.463 . S
C454 N458 1.427 . S
C455 H445 0.929 . S
C455 C453 1.433 . S
C455 N458 1.384 . S
C456 H447 0.929 . S
C456 C448 1.378 . S
C456 C451 1.350 . S
C457 H444 0.929 . S
C457 C449 1.433 . S
C457 N459 1.384 . S
N458 C454 1.427 . S
N458 C455 1.384 . S
N459 C451 1.427 . S
N459 C457 1.384 . S
H460 C466 0.930 . S
H461 C470 0.930 . S
H462 C475 0.929 1_556 S
H463 C473 0.929 . S
H464 C468 0.929 . S
H465 C474 0.929 . S
C466 H460 0.930 . S
C466 C467 1.367 1_545 S
C466 C474 1.378 . S
C467 C466 1.367 1_565 S
C467 C475 1.433 . S
C468 H464 0.929 . S
C468 C470 1.378 . S
C468 C472 1.350 . S
C469 C472 1.463 . S
C469 C474 1.350 1_565 S
C469 N477 1.427 . S
C470 H461 0.930 . S
C470 C468 1.378 . S
C470 C471 1.342 1_565 S
C471 C470 1.342 1_545 S
C471 C473 1.454 . S
C472 C468 1.350 . S
C472 C469 1.463 . S
C472 N476 1.427 1_565 S
C473 H463 0.929 . S
C473 C471 1.454 . S
C473 N476 1.384 . S
C474 H465 0.929 . S
C474 C466 1.378 . S
C474 C469 1.350 1_545 S
C475 H462 0.929 1_554 S
C475 C467 1.433 . S
C475 N477 1.384 . S
N476 C472 1.427 1_545 S
N476 C473 1.384 . S
N477 C469 1.427 . S
N477 C475 1.384 . S
H478 C484 0.930 . S
H479 C488 0.930 . S
H480 C493 0.929 . S
H481 C491 0.929 . S
H482 C486 0.929 . S
H483 C492 0.929 . S
C484 H478 0.930 . S
C484 C485 1.367 . S
C484 C492 1.378 . S
C485 C484 1.367 . S
C485 C493 1.433 . S
C486 H482 0.929 . S
C486 C488 1.378 . S
C486 C490 1.350 . S
C487 C490 1.463 . S
C487 C492 1.350 . S
C487 N495 1.427 . S
C488 H479 0.930 . S
C488 C486 1.378 . S
C488 C489 1.367 . S
C489 C488 1.367 . S
C489 C491 1.433 . S
C490 C486 1.350 . S
C490 C487 1.463 . S
C490 N494 1.427 . S
C491 H481 0.929 . S
C491 C489 1.433 . S
C491 N494 1.384 . S
C492 H483 0.929 . S
C492 C484 1.378 . S
C492 C487 1.350 . S
C493 H480 0.929 . S
C493 C485 1.433 . S
C493 N495 1.384 . S
N494 C490 1.427 . S
N494 C491 1.384 . S
N495 C487 1.427 . S
N495 C493 1.384 . S
H496 C502 0.930 . S
H497 C506 0.930 . S
H498 C511 0.929 . S
H499 C509 0.929 . S
H500 C504 0.929 . S
H501 C510 0.929 . S
C502 H496 0.930 . S
C502 C503 1.367 . S
C502 C510 1.378 . S
C503 C502 1.367 . S
C503 C511 1.433 . S
C504 H500 0.929 . S
C504 C506 1.378 . S
C504 C508 1.350 . S
C505 C508 1.463 . S
C505 C510 1.350 . S
C505 N513 1.427 . S
C506 H497 0.930 . S
C506 C504 1.378 . S
C506 C507 1.367 . S
C507 C506 1.367 . S
C507 C509 1.433 . S
C508 C504 1.350 . S
C508 C505 1.463 . S
C508 N512 1.427 . S
C509 H499 0.929 . S
C509 C507 1.433 . S
C509 N512 1.384 . S
C510 H501 0.929 . S
C510 C502 1.378 . S
C510 C505 1.350 . S
C511 H498 0.929 . S
C511 C503 1.433 . S
C511 N513 1.384 . S
N512 C508 1.427 . S
N512 C509 1.384 . S
N513 C505 1.427 . S
N513 C511 1.384 . S
H514 C520 0.930 . S
H515 C524 0.930 . S
H516 C529 0.929 . S
H517 C527 0.929 . S
H518 C522 0.929 . S
H519 C528 0.929 . S
C520 H514 0.930 . S
C520 C521 1.367 . S
C520 C528 1.378 . S
C521 C520 1.367 . S
C521 C529 1.433 . S
C522 H518 0.929 . S
C522 C524 1.378 . S
C522 C526 1.350 . S
C523 C526 1.463 . S
C523 C528 1.350 . S
C523 N531 1.427 . S
C524 H515 0.930 . S
C524 C522 1.378 . S
C524 C525 1.367 . S
C525 C524 1.367 . S
C525 C527 1.433 . S
C526 C522 1.350 . S
C526 C523 1.463 . S
C526 N530 1.427 . S
C527 H517 0.929 . S
C527 C525 1.433 . S
C527 N530 1.384 . S
C528 H519 0.929 . S
C528 C520 1.378 . S
C528 C523 1.350 . S
C529 H516 0.929 . S
C529 C521 1.433 . S
C529 N531 1.384 . S
N530 C526 1.427 . S
N530 C527 1.384 . S
N531 C523 1.427 . S
N531 C529 1.384 . S
H532 C538 0.930 . S
H533 C542 0.930 . S
H534 C547 0.929 1_655 S
H535 C545 0.929 . S
H536 C540 0.929 . S
H537 C546 0.929 . S
C538 H532 0.930 . S
C538 C539 1.367 1_556 S
C538 C546 1.378 . S
C539 C538 1.367 1_554 S
C539 C547 1.433 . S
C540 H536 0.929 . S
C540 C542 1.378 . S
C540 C544 1.350 . S
C541 C544 1.463 . S
C541 C546 1.350 1_554 S
C541 N549 1.427 . S
C542 H533 0.930 . S
C542 C540 1.378 . S
C542 C543 1.367 . S
C543 C542 1.367 . S
C543 C545 1.433 1_554 S
C544 C540 1.350 . S
C544 C541 1.463 . S
C544 N548 1.427 1_554 S
C545 H535 0.929 . S
C545 C543 1.433 1_556 S
C545 N548 1.384 . S
C546 H537 0.929 . S
C546 C538 1.378 . S
C546 C541 1.350 1_556 S
C547 H534 0.929 1_455 S
C547 C539 1.433 . S
C547 N549 1.384 . S
N548 C544 1.427 1_556 S
N548 C545 1.384 . S
N549 C541 1.427 . S
N549 C547 1.384 . S
H550 C556 0.930 . S
H551 C560 0.930 . S
H552 C565 0.929 . S
H553 C563 0.929 . S
H554 C558 0.929 . S
H555 C564 0.929 . S
C556 H550 0.930 . S
C556 C557 1.367 . S
C556 C564 1.378 . S
C557 C556 1.367 . S
C557 C565 1.433 . S
C558 H554 0.929 . S
C558 C560 1.378 . S
C558 C562 1.350 . S
C559 C562 1.463 . S
C559 C564 1.350 . S
C559 N567 1.427 . S
C560 H551 0.930 . S
C560 C558 1.378 . S
C560 C561 1.367 . S
C561 C560 1.367 . S
C561 C563 1.433 . S
C562 C558 1.350 . S
C562 C559 1.463 . S
C562 N566 1.427 . S
C563 H553 0.929 . S
C563 C561 1.433 . S
C563 N566 1.384 . S
C564 H555 0.929 . S
C564 C556 1.378 . S
C564 C559 1.350 . S
C565 H552 0.929 . S
C565 C557 1.433 . S
C565 N567 1.384 . S
N566 C562 1.427 . S
N566 C563 1.384 . S
N567 C559 1.427 . S
N567 C565 1.384 . S
H568 C574 0.930 . S
H569 C578 0.930 1_655 S
H570 C583 0.929 . S
H571 C581 0.929 . S
H572 C576 0.929 1_655 S
H573 C582 0.929 . S
C574 H568 0.930 . S
C574 C575 1.367 . S
C574 C582 1.378 . S
C575 C574 1.367 . S
C575 C583 1.433 . S
C576 H572 0.929 1_455 S
C576 C578 1.378 . S
C576 C580 1.350 . S
C577 C580 1.463 . S
C577 C582 1.350 . S
C577 N585 1.427 . S
C578 H569 0.930 1_455 S
C578 C576 1.378 . S
C578 C579 1.367 . S
C579 C578 1.367 . S
C579 C581 1.433 . S
C580 C576 1.350 . S
C580 C577 1.463 . S
C580 N584 1.427 . S
C581 H571 0.929 . S
C581 C579 1.433 . S
C581 N584 1.384 . S
C582 H573 0.929 . S
C582 C574 1.378 . S
C582 C577 1.350 . S
C583 H570 0.929 . S
C583 C575 1.433 . S
C583 N585 1.384 . S
N584 C580 1.427 . S
N584 C581 1.384 . S
N585 C577 1.427 . S
N585 C583 1.384 . S
H586 C592 0.930 . S
H587 C596 0.930 . S
H588 C601 0.929 . S
H589 C599 0.929 . S
H590 C594 0.929 . S
H591 C600 0.929 . S
C592 H586 0.930 . S
C592 C593 1.367 . S
C592 C600 1.378 . S
C593 C592 1.367 . S
C593 C601 1.433 . S
C594 H590 0.929 . S
C594 C596 1.378 . S
C594 C598 1.350 . S
C595 C598 1.463 . S
C595 C600 1.350 . S
C595 N603 1.427 . S
C596 H587 0.930 . S
C596 C594 1.378 . S
C596 C597 1.367 . S
C597 C596 1.367 . S
C597 C599 1.433 . S
C598 C594 1.350 . S
C598 C595 1.463 . S
C598 N602 1.427 . S
C599 H589 0.929 . S
C599 C597 1.433 . S
C599 N602 1.384 . S
C600 H591 0.929 . S
C600 C592 1.378 . S
C600 C595 1.350 . S
C601 H588 0.929 . S
C601 C593 1.433 . S
C601 N603 1.384 . S
N602 C598 1.427 . S
N602 C599 1.384 . S
N603 C595 1.427 . S
N603 C601 1.384 . S
C179 C5 1.667 . S
C183 C91 1.720 . S
C197 C18 1.556 . S
C201 C125 1.500 1_556 S
C219 C137 1.232 . S
C215 C30 1.304 . S
C233 C41 1.253 . S
C237 C171 1.205 . S
C255 C128 1.676 . S
C251 C7 1.723 . S
C273 C108 1.650 . S
C269 C16 1.552 . S
C291 C155 1.413 . S
C287 C29 1.487 . S
C309 C146 1.052 . S
C305 C38 1.028 . S
C323 C8 1.678 . S
C327 C154 1.561 . S
C345 C116 1.575 . S
C341 C27 1.493 . S
C359 C40 1.473 . S
C363 C92 1.385 . S
C377 C19 1.255 . S
C381 C149 1.203 . S
C399 C107 1.583 1_565 S
C395 C51 1.673 . S
C413 C62 1.628 . S
C417 C129 1.629 . S
C431 C74 1.491 . S
C435 C134 1.458 . S
C449 C84 1.359 . S
C453 C167 1.406 . S
C467 C49 1.902 . S
C471 C112 1.850 1_545 S
C489 C104 1.518 . S
C485 C63 1.562 . S
C507 C158 1.430 . S
C503 C71 1.186 . S
C525 C150 1.240 . S
C521 C85 1.278 . S
C539 C52 1.701 1_455 S
C543 C170 1.618 1_554 S
C561 C113 1.794 . S
C557 C73 1.771 . S
C579 C95 1.387 . S
C575 C82 1.132 . S
C593 C60 1.377 . S
C597 C133 1.653 . S
