# Generated by pormake.
# Topology nia, (6,6)-cn, num edge types: 1
# Building blocks:
#     Node 0, Type 0, BuildingBlock: CIFDUS_clean_sbu_1, # of connection points: 6
#     Node 1, Type 0, BuildingBlock: CIFDUS_clean_sbu_1, # of connection points: 6
#     Node 2, Type 1, BuildingBlock: MIDCAF_clean_sbu_0, # of connection points: 6
#     Node 3, Type 1, BuildingBlock: MIDCAF_clean_sbu_0, # of connection points: 6
#     Edge 4, Type (0, 1), BuildingBlock: XIVTED_clean_linker_0, # of connection points: 2
#     Edge 5, Type (0, 1), BuildingBlock: XIVTED_clean_linker_0, # of connection points: 2
#     Edge 6, Type (0, 1), BuildingBlock: XIVTED_clean_linker_0, # of connection points: 2
#     Edge 7, Type (0, 1), BuildingBlock: XIVTED_clean_linker_0, # of connection points: 2
#     Edge 8, Type (0, 1), BuildingBlock: XIVTED_clean_linker_0, # of connection points: 2
#     Edge 9, Type (0, 1), BuildingBlock: XIVTED_clean_linker_0, # of connection points: 2
#     Edge 10, Type (0, 1), BuildingBlock: XIVTED_clean_linker_0, # of connection points: 2
#     Edge 11, Type (0, 1), BuildingBlock: XIVTED_clean_linker_0, # of connection points: 2
#     Edge 12, Type (0, 1), BuildingBlock: XIVTED_clean_linker_0, # of connection points: 2
#     Edge 13, Type (0, 1), BuildingBlock: XIVTED_clean_linker_0, # of connection points: 2
#     Edge 14, Type (0, 1), BuildingBlock: XIVTED_clean_linker_0, # of connection points: 2
#     Edge 15, Type (0, 1), BuildingBlock: XIVTED_clean_linker_0, # of connection points: 2
# Relax obj value: 0.123
# Max RMSD: 0.237
# Mean RMSD: 0.158
data_MOF--net-nia--node1-CIFDUS_clean_sbu_1--node2-MIDCAF_clean_sbu_0--edge1-XIVTED_clean_linker_0
_symmetry_space_group_name_H-M    P1
_symmetry_Int_Tables_number       1
_symmetry_cell_setting            triclinic
loop_
_symmetry_equiv_pos_as_xyz
'x, y, z'
_cell_length_a     24.268739
_cell_length_b     24.506167
_cell_length_c     32.050703
_cell_angle_alpha  88.42959
_cell_angle_beta   89.668194
_cell_angle_gamma 130.43445
loop_
_atom_site_label
_atom_site_type_symbol
_atom_site_fract_x
_atom_site_fract_y
_atom_site_fract_z
_atom_type_partial_charge
O0 O 0.97154 0.93947 0.99733 0.0
Mn1 Mn -0.00336 0.01297 0.04283 0.0
O2 O 0.86758 0.83196 1.01873 0.0
Mn3 Mn 0.87634 0.85668 0.07354 0.0
O4 O 0.02281 0.08903 0.08706 0.0
O5 O 0.09318 0.08405 1.01409 0.0
Mn6 Mn 0.11947 0.1695 1.00855 0.0
O7 O 0.95342 0.04622 1.00384 0.0
O8 O 0.12377 0.19721 0.06224 0.0
O9 O 0.04098 0.9791 0.08051 0.0
O10 O 0.94704 0.86607 0.10339 0.0
O11 O 0.19249 0.17619 0.98334 0.0
O12 O 0.04868 0.15479 0.97576 0.0
C13 C 0.83882 0.90946 0.09382 0.0
C14 C 0.91704 0.87333 0.99108 0.0
C15 C 0.07499 0.1571 0.09059 0.0
C16 C 0.15084 0.10836 0.99319 0.0
C17 C -0.01891 0.10042 0.97831 0.0
C18 C 0.01432 0.92102 0.10186 0.0
O19 O 0.89909 0.94128 0.07282 0.0
O20 O 0.80112 0.84135 0.10135 0.0
O21 O 0.04785 0.02783 0.59194 0.0
Mn22 Mn -0.02005 0.00318 0.54164 0.0
O23 O 0.15241 0.1402 0.57876 0.0
Mn24 Mn 0.13939 0.13929 0.5221 0.0
O25 O 0.91218 0.97819 0.49115 0.0
O26 O 0.90908 0.90295 0.56605 0.0
Mn27 Mn 0.81985 0.87056 0.56325 0.0
O28 O 0.93173 0.03278 0.57745 0.0
O29 O 0.80408 0.86964 0.50688 0.0
O30 O 0.03016 0.97497 0.50593 0.0
O31 O 0.14398 0.07863 0.4922 0.0
O32 O 0.81329 0.79886 0.59013 0.0
O33 O 0.81843 0.93214 0.59495 0.0
C34 C 0.07379 0.16195 0.49809 0.0
C35 C 0.11022 0.08496 0.60299 0.0
C36 C 0.84787 0.92253 0.48138 0.0
C37 C 0.88317 0.84415 0.58614 0.0
C38 C 0.87062 0.99955 0.59708 0.0
C39 C 0.09373 0.01107 0.48863 0.0
O40 O 0.04959 0.1033 0.51755 0.0
O41 O 0.14365 0.20925 0.49458 0.0
Zn42 Zn 0.25961 0.67639 0.16755 0.0
Zn43 Zn 0.31794 0.71232 0.37287 0.0
Zn44 Zn 0.28887 0.69169 0.29779 0.0
C45 C 0.44639 0.76966 0.32813 0.0
C46 C 0.20734 0.56362 0.3666 0.0
O47 O 0.23562 0.73343 0.28274 0.0
O48 O 0.24092 0.69752 0.22382 0.0
C49 C 0.40825 0.76589 0.21088 0.0
O50 O 0.40716 0.75547 0.29651 0.0
O51 O 0.41875 0.75131 0.36465 0.0
O52 O 0.23963 0.61122 0.3935 0.0
O53 O 0.22318 0.58204 0.32748 0.0
O54 O 0.36881 0.74431 0.17854 0.0
O55 O 0.38269 0.74786 0.2494 0.0
O56 O 0.22026 0.57844 0.28493 0.0
O57 O 0.23134 0.62594 0.2248 0.0
C58 C 0.20887 0.57017 0.24593 0.0
O59 O 0.25112 0.74684 0.32401 0.0
O60 O 0.30337 0.78081 0.38514 0.0
C61 C 0.22477 0.72954 0.24372 0.0
C62 C 0.26548 0.78012 0.35807 0.0
Zn63 Zn 0.69827 0.32788 0.87201 0.0
Zn64 Zn 0.66829 0.30708 0.71119 0.0
Zn65 Zn 0.67941 0.31715 0.79238 0.0
C66 C 0.76577 0.45354 0.7272 0.0
C67 C 0.52888 0.23557 0.74292 0.0
O68 O 0.72469 0.26547 0.81276 0.0
O69 O 0.74107 0.28345 0.88051 0.0
C70 C 0.77058 0.46619 0.84371 0.0
O71 O 0.74782 0.4289 0.7654 0.0
O72 O 0.73806 0.41117 0.69752 0.0
O73 O 0.56254 0.25172 0.70844 0.0
O74 O 0.56293 0.25484 0.77749 0.0
O75 O 0.75847 0.43224 0.87762 0.0
O76 O 0.74588 0.43272 0.80925 0.0
O77 O 0.56897 0.25053 0.8212 0.0
O78 O 0.59444 0.26178 0.8882 0.0
C79 C 0.54831 0.23362 0.85998 0.0
O80 O 0.7244 0.26733 0.76915 0.0
O81 O 0.70693 0.25902 0.70105 0.0
C82 C 0.74369 0.25698 0.84822 0.0
C83 C 0.73034 0.24953 0.73294 0.0
H84 H 0.13333 0.9428 0.07166 0.0
H85 H 0.16788 0.78232 0.28101 0.0
H86 H -0.00012 0.87792 0.18271 0.0
H87 H 0.23013 0.76219 0.15993 0.0
H88 H 0.12923 0.84299 0.24796 0.0
H89 H 0.19355 0.90362 0.10654 0.0
C90 C 0.11842 0.92242 0.10379 0.0
C91 C 0.06216 0.91397 0.12461 0.0
C92 C 0.15158 0.82556 0.22858 0.0
C93 C 0.12956 0.86859 0.16422 0.0
C94 C 0.17372 0.79093 0.24746 0.0
C95 C 0.20179 0.76662 0.22323 0.0
C96 C 0.1581 0.83685 0.18504 0.0
C97 C 0.20809 0.7794 0.17976 0.0
C98 C 0.15196 0.89924 0.12341 0.0
C99 C 0.04335 0.88561 0.16578 0.0
N100 N 0.1864 0.81372 0.16198 0.0
N101 N 0.07688 0.86392 0.18421 0.0
H102 H 0.17466 0.1886 0.65961 0.0
H103 H 0.41972 0.09631 0.72516 0.0
H104 H 0.12123 0.98757 0.63442 0.0
H105 H 0.46348 0.29131 0.75451 0.0
H106 H 0.29644 0.04326 0.70631 0.0
H107 H 0.26273 0.21307 0.70985 0.0
C108 C 0.17978 0.1484 0.66588 0.0
C109 C 0.14108 0.08622 0.6428 0.0
C110 C 0.33217 0.09693 0.71796 0.0
C111 C 0.24438 0.11527 0.69878 0.0
C112 C 0.40232 0.12698 0.72887 0.0
C113 C 0.45098 0.19771 0.74187 0.0
C114 C 0.31137 0.13872 0.71914 0.0
C115 C 0.42694 0.23619 0.74514 0.0
C116 C 0.23062 0.16264 0.69428 0.0
C117 C 0.14998 0.03606 0.65176 0.0
N118 N 0.35911 0.2065 0.73341 0.0
N119 N 0.20214 0.05251 0.6783 0.0
H120 H 0.17006 0.21954 0.15365 0.0
H121 H 0.12049 0.506 0.17914 0.0
H122 H -0.01151 0.18933 0.10295 0.0
H123 H 0.23714 0.48236 0.26784 0.0
H124 H 0.07526 0.39305 0.14836 0.0
H125 H 0.19664 0.31577 0.19589 0.0
C126 C 0.13409 0.23134 0.15276 0.0
C127 C 0.07589 0.1953 0.1257 0.0
C128 C 0.11013 0.41222 0.17486 0.0
C129 C 0.10853 0.30828 0.17177 0.0
C130 C 0.13634 0.47686 0.19215 0.0
C131 C 0.18175 0.50289 0.22639 0.0
C132 C 0.13101 0.37435 0.19128 0.0
C133 C 0.20098 0.46332 0.242 0.0
C134 C 0.14978 0.28688 0.1764 0.0
C135 C 0.03267 0.21462 0.12432 0.0
N136 N 0.17606 0.40145 0.22416 0.0
N137 N 0.05059 0.27064 0.14642 0.0
H138 H 0.95737 0.14578 0.60188 0.0
H139 H 0.69042 0.12306 0.76447 0.0
H140 H 0.76078 0.94687 0.65451 0.0
H141 H 0.84986 0.30885 0.68523 0.0
H142 H 0.73507 0.06398 0.73828 0.0
H143 H 0.93605 0.21165 0.64498 0.0
C144 C 0.90991 0.11591 0.62257 0.0
C145 C 0.86016 0.04061 0.62397 0.0
C146 C 0.76121 0.11826 0.72731 0.0
C147 C 0.83601 0.11574 0.67381 0.0
C148 C 0.73623 0.152 0.74254 0.0
C149 C 0.7668 0.22054 0.72682 0.0
C150 C 0.81686 0.15369 0.69629 0.0
C151 C 0.82519 0.25582 0.698 0.0
C152 C 0.8979 0.15356 0.64726 0.0
C153 C 0.80001 0.00487 0.65181 0.0
N154 N 0.848 0.22181 0.68336 0.0
N155 N 0.78944 0.04274 0.67545 0.0
H156 H 0.85271 0.94807 0.17339 0.0
H157 H 0.5069 0.75968 0.24483 0.0
H158 H 0.75947 0.93869 0.0572 0.0
H159 H 0.48675 0.8778 0.15394 0.0
H160 H 0.63434 0.8314 0.22347 0.0
H161 H 0.75712 0.93587 0.21127 0.0
C162 C 0.81434 0.94751 0.1558 0.0
C163 C 0.8137 0.94429 0.11217 0.0
C164 C 0.60313 0.84391 0.20929 0.0
C165 C 0.70212 0.92604 0.1551 0.0
C166 C 0.53055 0.80333 0.22195 0.0
C167 C 0.48727 0.81473 0.20237 0.0
C168 C 0.63187 0.89471 0.17574 0.0
C169 C 0.51875 0.86795 0.17016 0.0
C170 C 0.75876 0.93866 0.17745 0.0
C171 C 0.76198 0.94187 0.09086 0.0
N172 N 0.58874 0.90504 0.15731 0.0
N173 N 0.70711 0.93116 0.11257 0.0
H174 H 0.91526 0.86708 0.66729 0.0
H175 H 0.87319 0.5188 0.66809 0.0
H176 H 0.93646 0.78222 0.5585 0.0
H177 H 0.77725 0.5628 0.75945 0.0
H178 H 0.94489 0.64169 0.63921 0.0
H179 H 0.91868 0.78651 0.71171 0.0
C180 C 0.92506 0.83444 0.65288 0.0
C181 C 0.92527 0.83069 0.60933 0.0
C182 C 0.90993 0.62524 0.66645 0.0
C183 C 0.92649 0.737 0.65955 0.0
C184 C 0.8689 0.55521 0.68288 0.0
C185 C 0.81949 0.53103 0.71638 0.0
C186 C 0.90089 0.67124 0.68336 0.0
C187 C 0.81601 0.58005 0.73446 0.0
C188 C 0.92577 0.78767 0.6782 0.0
C189 C 0.93638 0.78662 0.59203 0.0
N190 N 0.85528 0.64767 0.71728 0.0
N191 N 0.9348 0.74004 0.6172 0.0
H192 H 0.00948 0.86632 0.47341 0.0
H193 H 0.34333 0.91817 0.37771 0.0
H194 H 0.22018 0.07295 0.44573 0.0
H195 H 0.12454 0.72352 0.36095 0.0
H196 H 0.29685 0.97432 0.40414 0.0
H197 H 0.04717 0.8099 0.43402 0.0
C198 C 0.06322 0.89982 0.45895 0.0
C199 C 0.1119 0.97446 0.46343 0.0
C200 C 0.25871 0.91967 0.39409 0.0
C201 C 0.15501 0.91053 0.41863 0.0
C202 C 0.28537 0.88789 0.37892 0.0
C203 C 0.23755 0.81681 0.36681 0.0
C204 C 0.18352 0.87938 0.3983 0.0
C205 C 0.16286 0.77902 0.36953 0.0
C206 C 0.08454 0.86766 0.43638 0.0
C207 C 0.18078 0.01519 0.44377 0.0
N208 N 0.13782 0.8105 0.38559 0.0
N209 N 0.20027 0.98269 0.42266 0.0
H210 H 0.12137 0.05805 0.91593 0.0
H211 H 0.49235 0.13692 0.92499 0.0
H212 H 0.223 0.07009 1.02894 0.0
H213 H 0.43023 0.20828 0.82625 0.0
H214 H 0.36899 0.06094 0.95468 0.0
H215 H 0.20529 0.05505 0.87569 0.0
C216 C 0.15853 0.05551 0.93248 0.0
C217 C 0.16622 0.06504 0.97559 0.0
C218 C 0.38178 0.09155 0.92578 0.0
C219 C 0.26329 0.06413 0.93002 0.0
C220 C 0.45214 0.13528 0.90895 0.0
C221 C 0.47132 0.17919 0.87309 0.0
C222 C 0.33031 0.0921 0.90676 0.0
C223 C 0.41719 0.17433 0.85329 0.0
C224 C 0.2071 0.05499 0.90946 0.0
C225 C 0.2157 0.06277 0.99566 0.0
N226 N 0.34921 0.13246 0.87078 0.0
N227 N 0.26392 0.06445 0.97255 0.0
H228 H 0.03573 0.14373 0.41756 0.0
H229 H 0.13231 0.5132 0.44092 0.0
H230 H 0.02228 0.22091 0.5328 0.0
H231 H 0.15311 0.44094 0.3255 0.0
H232 H 0.05336 0.39038 0.46944 0.0
H233 H 0.03401 0.22984 0.37877 0.0
C234 C 0.02797 0.17598 0.43463 0.0
C235 C 0.02994 0.17616 0.4783 0.0
C236 C 0.07423 0.40093 0.43762 0.0
C237 C 0.0318 0.27698 0.43454 0.0
C238 C 0.11988 0.47129 0.42138 0.0
C239 C 0.15149 0.48772 0.38117 0.0
C240 C 0.06111 0.34645 0.41388 0.0
C241 C 0.13143 0.43093 0.3569 0.0
C242 C 0.02831 0.22608 0.41251 0.0
C243 C 0.02099 0.21948 0.49906 0.0
N244 N 0.08886 0.36294 0.37397 0.0
N245 N 0.02452 0.26983 0.47701 0.0
H246 H 0.83466 0.02605 0.98718 0.0
H247 H 0.85137 0.26923 0.80756 0.0
H248 H 0.02032 0.17794 0.90516 0.0
H249 H 0.68142 0.14435 0.90226 0.0
H250 H 0.89858 0.21007 0.83026 0.0
H251 H 0.76348 0.04369 0.94437 0.0
C252 C 0.8601 0.06223 0.95989 0.0
C253 C 0.93389 0.10197 0.95035 0.0
C254 C 0.84999 0.19448 0.84545 0.0
C255 C 0.8532 0.12226 0.90129 0.0
C256 C 0.82293 0.22782 0.83224 0.0
C257 C 0.76313 0.21173 0.85342 0.0
C258 C 0.81695 0.14547 0.88012 0.0
C259 C 0.72828 0.15842 0.88553 0.0
C260 C 0.81958 0.07235 0.93547 0.0
C261 C 0.96402 0.14762 0.91434 0.0
N262 N 0.75622 0.12782 0.8983 0.0
N263 N 0.92385 0.15715 0.89144 0.0
H264 H 0.78608 0.81487 0.42788 0.0
H265 H 0.55981 0.91276 0.33145 0.0
H266 H 0.83996 0.01865 0.44283 0.0
H267 H 0.50729 0.70882 0.32231 0.0
H268 H 0.68134 0.96542 0.35408 0.0
H269 H 0.70595 0.78961 0.37167 0.0
C270 C 0.78258 0.85529 0.41832 0.0
C271 C 0.81924 0.9187 0.44005 0.0
C272 C 0.64426 0.90979 0.34569 0.0
C273 C 0.72497 0.88893 0.37685 0.0
C274 C 0.57523 0.88 0.33226 0.0
C275 C 0.5241 0.8067 0.32445 0.0
C276 C 0.6615 0.86541 0.352 0.0
C277 C 0.54566 0.76584 0.32742 0.0
C278 C 0.73639 0.84069 0.3864 0.0
C279 C 0.81266 0.96918 0.42669 0.0
N280 N 0.61226 0.79544 0.34149 0.0
N281 N 0.76489 0.95248 0.39657 0.0
H282 H 0.80318 0.79852 0.94025 0.0
H283 H 0.90995 0.57461 0.86427 0.0
H284 H 0.0163 0.86794 0.9555 0.0
H285 H 0.71219 0.52928 0.83228 0.0
H286 H 0.95937 0.69348 0.88647 0.0
H287 H 0.77861 0.71376 0.88907 0.0
C288 C 0.84563 0.79729 0.93173 0.0
C289 C 0.91173 0.84 0.95202 0.0
C290 C 0.90601 0.65855 0.87343 0.0
C291 C 0.88305 0.74075 0.8948 0.0
C292 C 0.87804 0.59094 0.86057 0.0
C293 C 0.80755 0.54297 0.84577 0.0
C294 C 0.86221 0.67735 0.87258 0.0
C295 C 0.76735 0.56545 0.84276 0.0
C296 C 0.8315 0.74854 0.9027 0.0
C297 C 0.96477 0.83605 0.94028 0.0
N298 N 0.79486 0.63061 0.85654 0.0
N299 N 0.94868 0.78592 0.91311 0.0
loop_
_geom_bond_atom_site_label_1
_geom_bond_atom_site_label_2
_geom_bond_distance
_geom_bond_site_symmetry_2
_ccdc_geom_bond_type
O0 Mn1 2.163 1_666 S
O0 C14 1.244 . S
Mn1 O0 2.163 1_444 S
Mn1 O4 2.160 . S
Mn1 O5 2.221 1_554 S
Mn1 O7 2.163 1_454 S
Mn1 O9 2.160 1_545 S
Mn1 O19 2.221 1_445 S
O2 Mn3 2.087 1_556 S
O2 C14 1.256 . S
Mn3 O2 2.087 1_554 S
Mn3 O10 2.089 1_655 S
Mn3 O19 2.290 . S
Mn3 O20 2.251 . S
O4 Mn1 2.160 . S
O4 C15 1.239 . S
O5 Mn1 2.221 1_556 S
O5 Mn6 2.290 . S
O5 C16 1.278 . S
Mn6 O5 2.290 . S
Mn6 O8 2.089 1_556 S
Mn6 O11 2.251 . S
Mn6 O12 2.087 . S
O7 Mn1 2.163 1_656 S
O7 C17 1.244 . S
O8 Mn6 2.089 1_554 S
O8 C15 1.256 . S
O9 Mn1 2.160 1_565 S
O9 C18 1.239 . S
O10 Mn3 2.089 1_455 S
O10 C18 1.256 . S
O11 Mn6 2.251 . S
O11 C16 1.241 . S
O12 Mn6 2.087 . S
O12 C17 1.256 1_455 S
C13 O19 1.278 . S
C13 O20 1.241 . S
C14 O0 1.244 . S
C14 O2 1.256 . S
C15 O4 1.239 . S
C15 O8 1.256 . S
C16 O5 1.278 . S
C16 O11 1.241 . S
C17 O7 1.244 . S
C17 O12 1.256 1_655 S
C18 O9 1.239 . S
C18 O10 1.256 . S
O19 Mn1 2.221 1_665 S
O19 Mn3 2.290 . S
O19 C13 1.278 . S
O20 Mn3 2.251 . S
O20 C13 1.241 . S
O21 Mn22 2.163 1_545 S
O21 C35 1.244 . S
Mn22 O21 2.163 1_565 S
Mn22 O25 2.160 1_455 S
Mn22 O26 2.221 1_455 S
Mn22 O28 2.163 1_465 S
Mn22 O30 2.160 . S
Mn22 O40 2.221 1_565 S
O23 Mn24 2.087 . S
O23 C35 1.256 . S
Mn24 O23 2.087 . S
Mn24 O31 2.089 . S
Mn24 O40 2.290 . S
Mn24 O41 2.251 . S
O25 Mn22 2.160 1_655 S
O25 C36 1.239 . S
O26 Mn22 2.221 1_655 S
O26 Mn27 2.290 . S
O26 C37 1.278 . S
Mn27 O26 2.290 . S
Mn27 O29 2.089 . S
Mn27 O32 2.251 . S
Mn27 O33 2.087 . S
O28 Mn22 2.163 1_645 S
O28 C38 1.244 . S
O29 Mn27 2.089 . S
O29 C36 1.256 . S
O30 Mn22 2.160 . S
O30 C39 1.239 . S
O31 Mn24 2.089 . S
O31 C39 1.256 1_545 S
O32 Mn27 2.251 . S
O32 C37 1.241 . S
O33 Mn27 2.087 . S
O33 C38 1.256 1_565 S
C34 O40 1.278 . S
C34 O41 1.241 . S
C35 O21 1.244 . S
C35 O23 1.256 . S
C36 O25 1.239 . S
C36 O29 1.256 . S
C37 O26 1.278 . S
C37 O32 1.241 . S
C38 O28 1.244 . S
C38 O33 1.256 1_545 S
C39 O30 1.239 . S
C39 O31 1.256 1_565 S
O40 Mn22 2.221 1_545 S
O40 Mn24 2.290 . S
O40 C34 1.278 . S
O41 Mn24 2.251 . S
O41 C34 1.241 . S
Zn42 O48 1.920 . S
Zn42 O54 1.898 . S
Zn42 O57 1.905 . S
Zn43 O51 1.905 . S
Zn43 O52 1.898 . S
Zn43 O60 1.920 . S
Zn44 O47 2.080 . S
Zn44 O50 2.114 . S
Zn44 O53 2.120 . S
Zn44 O55 2.120 . S
Zn44 O56 2.114 . S
Zn44 O59 2.080 . S
C45 O50 1.166 . S
C45 O51 1.182 . S
C46 O52 1.167 . S
C46 O53 1.299 . S
O47 Zn44 2.080 . S
O47 C61 1.305 . S
O48 Zn42 1.920 . S
O48 C61 1.234 . S
C49 O54 1.167 . S
C49 O55 1.299 . S
O50 Zn44 2.114 . S
O50 C45 1.166 . S
O51 Zn43 1.905 . S
O51 C45 1.182 . S
O52 Zn43 1.898 . S
O52 C46 1.167 . S
O53 Zn44 2.120 . S
O53 C46 1.299 . S
O54 Zn42 1.898 . S
O54 C49 1.167 . S
O55 Zn44 2.120 . S
O55 C49 1.299 . S
O56 Zn44 2.114 . S
O56 C58 1.166 . S
O57 Zn42 1.905 . S
O57 C58 1.182 . S
C58 O56 1.166 . S
C58 O57 1.182 . S
O59 Zn44 2.080 . S
O59 C62 1.305 . S
O60 Zn43 1.920 . S
O60 C62 1.234 . S
C61 O47 1.305 . S
C61 O48 1.234 . S
C62 O59 1.305 . S
C62 O60 1.234 . S
Zn63 O69 1.920 . S
Zn63 O75 1.898 . S
Zn63 O78 1.905 . S
Zn64 O72 1.905 . S
Zn64 O73 1.898 . S
Zn64 O81 1.920 . S
Zn65 O68 2.080 . S
Zn65 O71 2.114 . S
Zn65 O74 2.120 . S
Zn65 O76 2.120 . S
Zn65 O77 2.114 . S
Zn65 O80 2.080 . S
C66 O71 1.166 . S
C66 O72 1.182 . S
C67 O73 1.167 . S
C67 O74 1.299 . S
O68 Zn65 2.080 . S
O68 C82 1.305 . S
O69 Zn63 1.920 . S
O69 C82 1.234 . S
C70 O75 1.167 . S
C70 O76 1.299 . S
O71 Zn65 2.114 . S
O71 C66 1.166 . S
O72 Zn64 1.905 . S
O72 C66 1.182 . S
O73 Zn64 1.898 . S
O73 C67 1.167 . S
O74 Zn65 2.120 . S
O74 C67 1.299 . S
O75 Zn63 1.898 . S
O75 C70 1.167 . S
O76 Zn65 2.120 . S
O76 C70 1.299 . S
O77 Zn65 2.114 . S
O77 C79 1.166 . S
O78 Zn63 1.905 . S
O78 C79 1.182 . S
C79 O77 1.166 . S
C79 O78 1.182 . S
O80 Zn65 2.080 . S
O80 C83 1.305 . S
O81 Zn64 1.920 . S
O81 C83 1.234 . S
C82 O68 1.305 . S
C82 O69 1.234 . S
C83 O80 1.305 . S
C83 O81 1.234 . S
H84 C90 0.930 . S
H85 C94 0.930 . S
H86 C99 0.929 . S
H87 C97 0.929 . S
H88 C92 0.929 . S
H89 C98 0.929 . S
C90 H84 0.930 . S
C90 C91 1.367 . S
C90 C98 1.378 . S
C91 C90 1.367 . S
C91 C99 1.433 . S
C92 H88 0.929 . S
C92 C94 1.378 . S
C92 C96 1.350 . S
C93 C96 1.463 . S
C93 C98 1.350 . S
C93 N101 1.427 . S
C94 H85 0.930 . S
C94 C92 1.378 . S
C94 C95 1.367 . S
C95 C94 1.367 . S
C95 C97 1.433 . S
C96 C92 1.350 . S
C96 C93 1.463 . S
C96 N100 1.427 . S
C97 H87 0.929 . S
C97 C95 1.433 . S
C97 N100 1.384 . S
C98 H89 0.929 . S
C98 C90 1.378 . S
C98 C93 1.350 . S
C99 H86 0.929 . S
C99 C91 1.433 . S
C99 N101 1.384 . S
N100 C96 1.427 . S
N100 C97 1.384 . S
N101 C93 1.427 . S
N101 C99 1.384 . S
H102 C108 0.930 . S
H103 C112 0.930 . S
H104 C117 0.929 1_565 S
H105 C115 0.929 . S
H106 C110 0.929 . S
H107 C116 0.929 . S
C108 H102 0.930 . S
C108 C109 1.367 . S
C108 C116 1.378 . S
C109 C108 1.367 . S
C109 C117 1.433 . S
C110 H106 0.929 . S
C110 C112 1.378 . S
C110 C114 1.350 . S
C111 C114 1.463 . S
C111 C116 1.350 . S
C111 N119 1.427 . S
C112 H103 0.930 . S
C112 C110 1.378 . S
C112 C113 1.367 . S
C113 C112 1.367 . S
C113 C115 1.433 . S
C114 C110 1.350 . S
C114 C111 1.463 . S
C114 N118 1.427 . S
C115 H105 0.929 . S
C115 C113 1.433 . S
C115 N118 1.384 . S
C116 H107 0.929 . S
C116 C108 1.378 . S
C116 C111 1.350 . S
C117 H104 0.929 1_545 S
C117 C109 1.433 . S
C117 N119 1.384 . S
N118 C114 1.427 . S
N118 C115 1.384 . S
N119 C111 1.427 . S
N119 C117 1.384 . S
H120 C126 0.930 . S
H121 C130 0.930 . S
H122 C135 0.929 . S
H123 C133 0.929 . S
H124 C128 0.929 . S
H125 C134 0.929 . S
C126 H120 0.930 . S
C126 C127 1.367 . S
C126 C134 1.378 . S
C127 C126 1.367 . S
C127 C135 1.433 . S
C128 H124 0.929 . S
C128 C130 1.378 . S
C128 C132 1.350 . S
C129 C132 1.463 . S
C129 C134 1.350 . S
C129 N137 1.427 . S
C130 H121 0.930 . S
C130 C128 1.378 . S
C130 C131 1.367 . S
C131 C130 1.367 . S
C131 C133 1.433 . S
C132 C128 1.350 . S
C132 C129 1.463 . S
C132 N136 1.427 . S
C133 H123 0.929 . S
C133 C131 1.433 . S
C133 N136 1.384 . S
C134 H125 0.929 . S
C134 C126 1.378 . S
C134 C129 1.350 . S
C135 H122 0.929 . S
C135 C127 1.433 . S
C135 N137 1.384 . S
N136 C132 1.427 . S
N136 C133 1.384 . S
N137 C129 1.427 . S
N137 C135 1.384 . S
H138 C144 0.930 . S
H139 C148 0.930 . S
H140 C153 0.929 . S
H141 C151 0.929 . S
H142 C146 0.929 . S
H143 C152 0.929 . S
C144 H138 0.930 . S
C144 C145 1.367 . S
C144 C152 1.378 . S
C145 C144 1.367 . S
C145 C153 1.433 . S
C146 H142 0.929 . S
C146 C148 1.378 . S
C146 C150 1.350 . S
C147 C150 1.463 . S
C147 C152 1.350 . S
C147 N155 1.427 . S
C148 H139 0.930 . S
C148 C146 1.378 . S
C148 C149 1.367 . S
C149 C148 1.367 . S
C149 C151 1.433 . S
C150 C146 1.350 . S
C150 C147 1.463 . S
C150 N154 1.427 . S
C151 H141 0.929 . S
C151 C149 1.433 . S
C151 N154 1.384 . S
C152 H143 0.929 . S
C152 C144 1.378 . S
C152 C147 1.350 . S
C153 H140 0.929 . S
C153 C145 1.433 . S
C153 N155 1.384 . S
N154 C150 1.427 . S
N154 C151 1.384 . S
N155 C147 1.427 . S
N155 C153 1.384 . S
H156 C162 0.930 1_545 S
H157 C166 0.930 . S
H158 C171 0.929 . S
H159 C169 0.929 . S
H160 C164 0.929 . S
H161 C170 0.929 . S
C162 H156 0.930 1_565 S
C162 C163 1.367 . S
C162 C170 1.378 . S
C163 C162 1.367 . S
C163 C171 1.433 . S
C164 H160 0.929 . S
C164 C166 1.378 . S
C164 C168 1.350 . S
C165 C168 1.463 . S
C165 C170 1.350 . S
C165 N173 1.427 . S
C166 H157 0.930 . S
C166 C164 1.378 . S
C166 C167 1.367 . S
C167 C166 1.367 . S
C167 C169 1.433 . S
C168 C164 1.350 . S
C168 C165 1.463 . S
C168 N172 1.427 . S
C169 H159 0.929 . S
C169 C167 1.433 . S
C169 N172 1.384 . S
C170 H161 0.929 . S
C170 C162 1.378 . S
C170 C165 1.350 . S
C171 H158 0.929 . S
C171 C163 1.433 . S
C171 N173 1.384 . S
N172 C168 1.427 . S
N172 C169 1.384 . S
N173 C165 1.427 . S
N173 C171 1.384 . S
H174 C180 0.930 . S
H175 C184 0.930 . S
H176 C189 0.929 . S
H177 C187 0.929 . S
H178 C182 0.929 . S
H179 C188 0.929 . S
C180 H174 0.930 . S
C180 C181 1.367 . S
C180 C188 1.378 . S
C181 C180 1.367 . S
C181 C189 1.433 . S
C182 H178 0.929 . S
C182 C184 1.378 . S
C182 C186 1.350 . S
C183 C186 1.463 . S
C183 C188 1.350 . S
C183 N191 1.427 . S
C184 H175 0.930 . S
C184 C182 1.378 . S
C184 C185 1.367 . S
C185 C184 1.367 . S
C185 C187 1.433 . S
C186 C182 1.350 . S
C186 C183 1.463 . S
C186 N190 1.427 . S
C187 H177 0.929 . S
C187 C185 1.433 . S
C187 N190 1.384 . S
C188 H179 0.929 . S
C188 C180 1.378 . S
C188 C183 1.350 . S
C189 H176 0.929 . S
C189 C181 1.433 . S
C189 N191 1.384 . S
N190 C186 1.427 . S
N190 C187 1.384 . S
N191 C183 1.427 . S
N191 C189 1.384 . S
H192 C198 0.930 . S
H193 C202 0.930 . S
H194 C207 0.929 . S
H195 C205 0.929 . S
H196 C200 0.929 . S
H197 C206 0.929 . S
C198 H192 0.930 . S
C198 C199 1.367 . S
C198 C206 1.378 . S
C199 C198 1.367 . S
C199 C207 1.433 . S
C200 H196 0.929 . S
C200 C202 1.378 . S
C200 C204 1.350 . S
C201 C204 1.463 . S
C201 C206 1.350 . S
C201 N209 1.427 . S
C202 H193 0.930 . S
C202 C200 1.378 . S
C202 C203 1.367 . S
C203 C202 1.367 . S
C203 C205 1.433 . S
C204 C200 1.350 . S
C204 C201 1.463 . S
C204 N208 1.427 . S
C205 H195 0.929 . S
C205 C203 1.433 . S
C205 N208 1.384 . S
C206 H197 0.929 . S
C206 C198 1.378 . S
C206 C201 1.350 . S
C207 H194 0.929 . S
C207 C199 1.433 . S
C207 N209 1.384 . S
N208 C204 1.427 . S
N208 C205 1.384 . S
N209 C201 1.427 . S
N209 C207 1.384 . S
H210 C216 0.930 . S
H211 C220 0.930 . S
H212 C225 0.929 . S
H213 C223 0.929 . S
H214 C218 0.929 . S
H215 C224 0.929 . S
C216 H210 0.930 . S
C216 C217 1.367 . S
C216 C224 1.378 . S
C217 C216 1.367 . S
C217 C225 1.433 . S
C218 H214 0.929 . S
C218 C220 1.378 . S
C218 C222 1.350 . S
C219 C222 1.463 . S
C219 C224 1.350 . S
C219 N227 1.427 . S
C220 H211 0.930 . S
C220 C218 1.378 . S
C220 C221 1.367 . S
C221 C220 1.367 . S
C221 C223 1.433 . S
C222 C218 1.350 . S
C222 C219 1.463 . S
C222 N226 1.427 . S
C223 H213 0.929 . S
C223 C221 1.433 . S
C223 N226 1.384 . S
C224 H215 0.929 . S
C224 C216 1.378 . S
C224 C219 1.350 . S
C225 H212 0.929 . S
C225 C217 1.433 . S
C225 N227 1.384 . S
N226 C222 1.427 . S
N226 C223 1.384 . S
N227 C219 1.427 . S
N227 C225 1.384 . S
H228 C234 0.930 . S
H229 C238 0.930 . S
H230 C243 0.929 . S
H231 C241 0.929 . S
H232 C236 0.929 . S
H233 C242 0.929 . S
C234 H228 0.930 . S
C234 C235 1.367 . S
C234 C242 1.378 . S
C235 C234 1.367 . S
C235 C243 1.433 . S
C236 H232 0.929 . S
C236 C238 1.378 . S
C236 C240 1.350 . S
C237 C240 1.463 . S
C237 C242 1.350 . S
C237 N245 1.427 . S
C238 H229 0.930 . S
C238 C236 1.378 . S
C238 C239 1.367 . S
C239 C238 1.367 . S
C239 C241 1.433 . S
C240 C236 1.350 . S
C240 C237 1.463 . S
C240 N244 1.427 . S
C241 H231 0.929 . S
C241 C239 1.433 . S
C241 N244 1.384 . S
C242 H233 0.929 . S
C242 C234 1.378 . S
C242 C237 1.350 . S
C243 H230 0.929 . S
C243 C235 1.433 . S
C243 N245 1.384 . S
N244 C240 1.427 . S
N244 C241 1.384 . S
N245 C237 1.427 . S
N245 C243 1.384 . S
H246 C252 0.930 . S
H247 C256 0.930 . S
H248 C261 0.929 . S
H249 C259 0.929 . S
H250 C254 0.929 . S
H251 C260 0.929 . S
C252 H246 0.930 . S
C252 C253 1.367 . S
C252 C260 1.378 . S
C253 C252 1.367 . S
C253 C261 1.433 . S
C254 H250 0.929 . S
C254 C256 1.378 . S
C254 C258 1.350 . S
C255 C258 1.463 . S
C255 C260 1.350 . S
C255 N263 1.427 . S
C256 H247 0.930 . S
C256 C254 1.378 . S
C256 C257 1.367 . S
C257 C256 1.367 . S
C257 C259 1.433 . S
C258 C254 1.350 . S
C258 C255 1.463 . S
C258 N262 1.427 . S
C259 H249 0.929 . S
C259 C257 1.433 . S
C259 N262 1.384 . S
C260 H251 0.929 . S
C260 C252 1.378 . S
C260 C255 1.350 . S
C261 H248 0.929 . S
C261 C253 1.433 . S
C261 N263 1.384 . S
N262 C258 1.427 . S
N262 C259 1.384 . S
N263 C255 1.427 . S
N263 C261 1.384 . S
H264 C270 0.930 . S
H265 C274 0.930 . S
H266 C279 0.929 1_545 S
H267 C277 0.929 . S
H268 C272 0.929 . S
H269 C278 0.929 . S
C270 H264 0.930 . S
C270 C271 1.367 . S
C270 C278 1.378 . S
C271 C270 1.367 . S
C271 C279 1.433 . S
C272 H268 0.929 . S
C272 C274 1.378 . S
C272 C276 1.350 . S
C273 C276 1.463 . S
C273 C278 1.350 . S
C273 N281 1.427 . S
C274 H265 0.930 . S
C274 C272 1.378 . S
C274 C275 1.367 . S
C275 C274 1.367 . S
C275 C277 1.433 . S
C276 C272 1.350 . S
C276 C273 1.463 . S
C276 N280 1.427 . S
C277 H267 0.929 . S
C277 C275 1.433 . S
C277 N280 1.384 . S
C278 H269 0.929 . S
C278 C270 1.378 . S
C278 C273 1.350 . S
C279 H266 0.929 1_565 S
C279 C271 1.433 . S
C279 N281 1.384 . S
N280 C276 1.427 . S
N280 C277 1.384 . S
N281 C273 1.427 . S
N281 C279 1.384 . S
H282 C288 0.930 . S
H283 C292 0.930 . S
H284 C297 0.929 1_455 S
H285 C295 0.929 . S
H286 C290 0.929 . S
H287 C296 0.929 . S
C288 H282 0.930 . S
C288 C289 1.367 . S
C288 C296 1.378 . S
C289 C288 1.367 . S
C289 C297 1.433 . S
C290 H286 0.929 . S
C290 C292 1.378 . S
C290 C294 1.350 . S
C291 C294 1.463 . S
C291 C296 1.350 . S
C291 N299 1.427 . S
C292 H283 0.930 . S
C292 C290 1.378 . S
C292 C293 1.367 . S
C293 C292 1.367 . S
C293 C295 1.433 . S
C294 C290 1.350 . S
C294 C291 1.463 . S
C294 N298 1.427 . S
C295 H285 0.929 . S
C295 C293 1.433 . S
C295 N298 1.384 . S
C296 H287 0.929 . S
C296 C288 1.378 . S
C296 C291 1.350 . S
C297 H284 0.929 1_655 S
C297 C289 1.433 . S
C297 N299 1.384 . S
N298 C294 1.427 . S
N298 C295 1.384 . S
N299 C291 1.427 . S
N299 C297 1.384 . S
C91 C18 1.377 . S
C95 C61 1.305 . S
C109 C35 1.508 . S
C113 C67 1.394 . S
C127 C15 1.346 . S
C131 C58 1.255 . S
C145 C38 1.550 . S
C149 C83 1.419 . S
C163 C13 1.392 . S
C167 C49 1.371 . S
C185 C66 1.383 . S
C181 C37 1.268 . S
C199 C39 1.379 . S
C203 C62 1.292 . S
C221 C79 1.384 . S
C217 C16 1.270 . S
C239 C46 1.367 . S
C235 C34 1.388 . S
C257 C82 1.429 . S
C253 C17 1.548 . S
C275 C45 1.269 . S
C271 C36 1.335 . S
C293 C70 1.401 . S
C289 C14 1.504 . S
