# Generated by pormake.
# Topology fgl, (4,4)-cn, num edge types: 1
# Building blocks:
#     Node 0, Type 0, BuildingBlock: ESEHIV_clean_sbu_0, # of connection points: 4
#     Node 1, Type 0, BuildingBlock: ESEHIV_clean_sbu_0, # of connection points: 4
#     Node 2, Type 0, BuildingBlock: ESEHIV_clean_sbu_0, # of connection points: 4
#     Node 3, Type 0, BuildingBlock: ESEHIV_clean_sbu_0, # of connection points: 4
#     Node 4, Type 0, BuildingBlock: ESEHIV_clean_sbu_0, # of connection points: 4
#     Node 5, Type 0, BuildingBlock: ESEHIV_clean_sbu_0, # of connection points: 4
#     Node 6, Type 0, BuildingBlock: ESEHIV_clean_sbu_0, # of connection points: 4
#     Node 7, Type 0, BuildingBlock: ESEHIV_clean_sbu_0, # of connection points: 4
#     Node 8, Type 0, BuildingBlock: ESEHIV_clean_sbu_0, # of connection points: 4
#     Node 9, Type 0, BuildingBlock: ESEHIV_clean_sbu_0, # of connection points: 4
#     Node 10, Type 0, BuildingBlock: ESEHIV_clean_sbu_0, # of connection points: 4
#     Node 11, Type 0, BuildingBlock: ESEHIV_clean_sbu_0, # of connection points: 4
#     Node 12, Type 0, BuildingBlock: ESEHIV_clean_sbu_0, # of connection points: 4
#     Node 13, Type 0, BuildingBlock: ESEHIV_clean_sbu_0, # of connection points: 4
#     Node 14, Type 0, BuildingBlock: ESEHIV_clean_sbu_0, # of connection points: 4
#     Node 15, Type 0, BuildingBlock: ESEHIV_clean_sbu_0, # of connection points: 4
#     Node 16, Type 0, BuildingBlock: ESEHIV_clean_sbu_0, # of connection points: 4
#     Node 17, Type 0, BuildingBlock: ESEHIV_clean_sbu_0, # of connection points: 4
#     Node 18, Type 1, BuildingBlock: CEKHIL_clean_sbu_0, # of connection points: 4
#     Node 19, Type 1, BuildingBlock: CEKHIL_clean_sbu_0, # of connection points: 4
#     Node 20, Type 1, BuildingBlock: CEKHIL_clean_sbu_0, # of connection points: 4
#     Node 21, Type 1, BuildingBlock: CEKHIL_clean_sbu_0, # of connection points: 4
#     Node 22, Type 1, BuildingBlock: CEKHIL_clean_sbu_0, # of connection points: 4
#     Node 23, Type 1, BuildingBlock: CEKHIL_clean_sbu_0, # of connection points: 4
#     Node 24, Type 1, BuildingBlock: CEKHIL_clean_sbu_0, # of connection points: 4
#     Node 25, Type 1, BuildingBlock: CEKHIL_clean_sbu_0, # of connection points: 4
#     Node 26, Type 1, BuildingBlock: CEKHIL_clean_sbu_0, # of connection points: 4
#     Node 27, Type 1, BuildingBlock: CEKHIL_clean_sbu_0, # of connection points: 4
#     Node 28, Type 1, BuildingBlock: CEKHIL_clean_sbu_0, # of connection points: 4
#     Node 29, Type 1, BuildingBlock: CEKHIL_clean_sbu_0, # of connection points: 4
#     Node 30, Type 1, BuildingBlock: CEKHIL_clean_sbu_0, # of connection points: 4
#     Node 31, Type 1, BuildingBlock: CEKHIL_clean_sbu_0, # of connection points: 4
#     Node 32, Type 1, BuildingBlock: CEKHIL_clean_sbu_0, # of connection points: 4
#     Node 33, Type 1, BuildingBlock: CEKHIL_clean_sbu_0, # of connection points: 4
#     Node 34, Type 1, BuildingBlock: CEKHIL_clean_sbu_0, # of connection points: 4
#     Node 35, Type 1, BuildingBlock: CEKHIL_clean_sbu_0, # of connection points: 4
#     Edge 36, Type (0, 1), BuildingBlock: EZIPEK_clean_linker_0, # of connection points: 2
#     Edge 37, Type (0, 1), BuildingBlock: EZIPEK_clean_linker_0, # of connection points: 2
#     Edge 38, Type (0, 1), BuildingBlock: EZIPEK_clean_linker_0, # of connection points: 2
#     Edge 39, Type (0, 1), BuildingBlock: EZIPEK_clean_linker_0, # of connection points: 2
#     Edge 40, Type (0, 1), BuildingBlock: EZIPEK_clean_linker_0, # of connection points: 2
#     Edge 41, Type (0, 1), BuildingBlock: EZIPEK_clean_linker_0, # of connection points: 2
#     Edge 42, Type (0, 1), BuildingBlock: EZIPEK_clean_linker_0, # of connection points: 2
#     Edge 43, Type (0, 1), BuildingBlock: EZIPEK_clean_linker_0, # of connection points: 2
#     Edge 44, Type (0, 1), BuildingBlock: EZIPEK_clean_linker_0, # of connection points: 2
#     Edge 45, Type (0, 1), BuildingBlock: EZIPEK_clean_linker_0, # of connection points: 2
#     Edge 46, Type (0, 1), BuildingBlock: EZIPEK_clean_linker_0, # of connection points: 2
#     Edge 47, Type (0, 1), BuildingBlock: EZIPEK_clean_linker_0, # of connection points: 2
#     Edge 48, Type (0, 1), BuildingBlock: EZIPEK_clean_linker_0, # of connection points: 2
#     Edge 49, Type (0, 1), BuildingBlock: EZIPEK_clean_linker_0, # of connection points: 2
#     Edge 50, Type (0, 1), BuildingBlock: EZIPEK_clean_linker_0, # of connection points: 2
#     Edge 51, Type (0, 1), BuildingBlock: EZIPEK_clean_linker_0, # of connection points: 2
#     Edge 52, Type (0, 1), BuildingBlock: EZIPEK_clean_linker_0, # of connection points: 2
#     Edge 53, Type (0, 1), BuildingBlock: EZIPEK_clean_linker_0, # of connection points: 2
#     Edge 54, Type (0, 1), BuildingBlock: EZIPEK_clean_linker_0, # of connection points: 2
#     Edge 55, Type (0, 1), BuildingBlock: EZIPEK_clean_linker_0, # of connection points: 2
#     Edge 56, Type (0, 1), BuildingBlock: EZIPEK_clean_linker_0, # of connection points: 2
#     Edge 57, Type (0, 1), BuildingBlock: EZIPEK_clean_linker_0, # of connection points: 2
#     Edge 58, Type (0, 1), BuildingBlock: EZIPEK_clean_linker_0, # of connection points: 2
#     Edge 59, Type (0, 1), BuildingBlock: EZIPEK_clean_linker_0, # of connection points: 2
#     Edge 60, Type (0, 1), BuildingBlock: EZIPEK_clean_linker_0, # of connection points: 2
#     Edge 61, Type (0, 1), BuildingBlock: EZIPEK_clean_linker_0, # of connection points: 2
#     Edge 62, Type (0, 1), BuildingBlock: EZIPEK_clean_linker_0, # of connection points: 2
#     Edge 63, Type (0, 1), BuildingBlock: EZIPEK_clean_linker_0, # of connection points: 2
#     Edge 64, Type (0, 1), BuildingBlock: EZIPEK_clean_linker_0, # of connection points: 2
#     Edge 65, Type (0, 1), BuildingBlock: EZIPEK_clean_linker_0, # of connection points: 2
#     Edge 66, Type (0, 1), BuildingBlock: EZIPEK_clean_linker_0, # of connection points: 2
#     Edge 67, Type (0, 1), BuildingBlock: EZIPEK_clean_linker_0, # of connection points: 2
#     Edge 68, Type (0, 1), BuildingBlock: EZIPEK_clean_linker_0, # of connection points: 2
#     Edge 69, Type (0, 1), BuildingBlock: EZIPEK_clean_linker_0, # of connection points: 2
#     Edge 70, Type (0, 1), BuildingBlock: EZIPEK_clean_linker_0, # of connection points: 2
#     Edge 71, Type (0, 1), BuildingBlock: EZIPEK_clean_linker_0, # of connection points: 2
#     Edge 72, Type (0, 1), BuildingBlock: EZIPEK_clean_linker_0, # of connection points: 2
#     Edge 73, Type (0, 1), BuildingBlock: EZIPEK_clean_linker_0, # of connection points: 2
#     Edge 74, Type (0, 1), BuildingBlock: EZIPEK_clean_linker_0, # of connection points: 2
#     Edge 75, Type (0, 1), BuildingBlock: EZIPEK_clean_linker_0, # of connection points: 2
#     Edge 76, Type (0, 1), BuildingBlock: EZIPEK_clean_linker_0, # of connection points: 2
#     Edge 77, Type (0, 1), BuildingBlock: EZIPEK_clean_linker_0, # of connection points: 2
#     Edge 78, Type (0, 1), BuildingBlock: EZIPEK_clean_linker_0, # of connection points: 2
#     Edge 79, Type (0, 1), BuildingBlock: EZIPEK_clean_linker_0, # of connection points: 2
#     Edge 80, Type (0, 1), BuildingBlock: EZIPEK_clean_linker_0, # of connection points: 2
#     Edge 81, Type (0, 1), BuildingBlock: EZIPEK_clean_linker_0, # of connection points: 2
#     Edge 82, Type (0, 1), BuildingBlock: EZIPEK_clean_linker_0, # of connection points: 2
#     Edge 83, Type (0, 1), BuildingBlock: EZIPEK_clean_linker_0, # of connection points: 2
#     Edge 84, Type (0, 1), BuildingBlock: EZIPEK_clean_linker_0, # of connection points: 2
#     Edge 85, Type (0, 1), BuildingBlock: EZIPEK_clean_linker_0, # of connection points: 2
#     Edge 86, Type (0, 1), BuildingBlock: EZIPEK_clean_linker_0, # of connection points: 2
#     Edge 87, Type (0, 1), BuildingBlock: EZIPEK_clean_linker_0, # of connection points: 2
#     Edge 88, Type (0, 1), BuildingBlock: EZIPEK_clean_linker_0, # of connection points: 2
#     Edge 89, Type (0, 1), BuildingBlock: EZIPEK_clean_linker_0, # of connection points: 2
#     Edge 90, Type (0, 1), BuildingBlock: EZIPEK_clean_linker_0, # of connection points: 2
#     Edge 91, Type (0, 1), BuildingBlock: EZIPEK_clean_linker_0, # of connection points: 2
#     Edge 92, Type (0, 1), BuildingBlock: EZIPEK_clean_linker_0, # of connection points: 2
#     Edge 93, Type (0, 1), BuildingBlock: EZIPEK_clean_linker_0, # of connection points: 2
#     Edge 94, Type (0, 1), BuildingBlock: EZIPEK_clean_linker_0, # of connection points: 2
#     Edge 95, Type (0, 1), BuildingBlock: EZIPEK_clean_linker_0, # of connection points: 2
#     Edge 96, Type (0, 1), BuildingBlock: EZIPEK_clean_linker_0, # of connection points: 2
#     Edge 97, Type (0, 1), BuildingBlock: EZIPEK_clean_linker_0, # of connection points: 2
#     Edge 98, Type (0, 1), BuildingBlock: EZIPEK_clean_linker_0, # of connection points: 2
#     Edge 99, Type (0, 1), BuildingBlock: EZIPEK_clean_linker_0, # of connection points: 2
#     Edge 100, Type (0, 1), BuildingBlock: EZIPEK_clean_linker_0, # of connection points: 2
#     Edge 101, Type (0, 1), BuildingBlock: EZIPEK_clean_linker_0, # of connection points: 2
#     Edge 102, Type (0, 1), BuildingBlock: EZIPEK_clean_linker_0, # of connection points: 2
#     Edge 103, Type (0, 1), BuildingBlock: EZIPEK_clean_linker_0, # of connection points: 2
#     Edge 104, Type (0, 1), BuildingBlock: EZIPEK_clean_linker_0, # of connection points: 2
#     Edge 105, Type (0, 1), BuildingBlock: EZIPEK_clean_linker_0, # of connection points: 2
#     Edge 106, Type (0, 1), BuildingBlock: EZIPEK_clean_linker_0, # of connection points: 2
#     Edge 107, Type (0, 1), BuildingBlock: EZIPEK_clean_linker_0, # of connection points: 2
# Relax obj value: 0.021
# Max RMSD: 0.138
# Mean RMSD: 0.078
data_MOF--net-fgl--node1-ESEHIV_clean_sbu_0--node2-CEKHIL_clean_sbu_0--edge1-EZIPEK_clean_linker_0
_symmetry_space_group_name_H-M    P1
_symmetry_Int_Tables_number       1
_symmetry_cell_setting            triclinic
loop_
_symmetry_equiv_pos_as_xyz
'x, y, z'
_cell_length_a     56.213094
_cell_length_b     55.554936
_cell_length_c     37.750899
_cell_angle_alpha  90.758521
_cell_angle_beta   90.987208
_cell_angle_gamma 119.96828
loop_
_atom_site_label
_atom_site_type_symbol
_atom_site_fract_x
_atom_site_fract_y
_atom_site_fract_z
_atom_type_partial_charge
Cu0 Cu 0.02333 0.53503 0.02115 0.0
N1 N 0.04088 0.55666 0.06227 0.0
N2 N 0.04719 0.58298 0.111 0.0
C3 C 0.03116 0.57019 0.08195 0.0
C4 C 0.06776 0.57708 0.10962 0.0
C5 C 0.06398 0.56112 0.07939 0.0
O6 O 0.99944 0.54883 1.00389 0.0
C7 C 1.01107 0.48578 0.05846 0.0
O8 O 0.02127 0.50227 0.08653 0.0
H9 H 0.01245 0.57038 0.07532 0.0
H10 H 0.07689 0.55296 0.07083 0.0
N11 N 0.04745 0.53922 0.98488 0.0
N12 N 0.06163 0.52719 0.93621 0.0
C13 C 0.04107 0.51983 0.95902 0.0
C14 C 0.07313 0.55963 0.97829 0.0
C15 C 0.08187 0.55233 0.94798 0.0
C16 C 0.01231 0.57401 0.99397 0.0
O17 O 0.03928 0.58721 0.99464 0.0
H18 H 0.02167 0.50051 0.95702 0.0
H19 H 0.08468 0.5784 0.99436 0.0
O20 O 1.00608 0.49507 0.03026 0.0
H21 H 0.0845 0.58412 0.12894 0.0
H22 H 0.10157 0.56432 0.93576 0.0
Cu23 Cu 0.544 0.56859 0.04149 0.0
N24 N 0.54372 0.58384 0.9968 0.0
N25 N 0.55908 0.60118 0.94302 0.0
C26 C 0.55926 0.58483 0.96915 0.0
C27 C 0.54229 0.61038 0.95423 0.0
C28 C 0.53285 0.59966 0.98725 0.0
O29 O 0.57907 0.59674 0.06654 0.0
C30 C 0.50804 0.51438 0.01841 0.0
O31 O 0.49375 0.52696 1.01355 0.0
H32 H 0.57215 0.57547 0.96936 0.0
H33 H 0.52035 0.60457 1.0039 0.0
N34 N 0.51712 0.56505 0.07402 0.0
N35 N 0.49156 0.55033 0.12271 0.0
C36 C 0.50865 0.54701 0.10102 0.0
C37 C 0.50516 0.5806 0.07931 0.0
C38 C 0.48932 0.57148 0.1092 0.0
C39 C 0.6008 0.61572 0.0521 0.0
O40 O 0.6046 0.61325 0.01841 0.0
H41 H 0.5156 0.53226 0.10535 0.0
H42 H 0.50848 0.59801 0.06349 0.0
O43 O 0.53283 0.5289 0.03095 0.0
H44 H 0.53863 0.62529 0.94058 0.0
H45 H 0.47762 0.58014 0.12066 0.0
Cu46 Cu 0.51154 0.03874 1.00674 0.0
N47 N 0.4928 0.0162 0.96707 0.0
N48 N 0.46764 1.00366 0.91685 0.0
C49 C 0.47657 0.02108 0.94528 0.0
C50 C 0.47857 0.98707 0.92052 0.0
C51 C 0.49446 0.99512 0.95145 0.0
O52 O 0.48609 0.04995 0.02791 0.0
C53 C 0.57117 0.07833 1.00662 0.0
O54 O 0.5705 0.08188 0.0409 0.0
H55 H 0.47182 0.0375 0.9498 0.0
H56 H 0.50713 0.98689 0.96086 0.0
N57 N 0.51812 0.01984 0.04249 0.0
N58 N 0.53884 0.01833 0.0925 0.0
C59 C 0.52889 0.03209 0.0742 0.0
C60 C 0.52041 0.99682 0.04128 0.0
C61 C 0.5333 0.99587 0.07228 0.0
C62 C 0.46149 0.03003 0.03295 0.0
O63 O 0.45533 1.00482 0.02272 0.0
H64 H 0.5317 0.05212 0.08236 0.0
H65 H 0.51533 0.98299 0.01857 0.0
O66 O 0.54858 0.06529 0.98849 0.0
H67 H 0.47591 0.97098 0.90171 0.0
H68 H 0.54022 0.9813 0.07817 0.0
Cu69 Cu 0.53122 0.04457 0.53167 0.0
N70 N 0.53047 0.03103 0.48568 0.0
N71 N 0.5463 0.02865 0.43267 0.0
C72 C 0.55241 0.04167 0.46466 0.0
C73 C 0.51954 0.00902 0.43337 0.0
C74 C 0.50976 0.01055 0.46619 0.0
O75 O 0.56575 0.0492 0.55389 0.0
C76 C 0.50163 0.07018 0.5111 0.0
O77 O 0.48536 0.04437 0.50022 0.0
H78 H 0.57244 0.05875 0.47257 0.0
H79 H 0.48898 0.99784 0.47497 0.0
N80 N 0.50187 0.02005 0.55933 0.0
N81 N 0.46918 1.00782 0.59938 0.0
C82 C 0.4926 0.02862 0.58669 0.0
C83 C 0.48385 0.99267 0.55497 0.0
C84 C 0.46354 0.98507 0.57968 0.0
C85 C 0.56894 0.02785 0.55195 0.0
O86 O 0.54899 1.00484 0.53725 0.0
H87 H 0.50224 0.04995 0.59624 0.0
H88 H 0.48483 0.97939 0.53455 0.0
O89 O 0.52489 0.07655 0.52592 0.0
H90 H 0.50796 0.99476 0.41166 0.0
H91 H 0.44558 0.96473 0.58224 0.0
Cu92 Cu 0.05921 0.57009 0.53203 0.0
N93 N 0.078 0.56552 0.57196 0.0
N94 N 0.07937 0.54075 0.61848 0.0
C95 C 0.07256 0.54023 0.5837 0.0
C96 C 0.0898 0.56746 0.62913 0.0
C97 C 0.08878 0.58247 0.60087 0.0
O98 O 0.03244 0.53053 0.51969 0.0
C99 C 0.06854 0.62318 0.54911 0.0
O100 O 0.09348 0.62682 0.54962 0.0
H101 H 0.06102 0.52116 0.56834 0.0
H102 H 0.09288 0.60356 0.60301 0.0
N103 N 0.07741 0.58656 0.48987 0.0
N104 N 0.08008 0.60919 0.43977 0.0
C105 C 0.06338 0.59023 0.46296 0.0
C106 C 0.10411 0.60349 0.483 0.0
C107 C 0.10579 0.6174 0.45201 0.0
C108 C 0.03958 0.51783 0.49727 0.0
O109 O 0.05993 0.53262 0.47627 0.0
H110 H 0.04125 0.58098 0.46214 0.0
H111 H 0.12103 0.60733 0.50074 0.0
O112 O 0.0483 0.59813 0.54479 0.0
H113 H 0.0959 0.57518 0.65616 0.0
H114 H 0.12438 0.6335 0.44054 0.0
Cu115 Cu 0.51844 0.57238 0.54939 0.0
N116 N 0.53781 0.60593 0.52626 0.0
N117 N 0.57534 0.6399 0.50211 0.0
C118 C 0.56539 0.62139 0.52819 0.0
C119 C 0.5531 0.63657 0.48353 0.0
C120 C 0.52987 0.61561 0.49865 0.0
O121 O 0.54144 0.57742 0.59178 0.0
C122 C 0.51276 0.54586 0.48108 0.0
O123 O 0.53503 0.56867 0.47247 0.0
H124 H 0.5781 0.61767 0.54656 0.0
H125 H 0.50899 0.60648 0.48838 0.0
N126 N 0.48548 0.56673 0.56722 0.0
N127 N 0.44322 0.54131 0.58752 0.0
C128 C 0.46299 0.54137 0.56795 0.0
C129 C 0.47979 0.5834 0.58722 0.0
C130 C 0.45349 0.56764 0.59983 0.0
C131 C 0.5612 0.57293 0.59794 0.0
O132 O 0.56623 0.55806 0.57514 0.0
H133 H 0.46164 0.52292 0.55588 0.0
H134 H 0.4942 0.605 0.59368 0.0
O135 O 0.50621 0.54172 0.51366 0.0
H136 H 0.55375 0.64755 0.45976 0.0
H137 H 0.44315 0.57463 0.61762 0.0
Cu138 Cu 0.67882 0.87554 0.36992 0.0
N139 N 0.65539 0.88542 0.34814 0.0
N140 N 0.64269 0.91334 0.32365 0.0
C141 C 0.66328 0.91155 0.33928 0.0
C142 C 0.6208 0.88742 0.32233 0.0
C143 C 0.62876 0.87003 0.33779 0.0
O144 O 0.69326 0.89905 0.41569 0.0
C145 C 0.69752 0.87324 0.29798 0.0
O146 O 0.68358 0.8853 0.28826 0.0
H147 H 0.68394 0.92886 0.34356 0.0
H148 H 0.61627 0.84781 0.34081 0.0
N149 N 0.65894 0.83901 0.38419 0.0
N150 N 0.65982 0.79972 0.39114 0.0
C151 C 0.66258 0.81931 0.36842 0.0
C152 C 0.65186 0.83063 0.41758 0.0
C153 C 0.65239 0.80627 0.42195 0.0
C154 C 0.67805 0.90691 0.43191 0.0
O155 O 0.65486 0.90159 0.41621 0.0
H156 H 0.67224 0.82197 0.34314 0.0
H157 H 0.65103 0.84349 0.43869 0.0
O158 O 0.70209 0.87218 0.33143 0.0
H159 H 0.60094 0.88156 0.31039 0.0
H160 H 0.65168 0.7967 0.447 0.0
Cu161 Cu 0.21827 0.90809 0.36782 0.0
N162 N 0.21416 0.87432 0.35082 0.0
N163 N 0.18953 0.83096 0.32833 0.0
C164 C 0.18949 0.85427 0.33823 0.0
C165 C 0.21554 0.83649 0.33453 0.0
C166 C 0.23077 0.86338 0.34865 0.0
O167 O 0.18569 0.8946 0.39978 0.0
C168 C 0.21666 0.92086 0.2924 0.0
O169 O 0.19643 0.89536 0.28692 0.0
H170 H 0.17163 0.85679 0.33629 0.0
H171 H 0.25222 0.87403 0.35689 0.0
N172 N 0.25111 0.93176 0.39429 0.0
N173 N 0.28767 0.972 0.41408 0.0
C174 C 0.26603 0.95973 0.39081 0.0
C175 C 0.26388 0.92621 0.42076 0.0
C176 C 0.28637 0.95094 0.433 0.0
C177 C 0.18197 0.87543 0.42178 0.0
O178 O 0.20025 0.86732 0.42336 0.0
H179 H 0.26084 0.97102 0.37197 0.0
H180 H 0.25714 0.90572 0.43085 0.0
O181 O 0.22386 0.9303 0.32431 0.0
H182 H 0.2229 0.82216 0.32932 0.0
H183 H 0.3005 0.95332 0.45441 0.0
Cu184 Cu 0.20267 0.41571 0.36522 0.0
N185 N 0.19727 0.43206 0.32514 0.0
N186 N 0.17534 0.43237 0.27535 0.0
C187 C 0.17869 0.41661 0.29947 0.0
C188 C 0.19263 0.45893 0.28597 0.0
C189 C 0.20627 0.4587 0.3168 0.0
O190 O 0.16521 0.38777 0.37813 0.0
C191 C 0.2547 0.42672 0.3493 0.0
O192 O 0.25731 0.45154 0.34891 0.0
H193 H 0.16658 0.39416 0.29965 0.0
H194 H 0.22062 0.47657 0.3328 0.0
N195 N 0.21664 0.43746 0.40659 0.0
N196 N 0.23343 0.44462 0.46208 0.0
C197 C 0.22183 0.4263 0.43493 0.0
C198 C 0.22484 0.46397 0.41629 0.0
C199 C 0.2353 0.46847 0.45088 0.0
C200 C 0.15089 0.3992 0.38557 0.0
O201 O 0.1624 0.42633 0.38392 0.0
H202 H 0.218 0.40517 0.43518 0.0
H203 H 0.22402 0.47906 0.39931 0.0
O204 O 0.23095 0.40569 0.35465 0.0
H205 H 0.19411 0.47703 0.27347 0.0
H206 H 0.24457 0.48788 0.46597 0.0
Cu207 Cu 0.19749 0.3599 0.88993 0.0
N208 N 0.192 0.33743 0.84998 0.0
N209 N 0.20045 0.3299 0.7948 0.0
C210 C 0.20625 0.34887 0.82079 0.0
C211 C 0.18172 0.30528 0.8078 0.0
C212 C 0.17637 0.31003 0.84213 0.0
O213 O 0.23686 0.37311 0.90499 0.0
C214 C 0.15936 0.37191 0.85966 0.0
O215 O 0.14585 0.34465 0.86026 0.0
H216 H 0.22104 0.37079 0.81884 0.0
H217 H 0.16236 0.29461 0.85996 0.0
N218 N 0.17424 0.34235 0.92792 0.0
N219 N 0.14624 0.33811 0.97193 0.0
C220 C 0.16609 0.35572 0.95049 0.0
C221 C 0.15924 0.31528 0.93584 0.0
C222 C 0.14183 0.3126 0.96293 0.0
C223 C 0.24476 0.35491 0.90479 0.0
O224 O 0.22644 0.32913 0.89597 0.0
H225 H 0.17361 0.37783 0.95005 0.0
H226 H 0.16004 0.29855 0.92205 0.0
O227 O 0.18434 0.38501 0.87189 0.0
H228 H 0.17285 0.28548 0.79367 0.0
H229 H 0.12646 0.29339 0.97425 0.0
Cu230 Cu 0.71007 0.89232 0.87311 0.0
N231 N 0.72804 0.87499 0.8524 0.0
N232 N 0.72871 0.83849 0.82719 0.0
C233 C 0.71526 0.84704 0.84859 0.0
C234 C 0.75103 0.86203 0.817 0.0
C235 C 0.75056 0.88458 0.83258 0.0
O236 O 0.69254 0.86602 0.91407 0.0
C237 C 0.70925 0.92002 0.81056 0.0
O238 O 0.73476 0.93504 0.82238 0.0
H239 H 0.69543 0.83319 0.85953 0.0
H240 H 0.76469 0.90631 0.82805 0.0
N241 N 0.73221 0.92812 0.89368 0.0
N242 N 0.74216 0.97004 0.9153 0.0
C243 C 0.72325 0.94641 0.8984 0.0
C244 C 0.75784 0.94072 0.90801 0.0
C245 C 0.76401 0.96662 0.92146 0.0
C246 C 0.69793 0.87352 0.94713 0.0
O247 O 0.70758 0.89982 0.95561 0.0
H248 H 0.70297 0.94223 0.89014 0.0
H249 H 0.77087 0.93156 0.9092 0.0
O250 O 0.69257 0.89941 0.82965 0.0
H251 H 0.76585 0.86287 0.79838 0.0
H252 H 0.78288 0.98162 0.93509 0.0
Cu253 Cu 0.17132 0.87445 0.85796 0.0
N254 N 0.15428 0.88075 0.81837 0.0
N255 N 0.13394 0.87238 0.76448 0.0
C256 C 0.14503 0.86361 0.7895 0.0
C257 C 0.1361 0.89602 0.77797 0.0
C258 C 0.14859 0.9011 0.81139 0.0
O259 O 0.1474 0.8348 0.86779 0.0
C260 C 0.21925 0.89349 0.81525 0.0
O261 O 0.20237 0.88293 0.78778 0.0
H262 H 0.14692 0.84523 0.78658 0.0
H263 H 0.15344 0.91851 0.82911 0.0
N264 N 0.17398 0.89456 0.90013 0.0
N265 N 0.19321 0.91703 0.9519 0.0
C266 C 0.19769 0.91122 0.91856 0.0
C267 C 0.15393 0.88996 0.92281 0.0
C268 C 0.16569 0.90372 0.95457 0.0
C269 C 0.12196 0.82755 0.86954 0.0
O270 O 0.11468 0.84631 0.8642 0.0
H271 H 0.21787 0.91765 0.90852 0.0
H272 H 0.13225 0.87629 0.91772 0.0
O273 O 0.20987 0.88799 0.84644 0.0
H274 H 0.12948 0.90882 0.76444 0.0
H275 H 0.15491 0.90333 0.97824 0.0
Cu276 Cu 0.3661 0.22725 0.70349 0.0
N277 N 0.34034 0.23537 0.68293 0.0
N278 N 0.3224 0.26004 0.66028 0.0
C279 C 0.34376 0.26098 0.67846 0.0
C280 C 0.30479 0.23285 0.65318 0.0
C281 C 0.3159 0.21767 0.66724 0.0
O282 O 0.38331 0.25422 0.74522 0.0
C283 C 0.38657 0.2297 0.63147 0.0
O284 O 0.37735 0.24669 0.62446 0.0
H285 H 0.36192 0.27998 0.68739 0.0
H286 H 0.30715 0.19537 0.66534 0.0
N287 N 0.34878 0.19098 0.72107 0.0
N288 N 0.34265 0.14886 0.73317 0.0
C289 C 0.35856 0.1733 0.71743 0.0
C290 C 0.32563 0.17702 0.7395 0.0
C291 C 0.32192 0.15109 0.74725 0.0
C292 C 0.36698 0.25497 0.7683 0.0
O293 O 0.3405 0.23801 0.76327 0.0
H294 H 0.37729 0.1784 0.70396 0.0
H295 H 0.31237 0.18504 0.7469 0.0
O296 O 0.38781 0.2236 0.66392 0.0
H297 H 0.28557 0.22468 0.63828 0.0
H298 H 0.30539 0.13516 0.76213 0.0
Cu299 Cu 0.8754 0.20993 0.70209 0.0
N300 N 0.89787 0.2113 0.66387 0.0
N301 N 0.91785 0.23351 0.61361 0.0
C302 C 0.915 0.23596 0.64879 0.0
C303 C 0.90267 0.2061 0.60613 0.0
C304 C 0.89054 0.1926 0.63669 0.0
O305 O 0.89331 0.25093 0.71385 0.0
C306 C 0.83196 0.15712 0.68356 0.0
O307 O 0.85259 0.15308 0.69082 0.0
H308 H 0.92236 0.25587 0.66198 0.0
H309 H 0.87473 0.17111 0.63704 0.0
N310 N 0.87353 0.19382 0.74646 0.0
N311 N 0.85041 0.17483 0.79588 0.0
C312 C 0.85513 0.1929 0.76982 0.0
C313 C 0.88123 0.17597 0.7587 0.0
C314 C 0.86692 0.16421 0.78927 0.0
C315 C 0.9151 0.26114 0.73419 0.0
O316 O 0.91986 0.24378 0.75202 0.0
H317 H 0.84365 0.20359 0.76605 0.0
H318 H 0.89441 0.17018 0.74494 0.0
O319 O 0.83682 0.18249 0.68509 0.0
H320 H 0.89869 0.19676 0.57976 0.0
H321 H 0.86748 0.14805 0.80433 0.0
Cu322 Cu 0.86677 0.72344 0.67895 0.0
N323 N 0.86246 0.747 0.64838 0.0
N324 N 0.8445 0.75652 0.60131 0.0
C325 C 0.84574 0.73661 0.6196 0.0
C326 C 0.86113 0.78061 0.61907 0.0
C327 C 0.87237 0.77466 0.6483 0.0
O328 O 0.82811 0.69502 0.68744 0.0
C329 C 0.91628 0.73634 0.65189 0.0
O330 O 0.91998 0.76039 0.66352 0.0
H331 H 0.83405 0.71466 0.61269 0.0
H332 H 0.88635 0.78932 0.66817 0.0
N333 N 0.88431 0.7393 0.72236 0.0
N334 N 0.9058 0.74115 0.77331 0.0
C335 C 0.89436 0.72674 0.74297 0.0
C336 C 0.88967 0.76271 0.74025 0.0
C337 C 0.90309 0.76393 0.77194 0.0
C338 C 0.8173 0.69193 0.71786 0.0
O339 O 0.83335 0.70043 0.74632 0.0
H340 H 0.89288 0.70705 0.73607 0.0
H341 H 0.88393 0.77754 0.73125 0.0
O342 O 0.8925 0.71473 0.65496 0.0
H343 H 0.86434 0.80079 0.61187 0.0
H344 H 0.90987 0.77989 0.79256 0.0
Cu345 Cu 0.86123 0.7088 0.19452 0.0
N346 N 0.85949 0.69098 0.15124 0.0
N347 N 0.87539 0.68272 0.10147 0.0
C348 C 0.88015 0.70101 0.12818 0.0
C349 C 0.85075 0.66034 0.10759 0.0
C350 C 0.84093 0.66549 0.13847 0.0
O351 O 0.8988 0.71963 0.21408 0.0
C352 C 0.82455 0.72673 0.17148 0.0
O353 O 0.81019 0.69996 0.16399 0.0
H354 H 0.89882 0.72088 0.13168 0.0
H355 H 0.82211 0.65131 0.15129 0.0
N356 N 0.83626 0.68508 0.22765 0.0
N357 N 0.80944 0.67305 0.27477 0.0
C358 C 0.82549 0.69369 0.25312 0.0
C359 C 0.82676 0.65794 0.23363 0.0
C360 C 0.81017 0.65045 0.26285 0.0
C361 C 0.90505 0.70023 0.21384 0.0
O362 O 0.88637 0.67543 0.20192 0.0
H363 H 0.82979 0.71486 0.25628 0.0
H364 H 0.83182 0.64464 0.21824 0.0
O365 O 0.84909 0.73659 0.18458 0.0
H366 H 0.84092 0.64149 0.09134 0.0
H367 H 0.79957 0.63014 0.2745 0.0
Cu368 Cu 0.38558 0.24165 0.20508 0.0
N369 N 0.35829 0.20695 0.18796 0.0
N370 N 0.33982 0.16297 0.16878 0.0
C371 C 0.36116 0.18433 0.18625 0.0
C372 C 0.3227 0.17234 0.15928 0.0
C373 C 0.33415 0.19956 0.17129 0.0
O374 O 0.40371 0.23359 0.24639 0.0
C375 C 0.39112 0.26889 0.14018 0.0
O376 O 0.36585 0.26177 0.14813 0.0
H377 H 0.37894 0.18377 0.19666 0.0
H378 H 0.32576 0.21314 0.16742 0.0
N379 N 0.37115 0.26267 0.22382 0.0
N380 N 0.3711 0.30099 0.24185 0.0
C381 C 0.38528 0.29059 0.22572 0.0
C382 C 0.34698 0.25503 0.23901 0.0
C383 C 0.34694 0.2788 0.25036 0.0
C384 C 0.3878 0.21778 0.27059 0.0
O385 O 0.3613 0.20825 0.26667 0.0
H386 H 0.40604 0.30304 0.2167 0.0
H387 H 0.33084 0.23378 0.24226 0.0
O388 O 0.40512 0.2625 0.16168 0.0
H389 H 0.3035 0.1604 0.14446 0.0
H390 H 0.33081 0.27976 0.26444 0.0
Cu391 Cu 0.8486 0.22782 0.20856 0.0
N392 N 0.83178 0.23606 0.17095 0.0
N393 N 0.80625 0.22482 0.12094 0.0
C394 C 0.82255 0.21945 0.14177 0.0
C395 C 0.80532 0.24611 0.13718 0.0
C396 C 0.82106 0.25295 0.16837 0.0
O397 O 0.82327 0.18778 0.215 0.0
C398 C 0.89748 0.2503 0.1669 0.0
O399 O 0.88105 0.24415 0.13903 0.0
H400 H 0.82697 0.20293 0.13652 0.0
H401 H 0.82316 0.26791 0.18859 0.0
N402 N 0.85146 0.24628 0.25194 0.0
N403 N 0.87238 0.26806 0.30318 0.0
C404 C 0.87558 0.26408 0.2686 0.0
C405 C 0.83241 0.239 0.27703 0.0
C406 C 0.84525 0.25243 0.30857 0.0
C407 C 0.79791 0.18102 0.2166 0.0
O408 O 0.79125 0.20049 0.21486 0.0
H409 H 0.89535 0.27238 0.25637 0.0
H410 H 0.811 0.22347 0.27369 0.0
O411 O 0.88724 0.24102 0.19701 0.0
H412 H 0.79319 0.25511 0.12801 0.0
H413 H 0.83564 0.24994 0.3339 0.0
Co414 Co 0.04462 0.67703 0.27241 0.0
O415 O 0.06829 0.66445 0.29308 0.0
O416 O 0.03494 0.66555 0.3213 0.0
C417 C 0.03805 0.65162 0.22127 0.0
O418 O 0.01471 0.68768 0.25986 0.0
Co419 Co 0.05812 0.70984 0.20397 0.0
O420 O 0.02103 0.70571 0.20565 0.0
C421 C 0.09195 0.73525 0.26934 0.0
C422 C 0.05434 0.65921 0.32171 0.0
C423 C 1.00704 0.69736 0.23357 0.0
O424 O 0.07243 0.71667 0.28776 0.0
O425 O 0.09134 0.73409 0.23538 0.0
O426 O 0.02292 0.6405 0.24859 0.0
O427 O 0.05619 0.67757 0.22567 0.0
Co428 Co 0.42095 0.47066 0.30287 0.0
O429 O 0.45457 0.48618 0.27576 0.0
O430 O 0.41653 0.48511 0.258 0.0
C431 C 0.44287 0.49119 0.35582 0.0
O432 O 0.38216 0.4581 0.32145 0.0
Co433 Co 0.40783 0.43247 0.36689 0.0
O434 O 0.37153 0.42997 0.36773 0.0
C435 C 0.40447 0.40991 0.29433 0.0
C436 C 0.44179 0.49224 0.25156 0.0
C437 C 0.36506 0.44245 0.34482 0.0
O438 O 0.40797 0.43252 0.28039 0.0
O439 O 0.406 0.40709 0.32772 0.0
O440 O 0.43697 0.50483 0.33286 0.0
O441 O 0.43607 0.46621 0.34608 0.0
Co442 Co 0.63601 0.05333 0.26012 0.0
O443 O 0.60251 0.03138 0.28511 0.0
O444 O 0.63941 0.06817 0.30811 0.0
C445 C 0.61391 0.05496 0.21054 0.0
O446 O 0.67426 0.08156 0.24228 0.0
Co447 Co 0.64762 0.03079 0.19111 0.0
O448 O 0.68426 0.06455 0.1939 0.0
C449 C 0.65189 0.00892 0.26003 0.0
C450 C 0.61424 0.04822 0.31198 0.0
C451 C 0.69097 0.08323 0.21802 0.0
O452 O 0.65019 0.02842 0.27627 0.0
O453 O 0.64715 1.00424 0.22665 0.0
O454 O 0.61937 0.07275 0.23647 0.0
O455 O 0.62096 0.03651 0.21579 0.0
Co456 Co 0.04688 0.41905 0.7598 0.0
O457 O 0.03144 0.43716 0.73084 0.0
O458 O 0.07413 0.4463 0.72879 0.0
C459 C 1.01032 0.37443 0.74991 0.0
O460 O 0.07224 0.40637 0.78394 0.0
Co461 Co 0.02096 0.38559 0.826 0.0
O462 O 0.05263 0.37923 0.83031 0.0
C463 C 0.04732 0.44689 0.82991 0.0
C464 C 0.05551 0.45178 0.71722 0.0
C465 C 0.07293 0.39186 0.81012 0.0
O466 O 0.05681 0.44851 0.79863 0.0
O467 O 0.03106 0.42381 0.84427 0.0
O468 O 0.03004 0.38609 0.72749 0.0
O469 O 0.01277 0.39003 0.77705 0.0
Co470 Co 0.66077 0.67425 0.78092 0.0
O471 O 0.62772 0.66645 0.80581 0.0
O472 O 0.65036 0.64409 0.81441 0.0
C473 C 0.68213 0.72159 0.79012 0.0
O474 O 0.69667 0.67768 0.7618 0.0
Co475 Co 0.67658 0.70891 0.71322 0.0
O476 O 0.71037 0.70625 0.71539 0.0
C477 C 0.63318 0.64998 0.7078 0.0
C478 C 0.63023 0.64795 0.8234 0.0
C479 C 0.714 0.69106 0.7373 0.0
O480 O 0.63793 0.64678 0.74058 0.0
O481 O 0.64501 0.67359 0.69296 0.0
O482 O 0.68271 0.70542 0.81412 0.0
O483 O 0.66702 0.70858 0.76236 0.0
Co484 Co 0.37633 0.02402 0.74683 0.0
O485 O 0.4106 0.04328 0.72201 0.0
O486 O 0.37929 0.99892 0.71347 0.0
C487 C 0.3651 0.05801 0.74128 0.0
O488 O 0.33849 0.99649 0.76557 0.0
Co489 Co 0.36604 0.04712 0.81663 0.0
O490 O 0.32934 0.01316 0.81494 0.0
C491 C 0.40157 0.0221 0.81783 0.0
C492 C 0.40287 0.01983 0.70529 0.0
C493 C 0.32285 0.99408 0.79145 0.0
O494 O 0.39485 0.01372 0.78533 0.0
O495 O 0.39401 0.03741 0.83409 0.0
O496 O 0.35993 0.04014 0.71552 0.0
O497 O 0.37818 0.05581 0.76834 0.0
Co498 Co 0.69628 0.9902 0.62326 0.0
O499 O 0.71498 0.97393 0.6501 0.0
O500 O 0.68175 0.97861 0.67118 0.0
C501 C 0.69177 0.96555 0.5703 0.0
O502 O 0.66947 1.00347 0.60558 0.0
Co503 Co 0.7168 0.02461 0.55596 0.0
O504 O 0.67976 0.02058 0.55102 0.0
C505 C 0.74097 0.05253 0.62561 0.0
C506 C 0.69886 0.96965 0.67648 0.0
C507 C 0.66418 0.01343 0.57755 0.0
O508 O 0.72389 0.03001 0.64165 0.0
O509 O 0.74227 0.05377 0.59177 0.0
O510 O 0.6751 0.95439 0.59633 0.0
O511 O 0.71113 0.99068 0.57754 0.0
Co512 Co 0.08032 0.78626 0.57945 0.0
O513 O 0.11633 0.80638 0.55781 0.0
O514 O 0.07765 0.79597 0.53009 0.0
C515 C 0.09388 0.81302 0.63048 0.0
O516 O 0.03936 0.76722 0.59302 0.0
Co517 Co 0.07124 0.75563 0.65021 0.0
O518 O 0.03568 0.75487 0.65 0.0
C519 C 0.07236 0.72725 0.58362 0.0
C520 C 0.10436 0.80866 0.52944 0.0
C521 C 0.0252 0.75782 0.62138 0.0
O522 O 0.07553 0.74815 0.56505 0.0
O523 O 0.07158 0.72712 0.61749 0.0
O524 O 0.0869 0.82124 0.6022 0.0
O525 O 0.09421 0.79005 0.62672 0.0
Co526 Co 0.28943 0.39204 0.62317 0.0
O527 O 0.2537 0.36337 0.63754 0.0
O528 O 0.28664 0.39415 0.67387 0.0
C529 C 0.27492 0.40738 0.57645 0.0
O530 O 0.32789 0.42566 0.61884 0.0
Co531 Co 0.31267 0.38696 0.55367 0.0
O532 O 0.3453 0.42349 0.5666 0.0
C533 C 0.3082 0.3497 0.60912 0.0
C534 C 0.26206 0.37282 0.66969 0.0
C535 C 0.34681 0.43587 0.59578 0.0
O536 O 0.30395 0.36541 0.63028 0.0
O537 O 0.30961 0.35295 0.57566 0.0
O538 O 0.27471 0.41565 0.60873 0.0
O539 O 0.28101 0.38774 0.57345 0.0
Co540 Co 0.70443 0.77814 0.11103 0.0
O541 O 0.68046 0.78874 0.08457 0.0
O542 O 0.72473 0.80877 0.07828 0.0
C543 C 0.67647 0.73074 0.10004 0.0
O544 O 0.73708 0.7731 0.12942 0.0
Co545 Co 0.68857 0.74168 0.17604 0.0
O546 O 0.72272 0.74006 0.17027 0.0
C547 C 0.70126 0.79982 0.18638 0.0
C548 C 0.70168 0.80674 0.06753 0.0
C549 C 0.74124 0.75691 0.15002 0.0
O550 O 0.70898 0.80474 0.15357 0.0
O551 O 0.69083 0.77553 0.19925 0.0
O552 O 0.69364 0.74687 0.07687 0.0
O553 O 0.67574 0.74358 0.12851 0.0
Co554 Co 0.30864 0.00885 0.12503 0.0
O555 O 0.27564 0.99675 0.15245 0.0
O556 O 0.30242 0.97874 0.15721 0.0
C557 C 0.32426 0.05458 0.13669 0.0
O558 O 0.34604 0.01716 0.10313 0.0
Co559 Co 0.32165 0.04561 0.06016 0.0
O560 O 0.35664 0.04565 0.05721 0.0
C561 C 0.27695 0.98735 0.05484 0.0
C562 C 0.28127 0.97983 0.16881 0.0
C563 C 0.36261 0.03164 0.07824 0.0
O564 O 0.28524 0.98207 0.08446 0.0
O565 O 0.28735 0.01183 0.04268 0.0
O566 O 0.32889 0.03974 0.15901 0.0
O567 O 0.30975 0.04148 0.10876 0.0
Co568 Co 0.05617 0.37489 0.10204 0.0
O569 O 0.08883 0.39074 0.07344 0.0
O570 O 0.06226 0.3459 0.0828 0.0
C571 C 0.03832 0.40036 0.07917 0.0
O572 O 0.02005 0.34941 0.12676 0.0
Co573 Co 0.04243 0.40835 0.15564 0.0
O574 O 1.00766 0.37328 0.16314 0.0
C575 C 0.08827 0.39863 0.17132 0.0
C576 C 0.08355 0.36542 0.06756 0.0
C577 C 1.00302 0.3506 0.14821 0.0
O578 O 0.07969 0.37979 0.14631 0.0
O579 O 0.07778 0.41409 0.17675 0.0
O580 O 0.03488 0.37822 0.0623 0.0
O581 O 0.05361 0.40725 0.10754 0.0
Co582 Co 0.39075 0.34169 0.95625 0.0
O583 O 0.41292 0.32741 0.97908 0.0
O584 O 0.37886 0.329 1.00429 0.0
C585 C 0.38448 0.31867 0.90196 0.0
O586 O 0.36091 0.35248 0.94391 0.0
Co587 Co 0.40545 0.37803 0.89188 0.0
O588 O 0.36747 0.37211 0.89104 0.0
C589 C 0.43473 0.404 0.95971 0.0
C590 C 0.39784 0.32228 1.00682 0.0
C591 C 0.3529 0.36232 0.91824 0.0
O592 O 0.41819 0.38113 0.97528 0.0
O593 O 0.43405 0.40631 0.92605 0.0
O594 O 0.36937 0.30623 0.92886 0.0
O595 O 0.40362 0.34406 0.90873 0.0
Co596 Co 0.74008 0.12196 0.95228 0.0
O597 O 0.77739 0.13561 0.9373 0.0
O598 O 0.74346 0.12968 0.90159 0.0
C599 C 0.7521 0.15044 1.00148 0.0
O600 O 0.6988 0.10955 0.95845 0.0
Co601 Co 0.72071 0.09145 0.02162 0.0
O602 O 0.68573 0.0911 1.01225 0.0
C603 C 0.732 0.06404 0.96279 0.0
C604 C 0.76938 0.13738 0.9056 0.0
C605 C 0.68079 0.09916 0.98305 0.0
O606 O 0.73195 0.08235 0.94218 0.0
O607 O 0.73039 0.06545 0.99645 0.0
O608 O 0.74995 0.15905 0.97044 0.0
O609 O 0.7491 0.12576 1.00163 0.0
Co610 Co 0.96756 0.69627 0.93522 0.0
O611 O 0.93238 0.67818 0.95768 0.0
O612 O 0.97131 0.70956 0.98411 0.0
C613 C 0.95195 0.70663 0.88496 0.0
O614 O 1.00757 0.72128 0.92038 0.0
Co615 Co 0.97728 0.67227 0.86797 0.0
O616 O 0.01316 0.70698 0.86685 0.0
C617 C 0.97697 0.64624 0.93446 0.0
C618 C 0.94491 0.69309 0.9858 0.0
C619 C 0.02205 0.72421 0.89291 0.0
O620 O 0.97463 0.66546 0.95075 0.0
O621 O 0.97656 0.64402 0.90072 0.0
O622 O 0.9587 0.72232 0.91333 0.0
O623 O 0.95268 0.68377 0.88828 0.0
Co624 Co 0.39726 0.13706 0.44479 0.0
O625 O 0.3769 0.15008 0.41518 0.0
O626 O 0.42133 0.16682 0.41302 0.0
C627 C 0.36687 0.09023 0.43426 0.0
O628 O 0.4266 0.129 0.46715 0.0
Co629 Co 0.37529 0.10048 0.51022 0.0
O630 O 0.40712 0.09459 0.50593 0.0
C631 C 0.39298 0.16029 0.51811 0.0
C632 C 0.39975 0.1667 0.39991 0.0
C633 C 0.42753 0.11093 0.48764 0.0
O634 O 0.40207 0.16454 0.48592 0.0
O635 O 0.38037 0.13612 0.5314 0.0
O636 O 0.38549 0.10497 0.41163 0.0
O637 O 0.36629 0.10424 0.4615 0.0
Co638 Co 0.99273 0.35495 0.47064 0.0
O639 O 0.96041 0.33812 0.50042 0.0
O640 O 0.99076 0.32435 0.49648 0.0
C641 C 1.0064 0.40022 0.48553 0.0
O642 O 0.02875 0.36441 0.44654 0.0
Co643 Co 1.0057 0.39513 0.40943 0.0
O644 O 0.04177 0.397 0.40559 0.0
C645 C 0.9608 0.33664 0.40126 0.0
C646 C 0.96846 0.32089 0.51049 0.0
C647 C 0.04602 0.38035 0.42378 0.0
O648 O 0.96942 0.32988 0.42932 0.0
O649 O 0.97112 0.36171 0.39111 0.0
O650 O 0.01268 0.38539 0.50599 0.0
O651 O 0.99198 0.38747 0.45744 0.0
Co652 Co 0.73605 0.71721 0.41802 0.0
O653 O 0.76635 0.72539 0.38776 0.0
O654 O 0.73558 0.68314 0.40422 0.0
C655 C 0.7204 0.74255 0.39141 0.0
O656 O 0.70092 0.70141 0.44691 0.0
Co657 Co 0.73786 0.76551 0.46362 0.0
O658 O 0.70087 0.7365 0.47762 0.0
C659 C 0.77273 0.74284 0.4846 0.0
C660 C 0.75689 0.69882 0.3855 0.0
C661 C 0.68912 0.71116 0.46709 0.0
O662 O 0.76 0.72253 0.46188 0.0
O663 O 0.76884 0.76355 0.48691 0.0
O664 O 0.71469 0.71871 0.37756 0.0
O665 O 0.73899 0.75204 0.41651 0.0
C666 C 0.99521 0.43448 0.06226 0.0
C667 C 0.01622 0.46201 0.05561 0.0
C668 C 0.05056 0.44695 0.05567 0.0
C669 C 0.02984 0.41978 0.06443 0.0
N670 N 0.98184 0.3856 0.06554 0.0
N671 N 0.06226 0.49307 0.03677 0.0
C672 C 1.00189 0.41283 0.06415 0.0
C673 C 0.04339 0.46774 0.04926 0.0
N674 N 0.9692 0.42934 0.06819 0.0
N675 N 0.07728 0.45298 0.05435 0.0
H676 H 0.05792 0.50897 0.0325 0.0
H677 H 0.0815 0.49774 0.02793 0.0
H678 H 0.08294 0.43775 0.05566 0.0
H679 H 0.09397 0.47304 0.05306 0.0
H680 H 0.95355 0.4105 0.07714 0.0
H681 H 0.96365 0.44459 0.06576 0.0
H682 H 0.96097 0.37876 0.06235 0.0
H683 H 0.98628 0.36951 0.06711 0.0
C684 C 0.60942 0.66276 0.0748 0.0
C685 C 0.61903 0.64356 0.07039 0.0
C686 C 0.66609 0.68113 0.087 0.0
C687 C 0.65643 0.70023 0.09206 0.0
N688 N 0.61799 0.70807 0.09564 0.0
N689 N 0.65545 0.63318 0.07736 0.0
C690 C 0.62778 0.69056 0.08778 0.0
C691 C 0.64711 0.65247 0.07799 0.0
N692 N 0.58309 0.65501 0.06428 0.0
N693 N 0.6936 0.69051 0.09059 0.0
H694 H 0.64202 0.61222 0.07112 0.0
H695 H 0.67488 0.63724 0.0856 0.0
H696 H 0.70759 0.71055 0.09975 0.0
H697 H 0.7028 0.67902 0.08327 0.0
H698 H 0.57572 0.6688 0.06208 0.0
H699 H 0.56884 0.63498 0.05526 0.0
H700 H 0.5972 0.70148 0.09778 0.0
H701 H 0.63062 0.72906 0.10222 0.0
C702 C 0.43469 0.05597 0.04251 0.0
C703 C 0.43919 0.03358 0.05014 0.0
C704 C 0.39355 0.00935 0.07743 0.0
C705 C 0.38994 0.03273 0.07253 0.0
N706 N 0.41354 0.08227 0.06191 0.0
N707 N 0.4266 0.99414 0.08736 0.0
C708 C 0.41253 0.05727 0.0587 0.0
C709 C 0.41981 0.01197 0.07164 0.0
N710 N 0.45034 0.07536 0.01848 0.0
N711 N 0.37186 0.98402 0.0853 0.0
H712 H 0.44618 0.99652 0.08592 0.0
H713 H 0.41401 0.97944 0.10543 0.0
H714 H 0.35179 0.98006 0.08706 0.0
H715 H 0.37337 0.96606 0.08587 0.0
H716 H 0.44578 0.09032 1.00956 0.0
H717 H 0.46598 0.07489 1.00471 0.0
H718 H 0.43061 0.10093 0.05491 0.0
H719 H 0.39911 0.08488 0.07571 0.0
C720 C 0.48545 0.09462 0.4702 0.0
C721 C 0.49147 0.0903 0.50545 0.0
C722 C 0.46382 0.1103 0.52736 0.0
C723 C 0.4534 0.10924 0.49237 0.0
N724 N 0.45566 0.10186 0.42967 0.0
N725 N 0.48743 0.09516 0.56807 0.0
C726 C 0.46508 0.10244 0.46344 0.0
C727 C 0.48139 0.09902 0.53419 0.0
N728 N 0.49943 0.09118 0.44317 0.0
N729 N 0.4572 0.12262 0.554 0.0
H730 H 0.50162 0.08883 0.57388 0.0
H731 H 0.47769 0.09719 0.59019 0.0
H732 H 0.44508 0.13172 0.54954 0.0
H733 H 0.4658 0.12631 0.57952 0.0
H734 H 0.49811 0.09619 0.41702 0.0
H735 H 0.51448 0.08571 0.4477 0.0
H736 H 0.46045 0.09349 0.40796 0.0
H737 H 0.442 0.10874 0.42332 0.0
C738 C 0.05033 0.47898 0.50266 0.0
C739 C 0.03016 0.48735 0.49963 0.0
C740 C 0.99424 0.43792 0.49575 0.0
C741 C 0.0147 0.43001 0.49338 0.0
N742 N 0.06253 0.44383 0.48935 0.0
N743 N 0.98276 0.47452 0.49012 0.0
C744 C 0.04282 0.45074 0.49578 0.0
C745 C 1.00201 0.46672 0.4957 0.0
N746 N 0.07675 0.49788 0.51294 0.0
N747 N 0.96735 0.41785 0.49893 0.0
H748 H 0.98762 0.49525 0.49005 0.0
H749 H 0.96237 0.4606 0.48293 0.0
H750 H 0.961 0.39672 0.49963 0.0
H751 H 0.95177 0.42222 0.50428 0.0
H752 H 0.09139 0.4923 0.51954 0.0
H753 H 0.08347 0.51876 0.51848 0.0
H754 H 0.08318 0.45847 0.48634 0.0
H755 H 0.05791 0.42356 0.48367 0.0
C756 C 0.61454 0.68652 0.49126 0.0
C757 C 0.60387 0.65763 0.49385 0.0
C758 C 0.65004 0.66454 0.48556 0.0
C759 C 0.65985 0.69278 0.47713 0.0
N760 N 0.64802 0.72859 0.46446 0.0
N761 N 0.61048 0.61827 0.48543 0.0
C762 C 0.6412 0.70329 0.47793 0.0
C763 C 0.62133 0.64634 0.48873 0.0
N764 N 0.59953 0.69816 0.5026 0.0
N765 N 0.66802 0.65528 0.49235 0.0
H766 H 0.58943 0.60435 0.48548 0.0
H767 H 0.62216 0.60916 0.47862 0.0
H768 H 0.68927 0.66832 0.49305 0.0
H769 H 0.66177 0.63545 0.5016 0.0
H770 H 0.60749 0.71959 0.50459 0.0
H771 H 0.58029 0.68656 0.51372 0.0
H772 H 0.63385 0.73535 0.46125 0.0
H773 H 0.66654 0.74161 0.45266 0.0
C774 C 1.0093 0.61735 0.99851 0.0
C775 C 0.99828 0.58989 0.9843 0.0
C776 C 0.96689 0.59761 0.94645 0.0
C777 C 0.98207 0.62651 0.95518 0.0
N778 N 0.02107 0.66446 0.98648 0.0
N779 N 0.9677 0.55452 0.94172 0.0
C780 C 1.00394 0.63656 0.98078 0.0
C781 C 0.97704 0.57995 0.95779 0.0
N782 N 0.02486 0.62515 0.02917 0.0
N783 N 0.9426 0.58697 0.92768 0.0
H784 H 0.97474 0.54103 0.94862 0.0
H785 H 0.95454 0.54775 0.91948 0.0
H786 H 0.93424 0.59922 0.91992 0.0
H787 H 0.92944 0.56573 0.92327 0.0
H788 H 0.0311 0.64402 0.04247 0.0
H789 H 0.0289 0.61159 0.04335 0.0
H790 H 0.03911 0.6726 1.00191 0.0
H791 H 0.01908 0.67967 0.97318 0.0
C792 C 0.46776 0.4664 0.02621 0.0
C793 C 0.49352 0.48348 1.01042 0.0
C794 C 0.48351 0.44414 0.96987 0.0
C795 C 0.45569 0.42943 0.98085 0.0
N796 N 0.42086 0.42866 0.01827 0.0
N797 N 0.52555 0.48869 0.96558 0.0
C798 C 0.44779 0.44088 1.00915 0.0
C799 C 0.5015 0.47221 0.98212 0.0
N800 N 0.46243 0.47465 0.05786 0.0
N801 N 0.49293 0.43102 0.9482 0.0
H802 H 0.53943 0.50894 0.97429 0.0
H803 H 0.53091 0.48286 0.94203 0.0
H804 H 0.48068 0.41032 0.93977 0.0
H805 H 0.5135 0.43959 0.94177 0.0
H806 H 0.44524 0.46206 0.07259 0.0
H807 H 0.47686 0.49287 0.07116 0.0
H808 H 0.4135 0.43789 0.03581 0.0
H809 H 0.40532 0.41052 1.00612 0.0
C810 C 0.60288 0.0624 0.98157 0.0
C811 C 0.59814 0.08456 0.99111 0.0
C812 C 0.64785 0.11781 0.98646 0.0
C813 C 0.65256 0.09552 0.97823 0.0
N814 N 0.63435 0.04809 0.95889 0.0
N815 N 0.61494 0.13367 0.99523 0.0
C816 C 0.62989 0.06832 0.97272 0.0
C817 C 0.62035 0.11241 0.99112 0.0
N818 N 0.582 0.03548 0.9833 0.0
N819 N 0.66985 0.144 0.99117 0.0
H820 H 0.59507 0.1302 0.9984 0.0
H821 H 0.62953 0.15454 0.99267 0.0
H822 H 0.68984 0.14879 0.98561 0.0
H823 H 0.66857 0.16075 1.00154 0.0
H824 H 0.58485 0.01839 0.9814 0.0
H825 H 0.56189 0.03002 0.989 0.0
H826 H 0.61866 0.02841 0.95085 0.0
H827 H 0.65389 0.05195 0.95227 0.0
C828 C 0.59147 1.00448 0.58413 0.0
C829 C 0.59448 0.02766 0.56478 0.0
C830 C 0.64421 0.04459 0.56309 0.0
C831 C 0.64027 0.01886 0.5762 0.0
N832 N 0.60814 0.97246 0.59475 0.0
N833 N 0.62425 0.0682 0.53148 0.0
C834 C 0.61338 0.99839 0.58589 0.0
C835 C 0.62104 0.04745 0.55335 0.0
N836 N 0.56769 0.98845 0.6015 0.0
N837 N 0.67015 0.06679 0.56089 0.0
H838 H 0.60814 0.07117 0.52334 0.0
H839 H 0.64258 0.08104 0.51893 0.0
H840 H 0.6876 0.06609 0.56893 0.0
H841 H 0.67411 0.08671 0.55494 0.0
H842 H 0.56518 0.97287 0.61868 0.0
H843 H 0.5517 0.99287 0.60187 0.0
H844 H 0.58835 0.95591 0.59824 0.0
H845 H 0.62308 0.9666 0.59522 0.0
C846 C 0.0863 0.67414 0.5363 0.0
C847 C 0.06573 0.64891 0.55162 0.0
C848 C 0.04464 0.67532 0.57494 0.0
C849 C 0.06817 0.70086 0.56627 0.0
N850 N 0.11284 0.7245 0.54064 0.0
N851 N 0.02674 0.62721 0.58997 0.0
C852 C 0.08926 0.70026 0.5471 0.0
C853 C 0.04498 0.64983 0.57171 0.0
N854 N 0.10274 0.67332 0.5106 0.0
N855 N 0.02177 0.6755 0.58615 0.0
H856 H 0.02673 0.60849 0.59005 0.0
H857 H 0.01325 0.62792 0.60797 0.0
H858 H 0.02074 0.69373 0.58743 0.0
H859 H 1.0031 0.65745 0.59002 0.0
H860 H 0.11596 0.69061 0.49619 0.0
H861 H 0.10083 0.65493 0.50042 0.0
H862 H 0.13038 0.72514 0.5309 0.0
H863 H 0.11563 0.74401 0.54739 0.0
C864 C 0.39303 0.51204 0.57884 0.0
C865 C 0.41772 0.51699 0.59586 0.0
C866 C 0.39464 0.4696 0.6184 0.0
C867 C 0.37001 0.4646 0.60098 0.0
N868 N 0.34356 0.48263 0.57286 0.0
N869 N 0.44119 0.50362 0.63793 0.0
C870 C 0.36851 0.48644 0.58395 0.0
C871 C 0.41817 0.49669 0.61776 0.0
N872 N 0.39347 0.53123 0.55621 0.0
N873 N 0.39574 0.44821 0.63432 0.0
H874 H 0.45847 0.52347 0.6379 0.0
H875 H 0.44242 0.4907 0.65669 0.0
H876 H 0.37852 0.42846 0.63626 0.0
H877 H 0.4138 0.44959 0.64416 0.0
H878 H 0.37691 0.52762 0.53973 0.0
H879 H 0.41118 0.55021 0.55214 0.0
H880 H 0.34073 0.4984 0.56277 0.0
H881 H 0.32523 0.46426 0.57699 0.0
C882 C 0.66024 0.75612 0.38071 0.0
C883 C 0.67463 0.78496 0.38811 0.0
C884 C 0.71824 0.78561 0.38424 0.0
C885 C 0.704 0.7562 0.38384 0.0
N886 N 0.66022 0.71282 0.38477 0.0
N887 N 0.71745 0.8271 0.40163 0.0
C888 C 0.67461 0.74109 0.38207 0.0
C889 C 0.70371 0.79975 0.39104 0.0
N890 N 0.63274 0.74314 0.3728 0.0
N891 N 0.74565 0.80003 0.37736 0.0
H892 H 0.70761 0.83824 0.40772 0.0
H893 H 0.73845 0.83801 0.40769 0.0
H894 H 0.75669 0.79017 0.37068 0.0
H895 H 0.75654 0.82147 0.37421 0.0
H896 H 0.62143 0.72262 0.36348 0.0
H897 H 0.62178 0.75375 0.37285 0.0
H898 H 0.63907 0.70162 0.38813 0.0
H899 H 0.6691 0.7004 0.38687 0.0
C900 C 0.3356 0.01193 0.4117 0.0
C901 C 0.30746 1.00157 0.41873 0.0
C902 C 0.31777 0.04952 0.43174 0.0
C903 C 0.34645 0.05962 0.42849 0.0
N904 N 0.38275 0.04887 0.42151 0.0
N905 N 0.27266 0.00991 0.44199 0.0
C906 C 0.35538 0.04038 0.42 0.0
C907 C 0.29882 0.02025 0.43058 0.0
N908 N 0.34332 0.99471 0.39601 0.0
N909 N 0.30832 0.06786 0.43416 0.0
H910 H 0.25855 0.98866 0.44215 0.0
H911 H 0.26585 0.02213 0.45443 0.0
H912 H 0.32115 0.08934 0.43351 0.0
H913 H 0.28753 0.06174 0.433 0.0
H914 H 0.36299 1.00156 0.38681 0.0
H915 H 0.32929 0.97403 0.3892 0.0
H916 H 0.3904 0.0353 0.41922 0.0
H917 H 0.39769 0.06911 0.4286 0.0
C918 C 0.1174 0.38757 0.43361 0.0
C919 C 0.12209 0.3838 0.39778 0.0
C920 C 0.07401 0.36911 0.38215 0.0
C921 C 0.0709 0.37792 0.41651 0.0
N922 N 0.08824 0.3924 0.47654 0.0
N923 N 0.10467 0.36677 0.33894 0.0
C924 C 0.092 0.38565 0.44297 0.0
C925 C 0.10011 0.37282 0.37245 0.0
N926 N 0.13753 0.39301 0.45849 0.0
N927 N 0.05181 0.3569 0.35917 0.0
H928 H 0.1232 0.36808 0.3322 0.0
H929 H 0.09061 0.36069 0.31781 0.0
H930 H 0.03238 0.35319 0.36605 0.0
H931 H 0.05186 0.34874 0.33426 0.0
H932 H 0.13537 0.39424 0.48565 0.0
H933 H 0.15594 0.39398 0.45183 0.0
H934 H 0.10371 0.40145 0.49602 0.0
H935 H 0.0695 0.38955 0.48498 0.0
C936 C 0.13274 0.39724 0.86762 0.0
C937 C 0.14418 0.38556 0.84461 0.0
C938 C 0.11143 0.38136 0.79685 0.0
C939 C 0.09922 0.3921 0.82027 0.0
N940 N 0.1026 0.41643 0.87527 0.0
N941 N 0.14938 0.37312 0.78535 0.0
C942 C 0.11131 0.40198 0.85482 0.0
C943 C 0.13509 0.37988 0.80851 0.0
N944 N 0.14148 0.40259 0.9023 0.0
N945 N 0.09949 0.37104 0.7642 0.0
H946 H 0.16682 0.37226 0.79332 0.0
H947 H 0.14571 0.371 0.75806 0.0
H948 H 0.08247 0.37197 0.75468 0.0
H949 H 0.10526 0.35999 0.74736 0.0
H950 H 0.13162 0.40735 0.92195 0.0
H951 H 0.15822 0.40112 0.91174 0.0
H952 H 0.11233 0.42683 0.8989 0.0
H953 H 0.08684 0.42002 0.86723 0.0
C954 C 0.7323 0.79564 0.82538 0.0
C955 C 0.71884 0.81019 0.81457 0.0
C956 C 0.68093 0.76688 0.78841 0.0
C957 C 0.69537 0.75252 0.7966 0.0
N958 N 0.73779 0.75539 0.817 0.0
N959 N 0.68393 0.81139 0.77846 0.0
C960 C 0.72197 0.76757 0.81336 0.0
C961 C 0.69431 0.7963 0.79365 0.0
N962 N 0.75437 0.80833 0.84839 0.0
N963 N 0.65377 0.75247 0.7783 0.0
H964 H 0.69356 0.83297 0.78147 0.0
H965 H 0.66758 0.80292 0.76006 0.0
H966 H 0.64223 0.73087 0.7768 0.0
H967 H 0.64177 0.76182 0.77546 0.0
H968 H 0.7633 0.79794 0.86058 0.0
H969 H 0.76234 0.8288 0.85754 0.0
H970 H 0.7583 0.76622 0.82558 0.0
H971 H 0.73145 0.73519 0.80812 0.0
C972 C 0.2474 0.9451 0.80929 0.0
C973 C 0.24618 0.91893 0.80993 0.0
C974 C 0.29555 0.94186 0.79855 0.0
C975 C 0.29624 0.96772 0.79511 0.0
N976 N 0.27148 0.99261 0.78962 0.0
N977 N 0.26776 0.89149 0.79991 0.0
C978 C 0.27176 0.96894 0.79839 0.0
C979 C 0.26986 0.91703 0.80286 0.0
N980 N 0.22539 0.94733 0.8197 0.0
N981 N 0.3195 0.94111 0.79959 0.0
H982 H 0.2495 0.87305 0.80421 0.0
H983 H 0.28348 0.88848 0.79079 0.0
H984 H 0.33875 0.95863 0.79675 0.0
H985 H 0.32054 0.92351 0.80615 0.0
H986 H 0.22616 0.9663 0.82371 0.0
H987 H 0.20698 0.93041 0.82738 0.0
H988 H 0.2536 0.99382 0.78771 0.0
H989 H 0.28873 0.01029 0.7807 0.0
C990 C 0.64292 0.95739 0.32984 0.0
C991 C 0.64561 0.93797 0.30823 0.0
C992 C 0.66413 0.97143 0.26106 0.0
C993 C 0.65715 0.98904 0.28026 0.0
N994 N 0.65561 1.00553 0.33925 0.0
N995 N 0.65785 0.92528 0.2533 0.0
C996 C 0.65096 0.98413 0.31666 0.0
C997 C 0.65615 0.94474 0.27388 0.0
N998 N 0.63231 0.94995 0.36276 0.0
N999 N 0.68023 0.98127 0.23212 0.0
H1000 H 0.65202 0.90544 0.26218 0.0
H1001 H 0.66279 0.92794 0.22664 0.0
H1002 H 0.68883 1.00195 0.2247 0.0
H1003 H 0.6879 0.97031 0.21847 0.0
H1004 H 0.62702 0.962 0.37851 0.0
H1005 H 0.62677 0.93055 0.37307 0.0
H1006 H 0.65308 1.00346 0.3665 0.0
H1007 H 0.66592 0.0262 0.33174 0.0
C1008 C 0.15414 0.78083 0.33169 0.0
C1009 C 0.16611 0.80615 0.31332 0.0
C1010 C 0.12631 0.78645 0.27229 0.0
C1011 C 0.11618 0.75978 0.28714 0.0
N1012 N 0.12426 0.73096 0.32768 0.0
N1013 N 0.16668 0.83063 0.26115 0.0
C1014 C 0.13105 0.75674 0.3161 0.0
C1015 C 0.15307 0.80817 0.28208 0.0
N1016 N 0.16423 0.77998 0.36449 0.0
N1017 N 0.10998 0.79149 0.24997 0.0
H1018 H 0.18697 0.84595 0.2667 0.0
H1019 H 0.15904 0.83221 0.23646 0.0
H1020 H 0.08949 0.77678 0.24419 0.0
H1021 H 0.11574 0.81123 0.2408 0.0
H1022 H 0.15453 0.76286 0.38072 0.0
H1023 H 0.18078 0.79733 0.37676 0.0
H1024 H 0.13609 0.72763 0.34638 0.0
H1025 H 0.10851 0.7127 0.31615 0.0
C1026 C 0.29548 0.42794 0.379 0.0
C1027 C 0.28033 0.42496 0.34731 0.0
C1028 C 0.31967 0.43049 0.3132 0.0
C1029 C 0.33622 0.43773 0.34496 0.0
N1030 N 0.34044 0.44919 0.40759 0.0
N1031 N 0.27896 0.42631 0.28367 0.0
C1032 C 0.32421 0.43789 0.37778 0.0
C1033 C 0.29275 0.42712 0.31422 0.0
N1034 N 0.28238 0.4211 0.41046 0.0
N1035 N 0.32891 0.42539 0.28236 0.0
H1036 H 0.25872 0.4223 0.28336 0.0
H1037 H 0.28812 0.43118 0.25906 0.0
H1038 H 0.34789 0.42658 0.28048 0.0
H1039 H 0.31663 0.41728 0.25946 0.0
H1040 H 0.29178 0.41998 0.43392 0.0
H1041 H 0.26133 0.41339 0.41208 0.0
H1042 H 0.33305 0.45227 0.43131 0.0
H1043 H 0.36179 0.45854 0.40757 0.0
C1044 C 0.29767 0.38317 0.89979 0.0
C1045 C 0.27369 0.36089 0.91432 0.0
C1046 C 0.30142 0.33936 0.93197 0.0
C1047 C 0.32587 0.36252 0.91973 0.0
N1048 N 0.34745 0.41056 0.90265 0.0
N1049 N 0.25612 0.32317 0.9552 0.0
C1050 C 0.32403 0.38568 0.9069 0.0
C1051 C 0.27674 0.3408 0.93396 0.0
N1052 N 0.29548 0.40126 0.8777 0.0
N1053 N 0.30086 0.31512 0.93955 0.0
H1054 H 0.23843 0.3245 0.9588 0.0
H1055 H 0.25813 0.30971 0.97238 0.0
H1056 H 0.31753 0.31209 0.93625 0.0
H1057 H 0.28279 0.29692 0.9452 0.0
H1058 H 0.31193 0.41587 0.86333 0.0
H1059 H 0.27688 0.40016 0.87127 0.0
H1060 H 0.34723 0.42866 0.89632 0.0
H1061 H 0.3669 0.41391 0.90973 0.0
C1062 C 0.75589 0.01995 0.91124 0.0
C1063 C 0.73904 0.99351 0.92584 0.0
C1064 C 0.71402 0.01238 0.9579 0.0
C1065 C 0.73337 0.0397 0.94745 0.0
N1066 N 0.77566 0.0698 0.918 0.0
N1067 N 0.70506 0.96561 0.96788 0.0
C1068 C 0.75504 0.0436 0.9249 0.0
C1069 C 0.71885 0.99 0.95043 0.0
N1070 N 0.77222 0.0223 0.88362 0.0
N1071 N 0.69046 1.00758 0.97388 0.0
H1072 H 0.70882 0.94922 0.96395 0.0
H1073 H 0.69206 0.96275 0.98872 0.0
H1074 H 0.68558 0.02317 0.97838 0.0
H1075 H 0.67445 0.98772 0.97907 0.0
H1076 H 0.78293 0.04042 0.86937 0.0
H1077 H 0.7729 1.00528 0.87281 0.0
H1078 H 0.79332 0.0738 0.90473 0.0
H1079 H 0.77648 0.08766 0.92837 0.0
C1080 C 0.07743 0.78775 0.84861 0.0
C1081 C 0.09951 0.79835 0.8738 0.0
C1082 C 0.07179 0.75836 0.91135 0.0
C1083 C 0.04862 0.75043 0.88834 0.0
N1084 N 0.02825 0.76251 0.83998 0.0
N1085 N 0.11701 0.79525 0.9313 0.0
C1086 C 0.05117 0.76645 0.85825 0.0
C1087 C 0.09665 0.78395 0.90573 0.0
N1088 N 0.08162 0.79801 0.81523 0.0
N1089 N 0.07025 0.74129 0.93796 0.0
H1090 H 0.13555 0.81355 0.92779 0.0
H1091 H 0.11483 0.7874 0.95667 0.0
H1092 H 0.05236 0.72267 0.94281 0.0
H1093 H 0.0872 0.74454 0.95337 0.0
H1094 H 0.06676 0.7894 0.79485 0.0
H1095 H 0.10093 0.81301 0.80696 0.0
H1096 H 0.02883 0.77528 0.81964 0.0
H1097 H 1.00846 0.74878 0.84819 0.0
C1098 C 0.37235 0.12991 0.75208 0.0
C1099 C 0.3477 0.12578 0.73572 0.0
C1100 C 0.33286 0.07631 0.72613 0.0
C1101 C 0.35899 0.08127 0.73868 0.0
N1102 N 0.40613 0.11521 0.7547 0.0
N1103 N 0.30675 0.09624 0.7009 0.0
C1104 C 0.37946 0.10875 0.74927 0.0
C1105 C 0.32853 0.09926 0.72099 0.0
N1106 N 0.38862 0.15379 0.77132 0.0
N1107 N 0.31179 0.04971 0.72047 0.0
H1108 H 0.30349 0.11278 0.69582 0.0
H1109 H 0.29356 0.07808 0.68654 0.0
H1110 H 0.31377 0.0323 0.72486 0.0
H1111 H 0.29165 0.04487 0.71483 0.0
H1112 H 0.40554 0.15682 0.78665 0.0
H1113 H 0.38344 0.16923 0.77505 0.0
H1114 H 0.42215 0.13549 0.75929 0.0
H1115 H 0.41286 0.10104 0.75037 0.0
C1116 C 0.93487 0.31392 0.7421 0.0
C1117 C 0.93846 0.29102 0.73316 0.0
C1118 C 0.98897 0.32261 0.73663 0.0
C1119 C 0.98547 0.3458 0.74353 0.0
N1120 N 0.95458 0.36413 0.74485 0.0
N1121 N 0.96946 0.27569 0.7129 0.0
C1122 C 0.95824 0.34161 0.74399 0.0
C1123 C 0.96568 0.29609 0.72766 0.0
N1124 N 0.90937 0.30923 0.75031 0.0
N1125 N 0.01446 0.32541 0.74053 0.0
H1126 H 0.95335 0.25604 0.7056 0.0
H1127 H 0.98845 0.27915 0.70449 0.0
H1128 H 0.03192 0.34413 0.7479 0.0
H1129 H 0.01785 0.30861 0.74002 0.0
H1130 H 0.90584 0.32449 0.7611 0.0
H1131 H 0.89193 0.28953 0.74877 0.0
H1132 H 0.93545 0.36265 0.74162 0.0
H1133 H 0.97089 0.38454 0.74527 0.0
C1134 C 0.78979 0.71595 0.72277 0.0
C1135 C 0.79016 0.69061 0.72065 0.0
C1136 C 0.74007 0.66474 0.72891 0.0
C1137 C 0.74022 0.69025 0.73433 0.0
N1138 N 0.76663 0.74013 0.74312 0.0
N1139 N 0.76653 0.64096 0.72615 0.0
C1140 C 0.76549 0.71583 0.73304 0.0
C1141 C 0.76553 0.665 0.72509 0.0
N1142 N 0.81265 0.74032 0.7144 0.0
N1143 N 0.71562 0.6404 0.72556 0.0
H1144 H 0.78458 0.64042 0.72211 0.0
H1145 H 0.75001 0.62198 0.73327 0.0
H1146 H 0.69666 0.63933 0.72766 0.0
H1147 H 0.71402 0.62157 0.7178 0.0
H1148 H 0.81262 0.75888 0.711 0.0
H1149 H 0.83115 0.74161 0.70772 0.0
H1150 H 0.78493 0.75888 0.74691 0.0
H1151 H 0.74954 0.74121 0.75109 0.0
C1152 C 0.80265 0.75503 0.19239 0.0
C1153 C 0.81083 0.74379 0.16416 0.0
C1154 C 0.77835 0.74866 0.12354 0.0
C1155 C 0.76869 0.75787 0.15238 0.0
N1156 N 0.77718 0.77762 0.2114 0.0
N1157 N 0.81222 0.73733 0.10141 0.0
C1158 C 0.78272 0.76355 0.18589 0.0
C1159 C 0.80048 0.7431 0.12924 0.0
N1160 N 0.81288 0.75626 0.22583 0.0
N1161 N 0.7655 0.74388 0.09107 0.0
H1162 H 0.8286 0.73366 0.10496 0.0
H1163 H 0.80764 0.73865 0.07494 0.0
H1164 H 0.75062 0.74932 0.08541 0.0
H1165 H 0.76877 0.73367 0.07006 0.0
H1166 H 0.8051 0.76036 0.24851 0.0
H1167 H 0.82883 0.75229 0.23098 0.0
H1168 H 0.78812 0.78474 0.23539 0.0
H1169 H 0.7632 0.78452 0.20706 0.0
C1170 C 0.31347 0.11208 0.17494 0.0
C1171 C 0.33632 0.13586 0.16145 0.0
C1172 C 0.35365 0.10653 0.13734 0.0
C1173 C 0.32899 0.08256 0.14662 0.0
N1174 N 0.28322 0.06242 0.16951 0.0
N1175 N 0.37575 0.15552 0.12434 0.0
C1176 C 0.30822 0.08528 0.16406 0.0
C1177 C 0.35587 0.13307 0.14121 0.0
N1178 N 0.29745 0.11517 0.19929 0.0
N1179 N 0.37508 0.10396 0.12546 0.0
H1180 H 0.37712 0.17495 0.12534 0.0
H1181 H 0.38906 0.15421 0.10657 0.0
H1182 H 0.3741 0.08475 0.12332 0.0
H1183 H 0.39448 0.1209 0.12122 0.0
H1184 H 0.28208 0.0986 0.21276 0.0
H1185 H 0.30141 0.13459 0.20874 0.0
H1186 H 0.26645 0.06358 0.17874 0.0
H1187 H 0.27848 0.04243 0.16189 0.0
C1188 C 0.94956 0.27458 0.16662 0.0
C1189 C 0.925 0.27586 0.16565 0.0
C1190 C 0.95122 0.32531 0.15162 0.0
C1191 C 0.97623 0.32477 0.15478 0.0
N1192 N 0.9993 0.30001 0.17329 0.0
N1193 N 0.90343 0.30402 0.16697 0.0
C1194 C 0.97545 0.29966 0.16447 0.0
C1195 C 0.92618 0.30173 0.1612 0.0
N1196 N 0.94812 0.24938 0.16888 0.0
N1197 N 0.95093 0.34775 0.13768 0.0
H1198 H 0.88475 0.28738 0.1746 0.0
H1199 H 0.90388 0.323 0.16789 0.0
H1200 H 0.96844 0.3654 0.12946 0.0
H1201 H 0.93289 0.34775 0.13089 0.0
H1202 H 0.96498 0.24662 0.1657 0.0
H1203 H 0.92958 0.23088 0.1716 0.0
H1204 H 0.99987 0.28306 0.18377 0.0
H1205 H 0.01847 0.31807 0.17352 0.0
C1206 C 0.29798 0.2868 0.66167 0.0
C1207 C 0.31956 0.28324 0.64883 0.0
C1208 C 0.33624 0.32594 0.61515 0.0
C1209 C 0.31252 0.32738 0.62409 0.0
N1210 N 0.26807 0.30579 0.6511 0.0
N1211 N 0.35616 0.29639 0.60797 0.0
C1212 C 0.29266 0.30697 0.64626 0.0
C1213 C 0.33792 0.30204 0.62413 0.0
N1214 N 0.28298 0.2713 0.68922 0.0
N1215 N 0.35764 0.34779 0.59922 0.0
H1216 H 0.35708 0.27848 0.6129 0.0
H1217 H 0.36824 0.30788 0.58714 0.0
H1218 H 0.35772 0.36614 0.59348 0.0
H1219 H 0.37644 0.34888 0.59521 0.0
H1220 H 0.26874 0.27483 0.70217 0.0
H1221 H 0.28678 0.25672 0.7013 0.0
H1222 H 0.25188 0.28975 0.66423 0.0
H1223 H 0.26284 0.31938 0.63916 0.0
C1224 C 0.79827 0.10548 0.68956 0.0
C1225 C 0.80454 0.13133 0.67386 0.0
C1226 C 0.76284 0.10476 0.6358 0.0
C1227 C 0.76041 0.07904 0.64618 0.0
N1228 N 0.77923 0.05589 0.68054 0.0
N1229 N 0.79313 0.154 0.62766 0.0
C1230 C 0.77883 0.07963 0.67272 0.0
C1231 C 0.78671 0.13063 0.64607 0.0
N1232 N 0.81063 0.10533 0.72099 0.0
N1233 N 0.74194 0.10451 0.61656 0.0
H1234 H 0.81042 0.17324 0.63319 0.0
H1235 H 0.78245 0.15369 0.60465 0.0
H1236 H 0.72382 0.08611 0.61011 0.0
H1237 H 0.74126 0.12246 0.61084 0.0
H1238 H 0.80458 0.08732 0.73524 0.0
H1239 H 0.82471 0.12329 0.73493 0.0
H1240 H 0.79446 0.05579 0.69657 0.0
H1241 H 0.76601 0.03666 0.66846 0.0
C1242 C 0.95076 0.71935 0.65004 0.0
C1243 C 0.94042 0.73604 0.63618 0.0
C1244 C 0.98485 0.76582 0.60844 0.0
C1245 C 0.99509 0.74877 0.62161 0.0
N1246 N 0.98388 0.70391 0.64432 0.0
N1247 N 0.94456 0.7691 0.59265 0.0
C1248 C 0.97673 0.72376 0.63892 0.0
C1249 C 0.95649 0.75718 0.61207 0.0
N1250 N 0.93689 0.70051 0.67552 0.0
N1251 N 1.00227 0.7912 0.59485 0.0
H1252 H 0.92371 0.76274 0.5942 0.0
H1253 H 0.95451 0.7829 0.57241 0.0
H1254 H 0.02331 0.79912 0.59282 0.0
H1255 H 0.99619 0.80559 0.58864 0.0
H1256 H 0.94534 0.69046 0.68966 0.0
H1257 H 0.91786 0.69643 0.68453 0.0
H1258 H 0.97032 0.68431 0.65382 0.0
H1259 H 1.00224 0.70588 0.63557 0.0
C1260 C 0.95794 0.72527 0.21413 0.0
C1261 C 0.93243 0.70375 0.22631 0.0
C1262 C 0.9559 0.67835 0.24617 0.0
C1263 C 0.98165 0.70037 0.23534 0.0
N1264 N 1.00761 0.74883 0.22045 0.0
N1265 N 0.9099 0.66481 0.26488 0.0
C1266 C 0.98277 0.7251 0.22293 0.0
C1267 C 0.9324 0.68197 0.24593 0.0
N1268 N 0.95864 0.74508 0.19247 0.0
N1269 N 0.95314 0.65325 0.25453 0.0
H1270 H 0.89289 0.66757 0.26654 0.0
H1271 H 0.90952 0.65011 0.28209 0.0
H1272 H 0.96922 0.64906 0.2537 0.0
H1273 H 0.93416 0.63571 0.25888 0.0
H1274 H 0.97629 0.75921 0.17958 0.0
H1275 H 0.94123 0.74603 0.18496 0.0
H1276 H 1.00955 0.768 0.21455 0.0
H1277 H 0.02604 0.75005 0.22847 0.0
C1278 C 0.40466 0.34433 0.27353 0.0
C1279 C 0.38109 0.32979 0.25105 0.0
C1280 C 0.3756 0.37093 0.24974 0.0
C1281 C 0.3995 0.3855 0.27197 0.0
N1282 N 0.44161 0.38916 0.29422 0.0
N1283 N 0.34838 0.33101 0.2104 0.0
C1284 C 0.41568 0.37317 0.28005 0.0
C1285 C 0.36787 0.34369 0.23681 0.0
N1286 N 0.41544 0.33027 0.29057 0.0
N1287 N 0.35963 0.38243 0.2423 0.0
H1288 H 0.34275 0.31127 0.20022 0.0
H1289 H 0.33971 0.34095 0.19652 0.0
H1290 H 0.36535 0.40276 0.24956 0.0
H1291 H 0.3402 0.3714 0.23018 0.0
H1292 H 0.43108 0.33948 0.3099 0.0
H1293 H 0.40683 0.30877 0.28826 0.0
H1294 H 0.45524 0.38179 0.29798 0.0
H1295 H 0.45038 0.41058 0.29849 0.0
C1296 C 0.76283 0.14035 0.25007 0.0
C1297 C 0.77493 0.15186 0.21742 0.0
C1298 C 0.73182 0.11997 0.18579 0.0
C1299 C 0.71978 0.10731 0.21827 0.0
N1300 N 0.72741 0.10048 0.27977 0.0
N1301 N 0.77397 0.14681 0.15418 0.0
C1302 C 0.7363 0.11604 0.25007 0.0
C1303 C 0.76037 0.13958 0.18527 0.0
N1304 N 0.77645 0.15301 0.28112 0.0
N1305 N 0.71582 0.11455 0.15578 0.0
H1306 H 0.79515 0.16003 0.15378 0.0
H1307 H 0.76507 0.13718 0.12983 0.0
H1308 H 0.69451 0.10227 0.15545 0.0
H1309 H 0.7233 0.1246 0.13203 0.0
H1310 H 0.76735 0.14769 0.30575 0.0
H1311 H 0.79651 0.16981 0.28188 0.0
H1312 H 0.73972 0.10463 0.30254 0.0
H1313 H 0.70895 0.08171 0.28052 0.0
C1314 C 0.04211 0.50486 0.8776 0.0
C1315 C 0.06142 0.51094 0.90582 0.0
C1316 C 0.07763 0.48256 0.87579 0.0
C1317 C 0.05521 0.47265 0.85121 0.0
N1318 N 0.01578 0.47406 0.82805 0.0
N1319 N 0.0958 0.50337 0.93395 0.0
C1320 C 0.03749 0.48395 0.85169 0.0
C1321 C 0.07902 0.49951 0.90529 0.0
N1322 N 0.0286 0.51952 0.87549 0.0
N1323 N 0.09763 0.47587 0.87071 0.0
H1324 H 0.09671 0.51493 0.95642 0.0
H1325 H 0.10699 0.49315 0.93674 0.0
H1326 H 0.09745 0.46441 0.84848 0.0
H1327 H 0.11565 0.48414 0.88616 0.0
H1328 H 0.0159 0.5179 0.8541 0.0
H1329 H 0.03213 0.53525 0.89385 0.0
H1330 H 1.00021 0.47898 0.82952 0.0
H1331 H 0.01273 0.45981 0.80771 0.0
C1332 C 0.6008 0.63924 0.91648 0.0
C1333 C 0.57783 0.61198 0.9138 0.0
C1334 C 0.59157 0.60656 0.8537 0.0
C1335 C 0.61302 0.63481 0.85514 0.0
N1336 N 0.63688 0.67888 0.88708 0.0
N1337 N 0.54998 0.56996 0.87993 0.0
C1338 C 0.61728 0.65134 0.88636 0.0
C1339 C 0.57299 0.59563 0.88245 0.0
N1340 N 0.60738 0.65319 0.94845 0.0
N1341 N 0.58896 0.59028 0.82477 0.0
H1342 H 0.53643 0.56163 0.90073 0.0
H1343 H 0.54339 0.55762 0.85691 0.0
H1344 H 0.60159 0.59792 0.80299 0.0
H1345 H 0.57548 0.56895 0.82305 0.0
H1346 H 0.62551 0.67183 0.9537 0.0
H1347 H 0.59573 0.64493 0.9709 0.0
H1348 H 0.63863 0.69292 0.90691 0.0
H1349 H 0.65059 0.68823 0.86676 0.0
C1350 C 0.46236 0.01829 0.85719 0.0
C1351 C 0.45034 1.00373 0.88841 0.0
C1352 C 0.40514 0.99499 0.86769 0.0
C1353 C 0.41774 0.01265 0.83879 0.0
N1354 N 0.45788 0.04105 0.80495 0.0
N1355 N 0.41112 0.97808 0.92431 0.0
C1356 C 0.44617 0.02386 0.83278 0.0
C1357 C 0.42184 0.99174 0.89367 0.0
N1358 N 0.48939 0.02713 0.85147 0.0
N1359 N 0.37715 0.9811 0.86986 0.0
H1360 H 0.42278 0.97435 0.94289 0.0
H1361 H 0.39119 0.97153 0.93218 0.0
H1362 H 0.3644 0.98312 0.8512 0.0
H1363 H 0.36635 0.966 0.88838 0.0
H1364 H 0.49918 0.03574 0.828 0.0
H1365 H 0.50184 0.02429 0.86974 0.0
H1366 H 0.4789 0.05228 0.80091 0.0
H1367 H 0.44653 0.04512 0.78629 0.0
C1368 C 0.43747 0.0242 0.6175 0.0
C1369 C 0.45222 0.01038 0.62578 0.0
C1370 C 0.43369 1.00161 0.68569 0.0
C1371 C 0.42022 0.01694 0.67811 0.0
N1372 N 0.41173 0.04573 0.63851 0.0
N1373 N 0.46771 0.98914 0.66821 0.0
C1374 C 0.42294 0.02921 0.64452 0.0
C1375 C 0.45112 0.99984 0.66001 0.0
N1376 N 0.43653 0.0315 0.58329 0.0
N1377 N 0.4298 0.98878 0.71747 0.0
H1378 H 0.48059 0.98767 0.64981 0.0
H1379 H 0.47026 0.98357 0.6936 0.0
H1380 H 0.41856 0.99095 0.73769 0.0
H1381 H 0.43648 0.97482 0.72327 0.0
H1382 H 0.42417 0.03932 0.57436 0.0
H1383 H 0.44662 0.02767 0.56295 0.0
H1384 H 0.41563 0.05787 0.61624 0.0
H1385 H 0.39979 0.04876 0.65691 0.0
C1386 C 0.09445 0.51886 0.66418 0.0
C1387 C 0.07347 0.51754 0.64143 0.0
C1388 C 0.042 0.47098 0.66404 0.0
C1389 C 0.06176 0.47429 0.69071 0.0
N1390 N 0.10494 0.50617 0.72084 0.0
N1391 N 0.02489 0.49459 0.627 0.0
C1392 C 0.08756 0.49953 0.69203 0.0
C1393 C 0.04654 0.49418 0.64328 0.0
N1394 N 0.12118 0.53831 0.65879 0.0
N1395 N 0.01937 0.44554 0.6573 0.0
H1396 H 0.02687 0.51189 0.61399 0.0
H1397 H 1.00457 0.47906 0.63018 0.0
H1398 H 0.01603 0.42761 0.66998 0.0
H1399 H 1.00571 0.44171 0.63609 0.0
H1400 H 0.13757 0.53867 0.67263 0.0
H1401 H 0.12701 0.55197 0.63779 0.0
H1402 H 0.12283 0.5254 0.72415 0.0
H1403 H 0.09993 0.49422 0.74344 0.0
C1404 C 0.60922 0.60579 0.62348 0.0
C1405 C 0.58056 0.58826 0.62872 0.0
C1406 C 0.5867 0.60842 0.68929 0.0
C1407 C 0.61531 0.62535 0.68403 0.0
N1408 N 0.6546 0.63309 0.65081 0.0
N1409 N 0.54365 0.56791 0.66988 0.0
C1410 C 0.62676 0.62158 0.65266 0.0
C1411 C 0.56985 0.588 0.66275 0.0
N1412 N 0.61965 0.60929 0.59029 0.0
N1413 N 0.57535 0.61271 0.71869 0.0
H1414 H 0.53109 0.55235 0.65141 0.0
H1415 H 0.5354 0.56499 0.695 0.0
H1416 H 0.58703 0.62706 0.7388 0.0
H1417 H 0.55425 0.60337 0.72205 0.0
H1418 H 0.63971 0.62435 0.5847 0.0
H1419 H 0.6079 0.59931 0.56757 0.0
H1420 H 0.66402 0.62887 0.63 0.0
H1421 H 0.668 0.64435 0.67194 0.0
C1422 C 0.06662 0.627 0.14635 0.0
C1423 C 0.04402 0.60055 0.13714 0.0
C1424 C 0.01593 0.61006 0.1781 0.0
C1425 C 0.03983 0.63424 0.19167 0.0
N1426 N 0.08984 0.65929 0.19484 0.0
N1427 N 0.99823 0.56442 0.15058 0.0
C1428 C 0.06578 0.64109 0.17748 0.0
C1429 C 0.01886 0.59135 0.15469 0.0
N1430 N 0.08878 0.63906 0.12508 0.0
N1431 N 0.99042 0.60522 0.18658 0.0
H1432 H 1.00027 0.54969 0.13564 0.0
H1433 H 0.9804 0.5561 0.16523 0.0
H1434 H 0.98732 0.61904 0.20206 0.0
H1435 H 0.97244 0.58909 0.17493 0.0
H1436 H 0.10488 0.65935 0.12952 0.0
H1437 H 0.08934 0.63014 0.10085 0.0
H1438 H 0.10891 0.66311 0.18616 0.0
H1439 H 0.09081 0.6672 0.2203 0.0
C1440 C 0.4932 0.54623 0.18809 0.0
C1441 C 0.47952 0.5355 0.15488 0.0
C1442 C 0.44298 0.4949 0.18447 0.0
C1443 C 0.45533 0.50684 0.2182 0.0
N1444 N 0.49024 0.5462 0.2522 0.0
N1445 N 0.43987 0.50183 0.12139 0.0
C1446 C 0.48006 0.53308 0.22003 0.0
C1447 C 0.45395 0.51043 0.15312 0.0
N1448 N 0.51898 0.56894 0.18892 0.0
N1449 N 0.42152 0.46819 0.18221 0.0
H1450 H 0.44768 0.51264 0.09812 0.0
H1451 H 0.4198 0.48535 0.11858 0.0
H1452 H 0.41343 0.45589 0.20431 0.0
H1453 H 0.41338 0.45731 0.15831 0.0
H1454 H 0.53152 0.57622 0.21167 0.0
H1455 H 0.52864 0.5793 0.16604 0.0
H1456 H 0.50646 0.56653 0.25513 0.0
H1457 H 0.48101 0.53772 0.27607 0.0
C1458 C 0.54746 0.02713 0.15669 0.0
C1459 C 0.55778 0.02966 0.12226 0.0
C1460 C 0.60506 0.05647 0.14606 0.0
C1461 C 0.59479 0.05096 0.18075 0.0
N1462 N 0.55657 0.03112 0.22013 0.0
N1463 N 0.59569 0.04698 0.08279 0.0
C1464 C 0.56605 0.03668 0.1864 0.0
C1465 C 0.58645 0.04458 0.11653 0.0
N1466 N 0.5198 0.01565 0.16065 0.0
N1467 N 0.6326 0.07353 0.14169 0.0
H1468 H 0.58251 0.03954 0.0606 0.0
H1469 H 0.61623 0.05528 0.07655 0.0
H1470 H 0.64628 0.08299 0.16316 0.0
H1471 H 0.64167 0.08018 0.1173 0.0
H1472 H 0.51079 0.01564 0.1845 0.0
H1473 H 0.50579 1.00751 0.13927 0.0
H1474 H 0.53612 0.01785 0.2261 0.0
H1475 H 0.56941 0.03906 0.24257 0.0
C1476 C 0.57438 0.01603 0.39571 0.0
C1477 C 0.56468 0.0345 0.40374 0.0
C1478 C 0.5914 0.06454 0.35542 0.0
C1479 C 0.59894 0.04458 0.34514 0.0
N1480 N 0.59517 0.99971 0.35306 0.0
N1481 N 0.56102 0.07455 0.38987 0.0
C1482 C 0.58973 0.01985 0.36463 0.0
C1483 C 0.57261 0.05844 0.3834 0.0
N1484 N 0.56948 0.9953 0.41858 0.0
N1485 N 0.60182 0.0891 0.33813 0.0
H1486 H 0.54708 0.07035 0.41 0.0
H1487 H 0.56347 0.09071 0.3739 0.0
H1488 H 0.61421 0.09368 0.31618 0.0
H1489 H 0.59959 0.10572 0.34675 0.0
H1490 H 0.57831 0.98275 0.41653 0.0
H1491 H 0.55836 0.99221 0.44157 0.0
H1492 H 0.58645 0.97999 0.3637 0.0
H1493 H 0.60709 1.002 0.33118 0.0
C1494 C 0.06387 0.64065 0.41675 0.0
C1495 C 0.07214 0.62066 0.41046 0.0
C1496 C 0.064 0.62255 0.34657 0.0
C1497 C 0.05984 0.64559 0.35254 0.0
N1498 N 0.06159 0.68001 0.39397 0.0
N1499 N 0.0824 0.59417 0.36911 0.0
C1500 C 0.06124 0.65554 0.38785 0.0
C1501 C 0.07307 0.61227 0.3752 0.0
N1502 N 0.05786 0.64501 0.45021 0.0
N1503 N 0.05768 0.6093 0.31411 0.0
H1504 H 0.08768 0.58516 0.38962 0.0
H1505 H 0.08657 0.58959 0.34392 0.0
H1506 H 0.04916 0.61474 0.29313 0.0
H1507 H 0.05791 0.59094 0.30914 0.0
H1508 H 0.04937 0.6575 0.45593 0.0
H1509 H 0.05851 0.63378 0.47164 0.0
H1510 H 0.06538 0.68955 0.419 0.0
H1511 H 0.06114 0.69234 0.37371 0.0
C1512 C 0.4676 0.52845 0.44673 0.0
C1513 C 0.49286 0.52854 0.45181 0.0
C1514 C 0.48615 0.50623 0.39284 0.0
C1515 C 0.46003 0.50435 0.38884 0.0
N1516 N 0.42368 0.50898 0.41482 0.0
N1517 N 0.52354 0.5129 0.4326 0.0
C1518 C 0.4501 0.51407 0.41667 0.0
C1519 C 0.50126 0.51596 0.4257 0.0
N1520 N 0.46095 0.54344 0.46939 0.0
N1521 N 0.49726 0.50008 0.36459 0.0
H1522 H 0.53489 0.51967 0.45643 0.0
H1523 H 0.52914 0.50137 0.41635 0.0
H1524 H 0.48735 0.49365 0.33982 0.0
H1525 H 0.51738 0.5039 0.3646 0.0
H1526 H 0.44454 0.54681 0.46477 0.0
H1527 H 0.47309 0.55453 0.49142 0.0
H1528 H 0.41413 0.51259 0.43599 0.0
H1529 H 0.41049 0.49894 0.39308 0.0
C1530 C 0.72561 0.85902 0.25802 0.0
C1531 C 0.69985 0.85425 0.27047 0.0
C1532 C 0.67664 0.81917 0.22179 0.0
C1533 C 0.70203 0.82198 0.21124 0.0
N1534 N 0.75068 0.8426 0.22214 0.0
N1535 N 0.65053 0.82515 0.26814 0.0
C1536 C 0.72656 0.84148 0.23011 0.0
C1537 C 0.67532 0.83305 0.25331 0.0
N1538 N 0.74918 0.88076 0.27224 0.0
N1539 N 0.65358 0.80341 0.20113 0.0
H1540 H 0.64857 0.83394 0.29171 0.0
H1541 H 0.6322 0.80791 0.25928 0.0
H1542 H 0.65382 0.79322 0.17782 0.0
H1543 H 0.63496 0.80273 0.20504 0.0
H1544 H 0.76854 0.88743 0.2621 0.0
H1545 H 0.74909 0.89326 0.29306 0.0
H1546 H 0.76877 0.85387 0.2372 0.0
H1547 H 0.75216 0.8309 0.20134 0.0
C1548 C 0.24348 0.9231 0.23766 0.0
C1549 C 0.23415 0.93656 0.26159 0.0
C1550 C 0.26026 0.97954 0.22824 0.0
C1551 C 0.26573 0.96484 0.20123 0.0
N1552 N 0.25783 0.92068 0.17813 0.0
N1553 N 0.23068 0.97709 0.27583 0.0
C1554 C 0.25604 0.93606 0.20538 0.0
C1555 C 0.24174 0.96467 0.2558 0.0
N1556 N 0.24182 0.89854 0.24653 0.0
N1557 N 0.27394 1.00793 0.22889 0.0
H1558 H 0.21684 0.96689 0.29582 0.0
H1559 H 0.23321 0.99655 0.2703 0.0
H1560 H 0.28913 0.01972 0.21104 0.0
H1561 H 0.27267 0.01976 0.24964 0.0
H1562 H 0.25057 0.88918 0.23164 0.0
H1563 H 0.23479 0.88929 0.27087 0.0
H1564 H 0.24848 0.89909 0.17841 0.0
H1565 H 0.2662 0.92909 0.15385 0.0
C1566 C 0.12634 0.41318 0.25921 0.0
C1567 C 0.15356 0.42253 0.24873 0.0
C1568 C 0.1379 0.41336 0.18629 0.0
C1569 C 0.11035 0.4025 0.19707 0.0
N1570 N 0.0778 0.3858 0.24401 0.0
N1571 N 0.18506 0.42736 0.20361 0.0
C1572 C 0.10445 0.40041 0.23369 0.0
C1573 C 0.15925 0.42123 0.21259 0.0
N1574 N 0.12161 0.41768 0.29335 0.0
N1575 N 0.1439 0.41765 0.15123 0.0
H1576 H 0.20101 0.43367 0.22245 0.0
H1577 H 0.19009 0.42424 0.1782 0.0
H1578 H 0.12888 0.41227 0.13133 0.0
H1579 H 0.16385 0.4282 0.14203 0.0
H1580 H 0.10258 0.41405 0.30183 0.0
H1581 H 0.1373 0.42728 0.3126 0.0
H1582 H 0.07226 0.3815 0.27035 0.0
H1583 H 0.06132 0.37557 0.22591 0.0
C1584 C 0.10926 0.34913 0.98227 0.0
C1585 C 0.13048 0.34484 0.99595 0.0
C1586 C 0.12184 0.35522 0.05645 0.0
C1587 C 0.1001 0.35882 0.04289 0.0
N1588 N 0.07143 0.35743 0.99382 0.0
N1589 N 0.15638 0.34192 0.04508 0.0
C1590 C 0.09343 0.35541 1.00597 0.0
C1591 C 0.13658 0.34738 0.03285 0.0
N1592 N 0.10444 0.3472 0.94644 0.0
N1593 N 0.1286 0.35982 0.09184 0.0
H1594 H 0.16798 0.33714 0.02811 0.0
H1595 H 0.16073 0.34095 0.07172 0.0
H1596 H 0.11764 0.36466 0.10983 0.0
H1597 H 0.14561 0.36006 0.10348 0.0
H1598 H 0.09126 0.35255 0.93371 0.0
H1599 H 0.11464 0.34109 0.92882 0.0
H1600 H 0.06369 0.35293 0.9679 0.0
H1601 H 0.05982 0.36256 1.01027 0.0
C1602 C 0.72198 0.86517 0.99963 0.0
C1603 C 0.69864 0.85466 0.97597 0.0
C1604 C 0.67837 0.81088 1.00961 0.0
C1605 C 0.69982 0.82328 0.03636 0.0
N1606 N 0.73869 0.86578 0.05936 0.0
N1607 N 0.65247 0.81793 0.96243 0.0
C1608 C 0.72064 0.85142 0.03201 0.0
C1609 C 0.67623 0.82758 0.98208 0.0
N1610 N 0.74622 0.88772 0.9905 0.0
N1611 N 0.6608 0.78284 1.00904 0.0
H1612 H 0.65012 0.82936 0.94237 0.0
H1613 H 0.63443 0.79973 0.96813 0.0
H1614 H 0.66234 0.76956 0.02696 0.0
H1615 H 0.64662 0.77235 0.98837 0.0
H1616 H 0.76445 0.8947 1.00521 0.0
H1617 H 0.74898 0.89715 0.96604 0.0
H1618 H 0.75259 0.88705 0.05868 0.0
H1619 H 0.73755 0.85737 0.08421 0.0
C1620 C 0.21348 0.95641 0.99547 0.0
C1621 C 0.21333 0.93304 0.97978 0.0
C1622 C 0.25378 0.94272 0.01704 0.0
C1623 C 0.25292 0.96528 0.03388 0.0
N1624 N 0.22699 0.98815 0.0461 0.0
N1625 N 0.22895 0.89987 0.98191 0.0
C1626 C 0.23107 0.97026 0.02533 0.0
C1627 C 0.23221 0.92495 0.99245 0.0
N1628 N 0.19789 0.96637 0.9806 0.0
N1629 N 0.27569 0.93895 0.02322 0.0
H1630 H 0.21286 0.88609 0.965 0.0
H1631 H 0.24047 0.89162 0.99262 0.0
H1632 H 0.29155 0.95123 0.04134 0.0
H1633 H 0.27899 0.92486 1.0087 0.0
H1634 H 0.19919 0.98499 0.98879 0.0
H1635 H 0.18581 0.95759 0.95766 0.0
H1636 H 0.20996 0.99075 0.04307 0.0
H1637 H 0.23907 0.99805 0.06876 0.0
C1638 C 0.66107 0.91225 0.4919 0.0
C1639 C 0.68376 0.92002 0.46926 0.0
C1640 C 0.71296 0.95446 0.51619 0.0
C1641 C 0.68931 0.95012 0.53523 0.0
N1642 N 0.6398 0.92864 0.53345 0.0
N1643 N 0.73144 0.95269 0.45902 0.0
C1644 C 0.66309 0.93003 0.52092 0.0
C1645 C 0.7098 0.94228 0.4812 0.0
N1646 N 0.63755 0.88728 0.48655 0.0
N1647 N 0.73849 0.96894 0.53191 0.0
H1648 H 0.73009 0.94477 0.43345 0.0
H1649 H 0.74999 0.97078 0.465 0.0
H1650 H 0.74184 0.97632 0.55805 0.0
H1651 H 0.75595 0.97057 0.52044 0.0
H1652 H 0.62134 0.87973 0.50404 0.0
H1653 H 0.63571 0.87267 0.46746 0.0
H1654 H 0.62045 0.91587 0.5217 0.0
H1655 H 0.6401 0.94269 0.55224 0.0
C1656 C 0.13825 0.83164 0.43857 0.0
C1657 C 0.15723 0.8605 0.44509 0.0
C1658 C 0.13926 0.85596 0.50559 0.0
C1659 C 0.12086 0.8269 0.49934 0.0
N1660 N 0.09945 0.78824 0.45773 0.0
N1661 N 0.17225 0.90113 0.48223 0.0
C1662 C 0.11917 0.81522 0.46502 0.0
C1663 C 0.15645 0.87294 0.47781 0.0
N1664 N 0.13923 0.81963 0.40727 0.0
N1665 N 0.14059 0.8673 0.53844 0.0
H1666 H 0.18496 0.91379 0.46252 0.0
H1667 H 0.17136 0.91234 0.50394 0.0
H1668 H 0.12703 0.85635 0.55838 0.0
H1669 H 0.1556 0.88722 0.54663 0.0
H1670 H 0.12912 0.7983 0.4021 0.0
H1671 H 0.15112 0.83127 0.38652 0.0
H1672 H 0.09479 0.77917 0.43242 0.0
H1673 H 0.08634 0.77512 0.47676 0.0
C1674 C 0.22669 0.42265 0.5201 0.0
C1675 C 0.2447 0.43941 0.49372 0.0
C1676 C 0.28104 0.43202 0.51831 0.0
C1677 C 0.26378 0.4165 0.54628 0.0
N1678 N 0.22001 0.39754 0.5746 0.0
N1679 N 0.29019 0.46461 0.47125 0.0
C1680 C 0.23658 0.41217 0.54756 0.0
C1681 C 0.27233 0.44573 0.49426 0.0
N1682 N 0.19983 0.41611 0.51791 0.0
N1683 N 0.30516 0.43241 0.5134 0.0
H1684 H 0.28411 0.474 0.45221 0.0
H1685 H 0.31136 0.47272 0.47294 0.0
H1686 H 0.3107 0.42046 0.52828 0.0
H1687 H 0.31795 0.44172 0.49225 0.0
H1688 H 0.18444 0.40147 0.53348 0.0
H1689 H 0.19277 0.42492 0.49921 0.0
H1690 H 0.20138 0.39645 0.57971 0.0
H1691 H 0.22517 0.38674 0.59265 0.0
C1692 C 0.20228 0.34374 0.73295 0.0
C1693 C 0.2135 0.33575 0.76114 0.0
C1694 C 0.25446 0.34787 0.72696 0.0
C1695 C 0.24477 0.35909 0.70048 0.0
N1696 N 0.21066 0.37018 0.67942 0.0
N1697 N 0.25044 0.33155 0.78711 0.0
C1698 C 0.21878 0.35735 0.70349 0.0
C1699 C 0.23957 0.33798 0.75858 0.0
N1700 N 0.17588 0.33847 0.73484 0.0
N1701 N 0.27741 0.3459 0.72144 0.0
H1702 H 0.23943 0.32317 0.81002 0.0
H1703 H 0.27072 0.3359 0.78891 0.0
H1704 H 0.28892 0.35293 0.69867 0.0
H1705 H 0.28378 0.33521 0.73794 0.0
H1706 H 0.16529 0.34141 0.71401 0.0
H1707 H 0.16376 0.32899 0.75661 0.0
H1708 H 0.19327 0.37209 0.68202 0.0
H1709 H 0.22249 0.38098 0.65805 0.0
C1710 C 0.67907 0.92969 0.76601 0.0
C1711 C 0.70273 0.9275 0.77413 0.0
C1712 C 0.72436 0.9552 0.72119 0.0
C1713 C 0.69981 0.95498 0.71042 0.0
N1714 N 0.65073 0.93321 0.71945 0.0
N1715 N 0.74308 0.92941 0.74986 0.0
C1716 C 0.67622 0.9397 0.73194 0.0
C1717 C 0.72372 0.93738 0.74856 0.0
N1718 N 0.65958 0.92314 0.79086 0.0
N1719 N 0.749 0.97361 0.70728 0.0
H1720 H 0.74229 0.9149 0.7678 0.0
H1721 H 0.75759 0.93442 0.73028 0.0
H1722 H 0.75154 0.98945 0.69062 0.0
H1723 H 0.76754 0.97566 0.71646 0.0
H1724 H 0.64347 0.92722 0.78772 0.0
H1725 H 0.66076 0.91578 0.81568 0.0
H1726 H 0.63286 0.92033 0.73287 0.0
H1727 H 0.64695 0.93743 0.69386 0.0
C1728 C 0.09521 0.84395 0.7222 0.0
C1729 C 0.12383 0.85973 0.72967 0.0
C1730 C 0.13289 0.84552 0.67181 0.0
C1731 C 0.1042 0.83044 0.66375 0.0
N1732 N 0.05849 0.82026 0.67787 0.0
N1733 N 0.16999 0.88037 0.70957 0.0
C1734 C 0.08547 0.83125 0.6879 0.0
C1735 C 0.14269 0.86189 0.7038 0.0
N1736 N 0.07738 0.84025 0.74847 0.0
N1737 N 0.15077 0.84402 0.64902 0.0
H1738 H 0.17743 0.89299 0.7324 0.0
H1739 H 0.18487 0.88506 0.69069 0.0
H1740 H 0.14461 0.83363 0.62446 0.0
H1741 H 0.1715 0.85178 0.65515 0.0
H1742 H 0.05631 0.82652 0.74623 0.0
H1743 H 0.08403 0.84945 0.77365 0.0
H1744 H 0.04425 0.82229 0.69299 0.0
H1745 H 0.05089 0.81126 0.65285 0.0
C1746 C 0.41442 0.21203 0.59745 0.0
C1747 C 0.3901 0.21373 0.6009 0.0
C1748 C 0.37315 0.18846 0.54307 0.0
C1749 C 0.39554 0.18354 0.54199 0.0
N1750 N 0.43677 0.18889 0.56977 0.0
N1751 N 0.34351 0.19756 0.57979 0.0
C1752 C 0.41605 0.19498 0.56962 0.0
C1753 C 0.36883 0.20058 0.57422 0.0
N1754 N 0.43629 0.22731 0.62008 0.0
N1755 N 0.35563 0.1811 0.5143 0.0
H1756 H 0.33845 0.20388 0.60319 0.0
H1757 H 0.3265 0.18579 0.56305 0.0
H1758 H 0.35821 0.17207 0.49133 0.0
H1759 H 0.34044 0.18655 0.51185 0.0
H1760 H 0.45553 0.22924 0.61696 0.0
H1761 H 0.43585 0.23999 0.64039 0.0
H1762 H 0.4505 0.19353 0.5911 0.0
H1763 H 0.43932 0.17787 0.549 0.0
C1764 C 0.94679 0.25434 0.56119 0.0
C1765 C 0.92998 0.25552 0.58789 0.0
C1766 C 0.93954 0.30094 0.56575 0.0
C1767 C 0.95336 0.29789 0.53622 0.0
N1768 N 0.96096 0.2657 0.5009 0.0
N1769 N 0.9033 0.27626 0.60714 0.0
C1770 C 0.95431 0.27282 0.53245 0.0
C1771 C 0.92427 0.27776 0.58782 0.0
N1772 N 0.95632 0.23613 0.56364 0.0
N1773 N 0.9418 0.32599 0.57409 0.0
H1774 H 0.88987 0.25857 0.62075 0.0
H1775 H 0.89711 0.29107 0.60568 0.0
H1776 H 0.95415 0.34407 0.56052 0.0
H1777 H 0.93389 0.3294 0.5972 0.0
H1778 H 0.97049 0.23611 0.54619 0.0
H1779 H 0.95255 0.2234 0.58534 0.0
H1780 H 0.95993 0.24663 0.49644 0.0
H1781 H 0.96372 0.27693 0.47794 0.0
C1782 C 0.79805 0.74077 0.57672 0.0
C1783 C 0.82647 0.75191 0.57132 0.0
C1784 C 0.81912 0.7529 0.50722 0.0
C1785 C 0.79061 0.74143 0.51268 0.0
N1786 N 0.75192 0.71904 0.55076 0.0
N1787 N 0.86382 0.7642 0.53222 0.0
C1788 C 0.77977 0.73357 0.54694 0.0
C1789 C 0.83694 0.75665 0.53669 0.0
N1790 N 0.78885 0.73814 0.61051 0.0
N1791 N 0.82912 0.76095 0.4741 0.0
H1792 H 0.8772 0.76737 0.55356 0.0
H1793 H 0.8724 0.76556 0.50761 0.0
H1794 H 0.81635 0.75726 0.45187 0.0
H1795 H 0.84996 0.7722 0.46879 0.0
H1796 H 0.76882 0.7327 0.6166 0.0
H1797 H 0.80191 0.74354 0.63279 0.0
H1798 H 0.74253 0.71047 0.57448 0.0
H1799 H 0.73806 0.71338 0.5293 0.0
C1800 C 0.76684 0.66722 0.30057 0.0
C1801 C 0.79497 0.67539 0.30466 0.0
C1802 C 0.79589 0.69273 0.36523 0.0
C1803 C 0.76859 0.6873 0.35974 0.0
N1804 N 0.72811 0.67066 0.32191 0.0
N1805 N 0.83676 0.69574 0.33968 0.0
C1806 C 0.75387 0.67442 0.32754 0.0
C1807 C 0.80957 0.68792 0.33685 0.0
N1808 N 0.75272 0.65283 0.27053 0.0
N1809 N 0.80844 0.70206 0.39785 0.0
H1810 H 0.84674 0.69116 0.3199 0.0
H1811 H 0.84974 0.7076 0.3607 0.0
H1812 H 0.79872 0.70544 0.41909 0.0
H1813 H 0.82753 0.70456 0.40486 0.0
H1814 H 0.73153 0.64359 0.267 0.0
H1815 H 0.76211 0.64856 0.24971 0.0
H1816 H 0.71746 0.66454 0.29765 0.0
H1817 H 0.71767 0.67511 0.34113 0.0
C1818 C 0.39097 0.21685 0.33782 0.0
C1819 C 0.39752 0.21001 0.30414 0.0
C1820 C 0.4075 0.17623 0.33363 0.0
C1821 C 0.4007 0.18291 0.36726 0.0
N1822 N 0.39105 0.21332 0.40221 0.0
N1823 N 0.41705 0.18709 0.27122 0.0
C1824 C 0.39391 0.20434 0.3695 0.0
C1825 C 0.4076 0.19109 0.30258 0.0
N1826 N 0.38139 0.23512 0.33935 0.0
N1827 N 0.41222 0.15441 0.33088 0.0
H1828 H 0.41678 0.197 0.2481 0.0
H1829 H 0.42726 0.1759 0.26862 0.0
H1830 H 0.41231 0.14304 0.35257 0.0
H1831 H 0.41407 0.14613 0.3069 0.0
H1832 H 0.37268 0.23844 0.36164 0.0
H1833 H 0.38135 0.2465 0.31758 0.0
H1834 H 0.38882 0.23062 0.40651 0.0
H1835 H 0.39304 0.20468 0.42566 0.0
C1836 C 0.89414 0.30629 0.34803 0.0
C1837 C 0.89366 0.28362 0.32983 0.0
C1838 C 0.93652 0.29359 0.36118 0.0
C1839 C 0.93619 0.31548 0.38056 0.0
N1840 N 0.9107 0.33752 0.39932 0.0
N1841 N 0.91037 0.25141 0.32523 0.0
C1842 C 0.91366 0.32014 0.37614 0.0
C1843 C 0.91369 0.27597 0.33825 0.0
N1844 N 0.8768 0.31546 0.33724 0.0
N1845 N 0.95904 0.29037 0.3634 0.0
H1846 H 0.89342 0.23773 0.3094 0.0
H1847 H 0.92286 0.24339 0.33293 0.0
H1848 H 0.97594 0.30266 0.38013 0.0
H1849 H 0.96176 0.27681 0.34688 0.0
H1850 H 0.87807 0.33369 0.3471 0.0
H1851 H 0.86286 0.30632 0.31596 0.0
H1852 H 0.89338 0.33978 0.39941 0.0
H1853 H 0.92422 0.34742 0.42084 0.0
C1854 C 0.36151 0.28985 0.80607 0.0
C1855 C 0.37594 0.2752 0.79994 0.0
C1856 C 0.39913 0.29269 0.85888 0.0
C1857 C 0.38179 0.30391 0.86666 0.0
N1858 N 0.34331 0.30908 0.84884 0.0
N1859 N 0.40671 0.26046 0.82298 0.0
C1860 C 0.36213 0.30134 0.84052 0.0
C1861 C 0.39455 0.2763 0.82689 0.0
N1862 N 0.34774 0.29357 0.77842 0.0
N1863 N 0.42002 0.29758 0.88219 0.0
H1864 H 0.4041 0.2485 0.8002 0.0
H1865 H 0.41783 0.25762 0.84321 0.0
H1866 H 0.42328 0.30835 0.90627 0.0
H1867 H 0.43525 0.29275 0.87656 0.0
H1868 H 0.33899 0.30622 0.78014 0.0
H1869 H 0.34775 0.28654 0.75266 0.0
H1870 H 0.32663 0.30506 0.83232 0.0
H1871 H 0.34286 0.31713 0.87373 0.0
C1872 C 0.83673 0.17912 0.85673 0.0
C1873 C 0.82964 0.16637 0.82259 0.0
C1874 C 0.78306 0.13401 0.84249 0.0
C1875 C 0.78941 0.14811 0.87602 0.0
N1876 N 0.8204 0.18922 0.91077 0.0
N1877 N 0.79376 0.13759 0.78024 0.0
C1878 C 0.8158 0.17211 0.88202 0.0
C1879 C 0.80207 0.1456 0.81461 0.0
N1880 N 0.8635 0.1981 0.86487 0.0
N1881 N 0.75964 0.10889 0.83752 0.0
H1882 H 0.80673 0.14713 0.75929 0.0
H1883 H 0.77336 0.12412 0.77247 0.0
H1884 H 0.74575 0.09892 0.85751 0.0
H1885 H 0.75552 0.09661 0.81461 0.0
H1886 H 0.87058 0.20606 0.89044 0.0
H1887 H 0.87895 0.20434 0.84634 0.0
H1888 H 0.83846 0.20813 0.91505 0.0
H1889 H 0.80492 0.18621 0.92801 0.0
C1890 C 0.9407 0.73023 0.79532 0.0
C1891 C 0.91715 0.73247 0.80154 0.0
C1892 C 0.91419 0.71424 0.8611 0.0
C1893 C 0.93767 0.71158 0.85461 0.0
N1894 N 0.96722 0.70853 0.81141 0.0
N1895 N 0.87781 0.7211 0.83657 0.0
C1896 C 0.94909 0.71694 0.82042 0.0
C1897 C 0.90289 0.72305 0.8335 0.0
N1898 N 0.95552 0.74161 0.76573 0.0
N1899 N 0.90233 0.70776 0.89347 0.0
H1900 H 0.86882 0.72687 0.8165 0.0
H1901 H 0.86487 0.71178 0.85762 0.0
H1902 H 0.90741 0.69752 0.91248 0.0
H1903 H 0.88785 0.71295 0.90176 0.0
H1904 H 0.97448 0.74319 0.76131 0.0
H1905 H 0.95004 0.75188 0.74718 0.0
H1906 H 0.97434 0.70961 0.78586 0.0
H1907 H 0.97283 0.69771 0.82861 0.0
C1908 C 0.9131 0.67718 0.07735 0.0
C1909 C 0.89364 0.68612 0.07315 0.0
C1910 C 0.91152 0.70408 1.01468 0.0
C1911 C 0.92906 0.69256 0.01723 0.0
N1912 N 0.94558 0.66649 0.04959 0.0
N1913 N 0.87232 0.70594 0.03767 0.0
C1914 C 0.92977 0.67882 0.04834 0.0
C1915 C 0.89234 0.69902 0.04172 0.0
N1916 N 0.91579 0.66751 0.10938 0.0
N1917 N 0.91399 0.72074 0.98702 0.0
H1918 H 0.85852 0.70307 0.05754 0.0
H1919 H 0.86813 0.7127 1.01402 0.0
H1920 H 0.92847 0.72561 0.96746 0.0
H1921 H 0.90359 0.73179 0.98505 0.0
H1922 H 0.93137 0.66324 0.11574 0.0
H1923 H 0.90333 0.66552 0.1306 0.0
H1924 H 0.94488 0.65363 0.06983 0.0
H1925 H 0.95839 0.6678 0.02913 0.0
C1926 C 0.41156 0.31285 0.10505 0.0
C1927 C 0.40147 0.28378 0.10575 0.0
C1928 C 0.39575 0.28153 0.04025 0.0
C1929 C 0.40199 0.30976 0.04023 0.0
N1930 N 0.41669 0.35276 0.07261 0.0
N1931 N 0.38387 0.24013 0.07427 0.0
C1932 C 0.41036 0.32558 0.07268 0.0
C1933 C 0.39401 0.26817 0.07326 0.0
N1934 N 0.42248 0.32826 0.13562 0.0
N1935 N 0.39109 0.26733 1.0087 0.0
H1936 H 0.38374 0.23017 0.09759 0.0
H1937 H 0.37468 0.22657 0.05262 0.0
H1938 H 0.39092 0.27588 0.98435 0.0
H1939 H 0.38918 0.24776 1.00627 0.0
H1940 H 0.43216 0.34983 0.13723 0.0
H1941 H 0.42403 0.31937 0.15909 0.0
H1942 H 0.4198 0.36477 0.09544 0.0
H1943 H 0.41785 0.36321 0.04938 0.0
C1944 C 0.80666 0.21006 0.05945 0.0
C1945 C 0.79155 0.20874 0.08957 0.0
C1946 C 0.74961 0.17112 0.0606 0.0
C1947 C 0.76543 0.17047 0.03202 0.0
N1948 N 0.80999 0.18645 1.0071 0.0
N1949 N 0.74948 0.18635 0.12129 0.0
C1950 C 0.79424 0.1893 0.03212 0.0
C1951 C 0.76314 0.18893 0.09074 0.0
N1952 N 0.83301 0.23151 0.05707 0.0
N1953 N 0.72168 0.15493 0.05875 0.0
H1954 H 0.75897 0.19874 0.14385 0.0
H1955 H 0.72932 0.17087 0.12523 0.0
H1956 H 0.71138 0.14137 0.03745 0.0
H1957 H 0.70864 0.15634 0.07685 0.0
H1958 H 0.84453 0.23545 0.03437 0.0
H1959 H 0.84241 0.24694 0.07687 0.0
H1960 H 0.83137 0.1977 1.00776 0.0
H1961 H 0.80183 0.17091 0.98746 0.0
loop_
_geom_bond_atom_site_label_1
_geom_bond_atom_site_label_2
_geom_bond_distance
_geom_bond_site_symmetry_2
_ccdc_geom_bond_type
Cu0 N1 1.999 . S
Cu0 O6 1.974 1_554 S
Cu0 N11 1.985 1_554 S
Cu0 O20 1.959 . S
N1 Cu0 1.999 . S
N1 C3 1.263 . S
N1 C5 1.389 . S
N2 C3 1.358 . S
N2 C4 1.400 . S
C3 N1 1.263 . S
C3 N2 1.358 . S
C3 H9 0.930 . S
C4 N2 1.400 . S
C4 C5 1.351 . S
C4 H21 0.930 . S
C5 N1 1.389 . S
C5 C4 1.351 . S
C5 H10 0.930 . S
O6 Cu0 1.974 1_556 S
O6 C16 1.282 . S
C7 O8 1.261 . S
C7 O20 1.251 . S
O8 C7 1.261 . S
H9 C3 0.930 . S
H10 C5 0.930 . S
N11 Cu0 1.985 1_556 S
N11 C13 1.335 . S
N11 C14 1.390 . S
N12 C13 1.345 . S
N12 C15 1.336 . S
C13 N11 1.335 . S
C13 N12 1.345 . S
C13 H18 0.930 . S
C14 N11 1.390 . S
C14 C15 1.346 . S
C14 H19 0.930 . S
C15 N12 1.336 . S
C15 C14 1.346 . S
C15 H22 0.929 . S
C16 O6 1.282 . S
C16 O17 1.234 . S
O17 C16 1.234 . S
H18 C13 0.930 . S
H19 C14 0.930 . S
O20 Cu0 1.959 . S
O20 C7 1.251 . S
H21 C4 0.930 . S
H22 C15 0.929 . S
Cu23 N24 1.999 1_554 S
Cu23 O29 1.974 . S
Cu23 N34 1.985 . S
Cu23 O43 1.959 1_554 S
N24 Cu23 1.999 1_556 S
N24 C26 1.263 . S
N24 C28 1.389 . S
N25 C26 1.358 . S
N25 C27 1.400 . S
C26 N24 1.263 . S
C26 N25 1.358 . S
C26 H32 0.930 . S
C27 N25 1.400 . S
C27 C28 1.351 . S
C27 H44 0.930 . S
C28 N24 1.389 . S
C28 C27 1.351 . S
C28 H33 0.930 . S
O29 Cu23 1.974 . S
O29 C39 1.282 . S
C30 O31 1.261 . S
C30 O43 1.251 . S
O31 C30 1.261 . S
H32 C26 0.930 . S
H33 C28 0.930 . S
N34 Cu23 1.985 . S
N34 C36 1.335 . S
N34 C37 1.390 . S
N35 C36 1.345 . S
N35 C38 1.336 . S
C36 N34 1.335 . S
C36 N35 1.345 . S
C36 H41 0.930 . S
C37 N34 1.390 . S
C37 C38 1.346 . S
C37 H42 0.930 . S
C38 N35 1.336 . S
C38 C37 1.346 . S
C38 H45 0.929 . S
C39 O29 1.282 . S
C39 O40 1.216 . S
O40 C39 1.216 . S
H41 C36 0.930 . S
H42 C37 0.930 . S
O43 Cu23 1.959 1_556 S
O43 C30 1.251 . S
H44 C27 0.930 . S
H45 C38 0.929 . S
Cu46 N47 1.999 1_544 S
Cu46 O52 1.974 1_545 S
Cu46 N57 1.985 . S
Cu46 O66 1.959 . S
N47 Cu46 1.999 1_566 S
N47 C49 1.263 1_565 S
N47 C51 1.389 . S
N48 C49 1.358 1_565 S
N48 C50 1.400 . S
C49 N47 1.263 1_545 S
C49 N48 1.358 1_545 S
C49 H55 0.930 . S
C50 N48 1.400 . S
C50 C51 1.351 . S
C50 H67 0.930 . S
C51 N47 1.389 . S
C51 C50 1.351 . S
C51 H56 0.930 . S
O52 Cu46 1.974 1_565 S
O52 C62 1.282 1_565 S
C53 O54 1.259 1_556 S
C53 O66 1.251 1_556 S
O54 C53 1.259 1_554 S
H55 C49 0.930 . S
H56 C51 0.930 . S
N57 Cu46 1.985 . S
N57 C59 1.335 . S
N57 C60 1.390 . S
N58 C59 1.345 . S
N58 C61 1.336 . S
C59 N57 1.335 . S
C59 N58 1.345 . S
C59 H64 0.930 . S
C60 N57 1.390 . S
C60 C61 1.346 . S
C60 H65 0.930 . S
C61 N58 1.336 . S
C61 C60 1.346 . S
C61 H68 0.929 . S
C62 O52 1.282 1_545 S
C62 O63 1.216 . S
O63 C62 1.216 . S
H64 C59 0.930 . S
H65 C60 0.930 . S
O66 Cu46 1.959 . S
O66 C53 1.251 1_554 S
H67 C50 0.930 . S
H68 C61 0.929 . S
Cu69 N70 1.999 . S
Cu69 O75 1.974 . S
Cu69 N80 1.985 . S
Cu69 O89 1.959 . S
N70 Cu69 1.999 . S
N70 C72 1.263 . S
N70 C74 1.389 . S
N71 C72 1.358 . S
N71 C73 1.400 . S
C72 N70 1.263 . S
C72 N71 1.358 . S
C72 H78 0.930 . S
C73 N71 1.400 . S
C73 C74 1.351 . S
C73 H90 0.930 . S
C74 N70 1.389 . S
C74 C73 1.351 . S
C74 H79 0.930 . S
O75 Cu69 1.974 . S
O75 C85 1.282 1_545 S
C76 O77 1.261 . S
C76 O89 1.251 . S
O77 C76 1.261 . S
H78 C72 0.930 . S
H79 C74 0.930 . S
N80 Cu69 1.985 . S
N80 C82 1.335 . S
N80 C83 1.390 . S
N81 C82 1.345 . S
N81 C84 1.353 . S
C82 N80 1.335 . S
C82 N81 1.345 . S
C82 H87 0.930 . S
C83 N80 1.390 . S
C83 C84 1.342 . S
C83 H88 0.930 1_545 S
C84 N81 1.353 . S
C84 C83 1.342 . S
C84 H91 0.919 1_545 S
C85 O75 1.282 1_565 S
C85 O86 1.216 . S
O86 C85 1.216 . S
H87 C82 0.930 . S
H88 C83 0.930 1_565 S
O89 Cu69 1.959 . S
O89 C76 1.251 . S
H90 C73 0.930 . S
H91 C84 0.919 1_565 S
Cu92 N93 1.999 . S
Cu92 O98 1.974 . S
Cu92 N103 1.985 . S
Cu92 O112 1.959 . S
N93 Cu92 1.999 . S
N93 C95 1.263 . S
N93 C97 1.389 . S
N94 C95 1.358 . S
N94 C96 1.400 . S
C95 N93 1.263 . S
C95 N94 1.358 . S
C95 H101 0.930 . S
C96 N94 1.400 . S
C96 C97 1.351 . S
C96 H113 0.930 . S
C97 N93 1.389 . S
C97 C96 1.351 . S
C97 H102 0.930 . S
O98 Cu92 1.974 . S
O98 C108 1.282 . S
C99 O100 1.261 . S
C99 O112 1.251 . S
O100 C99 1.261 . S
H101 C95 0.930 . S
H102 C97 0.930 . S
N103 Cu92 1.985 . S
N103 C105 1.335 . S
N103 C106 1.390 . S
N104 C105 1.345 . S
N104 C107 1.336 . S
C105 N103 1.335 . S
C105 N104 1.345 . S
C105 H110 0.930 . S
C106 N103 1.390 . S
C106 C107 1.346 . S
C106 H111 0.930 . S
C107 N104 1.336 . S
C107 C106 1.346 . S
C107 H114 0.929 . S
C108 O98 1.282 . S
C108 O109 1.216 . S
O109 C108 1.216 . S
H110 C105 0.930 . S
H111 C106 0.930 . S
O112 Cu92 1.959 . S
O112 C99 1.251 . S
H113 C96 0.930 . S
H114 C107 0.929 . S
Cu115 N116 1.999 . S
Cu115 O121 1.974 . S
Cu115 N126 1.985 . S
Cu115 O135 1.959 . S
N116 Cu115 1.999 . S
N116 C118 1.263 . S
N116 C120 1.389 . S
N117 C118 1.358 . S
N117 C119 1.400 . S
C118 N116 1.263 . S
C118 N117 1.358 . S
C118 H124 0.930 . S
C119 N117 1.400 . S
C119 C120 1.351 . S
C119 H136 0.930 . S
C120 N116 1.389 . S
C120 C119 1.351 . S
C120 H125 0.930 . S
O121 Cu115 1.974 . S
O121 C131 1.282 . S
C122 O123 1.261 . S
C122 O135 1.251 . S
O123 C122 1.261 . S
H124 C118 0.930 . S
H125 C120 0.930 . S
N126 Cu115 1.985 . S
N126 C128 1.335 . S
N126 C129 1.390 . S
N127 C128 1.345 . S
N127 C130 1.336 . S
C128 N126 1.335 . S
C128 N127 1.345 . S
C128 H133 0.930 . S
C129 N126 1.390 . S
C129 C130 1.346 . S
C129 H134 0.930 . S
C130 N127 1.336 . S
C130 C129 1.346 . S
C130 H137 0.929 . S
C131 O121 1.282 . S
C131 O132 1.216 . S
O132 C131 1.216 . S
H133 C128 0.930 . S
H134 C129 0.930 . S
O135 Cu115 1.959 . S
O135 C122 1.251 . S
H136 C119 0.930 . S
H137 C130 0.929 . S
Cu138 N139 1.999 . S
Cu138 O144 1.974 . S
Cu138 N149 1.985 . S
Cu138 O158 1.959 . S
N139 Cu138 1.999 . S
N139 C141 1.263 . S
N139 C143 1.389 . S
N140 C141 1.358 . S
N140 C142 1.400 . S
C141 N139 1.263 . S
C141 N140 1.358 . S
C141 H147 0.930 . S
C142 N140 1.400 . S
C142 C143 1.351 . S
C142 H159 0.930 . S
C143 N139 1.389 . S
C143 C142 1.351 . S
C143 H148 0.930 . S
O144 Cu138 1.974 . S
O144 C154 1.282 . S
C145 O146 1.261 . S
C145 O158 1.251 . S
O146 C145 1.261 . S
H147 C141 0.930 . S
H148 C143 0.930 . S
N149 Cu138 1.985 . S
N149 C151 1.335 . S
N149 C152 1.390 . S
N150 C151 1.345 . S
N150 C153 1.336 . S
C151 N149 1.335 . S
C151 N150 1.345 . S
C151 H156 0.930 . S
C152 N149 1.390 . S
C152 C153 1.346 . S
C152 H157 0.930 . S
C153 N150 1.336 . S
C153 C152 1.346 . S
C153 H160 0.929 . S
C154 O144 1.282 . S
C154 O155 1.216 . S
O155 C154 1.216 . S
H156 C151 0.930 . S
H157 C152 0.930 . S
O158 Cu138 1.959 . S
O158 C145 1.251 . S
H159 C142 0.930 . S
H160 C153 0.929 . S
Cu161 N162 1.999 . S
Cu161 O167 1.974 . S
Cu161 N172 1.985 . S
Cu161 O181 1.959 . S
N162 Cu161 1.999 . S
N162 C164 1.263 . S
N162 C166 1.389 . S
N163 C164 1.358 . S
N163 C165 1.400 . S
C164 N162 1.263 . S
C164 N163 1.358 . S
C164 H170 0.930 . S
C165 N163 1.400 . S
C165 C166 1.351 . S
C165 H182 0.930 . S
C166 N162 1.389 . S
C166 C165 1.351 . S
C166 H171 0.930 . S
O167 Cu161 1.974 . S
O167 C177 1.282 . S
C168 O169 1.261 . S
C168 O181 1.251 . S
O169 C168 1.261 . S
H170 C164 0.930 . S
H171 C166 0.930 . S
N172 Cu161 1.985 . S
N172 C174 1.335 . S
N172 C175 1.390 . S
N173 C174 1.345 . S
N173 C176 1.336 . S
C174 N172 1.335 . S
C174 N173 1.345 . S
C174 H179 0.930 . S
C175 N172 1.390 . S
C175 C176 1.346 . S
C175 H180 0.930 . S
C176 N173 1.336 . S
C176 C175 1.346 . S
C176 H183 0.929 . S
C177 O167 1.282 . S
C177 O178 1.216 . S
O178 C177 1.216 . S
H179 C174 0.930 . S
H180 C175 0.930 . S
O181 Cu161 1.959 . S
O181 C168 1.251 . S
H182 C165 0.930 . S
H183 C176 0.929 . S
Cu184 N185 1.999 . S
Cu184 O190 1.974 . S
Cu184 N195 1.985 . S
Cu184 O204 1.959 . S
N185 Cu184 1.999 . S
N185 C187 1.263 . S
N185 C189 1.389 . S
N186 C187 1.358 . S
N186 C188 1.400 . S
C187 N185 1.263 . S
C187 N186 1.358 . S
C187 H193 0.930 . S
C188 N186 1.400 . S
C188 C189 1.351 . S
C188 H205 0.930 . S
C189 N185 1.389 . S
C189 C188 1.351 . S
C189 H194 0.930 . S
O190 Cu184 1.974 . S
O190 C200 1.282 . S
C191 O192 1.261 . S
C191 O204 1.251 . S
O192 C191 1.261 . S
H193 C187 0.930 . S
H194 C189 0.930 . S
N195 Cu184 1.985 . S
N195 C197 1.335 . S
N195 C198 1.390 . S
N196 C197 1.345 . S
N196 C199 1.336 . S
C197 N195 1.335 . S
C197 N196 1.345 . S
C197 H202 0.930 . S
C198 N195 1.390 . S
C198 C199 1.346 . S
C198 H203 0.930 . S
C199 N196 1.336 . S
C199 C198 1.346 . S
C199 H206 0.929 . S
C200 O190 1.282 . S
C200 O201 1.216 . S
O201 C200 1.216 . S
H202 C197 0.930 . S
H203 C198 0.930 . S
O204 Cu184 1.959 . S
O204 C191 1.251 . S
H205 C188 0.930 . S
H206 C199 0.929 . S
Cu207 N208 1.999 . S
Cu207 O213 1.974 . S
Cu207 N218 1.985 . S
Cu207 O227 1.959 . S
N208 Cu207 1.999 . S
N208 C210 1.263 . S
N208 C212 1.389 . S
N209 C210 1.358 . S
N209 C211 1.400 . S
C210 N208 1.263 . S
C210 N209 1.358 . S
C210 H216 0.930 . S
C211 N209 1.400 . S
C211 C212 1.351 . S
C211 H228 0.930 . S
C212 N208 1.389 . S
C212 C211 1.351 . S
C212 H217 0.930 . S
O213 Cu207 1.974 . S
O213 C223 1.282 . S
C214 O215 1.261 . S
C214 O227 1.251 . S
O215 C214 1.261 . S
H216 C210 0.930 . S
H217 C212 0.930 . S
N218 Cu207 1.985 . S
N218 C220 1.335 . S
N218 C221 1.390 . S
N219 C220 1.345 . S
N219 C222 1.336 . S
C220 N218 1.335 . S
C220 N219 1.345 . S
C220 H225 0.930 . S
C221 N218 1.390 . S
C221 C222 1.346 . S
C221 H226 0.930 . S
C222 N219 1.336 . S
C222 C221 1.346 . S
C222 H229 0.929 . S
C223 O213 1.282 . S
C223 O224 1.216 . S
O224 C223 1.216 . S
H225 C220 0.930 . S
H226 C221 0.930 . S
O227 Cu207 1.959 . S
O227 C214 1.251 . S
H228 C211 0.930 . S
H229 C222 0.929 . S
Cu230 N231 1.999 . S
Cu230 O236 1.974 . S
Cu230 N241 1.985 . S
Cu230 O250 1.959 . S
N231 Cu230 1.999 . S
N231 C233 1.263 . S
N231 C235 1.389 . S
N232 C233 1.358 . S
N232 C234 1.400 . S
C233 N231 1.263 . S
C233 N232 1.358 . S
C233 H239 0.930 . S
C234 N232 1.400 . S
C234 C235 1.351 . S
C234 H251 0.930 . S
C235 N231 1.389 . S
C235 C234 1.351 . S
C235 H240 0.930 . S
O236 Cu230 1.974 . S
O236 C246 1.282 . S
C237 O238 1.261 . S
C237 O250 1.251 . S
O238 C237 1.261 . S
H239 C233 0.930 . S
H240 C235 0.930 . S
N241 Cu230 1.985 . S
N241 C243 1.335 . S
N241 C244 1.390 . S
N242 C243 1.345 . S
N242 C245 1.336 . S
C243 N241 1.335 . S
C243 N242 1.345 . S
C243 H248 0.930 . S
C244 N241 1.390 . S
C244 C245 1.346 . S
C244 H249 0.930 . S
C245 N242 1.336 . S
C245 C244 1.346 . S
C245 H252 0.929 . S
C246 O236 1.282 . S
C246 O247 1.216 . S
O247 C246 1.216 . S
H248 C243 0.930 . S
H249 C244 0.930 . S
O250 Cu230 1.959 . S
O250 C237 1.251 . S
H251 C234 0.930 . S
H252 C245 0.929 . S
Cu253 N254 1.999 . S
Cu253 O259 1.974 . S
Cu253 N264 1.985 . S
Cu253 O273 1.959 . S
N254 Cu253 1.999 . S
N254 C256 1.263 . S
N254 C258 1.389 . S
N255 C256 1.358 . S
N255 C257 1.400 . S
C256 N254 1.263 . S
C256 N255 1.358 . S
C256 H262 0.930 . S
C257 N255 1.400 . S
C257 C258 1.351 . S
C257 H274 0.930 . S
C258 N254 1.389 . S
C258 C257 1.351 . S
C258 H263 0.930 . S
O259 Cu253 1.974 . S
O259 C269 1.282 . S
C260 O261 1.261 . S
C260 O273 1.251 . S
O261 C260 1.261 . S
H262 C256 0.930 . S
H263 C258 0.930 . S
N264 Cu253 1.985 . S
N264 C266 1.335 . S
N264 C267 1.390 . S
N265 C266 1.345 . S
N265 C268 1.336 . S
C266 N264 1.335 . S
C266 N265 1.345 . S
C266 H271 0.930 . S
C267 N264 1.390 . S
C267 C268 1.346 . S
C267 H272 0.930 . S
C268 N265 1.336 . S
C268 C267 1.346 . S
C268 H275 0.929 . S
C269 O259 1.282 . S
C269 O270 1.216 . S
O270 C269 1.216 . S
H271 C266 0.930 . S
H272 C267 0.930 . S
O273 Cu253 1.959 . S
O273 C260 1.251 . S
H274 C257 0.930 . S
H275 C268 0.929 . S
Cu276 N277 1.999 . S
Cu276 O282 1.974 . S
Cu276 N287 1.985 . S
Cu276 O296 1.959 . S
N277 Cu276 1.999 . S
N277 C279 1.263 . S
N277 C281 1.389 . S
N278 C279 1.358 . S
N278 C280 1.400 . S
C279 N277 1.263 . S
C279 N278 1.358 . S
C279 H285 0.930 . S
C280 N278 1.400 . S
C280 C281 1.351 . S
C280 H297 0.930 . S
C281 N277 1.389 . S
C281 C280 1.351 . S
C281 H286 0.930 . S
O282 Cu276 1.974 . S
O282 C292 1.282 . S
C283 O284 1.261 . S
C283 O296 1.251 . S
O284 C283 1.261 . S
H285 C279 0.930 . S
H286 C281 0.930 . S
N287 Cu276 1.985 . S
N287 C289 1.335 . S
N287 C290 1.390 . S
N288 C289 1.345 . S
N288 C291 1.336 . S
C289 N287 1.335 . S
C289 N288 1.345 . S
C289 H294 0.930 . S
C290 N287 1.390 . S
C290 C291 1.346 . S
C290 H295 0.930 . S
C291 N288 1.336 . S
C291 C290 1.346 . S
C291 H298 0.929 . S
C292 O282 1.282 . S
C292 O293 1.216 . S
O293 C292 1.216 . S
H294 C289 0.930 . S
H295 C290 0.930 . S
O296 Cu276 1.959 . S
O296 C283 1.251 . S
H297 C280 0.930 . S
H298 C291 0.929 . S
Cu299 N300 1.999 . S
Cu299 O305 1.974 . S
Cu299 N310 1.985 . S
Cu299 O319 1.959 . S
N300 Cu299 1.999 . S
N300 C302 1.263 . S
N300 C304 1.389 . S
N301 C302 1.358 . S
N301 C303 1.400 . S
C302 N300 1.263 . S
C302 N301 1.358 . S
C302 H308 0.930 . S
C303 N301 1.400 . S
C303 C304 1.351 . S
C303 H320 0.930 . S
C304 N300 1.389 . S
C304 C303 1.351 . S
C304 H309 0.930 . S
O305 Cu299 1.974 . S
O305 C315 1.282 . S
C306 O307 1.261 . S
C306 O319 1.251 . S
O307 C306 1.261 . S
H308 C302 0.930 . S
H309 C304 0.930 . S
N310 Cu299 1.985 . S
N310 C312 1.335 . S
N310 C313 1.390 . S
N311 C312 1.345 . S
N311 C314 1.336 . S
C312 N310 1.335 . S
C312 N311 1.345 . S
C312 H317 0.930 . S
C313 N310 1.390 . S
C313 C314 1.346 . S
C313 H318 0.930 . S
C314 N311 1.336 . S
C314 C313 1.346 . S
C314 H321 0.929 . S
C315 O305 1.282 . S
C315 O316 1.216 . S
O316 C315 1.216 . S
H317 C312 0.930 . S
H318 C313 0.930 . S
O319 Cu299 1.959 . S
O319 C306 1.251 . S
H320 C303 0.930 . S
H321 C314 0.929 . S
Cu322 N323 1.999 . S
Cu322 O328 1.974 . S
Cu322 N333 1.985 . S
Cu322 O342 1.959 . S
N323 Cu322 1.999 . S
N323 C325 1.263 . S
N323 C327 1.389 . S
N324 C325 1.358 . S
N324 C326 1.400 . S
C325 N323 1.263 . S
C325 N324 1.358 . S
C325 H331 0.930 . S
C326 N324 1.400 . S
C326 C327 1.351 . S
C326 H343 0.930 . S
C327 N323 1.389 . S
C327 C326 1.351 . S
C327 H332 0.930 . S
O328 Cu322 1.974 . S
O328 C338 1.282 . S
C329 O330 1.261 . S
C329 O342 1.251 . S
O330 C329 1.261 . S
H331 C325 0.930 . S
H332 C327 0.930 . S
N333 Cu322 1.985 . S
N333 C335 1.335 . S
N333 C336 1.390 . S
N334 C335 1.345 . S
N334 C337 1.336 . S
C335 N333 1.335 . S
C335 N334 1.345 . S
C335 H340 0.930 . S
C336 N333 1.390 . S
C336 C337 1.346 . S
C336 H341 0.930 . S
C337 N334 1.336 . S
C337 C336 1.346 . S
C337 H344 0.929 . S
C338 O328 1.282 . S
C338 O339 1.216 . S
O339 C338 1.216 . S
H340 C335 0.930 . S
H341 C336 0.930 . S
O342 Cu322 1.959 . S
O342 C329 1.251 . S
H343 C326 0.930 . S
H344 C337 0.929 . S
Cu345 N346 1.999 . S
Cu345 O351 1.974 . S
Cu345 N356 1.985 . S
Cu345 O365 1.959 . S
N346 Cu345 1.999 . S
N346 C348 1.263 . S
N346 C350 1.389 . S
N347 C348 1.358 . S
N347 C349 1.400 . S
C348 N346 1.263 . S
C348 N347 1.358 . S
C348 H354 0.930 . S
C349 N347 1.400 . S
C349 C350 1.351 . S
C349 H366 0.930 . S
C350 N346 1.389 . S
C350 C349 1.351 . S
C350 H355 0.930 . S
O351 Cu345 1.974 . S
O351 C361 1.282 . S
C352 O353 1.261 . S
C352 O365 1.251 . S
O353 C352 1.261 . S
H354 C348 0.930 . S
H355 C350 0.930 . S
N356 Cu345 1.985 . S
N356 C358 1.335 . S
N356 C359 1.390 . S
N357 C358 1.345 . S
N357 C360 1.336 . S
C358 N356 1.335 . S
C358 N357 1.345 . S
C358 H363 0.930 . S
C359 N356 1.390 . S
C359 C360 1.346 . S
C359 H364 0.930 . S
C360 N357 1.336 . S
C360 C359 1.346 . S
C360 H367 0.929 . S
C361 O351 1.282 . S
C361 O362 1.216 . S
O362 C361 1.216 . S
H363 C358 0.930 . S
H364 C359 0.930 . S
O365 Cu345 1.959 . S
O365 C352 1.251 . S
H366 C349 0.930 . S
H367 C360 0.929 . S
Cu368 N369 1.999 . S
Cu368 O374 1.974 . S
Cu368 N379 1.985 . S
Cu368 O388 1.959 . S
N369 Cu368 1.999 . S
N369 C371 1.263 . S
N369 C373 1.389 . S
N370 C371 1.358 . S
N370 C372 1.400 . S
C371 N369 1.263 . S
C371 N370 1.358 . S
C371 H377 0.930 . S
C372 N370 1.400 . S
C372 C373 1.351 . S
C372 H389 0.930 . S
C373 N369 1.389 . S
C373 C372 1.351 . S
C373 H378 0.930 . S
O374 Cu368 1.974 . S
O374 C384 1.282 . S
C375 O376 1.261 . S
C375 O388 1.251 . S
O376 C375 1.261 . S
H377 C371 0.930 . S
H378 C373 0.930 . S
N379 Cu368 1.985 . S
N379 C381 1.335 . S
N379 C382 1.390 . S
N380 C381 1.345 . S
N380 C383 1.336 . S
C381 N379 1.335 . S
C381 N380 1.345 . S
C381 H386 0.930 . S
C382 N379 1.390 . S
C382 C383 1.346 . S
C382 H387 0.930 . S
C383 N380 1.336 . S
C383 C382 1.346 . S
C383 H390 0.929 . S
C384 O374 1.282 . S
C384 O385 1.216 . S
O385 C384 1.216 . S
H386 C381 0.930 . S
H387 C382 0.930 . S
O388 Cu368 1.959 . S
O388 C375 1.251 . S
H389 C372 0.930 . S
H390 C383 0.929 . S
Cu391 N392 1.999 . S
Cu391 O397 1.974 . S
Cu391 N402 1.985 . S
Cu391 O411 1.959 . S
N392 Cu391 1.999 . S
N392 C394 1.263 . S
N392 C396 1.389 . S
N393 C394 1.358 . S
N393 C395 1.400 . S
C394 N392 1.263 . S
C394 N393 1.358 . S
C394 H400 0.930 . S
C395 N393 1.400 . S
C395 C396 1.351 . S
C395 H412 0.930 . S
C396 N392 1.389 . S
C396 C395 1.351 . S
C396 H401 0.930 . S
O397 Cu391 1.974 . S
O397 C407 1.282 . S
C398 O399 1.261 . S
C398 O411 1.251 . S
O399 C398 1.261 . S
H400 C394 0.930 . S
H401 C396 0.930 . S
N402 Cu391 1.985 . S
N402 C404 1.335 . S
N402 C405 1.390 . S
N403 C404 1.345 . S
N403 C406 1.336 . S
C404 N402 1.335 . S
C404 N403 1.345 . S
C404 H409 0.930 . S
C405 N402 1.390 . S
C405 C406 1.346 . S
C405 H410 0.930 . S
C406 N403 1.336 . S
C406 C405 1.346 . S
C406 H413 0.929 . S
C407 O397 1.282 . S
C407 O408 1.216 . S
O408 C407 1.216 . S
H409 C404 0.930 . S
H410 C405 0.930 . S
O411 Cu391 1.959 . S
O411 C398 1.251 . S
H412 C395 0.930 . S
H413 C406 0.929 . S
Co414 O415 2.216 . S
Co414 O416 2.091 1_455 S
Co414 O418 2.004 1_455 S
Co414 O424 2.021 . S
Co414 O426 2.141 1_455 S
Co414 O427 2.244 . S
O415 Co414 2.216 . S
O415 C422 1.247 . S
O416 Co414 2.091 1_655 S
O416 C422 1.261 1_655 S
C417 O426 1.243 1_455 S
C417 O427 1.272 . S
O418 Co414 2.004 1_655 S
O418 C423 1.259 . S
Co419 O420 2.061 1_455 S
Co419 O425 2.052 . S
Co419 O427 2.135 . S
O420 Co419 2.061 1_655 S
O420 C423 1.235 . S
C421 O424 1.238 . S
C421 O425 1.241 . S
C422 O415 1.247 . S
C422 O416 1.261 1_455 S
C423 O418 1.259 . S
C423 O420 1.235 . S
O424 Co414 2.021 . S
O424 C421 1.238 . S
O425 Co419 2.052 . S
O425 C421 1.241 . S
O426 Co414 2.141 1_655 S
O426 C417 1.243 1_655 S
O427 Co414 2.244 . S
O427 C417 1.272 . S
O427 Co419 2.135 . S
Co428 O429 2.216 . S
Co428 O430 2.091 . S
Co428 O432 2.004 . S
Co428 O438 2.021 . S
Co428 O440 2.137 . S
Co428 O441 2.244 . S
O429 Co428 2.216 . S
O429 C436 1.247 . S
O430 Co428 2.091 . S
O430 C436 1.261 . S
C431 O440 1.247 . S
C431 O441 1.272 . S
O432 Co428 2.004 . S
O432 C437 1.259 . S
Co433 O434 2.061 . S
Co433 O439 2.052 . S
Co433 O441 2.135 . S
O434 Co433 2.061 . S
O434 C437 1.235 . S
C435 O438 1.238 . S
C435 O439 1.241 . S
C436 O429 1.247 . S
C436 O430 1.261 . S
C437 O432 1.259 . S
C437 O434 1.235 . S
O438 Co428 2.021 . S
O438 C435 1.238 . S
O439 Co433 2.052 . S
O439 C435 1.241 . S
O440 Co428 2.137 . S
O440 C431 1.247 . S
O441 Co428 2.244 . S
O441 C431 1.272 . S
O441 Co433 2.135 . S
Co442 O443 2.216 . S
Co442 O444 2.091 . S
Co442 O446 2.004 . S
Co442 O452 2.021 . S
Co442 O454 2.137 . S
Co442 O455 2.244 . S
O443 Co442 2.216 . S
O443 C450 1.247 . S
O444 Co442 2.091 . S
O444 C450 1.261 . S
C445 O454 1.247 . S
C445 O455 1.272 . S
O446 Co442 2.004 . S
O446 C451 1.259 . S
Co447 O448 2.061 . S
Co447 O453 2.052 . S
Co447 O455 2.135 . S
O448 Co447 2.061 . S
O448 C451 1.235 . S
C449 O452 1.238 . S
C449 O453 1.241 . S
C450 O443 1.247 . S
C450 O444 1.261 . S
C451 O446 1.259 . S
C451 O448 1.235 . S
O452 Co442 2.021 . S
O452 C449 1.238 . S
O453 Co447 2.052 . S
O453 C449 1.241 . S
O454 Co442 2.137 . S
O454 C445 1.247 . S
O455 Co442 2.244 . S
O455 C445 1.272 . S
O455 Co447 2.135 . S
Co456 O457 2.216 . S
Co456 O458 2.091 . S
Co456 O460 2.004 . S
Co456 O466 2.021 . S
Co456 O468 2.137 1_455 S
Co456 O469 2.244 1_455 S
O457 Co456 2.216 . S
O457 C464 1.247 . S
O458 Co456 2.091 . S
O458 C464 1.261 . S
C459 O468 1.247 . S
C459 O469 1.272 . S
O460 Co456 2.004 . S
O460 C465 1.259 . S
Co461 O462 2.061 1_655 S
Co461 O467 2.052 1_655 S
Co461 O469 2.135 . S
O462 Co461 2.061 1_455 S
O462 C465 1.235 . S
C463 O466 1.238 . S
C463 O467 1.241 . S
C464 O457 1.247 . S
C464 O458 1.261 . S
C465 O460 1.259 . S
C465 O462 1.235 . S
O466 Co456 2.021 . S
O466 C463 1.238 . S
O467 Co461 2.052 1_455 S
O467 C463 1.241 . S
O468 Co456 2.137 1_655 S
O468 C459 1.247 . S
O469 Co456 2.244 1_655 S
O469 C459 1.272 . S
O469 Co461 2.135 . S
Co470 O471 2.216 . S
Co470 O472 2.091 . S
Co470 O474 2.004 . S
Co470 O480 2.021 . S
Co470 O482 2.137 . S
Co470 O483 2.244 . S
O471 Co470 2.216 . S
O471 C478 1.247 . S
O472 Co470 2.091 . S
O472 C478 1.261 . S
C473 O482 1.247 . S
C473 O483 1.272 . S
O474 Co470 2.004 . S
O474 C479 1.259 . S
Co475 O476 2.061 . S
Co475 O481 2.052 . S
Co475 O483 2.135 . S
O476 Co475 2.061 . S
O476 C479 1.235 . S
C477 O480 1.238 . S
C477 O481 1.241 . S
C478 O471 1.247 . S
C478 O472 1.261 . S
C479 O474 1.259 . S
C479 O476 1.235 . S
O480 Co470 2.021 . S
O480 C477 1.238 . S
O481 Co475 2.052 . S
O481 C477 1.241 . S
O482 Co470 2.137 . S
O482 C473 1.247 . S
O483 Co470 2.244 . S
O483 C473 1.272 . S
O483 Co475 2.135 . S
Co484 O485 2.216 . S
Co484 O486 2.074 1_545 S
Co484 O488 2.004 1_545 S
Co484 O494 2.021 . S
Co484 O496 2.137 . S
Co484 O497 2.244 . S
O485 Co484 2.216 . S
O485 C492 1.247 . S
O486 Co484 2.074 1_565 S
O486 C492 1.252 1_565 S
C487 O496 1.247 . S
C487 O497 1.272 . S
O488 Co484 2.004 1_565 S
O488 C493 1.259 . S
Co489 O490 2.061 . S
Co489 O495 2.052 . S
Co489 O497 2.135 . S
O490 Co489 2.061 . S
O490 C493 1.235 1_545 S
C491 O494 1.238 . S
C491 O495 1.241 . S
C492 O485 1.247 . S
C492 O486 1.252 1_545 S
C493 O488 1.259 . S
C493 O490 1.235 1_565 S
O494 Co484 2.021 . S
O494 C491 1.238 . S
O495 Co489 2.052 . S
O495 C491 1.241 . S
O496 Co484 2.137 . S
O496 C487 1.247 . S
O497 Co484 2.244 . S
O497 C487 1.272 . S
O497 Co489 2.135 . S
Co498 O499 2.216 . S
Co498 O500 2.091 . S
Co498 O502 2.004 . S
Co498 O508 2.021 1_565 S
Co498 O510 2.137 . S
Co498 O511 2.244 . S
O499 Co498 2.216 . S
O499 C506 1.247 . S
O500 Co498 2.091 . S
O500 C506 1.261 . S
C501 O510 1.247 . S
C501 O511 1.307 . S
O502 Co498 2.004 . S
O502 C507 1.259 1_565 S
Co503 O504 2.061 . S
Co503 O509 2.052 . S
Co503 O511 2.096 1_545 S
O504 Co503 2.061 . S
O504 C507 1.235 . S
C505 O508 1.238 . S
C505 O509 1.241 . S
C506 O499 1.247 . S
C506 O500 1.261 . S
C507 O502 1.259 1_545 S
C507 O504 1.235 . S
O508 Co498 2.021 1_545 S
O508 C505 1.238 . S
O509 Co503 2.052 . S
O509 C505 1.241 . S
O510 Co498 2.137 . S
O510 C501 1.247 . S
O511 Co498 2.244 . S
O511 C501 1.307 . S
O511 Co503 2.096 1_565 S
Co512 O513 2.216 . S
Co512 O514 2.091 . S
Co512 O516 2.004 . S
Co512 O522 2.021 . S
Co512 O524 2.137 . S
Co512 O525 2.244 . S
O513 Co512 2.216 . S
O513 C520 1.247 . S
O514 Co512 2.091 . S
O514 C520 1.261 . S
C515 O524 1.247 . S
C515 O525 1.272 . S
O516 Co512 2.004 . S
O516 C521 1.259 . S
Co517 O518 2.061 . S
Co517 O523 2.052 . S
Co517 O525 2.135 . S
O518 Co517 2.061 . S
O518 C521 1.235 . S
C519 O522 1.238 . S
C519 O523 1.241 . S
C520 O513 1.247 . S
C520 O514 1.261 . S
C521 O516 1.259 . S
C521 O518 1.235 . S
O522 Co512 2.021 . S
O522 C519 1.238 . S
O523 Co517 2.052 . S
O523 C519 1.241 . S
O524 Co512 2.137 . S
O524 C515 1.247 . S
O525 Co512 2.244 . S
O525 C515 1.272 . S
O525 Co517 2.135 . S
Co526 O527 2.216 . S
Co526 O528 2.091 . S
Co526 O530 2.004 . S
Co526 O536 2.021 . S
Co526 O538 2.137 . S
Co526 O539 2.244 . S
O527 Co526 2.216 . S
O527 C534 1.247 . S
O528 Co526 2.091 . S
O528 C534 1.261 . S
C529 O538 1.247 . S
C529 O539 1.272 . S
O530 Co526 2.004 . S
O530 C535 1.259 . S
Co531 O532 2.061 . S
Co531 O537 2.052 . S
Co531 O539 2.135 . S
O532 Co531 2.061 . S
O532 C535 1.235 . S
C533 O536 1.238 . S
C533 O537 1.241 . S
C534 O527 1.247 . S
C534 O528 1.261 . S
C535 O530 1.259 . S
C535 O532 1.235 . S
O536 Co526 2.021 . S
O536 C533 1.238 . S
O537 Co531 2.052 . S
O537 C533 1.241 . S
O538 Co526 2.137 . S
O538 C529 1.247 . S
O539 Co526 2.244 . S
O539 C529 1.272 . S
O539 Co531 2.135 . S
Co540 O541 2.216 . S
Co540 O542 2.091 . S
Co540 O544 2.004 . S
Co540 O550 2.021 . S
Co540 O552 2.137 . S
Co540 O553 2.244 . S
O541 Co540 2.216 . S
O541 C548 1.247 . S
O542 Co540 2.091 . S
O542 C548 1.261 . S
C543 O552 1.247 . S
C543 O553 1.272 . S
O544 Co540 2.004 . S
O544 C549 1.259 . S
Co545 O546 2.061 . S
Co545 O551 2.052 . S
Co545 O553 2.135 . S
O546 Co545 2.061 . S
O546 C549 1.235 . S
C547 O550 1.238 . S
C547 O551 1.241 . S
C548 O541 1.247 . S
C548 O542 1.261 . S
C549 O544 1.259 . S
C549 O546 1.235 . S
O550 Co540 2.021 . S
O550 C547 1.238 . S
O551 Co545 2.052 . S
O551 C547 1.241 . S
O552 Co540 2.137 . S
O552 C543 1.247 . S
O553 Co540 2.244 . S
O553 C543 1.272 . S
O553 Co545 2.135 . S
Co554 O555 2.216 . S
Co554 O556 2.091 . S
Co554 O558 2.004 . S
Co554 O564 2.021 . S
Co554 O566 2.137 1_565 S
Co554 O567 2.244 1_565 S
O555 Co554 2.216 . S
O555 C562 1.247 . S
O556 Co554 2.091 . S
O556 C562 1.261 . S
C557 O566 1.247 . S
C557 O567 1.272 . S
O558 Co554 2.004 . S
O558 C563 1.259 1_565 S
Co559 O560 2.061 . S
Co559 O565 2.052 1_545 S
Co559 O567 2.135 . S
O560 Co559 2.061 . S
O560 C563 1.235 . S
C561 O564 1.238 . S
C561 O565 1.241 . S
C562 O555 1.247 . S
C562 O556 1.261 . S
C563 O558 1.259 1_545 S
C563 O560 1.235 . S
O564 Co554 2.021 . S
O564 C561 1.238 . S
O565 Co559 2.052 1_565 S
O565 C561 1.241 . S
O566 Co554 2.137 1_545 S
O566 C557 1.247 . S
O567 Co554 2.244 1_545 S
O567 C557 1.272 . S
O567 Co559 2.135 . S
Co568 O569 2.216 . S
Co568 O570 2.091 . S
Co568 O572 2.004 . S
Co568 O578 2.021 . S
Co568 O580 2.137 . S
Co568 O581 2.244 . S
O569 Co568 2.216 . S
O569 C576 1.247 . S
O570 Co568 2.091 . S
O570 C576 1.261 . S
C571 O580 1.247 . S
C571 O581 1.272 . S
O572 Co568 2.004 . S
O572 C577 1.259 1_455 S
Co573 O574 2.061 . S
Co573 O579 2.052 . S
Co573 O581 2.135 . S
O574 Co573 2.061 . S
O574 C577 1.235 1_455 S
C575 O578 1.238 . S
C575 O579 1.241 . S
C576 O569 1.247 . S
C576 O570 1.261 . S
C577 O572 1.259 1_655 S
C577 O574 1.235 1_655 S
O578 Co568 2.021 . S
O578 C575 1.238 . S
O579 Co573 2.052 . S
O579 C575 1.241 . S
O580 Co568 2.137 . S
O580 C571 1.247 . S
O581 Co568 2.244 . S
O581 C571 1.272 . S
O581 Co573 2.135 . S
Co582 O583 2.216 . S
Co582 O584 2.091 . S
Co582 O586 2.004 . S
Co582 O592 2.021 . S
Co582 O594 2.137 . S
Co582 O595 2.244 . S
O583 Co582 2.216 . S
O583 C590 1.247 1_556 S
O584 Co582 2.091 . S
O584 C590 1.261 1_556 S
C585 O594 1.247 . S
C585 O595 1.272 . S
O586 Co582 2.004 . S
O586 C591 1.259 . S
Co587 O588 2.061 . S
Co587 O593 2.052 . S
Co587 O595 2.135 . S
O588 Co587 2.061 . S
O588 C591 1.235 . S
C589 O592 1.238 . S
C589 O593 1.241 . S
C590 O583 1.247 1_554 S
C590 O584 1.261 1_554 S
C591 O586 1.259 . S
C591 O588 1.235 . S
O592 Co582 2.021 . S
O592 C589 1.238 . S
O593 Co587 2.052 . S
O593 C589 1.241 . S
O594 Co582 2.137 . S
O594 C585 1.247 . S
O595 Co582 2.244 . S
O595 C585 1.272 . S
O595 Co587 2.135 . S
Co596 O597 2.216 . S
Co596 O598 2.091 . S
Co596 O600 2.004 . S
Co596 O606 2.021 . S
Co596 O608 2.137 . S
Co596 O609 2.244 . S
O597 Co596 2.216 . S
O597 C604 1.247 . S
O598 Co596 2.091 . S
O598 C604 1.261 . S
C599 O608 1.247 . S
C599 O609 1.272 . S
O600 Co596 2.004 . S
O600 C605 1.259 . S
Co601 O602 2.061 . S
Co601 O607 2.052 . S
Co601 O609 2.135 . S
O602 Co601 2.061 . S
O602 C605 1.235 . S
C603 O606 1.238 . S
C603 O607 1.241 . S
C604 O597 1.247 . S
C604 O598 1.261 . S
C605 O600 1.259 . S
C605 O602 1.235 . S
O606 Co596 2.021 . S
O606 C603 1.238 . S
O607 Co601 2.052 . S
O607 C603 1.241 . S
O608 Co596 2.137 . S
O608 C599 1.247 . S
O609 Co596 2.244 . S
O609 C599 1.272 . S
O609 Co601 2.135 . S
Co610 O611 2.216 . S
Co610 O612 2.091 . S
Co610 O614 2.004 1_655 S
Co610 O620 2.021 . S
Co610 O622 2.137 . S
Co610 O623 2.244 . S
O611 Co610 2.216 . S
O611 C618 1.247 . S
O612 Co610 2.091 . S
O612 C618 1.261 . S
C613 O622 1.247 . S
C613 O623 1.272 . S
O614 Co610 2.004 1_455 S
O614 C619 1.259 . S
Co615 O616 2.056 1_655 S
Co615 O621 2.046 . S
Co615 O623 2.167 . S
O616 Co615 2.056 1_455 S
O616 C619 1.235 . S
C617 O620 1.238 . S
C617 O621 1.241 . S
C618 O611 1.247 . S
C618 O612 1.261 . S
C619 O614 1.259 . S
C619 O616 1.235 . S
O620 Co610 2.021 . S
O620 C617 1.238 . S
O621 Co615 2.046 . S
O621 C617 1.241 . S
O622 Co610 2.137 . S
O622 C613 1.247 . S
O623 Co610 2.244 . S
O623 C613 1.272 . S
O623 Co615 2.167 . S
Co624 O625 2.216 . S
Co624 O626 2.091 . S
Co624 O628 2.004 . S
Co624 O634 2.021 . S
Co624 O636 2.137 . S
Co624 O637 2.244 . S
O625 Co624 2.216 . S
O625 C632 1.247 . S
O626 Co624 2.091 . S
O626 C632 1.261 . S
C627 O636 1.247 . S
C627 O637 1.272 . S
O628 Co624 2.004 . S
O628 C633 1.259 . S
Co629 O630 2.061 . S
Co629 O635 2.052 . S
Co629 O637 2.135 . S
O630 Co629 2.061 . S
O630 C633 1.235 . S
C631 O634 1.238 . S
C631 O635 1.241 . S
C632 O625 1.247 . S
C632 O626 1.261 . S
C633 O628 1.259 . S
C633 O630 1.235 . S
O634 Co624 2.021 . S
O634 C631 1.238 . S
O635 Co629 2.052 . S
O635 C631 1.241 . S
O636 Co624 2.137 . S
O636 C627 1.247 . S
O637 Co624 2.244 . S
O637 C627 1.272 . S
O637 Co629 2.135 . S
Co638 O639 2.216 . S
Co638 O640 2.091 . S
Co638 O642 2.004 1_655 S
Co638 O648 2.021 . S
Co638 O650 2.137 . S
Co638 O651 2.244 . S
O639 Co638 2.216 . S
O639 C646 1.247 . S
O640 Co638 2.091 . S
O640 C646 1.261 . S
C641 O650 1.247 . S
C641 O651 1.272 . S
O642 Co638 2.004 1_455 S
O642 C647 1.259 . S
Co643 O644 2.061 1_655 S
Co643 O649 2.052 . S
Co643 O651 2.135 . S
O644 Co643 2.061 1_455 S
O644 C647 1.235 . S
C645 O648 1.238 . S
C645 O649 1.241 . S
C646 O639 1.247 . S
C646 O640 1.261 . S
C647 O642 1.259 . S
C647 O644 1.235 . S
O648 Co638 2.021 . S
O648 C645 1.238 . S
O649 Co643 2.052 . S
O649 C645 1.241 . S
O650 Co638 2.137 . S
O650 C641 1.247 . S
O651 Co638 2.244 . S
O651 C641 1.272 . S
O651 Co643 2.135 . S
Co652 O653 2.216 . S
Co652 O654 2.091 . S
Co652 O656 2.004 . S
Co652 O662 2.021 . S
Co652 O664 2.137 . S
Co652 O665 2.244 . S
O653 Co652 2.216 . S
O653 C660 1.247 . S
O654 Co652 2.091 . S
O654 C660 1.261 . S
C655 O664 1.247 . S
C655 O665 1.272 . S
O656 Co652 2.004 . S
O656 C661 1.259 . S
Co657 O658 2.061 . S
Co657 O663 2.052 . S
Co657 O665 2.135 . S
O658 Co657 2.061 . S
O658 C661 1.235 . S
C659 O662 1.238 . S
C659 O663 1.241 . S
C660 O653 1.247 . S
C660 O654 1.261 . S
C661 O656 1.259 . S
C661 O658 1.235 . S
O662 Co652 2.021 . S
O662 C659 1.238 . S
O663 Co657 2.052 . S
O663 C659 1.241 . S
O664 Co652 2.137 . S
O664 C655 1.247 . S
O665 Co652 2.244 . S
O665 C655 1.272 . S
O665 Co657 2.135 . S
C666 C667 1.363 . S
C666 C672 1.379 . S
C666 N674 1.356 . S
C667 C666 1.363 . S
C667 C673 1.363 . S
C668 C669 1.363 . S
C668 C673 1.379 . S
C668 N675 1.356 . S
C669 C668 1.363 . S
C669 C672 1.363 . S
N670 C672 1.356 . S
N670 H682 0.984 1_455 S
N670 H683 0.985 . S
N671 C673 1.356 . S
N671 H676 0.984 . S
N671 H677 0.985 . S
C672 C666 1.379 . S
C672 C669 1.363 . S
C672 N670 1.356 . S
C673 C667 1.363 . S
C673 C668 1.379 . S
C673 N671 1.356 . S
N674 C666 1.356 . S
N674 H680 0.984 1_454 S
N674 H681 0.984 . S
N675 C668 1.356 . S
N675 H678 0.984 . S
N675 H679 0.985 . S
H676 N671 0.984 . S
H677 N671 0.985 . S
H678 N675 0.984 . S
H679 N675 0.985 . S
H680 N674 0.984 1_656 S
H681 N674 0.984 . S
H682 N670 0.984 1_655 S
H683 N670 0.985 . S
C684 C685 1.363 . S
C684 C690 1.379 . S
C684 N692 1.356 1_554 S
C685 C684 1.363 . S
C685 C691 1.363 . S
C686 C687 1.363 . S
C686 C691 1.379 . S
C686 N693 1.356 . S
C687 C686 1.363 . S
C687 C690 1.363 . S
N688 C690 1.356 . S
N688 H700 0.984 1_554 S
N688 H701 0.985 . S
N689 C691 1.356 . S
N689 H694 0.984 . S
N689 H695 0.985 . S
C690 C684 1.379 . S
C690 C687 1.363 . S
C690 N688 1.356 . S
C691 C685 1.363 . S
C691 C686 1.379 . S
C691 N689 1.356 . S
N692 C684 1.356 1_556 S
N692 H698 0.984 . S
N692 H699 0.984 . S
N693 C686 1.356 . S
N693 H696 0.984 . S
N693 H697 0.985 . S
H694 N689 0.984 . S
H695 N689 0.985 . S
H696 N693 0.984 . S
H697 N693 0.985 . S
H698 N692 0.984 . S
H699 N692 0.984 . S
H700 N688 0.984 1_556 S
H701 N688 0.985 . S
C702 C703 1.363 . S
C702 C708 1.379 . S
C702 N710 1.356 . S
C703 C702 1.363 . S
C703 C709 1.363 1_545 S
C704 C705 1.363 1_565 S
C704 C709 1.379 . S
C704 N711 1.356 . S
C705 C704 1.363 1_545 S
C705 C708 1.363 . S
N706 C708 1.356 . S
N706 H718 0.984 . S
N706 H719 0.985 . S
N707 C709 1.356 . S
N707 H712 0.984 . S
N707 H713 0.985 . S
C708 C702 1.379 . S
C708 C705 1.363 . S
C708 N706 1.356 . S
C709 C703 1.363 1_565 S
C709 C704 1.379 . S
C709 N707 1.356 . S
N710 C702 1.356 . S
N710 H716 0.984 . S
N710 H717 0.984 . S
N711 C704 1.356 . S
N711 H714 0.984 . S
N711 H715 0.985 . S
H712 N707 0.984 . S
H713 N707 0.985 . S
H714 N711 0.984 . S
H715 N711 0.985 . S
H716 N710 0.984 . S
H717 N710 0.984 . S
H718 N706 0.984 . S
H719 N706 0.985 . S
C720 C721 1.363 . S
C720 C726 1.379 . S
C720 N728 1.356 . S
C721 C720 1.363 . S
C721 C727 1.363 . S
C722 C723 1.363 . S
C722 C727 1.379 . S
C722 N729 1.356 . S
C723 C722 1.363 . S
C723 C726 1.363 . S
N724 C726 1.356 . S
N724 H736 0.984 . S
N724 H737 0.985 . S
N725 C727 1.356 . S
N725 H730 0.984 . S
N725 H731 0.985 . S
C726 C720 1.379 . S
C726 C723 1.363 . S
C726 N724 1.356 . S
C727 C721 1.363 . S
C727 C722 1.379 . S
C727 N725 1.356 . S
N728 C720 1.356 . S
N728 H734 0.984 . S
N728 H735 0.984 . S
N729 C722 1.356 . S
N729 H732 0.984 . S
N729 H733 0.985 . S
H730 N725 0.984 . S
H731 N725 0.985 . S
H732 N729 0.984 . S
H733 N729 0.985 . S
H734 N728 0.984 . S
H735 N728 0.984 . S
H736 N724 0.984 . S
H737 N724 0.985 . S
C738 C739 1.363 . S
C738 C744 1.379 . S
C738 N746 1.356 . S
C739 C738 1.363 . S
C739 C745 1.363 . S
C740 C741 1.363 . S
C740 C745 1.379 . S
C740 N747 1.356 1_455 S
C741 C740 1.363 . S
C741 C744 1.363 . S
N742 C744 1.356 . S
N742 H754 0.984 . S
N742 H755 0.985 . S
N743 C745 1.356 . S
N743 H748 0.984 . S
N743 H749 0.985 . S
C744 C738 1.379 . S
C744 C741 1.363 . S
C744 N742 1.356 . S
C745 C739 1.363 . S
C745 C740 1.379 . S
C745 N743 1.356 . S
N746 C738 1.356 . S
N746 H752 0.984 . S
N746 H753 0.984 . S
N747 C740 1.356 1_655 S
N747 H750 0.984 . S
N747 H751 0.985 . S
H748 N743 0.984 . S
H749 N743 0.985 . S
H750 N747 0.984 . S
H751 N747 0.985 . S
H752 N746 0.984 . S
H753 N746 0.984 . S
H754 N742 0.984 . S
H755 N742 0.985 . S
C756 C757 1.363 . S
C756 C762 1.379 . S
C756 N764 1.356 . S
C757 C756 1.363 . S
C757 C763 1.363 . S
C758 C759 1.363 . S
C758 C763 1.379 . S
C758 N765 1.356 . S
C759 C758 1.363 . S
C759 C762 1.363 . S
N760 C762 1.356 . S
N760 H772 0.984 . S
N760 H773 0.985 . S
N761 C763 1.356 . S
N761 H766 0.984 . S
N761 H767 0.985 . S
C762 C756 1.379 . S
C762 C759 1.363 . S
C762 N760 1.356 . S
C763 C757 1.363 . S
C763 C758 1.379 . S
C763 N761 1.356 . S
N764 C756 1.356 . S
N764 H770 0.984 . S
N764 H771 0.984 . S
N765 C758 1.356 . S
N765 H768 0.984 . S
N765 H769 0.985 . S
H766 N761 0.984 . S
H767 N761 0.985 . S
H768 N765 0.984 . S
H769 N765 0.985 . S
H770 N764 0.984 . S
H771 N764 0.984 . S
H772 N760 0.984 . S
H773 N760 0.985 . S
C774 C775 1.363 . S
C774 C780 1.379 . S
C774 N782 1.356 . S
C775 C774 1.363 . S
C775 C781 1.363 1_455 S
C776 C777 1.363 1_655 S
C776 C781 1.379 . S
C776 N783 1.356 . S
C777 C776 1.363 1_455 S
C777 C780 1.363 . S
N778 C780 1.356 . S
N778 H790 0.984 . S
N778 H791 0.985 . S
N779 C781 1.356 1_554 S
N779 H784 0.984 . S
N779 H785 0.985 . S
C780 C774 1.379 . S
C780 C777 1.363 . S
C780 N778 1.356 . S
C781 C775 1.363 1_655 S
C781 C776 1.379 . S
C781 N779 1.356 1_556 S
N782 C774 1.356 . S
N782 H788 0.984 . S
N782 H789 0.984 . S
N783 C776 1.356 . S
N783 H786 0.984 . S
N783 H787 0.985 . S
H784 N779 0.984 . S
H785 N779 0.985 . S
H786 N783 0.984 . S
H787 N783 0.985 . S
H788 N782 0.984 . S
H789 N782 0.984 . S
H790 N778 0.984 . S
H791 N778 0.985 . S
C792 C793 1.363 . S
C792 C798 1.379 . S
C792 N800 1.356 . S
C793 C792 1.363 . S
C793 C799 1.363 1_556 S
C794 C795 1.363 . S
C794 C799 1.379 1_556 S
C794 N801 1.356 1_556 S
C795 C794 1.363 . S
C795 C798 1.363 . S
N796 C798 1.356 . S
N796 H808 0.984 . S
N796 H809 0.985 . S
N797 C799 1.356 . S
N797 H802 0.984 . S
N797 H803 0.985 . S
C798 C792 1.379 . S
C798 C795 1.363 . S
C798 N796 1.356 . S
C799 C793 1.363 1_554 S
C799 C794 1.379 1_554 S
C799 N797 1.356 . S
N800 C792 1.356 . S
N800 H806 0.984 . S
N800 H807 0.984 . S
N801 C794 1.356 1_554 S
N801 H804 0.984 . S
N801 H805 0.985 . S
H802 N797 0.984 . S
H803 N797 0.985 . S
H804 N801 0.984 . S
H805 N801 0.985 . S
H806 N800 0.984 . S
H807 N800 0.984 . S
H808 N796 0.984 . S
H809 N796 0.985 . S
C810 C811 1.363 . S
C810 C816 1.379 . S
C810 N818 1.356 1_556 S
C811 C810 1.363 . S
C811 C817 1.363 . S
C812 C813 1.363 . S
C812 C817 1.379 . S
C812 N819 1.356 . S
C813 C812 1.363 . S
C813 C816 1.363 . S
N814 C816 1.356 . S
N814 H826 0.984 . S
N814 H827 0.985 . S
N815 C817 1.356 . S
N815 H820 0.984 . S
N815 H821 0.985 . S
C816 C810 1.379 . S
C816 C813 1.363 . S
C816 N814 1.356 . S
C817 C811 1.363 . S
C817 C812 1.379 . S
C817 N815 1.356 . S
N818 C810 1.356 1_554 S
N818 H824 0.984 1_545 S
N818 H825 0.984 . S
N819 C812 1.356 . S
N819 H822 0.984 . S
N819 H823 0.985 . S
H820 N815 0.984 . S
H821 N815 0.985 . S
H822 N819 0.984 . S
H823 N819 0.985 . S
H824 N818 0.984 1_565 S
H825 N818 0.984 . S
H826 N814 0.984 . S
H827 N814 0.985 . S
C828 C829 1.363 . S
C828 C834 1.379 . S
C828 N836 1.356 . S
C829 C828 1.363 . S
C829 C835 1.363 1_565 S
C830 C831 1.363 . S
C830 C835 1.379 . S
C830 N837 1.356 . S
C831 C830 1.363 . S
C831 C834 1.363 1_545 S
N832 C834 1.356 . S
N832 H844 0.984 . S
N832 H845 0.985 . S
N833 C835 1.356 . S
N833 H838 0.984 . S
N833 H839 0.985 . S
C834 C828 1.379 . S
C834 C831 1.363 1_565 S
C834 N832 1.356 . S
C835 C829 1.363 1_545 S
C835 C830 1.379 . S
C835 N833 1.356 . S
N836 C828 1.356 . S
N836 H842 0.984 . S
N836 H843 0.984 . S
N837 C830 1.356 . S
N837 H840 0.984 . S
N837 H841 0.985 . S
H838 N833 0.984 . S
H839 N833 0.985 . S
H840 N837 0.984 . S
H841 N837 0.985 . S
H842 N836 0.984 . S
H843 N836 0.984 . S
H844 N832 0.984 . S
H845 N832 0.985 . S
C846 C847 1.363 . S
C846 C852 1.379 . S
C846 N854 1.356 . S
C847 C846 1.363 . S
C847 C853 1.363 . S
C848 C849 1.363 . S
C848 C853 1.379 . S
C848 N855 1.356 . S
C849 C848 1.363 . S
C849 C852 1.363 . S
N850 C852 1.356 . S
N850 H862 0.984 . S
N850 H863 0.985 . S
N851 C853 1.356 . S
N851 H856 0.984 . S
N851 H857 0.985 . S
C852 C846 1.379 . S
C852 C849 1.363 . S
C852 N850 1.356 . S
C853 C847 1.363 . S
C853 C848 1.379 . S
C853 N851 1.356 . S
N854 C846 1.356 . S
N854 H860 0.984 . S
N854 H861 0.984 . S
N855 C848 1.356 . S
N855 H858 0.984 . S
N855 H859 0.985 . S
H856 N851 0.984 . S
H857 N851 0.985 . S
H858 N855 0.984 . S
H859 N855 0.985 . S
H860 N854 0.984 . S
H861 N854 0.984 . S
H862 N850 0.984 . S
H863 N850 0.985 . S
C864 C865 1.363 . S
C864 C870 1.379 . S
C864 N872 1.356 . S
C865 C864 1.363 . S
C865 C871 1.363 . S
C866 C867 1.363 . S
C866 C871 1.379 . S
C866 N873 1.356 . S
C867 C866 1.363 . S
C867 C870 1.363 . S
N868 C870 1.356 . S
N868 H880 0.984 . S
N868 H881 0.985 . S
N869 C871 1.356 . S
N869 H874 0.984 . S
N869 H875 0.985 . S
C870 C864 1.379 . S
C870 C867 1.363 . S
C870 N868 1.356 . S
C871 C865 1.363 . S
C871 C866 1.379 . S
C871 N869 1.356 . S
N872 C864 1.356 . S
N872 H878 0.984 . S
N872 H879 0.984 . S
N873 C866 1.356 . S
N873 H876 0.984 . S
N873 H877 0.985 . S
H874 N869 0.984 . S
H875 N869 0.985 . S
H876 N873 0.984 . S
H877 N873 0.985 . S
H878 N872 0.984 . S
H879 N872 0.984 . S
H880 N868 0.984 . S
H881 N868 0.985 . S
C882 C883 1.363 . S
C882 C888 1.379 . S
C882 N890 1.356 . S
C883 C882 1.363 . S
C883 C889 1.363 . S
C884 C885 1.363 . S
C884 C889 1.379 . S
C884 N891 1.356 . S
C885 C884 1.363 . S
C885 C888 1.363 . S
N886 C888 1.356 . S
N886 H898 0.984 . S
N886 H899 0.985 . S
N887 C889 1.356 . S
N887 H892 0.984 . S
N887 H893 0.985 . S
C888 C882 1.379 . S
C888 C885 1.363 . S
C888 N886 1.356 . S
C889 C883 1.363 . S
C889 C884 1.379 . S
C889 N887 1.356 . S
N890 C882 1.356 . S
N890 H896 0.984 . S
N890 H897 0.984 . S
N891 C884 1.356 . S
N891 H894 0.984 . S
N891 H895 0.985 . S
H892 N887 0.984 . S
H893 N887 0.985 . S
H894 N891 0.984 . S
H895 N891 0.985 . S
H896 N890 0.984 . S
H897 N890 0.984 . S
H898 N886 0.984 . S
H899 N886 0.985 . S
C900 C901 1.363 1_545 S
C900 C906 1.379 . S
C900 N908 1.356 1_545 S
C901 C900 1.363 1_565 S
C901 C907 1.363 1_565 S
C902 C903 1.363 . S
C902 C907 1.379 . S
C902 N909 1.356 . S
C903 C902 1.363 . S
C903 C906 1.363 . S
N904 C906 1.356 . S
N904 H916 0.984 . S
N904 H917 0.985 . S
N905 C907 1.356 1_565 S
N905 H910 0.984 . S
N905 H911 0.985 . S
C906 C900 1.379 . S
C906 C903 1.363 . S
C906 N904 1.356 . S
C907 C901 1.363 1_545 S
C907 C902 1.379 . S
C907 N905 1.356 1_545 S
N908 C900 1.356 1_565 S
N908 H914 0.984 . S
N908 H915 0.984 . S
N909 C902 1.356 . S
N909 H912 0.984 . S
N909 H913 0.985 . S
H910 N905 0.984 . S
H911 N905 0.985 . S
H912 N909 0.984 . S
H913 N909 0.985 . S
H914 N908 0.984 . S
H915 N908 0.984 . S
H916 N904 0.984 . S
H917 N904 0.985 . S
C918 C919 1.363 . S
C918 C924 1.379 . S
C918 N926 1.356 . S
C919 C918 1.363 . S
C919 C925 1.363 . S
C920 C921 1.363 . S
C920 C925 1.379 . S
C920 N927 1.356 . S
C921 C920 1.363 . S
C921 C924 1.363 . S
N922 C924 1.356 . S
N922 H934 0.984 . S
N922 H935 0.985 . S
N923 C925 1.356 . S
N923 H928 0.984 . S
N923 H929 0.985 . S
C924 C918 1.379 . S
C924 C921 1.363 . S
C924 N922 1.356 . S
C925 C919 1.363 . S
C925 C920 1.379 . S
C925 N923 1.356 . S
N926 C918 1.356 . S
N926 H932 0.984 . S
N926 H933 0.984 . S
N927 C920 1.356 . S
N927 H930 0.984 . S
N927 H931 0.985 . S
H928 N923 0.984 . S
H929 N923 0.985 . S
H930 N927 0.984 . S
H931 N927 0.985 . S
H932 N926 0.984 . S
H933 N926 0.984 . S
H934 N922 0.984 . S
H935 N922 0.985 . S
C936 C937 1.363 . S
C936 C942 1.379 . S
C936 N944 1.356 . S
C937 C936 1.363 . S
C937 C943 1.363 . S
C938 C939 1.363 . S
C938 C943 1.379 . S
C938 N945 1.356 . S
C939 C938 1.363 . S
C939 C942 1.363 . S
N940 C942 1.356 . S
N940 H952 0.984 . S
N940 H953 0.985 . S
N941 C943 1.356 . S
N941 H946 0.984 . S
N941 H947 0.985 . S
C942 C936 1.379 . S
C942 C939 1.363 . S
C942 N940 1.356 . S
C943 C937 1.363 . S
C943 C938 1.379 . S
C943 N941 1.356 . S
N944 C936 1.356 . S
N944 H950 0.984 . S
N944 H951 0.984 . S
N945 C938 1.356 . S
N945 H948 0.984 . S
N945 H949 0.985 . S
H946 N941 0.984 . S
H947 N941 0.985 . S
H948 N945 0.984 . S
H949 N945 0.985 . S
H950 N944 0.984 . S
H951 N944 0.984 . S
H952 N940 0.984 . S
H953 N940 0.985 . S
C954 C955 1.363 . S
C954 C960 1.379 . S
C954 N962 1.356 . S
C955 C954 1.363 . S
C955 C961 1.363 . S
C956 C957 1.363 . S
C956 C961 1.379 . S
C956 N963 1.356 . S
C957 C956 1.363 . S
C957 C960 1.363 . S
N958 C960 1.356 . S
N958 H970 0.984 . S
N958 H971 0.985 . S
N959 C961 1.356 . S
N959 H964 0.984 . S
N959 H965 0.985 . S
C960 C954 1.379 . S
C960 C957 1.363 . S
C960 N958 1.356 . S
C961 C955 1.363 . S
C961 C956 1.379 . S
C961 N959 1.356 . S
N962 C954 1.356 . S
N962 H968 0.984 . S
N962 H969 0.984 . S
N963 C956 1.356 . S
N963 H966 0.984 . S
N963 H967 0.985 . S
H964 N959 0.984 . S
H965 N959 0.985 . S
H966 N963 0.984 . S
H967 N963 0.985 . S
H968 N962 0.984 . S
H969 N962 0.984 . S
H970 N958 0.984 . S
H971 N958 0.985 . S
C972 C973 1.363 . S
C972 C978 1.379 . S
C972 N980 1.356 . S
C973 C972 1.363 . S
C973 C979 1.363 . S
C974 C975 1.363 . S
C974 C979 1.379 . S
C974 N981 1.356 . S
C975 C974 1.363 . S
C975 C978 1.363 . S
N976 C978 1.356 1_545 S
N976 H988 0.984 . S
N976 H989 0.985 . S
N977 C979 1.356 . S
N977 H982 0.984 . S
N977 H983 0.985 . S
C978 C972 1.379 . S
C978 C975 1.363 . S
C978 N976 1.356 1_565 S
C979 C973 1.363 . S
C979 C974 1.379 . S
C979 N977 1.356 . S
N980 C972 1.356 . S
N980 H986 0.984 1_565 S
N980 H987 0.984 . S
N981 C974 1.356 . S
N981 H984 0.984 . S
N981 H985 0.985 . S
H982 N977 0.984 . S
H983 N977 0.985 . S
H984 N981 0.984 . S
H985 N981 0.985 . S
H986 N980 0.984 1_545 S
H987 N980 0.984 . S
H988 N976 0.984 . S
H989 N976 0.985 . S
C990 C991 1.363 . S
C990 C996 1.338 1_565 S
C990 N998 1.356 . S
C991 C990 1.363 . S
C991 C997 1.363 . S
C992 C993 1.363 . S
C992 C997 1.379 1_545 S
C992 N999 1.356 . S
C993 C992 1.363 . S
C993 C996 1.386 . S
N994 C996 1.386 . S
N994 H1006 0.984 . S
N994 H1007 0.985 . S
N995 C997 1.356 . S
N995 H1000 0.984 . S
N995 H1001 0.985 . S
C996 C990 1.338 1_545 S
C996 C993 1.386 . S
C996 N994 1.386 . S
C997 C991 1.363 . S
C997 C992 1.379 1_565 S
C997 N995 1.356 . S
N998 C990 1.356 . S
N998 H1004 0.984 . S
N998 H1005 0.984 . S
N999 C992 1.356 . S
N999 H1002 0.984 . S
N999 H1003 0.985 . S
H1000 N995 0.984 . S
H1001 N995 0.985 . S
H1002 N999 0.984 . S
H1003 N999 0.985 . S
H1004 N998 0.984 . S
H1005 N998 0.984 . S
H1006 N994 0.984 . S
H1007 N994 0.985 . S
C1008 C1009 1.363 . S
C1008 C1014 1.379 . S
C1008 N1016 1.356 . S
C1009 C1008 1.363 . S
C1009 C1015 1.363 . S
C1010 C1011 1.363 . S
C1010 C1015 1.379 . S
C1010 N1017 1.356 . S
C1011 C1010 1.363 . S
C1011 C1014 1.363 . S
N1012 C1014 1.356 . S
N1012 H1024 0.984 . S
N1012 H1025 0.985 . S
N1013 C1015 1.356 . S
N1013 H1018 0.984 . S
N1013 H1019 0.985 . S
C1014 C1008 1.379 . S
C1014 C1011 1.363 . S
C1014 N1012 1.356 . S
C1015 C1009 1.363 . S
C1015 C1010 1.379 . S
C1015 N1013 1.356 . S
N1016 C1008 1.356 . S
N1016 H1022 0.984 . S
N1016 H1023 0.984 . S
N1017 C1010 1.356 . S
N1017 H1020 0.984 . S
N1017 H1021 0.985 . S
H1018 N1013 0.984 . S
H1019 N1013 0.985 . S
H1020 N1017 0.984 . S
H1021 N1017 0.985 . S
H1022 N1016 0.984 . S
H1023 N1016 0.984 . S
H1024 N1012 0.984 . S
H1025 N1012 0.985 . S
C1026 C1027 1.363 . S
C1026 C1032 1.379 . S
C1026 N1034 1.356 . S
C1027 C1026 1.363 . S
C1027 C1033 1.363 . S
C1028 C1029 1.363 . S
C1028 C1033 1.379 . S
C1028 N1035 1.356 . S
C1029 C1028 1.363 . S
C1029 C1032 1.363 . S
N1030 C1032 1.356 . S
N1030 H1042 0.984 . S
N1030 H1043 0.985 . S
N1031 C1033 1.356 . S
N1031 H1036 0.984 . S
N1031 H1037 0.985 . S
C1032 C1026 1.379 . S
C1032 C1029 1.363 . S
C1032 N1030 1.356 . S
C1033 C1027 1.363 . S
C1033 C1028 1.379 . S
C1033 N1031 1.356 . S
N1034 C1026 1.356 . S
N1034 H1040 0.984 . S
N1034 H1041 0.984 . S
N1035 C1028 1.356 . S
N1035 H1038 0.984 . S
N1035 H1039 0.985 . S
H1036 N1031 0.984 . S
H1037 N1031 0.985 . S
H1038 N1035 0.984 . S
H1039 N1035 0.985 . S
H1040 N1034 0.984 . S
H1041 N1034 0.984 . S
H1042 N1030 0.984 . S
H1043 N1030 0.985 . S
C1044 C1045 1.363 . S
C1044 C1050 1.379 . S
C1044 N1052 1.356 . S
C1045 C1044 1.363 . S
C1045 C1051 1.363 . S
C1046 C1047 1.363 . S
C1046 C1051 1.379 . S
C1046 N1053 1.356 . S
C1047 C1046 1.363 . S
C1047 C1050 1.363 . S
N1048 C1050 1.356 . S
N1048 H1060 0.984 . S
N1048 H1061 0.985 . S
N1049 C1051 1.356 . S
N1049 H1054 0.984 . S
N1049 H1055 0.985 . S
C1050 C1044 1.379 . S
C1050 C1047 1.363 . S
C1050 N1048 1.356 . S
C1051 C1045 1.363 . S
C1051 C1046 1.379 . S
C1051 N1049 1.356 . S
N1052 C1044 1.356 . S
N1052 H1058 0.984 . S
N1052 H1059 0.984 . S
N1053 C1046 1.356 . S
N1053 H1056 0.984 . S
N1053 H1057 0.985 . S
H1054 N1049 0.984 . S
H1055 N1049 0.985 . S
H1056 N1053 0.984 . S
H1057 N1053 0.985 . S
H1058 N1052 0.984 . S
H1059 N1052 0.984 . S
H1060 N1048 0.984 . S
H1061 N1048 0.985 . S
C1062 C1063 1.363 1_545 S
C1062 C1068 1.379 . S
C1062 N1070 1.356 . S
C1063 C1062 1.363 1_565 S
C1063 C1069 1.363 . S
C1064 C1065 1.363 . S
C1064 C1069 1.379 1_545 S
C1064 N1071 1.356 . S
C1065 C1064 1.363 . S
C1065 C1068 1.363 . S
N1066 C1068 1.356 . S
N1066 H1078 0.984 . S
N1066 H1079 0.985 . S
N1067 C1069 1.356 . S
N1067 H1072 0.984 . S
N1067 H1073 0.985 . S
C1068 C1062 1.379 . S
C1068 C1065 1.363 . S
C1068 N1066 1.356 . S
C1069 C1063 1.363 . S
C1069 C1064 1.379 1_565 S
C1069 N1067 1.356 . S
N1070 C1062 1.356 . S
N1070 H1076 0.984 . S
N1070 H1077 0.984 . S
N1071 C1064 1.356 . S
N1071 H1074 0.984 . S
N1071 H1075 0.985 1_545 S
H1072 N1067 0.984 . S
H1073 N1067 0.985 . S
H1074 N1071 0.984 . S
H1075 N1071 0.985 1_565 S
H1076 N1070 0.984 . S
H1077 N1070 0.984 . S
H1078 N1066 0.984 . S
H1079 N1066 0.985 . S
C1080 C1081 1.363 . S
C1080 C1086 1.379 . S
C1080 N1088 1.356 . S
C1081 C1080 1.363 . S
C1081 C1087 1.363 . S
C1082 C1083 1.363 . S
C1082 C1087 1.379 . S
C1082 N1089 1.356 . S
C1083 C1082 1.363 . S
C1083 C1086 1.363 . S
N1084 C1086 1.356 . S
N1084 H1096 0.984 . S
N1084 H1097 0.985 . S
N1085 C1087 1.356 . S
N1085 H1090 0.984 . S
N1085 H1091 0.985 . S
C1086 C1080 1.379 . S
C1086 C1083 1.363 . S
C1086 N1084 1.356 . S
C1087 C1081 1.363 . S
C1087 C1082 1.379 . S
C1087 N1085 1.356 . S
N1088 C1080 1.356 . S
N1088 H1094 0.984 . S
N1088 H1095 0.984 . S
N1089 C1082 1.356 . S
N1089 H1092 0.984 . S
N1089 H1093 0.985 . S
H1090 N1085 0.984 . S
H1091 N1085 0.985 . S
H1092 N1089 0.984 . S
H1093 N1089 0.985 . S
H1094 N1088 0.984 . S
H1095 N1088 0.984 . S
H1096 N1084 0.984 . S
H1097 N1084 0.985 . S
C1098 C1099 1.363 . S
C1098 C1104 1.379 . S
C1098 N1106 1.356 . S
C1099 C1098 1.363 . S
C1099 C1105 1.363 . S
C1100 C1101 1.363 . S
C1100 C1105 1.379 . S
C1100 N1107 1.356 . S
C1101 C1100 1.363 . S
C1101 C1104 1.363 . S
N1102 C1104 1.356 . S
N1102 H1114 0.984 . S
N1102 H1115 0.985 . S
N1103 C1105 1.356 . S
N1103 H1108 0.984 . S
N1103 H1109 0.985 . S
C1104 C1098 1.379 . S
C1104 C1101 1.363 . S
C1104 N1102 1.356 . S
C1105 C1099 1.363 . S
C1105 C1100 1.379 . S
C1105 N1103 1.356 . S
N1106 C1098 1.356 . S
N1106 H1112 0.984 . S
N1106 H1113 0.984 . S
N1107 C1100 1.356 . S
N1107 H1110 0.984 . S
N1107 H1111 0.985 . S
H1108 N1103 0.984 . S
H1109 N1103 0.985 . S
H1110 N1107 0.984 . S
H1111 N1107 0.985 . S
H1112 N1106 0.984 . S
H1113 N1106 0.984 . S
H1114 N1102 0.984 . S
H1115 N1102 0.985 . S
C1116 C1117 1.363 . S
C1116 C1122 1.379 . S
C1116 N1124 1.356 . S
C1117 C1116 1.363 . S
C1117 C1123 1.363 . S
C1118 C1119 1.363 . S
C1118 C1123 1.379 . S
C1118 N1125 1.356 . S
C1119 C1118 1.363 . S
C1119 C1122 1.363 . S
N1120 C1122 1.356 . S
N1120 H1132 0.984 . S
N1120 H1133 0.985 . S
N1121 C1123 1.356 . S
N1121 H1126 0.984 . S
N1121 H1127 0.985 . S
C1122 C1116 1.379 . S
C1122 C1119 1.363 . S
C1122 N1120 1.356 . S
C1123 C1117 1.363 . S
C1123 C1118 1.379 . S
C1123 N1121 1.356 . S
N1124 C1116 1.356 . S
N1124 H1130 0.984 . S
N1124 H1131 0.984 . S
N1125 C1118 1.356 . S
N1125 H1128 0.984 . S
N1125 H1129 0.985 . S
H1126 N1121 0.984 . S
H1127 N1121 0.985 . S
H1128 N1125 0.984 . S
H1129 N1125 0.985 . S
H1130 N1124 0.984 . S
H1131 N1124 0.984 . S
H1132 N1120 0.984 . S
H1133 N1120 0.985 . S
C1134 C1135 1.363 . S
C1134 C1140 1.379 . S
C1134 N1142 1.356 . S
C1135 C1134 1.363 . S
C1135 C1141 1.363 . S
C1136 C1137 1.363 . S
C1136 C1141 1.379 . S
C1136 N1143 1.356 . S
C1137 C1136 1.363 . S
C1137 C1140 1.363 . S
N1138 C1140 1.356 . S
N1138 H1150 0.984 . S
N1138 H1151 0.985 . S
N1139 C1141 1.356 . S
N1139 H1144 0.984 . S
N1139 H1145 0.985 . S
C1140 C1134 1.379 . S
C1140 C1137 1.363 . S
C1140 N1138 1.356 . S
C1141 C1135 1.363 . S
C1141 C1136 1.379 . S
C1141 N1139 1.356 . S
N1142 C1134 1.356 . S
N1142 H1148 0.984 . S
N1142 H1149 0.984 . S
N1143 C1136 1.356 . S
N1143 H1146 0.984 . S
N1143 H1147 0.985 . S
H1144 N1139 0.984 . S
H1145 N1139 0.985 . S
H1146 N1143 0.984 . S
H1147 N1143 0.985 . S
H1148 N1142 0.984 . S
H1149 N1142 0.984 . S
H1150 N1138 0.984 . S
H1151 N1138 0.985 . S
C1152 C1153 1.363 . S
C1152 C1158 1.379 . S
C1152 N1160 1.356 . S
C1153 C1152 1.363 . S
C1153 C1159 1.363 . S
C1154 C1155 1.363 . S
C1154 C1159 1.379 . S
C1154 N1161 1.356 . S
C1155 C1154 1.363 . S
C1155 C1158 1.363 . S
N1156 C1158 1.356 . S
N1156 H1168 0.984 . S
N1156 H1169 0.985 . S
N1157 C1159 1.356 . S
N1157 H1162 0.984 . S
N1157 H1163 0.985 . S
C1158 C1152 1.379 . S
C1158 C1155 1.363 . S
C1158 N1156 1.356 . S
C1159 C1153 1.363 . S
C1159 C1154 1.379 . S
C1159 N1157 1.356 . S
N1160 C1152 1.356 . S
N1160 H1166 0.984 . S
N1160 H1167 0.984 . S
N1161 C1154 1.356 . S
N1161 H1164 0.984 . S
N1161 H1165 0.985 . S
H1162 N1157 0.984 . S
H1163 N1157 0.985 . S
H1164 N1161 0.984 . S
H1165 N1161 0.985 . S
H1166 N1160 0.984 . S
H1167 N1160 0.984 . S
H1168 N1156 0.984 . S
H1169 N1156 0.985 . S
C1170 C1171 1.363 . S
C1170 C1176 1.379 . S
C1170 N1178 1.356 . S
C1171 C1170 1.363 . S
C1171 C1177 1.363 . S
C1172 C1173 1.363 . S
C1172 C1177 1.379 . S
C1172 N1179 1.356 . S
C1173 C1172 1.363 . S
C1173 C1176 1.363 . S
N1174 C1176 1.356 . S
N1174 H1186 0.984 . S
N1174 H1187 0.985 . S
N1175 C1177 1.356 . S
N1175 H1180 0.984 . S
N1175 H1181 0.985 . S
C1176 C1170 1.379 . S
C1176 C1173 1.363 . S
C1176 N1174 1.356 . S
C1177 C1171 1.363 . S
C1177 C1172 1.379 . S
C1177 N1175 1.356 . S
N1178 C1170 1.356 . S
N1178 H1184 0.984 . S
N1178 H1185 0.984 . S
N1179 C1172 1.356 . S
N1179 H1182 0.984 . S
N1179 H1183 0.985 . S
H1180 N1175 0.984 . S
H1181 N1175 0.985 . S
H1182 N1179 0.984 . S
H1183 N1179 0.985 . S
H1184 N1178 0.984 . S
H1185 N1178 0.984 . S
H1186 N1174 0.984 . S
H1187 N1174 0.985 . S
C1188 C1189 1.363 . S
C1188 C1194 1.379 . S
C1188 N1196 1.356 . S
C1189 C1188 1.363 . S
C1189 C1195 1.363 . S
C1190 C1191 1.363 . S
C1190 C1195 1.379 . S
C1190 N1197 1.356 . S
C1191 C1190 1.363 . S
C1191 C1194 1.363 . S
N1192 C1194 1.356 . S
N1192 H1204 0.984 . S
N1192 H1205 0.985 . S
N1193 C1195 1.356 . S
N1193 H1198 0.984 . S
N1193 H1199 0.985 . S
C1194 C1188 1.379 . S
C1194 C1191 1.363 . S
C1194 N1192 1.356 . S
C1195 C1189 1.363 . S
C1195 C1190 1.379 . S
C1195 N1193 1.356 . S
N1196 C1188 1.356 . S
N1196 H1202 0.984 . S
N1196 H1203 0.984 . S
N1197 C1190 1.356 . S
N1197 H1200 0.984 . S
N1197 H1201 0.985 . S
H1198 N1193 0.984 . S
H1199 N1193 0.985 . S
H1200 N1197 0.984 . S
H1201 N1197 0.985 . S
H1202 N1196 0.984 . S
H1203 N1196 0.984 . S
H1204 N1192 0.984 . S
H1205 N1192 0.985 . S
C1206 C1207 1.363 . S
C1206 C1212 1.379 . S
C1206 N1214 1.356 . S
C1207 C1206 1.363 . S
C1207 C1213 1.363 . S
C1208 C1209 1.363 . S
C1208 C1213 1.379 . S
C1208 N1215 1.356 . S
C1209 C1208 1.363 . S
C1209 C1212 1.363 . S
N1210 C1212 1.356 . S
N1210 H1222 0.984 . S
N1210 H1223 0.985 . S
N1211 C1213 1.356 . S
N1211 H1216 0.984 . S
N1211 H1217 0.985 . S
C1212 C1206 1.379 . S
C1212 C1209 1.363 . S
C1212 N1210 1.356 . S
C1213 C1207 1.363 . S
C1213 C1208 1.379 . S
C1213 N1211 1.356 . S
N1214 C1206 1.356 . S
N1214 H1220 0.984 . S
N1214 H1221 0.984 . S
N1215 C1208 1.356 . S
N1215 H1218 0.984 . S
N1215 H1219 0.985 . S
H1216 N1211 0.984 . S
H1217 N1211 0.985 . S
H1218 N1215 0.984 . S
H1219 N1215 0.985 . S
H1220 N1214 0.984 . S
H1221 N1214 0.984 . S
H1222 N1210 0.984 . S
H1223 N1210 0.985 . S
C1224 C1225 1.363 . S
C1224 C1230 1.379 . S
C1224 N1232 1.356 . S
C1225 C1224 1.363 . S
C1225 C1231 1.363 . S
C1226 C1227 1.363 . S
C1226 C1231 1.379 . S
C1226 N1233 1.356 . S
C1227 C1226 1.363 . S
C1227 C1230 1.363 . S
N1228 C1230 1.356 . S
N1228 H1240 0.984 . S
N1228 H1241 0.985 . S
N1229 C1231 1.356 . S
N1229 H1234 0.984 . S
N1229 H1235 0.985 . S
C1230 C1224 1.379 . S
C1230 C1227 1.363 . S
C1230 N1228 1.356 . S
C1231 C1225 1.363 . S
C1231 C1226 1.379 . S
C1231 N1229 1.356 . S
N1232 C1224 1.356 . S
N1232 H1238 0.984 . S
N1232 H1239 0.984 . S
N1233 C1226 1.356 . S
N1233 H1236 0.984 . S
N1233 H1237 0.985 . S
H1234 N1229 0.984 . S
H1235 N1229 0.985 . S
H1236 N1233 0.984 . S
H1237 N1233 0.985 . S
H1238 N1232 0.984 . S
H1239 N1232 0.984 . S
H1240 N1228 0.984 . S
H1241 N1228 0.985 . S
C1242 C1243 1.363 . S
C1242 C1248 1.379 . S
C1242 N1250 1.356 . S
C1243 C1242 1.363 . S
C1243 C1249 1.363 . S
C1244 C1245 1.363 . S
C1244 C1249 1.379 . S
C1244 N1251 1.356 . S
C1245 C1244 1.363 . S
C1245 C1248 1.363 . S
N1246 C1248 1.356 . S
N1246 H1258 0.984 . S
N1246 H1259 0.985 . S
N1247 C1249 1.356 . S
N1247 H1252 0.984 . S
N1247 H1253 0.985 . S
C1248 C1242 1.379 . S
C1248 C1245 1.363 . S
C1248 N1246 1.356 . S
C1249 C1243 1.363 . S
C1249 C1244 1.379 . S
C1249 N1247 1.356 . S
N1250 C1242 1.356 . S
N1250 H1256 0.984 . S
N1250 H1257 0.984 . S
N1251 C1244 1.356 . S
N1251 H1254 0.984 1_655 S
N1251 H1255 0.985 . S
H1252 N1247 0.984 . S
H1253 N1247 0.985 . S
H1254 N1251 0.984 1_455 S
H1255 N1251 0.985 . S
H1256 N1250 0.984 . S
H1257 N1250 0.984 . S
H1258 N1246 0.984 . S
H1259 N1246 0.985 . S
C1260 C1261 1.363 . S
C1260 C1266 1.379 . S
C1260 N1268 1.356 . S
C1261 C1260 1.363 . S
C1261 C1267 1.363 . S
C1262 C1263 1.363 . S
C1262 C1267 1.379 . S
C1262 N1269 1.356 . S
C1263 C1262 1.363 . S
C1263 C1266 1.363 . S
N1264 C1266 1.356 . S
N1264 H1276 0.984 . S
N1264 H1277 0.985 . S
N1265 C1267 1.356 . S
N1265 H1270 0.984 . S
N1265 H1271 0.985 . S
C1266 C1260 1.379 . S
C1266 C1263 1.363 . S
C1266 N1264 1.356 . S
C1267 C1261 1.363 . S
C1267 C1262 1.379 . S
C1267 N1265 1.356 . S
N1268 C1260 1.356 . S
N1268 H1274 0.984 . S
N1268 H1275 0.984 . S
N1269 C1262 1.356 . S
N1269 H1272 0.984 . S
N1269 H1273 0.985 . S
H1270 N1265 0.984 . S
H1271 N1265 0.985 . S
H1272 N1269 0.984 . S
H1273 N1269 0.985 . S
H1274 N1268 0.984 . S
H1275 N1268 0.984 . S
H1276 N1264 0.984 . S
H1277 N1264 0.985 . S
C1278 C1279 1.363 . S
C1278 C1284 1.379 . S
C1278 N1286 1.356 . S
C1279 C1278 1.363 . S
C1279 C1285 1.363 . S
C1280 C1281 1.363 . S
C1280 C1285 1.379 . S
C1280 N1287 1.356 . S
C1281 C1280 1.363 . S
C1281 C1284 1.363 . S
N1282 C1284 1.356 . S
N1282 H1294 0.984 . S
N1282 H1295 0.985 . S
N1283 C1285 1.356 . S
N1283 H1288 0.984 . S
N1283 H1289 0.985 . S
C1284 C1278 1.379 . S
C1284 C1281 1.363 . S
C1284 N1282 1.356 . S
C1285 C1279 1.363 . S
C1285 C1280 1.379 . S
C1285 N1283 1.356 . S
N1286 C1278 1.356 . S
N1286 H1292 0.984 . S
N1286 H1293 0.984 . S
N1287 C1280 1.356 . S
N1287 H1290 0.984 . S
N1287 H1291 0.985 . S
H1288 N1283 0.984 . S
H1289 N1283 0.985 . S
H1290 N1287 0.984 . S
H1291 N1287 0.985 . S
H1292 N1286 0.984 . S
H1293 N1286 0.984 . S
H1294 N1282 0.984 . S
H1295 N1282 0.985 . S
C1296 C1297 1.363 . S
C1296 C1302 1.379 . S
C1296 N1304 1.356 . S
C1297 C1296 1.363 . S
C1297 C1303 1.363 . S
C1298 C1299 1.363 . S
C1298 C1303 1.379 . S
C1298 N1305 1.356 . S
C1299 C1298 1.363 . S
C1299 C1302 1.363 . S
N1300 C1302 1.356 . S
N1300 H1312 0.984 . S
N1300 H1313 0.985 . S
N1301 C1303 1.356 . S
N1301 H1306 0.984 . S
N1301 H1307 0.985 . S
C1302 C1296 1.379 . S
C1302 C1299 1.363 . S
C1302 N1300 1.356 . S
C1303 C1297 1.363 . S
C1303 C1298 1.379 . S
C1303 N1301 1.356 . S
N1304 C1296 1.356 . S
N1304 H1310 0.984 . S
N1304 H1311 0.984 . S
N1305 C1298 1.356 . S
N1305 H1308 0.984 . S
N1305 H1309 0.985 . S
H1306 N1301 0.984 . S
H1307 N1301 0.985 . S
H1308 N1305 0.984 . S
H1309 N1305 0.985 . S
H1310 N1304 0.984 . S
H1311 N1304 0.984 . S
H1312 N1300 0.984 . S
H1313 N1300 0.985 . S
C1314 C1315 1.363 . S
C1314 C1320 1.379 . S
C1314 N1322 1.356 . S
C1315 C1314 1.363 . S
C1315 C1321 1.363 . S
C1316 C1317 1.363 . S
C1316 C1321 1.379 . S
C1316 N1323 1.356 . S
C1317 C1316 1.363 . S
C1317 C1320 1.363 . S
N1318 C1320 1.356 1_655 S
N1318 H1330 0.984 . S
N1318 H1331 0.985 . S
N1319 C1321 1.356 . S
N1319 H1324 0.984 . S
N1319 H1325 0.985 . S
C1320 C1314 1.379 . S
C1320 C1317 1.363 . S
C1320 N1318 1.356 1_455 S
C1321 C1315 1.363 . S
C1321 C1316 1.379 . S
C1321 N1319 1.356 . S
N1322 C1314 1.356 . S
N1322 H1328 0.966 1_455 S
N1322 H1329 0.984 . S
N1323 C1316 1.356 . S
N1323 H1326 0.984 . S
N1323 H1327 0.985 . S
H1324 N1319 0.984 . S
H1325 N1319 0.985 . S
H1326 N1323 0.984 . S
H1327 N1323 0.985 . S
H1328 N1322 0.966 1_655 S
H1329 N1322 0.984 . S
H1330 N1318 0.984 . S
H1331 N1318 0.985 . S
C1332 C1333 1.363 . S
C1332 C1338 1.379 . S
C1332 N1340 1.356 . S
C1333 C1332 1.363 . S
C1333 C1339 1.363 . S
C1334 C1335 1.363 . S
C1334 C1339 1.379 . S
C1334 N1341 1.356 . S
C1335 C1334 1.363 . S
C1335 C1338 1.363 . S
N1336 C1338 1.356 . S
N1336 H1348 0.984 . S
N1336 H1349 0.985 . S
N1337 C1339 1.356 . S
N1337 H1342 0.984 . S
N1337 H1343 0.985 . S
C1338 C1332 1.379 . S
C1338 C1335 1.363 . S
C1338 N1336 1.356 . S
C1339 C1333 1.363 . S
C1339 C1334 1.379 . S
C1339 N1337 1.356 . S
N1340 C1332 1.356 . S
N1340 H1346 0.984 . S
N1340 H1347 0.984 . S
N1341 C1334 1.356 . S
N1341 H1344 0.984 . S
N1341 H1345 0.985 . S
H1342 N1337 0.984 . S
H1343 N1337 0.985 . S
H1344 N1341 0.984 . S
H1345 N1341 0.985 . S
H1346 N1340 0.984 . S
H1347 N1340 0.984 . S
H1348 N1336 0.984 . S
H1349 N1336 0.985 . S
C1350 C1351 1.363 . S
C1350 C1356 1.379 . S
C1350 N1358 1.356 . S
C1351 C1350 1.363 . S
C1351 C1357 1.363 1_545 S
C1352 C1353 1.363 1_565 S
C1352 C1357 1.379 . S
C1352 N1359 1.356 . S
C1353 C1352 1.363 1_545 S
C1353 C1356 1.363 . S
N1354 C1356 1.356 . S
N1354 H1366 0.984 . S
N1354 H1367 0.985 . S
N1355 C1357 1.356 . S
N1355 H1360 0.984 . S
N1355 H1361 0.985 . S
C1356 C1350 1.379 . S
C1356 C1353 1.363 . S
C1356 N1354 1.356 . S
C1357 C1351 1.363 1_565 S
C1357 C1352 1.379 . S
C1357 N1355 1.356 . S
N1358 C1350 1.356 . S
N1358 H1364 0.984 . S
N1358 H1365 0.984 . S
N1359 C1352 1.356 . S
N1359 H1362 0.984 . S
N1359 H1363 0.985 . S
H1360 N1355 0.984 . S
H1361 N1355 0.985 . S
H1362 N1359 0.984 . S
H1363 N1359 0.985 . S
H1364 N1358 0.984 . S
H1365 N1358 0.984 . S
H1366 N1354 0.984 . S
H1367 N1354 0.985 . S
C1368 C1369 1.354 1_565 S
C1368 C1374 1.382 . S
C1368 N1376 1.376 . S
C1369 C1368 1.354 1_545 S
C1369 C1375 1.363 . S
C1370 C1371 1.363 . S
C1370 C1375 1.379 . S
C1370 N1377 1.356 . S
C1371 C1370 1.363 . S
C1371 C1374 1.336 1_545 S
N1372 C1374 1.363 . S
N1372 H1384 0.984 . S
N1372 H1385 0.985 . S
N1373 C1375 1.356 . S
N1373 H1378 0.984 . S
N1373 H1379 0.985 . S
C1374 C1368 1.382 . S
C1374 C1371 1.336 1_565 S
C1374 N1372 1.363 . S
C1375 C1369 1.363 . S
C1375 C1370 1.379 . S
C1375 N1373 1.356 . S
N1376 C1368 1.376 . S
N1376 H1382 0.984 . S
N1376 H1383 0.984 . S
N1377 C1370 1.356 . S
N1377 H1380 0.984 . S
N1377 H1381 0.985 . S
H1378 N1373 0.984 . S
H1379 N1373 0.985 . S
H1380 N1377 0.984 . S
H1381 N1377 0.985 . S
H1382 N1376 0.984 . S
H1383 N1376 0.984 . S
H1384 N1372 0.984 . S
H1385 N1372 0.985 . S
C1386 C1387 1.363 . S
C1386 C1392 1.379 . S
C1386 N1394 1.356 . S
C1387 C1386 1.363 . S
C1387 C1393 1.363 . S
C1388 C1389 1.363 . S
C1388 C1393 1.379 . S
C1388 N1395 1.356 1_455 S
C1389 C1388 1.363 . S
C1389 C1392 1.363 . S
N1390 C1392 1.356 . S
N1390 H1402 0.984 . S
N1390 H1403 0.985 . S
N1391 C1393 1.356 . S
N1391 H1396 0.984 . S
N1391 H1397 0.985 1_455 S
C1392 C1386 1.379 . S
C1392 C1389 1.363 . S
C1392 N1390 1.356 . S
C1393 C1387 1.363 . S
C1393 C1388 1.379 . S
C1393 N1391 1.356 . S
N1394 C1386 1.356 . S
N1394 H1400 0.984 . S
N1394 H1401 0.984 . S
N1395 C1388 1.356 1_655 S
N1395 H1398 0.984 . S
N1395 H1399 0.985 . S
H1396 N1391 0.984 . S
H1397 N1391 0.985 1_655 S
H1398 N1395 0.984 . S
H1399 N1395 0.985 . S
H1400 N1394 0.984 . S
H1401 N1394 0.984 . S
H1402 N1390 0.984 . S
H1403 N1390 0.985 . S
C1404 C1405 1.363 . S
C1404 C1410 1.379 . S
C1404 N1412 1.356 . S
C1405 C1404 1.363 . S
C1405 C1411 1.363 . S
C1406 C1407 1.363 . S
C1406 C1411 1.379 . S
C1406 N1413 1.356 . S
C1407 C1406 1.363 . S
C1407 C1410 1.363 . S
N1408 C1410 1.356 . S
N1408 H1420 0.984 . S
N1408 H1421 0.985 . S
N1409 C1411 1.356 . S
N1409 H1414 0.984 . S
N1409 H1415 0.985 . S
C1410 C1404 1.379 . S
C1410 C1407 1.363 . S
C1410 N1408 1.356 . S
C1411 C1405 1.363 . S
C1411 C1406 1.379 . S
C1411 N1409 1.356 . S
N1412 C1404 1.356 . S
N1412 H1418 0.984 . S
N1412 H1419 0.984 . S
N1413 C1406 1.356 . S
N1413 H1416 0.984 . S
N1413 H1417 0.985 . S
H1414 N1409 0.984 . S
H1415 N1409 0.985 . S
H1416 N1413 0.984 . S
H1417 N1413 0.985 . S
H1418 N1412 0.984 . S
H1419 N1412 0.984 . S
H1420 N1408 0.984 . S
H1421 N1408 0.985 . S
C1422 C1423 1.363 . S
C1422 C1428 1.379 . S
C1422 N1430 1.356 . S
C1423 C1422 1.363 . S
C1423 C1429 1.363 . S
C1424 C1425 1.363 . S
C1424 C1429 1.379 . S
C1424 N1431 1.356 1_455 S
C1425 C1424 1.363 . S
C1425 C1428 1.363 . S
N1426 C1428 1.356 . S
N1426 H1438 0.984 . S
N1426 H1439 0.985 . S
N1427 C1429 1.356 . S
N1427 H1432 0.984 . S
N1427 H1433 0.985 1_455 S
C1428 C1422 1.379 . S
C1428 C1425 1.363 . S
C1428 N1426 1.356 . S
C1429 C1423 1.363 . S
C1429 C1424 1.379 . S
C1429 N1427 1.356 . S
N1430 C1422 1.356 . S
N1430 H1436 0.984 . S
N1430 H1437 0.984 . S
N1431 C1424 1.356 1_655 S
N1431 H1434 0.984 . S
N1431 H1435 0.985 . S
H1432 N1427 0.984 . S
H1433 N1427 0.985 1_655 S
H1434 N1431 0.984 . S
H1435 N1431 0.985 . S
H1436 N1430 0.984 . S
H1437 N1430 0.984 . S
H1438 N1426 0.984 . S
H1439 N1426 0.985 . S
C1440 C1441 1.363 . S
C1440 C1446 1.379 . S
C1440 N1448 1.356 . S
C1441 C1440 1.363 . S
C1441 C1447 1.363 . S
C1442 C1443 1.363 . S
C1442 C1447 1.379 . S
C1442 N1449 1.356 . S
C1443 C1442 1.363 . S
C1443 C1446 1.363 . S
N1444 C1446 1.356 . S
N1444 H1456 0.984 . S
N1444 H1457 0.985 . S
N1445 C1447 1.356 . S
N1445 H1450 0.984 . S
N1445 H1451 0.985 . S
C1446 C1440 1.379 . S
C1446 C1443 1.363 . S
C1446 N1444 1.356 . S
C1447 C1441 1.363 . S
C1447 C1442 1.379 . S
C1447 N1445 1.356 . S
N1448 C1440 1.356 . S
N1448 H1454 0.984 . S
N1448 H1455 0.984 . S
N1449 C1442 1.356 . S
N1449 H1452 0.984 . S
N1449 H1453 0.985 . S
H1450 N1445 0.984 . S
H1451 N1445 0.985 . S
H1452 N1449 0.984 . S
H1453 N1449 0.985 . S
H1454 N1448 0.984 . S
H1455 N1448 0.984 . S
H1456 N1444 0.984 . S
H1457 N1444 0.985 . S
C1458 C1459 1.363 . S
C1458 C1464 1.379 . S
C1458 N1466 1.356 . S
C1459 C1458 1.363 . S
C1459 C1465 1.363 . S
C1460 C1461 1.363 . S
C1460 C1465 1.379 . S
C1460 N1467 1.356 . S
C1461 C1460 1.363 . S
C1461 C1464 1.363 . S
N1462 C1464 1.356 . S
N1462 H1474 0.984 . S
N1462 H1475 0.985 . S
N1463 C1465 1.356 1_565 S
N1463 H1468 0.984 . S
N1463 H1469 0.985 . S
C1464 C1458 1.379 . S
C1464 C1461 1.363 . S
C1464 N1462 1.356 . S
C1465 C1459 1.363 . S
C1465 C1460 1.379 . S
C1465 N1463 1.356 1_545 S
N1466 C1458 1.356 . S
N1466 H1472 0.984 . S
N1466 H1473 0.984 . S
N1467 C1460 1.356 . S
N1467 H1470 0.984 . S
N1467 H1471 0.985 . S
H1468 N1463 0.984 . S
H1469 N1463 0.985 . S
H1470 N1467 0.984 . S
H1471 N1467 0.985 . S
H1472 N1466 0.984 . S
H1473 N1466 0.984 . S
H1474 N1462 0.984 . S
H1475 N1462 0.985 . S
C1476 C1477 1.363 . S
C1476 C1482 1.379 . S
C1476 N1484 1.356 . S
C1477 C1476 1.363 . S
C1477 C1483 1.363 . S
C1478 C1479 1.363 . S
C1478 C1483 1.379 . S
C1478 N1485 1.356 . S
C1479 C1478 1.363 . S
C1479 C1482 1.363 . S
N1480 C1482 1.356 . S
N1480 H1492 0.984 1_545 S
N1480 H1493 0.985 . S
N1481 C1483 1.356 . S
N1481 H1486 0.984 . S
N1481 H1487 0.985 . S
C1482 C1476 1.379 . S
C1482 C1479 1.363 . S
C1482 N1480 1.356 . S
C1483 C1477 1.363 . S
C1483 C1478 1.379 . S
C1483 N1481 1.356 . S
N1484 C1476 1.356 . S
N1484 H1490 0.984 1_545 S
N1484 H1491 0.984 . S
N1485 C1478 1.356 . S
N1485 H1488 0.984 . S
N1485 H1489 0.985 . S
H1486 N1481 0.984 . S
H1487 N1481 0.985 . S
H1488 N1485 0.984 . S
H1489 N1485 0.985 . S
H1490 N1484 0.984 1_565 S
H1491 N1484 0.984 . S
H1492 N1480 0.984 1_565 S
H1493 N1480 0.985 . S
C1494 C1495 1.363 . S
C1494 C1500 1.379 . S
C1494 N1502 1.356 . S
C1495 C1494 1.363 . S
C1495 C1501 1.363 . S
C1496 C1497 1.363 . S
C1496 C1501 1.379 . S
C1496 N1503 1.356 . S
C1497 C1496 1.363 . S
C1497 C1500 1.363 . S
N1498 C1500 1.356 . S
N1498 H1510 0.984 . S
N1498 H1511 0.985 . S
N1499 C1501 1.356 . S
N1499 H1504 0.984 . S
N1499 H1505 0.985 . S
C1500 C1494 1.379 . S
C1500 C1497 1.363 . S
C1500 N1498 1.356 . S
C1501 C1495 1.363 . S
C1501 C1496 1.379 . S
C1501 N1499 1.356 . S
N1502 C1494 1.356 . S
N1502 H1508 0.984 . S
N1502 H1509 0.984 . S
N1503 C1496 1.356 . S
N1503 H1506 0.984 . S
N1503 H1507 0.985 . S
H1504 N1499 0.984 . S
H1505 N1499 0.985 . S
H1506 N1503 0.984 . S
H1507 N1503 0.985 . S
H1508 N1502 0.984 . S
H1509 N1502 0.984 . S
H1510 N1498 0.984 . S
H1511 N1498 0.985 . S
C1512 C1513 1.363 . S
C1512 C1518 1.379 . S
C1512 N1520 1.356 . S
C1513 C1512 1.363 . S
C1513 C1519 1.363 . S
C1514 C1515 1.363 . S
C1514 C1519 1.379 . S
C1514 N1521 1.356 . S
C1515 C1514 1.363 . S
C1515 C1518 1.363 . S
N1516 C1518 1.356 . S
N1516 H1528 0.984 . S
N1516 H1529 0.985 . S
N1517 C1519 1.356 . S
N1517 H1522 0.984 . S
N1517 H1523 0.985 . S
C1518 C1512 1.379 . S
C1518 C1515 1.363 . S
C1518 N1516 1.356 . S
C1519 C1513 1.363 . S
C1519 C1514 1.379 . S
C1519 N1517 1.356 . S
N1520 C1512 1.356 . S
N1520 H1526 0.984 . S
N1520 H1527 0.984 . S
N1521 C1514 1.356 . S
N1521 H1524 0.984 . S
N1521 H1525 0.985 . S
H1522 N1517 0.984 . S
H1523 N1517 0.985 . S
H1524 N1521 0.984 . S
H1525 N1521 0.985 . S
H1526 N1520 0.984 . S
H1527 N1520 0.984 . S
H1528 N1516 0.984 . S
H1529 N1516 0.985 . S
C1530 C1531 1.363 . S
C1530 C1536 1.379 . S
C1530 N1538 1.356 . S
C1531 C1530 1.363 . S
C1531 C1537 1.363 . S
C1532 C1533 1.363 . S
C1532 C1537 1.379 . S
C1532 N1539 1.356 . S
C1533 C1532 1.363 . S
C1533 C1536 1.363 . S
N1534 C1536 1.356 . S
N1534 H1546 0.984 . S
N1534 H1547 0.985 . S
N1535 C1537 1.356 . S
N1535 H1540 0.984 . S
N1535 H1541 0.985 . S
C1536 C1530 1.379 . S
C1536 C1533 1.363 . S
C1536 N1534 1.356 . S
C1537 C1531 1.363 . S
C1537 C1532 1.379 . S
C1537 N1535 1.356 . S
N1538 C1530 1.356 . S
N1538 H1544 0.984 . S
N1538 H1545 0.984 . S
N1539 C1532 1.356 . S
N1539 H1542 0.984 . S
N1539 H1543 0.985 . S
H1540 N1535 0.984 . S
H1541 N1535 0.985 . S
H1542 N1539 0.984 . S
H1543 N1539 0.985 . S
H1544 N1538 0.984 . S
H1545 N1538 0.984 . S
H1546 N1534 0.984 . S
H1547 N1534 0.985 . S
C1548 C1549 1.363 . S
C1548 C1554 1.379 . S
C1548 N1556 1.356 . S
C1549 C1548 1.363 . S
C1549 C1555 1.363 . S
C1550 C1551 1.363 . S
C1550 C1555 1.379 . S
C1550 N1557 1.356 . S
C1551 C1550 1.363 . S
C1551 C1554 1.363 . S
N1552 C1554 1.356 . S
N1552 H1564 0.984 . S
N1552 H1565 0.985 . S
N1553 C1555 1.356 . S
N1553 H1558 0.984 . S
N1553 H1559 0.985 . S
C1554 C1548 1.379 . S
C1554 C1551 1.363 . S
C1554 N1552 1.356 . S
C1555 C1549 1.363 . S
C1555 C1550 1.379 . S
C1555 N1553 1.356 . S
N1556 C1548 1.356 . S
N1556 H1562 0.984 . S
N1556 H1563 0.984 . S
N1557 C1550 1.356 . S
N1557 H1560 0.984 . S
N1557 H1561 0.985 1_565 S
H1558 N1553 0.984 . S
H1559 N1553 0.985 . S
H1560 N1557 0.984 . S
H1561 N1557 0.985 1_545 S
H1562 N1556 0.984 . S
H1563 N1556 0.984 . S
H1564 N1552 0.984 . S
H1565 N1552 0.985 . S
C1566 C1567 1.363 . S
C1566 C1572 1.379 . S
C1566 N1574 1.356 . S
C1567 C1566 1.363 . S
C1567 C1573 1.363 . S
C1568 C1569 1.363 . S
C1568 C1573 1.379 . S
C1568 N1575 1.356 . S
C1569 C1568 1.363 . S
C1569 C1572 1.363 . S
N1570 C1572 1.356 . S
N1570 H1582 0.984 . S
N1570 H1583 0.985 . S
N1571 C1573 1.356 . S
N1571 H1576 0.984 . S
N1571 H1577 0.985 . S
C1572 C1566 1.379 . S
C1572 C1569 1.363 . S
C1572 N1570 1.356 . S
C1573 C1567 1.363 . S
C1573 C1568 1.379 . S
C1573 N1571 1.356 . S
N1574 C1566 1.356 . S
N1574 H1580 0.984 . S
N1574 H1581 0.984 . S
N1575 C1568 1.356 . S
N1575 H1578 0.984 . S
N1575 H1579 0.985 . S
H1576 N1571 0.984 . S
H1577 N1571 0.985 . S
H1578 N1575 0.984 . S
H1579 N1575 0.985 . S
H1580 N1574 0.984 . S
H1581 N1574 0.984 . S
H1582 N1570 0.984 . S
H1583 N1570 0.985 . S
C1584 C1585 1.363 . S
C1584 C1590 1.379 1_556 S
C1584 N1592 1.356 . S
C1585 C1584 1.363 . S
C1585 C1591 1.363 . S
C1586 C1587 1.363 . S
C1586 C1591 1.379 1_554 S
C1586 N1593 1.356 . S
C1587 C1586 1.363 . S
C1587 C1590 1.363 . S
N1588 C1590 1.356 . S
N1588 H1600 0.984 . S
N1588 H1601 0.985 . S
N1589 C1591 1.356 . S
N1589 H1594 0.984 . S
N1589 H1595 0.985 . S
C1590 C1584 1.379 1_554 S
C1590 C1587 1.363 . S
C1590 N1588 1.356 . S
C1591 C1585 1.363 . S
C1591 C1586 1.379 1_556 S
C1591 N1589 1.356 . S
N1592 C1584 1.356 . S
N1592 H1598 0.984 . S
N1592 H1599 0.984 . S
N1593 C1586 1.356 . S
N1593 H1596 0.984 . S
N1593 H1597 0.985 . S
H1594 N1589 0.984 . S
H1595 N1589 0.985 . S
H1596 N1593 0.984 . S
H1597 N1593 0.985 . S
H1598 N1592 0.984 . S
H1599 N1592 0.984 . S
H1600 N1588 0.984 . S
H1601 N1588 0.985 . S
C1602 C1603 1.363 . S
C1602 C1608 1.379 . S
C1602 N1610 1.356 . S
C1603 C1602 1.363 . S
C1603 C1609 1.363 . S
C1604 C1605 1.363 . S
C1604 C1609 1.379 . S
C1604 N1611 1.356 . S
C1605 C1604 1.363 . S
C1605 C1608 1.363 . S
N1606 C1608 1.356 1_554 S
N1606 H1618 0.984 . S
N1606 H1619 0.985 . S
N1607 C1609 1.356 . S
N1607 H1612 0.984 . S
N1607 H1613 0.985 . S
C1608 C1602 1.379 . S
C1608 C1605 1.363 . S
C1608 N1606 1.356 1_556 S
C1609 C1603 1.363 . S
C1609 C1604 1.379 . S
C1609 N1607 1.356 . S
N1610 C1602 1.356 . S
N1610 H1616 0.984 . S
N1610 H1617 0.984 . S
N1611 C1604 1.356 . S
N1611 H1614 0.984 1_556 S
N1611 H1615 0.985 . S
H1612 N1607 0.984 . S
H1613 N1607 0.985 . S
H1614 N1611 0.984 1_554 S
H1615 N1611 0.985 . S
H1616 N1610 0.984 . S
H1617 N1610 0.984 . S
H1618 N1606 0.984 . S
H1619 N1606 0.985 . S
C1620 C1621 1.363 . S
C1620 C1626 1.379 1_556 S
C1620 N1628 1.356 . S
C1621 C1620 1.363 . S
C1621 C1627 1.363 . S
C1622 C1623 1.363 . S
C1622 C1627 1.379 1_554 S
C1622 N1629 1.356 . S
C1623 C1622 1.363 . S
C1623 C1626 1.363 . S
N1624 C1626 1.356 . S
N1624 H1636 0.984 . S
N1624 H1637 0.985 . S
N1625 C1627 1.356 . S
N1625 H1630 0.984 . S
N1625 H1631 0.985 . S
C1626 C1620 1.379 1_554 S
C1626 C1623 1.363 . S
C1626 N1624 1.356 . S
C1627 C1621 1.363 . S
C1627 C1622 1.379 1_556 S
C1627 N1625 1.356 . S
N1628 C1620 1.356 . S
N1628 H1634 0.984 . S
N1628 H1635 0.984 . S
N1629 C1622 1.356 . S
N1629 H1632 0.984 . S
N1629 H1633 0.985 . S
H1630 N1625 0.984 . S
H1631 N1625 0.985 . S
H1632 N1629 0.984 . S
H1633 N1629 0.985 . S
H1634 N1628 0.984 . S
H1635 N1628 0.984 . S
H1636 N1624 0.984 . S
H1637 N1624 0.985 . S
C1638 C1639 1.363 . S
C1638 C1644 1.379 . S
C1638 N1646 1.356 . S
C1639 C1638 1.363 . S
C1639 C1645 1.363 . S
C1640 C1641 1.363 . S
C1640 C1645 1.379 . S
C1640 N1647 1.356 . S
C1641 C1640 1.363 . S
C1641 C1644 1.363 . S
N1642 C1644 1.356 . S
N1642 H1654 0.984 . S
N1642 H1655 0.985 . S
N1643 C1645 1.356 . S
N1643 H1648 0.984 . S
N1643 H1649 0.985 . S
C1644 C1638 1.379 . S
C1644 C1641 1.363 . S
C1644 N1642 1.356 . S
C1645 C1639 1.363 . S
C1645 C1640 1.379 . S
C1645 N1643 1.356 . S
N1646 C1638 1.356 . S
N1646 H1652 0.984 . S
N1646 H1653 0.984 . S
N1647 C1640 1.356 . S
N1647 H1650 0.984 . S
N1647 H1651 0.985 . S
H1648 N1643 0.984 . S
H1649 N1643 0.985 . S
H1650 N1647 0.984 . S
H1651 N1647 0.985 . S
H1652 N1646 0.984 . S
H1653 N1646 0.984 . S
H1654 N1642 0.984 . S
H1655 N1642 0.985 . S
C1656 C1657 1.363 . S
C1656 C1662 1.379 . S
C1656 N1664 1.356 . S
C1657 C1656 1.363 . S
C1657 C1663 1.363 . S
C1658 C1659 1.363 . S
C1658 C1663 1.379 . S
C1658 N1665 1.356 . S
C1659 C1658 1.363 . S
C1659 C1662 1.363 . S
N1660 C1662 1.356 . S
N1660 H1672 0.984 . S
N1660 H1673 0.985 . S
N1661 C1663 1.356 . S
N1661 H1666 0.984 . S
N1661 H1667 0.985 . S
C1662 C1656 1.379 . S
C1662 C1659 1.363 . S
C1662 N1660 1.356 . S
C1663 C1657 1.363 . S
C1663 C1658 1.379 . S
C1663 N1661 1.356 . S
N1664 C1656 1.356 . S
N1664 H1670 0.984 . S
N1664 H1671 0.984 . S
N1665 C1658 1.356 . S
N1665 H1668 0.984 . S
N1665 H1669 0.985 . S
H1666 N1661 0.984 . S
H1667 N1661 0.985 . S
H1668 N1665 0.984 . S
H1669 N1665 0.985 . S
H1670 N1664 0.984 . S
H1671 N1664 0.984 . S
H1672 N1660 0.984 . S
H1673 N1660 0.985 . S
C1674 C1675 1.363 . S
C1674 C1680 1.379 . S
C1674 N1682 1.356 . S
C1675 C1674 1.363 . S
C1675 C1681 1.363 . S
C1676 C1677 1.363 . S
C1676 C1681 1.379 . S
C1676 N1683 1.356 . S
C1677 C1676 1.363 . S
C1677 C1680 1.363 . S
N1678 C1680 1.356 . S
N1678 H1690 0.984 . S
N1678 H1691 0.985 . S
N1679 C1681 1.356 . S
N1679 H1684 0.984 . S
N1679 H1685 0.985 . S
C1680 C1674 1.379 . S
C1680 C1677 1.363 . S
C1680 N1678 1.356 . S
C1681 C1675 1.363 . S
C1681 C1676 1.379 . S
C1681 N1679 1.356 . S
N1682 C1674 1.356 . S
N1682 H1688 0.984 . S
N1682 H1689 0.984 . S
N1683 C1676 1.356 . S
N1683 H1686 0.984 . S
N1683 H1687 0.985 . S
H1684 N1679 0.984 . S
H1685 N1679 0.985 . S
H1686 N1683 0.984 . S
H1687 N1683 0.985 . S
H1688 N1682 0.984 . S
H1689 N1682 0.984 . S
H1690 N1678 0.984 . S
H1691 N1678 0.985 . S
C1692 C1693 1.363 . S
C1692 C1698 1.379 . S
C1692 N1700 1.356 . S
C1693 C1692 1.363 . S
C1693 C1699 1.363 . S
C1694 C1695 1.363 . S
C1694 C1699 1.379 . S
C1694 N1701 1.356 . S
C1695 C1694 1.363 . S
C1695 C1698 1.363 . S
N1696 C1698 1.356 . S
N1696 H1708 0.984 . S
N1696 H1709 0.985 . S
N1697 C1699 1.356 . S
N1697 H1702 0.984 . S
N1697 H1703 0.985 . S
C1698 C1692 1.379 . S
C1698 C1695 1.363 . S
C1698 N1696 1.356 . S
C1699 C1693 1.363 . S
C1699 C1694 1.379 . S
C1699 N1697 1.356 . S
N1700 C1692 1.356 . S
N1700 H1706 0.984 . S
N1700 H1707 0.984 . S
N1701 C1694 1.356 . S
N1701 H1704 0.984 . S
N1701 H1705 0.985 . S
H1702 N1697 0.984 . S
H1703 N1697 0.985 . S
H1704 N1701 0.984 . S
H1705 N1701 0.985 . S
H1706 N1700 0.984 . S
H1707 N1700 0.984 . S
H1708 N1696 0.984 . S
H1709 N1696 0.985 . S
C1710 C1711 1.363 . S
C1710 C1716 1.379 . S
C1710 N1718 1.356 . S
C1711 C1710 1.363 . S
C1711 C1717 1.363 . S
C1712 C1713 1.363 . S
C1712 C1717 1.379 . S
C1712 N1719 1.356 . S
C1713 C1712 1.363 . S
C1713 C1716 1.363 . S
N1714 C1716 1.356 . S
N1714 H1726 0.984 . S
N1714 H1727 0.985 . S
N1715 C1717 1.356 . S
N1715 H1720 0.984 . S
N1715 H1721 0.985 . S
C1716 C1710 1.379 . S
C1716 C1713 1.363 . S
C1716 N1714 1.356 . S
C1717 C1711 1.363 . S
C1717 C1712 1.379 . S
C1717 N1715 1.356 . S
N1718 C1710 1.356 . S
N1718 H1724 0.984 . S
N1718 H1725 0.984 . S
N1719 C1712 1.356 . S
N1719 H1722 0.984 . S
N1719 H1723 0.985 1_565 S
H1720 N1715 0.984 . S
H1721 N1715 0.985 . S
H1722 N1719 0.984 . S
H1723 N1719 0.985 1_545 S
H1724 N1718 0.984 . S
H1725 N1718 0.984 . S
H1726 N1714 0.984 . S
H1727 N1714 0.985 . S
C1728 C1729 1.363 . S
C1728 C1734 1.379 . S
C1728 N1736 1.356 . S
C1729 C1728 1.363 . S
C1729 C1735 1.363 . S
C1730 C1731 1.363 . S
C1730 C1735 1.379 . S
C1730 N1737 1.356 . S
C1731 C1730 1.363 . S
C1731 C1734 1.363 . S
N1732 C1734 1.356 . S
N1732 H1744 0.984 . S
N1732 H1745 0.985 . S
N1733 C1735 1.356 . S
N1733 H1738 0.984 . S
N1733 H1739 0.985 . S
C1734 C1728 1.379 . S
C1734 C1731 1.363 . S
C1734 N1732 1.356 . S
C1735 C1729 1.363 . S
C1735 C1730 1.379 . S
C1735 N1733 1.356 . S
N1736 C1728 1.356 . S
N1736 H1742 0.984 . S
N1736 H1743 0.984 . S
N1737 C1730 1.356 . S
N1737 H1740 0.984 . S
N1737 H1741 0.985 . S
H1738 N1733 0.984 . S
H1739 N1733 0.985 . S
H1740 N1737 0.984 . S
H1741 N1737 0.985 . S
H1742 N1736 0.984 . S
H1743 N1736 0.984 . S
H1744 N1732 0.984 . S
H1745 N1732 0.985 . S
C1746 C1747 1.363 . S
C1746 C1752 1.379 . S
C1746 N1754 1.356 . S
C1747 C1746 1.363 . S
C1747 C1753 1.363 . S
C1748 C1749 1.363 . S
C1748 C1753 1.379 . S
C1748 N1755 1.356 . S
C1749 C1748 1.363 . S
C1749 C1752 1.363 . S
N1750 C1752 1.356 . S
N1750 H1762 0.984 . S
N1750 H1763 0.985 . S
N1751 C1753 1.356 . S
N1751 H1756 0.984 . S
N1751 H1757 0.985 . S
C1752 C1746 1.379 . S
C1752 C1749 1.363 . S
C1752 N1750 1.356 . S
C1753 C1747 1.363 . S
C1753 C1748 1.379 . S
C1753 N1751 1.356 . S
N1754 C1746 1.356 . S
N1754 H1760 0.984 . S
N1754 H1761 0.984 . S
N1755 C1748 1.356 . S
N1755 H1758 0.984 . S
N1755 H1759 0.985 . S
H1756 N1751 0.984 . S
H1757 N1751 0.985 . S
H1758 N1755 0.984 . S
H1759 N1755 0.985 . S
H1760 N1754 0.984 . S
H1761 N1754 0.984 . S
H1762 N1750 0.984 . S
H1763 N1750 0.985 . S
C1764 C1765 1.363 . S
C1764 C1770 1.379 . S
C1764 N1772 1.356 . S
C1765 C1764 1.363 . S
C1765 C1771 1.363 . S
C1766 C1767 1.363 . S
C1766 C1771 1.379 . S
C1766 N1773 1.356 . S
C1767 C1766 1.363 . S
C1767 C1770 1.363 . S
N1768 C1770 1.356 . S
N1768 H1780 0.984 . S
N1768 H1781 0.985 . S
N1769 C1771 1.356 . S
N1769 H1774 0.984 . S
N1769 H1775 0.985 . S
C1770 C1764 1.379 . S
C1770 C1767 1.363 . S
C1770 N1768 1.356 . S
C1771 C1765 1.363 . S
C1771 C1766 1.379 . S
C1771 N1769 1.356 . S
N1772 C1764 1.356 . S
N1772 H1778 0.984 . S
N1772 H1779 0.984 . S
N1773 C1766 1.356 . S
N1773 H1776 0.984 . S
N1773 H1777 0.985 . S
H1774 N1769 0.984 . S
H1775 N1769 0.985 . S
H1776 N1773 0.984 . S
H1777 N1773 0.985 . S
H1778 N1772 0.984 . S
H1779 N1772 0.984 . S
H1780 N1768 0.984 . S
H1781 N1768 0.985 . S
C1782 C1783 1.363 . S
C1782 C1788 1.379 . S
C1782 N1790 1.356 . S
C1783 C1782 1.363 . S
C1783 C1789 1.363 . S
C1784 C1785 1.363 . S
C1784 C1789 1.379 . S
C1784 N1791 1.356 . S
C1785 C1784 1.363 . S
C1785 C1788 1.363 . S
N1786 C1788 1.356 . S
N1786 H1798 0.984 . S
N1786 H1799 0.985 . S
N1787 C1789 1.356 . S
N1787 H1792 0.984 . S
N1787 H1793 0.985 . S
C1788 C1782 1.379 . S
C1788 C1785 1.363 . S
C1788 N1786 1.356 . S
C1789 C1783 1.363 . S
C1789 C1784 1.379 . S
C1789 N1787 1.356 . S
N1790 C1782 1.356 . S
N1790 H1796 0.984 . S
N1790 H1797 0.984 . S
N1791 C1784 1.356 . S
N1791 H1794 0.984 . S
N1791 H1795 0.985 . S
H1792 N1787 0.984 . S
H1793 N1787 0.985 . S
H1794 N1791 0.984 . S
H1795 N1791 0.985 . S
H1796 N1790 0.984 . S
H1797 N1790 0.984 . S
H1798 N1786 0.984 . S
H1799 N1786 0.985 . S
C1800 C1801 1.363 . S
C1800 C1806 1.379 . S
C1800 N1808 1.356 . S
C1801 C1800 1.363 . S
C1801 C1807 1.363 . S
C1802 C1803 1.363 . S
C1802 C1807 1.379 . S
C1802 N1809 1.356 . S
C1803 C1802 1.363 . S
C1803 C1806 1.363 . S
N1804 C1806 1.356 . S
N1804 H1816 0.984 . S
N1804 H1817 0.985 . S
N1805 C1807 1.356 . S
N1805 H1810 0.984 . S
N1805 H1811 0.985 . S
C1806 C1800 1.379 . S
C1806 C1803 1.363 . S
C1806 N1804 1.356 . S
C1807 C1801 1.363 . S
C1807 C1802 1.379 . S
C1807 N1805 1.356 . S
N1808 C1800 1.356 . S
N1808 H1814 0.984 . S
N1808 H1815 0.984 . S
N1809 C1802 1.356 . S
N1809 H1812 0.984 . S
N1809 H1813 0.985 . S
H1810 N1805 0.984 . S
H1811 N1805 0.985 . S
H1812 N1809 0.984 . S
H1813 N1809 0.985 . S
H1814 N1808 0.984 . S
H1815 N1808 0.984 . S
H1816 N1804 0.984 . S
H1817 N1804 0.985 . S
C1818 C1819 1.363 . S
C1818 C1824 1.379 . S
C1818 N1826 1.356 . S
C1819 C1818 1.363 . S
C1819 C1825 1.363 . S
C1820 C1821 1.363 . S
C1820 C1825 1.379 . S
C1820 N1827 1.356 . S
C1821 C1820 1.363 . S
C1821 C1824 1.363 . S
N1822 C1824 1.356 . S
N1822 H1834 0.984 . S
N1822 H1835 0.985 . S
N1823 C1825 1.356 . S
N1823 H1828 0.984 . S
N1823 H1829 0.985 . S
C1824 C1818 1.379 . S
C1824 C1821 1.363 . S
C1824 N1822 1.356 . S
C1825 C1819 1.363 . S
C1825 C1820 1.379 . S
C1825 N1823 1.356 . S
N1826 C1818 1.356 . S
N1826 H1832 0.984 . S
N1826 H1833 0.984 . S
N1827 C1820 1.356 . S
N1827 H1830 0.984 . S
N1827 H1831 0.985 . S
H1828 N1823 0.984 . S
H1829 N1823 0.985 . S
H1830 N1827 0.984 . S
H1831 N1827 0.985 . S
H1832 N1826 0.984 . S
H1833 N1826 0.984 . S
H1834 N1822 0.984 . S
H1835 N1822 0.985 . S
C1836 C1837 1.363 . S
C1836 C1842 1.379 . S
C1836 N1844 1.356 . S
C1837 C1836 1.363 . S
C1837 C1843 1.363 . S
C1838 C1839 1.363 . S
C1838 C1843 1.379 . S
C1838 N1845 1.356 . S
C1839 C1838 1.363 . S
C1839 C1842 1.363 . S
N1840 C1842 1.356 . S
N1840 H1852 0.984 . S
N1840 H1853 0.985 . S
N1841 C1843 1.356 . S
N1841 H1846 0.984 . S
N1841 H1847 0.985 . S
C1842 C1836 1.379 . S
C1842 C1839 1.363 . S
C1842 N1840 1.356 . S
C1843 C1837 1.363 . S
C1843 C1838 1.379 . S
C1843 N1841 1.356 . S
N1844 C1836 1.356 . S
N1844 H1850 0.984 . S
N1844 H1851 0.984 . S
N1845 C1838 1.356 . S
N1845 H1848 0.984 . S
N1845 H1849 0.985 . S
H1846 N1841 0.984 . S
H1847 N1841 0.985 . S
H1848 N1845 0.984 . S
H1849 N1845 0.985 . S
H1850 N1844 0.984 . S
H1851 N1844 0.984 . S
H1852 N1840 0.984 . S
H1853 N1840 0.985 . S
C1854 C1855 1.363 . S
C1854 C1860 1.379 . S
C1854 N1862 1.356 . S
C1855 C1854 1.363 . S
C1855 C1861 1.363 . S
C1856 C1857 1.363 . S
C1856 C1861 1.379 . S
C1856 N1863 1.356 . S
C1857 C1856 1.363 . S
C1857 C1860 1.363 . S
N1858 C1860 1.356 . S
N1858 H1870 0.984 . S
N1858 H1871 0.985 . S
N1859 C1861 1.356 . S
N1859 H1864 0.984 . S
N1859 H1865 0.985 . S
C1860 C1854 1.379 . S
C1860 C1857 1.363 . S
C1860 N1858 1.356 . S
C1861 C1855 1.363 . S
C1861 C1856 1.379 . S
C1861 N1859 1.356 . S
N1862 C1854 1.356 . S
N1862 H1868 0.984 . S
N1862 H1869 0.984 . S
N1863 C1856 1.356 . S
N1863 H1866 0.984 . S
N1863 H1867 0.985 . S
H1864 N1859 0.984 . S
H1865 N1859 0.985 . S
H1866 N1863 0.984 . S
H1867 N1863 0.985 . S
H1868 N1862 0.984 . S
H1869 N1862 0.984 . S
H1870 N1858 0.984 . S
H1871 N1858 0.985 . S
C1872 C1873 1.363 . S
C1872 C1878 1.379 . S
C1872 N1880 1.356 . S
C1873 C1872 1.363 . S
C1873 C1879 1.363 . S
C1874 C1875 1.363 . S
C1874 C1879 1.379 . S
C1874 N1881 1.356 . S
C1875 C1874 1.363 . S
C1875 C1878 1.363 . S
N1876 C1878 1.356 . S
N1876 H1888 0.984 . S
N1876 H1889 0.985 . S
N1877 C1879 1.356 . S
N1877 H1882 0.984 . S
N1877 H1883 0.985 . S
C1878 C1872 1.379 . S
C1878 C1875 1.363 . S
C1878 N1876 1.356 . S
C1879 C1873 1.363 . S
C1879 C1874 1.379 . S
C1879 N1877 1.356 . S
N1880 C1872 1.356 . S
N1880 H1886 0.984 . S
N1880 H1887 0.984 . S
N1881 C1874 1.356 . S
N1881 H1884 0.984 . S
N1881 H1885 0.985 . S
H1882 N1877 0.984 . S
H1883 N1877 0.985 . S
H1884 N1881 0.984 . S
H1885 N1881 0.985 . S
H1886 N1880 0.984 . S
H1887 N1880 0.984 . S
H1888 N1876 0.984 . S
H1889 N1876 0.985 . S
C1890 C1891 1.363 . S
C1890 C1896 1.379 . S
C1890 N1898 1.356 . S
C1891 C1890 1.363 . S
C1891 C1897 1.363 . S
C1892 C1893 1.363 . S
C1892 C1897 1.379 . S
C1892 N1899 1.356 . S
C1893 C1892 1.363 . S
C1893 C1896 1.363 . S
N1894 C1896 1.356 . S
N1894 H1906 0.984 . S
N1894 H1907 0.985 . S
N1895 C1897 1.356 . S
N1895 H1900 0.984 . S
N1895 H1901 0.985 . S
C1896 C1890 1.379 . S
C1896 C1893 1.363 . S
C1896 N1894 1.356 . S
C1897 C1891 1.363 . S
C1897 C1892 1.379 . S
C1897 N1895 1.356 . S
N1898 C1890 1.356 . S
N1898 H1904 0.984 . S
N1898 H1905 0.984 . S
N1899 C1892 1.356 . S
N1899 H1902 0.984 . S
N1899 H1903 0.985 . S
H1900 N1895 0.984 . S
H1901 N1895 0.985 . S
H1902 N1899 0.984 . S
H1903 N1899 0.985 . S
H1904 N1898 0.984 . S
H1905 N1898 0.984 . S
H1906 N1894 0.984 . S
H1907 N1894 0.985 . S
C1908 C1909 1.363 . S
C1908 C1914 1.379 . S
C1908 N1916 1.356 . S
C1909 C1908 1.363 . S
C1909 C1915 1.363 . S
C1910 C1911 1.363 1_554 S
C1910 C1915 1.379 . S
C1910 N1917 1.356 1_554 S
C1911 C1910 1.363 1_556 S
C1911 C1914 1.363 1_556 S
N1912 C1914 1.356 . S
N1912 H1924 0.984 . S
N1912 H1925 0.985 1_554 S
N1913 C1915 1.356 . S
N1913 H1918 0.984 . S
N1913 H1919 0.985 . S
C1914 C1908 1.379 . S
C1914 C1911 1.363 1_554 S
C1914 N1912 1.356 . S
C1915 C1909 1.363 . S
C1915 C1910 1.379 . S
C1915 N1913 1.356 . S
N1916 C1908 1.356 . S
N1916 H1922 0.984 . S
N1916 H1923 0.984 . S
N1917 C1910 1.356 1_556 S
N1917 H1920 0.984 . S
N1917 H1921 0.985 . S
H1918 N1913 0.984 . S
H1919 N1913 0.985 . S
H1920 N1917 0.984 . S
H1921 N1917 0.985 . S
H1922 N1916 0.984 . S
H1923 N1916 0.984 . S
H1924 N1912 0.984 . S
H1925 N1912 0.985 1_556 S
C1926 C1927 1.363 . S
C1926 C1932 1.379 . S
C1926 N1934 1.356 . S
C1927 C1926 1.363 . S
C1927 C1933 1.363 . S
C1928 C1929 1.363 . S
C1928 C1933 1.379 . S
C1928 N1935 1.356 . S
C1929 C1928 1.363 . S
C1929 C1932 1.363 . S
N1930 C1932 1.356 . S
N1930 H1942 0.984 . S
N1930 H1943 0.985 . S
N1931 C1933 1.356 . S
N1931 H1936 0.984 . S
N1931 H1937 0.985 . S
C1932 C1926 1.379 . S
C1932 C1929 1.363 . S
C1932 N1930 1.356 . S
C1933 C1927 1.363 . S
C1933 C1928 1.379 . S
C1933 N1931 1.356 . S
N1934 C1926 1.356 . S
N1934 H1940 0.984 . S
N1934 H1941 0.984 . S
N1935 C1928 1.356 . S
N1935 H1938 0.984 1_554 S
N1935 H1939 0.985 . S
H1936 N1931 0.984 . S
H1937 N1931 0.985 . S
H1938 N1935 0.984 1_556 S
H1939 N1935 0.985 . S
H1940 N1934 0.984 . S
H1941 N1934 0.984 . S
H1942 N1930 0.984 . S
H1943 N1930 0.985 . S
C1944 C1945 1.363 . S
C1944 C1950 1.379 . S
C1944 N1952 1.356 . S
C1945 C1944 1.363 . S
C1945 C1951 1.363 . S
C1946 C1947 1.363 . S
C1946 C1951 1.379 . S
C1946 N1953 1.356 1_554 S
C1947 C1946 1.363 . S
C1947 C1950 1.363 . S
N1948 C1950 1.356 . S
N1948 H1960 0.984 . S
N1948 H1961 0.985 . S
N1949 C1951 1.356 . S
N1949 H1954 0.984 . S
N1949 H1955 0.985 . S
C1950 C1944 1.379 . S
C1950 C1947 1.363 . S
C1950 N1948 1.356 . S
C1951 C1945 1.363 . S
C1951 C1946 1.379 . S
C1951 N1949 1.356 . S
N1952 C1944 1.356 . S
N1952 H1958 0.984 . S
N1952 H1959 0.984 . S
N1953 C1946 1.356 1_556 S
N1953 H1956 0.984 . S
N1953 H1957 0.985 . S
H1954 N1949 0.984 . S
H1955 N1949 0.985 . S
H1956 N1953 0.984 . S
H1957 N1953 0.985 . S
H1958 N1952 0.984 . S
H1959 N1952 0.984 . S
H1960 N1948 0.984 . S
H1961 N1948 0.985 . S
C667 C7 1.497 . S
C669 C571 1.499 . S
C687 C543 1.782 . S
C685 C39 1.762 . S
C705 C563 1.569 . S
C703 C62 1.562 . S
C721 C76 1.829 . S
C723 C633 1.819 . S
C739 C108 1.514 . S
C741 C641 1.513 1_455 S
C757 N117 1.426 . S
C759 C661 1.400 . S
C777 C617 1.466 1_455 S
C775 C16 1.479 . S
C793 C30 1.822 . S
C795 C589 1.778 . S
C813 C605 1.504 . S
C811 C53 1.513 . S
C829 C85 1.801 . S
C831 C507 1.802 . S
C849 C519 1.663 . S
C847 C99 1.691 . S
C865 N127 1.348 . S
C867 C535 1.419 . S
C883 N150 1.211 . S
C885 C655 1.232 . S
C903 C627 1.548 . S
C901 N173 1.532 . S
C921 C647 1.419 . S
C919 C200 1.399 . S
C937 C214 1.642 . S
C939 C465 1.645 . S
C955 N232 1.576 . S
C957 C473 1.586 . S
C973 C260 1.535 . S
C975 C493 1.527 . S
C993 C449 1.302 . S
C991 N140 1.297 . S
C1009 N163 1.287 . S
C1011 C421 1.297 . S
C1029 C437 1.609 . S
C1027 C191 1.609 . S
C1047 C591 1.908 . S
C1045 C223 1.910 . S
C1065 C603 1.556 . S
C1063 N242 1.485 . S
C1083 C619 1.583 . S
C1081 C269 1.585 . S
C1099 N288 1.377 . S
C1101 C487 1.393 . S
C1117 C315 1.508 . S
C1119 C459 1.543 . S
C1135 C338 1.649 . S
C1137 C479 1.655 . S
C1153 C352 1.836 . S
C1155 C549 1.837 . S
C1173 C557 1.631 . S
C1171 N370 1.628 . S
C1191 C577 1.608 . S
C1189 C398 1.605 . S
C1209 C533 1.271 . S
C1207 N278 1.218 . S
C1225 C306 1.720 . S
C1227 C505 1.679 . S
C1243 C329 1.618 . S
C1245 C521 1.612 1_655 S
C1263 C423 1.552 . S
C1261 C361 1.556 . S
C1279 N380 1.513 . S
C1281 C435 1.569 . S
C1299 C451 1.537 . S
C1297 C407 1.538 . S
C1317 C463 1.419 . S
C1315 N12 1.384 . S
C1333 N25 1.553 . S
C1335 C478 1.565 . S
C1353 C491 1.346 . S
C1351 N48 1.352 1_545 S
C1371 C492 1.374 . S
C1369 N81 1.359 . S
C1389 C464 1.538 . S
C1387 N94 1.481 . S
C1407 C477 1.571 . S
C1405 C131 1.592 . S
C1425 C417 1.440 . S
C1423 N2 1.436 . S
C1441 N35 1.464 . S
C1443 C436 1.514 . S
C1459 N58 1.348 . S
C1461 C445 1.403 . S
C1479 C450 1.338 . S
C1477 N71 1.292 . S
C1497 C422 1.386 . S
C1495 N104 1.353 . S
C1515 C431 1.618 . S
C1513 C122 1.616 . S
C1531 C145 2.015 . S
C1533 C547 1.990 . S
C1549 C168 1.710 . S
C1551 C562 1.721 . S
C1567 N186 1.457 . S
C1569 C575 1.455 . S
C1587 C576 1.402 . S
C1585 N219 1.395 . S
C1605 C548 1.764 1_556 S
C1603 C246 1.752 . S
C1623 C561 1.458 . S
C1621 N265 1.481 . S
C1641 C501 1.941 . S
C1639 C154 1.939 . S
C1657 C177 1.832 . S
C1659 C520 1.813 . S
C1675 N196 1.299 . S
C1677 C529 1.345 . S
C1693 N209 1.193 . S
C1695 C534 1.271 . S
C1711 C237 1.798 . S
C1713 C506 1.794 . S
C1731 C515 1.453 . S
C1729 N255 1.400 . S
C1747 C283 1.784 . S
C1749 C631 1.734 . S
C1765 N301 1.439 . S
C1767 C646 1.450 . S
C1783 N324 1.369 . S
C1785 C659 1.360 . S
C1803 C660 1.216 . S
C1801 N357 1.193 . S
C1821 C632 1.736 . S
C1819 C384 1.738 . S
C1837 N403 1.358 . S
C1839 C645 1.342 . S
C1855 C292 1.878 . S
C1857 C585 1.878 . S
C1875 C604 1.371 . S
C1873 N311 1.330 . S
C1891 N334 1.423 . S
C1893 C613 1.487 . S
C1909 N347 1.351 . S
C1911 C618 1.381 . S
C1929 C590 1.841 . S
C1927 C375 1.847 . S
C1945 N393 1.362 . S
C1947 C599 1.413 1_554 S
