# Generated by pormake.
# Topology tsx, (6,3)-cn, num edge types: 1
# Building blocks:
#     Node 0, Type 0, BuildingBlock: FUNLAD_clean_sbu_0, # of connection points: 6
#     Node 1, Type 0, BuildingBlock: FUNLAD_clean_sbu_0, # of connection points: 6
#     Node 2, Type 1, BuildingBlock: OLANEW_clean_sbu_2, # of connection points: 3
#     Node 3, Type 1, BuildingBlock: OLANEW_clean_sbu_2, # of connection points: 3
#     Node 4, Type 1, BuildingBlock: OLANEW_clean_sbu_2, # of connection points: 3
#     Node 5, Type 1, BuildingBlock: OLANEW_clean_sbu_2, # of connection points: 3
#     Edge 6, Type (0, 1), BuildingBlock: EZIPEK_clean_linker_0, # of connection points: 2
#     Edge 7, Type (0, 1), BuildingBlock: EZIPEK_clean_linker_0, # of connection points: 2
#     Edge 8, Type (0, 1), BuildingBlock: EZIPEK_clean_linker_0, # of connection points: 2
#     Edge 9, Type (0, 1), BuildingBlock: EZIPEK_clean_linker_0, # of connection points: 2
#     Edge 10, Type (0, 1), BuildingBlock: EZIPEK_clean_linker_0, # of connection points: 2
#     Edge 11, Type (0, 1), BuildingBlock: EZIPEK_clean_linker_0, # of connection points: 2
#     Edge 12, Type (0, 1), BuildingBlock: EZIPEK_clean_linker_0, # of connection points: 2
#     Edge 13, Type (0, 1), BuildingBlock: EZIPEK_clean_linker_0, # of connection points: 2
#     Edge 14, Type (0, 1), BuildingBlock: EZIPEK_clean_linker_0, # of connection points: 2
#     Edge 15, Type (0, 1), BuildingBlock: EZIPEK_clean_linker_0, # of connection points: 2
#     Edge 16, Type (0, 1), BuildingBlock: EZIPEK_clean_linker_0, # of connection points: 2
#     Edge 17, Type (0, 1), BuildingBlock: EZIPEK_clean_linker_0, # of connection points: 2
# Relax obj value: 0.082
# Max RMSD: 0.101
# Mean RMSD: 0.093
data_MOF--net-tsx--node1-FUNLAD_clean_sbu_0--node2-OLANEW_clean_sbu_2--edge1-EZIPEK_clean_linker_0
_symmetry_space_group_name_H-M    P1
_symmetry_Int_Tables_number       1
_symmetry_cell_setting            triclinic
loop_
_symmetry_equiv_pos_as_xyz
'x, y, z'
_cell_length_a     15.796492
_cell_length_b     17.462309
_cell_length_c     31.081973
_cell_angle_alpha  97.48666
_cell_angle_beta   92.218795
_cell_angle_gamma 89.99318
loop_
_atom_site_label
_atom_site_type_symbol
_atom_site_fract_x
_atom_site_fract_y
_atom_site_fract_z
_atom_type_partial_charge
C0 C 0.89298 0.93033 0.00268 0.0
N1 N 0.01847 0.02497 0.11764 0.0
C2 C 0.94497 0.03916 0.13868 0.0
C3 C 0.9377 0.02251 0.18107 0.0
C4 C 0.00577 0.98836 0.20159 0.0
C5 C 0.0819 0.9766 0.17995 0.0
C6 C 0.08729 -0.00356 0.13797 0.0
Zn7 Zn 0.02029 0.03638 0.05243 0.0
C8 C 0.1353 0.92292 0.00527 0.0
N9 N 0.02042 0.05134 0.9154 0.0
C10 C 0.9488 0.07078 0.89357 0.0
C11 C 0.09489 0.03983 0.89482 0.0
C12 C 0.09868 0.0454 0.85054 0.0
C13 C 0.02602 0.06593 0.82744 0.0
C14 C 0.95062 0.07988 0.84959 0.0
Zn15 Zn 0.01844 0.04133 0.98074 0.0
O16 O 0.91914 0.95895 0.0405 0.0
C17 C 0.9027 0.15566 0.02661 0.0
O18 O 0.92483 0.95324 0.96958 0.0
H19 H 0.15182 0.02629 0.91265 0.0
H20 H 0.89056 0.0606 0.12213 0.0
H21 H 0.89002 0.0794 0.91018 0.0
O22 O 0.93501 0.13101 0.06026 0.0
O23 O 0.925 0.12627 0.98929 0.0
H24 H 0.14564 0.98623 0.12114 0.0
O25 O 0.11331 0.12781 0.99369 0.0
O26 O 0.12085 0.1134 0.06324 0.0
O27 O 0.11056 0.95669 0.97348 0.0
O28 O 0.10622 0.94245 0.04258 0.0
C29 C 0.14645 0.14519 0.03164 0.0
H30 H 0.87803 0.03237 0.19689 0.0
H31 H 0.13574 0.95045 0.19493 0.0
H32 H 0.15798 0.03447 0.83451 0.0
H33 H 0.89337 0.09604 0.83274 0.0
C34 C 0.40023 0.39729 0.48911 0.0
N35 N 0.50687 0.48403 0.60928 0.0
C36 C 0.43186 0.49211 0.62953 0.0
C37 C 0.42746 0.48126 0.67306 0.0
C38 C 0.50037 0.45966 0.69557 0.0
C39 C 0.57649 0.4499 0.67379 0.0
C40 C 0.57864 0.46365 0.63062 0.0
Zn41 Zn 0.51215 0.50339 0.54582 0.0
C42 C 0.64144 0.40491 0.49803 0.0
N43 N 0.5259 0.54251 0.41341 0.0
C44 C 0.45462 0.53104 0.38732 0.0
C45 C 0.59861 0.56953 0.39847 0.0
C46 C 0.60067 0.58825 0.35619 0.0
C47 C 0.52804 0.57664 0.32871 0.0
C48 C 0.45471 0.54669 0.34446 0.0
Zn49 Zn 0.52113 0.5227 0.47674 0.0
O50 O 0.42038 0.42029 0.5285 0.0
C51 C 0.38498 0.61572 0.52151 0.0
O52 O 0.43395 0.42825 0.45907 0.0
H53 H 0.65491 0.5776 0.41947 0.0
H54 H 0.37522 0.50734 0.61209 0.0
H55 H 0.39707 0.51074 0.39984 0.0
O56 O 0.41593 0.5891 0.55487 0.0
O57 O 0.41845 0.59845 0.48511 0.0
H58 H 0.63787 0.45835 0.61429 0.0
O59 O 0.60943 0.61451 0.49658 0.0
O60 O 0.60683 0.58558 0.5633 0.0
O61 O 0.62178 0.44562 0.46822 0.0
O62 O 0.60483 0.4162 0.53399 0.0
C63 C 0.63686 0.62483 0.53589 0.0
H64 H 0.3677 0.48916 0.68899 0.0
H65 H 0.63389 0.43324 0.69032 0.0
H66 H 0.65823 0.61145 0.34499 0.0
H67 H 0.39752 0.53726 0.32405 0.0
O68 O 0.94159 0.80113 0.36515 0.0
Cd69 Cd 0.91037 0.76036 0.43485 0.0
O70 O 0.96293 0.9146 0.40246 0.0
Cd71 Cd 0.98123 0.03907 0.41177 0.0
O72 O 0.92688 0.15089 0.43323 0.0
C73 C 0.87326 0.15119 0.46266 0.0
O74 O 0.8587 0.08727 0.47926 0.0
C75 C 0.95933 0.87219 0.36598 0.0
C76 C 0.06139 0.73112 0.47752 0.0
O77 O 0.02298 0.67854 0.4513 0.0
O78 O 0.02704 0.79779 0.48494 0.0
O79 O 0.03033 0.13423 0.62416 0.0
Cd80 Cd 0.01738 0.10572 0.54473 0.0
O81 O 0.05842 0.01139 0.61824 0.0
Cd82 Cd 0.06732 0.89771 0.639 0.0
O83 O 0.98516 0.80621 0.60743 0.0
C84 C 0.91231 0.80129 0.62264 0.0
O85 O 0.89471 0.843 0.65938 0.0
C86 C 0.04557 0.07449 0.64223 0.0
C87 C 0.14469 0.17997 0.50749 0.0
O88 O 0.07863 0.21634 0.52128 0.0
O89 O 0.14869 0.10717 0.50932 0.0
O90 O 0.47359 0.35674 0.89037 0.0
Cd91 Cd 0.45984 0.36968 0.96869 0.0
O92 O 0.4816 0.48182 0.90557 0.0
Cd93 Cd 0.48463 0.59924 0.88993 0.0
O94 O 0.41276 0.70148 0.9113 0.0
C95 C 0.39187 0.70501 0.95051 0.0
O96 O 0.41757 0.65107 0.97366 0.0
C97 C 0.48094 0.42222 0.87746 0.0
C98 C 0.61622 0.33859 0.00509 0.0
O99 O 0.56105 0.2854 0.99364 0.0
O100 O 0.59686 0.40856 1.00091 0.0
O101 O 0.49275 0.70921 0.14003 0.0
Cd102 Cd 0.46478 0.70772 0.06224 0.0
O103 O 0.51351 0.58622 0.12105 0.0
Cd104 Cd 0.52685 0.46823 0.13515 0.0
O105 O 0.45044 0.36536 0.11856 0.0
C106 C 0.41568 0.36242 0.08091 0.0
O107 O 0.43156 0.41714 0.05707 0.0
C108 C 0.50863 0.64297 0.15079 0.0
C109 C 0.61206 0.74514 0.02472 0.0
O110 O 0.56071 0.79708 0.04057 0.0
O111 O 0.59359 0.67396 0.02569 0.0
C112 C 0.29823 0.18139 0.03114 0.0
C113 C 0.21381 0.20348 0.03975 0.0
C114 C 0.26136 0.33244 0.07152 0.0
C115 C 0.34644 0.30725 0.06734 0.0
N116 N 0.44651 0.20453 0.05038 0.0
N117 N 0.113 0.29643 0.07085 0.0
C118 C 0.36519 0.2308 0.04909 0.0
C119 C 0.19465 0.27818 0.06059 0.0
N120 N 0.31424 0.1136 0.00553 0.0
N121 N 0.24445 0.40813 0.08584 0.0
H122 H 0.06197 0.25923 0.06162 0.0
H123 H 0.0961 0.34646 0.09058 0.0
H124 H 0.29152 0.4488 0.09657 0.0
H125 H 0.18413 0.43196 0.08472 0.0
H126 H 0.37416 0.09793 0.9947 0.0
H127 H 0.26632 0.07599 0.99182 0.0
H128 H 0.463 0.14702 0.04162 0.0
H129 H 0.49675 0.23903 0.06405 0.0
C130 C 0.28514 0.88175 0.00775 0.0
C131 C 0.19908 0.86217 0.99804 0.0
C132 C 0.23973 0.73507 0.96253 0.0
C133 C 0.32575 0.7591 0.96701 0.0
N134 N 0.42925 0.86033 0.98621 0.0
N135 N 0.0926 0.77425 0.96253 0.0
C136 C 0.34839 0.83372 0.98772 0.0
C137 C 0.17565 0.7897 0.97458 0.0
N138 N 0.30638 0.94634 0.03583 0.0
N139 N 0.21937 0.66029 0.94674 0.0
H140 H 0.04368 0.81227 0.97172 0.0
H141 H 0.07269 0.7262 0.94112 0.0
H142 H 0.26441 0.61927 0.9359 0.0
H143 H 0.15858 0.63742 0.94721 0.0
H144 H 0.36832 0.9595 0.0471 0.0
H145 H 0.26128 0.98312 0.05093 0.0
H146 H 0.44749 0.91716 0.99692 0.0
H147 H 0.4762 0.82734 0.97029 0.0
C148 C 0.83977 0.80913 0.0266 0.0
C149 C 0.82968 0.86709 0.99863 0.0
C150 C 0.69226 0.81106 0.97329 0.0
C151 C 0.6935 0.76898 0.00909 0.0
N152 N 0.76919 0.72545 0.07022 0.0
N153 N 0.74219 0.92515 0.94581 0.0
C154 C 0.76813 0.76581 0.03538 0.0
C155 C 0.75563 0.86776 0.97122 0.0
N156 N 0.91774 0.79535 0.04456 0.0
N157 N 0.63056 0.7962 0.94139 0.0
H158 H 0.78488 0.96998 0.94423 0.0
H159 H 0.68487 0.93186 0.92899 0.0
H160 H 0.58658 0.75166 0.9418 0.0
H161 H 0.62956 0.82121 0.91271 0.0
H162 H 0.92983 0.74936 0.06212 0.0
H163 H 0.9722 0.82482 0.03803 0.0
H164 H 0.81836 0.72961 0.09376 0.0
H165 H 0.71871 0.69103 0.07696 0.0
C166 C 0.84519 0.27744 0.00293 0.0
C167 C 0.83887 0.21794 0.02983 0.0
C168 C 0.70573 0.27336 0.05572 0.0
C169 C 0.70114 0.3169 0.02063 0.0
N170 N 0.768 0.36264 0.96016 0.0
N171 N 0.75413 0.15369 0.07807 0.0
C172 C 0.77203 0.32112 0.9945 0.0
C173 C 0.76768 0.21513 0.05614 0.0
N174 N 0.92082 0.29228 0.98571 0.0
N175 N 0.64985 0.28714 0.08809 0.0
H176 H 0.79233 0.10494 0.07541 0.0
H177 H 0.69894 0.14715 0.09459 0.0
H178 H 0.60617 0.33209 0.08855 0.0
H179 H 0.65374 0.26025 0.11615 0.0
H180 H 0.93036 0.33909 0.96879 0.0
H181 H 0.97624 0.26277 0.99237 0.0
H182 H 0.8141 0.35958 0.93692 0.0
H183 H 0.7164 0.39701 0.95358 0.0
C184 C 0.79 0.6386 0.55501 0.0
C185 C 0.71079 0.67453 0.54945 0.0
C186 C 0.77058 0.79753 0.58344 0.0
C187 C 0.84432 0.75802 0.59612 0.0
N188 N 0.91916 0.63821 0.59915 0.0
N189 N 0.62258 0.78722 0.55956 0.0
C190 C 0.85321 0.67785 0.58298 0.0
C191 C 0.7002 0.754 0.56375 0.0
N192 N 0.8051 0.56742 0.53295 0.0
N193 N 0.76896 0.87644 0.58876 0.0
H194 H 0.57101 0.75723 0.54353 0.0
H195 H 0.60837 0.84273 0.57397 0.0
H196 H 0.82059 0.91033 0.60152 0.0
H197 H 0.71988 0.90816 0.57652 0.0
H198 H 0.86446 0.54135 0.53283 0.0
H199 H 0.76036 0.53845 0.51113 0.0
H200 H 0.92306 0.57814 0.59423 0.0
H201 H 0.9664 0.66473 0.62035 0.0
C202 C 0.76963 0.3313 0.51931 0.0
C203 C 0.70143 0.34039 0.48936 0.0
C204 C 0.75158 0.23 0.44022 0.0
C205 C 0.81563 0.2173 0.47171 0.0
N206 N 0.87555 0.24604 0.54457 0.0
N207 N 0.6151 0.2863 0.42667 0.0
C208 C 0.82156 0.26494 0.51231 0.0
C209 C 0.68914 0.28675 0.4511 0.0
N210 N 0.78701 0.38722 0.55357 0.0
N211 N 0.74936 0.18717 0.40007 0.0
H212 H 0.56517 0.32389 0.43444 0.0
H213 H 0.59896 0.24311 0.40132 0.0
H214 H 0.78963 0.14084 0.39154 0.0
H215 H 0.71102 0.2009 0.37416 0.0
H216 H 0.84186 0.38795 0.57333 0.0
H217 H 0.75071 0.4368 0.56015 0.0
H218 H 0.87572 0.27335 0.57644 0.0
H219 H 0.91521 0.19849 0.54034 0.0
C220 C 0.2594 0.33936 0.46235 0.0
C221 C 0.34227 0.33068 0.47992 0.0
C222 C 0.29981 0.21483 0.50982 0.0
C223 C 0.21615 0.22311 0.49246 0.0
N224 N 0.12433 0.27759 0.44062 0.0
N225 N 0.44808 0.24732 0.50621 0.0
C226 C 0.19865 0.28025 0.46474 0.0
C227 C 0.36466 0.26334 0.49839 0.0
N228 N 0.23714 0.40575 0.44599 0.0
N229 N 0.3166 0.16655 0.54036 0.0
H230 H 0.49684 0.28272 0.49837 0.0
H231 H 0.46862 0.19538 0.51606 0.0
H232 H 0.27109 0.13293 0.55244 0.0
H233 H 0.37482 0.1657 0.55723 0.0
H234 H 0.1748 0.41907 0.43775 0.0
H235 H 0.28037 0.44978 0.44322 0.0
H236 H 0.11109 0.31416 0.4173 0.0
H237 H 0.07995 0.23336 0.44068 0.0
C238 C 0.22762 0.6146 0.52906 0.0
C239 C 0.30255 0.65586 0.52238 0.0
C240 C 0.21792 0.75493 0.49197 0.0
C241 C 0.14323 0.71349 0.49871 0.0
N242 N 0.07534 0.61791 0.53501 0.0
N243 N 0.36851 0.77372 0.50852 0.0
C244 C 0.14775 0.6481 0.52122 0.0
C245 C 0.29726 0.7292 0.50769 0.0
N246 N 0.23204 0.54094 0.53943 0.0
N247 N 0.21415 0.81516 0.46793 0.0
H248 H 0.42714 0.75568 0.51998 0.0
H249 H 0.36796 0.83073 0.50201 0.0
H250 H 0.15772 0.83554 0.45529 0.0
H251 H 0.26761 0.84146 0.45769 0.0
H252 H 0.17941 0.5048 0.53876 0.0
H253 H 0.28865 0.51317 0.54541 0.0
H254 H 0.07529 0.57493 0.55532 0.0
H255 H 0.01571 0.64135 0.52965 0.0
C256 C 0.93183 0.90288 0.24755 0.0
C257 C 0.99468 0.95963 0.24413 0.0
C258 C 0.04067 0.95381 0.3199 0.0
C259 C 0.97057 0.90496 0.32471 0.0
N260 N 0.83627 0.85096 0.29519 0.0
N261 N 0.09757 0.05106 0.28002 0.0
C262 C 0.91224 0.88464 0.28914 0.0
C263 C 0.04585 0.98875 0.28121 0.0
N264 N 0.89289 0.86405 0.21109 0.0
N265 N 0.10454 0.96392 0.35106 0.0
H266 H 0.1017 0.07931 0.2526 0.0
H267 H 0.12979 0.07914 0.30749 0.0
H268 H 0.10543 0.93677 0.37901 0.0
H269 H 0.16072 0.99296 0.34701 0.0
H270 H 0.85246 0.81714 0.21198 0.0
H271 H 0.90802 0.87283 0.17973 0.0
H272 H 0.78876 0.84155 0.27083 0.0
H273 H 0.8166 0.84097 0.32562 0.0
C274 C 0.08594 0.12361 0.76451 0.0
C275 C 0.02882 0.07139 0.78 0.0
C276 C 0.97233 0.03493 0.70571 0.0
C277 C 0.03851 0.07653 0.68974 0.0
N278 N 0.16431 0.15547 0.70358 0.0
N279 N 0.92847 0.96593 0.76347 0.0
C280 C 0.09704 0.11974 0.71904 0.0
C281 C 0.97469 0.02401 0.75011 0.0
N282 N 0.12692 0.17886 0.79301 0.0
N283 N 0.90509 0.00866 0.67894 0.0
H284 H 0.93163 0.95265 0.79523 0.0
H285 H 0.89376 0.92589 0.74196 0.0
H286 H 0.90048 0.01651 0.64623 0.0
H287 H 0.85022 0.98662 0.69046 0.0
H288 H 0.16308 0.2229 0.78321 0.0
H289 H 0.1178 0.18555 0.82634 0.0
H290 H 0.21394 0.18085 0.72351 0.0
H291 H 0.17396 0.15441 0.67049 0.0
C292 C 0.54762 0.49498 0.77391 0.0
C293 C 0.49705 0.44824 0.74204 0.0
C294 C 0.42967 0.38941 0.79942 0.0
C295 C 0.48742 0.4294 0.83068 0.0
N296 N 0.61654 0.50435 0.84511 0.0
N297 N 0.40455 0.33755 0.724 0.0
C298 C 0.55095 0.4776 0.81722 0.0
C299 C 0.44242 0.39128 0.75463 0.0
N300 N 0.58984 0.55787 0.76342 0.0
N301 N 0.36023 0.35289 0.81223 0.0
H302 H 0.41444 0.33539 0.69088 0.0
H303 H 0.37057 0.29047 0.73185 0.0
H304 H 0.34564 0.35334 0.84467 0.0
H305 H 0.31222 0.32938 0.79054 0.0
H306 H 0.62074 0.59784 0.78662 0.0
H307 H 0.58657 0.57469 0.73242 0.0
H308 H 0.66842 0.53377 0.83538 0.0
H309 H 0.62387 0.48999 0.87656 0.0
C310 C 0.46886 0.65328 0.27159 0.0
C311 C 0.52741 0.59764 0.28384 0.0
C312 C 0.58503 0.5858 0.21133 0.0
C313 C 0.51715 0.63083 0.19714 0.0
N314 N 0.38325 0.69409 0.21285 0.0
N315 N 0.63122 0.49969 0.26233 0.0
C316 C 0.45603 0.66138 0.22701 0.0
C317 C 0.58303 0.56079 0.25292 0.0
N318 N 0.42682 0.69968 0.30251 0.0
N319 N 0.65278 0.56888 0.18579 0.0
H320 H 0.62951 0.47752 0.29185 0.0
H321 H 0.66628 0.46624 0.2392 0.0
H322 H 0.65839 0.58887 0.15583 0.0
H323 H 0.70725 0.54215 0.19646 0.0
H324 H 0.38941 0.7459 0.29537 0.0
H325 H 0.43665 0.69736 0.3357 0.0
H326 H 0.33347 0.7102 0.23312 0.0
H327 H 0.36813 0.69729 0.18021 0.0
loop_
_geom_bond_atom_site_label_1
_geom_bond_atom_site_label_2
_geom_bond_distance
_geom_bond_site_symmetry_2
_ccdc_geom_bond_type
C0 O16 1.251 . S
C0 O18 1.254 1_554 S
N1 C2 1.333 1_455 S
N1 C6 1.307 . S
N1 Zn7 2.020 . S
C2 N1 1.333 1_655 S
C2 C3 1.379 . S
C2 H20 0.952 1_545 S
C3 C2 1.379 . S
C3 C4 1.390 1_655 S
C3 H30 0.949 . S
C4 C3 1.390 1_455 S
C4 C5 1.357 . S
C5 C4 1.357 . S
C5 C6 1.370 . S
C5 H31 0.950 . S
C6 N1 1.307 . S
C6 C5 1.370 . S
C6 H24 0.948 . S
Zn7 N1 2.020 . S
Zn7 O16 2.039 1_445 S
Zn7 O22 2.034 1_455 S
Zn7 O26 2.025 . S
Zn7 O28 2.024 1_545 S
C8 O27 1.246 1_554 S
C8 O28 1.249 . S
N9 C10 1.307 1_445 S
N9 C11 1.333 . S
N9 Zn15 2.020 1_455 S
C10 N9 1.307 1_665 S
C10 C14 1.370 . S
C10 H21 0.948 . S
C11 N9 1.333 . S
C11 C12 1.379 . S
C11 H19 0.952 . S
C12 C11 1.379 . S
C12 C13 1.390 1_545 S
C12 H32 0.949 . S
C13 C12 1.390 1_565 S
C13 C14 1.357 1_455 S
C14 C10 1.370 . S
C14 C13 1.357 1_655 S
C14 H33 0.950 . S
Zn15 N9 2.020 1_655 S
Zn15 O18 2.027 1_545 S
Zn15 O23 2.026 . S
Zn15 O25 2.037 1_655 S
Zn15 O27 2.032 1_645 S
O16 C0 1.251 . S
O16 Zn7 2.039 1_665 S
C17 O22 1.246 . S
C17 O23 1.249 1_554 S
O18 C0 1.254 1_556 S
O18 Zn15 2.027 1_565 S
H19 C11 0.952 . S
H20 C2 0.952 1_565 S
H21 C10 0.948 . S
O22 Zn7 2.034 1_655 S
O22 C17 1.246 . S
O23 Zn15 2.026 . S
O23 C17 1.249 1_556 S
H24 C6 0.948 . S
O25 Zn15 2.037 1_455 S
O25 C29 1.251 1_556 S
O26 Zn7 2.025 . S
O26 C29 1.254 . S
O27 C8 1.246 1_556 S
O27 Zn15 2.032 1_465 S
O28 Zn7 2.024 1_565 S
O28 C8 1.249 . S
C29 O25 1.251 1_554 S
C29 O26 1.254 . S
H30 C3 0.949 . S
H31 C5 0.950 . S
H32 C12 0.949 . S
H33 C14 0.950 . S
C34 O50 1.251 . S
C34 O52 1.254 . S
N35 C36 1.333 . S
N35 C40 1.307 . S
N35 Zn41 2.020 . S
C36 N35 1.333 . S
C36 C37 1.379 . S
C36 H54 0.952 . S
C37 C36 1.379 . S
C37 C38 1.390 . S
C37 H64 0.949 . S
C38 C37 1.390 . S
C38 C39 1.357 . S
C39 C38 1.357 . S
C39 C40 1.370 . S
C39 H65 0.950 . S
C40 N35 1.307 . S
C40 C39 1.370 . S
C40 H58 0.948 . S
Zn41 N35 2.020 . S
Zn41 O50 2.039 . S
Zn41 O56 2.034 . S
Zn41 O60 2.025 . S
Zn41 O62 2.024 . S
C42 O61 1.246 . S
C42 O62 1.249 . S
N43 C44 1.307 . S
N43 C45 1.333 . S
N43 Zn49 2.020 . S
C44 N43 1.307 . S
C44 C48 1.370 . S
C44 H55 0.948 . S
C45 N43 1.333 . S
C45 C46 1.379 . S
C45 H53 0.952 . S
C46 C45 1.379 . S
C46 C47 1.390 . S
C46 H66 0.949 . S
C47 C46 1.390 . S
C47 C48 1.357 . S
C48 C44 1.370 . S
C48 C47 1.357 . S
C48 H67 0.950 . S
Zn49 N43 2.020 . S
Zn49 O52 2.025 . S
Zn49 O57 2.024 . S
Zn49 O59 2.039 . S
Zn49 O61 2.034 . S
O50 C34 1.251 . S
O50 Zn41 2.039 . S
C51 O56 1.246 . S
C51 O57 1.249 . S
O52 C34 1.254 . S
O52 Zn49 2.025 . S
H53 C45 0.952 . S
H54 C36 0.952 . S
H55 C44 0.948 . S
O56 Zn41 2.034 . S
O56 C51 1.246 . S
O57 Zn49 2.024 . S
O57 C51 1.249 . S
H58 C40 0.948 . S
O59 Zn49 2.039 . S
O59 C63 1.251 . S
O60 Zn41 2.025 . S
O60 C63 1.254 . S
O61 C42 1.246 . S
O61 Zn49 2.034 . S
O62 Zn41 2.024 . S
O62 C42 1.249 . S
C63 O59 1.251 . S
C63 O60 1.254 . S
H64 C37 0.949 . S
H65 C39 0.950 . S
H66 C46 0.949 . S
H67 C48 0.950 . S
O68 Cd69 2.300 1_565 S
O68 C75 1.275 1_565 S
Cd69 O68 2.300 1_545 S
Cd69 O77 2.381 1_545 S
Cd69 O78 2.378 1_545 S
O70 Cd71 2.385 . S
O70 C75 1.255 . S
Cd71 O70 2.385 . S
Cd71 O72 2.317 1_455 S
O72 Cd71 2.317 1_655 S
O72 C73 1.232 . S
C73 O72 1.232 . S
C73 O74 1.218 . S
O74 C73 1.218 . S
C75 O68 1.275 1_545 S
C75 O70 1.255 . S
C76 O77 1.258 . S
C76 O78 1.256 . S
O77 Cd69 2.381 1_565 S
O77 C76 1.258 . S
O78 Cd69 2.378 1_565 S
O78 C76 1.256 . S
O79 Cd80 2.300 . S
O79 C86 1.275 1_545 S
Cd80 O79 2.300 . S
Cd80 O88 2.381 . S
Cd80 O89 2.378 . S
O81 Cd82 2.385 . S
O81 C86 1.255 . S
Cd82 O81 2.385 . S
Cd82 O83 2.317 1_455 S
O83 Cd82 2.317 1_655 S
O83 C84 1.232 . S
C84 O83 1.232 . S
C84 O85 1.218 . S
O85 C84 1.218 . S
C86 O79 1.275 1_565 S
C86 O81 1.255 . S
C87 O88 1.258 . S
C87 O89 1.256 . S
O88 Cd80 2.381 . S
O88 C87 1.258 . S
O89 Cd80 2.378 . S
O89 C87 1.256 . S
O90 Cd91 2.300 . S
O90 C97 1.275 . S
Cd91 O90 2.300 . S
Cd91 O99 2.381 . S
Cd91 O100 2.378 1_556 S
O92 Cd93 2.385 . S
O92 C97 1.255 . S
Cd93 O92 2.385 . S
Cd93 O94 2.317 1_556 S
O94 Cd93 2.317 1_554 S
O94 C95 1.232 1_554 S
C95 O94 1.232 1_556 S
C95 O96 1.218 . S
O96 C95 1.218 . S
C97 O90 1.275 . S
C97 O92 1.255 . S
C98 O99 1.258 1_554 S
C98 O100 1.256 . S
O99 Cd91 2.381 . S
O99 C98 1.258 1_556 S
O100 Cd91 2.378 1_554 S
O100 C98 1.256 . S
O101 Cd102 2.300 . S
O101 C108 1.275 . S
Cd102 O101 2.300 . S
Cd102 O110 2.381 . S
Cd102 O111 2.378 1_554 S
O103 Cd104 2.385 . S
O103 C108 1.255 . S
Cd104 O103 2.385 . S
Cd104 O105 2.317 . S
O105 Cd104 2.317 . S
O105 C106 1.232 . S
C106 O105 1.232 . S
C106 O107 1.218 . S
O107 C106 1.218 . S
C108 O101 1.275 . S
C108 O103 1.255 . S
C109 O110 1.258 . S
C109 O111 1.256 1_554 S
O110 Cd102 2.381 . S
O110 C109 1.258 . S
O111 Cd102 2.378 1_556 S
O111 C109 1.256 1_556 S
C112 C113 1.363 1_556 S
C112 C118 1.379 . S
C112 N120 1.356 . S
C113 C112 1.363 1_554 S
C113 C119 1.363 . S
C114 C115 1.363 . S
C114 C119 1.379 . S
C114 N121 1.356 . S
C115 C114 1.363 . S
C115 C118 1.363 1_554 S
N116 C118 1.356 . S
N116 H128 0.984 . S
N116 H129 0.985 . S
N117 C119 1.356 . S
N117 H122 0.984 . S
N117 H123 0.985 . S
C118 C112 1.379 . S
C118 C115 1.363 1_556 S
C118 N116 1.356 . S
C119 C113 1.363 . S
C119 C114 1.379 . S
C119 N117 1.356 . S
N120 C112 1.356 . S
N120 H126 0.984 . S
N120 H127 0.984 . S
N121 C114 1.356 . S
N121 H124 0.984 . S
N121 H125 0.985 . S
H122 N117 0.984 . S
H123 N117 0.985 . S
H124 N121 0.984 . S
H125 N121 0.985 . S
H126 N120 0.984 . S
H127 N120 0.984 . S
H128 N116 0.984 . S
H129 N116 0.985 . S
C130 C131 1.363 . S
C130 C136 1.379 . S
C130 N138 1.356 . S
C131 C130 1.363 . S
C131 C137 1.363 1_554 S
C132 C133 1.363 1_556 S
C132 C137 1.379 . S
C132 N139 1.356 . S
C133 C132 1.363 1_554 S
C133 C136 1.363 . S
N134 C136 1.356 . S
N134 H146 0.984 . S
N134 H147 0.985 . S
N135 C137 1.356 . S
N135 H140 0.984 . S
N135 H141 0.985 . S
C136 C130 1.379 . S
C136 C133 1.363 . S
C136 N134 1.356 . S
C137 C131 1.363 1_556 S
C137 C132 1.379 . S
C137 N135 1.356 . S
N138 C130 1.356 . S
N138 H144 0.984 . S
N138 H145 0.984 . S
N139 C132 1.356 . S
N139 H142 0.984 . S
N139 H143 0.985 . S
H140 N135 0.984 . S
H141 N135 0.985 . S
H142 N139 0.984 . S
H143 N139 0.985 . S
H144 N138 0.984 . S
H145 N138 0.984 . S
H146 N134 0.984 . S
H147 N134 0.985 . S
C148 C149 1.363 . S
C148 C154 1.379 . S
C148 N156 1.356 . S
C149 C148 1.363 . S
C149 C155 1.363 1_554 S
C150 C151 1.363 1_556 S
C150 C155 1.379 . S
C150 N157 1.356 . S
C151 C150 1.363 1_554 S
C151 C154 1.363 . S
N152 C154 1.356 . S
N152 H164 0.984 . S
N152 H165 0.985 . S
N153 C155 1.356 . S
N153 H158 0.984 . S
N153 H159 0.985 . S
C154 C148 1.379 . S
C154 C151 1.363 . S
C154 N152 1.356 . S
C155 C149 1.363 1_556 S
C155 C150 1.379 . S
C155 N153 1.356 . S
N156 C148 1.356 . S
N156 H162 0.984 . S
N156 H163 0.984 . S
N157 C150 1.356 . S
N157 H160 0.984 . S
N157 H161 0.985 . S
H158 N153 0.984 . S
H159 N153 0.985 . S
H160 N157 0.984 . S
H161 N157 0.985 . S
H162 N156 0.984 . S
H163 N156 0.984 . S
H164 N152 0.984 . S
H165 N152 0.985 . S
C166 C167 1.363 1_556 S
C166 C172 1.379 . S
C166 N174 1.356 . S
C167 C166 1.363 1_554 S
C167 C173 1.363 . S
C168 C169 1.363 . S
C168 C173 1.379 . S
C168 N175 1.356 . S
C169 C168 1.363 . S
C169 C172 1.363 1_554 S
N170 C172 1.356 . S
N170 H182 0.984 . S
N170 H183 0.985 . S
N171 C173 1.356 . S
N171 H176 0.984 . S
N171 H177 0.985 . S
C172 C166 1.379 . S
C172 C169 1.363 1_556 S
C172 N170 1.356 . S
C173 C167 1.363 . S
C173 C168 1.379 . S
C173 N171 1.356 . S
N174 C166 1.356 . S
N174 H180 0.984 . S
N174 H181 0.984 . S
N175 C168 1.356 . S
N175 H178 0.984 . S
N175 H179 0.985 . S
H176 N171 0.984 . S
H177 N171 0.985 . S
H178 N175 0.984 . S
H179 N175 0.985 . S
H180 N174 0.984 . S
H181 N174 0.984 . S
H182 N170 0.984 . S
H183 N170 0.985 . S
C184 C185 1.363 . S
C184 C190 1.379 . S
C184 N192 1.356 . S
C185 C184 1.363 . S
C185 C191 1.363 . S
C186 C187 1.363 . S
C186 C191 1.379 . S
C186 N193 1.356 . S
C187 C186 1.363 . S
C187 C190 1.363 . S
N188 C190 1.356 . S
N188 H200 0.984 . S
N188 H201 0.985 . S
N189 C191 1.356 . S
N189 H194 0.984 . S
N189 H195 0.985 . S
C190 C184 1.379 . S
C190 C187 1.363 . S
C190 N188 1.356 . S
C191 C185 1.363 . S
C191 C186 1.379 . S
C191 N189 1.356 . S
N192 C184 1.356 . S
N192 H198 0.984 . S
N192 H199 0.984 . S
N193 C186 1.356 . S
N193 H196 0.984 . S
N193 H197 0.985 . S
H194 N189 0.984 . S
H195 N189 0.985 . S
H196 N193 0.984 . S
H197 N193 0.985 . S
H198 N192 0.984 . S
H199 N192 0.984 . S
H200 N188 0.984 . S
H201 N188 0.985 . S
C202 C203 1.363 . S
C202 C208 1.379 . S
C202 N210 1.356 . S
C203 C202 1.363 . S
C203 C209 1.363 . S
C204 C205 1.363 . S
C204 C209 1.379 . S
C204 N211 1.356 . S
C205 C204 1.363 . S
C205 C208 1.363 . S
N206 C208 1.356 . S
N206 H218 0.984 . S
N206 H219 0.985 . S
N207 C209 1.356 . S
N207 H212 0.984 . S
N207 H213 0.985 . S
C208 C202 1.379 . S
C208 C205 1.363 . S
C208 N206 1.356 . S
C209 C203 1.363 . S
C209 C204 1.379 . S
C209 N207 1.356 . S
N210 C202 1.356 . S
N210 H216 0.984 . S
N210 H217 0.984 . S
N211 C204 1.356 . S
N211 H214 0.984 . S
N211 H215 0.985 . S
H212 N207 0.984 . S
H213 N207 0.985 . S
H214 N211 0.984 . S
H215 N211 0.985 . S
H216 N210 0.984 . S
H217 N210 0.984 . S
H218 N206 0.984 . S
H219 N206 0.985 . S
C220 C221 1.363 . S
C220 C226 1.379 . S
C220 N228 1.356 . S
C221 C220 1.363 . S
C221 C227 1.363 . S
C222 C223 1.363 . S
C222 C227 1.379 . S
C222 N229 1.356 . S
C223 C222 1.363 . S
C223 C226 1.363 . S
N224 C226 1.356 . S
N224 H236 0.984 . S
N224 H237 0.985 . S
N225 C227 1.356 . S
N225 H230 0.984 . S
N225 H231 0.985 . S
C226 C220 1.379 . S
C226 C223 1.363 . S
C226 N224 1.356 . S
C227 C221 1.363 . S
C227 C222 1.379 . S
C227 N225 1.356 . S
N228 C220 1.356 . S
N228 H234 0.984 . S
N228 H235 0.984 . S
N229 C222 1.356 . S
N229 H232 0.984 . S
N229 H233 0.985 . S
H230 N225 0.984 . S
H231 N225 0.985 . S
H232 N229 0.984 . S
H233 N229 0.985 . S
H234 N228 0.984 . S
H235 N228 0.984 . S
H236 N224 0.984 . S
H237 N224 0.985 . S
C238 C239 1.363 . S
C238 C244 1.379 . S
C238 N246 1.356 . S
C239 C238 1.363 . S
C239 C245 1.363 . S
C240 C241 1.363 . S
C240 C245 1.379 . S
C240 N247 1.356 . S
C241 C240 1.363 . S
C241 C244 1.363 . S
N242 C244 1.356 . S
N242 H254 0.984 . S
N242 H255 0.985 . S
N243 C245 1.356 . S
N243 H248 0.984 . S
N243 H249 0.985 . S
C244 C238 1.379 . S
C244 C241 1.363 . S
C244 N242 1.356 . S
C245 C239 1.363 . S
C245 C240 1.379 . S
C245 N243 1.356 . S
N246 C238 1.356 . S
N246 H252 0.984 . S
N246 H253 0.984 . S
N247 C240 1.356 . S
N247 H250 0.984 . S
N247 H251 0.985 . S
H248 N243 0.984 . S
H249 N243 0.985 . S
H250 N247 0.984 . S
H251 N247 0.985 . S
H252 N246 0.984 . S
H253 N246 0.984 . S
H254 N242 0.984 . S
H255 N242 0.985 . S
C256 C257 1.369 1_565 S
C256 C262 1.379 . S
C256 N264 1.356 . S
C257 C256 1.369 1_545 S
C257 C263 1.358 1_655 S
C258 C259 1.363 1_455 S
C258 C263 1.379 . S
C258 N265 1.356 . S
C259 C258 1.363 1_655 S
C259 C262 1.363 1_545 S
N260 C262 1.356 . S
N260 H272 0.984 . S
N260 H273 0.985 . S
N261 C263 1.356 . S
N261 H266 0.984 . S
N261 H267 0.985 . S
C262 C256 1.379 . S
C262 C259 1.363 1_565 S
C262 N260 1.356 . S
C263 C257 1.358 1_455 S
C263 C258 1.379 . S
C263 N261 1.356 . S
N264 C256 1.356 . S
N264 H270 0.984 . S
N264 H271 0.984 . S
N265 C258 1.356 . S
N265 H268 0.984 . S
N265 H269 0.985 . S
H266 N261 0.984 . S
H267 N261 0.985 . S
H268 N265 0.984 . S
H269 N265 0.985 . S
H270 N264 0.984 . S
H271 N264 0.984 . S
H272 N260 0.984 . S
H273 N260 0.985 . S
C274 C275 1.363 1_545 S
C274 C280 1.379 . S
C274 N282 1.356 . S
C275 C274 1.363 1_565 S
C275 C281 1.363 1_455 S
C276 C277 1.363 1_655 S
C276 C281 1.379 . S
C276 N283 1.356 . S
C277 C276 1.363 1_455 S
C277 C280 1.363 1_565 S
N278 C280 1.356 . S
N278 H290 0.984 . S
N278 H291 0.985 . S
N279 C281 1.356 . S
N279 H284 0.984 . S
N279 H285 0.985 . S
C280 C274 1.379 . S
C280 C277 1.363 1_545 S
C280 N278 1.356 . S
C281 C275 1.363 1_655 S
C281 C276 1.379 . S
C281 N279 1.356 . S
N282 C274 1.356 . S
N282 H288 0.984 . S
N282 H289 0.984 . S
N283 C276 1.356 . S
N283 H286 0.984 . S
N283 H287 0.985 . S
H284 N279 0.984 . S
H285 N279 0.985 . S
H286 N283 0.984 . S
H287 N283 0.985 . S
H288 N282 0.984 . S
H289 N282 0.984 . S
H290 N278 0.984 . S
H291 N278 0.985 . S
C292 C293 1.363 . S
C292 C298 1.379 . S
C292 N300 1.356 . S
C293 C292 1.363 . S
C293 C299 1.363 . S
C294 C295 1.363 . S
C294 C299 1.379 . S
C294 N301 1.356 . S
C295 C294 1.363 . S
C295 C298 1.363 . S
N296 C298 1.356 . S
N296 H308 0.984 . S
N296 H309 0.985 . S
N297 C299 1.356 . S
N297 H302 0.984 . S
N297 H303 0.985 . S
C298 C292 1.379 . S
C298 C295 1.363 . S
C298 N296 1.356 . S
C299 C293 1.363 . S
C299 C294 1.379 . S
C299 N297 1.356 . S
N300 C292 1.356 . S
N300 H306 0.984 . S
N300 H307 0.984 . S
N301 C294 1.356 . S
N301 H304 0.984 . S
N301 H305 0.985 . S
H302 N297 0.984 . S
H303 N297 0.985 . S
H304 N301 0.984 . S
H305 N301 0.985 . S
H306 N300 0.984 . S
H307 N300 0.984 . S
H308 N296 0.984 . S
H309 N296 0.985 . S
C310 C311 1.363 . S
C310 C316 1.379 . S
C310 N318 1.356 . S
C311 C310 1.363 . S
C311 C317 1.363 . S
C312 C313 1.363 . S
C312 C317 1.379 . S
C312 N319 1.356 . S
C313 C312 1.363 . S
C313 C316 1.363 . S
N314 C316 1.356 . S
N314 H326 0.984 . S
N314 H327 0.985 . S
N315 C317 1.356 . S
N315 H320 0.984 . S
N315 H321 0.985 . S
C316 C310 1.379 . S
C316 C313 1.363 . S
C316 N314 1.356 . S
C317 C311 1.363 . S
C317 C312 1.379 . S
C317 N315 1.356 . S
N318 C310 1.356 . S
N318 H324 0.984 . S
N318 H325 0.984 . S
N319 C312 1.356 . S
N319 H322 0.984 . S
N319 H323 0.985 . S
H320 N315 0.984 . S
H321 N315 0.985 . S
H322 N319 0.984 . S
H323 N319 0.985 . S
H324 N318 0.984 . S
H325 N318 0.984 . S
H326 N314 0.984 . S
H327 N314 0.985 . S
C115 C106 1.294 . S
C113 C29 1.517 . S
C131 C8 1.511 . S
C133 C95 1.278 1_554 S
C149 C0 1.495 . S
C151 C109 1.452 . S
C167 C17 1.494 . S
C169 C98 1.442 . S
C185 C63 1.517 . S
C187 C84 1.294 . S
C203 C42 1.511 . S
C205 C73 1.279 . S
C223 C87 1.452 . S
C221 C34 1.495 . S
C241 C76 1.442 . S
C239 C51 1.494 . S
C257 C4 1.512 1_655 S
C259 C75 1.456 1_655 S
C275 C13 1.502 . S
C277 C86 1.452 . S
C295 C97 1.456 . S
C293 C38 1.513 . S
C311 C47 1.502 . S
C313 C108 1.452 . S
