# Generated by pormake.
# Topology ocu, (6,8)-cn, num edge types: 1
# Building blocks:
#     Node 0, Type 0, BuildingBlock: JUFBIX_clean_sbu_0, # of connection points: 6
#     Node 1, Type 0, BuildingBlock: JUFBIX_clean_sbu_0, # of connection points: 6
#     Node 2, Type 0, BuildingBlock: JUFBIX_clean_sbu_0, # of connection points: 6
#     Node 3, Type 0, BuildingBlock: JUFBIX_clean_sbu_0, # of connection points: 6
#     Node 4, Type 0, BuildingBlock: JUFBIX_clean_sbu_0, # of connection points: 6
#     Node 5, Type 0, BuildingBlock: JUFBIX_clean_sbu_0, # of connection points: 6
#     Node 6, Type 0, BuildingBlock: JUFBIX_clean_sbu_0, # of connection points: 6
#     Node 7, Type 0, BuildingBlock: JUFBIX_clean_sbu_0, # of connection points: 6
#     Node 8, Type 1, BuildingBlock: GIZVER_clean_sbu_0, # of connection points: 8
#     Node 9, Type 1, BuildingBlock: GIZVER_clean_sbu_0, # of connection points: 8
#     Node 10, Type 1, BuildingBlock: GIZVER_clean_sbu_0, # of connection points: 8
#     Node 11, Type 1, BuildingBlock: GIZVER_clean_sbu_0, # of connection points: 8
#     Node 12, Type 1, BuildingBlock: GIZVER_clean_sbu_0, # of connection points: 8
#     Node 13, Type 1, BuildingBlock: GIZVER_clean_sbu_0, # of connection points: 8
#     Edge 14, Type (0, 1), BuildingBlock: OJICUG_clean_linker_0, # of connection points: 2
#     Edge 15, Type (0, 1), BuildingBlock: OJICUG_clean_linker_0, # of connection points: 2
#     Edge 16, Type (0, 1), BuildingBlock: OJICUG_clean_linker_0, # of connection points: 2
#     Edge 17, Type (0, 1), BuildingBlock: OJICUG_clean_linker_0, # of connection points: 2
#     Edge 18, Type (0, 1), BuildingBlock: OJICUG_clean_linker_0, # of connection points: 2
#     Edge 19, Type (0, 1), BuildingBlock: OJICUG_clean_linker_0, # of connection points: 2
#     Edge 20, Type (0, 1), BuildingBlock: OJICUG_clean_linker_0, # of connection points: 2
#     Edge 21, Type (0, 1), BuildingBlock: OJICUG_clean_linker_0, # of connection points: 2
#     Edge 22, Type (0, 1), BuildingBlock: OJICUG_clean_linker_0, # of connection points: 2
#     Edge 23, Type (0, 1), BuildingBlock: OJICUG_clean_linker_0, # of connection points: 2
#     Edge 24, Type (0, 1), BuildingBlock: OJICUG_clean_linker_0, # of connection points: 2
#     Edge 25, Type (0, 1), BuildingBlock: OJICUG_clean_linker_0, # of connection points: 2
#     Edge 26, Type (0, 1), BuildingBlock: OJICUG_clean_linker_0, # of connection points: 2
#     Edge 27, Type (0, 1), BuildingBlock: OJICUG_clean_linker_0, # of connection points: 2
#     Edge 28, Type (0, 1), BuildingBlock: OJICUG_clean_linker_0, # of connection points: 2
#     Edge 29, Type (0, 1), BuildingBlock: OJICUG_clean_linker_0, # of connection points: 2
#     Edge 30, Type (0, 1), BuildingBlock: OJICUG_clean_linker_0, # of connection points: 2
#     Edge 31, Type (0, 1), BuildingBlock: OJICUG_clean_linker_0, # of connection points: 2
#     Edge 32, Type (0, 1), BuildingBlock: OJICUG_clean_linker_0, # of connection points: 2
#     Edge 33, Type (0, 1), BuildingBlock: OJICUG_clean_linker_0, # of connection points: 2
#     Edge 34, Type (0, 1), BuildingBlock: OJICUG_clean_linker_0, # of connection points: 2
#     Edge 35, Type (0, 1), BuildingBlock: OJICUG_clean_linker_0, # of connection points: 2
#     Edge 36, Type (0, 1), BuildingBlock: OJICUG_clean_linker_0, # of connection points: 2
#     Edge 37, Type (0, 1), BuildingBlock: OJICUG_clean_linker_0, # of connection points: 2
#     Edge 38, Type (0, 1), BuildingBlock: OJICUG_clean_linker_0, # of connection points: 2
#     Edge 39, Type (0, 1), BuildingBlock: OJICUG_clean_linker_0, # of connection points: 2
#     Edge 40, Type (0, 1), BuildingBlock: OJICUG_clean_linker_0, # of connection points: 2
#     Edge 41, Type (0, 1), BuildingBlock: OJICUG_clean_linker_0, # of connection points: 2
#     Edge 42, Type (0, 1), BuildingBlock: OJICUG_clean_linker_0, # of connection points: 2
#     Edge 43, Type (0, 1), BuildingBlock: OJICUG_clean_linker_0, # of connection points: 2
#     Edge 44, Type (0, 1), BuildingBlock: OJICUG_clean_linker_0, # of connection points: 2
#     Edge 45, Type (0, 1), BuildingBlock: OJICUG_clean_linker_0, # of connection points: 2
#     Edge 46, Type (0, 1), BuildingBlock: OJICUG_clean_linker_0, # of connection points: 2
#     Edge 47, Type (0, 1), BuildingBlock: OJICUG_clean_linker_0, # of connection points: 2
#     Edge 48, Type (0, 1), BuildingBlock: OJICUG_clean_linker_0, # of connection points: 2
#     Edge 49, Type (0, 1), BuildingBlock: OJICUG_clean_linker_0, # of connection points: 2
#     Edge 50, Type (0, 1), BuildingBlock: OJICUG_clean_linker_0, # of connection points: 2
#     Edge 51, Type (0, 1), BuildingBlock: OJICUG_clean_linker_0, # of connection points: 2
#     Edge 52, Type (0, 1), BuildingBlock: OJICUG_clean_linker_0, # of connection points: 2
#     Edge 53, Type (0, 1), BuildingBlock: OJICUG_clean_linker_0, # of connection points: 2
#     Edge 54, Type (0, 1), BuildingBlock: OJICUG_clean_linker_0, # of connection points: 2
#     Edge 55, Type (0, 1), BuildingBlock: OJICUG_clean_linker_0, # of connection points: 2
#     Edge 56, Type (0, 1), BuildingBlock: OJICUG_clean_linker_0, # of connection points: 2
#     Edge 57, Type (0, 1), BuildingBlock: OJICUG_clean_linker_0, # of connection points: 2
#     Edge 58, Type (0, 1), BuildingBlock: OJICUG_clean_linker_0, # of connection points: 2
#     Edge 59, Type (0, 1), BuildingBlock: OJICUG_clean_linker_0, # of connection points: 2
#     Edge 60, Type (0, 1), BuildingBlock: OJICUG_clean_linker_0, # of connection points: 2
#     Edge 61, Type (0, 1), BuildingBlock: OJICUG_clean_linker_0, # of connection points: 2
# Relax obj value: 0.298
# Max RMSD: 0.336
# Mean RMSD: 0.219
data_MOF--net-ocu--node1-JUFBIX_clean_sbu_0--node2-GIZVER_clean_sbu_0--edge1-OJICUG_clean_linker_0
_symmetry_space_group_name_H-M    P1
_symmetry_Int_Tables_number       1
_symmetry_cell_setting            triclinic
loop_
_symmetry_equiv_pos_as_xyz
'x, y, z'
_cell_length_a     30.357105
_cell_length_b     31.863455
_cell_length_c     23.402146
_cell_angle_alpha  92.612765
_cell_angle_beta   95.368471
_cell_angle_gamma 103.22843
loop_
_atom_site_label
_atom_site_type_symbol
_atom_site_fract_x
_atom_site_fract_y
_atom_site_fract_z
_atom_type_partial_charge
Co0 Co 0.26644 0.27022 0.25456 0.0
C1 C 0.24931 0.33593 0.32794 0.0
Co2 Co 0.32579 0.32366 0.2767 0.0
C3 C 0.19713 0.19671 0.27247 0.0
C4 C 0.19586 0.20905 0.18337 0.0
N5 N 0.21756 0.22416 0.23591 0.0
N6 N 0.16378 0.16504 0.24506 0.0
C7 C 0.16213 0.17278 0.18903 0.0
H8 H 0.20596 0.20019 0.31863 0.0
H9 H 0.20418 0.22324 0.14348 0.0
C10 C 0.34279 0.25897 0.20171 0.0
N11 N 0.37435 0.36968 0.29606 0.0
C12 C 0.39531 0.39745 0.26031 0.0
C13 C 0.39511 0.38454 0.34915 0.0
N14 N 0.42819 0.42904 0.28875 0.0
C15 C 0.4289 0.42093 0.34462 0.0
C16 C 0.32687 0.25609 0.34836 0.0
O17 O 0.30102 0.24257 0.20611 0.0
O18 O 0.36064 0.29625 0.22687 0.0
O19 O 0.34813 0.29387 0.33895 0.0
O20 O 0.28872 0.24038 0.31866 0.0
O21 O 0.2916 0.35095 0.32563 0.0
H22 H 0.38614 0.37001 0.38861 0.0
H23 H 0.38733 0.39412 0.21401 0.0
O24 O 0.23108 0.29866 0.30295 0.0
O25 O 0.24475 0.2995 0.19159 0.0
O26 O 0.3032 0.35384 0.2136 0.0
C27 C 0.26558 0.33764 0.18302 0.0
H28 H 0.13859 0.15349 0.15496 0.0
H29 H 0.45209 0.43986 0.37929 0.0
Co30 Co 0.8188 0.29095 0.24908 0.0
C31 C 0.83771 0.35415 0.34316 0.0
Co32 Co 0.76812 0.28661 0.3105 0.0
C33 C 0.88689 0.34024 0.19409 0.0
C34 C 0.89458 0.2752 0.19137 0.0
N35 N 0.86609 0.30006 0.20493 0.0
N36 N 0.9281 0.3424 0.17663 0.0
C37 C 0.93314 0.30141 0.17394 0.0
H38 H 0.87401 0.36815 0.20528 0.0
H39 H 0.88952 0.2412 0.19853 0.0
C40 C 0.74893 0.22382 0.21552 0.0
N41 N 0.72062 0.27876 0.35496 0.0
C42 C 0.69719 0.23911 0.36402 0.0
C43 C 0.69227 0.3049 0.36433 0.0
N44 N 0.65431 0.23858 0.37411 0.0
C45 C 0.65095 0.27993 0.37609 0.0
C46 C 0.75378 0.33669 0.21789 0.0
O47 O 0.78642 0.24334 0.19917 0.0
O48 O 0.73657 0.23697 0.26202 0.0
O49 O 0.73816 0.32169 0.26313 0.0
O50 O 0.79021 0.32805 0.20371 0.0
O51 O 0.79926 0.33598 0.35812 0.0
H52 H 0.69903 0.33877 0.35598 0.0
H53 H 0.70945 0.21025 0.35593 0.0
O54 O 0.85108 0.33889 0.29881 0.0
O55 O 0.84767 0.25456 0.29432 0.0
O56 O 0.79851 0.2509 0.3578 0.0
C57 C 0.83413 0.24133 0.34149 0.0
H58 H 0.96331 0.29141 0.16332 0.0
H59 H 0.61985 0.2906 0.37954 0.0
Co60 Co 0.78661 0.77929 0.29476 0.0
C61 C 0.86566 0.84352 0.32086 0.0
Co62 Co 0.80565 0.82109 0.22454 0.0
C63 C 0.78137 0.71332 0.37408 0.0
C64 C 0.76369 0.76918 0.40998 0.0
N65 N 0.77132 0.75057 0.35972 0.0
N66 N 0.78298 0.70925 0.43112 0.0
C67 C 0.77137 0.744 0.454 0.0
H68 H 0.79433 0.69276 0.34514 0.0
H69 H 0.75926 0.80168 0.41632 0.0
C70 C 0.72678 0.75478 0.19863 0.0
N71 N 0.82207 0.85056 0.16006 0.0
C72 C 0.81122 0.88741 0.14526 0.0
C73 C 0.83161 0.83275 0.11047 0.0
N74 N 0.80937 0.89145 0.08805 0.0
C75 C 0.82362 0.85774 0.0662 0.0
C76 C 0.84341 0.7478 0.22714 0.0
O77 O 0.73396 0.74707 0.25106 0.0
O78 O 0.75388 0.78573 0.17838 0.0
O79 O 0.8416 0.78265 0.20433 0.0
O80 O 0.82021 0.73743 0.26908 0.0
O81 O 0.85682 0.85536 0.27069 0.0
H82 H 0.83708 0.80056 0.10463 0.0
H83 H 0.79654 0.90684 0.17373 0.0
O84 O 0.83941 0.81099 0.33841 0.0
O85 O 0.75449 0.82073 0.3189 0.0
O86 O 0.76911 0.86092 0.24704 0.0
C87 C 0.75088 0.85415 0.29355 0.0
H88 H 0.77425 0.75322 0.49956 0.0
H89 H 0.82075 0.8479 0.02082 0.0
Co90 Co 0.26701 0.81765 0.25708 0.0
C91 C 0.32435 0.84995 0.35622 0.0
Co92 Co 0.31357 0.77763 0.27858 0.0
C93 C 0.18574 0.84577 0.25877 0.0
C94 C 0.2197 0.86781 0.1862 0.0
N95 N 0.22408 0.84687 0.23465 0.0
N96 N 0.15749 0.8652 0.22798 0.0
C97 C 0.17903 0.88014 0.18279 0.0
H98 H 0.17964 0.83328 0.30029 0.0
H99 H 0.24431 0.87375 0.15521 0.0
C100 C 0.25449 0.74623 0.1801 0.0
N101 N 0.35648 0.74737 0.29619 0.0
C102 C 0.38698 0.74211 0.26057 0.0
C103 C 0.36587 0.72634 0.34301 0.0
N104 N 0.41542 0.71925 0.28277 0.0
C105 C 0.40188 0.70791 0.33411 0.0
C106 C 0.2317 0.74381 0.32709 0.0
O107 O 0.24502 0.78216 0.19015 0.0
O108 O 0.2861 0.73659 0.21298 0.0
O109 O 0.27269 0.74068 0.32602 0.0
O110 O 0.22111 0.77529 0.30064 0.0
O111 O 0.33967 0.8172 0.34329 0.0
H112 H 0.34703 0.72352 0.38021 0.0
H113 H 0.38659 0.75224 0.21701 0.0
O114 O 0.28923 0.85554 0.32583 0.0
O115 O 0.31153 0.85811 0.21454 0.0
O116 O 0.35641 0.81526 0.23035 0.0
C117 C 0.3499 0.84962 0.20835 0.0
H118 H 0.16719 0.9002 0.15151 0.0
H119 H 0.41577 0.68667 0.3617 0.0
Co120 Co 0.33129 0.7863 0.71171 0.0
C121 C 0.35577 0.85087 0.80467 0.0
Co122 Co 0.28249 0.78617 0.77526 0.0
C123 C 0.39807 0.83226 0.65145 0.0
C124 C 0.40991 0.76952 0.66265 0.0
N125 N 0.37779 0.7926 0.66501 0.0
N126 N 0.44251 0.83635 0.64651 0.0
C127 C 0.45022 0.79675 0.65171 0.0
H128 H 0.38275 0.85964 0.65553 0.0
H129 H 0.40653 0.73716 0.67665 0.0
C130 C 0.25999 0.7206 0.68311 0.0
N131 N 0.23662 0.77933 0.82184 0.0
C132 C 0.2149 0.73998 0.83502 0.0
C133 C 0.21011 0.8059 0.83644 0.0
N134 N 0.17501 0.74007 0.85519 0.0
C135 C 0.1718 0.78162 0.85694 0.0
C136 C 0.26626 0.83377 0.68192 0.0
O137 O 0.29793 0.73778 0.66599 0.0
O138 O 0.24818 0.7369 0.72804 0.0
O139 O 0.25324 0.82167 0.72971 0.0
O140 O 0.30111 0.82296 0.66508 0.0
O141 O 0.31738 0.8354 0.82219 0.0
H142 H 0.21626 0.83978 0.82824 0.0
H143 H 0.22603 0.71097 0.82415 0.0
O144 O 0.36565 0.83473 0.75847 0.0
O145 O 0.36034 0.75032 0.75864 0.0
O146 O 0.3114 0.74981 0.82148 0.0
C147 C 0.34604 0.73829 0.80591 0.0
H148 H 0.48344 0.78944 0.65519 0.0
H149 H 0.14297 0.79324 0.86923 0.0
Co150 Co 0.28917 0.25963 0.81308 0.0
C151 C 0.36782 0.3268 0.83814 0.0
Co152 Co 0.30645 0.30246 0.7441 0.0
C153 C 0.28747 0.19267 0.89076 0.0
C154 C 0.26586 0.24591 0.9278 0.0
N155 N 0.27533 0.22922 0.87741 0.0
N156 N 0.28978 0.18765 0.94774 0.0
C157 C 0.27498 0.22052 0.97106 0.0
H158 H 0.30252 0.17427 0.86135 0.0
H159 H 0.25945 0.27764 0.93476 0.0
C160 C 0.2277 0.23642 0.71911 0.0
N161 N 0.3186 0.3332 0.68131 0.0
C162 C 0.28554 0.34219 0.64547 0.0
C163 C 0.3568 0.34484 0.65487 0.0
N164 N 0.30067 0.35772 0.59695 0.0
C165 C 0.34588 0.36088 0.60286 0.0
C166 C 0.34361 0.22909 0.73984 0.0
O167 O 0.23778 0.22407 0.76848 0.0
O168 O 0.25281 0.26983 0.70225 0.0
O169 O 0.3385 0.26243 0.71489 0.0
O170 O 0.32674 0.22179 0.78732 0.0
O171 O 0.3598 0.33486 0.78609 0.0
H172 H 0.38997 0.34096 0.67161 0.0
H173 H 0.2506 0.33773 0.65503 0.0
O174 O 0.34112 0.29565 0.85846 0.0
O175 O 0.25232 0.29657 0.83579 0.0
O176 O 0.27346 0.3433 0.77267 0.0
C177 C 0.25044 0.33194 0.8144 0.0
H178 H 0.27801 0.22953 0.01671 0.0
H179 H 0.36902 0.37383 0.57208 0.0
Co180 Co 0.78342 0.30127 0.7569 0.0
C181 C 0.84352 0.33349 0.85446 0.0
Co182 Co 0.83014 0.26133 0.77811 0.0
C183 C 0.70956 0.33671 0.7737 0.0
C184 C 0.73155 0.35217 0.69157 0.0
N185 N 0.74064 0.33156 0.73892 0.0
N186 N 0.6811 0.35919 0.75047 0.0
C187 C 0.69518 0.37033 0.69932 0.0
H188 H 0.70946 0.32671 0.8173 0.0
H189 H 0.75072 0.35479 0.65468 0.0
C190 C 0.77165 0.22867 0.67978 0.0
N191 N 0.87295 0.23181 0.79966 0.0
C192 C 0.91024 0.23189 0.77365 0.0
C193 C 0.87788 0.21046 0.84762 0.0
N194 N 0.93835 0.21146 0.80275 0.0
C195 C 0.9178 0.19683 0.84878 0.0
C196 C 0.74754 0.22967 0.82799 0.0
O197 O 0.75685 0.26169 0.69271 0.0
O198 O 0.80682 0.22289 0.70984 0.0
O199 O 0.78603 0.22142 0.82183 0.0
O200 O 0.74071 0.26387 0.80573 0.0
O201 O 0.85322 0.29758 0.8446 0.0
H202 H 0.85398 0.20484 0.8795 0.0
H203 H 0.91549 0.24418 0.73182 0.0
O204 O 0.81129 0.34258 0.82207 0.0
O205 O 0.82414 0.33781 0.70886 0.0
O206 O 0.87557 0.30287 0.73334 0.0
C207 C 0.86492 0.33428 0.70692 0.0
H208 H 0.68138 0.39123 0.67109 0.0
H209 H 0.92968 0.17612 0.87908 0.0
Co210 Co 0.77063 0.75546 0.75231 0.0
C211 C 0.75484 0.82077 0.82758 0.0
Co212 Co 0.83022 0.80881 0.77333 0.0
C213 C 0.70128 0.68217 0.77062 0.0
C214 C 0.7002 0.69441 0.68149 0.0
N215 N 0.72166 0.70964 0.73412 0.0
N216 N 0.66816 0.65035 0.74309 0.0
C217 C 0.66663 0.65805 0.68705 0.0
H218 H 0.70996 0.68582 0.81681 0.0
H219 H 0.70862 0.70861 0.64164 0.0
C220 C 0.84621 0.74244 0.69937 0.0
N221 N 0.87949 0.85456 0.79142 0.0
C222 C 0.90051 0.88169 0.75492 0.0
C223 C 0.90121 0.86947 0.84404 0.0
N224 N 0.93434 0.91286 0.78248 0.0
C225 C 0.93557 0.90519 0.83851 0.0
C226 C 0.83114 0.74196 0.84587 0.0
O227 O 0.80401 0.72754 0.70257 0.0
O228 O 0.86483 0.77966 0.72437 0.0
O229 O 0.85206 0.77982 0.83634 0.0
O230 O 0.79354 0.72547 0.81545 0.0
O231 O 0.79646 0.83706 0.82222 0.0
H232 H 0.89252 0.85545 0.88391 0.0
H233 H 0.89176 0.87829 0.70874 0.0
O234 O 0.73665 0.78344 0.80277 0.0
O235 O 0.74792 0.78519 0.69022 0.0
O236 O 0.80769 0.83855 0.70931 0.0
C237 C 0.76919 0.82289 0.68033 0.0
H238 H 0.64313 0.63878 0.65292 0.0
H239 H 0.95931 0.92415 0.87266 0.0
Co240 Co 0.08548 0.95193 0.48324 0.0
Co241 Co 0.12481 0.99206 0.57512 0.0
Co242 Co 0.05076 0.03917 0.51513 0.0
O243 O 0.10134 1.01042 0.50993 0.0
H244 H 0.1256 1.02773 0.49125 0.0
O245 O 0.99995 0.06766 0.52034 0.0
Co246 Co 1.01412 0.126 0.547 0.0
Co247 Co 0.97621 0.08523 0.45479 0.0
H248 H 0.97571 0.05 0.53867 0.0
O249 O 0.18356 0.98588 0.58296 0.0
O250 O 0.11966 0.93386 0.55349 0.0
O251 O 0.09275 0.99881 0.64035 0.0
O252 O 1.03273 1.01309 0.58862 0.0
O253 O 0.09355 0.08641 0.5607 0.0
O254 O 1.02469 0.17817 0.58012 0.0
O255 O 0.96622 0.11974 0.58352 0.0
O256 O 0.07014 0.13734 0.51583 0.0
O257 O 0.06882 0.06541 0.44167 0.0
O258 O 1.00796 0.07773 0.38962 0.0
O259 O 0.98099 0.14351 0.47527 0.0
O260 O 0.91737 0.091 0.44628 0.0
C261 C 0.10489 0.92144 0.42217 0.0
C262 C 1.00125 0.95284 0.48204 0.0
C263 C 0.05214 1.0035 0.63557 0.0
C264 C 0.16327 0.94533 0.5719 0.0
C265 C 0.9923 0.15589 0.60669 0.0
C266 C 0.09917 0.12581 0.55076 0.0
C267 C 0.04887 0.07393 0.39441 0.0
C268 C 0.93752 0.13169 0.45615 0.0
O269 O 0.07317 0.89965 0.45014 0.0
O270 O 0.13211 0.95729 0.44453 0.0
O271 O 1.00794 0.99185 0.4698 0.0
O272 O 1.03045 0.94141 0.51678 0.0
Co273 Co 0.59721 0.95623 0.96974 0.0
Co274 Co 0.59605 0.97186 0.0789 0.0
Co275 Co 0.5486 1.03875 0.01761 0.0
O276 O 0.59914 1.008 0.01855 0.0
H277 H 0.62867 1.0279 0.02185 0.0
O278 O 0.49866 0.0699 0.01667 0.0
Co279 Co 0.50176 0.12247 0.0645 0.0
Co280 Co 0.50176 0.1052 0.95527 0.0
H281 H 0.46901 0.05027 1.0141 0.0
O282 O 0.64961 0.97156 0.11739 0.0
O283 O 0.61108 0.9279 0.04027 0.0
O284 O 0.54077 0.9507 0.11103 0.0
O285 O 0.50409 0.99519 0.06752 0.0
O286 O 0.58049 0.07547 0.08725 0.0
O287 O 0.50056 0.17043 0.10733 0.0
O288 O 0.4413 0.11507 0.07824 0.0
O289 O 0.56602 0.13759 0.06003 0.0
O290 O 0.5934 0.08242 0.96775 0.0
O291 O 0.55665 0.12609 0.92265 0.0
O292 O 0.48777 0.14996 0.9932 0.0
O293 O 0.44838 0.1057 0.91698 0.0
C294 C 0.64206 0.92614 0.9283 0.0
C295 C 0.50712 0.96043 0.94693 0.0
C296 C 0.50428 0.96294 0.10032 0.0
C297 C 0.64807 0.94267 0.07562 0.0
C298 C 0.4572 0.15337 0.10525 0.0
C299 C 0.59216 0.11655 0.08594 0.0
C300 C 0.59328 0.11439 0.93437 0.0
C301 C 0.45054 0.13516 0.95823 0.0
O302 O 0.59877 0.90898 0.92608 0.0
O303 O 0.65789 0.96422 0.95602 0.0
O304 O 0.51597 1.00174 0.9482 0.0
O305 O 0.53374 0.94062 0.97416 0.0
Co306 Co 0.0969 0.45924 0.97003 0.0
Co307 Co 0.12778 0.49913 0.06845 0.0
Co308 Co 1.04801 0.54146 0.01807 0.0
O309 O 0.10165 0.51724 1.00194 0.0
H310 H 0.12439 0.5381 0.98529 0.0
O311 O 0.99428 0.56564 0.03418 0.0
Co312 Co 0.99841 0.62304 0.06827 0.0
Co313 Co 0.96924 0.5855 0.9683 0.0
H314 H 0.97116 0.54435 0.04957 0.0
O315 O 0.18721 0.49443 0.0782 0.0
O316 O 0.1253 0.44162 0.04557 0.0
O317 O 0.09501 0.49808 0.13475 0.0
O318 O 1.03208 0.50292 0.08113 0.0
O319 O 0.08935 0.58626 0.07284 0.0
O320 O 0.99706 0.67349 0.10364 0.0
O321 O 0.94247 0.61189 0.09517 0.0
O322 O 0.06083 0.6424 0.04882 0.0
O323 O 0.06468 0.58026 0.9553 0.0
O324 O 1.00342 0.59038 0.9031 0.0
O325 O 0.96995 0.64196 0.99352 0.0
O326 O 0.90953 0.58835 0.95771 0.0
C327 C 0.13776 0.42888 0.92517 0.0
C328 C 1.00158 0.4558 0.96822 0.0
C329 C 0.05212 0.49186 0.12631 0.0
C330 C 0.16823 0.45357 0.06741 0.0
C331 C 0.95704 0.6523 0.11466 0.0
C332 C 0.09425 0.62684 0.06867 0.0
C333 C 1.04602 0.59442 0.91161 0.0
C334 C 0.92752 0.62928 0.96979 0.0
O335 O 0.09774 0.40808 0.93669 0.0
O336 O 0.15251 0.46959 0.94305 0.0
O337 O 1.00645 0.49636 0.96334 0.0
O338 O 1.03477 0.44076 0.98999 0.0
Co339 Co 0.59042 0.45377 0.99686 0.0
Co340 Co 0.62392 0.49885 0.0883 0.0
Co341 Co 0.54946 0.53982 0.01714 0.0
O342 O 0.60165 0.51282 0.01936 0.0
H343 H 0.62632 0.53028 1.00148 0.0
O344 O 0.49714 0.56662 1.01492 0.0
Co345 Co 0.50747 0.62563 0.03644 0.0
Co346 Co 0.47461 0.57953 0.94556 0.0
H347 H 0.47259 0.54912 0.03294 0.0
O348 O 0.68247 0.49175 0.10266 0.0
O349 O 0.61882 0.43979 0.07322 0.0
O350 O 0.58988 0.50992 0.14961 0.0
O351 O 0.52939 0.51653 0.0913 0.0
O352 O 0.5898 0.59029 0.06185 0.0
O353 O 0.51284 0.67874 0.06517 0.0
O354 O 0.45599 0.61875 0.06597 0.0
O355 O 0.56626 0.63861 1.01123 0.0
O356 O 0.56954 0.56318 0.94298 0.0
O357 O 0.50844 0.5677 0.8844 0.0
O358 O 0.47966 0.63868 0.95914 0.0
O359 O 0.41605 0.58635 0.93065 0.0
C360 C 0.61908 0.42243 0.94434 0.0
C361 C 0.50283 0.45094 0.98695 0.0
C362 C 0.54857 0.51224 0.14113 0.0
C363 C 0.66152 0.45115 0.09496 0.0
C364 C 0.47774 0.65691 0.08778 0.0
C365 C 0.59542 0.62892 0.04763 0.0
C366 C 0.55003 0.56641 0.89295 0.0
C367 C 0.43709 0.62696 0.93688 0.0
O368 O 0.58413 0.40078 0.96734 0.0
O369 O 0.6414 0.46039 0.96623 0.0
O370 O 0.50904 0.48949 0.9724 0.0
O371 O 0.53197 0.44098 0.02312 0.0
Co372 Co 0.13859 0.49346 0.50814 0.0
Co373 Co 0.09683 0.50137 0.40927 0.0
Co374 Co 1.04796 0.53774 0.51479 0.0
O375 O 0.07618 0.49171 0.48247 0.0
H376 H 0.0566 0.46317 0.48271 0.0
O377 O 1.01925 0.58383 0.54611 0.0
Co378 Co 0.95664 0.57906 0.51756 0.0
Co379 Co 0.99631 0.57496 0.61744 0.0
H380 H 1.03814 0.6126 0.54506 0.0
O381 O 0.09953 0.45286 0.36134 0.0
O382 O 0.15424 0.49105 0.42673 0.0
O383 O 0.11001 0.56074 0.38806 0.0
O384 O 0.08322 0.58775 0.46427 0.0
O385 O 0.99582 0.51827 0.45423 0.0
O386 O 0.90171 0.57649 0.4909 0.0
O387 O 0.95863 0.63607 0.51194 0.0
O388 O 0.94544 0.51888 0.51594 0.0
O389 O 1.01309 0.48797 0.56619 0.0
O390 O 0.98413 0.51597 0.64 0.0
O391 O 0.93899 0.58559 0.59782 0.0
O392 O 0.99367 0.62401 0.66336 0.0
C393 C 0.1777 0.4512 0.52238 0.0
C394 C 0.13996 0.5707 0.5604 0.0
C395 C 0.10523 0.59326 0.4183 0.0
C396 C 0.1399 0.45828 0.38848 0.0
C397 C 0.91596 0.61798 0.4942 0.0
C398 C 0.95657 0.50305 0.47004 0.0
C399 C 0.99033 0.48314 0.61166 0.0
C400 C 0.95369 0.61901 0.63519 0.0
O401 O 0.19403 0.49243 0.53141 0.0
O402 O 0.13415 0.43586 0.50713 0.0
O403 O 0.10012 0.55688 0.57532 0.0
O404 O 0.15163 0.55409 0.51534 0.0
Co405 Co 0.64128 0.98802 0.53287 0.0
Co406 Co 0.6094 1.00155 0.43571 0.0
Co407 Co 0.54684 0.04007 0.51795 0.0
O408 O 0.57977 0.99217 0.49997 0.0
H409 H 0.55879 0.96421 0.49348 0.0
O410 O 0.51387 0.0879 0.53574 0.0
Co411 Co 0.45256 0.09176 0.50183 0.0
Co412 Co 0.48378 0.07875 0.59962 0.0
H413 H 0.53478 0.11587 0.5424 0.0
O414 O 0.60667 0.95652 0.38403 0.0
O415 O 0.66422 0.98638 0.45377 0.0
O416 O 0.6092 0.05655 0.40576 0.0
O417 O 0.54247 0.05773 0.43703 0.0
O418 O 0.48809 0.99479 0.49777 0.0
O419 O 0.39965 0.09972 0.46908 0.0
O420 O 0.46232 0.15132 0.49887 0.0
O421 O 0.43259 1.03046 0.4951 0.0
O422 O 0.55089 1.02255 0.599 0.0
O423 O 0.48374 1.02344 0.6292 0.0
O424 O 0.42927 0.09469 0.58063 0.0
O425 O 0.48643 0.12395 0.65111 0.0
C426 C 0.67383 0.9392 0.55941 0.0
C427 C 0.64787 0.08433 0.54547 0.0
C428 C 0.57471 0.07278 0.40712 0.0
C429 C 0.64809 0.96022 0.40752 0.0
C430 C 0.4205 0.14032 0.4733 0.0
C431 C 0.4459 0.99544 0.49073 0.0
C432 C 0.51812 1.00697 0.62793 0.0
C433 C 0.44543 0.12107 0.62669 0.0
O434 O 0.69445 0.97987 0.56459 0.0
O435 O 0.63188 0.92833 0.53423 0.0
O436 O 0.60576 0.08533 0.53815 0.0
O437 O 0.66085 0.04916 0.54099 0.0
C438 C 0.15235 0.11271 0.31837 0.0
C439 C 0.13423 0.13252 0.27255 0.0
H440 H 0.13921 0.07723 0.39232 0.0
C441 C 0.08697 0.12553 0.26033 0.0
H442 H 0.18885 0.11734 0.32767 0.0
C443 C 0.05831 0.10305 0.29765 0.0
C444 C 0.07683 0.08719 0.34727 0.0
H445 H 0.07253 0.1406 0.22495 0.0
H446 H 1.0221 0.10087 0.28981 0.0
C447 C 0.12388 0.08988 0.35525 0.0
C448 C 0.90839 0.22423 0.37608 0.0
C449 C 0.86084 0.21615 0.37681 0.0
H450 H 0.97015 0.20503 0.40251 0.0
C451 C 0.83951 0.1828 0.40919 0.0
H452 H 0.92589 0.24993 0.35183 0.0
C453 C 0.86483 0.15646 0.43722 0.0
C454 C 0.91223 0.16385 0.43515 0.0
H455 H 0.80299 0.17579 0.41059 0.0
H456 H 0.84715 0.12958 0.45941 0.0
C457 C 0.93387 0.19881 0.40559 0.0
C458 C 0.93152 0.90635 0.34327 0.0
C459 C 0.9043 0.86834 0.36022 0.0
H460 H 0.98411 0.96248 0.36869 0.0
C461 C 0.9126 0.8556 0.41643 0.0
H462 H 0.92638 0.91667 0.30017 0.0
C463 C 0.94593 0.88195 0.45603 0.0
C464 C 0.97089 0.92134 0.43986 0.0
H465 H 0.89234 0.82605 0.43046 0.0
H466 H 0.95064 0.87262 0.49971 0.0
C467 C 0.96445 0.93261 0.3827 0.0
C468 C 0.09471 0.8526 0.28538 0.0
C469 C 0.12394 0.88137 0.2542 0.0
H470 H 0.06854 0.84213 0.36661 0.0
C471 C 0.13533 0.92545 0.27132 0.0
H472 H 0.08491 0.81849 0.27177 0.0
C473 C 0.12809 0.93864 0.32619 0.0
C474 C 0.10732 0.90799 0.36257 0.0
H475 H 0.15699 0.94829 0.24704 0.0
H476 H 0.14129 0.97226 0.34123 0.0
C477 C 0.08699 0.86574 0.34027 0.0
C478 C 0.26117 0.89316 0.61555 0.0
C479 C 0.23971 0.8591 0.64674 0.0
H480 H 0.25366 0.94759 0.56771 0.0
C481 C 0.19216 0.85088 0.6474 0.0
H482 H 0.29771 0.9003 0.61434 0.0
C483 C 0.16678 0.87693 0.61919 0.0
C484 C 0.18852 0.91268 0.5911 0.0
H485 H 0.17462 0.82467 0.67082 0.0
H486 H 0.1305 0.87059 0.62233 0.0
C487 C 0.23592 0.92013 0.58884 0.0
C488 C 0.17916 0.22584 0.62487 0.0
C489 C 0.19005 0.21078 0.67896 0.0
H490 H 0.14131 0.21056 0.54129 0.0
C491 C 0.16745 0.16956 0.69201 0.0
H492 H 0.19583 0.25781 0.6139 0.0
C493 C 0.1368 0.14277 0.65055 0.0
C494 C 0.1279 0.15674 0.59524 0.0
H495 H 0.17479 0.15725 0.73335 0.0
H496 H 0.12081 0.11059 0.66162 0.0
C497 C 0.14805 0.199 0.5833 0.0
C498 C 0.9576 0.15091 0.75572 0.0
C499 C 0.97054 0.19467 0.77451 0.0
H500 H 0.9516 0.10488 0.68494 0.0
C501 C 1.00051 0.22348 0.74426 0.0
H502 H 0.93497 0.12815 0.77902 0.0
C503 C 1.00881 0.2108 0.68946 0.0
C504 C 0.98803 0.16897 0.66591 0.0
H505 H 1.01114 0.25737 0.75892 0.0
H506 H 1.02845 0.23447 0.66422 0.0
C507 C 0.96546 0.1382 0.70092 0.0
C508 C 1.01188 0.95089 0.76807 0.0
C509 C 0.96476 0.94487 0.75533 0.0
H510 H 0.07732 0.97477 0.73966 0.0
C511 C 0.94753 0.96546 0.70973 0.0
H512 H 1.02561 0.9352 0.80332 0.0
C513 C 0.97674 0.98829 0.67364 0.0
C514 C 1.02362 0.99012 0.68213 0.0
H515 H 0.91116 0.96158 0.70006 0.0
H516 H 0.96206 1.00166 0.63675 0.0
C517 C 1.04127 0.97331 0.73147 0.0
C518 C 0.41858 0.24823 0.1748 0.0
C519 C 0.37122 0.23266 0.17348 0.0
H520 H 0.48216 0.23585 0.15547 0.0
C521 C 0.35207 0.19018 0.14919 0.0
H522 H 0.43486 0.28045 0.19332 0.0
C523 C 0.3795 0.16409 0.12762 0.0
C524 C 0.42698 0.17963 0.1297 0.0
H525 H 0.31577 0.17678 0.14744 0.0
H526 H 0.36346 0.13181 0.10913 0.0
C527 C 0.44588 0.22225 0.15338 0.0
C528 C 1.00796 0.3838 0.17965 0.0
C529 C 0.96109 0.3819 0.17187 0.0
H530 H 0.075 0.42202 0.17369 0.0
C531 C 0.94635 0.41982 0.16118 0.0
H532 H 1.02037 0.35545 0.18957 0.0
C533 C 0.97743 0.4581 0.15501 0.0
C534 C 1.02386 0.45901 0.15724 0.0
H535 H 0.91059 0.41969 0.15457 0.0
H536 H 0.96477 0.486 0.143 0.0
C537 C 1.03927 0.42223 0.17238 0.0
C538 C 0.77304 0.95092 0.07564 0.0
C539 C 0.77352 0.90804 0.06095 0.0
H540 H 0.7321 0.99514 0.0933 0.0
C541 C 0.73251 0.87843 0.04014 0.0
H542 H 0.80427 0.97391 0.09221 0.0
C543 C 0.6911 0.88994 0.04255 0.0
C544 C 0.69065 0.93131 0.06472 0.0
H545 H 0.73212 0.84497 0.02907 0.0
H546 H 0.65964 0.86581 0.03083 0.0
C547 C 0.73179 0.96246 0.07797 0.0
C548 C 0.18909 0.72847 0.10277 0.0
C549 C 0.22095 0.71398 0.14008 0.0
H550 H 0.12435 0.71289 0.05167 0.0
C551 C 0.21326 0.66953 0.14779 0.0
H552 H 0.19383 0.76251 0.09566 0.0
C553 C 0.17305 0.64095 0.1224 0.0
C554 C 0.13944 0.65619 0.0891 0.0
H555 H 0.23661 0.65726 0.17666 0.0
H556 H 0.16728 0.60721 0.13149 0.0
C557 C 0.14885 0.70007 0.07792 0.0
C558 C 0.43631 0.87143 0.84423 0.0
C559 C 0.39301 0.88041 0.84163 0.0
H560 H 0.50583 0.88962 0.87966 0.0
C561 C 0.38707 0.91667 0.87371 0.0
H562 H 0.44179 0.84346 0.82027 0.0
C563 C 0.42453 0.94399 0.90706 0.0
C564 C 0.46764 0.9343 0.90987 0.0
H565 H 0.35393 0.9241 0.87232 0.0
H566 H 0.41969 0.97194 0.9316 0.0
C567 C 0.47301 0.89776 0.87832 0.0
C568 C 0.18361 0.33672 0.86619 0.0
C569 C 0.22088 0.35795 0.83871 0.0
H570 H 0.1285 0.34217 0.91415 0.0
C571 C 0.23039 0.40328 0.83856 0.0
H572 H 0.17525 0.30183 0.86709 0.0
C573 C 0.20373 0.42679 0.86687 0.0
C574 C 0.16656 0.40523 0.89457 0.0
H575 H 0.25909 0.42055 0.81813 0.0
H576 H 0.21212 0.46171 0.86699 0.0
C577 C 0.15668 0.35992 0.89321 0.0
C578 C 0.66682 0.20849 0.85903 0.0
C579 C 0.7101 0.19949 0.85787 0.0
H580 H 0.59897 0.1907 0.88227 0.0
C581 C 0.71544 0.16107 0.88396 0.0
H582 H 0.66014 0.23709 0.84007 0.0
C583 C 0.67911 0.13329 0.90947 0.0
C584 C 0.63544 0.14235 0.90951 0.0
H585 H 0.74784 0.15222 0.88451 0.0
H586 H 0.6852 0.10453 0.92848 0.0
C587 C 0.63097 0.18101 0.8837 0.0
C588 C 0.89844 0.73152 0.91219 0.0
C589 C 0.8534 0.71559 0.88605 0.0
H590 H 0.95712 0.7174 0.95946 0.0
C591 C 0.83184 0.67257 0.89385 0.0
H592 H 0.91634 0.76447 0.90723 0.0
C593 C 0.85524 0.64568 0.92395 0.0
C594 C 0.90112 0.66075 0.94723 0.0
H595 H 0.7973 0.659 0.87471 0.0
H596 H 0.83765 0.61234 0.92696 0.0
C597 C 0.92196 0.7045 0.94236 0.0
C598 C 0.26446 0.40818 0.1382 0.0
C599 C 0.24292 0.3649 0.14464 0.0
H600 H 0.25846 0.46933 0.10838 0.0
C601 C 0.19746 0.3497 0.11958 0.0
H602 H 0.29927 0.42126 0.15666 0.0
C603 C 0.17364 0.37758 0.09178 0.0
C604 C 0.19457 0.4215 0.08823 0.0
H605 H 0.17951 0.31662 0.12364 0.0
H606 H 0.13826 0.36513 0.07533 0.0
C607 C 0.24077 0.43591 0.11044 0.0
C608 C 0.09454 0.70136 0.85568 0.0
C609 C 0.14112 0.70195 0.86345 0.0
H610 H 1.02672 0.6653 0.86261 0.0
C611 C 0.15459 0.66395 0.8771 0.0
H612 H 0.08314 0.72984 0.84367 0.0
C613 C 0.1225 0.62679 0.88562 0.0
C614 C 0.07623 0.62703 0.88211 0.0
H615 H 0.19017 0.66328 0.88362 0.0
H616 H 0.13424 0.59878 0.89924 0.0
C617 C 0.06221 0.66406 0.86488 0.0
C618 C 0.32594 0.12807 0.95926 0.0
C619 C 0.32594 0.17108 0.97373 0.0
H620 H 0.36624 0.08327 0.94181 0.0
C621 C 0.36722 0.20066 0.99339 0.0
H622 H 0.29446 0.10517 0.94341 0.0
C623 C 0.40839 0.1888 0.99057 0.0
C624 C 0.4083 0.14711 0.96912 0.0
H625 H 0.36788 0.23424 1.00406 0.0
H626 H 0.44004 0.2128 1.00156 0.0
C627 C 0.36694 0.11615 0.95666 0.0
C628 C 0.88356 0.41074 0.88672 0.0
C629 C 0.87687 0.36628 0.89422 0.0
H630 H 0.92807 0.47384 0.90395 0.0
C631 C 0.9091 0.35251 0.93174 0.0
H632 H 0.8599 0.42251 0.85769 0.0
C633 C 0.94855 0.38169 0.95741 0.0
C634 C 0.95696 0.42569 0.94671 0.0
H635 H 0.90519 0.31853 0.9387 0.0
H636 H 0.97328 0.36938 0.98398 0.0
C637 C 0.92307 0.4401 0.91279 0.0
C638 C 0.74657 0.88931 0.88189 0.0
C639 C 0.72696 0.84712 0.85684 0.0
H640 H 0.73589 0.94741 0.92373 0.0
C641 C 0.67964 0.83178 0.85597 0.0
H642 H 0.78289 0.9025 0.88335 0.0
C643 C 0.65277 0.85772 0.87849 0.0
C644 C 0.67208 0.90007 0.90295 0.0
H645 H 0.66302 0.79979 0.83693 0.0
H646 H 0.61648 0.84427 0.87659 0.0
C647 C 0.71956 0.91537 0.90468 0.0
C648 C 0.86259 0.67623 0.20026 0.0
C649 C 0.87358 0.72172 0.20416 0.0
H650 H 0.87974 0.61821 0.16772 0.0
C651 C 0.91264 0.74342 0.18037 0.0
H652 H 0.83247 0.6586 0.21765 0.0
C653 C 0.93965 0.72067 0.15263 0.0
C654 C 0.9282 0.67528 0.14674 0.0
H655 H 0.92218 0.77843 0.18257 0.0
H656 H 0.9691 0.73894 0.1345 0.0
C657 C 0.88943 0.65319 0.17123 0.0
C658 C 0.4306 0.87006 0.17735 0.0
C659 C 0.38749 0.87947 0.17845 0.0
H660 H 0.49838 0.88712 0.15373 0.0
C661 C 0.38241 0.91782 0.15204 0.0
H662 H 0.43705 0.84148 0.19659 0.0
C663 C 0.41881 0.9451 0.12614 0.0
C664 C 0.46226 0.93557 0.12598 0.0
H665 H 0.35015 0.92694 0.15146 0.0
H666 H 0.41293 0.97382 0.10679 0.0
C667 C 0.46653 0.89706 0.15228 0.0
C668 C 0.70156 0.20172 0.12228 0.0
C669 C 0.71579 0.19126 0.1775 0.0
H670 H 0.65015 0.18639 0.0502 0.0
C671 C 0.69165 0.15381 0.20001 0.0
H672 H 0.71928 0.23095 0.10465 0.0
C673 C 0.65264 0.12803 0.16866 0.0
C674 C 0.63647 0.14025 0.11526 0.0
H675 H 0.70182 0.14561 0.24291 0.0
H676 H 0.63364 0.10007 0.1877 0.0
C677 C 0.66178 0.17667 0.09164 0.0
C678 C 0.655 0.59986 0.81838 0.0
C679 C 0.63791 0.61847 0.77062 0.0
H680 H 0.64009 0.56743 0.89434 0.0
C681 C 0.59082 0.61156 0.75672 0.0
H682 H 0.69135 0.6043 0.82893 0.0
C683 C 0.56129 0.59087 0.79433 0.0
C684 C 0.5788 0.57688 0.84598 0.0
H685 H 0.57716 0.62564 0.71982 0.0
H686 H 0.52523 0.58902 0.78512 0.0
C687 C 0.62564 0.57894 0.85571 0.0
C688 C 0.41708 0.7167 0.8441 0.0
C689 C 0.36973 0.71168 0.84254 0.0
H690 H 0.47578 0.69491 0.8771 0.0
C691 C 0.34526 0.68074 0.87588 0.0
H692 H 0.43685 0.74055 0.8192 0.0
C693 C 0.36738 0.65398 0.90796 0.0
C694 C 0.41466 0.65867 0.90903 0.0
H695 H 0.30875 0.6762 0.87555 0.0
H696 H 0.34742 0.62922 0.93142 0.0
C697 C 0.43942 0.69092 0.87771 0.0
C698 C 0.41771 0.34657 0.93227 0.0
C699 C 0.40514 0.3561 0.8757 0.0
H700 H 0.4593 0.36919 1.01228 0.0
C701 C 0.42649 0.39579 0.85596 0.0
H702 H 0.40182 0.31613 0.94859 0.0
C703 C 0.45827 0.42601 0.89235 0.0
C704 C 0.47018 0.41719 0.94928 0.0
H705 H 0.41771 0.40422 0.81273 0.0
H706 H 0.47343 0.45655 0.87567 0.0
C707 C 0.45045 0.37681 0.96869 0.0
C708 C 0.62282 0.34945 0.8153 0.0
C709 C 0.65315 0.37744 0.78456 0.0
H710 H 0.58951 0.34132 0.89195 0.0
C711 C 0.66801 0.42109 0.80318 0.0
H712 H 0.61186 0.3154 0.80157 0.0
C713 C 0.65701 0.43556 0.85562 0.0
C714 C 0.63032 0.40656 0.88938 0.0
H715 H 0.69213 0.44276 0.78035 0.0
H716 H 0.67056 0.46918 0.87038 0.0
C717 C 0.61136 0.36392 0.86757 0.0
C718 C 0.68228 0.35776 0.18013 0.0
C719 C 0.72982 0.3639 0.18257 0.0
H720 H 0.62321 0.37956 0.14864 0.0
C721 C 0.75424 0.39691 0.15206 0.0
H722 H 0.66253 0.33239 0.20289 0.0
C723 C 0.73185 0.42451 0.12209 0.0
C724 C 0.68438 0.41878 0.12035 0.0
H725 H 0.79089 0.40241 0.15314 0.0
H726 H 0.75175 0.45077 0.1009 0.0
C727 C 0.65972 0.3845 0.14863 0.0
C728 C 0.67798 0.7344 0.10382 0.0
C729 C 0.69026 0.72498 0.16052 0.0
H730 H 0.63754 0.71129 0.02319 0.0
C731 C 0.66969 0.68486 0.17977 0.0
H732 H 0.69333 0.76515 0.08785 0.0
C733 C 0.63894 0.65416 0.14281 0.0
C734 C 0.62727 0.66293 0.08579 0.0
H735 H 0.67836 0.67646 0.22305 0.0
H736 H 0.62434 0.62331 0.15912 0.0
C737 C 0.64624 0.70369 0.06684 0.0
C738 C 0.4278 0.65768 0.22841 0.0
C739 C 0.44292 0.70119 0.2477 0.0
H740 H 0.42529 0.60997 0.16074 0.0
C741 C 0.47323 0.72938 0.21715 0.0
H742 H 0.40362 0.63589 0.251 0.0
C743 C 0.48478 0.7152 0.16476 0.0
C744 C 0.46589 0.67265 0.14252 0.0
H745 H 0.48432 0.76334 0.23131 0.0
H746 H 0.50681 0.73792 0.14072 0.0
C747 C 0.43889 0.64351 0.17584 0.0
C748 C 0.50617 0.46659 0.27631 0.0
C749 C 0.45922 0.46085 0.26217 0.0
H750 H 0.57214 0.48797 0.24848 0.0
C751 C 0.44297 0.48039 0.21481 0.0
H752 H 0.51915 0.45174 0.31291 0.0
C753 C 0.47292 0.50112 0.17801 0.0
C754 C 0.5195 0.502 0.18784 0.0
H755 H 0.40674 0.47677 0.20408 0.0
H756 H 0.45904 0.51339 0.13963 0.0
C757 C 0.53629 0.48705 0.2392 0.0
C758 C 0.85302 0.67314 0.64555 0.0
C759 C 0.87406 0.71333 0.67561 0.0
H760 H 0.86087 0.61223 0.60888 0.0
C761 C 0.92158 0.72253 0.68933 0.0
H762 H 0.81651 0.66454 0.63428 0.0
C763 C 0.94685 0.69215 0.67561 0.0
C764 C 0.92576 0.6515 0.64701 0.0
H765 H 0.93922 0.75266 0.71287 0.0
H766 H 0.9832 0.70047 0.68819 0.0
C767 C 0.87847 0.64286 0.63116 0.0
C768 C 0.46809 0.90789 0.697 0.0
C769 C 0.4751 0.87684 0.6563 0.0
H770 H 0.47697 0.97514 0.71989 0.0
C771 C 0.50843 0.88869 0.61898 0.0
H772 H 0.44365 0.89897 0.72773 0.0
C773 C 0.52901 0.93236 0.61616 0.0
C774 C 0.51492 0.96397 0.64918 0.0
H775 H 0.51496 0.86496 0.58828 0.0
H776 H 0.55157 0.94135 0.58353 0.0
C777 C 0.48736 0.95137 0.69291 0.0
C778 C 0.22747 0.35471 0.54244 0.0
C779 C 0.2737 0.37556 0.55602 0.0
H780 H 0.1597 0.36284 0.52236 0.0
C781 C 0.28874 0.41884 0.54499 0.0
H782 H 0.2156 0.32088 0.54982 0.0
C783 C 0.25705 0.44281 0.53047 0.0
C784 C 0.21009 0.42348 0.52603 0.0
H785 H 0.32422 0.43532 0.55478 0.0
H786 H 0.2694 0.47715 0.5266 0.0
C787 C 0.19557 0.37869 0.52774 0.0
C788 C 0.7009 0.19865 0.61121 0.0
C789 C 0.74387 0.19474 0.63608 0.0
H790 H 0.6372 0.16752 0.56288 0.0
C791 C 0.757 0.15604 0.6239 0.0
H792 H 0.68948 0.22797 0.61928 0.0
C793 C 0.72697 0.12136 0.59096 0.0
C794 C 0.68267 0.12413 0.56966 0.0
H795 H 0.78972 0.15175 0.64199 0.0
H796 H 0.73779 0.09149 0.58492 0.0
C797 C 0.67071 0.16385 0.57869 0.0
C798 C 0.8541 0.41072 0.42536 0.0
C799 C 0.86743 0.39237 0.37608 0.0
H800 H 0.87184 0.4605 0.4937 0.0
C801 C 0.91006 0.41084 0.35792 0.0
H802 H 0.82145 0.39721 0.44029 0.0
C803 C 0.93887 0.44677 0.38844 0.0
C804 C 0.92571 0.46515 0.43777 0.0
H805 H 0.9214 0.39753 0.32004 0.0
H806 H 0.9715 0.46005 0.37329 0.0
C807 C 0.883 0.44689 0.45591 0.0
C808 C 0.73514 0.89416 0.38121 0.0
C809 C 0.72779 0.88507 0.32106 0.0
H810 H 0.71711 0.92601 0.45547 0.0
C811 C 0.69623 0.90329 0.28931 0.0
H812 H 0.75954 0.88082 0.40684 0.0
C813 C 0.67092 0.92816 0.31751 0.0
C814 C 0.67764 0.93656 0.37789 0.0
H815 H 0.68974 0.89681 0.24306 0.0
H816 H 0.64572 0.94058 0.29199 0.0
C817 C 0.71094 0.92016 0.40917 0.0
C818 C 0.2133 0.67733 0.38738 0.0
C819 C 0.1976 0.70915 0.35621 0.0
H820 H 0.19792 0.61845 0.43113 0.0
C821 C 0.14957 0.70451 0.35101 0.0
H822 H 0.24937 0.67844 0.39292 0.0
C823 C 0.11926 0.66922 0.37413 0.0
C824 C 0.13545 0.63706 0.4043 0.0
H825 H 0.13508 0.72737 0.3272 0.0
H826 H 0.08293 0.66622 0.36621 0.0
C827 C 0.18333 0.64252 0.41025 0.0
C828 C 0.39477 0.24352 0.41235 0.0
C829 C 0.34922 0.22875 0.38729 0.0
H830 H 0.45307 0.22793 0.459 0.0
C831 C 0.32699 0.18587 0.39493 0.0
H832 H 0.41331 0.27624 0.40732 0.0
C833 C 0.34985 0.15827 0.4245 0.0
C834 C 0.39593 0.17232 0.44754 0.0
H835 H 0.29214 0.17304 0.37646 0.0
H836 H 0.33141 0.12526 0.42791 0.0
C837 C 0.41777 0.21574 0.44203 0.0
C838 C 0.70056 0.83562 0.61792 0.0
C839 C 0.74639 0.85029 0.64201 0.0
H840 H 0.64165 0.85143 0.57307 0.0
C841 C 0.76844 0.89321 0.63427 0.0
H842 H 0.68213 0.80288 0.62304 0.0
C843 C 0.74516 0.92095 0.6057 0.0
C844 C 0.69882 0.90701 0.58376 0.0
H845 H 0.80349 0.90598 0.65201 0.0
H846 H 0.76349 0.954 0.60224 0.0
C847 C 0.67714 0.86354 0.58921 0.0
C848 C 0.58994 0.19135 0.41214 0.0
C849 C 0.61861 0.20028 0.36874 0.0
H850 H 0.55047 0.14172 0.45656 0.0
C851 C 0.61931 0.16746 0.32682 0.0
H852 H 0.58848 0.21648 0.44418 0.0
C853 C 0.5994 0.12474 0.33506 0.0
C854 C 0.57706 0.11497 0.38404 0.0
H855 H 0.63997 0.17438 0.29162 0.0
H856 H 0.60554 0.09932 0.30669 0.0
C857 C 0.5685 0.14857 0.41925 0.0
C858 C 0.85443 0.70814 0.48783 0.0
C859 C 0.8122 0.6858 0.45908 0.0
H860 H 0.92176 0.70422 0.52056 0.0
C861 C 0.80403 0.64168 0.44463 0.0
H862 H 0.86143 0.7427 0.49786 0.0
C863 C 0.83828 0.62023 0.45588 0.0
C864 C 0.88146 0.64262 0.48206 0.0
H865 H 0.77199 0.62454 0.42125 0.0
H866 H 0.83104 0.58614 0.44246 0.0
C867 C 0.88913 0.68659 0.49922 0.0
C868 C 0.33764 0.92243 0.41213 0.0
C869 C 0.35144 0.88401 0.40026 0.0
H870 H 0.35584 0.9871 0.45081 0.0
C871 C 0.39444 0.88066 0.42566 0.0
H872 H 0.30484 0.92628 0.39366 0.0
C873 C 0.42406 0.91578 0.45827 0.0
C874 C 0.4115 0.95528 0.46683 0.0
H875 H 0.40636 0.85158 0.41787 0.0
H876 H 0.45766 0.91255 0.47446 0.0
C877 C 0.36711 0.95744 0.44514 0.0
C878 C 0.17326 0.35435 0.33885 0.0
C879 C 0.22103 0.36509 0.35024 0.0
H880 H 0.11079 0.37493 0.34123 0.0
C881 C 0.24182 0.40673 0.37619 0.0
H882 H 0.15581 0.32305 0.31831 0.0
C883 C 0.21587 0.43682 0.38899 0.0
C884 C 0.16824 0.42636 0.3763 0.0
H885 H 0.27849 0.41662 0.38533 0.0
H886 H 0.23326 0.46861 0.40798 0.0
C887 C 0.14739 0.38448 0.35144 0.0
C888 C 0.36304 0.19273 0.65105 0.0
C889 C 0.3673 0.19886 0.71159 0.0
H890 H 0.38279 0.16227 0.57682 0.0
C891 C 0.39535 0.1771 0.74378 0.0
H892 H 0.34142 0.20882 0.62495 0.0
C893 C 0.42014 0.15149 0.71598 0.0
C894 C 0.41624 0.1457 0.65539 0.0
H895 H 0.39939 0.1811 0.79034 0.0
H896 H 0.44262 0.13625 0.74203 0.0
C897 C 0.38656 0.16589 0.62333 0.0
C898 C 0.8828 0.39987 0.64523 0.0
C899 C 0.89873 0.36836 0.67673 0.0
H900 H 0.89782 0.45813 0.60026 0.0
C901 C 0.94671 0.37275 0.68118 0.0
H902 H 0.84675 0.39886 0.64018 0.0
C903 C 0.97683 0.40763 0.65706 0.0
C904 C 0.9604 0.43955 0.62666 0.0
H905 H 0.96133 0.35007 0.70518 0.0
H906 H 1.01317 0.41056 0.66444 0.0
C907 C 0.91255 0.43423 0.62138 0.0
C908 C 0.24266 0.66273 0.60305 0.0
C909 C 0.22956 0.68219 0.65166 0.0
H910 H 0.22473 0.61191 0.53633 0.0
C911 C 0.18692 0.66456 0.67028 0.0
H912 H 0.27535 0.67556 0.58778 0.0
C913 C 0.15784 0.62828 0.6407 0.0
C914 C 0.17088 0.60882 0.59202 0.0
H915 H 0.17585 0.67882 0.70769 0.0
H916 H 0.12515 0.61556 0.65602 0.0
C917 C 0.21363 0.6263 0.57358 0.0
loop_
_geom_bond_atom_site_label_1
_geom_bond_atom_site_label_2
_geom_bond_distance
_geom_bond_site_symmetry_2
_ccdc_geom_bond_type
Co0 N5 2.057 . S
Co0 O17 2.021 . S
Co0 O20 2.062 . S
Co0 O24 2.117 . S
Co0 O25 2.020 . S
C1 O21 1.259 . S
C1 O24 1.258 . S
Co2 N11 2.057 . S
Co2 O18 2.117 . S
Co2 O19 2.020 . S
Co2 O21 2.021 . S
Co2 O26 2.062 . S
C3 N5 1.316 . S
C3 N6 1.347 . S
C3 H8 0.931 . S
C4 N5 1.375 . S
C4 C7 1.350 . S
C4 H9 0.930 . S
N5 Co0 2.057 . S
N5 C3 1.316 . S
N5 C4 1.375 . S
N6 C3 1.347 . S
N6 C7 1.373 . S
C7 C4 1.350 . S
C7 N6 1.373 . S
C7 H28 0.931 . S
H8 C3 0.931 . S
H9 C4 0.930 . S
C10 O17 1.259 . S
C10 O18 1.258 . S
N11 Co2 2.057 . S
N11 C12 1.316 . S
N11 C13 1.375 . S
C12 N11 1.316 . S
C12 N14 1.347 . S
C12 H23 0.931 . S
C13 N11 1.375 . S
C13 C15 1.350 . S
C13 H22 0.930 . S
N14 C12 1.347 . S
N14 C15 1.373 . S
C15 C13 1.350 . S
C15 N14 1.373 . S
C15 H29 0.931 . S
C16 O19 1.256 . S
C16 O20 1.255 . S
O17 Co0 2.021 . S
O17 C10 1.259 . S
O18 Co2 2.117 . S
O18 C10 1.258 . S
O19 Co2 2.020 . S
O19 C16 1.256 . S
O20 Co0 2.062 . S
O20 C16 1.255 . S
O21 C1 1.259 . S
O21 Co2 2.021 . S
H22 C13 0.930 . S
H23 C12 0.931 . S
O24 Co0 2.117 . S
O24 C1 1.258 . S
O25 Co0 2.020 . S
O25 C27 1.256 . S
O26 Co2 2.062 . S
O26 C27 1.255 . S
C27 O25 1.256 . S
C27 O26 1.255 . S
H28 C7 0.931 . S
H29 C15 0.931 . S
Co30 N35 2.057 . S
Co30 O47 2.021 . S
Co30 O50 2.062 . S
Co30 O54 2.117 . S
Co30 O55 2.020 . S
C31 O51 1.259 . S
C31 O54 1.258 . S
Co32 N41 2.057 . S
Co32 O48 2.117 . S
Co32 O49 2.020 . S
Co32 O51 2.021 . S
Co32 O56 2.062 . S
C33 N35 1.316 . S
C33 N36 1.347 . S
C33 H38 0.931 . S
C34 N35 1.375 . S
C34 C37 1.350 . S
C34 H39 0.930 . S
N35 Co30 2.057 . S
N35 C33 1.316 . S
N35 C34 1.375 . S
N36 C33 1.347 . S
N36 C37 1.373 . S
C37 C34 1.350 . S
C37 N36 1.373 . S
C37 H58 0.931 . S
H38 C33 0.931 . S
H39 C34 0.930 . S
C40 O47 1.259 . S
C40 O48 1.258 . S
N41 Co32 2.057 . S
N41 C42 1.316 . S
N41 C43 1.375 . S
C42 N41 1.316 . S
C42 N44 1.347 . S
C42 H53 0.931 . S
C43 N41 1.375 . S
C43 C45 1.350 . S
C43 H52 0.930 . S
N44 C42 1.347 . S
N44 C45 1.373 . S
C45 C43 1.350 . S
C45 N44 1.373 . S
C45 H59 0.931 . S
C46 O49 1.256 . S
C46 O50 1.255 . S
O47 Co30 2.021 . S
O47 C40 1.259 . S
O48 Co32 2.117 . S
O48 C40 1.258 . S
O49 Co32 2.020 . S
O49 C46 1.256 . S
O50 Co30 2.062 . S
O50 C46 1.255 . S
O51 C31 1.259 . S
O51 Co32 2.021 . S
H52 C43 0.930 . S
H53 C42 0.931 . S
O54 Co30 2.117 . S
O54 C31 1.258 . S
O55 Co30 2.020 . S
O55 C57 1.256 . S
O56 Co32 2.062 . S
O56 C57 1.255 . S
C57 O55 1.256 . S
C57 O56 1.255 . S
H58 C37 0.931 . S
H59 C45 0.931 . S
Co60 N65 2.057 . S
Co60 O77 2.021 . S
Co60 O80 2.062 . S
Co60 O84 2.117 . S
Co60 O85 2.020 . S
C61 O81 1.259 . S
C61 O84 1.258 . S
Co62 N71 2.057 . S
Co62 O78 2.117 . S
Co62 O79 2.020 . S
Co62 O81 2.021 . S
Co62 O86 2.062 . S
C63 N65 1.316 . S
C63 N66 1.347 . S
C63 H68 0.931 . S
C64 N65 1.375 . S
C64 C67 1.350 . S
C64 H69 0.930 . S
N65 Co60 2.057 . S
N65 C63 1.316 . S
N65 C64 1.375 . S
N66 C63 1.347 . S
N66 C67 1.373 . S
C67 C64 1.350 . S
C67 N66 1.373 . S
C67 H88 0.931 . S
H68 C63 0.931 . S
H69 C64 0.930 . S
C70 O77 1.259 . S
C70 O78 1.258 . S
N71 Co62 2.057 . S
N71 C72 1.316 . S
N71 C73 1.375 . S
C72 N71 1.316 . S
C72 N74 1.347 . S
C72 H83 0.931 . S
C73 N71 1.375 . S
C73 C75 1.350 . S
C73 H82 0.930 . S
N74 C72 1.347 . S
N74 C75 1.373 . S
C75 C73 1.350 . S
C75 N74 1.373 . S
C75 H89 0.931 . S
C76 O79 1.256 . S
C76 O80 1.255 . S
O77 Co60 2.021 . S
O77 C70 1.259 . S
O78 Co62 2.117 . S
O78 C70 1.258 . S
O79 Co62 2.020 . S
O79 C76 1.256 . S
O80 Co60 2.062 . S
O80 C76 1.255 . S
O81 C61 1.259 . S
O81 Co62 2.021 . S
H82 C73 0.930 . S
H83 C72 0.931 . S
O84 Co60 2.117 . S
O84 C61 1.258 . S
O85 Co60 2.020 . S
O85 C87 1.256 . S
O86 Co62 2.062 . S
O86 C87 1.255 . S
C87 O85 1.256 . S
C87 O86 1.255 . S
H88 C67 0.931 . S
H89 C75 0.931 . S
Co90 N95 2.057 . S
Co90 O107 2.021 . S
Co90 O110 2.062 . S
Co90 O114 2.117 . S
Co90 O115 2.020 . S
C91 O111 1.259 . S
C91 O114 1.258 . S
Co92 N101 2.057 . S
Co92 O108 2.117 . S
Co92 O109 2.020 . S
Co92 O111 2.021 . S
Co92 O116 2.062 . S
C93 N95 1.316 . S
C93 N96 1.347 . S
C93 H98 0.931 . S
C94 N95 1.375 . S
C94 C97 1.350 . S
C94 H99 0.930 . S
N95 Co90 2.057 . S
N95 C93 1.316 . S
N95 C94 1.375 . S
N96 C93 1.347 . S
N96 C97 1.373 . S
C97 C94 1.350 . S
C97 N96 1.373 . S
C97 H118 0.931 . S
H98 C93 0.931 . S
H99 C94 0.930 . S
C100 O107 1.259 . S
C100 O108 1.258 . S
N101 Co92 2.057 . S
N101 C102 1.316 . S
N101 C103 1.375 . S
C102 N101 1.316 . S
C102 N104 1.347 . S
C102 H113 0.931 . S
C103 N101 1.375 . S
C103 C105 1.350 . S
C103 H112 0.930 . S
N104 C102 1.347 . S
N104 C105 1.373 . S
C105 C103 1.350 . S
C105 N104 1.373 . S
C105 H119 0.931 . S
C106 O109 1.256 . S
C106 O110 1.255 . S
O107 Co90 2.021 . S
O107 C100 1.259 . S
O108 Co92 2.117 . S
O108 C100 1.258 . S
O109 Co92 2.020 . S
O109 C106 1.256 . S
O110 Co90 2.062 . S
O110 C106 1.255 . S
O111 C91 1.259 . S
O111 Co92 2.021 . S
H112 C103 0.930 . S
H113 C102 0.931 . S
O114 Co90 2.117 . S
O114 C91 1.258 . S
O115 Co90 2.020 . S
O115 C117 1.256 . S
O116 Co92 2.062 . S
O116 C117 1.255 . S
C117 O115 1.256 . S
C117 O116 1.255 . S
H118 C97 0.931 . S
H119 C105 0.931 . S
Co120 N125 2.057 . S
Co120 O137 2.021 . S
Co120 O140 2.062 . S
Co120 O144 2.117 . S
Co120 O145 2.020 . S
C121 O141 1.259 . S
C121 O144 1.258 . S
Co122 N131 2.057 . S
Co122 O138 2.117 . S
Co122 O139 2.020 . S
Co122 O141 2.021 . S
Co122 O146 2.062 . S
C123 N125 1.316 . S
C123 N126 1.347 . S
C123 H128 0.931 . S
C124 N125 1.375 . S
C124 C127 1.350 . S
C124 H129 0.930 . S
N125 Co120 2.057 . S
N125 C123 1.316 . S
N125 C124 1.375 . S
N126 C123 1.347 . S
N126 C127 1.373 . S
C127 C124 1.350 . S
C127 N126 1.373 . S
C127 H148 0.931 . S
H128 C123 0.931 . S
H129 C124 0.930 . S
C130 O137 1.259 . S
C130 O138 1.258 . S
N131 Co122 2.057 . S
N131 C132 1.316 . S
N131 C133 1.375 . S
C132 N131 1.316 . S
C132 N134 1.347 . S
C132 H143 0.931 . S
C133 N131 1.375 . S
C133 C135 1.350 . S
C133 H142 0.930 . S
N134 C132 1.347 . S
N134 C135 1.373 . S
C135 C133 1.350 . S
C135 N134 1.373 . S
C135 H149 0.931 . S
C136 O139 1.256 . S
C136 O140 1.255 . S
O137 Co120 2.021 . S
O137 C130 1.259 . S
O138 Co122 2.117 . S
O138 C130 1.258 . S
O139 Co122 2.020 . S
O139 C136 1.256 . S
O140 Co120 2.062 . S
O140 C136 1.255 . S
O141 C121 1.259 . S
O141 Co122 2.021 . S
H142 C133 0.930 . S
H143 C132 0.931 . S
O144 Co120 2.117 . S
O144 C121 1.258 . S
O145 Co120 2.020 . S
O145 C147 1.256 . S
O146 Co122 2.062 . S
O146 C147 1.255 . S
C147 O145 1.256 . S
C147 O146 1.255 . S
H148 C127 0.931 . S
H149 C135 0.931 . S
Co150 N155 2.057 . S
Co150 O167 2.021 . S
Co150 O170 2.062 . S
Co150 O174 2.117 . S
Co150 O175 2.020 . S
C151 O171 1.259 . S
C151 O174 1.258 . S
Co152 N161 2.057 . S
Co152 O168 2.117 . S
Co152 O169 2.020 . S
Co152 O171 2.021 . S
Co152 O176 2.062 . S
C153 N155 1.316 . S
C153 N156 1.347 . S
C153 H158 0.931 . S
C154 N155 1.375 . S
C154 C157 1.350 . S
C154 H159 0.930 . S
N155 Co150 2.057 . S
N155 C153 1.316 . S
N155 C154 1.375 . S
N156 C153 1.347 . S
N156 C157 1.373 . S
C157 C154 1.350 . S
C157 N156 1.373 . S
C157 H178 0.931 . S
H158 C153 0.931 . S
H159 C154 0.930 . S
C160 O167 1.259 . S
C160 O168 1.258 . S
N161 Co152 2.057 . S
N161 C162 1.316 . S
N161 C163 1.375 . S
C162 N161 1.316 . S
C162 N164 1.347 . S
C162 H173 0.931 . S
C163 N161 1.375 . S
C163 C165 1.350 . S
C163 H172 0.930 . S
N164 C162 1.347 . S
N164 C165 1.373 . S
C165 C163 1.350 . S
C165 N164 1.373 . S
C165 H179 0.931 . S
C166 O169 1.256 . S
C166 O170 1.255 . S
O167 Co150 2.021 . S
O167 C160 1.259 . S
O168 Co152 2.117 . S
O168 C160 1.258 . S
O169 Co152 2.020 . S
O169 C166 1.256 . S
O170 Co150 2.062 . S
O170 C166 1.255 . S
O171 C151 1.259 . S
O171 Co152 2.021 . S
H172 C163 0.930 . S
H173 C162 0.931 . S
O174 Co150 2.117 . S
O174 C151 1.258 . S
O175 Co150 2.020 . S
O175 C177 1.256 . S
O176 Co152 2.062 . S
O176 C177 1.255 . S
C177 O175 1.256 . S
C177 O176 1.255 . S
H178 C157 0.931 . S
H179 C165 0.931 . S
Co180 N185 2.057 . S
Co180 O197 2.021 . S
Co180 O200 2.062 . S
Co180 O204 2.117 . S
Co180 O205 2.020 . S
C181 O201 1.259 . S
C181 O204 1.258 . S
Co182 N191 2.057 . S
Co182 O198 2.117 . S
Co182 O199 2.020 . S
Co182 O201 2.021 . S
Co182 O206 2.062 . S
C183 N185 1.316 . S
C183 N186 1.347 . S
C183 H188 0.931 . S
C184 N185 1.375 . S
C184 C187 1.350 . S
C184 H189 0.930 . S
N185 Co180 2.057 . S
N185 C183 1.316 . S
N185 C184 1.375 . S
N186 C183 1.347 . S
N186 C187 1.373 . S
C187 C184 1.350 . S
C187 N186 1.373 . S
C187 H208 0.931 . S
H188 C183 0.931 . S
H189 C184 0.930 . S
C190 O197 1.259 . S
C190 O198 1.258 . S
N191 Co182 2.057 . S
N191 C192 1.316 . S
N191 C193 1.375 . S
C192 N191 1.316 . S
C192 N194 1.347 . S
C192 H203 0.931 . S
C193 N191 1.375 . S
C193 C195 1.350 . S
C193 H202 0.930 . S
N194 C192 1.347 . S
N194 C195 1.373 . S
C195 C193 1.350 . S
C195 N194 1.373 . S
C195 H209 0.931 . S
C196 O199 1.256 . S
C196 O200 1.255 . S
O197 Co180 2.021 . S
O197 C190 1.259 . S
O198 Co182 2.117 . S
O198 C190 1.258 . S
O199 Co182 2.020 . S
O199 C196 1.256 . S
O200 Co180 2.062 . S
O200 C196 1.255 . S
O201 C181 1.259 . S
O201 Co182 2.021 . S
H202 C193 0.930 . S
H203 C192 0.931 . S
O204 Co180 2.117 . S
O204 C181 1.258 . S
O205 Co180 2.020 . S
O205 C207 1.256 . S
O206 Co182 2.062 . S
O206 C207 1.255 . S
C207 O205 1.256 . S
C207 O206 1.255 . S
H208 C187 0.931 . S
H209 C195 0.931 . S
Co210 N215 2.057 . S
Co210 O227 2.021 . S
Co210 O230 2.062 . S
Co210 O234 2.117 . S
Co210 O235 2.020 . S
C211 O231 1.259 . S
C211 O234 1.258 . S
Co212 N221 2.057 . S
Co212 O228 2.117 . S
Co212 O229 2.020 . S
Co212 O231 2.021 . S
Co212 O236 2.062 . S
C213 N215 1.316 . S
C213 N216 1.347 . S
C213 H218 0.931 . S
C214 N215 1.375 . S
C214 C217 1.350 . S
C214 H219 0.930 . S
N215 Co210 2.057 . S
N215 C213 1.316 . S
N215 C214 1.375 . S
N216 C213 1.347 . S
N216 C217 1.373 . S
C217 C214 1.350 . S
C217 N216 1.373 . S
C217 H238 0.931 . S
H218 C213 0.931 . S
H219 C214 0.930 . S
C220 O227 1.259 . S
C220 O228 1.258 . S
N221 Co212 2.057 . S
N221 C222 1.316 . S
N221 C223 1.375 . S
C222 N221 1.316 . S
C222 N224 1.347 . S
C222 H233 0.931 . S
C223 N221 1.375 . S
C223 C225 1.350 . S
C223 H232 0.930 . S
N224 C222 1.347 . S
N224 C225 1.373 . S
C225 C223 1.350 . S
C225 N224 1.373 . S
C225 H239 0.931 . S
C226 O229 1.256 . S
C226 O230 1.255 . S
O227 Co210 2.021 . S
O227 C220 1.259 . S
O228 Co212 2.117 . S
O228 C220 1.258 . S
O229 Co212 2.020 . S
O229 C226 1.256 . S
O230 Co210 2.062 . S
O230 C226 1.255 . S
O231 C211 1.259 . S
O231 Co212 2.021 . S
H232 C223 0.930 . S
H233 C222 0.931 . S
O234 Co210 2.117 . S
O234 C211 1.258 . S
O235 Co210 2.020 . S
O235 C237 1.256 . S
O236 Co212 2.062 . S
O236 C237 1.255 . S
C237 O235 1.256 . S
C237 O236 1.255 . S
H238 C217 0.931 . S
H239 C225 0.931 . S
Co240 O243 2.042 . S
Co240 O250 2.264 . S
Co240 O269 2.286 . S
Co240 O270 2.069 . S
Co240 O272 2.015 1_455 S
Co241 O243 2.122 . S
Co241 O249 2.073 . S
Co241 O250 2.327 . S
Co241 O251 1.976 1_455 S
Co242 O243 2.087 1_545 S
Co242 O245 2.087 1_455 S
Co242 O252 2.109 1_445 S
Co242 O253 2.146 . S
Co242 O257 2.114 . S
Co242 O271 2.141 1_445 S
O243 Co240 2.042 . S
O243 Co241 2.122 . S
O243 Co242 2.087 1_565 S
O243 H244 0.980 . S
H244 O243 0.980 . S
O245 Co242 2.087 1_655 S
O245 Co246 2.042 . S
O245 Co247 2.122 . S
O245 H248 0.980 . S
Co246 O245 2.042 . S
Co246 O254 2.286 . S
Co246 O255 2.069 . S
Co246 O256 2.015 1_655 S
Co246 O259 2.264 . S
Co247 O245 2.122 . S
Co247 O258 1.976 1_655 S
Co247 O259 2.327 . S
Co247 O260 2.073 . S
H248 O245 0.980 . S
O249 Co241 2.073 . S
O249 C264 1.245 . S
O250 Co240 2.264 . S
O250 Co241 2.327 . S
O250 C264 1.257 . S
O251 Co241 1.976 1_655 S
O251 C263 1.251 . S
O252 Co242 2.109 1_665 S
O252 C263 1.274 . S
O253 Co242 2.146 . S
O253 C266 1.246 . S
O254 Co246 2.286 . S
O254 C265 1.259 . S
O255 Co246 2.069 . S
O255 C265 1.289 . S
O256 Co246 2.015 1_455 S
O256 C266 1.257 . S
O257 Co242 2.114 . S
O257 C267 1.274 . S
O258 Co247 1.976 1_455 S
O258 C267 1.251 . S
O259 Co246 2.264 . S
O259 Co247 2.327 . S
O259 C268 1.257 . S
O260 Co247 2.073 . S
O260 C268 1.245 . S
C261 O269 1.259 . S
C261 O270 1.289 . S
C262 O271 1.246 . S
C262 O272 1.257 . S
C263 O251 1.251 . S
C263 O252 1.274 . S
C264 O249 1.245 . S
C264 O250 1.257 . S
C265 O254 1.259 . S
C265 O255 1.289 . S
C266 O253 1.246 . S
C266 O256 1.257 . S
C267 O257 1.274 . S
C267 O258 1.251 . S
C268 O259 1.257 . S
C268 O260 1.245 . S
O269 Co240 2.286 . S
O269 C261 1.259 . S
O270 Co240 2.069 . S
O270 C261 1.289 . S
O271 Co242 2.141 1_665 S
O271 C262 1.246 . S
O272 Co240 2.015 1_655 S
O272 C262 1.257 . S
Co273 O276 2.042 1_556 S
Co273 O283 2.264 1_556 S
Co273 O302 2.286 . S
Co273 O303 2.069 . S
Co273 O305 2.015 . S
Co274 O276 2.122 . S
Co274 O282 2.073 . S
Co274 O283 2.327 . S
Co274 O284 1.976 . S
Co275 O276 2.085 1_545 S
Co275 O278 2.089 1_554 S
Co275 O285 2.110 1_545 S
Co275 O286 2.145 . S
Co275 O290 2.112 1_554 S
Co275 O304 2.142 1_544 S
O276 Co273 2.042 1_554 S
O276 Co274 2.122 . S
O276 Co275 2.085 1_565 S
O276 H277 0.980 . S
H277 O276 0.980 . S
O278 Co275 2.089 1_556 S
O278 Co279 2.042 1_556 S
O278 Co280 2.122 . S
O278 H281 0.980 . S
Co279 O278 2.042 1_554 S
Co279 O287 2.286 . S
Co279 O288 2.069 . S
Co279 O289 2.015 . S
Co279 O292 2.264 1_554 S
Co280 O278 2.122 . S
Co280 O291 1.976 . S
Co280 O292 2.327 . S
Co280 O293 2.073 . S
H281 O278 0.980 . S
O282 Co274 2.073 . S
O282 C297 1.245 . S
O283 Co273 2.264 1_554 S
O283 Co274 2.327 . S
O283 C297 1.257 . S
O284 Co274 1.976 . S
O284 C296 1.251 . S
O285 Co275 2.110 1_565 S
O285 C296 1.274 . S
O286 Co275 2.145 . S
O286 C299 1.246 . S
O287 Co279 2.286 . S
O287 C298 1.259 . S
O288 Co279 2.069 . S
O288 C298 1.289 . S
O289 Co279 2.015 . S
O289 C299 1.257 . S
O290 Co275 2.112 1_556 S
O290 C300 1.274 . S
O291 Co280 1.976 . S
O291 C300 1.251 . S
O292 Co279 2.264 1_556 S
O292 Co280 2.327 . S
O292 C301 1.257 . S
O293 Co280 2.073 . S
O293 C301 1.245 . S
C294 O302 1.259 . S
C294 O303 1.289 . S
C295 O304 1.246 . S
C295 O305 1.257 . S
C296 O284 1.251 . S
C296 O285 1.274 . S
C297 O282 1.245 . S
C297 O283 1.257 . S
C298 O287 1.259 . S
C298 O288 1.289 . S
C299 O286 1.246 . S
C299 O289 1.257 . S
C300 O290 1.274 . S
C300 O291 1.251 . S
C301 O292 1.257 . S
C301 O293 1.245 . S
O302 Co273 2.286 . S
O302 C294 1.259 . S
O303 Co273 2.069 . S
O303 C294 1.289 . S
O304 Co275 2.142 1_566 S
O304 C295 1.246 . S
O305 Co273 2.015 . S
O305 C295 1.257 . S
Co306 O309 2.042 1_556 S
Co306 O316 2.264 1_556 S
Co306 O335 2.286 . S
Co306 O336 2.069 . S
Co306 O338 2.015 1_455 S
Co307 O309 2.122 . S
Co307 O315 2.073 . S
Co307 O316 2.327 . S
Co307 O317 1.976 1_455 S
Co308 O309 2.089 . S
Co308 O311 2.085 1_454 S
Co308 O318 2.110 1_455 S
Co308 O319 2.145 . S
Co308 O323 2.113 1_554 S
Co308 O337 2.142 1_454 S
O309 Co306 2.042 1_554 S
O309 Co307 2.122 . S
O309 Co308 2.089 . S
O309 H310 0.980 . S
H310 O309 0.980 . S
O311 Co308 2.085 1_656 S
O311 Co312 2.042 1_556 S
O311 Co313 2.122 . S
O311 H314 0.980 . S
Co312 O311 2.042 1_554 S
Co312 O320 2.286 . S
Co312 O321 2.069 . S
Co312 O322 2.015 1_655 S
Co312 O325 2.264 1_554 S
Co313 O311 2.122 . S
Co313 O324 1.976 1_655 S
Co313 O325 2.327 . S
Co313 O326 2.073 . S
H314 O311 0.980 . S
O315 Co307 2.073 . S
O315 C330 1.245 . S
O316 Co306 2.264 1_554 S
O316 Co307 2.327 . S
O316 C330 1.257 . S
O317 Co307 1.976 1_655 S
O317 C329 1.251 . S
O318 Co308 2.110 1_655 S
O318 C329 1.274 . S
O319 Co308 2.145 . S
O319 C332 1.246 . S
O320 Co312 2.286 . S
O320 C331 1.259 . S
O321 Co312 2.069 . S
O321 C331 1.289 . S
O322 Co312 2.015 1_455 S
O322 C332 1.257 . S
O323 Co308 2.113 1_556 S
O323 C333 1.274 . S
O324 Co313 1.976 1_455 S
O324 C333 1.251 . S
O325 Co312 2.264 1_556 S
O325 Co313 2.327 . S
O325 C334 1.257 . S
O326 Co313 2.073 . S
O326 C334 1.245 . S
C327 O335 1.259 . S
C327 O336 1.289 . S
C328 O337 1.246 . S
C328 O338 1.257 . S
C329 O317 1.251 . S
C329 O318 1.274 . S
C330 O315 1.245 . S
C330 O316 1.257 . S
C331 O320 1.259 . S
C331 O321 1.289 . S
C332 O319 1.246 . S
C332 O322 1.257 . S
C333 O323 1.274 . S
C333 O324 1.251 . S
C334 O325 1.257 . S
C334 O326 1.245 . S
O335 Co306 2.286 . S
O335 C327 1.259 . S
O336 Co306 2.069 . S
O336 C327 1.289 . S
O337 Co308 2.142 1_656 S
O337 C328 1.246 . S
O338 Co306 2.015 1_655 S
O338 C328 1.257 . S
Co339 O342 2.042 1_556 S
Co339 O349 2.264 1_556 S
Co339 O368 2.286 . S
Co339 O369 2.069 . S
Co339 O371 2.015 . S
Co340 O342 2.122 . S
Co340 O348 2.073 . S
Co340 O349 2.327 . S
Co340 O350 1.976 . S
Co341 O342 2.087 . S
Co341 O344 2.087 1_554 S
Co341 O351 2.111 . S
Co341 O352 2.143 . S
Co341 O356 2.111 1_554 S
Co341 O370 2.143 1_554 S
O342 Co339 2.042 1_554 S
O342 Co340 2.122 . S
O342 Co341 2.087 . S
O342 H343 0.980 . S
H343 O342 0.980 . S
O344 Co341 2.087 1_556 S
O344 Co345 2.042 1_556 S
O344 Co346 2.122 . S
O344 H347 0.980 . S
Co345 O344 2.042 1_554 S
Co345 O353 2.286 . S
Co345 O354 2.069 . S
Co345 O355 2.015 . S
Co345 O358 2.264 1_554 S
Co346 O344 2.122 . S
Co346 O357 1.976 . S
Co346 O358 2.327 . S
Co346 O359 2.073 . S
H347 O344 0.980 . S
O348 Co340 2.073 . S
O348 C363 1.245 . S
O349 Co339 2.264 1_554 S
O349 Co340 2.327 . S
O349 C363 1.257 . S
O350 Co340 1.976 . S
O350 C362 1.251 . S
O351 Co341 2.111 . S
O351 C362 1.274 . S
O352 Co341 2.143 . S
O352 C365 1.246 . S
O353 Co345 2.286 . S
O353 C364 1.259 . S
O354 Co345 2.069 . S
O354 C364 1.289 . S
O355 Co345 2.015 . S
O355 C365 1.257 . S
O356 Co341 2.111 1_556 S
O356 C366 1.274 . S
O357 Co346 1.976 . S
O357 C366 1.251 . S
O358 Co345 2.264 1_556 S
O358 Co346 2.327 . S
O358 C367 1.257 . S
O359 Co346 2.073 . S
O359 C367 1.245 . S
C360 O368 1.259 . S
C360 O369 1.289 . S
C361 O370 1.246 . S
C361 O371 1.257 . S
C362 O350 1.251 . S
C362 O351 1.274 . S
C363 O348 1.245 . S
C363 O349 1.257 . S
C364 O353 1.259 . S
C364 O354 1.289 . S
C365 O352 1.246 . S
C365 O355 1.257 . S
C366 O356 1.274 . S
C366 O357 1.251 . S
C367 O358 1.257 . S
C367 O359 1.245 . S
O368 Co339 2.286 . S
O368 C360 1.259 . S
O369 Co339 2.069 . S
O369 C360 1.289 . S
O370 Co341 2.143 1_556 S
O370 C361 1.246 . S
O371 Co339 2.015 . S
O371 C361 1.257 . S
Co372 O375 2.042 . S
Co372 O382 2.264 . S
Co372 O401 2.286 . S
Co372 O402 2.069 . S
Co372 O404 2.015 . S
Co373 O375 2.122 . S
Co373 O381 2.073 . S
Co373 O382 2.327 . S
Co373 O383 1.976 . S
Co374 O375 2.089 . S
Co374 O377 2.085 1_455 S
Co374 O384 2.112 . S
Co374 O385 2.142 1_455 S
Co374 O389 2.110 1_455 S
Co374 O403 2.145 . S
O375 Co372 2.042 . S
O375 Co373 2.122 . S
O375 Co374 2.089 . S
O375 H376 0.980 . S
H376 O375 0.980 . S
O377 Co374 2.085 1_655 S
O377 Co378 2.042 . S
O377 Co379 2.122 . S
O377 H380 0.980 . S
Co378 O377 2.042 . S
Co378 O386 2.286 . S
Co378 O387 2.069 . S
Co378 O388 2.015 . S
Co378 O391 2.264 . S
Co379 O377 2.122 . S
Co379 O390 1.976 . S
Co379 O391 2.327 . S
Co379 O392 2.073 . S
H380 O377 0.980 . S
O381 Co373 2.073 . S
O381 C396 1.245 . S
O382 Co372 2.264 . S
O382 Co373 2.327 . S
O382 C396 1.257 . S
O383 Co373 1.976 . S
O383 C395 1.251 . S
O384 Co374 2.112 . S
O384 C395 1.274 . S
O385 Co374 2.142 1_655 S
O385 C398 1.246 . S
O386 Co378 2.286 . S
O386 C397 1.259 . S
O387 Co378 2.069 . S
O387 C397 1.289 . S
O388 Co378 2.015 . S
O388 C398 1.257 . S
O389 Co374 2.110 1_655 S
O389 C399 1.274 . S
O390 Co379 1.976 . S
O390 C399 1.251 . S
O391 Co378 2.264 . S
O391 Co379 2.327 . S
O391 C400 1.257 . S
O392 Co379 2.073 . S
O392 C400 1.245 . S
C393 O401 1.259 . S
C393 O402 1.289 . S
C394 O403 1.246 . S
C394 O404 1.257 . S
C395 O383 1.251 . S
C395 O384 1.274 . S
C396 O381 1.245 . S
C396 O382 1.257 . S
C397 O386 1.259 . S
C397 O387 1.289 . S
C398 O385 1.246 . S
C398 O388 1.257 . S
C399 O389 1.274 . S
C399 O390 1.251 . S
C400 O391 1.257 . S
C400 O392 1.245 . S
O401 Co372 2.286 . S
O401 C393 1.259 . S
O402 Co372 2.069 . S
O402 C393 1.289 . S
O403 Co374 2.145 . S
O403 C394 1.246 . S
O404 Co372 2.015 . S
O404 C394 1.257 . S
Co405 O408 2.042 . S
Co405 O415 2.264 . S
Co405 O434 2.286 . S
Co405 O435 2.069 . S
Co405 O437 2.015 1_565 S
Co406 O408 2.122 . S
Co406 O414 2.073 . S
Co406 O415 2.327 . S
Co406 O416 1.976 1_565 S
Co407 O408 2.085 1_545 S
Co407 O410 2.089 . S
Co407 O417 2.113 . S
Co407 O418 2.142 1_545 S
Co407 O422 2.110 1_545 S
Co407 O436 2.144 . S
O408 Co405 2.042 . S
O408 Co406 2.122 . S
O408 Co407 2.085 1_565 S
O408 H409 0.980 . S
H409 O408 0.980 . S
O410 Co407 2.089 . S
O410 Co411 2.042 . S
O410 Co412 2.122 . S
O410 H413 0.980 . S
Co411 O410 2.042 . S
Co411 O419 2.286 . S
Co411 O420 2.069 . S
Co411 O421 2.015 1_545 S
Co411 O424 2.264 . S
Co412 O410 2.122 . S
Co412 O423 1.976 1_545 S
Co412 O424 2.327 . S
Co412 O425 2.073 . S
H413 O410 0.980 . S
O414 Co406 2.073 . S
O414 C429 1.245 . S
O415 Co405 2.264 . S
O415 Co406 2.327 . S
O415 C429 1.257 . S
O416 Co406 1.976 1_545 S
O416 C428 1.251 . S
O417 Co407 2.113 . S
O417 C428 1.274 . S
O418 Co407 2.142 1_565 S
O418 C431 1.246 . S
O419 Co411 2.286 . S
O419 C430 1.259 . S
O420 Co411 2.069 . S
O420 C430 1.289 . S
O421 Co411 2.015 1_565 S
O421 C431 1.257 . S
O422 Co407 2.110 1_565 S
O422 C432 1.274 . S
O423 Co412 1.976 1_565 S
O423 C432 1.251 . S
O424 Co411 2.264 . S
O424 Co412 2.327 . S
O424 C433 1.257 . S
O425 Co412 2.073 . S
O425 C433 1.245 . S
C426 O434 1.259 . S
C426 O435 1.289 . S
C427 O436 1.246 . S
C427 O437 1.257 . S
C428 O416 1.251 . S
C428 O417 1.274 . S
C429 O414 1.245 . S
C429 O415 1.257 . S
C430 O419 1.259 . S
C430 O420 1.289 . S
C431 O418 1.246 . S
C431 O421 1.257 . S
C432 O422 1.274 . S
C432 O423 1.251 . S
C433 O424 1.257 . S
C433 O425 1.245 . S
O434 Co405 2.286 . S
O434 C426 1.259 . S
O435 Co405 2.069 . S
O435 C426 1.289 . S
O436 Co407 2.144 . S
O436 C427 1.246 . S
O437 Co405 2.015 1_545 S
O437 C427 1.257 . S
C438 C439 1.387 . S
C438 H442 0.950 . S
C438 C447 1.390 . S
C439 C438 1.387 . S
C439 C441 1.387 . S
H440 C447 0.950 . S
C441 C439 1.387 . S
C441 C443 1.390 . S
C441 H445 0.950 . S
H442 C438 0.950 . S
C443 C441 1.390 . S
C443 C444 1.387 . S
C443 H446 0.950 . S
C444 C443 1.387 . S
C444 C447 1.387 . S
H445 C441 0.950 . S
H446 C443 0.950 . S
C447 C438 1.390 . S
C447 H440 0.950 . S
C447 C444 1.387 . S
C448 C449 1.387 . S
C448 H452 0.950 . S
C448 C457 1.390 . S
C449 C448 1.387 . S
C449 C451 1.387 . S
H450 C457 0.950 . S
C451 C449 1.387 . S
C451 C453 1.390 . S
C451 H455 0.950 . S
H452 C448 0.950 . S
C453 C451 1.390 . S
C453 C454 1.387 . S
C453 H456 0.950 . S
C454 C453 1.387 . S
C454 C457 1.387 . S
H455 C451 0.950 . S
H456 C453 0.950 . S
C457 C448 1.390 . S
C457 H450 0.950 . S
C457 C454 1.387 . S
C458 C459 1.387 . S
C458 H462 0.950 . S
C458 C467 1.390 . S
C459 C458 1.387 . S
C459 C461 1.387 . S
H460 C467 0.950 . S
C461 C459 1.387 . S
C461 C463 1.390 . S
C461 H465 0.950 . S
H462 C458 0.950 . S
C463 C461 1.390 . S
C463 C464 1.387 . S
C463 H466 0.950 . S
C464 C463 1.387 . S
C464 C467 1.387 . S
H465 C461 0.950 . S
H466 C463 0.950 . S
C467 C458 1.390 . S
C467 H460 0.950 . S
C467 C464 1.387 . S
C468 C469 1.387 . S
C468 H472 0.950 . S
C468 C477 1.390 . S
C469 C468 1.387 . S
C469 C471 1.387 . S
H470 C477 0.950 . S
C471 C469 1.387 . S
C471 C473 1.390 . S
C471 H475 0.950 . S
H472 C468 0.950 . S
C473 C471 1.390 . S
C473 C474 1.387 . S
C473 H476 0.950 . S
C474 C473 1.387 . S
C474 C477 1.387 . S
H475 C471 0.950 . S
H476 C473 0.950 . S
C477 C468 1.390 . S
C477 H470 0.950 . S
C477 C474 1.387 . S
C478 C479 1.387 . S
C478 H482 0.950 . S
C478 C487 1.390 . S
C479 C478 1.387 . S
C479 C481 1.387 . S
H480 C487 0.950 . S
C481 C479 1.387 . S
C481 C483 1.390 . S
C481 H485 0.950 . S
H482 C478 0.950 . S
C483 C481 1.390 . S
C483 C484 1.387 . S
C483 H486 0.950 . S
C484 C483 1.387 . S
C484 C487 1.387 . S
H485 C481 0.950 . S
H486 C483 0.950 . S
C487 C478 1.390 . S
C487 H480 0.950 . S
C487 C484 1.387 . S
C488 C489 1.387 . S
C488 H492 0.950 . S
C488 C497 1.390 . S
C489 C488 1.387 . S
C489 C491 1.387 . S
H490 C497 0.950 . S
C491 C489 1.387 . S
C491 C493 1.390 . S
C491 H495 0.950 . S
H492 C488 0.950 . S
C493 C491 1.390 . S
C493 C494 1.387 . S
C493 H496 0.950 . S
C494 C493 1.387 . S
C494 C497 1.387 . S
H495 C491 0.950 . S
H496 C493 0.950 . S
C497 C488 1.390 . S
C497 H490 0.950 . S
C497 C494 1.387 . S
C498 C499 1.387 . S
C498 H502 0.950 . S
C498 C507 1.390 . S
C499 C498 1.387 . S
C499 C501 1.387 . S
H500 C507 0.950 . S
C501 C499 1.387 . S
C501 C503 1.390 . S
C501 H505 0.950 . S
H502 C498 0.950 . S
C503 C501 1.390 . S
C503 C504 1.387 . S
C503 H506 0.950 . S
C504 C503 1.387 . S
C504 C507 1.387 . S
H505 C501 0.950 . S
H506 C503 0.950 . S
C507 C498 1.390 . S
C507 H500 0.950 . S
C507 C504 1.387 . S
C508 C509 1.387 . S
C508 H512 0.950 . S
C508 C517 1.390 . S
C509 C508 1.387 . S
C509 C511 1.387 . S
H510 C517 0.950 . S
C511 C509 1.387 . S
C511 C513 1.390 . S
C511 H515 0.950 . S
H512 C508 0.950 . S
C513 C511 1.390 . S
C513 C514 1.387 . S
C513 H516 0.950 . S
C514 C513 1.387 . S
C514 C517 1.387 . S
H515 C511 0.950 . S
H516 C513 0.950 . S
C517 C508 1.390 . S
C517 H510 0.950 . S
C517 C514 1.387 . S
C518 C519 1.387 . S
C518 H522 0.950 . S
C518 C527 1.390 . S
C519 C518 1.387 . S
C519 C521 1.387 . S
H520 C527 0.950 . S
C521 C519 1.387 . S
C521 C523 1.390 . S
C521 H525 0.950 . S
H522 C518 0.950 . S
C523 C521 1.390 . S
C523 C524 1.387 . S
C523 H526 0.950 . S
C524 C523 1.387 . S
C524 C527 1.387 . S
H525 C521 0.950 . S
H526 C523 0.950 . S
C527 C518 1.390 . S
C527 H520 0.950 . S
C527 C524 1.387 . S
C528 C529 1.387 . S
C528 H532 0.950 1_554 S
C528 C537 1.390 . S
C529 C528 1.387 . S
C529 C531 1.387 . S
H530 C537 0.950 1_556 S
C531 C529 1.387 . S
C531 C533 1.390 . S
C531 H535 0.950 . S
H532 C528 0.950 1_556 S
C533 C531 1.390 . S
C533 C534 1.387 . S
C533 H536 0.950 . S
C534 C533 1.387 . S
C534 C537 1.387 . S
H535 C531 0.950 . S
H536 C533 0.950 . S
C537 C528 1.390 . S
C537 H530 0.950 1_554 S
C537 C534 1.387 . S
C538 C539 1.387 . S
C538 H542 0.950 . S
C538 C547 1.390 . S
C539 C538 1.387 . S
C539 C541 1.387 . S
H540 C547 0.950 . S
C541 C539 1.387 . S
C541 C543 1.390 . S
C541 H545 0.950 . S
H542 C538 0.950 . S
C543 C541 1.390 . S
C543 C544 1.387 . S
C543 H546 0.950 1_554 S
C544 C543 1.387 . S
C544 C547 1.387 . S
H545 C541 0.950 . S
H546 C543 0.950 1_556 S
C547 C538 1.390 . S
C547 H540 0.950 . S
C547 C544 1.387 . S
C548 C549 1.387 . S
C548 H552 0.950 . S
C548 C557 1.390 . S
C549 C548 1.387 . S
C549 C551 1.387 . S
H550 C557 0.950 . S
C551 C549 1.387 . S
C551 C553 1.390 . S
C551 H555 0.950 . S
H552 C548 0.950 . S
C553 C551 1.390 . S
C553 C554 1.387 . S
C553 H556 0.950 . S
C554 C553 1.387 . S
C554 C557 1.387 . S
H555 C551 0.950 . S
H556 C553 0.950 . S
C557 C548 1.390 . S
C557 H550 0.950 . S
C557 C554 1.387 . S
C558 C559 1.387 . S
C558 H562 0.950 . S
C558 C567 1.390 . S
C559 C558 1.387 . S
C559 C561 1.387 . S
H560 C567 0.950 . S
C561 C559 1.387 . S
C561 C563 1.390 . S
C561 H565 0.950 . S
H562 C558 0.950 . S
C563 C561 1.390 . S
C563 C564 1.387 . S
C563 H566 0.950 . S
C564 C563 1.387 . S
C564 C567 1.387 . S
H565 C561 0.950 . S
H566 C563 0.950 . S
C567 C558 1.390 . S
C567 H560 0.950 . S
C567 C564 1.387 . S
C568 C569 1.387 . S
C568 H572 0.950 . S
C568 C577 1.390 . S
C569 C568 1.387 . S
C569 C571 1.387 . S
H570 C577 0.950 . S
C571 C569 1.387 . S
C571 C573 1.390 . S
C571 H575 0.950 . S
H572 C568 0.950 . S
C573 C571 1.390 . S
C573 C574 1.387 . S
C573 H576 0.950 . S
C574 C573 1.387 . S
C574 C577 1.387 . S
H575 C571 0.950 . S
H576 C573 0.950 . S
C577 C568 1.390 . S
C577 H570 0.950 . S
C577 C574 1.387 . S
C578 C579 1.387 . S
C578 H582 0.950 . S
C578 C587 1.390 . S
C579 C578 1.387 . S
C579 C581 1.387 . S
H580 C587 0.950 . S
C581 C579 1.387 . S
C581 C583 1.390 . S
C581 H585 0.950 . S
H582 C578 0.950 . S
C583 C581 1.390 . S
C583 C584 1.387 . S
C583 H586 0.950 . S
C584 C583 1.387 . S
C584 C587 1.387 . S
H585 C581 0.950 . S
H586 C583 0.950 . S
C587 C578 1.390 . S
C587 H580 0.950 . S
C587 C584 1.387 . S
C588 C589 1.387 . S
C588 H592 0.950 . S
C588 C597 1.390 . S
C589 C588 1.387 . S
C589 C591 1.387 . S
H590 C597 0.950 . S
C591 C589 1.387 . S
C591 C593 1.390 . S
C591 H595 0.950 . S
H592 C588 0.950 . S
C593 C591 1.390 . S
C593 C594 1.387 . S
C593 H596 0.950 . S
C594 C593 1.387 . S
C594 C597 1.387 . S
H595 C591 0.950 . S
H596 C593 0.950 . S
C597 C588 1.390 . S
C597 H590 0.950 . S
C597 C594 1.387 . S
C598 C599 1.387 . S
C598 H602 0.950 . S
C598 C607 1.390 . S
C599 C598 1.387 . S
C599 C601 1.387 . S
H600 C607 0.950 . S
C601 C599 1.387 . S
C601 C603 1.390 . S
C601 H605 0.950 . S
H602 C598 0.950 . S
C603 C601 1.390 . S
C603 C604 1.387 . S
C603 H606 0.950 . S
C604 C603 1.387 . S
C604 C607 1.387 . S
H605 C601 0.950 . S
H606 C603 0.950 . S
C607 C598 1.390 . S
C607 H600 0.950 . S
C607 C604 1.387 . S
C608 C609 1.387 . S
C608 H612 0.950 . S
C608 C617 1.390 . S
C609 C608 1.387 . S
C609 C611 1.387 . S
H610 C617 0.950 1_554 S
C611 C609 1.387 . S
C611 C613 1.390 . S
C611 H615 0.950 . S
H612 C608 0.950 . S
C613 C611 1.390 . S
C613 C614 1.387 . S
C613 H616 0.950 . S
C614 C613 1.387 . S
C614 C617 1.387 . S
H615 C611 0.950 . S
H616 C613 0.950 . S
C617 C608 1.390 . S
C617 H610 0.950 1_556 S
C617 C614 1.387 . S
C618 C619 1.387 . S
C618 H622 0.950 . S
C618 C627 1.390 . S
C619 C618 1.387 . S
C619 C621 1.387 . S
H620 C627 0.950 . S
C621 C619 1.387 . S
C621 C623 1.390 . S
C621 H625 0.950 . S
H622 C618 0.950 . S
C623 C621 1.390 . S
C623 C624 1.387 . S
C623 H626 0.950 1_556 S
C624 C623 1.387 . S
C624 C627 1.387 . S
H625 C621 0.950 . S
H626 C623 0.950 1_554 S
C627 C618 1.390 . S
C627 H620 0.950 . S
C627 C624 1.387 . S
C628 C629 1.387 . S
C628 H632 0.950 . S
C628 C637 1.390 . S
C629 C628 1.387 . S
C629 C631 1.387 . S
H630 C637 0.950 . S
C631 C629 1.387 . S
C631 C633 1.390 . S
C631 H635 0.950 . S
H632 C628 0.950 . S
C633 C631 1.390 . S
C633 C634 1.387 . S
C633 H636 0.950 . S
C634 C633 1.387 . S
C634 C637 1.387 . S
H635 C631 0.950 . S
H636 C633 0.950 . S
C637 C628 1.390 . S
C637 H630 0.950 . S
C637 C634 1.387 . S
C638 C639 1.387 . S
C638 H642 0.950 . S
C638 C647 1.390 . S
C639 C638 1.387 . S
C639 C641 1.387 . S
H640 C647 0.950 . S
C641 C639 1.387 . S
C641 C643 1.390 . S
C641 H645 0.950 . S
H642 C638 0.950 . S
C643 C641 1.390 . S
C643 C644 1.387 . S
C643 H646 0.950 . S
C644 C643 1.387 . S
C644 C647 1.387 . S
H645 C641 0.950 . S
H646 C643 0.950 . S
C647 C638 1.390 . S
C647 H640 0.950 . S
C647 C644 1.387 . S
C648 C649 1.387 . S
C648 H652 0.950 . S
C648 C657 1.390 . S
C649 C648 1.387 . S
C649 C651 1.387 . S
H650 C657 0.950 . S
C651 C649 1.387 . S
C651 C653 1.390 . S
C651 H655 0.950 . S
H652 C648 0.950 . S
C653 C651 1.390 . S
C653 C654 1.387 . S
C653 H656 0.950 . S
C654 C653 1.387 . S
C654 C657 1.387 . S
H655 C651 0.950 . S
H656 C653 0.950 . S
C657 C648 1.390 . S
C657 H650 0.950 . S
C657 C654 1.387 . S
C658 C659 1.387 . S
C658 H662 0.950 . S
C658 C667 1.390 . S
C659 C658 1.387 . S
C659 C661 1.387 . S
H660 C667 0.950 . S
C661 C659 1.387 . S
C661 C663 1.390 . S
C661 H665 0.950 . S
H662 C658 0.950 . S
C663 C661 1.390 . S
C663 C664 1.387 . S
C663 H666 0.950 . S
C664 C663 1.387 . S
C664 C667 1.387 . S
H665 C661 0.950 . S
H666 C663 0.950 . S
C667 C658 1.390 . S
C667 H660 0.950 . S
C667 C664 1.387 . S
C668 C669 1.387 . S
C668 H672 0.950 . S
C668 C677 1.390 . S
C669 C668 1.387 . S
C669 C671 1.387 . S
H670 C677 0.950 . S
C671 C669 1.387 . S
C671 C673 1.390 . S
C671 H675 0.950 . S
H672 C668 0.950 . S
C673 C671 1.390 . S
C673 C674 1.387 . S
C673 H676 0.950 . S
C674 C673 1.387 . S
C674 C677 1.387 . S
H675 C671 0.950 . S
H676 C673 0.950 . S
C677 C668 1.390 . S
C677 H670 0.950 . S
C677 C674 1.387 . S
C678 C679 1.387 . S
C678 H682 0.950 . S
C678 C687 1.390 . S
C679 C678 1.387 . S
C679 C681 1.387 . S
H680 C687 0.950 . S
C681 C679 1.387 . S
C681 C683 1.390 . S
C681 H685 0.950 . S
H682 C678 0.950 . S
C683 C681 1.390 . S
C683 C684 1.387 . S
C683 H686 0.950 . S
C684 C683 1.387 . S
C684 C687 1.387 . S
H685 C681 0.950 . S
H686 C683 0.950 . S
C687 C678 1.390 . S
C687 H680 0.950 . S
C687 C684 1.387 . S
C688 C689 1.387 . S
C688 H692 0.950 . S
C688 C697 1.390 . S
C689 C688 1.387 . S
C689 C691 1.387 . S
H690 C697 0.950 . S
C691 C689 1.387 . S
C691 C693 1.390 . S
C691 H695 0.950 . S
H692 C688 0.950 . S
C693 C691 1.390 . S
C693 C694 1.387 . S
C693 H696 0.950 . S
C694 C693 1.387 . S
C694 C697 1.387 . S
H695 C691 0.950 . S
H696 C693 0.950 . S
C697 C688 1.390 . S
C697 H690 0.950 . S
C697 C694 1.387 . S
C698 C699 1.387 . S
C698 H702 0.950 . S
C698 C707 1.390 . S
C699 C698 1.387 . S
C699 C701 1.387 . S
H700 C707 0.950 . S
C701 C699 1.387 . S
C701 C703 1.390 . S
C701 H705 0.950 . S
H702 C698 0.950 . S
C703 C701 1.390 . S
C703 C704 1.387 . S
C703 H706 0.950 . S
C704 C703 1.387 . S
C704 C707 1.387 . S
H705 C701 0.950 . S
H706 C703 0.950 . S
C707 C698 1.390 . S
C707 H700 0.950 . S
C707 C704 1.387 . S
C708 C709 1.387 . S
C708 H712 0.950 . S
C708 C717 1.390 . S
C709 C708 1.387 . S
C709 C711 1.387 . S
H710 C717 0.950 . S
C711 C709 1.387 . S
C711 C713 1.390 . S
C711 H715 0.950 . S
H712 C708 0.950 . S
C713 C711 1.390 . S
C713 C714 1.387 . S
C713 H716 0.950 . S
C714 C713 1.387 . S
C714 C717 1.387 . S
H715 C711 0.950 . S
H716 C713 0.950 . S
C717 C708 1.390 . S
C717 H710 0.950 . S
C717 C714 1.387 . S
C718 C719 1.387 . S
C718 H722 0.950 . S
C718 C727 1.390 . S
C719 C718 1.387 . S
C719 C721 1.387 . S
H720 C727 0.950 . S
C721 C719 1.387 . S
C721 C723 1.390 . S
C721 H725 0.950 . S
H722 C718 0.950 . S
C723 C721 1.390 . S
C723 C724 1.387 . S
C723 H726 0.950 . S
C724 C723 1.387 . S
C724 C727 1.387 . S
H725 C721 0.950 . S
H726 C723 0.950 . S
C727 C718 1.390 . S
C727 H720 0.950 . S
C727 C724 1.387 . S
C728 C729 1.387 . S
C728 H732 0.950 . S
C728 C737 1.390 . S
C729 C728 1.387 . S
C729 C731 1.387 . S
H730 C737 0.950 . S
C731 C729 1.387 . S
C731 C733 1.390 . S
C731 H735 0.950 . S
H732 C728 0.950 . S
C733 C731 1.390 . S
C733 C734 1.387 . S
C733 H736 0.950 . S
C734 C733 1.387 . S
C734 C737 1.387 . S
H735 C731 0.950 . S
H736 C733 0.950 . S
C737 C728 1.390 . S
C737 H730 0.950 . S
C737 C734 1.387 . S
C738 C739 1.387 . S
C738 H742 0.950 . S
C738 C747 1.390 . S
C739 C738 1.387 . S
C739 C741 1.387 . S
H740 C747 0.950 . S
C741 C739 1.387 . S
C741 C743 1.390 . S
C741 H745 0.950 . S
H742 C738 0.950 . S
C743 C741 1.390 . S
C743 C744 1.387 . S
C743 H746 0.950 . S
C744 C743 1.387 . S
C744 C747 1.387 . S
H745 C741 0.950 . S
H746 C743 0.950 . S
C747 C738 1.390 . S
C747 H740 0.950 . S
C747 C744 1.387 . S
C748 C749 1.387 . S
C748 H752 0.950 . S
C748 C757 1.390 . S
C749 C748 1.387 . S
C749 C751 1.387 . S
H750 C757 0.950 . S
C751 C749 1.387 . S
C751 C753 1.390 . S
C751 H755 0.950 . S
H752 C748 0.950 . S
C753 C751 1.390 . S
C753 C754 1.387 . S
C753 H756 0.950 . S
C754 C753 1.387 . S
C754 C757 1.387 . S
H755 C751 0.950 . S
H756 C753 0.950 . S
C757 C748 1.390 . S
C757 H750 0.950 . S
C757 C754 1.387 . S
C758 C759 1.387 . S
C758 H762 0.950 . S
C758 C767 1.390 . S
C759 C758 1.387 . S
C759 C761 1.387 . S
H760 C767 0.950 . S
C761 C759 1.387 . S
C761 C763 1.390 . S
C761 H765 0.950 . S
H762 C758 0.950 . S
C763 C761 1.390 . S
C763 C764 1.387 . S
C763 H766 0.950 . S
C764 C763 1.387 . S
C764 C767 1.387 . S
H765 C761 0.950 . S
H766 C763 0.950 . S
C767 C758 1.390 . S
C767 H760 0.950 . S
C767 C764 1.387 . S
C768 C769 1.387 . S
C768 H772 0.950 . S
C768 C777 1.390 . S
C769 C768 1.387 . S
C769 C771 1.387 . S
H770 C777 0.950 . S
C771 C769 1.387 . S
C771 C773 1.390 . S
C771 H775 0.950 . S
H772 C768 0.950 . S
C773 C771 1.390 . S
C773 C774 1.387 . S
C773 H776 0.950 . S
C774 C773 1.387 . S
C774 C777 1.387 . S
H775 C771 0.950 . S
H776 C773 0.950 . S
C777 C768 1.390 . S
C777 H770 0.950 . S
C777 C774 1.387 . S
C778 C779 1.387 . S
C778 H782 0.950 . S
C778 C787 1.390 . S
C779 C778 1.387 . S
C779 C781 1.387 . S
H780 C787 0.950 . S
C781 C779 1.387 . S
C781 C783 1.390 . S
C781 H785 0.950 . S
H782 C778 0.950 . S
C783 C781 1.390 . S
C783 C784 1.387 . S
C783 H786 0.950 . S
C784 C783 1.387 . S
C784 C787 1.387 . S
H785 C781 0.950 . S
H786 C783 0.950 . S
C787 C778 1.390 . S
C787 H780 0.950 . S
C787 C784 1.387 . S
C788 C789 1.387 . S
C788 H792 0.950 . S
C788 C797 1.390 . S
C789 C788 1.387 . S
C789 C791 1.387 . S
H790 C797 0.950 . S
C791 C789 1.387 . S
C791 C793 1.390 . S
C791 H795 0.950 . S
H792 C788 0.950 . S
C793 C791 1.390 . S
C793 C794 1.387 . S
C793 H796 0.950 . S
C794 C793 1.387 . S
C794 C797 1.387 . S
H795 C791 0.950 . S
H796 C793 0.950 . S
C797 C788 1.390 . S
C797 H790 0.950 . S
C797 C794 1.387 . S
C798 C799 1.387 . S
C798 H802 0.950 . S
C798 C807 1.390 . S
C799 C798 1.387 . S
C799 C801 1.387 . S
H800 C807 0.950 . S
C801 C799 1.387 . S
C801 C803 1.390 . S
C801 H805 0.950 . S
H802 C798 0.950 . S
C803 C801 1.390 . S
C803 C804 1.387 . S
C803 H806 0.950 . S
C804 C803 1.387 . S
C804 C807 1.387 . S
H805 C801 0.950 . S
H806 C803 0.950 . S
C807 C798 1.390 . S
C807 H800 0.950 . S
C807 C804 1.387 . S
C808 C809 1.387 . S
C808 H812 0.950 . S
C808 C817 1.390 . S
C809 C808 1.387 . S
C809 C811 1.387 . S
H810 C817 0.950 . S
C811 C809 1.387 . S
C811 C813 1.390 . S
C811 H815 0.950 . S
H812 C808 0.950 . S
C813 C811 1.390 . S
C813 C814 1.387 . S
C813 H816 0.950 . S
C814 C813 1.387 . S
C814 C817 1.387 . S
H815 C811 0.950 . S
H816 C813 0.950 . S
C817 C808 1.390 . S
C817 H810 0.950 . S
C817 C814 1.387 . S
C818 C819 1.387 . S
C818 H822 0.950 . S
C818 C827 1.390 . S
C819 C818 1.387 . S
C819 C821 1.387 . S
H820 C827 0.950 . S
C821 C819 1.387 . S
C821 C823 1.390 . S
C821 H825 0.950 . S
H822 C818 0.950 . S
C823 C821 1.390 . S
C823 C824 1.387 . S
C823 H826 0.950 . S
C824 C823 1.387 . S
C824 C827 1.387 . S
H825 C821 0.950 . S
H826 C823 0.950 . S
C827 C818 1.390 . S
C827 H820 0.950 . S
C827 C824 1.387 . S
C828 C829 1.387 . S
C828 H832 0.950 . S
C828 C837 1.390 . S
C829 C828 1.387 . S
C829 C831 1.387 . S
H830 C837 0.950 . S
C831 C829 1.387 . S
C831 C833 1.390 . S
C831 H835 0.950 . S
H832 C828 0.950 . S
C833 C831 1.390 . S
C833 C834 1.387 . S
C833 H836 0.950 . S
C834 C833 1.387 . S
C834 C837 1.387 . S
H835 C831 0.950 . S
H836 C833 0.950 . S
C837 C828 1.390 . S
C837 H830 0.950 . S
C837 C834 1.387 . S
C838 C839 1.387 . S
C838 H842 0.950 . S
C838 C847 1.390 . S
C839 C838 1.387 . S
C839 C841 1.387 . S
H840 C847 0.950 . S
C841 C839 1.387 . S
C841 C843 1.390 . S
C841 H845 0.950 . S
H842 C838 0.950 . S
C843 C841 1.390 . S
C843 C844 1.387 . S
C843 H846 0.950 . S
C844 C843 1.387 . S
C844 C847 1.387 . S
H845 C841 0.950 . S
H846 C843 0.950 . S
C847 C838 1.390 . S
C847 H840 0.950 . S
C847 C844 1.387 . S
C848 C849 1.387 . S
C848 H852 0.950 . S
C848 C857 1.390 . S
C849 C848 1.387 . S
C849 C851 1.387 . S
H850 C857 0.950 . S
C851 C849 1.387 . S
C851 C853 1.390 . S
C851 H855 0.950 . S
H852 C848 0.950 . S
C853 C851 1.390 . S
C853 C854 1.387 . S
C853 H856 0.950 . S
C854 C853 1.387 . S
C854 C857 1.387 . S
H855 C851 0.950 . S
H856 C853 0.950 . S
C857 C848 1.390 . S
C857 H850 0.950 . S
C857 C854 1.387 . S
C858 C859 1.387 . S
C858 H862 0.950 . S
C858 C867 1.390 . S
C859 C858 1.387 . S
C859 C861 1.387 . S
H860 C867 0.950 . S
C861 C859 1.387 . S
C861 C863 1.390 . S
C861 H865 0.950 . S
H862 C858 0.950 . S
C863 C861 1.390 . S
C863 C864 1.387 . S
C863 H866 0.950 . S
C864 C863 1.387 . S
C864 C867 1.387 . S
H865 C861 0.950 . S
H866 C863 0.950 . S
C867 C858 1.390 . S
C867 H860 0.950 . S
C867 C864 1.387 . S
C868 C869 1.387 . S
C868 H872 0.950 . S
C868 C877 1.390 . S
C869 C868 1.387 . S
C869 C871 1.387 . S
H870 C877 0.950 . S
C871 C869 1.387 . S
C871 C873 1.390 . S
C871 H875 0.950 . S
H872 C868 0.950 . S
C873 C871 1.390 . S
C873 C874 1.387 . S
C873 H876 0.950 . S
C874 C873 1.387 . S
C874 C877 1.387 . S
H875 C871 0.950 . S
H876 C873 0.950 . S
C877 C868 1.390 . S
C877 H870 0.950 . S
C877 C874 1.387 . S
C878 C879 1.387 . S
C878 H882 0.950 . S
C878 C887 1.390 . S
C879 C878 1.387 . S
C879 C881 1.387 . S
H880 C887 0.950 . S
C881 C879 1.387 . S
C881 C883 1.390 . S
C881 H885 0.950 . S
H882 C878 0.950 . S
C883 C881 1.390 . S
C883 C884 1.387 . S
C883 H886 0.950 . S
C884 C883 1.387 . S
C884 C887 1.387 . S
H885 C881 0.950 . S
H886 C883 0.950 . S
C887 C878 1.390 . S
C887 H880 0.950 . S
C887 C884 1.387 . S
C888 C889 1.387 . S
C888 H892 0.950 . S
C888 C897 1.390 . S
C889 C888 1.387 . S
C889 C891 1.387 . S
H890 C897 0.950 . S
C891 C889 1.387 . S
C891 C893 1.390 . S
C891 H895 0.950 . S
H892 C888 0.950 . S
C893 C891 1.390 . S
C893 C894 1.387 . S
C893 H896 0.950 . S
C894 C893 1.387 . S
C894 C897 1.387 . S
H895 C891 0.950 . S
H896 C893 0.950 . S
C897 C888 1.390 . S
C897 H890 0.950 . S
C897 C894 1.387 . S
C898 C899 1.387 . S
C898 H902 0.950 . S
C898 C907 1.390 . S
C899 C898 1.387 . S
C899 C901 1.387 . S
H900 C907 0.950 . S
C901 C899 1.387 . S
C901 C903 1.390 . S
C901 H905 0.950 . S
H902 C898 0.950 . S
C903 C901 1.390 . S
C903 C904 1.387 . S
C903 H906 0.950 . S
C904 C903 1.387 . S
C904 C907 1.387 . S
H905 C901 0.950 . S
H906 C903 0.950 . S
C907 C898 1.390 . S
C907 H900 0.950 . S
C907 C904 1.387 . S
C908 C909 1.387 . S
C908 H912 0.950 . S
C908 C917 1.390 . S
C909 C908 1.387 . S
C909 C911 1.387 . S
H910 C917 0.950 . S
C911 C909 1.387 . S
C911 C913 1.390 . S
C911 H915 0.950 . S
H912 C908 0.950 . S
C913 C911 1.390 . S
C913 C914 1.387 . S
C913 H916 0.950 . S
C914 C913 1.387 . S
C914 C917 1.387 . S
H915 C911 0.950 . S
H916 C913 0.950 . S
C917 C908 1.390 . S
C917 H910 0.950 . S
C917 C914 1.387 . S
C444 C267 0.879 . S
C439 N6 0.917 . S
C454 C268 2.100 . S
C449 C57 2.243 . S
C464 C262 1.489 . S
C459 C61 1.522 . S
C469 N96 0.715 . S
C474 C261 0.693 . S
C479 C136 2.244 . S
C484 C264 2.101 . S
C494 C266 1.489 . S
C489 C160 1.522 . S
C499 N194 0.717 . S
C504 C265 0.696 . S
C509 N224 0.917 . S
C514 C263 0.887 . S
C524 C298 2.091 . S
C519 C10 2.039 . S
C529 N36 0.961 . S
C534 C329 1.043 . S
C544 C297 0.743 . S
C539 N74 0.741 . S
C554 C332 1.376 . S
C549 C100 1.413 . S
C559 C121 1.587 . S
C564 C295 1.576 . S
C574 C327 1.953 . S
C569 C177 1.939 . S
C579 C196 2.194 . S
C584 C300 2.162 . S
C589 C226 1.993 . S
C594 C334 1.959 . S
C599 C27 1.993 . S
C604 C330 1.958 . S
C609 N134 0.963 . S
C614 C333 1.038 . S
C624 C301 0.744 . S
C619 N156 0.751 . S
C634 C328 1.375 . S
C629 C181 1.415 . S
C639 C211 2.041 . S
C644 C294 2.091 . S
C649 C76 1.939 . S
C654 C331 1.952 . S
C664 C296 2.163 . S
C659 C117 2.191 . S
C669 C40 1.587 . S
C674 C299 1.575 . S
C679 N216 0.929 . S
C684 C366 0.908 . S
C689 C147 1.960 . S
C694 C367 1.829 . S
C704 C361 1.377 . S
C699 C151 1.419 . S
C714 C360 0.705 . S
C709 N186 0.714 . S
C719 C46 1.959 . S
C724 C363 1.826 . S
C734 C365 1.380 . S
C729 C70 1.418 . S
C739 N104 0.712 . S
C744 C364 0.703 . S
C749 N14 0.926 . S
C754 C362 0.904 . S
C759 C220 2.122 . S
C764 C400 2.055 . S
C774 C432 1.165 . S
C769 N126 0.982 . S
C779 N164 0.600 . S
C784 C393 0.570 . S
C789 C190 1.636 . S
C794 C427 1.654 . S
C804 C398 1.443 . S
C799 C31 1.447 . S
C809 C87 2.130 . S
C814 C429 2.088 . S
C824 C395 2.257 . S
C819 C106 2.338 . S
C834 C430 2.025 . S
C829 C16 1.931 . S
C844 C426 2.024 . S
C839 C237 1.931 . S
C849 N44 0.981 . S
C854 C428 1.165 . S
C859 N66 0.598 . S
C864 C397 0.568 . S
C874 C431 1.654 . S
C869 C91 1.636 . S
C879 C1 2.122 . S
C884 C396 2.054 . S
C889 C166 2.129 . S
C894 C433 2.088 . S
C904 C399 2.255 . S
C899 C207 2.338 . S
C914 C394 1.442 . S
C909 C130 1.447 . S
