# Generated by pormake.
# Topology csq, (4,8)-cn, num edge types: 1
# Building blocks:
#     Node 0, Type 0, BuildingBlock: NAWXER_clean_sbu_0, # of connection points: 4
#     Node 1, Type 0, BuildingBlock: NAWXER_clean_sbu_0, # of connection points: 4
#     Node 2, Type 0, BuildingBlock: NAWXER_clean_sbu_0, # of connection points: 4
#     Node 3, Type 0, BuildingBlock: NAWXER_clean_sbu_0, # of connection points: 4
#     Node 4, Type 0, BuildingBlock: NAWXER_clean_sbu_0, # of connection points: 4
#     Node 5, Type 0, BuildingBlock: NAWXER_clean_sbu_0, # of connection points: 4
#     Node 6, Type 1, BuildingBlock: TAGTUT_clean_sbu_3, # of connection points: 8
#     Node 7, Type 1, BuildingBlock: TAGTUT_clean_sbu_3, # of connection points: 8
#     Node 8, Type 1, BuildingBlock: TAGTUT_clean_sbu_3, # of connection points: 8
#     Edge 9, Type (0, 1), BuildingBlock: AJUNOK_clean_linker_0, # of connection points: 2
#     Edge 10, Type (0, 1), BuildingBlock: AJUNOK_clean_linker_0, # of connection points: 2
#     Edge 11, Type (0, 1), BuildingBlock: AJUNOK_clean_linker_0, # of connection points: 2
#     Edge 12, Type (0, 1), BuildingBlock: AJUNOK_clean_linker_0, # of connection points: 2
#     Edge 13, Type (0, 1), BuildingBlock: AJUNOK_clean_linker_0, # of connection points: 2
#     Edge 14, Type (0, 1), BuildingBlock: AJUNOK_clean_linker_0, # of connection points: 2
#     Edge 15, Type (0, 1), BuildingBlock: AJUNOK_clean_linker_0, # of connection points: 2
#     Edge 16, Type (0, 1), BuildingBlock: AJUNOK_clean_linker_0, # of connection points: 2
#     Edge 17, Type (0, 1), BuildingBlock: AJUNOK_clean_linker_0, # of connection points: 2
#     Edge 18, Type (0, 1), BuildingBlock: AJUNOK_clean_linker_0, # of connection points: 2
#     Edge 19, Type (0, 1), BuildingBlock: AJUNOK_clean_linker_0, # of connection points: 2
#     Edge 20, Type (0, 1), BuildingBlock: AJUNOK_clean_linker_0, # of connection points: 2
#     Edge 21, Type (0, 1), BuildingBlock: AJUNOK_clean_linker_0, # of connection points: 2
#     Edge 22, Type (0, 1), BuildingBlock: AJUNOK_clean_linker_0, # of connection points: 2
#     Edge 23, Type (0, 1), BuildingBlock: AJUNOK_clean_linker_0, # of connection points: 2
#     Edge 24, Type (0, 1), BuildingBlock: AJUNOK_clean_linker_0, # of connection points: 2
#     Edge 25, Type (0, 1), BuildingBlock: AJUNOK_clean_linker_0, # of connection points: 2
#     Edge 26, Type (0, 1), BuildingBlock: AJUNOK_clean_linker_0, # of connection points: 2
#     Edge 27, Type (0, 1), BuildingBlock: AJUNOK_clean_linker_0, # of connection points: 2
#     Edge 28, Type (0, 1), BuildingBlock: AJUNOK_clean_linker_0, # of connection points: 2
#     Edge 29, Type (0, 1), BuildingBlock: AJUNOK_clean_linker_0, # of connection points: 2
#     Edge 30, Type (0, 1), BuildingBlock: AJUNOK_clean_linker_0, # of connection points: 2
#     Edge 31, Type (0, 1), BuildingBlock: AJUNOK_clean_linker_0, # of connection points: 2
#     Edge 32, Type (0, 1), BuildingBlock: AJUNOK_clean_linker_0, # of connection points: 2
# Relax obj value: 0.043
# Max RMSD: 0.113
# Mean RMSD: 0.074
data_MOF--net-csq--node1-NAWXER_clean_sbu_0--node2-TAGTUT_clean_sbu_3--edge1-AJUNOK_clean_linker_0
_symmetry_space_group_name_H-M    P1
_symmetry_Int_Tables_number       1
_symmetry_cell_setting            triclinic
loop_
_symmetry_equiv_pos_as_xyz
'x, y, z'
_cell_length_a     37.712555
_cell_length_b     37.155388
_cell_length_c     14.511684
_cell_angle_alpha  92.597822
_cell_angle_beta   92.940695
_cell_angle_gamma 119.77225
loop_
_atom_site_label
_atom_site_type_symbol
_atom_site_fract_x
_atom_site_fract_y
_atom_site_fract_z
_atom_type_partial_charge
C0 C 0.31305 0.498 0.11257 0.0
C1 C 0.19951 0.48873 0.28115 0.0
O2 O 0.30533 0.52736 0.12751 0.0
Zn3 Zn 0.25413 0.49435 0.18601 0.0
O4 O 0.28655 0.46089 0.12914 0.0
Zn5 Zn 0.22973 0.42894 0.19148 0.0
O6 O 0.1887 0.39078 0.0966 0.0
O7 O 0.20869 0.45635 0.07505 0.0
O8 O 0.19821 0.45393 0.26437 0.0
O9 O 0.22735 0.52123 0.2491 0.0
O10 O 0.2786 0.47502 0.29921 0.0
O11 O 0.24717 0.40629 0.28887 0.0
C12 C 0.18574 0.41744 0.05026 0.0
C13 C 0.27445 0.44118 0.32872 0.0
C14 C 0.73237 0.17911 0.02035 0.0
C15 C 0.8414 0.28614 0.24499 0.0
O16 O 0.7651 0.17927 0.04845 0.0
Zn17 Zn 0.79122 0.23246 0.12522 0.0
O18 O 0.72828 0.21034 0.04385 0.0
Zn19 Zn 0.75791 0.26661 0.12999 0.0
O20 O 0.77223 0.30989 0.04387 0.0
O21 O 0.80689 0.2768 0.02762 0.0
O22 O 0.81169 0.29231 0.22276 0.0
O23 O 0.84275 0.25562 0.20496 0.0
O24 O 0.74753 0.21532 0.22252 0.0
O25 O 0.71488 0.25108 0.21447 0.0
C26 C 0.79854 0.30452 0.00306 0.0
C27 C 0.72011 0.22299 0.24943 0.0
C28 C 0.5551 0.80534 0.19549 0.0
C29 C 0.56093 0.7305 0.91465 0.0
O30 O 0.58704 0.80738 0.16507 0.0
Zn31 Zn 0.5602 0.76678 0.05824 0.0
O32 O 0.51997 0.77969 0.15396 0.0
Zn33 Zn 0.49443 0.73494 0.03817 0.0
O34 O 0.4628 0.68233 0.09482 0.0
O35 O 0.5297 0.70822 0.11713 0.0
O36 O 0.52453 0.72006 0.93475 0.0
O37 O 0.59154 0.75661 0.96914 0.0
O38 O 0.53556 0.79648 0.97515 0.0
O39 O 0.46808 0.75845 0.96339 0.0
C40 C 0.49311 0.67924 0.12688 0.0
C41 C 0.50059 0.79055 0.94348 0.0
C42 C 0.82499 0.51433 0.95022 0.0
C43 C 0.72901 0.52322 0.1611 0.0
O44 O 0.82796 0.54988 0.96523 0.0
Zn45 Zn 0.80211 0.57995 0.03768 0.0
O46 O 0.79614 0.4827 0.98321 0.0
Zn47 Zn 0.77337 0.51301 0.05375 0.0
O48 O 0.74338 0.52952 0.95238 0.0
O49 O 0.7773 0.59748 0.94332 0.0
O50 O 0.72907 0.48956 0.13871 0.0
O51 O 0.7551 0.55687 0.12875 0.0
O52 O 0.85026 0.61874 0.11815 0.0
O53 O 0.82475 0.55254 0.14665 0.0
C54 C 0.74635 0.56192 0.91818 0.0
C55 C 0.85163 0.59099 0.16418 0.0
C56 C 0.19228 0.7583 0.27004 0.0
C57 C 0.24873 0.84696 0.01323 0.0
O58 O 0.18332 0.78514 0.24258 0.0
Zn59 Zn 0.21861 0.80316 0.14129 0.0
O60 O 0.21815 0.75225 0.22751 0.0
Zn61 Zn 0.2563 0.77581 0.11408 0.0
O62 O 0.31177 0.8013 0.17624 0.0
O63 O 0.27687 0.83199 0.21639 0.0
O64 O 0.26237 0.82202 0.02559 0.0
O65 O 0.22309 0.84754 0.06607 0.0
O66 O 0.19047 0.74861 0.04774 0.0
O67 O 0.23502 0.72734 0.02618 0.0
C68 C 0.30941 0.82932 0.22479 0.0
C69 C 0.1996 0.72294 0.00903 0.0
C70 C 0.43039 0.25973 0.37233 0.0
C71 C 0.45865 0.18346 0.13361 0.0
O72 O 0.46833 0.27409 0.36052 0.0
Zn73 Zn 0.50656 0.26363 0.27585 0.0
O74 O 0.40291 0.22967 0.31843 0.0
Zn75 Zn 0.44076 0.22133 0.24583 0.0
O76 O 0.47006 0.20263 0.34673 0.0
O77 O 0.53624 0.24842 0.36729 0.0
O78 O 0.4229 0.17593 0.15087 0.0
O79 O 0.49043 0.21481 0.17475 0.0
O80 O 0.53108 0.31289 0.20173 0.0
O81 O 0.46499 0.27295 0.16414 0.0
C82 C 0.50556 0.21432 0.38673 0.0
C83 C 0.49898 0.30533 0.15156 0.0
C84 C 0.07067 0.47767 0.50537 0.0
C85 C 0.05586 0.41057 0.82577 0.0
C86 C 0.93746 0.40909 0.80981 0.0
Mg87 Mg 0.02847 0.53278 0.43106 0.0
Mg88 Mg 0.011 0.58748 0.59089 0.0
O89 O 1.00075 0.53488 0.54307 0.0
Mg90 Mg 0.01718 0.50481 0.62781 0.0
O91 O 0.03375 0.47278 0.70785 0.0
Mg92 Mg 1.00048 0.41621 0.64102 0.0
Mg93 Mg 0.02707 0.47523 0.83434 0.0
C94 C 0.96056 0.53212 0.7472 0.0
O95 O 0.06559 0.56484 0.71896 0.0
O96 O 0.98878 0.55908 0.35998 0.0
O97 O 0.06056 0.54155 0.86144 0.0
O98 O 0.08012 0.60076 0.45836 0.0
O99 O 0.97766 0.59352 0.47749 0.0
O100 O 0.07332 0.6363 0.57714 0.0
O101 O 0.97001 0.44313 0.54599 0.0
O102 O 0.97775 0.46442 0.40311 0.0
C103 C 0.96194 0.43538 0.45797 0.0
C104 C 0.97317 0.58071 0.39216 0.0
O105 O 0.96858 0.5035 0.72189 0.0
O106 O 0.03849 0.39747 0.74292 0.0
O107 O 0.9782 0.56825 0.71554 0.0
O108 O 0.94642 0.39407 0.73906 0.0
O109 O 0.05447 0.43949 0.87374 0.0
O110 O 0.9639 0.44322 0.85362 0.0
O111 O 0.06323 0.50738 0.52476 0.0
O112 O 0.05211 0.44307 0.5434 0.0
C113 C 0.09316 0.63427 0.51025 0.0
C114 C 0.07461 0.57101 0.80727 0.0
C115 C 0.50646 0.07271 0.52493 0.0
C116 C 0.62046 0.07136 0.41318 0.0
C117 C 0.5616 0.9347 0.44646 0.0
Mg118 Mg 0.4393 0.02185 0.66793 0.0
Mg119 Mg 0.46519 0.9877 0.84866 0.0
O120 O 0.46148 0.98719 0.72042 0.0
Mg121 Mg 0.50995 0.00211 0.64698 0.0
O122 O 0.55407 0.01748 0.56194 0.0
Mg123 Mg 0.52328 1.00071 0.43668 0.0
Mg124 Mg 0.60206 0.01494 0.57535 0.0
C125 C 0.50331 0.93169 0.78825 0.0
O126 O 0.56328 0.04295 0.76454 0.0
O127 O 0.37935 0.98139 0.7417 0.0
O128 O 0.61503 0.033 0.72164 0.0
O129 O 0.46266 0.06763 0.79542 0.0
O130 O 0.40096 0.9601 0.86453 0.0
O131 O 0.49212 0.05042 0.90857 0.0
O132 O 0.46586 0.96191 0.51864 0.0
O133 O 0.41518 0.97461 0.54319 0.0
C134 C 0.42991 0.9558 0.49672 0.0
C135 C 0.3727 0.96165 0.81527 0.0
O136 O 0.51116 0.94525 0.70704 0.0
O137 O 0.58367 0.04739 0.37693 0.0
O138 O 0.49091 0.94724 0.85123 0.0
O139 O 0.5367 0.94634 0.41606 0.0
O140 O 0.63391 0.06419 0.48873 0.0
O141 O 0.58963 0.95596 0.51132 0.0
O142 O 0.50212 0.05752 0.60351 0.0
O143 O 0.51366 0.05599 0.45542 0.0
C144 C 0.48119 0.07509 0.87593 0.0
C145 C 0.59936 0.04701 0.77977 0.0
C146 C 0.54809 0.59469 0.72242 0.0
C147 C 0.44666 0.49791 0.9528 0.0
C148 C 0.48986 0.41337 0.87989 0.0
Mg149 Mg 0.57006 0.56945 0.52437 0.0
Mg150 Mg 0.50647 0.48265 0.40007 0.0
O151 O 0.53378 0.50776 0.51661 0.0
Mg152 Mg 0.506 0.49964 0.63349 0.0
O153 O 0.48156 0.49441 0.75361 0.0
Mg154 Mg 0.53082 0.51646 0.84484 0.0
Mg155 Mg 0.43705 0.44252 0.77556 0.0
C156 C 0.45995 0.40697 0.52601 0.0
O157 O 0.44373 0.48479 0.56412 0.0
O158 O 0.60412 0.5561 0.4074 0.0
O159 O 0.3996 0.43335 0.64698 0.0
O160 O 0.52933 0.57923 0.41421 0.0
O161 O 0.56099 0.49203 0.33871 0.0
O162 O 0.48401 0.5196 0.33493 0.0
O163 O 0.56547 0.51225 0.71816 0.0
O164 O 0.60955 0.56101 0.63289 0.0
C165 C 0.60217 0.53937 0.70263 0.0
C166 C 0.59653 0.52476 0.35097 0.0
O167 O 0.47867 0.42852 0.60301 0.0
O168 O 0.48602 0.51894 0.95101 0.0
O169 O 0.46432 0.42289 0.44768 0.0
O170 O 0.51652 0.45204 0.89148 0.0
O171 O 0.42318 0.46767 0.89336 0.0
O172 O 0.45683 0.40066 0.82761 0.0
O173 O 0.53253 0.57116 0.64697 0.0
O174 O 0.54741 0.57977 0.8003 0.0
C175 C 0.49967 0.55873 0.35207 0.0
C176 C 0.4073 0.45598 0.57797 0.0
C177 C 0.14947 0.45761 0.39857 0.0
C178 C 0.16856 0.48953 0.33934 0.0
C179 C 0.11834 0.45466 0.45106 0.0
C180 C 0.10437 0.48345 0.44728 0.0
H181 H 0.15858 0.4343 0.4047 0.0
H182 H 0.10523 0.42925 0.49536 0.0
S183 S 0.14349 0.57276 0.3011 0.0
N184 N 0.1712 0.55069 0.27869 0.0
N185 N 0.11214 0.54515 0.37806 0.0
C186 C 0.12337 0.51598 0.38888 0.0
C187 C 0.15555 0.51905 0.33493 0.0
C188 C 0.653 0.16105 0.25955 0.0
C189 C 0.6904 0.19194 0.30492 0.0
C190 C 0.63088 0.12194 0.29419 0.0
C191 C 0.64561 0.11223 0.37517 0.0
H192 H 0.6423 0.16608 0.19325 0.0
H193 H 0.60252 0.09891 0.25584 0.0
S194 S 0.74134 0.18458 0.52215 0.0
N195 N 0.74055 0.21169 0.43589 0.0
N196 N 0.69926 0.13874 0.50293 0.0
C197 C 0.68237 0.14387 0.42311 0.0
C198 C 0.70461 0.18358 0.38763 0.0
C199 C 0.46506 0.63025 0.25233 0.0
C200 C 0.48752 0.64245 0.17387 0.0
C201 C 0.46703 0.60111 0.30836 0.0
C202 C 0.4905 0.58258 0.28568 0.0
H203 H 0.44815 0.64526 0.27383 0.0
H204 H 0.45152 0.59431 0.37146 0.0
S205 S 0.55165 0.6013 0.08318 0.0
N206 N 0.53181 0.63197 0.07384 0.0
N207 N 0.53431 0.57648 0.17679 0.0
C208 C 0.51081 0.59263 0.20434 0.0
C209 C 0.50958 0.62275 0.14888 0.0
C210 C 0.87772 0.58292 0.31512 0.0
C211 C 0.88637 0.60009 0.22951 0.0
C212 C 0.90649 0.57727 0.36689 0.0
C213 C 0.9445 0.58753 0.33367 0.0
H214 H 0.84761 0.57162 0.33974 0.0
H215 H 0.89828 0.56318 0.43196 0.0
S216 S 0.98323 0.63707 0.11747 0.0
N217 N 0.9366 0.63062 0.11698 0.0
N218 N 0.99073 0.61875 0.21381 0.0
C219 C 0.95433 0.60636 0.25009 0.0
C220 C 0.92523 0.61312 0.19825 0.0
C221 C 0.33037 0.87134 0.37437 0.0
C222 C 0.34217 0.85819 0.29528 0.0
C223 C 0.35925 0.90234 0.43866 0.0
C224 C 0.40143 0.92182 0.42709 0.0
H225 H 0.29826 0.85796 0.38628 0.0
H226 H 0.34812 0.9112 0.498 0.0
S227 S 0.44863 0.89797 0.23266 0.0
N228 N 0.39887 0.86591 0.20935 0.0
N229 N 0.45381 0.92483 0.33136 0.0
C230 C 0.41401 0.90807 0.34989 0.0
C231 C 0.38422 0.87608 0.28372 0.0
C232 C 0.44807 0.30217 0.52058 0.0
C233 C 0.42074 0.28337 0.44054 0.0
C234 C 0.45616 0.34075 0.5608 0.0
C235 C 0.43715 0.36127 0.52127 0.0
H236 H 0.46736 0.28988 0.54434 0.0
H237 H 0.48142 0.35692 0.6138 0.0
S238 S 0.353 0.31822 0.3335 0.0
N239 N 0.36693 0.28262 0.33975 0.0
N240 N 0.382 0.35523 0.41552 0.0
C241 C 0.40423 0.33904 0.45322 0.0
C242 C 0.39593 0.29975 0.41256 0.0
C243 C 0.53595 0.85539 0.85991 0.0
C244 C 0.49922 0.82279 0.88895 0.0
C245 C 0.53702 0.88964 0.82011 0.0
C246 C 0.50138 0.89236 0.80824 0.0
H247 H 0.56454 0.85535 0.87126 0.0
H248 H 0.56614 0.9151 0.80364 0.0
S249 S 0.3968 0.81409 0.86217 0.0
N250 N 0.42575 0.79435 0.89465 0.0
N251 N 0.42796 0.85874 0.82054 0.0
C252 C 0.46415 0.85906 0.83148 0.0
C253 C 0.46295 0.82419 0.8715 0.0
C254 C 0.67382 0.51836 0.85136 0.0
C255 C 0.71045 0.55734 0.86112 0.0
C256 C 0.6381 0.51308 0.80401 0.0
C257 C 0.63778 0.54643 0.76369 0.0
H258 H 0.67244 0.49151 0.88103 0.0
H259 H 0.611 0.48243 0.79654 0.0
S260 S 0.724 0.6554 0.77432 0.0
N261 N 0.74312 0.63028 0.83014 0.0
N262 N 0.676 0.62032 0.74054 0.0
C263 C 0.67372 0.58577 0.77445 0.0
C264 C 0.71006 0.59122 0.82311 0.0
C265 C 0.17309 0.67362 0.8655 0.0
C266 C 0.16699 0.686 0.95354 0.0
C267 C 0.14172 0.63776 0.81418 0.0
C268 C 0.10391 0.61292 0.85078 0.0
H269 H 0.20223 0.69156 0.83658 0.0
H270 H 0.1478 0.62831 0.74788 0.0
S271 S 0.07338 0.63231 0.07837 0.0
N272 N 0.12045 0.67135 0.07407 0.0
N273 N 0.06208 0.60376 0.97928 0.0
C274 C 0.09744 0.62566 0.93791 0.0
C275 C 0.12888 0.66226 0.98897 0.0
C276 C 0.4422 0.14189 0.98295 0.0
C277 C 0.46499 0.15618 0.06886 0.0
C278 C 0.44984 0.11796 0.91865 0.0
C279 C 0.47994 0.10669 0.93893 0.0
H280 H 0.41865 0.1496 0.96494 0.0
H281 H 0.43075 0.10693 0.85385 0.0
S282 S 0.54791 0.13698 0.15596 0.0
N283 N 0.5193 0.15855 0.17165 0.0
N284 N 0.53295 0.11243 0.05139 0.0
C285 C 0.5032 0.12126 0.02474 0.0
C286 C 0.49586 0.14625 0.08961 0.0
C287 C 0.36653 0.4774 0.11207 0.0
C288 C 0.35379 0.50573 0.08699 0.0
C289 C 0.40146 0.47907 0.07903 0.0
C290 C 0.42525 0.50924 0.01997 0.0
H291 H 0.34821 0.45224 0.15398 0.0
H292 H 0.40773 0.45426 0.09296 0.0
S293 S 0.40974 0.5949 0.94583 0.0
N294 N 0.37134 0.56855 0.00995 0.0
N295 N 0.43695 0.57115 0.94643 0.0
C296 C 0.41548 0.54031 0.00188 0.0
C297 C 0.37974 0.53872 0.03579 0.0
C298 C 0.83557 0.31775 0.861 0.0
C299 C 0.8252 0.33362 0.93848 0.0
C300 C 0.87036 0.34311 0.81534 0.0
C301 C 0.89674 0.38506 0.84723 0.0
H302 H 0.81806 0.28482 0.83913 0.0
H303 H 0.878 0.32894 0.75864 0.0
S304 S 0.88058 0.44223 0.04304 0.0
N305 N 0.84143 0.39435 0.04002 0.0
N306 N 0.90764 0.44207 0.95731 0.0
C307 C 0.88505 0.40187 0.92134 0.0
C308 C 0.84901 0.37615 0.96607 0.0
C309 C 0.89858 0.54928 0.9217 0.0
C310 C 0.85932 0.51363 0.90568 0.0
C311 C 0.93166 0.55377 0.87411 0.0
C312 C 0.92715 0.52271 0.80828 0.0
H313 H 0.90362 0.57477 0.96985 0.0
H314 H 0.96075 0.58249 0.88689 0.0
S315 S 0.83139 0.4225 0.74164 0.0
N316 N 0.81825 0.44582 0.8215 0.0
N317 N 0.88056 0.45429 0.73034 0.0
C318 C 0.88856 0.48598 0.79374 0.0
C319 C 0.85462 0.48138 0.84293 0.0
C320 C 0.28923 0.92052 0.97569 0.0
C321 C 0.26793 0.878 0.9453 0.0
C322 C 0.32069 0.94943 0.92596 0.0
C323 C 0.33092 0.93677 0.84346 0.0
H324 H 0.28482 0.93075 0.04307 0.0
H325 H 0.33957 0.98107 0.95652 0.0
S326 S 0.27972 0.83027 0.72767 0.0
N327 N 0.25585 0.82554 0.82257 0.0
N328 N 0.31419 0.88015 0.72821 0.0
C329 C 0.30679 0.89528 0.80746 0.0
C330 C 0.27537 0.86578 0.85867 0.0
C331 C 0.46228 0.32152 0.02494 0.0
C332 C 0.49928 0.33258 0.07793 0.0
C333 C 0.4601 0.3465 0.95762 0.0
C334 C 0.49474 0.38405 0.93986 0.0
H335 H 0.43421 0.2935 0.03648 0.0
H336 H 0.43046 0.33694 0.92185 0.0
S337 S 0.60023 0.42538 0.05054 0.0
N338 N 0.57231 0.3824 0.10174 0.0
N339 N 0.56822 0.42943 0.97557 0.0
C340 C 0.5324 0.39478 0.9893 0.0
C341 C 0.53465 0.36913 0.05802 0.0
C342 C 0.15832 0.42386 0.89566 0.0
C343 C 0.15141 0.40439 0.97886 0.0
C344 C 0.12558 0.42051 0.83807 0.0
C345 C 0.08509 0.39854 0.86324 0.0
H346 H 0.18937 0.44394 0.878 0.0
H347 H 0.13245 0.43865 0.77835 0.0
S348 S 0.05061 0.34019 0.0712 0.0
N349 N 0.10081 0.35966 0.07982 0.0
N350 N 0.0396 0.35525 0.97368 0.0
C351 C 0.07756 0.37687 0.94313 0.0
C352 C 0.11072 0.37931 0.0005 0.0
C353 C 0.66173 0.14484 0.93845 0.0
C354 C 0.69709 0.14266 0.96631 0.0
C355 C 0.6281 0.11195 0.88541 0.0
C356 C 0.62838 0.07543 0.85765 0.0
H357 H 0.66026 0.17273 0.95546 0.0
H358 H 0.60293 0.11631 0.86124 0.0
S359 S 0.71003 0.05081 0.92411 0.0
N360 N 0.72782 0.09864 0.9707 0.0
N361 N 0.66473 0.03683 0.87117 0.0
C362 C 0.66219 0.0716 0.89032 0.0
C363 C 0.6965 0.10516 0.94426 0.0
C364 C 0.5988 0.69969 0.83945 0.0
C365 C 0.56579 0.70722 0.83553 0.0
C366 C 0.59635 0.666 0.78623 0.0
C367 C 0.56092 0.63906 0.72785 0.0
H368 H 0.6244 0.71661 0.89132 0.0
H369 H 0.61979 0.6577 0.80028 0.0
S370 S 0.47232 0.65354 0.67169 0.0
N371 N 0.50144 0.69155 0.75172 0.0
N372 N 0.49691 0.62782 0.65299 0.0
C373 C 0.53117 0.65058 0.71168 0.0
C374 C 0.53348 0.68477 0.76591 0.0
C375 C 0.47454 0.15226 0.47976 0.0
C376 C 0.50982 0.18443 0.44474 0.0
C377 C 0.47434 0.11738 0.5141 0.0
C378 C 0.50937 0.1134 0.51419 0.0
H379 H 0.44605 0.1528 0.47565 0.0
H380 H 0.4459 0.09216 0.53438 0.0
S381 S 0.61111 0.19098 0.44397 0.0
N382 N 0.58197 0.21178 0.42319 0.0
N383 N 0.58141 0.14609 0.48657 0.0
C384 C 0.54563 0.14661 0.48638 0.0
C385 C 0.54598 0.18228 0.45229 0.0
C386 C 0.34398 0.48132 0.4115 0.0
C387 C 0.30614 0.44389 0.39773 0.0
C388 C 0.37655 0.48448 0.46837 0.0
C389 C 0.37256 0.45057 0.51524 0.0
H390 H 0.34908 0.50837 0.37621 0.0
H391 H 0.40499 0.51401 0.47628 0.0
S392 S 0.28009 0.3455 0.5031 0.0
N393 N 0.26666 0.37198 0.43514 0.0
N394 N 0.32783 0.3782 0.54438 0.0
C395 C 0.33482 0.413 0.50315 0.0
C396 C 0.30167 0.40958 0.44382 0.0
C397 C 0.86547 0.332 0.39226 0.0
C398 C 0.87504 0.31746 0.31111 0.0
C399 C 0.89492 0.36852 0.44487 0.0
C400 C 0.93454 0.39239 0.41625 0.0
H401 H 0.83439 0.31612 0.41266 0.0
H402 H 0.88574 0.37968 0.50419 0.0
S403 S 0.97597 0.36623 0.21342 0.0
N404 N 0.9279 0.32803 0.20929 0.0
N405 N 0.98283 0.39732 0.30593 0.0
C406 C 0.9451 0.37699 0.33818 0.0
C407 C 0.91545 0.33931 0.28613 0.0
C408 C 0.52161 0.8357 0.29104 0.0
C409 C 0.5575 0.83488 0.27169 0.0
C410 C 0.523 0.86675 0.35192 0.0
C411 C 0.56022 0.89813 0.39713 0.0
H412 H 0.49216 0.81321 0.25589 0.0
H413 H 0.49477 0.86689 0.36142 0.0
S414 S 0.66241 0.90775 0.3796 0.0
N415 N 0.63102 0.86643 0.30932 0.0
N416 N 0.63354 0.92471 0.42465 0.0
C417 C 0.59601 0.89626 0.38356 0.0
C418 C 0.59469 0.86473 0.32056 0.0
C419 C 0.66372 0.48736 0.2418 0.0
C420 C 0.69687 0.52422 0.21562 0.0
C421 C 0.63109 0.48771 0.28404 0.0
C422 C 0.63067 0.52506 0.30345 0.0
H423 H 0.66247 0.45783 0.22791 0.0
H424 H 0.60617 0.45847 0.30241 0.0
S425 S 0.71001 0.63038 0.25086 0.0
N426 N 0.72703 0.59955 0.21388 0.0
N427 N 0.66619 0.59973 0.2939 0.0
C428 C 0.66386 0.56216 0.27947 0.0
C429 C 0.69682 0.5619 0.23566 0.0
C430 C 0.18009 0.7003 0.36922 0.0
C431 C 0.17184 0.73216 0.3471 0.0
C432 C 0.15733 0.6711 0.43124 0.0
C433 C 0.12562 0.67265 0.47468 0.0
H434 H 0.2029 0.69637 0.33479 0.0
H435 H 0.16292 0.64556 0.44099 0.0
S436 S 0.095 0.75271 0.45098 0.0
N437 N 0.13228 0.76588 0.3819 0.0
N438 N 0.0896 0.71088 0.49838 0.0
C439 C 0.11926 0.70625 0.45949 0.0
C440 C 0.14224 0.73593 0.39556 0.0
loop_
_geom_bond_atom_site_label_1
_geom_bond_atom_site_label_2
_geom_bond_distance
_geom_bond_site_symmetry_2
_ccdc_geom_bond_type
C0 O2 1.247 . S
C0 O4 1.258 . S
C1 O8 1.247 . S
C1 O9 1.258 . S
O2 C0 1.247 . S
O2 Zn3 2.028 . S
Zn3 O2 2.028 . S
Zn3 O7 2.035 . S
Zn3 O9 2.035 . S
Zn3 O10 2.028 . S
O4 C0 1.258 . S
O4 Zn5 2.035 . S
Zn5 O4 2.035 . S
Zn5 O6 2.028 . S
Zn5 O8 2.028 . S
Zn5 O11 2.035 . S
O6 Zn5 2.028 . S
O6 C12 1.247 . S
O7 Zn3 2.035 . S
O7 C12 1.258 . S
O8 C1 1.247 . S
O8 Zn5 2.028 . S
O9 C1 1.258 . S
O9 Zn3 2.035 . S
O10 Zn3 2.028 . S
O10 C13 1.247 . S
O11 Zn5 2.035 . S
O11 C13 1.258 . S
C12 O6 1.247 . S
C12 O7 1.258 . S
C13 O10 1.247 . S
C13 O11 1.258 . S
C14 O16 1.247 1_556 S
C14 O18 1.258 1_556 S
C15 O22 1.247 . S
C15 O23 1.258 . S
O16 C14 1.247 1_554 S
O16 Zn17 2.028 . S
Zn17 O16 2.028 . S
Zn17 O21 2.035 . S
Zn17 O23 2.035 . S
Zn17 O24 2.028 . S
O18 C14 1.258 1_554 S
O18 Zn19 2.035 . S
Zn19 O18 2.035 . S
Zn19 O20 2.028 . S
Zn19 O22 2.028 . S
Zn19 O25 2.035 . S
O20 Zn19 2.028 . S
O20 C26 1.247 . S
O21 Zn17 2.035 . S
O21 C26 1.258 . S
O22 C15 1.247 . S
O22 Zn19 2.028 . S
O23 C15 1.258 . S
O23 Zn17 2.035 . S
O24 Zn17 2.028 . S
O24 C27 1.247 . S
O25 Zn19 2.035 . S
O25 C27 1.258 . S
C26 O20 1.247 . S
C26 O21 1.258 . S
C27 O24 1.247 . S
C27 O25 1.258 . S
C28 O30 1.247 . S
C28 O32 1.258 . S
C29 O36 1.247 . S
C29 O37 1.258 . S
O30 C28 1.247 . S
O30 Zn31 2.028 . S
Zn31 O30 2.028 . S
Zn31 O35 2.035 . S
Zn31 O37 2.035 1_554 S
Zn31 O38 2.028 1_554 S
O32 C28 1.258 . S
O32 Zn33 2.035 . S
Zn33 O32 2.035 . S
Zn33 O34 2.028 . S
Zn33 O36 2.028 1_554 S
Zn33 O39 2.035 1_554 S
O34 Zn33 2.028 . S
O34 C40 1.247 . S
O35 Zn31 2.035 . S
O35 C40 1.258 . S
O36 C29 1.247 . S
O36 Zn33 2.028 1_556 S
O37 C29 1.258 . S
O37 Zn31 2.035 1_556 S
O38 Zn31 2.028 1_556 S
O38 C41 1.247 . S
O39 Zn33 2.035 1_556 S
O39 C41 1.258 . S
C40 O34 1.247 . S
C40 O35 1.258 . S
C41 O38 1.247 . S
C41 O39 1.258 . S
C42 O44 1.247 . S
C42 O46 1.258 . S
C43 O50 1.247 . S
C43 O51 1.258 . S
O44 C42 1.247 . S
O44 Zn45 2.028 1_556 S
Zn45 O44 2.028 1_554 S
Zn45 O49 2.035 1_554 S
Zn45 O51 2.035 . S
Zn45 O52 2.028 . S
O46 C42 1.258 . S
O46 Zn47 2.035 1_556 S
Zn47 O46 2.035 1_554 S
Zn47 O48 2.028 1_554 S
Zn47 O50 2.028 . S
Zn47 O53 2.035 . S
O48 Zn47 2.028 1_556 S
O48 C54 1.247 . S
O49 Zn45 2.035 1_556 S
O49 C54 1.258 . S
O50 C43 1.247 . S
O50 Zn47 2.028 . S
O51 C43 1.258 . S
O51 Zn45 2.035 . S
O52 Zn45 2.028 . S
O52 C55 1.247 . S
O53 Zn47 2.035 . S
O53 C55 1.258 . S
C54 O48 1.247 . S
C54 O49 1.258 . S
C55 O52 1.247 . S
C55 O53 1.258 . S
C56 O58 1.247 . S
C56 O60 1.258 . S
C57 O64 1.247 . S
C57 O65 1.258 . S
O58 C56 1.247 . S
O58 Zn59 2.028 . S
Zn59 O58 2.028 . S
Zn59 O63 2.035 . S
Zn59 O65 2.035 . S
Zn59 O66 2.028 . S
O60 C56 1.258 . S
O60 Zn61 2.035 . S
Zn61 O60 2.035 . S
Zn61 O62 2.028 . S
Zn61 O64 2.028 . S
Zn61 O67 2.035 . S
O62 Zn61 2.028 . S
O62 C68 1.247 . S
O63 Zn59 2.035 . S
O63 C68 1.258 . S
O64 C57 1.247 . S
O64 Zn61 2.028 . S
O65 C57 1.258 . S
O65 Zn59 2.035 . S
O66 Zn59 2.028 . S
O66 C69 1.247 . S
O67 Zn61 2.035 . S
O67 C69 1.258 . S
C68 O62 1.247 . S
C68 O63 1.258 . S
C69 O66 1.247 . S
C69 O67 1.258 . S
C70 O72 1.247 . S
C70 O74 1.258 . S
C71 O78 1.247 . S
C71 O79 1.258 . S
O72 C70 1.247 . S
O72 Zn73 2.028 . S
Zn73 O72 2.028 . S
Zn73 O77 2.035 . S
Zn73 O79 2.035 . S
Zn73 O80 2.028 . S
O74 C70 1.258 . S
O74 Zn75 2.035 . S
Zn75 O74 2.035 . S
Zn75 O76 2.028 . S
Zn75 O78 2.028 . S
Zn75 O81 2.035 . S
O76 Zn75 2.028 . S
O76 C82 1.247 . S
O77 Zn73 2.035 . S
O77 C82 1.258 . S
O78 C71 1.247 . S
O78 Zn75 2.028 . S
O79 C71 1.258 . S
O79 Zn73 2.035 . S
O80 Zn73 2.028 . S
O80 C83 1.247 . S
O81 Zn75 2.035 . S
O81 C83 1.258 . S
C82 O76 1.247 . S
C82 O77 1.258 . S
C83 O80 1.247 . S
C83 O81 1.258 . S
C84 O111 1.312 . S
C84 O112 1.208 . S
C85 O106 1.331 . S
C85 O109 1.244 . S
C86 O108 1.264 . S
C86 O110 1.273 . S
Mg87 O89 1.936 1_455 S
Mg87 O96 2.081 1_455 S
Mg87 O98 2.023 . S
Mg87 O102 2.031 1_455 S
Mg87 O111 2.291 . S
Mg88 O89 1.963 . S
Mg88 O99 1.942 . S
Mg88 O100 1.955 1_655 S
Mg88 O107 1.986 . S
O89 Mg87 1.936 1_655 S
O89 Mg88 1.963 . S
O89 Mg90 1.915 1_655 S
Mg90 O89 1.915 1_455 S
Mg90 O91 1.915 . S
Mg90 O95 2.013 . S
Mg90 O101 2.114 1_455 S
Mg90 O105 2.013 1_455 S
Mg90 O111 2.114 . S
O91 Mg90 1.915 . S
O91 Mg92 1.936 . S
O91 Mg93 1.963 . S
Mg92 O91 1.936 . S
Mg92 O101 2.291 1_455 S
Mg92 O106 2.081 . S
Mg92 O108 2.023 1_455 S
Mg92 O112 2.031 . S
Mg93 O91 1.963 . S
Mg93 O97 1.986 . S
Mg93 O109 1.942 . S
Mg93 O110 1.955 1_455 S
C94 O105 1.191 . S
C94 O107 1.307 . S
O95 Mg90 2.013 . S
O95 C114 1.191 . S
O96 Mg87 2.081 1_655 S
O96 C104 1.331 . S
O97 Mg93 1.986 . S
O97 C114 1.307 . S
O98 Mg87 2.023 . S
O98 C113 1.264 . S
O99 Mg88 1.942 . S
O99 C104 1.244 . S
O100 Mg88 1.955 1_455 S
O100 C113 1.273 . S
O101 Mg90 2.114 1_655 S
O101 Mg92 2.291 1_655 S
O101 C103 1.312 . S
O102 Mg87 2.031 1_655 S
O102 C103 1.208 . S
C103 O101 1.312 . S
C103 O102 1.208 . S
C104 O96 1.331 . S
C104 O99 1.244 . S
O105 Mg90 2.013 1_655 S
O105 C94 1.191 . S
O106 C85 1.331 . S
O106 Mg92 2.081 . S
O107 Mg88 1.986 . S
O107 C94 1.307 . S
O108 C86 1.264 . S
O108 Mg92 2.023 1_655 S
O109 C85 1.244 . S
O109 Mg93 1.942 . S
O110 C86 1.273 . S
O110 Mg93 1.955 1_655 S
O111 C84 1.312 . S
O111 Mg87 2.291 . S
O111 Mg90 2.114 . S
O112 C84 1.208 . S
O112 Mg92 2.031 . S
C113 O98 1.264 . S
C113 O100 1.273 . S
C114 O95 1.191 . S
C114 O97 1.307 . S
C115 O142 1.312 . S
C115 O143 1.208 . S
C116 O137 1.331 . S
C116 O140 1.244 . S
C117 O139 1.264 . S
C117 O141 1.273 . S
Mg118 O120 1.936 1_545 S
Mg118 O127 2.081 1_545 S
Mg118 O129 2.023 . S
Mg118 O133 2.031 1_545 S
Mg118 O142 2.291 . S
Mg119 O120 1.963 . S
Mg119 O130 1.942 . S
Mg119 O131 1.955 1_565 S
Mg119 O138 1.986 . S
O120 Mg118 1.936 1_565 S
O120 Mg119 1.963 . S
O120 Mg121 1.915 1_565 S
Mg121 O120 1.915 1_545 S
Mg121 O122 1.915 . S
Mg121 O126 2.013 . S
Mg121 O132 2.114 1_545 S
Mg121 O136 2.013 1_545 S
Mg121 O142 2.114 . S
O122 Mg121 1.915 . S
O122 Mg123 1.936 . S
O122 Mg124 1.963 . S
Mg123 O122 1.936 . S
Mg123 O132 2.291 1_545 S
Mg123 O137 2.081 . S
Mg123 O139 2.023 1_545 S
Mg123 O143 2.031 . S
Mg124 O122 1.963 . S
Mg124 O128 1.986 . S
Mg124 O140 1.942 . S
Mg124 O141 1.955 1_545 S
C125 O136 1.191 . S
C125 O138 1.307 . S
O126 Mg121 2.013 . S
O126 C145 1.191 . S
O127 Mg118 2.081 1_565 S
O127 C135 1.331 . S
O128 Mg124 1.986 . S
O128 C145 1.307 . S
O129 Mg118 2.023 . S
O129 C144 1.264 . S
O130 Mg119 1.942 . S
O130 C135 1.244 . S
O131 Mg119 1.955 1_545 S
O131 C144 1.273 . S
O132 Mg121 2.114 1_565 S
O132 Mg123 2.291 1_565 S
O132 C134 1.312 . S
O133 Mg118 2.031 1_565 S
O133 C134 1.208 . S
C134 O132 1.312 . S
C134 O133 1.208 . S
C135 O127 1.331 . S
C135 O130 1.244 . S
O136 Mg121 2.013 1_565 S
O136 C125 1.191 . S
O137 C116 1.331 . S
O137 Mg123 2.081 . S
O138 Mg119 1.986 . S
O138 C125 1.307 . S
O139 C117 1.264 . S
O139 Mg123 2.023 1_565 S
O140 C116 1.244 . S
O140 Mg124 1.942 . S
O141 C117 1.273 . S
O141 Mg124 1.955 1_565 S
O142 C115 1.312 . S
O142 Mg118 2.291 . S
O142 Mg121 2.114 . S
O143 C115 1.208 . S
O143 Mg123 2.031 . S
C144 O129 1.264 . S
C144 O131 1.273 . S
C145 O126 1.191 . S
C145 O128 1.307 . S
C146 O173 1.312 . S
C146 O174 1.208 . S
C147 O168 1.331 . S
C147 O171 1.244 . S
C148 O170 1.264 . S
C148 O172 1.273 . S
Mg149 O151 1.936 . S
Mg149 O158 2.081 . S
Mg149 O160 2.023 . S
Mg149 O164 2.031 . S
Mg149 O173 2.291 . S
Mg150 O151 1.963 . S
Mg150 O161 1.942 . S
Mg150 O162 1.955 . S
Mg150 O169 1.986 . S
O151 Mg149 1.936 . S
O151 Mg150 1.963 . S
O151 Mg152 1.915 . S
Mg152 O151 1.915 . S
Mg152 O153 1.915 . S
Mg152 O157 2.013 . S
Mg152 O163 2.114 . S
Mg152 O167 2.013 . S
Mg152 O173 2.114 . S
O153 Mg152 1.915 . S
O153 Mg154 1.936 . S
O153 Mg155 1.963 . S
Mg154 O153 1.936 . S
Mg154 O163 2.291 . S
Mg154 O168 2.081 . S
Mg154 O170 2.023 . S
Mg154 O174 2.031 . S
Mg155 O153 1.963 . S
Mg155 O159 1.986 . S
Mg155 O171 1.942 . S
Mg155 O172 1.955 . S
C156 O167 1.191 . S
C156 O169 1.307 . S
O157 Mg152 2.013 . S
O157 C176 1.191 . S
O158 Mg149 2.081 . S
O158 C166 1.331 . S
O159 Mg155 1.986 . S
O159 C176 1.307 . S
O160 Mg149 2.023 . S
O160 C175 1.264 . S
O161 Mg150 1.942 . S
O161 C166 1.244 . S
O162 Mg150 1.955 . S
O162 C175 1.273 . S
O163 Mg152 2.114 . S
O163 Mg154 2.291 . S
O163 C165 1.312 . S
O164 Mg149 2.031 . S
O164 C165 1.208 . S
C165 O163 1.312 . S
C165 O164 1.208 . S
C166 O158 1.331 . S
C166 O161 1.244 . S
O167 Mg152 2.013 . S
O167 C156 1.191 . S
O168 C147 1.331 . S
O168 Mg154 2.081 . S
O169 Mg150 1.986 . S
O169 C156 1.307 . S
O170 C148 1.264 . S
O170 Mg154 2.023 . S
O171 C147 1.244 . S
O171 Mg155 1.942 . S
O172 C148 1.273 . S
O172 Mg155 1.955 . S
O173 C146 1.312 . S
O173 Mg149 2.291 . S
O173 Mg152 2.114 . S
O174 C146 1.208 . S
O174 Mg154 2.031 . S
C175 O160 1.264 . S
C175 O162 1.273 . S
C176 O157 1.191 . S
C176 O159 1.307 . S
C177 C178 1.369 . S
C177 C179 1.419 . S
C177 H181 0.930 . S
C178 C177 1.369 . S
C178 C187 1.429 . S
C179 C177 1.419 . S
C179 C180 1.363 . S
C179 H182 0.929 . S
C180 C179 1.363 . S
C180 C186 1.428 . S
H181 C177 0.930 . S
H182 C179 0.929 . S
S183 N184 1.613 . S
S183 N185 1.610 . S
N184 S183 1.613 . S
N184 C187 1.350 . S
N185 S183 1.610 . S
N185 C186 1.351 . S
C186 C180 1.428 . S
C186 N185 1.351 . S
C186 C187 1.434 . S
C187 C178 1.429 . S
C187 N184 1.350 . S
C187 C186 1.434 . S
C188 C189 1.369 . S
C188 C190 1.419 . S
C188 H192 0.930 . S
C189 C188 1.369 . S
C189 C198 1.429 . S
C190 C188 1.419 . S
C190 C191 1.363 . S
C190 H193 0.929 . S
C191 C190 1.363 . S
C191 C197 1.428 . S
H192 C188 0.930 . S
H193 C190 0.929 . S
S194 N195 1.613 . S
S194 N196 1.610 . S
N195 S194 1.613 . S
N195 C198 1.350 . S
N196 S194 1.610 . S
N196 C197 1.351 . S
C197 C191 1.428 . S
C197 N196 1.351 . S
C197 C198 1.434 . S
C198 C189 1.429 . S
C198 N195 1.350 . S
C198 C197 1.434 . S
C199 C200 1.369 . S
C199 C201 1.419 . S
C199 H203 0.930 . S
C200 C199 1.369 . S
C200 C209 1.429 . S
C201 C199 1.419 . S
C201 C202 1.363 . S
C201 H204 0.929 . S
C202 C201 1.363 . S
C202 C208 1.428 . S
H203 C199 0.930 . S
H204 C201 0.929 . S
S205 N206 1.613 . S
S205 N207 1.610 . S
N206 S205 1.613 . S
N206 C209 1.350 . S
N207 S205 1.610 . S
N207 C208 1.351 . S
C208 C202 1.428 . S
C208 N207 1.351 . S
C208 C209 1.434 . S
C209 C200 1.429 . S
C209 N206 1.350 . S
C209 C208 1.434 . S
C210 C211 1.369 . S
C210 C212 1.419 . S
C210 H214 0.930 . S
C211 C210 1.369 . S
C211 C220 1.429 . S
C212 C210 1.419 . S
C212 C213 1.363 . S
C212 H215 0.929 . S
C213 C212 1.363 . S
C213 C219 1.428 . S
H214 C210 0.930 . S
H215 C212 0.929 . S
S216 N217 1.613 . S
S216 N218 1.610 . S
N217 S216 1.613 . S
N217 C220 1.350 . S
N218 S216 1.610 . S
N218 C219 1.351 . S
C219 C213 1.428 . S
C219 N218 1.351 . S
C219 C220 1.434 . S
C220 C211 1.429 . S
C220 N217 1.350 . S
C220 C219 1.434 . S
C221 C222 1.369 . S
C221 C223 1.419 . S
C221 H225 0.930 . S
C222 C221 1.369 . S
C222 C231 1.429 . S
C223 C221 1.419 . S
C223 C224 1.363 . S
C223 H226 0.929 . S
C224 C223 1.363 . S
C224 C230 1.428 . S
H225 C221 0.930 . S
H226 C223 0.929 . S
S227 N228 1.613 . S
S227 N229 1.610 . S
N228 S227 1.613 . S
N228 C231 1.350 . S
N229 S227 1.610 . S
N229 C230 1.351 . S
C230 C224 1.428 . S
C230 N229 1.351 . S
C230 C231 1.434 . S
C231 C222 1.429 . S
C231 N228 1.350 . S
C231 C230 1.434 . S
C232 C233 1.369 . S
C232 C234 1.419 . S
C232 H236 0.930 . S
C233 C232 1.369 . S
C233 C242 1.429 . S
C234 C232 1.419 . S
C234 C235 1.363 . S
C234 H237 0.929 . S
C235 C234 1.363 . S
C235 C241 1.428 . S
H236 C232 0.930 . S
H237 C234 0.929 . S
S238 N239 1.613 . S
S238 N240 1.610 . S
N239 S238 1.613 . S
N239 C242 1.350 . S
N240 S238 1.610 . S
N240 C241 1.351 . S
C241 C235 1.428 . S
C241 N240 1.351 . S
C241 C242 1.434 . S
C242 C233 1.429 . S
C242 N239 1.350 . S
C242 C241 1.434 . S
C243 C244 1.369 . S
C243 C245 1.419 . S
C243 H247 0.930 . S
C244 C243 1.369 . S
C244 C253 1.429 . S
C245 C243 1.419 . S
C245 C246 1.363 . S
C245 H248 0.929 . S
C246 C245 1.363 . S
C246 C252 1.428 . S
H247 C243 0.930 . S
H248 C245 0.929 . S
S249 N250 1.613 . S
S249 N251 1.610 . S
N250 S249 1.613 . S
N250 C253 1.350 . S
N251 S249 1.610 . S
N251 C252 1.351 . S
C252 C246 1.428 . S
C252 N251 1.351 . S
C252 C253 1.434 . S
C253 C244 1.429 . S
C253 N250 1.350 . S
C253 C252 1.434 . S
C254 C255 1.369 . S
C254 C256 1.419 . S
C254 H258 0.930 . S
C255 C254 1.369 . S
C255 C264 1.429 . S
C256 C254 1.419 . S
C256 C257 1.363 . S
C256 H259 0.929 . S
C257 C256 1.363 . S
C257 C263 1.428 . S
H258 C254 0.930 . S
H259 C256 0.929 . S
S260 N261 1.613 . S
S260 N262 1.610 . S
N261 S260 1.613 . S
N261 C264 1.350 . S
N262 S260 1.610 . S
N262 C263 1.351 . S
C263 C257 1.428 . S
C263 N262 1.351 . S
C263 C264 1.434 . S
C264 C255 1.429 . S
C264 N261 1.350 . S
C264 C263 1.434 . S
C265 C266 1.369 . S
C265 C267 1.419 . S
C265 H269 0.930 . S
C266 C265 1.369 . S
C266 C275 1.429 . S
C267 C265 1.419 . S
C267 C268 1.363 . S
C267 H270 0.929 . S
C268 C267 1.363 . S
C268 C274 1.428 . S
H269 C265 0.930 . S
H270 C267 0.929 . S
S271 N272 1.613 . S
S271 N273 1.610 1_554 S
N272 S271 1.613 . S
N272 C275 1.350 1_554 S
N273 S271 1.610 1_556 S
N273 C274 1.351 . S
C274 C268 1.428 . S
C274 N273 1.351 . S
C274 C275 1.434 . S
C275 C266 1.429 . S
C275 N272 1.350 1_556 S
C275 C274 1.434 . S
C276 C277 1.369 1_556 S
C276 C278 1.419 . S
C276 H280 0.930 . S
C277 C276 1.369 1_554 S
C277 C286 1.429 . S
C278 C276 1.419 . S
C278 C279 1.363 . S
C278 H281 0.929 . S
C279 C278 1.363 . S
C279 C285 1.428 . S
H280 C276 0.930 . S
H281 C278 0.929 . S
S282 N283 1.613 . S
S282 N284 1.610 1_554 S
N283 S282 1.613 . S
N283 C286 1.350 . S
N284 S282 1.610 1_556 S
N284 C285 1.351 . S
C285 C279 1.428 . S
C285 N284 1.351 . S
C285 C286 1.434 1_556 S
C286 C277 1.429 . S
C286 N283 1.350 . S
C286 C285 1.434 1_554 S
C287 C288 1.369 . S
C287 C289 1.419 1_554 S
C287 H291 0.930 . S
C288 C287 1.369 . S
C288 C297 1.429 1_554 S
C289 C287 1.419 1_556 S
C289 C290 1.363 . S
C289 H292 0.929 . S
C290 C289 1.363 . S
C290 C296 1.428 . S
H291 C287 0.930 . S
H292 C289 0.929 . S
S293 N294 1.613 . S
S293 N295 1.610 . S
N294 S293 1.613 . S
N294 C297 1.350 . S
N295 S293 1.610 . S
N295 C296 1.351 . S
C296 C290 1.428 . S
C296 N295 1.351 . S
C296 C297 1.434 . S
C297 C288 1.429 1_556 S
C297 N294 1.350 . S
C297 C296 1.434 . S
C298 C299 1.369 . S
C298 C300 1.419 . S
C298 H302 0.930 . S
C299 C298 1.369 . S
C299 C308 1.429 1_556 S
C300 C298 1.419 . S
C300 C301 1.363 . S
C300 H303 0.929 . S
C301 C300 1.363 . S
C301 C307 1.428 . S
H302 C298 0.930 . S
H303 C300 0.929 . S
S304 N305 1.613 . S
S304 N306 1.610 . S
N305 S304 1.613 . S
N305 C308 1.350 . S
N306 S304 1.610 . S
N306 C307 1.351 1_554 S
C307 C301 1.428 . S
C307 N306 1.351 1_556 S
C307 C308 1.434 1_556 S
C308 C299 1.429 1_554 S
C308 N305 1.350 . S
C308 C307 1.434 1_554 S
C309 C310 1.369 . S
C309 C311 1.419 . S
C309 H313 0.930 . S
C310 C309 1.369 . S
C310 C319 1.429 . S
C311 C309 1.419 . S
C311 C312 1.363 . S
C311 H314 0.929 . S
C312 C311 1.363 . S
C312 C318 1.428 . S
H313 C309 0.930 . S
H314 C311 0.929 . S
S315 N316 1.613 . S
S315 N317 1.610 . S
N316 S315 1.613 . S
N316 C319 1.350 . S
N317 S315 1.610 . S
N317 C318 1.351 . S
C318 C312 1.428 . S
C318 N317 1.351 . S
C318 C319 1.434 . S
C319 C310 1.429 . S
C319 N316 1.350 . S
C319 C318 1.434 . S
C320 C321 1.369 . S
C320 C322 1.419 . S
C320 H324 0.930 1_556 S
C321 C320 1.369 . S
C321 C330 1.429 . S
C322 C320 1.419 . S
C322 C323 1.363 . S
C322 H325 0.929 . S
C323 C322 1.363 . S
C323 C329 1.428 . S
H324 C320 0.930 1_554 S
H325 C322 0.929 . S
S326 N327 1.613 . S
S326 N328 1.610 . S
N327 S326 1.613 . S
N327 C330 1.350 . S
N328 S326 1.610 . S
N328 C329 1.351 . S
C329 C323 1.428 . S
C329 N328 1.351 . S
C329 C330 1.434 . S
C330 C321 1.429 . S
C330 N327 1.350 . S
C330 C329 1.434 . S
C331 C332 1.369 1_556 S
C331 C333 1.419 . S
C331 H335 0.930 . S
C332 C331 1.369 1_554 S
C332 C341 1.429 . S
C333 C331 1.419 . S
C333 C334 1.363 . S
C333 H336 0.929 . S
C334 C333 1.363 . S
C334 C340 1.428 . S
H335 C331 0.930 . S
H336 C333 0.929 . S
S337 N338 1.613 . S
S337 N339 1.616 . S
N338 S337 1.613 . S
N338 C341 1.350 . S
N339 S337 1.616 . S
N339 C340 1.350 1_554 S
C340 C334 1.428 . S
C340 N339 1.350 1_556 S
C340 C341 1.434 1_556 S
C341 C332 1.429 . S
C341 N338 1.350 . S
C341 C340 1.434 1_554 S
C342 C343 1.369 1_556 S
C342 C344 1.419 . S
C342 H346 0.930 . S
C343 C342 1.369 1_554 S
C343 C352 1.429 . S
C344 C342 1.419 . S
C344 C345 1.363 . S
C344 H347 0.929 . S
C345 C344 1.363 . S
C345 C351 1.434 . S
H346 C342 0.930 . S
H347 C344 0.929 . S
S348 N349 1.613 . S
S348 N350 1.610 . S
N349 S348 1.613 . S
N349 C352 1.350 . S
N350 S348 1.610 . S
N350 C351 1.349 1_554 S
C351 C345 1.434 . S
C351 N350 1.349 1_556 S
C351 C352 1.430 1_556 S
C352 C343 1.429 . S
C352 N349 1.350 . S
C352 C351 1.430 1_554 S
C353 C354 1.369 . S
C353 C355 1.419 . S
C353 H357 0.930 . S
C354 C353 1.369 . S
C354 C363 1.429 . S
C355 C353 1.419 . S
C355 C356 1.363 . S
C355 H358 0.929 . S
C356 C355 1.363 . S
C356 C362 1.428 . S
H357 C353 0.930 . S
H358 C355 0.929 . S
S359 N360 1.613 . S
S359 N361 1.610 1_554 S
N360 S359 1.613 . S
N360 C363 1.350 1_554 S
N361 S359 1.610 1_556 S
N361 C362 1.351 . S
C362 C356 1.428 . S
C362 N361 1.351 . S
C362 C363 1.434 . S
C363 C354 1.429 . S
C363 N360 1.350 1_556 S
C363 C362 1.434 . S
C364 C365 1.369 . S
C364 C366 1.419 . S
C364 H368 0.930 . S
C365 C364 1.369 . S
C365 C374 1.429 . S
C366 C364 1.419 . S
C366 C367 1.363 . S
C366 H369 0.929 . S
C367 C366 1.363 . S
C367 C373 1.428 . S
H368 C364 0.930 . S
H369 C366 0.929 . S
S370 N371 1.613 . S
S370 N372 1.610 . S
N371 S370 1.613 . S
N371 C374 1.350 . S
N372 S370 1.610 . S
N372 C373 1.351 . S
C373 C367 1.428 . S
C373 N372 1.351 . S
C373 C374 1.434 . S
C374 C365 1.429 . S
C374 N371 1.350 . S
C374 C373 1.434 . S
C375 C376 1.369 . S
C375 C377 1.419 . S
C375 H379 0.930 . S
C376 C375 1.369 . S
C376 C385 1.429 . S
C377 C375 1.419 . S
C377 C378 1.363 . S
C377 H380 0.929 . S
C378 C377 1.363 . S
C378 C384 1.428 . S
H379 C375 0.930 . S
H380 C377 0.929 . S
S381 N382 1.613 . S
S381 N383 1.610 . S
N382 S381 1.613 . S
N382 C385 1.350 . S
N383 S381 1.610 . S
N383 C384 1.351 . S
C384 C378 1.428 . S
C384 N383 1.351 . S
C384 C385 1.434 . S
C385 C376 1.429 . S
C385 N382 1.350 . S
C385 C384 1.434 . S
C386 C387 1.369 . S
C386 C388 1.419 . S
C386 H390 0.930 . S
C387 C386 1.369 . S
C387 C396 1.429 . S
C388 C386 1.419 . S
C388 C389 1.363 . S
C388 H391 0.929 . S
C389 C388 1.363 . S
C389 C395 1.428 . S
H390 C386 0.930 . S
H391 C388 0.929 . S
S392 N393 1.613 . S
S392 N394 1.610 . S
N393 S392 1.613 . S
N393 C396 1.350 . S
N394 S392 1.610 . S
N394 C395 1.351 . S
C395 C389 1.428 . S
C395 N394 1.351 . S
C395 C396 1.434 . S
C396 C387 1.429 . S
C396 N393 1.350 . S
C396 C395 1.434 . S
C397 C398 1.369 . S
C397 C399 1.419 . S
C397 H401 0.930 . S
C398 C397 1.369 . S
C398 C407 1.429 . S
C399 C397 1.419 . S
C399 C400 1.363 . S
C399 H402 0.929 . S
C400 C399 1.363 . S
C400 C406 1.428 . S
H401 C397 0.930 . S
H402 C399 0.929 . S
S403 N404 1.613 . S
S403 N405 1.610 . S
N404 S403 1.613 . S
N404 C407 1.350 . S
N405 S403 1.610 . S
N405 C406 1.351 . S
C406 C400 1.428 . S
C406 N405 1.351 . S
C406 C407 1.434 . S
C407 C398 1.429 . S
C407 N404 1.350 . S
C407 C406 1.434 . S
C408 C409 1.369 . S
C408 C410 1.419 . S
C408 H412 0.930 . S
C409 C408 1.369 . S
C409 C418 1.429 . S
C410 C408 1.419 . S
C410 C411 1.363 . S
C410 H413 0.929 . S
C411 C410 1.363 . S
C411 C417 1.428 . S
H412 C408 0.930 . S
H413 C410 0.929 . S
S414 N415 1.613 . S
S414 N416 1.610 . S
N415 S414 1.613 . S
N415 C418 1.350 . S
N416 S414 1.610 . S
N416 C417 1.351 . S
C417 C411 1.428 . S
C417 N416 1.351 . S
C417 C418 1.434 . S
C418 C409 1.429 . S
C418 N415 1.350 . S
C418 C417 1.434 . S
C419 C420 1.369 . S
C419 C421 1.419 . S
C419 H423 0.930 . S
C420 C419 1.369 . S
C420 C429 1.429 . S
C421 C419 1.419 . S
C421 C422 1.363 . S
C421 H424 0.929 . S
C422 C421 1.363 . S
C422 C428 1.428 . S
H423 C419 0.930 . S
H424 C421 0.929 . S
S425 N426 1.613 . S
S425 N427 1.610 . S
N426 S425 1.613 . S
N426 C429 1.350 . S
N427 S425 1.610 . S
N427 C428 1.351 . S
C428 C422 1.428 . S
C428 N427 1.351 . S
C428 C429 1.434 . S
C429 C420 1.429 . S
C429 N426 1.350 . S
C429 C428 1.434 . S
C430 C431 1.369 . S
C430 C432 1.419 . S
C430 H434 0.930 . S
C431 C430 1.369 . S
C431 C440 1.429 . S
C432 C430 1.419 . S
C432 C433 1.363 . S
C432 H435 0.929 . S
C433 C432 1.363 . S
C433 C439 1.428 . S
H434 C430 0.930 . S
H435 C432 0.929 . S
S436 N437 1.613 . S
S436 N438 1.610 . S
N437 S436 1.613 . S
N437 C440 1.350 . S
N438 S436 1.610 . S
N438 C439 1.351 . S
C439 C433 1.428 . S
C439 N438 1.351 . S
C439 C440 1.434 . S
C440 C431 1.429 . S
C440 N437 1.350 . S
C440 C439 1.434 . S
C178 C1 1.745 . S
C180 C84 1.658 . S
C189 C27 1.451 . S
C191 C116 1.426 . S
C202 C175 1.701 . S
C200 C40 1.755 . S
C213 C104 1.329 . S
C211 C55 1.365 . S
C222 C68 1.668 . S
C224 C134 1.576 . S
C235 C156 1.279 . S
C233 C70 1.295 . S
C246 C125 1.655 . S
C244 C41 1.685 . S
C255 C54 1.361 . S
C257 C165 1.291 . S
C268 C114 1.582 . S
C266 C69 1.619 1_556 S
C277 C71 1.422 . S
C279 C144 1.391 . S
C288 C0 1.678 . S
C290 C147 1.639 . S
C301 C86 1.484 . S
C299 C26 1.508 1_556 S
C312 C94 1.628 . S
C310 C42 1.675 . S
C323 C135 1.408 . S
C321 C57 1.438 1_556 S
C334 C148 1.722 . S
C332 C83 1.775 . S
C345 C85 1.348 . S
C343 C12 1.388 . S
C356 C145 1.552 . S
C354 C14 1.609 . S
C365 C29 1.309 . S
C367 C146 1.273 . S
C378 C115 1.612 . S
C376 C82 1.685 . S
C389 C176 1.280 . S
C387 C13 1.315 . S
C400 C103 1.549 . S
C398 C15 1.634 . S
C411 C117 1.422 . S
C409 C28 1.459 . S
C420 C43 1.692 . S
C422 C166 1.639 . S
C431 C56 1.525 . S
C433 C113 1.494 . S
