# Generated by pormake.
# Topology ocu, (6,8)-cn, num edge types: 1
# Building blocks:
#     Node 0, Type 0, BuildingBlock: KUMBOL_clean_sbu_1, # of connection points: 6
#     Node 1, Type 0, BuildingBlock: KUMBOL_clean_sbu_1, # of connection points: 6
#     Node 2, Type 0, BuildingBlock: KUMBOL_clean_sbu_1, # of connection points: 6
#     Node 3, Type 0, BuildingBlock: KUMBOL_clean_sbu_1, # of connection points: 6
#     Node 4, Type 0, BuildingBlock: KUMBOL_clean_sbu_1, # of connection points: 6
#     Node 5, Type 0, BuildingBlock: KUMBOL_clean_sbu_1, # of connection points: 6
#     Node 6, Type 0, BuildingBlock: KUMBOL_clean_sbu_1, # of connection points: 6
#     Node 7, Type 0, BuildingBlock: KUMBOL_clean_sbu_1, # of connection points: 6
#     Node 8, Type 1, BuildingBlock: GIZVER_clean_sbu_0, # of connection points: 8
#     Node 9, Type 1, BuildingBlock: GIZVER_clean_sbu_0, # of connection points: 8
#     Node 10, Type 1, BuildingBlock: GIZVER_clean_sbu_0, # of connection points: 8
#     Node 11, Type 1, BuildingBlock: GIZVER_clean_sbu_0, # of connection points: 8
#     Node 12, Type 1, BuildingBlock: GIZVER_clean_sbu_0, # of connection points: 8
#     Node 13, Type 1, BuildingBlock: GIZVER_clean_sbu_0, # of connection points: 8
#     Edge 14, Type (0, 1), BuildingBlock: TEMPAE_clean_linker_10, # of connection points: 2
#     Edge 15, Type (0, 1), BuildingBlock: TEMPAE_clean_linker_10, # of connection points: 2
#     Edge 16, Type (0, 1), BuildingBlock: TEMPAE_clean_linker_10, # of connection points: 2
#     Edge 17, Type (0, 1), BuildingBlock: TEMPAE_clean_linker_10, # of connection points: 2
#     Edge 18, Type (0, 1), BuildingBlock: TEMPAE_clean_linker_10, # of connection points: 2
#     Edge 19, Type (0, 1), BuildingBlock: TEMPAE_clean_linker_10, # of connection points: 2
#     Edge 20, Type (0, 1), BuildingBlock: TEMPAE_clean_linker_10, # of connection points: 2
#     Edge 21, Type (0, 1), BuildingBlock: TEMPAE_clean_linker_10, # of connection points: 2
#     Edge 22, Type (0, 1), BuildingBlock: TEMPAE_clean_linker_10, # of connection points: 2
#     Edge 23, Type (0, 1), BuildingBlock: TEMPAE_clean_linker_10, # of connection points: 2
#     Edge 24, Type (0, 1), BuildingBlock: TEMPAE_clean_linker_10, # of connection points: 2
#     Edge 25, Type (0, 1), BuildingBlock: TEMPAE_clean_linker_10, # of connection points: 2
#     Edge 26, Type (0, 1), BuildingBlock: TEMPAE_clean_linker_10, # of connection points: 2
#     Edge 27, Type (0, 1), BuildingBlock: TEMPAE_clean_linker_10, # of connection points: 2
#     Edge 28, Type (0, 1), BuildingBlock: TEMPAE_clean_linker_10, # of connection points: 2
#     Edge 29, Type (0, 1), BuildingBlock: TEMPAE_clean_linker_10, # of connection points: 2
#     Edge 30, Type (0, 1), BuildingBlock: TEMPAE_clean_linker_10, # of connection points: 2
#     Edge 31, Type (0, 1), BuildingBlock: TEMPAE_clean_linker_10, # of connection points: 2
#     Edge 32, Type (0, 1), BuildingBlock: TEMPAE_clean_linker_10, # of connection points: 2
#     Edge 33, Type (0, 1), BuildingBlock: TEMPAE_clean_linker_10, # of connection points: 2
#     Edge 34, Type (0, 1), BuildingBlock: TEMPAE_clean_linker_10, # of connection points: 2
#     Edge 35, Type (0, 1), BuildingBlock: TEMPAE_clean_linker_10, # of connection points: 2
#     Edge 36, Type (0, 1), BuildingBlock: TEMPAE_clean_linker_10, # of connection points: 2
#     Edge 37, Type (0, 1), BuildingBlock: TEMPAE_clean_linker_10, # of connection points: 2
#     Edge 38, Type (0, 1), BuildingBlock: TEMPAE_clean_linker_10, # of connection points: 2
#     Edge 39, Type (0, 1), BuildingBlock: TEMPAE_clean_linker_10, # of connection points: 2
#     Edge 40, Type (0, 1), BuildingBlock: TEMPAE_clean_linker_10, # of connection points: 2
#     Edge 41, Type (0, 1), BuildingBlock: TEMPAE_clean_linker_10, # of connection points: 2
#     Edge 42, Type (0, 1), BuildingBlock: TEMPAE_clean_linker_10, # of connection points: 2
#     Edge 43, Type (0, 1), BuildingBlock: TEMPAE_clean_linker_10, # of connection points: 2
#     Edge 44, Type (0, 1), BuildingBlock: TEMPAE_clean_linker_10, # of connection points: 2
#     Edge 45, Type (0, 1), BuildingBlock: TEMPAE_clean_linker_10, # of connection points: 2
#     Edge 46, Type (0, 1), BuildingBlock: TEMPAE_clean_linker_10, # of connection points: 2
#     Edge 47, Type (0, 1), BuildingBlock: TEMPAE_clean_linker_10, # of connection points: 2
#     Edge 48, Type (0, 1), BuildingBlock: TEMPAE_clean_linker_10, # of connection points: 2
#     Edge 49, Type (0, 1), BuildingBlock: TEMPAE_clean_linker_10, # of connection points: 2
#     Edge 50, Type (0, 1), BuildingBlock: TEMPAE_clean_linker_10, # of connection points: 2
#     Edge 51, Type (0, 1), BuildingBlock: TEMPAE_clean_linker_10, # of connection points: 2
#     Edge 52, Type (0, 1), BuildingBlock: TEMPAE_clean_linker_10, # of connection points: 2
#     Edge 53, Type (0, 1), BuildingBlock: TEMPAE_clean_linker_10, # of connection points: 2
#     Edge 54, Type (0, 1), BuildingBlock: TEMPAE_clean_linker_10, # of connection points: 2
#     Edge 55, Type (0, 1), BuildingBlock: TEMPAE_clean_linker_10, # of connection points: 2
#     Edge 56, Type (0, 1), BuildingBlock: TEMPAE_clean_linker_10, # of connection points: 2
#     Edge 57, Type (0, 1), BuildingBlock: TEMPAE_clean_linker_10, # of connection points: 2
#     Edge 58, Type (0, 1), BuildingBlock: TEMPAE_clean_linker_10, # of connection points: 2
#     Edge 59, Type (0, 1), BuildingBlock: TEMPAE_clean_linker_10, # of connection points: 2
#     Edge 60, Type (0, 1), BuildingBlock: TEMPAE_clean_linker_10, # of connection points: 2
#     Edge 61, Type (0, 1), BuildingBlock: TEMPAE_clean_linker_10, # of connection points: 2
# Relax obj value: 0.164
# Max RMSD: 0.212
# Mean RMSD: 0.172
data_MOF--net-ocu--node1-KUMBOL_clean_sbu_1--node2-GIZVER_clean_sbu_0--edge1-TEMPAE_clean_linker_10
_symmetry_space_group_name_H-M    P1
_symmetry_Int_Tables_number       1
_symmetry_cell_setting            triclinic
loop_
_symmetry_equiv_pos_as_xyz
'x, y, z'
_cell_length_a     43.747207
_cell_length_b     45.559018
_cell_length_c     35.346679
_cell_angle_alpha  100.71558
_cell_angle_beta   79.913462
_cell_angle_gamma 112.23588
loop_
_atom_site_label
_atom_site_type_symbol
_atom_site_fract_x
_atom_site_fract_y
_atom_site_fract_z
_atom_type_partial_charge
C0 C 0.33529 0.3505 0.34758 0.0
C1 C 0.29658 0.347 0.40648 0.0
C2 C 0.30707 0.3329 0.37004 0.0
C3 C 0.31524 0.3786 0.42049 0.0
C4 C 0.35369 0.38245 0.36133 0.0
C5 C 0.34371 0.39625 0.39801 0.0
N6 N 0.34433 0.33667 0.31204 0.0
C7 C 0.37148 0.35332 0.28889 0.0
C8 C 0.38148 0.3997 0.33767 0.0
C9 C 0.39034 0.3851 0.30126 0.0
Gd10 Gd 0.24569 0.25617 0.21886 0.0
Gd11 Gd 0.31213 0.28277 0.29587 0.0
N12 N 0.28911 0.30248 0.35553 0.0
C13 C 0.26733 0.32907 0.42755 0.0
C14 C 0.26045 0.28502 0.3758 0.0
C15 C 0.24912 0.29803 0.41202 0.0
H16 H 0.24585 0.26132 0.36395 0.0
H17 H 0.22626 0.28413 0.42787 0.0
H18 H 0.30338 0.28703 0.14695 0.0
H19 H 0.37917 0.34193 0.26125 0.0
H20 H 0.32356 0.26976 0.08024 0.0
H21 H 0.25842 0.3391 0.45559 0.0
H22 H 0.30766 0.38973 0.44853 0.0
H23 H 0.17203 0.19888 0.24101 0.0
H24 H 0.39624 0.4243 0.34721 0.0
H25 H 0.41188 0.39821 0.28286 0.0
H26 H 0.24843 0.16187 0.05261 0.0
H27 H 0.35766 0.4207 0.40911 0.0
H28 H 0.15676 0.12139 0.14842 0.0
H29 H 0.13784 0.14509 0.21267 0.0
N30 N 0.21116 0.2047 0.19457 0.0
C31 C 0.2213 0.1927 0.15847 0.0
C32 C 0.18105 0.18841 0.21341 0.0
C33 C 0.17222 0.14476 0.16105 0.0
C34 C 0.16143 0.15806 0.19729 0.0
C35 C 0.20212 0.16235 0.14077 0.0
H36 H 0.19827 0.12779 0.08894 0.0
N37 N 0.26645 0.24172 0.15506 0.0
C38 C 0.24933 0.21204 0.13774 0.0
C39 C 0.28675 0.22216 0.07865 0.0
C40 C 0.2592 0.20137 0.09914 0.0
C41 C 0.29194 0.26272 0.1344 0.0
C42 C 0.30294 0.25311 0.09624 0.0
O43 O 0.28016 0.31378 0.29861 0.0
O44 O 0.23145 0.27561 0.28119 0.0
O45 O 0.24018 0.29204 0.19025 0.0
O46 O 0.19671 0.25408 0.21137 0.0
O47 O 0.26967 0.23627 0.30499 0.0
O48 O 0.22669 0.22574 0.26776 0.0
O49 O 0.28301 0.22967 0.20135 0.0
O50 O 0.32251 0.24824 0.24476 0.0
O51 O 0.3206 0.25454 0.33365 0.0
O52 O 0.36234 0.29114 0.30596 0.0
O53 O 0.28745 0.30469 0.22233 0.0
O54 O 0.33196 0.29548 0.2356 0.0
C55 C 0.24771 0.30448 0.29794 0.0
C56 C 0.23999 0.21905 0.29431 0.0
C57 C 0.19404 0.27279 0.1545 0.0
C58 C 0.17568 0.29359 0.10771 0.0
C59 C 0.17203 0.23841 0.09665 0.0
C60 C 0.18478 0.24275 0.13161 0.0
C61 C 0.16754 0.26378 0.0846 0.0
C62 C 0.18918 0.29819 0.14248 0.0
C63 C 0.20808 0.27787 0.19117 0.0
C64 C 0.24105 0.17058 0.08211 0.0
C65 C 0.21257 0.15113 0.10286 0.0
H66 H 0.29517 0.21483 0.04899 0.0
C67 C 0.30981 0.22945 0.21385 0.0
C68 C 0.31944 0.31021 0.2177 0.0
C69 C 0.37324 0.27076 0.35752 0.0
C70 C 0.39982 0.24445 0.38794 0.0
C71 C 0.41291 0.30181 0.40303 0.0
C72 C 0.3909 0.30028 0.37777 0.0
C73 C 0.41752 0.27406 0.40797 0.0
C74 C 0.37754 0.24286 0.36296 0.0
C75 C 0.3528 0.26832 0.32758 0.0
H76 H 0.16504 0.21517 0.07924 0.0
H77 H 0.18678 0.22247 0.14087 0.0
H78 H 0.15682 0.25994 0.05787 0.0
H79 H 0.19534 0.32127 0.16038 0.0
H80 H 0.42675 0.32461 0.41845 0.0
H81 H 0.38812 0.32205 0.37354 0.0
H82 H 0.43493 0.27566 0.42731 0.0
H83 H 0.36428 0.22004 0.34694 0.0
C84 C 0.84664 0.23399 0.17269 0.0
C85 C 0.90331 0.27059 0.17846 0.0
C86 C 0.86973 0.25807 0.1941 0.0
C87 C 0.91328 0.25849 0.1408 0.0
C88 C 0.85663 0.22141 0.1351 0.0
C89 C 0.88999 0.23398 0.11916 0.0
N90 N 0.81471 0.22204 0.18922 0.0
C91 C 0.79191 0.19636 0.17044 0.0
C92 C 0.83294 0.19608 0.115 0.0
C93 C 0.8005 0.18335 0.1329 0.0
Gd94 Gd 0.74245 0.29644 0.27807 0.0
Gd95 Gd 0.80329 0.2445 0.25308 0.0
N96 N 0.85925 0.26938 0.23027 0.0
C97 C 0.92582 0.29485 0.2012 0.0
C98 C 0.88121 0.29226 0.25307 0.0
C99 C 0.91472 0.30563 0.23876 0.0
H100 H 0.8729 0.30014 0.28234 0.0
H101 H 0.932 0.32404 0.2568 0.0
H102 H 0.67949 0.2428 0.22853 0.0
H103 H 0.76729 0.18517 0.18467 0.0
H104 H 0.62416 0.20284 0.24351 0.0
H105 H 0.95181 0.30517 0.1902 0.0
H106 H 0.93896 0.26783 0.12823 0.0
H107 H 0.76628 0.33773 0.36284 0.0
H108 H 0.83962 0.18571 0.08608 0.0
H109 H 0.78223 0.16314 0.11806 0.0
H110 H 0.60334 0.21979 0.38197 0.0
H111 H 0.89811 0.22465 0.09029 0.0
H112 H 0.687 0.30251 0.45182 0.0
H113 H 0.7433 0.33992 0.43198 0.0
N114 N 0.72382 0.29902 0.34431 0.0
C115 C 0.6922 0.27923 0.3542 0.0
C116 C 0.74189 0.32112 0.37142 0.0
C117 C 0.69697 0.30145 0.4215 0.0
C118 C 0.72883 0.32253 0.41046 0.0
C119 C 0.67822 0.27947 0.39329 0.0
H120 H 0.63506 0.25751 0.43292 0.0
N121 N 0.68851 0.2581 0.28749 0.0
C122 C 0.67432 0.25788 0.32514 0.0
C123 C 0.6242 0.21572 0.30523 0.0
C124 C 0.64192 0.23637 0.33496 0.0
C125 C 0.67021 0.23982 0.25834 0.0
C126 C 0.63823 0.21779 0.26675 0.0
O127 O 0.82222 0.28877 0.22248 0.0
O128 O 0.78161 0.31158 0.2268 0.0
O129 O 0.70672 0.31387 0.2635 0.0
O130 O 0.74696 0.34596 0.29573 0.0
O131 O 0.8101 0.28194 0.30627 0.0
O132 O 0.79477 0.32196 0.29255 0.0
O133 O 0.74601 0.26588 0.32028 0.0
O134 O 0.74995 0.22436 0.277 0.0
O135 O 0.82453 0.23363 0.29809 0.0
O136 O 0.80174 0.19672 0.25275 0.0
O137 O 0.73971 0.26654 0.2186 0.0
O138 O 0.75295 0.22568 0.23174 0.0
C139 C 0.81083 0.30911 0.21283 0.0
C140 C 0.81256 0.31212 0.31012 0.0
C141 C 0.7243 0.36952 0.25876 0.0
C142 C 0.70819 0.38994 0.20929 0.0
C143 C 0.74292 0.42679 0.2572 0.0
C144 C 0.74195 0.4011 0.27409 0.0
C145 C 0.72621 0.42131 0.22499 0.0
C146 C 0.70715 0.36407 0.22642 0.0
C147 C 0.72141 0.34304 0.27927 0.0
C148 C 0.62812 0.23626 0.37397 0.0
C149 C 0.64616 0.25779 0.40301 0.0
H150 H 0.59936 0.19872 0.31161 0.0
C151 C 0.73942 0.23515 0.31144 0.0
C152 C 0.7414 0.23779 0.209 0.0
C153 C 0.84545 0.19124 0.27702 0.0
C154 C 0.875 0.16523 0.30311 0.0
C155 C 0.8838 0.16931 0.23435 0.0
C156 C 0.86148 0.18531 0.23984 0.0
C157 C 0.89035 0.15904 0.26576 0.0
C158 C 0.85272 0.18157 0.3088 0.0
C159 C 0.81861 0.20409 0.28211 0.0
H160 H 0.75625 0.45104 0.26947 0.0
H161 H 0.75454 0.40598 0.29963 0.0
H162 H 0.72669 0.44168 0.21289 0.0
H163 H 0.69279 0.33991 0.21474 0.0
H164 H 0.89576 0.16454 0.2056 0.0
H165 H 0.8561 0.19222 0.21484 0.0
H166 H 0.90774 0.1466 0.26106 0.0
H167 H 0.84046 0.18594 0.33758 0.0
C168 C 0.85988 0.82197 0.15861 0.0
C169 C 0.85024 0.78378 0.10007 0.0
C170 C 0.83942 0.79456 0.13821 0.0
C171 C 0.88235 0.80038 0.08321 0.0
C172 C 0.89175 0.83929 0.14128 0.0
C173 C 0.90306 0.82806 0.10376 0.0
N174 N 0.84791 0.83267 0.19447 0.0
C175 C 0.86583 0.86133 0.21362 0.0
C176 C 0.91091 0.86791 0.1617 0.0
C177 C 0.89773 0.87914 0.19786 0.0
Gd178 Gd 0.7708 0.74275 0.29799 0.0
Gd179 Gd 0.79376 0.80154 0.21785 0.0
N180 N 0.80847 0.779 0.15533 0.0
C181 C 0.82808 0.75718 0.07963 0.0
C182 C 0.78622 0.75424 0.13481 0.0
C183 C 0.79574 0.74268 0.09688 0.0
H184 H 0.76101 0.74379 0.14733 0.0
H185 H 0.77807 0.72273 0.08093 0.0
H186 H 0.79924 0.80395 0.36695 0.0
H187 H 0.85506 0.87108 0.24035 0.0
H188 H 0.77928 0.8247 0.43225 0.0
H189 H 0.8354 0.74822 0.05023 0.0
H190 H 0.89116 0.79239 0.05399 0.0
H191 H 0.7082 0.67508 0.26923 0.0
H192 H 0.93546 0.88198 0.14933 0.0
H193 H 0.91187 0.90181 0.21329 0.0
H194 H 0.6671 0.75192 0.45533 0.0
H195 H 0.92751 0.841 0.09005 0.0
H196 H 0.62578 0.66358 0.3575 0.0
H197 H 0.6506 0.64491 0.29372 0.0
N198 N 0.71535 0.71214 0.31713 0.0
C199 C 0.70245 0.72245 0.35272 0.0
C200 C 0.69734 0.68438 0.29628 0.0
C201 C 0.65092 0.67741 0.34649 0.0
C202 C 0.66479 0.66684 0.31042 0.0
C203 C 0.66983 0.70532 0.36831 0.0
H204 H 0.63227 0.70339 0.4177 0.0
N205 N 0.75351 0.76606 0.35843 0.0
C206 C 0.72216 0.74992 0.37412 0.0
C207 C 0.73042 0.7882 0.43226 0.0
C208 C 0.70966 0.76081 0.41137 0.0
C209 C 0.77415 0.79215 0.37903 0.0
C210 C 0.7629 0.80376 0.41613 0.0
O211 O 0.82166 0.76535 0.2043 0.0
O212 O 0.79659 0.72411 0.24255 0.0
O213 O 0.80483 0.73982 0.33415 0.0
O214 O 0.76508 0.69702 0.31318 0.0
O215 O 0.74348 0.76194 0.22591 0.0
O216 O 0.75135 0.71923 0.24112 0.0
O217 O 0.74106 0.77713 0.30575 0.0
O218 O 0.77563 0.82185 0.27763 0.0
O219 O 0.75408 0.80343 0.18969 0.0
O220 O 0.79679 0.84621 0.2019 0.0
O221 O 0.82218 0.78054 0.29063 0.0
O222 O 0.81829 0.82459 0.27286 0.0
C223 C 0.81842 0.73734 0.21405 0.0
C224 C 0.7378 0.73118 0.22074 0.0
C225 C 0.78792 0.69457 0.36788 0.0
C226 C 0.81274 0.67053 0.40399 0.0
C227 C 0.75564 0.6676 0.42277 0.0
C228 C 0.75809 0.68458 0.39255 0.0
C229 C 0.78276 0.66037 0.42835 0.0
C230 C 0.81529 0.68781 0.37399 0.0
C231 C 0.79039 0.7089 0.33313 0.0
C232 C 0.6771 0.74392 0.42674 0.0
C233 C 0.65726 0.71628 0.40529 0.0
H234 H 0.72175 0.7973 0.46098 0.0
C235 C 0.74901 0.80748 0.30067 0.0
C236 C 0.83062 0.81163 0.29382 0.0
C237 C 0.76975 0.84369 0.14856 0.0
C238 C 0.74294 0.86164 0.10738 0.0
C239 C 0.79949 0.86313 0.08812 0.0
C240 C 0.79851 0.85069 0.12176 0.0
C241 C 0.77194 0.86884 0.08106 0.0
C242 C 0.74182 0.84884 0.141 0.0
C243 C 0.76926 0.83365 0.18594 0.0
H244 H 0.73252 0.65959 0.44152 0.0
H245 H 0.73662 0.68927 0.38794 0.0
H246 H 0.78034 0.64675 0.45149 0.0
H247 H 0.83822 0.69505 0.3546 0.0
H248 H 0.82184 0.86882 0.06778 0.0
H249 H 0.82042 0.84726 0.12717 0.0
H250 H 0.77325 0.87899 0.05516 0.0
H251 H 0.71966 0.84389 0.16177 0.0
C252 C 0.31604 0.72493 0.32939 0.0
C253 C 0.28122 0.66853 0.32148 0.0
C254 C 0.29207 0.69931 0.3101 0.0
C255 C 0.29472 0.66373 0.35199 0.0
C256 C 0.32888 0.72022 0.36075 0.0
C257 C 0.31819 0.68952 0.37181 0.0
N258 N 0.32735 0.75421 0.31695 0.0
C259 C 0.351 0.77969 0.33479 0.0
C260 C 0.35248 0.74646 0.37984 0.0
C261 C 0.36345 0.77633 0.36691 0.0
Gd262 Gd 0.24436 0.79852 0.25611 0.0
Gd263 Gd 0.30596 0.75568 0.26145 0.0
N264 N 0.27875 0.7046 0.28106 0.0
C265 C 0.25672 0.64347 0.30226 0.0
C266 C 0.25339 0.68054 0.26397 0.0
C267 C 0.24235 0.64964 0.27386 0.0
H268 H 0.24073 0.68488 0.24356 0.0
H269 H 0.22253 0.63065 0.25977 0.0
H270 H 0.28077 0.86653 0.31693 0.0
H271 H 0.36094 0.80248 0.32388 0.0
H272 H 0.31914 0.92146 0.31209 0.0
H273 H 0.24807 0.61945 0.3099 0.0
H274 H 0.28671 0.64021 0.36094 0.0
H275 H 0.20276 0.7763 0.17876 0.0
H276 H 0.36269 0.74383 0.40428 0.0
H277 H 0.38202 0.79662 0.3812 0.0
H278 H 0.31635 0.93633 0.18307 0.0
H279 H 0.32804 0.68543 0.3956 0.0
H280 H 0.23876 0.85166 0.10847 0.0
H281 H 0.20146 0.79697 0.11999 0.0
N282 N 0.24327 0.8169 0.19838 0.0
C283 C 0.26282 0.8475 0.19357 0.0
C284 C 0.22083 0.79922 0.17287 0.0
C285 C 0.24025 0.84217 0.13374 0.0
C286 C 0.21933 0.81127 0.13998 0.0
C287 C 0.26193 0.86091 0.16097 0.0
H288 H 0.28175 0.90336 0.13211 0.0
N289 N 0.27856 0.85356 0.25605 0.0
C290 C 0.28203 0.86605 0.22264 0.0
C291 C 0.31666 0.91798 0.25114 0.0
C292 C 0.30112 0.89858 0.21938 0.0
C293 C 0.28918 0.874 0.28862 0.0
C294 C 0.30975 0.90589 0.28632 0.0
O295 O 0.26369 0.74958 0.30967 0.0
O296 O 0.221 0.75227 0.28275 0.0
O297 O 0.21346 0.82292 0.29218 0.0
O298 O 0.19206 0.7842 0.24821 0.0
O299 O 0.27275 0.73011 0.2135 0.0
O300 O 0.23225 0.75224 0.21626 0.0
O301 O 0.28349 0.79774 0.20553 0.0
O302 O 0.32546 0.80353 0.23914 0.0
O303 O 0.33607 0.7533 0.207 0.0
O304 O 0.34806 0.73987 0.25658 0.0
O305 O 0.27105 0.81132 0.31158 0.0
O306 O 0.32137 0.80685 0.2864 0.0
C307 C 0.2319 0.74095 0.30704 0.0
C308 C 0.24646 0.73121 0.20126 0.0
C309 C 0.18425 0.83244 0.24829 0.0
C310 C 0.18882 0.88631 0.26004 0.0
C311 C 0.14657 0.84826 0.22128 0.0
C312 C 0.15569 0.82383 0.22956 0.0
C313 C 0.1629 0.88003 0.23748 0.0
C314 C 0.20502 0.86465 0.25217 0.0
C315 C 0.19044 0.81023 0.26881 0.0
C316 C 0.30184 0.91145 0.18594 0.0
C317 C 0.28195 0.89277 0.15705 0.0
H318 H 0.33171 0.94297 0.24971 0.0
C319 C 0.31525 0.80836 0.20889 0.0
C320 C 0.30326 0.81875 0.31348 0.0
C321 C 0.34034 0.70321 0.19927 0.0
C322 C 0.32668 0.66875 0.13946 0.0
C323 C 0.33524 0.64792 0.19384 0.0
C324 C 0.34348 0.6785 0.21493 0.0
C325 C 0.32741 0.64306 0.15582 0.0
C326 C 0.32698 0.69629 0.16409 0.0
C327 C 0.34926 0.73601 0.21909 0.0
H328 H 0.12465 0.8423 0.207 0.0
H329 H 0.13998 0.79901 0.22333 0.0
H330 H 0.15147 0.89759 0.23893 0.0
H331 H 0.22773 0.87151 0.26505 0.0
H332 H 0.33741 0.62865 0.20577 0.0
H333 H 0.3521 0.68275 0.24308 0.0
H334 H 0.32562 0.62047 0.13825 0.0
H335 H 0.3234 0.71483 0.15203 0.0
C336 C 0.37196 0.74249 0.66383 0.0
C337 C 0.42433 0.78168 0.68279 0.0
C338 C 0.39038 0.76387 0.69224 0.0
C339 C 0.43906 0.77854 0.64433 0.0
C340 C 0.38693 0.73851 0.62545 0.0
C341 C 0.42043 0.75698 0.61576 0.0
N342 N 0.33944 0.72528 0.67388 0.0
C343 C 0.32131 0.70185 0.6479 0.0
C344 C 0.3679 0.71569 0.5981 0.0
C345 C 0.33507 0.697 0.60953 0.0
Gd346 Gd 0.25618 0.78492 0.7556 0.0
Gd347 Gd 0.31859 0.73522 0.73874 0.0
N348 N 0.37537 0.76661 0.72922 0.0
C349 C 0.44262 0.80175 0.71242 0.0
C350 C 0.39353 0.78484 0.75847 0.0
C351 C 0.42724 0.80301 0.75048 0.0
H352 H 0.38242 0.78478 0.7881 0.0
H353 H 0.44145 0.81769 0.77373 0.0
H354 H 0.18646 0.73236 0.72358 0.0
H355 H 0.29636 0.68646 0.65669 0.0
H356 H 0.12985 0.69976 0.75064 0.0
H357 H 0.46875 0.81582 0.70636 0.0
H358 H 0.46502 0.79228 0.63652 0.0
H359 H 0.28664 0.8448 0.82781 0.0
H360 H 0.37853 0.71182 0.56837 0.0
H361 H 0.32044 0.67866 0.58889 0.0
H362 H 0.12864 0.73307 0.88798 0.0
H363 H 0.43229 0.75442 0.58636 0.0
H364 H 0.22247 0.82149 0.93234 0.0
H365 H 0.27381 0.85666 0.89817 0.0
N366 N 0.24544 0.80078 0.82251 0.0
C367 C 0.2158 0.78263 0.84018 0.0
C368 C 0.26524 0.82808 0.8425 0.0
C369 C 0.22856 0.81551 0.90153 0.0
C370 C 0.2576 0.83537 0.88238 0.0
C371 C 0.20673 0.78929 0.88026 0.0
H372 H 0.16837 0.77515 0.92825 0.0
N373 N 0.20216 0.75403 0.77883 0.0
C374 C 0.19327 0.7589 0.81759 0.0
C375 C 0.13863 0.71909 0.80993 0.0
C376 C 0.16138 0.74113 0.83431 0.0
C377 C 0.17946 0.73439 0.75456 0.0
C378 C 0.14752 0.71613 0.7698 0.0
O379 O 0.32399 0.76888 0.69539 0.0
O380 O 0.30891 0.81022 0.731 0.0
O381 O 0.23869 0.79675 0.70853 0.0
O382 O 0.23709 0.82355 0.76547 0.0
O383 O 0.3217 0.77048 0.79355 0.0
O384 O 0.30609 0.8102 0.77932 0.0
O385 O 0.23826 0.73476 0.7717 0.0
O386 O 0.28401 0.7356 0.79432 0.0
O387 O 0.34913 0.71441 0.75897 0.0
O388 O 0.30159 0.68362 0.73744 0.0
O389 O 0.25678 0.75225 0.69885 0.0
O390 O 0.26981 0.71114 0.71371 0.0
C391 C 0.32676 0.79915 0.70228 0.0
C392 C 0.3228 0.80025 0.79863 0.0
C393 C 0.24423 0.85065 0.71224 0.0
C394 C 0.23298 0.88565 0.67618 0.0
C395 C 0.28691 0.90148 0.69973 0.0
C396 C 0.27641 0.87301 0.71579 0.0
C397 C 0.26554 0.90774 0.67986 0.0
C398 C 0.22265 0.85706 0.69267 0.0
C399 C 0.23232 0.82084 0.72955 0.0
C400 C 0.15295 0.74662 0.8745 0.0
C401 C 0.1756 0.77056 0.89745 0.0
H402 H 0.11391 0.7049 0.82168 0.0
C403 C 0.25172 0.72423 0.79405 0.0
C404 C 0.25574 0.7225 0.6929 0.0
C405 C 0.33279 0.65711 0.76004 0.0
C406 C 0.36415 0.63351 0.7878 0.0
C407 C 0.31289 0.59968 0.76051 0.0
C408 C 0.30918 0.62649 0.75122 0.0
C409 C 0.34007 0.60309 0.77877 0.0
C410 C 0.36033 0.66047 0.7782 0.0
C411 C 0.32765 0.68553 0.75231 0.0
H412 H 0.31168 0.91881 0.70273 0.0
H413 H 0.29327 0.86852 0.73112 0.0
H414 H 0.27468 0.92983 0.66724 0.0
H415 H 0.19753 0.83995 0.69117 0.0
H416 H 0.29439 0.57618 0.75401 0.0
H417 H 0.28759 0.62325 0.73758 0.0
H418 H 0.3418 0.58194 0.78662 0.0
H419 H 0.37862 0.68404 0.78514 0.0
C420 C 0.36714 0.31241 0.66077 0.0
C421 C 0.35806 0.2742 0.60206 0.0
C422 C 0.3463 0.28582 0.63933 0.0
C423 C 0.39116 0.28932 0.58686 0.0
C424 C 0.40024 0.32794 0.64523 0.0
C425 C 0.41218 0.31611 0.60836 0.0
N426 N 0.35483 0.32352 0.69629 0.0
C427 C 0.37393 0.35075 0.71698 0.0
C428 C 0.42026 0.35522 0.66697 0.0
C429 C 0.40698 0.36675 0.70287 0.0
Gd430 Gd 0.27329 0.23639 0.79637 0.0
Gd431 Gd 0.2988 0.29493 0.71607 0.0
N432 N 0.31439 0.27154 0.6548 0.0
C433 C 0.33596 0.24807 0.58091 0.0
C434 C 0.2923 0.24751 0.63342 0.0
C435 C 0.30281 0.23492 0.5965 0.0
H436 H 0.26644 0.23885 0.64433 0.0
H437 H 0.28521 0.2155 0.57983 0.0
H438 H 0.301 0.28692 0.87295 0.0
H439 H 0.36371 0.36072 0.74404 0.0
H440 H 0.27918 0.3052 0.93904 0.0
H441 H 0.34401 0.23846 0.55215 0.0
H442 H 0.40064 0.28073 0.55829 0.0
H443 H 0.21082 0.16978 0.76213 0.0
H444 H 0.44579 0.36785 0.65601 0.0
H445 H 0.42208 0.38821 0.71952 0.0
H446 H 0.16257 0.24172 0.94795 0.0
H447 H 0.43754 0.32775 0.59601 0.0
H448 H 0.12349 0.16031 0.84216 0.0
H449 H 0.1514 0.14193 0.78047 0.0
N450 N 0.21634 0.20638 0.81071 0.0
C451 C 0.20175 0.21597 0.84566 0.0
C452 C 0.19889 0.17941 0.78809 0.0
C453 C 0.14952 0.17339 0.83371 0.0
C454 C 0.16516 0.16299 0.79882 0.0
C455 C 0.16795 0.19975 0.85803 0.0
H456 H 0.12792 0.19758 0.90455 0.0
N457 N 0.25366 0.25617 0.85759 0.0
C458 C 0.22111 0.24113 0.87014 0.0
C459 C 0.22853 0.2742 0.93224 0.0
C460 C 0.20746 0.25033 0.90754 0.0
C461 C 0.2747 0.27787 0.88218 0.0
C462 C 0.26246 0.28759 0.91973 0.0
O463 O 0.3284 0.26031 0.7085 0.0
O464 O 0.29546 0.21596 0.73876 0.0
O465 O 0.30989 0.23363 0.82848 0.0
O466 O 0.26436 0.19302 0.82038 0.0
O467 O 0.24774 0.25599 0.72207 0.0
O468 O 0.25525 0.21334 0.73831 0.0
O469 O 0.24791 0.2745 0.80925 0.0
O470 O 0.27261 0.31483 0.77 0.0
O471 O 0.26399 0.29877 0.68174 0.0
O472 O 0.30645 0.34058 0.69899 0.0
O473 O 0.32396 0.2761 0.79249 0.0
O474 O 0.31849 0.31887 0.77325 0.0
C475 C 0.32089 0.23004 0.71379 0.0
C476 C 0.24151 0.22521 0.71803 0.0
C477 C 0.31219 0.18267 0.82589 0.0
C478 C 0.35041 0.16359 0.84721 0.0
C479 C 0.332 0.14372 0.78323 0.0
C480 C 0.31276 0.16302 0.7903 0.0
C481 C 0.35095 0.14412 0.81143 0.0
C482 C 0.33078 0.18265 0.85442 0.0
C483 C 0.29309 0.20394 0.83363 0.0
C484 C 0.17359 0.23485 0.91941 0.0
C485 C 0.15387 0.20971 0.89468 0.0
H486 H 0.21905 0.2818 0.9613 0.0
C487 C 0.25102 0.30219 0.79892 0.0
C488 C 0.33038 0.30695 0.79574 0.0
C489 C 0.28099 0.34311 0.64631 0.0
C490 C 0.25426 0.36666 0.6118 0.0
C491 C 0.31106 0.3692 0.59007 0.0
C492 C 0.30993 0.35266 0.62019 0.0
C493 C 0.28353 0.37644 0.58605 0.0
C494 C 0.25313 0.34972 0.64166 0.0
C495 C 0.27995 0.32937 0.68106 0.0
H496 H 0.33229 0.1285 0.75584 0.0
H497 H 0.2984 0.16265 0.76808 0.0
H498 H 0.36579 0.12904 0.80551 0.0
H499 H 0.33045 0.19786 0.88191 0.0
H500 H 0.33348 0.37681 0.57011 0.0
H501 H 0.33172 0.34794 0.62355 0.0
H502 H 0.28502 0.38949 0.56269 0.0
H503 H 0.23096 0.34278 0.66228 0.0
C504 C 0.82017 0.19272 0.82259 0.0
C505 C 0.78947 0.13707 0.80083 0.0
C506 C 0.80276 0.16952 0.79466 0.0
C507 C 0.79716 0.12797 0.83276 0.0
C508 C 0.8253 0.18381 0.85648 0.0
C509 C 0.81506 0.1513 0.86053 0.0
N510 N 0.8279 0.224 0.81905 0.0
C511 C 0.84052 0.24748 0.84843 0.0
C512 C 0.83892 0.20784 0.88627 0.0
C513 C 0.84615 0.23978 0.88241 0.0
Gd514 Gd 0.75784 0.27311 0.75503 0.0
Gd515 Gd 0.8256 0.23347 0.75669 0.0
N516 N 0.79453 0.17924 0.76491 0.0
C517 C 0.76669 0.11511 0.77659 0.0
C518 C 0.76937 0.1585 0.74448 0.0
C519 C 0.75573 0.1261 0.74921 0.0
H520 H 0.75823 0.16678 0.72615 0.0
H521 H 0.73617 0.10978 0.73236 0.0
H522 H 0.78837 0.34439 0.81193 0.0
H523 H 0.84748 0.27218 0.84511 0.0
H524 H 0.808 0.40145 0.80577 0.0
H525 H 0.75564 0.09008 0.78067 0.0
H526 H 0.78763 0.1031 0.83749 0.0
H527 H 0.70581 0.23549 0.68692 0.0
H528 H 0.8431 0.20193 0.91277 0.0
H529 H 0.85643 0.25853 0.90541 0.0
H530 H 0.77459 0.40407 0.68467 0.0
H531 H 0.81923 0.14403 0.88608 0.0
H532 H 0.70779 0.30471 0.61863 0.0
H533 H 0.68716 0.24883 0.63245 0.0
N534 N 0.73652 0.28351 0.7041 0.0
C535 C 0.74636 0.31455 0.69844 0.0
C536 C 0.71499 0.26005 0.68121 0.0
C537 C 0.71593 0.29906 0.64272 0.0
C538 C 0.70434 0.26747 0.65033 0.0
C539 C 0.73692 0.32316 0.66714 0.0
H540 H 0.74127 0.36253 0.63772 0.0
N541 N 0.77113 0.32869 0.75636 0.0
C542 C 0.76446 0.33789 0.72526 0.0
C543 C 0.7912 0.39355 0.74976 0.0
C544 C 0.77447 0.37053 0.72098 0.0
C545 C 0.78539 0.35119 0.78575 0.0
C546 C 0.79613 0.38382 0.78264 0.0
O547 O 0.78395 0.23081 0.80465 0.0
O548 O 0.74836 0.22288 0.76274 0.0
O549 O 0.7299 0.27253 0.81196 0.0
O550 O 0.7044 0.25844 0.76041 0.0
O551 O 0.80015 0.21187 0.7014 0.0
O552 O 0.76016 0.23525 0.704 0.0
O553 O 0.8064 0.29934 0.72213 0.0
O554 O 0.83988 0.26802 0.71053 0.0
O555 O 0.86103 0.21107 0.72729 0.0
O556 O 0.87429 0.24902 0.77479 0.0
O557 O 0.79182 0.29338 0.80412 0.0
O558 O 0.83941 0.28585 0.77378 0.0
C559 C 0.75349 0.21881 0.79621 0.0
C560 C 0.77587 0.21557 0.68702 0.0
C561 C 0.67492 0.27273 0.81881 0.0
C562 C 0.65599 0.3016 0.87646 0.0
C563 C 0.62456 0.28354 0.82069 0.0
C564 C 0.64815 0.27096 0.80047 0.0
C565 C 0.62883 0.29956 0.85816 0.0
C566 C 0.67654 0.28501 0.85783 0.0
C567 C 0.7013 0.26178 0.79798 0.0
C568 C 0.76678 0.37916 0.68867 0.0
C569 C 0.74788 0.35551 0.6619 0.0
H570 H 0.79943 0.41885 0.74748 0.0
C571 C 0.83213 0.29216 0.70381 0.0
C572 C 0.82438 0.30071 0.80116 0.0
C573 C 0.91673 0.24744 0.72777 0.0
C574 C 0.94853 0.27523 0.67287 0.0
C575 C 0.97544 0.27763 0.72902 0.0
C576 C 0.9455 0.25755 0.74617 0.0
C577 C 0.977 0.28675 0.69289 0.0
C578 C 0.9181 0.25709 0.69224 0.0
C579 C 0.8846 0.23037 0.74797 0.0
H580 H 0.60417 0.28266 0.80648 0.0
H581 H 0.64572 0.26035 0.77055 0.0
H582 H 0.61234 0.3123 0.87126 0.0
H583 H 0.69633 0.28496 0.87245 0.0
H584 H 0.99763 0.28578 0.74347 0.0
H585 H 0.94455 0.25068 0.77423 0.0
H586 H 1.00092 0.30157 0.68012 0.0
H587 H 0.89519 0.24889 0.67927 0.0
C588 C 0.83575 0.8437 0.84359 0.0
C589 C 0.79868 0.83673 0.9039 0.0
C590 C 0.80903 0.82433 0.86639 0.0
C591 C 0.81476 0.86904 0.91781 0.0
C592 C 0.85227 0.87602 0.85786 0.0
C593 C 0.84137 0.88863 0.89482 0.0
N594 N 0.8463 0.83068 0.80819 0.0
C595 C 0.87425 0.8482 0.7868 0.0
C596 C 0.87978 0.89453 0.83495 0.0
C597 C 0.89096 0.88048 0.79943 0.0
Gd598 Gd 0.75703 0.7494 0.70904 0.0
Gd599 Gd 0.81681 0.7759 0.79155 0.0
N600 N 0.79318 0.7933 0.85178 0.0
C601 C 0.77279 0.81611 0.92655 0.0
C602 C 0.76877 0.77283 0.87409 0.0
C603 C 0.75803 0.78395 0.91173 0.0
H604 H 0.75803 0.74784 0.86315 0.0
H605 H 0.73846 0.76772 0.92931 0.0
H606 H 0.8222 0.78132 0.6436 0.0
H607 H 0.88452 0.83719 0.76063 0.0
H608 H 0.84841 0.76352 0.5807 0.0
H609 H 0.76429 0.82468 0.95564 0.0
H610 H 0.80704 0.87903 0.9465 0.0
H611 H 0.69153 0.68495 0.73499 0.0
H612 H 0.89311 0.91945 0.8449 0.0
H613 H 0.9129 0.89432 0.78214 0.0
H614 H 0.78019 0.65324 0.5522 0.0
H615 H 0.85376 0.91341 0.90619 0.0
H616 H 0.68784 0.6073 0.64477 0.0
H617 H 0.66504 0.62853 0.70834 0.0
N618 N 0.73037 0.69506 0.68841 0.0
C619 C 0.74303 0.68411 0.65298 0.0
C620 C 0.70256 0.67568 0.70808 0.0
C621 C 0.7 0.63197 0.65669 0.0
C622 C 0.68713 0.64382 0.69268 0.0
C623 C 0.72817 0.65215 0.63629 0.0
H624 H 0.73059 0.61684 0.58661 0.0
N625 N 0.78566 0.73546 0.65037 0.0
C626 C 0.77119 0.70486 0.63334 0.0
C627 C 0.81327 0.71514 0.5781 0.0
C628 C 0.7849 0.69385 0.59684 0.0
C629 C 0.81244 0.75663 0.63152 0.0
C630 C 0.82695 0.7467 0.59542 0.0
O631 O 0.7792 0.80194 0.80113 0.0
O632 O 0.73755 0.77836 0.76061 0.0
O633 O 0.75114 0.77886 0.67086 0.0
O634 O 0.71001 0.73659 0.68674 0.0
O635 O 0.77565 0.72747 0.78763 0.0
O636 O 0.73189 0.7332 0.76655 0.0
O637 O 0.79102 0.71979 0.70659 0.0
O638 O 0.83801 0.75271 0.73519 0.0
O639 O 0.82246 0.74238 0.82389 0.0
O640 O 0.86178 0.78835 0.81772 0.0
O641 O 0.79583 0.79884 0.71546 0.0
O642 O 0.83989 0.79189 0.73372 0.0
C643 C 0.75109 0.79966 0.78953 0.0
C644 C 0.74363 0.72089 0.78877 0.0
C645 C 0.69738 0.7815 0.68199 0.0
C646 C 0.67368 0.81765 0.66643 0.0
C647 C 0.65773 0.79855 0.72917 0.0
C648 C 0.67846 0.78076 0.71862 0.0
C649 C 0.6552 0.81681 0.70316 0.0
C650 C 0.6951 0.80027 0.656 0.0
C651 C 0.71933 0.76271 0.67094 0.0
C652 C 0.77 0.66205 0.58023 0.0
C653 C 0.74174 0.6413 0.59986 0.0
H654 H 0.82453 0.70757 0.55005 0.0
C655 C 0.82252 0.72684 0.71191 0.0
C656 C 0.82779 0.80673 0.71548 0.0
C657 C 0.87766 0.74605 0.82423 0.0
C658 C 0.90344 0.71605 0.84881 0.0
C659 C 0.9273 0.73825 0.78856 0.0
C660 C 0.90239 0.75107 0.79234 0.0
C661 C 0.92791 0.72081 0.81677 0.0
C662 C 0.87818 0.72838 0.85232 0.0
C663 C 0.85262 0.76096 0.83045 0.0
H664 H 0.64343 0.79799 0.75748 0.0
H665 H 0.67959 0.7664 0.73916 0.0
H666 H 0.63863 0.83016 0.71156 0.0
H667 H 0.70932 0.80082 0.62757 0.0
H668 H 0.94654 0.7424 0.76425 0.0
H669 H 0.90283 0.76545 0.77093 0.0
H670 H 0.9477 0.71145 0.81398 0.0
H671 H 0.85955 0.725 0.87742 0.0
Co672 Co 0.05414 0.95488 0.50649 0.0
Co673 Co 0.05875 0.99446 0.57052 0.0
Co674 Co 1.02991 1.01733 0.51422 0.0
O675 O 0.06204 0.99889 0.51867 0.0
H676 H 0.0844 1.01228 0.5101 0.0
O677 O 0.99708 0.03608 0.51168 0.0
Co678 Co 1.00615 0.08033 0.52852 0.0
Co679 Co 1.00044 0.0442 0.46222 0.0
H680 H 0.97463 0.02264 0.51985 0.0
O681 O 0.09357 0.99249 0.59023 0.0
O682 O 0.05185 0.95111 0.56297 0.0
O683 O 1.02229 1.00138 0.60491 0.0
O684 O 0.99601 0.9917 0.55344 0.0
O685 O 0.04966 0.05173 0.55547 0.0
O686 O 1.01068 0.12 0.54485 0.0
O687 O 0.96328 0.0769 0.5389 0.0
O688 O 0.05379 0.09041 0.52351 0.0
O689 O 0.06487 0.04325 0.47421 0.0
O690 O 0.03769 0.04146 0.42603 0.0
O691 O 1.00506 0.08674 0.47332 0.0
O692 O 0.96422 0.04429 0.44507 0.0
C693 C 0.0842 0.93096 0.49094 0.0
C694 C 0.99739 0.95285 0.47918 0.0
C695 C 0.99559 0.99048 0.58931 0.0
C696 C 0.07855 0.96196 0.5811 0.0
C697 C 0.97852 0.10749 0.54836 0.0
C698 C 0.06403 0.08049 0.54869 0.0
C699 C 0.06476 0.04823 0.43971 0.0
C700 C 0.9784 0.07486 0.45491 0.0
O701 O 0.05248 0.91449 0.49308 0.0
O702 O 0.09544 0.96148 0.50205 0.0
O703 O 1.01003 0.98206 0.47313 0.0
O704 O 1.00681 0.94328 0.50551 0.0
Co705 Co 0.57713 0.9611 0.95356 0.0
Co706 Co 0.55483 0.96272 0.01989 0.0
Co707 Co 0.53232 1.01631 0.00547 0.0
O708 O 0.57024 0.99722 0.99398 0.0
H709 H 0.59089 1.01242 1.00263 0.0
O710 O 0.49473 0.03526 0.01672 0.0
Co711 Co 0.48727 0.07169 0.05513 0.0
Co712 Co 0.51089 0.06932 0.99007 0.0
H713 H 0.47418 0.02008 0.00778 0.0
O714 O 0.57886 0.96214 0.05476 0.0
O715 O 0.57117 0.93322 0.99437 0.0
O716 O 0.50941 0.94347 0.02941 0.0
O717 O 0.50458 0.99039 0.04937 0.0
O718 O 0.55964 0.05148 0.04304 0.0
O719 O 0.47869 0.10355 0.08921 0.0
O720 O 0.44101 0.06246 0.0577 0.0
O721 O 0.53356 0.08721 0.06023 0.0
O722 O 0.55931 0.04154 0.96094 0.0
O723 O 0.55663 0.08939 0.98041 0.0
O724 O 0.4931 0.0981 0.0131 0.0
O725 O 0.4863 0.06695 0.95432 0.0
C726 C 0.61543 0.94242 0.9248 0.0
C727 C 0.50588 0.95481 0.95091 0.0
C728 C 0.49219 0.95975 0.04635 0.0
C729 C 0.58257 0.93934 0.02824 0.0
C730 C 0.44823 0.08965 0.08121 0.0
C731 C 0.55885 0.07912 0.05845 0.0
C732 C 0.57226 0.07199 0.96231 0.0
C733 C 0.48045 0.08934 0.97989 0.0
O734 O 0.58474 0.92994 0.91768 0.0
O735 O 0.62362 0.96891 0.94965 0.0
O736 O 0.50497 0.98185 0.96802 0.0
O737 O 0.53095 0.94632 0.94827 0.0
Co738 Co 0.06854 0.45635 0.96743 0.0
Co739 Co 0.06574 0.4792 0.0406 0.0
Co740 Co 1.03383 0.5178 0.00669 0.0
O741 O 0.06951 0.49801 0.99753 0.0
H742 H 0.09156 0.514 0.99439 0.0
O743 O 0.99802 0.53807 0.01641 0.0
Co744 Co 0.99775 0.57884 0.04998 0.0
Co745 Co 1.00354 0.56099 0.97648 0.0
H746 H 0.97597 0.5219 0.01755 0.0
O747 O 0.10295 0.47986 0.05552 0.0
O748 O 0.06787 0.44044 0.01686 0.0
O749 O 1.02693 0.47193 0.07816 0.0
O750 O 1.00001 0.48611 0.04148 0.0
O751 O 0.05539 0.54779 0.05142 0.0
O752 O 0.99402 0.6152 0.08018 0.0
O753 O 0.95168 0.57225 0.05986 0.0
O754 O 0.04581 0.59234 0.0473 0.0
O755 O 0.06806 0.549 0.9715 0.0
O756 O 0.04461 0.57403 0.94431 0.0
O757 O 0.99985 0.59799 1.00303 0.0
O758 O 0.96735 0.561 0.9595 0.0
C759 C 0.10364 0.4332 0.93916 0.0
C760 C 1.00324 0.45688 0.95947 0.0
C761 C 1.00015 0.47231 0.06981 0.0
C762 C 0.09304 0.45083 0.03748 0.0
C763 C 0.96211 0.60137 0.07876 0.0
C764 C 0.06408 0.57829 0.05501 0.0
C765 C 0.06979 0.56839 0.9486 0.0
C766 C 0.9764 0.58896 0.98025 0.0
O767 O 0.07154 0.41894 0.93956 0.0
O768 O 0.11439 0.4628 0.9565 0.0
O769 O 1.01243 0.48746 0.96193 0.0
O770 O 1.02015 0.44326 0.97136 0.0
Co771 Co 0.58177 0.47205 0.97461 0.0
Co772 Co 0.56444 0.4769 0.04281 0.0
Co773 Co 0.53639 0.51867 0.00653 0.0
O774 O 0.57051 0.50249 0.00982 0.0
H775 H 0.59037 0.52059 0.01562 0.0
O776 O 0.50452 0.53787 1.00309 0.0
Co777 Co 0.51665 0.58306 0.01637 0.0
Co778 Co 0.50952 0.54407 0.9518 0.0
H779 H 0.48189 0.52532 0.01188 0.0
O780 O 0.59729 0.48628 0.06964 0.0
O781 O 0.5808 0.44688 0.0183 0.0
O782 O 0.52246 0.46292 0.07003 0.0
O783 O 0.50083 0.49178 0.04587 0.0
O784 O 0.55511 0.55273 0.04927 0.0
O785 O 0.52361 0.62391 0.02937 0.0
O786 O 0.47555 0.58117 0.02388 0.0
O787 O 0.56298 0.59086 0.01442 0.0
O788 O 0.57127 0.54493 0.96747 0.0
O789 O 0.54536 0.53618 0.91601 0.0
O790 O 0.51846 0.58781 0.95983 0.0
O791 O 0.47544 0.5474 0.93319 0.0
C792 C 0.62583 0.46981 0.94925 0.0
C793 C 0.51467 0.45573 0.95649 0.0
C794 C 0.49858 0.47157 0.06833 0.0
C795 C 0.59475 0.45807 0.05095 0.0
C796 C 0.49148 0.61169 0.0322 0.0
C797 C 0.57028 0.58141 0.04228 0.0
C798 C 0.57205 0.54639 0.9315 0.0
C799 C 0.49195 0.57779 0.94145 0.0
O800 O 0.59827 0.44708 0.93984 0.0
O801 O 0.62509 0.49318 0.97618 0.0
O802 O 0.51698 0.48491 0.9637 0.0
O803 O 0.53554 0.44634 0.96729 0.0
Co804 Co 0.08909 0.47768 0.50885 0.0
Co805 Co 0.08319 0.48039 0.44186 0.0
Co806 Co 1.03489 0.51545 0.5045 0.0
O807 O 0.05282 0.47892 0.48574 0.0
H808 H 1.03481 0.45844 0.48431 0.0
O809 O 1.01622 0.55151 0.52305 0.0
Co810 Co 0.97645 0.54858 0.50285 0.0
Co811 Co 0.98877 0.55111 0.57042 0.0
H812 H 1.03353 0.57229 0.52165 0.0
O813 O 0.0846 0.44341 0.40891 0.0
O814 O 0.11661 0.46937 0.4568 0.0
O815 O 0.09839 0.5213 0.42312 0.0
O816 O 0.06541 0.5439 0.46413 0.0
O817 O 1.00077 0.49389 0.46805 0.0
O818 O 0.94254 0.54864 0.48242 0.0
O819 O 0.98938 0.59029 0.49606 0.0
O820 O 0.95837 0.50373 0.50508 0.0
O821 O 1.00439 0.48679 0.5448 0.0
O822 O 0.97543 0.5106 0.59067 0.0
O823 O 0.95219 0.55784 0.55637 0.0
O824 O 0.9852 0.58895 0.60126 0.0
C825 C 0.0988 0.44437 0.53087 0.0
C826 C 0.10038 0.54258 0.53165 0.0
C827 C 0.08849 0.5447 0.43562 0.0
C828 C 0.10974 0.44706 0.4266 0.0
C829 C 0.96057 0.57875 0.48257 0.0
C830 C 0.96965 0.48618 0.47845 0.0
C831 C 0.98349 0.48645 0.57554 0.0
C832 C 0.95941 0.58269 0.58352 0.0
O833 O 0.11913 0.47387 0.53295 0.0
O834 O 0.07232 0.43526 0.51304 0.0
O835 O 0.06943 0.53758 0.54071 0.0
O836 O 0.11066 0.52218 0.50904 0.0
Co837 Co 0.59209 0.9835 0.50987 0.0
Co838 Co 0.57887 0.97887 0.44294 0.0
Co839 Co 0.53463 1.01802 0.50704 0.0
O840 O 0.5524 0.98109 0.49039 0.0
H841 H 0.53469 0.96068 0.49293 0.0
O842 O 0.51704 0.05526 0.5233 0.0
Co843 Co 0.47924 0.05386 0.50021 0.0
Co844 Co 0.48699 0.05564 0.56751 0.0
H845 H 0.53495 0.07576 0.52275 0.0
O846 O 0.58071 0.93941 0.41444 0.0
O847 O 0.61557 0.9722 0.45654 0.0
O848 O 0.59457 0.01916 0.42261 0.0
O849 O 0.56423 0.04403 0.46467 0.0
O850 O 0.49827 0.99373 0.47215 0.0
O851 O 0.4477 0.05478 0.47583 0.0
O852 O 0.49501 0.09499 0.49099 0.0
O853 O 0.45834 1.01005 0.50534 0.0
O854 O 0.50474 0.9919 0.54962 0.0
O855 O 0.47077 1.01521 0.58724 0.0
O856 O 0.45345 0.06619 0.55172 0.0
O857 O 0.48561 0.09323 0.59925 0.0
C858 C 0.60643 0.95341 0.53197 0.0
C859 C 0.60246 0.04715 0.53094 0.0
C860 C 0.58646 0.0436 0.43567 0.0
C861 C 0.60746 0.94653 0.43068 0.0
C862 C 0.46749 0.08427 0.47472 0.0
C863 C 0.46736 0.98983 0.48072 0.0
C864 C 0.48079 0.99171 0.57679 0.0
C865 C 0.46069 0.08935 0.58105 0.0
O866 O 0.62584 0.98303 0.53079 0.0
O867 O 0.57782 0.94247 0.51821 0.0
O868 O 0.57146 0.04216 0.54176 0.0
O869 O 0.61129 0.02755 0.505 0.0
C870 C 0.19462 0.16508 0.29759 0.0
C871 C 0.21919 0.19121 0.31553 0.0
C872 C 0.1726 0.14005 0.31795 0.0
C873 C 0.17526 0.14079 0.35751 0.0
C874 C 0.20148 0.16597 0.3752 0.0
C875 C 0.22332 0.19064 0.35392 0.0
C876 C 0.14556 0.11351 0.29743 0.0
C877 C 0.20554 0.16766 0.41717 0.0
C878 C 0.09311 0.10134 0.41722 0.0
C879 C 0.09457 0.07178 0.4208 0.0
C880 C 0.11966 0.12424 0.39801 0.0
C881 C 0.14843 0.11735 0.3811 0.0
C882 C 0.15035 0.08765 0.38519 0.0
C883 C 0.12344 0.06525 0.40538 0.0
C884 C 0.11651 0.15563 0.39508 0.0
C885 C 0.18027 0.07909 0.36711 0.0
H886 H 0.1926 0.16404 0.26744 0.0
H887 H 0.24295 0.20998 0.3679 0.0
H888 H 0.14465 0.08985 0.30242 0.0
H889 H 0.1211 0.11547 0.30935 0.0
H890 H 0.14916 0.11439 0.2657 0.0
H891 H 0.22865 0.18722 0.42581 0.0
H892 H 0.18397 0.17173 0.43592 0.0
H893 H 0.20598 0.14466 0.42272 0.0
H894 H 0.07088 0.10651 0.42944 0.0
H895 H 0.12454 0.04236 0.40804 0.0
H896 H 0.11649 0.15764 0.36428 0.0
H897 H 0.13813 0.17592 0.40599 0.0
H898 H 0.09338 0.15804 0.41176 0.0
H899 H 0.1812 0.07566 0.33507 0.0
H900 H 0.17962 0.0568 0.37626 0.0
H901 H 0.20352 0.09881 0.37482 0.0
C902 C 0.8752 0.12302 0.33845 0.0
C903 C 0.88372 0.15546 0.33585 0.0
C904 C 0.88915 0.1133 0.36447 0.0
C905 C 0.91262 0.13671 0.38785 0.0
C906 C 0.91975 0.16965 0.38654 0.0
C907 C 0.90472 0.17855 0.36092 0.0
C908 C 0.88024 0.07794 0.36512 0.0
C909 C 0.94361 0.19582 0.41123 0.0
C910 C 0.93377 0.09691 0.4596 0.0
C911 C 0.96465 0.09569 0.44216 0.0
C912 C 0.91828 0.11361 0.44486 0.0
C913 C 0.93228 0.12626 0.40944 0.0
C914 C 0.96342 0.12466 0.39154 0.0
C915 C 0.97969 0.11019 0.40882 0.0
C916 C 0.88662 0.11669 0.46697 0.0
C917 C 0.97849 0.13622 0.35275 0.0
H918 H 0.85868 0.1053 0.31893 0.0
H919 H 0.91099 0.20365 0.35875 0.0
H920 H 0.90306 0.0719 0.36026 0.0
H921 H 0.86724 0.07151 0.39394 0.0
H922 H 0.86373 0.06299 0.34283 0.0
H923 H 0.93023 0.19909 0.44038 0.0
H924 H 0.96541 0.18989 0.4138 0.0
H925 H 0.95283 0.21901 0.39947 0.0
H926 H 0.92196 0.0852 0.48519 0.0
H927 H 1.00311 0.10827 0.39483 0.0
H928 H 0.86546 0.09413 0.46065 0.0
H929 H 0.88142 0.13679 0.45941 0.0
H930 H 0.88809 0.1205 0.49869 0.0
H931 H 0.96073 0.12369 0.33095 0.0
H932 H 1.00214 0.13207 0.34206 0.0
H933 H 0.98344 0.16217 0.35487 0.0
C934 C 0.86692 0.81869 0.34524 0.0
C935 C 0.85606 0.83241 0.3202 0.0
C936 C 0.88917 0.8377 0.37211 0.0
C937 C 0.90244 0.87135 0.37289 0.0
C938 C 0.8924 0.88537 0.34697 0.0
C939 C 0.8687 0.86586 0.32181 0.0
C940 C 0.89805 0.82172 0.40014 0.0
C941 C 0.90669 0.92102 0.34574 0.0
C942 C 0.93879 0.92425 0.46362 0.0
C943 C 0.97281 0.93002 0.45375 0.0
C944 C 0.91558 0.90504 0.43776 0.0
C945 C 0.92675 0.89174 0.40085 0.0
C946 C 0.96123 0.89773 0.39081 0.0
C947 C 0.9838 0.91675 0.41741 0.0
C948 C 0.87912 0.8992 0.4498 0.0
C949 C 0.97434 0.88454 0.35166 0.0
H950 H 0.85729 0.79299 0.34475 0.0
H951 H 0.86011 0.87699 0.30356 0.0
H952 H 0.92515 0.8265 0.39564 0.0
H953 H 0.89206 0.83182 0.43036 0.0
H954 H 0.88458 0.79541 0.39689 0.0
H955 H 0.89833 0.9279 0.3219 0.0
H956 H 0.89915 0.93363 0.37362 0.0
H957 H 0.93426 0.92949 0.34182 0.0
H958 H 0.93039 0.93525 0.49127 0.0
H959 H 1.01021 0.92179 0.40952 0.0
H960 H 0.86465 0.87311 0.44723 0.0
H961 H 0.86971 0.9094 0.4302 0.0
H962 H 0.87431 0.91001 0.48005 0.0
H963 H 0.96356 0.85803 0.34786 0.0
H964 H 1.00188 0.89209 0.34788 0.0
H965 H 0.96667 0.89265 0.32835 0.0
C966 C 0.20796 0.90706 0.32571 0.0
C967 C 0.18159 0.89183 0.30263 0.0
C968 C 0.20297 0.90379 0.36528 0.0
C969 C 0.17077 0.88673 0.38188 0.0
C970 C 0.14682 0.86621 0.35766 0.0
C971 C 0.15142 0.87073 0.31906 0.0
C972 C 0.2306 0.92154 0.39033 0.0
C973 C 0.11464 0.84205 0.37329 0.0
C974 C 0.1172 0.8951 0.4747 0.0
C975 C 0.10745 0.91873 0.4662 0.0
C976 C 0.14242 0.88698 0.44999 0.0
C977 C 0.15688 0.90269 0.41654 0.0
C978 C 0.14845 0.92863 0.41066 0.0
C979 C 0.12319 0.93538 0.43499 0.0
C980 C 0.15249 0.86117 0.45932 0.0
C981 C 0.16306 0.94773 0.37677 0.0
H982 H 0.23242 0.92077 0.31267 0.0
H983 H 0.13187 0.85615 0.30127 0.0
H984 H 0.23063 0.94605 0.40087 0.0
H985 H 0.22707 0.9093 0.41606 0.0
H986 H 0.25518 0.9236 0.37366 0.0
H987 H 0.11979 0.82795 0.39213 0.0
H988 H 0.09832 0.85444 0.39077 0.0
H989 H 0.10093 0.82512 0.34971 0.0
H990 H 0.10549 0.88333 0.50025 0.0
H991 H 0.11529 0.95396 0.42938 0.0
H992 H 0.1746 0.85874 0.44013 0.0
H993 H 0.13139 0.83797 0.45699 0.0
H994 H 0.15798 0.86649 0.48988 0.0
H995 H 0.19053 0.9567 0.37361 0.0
H996 H 0.15574 0.96901 0.38013 0.0
H997 H 0.15397 0.93272 0.34971 0.0
C998 C 0.18581 0.86828 0.6351 0.0
C999 C 0.20947 0.89281 0.65653 0.0
C1000 C 0.16243 0.87459 0.61834 0.0
C1001 C 0.16262 0.90618 0.62312 0.0
C1002 C 0.1871 0.93122 0.64358 0.0
C1003 C 0.21006 0.92421 0.66002 0.0
C1004 C 0.13748 0.84742 0.59574 0.0
C1005 C 0.18961 0.96571 0.64819 0.0
C1006 C 0.12588 0.94275 0.56424 0.0
C1007 C 0.09547 0.94079 0.58649 0.0
C1008 C 0.14595 0.92785 0.57312 0.0
C1009 C 0.13714 0.91344 0.60749 0.0
C1010 C 0.1061 0.91085 0.62987 0.0
C1011 C 0.08517 0.92384 0.61837 0.0
C1012 C 0.17775 0.92968 0.54709 0.0
C1013 C 0.09552 0.896 0.66706 0.0
H1014 H 0.18556 0.84404 0.63122 0.0
H1015 H 0.22798 0.94344 0.67654 0.0
H1016 H 0.11278 0.84101 0.61323 0.0
H1017 H 0.13505 0.85464 0.56841 0.0
H1018 H 0.14439 0.82577 0.58861 0.0
H1019 H 0.20595 0.97703 0.62312 0.0
H1020 H 0.16511 0.96802 0.64935 0.0
H1021 H 0.20096 0.97951 0.6748 0.0
H1022 H 0.13495 0.95712 0.54069 0.0
H1023 H 0.062 0.92292 0.63605 0.0
H1024 H 0.18357 0.90781 0.54586 0.0
H1025 H 0.19865 0.95048 0.55851 0.0
H1026 H 0.17625 0.93292 0.51716 0.0
H1027 H 0.08323 0.86976 0.6601 0.0
H1028 H 0.0774 0.90517 0.68669 0.0
H1029 H 0.11695 0.90054 0.68293 0.0
C1030 C 0.18418 0.2038 0.69825 0.0
C1031 C 0.21634 0.20306 0.69292 0.0
C1032 C 0.16025 0.1832 0.67405 0.0
C1033 C 0.16933 0.16283 0.64231 0.0
C1034 C 0.20206 0.16239 0.63664 0.0
C1035 C 0.22475 0.1816 0.66296 0.0
C1036 C 0.12512 0.18292 0.68278 0.0
C1037 C 0.21338 0.14227 0.60229 0.0
C1038 C 0.09989 0.09019 0.60097 0.0
C1039 C 0.09241 0.10155 0.57066 0.0
C1040 C 0.12517 0.1096 0.62388 0.0
C1041 C 0.1441 0.14122 0.61612 0.0
C1042 C 0.13768 0.15252 0.58461 0.0
C1043 C 0.1117 0.13267 0.56246 0.0
C1044 C 0.1308 0.09653 0.6573 0.0
C1045 C 0.15799 0.18574 0.57462 0.0
H1046 H 0.17756 0.21997 0.72196 0.0
H1047 H 0.24969 0.18104 0.659 0.0
H1048 H 0.1185 0.19061 0.65834 0.0
H1049 H 0.10749 0.15825 0.686 0.0
H1050 H 0.12166 0.1989 0.70971 0.0
H1051 H 0.24013 0.14593 0.60095 0.0
H1052 H 0.19858 0.11656 0.60354 0.0
H1053 H 0.20924 0.14828 0.57504 0.0
H1054 H 0.0854 0.06612 0.60754 0.0
H1055 H 0.10644 0.14156 0.53888 0.0
H1056 H 0.12637 0.11124 0.68497 0.0
H1057 H 0.15693 0.0979 0.6544 0.0
H1058 H 0.11424 0.07126 0.65911 0.0
H1059 H 0.15283 0.20371 0.59807 0.0
H1060 H 0.15239 0.18974 0.54694 0.0
H1061 H 0.18493 0.18999 0.57232 0.0
C1062 C 0.98084 0.27187 0.6096 0.0
C1063 C 0.95151 0.27494 0.62985 0.0
C1064 C 0.97932 0.24178 0.59016 0.0
C1065 C 0.94754 0.21812 0.58444 0.0
C1066 C 0.91924 0.22707 0.59169 0.0
C1067 C 0.92257 0.25761 0.61158 0.0
C1068 C 1.01116 0.23479 0.57983 0.0
C1069 C 0.88528 0.20336 0.58363 0.0
C1070 C 0.96518 0.14851 0.52758 0.0
C1071 C 0.96072 0.12946 0.55611 0.0
C1072 C 0.95505 0.17464 0.53537 0.0
C1073 C 0.94437 0.18438 0.5738 0.0
C1074 C 0.93871 0.16462 0.603 0.0
C1075 C 0.94636 0.13667 0.59339 0.0
C1076 C 0.9585 0.19336 0.50311 0.0
C1077 C 0.92782 0.17382 0.64502 0.0
H1078 H 1.00469 0.28936 0.61651 0.0
H1079 H 0.90049 0.26368 0.62097 0.0
H1080 H 1.00775 0.2108 0.58642 0.0
H1081 H 1.01928 0.23547 0.5484 0.0
H1082 H 1.03163 0.25279 0.59562 0.0
H1083 H 0.86732 0.21542 0.5844 0.0
H1084 H 0.88661 0.1886 0.55505 0.0
H1085 H 0.8757 0.18691 0.60608 0.0
H1086 H 0.97865 0.1443 0.49968 0.0
H1087 H 0.94406 0.12232 0.61576 0.0
H1088 H 0.97958 0.21643 0.50595 0.0
H1089 H 0.9356 0.19875 0.50452 0.0
H1090 H 0.9629 0.17979 0.4746 0.0
H1091 H 0.94823 0.17828 0.66258 0.0
H1092 H 0.90624 0.15356 0.6558 0.0
H1093 H 0.92084 0.19529 0.65019 0.0
C1094 C 0.88234 0.83476 0.67949 0.0
C1095 C 0.85058 0.834 0.69598 0.0
C1096 C 0.90438 0.86082 0.66116 0.0
C1097 C 0.89445 0.88683 0.66014 0.0
C1098 C 0.86228 0.88599 0.67648 0.0
C1099 C 0.84053 0.85934 0.69391 0.0
C1100 C 0.93825 0.86059 0.64309 0.0
C1101 C 0.85107 0.91347 0.67612 0.0
C1102 C 0.96443 0.966 0.64864 0.0
C1103 C 0.96618 0.96752 0.60904 0.0
C1104 C 0.94047 0.94023 0.66592 0.0
C1105 C 0.91807 0.91535 0.6429 0.0
C1106 C 0.91882 0.91736 0.6033 0.0
C1107 C 0.94265 0.94366 0.58696 0.0
C1108 C 0.94002 0.93894 0.70842 0.0
C1109 C 0.89584 0.89089 0.57761 0.0
H1110 H 0.88982 0.81484 0.6807 0.0
H1111 H 0.81592 0.85867 0.70677 0.0
H1112 H 0.94231 0.86445 0.61224 0.0
H1113 H 0.95787 0.88047 0.65808 0.0
H1114 H 0.94135 0.83775 0.64462 0.0
H1115 H 0.82519 0.909 0.69007 0.0
H1116 H 0.86785 0.93567 0.69154 0.0
H1117 H 0.85258 0.9178 0.64587 0.0
H1118 H 0.98259 0.98434 0.6658 0.0
H1119 H 0.94406 0.94445 0.55628 0.0
H1120 H 0.94693 0.91858 0.71176 0.0
H1121 H 0.9146 0.93484 0.72366 0.0
H1122 H 0.95753 0.96125 0.72282 0.0
H1123 H 0.90199 0.869 0.57453 0.0
H1124 H 0.89788 0.89733 0.54822 0.0
H1125 H 0.86964 0.88487 0.59085 0.0
C1126 C 0.35252 0.20282 0.20914 0.0
C1127 C 0.32799 0.20735 0.19212 0.0
C1128 C 0.37001 0.18249 0.19018 0.0
C1129 C 0.36377 0.16605 0.15236 0.0
C1130 C 0.33928 0.17067 0.13476 0.0
C1131 C 0.32163 0.19073 0.15482 0.0
C1132 C 0.39551 0.17881 0.21083 0.0
C1133 C 0.33204 0.15479 0.09425 0.0
C1134 C 0.43527 0.14046 0.09399 0.0
C1135 C 0.42428 0.10737 0.09605 0.0
C1136 C 0.41541 0.15916 0.11026 0.0
C1137 C 0.38374 0.14521 0.13115 0.0
C1138 C 0.37239 0.11172 0.1334 0.0
C1139 C 0.39236 0.09322 0.11537 0.0
C1140 C 0.42868 0.19418 0.10541 0.0
C1141 C 0.3396 0.09564 0.15636 0.0
H1142 H 0.35808 0.21511 0.23784 0.0
H1143 H 0.30313 0.19369 0.14091 0.0
H1144 H 0.39072 0.15309 0.21089 0.0
H1145 H 0.42067 0.18934 0.19528 0.0
H1146 H 0.39556 0.19073 0.24126 0.0
H1147 H 0.31277 0.16089 0.08416 0.0
H1148 H 0.35511 0.16217 0.07382 0.0
H1149 H 0.32348 0.12844 0.09309 0.0
H1150 H 0.4599 0.152 0.07964 0.0
H1151 H 0.3836 0.06795 0.11801 0.0
H1152 H 0.43102 0.20906 0.13414 0.0
H1153 H 0.411 0.1995 0.09122 0.0
H1154 H 0.45335 0.20146 0.08778 0.0
H1155 H 0.34033 0.10647 0.18719 0.0
H1156 H 0.33361 0.06951 0.15484 0.0
H1157 H 0.3193 0.09955 0.14557 0.0
C1158 C 0.86115 0.32713 0.16378 0.0
C1159 C 0.83401 0.33292 0.18705 0.0
C1160 C 0.8856 0.35064 0.143 0.0
C1161 C 0.88298 0.38099 0.14509 0.0
C1162 C 0.85477 0.38654 0.16696 0.0
C1163 C 0.83066 0.3625 0.18759 0.0
C1164 C 0.91496 0.34332 0.12001 0.0
C1165 C 0.85067 0.41833 0.16978 0.0
C1166 C 0.96664 0.44852 0.12918 0.0
C1167 C 0.96824 0.45251 0.09038 0.0
C1168 C 0.93834 0.42663 0.14778 0.0
C1169 C 0.91109 0.4074 0.12688 0.0
C1170 C 0.91217 0.41194 0.08791 0.0
C1171 C 0.94053 0.4347 0.07032 0.0
C1172 C 0.93822 0.42319 0.18948 0.0
C1173 C 0.88421 0.39157 0.0641 0.0
H1174 H 0.86358 0.30422 0.16205 0.0
H1175 H 0.80982 0.3674 0.20532 0.0
H1176 H 0.91948 0.35024 0.09048 0.0
H1177 H 0.93762 0.35746 0.13449 0.0
H1178 H 0.91137 0.31758 0.11737 0.0
H1179 H 0.8267 0.41848 0.18648 0.0
H1180 H 0.87131 0.43748 0.18408 0.0
H1181 H 0.85198 0.42429 0.14036 0.0
H1182 H 0.9879 0.46219 0.14489 0.0
H1183 H 0.94171 0.43729 0.04017 0.0
H1184 H 0.93915 0.39945 0.19109 0.0
H1185 H 0.91494 0.42444 0.20689 0.0
H1186 H 0.9597 0.44198 0.20281 0.0
H1187 H 0.8832 0.36646 0.05898 0.0
H1188 H 0.88737 0.39988 0.03554 0.0
H1189 H 0.85998 0.39158 0.07997 0.0
C1190 C 0.68697 0.8446 0.08531 0.0
C1191 C 0.71454 0.86893 0.1003 0.0
C1192 C 0.6614 0.85186 0.07469 0.0
C1193 C 0.66363 0.88414 0.07944 0.0
C1194 C 0.69078 0.90857 0.09639 0.0
C1195 C 0.71609 0.90065 0.10635 0.0
C1196 C 0.6328 0.82521 0.05691 0.0
C1197 C 0.69375 0.94321 0.10267 0.0
C1198 C 0.62526 0.91373 0.01326 0.0
C1199 C 0.59912 0.91954 0.03832 0.0
C1200 C 0.64562 0.9008 0.02577 0.0
C1201 C 0.63918 0.89298 0.06408 0.0
C1202 C 0.61129 0.89674 0.08862 0.0
C1203 C 0.59181 0.91036 0.07557 0.0
C1204 C 0.6754 0.89767 0.99889 0.0
C1205 C 0.60305 0.88795 0.12928 0.0
H1206 H 0.68601 0.82008 0.08072 0.0
H1207 H 0.73748 0.91931 0.11818 0.0
H1208 H 0.60875 0.82714 0.07088 0.0
H1209 H 0.63461 0.8272 0.02572 0.0
H1210 H 0.63265 0.80122 0.05951 0.0
H1211 H 0.71526 0.95895 0.11843 0.0
H1212 H 0.6967 0.95162 0.07427 0.0
H1213 H 0.67078 0.94585 0.1194 0.0
H1214 H 0.63127 0.92135 0.98491 0.0
H1215 H 0.57143 0.9148 0.09495 0.0
H1216 H 0.67658 0.87365 0.99798 0.0
H1217 H 0.69848 0.91556 0.00989 0.0
H1218 H 0.67494 0.90156 0.96893 0.0
H1219 H 0.60212 0.86323 0.12896 0.0
H1220 H 0.57888 0.88964 0.14333 0.0
H1221 H 0.62281 0.90415 0.14725 0.0
C1222 C 0.21492 0.71646 0.14423 0.0
C1223 C 0.23059 0.70726 0.16876 0.0
C1224 C 0.19126 0.69398 0.12136 0.0
C1225 C 0.18517 0.66111 0.12017 0.0
C1226 C 0.20541 0.65188 0.13931 0.0
C1227 C 0.22777 0.67508 0.16385 0.0
C1228 C 0.17129 0.70549 0.10071 0.0
C1229 C 0.20229 0.61739 0.13531 0.0
C1230 C 0.09522 0.60717 0.11136 0.0
C1231 C 0.09541 0.59805 0.07137 0.0
C1232 C 0.12463 0.62657 0.12758 0.0
C1233 C 0.1551 0.63693 0.10317 0.0
C1234 C 0.15544 0.62691 0.06262 0.0
C1235 C 0.12548 0.60769 0.0472 0.0
C1236 C 0.1228 0.63712 0.17078 0.0
C1237 C 0.18694 0.63709 0.03504 0.0
H1238 H 0.2205 0.74141 0.14371 0.0
H1239 H 0.24184 0.6677 0.18 0.0
H1240 H 0.17523 0.69839 0.06904 0.0
H1241 H 0.14436 0.69423 0.11027 0.0
H1242 H 0.17814 0.73189 0.10627 0.0
H1243 H 0.22358 0.61487 0.14578 0.0
H1244 H 0.17903 0.60383 0.15242 0.0
H1245 H 0.20083 0.60643 0.10456 0.0
H1246 H 0.07186 0.59949 0.12992 0.0
H1247 H 0.12554 0.60048 0.01617 0.0
H1248 H 0.13063 0.66358 0.17653 0.0
H1249 H 0.1401 0.6302 0.18357 0.0
H1250 H 0.09737 0.62653 0.18578 0.0
H1251 H 0.18884 0.6587 0.02319 0.0
H1252 H 0.18644 0.61814 0.01006 0.0
H1253 H 0.20949 0.64274 0.04939 0.0
C1254 C 0.35782 0.85662 0.82118 0.0
C1255 C 0.34565 0.82401 0.82534 0.0
C1256 C 0.3819 0.87898 0.84387 0.0
C1257 C 0.39429 0.86841 0.87112 0.0
C1258 C 0.38122 0.83571 0.87641 0.0
C1259 C 0.35687 0.81395 0.85367 0.0
C1260 C 0.39516 0.91366 0.83743 0.0
C1261 C 0.39391 0.82346 0.90499 0.0
C1262 C 0.48241 0.91517 0.89516 0.0
C1263 C 0.47715 0.93278 0.931 0.0
C1264 C 0.45565 0.89468 0.87508 0.0
C1265 C 0.42275 0.891 0.89181 0.0
C1266 C 0.41725 0.90844 0.9283 0.0
C1267 C 0.44461 0.92954 0.94726 0.0
C1268 C 0.46262 0.87679 0.83607 0.0
C1269 C 0.38252 0.90463 0.94737 0.0
H1270 H 0.34936 0.86458 0.79926 0.0
H1271 H 0.34732 0.78883 0.85729 0.0
H1272 H 0.39438 0.92924 0.86544 0.0
H1273 H 0.42155 0.9205 0.82462 0.0
H1274 H 0.38089 0.91845 0.81771 0.0
H1275 H 0.37956 0.79778 0.90756 0.0
H1276 H 0.42037 0.82643 0.89566 0.0
H1277 H 0.39272 0.83754 0.93405 0.0
H1278 H 0.50761 0.91791 0.88243 0.0
H1279 H 0.44058 0.94304 0.97514 0.0
H1280 H 0.44997 0.88089 0.81403 0.0
H1281 H 0.45258 0.85074 0.83794 0.0
H1282 H 0.48963 0.88403 0.82591 0.0
H1283 H 0.36916 0.91132 0.92843 0.0
H1284 H 0.38249 0.91955 0.97606 0.0
H1285 H 0.36837 0.87922 0.95139 0.0
C1286 C 0.21319 0.33365 0.80082 0.0
C1287 C 0.22947 0.32098 0.82095 0.0
C1288 C 0.19336 0.3518 0.82033 0.0
C1289 C 0.19015 0.35894 0.8615 0.0
C1290 C 0.20706 0.3466 0.88189 0.0
C1291 C 0.2259 0.32767 0.86164 0.0
C1292 C 0.17554 0.36318 0.79663 0.0
C1293 C 0.20561 0.35371 0.92537 0.0
C1294 C 0.16093 0.43013 0.90906 0.0
C1295 C 0.12671 0.41486 0.92039 0.0
C1296 C 0.18167 0.41254 0.89028 0.0
C1297 C 0.16856 0.37843 0.88288 0.0
C1298 C 0.13425 0.36299 0.89521 0.0
C1299 C 0.11402 0.38112 0.91313 0.0
C1300 C 0.21779 0.4306 0.87796 0.0
C1301 C 0.11859 0.327 0.88917 0.0
H1302 H 0.21554 0.3289 0.76944 0.0
H1303 H 0.23878 0.31895 0.87773 0.0
H1304 H 0.14844 0.35411 0.80621 0.0
H1305 H 0.1842 0.38968 0.8013 0.0
H1306 H 0.17962 0.35513 0.76513 0.0
H1307 H 0.22144 0.34415 0.93705 0.0
H1308 H 0.21384 0.37994 0.93429 0.0
H1309 H 0.17962 0.34309 0.93868 0.0
H1310 H 0.17147 0.45601 0.91417 0.0
H1311 H 0.08791 0.36857 0.92181 0.0
H1312 H 0.22322 0.42566 0.84606 0.0
H1313 H 0.23374 0.42232 0.89129 0.0
H1314 H 0.2247 0.45685 0.88625 0.0
H1315 H 0.12101 0.31805 0.85779 0.0
H1316 H 0.09186 0.31832 0.90074 0.0
H1317 H 0.13179 0.31646 0.90367 0.0
C1318 C 0.69337 0.1894 0.81838 0.0
C1319 C 0.72714 0.19671 0.82086 0.0
C1320 C 0.6687 0.16922 0.84286 0.0
C1321 C 0.67797 0.15239 0.86611 0.0
C1322 C 0.71199 0.15865 0.8673 0.0
C1323 C 0.73585 0.18238 0.84694 0.0
C1324 C 0.63313 0.16677 0.84425 0.0
C1325 C 0.72385 0.13967 0.88841 0.0
C1326 C 0.62321 0.11873 0.95462 0.0
C1327 C 0.60308 0.08842 0.93874 0.0
C1328 C 0.64737 0.13983 0.93123 0.0
C1329 C 0.65249 0.12984 0.89102 0.0
C1330 C 0.63373 0.09837 0.87516 0.0
C1331 C 0.60882 0.078 0.89929 0.0
C1332 C 0.66671 0.17309 0.94956 0.0
C1333 C 0.63906 0.08658 0.83262 0.0
H1334 H 0.68607 0.20008 0.79831 0.0
H1335 H 0.76142 0.18898 0.85096 0.0
H1336 H 0.62018 0.14612 0.82355 0.0
H1337 H 0.61948 0.16338 0.87364 0.0
H1338 H 0.63193 0.18861 0.83584 0.0
H1339 H 0.74816 0.15451 0.89914 0.0
H1340 H 0.70607 0.12942 0.91313 0.0
H1341 H 0.72739 0.11941 0.86764 0.0
H1342 H 0.61867 0.12663 0.9853 0.0
H1343 H 0.59279 0.05476 0.88698 0.0
H1344 H 0.66699 0.19132 0.93244 0.0
H1345 H 0.69284 0.17548 0.94993 0.0
H1346 H 0.65622 0.17845 0.9799 0.0
H1347 H 0.62704 0.09667 0.81592 0.0
H1348 H 0.62803 0.06009 0.82667 0.0
H1349 H 0.66597 0.09445 0.82186 0.0
C1350 C 0.92626 0.71658 0.90816 0.0
C1351 C 0.90546 0.69958 0.87951 0.0
C1352 C 0.93328 0.7004 0.93355 0.0
C1353 C 0.91952 0.6666 0.92933 0.0
C1354 C 0.89577 0.64972 0.90296 0.0
C1355 C 0.88908 0.66656 0.87807 0.0
C1356 C 0.95797 0.71919 0.96209 0.0
C1357 C 0.88014 0.6137 0.89809 0.0
C1358 C 0.97761 0.62488 0.93621 0.0
C1359 C 0.96458 0.61236 0.97114 0.0
C1360 C 0.96332 0.64305 0.92272 0.0
C1361 C 0.93559 0.64902 0.94516 0.0
C1362 C 0.92305 0.63722 0.98123 0.0
C1363 C 0.93745 0.6184 0.99353 0.0
C1364 C 0.9771 0.65472 0.88371 0.0
C1365 C 0.89377 0.64328 0.00599 0.0
H1366 H 0.93843 0.74231 0.90927 0.0
H1367 H 0.87266 0.65375 0.85597 0.0
H1368 H 0.95016 0.70939 0.99017 0.0
H1369 H 0.98252 0.7173 0.95045 0.0
H1370 H 0.96103 0.7449 0.96732 0.0
H1371 H 0.85762 0.60498 0.8827 0.0
H1372 H 0.89836 0.60341 0.88091 0.0
H1373 H 0.87322 0.60461 0.92656 0.0
H1374 H 0.99822 0.61935 0.91872 0.0
H1375 H 0.92667 0.60739 0.01969 0.0
H1376 H 0.98451 0.6811 0.88675 0.0
H1377 H 0.95766 0.64421 0.86365 0.0
H1378 H 0.99903 0.64826 0.87028 0.0
H1379 H 0.89632 0.66863 0.00762 0.0
H1380 H 0.89116 0.6374 0.03579 0.0
H1381 H 0.87064 0.62828 0.99287 0.0
C1382 C 0.18754 0.33745 0.06847 0.0
C1383 C 0.16721 0.3189 0.09696 0.0
C1384 C 0.17819 0.36014 0.05629 0.0
C1385 C 0.14769 0.36374 0.0728 0.0
C1386 C 0.12736 0.34517 0.10199 0.0
C1387 C 0.13749 0.32297 0.11384 0.0
C1388 C 0.20106 0.38045 0.02626 0.0
C1389 C 0.09473 0.34847 0.12035 0.0
C1390 C 0.13157 0.43917 0.07135 0.0
C1391 C 0.10933 0.4292 0.04329 0.0
C1392 C 0.14526 0.41846 0.08024 0.0
C1393 C 0.13691 0.38714 0.06016 0.0
C1394 C 0.11597 0.37741 0.03029 0.0
C1395 C 0.10203 0.39848 0.02251 0.0
C1396 C 0.1673 0.42965 0.11246 0.0
C1397 C 0.10757 0.34445 0.00743 0.0
H1398 H 0.21058 0.33408 0.05569 0.0
H1399 H 0.1219 0.30828 0.13577 0.0
H1400 H 0.18684 0.38191 0.00404 0.0
H1401 H 0.21314 0.40516 0.04041 0.0
H1402 H 0.22083 0.37113 0.01174 0.0
H1403 H 0.08217 0.33256 0.14309 0.0
H1404 H 0.09889 0.37355 0.13356 0.0
H1405 H 0.0778 0.3426 0.09782 0.0
H1406 H 0.13748 0.46291 0.08755 0.0
H1407 H 0.08504 0.39069 1.00068 0.0
H1408 H 0.19046 0.42443 0.10288 0.0
H1409 H 0.15422 0.41651 0.13753 0.0
H1410 H 0.17408 0.45569 0.12244 0.0
H1411 H 0.13073 0.34011 0.99446 0.0
H1412 H 0.09231 0.34116 0.98387 0.0
H1413 H 0.09368 0.32612 0.02705 0.0
C1414 C 0.19787 0.67936 0.80648 0.0
C1415 C 0.23006 0.69744 0.81623 0.0
C1416 C 0.17552 0.65582 0.82858 0.0
C1417 C 0.18543 0.64979 0.86153 0.0
C1418 C 0.21856 0.66667 0.8704 0.0
C1419 C 0.24052 0.69029 0.84761 0.0
C1420 C 0.14065 0.63852 0.8176 0.0
C1421 C 0.23037 0.66077 0.90491 0.0
C1422 C 0.11139 0.62191 0.93731 0.0
C1423 C 0.10249 0.58858 0.9305 0.0
C1424 C 0.13987 0.64213 0.91719 0.0
C1425 C 0.15973 0.62876 0.88868 0.0
C1426 C 0.15188 0.59512 0.88318 0.0
C1427 C 0.12344 0.57538 0.90448 0.0
C1428 C 0.14748 0.67777 0.92469 0.0
C1429 C 0.1722 0.57977 0.85305 0.0
H1430 H 0.18977 0.68394 0.78174 0.0
H1431 H 0.26547 0.70385 0.85516 0.0
H1432 H 0.13344 0.61234 0.81692 0.0
H1433 H 0.12293 0.64635 0.83968 0.0
H1434 H 0.138 0.64333 0.78888 0.0
H1435 H 0.25767 0.67284 0.90523 0.0
H1436 H 0.21776 0.66982 0.93199 0.0
H1437 H 0.22377 0.63476 0.90502 0.0
H1438 H 0.09543 0.63218 0.95786 0.0
H1439 H 0.11663 0.54961 0.89922 0.0
H1440 H 0.1429 0.6857 0.89909 0.0
H1441 H 0.17404 0.69077 0.92895 0.0
H1442 H 0.1319 0.68468 0.95051 0.0
H1443 H 0.16643 0.58004 0.8238 0.0
H1444 H 0.16674 0.55456 0.85694 0.0
H1445 H 0.19917 0.59335 0.85404 0.0
C1446 C 0.40496 0.17317 0.86844 0.0
C1447 C 0.37042 0.16377 0.87681 0.0
C1448 C 0.42395 0.16852 0.89325 0.0
C1449 C 0.40773 0.15318 0.92644 0.0
C1450 C 0.37327 0.14665 0.93699 0.0
C1451 C 0.35491 0.15212 0.91194 0.0
C1452 C 0.46084 0.17699 0.88174 0.0
C1453 C 0.35524 0.13086 0.97253 0.0
C1454 C 0.44071 0.09063 0.93888 0.0
C1455 C 0.46029 0.10562 0.96931 0.0
C1456 C 0.42302 0.10574 0.9256 0.0
C1457 C 0.42466 0.13675 0.94329 0.0
C1458 C 0.44361 0.15184 0.97484 0.0
C1459 C 0.46124 0.13597 0.9876 0.0
C1460 C 0.40326 0.08869 0.89176 0.0
C1461 C 0.44551 0.18465 0.99486 0.0
H1462 H 0.4169 0.18283 0.84157 0.0
H1463 H 0.32816 0.14524 0.91851 0.0
H1464 H 0.47464 0.18705 0.90749 0.0
H1465 H 0.4659 0.15502 0.86819 0.0
H1466 H 0.47054 0.19454 0.86056 0.0
H1467 H 0.33043 0.13307 0.98083 0.0
H1468 H 0.3517 0.10506 0.96659 0.0
H1469 H 0.37005 0.14144 0.99741 0.0
H1470 H 0.43947 0.06698 0.92489 0.0
H1471 H 0.47649 0.14769 0.01097 0.0
H1472 H 0.41336 0.10259 0.86685 0.0
H1473 H 0.37695 0.08672 0.89975 0.0
H1474 H 0.40388 0.06426 0.88209 0.0
H1475 H 0.4487 0.20092 0.97352 0.0
H1476 H 0.46627 0.19555 0.01315 0.0
H1477 H 0.42193 0.1827 0.01377 0.0
C1478 C 0.83452 0.34382 0.86037 0.0
C1479 C 0.84642 0.32653 0.82789 0.0
C1480 C 0.85663 0.36713 0.88526 0.0
C1481 C 0.89119 0.37235 0.87835 0.0
C1482 C 0.90307 0.35462 0.84602 0.0
C1483 C 0.88089 0.3327 0.82106 0.0
C1484 C 0.84312 0.38617 0.91888 0.0
C1485 C 0.93941 0.35845 0.8378 0.0
C1486 C 0.9617 0.44726 0.9134 0.0
C1487 C 0.97213 0.43662 0.94194 0.0
C1488 C 0.93395 0.42734 0.89418 0.0
C1489 C 0.91564 0.39617 0.90421 0.0
C1490 C 0.92477 0.38616 0.93485 0.0
C1491 C 0.9531 0.4063 0.95296 0.0
C1492 C 0.92554 0.43895 0.86143 0.0
C1493 C 0.90575 0.35343 0.94708 0.0
H1494 H 0.80808 0.33909 0.86656 0.0
H1495 H 0.89089 0.31971 0.79636 0.0
H1496 H 0.84947 0.38292 0.94648 0.0
H1497 H 0.85485 0.41203 0.91592 0.0
H1498 H 0.81572 0.37915 0.92071 0.0
H1499 H 0.94449 0.34216 0.81198 0.0
H1500 H 0.9548 0.38343 0.83295 0.0
H1501 H 0.94761 0.35346 0.86313 0.0
H1502 H 0.97617 0.4707 0.90478 0.0
H1503 H 0.96057 0.39813 0.97553 0.0
H1504 H 0.89846 0.43405 0.8642 0.0
H1505 H 0.93211 0.42582 0.8334 0.0
H1506 H 0.93918 0.46496 0.86046 0.0
H1507 H 0.87862 0.3484 0.95066 0.0
H1508 H 0.91287 0.35102 0.9747 0.0
H1509 H 0.91074 0.335 0.92419 0.0
C1510 C 0.72266 0.83946 0.78973 0.0
C1511 C 0.73336 0.82223 0.81044 0.0
C1512 C 0.70611 0.86073 0.80869 0.0
C1513 C 0.69908 0.86492 0.84986 0.0
C1514 C 0.70978 0.8474 0.87085 0.0
C1515 C 0.72693 0.82687 0.85109 0.0
C1516 C 0.69589 0.87862 0.78437 0.0
C1517 C 0.70252 0.84974 0.91437 0.0
C1518 C 0.67335 0.93695 0.90362 0.0
C1519 C 0.63835 0.92381 0.90665 0.0
C1520 C 0.69336 0.91841 0.88543 0.0
C1521 C 0.67845 0.88548 0.87038 0.0
C1522 C 0.6432 0.87206 0.87455 0.0
C1523 C 0.62398 0.89114 0.89193 0.0
C1524 C 0.73065 0.93423 0.88191 0.0
C1525 C 0.62546 0.83718 0.86059 0.0
H1526 H 0.72768 0.83665 0.7584 0.0
H1527 H 0.73432 0.81352 0.86757 0.0
H1528 H 0.6684 0.86961 0.7859 0.0
H1529 H 0.70419 0.90446 0.7958 0.0
H1530 H 0.7063 0.87584 0.75347 0.0
H1531 H 0.71028 0.83313 0.92641 0.0
H1532 H 0.71583 0.87449 0.9275 0.0
H1533 H 0.67553 0.84434 0.9232 0.0
H1534 H 0.68517 0.96186 0.91487 0.0
H1535 H 0.59714 0.88 0.89433 0.0
H1536 H 0.74107 0.93183 0.851 0.0
H1537 H 0.74129 0.92209 0.89762 0.0
H1538 H 0.73875 0.96 0.89375 0.0
H1539 H 0.63061 0.83265 0.82861 0.0
H1540 H 0.59811 0.82954 0.86845 0.0
H1541 H 0.6348 0.82201 0.87313 0.0
C1542 C 0.8387 0.70682 0.15233 0.0
C1543 C 0.83999 0.71865 0.19195 0.0
C1544 C 0.85658 0.68681 0.1327 0.0
C1545 C 0.87747 0.6786 0.15244 0.0
C1546 C 0.87907 0.69094 0.19246 0.0
C1547 C 0.86013 0.71006 0.21158 0.0
C1548 C 0.85295 0.6745 0.09056 0.0
C1549 C 0.901 0.68397 0.21534 0.0
C1550 C 0.90604 0.60566 0.11248 0.0
C1551 C 0.93919 0.62014 0.09637 0.0
C1552 C 0.88581 0.62404 0.13036 0.0
C1553 C 0.89818 0.65803 0.13158 0.0
C1554 C 0.93119 0.67246 0.11397 0.0
C1555 C 0.9511 0.65371 0.09739 0.0
C1556 C 0.85111 0.60701 0.14852 0.0
C1557 C 0.94572 0.70805 0.11264 0.0
H1558 H 0.82276 0.71233 0.13683 0.0
H1559 H 0.86128 0.71859 0.24223 0.0
H1560 H 0.87617 0.68734 0.0729 0.0
H1561 H 0.84891 0.6486 0.08486 0.0
H1562 H 0.83197 0.67825 0.08098 0.0
H1563 H 0.89997 0.69532 0.24598 0.0
H1564 H 0.89337 0.65776 0.21489 0.0
H1565 H 0.92715 0.69278 0.20178 0.0
H1566 H 0.8961 0.57993 0.11209 0.0
H1567 H 0.97628 0.66552 0.08461 0.0
H1568 H 0.83286 0.61241 0.13546 0.0
H1569 H 0.84875 0.6158 0.17996 0.0
H1570 H 0.84458 0.58068 0.14484 0.0
H1571 H 0.93024 0.71502 0.09687 0.0
H1572 H 0.97161 0.71594 0.09807 0.0
H1573 H 0.94552 0.72103 0.14248 0.0
C1574 C 0.37244 0.84522 0.18796 0.0
C1575 C 0.33897 0.82996 0.18171 0.0
C1576 C 0.39472 0.86707 0.16368 0.0
C1577 C 0.38276 0.87548 0.13408 0.0
C1578 C 0.34919 0.85964 0.12704 0.0
C1579 C 0.32813 0.83605 0.14986 0.0
C1580 C 0.43123 0.8803 0.16891 0.0
C1581 C 0.33579 0.86726 0.09495 0.0
C1582 C 0.4442 0.95314 0.09967 0.0
C1583 C 0.45928 0.94125 0.06522 0.0
C1584 C 0.41712 0.93209 0.12108 0.0
C1585 C 0.40621 0.89864 0.10831 0.0
C1586 C 0.41992 0.88716 0.07203 0.0
C1587 C 0.44534 0.90876 0.05053 0.0
C1588 C 0.40114 0.9454 0.1581 0.0
C1589 C 0.41076 0.85198 0.05662 0.0
H1590 H 0.38141 0.83983 0.21158 0.0
H1591 H 0.303 0.82269 0.143 0.0
H1592 H 0.44621 0.87689 0.14079 0.0
H1593 H 0.43925 0.90634 0.17889 0.0
H1594 H 0.43692 0.8686 0.19031 0.0
H1595 H 0.30892 0.85326 0.09367 0.0
H1596 H 0.33988 0.89318 0.09917 0.0
H1597 H 0.34924 0.86202 0.06644 0.0
H1598 H 0.45445 0.9783 0.11081 0.0
H1599 H 0.45616 0.8995 0.02312 0.0
H1600 H 0.40902 0.94012 0.18341 0.0
H1601 H 0.37369 0.93391 0.15981 0.0
H1602 H 0.40807 0.97172 0.16029 0.0
H1603 H 0.4313 0.84425 0.05974 0.0
H1604 H 0.40821 0.84814 0.02516 0.0
H1605 H 0.38762 0.83621 0.07155 0.0
C1606 C 0.69852 0.18441 0.19276 0.0
C1607 C 0.71852 0.21458 0.18198 0.0
C1608 C 0.67438 0.16263 0.16998 0.0
C1609 C 0.67113 0.17048 0.13438 0.0
C1610 C 0.69254 0.20022 0.12217 0.0
C1611 C 0.71553 0.22232 0.14663 0.0
C1612 C 0.65133 0.13187 0.18505 0.0
C1613 C 0.69066 0.20891 0.08371 0.0
C1614 C 0.61949 0.09964 0.0682 0.0
C1615 C 0.58836 0.10311 0.07611 0.0
C1616 C 0.64717 0.12219 0.08557 0.0
C1617 C 0.64349 0.14853 0.11186 0.0
C1618 C 0.61232 0.15245 0.11933 0.0
C1619 C 0.58529 0.12988 0.10124 0.0
C1620 C 0.68015 0.11746 0.07647 0.0
C1621 C 0.60707 0.17976 0.14779 0.0
H1622 H 0.70082 0.17822 0.21996 0.0
H1623 H 0.73124 0.2455 0.13809 0.0
H1624 H 0.62552 0.13177 0.19057 0.0
H1625 H 0.65136 0.111 0.16317 0.0
H1626 H 0.65827 0.12873 0.2124 0.0
H1627 H 0.71162 0.23095 0.07631 0.0
H1628 H 0.69082 0.18901 0.06026 0.0
H1629 H 0.66699 0.21281 0.08457 0.0
H1630 H 0.62226 0.0793 0.04846 0.0
H1631 H 0.56141 0.13288 0.10765 0.0
H1632 H 0.6866 0.11192 0.10263 0.0
H1633 H 0.70013 0.13979 0.06824 0.0
H1634 H 0.67978 0.09769 0.05262 0.0
H1635 H 0.61041 0.17724 0.17726 0.0
H1636 H 0.58188 0.18052 0.14863 0.0
H1637 H 0.62579 0.20295 0.14034 0.0
C1638 C 0.73157 0.67545 0.82637 0.0
C1639 C 0.72008 0.69526 0.81123 0.0
C1640 C 0.70948 0.65035 0.84649 0.0
C1641 C 0.67505 0.64496 0.85178 0.0
C1642 C 0.66337 0.66536 0.83741 0.0
C1643 C 0.68602 0.69025 0.81733 0.0
C1644 C 0.72295 0.62928 0.86154 0.0
C1645 C 0.62692 0.6609 0.84321 0.0
C1646 C 0.60971 0.56406 0.87126 0.0
C1647 C 0.60185 0.5691 0.91153 0.0
C1648 C 0.63467 0.58805 0.85161 0.0
C1649 C 0.65116 0.61816 0.87258 0.0
C1650 C 0.64366 0.62312 0.9133 0.0
C1651 C 0.61954 0.59835 0.93223 0.0
C1652 C 0.64268 0.5816 0.80828 0.0
C1653 C 0.65985 0.65511 0.93668 0.0
H1654 H 0.75786 0.67922 0.82205 0.0
H1655 H 0.67698 0.70577 0.80632 0.0
H1656 H 0.71541 0.62901 0.89315 0.0
H1657 H 0.71231 0.60431 0.84734 0.0
H1658 H 0.7505 0.63731 0.85619 0.0
H1659 H 0.622 0.67933 0.83118 0.0
H1660 H 0.61232 0.63697 0.82901 0.0
H1661 H 0.61772 0.66195 0.87457 0.0
H1662 H 0.59593 0.54157 0.85509 0.0
H1663 H 0.61304 0.60268 0.96306 0.0
H1664 H 0.66986 0.5875 0.80061 0.0
H1665 H 0.6354 0.59714 0.79373 0.0
H1666 H 0.62963 0.55625 0.79669 0.0
H1667 H 0.68726 0.66191 0.9324 0.0
H1668 H 0.65131 0.65504 0.96818 0.0
H1669 H 0.65411 0.67389 0.92655 0.0
C1670 C 0.408 0.61455 0.79973 0.0
C1671 C 0.39206 0.63689 0.80902 0.0
C1672 C 0.43057 0.61427 0.82323 0.0
C1673 C 0.43737 0.63683 0.85706 0.0
C1674 C 0.42404 0.66157 0.86412 0.0
C1675 C 0.40125 0.66105 0.84031 0.0
C1676 C 0.44501 0.58809 0.81347 0.0
C1677 C 0.4319 0.68775 0.89773 0.0
C1678 C 0.44508 0.59242 0.93245 0.0
C1679 C 0.47951 0.60008 0.92915 0.0
C1680 C 0.43119 0.60691 0.91205 0.0
C1681 C 0.45226 0.6298 0.88769 0.0
C1682 C 0.48724 0.64016 0.88759 0.0
C1683 C 0.50055 0.62508 0.9084 0.0
C1684 C 0.3938 0.59561 0.91391 0.0
C1685 C 0.51061 0.66484 0.86264 0.0
H1686 H 0.40184 0.59642 0.7748 0.0
H1687 H 0.38935 0.67868 0.84757 0.0
H1688 H 0.47199 0.59799 0.81643 0.0
H1689 H 0.43275 0.57018 0.83399 0.0
H1690 H 0.4414 0.5756 0.78355 0.0
H1691 H 0.43251 0.71049 0.88988 0.0
H1692 H 0.41183 0.68115 0.92202 0.0
H1693 H 0.45619 0.69204 0.90724 0.0
H1694 H 0.42882 0.57349 0.94917 0.0
H1695 H 0.52722 0.6311 0.90594 0.0
H1696 H 0.38584 0.58232 0.88553 0.0
H1697 H 0.38557 0.61645 0.92005 0.0
H1698 H 0.38095 0.57952 0.9364 0.0
H1699 H 0.51264 0.65337 0.8322 0.0
H1700 H 0.53588 0.67539 0.87216 0.0
H1701 H 0.50112 0.68431 0.86312 0.0
C1702 C 0.39068 0.33552 0.80404 0.0
C1703 C 0.35727 0.32923 0.81874 0.0
C1704 C 0.41646 0.35648 0.82577 0.0
C1705 C 0.40867 0.37 0.86409 0.0
C1706 C 0.37478 0.36337 0.87905 0.0
C1707 C 0.34962 0.34415 0.85559 0.0
C1708 C 0.45202 0.36446 0.80751 0.0
C1709 C 0.36493 0.37633 0.91992 0.0
C1710 C 0.47699 0.39986 0.93192 0.0
C1711 C 0.48779 0.43317 0.93288 0.0
C1712 C 0.45101 0.37907 0.91017 0.0
C1713 C 0.43591 0.39173 0.88801 0.0
C1714 C 0.44697 0.42529 0.88862 0.0
C1715 C 0.47236 0.44547 0.9112 0.0
C1716 C 0.43931 0.34353 0.91133 0.0
C1717 C 0.43231 0.44001 0.86495 0.0
H1718 H 0.39663 0.32444 0.77522 0.0
H1719 H 0.32385 0.34036 0.86645 0.0
H1720 H 0.46478 0.3908 0.80944 0.0
H1721 H 0.46556 0.35538 0.82346 0.0
H1722 H 0.4538 0.354 0.77655 0.0
H1723 H 0.33796 0.36473 0.92916 0.0
H1724 H 0.37922 0.37269 0.94054 0.0
H1725 H 0.3707 0.40241 0.92195 0.0
H1726 H 0.48844 0.39005 0.94871 0.0
H1727 H 0.48046 0.47111 0.91139 0.0
H1728 H 0.44337 0.33107 0.88186 0.0
H1729 H 0.41219 0.33416 0.92084 0.0
H1730 H 0.45243 0.33746 0.93121 0.0
H1731 H 0.43517 0.4302 0.8339 0.0
H1732 H 0.44424 0.46649 0.86775 0.0
H1733 H 0.40531 0.43382 0.87423 0.0
C1734 C 0.64641 0.34039 0.93157 0.0
C1735 C 0.66872 0.32808 0.90754 0.0
C1736 C 0.65532 0.37337 0.94108 0.0
C1737 C 0.68835 0.39363 0.92974 0.0
C1738 C 0.71291 0.38031 0.91499 0.0
C1739 C 0.70278 0.34732 0.90373 0.0
C1740 C 0.62764 0.38603 0.9558 0.0
C1741 C 0.74865 0.401 0.90499 0.0
C1742 C 0.66081 0.44855 0.89812 0.0
C1743 C 0.6575 0.46583 0.93462 0.0
C1744 C 0.68005 0.4293 0.89185 0.0
C1745 C 0.69386 0.42652 0.92383 0.0
C1746 C 0.69786 0.45027 0.95639 0.0
C1747 C 0.6796 0.47041 0.96131 0.0
C1748 C 0.67832 0.40635 0.85482 0.0
C1749 C 0.71659 0.45079 0.98863 0.0
H1750 H 0.62056 0.32506 0.93671 0.0
H1751 H 0.72103 0.33796 0.88684 0.0
H1752 H 0.63619 0.40815 0.97637 0.0
H1753 H 0.6192 0.39154 0.93104 0.0
H1754 H 0.60573 0.36798 0.96988 0.0
H1755 H 0.76541 0.38712 0.90033 0.0
H1756 H 0.75107 0.41118 0.87796 0.0
H1757 H 0.75688 0.4212 0.92836 0.0
H1758 H 0.64483 0.44643 0.87671 0.0
H1759 H 0.67835 0.48545 0.98875 0.0
H1760 H 0.65648 0.38402 0.85844 0.0
H1761 H 0.70096 0.40001 0.84753 0.0
H1762 H 0.67532 0.41673 0.83025 0.0
H1763 H 0.71141 0.42629 0.99487 0.0
H1764 H 0.7106 0.46535 0.01575 0.0
H1765 H 0.74364 0.46134 0.97936 0.0
C1766 C 0.70464 0.40155 0.14455 0.0
C1767 C 0.68921 0.38501 0.17643 0.0
C1768 C 0.6858 0.4039 0.11788 0.0
C1769 C 0.65073 0.3898 0.12365 0.0
C1770 C 0.63541 0.36963 0.15286 0.0
C1771 C 0.65492 0.36748 0.17915 0.0
C1772 C 0.70315 0.42461 0.08619 0.0
C1773 C 0.59816 0.35327 0.15901 0.0
C1774 C 0.61656 0.44986 0.10697 0.0
C1775 C 0.60606 0.43815 0.06996 0.0
C1776 C 0.6281 0.43259 0.126 0.0
C1777 C 0.63102 0.40347 0.10687 0.0
C1778 C 0.6187 0.39041 0.07055 0.0
C1779 C 0.60514 0.40752 0.05325 0.0
C1780 C 0.63867 0.44648 0.16601 0.0
C1781 C 0.62127 0.35948 0.04889 0.0
H1782 H 0.73128 0.41443 0.14191 0.0
H1783 H 0.64298 0.35431 0.20357 0.0
H1784 H 0.6917 0.41343 0.05899 0.0
H1785 H 0.70029 0.44823 0.09467 0.0
H1786 H 0.73013 0.42858 0.08069 0.0
H1787 H 0.59082 0.33347 0.17682 0.0
H1788 H 0.5868 0.37093 0.17424 0.0
H1789 H 0.58784 0.34362 0.13087 0.0
H1790 H 0.6159 0.4728 0.12145 0.0
H1791 H 0.59418 0.3972 0.02659 0.0
H1792 H 0.66612 0.45458 0.16454 0.0
H1793 H 0.62776 0.42807 0.18602 0.0
H1794 H 0.63094 0.46719 0.1786 0.0
H1795 H 0.64439 0.36501 0.02835 0.0
H1796 H 0.59998 0.34641 0.03174 0.0
H1797 H 0.62228 0.34357 0.0685 0.0
C1798 C 0.69244 0.72004 0.17934 0.0
C1799 C 0.71285 0.70902 0.19496 0.0
C1800 C 0.66958 0.69952 0.15392 0.0
C1801 C 0.66695 0.66714 0.14384 0.0
C1802 C 0.68752 0.65588 0.15943 0.0
C1803 C 0.71022 0.67693 0.18471 0.0
C1804 C 0.64811 0.71248 0.13793 0.0
C1805 C 0.68573 0.62162 0.14923 0.0
C1806 C 0.58684 0.60599 0.10804 0.0
C1807 C 0.59504 0.6037 0.06776 0.0
C1808 C 0.60987 0.62678 0.13309 0.0
C1809 C 0.64228 0.64497 0.11748 0.0
C1810 C 0.65092 0.6421 0.07674 0.0
C1811 C 0.627 0.62182 0.05234 0.0
C1812 C 0.59943 0.6295 0.17625 0.0
C1813 C 0.68549 0.66024 0.05894 0.0
H1814 H 0.69438 0.7448 0.18689 0.0
H1815 H 0.72622 0.66827 0.19611 0.0
H1816 H 0.65223 0.70928 0.10579 0.0
H1817 H 0.62148 0.69892 0.14645 0.0
H1818 H 0.65331 0.73827 0.14836 0.0
H1819 H 0.70351 0.61664 0.1637 0.0
H1820 H 0.66025 0.60513 0.15775 0.0
H1821 H 0.69116 0.6161 0.11741 0.0
H1822 H 0.5621 0.59187 0.11994 0.0
H1823 H 0.63366 0.61948 0.02131 0.0
H1824 H 0.6022 0.65464 0.18781 0.0
H1825 H 0.61577 0.62291 0.19112 0.0
H1826 H 0.57324 0.61392 0.18372 0.0
H1827 H 0.69107 0.68635 0.06639 0.0
H1828 H 0.68859 0.65445 0.02688 0.0
H1829 H 0.70412 0.65459 0.07098 0.0
C1830 C 0.33758 0.6466 0.0706 0.0
C1831 C 0.34146 0.67321 0.09886 0.0
C1832 C 0.36506 0.64493 0.04449 0.0
C1833 C 0.39637 0.66937 0.04946 0.0
C1834 C 0.39803 0.69925 0.07046 0.0
C1835 C 0.36944 0.70137 0.09333 0.0
C1836 C 0.3621 0.61421 0.01819 0.0
C1837 C 0.43093 0.72614 0.07649 0.0
C1838 C 0.44943 0.62886 0.07338 0.0
C1839 C 0.4729 0.63249 0.04107 0.0
C1840 C 0.42587 0.64314 0.0779 0.0
C1841 C 0.42493 0.65955 0.04786 0.0
C1842 C 0.45027 0.66489 0.01644 0.0
C1843 C 0.47471 0.65177 0.01387 0.0
C1844 C 0.40094 0.63858 0.11362 0.0
C1845 C 0.44945 0.68057 0.98312 0.0
H1846 H 0.31524 0.6255 0.07272 0.0
H1847 H 0.37213 0.72329 0.11288 0.0
H1848 H 0.3834 0.61768 0.99514 0.0
H1849 H 0.36159 0.59594 0.03538 0.0
H1850 H 0.33855 0.605 0.00476 0.0
H1851 H 0.42764 0.74845 0.09218 0.0
H1852 H 0.44518 0.71887 0.09373 0.0
H1853 H 0.44624 0.73156 0.04846 0.0
H1854 H 0.44881 0.61389 0.09429 0.0
H1855 H 0.49346 0.65425 0.98895 0.0
H1856 H 0.37724 0.61971 0.10581 0.0
H1857 H 0.39653 0.66108 0.12556 0.0
H1858 H 0.40924 0.63081 0.13677 0.0
H1859 H 0.43337 0.66181 0.96312 0.0
H1860 H 0.47465 0.69071 0.96733 0.0
H1861 H 0.43855 0.69945 0.99194 0.0
C1862 C 0.34012 0.36674 0.20334 0.0
C1863 C 0.34224 0.33622 0.19552 0.0
C1864 C 0.36249 0.39188 0.18324 0.0
C1865 C 0.38662 0.38596 0.15354 0.0
C1866 C 0.3878 0.3547 0.14459 0.0
C1867 C 0.36619 0.33046 0.16637 0.0
C1868 C 0.3612 0.42501 0.19483 0.0
C1869 C 0.41245 0.34698 0.11256 0.0
C1870 C 0.43653 0.44305 0.07927 0.0
C1871 C 0.46758 0.45629 0.09336 0.0
C1872 C 0.40913 0.42133 0.09961 0.0
C1873 C 0.41305 0.41285 0.13472 0.0
C1874 C 0.44377 0.42809 0.15026 0.0
C1875 C 0.4705 0.44953 0.12947 0.0
C1876 C 0.37676 0.40579 0.08216 0.0
C1877 C 0.44923 0.4201 0.18759 0.0
H1878 H 0.32173 0.37121 0.22618 0.0
H1879 H 0.36759 0.30674 0.16014 0.0
H1880 H 0.38418 0.44105 0.20769 0.0
H1881 H 0.3602 0.43508 0.16901 0.0
H1882 H 0.33945 0.42522 0.21633 0.0
H1883 H 0.40747 0.32087 0.10611 0.0
H1884 H 0.41175 0.35586 0.08565 0.0
H1885 H 0.43797 0.35919 0.12102 0.0
H1886 H 0.43426 0.44788 0.05119 0.0
H1887 H 0.49447 0.45978 0.14057 0.0
H1888 H 0.35554 0.40598 0.10446 0.0
H1889 H 0.37316 0.38042 0.07099 0.0
H1890 H 0.37622 0.41791 0.05789 0.0
H1891 H 0.42887 0.42131 0.21072 0.0
H1892 H 0.47331 0.43644 0.19781 0.0
H1893 H 0.44904 0.39527 0.18313 0.0
C1894 C 0.82653 0.67659 0.66631 0.0
C1895 C 0.84167 0.70525 0.69036 0.0
C1896 C 0.84428 0.65648 0.64648 0.0
C1897 C 0.87829 0.6641 0.65109 0.0
C1898 C 0.89372 0.69305 0.67516 0.0
C1899 C 0.87559 0.71304 0.69387 0.0
C1900 C 0.8265 0.62698 0.62021 0.0
C1901 C 0.92949 0.70279 0.68211 0.0
C1902 C 0.91651 0.59731 0.63461 0.0
C1903 C 0.93627 0.60146 0.59857 0.0
C1904 C 0.89728 0.61676 0.65129 0.0
C1905 C 0.89739 0.64164 0.63201 0.0
C1906 C 0.91714 0.64572 0.59534 0.0
C1907 C 0.93647 0.62614 0.57958 0.0
C1908 C 0.87732 0.6111 0.69033 0.0
C1909 C 0.91863 0.67148 0.57301 0.0
H1910 H 0.80051 0.66956 0.66305 0.0
H1911 H 0.88826 0.73498 0.71155 0.0
H1912 H 0.8391 0.62873 0.59018 0.0
H1913 H 0.82765 0.60543 0.62934 0.0
H1914 H 0.80003 0.62369 0.62004 0.0
H1915 H 0.93988 0.72827 0.69474 0.0
H1916 H 0.93106 0.68773 0.70251 0.0
H1917 H 0.94524 0.69903 0.65482 0.0
H1918 H 0.91649 0.57898 0.65026 0.0
H1919 H 0.95253 0.63076 0.55266 0.0
H1920 H 0.85092 0.60709 0.68864 0.0
H1921 H 0.88681 0.63265 0.7117 0.0
H1922 H 0.87848 0.59021 0.70115 0.0
H1923 H 0.89315 0.66963 0.56989 0.0
H1924 H 0.93262 0.67006 0.54371 0.0
H1925 H 0.93086 0.69533 0.58921 0.0
C1926 C 0.34159 0.83323 0.64953 0.0
C1927 C 0.35155 0.82245 0.67817 0.0
C1928 C 0.36386 0.859 0.63042 0.0
C1929 C 0.39679 0.87437 0.64046 0.0
C1930 C 0.40705 0.86286 0.66877 0.0
C1931 C 0.38413 0.83732 0.68762 0.0
C1932 C 0.35166 0.87072 0.60088 0.0
C1933 C 0.44179 0.87849 0.68044 0.0
C1934 C 0.46248 0.93206 0.57573 0.0
C1935 C 0.46162 0.96181 0.59454 0.0
C1936 C 0.44154 0.90336 0.59019 0.0
C1937 C 0.4194 0.9044 0.62443 0.0
C1938 C 0.4189 0.93437 0.64389 0.0
C1939 C 0.43987 0.96258 0.62871 0.0
C1940 C 0.44257 0.8719 0.56836 0.0
C1941 C 0.39584 0.93665 0.68059 0.0
H1942 H 0.31603 0.8222 0.64306 0.0
H1943 H 0.39127 0.82992 0.71101 0.0
H1944 H 0.35066 0.89477 0.6123 0.0
H1945 H 0.36912 0.8731 0.57381 0.0
H1946 H 0.32649 0.85446 0.59378 0.0
H1947 H 0.44598 0.86646 0.7026 0.0
H1948 H 0.46025 0.87807 0.65466 0.0
H1949 H 0.44649 0.90393 0.69231 0.0
H1950 H 0.47878 0.93107 0.54901 0.0
H1951 H 0.43891 0.98536 0.6435 0.0
H1952 H 0.41794 0.85714 0.55848 0.0
H1953 H 0.44788 0.85829 0.58776 0.0
H1954 H 0.46167 0.87514 0.54269 0.0
H1955 H 0.3697 0.92311 0.67493 0.0
H1956 H 0.39842 0.96176 0.69224 0.0
H1957 H 0.40094 0.92567 0.70315 0.0
C1958 C 0.19347 0.35083 0.60685 0.0
C1959 C 0.22518 0.37466 0.60793 0.0
C1960 C 0.16638 0.35769 0.59979 0.0
C1961 C 0.17123 0.3891 0.59385 0.0
C1962 C 0.20271 0.41368 0.59767 0.0
C1963 C 0.22935 0.40609 0.6044 0.0
C1964 C 0.13312 0.33097 0.59655 0.0
C1965 C 0.20878 0.44772 0.59261 0.0
C1966 C 0.12657 0.40522 0.52225 0.0
C1967 C 0.10797 0.42169 0.54668 0.0
C1968 C 0.14568 0.39251 0.5375 0.0
C1969 C 0.14535 0.3957 0.5782 0.0
C1970 C 0.12369 0.40933 0.60304 0.0
C1971 C 0.1057 0.42283 0.5869 0.0
C1972 C 0.16871 0.37857 0.50994 0.0
C1973 C 0.12126 0.41161 0.64652 0.0
H1974 H 0.19016 0.32654 0.6099 0.0
H1975 H 0.25368 0.42468 0.60625 0.0
H1976 H 0.11277 0.33887 0.61247 0.0
H1977 H 0.12853 0.32421 0.56568 0.0
H1978 H 0.13199 0.30939 0.60793 0.0
H1979 H 0.23376 0.46442 0.59983 0.0
H1980 H 0.20665 0.44883 0.56212 0.0
H1981 H 0.18977 0.45614 0.6113 0.0
H1982 H 0.12827 0.40454 0.49122 0.0
H1983 H 0.09137 0.43586 0.60572 0.0
H1984 H 0.16272 0.37395 0.47968 0.0
H1985 H 0.1674 0.35586 0.51839 0.0
H1986 H 0.1947 0.39558 0.51101 0.0
H1987 H 0.1166 0.38789 0.65497 0.0
H1988 H 0.10109 0.42023 0.66152 0.0
H1989 H 0.14513 0.42827 0.65685 0.0
C1990 C 0.74254 0.2017 0.631 0.0
C1991 C 0.76001 0.19255 0.65356 0.0
C1992 C 0.71833 0.17897 0.60854 0.0
C1993 C 0.7114 0.14594 0.60816 0.0
C1994 C 0.73155 0.13664 0.62737 0.0
C1995 C 0.75626 0.1601 0.64884 0.0
C1996 C 0.69882 0.19047 0.58728 0.0
C1997 C 0.72574 0.10179 0.62713 0.0
C1998 C 0.62389 0.08724 0.58902 0.0
C1999 C 0.62923 0.07424 0.5503 0.0
C2000 C 0.65037 0.11041 0.60823 0.0
C2001 C 0.68292 0.12129 0.58815 0.0
C2002 C 0.68811 0.10897 0.5487 0.0
C2003 C 0.66141 0.08555 0.53047 0.0
C2004 C 0.64362 0.12293 0.65024 0.0
C2005 C 0.72193 0.12062 0.52564 0.0
H2006 H 0.74704 0.22683 0.632 0.0
H2007 H 0.77114 0.15266 0.6637 0.0
H2008 H 0.69324 0.17555 0.55897 0.0
H2009 H 0.67478 0.18883 0.60501 0.0
H2010 H 0.7124 0.21573 0.5821 0.0
H2011 H 0.74412 0.09843 0.64234 0.0
H2012 H 0.70044 0.08974 0.64153 0.0
H2013 H 0.72697 0.08974 0.5969 0.0
H2014 H 0.59925 0.07856 0.6047 0.0
H2015 H 0.6658 0.07595 0.50042 0.0
H2016 H 0.65002 0.1492 0.65345 0.0
H2017 H 0.65958 0.11836 0.6679 0.0
H2018 H 0.6172 0.11171 0.66205 0.0
H2019 H 0.73027 0.14681 0.52531 0.0
H2020 H 0.72194 0.10868 0.49523 0.0
H2021 H 0.74042 0.11627 0.53952 0.0
C2022 C 0.83768 0.36826 0.34182 0.0
C2023 C 0.83486 0.33609 0.33726 0.0
C2024 C 0.85867 0.39144 0.3671 0.0
C2025 C 0.87771 0.38239 0.388 0.0
C2026 C 0.87489 0.34999 0.38388 0.0
C2027 C 0.8533 0.32715 0.35873 0.0
C2028 C 0.86093 0.42577 0.37083 0.0
C2029 C 0.89507 0.33959 0.40556 0.0
C2030 C 0.9566 0.44836 0.41795 0.0
C2031 C 0.9465 0.45842 0.45642 0.0
C2032 C 0.9346 0.42318 0.39562 0.0
C2033 C 0.90191 0.40729 0.41244 0.0
C2034 C 0.89192 0.41657 0.45172 0.0
C2035 C 0.91429 0.44232 0.4732 0.0
C2036 C 0.94602 0.41428 0.35366 0.0
C2037 C 0.8574 0.3998 0.47074 0.0
H2038 H 0.82353 0.37551 0.32552 0.0
H2039 H 0.85119 0.30237 0.3556 0.0
H2040 H 0.85595 0.43499 0.40171 0.0
H2041 H 0.88647 0.44093 0.36022 0.0
H2042 H 0.84312 0.42854 0.35414 0.0
H2043 H 0.88946 0.31337 0.39982 0.0
H2044 H 0.92198 0.352 0.39705 0.0
H2045 H 0.89016 0.34646 0.43719 0.0
H2046 H 0.98147 0.46085 0.40483 0.0
H2047 H 0.90662 0.44985 0.50311 0.0
H2048 H 0.9312 0.41899 0.33462 0.0
H2049 H 0.9419 0.38836 0.34776 0.0
H2050 H 0.97274 0.42795 0.34558 0.0
H2051 H 0.83886 0.40406 0.45684 0.0
H2052 H 0.85444 0.40821 0.50228 0.0
H2053 H 0.85162 0.37359 0.46667 0.0
C2054 C 0.70153 0.8283 0.30575 0.0
C2055 C 0.72785 0.82676 0.32226 0.0
C2056 C 0.6829 0.84794 0.32425 0.0
C2057 C 0.69006 0.86682 0.36087 0.0
C2058 C 0.71682 0.86529 0.37754 0.0
C2059 C 0.73525 0.84574 0.35809 0.0
C2060 C 0.65586 0.84904 0.30394 0.0
C2061 C 0.72627 0.8837 0.41644 0.0
C2062 C 0.66124 0.9401 0.39414 0.0
C2063 C 0.6301 0.92718 0.41587 0.0
C2064 C 0.68072 0.92104 0.37637 0.0
C2065 C 0.6698 0.88803 0.38099 0.0
C2066 C 0.63899 0.87533 0.40434 0.0
C2067 C 0.61931 0.89452 0.42022 0.0
C2068 C 0.71299 0.93621 0.35199 0.0
C2069 C 0.62676 0.84128 0.41284 0.0
H2070 H 0.69578 0.81442 0.27778 0.0
H2071 H 0.7559 0.84568 0.37099 0.0
H2072 H 0.63163 0.84098 0.32224 0.0
H2073 H 0.66107 0.87404 0.29947 0.0
H2074 H 0.65357 0.83377 0.27539 0.0
H2075 H 0.7537 0.89309 0.41642 0.0
H2076 H 0.71725 0.90394 0.42513 0.0
H2077 H 0.71556 0.8671 0.43865 0.0
H2078 H 0.66993 0.96502 0.38981 0.0
H2079 H 0.59544 0.88395 0.43677 0.0
H2080 H 0.71237 0.92303 0.32219 0.0
H2081 H 0.73385 0.93455 0.36431 0.0
H2082 H 0.71805 0.96175 0.35025 0.0
H2083 H 0.61975 0.82463 0.38597 0.0
H2084 H 0.60487 0.83601 0.43528 0.0
H2085 H 0.64687 0.83649 0.42293 0.0
C2086 C 0.21948 0.70399 0.35701 0.0
C2087 C 0.20804 0.71563 0.33029 0.0
C2088 C 0.19883 0.67698 0.37489 0.0
C2089 C 0.16518 0.66203 0.36764 0.0
C2090 C 0.15278 0.67504 0.3429 0.0
C2091 C 0.17441 0.70134 0.32411 0.0
C2092 C 0.2136 0.66362 0.40008 0.0
C2093 C 0.11682 0.66055 0.33539 0.0
C2094 C 0.1231 0.57365 0.38004 0.0
C2095 C 0.10578 0.57467 0.41738 0.0
C2096 C 0.14168 0.60174 0.36324 0.0
C2097 C 0.14354 0.63191 0.38437 0.0
C2098 C 0.12573 0.63314 0.4219 0.0
C2099 C 0.10694 0.60455 0.43786 0.0
C2100 C 0.16038 0.59908 0.32339 0.0
C2101 C 0.12724 0.66472 0.44563 0.0
H2102 H 0.24503 0.71538 0.36317 0.0
H2103 H 0.16506 0.71024 0.30395 0.0
H2104 H 0.1978 0.65931 0.42813 0.0
H2105 H 0.2147 0.64024 0.38535 0.0
H2106 H 0.23913 0.67977 0.40596 0.0
H2107 H 0.11034 0.67495 0.31811 0.0
H2108 H 0.11162 0.63607 0.3195 0.0
H2109 H 0.10038 0.65841 0.36326 0.0
H2110 H 0.12239 0.55074 0.36391 0.0
H2111 H 0.09402 0.60569 0.4669 0.0
H2112 H 0.18737 0.60871 0.32598 0.0
H2113 H 0.15575 0.61349 0.30448 0.0
H2114 H 0.15357 0.57396 0.30909 0.0
H2115 H 0.15295 0.67845 0.45291 0.0
H2116 H 0.1102 0.66162 0.47307 0.0
H2117 H 0.12079 0.67928 0.42861 0.0
C2118 C 0.38429 0.19598 0.42029 0.0
C2119 C 0.40511 0.21537 0.39283 0.0
C2120 C 0.39165 0.1708 0.4292 0.0
C2121 C 0.42071 0.16522 0.41027 0.0
C2122 C 0.44011 0.18306 0.38002 0.0
C2123 C 0.43225 0.20824 0.3719 0.0
C2124 C 0.36945 0.15213 0.46096 0.0
C2125 C 0.47029 0.17681 0.35781 0.0
C2126 C 0.46757 0.13816 0.4692 0.0
C2127 C 0.45736 0.10532 0.45652 0.0
C2128 C 0.45552 0.15774 0.45446 0.0
C2129 C 0.43346 0.14428 0.42561 0.0
C2130 C 0.42362 0.11119 0.41208 0.0
C2131 C 0.43544 0.09204 0.42801 0.0
C2132 C 0.4657 0.19275 0.47051 0.0
C2133 C 0.4 0.09589 0.38161 0.0
H2134 H 0.36303 0.2014 0.43603 0.0
H2135 H 0.44794 0.22306 0.35015 0.0
H2136 H 0.37138 0.12835 0.45938 0.0
H2137 H 0.37651 0.16609 0.48936 0.0
H2138 H 0.34307 0.1487 0.4599 0.0
H2139 H 0.4796 0.18925 0.33159 0.0
H2140 H 0.49047 0.18528 0.37678 0.0
H2141 H 0.46447 0.15078 0.34883 0.0
H2142 H 0.48404 0.14835 0.49167 0.0
H2143 H 0.42742 0.06656 0.41818 0.0
H2144 H 0.44328 0.19846 0.48359 0.0
H2145 H 0.47801 0.20764 0.44678 0.0
H2146 H 0.48293 0.19949 0.49293 0.0
H2147 H 0.37531 0.0974 0.39333 0.0
H2148 H 0.39679 0.07034 0.37214 0.0
H2149 H 0.40909 0.10892 0.35591 0.0
C2150 C 0.6921 0.86545 0.63171 0.0
C2151 C 0.66874 0.83542 0.63871 0.0
C2152 C 0.68487 0.88466 0.61035 0.0
C2153 C 0.6536 0.87331 0.59589 0.0
C2154 C 0.6309 0.84211 0.60099 0.0
C2155 C 0.63868 0.82362 0.62266 0.0
C2156 C 0.70975 0.91777 0.60547 0.0
C2157 C 0.59756 0.82897 0.58555 0.0
C2158 C 0.61288 0.93164 0.58788 0.0
C2159 C 0.61771 0.93239 0.54793 0.0
C2160 C 0.62533 0.91312 0.60395 0.0
C2161 C 0.64286 0.89497 0.57926 0.0
C2162 C 0.64824 0.89623 0.53882 0.0
C2163 C 0.63575 0.91522 0.52366 0.0
C2164 C 0.61948 0.91277 0.64729 0.0
C2165 C 0.6669 0.8774 0.51159 0.0
H2166 H 0.71527 0.87447 0.64448 0.0
H2167 H 0.62075 0.8003 0.62828 0.0
H2168 H 0.71182 0.92316 0.57558 0.0
H2169 H 0.70123 0.93567 0.62558 0.0
H2170 H 0.73478 0.92069 0.61191 0.0
H2171 H 0.58436 0.80318 0.58839 0.0
H2172 H 0.58171 0.84237 0.60173 0.0
H2173 H 0.60064 0.83215 0.55457 0.0
H2174 H 0.59951 0.94568 0.60651 0.0
H2175 H 0.64035 0.91694 0.49293 0.0
H2176 H 0.64355 0.91994 0.65906 0.0
H2177 H 0.60438 0.88818 0.65396 0.0
H2178 H 0.60643 0.92911 0.66248 0.0
H2179 H 0.69185 0.88347 0.52063 0.0
H2180 H 0.66993 0.8821 0.4812 0.0
H2181 H 0.65338 0.85143 0.51269 0.0
C2182 C 0.68791 0.18759 0.31638 0.0
C2183 C 0.71311 0.21238 0.33488 0.0
C2184 C 0.66463 0.16317 0.33629 0.0
C2185 C 0.66739 0.16279 0.37546 0.0
C2186 C 0.69188 0.1887 0.39499 0.0
C2187 C 0.71429 0.21356 0.37447 0.0
C2188 C 0.6383 0.13678 0.31455 0.0
C2189 C 0.69592 0.18911 0.43663 0.0
C2190 C 0.59554 0.10013 0.42726 0.0
C2191 C 0.60654 0.07414 0.41989 0.0
C2192 C 0.61547 0.12963 0.41417 0.0
C2193 C 0.64732 0.13334 0.39376 0.0
C2194 C 0.65893 0.10752 0.38732 0.0
C2195 C 0.63834 0.07825 0.4001 0.0
C2196 C 0.60217 0.15654 0.42128 0.0
C2197 C 0.69301 0.11065 0.36636 0.0
H2198 H 0.68659 0.18715 0.286 0.0
H2199 H 0.73383 0.23288 0.38873 0.0
H2200 H 0.64452 0.11478 0.30858 0.0
H2201 H 0.61368 0.13113 0.3322 0.0
H2202 H 0.63632 0.14323 0.2865 0.0
H2203 H 0.7119 0.21308 0.44941 0.0
H2204 H 0.67143 0.18192 0.45455 0.0
H2205 H 0.70757 0.17159 0.43808 0.0
H2206 H 0.57119 0.09736 0.44297 0.0
H2207 H 0.64751 0.05867 0.3951 0.0
H2208 H 0.59843 0.16153 0.39322 0.0
H2209 H 0.62036 0.17879 0.43476 0.0
H2210 H 0.57814 0.1508 0.44029 0.0
H2211 H 0.69409 0.11405 0.3358 0.0
H2212 H 0.69938 0.08927 0.3665 0.0
H2213 H 0.71221 0.132 0.37995 0.0
C2214 C 0.86641 0.68377 0.43002 0.0
C2215 C 0.84092 0.66197 0.40907 0.0
C2216 C 0.8914 0.67464 0.43874 0.0
C2217 C 0.89073 0.64304 0.42599 0.0
C2218 C 0.86625 0.62176 0.40237 0.0
C2219 C 0.84139 0.63142 0.39449 0.0
C2220 C 0.91695 0.69804 0.46398 0.0
C2221 C 0.86501 0.58807 0.38753 0.0
C2222 C 0.96056 0.61621 0.43896 0.0
C2223 C 0.94607 0.59948 0.47086 0.0
C2224 C 0.94329 0.63135 0.42418 0.0
C2225 C 0.91146 0.63039 0.4427 0.0
C2226 C 0.89784 0.61497 0.47629 0.0
C2227 C 0.9149 0.59898 0.48922 0.0
C2228 C 0.95818 0.6467 0.38767 0.0
C2229 C 0.86454 0.61419 0.49777 0.0
H2230 H 0.86596 0.70749 0.44094 0.0
H2231 H 0.82171 0.6148 0.3779 0.0
H2232 H 0.91039 0.69155 0.49386 0.0
H2233 H 0.942 0.69709 0.45334 0.0
H2234 H 0.91805 0.72296 0.46523 0.0
H2235 H 0.84785 0.57634 0.36494 0.0
H2236 H 0.89014 0.58802 0.37529 0.0
H2237 H 0.85637 0.57356 0.41191 0.0
H2238 H 0.98441 0.61589 0.42433 0.0
H2239 H 0.90363 0.5856 0.51361 0.0
H2240 H 0.95658 0.6708 0.39109 0.0
H2241 H 0.94385 0.632 0.36345 0.0
H2242 H 0.98458 0.64887 0.37954 0.0
H2243 H 0.86393 0.63875 0.50476 0.0
H2244 H 0.85894 0.60354 0.52516 0.0
H2245 H 0.84455 0.59992 0.47918 0.0
C2246 C 0.35036 0.8696 0.32626 0.0
C2247 C 0.32221 0.84545 0.34125 0.0
C2248 C 0.37252 0.89286 0.35042 0.0
C2249 C 0.36747 0.89128 0.39076 0.0
C2250 C 0.33902 0.86691 0.40624 0.0
C2251 C 0.31644 0.84446 0.38131 0.0
C2252 C 0.40176 0.91874 0.33246 0.0
C2253 C 0.33317 0.86384 0.44889 0.0
C2254 C 0.44603 0.93506 0.4418 0.0
C2255 C 0.4415 0.96368 0.45903 0.0
C2256 C 0.42149 0.91067 0.42101 0.0
C2257 C 0.3921 0.91533 0.41633 0.0
C2258 C 0.38749 0.94419 0.43371 0.0
C2259 C 0.41189 0.96767 0.45523 0.0
C2260 C 0.4272 0.88005 0.40361 0.0
C2261 C 0.35729 0.95082 0.42842 0.0
H2262 H 0.35528 0.87005 0.29515 0.0
H2263 H 0.29533 0.82523 0.39283 0.0
H2264 H 0.40291 0.94265 0.34778 0.0
H2265 H 0.42523 0.91579 0.33541 0.0
H2266 H 0.40048 0.91821 0.3012 0.0
H2267 H 0.30995 0.84374 0.4565 0.0
H2268 H 0.35443 0.85991 0.4574 0.0
H2269 H 0.33172 0.88632 0.46619 0.0
H2270 H 0.46864 0.93162 0.44481 0.0
H2271 H 0.40811 0.98972 0.46819 0.0
H2272 H 0.43038 0.87816 0.37153 0.0
H2273 H 0.40525 0.85911 0.41197 0.0
H2274 H 0.44957 0.87876 0.41295 0.0
H2275 H 0.35668 0.95086 0.39717 0.0
H2276 H 0.35704 0.97417 0.44438 0.0
H2277 H 0.33427 0.93164 0.43855 0.0
C2278 C 0.24087 0.35891 0.31313 0.0
C2279 C 0.2292 0.32643 0.31849 0.0
C2280 C 0.22302 0.37943 0.3306 0.0
C2281 C 0.19326 0.36813 0.3563 0.0
C2282 C 0.18242 0.33566 0.36326 0.0
C2283 C 0.19977 0.31525 0.34368 0.0
C2284 C 0.23654 0.41323 0.32092 0.0
C2285 C 0.15244 0.32235 0.39189 0.0
C2286 C 0.16085 0.43088 0.42484 0.0
C2287 C 0.13195 0.42751 0.40921 0.0
C2288 C 0.18087 0.41206 0.40828 0.0
C2289 C 0.17266 0.38931 0.37448 0.0
C2290 C 0.14437 0.38689 0.35776 0.0
C2291 C 0.12444 0.40534 0.37536 0.0
C2292 C 0.2113 0.41704 0.42676 0.0
C2293 C 0.13569 0.3655 0.32014 0.0
H2294 H 0.26362 0.36818 0.29406 0.0
H2295 H 0.19064 0.29049 0.34886 0.0
H2296 H 0.21709 0.42396 0.32487 0.0
H2297 H 0.25595 0.42819 0.33998 0.0
H2298 H 0.24853 0.4141 0.29051 0.0
H2299 H 0.15035 0.2989 0.3991 0.0
H2300 H 0.15369 0.3393 0.41903 0.0
H2301 H 0.12951 0.31913 0.37974 0.0
H2302 H 0.16779 0.44814 0.45033 0.0
H2303 H 0.10287 0.40254 0.36197 0.0
H2304 H 0.23381 0.43037 0.40841 0.0
H2305 H 0.21307 0.39375 0.42893 0.0
H2306 H 0.21136 0.43101 0.45609 0.0
H2307 H 0.15742 0.37197 0.29763 0.0
H2308 H 0.11413 0.36734 0.30948 0.0
H2309 H 0.12975 0.34022 0.32379 0.0
C2310 C 0.37385 0.22366 0.67324 0.0
C2311 C 0.3407 0.20993 0.68987 0.0
C2312 C 0.39281 0.20456 0.6535 0.0
C2313 C 0.37859 0.17044 0.64899 0.0
C2314 C 0.34471 0.15659 0.66437 0.0
C2315 C 0.3266 0.17617 0.68458 0.0
C2316 C 0.42858 0.22106 0.63821 0.0
C2317 C 0.32748 0.12075 0.66004 0.0
C2318 C 0.42093 0.11781 0.57439 0.0
C2319 C 0.4386 0.10919 0.59753 0.0
C2320 C 0.40195 0.13781 0.59022 0.0
C2321 C 0.39943 0.14933 0.6307 0.0
C2322 C 0.41668 0.14004 0.65413 0.0
C2323 C 0.43608 0.12082 0.63745 0.0
C2324 C 0.38487 0.14693 0.56329 0.0
C2325 C 0.41464 0.15043 0.69731 0.0
H2326 H 0.38544 0.2495 0.67662 0.0
H2327 H 0.30099 0.16479 0.69633 0.0
H2328 H 0.445 0.2145 0.65301 0.0
H2329 H 0.43276 0.21293 0.6068 0.0
H2330 H 0.43599 0.24752 0.64264 0.0
H2331 H 0.3005 0.11349 0.67037 0.0
H2332 H 0.33055 0.11045 0.62922 0.0
H2333 H 0.33901 0.11021 0.67683 0.0
H2334 H 0.42255 0.10952 0.54358 0.0
H2335 H 0.44916 0.1145 0.65614 0.0
H2336 H 0.39564 0.17319 0.56283 0.0
H2337 H 0.35803 0.1407 0.57379 0.0
H2338 H 0.38754 0.13486 0.53322 0.0
H2339 H 0.4244 0.17693 0.70325 0.0
H2340 H 0.42883 0.14101 0.71194 0.0
H2341 H 0.38832 0.14203 0.71032 0.0
C2342 C 0.84493 0.33617 0.66345 0.0
C2343 C 0.85615 0.31622 0.67885 0.0
C2344 C 0.86715 0.36223 0.64483 0.0
C2345 C 0.90183 0.3688 0.64101 0.0
C2346 C 0.91335 0.34813 0.65524 0.0
C2347 C 0.89042 0.32216 0.67393 0.0
C2348 C 0.8534 0.38365 0.63093 0.0
C2349 C 0.94998 0.3538 0.6515 0.0
C2350 C 0.95613 0.4264 0.56861 0.0
C2351 C 0.96577 0.45589 0.59258 0.0
C2352 C 0.936 0.39777 0.58393 0.0
C2353 C 0.92576 0.39839 0.62437 0.0
C2354 C 0.93674 0.42795 0.64882 0.0
C2355 C 0.9561 0.45628 0.63263 0.0
C2356 C 0.92452 0.36706 0.55665 0.0
C2357 C 0.92737 0.42976 0.69214 0.0
H2358 H 0.81857 0.33189 0.66678 0.0
H2359 H 0.8995 0.30747 0.68628 0.0
H2360 H 0.8652 0.38927 0.60142 0.0
H2361 H 0.82604 0.37268 0.63047 0.0
H2362 H 0.85902 0.40659 0.65062 0.0
H2363 H 0.95549 0.34013 0.67064 0.0
H2364 H 0.9584 0.34627 0.62104 0.0
H2365 H 0.96476 0.37953 0.6587 0.0
H2366 H 0.96309 0.42589 0.53757 0.0
H2367 H 0.96356 0.4789 0.65139 0.0
H2368 H 0.8971 0.35841 0.5572 0.0
H2369 H 0.93062 0.34827 0.56624 0.0
H2370 H 0.93599 0.37011 0.52632 0.0
H2371 H 0.90009 0.42358 0.69888 0.0
H2372 H 0.93998 0.45394 0.70747 0.0
H2373 H 0.93394 0.41212 0.70367 0.0
C2374 C 0.24148 0.69792 0.62633 0.0
C2375 C 0.23301 0.69939 0.66647 0.0
C2376 C 0.22094 0.67373 0.60125 0.0
C2377 C 0.191 0.65134 0.61698 0.0
C2378 C 0.18204 0.65359 0.65761 0.0
C2379 C 0.20356 0.67726 0.68187 0.0
C2380 C 0.23167 0.67152 0.55816 0.0
C2381 C 0.15014 0.63054 0.67559 0.0
C2382 C 0.12033 0.60053 0.55754 0.0
C2383 C 0.12484 0.57109 0.5507 0.0
C2384 C 0.14281 0.62747 0.57731 0.0
C2385 C 0.16969 0.62445 0.59146 0.0
C2386 C 0.17462 0.59483 0.58392 0.0
C2387 C 0.15234 0.56858 0.56312 0.0
C2388 C 0.13724 0.65886 0.58407 0.0
C2389 C 0.20261 0.59049 0.59916 0.0
H2390 H 0.26467 0.71496 0.61474 0.0
H2391 H 0.19744 0.67843 0.71301 0.0
H2392 H 0.23524 0.64841 0.54754 0.0
H2393 H 0.21201 0.67209 0.54259 0.0
H2394 H 0.25523 0.69125 0.55055 0.0
H2395 H 0.14591 0.63701 0.70746 0.0
H2396 H 0.12865 0.63 0.66247 0.0
H2397 H 0.15086 0.60602 0.6697 0.0
H2398 H 0.09923 0.60244 0.54741 0.0
H2399 H 0.15567 0.5457 0.55793 0.0
H2400 H 0.1604 0.6783 0.57479 0.0
H2401 H 0.13066 0.66518 0.61549 0.0
H2402 H 0.11704 0.65793 0.56819 0.0
H2403 H 0.22673 0.60894 0.59024 0.0
H2404 H 0.20415 0.56647 0.58877 0.0
H2405 H 0.19888 0.5936 0.63132 0.0
loop_
_geom_bond_atom_site_label_1
_geom_bond_atom_site_label_2
_geom_bond_distance
_geom_bond_site_symmetry_2
_ccdc_geom_bond_type
C0 C2 1.422 . S
C0 C4 1.415 . S
C0 N6 1.369 . S
C1 C2 1.421 . S
C1 C3 1.417 . S
C1 C13 1.422 . S
C2 C0 1.422 . S
C2 C1 1.421 . S
C2 N12 1.359 . S
C3 C1 1.417 . S
C3 C5 1.329 . S
C3 H22 0.930 . S
C4 C0 1.415 . S
C4 C5 1.437 . S
C4 C8 1.413 . S
C5 C3 1.329 . S
C5 C4 1.437 . S
C5 H27 0.929 . S
N6 C0 1.369 . S
N6 C7 1.338 . S
N6 Gd11 2.622 . S
C7 N6 1.338 . S
C7 C9 1.378 . S
C7 H19 0.929 . S
C8 C4 1.413 . S
C8 C9 1.348 . S
C8 H24 0.931 . S
C9 C7 1.378 . S
C9 C8 1.348 . S
C9 H25 0.930 . S
Gd10 N30 2.622 . S
Gd10 N37 2.570 . S
Gd10 O44 2.353 . S
Gd10 O45 2.468 . S
Gd10 O46 2.427 . S
Gd10 O48 2.388 . S
Gd10 O49 2.386 . S
Gd10 O53 2.307 . S
Gd10 C63 2.805 . S
Gd11 N6 2.622 . S
Gd11 N12 2.570 . S
Gd11 O43 2.386 . S
Gd11 O47 2.307 . S
Gd11 O50 2.353 . S
Gd11 O51 2.468 . S
Gd11 O52 2.427 . S
Gd11 O54 2.388 . S
Gd11 C75 2.805 . S
N12 C2 1.359 . S
N12 Gd11 2.570 . S
N12 C14 1.343 . S
C13 C1 1.422 . S
C13 C15 1.321 . S
C13 H21 0.931 . S
C14 N12 1.343 . S
C14 C15 1.390 . S
C14 H16 0.931 . S
C15 C13 1.321 . S
C15 C14 1.390 . S
C15 H17 0.930 . S
H16 C14 0.931 . S
H17 C15 0.930 . S
H18 C41 0.931 . S
H19 C7 0.929 . S
H20 C42 0.930 . S
H21 C13 0.931 . S
H22 C3 0.930 . S
H23 C32 0.929 . S
H24 C8 0.931 . S
H25 C9 0.930 . S
H26 C64 0.930 . S
H27 C5 0.929 . S
H28 C33 0.931 . S
H29 C34 0.930 . S
N30 Gd10 2.622 . S
N30 C31 1.369 . S
N30 C32 1.338 . S
C31 N30 1.369 . S
C31 C35 1.415 . S
C31 C38 1.422 . S
C32 H23 0.929 . S
C32 N30 1.338 . S
C32 C34 1.378 . S
C33 H28 0.931 . S
C33 C34 1.348 . S
C33 C35 1.413 . S
C34 H29 0.930 . S
C34 C32 1.378 . S
C34 C33 1.348 . S
C35 C31 1.415 . S
C35 C33 1.413 . S
C35 C65 1.437 . S
H36 C65 0.929 . S
N37 Gd10 2.570 . S
N37 C38 1.359 . S
N37 C41 1.343 . S
C38 C31 1.422 . S
C38 N37 1.359 . S
C38 C40 1.421 . S
C39 C40 1.422 . S
C39 C42 1.321 . S
C39 H66 0.931 . S
C40 C38 1.421 . S
C40 C39 1.422 . S
C40 C64 1.417 . S
C41 H18 0.931 . S
C41 N37 1.343 . S
C41 C42 1.390 . S
C42 H20 0.930 . S
C42 C39 1.321 . S
C42 C41 1.390 . S
O43 Gd11 2.386 . S
O43 C55 1.265 . S
O44 Gd10 2.353 . S
O44 C55 1.242 . S
O45 Gd10 2.468 . S
O45 C63 1.263 . S
O46 Gd10 2.427 . S
O46 C63 1.252 . S
O47 Gd11 2.307 . S
O47 C56 1.261 . S
O48 Gd10 2.388 . S
O48 C56 1.252 . S
O49 Gd10 2.386 . S
O49 C67 1.265 . S
O50 Gd11 2.353 . S
O50 C67 1.242 . S
O51 Gd11 2.468 . S
O51 C75 1.263 . S
O52 Gd11 2.427 . S
O52 C75 1.252 . S
O53 Gd10 2.307 . S
O53 C68 1.261 . S
O54 Gd11 2.388 . S
O54 C68 1.252 . S
C55 O43 1.265 . S
C55 O44 1.242 . S
C56 O47 1.261 . S
C56 O48 1.252 . S
C57 C60 1.394 . S
C57 C62 1.370 . S
C57 C63 1.500 . S
C58 C61 1.383 . S
C58 C62 1.395 . S
C59 C60 1.396 . S
C59 C61 1.365 . S
C59 H76 0.929 . S
C60 C57 1.394 . S
C60 C59 1.396 . S
C60 H77 0.930 . S
C61 C58 1.383 . S
C61 C59 1.365 . S
C61 H78 0.931 . S
C62 C57 1.370 . S
C62 C58 1.395 . S
C62 H79 0.930 . S
C63 Gd10 2.805 . S
C63 O45 1.263 . S
C63 O46 1.252 . S
C63 C57 1.500 . S
C64 H26 0.930 . S
C64 C40 1.417 . S
C64 C65 1.329 . S
C65 C35 1.437 . S
C65 H36 0.929 . S
C65 C64 1.329 . S
H66 C39 0.931 . S
C67 O49 1.265 . S
C67 O50 1.242 . S
C68 O53 1.261 . S
C68 O54 1.252 . S
C69 C72 1.394 . S
C69 C74 1.370 . S
C69 C75 1.500 . S
C70 C73 1.383 . S
C70 C74 1.395 . S
C71 C72 1.396 . S
C71 C73 1.365 . S
C71 H80 0.929 . S
C72 C69 1.394 . S
C72 C71 1.396 . S
C72 H81 0.930 . S
C73 C70 1.383 . S
C73 C71 1.365 . S
C73 H82 0.931 . S
C74 C69 1.370 . S
C74 C70 1.395 . S
C74 H83 0.930 . S
C75 Gd11 2.805 . S
C75 O51 1.263 . S
C75 O52 1.252 . S
C75 C69 1.500 . S
H76 C59 0.929 . S
H77 C60 0.930 . S
H78 C61 0.931 . S
H79 C62 0.930 . S
H80 C71 0.929 . S
H81 C72 0.930 . S
H82 C73 0.931 . S
H83 C74 0.930 . S
C84 C86 1.422 . S
C84 C88 1.415 . S
C84 N90 1.369 . S
C85 C86 1.421 . S
C85 C87 1.417 . S
C85 C97 1.422 . S
C86 C84 1.422 . S
C86 C85 1.421 . S
C86 N96 1.359 . S
C87 C85 1.417 . S
C87 C89 1.329 . S
C87 H106 0.930 . S
C88 C84 1.415 . S
C88 C89 1.437 . S
C88 C92 1.413 . S
C89 C87 1.329 . S
C89 C88 1.437 . S
C89 H111 0.929 . S
N90 C84 1.369 . S
N90 C91 1.338 . S
N90 Gd95 2.622 . S
C91 N90 1.338 . S
C91 C93 1.378 . S
C91 H103 0.929 . S
C92 C88 1.413 . S
C92 C93 1.348 . S
C92 H108 0.931 . S
C93 C91 1.378 . S
C93 C92 1.348 . S
C93 H109 0.930 . S
Gd94 N114 2.622 . S
Gd94 N121 2.570 . S
Gd94 O128 2.353 . S
Gd94 O129 2.468 . S
Gd94 O130 2.427 . S
Gd94 O132 2.388 . S
Gd94 O133 2.386 . S
Gd94 O137 2.307 . S
Gd94 C147 2.805 . S
Gd95 N90 2.622 . S
Gd95 N96 2.570 . S
Gd95 O127 2.386 . S
Gd95 O131 2.307 . S
Gd95 O134 2.353 . S
Gd95 O135 2.468 . S
Gd95 O136 2.427 . S
Gd95 O138 2.388 . S
Gd95 C159 2.805 . S
N96 C86 1.359 . S
N96 Gd95 2.570 . S
N96 C98 1.343 . S
C97 C85 1.422 . S
C97 C99 1.321 . S
C97 H105 0.931 . S
C98 N96 1.343 . S
C98 C99 1.390 . S
C98 H100 0.931 . S
C99 C97 1.321 . S
C99 C98 1.390 . S
C99 H101 0.930 . S
H100 C98 0.931 . S
H101 C99 0.930 . S
H102 C125 0.931 . S
H103 C91 0.929 . S
H104 C126 0.930 . S
H105 C97 0.931 . S
H106 C87 0.930 . S
H107 C116 0.929 . S
H108 C92 0.931 . S
H109 C93 0.930 . S
H110 C148 0.930 . S
H111 C89 0.929 . S
H112 C117 0.931 . S
H113 C118 0.930 . S
N114 Gd94 2.622 . S
N114 C115 1.369 . S
N114 C116 1.338 . S
C115 N114 1.369 . S
C115 C119 1.415 . S
C115 C122 1.422 . S
C116 H107 0.929 . S
C116 N114 1.338 . S
C116 C118 1.378 . S
C117 H112 0.931 . S
C117 C118 1.348 . S
C117 C119 1.413 . S
C118 H113 0.930 . S
C118 C116 1.378 . S
C118 C117 1.348 . S
C119 C115 1.415 . S
C119 C117 1.413 . S
C119 C149 1.437 . S
H120 C149 0.929 . S
N121 Gd94 2.570 . S
N121 C122 1.359 . S
N121 C125 1.343 . S
C122 C115 1.422 . S
C122 N121 1.359 . S
C122 C124 1.421 . S
C123 C124 1.422 . S
C123 C126 1.321 . S
C123 H150 0.931 . S
C124 C122 1.421 . S
C124 C123 1.422 . S
C124 C148 1.417 . S
C125 H102 0.931 . S
C125 N121 1.343 . S
C125 C126 1.390 . S
C126 H104 0.930 . S
C126 C123 1.321 . S
C126 C125 1.390 . S
O127 Gd95 2.386 . S
O127 C139 1.265 . S
O128 Gd94 2.353 . S
O128 C139 1.242 . S
O129 Gd94 2.468 . S
O129 C147 1.263 . S
O130 Gd94 2.427 . S
O130 C147 1.252 . S
O131 Gd95 2.307 . S
O131 C140 1.261 . S
O132 Gd94 2.388 . S
O132 C140 1.252 . S
O133 Gd94 2.386 . S
O133 C151 1.265 . S
O134 Gd95 2.353 . S
O134 C151 1.242 . S
O135 Gd95 2.468 . S
O135 C159 1.263 . S
O136 Gd95 2.427 . S
O136 C159 1.252 . S
O137 Gd94 2.307 . S
O137 C152 1.261 . S
O138 Gd95 2.388 . S
O138 C152 1.252 . S
C139 O127 1.265 . S
C139 O128 1.242 . S
C140 O131 1.261 . S
C140 O132 1.252 . S
C141 C144 1.394 . S
C141 C146 1.370 . S
C141 C147 1.500 . S
C142 C145 1.383 . S
C142 C146 1.395 . S
C143 C144 1.396 . S
C143 C145 1.365 . S
C143 H160 0.929 . S
C144 C141 1.394 . S
C144 C143 1.396 . S
C144 H161 0.930 . S
C145 C142 1.383 . S
C145 C143 1.365 . S
C145 H162 0.931 . S
C146 C141 1.370 . S
C146 C142 1.395 . S
C146 H163 0.930 . S
C147 Gd94 2.805 . S
C147 O129 1.263 . S
C147 O130 1.252 . S
C147 C141 1.500 . S
C148 H110 0.930 . S
C148 C124 1.417 . S
C148 C149 1.329 . S
C149 C119 1.437 . S
C149 H120 0.929 . S
C149 C148 1.329 . S
H150 C123 0.931 . S
C151 O133 1.265 . S
C151 O134 1.242 . S
C152 O137 1.261 . S
C152 O138 1.252 . S
C153 C156 1.394 . S
C153 C158 1.370 . S
C153 C159 1.500 . S
C154 C157 1.383 . S
C154 C158 1.395 . S
C155 C156 1.396 . S
C155 C157 1.365 . S
C155 H164 0.929 . S
C156 C153 1.394 . S
C156 C155 1.396 . S
C156 H165 0.930 . S
C157 C154 1.383 . S
C157 C155 1.365 . S
C157 H166 0.931 . S
C158 C153 1.370 . S
C158 C154 1.395 . S
C158 H167 0.930 . S
C159 Gd95 2.805 . S
C159 O135 1.263 . S
C159 O136 1.252 . S
C159 C153 1.500 . S
H160 C143 0.929 . S
H161 C144 0.930 . S
H162 C145 0.931 . S
H163 C146 0.930 . S
H164 C155 0.929 . S
H165 C156 0.930 . S
H166 C157 0.931 . S
H167 C158 0.930 . S
C168 C170 1.422 . S
C168 C172 1.415 . S
C168 N174 1.369 . S
C169 C170 1.421 . S
C169 C171 1.417 . S
C169 C181 1.422 . S
C170 C168 1.422 . S
C170 C169 1.421 . S
C170 N180 1.359 . S
C171 C169 1.417 . S
C171 C173 1.329 . S
C171 H190 0.930 . S
C172 C168 1.415 . S
C172 C173 1.437 . S
C172 C176 1.413 . S
C173 C171 1.329 . S
C173 C172 1.437 . S
C173 H195 0.929 . S
N174 C168 1.369 . S
N174 C175 1.338 . S
N174 Gd179 2.622 . S
C175 N174 1.338 . S
C175 C177 1.378 . S
C175 H187 0.929 . S
C176 C172 1.413 . S
C176 C177 1.348 . S
C176 H192 0.931 . S
C177 C175 1.378 . S
C177 C176 1.348 . S
C177 H193 0.930 . S
Gd178 N198 2.622 . S
Gd178 N205 2.570 . S
Gd178 O212 2.353 . S
Gd178 O213 2.468 . S
Gd178 O214 2.427 . S
Gd178 O216 2.388 . S
Gd178 O217 2.386 . S
Gd178 O221 2.307 . S
Gd178 C231 2.805 . S
Gd179 N174 2.622 . S
Gd179 N180 2.570 . S
Gd179 O211 2.386 . S
Gd179 O215 2.307 . S
Gd179 O218 2.353 . S
Gd179 O219 2.468 . S
Gd179 O220 2.427 . S
Gd179 O222 2.388 . S
Gd179 C243 2.805 . S
N180 C170 1.359 . S
N180 Gd179 2.570 . S
N180 C182 1.343 . S
C181 C169 1.422 . S
C181 C183 1.321 . S
C181 H189 0.931 . S
C182 N180 1.343 . S
C182 C183 1.390 . S
C182 H184 0.931 . S
C183 C181 1.321 . S
C183 C182 1.390 . S
C183 H185 0.930 . S
H184 C182 0.931 . S
H185 C183 0.930 . S
H186 C209 0.931 . S
H187 C175 0.929 . S
H188 C210 0.930 . S
H189 C181 0.931 . S
H190 C171 0.930 . S
H191 C200 0.929 . S
H192 C176 0.931 . S
H193 C177 0.930 . S
H194 C232 0.930 . S
H195 C173 0.929 . S
H196 C201 0.931 . S
H197 C202 0.930 . S
N198 Gd178 2.622 . S
N198 C199 1.369 . S
N198 C200 1.338 . S
C199 N198 1.369 . S
C199 C203 1.415 . S
C199 C206 1.422 . S
C200 H191 0.929 . S
C200 N198 1.338 . S
C200 C202 1.378 . S
C201 H196 0.931 . S
C201 C202 1.348 . S
C201 C203 1.413 . S
C202 H197 0.930 . S
C202 C200 1.378 . S
C202 C201 1.348 . S
C203 C199 1.415 . S
C203 C201 1.413 . S
C203 C233 1.437 . S
H204 C233 0.929 . S
N205 Gd178 2.570 . S
N205 C206 1.359 . S
N205 C209 1.343 . S
C206 C199 1.422 . S
C206 N205 1.359 . S
C206 C208 1.421 . S
C207 C208 1.422 . S
C207 C210 1.321 . S
C207 H234 0.931 . S
C208 C206 1.421 . S
C208 C207 1.422 . S
C208 C232 1.417 . S
C209 H186 0.931 . S
C209 N205 1.343 . S
C209 C210 1.390 . S
C210 H188 0.930 . S
C210 C207 1.321 . S
C210 C209 1.390 . S
O211 Gd179 2.386 . S
O211 C223 1.265 . S
O212 Gd178 2.353 . S
O212 C223 1.242 . S
O213 Gd178 2.468 . S
O213 C231 1.263 . S
O214 Gd178 2.427 . S
O214 C231 1.252 . S
O215 Gd179 2.307 . S
O215 C224 1.261 . S
O216 Gd178 2.388 . S
O216 C224 1.252 . S
O217 Gd178 2.386 . S
O217 C235 1.265 . S
O218 Gd179 2.353 . S
O218 C235 1.242 . S
O219 Gd179 2.468 . S
O219 C243 1.263 . S
O220 Gd179 2.427 . S
O220 C243 1.252 . S
O221 Gd178 2.307 . S
O221 C236 1.261 . S
O222 Gd179 2.388 . S
O222 C236 1.252 . S
C223 O211 1.265 . S
C223 O212 1.242 . S
C224 O215 1.261 . S
C224 O216 1.252 . S
C225 C228 1.394 . S
C225 C230 1.370 . S
C225 C231 1.500 . S
C226 C229 1.383 . S
C226 C230 1.395 . S
C227 C228 1.396 . S
C227 C229 1.365 . S
C227 H244 0.929 . S
C228 C225 1.394 . S
C228 C227 1.396 . S
C228 H245 0.930 . S
C229 C226 1.383 . S
C229 C227 1.365 . S
C229 H246 0.931 . S
C230 C225 1.370 . S
C230 C226 1.395 . S
C230 H247 0.930 . S
C231 Gd178 2.805 . S
C231 O213 1.263 . S
C231 O214 1.252 . S
C231 C225 1.500 . S
C232 H194 0.930 . S
C232 C208 1.417 . S
C232 C233 1.329 . S
C233 C203 1.437 . S
C233 H204 0.929 . S
C233 C232 1.329 . S
H234 C207 0.931 . S
C235 O217 1.265 . S
C235 O218 1.242 . S
C236 O221 1.261 . S
C236 O222 1.252 . S
C237 C240 1.394 . S
C237 C242 1.370 . S
C237 C243 1.500 . S
C238 C241 1.383 . S
C238 C242 1.395 . S
C239 C240 1.396 . S
C239 C241 1.365 . S
C239 H248 0.929 . S
C240 C237 1.394 . S
C240 C239 1.396 . S
C240 H249 0.930 . S
C241 C238 1.383 . S
C241 C239 1.365 . S
C241 H250 0.931 . S
C242 C237 1.370 . S
C242 C238 1.395 . S
C242 H251 0.930 . S
C243 Gd179 2.805 . S
C243 O219 1.263 . S
C243 O220 1.252 . S
C243 C237 1.500 . S
H244 C227 0.929 . S
H245 C228 0.930 . S
H246 C229 0.931 . S
H247 C230 0.930 . S
H248 C239 0.929 . S
H249 C240 0.930 . S
H250 C241 0.931 . S
H251 C242 0.930 . S
C252 C254 1.422 . S
C252 C256 1.415 . S
C252 N258 1.369 . S
C253 C254 1.421 . S
C253 C255 1.417 . S
C253 C265 1.422 . S
C254 C252 1.422 . S
C254 C253 1.421 . S
C254 N264 1.359 . S
C255 C253 1.417 . S
C255 C257 1.329 . S
C255 H274 0.930 . S
C256 C252 1.415 . S
C256 C257 1.437 . S
C256 C260 1.413 . S
C257 C255 1.329 . S
C257 C256 1.437 . S
C257 H279 0.929 . S
N258 C252 1.369 . S
N258 C259 1.338 . S
N258 Gd263 2.622 . S
C259 N258 1.338 . S
C259 C261 1.378 . S
C259 H271 0.929 . S
C260 C256 1.413 . S
C260 C261 1.348 . S
C260 H276 0.931 . S
C261 C259 1.378 . S
C261 C260 1.348 . S
C261 H277 0.930 . S
Gd262 N282 2.622 . S
Gd262 N289 2.570 . S
Gd262 O296 2.353 . S
Gd262 O297 2.468 . S
Gd262 O298 2.427 . S
Gd262 O300 2.388 . S
Gd262 O301 2.386 . S
Gd262 O305 2.307 . S
Gd262 C315 2.805 . S
Gd263 N258 2.622 . S
Gd263 N264 2.570 . S
Gd263 O295 2.386 . S
Gd263 O299 2.307 . S
Gd263 O302 2.353 . S
Gd263 O303 2.468 . S
Gd263 O304 2.427 . S
Gd263 O306 2.388 . S
Gd263 C327 2.805 . S
N264 C254 1.359 . S
N264 Gd263 2.570 . S
N264 C266 1.343 . S
C265 C253 1.422 . S
C265 C267 1.321 . S
C265 H273 0.931 . S
C266 N264 1.343 . S
C266 C267 1.390 . S
C266 H268 0.931 . S
C267 C265 1.321 . S
C267 C266 1.390 . S
C267 H269 0.930 . S
H268 C266 0.931 . S
H269 C267 0.930 . S
H270 C293 0.931 . S
H271 C259 0.929 . S
H272 C294 0.930 . S
H273 C265 0.931 . S
H274 C255 0.930 . S
H275 C284 0.929 . S
H276 C260 0.931 . S
H277 C261 0.930 . S
H278 C316 0.930 . S
H279 C257 0.929 . S
H280 C285 0.931 . S
H281 C286 0.930 . S
N282 Gd262 2.622 . S
N282 C283 1.369 . S
N282 C284 1.338 . S
C283 N282 1.369 . S
C283 C287 1.415 . S
C283 C290 1.422 . S
C284 H275 0.929 . S
C284 N282 1.338 . S
C284 C286 1.378 . S
C285 H280 0.931 . S
C285 C286 1.348 . S
C285 C287 1.413 . S
C286 H281 0.930 . S
C286 C284 1.378 . S
C286 C285 1.348 . S
C287 C283 1.415 . S
C287 C285 1.413 . S
C287 C317 1.437 . S
H288 C317 0.929 . S
N289 Gd262 2.570 . S
N289 C290 1.359 . S
N289 C293 1.343 . S
C290 C283 1.422 . S
C290 N289 1.359 . S
C290 C292 1.421 . S
C291 C292 1.422 . S
C291 C294 1.321 . S
C291 H318 0.931 . S
C292 C290 1.421 . S
C292 C291 1.422 . S
C292 C316 1.417 . S
C293 H270 0.931 . S
C293 N289 1.343 . S
C293 C294 1.390 . S
C294 H272 0.930 . S
C294 C291 1.321 . S
C294 C293 1.390 . S
O295 Gd263 2.386 . S
O295 C307 1.265 . S
O296 Gd262 2.353 . S
O296 C307 1.242 . S
O297 Gd262 2.468 . S
O297 C315 1.263 . S
O298 Gd262 2.427 . S
O298 C315 1.252 . S
O299 Gd263 2.307 . S
O299 C308 1.261 . S
O300 Gd262 2.388 . S
O300 C308 1.252 . S
O301 Gd262 2.386 . S
O301 C319 1.265 . S
O302 Gd263 2.353 . S
O302 C319 1.242 . S
O303 Gd263 2.468 . S
O303 C327 1.263 . S
O304 Gd263 2.427 . S
O304 C327 1.252 . S
O305 Gd262 2.307 . S
O305 C320 1.261 . S
O306 Gd263 2.388 . S
O306 C320 1.252 . S
C307 O295 1.265 . S
C307 O296 1.242 . S
C308 O299 1.261 . S
C308 O300 1.252 . S
C309 C312 1.394 . S
C309 C314 1.370 . S
C309 C315 1.500 . S
C310 C313 1.383 . S
C310 C314 1.395 . S
C311 C312 1.396 . S
C311 C313 1.365 . S
C311 H328 0.929 . S
C312 C309 1.394 . S
C312 C311 1.396 . S
C312 H329 0.930 . S
C313 C310 1.383 . S
C313 C311 1.365 . S
C313 H330 0.931 . S
C314 C309 1.370 . S
C314 C310 1.395 . S
C314 H331 0.930 . S
C315 Gd262 2.805 . S
C315 O297 1.263 . S
C315 O298 1.252 . S
C315 C309 1.500 . S
C316 H278 0.930 . S
C316 C292 1.417 . S
C316 C317 1.329 . S
C317 C287 1.437 . S
C317 H288 0.929 . S
C317 C316 1.329 . S
H318 C291 0.931 . S
C319 O301 1.265 . S
C319 O302 1.242 . S
C320 O305 1.261 . S
C320 O306 1.252 . S
C321 C324 1.394 . S
C321 C326 1.370 . S
C321 C327 1.500 . S
C322 C325 1.383 . S
C322 C326 1.395 . S
C323 C324 1.396 . S
C323 C325 1.365 . S
C323 H332 0.929 . S
C324 C321 1.394 . S
C324 C323 1.396 . S
C324 H333 0.930 . S
C325 C322 1.383 . S
C325 C323 1.365 . S
C325 H334 0.931 . S
C326 C321 1.370 . S
C326 C322 1.395 . S
C326 H335 0.930 . S
C327 Gd263 2.805 . S
C327 O303 1.263 . S
C327 O304 1.252 . S
C327 C321 1.500 . S
H328 C311 0.929 . S
H329 C312 0.930 . S
H330 C313 0.931 . S
H331 C314 0.930 . S
H332 C323 0.929 . S
H333 C324 0.930 . S
H334 C325 0.931 . S
H335 C326 0.930 . S
C336 C338 1.422 . S
C336 C340 1.415 . S
C336 N342 1.369 . S
C337 C338 1.421 . S
C337 C339 1.417 . S
C337 C349 1.422 . S
C338 C336 1.422 . S
C338 C337 1.421 . S
C338 N348 1.359 . S
C339 C337 1.417 . S
C339 C341 1.329 . S
C339 H358 0.930 . S
C340 C336 1.415 . S
C340 C341 1.437 . S
C340 C344 1.413 . S
C341 C339 1.329 . S
C341 C340 1.437 . S
C341 H363 0.929 . S
N342 C336 1.369 . S
N342 C343 1.338 . S
N342 Gd347 2.622 . S
C343 N342 1.338 . S
C343 C345 1.378 . S
C343 H355 0.929 . S
C344 C340 1.413 . S
C344 C345 1.348 . S
C344 H360 0.931 . S
C345 C343 1.378 . S
C345 C344 1.348 . S
C345 H361 0.930 . S
Gd346 N366 2.622 . S
Gd346 N373 2.570 . S
Gd346 O380 2.353 . S
Gd346 O381 2.468 . S
Gd346 O382 2.427 . S
Gd346 O384 2.388 . S
Gd346 O385 2.386 . S
Gd346 O389 2.307 . S
Gd346 C399 2.805 . S
Gd347 N342 2.622 . S
Gd347 N348 2.570 . S
Gd347 O379 2.386 . S
Gd347 O383 2.307 . S
Gd347 O386 2.353 . S
Gd347 O387 2.468 . S
Gd347 O388 2.427 . S
Gd347 O390 2.388 . S
Gd347 C411 2.805 . S
N348 C338 1.359 . S
N348 Gd347 2.570 . S
N348 C350 1.343 . S
C349 C337 1.422 . S
C349 C351 1.321 . S
C349 H357 0.931 . S
C350 N348 1.343 . S
C350 C351 1.390 . S
C350 H352 0.931 . S
C351 C349 1.321 . S
C351 C350 1.390 . S
C351 H353 0.930 . S
H352 C350 0.931 . S
H353 C351 0.930 . S
H354 C377 0.931 . S
H355 C343 0.929 . S
H356 C378 0.930 . S
H357 C349 0.931 . S
H358 C339 0.930 . S
H359 C368 0.929 . S
H360 C344 0.931 . S
H361 C345 0.930 . S
H362 C400 0.930 . S
H363 C341 0.929 . S
H364 C369 0.931 . S
H365 C370 0.930 . S
N366 Gd346 2.622 . S
N366 C367 1.369 . S
N366 C368 1.338 . S
C367 N366 1.369 . S
C367 C371 1.415 . S
C367 C374 1.422 . S
C368 H359 0.929 . S
C368 N366 1.338 . S
C368 C370 1.378 . S
C369 H364 0.931 . S
C369 C370 1.348 . S
C369 C371 1.413 . S
C370 H365 0.930 . S
C370 C368 1.378 . S
C370 C369 1.348 . S
C371 C367 1.415 . S
C371 C369 1.413 . S
C371 C401 1.437 . S
H372 C401 0.929 . S
N373 Gd346 2.570 . S
N373 C374 1.359 . S
N373 C377 1.343 . S
C374 C367 1.422 . S
C374 N373 1.359 . S
C374 C376 1.421 . S
C375 C376 1.422 . S
C375 C378 1.321 . S
C375 H402 0.931 . S
C376 C374 1.421 . S
C376 C375 1.422 . S
C376 C400 1.417 . S
C377 H354 0.931 . S
C377 N373 1.343 . S
C377 C378 1.390 . S
C378 H356 0.930 . S
C378 C375 1.321 . S
C378 C377 1.390 . S
O379 Gd347 2.386 . S
O379 C391 1.265 . S
O380 Gd346 2.353 . S
O380 C391 1.242 . S
O381 Gd346 2.468 . S
O381 C399 1.263 . S
O382 Gd346 2.427 . S
O382 C399 1.252 . S
O383 Gd347 2.307 . S
O383 C392 1.261 . S
O384 Gd346 2.388 . S
O384 C392 1.252 . S
O385 Gd346 2.386 . S
O385 C403 1.265 . S
O386 Gd347 2.353 . S
O386 C403 1.242 . S
O387 Gd347 2.468 . S
O387 C411 1.263 . S
O388 Gd347 2.427 . S
O388 C411 1.252 . S
O389 Gd346 2.307 . S
O389 C404 1.261 . S
O390 Gd347 2.388 . S
O390 C404 1.252 . S
C391 O379 1.265 . S
C391 O380 1.242 . S
C392 O383 1.261 . S
C392 O384 1.252 . S
C393 C396 1.394 . S
C393 C398 1.370 . S
C393 C399 1.500 . S
C394 C397 1.383 . S
C394 C398 1.395 . S
C395 C396 1.396 . S
C395 C397 1.365 . S
C395 H412 0.929 . S
C396 C393 1.394 . S
C396 C395 1.396 . S
C396 H413 0.930 . S
C397 C394 1.383 . S
C397 C395 1.365 . S
C397 H414 0.931 . S
C398 C393 1.370 . S
C398 C394 1.395 . S
C398 H415 0.930 . S
C399 Gd346 2.805 . S
C399 O381 1.263 . S
C399 O382 1.252 . S
C399 C393 1.500 . S
C400 H362 0.930 . S
C400 C376 1.417 . S
C400 C401 1.329 . S
C401 C371 1.437 . S
C401 H372 0.929 . S
C401 C400 1.329 . S
H402 C375 0.931 . S
C403 O385 1.265 . S
C403 O386 1.242 . S
C404 O389 1.261 . S
C404 O390 1.252 . S
C405 C408 1.394 . S
C405 C410 1.370 . S
C405 C411 1.500 . S
C406 C409 1.383 . S
C406 C410 1.395 . S
C407 C408 1.396 . S
C407 C409 1.365 . S
C407 H416 0.929 . S
C408 C405 1.394 . S
C408 C407 1.396 . S
C408 H417 0.930 . S
C409 C406 1.383 . S
C409 C407 1.365 . S
C409 H418 0.931 . S
C410 C405 1.370 . S
C410 C406 1.395 . S
C410 H419 0.930 . S
C411 Gd347 2.805 . S
C411 O387 1.263 . S
C411 O388 1.252 . S
C411 C405 1.500 . S
H412 C395 0.929 . S
H413 C396 0.930 . S
H414 C397 0.931 . S
H415 C398 0.930 . S
H416 C407 0.929 . S
H417 C408 0.930 . S
H418 C409 0.931 . S
H419 C410 0.930 . S
C420 C422 1.422 . S
C420 C424 1.415 . S
C420 N426 1.369 . S
C421 C422 1.421 . S
C421 C423 1.417 . S
C421 C433 1.422 . S
C422 C420 1.422 . S
C422 C421 1.421 . S
C422 N432 1.359 . S
C423 C421 1.417 . S
C423 C425 1.329 . S
C423 H442 0.930 . S
C424 C420 1.415 . S
C424 C425 1.437 . S
C424 C428 1.413 . S
C425 C423 1.329 . S
C425 C424 1.437 . S
C425 H447 0.929 . S
N426 C420 1.369 . S
N426 C427 1.338 . S
N426 Gd431 2.622 . S
C427 N426 1.338 . S
C427 C429 1.378 . S
C427 H439 0.929 . S
C428 C424 1.413 . S
C428 C429 1.348 . S
C428 H444 0.931 . S
C429 C427 1.378 . S
C429 C428 1.348 . S
C429 H445 0.930 . S
Gd430 N450 2.622 . S
Gd430 N457 2.570 . S
Gd430 O464 2.353 . S
Gd430 O465 2.468 . S
Gd430 O466 2.427 . S
Gd430 O468 2.388 . S
Gd430 O469 2.386 . S
Gd430 O473 2.307 . S
Gd430 C483 2.805 . S
Gd431 N426 2.622 . S
Gd431 N432 2.570 . S
Gd431 O463 2.386 . S
Gd431 O467 2.307 . S
Gd431 O470 2.353 . S
Gd431 O471 2.468 . S
Gd431 O472 2.427 . S
Gd431 O474 2.388 . S
Gd431 C495 2.805 . S
N432 C422 1.359 . S
N432 Gd431 2.570 . S
N432 C434 1.343 . S
C433 C421 1.422 . S
C433 C435 1.321 . S
C433 H441 0.931 . S
C434 N432 1.343 . S
C434 C435 1.390 . S
C434 H436 0.931 . S
C435 C433 1.321 . S
C435 C434 1.390 . S
C435 H437 0.930 . S
H436 C434 0.931 . S
H437 C435 0.930 . S
H438 C461 0.931 . S
H439 C427 0.929 . S
H440 C462 0.930 . S
H441 C433 0.931 . S
H442 C423 0.930 . S
H443 C452 0.929 . S
H444 C428 0.931 . S
H445 C429 0.930 . S
H446 C484 0.930 . S
H447 C425 0.929 . S
H448 C453 0.931 . S
H449 C454 0.930 . S
N450 Gd430 2.622 . S
N450 C451 1.369 . S
N450 C452 1.338 . S
C451 N450 1.369 . S
C451 C455 1.415 . S
C451 C458 1.422 . S
C452 H443 0.929 . S
C452 N450 1.338 . S
C452 C454 1.378 . S
C453 H448 0.931 . S
C453 C454 1.348 . S
C453 C455 1.413 . S
C454 H449 0.930 . S
C454 C452 1.378 . S
C454 C453 1.348 . S
C455 C451 1.415 . S
C455 C453 1.413 . S
C455 C485 1.437 . S
H456 C485 0.929 . S
N457 Gd430 2.570 . S
N457 C458 1.359 . S
N457 C461 1.343 . S
C458 C451 1.422 . S
C458 N457 1.359 . S
C458 C460 1.421 . S
C459 C460 1.422 . S
C459 C462 1.321 . S
C459 H486 0.931 . S
C460 C458 1.421 . S
C460 C459 1.422 . S
C460 C484 1.417 . S
C461 H438 0.931 . S
C461 N457 1.343 . S
C461 C462 1.390 . S
C462 H440 0.930 . S
C462 C459 1.321 . S
C462 C461 1.390 . S
O463 Gd431 2.386 . S
O463 C475 1.265 . S
O464 Gd430 2.353 . S
O464 C475 1.242 . S
O465 Gd430 2.468 . S
O465 C483 1.263 . S
O466 Gd430 2.427 . S
O466 C483 1.252 . S
O467 Gd431 2.307 . S
O467 C476 1.261 . S
O468 Gd430 2.388 . S
O468 C476 1.252 . S
O469 Gd430 2.386 . S
O469 C487 1.265 . S
O470 Gd431 2.353 . S
O470 C487 1.242 . S
O471 Gd431 2.468 . S
O471 C495 1.263 . S
O472 Gd431 2.427 . S
O472 C495 1.252 . S
O473 Gd430 2.307 . S
O473 C488 1.261 . S
O474 Gd431 2.388 . S
O474 C488 1.252 . S
C475 O463 1.265 . S
C475 O464 1.242 . S
C476 O467 1.261 . S
C476 O468 1.252 . S
C477 C480 1.394 . S
C477 C482 1.370 . S
C477 C483 1.500 . S
C478 C481 1.383 . S
C478 C482 1.395 . S
C479 C480 1.396 . S
C479 C481 1.365 . S
C479 H496 0.929 . S
C480 C477 1.394 . S
C480 C479 1.396 . S
C480 H497 0.930 . S
C481 C478 1.383 . S
C481 C479 1.365 . S
C481 H498 0.931 . S
C482 C477 1.370 . S
C482 C478 1.395 . S
C482 H499 0.930 . S
C483 Gd430 2.805 . S
C483 O465 1.263 . S
C483 O466 1.252 . S
C483 C477 1.500 . S
C484 H446 0.930 . S
C484 C460 1.417 . S
C484 C485 1.329 . S
C485 C455 1.437 . S
C485 H456 0.929 . S
C485 C484 1.329 . S
H486 C459 0.931 . S
C487 O469 1.265 . S
C487 O470 1.242 . S
C488 O473 1.261 . S
C488 O474 1.252 . S
C489 C492 1.394 . S
C489 C494 1.370 . S
C489 C495 1.500 . S
C490 C493 1.383 . S
C490 C494 1.395 . S
C491 C492 1.396 . S
C491 C493 1.365 . S
C491 H500 0.929 . S
C492 C489 1.394 . S
C492 C491 1.396 . S
C492 H501 0.930 . S
C493 C490 1.383 . S
C493 C491 1.365 . S
C493 H502 0.931 . S
C494 C489 1.370 . S
C494 C490 1.395 . S
C494 H503 0.930 . S
C495 Gd431 2.805 . S
C495 O471 1.263 . S
C495 O472 1.252 . S
C495 C489 1.500 . S
H496 C479 0.929 . S
H497 C480 0.930 . S
H498 C481 0.931 . S
H499 C482 0.930 . S
H500 C491 0.929 . S
H501 C492 0.930 . S
H502 C493 0.931 . S
H503 C494 0.930 . S
C504 C506 1.422 . S
C504 C508 1.415 . S
C504 N510 1.369 . S
C505 C506 1.421 . S
C505 C507 1.417 . S
C505 C517 1.422 . S
C506 C504 1.422 . S
C506 C505 1.421 . S
C506 N516 1.359 . S
C507 C505 1.417 . S
C507 C509 1.329 . S
C507 H526 0.930 . S
C508 C504 1.415 . S
C508 C509 1.437 . S
C508 C512 1.413 . S
C509 C507 1.329 . S
C509 C508 1.437 . S
C509 H531 0.929 . S
N510 C504 1.369 . S
N510 C511 1.338 . S
N510 Gd515 2.622 . S
C511 N510 1.338 . S
C511 C513 1.378 . S
C511 H523 0.929 . S
C512 C508 1.413 . S
C512 C513 1.348 . S
C512 H528 0.931 . S
C513 C511 1.378 . S
C513 C512 1.348 . S
C513 H529 0.930 . S
Gd514 N534 2.622 . S
Gd514 N541 2.570 . S
Gd514 O548 2.353 . S
Gd514 O549 2.468 . S
Gd514 O550 2.427 . S
Gd514 O552 2.388 . S
Gd514 O553 2.386 . S
Gd514 O557 2.307 . S
Gd514 C567 2.805 . S
Gd515 N510 2.622 . S
Gd515 N516 2.570 . S
Gd515 O547 2.386 . S
Gd515 O551 2.307 . S
Gd515 O554 2.353 . S
Gd515 O555 2.468 . S
Gd515 O556 2.427 . S
Gd515 O558 2.388 . S
Gd515 C579 2.805 . S
N516 C506 1.359 . S
N516 Gd515 2.570 . S
N516 C518 1.343 . S
C517 C505 1.422 . S
C517 C519 1.321 . S
C517 H525 0.931 . S
C518 N516 1.343 . S
C518 C519 1.390 . S
C518 H520 0.931 . S
C519 C517 1.321 . S
C519 C518 1.390 . S
C519 H521 0.930 . S
H520 C518 0.931 . S
H521 C519 0.930 . S
H522 C545 0.931 . S
H523 C511 0.929 . S
H524 C546 0.930 . S
H525 C517 0.931 . S
H526 C507 0.930 . S
H527 C536 0.929 . S
H528 C512 0.931 . S
H529 C513 0.930 . S
H530 C568 0.930 . S
H531 C509 0.929 . S
H532 C537 0.931 . S
H533 C538 0.930 . S
N534 Gd514 2.622 . S
N534 C535 1.369 . S
N534 C536 1.338 . S
C535 N534 1.369 . S
C535 C539 1.415 . S
C535 C542 1.422 . S
C536 H527 0.929 . S
C536 N534 1.338 . S
C536 C538 1.378 . S
C537 H532 0.931 . S
C537 C538 1.348 . S
C537 C539 1.413 . S
C538 H533 0.930 . S
C538 C536 1.378 . S
C538 C537 1.348 . S
C539 C535 1.415 . S
C539 C537 1.413 . S
C539 C569 1.437 . S
H540 C569 0.929 . S
N541 Gd514 2.570 . S
N541 C542 1.359 . S
N541 C545 1.343 . S
C542 C535 1.422 . S
C542 N541 1.359 . S
C542 C544 1.421 . S
C543 C544 1.422 . S
C543 C546 1.321 . S
C543 H570 0.931 . S
C544 C542 1.421 . S
C544 C543 1.422 . S
C544 C568 1.417 . S
C545 H522 0.931 . S
C545 N541 1.343 . S
C545 C546 1.390 . S
C546 H524 0.930 . S
C546 C543 1.321 . S
C546 C545 1.390 . S
O547 Gd515 2.386 . S
O547 C559 1.265 . S
O548 Gd514 2.353 . S
O548 C559 1.242 . S
O549 Gd514 2.468 . S
O549 C567 1.263 . S
O550 Gd514 2.427 . S
O550 C567 1.252 . S
O551 Gd515 2.307 . S
O551 C560 1.261 . S
O552 Gd514 2.388 . S
O552 C560 1.252 . S
O553 Gd514 2.386 . S
O553 C571 1.265 . S
O554 Gd515 2.353 . S
O554 C571 1.242 . S
O555 Gd515 2.468 . S
O555 C579 1.263 . S
O556 Gd515 2.427 . S
O556 C579 1.252 . S
O557 Gd514 2.307 . S
O557 C572 1.261 . S
O558 Gd515 2.388 . S
O558 C572 1.252 . S
C559 O547 1.265 . S
C559 O548 1.242 . S
C560 O551 1.261 . S
C560 O552 1.252 . S
C561 C564 1.394 . S
C561 C566 1.370 . S
C561 C567 1.500 . S
C562 C565 1.383 . S
C562 C566 1.395 . S
C563 C564 1.396 . S
C563 C565 1.365 . S
C563 H580 0.929 . S
C564 C561 1.394 . S
C564 C563 1.396 . S
C564 H581 0.930 . S
C565 C562 1.383 . S
C565 C563 1.365 . S
C565 H582 0.931 . S
C566 C561 1.370 . S
C566 C562 1.395 . S
C566 H583 0.930 . S
C567 Gd514 2.805 . S
C567 O549 1.263 . S
C567 O550 1.252 . S
C567 C561 1.500 . S
C568 H530 0.930 . S
C568 C544 1.417 . S
C568 C569 1.329 . S
C569 C539 1.437 . S
C569 H540 0.929 . S
C569 C568 1.329 . S
H570 C543 0.931 . S
C571 O553 1.265 . S
C571 O554 1.242 . S
C572 O557 1.261 . S
C572 O558 1.252 . S
C573 C576 1.394 . S
C573 C578 1.370 . S
C573 C579 1.500 . S
C574 C577 1.383 . S
C574 C578 1.395 . S
C575 C576 1.396 . S
C575 C577 1.365 . S
C575 H584 0.929 . S
C576 C573 1.394 . S
C576 C575 1.396 . S
C576 H585 0.930 . S
C577 C574 1.383 . S
C577 C575 1.365 . S
C577 H586 0.931 . S
C578 C573 1.370 . S
C578 C574 1.395 . S
C578 H587 0.930 . S
C579 Gd515 2.805 . S
C579 O555 1.263 . S
C579 O556 1.252 . S
C579 C573 1.500 . S
H580 C563 0.929 . S
H581 C564 0.930 . S
H582 C565 0.931 . S
H583 C566 0.930 . S
H584 C575 0.929 . S
H585 C576 0.930 . S
H586 C577 0.931 . S
H587 C578 0.930 . S
C588 C590 1.422 . S
C588 C592 1.415 . S
C588 N594 1.369 . S
C589 C590 1.421 . S
C589 C591 1.417 . S
C589 C601 1.422 . S
C590 C588 1.422 . S
C590 C589 1.421 . S
C590 N600 1.359 . S
C591 C589 1.417 . S
C591 C593 1.329 . S
C591 H610 0.930 . S
C592 C588 1.415 . S
C592 C593 1.437 . S
C592 C596 1.413 . S
C593 C591 1.329 . S
C593 C592 1.437 . S
C593 H615 0.929 . S
N594 C588 1.369 . S
N594 C595 1.338 . S
N594 Gd599 2.622 . S
C595 N594 1.338 . S
C595 C597 1.378 . S
C595 H607 0.929 . S
C596 C592 1.413 . S
C596 C597 1.348 . S
C596 H612 0.931 . S
C597 C595 1.378 . S
C597 C596 1.348 . S
C597 H613 0.930 . S
Gd598 N618 2.622 . S
Gd598 N625 2.570 . S
Gd598 O632 2.353 . S
Gd598 O633 2.468 . S
Gd598 O634 2.427 . S
Gd598 O636 2.388 . S
Gd598 O637 2.386 . S
Gd598 O641 2.307 . S
Gd598 C651 2.805 . S
Gd599 N594 2.622 . S
Gd599 N600 2.570 . S
Gd599 O631 2.386 . S
Gd599 O635 2.307 . S
Gd599 O638 2.353 . S
Gd599 O639 2.468 . S
Gd599 O640 2.427 . S
Gd599 O642 2.388 . S
Gd599 C663 2.805 . S
N600 C590 1.359 . S
N600 Gd599 2.570 . S
N600 C602 1.343 . S
C601 C589 1.422 . S
C601 C603 1.321 . S
C601 H609 0.931 . S
C602 N600 1.343 . S
C602 C603 1.390 . S
C602 H604 0.931 . S
C603 C601 1.321 . S
C603 C602 1.390 . S
C603 H605 0.930 . S
H604 C602 0.931 . S
H605 C603 0.930 . S
H606 C629 0.931 . S
H607 C595 0.929 . S
H608 C630 0.930 . S
H609 C601 0.931 . S
H610 C591 0.930 . S
H611 C620 0.929 . S
H612 C596 0.931 . S
H613 C597 0.930 . S
H614 C652 0.930 . S
H615 C593 0.929 . S
H616 C621 0.931 . S
H617 C622 0.930 . S
N618 Gd598 2.622 . S
N618 C619 1.369 . S
N618 C620 1.338 . S
C619 N618 1.369 . S
C619 C623 1.415 . S
C619 C626 1.422 . S
C620 H611 0.929 . S
C620 N618 1.338 . S
C620 C622 1.378 . S
C621 H616 0.931 . S
C621 C622 1.348 . S
C621 C623 1.413 . S
C622 H617 0.930 . S
C622 C620 1.378 . S
C622 C621 1.348 . S
C623 C619 1.415 . S
C623 C621 1.413 . S
C623 C653 1.437 . S
H624 C653 0.929 . S
N625 Gd598 2.570 . S
N625 C626 1.359 . S
N625 C629 1.343 . S
C626 C619 1.422 . S
C626 N625 1.359 . S
C626 C628 1.421 . S
C627 C628 1.422 . S
C627 C630 1.321 . S
C627 H654 0.931 . S
C628 C626 1.421 . S
C628 C627 1.422 . S
C628 C652 1.417 . S
C629 H606 0.931 . S
C629 N625 1.343 . S
C629 C630 1.390 . S
C630 H608 0.930 . S
C630 C627 1.321 . S
C630 C629 1.390 . S
O631 Gd599 2.386 . S
O631 C643 1.265 . S
O632 Gd598 2.353 . S
O632 C643 1.242 . S
O633 Gd598 2.468 . S
O633 C651 1.263 . S
O634 Gd598 2.427 . S
O634 C651 1.252 . S
O635 Gd599 2.307 . S
O635 C644 1.261 . S
O636 Gd598 2.388 . S
O636 C644 1.252 . S
O637 Gd598 2.386 . S
O637 C655 1.265 . S
O638 Gd599 2.353 . S
O638 C655 1.242 . S
O639 Gd599 2.468 . S
O639 C663 1.263 . S
O640 Gd599 2.427 . S
O640 C663 1.252 . S
O641 Gd598 2.307 . S
O641 C656 1.261 . S
O642 Gd599 2.388 . S
O642 C656 1.252 . S
C643 O631 1.265 . S
C643 O632 1.242 . S
C644 O635 1.261 . S
C644 O636 1.252 . S
C645 C648 1.394 . S
C645 C650 1.370 . S
C645 C651 1.500 . S
C646 C649 1.383 . S
C646 C650 1.395 . S
C647 C648 1.396 . S
C647 C649 1.365 . S
C647 H664 0.929 . S
C648 C645 1.394 . S
C648 C647 1.396 . S
C648 H665 0.930 . S
C649 C646 1.383 . S
C649 C647 1.365 . S
C649 H666 0.931 . S
C650 C645 1.370 . S
C650 C646 1.395 . S
C650 H667 0.930 . S
C651 Gd598 2.805 . S
C651 O633 1.263 . S
C651 O634 1.252 . S
C651 C645 1.500 . S
C652 H614 0.930 . S
C652 C628 1.417 . S
C652 C653 1.329 . S
C653 C623 1.437 . S
C653 H624 0.929 . S
C653 C652 1.329 . S
H654 C627 0.931 . S
C655 O637 1.265 . S
C655 O638 1.242 . S
C656 O641 1.261 . S
C656 O642 1.252 . S
C657 C660 1.394 . S
C657 C662 1.370 . S
C657 C663 1.500 . S
C658 C661 1.383 . S
C658 C662 1.395 . S
C659 C660 1.396 . S
C659 C661 1.365 . S
C659 H668 0.929 . S
C660 C657 1.394 . S
C660 C659 1.396 . S
C660 H669 0.930 . S
C661 C658 1.383 . S
C661 C659 1.365 . S
C661 H670 0.931 . S
C662 C657 1.370 . S
C662 C658 1.395 . S
C662 H671 0.930 . S
C663 Gd599 2.805 . S
C663 O639 1.263 . S
C663 O640 1.252 . S
C663 C657 1.500 . S
H664 C647 0.929 . S
H665 C648 0.930 . S
H666 C649 0.931 . S
H667 C650 0.930 . S
H668 C659 0.929 . S
H669 C660 0.930 . S
H670 C661 0.931 . S
H671 C662 0.930 . S
Co672 O675 2.042 . S
Co672 O682 2.264 . S
Co672 O701 2.286 . S
Co672 O702 2.069 . S
Co672 O704 2.015 1_455 S
Co673 O675 2.122 . S
Co673 O681 2.073 . S
Co673 O682 2.327 . S
Co673 O683 1.976 1_455 S
Co674 O675 2.094 1_545 S
Co674 O677 2.080 1_455 S
Co674 O684 2.108 1_445 S
Co674 O685 2.147 . S
Co674 O689 2.115 . S
Co674 O703 2.140 1_445 S
O675 Co672 2.042 . S
O675 Co673 2.122 . S
O675 Co674 2.094 1_565 S
O675 H676 0.980 . S
H676 O675 0.980 . S
O677 Co674 2.080 1_655 S
O677 Co678 2.042 . S
O677 Co679 2.122 . S
O677 H680 0.980 . S
Co678 O677 2.042 . S
Co678 O686 2.286 . S
Co678 O687 2.069 . S
Co678 O688 2.015 1_655 S
Co678 O691 2.264 . S
Co679 O677 2.122 . S
Co679 O690 1.976 1_655 S
Co679 O691 2.327 . S
Co679 O692 2.073 . S
H680 O677 0.980 . S
O681 Co673 2.073 . S
O681 C696 1.245 . S
O682 Co672 2.264 . S
O682 Co673 2.327 . S
O682 C696 1.257 . S
O683 Co673 1.976 1_655 S
O683 C695 1.251 . S
O684 Co674 2.108 1_665 S
O684 C695 1.274 . S
O685 Co674 2.147 . S
O685 C698 1.246 . S
O686 Co678 2.286 . S
O686 C697 1.259 . S
O687 Co678 2.069 . S
O687 C697 1.289 . S
O688 Co678 2.015 1_455 S
O688 C698 1.257 . S
O689 Co674 2.115 . S
O689 C699 1.274 . S
O690 Co679 1.976 1_455 S
O690 C699 1.251 . S
O691 Co678 2.264 . S
O691 Co679 2.327 . S
O691 C700 1.257 . S
O692 Co679 2.073 . S
O692 C700 1.245 . S
C693 O701 1.259 . S
C693 O702 1.289 . S
C694 O703 1.246 . S
C694 O704 1.257 . S
C695 O683 1.251 . S
C695 O684 1.274 . S
C696 O681 1.245 . S
C696 O682 1.257 . S
C697 O686 1.259 . S
C697 O687 1.289 . S
C698 O685 1.246 . S
C698 O688 1.257 . S
C699 O689 1.274 . S
C699 O690 1.251 . S
C700 O691 1.257 . S
C700 O692 1.245 . S
O701 Co672 2.286 . S
O701 C693 1.259 . S
O702 Co672 2.069 . S
O702 C693 1.289 . S
O703 Co674 2.140 1_665 S
O703 C694 1.246 . S
O704 Co672 2.015 1_655 S
O704 C694 1.257 . S
Co705 O708 2.042 1_556 S
Co705 O715 2.264 1_556 S
Co705 O734 2.286 . S
Co705 O735 2.069 . S
Co705 O737 2.015 . S
Co706 O708 2.122 . S
Co706 O714 2.073 . S
Co706 O715 2.327 . S
Co706 O716 1.976 . S
Co707 O708 2.087 1_545 S
Co707 O710 2.087 1_554 S
Co707 O717 2.111 1_545 S
Co707 O718 2.143 . S
Co707 O722 2.111 1_554 S
Co707 O736 2.143 1_544 S
O708 Co705 2.042 1_554 S
O708 Co706 2.122 . S
O708 Co707 2.087 1_565 S
O708 H709 0.980 . S
H709 O708 0.980 . S
O710 Co707 2.087 1_556 S
O710 Co711 2.042 1_556 S
O710 Co712 2.122 . S
O710 H713 0.980 . S
Co711 O710 2.042 1_554 S
Co711 O719 2.286 . S
Co711 O720 2.069 . S
Co711 O721 2.015 . S
Co711 O724 2.264 1_554 S
Co712 O710 2.122 . S
Co712 O723 1.976 . S
Co712 O724 2.327 . S
Co712 O725 2.073 . S
H713 O710 0.980 . S
O714 Co706 2.073 . S
O714 C729 1.245 . S
O715 Co705 2.264 1_554 S
O715 Co706 2.327 . S
O715 C729 1.257 . S
O716 Co706 1.976 . S
O716 C728 1.251 . S
O717 Co707 2.111 1_565 S
O717 C728 1.274 . S
O718 Co707 2.143 . S
O718 C731 1.246 . S
O719 Co711 2.286 . S
O719 C730 1.259 . S
O720 Co711 2.069 . S
O720 C730 1.289 . S
O721 Co711 2.015 . S
O721 C731 1.257 . S
O722 Co707 2.111 1_556 S
O722 C732 1.274 . S
O723 Co712 1.976 . S
O723 C732 1.251 . S
O724 Co711 2.264 1_556 S
O724 Co712 2.327 . S
O724 C733 1.257 . S
O725 Co712 2.073 . S
O725 C733 1.245 . S
C726 O734 1.259 . S
C726 O735 1.289 . S
C727 O736 1.246 . S
C727 O737 1.257 . S
C728 O716 1.251 . S
C728 O717 1.274 . S
C729 O714 1.245 . S
C729 O715 1.257 . S
C730 O719 1.259 . S
C730 O720 1.289 . S
C731 O718 1.246 . S
C731 O721 1.257 . S
C732 O722 1.274 . S
C732 O723 1.251 . S
C733 O724 1.257 . S
C733 O725 1.245 . S
O734 Co705 2.286 . S
O734 C726 1.259 . S
O735 Co705 2.069 . S
O735 C726 1.289 . S
O736 Co707 2.143 1_566 S
O736 C727 1.246 . S
O737 Co705 2.015 . S
O737 C727 1.257 . S
Co738 O741 2.042 1_556 S
Co738 O748 2.264 1_556 S
Co738 O767 2.286 . S
Co738 O768 2.069 . S
Co738 O770 2.015 1_455 S
Co739 O741 2.122 . S
Co739 O747 2.073 . S
Co739 O748 2.327 . S
Co739 O749 1.976 1_455 S
Co740 O741 2.094 . S
Co740 O743 2.080 1_454 S
Co740 O750 2.108 1_455 S
Co740 O751 2.146 . S
Co740 O755 2.115 1_554 S
Co740 O769 2.141 1_454 S
O741 Co738 2.042 1_554 S
O741 Co739 2.122 . S
O741 Co740 2.094 . S
O741 H742 0.980 . S
H742 O741 0.980 . S
O743 Co740 2.080 1_656 S
O743 Co744 2.042 1_556 S
O743 Co745 2.122 . S
O743 H746 0.980 . S
Co744 O743 2.042 1_554 S
Co744 O752 2.286 . S
Co744 O753 2.069 . S
Co744 O754 2.015 1_655 S
Co744 O757 2.264 1_554 S
Co745 O743 2.122 . S
Co745 O756 1.976 1_655 S
Co745 O757 2.327 . S
Co745 O758 2.073 . S
H746 O743 0.980 . S
O747 Co739 2.073 . S
O747 C762 1.245 . S
O748 Co738 2.264 1_554 S
O748 Co739 2.327 . S
O748 C762 1.257 . S
O749 Co739 1.976 1_655 S
O749 C761 1.251 . S
O750 Co740 2.108 1_655 S
O750 C761 1.274 . S
O751 Co740 2.146 . S
O751 C764 1.246 . S
O752 Co744 2.286 . S
O752 C763 1.259 . S
O753 Co744 2.069 . S
O753 C763 1.289 . S
O754 Co744 2.015 1_455 S
O754 C764 1.257 . S
O755 Co740 2.115 1_556 S
O755 C765 1.274 . S
O756 Co745 1.976 1_455 S
O756 C765 1.251 . S
O757 Co744 2.264 1_556 S
O757 Co745 2.327 . S
O757 C766 1.257 . S
O758 Co745 2.073 . S
O758 C766 1.245 . S
C759 O767 1.259 . S
C759 O768 1.289 . S
C760 O769 1.246 . S
C760 O770 1.257 . S
C761 O749 1.251 . S
C761 O750 1.274 . S
C762 O747 1.245 . S
C762 O748 1.257 . S
C763 O752 1.259 . S
C763 O753 1.289 . S
C764 O751 1.246 . S
C764 O754 1.257 . S
C765 O755 1.274 . S
C765 O756 1.251 . S
C766 O757 1.257 . S
C766 O758 1.245 . S
O767 Co738 2.286 . S
O767 C759 1.259 . S
O768 Co738 2.069 . S
O768 C759 1.289 . S
O769 Co740 2.141 1_656 S
O769 C760 1.246 . S
O770 Co738 2.015 1_655 S
O770 C760 1.257 . S
Co771 O774 2.042 1_556 S
Co771 O781 2.264 1_556 S
Co771 O800 2.286 . S
Co771 O801 2.069 . S
Co771 O803 2.015 . S
Co772 O774 2.122 . S
Co772 O780 2.073 . S
Co772 O781 2.327 . S
Co772 O782 1.976 . S
Co773 O774 2.087 . S
Co773 O776 2.087 1_554 S
Co773 O783 2.111 . S
Co773 O784 2.143 . S
Co773 O788 2.111 1_554 S
Co773 O802 2.143 1_554 S
O774 Co771 2.042 1_554 S
O774 Co772 2.122 . S
O774 Co773 2.087 . S
O774 H775 0.980 . S
H775 O774 0.980 . S
O776 Co773 2.087 1_556 S
O776 Co777 2.042 1_556 S
O776 Co778 2.122 . S
O776 H779 0.980 . S
Co777 O776 2.042 1_554 S
Co777 O785 2.286 . S
Co777 O786 2.069 . S
Co777 O787 2.015 . S
Co777 O790 2.264 1_554 S
Co778 O776 2.122 . S
Co778 O789 1.976 . S
Co778 O790 2.327 . S
Co778 O791 2.073 . S
H779 O776 0.980 . S
O780 Co772 2.073 . S
O780 C795 1.245 . S
O781 Co771 2.264 1_554 S
O781 Co772 2.327 . S
O781 C795 1.257 . S
O782 Co772 1.976 . S
O782 C794 1.251 . S
O783 Co773 2.111 . S
O783 C794 1.274 . S
O784 Co773 2.143 . S
O784 C797 1.246 . S
O785 Co777 2.286 . S
O785 C796 1.259 . S
O786 Co777 2.069 . S
O786 C796 1.289 . S
O787 Co777 2.015 . S
O787 C797 1.257 . S
O788 Co773 2.111 1_556 S
O788 C798 1.274 . S
O789 Co778 1.976 . S
O789 C798 1.251 . S
O790 Co777 2.264 1_556 S
O790 Co778 2.327 . S
O790 C799 1.257 . S
O791 Co778 2.073 . S
O791 C799 1.245 . S
C792 O800 1.259 . S
C792 O801 1.289 . S
C793 O802 1.246 . S
C793 O803 1.257 . S
C794 O782 1.251 . S
C794 O783 1.274 . S
C795 O780 1.245 . S
C795 O781 1.257 . S
C796 O785 1.259 . S
C796 O786 1.289 . S
C797 O784 1.246 . S
C797 O787 1.257 . S
C798 O788 1.274 . S
C798 O789 1.251 . S
C799 O790 1.257 . S
C799 O791 1.245 . S
O800 Co771 2.286 . S
O800 C792 1.259 . S
O801 Co771 2.069 . S
O801 C792 1.289 . S
O802 Co773 2.143 1_556 S
O802 C793 1.246 . S
O803 Co771 2.015 . S
O803 C793 1.257 . S
Co804 O807 2.042 . S
Co804 O814 2.264 . S
Co804 O833 2.286 . S
Co804 O834 2.069 . S
Co804 O836 2.015 . S
Co805 O807 2.122 . S
Co805 O813 2.073 . S
Co805 O814 2.327 . S
Co805 O815 1.976 . S
Co806 O807 2.093 . S
Co806 O809 2.080 1_455 S
Co806 O816 2.113 . S
Co806 O817 2.139 1_455 S
Co806 O821 2.110 1_455 S
Co806 O835 2.148 . S
O807 Co804 2.042 . S
O807 Co805 2.122 . S
O807 Co806 2.093 . S
O807 H808 0.980 . S
H808 O807 0.980 . S
O809 Co806 2.080 1_655 S
O809 Co810 2.042 . S
O809 Co811 2.122 . S
O809 H812 0.980 . S
Co810 O809 2.042 . S
Co810 O818 2.286 . S
Co810 O819 2.069 . S
Co810 O820 2.015 . S
Co810 O823 2.264 . S
Co811 O809 2.122 . S
Co811 O822 1.976 . S
Co811 O823 2.327 . S
Co811 O824 2.073 . S
H812 O809 0.980 . S
O813 Co805 2.073 . S
O813 C828 1.245 . S
O814 Co804 2.264 . S
O814 Co805 2.327 . S
O814 C828 1.257 . S
O815 Co805 1.976 . S
O815 C827 1.251 . S
O816 Co806 2.113 . S
O816 C827 1.274 . S
O817 Co806 2.139 1_655 S
O817 C830 1.246 . S
O818 Co810 2.286 . S
O818 C829 1.259 . S
O819 Co810 2.069 . S
O819 C829 1.289 . S
O820 Co810 2.015 . S
O820 C830 1.257 . S
O821 Co806 2.110 1_655 S
O821 C831 1.274 . S
O822 Co811 1.976 . S
O822 C831 1.251 . S
O823 Co810 2.264 . S
O823 Co811 2.327 . S
O823 C832 1.257 . S
O824 Co811 2.073 . S
O824 C832 1.245 . S
C825 O833 1.259 . S
C825 O834 1.289 . S
C826 O835 1.246 . S
C826 O836 1.257 . S
C827 O815 1.251 . S
C827 O816 1.274 . S
C828 O813 1.245 . S
C828 O814 1.257 . S
C829 O818 1.259 . S
C829 O819 1.289 . S
C830 O817 1.246 . S
C830 O820 1.257 . S
C831 O821 1.274 . S
C831 O822 1.251 . S
C832 O823 1.257 . S
C832 O824 1.245 . S
O833 Co804 2.286 . S
O833 C825 1.259 . S
O834 Co804 2.069 . S
O834 C825 1.289 . S
O835 Co806 2.148 . S
O835 C826 1.246 . S
O836 Co804 2.015 . S
O836 C826 1.257 . S
Co837 O840 2.042 . S
Co837 O847 2.264 . S
Co837 O866 2.286 . S
Co837 O867 2.069 . S
Co837 O869 2.015 1_565 S
Co838 O840 2.122 . S
Co838 O846 2.073 . S
Co838 O847 2.327 . S
Co838 O848 1.976 1_565 S
Co839 O840 2.087 1_545 S
Co839 O842 2.087 . S
Co839 O849 2.111 . S
Co839 O850 2.143 1_545 S
Co839 O854 2.111 1_545 S
Co839 O868 2.143 . S
O840 Co837 2.042 . S
O840 Co838 2.122 . S
O840 Co839 2.087 1_565 S
O840 H841 0.980 . S
H841 O840 0.980 . S
O842 Co839 2.087 . S
O842 Co843 2.042 . S
O842 Co844 2.122 . S
O842 H845 0.980 . S
Co843 O842 2.042 . S
Co843 O851 2.286 . S
Co843 O852 2.069 . S
Co843 O853 2.015 1_545 S
Co843 O856 2.264 . S
Co844 O842 2.122 . S
Co844 O855 1.976 1_545 S
Co844 O856 2.327 . S
Co844 O857 2.073 . S
H845 O842 0.980 . S
O846 Co838 2.073 . S
O846 C861 1.245 . S
O847 Co837 2.264 . S
O847 Co838 2.327 . S
O847 C861 1.257 . S
O848 Co838 1.976 1_545 S
O848 C860 1.251 . S
O849 Co839 2.111 . S
O849 C860 1.274 . S
O850 Co839 2.143 1_565 S
O850 C863 1.246 . S
O851 Co843 2.286 . S
O851 C862 1.259 . S
O852 Co843 2.069 . S
O852 C862 1.289 . S
O853 Co843 2.015 1_565 S
O853 C863 1.257 . S
O854 Co839 2.111 1_565 S
O854 C864 1.274 . S
O855 Co844 1.976 1_565 S
O855 C864 1.251 . S
O856 Co843 2.264 . S
O856 Co844 2.327 . S
O856 C865 1.257 . S
O857 Co844 2.073 . S
O857 C865 1.245 . S
C858 O866 1.259 . S
C858 O867 1.289 . S
C859 O868 1.246 . S
C859 O869 1.257 . S
C860 O848 1.251 . S
C860 O849 1.274 . S
C861 O846 1.245 . S
C861 O847 1.257 . S
C862 O851 1.259 . S
C862 O852 1.289 . S
C863 O850 1.246 . S
C863 O853 1.257 . S
C864 O854 1.274 . S
C864 O855 1.251 . S
C865 O856 1.257 . S
C865 O857 1.245 . S
O866 Co837 2.286 . S
O866 C858 1.259 . S
O867 Co837 2.069 . S
O867 C858 1.289 . S
O868 Co839 2.143 . S
O868 C859 1.246 . S
O869 Co837 2.015 1_545 S
O869 C859 1.257 . S
C870 C871 1.391 . S
C870 C872 1.394 . S
C870 H886 0.931 . S
C871 C870 1.391 . S
C871 C875 1.376 . S
C872 C870 1.394 . S
C872 C873 1.369 . S
C872 C876 1.531 . S
C873 C872 1.369 . S
C873 C874 1.410 . S
C873 C881 1.503 . S
C874 C873 1.410 . S
C874 C875 1.392 . S
C874 C877 1.511 . S
C875 C871 1.376 . S
C875 C874 1.392 . S
C875 H887 0.929 . S
C876 C872 1.531 . S
C876 H888 0.960 . S
C876 H889 0.962 . S
C876 H890 0.960 . S
C877 C874 1.511 . S
C877 H891 0.961 . S
C877 H892 0.961 . S
C877 H893 0.961 . S
C878 C879 1.370 . S
C878 C880 1.363 . S
C878 H894 0.931 . S
C879 C878 1.370 . S
C879 C883 1.408 . S
C880 C878 1.363 . S
C880 C881 1.370 . S
C880 C884 1.524 . S
C881 C873 1.503 . S
C881 C880 1.370 . S
C881 C882 1.403 . S
C882 C881 1.403 . S
C882 C883 1.404 . S
C882 C885 1.539 . S
C883 C879 1.408 . S
C883 C882 1.404 . S
C883 H895 0.930 . S
C884 C880 1.524 . S
C884 H896 0.956 . S
C884 H897 0.961 . S
C884 H898 0.961 . S
C885 C882 1.539 . S
C885 H899 0.958 . S
C885 H900 0.961 . S
C885 H901 0.960 . S
H886 C870 0.931 . S
H887 C875 0.929 . S
H888 C876 0.960 . S
H889 C876 0.962 . S
H890 C876 0.960 . S
H891 C877 0.961 . S
H892 C877 0.961 . S
H893 C877 0.961 . S
H894 C878 0.931 . S
H895 C883 0.930 . S
H896 C884 0.956 . S
H897 C884 0.961 . S
H898 C884 0.961 . S
H899 C885 0.958 . S
H900 C885 0.961 . S
H901 C885 0.960 . S
C902 C903 1.391 . S
C902 C904 1.394 . S
C902 H918 0.931 . S
C903 C902 1.391 . S
C903 C907 1.376 . S
C904 C902 1.394 . S
C904 C905 1.369 . S
C904 C908 1.531 . S
C905 C904 1.369 . S
C905 C906 1.410 . S
C905 C913 1.503 . S
C906 C905 1.410 . S
C906 C907 1.392 . S
C906 C909 1.511 . S
C907 C903 1.376 . S
C907 C906 1.392 . S
C907 H919 0.929 . S
C908 C904 1.531 . S
C908 H920 0.960 . S
C908 H921 0.962 . S
C908 H922 0.960 . S
C909 C906 1.511 . S
C909 H923 0.961 . S
C909 H924 0.961 . S
C909 H925 0.961 . S
C910 C911 1.370 . S
C910 C912 1.363 . S
C910 H926 0.931 . S
C911 C910 1.370 . S
C911 C915 1.408 . S
C912 C910 1.363 . S
C912 C913 1.370 . S
C912 C916 1.524 . S
C913 C905 1.503 . S
C913 C912 1.370 . S
C913 C914 1.403 . S
C914 C913 1.403 . S
C914 C915 1.404 . S
C914 C917 1.539 . S
C915 C911 1.408 . S
C915 C914 1.404 . S
C915 H927 0.930 . S
C916 C912 1.524 . S
C916 H928 0.956 . S
C916 H929 0.961 . S
C916 H930 0.961 . S
C917 C914 1.539 . S
C917 H931 0.958 . S
C917 H932 0.961 . S
C917 H933 0.960 . S
H918 C902 0.931 . S
H919 C907 0.929 . S
H920 C908 0.960 . S
H921 C908 0.962 . S
H922 C908 0.960 . S
H923 C909 0.961 . S
H924 C909 0.961 . S
H925 C909 0.961 . S
H926 C910 0.931 . S
H927 C915 0.930 . S
H928 C916 0.956 . S
H929 C916 0.961 . S
H930 C916 0.961 . S
H931 C917 0.958 . S
H932 C917 0.961 . S
H933 C917 0.960 . S
C934 C935 1.391 . S
C934 C936 1.394 . S
C934 H950 0.931 . S
C935 C934 1.391 . S
C935 C939 1.376 . S
C936 C934 1.394 . S
C936 C937 1.369 . S
C936 C940 1.531 . S
C937 C936 1.369 . S
C937 C938 1.410 . S
C937 C945 1.503 . S
C938 C937 1.410 . S
C938 C939 1.392 . S
C938 C941 1.511 . S
C939 C935 1.376 . S
C939 C938 1.392 . S
C939 H951 0.929 . S
C940 C936 1.531 . S
C940 H952 0.960 . S
C940 H953 0.962 . S
C940 H954 0.960 . S
C941 C938 1.511 . S
C941 H955 0.961 . S
C941 H956 0.961 . S
C941 H957 0.961 . S
C942 C943 1.370 . S
C942 C944 1.363 . S
C942 H958 0.931 . S
C943 C942 1.370 . S
C943 C947 1.408 . S
C944 C942 1.363 . S
C944 C945 1.370 . S
C944 C948 1.524 . S
C945 C937 1.503 . S
C945 C944 1.370 . S
C945 C946 1.403 . S
C946 C945 1.403 . S
C946 C947 1.404 . S
C946 C949 1.539 . S
C947 C943 1.408 . S
C947 C946 1.404 . S
C947 H959 0.930 . S
C948 C944 1.524 . S
C948 H960 0.956 . S
C948 H961 0.961 . S
C948 H962 0.961 . S
C949 C946 1.539 . S
C949 H963 0.958 . S
C949 H964 0.961 . S
C949 H965 0.960 . S
H950 C934 0.931 . S
H951 C939 0.929 . S
H952 C940 0.960 . S
H953 C940 0.962 . S
H954 C940 0.960 . S
H955 C941 0.961 . S
H956 C941 0.961 . S
H957 C941 0.961 . S
H958 C942 0.931 . S
H959 C947 0.930 . S
H960 C948 0.956 . S
H961 C948 0.961 . S
H962 C948 0.961 . S
H963 C949 0.958 . S
H964 C949 0.961 . S
H965 C949 0.960 . S
C966 C967 1.391 . S
C966 C968 1.394 . S
C966 H982 0.931 . S
C967 C966 1.391 . S
C967 C971 1.376 . S
C968 C966 1.394 . S
C968 C969 1.369 . S
C968 C972 1.531 . S
C969 C968 1.369 . S
C969 C970 1.410 . S
C969 C977 1.503 . S
C970 C969 1.410 . S
C970 C971 1.392 . S
C970 C973 1.511 . S
C971 C967 1.376 . S
C971 C970 1.392 . S
C971 H983 0.929 . S
C972 C968 1.531 . S
C972 H984 0.960 . S
C972 H985 0.962 . S
C972 H986 0.960 . S
C973 C970 1.511 . S
C973 H987 0.961 . S
C973 H988 0.961 . S
C973 H989 0.961 . S
C974 C975 1.370 . S
C974 C976 1.363 . S
C974 H990 0.931 . S
C975 C974 1.370 . S
C975 C979 1.408 . S
C976 C974 1.363 . S
C976 C977 1.370 . S
C976 C980 1.524 . S
C977 C969 1.503 . S
C977 C976 1.370 . S
C977 C978 1.403 . S
C978 C977 1.403 . S
C978 C979 1.404 . S
C978 C981 1.539 . S
C979 C975 1.408 . S
C979 C978 1.404 . S
C979 H991 0.930 . S
C980 C976 1.524 . S
C980 H992 0.956 . S
C980 H993 0.961 . S
C980 H994 0.961 . S
C981 C978 1.539 . S
C981 H995 0.958 . S
C981 H996 0.961 . S
C981 H997 0.960 . S
H982 C966 0.931 . S
H983 C971 0.929 . S
H984 C972 0.960 . S
H985 C972 0.962 . S
H986 C972 0.960 . S
H987 C973 0.961 . S
H988 C973 0.961 . S
H989 C973 0.961 . S
H990 C974 0.931 . S
H991 C979 0.930 . S
H992 C980 0.956 . S
H993 C980 0.961 . S
H994 C980 0.961 . S
H995 C981 0.958 . S
H996 C981 0.961 . S
H997 C981 0.960 . S
C998 C999 1.391 . S
C998 C1000 1.394 . S
C998 H1014 0.931 . S
C999 C998 1.391 . S
C999 C1003 1.376 . S
C1000 C998 1.394 . S
C1000 C1001 1.369 . S
C1000 C1004 1.531 . S
C1001 C1000 1.369 . S
C1001 C1002 1.410 . S
C1001 C1009 1.503 . S
C1002 C1001 1.410 . S
C1002 C1003 1.392 . S
C1002 C1005 1.511 . S
C1003 C999 1.376 . S
C1003 C1002 1.392 . S
C1003 H1015 0.929 . S
C1004 C1000 1.531 . S
C1004 H1016 0.960 . S
C1004 H1017 0.962 . S
C1004 H1018 0.960 . S
C1005 C1002 1.511 . S
C1005 H1019 0.961 . S
C1005 H1020 0.961 . S
C1005 H1021 0.961 . S
C1006 C1007 1.370 . S
C1006 C1008 1.363 . S
C1006 H1022 0.931 . S
C1007 C1006 1.370 . S
C1007 C1011 1.408 . S
C1008 C1006 1.363 . S
C1008 C1009 1.370 . S
C1008 C1012 1.524 . S
C1009 C1001 1.503 . S
C1009 C1008 1.370 . S
C1009 C1010 1.403 . S
C1010 C1009 1.403 . S
C1010 C1011 1.404 . S
C1010 C1013 1.539 . S
C1011 C1007 1.408 . S
C1011 C1010 1.404 . S
C1011 H1023 0.930 . S
C1012 C1008 1.524 . S
C1012 H1024 0.956 . S
C1012 H1025 0.961 . S
C1012 H1026 0.961 . S
C1013 C1010 1.539 . S
C1013 H1027 0.958 . S
C1013 H1028 0.961 . S
C1013 H1029 0.960 . S
H1014 C998 0.931 . S
H1015 C1003 0.929 . S
H1016 C1004 0.960 . S
H1017 C1004 0.962 . S
H1018 C1004 0.960 . S
H1019 C1005 0.961 . S
H1020 C1005 0.961 . S
H1021 C1005 0.961 . S
H1022 C1006 0.931 . S
H1023 C1011 0.930 . S
H1024 C1012 0.956 . S
H1025 C1012 0.961 . S
H1026 C1012 0.961 . S
H1027 C1013 0.958 . S
H1028 C1013 0.961 . S
H1029 C1013 0.960 . S
C1030 C1031 1.391 . S
C1030 C1032 1.394 . S
C1030 H1046 0.931 . S
C1031 C1030 1.391 . S
C1031 C1035 1.376 . S
C1032 C1030 1.394 . S
C1032 C1033 1.369 . S
C1032 C1036 1.531 . S
C1033 C1032 1.369 . S
C1033 C1034 1.410 . S
C1033 C1041 1.503 . S
C1034 C1033 1.410 . S
C1034 C1035 1.392 . S
C1034 C1037 1.511 . S
C1035 C1031 1.376 . S
C1035 C1034 1.392 . S
C1035 H1047 0.929 . S
C1036 C1032 1.531 . S
C1036 H1048 0.960 . S
C1036 H1049 0.962 . S
C1036 H1050 0.960 . S
C1037 C1034 1.511 . S
C1037 H1051 0.961 . S
C1037 H1052 0.961 . S
C1037 H1053 0.961 . S
C1038 C1039 1.370 . S
C1038 C1040 1.363 . S
C1038 H1054 0.931 . S
C1039 C1038 1.370 . S
C1039 C1043 1.408 . S
C1040 C1038 1.363 . S
C1040 C1041 1.370 . S
C1040 C1044 1.524 . S
C1041 C1033 1.503 . S
C1041 C1040 1.370 . S
C1041 C1042 1.403 . S
C1042 C1041 1.403 . S
C1042 C1043 1.404 . S
C1042 C1045 1.539 . S
C1043 C1039 1.408 . S
C1043 C1042 1.404 . S
C1043 H1055 0.930 . S
C1044 C1040 1.524 . S
C1044 H1056 0.956 . S
C1044 H1057 0.961 . S
C1044 H1058 0.961 . S
C1045 C1042 1.539 . S
C1045 H1059 0.958 . S
C1045 H1060 0.961 . S
C1045 H1061 0.960 . S
H1046 C1030 0.931 . S
H1047 C1035 0.929 . S
H1048 C1036 0.960 . S
H1049 C1036 0.962 . S
H1050 C1036 0.960 . S
H1051 C1037 0.961 . S
H1052 C1037 0.961 . S
H1053 C1037 0.961 . S
H1054 C1038 0.931 . S
H1055 C1043 0.930 . S
H1056 C1044 0.956 . S
H1057 C1044 0.961 . S
H1058 C1044 0.961 . S
H1059 C1045 0.958 . S
H1060 C1045 0.961 . S
H1061 C1045 0.960 . S
C1062 C1063 1.391 . S
C1062 C1064 1.394 . S
C1062 H1078 0.931 . S
C1063 C1062 1.391 . S
C1063 C1067 1.376 . S
C1064 C1062 1.394 . S
C1064 C1065 1.369 . S
C1064 C1068 1.531 . S
C1065 C1064 1.369 . S
C1065 C1066 1.410 . S
C1065 C1073 1.503 . S
C1066 C1065 1.410 . S
C1066 C1067 1.392 . S
C1066 C1069 1.511 . S
C1067 C1063 1.376 . S
C1067 C1066 1.392 . S
C1067 H1079 0.929 . S
C1068 C1064 1.531 . S
C1068 H1080 0.960 . S
C1068 H1081 0.962 . S
C1068 H1082 0.960 . S
C1069 C1066 1.511 . S
C1069 H1083 0.961 . S
C1069 H1084 0.961 . S
C1069 H1085 0.961 . S
C1070 C1071 1.370 . S
C1070 C1072 1.363 . S
C1070 H1086 0.931 . S
C1071 C1070 1.370 . S
C1071 C1075 1.408 . S
C1072 C1070 1.363 . S
C1072 C1073 1.370 . S
C1072 C1076 1.524 . S
C1073 C1065 1.503 . S
C1073 C1072 1.370 . S
C1073 C1074 1.403 . S
C1074 C1073 1.403 . S
C1074 C1075 1.404 . S
C1074 C1077 1.539 . S
C1075 C1071 1.408 . S
C1075 C1074 1.404 . S
C1075 H1087 0.930 . S
C1076 C1072 1.524 . S
C1076 H1088 0.956 . S
C1076 H1089 0.961 . S
C1076 H1090 0.961 . S
C1077 C1074 1.539 . S
C1077 H1091 0.958 . S
C1077 H1092 0.961 . S
C1077 H1093 0.960 . S
H1078 C1062 0.931 . S
H1079 C1067 0.929 . S
H1080 C1068 0.960 . S
H1081 C1068 0.962 . S
H1082 C1068 0.960 . S
H1083 C1069 0.961 . S
H1084 C1069 0.961 . S
H1085 C1069 0.961 . S
H1086 C1070 0.931 . S
H1087 C1075 0.930 . S
H1088 C1076 0.956 . S
H1089 C1076 0.961 . S
H1090 C1076 0.961 . S
H1091 C1077 0.958 . S
H1092 C1077 0.961 . S
H1093 C1077 0.960 . S
C1094 C1095 1.391 . S
C1094 C1096 1.394 . S
C1094 H1110 0.931 . S
C1095 C1094 1.391 . S
C1095 C1099 1.376 . S
C1096 C1094 1.394 . S
C1096 C1097 1.369 . S
C1096 C1100 1.531 . S
C1097 C1096 1.369 . S
C1097 C1098 1.410 . S
C1097 C1105 1.503 . S
C1098 C1097 1.410 . S
C1098 C1099 1.392 . S
C1098 C1101 1.511 . S
C1099 C1095 1.376 . S
C1099 C1098 1.392 . S
C1099 H1111 0.929 . S
C1100 C1096 1.531 . S
C1100 H1112 0.960 . S
C1100 H1113 0.962 . S
C1100 H1114 0.960 . S
C1101 C1098 1.511 . S
C1101 H1115 0.961 . S
C1101 H1116 0.961 . S
C1101 H1117 0.961 . S
C1102 C1103 1.370 . S
C1102 C1104 1.363 . S
C1102 H1118 0.931 . S
C1103 C1102 1.370 . S
C1103 C1107 1.408 . S
C1104 C1102 1.363 . S
C1104 C1105 1.370 . S
C1104 C1108 1.524 . S
C1105 C1097 1.503 . S
C1105 C1104 1.370 . S
C1105 C1106 1.403 . S
C1106 C1105 1.403 . S
C1106 C1107 1.404 . S
C1106 C1109 1.539 . S
C1107 C1103 1.408 . S
C1107 C1106 1.404 . S
C1107 H1119 0.930 . S
C1108 C1104 1.524 . S
C1108 H1120 0.956 . S
C1108 H1121 0.961 . S
C1108 H1122 0.961 . S
C1109 C1106 1.539 . S
C1109 H1123 0.958 . S
C1109 H1124 0.961 . S
C1109 H1125 0.960 . S
H1110 C1094 0.931 . S
H1111 C1099 0.929 . S
H1112 C1100 0.960 . S
H1113 C1100 0.962 . S
H1114 C1100 0.960 . S
H1115 C1101 0.961 . S
H1116 C1101 0.961 . S
H1117 C1101 0.961 . S
H1118 C1102 0.931 . S
H1119 C1107 0.930 . S
H1120 C1108 0.956 . S
H1121 C1108 0.961 . S
H1122 C1108 0.961 . S
H1123 C1109 0.958 . S
H1124 C1109 0.961 . S
H1125 C1109 0.960 . S
C1126 C1127 1.391 . S
C1126 C1128 1.394 . S
C1126 H1142 0.931 . S
C1127 C1126 1.391 . S
C1127 C1131 1.376 . S
C1128 C1126 1.394 . S
C1128 C1129 1.369 . S
C1128 C1132 1.531 . S
C1129 C1128 1.369 . S
C1129 C1130 1.410 . S
C1129 C1137 1.503 . S
C1130 C1129 1.410 . S
C1130 C1131 1.392 . S
C1130 C1133 1.511 . S
C1131 C1127 1.376 . S
C1131 C1130 1.392 . S
C1131 H1143 0.929 . S
C1132 C1128 1.531 . S
C1132 H1144 0.960 . S
C1132 H1145 0.962 . S
C1132 H1146 0.960 . S
C1133 C1130 1.511 . S
C1133 H1147 0.961 . S
C1133 H1148 0.961 . S
C1133 H1149 0.961 . S
C1134 C1135 1.370 . S
C1134 C1136 1.363 . S
C1134 H1150 0.931 . S
C1135 C1134 1.370 . S
C1135 C1139 1.408 . S
C1136 C1134 1.363 . S
C1136 C1137 1.370 . S
C1136 C1140 1.524 . S
C1137 C1129 1.503 . S
C1137 C1136 1.370 . S
C1137 C1138 1.403 . S
C1138 C1137 1.403 . S
C1138 C1139 1.404 . S
C1138 C1141 1.539 . S
C1139 C1135 1.408 . S
C1139 C1138 1.404 . S
C1139 H1151 0.930 . S
C1140 C1136 1.524 . S
C1140 H1152 0.956 . S
C1140 H1153 0.961 . S
C1140 H1154 0.961 . S
C1141 C1138 1.539 . S
C1141 H1155 0.958 . S
C1141 H1156 0.961 . S
C1141 H1157 0.960 . S
H1142 C1126 0.931 . S
H1143 C1131 0.929 . S
H1144 C1132 0.960 . S
H1145 C1132 0.962 . S
H1146 C1132 0.960 . S
H1147 C1133 0.961 . S
H1148 C1133 0.961 . S
H1149 C1133 0.961 . S
H1150 C1134 0.931 . S
H1151 C1139 0.930 . S
H1152 C1140 0.956 . S
H1153 C1140 0.961 . S
H1154 C1140 0.961 . S
H1155 C1141 0.958 . S
H1156 C1141 0.961 . S
H1157 C1141 0.960 . S
C1158 C1159 1.391 . S
C1158 C1160 1.394 . S
C1158 H1174 0.931 . S
C1159 C1158 1.391 . S
C1159 C1163 1.376 . S
C1160 C1158 1.394 . S
C1160 C1161 1.369 . S
C1160 C1164 1.531 . S
C1161 C1160 1.369 . S
C1161 C1162 1.410 . S
C1161 C1169 1.503 . S
C1162 C1161 1.410 . S
C1162 C1163 1.392 . S
C1162 C1165 1.511 . S
C1163 C1159 1.376 . S
C1163 C1162 1.392 . S
C1163 H1175 0.929 . S
C1164 C1160 1.531 . S
C1164 H1176 0.960 . S
C1164 H1177 0.962 . S
C1164 H1178 0.960 . S
C1165 C1162 1.511 . S
C1165 H1179 0.961 . S
C1165 H1180 0.961 . S
C1165 H1181 0.961 . S
C1166 C1167 1.370 . S
C1166 C1168 1.363 . S
C1166 H1182 0.931 . S
C1167 C1166 1.370 . S
C1167 C1171 1.408 . S
C1168 C1166 1.363 . S
C1168 C1169 1.370 . S
C1168 C1172 1.524 . S
C1169 C1161 1.503 . S
C1169 C1168 1.370 . S
C1169 C1170 1.403 . S
C1170 C1169 1.403 . S
C1170 C1171 1.404 . S
C1170 C1173 1.539 . S
C1171 C1167 1.408 . S
C1171 C1170 1.404 . S
C1171 H1183 0.930 . S
C1172 C1168 1.524 . S
C1172 H1184 0.956 . S
C1172 H1185 0.961 . S
C1172 H1186 0.961 . S
C1173 C1170 1.539 . S
C1173 H1187 0.958 . S
C1173 H1188 0.961 . S
C1173 H1189 0.960 . S
H1174 C1158 0.931 . S
H1175 C1163 0.929 . S
H1176 C1164 0.960 . S
H1177 C1164 0.962 . S
H1178 C1164 0.960 . S
H1179 C1165 0.961 . S
H1180 C1165 0.961 . S
H1181 C1165 0.961 . S
H1182 C1166 0.931 . S
H1183 C1171 0.930 . S
H1184 C1172 0.956 . S
H1185 C1172 0.961 . S
H1186 C1172 0.961 . S
H1187 C1173 0.958 . S
H1188 C1173 0.961 . S
H1189 C1173 0.960 . S
C1190 C1191 1.391 . S
C1190 C1192 1.394 . S
C1190 H1206 0.931 . S
C1191 C1190 1.391 . S
C1191 C1195 1.376 . S
C1192 C1190 1.394 . S
C1192 C1193 1.369 . S
C1192 C1196 1.531 . S
C1193 C1192 1.369 . S
C1193 C1194 1.410 . S
C1193 C1201 1.503 . S
C1194 C1193 1.410 . S
C1194 C1195 1.392 . S
C1194 C1197 1.511 . S
C1195 C1191 1.376 . S
C1195 C1194 1.392 . S
C1195 H1207 0.929 . S
C1196 C1192 1.531 . S
C1196 H1208 0.960 . S
C1196 H1209 0.962 . S
C1196 H1210 0.960 . S
C1197 C1194 1.511 . S
C1197 H1211 0.961 . S
C1197 H1212 0.961 . S
C1197 H1213 0.961 . S
C1198 C1199 1.370 . S
C1198 C1200 1.363 . S
C1198 H1214 0.931 1_554 S
C1199 C1198 1.370 . S
C1199 C1203 1.408 . S
C1200 C1198 1.363 . S
C1200 C1201 1.370 . S
C1200 C1204 1.524 . S
C1201 C1193 1.503 . S
C1201 C1200 1.370 . S
C1201 C1202 1.403 . S
C1202 C1201 1.403 . S
C1202 C1203 1.404 . S
C1202 C1205 1.539 . S
C1203 C1199 1.408 . S
C1203 C1202 1.404 . S
C1203 H1215 0.930 . S
C1204 C1200 1.524 . S
C1204 H1216 0.956 . S
C1204 H1217 0.961 . S
C1204 H1218 0.961 1_554 S
C1205 C1202 1.539 . S
C1205 H1219 0.958 . S
C1205 H1220 0.961 . S
C1205 H1221 0.960 . S
H1206 C1190 0.931 . S
H1207 C1195 0.929 . S
H1208 C1196 0.960 . S
H1209 C1196 0.962 . S
H1210 C1196 0.960 . S
H1211 C1197 0.961 . S
H1212 C1197 0.961 . S
H1213 C1197 0.961 . S
H1214 C1198 0.931 1_556 S
H1215 C1203 0.930 . S
H1216 C1204 0.956 . S
H1217 C1204 0.961 . S
H1218 C1204 0.961 1_556 S
H1219 C1205 0.958 . S
H1220 C1205 0.961 . S
H1221 C1205 0.960 . S
C1222 C1223 1.391 . S
C1222 C1224 1.394 . S
C1222 H1238 0.931 . S
C1223 C1222 1.391 . S
C1223 C1227 1.376 . S
C1224 C1222 1.394 . S
C1224 C1225 1.369 . S
C1224 C1228 1.531 . S
C1225 C1224 1.369 . S
C1225 C1226 1.410 . S
C1225 C1233 1.503 . S
C1226 C1225 1.410 . S
C1226 C1227 1.392 . S
C1226 C1229 1.511 . S
C1227 C1223 1.376 . S
C1227 C1226 1.392 . S
C1227 H1239 0.929 . S
C1228 C1224 1.531 . S
C1228 H1240 0.960 . S
C1228 H1241 0.962 . S
C1228 H1242 0.960 . S
C1229 C1226 1.511 . S
C1229 H1243 0.961 . S
C1229 H1244 0.961 . S
C1229 H1245 0.961 . S
C1230 C1231 1.370 . S
C1230 C1232 1.363 . S
C1230 H1246 0.931 . S
C1231 C1230 1.370 . S
C1231 C1235 1.408 . S
C1232 C1230 1.363 . S
C1232 C1233 1.370 . S
C1232 C1236 1.524 . S
C1233 C1225 1.503 . S
C1233 C1232 1.370 . S
C1233 C1234 1.403 . S
C1234 C1233 1.403 . S
C1234 C1235 1.404 . S
C1234 C1237 1.539 . S
C1235 C1231 1.408 . S
C1235 C1234 1.404 . S
C1235 H1247 0.930 . S
C1236 C1232 1.524 . S
C1236 H1248 0.956 . S
C1236 H1249 0.961 . S
C1236 H1250 0.961 . S
C1237 C1234 1.539 . S
C1237 H1251 0.958 . S
C1237 H1252 0.961 . S
C1237 H1253 0.960 . S
H1238 C1222 0.931 . S
H1239 C1227 0.929 . S
H1240 C1228 0.960 . S
H1241 C1228 0.962 . S
H1242 C1228 0.960 . S
H1243 C1229 0.961 . S
H1244 C1229 0.961 . S
H1245 C1229 0.961 . S
H1246 C1230 0.931 . S
H1247 C1235 0.930 . S
H1248 C1236 0.956 . S
H1249 C1236 0.961 . S
H1250 C1236 0.961 . S
H1251 C1237 0.958 . S
H1252 C1237 0.961 . S
H1253 C1237 0.960 . S
C1254 C1255 1.391 . S
C1254 C1256 1.394 . S
C1254 H1270 0.931 . S
C1255 C1254 1.391 . S
C1255 C1259 1.376 . S
C1256 C1254 1.394 . S
C1256 C1257 1.369 . S
C1256 C1260 1.531 . S
C1257 C1256 1.369 . S
C1257 C1258 1.410 . S
C1257 C1265 1.503 . S
C1258 C1257 1.410 . S
C1258 C1259 1.392 . S
C1258 C1261 1.511 . S
C1259 C1255 1.376 . S
C1259 C1258 1.392 . S
C1259 H1271 0.929 . S
C1260 C1256 1.531 . S
C1260 H1272 0.960 . S
C1260 H1273 0.962 . S
C1260 H1274 0.960 . S
C1261 C1258 1.511 . S
C1261 H1275 0.961 . S
C1261 H1276 0.961 . S
C1261 H1277 0.961 . S
C1262 C1263 1.370 . S
C1262 C1264 1.363 . S
C1262 H1278 0.931 . S
C1263 C1262 1.370 . S
C1263 C1267 1.408 . S
C1264 C1262 1.363 . S
C1264 C1265 1.370 . S
C1264 C1268 1.524 . S
C1265 C1257 1.503 . S
C1265 C1264 1.370 . S
C1265 C1266 1.403 . S
C1266 C1265 1.403 . S
C1266 C1267 1.404 . S
C1266 C1269 1.539 . S
C1267 C1263 1.408 . S
C1267 C1266 1.404 . S
C1267 H1279 0.930 . S
C1268 C1264 1.524 . S
C1268 H1280 0.956 . S
C1268 H1281 0.961 . S
C1268 H1282 0.961 . S
C1269 C1266 1.539 . S
C1269 H1283 0.958 . S
C1269 H1284 0.961 . S
C1269 H1285 0.960 . S
H1270 C1254 0.931 . S
H1271 C1259 0.929 . S
H1272 C1260 0.960 . S
H1273 C1260 0.962 . S
H1274 C1260 0.960 . S
H1275 C1261 0.961 . S
H1276 C1261 0.961 . S
H1277 C1261 0.961 . S
H1278 C1262 0.931 . S
H1279 C1267 0.930 . S
H1280 C1268 0.956 . S
H1281 C1268 0.961 . S
H1282 C1268 0.961 . S
H1283 C1269 0.958 . S
H1284 C1269 0.961 . S
H1285 C1269 0.960 . S
C1286 C1287 1.391 . S
C1286 C1288 1.394 . S
C1286 H1302 0.931 . S
C1287 C1286 1.391 . S
C1287 C1291 1.376 . S
C1288 C1286 1.394 . S
C1288 C1289 1.369 . S
C1288 C1292 1.531 . S
C1289 C1288 1.369 . S
C1289 C1290 1.410 . S
C1289 C1297 1.503 . S
C1290 C1289 1.410 . S
C1290 C1291 1.392 . S
C1290 C1293 1.511 . S
C1291 C1287 1.376 . S
C1291 C1290 1.392 . S
C1291 H1303 0.929 . S
C1292 C1288 1.531 . S
C1292 H1304 0.960 . S
C1292 H1305 0.962 . S
C1292 H1306 0.960 . S
C1293 C1290 1.511 . S
C1293 H1307 0.961 . S
C1293 H1308 0.961 . S
C1293 H1309 0.961 . S
C1294 C1295 1.370 . S
C1294 C1296 1.363 . S
C1294 H1310 0.931 . S
C1295 C1294 1.370 . S
C1295 C1299 1.408 . S
C1296 C1294 1.363 . S
C1296 C1297 1.370 . S
C1296 C1300 1.524 . S
C1297 C1289 1.503 . S
C1297 C1296 1.370 . S
C1297 C1298 1.403 . S
C1298 C1297 1.403 . S
C1298 C1299 1.404 . S
C1298 C1301 1.539 . S
C1299 C1295 1.408 . S
C1299 C1298 1.404 . S
C1299 H1311 0.930 . S
C1300 C1296 1.524 . S
C1300 H1312 0.956 . S
C1300 H1313 0.961 . S
C1300 H1314 0.961 . S
C1301 C1298 1.539 . S
C1301 H1315 0.958 . S
C1301 H1316 0.961 . S
C1301 H1317 0.960 . S
H1302 C1286 0.931 . S
H1303 C1291 0.929 . S
H1304 C1292 0.960 . S
H1305 C1292 0.962 . S
H1306 C1292 0.960 . S
H1307 C1293 0.961 . S
H1308 C1293 0.961 . S
H1309 C1293 0.961 . S
H1310 C1294 0.931 . S
H1311 C1299 0.930 . S
H1312 C1300 0.956 . S
H1313 C1300 0.961 . S
H1314 C1300 0.961 . S
H1315 C1301 0.958 . S
H1316 C1301 0.961 . S
H1317 C1301 0.960 . S
C1318 C1319 1.391 . S
C1318 C1320 1.394 . S
C1318 H1334 0.931 . S
C1319 C1318 1.391 . S
C1319 C1323 1.376 . S
C1320 C1318 1.394 . S
C1320 C1321 1.369 . S
C1320 C1324 1.531 . S
C1321 C1320 1.369 . S
C1321 C1322 1.410 . S
C1321 C1329 1.503 . S
C1322 C1321 1.410 . S
C1322 C1323 1.392 . S
C1322 C1325 1.511 . S
C1323 C1319 1.376 . S
C1323 C1322 1.392 . S
C1323 H1335 0.929 . S
C1324 C1320 1.531 . S
C1324 H1336 0.960 . S
C1324 H1337 0.962 . S
C1324 H1338 0.960 . S
C1325 C1322 1.511 . S
C1325 H1339 0.961 . S
C1325 H1340 0.961 . S
C1325 H1341 0.961 . S
C1326 C1327 1.370 . S
C1326 C1328 1.363 . S
C1326 H1342 0.931 . S
C1327 C1326 1.370 . S
C1327 C1331 1.408 . S
C1328 C1326 1.363 . S
C1328 C1329 1.370 . S
C1328 C1332 1.524 . S
C1329 C1321 1.503 . S
C1329 C1328 1.370 . S
C1329 C1330 1.403 . S
C1330 C1329 1.403 . S
C1330 C1331 1.404 . S
C1330 C1333 1.539 . S
C1331 C1327 1.408 . S
C1331 C1330 1.404 . S
C1331 H1343 0.930 . S
C1332 C1328 1.524 . S
C1332 H1344 0.956 . S
C1332 H1345 0.961 . S
C1332 H1346 0.961 . S
C1333 C1330 1.539 . S
C1333 H1347 0.958 . S
C1333 H1348 0.961 . S
C1333 H1349 0.960 . S
H1334 C1318 0.931 . S
H1335 C1323 0.929 . S
H1336 C1324 0.960 . S
H1337 C1324 0.962 . S
H1338 C1324 0.960 . S
H1339 C1325 0.961 . S
H1340 C1325 0.961 . S
H1341 C1325 0.961 . S
H1342 C1326 0.931 . S
H1343 C1331 0.930 . S
H1344 C1332 0.956 . S
H1345 C1332 0.961 . S
H1346 C1332 0.961 . S
H1347 C1333 0.958 . S
H1348 C1333 0.961 . S
H1349 C1333 0.960 . S
C1350 C1351 1.391 . S
C1350 C1352 1.394 . S
C1350 H1366 0.931 . S
C1351 C1350 1.391 . S
C1351 C1355 1.376 . S
C1352 C1350 1.394 . S
C1352 C1353 1.369 . S
C1352 C1356 1.531 . S
C1353 C1352 1.369 . S
C1353 C1354 1.410 . S
C1353 C1361 1.503 . S
C1354 C1353 1.410 . S
C1354 C1355 1.392 . S
C1354 C1357 1.511 . S
C1355 C1351 1.376 . S
C1355 C1354 1.392 . S
C1355 H1367 0.929 . S
C1356 C1352 1.531 . S
C1356 H1368 0.960 . S
C1356 H1369 0.962 . S
C1356 H1370 0.960 . S
C1357 C1354 1.511 . S
C1357 H1371 0.961 . S
C1357 H1372 0.961 . S
C1357 H1373 0.961 . S
C1358 C1359 1.370 . S
C1358 C1360 1.363 . S
C1358 H1374 0.931 . S
C1359 C1358 1.370 . S
C1359 C1363 1.408 . S
C1360 C1358 1.363 . S
C1360 C1361 1.370 . S
C1360 C1364 1.524 . S
C1361 C1353 1.503 . S
C1361 C1360 1.370 . S
C1361 C1362 1.403 . S
C1362 C1361 1.403 . S
C1362 C1363 1.404 . S
C1362 C1365 1.539 1_556 S
C1363 C1359 1.408 . S
C1363 C1362 1.404 . S
C1363 H1375 0.930 1_556 S
C1364 C1360 1.524 . S
C1364 H1376 0.956 . S
C1364 H1377 0.961 . S
C1364 H1378 0.961 . S
C1365 C1362 1.539 1_554 S
C1365 H1379 0.958 . S
C1365 H1380 0.961 . S
C1365 H1381 0.960 1_554 S
H1366 C1350 0.931 . S
H1367 C1355 0.929 . S
H1368 C1356 0.960 . S
H1369 C1356 0.962 . S
H1370 C1356 0.960 . S
H1371 C1357 0.961 . S
H1372 C1357 0.961 . S
H1373 C1357 0.961 . S
H1374 C1358 0.931 . S
H1375 C1363 0.930 1_554 S
H1376 C1364 0.956 . S
H1377 C1364 0.961 . S
H1378 C1364 0.961 . S
H1379 C1365 0.958 . S
H1380 C1365 0.961 . S
H1381 C1365 0.960 1_556 S
C1382 C1383 1.391 . S
C1382 C1384 1.394 . S
C1382 H1398 0.931 . S
C1383 C1382 1.391 . S
C1383 C1387 1.376 . S
C1384 C1382 1.394 . S
C1384 C1385 1.369 . S
C1384 C1388 1.531 . S
C1385 C1384 1.369 . S
C1385 C1386 1.410 . S
C1385 C1393 1.503 . S
C1386 C1385 1.410 . S
C1386 C1387 1.392 . S
C1386 C1389 1.511 . S
C1387 C1383 1.376 . S
C1387 C1386 1.392 . S
C1387 H1399 0.929 . S
C1388 C1384 1.531 . S
C1388 H1400 0.960 . S
C1388 H1401 0.962 . S
C1388 H1402 0.960 . S
C1389 C1386 1.511 . S
C1389 H1403 0.961 . S
C1389 H1404 0.961 . S
C1389 H1405 0.961 . S
C1390 C1391 1.370 . S
C1390 C1392 1.363 . S
C1390 H1406 0.931 . S
C1391 C1390 1.370 . S
C1391 C1395 1.408 . S
C1392 C1390 1.363 . S
C1392 C1393 1.370 . S
C1392 C1396 1.524 . S
C1393 C1385 1.503 . S
C1393 C1392 1.370 . S
C1393 C1394 1.403 . S
C1394 C1393 1.403 . S
C1394 C1395 1.404 . S
C1394 C1397 1.539 . S
C1395 C1391 1.408 . S
C1395 C1394 1.404 . S
C1395 H1407 0.930 1_554 S
C1396 C1392 1.524 . S
C1396 H1408 0.956 . S
C1396 H1409 0.961 . S
C1396 H1410 0.961 . S
C1397 C1394 1.539 . S
C1397 H1411 0.958 1_554 S
C1397 H1412 0.961 1_554 S
C1397 H1413 0.960 . S
H1398 C1382 0.931 . S
H1399 C1387 0.929 . S
H1400 C1388 0.960 . S
H1401 C1388 0.962 . S
H1402 C1388 0.960 . S
H1403 C1389 0.961 . S
H1404 C1389 0.961 . S
H1405 C1389 0.961 . S
H1406 C1390 0.931 . S
H1407 C1395 0.930 1_556 S
H1408 C1396 0.956 . S
H1409 C1396 0.961 . S
H1410 C1396 0.961 . S
H1411 C1397 0.958 1_556 S
H1412 C1397 0.961 1_556 S
H1413 C1397 0.960 . S
C1414 C1415 1.391 . S
C1414 C1416 1.394 . S
C1414 H1430 0.931 . S
C1415 C1414 1.391 . S
C1415 C1419 1.376 . S
C1416 C1414 1.394 . S
C1416 C1417 1.369 . S
C1416 C1420 1.531 . S
C1417 C1416 1.369 . S
C1417 C1418 1.410 . S
C1417 C1425 1.503 . S
C1418 C1417 1.410 . S
C1418 C1419 1.392 . S
C1418 C1421 1.511 . S
C1419 C1415 1.376 . S
C1419 C1418 1.392 . S
C1419 H1431 0.929 . S
C1420 C1416 1.531 . S
C1420 H1432 0.960 . S
C1420 H1433 0.962 . S
C1420 H1434 0.960 . S
C1421 C1418 1.511 . S
C1421 H1435 0.961 . S
C1421 H1436 0.961 . S
C1421 H1437 0.961 . S
C1422 C1423 1.370 . S
C1422 C1424 1.363 . S
C1422 H1438 0.931 . S
C1423 C1422 1.370 . S
C1423 C1427 1.408 . S
C1424 C1422 1.363 . S
C1424 C1425 1.370 . S
C1424 C1428 1.524 . S
C1425 C1417 1.503 . S
C1425 C1424 1.370 . S
C1425 C1426 1.403 . S
C1426 C1425 1.403 . S
C1426 C1427 1.404 . S
C1426 C1429 1.539 . S
C1427 C1423 1.408 . S
C1427 C1426 1.404 . S
C1427 H1439 0.930 . S
C1428 C1424 1.524 . S
C1428 H1440 0.956 . S
C1428 H1441 0.961 . S
C1428 H1442 0.961 . S
C1429 C1426 1.539 . S
C1429 H1443 0.958 . S
C1429 H1444 0.961 . S
C1429 H1445 0.960 . S
H1430 C1414 0.931 . S
H1431 C1419 0.929 . S
H1432 C1420 0.960 . S
H1433 C1420 0.962 . S
H1434 C1420 0.960 . S
H1435 C1421 0.961 . S
H1436 C1421 0.961 . S
H1437 C1421 0.961 . S
H1438 C1422 0.931 . S
H1439 C1427 0.930 . S
H1440 C1428 0.956 . S
H1441 C1428 0.961 . S
H1442 C1428 0.961 . S
H1443 C1429 0.958 . S
H1444 C1429 0.961 . S
H1445 C1429 0.960 . S
C1446 C1447 1.391 . S
C1446 C1448 1.394 . S
C1446 H1462 0.931 . S
C1447 C1446 1.391 . S
C1447 C1451 1.376 . S
C1448 C1446 1.394 . S
C1448 C1449 1.369 . S
C1448 C1452 1.531 . S
C1449 C1448 1.369 . S
C1449 C1450 1.410 . S
C1449 C1457 1.503 . S
C1450 C1449 1.410 . S
C1450 C1451 1.392 . S
C1450 C1453 1.511 . S
C1451 C1447 1.376 . S
C1451 C1450 1.392 . S
C1451 H1463 0.929 . S
C1452 C1448 1.531 . S
C1452 H1464 0.960 . S
C1452 H1465 0.962 . S
C1452 H1466 0.960 . S
C1453 C1450 1.511 . S
C1453 H1467 0.961 . S
C1453 H1468 0.961 . S
C1453 H1469 0.961 . S
C1454 C1455 1.370 . S
C1454 C1456 1.363 . S
C1454 H1470 0.931 . S
C1455 C1454 1.370 . S
C1455 C1459 1.408 . S
C1456 C1454 1.363 . S
C1456 C1457 1.370 . S
C1456 C1460 1.524 . S
C1457 C1449 1.503 . S
C1457 C1456 1.370 . S
C1457 C1458 1.403 . S
C1458 C1457 1.403 . S
C1458 C1459 1.404 . S
C1458 C1461 1.539 . S
C1459 C1455 1.408 . S
C1459 C1458 1.404 . S
C1459 H1471 0.930 1_556 S
C1460 C1456 1.524 . S
C1460 H1472 0.956 . S
C1460 H1473 0.961 . S
C1460 H1474 0.961 . S
C1461 C1458 1.539 . S
C1461 H1475 0.958 . S
C1461 H1476 0.961 1_556 S
C1461 H1477 0.960 . S
H1462 C1446 0.931 . S
H1463 C1451 0.929 . S
H1464 C1452 0.960 . S
H1465 C1452 0.962 . S
H1466 C1452 0.960 . S
H1467 C1453 0.961 . S
H1468 C1453 0.961 . S
H1469 C1453 0.961 . S
H1470 C1454 0.931 . S
H1471 C1459 0.930 1_554 S
H1472 C1460 0.956 . S
H1473 C1460 0.961 . S
H1474 C1460 0.961 . S
H1475 C1461 0.958 . S
H1476 C1461 0.961 1_554 S
H1477 C1461 0.960 . S
C1478 C1479 1.391 . S
C1478 C1480 1.394 . S
C1478 H1494 0.931 . S
C1479 C1478 1.391 . S
C1479 C1483 1.376 . S
C1480 C1478 1.394 . S
C1480 C1481 1.369 . S
C1480 C1484 1.531 . S
C1481 C1480 1.369 . S
C1481 C1482 1.410 . S
C1481 C1489 1.503 . S
C1482 C1481 1.410 . S
C1482 C1483 1.392 . S
C1482 C1485 1.511 . S
C1483 C1479 1.376 . S
C1483 C1482 1.392 . S
C1483 H1495 0.929 . S
C1484 C1480 1.531 . S
C1484 H1496 0.960 . S
C1484 H1497 0.962 . S
C1484 H1498 0.960 . S
C1485 C1482 1.511 . S
C1485 H1499 0.961 . S
C1485 H1500 0.961 . S
C1485 H1501 0.961 . S
C1486 C1487 1.370 . S
C1486 C1488 1.363 . S
C1486 H1502 0.931 . S
C1487 C1486 1.370 . S
C1487 C1491 1.408 . S
C1488 C1486 1.363 . S
C1488 C1489 1.370 . S
C1488 C1492 1.524 . S
C1489 C1481 1.503 . S
C1489 C1488 1.370 . S
C1489 C1490 1.403 . S
C1490 C1489 1.403 . S
C1490 C1491 1.404 . S
C1490 C1493 1.539 . S
C1491 C1487 1.408 . S
C1491 C1490 1.404 . S
C1491 H1503 0.930 . S
C1492 C1488 1.524 . S
C1492 H1504 0.956 . S
C1492 H1505 0.961 . S
C1492 H1506 0.961 . S
C1493 C1490 1.539 . S
C1493 H1507 0.958 . S
C1493 H1508 0.961 . S
C1493 H1509 0.960 . S
H1494 C1478 0.931 . S
H1495 C1483 0.929 . S
H1496 C1484 0.960 . S
H1497 C1484 0.962 . S
H1498 C1484 0.960 . S
H1499 C1485 0.961 . S
H1500 C1485 0.961 . S
H1501 C1485 0.961 . S
H1502 C1486 0.931 . S
H1503 C1491 0.930 . S
H1504 C1492 0.956 . S
H1505 C1492 0.961 . S
H1506 C1492 0.961 . S
H1507 C1493 0.958 . S
H1508 C1493 0.961 . S
H1509 C1493 0.960 . S
C1510 C1511 1.391 . S
C1510 C1512 1.394 . S
C1510 H1526 0.931 . S
C1511 C1510 1.391 . S
C1511 C1515 1.376 . S
C1512 C1510 1.394 . S
C1512 C1513 1.369 . S
C1512 C1516 1.531 . S
C1513 C1512 1.369 . S
C1513 C1514 1.410 . S
C1513 C1521 1.503 . S
C1514 C1513 1.410 . S
C1514 C1515 1.392 . S
C1514 C1517 1.511 . S
C1515 C1511 1.376 . S
C1515 C1514 1.392 . S
C1515 H1527 0.929 . S
C1516 C1512 1.531 . S
C1516 H1528 0.960 . S
C1516 H1529 0.962 . S
C1516 H1530 0.960 . S
C1517 C1514 1.511 . S
C1517 H1531 0.961 . S
C1517 H1532 0.961 . S
C1517 H1533 0.961 . S
C1518 C1519 1.370 . S
C1518 C1520 1.363 . S
C1518 H1534 0.931 . S
C1519 C1518 1.370 . S
C1519 C1523 1.408 . S
C1520 C1518 1.363 . S
C1520 C1521 1.370 . S
C1520 C1524 1.524 . S
C1521 C1513 1.503 . S
C1521 C1520 1.370 . S
C1521 C1522 1.403 . S
C1522 C1521 1.403 . S
C1522 C1523 1.404 . S
C1522 C1525 1.539 . S
C1523 C1519 1.408 . S
C1523 C1522 1.404 . S
C1523 H1535 0.930 . S
C1524 C1520 1.524 . S
C1524 H1536 0.956 . S
C1524 H1537 0.961 . S
C1524 H1538 0.961 . S
C1525 C1522 1.539 . S
C1525 H1539 0.958 . S
C1525 H1540 0.961 . S
C1525 H1541 0.960 . S
H1526 C1510 0.931 . S
H1527 C1515 0.929 . S
H1528 C1516 0.960 . S
H1529 C1516 0.962 . S
H1530 C1516 0.960 . S
H1531 C1517 0.961 . S
H1532 C1517 0.961 . S
H1533 C1517 0.961 . S
H1534 C1518 0.931 . S
H1535 C1523 0.930 . S
H1536 C1524 0.956 . S
H1537 C1524 0.961 . S
H1538 C1524 0.961 . S
H1539 C1525 0.958 . S
H1540 C1525 0.961 . S
H1541 C1525 0.960 . S
C1542 C1543 1.391 . S
C1542 C1544 1.394 . S
C1542 H1558 0.931 . S
C1543 C1542 1.391 . S
C1543 C1547 1.376 . S
C1544 C1542 1.394 . S
C1544 C1545 1.369 . S
C1544 C1548 1.531 . S
C1545 C1544 1.369 . S
C1545 C1546 1.410 . S
C1545 C1553 1.503 . S
C1546 C1545 1.410 . S
C1546 C1547 1.392 . S
C1546 C1549 1.511 . S
C1547 C1543 1.376 . S
C1547 C1546 1.392 . S
C1547 H1559 0.929 . S
C1548 C1544 1.531 . S
C1548 H1560 0.960 . S
C1548 H1561 0.962 . S
C1548 H1562 0.960 . S
C1549 C1546 1.511 . S
C1549 H1563 0.961 . S
C1549 H1564 0.961 . S
C1549 H1565 0.961 . S
C1550 C1551 1.370 . S
C1550 C1552 1.363 . S
C1550 H1566 0.931 . S
C1551 C1550 1.370 . S
C1551 C1555 1.408 . S
C1552 C1550 1.363 . S
C1552 C1553 1.370 . S
C1552 C1556 1.524 . S
C1553 C1545 1.503 . S
C1553 C1552 1.370 . S
C1553 C1554 1.403 . S
C1554 C1553 1.403 . S
C1554 C1555 1.404 . S
C1554 C1557 1.539 . S
C1555 C1551 1.408 . S
C1555 C1554 1.404 . S
C1555 H1567 0.930 . S
C1556 C1552 1.524 . S
C1556 H1568 0.956 . S
C1556 H1569 0.961 . S
C1556 H1570 0.961 . S
C1557 C1554 1.539 . S
C1557 H1571 0.958 . S
C1557 H1572 0.961 . S
C1557 H1573 0.960 . S
H1558 C1542 0.931 . S
H1559 C1547 0.929 . S
H1560 C1548 0.960 . S
H1561 C1548 0.962 . S
H1562 C1548 0.960 . S
H1563 C1549 0.961 . S
H1564 C1549 0.961 . S
H1565 C1549 0.961 . S
H1566 C1550 0.931 . S
H1567 C1555 0.930 . S
H1568 C1556 0.956 . S
H1569 C1556 0.961 . S
H1570 C1556 0.961 . S
H1571 C1557 0.958 . S
H1572 C1557 0.961 . S
H1573 C1557 0.960 . S
C1574 C1575 1.391 . S
C1574 C1576 1.394 . S
C1574 H1590 0.931 . S
C1575 C1574 1.391 . S
C1575 C1579 1.376 . S
C1576 C1574 1.394 . S
C1576 C1577 1.369 . S
C1576 C1580 1.531 . S
C1577 C1576 1.369 . S
C1577 C1578 1.410 . S
C1577 C1585 1.503 . S
C1578 C1577 1.410 . S
C1578 C1579 1.392 . S
C1578 C1581 1.511 . S
C1579 C1575 1.376 . S
C1579 C1578 1.392 . S
C1579 H1591 0.929 . S
C1580 C1576 1.531 . S
C1580 H1592 0.960 . S
C1580 H1593 0.962 . S
C1580 H1594 0.960 . S
C1581 C1578 1.511 . S
C1581 H1595 0.961 . S
C1581 H1596 0.961 . S
C1581 H1597 0.961 . S
C1582 C1583 1.370 . S
C1582 C1584 1.363 . S
C1582 H1598 0.931 . S
C1583 C1582 1.370 . S
C1583 C1587 1.408 . S
C1584 C1582 1.363 . S
C1584 C1585 1.370 . S
C1584 C1588 1.524 . S
C1585 C1577 1.503 . S
C1585 C1584 1.370 . S
C1585 C1586 1.403 . S
C1586 C1585 1.403 . S
C1586 C1587 1.404 . S
C1586 C1589 1.539 . S
C1587 C1583 1.408 . S
C1587 C1586 1.404 . S
C1587 H1599 0.930 . S
C1588 C1584 1.524 . S
C1588 H1600 0.956 . S
C1588 H1601 0.961 . S
C1588 H1602 0.961 . S
C1589 C1586 1.539 . S
C1589 H1603 0.958 . S
C1589 H1604 0.987 . S
C1589 H1605 0.960 . S
H1590 C1574 0.931 . S
H1591 C1579 0.929 . S
H1592 C1580 0.960 . S
H1593 C1580 0.962 . S
H1594 C1580 0.960 . S
H1595 C1581 0.961 . S
H1596 C1581 0.961 . S
H1597 C1581 0.961 . S
H1598 C1582 0.931 . S
H1599 C1587 0.930 . S
H1600 C1588 0.956 . S
H1601 C1588 0.961 . S
H1602 C1588 0.961 . S
H1603 C1589 0.958 . S
H1604 C1589 0.987 . S
H1605 C1589 0.960 . S
C1606 C1607 1.391 . S
C1606 C1608 1.394 . S
C1606 H1622 0.931 . S
C1607 C1606 1.391 . S
C1607 C1611 1.376 . S
C1608 C1606 1.394 . S
C1608 C1609 1.369 . S
C1608 C1612 1.531 . S
C1609 C1608 1.369 . S
C1609 C1610 1.410 . S
C1609 C1617 1.503 . S
C1610 C1609 1.410 . S
C1610 C1611 1.392 . S
C1610 C1613 1.511 . S
C1611 C1607 1.376 . S
C1611 C1610 1.392 . S
C1611 H1623 0.929 . S
C1612 C1608 1.531 . S
C1612 H1624 0.960 . S
C1612 H1625 0.962 . S
C1612 H1626 0.960 . S
C1613 C1610 1.511 . S
C1613 H1627 0.961 . S
C1613 H1628 0.961 . S
C1613 H1629 0.961 . S
C1614 C1615 1.370 . S
C1614 C1616 1.363 . S
C1614 H1630 0.931 . S
C1615 C1614 1.370 . S
C1615 C1619 1.408 . S
C1616 C1614 1.363 . S
C1616 C1617 1.370 . S
C1616 C1620 1.524 . S
C1617 C1609 1.503 . S
C1617 C1616 1.370 . S
C1617 C1618 1.403 . S
C1618 C1617 1.403 . S
C1618 C1619 1.404 . S
C1618 C1621 1.539 . S
C1619 C1615 1.408 . S
C1619 C1618 1.404 . S
C1619 H1631 0.930 . S
C1620 C1616 1.524 . S
C1620 H1632 0.956 . S
C1620 H1633 0.961 . S
C1620 H1634 0.961 . S
C1621 C1618 1.539 . S
C1621 H1635 0.958 . S
C1621 H1636 0.961 . S
C1621 H1637 0.960 . S
H1622 C1606 0.931 . S
H1623 C1611 0.929 . S
H1624 C1612 0.960 . S
H1625 C1612 0.962 . S
H1626 C1612 0.960 . S
H1627 C1613 0.961 . S
H1628 C1613 0.961 . S
H1629 C1613 0.961 . S
H1630 C1614 0.931 . S
H1631 C1619 0.930 . S
H1632 C1620 0.956 . S
H1633 C1620 0.961 . S
H1634 C1620 0.961 . S
H1635 C1621 0.958 . S
H1636 C1621 0.961 . S
H1637 C1621 0.960 . S
C1638 C1639 1.391 . S
C1638 C1640 1.394 . S
C1638 H1654 0.931 . S
C1639 C1638 1.391 . S
C1639 C1643 1.376 . S
C1640 C1638 1.394 . S
C1640 C1641 1.369 . S
C1640 C1644 1.531 . S
C1641 C1640 1.369 . S
C1641 C1642 1.410 . S
C1641 C1649 1.503 . S
C1642 C1641 1.410 . S
C1642 C1643 1.392 . S
C1642 C1645 1.511 . S
C1643 C1639 1.376 . S
C1643 C1642 1.392 . S
C1643 H1655 0.929 . S
C1644 C1640 1.531 . S
C1644 H1656 0.960 . S
C1644 H1657 0.962 . S
C1644 H1658 0.960 . S
C1645 C1642 1.511 . S
C1645 H1659 0.961 . S
C1645 H1660 0.961 . S
C1645 H1661 0.961 . S
C1646 C1647 1.370 . S
C1646 C1648 1.363 . S
C1646 H1662 0.931 . S
C1647 C1646 1.370 . S
C1647 C1651 1.408 . S
C1648 C1646 1.363 . S
C1648 C1649 1.370 . S
C1648 C1652 1.524 . S
C1649 C1641 1.503 . S
C1649 C1648 1.370 . S
C1649 C1650 1.403 . S
C1650 C1649 1.403 . S
C1650 C1651 1.404 . S
C1650 C1653 1.539 . S
C1651 C1647 1.408 . S
C1651 C1650 1.404 . S
C1651 H1663 0.930 . S
C1652 C1648 1.524 . S
C1652 H1664 0.956 . S
C1652 H1665 0.961 . S
C1652 H1666 0.961 . S
C1653 C1650 1.539 . S
C1653 H1667 0.958 . S
C1653 H1668 0.961 . S
C1653 H1669 0.960 . S
H1654 C1638 0.931 . S
H1655 C1643 0.929 . S
H1656 C1644 0.960 . S
H1657 C1644 0.962 . S
H1658 C1644 0.960 . S
H1659 C1645 0.961 . S
H1660 C1645 0.961 . S
H1661 C1645 0.961 . S
H1662 C1646 0.931 . S
H1663 C1651 0.930 . S
H1664 C1652 0.956 . S
H1665 C1652 0.961 . S
H1666 C1652 0.961 . S
H1667 C1653 0.958 . S
H1668 C1653 0.961 . S
H1669 C1653 0.960 . S
C1670 C1671 1.391 . S
C1670 C1672 1.394 . S
C1670 H1686 0.931 . S
C1671 C1670 1.391 . S
C1671 C1675 1.376 . S
C1672 C1670 1.394 . S
C1672 C1673 1.369 . S
C1672 C1676 1.531 . S
C1673 C1672 1.369 . S
C1673 C1674 1.410 . S
C1673 C1681 1.503 . S
C1674 C1673 1.410 . S
C1674 C1675 1.392 . S
C1674 C1677 1.511 . S
C1675 C1671 1.376 . S
C1675 C1674 1.392 . S
C1675 H1687 0.929 . S
C1676 C1672 1.531 . S
C1676 H1688 0.960 . S
C1676 H1689 0.962 . S
C1676 H1690 0.960 . S
C1677 C1674 1.511 . S
C1677 H1691 0.961 . S
C1677 H1692 0.961 . S
C1677 H1693 0.961 . S
C1678 C1679 1.370 . S
C1678 C1680 1.363 . S
C1678 H1694 0.931 . S
C1679 C1678 1.370 . S
C1679 C1683 1.408 . S
C1680 C1678 1.363 . S
C1680 C1681 1.370 . S
C1680 C1684 1.524 . S
C1681 C1673 1.503 . S
C1681 C1680 1.370 . S
C1681 C1682 1.403 . S
C1682 C1681 1.403 . S
C1682 C1683 1.404 . S
C1682 C1685 1.539 . S
C1683 C1679 1.408 . S
C1683 C1682 1.404 . S
C1683 H1695 0.930 . S
C1684 C1680 1.524 . S
C1684 H1696 0.956 . S
C1684 H1697 0.961 . S
C1684 H1698 0.961 . S
C1685 C1682 1.539 . S
C1685 H1699 0.958 . S
C1685 H1700 0.961 . S
C1685 H1701 0.960 . S
H1686 C1670 0.931 . S
H1687 C1675 0.929 . S
H1688 C1676 0.960 . S
H1689 C1676 0.962 . S
H1690 C1676 0.960 . S
H1691 C1677 0.961 . S
H1692 C1677 0.961 . S
H1693 C1677 0.961 . S
H1694 C1678 0.931 . S
H1695 C1683 0.930 . S
H1696 C1684 0.956 . S
H1697 C1684 0.961 . S
H1698 C1684 0.961 . S
H1699 C1685 0.958 . S
H1700 C1685 0.961 . S
H1701 C1685 0.960 . S
C1702 C1703 1.391 . S
C1702 C1704 1.394 . S
C1702 H1718 0.931 . S
C1703 C1702 1.391 . S
C1703 C1707 1.376 . S
C1704 C1702 1.394 . S
C1704 C1705 1.369 . S
C1704 C1708 1.531 . S
C1705 C1704 1.369 . S
C1705 C1706 1.410 . S
C1705 C1713 1.503 . S
C1706 C1705 1.410 . S
C1706 C1707 1.392 . S
C1706 C1709 1.511 . S
C1707 C1703 1.376 . S
C1707 C1706 1.392 . S
C1707 H1719 0.929 . S
C1708 C1704 1.531 . S
C1708 H1720 0.960 . S
C1708 H1721 0.962 . S
C1708 H1722 0.960 . S
C1709 C1706 1.511 . S
C1709 H1723 0.961 . S
C1709 H1724 0.961 . S
C1709 H1725 0.961 . S
C1710 C1711 1.370 . S
C1710 C1712 1.363 . S
C1710 H1726 0.931 . S
C1711 C1710 1.370 . S
C1711 C1715 1.408 . S
C1712 C1710 1.363 . S
C1712 C1713 1.370 . S
C1712 C1716 1.524 . S
C1713 C1705 1.503 . S
C1713 C1712 1.370 . S
C1713 C1714 1.403 . S
C1714 C1713 1.403 . S
C1714 C1715 1.404 . S
C1714 C1717 1.539 . S
C1715 C1711 1.408 . S
C1715 C1714 1.404 . S
C1715 H1727 0.930 . S
C1716 C1712 1.524 . S
C1716 H1728 0.956 . S
C1716 H1729 0.961 . S
C1716 H1730 0.961 . S
C1717 C1714 1.539 . S
C1717 H1731 0.958 . S
C1717 H1732 0.961 . S
C1717 H1733 0.960 . S
H1718 C1702 0.931 . S
H1719 C1707 0.929 . S
H1720 C1708 0.960 . S
H1721 C1708 0.962 . S
H1722 C1708 0.960 . S
H1723 C1709 0.961 . S
H1724 C1709 0.961 . S
H1725 C1709 0.961 . S
H1726 C1710 0.931 . S
H1727 C1715 0.930 . S
H1728 C1716 0.956 . S
H1729 C1716 0.961 . S
H1730 C1716 0.961 . S
H1731 C1717 0.958 . S
H1732 C1717 0.961 . S
H1733 C1717 0.960 . S
C1734 C1735 1.391 . S
C1734 C1736 1.394 . S
C1734 H1750 0.931 . S
C1735 C1734 1.391 . S
C1735 C1739 1.376 . S
C1736 C1734 1.394 . S
C1736 C1737 1.369 . S
C1736 C1740 1.531 . S
C1737 C1736 1.369 . S
C1737 C1738 1.410 . S
C1737 C1745 1.503 . S
C1738 C1737 1.410 . S
C1738 C1739 1.392 . S
C1738 C1741 1.511 . S
C1739 C1735 1.376 . S
C1739 C1738 1.392 . S
C1739 H1751 0.929 . S
C1740 C1736 1.531 . S
C1740 H1752 0.960 . S
C1740 H1753 0.962 . S
C1740 H1754 0.960 . S
C1741 C1738 1.511 . S
C1741 H1755 0.961 . S
C1741 H1756 0.961 . S
C1741 H1757 0.961 . S
C1742 C1743 1.370 . S
C1742 C1744 1.363 . S
C1742 H1758 0.931 . S
C1743 C1742 1.370 . S
C1743 C1747 1.408 . S
C1744 C1742 1.363 . S
C1744 C1745 1.370 . S
C1744 C1748 1.524 . S
C1745 C1737 1.503 . S
C1745 C1744 1.370 . S
C1745 C1746 1.403 . S
C1746 C1745 1.403 . S
C1746 C1747 1.404 . S
C1746 C1749 1.539 1_556 S
C1747 C1743 1.408 . S
C1747 C1746 1.404 . S
C1747 H1759 0.930 . S
C1748 C1744 1.524 . S
C1748 H1760 0.956 . S
C1748 H1761 0.961 . S
C1748 H1762 0.961 . S
C1749 C1746 1.539 1_554 S
C1749 H1763 0.958 . S
C1749 H1764 0.961 . S
C1749 H1765 0.960 1_554 S
H1750 C1734 0.931 . S
H1751 C1739 0.929 . S
H1752 C1740 0.960 . S
H1753 C1740 0.962 . S
H1754 C1740 0.960 . S
H1755 C1741 0.961 . S
H1756 C1741 0.961 . S
H1757 C1741 0.961 . S
H1758 C1742 0.931 . S
H1759 C1747 0.930 . S
H1760 C1748 0.956 . S
H1761 C1748 0.961 . S
H1762 C1748 0.961 . S
H1763 C1749 0.958 . S
H1764 C1749 0.961 . S
H1765 C1749 0.960 1_556 S
C1766 C1767 1.391 . S
C1766 C1768 1.394 . S
C1766 H1782 0.931 . S
C1767 C1766 1.391 . S
C1767 C1771 1.376 . S
C1768 C1766 1.394 . S
C1768 C1769 1.369 . S
C1768 C1772 1.531 . S
C1769 C1768 1.369 . S
C1769 C1770 1.410 . S
C1769 C1777 1.503 . S
C1770 C1769 1.410 . S
C1770 C1771 1.392 . S
C1770 C1773 1.511 . S
C1771 C1767 1.376 . S
C1771 C1770 1.392 . S
C1771 H1783 0.929 . S
C1772 C1768 1.531 . S
C1772 H1784 0.960 . S
C1772 H1785 0.962 . S
C1772 H1786 0.960 . S
C1773 C1770 1.511 . S
C1773 H1787 0.961 . S
C1773 H1788 0.961 . S
C1773 H1789 0.961 . S
C1774 C1775 1.370 . S
C1774 C1776 1.363 . S
C1774 H1790 0.931 . S
C1775 C1774 1.370 . S
C1775 C1779 1.408 . S
C1776 C1774 1.363 . S
C1776 C1777 1.370 . S
C1776 C1780 1.524 . S
C1777 C1769 1.503 . S
C1777 C1776 1.370 . S
C1777 C1778 1.403 . S
C1778 C1777 1.403 . S
C1778 C1779 1.404 . S
C1778 C1781 1.539 . S
C1779 C1775 1.408 . S
C1779 C1778 1.404 . S
C1779 H1791 0.930 1_554 S
C1780 C1776 1.524 . S
C1780 H1792 0.956 . S
C1780 H1793 0.961 . S
C1780 H1794 0.961 . S
C1781 C1778 1.539 . S
C1781 H1795 0.958 . S
C1781 H1796 0.961 1_554 S
C1781 H1797 0.960 . S
H1782 C1766 0.931 . S
H1783 C1771 0.929 . S
H1784 C1772 0.960 . S
H1785 C1772 0.962 . S
H1786 C1772 0.960 . S
H1787 C1773 0.961 . S
H1788 C1773 0.961 . S
H1789 C1773 0.961 . S
H1790 C1774 0.931 . S
H1791 C1779 0.930 1_556 S
H1792 C1780 0.956 . S
H1793 C1780 0.961 . S
H1794 C1780 0.961 . S
H1795 C1781 0.958 . S
H1796 C1781 0.961 1_556 S
H1797 C1781 0.960 . S
C1798 C1799 1.391 . S
C1798 C1800 1.394 . S
C1798 H1814 0.931 . S
C1799 C1798 1.391 . S
C1799 C1803 1.376 . S
C1800 C1798 1.394 . S
C1800 C1801 1.369 . S
C1800 C1804 1.531 . S
C1801 C1800 1.369 . S
C1801 C1802 1.410 . S
C1801 C1809 1.503 . S
C1802 C1801 1.410 . S
C1802 C1803 1.392 . S
C1802 C1805 1.511 . S
C1803 C1799 1.376 . S
C1803 C1802 1.392 . S
C1803 H1815 0.929 . S
C1804 C1800 1.531 . S
C1804 H1816 0.960 . S
C1804 H1817 0.962 . S
C1804 H1818 0.960 . S
C1805 C1802 1.511 . S
C1805 H1819 0.961 . S
C1805 H1820 0.961 . S
C1805 H1821 0.961 . S
C1806 C1807 1.370 . S
C1806 C1808 1.363 . S
C1806 H1822 0.931 . S
C1807 C1806 1.370 . S
C1807 C1811 1.408 . S
C1808 C1806 1.363 . S
C1808 C1809 1.370 . S
C1808 C1812 1.524 . S
C1809 C1801 1.503 . S
C1809 C1808 1.370 . S
C1809 C1810 1.403 . S
C1810 C1809 1.403 . S
C1810 C1811 1.404 . S
C1810 C1813 1.539 . S
C1811 C1807 1.408 . S
C1811 C1810 1.404 . S
C1811 H1823 0.930 . S
C1812 C1808 1.524 . S
C1812 H1824 0.956 . S
C1812 H1825 0.961 . S
C1812 H1826 0.961 . S
C1813 C1810 1.539 . S
C1813 H1827 0.958 . S
C1813 H1828 0.961 . S
C1813 H1829 0.960 . S
H1814 C1798 0.931 . S
H1815 C1803 0.929 . S
H1816 C1804 0.960 . S
H1817 C1804 0.962 . S
H1818 C1804 0.960 . S
H1819 C1805 0.961 . S
H1820 C1805 0.961 . S
H1821 C1805 0.961 . S
H1822 C1806 0.931 . S
H1823 C1811 0.930 . S
H1824 C1812 0.956 . S
H1825 C1812 0.961 . S
H1826 C1812 0.961 . S
H1827 C1813 0.958 . S
H1828 C1813 0.961 . S
H1829 C1813 0.960 . S
C1830 C1831 1.391 . S
C1830 C1832 1.394 . S
C1830 H1846 0.931 . S
C1831 C1830 1.391 . S
C1831 C1835 1.376 . S
C1832 C1830 1.394 . S
C1832 C1833 1.369 . S
C1832 C1836 1.531 . S
C1833 C1832 1.369 . S
C1833 C1834 1.410 . S
C1833 C1841 1.503 . S
C1834 C1833 1.410 . S
C1834 C1835 1.392 . S
C1834 C1837 1.511 . S
C1835 C1831 1.376 . S
C1835 C1834 1.392 . S
C1835 H1847 0.929 . S
C1836 C1832 1.531 . S
C1836 H1848 0.960 . S
C1836 H1849 0.962 . S
C1836 H1850 0.960 . S
C1837 C1834 1.511 . S
C1837 H1851 0.961 . S
C1837 H1852 0.961 . S
C1837 H1853 0.961 . S
C1838 C1839 1.370 . S
C1838 C1840 1.363 . S
C1838 H1854 0.931 . S
C1839 C1838 1.370 . S
C1839 C1843 1.408 . S
C1840 C1838 1.363 . S
C1840 C1841 1.370 . S
C1840 C1844 1.524 . S
C1841 C1833 1.503 . S
C1841 C1840 1.370 . S
C1841 C1842 1.403 . S
C1842 C1841 1.403 . S
C1842 C1843 1.404 . S
C1842 C1845 1.539 . S
C1843 C1839 1.408 . S
C1843 C1842 1.404 . S
C1843 H1855 0.930 . S
C1844 C1840 1.524 . S
C1844 H1856 0.956 . S
C1844 H1857 0.961 . S
C1844 H1858 0.961 . S
C1845 C1842 1.539 . S
C1845 H1859 0.958 1_554 S
C1845 H1860 0.961 1_554 S
C1845 H1861 0.960 . S
H1846 C1830 0.931 . S
H1847 C1835 0.929 . S
H1848 C1836 0.960 . S
H1849 C1836 0.962 . S
H1850 C1836 0.960 . S
H1851 C1837 0.961 . S
H1852 C1837 0.961 . S
H1853 C1837 0.961 . S
H1854 C1838 0.931 . S
H1855 C1843 0.930 . S
H1856 C1844 0.956 . S
H1857 C1844 0.961 . S
H1858 C1844 0.961 . S
H1859 C1845 0.958 1_556 S
H1860 C1845 0.961 1_556 S
H1861 C1845 0.960 . S
C1862 C1863 1.391 . S
C1862 C1864 1.394 . S
C1862 H1878 0.931 . S
C1863 C1862 1.391 . S
C1863 C1867 1.376 . S
C1864 C1862 1.394 . S
C1864 C1865 1.369 . S
C1864 C1868 1.531 . S
C1865 C1864 1.369 . S
C1865 C1866 1.410 . S
C1865 C1873 1.503 . S
C1866 C1865 1.410 . S
C1866 C1867 1.392 . S
C1866 C1869 1.511 . S
C1867 C1863 1.376 . S
C1867 C1866 1.392 . S
C1867 H1879 0.929 . S
C1868 C1864 1.531 . S
C1868 H1880 0.960 . S
C1868 H1881 0.962 . S
C1868 H1882 0.960 . S
C1869 C1866 1.511 . S
C1869 H1883 0.961 . S
C1869 H1884 0.961 . S
C1869 H1885 0.961 . S
C1870 C1871 1.370 . S
C1870 C1872 1.363 . S
C1870 H1886 0.931 . S
C1871 C1870 1.370 . S
C1871 C1875 1.408 . S
C1872 C1870 1.363 . S
C1872 C1873 1.370 . S
C1872 C1876 1.524 . S
C1873 C1865 1.503 . S
C1873 C1872 1.370 . S
C1873 C1874 1.403 . S
C1874 C1873 1.403 . S
C1874 C1875 1.404 . S
C1874 C1877 1.539 . S
C1875 C1871 1.408 . S
C1875 C1874 1.404 . S
C1875 H1887 0.930 . S
C1876 C1872 1.524 . S
C1876 H1888 0.956 . S
C1876 H1889 0.961 . S
C1876 H1890 0.961 . S
C1877 C1874 1.539 . S
C1877 H1891 0.958 . S
C1877 H1892 0.961 . S
C1877 H1893 0.960 . S
H1878 C1862 0.931 . S
H1879 C1867 0.929 . S
H1880 C1868 0.960 . S
H1881 C1868 0.962 . S
H1882 C1868 0.960 . S
H1883 C1869 0.961 . S
H1884 C1869 0.961 . S
H1885 C1869 0.961 . S
H1886 C1870 0.931 . S
H1887 C1875 0.930 . S
H1888 C1876 0.956 . S
H1889 C1876 0.961 . S
H1890 C1876 0.961 . S
H1891 C1877 0.958 . S
H1892 C1877 0.961 . S
H1893 C1877 0.960 . S
C1894 C1895 1.391 . S
C1894 C1896 1.394 . S
C1894 H1910 0.931 . S
C1895 C1894 1.391 . S
C1895 C1899 1.376 . S
C1896 C1894 1.394 . S
C1896 C1897 1.369 . S
C1896 C1900 1.531 . S
C1897 C1896 1.369 . S
C1897 C1898 1.410 . S
C1897 C1905 1.503 . S
C1898 C1897 1.410 . S
C1898 C1899 1.392 . S
C1898 C1901 1.511 . S
C1899 C1895 1.376 . S
C1899 C1898 1.392 . S
C1899 H1911 0.929 . S
C1900 C1896 1.531 . S
C1900 H1912 0.960 . S
C1900 H1913 0.962 . S
C1900 H1914 0.960 . S
C1901 C1898 1.511 . S
C1901 H1915 0.961 . S
C1901 H1916 0.961 . S
C1901 H1917 0.961 . S
C1902 C1903 1.370 . S
C1902 C1904 1.363 . S
C1902 H1918 0.931 . S
C1903 C1902 1.370 . S
C1903 C1907 1.408 . S
C1904 C1902 1.363 . S
C1904 C1905 1.370 . S
C1904 C1908 1.524 . S
C1905 C1897 1.503 . S
C1905 C1904 1.370 . S
C1905 C1906 1.403 . S
C1906 C1905 1.403 . S
C1906 C1907 1.404 . S
C1906 C1909 1.539 . S
C1907 C1903 1.408 . S
C1907 C1906 1.404 . S
C1907 H1919 0.930 . S
C1908 C1904 1.524 . S
C1908 H1920 0.956 . S
C1908 H1921 0.961 . S
C1908 H1922 0.961 . S
C1909 C1906 1.539 . S
C1909 H1923 0.958 . S
C1909 H1924 0.961 . S
C1909 H1925 0.960 . S
H1910 C1894 0.931 . S
H1911 C1899 0.929 . S
H1912 C1900 0.960 . S
H1913 C1900 0.962 . S
H1914 C1900 0.960 . S
H1915 C1901 0.961 . S
H1916 C1901 0.961 . S
H1917 C1901 0.961 . S
H1918 C1902 0.931 . S
H1919 C1907 0.930 . S
H1920 C1908 0.956 . S
H1921 C1908 0.961 . S
H1922 C1908 0.961 . S
H1923 C1909 0.958 . S
H1924 C1909 0.961 . S
H1925 C1909 0.960 . S
C1926 C1927 1.391 . S
C1926 C1928 1.394 . S
C1926 H1942 0.931 . S
C1927 C1926 1.391 . S
C1927 C1931 1.376 . S
C1928 C1926 1.394 . S
C1928 C1929 1.369 . S
C1928 C1932 1.531 . S
C1929 C1928 1.369 . S
C1929 C1930 1.410 . S
C1929 C1937 1.503 . S
C1930 C1929 1.410 . S
C1930 C1931 1.392 . S
C1930 C1933 1.511 . S
C1931 C1927 1.376 . S
C1931 C1930 1.392 . S
C1931 H1943 0.929 . S
C1932 C1928 1.531 . S
C1932 H1944 0.960 . S
C1932 H1945 0.962 . S
C1932 H1946 0.960 . S
C1933 C1930 1.511 . S
C1933 H1947 0.961 . S
C1933 H1948 0.961 . S
C1933 H1949 0.961 . S
C1934 C1935 1.370 . S
C1934 C1936 1.363 . S
C1934 H1950 0.931 . S
C1935 C1934 1.370 . S
C1935 C1939 1.408 . S
C1936 C1934 1.363 . S
C1936 C1937 1.370 . S
C1936 C1940 1.524 . S
C1937 C1929 1.503 . S
C1937 C1936 1.370 . S
C1937 C1938 1.403 . S
C1938 C1937 1.403 . S
C1938 C1939 1.404 . S
C1938 C1941 1.539 . S
C1939 C1935 1.408 . S
C1939 C1938 1.404 . S
C1939 H1951 0.930 . S
C1940 C1936 1.524 . S
C1940 H1952 0.956 . S
C1940 H1953 0.961 . S
C1940 H1954 0.961 . S
C1941 C1938 1.539 . S
C1941 H1955 0.958 . S
C1941 H1956 0.961 . S
C1941 H1957 0.960 . S
H1942 C1926 0.931 . S
H1943 C1931 0.929 . S
H1944 C1932 0.960 . S
H1945 C1932 0.962 . S
H1946 C1932 0.960 . S
H1947 C1933 0.961 . S
H1948 C1933 0.961 . S
H1949 C1933 0.961 . S
H1950 C1934 0.931 . S
H1951 C1939 0.930 . S
H1952 C1940 0.956 . S
H1953 C1940 0.961 . S
H1954 C1940 0.961 . S
H1955 C1941 0.958 . S
H1956 C1941 0.961 . S
H1957 C1941 0.960 . S
C1958 C1959 1.391 . S
C1958 C1960 1.394 . S
C1958 H1974 0.931 . S
C1959 C1958 1.391 . S
C1959 C1963 1.376 . S
C1960 C1958 1.394 . S
C1960 C1961 1.369 . S
C1960 C1964 1.531 . S
C1961 C1960 1.369 . S
C1961 C1962 1.410 . S
C1961 C1969 1.503 . S
C1962 C1961 1.410 . S
C1962 C1963 1.392 . S
C1962 C1965 1.511 . S
C1963 C1959 1.376 . S
C1963 C1962 1.392 . S
C1963 H1975 0.929 . S
C1964 C1960 1.531 . S
C1964 H1976 0.960 . S
C1964 H1977 0.962 . S
C1964 H1978 0.960 . S
C1965 C1962 1.511 . S
C1965 H1979 0.961 . S
C1965 H1980 0.961 . S
C1965 H1981 0.961 . S
C1966 C1967 1.370 . S
C1966 C1968 1.363 . S
C1966 H1982 0.931 . S
C1967 C1966 1.370 . S
C1967 C1971 1.408 . S
C1968 C1966 1.363 . S
C1968 C1969 1.370 . S
C1968 C1972 1.524 . S
C1969 C1961 1.503 . S
C1969 C1968 1.370 . S
C1969 C1970 1.403 . S
C1970 C1969 1.403 . S
C1970 C1971 1.404 . S
C1970 C1973 1.539 . S
C1971 C1967 1.408 . S
C1971 C1970 1.404 . S
C1971 H1983 0.930 . S
C1972 C1968 1.524 . S
C1972 H1984 0.956 . S
C1972 H1985 0.961 . S
C1972 H1986 0.961 . S
C1973 C1970 1.539 . S
C1973 H1987 0.958 . S
C1973 H1988 0.961 . S
C1973 H1989 0.960 . S
H1974 C1958 0.931 . S
H1975 C1963 0.929 . S
H1976 C1964 0.960 . S
H1977 C1964 0.962 . S
H1978 C1964 0.960 . S
H1979 C1965 0.961 . S
H1980 C1965 0.961 . S
H1981 C1965 0.961 . S
H1982 C1966 0.931 . S
H1983 C1971 0.930 . S
H1984 C1972 0.956 . S
H1985 C1972 0.961 . S
H1986 C1972 0.961 . S
H1987 C1973 0.958 . S
H1988 C1973 0.961 . S
H1989 C1973 0.960 . S
C1990 C1991 1.391 . S
C1990 C1992 1.394 . S
C1990 H2006 0.931 . S
C1991 C1990 1.391 . S
C1991 C1995 1.376 . S
C1992 C1990 1.394 . S
C1992 C1993 1.369 . S
C1992 C1996 1.531 . S
C1993 C1992 1.369 . S
C1993 C1994 1.410 . S
C1993 C2001 1.503 . S
C1994 C1993 1.410 . S
C1994 C1995 1.392 . S
C1994 C1997 1.511 . S
C1995 C1991 1.376 . S
C1995 C1994 1.392 . S
C1995 H2007 0.929 . S
C1996 C1992 1.531 . S
C1996 H2008 0.960 . S
C1996 H2009 0.962 . S
C1996 H2010 0.960 . S
C1997 C1994 1.511 . S
C1997 H2011 0.961 . S
C1997 H2012 0.961 . S
C1997 H2013 0.961 . S
C1998 C1999 1.370 . S
C1998 C2000 1.363 . S
C1998 H2014 0.931 . S
C1999 C1998 1.370 . S
C1999 C2003 1.408 . S
C2000 C1998 1.363 . S
C2000 C2001 1.370 . S
C2000 C2004 1.524 . S
C2001 C1993 1.503 . S
C2001 C2000 1.370 . S
C2001 C2002 1.403 . S
C2002 C2001 1.403 . S
C2002 C2003 1.404 . S
C2002 C2005 1.539 . S
C2003 C1999 1.408 . S
C2003 C2002 1.404 . S
C2003 H2015 0.930 . S
C2004 C2000 1.524 . S
C2004 H2016 0.956 . S
C2004 H2017 0.961 . S
C2004 H2018 0.961 . S
C2005 C2002 1.539 . S
C2005 H2019 0.958 . S
C2005 H2020 0.961 . S
C2005 H2021 0.960 . S
H2006 C1990 0.931 . S
H2007 C1995 0.929 . S
H2008 C1996 0.960 . S
H2009 C1996 0.962 . S
H2010 C1996 0.960 . S
H2011 C1997 0.961 . S
H2012 C1997 0.961 . S
H2013 C1997 0.961 . S
H2014 C1998 0.931 . S
H2015 C2003 0.930 . S
H2016 C2004 0.956 . S
H2017 C2004 0.961 . S
H2018 C2004 0.961 . S
H2019 C2005 0.958 . S
H2020 C2005 0.961 . S
H2021 C2005 0.960 . S
C2022 C2023 1.391 . S
C2022 C2024 1.394 . S
C2022 H2038 0.931 . S
C2023 C2022 1.391 . S
C2023 C2027 1.376 . S
C2024 C2022 1.394 . S
C2024 C2025 1.369 . S
C2024 C2028 1.531 . S
C2025 C2024 1.369 . S
C2025 C2026 1.410 . S
C2025 C2033 1.503 . S
C2026 C2025 1.410 . S
C2026 C2027 1.392 . S
C2026 C2029 1.511 . S
C2027 C2023 1.376 . S
C2027 C2026 1.392 . S
C2027 H2039 0.929 . S
C2028 C2024 1.531 . S
C2028 H2040 0.960 . S
C2028 H2041 0.962 . S
C2028 H2042 0.960 . S
C2029 C2026 1.511 . S
C2029 H2043 0.961 . S
C2029 H2044 0.961 . S
C2029 H2045 0.961 . S
C2030 C2031 1.370 . S
C2030 C2032 1.363 . S
C2030 H2046 0.931 . S
C2031 C2030 1.370 . S
C2031 C2035 1.408 . S
C2032 C2030 1.363 . S
C2032 C2033 1.370 . S
C2032 C2036 1.524 . S
C2033 C2025 1.503 . S
C2033 C2032 1.370 . S
C2033 C2034 1.403 . S
C2034 C2033 1.403 . S
C2034 C2035 1.404 . S
C2034 C2037 1.539 . S
C2035 C2031 1.408 . S
C2035 C2034 1.404 . S
C2035 H2047 0.930 . S
C2036 C2032 1.524 . S
C2036 H2048 0.956 . S
C2036 H2049 0.961 . S
C2036 H2050 0.961 . S
C2037 C2034 1.539 . S
C2037 H2051 0.958 . S
C2037 H2052 0.961 . S
C2037 H2053 0.960 . S
H2038 C2022 0.931 . S
H2039 C2027 0.929 . S
H2040 C2028 0.960 . S
H2041 C2028 0.962 . S
H2042 C2028 0.960 . S
H2043 C2029 0.961 . S
H2044 C2029 0.961 . S
H2045 C2029 0.961 . S
H2046 C2030 0.931 . S
H2047 C2035 0.930 . S
H2048 C2036 0.956 . S
H2049 C2036 0.961 . S
H2050 C2036 0.961 . S
H2051 C2037 0.958 . S
H2052 C2037 0.961 . S
H2053 C2037 0.960 . S
C2054 C2055 1.391 . S
C2054 C2056 1.394 . S
C2054 H2070 0.931 . S
C2055 C2054 1.391 . S
C2055 C2059 1.376 . S
C2056 C2054 1.394 . S
C2056 C2057 1.369 . S
C2056 C2060 1.531 . S
C2057 C2056 1.369 . S
C2057 C2058 1.410 . S
C2057 C2065 1.503 . S
C2058 C2057 1.410 . S
C2058 C2059 1.392 . S
C2058 C2061 1.511 . S
C2059 C2055 1.376 . S
C2059 C2058 1.392 . S
C2059 H2071 0.929 . S
C2060 C2056 1.531 . S
C2060 H2072 0.960 . S
C2060 H2073 0.962 . S
C2060 H2074 0.960 . S
C2061 C2058 1.511 . S
C2061 H2075 0.961 . S
C2061 H2076 0.961 . S
C2061 H2077 0.961 . S
C2062 C2063 1.370 . S
C2062 C2064 1.363 . S
C2062 H2078 0.931 . S
C2063 C2062 1.370 . S
C2063 C2067 1.408 . S
C2064 C2062 1.363 . S
C2064 C2065 1.370 . S
C2064 C2068 1.524 . S
C2065 C2057 1.503 . S
C2065 C2064 1.370 . S
C2065 C2066 1.403 . S
C2066 C2065 1.403 . S
C2066 C2067 1.404 . S
C2066 C2069 1.539 . S
C2067 C2063 1.408 . S
C2067 C2066 1.404 . S
C2067 H2079 0.930 . S
C2068 C2064 1.524 . S
C2068 H2080 0.956 . S
C2068 H2081 0.961 . S
C2068 H2082 0.961 . S
C2069 C2066 1.539 . S
C2069 H2083 0.958 . S
C2069 H2084 0.961 . S
C2069 H2085 0.960 . S
H2070 C2054 0.931 . S
H2071 C2059 0.929 . S
H2072 C2060 0.960 . S
H2073 C2060 0.962 . S
H2074 C2060 0.960 . S
H2075 C2061 0.961 . S
H2076 C2061 0.961 . S
H2077 C2061 0.961 . S
H2078 C2062 0.931 . S
H2079 C2067 0.930 . S
H2080 C2068 0.956 . S
H2081 C2068 0.961 . S
H2082 C2068 0.961 . S
H2083 C2069 0.958 . S
H2084 C2069 0.961 . S
H2085 C2069 0.960 . S
C2086 C2087 1.391 . S
C2086 C2088 1.394 . S
C2086 H2102 0.931 . S
C2087 C2086 1.391 . S
C2087 C2091 1.376 . S
C2088 C2086 1.394 . S
C2088 C2089 1.369 . S
C2088 C2092 1.531 . S
C2089 C2088 1.369 . S
C2089 C2090 1.410 . S
C2089 C2097 1.503 . S
C2090 C2089 1.410 . S
C2090 C2091 1.392 . S
C2090 C2093 1.511 . S
C2091 C2087 1.376 . S
C2091 C2090 1.392 . S
C2091 H2103 0.929 . S
C2092 C2088 1.531 . S
C2092 H2104 0.960 . S
C2092 H2105 0.962 . S
C2092 H2106 0.960 . S
C2093 C2090 1.511 . S
C2093 H2107 0.961 . S
C2093 H2108 0.961 . S
C2093 H2109 0.961 . S
C2094 C2095 1.370 . S
C2094 C2096 1.363 . S
C2094 H2110 0.931 . S
C2095 C2094 1.370 . S
C2095 C2099 1.408 . S
C2096 C2094 1.363 . S
C2096 C2097 1.370 . S
C2096 C2100 1.524 . S
C2097 C2089 1.503 . S
C2097 C2096 1.370 . S
C2097 C2098 1.403 . S
C2098 C2097 1.403 . S
C2098 C2099 1.404 . S
C2098 C2101 1.539 . S
C2099 C2095 1.408 . S
C2099 C2098 1.404 . S
C2099 H2111 0.930 . S
C2100 C2096 1.524 . S
C2100 H2112 0.956 . S
C2100 H2113 0.961 . S
C2100 H2114 0.961 . S
C2101 C2098 1.539 . S
C2101 H2115 0.958 . S
C2101 H2116 0.961 . S
C2101 H2117 0.960 . S
H2102 C2086 0.931 . S
H2103 C2091 0.929 . S
H2104 C2092 0.960 . S
H2105 C2092 0.962 . S
H2106 C2092 0.960 . S
H2107 C2093 0.961 . S
H2108 C2093 0.961 . S
H2109 C2093 0.961 . S
H2110 C2094 0.931 . S
H2111 C2099 0.930 . S
H2112 C2100 0.956 . S
H2113 C2100 0.961 . S
H2114 C2100 0.961 . S
H2115 C2101 0.958 . S
H2116 C2101 0.961 . S
H2117 C2101 0.960 . S
C2118 C2119 1.391 . S
C2118 C2120 1.394 . S
C2118 H2134 0.931 . S
C2119 C2118 1.391 . S
C2119 C2123 1.376 . S
C2120 C2118 1.394 . S
C2120 C2121 1.369 . S
C2120 C2124 1.531 . S
C2121 C2120 1.369 . S
C2121 C2122 1.410 . S
C2121 C2129 1.503 . S
C2122 C2121 1.410 . S
C2122 C2123 1.392 . S
C2122 C2125 1.511 . S
C2123 C2119 1.376 . S
C2123 C2122 1.392 . S
C2123 H2135 0.929 . S
C2124 C2120 1.531 . S
C2124 H2136 0.960 . S
C2124 H2137 0.962 . S
C2124 H2138 0.960 . S
C2125 C2122 1.511 . S
C2125 H2139 0.961 . S
C2125 H2140 0.961 . S
C2125 H2141 0.961 . S
C2126 C2127 1.370 . S
C2126 C2128 1.363 . S
C2126 H2142 0.931 . S
C2127 C2126 1.370 . S
C2127 C2131 1.408 . S
C2128 C2126 1.363 . S
C2128 C2129 1.370 . S
C2128 C2132 1.524 . S
C2129 C2121 1.503 . S
C2129 C2128 1.370 . S
C2129 C2130 1.403 . S
C2130 C2129 1.403 . S
C2130 C2131 1.404 . S
C2130 C2133 1.539 . S
C2131 C2127 1.408 . S
C2131 C2130 1.404 . S
C2131 H2143 0.930 . S
C2132 C2128 1.524 . S
C2132 H2144 0.956 . S
C2132 H2145 0.961 . S
C2132 H2146 0.961 . S
C2133 C2130 1.539 . S
C2133 H2147 0.958 . S
C2133 H2148 0.961 . S
C2133 H2149 0.960 . S
H2134 C2118 0.931 . S
H2135 C2123 0.929 . S
H2136 C2124 0.960 . S
H2137 C2124 0.962 . S
H2138 C2124 0.960 . S
H2139 C2125 0.961 . S
H2140 C2125 0.961 . S
H2141 C2125 0.961 . S
H2142 C2126 0.931 . S
H2143 C2131 0.930 . S
H2144 C2132 0.956 . S
H2145 C2132 0.961 . S
H2146 C2132 0.961 . S
H2147 C2133 0.958 . S
H2148 C2133 0.961 . S
H2149 C2133 0.960 . S
C2150 C2151 1.391 . S
C2150 C2152 1.394 . S
C2150 H2166 0.931 . S
C2151 C2150 1.391 . S
C2151 C2155 1.376 . S
C2152 C2150 1.394 . S
C2152 C2153 1.369 . S
C2152 C2156 1.531 . S
C2153 C2152 1.369 . S
C2153 C2154 1.410 . S
C2153 C2161 1.503 . S
C2154 C2153 1.410 . S
C2154 C2155 1.392 . S
C2154 C2157 1.511 . S
C2155 C2151 1.376 . S
C2155 C2154 1.392 . S
C2155 H2167 0.929 . S
C2156 C2152 1.531 . S
C2156 H2168 0.960 . S
C2156 H2169 0.962 . S
C2156 H2170 0.960 . S
C2157 C2154 1.511 . S
C2157 H2171 0.961 . S
C2157 H2172 0.961 . S
C2157 H2173 0.961 . S
C2158 C2159 1.370 . S
C2158 C2160 1.363 . S
C2158 H2174 0.931 . S
C2159 C2158 1.370 . S
C2159 C2163 1.408 . S
C2160 C2158 1.363 . S
C2160 C2161 1.370 . S
C2160 C2164 1.524 . S
C2161 C2153 1.503 . S
C2161 C2160 1.370 . S
C2161 C2162 1.403 . S
C2162 C2161 1.403 . S
C2162 C2163 1.404 . S
C2162 C2165 1.539 . S
C2163 C2159 1.408 . S
C2163 C2162 1.404 . S
C2163 H2175 0.930 . S
C2164 C2160 1.524 . S
C2164 H2176 0.956 . S
C2164 H2177 0.961 . S
C2164 H2178 0.961 . S
C2165 C2162 1.539 . S
C2165 H2179 0.958 . S
C2165 H2180 0.961 . S
C2165 H2181 0.960 . S
H2166 C2150 0.931 . S
H2167 C2155 0.929 . S
H2168 C2156 0.960 . S
H2169 C2156 0.962 . S
H2170 C2156 0.960 . S
H2171 C2157 0.961 . S
H2172 C2157 0.961 . S
H2173 C2157 0.961 . S
H2174 C2158 0.931 . S
H2175 C2163 0.930 . S
H2176 C2164 0.956 . S
H2177 C2164 0.961 . S
H2178 C2164 0.961 . S
H2179 C2165 0.958 . S
H2180 C2165 0.961 . S
H2181 C2165 0.960 . S
C2182 C2183 1.391 . S
C2182 C2184 1.394 . S
C2182 H2198 0.931 . S
C2183 C2182 1.391 . S
C2183 C2187 1.376 . S
C2184 C2182 1.394 . S
C2184 C2185 1.369 . S
C2184 C2188 1.531 . S
C2185 C2184 1.369 . S
C2185 C2186 1.410 . S
C2185 C2193 1.503 . S
C2186 C2185 1.410 . S
C2186 C2187 1.392 . S
C2186 C2189 1.511 . S
C2187 C2183 1.376 . S
C2187 C2186 1.392 . S
C2187 H2199 0.929 . S
C2188 C2184 1.531 . S
C2188 H2200 0.960 . S
C2188 H2201 0.962 . S
C2188 H2202 0.960 . S
C2189 C2186 1.511 . S
C2189 H2203 0.961 . S
C2189 H2204 0.961 . S
C2189 H2205 0.961 . S
C2190 C2191 1.370 . S
C2190 C2192 1.363 . S
C2190 H2206 0.931 . S
C2191 C2190 1.370 . S
C2191 C2195 1.408 . S
C2192 C2190 1.363 . S
C2192 C2193 1.370 . S
C2192 C2196 1.524 . S
C2193 C2185 1.503 . S
C2193 C2192 1.370 . S
C2193 C2194 1.403 . S
C2194 C2193 1.403 . S
C2194 C2195 1.404 . S
C2194 C2197 1.539 . S
C2195 C2191 1.408 . S
C2195 C2194 1.404 . S
C2195 H2207 0.930 . S
C2196 C2192 1.524 . S
C2196 H2208 0.956 . S
C2196 H2209 0.961 . S
C2196 H2210 0.961 . S
C2197 C2194 1.539 . S
C2197 H2211 0.958 . S
C2197 H2212 0.961 . S
C2197 H2213 0.960 . S
H2198 C2182 0.931 . S
H2199 C2187 0.929 . S
H2200 C2188 0.960 . S
H2201 C2188 0.962 . S
H2202 C2188 0.960 . S
H2203 C2189 0.961 . S
H2204 C2189 0.961 . S
H2205 C2189 0.961 . S
H2206 C2190 0.931 . S
H2207 C2195 0.930 . S
H2208 C2196 0.956 . S
H2209 C2196 0.961 . S
H2210 C2196 0.961 . S
H2211 C2197 0.958 . S
H2212 C2197 0.961 . S
H2213 C2197 0.960 . S
C2214 C2215 1.391 . S
C2214 C2216 1.394 . S
C2214 H2230 0.931 . S
C2215 C2214 1.391 . S
C2215 C2219 1.376 . S
C2216 C2214 1.394 . S
C2216 C2217 1.369 . S
C2216 C2220 1.531 . S
C2217 C2216 1.369 . S
C2217 C2218 1.410 . S
C2217 C2225 1.503 . S
C2218 C2217 1.410 . S
C2218 C2219 1.392 . S
C2218 C2221 1.511 . S
C2219 C2215 1.376 . S
C2219 C2218 1.392 . S
C2219 H2231 0.929 . S
C2220 C2216 1.531 . S
C2220 H2232 0.960 . S
C2220 H2233 0.962 . S
C2220 H2234 0.960 . S
C2221 C2218 1.511 . S
C2221 H2235 0.961 . S
C2221 H2236 0.961 . S
C2221 H2237 0.961 . S
C2222 C2223 1.370 . S
C2222 C2224 1.363 . S
C2222 H2238 0.931 . S
C2223 C2222 1.370 . S
C2223 C2227 1.408 . S
C2224 C2222 1.363 . S
C2224 C2225 1.370 . S
C2224 C2228 1.524 . S
C2225 C2217 1.503 . S
C2225 C2224 1.370 . S
C2225 C2226 1.403 . S
C2226 C2225 1.403 . S
C2226 C2227 1.404 . S
C2226 C2229 1.539 . S
C2227 C2223 1.408 . S
C2227 C2226 1.404 . S
C2227 H2239 0.930 . S
C2228 C2224 1.524 . S
C2228 H2240 0.956 . S
C2228 H2241 0.961 . S
C2228 H2242 0.961 . S
C2229 C2226 1.539 . S
C2229 H2243 0.958 . S
C2229 H2244 0.961 . S
C2229 H2245 0.960 . S
H2230 C2214 0.931 . S
H2231 C2219 0.929 . S
H2232 C2220 0.960 . S
H2233 C2220 0.962 . S
H2234 C2220 0.960 . S
H2235 C2221 0.961 . S
H2236 C2221 0.961 . S
H2237 C2221 0.961 . S
H2238 C2222 0.931 . S
H2239 C2227 0.930 . S
H2240 C2228 0.956 . S
H2241 C2228 0.961 . S
H2242 C2228 0.961 . S
H2243 C2229 0.958 . S
H2244 C2229 0.961 . S
H2245 C2229 0.960 . S
C2246 C2247 1.391 . S
C2246 C2248 1.394 . S
C2246 H2262 0.931 . S
C2247 C2246 1.391 . S
C2247 C2251 1.376 . S
C2248 C2246 1.394 . S
C2248 C2249 1.369 . S
C2248 C2252 1.531 . S
C2249 C2248 1.369 . S
C2249 C2250 1.410 . S
C2249 C2257 1.503 . S
C2250 C2249 1.410 . S
C2250 C2251 1.392 . S
C2250 C2253 1.511 . S
C2251 C2247 1.376 . S
C2251 C2250 1.392 . S
C2251 H2263 0.929 . S
C2252 C2248 1.531 . S
C2252 H2264 0.960 . S
C2252 H2265 0.962 . S
C2252 H2266 0.960 . S
C2253 C2250 1.511 . S
C2253 H2267 0.961 . S
C2253 H2268 0.961 . S
C2253 H2269 0.961 . S
C2254 C2255 1.370 . S
C2254 C2256 1.363 . S
C2254 H2270 0.931 . S
C2255 C2254 1.370 . S
C2255 C2259 1.408 . S
C2256 C2254 1.363 . S
C2256 C2257 1.370 . S
C2256 C2260 1.524 . S
C2257 C2249 1.503 . S
C2257 C2256 1.370 . S
C2257 C2258 1.403 . S
C2258 C2257 1.403 . S
C2258 C2259 1.404 . S
C2258 C2261 1.539 . S
C2259 C2255 1.408 . S
C2259 C2258 1.404 . S
C2259 H2271 0.930 . S
C2260 C2256 1.524 . S
C2260 H2272 0.956 . S
C2260 H2273 0.961 . S
C2260 H2274 0.961 . S
C2261 C2258 1.539 . S
C2261 H2275 0.958 . S
C2261 H2276 0.961 . S
C2261 H2277 0.960 . S
H2262 C2246 0.931 . S
H2263 C2251 0.929 . S
H2264 C2252 0.960 . S
H2265 C2252 0.962 . S
H2266 C2252 0.960 . S
H2267 C2253 0.961 . S
H2268 C2253 0.961 . S
H2269 C2253 0.961 . S
H2270 C2254 0.931 . S
H2271 C2259 0.930 . S
H2272 C2260 0.956 . S
H2273 C2260 0.961 . S
H2274 C2260 0.961 . S
H2275 C2261 0.958 . S
H2276 C2261 0.961 . S
H2277 C2261 0.960 . S
C2278 C2279 1.391 . S
C2278 C2280 1.394 . S
C2278 H2294 0.931 . S
C2279 C2278 1.391 . S
C2279 C2283 1.376 . S
C2280 C2278 1.394 . S
C2280 C2281 1.369 . S
C2280 C2284 1.531 . S
C2281 C2280 1.369 . S
C2281 C2282 1.410 . S
C2281 C2289 1.503 . S
C2282 C2281 1.410 . S
C2282 C2283 1.392 . S
C2282 C2285 1.511 . S
C2283 C2279 1.376 . S
C2283 C2282 1.392 . S
C2283 H2295 0.929 . S
C2284 C2280 1.531 . S
C2284 H2296 0.960 . S
C2284 H2297 0.962 . S
C2284 H2298 0.960 . S
C2285 C2282 1.511 . S
C2285 H2299 0.961 . S
C2285 H2300 0.961 . S
C2285 H2301 0.961 . S
C2286 C2287 1.370 . S
C2286 C2288 1.363 . S
C2286 H2302 0.931 . S
C2287 C2286 1.370 . S
C2287 C2291 1.408 . S
C2288 C2286 1.363 . S
C2288 C2289 1.370 . S
C2288 C2292 1.524 . S
C2289 C2281 1.503 . S
C2289 C2288 1.370 . S
C2289 C2290 1.403 . S
C2290 C2289 1.403 . S
C2290 C2291 1.404 . S
C2290 C2293 1.539 . S
C2291 C2287 1.408 . S
C2291 C2290 1.404 . S
C2291 H2303 0.930 . S
C2292 C2288 1.524 . S
C2292 H2304 0.956 . S
C2292 H2305 0.961 . S
C2292 H2306 0.961 . S
C2293 C2290 1.539 . S
C2293 H2307 0.958 . S
C2293 H2308 0.961 . S
C2293 H2309 0.960 . S
H2294 C2278 0.931 . S
H2295 C2283 0.929 . S
H2296 C2284 0.960 . S
H2297 C2284 0.962 . S
H2298 C2284 0.960 . S
H2299 C2285 0.961 . S
H2300 C2285 0.961 . S
H2301 C2285 0.961 . S
H2302 C2286 0.931 . S
H2303 C2291 0.930 . S
H2304 C2292 0.956 . S
H2305 C2292 0.961 . S
H2306 C2292 0.961 . S
H2307 C2293 0.958 . S
H2308 C2293 0.961 . S
H2309 C2293 0.960 . S
C2310 C2311 1.391 . S
C2310 C2312 1.394 . S
C2310 H2326 0.931 . S
C2311 C2310 1.391 . S
C2311 C2315 1.376 . S
C2312 C2310 1.394 . S
C2312 C2313 1.369 . S
C2312 C2316 1.531 . S
C2313 C2312 1.369 . S
C2313 C2314 1.410 . S
C2313 C2321 1.503 . S
C2314 C2313 1.410 . S
C2314 C2315 1.392 . S
C2314 C2317 1.511 . S
C2315 C2311 1.376 . S
C2315 C2314 1.392 . S
C2315 H2327 0.929 . S
C2316 C2312 1.531 . S
C2316 H2328 0.960 . S
C2316 H2329 0.962 . S
C2316 H2330 0.960 . S
C2317 C2314 1.511 . S
C2317 H2331 0.961 . S
C2317 H2332 0.961 . S
C2317 H2333 0.961 . S
C2318 C2319 1.370 . S
C2318 C2320 1.363 . S
C2318 H2334 0.931 . S
C2319 C2318 1.370 . S
C2319 C2323 1.408 . S
C2320 C2318 1.363 . S
C2320 C2321 1.370 . S
C2320 C2324 1.524 . S
C2321 C2313 1.503 . S
C2321 C2320 1.370 . S
C2321 C2322 1.403 . S
C2322 C2321 1.403 . S
C2322 C2323 1.404 . S
C2322 C2325 1.539 . S
C2323 C2319 1.408 . S
C2323 C2322 1.404 . S
C2323 H2335 0.930 . S
C2324 C2320 1.524 . S
C2324 H2336 0.956 . S
C2324 H2337 0.961 . S
C2324 H2338 0.961 . S
C2325 C2322 1.539 . S
C2325 H2339 0.958 . S
C2325 H2340 0.961 . S
C2325 H2341 0.960 . S
H2326 C2310 0.931 . S
H2327 C2315 0.929 . S
H2328 C2316 0.960 . S
H2329 C2316 0.962 . S
H2330 C2316 0.960 . S
H2331 C2317 0.961 . S
H2332 C2317 0.961 . S
H2333 C2317 0.961 . S
H2334 C2318 0.931 . S
H2335 C2323 0.930 . S
H2336 C2324 0.956 . S
H2337 C2324 0.961 . S
H2338 C2324 0.961 . S
H2339 C2325 0.958 . S
H2340 C2325 0.961 . S
H2341 C2325 0.960 . S
C2342 C2343 1.391 . S
C2342 C2344 1.394 . S
C2342 H2358 0.931 . S
C2343 C2342 1.391 . S
C2343 C2347 1.376 . S
C2344 C2342 1.394 . S
C2344 C2345 1.369 . S
C2344 C2348 1.531 . S
C2345 C2344 1.369 . S
C2345 C2346 1.410 . S
C2345 C2353 1.503 . S
C2346 C2345 1.410 . S
C2346 C2347 1.392 . S
C2346 C2349 1.511 . S
C2347 C2343 1.376 . S
C2347 C2346 1.392 . S
C2347 H2359 0.929 . S
C2348 C2344 1.531 . S
C2348 H2360 0.960 . S
C2348 H2361 0.962 . S
C2348 H2362 0.960 . S
C2349 C2346 1.511 . S
C2349 H2363 0.961 . S
C2349 H2364 0.961 . S
C2349 H2365 0.961 . S
C2350 C2351 1.370 . S
C2350 C2352 1.363 . S
C2350 H2366 0.931 . S
C2351 C2350 1.370 . S
C2351 C2355 1.408 . S
C2352 C2350 1.363 . S
C2352 C2353 1.370 . S
C2352 C2356 1.524 . S
C2353 C2345 1.503 . S
C2353 C2352 1.370 . S
C2353 C2354 1.403 . S
C2354 C2353 1.403 . S
C2354 C2355 1.404 . S
C2354 C2357 1.539 . S
C2355 C2351 1.408 . S
C2355 C2354 1.404 . S
C2355 H2367 0.930 . S
C2356 C2352 1.524 . S
C2356 H2368 0.956 . S
C2356 H2369 0.961 . S
C2356 H2370 0.961 . S
C2357 C2354 1.539 . S
C2357 H2371 0.958 . S
C2357 H2372 0.961 . S
C2357 H2373 0.960 . S
H2358 C2342 0.931 . S
H2359 C2347 0.929 . S
H2360 C2348 0.960 . S
H2361 C2348 0.962 . S
H2362 C2348 0.960 . S
H2363 C2349 0.961 . S
H2364 C2349 0.961 . S
H2365 C2349 0.961 . S
H2366 C2350 0.931 . S
H2367 C2355 0.930 . S
H2368 C2356 0.956 . S
H2369 C2356 0.961 . S
H2370 C2356 0.961 . S
H2371 C2357 0.958 . S
H2372 C2357 0.961 . S
H2373 C2357 0.960 . S
C2374 C2375 1.391 . S
C2374 C2376 1.394 . S
C2374 H2390 0.931 . S
C2375 C2374 1.391 . S
C2375 C2379 1.376 . S
C2376 C2374 1.394 . S
C2376 C2377 1.369 . S
C2376 C2380 1.531 . S
C2377 C2376 1.369 . S
C2377 C2378 1.410 . S
C2377 C2385 1.503 . S
C2378 C2377 1.410 . S
C2378 C2379 1.392 . S
C2378 C2381 1.511 . S
C2379 C2375 1.376 . S
C2379 C2378 1.392 . S
C2379 H2391 0.929 . S
C2380 C2376 1.531 . S
C2380 H2392 0.960 . S
C2380 H2393 0.962 . S
C2380 H2394 0.960 . S
C2381 C2378 1.511 . S
C2381 H2395 0.961 . S
C2381 H2396 0.961 . S
C2381 H2397 0.961 . S
C2382 C2383 1.370 . S
C2382 C2384 1.363 . S
C2382 H2398 0.931 . S
C2383 C2382 1.370 . S
C2383 C2387 1.408 . S
C2384 C2382 1.363 . S
C2384 C2385 1.370 . S
C2384 C2388 1.524 . S
C2385 C2377 1.503 . S
C2385 C2384 1.370 . S
C2385 C2386 1.403 . S
C2386 C2385 1.403 . S
C2386 C2387 1.404 . S
C2386 C2389 1.539 . S
C2387 C2383 1.408 . S
C2387 C2386 1.404 . S
C2387 H2399 0.930 . S
C2388 C2384 1.524 . S
C2388 H2400 0.956 . S
C2388 H2401 0.961 . S
C2388 H2402 0.961 . S
C2389 C2386 1.539 . S
C2389 H2403 0.958 . S
C2389 H2404 0.961 . S
C2389 H2405 0.960 . S
H2390 C2374 0.931 . S
H2391 C2379 0.929 . S
H2392 C2380 0.960 . S
H2393 C2380 0.962 . S
H2394 C2380 0.960 . S
H2395 C2381 0.961 . S
H2396 C2381 0.961 . S
H2397 C2381 0.961 . S
H2398 C2382 0.931 . S
H2399 C2387 0.930 . S
H2400 C2388 0.956 . S
H2401 C2388 0.961 . S
H2402 C2388 0.961 . S
H2403 C2389 0.958 . S
H2404 C2389 0.961 . S
H2405 C2389 0.960 . S
C879 C699 1.372 . S
C871 C56 1.492 . S
C911 C700 1.590 . S
C903 C154 1.492 . S
C943 C694 1.563 . S
C935 C236 1.608 . S
C967 C310 0.872 . S
C975 C693 0.301 . S
C999 C394 1.496 . S
C1007 C696 1.590 . S
C1039 C698 1.575 . S
C1031 C476 1.603 . S
C1063 C574 0.856 . S
C1071 C697 0.303 . S
C1095 C656 1.467 . S
C1103 C695 1.377 . S
C1135 C730 2.620 . S
C1127 C67 2.606 . S
C1159 C139 1.618 . S
C1167 C761 1.515 . S
C1199 C729 1.357 . S
C1191 C238 1.280 . S
C1231 C764 1.369 . S
C1223 C308 1.353 . S
C1255 C392 1.630 . S
C1263 C727 1.640 . S
C1295 C759 2.624 . S
C1287 C487 2.628 . S
C1319 C559 1.339 . S
C1327 C732 1.230 . S
C1351 C658 1.287 . S
C1359 C766 1.349 . S
C1383 C58 1.234 . S
C1391 C762 1.341 . S
C1415 C403 1.621 . S
C1423 C765 1.504 . S
C1455 C733 1.382 . S
C1447 C478 1.323 . S
C1487 C760 1.366 . S
C1479 C572 1.353 . S
C1511 C643 2.605 . S
C1519 C726 2.618 . S
C1543 C223 2.628 . S
C1551 C763 2.623 . S
C1583 C728 1.257 . S
C1575 C319 1.356 . S
C1607 C152 1.636 . S
C1615 C731 1.621 . S
C1639 C644 1.495 . S
C1647 C798 1.416 . S
C1671 C406 1.246 . S
C1679 C799 1.244 . S
C1711 C793 1.413 . S
C1703 C488 1.383 . S
C1743 C792 0.296 . S
C1735 C562 0.841 . S
C1767 C142 1.275 . S
C1775 C795 1.272 . S
C1807 C797 1.416 . S
C1799 C224 1.390 . S
C1831 C322 0.806 . S
C1839 C796 0.277 . S
C1863 C68 1.490 . S
C1871 C794 1.394 . S
C1895 C655 2.821 . S
C1903 C832 2.743 . S
C1935 C864 1.305 . S
C1927 C391 1.385 . S
C1959 C490 1.140 . S
C1967 C825 1.307 . S
C1991 C560 1.649 . S
C1999 C859 1.620 . S
C2031 C830 1.354 . S
C2023 C140 1.360 . S
C2055 C235 2.843 . S
C2063 C861 2.771 . S
C2095 C827 1.663 . S
C2087 C307 1.725 . S
C2127 C862 1.314 . S
C2119 C70 1.220 . S
C2159 C858 1.321 . S
C2151 C646 1.220 . S
C2183 C151 1.386 . S
C2191 C860 1.314 . S
C2215 C226 1.153 . S
C2223 C829 1.309 . S
C2255 C863 1.612 . S
C2247 C320 1.645 . S
C2279 C55 2.813 . S
C2287 C828 2.731 . S
C2311 C475 2.833 . S
C2319 C865 2.756 . S
C2351 C831 1.638 . S
C2343 C571 1.718 . S
C2383 C826 1.333 . S
C2375 C404 1.296 . S
