# Generated by pormake.
# Topology dag, (6,3)-cn, num edge types: 1
# Building blocks:
#     Node 0, Type 0, BuildingBlock: OJICUG_clean_sbu_0, # of connection points: 6
#     Node 1, Type 0, BuildingBlock: OJICUG_clean_sbu_0, # of connection points: 6
#     Node 2, Type 0, BuildingBlock: OJICUG_clean_sbu_0, # of connection points: 6
#     Node 3, Type 0, BuildingBlock: OJICUG_clean_sbu_0, # of connection points: 6
#     Node 4, Type 1, BuildingBlock: OLANEW_clean_sbu_2, # of connection points: 3
#     Node 5, Type 1, BuildingBlock: OLANEW_clean_sbu_2, # of connection points: 3
#     Node 6, Type 1, BuildingBlock: OLANEW_clean_sbu_2, # of connection points: 3
#     Node 7, Type 1, BuildingBlock: OLANEW_clean_sbu_2, # of connection points: 3
#     Node 8, Type 1, BuildingBlock: OLANEW_clean_sbu_2, # of connection points: 3
#     Node 9, Type 1, BuildingBlock: OLANEW_clean_sbu_2, # of connection points: 3
#     Node 10, Type 1, BuildingBlock: OLANEW_clean_sbu_2, # of connection points: 3
#     Node 11, Type 1, BuildingBlock: OLANEW_clean_sbu_2, # of connection points: 3
#     Edge 12, Type (0, 1), BuildingBlock: CIFDUS_clean_linker_0, # of connection points: 2
#     Edge 13, Type (0, 1), BuildingBlock: CIFDUS_clean_linker_0, # of connection points: 2
#     Edge 14, Type (0, 1), BuildingBlock: CIFDUS_clean_linker_0, # of connection points: 2
#     Edge 15, Type (0, 1), BuildingBlock: CIFDUS_clean_linker_0, # of connection points: 2
#     Edge 16, Type (0, 1), BuildingBlock: CIFDUS_clean_linker_0, # of connection points: 2
#     Edge 17, Type (0, 1), BuildingBlock: CIFDUS_clean_linker_0, # of connection points: 2
#     Edge 18, Type (0, 1), BuildingBlock: CIFDUS_clean_linker_0, # of connection points: 2
#     Edge 19, Type (0, 1), BuildingBlock: CIFDUS_clean_linker_0, # of connection points: 2
#     Edge 20, Type (0, 1), BuildingBlock: CIFDUS_clean_linker_0, # of connection points: 2
#     Edge 21, Type (0, 1), BuildingBlock: CIFDUS_clean_linker_0, # of connection points: 2
#     Edge 22, Type (0, 1), BuildingBlock: CIFDUS_clean_linker_0, # of connection points: 2
#     Edge 23, Type (0, 1), BuildingBlock: CIFDUS_clean_linker_0, # of connection points: 2
#     Edge 24, Type (0, 1), BuildingBlock: CIFDUS_clean_linker_0, # of connection points: 2
#     Edge 25, Type (0, 1), BuildingBlock: CIFDUS_clean_linker_0, # of connection points: 2
#     Edge 26, Type (0, 1), BuildingBlock: CIFDUS_clean_linker_0, # of connection points: 2
#     Edge 27, Type (0, 1), BuildingBlock: CIFDUS_clean_linker_0, # of connection points: 2
#     Edge 28, Type (0, 1), BuildingBlock: CIFDUS_clean_linker_0, # of connection points: 2
#     Edge 29, Type (0, 1), BuildingBlock: CIFDUS_clean_linker_0, # of connection points: 2
#     Edge 30, Type (0, 1), BuildingBlock: CIFDUS_clean_linker_0, # of connection points: 2
#     Edge 31, Type (0, 1), BuildingBlock: CIFDUS_clean_linker_0, # of connection points: 2
#     Edge 32, Type (0, 1), BuildingBlock: CIFDUS_clean_linker_0, # of connection points: 2
#     Edge 33, Type (0, 1), BuildingBlock: CIFDUS_clean_linker_0, # of connection points: 2
#     Edge 34, Type (0, 1), BuildingBlock: CIFDUS_clean_linker_0, # of connection points: 2
#     Edge 35, Type (0, 1), BuildingBlock: CIFDUS_clean_linker_0, # of connection points: 2
# Relax obj value: 0.128
# Max RMSD: 0.160
# Mean RMSD: 0.123
data_MOF--net-dag--node1-OJICUG_clean_sbu_0--node2-OLANEW_clean_sbu_2--edge1-CIFDUS_clean_linker_0
_symmetry_space_group_name_H-M    P1
_symmetry_Int_Tables_number       1
_symmetry_cell_setting            triclinic
loop_
_symmetry_equiv_pos_as_xyz
'x, y, z'
_cell_length_a     38.036772
_cell_length_b     35.015173
_cell_length_c     36.725369
_cell_angle_alpha  92.170362
_cell_angle_beta   94.130355
_cell_angle_gamma 92.428417
loop_
_atom_site_label
_atom_site_type_symbol
_atom_site_fract_x
_atom_site_fract_y
_atom_site_fract_z
_atom_type_partial_charge
Sc0 Sc 0.0823 0.87524 0.00394 0.0
Sc1 Sc 0.10323 0.77897 0.98636 0.0
Sc2 Sc 0.17049 0.84697 0.01545 0.0
O3 O 0.11856 0.83382 0.00179 0.0
C4 C 0.14761 0.92351 0.97679 0.0
C5 C 0.05514 0.82715 0.93061 0.0
C6 C 0.17409 0.79245 0.94478 0.0
C7 C 0.04021 0.80299 0.03451 0.0
C8 C 0.13245 0.89196 0.07758 0.0
C9 C 0.16349 0.76433 0.04843 0.0
O10 O 0.1144 0.91758 0.97737 0.0
O11 O 0.07056 0.79704 0.94001 0.0
O12 O 0.1864 0.82082 0.96525 0.0
O13 O 0.04522 0.83887 0.0311 0.0
O14 O 0.15821 0.87355 0.06671 0.0
O15 O 0.13389 0.75457 0.03155 0.0
O16 O 0.10419 0.89638 0.05755 0.0
O17 O 0.05929 0.77849 0.02008 0.0
O18 O 0.17989 0.79571 0.04359 0.0
O19 O 0.05695 0.85778 0.95071 0.0
O20 O 0.1696 0.90063 0.98997 0.0
O21 O 0.14546 0.77397 0.95017 0.0
Sc22 Sc 0.6951 0.5835 0.48009 0.0
Sc23 Sc 0.64476 0.66568 0.46697 0.0
Sc24 Sc 0.60492 0.57847 0.4928 0.0
O25 O 0.64825 0.60942 0.47992 0.0
C26 C 0.64295 0.51592 0.44617 0.0
C27 C 0.69846 0.6341 0.41006 0.0
C28 C 0.57521 0.62557 0.42494 0.0
C29 C 0.71831 0.6669 0.51523 0.0
C30 C 0.66371 0.55233 0.55217 0.0
C31 C 0.592 0.65952 0.53085 0.0
O32 O 0.67358 0.53172 0.45191 0.0
O33 O 0.67772 0.65908 0.42108 0.0
O34 O 0.57454 0.59757 0.44598 0.0
O35 O 0.72265 0.6318 0.50777 0.0
O36 O 0.6317 0.55682 0.54119 0.0
O37 O 0.6112 0.6794 0.51098 0.0
O38 O 0.68928 0.56022 0.53286 0.0
O39 O 0.69081 0.68382 0.5037 0.0
O40 O 0.588 0.62344 0.52741 0.0
O41 O 0.70589 0.60479 0.42797 0.0
O42 O 0.61592 0.52954 0.45918 0.0
O43 O 0.59851 0.65304 0.42883 0.0
Sc44 Sc 0.83617 0.22394 0.02475 0.0
Sc45 Sc 0.75763 0.17823 0.98138 0.0
Sc46 Sc 0.83807 0.13183 0.98539 0.0
O47 O 0.81051 0.17815 -0.00295 0.0
C48 C 0.89301 0.19902 0.96975 0.0
C49 C 0.78551 0.26256 0.96432 0.0
C50 C 0.78682 0.13391 0.91332 0.0
C51 C 0.76225 0.22006 0.06074 0.0
C52 C 0.87139 0.15522 0.06565 0.0
C53 C 0.76652 0.0945 0.01067 0.0
O54 O 0.88071 0.22369 0.99116 0.0
O55 O 0.7633 0.23427 0.9586 0.0
O56 O 0.81501 0.12542 0.93096 0.0
O57 O 0.79505 0.22898 0.06167 0.0
O58 O 0.86424 0.13175 0.03878 0.0
O59 O 0.74701 0.12229 0.00331 0.0
O60 O 0.86331 0.19005 0.06509 0.0
O61 O 0.74531 0.20301 0.0333 0.0
O62 O 0.799 0.09443 0.00509 0.0
O63 O 0.81203 0.26257 0.98751 0.0
O64 O 0.87995 0.16513 0.96485 0.0
O65 O 0.76275 0.15236 0.92739 0.0
Sc66 Sc 0.3584 0.36114 0.51787 0.0
Sc67 Sc 0.27547 0.32092 0.53734 0.0
Sc68 Sc 0.35267 0.26723 0.54643 0.0
O69 O 0.32867 0.31635 0.53381 0.0
C70 C 0.39282 0.29237 0.47697 0.0
C71 C 0.28819 0.36696 0.46591 0.0
C72 C 0.28153 0.23669 0.50104 0.0
C73 C 0.30797 0.40129 0.57205 0.0
C74 C 0.40898 0.32935 0.58207 0.0
C75 C 0.29617 0.27182 0.60669 0.0
O76 O 0.38394 0.3269 0.47891 0.0
O77 O 0.26793 0.34806 0.48538 0.0
O78 O 0.31347 0.23392 0.51306 0.0
O79 O 0.33606 0.39911 0.55559 0.0
O80 O 0.3941 0.29614 0.58148 0.0
O81 O 0.27605 0.29428 0.58957 0.0
O82 O 0.39968 0.35454 0.55981 0.0
O83 O 0.28251 0.37618 0.56771 0.0
O84 O 0.32408 0.25987 0.59406 0.0
O85 O 0.32075 0.37382 0.47451 0.0
O86 O 0.38468 0.26809 0.50018 0.0
O87 O 0.26379 0.26599 0.50781 0.0
O88 O 0.14434 0.98173 0.2981 0.0
Cd89 Cd 0.1374 -0.00316 0.36281 0.0
O90 O 0.09707 0.01366 0.28751 0.0
Cd91 Cd 0.05088 0.03731 0.25954 0.0
O92 O 0.00919 0.06425 0.22763 0.0
C93 C 0.00783 0.10044 0.22717 0.0
O94 O 0.03172 0.12192 0.24697 0.0
C95 C 0.12097 -0.0066 0.27522 0.0
C96 C 0.16781 0.06687 0.39063 0.0
O97 O 0.1856 0.0366 0.38956 0.0
O98 O 0.13555 0.06436 0.37765 0.0
O99 O 0.27686 0.6277 0.67777 0.0
Cd100 Cd 0.28504 0.69588 0.69674 0.0
O101 O 0.33164 0.61993 0.66308 0.0
Cd102 Cd 0.35715 0.67743 0.66603 0.0
O103 O 0.40107 0.70235 0.6374 0.0
C104 C 0.43272 0.69657 0.64881 0.0
O105 O 0.43832 0.67922 0.67967 0.0
C106 C 0.30063 0.60629 0.66704 0.0
C107 C 0.24955 0.71653 0.75861 0.0
O108 O 0.23338 0.71303 0.72674 0.0
O109 O 0.28251 0.70998 0.76152 0.0
O110 O 0.86229 0.71597 0.14141 0.0
Cd111 Cd 0.80359 0.68788 0.15185 0.0
O112 O 0.83464 0.76814 0.13152 0.0
Cd113 Cd 0.82183 0.82547 0.11528 0.0
O114 O 0.80724 0.88444 0.10922 0.0
C115 C 0.77899 0.89387 0.09188 0.0
O116 O 0.75717 0.86711 0.07611 0.0
C117 C 0.86319 0.75041 0.13163 0.0
C118 C 0.78032 0.68735 0.22242 0.0
O119 O 0.79762 0.65981 0.20972 0.0
O120 O 0.77536 0.71611 0.20237 0.0
O121 O 0.71394 0.5329 0.77974 0.0
Cd122 Cd 0.72558 0.52887 0.84564 0.0
O123 O 0.66302 0.5041 0.78747 0.0
Cd124 Cd 0.61225 0.47745 0.76743 0.0
O125 O 0.56572 0.45847 0.7328 0.0
C126 C 0.55843 0.42318 0.7254 0.0
O127 O 0.57881 0.39766 0.7401 0.0
C128 C 0.68398 0.51967 0.76637 0.0
C129 C 0.73184 0.45411 0.86808 0.0
O130 O 0.75893 0.47468 0.86081 0.0
O131 O 0.70153 0.46873 0.86426 0.0
O132 O 0.61485 0.3064 0.31848 0.0
Cd133 Cd 0.60062 0.24424 0.28715 0.0
O134 O 0.65274 0.28207 0.35831 0.0
Cd135 Cd 0.62508 0.2263 0.34853 0.0
O136 O 0.57393 0.20962 0.36821 0.0
C137 C 0.54934 0.23193 0.35989 0.0
O138 O 0.55563 0.2596 0.33778 0.0
C139 C 0.63895 0.31109 0.34433 0.0
C140 C 0.6346 0.23919 0.22279 0.0
O141 O 0.60238 0.24862 0.22238 0.0
O142 O 0.65046 0.23179 0.25352 0.0
O143 O 0.2467 0.11941 0.8915 0.0
Cd144 Cd 0.27699 0.1803 0.88053 0.0
O145 O 0.1971 0.1423 0.87058 0.0
Cd146 Cd 0.14048 0.14776 0.86163 0.0
O147 O 0.08466 0.15687 0.86381 0.0
C148 C 0.07499 0.18635 0.88095 0.0
O149 O 0.09912 0.21125 0.89588 0.0
C150 C 0.21346 0.11512 0.88509 0.0
C151 C 0.28419 0.19397 0.80724 0.0
O152 O 0.30714 0.17556 0.82595 0.0
O153 O 0.25736 0.2054 0.8231 0.0
O154 O 0.37751 0.65148 0.28742 0.0
Cd155 Cd 0.31896 0.62909 0.25842 0.0
O156 O 0.39068 0.59093 0.2888 0.0
Cd157 Cd 0.33709 0.56647 0.2767 0.0
O158 O 0.2984 0.53626 0.30755 0.0
C159 C 0.29276 0.50026 0.30356 0.0
O160 O 0.30732 0.48176 0.27715 0.0
C161 C 0.39992 0.62617 0.29437 0.0
C162 C 0.28636 0.66672 0.19993 0.0
O163 O 0.27556 0.67038 0.23208 0.0
O164 O 0.31329 0.64667 0.19564 0.0
O165 O 0.95094 0.83508 0.71778 0.0
Cd166 Cd 0.92729 0.84441 0.65467 0.0
O167 O 0.91039 0.87212 0.7356 0.0
Cd168 Cd 0.87711 0.90539 0.76961 0.0
O169 O 0.83942 0.94197 0.79403 0.0
C170 C 0.83276 0.97418 0.78089 0.0
O171 O 0.84886 -0.01481 0.75233 0.0
C172 C 0.9374 0.85299 0.74365 0.0
C173 C 0.8651 0.804 0.62779 0.0
O174 O 0.8953 0.78912 0.62729 0.0
O175 O 0.86395 0.83776 0.64233 0.0
H176 H 0.0996 0.95343 0.10502 0.0
H177 H 0.17158 0.86623 0.1359 0.0
H178 H 0.17474 0.89039 0.19932 0.0
H179 H 0.15573 0.93485 0.24634 0.0
H180 H 0.08792 0.02551 0.21492 0.0
H181 H 0.08416 0.00123 0.1517 0.0
C182 C 0.11597 0.93974 0.12566 0.0
C183 C 0.13513 0.9079 0.11573 0.0
C184 C 0.11813 0.95415 0.1621 0.0
C185 C 0.15663 0.89083 0.14272 0.0
C186 C 0.15838 0.90455 0.17905 0.0
C187 C 0.1402 0.9495 0.22571 0.0
C188 C 0.12087 0.98112 0.23595 0.0
C189 C 0.13909 0.93604 0.18908 0.0
C190 C 0.10147 -4e-05 0.20854 0.0
C191 C 0.09977 -0.01361 0.17209 0.0
H192 H 0.53346 0.70006 0.52018 0.0
H193 H 0.60432 0.65654 0.60383 0.0
H194 H 0.56239 0.66955 0.64973 0.0
H195 H 0.50218 0.68357 0.66381 0.0
H196 H 0.42932 0.72307 0.57934 0.0
H197 H 0.47533 0.72195 0.53625 0.0
C198 C 0.54013 0.69492 0.54874 0.0
C199 C 0.57204 0.67805 0.55892 0.0
C200 C 0.51517 0.70099 0.57467 0.0
C201 C 0.58012 0.67022 0.59569 0.0
C202 C 0.55598 0.67725 0.6218 0.0
C203 C 0.49647 0.69262 0.63618 0.0
C204 C 0.4621 0.70279 0.62476 0.0
C205 C 0.52285 0.69112 0.6113 0.0
C206 C 0.4554 0.71476 0.58887 0.0
C207 C 0.48171 0.71403 0.56412 0.0
H208 H 0.79062 0.07066 0.07496 0.0
H209 H 0.71425 0.04222 0.98475 0.0
H210 H 0.70754 0.97656 0.00552 0.0
H211 H 0.7319 0.9252 0.04305 0.0
H212 H 0.81196 0.95458 0.13024 0.0
H213 H 0.80874 0.02197 0.1171 0.0
C214 C 0.77155 0.05034 0.0607 0.0
C215 C 0.75282 0.06088 0.02862 0.0
C216 C 0.76925 0.01264 0.07178 0.0
C217 C 0.72848 0.03462 0.00987 0.0
C218 C 0.72513 -0.00298 0.02145 0.0
C219 C 0.74812 0.94645 0.05959 0.0
C220 C 0.77265 0.93481 0.08711 0.0
C221 C 0.74668 -0.01471 0.05136 0.0
C222 C 0.79334 0.96268 0.10847 0.0
C223 C 0.79146 0.00126 0.10107 0.0
H224 H 0.43264 0.40086 0.60453 0.0
H225 H 0.449 0.28188 0.62409 0.0
H226 H 0.49637 0.30043 0.67087 0.0
H227 H 0.53375 0.35063 0.70533 0.0
H228 H 0.51593 0.4694 0.68571 0.0
H229 H 0.46834 0.45056 0.63985 0.0
C230 C 0.44666 0.37888 0.61883 0.0
C231 C 0.43756 0.34003 0.61054 0.0
C232 C 0.47352 0.3897 0.64576 0.0
C233 C 0.45557 0.31201 0.62988 0.0
C234 C 0.48265 0.32259 0.6566 0.0
C235 C 0.51939 0.37238 0.69109 0.0
C236 C 0.52853 0.41135 0.69887 0.0
C237 C 0.49193 0.36138 0.66466 0.0
C238 C 0.50951 0.43919 0.68029 0.0
C239 C 0.48231 0.42847 0.65397 0.0
H240 H 0.69051 0.46107 0.43688 0.0
H241 H 0.58462 0.49148 0.40325 0.0
H242 H 0.57556 0.4324 0.36571 0.0
H243 H 0.59641 0.37075 0.34503 0.0
H244 H 0.70021 0.33715 0.3825 0.0
H245 H 0.71164 0.399 0.41562 0.0
C246 C 0.66557 0.4548 0.42111 0.0
C247 C 0.63824 0.48048 0.4229 0.0
C248 C 0.66021 0.42029 0.40026 0.0
C249 C 0.60593 0.47195 0.4026 0.0
C250 C 0.60077 0.43827 0.38102 0.0
C251 C 0.62176 0.3772 0.35997 0.0
C252 C 0.64755 0.34963 0.36113 0.0
C253 C 0.62757 0.41207 0.37997 0.0
C254 C 0.68 0.35803 0.38118 0.0
C255 C 0.68648 0.3933 0.40017 0.0
H256 H 0.91566 0.16268 0.91033 0.0
H257 H 0.9433 0.25638 0.98828 0.0
H258 H 0.00152 0.26376 0.96434 0.0
H259 H 0.04677 0.23795 0.92664 0.0
H260 H 0.01886 0.14234 0.85078 0.0
H261 H 0.95838 0.14151 0.86852 0.0
C262 C 0.93426 0.18503 0.92188 0.0
C263 C 0.92545 0.20847 0.95149 0.0
C264 C 0.96774 0.1885 0.9086 0.0
C265 C 0.94952 0.23782 0.96559 0.0
C266 C -0.01712 0.24188 0.95207 0.0
C267 C 0.02733 0.21731 0.9136 0.0
C268 C 0.03747 0.18983 0.88787 0.0
C269 C -0.00735 0.21651 0.92441 0.0
C270 C 0.01189 0.16348 0.87101 0.0
C271 C 0.97729 0.16295 0.88114 0.0
H272 H 0.26493 0.43731 0.45588 0.0
H273 H 0.2841 0.33128 0.39916 0.0
H274 H 0.2809 0.36293 0.34073 0.0
H275 H 0.28415 0.42299 0.30839 0.0
H276 H 0.26778 0.52973 0.36617 0.0
H277 H 0.25748 0.49562 0.42129 0.0
C278 C 0.26688 0.42098 0.43045 0.0
C279 C 0.27433 0.38215 0.4314 0.0
C280 C 0.2662 0.4397 0.39729 0.0
C281 C 0.27774 0.36114 0.39869 0.0
C282 C 0.27634 0.37935 0.36543 0.0
C283 C 0.27747 0.43873 0.33275 0.0
C284 C 0.27767 0.47896 0.33335 0.0
C285 C 0.27233 0.41899 0.36469 0.0
C286 C 0.26841 0.49881 0.36504 0.0
C287 C 0.26262 0.47934 0.3967 0.0
H288 H 0.00844 0.87913 0.90466 0.0
H289 H 0.05467 0.77275 0.87519 0.0
H290 H 0.02122 0.77065 0.816 0.0
H291 H 0.97995 0.79947 0.77172 0.0
H292 H 0.93424 0.90616 0.80029 0.0
H293 H 0.96574 0.90721 0.86063 0.0
C294 C 0.01124 0.85547 0.88532 0.0
C295 C 0.03428 0.82622 0.89459 0.0
C296 C -0.00832 0.85424 0.85115 0.0
C297 C 0.03721 0.79569 0.86908 0.0
C298 C 0.01806 0.79442 0.83509 0.0
C299 C 0.97661 0.82283 0.79124 0.0
C300 C 0.95412 0.85232 0.78152 0.0
C301 C -0.00467 0.82357 0.82576 0.0
C302 C 0.95035 0.88243 0.8072 0.0
C303 C 0.96884 0.88333 0.84166 0.0
H304 H 0.75591 0.06529 0.89827 0.0
H305 H 0.80851 0.15943 0.84937 0.0
H306 H 0.8225 0.11717 0.7982 0.0
H307 H 0.83118 0.05139 0.77578 0.0
H308 H 0.78507 0.95645 0.83017 0.0
H309 H 0.75697 0.00071 0.87066 0.0
C310 C 0.76882 0.07676 0.87534 0.0
C311 C 0.78069 0.1153 0.87696 0.0
C312 C 0.779 0.05174 0.84773 0.0
C313 C 0.79847 0.12995 0.84802 0.0
C314 C 0.80703 0.10561 0.81922 0.0
C315 C 0.81429 0.04041 0.79592 0.0
C316 C 0.81075 0.00074 0.80047 0.0
C317 C 0.79927 0.06608 0.82002 0.0
C318 C 0.78872 -0.0131 0.82659 0.0
C319 C 0.77258 0.01219 0.84971 0.0
H320 H 0.43411 0.23066 0.47425 0.0
H321 H 0.40263 0.32865 0.41391 0.0
H322 H 0.44544 0.31507 0.36947 0.0
H323 H 0.49581 0.27996 0.35158 0.0
H324 H 0.53015 0.18411 0.41334 0.0
H325 H 0.48168 0.19181 0.45293 0.0
C326 C 0.43622 0.24868 0.45106 0.0
C327 C 0.41549 0.28092 0.44771 0.0
C328 C 0.4615 0.24121 0.42595 0.0
C329 C 0.41858 0.30396 0.41747 0.0
C330 C 0.44304 0.29621 0.39198 0.0
C331 C 0.49248 0.26033 0.37336 0.0
C332 C 0.51686 0.23182 0.37977 0.0
C333 C 0.46529 0.26561 0.39656 0.0
C334 C 0.51189 0.20647 0.40793 0.0
C335 C 0.48428 0.21098 0.4307 0.0
H336 H 0.11874 0.97035 0.9245 0.0
H337 H 0.21061 0.95802 -0.00127 0.0
H338 H 0.23818 0.01563 0.97713 0.0
H339 H 0.23732 0.06913 0.93735 0.0
H340 H 0.14828 0.08177 0.85995 0.0
H341 H 0.11854 0.0251 0.88279 0.0
C342 C 0.14469 0.98047 0.93595 0.0
C343 C 0.16257 0.9596 0.96306 0.0
C344 C 0.16096 0.01385 0.92299 0.0
C345 C 0.1963 0.97307 0.97753 0.0
C346 C 0.21218 0.00619 0.9653 0.0
C347 C 0.2114 0.05957 0.92531 0.0
C348 C 0.1948 0.08037 0.89754 0.0
C349 C 0.19492 0.02663 0.93796 0.0
C350 C 0.16124 0.06732 0.88229 0.0
C351 C 0.14436 0.03452 0.89506 0.0
H352 H 0.53269 0.68221 0.39989 0.0
H353 H 0.55712 0.56435 0.38034 0.0
H354 H 0.50766 0.55589 0.33442 0.0
H355 H 0.45403 0.57924 0.305 0.0
H356 H 0.42563 0.69554 0.32609 0.0
H357 H 0.48015 0.70758 0.36551 0.0
C358 C 0.52747 0.65502 0.38495 0.0
C359 C 0.54839 0.62387 0.39357 0.0
C360 C 0.49808 0.64995 0.35908 0.0
C361 C 0.54122 0.58863 0.37434 0.0
C362 C 0.51292 0.58374 0.3481 0.0
C363 C 0.45984 0.60746 0.31777 0.0
C364 C 0.43545 0.63628 0.31283 0.0
C365 C 0.49059 0.6138 0.34106 0.0
C366 C 0.44383 0.67275 0.32939 0.0
C367 C 0.47495 0.67957 0.35216 0.0
H368 H 0.25361 0.44862 0.58533 0.0
H369 H 0.36175 0.42687 0.61892 0.0
H370 H 0.36756 0.48658 0.65519 0.0
H371 H 0.34504 0.54859 0.67071 0.0
H372 H 0.23762 0.57302 0.63767 0.0
H373 H 0.22817 0.5088 0.60847 0.0
C374 C 0.27805 0.45666 0.60133 0.0
C375 C 0.30736 0.43368 0.59902 0.0
C376 C 0.28152 0.49177 0.62189 0.0
C377 C 0.33898 0.4444 0.61982 0.0
C378 C 0.34239 0.47857 0.64057 0.0
C379 C 0.31935 0.53964 0.65764 0.0
C380 C 0.29225 0.56562 0.65591 0.0
C381 C 0.31433 0.50309 0.64071 0.0
C382 C 0.25895 0.55348 0.63935 0.0
C383 C 0.25363 0.51685 0.62242 0.0
H384 H -0.01099 0.84374 0.06603 0.0
H385 H 0.02378 0.72887 0.0494 0.0
H386 H 0.97349 0.70334 0.07927 0.0
H387 H 0.91811 0.71262 0.10744 0.0
H388 H 0.88306 0.82678 0.12586 0.0
H389 H 0.93462 0.85328 0.09794 0.0
C390 C -0.01427 0.81315 0.06911 0.0
C391 C 0.01028 0.78842 0.05504 0.0
C392 C 0.95639 0.79833 0.08638 0.0
C393 C 0.00543 0.7488 0.05957 0.0
C394 C 0.97657 0.73402 0.07672 0.0
C395 C 0.92179 0.74337 0.10566 0.0
C396 C 0.89602 0.76751 0.11791 0.0
C397 C 0.95167 0.75842 0.08983 0.0
C398 C 0.90155 0.80728 0.11548 0.0
C399 C 0.93135 0.82254 0.09982 0.0
H400 H 0.61925 0.54756 0.60709 0.0
H401 H 0.72713 0.53082 0.58289 0.0
H402 H 0.74251 0.51786 0.64669 0.0
H403 H 0.72621 0.51478 0.7102 0.0
H404 H 0.61913 0.53434 0.73465 0.0
H405 H 0.60252 0.54216 0.67003 0.0
C406 C 0.64604 0.54056 0.61559 0.0
C407 C 0.67196 0.54031 0.59008 0.0
C408 C 0.65489 0.53364 0.6525 0.0
C409 C 0.70659 0.5314 0.60184 0.0
C410 C 0.71549 0.52405 0.6384 0.0
C411 C 0.69921 0.52049 0.70126 0.0
C412 C 0.67374 0.52298 0.72704 0.0
C413 C 0.69001 0.52573 0.66408 0.0
C414 C 0.63891 0.53073 0.71521 0.0
C415 C 0.6295 0.53575 0.67828 0.0
H416 H 0.91499 0.19556 0.1171 0.0
H417 H 0.87088 0.08207 0.08726 0.0
H418 H 0.90735 0.05567 0.13649 0.0
H419 H 0.95495 0.06375 0.18451 0.0
H420 H 0.00106 0.17642 0.21399 0.0
H421 H 0.96045 0.20418 0.16866 0.0
C422 C 0.91306 0.16517 0.12177 0.0
C423 C 0.89063 0.14078 0.0983 0.0
C424 C 0.93465 0.14994 0.14983 0.0
C425 C 0.88838 0.1014 0.1046 0.0
C426 C 0.90918 0.08623 0.13277 0.0
C427 C 0.95601 0.09443 0.18128 0.0
C428 C -0.01874 0.11789 0.20232 0.0
C429 C 0.93299 0.11008 0.15495 0.0
C430 C -0.018 0.15764 0.19797 0.0
C431 C 0.95882 0.17355 0.17201 0.0
H432 H 0.23251 0.75075 0.05906 0.0
H433 H 0.13149 0.72338 0.09998 0.0
H434 H 0.16076 0.69131 0.15144 0.0
H435 H 0.21576 0.67438 0.18652 0.0
H436 H 0.31607 0.6981 0.14243 0.0
H437 H 0.28652 0.72863 0.09054 0.0
C438 C 0.21689 0.73731 0.07904 0.0
C439 C 0.17995 0.73951 0.07593 0.0
C440 C 0.23386 0.71881 0.10817 0.0
C441 C 0.15994 0.72176 0.10171 0.0
C442 C 0.17671 0.70378 0.13126 0.0
C443 C 0.23104 0.68633 0.16552 0.0
C444 C 0.26807 0.68463 0.16849 0.0
C445 C 0.21372 0.70276 0.13513 0.0
C446 C 0.28759 0.69934 0.14077 0.0
C447 C 0.27071 0.71673 0.11112 0.0
H448 H 0.72077 0.7408 0.54525 0.0
H449 H 0.78248 0.6404 0.53599 0.0
H450 H 0.8318 0.67317 0.57087 0.0
H451 H 0.85892 0.73035 0.60244 0.0
H452 H 0.7991 0.83151 0.61341 0.0
H453 H 0.74787 0.7984 0.57995 0.0
C454 C 0.74497 0.72613 0.55093 0.0
C455 C 0.7476 0.68811 0.53763 0.0
C456 C 0.7738 0.74522 0.57144 0.0
C457 C 0.77929 0.66958 0.54561 0.0
C458 C 0.80778 0.6883 0.56566 0.0
C459 C 0.83464 0.74519 0.59774 0.0
C460 C 0.83297 0.78339 0.61029 0.0
C461 C 0.80546 0.72611 0.57847 0.0
C462 C 0.80115 0.80203 0.60409 0.0
C463 C 0.77185 0.78315 0.5848 0.0
H464 H 0.69127 0.22209 0.06604 0.0
H465 H 0.79102 0.23465 0.13035 0.0
H466 H 0.76025 0.24175 0.18602 0.0
H467 H 0.70515 0.24196 0.21675 0.0
H468 H 0.60534 0.23183 0.15267 0.0
H469 H 0.63604 0.22613 0.09658 0.0
C470 C 0.70629 0.22657 0.09221 0.0
C471 C 0.7434 0.22763 0.09398 0.0
C472 C 0.68844 0.23083 0.12417 0.0
C473 C 0.76244 0.23385 0.12811 0.0
C474 C 0.74488 0.23772 0.16003 0.0
C475 C 0.69013 0.23849 0.1905 0.0
C476 C 0.65307 0.23692 0.18883 0.0
C477 C 0.70792 0.23581 0.15842 0.0
C478 C 0.63392 0.23303 0.15463 0.0
C479 C 0.65145 0.22974 0.12257 0.0
H480 H 0.33183 0.2228 0.64968 0.0
H481 H 0.24079 0.29263 0.64618 0.0
H482 H 0.22817 0.27341 0.70737 0.0
H483 H 0.24427 0.23841 0.7627 0.0
H484 H 0.33598 0.16965 0.76564 0.0
H485 H 0.34687 0.18683 0.70364 0.0
C486 C 0.30912 0.23385 0.66211 0.0
C487 C 0.28741 0.25931 0.64326 0.0
C488 C 0.30213 0.22289 0.69726 0.0
C489 C 0.25804 0.27307 0.65998 0.0
C490 C 0.2508 0.2621 0.69502 0.0
C491 C 0.2665 0.22699 0.74968 0.0
C492 C 0.28933 0.20286 0.76887 0.0
C493 C 0.27284 0.23726 0.71403 0.0
C494 C 0.31804 0.18836 0.7516 0.0
C495 C 0.32433 0.19819 0.71613 0.0
H496 H 0.6987 0.69652 0.36675 0.0
H497 H 0.7372 0.58254 0.37484 0.0
H498 H 0.76684 0.58977 0.31899 0.0
H499 H 0.7816 0.62757 0.26731 0.0
H500 H 0.74329 0.74124 0.2577 0.0
H501 H 0.71424 0.73502 0.31463 0.0
C502 C 0.71347 0.67322 0.35625 0.0
C503 C 0.71554 0.63904 0.37522 0.0
C504 C 0.73075 0.6775 0.32385 0.0
C505 C 0.73504 0.60927 0.36111 0.0
C506 C 0.75212 0.61331 0.32905 0.0
C507 C 0.76712 0.65115 0.27773 0.0
C508 C 0.76472 0.68483 0.25822 0.0
C509 C 0.75019 0.64725 0.31021 0.0
C510 C 0.74566 0.71498 0.27216 0.0
C511 C 0.72892 0.7114 0.30469 0.0
H512 H 0.72421 0.28999 0.9342 0.0
H513 H 0.83682 0.31364 0.94754 0.0
H514 H 0.83022 0.37365 0.91691 0.0
H515 H 0.7926 0.42107 0.88939 0.0
H516 H 0.67968 0.4 0.87829 0.0
H517 H 0.68628 0.33738 0.90476 0.0
C518 C 0.74727 0.30814 0.93003 0.0
C519 C 0.78091 0.29744 0.9433 0.0
C520 C 0.74326 0.34319 0.91297 0.0
C521 C 0.81057 0.32137 0.93793 0.0
C522 C 0.80687 0.3557 0.92035 0.0
C523 C 0.76941 0.4027 0.89246 0.0
C524 C 0.73572 0.41525 0.88196 0.0
C525 C 0.77334 0.36716 0.90827 0.0
C526 C 0.70595 0.39108 0.88629 0.0
C527 C 0.70969 0.35527 0.90143 0.0
H528 H 0.21305 0.22652 0.47103 0.0
H529 H 0.31299 0.17187 0.48011 0.0
H530 H 0.287 0.11605 0.44579 0.0
H531 H 0.23601 0.08117 0.41511 0.0
H532 H 0.13552 0.13393 0.40501 0.0
H533 H 0.16171 0.19187 0.43741 0.0
C534 C 0.22915 0.20247 0.46539 0.0
C535 C 0.26492 0.20359 0.47859 0.0
C536 C 0.214 0.16993 0.4454 0.0
C537 C 0.28535 0.17206 0.47072 0.0
C538 C 0.27054 0.13991 0.45097 0.0
C539 C 0.21979 0.10537 0.41979 0.0
C540 C 0.18384 0.10309 0.40782 0.0
C541 C 0.2349 0.13836 0.43851 0.0
C542 C 0.16331 0.13488 0.41397 0.0
C543 C 0.17825 0.16801 0.4326 0.0
H544 H 0.14717 0.75649 0.88136 0.0
H545 H 0.24483 0.80181 0.93665 0.0
H546 H 0.27704 0.78115 0.88457 0.0
H547 H 0.2774 0.75024 0.82304 0.0
H548 H 0.179 0.70896 0.76645 0.0
H549 H 0.14721 0.72785 0.81926 0.0
C550 C 0.17554 0.76171 0.88209 0.0
C551 C 0.1936 0.78042 0.91299 0.0
C552 C 0.19377 0.75045 0.85177 0.0
C553 C 0.23028 0.78753 0.91321 0.0
C554 C 0.24872 0.77562 0.88346 0.0
C555 C 0.24902 0.74526 0.82237 0.0
C556 C 0.23062 0.72798 0.79094 0.0
C557 C 0.23076 0.75703 0.85258 0.0
C558 C 0.19379 0.72221 0.79028 0.0
C559 C 0.17558 0.73297 0.82049 0.0
loop_
_geom_bond_atom_site_label_1
_geom_bond_atom_site_label_2
_geom_bond_distance
_geom_bond_site_symmetry_2
_ccdc_geom_bond_type
Sc0 O3 2.025 . S
Sc0 O10 2.105 1_554 S
Sc0 O13 2.105 . S
Sc0 O16 2.105 . S
Sc0 O19 2.105 1_554 S
Sc1 O3 2.025 1_556 S
Sc1 O11 2.105 . S
Sc1 O15 2.105 1_556 S
Sc1 O17 2.105 1_556 S
Sc1 O21 2.105 . S
Sc2 O3 2.025 . S
Sc2 O12 2.105 1_554 S
Sc2 O14 2.105 . S
Sc2 O18 2.105 . S
Sc2 O20 2.105 1_554 S
O3 Sc0 2.025 . S
O3 Sc1 2.025 1_554 S
O3 Sc2 2.025 . S
C4 O10 1.268 . S
C4 O20 1.268 . S
C5 O11 1.268 . S
C5 O19 1.268 . S
C6 O12 1.268 . S
C6 O21 1.268 . S
C7 O13 1.268 . S
C7 O17 1.268 . S
C8 O14 1.268 . S
C8 O16 1.268 . S
C9 O15 1.268 . S
C9 O18 1.268 . S
O10 Sc0 2.105 1_556 S
O10 C4 1.268 . S
O11 Sc1 2.105 . S
O11 C5 1.268 . S
O12 Sc2 2.105 1_556 S
O12 C6 1.268 . S
O13 Sc0 2.105 . S
O13 C7 1.268 . S
O14 Sc2 2.105 . S
O14 C8 1.268 . S
O15 Sc1 2.105 1_554 S
O15 C9 1.268 . S
O16 Sc0 2.105 . S
O16 C8 1.268 . S
O17 Sc1 2.105 1_554 S
O17 C7 1.268 . S
O18 Sc2 2.105 . S
O18 C9 1.268 . S
O19 Sc0 2.105 1_556 S
O19 C5 1.268 . S
O20 Sc2 2.105 1_556 S
O20 C4 1.268 . S
O21 Sc1 2.105 . S
O21 C6 1.268 . S
Sc22 O25 2.025 . S
Sc22 O32 2.105 . S
Sc22 O35 2.105 . S
Sc22 O38 2.105 . S
Sc22 O41 2.105 . S
Sc23 O25 2.025 . S
Sc23 O33 2.105 . S
Sc23 O37 2.105 . S
Sc23 O39 2.105 . S
Sc23 O43 2.105 . S
Sc24 O25 2.025 . S
Sc24 O34 2.105 . S
Sc24 O36 2.105 . S
Sc24 O40 2.105 . S
Sc24 O42 2.105 . S
O25 Sc22 2.025 . S
O25 Sc23 2.025 . S
O25 Sc24 2.025 . S
C26 O32 1.268 . S
C26 O42 1.268 . S
C27 O33 1.268 . S
C27 O41 1.268 . S
C28 O34 1.268 . S
C28 O43 1.268 . S
C29 O35 1.268 . S
C29 O39 1.268 . S
C30 O36 1.268 . S
C30 O38 1.268 . S
C31 O37 1.268 . S
C31 O40 1.268 . S
O32 Sc22 2.105 . S
O32 C26 1.268 . S
O33 Sc23 2.105 . S
O33 C27 1.268 . S
O34 Sc24 2.105 . S
O34 C28 1.268 . S
O35 Sc22 2.105 . S
O35 C29 1.268 . S
O36 Sc24 2.105 . S
O36 C30 1.268 . S
O37 Sc23 2.105 . S
O37 C31 1.268 . S
O38 Sc22 2.105 . S
O38 C30 1.268 . S
O39 Sc23 2.105 . S
O39 C29 1.268 . S
O40 Sc24 2.105 . S
O40 C31 1.268 . S
O41 Sc22 2.105 . S
O41 C27 1.268 . S
O42 Sc24 2.105 . S
O42 C26 1.268 . S
O43 Sc23 2.105 . S
O43 C28 1.268 . S
Sc44 O47 2.025 . S
Sc44 O54 2.105 . S
Sc44 O57 2.105 . S
Sc44 O60 2.105 . S
Sc44 O63 2.105 . S
Sc45 O47 2.025 . S
Sc45 O55 2.105 1_554 S
Sc45 O59 2.105 . S
Sc45 O61 2.105 . S
Sc45 O65 2.105 1_554 S
Sc46 O47 2.025 . S
Sc46 O56 2.105 1_554 S
Sc46 O58 2.105 . S
Sc46 O62 2.105 . S
Sc46 O64 2.105 1_554 S
O47 Sc44 2.025 . S
O47 Sc45 2.025 . S
O47 Sc46 2.025 . S
C48 O54 1.268 1_556 S
C48 O64 1.268 . S
C49 O55 1.268 . S
C49 O63 1.268 1_556 S
C50 O56 1.268 . S
C50 O65 1.268 . S
C51 O57 1.268 . S
C51 O61 1.268 . S
C52 O58 1.268 . S
C52 O60 1.268 . S
C53 O59 1.268 . S
C53 O62 1.268 . S
O54 Sc44 2.105 . S
O54 C48 1.268 1_554 S
O55 Sc45 2.105 1_556 S
O55 C49 1.268 . S
O56 Sc46 2.105 1_556 S
O56 C50 1.268 . S
O57 Sc44 2.105 . S
O57 C51 1.268 . S
O58 Sc46 2.105 . S
O58 C52 1.268 . S
O59 Sc45 2.105 . S
O59 C53 1.268 . S
O60 Sc44 2.105 . S
O60 C52 1.268 . S
O61 Sc45 2.105 . S
O61 C51 1.268 . S
O62 Sc46 2.105 . S
O62 C53 1.268 . S
O63 Sc44 2.105 . S
O63 C49 1.268 1_554 S
O64 Sc46 2.105 1_556 S
O64 C48 1.268 . S
O65 Sc45 2.105 1_556 S
O65 C50 1.268 . S
Sc66 O69 2.025 . S
Sc66 O76 2.105 . S
Sc66 O79 2.105 . S
Sc66 O82 2.105 . S
Sc66 O85 2.105 . S
Sc67 O69 2.025 . S
Sc67 O77 2.105 . S
Sc67 O81 2.105 . S
Sc67 O83 2.105 . S
Sc67 O87 2.105 . S
Sc68 O69 2.025 . S
Sc68 O78 2.105 . S
Sc68 O80 2.105 . S
Sc68 O84 2.105 . S
Sc68 O86 2.105 . S
O69 Sc66 2.025 . S
O69 Sc67 2.025 . S
O69 Sc68 2.025 . S
C70 O76 1.268 . S
C70 O86 1.268 . S
C71 O77 1.268 . S
C71 O85 1.268 . S
C72 O78 1.268 . S
C72 O87 1.268 . S
C73 O79 1.268 . S
C73 O83 1.268 . S
C74 O80 1.268 . S
C74 O82 1.268 . S
C75 O81 1.268 . S
C75 O84 1.268 . S
O76 Sc66 2.105 . S
O76 C70 1.268 . S
O77 Sc67 2.105 . S
O77 C71 1.268 . S
O78 Sc68 2.105 . S
O78 C72 1.268 . S
O79 Sc66 2.105 . S
O79 C73 1.268 . S
O80 Sc68 2.105 . S
O80 C74 1.268 . S
O81 Sc67 2.105 . S
O81 C75 1.268 . S
O82 Sc66 2.105 . S
O82 C74 1.268 . S
O83 Sc67 2.105 . S
O83 C73 1.268 . S
O84 Sc68 2.105 . S
O84 C75 1.268 . S
O85 Sc66 2.105 . S
O85 C71 1.268 . S
O86 Sc68 2.105 . S
O86 C70 1.268 . S
O87 Sc67 2.105 . S
O87 C72 1.268 . S
O88 Cd89 2.300 . S
O88 C95 1.275 . S
Cd89 O88 2.300 . S
Cd89 O97 2.381 . S
Cd89 O98 2.378 . S
O90 Cd91 2.385 . S
O90 C95 1.255 . S
Cd91 O90 2.385 . S
Cd91 O92 2.317 . S
O92 Cd91 2.317 . S
O92 C93 1.232 . S
C93 O92 1.232 . S
C93 O94 1.218 . S
O94 C93 1.218 . S
C95 O88 1.275 . S
C95 O90 1.255 . S
C96 O97 1.258 . S
C96 O98 1.256 . S
O97 Cd89 2.381 . S
O97 C96 1.258 . S
O98 Cd89 2.378 . S
O98 C96 1.256 . S
O99 Cd100 2.300 . S
O99 C106 1.275 . S
Cd100 O99 2.300 . S
Cd100 O108 2.381 . S
Cd100 O109 2.378 . S
O101 Cd102 2.385 . S
O101 C106 1.255 . S
Cd102 O101 2.385 . S
Cd102 O103 2.317 . S
O103 Cd102 2.317 . S
O103 C104 1.232 . S
C104 O103 1.232 . S
C104 O105 1.218 . S
O105 C104 1.218 . S
C106 O99 1.275 . S
C106 O101 1.255 . S
C107 O108 1.258 . S
C107 O109 1.256 . S
O108 Cd100 2.381 . S
O108 C107 1.258 . S
O109 Cd100 2.378 . S
O109 C107 1.256 . S
O110 Cd111 2.300 . S
O110 C117 1.275 . S
Cd111 O110 2.300 . S
Cd111 O119 2.381 . S
Cd111 O120 2.378 . S
O112 Cd113 2.385 . S
O112 C117 1.255 . S
Cd113 O112 2.385 . S
Cd113 O114 2.317 . S
O114 Cd113 2.317 . S
O114 C115 1.232 . S
C115 O114 1.232 . S
C115 O116 1.218 . S
O116 C115 1.218 . S
C117 O110 1.275 . S
C117 O112 1.255 . S
C118 O119 1.258 . S
C118 O120 1.256 . S
O119 Cd111 2.381 . S
O119 C118 1.258 . S
O120 Cd111 2.378 . S
O120 C118 1.256 . S
O121 Cd122 2.300 . S
O121 C128 1.275 . S
Cd122 O121 2.300 . S
Cd122 O130 2.381 . S
Cd122 O131 2.378 . S
O123 Cd124 2.385 . S
O123 C128 1.255 . S
Cd124 O123 2.385 . S
Cd124 O125 2.317 . S
O125 Cd124 2.317 . S
O125 C126 1.232 . S
C126 O125 1.232 . S
C126 O127 1.218 . S
O127 C126 1.218 . S
C128 O121 1.275 . S
C128 O123 1.255 . S
C129 O130 1.258 . S
C129 O131 1.256 . S
O130 Cd122 2.381 . S
O130 C129 1.258 . S
O131 Cd122 2.378 . S
O131 C129 1.256 . S
O132 Cd133 2.300 . S
O132 C139 1.275 . S
Cd133 O132 2.300 . S
Cd133 O141 2.381 . S
Cd133 O142 2.378 . S
O134 Cd135 2.385 . S
O134 C139 1.255 . S
Cd135 O134 2.385 . S
Cd135 O136 2.317 . S
O136 Cd135 2.317 . S
O136 C137 1.232 . S
C137 O136 1.232 . S
C137 O138 1.218 . S
O138 C137 1.218 . S
C139 O132 1.275 . S
C139 O134 1.255 . S
C140 O141 1.258 . S
C140 O142 1.256 . S
O141 Cd133 2.381 . S
O141 C140 1.258 . S
O142 Cd133 2.378 . S
O142 C140 1.256 . S
O143 Cd144 2.300 . S
O143 C150 1.275 . S
Cd144 O143 2.300 . S
Cd144 O152 2.381 . S
Cd144 O153 2.378 . S
O145 Cd146 2.385 . S
O145 C150 1.255 . S
Cd146 O145 2.385 . S
Cd146 O147 2.317 . S
O147 Cd146 2.317 . S
O147 C148 1.232 . S
C148 O147 1.232 . S
C148 O149 1.218 . S
O149 C148 1.218 . S
C150 O143 1.275 . S
C150 O145 1.255 . S
C151 O152 1.258 . S
C151 O153 1.256 . S
O152 Cd144 2.381 . S
O152 C151 1.258 . S
O153 Cd144 2.378 . S
O153 C151 1.256 . S
O154 Cd155 2.300 . S
O154 C161 1.275 . S
Cd155 O154 2.300 . S
Cd155 O163 2.381 . S
Cd155 O164 2.378 . S
O156 Cd157 2.385 . S
O156 C161 1.255 . S
Cd157 O156 2.385 . S
Cd157 O158 2.317 . S
O158 Cd157 2.317 . S
O158 C159 1.232 . S
C159 O158 1.232 . S
C159 O160 1.218 . S
O160 C159 1.218 . S
C161 O154 1.275 . S
C161 O156 1.255 . S
C162 O163 1.258 . S
C162 O164 1.256 . S
O163 Cd155 2.381 . S
O163 C162 1.258 . S
O164 Cd155 2.378 . S
O164 C162 1.256 . S
O165 Cd166 2.300 . S
O165 C172 1.275 . S
Cd166 O165 2.300 . S
Cd166 O174 2.381 . S
Cd166 O175 2.378 . S
O167 Cd168 2.385 . S
O167 C172 1.255 . S
Cd168 O167 2.385 . S
Cd168 O169 2.317 . S
O169 Cd168 2.317 . S
O169 C170 1.232 . S
C170 O169 1.232 . S
C170 O171 1.218 . S
O171 C170 1.218 . S
C172 O165 1.275 . S
C172 O167 1.255 . S
C173 O174 1.258 . S
C173 O175 1.256 . S
O174 Cd166 2.381 . S
O174 C173 1.258 . S
O175 Cd166 2.378 . S
O175 C173 1.256 . S
H176 C182 0.930 . S
H177 C185 0.930 . S
H178 C186 0.930 . S
H179 C187 0.930 . S
H180 C190 0.930 . S
H181 C191 0.930 . S
C182 H176 0.930 . S
C182 C183 1.355 . S
C182 C184 1.415 . S
C183 C182 1.355 . S
C183 C185 1.419 . S
C184 C182 1.415 . S
C184 C189 1.425 . S
C184 C191 1.409 1_565 S
C185 H177 0.930 . S
C185 C183 1.419 . S
C185 C186 1.362 . S
C186 H178 0.930 . S
C186 C185 1.362 . S
C186 C189 1.409 . S
C187 H179 0.930 . S
C187 C188 1.355 1_565 S
C187 C189 1.415 . S
C188 C187 1.355 1_545 S
C188 C190 1.419 . S
C189 C184 1.425 . S
C189 C186 1.409 . S
C189 C187 1.415 . S
C190 H180 0.930 . S
C190 C188 1.419 . S
C190 C191 1.362 . S
C191 H181 0.930 . S
C191 C184 1.409 1_545 S
C191 C190 1.362 . S
H192 C198 0.930 . S
H193 C201 0.930 . S
H194 C202 0.930 . S
H195 C203 0.930 . S
H196 C206 0.930 . S
H197 C207 0.930 . S
C198 H192 0.930 . S
C198 C199 1.355 . S
C198 C200 1.415 . S
C199 C198 1.355 . S
C199 C201 1.419 . S
C200 C198 1.415 . S
C200 C205 1.425 . S
C200 C207 1.409 . S
C201 H193 0.930 . S
C201 C199 1.419 . S
C201 C202 1.362 . S
C202 H194 0.930 . S
C202 C201 1.362 . S
C202 C205 1.409 . S
C203 H195 0.930 . S
C203 C204 1.355 . S
C203 C205 1.415 . S
C204 C203 1.355 . S
C204 C206 1.419 . S
C205 C200 1.425 . S
C205 C202 1.409 . S
C205 C203 1.415 . S
C206 H196 0.930 . S
C206 C204 1.419 . S
C206 C207 1.362 . S
C207 H197 0.930 . S
C207 C200 1.409 . S
C207 C206 1.362 . S
H208 C214 0.930 . S
H209 C217 0.924 1_545 S
H210 C218 0.930 . S
H211 C219 0.930 . S
H212 C222 0.930 . S
H213 C223 0.930 . S
C214 H208 0.930 . S
C214 C215 1.355 . S
C214 C216 1.415 1_545 S
C215 C214 1.355 . S
C215 C217 1.412 1_545 S
C216 C214 1.415 1_565 S
C216 C221 1.425 . S
C216 C223 1.409 . S
C217 H209 0.924 1_565 S
C217 C215 1.412 1_565 S
C217 C218 1.376 . S
C218 H210 0.930 . S
C218 C217 1.376 . S
C218 C221 1.409 . S
C219 H211 0.930 . S
C219 C220 1.355 . S
C219 C221 1.415 . S
C220 C219 1.355 . S
C220 C222 1.419 . S
C221 C216 1.425 . S
C221 C218 1.409 . S
C221 C219 1.415 . S
C222 H212 0.930 . S
C222 C220 1.419 . S
C222 C223 1.362 . S
C223 H213 0.930 . S
C223 C216 1.409 . S
C223 C222 1.362 . S
H224 C230 0.930 . S
H225 C233 0.930 . S
H226 C234 0.930 . S
H227 C235 0.930 . S
H228 C238 0.930 . S
H229 C239 0.930 . S
C230 H224 0.930 . S
C230 C231 1.355 . S
C230 C232 1.415 . S
C231 C230 1.355 . S
C231 C233 1.419 . S
C232 C230 1.415 . S
C232 C237 1.425 . S
C232 C239 1.409 . S
C233 H225 0.930 . S
C233 C231 1.419 . S
C233 C234 1.362 . S
C234 H226 0.930 . S
C234 C233 1.362 . S
C234 C237 1.409 . S
C235 H227 0.930 . S
C235 C236 1.355 . S
C235 C237 1.415 . S
C236 C235 1.355 . S
C236 C238 1.419 . S
C237 C232 1.425 . S
C237 C234 1.409 . S
C237 C235 1.415 . S
C238 H228 0.930 . S
C238 C236 1.419 . S
C238 C239 1.362 . S
C239 H229 0.930 . S
C239 C232 1.409 . S
C239 C238 1.362 . S
H240 C246 0.930 . S
H241 C249 0.930 . S
H242 C250 0.930 . S
H243 C251 0.930 . S
H244 C254 0.930 . S
H245 C255 0.930 . S
C246 H240 0.930 . S
C246 C247 1.355 . S
C246 C248 1.415 . S
C247 C246 1.355 . S
C247 C249 1.419 . S
C248 C246 1.415 . S
C248 C253 1.425 . S
C248 C255 1.409 . S
C249 H241 0.930 . S
C249 C247 1.419 . S
C249 C250 1.362 . S
C250 H242 0.930 . S
C250 C249 1.362 . S
C250 C253 1.409 . S
C251 H243 0.930 . S
C251 C252 1.355 . S
C251 C253 1.415 . S
C252 C251 1.355 . S
C252 C254 1.419 . S
C253 C248 1.425 . S
C253 C250 1.409 . S
C253 C251 1.415 . S
C254 H244 0.930 . S
C254 C252 1.419 . S
C254 C255 1.362 . S
C255 H245 0.930 . S
C255 C248 1.409 . S
C255 C254 1.362 . S
H256 C262 0.930 . S
H257 C265 0.930 1_554 S
H258 C266 0.930 1_554 S
H259 C267 0.930 . S
H260 C270 0.930 . S
H261 C271 0.930 1_655 S
C262 H256 0.930 . S
C262 C263 1.355 . S
C262 C264 1.415 . S
C263 C262 1.355 . S
C263 C265 1.419 . S
C264 C262 1.415 . S
C264 C269 1.425 1_655 S
C264 C271 1.409 1_655 S
C265 H257 0.930 1_556 S
C265 C263 1.419 . S
C265 C266 1.362 1_655 S
C266 H258 0.930 1_556 S
C266 C265 1.362 1_455 S
C266 C269 1.409 . S
C267 H259 0.930 . S
C267 C268 1.355 . S
C267 C269 1.415 . S
C268 C267 1.355 . S
C268 C270 1.419 . S
C269 C264 1.425 1_455 S
C269 C266 1.409 . S
C269 C267 1.415 . S
C270 H260 0.930 . S
C270 C268 1.419 . S
C270 C271 1.362 . S
C271 H261 0.930 1_455 S
C271 C264 1.409 1_455 S
C271 C270 1.362 . S
H272 C278 0.930 . S
H273 C281 0.930 . S
H274 C282 0.930 . S
H275 C283 0.930 . S
H276 C286 0.930 . S
H277 C287 0.930 . S
C278 H272 0.930 . S
C278 C279 1.355 . S
C278 C280 1.415 . S
C279 C278 1.355 . S
C279 C281 1.419 . S
C280 C278 1.415 . S
C280 C285 1.425 . S
C280 C287 1.409 . S
C281 H273 0.930 . S
C281 C279 1.419 . S
C281 C282 1.362 . S
C282 H274 0.930 . S
C282 C281 1.362 . S
C282 C285 1.409 . S
C283 H275 0.930 . S
C283 C284 1.355 . S
C283 C285 1.415 . S
C284 C283 1.355 . S
C284 C286 1.419 . S
C285 C280 1.425 . S
C285 C282 1.409 . S
C285 C283 1.415 . S
C286 H276 0.930 . S
C286 C284 1.419 . S
C286 C287 1.362 . S
C287 H277 0.930 . S
C287 C280 1.409 . S
C287 C286 1.362 . S
H288 C294 0.930 . S
H289 C297 0.930 . S
H290 C298 0.930 . S
H291 C299 0.930 . S
H292 C302 0.930 . S
H293 C303 0.930 . S
C294 H288 0.930 . S
C294 C295 1.355 . S
C294 C296 1.415 . S
C295 C294 1.355 . S
C295 C297 1.419 . S
C296 C294 1.415 . S
C296 C301 1.425 . S
C296 C303 1.409 1_455 S
C297 H289 0.930 . S
C297 C295 1.419 . S
C297 C298 1.362 . S
C298 H290 0.930 . S
C298 C297 1.362 . S
C298 C301 1.409 . S
C299 H291 0.930 . S
C299 C300 1.355 1_455 S
C299 C301 1.415 . S
C300 C299 1.355 1_655 S
C300 C302 1.419 . S
C301 C296 1.425 . S
C301 C298 1.409 . S
C301 C299 1.415 . S
C302 H292 0.930 . S
C302 C300 1.419 . S
C302 C303 1.362 . S
C303 H293 0.930 . S
C303 C296 1.409 1_655 S
C303 C302 1.362 . S
H304 C310 0.930 . S
H305 C313 0.930 . S
H306 C314 0.930 . S
H307 C315 0.930 . S
H308 C318 0.930 . S
H309 C319 0.937 . S
C310 H304 0.930 . S
C310 C311 1.355 . S
C310 C312 1.415 . S
C311 C310 1.355 . S
C311 C313 1.419 . S
C312 C310 1.415 . S
C312 C317 1.425 . S
C312 C319 1.399 1_545 S
C313 H305 0.930 . S
C313 C311 1.419 . S
C313 C314 1.362 . S
C314 H306 0.930 . S
C314 C313 1.362 . S
C314 C317 1.409 . S
C315 H307 0.930 . S
C315 C316 1.355 . S
C315 C317 1.415 . S
C316 C315 1.355 . S
C316 C318 1.419 1_545 S
C317 C312 1.425 . S
C317 C314 1.409 . S
C317 C315 1.415 . S
C318 H308 0.930 . S
C318 C316 1.419 1_565 S
C318 C319 1.366 . S
C319 H309 0.937 . S
C319 C312 1.399 1_565 S
C319 C318 1.366 . S
H320 C326 0.930 . S
H321 C329 0.930 . S
H322 C330 0.930 . S
H323 C331 0.930 . S
H324 C334 0.930 . S
H325 C335 0.930 . S
C326 H320 0.930 . S
C326 C327 1.355 . S
C326 C328 1.415 . S
C327 C326 1.355 . S
C327 C329 1.419 . S
C328 C326 1.415 . S
C328 C333 1.425 . S
C328 C335 1.409 . S
C329 H321 0.930 . S
C329 C327 1.419 . S
C329 C330 1.362 . S
C330 H322 0.930 . S
C330 C329 1.362 . S
C330 C333 1.409 . S
C331 H323 0.930 . S
C331 C332 1.355 . S
C331 C333 1.415 . S
C332 C331 1.355 . S
C332 C334 1.419 . S
C333 C328 1.425 . S
C333 C330 1.409 . S
C333 C331 1.415 . S
C334 H324 0.930 . S
C334 C332 1.419 . S
C334 C335 1.362 . S
C335 H325 0.930 . S
C335 C328 1.409 . S
C335 C334 1.362 . S
H336 C342 0.930 . S
H337 C345 0.939 . S
H338 C346 0.930 . S
H339 C347 0.930 . S
H340 C350 0.930 . S
H341 C351 0.930 . S
C342 H336 0.930 . S
C342 C343 1.343 1_545 S
C342 C344 1.415 . S
C343 C342 1.343 1_565 S
C343 C345 1.411 1_565 S
C344 C342 1.415 . S
C344 C349 1.425 . S
C344 C351 1.409 . S
C345 H337 0.939 . S
C345 C343 1.411 1_545 S
C345 C346 1.362 . S
C346 H338 0.930 . S
C346 C345 1.362 . S
C346 C349 1.409 . S
C347 H339 0.930 . S
C347 C348 1.355 . S
C347 C349 1.415 . S
C348 C347 1.355 . S
C348 C350 1.419 . S
C349 C344 1.425 . S
C349 C346 1.409 . S
C349 C347 1.415 . S
C350 H340 0.930 . S
C350 C348 1.419 . S
C350 C351 1.362 . S
C351 H341 0.930 . S
C351 C344 1.409 . S
C351 C350 1.362 . S
H352 C358 0.930 . S
H353 C361 0.930 . S
H354 C362 0.930 . S
H355 C363 0.930 . S
H356 C366 0.930 . S
H357 C367 0.930 . S
C358 H352 0.930 . S
C358 C359 1.355 . S
C358 C360 1.415 . S
C359 C358 1.355 . S
C359 C361 1.419 . S
C360 C358 1.415 . S
C360 C365 1.425 . S
C360 C367 1.409 . S
C361 H353 0.930 . S
C361 C359 1.419 . S
C361 C362 1.362 . S
C362 H354 0.930 . S
C362 C361 1.362 . S
C362 C365 1.409 . S
C363 H355 0.930 . S
C363 C364 1.355 . S
C363 C365 1.415 . S
C364 C363 1.355 . S
C364 C366 1.419 . S
C365 C360 1.425 . S
C365 C362 1.409 . S
C365 C363 1.415 . S
C366 H356 0.930 . S
C366 C364 1.419 . S
C366 C367 1.362 . S
C367 H357 0.930 . S
C367 C360 1.409 . S
C367 C366 1.362 . S
H368 C374 0.930 . S
H369 C377 0.930 . S
H370 C378 0.930 . S
H371 C379 0.930 . S
H372 C382 0.930 . S
H373 C383 0.930 . S
C374 H368 0.930 . S
C374 C375 1.355 . S
C374 C376 1.415 . S
C375 C374 1.355 . S
C375 C377 1.419 . S
C376 C374 1.415 . S
C376 C381 1.425 . S
C376 C383 1.409 . S
C377 H369 0.930 . S
C377 C375 1.419 . S
C377 C378 1.362 . S
C378 H370 0.930 . S
C378 C377 1.362 . S
C378 C381 1.409 . S
C379 H371 0.930 . S
C379 C380 1.355 . S
C379 C381 1.415 . S
C380 C379 1.355 . S
C380 C382 1.419 . S
C381 C376 1.425 . S
C381 C378 1.409 . S
C381 C379 1.415 . S
C382 H372 0.930 . S
C382 C380 1.419 . S
C382 C383 1.362 . S
C383 H373 0.930 . S
C383 C376 1.409 . S
C383 C382 1.362 . S
H384 C390 0.930 . S
H385 C393 0.930 . S
H386 C394 0.930 . S
H387 C395 0.930 . S
H388 C398 0.930 . S
H389 C399 0.930 . S
C390 H384 0.930 . S
C390 C391 1.355 . S
C390 C392 1.415 1_455 S
C391 C390 1.355 . S
C391 C393 1.419 . S
C392 C390 1.415 1_655 S
C392 C397 1.425 . S
C392 C399 1.409 . S
C393 H385 0.930 . S
C393 C391 1.419 . S
C393 C394 1.362 1_455 S
C394 H386 0.930 . S
C394 C393 1.362 1_655 S
C394 C397 1.409 . S
C395 H387 0.930 . S
C395 C396 1.355 . S
C395 C397 1.415 . S
C396 C395 1.355 . S
C396 C398 1.419 . S
C397 C392 1.425 . S
C397 C394 1.409 . S
C397 C395 1.415 . S
C398 H388 0.930 . S
C398 C396 1.419 . S
C398 C399 1.362 . S
C399 H389 0.930 . S
C399 C392 1.409 . S
C399 C398 1.362 . S
H400 C406 0.930 . S
H401 C409 0.930 . S
H402 C410 0.930 . S
H403 C411 0.930 . S
H404 C414 0.930 . S
H405 C415 0.930 . S
C406 H400 0.930 . S
C406 C407 1.355 . S
C406 C408 1.415 . S
C407 C406 1.355 . S
C407 C409 1.419 . S
C408 C406 1.415 . S
C408 C413 1.425 . S
C408 C415 1.409 . S
C409 H401 0.930 . S
C409 C407 1.419 . S
C409 C410 1.362 . S
C410 H402 0.930 . S
C410 C409 1.362 . S
C410 C413 1.409 . S
C411 H403 0.930 . S
C411 C412 1.355 . S
C411 C413 1.415 . S
C412 C411 1.355 . S
C412 C414 1.419 . S
C413 C408 1.425 . S
C413 C410 1.409 . S
C413 C411 1.415 . S
C414 H404 0.930 . S
C414 C412 1.419 . S
C414 C415 1.362 . S
C415 H405 0.930 . S
C415 C408 1.409 . S
C415 C414 1.362 . S
H416 C422 0.930 . S
H417 C425 0.930 . S
H418 C426 0.930 1_455 S
H419 C427 0.930 . S
H420 C430 0.930 . S
H421 C431 0.930 . S
C422 H416 0.930 . S
C422 C423 1.355 . S
C422 C424 1.415 . S
C423 C422 1.355 . S
C423 C425 1.419 . S
C424 C422 1.415 . S
C424 C429 1.425 . S
C424 C431 1.409 . S
C425 H417 0.930 . S
C425 C423 1.419 . S
C425 C426 1.362 . S
C426 H418 0.930 1_655 S
C426 C425 1.362 . S
C426 C429 1.409 . S
C427 H419 0.930 . S
C427 C428 1.355 . S
C427 C429 1.415 1_455 S
C428 C427 1.355 . S
C428 C430 1.419 1_455 S
C429 C424 1.425 . S
C429 C426 1.409 . S
C429 C427 1.415 1_655 S
C430 H420 0.930 . S
C430 C428 1.419 1_655 S
C430 C431 1.362 . S
C431 H421 0.930 . S
C431 C424 1.409 . S
C431 C430 1.362 . S
H432 C438 0.930 . S
H433 C441 0.930 . S
H434 C442 0.930 . S
H435 C443 0.930 . S
H436 C446 0.930 . S
H437 C447 0.930 . S
C438 H432 0.930 . S
C438 C439 1.355 . S
C438 C440 1.415 . S
C439 C438 1.355 . S
C439 C441 1.419 . S
C440 C438 1.415 . S
C440 C445 1.425 . S
C440 C447 1.409 . S
C441 H433 0.930 . S
C441 C439 1.419 . S
C441 C442 1.362 . S
C442 H434 0.930 . S
C442 C441 1.362 . S
C442 C445 1.409 . S
C443 H435 0.930 . S
C443 C444 1.355 . S
C443 C445 1.415 . S
C444 C443 1.355 . S
C444 C446 1.419 . S
C445 C440 1.425 . S
C445 C442 1.409 . S
C445 C443 1.415 . S
C446 H436 0.930 . S
C446 C444 1.419 . S
C446 C447 1.362 . S
C447 H437 0.930 . S
C447 C440 1.409 . S
C447 C446 1.362 . S
H448 C454 0.930 . S
H449 C457 0.930 . S
H450 C458 0.930 . S
H451 C459 0.930 . S
H452 C462 0.930 . S
H453 C463 0.930 . S
C454 H448 0.930 . S
C454 C455 1.355 . S
C454 C456 1.415 . S
C455 C454 1.355 . S
C455 C457 1.419 . S
C456 C454 1.415 . S
C456 C461 1.425 . S
C456 C463 1.409 . S
C457 H449 0.930 . S
C457 C455 1.419 . S
C457 C458 1.362 . S
C458 H450 0.930 . S
C458 C457 1.362 . S
C458 C461 1.409 . S
C459 H451 0.930 . S
C459 C460 1.355 . S
C459 C461 1.415 . S
C460 C459 1.355 . S
C460 C462 1.419 . S
C461 C456 1.425 . S
C461 C458 1.409 . S
C461 C459 1.415 . S
C462 H452 0.930 . S
C462 C460 1.419 . S
C462 C463 1.362 . S
C463 H453 0.930 . S
C463 C456 1.409 . S
C463 C462 1.362 . S
H464 C470 0.930 . S
H465 C473 0.930 . S
H466 C474 0.930 . S
H467 C475 0.930 . S
H468 C478 0.930 . S
H469 C479 0.930 . S
C470 H464 0.930 . S
C470 C471 1.355 . S
C470 C472 1.415 . S
C471 C470 1.355 . S
C471 C473 1.419 . S
C472 C470 1.415 . S
C472 C477 1.425 . S
C472 C479 1.409 . S
C473 H465 0.930 . S
C473 C471 1.419 . S
C473 C474 1.362 . S
C474 H466 0.930 . S
C474 C473 1.362 . S
C474 C477 1.409 . S
C475 H467 0.930 . S
C475 C476 1.355 . S
C475 C477 1.415 . S
C476 C475 1.355 . S
C476 C478 1.419 . S
C477 C472 1.425 . S
C477 C474 1.409 . S
C477 C475 1.415 . S
C478 H468 0.930 . S
C478 C476 1.419 . S
C478 C479 1.362 . S
C479 H469 0.930 . S
C479 C472 1.409 . S
C479 C478 1.362 . S
H480 C486 0.930 . S
H481 C489 0.930 . S
H482 C490 0.930 . S
H483 C491 0.930 . S
H484 C494 0.930 . S
H485 C495 0.930 . S
C486 H480 0.930 . S
C486 C487 1.355 . S
C486 C488 1.415 . S
C487 C486 1.355 . S
C487 C489 1.419 . S
C488 C486 1.415 . S
C488 C493 1.425 . S
C488 C495 1.409 . S
C489 H481 0.930 . S
C489 C487 1.419 . S
C489 C490 1.362 . S
C490 H482 0.930 . S
C490 C489 1.362 . S
C490 C493 1.409 . S
C491 H483 0.930 . S
C491 C492 1.355 . S
C491 C493 1.415 . S
C492 C491 1.355 . S
C492 C494 1.419 . S
C493 C488 1.425 . S
C493 C490 1.409 . S
C493 C491 1.415 . S
C494 H484 0.930 . S
C494 C492 1.419 . S
C494 C495 1.362 . S
C495 H485 0.930 . S
C495 C488 1.409 . S
C495 C494 1.362 . S
H496 C502 0.930 . S
H497 C505 0.930 . S
H498 C506 0.930 . S
H499 C507 0.930 . S
H500 C510 0.930 . S
H501 C511 0.930 . S
C502 H496 0.930 . S
C502 C503 1.355 . S
C502 C504 1.415 . S
C503 C502 1.355 . S
C503 C505 1.419 . S
C504 C502 1.415 . S
C504 C509 1.425 . S
C504 C511 1.409 . S
C505 H497 0.930 . S
C505 C503 1.419 . S
C505 C506 1.362 . S
C506 H498 0.930 . S
C506 C505 1.362 . S
C506 C509 1.409 . S
C507 H499 0.930 . S
C507 C508 1.355 . S
C507 C509 1.415 . S
C508 C507 1.355 . S
C508 C510 1.419 . S
C509 C504 1.425 . S
C509 C506 1.409 . S
C509 C507 1.415 . S
C510 H500 0.930 . S
C510 C508 1.419 . S
C510 C511 1.362 . S
C511 H501 0.930 . S
C511 C504 1.409 . S
C511 C510 1.362 . S
H512 C518 0.930 . S
H513 C521 0.930 . S
H514 C522 0.930 . S
H515 C523 0.930 . S
H516 C526 0.930 . S
H517 C527 0.930 . S
C518 H512 0.930 . S
C518 C519 1.355 . S
C518 C520 1.415 . S
C519 C518 1.355 . S
C519 C521 1.419 . S
C520 C518 1.415 . S
C520 C525 1.425 . S
C520 C527 1.409 . S
C521 H513 0.930 . S
C521 C519 1.419 . S
C521 C522 1.362 . S
C522 H514 0.930 . S
C522 C521 1.362 . S
C522 C525 1.409 . S
C523 H515 0.930 . S
C523 C524 1.355 . S
C523 C525 1.415 . S
C524 C523 1.355 . S
C524 C526 1.419 . S
C525 C520 1.425 . S
C525 C522 1.409 . S
C525 C523 1.415 . S
C526 H516 0.930 . S
C526 C524 1.419 . S
C526 C527 1.362 . S
C527 H517 0.930 . S
C527 C520 1.409 . S
C527 C526 1.362 . S
H528 C534 0.930 . S
H529 C537 0.930 . S
H530 C538 0.930 . S
H531 C539 0.930 . S
H532 C542 0.930 . S
H533 C543 0.930 . S
C534 H528 0.930 . S
C534 C535 1.355 . S
C534 C536 1.415 . S
C535 C534 1.355 . S
C535 C537 1.419 . S
C536 C534 1.415 . S
C536 C541 1.425 . S
C536 C543 1.409 . S
C537 H529 0.930 . S
C537 C535 1.419 . S
C537 C538 1.362 . S
C538 H530 0.930 . S
C538 C537 1.362 . S
C538 C541 1.409 . S
C539 H531 0.930 . S
C539 C540 1.355 . S
C539 C541 1.415 . S
C540 C539 1.355 . S
C540 C542 1.419 . S
C541 C536 1.425 . S
C541 C538 1.409 . S
C541 C539 1.415 . S
C542 H532 0.930 . S
C542 C540 1.419 . S
C542 C543 1.362 . S
C543 H533 0.930 . S
C543 C536 1.409 . S
C543 C542 1.362 . S
H544 C550 0.930 . S
H545 C553 0.930 . S
H546 C554 0.930 . S
H547 C555 0.930 . S
H548 C558 0.930 . S
H549 C559 0.930 . S
C550 H544 0.930 . S
C550 C551 1.355 . S
C550 C552 1.415 . S
C551 C550 1.355 . S
C551 C553 1.419 . S
C552 C550 1.415 . S
C552 C557 1.425 . S
C552 C559 1.409 . S
C553 H545 0.930 . S
C553 C551 1.419 . S
C553 C554 1.362 . S
C554 H546 0.930 . S
C554 C553 1.362 . S
C554 C557 1.409 . S
C555 H547 0.930 . S
C555 C556 1.355 . S
C555 C557 1.415 . S
C556 C555 1.355 . S
C556 C558 1.419 . S
C557 C552 1.425 . S
C557 C554 1.409 . S
C557 C555 1.415 . S
C558 H548 0.930 . S
C558 C556 1.419 . S
C558 C559 1.362 . S
C559 H549 0.930 . S
C559 C552 1.409 . S
C559 C558 1.362 . S
C183 C8 1.594 . S
C188 C95 1.444 . S
C199 C31 1.463 . S
C204 C104 1.065 . S
C215 C53 1.236 . S
C220 C115 0.998 . S
C236 C126 1.057 . S
C231 C74 1.116 . S
C252 C139 1.334 . S
C247 C26 1.349 . S
C263 C48 1.199 . S
C268 C148 0.959 . S
C279 C71 1.169 . S
C284 C159 1.012 . S
C295 C5 1.690 . S
C300 C172 1.562 . S
C311 C50 1.231 . S
C316 C170 0.857 1_545 S
C332 C137 1.241 . S
C327 C70 1.345 . S
C348 C150 1.542 . S
C343 C4 1.634 . S
C359 C28 1.659 . S
C364 C161 1.683 . S
C380 C106 1.418 . S
C375 C73 1.411 . S
C391 C7 1.667 . S
C396 C117 1.580 . S
C412 C128 1.480 . S
C407 C30 1.476 . S
C428 C93 1.021 . S
C423 C52 1.219 . S
C444 C162 1.469 . S
C439 C9 1.446 . S
C460 C173 1.453 . S
C455 C29 1.488 . S
C471 C51 1.363 . S
C476 C140 1.322 . S
C492 C151 1.457 . S
C487 C75 1.482 . S
C508 C118 1.517 . S
C503 C27 1.624 . S
C519 C49 1.353 . S
C524 C129 1.335 . S
C540 C96 1.358 . S
C535 C72 1.418 . S
C556 C107 1.426 . S
C551 C6 1.464 . S
