# Generated by pormake.
# Topology gar, (4,6)-cn, num edge types: 1
# Building blocks:
#     Node 0, Type 0, BuildingBlock: AZAVOO_clean_sbu_0, # of connection points: 4
#     Node 1, Type 0, BuildingBlock: AZAVOO_clean_sbu_0, # of connection points: 4
#     Node 2, Type 0, BuildingBlock: AZAVOO_clean_sbu_0, # of connection points: 4
#     Node 3, Type 0, BuildingBlock: AZAVOO_clean_sbu_0, # of connection points: 4
#     Node 4, Type 0, BuildingBlock: AZAVOO_clean_sbu_0, # of connection points: 4
#     Node 5, Type 0, BuildingBlock: AZAVOO_clean_sbu_0, # of connection points: 4
#     Node 6, Type 0, BuildingBlock: AZAVOO_clean_sbu_0, # of connection points: 4
#     Node 7, Type 0, BuildingBlock: AZAVOO_clean_sbu_0, # of connection points: 4
#     Node 8, Type 0, BuildingBlock: AZAVOO_clean_sbu_0, # of connection points: 4
#     Node 9, Type 0, BuildingBlock: AZAVOO_clean_sbu_0, # of connection points: 4
#     Node 10, Type 0, BuildingBlock: AZAVOO_clean_sbu_0, # of connection points: 4
#     Node 11, Type 0, BuildingBlock: AZAVOO_clean_sbu_0, # of connection points: 4
#     Node 12, Type 0, BuildingBlock: AZAVOO_clean_sbu_0, # of connection points: 4
#     Node 13, Type 0, BuildingBlock: AZAVOO_clean_sbu_0, # of connection points: 4
#     Node 14, Type 0, BuildingBlock: AZAVOO_clean_sbu_0, # of connection points: 4
#     Node 15, Type 0, BuildingBlock: AZAVOO_clean_sbu_0, # of connection points: 4
#     Node 16, Type 0, BuildingBlock: AZAVOO_clean_sbu_0, # of connection points: 4
#     Node 17, Type 0, BuildingBlock: AZAVOO_clean_sbu_0, # of connection points: 4
#     Node 18, Type 0, BuildingBlock: AZAVOO_clean_sbu_0, # of connection points: 4
#     Node 19, Type 0, BuildingBlock: AZAVOO_clean_sbu_0, # of connection points: 4
#     Node 20, Type 0, BuildingBlock: AZAVOO_clean_sbu_0, # of connection points: 4
#     Node 21, Type 0, BuildingBlock: AZAVOO_clean_sbu_0, # of connection points: 4
#     Node 22, Type 0, BuildingBlock: AZAVOO_clean_sbu_0, # of connection points: 4
#     Node 23, Type 0, BuildingBlock: AZAVOO_clean_sbu_0, # of connection points: 4
#     Node 24, Type 1, BuildingBlock: BETFEN_clean_sbu_0, # of connection points: 6
#     Node 25, Type 1, BuildingBlock: BETFEN_clean_sbu_0, # of connection points: 6
#     Node 26, Type 1, BuildingBlock: BETFEN_clean_sbu_0, # of connection points: 6
#     Node 27, Type 1, BuildingBlock: BETFEN_clean_sbu_0, # of connection points: 6
#     Node 28, Type 1, BuildingBlock: BETFEN_clean_sbu_0, # of connection points: 6
#     Node 29, Type 1, BuildingBlock: BETFEN_clean_sbu_0, # of connection points: 6
#     Node 30, Type 1, BuildingBlock: BETFEN_clean_sbu_0, # of connection points: 6
#     Node 31, Type 1, BuildingBlock: BETFEN_clean_sbu_0, # of connection points: 6
#     Node 32, Type 1, BuildingBlock: BETFEN_clean_sbu_0, # of connection points: 6
#     Node 33, Type 1, BuildingBlock: BETFEN_clean_sbu_0, # of connection points: 6
#     Node 34, Type 1, BuildingBlock: BETFEN_clean_sbu_0, # of connection points: 6
#     Node 35, Type 1, BuildingBlock: BETFEN_clean_sbu_0, # of connection points: 6
#     Node 36, Type 1, BuildingBlock: BETFEN_clean_sbu_0, # of connection points: 6
#     Node 37, Type 1, BuildingBlock: BETFEN_clean_sbu_0, # of connection points: 6
#     Node 38, Type 1, BuildingBlock: BETFEN_clean_sbu_0, # of connection points: 6
#     Node 39, Type 1, BuildingBlock: BETFEN_clean_sbu_0, # of connection points: 6
#     Edge 40, Type (0, 1), BuildingBlock: TEMPAE_clean_linker_10, # of connection points: 2
#     Edge 41, Type (0, 1), BuildingBlock: TEMPAE_clean_linker_10, # of connection points: 2
#     Edge 42, Type (0, 1), BuildingBlock: TEMPAE_clean_linker_10, # of connection points: 2
#     Edge 43, Type (0, 1), BuildingBlock: TEMPAE_clean_linker_10, # of connection points: 2
#     Edge 44, Type (0, 1), BuildingBlock: TEMPAE_clean_linker_10, # of connection points: 2
#     Edge 45, Type (0, 1), BuildingBlock: TEMPAE_clean_linker_10, # of connection points: 2
#     Edge 46, Type (0, 1), BuildingBlock: TEMPAE_clean_linker_10, # of connection points: 2
#     Edge 47, Type (0, 1), BuildingBlock: TEMPAE_clean_linker_10, # of connection points: 2
#     Edge 48, Type (0, 1), BuildingBlock: TEMPAE_clean_linker_10, # of connection points: 2
#     Edge 49, Type (0, 1), BuildingBlock: TEMPAE_clean_linker_10, # of connection points: 2
#     Edge 50, Type (0, 1), BuildingBlock: TEMPAE_clean_linker_10, # of connection points: 2
#     Edge 51, Type (0, 1), BuildingBlock: TEMPAE_clean_linker_10, # of connection points: 2
#     Edge 52, Type (0, 1), BuildingBlock: TEMPAE_clean_linker_10, # of connection points: 2
#     Edge 53, Type (0, 1), BuildingBlock: TEMPAE_clean_linker_10, # of connection points: 2
#     Edge 54, Type (0, 1), BuildingBlock: TEMPAE_clean_linker_10, # of connection points: 2
#     Edge 55, Type (0, 1), BuildingBlock: TEMPAE_clean_linker_10, # of connection points: 2
#     Edge 56, Type (0, 1), BuildingBlock: TEMPAE_clean_linker_10, # of connection points: 2
#     Edge 57, Type (0, 1), BuildingBlock: TEMPAE_clean_linker_10, # of connection points: 2
#     Edge 58, Type (0, 1), BuildingBlock: TEMPAE_clean_linker_10, # of connection points: 2
#     Edge 59, Type (0, 1), BuildingBlock: TEMPAE_clean_linker_10, # of connection points: 2
#     Edge 60, Type (0, 1), BuildingBlock: TEMPAE_clean_linker_10, # of connection points: 2
#     Edge 61, Type (0, 1), BuildingBlock: TEMPAE_clean_linker_10, # of connection points: 2
#     Edge 62, Type (0, 1), BuildingBlock: TEMPAE_clean_linker_10, # of connection points: 2
#     Edge 63, Type (0, 1), BuildingBlock: TEMPAE_clean_linker_10, # of connection points: 2
#     Edge 64, Type (0, 1), BuildingBlock: TEMPAE_clean_linker_10, # of connection points: 2
#     Edge 65, Type (0, 1), BuildingBlock: TEMPAE_clean_linker_10, # of connection points: 2
#     Edge 66, Type (0, 1), BuildingBlock: TEMPAE_clean_linker_10, # of connection points: 2
#     Edge 67, Type (0, 1), BuildingBlock: TEMPAE_clean_linker_10, # of connection points: 2
#     Edge 68, Type (0, 1), BuildingBlock: TEMPAE_clean_linker_10, # of connection points: 2
#     Edge 69, Type (0, 1), BuildingBlock: TEMPAE_clean_linker_10, # of connection points: 2
#     Edge 70, Type (0, 1), BuildingBlock: TEMPAE_clean_linker_10, # of connection points: 2
#     Edge 71, Type (0, 1), BuildingBlock: TEMPAE_clean_linker_10, # of connection points: 2
#     Edge 72, Type (0, 1), BuildingBlock: TEMPAE_clean_linker_10, # of connection points: 2
#     Edge 73, Type (0, 1), BuildingBlock: TEMPAE_clean_linker_10, # of connection points: 2
#     Edge 74, Type (0, 1), BuildingBlock: TEMPAE_clean_linker_10, # of connection points: 2
#     Edge 75, Type (0, 1), BuildingBlock: TEMPAE_clean_linker_10, # of connection points: 2
#     Edge 76, Type (0, 1), BuildingBlock: TEMPAE_clean_linker_10, # of connection points: 2
#     Edge 77, Type (0, 1), BuildingBlock: TEMPAE_clean_linker_10, # of connection points: 2
#     Edge 78, Type (0, 1), BuildingBlock: TEMPAE_clean_linker_10, # of connection points: 2
#     Edge 79, Type (0, 1), BuildingBlock: TEMPAE_clean_linker_10, # of connection points: 2
#     Edge 80, Type (0, 1), BuildingBlock: TEMPAE_clean_linker_10, # of connection points: 2
#     Edge 81, Type (0, 1), BuildingBlock: TEMPAE_clean_linker_10, # of connection points: 2
#     Edge 82, Type (0, 1), BuildingBlock: TEMPAE_clean_linker_10, # of connection points: 2
#     Edge 83, Type (0, 1), BuildingBlock: TEMPAE_clean_linker_10, # of connection points: 2
#     Edge 84, Type (0, 1), BuildingBlock: TEMPAE_clean_linker_10, # of connection points: 2
#     Edge 85, Type (0, 1), BuildingBlock: TEMPAE_clean_linker_10, # of connection points: 2
#     Edge 86, Type (0, 1), BuildingBlock: TEMPAE_clean_linker_10, # of connection points: 2
#     Edge 87, Type (0, 1), BuildingBlock: TEMPAE_clean_linker_10, # of connection points: 2
#     Edge 88, Type (0, 1), BuildingBlock: TEMPAE_clean_linker_10, # of connection points: 2
#     Edge 89, Type (0, 1), BuildingBlock: TEMPAE_clean_linker_10, # of connection points: 2
#     Edge 90, Type (0, 1), BuildingBlock: TEMPAE_clean_linker_10, # of connection points: 2
#     Edge 91, Type (0, 1), BuildingBlock: TEMPAE_clean_linker_10, # of connection points: 2
#     Edge 92, Type (0, 1), BuildingBlock: TEMPAE_clean_linker_10, # of connection points: 2
#     Edge 93, Type (0, 1), BuildingBlock: TEMPAE_clean_linker_10, # of connection points: 2
#     Edge 94, Type (0, 1), BuildingBlock: TEMPAE_clean_linker_10, # of connection points: 2
#     Edge 95, Type (0, 1), BuildingBlock: TEMPAE_clean_linker_10, # of connection points: 2
#     Edge 96, Type (0, 1), BuildingBlock: TEMPAE_clean_linker_10, # of connection points: 2
#     Edge 97, Type (0, 1), BuildingBlock: TEMPAE_clean_linker_10, # of connection points: 2
#     Edge 98, Type (0, 1), BuildingBlock: TEMPAE_clean_linker_10, # of connection points: 2
#     Edge 99, Type (0, 1), BuildingBlock: TEMPAE_clean_linker_10, # of connection points: 2
#     Edge 100, Type (0, 1), BuildingBlock: TEMPAE_clean_linker_10, # of connection points: 2
#     Edge 101, Type (0, 1), BuildingBlock: TEMPAE_clean_linker_10, # of connection points: 2
#     Edge 102, Type (0, 1), BuildingBlock: TEMPAE_clean_linker_10, # of connection points: 2
#     Edge 103, Type (0, 1), BuildingBlock: TEMPAE_clean_linker_10, # of connection points: 2
#     Edge 104, Type (0, 1), BuildingBlock: TEMPAE_clean_linker_10, # of connection points: 2
#     Edge 105, Type (0, 1), BuildingBlock: TEMPAE_clean_linker_10, # of connection points: 2
#     Edge 106, Type (0, 1), BuildingBlock: TEMPAE_clean_linker_10, # of connection points: 2
#     Edge 107, Type (0, 1), BuildingBlock: TEMPAE_clean_linker_10, # of connection points: 2
#     Edge 108, Type (0, 1), BuildingBlock: TEMPAE_clean_linker_10, # of connection points: 2
#     Edge 109, Type (0, 1), BuildingBlock: TEMPAE_clean_linker_10, # of connection points: 2
#     Edge 110, Type (0, 1), BuildingBlock: TEMPAE_clean_linker_10, # of connection points: 2
#     Edge 111, Type (0, 1), BuildingBlock: TEMPAE_clean_linker_10, # of connection points: 2
#     Edge 112, Type (0, 1), BuildingBlock: TEMPAE_clean_linker_10, # of connection points: 2
#     Edge 113, Type (0, 1), BuildingBlock: TEMPAE_clean_linker_10, # of connection points: 2
#     Edge 114, Type (0, 1), BuildingBlock: TEMPAE_clean_linker_10, # of connection points: 2
#     Edge 115, Type (0, 1), BuildingBlock: TEMPAE_clean_linker_10, # of connection points: 2
#     Edge 116, Type (0, 1), BuildingBlock: TEMPAE_clean_linker_10, # of connection points: 2
#     Edge 117, Type (0, 1), BuildingBlock: TEMPAE_clean_linker_10, # of connection points: 2
#     Edge 118, Type (0, 1), BuildingBlock: TEMPAE_clean_linker_10, # of connection points: 2
#     Edge 119, Type (0, 1), BuildingBlock: TEMPAE_clean_linker_10, # of connection points: 2
#     Edge 120, Type (0, 1), BuildingBlock: TEMPAE_clean_linker_10, # of connection points: 2
#     Edge 121, Type (0, 1), BuildingBlock: TEMPAE_clean_linker_10, # of connection points: 2
#     Edge 122, Type (0, 1), BuildingBlock: TEMPAE_clean_linker_10, # of connection points: 2
#     Edge 123, Type (0, 1), BuildingBlock: TEMPAE_clean_linker_10, # of connection points: 2
#     Edge 124, Type (0, 1), BuildingBlock: TEMPAE_clean_linker_10, # of connection points: 2
#     Edge 125, Type (0, 1), BuildingBlock: TEMPAE_clean_linker_10, # of connection points: 2
#     Edge 126, Type (0, 1), BuildingBlock: TEMPAE_clean_linker_10, # of connection points: 2
#     Edge 127, Type (0, 1), BuildingBlock: TEMPAE_clean_linker_10, # of connection points: 2
#     Edge 128, Type (0, 1), BuildingBlock: TEMPAE_clean_linker_10, # of connection points: 2
#     Edge 129, Type (0, 1), BuildingBlock: TEMPAE_clean_linker_10, # of connection points: 2
#     Edge 130, Type (0, 1), BuildingBlock: TEMPAE_clean_linker_10, # of connection points: 2
#     Edge 131, Type (0, 1), BuildingBlock: TEMPAE_clean_linker_10, # of connection points: 2
#     Edge 132, Type (0, 1), BuildingBlock: TEMPAE_clean_linker_10, # of connection points: 2
#     Edge 133, Type (0, 1), BuildingBlock: TEMPAE_clean_linker_10, # of connection points: 2
#     Edge 134, Type (0, 1), BuildingBlock: TEMPAE_clean_linker_10, # of connection points: 2
#     Edge 135, Type (0, 1), BuildingBlock: TEMPAE_clean_linker_10, # of connection points: 2
# Relax obj value: 0.220
# Max RMSD: 0.327
# Mean RMSD: 0.201
data_MOF--net-gar--node1-AZAVOO_clean_sbu_0--node2-BETFEN_clean_sbu_0--edge1-TEMPAE_clean_linker_10
_symmetry_space_group_name_H-M    P1
_symmetry_Int_Tables_number       1
_symmetry_cell_setting            triclinic
loop_
_symmetry_equiv_pos_as_xyz
'x, y, z'
_cell_length_a     65.642607
_cell_length_b     56.306795
_cell_length_c     57.594803
_cell_angle_alpha  97.254589
_cell_angle_beta   98.947362
_cell_angle_gamma 104.02206
loop_
_atom_site_label
_atom_site_type_symbol
_atom_site_fract_x
_atom_site_fract_y
_atom_site_fract_z
_atom_type_partial_charge
Mg0 Mg 0.02207 0.31129 0.39824 0.0
O1 O 0.02833 0.3499 0.42353 0.0
O2 O 1.00017 0.34507 0.44157 0.0
Mg3 Mg 0.97672 0.3063 0.42883 0.0
C4 C 0.01763 0.35858 0.43782 0.0
C5 C 0.05559 0.31196 0.36793 0.0
O6 O 0.03682 0.30248 0.35378 0.0
O7 O 0.02968 0.28932 0.42828 0.0
O8 O 0.99991 0.28405 0.44347 0.0
O9 O 0.00414 0.32503 0.36894 0.0
O10 O 0.98905 0.30591 0.39556 0.0
C11 C 0.01789 0.27944 0.44213 0.0
C12 C 0.98713 0.31696 0.37741 0.0
O13 O 0.0561 0.31889 0.39002 0.0
Mg14 Mg 0.07269 0.85669 0.6596 0.0
O15 O 0.06663 0.81785 0.63629 0.0
O16 O 0.03277 0.80798 0.61688 0.0
Mg17 Mg 0.01725 0.83962 0.62696 0.0
C18 C 0.05062 0.8027 0.62196 0.0
C19 C 0.11473 0.85999 0.69112 0.0
O20 O 0.10153 0.86294 0.70551 0.0
O21 O 0.07516 0.87901 0.62827 0.0
O22 O 0.04002 0.87139 0.61436 0.0
O23 O 0.05952 0.83973 0.68953 0.0
O24 O 0.03994 0.85145 0.66098 0.0
C25 C 0.05936 0.88362 0.61522 0.0
C26 C 0.04115 0.84229 0.68025 0.0
O27 O 0.10836 0.85849 0.66881 0.0
Mg28 Mg 0.52034 0.80923 0.89932 0.0
O29 O 0.52769 0.84765 0.92494 0.0
O30 O 0.50005 0.84395 0.94373 0.0
Mg31 Mg 0.47589 0.80565 0.93095 0.0
C32 C 0.51763 0.85683 0.93964 0.0
C33 C 0.55599 0.82055 0.87006 0.0
O34 O 0.53915 0.82276 0.8558 0.0
O35 O 0.52777 0.78674 0.92889 0.0
O36 O 0.49869 0.78279 0.94525 0.0
O37 O 0.50289 0.8245 0.87123 0.0
O38 O 0.48733 0.80445 0.897 0.0
C39 C 0.5163 0.77751 0.9433 0.0
C40 C 0.48574 0.81635 0.8794 0.0
O41 O 0.55426 0.81619 0.89096 0.0
Mg42 Mg 0.57068 0.35398 0.15919 0.0
O43 O 0.56452 0.31553 0.13507 0.0
O44 O 0.53248 0.30825 0.11189 0.0
Mg45 Mg 0.51682 0.33944 0.12346 0.0
C46 C 0.54953 0.30175 0.11847 0.0
C47 C 0.61239 0.35609 0.19171 0.0
O48 O 0.5989 0.35805 0.206 0.0
O49 O 0.57518 0.37757 0.129 0.0
O50 O 0.54065 0.37164 0.11289 0.0
O51 O 0.5556 0.33638 0.18772 0.0
O52 O 0.53786 0.34974 0.15892 0.0
C53 C 0.56038 0.38319 0.11523 0.0
C54 C 0.53783 0.34025 0.17805 0.0
O55 O 0.60612 0.35504 0.16946 0.0
Mg56 Mg 0.07951 0.86124 0.15621 0.0
O57 O 0.07528 0.82428 0.13155 0.0
O58 O 0.04236 0.81288 0.10927 0.0
Mg59 Mg 0.02369 0.84028 0.12105 0.0
C60 C 0.0608 0.80932 0.11524 0.0
C61 C 0.12118 0.85301 0.18451 0.0
O62 O 0.10543 0.84072 0.19342 0.0
O63 O 0.0805 0.88453 0.12455 0.0
O64 O 0.04538 0.87219 0.10888 0.0
O65 O 0.06491 0.84128 0.1843 0.0
O66 O 0.04597 0.85275 0.15517 0.0
C67 C 0.06405 0.88634 0.11009 0.0
C68 C 0.04646 0.84207 0.17345 0.0
O69 O 0.11653 0.86448 0.16741 0.0
Mg70 Mg 0.5137 0.80629 0.39887 0.0
O71 O 0.51638 0.84176 0.42537 0.0
O72 O 0.48678 0.83402 0.44095 0.0
Mg73 Mg 0.46541 0.79479 0.42492 0.0
C74 C 0.50449 0.84858 0.43905 0.0
C75 C 0.55546 0.83498 0.38307 0.0
O76 O 0.5412 0.84436 0.37161 0.0
O77 O 0.5214 0.78432 0.42912 0.0
O78 O 0.48987 0.77462 0.44061 0.0
O79 O 0.49593 0.8211 0.36958 0.0
O80 O 0.47987 0.79845 0.39325 0.0
C81 C 0.50894 0.77258 0.44137 0.0
C82 C 0.4784 0.81142 0.37648 0.0
O83 O 0.54943 0.81944 0.39653 0.0
Mg84 Mg 0.57901 0.36085 0.6578 0.0
O85 O 0.57516 0.32384 0.633 0.0
O86 O 0.54189 0.31237 0.61143 0.0
Mg87 Mg 0.52437 0.34179 0.62066 0.0
C88 C 0.56022 0.30857 0.61744 0.0
C89 C 0.62012 0.34566 0.67802 0.0
O90 O 0.60437 0.32603 0.67772 0.0
O91 O 0.58189 0.38433 0.62692 0.0
O92 O 0.54735 0.37326 0.60895 0.0
O93 O 0.5638 0.34071 0.68524 0.0
O94 O 0.54542 0.3526 0.65586 0.0
C95 C 0.56649 0.38663 0.61135 0.0
C96 C 0.54542 0.34168 0.67409 0.0
O97 O 0.61553 0.36419 0.66982 0.0
Mg98 Mg 0.01219 0.30632 0.9006 0.0
O99 O 0.0161 0.34138 0.92821 0.0
O100 O 0.98663 0.33492 0.94406 0.0
Mg101 Mg 0.96625 0.29511 0.92995 0.0
C102 C 0.00445 0.34885 0.94178 0.0
C103 C 0.05385 0.30799 0.88151 0.0
O104 O 0.04064 0.28733 0.86906 0.0
O105 O 0.02108 0.2834 0.92903 0.0
O106 O 0.99246 0.27705 0.94627 0.0
O107 O 0.99419 0.3228 0.8738 0.0
O108 O 0.97837 0.29815 0.89633 0.0
C109 C 0.01084 0.27399 0.94428 0.0
C110 C 0.97679 0.31251 0.88068 0.0
O111 O 0.04721 0.32062 0.89712 0.0
Mg112 Mg 0.47795 0.1999 0.32834 0.0
O113 O 0.45313 0.16359 0.32577 0.0
O114 O 0.44079 0.16114 0.35973 0.0
Mg115 Mg 0.45523 0.19965 0.38232 0.0
C116 C 0.44146 0.15196 0.33856 0.0
C117 C 0.49379 0.18455 0.28363 0.0
O118 O 0.512 0.19437 0.29873 0.0
O119 O 0.45086 0.21699 0.31999 0.0
O120 O 0.43664 0.21469 0.35273 0.0
O121 O 0.5018 0.18308 0.34512 0.0
O122 O 0.48358 0.20385 0.36551 0.0
C123 C 0.43647 0.21989 0.33174 0.0
C124 C 0.49601 0.18927 0.36496 0.0
O125 O 0.47654 0.1869 0.28963 0.0
Mg126 Mg 0.2785 0.21514 0.5042 0.0
O127 O 0.2822 0.24055 0.54032 0.0
O128 O 0.31514 0.26616 0.54929 0.0
Mg129 Mg 0.33402 0.2554 0.52081 0.0
C130 C 0.29664 0.25821 0.55422 0.0
C131 C 0.23457 0.19277 0.51928 0.0
O132 O 0.2489 0.19215 0.5377 0.0
O133 O 0.27866 0.24671 0.48057 0.0
O134 O 0.31379 0.2654 0.48928 0.0
O135 O 0.29107 0.18678 0.52292 0.0
O136 O 0.31187 0.21798 0.51141 0.0
C137 C 0.29524 0.26209 0.47657 0.0
C138 C 0.31019 0.19882 0.52161 0.0
O139 O 0.24122 0.20215 0.50183 0.0
Mg140 Mg 0.16845 0.0882 0.85037 0.0
O141 O 0.18662 0.12475 0.83942 0.0
O142 O 0.21121 0.1434 0.87248 0.0
Mg143 Mg 0.20959 0.12022 0.90202 0.0
C144 C 0.20224 0.14294 0.851 0.0
C145 C 0.15343 0.07006 0.79318 0.0
O146 O 0.14721 0.05171 0.77494 0.0
O147 O 0.19617 0.07529 0.84766 0.0
O148 O 0.2228 0.09288 0.87843 0.0
O149 O 0.14469 0.10534 0.86256 0.0
O150 O 0.17568 0.10545 0.88445 0.0
C151 C 0.21509 0.07837 0.85841 0.0
C152 C 0.15796 0.11167 0.8829 0.0
O153 O 0.15503 0.06499 0.81397 0.0
Mg154 Mg 0.3182 0.95421 0.0497 0.0
O155 O 0.31206 0.92992 0.01138 0.0
O156 O 0.33926 0.91243 0.01246 0.0
Mg157 Mg 0.3634 0.92668 0.04795 0.0
C158 C 0.32208 0.91586 1.00129 0.0
C159 C 0.28436 0.98139 0.05591 0.0
O160 O 0.303 0.99693 0.06584 0.0
O161 O 0.31046 0.92127 0.07029 0.0
O162 O 0.34126 0.91063 0.0725 0.0
O163 O 0.3377 0.98745 0.03723 0.0
O164 O 0.35115 0.95946 0.0525 0.0
C165 C 0.3234 0.90948 0.0791 0.0
C166 C 0.3543 0.97956 0.04372 0.0
O167 O 0.28407 0.95969 0.04605 0.0
Mg168 Mg 0.32302 0.45058 0.05179 0.0
O169 O 0.31812 0.42392 0.016 0.0
O170 O 0.34442 0.40507 0.01952 0.0
Mg171 Mg 0.3674 0.42143 0.05577 0.0
C172 C 0.3277 0.40861 0.00738 0.0
C173 C 0.28452 0.46938 0.02871 0.0
O174 O 0.30028 0.48167 0.01974 0.0
O175 O 0.31308 0.41911 0.07408 0.0
O176 O 0.34321 0.40703 0.07941 0.0
O177 O 0.3437 0.48178 0.03753 0.0
O178 O 0.35667 0.45556 0.05639 0.0
C179 C 0.32485 0.40684 0.08437 0.0
C180 C 0.36012 0.47413 0.04529 0.0
O181 O 0.28829 0.45418 0.04238 0.0
Mg182 Mg 0.78942 0.21407 0.01305 0.0
O183 O 0.79438 0.23622 0.05154 0.0
O184 O 0.82465 0.26612 0.05679 0.0
Mg185 Mg 0.84164 0.25818 0.02513 0.0
C186 C 0.80806 0.25535 0.0643 0.0
C187 C 0.74459 0.17689 0.00393 0.0
O188 O 0.7556 0.16349 0.99366 0.0
O189 O 0.78371 0.24559 0.99265 0.0
O190 O 0.81787 0.26629 0.99526 0.0
O191 O 0.80533 0.1858 0.02636 0.0
O192 O 0.8225 0.21895 0.01404 0.0
C193 C 0.79808 0.26132 0.98566 0.0
C194 C 0.823 0.1987 0.02185 0.0
O195 O 0.75394 0.19928 0.01362 0.0
Mg196 Mg 0.12381 0.4706 0.2337 0.0
O197 O 0.14983 0.50666 0.24707 0.0
O198 O 0.16166 0.50998 0.28634 0.0
Mg199 Mg 0.14232 0.47574 0.2983 0.0
C200 C 0.16206 0.51824 0.26673 0.0
C201 C 0.10568 0.4707 0.18301 0.0
O202 O 0.08989 0.45772 0.19149 0.0
O203 O 0.15043 0.45084 0.23584 0.0
O204 O 0.1586 0.4535 0.27549 0.0
O205 O 0.0996 0.49028 0.24145 0.0
O206 O 0.11689 0.4732 0.26793 0.0
C207 C 0.16101 0.4462 0.25449 0.0
C208 C 0.1049 0.48777 0.26337 0.0
O209 O 0.1244 0.47685 0.19569 0.0
Mg210 Mg 0.82209 0.95048 0.55016 0.0
O211 O 0.81688 0.92271 0.51524 0.0
O212 O 0.84143 0.90148 0.51883 0.0
Mg213 Mg 0.86368 0.91773 0.5557 0.0
C214 C 0.82545 0.90638 0.50663 0.0
C215 C 0.78093 0.9703 0.5502 0.0
O216 O 0.79284 0.98279 0.5706 0.0
O217 O 0.81117 0.92136 0.57457 0.0
O218 O 0.83867 0.90434 0.57911 0.0
O219 O 0.84339 0.97863 0.53402 0.0
O220 O 0.8556 0.95406 0.55616 0.0
C221 C 0.82096 0.90687 0.58425 0.0
C222 C 0.85952 0.97123 0.54333 0.0
O223 O 0.78804 0.95491 0.53783 0.0
Mg224 Mg 0.91815 0.06531 0.19718 0.0
O225 O 0.89884 0.02796 0.20414 0.0
O226 O 0.89275 0.03489 0.24136 0.0
Mg227 Mg 0.90823 0.0751 0.25811 0.0
C228 C 0.89092 0.02064 0.22169 0.0
C229 C 0.92173 0.0336 0.15373 0.0
O230 O 0.92458 0.01972 0.17002 0.0
O231 O 0.88859 0.07884 0.19231 0.0
O232 O 0.88486 0.08503 0.23041 0.0
O233 O 0.94863 0.05716 0.21165 0.0
O234 O 0.92997 0.0761 0.23303 0.0
C235 C 0.87879 0.08532 0.20836 0.0
C236 C 0.94564 0.06626 0.23222 0.0
O237 O 0.91298 0.05092 0.15831 0.0
Mg238 Mg 0.28674 0.71122 0.51046 0.0
O239 O 0.29214 0.73465 0.54852 0.0
O240 O 0.32311 0.76329 0.55372 0.0
Mg241 Mg 0.33801 0.75678 0.52022 0.0
C242 C 0.30652 0.75304 0.5615 0.0
C243 C 0.24361 0.67256 0.50833 0.0
O244 O 0.25598 0.65817 0.50348 0.0
O245 O 0.27993 0.74112 0.48878 0.0
O246 O 0.31275 0.76648 0.49277 0.0
O247 O 0.30415 0.68493 0.52524 0.0
O248 O 0.31954 0.717 0.5099 0.0
C249 C 0.29286 0.7595 0.4832 0.0
C250 C 0.32102 0.69758 0.5189 0.0
O251 O 0.25151 0.69599 0.51228 0.0
Mg252 Mg 0.41432 0.55773 0.69745 0.0
O253 O 0.39714 0.51722 0.69712 0.0
O254 O 0.38613 0.5179 0.73213 0.0
Mg255 Mg 0.39709 0.55609 0.75479 0.0
C256 C 0.38749 0.50652 0.71209 0.0
C257 C 0.43075 0.56927 0.65807 0.0
O258 O 0.43622 0.58817 0.67577 0.0
O259 O 0.38344 0.56841 0.6907 0.0
O260 O 0.37666 0.57083 0.72769 0.0
O261 O 0.44518 0.5523 0.71392 0.0
O262 O 0.42199 0.56417 0.73385 0.0
C263 C 0.37255 0.57384 0.70605 0.0
C264 C 0.43958 0.55797 0.73401 0.0
O265 O 0.41592 0.55047 0.659 0.0
Mg266 Mg 0.62488 0.97315 0.73472 0.0
O267 O 0.65108 0.00804 0.75204 0.0
O268 O 0.65695 0.01247 0.79193 0.0
Mg269 Mg 0.63677 0.9762 0.79967 0.0
C270 C 0.66071 0.02005 0.77266 0.0
C271 C 0.61463 0.97342 0.6817 0.0
O272 O 0.59929 0.95456 0.68412 0.0
O273 O 0.65068 0.95294 0.73945 0.0
O274 O 0.65687 0.9562 0.77934 0.0
O275 O 0.60119 0.99371 0.74039 0.0
O276 O 0.61384 0.97261 0.76668 0.0
C277 C 0.66067 0.94914 0.75888 0.0
C278 C 0.60344 0.98859 0.76173 0.0
O279 O 0.63033 0.98268 0.69893 0.0
Mg280 Mg 0.77817 0.71476 1.00195 0.0
O281 O 0.78344 0.74037 0.03869 0.0
O282 O 0.81707 0.76413 0.04636 0.0
Mg283 Mg 0.83372 0.75478 0.01536 0.0
C284 C 0.79895 0.75697 0.05244 0.0
C285 C 0.73505 0.69204 0.01893 0.0
O286 O 0.74984 0.69061 0.0365 0.0
O287 O 0.77723 0.74601 0.97824 0.0
O288 O 0.81189 0.76677 0.98626 0.0
O289 O 0.7916 0.68654 0.01989 0.0
O290 O 0.81152 0.71736 0.00691 0.0
C291 C 0.7929 0.76286 0.97438 0.0
C292 C 0.81041 0.69843 0.01742 0.0
O293 O 0.74112 0.70206 1.00153 0.0
Mg294 Mg 0.97936 0.70044 0.82246 0.0
O295 O 0.95738 0.66059 0.81265 0.0
O296 O 0.9441 0.65369 0.84553 0.0
Mg297 Mg 0.95444 0.68812 0.87385 0.0
C298 C 0.94607 0.64644 0.82427 0.0
C299 C 0.9784 0.69245 0.76285 0.0
O300 O 0.9792 0.70541 0.74542 0.0
O301 O 0.95018 0.71469 0.81721 0.0
O302 O 0.93484 0.70587 0.84815 0.0
O303 O 0.00582 0.68506 0.83796 0.0
O304 O 0.98306 0.69724 0.85808 0.0
C305 C 0.93504 0.71433 0.82863 0.0
C306 C 0.99804 0.68627 0.8573 0.0
O307 O 0.98054 0.70406 0.78384 0.0
Mg308 Mg 0.81695 0.45271 0.55032 0.0
O309 O 0.81074 0.42797 0.51233 0.0
O310 O 0.83908 0.41235 0.51359 0.0
Mg311 Mg 0.86336 0.42739 0.54892 0.0
C312 C 0.82148 0.41475 0.50234 0.0
C313 C 0.78261 0.47973 0.55277 0.0
O314 O 0.80088 0.49697 0.55711 0.0
O315 O 0.81019 0.41996 0.571 0.0
O316 O 0.84191 0.41138 0.57436 0.0
O317 O 0.83454 0.48588 0.53648 0.0
O318 O 0.84971 0.45898 0.55168 0.0
C319 C 0.82376 0.40936 0.58049 0.0
C320 C 0.85154 0.47843 0.54192 0.0
O321 O 0.78273 0.45706 0.5479 0.0
Mg322 Mg 0.68531 0.61571 0.36672 0.0
O323 O 0.68823 0.63829 0.33899 0.0
O324 O 0.71825 0.6461 0.3657 0.0
Mg325 Mg 0.71755 0.62286 0.39723 0.0
C326 C 0.70769 0.65026 0.34666 0.0
C327 C 0.64003 0.58307 0.33089 0.0
O328 O 0.6217 0.56634 0.32863 0.0
O329 O 0.69764 0.58823 0.34531 0.0
O330 O 0.72317 0.5895 0.37517 0.0
O331 O 0.67094 0.63578 0.39091 0.0
O332 O 0.68246 0.6027 0.39863 0.0
C333 C 0.7129 0.58011 0.35416 0.0
C334 C 0.6705 0.61741 0.40241 0.0
O335 O 0.65224 0.58994 0.35116 0.0
Pr336 Pr 0.02195 0.0697 0.01109 0.0
Pr337 Pr 0.07166 0.09479 0.03958 0.0
C338 C 0.97931 0.06341 0.99969 0.0
C339 C 0.96475 0.07969 0.99642 0.0
C340 C 0.94536 0.07116 0.97986 0.0
C341 C 0.93036 0.0852 0.97869 0.0
C342 C 0.93465 0.10819 0.99382 0.0
C343 C 0.95445 0.11725 0.00961 0.0
C344 C 0.96929 0.10308 0.01102 0.0
C345 C 0.05294 0.07906 0.98393 0.0
C346 C 0.04389 0.13315 0.02281 0.0
C347 C 0.11418 0.10034 0.05022 0.0
C348 C 0.12834 0.08358 0.05358 0.0
C349 C 0.14661 0.09068 0.07181 0.0
C350 C 0.16113 0.07603 0.07371 0.0
C351 C 0.15776 0.05408 0.05724 0.0
C352 C 0.13904 0.04653 0.03954 0.0
C353 C 0.12445 0.06102 0.0378 0.0
C354 C 0.04071 0.08528 0.06695 0.0
C355 C 0.05011 0.03158 0.02775 0.0
O356 O 0.98975 0.06557 0.02146 0.0
O357 O 0.99095 0.06067 0.98349 0.0
O358 O 0.05209 0.09212 1.0028 0.0
O359 O 0.03598 0.0602 0.97671 0.0
O360 O 0.06362 0.13127 0.02991 0.0
O361 O 0.0269 0.11353 0.01853 0.0
O362 O 0.10352 0.09812 0.02853 0.0
O363 O 0.10296 0.10394 0.06668 0.0
O364 O 0.0415 0.07236 0.04794 0.0
O365 O 0.05777 0.10401 0.07419 0.0
O366 O 0.0303 0.03312 0.02049 0.0
O367 O 0.06698 0.05126 0.0322 0.0
H368 H 0.9415 0.05324 0.9684 0.0
H369 H 0.91519 0.07787 0.96635 0.0
H370 H 0.95804 0.13481 0.02161 0.0
H371 H 0.98405 0.1101 0.02408 0.0
H372 H 0.14997 0.10793 0.08421 0.0
H373 H 0.17545 0.08242 0.08747 0.0
H374 H 0.13584 0.02957 0.02679 0.0
H375 H 0.11039 0.05484 0.02369 0.0
Pr376 Pr 0.3122 0.86389 0.29574 0.0
Pr377 Pr 0.28932 0.80643 0.26707 0.0
C378 C 0.34132 0.90569 0.31726 0.0
C379 C 0.34669 0.9311 0.31233 0.0
C380 C 0.33106 0.94421 0.30894 0.0
C381 C 0.33646 0.96801 0.30329 0.0
C382 C 0.35741 0.97878 0.30062 0.0
C383 C 0.37283 0.96537 0.30344 0.0
C384 C 0.36751 0.94175 0.30935 0.0
C385 C 0.26986 0.85903 0.27242 0.0
C386 C 0.3093 0.85078 0.23667 0.0
C387 C 0.26155 0.7645 0.24332 0.0
C388 C 0.25451 0.73923 0.24836 0.0
C389 C 0.25892 0.7194 0.23452 0.0
C390 C 0.25193 0.69528 0.239 0.0
C391 C 0.24028 0.69087 0.25715 0.0
C392 C 0.23633 0.71066 0.27136 0.0
C393 C 0.24351 0.73473 0.26713 0.0
C394 C 0.33173 0.81171 0.29068 0.0
C395 C 0.29168 0.81926 0.3257 0.0
O396 O 0.34537 0.88924 0.30165 0.0
O397 O 0.32314 0.8979 0.3244 0.0
O398 O 0.27988 0.84259 0.27302 0.0
O399 O 0.28195 0.87949 0.28582 0.0
O400 O 0.29752 0.82793 0.23605 0.0
O401 O 0.31792 0.8668 0.25676 0.0
O402 O 0.25584 0.78182 0.25621 0.0
O403 O 0.28122 0.77144 0.2397 0.0
O404 O 0.32159 0.82795 0.28949 0.0
O405 O 0.31935 0.79076 0.27854 0.0
O406 O 0.30539 0.84111 0.32658 0.0
O407 O 0.28137 0.80429 0.30542 0.0
H408 H 0.31474 0.93616 0.31068 0.0
H409 H 0.32438 0.97813 0.30128 0.0
H410 H 0.38921 0.97353 0.30192 0.0
H411 H 0.37969 0.93177 0.31164 0.0
H412 H 0.26749 0.72251 0.22007 0.0
H413 H 0.25491 0.68001 0.2278 0.0
H414 H 0.22733 0.7074 0.28544 0.0
H415 H 0.24012 0.74967 0.27835 0.0
Pr416 Pr 0.56999 0.08518 0.52792 0.0
Pr417 Pr 0.52218 0.07949 0.53124 0.0
C418 C 0.60997 0.08207 0.52483 0.0
C419 C 0.62361 0.06511 0.52105 0.0
C420 C 0.63778 0.0699 0.50527 0.0
C421 C 0.65215 0.05558 0.5024 0.0
C422 C 0.65275 0.03609 0.51532 0.0
C423 C 0.6379 0.03061 0.53042 0.0
C424 C 0.62345 0.04502 0.5333 0.0
C425 C 0.54706 0.10297 0.49276 0.0
C426 C 0.53442 0.0304 0.50822 0.0
C427 C 0.48173 0.08222 0.5324 0.0
C428 C 0.46718 0.0984 0.53455 0.0
C429 C 0.45009 0.09114 0.54628 0.0
C430 C 0.43535 0.1052 0.54798 0.0
C431 C 0.43731 0.12699 0.53798 0.0
C432 C 0.45472 0.13451 0.52651 0.0
C433 C 0.46955 0.12036 0.52484 0.0
C434 C 0.54538 0.06223 0.56693 0.0
C435 C 0.55804 0.13456 0.55041 0.0
O436 O 0.6034 0.08458 0.54509 0.0
O437 O 0.59577 0.08271 0.50651 0.0
O438 O 0.53975 0.08298 0.50005 0.0
O439 O 0.56685 0.11359 0.50263 0.0
O440 O 0.51884 0.04156 0.50704 0.0
O441 O 0.5543 0.04213 0.51872 0.0
O442 O 0.489 0.07932 0.5126 0.0
O443 O 0.49566 0.08271 0.55142 0.0
O444 O 0.5524 0.08201 0.55918 0.0
O445 O 0.52559 0.05134 0.55707 0.0
O446 O 0.57366 0.12343 0.55179 0.0
O447 O 0.53807 0.12249 0.54036 0.0
H448 H 0.63807 0.08519 0.49551 0.0
H449 H 0.6631 0.06007 0.49035 0.0
H450 H 0.63801 0.01584 0.54076 0.0
H451 H 0.61256 0.04082 0.54546 0.0
H452 H 0.44793 0.07424 0.55386 0.0
H453 H 0.42202 0.09854 0.55657 0.0
H454 H 0.45689 0.15131 0.51881 0.0
H455 H 0.48272 0.12645 0.51584 0.0
Pr456 Pr 0.27404 0.32915 0.77434 0.0
Pr457 Pr 0.3209 0.3251 0.78303 0.0
C458 C 0.23407 0.33294 0.77534 0.0
C459 C 0.22008 0.33687 0.79241 0.0
C460 C 0.21216 0.35792 0.79305 0.0
C461 C 0.19792 0.36155 0.80796 0.0
C462 C 0.19107 0.34402 0.8224 0.0
C463 C 0.19961 0.32334 0.82233 0.0
C464 C 0.21403 0.31983 0.80755 0.0
C465 C 0.30369 0.36673 0.76195 0.0
C466 C 0.30374 0.34546 0.82966 0.0
C467 C 0.36262 0.32932 0.78222 0.0
C468 C 0.37801 0.32575 0.76672 0.0
C469 C 0.39165 0.31081 0.7726 0.0
C470 C 0.40785 0.30901 0.75988 0.0
C471 C 0.41087 0.32226 0.74101 0.0
C472 C 0.39679 0.33671 0.73466 0.0
C473 C 0.3805 0.33843 0.74736 0.0
C474 C 0.2913 0.28518 0.79311 0.0
C475 C 0.29064 0.30701 0.7276 0.0
O476 O 0.2387 0.31153 0.77215 0.0
O477 O 0.25014 0.35188 0.77529 0.0
O478 O 0.30658 0.35793 0.78089 0.0
O479 O 0.28489 0.35651 0.74892 0.0
O480 O 0.32109 0.347 0.82039 0.0
O481 O 0.28438 0.33593 0.81638 0.0
O482 O 0.35363 0.34748 0.77991 0.0
O483 O 0.34984 0.30949 0.78683 0.0
O484 O 0.28809 0.29586 0.77544 0.0
O485 O 0.31078 0.29369 0.80523 0.0
O486 O 0.2733 0.30859 0.7361 0.0
O487 O 0.30992 0.31349 0.74135 0.0
H488 H 0.21672 0.37143 0.78167 0.0
H489 H 0.19198 0.37788 0.80783 0.0
H490 H 0.19453 0.30929 0.833 0.0
H491 H 0.22004 0.30355 0.80762 0.0
H492 H 0.39019 0.30104 0.78756 0.0
H493 H 0.41855 0.29799 0.76545 0.0
H494 H 0.39853 0.34693 0.72004 0.0
H495 H 0.37019 0.35009 0.74234 0.0
Pr496 Pr 0.03749 0.06741 0.5047 0.0
Pr497 Pr 0.05454 0.10189 0.55858 0.0
C498 C 0.01245 0.03989 0.46494 0.0
C499 C 0.01088 0.04357 0.44009 0.0
C500 C 0.0281 0.04348 0.4283 0.0
C501 C 0.02715 0.04935 0.40549 0.0
C502 C 0.0092 0.05576 0.39449 0.0
C503 C 0.99205 0.05601 0.40617 0.0
C504 C 0.99282 0.04975 0.42881 0.0
C505 C 0.08052 0.09522 0.51069 0.0
C506 C 0.03869 0.12777 0.5118 0.0
C507 C 0.0783 0.13218 0.59792 0.0
C508 C 0.08302 0.13127 0.62341 0.0
C509 C 0.08043 0.15024 0.64003 0.0
C510 C 0.0859 0.15021 0.66441 0.0
C511 C 0.09404 0.13119 0.67237 0.0
C512 C 0.096 0.11183 0.65563 0.0
C513 C 0.09041 0.11177 0.63137 0.0
C514 C 0.01131 0.07384 0.55191 0.0
C515 C 0.05491 0.04183 0.55082 0.0
O516 O 0.00613 0.05591 0.47877 0.0
O517 O 0.02998 0.03484 0.47487 0.0
O518 O 0.06805 0.09492 0.52525 0.0
O519 O 0.07062 0.07931 0.49146 0.0
O520 O 0.04946 0.13099 0.53392 0.0
O521 O 0.03067 0.10554 0.4982 0.0
O522 O 0.08599 0.1178 0.58386 0.0
O523 O 0.05883 0.13301 0.58926 0.0
O524 O 0.02402 0.07468 0.53767 0.0
O525 O 0.02126 0.089 0.57156 0.0
O526 O 0.04333 0.03848 0.52906 0.0
O527 O 0.06277 0.0641 0.56456 0.0
H528 H 0.04238 0.03911 0.43669 0.0
H529 H 0.04037 0.04889 0.39643 0.0
H530 H 0.97791 0.06052 0.39756 0.0
H531 H 0.97945 0.05009 0.43765 0.0
H532 H 0.0745 0.16527 0.63413 0.0
H533 H 0.08407 0.16518 0.67702 0.0
H534 H 0.10256 0.09711 0.66124 0.0
H535 H 0.09232 0.09673 0.61891 0.0
Pr536 Pr 0.29001 0.8063 0.78496 0.0
Pr537 Pr 0.30911 0.85755 0.77511 0.0
C538 C 0.27989 0.75744 0.78535 0.0
C539 C 0.29234 0.74041 0.77907 0.0
C540 C 0.28779 0.71645 0.78462 0.0
C541 C 0.30025 0.70069 0.77843 0.0
C542 C 0.3172 0.709 0.76673 0.0
C543 C 0.32231 0.7334 0.76232 0.0
C544 C 0.30983 0.74895 0.76827 0.0
C545 C 0.29003 0.84213 0.82367 0.0
C546 C 0.343 0.82954 0.79755 0.0
C547 C 0.32204 0.90648 0.77452 0.0
C548 C 0.31284 0.92693 0.78098 0.0
C549 C 0.30879 0.942 0.76415 0.0
C550 C 0.29653 0.95856 0.76825 0.0
C551 C 0.28834 0.96029 0.78932 0.0
C552 C 0.29293 0.94564 0.80639 0.0
C553 C 0.30496 0.92897 0.80219 0.0
C554 C 0.3077 0.82453 0.73315 0.0
C555 C 0.25696 0.83613 0.76334 0.0
O556 O 0.27205 0.767 0.76758 0.0
O557 O 0.28912 0.77389 0.8045 0.0
O558 O 0.30473 0.84375 0.81135 0.0
O559 O 0.27525 0.82139 0.81608 0.0
O560 O 0.34047 0.85129 0.794 0.0
O561 O 0.32685 0.80933 0.79271 0.0
O562 O 0.32969 0.89622 0.79187 0.0
O563 O 0.31049 0.89033 0.7561 0.0
O564 O 0.30141 0.81807 0.75165 0.0
O565 O 0.31598 0.84818 0.73667 0.0
O566 O 0.25976 0.81382 0.76362 0.0
O567 O 0.27293 0.85616 0.77141 0.0
H568 H 0.27444 0.70986 0.7932 0.0
H569 H 0.29602 0.68173 0.78165 0.0
H570 H 0.33533 0.74 0.75324 0.0
H571 H 0.31352 0.76747 0.76391 0.0
H572 H 0.31441 0.94025 0.74745 0.0
H573 H 0.29307 0.96956 0.75476 0.0
H574 H 0.28717 0.94701 0.82302 0.0
H575 H 0.30753 0.9172 0.81525 0.0
Pr576 Pr 0.55819 0.07906 0.05546 0.0
Pr577 Pr 0.54084 0.08759 1.00171 0.0
C578 C 0.56728 0.08254 0.10283 0.0
C579 C 0.55439 0.08533 0.12113 0.0
C580 C 0.54959 0.06653 0.13486 0.0
C581 C 0.53519 0.06722 0.15021 0.0
C582 C 0.52546 0.08684 0.15217 0.0
C583 C 0.53055 0.10578 0.13858 0.0
C584 C 0.54474 0.10495 0.1231 0.0
C585 C 0.55543 0.03631 0.02256 0.0
C586 C 0.5054 0.06542 0.03341 0.0
C587 C 0.53048 0.08408 0.95445 0.0
C588 C 0.5421 0.08083 0.93513 0.0
C589 C 0.54297 0.09717 0.91866 0.0
C590 C 0.55529 0.0957 0.90118 0.0
C591 C 0.5668 0.07771 0.89985 0.0
C592 C 0.56619 0.06164 0.91668 0.0
C593 C 0.55405 0.06329 0.9343 0.0
C594 C 0.5446 0.13047 0.03513 0.0
C595 C 0.59346 0.10064 0.02282 0.0
O596 O 0.57335 0.1016 0.09213 0.0
O597 O 0.56044 0.06129 0.08824 0.0
O598 O 0.55087 0.05596 0.01769 0.0
O599 O 0.5628 0.03924 0.04524 0.0
O600 O 0.50903 0.06808 0.01188 0.0
O601 O 0.52083 0.07095 0.05261 0.0
O602 O 0.52477 0.06509 0.96531 0.0
O603 O 0.53823 0.10532 0.96894 0.0
O604 O 0.54836 0.11033 0.03936 0.0
O605 O 0.53801 0.12847 0.0124 0.0
O606 O 0.59024 0.09831 0.04465 0.0
O607 O 0.57773 0.09491 0.00395 0.0
H608 H 0.55664 0.05101 0.13328 0.0
H609 H 0.53158 0.05237 0.16042 0.0
H610 H 0.52386 0.12158 0.14017 0.0
H611 H 0.54792 0.11955 0.11253 0.0
H612 H 0.53424 0.11122 0.91947 0.0
H613 H 0.55564 0.10845 0.88857 0.0
H614 H 0.5746 0.04729 0.91585 0.0
H615 H 0.554 0.05084 0.9472 0.0
Pr616 Pr 0.28221 0.31777 0.27328 0.0
Pr617 Pr 0.32465 0.35546 0.28742 0.0
C618 C 0.24139 0.29126 0.27092 0.0
C619 C 0.2223 0.29564 0.27936 0.0
C620 C 0.20246 0.27807 0.27132 0.0
C621 C 0.18439 0.28137 0.28001 0.0
C622 C 0.18581 0.30238 0.29692 0.0
C623 C 0.20567 0.32031 0.30446 0.0
C624 C 0.22376 0.31693 0.2958 0.0
C625 C 0.29727 0.33508 0.23382 0.0
C626 C 0.28458 0.37715 0.2877 0.0
C627 C 0.3662 0.38033 0.29144 0.0
C628 C 0.38441 0.37524 0.28143 0.0
C629 C 0.40546 0.3878 0.2928 0.0
C630 C 0.42283 0.38256 0.28377 0.0
C631 C 0.41945 0.36446 0.2633 0.0
C632 C 0.39828 0.35182 0.25206 0.0
C633 C 0.38096 0.35726 0.26096 0.0
C634 C 0.3084 0.33793 0.32646 0.0
C635 C 0.323 0.29769 0.26975 0.0
O636 O 0.25739 0.29092 0.28736 0.0
O637 O 0.24754 0.30314 0.25409 0.0
O638 O 0.29835 0.34846 0.2536 0.0
O639 O 0.28839 0.31179 0.23405 0.0
O640 O 0.30416 0.38329 0.28374 0.0
O641 O 0.27564 0.35444 0.29075 0.0
O642 O 0.35059 0.38402 0.2765 0.0
O643 O 0.35935 0.3663 0.30652 0.0
O644 O 0.30813 0.32474 0.30691 0.0
O645 O 0.31758 0.36119 0.32648 0.0
O646 O 0.30395 0.29072 0.27517 0.0
O647 O 0.33044 0.3205 0.26621 0.0
H648 H 0.20099 0.26161 0.25852 0.0
H649 H 0.16929 0.26742 0.27352 0.0
H650 H 0.20739 0.33661 0.31756 0.0
H651 H 0.23894 0.33073 0.30226 0.0
H652 H 0.40847 0.40163 0.30871 0.0
H653 H 0.43891 0.39249 0.29296 0.0
H654 H 0.39507 0.33801 0.23611 0.0
H655 H 0.36485 0.34734 0.25186 0.0
Pr656 Pr 0.53807 0.56762 0.00703 0.0
Pr657 Pr 0.55639 0.60161 0.06143 0.0
C658 C 0.5125 0.54022 0.96751 0.0
C659 C 0.5103 0.54389 0.9427 0.0
C660 C 0.52784 0.54654 0.93108 0.0
C661 C 0.5261 0.55277 0.90839 0.0
C662 C 0.507 0.55683 0.89739 0.0
C663 C 0.48951 0.55428 0.90894 0.0
C664 C 0.49111 0.54766 0.93144 0.0
C665 C 0.58114 0.59522 0.01261 0.0
C666 C 0.53855 0.62793 0.01577 0.0
C667 C 0.58265 0.62985 0.10055 0.0
C668 C 0.59124 0.62619 0.12462 0.0
C669 C 0.5825 0.6337 0.14416 0.0
C670 C 0.59064 0.63015 0.16693 0.0
C671 C 0.60779 0.61937 0.17048 0.0
C672 C 0.61653 0.61186 0.15103 0.0
C673 C 0.60831 0.6152 0.12828 0.0
C674 C 0.51334 0.573 0.05539 0.0
C675 C 0.55617 0.5415 0.0523 0.0
O676 O 0.50653 0.55636 0.98155 0.0
O677 O 0.53022 0.53522 0.97693 0.0
O678 O 0.56884 0.59471 0.02736 0.0
O679 O 0.57094 0.57967 0.99324 0.0
O680 O 0.54943 0.63112 0.0379 0.0
O681 O 0.53098 0.60586 1.00177 0.0
O682 O 0.58941 0.61894 0.08292 0.0
O683 O 0.56223 0.62898 0.09563 0.0
O684 O 0.52563 0.57485 0.04068 0.0
O685 O 0.52378 0.58708 0.07549 0.0
O686 O 0.54381 0.5383 0.03102 0.0
O687 O 0.5648 0.5637 0.06591 0.0
H688 H 0.54297 0.54416 0.93957 0.0
H689 H 0.53962 0.5545 0.89946 0.0
H690 H 0.47451 0.55693 0.90036 0.0
H691 H 0.47751 0.54594 0.94025 0.0
H692 H 0.56942 0.64233 0.14186 0.0
H693 H 0.58377 0.63616 0.18182 0.0
H694 H 0.62962 0.60326 0.15343 0.0
H695 H 0.61542 0.60917 0.11361 0.0
Pr696 Pr 0.78923 0.30632 0.28506 0.0
Pr697 Pr 0.81023 0.36102 0.27675 0.0
C698 C 0.77755 0.25713 0.28338 0.0
C699 C 0.79007 0.2392 0.28222 0.0
C700 C 0.78113 0.21455 0.28421 0.0
C701 C 0.79259 0.19706 0.2804 0.0
C702 C 0.81301 0.20443 0.27488 0.0
C703 C 0.82271 0.2295 0.27522 0.0
C704 C 0.81117 0.24683 0.27869 0.0
C705 C 0.78991 0.33887 0.32641 0.0
C706 C 0.84276 0.33061 0.29949 0.0
C707 C 0.8207 0.41031 0.27958 0.0
C708 C 0.80766 0.42772 0.28286 0.0
C709 C 0.80635 0.44431 0.26685 0.0
C710 C 0.79147 0.45825 0.26723 0.0
C711 C 0.77777 0.45591 0.28378 0.0
C712 C 0.77928 0.43939 0.29995 0.0
C713 C 0.79396 0.42527 0.29937 0.0
C714 C 0.80878 0.32729 0.23537 0.0
C715 C 0.75706 0.33727 0.26267 0.0
O716 O 0.77474 0.26742 0.26435 0.0
O717 O 0.78304 0.27299 0.30328 0.0
O718 O 0.79675 0.34556 0.30811 0.0
O719 O 0.78082 0.31529 0.32227 0.0
O720 O 0.84079 0.35262 0.29571 0.0
O721 O 0.82627 0.31064 0.29488 0.0
O722 O 0.82593 0.39966 0.29777 0.0
O723 O 0.81433 0.39496 0.25929 0.0
O724 O 0.80246 0.32194 0.25421 0.0
O725 O 0.81711 0.35101 0.2381 0.0
O726 O 0.75913 0.31492 0.26491 0.0
O727 O 0.77336 0.35739 0.26888 0.0
H728 H 0.76496 0.20863 0.28734 0.0
H729 H 0.7849 0.17759 0.27976 0.0
H730 H 0.83831 0.23526 0.2705 0.0
H731 H 0.81824 0.26584 0.27711 0.0
H732 H 0.8164 0.44591 0.25357 0.0
H733 H 0.79053 0.47063 0.2544 0.0
H734 H 0.76928 0.43753 0.31326 0.0
H735 H 0.79429 0.41211 0.31154 0.0
Pr736 Pr 0.05474 0.57943 0.55766 0.0
Pr737 Pr 0.039 0.58821 0.50386 0.0
C738 C 0.06286 0.58225 0.6053 0.0
C739 C 0.05067 0.58456 0.62433 0.0
C740 C 0.05779 0.57891 0.64668 0.0
C741 C 0.0463 0.58121 0.66498 0.0
C742 C 0.02755 0.58908 0.66097 0.0
C743 C 0.02004 0.59388 0.63833 0.0
C744 C 0.03147 0.59149 0.62005 0.0
C745 C 0.05262 0.53663 0.52493 0.0
C746 C 1.00228 0.56538 0.53362 0.0
C747 C 0.02991 0.58617 0.45665 0.0
C748 C 0.04163 0.58217 0.43777 0.0
C749 C 0.03595 0.58932 0.41581 0.0
C750 C 0.04744 0.58584 0.39784 0.0
C751 C 0.06461 0.57516 0.40183 0.0
C752 C 0.07089 0.56918 0.42429 0.0
C753 C 0.05947 0.57273 0.44222 0.0
C754 C 0.04133 0.63105 0.53637 0.0
C755 C 0.09132 0.60043 0.52638 0.0
O756 O 0.06815 0.60164 0.59486 0.0
O757 O 0.05591 0.56128 0.59035 0.0
O758 O 0.04835 0.55636 0.51989 0.0
O759 O 0.05938 0.53952 0.54773 0.0
O760 O 0.00659 0.56856 0.51245 0.0
O761 O 0.01727 0.57044 0.55317 0.0
O762 O 0.02312 0.56702 0.46692 0.0
O763 O 0.03875 0.60687 0.47166 0.0
O764 O 0.04555 0.61137 0.5416 0.0
O765 O 0.03461 0.62808 0.51361 0.0
O766 O 0.08745 0.59857 0.54807 0.0
O767 O 0.07594 0.59473 0.50719 0.0
H768 H 0.07244 0.57319 0.6501 0.0
H769 H 0.05249 0.57789 0.68248 0.0
H770 H 0.00575 0.60033 0.63509 0.0
H771 H 0.02558 0.59554 0.60275 0.0
H772 H 0.02247 0.59717 0.41247 0.0
H773 H 0.04228 0.59033 0.38051 0.0
H774 H 0.08417 0.56098 0.42764 0.0
H775 H 0.06432 0.56773 0.45939 0.0
Pr776 Pr 0.77551 0.82982 0.27252 0.0
Pr777 Pr 0.82416 0.8331 0.28085 0.0
C778 C 0.73393 0.82304 0.27523 0.0
C779 C 0.72022 0.82851 0.29232 0.0
C780 C 0.71316 0.85025 0.29314 0.0
C781 C 0.69848 0.8542 0.30744 0.0
C782 C 0.69034 0.83634 0.32098 0.0
C783 C 0.69795 0.81505 0.32084 0.0
C784 C 0.71275 0.81118 0.30671 0.0
C785 C 0.8016 0.87251 0.2631 0.0
C786 C 0.80578 0.84974 0.32802 0.0
C787 C 0.86599 0.84068 0.27895 0.0
C788 C 0.8805 0.83432 0.26327 0.0
C789 C 0.88591 0.81156 0.26238 0.0
C790 C 0.90114 0.8067 0.24927 0.0
C791 C 0.91139 0.82452 0.23681 0.0
C792 C 0.90555 0.84701 0.23724 0.0
C793 C 0.89033 0.85185 0.25033 0.0
C794 C 0.79767 0.78938 0.288 0.0
C795 C 0.79367 0.8121 0.22551 0.0
O796 O 0.74434 0.80632 0.27903 0.0
O797 O 0.74487 0.84176 0.26703 0.0
O798 O 0.80572 0.86252 0.28101 0.0
O799 O 0.78305 0.86109 0.24985 0.0
O800 O 0.82327 0.85299 0.31875 0.0
O801 O 0.78659 0.83933 0.31455 0.0
O802 O 0.85482 0.85598 0.27256 0.0
O803 O 0.85551 0.82301 0.28875 0.0
O804 O 0.79404 0.80052 0.27094 0.0
O805 O 0.81576 0.80051 0.3023 0.0
O806 O 0.77611 0.80965 0.23458 0.0
O807 O 0.81302 0.82219 0.23878 0.0
H808 H 0.71845 0.8639 0.28216 0.0
H809 H 0.69272 0.87065 0.30704 0.0
H810 H 0.69201 0.80105 0.33123 0.0
H811 H 0.71782 0.79424 0.30654 0.0
H812 H 0.87873 0.79764 0.27222 0.0
H813 H 0.90508 0.78909 0.24914 0.0
H814 H 0.91334 0.86135 0.22821 0.0
H815 H 0.8867 0.86967 0.25084 0.0
Pr816 Pr 0.80918 0.36403 0.79661 0.0
Pr817 Pr 0.7895 0.3056 0.76757 0.0
C818 C 0.83714 0.40742 0.81632 0.0
C819 C 0.84497 0.43044 0.80715 0.0
C820 C 0.84409 0.45317 0.81942 0.0
C821 C 0.85201 0.47517 0.81114 0.0
C822 C 0.86107 0.47472 0.79056 0.0
C823 C 0.8614 0.45191 0.77792 0.0
C824 C 0.85326 0.42991 0.78602 0.0
C825 C 0.76658 0.35489 0.77243 0.0
C826 C 0.80761 0.35095 0.73751 0.0
C827 C 0.76256 0.26265 0.74453 0.0
C828 C 0.75607 0.23691 0.74882 0.0
C829 C 0.76818 0.22002 0.74394 0.0
C830 C 0.7615 0.1956 0.74789 0.0
C831 C 0.74258 0.18783 0.75648 0.0
C832 C 0.73067 0.20469 0.76163 0.0
C833 C 0.73733 0.229 0.75781 0.0
C834 C 0.83197 0.31379 0.79161 0.0
C835 C 0.79012 0.31913 0.82668 0.0
O836 O 0.84291 0.38807 0.80725 0.0
O837 O 0.81718 0.40223 0.81921 0.0
O838 O 0.77846 0.34043 0.77304 0.0
O839 O 0.77676 0.37583 0.78639 0.0
O840 O 0.79739 0.32739 0.73664 0.0
O841 O 0.81457 0.36739 0.75755 0.0
O842 O 0.75663 0.27922 0.75818 0.0
O843 O 0.78191 0.27069 0.74026 0.0
O844 O 0.8208 0.32914 0.79089 0.0
O845 O 0.82085 0.2927 0.77854 0.0
O846 O 0.80141 0.34236 0.82761 0.0
O847 O 0.78249 0.30293 0.80641 0.0
H848 H 0.83761 0.45394 0.83561 0.0
H849 H 0.85187 0.49264 0.82136 0.0
H850 H 0.86829 0.45117 0.76201 0.0
H851 H 0.8538 0.41257 0.77591 0.0
H852 H 0.78265 0.22555 0.73689 0.0
H853 H 0.77073 0.18264 0.74365 0.0
H854 H 0.71603 0.1989 0.76833 0.0
H855 H 0.72765 0.24154 0.76169 0.0
Pr856 Pr 0.77771 0.8138 0.77181 0.0
Pr857 Pr 0.82627 0.85725 0.7865 0.0
C858 C 0.73941 0.78628 0.77636 0.0
C859 C 0.72056 0.79167 0.78489 0.0
C860 C 0.70124 0.78778 0.76867 0.0
C861 C 0.68339 0.79313 0.77635 0.0
C862 C 0.68442 0.80239 0.80048 0.0
C863 C 0.7038 0.80636 0.81669 0.0
C864 C 0.72166 0.8011 0.809 0.0
C865 C 0.79222 0.83164 0.73178 0.0
C866 C 0.78225 0.87539 0.78237 0.0
C867 C 0.86549 0.88427 0.7842 0.0
C868 C 0.88396 0.87929 0.77438 0.0
C869 C 0.90194 0.87694 0.78981 0.0
C870 C 0.91922 0.87153 0.78082 0.0
C871 C 0.91903 0.86863 0.7562 0.0
C872 C 0.90114 0.87116 0.74075 0.0
C873 C 0.88377 0.87637 0.74972 0.0
C874 C 0.8104 0.83984 0.82632 0.0
C875 C 0.82226 0.79651 0.77487 0.0
O876 O 0.75691 0.78972 0.79233 0.0
O877 O 0.74309 0.79346 0.75629 0.0
O878 O 0.80209 0.83578 0.75316 0.0
O879 O 0.7738 0.8157 0.73031 0.0
O880 O 0.80304 0.88231 0.78257 0.0
O881 O 0.77093 0.8523 0.78189 0.0
O882 O 0.84823 0.88397 0.76904 0.0
O883 O 0.86125 0.874 0.8027 0.0
O884 O 0.80174 0.83512 0.80463 0.0
O885 O 0.8289 0.85578 0.82844 0.0
O886 O 0.80164 0.78925 0.77561 0.0
O887 O 0.83262 0.81942 0.77352 0.0
H888 H 0.69995 0.78064 0.74998 0.0
H889 H 0.6688 0.79013 0.76335 0.0
H890 H 0.70508 0.81312 0.83546 0.0
H891 H 0.73629 0.80439 0.82202 0.0
H892 H 0.90264 0.87922 0.80891 0.0
H893 H 0.93288 0.86995 0.79317 0.0
H894 H 0.90046 0.86881 0.72166 0.0
H895 H 0.87019 0.87798 0.73729 0.0
Pr896 Pr 0.52143 0.56826 0.51399 0.0
Pr897 Pr 0.57195 0.59257 0.53232 0.0
C898 C 0.47888 0.56149 0.509 0.0
C899 C 0.46381 0.5772 0.50587 0.0
C900 C 0.44557 0.56938 0.48759 0.0
C901 C 0.43078 0.58361 0.48509 0.0
C902 C 0.43384 0.60597 0.50094 0.0
C903 C 0.45241 0.61394 0.51892 0.0
C904 C 0.46723 0.59984 0.52128 0.0
C905 C 0.54638 0.56915 0.48011 0.0
C906 C 0.54427 0.63054 0.51635 0.0
C907 C 0.61436 0.59833 0.53842 0.0
C908 C 0.62899 0.58236 0.54346 0.0
C909 C 0.63605 0.57869 0.56677 0.0
C910 C 0.65003 0.56368 0.57096 0.0
C911 C 0.65741 0.5522 0.55197 0.0
C912 C 0.65021 0.55594 0.52873 0.0
C913 C 0.63608 0.57055 0.52456 0.0
C914 C 0.54669 0.58924 0.5663 0.0
C915 C 0.55034 0.53039 0.52892 0.0
O916 O 0.49182 0.56597 0.52978 0.0
O917 O 0.48804 0.55646 0.49098 0.0
O918 O 0.54842 0.5862 0.49721 0.0
O919 O 0.52992 0.55025 0.47879 0.0
O920 O 0.5637 0.62719 0.5192 0.0
O921 O 0.52704 0.61244 0.51685 0.0
O922 O 0.60166 0.59237 0.51741 0.0
O923 O 0.60514 0.60573 0.5556 0.0
O924 O 0.54506 0.57335 0.54849 0.0
O925 O 0.56275 0.60874 0.5681 0.0
O926 O 0.53052 0.53282 0.52529 0.0
O927 O 0.56715 0.54911 0.52899 0.0
H928 H 0.44264 0.5521 0.47537 0.0
H929 H 0.41691 0.57702 0.47076 0.0
H930 H 0.45527 0.63077 0.53173 0.0
H931 H 0.48121 0.60651 0.53548 0.0
H932 H 0.63081 0.58737 0.58178 0.0
H933 H 0.65497 0.56105 0.58907 0.0
H934 H 0.65579 0.54799 0.51363 0.0
H935 H 0.63075 0.57264 0.50639 0.0
Pr936 Pr 0.07208 0.58664 0.02667 0.0
Pr937 Pr 0.02378 0.58041 0.02852 0.0
C938 C 0.11214 0.58195 0.02773 0.0
C939 C 0.12478 0.56355 0.02492 0.0
C940 C 0.13457 0.56154 0.00497 0.0
C941 C 0.14852 0.54641 0.00322 0.0
C942 C 0.15317 0.5331 0.02152 0.0
C943 C 0.14275 0.53438 0.04106 0.0
C944 C 0.1287 0.54941 0.04275 0.0
C945 C 0.05047 0.60667 0.99241 0.0
C946 C 0.036 0.53205 0.00373 0.0
C947 C 0.98322 0.58401 0.02674 0.0
C948 C 0.96919 0.60061 0.03067 0.0
C949 C 0.95217 0.59294 0.04243 0.0
C950 C 0.93733 0.60686 0.04455 0.0
C951 C 0.9391 0.62886 0.03491 0.0
C952 C 0.9566 0.63694 0.02374 0.0
C953 C 0.97149 0.62297 0.02164 0.0
C954 C 0.04639 0.56155 0.06324 0.0
C955 C 0.05988 0.63502 0.05205 0.0
O956 O 0.10373 0.58405 0.04686 0.0
O957 O 0.09998 0.5847 0.00853 0.0
O958 O 0.0427 0.58595 0.99832 0.0
O959 O 0.07013 0.61678 0.00329 0.0
O960 O 0.02011 0.54246 0.0046 0.0
O961 O 0.05613 0.54407 0.01281 0.0
O962 O 0.99294 0.5854 0.00854 0.0
O963 O 0.99463 0.57939 0.04551 0.0
O964 O 0.05334 0.58196 0.05663 0.0
O965 O 0.02669 0.55065 0.05297 0.0
O966 O 0.07592 0.62505 0.05001 0.0
O967 O 0.03965 0.62262 0.04386 0.0
H968 H 0.132 0.57236 0.99104 0.0
H969 H 0.15644 0.54604 0.98807 0.0
H970 H 0.14584 0.52414 0.05533 0.0
H971 H 0.12144 0.55048 0.05835 0.0
H972 H 0.94997 0.5757 0.04943 0.0
H973 H 0.92398 0.59982 0.05297 0.0
H974 H 0.95866 0.65395 0.01638 0.0
H975 H 0.98453 0.62942 0.01257 0.0
C976 C 0.01756 0.25694 0.98222 0.0
C977 C 0.01923 0.25669 0.95822 0.0
C978 C 0.02358 0.23906 0.99487 0.0
C979 C 0.0305 0.2197 0.98297 0.0
C980 C 0.03247 0.21958 0.95877 0.0
C981 C 0.02721 0.23832 0.94686 0.0
C982 C 0.022 0.24053 0.02084 0.0
C983 C 0.03904 0.19893 0.94505 0.0
C984 C 0.05777 0.1775 0.01652 0.0
C985 C 0.04052 0.15672 0.01549 0.0
C986 C 0.05473 0.19843 0.00667 0.0
C987 C 0.034 0.19852 0.99515 0.0
C988 C 0.0165 0.17783 0.99454 0.0
C989 C 0.01994 0.15743 0.00481 0.0
C990 C 0.07379 0.22024 0.00814 0.0
C991 C 0.99414 0.17674 0.98221 0.0
H992 H 0.01146 0.27113 0.99109 0.0
H993 H 0.02826 0.23782 0.92821 0.0
H994 H 0.00888 0.22484 0.02299 0.0
H995 H 0.03705 0.23888 0.03151 0.0
H996 H 0.01884 0.25819 0.02821 0.0
H997 H 0.04061 0.202 0.92666 0.0
H998 H 0.05451 0.19712 0.95447 0.0
H999 H 0.02694 0.18101 0.94392 0.0
H1000 H 0.07377 0.17723 0.02453 0.0
H1001 H 0.00643 0.14156 0.00363 0.0
H1002 H 0.07035 0.23773 0.01546 0.0
H1003 H 0.07706 0.22194 0.99002 0.0
H1004 H 0.08843 0.21834 0.01949 0.0
H1005 H 0.98903 0.19277 0.99021 0.0
H1006 H 0.98223 0.15936 0.98338 0.0
H1007 H 0.99395 0.17798 0.9631 0.0
C1008 C 0.1611 0.86126 0.18425 0.0
C1009 C 0.1436 0.85338 0.19529 0.0
C1010 C 0.18198 0.86091 0.19488 0.0
C1011 C 0.18556 0.85287 0.21723 0.0
C1012 C 0.16789 0.84479 0.22827 0.0
C1013 C 0.14731 0.84504 0.2172 0.0
C1014 C 0.20029 0.86934 0.18232 0.0
C1015 C 0.17076 0.83633 0.25215 0.0
C1016 C 0.23678 0.83524 0.24172 0.0
C1017 C 0.24836 0.85683 0.25788 0.0
C1018 C 0.21659 0.83381 0.22786 0.0
C1019 C 0.20779 0.8545 0.23011 0.0
C1020 C 0.21965 0.87641 0.24619 0.0
C1021 C 0.23966 0.87728 0.25978 0.0
C1022 C 0.20457 0.81006 0.211 0.0
C1023 C 0.21101 0.89889 0.24944 0.0
H1024 H 0.15847 0.86752 0.16728 0.0
H1025 H 0.13405 0.83894 0.22607 0.0
H1026 H 0.21201 0.8861 0.19335 0.0
H1027 H 0.20881 0.85467 0.18003 0.0
H1028 H 0.19484 0.87377 0.16453 0.0
H1029 H 0.15531 0.82965 0.25795 0.0
H1030 H 0.17881 0.82114 0.25136 0.0
H1031 H 0.18118 0.85193 0.26592 0.0
H1032 H 0.2435 0.81949 0.23985 0.0
H1033 H 0.24852 0.89414 0.27208 0.0
H1034 H 0.2005 0.81401 0.19271 0.0
H1035 H 0.18928 0.80195 0.21651 0.0
H1036 H 0.21392 0.79605 0.21049 0.0
H1037 H 0.20697 0.90473 0.232 0.0
H1038 H 0.22258 0.91487 0.26184 0.0
H1039 H 0.19605 0.89414 0.25658 0.0
C1040 C 0.53054 0.8909 0.45284 0.0
C1041 C 0.51005 0.87496 0.45103 0.0
C1042 C 0.53522 0.91633 0.46246 0.0
C1043 C 0.51897 0.92612 0.47017 0.0
C1044 C 0.49835 0.9101 0.46853 0.0
C1045 C 0.4942 0.88478 0.45916 0.0
C1046 C 0.55746 0.93278 0.46408 0.0
C1047 C 0.48051 0.91979 0.4763 0.0
C1048 C 0.53424 0.98731 0.51357 0.0
C1049 C 0.5297 0.00378 0.49851 0.0
C1050 C 0.53079 0.96198 0.50461 0.0
C1051 C 0.52333 0.95313 0.47985 0.0
C1052 C 0.51919 0.96993 0.46449 0.0
C1053 C 0.5221 0.99504 0.47409 0.0
C1054 C 0.53494 0.94467 0.52168 0.0
C1055 C 0.51184 0.96141 0.43792 0.0
H1056 H 0.5429 0.88355 0.44658 0.0
H1057 H 0.47823 0.87278 0.45759 0.0
H1058 H 0.55672 0.94795 0.45368 0.0
H1059 H 0.5645 0.94162 0.48288 0.0
H1060 H 0.5683 0.92235 0.4573 0.0
H1061 H 0.46546 0.90483 0.47427 0.0
H1062 H 0.48539 0.929 0.49526 0.0
H1063 H 0.47719 0.93395 0.46559 0.0
H1064 H 0.54025 0.99425 0.53247 0.0
H1065 H 0.51901 0.008 0.46245 0.0
H1066 H 0.54694 0.93525 0.51639 0.0
H1067 H 0.51999 0.92999 0.5209 0.0
H1068 H 0.54082 0.95452 0.54039 0.0
H1069 H 0.52352 0.95275 0.43064 0.0
H1070 H 0.51 0.97693 0.42835 0.0
H1071 H 0.49629 0.94705 0.43415 0.0
C1072 C 0.52562 0.33247 0.70711 0.0
C1073 C 0.52527 0.33242 0.68271 0.0
C1074 C 0.50653 0.32822 0.71607 0.0
C1075 C 0.48663 0.32346 0.70021 0.0
C1076 C 0.48614 0.32164 0.6754 0.0
C1077 C 0.50545 0.32627 0.667 0.0
C1078 C 0.50775 0.33027 0.74266 0.0
C1079 C 0.46529 0.31609 0.65779 0.0
C1080 C 0.43537 0.30004 0.72341 0.0
C1081 C 0.42944 0.3221 0.72907 0.0
C1082 C 0.45376 0.30006 0.71369 0.0
C1083 C 0.46661 0.32271 0.70968 0.0
C1084 C 0.46045 0.34493 0.71491 0.0
C1085 C 0.44196 0.34435 0.72449 0.0
C1086 C 0.45955 0.27592 0.70795 0.0
C1087 C 0.47365 0.36947 0.71081 0.0
H1088 H 0.54087 0.33725 0.71938 0.0
H1089 H 0.50492 0.32561 0.64811 0.0
H1090 H 0.50275 0.34689 0.74943 0.0
H1091 H 0.4966 0.31383 0.74677 0.0
H1092 H 0.52417 0.33192 0.75238 0.0
H1093 H 0.46741 0.31217 0.63905 0.0
H1094 H 0.45346 0.29993 0.6614 0.0
H1095 H 0.45846 0.33226 0.65973 0.0
H1096 H 0.42563 0.28272 0.72661 0.0
H1097 H 0.43767 0.36153 0.72908 0.0
H1098 H 0.47519 0.27687 0.71913 0.0
H1099 H 0.46132 0.27275 0.68905 0.0
H1100 H 0.44736 0.25975 0.71107 0.0
H1101 H 0.49005 0.37384 0.72161 0.0
H1102 H 0.46657 0.38503 0.71558 0.0
H1103 H 0.47515 0.3683 0.69181 0.0
C1104 C 0.0769 0.9151 0.59135 0.0
C1105 C 0.06232 0.90758 0.60611 0.0
C1106 C 0.07815 0.93751 0.5822 0.0
C1107 C 0.06497 0.95299 0.58854 0.0
C1108 C 0.051 0.94583 0.60432 0.0
C1109 C 0.0497 0.92323 0.61261 0.0
C1110 C 0.09306 0.94428 0.5652 0.0
C1111 C 0.03692 0.96175 0.61204 0.0
C1112 C 0.07411 0.02103 0.58041 0.0
C1113 C 0.05863 0.01923 0.56001 0.0
C1114 C 0.07721 0.9996 0.58922 0.0
C1115 C 0.06434 0.97572 0.57759 0.0
C1116 C 0.04899 0.97382 0.55674 0.0
C1117 C 0.04642 0.99545 0.5482 0.0
C1118 C 0.09384 0.00256 0.61138 0.0
C1119 C 0.03467 0.94891 0.54389 0.0
H1120 H 0.08676 0.90314 0.58636 0.0
H1121 H 0.03868 0.91774 0.6244 0.0
H1122 H 0.0836 0.94405 0.54741 0.0
H1123 H 0.10357 0.9634 0.5715 0.0
H1124 H 0.1032 0.93125 0.56318 0.0
H1125 H 0.02803 0.95439 0.62565 0.0
H1126 H 0.04671 0.98098 0.61952 0.0
H1127 H 0.02516 0.96274 0.59636 0.0
H1128 H 0.08378 0.03922 0.5896 0.0
H1129 H 0.03435 0.99366 0.53245 0.0
H1130 H 0.10444 0.99032 0.60829 0.0
H1131 H 0.08586 0.99682 0.62617 0.0
H1132 H 0.10384 0.02204 0.61709 0.0
H1133 H 0.0444 0.93589 0.53983 0.0
H1134 H 0.02466 0.95034 0.52697 0.0
H1135 H 0.02391 0.9407 0.55555 0.0
C1136 C 0.46343 0.82837 0.84619 0.0
C1137 C 0.46508 0.81966 0.868 0.0
C1138 C 0.44374 0.82995 0.83401 0.0
C1139 C 0.42531 0.82304 0.84408 0.0
C1140 C 0.42689 0.81465 0.86628 0.0
C1141 C 0.44676 0.81286 0.87791 0.0
C1142 C 0.44259 0.83862 0.81019 0.0
C1143 C 0.40757 0.8075 0.87768 0.0
C1144 C 0.37863 0.84881 0.82373 0.0
C1145 C 0.36432 0.82806 0.80855 0.0
C1146 C 0.39854 0.8474 0.83547 0.0
C1147 C 0.40439 0.82485 0.8315 0.0
C1148 C 0.39018 0.80403 0.81573 0.0
C1149 C 0.37013 0.80578 0.80471 0.0
C1150 C 0.41315 0.86986 0.85244 0.0
C1151 C 0.39607 0.77986 0.81059 0.0
H1152 H 0.47749 0.83345 0.8383 0.0
H1153 H 0.4479 0.80602 0.89469 0.0
H1154 H 0.43114 0.82403 0.79624 0.0
H1155 H 0.43657 0.85543 0.81093 0.0
H1156 H 0.4584 0.84304 0.80471 0.0
H1157 H 0.41161 0.80201 0.89533 0.0
H1158 H 0.4003 0.82329 0.88004 0.0
H1159 H 0.39527 0.79176 0.86586 0.0
H1160 H 0.37402 0.86599 0.82696 0.0
H1161 H 0.35906 0.78978 0.79292 0.0
H1162 H 0.42874 0.87543 0.84671 0.0
H1163 H 0.41644 0.8652 0.87057 0.0
H1164 H 0.40618 0.88599 0.85353 0.0
H1165 H 0.38398 0.76621 0.79637 0.0
H1166 H 0.39754 0.77153 0.82702 0.0
H1167 H 0.41183 0.78324 0.80504 0.0
C1168 C 0.53521 0.26184 0.08865 0.0
C1169 C 0.55121 0.27676 0.10754 0.0
C1170 C 0.53578 0.23779 0.07892 0.0
C1171 C 0.55274 0.22803 0.08819 0.0
C1172 C 0.56907 0.24301 0.10711 0.0
C1173 C 0.56812 0.26709 0.11651 0.0
C1174 C 0.51814 0.22278 0.0586 0.0
C1175 C 0.58759 0.23361 0.11737 0.0
C1176 C 0.54182 0.15707 0.07266 0.0
C1177 C 0.54998 0.15458 0.05168 0.0
C1178 C 0.54337 0.18086 0.0854 0.0
C1179 C 0.55366 0.20263 0.07719 0.0
C1180 C 0.56316 0.19994 0.05688 0.0
C1181 C 0.5609 0.17608 0.04424 0.0
C1182 C 0.53289 0.1827 0.10682 0.0
C1183 C 0.57476 0.22232 0.04766 0.0
H1184 H 0.52205 0.26892 0.08144 0.0
H1185 H 0.58058 0.27825 0.13111 0.0
H1186 H 0.52496 0.21856 0.0426 0.0
H1187 H 0.51034 0.20478 0.06343 0.0
H1188 H 0.50575 0.23265 0.05382 0.0
H1189 H 0.59879 0.24723 0.13234 0.0
H1190 H 0.58157 0.216 0.12388 0.0
H1191 H 0.5966 0.22949 0.10327 0.0
H1192 H 0.53308 0.14053 0.07826 0.0
H1193 H 0.56722 0.17423 0.02799 0.0
H1194 H 0.51879 0.19009 0.1025 0.0
H1195 H 0.5441 0.19586 0.12205 0.0
H1196 H 0.5275 0.1644 0.11243 0.0
H1197 H 0.56304 0.23179 0.03984 0.0
H1198 H 0.58364 0.21717 0.03375 0.0
H1199 H 0.58621 0.23586 0.06243 0.0
C1200 C 0.09556 0.31879 0.37278 0.0
C1201 C 0.07535 0.3133 0.35795 0.0
C1202 C 0.11395 0.31833 0.36313 0.0
C1203 C 0.11211 0.31243 0.33808 0.0
C1204 C 0.09184 0.30759 0.32304 0.0
C1205 C 0.07377 0.308 0.33313 0.0
C1206 C 0.13528 0.32354 0.37975 0.0
C1207 C 0.08913 0.30139 0.29625 0.0
C1208 C 0.16215 0.32814 0.3109 0.0
C1209 C 0.16683 0.30508 0.30724 0.0
C1210 C 0.14442 0.33086 0.32088 0.0
C1211 C 0.13113 0.31006 0.32761 0.0
C1212 C 0.13576 0.28673 0.32393 0.0
C1213 C 0.15349 0.28452 0.31379 0.0
C1214 C 0.13983 0.35595 0.32408 0.0
C1215 C 0.12201 0.26405 0.33078 0.0
H1216 H 0.09696 0.32287 0.39195 0.0
H1217 H 0.05827 0.30388 0.32145 0.0
H1218 H 0.14152 0.3069 0.3779 0.0
H1219 H 0.14709 0.33892 0.37491 0.0
H1220 H 0.1342 0.3286 0.39871 0.0
H1221 H 0.07258 0.29982 0.28697 0.0
H1222 H 0.1004 0.31583 0.28961 0.0
H1223 H 0.09296 0.2835 0.29134 0.0
H1224 H 0.17222 0.34402 0.30566 0.0
H1225 H 0.15713 0.2667 0.31135 0.0
H1226 H 0.14014 0.36234 0.34319 0.0
H1227 H 0.12355 0.35452 0.31416 0.0
H1228 H 0.15157 0.37021 0.31772 0.0
H1229 H 0.12162 0.26759 0.35007 0.0
H1230 H 0.1279 0.24733 0.32699 0.0
H1231 H 0.10532 0.26003 0.32087 0.0
C1232 C 0.95319 0.02536 0.13853 0.0
C1233 C 0.9365 0.03696 0.13692 0.0
C1234 C 0.97064 0.03333 0.12764 0.0
C1235 C 0.97111 0.05298 0.11453 0.0
C1236 C 0.95371 0.06366 0.1115 0.0
C1237 C 0.93652 0.05544 0.12269 0.0
C1238 C 0.98898 0.02144 0.13097 0.0
C1239 C 0.95353 0.08422 0.09701 0.0
C1240 C 0.0236 0.09013 0.1025 0.0
C1241 C 0.02344 0.07754 0.07994 0.0
C1242 C 0.00683 0.08191 0.11445 0.0
C1243 C 0.98934 0.06151 0.10291 0.0
C1244 C 0.98916 0.04897 0.08009 0.0
C1245 C 0.00665 0.05652 0.06938 0.0
C1246 C 0.00785 0.09486 0.13936 0.0
C1247 C 0.97042 0.02774 0.06684 0.0
H1248 H 0.95327 0.01104 0.14945 0.0
H1249 H 0.92359 0.06437 0.12124 0.0
H1250 H 0.9914 0.01321 0.11342 0.0
H1251 H 0.00401 0.03578 0.13958 0.0
H1252 H 0.98625 0.00665 0.14208 0.0
H1253 H 0.93851 0.09015 0.09602 0.0
H1254 H 0.96722 0.10058 0.10499 0.0
H1255 H 0.95547 0.07799 0.07861 0.0
H1256 H 0.03688 0.10601 0.11087 0.0
H1257 H 0.00699 0.04596 0.05246 0.0
H1258 H 0.00623 0.08115 0.15167 0.0
H1259 H 0.99433 0.10342 0.13958 0.0
H1260 H 0.02309 0.10956 0.14623 0.0
H1261 H 0.96845 0.01196 0.07677 0.0
H1262 H 0.97239 0.02103 0.04855 0.0
H1263 H 0.95542 0.03371 0.06545 0.0
C1264 C 0.28125 0.7511 0.43915 0.0
C1265 C 0.28648 0.76816 0.46055 0.0
C1266 C 0.28018 0.75906 0.41689 0.0
C1267 C 0.28356 0.78471 0.41585 0.0
C1268 C 0.28728 0.80183 0.4374 0.0
C1269 C 0.28935 0.79345 0.45952 0.0
C1270 C 0.277 0.74017 0.39465 0.0
C1271 C 0.28981 0.82913 0.43711 0.0
C1272 C 0.30743 0.81056 0.36491 0.0
C1273 C 0.2892 0.81045 0.34857 0.0
C1274 C 0.30573 0.80181 0.38654 0.0
C1275 C 0.28531 0.79381 0.39262 0.0
C1276 C 0.26683 0.79416 0.3763 0.0
C1277 C 0.26897 0.80187 0.35419 0.0
C1278 C 0.32582 0.80073 0.40269 0.0
C1279 C 0.24479 0.78648 0.3821 0.0
H1280 H 0.27954 0.73158 0.43991 0.0
H1281 H 0.29363 0.80671 0.47602 0.0
H1282 H 0.26335 0.74129 0.38125 0.0
H1283 H 0.29147 0.74425 0.38654 0.0
H1284 H 0.27399 0.72087 0.39838 0.0
H1285 H 0.28943 0.83934 0.45478 0.0
H1286 H 0.30528 0.83746 0.43209 0.0
H1287 H 0.27689 0.83175 0.42358 0.0
H1288 H 0.32307 0.8169 0.36042 0.0
H1289 H 0.25485 0.80179 0.34156 0.0
H1290 H 0.32413 0.78164 0.40667 0.0
H1291 H 0.32838 0.81336 0.4199 0.0
H1292 H 0.34025 0.80608 0.39466 0.0
H1293 H 0.23929 0.76594 0.37964 0.0
H1294 H 0.23295 0.793 0.37034 0.0
H1295 H 0.24499 0.7939 0.40096 0.0
C1296 C 0.61054 0.01381 0.67202 0.0
C1297 C 0.60962 0.98891 0.66408 0.0
C1298 C 0.60163 0.02771 0.65675 0.0
C1299 C 0.59231 0.01663 0.63279 0.0
C1300 C 0.59261 0.99198 0.62434 0.0
C1301 C 0.60081 0.97817 0.64029 0.0
C1302 C 0.60074 0.05349 0.66675 0.0
C1303 C 0.58349 0.97989 0.59867 0.0
C1304 C 0.54691 0.03627 0.59851 0.0
C1305 C 0.55771 0.05245 0.58518 0.0
C1306 C 0.55816 0.02543 0.61494 0.0
C1307 C 0.58061 0.02993 0.61712 0.0
C1308 C 0.59161 0.04646 0.60381 0.0
C1309 C 0.58002 0.05813 0.58851 0.0
C1310 C 0.54595 0.00891 0.62971 0.0
C1311 C 0.61544 0.05116 0.6051 0.0
H1312 H 0.6169 0.02189 0.69064 0.0
H1313 H 0.59995 0.95884 0.63433 0.0
H1314 H 0.60682 0.06697 0.65533 0.0
H1315 H 0.58385 0.05345 0.66696 0.0
H1316 H 0.61015 0.06008 0.6852 0.0
H1317 H 0.58739 0.96192 0.59428 0.0
H1318 H 0.56583 0.9764 0.59517 0.0
H1319 H 0.58975 0.99242 0.5865 0.0
H1320 H 0.52963 0.03216 0.59618 0.0
H1321 H 0.58831 0.071 0.57856 0.0
H1322 H 0.55358 0.01463 0.64886 0.0
H1323 H 0.5463 0.98943 0.62428 0.0
H1324 H 0.52897 0.00947 0.62766 0.0
H1325 H 0.62413 0.05974 0.62348 0.0
H1326 H 0.62135 0.06357 0.59265 0.0
H1327 H 0.61946 0.03328 0.60072 0.0
C1328 C 0.30803 0.40645 0.96557 0.0
C1329 C 0.32094 0.39681 0.98165 0.0
C1330 C 0.30402 0.39779 0.94079 0.0
C1331 C 0.31282 0.37872 0.93174 0.0
C1332 C 0.32505 0.36817 0.94796 0.0
C1333 C 0.32909 0.37743 0.9726 0.0
C1334 C 0.2911 0.4098 0.92421 0.0
C1335 C 0.3344 0.3475 0.93923 0.0
C1336 C 0.29015 0.34357 0.86801 0.0
C1337 C 0.30591 0.3542 0.85565 0.0
C1338 C 0.29219 0.35125 0.89271 0.0
C1339 C 0.31012 0.37056 0.90534 0.0
C1340 C 0.32584 0.38172 0.8928 0.0
C1341 C 0.32371 0.37317 0.86824 0.0
C1342 C 0.27533 0.33837 0.90536 0.0
C1343 C 0.34492 0.40278 0.90533 0.0
H1344 H 0.30175 0.42153 0.97223 0.0
H1345 H 0.33901 0.36973 0.98477 0.0
H1346 H 0.30131 0.41929 0.91266 0.0
H1347 H 0.2776 0.3955 0.91231 0.0
H1348 H 0.28459 0.42363 0.93402 0.0
H1349 H 0.34205 0.33991 0.95413 0.0
H1350 H 0.32174 0.33216 0.92734 0.0
H1351 H 0.34661 0.35449 0.92861 0.0
H1352 H 0.27641 0.32879 0.85844 0.0
H1353 H 0.33585 0.38164 0.85879 0.0
H1354 H 0.26799 0.35205 0.91399 0.0
H1355 H 0.28279 0.32995 0.91968 0.0
H1356 H 0.26246 0.32356 0.89305 0.0
H1357 H 0.33948 0.4181 0.91427 0.0
H1358 H 0.35519 0.41024 0.89288 0.0
H1359 H 0.35477 0.39633 0.91939 0.0
C1360 C 0.98063 0.06935 0.25757 0.0
C1361 C 0.95832 0.06345 0.25426 0.0
C1362 C 0.99281 0.0692 0.27976 0.0
C1363 C 0.9822 0.06283 0.29856 0.0
C1364 C 0.9596 0.0559 0.29487 0.0
C1365 C 0.94795 0.05614 0.27261 0.0
C1366 C 0.01691 0.07656 0.28334 0.0
C1367 C 0.94769 0.04866 0.31447 0.0
C1368 C 0.0052 0.0396 0.35197 0.0
C1369 C 0.00717 0.05969 0.36983 0.0
C1370 C 0.9986 0.041 0.3281 0.0
C1371 C 0.99437 0.06321 0.3223 0.0
C1372 C 0.9982 0.0843 0.34021 0.0
C1373 C 0.00431 0.08215 0.36402 0.0
C1374 C 0.99401 0.01795 0.30951 0.0
C1375 C 0.99401 0.10833 0.33448 0.0
H1376 H 0.98849 0.07489 0.24314 0.0
H1377 H 0.93069 0.05053 0.2696 0.0
H1378 H 0.02346 0.09407 0.29642 0.0
H1379 H 0.02348 0.06215 0.29084 0.0
H1380 H 0.02261 0.07935 0.26646 0.0
H1381 H 0.93005 0.04295 0.30821 0.0
H1382 H 0.95258 0.0331 0.32168 0.0
H1383 H 0.95171 0.06457 0.3294 0.0
H1384 H 0.00726 0.02221 0.35684 0.0
H1385 H 0.00591 0.09757 0.37813 0.0
H1386 H 1.00017 0.02251 0.29329 0.0
H1387 H 0.97644 0.00988 0.30415 0.0
H1388 H 1.00118 0.00361 0.31632 0.0
H1389 H 1.00052 0.11326 0.31855 0.0
H1390 H 1.00115 0.12394 0.34965 0.0
H1391 H 0.97649 0.10606 0.33032 0.0
C1392 C 0.28734 0.75027 0.59665 0.0
C1393 C 0.30475 0.76177 0.5868 0.0
C1394 C 0.28612 0.75774 0.62071 0.0
C1395 C 0.30273 0.77719 0.63561 0.0
C1396 C 0.32032 0.78882 0.62576 0.0
C1397 C 0.32109 0.78107 0.60169 0.0
C1398 C 0.26691 0.74494 0.63013 0.0
C1399 C 0.33839 0.80969 0.64069 0.0
C1400 C 0.29377 0.81783 0.6895 0.0
C1401 C 0.30331 0.80901 0.70895 0.0
C1402 C 0.29238 0.80676 0.66577 0.0
C1403 C 0.3013 0.78654 0.66099 0.0
C1404 C 0.3103 0.77685 0.68062 0.0
C1405 C 0.31106 0.78806 0.70438 0.0
C1406 C 0.28218 0.81756 0.64578 0.0
C1407 C 0.32013 0.75546 0.67652 0.0
H1408 H 0.27459 0.7353 0.58555 0.0
H1409 H 0.33471 0.79016 0.59457 0.0
H1410 H 0.27212 0.73738 0.64624 0.0
H1411 H 0.25811 0.75858 0.63556 0.0
H1412 H 0.25574 0.72954 0.6167 0.0
H1413 H 0.35137 0.81614 0.63083 0.0
H1414 H 0.33221 0.82568 0.64654 0.0
H1415 H 0.34527 0.80355 0.657 0.0
H1416 H 0.28781 0.83405 0.6929 0.0
H1417 H 0.31876 0.78132 0.71927 0.0
H1418 H 0.27042 0.80262 0.63246 0.0
H1419 H 0.29465 0.82685 0.63647 0.0
H1420 H 0.27393 0.83137 0.65234 0.0
H1421 H 0.30883 0.73991 0.66342 0.0
H1422 H 0.32467 0.74853 0.69328 0.0
H1423 H 0.33466 0.76151 0.66887 0.0
C1424 C 0.60966 0.03092 0.78403 0.0
C1425 C 0.59988 0.00542 0.78114 0.0
C1426 C 0.60804 0.04725 0.80368 0.0
C1427 C 0.5958 0.03772 0.8202 0.0
C1428 C 0.58588 0.01189 0.81723 0.0
C1429 C 0.58844 0.99593 0.79789 0.0
C1430 C 0.61974 0.07444 0.80699 0.0
C1431 C 0.57235 1.00113 0.8343 0.0
C1432 C 0.59691 0.06727 0.88274 0.0
C1433 C 0.57745 0.0737 0.8795 0.0
C1434 C 0.60446 0.05773 0.86314 0.0
C1435 C 0.59213 0.05454 0.83999 0.0
C1436 C 0.57381 0.06363 0.83651 0.0
C1437 C 0.56663 0.07308 0.85637 0.0
C1438 C 0.62453 0.04904 0.86737 0.0
C1439 C 0.56049 0.06098 0.81199 0.0
H1440 H 0.61912 0.03796 0.77129 0.0
H1441 H 0.58126 0.97609 0.79563 0.0
H1442 H 0.6089 0.08628 0.81046 0.0
H1443 H 0.63295 0.07911 0.82276 0.0
H1444 H 0.62667 0.07922 0.79123 0.0
H1445 H 0.56549 0.98071 0.82914 0.0
H1446 H 0.58212 0.00511 0.85258 0.0
H1447 H 0.55901 0.00996 0.83493 0.0
H1448 H 0.60561 0.06841 0.90065 0.0
H1449 H 0.55158 0.07804 0.85375 0.0
H1450 H 0.63441 0.05398 0.85384 0.0
H1451 H 0.6201 0.0285 0.86573 0.0
H1452 H 0.63434 0.05714 0.88543 0.0
H1453 H 0.57082 0.06694 0.79913 0.0
H1454 H 0.54859 0.07206 0.81205 0.0
H1455 H 0.55177 0.04115 0.80553 0.0
C1456 C 0.29758 0.38587 0.10757 0.0
C1457 C 0.31891 0.39493 0.10511 0.0
C1458 C 0.29262 0.37542 0.12781 0.0
C1459 C 0.30934 0.37474 0.14643 0.0
C1460 C 0.33083 0.38423 0.14412 0.0
C1461 C 0.3353 0.39382 0.12352 0.0
C1462 C 0.26949 0.36512 0.12929 0.0
C1463 C 0.34924 0.38455 0.16359 0.0
C1464 C 0.30091 0.37015 0.21027 0.0
C1465 C 0.30005 0.34517 0.21143 0.0
C1466 C 0.30301 0.37974 0.18901 0.0
C1467 C 0.3047 0.36416 0.16841 0.0
C1468 C 0.30366 0.33886 0.16951 0.0
C1469 C 0.30119 0.32967 0.19088 0.0
C1470 C 0.30377 0.4067 0.18875 0.0
C1471 C 0.30557 0.32156 0.14819 0.0
H1472 H 0.28479 0.3867 0.09358 0.0
H1473 H 0.35185 0.40116 0.12215 0.0
H1474 H 0.26658 0.34546 0.13187 0.0
H1475 H 0.26574 0.37561 0.14498 0.0
H1476 H 0.25836 0.36608 0.11303 0.0
H1477 H 0.36505 0.39285 0.15924 0.0
H1478 H 0.34795 0.39533 0.18056 0.0
H1479 H 0.34859 0.36535 0.16668 0.0
H1480 H 0.29976 0.38221 0.22597 0.0
H1481 H 0.30048 0.31035 0.1916 0.0
H1482 H 0.29161 0.40834 0.17378 0.0
H1483 H 0.31966 0.41679 0.18583 0.0
H1484 H 0.30087 0.41594 0.20567 0.0
H1485 H 0.29345 0.32164 0.13247 0.0
H1486 H 0.30343 0.30217 0.15149 0.0
H1487 H 0.32155 0.3281 0.14358 0.0
C1488 C 0.26612 0.01519 0.0619 0.0
C1489 C 0.26451 0.9897 0.05641 0.0
C1490 C 0.24792 0.02396 0.0627 0.0
C1491 C 0.22744 0.00687 0.05829 0.0
C1492 C 0.22567 0.98104 0.05324 0.0
C1493 C 0.24421 0.97275 0.05211 0.0
C1494 C 0.25064 0.05165 0.06786 0.0
C1495 C 0.20419 0.96218 0.04902 0.0
C1496 C 0.18415 0.03443 0.07877 0.0
C1497 C 0.17437 0.04004 0.05745 0.0
C1498 C 0.20068 0.02243 0.07915 0.0
C1499 C 0.20797 0.01638 0.0578 0.0
C1500 C 0.19782 0.02156 0.03618 0.0
C1501 C 0.18108 0.03311 0.03625 0.0
C1502 C 0.21072 0.01681 0.1025 0.0
C1503 C 0.2053 0.01593 0.01311 0.0
H1504 H 0.2817 0.02848 0.06525 0.0
H1505 H 0.24282 0.95303 0.04814 0.0
H1506 H 0.24159 0.05749 0.05267 0.0
H1507 H 0.24403 0.05648 0.08385 0.0
H1508 H 0.26768 0.06248 0.07095 0.0
H1509 H 0.20561 0.9428 0.04676 0.0
H1510 H 0.19605 0.96525 0.0642 0.0
H1511 H 0.19381 0.96448 0.03279 0.0
H1512 H 0.17889 0.03951 0.09518 0.0
H1513 H 0.17377 0.03761 0.01975 0.0
H1514 H 0.22732 0.02884 0.10828 0.0
H1515 H 0.21162 0.99725 0.10031 0.0
H1516 H 0.20165 0.01996 0.11684 0.0
H1517 H 0.22199 0.02723 0.01459 0.0
H1518 H 0.19509 0.01996 0.99764 0.0
H1519 H 0.20533 0.99612 0.00956 0.0
C1520 C 0.70634 0.66917 0.03856 0.0
C1521 C 0.71192 0.68059 0.01921 0.0
C1522 C 0.68501 0.65667 0.03881 0.0
C1523 C 0.66852 0.65552 0.01932 0.0
C1524 C 0.67388 0.6677 1.00008 0.0
C1525 C 0.69545 0.67997 1.00019 0.0
C1526 C 0.68027 0.64386 0.05963 0.0
C1527 C 0.65684 0.66732 0.97908 0.0
C1528 C 0.61846 0.60056 0.00564 0.0
C1529 C 0.60371 0.61041 0.01608 0.0
C1530 C 0.63958 0.61484 0.00705 0.0
C1531 C 0.64605 0.64008 0.01834 0.0
C1532 C 0.6311 0.6502 0.02884 0.0
C1533 C 0.61024 0.63511 0.02798 0.0
C1534 C 0.65501 0.60283 0.99639 0.0
C1535 C 0.63699 0.67712 0.0405 0.0
H1536 H 0.71877 0.6695 0.05346 0.0
H1537 H 0.69943 0.68873 0.98519 0.0
H1538 H 0.66756 0.65005 0.06729 0.0
H1539 H 0.67423 0.62351 0.05339 0.0
H1540 H 0.69462 0.64753 0.07398 0.0
H1541 H 0.6632 0.67923 0.96647 0.0
H1542 H 0.64994 0.64802 0.9693 0.0
H1543 H 0.64361 0.67371 0.98536 0.0
H1544 H 0.61347 0.58146 0.99642 0.0
H1545 H 0.59879 0.64293 0.03578 0.0
H1546 H 0.66945 0.60477 0.01012 0.0
H1547 H 0.66035 0.61235 0.98181 0.0
H1548 H 0.64779 0.58278 0.98912 0.0
H1549 H 0.65053 0.6808 0.05579 0.0
H1550 H 0.62337 0.68245 0.047 0.0
H1551 H 0.64238 0.6892 0.02762 0.0
C1552 C 0.73355 0.54868 0.35088 0.0
C1553 C 0.71859 0.55985 0.34009 0.0
C1554 C 0.73965 0.52991 0.3377 0.0
C1555 C 0.73068 0.52232 0.31308 0.0
C1556 C 0.71512 0.53302 0.30215 0.0
C1557 C 0.70917 0.55167 0.31585 0.0
C1558 C 0.75617 0.5187 0.35004 0.0
C1559 C 0.7052 0.52519 0.27597 0.0
C1560 C 0.77001 0.4971 0.28409 0.0
C1561 C 0.76299 0.47186 0.28549 0.0
C1562 C 0.75817 0.51356 0.29052 0.0
C1563 C 0.73908 0.50452 0.29886 0.0
C1564 C 0.73076 0.47872 0.2979 0.0
C1565 C 0.74284 0.46261 0.29112 0.0
C1566 C 0.76732 0.54095 0.29085 0.0
C1567 C 0.71028 0.46834 0.30632 0.0
H1568 H 0.74066 0.55472 0.36964 0.0
H1569 H 0.69743 0.56016 0.30746 0.0
H1570 H 0.74995 0.49819 0.34729 0.0
H1571 H 0.7708 0.52296 0.34224 0.0
H1572 H 0.76073 0.52585 0.36953 0.0
H1573 H 0.69316 0.53523 0.27027 0.0
H1574 H 0.71781 0.52869 0.26509 0.0
H1575 H 0.69733 0.50495 0.27203 0.0
H1576 H 0.78554 0.50442 0.27973 0.0
H1577 H 0.73704 0.44296 0.29153 0.0
H1578 H 0.77444 0.55035 0.30949 0.0
H1579 H 0.7546 0.54958 0.28405 0.0
H1580 H 0.77998 0.54439 0.27998 0.0
H1581 H 0.71355 0.47117 0.32611 0.0
H1582 H 0.70364 0.44812 0.29948 0.0
H1583 H 0.69802 0.47806 0.30068 0.0
C1584 C 0.88684 0.47939 0.53103 0.0
C1585 C 0.87247 0.4922 0.5382 0.0
C1586 C 0.90769 0.49223 0.52983 0.0
C1587 C 0.9144 0.5184 0.53663 0.0
C1588 C 0.89981 0.53144 0.54363 0.0
C1589 C 0.87885 0.51815 0.54399 0.0
C1590 C 0.92263 0.47777 0.52165 0.0
C1591 C 0.90654 0.55929 0.5514 0.0
C1592 C 0.97429 0.54682 0.55598 0.0
C1593 C 0.97967 0.55501 0.53517 0.0
C1594 C 0.953 0.53532 0.55688 0.0
C1595 C 0.93675 0.53204 0.53654 0.0
C1596 C 0.94198 0.54092 0.51575 0.0
C1597 C 0.96337 0.55228 0.51531 0.0
C1598 C 0.94795 0.52612 0.57939 0.0
C1599 C 0.92506 0.53781 0.49375 0.0
H1600 H 0.88177 0.45932 0.52636 0.0
H1601 H 0.86772 0.52795 0.54983 0.0
H1602 H 0.92898 0.48501 0.50642 0.0
H1603 H 0.93651 0.48015 0.53626 0.0
H1604 H 0.91463 0.4576 0.51607 0.0
H1605 H 0.89322 0.56661 0.55624 0.0
H1606 H 0.9199 0.56447 0.56707 0.0
H1607 H 0.91252 0.56852 0.53694 0.0
H1608 H 0.98677 0.54885 0.5714 0.0
H1609 H 0.96731 0.55873 0.49919 0.0
H1610 H 0.94186 0.50557 0.57577 0.0
H1611 H 0.93518 0.53367 0.58542 0.0
H1612 H 0.96219 0.53145 0.5941 0.0
H1613 H 0.91764 0.51775 0.48682 0.0
H1614 H 0.93167 0.54663 0.47935 0.0
H1615 H 0.91215 0.54606 0.49825 0.0
C1616 C 0.40396 0.2351 0.33345 0.0
C1617 C 0.4184 0.22825 0.32014 0.0
C1618 C 0.38689 0.24329 0.3227 0.0
C1619 C 0.3841 0.24436 0.29802 0.0
C1620 C 0.39807 0.2365 0.28428 0.0
C1621 C 0.41518 0.2287 0.29555 0.0
C1622 C 0.37251 0.252 0.33802 0.0
C1623 C 0.39541 0.23717 0.25787 0.0
C1624 C 0.33175 0.25697 0.27209 0.0
C1625 C 0.33838 0.28272 0.27321 0.0
C1626 C 0.34674 0.24376 0.27876 0.0
C1627 C 0.36848 0.25691 0.2875 0.0
C1628 C 0.37524 0.28279 0.288 0.0
C1629 C 0.36015 0.29526 0.28058 0.0
C1630 C 0.33925 0.21598 0.2772 0.0
C1631 C 0.39817 0.29767 0.29774 0.0
H1632 H 0.40626 0.23461 0.35241 0.0
H1633 H 0.42606 0.22303 0.28504 0.0
H1634 H 0.37469 0.27227 0.33872 0.0
H1635 H 0.35548 0.24264 0.33016 0.0
H1636 H 0.37594 0.24836 0.35655 0.0
H1637 H 0.40547 0.22694 0.24916 0.0
H1638 H 0.37842 0.22906 0.24895 0.0
H1639 H 0.40003 0.25672 0.25501 0.0
H1640 H 0.31493 0.24729 0.26643 0.0
H1641 H 0.36535 0.31526 0.28205 0.0
H1642 H 0.34029 0.2113 0.2954 0.0
H1643 H 0.34976 0.20678 0.26815 0.0
H1644 H 0.32247 0.20824 0.26738 0.0
H1645 H 0.40257 0.29638 0.31685 0.0
H1646 H 0.40082 0.31762 0.29616 0.0
H1647 H 0.40921 0.29004 0.28816 0.0
C1648 C 0.34945 0.20646 0.53778 0.0
C1649 C 0.32919 0.18976 0.52928 0.0
C1650 C 0.36797 0.19797 0.54205 0.0
C1651 C 0.36628 0.1722 0.53686 0.0
C1652 C 0.34575 0.15525 0.52896 0.0
C1653 C 0.32745 0.16421 0.52562 0.0
C1654 C 0.38939 0.21666 0.55135 0.0
C1655 C 0.34317 0.12767 0.52288 0.0
C1656 C 0.41289 0.15011 0.51846 0.0
C1657 C 0.4206 0.14093 0.53864 0.0
C1658 C 0.39572 0.16104 0.51797 0.0
C1659 C 0.38593 0.16296 0.53816 0.0
C1660 C 0.39421 0.1547 0.55895 0.0
C1661 C 0.41136 0.14377 0.55893 0.0
C1662 C 0.3875 0.16967 0.49545 0.0
C1663 C 0.38461 0.15689 0.58104 0.0
H1664 H 0.35088 0.22621 0.5409 0.0
H1665 H 0.31185 0.15124 0.51884 0.0
H1666 H 0.39861 0.21066 0.56629 0.0
H1667 H 0.39888 0.21797 0.537 0.0
H1668 H 0.3877 0.23545 0.55763 0.0
H1669 H 0.3261 0.11688 0.51769 0.0
H1670 H 0.35135 0.1239 0.50789 0.0
H1671 H 0.35082 0.12088 0.53832 0.0
H1672 H 0.41971 0.14787 0.50262 0.0
H1673 H 0.41743 0.13721 0.5748 0.0
H1674 H 0.38728 0.18939 0.49948 0.0
H1675 H 0.37079 0.15858 0.48797 0.0
H1676 H 0.39738 0.16785 0.48166 0.0
H1677 H 0.38392 0.17628 0.58633 0.0
H1678 H 0.39385 0.15133 0.5963 0.0
H1679 H 0.36794 0.14491 0.57725 0.0
C1680 C 0.74083 0.67839 0.34017 0.0
C1681 C 0.71847 0.66961 0.33443 0.0
C1682 C 0.75165 0.69801 0.33041 0.0
C1683 C 0.7398 0.70927 0.31464 0.0
C1684 C 0.71725 0.70024 0.30832 0.0
C1685 C 0.70678 0.68027 0.31821 0.0
C1686 C 0.77578 0.70696 0.33738 0.0
C1687 C 0.7042 0.7121 0.29171 0.0
C1688 C 0.77263 0.77375 0.31378 0.0
C1689 C 0.7814 0.76954 0.29356 0.0
C1690 C 0.75726 0.7547 0.31961 0.0
C1691 C 0.75142 0.73079 0.30537 0.0
C1692 C 0.75972 0.72682 0.28438 0.0
C1693 C 0.77443 0.74654 0.27847 0.0
C1694 C 0.7482 0.75982 0.34169 0.0
C1695 C 0.75432 0.70142 0.26917 0.0
H1696 H 0.74996 0.67004 0.35253 0.0
H1697 H 0.68948 0.67352 0.3138 0.0
H1698 H 0.78301 0.70696 0.32119 0.0
H1699 H 0.78059 0.72634 0.34717 0.0
H1700 H 0.7826 0.69527 0.34889 0.0
H1701 H 0.68684 0.70247 0.2882 0.0
H1702 H 0.70653 0.73183 0.29954 0.0
H1703 H 0.70972 0.71191 0.27446 0.0
H1704 H 0.77789 0.79188 0.32507 0.0
H1705 H 0.78124 0.74369 0.26268 0.0
H1706 H 0.75551 0.75135 0.35608 0.0
H1707 H 0.73066 0.75136 0.33811 0.0
H1708 H 0.75145 0.78006 0.34823 0.0
H1709 H 0.76193 0.68912 0.27906 0.0
H1710 H 0.76003 0.70212 0.25203 0.0
H1711 H 0.7368 0.69283 0.2653 0.0
C1712 C 0.93015 0.61284 0.78845 0.0
C1713 C 0.93485 0.62054 0.81327 0.0
C1714 C 0.91811 0.58847 0.77835 0.0
C1715 C 0.91085 0.57167 0.79352 0.0
C1716 C 0.91634 0.57919 0.81858 0.0
C1717 C 0.92819 0.60349 0.82809 0.0
C1718 C 0.91254 0.58108 0.75156 0.0
C1719 C 0.90932 0.56172 0.8355 0.0
C1720 C 0.86252 0.5177 0.78327 0.0
C1721 C 0.87226 0.49822 0.78408 0.0
C1722 C 0.87462 0.54177 0.78287 0.0
C1723 C 0.89695 0.54632 0.78392 0.0
C1724 C 0.9063 0.5262 0.78198 0.0
C1725 C 0.89377 0.50225 0.78202 0.0
C1726 C 0.86397 0.5627 0.78421 0.0
C1727 C 0.93003 0.53029 0.78299 0.0
H1728 H 0.93534 0.62599 0.77694 0.0
H1729 H 0.93212 0.60918 0.8473 0.0
H1730 H 0.91401 0.56208 0.74594 0.0
H1731 H 0.89565 0.58095 0.74528 0.0
H1732 H 0.92287 0.59422 0.74262 0.0
H1733 H 0.91586 0.57026 0.8545 0.0
H1734 H 0.8916 0.55617 0.83289 0.0
H1735 H 0.91459 0.54458 0.83178 0.0
H1736 H 0.84576 0.51439 0.78441 0.0
H1737 H 0.90128 0.48712 0.7826 0.0
H1738 H 0.87033 0.5764 0.7731 0.0
H1739 H 0.86742 0.5725 0.80294 0.0
H1740 H 0.84633 0.55577 0.77828 0.0
H1741 H 0.93613 0.54468 0.77243 0.0
H1742 H 0.93396 0.51288 0.77629 0.0
H1743 H 0.93858 0.53691 0.80177 0.0
C1744 C 0.08079 0.91653 0.08446 0.0
C1745 C 0.06472 0.90774 0.09711 0.0
C1746 C 0.07942 0.93557 0.07083 0.0
C1747 C 0.06191 0.94639 0.07039 0.0
C1748 C 0.046 0.9378 0.08359 0.0
C1749 C 0.04753 0.91861 0.0965 0.0
C1750 C 0.09655 0.94396 0.05671 0.0
C1751 C 0.02741 0.94913 0.08447 0.0
C1752 C 0.06727 0.01259 0.05928 0.0
C1753 C 0.05378 0.00915 0.03698 0.0
C1754 C 0.07052 0.9924 0.06994 0.0
C1755 C 0.06067 0.96787 0.05771 0.0
C1756 C 0.04762 0.96421 0.03471 0.0
C1757 C 0.04392 0.9849 0.02481 0.0
C1758 C 0.0836 0.99742 0.09492 0.0
C1759 C 0.03729 0.9384 0.02076 0.0
H1760 H 0.094 0.90813 0.08468 0.0
H1761 H 0.03513 0.91216 0.10644 0.0
H1762 H 0.08912 0.9431 0.03783 0.0
H1763 H 0.10546 0.96359 0.06386 0.0
H1764 H 0.10811 0.93244 0.05728 0.0
H1765 H 0.01653 0.94051 0.09586 0.0
H1766 H 0.03345 0.96935 0.09151 0.0
H1767 H 0.01796 0.94697 0.06625 0.0
H1768 H 0.07467 0.03129 0.06899 0.0
H1769 H 0.03354 0.98215 0.00757 0.0
H1770 H 0.09654 0.98787 0.09554 0.0
H1771 H 0.07324 0.98992 0.10725 0.0
H1772 H 0.09092 0.01757 0.1016 0.0
H1773 H 0.04937 0.92763 0.02028 0.0
H1774 H 0.02978 0.9387 1.00217 0.0
H1775 H 0.0248 0.92844 0.02966 0.0
C1776 C 0.93725 0.30747 0.8789 0.0
C1777 C 0.95602 0.31712 0.87058 0.0
C1778 C 0.91735 0.31016 0.86796 0.0
C1779 C 0.91606 0.32247 0.84797 0.0
C1780 C 0.93512 0.33315 0.84017 0.0
C1781 C 0.95479 0.33045 0.85159 0.0
C1782 C 0.89752 0.29882 0.87714 0.0
C1783 C 0.93463 0.34634 0.81893 0.0
C1784 C 0.86461 0.29917 0.80133 0.0
C1785 C 0.85391 0.31757 0.80561 0.0
C1786 C 0.88476 0.30076 0.81485 0.0
C1787 C 0.8947 0.32128 0.83335 0.0
C1788 C 0.88415 0.3402 0.83764 0.0
C1789 C 0.86383 0.3381 0.82373 0.0
C1790 C 0.89536 0.28023 0.80938 0.0
C1791 C 0.89413 0.36235 0.85721 0.0
H1792 H 0.93797 0.29731 0.89364 0.0
H1793 H 0.96917 0.33811 0.84503 0.0
H1794 H 0.88797 0.31242 0.87949 0.0
H1795 H 0.88733 0.28262 0.8639 0.0
H1796 H 0.90141 0.29252 0.8944 0.0
H1797 H 0.95094 0.35583 0.81663 0.0
H1798 H 0.9265 0.3327 0.8025 0.0
H1799 H 0.92535 0.36029 0.82078 0.0
H1800 H 0.85709 0.28322 0.78738 0.0
H1801 H 0.85554 0.35219 0.82739 0.0
H1802 H 0.89796 0.27127 0.82527 0.0
H1803 H 0.91128 0.28805 0.8051 0.0
H1804 H 0.88567 0.26573 0.79416 0.0
H1805 H 0.89504 0.35616 0.87479 0.0
H1806 H 0.88484 0.37643 0.857 0.0
H1807 H 0.91073 0.37127 0.8555 0.0
C1808 C 0.57937 0.28208 0.59575 0.0
C1809 C 0.5631 0.28417 0.60833 0.0
C1810 C 0.58118 0.25856 0.58616 0.0
C1811 C 0.56687 0.23679 0.59008 0.0
C1812 C 0.55106 0.23902 0.60378 0.0
C1813 C 0.54913 0.26266 0.61234 0.0
C1814 C 0.5978 0.25697 0.57107 0.0
C1815 C 0.53588 0.21641 0.60902 0.0
C1816 C 0.55066 0.17542 0.54747 0.0
C1817 C 0.56257 0.16147 0.55936 0.0
C1818 C 0.55296 0.20041 0.55655 0.0
C1819 C 0.56709 0.21163 0.57847 0.0
C1820 C 0.57971 0.19786 0.5902 0.0
C1821 C 0.57752 0.17296 0.58029 0.0
C1822 C 0.53956 0.21449 0.54312 0.0
C1823 C 0.59463 0.20898 0.61383 0.0
H1824 H 0.59014 0.29881 0.5927 0.0
H1825 H 0.53674 0.26439 0.62239 0.0
H1826 H 0.60764 0.24485 0.57763 0.0
H1827 H 0.58971 0.24845 0.55245 0.0
H1828 H 0.60855 0.27551 0.57095 0.0
H1829 H 0.52599 0.22139 0.62188 0.0
H1830 H 0.525 0.20583 0.59226 0.0
H1831 H 0.54494 0.20389 0.6164 0.0
H1832 H 0.53928 0.16664 0.53108 0.0
H1833 H 0.58668 0.16216 0.58954 0.0
H1834 H 0.54966 0.23283 0.54137 0.0
H1835 H 0.52716 0.21795 0.55319 0.0
H1836 H 0.53142 0.20414 0.52502 0.0
H1837 H 0.60558 0.22698 0.61262 0.0
H1838 H 0.60433 0.19647 0.61989 0.0
H1839 H 0.58516 0.21279 0.62756 0.0
C1840 C 0.58221 0.85188 0.35859 0.0
C1841 C 0.57753 0.84025 0.37803 0.0
C1842 C 0.60204 0.8542 0.35152 0.0
C1843 C 0.6178 0.84503 0.36441 0.0
C1844 C 0.61377 0.83493 0.38509 0.0
C1845 C 0.59362 0.83241 0.39152 0.0
C1846 C 0.60557 0.86497 0.32929 0.0
C1847 C 0.63042 0.82571 0.39977 0.0
C1848 C 0.65383 0.81893 0.32869 0.0
C1849 C 0.67244 0.83862 0.33326 0.0
C1850 C 0.6361 0.82086 0.33883 0.0
C1851 C 0.63707 0.84287 0.3544 0.0
C1852 C 0.65603 0.8627 0.35954 0.0
C1853 C 0.67341 0.86047 0.34861 0.0
C1854 C 0.6161 0.79946 0.3324 0.0
C1855 C 0.6579 0.88629 0.37635 0.0
H1856 H 0.56998 0.85817 0.34811 0.0
H1857 H 0.5903 0.82375 0.40679 0.0
H1858 H 0.62105 0.8794 0.33278 0.0
H1859 H 0.60628 0.8501 0.31507 0.0
H1860 H 0.5926 0.87333 0.32255 0.0
H1861 H 0.62598 0.82143 0.41692 0.0
H1862 H 0.63236 0.8086 0.38954 0.0
H1863 H 0.64616 0.83976 0.4036 0.0
H1864 H 0.65292 0.80218 0.31654 0.0
H1865 H 0.68782 0.87572 0.35218 0.0
H1866 H 0.60243 0.80585 0.32404 0.0
H1867 H 0.61199 0.79255 0.34874 0.0
H1868 H 0.6179 0.78375 0.31987 0.0
H1869 H 0.64716 0.89668 0.3681 0.0
H1870 H 0.6745 0.89858 0.38076 0.0
H1871 H 0.65277 0.88191 0.39315 0.0
C1872 C 0.0371 0.24594 0.44604 0.0
C1873 C 0.02343 0.25932 0.45443 0.0
C1874 C 0.03992 0.22459 0.45514 0.0
C1875 C 0.02907 0.21646 0.47334 0.0
C1876 C 0.01578 0.23031 0.48238 0.0
C1877 C 0.01302 0.25138 0.47276 0.0
C1878 C 0.0541 0.21032 0.44481 0.0
C1879 C 0.00408 0.22257 0.50193 0.0
C1880 C 0.02011 0.14856 0.48192 0.0
C1881 C 0.03613 0.1503 0.50177 0.0
C1882 C 0.01757 0.16986 0.47255 0.0
C1883 C 0.03161 0.19353 0.48297 0.0
C1884 C 0.04798 0.1953 0.5028 0.0
C1885 C 0.04994 0.17379 0.51204 0.0
C1886 C 0.99976 0.16705 0.45156 0.0
C1887 C 0.0635 0.21998 0.5143 0.0
H1888 H 0.04498 0.25158 0.43165 0.0
H1889 H 1.00237 0.26143 0.47936 0.0
H1890 H 0.06671 0.20854 0.4592 0.0
H1891 H 0.04449 0.19124 0.43642 0.0
H1892 H 0.06188 0.21936 0.4312 0.0
H1893 H 0.99475 0.23562 0.50743 0.0
H1894 H 0.99297 0.20375 0.49581 0.0
H1895 H 0.01564 0.22157 0.51778 0.0
H1896 H 0.00933 0.13056 0.47388 0.0
H1897 H 0.06254 0.17538 0.5272 0.0
H1898 H 0.00647 0.17406 0.43644 0.0
H1899 H 0.98889 0.17837 0.45641 0.0
H1900 H 0.99021 0.14742 0.44548 0.0
H1901 H 0.072 0.2284 0.50088 0.0
H1902 H 0.07557 0.21822 0.52933 0.0
H1903 H 0.05467 0.23301 0.52107 0.0
C1904 C 0.63831 0.34933 0.22507 0.0
C1905 C 0.63389 0.35366 0.20157 0.0
C1906 C 0.65829 0.34643 0.2349 0.0
C1907 C 0.6744 0.34819 0.22103 0.0
C1908 C 0.67013 0.35265 0.19732 0.0
C1909 C 0.64985 0.3552 0.18779 0.0
C1910 C 0.66211 0.34136 0.26013 0.0
C1911 C 0.68702 0.35477 0.18208 0.0
C1912 C 0.73191 0.36348 0.25428 0.0
C1913 C 0.7358 0.33996 0.25237 0.0
C1914 C 0.71205 0.36645 0.24404 0.0
C1915 C 0.69571 0.3454 0.23145 0.0
C1916 C 0.69954 0.32161 0.22943 0.0
C1917 C 0.71951 0.31915 0.24001 0.0
C1918 C 0.70851 0.39209 0.24689 0.0
C1919 C 0.68253 0.29873 0.2161 0.0
H1920 H 0.62604 0.34789 0.23581 0.0
H1921 H 0.64654 0.35854 0.16964 0.0
H1922 H 0.66653 0.32357 0.2603 0.0
H1923 H 0.67569 0.35621 0.27127 0.0
H1924 H 0.64782 0.34033 0.26847 0.0
H1925 H 0.68124 0.35843 0.16405 0.0
H1926 H 0.70135 0.37004 0.19092 0.0
H1927 H 0.69217 0.33738 0.18009 0.0
H1928 H 0.74438 0.37965 0.26391 0.0
H1929 H 0.72244 0.30093 0.23831 0.0
H1930 H 0.69591 0.39269 0.25758 0.0
H1931 H 0.70281 0.39653 0.22921 0.0
H1932 H 0.72328 0.4067 0.25586 0.0
H1933 H 0.6682 0.29616 0.22446 0.0
H1934 H 0.68817 0.28164 0.21586 0.0
H1935 H 0.67745 0.30106 0.19743 0.0
C1936 C 0.51434 0.89337 0.96758 0.0
C1937 C 0.52501 0.88387 0.95071 0.0
C1938 C 0.51959 0.91891 0.97695 0.0
C1939 C 0.53601 0.93582 0.96942 0.0
C1940 C 0.5469 0.92647 0.95242 0.0
C1941 C 0.54133 0.9007 0.94332 0.0
C1942 C 0.50761 0.92777 0.99515 0.0
C1943 C 0.56453 0.94373 0.94391 0.0
C1944 C 0.53764 0.00497 0.98464 0.0
C1945 C 0.5523 0.01226 0.00639 0.0
C1946 C 0.53273 0.98042 0.97181 0.0
C1947 C 0.54276 0.96284 0.98088 0.0
C1948 C 0.55827 0.97064 1.00227 0.0
C1949 C 0.56276 0.99504 0.01465 0.0
C1950 C 0.51612 0.97299 0.9491 0.0
C1951 C 0.56946 0.95285 0.01278 0.0
H1952 H 0.50166 0.88078 0.97349 0.0
H1953 H 0.54957 0.89382 0.93014 0.0
H1954 H 0.51887 0.93618 0.0123 0.0
H1955 H 0.50044 0.94239 0.98908 0.0
H1956 H 0.49468 0.91249 0.99844 0.0
H1957 H 0.57075 0.93389 0.9298 0.0
H1958 H 0.5586 0.95876 0.93683 0.0
H1959 H 0.57795 0.9527 0.95911 0.0
H1960 H 0.52935 0.01802 0.9782 0.0
H1961 H 0.57418 1.00046 0.03141 0.0
H1962 H 0.50163 0.95966 0.95201 0.0
H1963 H 0.5222 0.96344 0.9347 0.0
H1964 H 0.51143 0.98922 0.94305 0.0
H1965 H 0.55765 0.93803 0.01835 0.0
H1966 H 0.58224 0.96224 0.02853 0.0
H1967 H 0.57666 0.9437 0.99922 0.0
C1968 C 0.02826 0.85543 0.7166 0.0
C1969 C 0.02386 0.84085 0.69392 0.0
C1970 C 0.01162 0.85901 0.72812 0.0
C1971 C 0.99013 0.84683 0.71707 0.0
C1972 C 0.98577 0.83075 0.69482 0.0
C1973 C 1.00268 0.82848 0.68318 0.0
C1974 C 0.01699 0.87702 0.75136 0.0
C1975 C 0.96316 0.81675 0.68286 0.0
C1976 C 0.94664 0.84472 0.75417 0.0
C1977 C 0.9375 0.86323 0.74662 0.0
C1978 C 0.96378 0.83913 0.74475 0.0
C1979 C 0.97219 0.85262 0.72766 0.0
C1980 C 0.96329 0.87167 0.72037 0.0
C1981 C 0.94597 0.87658 0.72978 0.0
C1982 C 0.97266 0.81853 0.75278 0.0
C1983 C 0.97212 0.88693 0.70265 0.0
H1984 H 0.04467 0.86544 0.72461 0.0
H1985 H 0.99935 0.81741 0.66551 0.0
H1986 H 0.00936 0.89238 0.74925 0.0
H1987 H 0.01054 0.86756 0.76545 0.0
H1988 H 0.03451 0.88513 0.75748 0.0
H1989 H 0.96267 0.80283 0.66714 0.0
H1990 H 0.9547 0.80709 0.69568 0.0
H1991 H 0.95425 0.82999 0.67686 0.0
H1992 H 0.94006 0.83424 0.76709 0.0
H1993 H 0.93918 0.89115 0.72417 0.0
H1994 H 0.98981 0.826 0.76126 0.0
H1995 H 0.9717 0.80434 0.73712 0.0
H1996 H 0.96395 0.80934 0.7657 0.0
H1997 H 0.9895 0.89569 0.70905 0.0
H1998 H 0.964 0.90176 0.69962 0.0
H1999 H 0.97021 0.87475 0.6853 0.0
C2000 C 0.13365 0.13037 0.90275 0.0
C2001 C 0.15008 0.1185 0.90435 0.0
C2002 C 0.11942 0.12741 0.9185 0.0
C2003 C 0.12168 0.11181 0.93558 0.0
C2004 C 0.13978 0.10235 0.93909 0.0
C2005 C 0.15415 0.1063 0.9236 0.0
C2006 C 0.1007 0.13861 0.91506 0.0
C2007 C 0.14261 0.08563 0.95722 0.0
C2008 C 0.08637 0.10868 0.98094 0.0
C2009 C 0.07025 0.08676 0.97108 0.0
C2010 C 0.10354 0.11673 0.96989 0.0
C2011 C 0.10399 0.10315 0.94783 0.0
C2012 C 0.08747 0.08134 0.9373 0.0
C2013 C 0.07077 0.07317 0.9493 0.0
C2014 C 0.12114 0.13973 0.98179 0.0
C2015 C 0.08741 0.06677 0.9134 0.0
H2016 H 0.13074 0.13995 0.88789 0.0
H2017 H 0.16691 0.09709 0.92475 0.0
H2018 H 0.08601 0.12384 0.90623 0.0
H2019 H 0.09788 0.14668 0.93248 0.0
H2020 H 0.1032 0.15332 0.90383 0.0
H2021 H 0.15901 0.08304 0.96018 0.0
H2022 H 0.13927 0.09318 0.97454 0.0
H2023 H 0.13103 0.06712 0.95074 0.0
H2024 H 0.08569 0.11966 0.9975 0.0
H2025 H 0.05812 0.05644 0.94159 0.0
H2026 H 0.12199 0.15421 0.97032 0.0
H2027 H 0.13685 0.13535 0.98417 0.0
H2028 H 0.11868 0.14754 0.99952 0.0
H2029 H 0.08739 0.07888 0.89963 0.0
H2030 H 0.07329 0.05036 0.90768 0.0
H2031 H 0.10216 0.06032 0.91423 0.0
C2032 C 0.83826 0.40428 0.62157 0.0
C2033 C 0.82069 0.39905 0.60259 0.0
C2034 C 0.83603 0.3969 0.64362 0.0
C2035 C 0.81581 0.38321 0.64672 0.0
C2036 C 0.79801 0.37749 0.62753 0.0
C2037 C 0.80056 0.38589 0.60581 0.0
C2038 C 0.85532 0.40406 0.6637 0.0
C2039 C 0.77627 0.36255 0.63001 0.0
C2040 C 0.81499 0.34413 0.69622 0.0
C2041 C 0.81038 0.35952 0.71464 0.0
C2042 C 0.81694 0.35169 0.67411 0.0
C2043 C 0.81347 0.37483 0.67004 0.0
C2044 C 0.80857 0.39031 0.68858 0.0
C2045 C 0.80739 0.38262 0.71077 0.0
C2046 C 0.82286 0.33497 0.65517 0.0
C2047 C 0.80451 0.41497 0.68496 0.0
H2048 H 0.85378 0.41498 0.61943 0.0
H2049 H 0.78692 0.38199 0.59129 0.0
H2050 H 0.85202 0.41514 0.67933 0.0
H2051 H 0.85873 0.38713 0.66949 0.0
H2052 H 0.86985 0.4151 0.6585 0.0
H2053 H 0.76413 0.35932 0.61339 0.0
H2054 H 0.77732 0.34429 0.63467 0.0
H2055 H 0.77074 0.37232 0.64477 0.0
H2056 H 0.81738 0.32629 0.69922 0.0
H2057 H 0.80355 0.39441 0.72491 0.0
H2058 H 0.838 0.34486 0.65034 0.0
H2059 H 0.81029 0.33012 0.63877 0.0
H2060 H 0.82497 0.31754 0.66109 0.0
H2061 H 0.81901 0.4274 0.68106 0.0
H2062 H 0.80011 0.42439 0.70084 0.0
H2063 H 0.7914 0.41226 0.66938 0.0
C2064 C 0.50869 0.18783 0.40754 0.0
C2065 C 0.49945 0.17541 0.38435 0.0
C2066 C 0.51387 0.17448 0.42554 0.0
C2067 C 0.50898 0.14821 0.42014 0.0
C2068 C 0.49821 0.13559 0.39705 0.0
C2069 C 0.49389 0.14943 0.37926 0.0
C2070 C 0.52567 0.18853 0.4499 0.0
C2071 C 0.49216 0.10759 0.39087 0.0
C2072 C 0.54743 0.12009 0.45561 0.0
C2073 C 0.53604 0.11164 0.47285 0.0
C2074 C 0.53836 0.13114 0.43776 0.0
C2075 C 0.51761 0.13431 0.43763 0.0
C2076 C 0.50579 0.12519 0.45471 0.0
C2077 C 0.51518 0.11374 0.47215 0.0
C2078 C 0.55129 0.14011 0.41952 0.0
C2079 C 0.48371 0.12847 0.45522 0.0
H2080 H 0.51281 0.20795 0.41127 0.0
H2081 H 0.48633 0.13997 0.36127 0.0
H2082 H 0.51765 0.18089 0.46398 0.0
H2083 H 0.54216 0.18628 0.45311 0.0
H2084 H 0.52671 0.20869 0.45174 0.0
H2085 H 0.48206 0.10064 0.37278 0.0
H2086 H 0.50684 0.10103 0.3916 0.0
H2087 H 0.48334 0.09924 0.40409 0.0
H2088 H 0.5636 0.11833 0.4563 0.0
H2089 H 0.50668 0.10761 0.48589 0.0
H2090 H 0.5545 0.16059 0.42117 0.0
H2091 H 0.54213 0.13186 0.40123 0.0
H2092 H 0.56683 0.13527 0.42163 0.0
H2093 H 0.48497 0.14831 0.46154 0.0
H2094 H 0.47553 0.11723 0.46729 0.0
H2095 H 0.47363 0.12323 0.43706 0.0
C2096 C 0.77672 0.76189 0.08403 0.0
C2097 C 0.79678 0.76632 0.07721 0.0
C2098 C 0.77488 0.76918 0.10781 0.0
C2099 C 0.79353 0.78085 0.1254 0.0
C2100 C 0.81377 0.78541 0.11861 0.0
C2101 C 0.81513 0.77831 0.0947 0.0
C2102 C 0.75297 0.7642 0.11418 0.0
C2103 C 0.83412 0.79746 0.13674 0.0
C2104 C 0.7902 0.81959 0.18348 0.0
C2105 C 0.79192 0.80339 0.19977 0.0
C2106 C 0.7904 0.81241 0.15921 0.0
C2107 C 0.79201 0.78825 0.15093 0.0
C2108 C 0.79316 0.77158 0.16734 0.0
C2109 C 0.79326 0.77943 0.19161 0.0
C2110 C 0.78938 0.83092 0.14256 0.0
C2111 C 0.79478 0.74564 0.15936 0.0
H2112 H 0.76243 0.75259 0.07078 0.0
H2113 H 0.83076 0.7816 0.08985 0.0
H2114 H 0.75195 0.75178 0.12771 0.0
H2115 H 0.75021 0.78183 0.12225 0.0
H2116 H 0.74 0.75543 0.09843 0.0
H2117 H 0.84861 0.79987 0.12862 0.0
H2118 H 0.83356 0.81593 0.14552 0.0
H2119 H 0.83565 0.78597 0.15088 0.0
H2120 H 0.789 0.83804 0.18977 0.0
H2121 H 0.79465 0.76694 0.20428 0.0
H2122 H 0.7758 0.82298 0.12731 0.0
H2123 H 0.80424 0.83498 0.13515 0.0
H2124 H 0.78751 0.84867 0.15162 0.0
H2125 H 0.78134 0.73577 0.14446 0.0
H2126 H 0.79455 0.73458 0.17403 0.0
H2127 H 0.80984 0.74657 0.1526 0.0
C2128 C 0.14204 0.10858 0.79776 0.0
C2129 C 0.15551 0.09539 0.78889 0.0
C2130 C 0.13469 0.12522 0.7847 0.0
C2131 C 0.14109 0.12812 0.76268 0.0
C2132 C 0.15847 0.1193 0.75699 0.0
C2133 C 0.16536 0.10261 0.77018 0.0
C2134 C 0.11716 0.13574 0.79202 0.0
C2135 C 0.16667 0.12316 0.73432 0.0
C2136 C 0.09846 0.11021 0.70736 0.0
C2137 C 0.10216 0.13215 0.69788 0.0
C2138 C 0.11005 0.10918 0.72945 0.0
C2139 C 0.1254 0.13092 0.74259 0.0
C2140 C 0.12759 0.15375 0.73423 0.0
C2141 C 0.11589 0.15411 0.71179 0.0
C2142 C 0.10709 0.08423 0.73757 0.0
C2143 C 0.14288 0.17747 0.74842 0.0
H2144 H 0.13477 0.10322 0.81264 0.0
H2145 H 0.1763 0.09275 0.7639 0.0
H2146 H 0.11797 0.15401 0.78637 0.0
H2147 H 0.10138 0.1229 0.78328 0.0
H2148 H 0.11815 0.13787 0.81164 0.0
H2149 H 0.18282 0.11999 0.73523 0.0
H2150 H 0.15559 0.10977 0.71911 0.0
H2151 H 0.16746 0.14219 0.73068 0.0
H2152 H 0.08737 0.09342 0.69679 0.0
H2153 H 0.11856 0.17119 0.70452 0.0
H2154 H 0.10382 0.08564 0.75594 0.0
H2155 H 0.12192 0.07806 0.73771 0.0
H2156 H 0.09369 0.06963 0.72576 0.0
H2157 H 0.13627 0.18364 0.764 0.0
H2158 H 0.14535 0.19262 0.73768 0.0
H2159 H 0.15866 0.17456 0.75542 0.0
C2160 C 0.79857 0.40987 0.46123 0.0
C2161 C 0.81522 0.40423 0.47613 0.0
C2162 C 0.79416 0.40181 0.43623 0.0
C2163 C 0.80663 0.38772 0.42567 0.0
C2164 C 0.82338 0.38193 0.44062 0.0
C2165 C 0.82742 0.39016 0.46545 0.0
C2166 C 0.77605 0.40828 0.42108 0.0
C2167 C 0.83699 0.36673 0.43041 0.0
C2168 C 0.78248 0.34214 0.36753 0.0
C2169 C 0.79278 0.35378 0.35066 0.0
C2170 C 0.78647 0.35323 0.3916 0.0
C2171 C 0.80102 0.37699 0.39942 0.0
C2172 C 0.81095 0.38941 0.38238 0.0
C2173 C 0.80679 0.37764 0.35818 0.0
C2174 C 0.77569 0.33892 0.40887 0.0
C2175 C 0.82648 0.41481 0.38989 0.0
H2176 H 0.78914 0.4209 0.46904 0.0
H2177 H 0.84041 0.38565 0.47652 0.0
H2178 H 0.78196 0.41776 0.40671 0.0
H2179 H 0.76355 0.39104 0.41234 0.0
H2180 H 0.76859 0.42048 0.43167 0.0
H2181 H 0.85004 0.36478 0.44421 0.0
H2182 H 0.82685 0.3479 0.42195 0.0
H2183 H 0.8442 0.37545 0.41633 0.0
H2184 H 0.77161 0.3237 0.36206 0.0
H2185 H 0.81494 0.38674 0.34542 0.0
H2186 H 0.76719 0.35025 0.41885 0.0
H2187 H 0.78793 0.33471 0.42212 0.0
H2188 H 0.76404 0.32113 0.39978 0.0
H2189 H 0.81912 0.42762 0.39982 0.0
H2190 H 0.83159 0.42286 0.3744 0.0
H2191 H 0.84088 0.41361 0.40213 0.0
C2192 C 0.50963 0.16968 0.25024 0.0
C2193 C 0.49289 0.16623 0.26277 0.0
C2194 C 0.51004 0.15131 0.2317 0.0
C2195 C 0.49363 0.12864 0.22618 0.0
C2196 C 0.47667 0.12501 0.23888 0.0
C2197 C 0.47638 0.14406 0.25692 0.0
C2198 C 0.52828 0.1561 0.21829 0.0
C2199 C 0.45949 0.10073 0.23442 0.0
C2200 C 0.49451 0.09973 0.16471 0.0
C2201 C 0.51164 0.08921 0.16983 0.0
C2202 C 0.48608 0.11008 0.18313 0.0
C2203 C 0.49474 0.10922 0.20696 0.0
C2204 C 0.50904 0.0945 0.21172 0.0
C2205 C 0.51767 0.08493 0.19305 0.0
C2206 C 0.4702 0.12487 0.17729 0.0
C2207 C 0.51735 0.09162 0.23684 0.0
H2208 H 0.52243 0.18675 0.25501 0.0
H2209 H 0.46372 0.14115 0.26716 0.0
H2210 H 0.53817 0.143 0.22158 0.0
H2211 H 0.52195 0.15296 0.19881 0.0
H2212 H 0.53882 0.17534 0.22373 0.0
H2213 H 0.44489 0.10311 0.24087 0.0
H2214 H 0.455 0.09233 0.21525 0.0
H2215 H 0.46565 0.08739 0.24423 0.0
H2216 H 0.48906 0.10194 0.14654 0.0
H2217 H 0.53056 0.07628 0.19715 0.0
H2218 H 0.47872 0.14495 0.18106 0.0
H2219 H 0.45783 0.12189 0.18851 0.0
H2220 H 0.46217 0.11992 0.15821 0.0
H2221 H 0.53048 0.10832 0.24553 0.0
H2222 H 0.52376 0.07509 0.23703 0.0
H2223 H 0.50455 0.08988 0.24753 0.0
C2224 C 0.77526 0.76465 0.93233 0.0
C2225 C 0.79048 0.7759 0.95326 0.0
C2226 C 0.77605 0.77433 0.91082 0.0
C2227 C 0.79232 0.79596 0.91007 0.0
C2228 C 0.80697 0.80807 0.93149 0.0
C2229 C 0.80594 0.7979 0.95258 0.0
C2230 C 0.76013 0.76064 0.88856 0.0
C2231 C 0.82441 0.8313 0.93194 0.0
C2232 C 0.81322 0.80825 0.85281 0.0
C2233 C 0.80342 0.82635 0.84563 0.0
C2234 C 0.80901 0.79745 0.87301 0.0
C2235 C 0.79494 0.80526 0.88687 0.0
C2236 C 0.78467 0.82325 0.87931 0.0
C2237 C 0.78895 0.83346 0.85877 0.0
C2238 C 0.8202 0.77822 0.87997 0.0
C2239 C 0.76983 0.8325 0.8935 0.0
H2240 H 0.76344 0.74748 0.93237 0.0
H2241 H 0.81784 0.80684 0.96852 0.0
H2242 H 0.7527 0.77367 0.87964 0.0
H2243 H 0.76853 0.75225 0.8758 0.0
H2244 H 0.74727 0.74564 0.89239 0.0
H2245 H 0.83341 0.83967 0.9503 0.0
H2246 H 0.83585 0.82685 0.9209 0.0
H2247 H 0.8175 0.84533 0.92415 0.0
H2248 H 0.82459 0.80287 0.84284 0.0
H2249 H 0.78157 0.84771 0.85349 0.0
H2250 H 0.80839 0.76144 0.88254 0.0
H2251 H 0.83157 0.78572 0.89719 0.0
H2252 H 0.82921 0.77262 0.86636 0.0
H2253 H 0.75723 0.81663 0.89635 0.0
H2254 H 0.76204 0.84528 0.88457 0.0
H2255 H 0.77896 0.84248 0.91135 0.0
C2256 C 0.83755 0.17263 0.99439 0.0
C2257 C 0.83984 0.18655 0.01705 0.0
C2258 C 0.85308 0.16068 0.98879 0.0
C2259 C 0.87131 0.16253 0.0064 0.0
C2260 C 0.87384 0.17705 0.02923 0.0
C2261 C 0.85806 0.18896 0.03428 0.0
C2262 C 0.84976 0.14573 0.96417 0.0
C2263 C 0.89305 0.17957 0.04845 0.0
C2264 C 0.89898 0.11038 1.00231 0.0
C2265 C 0.91782 0.12157 0.99494 0.0
C2266 C 0.88368 0.12344 0.00589 0.0
C2267 C 0.88705 0.14816 1.00146 0.0
C2268 C 0.90567 0.15916 0.99295 0.0
C2269 C 0.92104 0.14588 0.99021 0.0
C2270 C 0.8642 0.11101 0.01512 0.0
C2271 C 0.90945 0.18502 0.98699 0.0
H2272 H 0.82347 0.17102 0.98101 0.0
H2273 H 0.85987 0.19996 0.0517 0.0
H2274 H 0.8644 0.15086 0.95652 0.0
H2275 H 0.84658 0.12568 0.96529 0.0
H2276 H 0.8361 0.14848 0.95177 0.0
H2277 H 0.89295 0.19195 0.06503 0.0
H2278 H 0.8934 0.16099 0.05277 0.0
H2279 H 0.90798 0.1871 0.042 0.0
H2280 H 0.89659 0.09164 0.00613 0.0
H2281 H 0.9356 0.15448 0.9844 0.0
H2282 H 0.84942 0.11069 1.00264 0.0
H2283 H 0.86394 0.12179 0.03254 0.0
H2284 H 0.86384 0.09165 0.01748 0.0
H2285 H 0.89542 0.1864 0.97425 0.0
H2286 H 0.92395 0.19026 0.97907 0.0
H2287 H 0.91132 0.19867 0.00336 0.0
C2288 C 0.3882 0.51323 0.0456 0.0
C2289 C 0.38208 0.48723 0.04285 0.0
C2290 C 0.40948 0.52636 0.04596 0.0
C2291 C 0.425 0.5132 0.04268 0.0
C2292 C 0.41858 0.48683 0.03863 0.0
C2293 C 0.39734 0.47419 0.03925 0.0
C2294 C 0.41553 0.5544 0.05083 0.0
C2295 C 0.43428 0.47195 0.03421 0.0
C2296 C 0.47785 0.54983 0.02883 0.0
C2297 C 0.49114 0.55652 0.05149 0.0
C2298 C 0.45643 0.53538 0.02551 0.0
C2299 C 0.44813 0.52713 0.0453 0.0
C2300 C 0.46176 0.5333 0.06807 0.0
C2301 C 0.48293 0.54809 0.07091 0.0
C2302 C 0.44253 0.5295 1.00096 0.0
C2303 C 0.45383 0.52467 0.08962 0.0
H2304 H 0.37651 0.52341 0.04858 0.0
H2305 H 0.39265 0.45408 0.03687 0.0
H2306 H 0.42731 0.56134 0.06785 0.0
H2307 H 0.42329 0.56186 0.03652 0.0
H2308 H 0.40149 0.56188 0.05212 0.0
H2309 H 0.42632 0.45177 0.02875 0.0
H2310 H 0.44287 0.47849 0.0201 0.0
H2311 H 0.44645 0.47469 0.05069 0.0
H2312 H 0.48395 0.55662 0.01384 0.0
H2313 H 0.49313 0.55307 0.08846 0.0
H2314 H 0.42962 0.53909 1.00088 0.0
H2315 H 0.43472 0.50927 0.9961 0.0
H2316 H 0.45177 0.53541 0.98711 0.0
H2317 H 0.44053 0.5327 0.09312 0.0
H2318 H 0.46663 0.5301 0.10588 0.0
H2319 H 0.44744 0.50415 0.08621 0.0
C2320 C 0.37418 0.61666 0.70352 0.0
C2321 C 0.36127 0.5926 0.7023 0.0
C2322 C 0.36771 0.63728 0.71235 0.0
C2323 C 0.34731 0.63349 0.71852 0.0
C2324 C 0.33312 0.60937 0.71425 0.0
C2325 C 0.34054 0.58897 0.70676 0.0
C2326 C 0.3837 0.66255 0.71782 0.0
C2327 C 0.31086 0.60493 0.71967 0.0
C2328 C 0.33686 0.6765 0.76828 0.0
C2329 C 0.32693 0.69122 0.75519 0.0
C2330 C 0.34457 0.6582 0.75655 0.0
C2331 C 0.34145 0.65434 0.73129 0.0
C2332 C 0.33187 0.66964 0.71819 0.0
C2333 C 0.32487 0.68813 0.73039 0.0
C2334 C 0.35561 0.64276 0.77106 0.0
C2335 C 0.32816 0.66581 0.69129 0.0
H2336 H 0.3905 0.61924 0.70071 0.0
H2337 H 0.33085 0.57026 0.70623 0.0
H2338 H 0.37605 0.6773 0.71323 0.0
H2339 H 0.39043 0.66706 0.73725 0.0
H2340 H 0.39714 0.66303 0.70815 0.0
H2341 H 0.30078 0.58595 0.71154 0.0
H2342 H 0.31183 0.60715 0.73926 0.0
H2343 H 0.30289 0.61872 0.71303 0.0
H2344 H 0.33846 0.67923 0.78752 0.0
H2345 H 0.31695 0.69957 0.72043 0.0
H2346 H 0.3711 0.64253 0.76571 0.0
H2347 H 0.34559 0.62328 0.7676 0.0
H2348 H 0.35864 0.64986 0.79052 0.0
H2349 H 0.3434 0.66642 0.68506 0.0
H2350 H 0.32117 0.68003 0.68393 0.0
H2351 H 0.31713 0.64715 0.68386 0.0
C2352 C 0.20675 0.6764 0.5112 0.0
C2353 C 0.22095 0.6615 0.5096 0.0
C2354 C 0.18538 0.66609 0.51287 0.0
C2355 C 0.17813 0.64036 0.51329 0.0
C2356 C 0.19228 0.62516 0.51125 0.0
C2357 C 0.21348 0.63589 0.50934 0.0
C2358 C 0.17057 0.68275 0.51432 0.0
C2359 C 0.18503 0.59758 0.51125 0.0
C2360 C 0.13053 0.61899 0.54287 0.0
C2361 C 0.11369 0.60971 0.52313 0.0
C2362 C 0.15157 0.62888 0.53986 0.0
C2363 C 0.15592 0.62943 0.51657 0.0
C2364 C 0.13908 0.61964 0.49656 0.0
C2365 C 0.11819 0.61004 0.50008 0.0
C2366 C 0.16916 0.63897 0.56163 0.0
C2367 C 0.14284 0.61991 0.47137 0.0
H2368 H 0.21231 0.69615 0.51112 0.0
H2369 H 0.2243 0.62419 0.50798 0.0
H2370 H 0.15642 0.67573 0.49959 0.0
H2371 H 0.16463 0.6825 0.53132 0.0
H2372 H 0.17853 0.70227 0.51323 0.0
H2373 H 0.19796 0.5883 0.50937 0.0
H2374 H 0.17949 0.59423 0.52809 0.0
H2375 H 0.17126 0.5888 0.49637 0.0
H2376 H 0.12726 0.61888 0.56073 0.0
H2377 H 0.10535 0.60294 0.48464 0.0
H2378 H 0.17653 0.65899 0.56203 0.0
H2379 H 0.18195 0.62929 0.5608 0.0
H2380 H 0.16324 0.63677 0.57849 0.0
H2381 H 0.14396 0.63881 0.46712 0.0
H2382 H 0.12956 0.60658 0.45815 0.0
H2383 H 0.15805 0.61538 0.46926 0.0
C2384 C 0.698 0.95427 0.75395 0.0
C2385 C 0.6792 0.93928 0.7585 0.0
C2386 C 0.71713 0.94719 0.75762 0.0
C2387 C 0.71708 0.92436 0.76544 0.0
C2388 C 0.69787 0.90885 0.76938 0.0
C2389 C 0.67916 0.91677 0.76625 0.0
C2390 C 0.73746 0.96442 0.75394 0.0
C2391 C 0.69714 0.88409 0.77724 0.0
C2392 C 0.75826 0.8902 0.75463 0.0
C2393 C 0.76971 0.89288 0.7778 0.0
C2394 C 0.74182 0.90169 0.75004 0.0
C2395 C 0.73696 0.91626 0.76918 0.0
C2396 C 0.74966 0.92055 0.79237 0.0
C2397 C 0.76589 0.90847 0.7965 0.0
C2398 C 0.72853 0.89644 0.72516 0.0
C2399 C 0.74516 0.93646 0.81305 0.0
H2400 H 0.69792 0.97205 0.7486 0.0
H2401 H 0.66455 0.90557 0.77013 0.0
H2402 H 0.74928 0.97013 0.77099 0.0
H2403 H 0.74473 0.95469 0.74086 0.0
H2404 H 0.73467 0.98137 0.74752 0.0
H2405 H 0.6807 0.87385 0.77848 0.0
H2406 H 0.70322 0.87233 0.76451 0.0
H2407 H 0.70767 0.88693 0.79496 0.0
H2408 H 0.76127 0.87776 0.74036 0.0
H2409 H 0.77473 0.9101 0.81443 0.0
H2410 H 0.72635 0.91389 0.71946 0.0
H2411 H 0.71241 0.88434 0.72503 0.0
H2412 H 0.73588 0.88699 0.7119 0.0
H2413 H 0.74275 0.95406 0.80791 0.0
H2414 H 0.75834 0.94091 0.82889 0.0
H2415 H 0.7302 0.9265 0.81818 0.0
C2416 C 0.7514 0.97191 0.51711 0.0
C2417 C 0.75999 0.97513 0.54158 0.0
C2418 C 0.73266 0.97902 0.50912 0.0
C2419 C 0.72214 0.98919 0.52602 0.0
C2420 C 0.73021 0.99125 0.55068 0.0
C2421 C 0.74909 0.98448 0.55811 0.0
C2422 C 0.72476 0.97671 0.48268 0.0
C2423 C 0.71932 1.0015 0.56933 0.0
C2424 C 0.69112 0.0368 0.51557 0.0
C2425 C 0.66998 0.02305 0.51454 0.0
C2426 C 0.70806 0.02556 0.5175 0.0
C2427 C 0.70388 0.99986 0.5185 0.0
C2428 C 0.68242 0.98553 0.51585 0.0
C2429 C 0.66574 0.99732 0.51408 0.0
C2430 C 0.73062 0.04158 0.52002 0.0
C2431 C 0.67719 0.95797 0.5161 0.0
H2432 H 0.75979 0.96481 0.50421 0.0
H2433 H 0.7555 0.98678 0.57702 0.0
H2434 H 0.70713 0.96906 0.47796 0.0
H2435 H 0.72863 0.99541 0.47758 0.0
H2436 H 0.73231 0.96468 0.472 0.0
H2437 H 0.72673 1.00029 0.58769 0.0
H2438 H 0.7202 0.02128 0.56837 0.0
H2439 H 0.70214 0.99124 0.56592 0.0
H2440 H 0.69463 0.05671 0.51608 0.0
H2441 H 0.6494 0.98646 0.51278 0.0
H2442 H 0.73924 0.03287 0.50778 0.0
H2443 H 0.73945 0.04331 0.53849 0.0
H2444 H 0.73099 0.06052 0.51622 0.0
H2445 H 0.68571 0.94888 0.50401 0.0
H2446 H 0.65974 0.94895 0.51064 0.0
H2447 H 0.68268 0.95472 0.53435 0.0
C2448 C 0.3564 0.47031 0.70038 0.0
C2449 C 0.37853 0.47974 0.70748 0.0
C2450 C 0.34612 0.44728 0.70544 0.0
C2451 C 0.35845 0.43388 0.71811 0.0
C2452 C 0.38104 0.44196 0.72249 0.0
C2453 C 0.3909 0.46508 0.7172 0.0
C2454 C 0.32196 0.43902 0.70012 0.0
C2455 C 0.39468 0.42781 0.73539 0.0
C2456 C 0.33099 0.40624 0.76504 0.0
C2457 C 0.32069 0.38231 0.75284 0.0
C2458 C 0.34423 0.42303 0.75422 0.0
C2459 C 0.3477 0.41511 0.73111 0.0
C2460 C 0.33877 0.39017 0.71972 0.0
C2461 C 0.32484 0.37417 0.73051 0.0
C2462 C 0.3532 0.44966 0.76679 0.0
C2463 C 0.3428 0.38074 0.6956 0.0
H2464 H 0.34699 0.482 0.69311 0.0
H2465 H 0.40806 0.47275 0.7229 0.0
H2466 H 0.31613 0.41888 0.69283 0.0
H2467 H 0.31595 0.44225 0.71691 0.0
H2468 H 0.31502 0.44938 0.6872 0.0
H2469 H 0.41136 0.43307 0.73233 0.0
H2470 H 0.39517 0.4321 0.75484 0.0
H2471 H 0.38788 0.40747 0.72964 0.0
H2472 H 0.3275 0.41231 0.78228 0.0
H2473 H 0.31676 0.35549 0.7212 0.0
H2474 H 0.34614 0.46202 0.7564 0.0
H2475 H 0.37077 0.45558 0.768 0.0
H2476 H 0.34977 0.45242 0.78509 0.0
H2477 H 0.33219 0.38616 0.68148 0.0
H2478 H 0.33942 0.36015 0.69225 0.0
H2479 H 0.35959 0.38892 0.69402 0.0
C2480 C 0.18336 0.54854 0.24612 0.0
C2481 C 0.17621 0.54281 0.26692 0.0
C2482 C 0.19533 0.5725 0.24536 0.0
C2483 C 0.1999 0.59109 0.2658 0.0
C2484 C 0.19308 0.58532 0.28702 0.0
C2485 C 0.18141 0.56107 0.28739 0.0
C2486 C 0.20244 0.57812 0.22247 0.0
C2487 C 0.19737 0.60495 0.30894 0.0
C2488 C 0.24283 0.64999 0.26724 0.0
C2489 C 0.23032 0.66548 0.25981 0.0
C2490 C 0.23309 0.6257 0.26985 0.0
C2491 C 0.2105 0.61695 0.26437 0.0
C2492 C 0.19789 0.63268 0.2568 0.0
C2493 C 0.20802 0.65692 0.25478 0.0
C2494 C 0.24688 0.60939 0.27831 0.0
C2495 C 0.17375 0.6238 0.25048 0.0
H2496 H 0.17939 0.53432 0.23034 0.0
H2497 H 0.17562 0.55667 0.30339 0.0
H2498 H 0.19472 0.59191 0.21541 0.0
H2499 H 0.22 0.58646 0.22591 0.0
H2500 H 0.19836 0.56126 0.20854 0.0
H2501 H 0.19169 0.59715 0.32429 0.0
H2502 H 0.21476 0.61419 0.31422 0.0
H2503 H 0.18921 0.61948 0.30493 0.0
H2504 H 0.26012 0.65698 0.27119 0.0
H2505 H 0.19856 0.66917 0.2489 0.0
H2506 H 0.24431 0.59287 0.26438 0.0
H2507 H 0.24223 0.60255 0.29448 0.0
H2508 H 0.26418 0.61934 0.28253 0.0
H2509 H 0.1688 0.60822 0.23515 0.0
H2510 H 0.16637 0.63875 0.24568 0.0
H2511 H 0.16727 0.61667 0.26567 0.0
C2512 C 0.50031 0.73189 0.45574 0.0
C2513 C 0.5156 0.75386 0.45483 0.0
C2514 C 0.50601 0.71297 0.46687 0.0
C2515 C 0.52749 0.7163 0.47829 0.0
C2516 C 0.54294 0.73882 0.47813 0.0
C2517 C 0.53692 0.75709 0.46595 0.0
C2518 C 0.4891 0.68903 0.4657 0.0
C2519 C 0.56583 0.74361 0.4908 0.0
C2520 C 0.53382 0.67082 0.52138 0.0
C2521 C 0.54123 0.65345 0.50781 0.0
C2522 C 0.53051 0.6922 0.5126 0.0
C2523 C 0.53371 0.69561 0.48927 0.0
C2524 C 0.54126 0.67799 0.47564 0.0
C2525 C 0.54535 0.6575 0.48529 0.0
C2526 C 0.52337 0.71098 0.52818 0.0
C2527 C 0.54416 0.68013 0.45041 0.0
H2528 H 0.48385 0.72907 0.44693 0.0
H2529 H 0.54882 0.77402 0.4654 0.0
H2530 H 0.49409 0.67314 0.45713 0.0
H2531 H 0.48722 0.68583 0.48394 0.0
H2532 H 0.47328 0.68905 0.45551 0.0
H2533 H 0.57521 0.76307 0.49153 0.0
H2534 H 0.56635 0.73974 0.50928 0.0
H2535 H 0.57369 0.73097 0.48149 0.0
H2536 H 0.53078 0.66781 0.53889 0.0
H2537 H 0.55109 0.64408 0.47481 0.0
H2538 H 0.50652 0.71027 0.52096 0.0
H2539 H 0.53324 0.73004 0.52826 0.0
H2540 H 0.52452 0.70752 0.54685 0.0
H2541 H 0.5287 0.67992 0.43928 0.0
H2542 H 0.55 0.66477 0.44215 0.0
H2543 H 0.55571 0.69802 0.45012 0.0
C2544 C 0.65901 0.36825 0.69512 0.0
C2545 C 0.64239 0.34617 0.68936 0.0
C2546 C 0.67948 0.36881 0.70764 0.0
C2547 C 0.68353 0.34679 0.71456 0.0
C2548 C 0.66696 0.32437 0.70819 0.0
C2549 C 0.64673 0.32434 0.69575 0.0
C2550 C 0.69668 0.39311 0.71394 0.0
C2551 C 0.67038 0.30046 0.7152 0.0
C2552 C 0.74124 0.34312 0.73303 0.0
C2553 C 0.74483 0.34994 0.75787 0.0
C2554 C 0.72149 0.34223 0.71866 0.0
C2555 C 0.70466 0.34741 0.72947 0.0
C2556 C 0.70806 0.35327 0.7547 0.0
C2557 C 0.72823 0.35505 0.76851 0.0
C2558 C 0.71887 0.33658 0.69188 0.0
C2559 C 0.69046 0.35802 0.76713 0.0
H2560 H 0.6559 0.38523 0.69037 0.0
H2561 H 0.63412 0.30711 0.69135 0.0
H2562 H 0.70104 0.39881 0.73361 0.0
H2563 H 0.71133 0.39086 0.70761 0.0
H2564 H 0.69151 0.40823 0.7061 0.0
H2565 H 0.65623 0.28437 0.70796 0.0
H2566 H 0.68444 0.29642 0.70873 0.0
H2567 H 0.67381 0.3024 0.73493 0.0
H2568 H 0.75425 0.33971 0.72475 0.0
H2569 H 0.73106 0.36049 0.78772 0.0
H2570 H 0.71546 0.35254 0.68401 0.0
H2571 H 0.70504 0.32023 0.68443 0.0
H2572 H 0.73338 0.33282 0.68623 0.0
H2573 H 0.68609 0.3748 0.76218 0.0
H2574 H 0.69521 0.36078 0.78686 0.0
H2575 H 0.67591 0.34218 0.76132 0.0
C2576 C 0.03126 0.38913 0.96147 0.0
C2577 C 0.01001 0.37549 0.9523 0.0
C2578 C 0.03633 0.41475 0.97043 0.0
C2579 C 0.01983 0.42708 0.96929 0.0
C2580 C 0.99843 0.41338 0.9596 0.0
C2581 C 0.99375 0.38773 0.95163 0.0
C2582 C 0.05926 0.4286 0.98124 0.0
C2583 C 0.98047 0.42589 0.95728 0.0
C2584 C 0.02615 0.48829 0.00974 0.0
C2585 C 0.03123 0.50539 0.99453 0.0
C2586 C 0.02296 0.46278 1.00195 0.0
C2587 C 0.02472 0.45426 0.97831 0.0
C2588 C 0.03002 0.47165 0.96295 0.0
C2589 C 0.03341 0.49712 0.97136 0.0
C2590 C 0.01769 0.44494 0.01899 0.0
C2591 C 0.03189 0.46334 0.93759 0.0
H2592 H 0.04385 0.37969 0.9619 0.0
H2593 H 0.97735 0.37732 0.94407 0.0
H2594 H 0.06486 0.44394 0.97149 0.0
H2595 H 0.06038 0.43713 1.00002 0.0
H2596 H 0.07018 0.41632 0.98092 0.0
H2597 H 0.96482 0.41273 0.94855 0.0
H2598 H 0.97904 0.43449 0.97516 0.0
H2599 H 0.98403 0.44101 0.94667 0.0
H2600 H 0.02494 0.49496 0.02786 0.0
H2601 H 0.03772 0.51058 0.95984 0.0
H2602 H 0.02918 0.43337 0.02026 0.0
H2603 H 1.00149 0.43217 0.01219 0.0
H2604 H 0.01815 0.45468 0.03716 0.0
H2605 H 0.04449 0.45331 0.93745 0.0
H2606 H 0.03586 0.47917 0.92788 0.0
H2607 H 0.01661 0.45018 0.92779 0.0
C2608 C 0.0229 0.85121 0.20071 0.0
C2609 C 0.02698 0.83438 0.18322 0.0
C2610 C 0.0032 0.84637 0.2082 0.0
C2611 C 0.98732 0.82391 0.19819 0.0
C2612 C 0.99168 0.80643 0.18096 0.0
C2613 C 0.01142 0.8121 0.17335 0.0
C2614 C 0.99915 0.86572 0.22628 0.0
C2615 C 0.97533 0.78213 0.17016 0.0
C2616 C 0.94471 0.81018 0.23584 0.0
C2617 C 0.92915 0.82057 0.22479 0.0
C2618 C 0.96305 0.80941 0.22634 0.0
C2619 C 0.96605 0.8195 0.20544 0.0
C2620 C 0.94976 0.82851 0.19336 0.0
C2621 C 0.9315 0.82888 0.20314 0.0
C2622 C 0.97985 0.79921 0.23951 0.0
C2623 C 0.95221 0.83927 0.17092 0.0
H2624 H 0.03488 0.86865 0.20791 0.0
H2625 H 0.01459 0.79933 0.15949 0.0
H2626 H 0.98535 0.87216 0.21837 0.0
H2627 H 0.99497 0.85755 0.24201 0.0
H2628 H 0.01323 0.88211 0.23244 0.0
H2629 H 0.98214 0.76935 0.15936 0.0
H2630 H 0.9689 0.77276 0.18434 0.0
H2631 H 0.96167 0.78569 0.15848 0.0
H2632 H 0.94316 0.80379 0.25262 0.0
H2633 H 0.91933 0.83639 0.19416 0.0
H2634 H 0.99396 0.81474 0.24838 0.0
H2635 H 0.98535 0.78669 0.22689 0.0
H2636 H 0.97383 0.78882 0.25333 0.0
H2637 H 0.96483 0.85717 0.1754 0.0
H2638 H 0.93712 0.84268 0.16215 0.0
H2639 H 0.95732 0.82665 0.15803 0.0
C2640 C 0.57607 0.41297 0.08904 0.0
C2641 C 0.56476 0.4077 0.10731 0.0
C2642 C 0.57737 0.43547 0.08009 0.0
C2643 C 0.56725 0.45302 0.08978 0.0
C2644 C 0.55672 0.44807 0.10899 0.0
C2645 C 0.55552 0.42552 0.11736 0.0
C2646 C 0.5888 0.44003 0.05965 0.0
C2647 C 0.54577 0.46609 0.12004 0.0
C2648 C 0.57749 0.52033 0.0792 0.0
C2649 C 0.55986 0.51888 0.0613 0.0
C2650 C 0.58077 0.4989 0.08782 0.0
C2651 C 0.56582 0.47548 0.07873 0.0
C2652 C 0.54813 0.47395 0.06049 0.0
C2653 C 0.5455 0.49552 0.05188 0.0
C2654 C 0.6 0.5014 0.107 0.0
C2655 C 0.53149 0.44959 0.05061 0.0
H2656 H 0.58314 0.39918 0.08117 0.0
H2657 H 0.54683 0.42149 0.13157 0.0
H2658 H 0.577 0.43935 0.04338 0.0
H2659 H 0.60016 0.45882 0.06365 0.0
H2660 H 0.59771 0.42602 0.05576 0.0
H2661 H 0.5396 0.4603 0.13593 0.0
H2662 H 0.557 0.48491 0.12544 0.0
H2663 H 0.53215 0.4675 0.10671 0.0
H2664 H 0.58879 0.53823 0.08644 0.0
H2665 H 0.53175 0.49413 0.03814 0.0
H2666 H 0.60885 0.48778 0.10171 0.0
H2667 H 0.5947 0.49722 0.12376 0.0
H2668 H 0.61111 0.52037 0.11066 0.0
H2669 H 0.53922 0.43526 0.04413 0.0
H2670 H 0.51923 0.45124 0.0357 0.0
H2671 H 0.52328 0.44291 0.06494 0.0
C2672 C 0.96145 0.31778 0.34118 0.0
C2673 C 0.96625 0.31955 0.36601 0.0
C2674 C 0.94134 0.31888 0.32963 0.0
C2675 C 0.92592 0.32261 0.34334 0.0
C2676 C 0.93085 0.32488 0.3685 0.0
C2677 C 0.95089 0.32292 0.37953 0.0
C2678 C 0.93652 0.31578 0.30274 0.0
C2679 C 0.91501 0.32953 0.38375 0.0
C2680 C 0.88179 0.34942 0.31625 0.0
C2681 C 0.86421 0.32832 0.30981 0.0
C2682 C 0.90197 0.34777 0.32703 0.0
C2683 C 0.90471 0.32446 0.33139 0.0
C2684 C 0.88717 0.30301 0.32455 0.0
C2685 C 0.86711 0.30521 0.3139 0.0
C2686 C 0.92031 0.37106 0.33408 0.0
C2687 C 0.88952 0.27776 0.32862 0.0
H2688 H 0.97328 0.31487 0.3307 0.0
H2689 H 0.95466 0.32446 0.39874 0.0
H2690 H 0.92211 0.30007 0.29539 0.0
H2691 H 0.93293 0.33272 0.29721 0.0
H2692 H 0.95004 0.31222 0.29468 0.0
H2693 H 0.92148 0.33136 0.40309 0.0
H2694 H 0.91053 0.34678 0.38054 0.0
H2695 H 0.90015 0.31406 0.37878 0.0
H2696 H 0.87977 0.36737 0.31316 0.0
H2697 H 0.85369 0.28878 0.30896 0.0
H2698 H 0.93372 0.36883 0.32519 0.0
H2699 H 0.92643 0.37433 0.3536 0.0
H2700 H 0.91557 0.38774 0.32931 0.0
H2701 H 0.90247 0.27332 0.32005 0.0
H2702 H 0.87452 0.2628 0.32143 0.0
H2703 H 0.89415 0.27787 0.348 0.0
C2704 C 0.0694 0.77331 0.60303 0.0
C2705 C 0.05191 0.77726 0.6127 0.0
C2706 C 0.06975 0.74918 0.59302 0.0
C2707 C 0.05257 0.72838 0.59345 0.0
C2708 C 0.03558 0.73228 0.60458 0.0
C2709 C 0.03526 0.75659 0.61362 0.0
C2710 C 0.08795 0.74611 0.58089 0.0
C2711 C 0.01723 0.71078 0.60613 0.0
C2712 C 0.03612 0.67343 0.5424 0.0
C2713 C 0.04413 0.65516 0.55226 0.0
C2714 C 0.0392 0.6972 0.55547 0.0
C2715 C 0.05056 0.70326 0.57933 0.0
C2716 C 0.05874 0.68492 0.58957 0.0
C2717 C 0.05545 0.66105 0.5759 0.0
C2718 C 0.03012 0.71587 0.54361 0.0
C2719 C 0.07105 0.69059 0.61489 0.0
H2720 H 0.08236 0.7892 0.60237 0.0
H2721 H 0.0219 0.75946 0.62151 0.0
H2722 H 0.09446 0.73107 0.58706 0.0
H2723 H 0.08196 0.74064 0.56135 0.0
H2724 H 0.10114 0.7635 0.58423 0.0
H2725 H 0.00672 0.71646 0.6179 0.0
H2726 H 0.00742 0.7029 0.58807 0.0
H2727 H 0.02337 0.69579 0.61301 0.0
H2728 H 0.02738 0.6692 0.52413 0.0
H2729 H 0.06194 0.64721 0.58357 0.0
H2730 H 0.04297 0.73311 0.54459 0.0
H2731 H 0.01794 0.721 0.55313 0.0
H2732 H 0.02252 0.70864 0.52459 0.0
H2733 H 0.08604 0.70544 0.61644 0.0
H2734 H 0.07522 0.67403 0.62077 0.0
H2735 H 0.06156 0.69764 0.62717 0.0
C2736 C 0.59027 0.80827 0.87041 0.0
C2737 C 0.57574 0.8206 0.86062 0.0
C2738 C 0.60778 0.80601 0.85983 0.0
C2739 C 0.61105 0.81676 0.83929 0.0
C2740 C 0.59671 0.82977 0.82971 0.0
C2741 C 0.57915 0.83135 0.84037 0.0
C2742 C 0.62254 0.79165 0.87032 0.0
C2743 C 0.5997 0.84166 0.80796 0.0
C2744 C 0.66725 0.82808 0.82612 0.0
C2745 C 0.66524 0.80717 0.80896 0.0
C2746 C 0.64961 0.83179 0.83564 0.0
C2747 C 0.62943 0.8142 0.82782 0.0
C2748 C 0.62708 0.7936 0.8098 0.0
C2749 C 0.64501 0.79031 0.80063 0.0
C2750 C 0.65266 0.85425 0.85448 0.0
C2751 C 0.6058 0.77455 0.80078 0.0
H2752 H 0.58756 0.79964 0.88585 0.0
H2753 H 0.56794 0.8409 0.83269 0.0
H2754 H 0.62254 0.77577 0.85678 0.0
H2755 H 0.63917 0.80372 0.87539 0.0
H2756 H 0.6178 0.78438 0.88631 0.0
H2757 H 0.58794 0.85247 0.80366 0.0
H2758 H 0.61608 0.85422 0.81073 0.0
H2759 H 0.59793 0.8271 0.79233 0.0
H2760 H 0.68271 0.84149 0.83226 0.0
H2761 H 0.64331 0.77402 0.7875 0.0
H2762 H 0.6497 0.84818 0.87153 0.0
H2763 H 0.64093 0.86476 0.84919 0.0
H2764 H 0.66905 0.86693 0.85761 0.0
H2765 H 0.60116 0.76449 0.81533 0.0
H2766 H 0.60625 0.76077 0.78539 0.0
H2767 H 0.59313 0.78377 0.7953 0.0
C2768 C 0.46743 0.56802 0.65622 0.0
C2769 C 0.44678 0.56613 0.64405 0.0
C2770 C 0.48411 0.56836 0.64388 0.0
C2771 C 0.47988 0.56733 0.61894 0.0
C2772 C 0.45869 0.5635 0.60636 0.0
C2773 C 0.44217 0.56278 0.61921 0.0
C2774 C 0.50641 0.57149 0.65768 0.0
C2775 C 0.45375 0.56174 0.57961 0.0
C2776 C 0.52476 0.6038 0.59343 0.0
C2777 C 0.53189 0.58466 0.58257 0.0
C2778 C 0.50765 0.59828 0.6054 0.0
C2779 C 0.49795 0.57315 0.60656 0.0
C2780 C 0.50573 0.55387 0.59631 0.0
C2781 C 0.52268 0.55992 0.5844 0.0
C2782 C 0.49955 0.6192 0.61622 0.0
C2783 C 0.49616 0.52695 0.59774 0.0
H2784 H 0.47066 0.56999 0.67553 0.0
H2785 H 0.42599 0.56096 0.61005 0.0
H2786 H 0.51405 0.55814 0.64904 0.0
H2787 H 0.51643 0.59046 0.65779 0.0
H2788 H 0.50641 0.56874 0.67644 0.0
H2789 H 0.43626 0.55609 0.57237 0.0
H2790 H 0.46072 0.58007 0.57485 0.0
H2791 H 0.46113 0.5482 0.57081 0.0
H2792 H 0.53182 0.62282 0.59159 0.0
H2793 H 0.52847 0.54517 0.576 0.0
H2794 H 0.50063 0.61936 0.63566 0.0
H2795 H 0.48244 0.61628 0.6082 0.0
H2796 H 0.50872 0.63764 0.61349 0.0
H2797 H 0.50037 0.52391 0.61634 0.0
H2798 H 0.5021 0.5141 0.58591 0.0
H2799 H 0.47844 0.522 0.59287 0.0
C2800 C 0.80558 0.26441 0.94515 0.0
C2801 C 0.79304 0.26878 0.96203 0.0
C2802 C 0.80203 0.27106 0.92251 0.0
C2803 C 0.78584 0.28312 0.91659 0.0
C2804 C 0.77265 0.28701 0.9333 0.0
C2805 C 0.7762 0.27943 0.95576 0.0
C2806 C 0.81606 0.26574 0.90514 0.0
C2807 C 0.75523 0.29979 0.92767 0.0
C2808 C 0.79867 0.32556 0.87141 0.0
C2809 C 0.78701 0.31066 0.84975 0.0
C2810 C 0.79757 0.31724 0.8933 0.0
C2811 C 0.7843 0.29345 0.89381 0.0
C2812 C 0.77173 0.27871 0.87214 0.0
C2813 C 0.77335 0.28739 0.85038 0.0
C2814 C 0.81146 0.33352 0.91582 0.0
C2815 C 0.75731 0.25327 0.87172 0.0
H2816 H 0.81827 0.25555 0.94967 0.0
H2817 H 0.7663 0.28254 0.96863 0.0
H2818 H 0.80605 0.25553 0.88776 0.0
H2819 H 0.82601 0.28347 0.90183 0.0
H2820 H 0.82684 0.25458 0.9118 0.0
H2821 H 0.74541 0.29991 0.94173 0.0
H2822 H 0.76249 0.31928 0.9259 0.0
H2823 H 0.7446 0.29049 0.91035 0.0
H2824 H 0.80935 0.34353 0.8713 0.0
H2825 H 0.76417 0.27571 0.83384 0.0
H2826 H 0.82396 0.32469 0.92292 0.0
H2827 H 0.80175 0.33555 0.92971 0.0
H2828 H 0.8195 0.35231 0.91276 0.0
H2829 H 0.76716 0.23991 0.87372 0.0
H2830 H 0.74547 0.2465 0.8547 0.0
H2831 H 0.7486 0.25333 0.88674 0.0
C2832 C 0.11473 0.5047 0.15915 0.0
C2833 C 0.10069 0.48267 0.16221 0.0
C2834 C 0.10833 0.5187 0.14224 0.0
C2835 C 0.08752 0.5103 0.12799 0.0
C2836 C 0.07376 0.4874 0.13012 0.0
C2837 C 0.08049 0.47392 0.14726 0.0
C2838 C 0.12336 0.54312 0.14056 0.0
C2839 C 0.05151 0.47768 0.11507 0.0
C2840 C 0.05772 0.55471 0.10424 0.0
C2841 C 0.05905 0.55092 0.08018 0.0
C2842 C 0.0679 0.54253 0.12033 0.0
C2843 C 0.0794 0.52601 0.1119 0.0
C2844 C 0.08137 0.52288 0.08764 0.0
C2845 C 0.07114 0.53547 0.07201 0.0
C2846 C 0.06553 0.54648 0.14608 0.0
C2847 C 0.09351 0.50549 0.07803 0.0
H2848 H 0.1303 0.5117 0.17081 0.0
H2849 H 0.0696 0.45689 0.14951 0.0
H2850 H 0.12458 0.54425 0.12172 0.0
H2851 H 0.11696 0.55863 0.14724 0.0
H2852 H 0.13966 0.54584 0.15116 0.0
H2853 H 0.04338 0.45878 0.11778 0.0
H2854 H 0.04163 0.49039 0.11961 0.0
H2855 H 0.05219 0.47707 0.09588 0.0
H2856 H 0.04826 0.5667 0.11034 0.0
H2857 H 0.07206 0.53264 0.05329 0.0
H2858 H 0.0814 0.55103 0.15808 0.0
H2859 H 0.05564 0.52911 0.15015 0.0
H2860 H 0.05783 0.56164 0.15017 0.0
H2861 H 0.11021 0.51082 0.08819 0.0
H2862 H 0.09387 0.50555 0.05881 0.0
H2863 H 0.08601 0.48626 0.08035 0.0
C2864 C 0.81993 0.87198 0.4717 0.0
C2865 C 0.81909 0.89602 0.48062 0.0
C2866 C 0.81618 0.86329 0.44691 0.0
C2867 C 0.81241 0.87936 0.43058 0.0
C2868 C 0.81129 0.90354 0.43955 0.0
C2869 C 0.81427 0.91139 0.46434 0.0
C2870 C 0.81673 0.83708 0.43818 0.0
C2871 C 0.80782 0.92157 0.423 0.0
C2872 C 0.82752 0.86821 0.36933 0.0
C2873 C 0.80752 0.85744 0.35425 0.0
C2874 C 0.82931 0.87523 0.3941 0.0
C2875 C 0.81066 0.87141 0.40426 0.0
C2876 C 0.79043 0.86048 0.38915 0.0
C2877 C 0.7891 0.85365 0.36444 0.0
C2878 C 0.8512 0.88694 0.40942 0.0
C2879 C 0.77013 0.85583 0.3991 0.0
H2880 H 0.82364 0.86 0.48414 0.0
H2881 H 0.81393 0.93014 0.47105 0.0
H2882 H 0.80214 0.82736 0.42462 0.0
H2883 H 0.83068 0.83745 0.42943 0.0
H2884 H 0.81785 0.82619 0.4529 0.0
H2885 H 0.80678 0.93946 0.43269 0.0
H2886 H 0.82123 0.92543 0.41322 0.0
H2887 H 0.79291 0.91333 0.40951 0.0
H2888 H 0.84188 0.87118 0.36179 0.0
H2889 H 0.77353 0.84524 0.35311 0.0
H2890 H 0.85442 0.87557 0.42325 0.0
H2891 H 0.85183 0.90563 0.41883 0.0
H2892 H 0.86412 0.88882 0.39885 0.0
H2893 H 0.77067 0.84278 0.41196 0.0
H2894 H 0.75559 0.84788 0.38494 0.0
H2895 H 0.76871 0.87339 0.409 0.0
C2896 C 0.47487 0.56797 0.76057 0.0
C2897 C 0.45278 0.55739 0.75649 0.0
C2898 C 0.48735 0.57033 0.78315 0.0
C2899 C 0.47733 0.56138 0.80151 0.0
C2900 C 0.45508 0.54991 0.79712 0.0
C2901 C 0.44302 0.54818 0.77455 0.0
C2902 C 0.511 0.58301 0.78759 0.0
C2903 C 0.44394 0.53977 0.81629 0.0
C2904 C 0.50564 0.54288 0.85492 0.0
C2905 C 0.50433 0.56126 0.87288 0.0
C2906 C 0.49828 0.54365 0.83106 0.0
C2907 C 0.48992 0.56354 0.82541 0.0
C2908 C 0.49049 0.58338 0.84342 0.0
C2909 C 0.49749 0.58183 0.86719 0.0
C2910 C 0.49739 0.52192 0.81228 0.0
C2911 C 0.48201 0.60508 0.83781 0.0
H2912 H 0.48219 0.57528 0.74641 0.0
H2913 H 0.42595 0.53958 0.77102 0.0
H2914 H 0.51468 0.60018 0.80103 0.0
H2915 H 0.52037 0.57081 0.79502 0.0
H2916 H 0.51641 0.58805 0.77109 0.0
H2917 H 0.42669 0.53042 0.80946 0.0
H2918 H 0.4517 0.52624 0.82384 0.0
H2919 H 0.44532 0.55508 0.83108 0.0
H2920 H 0.5108 0.52693 0.85965 0.0
H2921 H 0.49665 0.59599 0.88137 0.0
H2922 H 0.50311 0.52843 0.79647 0.0
H2923 H 0.48054 0.51062 0.80625 0.0
H2924 H 0.50711 0.50976 0.81917 0.0
H2925 H 0.48753 0.61176 0.82195 0.0
H2926 H 0.48708 0.62078 0.85307 0.0
H2927 H 0.46426 0.59908 0.8336 0.0
C2928 C 0.79432 0.24809 0.1023 0.0
C2929 C 0.8055 0.26441 0.08913 0.0
C2930 C 0.79337 0.25588 0.12637 0.0
C2931 C 0.80336 0.28083 0.13765 0.0
C2932 C 0.81404 0.29757 0.12416 0.0
C2933 C 0.81524 0.28913 0.10035 0.0
C2934 C 0.7821 0.23719 0.13994 0.0
C2935 C 0.82442 0.32448 0.13497 0.0
C2936 C 0.78773 0.3099 0.19407 0.0
C2937 C 0.80512 0.3106 0.21199 0.0
C2938 C 0.78648 0.2994 0.17008 0.0
C2939 C 0.80312 0.28945 0.1636 0.0
C2940 C 0.82031 0.2893 0.18189 0.0
C2941 C 0.82119 0.30003 0.20574 0.0
C2942 C 0.76789 0.30026 0.15145 0.0
C2943 C 0.83835 0.2788 0.1761 0.0
H2944 H 0.78688 0.22891 0.09402 0.0
H2945 H 0.82382 0.30199 0.09043 0.0
H2946 H 0.79361 0.23532 0.15545 0.0
H2947 H 0.76928 0.24372 0.14706 0.0
H2948 H 0.77491 0.21859 0.12868 0.0
H2949 H 0.83108 0.33548 0.12185 0.0
H2950 H 0.8126 0.33298 0.14213 0.0
H2951 H 0.83757 0.3258 0.15013 0.0
H2952 H 0.77556 0.31868 0.19866 0.0
H2953 H 0.83495 0.30112 0.21935 0.0
H2954 H 0.76055 0.28168 0.14027 0.0
H2955 H 0.77371 0.31323 0.13946 0.0
H2956 H 0.75535 0.3065 0.15951 0.0
H2957 H 0.83187 0.25983 0.16545 0.0
H2958 H 0.8495 0.27798 0.1924 0.0
H2959 H 0.84754 0.29051 0.1651 0.0
C2960 C 0.11636 0.51548 0.30288 0.0
C2961 C 0.10058 0.50461 0.28251 0.0
C2962 C 0.11285 0.53197 0.32103 0.0
C2963 C 0.09262 0.5368 0.31919 0.0
C2964 C 0.0769 0.52694 0.29815 0.0
C2965 C 0.08122 0.51117 0.2798 0.0
C2966 C 0.13034 0.54294 0.34279 0.0
C2967 C 0.05508 0.53171 0.29573 0.0
C2968 C 0.07252 0.54126 0.37671 0.0
C2969 C 0.07358 0.5665 0.38167 0.0
C2970 C 0.07875 0.53152 0.35637 0.0
C2971 C 0.08653 0.54759 0.34086 0.0
C2972 C 0.08832 0.57333 0.34614 0.0
C2973 C 0.08153 0.58253 0.36653 0.0
C2974 C 0.07656 0.50391 0.35129 0.0
C2975 C 0.09749 0.59106 0.33047 0.0
H2976 H 0.13156 0.51133 0.30484 0.0
H2977 H 0.06917 0.5032 0.26377 0.0
H2978 H 0.1312 0.56271 0.34891 0.0
H2979 H 0.12681 0.53271 0.35757 0.0
H2980 H 0.14626 0.5417 0.33927 0.0
H2981 H 0.04557 0.52506 0.27733 0.0
H2982 H 0.04615 0.522 0.3082 0.0
H2983 H 0.05658 0.55184 0.30066 0.0
H2984 H 0.06607 0.52893 0.38838 0.0
H2985 H 0.08237 0.60211 0.37064 0.0
H2986 H 0.09249 0.50056 0.35097 0.0
H2987 H 0.06634 0.49571 0.33348 0.0
H2988 H 0.06946 0.49398 0.36482 0.0
H2989 H 0.11477 0.59232 0.33172 0.0
H2990 H 0.09571 0.61001 0.33575 0.0
H2991 H 0.08962 0.58414 0.31152 0.0
C2992 C 0.8185 0.91239 0.62746 0.0
C2993 C 0.81431 0.89653 0.6054 0.0
C2994 C 0.81564 0.90301 0.6487 0.0
C2995 C 0.80799 0.87705 0.64802 0.0
C2996 C 0.8032 0.861 0.62561 0.0
C2997 C 0.80678 0.87087 0.60471 0.0
C2998 C 0.82124 0.92092 0.67201 0.0
C2999 C 0.79453 0.83331 0.62376 0.0
C3000 C 0.81769 0.84981 0.70571 0.0
C3001 C 0.79754 0.84562 0.71217 0.0
C3002 C 0.82134 0.85993 0.68492 0.0
C3003 C 0.80467 0.86677 0.67061 0.0
C3004 C 0.78462 0.86351 0.67783 0.0
C3005 C 0.78123 0.85262 0.69812 0.0
C3006 C 0.84285 0.86263 0.67786 0.0
C3007 C 0.76654 0.87117 0.66389 0.0
H3008 H 0.82484 0.93219 0.62823 0.0
H3009 H 0.80384 0.85848 0.58782 0.0
H3010 H 0.80713 0.91887 0.68073 0.0
H3011 H 0.83407 0.91657 0.68434 0.0
H3012 H 0.82677 0.94055 0.66959 0.0
H3013 H 0.79127 0.82335 0.60509 0.0
H3014 H 0.80614 0.82593 0.63485 0.0
H3015 H 0.77947 0.8292 0.63077 0.0
H3016 H 0.83028 0.84416 0.71629 0.0
H3017 H 0.76561 0.84944 0.703 0.0
H3018 H 0.84992 0.88221 0.67627 0.0
H3019 H 0.84087 0.85115 0.6601 0.0
H3020 H 0.85423 0.85682 0.6909 0.0
H3021 H 0.77189 0.89101 0.66214 0.0
H3022 H 0.75229 0.86851 0.67245 0.0
H3023 H 0.76174 0.86014 0.64561 0.0
C3024 C 0.74634 0.47362 0.56385 0.0
C3025 C 0.76268 0.48729 0.55398 0.0
C3026 C 0.72834 0.48232 0.56685 0.0
C3027 C 0.72629 0.50459 0.55882 0.0
C3028 C 0.74273 0.51822 0.54864 0.0
C3029 C 0.76083 0.50962 0.54673 0.0
C3030 C 0.71164 0.46776 0.57869 0.0
C3031 C 0.74112 0.5418 0.53945 0.0
C3032 C 0.67256 0.51686 0.53885 0.0
C3033 C 0.6732 0.53721 0.55607 0.0
C3034 C 0.68918 0.50514 0.54023 0.0
C3035 C 0.70664 0.51333 0.55973 0.0
C3036 C 0.70642 0.53223 0.57836 0.0
C3037 C 0.68988 0.54419 0.57617 0.0
C3038 C 0.68875 0.48512 0.51992 0.0
C3039 C 0.72424 0.54075 0.60002 0.0
H3040 H 0.74796 0.45659 0.56992 0.0
H3041 H 0.77351 0.52027 0.53922 0.0
H3042 H 0.70629 0.48038 0.59138 0.0
H3043 H 0.69744 0.45725 0.56497 0.0
H3044 H 0.71772 0.45428 0.58844 0.0
H3045 H 0.75501 0.54978 0.53139 0.0
H3046 H 0.72627 0.53805 0.52581 0.0
H3047 H 0.74018 0.55594 0.55422 0.0
H3048 H 0.65937 0.5106 0.52371 0.0
H3049 H 0.69064 0.55977 0.5897 0.0
H3050 H 0.69098 0.46823 0.52681 0.0
H3051 H 0.70218 0.49168 0.51071 0.0
H3052 H 0.67353 0.47998 0.50664 0.0
H3053 H 0.72852 0.52458 0.60664 0.0
H3054 H 0.71979 0.55202 0.61471 0.0
H3055 H 0.7387 0.55227 0.59517 0.0
C3056 C 0.20505 0.17166 0.53881 0.0
C3057 C 0.21133 0.18117 0.5188 0.0
C3058 C 0.18367 0.159 0.53857 0.0
C3059 C 0.16783 0.15571 0.51783 0.0
C3060 C 0.17387 0.16592 0.4978 0.0
C3061 C 0.19549 0.17845 0.49848 0.0
C3062 C 0.17818 0.14837 0.5603 0.0
C3063 C 0.15754 0.16316 0.47541 0.0
C3064 C 0.11843 0.10006 0.50606 0.0
C3065 C 0.10303 0.11053 0.51433 0.0
C3066 C 0.13956 0.1144 0.50761 0.0
C3067 C 0.14534 0.14024 0.51666 0.0
C3068 C 0.12971 0.15098 0.52486 0.0
C3069 C 0.10887 0.1359 0.52404 0.0
C3070 C 0.15571 0.10182 0.49951 0.0
C3071 C 0.13486 0.17849 0.53399 0.0
H3072 H 0.217 0.17366 0.55472 0.0
H3073 H 0.20003 0.18569 0.48293 0.0
H3074 H 0.1649 0.15493 0.56622 0.0
H3075 H 0.17262 0.1278 0.55573 0.0
H3076 H 0.19205 0.15353 0.57543 0.0
H3077 H 0.16433 0.17367 0.46206 0.0
H3078 H 0.1513 0.14326 0.4672 0.0
H3079 H 0.14374 0.16973 0.47981 0.0
H3080 H 0.11394 0.08045 0.49851 0.0
H3081 H 0.0969 0.14416 0.53008 0.0
H3082 H 0.16976 0.10522 0.51418 0.0
H3083 H 0.16158 0.10976 0.48435 0.0
H3084 H 0.14894 0.08144 0.49384 0.0
H3085 H 0.14791 0.18379 0.54995 0.0
H3086 H 0.12077 0.18417 0.53878 0.0
H3087 H 0.14067 0.18906 0.52022 0.0
C3088 C 0.21993 0.05447 0.82172 0.0
C3089 C 0.22774 0.06464 0.84603 0.0
C3090 C 0.22938 0.03845 0.80966 0.0
C3091 C 0.24733 0.03282 0.82211 0.0
C3092 C 0.25626 0.04426 0.84612 0.0
C3093 C 0.24625 0.06013 0.85794 0.0
C3094 C 0.21925 0.02646 0.78412 0.0
C3095 C 0.27575 0.03876 0.85957 0.0
C3096 C 0.25787 0.97097 0.80488 0.0
C3097 C 0.27567 0.97793 0.79417 0.0
C3098 C 0.24789 0.98862 0.81331 0.0
C3099 C 0.25585 0.01358 0.81061 0.0
C3100 C 0.27254 0.02026 0.79794 0.0
C3101 C 0.28243 0.0023 0.78997 0.0
C3102 C 0.22954 0.98081 0.82606 0.0
C3103 C 0.2806 0.04658 0.79383 0.0
H3104 H 0.20584 0.05833 0.81212 0.0
H3105 H 0.25238 0.06816 0.8766 0.0
H3106 H 0.23155 0.02529 0.77314 0.0
H3107 H 0.20964 0.00723 0.78379 0.0
H3108 H 0.20845 0.03671 0.77568 0.0
H3109 H 0.28164 0.05058 0.87748 0.0
H3110 H 0.27181 0.01898 0.86183 0.0
H3111 H 0.28884 0.0417 0.84928 0.0
H3112 H 0.25223 0.95189 0.8074 0.0
H3113 H 0.29613 0.00765 0.78157 0.0
H3114 H 0.21555 0.98687 0.81809 0.0
H3115 H 0.23434 0.98993 0.84505 0.0
H3116 H 0.22449 0.96037 0.82534 0.0
H3117 H 0.26705 0.05366 0.78633 0.0
H3118 H 0.29211 0.04807 0.78149 0.0
H3119 H 0.28864 0.05881 0.81111 0.0
C3120 C 0.38008 0.01684 0.03531 0.0
C3121 C 0.37619 0.99337 0.04215 0.0
C3122 C 0.40102 0.03057 0.03518 0.0
C3123 C 0.41839 0.02041 0.04173 0.0
C3124 C 0.41456 0.99682 0.0488 0.0
C3125 C 0.39356 0.98371 0.04909 0.0
C3126 C 0.40457 0.05584 0.02787 0.0
C3127 C 0.43261 0.98521 0.05569 0.0
C3128 C 0.46831 0.03985 0.01595 0.0
C3129 C 0.48302 0.05495 0.03572 0.0
C3130 C 0.44718 0.02885 0.01765 0.0
C3131 C 0.44041 0.03344 0.03954 0.0
C3132 C 0.45503 0.04917 0.05945 0.0
C3133 C 0.47629 0.05954 0.05738 0.0
C3134 C 0.43226 0.0117 0.99619 0.0
C3135 C 0.44826 0.05486 0.08295 0.0
H3136 H 0.36679 0.02461 0.03029 0.0
H3137 H 0.39085 0.96584 0.05484 0.0
H3138 H 0.41663 0.06986 0.04177 0.0
H3139 H 0.41098 0.05549 0.01115 0.0
H3140 H 0.3896 0.06186 0.02494 0.0
H3141 H 0.42698 0.96696 0.06129 0.0
H3142 H 0.44066 0.98252 0.04036 0.0
H3143 H 0.44479 0.99776 0.07053 0.0
H3144 H 0.47348 0.03604 0.99921 0.0
H3145 H 0.48758 0.07137 0.07264 0.0
H3146 H 0.41772 0.01817 0.99152 0.0
H3147 H 0.42699 0.99275 1.00045 0.0
H3148 H 0.43991 0.0105 0.98033 0.0
H3149 H 0.43444 0.06298 0.08027 0.0
H3150 H 0.46139 0.06801 0.09649 0.0
H3151 H 0.44294 0.03747 0.09008 0.0
C3152 C 0.89753 0.7172 0.82687 0.0
C3153 C 0.91673 0.72306 0.81839 0.0
C3154 C 0.88012 0.72566 0.81757 0.0
C3155 C 0.8821 0.74051 0.79957 0.0
C3156 C 0.90114 0.74575 0.79032 0.0
C3157 C 0.91823 0.73686 0.79979 0.0
C3158 C 0.86004 0.71983 0.82787 0.0
C3159 C 0.9039 0.76188 0.77136 0.0
C3160 C 0.83322 0.75691 0.7683 0.0
C3161 C 0.83602 0.78057 0.78122 0.0
C3162 C 0.84815 0.74335 0.77403 0.0
C3163 C 0.86573 0.75378 0.79326 0.0
C3164 C 0.86803 0.77737 0.80671 0.0
C3165 C 0.85318 0.79049 0.80043 0.0
C3166 C 0.84549 0.71829 0.75929 0.0
C3167 C 0.88638 0.78903 0.82753 0.0
H3168 H 0.89614 0.70618 0.84096 0.0
H3169 H 0.93299 0.74132 0.79306 0.0
H3170 H 0.85851 0.73702 0.83838 0.0
H3171 H 0.84569 0.71294 0.81339 0.0
H3172 H 0.86011 0.70572 0.83971 0.0
H3173 H 0.91858 0.76167 0.76406 0.0
H3174 H 0.88984 0.75566 0.75648 0.0
H3175 H 0.90501 0.78134 0.77906 0.0
H3176 H 0.81989 0.74947 0.75341 0.0
H3177 H 0.85504 0.80877 0.81053 0.0
H3178 H 0.84521 0.70402 0.77096 0.0
H3179 H 0.85936 0.71887 0.75034 0.0
H3180 H 0.83058 0.71247 0.74547 0.0
H3181 H 0.88651 0.77656 0.84097 0.0
H3182 H 0.88542 0.80733 0.83641 0.0
H3183 H 0.90183 0.79171 0.82133 0.0
C3184 C 0.82822 0.66419 0.02092 0.0
C3185 C 0.82968 0.68967 0.02466 0.0
C3186 C 0.84667 0.6555 0.02434 0.0
C3187 C 0.86708 0.67266 0.03245 0.0
C3188 C 0.86849 0.69838 0.03759 0.0
C3189 C 0.84983 0.70659 0.0332 0.0
C3190 C 0.84438 0.62799 0.01821 0.0
C3191 C 0.88977 0.71727 0.04712 0.0
C3192 C 0.91238 0.64478 0.05529 0.0
C3193 C 0.92203 0.64231 0.03528 0.0
C3194 C 0.89503 0.65544 0.05499 0.0
C3195 C 0.88691 0.66369 0.03411 0.0
C3196 C 0.89704 0.66204 0.01418 0.0
C3197 C 0.91442 0.65145 0.01501 0.0
C3198 C 0.88507 0.65735 0.07684 0.0
C3199 C 0.88896 0.67057 0.99154 0.0
H3200 H 0.8127 0.65105 0.01411 0.0
H3201 H 0.85104 0.7263 0.03639 0.0
H3202 H 0.85293 0.62445 0.0035 0.0
H3203 H 0.85182 0.6212 0.03378 0.0
H3204 H 0.82738 0.61702 0.01261 0.0
H3205 H 0.88789 0.73607 0.05294 0.0
H3206 H 0.89874 0.71155 0.06245 0.0
H3207 H 0.89961 0.7184 0.03309 0.0
H3208 H 0.91832 0.63819 0.0712 0.0
H3209 H 0.92153 0.64944 0.99935 0.0
H3210 H 0.86863 0.64477 0.0729 0.0
H3211 H 0.88373 0.67652 0.08182 0.0
H3212 H 0.89444 0.65232 0.09235 0.0
H3213 H 0.87239 0.65922 0.98377 0.0
H3214 H 0.89913 0.66902 0.97799 0.0
H3215 H 0.88843 0.69018 0.99549 0.0
C3216 C 0.22413 0.18631 0.85373 0.0
C3217 C 0.21132 0.16403 0.83941 0.0
C3218 C 0.23527 0.20563 0.84372 0.0
C3219 C 0.23374 0.20264 0.81872 0.0
C3220 C 0.22008 0.18072 0.804 0.0
C3221 C 0.20891 0.16164 0.81454 0.0
C3222 C 0.2493 0.22893 0.86005 0.0
C3223 C 0.21792 0.17705 0.77725 0.0
C3224 C 0.25456 0.26268 0.79637 0.0
C3225 C 0.27604 0.26306 0.79724 0.0
C3226 C 0.24017 0.24251 0.80217 0.0
C3227 C 0.24748 0.22208 0.8085 0.0
C3228 C 0.26898 0.22188 0.80811 0.0
C3229 C 0.28312 0.24263 0.8029 0.0
C3230 C 0.21764 0.24395 0.80309 0.0
C3231 C 0.27729 0.20024 0.81423 0.0
H3232 H 0.22585 0.1885 0.87297 0.0
H3233 H 0.19904 0.1445 0.80339 0.0
H3234 H 0.26634 0.23055 0.85915 0.0
H3235 H 0.24537 0.2456 0.85422 0.0
H3236 H 0.24752 0.22904 0.87893 0.0
H3237 H 0.20563 0.15971 0.76825 0.0
H3238 H 0.2136 0.19302 0.77026 0.0
H3239 H 0.23352 0.17625 0.7725 0.0
H3240 H 0.24928 0.27871 0.7924 0.0
H3241 H 0.29976 0.24293 0.80334 0.0
H3242 H 0.21662 0.25014 0.82185 0.0
H3243 H 0.2059 0.22557 0.79671 0.0
H3244 H 0.213 0.25744 0.79223 0.0
H3245 H 0.27833 0.19976 0.83357 0.0
H3246 H 0.29341 0.20148 0.80995 0.0
H3247 H 0.26614 0.18246 0.80439 0.0
C3248 C 0.43325 0.10651 0.33568 0.0
C3249 C 0.42801 0.12718 0.32807 0.0
C3250 C 0.42038 0.0826 0.32587 0.0
C3251 C 0.40163 0.07965 0.3086 0.0
C3252 C 0.3968 0.10055 0.3002 0.0
C3253 C 0.41027 0.12424 0.30997 0.0
C3254 C 0.4264 0.06059 0.33468 0.0
C3255 C 0.37701 0.09799 0.28177 0.0
C3256 C 0.37726 0.0123 0.28179 0.0
C3257 C 0.36416 0.00501 0.29806 0.0
C3258 C 0.38812 0.0373 0.28336 0.0
C3259 C 0.38599 0.05502 0.30189 0.0
C3260 C 0.37116 0.04801 0.31682 0.0
C3261 C 0.36031 0.02299 0.31463 0.0
C3262 C 0.40332 0.04421 0.26665 0.0
C3263 C 0.36843 0.06644 0.33677 0.0
H3264 H 0.44734 0.10909 0.34936 0.0
H3265 H 0.40661 0.14052 0.304 0.0
H3266 H 0.41428 0.05156 0.34454 0.0
H3267 H 0.42658 0.0466 0.31938 0.0
H3268 H 0.44235 0.066 0.34668 0.0
H3269 H 0.37711 0.11555 0.27485 0.0
H3270 H 0.3755 0.08302 0.26659 0.0
H3271 H 0.36262 0.09271 0.28982 0.0
H3272 H 0.37994 0.99828 0.26875 0.0
H3273 H 0.35023 0.01728 0.32727 0.0
H3274 H 0.41976 0.04491 0.27553 0.0
H3275 H 0.40355 0.06279 0.26201 0.0
H3276 H 0.39898 0.03033 0.24995 0.0
H3277 H 0.38299 0.07173 0.35103 0.0
H3278 H 0.35441 0.05869 0.34472 0.0
H3279 H 0.36648 0.08362 0.33025 0.0
C3280 C 0.57865 0.41132 0.57996 0.0
C3281 C 0.56877 0.4089 0.59972 0.0
C3282 C 0.57685 0.43037 0.56655 0.0
C3283 C 0.56493 0.44725 0.57314 0.0
C3284 C 0.55545 0.44508 0.5935 0.0
C3285 C 0.5574 0.42593 0.60637 0.0
C3286 C 0.58706 0.43194 0.54488 0.0
C3287 C 0.5428 0.46269 0.60147 0.0
C3288 C 0.57362 0.51083 0.55435 0.0
C3289 C 0.55474 0.50804 0.53773 0.0
C3290 C 0.57746 0.49105 0.56538 0.0
C3291 C 0.56238 0.46747 0.55918 0.0
C3292 C 0.54377 0.46416 0.5415 0.0
C3293 C 0.53994 0.48461 0.53134 0.0
C3294 C 0.59708 0.49586 0.58472 0.0
C3295 C 0.52757 0.43919 0.53383 0.0
H3296 H 0.58699 0.39781 0.57445 0.0
H3297 H 0.54945 0.4238 0.62145 0.0
H3298 H 0.57453 0.42936 0.52874 0.0
H3299 H 0.59821 0.45061 0.54653 0.0
H3300 H 0.59601 0.41772 0.54227 0.0
H3301 H 0.53726 0.45916 0.61829 0.0
H3302 H 0.5527 0.48219 0.6042 0.0
H3303 H 0.52859 0.46079 0.58744 0.0
H3304 H 0.58504 0.52895 0.55972 0.0
H3305 H 0.52536 0.48229 0.5185 0.0
H3306 H 0.60599 0.48179 0.58135 0.0
H3307 H 0.59211 0.49427 0.60214 0.0
H3308 H 0.60807 0.51464 0.58613 0.0
H3309 H 0.53571 0.42448 0.5297 0.0
H3310 H 0.51546 0.43886 0.51792 0.0
H3311 H 0.51916 0.43453 0.54861 0.0
C3312 C 0.44191 0.81722 0.37897 0.0
C3313 C 0.45763 0.81518 0.36547 0.0
C3314 C 0.42185 0.81968 0.36827 0.0
C3315 C 0.4171 0.81925 0.34331 0.0
C3316 C 0.43316 0.81771 0.32974 0.0
C3317 C 0.45328 0.81608 0.34104 0.0
C3318 C 0.40554 0.82206 0.38359 0.0
C3319 C 0.42879 0.81672 0.30308 0.0
C3320 C 0.35939 0.79308 0.30993 0.0
C3321 C 0.35331 0.81447 0.30517 0.0
C3322 C 0.3798 0.79452 0.32283 0.0
C3323 C 0.39485 0.81797 0.331 0.0
C3324 C 0.38874 0.83975 0.32656 0.0
C3325 C 0.36798 0.83775 0.31384 0.0
C3326 C 0.38537 0.7708 0.32735 0.0
C3327 C 0.40423 0.86512 0.33491 0.0
H3328 H 0.4453 0.81702 0.39795 0.0
H3329 H 0.46537 0.81449 0.33052 0.0
H3330 H 0.39879 0.83777 0.37992 0.0
H3331 H 0.39208 0.80493 0.37918 0.0
H3332 H 0.41248 0.82504 0.40293 0.0
H3333 H 0.44327 0.81687 0.29528 0.0
H3334 H 0.41613 0.79955 0.29451 0.0
H3335 H 0.42281 0.83272 0.29865 0.0
H3336 H 0.3481 0.77501 0.3035 0.0
H3337 H 0.36343 0.85433 0.31023 0.0
H3338 H 0.3905 0.77153 0.34677 0.0
H3339 H 0.39899 0.76871 0.31876 0.0
H3340 H 0.3717 0.7541 0.32039 0.0
H3341 H 0.41006 0.86804 0.35447 0.0
H3342 H 0.39691 0.88028 0.33064 0.0
H3343 H 0.41842 0.86643 0.32639 0.0
C3344 C 0.05188 0.77229 0.08272 0.0
C3345 C 0.06477 0.78597 0.10429 0.0
C3346 C 0.05376 0.74876 0.07358 0.0
C3347 C 0.06857 0.73839 0.08658 0.0
C3348 C 0.08227 0.75254 0.10782 0.0
C3349 C 0.08035 0.77626 0.11631 0.0
C3350 C 0.03921 0.73452 0.05055 0.0
C3351 C 0.09806 0.74204 0.12237 0.0
C3352 C 0.0512 0.66806 0.07831 0.0
C3353 C 0.0642 0.66128 0.063 0.0
C3354 C 0.05316 0.69309 0.08688 0.0
C3355 C 0.06802 0.71185 0.07931 0.0
C3356 C 0.08145 0.70507 0.06408 0.0
C3357 C 0.07957 0.67977 0.05635 0.0
C3358 C 0.03887 0.69944 0.10352 0.0
C3359 C 0.097 0.72448 0.05503 0.0
H3360 H 0.03996 0.77977 0.07318 0.0
H3361 H 0.09035 0.78665 0.13302 0.0
H3362 H 0.04851 0.72676 0.03849 0.0
H3363 H 0.02717 0.71867 0.05436 0.0
H3364 H 0.03061 0.74633 0.04109 0.0
H3365 H 0.10889 0.75617 0.13721 0.0
H3366 H 0.08923 0.72644 0.13001 0.0
H3367 H 0.10791 0.73447 0.11091 0.0
H3368 H 0.03928 0.65369 0.08339 0.0
H3369 H 0.08934 0.67445 0.04413 0.0
H3370 H 0.02751 0.70866 0.0945 0.0
H3371 H 0.04858 0.71266 0.11961 0.0
H3372 H 0.02951 0.68273 0.10927 0.0
H3373 H 0.08797 0.73404 0.04313 0.0
H3374 H 0.10747 0.71631 0.04491 0.0
H3375 H 0.10719 0.73881 0.07005 0.0
C3376 C 0.08892 0.34055 0.88657 0.0
C3377 C 0.07574 0.31666 0.87657 0.0
C3378 C 0.10924 0.34906 0.88085 0.0
C3379 C 0.1165 0.33327 0.8648 0.0
C3380 C 0.10341 0.30902 0.85506 0.0
C3381 C 0.08325 0.30107 0.86102 0.0
C3382 C 0.1226 0.37513 0.89142 0.0
C3383 C 0.11057 0.29151 0.83797 0.0
C3384 C 0.15599 0.3534 0.82523 0.0
C3385 C 0.17371 0.34604 0.8358 0.0
C3386 C 0.13791 0.35159 0.83575 0.0
C3387 C 0.13737 0.34188 0.85721 0.0
C3388 C 0.15587 0.33646 0.86901 0.0
C3389 C 0.17383 0.33861 0.85817 0.0
C3390 C 0.11872 0.35814 0.82284 0.0
C3391 C 0.15614 0.32664 0.89221 0.0
H3392 H 0.08321 0.35279 0.89853 0.0
H3393 H 0.07327 0.28257 0.85327 0.0
H3394 H 0.13951 0.37539 0.89783 0.0
H3395 H 0.12246 0.38702 0.87747 0.0
H3396 H 0.11642 0.38344 0.90647 0.0
H3397 H 0.09878 0.27301 0.83256 0.0
H3398 H 0.11299 0.29959 0.82168 0.0
H3399 H 0.12611 0.2889 0.8463 0.0
H3400 H 0.15563 0.35913 0.80794 0.0
H3401 H 0.18768 0.33358 0.86682 0.0
H3402 H 0.11178 0.36886 0.83551 0.0
H3403 H 0.1062 0.34082 0.81438 0.0
H3404 H 0.12284 0.36917 0.80872 0.0
H3405 H 0.14922 0.33758 0.90473 0.0
H3406 H 0.17259 0.32708 0.90094 0.0
H3407 H 0.14613 0.30714 0.88873 0.0
C3408 C 0.53445 0.74307 0.94668 0.0
C3409 C 0.52187 0.75755 0.9558 0.0
C3410 C 0.53736 0.72204 0.95632 0.0
C3411 C 0.52777 0.71541 0.97584 0.0
C3412 C 0.51555 0.73035 0.98552 0.0
C3413 C 0.51262 0.75104 0.97531 0.0
C3414 C 0.55027 0.70651 0.9452 0.0
C3415 C 0.50519 0.7242 0.00642 0.0
C3416 C 0.51849 0.64832 0.98692 0.0
C3417 C 0.53545 0.6503 0.00584 0.0
C3418 C 0.51568 0.6693 0.97714 0.0
C3419 C 0.53044 0.69286 0.98611 0.0
C3420 C 0.54772 0.69489 0.00504 0.0
C3421 C 0.54988 0.67371 0.01481 0.0
C3422 C 0.49687 0.66623 0.95722 0.0
C3423 C 0.56406 0.71945 0.01486 0.0
H3424 H 0.54137 0.7476 0.93137 0.0
H3425 H 0.50281 0.76197 0.98246 0.0
H3426 H 0.56345 0.70479 0.95894 0.0
H3427 H 0.53996 0.68747 0.93787 0.0
H3428 H 0.55722 0.71449 0.93059 0.0
H3429 H 0.49661 0.73796 0.01225 0.0
H3430 H 0.49363 0.70555 1.00157 0.0
H3431 H 0.51748 0.72353 0.02172 0.0
H3432 H 0.50724 0.63034 0.97989 0.0
H3433 H 0.56321 0.67542 0.0292 0.0
H3434 H 0.50262 0.6719 0.94111 0.0
H3435 H 0.48687 0.67852 0.9625 0.0
H3436 H 0.48668 0.64678 0.95247 0.0
H3437 H 0.57178 0.72667 1.00041 0.0
H3438 H 0.57671 0.71794 0.0294 0.0
H3439 H 0.55607 0.73332 0.02183 0.0
C3440 C 0.13852 0.84831 0.72314 0.0
C3441 C 0.13564 0.8561 0.70094 0.0
C3442 C 0.15796 0.84417 0.73305 0.0
C3443 C 0.17514 0.84835 0.72069 0.0
C3444 C 0.17238 0.85616 0.69823 0.0
C3445 C 0.15253 0.85972 0.68847 0.0
C3446 C 0.16013 0.83542 0.75684 0.0
C3447 C 0.19047 0.86101 0.68468 0.0
C3448 C 0.23125 0.862 0.75724 0.0
C3449 C 0.23575 0.83891 0.75304 0.0
C3450 C 0.21156 0.86529 0.74687 0.0
C3451 C 0.19612 0.84509 0.73162 0.0
C3452 C 0.20055 0.82171 0.72729 0.0
C3453 C 0.22029 0.81885 0.73818 0.0
C3454 C 0.20728 0.89038 0.75228 0.0
C3455 C 0.18448 0.79977 0.7111 0.0
H3456 H 0.12542 0.84512 0.73273 0.0
H3457 H 0.15036 0.86572 0.67131 0.0
H3458 H 0.16501 0.81784 0.7552 0.0
H3459 H 0.17282 0.84939 0.77012 0.0
H3460 H 0.14499 0.83228 0.76377 0.0
H3461 H 0.18569 0.86673 0.66733 0.0
H3462 H 0.20422 0.87586 0.69554 0.0
H3463 H 0.1961 0.84407 0.68133 0.0
H3464 H 0.2431 0.87755 0.76876 0.0
H3465 H 0.22375 0.80101 0.73468 0.0
H3466 H 0.19294 0.88858 0.76059 0.0
H3467 H 0.20385 0.89766 0.7355 0.0
H3468 H 0.22099 0.90417 0.76452 0.0
H3469 H 0.16937 0.79544 0.718 0.0
H3470 H 0.19045 0.7829 0.70945 0.0
H3471 H 0.18056 0.80436 0.69305 0.0
C3472 C 0.04269 0.40233 0.44533 0.0
C3473 C 0.02414 0.38566 0.4489 0.0
C3474 C 0.04803 0.42795 0.45507 0.0
C3475 C 0.03451 0.43737 0.46865 0.0
C3476 C 0.01562 0.4207 0.47192 0.0
C3477 C 0.01076 0.39529 0.46217 0.0
C3478 C 0.06836 0.44493 0.45116 0.0
C3479 C 1.00063 0.42961 0.48618 0.0
C3480 C 0.05702 0.49371 0.51833 0.0
C3481 C 0.04963 0.51253 0.50875 0.0
C3482 C 0.05287 0.4697 0.50518 0.0
C3483 C 0.04098 0.46392 0.48154 0.0
C3484 C 0.03406 0.48305 0.47133 0.0
C3485 C 0.03845 0.50715 0.48504 0.0
C3486 C 0.06056 0.45017 0.51705 0.0
C3487 C 0.02142 0.47784 0.44619 0.0
H3488 H 0.0531 0.39537 0.43497 0.0
H3489 H 0.99624 0.38291 0.46497 0.0
H3490 H 0.06487 0.46113 0.44383 0.0
H3491 H 0.07964 0.45223 0.46848 0.0
H3492 H 0.07636 0.4353 0.4388 0.0
H3493 H 0.98589 0.41473 0.48578 0.0
H3494 H 0.0089 0.43644 0.50503 0.0
H3495 H 0.99594 0.44539 0.47919 0.0
H3496 H 0.06573 0.49757 0.53658 0.0
H3497 H 0.03262 0.52147 0.47745 0.0
H3498 H 0.06983 0.44124 0.50582 0.0
H3499 H 0.04659 0.43541 0.51904 0.0
H3500 H 0.07075 0.45796 0.53497 0.0
H3501 H 0.02998 0.46928 0.43375 0.0
H3502 H 0.01855 0.49493 0.44017 0.0
H3503 H 0.00573 0.46432 0.4451 0.0
C3504 C 0.5226 0.33744 0.21521 0.0
C3505 C 0.51963 0.33859 0.19074 0.0
C3506 C 0.50686 0.34051 0.22849 0.0
C3507 C 0.48755 0.34442 0.21698 0.0
C3508 C 0.48411 0.34452 0.1921 0.0
C3509 C 0.50021 0.34174 0.17933 0.0
C3510 C 0.51126 0.34053 0.25501 0.0
C3511 C 0.46371 0.34848 0.17909 0.0
C3512 C 0.4378 0.33465 0.2448 0.0
C3513 C 0.43782 0.35917 0.25324 0.0
C3514 C 0.45426 0.32951 0.23373 0.0
C3515 C 0.47117 0.34935 0.23093 0.0
C3516 C 0.47169 0.37408 0.24018 0.0
C3517 C 0.45504 0.37868 0.25122 0.0
C3518 C 0.45323 0.30288 0.22439 0.0
C3519 C 0.48947 0.39579 0.23773 0.0
H3520 H 0.53765 0.33533 0.22426 0.0
H3521 H 0.4978 0.34278 0.16048 0.0
H3522 H 0.51102 0.3587 0.26481 0.0
H3523 H 0.49853 0.32609 0.25973 0.0
H3524 H 0.527 0.33705 0.26125 0.0
H3525 H 0.46305 0.34684 0.15955 0.0
H3526 H 0.44964 0.33473 0.18232 0.0
H3527 H 0.46235 0.36723 0.18602 0.0
H3528 H 0.42477 0.31943 0.2467 0.0
H3529 H 0.45514 0.39768 0.25754 0.0
H3530 H 0.46843 0.29864 0.23143 0.0
H3531 H 0.45119 0.3 0.20466 0.0
H3532 H 0.43981 0.28951 0.22932 0.0
H3533 H 0.50527 0.39295 0.24473 0.0
H3534 H 0.48837 0.41369 0.24734 0.0
H3535 H 0.48885 0.39716 0.21859 0.0
C3536 C 0.63266 0.59708 0.39973 0.0
C3537 C 0.65259 0.60932 0.414 0.0
C3538 C 0.6152 0.58766 0.40991 0.0
C3539 C 0.6176 0.59192 0.43497 0.0
C3540 C 0.63772 0.60486 0.44955 0.0
C3541 C 0.65525 0.61291 0.43876 0.0
C3542 C 0.59409 0.57367 0.39381 0.0
C3543 C 0.64115 0.61059 0.47638 0.0
C3544 C 0.56701 0.59445 0.45639 0.0
C3545 C 0.5615 0.5717 0.46421 0.0
C3546 C 0.58548 0.60139 0.44714 0.0
C3547 C 0.59843 0.58481 0.44534 0.0
C3548 C 0.59256 0.56134 0.45247 0.0
C3549 C 0.57394 0.55495 0.46193 0.0
C3550 C 0.59162 0.62688 0.44034 0.0
C3551 C 0.60638 0.54358 0.45094 0.0
H3552 H 0.63061 0.59476 0.38056 0.0
H3553 H 0.67085 0.62244 0.44962 0.0
H3554 H 0.58766 0.55571 0.39956 0.0
H3555 H 0.58222 0.5846 0.39507 0.0
H3556 H 0.59559 0.56988 0.37483 0.0
H3557 H 0.65046 0.63024 0.48286 0.0
H3558 H 0.62608 0.60739 0.48333 0.0
H3559 H 0.65095 0.59888 0.48398 0.0
H3560 H 0.55732 0.60733 0.45863 0.0
H3561 H 0.56986 0.53773 0.46885 0.0
H3562 H 0.59267 0.62518 0.42119 0.0
H3563 H 0.60766 0.63744 0.45078 0.0
H3564 H 0.57999 0.63774 0.44359 0.0
H3565 H 0.60831 0.53902 0.43223 0.0
H3566 H 0.59957 0.52606 0.45728 0.0
H3567 H 0.62258 0.55254 0.46185 0.0
C3568 C 0.33787 0.89567 0.11632 0.0
C3569 C 0.32002 0.89818 0.10077 0.0
C3570 C 0.33613 0.88818 0.13843 0.0
C3571 C 0.31593 0.88238 0.14516 0.0
C3572 C 0.29769 0.88422 0.12938 0.0
C3573 C 0.29998 0.89242 0.10751 0.0
C3574 C 0.35609 0.88702 0.15482 0.0
C3575 C 0.27581 0.87782 0.13578 0.0
C3576 C 0.3093 0.84155 0.19294 0.0
C3577 C 0.31187 0.85905 0.21354 0.0
C3578 C 0.31054 0.84888 0.17064 0.0
C3579 C 0.31404 0.87432 0.1687 0.0
C3580 C 0.31662 0.8921 0.18945 0.0
C3581 C 0.31569 0.88429 0.21163 0.0
C3582 C 0.30818 0.82937 0.14913 0.0
C3583 C 0.32036 0.91941 0.18823 0.0
H3584 H 0.35356 0.90049 0.11167 0.0
H3585 H 0.28614 0.89448 0.09579 0.0
H3586 H 0.35858 0.8998 0.17195 0.0
H3587 H 0.35425 0.86801 0.159 0.0
H3588 H 0.37063 0.89217 0.14695 0.0
H3589 H 0.26314 0.87954 0.12137 0.0
H3590 H 0.27177 0.85852 0.13944 0.0
H3591 H 0.27579 0.89028 0.15232 0.0
H3592 H 0.30643 0.82202 0.19426 0.0
H3593 H 0.31746 0.89791 0.2274 0.0
H3594 H 0.32291 0.83326 0.14149 0.0
H3595 H 0.29475 0.82996 0.1351 0.0
H3596 H 0.3052 0.81033 0.15353 0.0
H3597 H 0.33551 0.92626 0.18194 0.0
H3598 H 0.32127 0.93075 0.2058 0.0
H3599 H 0.30727 0.92234 0.17517 0.0
C3600 C 0.01702 0.65679 0.87403 0.0
C3601 C 0.00412 0.67306 0.87677 0.0
C3602 C 0.02255 0.64401 0.89241 0.0
C3603 C 0.01483 0.64748 0.91389 0.0
C3604 C 1.00131 0.66331 0.91647 0.0
C3605 C 0.99638 0.67616 0.89802 0.0
C3606 C 0.03719 0.62741 0.88917 0.0
C3607 C 0.99267 0.66739 0.93905 0.0
C3608 C 0.02102 0.60341 0.95778 0.0
C3609 C 0.04008 0.61711 0.97318 0.0
C3610 C 0.01231 0.61314 0.93843 0.0
C3611 C 0.02299 0.637 0.93465 0.0
C3612 C 0.04185 0.65111 0.95068 0.0
C3613 C 0.05013 0.64098 0.96973 0.0
C3614 C 0.99199 0.59779 0.92182 0.0
C3615 C 0.05356 0.67676 0.94747 0.0
H3616 H 0.02294 0.65417 0.8576 0.0
H3617 H 0.98671 0.689 0.90052 0.0
H3618 H 0.0526 0.6353 0.90197 0.0
H3619 H 0.03 0.60874 0.89306 0.0
H3620 H 0.04056 0.6253 0.87081 0.0
H3621 H 0.9802 0.67766 0.93701 0.0
H3622 H 0.98573 0.64937 0.94439 0.0
H3623 H 0.00591 0.6782 0.9538 0.0
H3624 H 0.01321 0.58497 0.96054 0.0
H3625 H 0.06474 0.65173 0.98183 0.0
H3626 H 0.99531 0.5931 0.90375 0.0
H3627 H 0.97993 0.60861 0.92016 0.0
H3628 H 0.98499 0.58026 0.92804 0.0
H3629 H 0.05875 0.67575 0.93001 0.0
H3630 H 0.06787 0.68537 0.96177 0.0
H3631 H 0.04273 0.68913 0.94739 0.0
C3632 C 0.30628 0.28978 0.59208 0.0
C3633 C 0.29283 0.26759 0.57817 0.0
C3634 C 0.30449 0.29719 0.61582 0.0
C3635 C 0.28923 0.28178 0.6262 0.0
C3636 C 0.2752 0.25975 0.61205 0.0
C3637 C 0.27701 0.25309 0.5882 0.0
C3638 C 0.31943 0.32114 0.63003 0.0
C3639 C 0.25897 0.24251 0.62244 0.0
C3640 C 0.30288 0.28592 0.69367 0.0
C3641 C 0.28905 0.29918 0.70166 0.0
C3642 C 0.30275 0.27974 0.66921 0.0
C3643 C 0.28896 0.28773 0.65225 0.0
C3644 C 0.2751 0.30137 0.66027 0.0
C3645 C 0.27507 0.3066 0.68486 0.0
C3646 C 0.31747 0.2647 0.66153 0.0
C3647 C 0.26074 0.31106 0.64294 0.0
H3648 H 0.3185 0.3012 0.58454 0.0
H3649 H 0.26663 0.23582 0.57777 0.0
H3650 H 0.31032 0.3324 0.63915 0.0
H3651 H 0.33102 0.31697 0.64406 0.0
H3652 H 0.32854 0.33246 0.61867 0.0
H3653 H 0.24855 0.22673 0.60883 0.0
H3654 H 0.26738 0.23494 0.6368 0.0
H3655 H 0.24872 0.25281 0.63061 0.0
H3656 H 0.31379 0.28024 0.70661 0.0
H3657 H 0.2647 0.31734 0.69101 0.0
H3658 H 0.32925 0.27581 0.65253 0.0
H3659 H 0.30812 0.24791 0.64848 0.0
H3660 H 0.32635 0.25878 0.67682 0.0
H3661 H 0.27061 0.32384 0.63332 0.0
H3662 H 0.25076 0.32116 0.65197 0.0
H3663 H 0.25003 0.29551 0.62937 0.0
C3664 C 0.64276 0.61673 0.30714 0.0
C3665 C 0.64553 0.59338 0.31004 0.0
C3666 C 0.64109 0.62364 0.28454 0.0
C3667 C 0.64207 0.60658 0.26474 0.0
C3668 C 0.64726 0.58415 0.26823 0.0
C3669 C 0.6487 0.57768 0.29095 0.0
C3670 C 0.63599 0.64793 0.28149 0.0
C3671 C 0.64899 0.5658 0.24762 0.0
C3672 C 0.60315 0.60375 0.2082 0.0
C3673 C 0.61669 0.61604 0.19449 0.0
C3674 C 0.61137 0.60034 0.23104 0.0
C3675 C 0.6336 0.60981 0.24038 0.0
C3676 C 0.64736 0.62217 0.22653 0.0
C3677 C 0.6387 0.62506 0.20359 0.0
C3678 C 0.59623 0.58663 0.24517 0.0
C3679 C 0.67107 0.63277 0.23602 0.0
H3680 H 0.64015 0.62867 0.32207 0.0
H3681 H 0.65079 0.55958 0.29346 0.0
H3682 H 0.64538 0.65731 0.26923 0.0
H3683 H 0.61878 0.64425 0.27348 0.0
H3684 H 0.63933 0.66072 0.2988 0.0
H3685 H 0.65709 0.55191 0.25383 0.0
H3686 H 0.6327 0.55576 0.23754 0.0
H3687 H 0.65793 0.57546 0.23515 0.0
H3688 H 0.58616 0.59656 0.2009 0.0
H3689 H 0.64906 0.63474 0.19288 0.0
H3690 H 0.59648 0.59898 0.26189 0.0
H3691 H 0.60144 0.57036 0.25026 0.0
H3692 H 0.57949 0.57999 0.23503 0.0
H3693 H 0.67373 0.6498 0.24935 0.0
H3694 H 0.67996 0.63774 0.22164 0.0
H3695 H 0.67788 0.61942 0.24516 0.0
C3696 C 0.30206 0.91479 0.9595 0.0
C3697 C 0.31537 0.90514 0.97512 0.0
C3698 C 0.29775 0.9065 0.93452 0.0
C3699 C 0.30671 0.88786 0.9247 0.0
C3700 C 0.31995 0.87791 0.94044 0.0
C3701 C 0.32413 0.88665 0.96523 0.0
C3702 C 0.2837 0.91787 0.91859 0.0
C3703 C 0.32976 0.8579 0.93109 0.0
C3704 C 0.2799 0.84609 0.86439 0.0
C3705 C 0.29345 0.85534 0.84897 0.0
C3706 C 0.28371 0.8569 0.88872 0.0
C3707 C 0.30148 0.87772 0.89821 0.0
C3708 C 0.31483 0.88762 0.8826 0.0
C3709 C 0.31073 0.87631 0.85832 0.0
C3710 C 0.26909 0.84552 0.90454 0.0
C3711 C 0.33389 0.9098 0.89168 0.0
H3712 H 0.29543 0.92931 0.96673 0.0
H3713 H 0.33449 0.879 0.97693 0.0
H3714 H 0.29244 0.92596 0.9052 0.0
H3715 H 0.26932 0.90328 0.90865 0.0
H3716 H 0.27843 0.93263 0.92878 0.0
H3717 H 0.33995 0.85231 0.94554 0.0
H3718 H 0.31694 0.84125 0.92159 0.0
H3719 H 0.33965 0.8645 0.91803 0.0
H3720 H 0.26648 0.82988 0.85759 0.0
H3721 H 0.32127 0.88369 0.8467 0.0
H3722 H 0.26304 0.85993 0.91413 0.0
H3723 H 0.27817 0.83783 0.91825 0.0
H3724 H 0.2552 0.83039 0.89433 0.0
H3725 H 0.32903 0.92515 0.90143 0.0
H3726 H 0.34156 0.91665 0.87703 0.0
H3727 H 0.34594 0.90471 0.90445 0.0
C3728 C 0.99075 0.65487 0.76941 0.0
C3729 C 0.97614 0.66559 0.75715 0.0
C3730 C 0.99556 0.63392 0.75786 0.0
C3731 C 0.98582 0.62427 0.73368 0.0
C3732 C 0.96805 0.63199 0.72332 0.0
C3733 C 0.96347 0.65274 0.73521 0.0
C3734 C 0.0133 0.62459 0.77015 0.0
C3735 C 0.95637 0.62134 0.69803 0.0
C3736 C 0.02299 0.62213 0.69015 0.0
C3737 C 0.01808 0.59683 0.68118 0.0
C3738 C 0.01335 0.63097 0.70813 0.0
C3739 C 0.99823 0.61396 0.71736 0.0
C3740 C 0.99375 0.5881 0.7089 0.0
C3741 C 0.0039 0.57977 0.69085 0.0
C3742 C 0.01879 0.65873 0.71646 0.0
C3743 C 0.97842 0.56927 0.7188 0.0
H3744 H 1.00025 0.66448 0.78665 0.0
H3745 H 0.9517 0.66069 0.72604 0.0
H3746 H 0.01004 0.6042 0.76467 0.0
H3747 H 0.02856 0.63356 0.76498 0.0
H3748 H 0.01536 0.62906 0.78986 0.0
H3749 H 0.94067 0.62569 0.69437 0.0
H3750 H 0.96622 0.62944 0.68549 0.0
H3751 H 0.95371 0.6009 0.69439 0.0
H3752 H 0.03415 0.63512 0.68263 0.0
H3753 H 1.00039 0.5601 0.68392 0.0
H3754 H 0.02497 0.66325 0.73598 0.0
H3755 H 0.00422 0.66538 0.71274 0.0
H3756 H 0.03106 0.6692 0.70755 0.0
H3757 H 0.98692 0.56598 0.73581 0.0
H3758 H 0.9724 0.55124 0.70637 0.0
H3759 H 0.96456 0.57598 0.72274 0.0
C3760 C 0.27746 0.2823 0.44469 0.0
C3761 C 0.29453 0.27334 0.45432 0.0
C3762 C 0.278 0.29348 0.42395 0.0
C3763 C 0.29568 0.29505 0.41215 0.0
C3764 C 0.3126 0.2854 0.42157 0.0
C3765 C 0.31192 0.27503 0.44248 0.0
C3766 C 0.25978 0.30386 0.4148 0.0
C3767 C 0.33157 0.28601 0.40955 0.0
C3768 C 0.29267 0.30241 0.34653 0.0
C3769 C 0.30363 0.3275 0.34826 0.0
C3770 C 0.28904 0.29194 0.36704 0.0
C3771 C 0.29683 0.30674 0.39004 0.0
C3772 C 0.3076 0.33221 0.39183 0.0
C3773 C 0.3107 0.34228 0.37099 0.0
C3774 C 0.27749 0.26477 0.36409 0.0
C3775 C 0.31654 0.34867 0.41585 0.0
H3776 H 0.26399 0.28111 0.45363 0.0
H3777 H 0.32507 0.2678 0.44945 0.0
H3778 H 0.26595 0.32395 0.41436 0.0
H3779 H 0.25226 0.29453 0.39624 0.0
H3780 H 0.24734 0.30152 0.42599 0.0
H3781 H 0.34321 0.27726 0.41883 0.0
H3782 H 0.32607 0.27616 0.39084 0.0
H3783 H 0.33997 0.3055 0.40901 0.0
H3784 H 0.28713 0.29081 0.32908 0.0
H3785 H 0.31925 0.36165 0.37258 0.0
H3786 H 0.26428 0.2623 0.37421 0.0
H3787 H 0.28871 0.25448 0.37148 0.0
H3788 H 0.27078 0.25634 0.34509 0.0
H3789 H 0.30392 0.34756 0.42675 0.0
H3790 H 0.32313 0.3684 0.41427 0.0
H3791 H 0.32951 0.34215 0.42562 0.0
C3792 C 0.34764 0.67487 0.53348 0.0
C3793 C 0.33896 0.68657 0.5159 0.0
C3794 C 0.36349 0.66265 0.52961 0.0
C3795 C 0.37005 0.66113 0.50724 0.0
C3796 C 0.36103 0.67267 0.48931 0.0
C3797 C 0.34592 0.68565 0.49403 0.0
C3798 C 0.37313 0.65123 0.54943 0.0
C3799 C 0.36665 0.67044 0.46482 0.0
C3800 C 0.42352 0.64642 0.5056 0.0
C3801 C 0.41737 0.62036 0.49966 0.0
C3802 C 0.40828 0.65998 0.50741 0.0
C3803 C 0.38624 0.64732 0.50273 0.0
C3804 C 0.37982 0.62123 0.49511 0.0
C3805 C 0.39542 0.60806 0.49394 0.0
C3806 C 0.41585 0.6878 0.51531 0.0
C3807 C 0.35646 0.60705 0.48899 0.0
H3808 H 0.34212 0.67538 0.55027 0.0
H3809 H 0.33878 0.69414 0.48015 0.0
H3810 H 0.36921 0.63079 0.54391 0.0
H3811 H 0.39083 0.65837 0.55311 0.0
H3812 H 0.36725 0.65525 0.56618 0.0
H3813 H 0.35919 0.68168 0.45332 0.0
H3814 H 0.38424 0.67639 0.46616 0.0
H3815 H 0.3611 0.6507 0.45595 0.0
H3816 H 0.44035 0.65628 0.50931 0.0
H3817 H 0.39033 0.58798 0.48941 0.0
H3818 H 0.41141 0.69282 0.53273 0.0
H3819 H 0.4079 0.69729 0.50235 0.0
H3820 H 0.43346 0.69501 0.5172 0.0
H3821 H 0.34977 0.60666 0.50552 0.0
H3822 H 0.35403 0.5876 0.48014 0.0
H3823 H 0.34722 0.61638 0.47707 0.0
C3824 C 0.88543 0.00256 0.52712 0.0
C3825 C 0.88174 0.9834 0.54066 0.0
C3826 C 0.90635 0.01626 0.5266 0.0
C3827 C 0.92418 0.0108 0.53995 0.0
C3828 C 0.92056 0.99079 0.55284 0.0
C3829 C 0.89945 0.97738 0.55305 0.0
C3830 C 0.90932 0.03731 0.51255 0.0
C3831 C 0.939 0.98418 0.56724 0.0
C3832 C 0.98076 0.0379 0.52892 0.0
C3833 C 0.98883 0.05809 0.54779 0.0
C3834 C 0.95975 0.02238 0.526 0.0
C3835 C 0.94641 0.0273 0.54216 0.0
C3836 C 0.95443 0.04801 0.5609 0.0
C3837 C 0.9755 0.06294 0.56357 0.0
C3838 C 0.95195 1.00048 0.50587 0.0
C3839 C 0.94079 0.05433 0.57834 0.0
H3840 H 0.87192 0.00739 0.51741 0.0
H3841 H 0.89686 0.96265 0.56358 0.0
H3842 H 0.91622 0.05525 0.52496 0.0
H3843 H 0.92076 0.0355 0.50058 0.0
H3844 H 0.89402 0.03798 0.50163 0.0
H3845 H 0.9337 0.96692 0.57464 0.0
H3846 H 0.95089 0.9817 0.55605 0.0
H3847 H 0.94724 0.99959 0.58226 0.0
H3848 H 0.99101 0.0339 0.51677 0.0
H3849 H 0.98158 0.07854 0.57815 0.0
H3850 H 0.93695 1.00149 0.49463 0.0
H3851 H 0.9482 0.98298 0.51324 0.0
H3852 H 0.96396 0.99955 0.4944 0.0
H3853 H 0.92579 0.05706 0.56861 0.0
H3854 H 0.94917 0.07141 0.59153 0.0
H3855 H 0.93621 0.03871 0.58812 0.0
C3856 C 0.87067 0.1234 0.20006 0.0
C3857 C 0.86297 0.09879 0.20303 0.0
C3858 C 0.86105 0.14145 0.20847 0.0
C3859 C 0.84303 0.13412 0.21911 0.0
C3860 C 0.83335 0.1087 0.21865 0.0
C3861 C 0.84363 0.09118 0.2107 0.0
C3862 C 0.87189 0.16846 0.20889 0.0
C3863 C 0.8138 0.1003 0.2294 0.0
C3864 C 0.83721 0.17694 0.27207 0.0
C3865 C 0.82088 0.18618 0.26145 0.0
C3866 C 0.84492 0.16009 0.25826 0.0
C3867 C 0.83604 0.1529 0.23352 0.0
C3868 C 0.81991 0.16283 0.22281 0.0
C3869 C 0.81243 0.17936 0.23703 0.0
C3870 C 0.86234 0.14983 0.27008 0.0
C3871 C 0.81045 0.1558 0.19648 0.0
H3872 H 0.8859 0.12911 0.19444 0.0
H3873 H 0.83799 0.07205 0.21313 0.0
H3874 H 0.86002 0.17921 0.2052 0.0
H3875 H 0.88171 0.17662 0.22691 0.0
H3876 H 0.88262 0.17068 0.19572 0.0
H3877 H 0.80633 0.08 0.22404 0.0
H3878 H 0.81846 0.10457 0.24915 0.0
H3879 H 0.8017 0.11033 0.22401 0.0
H3880 H 0.84379 0.18283 0.29099 0.0
H3881 H 0.80001 0.1872 0.22908 0.0
H3882 H 0.87621 0.15355 0.26098 0.0
H3883 H 0.85637 0.12938 0.26845 0.0
H3884 H 0.86794 0.158 0.28929 0.0
H3885 H 0.82331 0.15947 0.18594 0.0
H3886 H 0.79866 0.16618 0.19086 0.0
H3887 H 0.80237 0.13561 0.19205 0.0
C3888 C 0.70981 0.18016 0.01506 0.0
C3889 C 0.72195 0.16568 0.00511 0.0
C3890 C 0.68863 0.16949 0.01712 0.0
C3891 C 0.67943 0.14369 0.00924 0.0
C3892 C 0.69146 0.12904 0.9988 0.0
C3893 C 0.71254 0.14022 0.99679 0.0
C3894 C 0.67618 0.18578 0.02802 0.0
C3895 C 0.68218 0.10147 0.99016 0.0
C3896 C 0.63325 0.11281 0.03709 0.0
C3897 C 0.61554 0.11078 0.01915 0.0
C3898 C 0.65416 0.12313 0.03392 0.0
C3899 C 0.6574 0.13192 0.01245 0.0
C3900 C 0.6396 0.12976 0.99421 0.0
C3901 C 0.61891 0.11911 0.99773 0.0
C3902 C 0.6728 0.12475 0.05361 0.0
C3903 C 0.64236 0.13914 0.97115 0.0
H3904 H 0.71689 0.19986 0.02139 0.0
H3905 H 0.72177 0.12887 0.98903 0.0
H3906 H 0.66094 0.18395 0.01563 0.0
H3907 H 0.67202 0.17967 0.04467 0.0
H3908 H 0.6853 0.20568 0.0323 0.0
H3909 H 0.69346 0.0928 0.98198 0.0
H3910 H 0.67801 0.09215 0.0053 0.0
H3911 H 0.66719 0.09796 0.97681 0.0
H3912 H 0.63081 0.1063 0.05363 0.0
H3913 H 0.60533 0.11778 0.98378 0.0
H3914 H 0.68177 0.14447 0.06015 0.0
H3915 H 0.68403 0.11509 0.04665 0.0
H3916 H 0.66763 0.1164 0.06892 0.0
H3917 H 0.64954 0.15953 0.97491 0.0
H3918 H 0.62694 0.13503 0.95832 0.0
H3919 H 0.65349 0.13063 0.96257 0.0
C3920 C 0.19521 0.44487 0.24186 0.0
C3921 C 0.17842 0.43447 0.25289 0.0
C3922 C 0.2145 0.43803 0.24567 0.0
C3923 C 0.21668 0.42024 0.26053 0.0
C3924 C 0.19932 0.40893 0.27076 0.0
C3925 C 0.18044 0.41634 0.26692 0.0
C3926 C 0.23283 0.45058 0.23475 0.0
C3927 C 0.20087 0.3895 0.28633 0.0
C3928 C 0.25555 0.38139 0.25793 0.0
C3929 C 0.26994 0.3914 0.27951 0.0
C3930 C 0.23898 0.39187 0.25055 0.0
C3931 C 0.23682 0.4128 0.26526 0.0
C3932 C 0.25229 0.42406 0.28633 0.0
C3933 C 0.26883 0.4131 0.2933 0.0
C3934 C 0.22288 0.37932 0.22801 0.0
C3935 C 0.2505 0.44656 0.30229 0.0
H3936 H 0.19374 0.45942 0.23156 0.0
H3937 H 0.16745 0.40864 0.27565 0.0
H3938 H 0.24624 0.46185 0.2491 0.0
H3939 H 0.23893 0.43651 0.22473 0.0
H3940 H 0.22814 0.46292 0.22251 0.0
H3941 H 0.18601 0.38313 0.29334 0.0
H3942 H 0.204 0.37319 0.276 0.0
H3943 H 0.21442 0.39706 0.30167 0.0
H3944 H 0.25676 0.36462 0.24729 0.0
H3945 H 0.28016 0.4207 0.30995 0.0
H3946 H 0.21939 0.39321 0.21704 0.0
H3947 H 0.20764 0.36964 0.23276 0.0
H3948 H 0.22852 0.36546 0.21703 0.0
H3949 H 0.24724 0.46076 0.2916 0.0
H3950 H 0.26526 0.45503 0.31602 0.0
H3951 H 0.23687 0.44108 0.31149 0.0
C3952 C 0.26153 0.49647 0.01516 0.0
C3953 C 0.26335 0.47503 0.02447 0.0
C3954 C 0.24233 0.50359 0.01282 0.0
C3955 C 0.22424 0.48872 0.01955 0.0
C3956 C 0.22557 0.46631 0.0277 0.0
C3957 C 0.24517 0.45987 0.03035 0.0
C3958 C 0.24174 0.5277 0.0042 0.0
C3959 C 0.20643 0.4495 0.03423 0.0
C3960 C 0.18607 0.52343 0.04167 0.0
C3961 C 0.17021 0.5198 0.02124 0.0
C3962 C 0.20337 0.51291 0.04143 0.0
C3963 C 0.20481 0.49801 0.02032 0.0
C3964 C 0.18845 0.49353 0.99981 0.0
C3965 C 0.17147 0.50471 1.00043 0.0
C3966 C 0.22057 0.51855 0.06359 0.0
C3967 C 0.18913 0.47747 0.97705 0.0
H3968 H 0.2754 0.5083 0.01046 0.0
H3969 H 0.24631 0.44309 0.03723 0.0
H3970 H 0.22828 0.52448 0.98891 0.0
H3971 H 0.239 0.54089 0.01866 0.0
H3972 H 0.25684 0.53656 0.99862 0.0
H3973 H 0.20938 0.43161 0.03796 0.0
H3974 H 0.20235 0.45892 0.05029 0.0
H3975 H 0.1923 0.44554 0.01957 0.0
H3976 H 0.18539 0.53537 0.05769 0.0
H3977 H 0.15921 0.50172 0.9846 0.0
H3978 H 0.23606 0.52869 0.05971 0.0
H3979 H 0.22268 0.50102 0.06919 0.0
H3980 H 0.21683 0.52998 0.07871 0.0
H3981 H 0.20187 0.48751 0.96851 0.0
H3982 H 0.17369 0.47258 0.96413 0.0
H3983 H 0.19305 0.46009 0.98086 0.0
C3984 C 0.88969 0.97667 0.22318 0.0
C3985 C 0.87887 0.99485 0.2196 0.0
C3986 C 0.87878 0.95345 0.22747 0.0
C3987 C 0.85674 0.94876 0.22825 0.0
C3988 C 0.84552 0.9665 0.2227 0.0
C3989 C 0.85684 0.98951 0.21862 0.0
C3990 C 0.89114 0.9348 0.23296 0.0
C3991 C 0.82192 0.962 0.22302 0.0
C3992 C 0.8188 0.88763 0.23063 0.0
C3993 C 0.81775 0.89046 0.25484 0.0
C3994 C 0.83306 0.90544 0.2219 0.0
C3995 C 0.84578 0.927 0.23774 0.0
C3996 C 0.84555 0.92927 0.2625 0.0
C3997 C 0.8317 0.91061 0.27085 0.0
C3998 C 0.83354 0.90181 0.1956 0.0
C3999 C 0.85877 0.95217 0.2799 0.0
H4000 H 0.90687 0.98118 0.22418 0.0
H4001 H 0.8487 0.00387 0.21598 0.0
H4002 H 0.89459 0.93535 0.25253 0.0
H4003 H 0.88169 0.91566 0.2246 0.0
H4004 H 0.90661 0.93891 0.22672 0.0
H4005 H 0.81532 0.97683 0.21641 0.0
H4006 H 0.81279 0.94391 0.21186 0.0
H4007 H 0.81931 0.96122 0.24152 0.0
H4008 H 0.80829 0.87161 0.21847 0.0
H4009 H 0.83091 0.91246 0.28964 0.0
H4010 H 0.85017 0.90783 0.1926 0.0
H4011 H 0.82424 0.91331 0.18674 0.0
H4012 H 0.82643 0.88209 0.18694 0.0
H4013 H 0.87572 0.95633 0.27783 0.0
H4014 H 0.85808 0.95011 0.29871 0.0
H4015 H 0.85281 0.96838 0.27608 0.0
C4016 C 0.67639 0.06494 0.78879 0.0
C4017 C 0.67672 0.04353 0.77384 0.0
C4018 C 0.68962 0.08811 0.78733 0.0
C4019 C 0.70378 0.08951 0.771 0.0
C4020 C 0.70514 0.06761 0.75708 0.0
C4021 C 0.69132 0.04484 0.75841 0.0
C4022 C 0.68743 0.1112 0.80204 0.0
C4023 C 0.7203 0.06837 0.73979 0.0
C4024 C 0.71417 0.14849 0.74506 0.0
C4025 C 0.73413 0.16181 0.75869 0.0
C4026 C 0.70444 0.1246 0.74849 0.0
C4027 C 0.71492 0.11399 0.76617 0.0
C4028 C 0.73548 0.12709 0.77947 0.0
C4029 C 0.74496 0.15099 0.77547 0.0
C4030 C 0.68263 0.11106 0.73369 0.0
C4031 C 0.74707 0.11619 0.79836 0.0
H4032 H 0.66494 0.06375 0.80057 0.0
H4033 H 0.69159 0.02807 0.74703 0.0
H4034 H 0.70336 0.12285 0.81175 0.0
H4035 H 0.68054 0.12246 0.79009 0.0
H4036 H 0.67691 0.10677 0.81515 0.0
H4037 H 0.72117 0.04951 0.73244 0.0
H4038 H 0.71489 0.07729 0.72473 0.0
H4039 H 0.73661 0.0797 0.74864 0.0
H4040 H 0.70601 0.15707 0.73201 0.0
H4041 H 0.76041 0.16157 0.78601 0.0
H4042 H 0.67076 0.10753 0.74548 0.0
H4043 H 0.683 0.09276 0.72431 0.0
H4044 H 0.67704 0.12172 0.7202 0.0
H4045 H 0.73798 0.11391 0.81301 0.0
H4046 H 0.76351 0.12808 0.80601 0.0
H4047 H 0.74806 0.09747 0.79081 0.0
loop_
_geom_bond_atom_site_label_1
_geom_bond_atom_site_label_2
_geom_bond_distance
_geom_bond_site_symmetry_2
_ccdc_geom_bond_type
Mg0 O1 2.028 . S
Mg0 O7 1.986 . S
Mg0 O9 2.114 1_455 S
Mg0 O10 2.251 1_455 S
Mg0 O13 2.010 . S
O1 Mg0 2.028 . S
O1 C4 1.250 . S
O2 Mg3 2.028 . S
O2 C4 1.248 1_655 S
Mg3 O2 2.028 . S
Mg3 O8 2.032 . S
Mg3 O10 2.079 . S
C4 O1 1.250 . S
C4 O2 1.248 1_455 S
C5 O6 1.264 . S
C5 O13 1.249 . S
O6 C5 1.264 . S
O7 Mg0 1.986 . S
O7 C11 1.246 . S
O8 Mg3 2.032 . S
O8 C11 1.259 1_655 S
O9 Mg0 2.114 1_655 S
O9 C12 1.252 . S
O10 Mg0 2.251 1_655 S
O10 Mg3 2.079 . S
O10 C12 1.273 . S
C11 O7 1.246 . S
C11 O8 1.259 1_455 S
C12 O9 1.252 . S
C12 O10 1.273 . S
O13 Mg0 2.010 . S
O13 C5 1.249 . S
Mg14 O15 2.028 . S
Mg14 O21 1.986 . S
Mg14 O23 2.114 . S
Mg14 O24 2.251 . S
Mg14 O27 2.010 . S
O15 Mg14 2.028 . S
O15 C18 1.250 . S
O16 Mg17 2.028 . S
O16 C18 1.248 . S
Mg17 O16 2.028 . S
Mg17 O22 2.032 . S
Mg17 O24 2.079 . S
C18 O15 1.250 . S
C18 O16 1.248 . S
C19 O20 1.264 . S
C19 O27 1.249 . S
O20 C19 1.264 . S
O21 Mg14 1.986 . S
O21 C25 1.246 . S
O22 Mg17 2.032 . S
O22 C25 1.259 . S
O23 Mg14 2.114 . S
O23 C26 1.252 . S
O24 Mg14 2.251 . S
O24 Mg17 2.079 . S
O24 C26 1.273 . S
C25 O21 1.246 . S
C25 O22 1.259 . S
C26 O23 1.252 . S
C26 O24 1.273 . S
O27 Mg14 2.010 . S
O27 C19 1.249 . S
Mg28 O29 2.028 . S
Mg28 O35 1.986 . S
Mg28 O37 2.114 . S
Mg28 O38 2.251 . S
Mg28 O41 2.010 . S
O29 Mg28 2.028 . S
O29 C32 1.250 . S
O30 Mg31 2.028 . S
O30 C32 1.248 . S
Mg31 O30 2.028 . S
Mg31 O36 2.032 . S
Mg31 O38 2.079 . S
C32 O29 1.250 . S
C32 O30 1.248 . S
C33 O34 1.264 . S
C33 O41 1.249 . S
O34 C33 1.264 . S
O35 Mg28 1.986 . S
O35 C39 1.246 . S
O36 Mg31 2.032 . S
O36 C39 1.259 . S
O37 Mg28 2.114 . S
O37 C40 1.252 . S
O38 Mg28 2.251 . S
O38 Mg31 2.079 . S
O38 C40 1.273 . S
C39 O35 1.246 . S
C39 O36 1.259 . S
C40 O37 1.252 . S
C40 O38 1.273 . S
O41 Mg28 2.010 . S
O41 C33 1.249 . S
Mg42 O43 2.028 . S
Mg42 O49 1.986 . S
Mg42 O51 2.114 . S
Mg42 O52 2.251 . S
Mg42 O55 2.010 . S
O43 Mg42 2.028 . S
O43 C46 1.250 . S
O44 Mg45 2.028 . S
O44 C46 1.248 . S
Mg45 O44 2.028 . S
Mg45 O50 2.032 . S
Mg45 O52 2.079 . S
C46 O43 1.250 . S
C46 O44 1.248 . S
C47 O48 1.264 . S
C47 O55 1.249 . S
O48 C47 1.264 . S
O49 Mg42 1.986 . S
O49 C53 1.246 . S
O50 Mg45 2.032 . S
O50 C53 1.259 . S
O51 Mg42 2.114 . S
O51 C54 1.252 . S
O52 Mg42 2.251 . S
O52 Mg45 2.079 . S
O52 C54 1.273 . S
C53 O49 1.246 . S
C53 O50 1.259 . S
C54 O51 1.252 . S
C54 O52 1.273 . S
O55 Mg42 2.010 . S
O55 C47 1.249 . S
Mg56 O57 2.028 . S
Mg56 O63 1.986 . S
Mg56 O65 2.114 . S
Mg56 O66 2.251 . S
Mg56 O69 2.010 . S
O57 Mg56 2.028 . S
O57 C60 1.250 . S
O58 Mg59 2.028 . S
O58 C60 1.248 . S
Mg59 O58 2.028 . S
Mg59 O64 2.032 . S
Mg59 O66 2.079 . S
C60 O57 1.250 . S
C60 O58 1.248 . S
C61 O62 1.264 . S
C61 O69 1.249 . S
O62 C61 1.264 . S
O63 Mg56 1.986 . S
O63 C67 1.246 . S
O64 Mg59 2.032 . S
O64 C67 1.259 . S
O65 Mg56 2.114 . S
O65 C68 1.252 . S
O66 Mg56 2.251 . S
O66 Mg59 2.079 . S
O66 C68 1.273 . S
C67 O63 1.246 . S
C67 O64 1.259 . S
C68 O65 1.252 . S
C68 O66 1.273 . S
O69 Mg56 2.010 . S
O69 C61 1.249 . S
Mg70 O71 2.028 . S
Mg70 O77 1.986 . S
Mg70 O79 2.114 . S
Mg70 O80 2.251 . S
Mg70 O83 2.010 . S
O71 Mg70 2.028 . S
O71 C74 1.250 . S
O72 Mg73 2.028 . S
O72 C74 1.248 . S
Mg73 O72 2.028 . S
Mg73 O78 2.032 . S
Mg73 O80 2.079 . S
C74 O71 1.250 . S
C74 O72 1.248 . S
C75 O76 1.264 . S
C75 O83 1.249 . S
O76 C75 1.264 . S
O77 Mg70 1.986 . S
O77 C81 1.246 . S
O78 Mg73 2.032 . S
O78 C81 1.259 . S
O79 Mg70 2.114 . S
O79 C82 1.252 . S
O80 Mg70 2.251 . S
O80 Mg73 2.079 . S
O80 C82 1.273 . S
C81 O77 1.246 . S
C81 O78 1.259 . S
C82 O79 1.252 . S
C82 O80 1.273 . S
O83 Mg70 2.010 . S
O83 C75 1.249 . S
Mg84 O85 2.028 . S
Mg84 O91 1.986 . S
Mg84 O93 2.114 . S
Mg84 O94 2.251 . S
Mg84 O97 2.010 . S
O85 Mg84 2.028 . S
O85 C88 1.250 . S
O86 Mg87 2.028 . S
O86 C88 1.248 . S
Mg87 O86 2.028 . S
Mg87 O92 2.032 . S
Mg87 O94 2.079 . S
C88 O85 1.250 . S
C88 O86 1.248 . S
C89 O90 1.264 . S
C89 O97 1.249 . S
O90 C89 1.264 . S
O91 Mg84 1.986 . S
O91 C95 1.246 . S
O92 Mg87 2.032 . S
O92 C95 1.259 . S
O93 Mg84 2.114 . S
O93 C96 1.252 . S
O94 Mg84 2.251 . S
O94 Mg87 2.079 . S
O94 C96 1.273 . S
C95 O91 1.246 . S
C95 O92 1.259 . S
C96 O93 1.252 . S
C96 O94 1.273 . S
O97 Mg84 2.010 . S
O97 C89 1.249 . S
Mg98 O99 2.028 . S
Mg98 O105 1.986 . S
Mg98 O107 2.114 1_455 S
Mg98 O108 2.251 1_455 S
Mg98 O111 2.010 . S
O99 Mg98 2.028 . S
O99 C102 1.250 . S
O100 Mg101 2.028 1_455 S
O100 C102 1.248 . S
Mg101 O100 2.028 1_655 S
Mg101 O106 2.032 . S
Mg101 O108 2.079 . S
C102 O99 1.250 . S
C102 O100 1.248 . S
C103 O104 1.264 . S
C103 O111 1.249 . S
O104 C103 1.264 . S
O105 Mg98 1.986 . S
O105 C109 1.246 . S
O106 Mg101 2.032 . S
O106 C109 1.259 1_655 S
O107 Mg98 2.114 1_655 S
O107 C110 1.252 . S
O108 Mg98 2.251 1_655 S
O108 Mg101 2.079 . S
O108 C110 1.273 . S
C109 O105 1.246 . S
C109 O106 1.259 1_455 S
C110 O107 1.252 . S
C110 O108 1.273 . S
O111 Mg98 2.010 . S
O111 C103 1.249 . S
Mg112 O113 2.028 . S
Mg112 O119 1.986 . S
Mg112 O121 2.114 . S
Mg112 O122 2.251 . S
Mg112 O125 2.010 . S
O113 Mg112 2.028 . S
O113 C116 1.250 . S
O114 Mg115 2.028 . S
O114 C116 1.248 . S
Mg115 O114 2.028 . S
Mg115 O120 2.032 . S
Mg115 O122 2.079 . S
C116 O113 1.250 . S
C116 O114 1.248 . S
C117 O118 1.264 . S
C117 O125 1.249 . S
O118 C117 1.264 . S
O119 Mg112 1.986 . S
O119 C123 1.246 . S
O120 Mg115 2.032 . S
O120 C123 1.259 . S
O121 Mg112 2.114 . S
O121 C124 1.252 . S
O122 Mg112 2.251 . S
O122 Mg115 2.079 . S
O122 C124 1.273 . S
C123 O119 1.246 . S
C123 O120 1.259 . S
C124 O121 1.252 . S
C124 O122 1.273 . S
O125 Mg112 2.010 . S
O125 C117 1.249 . S
Mg126 O127 2.028 . S
Mg126 O133 1.986 . S
Mg126 O135 2.114 . S
Mg126 O136 2.251 . S
Mg126 O139 2.010 . S
O127 Mg126 2.028 . S
O127 C130 1.250 . S
O128 Mg129 2.028 . S
O128 C130 1.248 . S
Mg129 O128 2.028 . S
Mg129 O134 2.032 . S
Mg129 O136 2.079 . S
C130 O127 1.250 . S
C130 O128 1.248 . S
C131 O132 1.264 . S
C131 O139 1.249 . S
O132 C131 1.264 . S
O133 Mg126 1.986 . S
O133 C137 1.246 . S
O134 Mg129 2.032 . S
O134 C137 1.259 . S
O135 Mg126 2.114 . S
O135 C138 1.252 . S
O136 Mg126 2.251 . S
O136 Mg129 2.079 . S
O136 C138 1.273 . S
C137 O133 1.246 . S
C137 O134 1.259 . S
C138 O135 1.252 . S
C138 O136 1.273 . S
O139 Mg126 2.010 . S
O139 C131 1.249 . S
Mg140 O141 2.028 . S
Mg140 O147 1.986 . S
Mg140 O149 2.114 . S
Mg140 O150 2.251 . S
Mg140 O153 2.010 . S
O141 Mg140 2.028 . S
O141 C144 1.250 . S
O142 Mg143 2.028 . S
O142 C144 1.248 . S
Mg143 O142 2.028 . S
Mg143 O148 2.032 . S
Mg143 O150 2.079 . S
C144 O141 1.250 . S
C144 O142 1.248 . S
C145 O146 1.264 . S
C145 O153 1.249 . S
O146 C145 1.264 . S
O147 Mg140 1.986 . S
O147 C151 1.246 . S
O148 Mg143 2.032 . S
O148 C151 1.259 . S
O149 Mg140 2.114 . S
O149 C152 1.252 . S
O150 Mg140 2.251 . S
O150 Mg143 2.079 . S
O150 C152 1.273 . S
C151 O147 1.246 . S
C151 O148 1.259 . S
C152 O149 1.252 . S
C152 O150 1.273 . S
O153 Mg140 2.010 . S
O153 C145 1.249 . S
Mg154 O155 2.028 . S
Mg154 O161 1.986 . S
Mg154 O163 2.114 . S
Mg154 O164 2.251 . S
Mg154 O167 2.010 . S
O155 Mg154 2.028 . S
O155 C158 1.250 . S
O156 Mg157 2.028 . S
O156 C158 1.248 . S
Mg157 O156 2.028 . S
Mg157 O162 2.032 . S
Mg157 O164 2.079 . S
C158 O155 1.250 . S
C158 O156 1.248 . S
C159 O160 1.264 . S
C159 O167 1.249 . S
O160 C159 1.264 . S
O161 Mg154 1.986 . S
O161 C165 1.246 . S
O162 Mg157 2.032 . S
O162 C165 1.259 . S
O163 Mg154 2.114 . S
O163 C166 1.252 . S
O164 Mg154 2.251 . S
O164 Mg157 2.079 . S
O164 C166 1.273 . S
C165 O161 1.246 . S
C165 O162 1.259 . S
C166 O163 1.252 . S
C166 O164 1.273 . S
O167 Mg154 2.010 . S
O167 C159 1.249 . S
Mg168 O169 2.028 . S
Mg168 O175 1.986 . S
Mg168 O177 2.114 . S
Mg168 O178 2.251 . S
Mg168 O181 2.010 . S
O169 Mg168 2.028 . S
O169 C172 1.250 1_554 S
O170 Mg171 2.028 . S
O170 C172 1.248 1_554 S
Mg171 O170 2.028 . S
Mg171 O176 2.032 . S
Mg171 O178 2.079 . S
C172 O169 1.250 1_556 S
C172 O170 1.248 1_556 S
C173 O174 1.264 . S
C173 O181 1.249 . S
O174 C173 1.264 . S
O175 Mg168 1.986 . S
O175 C179 1.246 . S
O176 Mg171 2.032 . S
O176 C179 1.259 . S
O177 Mg168 2.114 . S
O177 C180 1.252 . S
O178 Mg168 2.251 . S
O178 Mg171 2.079 . S
O178 C180 1.273 . S
C179 O175 1.246 . S
C179 O176 1.259 . S
C180 O177 1.252 . S
C180 O178 1.273 . S
O181 Mg168 2.010 . S
O181 C173 1.249 . S
Mg182 O183 2.028 1_556 S
Mg182 O189 1.986 . S
Mg182 O191 2.114 1_556 S
Mg182 O192 2.251 . S
Mg182 O195 2.010 . S
O183 Mg182 2.028 1_554 S
O183 C186 1.250 . S
O184 Mg185 2.028 . S
O184 C186 1.248 . S
Mg185 O184 2.028 . S
Mg185 O190 2.032 1_554 S
Mg185 O192 2.079 1_554 S
C186 O183 1.250 . S
C186 O184 1.248 . S
C187 O188 1.264 . S
C187 O195 1.249 . S
O188 C187 1.264 . S
O189 Mg182 1.986 . S
O189 C193 1.246 . S
O190 Mg185 2.032 1_556 S
O190 C193 1.259 . S
O191 Mg182 2.114 1_554 S
O191 C194 1.252 . S
O192 Mg182 2.251 . S
O192 Mg185 2.079 1_556 S
O192 C194 1.273 1_556 S
C193 O189 1.246 . S
C193 O190 1.259 . S
C194 O191 1.252 . S
C194 O192 1.273 1_554 S
O195 Mg182 2.010 . S
O195 C187 1.249 . S
Mg196 O197 2.028 . S
Mg196 O203 1.986 . S
Mg196 O205 2.114 . S
Mg196 O206 2.251 . S
Mg196 O209 2.010 . S
O197 Mg196 2.028 . S
O197 C200 1.250 . S
O198 Mg199 2.028 . S
O198 C200 1.248 . S
Mg199 O198 2.028 . S
Mg199 O204 2.032 . S
Mg199 O206 2.079 . S
C200 O197 1.250 . S
C200 O198 1.248 . S
C201 O202 1.264 . S
C201 O209 1.249 . S
O202 C201 1.264 . S
O203 Mg196 1.986 . S
O203 C207 1.246 . S
O204 Mg199 2.032 . S
O204 C207 1.259 . S
O205 Mg196 2.114 . S
O205 C208 1.252 . S
O206 Mg196 2.251 . S
O206 Mg199 2.079 . S
O206 C208 1.273 . S
C207 O203 1.246 . S
C207 O204 1.259 . S
C208 O205 1.252 . S
C208 O206 1.273 . S
O209 Mg196 2.010 . S
O209 C201 1.249 . S
Mg210 O211 2.028 . S
Mg210 O217 1.986 . S
Mg210 O219 2.114 . S
Mg210 O220 2.251 . S
Mg210 O223 2.010 . S
O211 Mg210 2.028 . S
O211 C214 1.250 . S
O212 Mg213 2.028 . S
O212 C214 1.248 . S
Mg213 O212 2.028 . S
Mg213 O218 2.032 . S
Mg213 O220 2.079 . S
C214 O211 1.250 . S
C214 O212 1.248 . S
C215 O216 1.264 . S
C215 O223 1.249 . S
O216 C215 1.264 . S
O217 Mg210 1.986 . S
O217 C221 1.246 . S
O218 Mg213 2.032 . S
O218 C221 1.259 . S
O219 Mg210 2.114 . S
O219 C222 1.252 . S
O220 Mg210 2.251 . S
O220 Mg213 2.079 . S
O220 C222 1.273 . S
C221 O217 1.246 . S
C221 O218 1.259 . S
C222 O219 1.252 . S
C222 O220 1.273 . S
O223 Mg210 2.010 . S
O223 C215 1.249 . S
Mg224 O225 2.028 . S
Mg224 O231 1.986 . S
Mg224 O233 2.114 . S
Mg224 O234 2.251 . S
Mg224 O237 2.010 . S
O225 Mg224 2.028 . S
O225 C228 1.250 . S
O226 Mg227 2.028 . S
O226 C228 1.248 . S
Mg227 O226 2.028 . S
Mg227 O232 2.032 . S
Mg227 O234 2.079 . S
C228 O225 1.250 . S
C228 O226 1.248 . S
C229 O230 1.264 . S
C229 O237 1.249 . S
O230 C229 1.264 . S
O231 Mg224 1.986 . S
O231 C235 1.246 . S
O232 Mg227 2.032 . S
O232 C235 1.259 . S
O233 Mg224 2.114 . S
O233 C236 1.252 . S
O234 Mg224 2.251 . S
O234 Mg227 2.079 . S
O234 C236 1.273 . S
C235 O231 1.246 . S
C235 O232 1.259 . S
C236 O233 1.252 . S
C236 O234 1.273 . S
O237 Mg224 2.010 . S
O237 C229 1.249 . S
Mg238 O239 2.028 . S
Mg238 O245 1.986 . S
Mg238 O247 2.114 . S
Mg238 O248 2.251 . S
Mg238 O251 2.010 . S
O239 Mg238 2.028 . S
O239 C242 1.250 . S
O240 Mg241 2.028 . S
O240 C242 1.248 . S
Mg241 O240 2.028 . S
Mg241 O246 2.032 . S
Mg241 O248 2.079 . S
C242 O239 1.250 . S
C242 O240 1.248 . S
C243 O244 1.264 . S
C243 O251 1.249 . S
O244 C243 1.264 . S
O245 Mg238 1.986 . S
O245 C249 1.246 . S
O246 Mg241 2.032 . S
O246 C249 1.259 . S
O247 Mg238 2.114 . S
O247 C250 1.252 . S
O248 Mg238 2.251 . S
O248 Mg241 2.079 . S
O248 C250 1.273 . S
C249 O245 1.246 . S
C249 O246 1.259 . S
C250 O247 1.252 . S
C250 O248 1.273 . S
O251 Mg238 2.010 . S
O251 C243 1.249 . S
Mg252 O253 2.028 . S
Mg252 O259 1.986 . S
Mg252 O261 2.114 . S
Mg252 O262 2.251 . S
Mg252 O265 2.010 . S
O253 Mg252 2.028 . S
O253 C256 1.250 . S
O254 Mg255 2.028 . S
O254 C256 1.248 . S
Mg255 O254 2.028 . S
Mg255 O260 2.032 . S
Mg255 O262 2.079 . S
C256 O253 1.250 . S
C256 O254 1.248 . S
C257 O258 1.264 . S
C257 O265 1.249 . S
O258 C257 1.264 . S
O259 Mg252 1.986 . S
O259 C263 1.246 . S
O260 Mg255 2.032 . S
O260 C263 1.259 . S
O261 Mg252 2.114 . S
O261 C264 1.252 . S
O262 Mg252 2.251 . S
O262 Mg255 2.079 . S
O262 C264 1.273 . S
C263 O259 1.246 . S
C263 O260 1.259 . S
C264 O261 1.252 . S
C264 O262 1.273 . S
O265 Mg252 2.010 . S
O265 C257 1.249 . S
Mg266 O267 2.028 1_565 S
Mg266 O273 1.986 . S
Mg266 O275 2.114 1_565 S
Mg266 O276 2.251 . S
Mg266 O279 2.010 . S
O267 Mg266 2.028 1_545 S
O267 C270 1.250 . S
O268 Mg269 2.028 . S
O268 C270 1.248 . S
Mg269 O268 2.028 . S
Mg269 O274 2.032 1_545 S
Mg269 O276 2.079 1_545 S
C270 O267 1.250 . S
C270 O268 1.248 . S
C271 O272 1.264 . S
C271 O279 1.249 . S
O272 C271 1.264 . S
O273 Mg266 1.986 . S
O273 C277 1.246 . S
O274 Mg269 2.032 1_565 S
O274 C277 1.259 . S
O275 Mg266 2.114 1_545 S
O275 C278 1.252 . S
O276 Mg266 2.251 . S
O276 Mg269 2.079 1_565 S
O276 C278 1.273 1_565 S
C277 O273 1.246 . S
C277 O274 1.259 . S
C278 O275 1.252 . S
C278 O276 1.273 1_545 S
O279 Mg266 2.010 . S
O279 C271 1.249 . S
Mg280 O281 2.028 . S
Mg280 O287 1.986 1_554 S
Mg280 O289 2.114 . S
Mg280 O290 2.251 . S
Mg280 O293 2.010 . S
O281 Mg280 2.028 . S
O281 C284 1.250 . S
O282 Mg283 2.028 . S
O282 C284 1.248 . S
Mg283 O282 2.028 . S
Mg283 O288 2.032 1_554 S
Mg283 O290 2.079 . S
C284 O281 1.250 . S
C284 O282 1.248 . S
C285 O286 1.264 1_554 S
C285 O293 1.249 . S
O286 C285 1.264 1_556 S
O287 Mg280 1.986 1_556 S
O287 C291 1.246 . S
O288 Mg283 2.032 1_556 S
O288 C291 1.259 . S
O289 Mg280 2.114 . S
O289 C292 1.252 . S
O290 Mg280 2.251 . S
O290 Mg283 2.079 . S
O290 C292 1.273 . S
C291 O287 1.246 . S
C291 O288 1.259 . S
C292 O289 1.252 . S
C292 O290 1.273 . S
O293 Mg280 2.010 . S
O293 C285 1.249 . S
Mg294 O295 2.028 . S
Mg294 O301 1.986 . S
Mg294 O303 2.114 . S
Mg294 O304 2.251 . S
Mg294 O307 2.010 . S
O295 Mg294 2.028 . S
O295 C298 1.250 . S
O296 Mg297 2.028 . S
O296 C298 1.248 . S
Mg297 O296 2.028 . S
Mg297 O302 2.032 . S
Mg297 O304 2.079 . S
C298 O295 1.250 . S
C298 O296 1.248 . S
C299 O300 1.264 1_655 S
C299 O307 1.249 . S
O300 C299 1.264 1_455 S
O301 Mg294 1.986 . S
O301 C305 1.246 . S
O302 Mg297 2.032 . S
O302 C305 1.259 . S
O303 Mg294 2.114 . S
O303 C306 1.252 . S
O304 Mg294 2.251 . S
O304 Mg297 2.079 . S
O304 C306 1.273 . S
C305 O301 1.246 . S
C305 O302 1.259 . S
C306 O303 1.252 . S
C306 O304 1.273 . S
O307 Mg294 2.010 . S
O307 C299 1.249 . S
Mg308 O309 2.028 . S
Mg308 O315 1.986 . S
Mg308 O317 2.114 . S
Mg308 O318 2.251 . S
Mg308 O321 2.010 . S
O309 Mg308 2.028 . S
O309 C312 1.250 . S
O310 Mg311 2.028 . S
O310 C312 1.248 . S
Mg311 O310 2.028 . S
Mg311 O316 2.032 . S
Mg311 O318 2.079 . S
C312 O309 1.250 . S
C312 O310 1.248 . S
C313 O314 1.264 . S
C313 O321 1.249 . S
O314 C313 1.264 . S
O315 Mg308 1.986 . S
O315 C319 1.246 . S
O316 Mg311 2.032 . S
O316 C319 1.259 . S
O317 Mg308 2.114 . S
O317 C320 1.252 . S
O318 Mg308 2.251 . S
O318 Mg311 2.079 . S
O318 C320 1.273 . S
C319 O315 1.246 . S
C319 O316 1.259 . S
C320 O317 1.252 . S
C320 O318 1.273 . S
O321 Mg308 2.010 . S
O321 C313 1.249 . S
Mg322 O323 2.028 . S
Mg322 O329 1.986 . S
Mg322 O331 2.114 . S
Mg322 O332 2.251 . S
Mg322 O335 2.010 . S
O323 Mg322 2.028 . S
O323 C326 1.250 . S
O324 Mg325 2.028 . S
O324 C326 1.248 . S
Mg325 O324 2.028 . S
Mg325 O330 2.032 . S
Mg325 O332 2.079 . S
C326 O323 1.250 . S
C326 O324 1.248 . S
C327 O328 1.264 . S
C327 O335 1.249 . S
O328 C327 1.264 . S
O329 Mg322 1.986 . S
O329 C333 1.246 . S
O330 Mg325 2.032 . S
O330 C333 1.259 . S
O331 Mg322 2.114 . S
O331 C334 1.252 . S
O332 Mg322 2.251 . S
O332 Mg325 2.079 . S
O332 C334 1.273 . S
C333 O329 1.246 . S
C333 O330 1.259 . S
C334 O331 1.252 . S
C334 O332 1.273 . S
O335 Mg322 2.010 . S
O335 C327 1.249 . S
Pr336 C338 2.880 1_454 S
Pr336 O356 2.562 1_455 S
Pr336 O357 2.490 1_454 S
Pr336 O358 2.695 . S
Pr336 O359 2.512 1_554 S
Pr336 O361 2.437 . S
Pr336 O364 2.436 . S
Pr336 O366 2.438 . S
Pr337 C347 2.880 . S
Pr337 O358 2.436 . S
Pr337 O360 2.438 . S
Pr337 O362 2.562 . S
Pr337 O363 2.490 . S
Pr337 O364 2.695 . S
Pr337 O365 2.512 . S
Pr337 O367 2.437 . S
C338 Pr336 2.880 1_656 S
C338 C339 1.491 . S
C338 O356 1.254 1_556 S
C338 O357 1.225 . S
C339 C338 1.491 . S
C339 C340 1.392 . S
C339 C344 1.356 . S
C340 C339 1.392 . S
C340 C341 1.368 . S
C340 H368 0.929 . S
C341 C340 1.368 . S
C341 C342 1.386 . S
C341 H369 0.929 . S
C342 C341 1.386 . S
C342 C343 1.373 . S
C343 C342 1.373 . S
C343 C344 1.409 . S
C343 H370 0.931 . S
C344 C339 1.356 . S
C344 C343 1.409 . S
C344 H371 0.930 1_556 S
C345 O358 1.270 1_556 S
C345 O359 1.248 . S
C346 O360 1.267 . S
C346 O361 1.278 . S
C347 Pr337 2.880 . S
C347 C348 1.491 . S
C347 O362 1.254 . S
C347 O363 1.225 . S
C348 C347 1.491 . S
C348 C349 1.392 . S
C348 C353 1.356 . S
C349 C348 1.392 . S
C349 C350 1.368 . S
C349 H372 0.929 . S
C350 C349 1.368 . S
C350 C351 1.386 . S
C350 H373 0.929 . S
C351 C350 1.386 . S
C351 C352 1.373 . S
C352 C351 1.373 . S
C352 C353 1.409 . S
C352 H374 0.931 . S
C353 C348 1.356 . S
C353 C352 1.409 . S
C353 H375 0.930 . S
C354 O364 1.270 . S
C354 O365 1.248 . S
C355 O366 1.267 . S
C355 O367 1.278 . S
O356 Pr336 2.562 1_655 S
O356 C338 1.254 1_554 S
O357 Pr336 2.490 1_656 S
O357 C338 1.225 . S
O358 Pr336 2.695 . S
O358 Pr337 2.436 . S
O358 C345 1.270 1_554 S
O359 Pr336 2.512 1_556 S
O359 C345 1.248 . S
O360 Pr337 2.438 . S
O360 C346 1.267 . S
O361 Pr336 2.437 . S
O361 C346 1.278 . S
O362 Pr337 2.562 . S
O362 C347 1.254 . S
O363 Pr337 2.490 . S
O363 C347 1.225 . S
O364 Pr336 2.436 . S
O364 Pr337 2.695 . S
O364 C354 1.270 . S
O365 Pr337 2.512 . S
O365 C354 1.248 . S
O366 Pr336 2.438 . S
O366 C355 1.267 . S
O367 Pr337 2.437 . S
O367 C355 1.278 . S
H368 C340 0.929 . S
H369 C341 0.929 . S
H370 C343 0.931 . S
H371 C344 0.930 1_554 S
H372 C349 0.929 . S
H373 C350 0.929 . S
H374 C352 0.931 . S
H375 C353 0.930 . S
Pr376 C378 2.880 . S
Pr376 O396 2.562 . S
Pr376 O397 2.490 . S
Pr376 O398 2.695 . S
Pr376 O399 2.512 . S
Pr376 O401 2.437 . S
Pr376 O404 2.436 . S
Pr376 O406 2.438 . S
Pr377 C387 2.880 . S
Pr377 O398 2.436 . S
Pr377 O400 2.438 . S
Pr377 O402 2.562 . S
Pr377 O403 2.490 . S
Pr377 O404 2.695 . S
Pr377 O405 2.512 . S
Pr377 O407 2.437 . S
C378 Pr376 2.880 . S
C378 C379 1.491 . S
C378 O396 1.254 . S
C378 O397 1.225 . S
C379 C378 1.491 . S
C379 C380 1.392 . S
C379 C384 1.356 . S
C380 C379 1.392 . S
C380 C381 1.368 . S
C380 H408 0.929 . S
C381 C380 1.368 . S
C381 C382 1.386 . S
C381 H409 0.929 . S
C382 C381 1.386 . S
C382 C383 1.373 . S
C383 C382 1.373 . S
C383 C384 1.409 . S
C383 H410 0.931 . S
C384 C379 1.356 . S
C384 C383 1.409 . S
C384 H411 0.930 . S
C385 O398 1.270 . S
C385 O399 1.248 . S
C386 O400 1.267 . S
C386 O401 1.278 . S
C387 Pr377 2.880 . S
C387 C388 1.491 . S
C387 O402 1.254 . S
C387 O403 1.225 . S
C388 C387 1.491 . S
C388 C389 1.392 . S
C388 C393 1.356 . S
C389 C388 1.392 . S
C389 C390 1.368 . S
C389 H412 0.929 . S
C390 C389 1.368 . S
C390 C391 1.386 . S
C390 H413 0.929 . S
C391 C390 1.386 . S
C391 C392 1.373 . S
C392 C391 1.373 . S
C392 C393 1.409 . S
C392 H414 0.931 . S
C393 C388 1.356 . S
C393 C392 1.409 . S
C393 H415 0.930 . S
C394 O404 1.270 . S
C394 O405 1.248 . S
C395 O406 1.267 . S
C395 O407 1.278 . S
O396 Pr376 2.562 . S
O396 C378 1.254 . S
O397 Pr376 2.490 . S
O397 C378 1.225 . S
O398 Pr376 2.695 . S
O398 Pr377 2.436 . S
O398 C385 1.270 . S
O399 Pr376 2.512 . S
O399 C385 1.248 . S
O400 Pr377 2.438 . S
O400 C386 1.267 . S
O401 Pr376 2.437 . S
O401 C386 1.278 . S
O402 Pr377 2.562 . S
O402 C387 1.254 . S
O403 Pr377 2.490 . S
O403 C387 1.225 . S
O404 Pr376 2.436 . S
O404 Pr377 2.695 . S
O404 C394 1.270 . S
O405 Pr377 2.512 . S
O405 C394 1.248 . S
O406 Pr376 2.438 . S
O406 C395 1.267 . S
O407 Pr377 2.437 . S
O407 C395 1.278 . S
H408 C380 0.929 . S
H409 C381 0.929 . S
H410 C383 0.931 . S
H411 C384 0.930 . S
H412 C389 0.929 . S
H413 C390 0.929 . S
H414 C392 0.931 . S
H415 C393 0.930 . S
Pr416 C418 2.880 . S
Pr416 O436 2.562 . S
Pr416 O437 2.490 . S
Pr416 O438 2.695 . S
Pr416 O439 2.512 . S
Pr416 O441 2.437 . S
Pr416 O444 2.436 . S
Pr416 O446 2.438 . S
Pr417 C427 2.880 . S
Pr417 O438 2.436 . S
Pr417 O440 2.438 . S
Pr417 O442 2.562 . S
Pr417 O443 2.490 . S
Pr417 O444 2.695 . S
Pr417 O445 2.512 . S
Pr417 O447 2.437 . S
C418 Pr416 2.880 . S
C418 C419 1.491 . S
C418 O436 1.254 . S
C418 O437 1.225 . S
C419 C418 1.491 . S
C419 C420 1.392 . S
C419 C424 1.356 . S
C420 C419 1.392 . S
C420 C421 1.368 . S
C420 H448 0.929 . S
C421 C420 1.368 . S
C421 C422 1.386 . S
C421 H449 0.929 . S
C422 C421 1.386 . S
C422 C423 1.373 . S
C423 C422 1.373 . S
C423 C424 1.409 . S
C423 H450 0.931 . S
C424 C419 1.356 . S
C424 C423 1.409 . S
C424 H451 0.930 . S
C425 O438 1.270 . S
C425 O439 1.248 . S
C426 O440 1.267 . S
C426 O441 1.278 . S
C427 Pr417 2.880 . S
C427 C428 1.491 . S
C427 O442 1.254 . S
C427 O443 1.225 . S
C428 C427 1.491 . S
C428 C429 1.392 . S
C428 C433 1.356 . S
C429 C428 1.392 . S
C429 C430 1.368 . S
C429 H452 0.929 . S
C430 C429 1.368 . S
C430 C431 1.386 . S
C430 H453 0.929 . S
C431 C430 1.386 . S
C431 C432 1.373 . S
C432 C431 1.373 . S
C432 C433 1.409 . S
C432 H454 0.931 . S
C433 C428 1.356 . S
C433 C432 1.409 . S
C433 H455 0.930 . S
C434 O444 1.270 . S
C434 O445 1.248 . S
C435 O446 1.267 . S
C435 O447 1.278 . S
O436 Pr416 2.562 . S
O436 C418 1.254 . S
O437 Pr416 2.490 . S
O437 C418 1.225 . S
O438 Pr416 2.695 . S
O438 Pr417 2.436 . S
O438 C425 1.270 . S
O439 Pr416 2.512 . S
O439 C425 1.248 . S
O440 Pr417 2.438 . S
O440 C426 1.267 . S
O441 Pr416 2.437 . S
O441 C426 1.278 . S
O442 Pr417 2.562 . S
O442 C427 1.254 . S
O443 Pr417 2.490 . S
O443 C427 1.225 . S
O444 Pr416 2.436 . S
O444 Pr417 2.695 . S
O444 C434 1.270 . S
O445 Pr417 2.512 . S
O445 C434 1.248 . S
O446 Pr416 2.438 . S
O446 C435 1.267 . S
O447 Pr417 2.437 . S
O447 C435 1.278 . S
H448 C420 0.929 . S
H449 C421 0.929 . S
H450 C423 0.931 . S
H451 C424 0.930 . S
H452 C429 0.929 . S
H453 C430 0.929 . S
H454 C432 0.931 . S
H455 C433 0.930 . S
Pr456 C458 2.880 . S
Pr456 O476 2.562 . S
Pr456 O477 2.490 . S
Pr456 O478 2.695 . S
Pr456 O479 2.512 . S
Pr456 O481 2.437 . S
Pr456 O484 2.436 . S
Pr456 O486 2.438 . S
Pr457 C467 2.880 . S
Pr457 O478 2.436 . S
Pr457 O480 2.438 . S
Pr457 O482 2.562 . S
Pr457 O483 2.490 . S
Pr457 O484 2.695 . S
Pr457 O485 2.512 . S
Pr457 O487 2.437 . S
C458 Pr456 2.880 . S
C458 C459 1.491 . S
C458 O476 1.254 . S
C458 O477 1.225 . S
C459 C458 1.491 . S
C459 C460 1.392 . S
C459 C464 1.356 . S
C460 C459 1.392 . S
C460 C461 1.368 . S
C460 H488 0.929 . S
C461 C460 1.368 . S
C461 C462 1.386 . S
C461 H489 0.929 . S
C462 C461 1.386 . S
C462 C463 1.373 . S
C463 C462 1.373 . S
C463 C464 1.409 . S
C463 H490 0.931 . S
C464 C459 1.356 . S
C464 C463 1.409 . S
C464 H491 0.930 . S
C465 O478 1.270 . S
C465 O479 1.248 . S
C466 O480 1.267 . S
C466 O481 1.278 . S
C467 Pr457 2.880 . S
C467 C468 1.491 . S
C467 O482 1.254 . S
C467 O483 1.225 . S
C468 C467 1.491 . S
C468 C469 1.392 . S
C468 C473 1.356 . S
C469 C468 1.392 . S
C469 C470 1.368 . S
C469 H492 0.929 . S
C470 C469 1.368 . S
C470 C471 1.386 . S
C470 H493 0.929 . S
C471 C470 1.386 . S
C471 C472 1.373 . S
C472 C471 1.373 . S
C472 C473 1.409 . S
C472 H494 0.931 . S
C473 C468 1.356 . S
C473 C472 1.409 . S
C473 H495 0.930 . S
C474 O484 1.270 . S
C474 O485 1.248 . S
C475 O486 1.267 . S
C475 O487 1.278 . S
O476 Pr456 2.562 . S
O476 C458 1.254 . S
O477 Pr456 2.490 . S
O477 C458 1.225 . S
O478 Pr456 2.695 . S
O478 Pr457 2.436 . S
O478 C465 1.270 . S
O479 Pr456 2.512 . S
O479 C465 1.248 . S
O480 Pr457 2.438 . S
O480 C466 1.267 . S
O481 Pr456 2.437 . S
O481 C466 1.278 . S
O482 Pr457 2.562 . S
O482 C467 1.254 . S
O483 Pr457 2.490 . S
O483 C467 1.225 . S
O484 Pr456 2.436 . S
O484 Pr457 2.695 . S
O484 C474 1.270 . S
O485 Pr457 2.512 . S
O485 C474 1.248 . S
O486 Pr456 2.438 . S
O486 C475 1.267 . S
O487 Pr457 2.437 . S
O487 C475 1.278 . S
H488 C460 0.929 . S
H489 C461 0.929 . S
H490 C463 0.931 . S
H491 C464 0.930 . S
H492 C469 0.929 . S
H493 C470 0.929 . S
H494 C472 0.931 . S
H495 C473 0.930 . S
Pr496 C498 2.880 . S
Pr496 O516 2.562 . S
Pr496 O517 2.490 . S
Pr496 O518 2.695 . S
Pr496 O519 2.512 . S
Pr496 O521 2.437 . S
Pr496 O524 2.436 . S
Pr496 O526 2.438 . S
Pr497 C507 2.880 . S
Pr497 O518 2.436 . S
Pr497 O520 2.438 . S
Pr497 O522 2.562 . S
Pr497 O523 2.490 . S
Pr497 O524 2.695 . S
Pr497 O525 2.512 . S
Pr497 O527 2.437 . S
C498 Pr496 2.880 . S
C498 C499 1.491 . S
C498 O516 1.254 . S
C498 O517 1.225 . S
C499 C498 1.491 . S
C499 C500 1.392 . S
C499 C504 1.356 1_455 S
C500 C499 1.392 . S
C500 C501 1.368 . S
C500 H528 0.929 . S
C501 C500 1.368 . S
C501 C502 1.386 1_455 S
C501 H529 0.929 . S
C502 C501 1.386 1_655 S
C502 C503 1.373 . S
C503 C502 1.373 . S
C503 C504 1.409 . S
C503 H530 0.931 . S
C504 C499 1.356 1_655 S
C504 C503 1.409 . S
C504 H531 0.930 . S
C505 O518 1.270 . S
C505 O519 1.248 . S
C506 O520 1.267 . S
C506 O521 1.278 . S
C507 Pr497 2.880 . S
C507 C508 1.491 . S
C507 O522 1.254 . S
C507 O523 1.225 . S
C508 C507 1.491 . S
C508 C509 1.392 . S
C508 C513 1.356 . S
C509 C508 1.392 . S
C509 C510 1.368 . S
C509 H532 0.929 . S
C510 C509 1.368 . S
C510 C511 1.386 . S
C510 H533 0.929 . S
C511 C510 1.386 . S
C511 C512 1.373 . S
C512 C511 1.373 . S
C512 C513 1.409 . S
C512 H534 0.931 . S
C513 C508 1.356 . S
C513 C512 1.409 . S
C513 H535 0.930 . S
C514 O524 1.270 . S
C514 O525 1.248 . S
C515 O526 1.267 . S
C515 O527 1.278 . S
O516 Pr496 2.562 . S
O516 C498 1.254 . S
O517 Pr496 2.490 . S
O517 C498 1.225 . S
O518 Pr496 2.695 . S
O518 Pr497 2.436 . S
O518 C505 1.270 . S
O519 Pr496 2.512 . S
O519 C505 1.248 . S
O520 Pr497 2.438 . S
O520 C506 1.267 . S
O521 Pr496 2.437 . S
O521 C506 1.278 . S
O522 Pr497 2.562 . S
O522 C507 1.254 . S
O523 Pr497 2.490 . S
O523 C507 1.225 . S
O524 Pr496 2.436 . S
O524 Pr497 2.695 . S
O524 C514 1.270 . S
O525 Pr497 2.512 . S
O525 C514 1.248 . S
O526 Pr496 2.438 . S
O526 C515 1.267 . S
O527 Pr497 2.437 . S
O527 C515 1.278 . S
H528 C500 0.929 . S
H529 C501 0.929 . S
H530 C503 0.931 . S
H531 C504 0.930 . S
H532 C509 0.929 . S
H533 C510 0.929 . S
H534 C512 0.931 . S
H535 C513 0.930 . S
Pr536 C538 2.880 . S
Pr536 O556 2.562 . S
Pr536 O557 2.490 . S
Pr536 O558 2.695 . S
Pr536 O559 2.512 . S
Pr536 O561 2.437 . S
Pr536 O564 2.436 . S
Pr536 O566 2.438 . S
Pr537 C547 2.880 . S
Pr537 O558 2.436 . S
Pr537 O560 2.438 . S
Pr537 O562 2.562 . S
Pr537 O563 2.490 . S
Pr537 O564 2.695 . S
Pr537 O565 2.512 . S
Pr537 O567 2.437 . S
C538 Pr536 2.880 . S
C538 C539 1.491 . S
C538 O556 1.254 . S
C538 O557 1.225 . S
C539 C538 1.491 . S
C539 C540 1.392 . S
C539 C544 1.356 . S
C540 C539 1.392 . S
C540 C541 1.368 . S
C540 H568 0.929 . S
C541 C540 1.368 . S
C541 C542 1.386 . S
C541 H569 0.929 . S
C542 C541 1.386 . S
C542 C543 1.373 . S
C543 C542 1.373 . S
C543 C544 1.409 . S
C543 H570 0.931 . S
C544 C539 1.356 . S
C544 C543 1.409 . S
C544 H571 0.930 . S
C545 O558 1.270 . S
C545 O559 1.248 . S
C546 O560 1.267 . S
C546 O561 1.278 . S
C547 Pr537 2.880 . S
C547 C548 1.491 . S
C547 O562 1.254 . S
C547 O563 1.225 . S
C548 C547 1.491 . S
C548 C549 1.392 . S
C548 C553 1.356 . S
C549 C548 1.392 . S
C549 C550 1.368 . S
C549 H572 0.929 . S
C550 C549 1.368 . S
C550 C551 1.386 . S
C550 H573 0.929 . S
C551 C550 1.386 . S
C551 C552 1.373 . S
C552 C551 1.373 . S
C552 C553 1.409 . S
C552 H574 0.931 . S
C553 C548 1.356 . S
C553 C552 1.409 . S
C553 H575 0.930 . S
C554 O564 1.270 . S
C554 O565 1.248 . S
C555 O566 1.267 . S
C555 O567 1.278 . S
O556 Pr536 2.562 . S
O556 C538 1.254 . S
O557 Pr536 2.490 . S
O557 C538 1.225 . S
O558 Pr536 2.695 . S
O558 Pr537 2.436 . S
O558 C545 1.270 . S
O559 Pr536 2.512 . S
O559 C545 1.248 . S
O560 Pr537 2.438 . S
O560 C546 1.267 . S
O561 Pr536 2.437 . S
O561 C546 1.278 . S
O562 Pr537 2.562 . S
O562 C547 1.254 . S
O563 Pr537 2.490 . S
O563 C547 1.225 . S
O564 Pr536 2.436 . S
O564 Pr537 2.695 . S
O564 C554 1.270 . S
O565 Pr537 2.512 . S
O565 C554 1.248 . S
O566 Pr536 2.438 . S
O566 C555 1.267 . S
O567 Pr537 2.437 . S
O567 C555 1.278 . S
H568 C540 0.929 . S
H569 C541 0.929 . S
H570 C543 0.931 . S
H571 C544 0.930 . S
H572 C549 0.929 . S
H573 C550 0.929 . S
H574 C552 0.931 . S
H575 C553 0.930 . S
Pr576 C578 2.880 . S
Pr576 O596 2.562 . S
Pr576 O597 2.490 . S
Pr576 O598 2.695 . S
Pr576 O599 2.512 . S
Pr576 O601 2.437 . S
Pr576 O604 2.436 . S
Pr576 O606 2.438 . S
Pr577 C587 2.880 . S
Pr577 O598 2.436 1_556 S
Pr577 O600 2.438 1_556 S
Pr577 O602 2.562 . S
Pr577 O603 2.490 . S
Pr577 O604 2.695 1_556 S
Pr577 O605 2.512 1_556 S
Pr577 O607 2.437 1_556 S
C578 Pr576 2.880 . S
C578 C579 1.491 . S
C578 O596 1.254 . S
C578 O597 1.225 . S
C579 C578 1.491 . S
C579 C580 1.392 . S
C579 C584 1.356 . S
C580 C579 1.392 . S
C580 C581 1.368 . S
C580 H608 0.929 . S
C581 C580 1.368 . S
C581 C582 1.386 . S
C581 H609 0.929 . S
C582 C581 1.386 . S
C582 C583 1.373 . S
C583 C582 1.373 . S
C583 C584 1.409 . S
C583 H610 0.931 . S
C584 C579 1.356 . S
C584 C583 1.409 . S
C584 H611 0.930 . S
C585 O598 1.270 . S
C585 O599 1.248 . S
C586 O600 1.267 . S
C586 O601 1.278 . S
C587 Pr577 2.880 . S
C587 C588 1.491 . S
C587 O602 1.254 . S
C587 O603 1.225 . S
C588 C587 1.491 . S
C588 C589 1.392 . S
C588 C593 1.356 . S
C589 C588 1.392 . S
C589 C590 1.368 . S
C589 H612 0.929 . S
C590 C589 1.368 . S
C590 C591 1.386 . S
C590 H613 0.929 . S
C591 C590 1.386 . S
C591 C592 1.373 . S
C592 C591 1.373 . S
C592 C593 1.409 . S
C592 H614 0.931 . S
C593 C588 1.356 . S
C593 C592 1.409 . S
C593 H615 0.930 . S
C594 O604 1.270 . S
C594 O605 1.248 . S
C595 O606 1.267 . S
C595 O607 1.278 . S
O596 Pr576 2.562 . S
O596 C578 1.254 . S
O597 Pr576 2.490 . S
O597 C578 1.225 . S
O598 Pr576 2.695 . S
O598 Pr577 2.436 1_554 S
O598 C585 1.270 . S
O599 Pr576 2.512 . S
O599 C585 1.248 . S
O600 Pr577 2.438 1_554 S
O600 C586 1.267 . S
O601 Pr576 2.437 . S
O601 C586 1.278 . S
O602 Pr577 2.562 . S
O602 C587 1.254 . S
O603 Pr577 2.490 . S
O603 C587 1.225 . S
O604 Pr576 2.436 . S
O604 Pr577 2.695 1_554 S
O604 C594 1.270 . S
O605 Pr577 2.512 1_554 S
O605 C594 1.248 . S
O606 Pr576 2.438 . S
O606 C595 1.267 . S
O607 Pr577 2.437 1_554 S
O607 C595 1.278 . S
H608 C580 0.929 . S
H609 C581 0.929 . S
H610 C583 0.931 . S
H611 C584 0.930 . S
H612 C589 0.929 . S
H613 C590 0.929 . S
H614 C592 0.931 . S
H615 C593 0.930 . S
Pr616 C618 2.880 . S
Pr616 O636 2.562 . S
Pr616 O637 2.490 . S
Pr616 O638 2.695 . S
Pr616 O639 2.512 . S
Pr616 O641 2.437 . S
Pr616 O644 2.436 . S
Pr616 O646 2.438 . S
Pr617 C627 2.880 . S
Pr617 O638 2.436 . S
Pr617 O640 2.438 . S
Pr617 O642 2.562 . S
Pr617 O643 2.490 . S
Pr617 O644 2.695 . S
Pr617 O645 2.512 . S
Pr617 O647 2.437 . S
C618 Pr616 2.880 . S
C618 C619 1.491 . S
C618 O636 1.254 . S
C618 O637 1.225 . S
C619 C618 1.491 . S
C619 C620 1.392 . S
C619 C624 1.356 . S
C620 C619 1.392 . S
C620 C621 1.368 . S
C620 H648 0.929 . S
C621 C620 1.368 . S
C621 C622 1.386 . S
C621 H649 0.929 . S
C622 C621 1.386 . S
C622 C623 1.373 . S
C623 C622 1.373 . S
C623 C624 1.409 . S
C623 H650 0.931 . S
C624 C619 1.356 . S
C624 C623 1.409 . S
C624 H651 0.930 . S
C625 O638 1.270 . S
C625 O639 1.248 . S
C626 O640 1.267 . S
C626 O641 1.278 . S
C627 Pr617 2.880 . S
C627 C628 1.491 . S
C627 O642 1.254 . S
C627 O643 1.225 . S
C628 C627 1.491 . S
C628 C629 1.392 . S
C628 C633 1.356 . S
C629 C628 1.392 . S
C629 C630 1.368 . S
C629 H652 0.929 . S
C630 C629 1.368 . S
C630 C631 1.386 . S
C630 H653 0.929 . S
C631 C630 1.386 . S
C631 C632 1.373 . S
C632 C631 1.373 . S
C632 C633 1.409 . S
C632 H654 0.931 . S
C633 C628 1.356 . S
C633 C632 1.409 . S
C633 H655 0.930 . S
C634 O644 1.270 . S
C634 O645 1.248 . S
C635 O646 1.267 . S
C635 O647 1.278 . S
O636 Pr616 2.562 . S
O636 C618 1.254 . S
O637 Pr616 2.490 . S
O637 C618 1.225 . S
O638 Pr616 2.695 . S
O638 Pr617 2.436 . S
O638 C625 1.270 . S
O639 Pr616 2.512 . S
O639 C625 1.248 . S
O640 Pr617 2.438 . S
O640 C626 1.267 . S
O641 Pr616 2.437 . S
O641 C626 1.278 . S
O642 Pr617 2.562 . S
O642 C627 1.254 . S
O643 Pr617 2.490 . S
O643 C627 1.225 . S
O644 Pr616 2.436 . S
O644 Pr617 2.695 . S
O644 C634 1.270 . S
O645 Pr617 2.512 . S
O645 C634 1.248 . S
O646 Pr616 2.438 . S
O646 C635 1.267 . S
O647 Pr617 2.437 . S
O647 C635 1.278 . S
H648 C620 0.929 . S
H649 C621 0.929 . S
H650 C623 0.931 . S
H651 C624 0.930 . S
H652 C629 0.929 . S
H653 C630 0.929 . S
H654 C632 0.931 . S
H655 C633 0.930 . S
Pr656 C658 2.880 . S
Pr656 O676 2.562 . S
Pr656 O677 2.490 . S
Pr656 O678 2.695 1_556 S
Pr656 O679 2.512 . S
Pr656 O681 2.437 . S
Pr656 O684 2.436 1_556 S
Pr656 O686 2.438 1_556 S
Pr657 C667 2.880 . S
Pr657 O678 2.436 . S
Pr657 O680 2.438 . S
Pr657 O682 2.562 . S
Pr657 O683 2.490 . S
Pr657 O684 2.695 . S
Pr657 O685 2.512 . S
Pr657 O687 2.437 . S
C658 Pr656 2.880 . S
C658 C659 1.491 . S
C658 O676 1.254 . S
C658 O677 1.225 . S
C659 C658 1.491 . S
C659 C660 1.392 . S
C659 C664 1.356 . S
C660 C659 1.392 . S
C660 C661 1.368 . S
C660 H688 0.929 . S
C661 C660 1.368 . S
C661 C662 1.386 . S
C661 H689 0.929 . S
C662 C661 1.386 . S
C662 C663 1.373 . S
C663 C662 1.373 . S
C663 C664 1.409 . S
C663 H690 0.931 . S
C664 C659 1.356 . S
C664 C663 1.409 . S
C664 H691 0.930 . S
C665 O678 1.270 . S
C665 O679 1.248 1_554 S
C666 O680 1.267 . S
C666 O681 1.278 1_554 S
C667 Pr657 2.880 . S
C667 C668 1.491 . S
C667 O682 1.254 . S
C667 O683 1.225 . S
C668 C667 1.491 . S
C668 C669 1.392 . S
C668 C673 1.356 . S
C669 C668 1.392 . S
C669 C670 1.368 . S
C669 H692 0.929 . S
C670 C669 1.368 . S
C670 C671 1.386 . S
C670 H693 0.929 . S
C671 C670 1.386 . S
C671 C672 1.373 . S
C672 C671 1.373 . S
C672 C673 1.409 . S
C672 H694 0.931 . S
C673 C668 1.356 . S
C673 C672 1.409 . S
C673 H695 0.930 . S
C674 O684 1.270 . S
C674 O685 1.248 . S
C675 O686 1.267 . S
C675 O687 1.278 . S
O676 Pr656 2.562 . S
O676 C658 1.254 . S
O677 Pr656 2.490 . S
O677 C658 1.225 . S
O678 Pr656 2.695 1_554 S
O678 Pr657 2.436 . S
O678 C665 1.270 . S
O679 Pr656 2.512 . S
O679 C665 1.248 1_556 S
O680 Pr657 2.438 . S
O680 C666 1.267 . S
O681 Pr656 2.437 . S
O681 C666 1.278 1_556 S
O682 Pr657 2.562 . S
O682 C667 1.254 . S
O683 Pr657 2.490 . S
O683 C667 1.225 . S
O684 Pr656 2.436 1_554 S
O684 Pr657 2.695 . S
O684 C674 1.270 . S
O685 Pr657 2.512 . S
O685 C674 1.248 . S
O686 Pr656 2.438 1_554 S
O686 C675 1.267 . S
O687 Pr657 2.437 . S
O687 C675 1.278 . S
H688 C660 0.929 . S
H689 C661 0.929 . S
H690 C663 0.931 . S
H691 C664 0.930 . S
H692 C669 0.929 . S
H693 C670 0.929 . S
H694 C672 0.931 . S
H695 C673 0.930 . S
Pr696 C698 2.880 . S
Pr696 O716 2.562 . S
Pr696 O717 2.490 . S
Pr696 O718 2.695 . S
Pr696 O719 2.512 . S
Pr696 O721 2.437 . S
Pr696 O724 2.436 . S
Pr696 O726 2.438 . S
Pr697 C707 2.880 . S
Pr697 O718 2.436 . S
Pr697 O720 2.438 . S
Pr697 O722 2.562 . S
Pr697 O723 2.490 . S
Pr697 O724 2.695 . S
Pr697 O725 2.512 . S
Pr697 O727 2.437 . S
C698 Pr696 2.880 . S
C698 C699 1.491 . S
C698 O716 1.254 . S
C698 O717 1.225 . S
C699 C698 1.491 . S
C699 C700 1.392 . S
C699 C704 1.356 . S
C700 C699 1.392 . S
C700 C701 1.368 . S
C700 H728 0.929 . S
C701 C700 1.368 . S
C701 C702 1.386 . S
C701 H729 0.929 . S
C702 C701 1.386 . S
C702 C703 1.373 . S
C703 C702 1.373 . S
C703 C704 1.409 . S
C703 H730 0.931 . S
C704 C699 1.356 . S
C704 C703 1.409 . S
C704 H731 0.930 . S
C705 O718 1.270 . S
C705 O719 1.248 . S
C706 O720 1.267 . S
C706 O721 1.278 . S
C707 Pr697 2.880 . S
C707 C708 1.491 . S
C707 O722 1.254 . S
C707 O723 1.225 . S
C708 C707 1.491 . S
C708 C709 1.392 . S
C708 C713 1.356 . S
C709 C708 1.392 . S
C709 C710 1.368 . S
C709 H732 0.929 . S
C710 C709 1.368 . S
C710 C711 1.386 . S
C710 H733 0.929 . S
C711 C710 1.386 . S
C711 C712 1.373 . S
C712 C711 1.373 . S
C712 C713 1.409 . S
C712 H734 0.931 . S
C713 C708 1.356 . S
C713 C712 1.409 . S
C713 H735 0.930 . S
C714 O724 1.270 . S
C714 O725 1.248 . S
C715 O726 1.267 . S
C715 O727 1.278 . S
O716 Pr696 2.562 . S
O716 C698 1.254 . S
O717 Pr696 2.490 . S
O717 C698 1.225 . S
O718 Pr696 2.695 . S
O718 Pr697 2.436 . S
O718 C705 1.270 . S
O719 Pr696 2.512 . S
O719 C705 1.248 . S
O720 Pr697 2.438 . S
O720 C706 1.267 . S
O721 Pr696 2.437 . S
O721 C706 1.278 . S
O722 Pr697 2.562 . S
O722 C707 1.254 . S
O723 Pr697 2.490 . S
O723 C707 1.225 . S
O724 Pr696 2.436 . S
O724 Pr697 2.695 . S
O724 C714 1.270 . S
O725 Pr697 2.512 . S
O725 C714 1.248 . S
O726 Pr696 2.438 . S
O726 C715 1.267 . S
O727 Pr697 2.437 . S
O727 C715 1.278 . S
H728 C700 0.929 . S
H729 C701 0.929 . S
H730 C703 0.931 . S
H731 C704 0.930 . S
H732 C709 0.929 . S
H733 C710 0.929 . S
H734 C712 0.931 . S
H735 C713 0.930 . S
Pr736 C738 2.880 . S
Pr736 O756 2.562 . S
Pr736 O757 2.490 . S
Pr736 O758 2.695 . S
Pr736 O759 2.512 . S
Pr736 O761 2.437 . S
Pr736 O764 2.436 . S
Pr736 O766 2.438 . S
Pr737 C747 2.880 . S
Pr737 O758 2.436 . S
Pr737 O760 2.438 . S
Pr737 O762 2.562 . S
Pr737 O763 2.490 . S
Pr737 O764 2.695 . S
Pr737 O765 2.512 . S
Pr737 O767 2.437 . S
C738 Pr736 2.880 . S
C738 C739 1.491 . S
C738 O756 1.254 . S
C738 O757 1.225 . S
C739 C738 1.491 . S
C739 C740 1.392 . S
C739 C744 1.356 . S
C740 C739 1.392 . S
C740 C741 1.368 . S
C740 H768 0.929 . S
C741 C740 1.368 . S
C741 C742 1.386 . S
C741 H769 0.929 . S
C742 C741 1.386 . S
C742 C743 1.373 . S
C743 C742 1.373 . S
C743 C744 1.409 . S
C743 H770 0.931 1_455 S
C744 C739 1.356 . S
C744 C743 1.409 . S
C744 H771 0.930 . S
C745 O758 1.270 . S
C745 O759 1.248 . S
C746 O760 1.267 . S
C746 O761 1.278 . S
C747 Pr737 2.880 . S
C747 C748 1.491 . S
C747 O762 1.254 . S
C747 O763 1.225 . S
C748 C747 1.491 . S
C748 C749 1.392 . S
C748 C753 1.356 . S
C749 C748 1.392 . S
C749 C750 1.368 . S
C749 H772 0.929 . S
C750 C749 1.368 . S
C750 C751 1.386 . S
C750 H773 0.929 . S
C751 C750 1.386 . S
C751 C752 1.373 . S
C752 C751 1.373 . S
C752 C753 1.409 . S
C752 H774 0.931 . S
C753 C748 1.356 . S
C753 C752 1.409 . S
C753 H775 0.930 . S
C754 O764 1.270 . S
C754 O765 1.248 . S
C755 O766 1.267 . S
C755 O767 1.278 . S
O756 Pr736 2.562 . S
O756 C738 1.254 . S
O757 Pr736 2.490 . S
O757 C738 1.225 . S
O758 Pr736 2.695 . S
O758 Pr737 2.436 . S
O758 C745 1.270 . S
O759 Pr736 2.512 . S
O759 C745 1.248 . S
O760 Pr737 2.438 . S
O760 C746 1.267 . S
O761 Pr736 2.437 . S
O761 C746 1.278 . S
O762 Pr737 2.562 . S
O762 C747 1.254 . S
O763 Pr737 2.490 . S
O763 C747 1.225 . S
O764 Pr736 2.436 . S
O764 Pr737 2.695 . S
O764 C754 1.270 . S
O765 Pr737 2.512 . S
O765 C754 1.248 . S
O766 Pr736 2.438 . S
O766 C755 1.267 . S
O767 Pr737 2.437 . S
O767 C755 1.278 . S
H768 C740 0.929 . S
H769 C741 0.929 . S
H770 C743 0.931 1_655 S
H771 C744 0.930 . S
H772 C749 0.929 . S
H773 C750 0.929 . S
H774 C752 0.931 . S
H775 C753 0.930 . S
Pr776 C778 2.880 . S
Pr776 O796 2.562 . S
Pr776 O797 2.490 . S
Pr776 O798 2.695 . S
Pr776 O799 2.512 . S
Pr776 O801 2.437 . S
Pr776 O804 2.436 . S
Pr776 O806 2.438 . S
Pr777 C787 2.880 . S
Pr777 O798 2.436 . S
Pr777 O800 2.438 . S
Pr777 O802 2.562 . S
Pr777 O803 2.490 . S
Pr777 O804 2.695 . S
Pr777 O805 2.512 . S
Pr777 O807 2.437 . S
C778 Pr776 2.880 . S
C778 C779 1.491 . S
C778 O796 1.254 . S
C778 O797 1.225 . S
C779 C778 1.491 . S
C779 C780 1.392 . S
C779 C784 1.356 . S
C780 C779 1.392 . S
C780 C781 1.368 . S
C780 H808 0.929 . S
C781 C780 1.368 . S
C781 C782 1.386 . S
C781 H809 0.929 . S
C782 C781 1.386 . S
C782 C783 1.373 . S
C783 C782 1.373 . S
C783 C784 1.409 . S
C783 H810 0.931 . S
C784 C779 1.356 . S
C784 C783 1.409 . S
C784 H811 0.930 . S
C785 O798 1.270 . S
C785 O799 1.248 . S
C786 O800 1.267 . S
C786 O801 1.278 . S
C787 Pr777 2.880 . S
C787 C788 1.491 . S
C787 O802 1.254 . S
C787 O803 1.225 . S
C788 C787 1.491 . S
C788 C789 1.392 . S
C788 C793 1.356 . S
C789 C788 1.392 . S
C789 C790 1.368 . S
C789 H812 0.929 . S
C790 C789 1.368 . S
C790 C791 1.386 . S
C790 H813 0.929 . S
C791 C790 1.386 . S
C791 C792 1.373 . S
C792 C791 1.373 . S
C792 C793 1.409 . S
C792 H814 0.931 . S
C793 C788 1.356 . S
C793 C792 1.409 . S
C793 H815 0.930 . S
C794 O804 1.270 . S
C794 O805 1.248 . S
C795 O806 1.267 . S
C795 O807 1.278 . S
O796 Pr776 2.562 . S
O796 C778 1.254 . S
O797 Pr776 2.490 . S
O797 C778 1.225 . S
O798 Pr776 2.695 . S
O798 Pr777 2.436 . S
O798 C785 1.270 . S
O799 Pr776 2.512 . S
O799 C785 1.248 . S
O800 Pr777 2.438 . S
O800 C786 1.267 . S
O801 Pr776 2.437 . S
O801 C786 1.278 . S
O802 Pr777 2.562 . S
O802 C787 1.254 . S
O803 Pr777 2.490 . S
O803 C787 1.225 . S
O804 Pr776 2.436 . S
O804 Pr777 2.695 . S
O804 C794 1.270 . S
O805 Pr777 2.512 . S
O805 C794 1.248 . S
O806 Pr776 2.438 . S
O806 C795 1.267 . S
O807 Pr777 2.437 . S
O807 C795 1.278 . S
H808 C780 0.929 . S
H809 C781 0.929 . S
H810 C783 0.931 . S
H811 C784 0.930 . S
H812 C789 0.929 . S
H813 C790 0.929 . S
H814 C792 0.931 . S
H815 C793 0.930 . S
Pr816 C818 2.880 . S
Pr816 O836 2.562 . S
Pr816 O837 2.490 . S
Pr816 O838 2.695 . S
Pr816 O839 2.512 . S
Pr816 O841 2.437 . S
Pr816 O844 2.436 . S
Pr816 O846 2.438 . S
Pr817 C827 2.880 . S
Pr817 O838 2.436 . S
Pr817 O840 2.438 . S
Pr817 O842 2.562 . S
Pr817 O843 2.490 . S
Pr817 O844 2.695 . S
Pr817 O845 2.512 . S
Pr817 O847 2.437 . S
C818 Pr816 2.880 . S
C818 C819 1.491 . S
C818 O836 1.254 . S
C818 O837 1.225 . S
C819 C818 1.491 . S
C819 C820 1.392 . S
C819 C824 1.356 . S
C820 C819 1.392 . S
C820 C821 1.368 . S
C820 H848 0.929 . S
C821 C820 1.368 . S
C821 C822 1.386 . S
C821 H849 0.929 . S
C822 C821 1.386 . S
C822 C823 1.373 . S
C823 C822 1.373 . S
C823 C824 1.409 . S
C823 H850 0.931 . S
C824 C819 1.356 . S
C824 C823 1.409 . S
C824 H851 0.930 . S
C825 O838 1.270 . S
C825 O839 1.248 . S
C826 O840 1.267 . S
C826 O841 1.278 . S
C827 Pr817 2.880 . S
C827 C828 1.491 . S
C827 O842 1.254 . S
C827 O843 1.225 . S
C828 C827 1.491 . S
C828 C829 1.392 . S
C828 C833 1.356 . S
C829 C828 1.392 . S
C829 C830 1.368 . S
C829 H852 0.929 . S
C830 C829 1.368 . S
C830 C831 1.386 . S
C830 H853 0.929 . S
C831 C830 1.386 . S
C831 C832 1.373 . S
C832 C831 1.373 . S
C832 C833 1.409 . S
C832 H854 0.931 . S
C833 C828 1.356 . S
C833 C832 1.409 . S
C833 H855 0.930 . S
C834 O844 1.270 . S
C834 O845 1.248 . S
C835 O846 1.267 . S
C835 O847 1.278 . S
O836 Pr816 2.562 . S
O836 C818 1.254 . S
O837 Pr816 2.490 . S
O837 C818 1.225 . S
O838 Pr816 2.695 . S
O838 Pr817 2.436 . S
O838 C825 1.270 . S
O839 Pr816 2.512 . S
O839 C825 1.248 . S
O840 Pr817 2.438 . S
O840 C826 1.267 . S
O841 Pr816 2.437 . S
O841 C826 1.278 . S
O842 Pr817 2.562 . S
O842 C827 1.254 . S
O843 Pr817 2.490 . S
O843 C827 1.225 . S
O844 Pr816 2.436 . S
O844 Pr817 2.695 . S
O844 C834 1.270 . S
O845 Pr817 2.512 . S
O845 C834 1.248 . S
O846 Pr816 2.438 . S
O846 C835 1.267 . S
O847 Pr817 2.437 . S
O847 C835 1.278 . S
H848 C820 0.929 . S
H849 C821 0.929 . S
H850 C823 0.931 . S
H851 C824 0.930 . S
H852 C829 0.929 . S
H853 C830 0.929 . S
H854 C832 0.931 . S
H855 C833 0.930 . S
Pr856 C858 2.880 . S
Pr856 O876 2.562 . S
Pr856 O877 2.490 . S
Pr856 O878 2.695 . S
Pr856 O879 2.512 . S
Pr856 O881 2.437 . S
Pr856 O884 2.436 . S
Pr856 O886 2.438 . S
Pr857 C867 2.880 . S
Pr857 O878 2.436 . S
Pr857 O880 2.438 . S
Pr857 O882 2.562 . S
Pr857 O883 2.490 . S
Pr857 O884 2.695 . S
Pr857 O885 2.512 . S
Pr857 O887 2.437 . S
C858 Pr856 2.880 . S
C858 C859 1.491 . S
C858 O876 1.254 . S
C858 O877 1.225 . S
C859 C858 1.491 . S
C859 C860 1.392 . S
C859 C864 1.356 . S
C860 C859 1.392 . S
C860 C861 1.368 . S
C860 H888 0.929 . S
C861 C860 1.368 . S
C861 C862 1.386 . S
C861 H889 0.929 . S
C862 C861 1.386 . S
C862 C863 1.373 . S
C863 C862 1.373 . S
C863 C864 1.409 . S
C863 H890 0.931 . S
C864 C859 1.356 . S
C864 C863 1.409 . S
C864 H891 0.930 . S
C865 O878 1.270 . S
C865 O879 1.248 . S
C866 O880 1.267 . S
C866 O881 1.278 . S
C867 Pr857 2.880 . S
C867 C868 1.491 . S
C867 O882 1.254 . S
C867 O883 1.225 . S
C868 C867 1.491 . S
C868 C869 1.392 . S
C868 C873 1.356 . S
C869 C868 1.392 . S
C869 C870 1.368 . S
C869 H892 0.929 . S
C870 C869 1.368 . S
C870 C871 1.386 . S
C870 H893 0.929 . S
C871 C870 1.386 . S
C871 C872 1.373 . S
C872 C871 1.373 . S
C872 C873 1.409 . S
C872 H894 0.931 . S
C873 C868 1.356 . S
C873 C872 1.409 . S
C873 H895 0.930 . S
C874 O884 1.270 . S
C874 O885 1.248 . S
C875 O886 1.267 . S
C875 O887 1.278 . S
O876 Pr856 2.562 . S
O876 C858 1.254 . S
O877 Pr856 2.490 . S
O877 C858 1.225 . S
O878 Pr856 2.695 . S
O878 Pr857 2.436 . S
O878 C865 1.270 . S
O879 Pr856 2.512 . S
O879 C865 1.248 . S
O880 Pr857 2.438 . S
O880 C866 1.267 . S
O881 Pr856 2.437 . S
O881 C866 1.278 . S
O882 Pr857 2.562 . S
O882 C867 1.254 . S
O883 Pr857 2.490 . S
O883 C867 1.225 . S
O884 Pr856 2.436 . S
O884 Pr857 2.695 . S
O884 C874 1.270 . S
O885 Pr857 2.512 . S
O885 C874 1.248 . S
O886 Pr856 2.438 . S
O886 C875 1.267 . S
O887 Pr857 2.437 . S
O887 C875 1.278 . S
H888 C860 0.929 . S
H889 C861 0.929 . S
H890 C863 0.931 . S
H891 C864 0.930 . S
H892 C869 0.929 . S
H893 C870 0.929 . S
H894 C872 0.931 . S
H895 C873 0.930 . S
Pr896 C898 2.880 . S
Pr896 O916 2.562 . S
Pr896 O917 2.490 . S
Pr896 O918 2.695 . S
Pr896 O919 2.512 . S
Pr896 O921 2.437 . S
Pr896 O924 2.436 . S
Pr896 O926 2.438 . S
Pr897 C907 2.880 . S
Pr897 O918 2.436 . S
Pr897 O920 2.438 . S
Pr897 O922 2.562 . S
Pr897 O923 2.490 . S
Pr897 O924 2.695 . S
Pr897 O925 2.512 . S
Pr897 O927 2.437 . S
C898 Pr896 2.880 . S
C898 C899 1.491 . S
C898 O916 1.254 . S
C898 O917 1.225 . S
C899 C898 1.491 . S
C899 C900 1.392 . S
C899 C904 1.356 . S
C900 C899 1.392 . S
C900 C901 1.368 . S
C900 H928 0.929 . S
C901 C900 1.368 . S
C901 C902 1.386 . S
C901 H929 0.929 . S
C902 C901 1.386 . S
C902 C903 1.373 . S
C903 C902 1.373 . S
C903 C904 1.409 . S
C903 H930 0.931 . S
C904 C899 1.356 . S
C904 C903 1.409 . S
C904 H931 0.930 . S
C905 O918 1.270 . S
C905 O919 1.248 . S
C906 O920 1.267 . S
C906 O921 1.278 . S
C907 Pr897 2.880 . S
C907 C908 1.491 . S
C907 O922 1.254 . S
C907 O923 1.225 . S
C908 C907 1.491 . S
C908 C909 1.392 . S
C908 C913 1.356 . S
C909 C908 1.392 . S
C909 C910 1.368 . S
C909 H932 0.929 . S
C910 C909 1.368 . S
C910 C911 1.386 . S
C910 H933 0.929 . S
C911 C910 1.386 . S
C911 C912 1.373 . S
C912 C911 1.373 . S
C912 C913 1.409 . S
C912 H934 0.931 . S
C913 C908 1.356 . S
C913 C912 1.409 . S
C913 H935 0.930 . S
C914 O924 1.270 . S
C914 O925 1.248 . S
C915 O926 1.267 . S
C915 O927 1.278 . S
O916 Pr896 2.562 . S
O916 C898 1.254 . S
O917 Pr896 2.490 . S
O917 C898 1.225 . S
O918 Pr896 2.695 . S
O918 Pr897 2.436 . S
O918 C905 1.270 . S
O919 Pr896 2.512 . S
O919 C905 1.248 . S
O920 Pr897 2.438 . S
O920 C906 1.267 . S
O921 Pr896 2.437 . S
O921 C906 1.278 . S
O922 Pr897 2.562 . S
O922 C907 1.254 . S
O923 Pr897 2.490 . S
O923 C907 1.225 . S
O924 Pr896 2.436 . S
O924 Pr897 2.695 . S
O924 C914 1.270 . S
O925 Pr897 2.512 . S
O925 C914 1.248 . S
O926 Pr896 2.438 . S
O926 C915 1.267 . S
O927 Pr897 2.437 . S
O927 C915 1.278 . S
H928 C900 0.929 . S
H929 C901 0.929 . S
H930 C903 0.931 . S
H931 C904 0.930 . S
H932 C909 0.929 . S
H933 C910 0.929 . S
H934 C912 0.931 . S
H935 C913 0.930 . S
Pr936 C938 2.880 . S
Pr936 O956 2.562 . S
Pr936 O957 2.490 1_554 S
Pr936 O958 2.708 . S
Pr936 O959 2.512 1_554 S
Pr936 O961 2.437 1_554 S
Pr936 O964 2.436 . S
Pr936 O966 2.438 . S
Pr937 C947 2.880 1_455 S
Pr937 O958 2.475 . S
Pr937 O960 2.438 . S
Pr937 O962 2.562 1_455 S
Pr937 O963 2.490 1_455 S
Pr937 O964 2.695 . S
Pr937 O965 2.512 . S
Pr937 O967 2.437 . S
C938 Pr936 2.880 . S
C938 C939 1.491 . S
C938 O956 1.254 . S
C938 O957 1.225 1_554 S
C939 C938 1.491 . S
C939 C940 1.392 1_554 S
C939 C944 1.356 . S
C940 C939 1.392 1_556 S
C940 C941 1.368 . S
C940 H968 0.929 . S
C941 C940 1.368 . S
C941 C942 1.386 . S
C941 H969 0.929 . S
C942 C941 1.386 . S
C942 C943 1.373 1_556 S
C943 C942 1.373 1_554 S
C943 C944 1.409 . S
C943 H970 0.931 . S
C944 C939 1.356 . S
C944 C943 1.409 . S
C944 H971 0.930 . S
C945 O958 1.223 1_556 S
C945 O959 1.248 . S
C946 O960 1.267 . S
C946 O961 1.278 1_554 S
C947 Pr937 2.880 1_655 S
C947 C948 1.491 . S
C947 O962 1.254 . S
C947 O963 1.225 . S
C948 C947 1.491 . S
C948 C949 1.392 . S
C948 C953 1.356 . S
C949 C948 1.392 . S
C949 C950 1.368 . S
C949 H972 0.929 . S
C950 C949 1.368 . S
C950 C951 1.386 . S
C950 H973 0.929 . S
C951 C950 1.386 . S
C951 C952 1.373 . S
C952 C951 1.373 . S
C952 C953 1.409 . S
C952 H974 0.931 . S
C953 C948 1.356 . S
C953 C952 1.409 . S
C953 H975 0.930 . S
C954 O964 1.270 . S
C954 O965 1.248 . S
C955 O966 1.267 . S
C955 O967 1.278 . S
O956 Pr936 2.562 . S
O956 C938 1.254 . S
O957 Pr936 2.490 1_556 S
O957 C938 1.225 1_556 S
O958 Pr936 2.708 . S
O958 Pr937 2.475 . S
O958 C945 1.223 1_554 S
O959 Pr936 2.512 1_556 S
O959 C945 1.248 . S
O960 Pr937 2.438 . S
O960 C946 1.267 . S
O961 Pr936 2.437 1_556 S
O961 C946 1.278 1_556 S
O962 Pr937 2.562 1_655 S
O962 C947 1.254 . S
O963 Pr937 2.490 1_655 S
O963 C947 1.225 . S
O964 Pr936 2.436 . S
O964 Pr937 2.695 . S
O964 C954 1.270 . S
O965 Pr937 2.512 . S
O965 C954 1.248 . S
O966 Pr936 2.438 . S
O966 C955 1.267 . S
O967 Pr937 2.437 . S
O967 C955 1.278 . S
H968 C940 0.929 . S
H969 C941 0.929 . S
H970 C943 0.931 . S
H971 C944 0.930 . S
H972 C949 0.929 . S
H973 C950 0.929 . S
H974 C952 0.931 . S
H975 C953 0.930 . S
C976 C977 1.391 . S
C976 C978 1.394 . S
C976 H992 0.931 . S
C977 C976 1.391 . S
C977 C981 1.376 . S
C978 C976 1.394 . S
C978 C979 1.369 . S
C978 C982 1.531 1_556 S
C979 C978 1.369 . S
C979 C980 1.410 . S
C979 C987 1.503 . S
C980 C979 1.410 . S
C980 C981 1.392 . S
C980 C983 1.511 . S
C981 C977 1.376 . S
C981 C980 1.392 . S
C981 H993 0.929 . S
C982 C978 1.531 1_554 S
C982 H994 0.960 . S
C982 H995 0.962 . S
C982 H996 0.960 . S
C983 C980 1.511 . S
C983 H997 0.961 . S
C983 H998 0.961 . S
C983 H999 0.961 . S
C984 C985 1.370 . S
C984 C986 1.363 1_554 S
C984 H1000 0.931 . S
C985 C984 1.370 . S
C985 C989 1.402 1_554 S
C986 C984 1.363 1_556 S
C986 C987 1.370 . S
C986 C990 1.524 . S
C987 C979 1.503 . S
C987 C986 1.370 . S
C987 C988 1.403 . S
C988 C987 1.403 . S
C988 C989 1.424 . S
C988 C991 1.539 1_455 S
C989 C985 1.402 1_556 S
C989 C988 1.424 . S
C989 H1001 0.914 1_556 S
C990 C986 1.524 . S
C990 H1002 0.956 1_556 S
C990 H1003 0.961 . S
C990 H1004 0.961 . S
C991 C988 1.539 1_655 S
C991 H1005 0.958 . S
C991 H1006 0.961 . S
C991 H1007 0.960 . S
H992 C976 0.931 . S
H993 C981 0.929 . S
H994 C982 0.960 . S
H995 C982 0.962 . S
H996 C982 0.960 . S
H997 C983 0.961 . S
H998 C983 0.961 . S
H999 C983 0.961 . S
H1000 C984 0.931 . S
H1001 C989 0.914 1_554 S
H1002 C990 0.956 1_554 S
H1003 C990 0.961 . S
H1004 C990 0.961 . S
H1005 C991 0.958 . S
H1006 C991 0.961 . S
H1007 C991 0.960 . S
C1008 C1009 1.391 . S
C1008 C1010 1.394 . S
C1008 H1024 0.931 . S
C1009 C1008 1.391 . S
C1009 C1013 1.376 . S
C1010 C1008 1.394 . S
C1010 C1011 1.369 . S
C1010 C1014 1.531 . S
C1011 C1010 1.369 . S
C1011 C1012 1.410 . S
C1011 C1019 1.503 . S
C1012 C1011 1.410 . S
C1012 C1013 1.392 . S
C1012 C1015 1.511 . S
C1013 C1009 1.376 . S
C1013 C1012 1.392 . S
C1013 H1025 0.929 . S
C1014 C1010 1.531 . S
C1014 H1026 0.960 . S
C1014 H1027 0.962 . S
C1014 H1028 0.960 . S
C1015 C1012 1.511 . S
C1015 H1029 0.961 . S
C1015 H1030 0.961 . S
C1015 H1031 0.961 . S
C1016 C1017 1.370 . S
C1016 C1018 1.363 . S
C1016 H1032 0.931 . S
C1017 C1016 1.370 . S
C1017 C1021 1.408 . S
C1018 C1016 1.363 . S
C1018 C1019 1.370 . S
C1018 C1022 1.524 . S
C1019 C1011 1.503 . S
C1019 C1018 1.370 . S
C1019 C1020 1.403 . S
C1020 C1019 1.403 . S
C1020 C1021 1.404 . S
C1020 C1023 1.539 . S
C1021 C1017 1.408 . S
C1021 C1020 1.404 . S
C1021 H1033 0.930 . S
C1022 C1018 1.524 . S
C1022 H1034 0.956 . S
C1022 H1035 0.961 . S
C1022 H1036 0.961 . S
C1023 C1020 1.539 . S
C1023 H1037 0.958 . S
C1023 H1038 0.961 . S
C1023 H1039 0.960 . S
H1024 C1008 0.931 . S
H1025 C1013 0.929 . S
H1026 C1014 0.960 . S
H1027 C1014 0.962 . S
H1028 C1014 0.960 . S
H1029 C1015 0.961 . S
H1030 C1015 0.961 . S
H1031 C1015 0.961 . S
H1032 C1016 0.931 . S
H1033 C1021 0.930 . S
H1034 C1022 0.956 . S
H1035 C1022 0.961 . S
H1036 C1022 0.961 . S
H1037 C1023 0.958 . S
H1038 C1023 0.961 . S
H1039 C1023 0.960 . S
C1040 C1041 1.391 . S
C1040 C1042 1.394 . S
C1040 H1056 0.931 . S
C1041 C1040 1.391 . S
C1041 C1045 1.376 . S
C1042 C1040 1.394 . S
C1042 C1043 1.369 . S
C1042 C1046 1.531 . S
C1043 C1042 1.369 . S
C1043 C1044 1.410 . S
C1043 C1051 1.503 . S
C1044 C1043 1.410 . S
C1044 C1045 1.392 . S
C1044 C1047 1.511 . S
C1045 C1041 1.376 . S
C1045 C1044 1.392 . S
C1045 H1057 0.929 . S
C1046 C1042 1.531 . S
C1046 H1058 0.960 . S
C1046 H1059 0.962 . S
C1046 H1060 0.960 . S
C1047 C1044 1.511 . S
C1047 H1061 0.961 . S
C1047 H1062 0.961 . S
C1047 H1063 0.961 . S
C1048 C1049 1.370 1_565 S
C1048 C1050 1.363 . S
C1048 H1064 0.931 . S
C1049 C1048 1.370 1_545 S
C1049 C1053 1.408 . S
C1050 C1048 1.363 . S
C1050 C1051 1.370 . S
C1050 C1054 1.524 . S
C1051 C1043 1.503 . S
C1051 C1050 1.370 . S
C1051 C1052 1.403 . S
C1052 C1051 1.403 . S
C1052 C1053 1.404 1_565 S
C1052 C1055 1.539 . S
C1053 C1049 1.408 . S
C1053 C1052 1.404 1_545 S
C1053 H1065 0.930 . S
C1054 C1050 1.524 . S
C1054 H1066 0.956 . S
C1054 H1067 0.961 . S
C1054 H1068 0.961 . S
C1055 C1052 1.539 . S
C1055 H1069 0.958 . S
C1055 H1070 0.961 . S
C1055 H1071 0.960 . S
H1056 C1040 0.931 . S
H1057 C1045 0.929 . S
H1058 C1046 0.960 . S
H1059 C1046 0.962 . S
H1060 C1046 0.960 . S
H1061 C1047 0.961 . S
H1062 C1047 0.961 . S
H1063 C1047 0.961 . S
H1064 C1048 0.931 . S
H1065 C1053 0.930 . S
H1066 C1054 0.956 . S
H1067 C1054 0.961 . S
H1068 C1054 0.961 . S
H1069 C1055 0.958 . S
H1070 C1055 0.961 . S
H1071 C1055 0.960 . S
C1072 C1073 1.391 . S
C1072 C1074 1.394 . S
C1072 H1088 0.931 . S
C1073 C1072 1.391 . S
C1073 C1077 1.376 . S
C1074 C1072 1.394 . S
C1074 C1075 1.369 . S
C1074 C1078 1.531 . S
C1075 C1074 1.369 . S
C1075 C1076 1.410 . S
C1075 C1083 1.503 . S
C1076 C1075 1.410 . S
C1076 C1077 1.392 . S
C1076 C1079 1.511 . S
C1077 C1073 1.376 . S
C1077 C1076 1.392 . S
C1077 H1089 0.929 . S
C1078 C1074 1.531 . S
C1078 H1090 0.960 . S
C1078 H1091 0.962 . S
C1078 H1092 0.960 . S
C1079 C1076 1.511 . S
C1079 H1093 0.961 . S
C1079 H1094 0.961 . S
C1079 H1095 0.961 . S
C1080 C1081 1.370 . S
C1080 C1082 1.363 . S
C1080 H1096 0.931 . S
C1081 C1080 1.370 . S
C1081 C1085 1.408 . S
C1082 C1080 1.363 . S
C1082 C1083 1.370 . S
C1082 C1086 1.524 . S
C1083 C1075 1.503 . S
C1083 C1082 1.370 . S
C1083 C1084 1.403 . S
C1084 C1083 1.403 . S
C1084 C1085 1.404 . S
C1084 C1087 1.539 . S
C1085 C1081 1.408 . S
C1085 C1084 1.404 . S
C1085 H1097 0.930 . S
C1086 C1082 1.524 . S
C1086 H1098 0.956 . S
C1086 H1099 0.961 . S
C1086 H1100 0.961 . S
C1087 C1084 1.539 . S
C1087 H1101 0.958 . S
C1087 H1102 0.961 . S
C1087 H1103 0.960 . S
H1088 C1072 0.931 . S
H1089 C1077 0.929 . S
H1090 C1078 0.960 . S
H1091 C1078 0.962 . S
H1092 C1078 0.960 . S
H1093 C1079 0.961 . S
H1094 C1079 0.961 . S
H1095 C1079 0.961 . S
H1096 C1080 0.931 . S
H1097 C1085 0.930 . S
H1098 C1086 0.956 . S
H1099 C1086 0.961 . S
H1100 C1086 0.961 . S
H1101 C1087 0.958 . S
H1102 C1087 0.961 . S
H1103 C1087 0.960 . S
C1104 C1105 1.391 . S
C1104 C1106 1.394 . S
C1104 H1120 0.931 . S
C1105 C1104 1.391 . S
C1105 C1109 1.376 . S
C1106 C1104 1.394 . S
C1106 C1107 1.369 . S
C1106 C1110 1.531 . S
C1107 C1106 1.369 . S
C1107 C1108 1.410 . S
C1107 C1115 1.503 . S
C1108 C1107 1.410 . S
C1108 C1109 1.392 . S
C1108 C1111 1.511 . S
C1109 C1105 1.376 . S
C1109 C1108 1.392 . S
C1109 H1121 0.929 . S
C1110 C1106 1.531 . S
C1110 H1122 0.960 . S
C1110 H1123 0.962 . S
C1110 H1124 0.960 . S
C1111 C1108 1.511 . S
C1111 H1125 0.961 . S
C1111 H1126 0.961 . S
C1111 H1127 0.961 . S
C1112 C1113 1.370 . S
C1112 C1114 1.363 1_545 S
C1112 H1128 0.931 . S
C1113 C1112 1.370 . S
C1113 C1117 1.408 1_545 S
C1114 C1112 1.363 1_565 S
C1114 C1115 1.370 . S
C1114 C1118 1.524 . S
C1115 C1107 1.503 . S
C1115 C1114 1.370 . S
C1115 C1116 1.403 . S
C1116 C1115 1.403 . S
C1116 C1117 1.404 . S
C1116 C1119 1.539 . S
C1117 C1113 1.408 1_565 S
C1117 C1116 1.404 . S
C1117 H1129 0.930 . S
C1118 C1114 1.524 . S
C1118 H1130 0.956 . S
C1118 H1131 0.961 . S
C1118 H1132 0.961 1_565 S
C1119 C1116 1.539 . S
C1119 H1133 0.958 . S
C1119 H1134 0.961 . S
C1119 H1135 0.960 . S
H1120 C1104 0.931 . S
H1121 C1109 0.929 . S
H1122 C1110 0.960 . S
H1123 C1110 0.962 . S
H1124 C1110 0.960 . S
H1125 C1111 0.961 . S
H1126 C1111 0.961 . S
H1127 C1111 0.961 . S
H1128 C1112 0.931 . S
H1129 C1117 0.930 . S
H1130 C1118 0.956 . S
H1131 C1118 0.961 . S
H1132 C1118 0.961 1_545 S
H1133 C1119 0.958 . S
H1134 C1119 0.961 . S
H1135 C1119 0.960 . S
C1136 C1137 1.391 . S
C1136 C1138 1.394 . S
C1136 H1152 0.931 . S
C1137 C1136 1.391 . S
C1137 C1141 1.376 . S
C1138 C1136 1.394 . S
C1138 C1139 1.369 . S
C1138 C1142 1.531 . S
C1139 C1138 1.369 . S
C1139 C1140 1.410 . S
C1139 C1147 1.503 . S
C1140 C1139 1.410 . S
C1140 C1141 1.392 . S
C1140 C1143 1.511 . S
C1141 C1137 1.376 . S
C1141 C1140 1.392 . S
C1141 H1153 0.929 . S
C1142 C1138 1.531 . S
C1142 H1154 0.960 . S
C1142 H1155 0.962 . S
C1142 H1156 0.960 . S
C1143 C1140 1.511 . S
C1143 H1157 0.961 . S
C1143 H1158 0.961 . S
C1143 H1159 0.961 . S
C1144 C1145 1.370 . S
C1144 C1146 1.363 . S
C1144 H1160 0.931 . S
C1145 C1144 1.370 . S
C1145 C1149 1.408 . S
C1146 C1144 1.363 . S
C1146 C1147 1.370 . S
C1146 C1150 1.524 . S
C1147 C1139 1.503 . S
C1147 C1146 1.370 . S
C1147 C1148 1.403 . S
C1148 C1147 1.403 . S
C1148 C1149 1.404 . S
C1148 C1151 1.539 . S
C1149 C1145 1.408 . S
C1149 C1148 1.404 . S
C1149 H1161 0.930 . S
C1150 C1146 1.524 . S
C1150 H1162 0.956 . S
C1150 H1163 0.961 . S
C1150 H1164 0.961 . S
C1151 C1148 1.539 . S
C1151 H1165 0.958 . S
C1151 H1166 0.961 . S
C1151 H1167 0.960 . S
H1152 C1136 0.931 . S
H1153 C1141 0.929 . S
H1154 C1142 0.960 . S
H1155 C1142 0.962 . S
H1156 C1142 0.960 . S
H1157 C1143 0.961 . S
H1158 C1143 0.961 . S
H1159 C1143 0.961 . S
H1160 C1144 0.931 . S
H1161 C1149 0.930 . S
H1162 C1150 0.956 . S
H1163 C1150 0.961 . S
H1164 C1150 0.961 . S
H1165 C1151 0.958 . S
H1166 C1151 0.961 . S
H1167 C1151 0.960 . S
C1168 C1169 1.391 . S
C1168 C1170 1.394 . S
C1168 H1184 0.931 . S
C1169 C1168 1.391 . S
C1169 C1173 1.376 . S
C1170 C1168 1.394 . S
C1170 C1171 1.369 . S
C1170 C1174 1.531 . S
C1171 C1170 1.369 . S
C1171 C1172 1.410 . S
C1171 C1179 1.503 . S
C1172 C1171 1.410 . S
C1172 C1173 1.392 . S
C1172 C1175 1.511 . S
C1173 C1169 1.376 . S
C1173 C1172 1.392 . S
C1173 H1185 0.929 . S
C1174 C1170 1.531 . S
C1174 H1186 0.960 . S
C1174 H1187 0.962 . S
C1174 H1188 0.960 . S
C1175 C1172 1.511 . S
C1175 H1189 0.961 . S
C1175 H1190 0.961 . S
C1175 H1191 0.961 . S
C1176 C1177 1.370 . S
C1176 C1178 1.363 . S
C1176 H1192 0.931 . S
C1177 C1176 1.370 . S
C1177 C1181 1.408 . S
C1178 C1176 1.363 . S
C1178 C1179 1.370 . S
C1178 C1182 1.524 . S
C1179 C1171 1.503 . S
C1179 C1178 1.370 . S
C1179 C1180 1.403 . S
C1180 C1179 1.403 . S
C1180 C1181 1.404 . S
C1180 C1183 1.539 . S
C1181 C1177 1.408 . S
C1181 C1180 1.404 . S
C1181 H1193 0.930 . S
C1182 C1178 1.524 . S
C1182 H1194 0.956 . S
C1182 H1195 0.961 . S
C1182 H1196 0.961 . S
C1183 C1180 1.539 . S
C1183 H1197 0.958 . S
C1183 H1198 0.961 . S
C1183 H1199 0.960 . S
H1184 C1168 0.931 . S
H1185 C1173 0.929 . S
H1186 C1174 0.960 . S
H1187 C1174 0.962 . S
H1188 C1174 0.960 . S
H1189 C1175 0.961 . S
H1190 C1175 0.961 . S
H1191 C1175 0.961 . S
H1192 C1176 0.931 . S
H1193 C1181 0.930 . S
H1194 C1182 0.956 . S
H1195 C1182 0.961 . S
H1196 C1182 0.961 . S
H1197 C1183 0.958 . S
H1198 C1183 0.961 . S
H1199 C1183 0.960 . S
C1200 C1201 1.391 . S
C1200 C1202 1.394 . S
C1200 H1216 0.931 . S
C1201 C1200 1.391 . S
C1201 C1205 1.376 . S
C1202 C1200 1.394 . S
C1202 C1203 1.369 . S
C1202 C1206 1.531 . S
C1203 C1202 1.369 . S
C1203 C1204 1.410 . S
C1203 C1211 1.503 . S
C1204 C1203 1.410 . S
C1204 C1205 1.392 . S
C1204 C1207 1.511 . S
C1205 C1201 1.376 . S
C1205 C1204 1.392 . S
C1205 H1217 0.929 . S
C1206 C1202 1.531 . S
C1206 H1218 0.960 . S
C1206 H1219 0.962 . S
C1206 H1220 0.960 . S
C1207 C1204 1.511 . S
C1207 H1221 0.961 . S
C1207 H1222 0.961 . S
C1207 H1223 0.961 . S
C1208 C1209 1.370 . S
C1208 C1210 1.363 . S
C1208 H1224 0.931 . S
C1209 C1208 1.370 . S
C1209 C1213 1.408 . S
C1210 C1208 1.363 . S
C1210 C1211 1.370 . S
C1210 C1214 1.524 . S
C1211 C1203 1.503 . S
C1211 C1210 1.370 . S
C1211 C1212 1.403 . S
C1212 C1211 1.403 . S
C1212 C1213 1.404 . S
C1212 C1215 1.539 . S
C1213 C1209 1.408 . S
C1213 C1212 1.404 . S
C1213 H1225 0.930 . S
C1214 C1210 1.524 . S
C1214 H1226 0.956 . S
C1214 H1227 0.961 . S
C1214 H1228 0.961 . S
C1215 C1212 1.539 . S
C1215 H1229 0.958 . S
C1215 H1230 0.961 . S
C1215 H1231 0.960 . S
H1216 C1200 0.931 . S
H1217 C1205 0.929 . S
H1218 C1206 0.960 . S
H1219 C1206 0.962 . S
H1220 C1206 0.960 . S
H1221 C1207 0.961 . S
H1222 C1207 0.961 . S
H1223 C1207 0.961 . S
H1224 C1208 0.931 . S
H1225 C1213 0.930 . S
H1226 C1214 0.956 . S
H1227 C1214 0.961 . S
H1228 C1214 0.961 . S
H1229 C1215 0.958 . S
H1230 C1215 0.961 . S
H1231 C1215 0.960 . S
C1232 C1233 1.391 . S
C1232 C1234 1.394 . S
C1232 H1248 0.931 . S
C1233 C1232 1.391 . S
C1233 C1237 1.376 . S
C1234 C1232 1.394 . S
C1234 C1235 1.369 . S
C1234 C1238 1.531 . S
C1235 C1234 1.369 . S
C1235 C1236 1.410 . S
C1235 C1243 1.503 . S
C1236 C1235 1.410 . S
C1236 C1237 1.392 . S
C1236 C1239 1.511 . S
C1237 C1233 1.376 . S
C1237 C1236 1.392 . S
C1237 H1249 0.929 . S
C1238 C1234 1.531 . S
C1238 H1250 0.960 . S
C1238 H1251 0.962 . S
C1238 H1252 0.960 1_545 S
C1239 C1236 1.511 . S
C1239 H1253 0.961 . S
C1239 H1254 0.961 . S
C1239 H1255 0.961 . S
C1240 C1241 1.370 . S
C1240 C1242 1.363 . S
C1240 H1256 0.931 . S
C1241 C1240 1.370 . S
C1241 C1245 1.408 1_455 S
C1242 C1240 1.363 . S
C1242 C1243 1.370 1_455 S
C1242 C1246 1.524 . S
C1243 C1235 1.503 . S
C1243 C1242 1.370 1_655 S
C1243 C1244 1.403 . S
C1244 C1243 1.403 . S
C1244 C1245 1.404 . S
C1244 C1247 1.539 . S
C1245 C1241 1.408 1_655 S
C1245 C1244 1.404 . S
C1245 H1257 0.930 . S
C1246 C1242 1.524 . S
C1246 H1258 0.956 . S
C1246 H1259 0.961 . S
C1246 H1260 0.961 . S
C1247 C1244 1.539 . S
C1247 H1261 0.958 . S
C1247 H1262 0.961 . S
C1247 H1263 0.960 . S
H1248 C1232 0.931 . S
H1249 C1237 0.929 . S
H1250 C1238 0.960 . S
H1251 C1238 0.962 . S
H1252 C1238 0.960 1_565 S
H1253 C1239 0.961 . S
H1254 C1239 0.961 . S
H1255 C1239 0.961 . S
H1256 C1240 0.931 . S
H1257 C1245 0.930 . S
H1258 C1246 0.956 . S
H1259 C1246 0.961 . S
H1260 C1246 0.961 . S
H1261 C1247 0.958 . S
H1262 C1247 0.961 . S
H1263 C1247 0.960 . S
C1264 C1265 1.391 . S
C1264 C1266 1.394 . S
C1264 H1280 0.931 . S
C1265 C1264 1.391 . S
C1265 C1269 1.376 . S
C1266 C1264 1.394 . S
C1266 C1267 1.369 . S
C1266 C1270 1.531 . S
C1267 C1266 1.369 . S
C1267 C1268 1.410 . S
C1267 C1275 1.503 . S
C1268 C1267 1.410 . S
C1268 C1269 1.392 . S
C1268 C1271 1.511 . S
C1269 C1265 1.376 . S
C1269 C1268 1.392 . S
C1269 H1281 0.929 . S
C1270 C1266 1.531 . S
C1270 H1282 0.960 . S
C1270 H1283 0.962 . S
C1270 H1284 0.960 . S
C1271 C1268 1.511 . S
C1271 H1285 0.961 . S
C1271 H1286 0.961 . S
C1271 H1287 0.961 . S
C1272 C1273 1.370 . S
C1272 C1274 1.363 . S
C1272 H1288 0.931 . S
C1273 C1272 1.370 . S
C1273 C1277 1.408 . S
C1274 C1272 1.363 . S
C1274 C1275 1.370 . S
C1274 C1278 1.524 . S
C1275 C1267 1.503 . S
C1275 C1274 1.370 . S
C1275 C1276 1.403 . S
C1276 C1275 1.403 . S
C1276 C1277 1.404 . S
C1276 C1279 1.539 . S
C1277 C1273 1.408 . S
C1277 C1276 1.404 . S
C1277 H1289 0.930 . S
C1278 C1274 1.524 . S
C1278 H1290 0.956 . S
C1278 H1291 0.961 . S
C1278 H1292 0.961 . S
C1279 C1276 1.539 . S
C1279 H1293 0.958 . S
C1279 H1294 0.961 . S
C1279 H1295 0.960 . S
H1280 C1264 0.931 . S
H1281 C1269 0.929 . S
H1282 C1270 0.960 . S
H1283 C1270 0.962 . S
H1284 C1270 0.960 . S
H1285 C1271 0.961 . S
H1286 C1271 0.961 . S
H1287 C1271 0.961 . S
H1288 C1272 0.931 . S
H1289 C1277 0.930 . S
H1290 C1278 0.956 . S
H1291 C1278 0.961 . S
H1292 C1278 0.961 . S
H1293 C1279 0.958 . S
H1294 C1279 0.961 . S
H1295 C1279 0.960 . S
C1296 C1297 1.429 . S
C1296 C1298 1.394 . S
C1296 H1312 0.931 . S
C1297 C1296 1.429 . S
C1297 C1301 1.365 1_545 S
C1298 C1296 1.394 . S
C1298 C1299 1.369 . S
C1298 C1302 1.531 . S
C1299 C1298 1.369 . S
C1299 C1300 1.415 . S
C1299 C1307 1.503 . S
C1300 C1299 1.415 . S
C1300 C1301 1.389 1_545 S
C1300 C1303 1.509 1_545 S
C1301 C1297 1.365 1_565 S
C1301 C1300 1.389 1_565 S
C1301 H1313 0.929 . S
C1302 C1298 1.531 . S
C1302 H1314 0.960 . S
C1302 H1315 0.962 . S
C1302 H1316 0.960 . S
C1303 C1300 1.509 1_565 S
C1303 H1317 0.961 . S
C1303 H1318 0.961 . S
C1303 H1319 0.961 . S
C1304 C1305 1.370 . S
C1304 C1306 1.363 . S
C1304 H1320 0.931 . S
C1305 C1304 1.370 . S
C1305 C1309 1.408 . S
C1306 C1304 1.363 . S
C1306 C1307 1.370 . S
C1306 C1310 1.524 . S
C1307 C1299 1.503 . S
C1307 C1306 1.370 . S
C1307 C1308 1.403 . S
C1308 C1307 1.403 . S
C1308 C1309 1.404 . S
C1308 C1311 1.539 . S
C1309 C1305 1.408 . S
C1309 C1308 1.404 . S
C1309 H1321 0.930 . S
C1310 C1306 1.524 . S
C1310 H1322 0.956 . S
C1310 H1323 0.961 . S
C1310 H1324 0.961 . S
C1311 C1308 1.539 . S
C1311 H1325 0.958 . S
C1311 H1326 0.961 . S
C1311 H1327 0.960 . S
H1312 C1296 0.931 . S
H1313 C1301 0.929 . S
H1314 C1302 0.960 . S
H1315 C1302 0.962 . S
H1316 C1302 0.960 . S
H1317 C1303 0.961 . S
H1318 C1303 0.961 . S
H1319 C1303 0.961 . S
H1320 C1304 0.931 . S
H1321 C1309 0.930 . S
H1322 C1310 0.956 . S
H1323 C1310 0.961 . S
H1324 C1310 0.961 . S
H1325 C1311 0.958 . S
H1326 C1311 0.961 . S
H1327 C1311 0.960 . S
C1328 C1329 1.391 . S
C1328 C1330 1.394 . S
C1328 H1344 0.931 . S
C1329 C1328 1.391 . S
C1329 C1333 1.376 . S
C1330 C1328 1.394 . S
C1330 C1331 1.369 . S
C1330 C1334 1.531 . S
C1331 C1330 1.369 . S
C1331 C1332 1.410 . S
C1331 C1339 1.503 . S
C1332 C1331 1.410 . S
C1332 C1333 1.392 . S
C1332 C1335 1.511 . S
C1333 C1329 1.376 . S
C1333 C1332 1.392 . S
C1333 H1345 0.929 . S
C1334 C1330 1.531 . S
C1334 H1346 0.960 . S
C1334 H1347 0.962 . S
C1334 H1348 0.960 . S
C1335 C1332 1.511 . S
C1335 H1349 0.961 . S
C1335 H1350 0.961 . S
C1335 H1351 0.961 . S
C1336 C1337 1.370 . S
C1336 C1338 1.363 . S
C1336 H1352 0.931 . S
C1337 C1336 1.370 . S
C1337 C1341 1.408 . S
C1338 C1336 1.363 . S
C1338 C1339 1.370 . S
C1338 C1342 1.524 . S
C1339 C1331 1.503 . S
C1339 C1338 1.370 . S
C1339 C1340 1.403 . S
C1340 C1339 1.403 . S
C1340 C1341 1.404 . S
C1340 C1343 1.539 . S
C1341 C1337 1.408 . S
C1341 C1340 1.404 . S
C1341 H1353 0.930 . S
C1342 C1338 1.524 . S
C1342 H1354 0.956 . S
C1342 H1355 0.961 . S
C1342 H1356 0.961 . S
C1343 C1340 1.539 . S
C1343 H1357 0.958 . S
C1343 H1358 0.961 . S
C1343 H1359 0.960 . S
H1344 C1328 0.931 . S
H1345 C1333 0.929 . S
H1346 C1334 0.960 . S
H1347 C1334 0.962 . S
H1348 C1334 0.960 . S
H1349 C1335 0.961 . S
H1350 C1335 0.961 . S
H1351 C1335 0.961 . S
H1352 C1336 0.931 . S
H1353 C1341 0.930 . S
H1354 C1342 0.956 . S
H1355 C1342 0.961 . S
H1356 C1342 0.961 . S
H1357 C1343 0.958 . S
H1358 C1343 0.961 . S
H1359 C1343 0.960 . S
C1360 C1361 1.391 . S
C1360 C1362 1.394 . S
C1360 H1376 0.931 . S
C1361 C1360 1.391 . S
C1361 C1365 1.376 . S
C1362 C1360 1.394 . S
C1362 C1363 1.369 . S
C1362 C1366 1.531 . S
C1363 C1362 1.369 . S
C1363 C1364 1.410 . S
C1363 C1371 1.503 . S
C1364 C1363 1.410 . S
C1364 C1365 1.392 . S
C1364 C1367 1.511 . S
C1365 C1361 1.376 . S
C1365 C1364 1.392 . S
C1365 H1377 0.929 . S
C1366 C1362 1.531 . S
C1366 H1378 0.960 1_655 S
C1366 H1379 0.962 . S
C1366 H1380 0.960 1_655 S
C1367 C1364 1.511 . S
C1367 H1381 0.961 . S
C1367 H1382 0.961 . S
C1367 H1383 0.961 . S
C1368 C1369 1.370 . S
C1368 C1370 1.363 . S
C1368 H1384 0.931 . S
C1369 C1368 1.370 . S
C1369 C1373 1.408 . S
C1370 C1368 1.363 . S
C1370 C1371 1.370 . S
C1370 C1374 1.524 . S
C1371 C1363 1.503 . S
C1371 C1370 1.370 . S
C1371 C1372 1.403 . S
C1372 C1371 1.403 . S
C1372 C1373 1.404 . S
C1372 C1375 1.539 . S
C1373 C1369 1.408 . S
C1373 C1372 1.404 . S
C1373 H1385 0.932 . S
C1374 C1370 1.524 . S
C1374 H1386 0.956 . S
C1374 H1387 0.961 . S
C1374 H1388 0.961 . S
C1375 C1372 1.539 . S
C1375 H1389 0.958 . S
C1375 H1390 0.961 . S
C1375 H1391 0.960 . S
H1376 C1360 0.931 . S
H1377 C1365 0.929 . S
H1378 C1366 0.960 1_455 S
H1379 C1366 0.962 . S
H1380 C1366 0.960 1_455 S
H1381 C1367 0.961 . S
H1382 C1367 0.961 . S
H1383 C1367 0.961 . S
H1384 C1368 0.931 . S
H1385 C1373 0.932 . S
H1386 C1374 0.956 . S
H1387 C1374 0.961 . S
H1388 C1374 0.961 . S
H1389 C1375 0.958 . S
H1390 C1375 0.961 . S
H1391 C1375 0.960 . S
C1392 C1393 1.391 . S
C1392 C1394 1.394 . S
C1392 H1408 0.931 . S
C1393 C1392 1.391 . S
C1393 C1397 1.376 . S
C1394 C1392 1.394 . S
C1394 C1395 1.369 . S
C1394 C1398 1.531 . S
C1395 C1394 1.369 . S
C1395 C1396 1.410 . S
C1395 C1403 1.503 . S
C1396 C1395 1.410 . S
C1396 C1397 1.392 . S
C1396 C1399 1.511 . S
C1397 C1393 1.376 . S
C1397 C1396 1.392 . S
C1397 H1409 0.929 . S
C1398 C1394 1.531 . S
C1398 H1410 0.960 . S
C1398 H1411 0.962 . S
C1398 H1412 0.960 . S
C1399 C1396 1.511 . S
C1399 H1413 0.961 . S
C1399 H1414 0.961 . S
C1399 H1415 0.961 . S
C1400 C1401 1.370 . S
C1400 C1402 1.363 . S
C1400 H1416 0.931 . S
C1401 C1400 1.370 . S
C1401 C1405 1.408 . S
C1402 C1400 1.363 . S
C1402 C1403 1.370 . S
C1402 C1406 1.524 . S
C1403 C1395 1.503 . S
C1403 C1402 1.370 . S
C1403 C1404 1.403 . S
C1404 C1403 1.403 . S
C1404 C1405 1.404 . S
C1404 C1407 1.539 . S
C1405 C1401 1.408 . S
C1405 C1404 1.404 . S
C1405 H1417 0.930 . S
C1406 C1402 1.524 . S
C1406 H1418 0.956 . S
C1406 H1419 0.961 . S
C1406 H1420 0.961 . S
C1407 C1404 1.539 . S
C1407 H1421 0.958 . S
C1407 H1422 0.961 . S
C1407 H1423 0.960 . S
H1408 C1392 0.931 . S
H1409 C1397 0.929 . S
H1410 C1398 0.960 . S
H1411 C1398 0.962 . S
H1412 C1398 0.960 . S
H1413 C1399 0.961 . S
H1414 C1399 0.961 . S
H1415 C1399 0.961 . S
H1416 C1400 0.931 . S
H1417 C1405 0.930 . S
H1418 C1406 0.956 . S
H1419 C1406 0.961 . S
H1420 C1406 0.961 . S
H1421 C1407 0.958 . S
H1422 C1407 0.961 . S
H1423 C1407 0.960 . S
C1424 C1425 1.391 . S
C1424 C1426 1.394 . S
C1424 H1440 0.931 . S
C1425 C1424 1.391 . S
C1425 C1429 1.376 1_545 S
C1426 C1424 1.394 . S
C1426 C1427 1.369 . S
C1426 C1430 1.531 . S
C1427 C1426 1.369 . S
C1427 C1428 1.410 . S
C1427 C1435 1.503 . S
C1428 C1427 1.410 . S
C1428 C1429 1.394 1_545 S
C1428 C1431 1.511 . S
C1429 C1425 1.376 1_565 S
C1429 C1428 1.394 1_565 S
C1429 H1441 0.927 . S
C1430 C1426 1.531 . S
C1430 H1442 0.960 . S
C1430 H1443 0.962 . S
C1430 H1444 0.960 . S
C1431 C1428 1.511 . S
C1431 H1445 0.961 1_545 S
C1431 H1446 0.961 . S
C1431 H1447 0.961 . S
C1432 C1433 1.370 . S
C1432 C1434 1.363 . S
C1432 H1448 0.931 . S
C1433 C1432 1.370 . S
C1433 C1437 1.408 . S
C1434 C1432 1.363 . S
C1434 C1435 1.370 . S
C1434 C1438 1.524 . S
C1435 C1427 1.503 . S
C1435 C1434 1.370 . S
C1435 C1436 1.403 . S
C1436 C1435 1.403 . S
C1436 C1437 1.404 . S
C1436 C1439 1.539 . S
C1437 C1433 1.408 . S
C1437 C1436 1.404 . S
C1437 H1449 0.930 . S
C1438 C1434 1.524 . S
C1438 H1450 0.956 . S
C1438 H1451 0.961 . S
C1438 H1452 0.961 . S
C1439 C1436 1.539 . S
C1439 H1453 0.958 . S
C1439 H1454 0.961 . S
C1439 H1455 0.960 . S
H1440 C1424 0.931 . S
H1441 C1429 0.927 . S
H1442 C1430 0.960 . S
H1443 C1430 0.962 . S
H1444 C1430 0.960 . S
H1445 C1431 0.961 1_565 S
H1446 C1431 0.961 . S
H1447 C1431 0.961 . S
H1448 C1432 0.931 . S
H1449 C1437 0.930 . S
H1450 C1438 0.956 . S
H1451 C1438 0.961 . S
H1452 C1438 0.961 . S
H1453 C1439 0.958 . S
H1454 C1439 0.961 . S
H1455 C1439 0.960 . S
C1456 C1457 1.391 . S
C1456 C1458 1.394 . S
C1456 H1472 0.931 . S
C1457 C1456 1.391 . S
C1457 C1461 1.376 . S
C1458 C1456 1.394 . S
C1458 C1459 1.369 . S
C1458 C1462 1.531 . S
C1459 C1458 1.369 . S
C1459 C1460 1.410 . S
C1459 C1467 1.503 . S
C1460 C1459 1.410 . S
C1460 C1461 1.392 . S
C1460 C1463 1.511 . S
C1461 C1457 1.376 . S
C1461 C1460 1.392 . S
C1461 H1473 0.929 . S
C1462 C1458 1.531 . S
C1462 H1474 0.960 . S
C1462 H1475 0.962 . S
C1462 H1476 0.960 . S
C1463 C1460 1.511 . S
C1463 H1477 0.961 . S
C1463 H1478 0.961 . S
C1463 H1479 0.961 . S
C1464 C1465 1.370 . S
C1464 C1466 1.363 . S
C1464 H1480 0.931 . S
C1465 C1464 1.370 . S
C1465 C1469 1.408 . S
C1466 C1464 1.363 . S
C1466 C1467 1.370 . S
C1466 C1470 1.524 . S
C1467 C1459 1.503 . S
C1467 C1466 1.370 . S
C1467 C1468 1.403 . S
C1468 C1467 1.403 . S
C1468 C1469 1.404 . S
C1468 C1471 1.539 . S
C1469 C1465 1.408 . S
C1469 C1468 1.404 . S
C1469 H1481 0.930 . S
C1470 C1466 1.524 . S
C1470 H1482 0.956 . S
C1470 H1483 0.961 . S
C1470 H1484 0.961 . S
C1471 C1468 1.539 . S
C1471 H1485 0.958 . S
C1471 H1486 0.961 . S
C1471 H1487 0.960 . S
H1472 C1456 0.931 . S
H1473 C1461 0.929 . S
H1474 C1462 0.960 . S
H1475 C1462 0.962 . S
H1476 C1462 0.960 . S
H1477 C1463 0.961 . S
H1478 C1463 0.961 . S
H1479 C1463 0.961 . S
H1480 C1464 0.931 . S
H1481 C1469 0.930 . S
H1482 C1470 0.956 . S
H1483 C1470 0.961 . S
H1484 C1470 0.961 . S
H1485 C1471 0.958 . S
H1486 C1471 0.961 . S
H1487 C1471 0.960 . S
C1488 C1489 1.391 1_545 S
C1488 C1490 1.394 . S
C1488 H1504 0.931 . S
C1489 C1488 1.391 1_565 S
C1489 C1493 1.376 . S
C1490 C1488 1.394 . S
C1490 C1491 1.369 . S
C1490 C1494 1.531 . S
C1491 C1490 1.369 . S
C1491 C1492 1.410 1_545 S
C1491 C1499 1.503 . S
C1492 C1491 1.410 1_565 S
C1492 C1493 1.392 . S
C1492 C1495 1.511 . S
C1493 C1489 1.376 . S
C1493 C1492 1.392 . S
C1493 H1505 0.929 . S
C1494 C1490 1.531 . S
C1494 H1506 0.960 . S
C1494 H1507 0.962 . S
C1494 H1508 0.960 . S
C1495 C1492 1.511 . S
C1495 H1509 0.961 . S
C1495 H1510 0.961 . S
C1495 H1511 0.961 . S
C1496 C1497 1.370 . S
C1496 C1498 1.363 . S
C1496 H1512 0.931 . S
C1497 C1496 1.370 . S
C1497 C1501 1.408 . S
C1498 C1496 1.363 . S
C1498 C1499 1.370 . S
C1498 C1502 1.524 . S
C1499 C1491 1.503 . S
C1499 C1498 1.370 . S
C1499 C1500 1.403 . S
C1500 C1499 1.403 . S
C1500 C1501 1.404 . S
C1500 C1503 1.539 . S
C1501 C1497 1.408 . S
C1501 C1500 1.404 . S
C1501 H1513 0.930 . S
C1502 C1498 1.524 . S
C1502 H1514 0.956 . S
C1502 H1515 0.961 1_545 S
C1502 H1516 0.961 . S
C1503 C1500 1.539 . S
C1503 H1517 0.958 . S
C1503 H1518 0.961 . S
C1503 H1519 0.960 . S
H1504 C1488 0.931 . S
H1505 C1493 0.929 . S
H1506 C1494 0.960 . S
H1507 C1494 0.962 . S
H1508 C1494 0.960 . S
H1509 C1495 0.961 . S
H1510 C1495 0.961 . S
H1511 C1495 0.961 . S
H1512 C1496 0.931 . S
H1513 C1501 0.930 . S
H1514 C1502 0.956 . S
H1515 C1502 0.961 1_565 S
H1516 C1502 0.961 . S
H1517 C1503 0.958 . S
H1518 C1503 0.961 . S
H1519 C1503 0.960 . S
C1520 C1521 1.391 . S
C1520 C1522 1.394 . S
C1520 H1536 0.931 . S
C1521 C1520 1.391 . S
C1521 C1525 1.376 1_554 S
C1522 C1520 1.394 . S
C1522 C1523 1.369 . S
C1522 C1526 1.531 . S
C1523 C1522 1.369 . S
C1523 C1524 1.388 1_554 S
C1523 C1531 1.503 . S
C1524 C1523 1.388 1_556 S
C1524 C1525 1.399 . S
C1524 C1527 1.527 . S
C1525 C1521 1.376 1_556 S
C1525 C1524 1.399 . S
C1525 H1537 0.929 . S
C1526 C1522 1.531 . S
C1526 H1538 0.960 . S
C1526 H1539 0.962 . S
C1526 H1540 0.960 . S
C1527 C1524 1.527 . S
C1527 H1541 0.961 . S
C1527 H1542 0.961 . S
C1527 H1543 0.961 . S
C1528 C1529 1.370 . S
C1528 C1530 1.363 . S
C1528 H1544 0.931 . S
C1529 C1528 1.370 . S
C1529 C1533 1.408 . S
C1530 C1528 1.363 . S
C1530 C1531 1.370 . S
C1530 C1534 1.524 . S
C1531 C1523 1.503 . S
C1531 C1530 1.370 . S
C1531 C1532 1.403 . S
C1532 C1531 1.403 . S
C1532 C1533 1.404 . S
C1532 C1535 1.539 . S
C1533 C1529 1.408 . S
C1533 C1532 1.404 . S
C1533 H1545 0.930 . S
C1534 C1530 1.524 . S
C1534 H1546 0.956 . S
C1534 H1547 0.961 1_554 S
C1534 H1548 0.960 1_554 S
C1535 C1532 1.539 . S
C1535 H1549 0.958 . S
C1535 H1550 0.961 . S
C1535 H1551 0.960 . S
H1536 C1520 0.931 . S
H1537 C1525 0.929 . S
H1538 C1526 0.960 . S
H1539 C1526 0.962 . S
H1540 C1526 0.960 . S
H1541 C1527 0.961 . S
H1542 C1527 0.961 . S
H1543 C1527 0.961 . S
H1544 C1528 0.931 . S
H1545 C1533 0.930 . S
H1546 C1534 0.956 . S
H1547 C1534 0.961 1_556 S
H1548 C1534 0.960 1_556 S
H1549 C1535 0.958 . S
H1550 C1535 0.961 . S
H1551 C1535 0.960 . S
C1552 C1553 1.391 . S
C1552 C1554 1.394 . S
C1552 H1568 0.931 . S
C1553 C1552 1.391 . S
C1553 C1557 1.376 . S
C1554 C1552 1.394 . S
C1554 C1555 1.369 . S
C1554 C1558 1.531 . S
C1555 C1554 1.369 . S
C1555 C1556 1.410 . S
C1555 C1563 1.503 . S
C1556 C1555 1.410 . S
C1556 C1557 1.392 . S
C1556 C1559 1.511 . S
C1557 C1553 1.376 . S
C1557 C1556 1.392 . S
C1557 H1569 0.929 . S
C1558 C1554 1.531 . S
C1558 H1570 0.960 . S
C1558 H1571 0.962 . S
C1558 H1572 0.960 . S
C1559 C1556 1.511 . S
C1559 H1573 0.961 . S
C1559 H1574 0.961 . S
C1559 H1575 0.961 . S
C1560 C1561 1.370 . S
C1560 C1562 1.363 . S
C1560 H1576 0.931 . S
C1561 C1560 1.370 . S
C1561 C1565 1.408 . S
C1562 C1560 1.363 . S
C1562 C1563 1.370 . S
C1562 C1566 1.524 . S
C1563 C1555 1.503 . S
C1563 C1562 1.370 . S
C1563 C1564 1.403 . S
C1564 C1563 1.403 . S
C1564 C1565 1.404 . S
C1564 C1567 1.539 . S
C1565 C1561 1.408 . S
C1565 C1564 1.404 . S
C1565 H1577 0.930 . S
C1566 C1562 1.524 . S
C1566 H1578 0.956 . S
C1566 H1579 0.961 . S
C1566 H1580 0.961 . S
C1567 C1564 1.539 . S
C1567 H1581 0.958 . S
C1567 H1582 0.961 . S
C1567 H1583 0.960 . S
H1568 C1552 0.931 . S
H1569 C1557 0.929 . S
H1570 C1558 0.960 . S
H1571 C1558 0.962 . S
H1572 C1558 0.960 . S
H1573 C1559 0.961 . S
H1574 C1559 0.961 . S
H1575 C1559 0.961 . S
H1576 C1560 0.931 . S
H1577 C1565 0.930 . S
H1578 C1566 0.956 . S
H1579 C1566 0.961 . S
H1580 C1566 0.961 . S
H1581 C1567 0.958 . S
H1582 C1567 0.961 . S
H1583 C1567 0.960 . S
C1584 C1585 1.391 . S
C1584 C1586 1.394 . S
C1584 H1600 0.931 . S
C1585 C1584 1.391 . S
C1585 C1589 1.376 . S
C1586 C1584 1.394 . S
C1586 C1587 1.369 . S
C1586 C1590 1.531 . S
C1587 C1586 1.369 . S
C1587 C1588 1.410 . S
C1587 C1595 1.503 . S
C1588 C1587 1.410 . S
C1588 C1589 1.392 . S
C1588 C1591 1.511 . S
C1589 C1585 1.376 . S
C1589 C1588 1.392 . S
C1589 H1601 0.929 . S
C1590 C1586 1.531 . S
C1590 H1602 0.960 . S
C1590 H1603 0.962 . S
C1590 H1604 0.960 . S
C1591 C1588 1.511 . S
C1591 H1605 0.961 . S
C1591 H1606 0.961 . S
C1591 H1607 0.961 . S
C1592 C1593 1.370 . S
C1592 C1594 1.363 . S
C1592 H1608 0.931 . S
C1593 C1592 1.370 . S
C1593 C1597 1.408 . S
C1594 C1592 1.363 . S
C1594 C1595 1.370 . S
C1594 C1598 1.524 . S
C1595 C1587 1.503 . S
C1595 C1594 1.370 . S
C1595 C1596 1.403 . S
C1596 C1595 1.403 . S
C1596 C1597 1.404 . S
C1596 C1599 1.539 . S
C1597 C1593 1.408 . S
C1597 C1596 1.404 . S
C1597 H1609 0.930 . S
C1598 C1594 1.524 . S
C1598 H1610 0.956 . S
C1598 H1611 0.961 . S
C1598 H1612 0.961 . S
C1599 C1596 1.539 . S
C1599 H1613 0.958 . S
C1599 H1614 0.961 . S
C1599 H1615 0.960 . S
H1600 C1584 0.931 . S
H1601 C1589 0.929 . S
H1602 C1590 0.960 . S
H1603 C1590 0.962 . S
H1604 C1590 0.960 . S
H1605 C1591 0.961 . S
H1606 C1591 0.961 . S
H1607 C1591 0.961 . S
H1608 C1592 0.931 . S
H1609 C1597 0.930 . S
H1610 C1598 0.956 . S
H1611 C1598 0.961 . S
H1612 C1598 0.961 . S
H1613 C1599 0.958 . S
H1614 C1599 0.961 . S
H1615 C1599 0.960 . S
C1616 C1617 1.391 . S
C1616 C1618 1.394 . S
C1616 H1632 0.931 . S
C1617 C1616 1.391 . S
C1617 C1621 1.376 . S
C1618 C1616 1.394 . S
C1618 C1619 1.369 . S
C1618 C1622 1.531 . S
C1619 C1618 1.369 . S
C1619 C1620 1.410 . S
C1619 C1627 1.503 . S
C1620 C1619 1.410 . S
C1620 C1621 1.392 . S
C1620 C1623 1.511 . S
C1621 C1617 1.376 . S
C1621 C1620 1.392 . S
C1621 H1633 0.929 . S
C1622 C1618 1.531 . S
C1622 H1634 0.960 . S
C1622 H1635 0.962 . S
C1622 H1636 0.960 . S
C1623 C1620 1.511 . S
C1623 H1637 0.961 . S
C1623 H1638 0.961 . S
C1623 H1639 0.961 . S
C1624 C1625 1.370 . S
C1624 C1626 1.363 . S
C1624 H1640 0.931 . S
C1625 C1624 1.370 . S
C1625 C1629 1.408 . S
C1626 C1624 1.363 . S
C1626 C1627 1.370 . S
C1626 C1630 1.524 . S
C1627 C1619 1.503 . S
C1627 C1626 1.370 . S
C1627 C1628 1.403 . S
C1628 C1627 1.403 . S
C1628 C1629 1.404 . S
C1628 C1631 1.539 . S
C1629 C1625 1.408 . S
C1629 C1628 1.404 . S
C1629 H1641 0.930 . S
C1630 C1626 1.524 . S
C1630 H1642 0.956 . S
C1630 H1643 0.961 . S
C1630 H1644 0.961 . S
C1631 C1628 1.539 . S
C1631 H1645 0.958 . S
C1631 H1646 0.961 . S
C1631 H1647 0.960 . S
H1632 C1616 0.931 . S
H1633 C1621 0.929 . S
H1634 C1622 0.960 . S
H1635 C1622 0.962 . S
H1636 C1622 0.960 . S
H1637 C1623 0.961 . S
H1638 C1623 0.961 . S
H1639 C1623 0.961 . S
H1640 C1624 0.931 . S
H1641 C1629 0.930 . S
H1642 C1630 0.956 . S
H1643 C1630 0.961 . S
H1644 C1630 0.961 . S
H1645 C1631 0.958 . S
H1646 C1631 0.961 . S
H1647 C1631 0.960 . S
C1648 C1649 1.391 . S
C1648 C1650 1.394 . S
C1648 H1664 0.931 . S
C1649 C1648 1.391 . S
C1649 C1653 1.376 . S
C1650 C1648 1.394 . S
C1650 C1651 1.369 . S
C1650 C1654 1.531 . S
C1651 C1650 1.369 . S
C1651 C1652 1.410 . S
C1651 C1659 1.503 . S
C1652 C1651 1.410 . S
C1652 C1653 1.392 . S
C1652 C1655 1.511 . S
C1653 C1649 1.376 . S
C1653 C1652 1.392 . S
C1653 H1665 0.929 . S
C1654 C1650 1.531 . S
C1654 H1666 0.960 . S
C1654 H1667 0.962 . S
C1654 H1668 0.960 . S
C1655 C1652 1.511 . S
C1655 H1669 0.961 . S
C1655 H1670 0.961 . S
C1655 H1671 0.961 . S
C1656 C1657 1.370 . S
C1656 C1658 1.363 . S
C1656 H1672 0.931 . S
C1657 C1656 1.370 . S
C1657 C1661 1.408 . S
C1658 C1656 1.363 . S
C1658 C1659 1.370 . S
C1658 C1662 1.524 . S
C1659 C1651 1.503 . S
C1659 C1658 1.370 . S
C1659 C1660 1.403 . S
C1660 C1659 1.403 . S
C1660 C1661 1.404 . S
C1660 C1663 1.539 . S
C1661 C1657 1.408 . S
C1661 C1660 1.404 . S
C1661 H1673 0.930 . S
C1662 C1658 1.524 . S
C1662 H1674 0.956 . S
C1662 H1675 0.961 . S
C1662 H1676 0.961 . S
C1663 C1660 1.539 . S
C1663 H1677 0.958 . S
C1663 H1678 0.961 . S
C1663 H1679 0.960 . S
H1664 C1648 0.931 . S
H1665 C1653 0.929 . S
H1666 C1654 0.960 . S
H1667 C1654 0.962 . S
H1668 C1654 0.960 . S
H1669 C1655 0.961 . S
H1670 C1655 0.961 . S
H1671 C1655 0.961 . S
H1672 C1656 0.931 . S
H1673 C1661 0.930 . S
H1674 C1662 0.956 . S
H1675 C1662 0.961 . S
H1676 C1662 0.961 . S
H1677 C1663 0.958 . S
H1678 C1663 0.961 . S
H1679 C1663 0.960 . S
C1680 C1681 1.391 . S
C1680 C1682 1.394 . S
C1680 H1696 0.931 . S
C1681 C1680 1.391 . S
C1681 C1685 1.376 . S
C1682 C1680 1.394 . S
C1682 C1683 1.369 . S
C1682 C1686 1.531 . S
C1683 C1682 1.369 . S
C1683 C1684 1.410 . S
C1683 C1691 1.503 . S
C1684 C1683 1.410 . S
C1684 C1685 1.392 . S
C1684 C1687 1.511 . S
C1685 C1681 1.376 . S
C1685 C1684 1.392 . S
C1685 H1697 0.929 . S
C1686 C1682 1.531 . S
C1686 H1698 0.960 . S
C1686 H1699 0.962 . S
C1686 H1700 0.960 . S
C1687 C1684 1.511 . S
C1687 H1701 0.961 . S
C1687 H1702 0.961 . S
C1687 H1703 0.961 . S
C1688 C1689 1.370 . S
C1688 C1690 1.363 . S
C1688 H1704 0.931 . S
C1689 C1688 1.370 . S
C1689 C1693 1.408 . S
C1690 C1688 1.363 . S
C1690 C1691 1.370 . S
C1690 C1694 1.524 . S
C1691 C1683 1.503 . S
C1691 C1690 1.370 . S
C1691 C1692 1.403 . S
C1692 C1691 1.403 . S
C1692 C1693 1.404 . S
C1692 C1695 1.539 . S
C1693 C1689 1.408 . S
C1693 C1692 1.404 . S
C1693 H1705 0.930 . S
C1694 C1690 1.524 . S
C1694 H1706 0.956 . S
C1694 H1707 0.961 . S
C1694 H1708 0.961 . S
C1695 C1692 1.539 . S
C1695 H1709 0.958 . S
C1695 H1710 0.961 . S
C1695 H1711 0.960 . S
H1696 C1680 0.931 . S
H1697 C1685 0.929 . S
H1698 C1686 0.960 . S
H1699 C1686 0.962 . S
H1700 C1686 0.960 . S
H1701 C1687 0.961 . S
H1702 C1687 0.961 . S
H1703 C1687 0.961 . S
H1704 C1688 0.931 . S
H1705 C1693 0.930 . S
H1706 C1694 0.956 . S
H1707 C1694 0.961 . S
H1708 C1694 0.961 . S
H1709 C1695 0.958 . S
H1710 C1695 0.961 . S
H1711 C1695 0.960 . S
C1712 C1713 1.391 . S
C1712 C1714 1.394 . S
C1712 H1728 0.931 . S
C1713 C1712 1.391 . S
C1713 C1717 1.376 . S
C1714 C1712 1.394 . S
C1714 C1715 1.369 . S
C1714 C1718 1.531 . S
C1715 C1714 1.369 . S
C1715 C1716 1.410 . S
C1715 C1723 1.503 . S
C1716 C1715 1.410 . S
C1716 C1717 1.392 . S
C1716 C1719 1.511 . S
C1717 C1713 1.376 . S
C1717 C1716 1.392 . S
C1717 H1729 0.929 . S
C1718 C1714 1.531 . S
C1718 H1730 0.960 . S
C1718 H1731 0.962 . S
C1718 H1732 0.960 . S
C1719 C1716 1.511 . S
C1719 H1733 0.961 . S
C1719 H1734 0.961 . S
C1719 H1735 0.961 . S
C1720 C1721 1.370 . S
C1720 C1722 1.363 . S
C1720 H1736 0.931 . S
C1721 C1720 1.370 . S
C1721 C1725 1.408 . S
C1722 C1720 1.363 . S
C1722 C1723 1.370 . S
C1722 C1726 1.524 . S
C1723 C1715 1.503 . S
C1723 C1722 1.370 . S
C1723 C1724 1.403 . S
C1724 C1723 1.403 . S
C1724 C1725 1.404 . S
C1724 C1727 1.539 . S
C1725 C1721 1.408 . S
C1725 C1724 1.404 . S
C1725 H1737 0.930 . S
C1726 C1722 1.524 . S
C1726 H1738 0.956 . S
C1726 H1739 0.961 . S
C1726 H1740 0.961 . S
C1727 C1724 1.539 . S
C1727 H1741 0.958 . S
C1727 H1742 0.961 . S
C1727 H1743 0.960 . S
H1728 C1712 0.931 . S
H1729 C1717 0.929 . S
H1730 C1718 0.960 . S
H1731 C1718 0.962 . S
H1732 C1718 0.960 . S
H1733 C1719 0.961 . S
H1734 C1719 0.961 . S
H1735 C1719 0.961 . S
H1736 C1720 0.931 . S
H1737 C1725 0.930 . S
H1738 C1726 0.956 . S
H1739 C1726 0.961 . S
H1740 C1726 0.961 . S
H1741 C1727 0.958 . S
H1742 C1727 0.961 . S
H1743 C1727 0.960 . S
C1744 C1745 1.391 . S
C1744 C1746 1.394 . S
C1744 H1760 0.931 . S
C1745 C1744 1.391 . S
C1745 C1749 1.376 . S
C1746 C1744 1.394 . S
C1746 C1747 1.369 . S
C1746 C1750 1.531 . S
C1747 C1746 1.369 . S
C1747 C1748 1.410 . S
C1747 C1755 1.503 . S
C1748 C1747 1.410 . S
C1748 C1749 1.392 . S
C1748 C1751 1.511 . S
C1749 C1745 1.376 . S
C1749 C1748 1.392 . S
C1749 H1761 0.929 . S
C1750 C1746 1.531 . S
C1750 H1762 0.960 . S
C1750 H1763 0.962 . S
C1750 H1764 0.960 . S
C1751 C1748 1.511 . S
C1751 H1765 0.961 . S
C1751 H1766 0.961 . S
C1751 H1767 0.961 . S
C1752 C1753 1.375 1_545 S
C1752 C1754 1.363 1_545 S
C1752 H1768 0.931 . S
C1753 C1752 1.375 1_565 S
C1753 C1757 1.436 . S
C1754 C1752 1.363 1_565 S
C1754 C1755 1.370 . S
C1754 C1758 1.524 . S
C1755 C1747 1.503 . S
C1755 C1754 1.370 . S
C1755 C1756 1.403 . S
C1756 C1755 1.403 . S
C1756 C1757 1.404 . S
C1756 C1759 1.539 . S
C1757 C1753 1.436 . S
C1757 C1756 1.404 . S
C1757 H1769 0.930 . S
C1758 C1754 1.524 . S
C1758 H1770 0.956 . S
C1758 H1771 0.961 . S
C1758 H1772 0.961 1_565 S
C1759 C1756 1.539 . S
C1759 H1773 0.958 . S
C1759 H1774 0.961 . S
C1759 H1775 0.960 . S
H1760 C1744 0.931 . S
H1761 C1749 0.929 . S
H1762 C1750 0.960 . S
H1763 C1750 0.962 . S
H1764 C1750 0.960 . S
H1765 C1751 0.961 . S
H1766 C1751 0.961 . S
H1767 C1751 0.961 . S
H1768 C1752 0.931 . S
H1769 C1757 0.930 . S
H1770 C1758 0.956 . S
H1771 C1758 0.961 . S
H1772 C1758 0.961 1_545 S
H1773 C1759 0.958 . S
H1774 C1759 0.961 . S
H1775 C1759 0.960 . S
C1776 C1777 1.391 . S
C1776 C1778 1.394 . S
C1776 H1792 0.931 . S
C1777 C1776 1.391 . S
C1777 C1781 1.376 . S
C1778 C1776 1.394 . S
C1778 C1779 1.369 . S
C1778 C1782 1.531 . S
C1779 C1778 1.369 . S
C1779 C1780 1.410 . S
C1779 C1787 1.503 . S
C1780 C1779 1.410 . S
C1780 C1781 1.392 . S
C1780 C1783 1.511 . S
C1781 C1777 1.376 . S
C1781 C1780 1.392 . S
C1781 H1793 0.929 . S
C1782 C1778 1.531 . S
C1782 H1794 0.960 . S
C1782 H1795 0.962 . S
C1782 H1796 0.960 . S
C1783 C1780 1.511 . S
C1783 H1797 0.961 . S
C1783 H1798 0.961 . S
C1783 H1799 0.961 . S
C1784 C1785 1.370 . S
C1784 C1786 1.363 . S
C1784 H1800 0.931 . S
C1785 C1784 1.370 . S
C1785 C1789 1.408 . S
C1786 C1784 1.363 . S
C1786 C1787 1.370 . S
C1786 C1790 1.524 . S
C1787 C1779 1.503 . S
C1787 C1786 1.370 . S
C1787 C1788 1.403 . S
C1788 C1787 1.403 . S
C1788 C1789 1.404 . S
C1788 C1791 1.539 . S
C1789 C1785 1.408 . S
C1789 C1788 1.404 . S
C1789 H1801 0.930 . S
C1790 C1786 1.524 . S
C1790 H1802 0.956 . S
C1790 H1803 0.961 . S
C1790 H1804 0.961 . S
C1791 C1788 1.539 . S
C1791 H1805 0.958 . S
C1791 H1806 0.961 . S
C1791 H1807 0.960 . S
H1792 C1776 0.931 . S
H1793 C1781 0.929 . S
H1794 C1782 0.960 . S
H1795 C1782 0.962 . S
H1796 C1782 0.960 . S
H1797 C1783 0.961 . S
H1798 C1783 0.961 . S
H1799 C1783 0.961 . S
H1800 C1784 0.931 . S
H1801 C1789 0.930 . S
H1802 C1790 0.956 . S
H1803 C1790 0.961 . S
H1804 C1790 0.961 . S
H1805 C1791 0.958 . S
H1806 C1791 0.961 . S
H1807 C1791 0.960 . S
C1808 C1809 1.391 . S
C1808 C1810 1.394 . S
C1808 H1824 0.931 . S
C1809 C1808 1.391 . S
C1809 C1813 1.376 . S
C1810 C1808 1.394 . S
C1810 C1811 1.369 . S
C1810 C1814 1.531 . S
C1811 C1810 1.369 . S
C1811 C1812 1.410 . S
C1811 C1819 1.503 . S
C1812 C1811 1.410 . S
C1812 C1813 1.392 . S
C1812 C1815 1.511 . S
C1813 C1809 1.376 . S
C1813 C1812 1.392 . S
C1813 H1825 0.929 . S
C1814 C1810 1.531 . S
C1814 H1826 0.960 . S
C1814 H1827 0.962 . S
C1814 H1828 0.960 . S
C1815 C1812 1.511 . S
C1815 H1829 0.961 . S
C1815 H1830 0.961 . S
C1815 H1831 0.961 . S
C1816 C1817 1.370 . S
C1816 C1818 1.363 . S
C1816 H1832 0.931 . S
C1817 C1816 1.370 . S
C1817 C1821 1.408 . S
C1818 C1816 1.363 . S
C1818 C1819 1.370 . S
C1818 C1822 1.524 . S
C1819 C1811 1.503 . S
C1819 C1818 1.370 . S
C1819 C1820 1.403 . S
C1820 C1819 1.403 . S
C1820 C1821 1.404 . S
C1820 C1823 1.539 . S
C1821 C1817 1.408 . S
C1821 C1820 1.404 . S
C1821 H1833 0.930 . S
C1822 C1818 1.524 . S
C1822 H1834 0.956 . S
C1822 H1835 0.961 . S
C1822 H1836 0.961 . S
C1823 C1820 1.539 . S
C1823 H1837 0.958 . S
C1823 H1838 0.961 . S
C1823 H1839 0.960 . S
H1824 C1808 0.931 . S
H1825 C1813 0.929 . S
H1826 C1814 0.960 . S
H1827 C1814 0.962 . S
H1828 C1814 0.960 . S
H1829 C1815 0.961 . S
H1830 C1815 0.961 . S
H1831 C1815 0.961 . S
H1832 C1816 0.931 . S
H1833 C1821 0.930 . S
H1834 C1822 0.956 . S
H1835 C1822 0.961 . S
H1836 C1822 0.961 . S
H1837 C1823 0.958 . S
H1838 C1823 0.961 . S
H1839 C1823 0.960 . S
C1840 C1841 1.391 . S
C1840 C1842 1.394 . S
C1840 H1856 0.931 . S
C1841 C1840 1.391 . S
C1841 C1845 1.376 . S
C1842 C1840 1.394 . S
C1842 C1843 1.369 . S
C1842 C1846 1.531 . S
C1843 C1842 1.369 . S
C1843 C1844 1.410 . S
C1843 C1851 1.503 . S
C1844 C1843 1.410 . S
C1844 C1845 1.392 . S
C1844 C1847 1.511 . S
C1845 C1841 1.376 . S
C1845 C1844 1.392 . S
C1845 H1857 0.929 . S
C1846 C1842 1.531 . S
C1846 H1858 0.960 . S
C1846 H1859 0.962 . S
C1846 H1860 0.960 . S
C1847 C1844 1.511 . S
C1847 H1861 0.961 . S
C1847 H1862 0.961 . S
C1847 H1863 0.961 . S
C1848 C1849 1.370 . S
C1848 C1850 1.363 . S
C1848 H1864 0.931 . S
C1849 C1848 1.370 . S
C1849 C1853 1.408 . S
C1850 C1848 1.363 . S
C1850 C1851 1.370 . S
C1850 C1854 1.524 . S
C1851 C1843 1.503 . S
C1851 C1850 1.370 . S
C1851 C1852 1.403 . S
C1852 C1851 1.403 . S
C1852 C1853 1.404 . S
C1852 C1855 1.539 . S
C1853 C1849 1.408 . S
C1853 C1852 1.404 . S
C1853 H1865 0.930 . S
C1854 C1850 1.524 . S
C1854 H1866 0.956 . S
C1854 H1867 0.961 . S
C1854 H1868 0.961 . S
C1855 C1852 1.539 . S
C1855 H1869 0.958 . S
C1855 H1870 0.961 . S
C1855 H1871 0.960 . S
H1856 C1840 0.931 . S
H1857 C1845 0.929 . S
H1858 C1846 0.960 . S
H1859 C1846 0.962 . S
H1860 C1846 0.960 . S
H1861 C1847 0.961 . S
H1862 C1847 0.961 . S
H1863 C1847 0.961 . S
H1864 C1848 0.931 . S
H1865 C1853 0.930 . S
H1866 C1854 0.956 . S
H1867 C1854 0.961 . S
H1868 C1854 0.961 . S
H1869 C1855 0.958 . S
H1870 C1855 0.961 . S
H1871 C1855 0.960 . S
C1872 C1873 1.391 . S
C1872 C1874 1.394 . S
C1872 H1888 0.931 . S
C1873 C1872 1.391 . S
C1873 C1877 1.376 . S
C1874 C1872 1.394 . S
C1874 C1875 1.369 . S
C1874 C1878 1.531 . S
C1875 C1874 1.369 . S
C1875 C1876 1.410 . S
C1875 C1883 1.503 . S
C1876 C1875 1.410 . S
C1876 C1877 1.392 . S
C1876 C1879 1.511 . S
C1877 C1873 1.376 . S
C1877 C1876 1.392 . S
C1877 H1889 0.929 1_455 S
C1878 C1874 1.531 . S
C1878 H1890 0.960 . S
C1878 H1891 0.962 . S
C1878 H1892 0.960 . S
C1879 C1876 1.511 . S
C1879 H1893 0.961 1_455 S
C1879 H1894 0.961 1_455 S
C1879 H1895 0.961 . S
C1880 C1881 1.370 . S
C1880 C1882 1.363 . S
C1880 H1896 0.931 1_455 S
C1881 C1880 1.370 . S
C1881 C1885 1.408 . S
C1882 C1880 1.363 . S
C1882 C1883 1.370 . S
C1882 C1886 1.524 1_455 S
C1883 C1875 1.503 . S
C1883 C1882 1.370 . S
C1883 C1884 1.403 . S
C1884 C1883 1.403 . S
C1884 C1885 1.404 . S
C1884 C1887 1.539 . S
C1885 C1881 1.408 . S
C1885 C1884 1.404 . S
C1885 H1897 0.930 . S
C1886 C1882 1.524 1_655 S
C1886 H1898 0.956 . S
C1886 H1899 0.961 . S
C1886 H1900 0.961 . S
C1887 C1884 1.539 . S
C1887 H1901 0.958 . S
C1887 H1902 0.961 . S
C1887 H1903 0.960 . S
H1888 C1872 0.931 . S
H1889 C1877 0.929 1_655 S
H1890 C1878 0.960 . S
H1891 C1878 0.962 . S
H1892 C1878 0.960 . S
H1893 C1879 0.961 1_655 S
H1894 C1879 0.961 1_655 S
H1895 C1879 0.961 . S
H1896 C1880 0.931 1_655 S
H1897 C1885 0.930 . S
H1898 C1886 0.956 . S
H1899 C1886 0.961 . S
H1900 C1886 0.961 . S
H1901 C1887 0.958 . S
H1902 C1887 0.961 . S
H1903 C1887 0.960 . S
C1904 C1905 1.391 . S
C1904 C1906 1.394 . S
C1904 H1920 0.931 . S
C1905 C1904 1.391 . S
C1905 C1909 1.376 . S
C1906 C1904 1.394 . S
C1906 C1907 1.369 . S
C1906 C1910 1.531 . S
C1907 C1906 1.369 . S
C1907 C1908 1.410 . S
C1907 C1915 1.503 . S
C1908 C1907 1.410 . S
C1908 C1909 1.392 . S
C1908 C1911 1.511 . S
C1909 C1905 1.376 . S
C1909 C1908 1.392 . S
C1909 H1921 0.929 . S
C1910 C1906 1.531 . S
C1910 H1922 0.960 . S
C1910 H1923 0.962 . S
C1910 H1924 0.960 . S
C1911 C1908 1.511 . S
C1911 H1925 0.961 . S
C1911 H1926 0.961 . S
C1911 H1927 0.961 . S
C1912 C1913 1.370 . S
C1912 C1914 1.363 . S
C1912 H1928 0.931 . S
C1913 C1912 1.370 . S
C1913 C1917 1.408 . S
C1914 C1912 1.363 . S
C1914 C1915 1.370 . S
C1914 C1918 1.524 . S
C1915 C1907 1.503 . S
C1915 C1914 1.370 . S
C1915 C1916 1.403 . S
C1916 C1915 1.403 . S
C1916 C1917 1.404 . S
C1916 C1919 1.539 . S
C1917 C1913 1.408 . S
C1917 C1916 1.404 . S
C1917 H1929 0.930 . S
C1918 C1914 1.524 . S
C1918 H1930 0.956 . S
C1918 H1931 0.961 . S
C1918 H1932 0.961 . S
C1919 C1916 1.539 . S
C1919 H1933 0.958 . S
C1919 H1934 0.961 . S
C1919 H1935 0.960 . S
H1920 C1904 0.931 . S
H1921 C1909 0.929 . S
H1922 C1910 0.960 . S
H1923 C1910 0.962 . S
H1924 C1910 0.960 . S
H1925 C1911 0.961 . S
H1926 C1911 0.961 . S
H1927 C1911 0.961 . S
H1928 C1912 0.931 . S
H1929 C1917 0.930 . S
H1930 C1918 0.956 . S
H1931 C1918 0.961 . S
H1932 C1918 0.961 . S
H1933 C1919 0.958 . S
H1934 C1919 0.961 . S
H1935 C1919 0.960 . S
C1936 C1937 1.391 . S
C1936 C1938 1.394 . S
C1936 H1952 0.931 . S
C1937 C1936 1.391 . S
C1937 C1941 1.376 . S
C1938 C1936 1.394 . S
C1938 C1939 1.369 . S
C1938 C1942 1.531 . S
C1939 C1938 1.369 . S
C1939 C1940 1.410 . S
C1939 C1947 1.503 . S
C1940 C1939 1.410 . S
C1940 C1941 1.392 . S
C1940 C1943 1.511 . S
C1941 C1937 1.376 . S
C1941 C1940 1.392 . S
C1941 H1953 0.929 . S
C1942 C1938 1.531 . S
C1942 H1954 0.960 1_556 S
C1942 H1955 0.962 . S
C1942 H1956 0.960 . S
C1943 C1940 1.511 . S
C1943 H1957 0.961 . S
C1943 H1958 0.961 . S
C1943 H1959 0.961 . S
C1944 C1945 1.370 1_566 S
C1944 C1946 1.363 . S
C1944 H1960 0.931 1_565 S
C1945 C1944 1.370 1_544 S
C1945 C1949 1.408 1_545 S
C1946 C1944 1.363 . S
C1946 C1947 1.370 . S
C1946 C1950 1.524 . S
C1947 C1939 1.503 . S
C1947 C1946 1.370 . S
C1947 C1948 1.403 1_556 S
C1948 C1947 1.403 1_554 S
C1948 C1949 1.404 . S
C1948 C1951 1.539 . S
C1949 C1945 1.408 1_565 S
C1949 C1948 1.404 . S
C1949 H1961 0.930 . S
C1950 C1946 1.524 . S
C1950 H1962 0.956 . S
C1950 H1963 0.961 . S
C1950 H1964 0.961 . S
C1951 C1948 1.539 . S
C1951 H1965 0.958 . S
C1951 H1966 0.961 . S
C1951 H1967 0.960 . S
H1952 C1936 0.931 . S
H1953 C1941 0.929 . S
H1954 C1942 0.960 1_554 S
H1955 C1942 0.962 . S
H1956 C1942 0.960 . S
H1957 C1943 0.961 . S
H1958 C1943 0.961 . S
H1959 C1943 0.961 . S
H1960 C1944 0.931 1_545 S
H1961 C1949 0.930 . S
H1962 C1950 0.956 . S
H1963 C1950 0.961 . S
H1964 C1950 0.961 . S
H1965 C1951 0.958 . S
H1966 C1951 0.961 . S
H1967 C1951 0.960 . S
C1968 C1969 1.391 . S
C1968 C1970 1.394 . S
C1968 H1984 0.931 . S
C1969 C1968 1.391 . S
C1969 C1973 1.376 . S
C1970 C1968 1.394 . S
C1970 C1971 1.372 . S
C1970 C1974 1.531 . S
C1971 C1970 1.372 . S
C1971 C1972 1.409 1_455 S
C1971 C1979 1.500 1_455 S
C1972 C1971 1.409 1_655 S
C1972 C1973 1.392 1_655 S
C1972 C1975 1.511 . S
C1973 C1969 1.376 . S
C1973 C1972 1.392 1_455 S
C1973 H1985 0.929 . S
C1974 C1970 1.531 . S
C1974 H1986 0.960 . S
C1974 H1987 0.962 . S
C1974 H1988 0.960 . S
C1975 C1972 1.511 . S
C1975 H1989 0.961 . S
C1975 H1990 0.961 . S
C1975 H1991 0.961 . S
C1976 C1977 1.370 . S
C1976 C1978 1.363 . S
C1976 H1992 0.931 . S
C1977 C1976 1.370 . S
C1977 C1981 1.408 . S
C1978 C1976 1.363 . S
C1978 C1979 1.370 . S
C1978 C1982 1.524 . S
C1979 C1971 1.500 1_655 S
C1979 C1978 1.370 . S
C1979 C1980 1.403 . S
C1980 C1979 1.403 . S
C1980 C1981 1.404 . S
C1980 C1983 1.539 . S
C1981 C1977 1.408 . S
C1981 C1980 1.404 . S
C1981 H1993 0.930 . S
C1982 C1978 1.524 . S
C1982 H1994 0.956 1_655 S
C1982 H1995 0.961 . S
C1982 H1996 0.961 . S
C1983 C1980 1.539 . S
C1983 H1997 0.958 . S
C1983 H1998 0.961 . S
C1983 H1999 0.960 . S
H1984 C1968 0.931 . S
H1985 C1973 0.929 . S
H1986 C1974 0.960 . S
H1987 C1974 0.962 . S
H1988 C1974 0.960 . S
H1989 C1975 0.961 . S
H1990 C1975 0.961 . S
H1991 C1975 0.961 . S
H1992 C1976 0.931 . S
H1993 C1981 0.930 . S
H1994 C1982 0.956 1_455 S
H1995 C1982 0.961 . S
H1996 C1982 0.961 . S
H1997 C1983 0.958 . S
H1998 C1983 0.961 . S
H1999 C1983 0.960 . S
C2000 C2001 1.391 . S
C2000 C2002 1.394 . S
C2000 H2016 0.931 . S
C2001 C2000 1.391 . S
C2001 C2005 1.376 . S
C2002 C2000 1.394 . S
C2002 C2003 1.369 . S
C2002 C2006 1.531 . S
C2003 C2002 1.369 . S
C2003 C2004 1.410 . S
C2003 C2011 1.503 . S
C2004 C2003 1.410 . S
C2004 C2005 1.392 . S
C2004 C2007 1.511 . S
C2005 C2001 1.376 . S
C2005 C2004 1.392 . S
C2005 H2017 0.929 . S
C2006 C2002 1.531 . S
C2006 H2018 0.960 . S
C2006 H2019 0.962 . S
C2006 H2020 0.960 . S
C2007 C2004 1.511 . S
C2007 H2021 0.961 . S
C2007 H2022 0.961 . S
C2007 H2023 0.961 . S
C2008 C2009 1.370 . S
C2008 C2010 1.363 . S
C2008 H2024 0.931 . S
C2009 C2008 1.370 . S
C2009 C2013 1.408 . S
C2010 C2008 1.363 . S
C2010 C2011 1.370 . S
C2010 C2014 1.524 . S
C2011 C2003 1.503 . S
C2011 C2010 1.370 . S
C2011 C2012 1.403 . S
C2012 C2011 1.403 . S
C2012 C2013 1.404 . S
C2012 C2015 1.539 . S
C2013 C2009 1.408 . S
C2013 C2012 1.404 . S
C2013 H2025 0.930 . S
C2014 C2010 1.524 . S
C2014 H2026 0.956 . S
C2014 H2027 0.961 . S
C2014 H2028 0.961 . S
C2015 C2012 1.539 . S
C2015 H2029 0.958 . S
C2015 H2030 0.961 . S
C2015 H2031 0.960 . S
H2016 C2000 0.931 . S
H2017 C2005 0.929 . S
H2018 C2006 0.960 . S
H2019 C2006 0.962 . S
H2020 C2006 0.960 . S
H2021 C2007 0.961 . S
H2022 C2007 0.961 . S
H2023 C2007 0.961 . S
H2024 C2008 0.931 . S
H2025 C2013 0.930 . S
H2026 C2014 0.956 . S
H2027 C2014 0.961 . S
H2028 C2014 0.961 . S
H2029 C2015 0.958 . S
H2030 C2015 0.961 . S
H2031 C2015 0.960 . S
C2032 C2033 1.391 . S
C2032 C2034 1.394 . S
C2032 H2048 0.931 . S
C2033 C2032 1.391 . S
C2033 C2037 1.376 . S
C2034 C2032 1.394 . S
C2034 C2035 1.369 . S
C2034 C2038 1.531 . S
C2035 C2034 1.369 . S
C2035 C2036 1.410 . S
C2035 C2043 1.503 . S
C2036 C2035 1.410 . S
C2036 C2037 1.392 . S
C2036 C2039 1.511 . S
C2037 C2033 1.376 . S
C2037 C2036 1.392 . S
C2037 H2049 0.929 . S
C2038 C2034 1.531 . S
C2038 H2050 0.960 . S
C2038 H2051 0.962 . S
C2038 H2052 0.960 . S
C2039 C2036 1.511 . S
C2039 H2053 0.961 . S
C2039 H2054 0.961 . S
C2039 H2055 0.961 . S
C2040 C2041 1.370 . S
C2040 C2042 1.363 . S
C2040 H2056 0.931 . S
C2041 C2040 1.370 . S
C2041 C2045 1.408 . S
C2042 C2040 1.363 . S
C2042 C2043 1.370 . S
C2042 C2046 1.524 . S
C2043 C2035 1.503 . S
C2043 C2042 1.370 . S
C2043 C2044 1.403 . S
C2044 C2043 1.403 . S
C2044 C2045 1.404 . S
C2044 C2047 1.539 . S
C2045 C2041 1.408 . S
C2045 C2044 1.404 . S
C2045 H2057 0.930 . S
C2046 C2042 1.524 . S
C2046 H2058 0.956 . S
C2046 H2059 0.961 . S
C2046 H2060 0.961 . S
C2047 C2044 1.539 . S
C2047 H2061 0.958 . S
C2047 H2062 0.961 . S
C2047 H2063 0.960 . S
H2048 C2032 0.931 . S
H2049 C2037 0.929 . S
H2050 C2038 0.960 . S
H2051 C2038 0.962 . S
H2052 C2038 0.960 . S
H2053 C2039 0.961 . S
H2054 C2039 0.961 . S
H2055 C2039 0.961 . S
H2056 C2040 0.931 . S
H2057 C2045 0.930 . S
H2058 C2046 0.956 . S
H2059 C2046 0.961 . S
H2060 C2046 0.961 . S
H2061 C2047 0.958 . S
H2062 C2047 0.961 . S
H2063 C2047 0.960 . S
C2064 C2065 1.391 . S
C2064 C2066 1.394 . S
C2064 H2080 0.931 . S
C2065 C2064 1.391 . S
C2065 C2069 1.376 . S
C2066 C2064 1.394 . S
C2066 C2067 1.369 . S
C2066 C2070 1.531 . S
C2067 C2066 1.369 . S
C2067 C2068 1.410 . S
C2067 C2075 1.503 . S
C2068 C2067 1.410 . S
C2068 C2069 1.392 . S
C2068 C2071 1.511 . S
C2069 C2065 1.376 . S
C2069 C2068 1.392 . S
C2069 H2081 0.929 . S
C2070 C2066 1.531 . S
C2070 H2082 0.960 . S
C2070 H2083 0.962 . S
C2070 H2084 0.960 . S
C2071 C2068 1.511 . S
C2071 H2085 0.961 . S
C2071 H2086 0.961 . S
C2071 H2087 0.961 . S
C2072 C2073 1.370 . S
C2072 C2074 1.363 . S
C2072 H2088 0.931 . S
C2073 C2072 1.370 . S
C2073 C2077 1.408 . S
C2074 C2072 1.363 . S
C2074 C2075 1.370 . S
C2074 C2078 1.524 . S
C2075 C2067 1.503 . S
C2075 C2074 1.370 . S
C2075 C2076 1.403 . S
C2076 C2075 1.403 . S
C2076 C2077 1.404 . S
C2076 C2079 1.539 . S
C2077 C2073 1.408 . S
C2077 C2076 1.404 . S
C2077 H2089 0.930 . S
C2078 C2074 1.524 . S
C2078 H2090 0.956 . S
C2078 H2091 0.961 . S
C2078 H2092 0.961 . S
C2079 C2076 1.539 . S
C2079 H2093 0.958 . S
C2079 H2094 0.961 . S
C2079 H2095 0.960 . S
H2080 C2064 0.931 . S
H2081 C2069 0.929 . S
H2082 C2070 0.960 . S
H2083 C2070 0.962 . S
H2084 C2070 0.960 . S
H2085 C2071 0.961 . S
H2086 C2071 0.961 . S
H2087 C2071 0.961 . S
H2088 C2072 0.931 . S
H2089 C2077 0.930 . S
H2090 C2078 0.956 . S
H2091 C2078 0.961 . S
H2092 C2078 0.961 . S
H2093 C2079 0.958 . S
H2094 C2079 0.961 . S
H2095 C2079 0.960 . S
C2096 C2097 1.391 . S
C2096 C2098 1.394 . S
C2096 H2112 0.931 . S
C2097 C2096 1.391 . S
C2097 C2101 1.376 . S
C2098 C2096 1.394 . S
C2098 C2099 1.369 . S
C2098 C2102 1.531 . S
C2099 C2098 1.369 . S
C2099 C2100 1.410 . S
C2099 C2107 1.503 . S
C2100 C2099 1.410 . S
C2100 C2101 1.392 . S
C2100 C2103 1.511 . S
C2101 C2097 1.376 . S
C2101 C2100 1.392 . S
C2101 H2113 0.929 . S
C2102 C2098 1.531 . S
C2102 H2114 0.960 . S
C2102 H2115 0.962 . S
C2102 H2116 0.960 . S
C2103 C2100 1.511 . S
C2103 H2117 0.961 . S
C2103 H2118 0.961 . S
C2103 H2119 0.961 . S
C2104 C2105 1.370 . S
C2104 C2106 1.363 . S
C2104 H2120 0.931 . S
C2105 C2104 1.370 . S
C2105 C2109 1.408 . S
C2106 C2104 1.363 . S
C2106 C2107 1.370 . S
C2106 C2110 1.524 . S
C2107 C2099 1.503 . S
C2107 C2106 1.370 . S
C2107 C2108 1.403 . S
C2108 C2107 1.403 . S
C2108 C2109 1.404 . S
C2108 C2111 1.539 . S
C2109 C2105 1.408 . S
C2109 C2108 1.404 . S
C2109 H2121 0.930 . S
C2110 C2106 1.524 . S
C2110 H2122 0.956 . S
C2110 H2123 0.961 . S
C2110 H2124 0.961 . S
C2111 C2108 1.539 . S
C2111 H2125 0.958 . S
C2111 H2126 0.961 . S
C2111 H2127 0.960 . S
H2112 C2096 0.931 . S
H2113 C2101 0.929 . S
H2114 C2102 0.960 . S
H2115 C2102 0.962 . S
H2116 C2102 0.960 . S
H2117 C2103 0.961 . S
H2118 C2103 0.961 . S
H2119 C2103 0.961 . S
H2120 C2104 0.931 . S
H2121 C2109 0.930 . S
H2122 C2110 0.956 . S
H2123 C2110 0.961 . S
H2124 C2110 0.961 . S
H2125 C2111 0.958 . S
H2126 C2111 0.961 . S
H2127 C2111 0.960 . S
C2128 C2129 1.391 . S
C2128 C2130 1.394 . S
C2128 H2144 0.931 . S
C2129 C2128 1.391 . S
C2129 C2133 1.376 . S
C2130 C2128 1.394 . S
C2130 C2131 1.369 . S
C2130 C2134 1.531 . S
C2131 C2130 1.369 . S
C2131 C2132 1.410 . S
C2131 C2139 1.503 . S
C2132 C2131 1.410 . S
C2132 C2133 1.392 . S
C2132 C2135 1.511 . S
C2133 C2129 1.376 . S
C2133 C2132 1.392 . S
C2133 H2145 0.929 . S
C2134 C2130 1.531 . S
C2134 H2146 0.960 . S
C2134 H2147 0.962 . S
C2134 H2148 0.960 . S
C2135 C2132 1.511 . S
C2135 H2149 0.961 . S
C2135 H2150 0.961 . S
C2135 H2151 0.961 . S
C2136 C2137 1.370 . S
C2136 C2138 1.363 . S
C2136 H2152 0.931 . S
C2137 C2136 1.370 . S
C2137 C2141 1.408 . S
C2138 C2136 1.363 . S
C2138 C2139 1.370 . S
C2138 C2142 1.524 . S
C2139 C2131 1.503 . S
C2139 C2138 1.370 . S
C2139 C2140 1.403 . S
C2140 C2139 1.403 . S
C2140 C2141 1.404 . S
C2140 C2143 1.539 . S
C2141 C2137 1.408 . S
C2141 C2140 1.404 . S
C2141 H2153 0.930 . S
C2142 C2138 1.524 . S
C2142 H2154 0.956 . S
C2142 H2155 0.961 . S
C2142 H2156 0.961 . S
C2143 C2140 1.539 . S
C2143 H2157 0.958 . S
C2143 H2158 0.961 . S
C2143 H2159 0.960 . S
H2144 C2128 0.931 . S
H2145 C2133 0.929 . S
H2146 C2134 0.960 . S
H2147 C2134 0.962 . S
H2148 C2134 0.960 . S
H2149 C2135 0.961 . S
H2150 C2135 0.961 . S
H2151 C2135 0.961 . S
H2152 C2136 0.931 . S
H2153 C2141 0.930 . S
H2154 C2142 0.956 . S
H2155 C2142 0.961 . S
H2156 C2142 0.961 . S
H2157 C2143 0.958 . S
H2158 C2143 0.961 . S
H2159 C2143 0.960 . S
C2160 C2161 1.391 . S
C2160 C2162 1.394 . S
C2160 H2176 0.931 . S
C2161 C2160 1.391 . S
C2161 C2165 1.376 . S
C2162 C2160 1.394 . S
C2162 C2163 1.369 . S
C2162 C2166 1.531 . S
C2163 C2162 1.369 . S
C2163 C2164 1.410 . S
C2163 C2171 1.503 . S
C2164 C2163 1.410 . S
C2164 C2165 1.392 . S
C2164 C2167 1.511 . S
C2165 C2161 1.376 . S
C2165 C2164 1.392 . S
C2165 H2177 0.929 . S
C2166 C2162 1.531 . S
C2166 H2178 0.960 . S
C2166 H2179 0.962 . S
C2166 H2180 0.960 . S
C2167 C2164 1.511 . S
C2167 H2181 0.961 . S
C2167 H2182 0.961 . S
C2167 H2183 0.961 . S
C2168 C2169 1.370 . S
C2168 C2170 1.363 . S
C2168 H2184 0.931 . S
C2169 C2168 1.370 . S
C2169 C2173 1.408 . S
C2170 C2168 1.363 . S
C2170 C2171 1.370 . S
C2170 C2174 1.524 . S
C2171 C2163 1.503 . S
C2171 C2170 1.370 . S
C2171 C2172 1.403 . S
C2172 C2171 1.403 . S
C2172 C2173 1.404 . S
C2172 C2175 1.539 . S
C2173 C2169 1.408 . S
C2173 C2172 1.404 . S
C2173 H2185 0.930 . S
C2174 C2170 1.524 . S
C2174 H2186 0.956 . S
C2174 H2187 0.961 . S
C2174 H2188 0.961 . S
C2175 C2172 1.539 . S
C2175 H2189 0.958 . S
C2175 H2190 0.961 . S
C2175 H2191 0.960 . S
H2176 C2160 0.931 . S
H2177 C2165 0.929 . S
H2178 C2166 0.960 . S
H2179 C2166 0.962 . S
H2180 C2166 0.960 . S
H2181 C2167 0.961 . S
H2182 C2167 0.961 . S
H2183 C2167 0.961 . S
H2184 C2168 0.931 . S
H2185 C2173 0.930 . S
H2186 C2174 0.956 . S
H2187 C2174 0.961 . S
H2188 C2174 0.961 . S
H2189 C2175 0.958 . S
H2190 C2175 0.961 . S
H2191 C2175 0.960 . S
C2192 C2193 1.391 . S
C2192 C2194 1.394 . S
C2192 H2208 0.931 . S
C2193 C2192 1.391 . S
C2193 C2197 1.376 . S
C2194 C2192 1.394 . S
C2194 C2195 1.369 . S
C2194 C2198 1.531 . S
C2195 C2194 1.369 . S
C2195 C2196 1.410 . S
C2195 C2203 1.503 . S
C2196 C2195 1.410 . S
C2196 C2197 1.392 . S
C2196 C2199 1.511 . S
C2197 C2193 1.376 . S
C2197 C2196 1.392 . S
C2197 H2209 0.929 . S
C2198 C2194 1.531 . S
C2198 H2210 0.960 . S
C2198 H2211 0.962 . S
C2198 H2212 0.960 . S
C2199 C2196 1.511 . S
C2199 H2213 0.961 . S
C2199 H2214 0.961 . S
C2199 H2215 0.961 . S
C2200 C2201 1.370 . S
C2200 C2202 1.363 . S
C2200 H2216 0.931 . S
C2201 C2200 1.370 . S
C2201 C2205 1.408 . S
C2202 C2200 1.363 . S
C2202 C2203 1.370 . S
C2202 C2206 1.524 . S
C2203 C2195 1.503 . S
C2203 C2202 1.370 . S
C2203 C2204 1.403 . S
C2204 C2203 1.403 . S
C2204 C2205 1.404 . S
C2204 C2207 1.539 . S
C2205 C2201 1.408 . S
C2205 C2204 1.404 . S
C2205 H2217 0.930 . S
C2206 C2202 1.524 . S
C2206 H2218 0.956 . S
C2206 H2219 0.961 . S
C2206 H2220 0.961 . S
C2207 C2204 1.539 . S
C2207 H2221 0.958 . S
C2207 H2222 0.961 . S
C2207 H2223 0.960 . S
H2208 C2192 0.931 . S
H2209 C2197 0.929 . S
H2210 C2198 0.960 . S
H2211 C2198 0.962 . S
H2212 C2198 0.960 . S
H2213 C2199 0.961 . S
H2214 C2199 0.961 . S
H2215 C2199 0.961 . S
H2216 C2200 0.931 . S
H2217 C2205 0.930 . S
H2218 C2206 0.956 . S
H2219 C2206 0.961 . S
H2220 C2206 0.961 . S
H2221 C2207 0.958 . S
H2222 C2207 0.961 . S
H2223 C2207 0.960 . S
C2224 C2225 1.391 . S
C2224 C2226 1.394 . S
C2224 H2240 0.931 . S
C2225 C2224 1.391 . S
C2225 C2229 1.376 . S
C2226 C2224 1.394 . S
C2226 C2227 1.369 . S
C2226 C2230 1.531 . S
C2227 C2226 1.369 . S
C2227 C2228 1.410 . S
C2227 C2235 1.503 . S
C2228 C2227 1.410 . S
C2228 C2229 1.392 . S
C2228 C2231 1.511 . S
C2229 C2225 1.376 . S
C2229 C2228 1.392 . S
C2229 H2241 0.929 . S
C2230 C2226 1.531 . S
C2230 H2242 0.960 . S
C2230 H2243 0.962 . S
C2230 H2244 0.960 . S
C2231 C2228 1.511 . S
C2231 H2245 0.961 . S
C2231 H2246 0.961 . S
C2231 H2247 0.961 . S
C2232 C2233 1.370 . S
C2232 C2234 1.363 . S
C2232 H2248 0.931 . S
C2233 C2232 1.370 . S
C2233 C2237 1.408 . S
C2234 C2232 1.363 . S
C2234 C2235 1.370 . S
C2234 C2238 1.524 . S
C2235 C2227 1.503 . S
C2235 C2234 1.370 . S
C2235 C2236 1.403 . S
C2236 C2235 1.403 . S
C2236 C2237 1.404 . S
C2236 C2239 1.539 . S
C2237 C2233 1.408 . S
C2237 C2236 1.404 . S
C2237 H2249 0.930 . S
C2238 C2234 1.524 . S
C2238 H2250 0.956 . S
C2238 H2251 0.961 . S
C2238 H2252 0.961 . S
C2239 C2236 1.539 . S
C2239 H2253 0.958 . S
C2239 H2254 0.961 . S
C2239 H2255 0.960 . S
H2240 C2224 0.931 . S
H2241 C2229 0.929 . S
H2242 C2230 0.960 . S
H2243 C2230 0.962 . S
H2244 C2230 0.960 . S
H2245 C2231 0.961 . S
H2246 C2231 0.961 . S
H2247 C2231 0.961 . S
H2248 C2232 0.931 . S
H2249 C2237 0.930 . S
H2250 C2238 0.956 . S
H2251 C2238 0.961 . S
H2252 C2238 0.961 . S
H2253 C2239 0.958 . S
H2254 C2239 0.961 . S
H2255 C2239 0.960 . S
C2256 C2257 1.391 . S
C2256 C2258 1.394 . S
C2256 H2272 0.931 . S
C2257 C2256 1.391 . S
C2257 C2261 1.376 1_556 S
C2258 C2256 1.394 . S
C2258 C2259 1.369 . S
C2258 C2262 1.531 . S
C2259 C2258 1.369 . S
C2259 C2260 1.410 1_556 S
C2259 C2267 1.503 . S
C2260 C2259 1.410 1_554 S
C2260 C2261 1.392 . S
C2260 C2263 1.511 . S
C2261 C2257 1.376 1_554 S
C2261 C2260 1.392 . S
C2261 H2273 0.929 . S
C2262 C2258 1.531 . S
C2262 H2274 0.960 . S
C2262 H2275 0.962 . S
C2262 H2276 0.960 . S
C2263 C2260 1.511 . S
C2263 H2277 0.961 . S
C2263 H2278 0.961 . S
C2263 H2279 0.961 . S
C2264 C2265 1.370 . S
C2264 C2266 1.363 . S
C2264 H2280 0.931 . S
C2265 C2264 1.370 . S
C2265 C2269 1.408 . S
C2266 C2264 1.363 . S
C2266 C2267 1.370 . S
C2266 C2270 1.524 . S
C2267 C2259 1.503 . S
C2267 C2266 1.370 . S
C2267 C2268 1.403 . S
C2268 C2267 1.403 . S
C2268 C2269 1.404 . S
C2268 C2271 1.539 . S
C2269 C2265 1.408 . S
C2269 C2268 1.404 . S
C2269 H2281 0.930 . S
C2270 C2266 1.524 . S
C2270 H2282 0.956 . S
C2270 H2283 0.961 1_556 S
C2270 H2284 0.961 . S
C2271 C2268 1.539 . S
C2271 H2285 0.958 . S
C2271 H2286 0.961 . S
C2271 H2287 0.960 . S
H2272 C2256 0.931 . S
H2273 C2261 0.929 . S
H2274 C2262 0.960 . S
H2275 C2262 0.962 . S
H2276 C2262 0.960 . S
H2277 C2263 0.961 . S
H2278 C2263 0.961 . S
H2279 C2263 0.961 . S
H2280 C2264 0.931 . S
H2281 C2269 0.930 . S
H2282 C2270 0.956 . S
H2283 C2270 0.961 1_554 S
H2284 C2270 0.961 . S
H2285 C2271 0.958 . S
H2286 C2271 0.961 . S
H2287 C2271 0.960 . S
C2288 C2289 1.391 . S
C2288 C2290 1.394 . S
C2288 H2304 0.931 . S
C2289 C2288 1.391 . S
C2289 C2293 1.376 . S
C2290 C2288 1.394 . S
C2290 C2291 1.369 . S
C2290 C2294 1.531 . S
C2291 C2290 1.369 . S
C2291 C2292 1.410 . S
C2291 C2299 1.503 . S
C2292 C2291 1.410 . S
C2292 C2293 1.392 . S
C2292 C2295 1.511 . S
C2293 C2289 1.376 . S
C2293 C2292 1.392 . S
C2293 H2305 0.929 . S
C2294 C2290 1.531 . S
C2294 H2306 0.960 . S
C2294 H2307 0.962 . S
C2294 H2308 0.960 . S
C2295 C2292 1.511 . S
C2295 H2309 0.961 . S
C2295 H2310 0.961 . S
C2295 H2311 0.961 . S
C2296 C2297 1.370 . S
C2296 C2298 1.363 . S
C2296 H2312 0.931 . S
C2297 C2296 1.370 . S
C2297 C2301 1.408 . S
C2298 C2296 1.363 . S
C2298 C2299 1.370 . S
C2298 C2302 1.524 1_554 S
C2299 C2291 1.503 . S
C2299 C2298 1.370 . S
C2299 C2300 1.403 . S
C2300 C2299 1.403 . S
C2300 C2301 1.404 . S
C2300 C2303 1.539 . S
C2301 C2297 1.408 . S
C2301 C2300 1.404 . S
C2301 H2313 0.930 . S
C2302 C2298 1.524 1_556 S
C2302 H2314 0.956 1_556 S
C2302 H2315 0.961 . S
C2302 H2316 0.961 . S
C2303 C2300 1.539 . S
C2303 H2317 0.958 . S
C2303 H2318 0.961 . S
C2303 H2319 0.960 . S
H2304 C2288 0.931 . S
H2305 C2293 0.929 . S
H2306 C2294 0.960 . S
H2307 C2294 0.962 . S
H2308 C2294 0.960 . S
H2309 C2295 0.961 . S
H2310 C2295 0.961 . S
H2311 C2295 0.961 . S
H2312 C2296 0.931 . S
H2313 C2301 0.930 . S
H2314 C2302 0.956 1_554 S
H2315 C2302 0.961 . S
H2316 C2302 0.961 . S
H2317 C2303 0.958 . S
H2318 C2303 0.961 . S
H2319 C2303 0.960 . S
C2320 C2321 1.391 . S
C2320 C2322 1.394 . S
C2320 H2336 0.931 . S
C2321 C2320 1.391 . S
C2321 C2325 1.376 . S
C2322 C2320 1.394 . S
C2322 C2323 1.369 . S
C2322 C2326 1.531 . S
C2323 C2322 1.369 . S
C2323 C2324 1.410 . S
C2323 C2331 1.503 . S
C2324 C2323 1.410 . S
C2324 C2325 1.392 . S
C2324 C2327 1.511 . S
C2325 C2321 1.376 . S
C2325 C2324 1.392 . S
C2325 H2337 0.929 . S
C2326 C2322 1.531 . S
C2326 H2338 0.960 . S
C2326 H2339 0.962 . S
C2326 H2340 0.960 . S
C2327 C2324 1.511 . S
C2327 H2341 0.961 . S
C2327 H2342 0.961 . S
C2327 H2343 0.961 . S
C2328 C2329 1.370 . S
C2328 C2330 1.363 . S
C2328 H2344 0.931 . S
C2329 C2328 1.370 . S
C2329 C2333 1.408 . S
C2330 C2328 1.363 . S
C2330 C2331 1.370 . S
C2330 C2334 1.524 . S
C2331 C2323 1.503 . S
C2331 C2330 1.370 . S
C2331 C2332 1.403 . S
C2332 C2331 1.403 . S
C2332 C2333 1.404 . S
C2332 C2335 1.539 . S
C2333 C2329 1.408 . S
C2333 C2332 1.404 . S
C2333 H2345 0.930 . S
C2334 C2330 1.524 . S
C2334 H2346 0.956 . S
C2334 H2347 0.961 . S
C2334 H2348 0.961 . S
C2335 C2332 1.539 . S
C2335 H2349 0.958 . S
C2335 H2350 0.961 . S
C2335 H2351 0.960 . S
H2336 C2320 0.931 . S
H2337 C2325 0.929 . S
H2338 C2326 0.960 . S
H2339 C2326 0.962 . S
H2340 C2326 0.960 . S
H2341 C2327 0.961 . S
H2342 C2327 0.961 . S
H2343 C2327 0.961 . S
H2344 C2328 0.931 . S
H2345 C2333 0.930 . S
H2346 C2334 0.956 . S
H2347 C2334 0.961 . S
H2348 C2334 0.961 . S
H2349 C2335 0.958 . S
H2350 C2335 0.961 . S
H2351 C2335 0.960 . S
C2352 C2353 1.391 . S
C2352 C2354 1.394 . S
C2352 H2368 0.931 . S
C2353 C2352 1.391 . S
C2353 C2357 1.376 . S
C2354 C2352 1.394 . S
C2354 C2355 1.369 . S
C2354 C2358 1.531 . S
C2355 C2354 1.369 . S
C2355 C2356 1.410 . S
C2355 C2363 1.503 . S
C2356 C2355 1.410 . S
C2356 C2357 1.392 . S
C2356 C2359 1.511 . S
C2357 C2353 1.376 . S
C2357 C2356 1.392 . S
C2357 H2369 0.929 . S
C2358 C2354 1.531 . S
C2358 H2370 0.960 . S
C2358 H2371 0.962 . S
C2358 H2372 0.960 . S
C2359 C2356 1.511 . S
C2359 H2373 0.961 . S
C2359 H2374 0.961 . S
C2359 H2375 0.961 . S
C2360 C2361 1.370 . S
C2360 C2362 1.363 . S
C2360 H2376 0.931 . S
C2361 C2360 1.370 . S
C2361 C2365 1.408 . S
C2362 C2360 1.363 . S
C2362 C2363 1.370 . S
C2362 C2366 1.524 . S
C2363 C2355 1.503 . S
C2363 C2362 1.370 . S
C2363 C2364 1.403 . S
C2364 C2363 1.403 . S
C2364 C2365 1.404 . S
C2364 C2367 1.539 . S
C2365 C2361 1.408 . S
C2365 C2364 1.404 . S
C2365 H2377 0.930 . S
C2366 C2362 1.524 . S
C2366 H2378 0.956 . S
C2366 H2379 0.961 . S
C2366 H2380 0.961 . S
C2367 C2364 1.539 . S
C2367 H2381 0.958 . S
C2367 H2382 0.961 . S
C2367 H2383 0.960 . S
H2368 C2352 0.931 . S
H2369 C2357 0.929 . S
H2370 C2358 0.960 . S
H2371 C2358 0.962 . S
H2372 C2358 0.960 . S
H2373 C2359 0.961 . S
H2374 C2359 0.961 . S
H2375 C2359 0.961 . S
H2376 C2360 0.931 . S
H2377 C2365 0.930 . S
H2378 C2366 0.956 . S
H2379 C2366 0.961 . S
H2380 C2366 0.961 . S
H2381 C2367 0.958 . S
H2382 C2367 0.961 . S
H2383 C2367 0.960 . S
C2384 C2385 1.391 . S
C2384 C2386 1.394 . S
C2384 H2400 0.931 . S
C2385 C2384 1.391 . S
C2385 C2389 1.376 . S
C2386 C2384 1.394 . S
C2386 C2387 1.369 . S
C2386 C2390 1.531 . S
C2387 C2386 1.369 . S
C2387 C2388 1.410 . S
C2387 C2395 1.503 . S
C2388 C2387 1.410 . S
C2388 C2389 1.392 . S
C2388 C2391 1.511 . S
C2389 C2385 1.376 . S
C2389 C2388 1.392 . S
C2389 H2401 0.929 . S
C2390 C2386 1.531 . S
C2390 H2402 0.960 . S
C2390 H2403 0.962 . S
C2390 H2404 0.960 . S
C2391 C2388 1.511 . S
C2391 H2405 0.961 . S
C2391 H2406 0.961 . S
C2391 H2407 0.961 . S
C2392 C2393 1.370 . S
C2392 C2394 1.363 . S
C2392 H2408 0.931 . S
C2393 C2392 1.370 . S
C2393 C2397 1.408 . S
C2394 C2392 1.363 . S
C2394 C2395 1.370 . S
C2394 C2398 1.524 . S
C2395 C2387 1.503 . S
C2395 C2394 1.370 . S
C2395 C2396 1.403 . S
C2396 C2395 1.403 . S
C2396 C2397 1.404 . S
C2396 C2399 1.539 . S
C2397 C2393 1.408 . S
C2397 C2396 1.404 . S
C2397 H2409 0.930 . S
C2398 C2394 1.524 . S
C2398 H2410 0.956 . S
C2398 H2411 0.961 . S
C2398 H2412 0.961 . S
C2399 C2396 1.539 . S
C2399 H2413 0.958 . S
C2399 H2414 0.961 . S
C2399 H2415 0.960 . S
H2400 C2384 0.931 . S
H2401 C2389 0.929 . S
H2402 C2390 0.960 . S
H2403 C2390 0.962 . S
H2404 C2390 0.960 . S
H2405 C2391 0.961 . S
H2406 C2391 0.961 . S
H2407 C2391 0.961 . S
H2408 C2392 0.931 . S
H2409 C2397 0.930 . S
H2410 C2398 0.956 . S
H2411 C2398 0.961 . S
H2412 C2398 0.961 . S
H2413 C2399 0.958 . S
H2414 C2399 0.961 . S
H2415 C2399 0.960 . S
C2416 C2417 1.391 . S
C2416 C2418 1.394 . S
C2416 H2432 0.931 . S
C2417 C2416 1.391 . S
C2417 C2421 1.376 . S
C2418 C2416 1.394 . S
C2418 C2419 1.369 . S
C2418 C2422 1.531 . S
C2419 C2418 1.369 . S
C2419 C2420 1.410 . S
C2419 C2427 1.503 . S
C2420 C2419 1.410 . S
C2420 C2421 1.392 . S
C2420 C2423 1.511 . S
C2421 C2417 1.376 . S
C2421 C2420 1.392 . S
C2421 H2433 0.929 . S
C2422 C2418 1.531 . S
C2422 H2434 0.960 . S
C2422 H2435 0.962 . S
C2422 H2436 0.960 . S
C2423 C2420 1.511 . S
C2423 H2437 0.961 . S
C2423 H2438 0.961 . S
C2423 H2439 0.961 . S
C2424 C2425 1.370 . S
C2424 C2426 1.363 . S
C2424 H2440 0.931 . S
C2425 C2424 1.370 . S
C2425 C2429 1.408 1_545 S
C2426 C2424 1.363 . S
C2426 C2427 1.370 1_545 S
C2426 C2430 1.524 . S
C2427 C2419 1.503 . S
C2427 C2426 1.370 1_565 S
C2427 C2428 1.403 . S
C2428 C2427 1.403 . S
C2428 C2429 1.404 . S
C2428 C2431 1.539 . S
C2429 C2425 1.408 1_565 S
C2429 C2428 1.404 . S
C2429 H2441 0.930 . S
C2430 C2426 1.524 . S
C2430 H2442 0.956 . S
C2430 H2443 0.961 . S
C2430 H2444 0.961 . S
C2431 C2428 1.539 . S
C2431 H2445 0.958 . S
C2431 H2446 0.961 . S
C2431 H2447 0.960 . S
H2432 C2416 0.931 . S
H2433 C2421 0.929 . S
H2434 C2422 0.960 . S
H2435 C2422 0.962 . S
H2436 C2422 0.960 . S
H2437 C2423 0.961 . S
H2438 C2423 0.961 . S
H2439 C2423 0.961 . S
H2440 C2424 0.931 . S
H2441 C2429 0.930 . S
H2442 C2430 0.956 . S
H2443 C2430 0.961 . S
H2444 C2430 0.961 . S
H2445 C2431 0.958 . S
H2446 C2431 0.961 . S
H2447 C2431 0.960 . S
C2448 C2449 1.391 . S
C2448 C2450 1.394 . S
C2448 H2464 0.931 . S
C2449 C2448 1.391 . S
C2449 C2453 1.376 . S
C2450 C2448 1.394 . S
C2450 C2451 1.369 . S
C2450 C2454 1.531 . S
C2451 C2450 1.369 . S
C2451 C2452 1.410 . S
C2451 C2459 1.503 . S
C2452 C2451 1.410 . S
C2452 C2453 1.392 . S
C2452 C2455 1.511 . S
C2453 C2449 1.376 . S
C2453 C2452 1.392 . S
C2453 H2465 0.929 . S
C2454 C2450 1.531 . S
C2454 H2466 0.960 . S
C2454 H2467 0.962 . S
C2454 H2468 0.960 . S
C2455 C2452 1.511 . S
C2455 H2469 0.961 . S
C2455 H2470 0.961 . S
C2455 H2471 0.961 . S
C2456 C2457 1.370 . S
C2456 C2458 1.363 . S
C2456 H2472 0.931 . S
C2457 C2456 1.370 . S
C2457 C2461 1.408 . S
C2458 C2456 1.363 . S
C2458 C2459 1.370 . S
C2458 C2462 1.524 . S
C2459 C2451 1.503 . S
C2459 C2458 1.370 . S
C2459 C2460 1.403 . S
C2460 C2459 1.403 . S
C2460 C2461 1.404 . S
C2460 C2463 1.539 . S
C2461 C2457 1.408 . S
C2461 C2460 1.404 . S
C2461 H2473 0.930 . S
C2462 C2458 1.524 . S
C2462 H2474 0.956 . S
C2462 H2475 0.961 . S
C2462 H2476 0.961 . S
C2463 C2460 1.539 . S
C2463 H2477 0.958 . S
C2463 H2478 0.961 . S
C2463 H2479 0.960 . S
H2464 C2448 0.931 . S
H2465 C2453 0.929 . S
H2466 C2454 0.960 . S
H2467 C2454 0.962 . S
H2468 C2454 0.960 . S
H2469 C2455 0.961 . S
H2470 C2455 0.961 . S
H2471 C2455 0.961 . S
H2472 C2456 0.931 . S
H2473 C2461 0.930 . S
H2474 C2462 0.956 . S
H2475 C2462 0.961 . S
H2476 C2462 0.961 . S
H2477 C2463 0.958 . S
H2478 C2463 0.961 . S
H2479 C2463 0.960 . S
C2480 C2481 1.391 . S
C2480 C2482 1.394 . S
C2480 H2496 0.931 . S
C2481 C2480 1.391 . S
C2481 C2485 1.376 . S
C2482 C2480 1.394 . S
C2482 C2483 1.369 . S
C2482 C2486 1.531 . S
C2483 C2482 1.369 . S
C2483 C2484 1.410 . S
C2483 C2491 1.503 . S
C2484 C2483 1.410 . S
C2484 C2485 1.392 . S
C2484 C2487 1.511 . S
C2485 C2481 1.376 . S
C2485 C2484 1.392 . S
C2485 H2497 0.929 . S
C2486 C2482 1.531 . S
C2486 H2498 0.960 . S
C2486 H2499 0.962 . S
C2486 H2500 0.960 . S
C2487 C2484 1.511 . S
C2487 H2501 0.961 . S
C2487 H2502 0.961 . S
C2487 H2503 0.961 . S
C2488 C2489 1.370 . S
C2488 C2490 1.363 . S
C2488 H2504 0.931 . S
C2489 C2488 1.370 . S
C2489 C2493 1.408 . S
C2490 C2488 1.363 . S
C2490 C2491 1.370 . S
C2490 C2494 1.524 . S
C2491 C2483 1.503 . S
C2491 C2490 1.370 . S
C2491 C2492 1.403 . S
C2492 C2491 1.403 . S
C2492 C2493 1.404 . S
C2492 C2495 1.539 . S
C2493 C2489 1.408 . S
C2493 C2492 1.404 . S
C2493 H2505 0.930 . S
C2494 C2490 1.524 . S
C2494 H2506 0.956 . S
C2494 H2507 0.961 . S
C2494 H2508 0.961 . S
C2495 C2492 1.539 . S
C2495 H2509 0.958 . S
C2495 H2510 0.961 . S
C2495 H2511 0.960 . S
H2496 C2480 0.931 . S
H2497 C2485 0.929 . S
H2498 C2486 0.960 . S
H2499 C2486 0.962 . S
H2500 C2486 0.960 . S
H2501 C2487 0.961 . S
H2502 C2487 0.961 . S
H2503 C2487 0.961 . S
H2504 C2488 0.931 . S
H2505 C2493 0.930 . S
H2506 C2494 0.956 . S
H2507 C2494 0.961 . S
H2508 C2494 0.961 . S
H2509 C2495 0.958 . S
H2510 C2495 0.961 . S
H2511 C2495 0.960 . S
C2512 C2513 1.391 . S
C2512 C2514 1.394 . S
C2512 H2528 0.931 . S
C2513 C2512 1.391 . S
C2513 C2517 1.376 . S
C2514 C2512 1.394 . S
C2514 C2515 1.369 . S
C2514 C2518 1.531 . S
C2515 C2514 1.369 . S
C2515 C2516 1.410 . S
C2515 C2523 1.503 . S
C2516 C2515 1.410 . S
C2516 C2517 1.392 . S
C2516 C2519 1.511 . S
C2517 C2513 1.376 . S
C2517 C2516 1.392 . S
C2517 H2529 0.929 . S
C2518 C2514 1.531 . S
C2518 H2530 0.960 . S
C2518 H2531 0.962 . S
C2518 H2532 0.960 . S
C2519 C2516 1.511 . S
C2519 H2533 0.961 . S
C2519 H2534 0.961 . S
C2519 H2535 0.961 . S
C2520 C2521 1.370 . S
C2520 C2522 1.363 . S
C2520 H2536 0.931 . S
C2521 C2520 1.370 . S
C2521 C2525 1.408 . S
C2522 C2520 1.363 . S
C2522 C2523 1.370 . S
C2522 C2526 1.524 . S
C2523 C2515 1.503 . S
C2523 C2522 1.370 . S
C2523 C2524 1.403 . S
C2524 C2523 1.403 . S
C2524 C2525 1.404 . S
C2524 C2527 1.539 . S
C2525 C2521 1.408 . S
C2525 C2524 1.404 . S
C2525 H2537 0.930 . S
C2526 C2522 1.524 . S
C2526 H2538 0.956 . S
C2526 H2539 0.961 . S
C2526 H2540 0.961 . S
C2527 C2524 1.539 . S
C2527 H2541 0.958 . S
C2527 H2542 0.961 . S
C2527 H2543 0.960 . S
H2528 C2512 0.931 . S
H2529 C2517 0.929 . S
H2530 C2518 0.960 . S
H2531 C2518 0.962 . S
H2532 C2518 0.960 . S
H2533 C2519 0.961 . S
H2534 C2519 0.961 . S
H2535 C2519 0.961 . S
H2536 C2520 0.931 . S
H2537 C2525 0.930 . S
H2538 C2526 0.956 . S
H2539 C2526 0.961 . S
H2540 C2526 0.961 . S
H2541 C2527 0.958 . S
H2542 C2527 0.961 . S
H2543 C2527 0.960 . S
C2544 C2545 1.391 . S
C2544 C2546 1.394 . S
C2544 H2560 0.931 . S
C2545 C2544 1.391 . S
C2545 C2549 1.376 . S
C2546 C2544 1.394 . S
C2546 C2547 1.369 . S
C2546 C2550 1.531 . S
C2547 C2546 1.369 . S
C2547 C2548 1.410 . S
C2547 C2555 1.503 . S
C2548 C2547 1.410 . S
C2548 C2549 1.392 . S
C2548 C2551 1.511 . S
C2549 C2545 1.376 . S
C2549 C2548 1.392 . S
C2549 H2561 0.929 . S
C2550 C2546 1.531 . S
C2550 H2562 0.960 . S
C2550 H2563 0.962 . S
C2550 H2564 0.960 . S
C2551 C2548 1.511 . S
C2551 H2565 0.961 . S
C2551 H2566 0.961 . S
C2551 H2567 0.961 . S
C2552 C2553 1.370 . S
C2552 C2554 1.363 . S
C2552 H2568 0.931 . S
C2553 C2552 1.370 . S
C2553 C2557 1.408 . S
C2554 C2552 1.363 . S
C2554 C2555 1.370 . S
C2554 C2558 1.524 . S
C2555 C2547 1.503 . S
C2555 C2554 1.370 . S
C2555 C2556 1.403 . S
C2556 C2555 1.403 . S
C2556 C2557 1.404 . S
C2556 C2559 1.539 . S
C2557 C2553 1.408 . S
C2557 C2556 1.404 . S
C2557 H2569 0.930 . S
C2558 C2554 1.524 . S
C2558 H2570 0.956 . S
C2558 H2571 0.961 . S
C2558 H2572 0.961 . S
C2559 C2556 1.539 . S
C2559 H2573 0.958 . S
C2559 H2574 0.961 . S
C2559 H2575 0.960 . S
H2560 C2544 0.931 . S
H2561 C2549 0.929 . S
H2562 C2550 0.960 . S
H2563 C2550 0.962 . S
H2564 C2550 0.960 . S
H2565 C2551 0.961 . S
H2566 C2551 0.961 . S
H2567 C2551 0.961 . S
H2568 C2552 0.931 . S
H2569 C2557 0.930 . S
H2570 C2558 0.956 . S
H2571 C2558 0.961 . S
H2572 C2558 0.961 . S
H2573 C2559 0.958 . S
H2574 C2559 0.961 . S
H2575 C2559 0.960 . S
C2576 C2577 1.391 . S
C2576 C2578 1.394 . S
C2576 H2592 0.931 . S
C2577 C2576 1.391 . S
C2577 C2581 1.376 . S
C2578 C2576 1.394 . S
C2578 C2579 1.369 . S
C2578 C2582 1.531 . S
C2579 C2578 1.369 . S
C2579 C2580 1.410 . S
C2579 C2587 1.503 . S
C2580 C2579 1.410 . S
C2580 C2581 1.392 . S
C2580 C2583 1.511 1_455 S
C2581 C2577 1.376 . S
C2581 C2580 1.392 . S
C2581 H2593 0.929 1_455 S
C2582 C2578 1.531 . S
C2582 H2594 0.960 . S
C2582 H2595 0.962 . S
C2582 H2596 0.960 . S
C2583 C2580 1.511 1_655 S
C2583 H2597 0.961 . S
C2583 H2598 0.961 . S
C2583 H2599 0.961 . S
C2584 C2585 1.370 1_554 S
C2584 C2586 1.363 1_554 S
C2584 H2600 0.931 . S
C2585 C2584 1.370 1_556 S
C2585 C2589 1.408 . S
C2586 C2584 1.363 1_556 S
C2586 C2587 1.370 . S
C2586 C2590 1.524 1_556 S
C2587 C2579 1.503 . S
C2587 C2586 1.370 . S
C2587 C2588 1.403 . S
C2588 C2587 1.403 . S
C2588 C2589 1.404 . S
C2588 C2591 1.539 . S
C2589 C2585 1.408 . S
C2589 C2588 1.404 . S
C2589 H2601 0.930 . S
C2590 C2586 1.524 1_554 S
C2590 H2602 0.956 . S
C2590 H2603 0.947 1_554 S
C2590 H2604 0.961 . S
C2591 C2588 1.539 . S
C2591 H2605 0.958 . S
C2591 H2606 0.961 . S
C2591 H2607 0.960 . S
H2592 C2576 0.931 . S
H2593 C2581 0.929 1_655 S
H2594 C2582 0.960 . S
H2595 C2582 0.962 . S
H2596 C2582 0.960 . S
H2597 C2583 0.961 . S
H2598 C2583 0.961 . S
H2599 C2583 0.961 . S
H2600 C2584 0.931 . S
H2601 C2589 0.930 . S
H2602 C2590 0.956 . S
H2603 C2590 0.947 1_556 S
H2604 C2590 0.961 . S
H2605 C2591 0.958 . S
H2606 C2591 0.961 . S
H2607 C2591 0.960 . S
C2608 C2609 1.391 . S
C2608 C2610 1.394 1_455 S
C2608 H2624 0.931 . S
C2609 C2608 1.391 . S
C2609 C2613 1.376 . S
C2610 C2608 1.394 1_655 S
C2610 C2611 1.369 . S
C2610 C2614 1.531 . S
C2611 C2610 1.369 . S
C2611 C2612 1.410 . S
C2611 C2619 1.503 . S
C2612 C2611 1.410 . S
C2612 C2613 1.392 1_655 S
C2612 C2615 1.511 . S
C2613 C2609 1.376 . S
C2613 C2612 1.392 1_455 S
C2613 H2625 0.929 . S
C2614 C2610 1.531 . S
C2614 H2626 0.960 . S
C2614 H2627 0.962 . S
C2614 H2628 0.960 . S
C2615 C2612 1.511 . S
C2615 H2629 0.961 . S
C2615 H2630 0.961 . S
C2615 H2631 0.961 . S
C2616 C2617 1.370 . S
C2616 C2618 1.363 . S
C2616 H2632 0.931 . S
C2617 C2616 1.370 . S
C2617 C2621 1.408 . S
C2618 C2616 1.363 . S
C2618 C2619 1.370 . S
C2618 C2622 1.524 . S
C2619 C2611 1.503 . S
C2619 C2618 1.370 . S
C2619 C2620 1.403 . S
C2620 C2619 1.403 . S
C2620 C2621 1.404 . S
C2620 C2623 1.539 . S
C2621 C2617 1.408 . S
C2621 C2620 1.404 . S
C2621 H2633 0.930 . S
C2622 C2618 1.524 . S
C2622 H2634 0.956 . S
C2622 H2635 0.961 . S
C2622 H2636 0.961 . S
C2623 C2620 1.539 . S
C2623 H2637 0.958 . S
C2623 H2638 0.961 . S
C2623 H2639 0.960 . S
H2624 C2608 0.931 . S
H2625 C2613 0.929 . S
H2626 C2614 0.960 . S
H2627 C2614 0.962 . S
H2628 C2614 0.960 . S
H2629 C2615 0.961 . S
H2630 C2615 0.961 . S
H2631 C2615 0.961 . S
H2632 C2616 0.931 . S
H2633 C2621 0.930 . S
H2634 C2622 0.956 . S
H2635 C2622 0.961 . S
H2636 C2622 0.961 . S
H2637 C2623 0.958 . S
H2638 C2623 0.961 . S
H2639 C2623 0.960 . S
C2640 C2641 1.391 . S
C2640 C2642 1.394 . S
C2640 H2656 0.931 . S
C2641 C2640 1.391 . S
C2641 C2645 1.376 . S
C2642 C2640 1.394 . S
C2642 C2643 1.369 . S
C2642 C2646 1.531 . S
C2643 C2642 1.369 . S
C2643 C2644 1.410 . S
C2643 C2651 1.503 . S
C2644 C2643 1.410 . S
C2644 C2645 1.392 . S
C2644 C2647 1.511 . S
C2645 C2641 1.376 . S
C2645 C2644 1.392 . S
C2645 H2657 0.929 . S
C2646 C2642 1.531 . S
C2646 H2658 0.960 . S
C2646 H2659 0.962 . S
C2646 H2660 0.960 . S
C2647 C2644 1.511 . S
C2647 H2661 0.961 . S
C2647 H2662 0.961 . S
C2647 H2663 0.961 . S
C2648 C2649 1.370 . S
C2648 C2650 1.363 . S
C2648 H2664 0.931 . S
C2649 C2648 1.370 . S
C2649 C2653 1.408 . S
C2650 C2648 1.363 . S
C2650 C2651 1.370 . S
C2650 C2654 1.524 . S
C2651 C2643 1.503 . S
C2651 C2650 1.370 . S
C2651 C2652 1.403 . S
C2652 C2651 1.403 . S
C2652 C2653 1.404 . S
C2652 C2655 1.539 . S
C2653 C2649 1.408 . S
C2653 C2652 1.404 . S
C2653 H2665 0.930 . S
C2654 C2650 1.524 . S
C2654 H2666 0.956 . S
C2654 H2667 0.961 . S
C2654 H2668 0.961 . S
C2655 C2652 1.539 . S
C2655 H2669 0.958 . S
C2655 H2670 0.961 . S
C2655 H2671 0.960 . S
H2656 C2640 0.931 . S
H2657 C2645 0.929 . S
H2658 C2646 0.960 . S
H2659 C2646 0.962 . S
H2660 C2646 0.960 . S
H2661 C2647 0.961 . S
H2662 C2647 0.961 . S
H2663 C2647 0.961 . S
H2664 C2648 0.931 . S
H2665 C2653 0.930 . S
H2666 C2654 0.956 . S
H2667 C2654 0.961 . S
H2668 C2654 0.961 . S
H2669 C2655 0.958 . S
H2670 C2655 0.961 . S
H2671 C2655 0.960 . S
C2672 C2673 1.391 . S
C2672 C2674 1.394 . S
C2672 H2688 0.931 . S
C2673 C2672 1.391 . S
C2673 C2677 1.376 . S
C2674 C2672 1.394 . S
C2674 C2675 1.369 . S
C2674 C2678 1.531 . S
C2675 C2674 1.369 . S
C2675 C2676 1.410 . S
C2675 C2683 1.503 . S
C2676 C2675 1.410 . S
C2676 C2677 1.392 . S
C2676 C2679 1.511 . S
C2677 C2673 1.376 . S
C2677 C2676 1.392 . S
C2677 H2689 0.929 . S
C2678 C2674 1.531 . S
C2678 H2690 0.960 . S
C2678 H2691 0.962 . S
C2678 H2692 0.960 . S
C2679 C2676 1.511 . S
C2679 H2693 0.961 . S
C2679 H2694 0.961 . S
C2679 H2695 0.961 . S
C2680 C2681 1.370 . S
C2680 C2682 1.363 . S
C2680 H2696 0.931 . S
C2681 C2680 1.370 . S
C2681 C2685 1.408 . S
C2682 C2680 1.363 . S
C2682 C2683 1.370 . S
C2682 C2686 1.524 . S
C2683 C2675 1.503 . S
C2683 C2682 1.370 . S
C2683 C2684 1.403 . S
C2684 C2683 1.403 . S
C2684 C2685 1.404 . S
C2684 C2687 1.539 . S
C2685 C2681 1.408 . S
C2685 C2684 1.404 . S
C2685 H2697 0.930 . S
C2686 C2682 1.524 . S
C2686 H2698 0.956 . S
C2686 H2699 0.961 . S
C2686 H2700 0.961 . S
C2687 C2684 1.539 . S
C2687 H2701 0.958 . S
C2687 H2702 0.961 . S
C2687 H2703 0.960 . S
H2688 C2672 0.931 . S
H2689 C2677 0.929 . S
H2690 C2678 0.960 . S
H2691 C2678 0.962 . S
H2692 C2678 0.960 . S
H2693 C2679 0.961 . S
H2694 C2679 0.961 . S
H2695 C2679 0.961 . S
H2696 C2680 0.931 . S
H2697 C2685 0.930 . S
H2698 C2686 0.956 . S
H2699 C2686 0.961 . S
H2700 C2686 0.961 . S
H2701 C2687 0.958 . S
H2702 C2687 0.961 . S
H2703 C2687 0.960 . S
C2704 C2705 1.391 . S
C2704 C2706 1.394 . S
C2704 H2720 0.931 . S
C2705 C2704 1.391 . S
C2705 C2709 1.376 . S
C2706 C2704 1.394 . S
C2706 C2707 1.369 . S
C2706 C2710 1.531 . S
C2707 C2706 1.369 . S
C2707 C2708 1.410 . S
C2707 C2715 1.503 . S
C2708 C2707 1.410 . S
C2708 C2709 1.392 . S
C2708 C2711 1.511 . S
C2709 C2705 1.376 . S
C2709 C2708 1.392 . S
C2709 H2721 0.929 . S
C2710 C2706 1.531 . S
C2710 H2722 0.960 . S
C2710 H2723 0.962 . S
C2710 H2724 0.960 . S
C2711 C2708 1.511 . S
C2711 H2725 0.961 . S
C2711 H2726 0.961 . S
C2711 H2727 0.961 . S
C2712 C2713 1.370 . S
C2712 C2714 1.363 . S
C2712 H2728 0.931 . S
C2713 C2712 1.370 . S
C2713 C2717 1.408 . S
C2714 C2712 1.363 . S
C2714 C2715 1.370 . S
C2714 C2718 1.524 . S
C2715 C2707 1.503 . S
C2715 C2714 1.370 . S
C2715 C2716 1.403 . S
C2716 C2715 1.403 . S
C2716 C2717 1.404 . S
C2716 C2719 1.539 . S
C2717 C2713 1.408 . S
C2717 C2716 1.404 . S
C2717 H2729 0.930 . S
C2718 C2714 1.524 . S
C2718 H2730 0.956 . S
C2718 H2731 0.961 . S
C2718 H2732 0.961 . S
C2719 C2716 1.539 . S
C2719 H2733 0.958 . S
C2719 H2734 0.961 . S
C2719 H2735 0.960 . S
H2720 C2704 0.931 . S
H2721 C2709 0.929 . S
H2722 C2710 0.960 . S
H2723 C2710 0.962 . S
H2724 C2710 0.960 . S
H2725 C2711 0.961 . S
H2726 C2711 0.961 . S
H2727 C2711 0.961 . S
H2728 C2712 0.931 . S
H2729 C2717 0.930 . S
H2730 C2718 0.956 . S
H2731 C2718 0.961 . S
H2732 C2718 0.961 . S
H2733 C2719 0.958 . S
H2734 C2719 0.961 . S
H2735 C2719 0.960 . S
C2736 C2737 1.391 . S
C2736 C2738 1.394 . S
C2736 H2752 0.931 . S
C2737 C2736 1.391 . S
C2737 C2741 1.376 . S
C2738 C2736 1.394 . S
C2738 C2739 1.369 . S
C2738 C2742 1.531 . S
C2739 C2738 1.369 . S
C2739 C2740 1.410 . S
C2739 C2747 1.503 . S
C2740 C2739 1.410 . S
C2740 C2741 1.392 . S
C2740 C2743 1.511 . S
C2741 C2737 1.376 . S
C2741 C2740 1.392 . S
C2741 H2753 0.929 . S
C2742 C2738 1.531 . S
C2742 H2754 0.960 . S
C2742 H2755 0.962 . S
C2742 H2756 0.960 . S
C2743 C2740 1.511 . S
C2743 H2757 0.961 . S
C2743 H2758 0.961 . S
C2743 H2759 0.961 . S
C2744 C2745 1.370 . S
C2744 C2746 1.363 . S
C2744 H2760 0.931 . S
C2745 C2744 1.370 . S
C2745 C2749 1.408 . S
C2746 C2744 1.363 . S
C2746 C2747 1.370 . S
C2746 C2750 1.524 . S
C2747 C2739 1.503 . S
C2747 C2746 1.370 . S
C2747 C2748 1.403 . S
C2748 C2747 1.403 . S
C2748 C2749 1.404 . S
C2748 C2751 1.539 . S
C2749 C2745 1.408 . S
C2749 C2748 1.404 . S
C2749 H2761 0.930 . S
C2750 C2746 1.524 . S
C2750 H2762 0.956 . S
C2750 H2763 0.961 . S
C2750 H2764 0.961 . S
C2751 C2748 1.539 . S
C2751 H2765 0.958 . S
C2751 H2766 0.961 . S
C2751 H2767 0.960 . S
H2752 C2736 0.931 . S
H2753 C2741 0.929 . S
H2754 C2742 0.960 . S
H2755 C2742 0.962 . S
H2756 C2742 0.960 . S
H2757 C2743 0.961 . S
H2758 C2743 0.961 . S
H2759 C2743 0.961 . S
H2760 C2744 0.931 . S
H2761 C2749 0.930 . S
H2762 C2750 0.956 . S
H2763 C2750 0.961 . S
H2764 C2750 0.961 . S
H2765 C2751 0.958 . S
H2766 C2751 0.961 . S
H2767 C2751 0.960 . S
C2768 C2769 1.391 . S
C2768 C2770 1.394 . S
C2768 H2784 0.931 . S
C2769 C2768 1.391 . S
C2769 C2773 1.376 . S
C2770 C2768 1.394 . S
C2770 C2771 1.369 . S
C2770 C2774 1.531 . S
C2771 C2770 1.369 . S
C2771 C2772 1.410 . S
C2771 C2779 1.503 . S
C2772 C2771 1.410 . S
C2772 C2773 1.392 . S
C2772 C2775 1.511 . S
C2773 C2769 1.376 . S
C2773 C2772 1.392 . S
C2773 H2785 0.929 . S
C2774 C2770 1.531 . S
C2774 H2786 0.960 . S
C2774 H2787 0.962 . S
C2774 H2788 0.960 . S
C2775 C2772 1.511 . S
C2775 H2789 0.961 . S
C2775 H2790 0.961 . S
C2775 H2791 0.961 . S
C2776 C2777 1.370 . S
C2776 C2778 1.363 . S
C2776 H2792 0.931 . S
C2777 C2776 1.370 . S
C2777 C2781 1.408 . S
C2778 C2776 1.363 . S
C2778 C2779 1.370 . S
C2778 C2782 1.524 . S
C2779 C2771 1.503 . S
C2779 C2778 1.370 . S
C2779 C2780 1.403 . S
C2780 C2779 1.403 . S
C2780 C2781 1.404 . S
C2780 C2783 1.539 . S
C2781 C2777 1.408 . S
C2781 C2780 1.404 . S
C2781 H2793 0.930 . S
C2782 C2778 1.524 . S
C2782 H2794 0.956 . S
C2782 H2795 0.961 . S
C2782 H2796 0.961 . S
C2783 C2780 1.539 . S
C2783 H2797 0.958 . S
C2783 H2798 0.961 . S
C2783 H2799 0.960 . S
H2784 C2768 0.931 . S
H2785 C2773 0.929 . S
H2786 C2774 0.960 . S
H2787 C2774 0.962 . S
H2788 C2774 0.960 . S
H2789 C2775 0.961 . S
H2790 C2775 0.961 . S
H2791 C2775 0.961 . S
H2792 C2776 0.931 . S
H2793 C2781 0.930 . S
H2794 C2782 0.956 . S
H2795 C2782 0.961 . S
H2796 C2782 0.961 . S
H2797 C2783 0.958 . S
H2798 C2783 0.961 . S
H2799 C2783 0.960 . S
C2800 C2801 1.391 . S
C2800 C2802 1.394 . S
C2800 H2816 0.931 . S
C2801 C2800 1.391 . S
C2801 C2805 1.376 . S
C2802 C2800 1.394 . S
C2802 C2803 1.369 . S
C2802 C2806 1.531 . S
C2803 C2802 1.369 . S
C2803 C2804 1.410 . S
C2803 C2811 1.503 . S
C2804 C2803 1.410 . S
C2804 C2805 1.392 . S
C2804 C2807 1.511 . S
C2805 C2801 1.376 . S
C2805 C2804 1.392 . S
C2805 H2817 0.929 . S
C2806 C2802 1.531 . S
C2806 H2818 0.960 . S
C2806 H2819 0.962 . S
C2806 H2820 0.960 . S
C2807 C2804 1.511 . S
C2807 H2821 0.961 . S
C2807 H2822 0.961 . S
C2807 H2823 0.961 . S
C2808 C2809 1.370 . S
C2808 C2810 1.363 . S
C2808 H2824 0.931 . S
C2809 C2808 1.370 . S
C2809 C2813 1.408 . S
C2810 C2808 1.363 . S
C2810 C2811 1.370 . S
C2810 C2814 1.524 . S
C2811 C2803 1.503 . S
C2811 C2810 1.370 . S
C2811 C2812 1.403 . S
C2812 C2811 1.403 . S
C2812 C2813 1.404 . S
C2812 C2815 1.539 . S
C2813 C2809 1.408 . S
C2813 C2812 1.404 . S
C2813 H2825 0.930 . S
C2814 C2810 1.524 . S
C2814 H2826 0.956 . S
C2814 H2827 0.961 . S
C2814 H2828 0.961 . S
C2815 C2812 1.539 . S
C2815 H2829 0.958 . S
C2815 H2830 0.961 . S
C2815 H2831 0.960 . S
H2816 C2800 0.931 . S
H2817 C2805 0.929 . S
H2818 C2806 0.960 . S
H2819 C2806 0.962 . S
H2820 C2806 0.960 . S
H2821 C2807 0.961 . S
H2822 C2807 0.961 . S
H2823 C2807 0.961 . S
H2824 C2808 0.931 . S
H2825 C2813 0.930 . S
H2826 C2814 0.956 . S
H2827 C2814 0.961 . S
H2828 C2814 0.961 . S
H2829 C2815 0.958 . S
H2830 C2815 0.961 . S
H2831 C2815 0.960 . S
C2832 C2833 1.391 . S
C2832 C2834 1.394 . S
C2832 H2848 0.931 . S
C2833 C2832 1.391 . S
C2833 C2837 1.376 . S
C2834 C2832 1.394 . S
C2834 C2835 1.369 . S
C2834 C2838 1.531 . S
C2835 C2834 1.369 . S
C2835 C2836 1.410 . S
C2835 C2843 1.503 . S
C2836 C2835 1.410 . S
C2836 C2837 1.392 . S
C2836 C2839 1.511 . S
C2837 C2833 1.376 . S
C2837 C2836 1.392 . S
C2837 H2849 0.929 . S
C2838 C2834 1.531 . S
C2838 H2850 0.960 . S
C2838 H2851 0.962 . S
C2838 H2852 0.960 . S
C2839 C2836 1.511 . S
C2839 H2853 0.961 . S
C2839 H2854 0.961 . S
C2839 H2855 0.961 . S
C2840 C2841 1.370 . S
C2840 C2842 1.363 . S
C2840 H2856 0.931 . S
C2841 C2840 1.370 . S
C2841 C2845 1.408 . S
C2842 C2840 1.363 . S
C2842 C2843 1.370 . S
C2842 C2846 1.524 . S
C2843 C2835 1.503 . S
C2843 C2842 1.370 . S
C2843 C2844 1.403 . S
C2844 C2843 1.403 . S
C2844 C2845 1.404 . S
C2844 C2847 1.539 . S
C2845 C2841 1.408 . S
C2845 C2844 1.404 . S
C2845 H2857 0.930 . S
C2846 C2842 1.524 . S
C2846 H2858 0.956 . S
C2846 H2859 0.961 . S
C2846 H2860 0.961 . S
C2847 C2844 1.539 . S
C2847 H2861 0.958 . S
C2847 H2862 0.961 . S
C2847 H2863 0.960 . S
H2848 C2832 0.931 . S
H2849 C2837 0.929 . S
H2850 C2838 0.960 . S
H2851 C2838 0.962 . S
H2852 C2838 0.960 . S
H2853 C2839 0.961 . S
H2854 C2839 0.961 . S
H2855 C2839 0.961 . S
H2856 C2840 0.931 . S
H2857 C2845 0.930 . S
H2858 C2846 0.956 . S
H2859 C2846 0.961 . S
H2860 C2846 0.961 . S
H2861 C2847 0.958 . S
H2862 C2847 0.961 . S
H2863 C2847 0.960 . S
C2864 C2865 1.391 . S
C2864 C2866 1.394 . S
C2864 H2880 0.931 . S
C2865 C2864 1.391 . S
C2865 C2869 1.376 . S
C2866 C2864 1.394 . S
C2866 C2867 1.369 . S
C2866 C2870 1.531 . S
C2867 C2866 1.369 . S
C2867 C2868 1.410 . S
C2867 C2875 1.503 . S
C2868 C2867 1.410 . S
C2868 C2869 1.392 . S
C2868 C2871 1.511 . S
C2869 C2865 1.376 . S
C2869 C2868 1.392 . S
C2869 H2881 0.929 . S
C2870 C2866 1.531 . S
C2870 H2882 0.960 . S
C2870 H2883 0.962 . S
C2870 H2884 0.960 . S
C2871 C2868 1.511 . S
C2871 H2885 0.961 . S
C2871 H2886 0.961 . S
C2871 H2887 0.961 . S
C2872 C2873 1.370 . S
C2872 C2874 1.363 . S
C2872 H2888 0.931 . S
C2873 C2872 1.370 . S
C2873 C2877 1.408 . S
C2874 C2872 1.363 . S
C2874 C2875 1.370 . S
C2874 C2878 1.524 . S
C2875 C2867 1.503 . S
C2875 C2874 1.370 . S
C2875 C2876 1.403 . S
C2876 C2875 1.403 . S
C2876 C2877 1.404 . S
C2876 C2879 1.539 . S
C2877 C2873 1.408 . S
C2877 C2876 1.404 . S
C2877 H2889 0.930 . S
C2878 C2874 1.524 . S
C2878 H2890 0.956 . S
C2878 H2891 0.961 . S
C2878 H2892 0.961 . S
C2879 C2876 1.539 . S
C2879 H2893 0.958 . S
C2879 H2894 0.961 . S
C2879 H2895 0.960 . S
H2880 C2864 0.931 . S
H2881 C2869 0.929 . S
H2882 C2870 0.960 . S
H2883 C2870 0.962 . S
H2884 C2870 0.960 . S
H2885 C2871 0.961 . S
H2886 C2871 0.961 . S
H2887 C2871 0.961 . S
H2888 C2872 0.931 . S
H2889 C2877 0.930 . S
H2890 C2878 0.956 . S
H2891 C2878 0.961 . S
H2892 C2878 0.961 . S
H2893 C2879 0.958 . S
H2894 C2879 0.961 . S
H2895 C2879 0.960 . S
C2896 C2897 1.391 . S
C2896 C2898 1.394 . S
C2896 H2912 0.931 . S
C2897 C2896 1.391 . S
C2897 C2901 1.376 . S
C2898 C2896 1.394 . S
C2898 C2899 1.369 . S
C2898 C2902 1.531 . S
C2899 C2898 1.369 . S
C2899 C2900 1.410 . S
C2899 C2907 1.503 . S
C2900 C2899 1.410 . S
C2900 C2901 1.392 . S
C2900 C2903 1.511 . S
C2901 C2897 1.376 . S
C2901 C2900 1.392 . S
C2901 H2913 0.929 . S
C2902 C2898 1.531 . S
C2902 H2914 0.960 . S
C2902 H2915 0.962 . S
C2902 H2916 0.960 . S
C2903 C2900 1.511 . S
C2903 H2917 0.961 . S
C2903 H2918 0.961 . S
C2903 H2919 0.961 . S
C2904 C2905 1.370 . S
C2904 C2906 1.363 . S
C2904 H2920 0.931 . S
C2905 C2904 1.370 . S
C2905 C2909 1.408 . S
C2906 C2904 1.363 . S
C2906 C2907 1.370 . S
C2906 C2910 1.524 . S
C2907 C2899 1.503 . S
C2907 C2906 1.370 . S
C2907 C2908 1.403 . S
C2908 C2907 1.403 . S
C2908 C2909 1.404 . S
C2908 C2911 1.539 . S
C2909 C2905 1.408 . S
C2909 C2908 1.404 . S
C2909 H2921 0.930 . S
C2910 C2906 1.524 . S
C2910 H2922 0.956 . S
C2910 H2923 0.961 . S
C2910 H2924 0.961 . S
C2911 C2908 1.539 . S
C2911 H2925 0.958 . S
C2911 H2926 0.961 . S
C2911 H2927 0.960 . S
H2912 C2896 0.931 . S
H2913 C2901 0.929 . S
H2914 C2902 0.960 . S
H2915 C2902 0.962 . S
H2916 C2902 0.960 . S
H2917 C2903 0.961 . S
H2918 C2903 0.961 . S
H2919 C2903 0.961 . S
H2920 C2904 0.931 . S
H2921 C2909 0.930 . S
H2922 C2910 0.956 . S
H2923 C2910 0.961 . S
H2924 C2910 0.961 . S
H2925 C2911 0.958 . S
H2926 C2911 0.961 . S
H2927 C2911 0.960 . S
C2928 C2929 1.391 . S
C2928 C2930 1.394 . S
C2928 H2944 0.931 . S
C2929 C2928 1.391 . S
C2929 C2933 1.376 . S
C2930 C2928 1.394 . S
C2930 C2931 1.369 . S
C2930 C2934 1.531 . S
C2931 C2930 1.369 . S
C2931 C2932 1.410 . S
C2931 C2939 1.503 . S
C2932 C2931 1.410 . S
C2932 C2933 1.392 . S
C2932 C2935 1.511 . S
C2933 C2929 1.376 . S
C2933 C2932 1.392 . S
C2933 H2945 0.929 . S
C2934 C2930 1.531 . S
C2934 H2946 0.960 . S
C2934 H2947 0.962 . S
C2934 H2948 0.960 . S
C2935 C2932 1.511 . S
C2935 H2949 0.961 . S
C2935 H2950 0.961 . S
C2935 H2951 0.961 . S
C2936 C2937 1.370 . S
C2936 C2938 1.363 . S
C2936 H2952 0.931 . S
C2937 C2936 1.370 . S
C2937 C2941 1.408 . S
C2938 C2936 1.363 . S
C2938 C2939 1.370 . S
C2938 C2942 1.524 . S
C2939 C2931 1.503 . S
C2939 C2938 1.370 . S
C2939 C2940 1.403 . S
C2940 C2939 1.403 . S
C2940 C2941 1.404 . S
C2940 C2943 1.539 . S
C2941 C2937 1.408 . S
C2941 C2940 1.404 . S
C2941 H2953 0.930 . S
C2942 C2938 1.524 . S
C2942 H2954 0.956 . S
C2942 H2955 0.961 . S
C2942 H2956 0.961 . S
C2943 C2940 1.539 . S
C2943 H2957 0.958 . S
C2943 H2958 0.961 . S
C2943 H2959 0.960 . S
H2944 C2928 0.931 . S
H2945 C2933 0.929 . S
H2946 C2934 0.960 . S
H2947 C2934 0.962 . S
H2948 C2934 0.960 . S
H2949 C2935 0.961 . S
H2950 C2935 0.961 . S
H2951 C2935 0.961 . S
H2952 C2936 0.931 . S
H2953 C2941 0.930 . S
H2954 C2942 0.956 . S
H2955 C2942 0.961 . S
H2956 C2942 0.961 . S
H2957 C2943 0.958 . S
H2958 C2943 0.961 . S
H2959 C2943 0.960 . S
C2960 C2961 1.391 . S
C2960 C2962 1.394 . S
C2960 H2976 0.931 . S
C2961 C2960 1.391 . S
C2961 C2965 1.376 . S
C2962 C2960 1.394 . S
C2962 C2963 1.369 . S
C2962 C2966 1.531 . S
C2963 C2962 1.369 . S
C2963 C2964 1.410 . S
C2963 C2971 1.503 . S
C2964 C2963 1.410 . S
C2964 C2965 1.392 . S
C2964 C2967 1.511 . S
C2965 C2961 1.376 . S
C2965 C2964 1.392 . S
C2965 H2977 0.929 . S
C2966 C2962 1.531 . S
C2966 H2978 0.960 . S
C2966 H2979 0.962 . S
C2966 H2980 0.960 . S
C2967 C2964 1.511 . S
C2967 H2981 0.961 . S
C2967 H2982 0.961 . S
C2967 H2983 0.961 . S
C2968 C2969 1.370 . S
C2968 C2970 1.363 . S
C2968 H2984 0.931 . S
C2969 C2968 1.370 . S
C2969 C2973 1.408 . S
C2970 C2968 1.363 . S
C2970 C2971 1.370 . S
C2970 C2974 1.524 . S
C2971 C2963 1.503 . S
C2971 C2970 1.370 . S
C2971 C2972 1.403 . S
C2972 C2971 1.403 . S
C2972 C2973 1.404 . S
C2972 C2975 1.539 . S
C2973 C2969 1.408 . S
C2973 C2972 1.404 . S
C2973 H2985 0.930 . S
C2974 C2970 1.524 . S
C2974 H2986 0.956 . S
C2974 H2987 0.961 . S
C2974 H2988 0.961 . S
C2975 C2972 1.539 . S
C2975 H2989 0.958 . S
C2975 H2990 0.961 . S
C2975 H2991 0.960 . S
H2976 C2960 0.931 . S
H2977 C2965 0.929 . S
H2978 C2966 0.960 . S
H2979 C2966 0.962 . S
H2980 C2966 0.960 . S
H2981 C2967 0.961 . S
H2982 C2967 0.961 . S
H2983 C2967 0.961 . S
H2984 C2968 0.931 . S
H2985 C2973 0.930 . S
H2986 C2974 0.956 . S
H2987 C2974 0.961 . S
H2988 C2974 0.961 . S
H2989 C2975 0.958 . S
H2990 C2975 0.961 . S
H2991 C2975 0.960 . S
C2992 C2993 1.391 . S
C2992 C2994 1.394 . S
C2992 H3008 0.931 . S
C2993 C2992 1.391 . S
C2993 C2997 1.376 . S
C2994 C2992 1.394 . S
C2994 C2995 1.369 . S
C2994 C2998 1.531 . S
C2995 C2994 1.369 . S
C2995 C2996 1.410 . S
C2995 C3003 1.503 . S
C2996 C2995 1.410 . S
C2996 C2997 1.392 . S
C2996 C2999 1.511 . S
C2997 C2993 1.376 . S
C2997 C2996 1.392 . S
C2997 H3009 0.929 . S
C2998 C2994 1.531 . S
C2998 H3010 0.960 . S
C2998 H3011 0.962 . S
C2998 H3012 0.960 . S
C2999 C2996 1.511 . S
C2999 H3013 0.961 . S
C2999 H3014 0.961 . S
C2999 H3015 0.961 . S
C3000 C3001 1.370 . S
C3000 C3002 1.363 . S
C3000 H3016 0.931 . S
C3001 C3000 1.370 . S
C3001 C3005 1.408 . S
C3002 C3000 1.363 . S
C3002 C3003 1.370 . S
C3002 C3006 1.524 . S
C3003 C2995 1.503 . S
C3003 C3002 1.370 . S
C3003 C3004 1.403 . S
C3004 C3003 1.403 . S
C3004 C3005 1.404 . S
C3004 C3007 1.539 . S
C3005 C3001 1.408 . S
C3005 C3004 1.404 . S
C3005 H3017 0.930 . S
C3006 C3002 1.524 . S
C3006 H3018 0.956 . S
C3006 H3019 0.961 . S
C3006 H3020 0.961 . S
C3007 C3004 1.539 . S
C3007 H3021 0.958 . S
C3007 H3022 0.961 . S
C3007 H3023 0.960 . S
H3008 C2992 0.931 . S
H3009 C2997 0.929 . S
H3010 C2998 0.960 . S
H3011 C2998 0.962 . S
H3012 C2998 0.960 . S
H3013 C2999 0.961 . S
H3014 C2999 0.961 . S
H3015 C2999 0.961 . S
H3016 C3000 0.931 . S
H3017 C3005 0.930 . S
H3018 C3006 0.956 . S
H3019 C3006 0.961 . S
H3020 C3006 0.961 . S
H3021 C3007 0.958 . S
H3022 C3007 0.961 . S
H3023 C3007 0.960 . S
C3024 C3025 1.391 . S
C3024 C3026 1.394 . S
C3024 H3040 0.931 . S
C3025 C3024 1.391 . S
C3025 C3029 1.376 . S
C3026 C3024 1.394 . S
C3026 C3027 1.369 . S
C3026 C3030 1.531 . S
C3027 C3026 1.369 . S
C3027 C3028 1.410 . S
C3027 C3035 1.503 . S
C3028 C3027 1.410 . S
C3028 C3029 1.392 . S
C3028 C3031 1.511 . S
C3029 C3025 1.376 . S
C3029 C3028 1.392 . S
C3029 H3041 0.929 . S
C3030 C3026 1.531 . S
C3030 H3042 0.960 . S
C3030 H3043 0.962 . S
C3030 H3044 0.960 . S
C3031 C3028 1.511 . S
C3031 H3045 0.961 . S
C3031 H3046 0.961 . S
C3031 H3047 0.961 . S
C3032 C3033 1.370 . S
C3032 C3034 1.363 . S
C3032 H3048 0.931 . S
C3033 C3032 1.370 . S
C3033 C3037 1.408 . S
C3034 C3032 1.363 . S
C3034 C3035 1.370 . S
C3034 C3038 1.524 . S
C3035 C3027 1.503 . S
C3035 C3034 1.370 . S
C3035 C3036 1.403 . S
C3036 C3035 1.403 . S
C3036 C3037 1.404 . S
C3036 C3039 1.539 . S
C3037 C3033 1.408 . S
C3037 C3036 1.404 . S
C3037 H3049 0.930 . S
C3038 C3034 1.524 . S
C3038 H3050 0.956 . S
C3038 H3051 0.961 . S
C3038 H3052 0.961 . S
C3039 C3036 1.539 . S
C3039 H3053 0.958 . S
C3039 H3054 0.961 . S
C3039 H3055 0.960 . S
H3040 C3024 0.931 . S
H3041 C3029 0.929 . S
H3042 C3030 0.960 . S
H3043 C3030 0.962 . S
H3044 C3030 0.960 . S
H3045 C3031 0.961 . S
H3046 C3031 0.961 . S
H3047 C3031 0.961 . S
H3048 C3032 0.931 . S
H3049 C3037 0.930 . S
H3050 C3038 0.956 . S
H3051 C3038 0.961 . S
H3052 C3038 0.961 . S
H3053 C3039 0.958 . S
H3054 C3039 0.961 . S
H3055 C3039 0.960 . S
C3056 C3057 1.391 . S
C3056 C3058 1.394 . S
C3056 H3072 0.931 . S
C3057 C3056 1.391 . S
C3057 C3061 1.376 . S
C3058 C3056 1.394 . S
C3058 C3059 1.369 . S
C3058 C3062 1.531 . S
C3059 C3058 1.369 . S
C3059 C3060 1.410 . S
C3059 C3067 1.503 . S
C3060 C3059 1.410 . S
C3060 C3061 1.392 . S
C3060 C3063 1.511 . S
C3061 C3057 1.376 . S
C3061 C3060 1.392 . S
C3061 H3073 0.929 . S
C3062 C3058 1.531 . S
C3062 H3074 0.960 . S
C3062 H3075 0.962 . S
C3062 H3076 0.960 . S
C3063 C3060 1.511 . S
C3063 H3077 0.961 . S
C3063 H3078 0.961 . S
C3063 H3079 0.961 . S
C3064 C3065 1.370 . S
C3064 C3066 1.363 . S
C3064 H3080 0.931 . S
C3065 C3064 1.370 . S
C3065 C3069 1.408 . S
C3066 C3064 1.363 . S
C3066 C3067 1.370 . S
C3066 C3070 1.524 . S
C3067 C3059 1.503 . S
C3067 C3066 1.370 . S
C3067 C3068 1.403 . S
C3068 C3067 1.403 . S
C3068 C3069 1.404 . S
C3068 C3071 1.539 . S
C3069 C3065 1.408 . S
C3069 C3068 1.404 . S
C3069 H3081 0.930 . S
C3070 C3066 1.524 . S
C3070 H3082 0.956 . S
C3070 H3083 0.961 . S
C3070 H3084 0.961 . S
C3071 C3068 1.539 . S
C3071 H3085 0.958 . S
C3071 H3086 0.961 . S
C3071 H3087 0.960 . S
H3072 C3056 0.931 . S
H3073 C3061 0.929 . S
H3074 C3062 0.960 . S
H3075 C3062 0.962 . S
H3076 C3062 0.960 . S
H3077 C3063 0.961 . S
H3078 C3063 0.961 . S
H3079 C3063 0.961 . S
H3080 C3064 0.931 . S
H3081 C3069 0.930 . S
H3082 C3070 0.956 . S
H3083 C3070 0.961 . S
H3084 C3070 0.961 . S
H3085 C3071 0.958 . S
H3086 C3071 0.961 . S
H3087 C3071 0.960 . S
C3088 C3089 1.391 . S
C3088 C3090 1.394 . S
C3088 H3104 0.931 . S
C3089 C3088 1.391 . S
C3089 C3093 1.376 . S
C3090 C3088 1.394 . S
C3090 C3091 1.369 . S
C3090 C3094 1.531 . S
C3091 C3090 1.369 . S
C3091 C3092 1.410 . S
C3091 C3099 1.503 . S
C3092 C3091 1.410 . S
C3092 C3093 1.392 . S
C3092 C3095 1.511 . S
C3093 C3089 1.376 . S
C3093 C3092 1.392 . S
C3093 H3105 0.929 . S
C3094 C3090 1.531 . S
C3094 H3106 0.960 . S
C3094 H3107 0.962 . S
C3094 H3108 0.960 . S
C3095 C3092 1.511 . S
C3095 H3109 0.961 . S
C3095 H3110 0.961 . S
C3095 H3111 0.961 . S
C3096 C3097 1.370 . S
C3096 C3098 1.363 . S
C3096 H3112 0.931 . S
C3097 C3096 1.370 . S
C3097 C3101 1.408 1_565 S
C3098 C3096 1.363 . S
C3098 C3099 1.370 1_565 S
C3098 C3102 1.524 . S
C3099 C3091 1.503 . S
C3099 C3098 1.370 1_545 S
C3099 C3100 1.403 . S
C3100 C3099 1.403 . S
C3100 C3101 1.404 . S
C3100 C3103 1.539 . S
C3101 C3097 1.408 1_545 S
C3101 C3100 1.404 . S
C3101 H3113 0.930 . S
C3102 C3098 1.524 . S
C3102 H3114 0.956 . S
C3102 H3115 0.985 . S
C3102 H3116 0.961 . S
C3103 C3100 1.539 . S
C3103 H3117 0.958 . S
C3103 H3118 0.961 . S
C3103 H3119 0.960 . S
H3104 C3088 0.931 . S
H3105 C3093 0.929 . S
H3106 C3094 0.960 . S
H3107 C3094 0.962 . S
H3108 C3094 0.960 . S
H3109 C3095 0.961 . S
H3110 C3095 0.961 . S
H3111 C3095 0.961 . S
H3112 C3096 0.931 . S
H3113 C3101 0.930 . S
H3114 C3102 0.956 . S
H3115 C3102 0.985 . S
H3116 C3102 0.961 . S
H3117 C3103 0.958 . S
H3118 C3103 0.961 . S
H3119 C3103 0.960 . S
C3120 C3121 1.391 1_545 S
C3120 C3122 1.394 . S
C3120 H3136 0.931 . S
C3121 C3120 1.391 1_565 S
C3121 C3125 1.376 . S
C3122 C3120 1.394 . S
C3122 C3123 1.369 . S
C3122 C3126 1.531 . S
C3123 C3122 1.369 . S
C3123 C3124 1.410 1_545 S
C3123 C3131 1.503 . S
C3124 C3123 1.410 1_565 S
C3124 C3125 1.392 . S
C3124 C3127 1.511 . S
C3125 C3121 1.376 . S
C3125 C3124 1.392 . S
C3125 H3137 0.929 . S
C3126 C3122 1.531 . S
C3126 H3138 0.960 . S
C3126 H3139 0.962 . S
C3126 H3140 0.960 . S
C3127 C3124 1.511 . S
C3127 H3141 0.961 . S
C3127 H3142 0.961 . S
C3127 H3143 0.961 . S
C3128 C3129 1.370 . S
C3128 C3130 1.363 . S
C3128 H3144 0.931 . S
C3129 C3128 1.370 . S
C3129 C3133 1.408 . S
C3130 C3128 1.363 . S
C3130 C3131 1.370 . S
C3130 C3134 1.524 . S
C3131 C3123 1.503 . S
C3131 C3130 1.370 . S
C3131 C3132 1.403 . S
C3132 C3131 1.403 . S
C3132 C3133 1.404 . S
C3132 C3135 1.539 . S
C3133 C3129 1.408 . S
C3133 C3132 1.404 . S
C3133 H3145 0.930 . S
C3134 C3130 1.524 . S
C3134 H3146 0.956 . S
C3134 H3147 0.961 1_545 S
C3134 H3148 0.961 1_554 S
C3135 C3132 1.539 . S
C3135 H3149 0.958 . S
C3135 H3150 0.961 . S
C3135 H3151 0.960 . S
H3136 C3120 0.931 . S
H3137 C3125 0.929 . S
H3138 C3126 0.960 . S
H3139 C3126 0.962 . S
H3140 C3126 0.960 . S
H3141 C3127 0.961 . S
H3142 C3127 0.961 . S
H3143 C3127 0.961 . S
H3144 C3128 0.931 . S
H3145 C3133 0.930 . S
H3146 C3134 0.956 . S
H3147 C3134 0.961 1_565 S
H3148 C3134 0.961 1_556 S
H3149 C3135 0.958 . S
H3150 C3135 0.961 . S
H3151 C3135 0.960 . S
C3152 C3153 1.391 . S
C3152 C3154 1.394 . S
C3152 H3168 0.931 . S
C3153 C3152 1.391 . S
C3153 C3157 1.376 . S
C3154 C3152 1.394 . S
C3154 C3155 1.369 . S
C3154 C3158 1.531 . S
C3155 C3154 1.369 . S
C3155 C3156 1.410 . S
C3155 C3163 1.503 . S
C3156 C3155 1.410 . S
C3156 C3157 1.392 . S
C3156 C3159 1.511 . S
C3157 C3153 1.376 . S
C3157 C3156 1.392 . S
C3157 H3169 0.929 . S
C3158 C3154 1.531 . S
C3158 H3170 0.960 . S
C3158 H3171 0.962 . S
C3158 H3172 0.960 . S
C3159 C3156 1.511 . S
C3159 H3173 0.961 . S
C3159 H3174 0.961 . S
C3159 H3175 0.961 . S
C3160 C3161 1.370 . S
C3160 C3162 1.363 . S
C3160 H3176 0.931 . S
C3161 C3160 1.370 . S
C3161 C3165 1.408 . S
C3162 C3160 1.363 . S
C3162 C3163 1.370 . S
C3162 C3166 1.524 . S
C3163 C3155 1.503 . S
C3163 C3162 1.370 . S
C3163 C3164 1.403 . S
C3164 C3163 1.403 . S
C3164 C3165 1.404 . S
C3164 C3167 1.539 . S
C3165 C3161 1.408 . S
C3165 C3164 1.404 . S
C3165 H3177 0.930 . S
C3166 C3162 1.524 . S
C3166 H3178 0.956 . S
C3166 H3179 0.961 . S
C3166 H3180 0.961 . S
C3167 C3164 1.539 . S
C3167 H3181 0.958 . S
C3167 H3182 0.961 . S
C3167 H3183 0.960 . S
H3168 C3152 0.931 . S
H3169 C3157 0.929 . S
H3170 C3158 0.960 . S
H3171 C3158 0.962 . S
H3172 C3158 0.960 . S
H3173 C3159 0.961 . S
H3174 C3159 0.961 . S
H3175 C3159 0.961 . S
H3176 C3160 0.931 . S
H3177 C3165 0.930 . S
H3178 C3166 0.956 . S
H3179 C3166 0.961 . S
H3180 C3166 0.961 . S
H3181 C3167 0.958 . S
H3182 C3167 0.961 . S
H3183 C3167 0.960 . S
C3184 C3185 1.391 . S
C3184 C3186 1.394 . S
C3184 H3200 0.931 . S
C3185 C3184 1.391 . S
C3185 C3189 1.376 . S
C3186 C3184 1.394 . S
C3186 C3187 1.369 . S
C3186 C3190 1.531 . S
C3187 C3186 1.369 . S
C3187 C3188 1.410 . S
C3187 C3195 1.503 . S
C3188 C3187 1.410 . S
C3188 C3189 1.392 . S
C3188 C3191 1.511 . S
C3189 C3185 1.376 . S
C3189 C3188 1.392 . S
C3189 H3201 0.929 . S
C3190 C3186 1.531 . S
C3190 H3202 0.960 . S
C3190 H3203 0.962 . S
C3190 H3204 0.960 1_554 S
C3191 C3188 1.511 . S
C3191 H3205 0.961 . S
C3191 H3206 0.961 . S
C3191 H3207 0.961 . S
C3192 C3193 1.370 . S
C3192 C3194 1.363 . S
C3192 H3208 0.931 . S
C3193 C3192 1.370 . S
C3193 C3197 1.408 . S
C3194 C3192 1.363 . S
C3194 C3195 1.370 . S
C3194 C3198 1.524 . S
C3195 C3187 1.503 . S
C3195 C3194 1.370 . S
C3195 C3196 1.403 . S
C3196 C3195 1.403 . S
C3196 C3197 1.404 . S
C3196 C3199 1.539 . S
C3197 C3193 1.408 . S
C3197 C3196 1.404 . S
C3197 H3209 0.930 . S
C3198 C3194 1.524 . S
C3198 H3210 0.956 . S
C3198 H3211 0.961 . S
C3198 H3212 0.961 . S
C3199 C3196 1.539 . S
C3199 H3213 0.958 1_554 S
C3199 H3214 0.961 . S
C3199 H3215 0.960 . S
H3200 C3184 0.931 . S
H3201 C3189 0.929 . S
H3202 C3190 0.960 . S
H3203 C3190 0.962 . S
H3204 C3190 0.960 1_556 S
H3205 C3191 0.961 . S
H3206 C3191 0.961 . S
H3207 C3191 0.961 . S
H3208 C3192 0.931 . S
H3209 C3197 0.930 . S
H3210 C3198 0.956 . S
H3211 C3198 0.961 . S
H3212 C3198 0.961 . S
H3213 C3199 0.958 1_556 S
H3214 C3199 0.961 . S
H3215 C3199 0.960 . S
C3216 C3217 1.391 . S
C3216 C3218 1.394 . S
C3216 H3232 0.931 . S
C3217 C3216 1.391 . S
C3217 C3221 1.376 . S
C3218 C3216 1.394 . S
C3218 C3219 1.369 . S
C3218 C3222 1.531 . S
C3219 C3218 1.369 . S
C3219 C3220 1.410 . S
C3219 C3227 1.503 . S
C3220 C3219 1.410 . S
C3220 C3221 1.392 . S
C3220 C3223 1.511 . S
C3221 C3217 1.376 . S
C3221 C3220 1.392 . S
C3221 H3233 0.929 . S
C3222 C3218 1.531 . S
C3222 H3234 0.960 . S
C3222 H3235 0.962 . S
C3222 H3236 0.960 . S
C3223 C3220 1.511 . S
C3223 H3237 0.961 . S
C3223 H3238 0.961 . S
C3223 H3239 0.961 . S
C3224 C3225 1.370 . S
C3224 C3226 1.363 . S
C3224 H3240 0.931 . S
C3225 C3224 1.370 . S
C3225 C3229 1.408 . S
C3226 C3224 1.363 . S
C3226 C3227 1.370 . S
C3226 C3230 1.524 . S
C3227 C3219 1.503 . S
C3227 C3226 1.370 . S
C3227 C3228 1.403 . S
C3228 C3227 1.403 . S
C3228 C3229 1.404 . S
C3228 C3231 1.539 . S
C3229 C3225 1.408 . S
C3229 C3228 1.404 . S
C3229 H3241 0.930 . S
C3230 C3226 1.524 . S
C3230 H3242 0.956 . S
C3230 H3243 0.961 . S
C3230 H3244 0.961 . S
C3231 C3228 1.539 . S
C3231 H3245 0.958 . S
C3231 H3246 0.961 . S
C3231 H3247 0.960 . S
H3232 C3216 0.931 . S
H3233 C3221 0.929 . S
H3234 C3222 0.960 . S
H3235 C3222 0.962 . S
H3236 C3222 0.960 . S
H3237 C3223 0.961 . S
H3238 C3223 0.961 . S
H3239 C3223 0.961 . S
H3240 C3224 0.931 . S
H3241 C3229 0.930 . S
H3242 C3230 0.956 . S
H3243 C3230 0.961 . S
H3244 C3230 0.961 . S
H3245 C3231 0.958 . S
H3246 C3231 0.961 . S
H3247 C3231 0.960 . S
C3248 C3249 1.391 . S
C3248 C3250 1.394 . S
C3248 H3264 0.931 . S
C3249 C3248 1.391 . S
C3249 C3253 1.376 . S
C3250 C3248 1.394 . S
C3250 C3251 1.369 . S
C3250 C3254 1.531 . S
C3251 C3250 1.369 . S
C3251 C3252 1.410 . S
C3251 C3259 1.503 . S
C3252 C3251 1.410 . S
C3252 C3253 1.392 . S
C3252 C3255 1.511 . S
C3253 C3249 1.376 . S
C3253 C3252 1.392 . S
C3253 H3265 0.929 . S
C3254 C3250 1.531 . S
C3254 H3266 0.960 . S
C3254 H3267 0.962 . S
C3254 H3268 0.960 . S
C3255 C3252 1.511 . S
C3255 H3269 0.961 . S
C3255 H3270 0.961 . S
C3255 H3271 0.961 . S
C3256 C3257 1.370 1_545 S
C3256 C3258 1.363 . S
C3256 H3272 0.931 1_545 S
C3257 C3256 1.370 1_565 S
C3257 C3261 1.408 1_565 S
C3258 C3256 1.363 . S
C3258 C3259 1.370 . S
C3258 C3262 1.524 . S
C3259 C3251 1.503 . S
C3259 C3258 1.370 . S
C3259 C3260 1.403 . S
C3260 C3259 1.403 . S
C3260 C3261 1.404 . S
C3260 C3263 1.539 . S
C3261 C3257 1.408 1_545 S
C3261 C3260 1.404 . S
C3261 H3273 0.930 . S
C3262 C3258 1.524 . S
C3262 H3274 0.956 . S
C3262 H3275 0.961 . S
C3262 H3276 0.961 . S
C3263 C3260 1.539 . S
C3263 H3277 0.958 . S
C3263 H3278 0.961 . S
C3263 H3279 0.960 . S
H3264 C3248 0.931 . S
H3265 C3253 0.929 . S
H3266 C3254 0.960 . S
H3267 C3254 0.962 . S
H3268 C3254 0.960 . S
H3269 C3255 0.961 . S
H3270 C3255 0.961 . S
H3271 C3255 0.961 . S
H3272 C3256 0.931 1_565 S
H3273 C3261 0.930 . S
H3274 C3262 0.956 . S
H3275 C3262 0.961 . S
H3276 C3262 0.961 . S
H3277 C3263 0.958 . S
H3278 C3263 0.961 . S
H3279 C3263 0.960 . S
C3280 C3281 1.391 . S
C3280 C3282 1.394 . S
C3280 H3296 0.931 . S
C3281 C3280 1.391 . S
C3281 C3285 1.376 . S
C3282 C3280 1.394 . S
C3282 C3283 1.369 . S
C3282 C3286 1.531 . S
C3283 C3282 1.369 . S
C3283 C3284 1.410 . S
C3283 C3291 1.503 . S
C3284 C3283 1.410 . S
C3284 C3285 1.392 . S
C3284 C3287 1.511 . S
C3285 C3281 1.376 . S
C3285 C3284 1.392 . S
C3285 H3297 0.929 . S
C3286 C3282 1.531 . S
C3286 H3298 0.960 . S
C3286 H3299 0.962 . S
C3286 H3300 0.960 . S
C3287 C3284 1.511 . S
C3287 H3301 0.961 . S
C3287 H3302 0.961 . S
C3287 H3303 0.961 . S
C3288 C3289 1.370 . S
C3288 C3290 1.363 . S
C3288 H3304 0.931 . S
C3289 C3288 1.370 . S
C3289 C3293 1.408 . S
C3290 C3288 1.363 . S
C3290 C3291 1.370 . S
C3290 C3294 1.524 . S
C3291 C3283 1.503 . S
C3291 C3290 1.370 . S
C3291 C3292 1.403 . S
C3292 C3291 1.403 . S
C3292 C3293 1.404 . S
C3292 C3295 1.539 . S
C3293 C3289 1.408 . S
C3293 C3292 1.404 . S
C3293 H3305 0.930 . S
C3294 C3290 1.524 . S
C3294 H3306 0.956 . S
C3294 H3307 0.961 . S
C3294 H3308 0.961 . S
C3295 C3292 1.539 . S
C3295 H3309 0.958 . S
C3295 H3310 0.961 . S
C3295 H3311 0.960 . S
H3296 C3280 0.931 . S
H3297 C3285 0.929 . S
H3298 C3286 0.960 . S
H3299 C3286 0.962 . S
H3300 C3286 0.960 . S
H3301 C3287 0.961 . S
H3302 C3287 0.961 . S
H3303 C3287 0.961 . S
H3304 C3288 0.931 . S
H3305 C3293 0.930 . S
H3306 C3294 0.956 . S
H3307 C3294 0.961 . S
H3308 C3294 0.961 . S
H3309 C3295 0.958 . S
H3310 C3295 0.961 . S
H3311 C3295 0.960 . S
C3312 C3313 1.391 . S
C3312 C3314 1.394 . S
C3312 H3328 0.931 . S
C3313 C3312 1.391 . S
C3313 C3317 1.376 . S
C3314 C3312 1.394 . S
C3314 C3315 1.369 . S
C3314 C3318 1.531 . S
C3315 C3314 1.369 . S
C3315 C3316 1.410 . S
C3315 C3323 1.503 . S
C3316 C3315 1.410 . S
C3316 C3317 1.392 . S
C3316 C3319 1.511 . S
C3317 C3313 1.376 . S
C3317 C3316 1.392 . S
C3317 H3329 0.929 . S
C3318 C3314 1.531 . S
C3318 H3330 0.960 . S
C3318 H3331 0.962 . S
C3318 H3332 0.960 . S
C3319 C3316 1.511 . S
C3319 H3333 0.961 . S
C3319 H3334 0.961 . S
C3319 H3335 0.961 . S
C3320 C3321 1.370 . S
C3320 C3322 1.363 . S
C3320 H3336 0.931 . S
C3321 C3320 1.370 . S
C3321 C3325 1.408 . S
C3322 C3320 1.363 . S
C3322 C3323 1.370 . S
C3322 C3326 1.524 . S
C3323 C3315 1.503 . S
C3323 C3322 1.370 . S
C3323 C3324 1.403 . S
C3324 C3323 1.403 . S
C3324 C3325 1.404 . S
C3324 C3327 1.539 . S
C3325 C3321 1.408 . S
C3325 C3324 1.404 . S
C3325 H3337 0.930 . S
C3326 C3322 1.524 . S
C3326 H3338 0.956 . S
C3326 H3339 0.961 . S
C3326 H3340 0.961 . S
C3327 C3324 1.539 . S
C3327 H3341 0.958 . S
C3327 H3342 0.961 . S
C3327 H3343 0.960 . S
H3328 C3312 0.931 . S
H3329 C3317 0.929 . S
H3330 C3318 0.960 . S
H3331 C3318 0.962 . S
H3332 C3318 0.960 . S
H3333 C3319 0.961 . S
H3334 C3319 0.961 . S
H3335 C3319 0.961 . S
H3336 C3320 0.931 . S
H3337 C3325 0.930 . S
H3338 C3326 0.956 . S
H3339 C3326 0.961 . S
H3340 C3326 0.961 . S
H3341 C3327 0.958 . S
H3342 C3327 0.961 . S
H3343 C3327 0.960 . S
C3344 C3345 1.391 . S
C3344 C3346 1.394 . S
C3344 H3360 0.931 . S
C3345 C3344 1.391 . S
C3345 C3349 1.376 . S
C3346 C3344 1.394 . S
C3346 C3347 1.369 . S
C3346 C3350 1.531 . S
C3347 C3346 1.369 . S
C3347 C3348 1.410 . S
C3347 C3355 1.503 . S
C3348 C3347 1.410 . S
C3348 C3349 1.392 . S
C3348 C3351 1.511 . S
C3349 C3345 1.376 . S
C3349 C3348 1.392 . S
C3349 H3361 0.929 . S
C3350 C3346 1.531 . S
C3350 H3362 0.960 . S
C3350 H3363 0.962 . S
C3350 H3364 0.960 . S
C3351 C3348 1.511 . S
C3351 H3365 0.961 . S
C3351 H3366 0.961 . S
C3351 H3367 0.961 . S
C3352 C3353 1.370 . S
C3352 C3354 1.363 . S
C3352 H3368 0.931 . S
C3353 C3352 1.370 . S
C3353 C3357 1.408 . S
C3354 C3352 1.363 . S
C3354 C3355 1.370 . S
C3354 C3358 1.524 . S
C3355 C3347 1.503 . S
C3355 C3354 1.370 . S
C3355 C3356 1.403 . S
C3356 C3355 1.403 . S
C3356 C3357 1.404 . S
C3356 C3359 1.539 . S
C3357 C3353 1.408 . S
C3357 C3356 1.404 . S
C3357 H3369 0.930 . S
C3358 C3354 1.524 . S
C3358 H3370 0.956 . S
C3358 H3371 0.961 . S
C3358 H3372 0.961 . S
C3359 C3356 1.539 . S
C3359 H3373 0.958 . S
C3359 H3374 0.961 . S
C3359 H3375 0.960 . S
H3360 C3344 0.931 . S
H3361 C3349 0.929 . S
H3362 C3350 0.960 . S
H3363 C3350 0.962 . S
H3364 C3350 0.960 . S
H3365 C3351 0.961 . S
H3366 C3351 0.961 . S
H3367 C3351 0.961 . S
H3368 C3352 0.931 . S
H3369 C3357 0.930 . S
H3370 C3358 0.956 . S
H3371 C3358 0.961 . S
H3372 C3358 0.961 . S
H3373 C3359 0.958 . S
H3374 C3359 0.961 . S
H3375 C3359 0.960 . S
C3376 C3377 1.391 . S
C3376 C3378 1.394 . S
C3376 H3392 0.931 . S
C3377 C3376 1.391 . S
C3377 C3381 1.376 . S
C3378 C3376 1.394 . S
C3378 C3379 1.369 . S
C3378 C3382 1.531 . S
C3379 C3378 1.369 . S
C3379 C3380 1.410 . S
C3379 C3387 1.503 . S
C3380 C3379 1.410 . S
C3380 C3381 1.392 . S
C3380 C3383 1.511 . S
C3381 C3377 1.376 . S
C3381 C3380 1.392 . S
C3381 H3393 0.929 . S
C3382 C3378 1.531 . S
C3382 H3394 0.960 . S
C3382 H3395 0.962 . S
C3382 H3396 0.960 . S
C3383 C3380 1.511 . S
C3383 H3397 0.961 . S
C3383 H3398 0.961 . S
C3383 H3399 0.961 . S
C3384 C3385 1.370 . S
C3384 C3386 1.363 . S
C3384 H3400 0.931 . S
C3385 C3384 1.370 . S
C3385 C3389 1.408 . S
C3386 C3384 1.363 . S
C3386 C3387 1.370 . S
C3386 C3390 1.524 . S
C3387 C3379 1.503 . S
C3387 C3386 1.370 . S
C3387 C3388 1.403 . S
C3388 C3387 1.403 . S
C3388 C3389 1.404 . S
C3388 C3391 1.539 . S
C3389 C3385 1.408 . S
C3389 C3388 1.404 . S
C3389 H3401 0.930 . S
C3390 C3386 1.524 . S
C3390 H3402 0.956 . S
C3390 H3403 0.961 . S
C3390 H3404 0.961 . S
C3391 C3388 1.539 . S
C3391 H3405 0.958 . S
C3391 H3406 0.961 . S
C3391 H3407 0.960 . S
H3392 C3376 0.931 . S
H3393 C3381 0.929 . S
H3394 C3382 0.960 . S
H3395 C3382 0.962 . S
H3396 C3382 0.960 . S
H3397 C3383 0.961 . S
H3398 C3383 0.961 . S
H3399 C3383 0.961 . S
H3400 C3384 0.931 . S
H3401 C3389 0.930 . S
H3402 C3390 0.956 . S
H3403 C3390 0.961 . S
H3404 C3390 0.961 . S
H3405 C3391 0.958 . S
H3406 C3391 0.961 . S
H3407 C3391 0.960 . S
C3408 C3409 1.391 . S
C3408 C3410 1.394 . S
C3408 H3424 0.931 . S
C3409 C3408 1.391 . S
C3409 C3413 1.376 . S
C3410 C3408 1.394 . S
C3410 C3411 1.369 . S
C3410 C3414 1.531 . S
C3411 C3410 1.369 . S
C3411 C3412 1.410 . S
C3411 C3419 1.503 . S
C3412 C3411 1.410 . S
C3412 C3413 1.392 . S
C3412 C3415 1.511 1_556 S
C3413 C3409 1.376 . S
C3413 C3412 1.392 . S
C3413 H3425 0.929 . S
C3414 C3410 1.531 . S
C3414 H3426 0.960 . S
C3414 H3427 0.962 . S
C3414 H3428 0.960 . S
C3415 C3412 1.511 1_554 S
C3415 H3429 0.961 . S
C3415 H3430 0.961 . S
C3415 H3431 0.961 . S
C3416 C3417 1.370 . S
C3416 C3418 1.363 . S
C3416 H3432 0.931 . S
C3417 C3416 1.370 . S
C3417 C3421 1.408 . S
C3418 C3416 1.363 . S
C3418 C3419 1.370 . S
C3418 C3422 1.524 . S
C3419 C3411 1.503 . S
C3419 C3418 1.370 . S
C3419 C3420 1.403 . S
C3420 C3419 1.403 . S
C3420 C3421 1.404 . S
C3420 C3423 1.539 . S
C3421 C3417 1.408 . S
C3421 C3420 1.404 . S
C3421 H3433 0.930 1_556 S
C3422 C3418 1.524 . S
C3422 H3434 0.956 . S
C3422 H3435 0.961 . S
C3422 H3436 0.961 . S
C3423 C3420 1.539 . S
C3423 H3437 0.958 . S
C3423 H3438 0.961 1_556 S
C3423 H3439 0.960 . S
H3424 C3408 0.931 . S
H3425 C3413 0.929 . S
H3426 C3414 0.960 . S
H3427 C3414 0.962 . S
H3428 C3414 0.960 . S
H3429 C3415 0.961 . S
H3430 C3415 0.961 . S
H3431 C3415 0.961 . S
H3432 C3416 0.931 . S
H3433 C3421 0.930 1_554 S
H3434 C3422 0.956 . S
H3435 C3422 0.961 . S
H3436 C3422 0.961 . S
H3437 C3423 0.958 . S
H3438 C3423 0.961 1_554 S
H3439 C3423 0.960 . S
C3440 C3441 1.391 . S
C3440 C3442 1.394 . S
C3440 H3456 0.931 . S
C3441 C3440 1.391 . S
C3441 C3445 1.376 . S
C3442 C3440 1.394 . S
C3442 C3443 1.369 . S
C3442 C3446 1.531 . S
C3443 C3442 1.369 . S
C3443 C3444 1.410 . S
C3443 C3451 1.503 . S
C3444 C3443 1.410 . S
C3444 C3445 1.392 . S
C3444 C3447 1.511 . S
C3445 C3441 1.376 . S
C3445 C3444 1.392 . S
C3445 H3457 0.929 . S
C3446 C3442 1.531 . S
C3446 H3458 0.960 . S
C3446 H3459 0.962 . S
C3446 H3460 0.960 . S
C3447 C3444 1.511 . S
C3447 H3461 0.961 . S
C3447 H3462 0.961 . S
C3447 H3463 0.961 . S
C3448 C3449 1.370 . S
C3448 C3450 1.363 . S
C3448 H3464 0.931 . S
C3449 C3448 1.370 . S
C3449 C3453 1.408 . S
C3450 C3448 1.363 . S
C3450 C3451 1.370 . S
C3450 C3454 1.524 . S
C3451 C3443 1.503 . S
C3451 C3450 1.370 . S
C3451 C3452 1.403 . S
C3452 C3451 1.403 . S
C3452 C3453 1.404 . S
C3452 C3455 1.539 . S
C3453 C3449 1.408 . S
C3453 C3452 1.404 . S
C3453 H3465 0.930 . S
C3454 C3450 1.524 . S
C3454 H3466 0.956 . S
C3454 H3467 0.961 . S
C3454 H3468 0.961 . S
C3455 C3452 1.539 . S
C3455 H3469 0.958 . S
C3455 H3470 0.961 . S
C3455 H3471 0.960 . S
H3456 C3440 0.931 . S
H3457 C3445 0.929 . S
H3458 C3446 0.960 . S
H3459 C3446 0.962 . S
H3460 C3446 0.960 . S
H3461 C3447 0.961 . S
H3462 C3447 0.961 . S
H3463 C3447 0.961 . S
H3464 C3448 0.931 . S
H3465 C3453 0.930 . S
H3466 C3454 0.956 . S
H3467 C3454 0.961 . S
H3468 C3454 0.961 . S
H3469 C3455 0.958 . S
H3470 C3455 0.961 . S
H3471 C3455 0.960 . S
C3472 C3473 1.391 . S
C3472 C3474 1.394 . S
C3472 H3488 0.931 . S
C3473 C3472 1.391 . S
C3473 C3477 1.376 . S
C3474 C3472 1.394 . S
C3474 C3475 1.369 . S
C3474 C3478 1.531 . S
C3475 C3474 1.369 . S
C3475 C3476 1.410 . S
C3475 C3483 1.503 . S
C3476 C3475 1.410 . S
C3476 C3477 1.392 . S
C3476 C3479 1.511 1_455 S
C3477 C3473 1.376 . S
C3477 C3476 1.392 . S
C3477 H3489 0.929 1_455 S
C3478 C3474 1.531 . S
C3478 H3490 0.960 . S
C3478 H3491 0.962 . S
C3478 H3492 0.960 . S
C3479 C3476 1.511 1_655 S
C3479 H3493 0.961 . S
C3479 H3494 0.961 . S
C3479 H3495 0.961 . S
C3480 C3481 1.370 . S
C3480 C3482 1.363 . S
C3480 H3496 0.931 . S
C3481 C3480 1.370 . S
C3481 C3485 1.408 . S
C3482 C3480 1.363 . S
C3482 C3483 1.370 . S
C3482 C3486 1.524 . S
C3483 C3475 1.503 . S
C3483 C3482 1.370 . S
C3483 C3484 1.403 . S
C3484 C3483 1.403 . S
C3484 C3485 1.404 . S
C3484 C3487 1.539 . S
C3485 C3481 1.408 . S
C3485 C3484 1.404 . S
C3485 H3497 0.930 . S
C3486 C3482 1.524 . S
C3486 H3498 0.956 . S
C3486 H3499 0.961 . S
C3486 H3500 0.961 . S
C3487 C3484 1.539 . S
C3487 H3501 0.958 . S
C3487 H3502 0.961 . S
C3487 H3503 0.960 . S
H3488 C3472 0.931 . S
H3489 C3477 0.929 1_655 S
H3490 C3478 0.960 . S
H3491 C3478 0.962 . S
H3492 C3478 0.960 . S
H3493 C3479 0.961 . S
H3494 C3479 0.961 . S
H3495 C3479 0.961 . S
H3496 C3480 0.931 . S
H3497 C3485 0.930 . S
H3498 C3486 0.956 . S
H3499 C3486 0.961 . S
H3500 C3486 0.961 . S
H3501 C3487 0.958 . S
H3502 C3487 0.961 . S
H3503 C3487 0.960 . S
C3504 C3505 1.391 . S
C3504 C3506 1.394 . S
C3504 H3520 0.931 . S
C3505 C3504 1.391 . S
C3505 C3509 1.376 . S
C3506 C3504 1.394 . S
C3506 C3507 1.369 . S
C3506 C3510 1.531 . S
C3507 C3506 1.369 . S
C3507 C3508 1.410 . S
C3507 C3515 1.503 . S
C3508 C3507 1.410 . S
C3508 C3509 1.392 . S
C3508 C3511 1.511 . S
C3509 C3505 1.376 . S
C3509 C3508 1.392 . S
C3509 H3521 0.929 . S
C3510 C3506 1.531 . S
C3510 H3522 0.960 . S
C3510 H3523 0.962 . S
C3510 H3524 0.960 . S
C3511 C3508 1.511 . S
C3511 H3525 0.961 . S
C3511 H3526 0.961 . S
C3511 H3527 0.961 . S
C3512 C3513 1.370 . S
C3512 C3514 1.363 . S
C3512 H3528 0.931 . S
C3513 C3512 1.370 . S
C3513 C3517 1.408 . S
C3514 C3512 1.363 . S
C3514 C3515 1.370 . S
C3514 C3518 1.524 . S
C3515 C3507 1.503 . S
C3515 C3514 1.370 . S
C3515 C3516 1.403 . S
C3516 C3515 1.403 . S
C3516 C3517 1.404 . S
C3516 C3519 1.539 . S
C3517 C3513 1.408 . S
C3517 C3516 1.404 . S
C3517 H3529 0.930 . S
C3518 C3514 1.524 . S
C3518 H3530 0.956 . S
C3518 H3531 0.961 . S
C3518 H3532 0.961 . S
C3519 C3516 1.539 . S
C3519 H3533 0.958 . S
C3519 H3534 0.961 . S
C3519 H3535 0.960 . S
H3520 C3504 0.931 . S
H3521 C3509 0.929 . S
H3522 C3510 0.960 . S
H3523 C3510 0.962 . S
H3524 C3510 0.960 . S
H3525 C3511 0.961 . S
H3526 C3511 0.961 . S
H3527 C3511 0.961 . S
H3528 C3512 0.931 . S
H3529 C3517 0.930 . S
H3530 C3518 0.956 . S
H3531 C3518 0.961 . S
H3532 C3518 0.961 . S
H3533 C3519 0.958 . S
H3534 C3519 0.961 . S
H3535 C3519 0.960 . S
C3536 C3537 1.391 . S
C3536 C3538 1.394 . S
C3536 H3552 0.931 . S
C3537 C3536 1.391 . S
C3537 C3541 1.376 . S
C3538 C3536 1.394 . S
C3538 C3539 1.369 . S
C3538 C3542 1.531 . S
C3539 C3538 1.369 . S
C3539 C3540 1.410 . S
C3539 C3547 1.503 . S
C3540 C3539 1.410 . S
C3540 C3541 1.392 . S
C3540 C3543 1.511 . S
C3541 C3537 1.376 . S
C3541 C3540 1.392 . S
C3541 H3553 0.929 . S
C3542 C3538 1.531 . S
C3542 H3554 0.960 . S
C3542 H3555 0.962 . S
C3542 H3556 0.960 . S
C3543 C3540 1.511 . S
C3543 H3557 0.961 . S
C3543 H3558 0.961 . S
C3543 H3559 0.961 . S
C3544 C3545 1.370 . S
C3544 C3546 1.363 . S
C3544 H3560 0.931 . S
C3545 C3544 1.370 . S
C3545 C3549 1.408 . S
C3546 C3544 1.363 . S
C3546 C3547 1.370 . S
C3546 C3550 1.524 . S
C3547 C3539 1.503 . S
C3547 C3546 1.370 . S
C3547 C3548 1.403 . S
C3548 C3547 1.403 . S
C3548 C3549 1.404 . S
C3548 C3551 1.539 . S
C3549 C3545 1.408 . S
C3549 C3548 1.404 . S
C3549 H3561 0.930 . S
C3550 C3546 1.524 . S
C3550 H3562 0.956 . S
C3550 H3563 0.961 . S
C3550 H3564 0.961 . S
C3551 C3548 1.539 . S
C3551 H3565 0.958 . S
C3551 H3566 0.961 . S
C3551 H3567 0.960 . S
H3552 C3536 0.931 . S
H3553 C3541 0.929 . S
H3554 C3542 0.960 . S
H3555 C3542 0.962 . S
H3556 C3542 0.960 . S
H3557 C3543 0.961 . S
H3558 C3543 0.961 . S
H3559 C3543 0.961 . S
H3560 C3544 0.931 . S
H3561 C3549 0.930 . S
H3562 C3550 0.956 . S
H3563 C3550 0.961 . S
H3564 C3550 0.961 . S
H3565 C3551 0.958 . S
H3566 C3551 0.961 . S
H3567 C3551 0.960 . S
C3568 C3569 1.391 . S
C3568 C3570 1.394 . S
C3568 H3584 0.931 . S
C3569 C3568 1.391 . S
C3569 C3573 1.376 . S
C3570 C3568 1.394 . S
C3570 C3571 1.369 . S
C3570 C3574 1.531 . S
C3571 C3570 1.369 . S
C3571 C3572 1.410 . S
C3571 C3579 1.503 . S
C3572 C3571 1.410 . S
C3572 C3573 1.392 . S
C3572 C3575 1.511 . S
C3573 C3569 1.376 . S
C3573 C3572 1.392 . S
C3573 H3585 0.929 . S
C3574 C3570 1.531 . S
C3574 H3586 0.960 . S
C3574 H3587 0.962 . S
C3574 H3588 0.960 . S
C3575 C3572 1.511 . S
C3575 H3589 0.961 . S
C3575 H3590 0.961 . S
C3575 H3591 0.961 . S
C3576 C3577 1.370 . S
C3576 C3578 1.363 . S
C3576 H3592 0.931 . S
C3577 C3576 1.370 . S
C3577 C3581 1.408 . S
C3578 C3576 1.363 . S
C3578 C3579 1.370 . S
C3578 C3582 1.524 . S
C3579 C3571 1.503 . S
C3579 C3578 1.370 . S
C3579 C3580 1.403 . S
C3580 C3579 1.403 . S
C3580 C3581 1.404 . S
C3580 C3583 1.539 . S
C3581 C3577 1.408 . S
C3581 C3580 1.404 . S
C3581 H3593 0.930 . S
C3582 C3578 1.524 . S
C3582 H3594 0.956 . S
C3582 H3595 0.961 . S
C3582 H3596 0.961 . S
C3583 C3580 1.539 . S
C3583 H3597 0.958 . S
C3583 H3598 0.961 . S
C3583 H3599 0.960 . S
H3584 C3568 0.931 . S
H3585 C3573 0.929 . S
H3586 C3574 0.960 . S
H3587 C3574 0.962 . S
H3588 C3574 0.960 . S
H3589 C3575 0.961 . S
H3590 C3575 0.961 . S
H3591 C3575 0.961 . S
H3592 C3576 0.931 . S
H3593 C3581 0.930 . S
H3594 C3582 0.956 . S
H3595 C3582 0.961 . S
H3596 C3582 0.961 . S
H3597 C3583 0.958 . S
H3598 C3583 0.961 . S
H3599 C3583 0.960 . S
C3600 C3601 1.391 1_455 S
C3600 C3602 1.394 . S
C3600 H3616 0.931 . S
C3601 C3600 1.391 1_655 S
C3601 C3605 1.376 . S
C3602 C3600 1.394 . S
C3602 C3603 1.369 . S
C3602 C3606 1.531 . S
C3603 C3602 1.369 . S
C3603 C3604 1.410 1_455 S
C3603 C3611 1.503 . S
C3604 C3603 1.410 1_655 S
C3604 C3605 1.392 . S
C3604 C3607 1.511 . S
C3605 C3601 1.376 . S
C3605 C3604 1.392 . S
C3605 H3617 0.929 . S
C3606 C3602 1.531 . S
C3606 H3618 0.960 . S
C3606 H3619 0.962 . S
C3606 H3620 0.960 . S
C3607 C3604 1.511 . S
C3607 H3621 0.961 . S
C3607 H3622 0.961 . S
C3607 H3623 0.961 . S
C3608 C3609 1.370 . S
C3608 C3610 1.363 . S
C3608 H3624 0.931 . S
C3609 C3608 1.370 . S
C3609 C3613 1.408 . S
C3610 C3608 1.363 . S
C3610 C3611 1.370 . S
C3610 C3614 1.524 1_455 S
C3611 C3603 1.503 . S
C3611 C3610 1.370 . S
C3611 C3612 1.403 . S
C3612 C3611 1.403 . S
C3612 C3613 1.404 . S
C3612 C3615 1.539 . S
C3613 C3609 1.408 . S
C3613 C3612 1.404 . S
C3613 H3625 0.930 . S
C3614 C3610 1.524 1_655 S
C3614 H3626 0.956 . S
C3614 H3627 0.961 . S
C3614 H3628 0.961 . S
C3615 C3612 1.539 . S
C3615 H3629 0.958 . S
C3615 H3630 0.961 . S
C3615 H3631 0.960 . S
H3616 C3600 0.931 . S
H3617 C3605 0.929 . S
H3618 C3606 0.960 . S
H3619 C3606 0.962 . S
H3620 C3606 0.960 . S
H3621 C3607 0.961 . S
H3622 C3607 0.961 . S
H3623 C3607 0.961 . S
H3624 C3608 0.931 . S
H3625 C3613 0.930 . S
H3626 C3614 0.956 . S
H3627 C3614 0.961 . S
H3628 C3614 0.961 . S
H3629 C3615 0.958 . S
H3630 C3615 0.961 . S
H3631 C3615 0.960 . S
C3632 C3633 1.391 . S
C3632 C3634 1.394 . S
C3632 H3648 0.931 . S
C3633 C3632 1.391 . S
C3633 C3637 1.376 . S
C3634 C3632 1.394 . S
C3634 C3635 1.369 . S
C3634 C3638 1.531 . S
C3635 C3634 1.369 . S
C3635 C3636 1.410 . S
C3635 C3643 1.503 . S
C3636 C3635 1.410 . S
C3636 C3637 1.392 . S
C3636 C3639 1.511 . S
C3637 C3633 1.376 . S
C3637 C3636 1.392 . S
C3637 H3649 0.929 . S
C3638 C3634 1.531 . S
C3638 H3650 0.960 . S
C3638 H3651 0.962 . S
C3638 H3652 0.960 . S
C3639 C3636 1.511 . S
C3639 H3653 0.961 . S
C3639 H3654 0.961 . S
C3639 H3655 0.961 . S
C3640 C3641 1.370 . S
C3640 C3642 1.363 . S
C3640 H3656 0.931 . S
C3641 C3640 1.370 . S
C3641 C3645 1.408 . S
C3642 C3640 1.363 . S
C3642 C3643 1.370 . S
C3642 C3646 1.524 . S
C3643 C3635 1.503 . S
C3643 C3642 1.370 . S
C3643 C3644 1.403 . S
C3644 C3643 1.403 . S
C3644 C3645 1.404 . S
C3644 C3647 1.539 . S
C3645 C3641 1.408 . S
C3645 C3644 1.404 . S
C3645 H3657 0.930 . S
C3646 C3642 1.524 . S
C3646 H3658 0.956 . S
C3646 H3659 0.961 . S
C3646 H3660 0.961 . S
C3647 C3644 1.539 . S
C3647 H3661 0.958 . S
C3647 H3662 0.961 . S
C3647 H3663 0.960 . S
H3648 C3632 0.931 . S
H3649 C3637 0.929 . S
H3650 C3638 0.960 . S
H3651 C3638 0.962 . S
H3652 C3638 0.960 . S
H3653 C3639 0.961 . S
H3654 C3639 0.961 . S
H3655 C3639 0.961 . S
H3656 C3640 0.931 . S
H3657 C3645 0.930 . S
H3658 C3646 0.956 . S
H3659 C3646 0.961 . S
H3660 C3646 0.961 . S
H3661 C3647 0.958 . S
H3662 C3647 0.961 . S
H3663 C3647 0.960 . S
C3664 C3665 1.391 . S
C3664 C3666 1.394 . S
C3664 H3680 0.931 . S
C3665 C3664 1.391 . S
C3665 C3669 1.376 . S
C3666 C3664 1.394 . S
C3666 C3667 1.369 . S
C3666 C3670 1.531 . S
C3667 C3666 1.369 . S
C3667 C3668 1.410 . S
C3667 C3675 1.503 . S
C3668 C3667 1.410 . S
C3668 C3669 1.392 . S
C3668 C3671 1.511 . S
C3669 C3665 1.376 . S
C3669 C3668 1.392 . S
C3669 H3681 0.929 . S
C3670 C3666 1.531 . S
C3670 H3682 0.960 . S
C3670 H3683 0.962 . S
C3670 H3684 0.960 . S
C3671 C3668 1.511 . S
C3671 H3685 0.961 . S
C3671 H3686 0.961 . S
C3671 H3687 0.961 . S
C3672 C3673 1.370 . S
C3672 C3674 1.363 . S
C3672 H3688 0.931 . S
C3673 C3672 1.370 . S
C3673 C3677 1.408 . S
C3674 C3672 1.363 . S
C3674 C3675 1.370 . S
C3674 C3678 1.524 . S
C3675 C3667 1.503 . S
C3675 C3674 1.370 . S
C3675 C3676 1.403 . S
C3676 C3675 1.403 . S
C3676 C3677 1.404 . S
C3676 C3679 1.539 . S
C3677 C3673 1.408 . S
C3677 C3676 1.404 . S
C3677 H3689 0.930 . S
C3678 C3674 1.524 . S
C3678 H3690 0.956 . S
C3678 H3691 0.961 . S
C3678 H3692 0.961 . S
C3679 C3676 1.539 . S
C3679 H3693 0.958 . S
C3679 H3694 0.961 . S
C3679 H3695 0.960 . S
H3680 C3664 0.931 . S
H3681 C3669 0.929 . S
H3682 C3670 0.960 . S
H3683 C3670 0.962 . S
H3684 C3670 0.960 . S
H3685 C3671 0.961 . S
H3686 C3671 0.961 . S
H3687 C3671 0.961 . S
H3688 C3672 0.931 . S
H3689 C3677 0.930 . S
H3690 C3678 0.956 . S
H3691 C3678 0.961 . S
H3692 C3678 0.961 . S
H3693 C3679 0.958 . S
H3694 C3679 0.961 . S
H3695 C3679 0.960 . S
C3696 C3697 1.391 . S
C3696 C3698 1.394 . S
C3696 H3712 0.931 . S
C3697 C3696 1.391 . S
C3697 C3701 1.376 . S
C3698 C3696 1.394 . S
C3698 C3699 1.369 . S
C3698 C3702 1.531 . S
C3699 C3698 1.369 . S
C3699 C3700 1.410 . S
C3699 C3707 1.503 . S
C3700 C3699 1.410 . S
C3700 C3701 1.392 . S
C3700 C3703 1.511 . S
C3701 C3697 1.376 . S
C3701 C3700 1.392 . S
C3701 H3713 0.929 . S
C3702 C3698 1.531 . S
C3702 H3714 0.960 . S
C3702 H3715 0.962 . S
C3702 H3716 0.960 . S
C3703 C3700 1.511 . S
C3703 H3717 0.961 . S
C3703 H3718 0.961 . S
C3703 H3719 0.961 . S
C3704 C3705 1.370 . S
C3704 C3706 1.363 . S
C3704 H3720 0.931 . S
C3705 C3704 1.370 . S
C3705 C3709 1.408 . S
C3706 C3704 1.363 . S
C3706 C3707 1.370 . S
C3706 C3710 1.524 . S
C3707 C3699 1.503 . S
C3707 C3706 1.370 . S
C3707 C3708 1.403 . S
C3708 C3707 1.403 . S
C3708 C3709 1.404 . S
C3708 C3711 1.539 . S
C3709 C3705 1.408 . S
C3709 C3708 1.404 . S
C3709 H3721 0.930 . S
C3710 C3706 1.524 . S
C3710 H3722 0.956 . S
C3710 H3723 0.961 . S
C3710 H3724 0.961 . S
C3711 C3708 1.539 . S
C3711 H3725 0.958 . S
C3711 H3726 0.961 . S
C3711 H3727 0.960 . S
H3712 C3696 0.931 . S
H3713 C3701 0.929 . S
H3714 C3702 0.960 . S
H3715 C3702 0.962 . S
H3716 C3702 0.960 . S
H3717 C3703 0.961 . S
H3718 C3703 0.961 . S
H3719 C3703 0.961 . S
H3720 C3704 0.931 . S
H3721 C3709 0.930 . S
H3722 C3710 0.956 . S
H3723 C3710 0.961 . S
H3724 C3710 0.961 . S
H3725 C3711 0.958 . S
H3726 C3711 0.961 . S
H3727 C3711 0.960 . S
C3728 C3729 1.391 . S
C3728 C3730 1.391 1_655 S
C3728 H3744 0.931 1_655 S
C3729 C3728 1.391 . S
C3729 C3733 1.376 . S
C3730 C3728 1.391 1_455 S
C3730 C3731 1.366 1_455 S
C3730 C3734 1.536 . S
C3731 C3730 1.366 1_655 S
C3731 C3732 1.410 . S
C3731 C3739 1.503 . S
C3732 C3731 1.410 . S
C3732 C3733 1.392 . S
C3732 C3735 1.511 . S
C3733 C3729 1.376 . S
C3733 C3732 1.392 . S
C3733 H3745 0.929 . S
C3734 C3730 1.536 . S
C3734 H3746 0.960 . S
C3734 H3747 0.962 . S
C3734 H3748 0.960 . S
C3735 C3732 1.511 . S
C3735 H3749 0.961 . S
C3735 H3750 0.961 . S
C3735 H3751 0.961 . S
C3736 C3737 1.368 1_455 S
C3736 C3738 1.363 . S
C3736 H3752 0.931 . S
C3737 C3736 1.368 1_655 S
C3737 C3741 1.416 . S
C3738 C3736 1.363 . S
C3738 C3739 1.370 1_455 S
C3738 C3742 1.524 . S
C3739 C3731 1.503 . S
C3739 C3738 1.370 1_655 S
C3739 C3740 1.403 . S
C3740 C3739 1.403 . S
C3740 C3741 1.404 . S
C3740 C3743 1.539 . S
C3741 C3737 1.416 . S
C3741 C3740 1.404 . S
C3741 H3753 0.930 . S
C3742 C3738 1.524 . S
C3742 H3754 0.956 . S
C3742 H3755 0.961 . S
C3742 H3756 0.961 . S
C3743 C3740 1.539 . S
C3743 H3757 0.958 . S
C3743 H3758 0.961 . S
C3743 H3759 0.960 . S
H3744 C3728 0.931 1_455 S
H3745 C3733 0.929 . S
H3746 C3734 0.960 . S
H3747 C3734 0.962 . S
H3748 C3734 0.960 . S
H3749 C3735 0.961 . S
H3750 C3735 0.961 . S
H3751 C3735 0.961 . S
H3752 C3736 0.931 . S
H3753 C3741 0.930 . S
H3754 C3742 0.956 . S
H3755 C3742 0.961 . S
H3756 C3742 0.961 . S
H3757 C3743 0.958 . S
H3758 C3743 0.961 . S
H3759 C3743 0.960 . S
C3760 C3761 1.391 . S
C3760 C3762 1.394 . S
C3760 H3776 0.931 . S
C3761 C3760 1.391 . S
C3761 C3765 1.376 . S
C3762 C3760 1.394 . S
C3762 C3763 1.369 . S
C3762 C3766 1.531 . S
C3763 C3762 1.369 . S
C3763 C3764 1.410 . S
C3763 C3771 1.503 . S
C3764 C3763 1.410 . S
C3764 C3765 1.392 . S
C3764 C3767 1.511 . S
C3765 C3761 1.376 . S
C3765 C3764 1.392 . S
C3765 H3777 0.929 . S
C3766 C3762 1.531 . S
C3766 H3778 0.960 . S
C3766 H3779 0.962 . S
C3766 H3780 0.960 . S
C3767 C3764 1.511 . S
C3767 H3781 0.961 . S
C3767 H3782 0.961 . S
C3767 H3783 0.961 . S
C3768 C3769 1.370 . S
C3768 C3770 1.363 . S
C3768 H3784 0.931 . S
C3769 C3768 1.370 . S
C3769 C3773 1.408 . S
C3770 C3768 1.363 . S
C3770 C3771 1.370 . S
C3770 C3774 1.524 . S
C3771 C3763 1.503 . S
C3771 C3770 1.370 . S
C3771 C3772 1.403 . S
C3772 C3771 1.403 . S
C3772 C3773 1.404 . S
C3772 C3775 1.539 . S
C3773 C3769 1.408 . S
C3773 C3772 1.404 . S
C3773 H3785 0.930 . S
C3774 C3770 1.524 . S
C3774 H3786 0.956 . S
C3774 H3787 0.961 . S
C3774 H3788 0.961 . S
C3775 C3772 1.539 . S
C3775 H3789 0.958 . S
C3775 H3790 0.961 . S
C3775 H3791 0.960 . S
H3776 C3760 0.931 . S
H3777 C3765 0.929 . S
H3778 C3766 0.960 . S
H3779 C3766 0.962 . S
H3780 C3766 0.960 . S
H3781 C3767 0.961 . S
H3782 C3767 0.961 . S
H3783 C3767 0.961 . S
H3784 C3768 0.931 . S
H3785 C3773 0.930 . S
H3786 C3774 0.956 . S
H3787 C3774 0.961 . S
H3788 C3774 0.961 . S
H3789 C3775 0.958 . S
H3790 C3775 0.961 . S
H3791 C3775 0.960 . S
C3792 C3793 1.391 . S
C3792 C3794 1.394 . S
C3792 H3808 0.931 . S
C3793 C3792 1.391 . S
C3793 C3797 1.376 . S
C3794 C3792 1.394 . S
C3794 C3795 1.369 . S
C3794 C3798 1.531 . S
C3795 C3794 1.369 . S
C3795 C3796 1.410 . S
C3795 C3803 1.503 . S
C3796 C3795 1.410 . S
C3796 C3797 1.392 . S
C3796 C3799 1.511 . S
C3797 C3793 1.376 . S
C3797 C3796 1.392 . S
C3797 H3809 0.929 . S
C3798 C3794 1.531 . S
C3798 H3810 0.960 . S
C3798 H3811 0.962 . S
C3798 H3812 0.960 . S
C3799 C3796 1.511 . S
C3799 H3813 0.961 . S
C3799 H3814 0.961 . S
C3799 H3815 0.961 . S
C3800 C3801 1.370 . S
C3800 C3802 1.363 . S
C3800 H3816 0.931 . S
C3801 C3800 1.370 . S
C3801 C3805 1.408 . S
C3802 C3800 1.363 . S
C3802 C3803 1.370 . S
C3802 C3806 1.524 . S
C3803 C3795 1.503 . S
C3803 C3802 1.370 . S
C3803 C3804 1.403 . S
C3804 C3803 1.403 . S
C3804 C3805 1.404 . S
C3804 C3807 1.539 . S
C3805 C3801 1.408 . S
C3805 C3804 1.404 . S
C3805 H3817 0.930 . S
C3806 C3802 1.524 . S
C3806 H3818 0.956 . S
C3806 H3819 0.961 . S
C3806 H3820 0.961 . S
C3807 C3804 1.539 . S
C3807 H3821 0.958 . S
C3807 H3822 0.961 . S
C3807 H3823 0.960 . S
H3808 C3792 0.931 . S
H3809 C3797 0.929 . S
H3810 C3798 0.960 . S
H3811 C3798 0.962 . S
H3812 C3798 0.960 . S
H3813 C3799 0.961 . S
H3814 C3799 0.961 . S
H3815 C3799 0.961 . S
H3816 C3800 0.931 . S
H3817 C3805 0.930 . S
H3818 C3806 0.956 . S
H3819 C3806 0.961 . S
H3820 C3806 0.961 . S
H3821 C3807 0.958 . S
H3822 C3807 0.961 . S
H3823 C3807 0.960 . S
C3824 C3825 1.391 1_545 S
C3824 C3826 1.394 . S
C3824 H3840 0.931 . S
C3825 C3824 1.391 1_565 S
C3825 C3829 1.376 . S
C3826 C3824 1.394 . S
C3826 C3827 1.369 . S
C3826 C3830 1.531 . S
C3827 C3826 1.369 . S
C3827 C3828 1.410 1_545 S
C3827 C3835 1.503 . S
C3828 C3827 1.410 1_565 S
C3828 C3829 1.392 . S
C3828 C3831 1.511 . S
C3829 C3825 1.376 . S
C3829 C3828 1.392 . S
C3829 H3841 0.929 . S
C3830 C3826 1.531 . S
C3830 H3842 0.960 . S
C3830 H3843 0.962 . S
C3830 H3844 0.960 . S
C3831 C3828 1.511 . S
C3831 H3845 0.961 . S
C3831 H3846 0.961 . S
C3831 H3847 0.949 1_565 S
C3832 C3833 1.370 . S
C3832 C3834 1.363 . S
C3832 H3848 0.931 . S
C3833 C3832 1.370 . S
C3833 C3837 1.408 . S
C3834 C3832 1.363 . S
C3834 C3835 1.370 . S
C3834 C3838 1.524 1_545 S
C3835 C3827 1.503 . S
C3835 C3834 1.370 . S
C3835 C3836 1.403 . S
C3836 C3835 1.403 . S
C3836 C3837 1.404 . S
C3836 C3839 1.539 . S
C3837 C3833 1.408 . S
C3837 C3836 1.404 . S
C3837 H3849 0.930 . S
C3838 C3834 1.524 1_565 S
C3838 H3850 0.956 . S
C3838 H3851 0.961 . S
C3838 H3852 0.961 . S
C3839 C3836 1.539 . S
C3839 H3853 0.958 . S
C3839 H3854 0.961 . S
C3839 H3855 0.960 . S
H3840 C3824 0.931 . S
H3841 C3829 0.929 . S
H3842 C3830 0.960 . S
H3843 C3830 0.962 . S
H3844 C3830 0.960 . S
H3845 C3831 0.961 . S
H3846 C3831 0.961 . S
H3847 C3831 0.949 1_545 S
H3848 C3832 0.931 . S
H3849 C3837 0.930 . S
H3850 C3838 0.956 . S
H3851 C3838 0.961 . S
H3852 C3838 0.961 . S
H3853 C3839 0.958 . S
H3854 C3839 0.961 . S
H3855 C3839 0.960 . S
C3856 C3857 1.391 . S
C3856 C3858 1.394 . S
C3856 H3872 0.931 . S
C3857 C3856 1.391 . S
C3857 C3861 1.376 . S
C3858 C3856 1.394 . S
C3858 C3859 1.369 . S
C3858 C3862 1.531 . S
C3859 C3858 1.369 . S
C3859 C3860 1.410 . S
C3859 C3867 1.503 . S
C3860 C3859 1.410 . S
C3860 C3861 1.392 . S
C3860 C3863 1.511 . S
C3861 C3857 1.376 . S
C3861 C3860 1.392 . S
C3861 H3873 0.929 . S
C3862 C3858 1.531 . S
C3862 H3874 0.960 . S
C3862 H3875 0.962 . S
C3862 H3876 0.960 . S
C3863 C3860 1.511 . S
C3863 H3877 0.961 . S
C3863 H3878 0.961 . S
C3863 H3879 0.961 . S
C3864 C3865 1.370 . S
C3864 C3866 1.363 . S
C3864 H3880 0.931 . S
C3865 C3864 1.370 . S
C3865 C3869 1.408 . S
C3866 C3864 1.363 . S
C3866 C3867 1.370 . S
C3866 C3870 1.524 . S
C3867 C3859 1.503 . S
C3867 C3866 1.370 . S
C3867 C3868 1.403 . S
C3868 C3867 1.403 . S
C3868 C3869 1.404 . S
C3868 C3871 1.539 . S
C3869 C3865 1.408 . S
C3869 C3868 1.404 . S
C3869 H3881 0.930 . S
C3870 C3866 1.524 . S
C3870 H3882 0.956 . S
C3870 H3883 0.961 . S
C3870 H3884 0.961 . S
C3871 C3868 1.539 . S
C3871 H3885 0.958 . S
C3871 H3886 0.961 . S
C3871 H3887 0.960 . S
H3872 C3856 0.931 . S
H3873 C3861 0.929 . S
H3874 C3862 0.960 . S
H3875 C3862 0.962 . S
H3876 C3862 0.960 . S
H3877 C3863 0.961 . S
H3878 C3863 0.961 . S
H3879 C3863 0.961 . S
H3880 C3864 0.931 . S
H3881 C3869 0.930 . S
H3882 C3870 0.956 . S
H3883 C3870 0.961 . S
H3884 C3870 0.961 . S
H3885 C3871 0.958 . S
H3886 C3871 0.961 . S
H3887 C3871 0.960 . S
C3888 C3889 1.391 1_554 S
C3888 C3890 1.394 . S
C3888 H3904 0.931 . S
C3889 C3888 1.391 1_556 S
C3889 C3893 1.376 . S
C3890 C3888 1.394 . S
C3890 C3891 1.365 1_554 S
C3890 C3894 1.531 . S
C3891 C3890 1.365 1_556 S
C3891 C3892 1.423 . S
C3891 C3899 1.493 1_556 S
C3892 C3891 1.423 . S
C3892 C3893 1.392 . S
C3892 C3895 1.511 . S
C3893 C3889 1.376 . S
C3893 C3892 1.392 . S
C3893 H3905 0.929 . S
C3894 C3890 1.531 . S
C3894 H3906 0.960 . S
C3894 H3907 0.962 . S
C3894 H3908 0.960 . S
C3895 C3892 1.511 . S
C3895 H3909 0.961 . S
C3895 H3910 0.961 . S
C3895 H3911 0.961 . S
C3896 C3897 1.370 . S
C3896 C3898 1.363 . S
C3896 H3912 0.931 . S
C3897 C3896 1.370 . S
C3897 C3901 1.408 1_554 S
C3898 C3896 1.363 . S
C3898 C3899 1.370 . S
C3898 C3902 1.524 . S
C3899 C3891 1.493 1_554 S
C3899 C3898 1.370 . S
C3899 C3900 1.403 1_554 S
C3900 C3899 1.403 1_556 S
C3900 C3901 1.404 . S
C3900 C3903 1.539 . S
C3901 C3897 1.408 1_556 S
C3901 C3900 1.404 . S
C3901 H3913 0.930 . S
C3902 C3898 1.524 . S
C3902 H3914 0.956 . S
C3902 H3915 0.961 . S
C3902 H3916 0.961 . S
C3903 C3900 1.539 . S
C3903 H3917 0.958 . S
C3903 H3918 0.961 . S
C3903 H3919 0.960 . S
H3904 C3888 0.931 . S
H3905 C3893 0.929 . S
H3906 C3894 0.960 . S
H3907 C3894 0.962 . S
H3908 C3894 0.960 . S
H3909 C3895 0.961 . S
H3910 C3895 0.961 . S
H3911 C3895 0.961 . S
H3912 C3896 0.931 . S
H3913 C3901 0.930 . S
H3914 C3902 0.956 . S
H3915 C3902 0.961 . S
H3916 C3902 0.961 . S
H3917 C3903 0.958 . S
H3918 C3903 0.961 . S
H3919 C3903 0.960 . S
C3920 C3921 1.391 . S
C3920 C3922 1.394 . S
C3920 H3936 0.931 . S
C3921 C3920 1.391 . S
C3921 C3925 1.376 . S
C3922 C3920 1.394 . S
C3922 C3923 1.369 . S
C3922 C3926 1.531 . S
C3923 C3922 1.369 . S
C3923 C3924 1.410 . S
C3923 C3931 1.503 . S
C3924 C3923 1.410 . S
C3924 C3925 1.392 . S
C3924 C3927 1.511 . S
C3925 C3921 1.376 . S
C3925 C3924 1.392 . S
C3925 H3937 0.929 . S
C3926 C3922 1.531 . S
C3926 H3938 0.960 . S
C3926 H3939 0.962 . S
C3926 H3940 0.960 . S
C3927 C3924 1.511 . S
C3927 H3941 0.961 . S
C3927 H3942 0.961 . S
C3927 H3943 0.961 . S
C3928 C3929 1.370 . S
C3928 C3930 1.363 . S
C3928 H3944 0.931 . S
C3929 C3928 1.370 . S
C3929 C3933 1.408 . S
C3930 C3928 1.363 . S
C3930 C3931 1.370 . S
C3930 C3934 1.524 . S
C3931 C3923 1.503 . S
C3931 C3930 1.370 . S
C3931 C3932 1.403 . S
C3932 C3931 1.403 . S
C3932 C3933 1.404 . S
C3932 C3935 1.539 . S
C3933 C3929 1.408 . S
C3933 C3932 1.404 . S
C3933 H3945 0.930 . S
C3934 C3930 1.524 . S
C3934 H3946 0.956 . S
C3934 H3947 0.961 . S
C3934 H3948 0.961 . S
C3935 C3932 1.539 . S
C3935 H3949 0.958 . S
C3935 H3950 0.961 . S
C3935 H3951 0.960 . S
H3936 C3920 0.931 . S
H3937 C3925 0.929 . S
H3938 C3926 0.960 . S
H3939 C3926 0.962 . S
H3940 C3926 0.960 . S
H3941 C3927 0.961 . S
H3942 C3927 0.961 . S
H3943 C3927 0.961 . S
H3944 C3928 0.931 . S
H3945 C3933 0.930 . S
H3946 C3934 0.956 . S
H3947 C3934 0.961 . S
H3948 C3934 0.961 . S
H3949 C3935 0.958 . S
H3950 C3935 0.961 . S
H3951 C3935 0.960 . S
C3952 C3953 1.391 . S
C3952 C3954 1.394 . S
C3952 H3968 0.931 . S
C3953 C3952 1.391 . S
C3953 C3957 1.376 . S
C3954 C3952 1.394 . S
C3954 C3955 1.369 . S
C3954 C3958 1.531 1_554 S
C3955 C3954 1.369 . S
C3955 C3956 1.410 . S
C3955 C3963 1.497 1_554 S
C3956 C3955 1.410 . S
C3956 C3957 1.392 . S
C3956 C3959 1.511 . S
C3957 C3953 1.376 . S
C3957 C3956 1.392 . S
C3957 H3969 0.929 . S
C3958 C3954 1.531 1_556 S
C3958 H3970 0.960 . S
C3958 H3971 0.962 1_556 S
C3958 H3972 0.960 . S
C3959 C3956 1.511 . S
C3959 H3973 0.961 . S
C3959 H3974 0.961 . S
C3959 H3975 0.961 . S
C3960 C3961 1.370 1_554 S
C3960 C3962 1.363 . S
C3960 H3976 0.931 . S
C3961 C3960 1.370 1_556 S
C3961 C3965 1.408 . S
C3962 C3960 1.363 . S
C3962 C3963 1.336 1_554 S
C3962 C3966 1.524 . S
C3963 C3955 1.497 1_556 S
C3963 C3962 1.336 1_556 S
C3963 C3964 1.445 . S
C3964 C3963 1.445 . S
C3964 C3965 1.404 . S
C3964 C3967 1.539 . S
C3965 C3961 1.408 . S
C3965 C3964 1.404 . S
C3965 H3977 0.930 . S
C3966 C3962 1.524 . S
C3966 H3978 0.956 . S
C3966 H3979 0.961 . S
C3966 H3980 0.961 . S
C3967 C3964 1.539 . S
C3967 H3981 0.958 . S
C3967 H3982 0.961 . S
C3967 H3983 0.960 . S
H3968 C3952 0.931 . S
H3969 C3957 0.929 . S
H3970 C3958 0.960 . S
H3971 C3958 0.962 1_554 S
H3972 C3958 0.960 . S
H3973 C3959 0.961 . S
H3974 C3959 0.961 . S
H3975 C3959 0.961 . S
H3976 C3960 0.931 . S
H3977 C3965 0.930 . S
H3978 C3966 0.956 . S
H3979 C3966 0.961 . S
H3980 C3966 0.961 . S
H3981 C3967 0.958 . S
H3982 C3967 0.961 . S
H3983 C3967 0.960 . S
C3984 C3985 1.391 . S
C3984 C3986 1.394 . S
C3984 H4000 0.931 . S
C3985 C3984 1.391 . S
C3985 C3989 1.376 . S
C3986 C3984 1.394 . S
C3986 C3987 1.369 . S
C3986 C3990 1.531 . S
C3987 C3986 1.369 . S
C3987 C3988 1.410 . S
C3987 C3995 1.503 . S
C3988 C3987 1.410 . S
C3988 C3989 1.392 . S
C3988 C3991 1.511 . S
C3989 C3985 1.376 . S
C3989 C3988 1.392 . S
C3989 H4001 0.929 . S
C3990 C3986 1.531 . S
C3990 H4002 0.960 . S
C3990 H4003 0.962 . S
C3990 H4004 0.960 . S
C3991 C3988 1.511 . S
C3991 H4005 0.961 . S
C3991 H4006 0.961 . S
C3991 H4007 0.961 . S
C3992 C3993 1.370 . S
C3992 C3994 1.363 . S
C3992 H4008 0.931 . S
C3993 C3992 1.370 . S
C3993 C3997 1.408 . S
C3994 C3992 1.363 . S
C3994 C3995 1.370 . S
C3994 C3998 1.524 . S
C3995 C3987 1.503 . S
C3995 C3994 1.370 . S
C3995 C3996 1.403 . S
C3996 C3995 1.403 . S
C3996 C3997 1.404 . S
C3996 C3999 1.539 . S
C3997 C3993 1.408 . S
C3997 C3996 1.404 . S
C3997 H4009 0.930 . S
C3998 C3994 1.524 . S
C3998 H4010 0.956 . S
C3998 H4011 0.961 . S
C3998 H4012 0.961 . S
C3999 C3996 1.539 . S
C3999 H4013 0.958 . S
C3999 H4014 0.961 . S
C3999 H4015 0.960 . S
H4000 C3984 0.931 . S
H4001 C3989 0.929 . S
H4002 C3990 0.960 . S
H4003 C3990 0.962 . S
H4004 C3990 0.960 . S
H4005 C3991 0.961 . S
H4006 C3991 0.961 . S
H4007 C3991 0.961 . S
H4008 C3992 0.931 . S
H4009 C3997 0.930 . S
H4010 C3998 0.956 . S
H4011 C3998 0.961 . S
H4012 C3998 0.961 . S
H4013 C3999 0.958 . S
H4014 C3999 0.961 . S
H4015 C3999 0.960 . S
C4016 C4017 1.391 . S
C4016 C4018 1.394 . S
C4016 H4032 0.931 . S
C4017 C4016 1.391 . S
C4017 C4021 1.376 . S
C4018 C4016 1.394 . S
C4018 C4019 1.369 . S
C4018 C4022 1.531 . S
C4019 C4018 1.369 . S
C4019 C4020 1.410 . S
C4019 C4027 1.503 . S
C4020 C4019 1.410 . S
C4020 C4021 1.392 . S
C4020 C4023 1.511 . S
C4021 C4017 1.376 . S
C4021 C4020 1.392 . S
C4021 H4033 0.929 . S
C4022 C4018 1.531 . S
C4022 H4034 0.960 . S
C4022 H4035 0.962 . S
C4022 H4036 0.960 . S
C4023 C4020 1.511 . S
C4023 H4037 0.961 . S
C4023 H4038 0.961 . S
C4023 H4039 0.961 . S
C4024 C4025 1.370 . S
C4024 C4026 1.363 . S
C4024 H4040 0.931 . S
C4025 C4024 1.370 . S
C4025 C4029 1.408 . S
C4026 C4024 1.363 . S
C4026 C4027 1.370 . S
C4026 C4030 1.524 . S
C4027 C4019 1.503 . S
C4027 C4026 1.370 . S
C4027 C4028 1.403 . S
C4028 C4027 1.403 . S
C4028 C4029 1.404 . S
C4028 C4031 1.539 . S
C4029 C4025 1.408 . S
C4029 C4028 1.404 . S
C4029 H4041 0.930 . S
C4030 C4026 1.524 . S
C4030 H4042 0.956 . S
C4030 H4043 0.961 . S
C4030 H4044 0.961 . S
C4031 C4028 1.539 . S
C4031 H4045 0.958 . S
C4031 H4046 0.961 . S
C4031 H4047 0.960 . S
H4032 C4016 0.931 . S
H4033 C4021 0.929 . S
H4034 C4022 0.960 . S
H4035 C4022 0.962 . S
H4036 C4022 0.960 . S
H4037 C4023 0.961 . S
H4038 C4023 0.961 . S
H4039 C4023 0.961 . S
H4040 C4024 0.931 . S
H4041 C4029 0.930 . S
H4042 C4030 0.956 . S
H4043 C4030 0.961 . S
H4044 C4030 0.961 . S
H4045 C4031 0.958 . S
H4046 C4031 0.961 . S
H4047 C4031 0.960 . S
C977 C109 2.025 . S
C985 C346 1.970 . S
C1009 C61 1.493 . S
C1017 C385 1.675 . S
C1041 C74 1.369 . S
C1049 C426 1.403 . S
C1081 C471 1.424 . S
C1073 C96 1.469 . S
C1105 C25 1.912 . S
C1113 C515 1.954 . S
C1145 C546 1.300 . S
C1137 C40 1.340 . S
C1177 C594 1.949 . S
C1169 C46 1.933 . S
C1201 C5 1.230 . S
C1209 C622 1.595 . S
C1241 C354 1.354 . S
C1233 C229 1.063 . S
C1265 C249 1.416 . S
C1273 C395 1.381 . S
C1305 C434 1.361 . S
C1297 C271 1.315 1_545 S
C1337 C466 1.597 . S
C1329 C172 1.517 . S
C1361 C236 0.177 . S
C1369 C502 0.213 . S
C1401 C554 2.370 . S
C1393 C242 2.344 . S
C1433 C591 0.960 . S
C1425 C278 0.938 . S
C1465 C625 1.957 . S
C1457 C179 1.959 . S
C1497 C351 1.809 . S
C1489 C159 1.534 . S
C1521 C285 1.709 . S
C1529 C665 1.844 . S
C1561 C711 1.084 . S
C1553 C333 1.146 . S
C1593 C746 1.482 1_655 S
C1585 C320 1.498 . S
C1617 C123 1.846 . S
C1625 C635 1.757 . S
C1649 C138 1.393 . S
C1657 C431 1.382 . S
C1681 C326 1.344 . S
C1689 C794 1.355 . S
C1721 C822 0.450 . S
C1713 C298 0.513 . S
C1753 C355 1.928 1_565 S
C1745 C67 1.956 . S
C1785 C834 1.625 . S
C1777 C110 1.642 . S
C1809 C88 1.418 . S
C1817 C435 1.411 . S
C1841 C75 1.300 . S
C1849 C782 1.380 . S
C1881 C506 1.842 . S
C1873 C11 1.884 . S
C1905 C47 1.301 . S
C1913 C715 1.338 . S
C1945 C585 1.873 . S
C1937 C32 1.859 . S
C1977 C871 1.693 . S
C1969 C26 1.756 . S
C2009 C345 1.511 . S
C2001 C152 1.463 . S
C2041 C826 1.370 . S
C2033 C319 1.424 . S
C2065 C124 1.296 . S
C2073 C425 1.327 . S
C2097 C284 1.592 . S
C2105 C795 1.613 . S
C2129 C145 0.895 . S
C2137 C511 0.135 . S
C2169 C705 2.264 . S
C2161 C312 2.232 . S
C2193 C117 0.891 . S
C2201 C582 0.896 . S
C2225 C291 1.888 . S
C2233 C874 1.902 . S
C2257 C194 1.978 1_556 S
C2265 C342 1.918 . S
C2289 C180 1.825 . S
C2297 C674 1.777 . S
C2321 C263 1.089 . S
C2329 C542 1.042 . S
C2353 C243 1.219 . S
C2361 C755 1.381 . S
C2393 C866 1.826 . S
C2385 C277 1.774 . S
C2417 C215 1.262 . S
C2425 C422 1.342 . S
C2457 C465 1.237 . S
C2449 C256 1.183 . S
C2489 C391 0.495 . S
C2481 C200 0.605 . S
C2513 C81 2.030 . S
C2521 C906 1.961 . S
C2553 C825 1.686 . S
C2545 C89 1.513 . S
C2577 C102 1.378 . S
C2585 C946 1.404 1_556 S
C2609 C68 1.459 . S
C2617 C791 1.432 . S
C2641 C53 1.910 . S
C2649 C675 1.954 . S
C2681 C706 1.291 . S
C2673 C12 1.337 . S
C2713 C754 1.956 . S
C2705 C18 1.936 . S
C2745 C862 1.603 . S
C2737 C33 1.218 . S
C2777 C914 1.346 . S
C2769 C257 1.073 . S
C2801 C193 1.405 . S
C2809 C835 1.387 . S
C2841 C954 1.352 . S
C2833 C201 1.316 . S
C2873 C786 1.603 . S
C2865 C214 1.572 . S
C2905 C662 0.207 . S
C2897 C264 0.151 . S
C2929 C186 2.339 . S
C2937 C714 2.361 . S
C2969 C751 0.975 . S
C2961 C208 0.906 . S
C2993 C221 1.966 . S
C3001 C865 1.951 . S
C3033 C911 1.830 . S
C3025 C313 1.423 . S
C3057 C131 1.704 . S
C3065 C505 1.843 . S
C3097 C551 1.108 . S
C3089 C151 1.108 . S
C3129 C586 1.482 . S
C3121 C166 1.524 . S
C3161 C875 1.751 . S
C3153 C305 1.841 . S
C3185 C292 1.409 . S
C3193 C951 1.363 . S
C3225 C474 1.346 . S
C3217 C144 1.347 . S
C3257 C382 0.456 . S
C3249 C116 0.417 . S
C3281 C95 1.950 . S
C3289 C915 1.958 . S
C3321 C394 1.624 . S
C3313 C82 1.643 . S
C3345 C60 1.421 . S
C3353 C955 1.416 . S
C3377 C103 1.246 . S
C3385 C462 1.366 . S
C3409 C39 1.884 . S
C3417 C666 1.842 1_556 S
C3449 C555 1.336 . S
C3441 C19 1.304 . S
C3473 C4 1.846 . S
C3481 C745 1.878 . S
C3505 C54 1.747 . S
C3513 C631 1.703 . S
C3545 C905 1.517 . S
C3537 C334 1.475 . S
C3569 C165 1.416 . S
C3577 C386 1.376 . S
C3609 C945 1.308 . S
C3601 C306 1.328 . S
C3633 C130 1.615 . S
C3641 C475 1.612 . S
C3665 C327 0.878 . S
C3673 C671 0.132 . S
C3705 C545 2.262 . S
C3697 C158 2.229 1_556 S
C3729 C299 0.939 . S
C3737 C742 0.891 1_655 S
C3769 C634 1.896 . S
C3761 C137 1.867 . S
C3801 C902 1.920 . S
C3793 C250 1.988 . S
C3833 C514 1.775 1_655 S
C3825 C222 1.827 . S
C3857 C235 1.084 . S
C3865 C702 1.046 . S
C3897 C595 1.375 . S
C3889 C187 1.235 . S
C3921 C207 1.773 . S
C3929 C626 1.825 . S
C3953 C173 1.283 . S
C3961 C942 1.353 . S
C3993 C785 1.248 . S
C3985 C228 1.056 1_565 S
C4025 C831 0.535 . S
C4017 C270 0.467 . S
