# Generated by pormake.
# Topology scu, (8,4)-cn, num edge types: 1
# Building blocks:
#     Node 0, Type 0, BuildingBlock: VETTIZ_charged_sbu_0, # of connection points: 8
#     Node 1, Type 1, BuildingBlock: NAWXER_clean_sbu_0, # of connection points: 4
#     Node 2, Type 1, BuildingBlock: NAWXER_clean_sbu_0, # of connection points: 4
#     Edge 3, Type (0, 1), BuildingBlock: TEMPAE_clean_linker_10, # of connection points: 2
#     Edge 4, Type (0, 1), BuildingBlock: TEMPAE_clean_linker_10, # of connection points: 2
#     Edge 5, Type (0, 1), BuildingBlock: TEMPAE_clean_linker_10, # of connection points: 2
#     Edge 6, Type (0, 1), BuildingBlock: TEMPAE_clean_linker_10, # of connection points: 2
#     Edge 7, Type (0, 1), BuildingBlock: TEMPAE_clean_linker_10, # of connection points: 2
#     Edge 8, Type (0, 1), BuildingBlock: TEMPAE_clean_linker_10, # of connection points: 2
#     Edge 9, Type (0, 1), BuildingBlock: TEMPAE_clean_linker_10, # of connection points: 2
#     Edge 10, Type (0, 1), BuildingBlock: TEMPAE_clean_linker_10, # of connection points: 2
# Relax obj value: 0.013
# Max RMSD: 0.059
# Mean RMSD: 0.052
data_MOF--net-scu--node1-VETTIZ_charged_sbu_0--node2-NAWXER_clean_sbu_0--edge1-TEMPAE_clean_linker_10
_symmetry_space_group_name_H-M    P1
_symmetry_Int_Tables_number       1
_symmetry_cell_setting            triclinic
loop_
_symmetry_equiv_pos_as_xyz
'x, y, z'
_cell_length_a     25.486617
_cell_length_b     24.519791
_cell_length_c     19.84942
_cell_angle_alpha  89.999974
_cell_angle_beta   90.032405
_cell_angle_gamma 90.573211
loop_
_atom_site_label
_atom_site_type_symbol
_atom_site_fract_x
_atom_site_fract_y
_atom_site_fract_z
_atom_type_partial_charge
Fe0 Fe 0.00596 1.02411 0.0954 0.0
O1 O 0.95417 0.02953 0.02056 0.0
Fe2 Fe 0.11229 0.96277 0.02162 0.0
Fe3 Fe 0.89983 0.08545 0.02102 0.0
O4 O 0.05794 1.01866 0.02087 0.0
O5 O 0.05803 1.01894 0.01384 0.0
O6 O 0.95411 0.02928 0.01352 0.0
Fe7 Fe 0.00618 1.02416 0.93822 0.0
C8 C 0.89301 1.02155 0.15121 0.0
O9 O 0.0172 0.10678 0.09647 0.0
O10 O 0.93399 0.13187 0.09772 0.0
O11 O 0.06998 1.01768 0.87061 0.0
O12 O 0.14187 1.00532 0.94046 0.0
O13 O 0.14138 1.01207 0.09634 0.0
O14 O 0.06882 1.0209 0.16479 0.0
O15 O 0.934 0.13622 0.95125 0.0
O16 O 0.01614 0.1079 0.93436 0.0
C17 C 0.11875 0.0267 0.15184 0.0
O18 O 0.99625 0.94043 0.93411 0.0
O19 O 0.0783 0.91203 0.9516 0.0
O20 O 0.94291 0.02736 0.16443 0.0
O21 O 0.87053 0.03614 0.09555 0.0
C22 C 0.98223 0.14117 0.11088 0.0
C23 C 0.98019 0.14347 0.92847 0.0
C24 C 0.8921 0.03232 0.88185 0.0
O25 O 0.87049 0.04295 0.93964 0.0
O26 O 0.9426 0.03078 0.87022 0.0
C27 C 0.12044 1.01609 0.88257 0.0
O28 O 0.07793 0.91633 0.09809 0.0
O29 O 0.99472 0.94143 0.09649 0.0
C30 C 0.03219 0.90484 0.92845 0.0
C31 C 0.02967 0.90705 0.11107 0.0
C32 C 0.03692 0.59912 0.58995 0.0
C33 C 0.05186 0.45826 0.4146 0.0
O34 O 0.07932 0.58433 0.56162 0.0
Zn35 Zn 0.04816 0.52956 0.50164 0.0
O36 O 0.99325 0.57739 0.57178 0.0
Zn37 Zn 0.96383 0.51868 0.50168 0.0
O38 O 0.93277 0.46392 0.5617 0.0
O39 O 0.01886 0.47086 0.57176 0.0
O40 O 1.00477 0.46821 0.43271 0.0
O41 O 0.09009 0.48389 0.44167 0.0
O42 O 0.00713 0.58004 0.43271 0.0
O43 O 0.92182 0.56436 0.44176 0.0
C44 C 0.97521 0.44913 0.58997 0.0
C45 C 0.96001 0.58999 0.41465 0.0
C46 C 0.58305 0.0566 0.57509 0.0
C47 C 0.44235 0.07445 0.40963 0.0
O48 O 0.56216 1.01114 0.55752 0.0
Zn49 Zn 0.50125 0.98124 0.49454 0.0
O50 O 0.56333 0.10108 0.55459 0.0
Zn51 Zn 0.51094 0.06853 0.49442 0.0
O52 O 0.4503 0.03873 0.55781 0.0
O53 O 0.44909 0.9488 0.55502 0.0
O54 O 0.46841 0.11352 0.43611 0.0
O55 O 0.45223 0.02497 0.42583 0.0
O56 O 0.54353 0.93615 0.43614 0.0
O57 O 0.55972 0.02468 0.42561 0.0
C58 C 0.42947 0.9933 0.57557 0.0
C59 C 0.56954 0.97517 0.40949 0.0
C60 C 0.96088 0.21929 0.18736 0.0
C61 C 0.99794 0.19058 0.14955 0.0
C62 C 0.97602 0.26361 0.22813 0.0
C63 C 0.0294 0.28046 0.23019 0.0
C64 C 0.06682 0.25245 0.19089 0.0
C65 C 0.05074 0.20761 0.15153 0.0
C66 C 0.93497 0.29164 0.27025 0.0
C67 C 0.12389 0.26958 0.19074 0.0
C68 C 0.04773 0.42469 0.29691 0.0
C69 C 0.05978 0.41489 0.36459 0.0
C70 C 0.04134 0.3813 0.25124 0.0
C71 C 0.04566 0.32687 0.27451 0.0
C72 C 0.06038 0.31707 0.34232 0.0
C73 C 0.06737 0.36134 0.38657 0.0
C74 C 0.02669 0.39364 0.17919 0.0
C75 C 0.0648 0.2598 0.36953 0.0
H76 H 0.92015 0.20616 0.18665 0.0
H77 H 0.07968 0.18578 0.1223 0.0
H78 H 0.94576 0.28932 0.32434 0.0
H79 H 0.93312 0.33546 0.25667 0.0
H80 H 0.89531 0.2732 0.26359 0.0
H81 H 0.14781 0.24449 0.15596 0.0
H82 H 0.12758 0.31302 0.17563 0.0
H83 H 0.14044 0.266 0.24222 0.0
H84 H 0.04074 0.46618 0.28049 0.0
H85 H 0.07533 0.35391 0.43945 0.0
H86 H 0.98502 0.38214 0.17048 0.0
H87 H 0.05082 0.36929 0.14397 0.0
H88 H 0.03183 0.43758 0.16693 0.0
H89 H 0.02528 0.2404 0.37095 0.0
H90 H 0.08159 0.25909 0.42118 0.0
H91 H 0.08966 0.23463 0.33614 0.0
C92 C 0.82382 0.95436 0.17882 0.0
C93 C 0.85803 0.99572 0.20094 0.0
C94 C 0.7801 0.93879 0.21713 0.0
C95 C 0.77018 0.96581 0.27866 0.0
C96 C 0.80785 1.00334 0.30464 0.0
C97 C 0.85165 1.01799 0.2652 0.0
C98 C 0.74173 0.89777 0.18814 0.0
C99 C 0.79927 0.03197 0.37093 0.0
C100 C 0.62942 1.00236 0.31715 0.0
C101 C 0.61628 0.96511 0.36792 0.0
C102 C 0.67884 1.00164 0.2865 0.0
C103 C 0.71653 0.96327 0.30808 0.0
C104 C 0.7028 0.92402 0.35755 0.0
C105 C 0.6525 0.92521 0.38674 0.0
C106 C 0.69134 0.04347 0.23278 0.0
C107 C 0.74196 0.88289 0.38243 0.0
H108 H 0.82936 0.93672 0.12923 0.0
H109 H 0.87825 0.04994 0.28217 0.0
H110 H 0.72704 0.86961 0.22774 0.0
H111 H 0.70745 0.91959 0.16718 0.0
H112 H 0.75963 0.87336 0.14713 0.0
H113 H 0.83567 0.05231 0.38941 0.0
H114 H 0.76864 0.06342 0.36458 0.0
H115 H 0.78518 1.00275 0.40974 0.0
H116 H 0.60146 0.03341 0.30301 0.0
H117 H 0.64277 0.8972 0.42721 0.0
H118 H 0.70512 1.02294 0.18632 0.0
H119 H 0.72345 0.07086 0.25035 0.0
H120 H 0.65689 0.06883 0.21981 0.0
H121 H 0.76411 0.86489 0.33993 0.0
H122 H 0.72272 0.84949 0.41141 0.0
H123 H 0.77079 0.90364 0.41586 0.0
C124 C 0.05094 0.82889 0.18756 0.0
C125 C 0.0139 0.85765 0.14972 0.0
C126 C 0.03578 0.78458 0.22829 0.0
C127 C 0.98238 0.76779 0.2303 0.0
C128 C 0.94497 0.79585 0.19097 0.0
C129 C 0.96108 0.84067 0.15164 0.0
C130 C 0.07681 0.75649 0.27043 0.0
C131 C 0.88789 0.77878 0.19076 0.0
C132 C 0.96399 0.62356 0.29696 0.0
C133 C 0.95202 0.63335 0.36465 0.0
C134 C 0.97035 0.66696 0.2513 0.0
C135 C 0.96609 0.72139 0.27459 0.0
C136 C 0.95144 0.73118 0.3424 0.0
C137 C 0.94447 0.68691 0.38664 0.0
C138 C 0.98495 0.65462 0.17926 0.0
C139 C 0.94707 0.78845 0.36962 0.0
H140 H 0.09169 0.84197 0.18689 0.0
H141 H 0.93216 0.86254 0.12238 0.0
H142 H 0.06605 0.75881 0.32452 0.0
H143 H 0.0786 0.71267 0.25683 0.0
H144 H 0.11649 0.77488 0.26382 0.0
H145 H 0.86397 0.80393 0.15601 0.0
H146 H 0.88415 0.73535 0.17559 0.0
H147 H 0.87137 0.78232 0.24224 0.0
H148 H 0.97095 0.58207 0.28053 0.0
H149 H 0.93657 0.69434 0.43952 0.0
H150 H 0.02662 0.66606 0.17057 0.0
H151 H 0.96083 0.67901 0.14403 0.0
H152 H 0.97974 0.61069 0.16697 0.0
H153 H 0.9866 0.80781 0.3711 0.0
H154 H 0.93029 0.78916 0.42126 0.0
H155 H 0.92222 0.81365 0.33621 0.0
C156 C 0.18742 0.09442 0.17963 0.0
C157 C 0.15357 0.05273 0.20165 0.0
C158 C 0.23113 0.11021 0.2179 0.0
C159 C 0.24139 0.08309 0.27928 0.0
C160 C 0.20404 0.04521 0.30519 0.0
C161 C 0.16025 0.03034 0.26579 0.0
C162 C 0.26915 0.15159 0.18898 0.0
C163 C 0.21297 1.01646 0.37134 0.0
C164 C 0.38245 0.04724 0.31725 0.0
C165 C 0.3955 0.08441 0.36816 0.0
C166 C 0.33296 0.04779 0.28669 0.0
C167 C 0.29511 0.08588 0.30853 0.0
C168 C 0.30876 0.12507 0.35814 0.0
C169 C 0.35912 0.12406 0.38722 0.0
C170 C 0.32056 1.00606 0.2328 0.0
C171 C 0.26943 0.16589 0.38332 0.0
H172 H 0.18165 0.11214 0.13011 0.0
H173 H 0.13393 0.99813 0.28267 0.0
H174 H 0.28382 0.1797 0.22867 0.0
H175 H 0.30349 0.13007 0.16774 0.0
H176 H 0.25096 0.17602 0.14818 0.0
H177 H 0.17674 0.99584 0.38984 0.0
H178 H 0.24377 0.98523 0.36476 0.0
H179 H 0.22699 0.04567 0.41023 0.0
H180 H 0.41053 1.01638 0.30294 0.0
H181 H 0.3688 0.152 0.42781 0.0
H182 H 0.30651 0.02664 0.18649 0.0
H183 H 0.28867 0.9784 0.25035 0.0
H184 H 0.35514 0.98098 0.21959 0.0
H185 H 0.24705 0.18386 0.34096 0.0
H186 H 0.28857 0.19934 0.41236 0.0
H187 H 0.24082 0.14489 0.41677 0.0
C188 C 0.05034 0.80783 0.90072 0.0
C189 C 0.02349 0.85604 0.88598 0.0
C190 C 0.05109 0.76427 0.8549 0.0
C191 C 0.02531 0.76946 0.79207 0.0
C192 C 0.99656 0.81735 0.77787 0.0
C193 C 0.99555 0.85992 0.82538 0.0
C194 C 0.08098 0.71342 0.87286 0.0
C195 C 0.96898 0.82469 0.71122 0.0
C196 C 0.07512 0.68214 0.64689 0.0
C197 C 0.03633 0.64133 0.64341 0.0
C198 C 0.07179 0.72444 0.69466 0.0
C199 C 0.02931 0.72515 0.74085 0.0
C200 C 0.99087 0.68321 0.73853 0.0
C201 C 0.99457 0.64221 0.68952 0.0
C202 C 0.11323 0.76888 0.69502 0.0
C203 C 0.94569 0.68169 0.78774 0.0
H204 H 0.07201 0.80479 0.94758 0.0
H205 H 0.97551 0.8975 0.81335 0.0
H206 H 0.05568 0.67675 0.86594 0.0
H207 H 0.11513 0.70912 0.83871 0.0
H208 H 0.09545 0.71418 0.92566 0.0
H209 H 0.94661 0.86332 0.70904 0.0
H210 H 0.99827 0.82485 0.66986 0.0
H211 H 0.94156 0.79011 0.7018 0.0
H212 H 0.10719 0.68188 0.61106 0.0
H213 H 0.96463 0.61053 0.68745 0.0
H214 H 0.13323 0.77013 0.74465 0.0
H215 H 0.09463 0.80915 0.68741 0.0
H216 H 0.14323 0.76295 0.65517 0.0
H217 H 0.96084 0.68129 0.84016 0.0
H218 H 0.91986 0.64541 0.78037 0.0
H219 H 0.92169 0.7189 0.78211 0.0
C220 C 0.14789 0.99747 0.76366 0.0
C221 C 0.1579 1.02186 0.82627 0.0
C222 C 0.1883 0.9919 0.71586 0.0
C223 C 0.23951 1.01123 0.73147 0.0
C224 C 0.24877 0.03871 0.79307 0.0
C225 C 0.20787 0.04376 0.83951 0.0
C226 C 0.17682 0.96302 0.65029 0.0
C227 C 0.30256 0.06058 0.81146 0.0
C228 C 0.36342 0.95211 0.6553 0.0
C229 C 0.37915 0.99454 0.61246 0.0
C230 C 0.31646 0.95572 0.69225 0.0
C231 C 0.28426 1.00225 0.68481 0.0
C232 C 0.29859 0.0435 0.63845 0.0
C233 C 0.34605 0.03941 0.60346 0.0
C234 C 0.30251 0.91101 0.74153 0.0
C235 C 0.26493 0.09313 0.62779 0.0
H236 H 0.10946 0.97989 0.75365 0.0
H237 H 0.21561 0.06292 0.88781 0.0
H238 H 0.19312 0.98651 0.60721 0.0
H239 H 0.19601 0.92261 0.65038 0.0
H240 H 0.13405 0.95669 0.6422 0.0
H241 H 0.30278 0.08213 0.8607 0.0
H242 H 0.33084 0.02653 0.81405 0.0
H243 H 0.31678 0.08927 0.77215 0.0
H244 H 0.38866 0.91716 0.6617 0.0
H245 H 0.35733 0.07171 0.56889 0.0
H246 H 0.26157 0.89676 0.73323 0.0
H247 H 0.30487 0.92718 0.79368 0.0
H248 H 0.32912 0.87557 0.73733 0.0
H249 H 0.22326 0.08095 0.62059 0.0
H250 H 0.27781 0.11752 0.5835 0.0
H251 H 0.26691 0.11955 0.67312 0.0
C252 C 0.96219 0.24051 0.90081 0.0
C253 C 0.98897 0.19227 0.88606 0.0
C254 C 0.96143 0.28407 0.85498 0.0
C255 C 0.98712 0.27883 0.79213 0.0
C256 C 0.01581 0.23092 0.77794 0.0
C257 C 0.01684 0.18835 0.82546 0.0
C258 C 0.93159 0.33494 0.87293 0.0
C259 C 0.0433 0.22353 0.71127 0.0
C260 C 0.9371 0.36612 0.64697 0.0
C261 C 0.97589 0.40692 0.64344 0.0
C262 C 0.9405 0.32382 0.69475 0.0
C263 C 0.98305 0.32311 0.74089 0.0
C264 C 0.0215 0.36504 0.7385 0.0
C265 C 0.01772 0.40603 0.68949 0.0
C266 C 0.89905 0.27939 0.69517 0.0
C267 C 0.06676 0.36657 0.78765 0.0
H268 H 0.94056 0.24357 0.94767 0.0
H269 H 0.03682 0.15075 0.81343 0.0
H270 H 0.9569 0.37159 0.86594 0.0
H271 H 0.89738 0.33923 0.83884 0.0
H272 H 0.91722 0.33422 0.92576 0.0
H273 H 0.06568 0.18491 0.70912 0.0
H274 H 0.01395 0.22332 0.66995 0.0
H275 H 0.07069 0.25811 0.70177 0.0
H276 H 0.90497 0.36638 0.61118 0.0
H277 H 0.04767 0.43771 0.68738 0.0
H278 H 0.87912 0.27817 0.74482 0.0
H279 H 0.91763 0.23911 0.68758 0.0
H280 H 0.869 0.28531 0.65535 0.0
H281 H 0.0517 0.36701 0.84009 0.0
H282 H 0.0926 0.40283 0.78022 0.0
H283 H 0.09073 0.32933 0.78202 0.0
C284 C 0.86483 0.05189 0.76312 0.0
C285 C 0.85482 0.02679 0.82529 0.0
C286 C 0.82447 0.05779 0.71526 0.0
C287 C 0.77331 0.03805 0.73035 0.0
C288 C 0.76409 1.00985 0.79145 0.0
C289 C 0.80494 1.0045 0.83797 0.0
C290 C 0.83592 0.08746 0.65023 0.0
C291 C 0.71038 0.98752 0.80927 0.0
C292 C 0.64913 0.09745 0.6551 0.0
C293 C 0.63354 0.05539 0.61163 0.0
C294 C 0.69617 0.09369 0.69195 0.0
C295 C 0.72857 0.04739 0.68373 0.0
C296 C 0.71441 1.00661 0.63665 0.0
C297 C 0.66687 1.01082 0.60179 0.0
C298 C 0.70995 0.1379 0.74198 0.0
C299 C 0.7483 0.95729 0.62512 0.0
H300 H 0.90319 0.06978 0.75356 0.0
H301 H 0.79722 0.98483 0.88595 0.0
H302 H 0.81962 0.0645 0.6067 0.0
H303 H 0.81672 0.12786 0.65107 0.0
H304 H 0.87869 0.09391 0.6423 0.0
H305 H 0.71019 0.96539 0.85812 0.0
H306 H 0.68195 1.02141 0.81239 0.0
H307 H 0.69631 0.95923 0.76941 0.0
H308 H 0.62371 0.13217 0.66214 0.0
H309 H 0.65567 0.97884 0.56671 0.0
H310 H 0.75085 0.15238 0.73403 0.0
H311 H 0.7076 0.12116 0.79386 0.0
H312 H 0.68323 0.17329 0.7383 0.0
H313 H 0.78993 0.96974 0.61831 0.0
H314 H 0.73556 0.93343 0.5803 0.0
H315 H 0.74635 0.93027 0.6699 0.0
loop_
_geom_bond_atom_site_label_1
_geom_bond_atom_site_label_2
_geom_bond_distance
_geom_bond_site_symmetry_2
_ccdc_geom_bond_type
Fe0 O1 1.894 . S
Fe0 O4 1.707 1_645 S
Fe0 O9 2.077 1_655 S
Fe0 O14 1.920 1_655 S
Fe0 O20 2.093 1_545 S
Fe0 O29 1.938 1_545 S
O1 Fe0 1.894 . S
O1 Fe3 1.715 1_554 S
Fe2 O4 1.886 . S
Fe2 O5 1.715 1_554 S
Fe2 O12 1.935 1_554 S
Fe2 O13 2.077 . S
Fe2 O19 1.935 1_554 S
Fe2 O28 2.077 . S
Fe3 O1 1.715 1_556 S
Fe3 O6 1.886 . S
Fe3 O10 1.935 1_556 S
Fe3 O15 2.077 . S
Fe3 O21 1.935 1_556 S
Fe3 O25 2.077 . S
O4 Fe0 1.707 1_465 S
O4 Fe2 1.886 . S
O5 Fe2 1.715 1_556 S
O5 Fe7 1.894 . S
O6 Fe3 1.886 . S
O6 Fe7 1.707 1_645 S
Fe7 O5 1.894 . S
Fe7 O6 1.707 1_465 S
Fe7 O11 2.077 1_565 S
Fe7 O16 1.920 1_565 S
Fe7 O18 2.093 1_455 S
Fe7 O26 1.938 1_455 S
C8 O20 1.381 1_545 S
C8 O21 1.421 . S
O9 Fe0 2.077 1_455 S
O9 C22 1.381 1_455 S
O10 Fe3 1.935 1_554 S
O10 C22 1.421 . S
O11 Fe7 2.077 1_545 S
O11 C27 1.381 1_545 S
O12 Fe2 1.935 1_556 S
O12 C27 1.421 . S
O13 Fe2 2.077 . S
O13 C17 1.381 . S
O14 Fe0 1.920 1_455 S
O14 C17 1.421 1_545 S
O15 Fe3 2.077 . S
O15 C23 1.381 . S
O16 Fe7 1.920 1_545 S
O16 C23 1.421 1_455 S
C17 O13 1.381 . S
C17 O14 1.421 1_565 S
O18 Fe7 2.093 1_655 S
O18 C30 1.381 1_655 S
O19 Fe2 1.935 1_556 S
O19 C30 1.421 . S
O20 Fe0 2.093 1_565 S
O20 C8 1.381 1_565 S
O21 Fe3 1.935 1_554 S
O21 C8 1.421 . S
C22 O9 1.381 1_655 S
C22 O10 1.421 . S
C23 O15 1.381 . S
C23 O16 1.421 1_655 S
C24 O25 1.381 . S
C24 O26 1.421 1_545 S
O25 Fe3 2.077 . S
O25 C24 1.381 . S
O26 Fe7 1.938 1_655 S
O26 C24 1.421 1_565 S
C27 O11 1.381 1_565 S
C27 O12 1.421 . S
O28 Fe2 2.077 . S
O28 C31 1.381 . S
O29 Fe0 1.938 1_565 S
O29 C31 1.421 1_655 S
C30 O18 1.381 1_455 S
C30 O19 1.421 . S
C31 O28 1.381 . S
C31 O29 1.421 1_455 S
C32 O34 1.252 . S
C32 O36 1.253 1_455 S
C33 O40 1.245 . S
C33 O41 1.260 1_655 S
O34 C32 1.252 . S
O34 Zn35 2.028 . S
Zn35 O34 2.028 . S
Zn35 O39 2.035 . S
Zn35 O41 2.035 . S
Zn35 O42 2.028 . S
O36 C32 1.253 1_655 S
O36 Zn37 2.035 . S
Zn37 O36 2.035 . S
Zn37 O38 2.028 . S
Zn37 O40 2.028 . S
Zn37 O43 2.035 . S
O38 Zn37 2.028 . S
O38 C44 1.245 . S
O39 Zn35 2.035 . S
O39 C44 1.260 1_455 S
O40 C33 1.245 . S
O40 Zn37 2.028 . S
O41 C33 1.260 1_455 S
O41 Zn35 2.035 . S
O42 Zn35 2.028 . S
O42 C45 1.252 . S
O43 Zn37 2.035 . S
O43 C45 1.253 1_655 S
C44 O38 1.245 . S
C44 O39 1.260 1_655 S
C45 O42 1.252 . S
C45 O43 1.253 1_455 S
C46 O48 1.245 . S
C46 O50 1.260 1_565 S
C47 O54 1.252 . S
C47 O55 1.253 1_545 S
O48 C46 1.245 . S
O48 Zn49 2.028 . S
Zn49 O48 2.028 . S
Zn49 O53 2.035 . S
Zn49 O55 2.035 . S
Zn49 O56 2.028 . S
O50 C46 1.260 1_545 S
O50 Zn51 2.035 . S
Zn51 O50 2.035 . S
Zn51 O52 2.028 . S
Zn51 O54 2.028 . S
Zn51 O57 2.035 . S
O52 Zn51 2.028 . S
O52 C58 1.252 . S
O53 Zn49 2.035 . S
O53 C58 1.253 1_565 S
O54 C47 1.252 . S
O54 Zn51 2.028 . S
O55 C47 1.253 1_565 S
O55 Zn49 2.035 . S
O56 Zn49 2.028 . S
O56 C59 1.245 . S
O57 Zn51 2.035 . S
O57 C59 1.260 1_545 S
C58 O52 1.252 . S
C58 O53 1.253 1_545 S
C59 O56 1.245 . S
C59 O57 1.260 1_565 S
C60 C61 1.391 1_655 S
C60 C62 1.394 . S
C60 H76 0.931 . S
C61 C60 1.391 1_455 S
C61 C65 1.376 . S
C62 C60 1.394 . S
C62 C63 1.369 1_655 S
C62 C66 1.531 . S
C63 C62 1.369 1_455 S
C63 C64 1.410 . S
C63 C71 1.503 . S
C64 C63 1.410 . S
C64 C65 1.392 . S
C64 C67 1.511 . S
C65 C61 1.376 . S
C65 C64 1.392 . S
C65 H77 0.929 . S
C66 C62 1.531 . S
C66 H78 0.960 . S
C66 H79 0.962 . S
C66 H80 0.960 . S
C67 C64 1.511 . S
C67 H81 0.961 . S
C67 H82 0.961 . S
C67 H83 0.961 . S
C68 C69 1.370 1_655 S
C68 C70 1.363 . S
C68 H84 0.931 . S
C69 C68 1.370 1_455 S
C69 C73 1.408 . S
C70 C68 1.363 . S
C70 C71 1.370 1_655 S
C70 C74 1.524 . S
C71 C63 1.503 . S
C71 C70 1.370 1_455 S
C71 C72 1.403 . S
C72 C71 1.403 . S
C72 C73 1.404 . S
C72 C75 1.539 . S
C73 C69 1.408 . S
C73 C72 1.404 . S
C73 H85 0.930 . S
C74 C70 1.524 . S
C74 H86 0.956 . S
C74 H87 0.961 . S
C74 H88 0.961 . S
C75 C72 1.539 . S
C75 H89 0.958 . S
C75 H90 0.961 . S
C75 H91 0.960 . S
H76 C60 0.931 . S
H77 C65 0.929 . S
H78 C66 0.960 . S
H79 C66 0.962 . S
H80 C66 0.960 . S
H81 C67 0.961 . S
H82 C67 0.961 . S
H83 C67 0.961 . S
H84 C68 0.931 . S
H85 C73 0.930 . S
H86 C74 0.956 . S
H87 C74 0.961 . S
H88 C74 0.961 . S
H89 C75 0.958 . S
H90 C75 0.961 . S
H91 C75 0.960 . S
C92 C93 1.391 . S
C92 C94 1.394 . S
C92 H108 0.931 . S
C93 C92 1.391 . S
C93 C97 1.376 1_565 S
C94 C92 1.394 . S
C94 C95 1.369 . S
C94 C98 1.531 . S
C95 C94 1.369 . S
C95 C96 1.410 1_565 S
C95 C103 1.503 . S
C96 C95 1.410 1_545 S
C96 C97 1.392 . S
C96 C99 1.511 . S
C97 C93 1.376 1_545 S
C97 C96 1.392 . S
C97 H109 0.929 . S
C98 C94 1.531 . S
C98 H110 0.960 . S
C98 H111 0.962 . S
C98 H112 0.960 . S
C99 C96 1.511 . S
C99 H113 0.961 . S
C99 H114 0.961 . S
C99 H115 0.961 1_545 S
C100 C101 1.370 1_545 S
C100 C102 1.363 . S
C100 H116 0.931 . S
C101 C100 1.370 1_565 S
C101 C105 1.408 . S
C102 C100 1.363 . S
C102 C103 1.370 1_545 S
C102 C106 1.524 . S
C103 C95 1.503 . S
C103 C102 1.370 1_565 S
C103 C104 1.403 . S
C104 C103 1.403 . S
C104 C105 1.404 . S
C104 C107 1.539 . S
C105 C101 1.408 . S
C105 C104 1.404 . S
C105 H117 0.930 . S
C106 C102 1.524 . S
C106 H118 0.956 . S
C106 H119 0.961 . S
C106 H120 0.961 . S
C107 C104 1.539 . S
C107 H121 0.958 . S
C107 H122 0.961 . S
C107 H123 0.960 . S
H108 C92 0.931 . S
H109 C97 0.929 . S
H110 C98 0.960 . S
H111 C98 0.962 . S
H112 C98 0.960 . S
H113 C99 0.961 . S
H114 C99 0.961 . S
H115 C99 0.961 1_565 S
H116 C100 0.931 . S
H117 C105 0.930 . S
H118 C106 0.956 . S
H119 C106 0.961 . S
H120 C106 0.961 . S
H121 C107 0.958 . S
H122 C107 0.961 . S
H123 C107 0.960 . S
C124 C125 1.391 1_455 S
C124 C126 1.394 . S
C124 H140 0.931 . S
C125 C124 1.391 1_655 S
C125 C129 1.376 . S
C126 C124 1.394 . S
C126 C127 1.369 1_455 S
C126 C130 1.531 . S
C127 C126 1.369 1_655 S
C127 C128 1.410 . S
C127 C135 1.503 . S
C128 C127 1.410 . S
C128 C129 1.392 . S
C128 C131 1.511 . S
C129 C125 1.376 . S
C129 C128 1.392 . S
C129 H141 0.929 . S
C130 C126 1.531 . S
C130 H142 0.960 . S
C130 H143 0.962 . S
C130 H144 0.960 . S
C131 C128 1.511 . S
C131 H145 0.961 . S
C131 H146 0.961 . S
C131 H147 0.961 . S
C132 C133 1.370 1_455 S
C132 C134 1.363 . S
C132 H148 0.931 . S
C133 C132 1.370 1_655 S
C133 C137 1.408 . S
C134 C132 1.363 . S
C134 C135 1.370 1_455 S
C134 C138 1.524 . S
C135 C127 1.503 . S
C135 C134 1.370 1_655 S
C135 C136 1.403 . S
C136 C135 1.403 . S
C136 C137 1.404 . S
C136 C139 1.539 . S
C137 C133 1.408 . S
C137 C136 1.404 . S
C137 H149 0.930 . S
C138 C134 1.524 . S
C138 H150 0.956 . S
C138 H151 0.961 . S
C138 H152 0.961 . S
C139 C136 1.539 . S
C139 H153 0.958 . S
C139 H154 0.961 . S
C139 H155 0.960 . S
H140 C124 0.931 . S
H141 C129 0.929 . S
H142 C130 0.960 . S
H143 C130 0.962 . S
H144 C130 0.960 . S
H145 C131 0.961 . S
H146 C131 0.961 . S
H147 C131 0.961 . S
H148 C132 0.931 . S
H149 C137 0.930 . S
H150 C138 0.956 . S
H151 C138 0.961 . S
H152 C138 0.961 . S
H153 C139 0.958 . S
H154 C139 0.961 . S
H155 C139 0.960 . S
C156 C157 1.391 . S
C156 C158 1.394 . S
C156 H172 0.931 . S
C157 C156 1.391 . S
C157 C161 1.376 . S
C158 C156 1.394 . S
C158 C159 1.369 . S
C158 C162 1.531 . S
C159 C158 1.369 . S
C159 C160 1.410 . S
C159 C167 1.503 . S
C160 C159 1.410 . S
C160 C161 1.392 . S
C160 C163 1.511 . S
C161 C157 1.376 . S
C161 C160 1.392 . S
C161 H173 0.929 . S
C162 C158 1.531 . S
C162 H174 0.960 . S
C162 H175 0.962 1_545 S
C162 H176 0.960 . S
C163 C160 1.511 . S
C163 H177 0.961 . S
C163 H178 0.961 . S
C163 H179 0.961 . S
C164 C165 1.370 1_565 S
C164 C166 1.363 . S
C164 H180 0.931 . S
C165 C164 1.370 1_545 S
C165 C169 1.408 . S
C166 C164 1.363 . S
C166 C167 1.370 1_565 S
C166 C170 1.524 . S
C167 C159 1.503 . S
C167 C166 1.370 1_545 S
C167 C168 1.403 . S
C168 C167 1.403 . S
C168 C169 1.404 . S
C168 C171 1.539 . S
C169 C165 1.408 . S
C169 C168 1.404 . S
C169 H181 0.930 . S
C170 C166 1.524 . S
C170 H182 0.956 . S
C170 H183 0.961 . S
C170 H184 0.961 . S
C171 C168 1.539 . S
C171 H185 0.958 . S
C171 H186 0.961 . S
C171 H187 0.960 . S
H172 C156 0.931 . S
H173 C161 0.929 . S
H174 C162 0.960 . S
H175 C162 0.962 1_565 S
H176 C162 0.960 . S
H177 C163 0.961 . S
H178 C163 0.961 . S
H179 C163 0.961 . S
H180 C164 0.931 . S
H181 C169 0.930 . S
H182 C170 0.956 . S
H183 C170 0.961 . S
H184 C170 0.961 . S
H185 C171 0.958 . S
H186 C171 0.961 . S
H187 C171 0.960 . S
C188 C189 1.382 1_455 S
C188 C190 1.394 . S
C188 H204 0.931 . S
C189 C188 1.382 1_655 S
C189 C193 1.385 . S
C190 C188 1.394 . S
C190 C191 1.359 1_455 S
C190 C194 1.531 . S
C191 C190 1.359 1_655 S
C191 C192 1.420 . S
C191 C199 1.503 . S
C192 C191 1.420 . S
C192 C193 1.392 . S
C192 C195 1.511 . S
C193 C189 1.385 . S
C193 C192 1.392 . S
C193 H205 0.929 . S
C194 C190 1.531 . S
C194 H206 0.960 . S
C194 H207 0.962 . S
C194 H208 0.960 . S
C195 C192 1.511 . S
C195 H209 0.961 . S
C195 H210 0.961 . S
C195 H211 0.961 . S
C196 C197 1.369 1_455 S
C196 C198 1.363 . S
C196 H212 0.931 . S
C197 C196 1.369 1_655 S
C197 C201 1.409 . S
C198 C196 1.363 . S
C198 C199 1.369 1_455 S
C198 C202 1.524 . S
C199 C191 1.503 . S
C199 C198 1.369 1_655 S
C199 C200 1.403 . S
C200 C199 1.403 . S
C200 C201 1.404 . S
C200 C203 1.539 . S
C201 C197 1.409 . S
C201 C200 1.404 . S
C201 H213 0.930 . S
C202 C198 1.524 . S
C202 H214 0.956 . S
C202 H215 0.961 1_455 S
C202 H216 0.961 . S
C203 C200 1.539 . S
C203 H217 0.958 1_655 S
C203 H218 0.961 . S
C203 H219 0.960 . S
H204 C188 0.931 . S
H205 C193 0.929 . S
H206 C194 0.960 . S
H207 C194 0.962 . S
H208 C194 0.960 . S
H209 C195 0.961 . S
H210 C195 0.961 . S
H211 C195 0.961 . S
H212 C196 0.931 . S
H213 C201 0.930 . S
H214 C202 0.956 . S
H215 C202 0.961 1_655 S
H216 C202 0.961 . S
H217 C203 0.958 1_455 S
H218 C203 0.961 . S
H219 C203 0.960 . S
C220 C221 1.391 . S
C220 C222 1.394 . S
C220 H236 0.931 . S
C221 C220 1.391 . S
C221 C225 1.376 . S
C222 C220 1.394 . S
C222 C223 1.369 . S
C222 C226 1.531 . S
C223 C222 1.369 . S
C223 C224 1.410 . S
C223 C231 1.503 . S
C224 C223 1.410 . S
C224 C225 1.392 . S
C224 C227 1.511 . S
C225 C221 1.376 . S
C225 C224 1.392 . S
C225 H237 0.929 . S
C226 C222 1.531 . S
C226 H238 0.960 . S
C226 H239 0.962 1_545 S
C226 H240 0.960 . S
C227 C224 1.511 . S
C227 H241 0.961 1_545 S
C227 H242 0.961 1_545 S
C227 H243 0.961 . S
C228 C229 1.370 1_565 S
C228 C230 1.363 . S
C228 H244 0.931 . S
C229 C228 1.370 1_545 S
C229 C233 1.408 . S
C230 C228 1.363 . S
C230 C231 1.370 1_565 S
C230 C234 1.524 . S
C231 C223 1.503 . S
C231 C230 1.370 1_545 S
C231 C232 1.403 . S
C232 C231 1.403 . S
C232 C233 1.404 . S
C232 C235 1.539 . S
C233 C229 1.408 . S
C233 C232 1.404 . S
C233 H245 0.930 . S
C234 C230 1.524 . S
C234 H246 0.956 . S
C234 H247 0.961 . S
C234 H248 0.961 . S
C235 C232 1.539 . S
C235 H249 0.958 . S
C235 H250 0.961 . S
C235 H251 0.960 . S
H236 C220 0.931 . S
H237 C225 0.929 . S
H238 C226 0.960 . S
H239 C226 0.962 1_565 S
H240 C226 0.960 . S
H241 C227 0.961 1_565 S
H242 C227 0.961 1_565 S
H243 C227 0.961 . S
H244 C228 0.931 . S
H245 C233 0.930 . S
H246 C234 0.956 . S
H247 C234 0.961 . S
H248 C234 0.961 . S
H249 C235 0.958 . S
H250 C235 0.961 . S
H251 C235 0.960 . S
C252 C253 1.391 1_655 S
C252 C254 1.394 . S
C252 H268 0.931 . S
C253 C252 1.391 1_455 S
C253 C257 1.376 . S
C254 C252 1.394 . S
C254 C255 1.369 1_655 S
C254 C258 1.531 . S
C255 C254 1.369 1_455 S
C255 C256 1.410 . S
C255 C263 1.503 . S
C256 C255 1.410 . S
C256 C257 1.392 . S
C256 C259 1.511 . S
C257 C253 1.376 . S
C257 C256 1.392 . S
C257 H269 0.929 . S
C258 C254 1.531 . S
C258 H270 0.960 . S
C258 H271 0.962 . S
C258 H272 0.960 . S
C259 C256 1.511 . S
C259 H273 0.961 . S
C259 H274 0.961 . S
C259 H275 0.961 . S
C260 C261 1.370 1_655 S
C260 C262 1.363 . S
C260 H276 0.931 . S
C261 C260 1.370 1_455 S
C261 C265 1.408 . S
C262 C260 1.363 . S
C262 C263 1.370 1_655 S
C262 C266 1.524 . S
C263 C255 1.503 . S
C263 C262 1.370 1_455 S
C263 C264 1.403 . S
C264 C263 1.403 . S
C264 C265 1.404 . S
C264 C267 1.539 . S
C265 C261 1.408 . S
C265 C264 1.404 . S
C265 H277 0.930 . S
C266 C262 1.524 . S
C266 H278 0.956 . S
C266 H279 0.961 . S
C266 H280 0.961 . S
C267 C264 1.539 . S
C267 H281 0.958 . S
C267 H282 0.961 . S
C267 H283 0.960 . S
H268 C252 0.931 . S
H269 C257 0.929 . S
H270 C258 0.960 . S
H271 C258 0.962 . S
H272 C258 0.960 . S
H273 C259 0.961 . S
H274 C259 0.961 . S
H275 C259 0.961 . S
H276 C260 0.931 . S
H277 C265 0.930 . S
H278 C266 0.956 . S
H279 C266 0.961 . S
H280 C266 0.961 . S
H281 C267 0.958 . S
H282 C267 0.961 . S
H283 C267 0.960 . S
C284 C285 1.391 1_545 S
C284 C286 1.394 1_545 S
C284 H300 0.931 . S
C285 C284 1.391 1_565 S
C285 C289 1.376 . S
C286 C284 1.394 1_565 S
C286 C287 1.369 . S
C286 C290 1.531 1_565 S
C287 C286 1.369 . S
C287 C288 1.410 . S
C287 C295 1.503 . S
C288 C287 1.410 . S
C288 C289 1.392 . S
C288 C291 1.511 . S
C289 C285 1.376 . S
C289 C288 1.392 . S
C289 H301 0.929 . S
C290 C286 1.531 1_545 S
C290 H302 0.960 1_545 S
C290 H303 0.962 . S
C290 H304 0.960 1_545 S
C291 C288 1.511 . S
C291 H305 0.961 . S
C291 H306 0.961 . S
C291 H307 0.961 . S
C292 C293 1.370 1_545 S
C292 C294 1.363 . S
C292 H308 0.931 . S
C293 C292 1.370 1_565 S
C293 C297 1.408 . S
C294 C292 1.363 . S
C294 C295 1.370 1_545 S
C294 C298 1.524 . S
C295 C287 1.503 . S
C295 C294 1.370 1_565 S
C295 C296 1.403 . S
C296 C295 1.403 . S
C296 C297 1.404 . S
C296 C299 1.539 . S
C297 C293 1.408 . S
C297 C296 1.404 . S
C297 H309 0.930 . S
C298 C294 1.524 . S
C298 H310 0.956 . S
C298 H311 0.961 . S
C298 H312 0.961 . S
C299 C296 1.539 . S
C299 H313 0.958 . S
C299 H314 0.961 . S
C299 H315 0.960 . S
H300 C284 0.931 . S
H301 C289 0.929 . S
H302 C290 0.960 1_565 S
H303 C290 0.962 . S
H304 C290 0.960 1_565 S
H305 C291 0.961 . S
H306 C291 0.961 . S
H307 C291 0.961 . S
H308 C292 0.931 . S
H309 C297 0.930 . S
H310 C298 0.956 . S
H311 C298 0.961 . S
H312 C298 0.961 . S
H313 C299 0.958 . S
H314 C299 0.961 . S
H315 C299 0.960 . S
C61 C22 1.413 1_455 S
C69 C33 1.457 1_455 S
C93 C8 1.427 1_565 S
C101 C59 1.457 . S
C125 C31 1.403 1_655 S
C133 C45 1.457 1_655 S
C157 C17 1.426 1_545 S
C165 C47 1.457 . S
C189 C30 1.417 1_655 S
C197 C32 1.458 1_655 S
C221 C27 1.433 1_545 S
C229 C58 1.459 . S
C261 C44 1.458 1_455 S
C253 C23 1.434 1_455 S
C285 C24 1.421 1_565 S
C293 C46 1.458 . S
