# Generated by pormake.
# Topology gar, (4,6)-cn, num edge types: 1
# Building blocks:
#     Node 0, Type 0, BuildingBlock: CEKHIL_clean_sbu_0, # of connection points: 4
#     Node 1, Type 0, BuildingBlock: CEKHIL_clean_sbu_0, # of connection points: 4
#     Node 2, Type 0, BuildingBlock: CEKHIL_clean_sbu_0, # of connection points: 4
#     Node 3, Type 0, BuildingBlock: CEKHIL_clean_sbu_0, # of connection points: 4
#     Node 4, Type 0, BuildingBlock: CEKHIL_clean_sbu_0, # of connection points: 4
#     Node 5, Type 0, BuildingBlock: CEKHIL_clean_sbu_0, # of connection points: 4
#     Node 6, Type 0, BuildingBlock: CEKHIL_clean_sbu_0, # of connection points: 4
#     Node 7, Type 0, BuildingBlock: CEKHIL_clean_sbu_0, # of connection points: 4
#     Node 8, Type 0, BuildingBlock: CEKHIL_clean_sbu_0, # of connection points: 4
#     Node 9, Type 0, BuildingBlock: CEKHIL_clean_sbu_0, # of connection points: 4
#     Node 10, Type 0, BuildingBlock: CEKHIL_clean_sbu_0, # of connection points: 4
#     Node 11, Type 0, BuildingBlock: CEKHIL_clean_sbu_0, # of connection points: 4
#     Node 12, Type 0, BuildingBlock: CEKHIL_clean_sbu_0, # of connection points: 4
#     Node 13, Type 0, BuildingBlock: CEKHIL_clean_sbu_0, # of connection points: 4
#     Node 14, Type 0, BuildingBlock: CEKHIL_clean_sbu_0, # of connection points: 4
#     Node 15, Type 0, BuildingBlock: CEKHIL_clean_sbu_0, # of connection points: 4
#     Node 16, Type 0, BuildingBlock: CEKHIL_clean_sbu_0, # of connection points: 4
#     Node 17, Type 0, BuildingBlock: CEKHIL_clean_sbu_0, # of connection points: 4
#     Node 18, Type 0, BuildingBlock: CEKHIL_clean_sbu_0, # of connection points: 4
#     Node 19, Type 0, BuildingBlock: CEKHIL_clean_sbu_0, # of connection points: 4
#     Node 20, Type 0, BuildingBlock: CEKHIL_clean_sbu_0, # of connection points: 4
#     Node 21, Type 0, BuildingBlock: CEKHIL_clean_sbu_0, # of connection points: 4
#     Node 22, Type 0, BuildingBlock: CEKHIL_clean_sbu_0, # of connection points: 4
#     Node 23, Type 0, BuildingBlock: CEKHIL_clean_sbu_0, # of connection points: 4
#     Node 24, Type 1, BuildingBlock: KUMBUR_clean_sbu_1, # of connection points: 6
#     Node 25, Type 1, BuildingBlock: KUMBUR_clean_sbu_1, # of connection points: 6
#     Node 26, Type 1, BuildingBlock: KUMBUR_clean_sbu_1, # of connection points: 6
#     Node 27, Type 1, BuildingBlock: KUMBUR_clean_sbu_1, # of connection points: 6
#     Node 28, Type 1, BuildingBlock: KUMBUR_clean_sbu_1, # of connection points: 6
#     Node 29, Type 1, BuildingBlock: KUMBUR_clean_sbu_1, # of connection points: 6
#     Node 30, Type 1, BuildingBlock: KUMBUR_clean_sbu_1, # of connection points: 6
#     Node 31, Type 1, BuildingBlock: KUMBUR_clean_sbu_1, # of connection points: 6
#     Node 32, Type 1, BuildingBlock: KUMBUR_clean_sbu_1, # of connection points: 6
#     Node 33, Type 1, BuildingBlock: KUMBUR_clean_sbu_1, # of connection points: 6
#     Node 34, Type 1, BuildingBlock: KUMBUR_clean_sbu_1, # of connection points: 6
#     Node 35, Type 1, BuildingBlock: KUMBUR_clean_sbu_1, # of connection points: 6
#     Node 36, Type 1, BuildingBlock: KUMBUR_clean_sbu_1, # of connection points: 6
#     Node 37, Type 1, BuildingBlock: KUMBUR_clean_sbu_1, # of connection points: 6
#     Node 38, Type 1, BuildingBlock: KUMBUR_clean_sbu_1, # of connection points: 6
#     Node 39, Type 1, BuildingBlock: KUMBUR_clean_sbu_1, # of connection points: 6
#     Edge 40, Type (0, 1), BuildingBlock: OJICUG_clean_linker_0, # of connection points: 2
#     Edge 41, Type (0, 1), BuildingBlock: OJICUG_clean_linker_0, # of connection points: 2
#     Edge 42, Type (0, 1), BuildingBlock: OJICUG_clean_linker_0, # of connection points: 2
#     Edge 43, Type (0, 1), BuildingBlock: OJICUG_clean_linker_0, # of connection points: 2
#     Edge 44, Type (0, 1), BuildingBlock: OJICUG_clean_linker_0, # of connection points: 2
#     Edge 45, Type (0, 1), BuildingBlock: OJICUG_clean_linker_0, # of connection points: 2
#     Edge 46, Type (0, 1), BuildingBlock: OJICUG_clean_linker_0, # of connection points: 2
#     Edge 47, Type (0, 1), BuildingBlock: OJICUG_clean_linker_0, # of connection points: 2
#     Edge 48, Type (0, 1), BuildingBlock: OJICUG_clean_linker_0, # of connection points: 2
#     Edge 49, Type (0, 1), BuildingBlock: OJICUG_clean_linker_0, # of connection points: 2
#     Edge 50, Type (0, 1), BuildingBlock: OJICUG_clean_linker_0, # of connection points: 2
#     Edge 51, Type (0, 1), BuildingBlock: OJICUG_clean_linker_0, # of connection points: 2
#     Edge 52, Type (0, 1), BuildingBlock: OJICUG_clean_linker_0, # of connection points: 2
#     Edge 53, Type (0, 1), BuildingBlock: OJICUG_clean_linker_0, # of connection points: 2
#     Edge 54, Type (0, 1), BuildingBlock: OJICUG_clean_linker_0, # of connection points: 2
#     Edge 55, Type (0, 1), BuildingBlock: OJICUG_clean_linker_0, # of connection points: 2
#     Edge 56, Type (0, 1), BuildingBlock: OJICUG_clean_linker_0, # of connection points: 2
#     Edge 57, Type (0, 1), BuildingBlock: OJICUG_clean_linker_0, # of connection points: 2
#     Edge 58, Type (0, 1), BuildingBlock: OJICUG_clean_linker_0, # of connection points: 2
#     Edge 59, Type (0, 1), BuildingBlock: OJICUG_clean_linker_0, # of connection points: 2
#     Edge 60, Type (0, 1), BuildingBlock: OJICUG_clean_linker_0, # of connection points: 2
#     Edge 61, Type (0, 1), BuildingBlock: OJICUG_clean_linker_0, # of connection points: 2
#     Edge 62, Type (0, 1), BuildingBlock: OJICUG_clean_linker_0, # of connection points: 2
#     Edge 63, Type (0, 1), BuildingBlock: OJICUG_clean_linker_0, # of connection points: 2
#     Edge 64, Type (0, 1), BuildingBlock: OJICUG_clean_linker_0, # of connection points: 2
#     Edge 65, Type (0, 1), BuildingBlock: OJICUG_clean_linker_0, # of connection points: 2
#     Edge 66, Type (0, 1), BuildingBlock: OJICUG_clean_linker_0, # of connection points: 2
#     Edge 67, Type (0, 1), BuildingBlock: OJICUG_clean_linker_0, # of connection points: 2
#     Edge 68, Type (0, 1), BuildingBlock: OJICUG_clean_linker_0, # of connection points: 2
#     Edge 69, Type (0, 1), BuildingBlock: OJICUG_clean_linker_0, # of connection points: 2
#     Edge 70, Type (0, 1), BuildingBlock: OJICUG_clean_linker_0, # of connection points: 2
#     Edge 71, Type (0, 1), BuildingBlock: OJICUG_clean_linker_0, # of connection points: 2
#     Edge 72, Type (0, 1), BuildingBlock: OJICUG_clean_linker_0, # of connection points: 2
#     Edge 73, Type (0, 1), BuildingBlock: OJICUG_clean_linker_0, # of connection points: 2
#     Edge 74, Type (0, 1), BuildingBlock: OJICUG_clean_linker_0, # of connection points: 2
#     Edge 75, Type (0, 1), BuildingBlock: OJICUG_clean_linker_0, # of connection points: 2
#     Edge 76, Type (0, 1), BuildingBlock: OJICUG_clean_linker_0, # of connection points: 2
#     Edge 77, Type (0, 1), BuildingBlock: OJICUG_clean_linker_0, # of connection points: 2
#     Edge 78, Type (0, 1), BuildingBlock: OJICUG_clean_linker_0, # of connection points: 2
#     Edge 79, Type (0, 1), BuildingBlock: OJICUG_clean_linker_0, # of connection points: 2
#     Edge 80, Type (0, 1), BuildingBlock: OJICUG_clean_linker_0, # of connection points: 2
#     Edge 81, Type (0, 1), BuildingBlock: OJICUG_clean_linker_0, # of connection points: 2
#     Edge 82, Type (0, 1), BuildingBlock: OJICUG_clean_linker_0, # of connection points: 2
#     Edge 83, Type (0, 1), BuildingBlock: OJICUG_clean_linker_0, # of connection points: 2
#     Edge 84, Type (0, 1), BuildingBlock: OJICUG_clean_linker_0, # of connection points: 2
#     Edge 85, Type (0, 1), BuildingBlock: OJICUG_clean_linker_0, # of connection points: 2
#     Edge 86, Type (0, 1), BuildingBlock: OJICUG_clean_linker_0, # of connection points: 2
#     Edge 87, Type (0, 1), BuildingBlock: OJICUG_clean_linker_0, # of connection points: 2
#     Edge 88, Type (0, 1), BuildingBlock: OJICUG_clean_linker_0, # of connection points: 2
#     Edge 89, Type (0, 1), BuildingBlock: OJICUG_clean_linker_0, # of connection points: 2
#     Edge 90, Type (0, 1), BuildingBlock: OJICUG_clean_linker_0, # of connection points: 2
#     Edge 91, Type (0, 1), BuildingBlock: OJICUG_clean_linker_0, # of connection points: 2
#     Edge 92, Type (0, 1), BuildingBlock: OJICUG_clean_linker_0, # of connection points: 2
#     Edge 93, Type (0, 1), BuildingBlock: OJICUG_clean_linker_0, # of connection points: 2
#     Edge 94, Type (0, 1), BuildingBlock: OJICUG_clean_linker_0, # of connection points: 2
#     Edge 95, Type (0, 1), BuildingBlock: OJICUG_clean_linker_0, # of connection points: 2
#     Edge 96, Type (0, 1), BuildingBlock: OJICUG_clean_linker_0, # of connection points: 2
#     Edge 97, Type (0, 1), BuildingBlock: OJICUG_clean_linker_0, # of connection points: 2
#     Edge 98, Type (0, 1), BuildingBlock: OJICUG_clean_linker_0, # of connection points: 2
#     Edge 99, Type (0, 1), BuildingBlock: OJICUG_clean_linker_0, # of connection points: 2
#     Edge 100, Type (0, 1), BuildingBlock: OJICUG_clean_linker_0, # of connection points: 2
#     Edge 101, Type (0, 1), BuildingBlock: OJICUG_clean_linker_0, # of connection points: 2
#     Edge 102, Type (0, 1), BuildingBlock: OJICUG_clean_linker_0, # of connection points: 2
#     Edge 103, Type (0, 1), BuildingBlock: OJICUG_clean_linker_0, # of connection points: 2
#     Edge 104, Type (0, 1), BuildingBlock: OJICUG_clean_linker_0, # of connection points: 2
#     Edge 105, Type (0, 1), BuildingBlock: OJICUG_clean_linker_0, # of connection points: 2
#     Edge 106, Type (0, 1), BuildingBlock: OJICUG_clean_linker_0, # of connection points: 2
#     Edge 107, Type (0, 1), BuildingBlock: OJICUG_clean_linker_0, # of connection points: 2
#     Edge 108, Type (0, 1), BuildingBlock: OJICUG_clean_linker_0, # of connection points: 2
#     Edge 109, Type (0, 1), BuildingBlock: OJICUG_clean_linker_0, # of connection points: 2
#     Edge 110, Type (0, 1), BuildingBlock: OJICUG_clean_linker_0, # of connection points: 2
#     Edge 111, Type (0, 1), BuildingBlock: OJICUG_clean_linker_0, # of connection points: 2
#     Edge 112, Type (0, 1), BuildingBlock: OJICUG_clean_linker_0, # of connection points: 2
#     Edge 113, Type (0, 1), BuildingBlock: OJICUG_clean_linker_0, # of connection points: 2
#     Edge 114, Type (0, 1), BuildingBlock: OJICUG_clean_linker_0, # of connection points: 2
#     Edge 115, Type (0, 1), BuildingBlock: OJICUG_clean_linker_0, # of connection points: 2
#     Edge 116, Type (0, 1), BuildingBlock: OJICUG_clean_linker_0, # of connection points: 2
#     Edge 117, Type (0, 1), BuildingBlock: OJICUG_clean_linker_0, # of connection points: 2
#     Edge 118, Type (0, 1), BuildingBlock: OJICUG_clean_linker_0, # of connection points: 2
#     Edge 119, Type (0, 1), BuildingBlock: OJICUG_clean_linker_0, # of connection points: 2
#     Edge 120, Type (0, 1), BuildingBlock: OJICUG_clean_linker_0, # of connection points: 2
#     Edge 121, Type (0, 1), BuildingBlock: OJICUG_clean_linker_0, # of connection points: 2
#     Edge 122, Type (0, 1), BuildingBlock: OJICUG_clean_linker_0, # of connection points: 2
#     Edge 123, Type (0, 1), BuildingBlock: OJICUG_clean_linker_0, # of connection points: 2
#     Edge 124, Type (0, 1), BuildingBlock: OJICUG_clean_linker_0, # of connection points: 2
#     Edge 125, Type (0, 1), BuildingBlock: OJICUG_clean_linker_0, # of connection points: 2
#     Edge 126, Type (0, 1), BuildingBlock: OJICUG_clean_linker_0, # of connection points: 2
#     Edge 127, Type (0, 1), BuildingBlock: OJICUG_clean_linker_0, # of connection points: 2
#     Edge 128, Type (0, 1), BuildingBlock: OJICUG_clean_linker_0, # of connection points: 2
#     Edge 129, Type (0, 1), BuildingBlock: OJICUG_clean_linker_0, # of connection points: 2
#     Edge 130, Type (0, 1), BuildingBlock: OJICUG_clean_linker_0, # of connection points: 2
#     Edge 131, Type (0, 1), BuildingBlock: OJICUG_clean_linker_0, # of connection points: 2
#     Edge 132, Type (0, 1), BuildingBlock: OJICUG_clean_linker_0, # of connection points: 2
#     Edge 133, Type (0, 1), BuildingBlock: OJICUG_clean_linker_0, # of connection points: 2
#     Edge 134, Type (0, 1), BuildingBlock: OJICUG_clean_linker_0, # of connection points: 2
#     Edge 135, Type (0, 1), BuildingBlock: OJICUG_clean_linker_0, # of connection points: 2
# Relax obj value: 0.096
# Max RMSD: 0.190
# Mean RMSD: 0.118
data_MOF--net-gar--node1-CEKHIL_clean_sbu_0--node2-KUMBUR_clean_sbu_1--edge1-OJICUG_clean_linker_0
_symmetry_space_group_name_H-M    P1
_symmetry_Int_Tables_number       1
_symmetry_cell_setting            triclinic
loop_
_symmetry_equiv_pos_as_xyz
'x, y, z'
_cell_length_a     45.058922
_cell_length_b     44.562922
_cell_length_c     40.758486
_cell_angle_alpha  97.119299
_cell_angle_beta   97.106811
_cell_angle_gamma 102.19483
loop_
_atom_site_label
_atom_site_type_symbol
_atom_site_fract_x
_atom_site_fract_y
_atom_site_fract_z
_atom_type_partial_charge
Co0 Co 0.09449 0.36034 0.37682 0.0
O1 O 0.14079 0.36449 0.38626 0.0
O2 O 0.11542 0.34556 0.3377 0.0
C3 C 0.09414 0.4089 0.40807 0.0
O4 O 0.04514 0.35207 0.3574 0.0
Co5 Co 0.05414 0.36229 0.4347 0.0
O6 O 1.0178 0.35762 0.40007 0.0
C7 C 0.08453 0.31084 0.42012 0.0
C8 C 0.14243 0.35197 0.35628 0.0
C9 C 1.01862 0.35202 0.36882 0.0
O10 O 0.08775 0.31757 0.39064 0.0
O11 O 0.07625 0.32869 0.44255 0.0
O12 O 0.10057 0.40715 0.37761 0.0
O13 O 0.0901 0.38256 0.41816 0.0
Co14 Co 0.04845 0.77842 0.72501 0.0
O15 O 1.00259 0.77733 0.71409 0.0
O16 O 1.02082 0.77042 0.7619 0.0
C17 C 0.05936 0.82594 0.70711 0.0
O18 O 0.0972 0.78136 0.7442 0.0
Co19 Co 0.08957 0.78787 0.66951 0.0
O20 O 0.12593 0.79649 0.70471 0.0
C21 C 0.05194 0.72464 0.66988 0.0
C22 C 0.99664 0.77488 0.74379 0.0
C23 C 0.12438 0.78982 0.73402 0.0
O24 O 0.04394 0.73252 0.69933 0.0
O25 O 0.06412 0.74514 0.65315 0.0
O26 O 0.05567 0.8243 0.73781 0.0
O27 O 0.05646 0.79981 0.6888 0.0
Co28 Co 0.59601 0.85952 0.87675 0.0
O29 O 0.64215 0.86284 0.88611 0.0
O30 O 0.61709 0.84623 0.83702 0.0
C31 C 0.59615 0.9075 0.9092 0.0
O32 O 0.54683 0.85226 0.85777 0.0
Co33 Co 0.55644 0.86012 0.93518 0.0
O34 O 0.52004 0.85691 0.90105 0.0
C35 C 0.58414 0.8073 0.91649 0.0
C36 C 0.64395 0.85152 0.85576 0.0
C37 C 0.52057 0.85216 0.86968 0.0
O38 O 0.58858 0.81589 0.88808 0.0
O39 O 0.57582 0.82407 0.93988 0.0
O40 O 0.60207 0.90615 0.87857 0.0
O41 O 0.59242 0.88107 0.91919 0.0
Co42 Co 0.54664 0.27592 0.22366 0.0
O43 O 0.50072 0.27488 0.21303 0.0
O44 O 0.51999 0.27077 0.26171 0.0
C45 C 0.5586 0.32073 0.2007 0.0
O46 O 0.59546 0.27879 0.2432 0.0
Co47 Co 0.588 0.2785 0.16718 0.0
O48 O 0.62442 0.28918 0.20247 0.0
C49 C 0.54857 0.21763 0.17343 0.0
C50 C 0.49535 0.27395 0.24325 0.0
C51 C 0.62272 0.2852 0.23262 0.0
O52 O 0.54066 0.22895 0.20175 0.0
O53 O 0.56423 0.23461 0.15565 0.0
O54 O 0.55439 0.32209 0.23166 0.0
O55 O 0.55541 0.29324 0.1852 0.0
Co56 Co 0.10253 0.83383 0.13262 0.0
O57 O 0.05759 0.82633 0.12215 0.0
O58 O 0.08313 0.82553 0.17132 0.0
C59 C 0.1072 0.88454 0.11075 0.0
O60 O 0.14672 0.84159 0.1606 0.0
Co61 Co 0.13457 0.82685 0.09554 0.0
O62 O 0.17 0.81868 0.1253 0.0
C63 C 0.10846 0.76628 0.0989 0.0
C64 C 0.05695 0.82306 0.15322 0.0
C65 C 0.16966 0.8297 0.15519 0.0
O66 O 0.09742 0.78388 0.12005 0.0
O67 O 0.12682 0.78057 0.08196 0.0
O68 O 0.10537 0.88008 0.14099 0.0
O69 O 0.10877 0.85893 0.09199 0.0
Co70 Co 0.53746 0.80395 0.46876 0.0
O71 O 0.58199 0.81481 0.48135 0.0
O72 O 0.55745 0.79309 0.4312 0.0
C73 C 0.5335 0.85646 0.49058 0.0
O74 O 0.49387 0.79349 0.44013 0.0
Co75 Co 0.50069 0.79225 0.50785 0.0
O76 O 0.46202 0.79123 0.47645 0.0
C77 C 0.53076 0.74282 0.50481 0.0
C78 C 0.58342 0.80467 0.45048 0.0
C79 C 0.46632 0.79165 0.44639 0.0
O80 O 0.53793 0.75767 0.48015 0.0
O81 O 0.51523 0.75525 0.5242 0.0
O82 O 0.53882 0.84721 0.4613 0.0
O83 O 0.53004 0.83402 0.50902 0.0
Co84 Co 0.60369 0.33381 0.63292 0.0
O85 O 0.55871 0.32616 0.6228 0.0
O86 O 0.58462 0.32577 0.67188 0.0
C87 C 0.60762 0.38431 0.61068 0.0
O88 O 0.64803 0.34207 0.66071 0.0
Co89 Co 0.63517 0.32646 0.59647 0.0
O90 O 0.66995 0.31678 0.6261 0.0
C91 C 0.60999 0.26603 0.59999 0.0
C92 C 0.55832 0.32321 0.65398 0.0
C93 C 0.67026 0.32895 0.65572 0.0
O94 O 0.59862 0.28375 0.62068 0.0
O95 O 0.62861 0.28024 0.58329 0.0
O96 O 0.60618 0.37999 0.64101 0.0
O97 O 0.60957 0.35876 0.59205 0.0
Co98 Co 0.03782 0.30365 0.96949 0.0
O99 O 0.08228 0.3155 0.9822 0.0
O100 O 0.05807 0.29294 0.93215 0.0
C101 C 0.033 0.35609 0.99109 0.0
O102 O 0.99414 0.29125 0.94073 0.0
Co103 Co 1.0002 0.29262 0.00856 0.0
O104 O 0.96464 0.29995 0.97763 0.0
C105 C 1.0304 0.24254 1.00538 0.0
C106 C 0.08391 0.30514 0.95145 0.0
C107 C 0.96804 0.29561 0.94719 0.0
O108 O 0.03909 0.2579 0.98163 0.0
O109 O 1.01363 0.25444 0.02368 0.0
O110 O 0.03828 0.34689 0.96173 0.0
O111 O 1.03011 0.33366 0.00948 0.0
Co112 Co 0.41851 0.0493 0.3562 0.0
O113 O 0.42228 0.09242 0.35767 0.0
O114 O 0.37904 0.05534 0.34169 0.0
C115 C 0.44556 0.05137 0.40483 0.0
O116 O 0.40659 1.00339 0.35229 0.0
Co117 Co 0.47743 0.02267 0.35669 0.0
O118 O 0.44762 0.9821 0.35261 0.0
C119 C 0.4531 0.04726 0.29868 0.0
C120 C 0.39307 0.08456 0.34607 0.0
C121 C 0.41878 0.97999 0.35075 0.0
O122 O 0.42716 0.04509 0.30908 0.0
O123 O 0.47749 0.0451 0.31702 0.0
O124 O 0.41707 0.05319 0.40385 0.0
O125 O 0.45724 0.05227 0.37765 0.0
Co126 Co 0.29611 0.20968 0.52774 0.0
O127 O 0.34081 0.21797 0.53216 0.0
O128 O 0.30999 0.17399 0.5382 0.0
C129 C 0.29151 0.23045 0.47764 0.0
O130 O 0.25122 0.18674 0.52505 0.0
Co131 Co 0.2542 0.25056 0.52713 0.0
O132 O 0.21715 0.21559 0.51915 0.0
C133 C 0.28707 0.24651 0.59337 0.0
C134 C 0.33757 0.18934 0.53765 0.0
C135 C 0.22334 0.18948 0.52184 0.0
O136 O 0.29883 0.22569 0.57814 0.0
O137 O 0.26947 0.26036 0.57688 0.0
O138 O 0.29371 0.202 0.47872 0.0
O139 O 0.2908 0.24602 0.50671 0.0
Co140 Co 0.17227 0.08673 0.82556 0.0
O141 O 0.16301 0.04171 0.81996 0.0
O142 O 0.20698 0.07212 0.81375 0.0
C143 C 0.15284 0.09098 0.87599 0.0
O144 O 0.19506 0.13213 0.82958 0.0
Co145 Co 0.13125 0.12899 0.82748 0.0
O146 O 0.16617 0.1661 0.83704 0.0
C147 C 0.13485 0.09671 0.76079 0.0
C148 C 0.19105 0.04438 0.81376 0.0
C149 C 0.19213 0.16023 0.83406 0.0
O150 O 0.15586 0.08509 0.77558 0.0
O151 O 0.12097 0.11407 0.77763 0.0
O152 O 0.18069 0.08814 0.87422 0.0
O153 O 0.13695 0.09207 0.84733 0.0
Co154 Co 0.32734 0.96256 0.99739 0.0
O155 O 0.28429 0.95863 0.99524 0.0
O156 O 0.32087 1.00179 0.01471 0.0
C157 C 0.32708 0.93803 0.94733 0.0
O158 O 0.37336 0.9744 1.00298 0.0
Co159 Co 0.35306 0.90139 0.99265 0.0
O160 O 0.39341 0.93199 1.00287 0.0
C161 C 0.32416 0.9209 0.04601 0.0
C162 C 0.29195 0.98763 0.00902 0.0
C163 C 0.39617 0.96137 1.00563 0.0
O164 O 0.32987 0.94958 0.0426 0.0
O165 O 0.31893 0.90017 0.02023 0.0
O166 O 0.32505 0.96691 0.95018 0.0
O167 O 0.3252 0.92456 0.9733 0.0
Co168 Co 0.34408 0.41224 0.06034 0.0
O169 O 0.29968 0.40106 0.05236 0.0
O170 O 0.32808 0.44719 0.07609 0.0
C171 C 0.34909 0.3913 1.00684 0.0
O172 O 0.38918 0.43623 0.07016 0.0
Co173 Co 0.3854 0.3692 0.06046 0.0
O174 O 0.41916 0.40456 0.05573 0.0
C175 C 0.35223 0.37433 0.11822 0.0
C176 C 0.30098 0.42971 0.06483 0.0
C177 C 0.41517 0.43174 0.06349 0.0
O178 O 0.34387 0.39762 0.10678 0.0
O179 O 0.36784 0.35847 0.10199 0.0
O180 O 0.34435 0.41893 0.0137 0.0
O181 O 0.34965 0.37605 0.0321 0.0
Co182 Co 0.80518 0.16015 0.08455 0.0
O183 O 0.8487 0.16908 0.09334 0.0
O184 O 0.81779 0.12413 0.09719 0.0
C185 C 0.804 0.17875 0.03635 0.0
O186 O 0.75891 0.14312 0.07601 0.0
Co187 Co 0.77141 0.21396 0.07529 0.0
O188 O 0.73594 0.17922 0.05707 0.0
C189 C 0.79308 0.20021 0.14289 0.0
C190 C 0.8455 0.14008 0.09655 0.0
C191 C 0.73505 0.15179 0.06337 0.0
O192 O 0.80355 0.17708 0.13159 0.0
O193 O 0.78163 0.21772 0.12476 0.0
O194 O 0.80612 0.15027 0.03686 0.0
O195 O 0.80433 0.19525 0.06467 0.0
Co196 Co 0.22426 0.57869 0.26891 0.0
O197 O 0.21874 0.53527 0.25573 0.0
O198 O 0.26002 0.57126 0.25163 0.0
C199 C 0.20854 0.57473 0.31808 0.0
O200 O 0.23803 0.62525 0.28075 0.0
Co201 Co 0.16964 0.60821 0.28583 0.0
O202 O 0.20177 0.64666 0.30104 0.0
C203 C 0.18036 0.59249 0.2157 0.0
C204 C 0.24662 0.54197 0.2491 0.0
C205 C 0.22874 0.6486 0.29386 0.0
O206 O 0.2045 0.58278 0.22414 0.0
O207 O 0.16339 0.60153 0.23604 0.0
O208 O 0.23693 0.57475 0.31535 0.0
O209 O 0.19059 0.57522 0.29114 0.0
Co210 Co 0.84311 0.91239 0.55962 0.0
O211 O 0.79886 0.89961 0.55123 0.0
O212 O 0.82568 0.94642 0.57502 0.0
C213 C 0.84871 0.89222 0.50617 0.0
O214 O 0.88786 0.9374 0.56946 0.0
Co215 Co 0.88532 0.87028 0.56038 0.0
O216 O 0.91949 0.90625 0.55912 0.0
C217 C 0.8521 0.87531 0.61787 0.0
C218 C 0.79908 0.92806 0.56327 0.0
C219 C 0.91465 0.93325 0.56554 0.0
O220 O 0.84335 0.8982 0.6061 0.0
O221 O 0.86784 0.85949 0.60184 0.0
O222 O 0.843 0.91936 0.51335 0.0
O223 O 0.84982 0.87671 0.53124 0.0
Co224 Co 0.97326 0.03863 0.29272 0.0
O225 O 0.98402 0.08367 0.30105 0.0
O226 O 0.93815 0.05449 0.27855 0.0
C227 C 0.99458 0.03348 0.346 0.0
O228 O 0.94907 0.99327 0.28307 0.0
Co229 Co 1.01445 0.99634 0.29033 0.0
O230 O 0.97962 0.96074 0.29062 0.0
C231 C 1.0077 0.02829 0.23203 0.0
C232 C 0.95524 0.08186 0.29005 0.0
C233 C 0.95292 0.96586 0.28544 0.0
O234 O 0.98684 0.03912 0.24572 0.0
O235 O 1.02266 1.0111 0.24678 0.0
O236 O 0.96733 0.03837 0.33921 0.0
O237 O 1.00955 0.03255 0.32056 0.0
Co238 Co 0.30504 0.65984 0.58374 0.0
O239 O 0.34854 0.66937 0.59414 0.0
O240 O 0.31781 0.62461 0.59866 0.0
C241 C 0.30535 0.67663 0.53455 0.0
O242 O 0.25879 0.64242 0.57394 0.0
Co243 Co 0.2714 0.713 0.56969 0.0
O244 O 0.23579 0.67799 0.55362 0.0
C245 C 0.29059 0.70169 0.63906 0.0
C246 C 0.34555 0.6406 0.59822 0.0
C247 C 0.23493 0.65086 0.56084 0.0
O248 O 0.30178 0.67844 0.62973 0.0
O249 O 0.2797 0.71827 0.61931 0.0
O250 O 0.30748 0.64836 0.53653 0.0
O251 O 0.30472 0.69389 0.56203 0.0
Co252 Co 0.47179 0.5393 0.79244 0.0
O253 O 0.48238 0.58433 0.80044 0.0
O254 O 0.43647 0.55497 0.77846 0.0
C255 C 0.49376 0.53445 0.84546 0.0
O256 O 0.44806 0.49379 0.78319 0.0
Co257 Co 0.51396 0.4972 0.79058 0.0
O258 O 0.47911 0.46168 0.79092 0.0
C259 C 0.50636 0.52928 0.73223 0.0
C260 C 0.45354 0.58241 0.78966 0.0
C261 C 0.45229 0.46651 0.78568 0.0
O262 O 0.48485 0.53937 0.74533 0.0
O263 O 0.52204 0.51297 0.74754 0.0
O264 O 0.46646 0.53938 0.83917 0.0
O265 O 0.50831 0.5335 0.81975 0.0
Co266 Co 0.72072 0.08139 0.76964 0.0
O267 O 0.71686 0.03788 0.75956 0.0
O268 O 0.759 0.07437 0.75907 0.0
C269 C 0.69952 0.08176 0.81652 0.0
O270 O 0.73314 0.12792 0.77963 0.0
Co271 Co 0.66216 0.10842 0.77048 0.0
O272 O 0.69208 0.14888 0.78287 0.0
C273 C 0.68081 0.08588 0.70765 0.0
C274 C 0.74577 0.04508 0.75643 0.0
C275 C 0.72088 0.15121 0.78472 0.0
O276 O 0.70681 0.08333 0.72187 0.0
O277 O 0.65889 0.09095 0.72297 0.0
O278 O 0.72789 0.07964 0.81742 0.0
O279 O 0.68409 0.07927 0.78707 0.0
Co280 Co 0.79821 0.7113 0.02771 0.0
O281 O 0.84288 0.72282 0.03359 0.0
O282 O 0.81467 0.67687 0.0383 0.0
C283 C 0.7934 0.7319 0.97755 0.0
O284 O 0.75353 0.68633 0.02374 0.0
Co285 Co 0.75471 0.75063 0.02646 0.0
O286 O 0.71882 0.7145 0.01689 0.0
C287 C 0.78746 0.74739 0.09294 0.0
C288 C 0.84158 0.69437 0.03875 0.0
C289 C 0.72539 0.68855 0.01964 0.0
O290 O 0.79942 0.72664 0.07794 0.0
O291 O 0.76988 0.7611 0.07622 0.0
O292 O 0.79698 0.70394 0.9789 0.0
O293 O 0.79166 0.74716 1.00644 0.0
Co294 Co 0.91844 0.54933 0.85373 0.0
O295 O 0.9246 0.5929 0.85457 0.0
O296 O 0.87993 0.55743 0.83944 0.0
C297 C 0.94528 0.55077 0.90232 0.0
O298 O 0.90419 0.50329 0.84944 0.0
Co299 Co 0.97536 0.5191 0.855 0.0
O300 O 0.94407 0.47997 0.85315 0.0
C301 C 0.95288 0.54567 0.79708 0.0
C302 C 0.89536 0.58612 0.84329 0.0
C303 C 0.91544 0.47929 0.84953 0.0
O304 O 0.92691 0.54445 0.80697 0.0
O305 O 0.97652 0.5416 0.8153 0.0
O306 O 0.91718 0.55386 0.90138 0.0
O307 O 0.95683 0.55051 0.87505 0.0
Co308 Co 0.82983 0.46355 0.49677 0.0
O309 O 0.78697 0.45914 0.49737 0.0
O310 O 0.82346 0.5032 0.51177 0.0
C311 C 0.82724 0.43616 0.44786 0.0
O312 O 0.87557 0.47637 0.4991 0.0
Co313 Co 0.85701 0.40385 0.49537 0.0
O314 O 0.89686 0.43493 0.50172 0.0
C315 C 0.83183 0.4269 0.5512 0.0
C316 C 0.79474 0.48878 0.5085 0.0
C317 C 0.8987 0.4639 0.50199 0.0
O318 O 0.83574 0.45423 0.5434 0.0
O319 O 0.82777 0.40313 0.52883 0.0
O320 O 0.82442 0.46471 0.44893 0.0
O321 O 0.82732 0.42452 0.47516 0.0
Co322 Co 0.67119 0.586 0.32482 0.0
O323 O 0.66246 0.54087 0.31954 0.0
O324 O 0.70628 0.57183 0.31378 0.0
C325 C 0.65142 0.59032 0.37516 0.0
O326 O 0.69368 0.63156 0.32872 0.0
Co327 Co 0.62946 0.62747 0.32597 0.0
O328 O 0.66394 0.66495 0.33422 0.0
C329 C 0.63354 0.59499 0.25959 0.0
C330 C 0.69075 0.54399 0.3141 0.0
C331 C 0.69022 0.65953 0.33212 0.0
O332 O 0.65503 0.58403 0.27455 0.0
O333 O 0.61914 0.61183 0.27633 0.0
O334 O 0.67938 0.58777 0.3736 0.0
O335 O 0.63558 0.59096 0.34632 0.0
Tb336 Tb 0.11053 0.08579 0.07659 0.0
C337 C 1.01966 0.97476 0.99011 0.0
N338 N 0.03267 1.00364 0.98409 0.0
C339 C 0.04124 0.98143 0.93031 0.0
C340 C 1.01878 0.94797 0.96741 0.0
C341 C 0.04181 1.00732 0.95377 0.0
C342 C 1.03047 0.95161 0.93752 0.0
C343 C 0.99211 0.9429 0.02589 0.0
C344 C 1.0069 0.97212 0.01921 0.0
C345 C 0.99209 0.91606 1.00391 0.0
C346 C 1.00599 0.91855 0.97515 0.0
Tb347 Tb 0.03455 0.04341 0.02637 0.0
N348 N 1.00935 0.99839 0.04114 0.0
C349 C 0.97789 0.94161 0.05449 0.0
C350 C 0.99415 0.99751 0.06809 0.0
C351 C 0.97847 0.96913 0.07538 0.0
H352 H 0.04887 0.02999 0.94691 0.0
H353 H 0.96671 0.96853 0.09698 0.0
H354 H 0.09408 0.09766 0.15503 0.0
H355 H 0.16385 0.16509 0.99943 0.0
H356 H 0.9933 1.01862 0.08359 0.0
H357 H 0.96593 0.91961 0.06032 0.0
H358 H 0.14331 0.11415 0.01431 0.0
H359 H 0.04896 0.98452 0.90657 0.0
H360 H 0.98138 0.89327 0.0089 0.0
H361 H 1.00617 0.89755 0.95876 0.0
H362 H 0.09241 0.1423 0.19564 0.0
H363 H 1.03037 0.93164 0.91938 0.0
H364 H 0.16376 0.21273 0.03759 0.0
N365 N 0.10821 0.1248 0.1176 0.0
C366 C 0.1192 0.15408 0.11115 0.0
C367 C 0.09944 0.1459 0.1717 0.0
C368 C 0.11927 0.18039 0.13419 0.0
C369 C 0.09972 0.12047 0.14808 0.0
C370 C 0.10861 0.17594 0.16447 0.0
N371 N 0.12787 0.13181 0.05829 0.0
C372 C 0.14083 0.13433 0.02989 0.0
C373 C 0.14194 0.18754 0.07367 0.0
C374 C 0.12979 0.15766 0.08083 0.0
C375 C 0.1538 0.19019 0.04376 0.0
C376 C 0.15359 0.16341 0.02198 0.0
H377 H 0.10803 0.19553 0.18278 0.0
H378 H 0.12966 0.23078 0.14333 0.0
H379 H 0.15093 0.23693 0.09135 0.0
O380 O 0.15569 0.08888 0.06829 0.0
O381 O 0.07566 0.11543 0.06427 0.0
O382 O 0.04796 0.09198 0.01393 0.0
O383 O 0.14544 0.09499 0.11842 0.0
O384 O 0.112 0.06358 0.02476 0.0
O385 O 0.06653 0.06661 0.99589 0.0
O386 O 0.9962 0.05853 0.03853 0.0
O387 O 0.0619 1.00892 0.04472 0.0
O388 O 0.10413 0.03505 0.08339 0.0
O389 O 0.99593 0.03433 0.98814 0.0
O390 O 0.03555 0.06322 0.07967 0.0
O391 O 0.08116 0.05894 0.10693 0.0
C392 C 0.05933 0.11794 0.0355 0.0
C393 C 0.18949 0.07606 0.11016 0.0
C394 C 0.22581 0.04584 0.09527 0.0
C395 C 0.23741 0.04768 0.12914 0.0
C396 C 0.20124 0.07814 0.14415 0.0
C397 C 0.22507 0.06386 0.15355 0.0
C398 C 0.20195 0.05979 0.08582 0.0
C399 C 0.09566 0.06655 0.99665 0.0
C400 C 0.16671 0.0935 0.09997 0.0
C401 C 0.13004 0.21021 0.12633 0.0
C402 C 0.14193 0.21376 0.09654 0.0
C403 C 0.08578 1.00824 0.06745 0.0
C404 C 0.94956 0.0508 0.9997 0.0
C405 C 0.90704 0.07088 0.01612 0.0
C406 C 0.89133 0.0623 0.98327 0.0
C407 C 0.93382 0.04173 0.96682 0.0
C408 C 0.93581 0.06493 0.02429 0.0
C409 C 0.90465 0.04741 0.95871 0.0
C410 C 0.05172 0.05727 0.10627 0.0
C411 C 0.98095 0.04766 0.00861 0.0
H412 H 0.25628 0.03716 0.13654 0.0
H413 H 0.1924 0.09125 0.16332 0.0
H414 H 0.23429 0.06575 0.17972 0.0
H415 H 0.19369 0.05838 0.05938 0.0
H416 H 0.86914 0.06751 0.97663 0.0
H417 H 0.94424 0.03087 0.94742 0.0
H418 H 0.94786 0.07246 0.04971 0.0
H419 H 0.89264 0.04084 0.93329 0.0
Tb420 Tb 0.29113 0.81239 0.34017 0.0
C421 C 0.36855 0.75884 0.22219 0.0
N422 N 0.37876 0.78089 0.24964 0.0
C423 C 0.4228 0.75963 0.26224 0.0
C424 C 0.38405 0.73514 0.21465 0.0
C425 C 0.40616 0.78226 0.26896 0.0
C426 C 0.41139 0.73557 0.23534 0.0
C427 C 0.33093 0.7383 0.17245 0.0
C428 C 0.34268 0.76056 0.20131 0.0
C429 C 0.34523 0.71357 0.16565 0.0
C430 C 0.37189 0.7121 0.18662 0.0
Tb431 Tb 0.34675 0.81302 0.26185 0.0
N432 N 0.3292 0.78439 0.20945 0.0
C433 C 0.30552 0.74193 0.15117 0.0
C434 C 0.3067 0.78991 0.18689 0.0
C435 C 0.29391 0.76835 0.15795 0.0
H436 H 0.41546 0.80102 0.2893 0.0
H437 H 0.27518 0.77219 0.14086 0.0
H438 H 0.22246 0.82452 0.31533 0.0
H439 H 0.38115 0.87291 0.44399 0.0
H440 H 0.29839 0.81084 0.19087 0.0
H441 H 0.29551 0.72519 0.12888 0.0
H442 H 0.35786 0.83261 0.39754 0.0
H443 H 0.44436 0.76073 0.27786 0.0
H444 H 0.3363 0.6959 0.14388 0.0
H445 H 0.38314 0.69334 0.1807 0.0
H446 H 0.19146 0.86151 0.33153 0.0
H447 H 0.42416 0.7179 0.23035 0.0
H448 H 0.35351 0.91249 0.46282 0.0
N449 N 0.26006 0.84473 0.35441 0.0
C450 C 0.27131 0.86729 0.38124 0.0
C451 C 0.21393 0.86348 0.34569 0.0
C452 C 0.25444 0.88928 0.39106 0.0
C453 C 0.23173 0.84259 0.33654 0.0
C454 C 0.22536 0.88701 0.37301 0.0
N455 N 0.31592 0.84757 0.38749 0.0
C456 C 0.34465 0.8489 0.40422 0.0
C457 C 0.31322 0.8929 0.42552 0.0
C458 C 0.30022 0.86889 0.39829 0.0
C459 C 0.34269 0.89437 0.44193 0.0
C460 C 0.35835 0.87215 0.43133 0.0
H461 H 0.21164 0.90337 0.37985 0.0
H462 H 0.25465 0.9302 0.42599 0.0
H463 H 0.30629 0.9335 0.45606 0.0
O464 O 0.28878 0.77452 0.36584 0.0
O465 O 0.31055 0.85849 0.33072 0.0
O466 O 0.34605 0.83814 0.31033 0.0
O467 O 0.24741 0.78634 0.34463 0.0
O468 O 0.33502 0.7962 0.35255 0.0
O469 O 0.36914 0.80664 0.31306 0.0
O470 O 0.34874 0.85434 0.24124 0.0
O471 O 0.32169 0.76521 0.26072 0.0
O472 O 0.30526 0.79258 0.29745 0.0
O473 O 0.38974 0.83851 0.25566 0.0
O474 O 0.29905 0.82202 0.2488 0.0
O475 O 0.2655 0.81275 0.28918 0.0
C476 C 0.33456 0.86226 0.31567 0.0
C477 C 0.24696 0.7638 0.39422 0.0
C478 C 0.2489 0.73782 0.44263 0.0
C479 C 0.22734 0.75289 0.45504 0.0
C480 C 0.22558 0.77934 0.40655 0.0
C481 C 0.21564 0.77362 0.43687 0.0
C482 C 0.25818 0.74292 0.4122 0.0
C483 C 0.36259 0.79781 0.34241 0.0
C484 C 0.25903 0.7689 0.36332 0.0
C485 C 0.26721 0.91302 0.41821 0.0
C486 C 0.29659 0.91489 0.43533 0.0
C487 C 0.30402 0.76492 0.28298 0.0
C488 C 0.39257 0.87192 0.21523 0.0
C489 C 0.38953 0.89442 0.16413 0.0
C490 C 0.42155 0.89958 0.16595 0.0
C491 C 0.42467 0.87743 0.21697 0.0
C492 C 0.37505 0.88079 0.18884 0.0
C493 C 0.43904 0.89121 0.19242 0.0
C494 C 0.27147 0.81965 0.25912 0.0
C495 C 0.37851 0.85971 0.24285 0.0
H496 H 0.22031 0.7493 0.479 0.0
H497 H 0.2168 0.79588 0.39305 0.0
H498 H 0.1993 0.78564 0.44656 0.0
H499 H 0.27502 0.73116 0.40297 0.0
H500 H 0.43292 0.90993 0.14677 0.0
H501 H 0.4387 0.87141 0.2376 0.0
H502 H 0.35027 0.87676 0.18712 0.0
H503 H 0.46376 0.89538 0.19392 0.0
Tb504 Tb 0.53177 0.05786 0.57697 0.0
C505 C 0.63086 0.11866 0.48887 0.0
N506 N 0.6099 0.09081 0.48242 0.0
C507 C 0.59714 0.09883 0.42555 0.0
C508 C 0.6344 0.1383 0.46427 0.0
C509 C 0.59469 0.07994 0.45045 0.0
C510 C 0.61656 0.12839 0.43267 0.0
C511 C 0.67409 0.15414 0.52569 0.0
C512 C 0.65068 0.12659 0.51928 0.0
C513 C 0.67636 0.17443 0.50196 0.0
C514 C 0.65658 0.16654 0.47135 0.0
Tb515 Tb 0.60934 0.06324 0.52651 0.0
N516 N 0.64767 0.10684 0.54221 0.0
C517 C 0.6948 0.16026 0.55562 0.0
C518 C 0.66954 0.11129 0.56979 0.0
C519 C 0.69279 0.13846 0.57751 0.0
H520 H 0.58114 0.05643 0.4433 0.0
H521 H 0.70956 0.1422 0.59993 0.0
H522 H 0.55732 0.06646 0.66035 0.0
H523 H 0.43775 0.97454 0.49774 0.0
H524 H 0.66988 0.09354 0.58525 0.0
H525 H 0.71298 0.18123 0.56153 0.0
H526 H 0.47639 0.02385 0.51311 0.0
H527 H 0.58455 0.09026 0.40059 0.0
H528 H 0.69388 0.19592 0.50669 0.0
H529 H 0.65931 0.182 0.45285 0.0
H530 H 0.55015 0.03473 0.70482 0.0
H531 H 0.61872 0.14275 0.41312 0.0
H532 H 0.43088 0.93786 0.53851 0.0
N533 N 0.52877 0.0316 0.62173 0.0
C534 C 0.50744 1.00402 0.61526 0.0
C535 C 0.5385 0.02554 0.6796 0.0
C536 C 0.50201 0.98552 0.64058 0.0
C537 C 0.54305 0.0432 0.65387 0.0
C538 C 0.5183 0.99638 0.67284 0.0
N539 N 0.4942 1.01378 0.56002 0.0
C540 C 0.47499 1.00742 0.53015 0.0
C541 C 0.46669 0.96701 0.5766 0.0
C542 C 0.48952 0.99497 0.58369 0.0
C543 C 0.44857 0.9592 0.54494 0.0
C544 C 0.45247 0.97973 0.52179 0.0
H545 H 0.51459 0.98294 0.69298 0.0
H546 H 0.47547 0.94281 0.65245 0.0
H547 H 0.44491 0.92644 0.59637 0.0
O548 O 0.49282 0.07519 0.55909 0.0
O549 O 0.53843 1.01059 0.55197 0.0
O550 O 0.57999 1.01415 0.52098 0.0
O551 O 0.51065 0.07906 0.6123 0.0
O552 O 0.54772 0.07362 0.53343 0.0
O553 O 0.56629 0.04832 0.494 0.0
O554 O 0.64691 0.04408 0.54436 0.0
O555 O 0.6039 0.11029 0.55385 0.0
O556 O 0.55947 0.10715 0.58004 0.0
O557 O 0.63256 0.04506 0.49115 0.0
O558 O 0.59379 0.04725 0.56993 0.0
O559 O 0.57497 0.07194 0.60971 0.0
C560 C 0.55587 0.99738 0.53234 0.0
C561 C 0.4683 0.10271 0.60089 0.0
C562 C 0.4314 0.13426 0.58991 0.0
C563 C 0.43185 0.14189 0.62442 0.0
C564 C 0.4682 0.11046 0.63544 0.0
C565 C 0.45005 0.12988 0.64704 0.0
C566 C 0.44942 0.11439 0.57797 0.0
C567 C 0.54285 0.05619 0.50475 0.0
C568 C 0.49093 0.08575 0.58995 0.0
C569 C 0.47977 0.95733 0.63332 0.0
C570 C 0.46228 0.94804 0.6014 0.0
C571 C 0.58491 0.12377 0.57105 0.0
C572 C 0.6763 0.02354 0.50313 0.0
C573 C 0.71228 0.99055 0.51126 0.0
C574 C 0.71945 0.99322 0.47902 0.0
C575 C 0.68404 0.02621 0.47106 0.0
C576 C 0.69093 1.0061 0.52358 0.0
C577 C 0.70554 1.01116 0.45916 0.0
C578 C 0.5985 0.06474 0.59846 0.0
C579 C 0.65164 0.03756 0.51357 0.0
H580 H 0.41775 0.15691 0.63381 0.0
H581 H 0.48264 0.10202 0.65373 0.0
H582 H 0.45029 0.13583 0.67365 0.0
H583 H 0.44927 0.10879 0.55128 0.0
H584 H 0.73613 0.98163 0.46934 0.0
H585 H 0.67324 0.03972 0.45494 0.0
H586 H 0.68515 1.00386 0.54835 0.0
H587 H 0.71127 1.01325 0.43441 0.0
Tb588 Tb 0.35691 0.29313 0.80676 0.0
C589 C 0.25245 0.34873 0.73593 0.0
N590 N 0.27599 0.36194 0.76122 0.0
C591 C 0.28302 0.40998 0.73907 0.0
C592 C 0.24357 0.36562 0.71087 0.0
C593 C 0.29086 0.3924 0.7635 0.0
C594 C 0.25939 0.39651 0.71254 0.0
C595 C 0.21279 0.3035 0.70915 0.0
C596 C 0.23733 0.31801 0.73502 0.0
C597 C 0.2038 0.32031 0.68425 0.0
C598 C 0.2192 0.35125 0.68505 0.0
Tb599 Tb 0.28544 0.33088 0.79991 0.0
N600 N 0.24773 0.30192 0.75852 0.0
C601 C 0.19846 0.27235 0.70872 0.0
C602 C 0.23289 0.27196 0.75892 0.0
C603 C 0.20844 0.2566 0.73387 0.0
H604 H 0.30797 0.40366 0.7847 0.0
H605 H 0.19706 0.23271 0.73425 0.0
H606 H 0.33616 0.21912 0.81788 0.0
H607 H 0.43999 0.39198 0.87994 0.0
H608 H 0.23904 0.25994 0.77878 0.0
H609 H 0.17957 0.26035 0.68927 0.0
H610 H 0.40237 0.36418 0.8314 0.0
H611 H 0.29493 0.43406 0.741 0.0
H612 H 0.18511 0.30952 0.66411 0.0
H613 H 0.21209 0.36387 0.66556 0.0
H614 H 0.34765 0.18754 0.86118 0.0
H615 H 0.25328 0.41026 0.69374 0.0
H616 H 0.45364 0.36424 0.92646 0.0
N617 N 0.36549 0.26109 0.84472 0.0
C618 C 0.38667 0.27448 0.87221 0.0
C619 C 0.35858 0.21204 0.86473 0.0
C620 C 0.39434 0.25714 0.89733 0.0
C621 C 0.35173 0.23016 0.84045 0.0
C622 C 0.37988 0.22559 0.89335 0.0
N623 N 0.39231 0.32183 0.85068 0.0
C624 C 0.40694 0.35211 0.85172 0.0
C625 C 0.42278 0.32052 0.90333 0.0
C626 C 0.40076 0.30576 0.87518 0.0
C627 C 0.4366 0.35204 0.90526 0.0
C628 C 0.42884 0.36781 0.87916 0.0
H629 H 0.3852 0.21144 0.91205 0.0
H630 H 0.4224 0.25878 0.94502 0.0
H631 H 0.44724 0.31428 0.95028 0.0
O632 O 0.39492 0.30671 0.78128 0.0
O633 O 0.34322 0.31196 0.85482 0.0
O634 O 0.32112 0.35239 0.84334 0.0
O635 O 0.38057 0.25939 0.79182 0.0
O636 O 0.35696 0.3333 0.78018 0.0
O637 O 0.3299 0.36432 0.80662 0.0
O638 O 0.2493 0.31891 0.82841 0.0
O639 O 0.29671 0.31023 0.75135 0.0
O640 O 0.32362 0.27246 0.76108 0.0
O641 O 0.26197 0.36492 0.81388 0.0
O642 O 0.28547 0.29098 0.82656 0.0
O643 O 0.31221 0.25969 0.79984 0.0
C644 C 0.33449 0.3377 0.86482 0.0
C645 C 0.42456 0.26903 0.76269 0.0
C646 C 0.46313 0.27586 0.72536 0.0
C647 C 0.46884 0.24684 0.73023 0.0
C648 C 0.43101 0.2402 0.76733 0.0
C649 C 0.45303 0.22929 0.75126 0.0
C650 C 0.44114 0.28723 0.74198 0.0
C651 C 0.35292 0.36099 0.79068 0.0
C652 C 0.39966 0.27871 0.77863 0.0
C653 C 0.41621 0.27174 0.92547 0.0
C654 C 0.43037 0.30335 0.92847 0.0
C655 C 0.30831 0.28648 0.74041 0.0
C656 C 0.21919 0.35689 0.84463 0.0
C657 C 0.17977 0.35053 0.8808 0.0
C658 C 0.17318 0.37874 0.87395 0.0
C659 C 0.21198 0.38495 0.83803 0.0
C660 C 0.20264 0.33932 0.86578 0.0
C661 C 0.18908 0.3957 0.85255 0.0
C662 C 0.2896 0.26326 0.81646 0.0
C663 C 0.24359 0.34641 0.82864 0.0
H664 H 0.48601 0.23796 0.71811 0.0
H665 H 0.41888 0.2259 0.78331 0.0
H666 H 0.45783 0.20707 0.75506 0.0
H667 H 0.43664 0.30964 0.73832 0.0
H668 H 0.15528 0.38742 0.88481 0.0
H669 H 0.22394 0.3986 0.8214 0.0
H670 H 0.20761 0.31741 0.87076 0.0
H671 H 0.18359 0.41725 0.84714 0.0
Tb672 Tb 0.08913 0.02388 0.54841 0.0
C673 C 0.03596 0.13166 0.6158 0.0
N674 N 1.02295 0.10789 0.59047 0.0
C675 C 0.97557 0.10031 0.61284 0.0
C676 C 1.01933 0.14037 0.64104 0.0
C677 C 0.9929 0.09263 0.58824 0.0
C678 C 0.98887 0.12414 0.63947 0.0
C679 C 0.08056 0.17203 0.64234 0.0
C680 C 0.06626 0.14714 0.61658 0.0
C681 C 0.06407 0.18078 0.66755 0.0
C682 C 0.03358 0.16492 0.66697 0.0
Tb683 Tb 0.05408 0.09757 0.55251 0.0
N684 N 0.082 0.13701 0.59275 0.0
C685 C 0.11111 0.18709 0.64217 0.0
C686 C 0.11114 0.15279 0.5914 0.0
C687 C 0.12633 0.17764 0.61633 0.0
H688 H 0.98184 0.075 0.5672 0.0
H689 H 0.14962 0.18978 0.6153 0.0
H690 H 0.16147 0.04542 0.53399 0.0
H691 H 0.99099 0.93677 0.48112 0.0
H692 H 0.12242 0.14717 0.57067 0.0
H693 H 0.12294 0.2063 0.6615 0.0
H694 H 1.01982 0.9757 0.52849 0.0
H695 H 0.95185 0.08802 0.61107 0.0
H696 H 0.07472 0.19969 0.68768 0.0
H697 H 1.02118 0.17187 0.68665 0.0
H698 H 0.1911 0.03304 0.48945 0.0
H699 H 0.97533 0.13006 0.65844 0.0
H700 H 1.01657 0.92272 0.43304 0.0
N701 N 0.11963 1.01452 0.50938 0.0
C702 C 0.10585 0.99228 0.48275 0.0
C703 C 0.16707 1.0216 0.48713 0.0
C704 C 0.12212 0.98422 0.4569 0.0
C705 C 0.15 0.02888 0.51216 0.0
C706 C 0.15306 0.99929 0.45932 0.0
N707 N 0.05995 0.98689 0.50618 0.0
C708 C 1.03058 0.97145 0.50701 0.0
C709 C 0.05994 0.95482 0.45391 0.0
C710 C 0.07511 0.9778 0.48121 0.0
C711 C 1.02907 0.94051 0.45354 0.0
C712 C 1.01447 0.94857 0.48047 0.0
H713 H 0.16639 0.99372 0.44 0.0
H714 H 0.11917 0.95501 0.40939 0.0
H715 H 0.06476 0.92927 0.40681 0.0
O716 O 0.07633 0.98663 0.5757 0.0
O717 O 0.07223 0.03739 0.4992 0.0
O718 O 0.0331 0.06065 0.51029 0.0
O719 O 0.12236 0.99952 0.56259 0.0
O720 O 0.04816 0.02415 0.57318 0.0
O721 O 1.02047 0.05306 0.54484 0.0
O722 O 0.06661 0.13143 0.52135 0.0
O723 O 0.07274 0.0866 0.60202 0.0
O724 O 0.10907 0.05771 0.59399 0.0
O725 O 1.02099 0.12134 0.53633 0.0
O726 O 0.09476 0.09633 0.52825 0.0
O727 O 0.1234 0.06857 0.557 0.0
C728 C 0.04772 0.04757 0.48868 0.0
C729 C 0.11333 0.95605 0.59329 0.0
C730 C 0.10786 0.91876 0.63267 0.0
C731 C 0.13534 0.9112 0.62556 0.0
C732 C 0.14058 0.94774 0.58648 0.0
C733 C 0.1514 0.92542 0.60244 0.0
C734 C 0.09655 0.941 0.61608 0.0
C735 C 1.02176 0.03026 0.56211 0.0
C736 C 0.10367 0.98107 0.57712 0.0
C737 C 0.10704 0.96148 0.42953 0.0
C738 C 0.07604 0.94682 0.42804 0.0
C739 C 0.09534 0.07413 0.61386 0.0
C740 C 1.02964 0.16013 0.49978 0.0
C741 C 0.04043 0.20026 0.46455 0.0
C742 C 1.00893 0.19979 0.45871 0.0
C743 C 0.9983 0.16029 0.49382 0.0
C744 C 0.05085 0.18053 0.48542 0.0
C745 C 0.98808 0.18005 0.47342 0.0
C746 C 0.12147 0.09171 0.54029 0.0
C747 C 0.03934 0.13725 0.51922 0.0
H748 H 0.14408 0.89372 0.63748 0.0
H749 H 0.15369 0.9586 0.56879 0.0
H750 H 0.17237 0.91915 0.59689 0.0
H751 H 0.07529 0.94689 0.62135 0.0
H752 H 1.00051 0.21531 0.44333 0.0
H753 H 0.98154 0.14478 0.50451 0.0
H754 H 0.07515 0.1809 0.4901 0.0
H755 H 0.96389 0.18003 0.46896 0.0
Tb756 Tb 0.32704 0.85549 0.7772 0.0
C757 C 0.26416 0.75298 0.86194 0.0
N758 N 0.29282 0.77226 0.86858 0.0
C759 C 0.28779 0.78177 0.92682 0.0
C760 C 0.24582 0.74862 0.88743 0.0
C761 C 0.30548 0.78472 0.90107 0.0
C762 C 0.25763 0.76418 0.91987 0.0
C763 C 0.22613 0.71256 0.82381 0.0
C764 C 0.25415 0.73513 0.83029 0.0
C765 C 0.20725 0.70954 0.84864 0.0
C766 C 0.217 0.7276 0.88031 0.0
Tb767 Tb 0.31791 0.77402 0.82285 0.0
N768 N 0.27272 0.73857 0.80643 0.0
C769 C 0.2185 0.69281 0.79297 0.0
C770 C 0.26683 0.71744 0.77784 0.0
C771 C 0.23926 0.69488 0.77016 0.0
H772 H 0.32944 0.7965 0.90777 0.0
H773 H 0.23441 0.67862 0.74707 0.0
H774 H 0.31896 0.82953 0.69297 0.0
H775 H 0.4081 0.95056 0.8561 0.0
H776 H 0.28381 0.71709 0.76163 0.0
H777 H 0.19728 0.67507 0.78713 0.0
H778 H 0.36042 0.90969 0.84138 0.0
H779 H 0.29773 0.79241 0.95223 0.0
H780 H 0.18549 0.69257 0.84397 0.0
H781 H 0.2026 0.72419 0.89957 0.0
H782 H 0.35143 0.83565 0.6497 0.0
H783 H 0.24424 0.76142 0.94007 0.0
H784 H 0.44469 0.95756 0.81564 0.0
N785 N 0.35366 0.85655 0.73282 0.0
C786 C 0.38142 0.87753 0.73993 0.0
C787 C 0.3604 0.847 0.67511 0.0
C788 C 0.40002 0.88304 0.71484 0.0
C789 C 0.34231 0.84286 0.70035 0.0
C790 C 0.38954 0.86677 0.68246 0.0
N791 N 0.37169 0.891 0.7954 0.0
C792 C 0.37709 0.91114 0.8247 0.0
C793 C 0.41739 0.91952 0.7785 0.0
C794 C 0.39028 0.8957 0.77168 0.0
C795 C 0.42417 0.93892 0.80957 0.0
C796 C 0.40371 0.93493 0.83259 0.0
H797 H 0.40315 0.87046 0.66257 0.0
H798 H 0.44226 0.91011 0.70323 0.0
H799 H 0.45735 0.94198 0.7588 0.0
O800 O 0.30895 0.89275 0.7974 0.0
O801 O 0.37209 0.84642 0.80318 0.0
O802 O 0.36744 0.80137 0.82971 0.0
O803 O 0.31653 0.88663 0.74615 0.0
O804 O 0.31152 0.83634 0.8191 0.0
O805 O 0.33429 0.81628 0.85852 0.0
O806 O 0.33687 0.73837 0.80048 0.0
O807 O 0.27216 0.7829 0.79706 0.0
O808 O 0.27736 0.82952 0.77324 0.0
O809 O 0.32889 0.7412 0.85159 0.0
O810 O 0.33324 0.79148 0.77967 0.0
O811 O 0.30918 0.81351 0.74234 0.0
C812 C 0.38446 0.8267 0.82032 0.0
C813 C 0.27617 0.91021 0.75687 0.0
C814 C 0.23957 0.94261 0.76407 0.0
C815 C 0.22458 0.93079 0.73132 0.0
C816 C 0.26056 0.89831 0.72416 0.0
C817 C 0.23507 0.90875 0.7115 0.0
C818 C 0.26553 0.93249 0.77678 0.0
C819 C 0.32775 0.84076 0.84825 0.0
C820 C 0.30548 0.90246 0.7686 0.0
C821 C 0.42776 0.90572 0.72224 0.0
C822 C 0.43635 0.92394 0.75389 0.0
C823 C 0.25996 0.80377 0.78148 0.0
C824 C 0.37078 0.72083 0.83938 0.0
C825 C 0.40609 0.68654 0.83583 0.0
C826 C 0.42427 0.70364 0.86537 0.0
C827 C 0.38967 0.73818 0.86859 0.0
C828 C 0.37932 0.69514 0.8228 0.0
C829 C 0.4162 0.72951 0.88148 0.0
C830 C 0.31553 0.78852 0.75151 0.0
C831 C 0.34066 0.7272 0.82836 0.0
H832 H 0.20516 0.9392 0.72084 0.0
H833 H 0.26845 0.88152 0.70791 0.0
H834 H 0.22371 0.90011 0.68607 0.0
H835 H 0.27773 0.94239 0.8017 0.0
H836 H 0.44464 0.69683 0.87601 0.0
H837 H 0.38359 0.75805 0.88191 0.0
H838 H 0.36473 0.68132 0.80056 0.0
H839 H 0.4303 0.7426 0.9043 0.0
Tb840 Tb 0.5651 0.08769 0.00922 0.0
C841 C 0.62558 1.01288 0.12306 0.0
N842 N 0.60216 1.00017 0.09761 0.0
C843 C 0.62394 0.95595 0.08641 0.0
C844 C 0.64979 0.99814 0.13048 0.0
C845 C 0.60082 0.97183 0.07953 0.0
C846 C 0.64876 0.96933 0.11172 0.0
C847 C 0.64852 0.05455 0.16891 0.0
C848 C 0.62501 0.04074 0.14179 0.0
C849 C 0.67349 0.04078 0.17551 0.0
C850 C 0.67407 1.01254 0.1564 0.0
Tb851 Tb 0.56849 0.03041 0.08492 0.0
N852 N 0.60061 0.05349 0.13425 0.0
C853 C 0.64557 0.08105 0.1893 0.0
C854 C 0.59569 0.07654 0.15692 0.0
C855 C 0.61851 0.09142 0.18396 0.0
H856 H 0.58181 0.96136 0.05974 0.0
H857 H 0.61493 0.1105 0.20103 0.0
H858 H 0.55198 0.15613 0.04013 0.0
H859 H 0.52036 1.01794 0.8878 0.0
H860 H 0.57406 0.08326 0.1552 0.0
H861 H 0.66314 0.09249 0.21032 0.0
H862 H 0.56071 0.04302 0.93576 0.0
H863 H 0.62275 0.93353 0.07197 0.0
H864 H 0.692 0.05128 0.19593 0.0
H865 H 0.69311 1.00179 0.16223 0.0
H866 H 0.5117 0.18495 0.03083 0.0
H867 H 0.66681 0.95711 0.11678 0.0
H868 H 0.47153 0.03524 0.88099 0.0
N869 N 0.5306 0.11836 1.00111 0.0
C870 C 0.50707 0.1073 0.97541 0.0
C871 C 0.5099 0.16292 0.01528 0.0
C872 C 0.48344 0.12305 0.9692 0.0
C873 C 0.53262 0.14624 0.02064 0.0
C874 C 0.48497 0.15109 0.98973 0.0
N875 N 0.53239 0.06823 0.95987 0.0
C876 C 0.53833 0.04807 0.93489 0.0
C877 C 0.4849 0.06938 0.92601 0.0
C878 C 0.50775 0.08091 0.95426 0.0
C879 C 0.48859 0.04494 0.90298 0.0
C880 C 0.516 0.03496 0.90686 0.0
H881 H 0.46744 0.16411 0.98559 0.0
H882 H 0.44103 0.12233 0.93719 0.0
H883 H 0.44225 0.07513 0.89935 0.0
O884 O 0.60266 0.09132 0.98299 0.0
O885 O 0.52032 0.06647 0.0197 0.0
O886 O 0.54004 0.02951 0.03829 0.0
O887 O 0.58634 0.13226 1.00098 0.0
O888 O 0.57533 0.04065 0.99244 0.0
O889 O 0.57299 1.00719 0.03362 0.0
O890 O 0.52811 0.02633 0.10603 0.0
O891 O 0.61457 0.04969 0.07548 0.0
O892 O 0.5908 0.08095 0.05374 0.0
O893 O 0.5481 0.98701 0.09696 0.0
O894 O 0.55582 0.07653 0.09914 0.0
O895 O 0.56526 0.11206 0.06097 0.0
C896 C 0.51651 0.0419 0.03416 0.0
C897 C 0.62941 0.14077 0.97088 0.0
C898 C 0.66456 0.14494 0.93079 0.0
C899 C 0.66879 0.17738 0.93627 0.0
C900 C 0.63464 0.17327 0.9775 0.0
C901 C 0.65456 0.19154 0.96034 0.0
C902 C 0.64523 0.12677 0.94844 0.0
C903 C 0.57755 1.01355 1.00287 0.0
C904 C 0.60573 0.12122 0.98499 0.0
C905 C 0.45958 0.11073 0.94221 0.0
C906 C 0.46022 0.08381 0.92073 0.0
C907 C 0.61614 0.07168 0.05775 0.0
C908 C 0.52163 0.99026 0.14344 0.0
C909 C 0.49494 0.99715 0.19085 0.0
C910 C 0.50653 0.97368 0.20432 0.0
C911 C 0.53353 0.96704 0.15722 0.0
C912 C 0.50255 1.00541 0.1606 0.0
C913 C 0.52595 0.95885 0.18761 0.0
C914 C 0.55664 0.1045 0.08977 0.0
C915 C 0.52715 0.99777 0.11042 0.0
H916 H 0.68266 0.19153 0.9215 0.0
H917 H 0.62273 0.18446 0.99514 0.0
H918 H 0.65803 0.21656 0.96478 0.0
H919 H 0.64072 0.10162 0.94268 0.0
H920 H 0.50109 0.96737 0.22809 0.0
H921 H 0.54836 0.95503 0.14444 0.0
H922 H 0.49331 0.02348 0.15037 0.0
H923 H 0.5351 0.94097 0.19821 0.0
Tb924 Tb 0.29703 0.27154 0.27725 0.0
C925 C 0.40374 0.36951 0.36793 0.0
N926 N 0.37444 0.35615 0.37153 0.0
C927 C 0.39005 0.36099 0.43094 0.0
C928 C 0.42716 0.37935 0.39584 0.0
C929 C 0.3673 0.35252 0.40276 0.0
C930 C 0.42013 0.37442 0.42749 0.0
C931 C 0.43927 0.39173 0.33229 0.0
C932 C 0.40984 0.37552 0.33644 0.0
C933 C 0.4626 0.40127 0.36 0.0
C934 C 0.45652 0.39497 0.39155 0.0
Tb935 Tb 0.33912 0.34937 0.32406 0.0
N936 N 0.38652 0.36672 0.31018 0.0
C937 C 0.44407 0.39905 0.30068 0.0
C938 C 0.39082 0.37522 0.27974 0.0
C939 C 0.41963 0.3909 0.27433 0.0
H940 H 0.34393 0.34509 0.40676 0.0
H941 H 0.4227 0.39758 0.25011 0.0
H942 H 0.29211 0.27708 0.19481 0.0
H943 H 0.21281 0.22427 0.35124 0.0
H944 H 0.37196 0.37159 0.26 0.0
H945 H 0.46625 0.41182 0.29664 0.0
H946 H 0.26416 0.24842 0.34105 0.0
H947 H 0.38412 0.35819 0.4555 0.0
H948 H 0.48528 0.41404 0.35744 0.0
H949 H 0.47448 0.40294 0.41263 0.0
H950 H 0.25176 0.26521 0.14629 0.0
H951 H 0.43751 0.38179 0.44955 0.0
H952 H 0.16899 0.21204 0.30506 0.0
N953 N 0.26162 0.26623 0.23011 0.0
C954 C 0.2322 0.25325 0.23376 0.0
C955 C 0.24584 0.26235 0.17084 0.0
C956 C 0.20859 0.24446 0.206 0.0
C957 C 0.26871 0.27015 0.19891 0.0
C958 C 0.21563 0.24958 0.17439 0.0
N959 N 0.2497 0.25409 0.29116 0.0
C960 C 0.24527 0.24538 0.32146 0.0
C961 C 0.19644 0.23119 0.2693 0.0
C962 C 0.22617 0.24644 0.26506 0.0
C963 C 0.1915 0.22385 0.30086 0.0
C964 C 0.2161 0.23085 0.32703 0.0
H965 H 0.19812 0.24281 0.15241 0.0
H966 H 0.16081 0.22277 0.18942 0.0
H967 H 0.14988 0.21105 0.24442 0.0
O968 O 0.3038 0.23005 0.29281 0.0
O969 O 0.264 0.30205 0.29197 0.0
O970 O 0.29022 0.34111 0.3345 0.0
O971 O 0.28627 0.23144 0.24161 0.0
O972 O 0.3188 0.27249 0.32952 0.0
O973 O 0.31497 0.31891 0.35614 0.0
O974 O 0.33562 0.39055 0.30617 0.0
O975 O 0.37222 0.31827 0.31112 0.0
O976 O 0.34619 0.28169 0.26629 0.0
O977 O 0.34688 0.39008 0.35905 0.0
O978 O 0.31759 0.34809 0.27118 0.0
O979 O 0.32181 0.30134 0.24618 0.0
C980 C 0.26365 0.32471 0.31671 0.0
C981 C 0.31706 0.19659 0.25072 0.0
C982 C 0.34803 0.16053 0.26255 0.0
C983 C 0.3547 0.15784 0.22985 0.0
C984 C 0.32365 0.19433 0.2177 0.0
C985 C 0.34252 0.17496 0.20739 0.0
C986 C 0.32946 0.17972 0.27294 0.0
C987 C 0.31525 0.28959 0.35686 0.0
C988 C 0.29616 0.21487 0.26238 0.0
C989 C 0.17898 0.22966 0.21036 0.0
C990 C 0.17284 0.223 0.24179 0.0
C991 C 0.37283 0.29695 0.2851 0.0
C992 C 0.32653 0.43175 0.34316 0.0
C993 C 0.3047 0.47191 0.32218 0.0
C994 C 0.30833 0.48785 0.35486 0.0
C995 C 0.32992 0.44752 0.37599 0.0
C996 C 0.31313 0.44373 0.31645 0.0
C997 C 0.32054 0.47538 0.38177 0.0
C998 C 0.3212 0.33025 0.24436 0.0
C999 C 0.34241 0.40691 0.33601 0.0
H1000 H 0.3689 0.14239 0.22176 0.0
H1001 H 0.31403 0.20712 0.19983 0.0
H1002 H 0.34737 0.17292 0.18197 0.0
H1003 H 0.32414 0.18093 0.2983 0.0
H1004 H 0.30185 0.50989 0.35943 0.0
H1005 H 0.34092 0.43903 0.39695 0.0
H1006 H 0.31097 0.4323 0.29088 0.0
H1007 H 0.32361 0.48775 0.40699 0.0
Tb1008 Tb 0.58977 0.52463 0.04757 0.0
C1009 C 0.53729 0.63129 0.11616 0.0
N1010 N 0.52387 0.60781 0.09065 0.0
C1011 C 0.47655 0.60089 0.11312 0.0
C1012 C 0.52081 0.64029 0.14144 0.0
C1013 C 0.49374 0.59284 0.08853 0.0
C1014 C 0.49013 0.62465 0.13973 0.0
C1015 C 0.58269 0.67027 0.14349 0.0
C1016 C 0.56794 0.64595 0.11731 0.0
C1017 C 0.56628 0.67944 0.16859 0.0
C1018 C 0.53546 0.66444 0.16762 0.0
Tb1019 Tb 0.55441 0.59778 0.05203 0.0
N1020 N 0.58349 0.63563 0.09333 0.0
C1021 C 0.61352 0.68457 0.14372 0.0
C1022 C 0.61301 0.65067 0.0925 0.0
C1023 C 0.62864 0.67491 0.11789 0.0
H1024 H 0.4825 0.57524 0.06752 0.0
H1025 H 0.65218 0.68649 0.1172 0.0
H1026 H 0.66192 0.5462 0.03279 0.0
H1027 H 0.4932 0.43395 0.98339 0.0
H1028 H 0.62437 0.64503 0.07189 0.0
H1029 H 0.62567 0.70338 0.16335 0.0
H1030 H 0.52199 0.47379 0.03003 0.0
H1031 H 0.45271 0.58895 0.11135 0.0
H1032 H 0.57724 0.69803 0.18895 0.0
H1033 H 0.52315 0.67168 0.18726 0.0
H1034 H 0.69147 0.5339 0.98813 0.0
H1035 H 0.4767 0.63085 0.15869 0.0
H1036 H 0.51827 0.42023 0.93476 0.0
N1037 N 0.62027 0.51473 0.00866 0.0
C1038 C 0.60664 0.49213 0.98233 0.0
C1039 C 0.66754 0.52216 0.98606 0.0
C1040 C 0.62286 0.48405 0.95644 0.0
C1041 C 0.65052 0.5294 0.01115 0.0
C1042 C 0.65363 0.49953 0.95849 0.0
N1043 N 0.56118 0.48611 1.00644 0.0
C1044 C 0.53232 0.46983 0.00814 0.0
C1045 C 0.56117 0.45352 0.95452 0.0
C1046 C 0.57618 0.47715 0.9813 0.0
C1047 C 0.53065 0.4385 0.95486 0.0
C1048 C 0.51632 0.44638 0.98209 0.0
H1049 H 0.66692 0.49397 0.93913 0.0
H1050 H 0.62 0.45432 0.9093 0.0
H1051 H 0.566 0.42757 0.90765 0.0
O1052 O 0.57799 0.4894 0.07772 0.0
O1053 O 0.57208 0.53695 0.99797 0.0
O1054 O 0.53388 0.56199 0.00875 0.0
O1055 O 0.62335 0.50112 0.0627 0.0
O1056 O 0.54791 0.52406 0.07099 0.0
O1057 O 0.52034 0.55332 0.04293 0.0
O1058 O 0.56666 0.63372 0.0233 0.0
O1059 O 0.57097 0.58451 0.10097 0.0
O1060 O 0.60998 0.56008 0.09181 0.0
O1061 O 0.52083 0.62162 0.03735 0.0
O1062 O 0.59485 0.5976 0.02678 0.0
O1063 O 0.62354 0.56953 0.05502 0.0
C1064 C 0.54818 0.5481 0.98739 0.0
C1065 C 0.61623 0.46109 0.09802 0.0
C1066 C 0.60835 0.42074 0.1336 0.0
C1067 C 0.63961 0.42053 0.13606 0.0
C1068 C 0.64744 0.46023 0.10079 0.0
C1069 C 0.65898 0.44011 0.1197 0.0
C1070 C 0.59649 0.44103 0.11445 0.0
C1071 C 0.52152 0.52984 0.05924 0.0
C1072 C 0.60552 0.48426 0.0795 0.0
C1073 C 0.60792 0.4608 0.92947 0.0
C1074 C 0.57716 0.44557 0.92851 0.0
C1075 C 0.59493 0.57391 0.11244 0.0
C1076 C 0.52973 0.66359 1.00467 0.0
C1077 C 0.53843 0.70235 0.96756 0.0
C1078 C 0.50912 0.70773 0.97022 0.0
C1079 C 0.50062 0.66953 1.00715 0.0
C1080 C 0.54888 0.68044 0.98517 0.0
C1081 C 0.49047 0.69153 0.99005 0.0
C1082 C 0.62157 0.59199 0.03729 0.0
C1083 C 0.53934 0.63936 0.02197 0.0
H1084 H 0.64895 0.40478 0.15036 0.0
H1085 H 0.66317 0.47542 0.08863 0.0
H1086 H 0.68306 0.43969 0.12167 0.0
H1087 H 0.57231 0.44116 0.11241 0.0
H1088 H 0.50094 0.72511 0.95757 0.0
H1089 H 0.48561 0.65713 0.02229 0.0
H1090 H 0.57159 0.67642 0.98342 0.0
H1091 H 0.46809 0.69611 0.99226 0.0
Tb1092 Tb 0.82454 0.35215 0.27394 0.0
C1093 C 0.76449 0.25241 0.36559 0.0
N1094 N 0.7935 0.27082 0.37061 0.0
C1095 C 0.79105 0.28254 0.42924 0.0
C1096 C 0.74719 0.24969 0.39211 0.0
C1097 C 0.80764 0.28384 0.40247 0.0
C1098 C 0.76048 0.26598 0.42391 0.0
C1099 C 0.7248 0.21172 0.32985 0.0
C1100 C 0.75313 0.23365 0.33466 0.0
C1101 C 0.7068 0.2105 0.35559 0.0
C1102 C 0.7179 0.22952 0.38658 0.0
Tb1103 Tb 0.81604 0.27093 0.3232 0.0
N1104 N 0.77084 0.2354 0.30995 0.0
C1105 C 0.71611 0.1907 0.29988 0.0
C1106 C 0.76409 0.21302 0.28236 0.0
C1107 C 0.7362 0.19091 0.27636 0.0
H1108 H 0.8318 0.29519 0.40761 0.0
H1109 H 0.73051 0.17371 0.25397 0.0
H1110 H 0.81785 0.33417 0.18918 0.0
H1111 H 0.90242 0.44696 0.35861 0.0
H1112 H 0.7805 0.2118 0.26547 0.0
H1113 H 0.6946 0.17338 0.29533 0.0
H1114 H 0.85496 0.40666 0.34018 0.0
H1115 H 0.80207 0.29377 0.45415 0.0
H1116 H 0.68476 0.1941 0.35221 0.0
H1117 H 0.70422 0.22742 0.4066 0.0
H1118 H 0.85097 0.34454 0.14674 0.0
H1119 H 0.7479 0.26453 0.44488 0.0
H1120 H 0.94062 0.45674 0.32025 0.0
N1121 N 0.8519 0.35938 0.2304 0.0
C1122 C 0.87928 0.38061 0.23905 0.0
C1123 C 0.85951 0.35428 0.1727 0.0
C1124 C 0.89853 0.38806 0.21496 0.0
C1125 C 0.84104 0.3479 0.19723 0.0
C1126 C 0.88866 0.3739 0.1817 0.0
N1127 N 0.86728 0.39075 0.29378 0.0
C1128 C 0.87204 0.40918 0.32417 0.0
C1129 C 0.91415 0.42074 0.28044 0.0
C1130 C 0.88702 0.397 0.27148 0.0
C1131 C 0.92007 0.43831 0.31246 0.0
C1132 C 0.89868 0.43276 0.33425 0.0
H1133 H 0.90273 0.37915 0.1625 0.0
H1134 H 0.94143 0.41624 0.20622 0.0
H1135 H 0.95518 0.44467 0.26359 0.0
O1136 O 0.8084 0.39226 0.29112 0.0
O1137 O 0.8699 0.34389 0.3005 0.0
O1138 O 0.86547 0.29896 0.32796 0.0
O1139 O 0.80092 0.37137 0.23836 0.0
O1140 O 0.80778 0.33573 0.31758 0.0
O1141 O 0.83138 0.31435 0.35668 0.0
O1142 O 0.8368 0.23791 0.29867 0.0
O1143 O 0.77025 0.27713 0.29543 0.0
O1144 O 0.77594 0.32426 0.27291 0.0
O1145 O 0.82827 0.2371 0.34945 0.0
O1146 O 0.82536 0.29465 0.28343 0.0
O1147 O 0.81648 0.31066 0.23722 0.0
C1148 C 0.88232 0.32432 0.31807 0.0
C1149 C 0.77974 0.41584 0.24974 0.0
C1150 C 0.74711 0.45169 0.26049 0.0
C1151 C 0.74152 0.45307 0.22615 0.0
C1152 C 0.77416 0.41778 0.21541 0.0
C1153 C 0.75519 0.43635 0.20377 0.0
C1154 C 0.76656 0.43335 0.27247 0.0
C1155 C 0.82469 0.33904 0.3465 0.0
C1156 C 0.7963 0.39281 0.26046 0.0
C1157 C 0.9263 0.41051 0.22436 0.0
C1158 C 0.93409 0.42678 0.257 0.0
C1159 C 0.75832 0.29832 0.28031 0.0
C1160 C 0.87144 0.21991 0.33632 0.0
C1161 C 0.90772 0.18672 0.33317 0.0
C1162 C 0.92614 0.20484 0.36205 0.0
C1163 C 0.89035 0.23814 0.36505 0.0
C1164 C 0.88032 0.19422 0.32031 0.0
C1165 C 0.91753 0.23054 0.3778 0.0
C1166 C 0.81909 0.28724 0.25161 0.0
C1167 C 0.84087 0.22523 0.32554 0.0
H1168 H 0.72686 0.46751 0.21675 0.0
H1169 H 0.784 0.40447 0.19735 0.0
H1170 H 0.75088 0.43757 0.1773 0.0
H1171 H 0.77057 0.43205 0.299 0.0
H1172 H 0.947 0.19883 0.37259 0.0
H1173 H 0.88385 0.25791 0.37802 0.0
H1174 H 0.86561 0.17966 0.29856 0.0
H1175 H 0.93172 0.24436 0.4002 0.0
Tb1176 Tb 0.06889 0.59014 0.5076 0.0
C1177 C 0.12 0.51304 0.62756 0.0
N1178 N 0.09778 0.50157 0.60054 0.0
C1179 C 0.11471 0.45387 0.59401 0.0
C1180 C 0.14107 0.4956 0.63826 0.0
C1181 C 0.09494 0.47237 0.58375 0.0
C1182 C 0.138 0.46559 0.62127 0.0
C1183 C 0.14696 0.55666 0.66985 0.0
C1184 C 0.12271 0.54309 0.64333 0.0
C1185 C 0.16797 0.53938 0.68058 0.0
C1186 C 0.16495 0.50888 0.66492 0.0
Tb1187 Tb 0.06792 0.53429 0.58393 0.0
N1188 N 0.10295 0.55974 0.63086 0.0
C1189 C 0.14986 0.58743 0.68434 0.0
C1190 C 0.1051 0.58938 0.64629 0.0
C1191 C 0.1286 0.60371 0.67273 0.0
H1192 H 0.07684 0.46299 0.56293 0.0
H1193 H 0.13023 0.62738 0.68418 0.0
H1194 H 0.05922 0.65857 0.54111 0.0
H1195 H 1.00722 0.50862 0.3972 0.0
H1196 H 0.08898 0.60255 0.63921 0.0
H1197 H 0.16826 0.59875 0.7046 0.0
H1198 H 0.04702 0.52706 0.4453 0.0
H1199 H 0.11206 0.43064 0.58074 0.0
H1200 H 0.18681 0.54951 0.70076 0.0
H1201 H 0.18148 0.49591 0.6733 0.0
H1202 H 1.02346 0.69214 0.53048 0.0
H1203 H 0.15363 0.45139 0.62884 0.0
H1204 H 0.96971 0.53984 0.3827 0.0
N1205 N 0.03779 0.62365 0.49942 0.0
C1206 C 1.01555 0.6151 0.47218 0.0
C1207 C 1.02081 0.67042 0.51402 0.0
C1208 C 0.99453 0.63371 0.46518 0.0
C1209 C 0.04086 0.65106 0.52018 0.0
C1210 C 0.99743 0.66165 0.4865 0.0
N1211 N 0.03355 0.56947 0.45994 0.0
C1212 C 0.0316 0.54166 0.4402 0.0
C1213 C 0.98976 0.57706 0.42388 0.0
C1214 C 1.01336 0.58719 0.45174 0.0
C1215 C 0.98761 0.5485 0.40415 0.0
C1216 C 1.0087 0.53082 0.4123 0.0
H1217 H 0.9818 0.67663 0.48189 0.0
H1218 H 0.95473 0.63767 0.43174 0.0
H1219 H 0.95042 0.58796 0.39569 0.0
O1220 O 0.10655 0.59239 0.48236 0.0
O1221 O 1.02273 0.57037 0.51593 0.0
O1222 O 0.03923 0.53179 0.53624 0.0
O1223 O 0.0931 0.6342 0.50071 0.0
O1224 O 0.08175 0.54469 0.4927 0.0
O1225 O 0.07206 0.51042 0.53255 0.0
O1226 O 0.03332 0.53445 0.61302 0.0
O1227 O 0.11578 0.55299 0.58049 0.0
O1228 O 0.08923 0.57542 0.54986 0.0
O1229 O 0.04238 0.49107 0.59178 0.0
O1230 O 0.05102 0.57895 0.5936 0.0
O1231 O 0.07376 0.61367 0.56025 0.0
C1232 C 1.01703 0.54609 0.53091 0.0
C1233 C 0.1165 0.63338 0.45187 0.0
C1234 C 0.14431 0.63102 0.40517 0.0
C1235 C 0.131 0.65372 0.39237 0.0
C1236 C 0.10263 0.65584 0.43912 0.0
C1237 C 0.11006 0.66605 0.40939 0.0
C1238 C 0.13726 0.62126 0.43483 0.0
C1239 C 0.08003 0.51687 0.5028 0.0
C1240 C 0.11109 0.6223 0.48321 0.0
C1241 C 0.97117 0.62375 0.43742 0.0
C1242 C 0.96874 0.59547 0.41687 0.0
C1243 C 0.11675 0.57274 0.56044 0.0
C1244 C 1.02014 0.49261 0.64151 0.0
C1245 C 0.9929 0.49609 0.68849 0.0
C1246 C 1.00486 0.47223 0.70053 0.0
C1247 C 0.03228 0.46869 0.65321 0.0
C1248 C 1.00024 0.50584 0.659 0.0
C1249 C 1.0244 0.45841 0.68272 0.0
C1250 C 0.05792 0.60754 0.58522 0.0
C1251 C 1.02642 0.50431 0.61085 0.0
H1252 H 0.13625 0.66128 0.36905 0.0
H1253 H 0.08633 0.66548 0.45203 0.0
H1254 H 0.09948 0.68336 0.39946 0.0
H1255 H 0.14797 0.60381 0.44456 0.0
H1256 H 0.99989 0.46509 0.72409 0.0
H1257 H 0.04772 0.45813 0.63979 0.0
H1258 H 0.99091 0.52445 0.65007 0.0
H1259 H 0.03383 0.44015 0.69209 0.0
Tb1260 Tb 0.85647 0.79293 0.30649 0.0
C1261 C 0.75323 0.85099 0.23562 0.0
N1262 N 0.77632 0.86354 0.26155 0.0
C1263 C 0.78341 0.91274 0.24182 0.0
C1264 C 0.74448 0.8689 0.21154 0.0
C1265 C 0.79112 0.89416 0.26524 0.0
C1266 C 0.76004 0.90006 0.21481 0.0
C1267 C 0.71462 0.806 0.20624 0.0
C1268 C 0.7385 0.8199 0.23299 0.0
C1269 C 0.70563 0.82386 0.18241 0.0
C1270 C 0.72056 0.85519 0.18502 0.0
Tb1271 Tb 0.78521 0.83101 0.29879 0.0
N1272 N 0.7487 0.80295 0.25568 0.0
C1273 C 0.70087 0.77442 0.20389 0.0
C1274 C 0.7347 0.77238 0.25397 0.0
C1275 C 0.71093 0.75758 0.22794 0.0
H1276 H 0.80806 0.90476 0.28685 0.0
H1277 H 0.70019 0.73322 0.22661 0.0
H1278 H 0.83705 0.71907 0.31812 0.0
H1279 H 0.93897 0.89274 0.37894 0.0
H1280 H 0.74134 0.75925 0.27257 0.0
H1281 H 0.6825 0.76286 0.1837 0.0
H1282 H 0.90205 0.86415 0.33028 0.0
H1283 H 0.7952 0.93697 0.24491 0.0
H1284 H 0.68735 0.81357 0.1617 0.0
H1285 H 0.7135 0.86862 0.16632 0.0
H1286 H 0.84894 0.68795 0.3618 0.0
H1287 H 0.75402 0.91459 0.19681 0.0
H1288 H 0.95249 0.86577 0.42618 0.0
N1289 N 0.86565 0.7614 0.34485 0.0
C1290 C 0.8867 0.77515 0.37233 0.0
C1291 C 0.85947 0.71254 0.36525 0.0
C1292 C 0.89453 0.75815 0.39773 0.0
C1293 C 0.85235 0.73037 0.34077 0.0
C1294 C 0.88051 0.7265 0.39394 0.0
N1295 N 0.89188 0.82217 0.35023 0.0
C1296 C 0.90639 0.85243 0.35094 0.0
C1297 C 0.92223 0.82166 0.40323 0.0
C1298 C 0.90048 0.80646 0.37501 0.0
C1299 C 0.9357 0.85322 0.40492 0.0
C1300 C 0.92798 0.86857 0.37843 0.0
H1301 H 0.88601 0.71259 0.41282 0.0
H1302 H 0.92234 0.76052 0.44577 0.0
H1303 H 0.94648 0.81616 0.45063 0.0
O1304 O 0.89442 0.80628 0.28084 0.0
O1305 O 0.84287 0.81208 0.35446 0.0
O1306 O 0.82079 0.85217 0.34205 0.0
O1307 O 0.88007 0.75908 0.29171 0.0
O1308 O 0.85722 0.83317 0.27979 0.0
O1309 O 0.82989 0.86412 0.30594 0.0
O1310 O 0.74843 0.81842 0.32627 0.0
O1311 O 0.79737 0.81109 0.25063 0.0
O1312 O 0.82288 0.77245 0.26086 0.0
O1313 O 0.76199 0.86503 0.31361 0.0
O1314 O 0.78463 0.79095 0.32539 0.0
O1315 O 0.81177 0.75923 0.29996 0.0
C1316 C 0.83369 0.83766 0.36405 0.0
C1317 C 0.92413 0.76853 0.26272 0.0
C1318 C 0.96252 0.77493 0.22515 0.0
C1319 C 0.96885 0.74638 0.23107 0.0
C1320 C 0.93119 0.74019 0.26839 0.0
C1321 C 0.95345 0.7293 0.25274 0.0
C1322 C 0.94032 0.78629 0.24139 0.0
C1323 C 0.8528 0.86084 0.28978 0.0
C1324 C 0.89922 0.77832 0.2785 0.0
C1325 C 0.91609 0.7732 0.42596 0.0
C1326 C 0.92986 0.80488 0.42874 0.0
C1327 C 0.8084 0.78693 0.23994 0.0
C1328 C 0.71889 0.85654 0.34384 0.0
C1329 C 0.67975 0.85002 0.38033 0.0
C1330 C 0.67389 0.87883 0.3747 0.0
C1331 C 0.71239 0.88518 0.33843 0.0
C1332 C 0.70211 0.83861 0.36453 0.0
C1333 C 0.68999 0.89616 0.35372 0.0
C1334 C 0.78849 0.76307 0.31544 0.0
C1335 C 0.74328 0.8462 0.32767 0.0
H1336 H 0.98623 0.73754 0.21931 0.0
H1337 H 0.91941 0.72629 0.28494 0.0
H1338 H 0.95874 0.70747 0.25737 0.0
H1339 H 0.93535 0.80835 0.23697 0.0
H1340 H 0.6564 0.88771 0.3862 0.0
H1341 H 0.72461 0.8992 0.32226 0.0
H1342 H 0.7066 0.81631 0.36867 0.0
H1343 H 0.68509 0.91818 0.34927 0.0
Tb1344 Tb 0.79154 0.3115 0.84016 0.0
C1345 C 0.86778 0.2545 0.72242 0.0
N1346 N 0.87785 0.277 0.74963 0.0
C1347 C 0.92359 0.25807 0.76113 0.0
C1348 C 0.88463 0.23207 0.71429 0.0
C1349 C 0.90583 0.2795 0.76851 0.0
C1350 C 0.91278 0.23401 0.73417 0.0
C1351 C 0.82893 0.23107 0.6742 0.0
C1352 C 0.84063 0.25426 0.70234 0.0
C1353 C 0.84503 0.20799 0.66668 0.0
C1354 C 0.87295 0.20863 0.68653 0.0
Tb1355 Tb 0.84569 0.30941 0.76039 0.0
N1356 N 0.82544 0.27666 0.71085 0.0
C1357 C 0.80155 0.23194 0.65439 0.0
C1358 C 0.80043 0.27928 0.68967 0.0
C1359 C 0.78756 0.25653 0.66181 0.0
H1360 H 0.91498 0.29838 0.78895 0.0
H1361 H 0.7671 0.25821 0.64586 0.0
H1362 H 0.72369 0.32556 0.81512 0.0
H1363 H 0.86787 0.35463 0.95879 0.0
H1364 H 0.7904 0.29902 0.69348 0.0
H1365 H 0.79158 0.21436 0.63276 0.0
H1366 H 0.84123 0.31432 0.9118 0.0
H1367 H 0.94566 0.26017 0.77623 0.0
H1368 H 0.83634 0.18983 0.6453 0.0
H1369 H 0.88542 0.191 0.6801 0.0
H1370 H 0.696 0.36649 0.82802 0.0
H1371 H 0.92655 0.21737 0.72863 0.0
H1372 H 0.85096 0.40387 0.96871 0.0
N1373 N 0.76208 0.34582 0.85322 0.0
C1374 C 0.77436 0.36909 0.87901 0.0
C1375 C 0.71818 0.36767 0.84242 0.0
C1376 C 0.75962 0.39333 0.88696 0.0
C1377 C 0.73405 0.34448 0.83518 0.0
C1378 C 0.7312 0.39246 0.86815 0.0
N1379 N 0.81254 0.34217 0.89119 0.0
C1380 C 0.83463 0.33629 0.91417 0.0
C1381 C 0.81434 0.39056 0.92631 0.0
C1382 C 0.80105 0.36756 0.89836 0.0
C1383 C 0.83977 0.38658 0.94721 0.0
C1384 C 0.84938 0.35886 0.94166 0.0
H1385 H 0.71893 0.41048 0.87363 0.0
H1386 H 0.76271 0.43629 0.92002 0.0
H1387 H 0.811 0.43406 0.95436 0.0
O1388 O 0.78836 0.2716 0.86278 0.0
O1389 O 0.8087 0.35607 0.82529 0.0
O1390 O 0.84872 0.34043 0.80686 0.0
O1391 O 0.74763 0.28358 0.84035 0.0
O1392 O 0.839 0.30386 0.85466 0.0
O1393 O 0.86991 0.3049 0.81143 0.0
O1394 O 0.8454 0.3466 0.73305 0.0
O1395 O 0.8186 0.26298 0.75982 0.0
O1396 O 0.809 0.29242 0.80006 0.0
O1397 O 0.88771 0.33183 0.74809 0.0
O1398 O 0.79903 0.3208 0.74934 0.0
O1399 O 0.76551 0.31091 0.78944 0.0
C1400 C 0.8334 0.36197 0.8112 0.0
C1401 C 0.74504 0.25945 0.88873 0.0
C1402 C 0.74678 0.23532 0.93858 0.0
C1403 C 0.72399 0.24958 0.94917 0.0
C1404 C 0.72211 0.2738 0.89918 0.0
C1405 C 0.71145 0.26857 0.92925 0.0
C1406 C 0.75685 0.23987 0.90832 0.0
C1407 C 0.8652 0.30185 0.84299 0.0
C1408 C 0.75853 0.26546 0.85871 0.0
C1409 C 0.77344 0.41719 0.91374 0.0
C1410 C 0.80095 0.41594 0.93324 0.0
C1411 C 0.8038 0.26457 0.78434 0.0
C1412 C 0.89249 0.37523 0.71781 0.0
C1413 C 0.8948 0.40744 0.67411 0.0
C1414 C 0.92693 0.41648 0.683 0.0
C1415 C 0.92443 0.38509 0.7272 0.0
C1416 C 0.87766 0.38702 0.69189 0.0
C1417 C 0.94155 0.4058 0.70988 0.0
C1418 C 0.7715 0.31805 0.75961 0.0
C1419 C 0.87492 0.351 0.73325 0.0
H1420 H 0.71644 0.24652 0.97301 0.0
H1421 H 0.71281 0.2893 0.88451 0.0
H1422 H 0.69398 0.27977 0.93746 0.0
H1423 H 0.77488 0.22906 0.90069 0.0
H1424 H 0.94071 0.43163 0.66901 0.0
H1425 H 0.93621 0.3763 0.7474 0.0
H1426 H 0.85305 0.37871 0.68411 0.0
H1427 H 0.96624 0.41285 0.71672 0.0
Tb1428 Tb 0.80013 0.77339 0.77685 0.0
C1429 C 0.90562 0.87121 0.86774 0.0
N1430 N 0.87643 0.8578 0.87167 0.0
C1431 C 0.89262 0.86228 0.9309 0.0
C1432 C 0.92929 0.88089 0.89539 0.0
C1433 C 0.86965 0.8537 0.90292 0.0
C1434 C 0.92257 0.87592 0.92715 0.0
C1435 C 0.94094 0.89265 0.8315 0.0
C1436 C 0.91143 0.87705 0.83611 0.0
C1437 C 0.96453 0.90207 0.85896 0.0
C1438 C 0.95865 0.89617 0.8907 0.0
Tb1439 Tb 0.84069 0.85083 0.8246 0.0
N1440 N 0.88786 0.86835 0.81009 0.0
C1441 C 0.94563 0.89931 0.79965 0.0
C1442 C 0.89205 0.87646 0.77947 0.0
C1443 C 0.92098 0.89132 0.77355 0.0
H1444 H 0.84638 0.84576 0.90707 0.0
H1445 H 0.92398 0.8975 0.74912 0.0
H1446 H 0.79011 0.7838 0.69593 0.0
H1447 H 0.72252 0.71549 0.85197 0.0
H1448 H 0.87315 0.87305 0.75988 0.0
H1449 H 0.96791 0.91145 0.7952 0.0
H1450 H 0.77212 0.74203 0.8396 0.0
H1451 H 0.88699 0.85926 0.95552 0.0
H1452 H 0.98727 0.91439 0.85605 0.0
H1453 H 0.97687 0.90404 0.91153 0.0
H1454 H 0.74786 0.77192 0.64929 0.0
H1455 H 0.94014 0.88321 0.94902 0.0
H1456 H 0.67658 0.70425 0.80851 0.0
N1457 N 0.7623 0.7678 0.73187 0.0
C1458 C 0.73388 0.75258 0.73633 0.0
C1459 C 0.74348 0.76688 0.67379 0.0
C1460 C 0.70919 0.74412 0.70966 0.0
C1461 C 0.7674 0.77451 0.70084 0.0
C1462 C 0.71422 0.75171 0.67822 0.0
N1463 N 0.75456 0.75103 0.7921 0.0
C1464 C 0.75224 0.74003 0.82167 0.0
C1465 C 0.70113 0.72683 0.77249 0.0
C1466 C 0.72991 0.74383 0.76735 0.0
C1467 C 0.69828 0.71741 0.80364 0.0
C1468 C 0.72407 0.72386 0.82828 0.0
H1469 H 0.69589 0.7453 0.65703 0.0
H1470 H 0.66151 0.72084 0.69485 0.0
H1471 H 0.65422 0.7056 0.74946 0.0
O1472 O 0.8107 0.73229 0.78958 0.0
O1473 O 0.76599 0.80298 0.79022 0.0
O1474 O 0.79156 0.8403 0.83468 0.0
O1475 O 0.79371 0.73611 0.73784 0.0
O1476 O 0.82112 0.77424 0.82961 0.0
O1477 O 0.81641 0.82031 0.85629 0.0
O1478 O 0.83621 0.8923 0.8078 0.0
O1479 O 0.87393 0.81947 0.81289 0.0
O1480 O 0.84887 0.78612 0.7657 0.0
O1481 O 0.84812 0.89085 0.8603 0.0
O1482 O 0.81944 0.85079 0.77184 0.0
O1483 O 0.82403 0.80435 0.74658 0.0
C1484 C 0.76519 0.82455 0.81588 0.0
C1485 C 0.80489 0.68731 0.74735 0.0
C1486 C 0.82768 0.64483 0.7583 0.0
C1487 C 0.81799 0.63044 0.725 0.0
C1488 C 0.79455 0.67295 0.714 0.0
C1489 C 0.80103 0.6444 0.70295 0.0
C1490 C 0.82078 0.67284 0.76945 0.0
C1491 C 0.81708 0.79111 0.85694 0.0
C1492 C 0.8032 0.71902 0.75836 0.0
C1493 C 0.68055 0.7275 0.7149 0.0
C1494 C 0.67644 0.71888 0.74614 0.0
C1495 C 0.87511 0.79962 0.78587 0.0
C1496 C 0.82158 0.92853 0.84572 0.0
C1497 C 0.79574 0.96713 0.82788 0.0
C1498 C 0.78886 0.97402 0.86018 0.0
C1499 C 0.81458 0.93511 0.87818 0.0
C1500 C 0.8118 0.94447 0.82066 0.0
C1501 C 0.79812 0.95778 0.88527 0.0
C1502 C 0.82237 0.83293 0.74473 0.0
C1503 C 0.84168 0.90778 0.83803 0.0
H1504 H 0.82354 0.60863 0.71624 0.0
H1505 H 0.78235 0.68412 0.69638 0.0
H1506 H 0.79354 0.63351 0.67717 0.0
H1507 H 0.82942 0.68412 0.79506 0.0
H1508 H 0.77654 0.99194 0.86591 0.0
H1509 H 0.82231 0.92331 0.89813 0.0
H1510 H 0.81752 0.94005 0.79567 0.0
H1511 H 0.793 0.96311 0.91029 0.0
Tb1512 Tb 0.60892 0.5837 0.57721 0.0
C1513 C 0.5181 0.47414 0.49091 0.0
N1514 N 0.53065 0.50293 0.48431 0.0
C1515 C 0.53818 0.48038 0.43024 0.0
C1516 C 0.5167 0.44723 0.46815 0.0
C1517 C 0.53934 0.50641 0.45377 0.0
C1518 C 0.52754 0.45065 0.43778 0.0
C1519 C 0.49269 0.44253 0.52827 0.0
C1520 C 0.50678 0.47172 0.52087 0.0
C1521 C 0.4919 0.41558 0.50606 0.0
C1522 C 0.50444 0.4179 0.47644 0.0
Tb1523 Tb 0.53369 0.54304 0.52649 0.0
N1524 N 0.50976 0.49814 0.5428 0.0
C1525 C 0.47979 0.44136 0.55774 0.0
C1526 C 0.49526 0.49732 0.57028 0.0
C1527 C 0.48057 0.46897 0.5785 0.0
H1528 H 0.54659 0.52904 0.44688 0.0
H1529 H 0.46952 0.46849 0.60061 0.0
H1530 H 0.59527 0.59341 0.65698 0.0
H1531 H 0.6673 0.66489 0.50534 0.0
H1532 H 0.49381 0.51839 0.58531 0.0
H1533 H 0.46849 0.41939 0.5642 0.0
H1534 H 0.64578 0.61324 0.51861 0.0
H1535 H 0.54545 0.48328 0.40627 0.0
H1536 H 0.48165 0.39285 0.51155 0.0
H1537 H 0.50412 0.3968 0.45992 0.0
H1538 H 0.59377 0.63712 0.69912 0.0
H1539 H 0.52713 0.43059 0.41963 0.0
H1540 H 0.66617 0.71197 0.54395 0.0
N1541 N 0.60958 0.62186 0.62069 0.0
C1542 C 0.62056 0.65143 0.61527 0.0
C1543 C 0.60083 0.64145 0.67537 0.0
C1544 C 0.62034 0.67721 0.63891 0.0
C1545 C 0.60113 0.6166 0.65096 0.0
C1546 C 0.60973 0.67186 0.66901 0.0
N1547 N 0.63024 0.63038 0.56271 0.0
C1548 C 0.64387 0.63334 0.53485 0.0
C1549 C 0.64392 0.68595 0.57918 0.0
C1550 C 0.6318 0.65581 0.58559 0.0
C1551 C 0.65636 0.68921 0.54967 0.0
C1552 C 0.6568 0.66272 0.52768 0.0
H1553 H 0.60903 0.691 0.68784 0.0
H1554 H 0.62979 0.72756 0.64897 0.0
H1555 H 0.65177 0.73513 0.59757 0.0
O1556 O 0.64981 0.5739 0.56605 0.0
O1557 O 0.57729 0.61612 0.56325 0.0
O1558 O 0.54657 0.59188 0.51444 0.0
O1559 O 0.64589 0.59227 0.61742 0.0
O1560 O 0.61065 0.56419 0.52444 0.0
O1561 O 0.56498 0.56649 0.4954 0.0
O1562 O 0.49489 0.55669 0.53905 0.0
O1563 O 0.56313 0.50872 0.54135 0.0
O1564 O 0.59794 0.53398 0.58729 0.0
O1565 O 0.49513 0.53439 0.48798 0.0
O1566 O 0.53352 0.56381 0.57929 0.0
O1567 O 0.57817 0.55783 0.60642 0.0
C1568 C 0.55939 0.61809 0.53527 0.0
C1569 C 0.69433 0.57975 0.60726 0.0
C1570 C 0.7358 0.55656 0.59382 0.0
C1571 C 0.75006 0.56423 0.62723 0.0
C1572 C 0.70859 0.58795 0.64078 0.0
C1573 C 0.73656 0.58029 0.65064 0.0
C1574 C 0.70846 0.56472 0.58381 0.0
C1575 C 0.59437 0.56743 0.49644 0.0
C1576 C 0.6628 0.58182 0.59723 0.0
C1577 C 0.63074 0.70737 0.63172 0.0
C1578 C 0.64305 0.71173 0.60227 0.0
C1579 C 0.58338 0.50739 0.56779 0.0
C1580 C 0.44835 0.54979 0.5006 0.0
C1581 C 0.40634 0.57042 0.51784 0.0
C1582 C 0.39022 0.56182 0.48516 0.0
C1583 C 0.43217 0.54072 0.46794 0.0
C1584 C 0.43506 0.56418 0.52551 0.0
C1585 C 0.40304 0.54665 0.46032 0.0
C1586 C 0.54938 0.5584 0.60634 0.0
C1587 C 0.47986 0.54672 0.50892 0.0
H1588 H 0.77131 0.55761 0.63509 0.0
H1589 H 0.69766 0.59917 0.65943 0.0
H1590 H 0.74732 0.58605 0.67656 0.0
H1591 H 0.69746 0.55768 0.55793 0.0
H1592 H 0.36807 0.56723 0.47886 0.0
H1593 H 0.44224 0.52972 0.4483 0.0
H1594 H 0.44748 0.5718 0.55077 0.0
H1595 H 0.39068 0.54006 0.43505 0.0
Tb1596 Tb 1.03007 0.5581 0.0761 0.0
C1597 C 0.13079 0.61692 0.98977 0.0
N1598 N 0.10907 0.5896 0.9837 0.0
C1599 C 0.09647 0.59738 0.92672 0.0
C1600 C 0.13502 0.63611 0.96485 0.0
C1601 C 0.09335 0.57888 0.95192 0.0
C1602 C 0.11695 0.62635 0.93336 0.0
C1603 C 0.17408 0.65217 0.02671 0.0
C1604 C 0.15028 0.62496 0.0204 0.0
C1605 C 0.17736 0.67184 1.00243 0.0
C1606 C 0.15788 0.66386 0.97162 0.0
Tb1607 Tb 0.10774 0.56252 0.02816 0.0
N1608 N 0.14613 0.60596 0.04394 0.0
C1609 C 0.19384 0.65885 0.05735 0.0
C1610 C 0.16681 0.61111 0.07261 0.0
C1611 C 0.19042 0.63798 0.08021 0.0
H1612 H 0.07894 0.55575 0.94505 0.0
H1613 H 0.20633 0.64224 0.10337 0.0
H1614 H 0.05873 0.56395 0.15883 0.0
H1615 H 0.93408 0.47769 0.99728 0.0
H1616 H 0.16591 0.59408 0.08907 0.0
H1617 H 0.21225 0.67962 0.06323 0.0
H1618 H 0.97446 0.52589 0.01251 0.0
H1619 H 0.08354 0.58893 0.9019 0.0
H1620 H 0.19522 0.69306 1.00704 0.0
H1621 H 0.16119 0.67895 0.95284 0.0
H1622 H 0.05219 0.53097 0.20207 0.0
H1623 H 0.11958 0.64041 0.91358 0.0
H1624 H 0.92647 0.44067 0.03765 0.0
N1625 N 1.02803 0.53078 0.12009 0.0
C1626 C 1.0059 0.50373 0.11357 0.0
C1627 C 0.03947 0.52277 0.17711 0.0
C1628 C 1.00072 0.48465 0.13842 0.0
C1629 C 0.04365 0.54115 0.15193 0.0
C1630 C 1.01827 0.49422 0.17024 0.0
N1631 N 0.99215 0.5146 0.05884 0.0
C1632 C 0.97266 0.50912 0.02926 0.0
C1633 C 0.96357 0.46832 0.0753 0.0
C1634 C 0.9872 0.49565 0.08233 0.0
C1635 C 0.94484 0.46145 0.04399 0.0
C1636 C 0.94918 0.48216 0.02104 0.0
H1637 H 1.01486 0.48025 0.18999 0.0
H1638 H 0.97345 0.44217 0.14999 0.0
H1639 H 0.94116 0.42781 0.09474 0.0
O1640 O 0.99147 0.57592 0.05852 0.0
O1641 O 0.03715 0.51049 0.05259 0.0
O1642 O 0.07891 0.51366 0.02238 0.0
O1643 O 1.00775 0.57728 0.11181 0.0
O1644 O 0.04516 0.57357 0.03222 0.0
O1645 O 0.06468 0.54618 0.9954 0.0
O1646 O 0.14545 0.54369 0.04619 0.0
O1647 O 0.10143 0.61012 0.05302 0.0
O1648 O 0.05748 0.60753 0.07979 0.0
O1649 O 0.13115 0.5442 0.99293 0.0
O1650 O 0.09513 0.54739 0.07354 0.0
O1651 O 0.07285 0.57466 0.1085 0.0
C1652 C 0.05488 0.49701 0.03368 0.0
C1653 C 0.96398 0.59902 0.10024 0.0
C1654 C 0.92975 0.634 0.09277 0.0
C1655 C 0.92429 0.63331 0.12587 0.0
C1656 C 0.95785 0.59837 0.13319 0.0
C1657 C 0.93808 0.61536 0.14583 0.0
C1658 C 0.94933 0.61643 0.07969 0.0
C1659 C 0.04104 0.55503 1.00444 0.0
C1660 C 0.98816 0.58427 0.08951 0.0
C1661 C 0.97761 0.45709 0.13118 0.0
C1662 C 0.95914 0.44895 0.09974 0.0
C1663 C 0.08266 0.62395 0.07018 0.0
C1664 C 0.17431 0.52162 1.00537 0.0
C1665 C 0.21106 0.48971 0.01556 0.0
C1666 C 0.21587 0.48855 0.98209 0.0
C1667 C 0.17971 0.52039 0.97201 0.0
C1668 C 0.1905 0.50661 0.02743 0.0
C1669 C 0.20041 0.504 0.96054 0.0
C1670 C 0.09736 0.56689 0.10042 0.0
C1671 C 0.14997 0.53649 0.01545 0.0
H1672 H 0.90886 0.6463 0.13611 0.0
H1673 H 0.96878 0.58511 0.14951 0.0
H1674 H 0.93363 0.61482 0.17126 0.0
H1675 H 0.95388 0.6172 0.05426 0.0
H1676 H 0.23184 0.4758 0.9727 0.0
H1677 H 0.1676 0.53176 0.95451 0.0
H1678 H 0.18649 0.50722 0.05317 0.0
H1679 H 0.20427 0.50303 0.93478 0.0
C1680 C 0.04765 0.20489 0.04536 0.0
C1681 C 0.03943 0.21097 0.01226 0.0
H1682 H 0.06087 0.17369 0.07854 0.0
C1683 C 0.03858 0.18553 0.9869 0.0
H1684 H 0.04892 0.22293 0.06623 0.0
C1685 C 0.04459 0.15616 0.99425 0.0
C1686 C 0.05291 0.15022 0.02743 0.0
H1687 H 0.03233 0.1879 0.961 0.0
H1688 H 0.04281 0.13788 0.97346 0.0
C1689 C 0.05466 0.17599 0.05262 0.0
C1690 C 0.21275 0.80515 0.17782 0.0
C1691 C 0.19512 0.8276 0.18296 0.0
H1692 H 0.24799 0.78363 0.19778 0.0
C1693 C 0.20197 0.84658 0.21475 0.0
H1694 H 0.2079 0.78921 0.15448 0.0
C1695 C 0.22625 0.84396 0.23954 0.0
C1696 C 0.24445 0.82209 0.23366 0.0
H1697 H 0.18891 0.86386 0.22032 0.0
H1698 H 0.23111 0.85946 0.26319 0.0
C1699 C 0.23638 0.80219 0.20269 0.0
C1700 C 0.55479 0.91429 0.48498 0.0
C1701 C 0.5389 0.89236 0.50309 0.0
H1702 H 0.57255 0.96206 0.47927 0.0
C1703 C 0.52801 0.90599 0.53135 0.0
H1704 H 0.56382 0.90596 0.46307 0.0
C1705 C 0.53262 0.93925 0.54049 0.0
C1706 C 0.54887 0.96104 0.52232 0.0
H1707 H 0.51548 0.89092 0.54637 0.0
H1708 H 0.52383 0.94788 0.56241 0.0
C1709 C 0.55988 0.94722 0.49442 0.0
C1710 C 0.52997 0.33011 0.70199 0.0
C1711 C 0.52993 0.31645 0.66897 0.0
H1712 H 0.50757 0.32869 0.74547 0.0
C1713 C 0.50443 0.29328 0.6527 0.0
H1714 H 0.54941 0.34811 0.71499 0.0
C1715 C 0.48077 0.28188 0.67034 0.0
C1716 C 0.48195 0.29404 0.70416 0.0
H1717 H 0.50404 0.28224 0.62737 0.0
H1718 H 0.46262 0.2621 0.65833 0.0
C1719 C 0.50597 0.31924 0.71934 0.0
C1720 C 0.05147 0.85671 0.66154 0.0
C1721 C 0.06728 0.85494 0.69298 0.0
H1722 H 0.05147 0.87952 0.61818 0.0
C1723 C 0.09359 0.87804 0.70698 0.0
H1724 H 0.0312 0.83893 0.65021 0.0
C1725 C 0.10547 0.90095 0.68836 0.0
C1726 C 0.09083 0.90135 0.65585 0.0
H1727 H 0.10639 0.87682 0.7309 0.0
H1728 H 0.12723 0.91706 0.69836 0.0
C1729 C 0.06293 0.87997 0.64329 0.0
C1730 C 0.47292 0.8683 0.84089 0.0
C1731 C 0.488 0.84451 0.84856 0.0
H1732 H 0.43048 0.88198 0.82671 0.0
C1733 C 0.46806 0.81475 0.84631 0.0
H1734 H 0.48631 0.89197 0.84395 0.0
C1735 C 0.4354 0.80912 0.83689 0.0
C1736 C 0.42027 0.83295 0.82946 0.0
H1737 H 0.47764 0.79576 0.85347 0.0
H1738 H 0.42186 0.78581 0.83595 0.0
C1739 C 0.44023 0.86258 0.83124 0.0
C1740 C 0.56857 0.16914 0.16636 0.0
C1741 C 0.54377 0.18347 0.1599 0.0
H1742 H 0.59327 0.13554 0.14898 0.0
C1743 C 0.52254 0.17035 0.13043 0.0
H1744 H 0.58678 0.17961 0.18709 0.0
C1745 C 0.526 0.14426 0.10859 0.0
C1746 C 0.55123 0.13049 0.11484 0.0
H1747 H 0.5043 0.18168 0.12298 0.0
H1748 H 0.50948 0.13561 0.08598 0.0
C1749 C 0.57241 0.14359 0.14418 0.0
C1750 C 0.17417 0.32293 0.31692 0.0
C1751 C 0.1732 0.34496 0.34512 0.0
H1752 H 0.20101 0.2992 0.28615 0.0
C1753 C 0.2028 0.35976 0.36349 0.0
H1754 H 0.15273 0.31021 0.30174 0.0
C1755 C 0.23106 0.35348 0.35425 0.0
C1756 C 0.23218 0.33147 0.32614 0.0
H1757 H 0.20431 0.37677 0.3854 0.0
H1758 H 0.25242 0.36613 0.36967 0.0
C1759 C 0.20252 0.31633 0.3079 0.0
C1760 C 1.01379 0.06368 0.18644 0.0
C1761 C 1.01551 0.03539 0.1981 0.0
H1762 H 1.02384 0.09299 0.14868 0.0
C1763 C 1.02757 1.01421 0.17794 0.0
H1764 H 1.00519 0.08092 0.20125 0.0
C1765 C 0.03847 1.02126 0.14818 0.0
C1766 C 0.03747 0.04964 0.13687 0.0
H1767 H 1.02908 0.99206 0.18551 0.0
H1768 H 0.04795 1.00437 0.13394 0.0
C1769 C 1.02456 0.07066 0.15623 0.0
C1770 C 0.31062 0.71497 0.49698 0.0
C1771 C 0.29488 0.68632 0.50354 0.0
H1772 H 0.30771 0.75396 0.47209 0.0
C1773 C 0.26481 0.67296 0.48739 0.0
H1774 H 0.33365 0.7257 0.5099 0.0
C1775 C 0.24951 0.6897 0.46718 0.0
C1776 C 0.26466 0.71931 0.46254 0.0
H1777 H 0.25229 0.65105 0.49285 0.0
H1778 H 0.22572 0.6801 0.45612 0.0
C1779 C 0.29565 0.73129 0.47616 0.0
C1780 C 0.66353 0.10938 0.66156 0.0
C1781 C 0.67511 0.08473 0.67199 0.0
H1782 H 0.62698 0.12125 0.63122 0.0
C1783 C 0.66732 0.05548 0.65208 0.0
H1784 H 0.66974 0.13215 0.67685 0.0
C1785 C 0.64363 0.04952 0.62517 0.0
C1786 C 0.62797 0.07279 0.61914 0.0
H1787 H 0.67608 0.03629 0.66013 0.0
H1788 H 0.63533 0.02606 0.61173 0.0
C1789 C 0.63873 0.10306 0.63621 0.0
C1790 C 0.33659 0.34461 0.96015 0.0
C1791 C 0.34793 0.37678 0.97105 0.0
H1792 H 0.32337 0.30715 0.91839 0.0
C1793 C 0.35602 0.39559 0.94664 0.0
H1794 H 0.32954 0.32941 0.97794 0.0
C1795 C 0.35219 0.38286 0.91249 0.0
C1796 C 0.34029 0.35085 0.90151 0.0
H1797 H 0.36506 0.42037 0.95394 0.0
H1798 H 0.35854 0.39816 0.89455 0.0
C1799 C 0.33295 0.33184 0.92593 0.0
C1800 C 0.03537 0.02525 0.39201 0.0
C1801 C 1.00923 0.03661 0.3821 0.0
H1802 H 0.06809 1.01956 0.43282 0.0
C1803 C 0.99651 0.05161 0.40756 0.0
H1804 H 0.04588 1.01355 0.3733 0.0
C1805 C 1.00914 0.05506 0.44149 0.0
C1806 C 0.03497 0.04341 0.45175 0.0
H1807 H 0.97671 0.06116 0.40127 0.0
H1808 H 0.99846 0.06709 0.45978 0.0
C1809 C 0.04802 0.02855 0.42632 0.0
C1810 C 0.26971 0.72719 0.6841 0.0
C1811 C 0.29286 0.71296 0.67436 0.0
H1812 H 0.25967 0.7642 0.71605 0.0
C1813 C 0.32138 0.71875 0.69494 0.0
H1814 H 0.24742 0.72249 0.66855 0.0
C1815 C 0.32816 0.74223 0.72245 0.0
C1816 C 0.3064 0.75961 0.7289 0.0
H1817 H 0.33949 0.70804 0.68756 0.0
H1818 H 0.35119 0.74874 0.73655 0.0
C1819 C 0.27676 0.7512 0.71074 0.0
C1820 C 0.66947 0.11604 0.84272 0.0
C1821 C 0.68931 0.09586 0.84623 0.0
H1822 H 0.64804 0.14897 0.86696 0.0
C1823 C 0.70124 0.0917 0.87838 0.0
H1824 H 0.65886 0.11922 0.8188 0.0
C1825 C 0.69355 0.10792 0.90649 0.0
C1826 C 0.67516 0.12942 0.90241 0.0
H1827 H 0.71623 0.07588 0.88169 0.0
H1828 H 0.70203 0.10394 0.93125 0.0
C1829 C 0.66318 0.1333 0.87046 0.0
C1830 C 0.33034 0.38197 0.17401 0.0
C1831 C 0.34348 0.36432 0.15088 0.0
H1832 H 0.3132 0.38573 0.22146 0.0
C1833 C 0.34855 0.33583 0.1592 0.0
H1834 H 0.32603 0.40407 0.16891 0.0
C1835 C 0.34107 0.32535 0.18893 0.0
C1836 C 0.32799 0.34266 0.21217 0.0
H1837 H 0.35845 0.3212 0.14255 0.0
H1838 H 0.346 0.30342 0.19379 0.0
C1839 C 0.32292 0.37141 0.20428 0.0
C1840 C 0.24941 0.98376 0.04137 0.0
C1841 C 0.26995 1.0018 0.02438 0.0
H1842 H 0.2198 0.98428 0.07857 0.0
C1843 C 0.27346 0.03405 0.02807 0.0
H1844 H 0.24683 0.95881 0.03908 0.0
C1845 C 0.25781 0.04841 0.05029 0.0
C1846 C 0.23939 0.03054 0.06939 0.0
H1847 H 0.28936 0.04816 0.01507 0.0
H1848 H 0.26128 0.07349 0.05385 0.0
C1849 C 0.23441 0.99818 0.0642 0.0
C1850 C 0.67215 0.65483 1.00009 0.0
C1851 C 0.70033 0.66104 0.02154 0.0
H1852 H 0.6259 0.62761 0.98742 0.0
C1853 C 0.70338 0.64224 0.04664 0.0
H1854 H 0.66908 0.66865 0.98041 0.0
C1855 C 0.67839 0.61874 0.051 0.0
C1856 C 0.64982 0.6133 0.03015 0.0
H1857 H 0.72464 0.64671 0.06397 0.0
H1858 H 0.68102 0.60588 0.07163 0.0
C1859 C 0.64739 0.63121 1.00416 0.0
C1860 C 0.68752 0.4876 0.2953 0.0
C1861 C 0.70522 0.51765 0.30766 0.0
H1862 H 0.6876 0.44218 0.27057 0.0
C1863 C 0.73744 0.5234 0.31065 0.0
H1864 H 0.6627 0.48259 0.29299 0.0
C1865 C 0.75157 0.5003 0.29858 0.0
C1866 C 0.73364 0.47127 0.28314 0.0
H1867 H 0.75169 0.54631 0.32057 0.0
H1868 H 0.7762 0.50593 0.29869 0.0
C1869 C 0.70171 0.46453 0.28275 0.0
C1870 C 0.94082 0.49995 0.48392 0.0
C1871 C 0.92877 0.48483 0.50904 0.0
H1872 H 0.97873 0.5316 0.4715 0.0
C1873 C 0.94424 0.49202 0.54194 0.0
H1874 H 0.92846 0.49523 0.45859 0.0
C1875 C 0.9723 0.51356 0.54945 0.0
C1876 C 0.98554 0.52726 0.52408 0.0
H1877 H 0.93432 0.48145 0.56186 0.0
H1878 H 0.98312 0.51993 0.57507 0.0
C1879 C 0.96928 0.52091 0.49138 0.0
C1880 C 0.34939 0.09602 0.31168 0.0
C1881 C 0.37841 0.10669 0.33141 0.0
H1882 H 0.31753 0.10511 0.27289 0.0
C1883 C 0.39599 0.13658 0.33082 0.0
H1884 H 0.3353 0.07318 0.31211 0.0
C1885 C 0.38607 0.15431 0.30801 0.0
C1886 C 0.35861 0.14214 0.28609 0.0
H1887 H 0.41828 0.14541 0.34625 0.0
H1888 H 0.40009 0.17701 0.30681 0.0
C1889 C 0.33954 0.11379 0.28891 0.0
C1890 C 0.39397 0.19148 0.55113 0.0
C1891 C 0.36341 0.1743 0.54408 0.0
H1892 H 0.44044 0.19151 0.57099 0.0
C1893 C 0.35701 0.14228 0.54593 0.0
H1894 H 0.39953 0.21608 0.5496 0.0
C1895 C 0.38028 0.12829 0.55745 0.0
C1896 C 0.41028 0.14607 0.56732 0.0
H1897 H 0.33369 0.12826 0.54027 0.0
H1898 H 0.37439 0.10422 0.56122 0.0
C1899 C 0.41733 0.17743 0.56299 0.0
C1900 C 0.71626 0.71647 0.34157 0.0
C1901 C 0.71697 0.68556 0.33062 0.0
H1902 H 0.73824 0.76442 0.34664 0.0
C1903 C 0.74265 0.68002 0.31621 0.0
H1904 H 0.697 0.72176 0.35275 0.0
C1905 C 0.76625 0.70482 0.31169 0.0
C1906 C 0.76526 0.73584 0.3223 0.0
H1907 H 0.74396 0.6565 0.3072 0.0
H1908 H 0.78473 0.69962 0.29907 0.0
C1909 C 0.74013 0.74108 0.33793 0.0
C1910 C 0.89178 0.42795 0.86256 0.0
C1911 C 0.89382 0.44961 0.84051 0.0
H1912 H 0.86939 0.38261 0.87021 0.0
C1913 C 0.87475 0.44311 0.80932 0.0
H1914 H 0.90628 0.433 0.88676 0.0
C1915 C 0.85409 0.41451 0.79977 0.0
C1916 C 0.85219 0.39285 0.82176 0.0
H1917 H 0.8764 0.45989 0.79212 0.0
H1918 H 0.84015 0.40909 0.77522 0.0
C1919 C 0.87074 0.39959 0.85326 0.0
C1920 C 0.11165 0.94521 0.1196 0.0
C1921 C 0.10197 0.91588 0.09827 0.0
H1922 H 0.11546 0.99513 0.12752 0.0
C1923 C 0.08619 0.91776 0.06619 0.0
H1924 H 0.12348 0.94607 0.14461 0.0
C1925 C 0.08055 0.94662 0.05649 0.0
C1926 C 0.0911 0.9761 0.07766 0.0
H1927 H 0.07745 0.89658 0.04846 0.0
H1928 H 0.06804 0.94575 0.03182 0.0
C1929 C 0.10693 0.97407 0.10956 0.0
C1930 C 0.93253 0.2742 0.89049 0.0
C1931 C 0.94234 0.29691 0.91953 0.0
H1932 H 0.90066 0.25741 0.84421 0.0
C1933 C 0.92731 0.32169 0.92191 0.0
H1934 H 0.94339 0.25477 0.8874 0.0
C1935 C 0.90336 0.32356 0.89676 0.0
C1936 C 0.89253 0.30029 0.86848 0.0
H1937 H 0.93451 0.34014 0.94317 0.0
H1938 H 0.89347 0.34364 0.89936 0.0
C1939 C 0.90795 0.27575 0.86555 0.0
C1940 C 0.62517 0.21345 0.58389 0.0
C1941 C 0.60325 0.22949 0.59524 0.0
H1942 H 0.63773 0.17014 0.56919 0.0
C1943 C 0.57528 0.20965 0.59954 0.0
H1944 H 0.64723 0.2268 0.58027 0.0
C1945 C 0.56958 0.17619 0.59213 0.0
C1946 C 0.59154 0.16025 0.58028 0.0
H1947 H 0.55725 0.21995 0.60781 0.0
H1948 H 0.54742 0.16272 0.5953 0.0
C1949 C 0.61962 0.18022 0.57702 0.0
C1950 C 0.6374 0.83432 0.45226 0.0
C1951 C 0.61241 0.81032 0.43632 0.0
H1952 H 0.67901 0.86566 0.44659 0.0
C1953 C 0.61346 0.79535 0.40412 0.0
H1954 H 0.63719 0.84637 0.47697 0.0
C1955 C 0.63768 0.80609 0.38698 0.0
C1956 C 0.66093 0.83217 0.40168 0.0
H1957 H 0.59455 0.77669 0.39129 0.0
H1958 H 0.63676 0.79583 0.36124 0.0
C1959 C 0.66136 0.84533 0.43494 0.0
C1960 C 0.0933 0.276 0.46141 0.0
C1961 C 0.08473 0.27947 0.42792 0.0
H1962 H 0.08612 0.24715 0.49935 0.0
C1963 C 0.06837 0.25338 0.40502 0.0
H1964 H 0.10596 0.29585 0.47955 0.0
C1965 C 0.05678 0.22558 0.41649 0.0
C1966 C 0.06183 0.22357 0.45081 0.0
H1967 H 0.06132 0.25548 0.37917 0.0
H1968 H 0.04133 0.20673 0.39915 0.0
C1969 C 0.082 0.24815 0.47278 0.0
C1970 C 0.67744 0.31719 0.25608 0.0
C1971 C 0.6551 0.28891 0.25366 0.0
H1972 H 0.72495 0.34238 0.26575 0.0
C1973 C 0.66768 0.26328 0.26104 0.0
H1974 H 0.66995 0.33748 0.24936 0.0
C1975 C 0.70027 0.26603 0.2703 0.0
C1976 C 0.72252 0.29437 0.27197 0.0
H1977 H 0.65243 0.24048 0.25792 0.0
H1978 H 0.7081 0.24542 0.27473 0.0
C1979 C 0.70975 0.31988 0.26501 0.0
C1980 C 0.5748 0.95628 0.92106 0.0
C1981 C 0.59289 0.93612 0.93183 0.0
H1982 H 0.55327 0.99343 0.9346 0.0
C1983 C 0.60551 0.94164 0.96615 0.0
H1984 H 0.5635 0.95222 0.89534 0.0
C1985 C 0.6011 0.96681 0.98849 0.0
C1986 C 0.58296 0.98713 0.97795 0.0
H1987 H 0.61913 0.92645 0.97585 0.0
H1988 H 0.61218 0.97041 0.01418 0.0
C1989 C 0.56942 0.98074 0.94379 0.0
C1990 C 0.96016 0.78416 0.78959 0.0
C1991 C 0.96546 0.78033 0.75563 0.0
H1992 H 0.93 0.79348 0.82576 0.0
C1993 C 0.94038 0.78389 0.73251 0.0
H1994 H 0.97805 0.78227 0.80901 0.0
C1995 C 0.91214 0.78983 0.74222 0.0
C1996 C 0.90675 0.79369 0.77604 0.0
H1997 H 0.94247 0.78205 0.7062 0.0
H1998 H 0.8944 0.79193 0.72274 0.0
C1999 C 0.93205 0.79093 0.79943 0.0
C2000 C 0.10859 0.08959 0.91009 0.0
C2001 C 0.13827 0.08523 0.90705 0.0
H2002 H 0.07231 0.0876 0.94003 0.0
C2003 C 0.15358 0.074 0.93372 0.0
H2004 H 0.09587 0.09808 0.89033 0.0
C2005 C 0.1398 0.0674 0.96221 0.0
C2006 C 0.11022 0.07203 0.96542 0.0
H2007 H 0.1763 0.06994 0.93249 0.0
H2008 H 0.1525 0.05884 0.98193 0.0
C2009 C 0.09494 0.0833 0.93873 0.0
C2010 C 0.87621 0.41625 0.5843 0.0
C2011 C 0.84775 0.42429 0.58355 0.0
H2012 H 0.91337 0.40469 0.61371 0.0
C2013 C 0.83542 0.42913 0.61307 0.0
H2014 H 0.88606 0.41267 0.56158 0.0
C2015 C 0.85119 0.42462 0.64317 0.0
C2016 C 0.87948 0.4158 0.64372 0.0
H2017 H 0.81349 0.43552 0.61267 0.0
H2018 H 0.84116 0.42756 0.66584 0.0
C2019 C 0.89198 0.41207 0.61412 0.0
C2020 C 0.47182 0.07271 0.4612 0.0
C2021 C 0.46427 0.04819 0.4346 0.0
H2022 H 0.50461 0.09548 0.50396 0.0
C2023 C 0.4809 0.025 0.43261 0.0
H2024 H 0.45955 0.09119 0.46214 0.0
C2025 C 0.50633 0.02725 0.45623 0.0
C2026 C 0.51504 0.05273 0.48184 0.0
H2027 H 0.47534 1.00618 0.41178 0.0
H2028 H 0.51964 1.00967 0.454 0.0
C2029 C 0.49757 0.07525 0.48467 0.0
C2030 C 0.77931 0.77863 0.14585 0.0
C2031 C 0.79344 0.75628 0.13079 0.0
H2032 H 0.77413 0.80653 0.18998 0.0
C2033 C 0.81288 0.74361 0.15241 0.0
H2034 H 0.76423 0.78926 0.13069 0.0
C2035 C 0.81759 0.75296 0.18771 0.0
C2036 C 0.80334 0.77555 0.20247 0.0
H2037 H 0.82453 0.72657 0.14211 0.0
H2038 H 0.83279 0.74282 0.20335 0.0
C2039 C 0.78459 0.78835 0.18056 0.0
C2040 C 0.13565 0.06809 0.7019 0.0
C2041 C 0.12601 0.09064 0.72297 0.0
H2042 H 0.13379 0.04511 0.65153 0.0
C2043 C 0.10669 0.10758 0.70744 0.0
H2044 H 0.15023 0.0542 0.7126 0.0
C2045 C 0.09687 0.10197 0.67269 0.0
C2046 C 0.10651 0.07985 0.65136 0.0
H2047 H 0.09866 0.12527 0.72224 0.0
H2048 H 0.08124 0.11492 0.66278 0.0
C2049 C 0.12615 0.06287 0.66668 0.0
C2050 C 0.80679 0.40965 0.3912 0.0
C2051 C 0.8308 0.41741 0.41803 0.0
H2052 H 0.78529 0.37705 0.34767 0.0
C2053 C 0.85405 0.40092 0.42006 0.0
H2054 H 0.78834 0.42183 0.39007 0.0
C2055 C 0.85227 0.37531 0.39635 0.0
C2056 C 0.82733 0.3664 0.37047 0.0
H2057 H 0.87262 0.40679 0.44097 0.0
H2058 H 0.86995 0.36219 0.39849 0.0
C2059 C 0.80486 0.3839 0.36751 0.0
C2060 C 0.47856 0.05942 0.25062 0.0
C2061 C 0.45371 0.0422 0.26286 0.0
H2062 H 0.51123 0.05802 0.21692 0.0
C2063 C 0.4375 1.01318 0.24501 0.0
H2064 H 0.49135 0.08176 0.26431 0.0
C2065 C 0.4495 0.99915 0.21887 0.0
C2066 C 0.47699 1.01466 0.20989 0.0
H2067 H 0.41841 0.99945 0.25435 0.0
H2068 H 0.43901 0.97525 0.20785 0.0
C2069 C 0.49009 0.04571 0.22391 0.0
C2070 C 0.81022 0.73232 0.91984 0.0
C2071 C 0.7992 0.74742 0.94683 0.0
H2072 H 0.82507 0.73392 0.87169 0.0
C2073 C 0.79504 0.77763 0.94423 0.0
H2074 H 0.81409 0.70923 0.92057 0.0
C2075 C 0.8011 0.79182 0.91564 0.0
C2076 C 0.81212 0.77667 0.88863 0.0
H2077 H 0.78677 0.79029 0.96424 0.0
H2078 H 0.79669 0.81467 0.91458 0.0
C2079 C 0.81676 0.74668 0.8916 0.0
C2080 C 0.86514 0.09227 0.08628 0.0
C2081 C 0.86867 0.12421 0.08557 0.0
H2082 H 0.87492 0.04988 0.06401 0.0
C2083 C 0.88867 0.13891 0.06539 0.0
H2084 H 0.85003 0.08054 0.10177 0.0
C2085 C 0.90149 0.12134 0.04304 0.0
C2086 C 0.8953 0.08912 0.04143 0.0
H2087 H 0.89195 0.16353 0.06419 0.0
H2088 H 0.9151 0.13269 0.02601 0.0
C2089 C 0.87872 0.07475 0.06436 0.0
C2090 C 0.44212 0.47539 0.03675 0.0
C2091 C 0.44091 0.45896 0.06407 0.0
H2092 H 0.46846 0.51095 0.01395 0.0
C2093 C 0.46518 0.46782 0.09101 0.0
H2094 H 0.42381 0.46879 0.01551 0.0
C2095 C 0.49074 0.49187 0.09012 0.0
C2096 C 0.49247 0.50775 0.06239 0.0
H2097 H 0.46466 0.4557 0.11245 0.0
H2098 H 0.50951 0.49763 0.11085 0.0
C2099 C 0.46756 0.49965 0.03598 0.0
C2100 C 0.44537 0.63552 0.78386 0.0
C2101 C 0.43912 0.6083 0.79817 0.0
H2102 H 0.43842 0.68185 0.78407 0.0
C2103 C 0.41976 0.60602 0.82265 0.0
H2104 H 0.46016 0.63752 0.76485 0.0
C2105 C 0.4078 0.63118 0.83382 0.0
C2106 C 0.41461 0.65871 0.82018 0.0
H2107 H 0.41493 0.5852 0.83414 0.0
H2108 H 0.3941 0.62953 0.85387 0.0
C2109 C 0.43287 0.66059 0.79464 0.0
C2110 C 0.17796 0.64117 0.55164 0.0
C2111 C 0.20451 0.62941 0.55648 0.0
H2112 H 0.12972 0.63288 0.55163 0.0
C2113 C 0.20149 0.59797 0.55978 0.0
H2114 H 0.17944 0.66548 0.54985 0.0
C2115 C 0.17237 0.57883 0.55848 0.0
C2116 C 0.146 0.59097 0.55436 0.0
H2117 H 0.22154 0.58836 0.56417 0.0
H2118 H 0.17057 0.55488 0.56219 0.0
C2119 C 0.14916 0.62233 0.55163 0.0
C2120 C 0.79356 0.03282 0.78021 0.0
C2121 C 0.76409 1.02227 0.76129 0.0
H2122 H 0.82618 0.02322 0.818 0.0
C2123 C 0.74877 0.99094 0.75835 0.0
H2124 H 0.80596 0.05683 0.78264 0.0
C2125 C 0.7603 0.97196 0.77875 0.0
C2126 C 0.78716 0.98433 0.80169 0.0
H2127 H 0.72618 0.9823 0.74353 0.0
H2128 H 0.74702 0.94863 0.77867 0.0
C2129 C 0.80486 1.01395 0.80089 0.0
C2130 C 0.77194 0.97111 0.57209 0.0
C2131 C 0.77155 0.94073 0.55739 0.0
H2132 H 0.75231 1.01078 0.56917 0.0
C2133 C 0.74729 0.925 0.53202 0.0
H2134 H 0.79037 0.98373 0.59174 0.0
C2135 C 0.72586 0.94057 0.51899 0.0
C2136 C 0.72812 0.97187 0.53152 0.0
H2137 H 0.74644 0.90166 0.52009 0.0
H2138 H 0.70898 0.92895 0.49743 0.0
C2139 C 0.75017 0.98656 0.55933 0.0
C2140 C 0.42533 0.41034 0.76846 0.0
C2141 C 0.42519 0.44029 0.78377 0.0
H2142 H 0.40217 0.36237 0.75718 0.0
C2143 C 0.39974 0.44453 0.79913 0.0
H2144 H 0.44453 0.40636 0.75633 0.0
C2145 C 0.37576 0.41907 0.80065 0.0
C2146 C 0.37613 0.3889 0.78581 0.0
H2147 H 0.39912 0.46733 0.81144 0.0
H2148 H 0.3576 0.42295 0.81455 0.0
C2149 C 0.40092 0.38511 0.76895 0.0
C2150 C 0.28059 0.68238 0.29581 0.0
C2151 C 0.24905 0.6794 0.29678 0.0
H2152 H 0.32305 0.71271 0.29109 0.0
C2153 C 0.23638 0.70552 0.29581 0.0
H2154 H 0.29084 0.66248 0.29617 0.0
C2155 C 0.25463 0.73376 0.29199 0.0
C2156 C 0.2859 0.73655 0.29076 0.0
H2157 H 0.21202 0.70371 0.29574 0.0
H2158 H 0.24397 0.75293 0.2884 0.0
C2159 C 0.29894 0.7109 0.29282 0.0
C2160 C 0.55077 0.70616 0.54429 0.0
C2161 C 0.53993 0.71124 0.51146 0.0
H2162 H 0.566 0.67574 0.57731 0.0
C2163 C 0.53646 0.68481 0.48646 0.0
H2164 H 0.55415 0.72499 0.56489 0.0
C2165 C 0.54243 0.65545 0.49398 0.0
C2166 C 0.55328 0.65045 0.52691 0.0
H2167 H 0.52811 0.68639 0.46081 0.0
H2168 H 0.53853 0.63641 0.47351 0.0
C2169 C 0.55771 0.67723 0.55162 0.0
C2170 C 0.70814 0.30015 0.68201 0.0
C2171 C 0.69541 0.32663 0.68368 0.0
H2172 H 0.73991 0.27596 0.70479 0.0
C2173 C 0.70708 0.3498 0.71207 0.0
H2174 H 0.69952 0.28129 0.66134 0.0
C2175 C 0.73137 0.34708 0.73678 0.0
C2176 C 0.74454 0.32087 0.73437 0.0
H2177 H 0.69798 0.37044 0.71481 0.0
H2178 H 0.74014 0.36576 0.75762 0.0
C2179 C 0.73169 0.29714 0.70699 0.0
C2180 C 0.05769 0.41403 0.98889 0.0
C2181 C 0.03843 0.39194 1.00399 0.0
H2182 H 0.07801 0.46184 0.98582 0.0
C2183 C 1.02405 0.40538 0.02946 0.0
H2184 H 0.06952 0.40582 0.96928 0.0
C2185 C 1.02858 0.43863 0.03879 0.0
C2186 C 0.04812 0.46062 0.02363 0.0
H2187 H 1.00872 0.39016 0.04196 0.0
H2188 H 1.01694 0.44704 0.0584 0.0
C2189 C 0.06261 0.44693 0.99855 0.0
C2190 C 1.0275 0.83054 0.20013 0.0
C2191 C 1.0284 0.81584 0.16781 0.0
H2192 H 1.00462 0.82976 0.2433 0.0
C2193 C 1.00402 0.79111 0.15227 0.0
H2194 H 0.04613 0.84969 0.21257 0.0
C2195 C 0.98061 0.77939 0.17008 0.0
C2196 C 0.98092 0.79274 0.20332 0.0
H2197 H 1.00443 0.77921 0.12754 0.0
H2198 H 0.96341 0.75859 0.15876 0.0
C2199 C 1.00371 0.81933 0.21761 0.0
C2200 C 0.56715 0.3429 0.14863 0.0
C2201 C 0.56715 0.34795 0.18344 0.0
H2202 H 0.57932 0.36258 0.10543 0.0
C2203 C 0.57622 0.37851 0.20071 0.0
H2204 H 0.55998 0.31969 0.13442 0.0
C2205 C 0.58721 0.40321 0.18378 0.0
C2206 C 0.58872 0.39763 0.14937 0.0
H2207 H 0.57621 0.38312 0.22743 0.0
H2208 H 0.59611 0.42633 0.19785 0.0
C2209 C 0.57778 0.36747 0.13181 0.0
C2210 C 0.97052 0.36723 0.33959 0.0
C2211 C 0.98611 0.34378 0.34732 0.0
H2212 H 0.9277 0.38016 0.32493 0.0
C2213 C 0.96655 0.31375 0.34468 0.0
H2214 H 0.98354 0.39107 0.34287 0.0
C2215 C 0.93385 0.30758 0.33483 0.0
C2216 C 0.91822 0.33108 0.32745 0.0
H2217 H 0.97643 0.29493 0.35182 0.0
H2218 H 0.92068 0.28408 0.33341 0.0
C2219 C 0.93782 0.36098 0.32956 0.0
C2220 C 0.07722 0.68997 0.63486 0.0
C2221 C 0.05295 0.69182 0.65364 0.0
H2222 H 0.09718 0.66414 0.59947 0.0
C2223 C 1.0304 0.66385 0.65146 0.0
H2224 H 0.09577 0.71014 0.6358 0.0
C2225 C 0.03184 0.63603 0.63018 0.0
C2226 C 0.05538 0.63557 0.60987 0.0
H2227 H 1.01124 0.66364 0.66511 0.0
H2228 H 1.01397 0.61522 0.62882 0.0
C2229 C 0.07813 0.66312 0.61344 0.0
C2230 C 0.67729 0.83116 0.81155 0.0
C2231 C 0.67468 0.84432 0.84456 0.0
H2232 H 0.7055 0.81448 0.77674 0.0
C2233 C 0.70256 0.85006 0.86754 0.0
H2234 H 0.65723 0.8259 0.79241 0.0
C2235 C 0.73082 0.84381 0.8583 0.0
C2236 C 0.73359 0.83078 0.82538 0.0
H2237 H 0.70271 0.85963 0.89332 0.0
H2238 H 0.7508 0.84903 0.87758 0.0
C2239 C 0.70558 0.82441 0.80239 0.0
C2240 C 0.50649 0.56101 0.68309 0.0
C2241 C 0.51419 0.53621 0.69831 0.0
H2242 H 0.51128 0.58767 0.6422 0.0
C2243 C 0.5317 0.51832 0.68147 0.0
H2244 H 0.49333 0.5756 0.69517 0.0
C2245 C 0.54212 0.52542 0.65165 0.0
C2246 C 0.53521 0.55046 0.6368 0.0
H2247 H 0.53791 0.49878 0.69166 0.0
H2248 H 0.55592 0.51118 0.64014 0.0
C2249 C 0.51678 0.56796 0.65264 0.0
C2250 C 0.80696 0.21953 1.00127 0.0
C2251 C 0.79324 0.18951 1.00606 0.0
H2252 H 0.80243 0.25763 0.97538 0.0
C2253 C 0.76535 0.1733 0.98655 0.0
H2254 H 0.82841 0.23228 0.01653 0.0
C2255 C 0.75024 0.18801 0.9638 0.0
C2256 C 0.76305 0.21878 0.96062 0.0
H2257 H 0.75426 0.15027 0.99056 0.0
H2258 H 0.72846 0.17569 0.94934 0.0
C2259 C 0.79202 0.23405 0.97832 0.0
C2260 C 0.15446 0.61314 0.1708 0.0
C2261 C 0.16896 0.59016 0.18065 0.0
H2262 H 0.11913 0.62299 0.13695 0.0
C2263 C 0.16469 0.56165 0.1598 0.0
H2264 H 0.15798 0.63538 0.18668 0.0
C2265 C 0.14246 0.55453 0.13145 0.0
C2266 C 0.12502 0.57613 0.12434 0.0
H2267 H 0.17576 0.54371 0.16739 0.0
H2268 H 0.1371 0.53145 0.11694 0.0
C2269 C 0.13215 0.60597 0.14284 0.0
C2270 C 0.85306 0.84889 0.46054 0.0
C2271 C 0.84658 0.87805 0.47008 0.0
H2272 H 0.85429 0.81324 0.42012 0.0
C2273 C 0.83663 0.89374 0.44432 0.0
H2274 H 0.86076 0.83603 0.47949 0.0
C2275 C 0.83278 0.88071 0.41042 0.0
C2276 C 0.83898 0.85149 0.40067 0.0
H2277 H 0.83119 0.91614 0.4503 0.0
H2278 H 0.82468 0.89367 0.39178 0.0
C2279 C 0.84941 0.83585 0.42635 0.0
C2280 C 0.5329 0.52314 0.89101 0.0
C2281 C 0.50902 0.53771 0.88123 0.0
H2282 H 0.56408 0.51472 0.93164 0.0
C2283 C 0.49904 0.5559 0.90651 0.0
H2284 H 0.54119 0.50889 0.87234 0.0
C2285 C 0.51201 0.55921 0.94028 0.0
C2286 C 0.53543 0.54422 0.95052 0.0
H2287 H 0.48116 0.56801 0.90017 0.0
H2288 H 0.50351 0.57378 0.95846 0.0
C2289 C 0.54589 0.52632 0.92518 0.0
C2290 C 0.77274 0.22169 0.19053 0.0
C2291 C 0.7965 0.20986 0.17864 0.0
H2292 H 0.762 0.25762 0.22322 0.0
C2293 C 0.82602 0.21761 0.19739 0.0
H2294 H 0.74981 0.21569 0.1762 0.0
C2295 C 0.83276 0.24099 0.22502 0.0
C2296 C 0.80991 0.25614 0.23356 0.0
H2297 H 0.84465 0.20896 0.18813 0.0
H2298 H 0.85641 0.24968 0.23706 0.0
C2299 C 0.77968 0.24569 0.21719 0.0
C2300 C 0.17065 0.56834 0.35541 0.0
C2301 C 0.19906 0.58467 0.34942 0.0
H2302 H 0.13061 0.57099 0.37767 0.0
C2303 C 0.21122 0.61544 0.36509 0.0
H2304 H 0.16078 0.54478 0.34285 0.0
C2305 C 0.19336 0.6309 0.3835 0.0
C2306 C 0.16384 0.61521 0.38697 0.0
H2307 H 0.23295 0.62845 0.36012 0.0
H2308 H 0.20204 0.65522 0.39397 0.0
C2309 C 0.15317 0.58351 0.37438 0.0
C2310 C 0.84914 0.83768 0.65947 0.0
C2311 C 0.84367 0.86584 0.65071 0.0
H2312 H 0.84694 0.80581 0.69444 0.0
C2313 C 0.83044 0.88368 0.67358 0.0
H2314 H 0.85909 0.82294 0.643 0.0
C2315 C 0.82334 0.87359 0.70414 0.0
C2316 C 0.82883 0.84516 0.71245 0.0
H2317 H 0.8258 0.90554 0.66803 0.0
H2318 H 0.81351 0.88797 0.72114 0.0
C2319 C 0.84191 0.82764 0.68938 0.0
C2320 C 0.777 0.53627 0.52339 0.0
C2321 C 0.77356 0.50433 0.52347 0.0
H2322 H 0.76723 0.57817 0.54648 0.0
C2323 C 0.75507 0.48901 0.54434 0.0
H2324 H 0.7912 0.54822 0.50722 0.0
C2325 C 0.7425 0.50618 0.56741 0.0
C2326 C 0.74808 0.53847 0.5691 0.0
H2327 H 0.75249 0.46432 0.54479 0.0
H2328 H 0.72931 0.49451 0.58455 0.0
C2329 C 0.76392 0.55331 0.546 0.0
C2330 C 0.20108 0.14621 0.55246 0.0
C2331 C 0.19858 0.16228 0.52486 0.0
H2332 H 0.17871 0.11131 0.5792 0.0
C2333 C 0.17183 0.15279 0.50109 0.0
H2334 H 0.22134 0.15325 0.57143 0.0
C2335 C 0.14775 0.12851 0.50524 0.0
C2336 C 0.14957 0.11324 0.53349 0.0
H2337 H 0.1694 0.16437 0.4794 0.0
H2338 H 0.12721 0.12223 0.48666 0.0
C2339 C 0.17679 0.12202 0.55681 0.0
C2340 C 0.18644 0.9871 0.8011 0.0
C2341 C 0.20454 1.01749 0.80614 0.0
H2342 H 0.18388 0.93901 0.78391 0.0
C2343 C 0.23567 1.02236 0.80196 0.0
H2344 H 0.16254 0.98271 0.80454 0.0
C2345 C 0.2479 0.99743 0.79075 0.0
C2346 C 0.2291 0.96737 0.78334 0.0
H2347 H 0.25032 0.04556 0.80605 0.0
H2348 H 0.27141 1.00187 0.78584 0.0
C2349 C 0.19862 0.96219 0.78952 0.0
C2350 C 0.4518 0.97146 0.0282 0.0
C2351 C 0.42698 0.98181 0.01304 0.0
H2352 H 0.49984 0.98222 0.04606 0.0
C2353 C 0.43154 1.01233 1.00592 0.0
H2354 H 0.44879 0.9481 0.03421 0.0
C2355 C 0.46048 0.03225 0.01397 0.0
C2356 C 0.48546 1.02187 0.02893 0.0
H2357 H 0.41281 1.02079 0.99385 0.0
H2358 H 0.46334 0.05552 1.00772 0.0
C2359 C 0.48088 0.99125 0.03575 0.0
C2360 C 0.89367 0.61763 0.7991 0.0
C2361 C 0.88179 0.60778 0.82713 0.0
H2362 H 0.88455 0.63624 0.75396 0.0
C2363 C 0.85312 0.61182 0.8337 0.0
H2364 H 0.91566 0.61384 0.79359 0.0
C2365 C 0.83555 0.62445 0.81126 0.0
C2366 C 0.84634 0.63199 0.78182 0.0
H2367 H 0.8438 0.60378 0.85517 0.0
H2368 H 0.81311 0.62724 0.81615 0.0
C2369 C 0.87576 0.62952 0.7762 0.0
C2370 C 0.89384 0.69874 0.06982 0.0
C2371 C 0.86891 0.68193 0.04598 0.0
H2372 H 0.93336 0.6962 0.10364 0.0
C2373 C 0.86782 0.65091 0.03308 0.0
H2374 H 0.89491 0.72259 0.08025 0.0
C2375 C 0.89006 0.63608 0.04581 0.0
C2376 C 0.91317 0.65193 0.07215 0.0
H2377 H 0.84873 0.63759 0.01456 0.0
H2378 H 0.88757 0.61154 0.03722 0.0
C2379 C 0.91572 0.68369 0.08313 0.0
C2380 C 0.24223 0.18057 0.81363 0.0
C2381 C 0.21905 0.18589 0.83248 0.0
H2382 H 0.28227 0.20057 0.79311 0.0
C2383 C 0.22094 0.21629 0.84797 0.0
H2384 H 0.24137 0.15744 0.80107 0.0
C2385 C 0.24486 0.2408 0.84418 0.0
C2386 C 0.26727 0.23589 0.82406 0.0
H2387 H 0.20368 0.22123 0.86277 0.0
H2388 H 0.24509 0.2639 0.85628 0.0
C2389 C 0.26586 0.2053 0.80918 0.0
C2390 C 0.36626 0.94703 0.3451 0.0
C2391 C 0.39766 0.94953 0.34332 0.0
H2392 H 0.32133 0.91736 0.33646 0.0
C2393 C 0.40792 0.92335 0.33142 0.0
H2394 H 0.35771 0.96692 0.35436 0.0
C2395 C 0.38707 0.89507 0.32129 0.0
C2396 C 0.35564 0.89267 0.32254 0.0
H2397 H 0.43193 0.92471 0.32957 0.0
H2398 H 0.39584 0.875 0.31335 0.0
C2399 C 0.34536 0.91881 0.33457 0.0
C2400 C 0.61022 0.44464 0.6197 0.0
C2401 C 0.60169 0.41544 0.59811 0.0
H2402 H 0.61241 0.49421 0.62804 0.0
C2403 C 0.58631 0.41724 0.56578 0.0
H2404 H 0.62177 0.44559 0.64487 0.0
C2405 C 0.57999 0.44591 0.5561 0.0
C2406 C 0.58921 0.47525 0.57767 0.0
H2407 H 0.57844 0.39614 0.54779 0.0
H2408 H 0.56792 0.44497 0.5312 0.0
C2409 C 0.60466 0.47326 0.60981 0.0
C2410 C 0.40875 0.78001 0.42219 0.0
C2411 C 0.43982 0.7913 0.41877 0.0
H2412 H 0.36083 0.77217 0.40139 0.0
C2413 C 0.44505 0.80396 0.38929 0.0
H2414 H 0.40335 0.77029 0.44438 0.0
C2415 C 0.42042 0.80577 0.36479 0.0
C2416 C 0.38928 0.79412 0.36791 0.0
H2417 H 0.46835 0.81362 0.38565 0.0
H2418 H 0.42603 0.8175 0.34398 0.0
C2419 C 0.38413 0.78109 0.39725 0.0
C2420 C 0.07521 0.70998 0.10198 0.0
C2421 C 0.10152 0.72973 0.09375 0.0
H2422 H 0.04849 0.66309 0.10119 0.0
C2423 C 0.1216 0.71358 0.07846 0.0
H2424 H 0.05861 0.72036 0.11348 0.0
C2425 C 0.11588 0.68037 0.0716 0.0
C2426 C 0.08948 0.66046 0.07905 0.0
H2427 H 0.14233 0.72682 0.07157 0.0
H2428 H 0.13243 0.6703 0.06015 0.0
C2429 C 0.06933 0.6765 0.0947 0.0
C2430 C 0.11439 0.2955 0.90566 0.0
C2431 C 0.1129 0.31111 0.9374 0.0
H2432 H 0.13792 0.29541 0.86297 0.0
C2433 C 0.13732 0.3359 0.95284 0.0
H2434 H 0.09588 0.27624 0.89324 0.0
C2435 C 0.16116 0.34692 0.9354 0.0
C2436 C 0.16118 0.33301 0.90254 0.0
H2437 H 0.13671 0.34848 0.97717 0.0
H2438 H 0.17834 0.36778 0.94658 0.0
C2439 C 0.13851 0.30627 0.88842 0.0
C2440 C 0.55953 0.75149 0.90226 0.0
C2441 C 0.58291 0.77512 0.92172 0.0
H2442 H 0.52676 0.70887 0.90206 0.0
C2443 C 0.59688 0.76993 0.95265 0.0
H2444 H 0.54809 0.75521 0.87862 0.0
C2445 C 0.5848 0.7434 0.966 0.0
C2446 C 0.55838 0.72209 0.94868 0.0
H2447 H 0.61472 0.78809 0.96819 0.0
H2448 H 0.59375 0.74157 0.99142 0.0
C2449 C 0.54715 0.72515 0.91581 0.0
C2450 C 0.17892 0.82182 0.75734 0.0
C2451 C 0.15682 0.79335 0.75472 0.0
H2452 H 0.22624 0.84742 0.76719 0.0
C2453 C 0.16954 0.76784 0.7621 0.0
H2454 H 0.17125 0.84206 0.75077 0.0
C2455 C 0.20217 0.7709 0.77142 0.0
C2456 C 0.22417 0.79944 0.77322 0.0
H2457 H 0.15444 0.74495 0.75893 0.0
H2458 H 0.21021 0.75039 0.77573 0.0
C2459 C 0.21121 0.8248 0.76632 0.0
C2460 C 0.08185 0.43398 0.46251 0.0
C2461 C 0.09057 0.43751 0.4308 0.0
H2462 H 0.07079 0.45443 0.50823 0.0
C2463 C 0.09607 0.46799 0.42286 0.0
H2464 H 0.07737 0.41126 0.4702 0.0
C2465 C 0.09318 0.49368 0.44597 0.0
C2466 C 0.08424 0.48988 0.47775 0.0
H2467 H 0.10283 0.47208 0.39893 0.0
H2468 H 0.09788 0.51659 0.43877 0.0
C2469 C 0.07846 0.45928 0.48506 0.0
C2470 C 0.46064 0.28929 0.28876 0.0
C2471 C 0.46394 0.27887 0.25507 0.0
H2472 H 0.432 0.30373 0.32439 0.0
C2473 C 0.43642 0.27519 0.23191 0.0
H2474 H 0.48043 0.2933 0.30808 0.0
C2475 C 0.40789 0.28048 0.24157 0.0
C2476 C 0.40453 0.291 0.27512 0.0
H2477 H 0.43677 0.26791 0.20565 0.0
H2478 H 0.38824 0.27675 0.22211 0.0
C2479 C 0.43224 0.29555 0.29831 0.0
C2480 C 0.60641 0.58738 0.40841 0.0
C2481 C 0.63689 0.5851 0.40639 0.0
H2482 H 0.56954 0.58417 0.43763 0.0
C2483 C 0.65311 0.57642 0.43433 0.0
H2484 H 0.59294 0.59378 0.38764 0.0
C2485 C 0.63942 0.57022 0.463 0.0
C2486 C 0.60904 0.57285 0.46522 0.0
H2487 H 0.6765 0.57405 0.43399 0.0
H2488 H 0.65284 0.56354 0.48362 0.0
C2489 C 0.59286 0.58159 0.43726 0.0
C2490 C 0.35514 0.8899 0.07507 0.0
C2491 C 0.33795 0.91279 0.07718 0.0
H2492 H 0.3853 0.86676 0.10123 0.0
C2493 C 0.33707 0.92936 0.10851 0.0
H2494 H 0.35684 0.87721 0.05118 0.0
C2495 C 0.35327 0.92293 0.13739 0.0
C2496 C 0.37108 0.90066 0.13475 0.0
H2497 H 0.32423 0.94732 0.11055 0.0
H2498 H 0.35262 0.93584 0.16153 0.0
C2499 C 0.37172 0.88409 0.10356 0.0
C2500 C 0.97842 0.52365 0.93267 0.0
C2501 C 0.96415 0.54866 0.9324 0.0
H2502 H 1.01505 0.50642 0.95637 0.0
C2503 C 0.97416 0.57509 0.95659 0.0
H2504 H 0.97095 0.50335 0.91358 0.0
C2505 C 0.9994 0.57707 0.98049 0.0
C2506 C 1.01441 0.55251 0.98008 0.0
H2507 H 0.96394 0.59497 0.95552 0.0
H2508 H 1.00786 0.5982 0.99842 0.0
C2509 C 1.00373 0.52562 0.95648 0.0
C2510 C 0.31502 0.24525 0.65259 0.0
C2511 C 0.29302 0.2552 0.63126 0.0
H2512 H 0.33714 0.24692 0.70328 0.0
C2513 C 0.27629 0.27484 0.64663 0.0
H2514 H 0.32874 0.2304 0.64205 0.0
C2515 C 0.28162 0.28477 0.68131 0.0
C2516 C 0.30307 0.27482 0.70295 0.0
H2517 H 0.25902 0.28317 0.63174 0.0
H2518 H 0.26901 0.30087 0.69089 0.0
C2519 C 0.31983 0.25477 0.68789 0.0
C2520 C 0.63756 0.56962 0.20008 0.0
C2521 C 0.62467 0.58889 0.22171 0.0
H2522 H 0.63869 0.54979 0.14916 0.0
C2523 C 0.60222 0.60281 0.20662 0.0
H2524 H 0.65469 0.55814 0.21036 0.0
C2525 C 0.59271 0.59756 0.17185 0.0
C2526 C 0.60573 0.57892 0.14998 0.0
H2527 H 0.59147 0.61781 0.22179 0.0
H2528 H 0.57469 0.60807 0.1623 0.0
C2529 C 0.62834 0.56485 0.16479 0.0
C2530 C 0.35647 0.9058 0.91913 0.0
C2531 C 0.33193 0.92066 0.91714 0.0
H2532 H 0.37399 0.86767 0.89861 0.0
C2533 C 0.30729 0.9107 0.89108 0.0
H2534 H 0.37538 0.91312 0.93963 0.0
C2535 C 0.30616 0.88453 0.86832 0.0
C2536 C 0.33001 0.86875 0.87122 0.0
H2537 H 0.28769 0.92126 0.8902 0.0
H2538 H 0.28592 0.87573 0.84952 0.0
C2539 C 0.35542 0.87965 0.89633 0.0
C2540 C 0.98003 0.55835 0.75066 0.0
C2541 C 0.95387 0.54213 0.76152 0.0
H2542 H 1.01325 0.5555 0.71797 0.0
C2543 C 0.93601 0.51452 0.7422 0.0
H2544 H 0.99387 0.57978 0.76539 0.0
C2545 C 0.94759 0.50019 0.71602 0.0
C2546 C 0.97638 0.514 0.7088 0.0
H2547 H 0.91567 0.50173 0.75033 0.0
H2548 H 0.93532 0.47745 0.70337 0.0
C2549 C 0.99129 0.54426 0.7241 0.0
C2550 C 0.29443 0.27657 0.4448 0.0
C2551 C 0.29711 0.2458 0.44673 0.0
H2552 H 0.29708 0.31403 0.4157 0.0
C2553 C 0.3064 0.23 0.4189 0.0
H2554 H 0.28739 0.28975 0.4654 0.0
C2555 C 0.31283 0.24429 0.39056 0.0
C2556 C 0.31001 0.27502 0.38845 0.0
H2557 H 0.30901 0.20641 0.41904 0.0
H2558 H 0.3198 0.23098 0.37002 0.0
C2559 C 0.30043 0.29074 0.41618 0.0
C2560 C 0.36567 0.5929 0.58883 0.0
C2561 C 0.36884 0.6247 0.58745 0.0
H2562 H 0.37553 0.55033 0.56713 0.0
C2563 C 0.38846 0.63904 0.56667 0.0
H2564 H 0.3509 0.58144 0.60479 0.0
C2565 C 0.40105 0.62118 0.54434 0.0
C2566 C 0.39513 0.58904 0.54337 0.0
H2567 H 0.39152 0.66355 0.56493 0.0
H2568 H 0.41423 0.63224 0.52678 0.0
C2569 C 0.3791 0.57512 0.56697 0.0
C2570 C 0.94053 0.97949 0.54199 0.0
C2571 C 0.94041 0.96059 0.56716 0.0
H2572 H 0.9664 1.01635 0.5206 0.0
C2573 C 0.96616 0.96651 0.59221 0.0
H2574 H 0.92113 0.97504 0.52206 0.0
C2575 C 0.99201 0.99025 0.59155 0.0
C2576 C 0.9927 1.00848 0.56571 0.0
H2577 H 0.96653 0.95234 0.61195 0.0
H2578 H 1.01181 0.9938 0.6108 0.0
C2579 C 0.96641 1.0032 0.54125 0.0
C2580 C 0.95121 0.13652 0.28652 0.0
C2581 C 0.94097 0.10807 0.29744 0.0
H2582 H 0.94742 0.18399 0.28862 0.0
C2583 C 0.91783 0.10495 0.31776 0.0
H2584 H 0.96894 0.13921 0.27074 0.0
C2585 C 0.90592 0.13036 0.3282 0.0
C2586 C 0.91669 0.15902 0.31798 0.0
H2587 H 0.90999 0.08322 0.32683 0.0
H2588 H 0.8892 0.12798 0.34524 0.0
C2589 C 0.93889 0.16187 0.29656 0.0
C2590 C 0.7018 0.0988 0.06233 0.0
C2591 C 0.70467 0.13017 0.05863 0.0
H2592 H 0.67108 0.05537 0.06391 0.0
C2593 C 0.67799 0.14156 0.05282 0.0
H2594 H 0.72193 0.08945 0.06737 0.0
C2595 C 0.64918 0.12239 0.05202 0.0
C2596 C 0.64619 0.09103 0.0551 0.0
H2597 H 0.67932 0.16574 0.05046 0.0
H2598 H 0.6294 0.13256 0.0505 0.0
C2599 C 0.67274 0.07932 0.0603 0.0
C2600 C 0.24966 0.4884 0.25458 0.0
C2601 C 0.26492 0.5187 0.25165 0.0
H2602 H 0.25061 0.44992 0.28108 0.0
C2603 C 0.29632 0.52926 0.26448 0.0
H2604 H 0.22557 0.47949 0.24436 0.0
C2605 C 0.3102 0.51276 0.28616 0.0
C2606 C 0.29306 0.48517 0.29374 0.0
H2607 H 0.30882 0.55225 0.26198 0.0
H2608 H 0.33339 0.5227 0.29903 0.0
C2609 C 0.26369 0.47173 0.27596 0.0
C2610 C 0.24633 0.42599 0.04122 0.0
C2611 C 0.27383 0.44333 0.0609 0.0
H2612 H 0.2041 0.42759 0.01165 0.0
C2613 C 0.27684 0.47525 0.07166 0.0
H2614 H 0.24328 0.40138 0.03262 0.0
C2615 C 0.25421 0.49013 0.05988 0.0
C2616 C 0.22841 0.47326 0.03722 0.0
H2617 H 0.29774 0.48922 0.08695 0.0
H2618 H 0.25823 0.51517 0.06594 0.0
C2619 C 0.22384 0.44091 0.02932 0.0
C2620 C 0.90091 0.94402 0.30029 0.0
C2621 C 0.92556 0.93988 0.28345 0.0
H2622 H 0.85911 0.92238 0.31642 0.0
C2623 C 0.92463 0.91025 0.26644 0.0
H2624 H 0.90115 0.96655 0.31395 0.0
C2625 C 0.89998 0.88517 0.26677 0.0
C2626 C 0.876 0.88879 0.28499 0.0
H2627 H 0.94317 0.90639 0.2531 0.0
H2628 H 0.90041 0.8626 0.25372 0.0
C2629 C 0.87664 0.91869 0.30146 0.0
C2630 C 0.73024 0.20688 0.77925 0.0
C2631 C 0.74113 0.18206 0.79032 0.0
H2632 H 0.74239 0.25299 0.76807 0.0
C2633 C 0.77233 0.18611 0.8032 0.0
H2634 H 0.70636 0.20406 0.76869 0.0
C2635 C 0.7927 0.21423 0.80336 0.0
C2636 C 0.78191 0.23832 0.79075 0.0
H2637 H 0.78115 0.16718 0.81185 0.0
H2638 H 0.81699 0.21675 0.81186 0.0
C2639 C 0.75072 0.23484 0.77903 0.0
loop_
_geom_bond_atom_site_label_1
_geom_bond_atom_site_label_2
_geom_bond_distance
_geom_bond_site_symmetry_2
_ccdc_geom_bond_type
Co0 O1 2.216 . S
Co0 O2 2.091 . S
Co0 O4 2.004 . S
Co0 O10 2.021 . S
Co0 O12 2.137 . S
Co0 O13 2.244 . S
O1 Co0 2.216 . S
O1 C8 1.247 . S
O2 Co0 2.091 . S
O2 C8 1.261 . S
C3 O12 1.247 . S
C3 O13 1.272 . S
O4 Co0 2.004 . S
O4 C9 1.259 1_455 S
Co5 O6 2.061 1_455 S
Co5 O11 2.052 . S
Co5 O13 2.135 . S
O6 Co5 2.061 1_655 S
O6 C9 1.235 . S
C7 O10 1.238 . S
C7 O11 1.241 . S
C8 O1 1.247 . S
C8 O2 1.261 . S
C9 O4 1.259 1_655 S
C9 O6 1.235 . S
O10 Co0 2.021 . S
O10 C7 1.238 . S
O11 Co5 2.052 . S
O11 C7 1.241 . S
O12 Co0 2.137 . S
O12 C3 1.247 . S
O13 Co0 2.244 . S
O13 C3 1.272 . S
O13 Co5 2.135 . S
Co14 O15 2.216 1_455 S
Co14 O16 2.091 1_455 S
Co14 O18 2.004 . S
Co14 O24 2.021 . S
Co14 O26 2.137 . S
Co14 O27 2.244 . S
O15 Co14 2.216 1_655 S
O15 C22 1.247 . S
O16 Co14 2.091 1_655 S
O16 C22 1.261 . S
C17 O26 1.247 . S
C17 O27 1.272 . S
O18 Co14 2.004 . S
O18 C23 1.259 . S
Co19 O20 2.061 . S
Co19 O25 2.052 . S
Co19 O27 2.135 . S
O20 Co19 2.061 . S
O20 C23 1.235 . S
C21 O24 1.238 . S
C21 O25 1.241 . S
C22 O15 1.247 . S
C22 O16 1.261 . S
C23 O18 1.259 . S
C23 O20 1.235 . S
O24 Co14 2.021 . S
O24 C21 1.238 . S
O25 Co19 2.052 . S
O25 C21 1.241 . S
O26 Co14 2.137 . S
O26 C17 1.247 . S
O27 Co14 2.244 . S
O27 C17 1.272 . S
O27 Co19 2.135 . S
Co28 O29 2.216 . S
Co28 O30 2.091 . S
Co28 O32 2.004 . S
Co28 O38 2.021 . S
Co28 O40 2.137 . S
Co28 O41 2.244 . S
O29 Co28 2.216 . S
O29 C36 1.247 . S
O30 Co28 2.091 . S
O30 C36 1.261 . S
C31 O40 1.247 . S
C31 O41 1.272 . S
O32 Co28 2.004 . S
O32 C37 1.259 . S
Co33 O34 2.061 . S
Co33 O39 2.052 . S
Co33 O41 2.135 . S
O34 Co33 2.061 . S
O34 C37 1.235 . S
C35 O38 1.238 . S
C35 O39 1.241 . S
C36 O29 1.247 . S
C36 O30 1.261 . S
C37 O32 1.259 . S
C37 O34 1.235 . S
O38 Co28 2.021 . S
O38 C35 1.238 . S
O39 Co33 2.052 . S
O39 C35 1.241 . S
O40 Co28 2.137 . S
O40 C31 1.247 . S
O41 Co28 2.244 . S
O41 C31 1.272 . S
O41 Co33 2.135 . S
Co42 O43 2.216 . S
Co42 O44 2.091 . S
Co42 O46 2.004 . S
Co42 O52 2.021 . S
Co42 O54 2.137 . S
Co42 O55 2.244 . S
O43 Co42 2.216 . S
O43 C50 1.247 . S
O44 Co42 2.091 . S
O44 C50 1.261 . S
C45 O54 1.247 . S
C45 O55 1.272 . S
O46 Co42 2.004 . S
O46 C51 1.259 . S
Co47 O48 2.061 . S
Co47 O53 2.052 . S
Co47 O55 2.135 . S
O48 Co47 2.061 . S
O48 C51 1.235 . S
C49 O52 1.238 . S
C49 O53 1.241 . S
C50 O43 1.247 . S
C50 O44 1.261 . S
C51 O46 1.259 . S
C51 O48 1.235 . S
O52 Co42 2.021 . S
O52 C49 1.238 . S
O53 Co47 2.052 . S
O53 C49 1.241 . S
O54 Co42 2.137 . S
O54 C45 1.247 . S
O55 Co42 2.244 . S
O55 C45 1.272 . S
O55 Co47 2.135 . S
Co56 O57 2.216 . S
Co56 O58 2.091 . S
Co56 O60 2.004 . S
Co56 O66 2.021 . S
Co56 O68 2.137 . S
Co56 O69 2.244 . S
O57 Co56 2.216 . S
O57 C64 1.247 . S
O58 Co56 2.091 . S
O58 C64 1.261 . S
C59 O68 1.247 . S
C59 O69 1.272 . S
O60 Co56 2.004 . S
O60 C65 1.259 . S
Co61 O62 2.061 . S
Co61 O67 2.052 . S
Co61 O69 2.135 . S
O62 Co61 2.061 . S
O62 C65 1.235 . S
C63 O66 1.238 . S
C63 O67 1.241 . S
C64 O57 1.247 . S
C64 O58 1.261 . S
C65 O60 1.259 . S
C65 O62 1.235 . S
O66 Co56 2.021 . S
O66 C63 1.238 . S
O67 Co61 2.052 . S
O67 C63 1.241 . S
O68 Co56 2.137 . S
O68 C59 1.247 . S
O69 Co56 2.244 . S
O69 C59 1.272 . S
O69 Co61 2.135 . S
Co70 O71 2.216 . S
Co70 O72 2.091 . S
Co70 O74 2.004 . S
Co70 O80 2.021 . S
Co70 O82 2.137 . S
Co70 O83 2.244 . S
O71 Co70 2.216 . S
O71 C78 1.247 . S
O72 Co70 2.091 . S
O72 C78 1.261 . S
C73 O82 1.247 . S
C73 O83 1.272 . S
O74 Co70 2.004 . S
O74 C79 1.259 . S
Co75 O76 2.061 . S
Co75 O81 2.052 . S
Co75 O83 2.135 . S
O76 Co75 2.061 . S
O76 C79 1.235 . S
C77 O80 1.238 . S
C77 O81 1.241 . S
C78 O71 1.247 . S
C78 O72 1.261 . S
C79 O74 1.259 . S
C79 O76 1.235 . S
O80 Co70 2.021 . S
O80 C77 1.238 . S
O81 Co75 2.052 . S
O81 C77 1.241 . S
O82 Co70 2.137 . S
O82 C73 1.247 . S
O83 Co70 2.244 . S
O83 C73 1.272 . S
O83 Co75 2.135 . S
Co84 O85 2.216 . S
Co84 O86 2.091 . S
Co84 O88 2.004 . S
Co84 O94 2.021 . S
Co84 O96 2.137 . S
Co84 O97 2.244 . S
O85 Co84 2.216 . S
O85 C92 1.247 . S
O86 Co84 2.091 . S
O86 C92 1.261 . S
C87 O96 1.247 . S
C87 O97 1.272 . S
O88 Co84 2.004 . S
O88 C93 1.259 . S
Co89 O90 2.061 . S
Co89 O95 2.052 . S
Co89 O97 2.135 . S
O90 Co89 2.061 . S
O90 C93 1.235 . S
C91 O94 1.238 . S
C91 O95 1.241 . S
C92 O85 1.247 . S
C92 O86 1.261 . S
C93 O88 1.259 . S
C93 O90 1.235 . S
O94 Co84 2.021 . S
O94 C91 1.238 . S
O95 Co89 2.052 . S
O95 C91 1.241 . S
O96 Co84 2.137 . S
O96 C87 1.247 . S
O97 Co84 2.244 . S
O97 C87 1.272 . S
O97 Co89 2.135 . S
Co98 O99 2.216 . S
Co98 O100 2.091 . S
Co98 O102 2.004 1_455 S
Co98 O108 2.021 . S
Co98 O110 2.137 . S
Co98 O111 2.244 1_556 S
O99 Co98 2.216 . S
O99 C106 1.247 . S
O100 Co98 2.091 . S
O100 C106 1.261 . S
C101 O110 1.247 . S
C101 O111 1.272 1_556 S
O102 Co98 2.004 1_655 S
O102 C107 1.259 . S
Co103 O104 2.061 1_554 S
Co103 O109 2.052 . S
Co103 O111 2.135 1_655 S
O104 Co103 2.061 1_556 S
O104 C107 1.235 . S
C105 O108 1.238 1_655 S
C105 O109 1.241 1_556 S
C106 O99 1.247 . S
C106 O100 1.261 . S
C107 O102 1.259 . S
C107 O104 1.235 . S
O108 Co98 2.021 . S
O108 C105 1.238 1_455 S
O109 Co103 2.052 . S
O109 C105 1.241 1_554 S
O110 Co98 2.137 . S
O110 C101 1.247 . S
O111 Co98 2.244 1_554 S
O111 C101 1.272 1_554 S
O111 Co103 2.135 1_455 S
Co112 O113 2.216 . S
Co112 O114 2.091 . S
Co112 O116 2.004 1_545 S
Co112 O122 2.021 . S
Co112 O124 2.137 . S
Co112 O125 2.244 . S
O113 Co112 2.216 . S
O113 C120 1.247 . S
O114 Co112 2.091 . S
O114 C120 1.261 . S
C115 O124 1.247 . S
C115 O125 1.272 . S
O116 Co112 2.004 1_565 S
O116 C121 1.259 . S
Co117 O118 2.061 . S
Co117 O123 2.052 . S
Co117 O125 2.135 1_565 S
O118 Co117 2.061 . S
O118 C121 1.235 . S
C119 O122 1.235 1_565 S
C119 O123 1.245 . S
C120 O113 1.247 . S
C120 O114 1.261 . S
C121 O116 1.259 . S
C121 O118 1.235 . S
O122 Co112 2.021 . S
O122 C119 1.235 1_545 S
O123 Co117 2.052 . S
O123 C119 1.245 . S
O124 Co112 2.137 . S
O124 C115 1.247 . S
O125 Co112 2.244 . S
O125 C115 1.272 . S
O125 Co117 2.135 1_545 S
Co126 O127 2.216 . S
Co126 O128 2.091 . S
Co126 O130 2.004 . S
Co126 O136 2.021 . S
Co126 O138 2.137 . S
Co126 O139 2.244 . S
O127 Co126 2.216 . S
O127 C134 1.247 . S
O128 Co126 2.091 . S
O128 C134 1.261 . S
C129 O138 1.247 . S
C129 O139 1.272 . S
O130 Co126 2.004 . S
O130 C135 1.259 . S
Co131 O132 2.061 . S
Co131 O137 2.052 . S
Co131 O139 2.135 . S
O132 Co131 2.061 . S
O132 C135 1.235 . S
C133 O136 1.238 . S
C133 O137 1.241 . S
C134 O127 1.247 . S
C134 O128 1.261 . S
C135 O130 1.259 . S
C135 O132 1.235 . S
O136 Co126 2.021 . S
O136 C133 1.238 . S
O137 Co131 2.052 . S
O137 C133 1.241 . S
O138 Co126 2.137 . S
O138 C129 1.247 . S
O139 Co126 2.244 . S
O139 C129 1.272 . S
O139 Co131 2.135 . S
Co140 O141 2.216 . S
Co140 O142 2.091 . S
Co140 O144 2.004 . S
Co140 O150 2.021 . S
Co140 O152 2.137 . S
Co140 O153 2.244 . S
O141 Co140 2.216 . S
O141 C148 1.247 . S
O142 Co140 2.091 . S
O142 C148 1.261 . S
C143 O152 1.247 . S
C143 O153 1.272 . S
O144 Co140 2.004 . S
O144 C149 1.259 . S
Co145 O146 2.061 . S
Co145 O151 2.052 . S
Co145 O153 2.135 . S
O146 Co145 2.061 . S
O146 C149 1.235 . S
C147 O150 1.238 . S
C147 O151 1.241 . S
C148 O141 1.247 . S
C148 O142 1.261 . S
C149 O144 1.259 . S
C149 O146 1.235 . S
O150 Co140 2.021 . S
O150 C147 1.238 . S
O151 Co145 2.052 . S
O151 C147 1.241 . S
O152 Co140 2.137 . S
O152 C143 1.247 . S
O153 Co140 2.244 . S
O153 C143 1.272 . S
O153 Co145 2.135 . S
Co154 O155 2.216 . S
Co154 O156 2.091 1_556 S
Co154 O158 2.005 1_556 S
Co154 O164 2.021 1_556 S
Co154 O166 2.137 . S
Co154 O167 2.244 . S
O155 Co154 2.216 . S
O155 C162 1.247 . S
O156 Co154 2.091 1_554 S
O156 C162 1.261 1_554 S
C157 O166 1.247 . S
C157 O167 1.272 . S
O158 Co154 2.005 1_554 S
O158 C163 1.260 . S
Co159 O160 2.061 1_556 S
Co159 O165 2.052 1_556 S
Co159 O167 2.135 . S
O160 Co159 2.061 1_554 S
O160 C163 1.235 . S
C161 O164 1.238 . S
C161 O165 1.241 . S
C162 O155 1.247 . S
C162 O156 1.261 1_556 S
C163 O158 1.260 . S
C163 O160 1.235 . S
O164 Co154 2.021 1_554 S
O164 C161 1.238 . S
O165 Co159 2.052 1_554 S
O165 C161 1.241 . S
O166 Co154 2.137 . S
O166 C157 1.247 . S
O167 Co154 2.244 . S
O167 C157 1.272 . S
O167 Co159 2.135 . S
Co168 O169 2.216 . S
Co168 O170 2.091 . S
Co168 O172 2.004 . S
Co168 O178 2.021 . S
Co168 O180 2.137 . S
Co168 O181 2.244 . S
O169 Co168 2.216 . S
O169 C176 1.247 . S
O170 Co168 2.091 . S
O170 C176 1.261 . S
C171 O180 1.246 . S
C171 O181 1.287 . S
O172 Co168 2.004 . S
O172 C177 1.259 . S
Co173 O174 2.061 . S
Co173 O179 2.052 . S
Co173 O181 2.135 . S
O174 Co173 2.061 . S
O174 C177 1.235 . S
C175 O178 1.238 . S
C175 O179 1.241 . S
C176 O169 1.247 . S
C176 O170 1.261 . S
C177 O172 1.259 . S
C177 O174 1.235 . S
O178 Co168 2.021 . S
O178 C175 1.238 . S
O179 Co173 2.052 . S
O179 C175 1.241 . S
O180 Co168 2.137 . S
O180 C171 1.246 . S
O181 Co168 2.244 . S
O181 C171 1.287 . S
O181 Co173 2.135 . S
Co182 O183 2.216 . S
Co182 O184 2.091 . S
Co182 O186 2.004 . S
Co182 O192 2.021 . S
Co182 O194 2.137 . S
Co182 O195 2.244 . S
O183 Co182 2.216 . S
O183 C190 1.247 . S
O184 Co182 2.091 . S
O184 C190 1.261 . S
C185 O194 1.247 . S
C185 O195 1.272 . S
O186 Co182 2.004 . S
O186 C191 1.259 . S
Co187 O188 2.061 . S
Co187 O193 2.052 . S
Co187 O195 2.135 . S
O188 Co187 2.061 . S
O188 C191 1.235 . S
C189 O192 1.238 . S
C189 O193 1.241 . S
C190 O183 1.247 . S
C190 O184 1.261 . S
C191 O186 1.259 . S
C191 O188 1.235 . S
O192 Co182 2.021 . S
O192 C189 1.238 . S
O193 Co187 2.052 . S
O193 C189 1.241 . S
O194 Co182 2.137 . S
O194 C185 1.247 . S
O195 Co182 2.244 . S
O195 C185 1.272 . S
O195 Co187 2.135 . S
Co196 O197 2.216 . S
Co196 O198 2.091 . S
Co196 O200 2.004 . S
Co196 O206 2.021 . S
Co196 O208 2.137 . S
Co196 O209 2.244 . S
O197 Co196 2.216 . S
O197 C204 1.247 . S
O198 Co196 2.091 . S
O198 C204 1.261 . S
C199 O208 1.247 . S
C199 O209 1.272 . S
O200 Co196 2.004 . S
O200 C205 1.259 . S
Co201 O202 2.061 . S
Co201 O207 2.052 . S
Co201 O209 2.135 . S
O202 Co201 2.061 . S
O202 C205 1.235 . S
C203 O206 1.238 . S
C203 O207 1.241 . S
C204 O197 1.247 . S
C204 O198 1.261 . S
C205 O200 1.259 . S
C205 O202 1.235 . S
O206 Co196 2.021 . S
O206 C203 1.238 . S
O207 Co201 2.052 . S
O207 C203 1.241 . S
O208 Co196 2.137 . S
O208 C199 1.247 . S
O209 Co196 2.244 . S
O209 C199 1.272 . S
O209 Co201 2.135 . S
Co210 O211 2.216 . S
Co210 O212 2.091 . S
Co210 O214 2.004 . S
Co210 O220 2.021 . S
Co210 O222 2.137 . S
Co210 O223 2.244 . S
O211 Co210 2.216 . S
O211 C218 1.247 . S
O212 Co210 2.091 . S
O212 C218 1.261 . S
C213 O222 1.247 . S
C213 O223 1.272 . S
O214 Co210 2.004 . S
O214 C219 1.259 . S
Co215 O216 2.061 . S
Co215 O221 2.052 . S
Co215 O223 2.135 . S
O216 Co215 2.061 . S
O216 C219 1.235 . S
C217 O220 1.238 . S
C217 O221 1.241 . S
C218 O211 1.247 . S
C218 O212 1.261 . S
C219 O214 1.259 . S
C219 O216 1.235 . S
O220 Co210 2.021 . S
O220 C217 1.238 . S
O221 Co215 2.052 . S
O221 C217 1.241 . S
O222 Co210 2.137 . S
O222 C213 1.247 . S
O223 Co210 2.244 . S
O223 C213 1.272 . S
O223 Co215 2.135 . S
Co224 O225 2.216 . S
Co224 O226 2.091 . S
Co224 O228 2.004 1_545 S
Co224 O234 2.021 . S
Co224 O236 2.137 . S
Co224 O237 2.244 . S
O225 Co224 2.216 . S
O225 C232 1.247 . S
O226 Co224 2.091 . S
O226 C232 1.261 . S
C227 O236 1.247 . S
C227 O237 1.272 . S
O228 Co224 2.004 1_565 S
O228 C233 1.259 . S
Co229 O230 2.061 . S
Co229 O235 2.051 1_565 S
Co229 O237 2.135 1_565 S
O230 Co229 2.061 . S
O230 C233 1.235 . S
C231 O234 1.238 . S
C231 O235 1.243 . S
C232 O225 1.247 . S
C232 O226 1.261 . S
C233 O228 1.259 . S
C233 O230 1.235 . S
O234 Co224 2.021 . S
O234 C231 1.238 . S
O235 Co229 2.051 1_545 S
O235 C231 1.243 . S
O236 Co224 2.137 . S
O236 C227 1.247 . S
O237 Co224 2.244 . S
O237 C227 1.272 . S
O237 Co229 2.135 1_545 S
Co238 O239 2.216 . S
Co238 O240 2.091 . S
Co238 O242 2.004 . S
Co238 O248 2.021 . S
Co238 O250 2.137 . S
Co238 O251 2.244 . S
O239 Co238 2.216 . S
O239 C246 1.247 . S
O240 Co238 2.091 . S
O240 C246 1.261 . S
C241 O250 1.247 . S
C241 O251 1.272 . S
O242 Co238 2.004 . S
O242 C247 1.259 . S
Co243 O244 2.061 . S
Co243 O249 2.052 . S
Co243 O251 2.135 . S
O244 Co243 2.061 . S
O244 C247 1.235 . S
C245 O248 1.238 . S
C245 O249 1.241 . S
C246 O239 1.247 . S
C246 O240 1.261 . S
C247 O242 1.259 . S
C247 O244 1.235 . S
O248 Co238 2.021 . S
O248 C245 1.238 . S
O249 Co243 2.052 . S
O249 C245 1.241 . S
O250 Co238 2.137 . S
O250 C241 1.247 . S
O251 Co238 2.244 . S
O251 C241 1.272 . S
O251 Co243 2.135 . S
Co252 O253 2.216 . S
Co252 O254 2.091 . S
Co252 O256 2.004 . S
Co252 O262 2.021 . S
Co252 O264 2.137 . S
Co252 O265 2.244 . S
O253 Co252 2.216 . S
O253 C260 1.247 . S
O254 Co252 2.091 . S
O254 C260 1.261 . S
C255 O264 1.247 . S
C255 O265 1.272 . S
O256 Co252 2.004 . S
O256 C261 1.259 . S
Co257 O258 2.061 . S
Co257 O263 2.052 . S
Co257 O265 2.135 . S
O258 Co257 2.061 . S
O258 C261 1.235 . S
C259 O262 1.238 . S
C259 O263 1.241 . S
C260 O253 1.247 . S
C260 O254 1.261 . S
C261 O256 1.259 . S
C261 O258 1.235 . S
O262 Co252 2.021 . S
O262 C259 1.238 . S
O263 Co257 2.052 . S
O263 C259 1.241 . S
O264 Co252 2.137 . S
O264 C255 1.247 . S
O265 Co252 2.244 . S
O265 C255 1.272 . S
O265 Co257 2.135 . S
Co266 O267 2.216 . S
Co266 O268 2.091 . S
Co266 O270 2.004 . S
Co266 O276 2.021 . S
Co266 O278 2.137 . S
Co266 O279 2.244 . S
O267 Co266 2.216 . S
O267 C274 1.247 . S
O268 Co266 2.091 . S
O268 C274 1.261 . S
C269 O278 1.247 . S
C269 O279 1.272 . S
O270 Co266 2.004 . S
O270 C275 1.259 . S
Co271 O272 2.061 . S
Co271 O277 2.052 . S
Co271 O279 2.135 . S
O272 Co271 2.061 . S
O272 C275 1.235 . S
C273 O276 1.238 . S
C273 O277 1.241 . S
C274 O267 1.247 . S
C274 O268 1.261 . S
C275 O270 1.259 . S
C275 O272 1.235 . S
O276 Co266 2.021 . S
O276 C273 1.238 . S
O277 Co271 2.052 . S
O277 C273 1.241 . S
O278 Co266 2.137 . S
O278 C269 1.247 . S
O279 Co266 2.244 . S
O279 C269 1.272 . S
O279 Co271 2.135 . S
Co280 O281 2.216 . S
Co280 O282 2.091 . S
Co280 O284 2.004 . S
Co280 O290 2.021 . S
Co280 O292 2.137 1_554 S
Co280 O293 2.252 . S
O281 Co280 2.216 . S
O281 C288 1.247 . S
O282 Co280 2.091 . S
O282 C288 1.261 . S
C283 O292 1.247 . S
C283 O293 1.257 1_556 S
O284 Co280 2.004 . S
O284 C289 1.259 . S
Co285 O286 2.061 . S
Co285 O291 2.052 . S
Co285 O293 2.144 . S
O286 Co285 2.061 . S
O286 C289 1.235 . S
C287 O290 1.238 . S
C287 O291 1.241 . S
C288 O281 1.247 . S
C288 O282 1.261 . S
C289 O284 1.259 . S
C289 O286 1.235 . S
O290 Co280 2.021 . S
O290 C287 1.238 . S
O291 Co285 2.052 . S
O291 C287 1.241 . S
O292 Co280 2.137 1_556 S
O292 C283 1.247 . S
O293 Co280 2.252 . S
O293 C283 1.257 1_554 S
O293 Co285 2.144 . S
Co294 O295 2.216 . S
Co294 O296 2.091 . S
Co294 O298 2.004 . S
Co294 O304 2.021 . S
Co294 O306 2.137 . S
Co294 O307 2.244 . S
O295 Co294 2.216 . S
O295 C302 1.247 . S
O296 Co294 2.091 . S
O296 C302 1.261 . S
C297 O306 1.247 . S
C297 O307 1.272 . S
O298 Co294 2.004 . S
O298 C303 1.259 . S
Co299 O300 2.061 . S
Co299 O305 2.052 . S
Co299 O307 2.135 . S
O300 Co299 2.061 . S
O300 C303 1.235 . S
C301 O304 1.238 . S
C301 O305 1.241 . S
C302 O295 1.247 . S
C302 O296 1.261 . S
C303 O298 1.259 . S
C303 O300 1.235 . S
O304 Co294 2.021 . S
O304 C301 1.238 . S
O305 Co299 2.052 . S
O305 C301 1.241 . S
O306 Co294 2.137 . S
O306 C297 1.247 . S
O307 Co294 2.244 . S
O307 C297 1.272 . S
O307 Co299 2.135 . S
Co308 O309 2.216 . S
Co308 O310 2.091 . S
Co308 O312 2.004 . S
Co308 O318 2.021 . S
Co308 O320 2.137 . S
Co308 O321 2.244 . S
O309 Co308 2.216 . S
O309 C316 1.247 . S
O310 Co308 2.091 . S
O310 C316 1.261 . S
C311 O320 1.247 . S
C311 O321 1.272 . S
O312 Co308 2.004 . S
O312 C317 1.259 . S
Co313 O314 2.061 . S
Co313 O319 2.052 . S
Co313 O321 2.135 . S
O314 Co313 2.061 . S
O314 C317 1.235 . S
C315 O318 1.238 . S
C315 O319 1.241 . S
C316 O309 1.247 . S
C316 O310 1.261 . S
C317 O312 1.259 . S
C317 O314 1.235 . S
O318 Co308 2.021 . S
O318 C315 1.238 . S
O319 Co313 2.052 . S
O319 C315 1.241 . S
O320 Co308 2.137 . S
O320 C311 1.247 . S
O321 Co308 2.244 . S
O321 C311 1.272 . S
O321 Co313 2.135 . S
Co322 O323 2.216 . S
Co322 O324 2.091 . S
Co322 O326 2.004 . S
Co322 O332 2.021 . S
Co322 O334 2.137 . S
Co322 O335 2.244 . S
O323 Co322 2.216 . S
O323 C330 1.247 . S
O324 Co322 2.091 . S
O324 C330 1.261 . S
C325 O334 1.247 . S
C325 O335 1.272 . S
O326 Co322 2.004 . S
O326 C331 1.259 . S
Co327 O328 2.061 . S
Co327 O333 2.052 . S
Co327 O335 2.135 . S
O328 Co327 2.061 . S
O328 C331 1.235 . S
C329 O332 1.238 . S
C329 O333 1.241 . S
C330 O323 1.247 . S
C330 O324 1.261 . S
C331 O326 1.259 . S
C331 O328 1.235 . S
O332 Co322 2.021 . S
O332 C329 1.238 . S
O333 Co327 2.052 . S
O333 C329 1.241 . S
O334 Co322 2.137 . S
O334 C325 1.247 . S
O335 Co322 2.244 . S
O335 C325 1.272 . S
O335 Co327 2.135 . S
Tb336 N365 2.617 . S
Tb336 N371 2.572 . S
Tb336 O380 2.465 . S
Tb336 O381 2.387 . S
Tb336 O383 2.428 . S
Tb336 O384 2.308 . S
Tb336 O388 2.349 . S
Tb336 O391 2.393 . S
Tb336 C400 2.802 . S
C337 N338 1.379 . S
C337 C340 1.416 . S
C337 C344 1.424 1_556 S
N338 C337 1.379 . S
N338 C341 1.334 . S
N338 Tb347 2.617 1_566 S
C339 C341 1.390 . S
C339 C342 1.339 . S
C339 H359 0.930 . S
C340 C337 1.416 . S
C340 C342 1.416 . S
C340 C346 1.448 . S
C341 N338 1.334 . S
C341 C339 1.390 . S
C341 H352 0.903 1_565 S
C342 C339 1.339 . S
C342 C340 1.416 . S
C342 H363 0.930 . S
C343 C344 1.413 . S
C343 C345 1.427 1_554 S
C343 C349 1.416 . S
C344 C337 1.424 1_554 S
C344 C343 1.413 . S
C344 N348 1.361 . S
C345 C343 1.427 1_556 S
C345 C346 1.328 . S
C345 H360 0.929 . S
C346 C340 1.448 . S
C346 C345 1.328 . S
C346 H361 0.930 . S
Tb347 N338 2.617 1_544 S
Tb347 N348 2.572 1_545 S
Tb347 O382 2.349 1_655 S
Tb347 O385 2.393 1_654 S
Tb347 O386 2.465 . S
Tb347 O387 2.387 1_645 S
Tb347 O389 2.428 1_554 S
Tb347 O390 2.308 1_655 S
Tb347 C411 2.802 . S
N348 C344 1.361 . S
N348 Tb347 2.572 1_565 S
N348 C350 1.340 . S
C349 C343 1.416 . S
C349 C351 1.332 . S
C349 H357 0.931 . S
C350 N348 1.340 . S
C350 C351 1.407 . S
C350 H356 0.930 . S
C351 C349 1.332 . S
C351 C350 1.407 . S
C351 H353 0.929 . S
H352 C341 0.903 1_545 S
H353 C351 0.929 . S
H354 C369 0.930 . S
H355 C376 0.929 1_556 S
H356 C350 0.930 . S
H357 C349 0.931 . S
H358 C372 0.930 . S
H359 C339 0.930 . S
H360 C345 0.929 . S
H361 C346 0.930 . S
H362 C367 0.930 . S
H363 C342 0.930 . S
H364 C375 0.931 . S
N365 Tb336 2.617 . S
N365 C366 1.379 . S
N365 C369 1.334 . S
C366 N365 1.379 . S
C366 C368 1.416 . S
C366 C374 1.424 . S
C367 H362 0.930 . S
C367 C369 1.390 . S
C367 C370 1.339 . S
C368 C366 1.416 . S
C368 C370 1.416 . S
C368 C401 1.448 . S
C369 H354 0.930 . S
C369 N365 1.334 . S
C369 C367 1.390 . S
C370 C367 1.339 . S
C370 C368 1.416 . S
C370 H377 0.930 . S
N371 Tb336 2.572 . S
N371 C372 1.340 . S
N371 C374 1.361 . S
C372 H358 0.930 . S
C372 N371 1.340 . S
C372 C376 1.407 . S
C373 C374 1.413 . S
C373 C375 1.416 . S
C373 C402 1.427 . S
C374 C366 1.424 . S
C374 N371 1.361 . S
C374 C373 1.413 . S
C375 H364 0.931 . S
C375 C373 1.416 . S
C375 C376 1.332 . S
C376 H355 0.929 1_554 S
C376 C372 1.407 . S
C376 C375 1.332 . S
H377 C370 0.930 . S
H378 C401 0.930 . S
H379 C402 0.929 . S
O380 Tb336 2.465 . S
O380 C400 1.264 . S
O381 Tb336 2.387 . S
O381 C392 1.264 . S
O382 Tb347 2.349 1_455 S
O382 C392 1.243 . S
O383 Tb336 2.428 . S
O383 C400 1.256 . S
O384 Tb336 2.308 . S
O384 C399 1.266 1_554 S
O385 Tb347 2.393 1_456 S
O385 C399 1.248 . S
O386 Tb347 2.465 . S
O386 C411 1.264 . S
O387 Tb347 2.387 1_465 S
O387 C403 1.264 . S
O388 Tb336 2.349 . S
O388 C403 1.243 1_545 S
O389 Tb347 2.428 1_556 S
O389 C411 1.256 1_556 S
O390 Tb347 2.308 1_455 S
O390 C410 1.266 . S
O391 Tb336 2.393 . S
O391 C410 1.248 . S
C392 O381 1.264 . S
C392 O382 1.243 . S
C393 C396 1.399 . S
C393 C398 1.383 . S
C393 C400 1.496 . S
C394 C395 1.399 . S
C394 C398 1.389 . S
C395 C394 1.399 . S
C395 C397 1.380 . S
C395 H412 0.929 . S
C396 C393 1.399 . S
C396 C397 1.392 . S
C396 H413 0.929 . S
C397 C395 1.380 . S
C397 C396 1.392 . S
C397 H414 0.929 . S
C398 C393 1.383 . S
C398 C394 1.389 . S
C398 H415 0.931 . S
C399 O384 1.266 1_556 S
C399 O385 1.248 . S
C400 Tb336 2.802 . S
C400 O380 1.264 . S
C400 O383 1.256 . S
C400 C393 1.496 . S
C401 C368 1.448 . S
C401 H378 0.930 . S
C401 C402 1.328 . S
C402 C373 1.427 . S
C402 H379 0.929 . S
C402 C401 1.328 . S
C403 O387 1.264 . S
C403 O388 1.243 1_565 S
C404 C407 1.399 1_554 S
C404 C408 1.383 . S
C404 C411 1.496 . S
C405 C406 1.399 1_554 S
C405 C408 1.389 . S
C406 C405 1.399 1_556 S
C406 C409 1.380 . S
C406 H416 0.929 . S
C407 C404 1.399 1_556 S
C407 C409 1.392 . S
C407 H417 0.929 . S
C408 C404 1.383 . S
C408 C405 1.389 . S
C408 H418 0.931 . S
C409 C406 1.380 . S
C409 C407 1.392 . S
C409 H419 0.929 . S
C410 O390 1.266 . S
C410 O391 1.248 . S
C411 Tb347 2.802 . S
C411 O386 1.264 . S
C411 O389 1.256 1_554 S
C411 C404 1.496 . S
H412 C395 0.929 . S
H413 C396 0.929 . S
H414 C397 0.929 . S
H415 C398 0.931 . S
H416 C406 0.929 . S
H417 C407 0.929 . S
H418 C408 0.931 . S
H419 C409 0.929 . S
Tb420 N449 2.617 . S
Tb420 N455 2.572 . S
Tb420 O464 2.465 . S
Tb420 O465 2.387 . S
Tb420 O467 2.428 . S
Tb420 O468 2.308 . S
Tb420 O472 2.349 . S
Tb420 O475 2.393 . S
Tb420 C484 2.802 . S
C421 N422 1.379 . S
C421 C424 1.416 . S
C421 C428 1.424 . S
N422 C421 1.379 . S
N422 C425 1.334 . S
N422 Tb431 2.617 . S
C423 C425 1.390 . S
C423 C426 1.339 . S
C423 H443 0.930 . S
C424 C421 1.416 . S
C424 C426 1.416 . S
C424 C430 1.448 . S
C425 N422 1.334 . S
C425 C423 1.390 . S
C425 H436 0.930 . S
C426 C423 1.339 . S
C426 C424 1.416 . S
C426 H447 0.930 . S
C427 C428 1.413 . S
C427 C429 1.427 . S
C427 C433 1.416 . S
C428 C421 1.424 . S
C428 C427 1.413 . S
C428 N432 1.361 . S
C429 C427 1.427 . S
C429 C430 1.328 . S
C429 H444 0.929 . S
C430 C424 1.448 . S
C430 C429 1.328 . S
C430 H445 0.930 . S
Tb431 N422 2.617 . S
Tb431 N432 2.572 . S
Tb431 O466 2.349 . S
Tb431 O469 2.393 . S
Tb431 O470 2.465 . S
Tb431 O471 2.387 . S
Tb431 O473 2.428 . S
Tb431 O474 2.308 . S
Tb431 C495 2.802 . S
N432 C428 1.361 . S
N432 Tb431 2.572 . S
N432 C434 1.340 . S
C433 C427 1.416 . S
C433 C435 1.332 . S
C433 H441 0.931 . S
C434 N432 1.340 . S
C434 C435 1.407 . S
C434 H440 0.930 . S
C435 C433 1.332 . S
C435 C434 1.407 . S
C435 H437 0.929 . S
H436 C425 0.930 . S
H437 C435 0.929 . S
H438 C453 0.930 . S
H439 C460 0.929 . S
H440 C434 0.930 . S
H441 C433 0.931 . S
H442 C456 0.930 . S
H443 C423 0.930 . S
H444 C429 0.929 . S
H445 C430 0.930 . S
H446 C451 0.930 . S
H447 C426 0.930 . S
H448 C459 0.931 . S
N449 Tb420 2.617 . S
N449 C450 1.379 . S
N449 C453 1.334 . S
C450 N449 1.379 . S
C450 C452 1.416 . S
C450 C458 1.424 . S
C451 H446 0.930 . S
C451 C453 1.390 . S
C451 C454 1.339 . S
C452 C450 1.416 . S
C452 C454 1.416 . S
C452 C485 1.448 . S
C453 H438 0.930 . S
C453 N449 1.334 . S
C453 C451 1.390 . S
C454 C451 1.339 . S
C454 C452 1.416 . S
C454 H461 0.930 . S
N455 Tb420 2.572 . S
N455 C456 1.340 . S
N455 C458 1.361 . S
C456 H442 0.930 . S
C456 N455 1.340 . S
C456 C460 1.407 . S
C457 C458 1.413 . S
C457 C459 1.416 . S
C457 C486 1.427 . S
C458 C450 1.424 . S
C458 N455 1.361 . S
C458 C457 1.413 . S
C459 H448 0.931 . S
C459 C457 1.416 . S
C459 C460 1.332 . S
C460 H439 0.929 . S
C460 C456 1.407 . S
C460 C459 1.332 . S
H461 C454 0.930 . S
H462 C485 0.930 . S
H463 C486 0.929 . S
O464 Tb420 2.465 . S
O464 C484 1.264 . S
O465 Tb420 2.387 . S
O465 C476 1.264 . S
O466 Tb431 2.349 . S
O466 C476 1.243 . S
O467 Tb420 2.428 . S
O467 C484 1.256 . S
O468 Tb420 2.308 . S
O468 C483 1.266 . S
O469 Tb431 2.393 . S
O469 C483 1.248 . S
O470 Tb431 2.465 . S
O470 C495 1.264 . S
O471 Tb431 2.387 . S
O471 C487 1.264 . S
O472 Tb420 2.349 . S
O472 C487 1.243 . S
O473 Tb431 2.428 . S
O473 C495 1.256 . S
O474 Tb431 2.308 . S
O474 C494 1.266 . S
O475 Tb420 2.393 . S
O475 C494 1.248 . S
C476 O465 1.264 . S
C476 O466 1.243 . S
C477 C480 1.399 . S
C477 C482 1.383 . S
C477 C484 1.496 . S
C478 C479 1.399 . S
C478 C482 1.389 . S
C479 C478 1.399 . S
C479 C481 1.380 . S
C479 H496 0.929 . S
C480 C477 1.399 . S
C480 C481 1.392 . S
C480 H497 0.929 . S
C481 C479 1.380 . S
C481 C480 1.392 . S
C481 H498 0.929 . S
C482 C477 1.383 . S
C482 C478 1.389 . S
C482 H499 0.931 . S
C483 O468 1.266 . S
C483 O469 1.248 . S
C484 Tb420 2.802 . S
C484 O464 1.264 . S
C484 O467 1.256 . S
C484 C477 1.496 . S
C485 C452 1.448 . S
C485 H462 0.930 . S
C485 C486 1.328 . S
C486 C457 1.427 . S
C486 H463 0.929 . S
C486 C485 1.328 . S
C487 O471 1.264 . S
C487 O472 1.243 . S
C488 C491 1.399 . S
C488 C492 1.383 . S
C488 C495 1.496 . S
C489 C490 1.399 . S
C489 C492 1.389 . S
C490 C489 1.399 . S
C490 C493 1.380 . S
C490 H500 0.929 . S
C491 C488 1.399 . S
C491 C493 1.392 . S
C491 H501 0.929 . S
C492 C488 1.383 . S
C492 C489 1.389 . S
C492 H502 0.931 . S
C493 C490 1.380 . S
C493 C491 1.392 . S
C493 H503 0.929 . S
C494 O474 1.266 . S
C494 O475 1.248 . S
C495 Tb431 2.802 . S
C495 O470 1.264 . S
C495 O473 1.256 . S
C495 C488 1.496 . S
H496 C479 0.929 . S
H497 C480 0.929 . S
H498 C481 0.929 . S
H499 C482 0.931 . S
H500 C490 0.929 . S
H501 C491 0.929 . S
H502 C492 0.931 . S
H503 C493 0.929 . S
Tb504 N533 2.617 . S
Tb504 N539 2.572 1_545 S
Tb504 O548 2.465 . S
Tb504 O549 2.387 1_545 S
Tb504 O551 2.428 . S
Tb504 O552 2.308 . S
Tb504 O556 2.349 . S
Tb504 O559 2.393 . S
Tb504 C568 2.802 . S
C505 N506 1.379 . S
C505 C508 1.416 . S
C505 C512 1.424 . S
N506 C505 1.379 . S
N506 C509 1.334 . S
N506 Tb515 2.617 . S
C507 C509 1.390 . S
C507 C510 1.339 . S
C507 H527 0.930 . S
C508 C505 1.416 . S
C508 C510 1.416 . S
C508 C514 1.448 . S
C509 N506 1.334 . S
C509 C507 1.390 . S
C509 H520 0.930 . S
C510 C507 1.339 . S
C510 C508 1.416 . S
C510 H531 0.930 . S
C511 C512 1.413 . S
C511 C513 1.427 . S
C511 C517 1.416 . S
C512 C505 1.424 . S
C512 C511 1.413 . S
C512 N516 1.361 . S
C513 C511 1.427 . S
C513 C514 1.328 . S
C513 H528 0.929 . S
C514 C508 1.448 . S
C514 C513 1.328 . S
C514 H529 0.930 . S
Tb515 N506 2.617 . S
Tb515 N516 2.572 . S
Tb515 O550 2.349 1_545 S
Tb515 O553 2.393 . S
Tb515 O554 2.465 . S
Tb515 O555 2.387 . S
Tb515 O557 2.428 . S
Tb515 O558 2.308 . S
Tb515 C579 2.802 . S
N516 C512 1.361 . S
N516 Tb515 2.572 . S
N516 C518 1.340 . S
C517 C511 1.416 . S
C517 C519 1.332 . S
C517 H525 0.931 . S
C518 N516 1.340 . S
C518 C519 1.407 . S
C518 H524 0.930 . S
C519 C517 1.332 . S
C519 C518 1.407 . S
C519 H521 0.929 . S
H520 C509 0.930 . S
H521 C519 0.929 . S
H522 C537 0.930 . S
H523 C544 0.929 . S
H524 C518 0.930 . S
H525 C517 0.931 . S
H526 C540 0.930 . S
H527 C507 0.930 . S
H528 C513 0.929 . S
H529 C514 0.930 . S
H530 C535 0.930 1_545 S
H531 C510 0.930 . S
H532 C543 0.931 . S
N533 Tb504 2.617 . S
N533 C534 1.379 1_545 S
N533 C537 1.334 . S
C534 N533 1.379 1_565 S
C534 C536 1.416 . S
C534 C542 1.424 . S
C535 H530 0.930 1_565 S
C535 C537 1.390 1_565 S
C535 C538 1.339 . S
C536 C534 1.416 . S
C536 C538 1.416 . S
C536 C569 1.448 . S
C537 H522 0.930 . S
C537 N533 1.334 . S
C537 C535 1.390 1_545 S
C538 C535 1.339 . S
C538 C536 1.416 . S
C538 H545 0.930 . S
N539 Tb504 2.572 1_565 S
N539 C540 1.340 . S
N539 C542 1.361 . S
C540 H526 0.930 . S
C540 N539 1.340 . S
C540 C544 1.407 . S
C541 C542 1.413 . S
C541 C543 1.416 . S
C541 C570 1.427 . S
C542 C534 1.424 . S
C542 N539 1.361 . S
C542 C541 1.413 . S
C543 H532 0.931 . S
C543 C541 1.416 . S
C543 C544 1.332 . S
C544 H523 0.929 . S
C544 C540 1.407 . S
C544 C543 1.332 . S
H545 C538 0.930 . S
H546 C569 0.930 . S
H547 C570 0.929 . S
O548 Tb504 2.465 . S
O548 C568 1.264 . S
O549 Tb504 2.387 1_565 S
O549 C560 1.264 . S
O550 Tb515 2.349 1_565 S
O550 C560 1.243 . S
O551 Tb504 2.428 . S
O551 C568 1.256 . S
O552 Tb504 2.308 . S
O552 C567 1.266 . S
O553 Tb515 2.393 . S
O553 C567 1.248 . S
O554 Tb515 2.465 . S
O554 C579 1.264 . S
O555 Tb515 2.387 . S
O555 C571 1.264 . S
O556 Tb504 2.349 . S
O556 C571 1.243 . S
O557 Tb515 2.428 . S
O557 C579 1.256 . S
O558 Tb515 2.308 . S
O558 C578 1.266 . S
O559 Tb504 2.393 . S
O559 C578 1.248 . S
C560 O549 1.264 . S
C560 O550 1.243 . S
C561 C564 1.399 . S
C561 C566 1.383 . S
C561 C568 1.496 . S
C562 C563 1.399 . S
C562 C566 1.389 . S
C563 C562 1.399 . S
C563 C565 1.380 . S
C563 H580 0.929 . S
C564 C561 1.399 . S
C564 C565 1.392 . S
C564 H581 0.929 . S
C565 C563 1.380 . S
C565 C564 1.392 . S
C565 H582 0.929 . S
C566 C561 1.383 . S
C566 C562 1.389 . S
C566 H583 0.931 . S
C567 O552 1.266 . S
C567 O553 1.248 . S
C568 Tb504 2.802 . S
C568 O548 1.264 . S
C568 O551 1.256 . S
C568 C561 1.496 . S
C569 C536 1.448 . S
C569 H546 0.930 . S
C569 C570 1.328 . S
C570 C541 1.427 . S
C570 H547 0.929 . S
C570 C569 1.328 . S
C571 O555 1.264 . S
C571 O556 1.243 . S
C572 C575 1.399 . S
C572 C576 1.383 . S
C572 C579 1.496 1_565 S
C573 C574 1.399 . S
C573 C576 1.389 . S
C574 C573 1.399 . S
C574 C577 1.380 . S
C574 H584 0.929 . S
C575 C572 1.399 . S
C575 C577 1.392 . S
C575 H585 0.929 . S
C576 C572 1.383 . S
C576 C573 1.389 . S
C576 H586 0.931 . S
C577 C574 1.380 . S
C577 C575 1.392 . S
C577 H587 0.929 . S
C578 O558 1.266 . S
C578 O559 1.248 . S
C579 Tb515 2.802 . S
C579 O554 1.264 . S
C579 O557 1.256 . S
C579 C572 1.496 1_545 S
H580 C563 0.929 . S
H581 C564 0.929 . S
H582 C565 0.929 . S
H583 C566 0.931 . S
H584 C574 0.929 . S
H585 C575 0.929 . S
H586 C576 0.931 . S
H587 C577 0.929 . S
Tb588 N617 2.617 . S
Tb588 N623 2.572 . S
Tb588 O632 2.465 . S
Tb588 O633 2.387 . S
Tb588 O635 2.428 . S
Tb588 O636 2.308 . S
Tb588 O640 2.349 . S
Tb588 O643 2.393 . S
Tb588 C652 2.802 . S
C589 N590 1.379 . S
C589 C592 1.416 . S
C589 C596 1.424 . S
N590 C589 1.379 . S
N590 C593 1.334 . S
N590 Tb599 2.617 . S
C591 C593 1.390 . S
C591 C594 1.339 . S
C591 H611 0.930 . S
C592 C589 1.416 . S
C592 C594 1.416 . S
C592 C598 1.448 . S
C593 N590 1.334 . S
C593 C591 1.390 . S
C593 H604 0.930 . S
C594 C591 1.339 . S
C594 C592 1.416 . S
C594 H615 0.930 . S
C595 C596 1.413 . S
C595 C597 1.427 . S
C595 C601 1.416 . S
C596 C589 1.424 . S
C596 C595 1.413 . S
C596 N600 1.361 . S
C597 C595 1.427 . S
C597 C598 1.328 . S
C597 H612 0.929 . S
C598 C592 1.448 . S
C598 C597 1.328 . S
C598 H613 0.930 . S
Tb599 N590 2.617 . S
Tb599 N600 2.572 . S
Tb599 O634 2.349 . S
Tb599 O637 2.393 . S
Tb599 O638 2.465 . S
Tb599 O639 2.387 . S
Tb599 O641 2.428 . S
Tb599 O642 2.308 . S
Tb599 C663 2.802 . S
N600 C596 1.361 . S
N600 Tb599 2.572 . S
N600 C602 1.340 . S
C601 C595 1.416 . S
C601 C603 1.332 . S
C601 H609 0.931 . S
C602 N600 1.340 . S
C602 C603 1.407 . S
C602 H608 0.930 . S
C603 C601 1.332 . S
C603 C602 1.407 . S
C603 H605 0.929 . S
H604 C593 0.930 . S
H605 C603 0.929 . S
H606 C621 0.930 . S
H607 C628 0.929 . S
H608 C602 0.930 . S
H609 C601 0.931 . S
H610 C624 0.930 . S
H611 C591 0.930 . S
H612 C597 0.929 . S
H613 C598 0.930 . S
H614 C619 0.930 . S
H615 C594 0.930 . S
H616 C627 0.931 . S
N617 Tb588 2.617 . S
N617 C618 1.379 . S
N617 C621 1.334 . S
C618 N617 1.379 . S
C618 C620 1.416 . S
C618 C626 1.424 . S
C619 H614 0.930 . S
C619 C621 1.390 . S
C619 C622 1.339 . S
C620 C618 1.416 . S
C620 C622 1.416 . S
C620 C653 1.448 . S
C621 H606 0.930 . S
C621 N617 1.334 . S
C621 C619 1.390 . S
C622 C619 1.339 . S
C622 C620 1.416 . S
C622 H629 0.930 . S
N623 Tb588 2.572 . S
N623 C624 1.340 . S
N623 C626 1.361 . S
C624 H610 0.930 . S
C624 N623 1.340 . S
C624 C628 1.407 . S
C625 C626 1.413 . S
C625 C627 1.416 . S
C625 C654 1.427 . S
C626 C618 1.424 . S
C626 N623 1.361 . S
C626 C625 1.413 . S
C627 H616 0.931 . S
C627 C625 1.416 . S
C627 C628 1.332 . S
C628 H607 0.929 . S
C628 C624 1.407 . S
C628 C627 1.332 . S
H629 C622 0.930 . S
H630 C653 0.930 . S
H631 C654 0.929 . S
O632 Tb588 2.465 . S
O632 C652 1.264 . S
O633 Tb588 2.387 . S
O633 C644 1.264 . S
O634 Tb599 2.349 . S
O634 C644 1.243 . S
O635 Tb588 2.428 . S
O635 C652 1.256 . S
O636 Tb588 2.308 . S
O636 C651 1.266 . S
O637 Tb599 2.393 . S
O637 C651 1.248 . S
O638 Tb599 2.465 . S
O638 C663 1.264 . S
O639 Tb599 2.387 . S
O639 C655 1.264 . S
O640 Tb588 2.349 . S
O640 C655 1.243 . S
O641 Tb599 2.428 . S
O641 C663 1.256 . S
O642 Tb599 2.308 . S
O642 C662 1.266 . S
O643 Tb588 2.393 . S
O643 C662 1.248 . S
C644 O633 1.264 . S
C644 O634 1.243 . S
C645 C648 1.399 . S
C645 C650 1.383 . S
C645 C652 1.496 . S
C646 C647 1.399 . S
C646 C650 1.389 . S
C647 C646 1.399 . S
C647 C649 1.380 . S
C647 H664 0.929 . S
C648 C645 1.399 . S
C648 C649 1.392 . S
C648 H665 0.929 . S
C649 C647 1.380 . S
C649 C648 1.392 . S
C649 H666 0.929 . S
C650 C645 1.383 . S
C650 C646 1.389 . S
C650 H667 0.931 . S
C651 O636 1.266 . S
C651 O637 1.248 . S
C652 Tb588 2.802 . S
C652 O632 1.264 . S
C652 O635 1.256 . S
C652 C645 1.496 . S
C653 C620 1.448 . S
C653 H630 0.930 . S
C653 C654 1.328 . S
C654 C625 1.427 . S
C654 H631 0.929 . S
C654 C653 1.328 . S
C655 O639 1.264 . S
C655 O640 1.243 . S
C656 C659 1.399 . S
C656 C660 1.383 . S
C656 C663 1.496 . S
C657 C658 1.399 . S
C657 C660 1.389 . S
C658 C657 1.399 . S
C658 C661 1.380 . S
C658 H668 0.929 . S
C659 C656 1.399 . S
C659 C661 1.392 . S
C659 H669 0.929 . S
C660 C656 1.383 . S
C660 C657 1.389 . S
C660 H670 0.931 . S
C661 C658 1.380 . S
C661 C659 1.392 . S
C661 H671 0.929 . S
C662 O642 1.266 . S
C662 O643 1.248 . S
C663 Tb599 2.802 . S
C663 O638 1.264 . S
C663 O641 1.256 . S
C663 C656 1.496 . S
H664 C647 0.929 . S
H665 C648 0.929 . S
H666 C649 0.929 . S
H667 C650 0.931 . S
H668 C658 0.929 . S
H669 C659 0.929 . S
H670 C660 0.931 . S
H671 C661 0.929 . S
Tb672 N701 2.617 . S
Tb672 N707 2.571 . S
Tb672 O716 2.464 . S
Tb672 O717 2.387 1_565 S
Tb672 O719 2.426 . S
Tb672 O720 2.308 1_565 S
Tb672 O724 2.349 1_565 S
Tb672 O727 2.394 1_565 S
Tb672 C736 2.801 . S
C673 N674 1.379 1_455 S
C673 C676 1.416 1_455 S
C673 C680 1.424 . S
N674 C673 1.379 1_655 S
N674 C677 1.334 . S
N674 Tb683 2.617 1_655 S
C675 C677 1.390 . S
C675 C678 1.339 . S
C675 H695 0.930 . S
C676 C673 1.416 1_655 S
C676 C678 1.416 . S
C676 C682 1.448 1_655 S
C677 N674 1.334 . S
C677 C675 1.390 . S
C677 H688 0.930 . S
C678 C675 1.339 . S
C678 C676 1.416 . S
C678 H699 0.930 . S
C679 C680 1.413 . S
C679 C681 1.427 . S
C679 C685 1.416 . S
C680 C673 1.424 . S
C680 C679 1.413 . S
C680 N684 1.361 . S
C681 C679 1.427 . S
C681 C682 1.328 . S
C681 H696 0.929 . S
C682 C676 1.448 1_455 S
C682 C681 1.328 . S
C682 H697 0.945 . S
Tb683 N674 2.617 1_455 S
Tb683 N684 2.572 . S
Tb683 O718 2.349 . S
Tb683 O721 2.393 1_455 S
Tb683 O722 2.465 . S
Tb683 O723 2.387 . S
Tb683 O725 2.428 1_455 S
Tb683 O726 2.308 . S
Tb683 C747 2.802 . S
N684 C680 1.361 . S
N684 Tb683 2.572 . S
N684 C686 1.340 . S
C685 C679 1.416 . S
C685 C687 1.332 . S
C685 H693 0.931 . S
C686 N684 1.340 . S
C686 C687 1.407 . S
C686 H692 0.930 . S
C687 C685 1.332 . S
C687 C686 1.407 . S
C687 H689 0.929 . S
H688 C677 0.930 . S
H689 C687 0.929 . S
H690 C705 0.930 1_545 S
H691 C712 0.929 . S
H692 C686 0.930 . S
H693 C685 0.931 . S
H694 C708 0.910 1_655 S
H695 C675 0.930 . S
H696 C681 0.929 . S
H697 C682 0.945 . S
H698 C703 0.930 . S
H699 C678 0.930 . S
H700 C711 0.931 . S
N701 Tb672 2.617 . S
N701 C702 1.379 . S
N701 C705 1.334 . S
C702 N701 1.379 . S
C702 C704 1.416 . S
C702 C710 1.424 . S
C703 H698 0.930 . S
C703 C705 1.390 . S
C703 C706 1.339 . S
C704 C702 1.416 . S
C704 C706 1.416 . S
C704 C737 1.448 . S
C705 H690 0.930 1_565 S
C705 N701 1.334 . S
C705 C703 1.390 . S
C706 C703 1.339 . S
C706 C704 1.416 . S
C706 H713 0.930 . S
N707 Tb672 2.571 . S
N707 C708 1.369 . S
N707 C710 1.361 . S
C708 H694 0.910 1_455 S
C708 N707 1.369 . S
C708 C712 1.399 1_455 S
C709 C710 1.413 . S
C709 C711 1.416 1_455 S
C709 C738 1.427 . S
C710 C702 1.424 . S
C710 N707 1.361 . S
C710 C709 1.413 . S
C711 H700 0.931 . S
C711 C709 1.416 1_655 S
C711 C712 1.332 . S
C712 H691 0.929 . S
C712 C708 1.399 1_655 S
C712 C711 1.332 . S
H713 C706 0.930 . S
H714 C737 0.930 . S
H715 C738 0.929 . S
O716 Tb672 2.464 . S
O716 C736 1.264 . S
O717 Tb672 2.387 1_545 S
O717 C728 1.264 . S
O718 Tb683 2.349 . S
O718 C728 1.243 . S
O719 Tb672 2.426 . S
O719 C736 1.256 . S
O720 Tb672 2.308 1_545 S
O720 C735 1.266 1_455 S
O721 Tb683 2.393 1_655 S
O721 C735 1.248 . S
O722 Tb683 2.465 . S
O722 C747 1.264 . S
O723 Tb683 2.387 . S
O723 C739 1.264 . S
O724 Tb672 2.349 1_545 S
O724 C739 1.243 . S
O725 Tb683 2.428 1_655 S
O725 C747 1.256 1_655 S
O726 Tb683 2.308 . S
O726 C746 1.266 . S
O727 Tb672 2.394 1_545 S
O727 C746 1.248 . S
C728 O717 1.264 . S
C728 O718 1.243 . S
C729 C732 1.399 . S
C729 C734 1.383 . S
C729 C736 1.496 . S
C730 C731 1.399 . S
C730 C734 1.389 . S
C731 C730 1.399 . S
C731 C733 1.380 . S
C731 H748 0.929 . S
C732 C729 1.399 . S
C732 C733 1.392 . S
C732 H749 0.929 . S
C733 C731 1.380 . S
C733 C732 1.392 . S
C733 H750 0.929 . S
C734 C729 1.383 . S
C734 C730 1.389 . S
C734 H751 0.931 . S
C735 O720 1.266 1_655 S
C735 O721 1.248 . S
C736 Tb672 2.801 . S
C736 O716 1.264 . S
C736 O719 1.256 . S
C736 C729 1.496 . S
C737 C704 1.448 . S
C737 H714 0.930 . S
C737 C738 1.328 . S
C738 C709 1.427 . S
C738 H715 0.929 . S
C738 C737 1.328 . S
C739 O723 1.264 . S
C739 O724 1.243 . S
C740 C743 1.399 1_455 S
C740 C744 1.383 . S
C740 C747 1.496 . S
C741 C742 1.399 1_455 S
C741 C744 1.389 . S
C742 C741 1.399 1_655 S
C742 C745 1.380 . S
C742 H752 0.929 . S
C743 C740 1.399 1_655 S
C743 C745 1.392 . S
C743 H753 0.929 . S
C744 C740 1.383 . S
C744 C741 1.389 . S
C744 H754 0.931 . S
C745 C742 1.380 . S
C745 C743 1.392 . S
C745 H755 0.929 . S
C746 O726 1.266 . S
C746 O727 1.248 . S
C747 Tb683 2.802 . S
C747 O722 1.264 . S
C747 O725 1.256 1_455 S
C747 C740 1.496 . S
H748 C731 0.929 . S
H749 C732 0.929 . S
H750 C733 0.929 . S
H751 C734 0.931 . S
H752 C742 0.929 . S
H753 C743 0.929 . S
H754 C744 0.931 . S
H755 C745 0.929 . S
Tb756 N785 2.617 . S
Tb756 N791 2.572 . S
Tb756 O800 2.465 . S
Tb756 O801 2.387 . S
Tb756 O803 2.428 . S
Tb756 O804 2.308 . S
Tb756 O808 2.349 . S
Tb756 O811 2.393 . S
Tb756 C820 2.802 . S
C757 N758 1.379 . S
C757 C760 1.416 . S
C757 C764 1.424 . S
N758 C757 1.379 . S
N758 C761 1.334 . S
N758 Tb767 2.617 . S
C759 C761 1.390 . S
C759 C762 1.339 . S
C759 H779 0.930 . S
C760 C757 1.416 . S
C760 C762 1.416 . S
C760 C766 1.448 . S
C761 N758 1.334 . S
C761 C759 1.390 . S
C761 H772 0.930 . S
C762 C759 1.339 . S
C762 C760 1.416 . S
C762 H783 0.930 . S
C763 C764 1.413 . S
C763 C765 1.427 . S
C763 C769 1.416 . S
C764 C757 1.424 . S
C764 C763 1.413 . S
C764 N768 1.361 . S
C765 C763 1.427 . S
C765 C766 1.328 . S
C765 H780 0.929 . S
C766 C760 1.448 . S
C766 C765 1.328 . S
C766 H781 0.930 . S
Tb767 N758 2.617 . S
Tb767 N768 2.572 . S
Tb767 O802 2.349 . S
Tb767 O805 2.393 . S
Tb767 O806 2.465 . S
Tb767 O807 2.387 . S
Tb767 O809 2.428 . S
Tb767 O810 2.308 . S
Tb767 C831 2.802 . S
N768 C764 1.361 . S
N768 Tb767 2.572 . S
N768 C770 1.340 . S
C769 C763 1.416 . S
C769 C771 1.332 . S
C769 H777 0.931 . S
C770 N768 1.340 . S
C770 C771 1.407 . S
C770 H776 0.930 . S
C771 C769 1.332 . S
C771 C770 1.407 . S
C771 H773 0.929 . S
H772 C761 0.930 . S
H773 C771 0.929 . S
H774 C789 0.930 . S
H775 C796 0.929 . S
H776 C770 0.930 . S
H777 C769 0.931 . S
H778 C792 0.930 . S
H779 C759 0.930 . S
H780 C765 0.929 . S
H781 C766 0.930 . S
H782 C787 0.930 . S
H783 C762 0.930 . S
H784 C795 0.931 . S
N785 Tb756 2.617 . S
N785 C786 1.379 . S
N785 C789 1.334 . S
C786 N785 1.379 . S
C786 C788 1.416 . S
C786 C794 1.424 . S
C787 H782 0.930 . S
C787 C789 1.390 . S
C787 C790 1.339 . S
C788 C786 1.416 . S
C788 C790 1.416 . S
C788 C821 1.448 . S
C789 H774 0.930 . S
C789 N785 1.334 . S
C789 C787 1.390 . S
C790 C787 1.339 . S
C790 C788 1.416 . S
C790 H797 0.930 . S
N791 Tb756 2.572 . S
N791 C792 1.340 . S
N791 C794 1.361 . S
C792 H778 0.930 . S
C792 N791 1.340 . S
C792 C796 1.407 . S
C793 C794 1.413 . S
C793 C795 1.416 . S
C793 C822 1.427 . S
C794 C786 1.424 . S
C794 N791 1.361 . S
C794 C793 1.413 . S
C795 H784 0.931 . S
C795 C793 1.416 . S
C795 C796 1.332 . S
C796 H775 0.929 . S
C796 C792 1.407 . S
C796 C795 1.332 . S
H797 C790 0.930 . S
H798 C821 0.930 . S
H799 C822 0.929 . S
O800 Tb756 2.465 . S
O800 C820 1.264 . S
O801 Tb756 2.387 . S
O801 C812 1.264 . S
O802 Tb767 2.349 . S
O802 C812 1.243 . S
O803 Tb756 2.428 . S
O803 C820 1.256 . S
O804 Tb756 2.308 . S
O804 C819 1.266 . S
O805 Tb767 2.393 . S
O805 C819 1.248 . S
O806 Tb767 2.465 . S
O806 C831 1.264 . S
O807 Tb767 2.387 . S
O807 C823 1.264 . S
O808 Tb756 2.349 . S
O808 C823 1.243 . S
O809 Tb767 2.428 . S
O809 C831 1.256 . S
O810 Tb767 2.308 . S
O810 C830 1.266 . S
O811 Tb756 2.393 . S
O811 C830 1.248 . S
C812 O801 1.264 . S
C812 O802 1.243 . S
C813 C816 1.399 . S
C813 C818 1.383 . S
C813 C820 1.496 . S
C814 C815 1.399 . S
C814 C818 1.389 . S
C815 C814 1.399 . S
C815 C817 1.380 . S
C815 H832 0.929 . S
C816 C813 1.399 . S
C816 C817 1.392 . S
C816 H833 0.929 . S
C817 C815 1.380 . S
C817 C816 1.392 . S
C817 H834 0.929 . S
C818 C813 1.383 . S
C818 C814 1.389 . S
C818 H835 0.931 . S
C819 O804 1.266 . S
C819 O805 1.248 . S
C820 Tb756 2.802 . S
C820 O800 1.264 . S
C820 O803 1.256 . S
C820 C813 1.496 . S
C821 C788 1.448 . S
C821 H798 0.930 . S
C821 C822 1.328 . S
C822 C793 1.427 . S
C822 H799 0.929 . S
C822 C821 1.328 . S
C823 O807 1.264 . S
C823 O808 1.243 . S
C824 C827 1.399 . S
C824 C828 1.383 . S
C824 C831 1.496 . S
C825 C826 1.399 . S
C825 C828 1.389 . S
C826 C825 1.399 . S
C826 C829 1.380 . S
C826 H836 0.929 . S
C827 C824 1.399 . S
C827 C829 1.392 . S
C827 H837 0.929 . S
C828 C824 1.383 . S
C828 C825 1.389 . S
C828 H838 0.931 . S
C829 C826 1.380 . S
C829 C827 1.392 . S
C829 H839 0.929 . S
C830 O810 1.266 . S
C830 O811 1.248 . S
C831 Tb767 2.802 . S
C831 O806 1.264 . S
C831 O809 1.256 . S
C831 C824 1.496 . S
H832 C815 0.929 . S
H833 C816 0.929 . S
H834 C817 0.929 . S
H835 C818 0.931 . S
H836 C826 0.929 . S
H837 C827 0.929 . S
H838 C828 0.931 . S
H839 C829 0.929 . S
Tb840 N869 2.621 . S
Tb840 N875 2.582 . S
Tb840 O884 2.477 . S
Tb840 O885 2.380 1_556 S
Tb840 O887 2.437 . S
Tb840 O888 2.305 1_556 S
Tb840 O892 2.344 1_556 S
Tb840 O895 2.382 1_556 S
Tb840 C904 2.814 . S
C841 N842 1.384 . S
C841 C844 1.437 . S
C841 C848 1.398 1_565 S
N842 C841 1.384 . S
N842 C845 1.334 . S
N842 Tb851 2.617 1_565 S
C843 C845 1.390 . S
C843 C846 1.339 . S
C843 H863 0.930 . S
C844 C841 1.437 . S
C844 C846 1.416 . S
C844 C850 1.448 . S
C845 N842 1.334 . S
C845 C843 1.390 . S
C845 H856 0.930 . S
C846 C843 1.339 . S
C846 C844 1.416 . S
C846 H867 0.930 . S
C847 C848 1.413 . S
C847 C849 1.427 . S
C847 C853 1.416 . S
C848 C841 1.398 1_545 S
C848 C847 1.413 . S
C848 N852 1.361 . S
C849 C847 1.427 . S
C849 C850 1.328 1_545 S
C849 H864 0.929 . S
C850 C844 1.448 . S
C850 C849 1.328 1_565 S
C850 H865 0.930 . S
Tb851 N842 2.617 1_545 S
Tb851 N852 2.572 . S
Tb851 O886 2.349 . S
Tb851 O889 2.393 1_545 S
Tb851 O890 2.465 . S
Tb851 O891 2.387 . S
Tb851 O893 2.428 1_545 S
Tb851 O894 2.308 . S
Tb851 C915 2.802 . S
N852 C848 1.361 . S
N852 Tb851 2.572 . S
N852 C854 1.340 . S
C853 C847 1.416 . S
C853 C855 1.332 . S
C853 H861 0.931 . S
C854 N852 1.340 . S
C854 C855 1.407 . S
C854 H860 0.930 . S
C855 C853 1.332 . S
C855 C854 1.407 . S
C855 H857 0.929 . S
H856 C845 0.930 . S
H857 C855 0.929 . S
H858 C873 0.930 1_554 S
H859 C880 0.962 . S
H860 C854 0.930 . S
H861 C853 0.931 . S
H862 C876 0.930 . S
H863 C843 0.930 . S
H864 C849 0.929 . S
H865 C850 0.930 . S
H866 C871 0.930 1_554 S
H867 C846 0.930 . S
H868 C879 0.931 . S
N869 Tb840 2.621 . S
N869 C870 1.379 . S
N869 C873 1.334 . S
C870 N869 1.379 . S
C870 C872 1.416 . S
C870 C878 1.424 . S
C871 H866 0.930 1_556 S
C871 C873 1.390 . S
C871 C874 1.339 . S
C872 C870 1.416 . S
C872 C874 1.416 . S
C872 C905 1.448 . S
C873 H858 0.930 1_556 S
C873 N869 1.334 . S
C873 C871 1.390 . S
C874 C871 1.339 . S
C874 C872 1.416 . S
C874 H881 0.930 . S
N875 Tb840 2.582 . S
N875 C876 1.340 . S
N875 C878 1.361 . S
C876 H862 0.930 . S
C876 N875 1.340 . S
C876 C880 1.400 1_545 S
C877 C878 1.413 . S
C877 C879 1.416 . S
C877 C906 1.427 . S
C878 C870 1.424 . S
C878 N875 1.361 . S
C878 C877 1.413 . S
C879 H868 0.931 . S
C879 C877 1.416 . S
C879 C880 1.307 1_545 S
C880 H859 0.962 . S
C880 C876 1.400 1_565 S
C880 C879 1.307 1_565 S
H881 C874 0.930 . S
H882 C905 0.930 . S
H883 C906 0.929 . S
O884 Tb840 2.477 . S
O884 C904 1.264 . S
O885 Tb840 2.380 1_554 S
O885 C896 1.264 . S
O886 Tb851 2.349 . S
O886 C896 1.243 . S
O887 Tb840 2.437 . S
O887 C904 1.256 . S
O888 Tb840 2.305 1_554 S
O888 C903 1.266 1_545 S
O889 Tb851 2.393 1_565 S
O889 C903 1.248 . S
O890 Tb851 2.465 . S
O890 C915 1.264 . S
O891 Tb851 2.387 . S
O891 C907 1.264 . S
O892 Tb840 2.344 1_554 S
O892 C907 1.243 . S
O893 Tb851 2.428 1_565 S
O893 C915 1.256 1_565 S
O894 Tb851 2.308 . S
O894 C914 1.266 . S
O895 Tb840 2.382 1_554 S
O895 C914 1.248 . S
C896 O885 1.264 . S
C896 O886 1.243 . S
C897 C900 1.399 . S
C897 C902 1.383 . S
C897 C904 1.496 . S
C898 C899 1.399 . S
C898 C902 1.389 . S
C899 C898 1.399 . S
C899 C901 1.380 . S
C899 H916 0.929 . S
C900 C897 1.399 . S
C900 C901 1.392 . S
C900 H917 0.929 . S
C901 C899 1.380 . S
C901 C900 1.392 . S
C901 H918 0.929 . S
C902 C897 1.383 . S
C902 C898 1.389 . S
C902 H919 0.931 . S
C903 O888 1.266 1_565 S
C903 O889 1.248 . S
C904 Tb840 2.814 . S
C904 O884 1.264 . S
C904 O887 1.256 . S
C904 C897 1.496 . S
C905 C872 1.448 . S
C905 H882 0.930 . S
C905 C906 1.328 . S
C906 C877 1.427 . S
C906 H883 0.929 . S
C906 C905 1.328 . S
C907 O891 1.264 . S
C907 O892 1.243 . S
C908 C911 1.399 . S
C908 C912 1.383 1_565 S
C908 C915 1.496 1_565 S
C909 C910 1.399 1_545 S
C909 C912 1.389 . S
C910 C909 1.399 1_565 S
C910 C913 1.380 . S
C910 H920 0.929 . S
C911 C908 1.399 . S
C911 C913 1.392 . S
C911 H921 0.929 . S
C912 C908 1.383 1_545 S
C912 C909 1.389 . S
C912 H922 0.931 . S
C913 C910 1.380 . S
C913 C911 1.392 . S
C913 H923 0.929 . S
C914 O894 1.266 . S
C914 O895 1.248 . S
C915 Tb851 2.802 . S
C915 O890 1.264 . S
C915 O893 1.256 1_545 S
C915 C908 1.496 1_545 S
H916 C899 0.929 . S
H917 C900 0.929 . S
H918 C901 0.929 . S
H919 C902 0.931 . S
H920 C910 0.929 . S
H921 C911 0.929 . S
H922 C912 0.931 . S
H923 C913 0.929 . S
Tb924 N953 2.617 . S
Tb924 N959 2.572 . S
Tb924 O968 2.465 . S
Tb924 O969 2.387 . S
Tb924 O971 2.428 . S
Tb924 O972 2.308 . S
Tb924 O976 2.349 . S
Tb924 O979 2.393 . S
Tb924 C988 2.802 . S
C925 N926 1.379 . S
C925 C928 1.416 . S
C925 C932 1.424 . S
N926 C925 1.379 . S
N926 C929 1.334 . S
N926 Tb935 2.617 . S
C927 C929 1.390 . S
C927 C930 1.339 . S
C927 H947 0.930 . S
C928 C925 1.416 . S
C928 C930 1.416 . S
C928 C934 1.448 . S
C929 N926 1.334 . S
C929 C927 1.390 . S
C929 H940 0.930 . S
C930 C927 1.339 . S
C930 C928 1.416 . S
C930 H951 0.930 . S
C931 C932 1.413 . S
C931 C933 1.427 . S
C931 C937 1.416 . S
C932 C925 1.424 . S
C932 C931 1.413 . S
C932 N936 1.361 . S
C933 C931 1.427 . S
C933 C934 1.328 . S
C933 H948 0.929 . S
C934 C928 1.448 . S
C934 C933 1.328 . S
C934 H949 0.930 . S
Tb935 N926 2.617 . S
Tb935 N936 2.572 . S
Tb935 O970 2.349 . S
Tb935 O973 2.393 . S
Tb935 O974 2.465 . S
Tb935 O975 2.387 . S
Tb935 O977 2.428 . S
Tb935 O978 2.308 . S
Tb935 C999 2.802 . S
N936 C932 1.361 . S
N936 Tb935 2.572 . S
N936 C938 1.340 . S
C937 C931 1.416 . S
C937 C939 1.332 . S
C937 H945 0.931 . S
C938 N936 1.340 . S
C938 C939 1.407 . S
C938 H944 0.930 . S
C939 C937 1.332 . S
C939 C938 1.407 . S
C939 H941 0.929 . S
H940 C929 0.930 . S
H941 C939 0.929 . S
H942 C957 0.930 . S
H943 C964 0.929 . S
H944 C938 0.930 . S
H945 C937 0.931 . S
H946 C960 0.930 . S
H947 C927 0.930 . S
H948 C933 0.929 . S
H949 C934 0.930 . S
H950 C955 0.930 . S
H951 C930 0.930 . S
H952 C963 0.931 . S
N953 Tb924 2.617 . S
N953 C954 1.379 . S
N953 C957 1.334 . S
C954 N953 1.379 . S
C954 C956 1.416 . S
C954 C962 1.424 . S
C955 H950 0.930 . S
C955 C957 1.390 . S
C955 C958 1.339 . S
C956 C954 1.416 . S
C956 C958 1.416 . S
C956 C989 1.448 . S
C957 H942 0.930 . S
C957 N953 1.334 . S
C957 C955 1.390 . S
C958 C955 1.339 . S
C958 C956 1.416 . S
C958 H965 0.930 . S
N959 Tb924 2.572 . S
N959 C960 1.340 . S
N959 C962 1.361 . S
C960 H946 0.930 . S
C960 N959 1.340 . S
C960 C964 1.407 . S
C961 C962 1.413 . S
C961 C963 1.416 . S
C961 C990 1.427 . S
C962 C954 1.424 . S
C962 N959 1.361 . S
C962 C961 1.413 . S
C963 H952 0.931 . S
C963 C961 1.416 . S
C963 C964 1.332 . S
C964 H943 0.929 . S
C964 C960 1.407 . S
C964 C963 1.332 . S
H965 C958 0.930 . S
H966 C989 0.930 . S
H967 C990 0.929 . S
O968 Tb924 2.465 . S
O968 C988 1.264 . S
O969 Tb924 2.387 . S
O969 C980 1.264 . S
O970 Tb935 2.349 . S
O970 C980 1.243 . S
O971 Tb924 2.428 . S
O971 C988 1.256 . S
O972 Tb924 2.308 . S
O972 C987 1.266 . S
O973 Tb935 2.393 . S
O973 C987 1.248 . S
O974 Tb935 2.465 . S
O974 C999 1.264 . S
O975 Tb935 2.387 . S
O975 C991 1.264 . S
O976 Tb924 2.349 . S
O976 C991 1.243 . S
O977 Tb935 2.428 . S
O977 C999 1.256 . S
O978 Tb935 2.308 . S
O978 C998 1.266 . S
O979 Tb924 2.393 . S
O979 C998 1.248 . S
C980 O969 1.264 . S
C980 O970 1.243 . S
C981 C984 1.399 . S
C981 C986 1.383 . S
C981 C988 1.496 . S
C982 C983 1.399 . S
C982 C986 1.389 . S
C983 C982 1.399 . S
C983 C985 1.380 . S
C983 H1000 0.929 . S
C984 C981 1.399 . S
C984 C985 1.392 . S
C984 H1001 0.929 . S
C985 C983 1.380 . S
C985 C984 1.392 . S
C985 H1002 0.929 . S
C986 C981 1.383 . S
C986 C982 1.389 . S
C986 H1003 0.931 . S
C987 O972 1.266 . S
C987 O973 1.248 . S
C988 Tb924 2.802 . S
C988 O968 1.264 . S
C988 O971 1.256 . S
C988 C981 1.496 . S
C989 C956 1.448 . S
C989 H966 0.930 . S
C989 C990 1.328 . S
C990 C961 1.427 . S
C990 H967 0.929 . S
C990 C989 1.328 . S
C991 O975 1.264 . S
C991 O976 1.243 . S
C992 C995 1.399 . S
C992 C996 1.383 . S
C992 C999 1.496 . S
C993 C994 1.399 . S
C993 C996 1.389 . S
C994 C993 1.399 . S
C994 C997 1.380 . S
C994 H1004 0.929 . S
C995 C992 1.399 . S
C995 C997 1.392 . S
C995 H1005 0.929 . S
C996 C992 1.383 . S
C996 C993 1.389 . S
C996 H1006 0.931 . S
C997 C994 1.380 . S
C997 C995 1.392 . S
C997 H1007 0.929 . S
C998 O978 1.266 . S
C998 O979 1.248 . S
C999 Tb935 2.802 . S
C999 O974 1.264 . S
C999 O977 1.256 . S
C999 C992 1.496 . S
H1000 C983 0.929 . S
H1001 C984 0.929 . S
H1002 C985 0.929 . S
H1003 C986 0.931 . S
H1004 C994 0.929 . S
H1005 C995 0.929 . S
H1006 C996 0.931 . S
H1007 C997 0.929 . S
Tb1008 N1037 2.617 1_554 S
Tb1008 N1043 2.572 1_554 S
Tb1008 O1052 2.465 . S
Tb1008 O1053 2.387 1_554 S
Tb1008 O1055 2.428 . S
Tb1008 O1056 2.308 . S
Tb1008 O1060 2.349 . S
Tb1008 O1063 2.393 . S
Tb1008 C1072 2.802 . S
C1009 N1010 1.379 . S
C1009 C1012 1.416 . S
C1009 C1016 1.424 . S
N1010 C1009 1.379 . S
N1010 C1013 1.334 . S
N1010 Tb1019 2.617 . S
C1011 C1013 1.390 . S
C1011 C1014 1.339 . S
C1011 H1031 0.930 . S
C1012 C1009 1.416 . S
C1012 C1014 1.416 . S
C1012 C1018 1.448 . S
C1013 N1010 1.334 . S
C1013 C1011 1.390 . S
C1013 H1024 0.930 . S
C1014 C1011 1.339 . S
C1014 C1012 1.416 . S
C1014 H1035 0.930 . S
C1015 C1016 1.413 . S
C1015 C1017 1.427 . S
C1015 C1021 1.416 . S
C1016 C1009 1.424 . S
C1016 C1015 1.413 . S
C1016 N1020 1.361 . S
C1017 C1015 1.427 . S
C1017 C1018 1.328 . S
C1017 H1032 0.929 . S
C1018 C1012 1.448 . S
C1018 C1017 1.328 . S
C1018 H1033 0.930 . S
Tb1019 N1010 2.617 . S
Tb1019 N1020 2.572 . S
Tb1019 O1054 2.349 1_554 S
Tb1019 O1057 2.393 . S
Tb1019 O1058 2.465 . S
Tb1019 O1059 2.387 . S
Tb1019 O1061 2.428 . S
Tb1019 O1062 2.308 . S
Tb1019 C1083 2.802 . S
N1020 C1016 1.361 . S
N1020 Tb1019 2.572 . S
N1020 C1022 1.340 . S
C1021 C1015 1.416 . S
C1021 C1023 1.332 . S
C1021 H1029 0.931 . S
C1022 N1020 1.340 . S
C1022 C1023 1.407 . S
C1022 H1028 0.930 . S
C1023 C1021 1.332 . S
C1023 C1022 1.407 . S
C1023 H1025 0.929 . S
H1024 C1013 0.930 . S
H1025 C1023 0.929 . S
H1026 C1041 0.930 1_554 S
H1027 C1048 0.929 . S
H1028 C1022 0.930 . S
H1029 C1021 0.931 . S
H1030 C1044 0.930 1_554 S
H1031 C1011 0.930 . S
H1032 C1017 0.929 . S
H1033 C1018 0.930 . S
H1034 C1039 0.930 . S
H1035 C1014 0.930 . S
H1036 C1047 0.931 . S
N1037 Tb1008 2.617 1_556 S
N1037 C1038 1.379 . S
N1037 C1041 1.334 . S
C1038 N1037 1.379 . S
C1038 C1040 1.416 . S
C1038 C1046 1.424 . S
C1039 H1034 0.930 . S
C1039 C1041 1.390 . S
C1039 C1042 1.339 . S
C1040 C1038 1.416 . S
C1040 C1042 1.416 . S
C1040 C1073 1.448 . S
C1041 H1026 0.930 1_556 S
C1041 N1037 1.334 . S
C1041 C1039 1.390 . S
C1042 C1039 1.339 . S
C1042 C1040 1.416 . S
C1042 H1049 0.930 . S
N1043 Tb1008 2.572 1_556 S
N1043 C1044 1.340 . S
N1043 C1046 1.361 . S
C1044 H1030 0.930 1_556 S
C1044 N1043 1.340 . S
C1044 C1048 1.407 . S
C1045 C1046 1.413 . S
C1045 C1047 1.416 . S
C1045 C1074 1.427 . S
C1046 C1038 1.424 . S
C1046 N1043 1.361 . S
C1046 C1045 1.413 . S
C1047 H1036 0.931 . S
C1047 C1045 1.416 . S
C1047 C1048 1.332 . S
C1048 H1027 0.929 . S
C1048 C1044 1.407 . S
C1048 C1047 1.332 . S
H1049 C1042 0.930 . S
H1050 C1073 0.930 . S
H1051 C1074 0.929 . S
O1052 Tb1008 2.465 . S
O1052 C1072 1.264 . S
O1053 Tb1008 2.387 1_556 S
O1053 C1064 1.264 . S
O1054 Tb1019 2.349 1_556 S
O1054 C1064 1.243 . S
O1055 Tb1008 2.428 . S
O1055 C1072 1.256 . S
O1056 Tb1008 2.308 . S
O1056 C1071 1.266 . S
O1057 Tb1019 2.393 . S
O1057 C1071 1.248 . S
O1058 Tb1019 2.465 . S
O1058 C1083 1.264 . S
O1059 Tb1019 2.387 . S
O1059 C1075 1.264 . S
O1060 Tb1008 2.349 . S
O1060 C1075 1.243 . S
O1061 Tb1019 2.428 . S
O1061 C1083 1.256 . S
O1062 Tb1019 2.308 . S
O1062 C1082 1.266 . S
O1063 Tb1008 2.393 . S
O1063 C1082 1.248 . S
C1064 O1053 1.264 . S
C1064 O1054 1.243 . S
C1065 C1068 1.399 . S
C1065 C1070 1.383 . S
C1065 C1072 1.496 . S
C1066 C1067 1.399 . S
C1066 C1070 1.389 . S
C1067 C1066 1.399 . S
C1067 C1069 1.380 . S
C1067 H1084 0.929 . S
C1068 C1065 1.399 . S
C1068 C1069 1.392 . S
C1068 H1085 0.929 . S
C1069 C1067 1.380 . S
C1069 C1068 1.392 . S
C1069 H1086 0.929 . S
C1070 C1065 1.383 . S
C1070 C1066 1.389 . S
C1070 H1087 0.931 . S
C1071 O1056 1.266 . S
C1071 O1057 1.248 . S
C1072 Tb1008 2.802 . S
C1072 O1052 1.264 . S
C1072 O1055 1.256 . S
C1072 C1065 1.496 . S
C1073 C1040 1.448 . S
C1073 H1050 0.930 . S
C1073 C1074 1.328 . S
C1074 C1045 1.427 . S
C1074 H1051 0.929 . S
C1074 C1073 1.328 . S
C1075 O1059 1.264 . S
C1075 O1060 1.243 . S
C1076 C1079 1.399 . S
C1076 C1080 1.383 . S
C1076 C1083 1.496 1_556 S
C1077 C1078 1.399 . S
C1077 C1080 1.389 . S
C1078 C1077 1.399 . S
C1078 C1081 1.380 . S
C1078 H1088 0.929 . S
C1079 C1076 1.399 . S
C1079 C1081 1.392 . S
C1079 H1089 0.938 . S
C1080 C1076 1.383 . S
C1080 C1077 1.389 . S
C1080 H1090 0.931 . S
C1081 C1078 1.380 . S
C1081 C1079 1.392 . S
C1081 H1091 0.929 . S
C1082 O1062 1.266 . S
C1082 O1063 1.248 . S
C1083 Tb1019 2.802 . S
C1083 O1058 1.264 . S
C1083 O1061 1.256 . S
C1083 C1076 1.496 1_554 S
H1084 C1067 0.929 . S
H1085 C1068 0.929 . S
H1086 C1069 0.929 . S
H1087 C1070 0.931 . S
H1088 C1078 0.929 . S
H1089 C1079 0.938 . S
H1090 C1080 0.931 . S
H1091 C1081 0.929 . S
Tb1092 N1121 2.617 . S
Tb1092 N1127 2.572 . S
Tb1092 O1136 2.465 . S
Tb1092 O1137 2.387 . S
Tb1092 O1139 2.428 . S
Tb1092 O1140 2.308 . S
Tb1092 O1144 2.349 . S
Tb1092 O1147 2.393 . S
Tb1092 C1156 2.802 . S
C1093 N1094 1.379 . S
C1093 C1096 1.416 . S
C1093 C1100 1.424 . S
N1094 C1093 1.379 . S
N1094 C1097 1.334 . S
N1094 Tb1103 2.617 . S
C1095 C1097 1.390 . S
C1095 C1098 1.339 . S
C1095 H1115 0.930 . S
C1096 C1093 1.416 . S
C1096 C1098 1.416 . S
C1096 C1102 1.448 . S
C1097 N1094 1.334 . S
C1097 C1095 1.390 . S
C1097 H1108 0.930 . S
C1098 C1095 1.339 . S
C1098 C1096 1.416 . S
C1098 H1119 0.930 . S
C1099 C1100 1.413 . S
C1099 C1101 1.427 . S
C1099 C1105 1.416 . S
C1100 C1093 1.424 . S
C1100 C1099 1.413 . S
C1100 N1104 1.361 . S
C1101 C1099 1.427 . S
C1101 C1102 1.328 . S
C1101 H1116 0.929 . S
C1102 C1096 1.448 . S
C1102 C1101 1.328 . S
C1102 H1117 0.930 . S
Tb1103 N1094 2.617 . S
Tb1103 N1104 2.572 . S
Tb1103 O1138 2.349 . S
Tb1103 O1141 2.393 . S
Tb1103 O1142 2.465 . S
Tb1103 O1143 2.387 . S
Tb1103 O1145 2.428 . S
Tb1103 O1146 2.308 . S
Tb1103 C1167 2.802 . S
N1104 C1100 1.361 . S
N1104 Tb1103 2.572 . S
N1104 C1106 1.340 . S
C1105 C1099 1.416 . S
C1105 C1107 1.332 . S
C1105 H1113 0.931 . S
C1106 N1104 1.340 . S
C1106 C1107 1.407 . S
C1106 H1112 0.930 . S
C1107 C1105 1.332 . S
C1107 C1106 1.407 . S
C1107 H1109 0.929 . S
H1108 C1097 0.930 . S
H1109 C1107 0.929 . S
H1110 C1125 0.930 . S
H1111 C1132 0.929 . S
H1112 C1106 0.930 . S
H1113 C1105 0.931 . S
H1114 C1128 0.930 . S
H1115 C1095 0.930 . S
H1116 C1101 0.929 . S
H1117 C1102 0.930 . S
H1118 C1123 0.930 . S
H1119 C1098 0.930 . S
H1120 C1131 0.931 . S
N1121 Tb1092 2.617 . S
N1121 C1122 1.379 . S
N1121 C1125 1.334 . S
C1122 N1121 1.379 . S
C1122 C1124 1.416 . S
C1122 C1130 1.424 . S
C1123 H1118 0.930 . S
C1123 C1125 1.390 . S
C1123 C1126 1.339 . S
C1124 C1122 1.416 . S
C1124 C1126 1.416 . S
C1124 C1157 1.448 . S
C1125 H1110 0.930 . S
C1125 N1121 1.334 . S
C1125 C1123 1.390 . S
C1126 C1123 1.339 . S
C1126 C1124 1.416 . S
C1126 H1133 0.930 . S
N1127 Tb1092 2.572 . S
N1127 C1128 1.340 . S
N1127 C1130 1.361 . S
C1128 H1114 0.930 . S
C1128 N1127 1.340 . S
C1128 C1132 1.407 . S
C1129 C1130 1.413 . S
C1129 C1131 1.416 . S
C1129 C1158 1.427 . S
C1130 C1122 1.424 . S
C1130 N1127 1.361 . S
C1130 C1129 1.413 . S
C1131 H1120 0.931 . S
C1131 C1129 1.416 . S
C1131 C1132 1.332 . S
C1132 H1111 0.929 . S
C1132 C1128 1.407 . S
C1132 C1131 1.332 . S
H1133 C1126 0.930 . S
H1134 C1157 0.930 . S
H1135 C1158 0.929 . S
O1136 Tb1092 2.465 . S
O1136 C1156 1.264 . S
O1137 Tb1092 2.387 . S
O1137 C1148 1.264 . S
O1138 Tb1103 2.349 . S
O1138 C1148 1.243 . S
O1139 Tb1092 2.428 . S
O1139 C1156 1.256 . S
O1140 Tb1092 2.308 . S
O1140 C1155 1.266 . S
O1141 Tb1103 2.393 . S
O1141 C1155 1.248 . S
O1142 Tb1103 2.465 . S
O1142 C1167 1.264 . S
O1143 Tb1103 2.387 . S
O1143 C1159 1.264 . S
O1144 Tb1092 2.349 . S
O1144 C1159 1.243 . S
O1145 Tb1103 2.428 . S
O1145 C1167 1.256 . S
O1146 Tb1103 2.308 . S
O1146 C1166 1.266 . S
O1147 Tb1092 2.393 . S
O1147 C1166 1.248 . S
C1148 O1137 1.264 . S
C1148 O1138 1.243 . S
C1149 C1152 1.399 . S
C1149 C1154 1.383 . S
C1149 C1156 1.496 . S
C1150 C1151 1.399 . S
C1150 C1154 1.389 . S
C1151 C1150 1.399 . S
C1151 C1153 1.380 . S
C1151 H1168 0.929 . S
C1152 C1149 1.399 . S
C1152 C1153 1.392 . S
C1152 H1169 0.929 . S
C1153 C1151 1.380 . S
C1153 C1152 1.392 . S
C1153 H1170 0.929 . S
C1154 C1149 1.383 . S
C1154 C1150 1.389 . S
C1154 H1171 0.931 . S
C1155 O1140 1.266 . S
C1155 O1141 1.248 . S
C1156 Tb1092 2.802 . S
C1156 O1136 1.264 . S
C1156 O1139 1.256 . S
C1156 C1149 1.496 . S
C1157 C1124 1.448 . S
C1157 H1134 0.930 . S
C1157 C1158 1.328 . S
C1158 C1129 1.427 . S
C1158 H1135 0.929 . S
C1158 C1157 1.328 . S
C1159 O1143 1.264 . S
C1159 O1144 1.243 . S
C1160 C1163 1.399 . S
C1160 C1164 1.383 . S
C1160 C1167 1.496 . S
C1161 C1162 1.399 . S
C1161 C1164 1.389 . S
C1162 C1161 1.399 . S
C1162 C1165 1.380 . S
C1162 H1172 0.929 . S
C1163 C1160 1.399 . S
C1163 C1165 1.392 . S
C1163 H1173 0.929 . S
C1164 C1160 1.383 . S
C1164 C1161 1.389 . S
C1164 H1174 0.931 . S
C1165 C1162 1.380 . S
C1165 C1163 1.392 . S
C1165 H1175 0.929 . S
C1166 O1146 1.266 . S
C1166 O1147 1.248 . S
C1167 Tb1103 2.802 . S
C1167 O1142 1.264 . S
C1167 O1145 1.256 . S
C1167 C1160 1.496 . S
H1168 C1151 0.929 . S
H1169 C1152 0.929 . S
H1170 C1153 0.929 . S
H1171 C1154 0.931 . S
H1172 C1162 0.929 . S
H1173 C1163 0.929 . S
H1174 C1164 0.931 . S
H1175 C1165 0.929 . S
Tb1176 N1205 2.616 1_455 S
Tb1176 N1211 2.572 1_455 S
Tb1176 O1220 2.465 . S
Tb1176 O1221 2.387 1_455 S
Tb1176 O1223 2.428 . S
Tb1176 O1224 2.308 . S
Tb1176 O1228 2.349 . S
Tb1176 O1231 2.393 . S
Tb1176 C1240 2.802 . S
C1177 N1178 1.379 . S
C1177 C1180 1.416 . S
C1177 C1184 1.424 . S
N1178 C1177 1.379 . S
N1178 C1181 1.334 . S
N1178 Tb1187 2.617 . S
C1179 C1181 1.390 . S
C1179 C1182 1.339 . S
C1179 H1199 0.930 . S
C1180 C1177 1.416 . S
C1180 C1182 1.416 . S
C1180 C1186 1.448 . S
C1181 N1178 1.334 . S
C1181 C1179 1.390 . S
C1181 H1192 0.930 . S
C1182 C1179 1.339 . S
C1182 C1180 1.416 . S
C1182 H1203 0.930 . S
C1183 C1184 1.413 . S
C1183 C1185 1.427 . S
C1183 C1189 1.416 . S
C1184 C1177 1.424 . S
C1184 C1183 1.413 . S
C1184 N1188 1.361 . S
C1185 C1183 1.427 . S
C1185 C1186 1.328 . S
C1185 H1200 0.929 . S
C1186 C1180 1.448 . S
C1186 C1185 1.328 . S
C1186 H1201 0.930 . S
Tb1187 N1178 2.617 . S
Tb1187 N1188 2.572 . S
Tb1187 O1222 2.349 1_455 S
Tb1187 O1225 2.393 . S
Tb1187 O1226 2.465 . S
Tb1187 O1227 2.387 . S
Tb1187 O1229 2.428 . S
Tb1187 O1230 2.308 . S
Tb1187 C1251 2.802 . S
N1188 C1184 1.361 . S
N1188 Tb1187 2.572 . S
N1188 C1190 1.340 . S
C1189 C1183 1.416 . S
C1189 C1191 1.332 . S
C1189 H1197 0.931 . S
C1190 N1188 1.340 . S
C1190 C1191 1.407 . S
C1190 H1196 0.930 . S
C1191 C1189 1.332 . S
C1191 C1190 1.407 . S
C1191 H1193 0.929 . S
H1192 C1181 0.930 . S
H1193 C1191 0.929 . S
H1194 C1209 0.930 . S
H1195 C1216 0.929 . S
H1196 C1190 0.930 . S
H1197 C1189 0.931 . S
H1198 C1212 0.930 1_455 S
H1199 C1179 0.930 . S
H1200 C1185 0.929 . S
H1201 C1186 0.930 . S
H1202 C1207 0.930 . S
H1203 C1182 0.930 . S
H1204 C1215 0.931 . S
N1205 Tb1176 2.616 1_655 S
N1205 C1206 1.380 . S
N1205 C1209 1.335 1_655 S
C1206 N1205 1.380 . S
C1206 C1208 1.416 . S
C1206 C1214 1.424 . S
C1207 H1202 0.930 . S
C1207 C1209 1.390 1_655 S
C1207 C1210 1.339 . S
C1208 C1206 1.416 . S
C1208 C1210 1.416 . S
C1208 C1241 1.448 . S
C1209 H1194 0.930 . S
C1209 N1205 1.335 1_455 S
C1209 C1207 1.390 1_455 S
C1210 C1207 1.339 . S
C1210 C1208 1.416 . S
C1210 H1217 0.930 . S
N1211 Tb1176 2.572 1_655 S
N1211 C1212 1.340 . S
N1211 C1214 1.361 . S
C1212 H1198 0.930 1_655 S
C1212 N1211 1.340 . S
C1212 C1216 1.407 . S
C1213 C1214 1.413 . S
C1213 C1215 1.416 . S
C1213 C1242 1.427 . S
C1214 C1206 1.424 . S
C1214 N1211 1.361 . S
C1214 C1213 1.413 . S
C1215 H1204 0.931 . S
C1215 C1213 1.416 . S
C1215 C1216 1.332 . S
C1216 H1195 0.929 . S
C1216 C1212 1.407 . S
C1216 C1215 1.332 . S
H1217 C1210 0.930 . S
H1218 C1241 0.930 . S
H1219 C1242 0.929 . S
O1220 Tb1176 2.465 . S
O1220 C1240 1.264 . S
O1221 Tb1176 2.387 1_655 S
O1221 C1232 1.264 . S
O1222 Tb1187 2.349 1_655 S
O1222 C1232 1.243 . S
O1223 Tb1176 2.428 . S
O1223 C1240 1.256 . S
O1224 Tb1176 2.308 . S
O1224 C1239 1.266 . S
O1225 Tb1187 2.393 . S
O1225 C1239 1.248 . S
O1226 Tb1187 2.465 . S
O1226 C1251 1.264 . S
O1227 Tb1187 2.387 . S
O1227 C1243 1.264 . S
O1228 Tb1176 2.349 . S
O1228 C1243 1.243 . S
O1229 Tb1187 2.428 . S
O1229 C1251 1.256 . S
O1230 Tb1187 2.308 . S
O1230 C1250 1.266 . S
O1231 Tb1176 2.393 . S
O1231 C1250 1.248 . S
C1232 O1221 1.264 . S
C1232 O1222 1.243 . S
C1233 C1236 1.399 . S
C1233 C1238 1.383 . S
C1233 C1240 1.496 . S
C1234 C1235 1.399 . S
C1234 C1238 1.389 . S
C1235 C1234 1.399 . S
C1235 C1237 1.380 . S
C1235 H1252 0.929 . S
C1236 C1233 1.399 . S
C1236 C1237 1.392 . S
C1236 H1253 0.929 . S
C1237 C1235 1.380 . S
C1237 C1236 1.392 . S
C1237 H1254 0.929 . S
C1238 C1233 1.383 . S
C1238 C1234 1.389 . S
C1238 H1255 0.931 . S
C1239 O1224 1.266 . S
C1239 O1225 1.248 . S
C1240 Tb1176 2.802 . S
C1240 O1220 1.264 . S
C1240 O1223 1.256 . S
C1240 C1233 1.496 . S
C1241 C1208 1.448 . S
C1241 H1218 0.930 . S
C1241 C1242 1.328 . S
C1242 C1213 1.427 . S
C1242 H1219 0.929 . S
C1242 C1241 1.328 . S
C1243 O1227 1.264 . S
C1243 O1228 1.243 . S
C1244 C1247 1.399 . S
C1244 C1248 1.383 . S
C1244 C1251 1.496 1_655 S
C1245 C1246 1.399 . S
C1245 C1248 1.389 . S
C1246 C1245 1.399 . S
C1246 C1249 1.380 . S
C1246 H1256 0.929 . S
C1247 C1244 1.399 . S
C1247 C1249 1.392 . S
C1247 H1257 0.929 . S
C1248 C1244 1.383 . S
C1248 C1245 1.389 . S
C1248 H1258 0.931 . S
C1249 C1246 1.380 . S
C1249 C1247 1.392 . S
C1249 H1259 0.929 . S
C1250 O1230 1.266 . S
C1250 O1231 1.248 . S
C1251 Tb1187 2.802 . S
C1251 O1226 1.264 . S
C1251 O1229 1.256 . S
C1251 C1244 1.496 1_455 S
H1252 C1235 0.929 . S
H1253 C1236 0.929 . S
H1254 C1237 0.929 . S
H1255 C1238 0.931 . S
H1256 C1246 0.929 . S
H1257 C1247 0.929 . S
H1258 C1248 0.931 . S
H1259 C1249 0.929 . S
Tb1260 N1289 2.617 . S
Tb1260 N1295 2.572 . S
Tb1260 O1304 2.465 . S
Tb1260 O1305 2.387 . S
Tb1260 O1307 2.428 . S
Tb1260 O1308 2.308 . S
Tb1260 O1312 2.349 . S
Tb1260 O1315 2.393 . S
Tb1260 C1324 2.802 . S
C1261 N1262 1.379 . S
C1261 C1264 1.416 . S
C1261 C1268 1.424 . S
N1262 C1261 1.379 . S
N1262 C1265 1.334 . S
N1262 Tb1271 2.617 . S
C1263 C1265 1.390 . S
C1263 C1266 1.339 . S
C1263 H1283 0.930 . S
C1264 C1261 1.416 . S
C1264 C1266 1.416 . S
C1264 C1270 1.448 . S
C1265 N1262 1.334 . S
C1265 C1263 1.390 . S
C1265 H1276 0.930 . S
C1266 C1263 1.339 . S
C1266 C1264 1.416 . S
C1266 H1287 0.930 . S
C1267 C1268 1.413 . S
C1267 C1269 1.427 . S
C1267 C1273 1.416 . S
C1268 C1261 1.424 . S
C1268 C1267 1.413 . S
C1268 N1272 1.361 . S
C1269 C1267 1.427 . S
C1269 C1270 1.328 . S
C1269 H1284 0.929 . S
C1270 C1264 1.448 . S
C1270 C1269 1.328 . S
C1270 H1285 0.930 . S
Tb1271 N1262 2.617 . S
Tb1271 N1272 2.572 . S
Tb1271 O1306 2.349 . S
Tb1271 O1309 2.393 . S
Tb1271 O1310 2.465 . S
Tb1271 O1311 2.387 . S
Tb1271 O1313 2.428 . S
Tb1271 O1314 2.308 . S
Tb1271 C1335 2.802 . S
N1272 C1268 1.361 . S
N1272 Tb1271 2.572 . S
N1272 C1274 1.340 . S
C1273 C1267 1.416 . S
C1273 C1275 1.332 . S
C1273 H1281 0.931 . S
C1274 N1272 1.340 . S
C1274 C1275 1.407 . S
C1274 H1280 0.930 . S
C1275 C1273 1.332 . S
C1275 C1274 1.407 . S
C1275 H1277 0.929 . S
H1276 C1265 0.930 . S
H1277 C1275 0.929 . S
H1278 C1293 0.930 . S
H1279 C1300 0.929 . S
H1280 C1274 0.930 . S
H1281 C1273 0.931 . S
H1282 C1296 0.930 . S
H1283 C1263 0.930 . S
H1284 C1269 0.929 . S
H1285 C1270 0.930 . S
H1286 C1291 0.930 . S
H1287 C1266 0.930 . S
H1288 C1299 0.931 . S
N1289 Tb1260 2.617 . S
N1289 C1290 1.379 . S
N1289 C1293 1.334 . S
C1290 N1289 1.379 . S
C1290 C1292 1.416 . S
C1290 C1298 1.424 . S
C1291 H1286 0.930 . S
C1291 C1293 1.390 . S
C1291 C1294 1.339 . S
C1292 C1290 1.416 . S
C1292 C1294 1.416 . S
C1292 C1325 1.448 . S
C1293 H1278 0.930 . S
C1293 N1289 1.334 . S
C1293 C1291 1.390 . S
C1294 C1291 1.339 . S
C1294 C1292 1.416 . S
C1294 H1301 0.930 . S
N1295 Tb1260 2.572 . S
N1295 C1296 1.340 . S
N1295 C1298 1.361 . S
C1296 H1282 0.930 . S
C1296 N1295 1.340 . S
C1296 C1300 1.407 . S
C1297 C1298 1.413 . S
C1297 C1299 1.416 . S
C1297 C1326 1.427 . S
C1298 C1290 1.424 . S
C1298 N1295 1.361 . S
C1298 C1297 1.413 . S
C1299 H1288 0.931 . S
C1299 C1297 1.416 . S
C1299 C1300 1.332 . S
C1300 H1279 0.929 . S
C1300 C1296 1.407 . S
C1300 C1299 1.332 . S
H1301 C1294 0.930 . S
H1302 C1325 0.930 . S
H1303 C1326 0.929 . S
O1304 Tb1260 2.465 . S
O1304 C1324 1.264 . S
O1305 Tb1260 2.387 . S
O1305 C1316 1.264 . S
O1306 Tb1271 2.349 . S
O1306 C1316 1.243 . S
O1307 Tb1260 2.428 . S
O1307 C1324 1.256 . S
O1308 Tb1260 2.308 . S
O1308 C1323 1.266 . S
O1309 Tb1271 2.393 . S
O1309 C1323 1.248 . S
O1310 Tb1271 2.465 . S
O1310 C1335 1.264 . S
O1311 Tb1271 2.387 . S
O1311 C1327 1.264 . S
O1312 Tb1260 2.349 . S
O1312 C1327 1.243 . S
O1313 Tb1271 2.428 . S
O1313 C1335 1.256 . S
O1314 Tb1271 2.308 . S
O1314 C1334 1.266 . S
O1315 Tb1260 2.393 . S
O1315 C1334 1.248 . S
C1316 O1305 1.264 . S
C1316 O1306 1.243 . S
C1317 C1320 1.399 . S
C1317 C1322 1.383 . S
C1317 C1324 1.496 . S
C1318 C1319 1.399 . S
C1318 C1322 1.389 . S
C1319 C1318 1.399 . S
C1319 C1321 1.380 . S
C1319 H1336 0.929 . S
C1320 C1317 1.399 . S
C1320 C1321 1.392 . S
C1320 H1337 0.929 . S
C1321 C1319 1.380 . S
C1321 C1320 1.392 . S
C1321 H1338 0.929 . S
C1322 C1317 1.383 . S
C1322 C1318 1.389 . S
C1322 H1339 0.931 . S
C1323 O1308 1.266 . S
C1323 O1309 1.248 . S
C1324 Tb1260 2.802 . S
C1324 O1304 1.264 . S
C1324 O1307 1.256 . S
C1324 C1317 1.496 . S
C1325 C1292 1.448 . S
C1325 H1302 0.930 . S
C1325 C1326 1.328 . S
C1326 C1297 1.427 . S
C1326 H1303 0.929 . S
C1326 C1325 1.328 . S
C1327 O1311 1.264 . S
C1327 O1312 1.243 . S
C1328 C1331 1.399 . S
C1328 C1332 1.383 . S
C1328 C1335 1.496 . S
C1329 C1330 1.399 . S
C1329 C1332 1.389 . S
C1330 C1329 1.399 . S
C1330 C1333 1.380 . S
C1330 H1340 0.929 . S
C1331 C1328 1.399 . S
C1331 C1333 1.392 . S
C1331 H1341 0.929 . S
C1332 C1328 1.383 . S
C1332 C1329 1.389 . S
C1332 H1342 0.931 . S
C1333 C1330 1.380 . S
C1333 C1331 1.392 . S
C1333 H1343 0.929 . S
C1334 O1314 1.266 . S
C1334 O1315 1.248 . S
C1335 Tb1271 2.802 . S
C1335 O1310 1.264 . S
C1335 O1313 1.256 . S
C1335 C1328 1.496 . S
H1336 C1319 0.929 . S
H1337 C1320 0.929 . S
H1338 C1321 0.929 . S
H1339 C1322 0.931 . S
H1340 C1330 0.929 . S
H1341 C1331 0.929 . S
H1342 C1332 0.931 . S
H1343 C1333 0.929 . S
Tb1344 N1373 2.617 . S
Tb1344 N1379 2.572 . S
Tb1344 O1388 2.465 . S
Tb1344 O1389 2.387 . S
Tb1344 O1391 2.428 . S
Tb1344 O1392 2.308 . S
Tb1344 O1396 2.349 . S
Tb1344 O1399 2.393 . S
Tb1344 C1408 2.802 . S
C1345 N1346 1.379 . S
C1345 C1348 1.416 . S
C1345 C1352 1.424 . S
N1346 C1345 1.379 . S
N1346 C1349 1.334 . S
N1346 Tb1355 2.617 . S
C1347 C1349 1.390 . S
C1347 C1350 1.339 . S
C1347 H1367 0.930 . S
C1348 C1345 1.416 . S
C1348 C1350 1.416 . S
C1348 C1354 1.448 . S
C1349 N1346 1.334 . S
C1349 C1347 1.390 . S
C1349 H1360 0.930 . S
C1350 C1347 1.339 . S
C1350 C1348 1.416 . S
C1350 H1371 0.930 . S
C1351 C1352 1.413 . S
C1351 C1353 1.427 . S
C1351 C1357 1.416 . S
C1352 C1345 1.424 . S
C1352 C1351 1.413 . S
C1352 N1356 1.361 . S
C1353 C1351 1.427 . S
C1353 C1354 1.328 . S
C1353 H1368 0.929 . S
C1354 C1348 1.448 . S
C1354 C1353 1.328 . S
C1354 H1369 0.930 . S
Tb1355 N1346 2.617 . S
Tb1355 N1356 2.572 . S
Tb1355 O1390 2.349 . S
Tb1355 O1393 2.393 . S
Tb1355 O1394 2.465 . S
Tb1355 O1395 2.387 . S
Tb1355 O1397 2.428 . S
Tb1355 O1398 2.308 . S
Tb1355 C1419 2.802 . S
N1356 C1352 1.361 . S
N1356 Tb1355 2.572 . S
N1356 C1358 1.340 . S
C1357 C1351 1.416 . S
C1357 C1359 1.332 . S
C1357 H1365 0.931 . S
C1358 N1356 1.340 . S
C1358 C1359 1.407 . S
C1358 H1364 0.930 . S
C1359 C1357 1.332 . S
C1359 C1358 1.407 . S
C1359 H1361 0.929 . S
H1360 C1349 0.930 . S
H1361 C1359 0.929 . S
H1362 C1377 0.930 . S
H1363 C1384 0.929 . S
H1364 C1358 0.930 . S
H1365 C1357 0.931 . S
H1366 C1380 0.930 . S
H1367 C1347 0.930 . S
H1368 C1353 0.929 . S
H1369 C1354 0.930 . S
H1370 C1375 0.930 . S
H1371 C1350 0.930 . S
H1372 C1383 0.931 . S
N1373 Tb1344 2.617 . S
N1373 C1374 1.379 . S
N1373 C1377 1.334 . S
C1374 N1373 1.379 . S
C1374 C1376 1.416 . S
C1374 C1382 1.424 . S
C1375 H1370 0.930 . S
C1375 C1377 1.390 . S
C1375 C1378 1.339 . S
C1376 C1374 1.416 . S
C1376 C1378 1.416 . S
C1376 C1409 1.448 . S
C1377 H1362 0.930 . S
C1377 N1373 1.334 . S
C1377 C1375 1.390 . S
C1378 C1375 1.339 . S
C1378 C1376 1.416 . S
C1378 H1385 0.930 . S
N1379 Tb1344 2.572 . S
N1379 C1380 1.340 . S
N1379 C1382 1.361 . S
C1380 H1366 0.930 . S
C1380 N1379 1.340 . S
C1380 C1384 1.407 . S
C1381 C1382 1.413 . S
C1381 C1383 1.416 . S
C1381 C1410 1.427 . S
C1382 C1374 1.424 . S
C1382 N1379 1.361 . S
C1382 C1381 1.413 . S
C1383 H1372 0.931 . S
C1383 C1381 1.416 . S
C1383 C1384 1.332 . S
C1384 H1363 0.929 . S
C1384 C1380 1.407 . S
C1384 C1383 1.332 . S
H1385 C1378 0.930 . S
H1386 C1409 0.930 . S
H1387 C1410 0.929 . S
O1388 Tb1344 2.465 . S
O1388 C1408 1.264 . S
O1389 Tb1344 2.387 . S
O1389 C1400 1.264 . S
O1390 Tb1355 2.349 . S
O1390 C1400 1.243 . S
O1391 Tb1344 2.428 . S
O1391 C1408 1.256 . S
O1392 Tb1344 2.308 . S
O1392 C1407 1.266 . S
O1393 Tb1355 2.393 . S
O1393 C1407 1.248 . S
O1394 Tb1355 2.465 . S
O1394 C1419 1.264 . S
O1395 Tb1355 2.387 . S
O1395 C1411 1.264 . S
O1396 Tb1344 2.349 . S
O1396 C1411 1.243 . S
O1397 Tb1355 2.428 . S
O1397 C1419 1.256 . S
O1398 Tb1355 2.308 . S
O1398 C1418 1.266 . S
O1399 Tb1344 2.393 . S
O1399 C1418 1.248 . S
C1400 O1389 1.264 . S
C1400 O1390 1.243 . S
C1401 C1404 1.399 . S
C1401 C1406 1.383 . S
C1401 C1408 1.496 . S
C1402 C1403 1.399 . S
C1402 C1406 1.389 . S
C1403 C1402 1.399 . S
C1403 C1405 1.380 . S
C1403 H1420 0.929 . S
C1404 C1401 1.399 . S
C1404 C1405 1.392 . S
C1404 H1421 0.929 . S
C1405 C1403 1.380 . S
C1405 C1404 1.392 . S
C1405 H1422 0.929 . S
C1406 C1401 1.383 . S
C1406 C1402 1.389 . S
C1406 H1423 0.931 . S
C1407 O1392 1.266 . S
C1407 O1393 1.248 . S
C1408 Tb1344 2.802 . S
C1408 O1388 1.264 . S
C1408 O1391 1.256 . S
C1408 C1401 1.496 . S
C1409 C1376 1.448 . S
C1409 H1386 0.930 . S
C1409 C1410 1.328 . S
C1410 C1381 1.427 . S
C1410 H1387 0.929 . S
C1410 C1409 1.328 . S
C1411 O1395 1.264 . S
C1411 O1396 1.243 . S
C1412 C1415 1.399 . S
C1412 C1416 1.383 . S
C1412 C1419 1.496 . S
C1413 C1414 1.399 . S
C1413 C1416 1.389 . S
C1414 C1413 1.399 . S
C1414 C1417 1.380 . S
C1414 H1424 0.929 . S
C1415 C1412 1.399 . S
C1415 C1417 1.392 . S
C1415 H1425 0.929 . S
C1416 C1412 1.383 . S
C1416 C1413 1.389 . S
C1416 H1426 0.931 . S
C1417 C1414 1.380 . S
C1417 C1415 1.392 . S
C1417 H1427 0.929 . S
C1418 O1398 1.266 . S
C1418 O1399 1.248 . S
C1419 Tb1355 2.802 . S
C1419 O1394 1.264 . S
C1419 O1397 1.256 . S
C1419 C1412 1.496 . S
H1420 C1403 0.929 . S
H1421 C1404 0.929 . S
H1422 C1405 0.929 . S
H1423 C1406 0.931 . S
H1424 C1414 0.929 . S
H1425 C1415 0.929 . S
H1426 C1416 0.931 . S
H1427 C1417 0.929 . S
Tb1428 N1457 2.617 . S
Tb1428 N1463 2.572 . S
Tb1428 O1472 2.465 . S
Tb1428 O1473 2.387 . S
Tb1428 O1475 2.428 . S
Tb1428 O1476 2.308 . S
Tb1428 O1480 2.349 . S
Tb1428 O1483 2.393 . S
Tb1428 C1492 2.802 . S
C1429 N1430 1.379 . S
C1429 C1432 1.416 . S
C1429 C1436 1.424 . S
N1430 C1429 1.379 . S
N1430 C1433 1.334 . S
N1430 Tb1439 2.617 . S
C1431 C1433 1.390 . S
C1431 C1434 1.339 . S
C1431 H1451 0.930 . S
C1432 C1429 1.416 . S
C1432 C1434 1.416 . S
C1432 C1438 1.448 . S
C1433 N1430 1.334 . S
C1433 C1431 1.390 . S
C1433 H1444 0.930 . S
C1434 C1431 1.339 . S
C1434 C1432 1.416 . S
C1434 H1455 0.930 . S
C1435 C1436 1.413 . S
C1435 C1437 1.427 . S
C1435 C1441 1.416 . S
C1436 C1429 1.424 . S
C1436 C1435 1.413 . S
C1436 N1440 1.361 . S
C1437 C1435 1.427 . S
C1437 C1438 1.328 . S
C1437 H1452 0.929 . S
C1438 C1432 1.448 . S
C1438 C1437 1.328 . S
C1438 H1453 0.930 . S
Tb1439 N1430 2.617 . S
Tb1439 N1440 2.572 . S
Tb1439 O1474 2.349 . S
Tb1439 O1477 2.393 . S
Tb1439 O1478 2.465 . S
Tb1439 O1479 2.387 . S
Tb1439 O1481 2.428 . S
Tb1439 O1482 2.308 . S
Tb1439 C1503 2.802 . S
N1440 C1436 1.361 . S
N1440 Tb1439 2.572 . S
N1440 C1442 1.340 . S
C1441 C1435 1.416 . S
C1441 C1443 1.332 . S
C1441 H1449 0.931 . S
C1442 N1440 1.340 . S
C1442 C1443 1.407 . S
C1442 H1448 0.930 . S
C1443 C1441 1.332 . S
C1443 C1442 1.407 . S
C1443 H1445 0.929 . S
H1444 C1433 0.930 . S
H1445 C1443 0.929 . S
H1446 C1461 0.930 . S
H1447 C1468 0.929 . S
H1448 C1442 0.930 . S
H1449 C1441 0.931 . S
H1450 C1464 0.930 . S
H1451 C1431 0.930 . S
H1452 C1437 0.929 . S
H1453 C1438 0.930 . S
H1454 C1459 0.930 . S
H1455 C1434 0.930 . S
H1456 C1467 0.931 . S
N1457 Tb1428 2.617 . S
N1457 C1458 1.379 . S
N1457 C1461 1.334 . S
C1458 N1457 1.379 . S
C1458 C1460 1.416 . S
C1458 C1466 1.424 . S
C1459 H1454 0.930 . S
C1459 C1461 1.390 . S
C1459 C1462 1.339 . S
C1460 C1458 1.416 . S
C1460 C1462 1.416 . S
C1460 C1493 1.448 . S
C1461 H1446 0.930 . S
C1461 N1457 1.334 . S
C1461 C1459 1.390 . S
C1462 C1459 1.339 . S
C1462 C1460 1.416 . S
C1462 H1469 0.930 . S
N1463 Tb1428 2.572 . S
N1463 C1464 1.340 . S
N1463 C1466 1.361 . S
C1464 H1450 0.930 . S
C1464 N1463 1.340 . S
C1464 C1468 1.407 . S
C1465 C1466 1.413 . S
C1465 C1467 1.416 . S
C1465 C1494 1.427 . S
C1466 C1458 1.424 . S
C1466 N1463 1.361 . S
C1466 C1465 1.413 . S
C1467 H1456 0.931 . S
C1467 C1465 1.416 . S
C1467 C1468 1.332 . S
C1468 H1447 0.929 . S
C1468 C1464 1.407 . S
C1468 C1467 1.332 . S
H1469 C1462 0.930 . S
H1470 C1493 0.930 . S
H1471 C1494 0.929 . S
O1472 Tb1428 2.465 . S
O1472 C1492 1.264 . S
O1473 Tb1428 2.387 . S
O1473 C1484 1.264 . S
O1474 Tb1439 2.349 . S
O1474 C1484 1.243 . S
O1475 Tb1428 2.428 . S
O1475 C1492 1.256 . S
O1476 Tb1428 2.308 . S
O1476 C1491 1.266 . S
O1477 Tb1439 2.393 . S
O1477 C1491 1.248 . S
O1478 Tb1439 2.465 . S
O1478 C1503 1.264 . S
O1479 Tb1439 2.387 . S
O1479 C1495 1.264 . S
O1480 Tb1428 2.349 . S
O1480 C1495 1.243 . S
O1481 Tb1439 2.428 . S
O1481 C1503 1.256 . S
O1482 Tb1439 2.308 . S
O1482 C1502 1.266 . S
O1483 Tb1428 2.393 . S
O1483 C1502 1.248 . S
C1484 O1473 1.264 . S
C1484 O1474 1.243 . S
C1485 C1488 1.399 . S
C1485 C1490 1.383 . S
C1485 C1492 1.496 . S
C1486 C1487 1.399 . S
C1486 C1490 1.389 . S
C1487 C1486 1.399 . S
C1487 C1489 1.380 . S
C1487 H1504 0.929 . S
C1488 C1485 1.399 . S
C1488 C1489 1.392 . S
C1488 H1505 0.929 . S
C1489 C1487 1.380 . S
C1489 C1488 1.392 . S
C1489 H1506 0.929 . S
C1490 C1485 1.383 . S
C1490 C1486 1.389 . S
C1490 H1507 0.931 . S
C1491 O1476 1.266 . S
C1491 O1477 1.248 . S
C1492 Tb1428 2.802 . S
C1492 O1472 1.264 . S
C1492 O1475 1.256 . S
C1492 C1485 1.496 . S
C1493 C1460 1.448 . S
C1493 H1470 0.930 . S
C1493 C1494 1.328 . S
C1494 C1465 1.427 . S
C1494 H1471 0.929 . S
C1494 C1493 1.328 . S
C1495 O1479 1.264 . S
C1495 O1480 1.243 . S
C1496 C1499 1.399 . S
C1496 C1500 1.383 . S
C1496 C1503 1.496 . S
C1497 C1498 1.399 . S
C1497 C1500 1.389 . S
C1498 C1497 1.399 . S
C1498 C1501 1.380 . S
C1498 H1508 0.929 . S
C1499 C1496 1.399 . S
C1499 C1501 1.392 . S
C1499 H1509 0.929 . S
C1500 C1496 1.383 . S
C1500 C1497 1.389 . S
C1500 H1510 0.931 . S
C1501 C1498 1.380 . S
C1501 C1499 1.392 . S
C1501 H1511 0.929 . S
C1502 O1482 1.266 . S
C1502 O1483 1.248 . S
C1503 Tb1439 2.802 . S
C1503 O1478 1.264 . S
C1503 O1481 1.256 . S
C1503 C1496 1.496 . S
H1504 C1487 0.929 . S
H1505 C1488 0.929 . S
H1506 C1489 0.929 . S
H1507 C1490 0.931 . S
H1508 C1498 0.929 . S
H1509 C1499 0.929 . S
H1510 C1500 0.931 . S
H1511 C1501 0.929 . S
Tb1512 N1541 2.617 . S
Tb1512 N1547 2.572 . S
Tb1512 O1556 2.465 . S
Tb1512 O1557 2.387 . S
Tb1512 O1559 2.428 . S
Tb1512 O1560 2.308 . S
Tb1512 O1564 2.349 . S
Tb1512 O1567 2.393 . S
Tb1512 C1576 2.802 . S
C1513 N1514 1.379 . S
C1513 C1516 1.416 . S
C1513 C1520 1.424 . S
N1514 C1513 1.379 . S
N1514 C1517 1.334 . S
N1514 Tb1523 2.617 . S
C1515 C1517 1.390 . S
C1515 C1518 1.339 . S
C1515 H1535 0.930 . S
C1516 C1513 1.416 . S
C1516 C1518 1.416 . S
C1516 C1522 1.448 . S
C1517 N1514 1.334 . S
C1517 C1515 1.390 . S
C1517 H1528 0.930 . S
C1518 C1515 1.339 . S
C1518 C1516 1.416 . S
C1518 H1539 0.930 . S
C1519 C1520 1.413 . S
C1519 C1521 1.427 . S
C1519 C1525 1.416 . S
C1520 C1513 1.424 . S
C1520 C1519 1.413 . S
C1520 N1524 1.361 . S
C1521 C1519 1.427 . S
C1521 C1522 1.328 . S
C1521 H1536 0.929 . S
C1522 C1516 1.448 . S
C1522 C1521 1.328 . S
C1522 H1537 0.930 . S
Tb1523 N1514 2.617 . S
Tb1523 N1524 2.572 . S
Tb1523 O1558 2.349 . S
Tb1523 O1561 2.393 . S
Tb1523 O1562 2.465 . S
Tb1523 O1563 2.387 . S
Tb1523 O1565 2.428 . S
Tb1523 O1566 2.308 . S
Tb1523 C1587 2.802 . S
N1524 C1520 1.361 . S
N1524 Tb1523 2.572 . S
N1524 C1526 1.340 . S
C1525 C1519 1.416 . S
C1525 C1527 1.332 . S
C1525 H1533 0.931 . S
C1526 N1524 1.340 . S
C1526 C1527 1.407 . S
C1526 H1532 0.930 . S
C1527 C1525 1.332 . S
C1527 C1526 1.407 . S
C1527 H1529 0.929 . S
H1528 C1517 0.930 . S
H1529 C1527 0.929 . S
H1530 C1545 0.930 . S
H1531 C1552 0.929 . S
H1532 C1526 0.930 . S
H1533 C1525 0.931 . S
H1534 C1548 0.930 . S
H1535 C1515 0.930 . S
H1536 C1521 0.929 . S
H1537 C1522 0.930 . S
H1538 C1543 0.930 . S
H1539 C1518 0.930 . S
H1540 C1551 0.931 . S
N1541 Tb1512 2.617 . S
N1541 C1542 1.379 . S
N1541 C1545 1.334 . S
C1542 N1541 1.379 . S
C1542 C1544 1.416 . S
C1542 C1550 1.424 . S
C1543 H1538 0.930 . S
C1543 C1545 1.390 . S
C1543 C1546 1.339 . S
C1544 C1542 1.416 . S
C1544 C1546 1.416 . S
C1544 C1577 1.448 . S
C1545 H1530 0.930 . S
C1545 N1541 1.334 . S
C1545 C1543 1.390 . S
C1546 C1543 1.339 . S
C1546 C1544 1.416 . S
C1546 H1553 0.930 . S
N1547 Tb1512 2.572 . S
N1547 C1548 1.340 . S
N1547 C1550 1.361 . S
C1548 H1534 0.930 . S
C1548 N1547 1.340 . S
C1548 C1552 1.407 . S
C1549 C1550 1.413 . S
C1549 C1551 1.416 . S
C1549 C1578 1.427 . S
C1550 C1542 1.424 . S
C1550 N1547 1.361 . S
C1550 C1549 1.413 . S
C1551 H1540 0.931 . S
C1551 C1549 1.416 . S
C1551 C1552 1.332 . S
C1552 H1531 0.929 . S
C1552 C1548 1.407 . S
C1552 C1551 1.332 . S
H1553 C1546 0.930 . S
H1554 C1577 0.930 . S
H1555 C1578 0.929 . S
O1556 Tb1512 2.465 . S
O1556 C1576 1.264 . S
O1557 Tb1512 2.387 . S
O1557 C1568 1.264 . S
O1558 Tb1523 2.349 . S
O1558 C1568 1.243 . S
O1559 Tb1512 2.428 . S
O1559 C1576 1.256 . S
O1560 Tb1512 2.308 . S
O1560 C1575 1.266 . S
O1561 Tb1523 2.393 . S
O1561 C1575 1.248 . S
O1562 Tb1523 2.465 . S
O1562 C1587 1.264 . S
O1563 Tb1523 2.387 . S
O1563 C1579 1.264 . S
O1564 Tb1512 2.349 . S
O1564 C1579 1.243 . S
O1565 Tb1523 2.428 . S
O1565 C1587 1.256 . S
O1566 Tb1523 2.308 . S
O1566 C1586 1.266 . S
O1567 Tb1512 2.393 . S
O1567 C1586 1.248 . S
C1568 O1557 1.264 . S
C1568 O1558 1.243 . S
C1569 C1572 1.399 . S
C1569 C1574 1.383 . S
C1569 C1576 1.496 . S
C1570 C1571 1.399 . S
C1570 C1574 1.389 . S
C1571 C1570 1.399 . S
C1571 C1573 1.380 . S
C1571 H1588 0.929 . S
C1572 C1569 1.399 . S
C1572 C1573 1.392 . S
C1572 H1589 0.929 . S
C1573 C1571 1.380 . S
C1573 C1572 1.392 . S
C1573 H1590 0.929 . S
C1574 C1569 1.383 . S
C1574 C1570 1.389 . S
C1574 H1591 0.931 . S
C1575 O1560 1.266 . S
C1575 O1561 1.248 . S
C1576 Tb1512 2.802 . S
C1576 O1556 1.264 . S
C1576 O1559 1.256 . S
C1576 C1569 1.496 . S
C1577 C1544 1.448 . S
C1577 H1554 0.930 . S
C1577 C1578 1.328 . S
C1578 C1549 1.427 . S
C1578 H1555 0.929 . S
C1578 C1577 1.328 . S
C1579 O1563 1.264 . S
C1579 O1564 1.243 . S
C1580 C1583 1.399 . S
C1580 C1584 1.383 . S
C1580 C1587 1.496 . S
C1581 C1582 1.399 . S
C1581 C1584 1.389 . S
C1582 C1581 1.399 . S
C1582 C1585 1.380 . S
C1582 H1592 0.929 . S
C1583 C1580 1.399 . S
C1583 C1585 1.392 . S
C1583 H1593 0.929 . S
C1584 C1580 1.383 . S
C1584 C1581 1.389 . S
C1584 H1594 0.931 . S
C1585 C1582 1.380 . S
C1585 C1583 1.392 . S
C1585 H1595 0.929 . S
C1586 O1566 1.266 . S
C1586 O1567 1.248 . S
C1587 Tb1523 2.802 . S
C1587 O1562 1.264 . S
C1587 O1565 1.256 . S
C1587 C1580 1.496 . S
H1588 C1571 0.929 . S
H1589 C1572 0.929 . S
H1590 C1573 0.929 . S
H1591 C1574 0.931 . S
H1592 C1582 0.929 . S
H1593 C1583 0.929 . S
H1594 C1584 0.931 . S
H1595 C1585 0.929 . S
Tb1596 N1625 2.617 1_455 S
Tb1596 N1631 2.572 1_455 S
Tb1596 O1640 2.465 1_455 S
Tb1596 O1641 2.387 . S
Tb1596 O1643 2.428 1_455 S
Tb1596 O1644 2.308 . S
Tb1596 O1648 2.349 . S
Tb1596 O1651 2.393 . S
Tb1596 C1660 2.802 1_455 S
C1597 N1598 1.379 . S
C1597 C1600 1.416 . S
C1597 C1604 1.424 1_556 S
N1598 C1597 1.379 . S
N1598 C1601 1.334 . S
N1598 Tb1607 2.617 1_556 S
C1599 C1601 1.390 . S
C1599 C1602 1.339 . S
C1599 H1619 0.930 . S
C1600 C1597 1.416 . S
C1600 C1602 1.416 . S
C1600 C1606 1.448 . S
C1601 N1598 1.334 . S
C1601 C1599 1.390 . S
C1601 H1612 0.930 . S
C1602 C1599 1.339 . S
C1602 C1600 1.416 . S
C1602 H1623 0.930 . S
C1603 C1604 1.413 . S
C1603 C1605 1.427 1_554 S
C1603 C1609 1.416 . S
C1604 C1597 1.424 1_554 S
C1604 C1603 1.413 . S
C1604 N1608 1.361 . S
C1605 C1603 1.427 1_556 S
C1605 C1606 1.328 . S
C1605 H1620 0.929 1_556 S
C1606 C1600 1.448 . S
C1606 C1605 1.328 . S
C1606 H1621 0.930 . S
Tb1607 N1598 2.617 1_554 S
Tb1607 N1608 2.572 . S
Tb1607 O1642 2.349 . S
Tb1607 O1645 2.393 1_554 S
Tb1607 O1646 2.465 . S
Tb1607 O1647 2.387 . S
Tb1607 O1649 2.428 1_554 S
Tb1607 O1650 2.308 . S
Tb1607 C1671 2.802 . S
N1608 C1604 1.361 . S
N1608 Tb1607 2.572 . S
N1608 C1610 1.340 . S
C1609 C1603 1.416 . S
C1609 C1611 1.332 . S
C1609 H1617 0.931 . S
C1610 N1608 1.340 . S
C1610 C1611 1.407 . S
C1610 H1616 0.930 . S
C1611 C1609 1.332 . S
C1611 C1610 1.407 . S
C1611 H1613 0.929 . S
H1612 C1601 0.930 . S
H1613 C1611 0.929 . S
H1614 C1629 0.930 . S
H1615 C1636 0.929 1_556 S
H1616 C1610 0.930 . S
H1617 C1609 0.931 . S
H1618 C1632 0.930 . S
H1619 C1599 0.930 . S
H1620 C1605 0.929 1_554 S
H1621 C1606 0.930 . S
H1622 C1627 0.923 1_455 S
H1623 C1602 0.930 . S
H1624 C1635 0.931 . S
N1625 Tb1596 2.617 1_655 S
N1625 C1626 1.379 . S
N1625 C1629 1.334 1_655 S
C1626 N1625 1.379 . S
C1626 C1628 1.416 . S
C1626 C1634 1.424 . S
C1627 H1622 0.923 1_655 S
C1627 C1629 1.387 1_655 S
C1627 C1630 1.350 . S
C1628 C1626 1.416 . S
C1628 C1630 1.416 . S
C1628 C1661 1.448 . S
C1629 H1614 0.930 . S
C1629 N1625 1.334 1_455 S
C1629 C1627 1.387 1_455 S
C1630 C1627 1.350 . S
C1630 C1628 1.416 . S
C1630 H1637 0.930 . S
N1631 Tb1596 2.572 1_655 S
N1631 C1632 1.340 . S
N1631 C1634 1.361 . S
C1632 H1618 0.930 . S
C1632 N1631 1.340 . S
C1632 C1636 1.407 . S
C1633 C1634 1.413 . S
C1633 C1635 1.416 . S
C1633 C1662 1.427 . S
C1634 C1626 1.424 . S
C1634 N1631 1.361 . S
C1634 C1633 1.413 . S
C1635 H1624 0.931 . S
C1635 C1633 1.416 . S
C1635 C1636 1.332 . S
C1636 H1615 0.929 1_554 S
C1636 C1632 1.407 . S
C1636 C1635 1.332 . S
H1637 C1630 0.930 . S
H1638 C1661 0.930 . S
H1639 C1662 0.929 . S
O1640 Tb1596 2.465 1_655 S
O1640 C1660 1.264 . S
O1641 Tb1596 2.387 . S
O1641 C1652 1.264 . S
O1642 Tb1607 2.349 . S
O1642 C1652 1.243 . S
O1643 Tb1596 2.428 1_655 S
O1643 C1660 1.256 . S
O1644 Tb1596 2.308 . S
O1644 C1659 1.266 1_554 S
O1645 Tb1607 2.393 1_556 S
O1645 C1659 1.248 . S
O1646 Tb1607 2.465 . S
O1646 C1671 1.264 . S
O1647 Tb1607 2.387 . S
O1647 C1663 1.264 . S
O1648 Tb1596 2.349 . S
O1648 C1663 1.243 . S
O1649 Tb1607 2.428 1_556 S
O1649 C1671 1.256 1_556 S
O1650 Tb1607 2.308 . S
O1650 C1670 1.266 . S
O1651 Tb1596 2.393 . S
O1651 C1670 1.248 . S
C1652 O1641 1.264 . S
C1652 O1642 1.243 . S
C1653 C1656 1.399 . S
C1653 C1658 1.383 . S
C1653 C1660 1.496 . S
C1654 C1655 1.399 . S
C1654 C1658 1.389 . S
C1655 C1654 1.399 . S
C1655 C1657 1.380 . S
C1655 H1672 0.929 . S
C1656 C1653 1.399 . S
C1656 C1657 1.392 . S
C1656 H1673 0.929 . S
C1657 C1655 1.380 . S
C1657 C1656 1.392 . S
C1657 H1674 0.929 . S
C1658 C1653 1.383 . S
C1658 C1654 1.389 . S
C1658 H1675 0.931 . S
C1659 O1644 1.266 1_556 S
C1659 O1645 1.248 . S
C1660 Tb1596 2.802 1_655 S
C1660 O1640 1.264 . S
C1660 O1643 1.256 . S
C1660 C1653 1.496 . S
C1661 C1628 1.448 . S
C1661 H1638 0.930 . S
C1661 C1662 1.328 . S
C1662 C1633 1.427 . S
C1662 H1639 0.929 . S
C1662 C1661 1.328 . S
C1663 O1647 1.264 . S
C1663 O1648 1.243 . S
C1664 C1667 1.408 . S
C1664 C1668 1.377 1_556 S
C1664 C1671 1.494 1_556 S
C1665 C1666 1.399 1_554 S
C1665 C1668 1.389 . S
C1666 C1665 1.399 1_556 S
C1666 C1669 1.380 . S
C1666 H1676 0.929 . S
C1667 C1664 1.408 . S
C1667 C1669 1.392 . S
C1667 H1677 0.929 . S
C1668 C1664 1.377 1_554 S
C1668 C1665 1.389 . S
C1668 H1678 0.931 . S
C1669 C1666 1.380 . S
C1669 C1667 1.392 . S
C1669 H1679 0.929 . S
C1670 O1650 1.266 . S
C1670 O1651 1.248 . S
C1671 Tb1607 2.802 . S
C1671 O1646 1.264 . S
C1671 O1649 1.256 1_554 S
C1671 C1664 1.494 1_554 S
H1672 C1655 0.929 . S
H1673 C1656 0.929 . S
H1674 C1657 0.929 . S
H1675 C1658 0.931 . S
H1676 C1666 0.929 . S
H1677 C1667 0.929 . S
H1678 C1668 0.931 . S
H1679 C1669 0.929 . S
C1680 C1681 1.387 . S
C1680 H1684 0.950 . S
C1680 C1689 1.390 . S
C1681 C1680 1.387 . S
C1681 C1683 1.387 1_554 S
H1682 C1689 0.950 . S
C1683 C1681 1.387 1_556 S
C1683 C1685 1.390 . S
C1683 H1687 0.950 . S
H1684 C1680 0.950 . S
C1685 C1683 1.390 . S
C1685 C1686 1.387 1_556 S
C1685 H1688 0.950 . S
C1686 C1685 1.387 1_554 S
C1686 C1689 1.387 . S
H1687 C1683 0.950 . S
H1688 C1685 0.950 . S
C1689 C1680 1.390 . S
C1689 H1682 0.950 . S
C1689 C1686 1.387 . S
C1690 C1691 1.387 . S
C1690 H1694 0.950 . S
C1690 C1699 1.390 . S
C1691 C1690 1.387 . S
C1691 C1693 1.387 . S
H1692 C1699 0.950 . S
C1693 C1691 1.387 . S
C1693 C1695 1.390 . S
C1693 H1697 0.950 . S
H1694 C1690 0.950 . S
C1695 C1693 1.390 . S
C1695 C1696 1.387 . S
C1695 H1698 0.950 . S
C1696 C1695 1.387 . S
C1696 C1699 1.387 . S
H1697 C1693 0.950 . S
H1698 C1695 0.950 . S
C1699 C1690 1.390 . S
C1699 H1692 0.950 . S
C1699 C1696 1.387 . S
C1700 C1701 1.387 . S
C1700 H1704 0.950 . S
C1700 C1709 1.390 . S
C1701 C1700 1.387 . S
C1701 C1703 1.387 . S
H1702 C1709 0.950 . S
C1703 C1701 1.387 . S
C1703 C1705 1.390 . S
C1703 H1707 0.950 . S
H1704 C1700 0.950 . S
C1705 C1703 1.390 . S
C1705 C1706 1.387 . S
C1705 H1708 0.950 . S
C1706 C1705 1.387 . S
C1706 C1709 1.387 . S
H1707 C1703 0.950 . S
H1708 C1705 0.950 . S
C1709 C1700 1.390 . S
C1709 H1702 0.950 . S
C1709 C1706 1.387 . S
C1710 C1711 1.387 . S
C1710 H1714 0.950 . S
C1710 C1719 1.390 . S
C1711 C1710 1.387 . S
C1711 C1713 1.387 . S
H1712 C1719 0.950 . S
C1713 C1711 1.387 . S
C1713 C1715 1.390 . S
C1713 H1717 0.950 . S
H1714 C1710 0.950 . S
C1715 C1713 1.390 . S
C1715 C1716 1.387 . S
C1715 H1718 0.950 . S
C1716 C1715 1.387 . S
C1716 C1719 1.387 . S
H1717 C1713 0.950 . S
H1718 C1715 0.950 . S
C1719 C1710 1.390 . S
C1719 H1712 0.950 . S
C1719 C1716 1.387 . S
C1720 C1721 1.387 . S
C1720 H1724 0.950 1_455 S
C1720 C1729 1.390 . S
C1721 C1720 1.387 . S
C1721 C1723 1.387 . S
H1722 C1729 0.950 1_655 S
C1723 C1721 1.387 . S
C1723 C1725 1.390 . S
C1723 H1727 0.950 . S
H1724 C1720 0.950 1_655 S
C1725 C1723 1.390 . S
C1725 C1726 1.387 . S
C1725 H1728 0.950 . S
C1726 C1725 1.387 . S
C1726 C1729 1.387 . S
H1727 C1723 0.950 . S
H1728 C1725 0.950 . S
C1729 C1720 1.390 . S
C1729 H1722 0.950 1_455 S
C1729 C1726 1.387 . S
C1730 C1731 1.387 . S
C1730 H1734 0.950 . S
C1730 C1739 1.390 . S
C1731 C1730 1.387 . S
C1731 C1733 1.387 . S
H1732 C1739 0.950 . S
C1733 C1731 1.387 . S
C1733 C1735 1.390 . S
C1733 H1737 0.950 . S
H1734 C1730 0.950 . S
C1735 C1733 1.390 . S
C1735 C1736 1.387 . S
C1735 H1738 0.950 . S
C1736 C1735 1.387 . S
C1736 C1739 1.387 . S
H1737 C1733 0.950 . S
H1738 C1735 0.950 . S
C1739 C1730 1.390 . S
C1739 H1732 0.950 . S
C1739 C1736 1.387 . S
C1740 C1741 1.387 . S
C1740 H1744 0.950 . S
C1740 C1749 1.390 . S
C1741 C1740 1.387 . S
C1741 C1743 1.387 . S
H1742 C1749 0.950 . S
C1743 C1741 1.387 . S
C1743 C1745 1.390 . S
C1743 H1747 0.950 . S
H1744 C1740 0.950 . S
C1745 C1743 1.390 . S
C1745 C1746 1.387 . S
C1745 H1748 0.950 . S
C1746 C1745 1.387 . S
C1746 C1749 1.387 . S
H1747 C1743 0.950 . S
H1748 C1745 0.950 . S
C1749 C1740 1.390 . S
C1749 H1742 0.950 . S
C1749 C1746 1.387 . S
C1750 C1751 1.387 . S
C1750 H1754 0.950 . S
C1750 C1759 1.390 . S
C1751 C1750 1.387 . S
C1751 C1753 1.387 . S
H1752 C1759 0.950 . S
C1753 C1751 1.387 . S
C1753 C1755 1.390 . S
C1753 H1757 0.950 . S
H1754 C1750 0.950 . S
C1755 C1753 1.390 . S
C1755 C1756 1.387 . S
C1755 H1758 0.950 . S
C1756 C1755 1.387 . S
C1756 C1759 1.387 . S
H1757 C1753 0.950 . S
H1758 C1755 0.950 . S
C1759 C1750 1.390 . S
C1759 H1752 0.950 . S
C1759 C1756 1.387 . S
C1760 C1761 1.377 1_455 S
C1760 H1764 0.951 . S
C1760 C1769 1.399 . S
C1761 C1760 1.377 1_655 S
C1761 C1763 1.387 . S
H1762 C1769 0.950 . S
C1763 C1761 1.387 . S
C1763 C1765 1.390 . S
C1763 H1767 0.950 1_545 S
H1764 C1760 0.951 . S
C1765 C1763 1.390 . S
C1765 C1766 1.387 1_655 S
C1765 H1768 0.950 . S
C1766 C1765 1.387 1_455 S
C1766 C1769 1.387 . S
H1767 C1763 0.950 1_565 S
H1768 C1765 0.950 . S
C1769 C1760 1.399 . S
C1769 H1762 0.950 . S
C1769 C1766 1.387 . S
C1770 C1771 1.387 . S
C1770 H1774 0.950 . S
C1770 C1779 1.390 . S
C1771 C1770 1.387 . S
C1771 C1773 1.387 . S
H1772 C1779 0.950 . S
C1773 C1771 1.387 . S
C1773 C1775 1.390 . S
C1773 H1777 0.950 . S
H1774 C1770 0.950 . S
C1775 C1773 1.390 . S
C1775 C1776 1.387 . S
C1775 H1778 0.950 . S
C1776 C1775 1.387 . S
C1776 C1779 1.387 . S
H1777 C1773 0.950 . S
H1778 C1775 0.950 . S
C1779 C1770 1.390 . S
C1779 H1772 0.950 . S
C1779 C1776 1.387 . S
C1780 C1781 1.387 . S
C1780 H1784 0.950 . S
C1780 C1789 1.390 . S
C1781 C1780 1.387 . S
C1781 C1783 1.387 . S
H1782 C1789 0.950 . S
C1783 C1781 1.387 . S
C1783 C1785 1.390 . S
C1783 H1787 0.950 . S
H1784 C1780 0.950 . S
C1785 C1783 1.390 . S
C1785 C1786 1.387 . S
C1785 H1788 0.950 . S
C1786 C1785 1.387 . S
C1786 C1789 1.387 . S
H1787 C1783 0.950 . S
H1788 C1785 0.950 . S
C1789 C1780 1.390 . S
C1789 H1782 0.950 . S
C1789 C1786 1.387 . S
C1790 C1791 1.387 . S
C1790 H1794 0.950 . S
C1790 C1799 1.390 . S
C1791 C1790 1.387 . S
C1791 C1793 1.387 . S
H1792 C1799 0.950 . S
C1793 C1791 1.387 . S
C1793 C1795 1.390 . S
C1793 H1797 0.950 . S
H1794 C1790 0.950 . S
C1795 C1793 1.390 . S
C1795 C1796 1.387 . S
C1795 H1798 0.950 . S
C1796 C1795 1.387 . S
C1796 C1799 1.387 . S
H1797 C1793 0.950 . S
H1798 C1795 0.950 . S
C1799 C1790 1.390 . S
C1799 H1792 0.950 . S
C1799 C1796 1.387 . S
C1800 C1801 1.387 1_565 S
C1800 H1804 0.950 . S
C1800 C1809 1.378 1_665 S
C1801 C1800 1.387 1_545 S
C1801 C1803 1.387 . S
H1802 C1809 0.966 1_565 S
C1803 C1801 1.387 . S
C1803 C1805 1.386 1_655 S
C1803 H1807 0.950 . S
H1804 C1800 0.950 . S
C1805 C1803 1.386 1_455 S
C1805 C1806 1.393 . S
C1805 H1808 0.949 . S
C1806 C1805 1.393 . S
C1806 C1809 1.385 . S
H1807 C1803 0.950 . S
H1808 C1805 0.949 . S
C1809 C1800 1.378 1_445 S
C1809 H1802 0.966 1_545 S
C1809 C1806 1.385 . S
C1810 C1811 1.387 . S
C1810 H1814 0.950 . S
C1810 C1819 1.390 . S
C1811 C1810 1.387 . S
C1811 C1813 1.387 . S
H1812 C1819 0.950 . S
C1813 C1811 1.387 . S
C1813 C1815 1.390 . S
C1813 H1817 0.950 . S
H1814 C1810 0.950 . S
C1815 C1813 1.390 . S
C1815 C1816 1.387 . S
C1815 H1818 0.950 . S
C1816 C1815 1.387 . S
C1816 C1819 1.387 . S
H1817 C1813 0.950 . S
H1818 C1815 0.950 . S
C1819 C1810 1.390 . S
C1819 H1812 0.950 . S
C1819 C1816 1.387 . S
C1820 C1821 1.387 . S
C1820 H1824 0.950 . S
C1820 C1829 1.390 . S
C1821 C1820 1.387 . S
C1821 C1823 1.387 . S
H1822 C1829 0.950 . S
C1823 C1821 1.387 . S
C1823 C1825 1.390 . S
C1823 H1827 0.950 . S
H1824 C1820 0.950 . S
C1825 C1823 1.390 . S
C1825 C1826 1.387 . S
C1825 H1828 0.950 . S
C1826 C1825 1.387 . S
C1826 C1829 1.387 . S
H1827 C1823 0.950 . S
H1828 C1825 0.950 . S
C1829 C1820 1.390 . S
C1829 H1822 0.950 . S
C1829 C1826 1.387 . S
C1830 C1831 1.387 . S
C1830 H1834 0.950 . S
C1830 C1839 1.390 . S
C1831 C1830 1.387 . S
C1831 C1833 1.387 . S
H1832 C1839 0.950 . S
C1833 C1831 1.387 . S
C1833 C1835 1.390 . S
C1833 H1837 0.950 . S
H1834 C1830 0.950 . S
C1835 C1833 1.390 . S
C1835 C1836 1.387 . S
C1835 H1838 0.950 . S
C1836 C1835 1.387 . S
C1836 C1839 1.387 . S
H1837 C1833 0.950 . S
H1838 C1835 0.950 . S
C1839 C1830 1.390 . S
C1839 H1832 0.950 . S
C1839 C1836 1.387 . S
C1840 C1841 1.387 . S
C1840 H1844 0.950 . S
C1840 C1849 1.390 . S
C1841 C1840 1.387 . S
C1841 C1843 1.387 1_564 S
H1842 C1849 0.950 . S
C1843 C1841 1.387 1_546 S
C1843 C1845 1.390 1_556 S
C1843 H1847 0.950 . S
H1844 C1840 0.950 . S
C1845 C1843 1.390 1_554 S
C1845 C1846 1.387 . S
C1845 H1848 0.950 . S
C1846 C1845 1.387 . S
C1846 C1849 1.387 1_545 S
H1847 C1843 0.950 . S
H1848 C1845 0.950 . S
C1849 C1840 1.390 . S
C1849 H1842 0.950 . S
C1849 C1846 1.387 1_565 S
C1850 C1851 1.387 1_556 S
C1850 H1854 0.950 . S
C1850 C1859 1.390 . S
C1851 C1850 1.387 1_554 S
C1851 C1853 1.387 . S
H1852 C1859 0.950 . S
C1853 C1851 1.387 . S
C1853 C1855 1.390 . S
C1853 H1857 0.950 . S
H1854 C1850 0.950 . S
C1855 C1853 1.390 . S
C1855 C1856 1.387 . S
C1855 H1858 0.950 . S
C1856 C1855 1.387 . S
C1856 C1859 1.387 1_554 S
H1857 C1853 0.950 . S
H1858 C1855 0.950 . S
C1859 C1850 1.390 . S
C1859 H1852 0.950 . S
C1859 C1856 1.387 1_556 S
C1860 C1861 1.387 . S
C1860 H1864 0.950 . S
C1860 C1869 1.390 . S
C1861 C1860 1.387 . S
C1861 C1863 1.387 . S
H1862 C1869 0.950 . S
C1863 C1861 1.387 . S
C1863 C1865 1.390 . S
C1863 H1867 0.950 . S
H1864 C1860 0.950 . S
C1865 C1863 1.390 . S
C1865 C1866 1.387 . S
C1865 H1868 0.950 . S
C1866 C1865 1.387 . S
C1866 C1869 1.387 . S
H1867 C1863 0.950 . S
H1868 C1865 0.950 . S
C1869 C1860 1.390 . S
C1869 H1862 0.950 . S
C1869 C1866 1.387 . S
C1870 C1871 1.387 . S
C1870 H1874 0.950 . S
C1870 C1879 1.390 . S
C1871 C1870 1.387 . S
C1871 C1873 1.387 . S
H1872 C1879 0.950 . S
C1873 C1871 1.387 . S
C1873 C1875 1.390 . S
C1873 H1877 0.950 . S
H1874 C1870 0.950 . S
C1875 C1873 1.390 . S
C1875 C1876 1.387 . S
C1875 H1878 0.950 . S
C1876 C1875 1.387 . S
C1876 C1879 1.387 . S
H1877 C1873 0.950 . S
H1878 C1875 0.950 . S
C1879 C1870 1.390 . S
C1879 H1872 0.950 . S
C1879 C1876 1.387 . S
C1880 C1881 1.387 . S
C1880 H1884 0.950 . S
C1880 C1889 1.390 . S
C1881 C1880 1.387 . S
C1881 C1883 1.387 . S
H1882 C1889 0.950 . S
C1883 C1881 1.387 . S
C1883 C1885 1.390 . S
C1883 H1887 0.950 . S
H1884 C1880 0.950 . S
C1885 C1883 1.390 . S
C1885 C1886 1.387 . S
C1885 H1888 0.950 . S
C1886 C1885 1.387 . S
C1886 C1889 1.387 . S
H1887 C1883 0.950 . S
H1888 C1885 0.950 . S
C1889 C1880 1.390 . S
C1889 H1882 0.950 . S
C1889 C1886 1.387 . S
C1890 C1891 1.387 . S
C1890 H1894 0.950 . S
C1890 C1899 1.390 . S
C1891 C1890 1.387 . S
C1891 C1893 1.387 . S
H1892 C1899 0.950 . S
C1893 C1891 1.387 . S
C1893 C1895 1.390 . S
C1893 H1897 0.950 . S
H1894 C1890 0.950 . S
C1895 C1893 1.390 . S
C1895 C1896 1.387 . S
C1895 H1898 0.950 . S
C1896 C1895 1.387 . S
C1896 C1899 1.387 . S
H1897 C1893 0.950 . S
H1898 C1895 0.950 . S
C1899 C1890 1.390 . S
C1899 H1892 0.950 . S
C1899 C1896 1.387 . S
C1900 C1901 1.387 . S
C1900 H1904 0.950 . S
C1900 C1909 1.390 . S
C1901 C1900 1.387 . S
C1901 C1903 1.387 . S
H1902 C1909 0.950 . S
C1903 C1901 1.387 . S
C1903 C1905 1.390 . S
C1903 H1907 0.950 . S
H1904 C1900 0.950 . S
C1905 C1903 1.390 . S
C1905 C1906 1.387 . S
C1905 H1908 0.950 . S
C1906 C1905 1.387 . S
C1906 C1909 1.387 . S
H1907 C1903 0.950 . S
H1908 C1905 0.950 . S
C1909 C1900 1.390 . S
C1909 H1902 0.950 . S
C1909 C1906 1.387 . S
C1910 C1911 1.387 . S
C1910 H1914 0.950 . S
C1910 C1919 1.390 . S
C1911 C1910 1.387 . S
C1911 C1913 1.387 . S
H1912 C1919 0.950 . S
C1913 C1911 1.387 . S
C1913 C1915 1.390 . S
C1913 H1917 0.950 . S
H1914 C1910 0.950 . S
C1915 C1913 1.390 . S
C1915 C1916 1.387 . S
C1915 H1918 0.950 . S
C1916 C1915 1.387 . S
C1916 C1919 1.387 . S
H1917 C1913 0.950 . S
H1918 C1915 0.950 . S
C1919 C1910 1.390 . S
C1919 H1912 0.950 . S
C1919 C1916 1.387 . S
C1920 C1921 1.387 . S
C1920 H1924 0.950 . S
C1920 C1929 1.390 . S
C1921 C1920 1.387 . S
C1921 C1923 1.387 . S
H1922 C1929 0.950 . S
C1923 C1921 1.387 . S
C1923 C1925 1.390 . S
C1923 H1927 0.950 . S
H1924 C1920 0.950 . S
C1925 C1923 1.390 . S
C1925 C1926 1.387 . S
C1925 H1928 0.950 . S
C1926 C1925 1.387 . S
C1926 C1929 1.387 . S
H1927 C1923 0.950 . S
H1928 C1925 0.950 . S
C1929 C1920 1.390 . S
C1929 H1922 0.950 . S
C1929 C1926 1.387 . S
C1930 C1931 1.387 . S
C1930 H1934 0.950 . S
C1930 C1939 1.390 . S
C1931 C1930 1.387 . S
C1931 C1933 1.387 . S
H1932 C1939 0.950 . S
C1933 C1931 1.387 . S
C1933 C1935 1.390 . S
C1933 H1937 0.950 . S
H1934 C1930 0.950 . S
C1935 C1933 1.390 . S
C1935 C1936 1.387 . S
C1935 H1938 0.950 . S
C1936 C1935 1.387 . S
C1936 C1939 1.387 . S
H1937 C1933 0.950 . S
H1938 C1935 0.950 . S
C1939 C1930 1.390 . S
C1939 H1932 0.950 . S
C1939 C1936 1.387 . S
C1940 C1941 1.387 . S
C1940 H1944 0.950 . S
C1940 C1949 1.390 . S
C1941 C1940 1.387 . S
C1941 C1943 1.387 . S
H1942 C1949 0.950 . S
C1943 C1941 1.387 . S
C1943 C1945 1.390 . S
C1943 H1947 0.950 . S
H1944 C1940 0.950 . S
C1945 C1943 1.390 . S
C1945 C1946 1.387 . S
C1945 H1948 0.950 . S
C1946 C1945 1.387 . S
C1946 C1949 1.387 . S
H1947 C1943 0.950 . S
H1948 C1945 0.950 . S
C1949 C1940 1.390 . S
C1949 H1942 0.950 . S
C1949 C1946 1.387 . S
C1950 C1951 1.387 . S
C1950 H1954 0.950 . S
C1950 C1959 1.390 . S
C1951 C1950 1.387 . S
C1951 C1953 1.387 . S
H1952 C1959 0.950 . S
C1953 C1951 1.387 . S
C1953 C1955 1.390 . S
C1953 H1957 0.950 . S
H1954 C1950 0.950 . S
C1955 C1953 1.390 . S
C1955 C1956 1.387 . S
C1955 H1958 0.950 . S
C1956 C1955 1.387 . S
C1956 C1959 1.387 . S
H1957 C1953 0.950 . S
H1958 C1955 0.950 . S
C1959 C1950 1.390 . S
C1959 H1952 0.950 . S
C1959 C1956 1.387 . S
C1960 C1961 1.387 . S
C1960 H1964 0.950 . S
C1960 C1969 1.390 . S
C1961 C1960 1.387 . S
C1961 C1963 1.387 . S
H1962 C1969 0.950 . S
C1963 C1961 1.387 . S
C1963 C1965 1.390 . S
C1963 H1967 0.950 . S
H1964 C1960 0.950 . S
C1965 C1963 1.390 . S
C1965 C1966 1.387 . S
C1965 H1968 0.950 . S
C1966 C1965 1.387 . S
C1966 C1969 1.387 . S
H1967 C1963 0.950 . S
H1968 C1965 0.950 . S
C1969 C1960 1.390 . S
C1969 H1962 0.950 . S
C1969 C1966 1.387 . S
C1970 C1971 1.387 . S
C1970 H1974 0.950 . S
C1970 C1979 1.390 . S
C1971 C1970 1.387 . S
C1971 C1973 1.387 . S
H1972 C1979 0.950 . S
C1973 C1971 1.387 . S
C1973 C1975 1.390 . S
C1973 H1977 0.950 . S
H1974 C1970 0.950 . S
C1975 C1973 1.390 . S
C1975 C1976 1.387 . S
C1975 H1978 0.950 . S
C1976 C1975 1.387 . S
C1976 C1979 1.387 . S
H1977 C1973 0.950 . S
H1978 C1975 0.950 . S
C1979 C1970 1.390 . S
C1979 H1972 0.950 . S
C1979 C1976 1.387 . S
C1980 C1981 1.387 . S
C1980 H1984 0.950 . S
C1980 C1989 1.390 . S
C1981 C1980 1.387 . S
C1981 C1983 1.387 . S
H1982 C1989 0.950 . S
C1983 C1981 1.387 . S
C1983 C1985 1.390 . S
C1983 H1987 0.950 . S
H1984 C1980 0.950 . S
C1985 C1983 1.390 . S
C1985 C1986 1.387 . S
C1985 H1988 0.950 1_556 S
C1986 C1985 1.387 . S
C1986 C1989 1.387 . S
H1987 C1983 0.950 . S
H1988 C1985 0.950 1_554 S
C1989 C1980 1.390 . S
C1989 H1982 0.950 . S
C1989 C1986 1.387 . S
C1990 C1991 1.387 . S
C1990 H1994 0.950 . S
C1990 C1999 1.390 . S
C1991 C1990 1.387 . S
C1991 C1993 1.387 . S
H1992 C1999 0.950 . S
C1993 C1991 1.387 . S
C1993 C1995 1.390 . S
C1993 H1997 0.950 . S
H1994 C1990 0.950 . S
C1995 C1993 1.390 . S
C1995 C1996 1.387 . S
C1995 H1998 0.950 . S
C1996 C1995 1.387 . S
C1996 C1999 1.387 . S
H1997 C1993 0.950 . S
H1998 C1995 0.950 . S
C1999 C1990 1.390 . S
C1999 H1992 0.950 . S
C1999 C1996 1.387 . S
C2000 C2001 1.387 . S
C2000 H2004 0.950 . S
C2000 C2009 1.390 . S
C2001 C2000 1.387 . S
C2001 C2003 1.387 . S
H2002 C2009 0.950 . S
C2003 C2001 1.387 . S
C2003 C2005 1.390 . S
C2003 H2007 0.950 . S
H2004 C2000 0.950 . S
C2005 C2003 1.390 . S
C2005 C2006 1.387 . S
C2005 H2008 0.950 . S
C2006 C2005 1.387 . S
C2006 C2009 1.387 . S
H2007 C2003 0.950 . S
H2008 C2005 0.950 . S
C2009 C2000 1.390 . S
C2009 H2002 0.950 . S
C2009 C2006 1.387 . S
C2010 C2011 1.387 . S
C2010 H2014 0.950 . S
C2010 C2019 1.390 . S
C2011 C2010 1.387 . S
C2011 C2013 1.387 . S
H2012 C2019 0.950 . S
C2013 C2011 1.387 . S
C2013 C2015 1.390 . S
C2013 H2017 0.950 . S
H2014 C2010 0.950 . S
C2015 C2013 1.390 . S
C2015 C2016 1.387 . S
C2015 H2018 0.950 . S
C2016 C2015 1.387 . S
C2016 C2019 1.387 . S
H2017 C2013 0.950 . S
H2018 C2015 0.950 . S
C2019 C2010 1.390 . S
C2019 H2012 0.950 . S
C2019 C2016 1.387 . S
C2020 C2021 1.387 . S
C2020 H2024 0.950 . S
C2020 C2029 1.390 . S
C2021 C2020 1.387 . S
C2021 C2023 1.387 1_545 S
H2022 C2029 0.950 . S
C2023 C2021 1.387 1_565 S
C2023 C2025 1.390 1_565 S
C2023 H2027 0.950 . S
H2024 C2020 0.950 . S
C2025 C2023 1.390 1_545 S
C2025 C2026 1.387 . S
C2025 H2028 0.950 1_545 S
C2026 C2025 1.387 . S
C2026 C2029 1.387 . S
H2027 C2023 0.950 . S
H2028 C2025 0.950 1_565 S
C2029 C2020 1.390 . S
C2029 H2022 0.950 . S
C2029 C2026 1.387 . S
C2030 C2031 1.387 . S
C2030 H2034 0.950 . S
C2030 C2039 1.390 . S
C2031 C2030 1.387 . S
C2031 C2033 1.387 . S
H2032 C2039 0.950 . S
C2033 C2031 1.387 . S
C2033 C2035 1.390 . S
C2033 H2037 0.950 . S
H2034 C2030 0.950 . S
C2035 C2033 1.390 . S
C2035 C2036 1.387 . S
C2035 H2038 0.950 . S
C2036 C2035 1.387 . S
C2036 C2039 1.387 . S
H2037 C2033 0.950 . S
H2038 C2035 0.950 . S
C2039 C2030 1.390 . S
C2039 H2032 0.950 . S
C2039 C2036 1.387 . S
C2040 C2041 1.387 . S
C2040 H2044 0.950 . S
C2040 C2049 1.390 . S
C2041 C2040 1.387 . S
C2041 C2043 1.387 . S
H2042 C2049 0.950 . S
C2043 C2041 1.387 . S
C2043 C2045 1.390 . S
C2043 H2047 0.950 . S
H2044 C2040 0.950 . S
C2045 C2043 1.390 . S
C2045 C2046 1.387 . S
C2045 H2048 0.950 . S
C2046 C2045 1.387 . S
C2046 C2049 1.387 . S
H2047 C2043 0.950 . S
H2048 C2045 0.950 . S
C2049 C2040 1.390 . S
C2049 H2042 0.950 . S
C2049 C2046 1.387 . S
C2050 C2051 1.387 . S
C2050 H2054 0.950 . S
C2050 C2059 1.390 . S
C2051 C2050 1.387 . S
C2051 C2053 1.387 . S
H2052 C2059 0.950 . S
C2053 C2051 1.387 . S
C2053 C2055 1.390 . S
C2053 H2057 0.950 . S
H2054 C2050 0.950 . S
C2055 C2053 1.390 . S
C2055 C2056 1.387 . S
C2055 H2058 0.950 . S
C2056 C2055 1.387 . S
C2056 C2059 1.387 . S
H2057 C2053 0.950 . S
H2058 C2055 0.950 . S
C2059 C2050 1.390 . S
C2059 H2052 0.950 . S
C2059 C2056 1.387 . S
C2060 C2061 1.387 . S
C2060 H2064 0.950 . S
C2060 C2069 1.390 . S
C2061 C2060 1.387 . S
C2061 C2063 1.387 1_545 S
H2062 C2069 0.950 . S
C2063 C2061 1.387 1_565 S
C2063 C2065 1.390 . S
C2063 H2067 0.950 . S
H2064 C2060 0.950 . S
C2065 C2063 1.390 . S
C2065 C2066 1.387 1_565 S
C2065 H2068 0.950 . S
C2066 C2065 1.387 1_545 S
C2066 C2069 1.387 . S
H2067 C2063 0.950 . S
H2068 C2065 0.950 . S
C2069 C2060 1.390 . S
C2069 H2062 0.950 . S
C2069 C2066 1.387 . S
C2070 C2071 1.387 . S
C2070 H2074 0.950 . S
C2070 C2079 1.390 . S
C2071 C2070 1.387 . S
C2071 C2073 1.387 . S
H2072 C2079 0.950 . S
C2073 C2071 1.387 . S
C2073 C2075 1.390 . S
C2073 H2077 0.950 . S
H2074 C2070 0.950 . S
C2075 C2073 1.390 . S
C2075 C2076 1.387 . S
C2075 H2078 0.950 . S
C2076 C2075 1.387 . S
C2076 C2079 1.387 . S
H2077 C2073 0.950 . S
H2078 C2075 0.950 . S
C2079 C2070 1.390 . S
C2079 H2072 0.950 . S
C2079 C2076 1.387 . S
C2080 C2081 1.387 . S
C2080 H2084 0.950 . S
C2080 C2089 1.390 . S
C2081 C2080 1.387 . S
C2081 C2083 1.387 . S
H2082 C2089 0.950 . S
C2083 C2081 1.387 . S
C2083 C2085 1.390 . S
C2083 H2087 0.950 . S
H2084 C2080 0.950 . S
C2085 C2083 1.390 . S
C2085 C2086 1.387 . S
C2085 H2088 0.950 . S
C2086 C2085 1.387 . S
C2086 C2089 1.387 . S
H2087 C2083 0.950 . S
H2088 C2085 0.950 . S
C2089 C2080 1.390 . S
C2089 H2082 0.950 . S
C2089 C2086 1.387 . S
C2090 C2091 1.387 . S
C2090 H2094 0.950 . S
C2090 C2099 1.390 . S
C2091 C2090 1.387 . S
C2091 C2093 1.387 . S
H2092 C2099 0.950 . S
C2093 C2091 1.387 . S
C2093 C2095 1.390 . S
C2093 H2097 0.950 . S
H2094 C2090 0.950 . S
C2095 C2093 1.390 . S
C2095 C2096 1.387 . S
C2095 H2098 0.950 . S
C2096 C2095 1.387 . S
C2096 C2099 1.387 . S
H2097 C2093 0.950 . S
H2098 C2095 0.950 . S
C2099 C2090 1.390 . S
C2099 H2092 0.950 . S
C2099 C2096 1.387 . S
C2100 C2101 1.387 . S
C2100 H2104 0.950 . S
C2100 C2109 1.390 . S
C2101 C2100 1.387 . S
C2101 C2103 1.387 . S
H2102 C2109 0.950 . S
C2103 C2101 1.387 . S
C2103 C2105 1.390 . S
C2103 H2107 0.950 . S
H2104 C2100 0.950 . S
C2105 C2103 1.390 . S
C2105 C2106 1.387 . S
C2105 H2108 0.950 . S
C2106 C2105 1.387 . S
C2106 C2109 1.387 . S
H2107 C2103 0.950 . S
H2108 C2105 0.950 . S
C2109 C2100 1.390 . S
C2109 H2102 0.950 . S
C2109 C2106 1.387 . S
C2110 C2111 1.387 . S
C2110 H2114 0.950 . S
C2110 C2119 1.390 . S
C2111 C2110 1.387 . S
C2111 C2113 1.387 . S
H2112 C2119 0.950 . S
C2113 C2111 1.387 . S
C2113 C2115 1.390 . S
C2113 H2117 0.950 . S
H2114 C2110 0.950 . S
C2115 C2113 1.390 . S
C2115 C2116 1.387 . S
C2115 H2118 0.950 . S
C2116 C2115 1.387 . S
C2116 C2119 1.387 . S
H2117 C2113 0.950 . S
H2118 C2115 0.950 . S
C2119 C2110 1.390 . S
C2119 H2112 0.950 . S
C2119 C2116 1.387 . S
C2120 C2121 1.387 . S
C2120 H2124 0.950 . S
C2120 C2129 1.405 . S
C2121 C2120 1.387 . S
C2121 C2123 1.387 1_545 S
H2122 C2129 0.954 . S
C2123 C2121 1.387 1_565 S
C2123 C2125 1.390 . S
C2123 H2127 0.950 . S
H2124 C2120 0.950 . S
C2125 C2123 1.390 . S
C2125 C2126 1.387 . S
C2125 H2128 0.950 . S
C2126 C2125 1.387 . S
C2126 C2129 1.369 1_565 S
H2127 C2123 0.950 . S
H2128 C2125 0.950 . S
C2129 C2120 1.405 . S
C2129 H2122 0.954 . S
C2129 C2126 1.369 1_545 S
C2130 C2131 1.387 . S
C2130 H2134 0.950 . S
C2130 C2139 1.390 . S
C2131 C2130 1.387 . S
C2131 C2133 1.387 . S
H2132 C2139 0.950 . S
C2133 C2131 1.387 . S
C2133 C2135 1.390 . S
C2133 H2137 0.950 . S
H2134 C2130 0.950 . S
C2135 C2133 1.390 . S
C2135 C2136 1.387 . S
C2135 H2138 0.950 . S
C2136 C2135 1.387 . S
C2136 C2139 1.387 . S
H2137 C2133 0.950 . S
H2138 C2135 0.950 . S
C2139 C2130 1.390 . S
C2139 H2132 0.950 . S
C2139 C2136 1.387 . S
C2140 C2141 1.387 . S
C2140 H2144 0.950 . S
C2140 C2149 1.390 . S
C2141 C2140 1.387 . S
C2141 C2143 1.387 . S
H2142 C2149 0.950 . S
C2143 C2141 1.387 . S
C2143 C2145 1.390 . S
C2143 H2147 0.950 . S
H2144 C2140 0.950 . S
C2145 C2143 1.390 . S
C2145 C2146 1.387 . S
C2145 H2148 0.950 . S
C2146 C2145 1.387 . S
C2146 C2149 1.387 . S
H2147 C2143 0.950 . S
H2148 C2145 0.950 . S
C2149 C2140 1.390 . S
C2149 H2142 0.950 . S
C2149 C2146 1.387 . S
C2150 C2151 1.387 . S
C2150 H2154 0.950 . S
C2150 C2159 1.390 . S
C2151 C2150 1.387 . S
C2151 C2153 1.387 . S
H2152 C2159 0.950 . S
C2153 C2151 1.387 . S
C2153 C2155 1.390 . S
C2153 H2157 0.950 . S
H2154 C2150 0.950 . S
C2155 C2153 1.390 . S
C2155 C2156 1.387 . S
C2155 H2158 0.950 . S
C2156 C2155 1.387 . S
C2156 C2159 1.387 . S
H2157 C2153 0.950 . S
H2158 C2155 0.950 . S
C2159 C2150 1.390 . S
C2159 H2152 0.950 . S
C2159 C2156 1.387 . S
C2160 C2161 1.387 . S
C2160 H2164 0.950 . S
C2160 C2169 1.390 . S
C2161 C2160 1.387 . S
C2161 C2163 1.387 . S
H2162 C2169 0.950 . S
C2163 C2161 1.387 . S
C2163 C2165 1.390 . S
C2163 H2167 0.950 . S
H2164 C2160 0.950 . S
C2165 C2163 1.390 . S
C2165 C2166 1.387 . S
C2165 H2168 0.950 . S
C2166 C2165 1.387 . S
C2166 C2169 1.387 . S
H2167 C2163 0.950 . S
H2168 C2165 0.950 . S
C2169 C2160 1.390 . S
C2169 H2162 0.950 . S
C2169 C2166 1.387 . S
C2170 C2171 1.387 . S
C2170 H2174 0.950 . S
C2170 C2179 1.390 . S
C2171 C2170 1.387 . S
C2171 C2173 1.387 . S
H2172 C2179 0.950 . S
C2173 C2171 1.387 . S
C2173 C2175 1.390 . S
C2173 H2177 0.950 . S
H2174 C2170 0.950 . S
C2175 C2173 1.390 . S
C2175 C2176 1.387 . S
C2175 H2178 0.950 . S
C2176 C2175 1.387 . S
C2176 C2179 1.387 . S
H2177 C2173 0.950 . S
H2178 C2175 0.950 . S
C2179 C2170 1.390 . S
C2179 H2172 0.950 . S
C2179 C2176 1.387 . S
C2180 C2181 1.387 . S
C2180 H2184 0.950 . S
C2180 C2189 1.390 . S
C2181 C2180 1.387 . S
C2181 C2183 1.387 1_455 S
H2182 C2189 0.950 . S
C2183 C2181 1.387 1_655 S
C2183 C2185 1.390 . S
C2183 H2187 0.950 . S
H2184 C2180 0.950 . S
C2185 C2183 1.390 . S
C2185 C2186 1.387 1_655 S
C2185 H2188 0.950 . S
C2186 C2185 1.387 1_455 S
C2186 C2189 1.387 . S
H2187 C2183 0.950 . S
H2188 C2185 0.950 . S
C2189 C2180 1.390 . S
C2189 H2182 0.950 . S
C2189 C2186 1.387 . S
C2190 C2191 1.387 . S
C2190 H2194 0.950 . S
C2190 C2199 1.390 . S
C2191 C2190 1.387 . S
C2191 C2193 1.387 . S
H2192 C2199 0.950 . S
C2193 C2191 1.387 . S
C2193 C2195 1.390 . S
C2193 H2197 0.950 . S
H2194 C2190 0.950 . S
C2195 C2193 1.390 . S
C2195 C2196 1.387 . S
C2195 H2198 0.950 . S
C2196 C2195 1.387 . S
C2196 C2199 1.387 . S
H2197 C2193 0.950 . S
H2198 C2195 0.950 . S
C2199 C2190 1.390 . S
C2199 H2192 0.950 . S
C2199 C2196 1.387 . S
C2200 C2201 1.387 . S
C2200 H2204 0.950 . S
C2200 C2209 1.390 . S
C2201 C2200 1.387 . S
C2201 C2203 1.387 . S
H2202 C2209 0.950 . S
C2203 C2201 1.387 . S
C2203 C2205 1.390 . S
C2203 H2207 0.950 . S
H2204 C2200 0.950 . S
C2205 C2203 1.390 . S
C2205 C2206 1.387 . S
C2205 H2208 0.950 . S
C2206 C2205 1.387 . S
C2206 C2209 1.387 . S
H2207 C2203 0.950 . S
H2208 C2205 0.950 . S
C2209 C2200 1.390 . S
C2209 H2202 0.950 . S
C2209 C2206 1.387 . S
C2210 C2211 1.387 . S
C2210 H2214 0.950 . S
C2210 C2219 1.390 . S
C2211 C2210 1.387 . S
C2211 C2213 1.387 . S
H2212 C2219 0.950 . S
C2213 C2211 1.387 . S
C2213 C2215 1.390 . S
C2213 H2217 0.950 . S
H2214 C2210 0.950 . S
C2215 C2213 1.390 . S
C2215 C2216 1.387 . S
C2215 H2218 0.950 . S
C2216 C2215 1.387 . S
C2216 C2219 1.387 . S
H2217 C2213 0.950 . S
H2218 C2215 0.950 . S
C2219 C2210 1.390 . S
C2219 H2212 0.950 . S
C2219 C2216 1.387 . S
C2220 C2221 1.387 . S
C2220 H2224 0.950 . S
C2220 C2229 1.390 . S
C2221 C2220 1.387 . S
C2221 C2223 1.387 . S
H2222 C2229 0.950 . S
C2223 C2221 1.387 . S
C2223 C2225 1.390 . S
C2223 H2227 0.950 1_455 S
H2224 C2220 0.950 . S
C2225 C2223 1.390 . S
C2225 C2226 1.387 . S
C2225 H2228 0.950 1_455 S
C2226 C2225 1.387 . S
C2226 C2229 1.387 . S
H2227 C2223 0.950 1_655 S
H2228 C2225 0.950 1_655 S
C2229 C2220 1.390 . S
C2229 H2222 0.950 . S
C2229 C2226 1.387 . S
C2230 C2231 1.387 . S
C2230 H2234 0.950 . S
C2230 C2239 1.390 . S
C2231 C2230 1.387 . S
C2231 C2233 1.387 . S
H2232 C2239 0.950 . S
C2233 C2231 1.387 . S
C2233 C2235 1.390 . S
C2233 H2237 0.950 . S
H2234 C2230 0.950 . S
C2235 C2233 1.390 . S
C2235 C2236 1.387 . S
C2235 H2238 0.950 . S
C2236 C2235 1.387 . S
C2236 C2239 1.387 . S
H2237 C2233 0.950 . S
H2238 C2235 0.950 . S
C2239 C2230 1.390 . S
C2239 H2232 0.950 . S
C2239 C2236 1.387 . S
C2240 C2241 1.387 . S
C2240 H2244 0.950 . S
C2240 C2249 1.390 . S
C2241 C2240 1.387 . S
C2241 C2243 1.387 . S
H2242 C2249 0.950 . S
C2243 C2241 1.387 . S
C2243 C2245 1.390 . S
C2243 H2247 0.950 . S
H2244 C2240 0.950 . S
C2245 C2243 1.390 . S
C2245 C2246 1.387 . S
C2245 H2248 0.950 . S
C2246 C2245 1.387 . S
C2246 C2249 1.387 . S
H2247 C2243 0.950 . S
H2248 C2245 0.950 . S
C2249 C2240 1.390 . S
C2249 H2242 0.950 . S
C2249 C2246 1.387 . S
C2250 C2251 1.387 . S
C2250 H2254 0.950 . S
C2250 C2259 1.390 1_554 S
C2251 C2250 1.387 . S
C2251 C2253 1.387 1_554 S
H2252 C2259 0.950 . S
C2253 C2251 1.387 1_556 S
C2253 C2255 1.390 . S
C2253 H2257 0.954 . S
H2254 C2250 0.950 . S
C2255 C2253 1.390 . S
C2255 C2256 1.387 . S
C2255 H2258 0.950 . S
C2256 C2255 1.387 . S
C2256 C2259 1.387 . S
H2257 C2253 0.954 . S
H2258 C2255 0.950 . S
C2259 C2250 1.390 1_556 S
C2259 H2252 0.950 . S
C2259 C2256 1.387 . S
C2260 C2261 1.387 . S
C2260 H2264 0.950 . S
C2260 C2269 1.390 . S
C2261 C2260 1.387 . S
C2261 C2263 1.387 . S
H2262 C2269 0.950 . S
C2263 C2261 1.387 . S
C2263 C2265 1.390 . S
C2263 H2267 0.950 . S
H2264 C2260 0.950 . S
C2265 C2263 1.390 . S
C2265 C2266 1.387 . S
C2265 H2268 0.950 . S
C2266 C2265 1.387 . S
C2266 C2269 1.387 . S
H2267 C2263 0.950 . S
H2268 C2265 0.950 . S
C2269 C2260 1.390 . S
C2269 H2262 0.950 . S
C2269 C2266 1.387 . S
C2270 C2271 1.387 . S
C2270 H2274 0.950 . S
C2270 C2279 1.390 . S
C2271 C2270 1.387 . S
C2271 C2273 1.387 . S
H2272 C2279 0.950 . S
C2273 C2271 1.387 . S
C2273 C2275 1.390 . S
C2273 H2277 0.950 . S
H2274 C2270 0.950 . S
C2275 C2273 1.390 . S
C2275 C2276 1.387 . S
C2275 H2278 0.950 . S
C2276 C2275 1.387 . S
C2276 C2279 1.387 . S
H2277 C2273 0.950 . S
H2278 C2275 0.950 . S
C2279 C2270 1.390 . S
C2279 H2272 0.950 . S
C2279 C2276 1.387 . S
C2280 C2281 1.387 . S
C2280 H2284 0.950 . S
C2280 C2289 1.390 . S
C2281 C2280 1.387 . S
C2281 C2283 1.387 . S
H2282 C2289 0.950 . S
C2283 C2281 1.387 . S
C2283 C2285 1.390 . S
C2283 H2287 0.950 . S
H2284 C2280 0.950 . S
C2285 C2283 1.390 . S
C2285 C2286 1.387 . S
C2285 H2288 0.950 . S
C2286 C2285 1.387 . S
C2286 C2289 1.387 . S
H2287 C2283 0.950 . S
H2288 C2285 0.950 . S
C2289 C2280 1.390 . S
C2289 H2282 0.950 . S
C2289 C2286 1.387 . S
C2290 C2291 1.387 . S
C2290 H2294 0.950 . S
C2290 C2299 1.390 . S
C2291 C2290 1.387 . S
C2291 C2293 1.387 . S
H2292 C2299 0.950 . S
C2293 C2291 1.387 . S
C2293 C2295 1.390 . S
C2293 H2297 0.950 . S
H2294 C2290 0.950 . S
C2295 C2293 1.390 . S
C2295 C2296 1.387 . S
C2295 H2298 0.950 . S
C2296 C2295 1.387 . S
C2296 C2299 1.387 . S
H2297 C2293 0.950 . S
H2298 C2295 0.950 . S
C2299 C2290 1.390 . S
C2299 H2292 0.950 . S
C2299 C2296 1.387 . S
C2300 C2301 1.387 . S
C2300 H2304 0.950 . S
C2300 C2309 1.390 . S
C2301 C2300 1.387 . S
C2301 C2303 1.387 . S
H2302 C2309 0.950 . S
C2303 C2301 1.387 . S
C2303 C2305 1.390 . S
C2303 H2307 0.950 . S
H2304 C2300 0.950 . S
C2305 C2303 1.390 . S
C2305 C2306 1.387 . S
C2305 H2308 0.950 . S
C2306 C2305 1.387 . S
C2306 C2309 1.387 . S
H2307 C2303 0.950 . S
H2308 C2305 0.950 . S
C2309 C2300 1.390 . S
C2309 H2302 0.950 . S
C2309 C2306 1.387 . S
C2310 C2311 1.387 . S
C2310 H2314 0.950 . S
C2310 C2319 1.390 . S
C2311 C2310 1.387 . S
C2311 C2313 1.387 . S
H2312 C2319 0.950 . S
C2313 C2311 1.387 . S
C2313 C2315 1.390 . S
C2313 H2317 0.950 . S
H2314 C2310 0.950 . S
C2315 C2313 1.390 . S
C2315 C2316 1.387 . S
C2315 H2318 0.950 . S
C2316 C2315 1.387 . S
C2316 C2319 1.387 . S
H2317 C2313 0.950 . S
H2318 C2315 0.950 . S
C2319 C2310 1.390 . S
C2319 H2312 0.950 . S
C2319 C2316 1.387 . S
C2320 C2321 1.387 . S
C2320 H2324 0.950 . S
C2320 C2329 1.390 . S
C2321 C2320 1.387 . S
C2321 C2323 1.387 . S
H2322 C2329 0.950 . S
C2323 C2321 1.387 . S
C2323 C2325 1.390 . S
C2323 H2327 0.950 . S
H2324 C2320 0.950 . S
C2325 C2323 1.390 . S
C2325 C2326 1.387 . S
C2325 H2328 0.950 . S
C2326 C2325 1.387 . S
C2326 C2329 1.387 . S
H2327 C2323 0.950 . S
H2328 C2325 0.950 . S
C2329 C2320 1.390 . S
C2329 H2322 0.950 . S
C2329 C2326 1.387 . S
C2330 C2331 1.387 . S
C2330 H2334 0.950 . S
C2330 C2339 1.390 . S
C2331 C2330 1.387 . S
C2331 C2333 1.387 . S
H2332 C2339 0.950 . S
C2333 C2331 1.387 . S
C2333 C2335 1.390 . S
C2333 H2337 0.950 . S
H2334 C2330 0.950 . S
C2335 C2333 1.390 . S
C2335 C2336 1.387 . S
C2335 H2338 0.950 . S
C2336 C2335 1.387 . S
C2336 C2339 1.387 . S
H2337 C2333 0.950 . S
H2338 C2335 0.950 . S
C2339 C2330 1.390 . S
C2339 H2332 0.950 . S
C2339 C2336 1.387 . S
C2340 C2341 1.387 . S
C2340 H2344 0.950 . S
C2340 C2349 1.390 . S
C2341 C2340 1.387 . S
C2341 C2343 1.387 1_565 S
H2342 C2349 0.950 . S
C2343 C2341 1.387 1_545 S
C2343 C2345 1.390 1_545 S
C2343 H2347 0.950 . S
H2344 C2340 0.950 . S
C2345 C2343 1.390 1_565 S
C2345 C2346 1.387 . S
C2345 H2348 0.950 . S
C2346 C2345 1.387 . S
C2346 C2349 1.387 . S
H2347 C2343 0.950 . S
H2348 C2345 0.950 . S
C2349 C2340 1.390 . S
C2349 H2342 0.950 . S
C2349 C2346 1.387 . S
C2350 C2351 1.387 . S
C2350 H2354 0.950 . S
C2350 C2359 1.390 . S
C2351 C2350 1.387 . S
C2351 C2353 1.387 1_554 S
H2352 C2359 0.950 . S
C2353 C2351 1.387 1_556 S
C2353 C2355 1.390 1_565 S
C2353 H2357 0.950 . S
H2354 C2350 0.950 . S
C2355 C2353 1.390 1_545 S
C2355 C2356 1.387 1_556 S
C2355 H2358 0.950 . S
C2356 C2355 1.387 1_554 S
C2356 C2359 1.387 1_545 S
H2357 C2353 0.950 . S
H2358 C2355 0.950 . S
C2359 C2350 1.390 . S
C2359 H2352 0.950 . S
C2359 C2356 1.387 1_565 S
C2360 C2361 1.387 . S
C2360 H2364 0.950 . S
C2360 C2369 1.390 . S
C2361 C2360 1.387 . S
C2361 C2363 1.387 . S
H2362 C2369 0.950 . S
C2363 C2361 1.387 . S
C2363 C2365 1.390 . S
C2363 H2367 0.950 . S
H2364 C2360 0.950 . S
C2365 C2363 1.390 . S
C2365 C2366 1.387 . S
C2365 H2368 0.950 . S
C2366 C2365 1.387 . S
C2366 C2369 1.387 . S
H2367 C2363 0.950 . S
H2368 C2365 0.950 . S
C2369 C2360 1.390 . S
C2369 H2362 0.950 . S
C2369 C2366 1.387 . S
C2370 C2371 1.387 . S
C2370 H2374 0.950 . S
C2370 C2379 1.390 . S
C2371 C2370 1.387 . S
C2371 C2373 1.387 . S
H2372 C2379 0.950 . S
C2373 C2371 1.387 . S
C2373 C2375 1.390 . S
C2373 H2377 0.950 1_554 S
H2374 C2370 0.950 . S
C2375 C2373 1.390 . S
C2375 C2376 1.387 . S
C2375 H2378 0.950 . S
C2376 C2375 1.387 . S
C2376 C2379 1.387 . S
H2377 C2373 0.950 1_556 S
H2378 C2375 0.950 . S
C2379 C2370 1.390 . S
C2379 H2372 0.950 . S
C2379 C2376 1.387 . S
C2380 C2381 1.387 . S
C2380 H2384 0.950 . S
C2380 C2389 1.390 . S
C2381 C2380 1.387 . S
C2381 C2383 1.387 . S
H2382 C2389 0.950 . S
C2383 C2381 1.387 . S
C2383 C2385 1.390 . S
C2383 H2387 0.950 . S
H2384 C2380 0.950 . S
C2385 C2383 1.390 . S
C2385 C2386 1.387 . S
C2385 H2388 0.950 . S
C2386 C2385 1.387 . S
C2386 C2389 1.387 . S
H2387 C2383 0.950 . S
H2388 C2385 0.950 . S
C2389 C2380 1.390 . S
C2389 H2382 0.950 . S
C2389 C2386 1.387 . S
C2390 C2391 1.387 . S
C2390 H2394 0.950 . S
C2390 C2399 1.390 . S
C2391 C2390 1.387 . S
C2391 C2393 1.387 . S
H2392 C2399 0.950 . S
C2393 C2391 1.387 . S
C2393 C2395 1.390 . S
C2393 H2397 0.950 . S
H2394 C2390 0.950 . S
C2395 C2393 1.390 . S
C2395 C2396 1.387 . S
C2395 H2398 0.950 . S
C2396 C2395 1.387 . S
C2396 C2399 1.387 . S
H2397 C2393 0.950 . S
H2398 C2395 0.950 . S
C2399 C2390 1.390 . S
C2399 H2392 0.950 . S
C2399 C2396 1.387 . S
C2400 C2401 1.387 . S
C2400 H2404 0.950 . S
C2400 C2409 1.390 . S
C2401 C2400 1.387 . S
C2401 C2403 1.387 . S
H2402 C2409 0.950 . S
C2403 C2401 1.387 . S
C2403 C2405 1.390 . S
C2403 H2407 0.950 . S
H2404 C2400 0.950 . S
C2405 C2403 1.390 . S
C2405 C2406 1.387 . S
C2405 H2408 0.950 . S
C2406 C2405 1.387 . S
C2406 C2409 1.387 . S
H2407 C2403 0.950 . S
H2408 C2405 0.950 . S
C2409 C2400 1.390 . S
C2409 H2402 0.950 . S
C2409 C2406 1.387 . S
C2410 C2411 1.387 . S
C2410 H2414 0.950 . S
C2410 C2419 1.390 . S
C2411 C2410 1.387 . S
C2411 C2413 1.387 . S
H2412 C2419 0.950 . S
C2413 C2411 1.387 . S
C2413 C2415 1.390 . S
C2413 H2417 0.950 . S
H2414 C2410 0.950 . S
C2415 C2413 1.390 . S
C2415 C2416 1.387 . S
C2415 H2418 0.950 . S
C2416 C2415 1.387 . S
C2416 C2419 1.387 . S
H2417 C2413 0.950 . S
H2418 C2415 0.950 . S
C2419 C2410 1.390 . S
C2419 H2412 0.950 . S
C2419 C2416 1.387 . S
C2420 C2421 1.387 . S
C2420 H2424 0.950 . S
C2420 C2429 1.390 . S
C2421 C2420 1.387 . S
C2421 C2423 1.387 . S
H2422 C2429 0.950 . S
C2423 C2421 1.387 . S
C2423 C2425 1.390 . S
C2423 H2427 0.950 . S
H2424 C2420 0.950 . S
C2425 C2423 1.390 . S
C2425 C2426 1.387 . S
C2425 H2428 0.950 . S
C2426 C2425 1.387 . S
C2426 C2429 1.387 . S
H2427 C2423 0.950 . S
H2428 C2425 0.950 . S
C2429 C2420 1.390 . S
C2429 H2422 0.950 . S
C2429 C2426 1.387 . S
C2430 C2431 1.387 . S
C2430 H2434 0.950 . S
C2430 C2439 1.390 . S
C2431 C2430 1.387 . S
C2431 C2433 1.387 . S
H2432 C2439 0.950 . S
C2433 C2431 1.387 . S
C2433 C2435 1.390 . S
C2433 H2437 0.950 . S
H2434 C2430 0.950 . S
C2435 C2433 1.390 . S
C2435 C2436 1.387 . S
C2435 H2438 0.950 . S
C2436 C2435 1.387 . S
C2436 C2439 1.387 . S
H2437 C2433 0.950 . S
H2438 C2435 0.950 . S
C2439 C2430 1.390 . S
C2439 H2432 0.950 . S
C2439 C2436 1.387 . S
C2440 C2441 1.387 . S
C2440 H2444 0.950 . S
C2440 C2449 1.390 . S
C2441 C2440 1.387 . S
C2441 C2443 1.387 . S
H2442 C2449 0.950 . S
C2443 C2441 1.387 . S
C2443 C2445 1.390 . S
C2443 H2447 0.950 . S
H2444 C2440 0.950 . S
C2445 C2443 1.390 . S
C2445 C2446 1.387 . S
C2445 H2448 0.950 . S
C2446 C2445 1.387 . S
C2446 C2449 1.387 . S
H2447 C2443 0.950 . S
H2448 C2445 0.950 . S
C2449 C2440 1.390 . S
C2449 H2442 0.950 . S
C2449 C2446 1.387 . S
C2450 C2451 1.387 . S
C2450 H2454 0.950 . S
C2450 C2459 1.390 . S
C2451 C2450 1.387 . S
C2451 C2453 1.387 . S
H2452 C2459 0.950 . S
C2453 C2451 1.387 . S
C2453 C2455 1.390 . S
C2453 H2457 0.950 . S
H2454 C2450 0.950 . S
C2455 C2453 1.390 . S
C2455 C2456 1.387 . S
C2455 H2458 0.950 . S
C2456 C2455 1.387 . S
C2456 C2459 1.387 . S
H2457 C2453 0.950 . S
H2458 C2455 0.950 . S
C2459 C2450 1.390 . S
C2459 H2452 0.950 . S
C2459 C2456 1.387 . S
C2460 C2461 1.387 . S
C2460 H2464 0.950 . S
C2460 C2469 1.390 . S
C2461 C2460 1.387 . S
C2461 C2463 1.387 . S
H2462 C2469 0.950 . S
C2463 C2461 1.387 . S
C2463 C2465 1.390 . S
C2463 H2467 0.950 . S
H2464 C2460 0.950 . S
C2465 C2463 1.390 . S
C2465 C2466 1.387 . S
C2465 H2468 0.950 . S
C2466 C2465 1.387 . S
C2466 C2469 1.387 . S
H2467 C2463 0.950 . S
H2468 C2465 0.950 . S
C2469 C2460 1.390 . S
C2469 H2462 0.950 . S
C2469 C2466 1.387 . S
C2470 C2471 1.387 . S
C2470 H2474 0.950 . S
C2470 C2479 1.390 . S
C2471 C2470 1.387 . S
C2471 C2473 1.387 . S
H2472 C2479 0.950 . S
C2473 C2471 1.387 . S
C2473 C2475 1.390 . S
C2473 H2477 0.950 . S
H2474 C2470 0.950 . S
C2475 C2473 1.390 . S
C2475 C2476 1.387 . S
C2475 H2478 0.950 . S
C2476 C2475 1.387 . S
C2476 C2479 1.387 . S
H2477 C2473 0.950 . S
H2478 C2475 0.950 . S
C2479 C2470 1.390 . S
C2479 H2472 0.950 . S
C2479 C2476 1.387 . S
C2480 C2481 1.387 . S
C2480 H2484 0.950 . S
C2480 C2489 1.390 . S
C2481 C2480 1.387 . S
C2481 C2483 1.387 . S
H2482 C2489 0.950 . S
C2483 C2481 1.387 . S
C2483 C2485 1.390 . S
C2483 H2487 0.950 . S
H2484 C2480 0.950 . S
C2485 C2483 1.390 . S
C2485 C2486 1.387 . S
C2485 H2488 0.950 . S
C2486 C2485 1.387 . S
C2486 C2489 1.387 . S
H2487 C2483 0.950 . S
H2488 C2485 0.950 . S
C2489 C2480 1.390 . S
C2489 H2482 0.950 . S
C2489 C2486 1.387 . S
C2490 C2491 1.387 . S
C2490 H2494 0.950 . S
C2490 C2499 1.390 . S
C2491 C2490 1.387 . S
C2491 C2493 1.387 . S
H2492 C2499 0.950 . S
C2493 C2491 1.387 . S
C2493 C2495 1.390 . S
C2493 H2497 0.950 . S
H2494 C2490 0.950 . S
C2495 C2493 1.390 . S
C2495 C2496 1.387 . S
C2495 H2498 0.950 . S
C2496 C2495 1.387 . S
C2496 C2499 1.387 . S
H2497 C2493 0.950 . S
H2498 C2495 0.950 . S
C2499 C2490 1.390 . S
C2499 H2492 0.950 . S
C2499 C2496 1.387 . S
C2500 C2501 1.387 . S
C2500 H2504 0.950 . S
C2500 C2509 1.390 . S
C2501 C2500 1.387 . S
C2501 C2503 1.387 . S
H2502 C2509 0.950 . S
C2503 C2501 1.387 . S
C2503 C2505 1.390 . S
C2503 H2507 0.950 . S
H2504 C2500 0.950 . S
C2505 C2503 1.390 . S
C2505 C2506 1.387 . S
C2505 H2508 0.950 . S
C2506 C2505 1.387 . S
C2506 C2509 1.387 . S
H2507 C2503 0.950 . S
H2508 C2505 0.950 . S
C2509 C2500 1.390 . S
C2509 H2502 0.950 . S
C2509 C2506 1.387 . S
C2510 C2511 1.387 . S
C2510 H2514 0.950 . S
C2510 C2519 1.390 . S
C2511 C2510 1.387 . S
C2511 C2513 1.387 . S
H2512 C2519 0.950 . S
C2513 C2511 1.387 . S
C2513 C2515 1.390 . S
C2513 H2517 0.950 . S
H2514 C2510 0.950 . S
C2515 C2513 1.390 . S
C2515 C2516 1.387 . S
C2515 H2518 0.950 . S
C2516 C2515 1.387 . S
C2516 C2519 1.387 . S
H2517 C2513 0.950 . S
H2518 C2515 0.950 . S
C2519 C2510 1.390 . S
C2519 H2512 0.950 . S
C2519 C2516 1.387 . S
C2520 C2521 1.387 . S
C2520 H2524 0.950 . S
C2520 C2529 1.390 . S
C2521 C2520 1.387 . S
C2521 C2523 1.387 . S
H2522 C2529 0.950 . S
C2523 C2521 1.387 . S
C2523 C2525 1.390 . S
C2523 H2527 0.950 . S
H2524 C2520 0.950 . S
C2525 C2523 1.390 . S
C2525 C2526 1.387 . S
C2525 H2528 0.950 . S
C2526 C2525 1.387 . S
C2526 C2529 1.387 . S
H2527 C2523 0.950 . S
H2528 C2525 0.950 . S
C2529 C2520 1.390 . S
C2529 H2522 0.950 . S
C2529 C2526 1.387 . S
C2530 C2531 1.387 . S
C2530 H2534 0.950 . S
C2530 C2539 1.390 . S
C2531 C2530 1.387 . S
C2531 C2533 1.387 . S
H2532 C2539 0.950 . S
C2533 C2531 1.387 . S
C2533 C2535 1.390 . S
C2533 H2537 0.950 . S
H2534 C2530 0.950 . S
C2535 C2533 1.390 . S
C2535 C2536 1.387 . S
C2535 H2538 0.950 . S
C2536 C2535 1.387 . S
C2536 C2539 1.387 . S
H2537 C2533 0.950 . S
H2538 C2535 0.950 . S
C2539 C2530 1.390 . S
C2539 H2532 0.950 . S
C2539 C2536 1.387 . S
C2540 C2541 1.387 . S
C2540 H2544 0.950 . S
C2540 C2549 1.390 . S
C2541 C2540 1.387 . S
C2541 C2543 1.387 . S
H2542 C2549 0.950 . S
C2543 C2541 1.387 . S
C2543 C2545 1.390 . S
C2543 H2547 0.950 . S
H2544 C2540 0.950 . S
C2545 C2543 1.390 . S
C2545 C2546 1.387 . S
C2545 H2548 0.950 . S
C2546 C2545 1.387 . S
C2546 C2549 1.387 . S
H2547 C2543 0.950 . S
H2548 C2545 0.950 . S
C2549 C2540 1.390 . S
C2549 H2542 0.950 . S
C2549 C2546 1.387 . S
C2550 C2551 1.387 . S
C2550 H2554 0.950 . S
C2550 C2559 1.390 . S
C2551 C2550 1.387 . S
C2551 C2553 1.387 . S
H2552 C2559 0.950 . S
C2553 C2551 1.387 . S
C2553 C2555 1.390 . S
C2553 H2557 0.950 . S
H2554 C2550 0.950 . S
C2555 C2553 1.390 . S
C2555 C2556 1.387 . S
C2555 H2558 0.950 . S
C2556 C2555 1.387 . S
C2556 C2559 1.387 . S
H2557 C2553 0.950 . S
H2558 C2555 0.950 . S
C2559 C2550 1.390 . S
C2559 H2552 0.950 . S
C2559 C2556 1.387 . S
C2560 C2561 1.387 . S
C2560 H2564 0.950 . S
C2560 C2569 1.390 . S
C2561 C2560 1.387 . S
C2561 C2563 1.387 . S
H2562 C2569 0.950 . S
C2563 C2561 1.387 . S
C2563 C2565 1.390 . S
C2563 H2567 0.950 . S
H2564 C2560 0.950 . S
C2565 C2563 1.390 . S
C2565 C2566 1.387 . S
C2565 H2568 0.950 . S
C2566 C2565 1.387 . S
C2566 C2569 1.387 . S
H2567 C2563 0.950 . S
H2568 C2565 0.950 . S
C2569 C2560 1.390 . S
C2569 H2562 0.950 . S
C2569 C2566 1.387 . S
C2570 C2571 1.387 . S
C2570 H2574 0.950 . S
C2570 C2579 1.390 . S
C2571 C2570 1.387 . S
C2571 C2573 1.387 . S
H2572 C2579 0.950 . S
C2573 C2571 1.387 . S
C2573 C2575 1.390 . S
C2573 H2577 0.950 . S
H2574 C2570 0.950 . S
C2575 C2573 1.390 . S
C2575 C2576 1.387 . S
C2575 H2578 0.950 . S
C2576 C2575 1.387 . S
C2576 C2579 1.387 . S
H2577 C2573 0.950 . S
H2578 C2575 0.950 . S
C2579 C2570 1.390 . S
C2579 H2572 0.950 . S
C2579 C2576 1.387 . S
C2580 C2581 1.387 . S
C2580 H2584 0.950 . S
C2580 C2589 1.390 . S
C2581 C2580 1.387 . S
C2581 C2583 1.387 . S
H2582 C2589 0.950 . S
C2583 C2581 1.387 . S
C2583 C2585 1.390 . S
C2583 H2587 0.950 . S
H2584 C2580 0.950 . S
C2585 C2583 1.390 . S
C2585 C2586 1.387 . S
C2585 H2588 0.950 . S
C2586 C2585 1.387 . S
C2586 C2589 1.387 . S
H2587 C2583 0.950 . S
H2588 C2585 0.950 . S
C2589 C2580 1.390 . S
C2589 H2582 0.950 . S
C2589 C2586 1.387 . S
C2590 C2591 1.387 . S
C2590 H2594 0.950 . S
C2590 C2599 1.390 . S
C2591 C2590 1.387 . S
C2591 C2593 1.387 . S
H2592 C2599 0.950 . S
C2593 C2591 1.387 . S
C2593 C2595 1.390 . S
C2593 H2597 0.950 . S
H2594 C2590 0.950 . S
C2595 C2593 1.390 . S
C2595 C2596 1.387 . S
C2595 H2598 0.950 . S
C2596 C2595 1.387 . S
C2596 C2599 1.387 . S
H2597 C2593 0.950 . S
H2598 C2595 0.950 . S
C2599 C2590 1.390 . S
C2599 H2592 0.950 . S
C2599 C2596 1.387 . S
C2600 C2601 1.387 . S
C2600 H2604 0.950 . S
C2600 C2609 1.390 . S
C2601 C2600 1.387 . S
C2601 C2603 1.387 . S
H2602 C2609 0.950 . S
C2603 C2601 1.387 . S
C2603 C2605 1.390 . S
C2603 H2607 0.950 . S
H2604 C2600 0.950 . S
C2605 C2603 1.390 . S
C2605 C2606 1.387 . S
C2605 H2608 0.950 . S
C2606 C2605 1.387 . S
C2606 C2609 1.387 . S
H2607 C2603 0.950 . S
H2608 C2605 0.950 . S
C2609 C2600 1.390 . S
C2609 H2602 0.950 . S
C2609 C2606 1.387 . S
C2610 C2611 1.387 . S
C2610 H2614 0.950 . S
C2610 C2619 1.390 . S
C2611 C2610 1.387 . S
C2611 C2613 1.387 . S
H2612 C2619 0.950 . S
C2613 C2611 1.387 . S
C2613 C2615 1.390 . S
C2613 H2617 0.950 . S
H2614 C2610 0.950 . S
C2615 C2613 1.390 . S
C2615 C2616 1.387 . S
C2615 H2618 0.950 . S
C2616 C2615 1.387 . S
C2616 C2619 1.387 . S
H2617 C2613 0.950 . S
H2618 C2615 0.950 . S
C2619 C2610 1.390 . S
C2619 H2612 0.950 . S
C2619 C2616 1.387 . S
C2620 C2621 1.387 . S
C2620 H2624 0.950 . S
C2620 C2629 1.390 . S
C2621 C2620 1.387 . S
C2621 C2623 1.387 . S
H2622 C2629 0.950 . S
C2623 C2621 1.387 . S
C2623 C2625 1.390 . S
C2623 H2627 0.950 . S
H2624 C2620 0.950 . S
C2625 C2623 1.390 . S
C2625 C2626 1.387 . S
C2625 H2628 0.950 . S
C2626 C2625 1.387 . S
C2626 C2629 1.387 . S
H2627 C2623 0.950 . S
H2628 C2625 0.950 . S
C2629 C2620 1.390 . S
C2629 H2622 0.950 . S
C2629 C2626 1.387 . S
C2630 C2631 1.387 . S
C2630 H2634 0.950 . S
C2630 C2639 1.390 . S
C2631 C2630 1.387 . S
C2631 C2633 1.387 . S
H2632 C2639 0.950 . S
C2633 C2631 1.387 . S
C2633 C2635 1.390 . S
C2633 H2637 0.950 . S
H2634 C2630 0.950 . S
C2635 C2633 1.390 . S
C2635 C2636 1.387 . S
C2635 H2638 0.950 . S
C2636 C2635 1.387 . S
C2636 C2639 1.387 . S
H2637 C2633 0.950 . S
H2638 C2635 0.950 . S
C2639 C2630 1.390 . S
C2639 H2632 0.950 . S
C2639 C2636 1.387 . S
C1681 C105 2.342 1_454 S
C1686 C392 2.329 . S
C1691 C65 1.978 . S
C1696 C494 1.987 . S
C1701 C73 1.959 . S
C1706 C560 1.990 . S
C1716 C646 1.364 . S
C1711 C92 1.418 . S
C1721 C17 1.467 . S
C1726 C730 1.379 . S
C1736 C812 1.945 . S
C1731 C37 1.891 . S
C1746 C914 1.990 . S
C1741 C49 1.841 . S
C1751 C8 2.256 . S
C1756 C980 2.256 . S
C1766 C410 1.852 . S
C1761 C231 1.894 . S
C1771 C241 1.019 . S
C1776 C478 0.967 . S
C1786 C578 1.287 . S
C1781 C273 1.208 . S
C1796 C644 1.664 . S
C1791 C171 1.648 1_556 S
C1801 C227 1.651 . S
C1806 C728 1.654 . S
C1816 C830 1.301 . S
C1811 C245 1.218 . S
C1826 C898 0.962 . S
C1821 C269 1.014 . S
C1836 C998 1.843 . S
C1831 C175 1.884 . S
C1846 C394 1.258 . S
C1841 C162 1.234 1_554 S
C1851 C289 1.732 . S
C1856 C1082 1.731 . S
C1866 C1150 1.429 . S
C1861 C330 1.451 . S
C1876 C1232 0.882 . S
C1871 C317 0.877 . S
C1881 C120 1.209 . S
C1886 C982 1.239 . S
C1891 C134 1.453 . S
C1896 C562 1.427 . S
C1901 C331 1.704 . S
C1906 C1334 1.707 . S
C1916 C1400 0.824 . S
C1911 C303 0.821 . S
C1926 C403 2.345 . S
C1921 C59 2.302 . S
C1936 C1407 2.018 . S
C1931 C107 1.999 . S
C1941 C91 2.012 . S
C1946 C571 2.032 . S
C1951 C78 1.431 . S
C1956 C1329 1.377 . S
C1966 C741 1.395 . S
C1961 C7 1.429 . S
C1971 C51 1.919 . S
C1976 C1159 1.979 . S
C1986 C903 2.018 1_556 S
C1981 C31 2.007 . S
C1996 C1495 2.277 . S
C1991 C22 2.248 . S
C2006 C399 1.878 . S
C2001 C143 1.919 . S
C2016 C1413 0.978 . S
C2011 C315 1.008 . S
C2021 C115 1.296 . S
C2026 C567 1.297 . S
C2031 C287 1.669 . S
C2036 C1327 1.698 . S
C2041 C147 1.663 . S
C2046 C739 1.690 . S
C2056 C1155 1.313 . S
C2051 C311 1.311 . S
C2061 C119 1.005 1_545 S
C2066 C909 0.972 . S
C2071 C283 1.906 . S
C2076 C1491 1.864 . S
C2081 C190 1.201 . S
C2086 C405 1.247 . S
C2091 C177 1.745 . S
C2096 C1071 1.752 . S
C2101 C260 1.431 . S
C2106 C825 1.421 . S
C2111 C247 0.907 . S
C2116 C1243 0.917 . S
C2126 C1497 1.218 . S
C2121 C274 1.177 . S
C2131 C218 1.436 . S
C2136 C573 1.419 . S
C2146 C651 1.727 . S
C2141 C261 1.718 . S
C2156 C487 0.855 . S
C2151 C205 0.850 . S
C2161 C77 2.343 . S
C2166 C1568 2.329 . S
C2176 C1418 1.987 . S
C2171 C93 1.978 . S
C2181 C101 1.959 1_554 S
C2186 C1652 1.990 . S
C2191 C64 1.418 1_655 S
C2196 C1318 1.363 . S
C2201 C45 1.468 . S
C2206 C1066 1.381 . S
C2216 C1148 1.945 . S
C2211 C9 1.891 . S
C2226 C1250 1.989 . S
C2221 C21 1.843 . S
C2236 C1484 2.255 . S
C2231 C36 2.256 . S
C2246 C1586 1.852 . S
C2241 C259 1.895 . S
C2251 C185 1.018 . S
C2256 C1402 0.967 . S
C2266 C1670 1.287 . S
C2261 C203 1.208 . S
C2276 C1316 1.664 . S
C2271 C213 1.663 . S
C2286 C1064 1.654 . S
C2281 C255 1.651 . S
C2291 C189 1.219 . S
C2296 C1166 1.302 . S
C2306 C1234 0.961 . S
C2301 C199 1.013 . S
C2311 C217 1.885 . S
C2316 C1502 1.840 . S
C2326 C1570 1.259 . S
C2321 C316 1.230 . S
C2331 C135 1.732 . S
C2336 C746 1.732 . S
C2346 C814 1.429 . S
C2341 C148 1.450 1_565 S
C2356 C896 0.882 . S
C2351 C163 0.879 . S
C2366 C1486 1.238 . S
C2361 C302 1.212 . S
C2371 C288 1.454 . S
C2376 C1654 1.430 . S
C2386 C662 1.706 . S
C2381 C149 1.704 . S
C2396 C476 0.824 . S
C2391 C121 0.822 . S
C2401 C87 2.302 . S
C2406 C1579 2.345 . S
C2416 C483 2.018 . S
C2411 C79 1.999 . S
C2421 C63 2.012 . S
C2426 C1663 2.031 . S
C2431 C106 1.433 . S
C2436 C657 1.377 . S
C2441 C35 1.427 . S
C2446 C1077 1.398 . S
C2456 C823 1.979 . S
C2451 C23 1.919 . S
C2461 C3 2.005 . S
C2466 C1239 2.019 . S
C2471 C50 2.249 . S
C2476 C991 2.277 . S
C2486 C1575 1.879 . S
C2481 C325 1.919 . S
C2491 C161 1.009 . S
C2496 C489 0.977 . S
C2506 C1659 1.298 1_655 S
C2501 C297 1.299 . S
C2511 C133 1.670 . S
C2516 C655 1.698 . S
C2521 C329 1.663 . S
C2526 C1075 1.690 . S
C2536 C819 1.314 . S
C2531 C157 1.313 . S
C2541 C301 1.007 . S
C2546 C1245 0.972 . S
C2556 C987 1.866 . S
C2551 C129 1.908 . S
C2566 C1581 1.247 . S
C2561 C246 1.201 . S
C2576 C735 1.752 1_565 S
C2571 C219 1.745 . S
C2581 C232 1.431 . S
C2586 C1161 1.421 . S
C2596 C907 0.917 . S
C2591 C191 0.908 . S
C2601 C204 1.174 . S
C2606 C993 1.221 . S
C2611 C176 1.433 . S
C2616 C1665 1.419 . S
C2626 C1323 1.727 . S
C2621 C233 1.718 . S
C2636 C1411 0.855 . S
C2631 C275 0.852 . S
