# Generated by pormake.
# Topology tsx, (6,3)-cn, num edge types: 1
# Building blocks:
#     Node 0, Type 0, BuildingBlock: JUFBIX_clean_sbu_0, # of connection points: 6
#     Node 1, Type 0, BuildingBlock: JUFBIX_clean_sbu_0, # of connection points: 6
#     Node 2, Type 1, BuildingBlock: WUSLED_clean_sbu_0, # of connection points: 3
#     Node 3, Type 1, BuildingBlock: WUSLED_clean_sbu_0, # of connection points: 3
#     Node 4, Type 1, BuildingBlock: WUSLED_clean_sbu_0, # of connection points: 3
#     Node 5, Type 1, BuildingBlock: WUSLED_clean_sbu_0, # of connection points: 3
#     Edge 6, Type (0, 1), BuildingBlock: FUNLAD_clean_linker_0, # of connection points: 2
#     Edge 7, Type (0, 1), BuildingBlock: FUNLAD_clean_linker_0, # of connection points: 2
#     Edge 8, Type (0, 1), BuildingBlock: FUNLAD_clean_linker_0, # of connection points: 2
#     Edge 9, Type (0, 1), BuildingBlock: FUNLAD_clean_linker_0, # of connection points: 2
#     Edge 10, Type (0, 1), BuildingBlock: FUNLAD_clean_linker_0, # of connection points: 2
#     Edge 11, Type (0, 1), BuildingBlock: FUNLAD_clean_linker_0, # of connection points: 2
#     Edge 12, Type (0, 1), BuildingBlock: FUNLAD_clean_linker_0, # of connection points: 2
#     Edge 13, Type (0, 1), BuildingBlock: FUNLAD_clean_linker_0, # of connection points: 2
#     Edge 14, Type (0, 1), BuildingBlock: FUNLAD_clean_linker_0, # of connection points: 2
#     Edge 15, Type (0, 1), BuildingBlock: FUNLAD_clean_linker_0, # of connection points: 2
#     Edge 16, Type (0, 1), BuildingBlock: FUNLAD_clean_linker_0, # of connection points: 2
#     Edge 17, Type (0, 1), BuildingBlock: FUNLAD_clean_linker_0, # of connection points: 2
# Relax obj value: 0.150
# Max RMSD: 0.161
# Mean RMSD: 0.127
data_MOF--net-tsx--node1-JUFBIX_clean_sbu_0--node2-WUSLED_clean_sbu_0--edge1-FUNLAD_clean_linker_0
_symmetry_space_group_name_H-M    P1
_symmetry_Int_Tables_number       1
_symmetry_cell_setting            triclinic
loop_
_symmetry_equiv_pos_as_xyz
'x, y, z'
_cell_length_a     28.423713
_cell_length_b     33.615326
_cell_length_c     51.82072
_cell_angle_alpha  92.556589
_cell_angle_beta   89.807436
_cell_angle_gamma 96.945461
loop_
_atom_site_label
_atom_site_type_symbol
_atom_site_fract_x
_atom_site_fract_y
_atom_site_fract_z
_atom_type_partial_charge
Co0 Co 0.0526 0.99625 0.01662 0.0
C1 C 0.01559 0.021 0.9704 0.0
Co2 Co 0.99508 0.03529 0.02142 0.0
C3 C 0.1145 0.93122 0.0184 0.0
C4 C 0.1402 0.97989 0.99482 0.0
N5 N 0.1037 0.96685 0.01023 0.0
N6 N 0.15667 0.92226 0.00891 0.0
C7 C 0.17264 0.95288 0.9941 0.0
H8 H 0.0924 0.91264 0.0313 0.0
H9 H 0.14309 1.00747 0.98463 0.0
C10 C 0.03131 0.01009 0.06769 0.0
N11 N 0.94454 0.06519 0.02715 0.0
C12 C 0.93329 0.09767 0.01506 0.0
C13 C 0.90981 0.05749 0.04464 0.0
N14 N 0.89291 0.11057 0.02441 0.0
C15 C 0.87822 0.08519 0.04304 0.0
C16 C 0.96482 0.95237 0.01734 0.0
O17 O 0.05881 0.99209 0.05304 0.0
O18 O 1.00182 0.03056 0.05764 0.0
O19 O 0.95212 0.98736 0.01984 0.0
O20 O 1.00873 0.9485 0.0153 0.0
O21 O 0.98892 0.03929 0.98528 0.0
H22 H 0.90723 0.03287 0.05752 0.0
H23 H 0.95441 0.11155 0.99975 0.0
O24 O 0.04551 1.00073 0.98019 0.0
O25 O 0.09552 0.04473 0.01833 0.0
O26 O 0.03854 0.08294 0.02297 0.0
C27 C 0.08249 0.07955 0.0211 0.0
H28 H 0.20538 0.95533 0.98322 0.0
H29 H 0.84618 0.0858 0.05431 0.0
Co30 Co 0.55182 0.51534 0.51639 0.0
C31 C 0.51617 0.53406 0.4685 0.0
Co32 Co 0.48897 0.54818 0.51854 0.0
C33 C 0.61607 0.45365 0.51856 0.0
C34 C 0.64657 0.507 0.5008 0.0
N35 N 0.60678 0.49066 0.51249 0.0
N36 N 0.66022 0.4467 0.51131 0.0
C37 C 0.67939 0.48029 0.50021 0.0
H38 H 0.59089 0.43211 0.52785 0.0
H39 H 0.65112 0.53612 0.49245 0.0
C40 C 0.52449 0.52974 0.5665 0.0
N41 N 0.4345 0.57305 0.52192 0.0
C42 C 0.42279 0.60565 0.51025 0.0
C43 C 0.39728 0.56157 0.53717 0.0
N44 N 0.3797 0.61504 0.51772 0.0
C45 C 0.36363 0.58721 0.53463 0.0
C46 C 0.46874 0.46412 0.51564 0.0
O47 O 0.55514 0.51334 0.55311 0.0
O48 O 0.49304 0.54635 0.55503 0.0
O49 O 0.45131 0.49724 0.51704 0.0
O50 O 0.51353 0.46456 0.51484 0.0
O51 O 0.4855 0.54982 0.48214 0.0
H52 H 0.39477 0.53608 0.54935 0.0
H53 H 0.44577 0.62241 0.49684 0.0
O54 O 0.54804 0.51755 0.47968 0.0
O55 O 0.58919 0.56661 0.5183 0.0
O56 O 0.52687 0.59897 0.52008 0.0
C57 C 0.57164 0.59963 0.51978 0.0
H58 H 0.71406 0.48463 0.49133 0.0
H59 H 0.32967 0.58511 0.5443 0.0
C60 C 0.91198 0.08 0.46707 0.0
C61 C 0.91791 0.11292 0.45111 0.0
C62 C 0.85194 0.14081 0.47252 0.0
C63 C 0.88822 0.14315 0.45389 0.0
C64 C 0.84538 0.10721 0.48791 0.0
C65 C 0.87523 0.07719 0.48525 0.0
U66 U 0.99064 1.00834 0.43209 0.0
O67 O 0.05935 0.99288 0.44514 0.0
O68 O 0.9975 0.94646 0.44256 0.0
C69 C 0.04267 0.95519 0.44835 0.0
C70 C 0.94462 0.04913 0.4661 0.0
C71 C 0.07421 0.92416 0.44296 0.0
C72 C 0.1003 0.86267 0.45729 0.0
C73 C 0.06634 0.88923 0.45693 0.0
C74 C 0.14946 0.90387 0.42805 0.0
C75 C 0.1427 0.87034 0.44349 0.0
C76 C 0.11548 0.93091 0.42792 0.0
C77 C 0.99595 1.00768 0.35653 0.0
C78 C 0.05545 0.99507 0.32422 0.0
C79 C 0.97375 0.9958 0.31137 0.0
C80 C 0.96148 1.00353 0.33703 0.0
C81 C 0.02097 0.99195 0.30451 0.0
C82 C 0.04305 1.00287 0.35005 0.0
C83 C 0.98179 0.02053 0.38273 0.0
O84 O 0.92741 0.01382 0.45608 0.0
O85 O 0.98844 0.06053 0.45897 0.0
O86 O 0.01448 0.04091 0.39762 0.0
O87 O 0.95261 0.99474 0.39518 0.0
H88 H 0.94586 0.11559 0.43681 0.0
H89 H 0.89377 0.16845 0.44154 0.0
H90 H 0.81811 0.10473 0.50261 0.0
H91 H 0.87019 0.05206 0.49778 0.0
H92 H 0.09434 0.8369 0.46925 0.0
H93 H 0.03502 0.88362 0.46885 0.0
H94 H 0.18208 0.91034 0.41734 0.0
H95 H 0.12247 0.95784 0.41712 0.0
H96 H 0.09205 0.99187 0.31968 0.0
H97 H 0.94634 0.99439 0.29677 0.0
H98 H 0.92504 1.00754 0.34156 0.0
H99 H 0.07035 1.00595 0.36478 0.0
C100 C 0.94426 0.96432 0.5547 0.0
C101 C 0.92093 0.94277 0.57455 0.0
C102 C 0.87525 0.89833 0.54288 0.0
C103 C 0.88677 0.91014 0.56871 0.0
C104 C 0.8988 0.92009 0.52303 0.0
C105 C 0.93298 0.95287 0.52891 0.0
U106 U 0.01592 0.02852 0.60542 0.0
O107 O 0.09091 0.05414 0.60713 0.0
O108 O 0.03499 0.09383 0.61032 0.0
C109 C 0.08071 0.09133 0.60854 0.0
C110 C 0.98048 0.99841 0.56105 0.0
C111 C 0.10855 0.12082 0.59229 0.0
C112 C 0.17593 0.14012 0.56436 0.0
C113 C 0.1465 0.1105 0.57689 0.0
C114 C 0.1294 0.19065 0.58187 0.0
C115 C 0.16809 0.18065 0.56699 0.0
C116 C 0.10015 0.16115 0.59441 0.0
C117 C 0.99276 1.00189 0.67626 0.0
C118 C 0.04193 1.00004 0.71449 0.0
C119 C 0.96204 0.01747 0.71895 0.0
C120 C 0.95598 0.01287 0.69218 0.0
C121 C 1.00497 0.0108 0.73049 0.0
C122 C 0.03593 0.99566 0.68768 0.0
C123 C 0.98451 0.99537 0.64809 0.0
O124 O 0.96472 0.02888 0.5737 0.0
O125 O 0.01998 0.98871 0.57079 0.0
O126 O 0.01908 0.9828 0.63421 0.0
O127 O 0.9636 0.02286 0.63687 0.0
H128 H 0.92938 0.9511 0.5946 0.0
H129 H 0.86997 0.89372 0.58447 0.0
H130 H 0.89049 0.91203 0.50295 0.0
H131 H 0.95061 0.96923 0.51335 0.0
H132 H 0.20516 0.13134 0.55286 0.0
H133 H 0.15424 0.07974 0.57498 0.0
H134 H 0.12272 0.22158 0.58472 0.0
H135 H 0.07174 0.17014 0.60649 0.0
H136 H 0.07522 0.99408 0.7227 0.0
H137 H 0.93304 0.02634 0.73059 0.0
H138 H 0.92225 0.01764 0.68392 0.0
H139 H 0.06495 0.98688 0.67602 0.0
C140 C 0.43392 0.56532 0.97771 0.0
C141 C 0.42768 0.59387 0.95945 0.0
C142 C 0.37253 0.62447 0.9881 0.0
C143 C 0.39748 0.62318 0.96462 0.0
C144 C 0.37837 0.59538 0.00621 0.0
C145 C 0.40889 0.56615 1.00107 0.0
U146 U 0.5042 0.50904 0.92932 0.0
O147 O 0.57655 0.49217 0.93013 0.0
O148 O 0.5159 0.44542 0.92482 0.0
C149 C 0.56209 0.4535 0.92768 0.0
C150 C 0.46617 0.53465 0.97229 0.0
C151 C 0.58649 0.42607 0.94323 0.0
C152 C 0.65344 0.41333 0.96973 0.0
C153 C 0.62588 0.44024 0.95889 0.0
C154 C 0.60202 0.35759 0.95019 0.0
C155 C 0.6425 0.37166 0.96502 0.0
C156 C 0.57452 0.38444 0.93939 0.0
C157 C 0.495 0.53615 0.8585 0.0
C158 C 0.53403 0.50337 0.82308 0.0
C159 C 0.48719 0.55703 0.81465 0.0
C160 C 0.4769 0.56091 0.84095 0.0
C161 C 0.5159 0.52824 0.80534 0.0
C162 C 0.52371 0.50735 0.84947 0.0
C163 C 0.4831 0.54071 0.88602 0.0
O164 O 0.44769 0.50268 0.95865 0.0
O165 O 0.50886 0.54851 0.96448 0.0
O166 O 0.518 0.55632 0.90127 0.0
O167 O 0.45731 0.50987 0.89572 0.0
H168 H 0.44626 0.59351 0.94116 0.0
H169 H 0.39329 0.64463 0.95006 0.0
H170 H 0.35999 0.59565 0.02454 0.0
H171 H 0.41311 0.54431 0.01538 0.0
H172 H 0.68452 0.42529 0.98088 0.0
H173 H 0.63656 0.47211 0.96201 0.0
H174 H 0.59198 0.32573 0.94652 0.0
H175 H 0.54477 0.37257 0.92718 0.0
H176 H 0.55657 0.48116 0.8166 0.0
H177 H 0.47195 0.5762 0.80154 0.0
H178 H 0.45451 0.58318 0.84759 0.0
H179 H 0.53804 0.48799 0.86282 0.0
C180 C 0.43608 0.45673 0.05517 0.0
C181 C 0.41527 0.43414 0.07525 0.0
C182 C 0.36512 0.39187 0.04443 0.0
C183 C 0.38019 0.40207 0.06995 0.0
C184 C 0.38545 0.41512 0.02435 0.0
C185 C 0.42079 0.44728 0.0297 0.0
U186 U 0.51137 0.51684 0.1056 0.0
O187 O 0.58799 0.53647 0.10794 0.0
O188 O 0.53746 0.581 0.11084 0.0
C189 C 0.58222 0.57474 0.10923 0.0
C190 C 0.47435 0.48934 0.06108 0.0
C191 C 0.61384 0.60145 0.09288 0.0
C192 C 0.6936 0.62259 0.07738 0.0
C193 C 0.66147 0.59489 0.08974 0.0
C194 C 0.63095 0.66373 0.07045 0.0
C195 C 0.67895 0.65776 0.06805 0.0
C196 C 0.59876 0.63595 0.08276 0.0
C197 C 0.48511 0.48842 0.17552 0.0
C198 C 0.52061 0.52607 0.21315 0.0
C199 C 0.4727 0.46219 0.2182 0.0
C200 C 0.46507 0.45848 0.19155 0.0
C201 C 0.50052 0.49603 0.22934 0.0
C202 C 0.51308 0.52223 0.18641 0.0
C203 C 0.47626 0.48375 0.14758 0.0
O204 O 0.46109 0.52079 0.07383 0.0
O205 O 0.5129 0.47755 0.0706 0.0
O206 O 0.50988 0.4696 0.13378 0.0
O207 O 0.45912 0.51382 0.13704 0.0
H208 H 0.4265 0.44116 0.09507 0.0
H209 H 0.36473 0.38532 0.08591 0.0
H210 H 0.37481 0.4079 0.00448 0.0
H211 H 0.4365 0.46444 0.01397 0.0
H212 H 0.73039 0.61728 0.07619 0.0
H213 H 0.67438 0.56896 0.09768 0.0
H214 H 0.61841 0.69029 0.06321 0.0
H215 H 0.56243 0.64217 0.08498 0.0
H216 H 0.54262 0.55227 0.2211 0.0
H217 H 0.45621 0.4388 0.23014 0.0
H218 H 0.44332 0.43223 0.18343 0.0
H219 H 0.52903 0.54556 0.17425 0.0
C220 C 0.105 0.1543 0.02545 0.0
C221 C 0.11845 0.11545 0.02243 0.0
C222 C 0.13934 0.18793 0.02734 0.0
C223 C 0.18795 0.18338 0.02614 0.0
C224 C 0.20118 0.14454 0.02305 0.0
C225 C 0.16696 0.11103 0.0211 0.0
C226 C 0.22602 0.2178 0.0295 0.0
C227 C 0.22014 0.25632 0.02563 0.0
C228 C 0.2586 0.29023 0.03003 0.0
C229 C 0.257 0.32582 0.017 0.0
C230 C 0.29189 0.35862 0.02127 0.0
C231 C 0.32884 0.35671 0.03897 0.0
H232 H 0.29758 0.26206 0.05878 0.0
C233 C 0.33038 0.3211 0.05203 0.0
C234 C 0.29567 0.28836 0.04772 0.0
H235 H 0.35851 0.31849 0.06567 0.0
H236 H 0.06793 0.15874 0.02667 0.0
H237 H 0.12754 0.21718 0.03039 0.0
H238 H 0.23828 0.14003 0.02225 0.0
H239 H 0.17867 0.08159 0.0188 0.0
H240 H 0.26092 0.2106 0.03465 0.0
H241 H 0.18665 0.26339 0.01815 0.0
H242 H 0.22863 0.3283 1.00347 0.0
H243 H 0.28933 0.38577 0.01113 0.0
C244 C 0.15743 0.84884 0.01258 0.0
C245 C 0.18132 0.888 0.01312 0.0
C246 C 0.18305 0.81551 0.01281 0.0
C247 C 0.23312 0.82093 0.01387 0.0
C248 C 0.25633 0.86029 0.01579 0.0
C249 C 0.23091 0.89324 0.0153 0.0
C250 C 0.26343 0.78744 0.01187 0.0
C251 C 0.24786 0.74811 0.0076 0.0
C252 C 0.28088 0.71701 1.00325 0.0
C253 C 0.26643 0.67718 0.00963 0.0
C254 C 0.29626 0.64725 0.0051 0.0
C255 C 0.34102 0.65632 0.99364 0.0
H256 H 0.33769 0.75594 0.98571 0.0
C257 C 0.35527 0.6961 0.98705 0.0
C258 C 0.32566 0.72601 0.99173 0.0
H259 H 0.38954 0.70425 0.9783 0.0
H260 H 0.11921 0.844 0.01078 0.0
H261 H 0.1634 0.7859 0.01156 0.0
H262 H 0.29465 0.86574 0.01687 0.0
H263 H 0.25023 0.92308 0.01606 0.0
H264 H 0.30142 0.79615 0.01342 0.0
H265 H 0.2102 0.73793 0.00735 0.0
H266 H 0.23195 0.66919 0.0182 0.0
H267 H 0.28386 0.61684 0.01011 0.0
C268 C 0.94101 0.8783 0.02146 0.0
C269 C 0.92841 0.91696 0.0183 0.0
C270 C 0.90601 0.8458 0.02489 0.0
C271 C 0.85757 0.85133 0.02497 0.0
C272 C 0.84528 0.8898 0.02098 0.0
C273 C 0.88011 0.92215 0.01771 0.0
C274 C 0.81868 0.81907 0.03084 0.0
C275 C 0.82369 0.77982 0.0322 0.0
C276 C 0.78459 0.74928 0.04032 0.0
C277 C 0.78616 0.7087 0.03304 0.0
C278 C 0.75136 0.67903 0.04146 0.0
C279 C 0.71426 0.68927 0.05751 0.0
H280 H 0.7456 0.7901 0.06328 0.0
C281 C 0.71256 0.72989 0.0647 0.0
C282 C 0.74734 0.75949 0.05634 0.0
H283 H 0.68521 0.73875 0.07757 0.0
H284 H 0.97794 0.87337 0.02215 0.0
H285 H 0.91742 0.81697 0.02828 0.0
H286 H 0.80844 0.89516 0.02094 0.0
H287 H 0.86905 0.95148 0.01523 0.0
H288 H 0.78389 0.82852 0.03417 0.0
H289 H 0.85707 0.76917 0.02688 0.0
H290 H 0.81457 0.69986 0.0209 0.0
H291 H 0.75361 0.64804 0.03548 0.0
C292 C 0.83761 0.16144 0.03244 0.0
C293 C 0.86891 0.14328 0.01586 0.0
C294 C 0.81202 0.19139 0.02386 0.0
C295 C 0.81731 0.20435 0.99843 0.0
C296 C 0.84907 0.18657 0.98197 0.0
C297 C 0.8747 0.15657 0.99057 0.0
C298 C 0.78855 0.23442 0.98791 0.0
C299 C 0.76574 0.26017 1.00269 0.0
C300 C 0.73506 0.28882 0.99218 0.0
C301 C 0.72473 0.32177 0.00795 0.0
C302 C 0.69491 0.34865 0.99923 0.0
C303 C 0.67417 0.34304 0.97453 0.0
H304 H 0.71991 0.25763 0.95489 0.0
C305 C 0.68429 0.30993 0.95878 0.0
C306 C 0.71416 0.2831 0.96748 0.0
H307 H 0.66938 0.30482 0.93954 0.0
H308 H 0.83251 0.15236 0.05211 0.0
H309 H 0.78728 0.20332 0.03713 0.0
H310 H 0.85371 0.19558 0.96222 0.0
H311 H 0.89798 0.14305 0.97714 0.0
H312 H 0.78712 0.23569 0.96704 0.0
H313 H 0.77045 0.26139 0.02348 0.0
H314 H 0.73977 0.32678 0.02718 0.0
H315 H 0.68753 0.37351 0.01201 0.0
C316 C 0.65282 0.63823 0.5212 0.0
C317 C 0.60332 0.63812 0.52156 0.0
C318 C 0.68303 0.67425 0.52353 0.0
C319 C 0.66448 0.71121 0.52612 0.0
C320 C 0.615 0.71106 0.52654 0.0
C321 C 0.58473 0.67498 0.52416 0.0
C322 C 0.69549 0.75013 0.52981 0.0
C323 C 0.74115 0.75581 0.5221 0.0
C324 C 0.77329 0.79388 0.52691 0.0
C325 C 0.81463 0.80079 0.51201 0.0
C326 C 0.84718 0.83499 0.5168 0.0
C327 C 0.8394 0.86302 0.53683 0.0
H328 H 0.73462 0.81767 0.55926 0.0
C329 C 0.79786 0.85631 0.55165 0.0
C330 C 0.76526 0.82215 0.54683 0.0
H331 H 0.79059 0.87743 0.56712 0.0
H332 H 0.6684 0.61038 0.51943 0.0
H333 H 0.72081 0.67275 0.52396 0.0
H334 H 0.59966 0.73899 0.52876 0.0
H335 H 0.54679 0.67598 0.52461 0.0
H336 H 0.67943 0.7751 0.53859 0.0
H337 H 0.75575 0.73187 0.51119 0.0
H338 H 0.82207 0.77941 0.49672 0.0
H339 H 0.87909 0.83888 0.50525 0.0
C340 C 0.65532 0.37256 0.50929 0.0
C341 C 0.68205 0.41039 0.5128 0.0
C342 C 0.67789 0.33769 0.50748 0.0
C343 C 0.72766 0.34016 0.5093 0.0
C344 C 0.75381 0.37786 0.51423 0.0
C345 C 0.73137 0.41254 0.5158 0.0
C346 C 0.75428 0.30483 0.50568 0.0
C347 C 0.73736 0.27014 0.49306 0.0
C348 C 0.7672 0.23736 0.4875 0.0
C349 C 0.74586 0.19744 0.48573 0.0
C350 C 0.77319 0.16605 0.48064 0.0
C351 C 0.82236 0.17404 0.47675 0.0
H352 H 0.83375 0.27585 0.48332 0.0
C353 C 0.84347 0.21409 0.47777 0.0
C354 C 0.81625 0.2454 0.48305 0.0
H355 H 0.88128 0.22123 0.47494 0.0
H356 H 0.61723 0.37007 0.50694 0.0
H357 H 0.65621 0.30915 0.50448 0.0
H358 H 0.79205 0.38072 0.51607 0.0
H359 H 0.75274 0.44125 0.51895 0.0
H360 H 0.79063 0.30853 0.51265 0.0
H361 H 0.7009 0.26529 0.48639 0.0
H362 H 0.70805 0.19047 0.48865 0.0
H363 H 0.75582 0.13551 0.47964 0.0
C364 C 0.38763 0.42573 0.51364 0.0
C365 C 0.43684 0.42585 0.51627 0.0
C366 C 0.35677 0.39047 0.51613 0.0
C367 C 0.3743 0.35434 0.52177 0.0
C368 C 0.42369 0.35423 0.52342 0.0
C369 C 0.45464 0.38954 0.5207 0.0
C370 C 0.34265 0.31646 0.52645 0.0
C371 C 0.29588 0.31505 0.53167 0.0
C372 C 0.26452 0.27812 0.53838 0.0
C373 C 0.21524 0.27817 0.53648 0.0
C374 C 0.18404 0.24596 0.54482 0.0
C375 C 0.20131 0.21285 0.55552 0.0
H376 H 0.31953 0.24341 0.55083 0.0
C377 C 0.25065 0.21216 0.55677 0.0
C378 C 0.28195 0.24443 0.54838 0.0
H379 H 0.26519 0.18744 0.56529 0.0
H380 H 0.37275 0.45309 0.50983 0.0
H381 H 0.31937 0.39209 0.51361 0.0
H382 H 0.43843 0.3269 0.52745 0.0
H383 H 0.49239 0.38856 0.52275 0.0
H384 H 0.3592 0.28901 0.5264 0.0
H385 H 0.27907 0.34229 0.53165 0.0
H386 H 0.20069 0.30362 0.52889 0.0
H387 H 0.14628 0.24728 0.54324 0.0
C388 C 0.36536 0.66528 0.48582 0.0
C389 C 0.3557 0.64797 0.50979 0.0
C390 C 0.34087 0.69653 0.47804 0.0
C391 C 0.30608 0.71106 0.49413 0.0
C392 C 0.29723 0.69409 0.51821 0.0
C393 C 0.3216 0.66306 0.52594 0.0
C394 C 0.27803 0.74375 0.48719 0.0
C395 C 0.27797 0.76045 0.46396 0.0
C396 C 0.24682 0.7917 0.45839 0.0
C397 C 0.23133 0.79547 0.43294 0.0
C398 C 0.19873 0.82224 0.42765 0.0
C399 C 0.18116 0.84549 0.44779 0.0
H400 H 0.24422 0.81691 0.49775 0.0
C401 C 0.19855 0.84338 0.47291 0.0
C402 C 0.23142 0.8172 0.47813 0.0
H403 H 0.18615 0.86172 0.48864 0.0
H404 H 0.39127 0.65427 0.47286 0.0
H405 H 0.34952 0.70894 0.4595 0.0
H406 H 0.27106 0.70478 0.5312 0.0
H407 H 0.31387 0.65115 0.54473 0.0
H408 H 0.2543 0.75329 0.50206 0.0
H409 H 0.29857 0.74951 0.44811 0.0
H410 H 0.2432 0.77671 0.41728 0.0
H411 H 0.18591 0.82365 0.40809 0.0
C412 C 0.06722 0.98855 0.10851 0.0
C413 C 0.03138 1.00603 0.09608 0.0
C414 C 0.06558 0.98376 0.13529 0.0
C415 C 0.02775 0.99602 0.15004 0.0
C416 C 0.99211 0.01337 0.13754 0.0
C417 C 0.99407 0.01866 0.11099 0.0
C418 C 0.0226 0.98969 0.17818 0.0
C419 C 0.05916 0.98879 0.19456 0.0
C420 C 0.05165 0.98576 0.22289 0.0
C421 C 0.08439 1.00706 0.24021 0.0
C422 C 0.07548 1.00791 0.26684 0.0
C423 C 0.03389 0.98695 0.27671 0.0
H424 H 0.98641 0.94496 0.22012 0.0
C425 C 1.00279 0.96349 0.25941 0.0
C426 C 0.01149 0.96295 0.23285 0.0
H427 H 0.97113 0.94602 0.26636 0.0
H428 H 0.09632 0.97834 0.09754 0.0
H429 H 0.09318 0.96953 0.14422 0.0
H430 H 0.96245 0.0229 0.14837 0.0
H431 H 0.96568 0.03201 0.1021 0.0
H432 H 0.98695 0.98854 0.18601 0.0
H433 H 0.0953 0.99401 0.1875 0.0
H434 H 0.11588 0.02454 0.23305 0.0
H435 H 0.10017 0.02642 0.27952 0.0
C436 C 0.04332 1.00496 0.92558 0.0
C437 C 0.01143 0.02261 0.94198 0.0
C438 C 0.03874 1.00553 0.89874 0.0
C439 C 1.00212 0.02386 0.88769 0.0
C440 C 0.9702 0.04137 0.9041 0.0
C441 C 0.97496 0.04103 0.93094 0.0
C442 C 0.99468 0.0234 0.85927 0.0
C443 C 0.02981 0.02106 0.84192 0.0
C444 C 0.02201 0.01937 0.81349 0.0
C445 C 0.05979 0.03273 0.79729 0.0
C446 C 0.0542 0.03044 0.77044 0.0
C447 C 0.01076 0.01421 0.75912 0.0
H448 H 0.94908 0.99115 0.81398 0.0
C449 C 0.97304 1.00054 0.77538 0.0
C450 C 0.97856 1.00305 0.80222 0.0
H451 H 0.93944 0.98697 0.76737 0.0
H452 H 0.07167 0.99032 0.93345 0.0
H453 H 0.06323 0.99067 0.8868 0.0
H454 H 0.94142 0.05538 0.89613 0.0
H455 H 0.94966 0.05477 0.94302 0.0
H456 H 0.95923 0.02657 0.85255 0.0
H457 H 0.06608 0.02191 0.84865 0.0
H458 H 0.09374 0.04518 0.80543 0.0
H459 H 0.08388 0.04165 0.75857 0.0
C460 C 0.55711 0.51005 0.60868 0.0
C461 C 0.52533 0.53052 0.59514 0.0
C462 C 0.55774 0.51178 0.63579 0.0
C463 C 0.5266 0.53415 0.64984 0.0
C464 C 0.49511 0.55459 0.63621 0.0
C465 C 0.49423 0.55263 0.60928 0.0
C466 C 0.52671 0.5385 0.67855 0.0
C467 C 0.54213 0.51202 0.69437 0.0
C468 C 0.53864 0.51677 0.72301 0.0
C469 C 0.53198 0.48254 0.7378 0.0
C470 C 0.52556 0.48614 0.76459 0.0
C471 C 0.52614 0.52415 0.77719 0.0
H472 H 0.54834 0.58197 0.72522 0.0
C473 C 0.53502 0.55842 0.76249 0.0
C474 C 0.54132 0.55482 0.73578 0.0
H475 H 0.53706 0.58818 0.77166 0.0
H476 H 0.58166 0.4929 0.59836 0.0
H477 H 0.58327 0.49634 0.64558 0.0
H478 H 0.47091 0.57221 0.64647 0.0
H479 H 0.46934 0.56889 0.59955 0.0
H480 H 0.51048 0.56368 0.68699 0.0
H481 H 0.55423 0.4847 0.68627 0.0
H482 H 0.53027 0.45287 0.72852 0.0
H483 H 0.51868 0.4591 0.77528 0.0
C484 C 0.54885 0.51748 0.42486 0.0
C485 C 0.51466 0.5346 0.43994 0.0
C486 C 0.54709 0.51739 0.3979 0.0
C487 C 0.51079 0.5342 0.38537 0.0
C488 C 0.47727 0.55205 0.40048 0.0
C489 C 0.47902 0.55214 0.42745 0.0
C490 C 0.50711 0.53427 0.3567 0.0
C491 C 0.5252 0.5073 0.34067 0.0
C492 C 0.51952 0.50581 0.31209 0.0
C493 C 0.52316 0.46945 0.29826 0.0
C494 C 0.51737 0.46639 0.27145 0.0
C495 C 0.50824 0.49981 0.25776 0.0
H496 H 0.50981 0.56847 0.30813 0.0
C497 C 0.5058 0.53654 0.27148 0.0
C498 C 0.51142 0.53957 0.29834 0.0
H499 H 0.49877 0.56283 0.26149 0.0
H500 H 0.57713 0.50413 0.43387 0.0
H501 H 0.57461 0.50458 0.38706 0.0
H502 H 0.44921 0.56558 0.39139 0.0
H503 H 0.45229 0.56581 0.43848 0.0
H504 H 0.48615 0.55577 0.34877 0.0
H505 H 0.54235 0.48351 0.34877 0.0
H506 H 0.52998 0.44309 0.30826 0.0
H507 H 0.52031 0.43783 0.26142 0.0
loop_
_geom_bond_atom_site_label_1
_geom_bond_atom_site_label_2
_geom_bond_distance
_geom_bond_site_symmetry_2
_ccdc_geom_bond_type
Co0 N5 2.057 . S
Co0 O17 2.021 . S
Co0 O20 2.062 1_455 S
Co0 O24 2.117 1_554 S
Co0 O25 2.020 1_565 S
C1 O21 1.259 1_455 S
C1 O24 1.258 1_545 S
Co2 N11 2.057 . S
Co2 O18 2.117 . S
Co2 O19 2.020 1_545 S
Co2 O21 2.021 1_554 S
Co2 O26 2.062 1_655 S
C3 N5 1.316 . S
C3 N6 1.347 . S
C3 H8 0.931 . S
C4 N5 1.375 1_556 S
C4 C7 1.350 . S
C4 H9 0.930 . S
N5 Co0 2.057 . S
N5 C3 1.316 . S
N5 C4 1.375 1_554 S
N6 C3 1.347 . S
N6 C7 1.373 1_554 S
C7 C4 1.350 . S
C7 N6 1.373 1_556 S
C7 H28 0.931 . S
H8 C3 0.931 . S
H9 C4 0.930 . S
C10 O17 1.259 1_545 S
C10 O18 1.258 1_455 S
N11 Co2 2.057 . S
N11 C12 1.316 . S
N11 C13 1.375 . S
C12 N11 1.316 . S
C12 N14 1.347 . S
C12 H23 0.931 1_554 S
C13 N11 1.375 . S
C13 C15 1.350 . S
C13 H22 0.930 . S
N14 C12 1.347 . S
N14 C15 1.373 . S
C15 C13 1.350 . S
C15 N14 1.373 . S
C15 H29 0.931 . S
C16 O19 1.256 . S
C16 O20 1.255 . S
O17 Co0 2.021 . S
O17 C10 1.259 1_565 S
O18 Co2 2.117 . S
O18 C10 1.258 1_655 S
O19 Co2 2.020 1_565 S
O19 C16 1.256 . S
O20 Co0 2.062 1_655 S
O20 C16 1.255 . S
O21 C1 1.259 1_655 S
O21 Co2 2.021 1_556 S
H22 C13 0.930 . S
H23 C12 0.931 1_556 S
O24 Co0 2.117 1_556 S
O24 C1 1.258 1_565 S
O25 Co0 2.020 1_545 S
O25 C27 1.256 . S
O26 Co2 2.062 1_455 S
O26 C27 1.255 . S
C27 O25 1.256 . S
C27 O26 1.255 . S
H28 C7 0.931 . S
H29 C15 0.931 . S
Co30 N35 2.057 . S
Co30 O47 2.021 . S
Co30 O50 2.062 . S
Co30 O54 2.117 . S
Co30 O55 2.020 . S
C31 O51 1.259 . S
C31 O54 1.258 . S
Co32 N41 2.057 . S
Co32 O48 2.117 . S
Co32 O49 2.020 . S
Co32 O51 2.021 . S
Co32 O56 2.062 . S
C33 N35 1.316 . S
C33 N36 1.347 . S
C33 H38 0.931 . S
C34 N35 1.375 . S
C34 C37 1.350 . S
C34 H39 0.930 . S
N35 Co30 2.057 . S
N35 C33 1.316 . S
N35 C34 1.375 . S
N36 C33 1.347 . S
N36 C37 1.373 . S
C37 C34 1.350 . S
C37 N36 1.373 . S
C37 H58 0.931 . S
H38 C33 0.931 . S
H39 C34 0.930 . S
C40 O47 1.259 . S
C40 O48 1.258 . S
N41 Co32 2.057 . S
N41 C42 1.316 . S
N41 C43 1.375 . S
C42 N41 1.316 . S
C42 N44 1.347 . S
C42 H53 0.931 . S
C43 N41 1.375 . S
C43 C45 1.350 . S
C43 H52 0.930 . S
N44 C42 1.347 . S
N44 C45 1.373 . S
C45 C43 1.350 . S
C45 N44 1.373 . S
C45 H59 0.931 . S
C46 O49 1.256 . S
C46 O50 1.255 . S
O47 Co30 2.021 . S
O47 C40 1.259 . S
O48 Co32 2.117 . S
O48 C40 1.258 . S
O49 Co32 2.020 . S
O49 C46 1.256 . S
O50 Co30 2.062 . S
O50 C46 1.255 . S
O51 C31 1.259 . S
O51 Co32 2.021 . S
H52 C43 0.930 . S
H53 C42 0.931 . S
O54 Co30 2.117 . S
O54 C31 1.258 . S
O55 Co30 2.020 . S
O55 C57 1.256 . S
O56 Co32 2.062 . S
O56 C57 1.255 . S
C57 O55 1.256 . S
C57 O56 1.255 . S
H58 C37 0.931 . S
H59 C45 0.931 . S
C60 C61 1.264 . S
C60 C65 1.479 . S
C60 C70 1.465 . S
C61 C60 1.264 . S
C61 C63 1.339 . S
C61 H88 0.931 . S
C62 C63 1.395 . S
C62 C64 1.320 . S
C63 C61 1.339 . S
C63 C62 1.395 . S
C63 H89 0.929 . S
C64 C62 1.320 . S
C64 C65 1.405 . S
C64 H90 0.930 . S
C65 C60 1.479 . S
C65 C64 1.405 . S
C65 H91 0.931 . S
U66 O67 2.454 1_545 S
U66 O68 2.458 1_545 S
U66 C69 2.984 1_545 S
U66 C70 2.847 1_455 S
U66 C83 2.882 . S
U66 O84 2.441 1_455 S
U66 O85 2.420 1_455 S
U66 O86 2.455 1_545 S
U66 O87 2.449 . S
O67 U66 2.454 1_565 S
O67 C69 1.353 . S
O68 U66 2.458 1_565 S
O68 C69 1.286 . S
C69 U66 2.984 1_565 S
C69 O67 1.353 . S
C69 O68 1.286 . S
C69 C71 1.363 . S
C70 C60 1.465 . S
C70 U66 2.847 1_655 S
C70 O84 1.249 . S
C70 O85 1.202 . S
C71 C69 1.363 . S
C71 C73 1.408 . S
C71 C76 1.342 . S
C72 C73 1.310 . S
C72 C75 1.461 . S
C72 H92 0.932 . S
C73 C71 1.408 . S
C73 C72 1.310 . S
C73 H93 0.930 . S
C74 C75 1.474 . S
C74 C76 1.285 . S
C74 H94 0.929 . S
C75 C72 1.461 . S
C75 C74 1.474 . S
C76 C71 1.342 . S
C76 C74 1.285 . S
C76 H95 0.930 . S
C77 C80 1.424 1_455 S
C77 C82 1.245 1_545 S
C77 C83 1.428 . S
C78 C81 1.260 1_565 S
C78 C82 1.477 . S
C78 H96 0.932 . S
C79 C80 1.384 . S
C79 C81 1.479 1_655 S
C79 H97 0.929 . S
C80 C77 1.424 1_655 S
C80 C79 1.384 . S
C80 H98 0.928 . S
C81 C78 1.260 1_545 S
C81 C79 1.479 1_455 S
C82 C77 1.245 1_565 S
C82 C78 1.477 . S
C82 H99 0.932 . S
C83 U66 2.882 . S
C83 C77 1.428 . S
C83 O86 1.301 1_545 S
C83 O87 1.282 . S
O84 U66 2.441 1_655 S
O84 C70 1.249 . S
O85 U66 2.420 1_655 S
O85 C70 1.202 . S
O86 U66 2.455 1_565 S
O86 C83 1.301 1_565 S
O87 U66 2.449 . S
O87 C83 1.282 . S
H88 C61 0.931 . S
H89 C63 0.929 . S
H90 C64 0.930 . S
H91 C65 0.931 . S
H92 C72 0.932 . S
H93 C73 0.930 . S
H94 C74 0.929 . S
H95 C76 0.930 . S
H96 C78 0.932 . S
H97 C79 0.929 . S
H98 C80 0.928 . S
H99 C82 0.932 . S
C100 C101 1.264 . S
C100 C105 1.479 . S
C100 C110 1.465 . S
C101 C100 1.264 . S
C101 C103 1.339 . S
C101 H128 0.931 . S
C102 C103 1.395 . S
C102 C104 1.320 . S
C103 C101 1.339 . S
C103 C102 1.395 . S
C103 H129 0.929 . S
C104 C102 1.320 . S
C104 C105 1.405 . S
C104 H130 0.930 . S
C105 C100 1.479 . S
C105 C104 1.405 . S
C105 H131 0.931 . S
U106 O107 2.454 . S
U106 O108 2.458 . S
U106 C109 2.984 . S
U106 C110 2.847 1_445 S
U106 C123 2.883 . S
U106 O124 2.441 1_445 S
U106 O125 2.420 1_445 S
U106 O126 2.455 . S
U106 O127 2.449 1_545 S
O107 U106 2.454 . S
O107 C109 1.353 . S
O108 U106 2.458 . S
O108 C109 1.286 . S
C109 U106 2.984 . S
C109 O107 1.353 . S
C109 O108 1.286 . S
C109 C111 1.363 . S
C110 C100 1.465 . S
C110 U106 2.847 1_665 S
C110 O124 1.249 . S
C110 O125 1.202 . S
C111 C109 1.363 . S
C111 C113 1.408 . S
C111 C116 1.342 . S
C112 C113 1.310 . S
C112 C115 1.461 . S
C112 H132 0.932 . S
C113 C111 1.408 . S
C113 C112 1.310 . S
C113 H133 0.930 . S
C114 C115 1.474 . S
C114 C116 1.285 . S
C114 H134 0.929 . S
C115 C112 1.461 . S
C115 C114 1.474 . S
C116 C111 1.342 . S
C116 C114 1.285 . S
C116 H135 0.930 . S
C117 C120 1.424 1_445 S
C117 C122 1.245 . S
C117 C123 1.428 . S
C118 C121 1.260 . S
C118 C122 1.477 . S
C118 H136 0.932 . S
C119 C120 1.384 . S
C119 C121 1.479 1_665 S
C119 H137 0.929 . S
C120 C117 1.424 1_665 S
C120 C119 1.384 . S
C120 H138 0.928 . S
C121 C118 1.260 . S
C121 C119 1.479 1_445 S
C122 C117 1.245 . S
C122 C118 1.477 . S
C122 H139 0.932 . S
C123 U106 2.883 . S
C123 C117 1.428 . S
C123 O126 1.307 . S
C123 O127 1.276 1_545 S
O124 U106 2.441 1_665 S
O124 C110 1.249 . S
O125 U106 2.420 1_665 S
O125 C110 1.202 . S
O126 U106 2.455 . S
O126 C123 1.307 . S
O127 U106 2.449 1_565 S
O127 C123 1.276 1_565 S
H128 C101 0.931 . S
H129 C103 0.929 . S
H130 C104 0.930 . S
H131 C105 0.931 . S
H132 C112 0.932 . S
H133 C113 0.930 . S
H134 C114 0.929 . S
H135 C116 0.930 . S
H136 C118 0.932 . S
H137 C119 0.929 . S
H138 C120 0.928 . S
H139 C122 0.932 . S
C140 C141 1.264 . S
C140 C145 1.479 . S
C140 C150 1.465 . S
C141 C140 1.264 . S
C141 C143 1.339 . S
C141 H168 0.931 . S
C142 C143 1.395 . S
C142 C144 1.320 1_556 S
C143 C141 1.339 . S
C143 C142 1.395 . S
C143 H169 0.929 . S
C144 C142 1.320 1_554 S
C144 C145 1.405 1_554 S
C144 H170 0.930 . S
C145 C140 1.479 . S
C145 C144 1.405 1_556 S
C145 H171 0.931 1_556 S
U146 O147 2.454 . S
U146 O148 2.458 . S
U146 C149 2.984 . S
U146 C150 2.847 . S
U146 C163 2.882 . S
U146 O164 2.441 . S
U146 O165 2.420 . S
U146 O166 2.455 . S
U146 O167 2.449 . S
O147 U146 2.454 . S
O147 C149 1.353 . S
O148 U146 2.458 . S
O148 C149 1.286 . S
C149 U146 2.984 . S
C149 O147 1.353 . S
C149 O148 1.286 . S
C149 C151 1.363 . S
C150 C140 1.465 . S
C150 U146 2.847 . S
C150 O164 1.249 . S
C150 O165 1.202 . S
C151 C149 1.363 . S
C151 C153 1.408 . S
C151 C156 1.342 . S
C152 C153 1.310 1_554 S
C152 C155 1.461 1_554 S
C152 H172 0.932 . S
C153 C151 1.408 . S
C153 C152 1.310 1_556 S
C153 H173 0.930 1_556 S
C154 C155 1.474 . S
C154 C156 1.285 . S
C154 H174 0.929 . S
C155 C152 1.461 1_556 S
C155 C154 1.474 . S
C156 C151 1.342 . S
C156 C154 1.285 . S
C156 H175 0.930 . S
C157 C160 1.424 . S
C157 C162 1.245 . S
C157 C163 1.428 . S
C158 C161 1.260 . S
C158 C162 1.477 . S
C158 H176 0.932 . S
C159 C160 1.384 . S
C159 C161 1.479 . S
C159 H177 0.929 . S
C160 C157 1.424 . S
C160 C159 1.384 . S
C160 H178 0.928 . S
C161 C158 1.260 . S
C161 C159 1.479 . S
C162 C157 1.245 . S
C162 C158 1.477 . S
C162 H179 0.932 . S
C163 U146 2.882 . S
C163 C157 1.428 . S
C163 O166 1.301 . S
C163 O167 1.282 . S
O164 U146 2.441 . S
O164 C150 1.249 . S
O165 U146 2.420 . S
O165 C150 1.202 . S
O166 U146 2.455 . S
O166 C163 1.301 . S
O167 U146 2.449 . S
O167 C163 1.282 . S
H168 C141 0.931 . S
H169 C143 0.929 . S
H170 C144 0.930 . S
H171 C145 0.931 1_554 S
H172 C152 0.932 . S
H173 C153 0.930 1_554 S
H174 C154 0.929 . S
H175 C156 0.930 . S
H176 C158 0.932 . S
H177 C159 0.929 . S
H178 C160 0.928 . S
H179 C162 0.932 . S
C180 C181 1.264 . S
C180 C185 1.479 . S
C180 C190 1.465 . S
C181 C180 1.264 . S
C181 C183 1.339 . S
C181 H208 0.931 . S
C182 C183 1.395 . S
C182 C184 1.320 . S
C183 C181 1.339 . S
C183 C182 1.395 . S
C183 H209 0.929 . S
C184 C182 1.320 . S
C184 C185 1.405 . S
C184 H210 0.930 1_554 S
C185 C180 1.479 . S
C185 C184 1.405 . S
C185 H211 0.931 . S
U186 O187 2.454 . S
U186 O188 2.458 . S
U186 C189 2.984 . S
U186 C190 2.847 . S
U186 C203 2.882 . S
U186 O204 2.441 . S
U186 O205 2.420 . S
U186 O206 2.455 . S
U186 O207 2.449 . S
O187 U186 2.454 . S
O187 C189 1.353 . S
O188 U186 2.458 . S
O188 C189 1.286 . S
C189 U186 2.984 . S
C189 O187 1.353 . S
C189 O188 1.286 . S
C189 C191 1.363 . S
C190 C180 1.465 . S
C190 U186 2.847 . S
C190 O204 1.249 . S
C190 O205 1.202 . S
C191 C189 1.363 . S
C191 C193 1.408 . S
C191 C196 1.342 . S
C192 C193 1.310 . S
C192 C195 1.461 . S
C192 H212 0.932 1_554 S
C193 C191 1.408 . S
C193 C192 1.310 . S
C193 H213 0.930 . S
C194 C195 1.474 . S
C194 C196 1.285 . S
C194 H214 0.929 . S
C195 C192 1.461 . S
C195 C194 1.474 . S
C196 C191 1.342 . S
C196 C194 1.285 . S
C196 H215 0.930 . S
C197 C200 1.424 . S
C197 C202 1.245 . S
C197 C203 1.428 . S
C198 C201 1.260 . S
C198 C202 1.477 . S
C198 H216 0.932 . S
C199 C200 1.384 . S
C199 C201 1.479 . S
C199 H217 0.929 . S
C200 C197 1.424 . S
C200 C199 1.384 . S
C200 H218 0.928 . S
C201 C198 1.260 . S
C201 C199 1.479 . S
C202 C197 1.245 . S
C202 C198 1.477 . S
C202 H219 0.932 . S
C203 U186 2.882 . S
C203 C197 1.428 . S
C203 O206 1.301 . S
C203 O207 1.282 . S
O204 U186 2.441 . S
O204 C190 1.249 . S
O205 U186 2.420 . S
O205 C190 1.202 . S
O206 U186 2.455 . S
O206 C203 1.301 . S
O207 U186 2.449 . S
O207 C203 1.282 . S
H208 C181 0.931 . S
H209 C183 0.929 . S
H210 C184 0.930 1_556 S
H211 C185 0.931 . S
H212 C192 0.932 1_556 S
H213 C193 0.930 . S
H214 C194 0.929 . S
H215 C196 0.930 . S
H216 C198 0.932 . S
H217 C199 0.929 . S
H218 C200 0.928 . S
H219 C202 0.932 . S
C220 C221 1.386 . S
C220 C222 1.383 . S
C220 H236 0.951 1_554 S
C221 C220 1.386 . S
C221 C225 1.383 . S
C222 C220 1.383 . S
C222 C223 1.402 . S
C222 H237 0.951 . S
C223 C222 1.402 . S
C223 C224 1.375 . S
C223 C226 1.481 . S
C224 C223 1.375 . S
C224 C225 1.367 . S
C224 H238 0.951 . S
C225 C221 1.383 . S
C225 C224 1.367 . S
C225 H239 0.950 . S
C226 C223 1.481 . S
C226 C227 1.297 . S
C226 H240 0.950 . S
C227 C226 1.297 . S
C227 C228 1.479 . S
C227 H241 0.950 . S
C228 C227 1.479 . S
C228 C229 1.375 . S
C228 C234 1.404 . S
C229 C228 1.375 . S
C229 C230 1.369 . S
C229 H242 0.950 . S
C230 C229 1.369 . S
C230 C231 1.392 . S
C230 H243 0.931 1_554 S
C231 C230 1.392 . S
C231 C233 1.384 . S
H232 C234 0.949 . S
C233 C231 1.384 . S
C233 C234 1.385 . S
C233 H235 0.950 . S
C234 C228 1.404 . S
C234 H232 0.949 . S
C234 C233 1.385 . S
H235 C233 0.950 . S
H236 C220 0.951 1_556 S
H237 C222 0.951 . S
H238 C224 0.951 . S
H239 C225 0.950 . S
H240 C226 0.950 . S
H241 C227 0.950 . S
H242 C229 0.950 . S
H243 C230 0.931 1_556 S
C244 C245 1.386 . S
C244 C246 1.383 . S
C244 H260 0.951 . S
C245 C244 1.386 . S
C245 C249 1.383 1_554 S
C246 C244 1.383 . S
C246 C247 1.402 1_554 S
C246 H261 0.951 . S
C247 C246 1.402 1_556 S
C247 C248 1.375 . S
C247 C250 1.481 . S
C248 C247 1.375 . S
C248 C249 1.367 . S
C248 H262 0.951 . S
C249 C245 1.383 1_556 S
C249 C248 1.367 . S
C249 H263 0.950 . S
C250 C247 1.481 . S
C250 C251 1.297 1_556 S
C250 H264 0.950 . S
C251 C250 1.297 1_554 S
C251 C252 1.479 1_554 S
C251 H265 0.950 . S
C252 C251 1.479 1_556 S
C252 C253 1.375 1_556 S
C252 C258 1.404 . S
C253 C252 1.375 1_554 S
C253 C254 1.369 . S
C253 H266 0.950 . S
C254 C253 1.369 . S
C254 C255 1.392 1_554 S
C254 H267 0.951 . S
C255 C254 1.392 1_556 S
C255 C257 1.384 . S
H256 C258 0.949 . S
C257 C255 1.384 . S
C257 C258 1.385 . S
C257 H259 0.950 . S
C258 C252 1.404 . S
C258 H256 0.949 . S
C258 C257 1.385 . S
H259 C257 0.950 . S
H260 C244 0.951 . S
H261 C246 0.951 . S
H262 C248 0.951 . S
H263 C249 0.950 . S
H264 C250 0.950 . S
H265 C251 0.950 . S
H266 C253 0.950 . S
H267 C254 0.951 . S
C268 C269 1.386 1_556 S
C268 C270 1.382 . S
C268 H284 0.951 . S
C269 C268 1.386 1_554 S
C269 C273 1.383 . S
C270 C268 1.382 . S
C270 C271 1.404 1_556 S
C270 H285 0.949 . S
C271 C270 1.404 1_554 S
C271 C272 1.375 . S
C271 C274 1.481 . S
C272 C271 1.375 . S
C272 C273 1.367 . S
C272 H286 0.951 . S
C273 C269 1.383 . S
C273 C272 1.367 . S
C273 H287 0.950 . S
C274 C271 1.481 . S
C274 C275 1.297 . S
C274 H288 0.950 . S
C275 C274 1.297 . S
C275 C276 1.479 . S
C275 H289 0.950 1_554 S
C276 C275 1.479 . S
C276 C277 1.375 1_554 S
C276 C282 1.404 . S
C277 C276 1.375 1_556 S
C277 C278 1.374 . S
C277 H290 0.950 . S
C278 C277 1.374 . S
C278 C279 1.354 1_556 S
C278 H291 0.986 . S
C279 C278 1.354 1_554 S
C279 C281 1.384 . S
H280 C282 0.949 . S
C281 C279 1.384 . S
C281 C282 1.385 . S
C281 H283 0.950 . S
C282 C276 1.404 . S
C282 H280 0.949 . S
C282 C281 1.385 . S
H283 C281 0.950 . S
H284 C268 0.951 . S
H285 C270 0.949 . S
H286 C272 0.951 . S
H287 C273 0.950 . S
H288 C274 0.950 . S
H289 C275 0.950 1_556 S
H290 C277 0.950 . S
H291 C278 0.986 . S
C292 C293 1.386 . S
C292 C294 1.383 . S
C292 H308 0.951 . S
C293 C292 1.386 . S
C293 C297 1.383 1_554 S
C294 C292 1.383 . S
C294 C295 1.402 . S
C294 H309 0.951 . S
C295 C294 1.402 . S
C295 C296 1.375 1_554 S
C295 C298 1.477 1_554 S
C296 C295 1.375 1_556 S
C296 C297 1.367 . S
C296 H310 0.951 . S
C297 C293 1.383 1_556 S
C297 C296 1.367 . S
C297 H311 0.950 . S
C298 C295 1.477 1_556 S
C298 C299 1.283 1_556 S
C298 H312 0.970 . S
C299 C298 1.283 1_554 S
C299 C300 1.479 . S
C299 H313 0.950 . S
C300 C299 1.479 . S
C300 C301 1.375 . S
C300 C306 1.404 1_554 S
C301 C300 1.375 . S
C301 C302 1.369 . S
C301 H314 0.950 . S
C302 C301 1.369 . S
C302 C303 1.396 1_554 S
C302 H315 0.951 . S
C303 C302 1.396 1_556 S
C303 C305 1.382 . S
H304 C306 0.949 . S
C305 C303 1.382 . S
C305 C306 1.385 . S
C305 H307 0.950 . S
C306 C300 1.404 1_556 S
C306 H304 0.949 . S
C306 C305 1.385 . S
H307 C305 0.950 . S
H308 C292 0.951 . S
H309 C294 0.951 . S
H310 C296 0.951 . S
H311 C297 0.950 . S
H312 C298 0.970 . S
H313 C299 0.950 . S
H314 C301 0.950 . S
H315 C302 0.951 . S
C316 C317 1.386 . S
C316 C318 1.383 . S
C316 H332 0.951 . S
C317 C316 1.386 . S
C317 C321 1.383 . S
C318 C316 1.383 . S
C318 C319 1.402 . S
C318 H333 0.951 . S
C319 C318 1.402 . S
C319 C320 1.375 . S
C319 C322 1.481 . S
C320 C319 1.375 . S
C320 C321 1.367 . S
C320 H334 0.951 . S
C321 C317 1.383 . S
C321 C320 1.367 . S
C321 H335 0.950 . S
C322 C319 1.481 . S
C322 C323 1.297 . S
C322 H336 0.950 . S
C323 C322 1.297 . S
C323 C324 1.479 . S
C323 H337 0.950 . S
C324 C323 1.479 . S
C324 C325 1.375 . S
C324 C330 1.404 . S
C325 C324 1.375 . S
C325 C326 1.369 . S
C325 H338 0.950 . S
C326 C325 1.369 . S
C326 C327 1.392 . S
C326 H339 0.951 . S
C327 C326 1.392 . S
C327 C329 1.384 . S
H328 C330 0.949 . S
C329 C327 1.384 . S
C329 C330 1.385 . S
C329 H331 0.950 . S
C330 C324 1.404 . S
C330 H328 0.949 . S
C330 C329 1.385 . S
H331 C329 0.950 . S
H332 C316 0.951 . S
H333 C318 0.951 . S
H334 C320 0.951 . S
H335 C321 0.950 . S
H336 C322 0.950 . S
H337 C323 0.950 . S
H338 C325 0.950 . S
H339 C326 0.951 . S
C340 C341 1.386 . S
C340 C342 1.383 . S
C340 H356 0.951 . S
C341 C340 1.386 . S
C341 C345 1.383 . S
C342 C340 1.383 . S
C342 C343 1.402 . S
C342 H357 0.951 . S
C343 C342 1.402 . S
C343 C344 1.375 . S
C343 C346 1.481 . S
C344 C343 1.375 . S
C344 C345 1.367 . S
C344 H358 0.951 . S
C345 C341 1.383 . S
C345 C344 1.367 . S
C345 H359 0.950 . S
C346 C343 1.481 . S
C346 C347 1.297 . S
C346 H360 0.950 . S
C347 C346 1.297 . S
C347 C348 1.479 . S
C347 H361 0.950 . S
C348 C347 1.479 . S
C348 C349 1.375 . S
C348 C354 1.404 . S
C349 C348 1.375 . S
C349 C350 1.369 . S
C349 H362 0.950 . S
C350 C349 1.369 . S
C350 C351 1.392 . S
C350 H363 0.951 . S
C351 C350 1.392 . S
C351 C353 1.384 . S
H352 C354 0.949 . S
C353 C351 1.384 . S
C353 C354 1.385 . S
C353 H355 0.950 . S
C354 C348 1.404 . S
C354 H352 0.949 . S
C354 C353 1.385 . S
H355 C353 0.950 . S
H356 C340 0.951 . S
H357 C342 0.951 . S
H358 C344 0.951 . S
H359 C345 0.950 . S
H360 C346 0.950 . S
H361 C347 0.950 . S
H362 C349 0.950 . S
H363 C350 0.951 . S
C364 C365 1.386 . S
C364 C366 1.383 . S
C364 H380 0.951 . S
C365 C364 1.386 . S
C365 C369 1.383 . S
C366 C364 1.383 . S
C366 C367 1.402 . S
C366 H381 0.951 . S
C367 C366 1.402 . S
C367 C368 1.375 . S
C367 C370 1.481 . S
C368 C367 1.375 . S
C368 C369 1.367 . S
C368 H382 0.951 . S
C369 C365 1.383 . S
C369 C368 1.367 . S
C369 H383 0.950 . S
C370 C367 1.481 . S
C370 C371 1.297 . S
C370 H384 0.950 . S
C371 C370 1.297 . S
C371 C372 1.479 . S
C371 H385 0.950 . S
C372 C371 1.479 . S
C372 C373 1.375 . S
C372 C378 1.404 . S
C373 C372 1.375 . S
C373 C374 1.369 . S
C373 H386 0.950 . S
C374 C373 1.369 . S
C374 C375 1.392 . S
C374 H387 0.951 . S
C375 C374 1.392 . S
C375 C377 1.384 . S
H376 C378 0.949 . S
C377 C375 1.384 . S
C377 C378 1.385 . S
C377 H379 0.950 . S
C378 C372 1.404 . S
C378 H376 0.949 . S
C378 C377 1.385 . S
H379 C377 0.950 . S
H380 C364 0.951 . S
H381 C366 0.951 . S
H382 C368 0.951 . S
H383 C369 0.950 . S
H384 C370 0.950 . S
H385 C371 0.950 . S
H386 C373 0.950 . S
H387 C374 0.951 . S
C388 C389 1.386 . S
C388 C390 1.383 . S
C388 H404 0.951 . S
C389 C388 1.386 . S
C389 C393 1.383 . S
C390 C388 1.383 . S
C390 C391 1.402 . S
C390 H405 0.951 . S
C391 C390 1.402 . S
C391 C392 1.375 . S
C391 C394 1.481 . S
C392 C391 1.375 . S
C392 C393 1.367 . S
C392 H406 0.951 . S
C393 C389 1.383 . S
C393 C392 1.367 . S
C393 H407 0.950 . S
C394 C391 1.481 . S
C394 C395 1.297 . S
C394 H408 0.950 . S
C395 C394 1.297 . S
C395 C396 1.479 . S
C395 H409 0.950 . S
C396 C395 1.479 . S
C396 C397 1.375 . S
C396 C402 1.404 . S
C397 C396 1.375 . S
C397 C398 1.369 . S
C397 H410 0.950 . S
C398 C397 1.369 . S
C398 C399 1.392 . S
C398 H411 0.951 . S
C399 C398 1.392 . S
C399 C401 1.384 . S
H400 C402 0.949 . S
C401 C399 1.384 . S
C401 C402 1.385 . S
C401 H403 0.950 . S
C402 C396 1.404 . S
C402 H400 0.949 . S
C402 C401 1.385 . S
H403 C401 0.950 . S
H404 C388 0.951 . S
H405 C390 0.951 . S
H406 C392 0.951 . S
H407 C393 0.950 . S
H408 C394 0.950 . S
H409 C395 0.950 . S
H410 C397 0.950 . S
H411 C398 0.951 . S
C412 C413 1.386 . S
C412 C414 1.383 . S
C412 H428 0.951 . S
C413 C412 1.386 . S
C413 C417 1.383 1_455 S
C414 C412 1.383 . S
C414 C415 1.402 1_455 S
C414 H429 0.951 . S
C415 C414 1.402 1_655 S
C415 C416 1.375 . S
C415 C418 1.481 . S
C416 C415 1.375 . S
C416 C417 1.367 . S
C416 H430 0.951 . S
C417 C413 1.383 1_655 S
C417 C416 1.367 . S
C417 H431 0.950 . S
C418 C415 1.481 . S
C418 C419 1.297 1_655 S
C418 H432 0.950 . S
C419 C418 1.297 1_455 S
C419 C420 1.479 . S
C419 H433 0.950 . S
C420 C419 1.479 . S
C420 C421 1.375 . S
C420 C426 1.404 1_455 S
C421 C420 1.375 . S
C421 C422 1.369 . S
C421 H434 0.950 . S
C422 C421 1.369 . S
C422 C423 1.392 . S
C422 H435 0.951 . S
C423 C422 1.392 . S
C423 C425 1.384 1_455 S
H424 C426 0.949 . S
C425 C423 1.384 1_655 S
C425 C426 1.385 . S
C425 H427 0.950 . S
C426 C420 1.404 1_655 S
C426 H424 0.949 . S
C426 C425 1.385 . S
H427 C425 0.950 . S
H428 C412 0.951 . S
H429 C414 0.951 . S
H430 C416 0.951 . S
H431 C417 0.950 . S
H432 C418 0.950 . S
H433 C419 0.950 . S
H434 C421 0.950 . S
H435 C422 0.951 . S
C436 C437 1.386 . S
C436 C438 1.383 . S
C436 H452 0.951 . S
C437 C436 1.386 . S
C437 C441 1.383 1_445 S
C438 C436 1.383 . S
C438 C439 1.402 1_545 S
C438 H453 0.951 . S
C439 C438 1.402 1_565 S
C439 C440 1.375 1_455 S
C439 C442 1.480 1_455 S
C440 C439 1.375 1_655 S
C440 C441 1.367 . S
C440 H454 0.951 . S
C441 C437 1.383 1_665 S
C441 C440 1.367 . S
C441 H455 0.950 . S
C442 C439 1.480 1_655 S
C442 C443 1.291 1_665 S
C442 H456 0.957 . S
C443 C442 1.291 1_445 S
C443 C444 1.479 . S
C443 H457 0.950 . S
C444 C443 1.479 . S
C444 C445 1.375 . S
C444 C450 1.404 1_445 S
C445 C444 1.375 . S
C445 C446 1.369 . S
C445 H458 0.950 . S
C446 C445 1.369 . S
C446 C447 1.392 . S
C446 H459 0.951 . S
C447 C446 1.392 . S
C447 C449 1.384 1_445 S
H448 C450 0.949 . S
C449 C447 1.384 1_665 S
C449 C450 1.385 . S
C449 H451 0.950 . S
C450 C444 1.404 1_665 S
C450 H448 0.949 . S
C450 C449 1.385 . S
H451 C449 0.950 . S
H452 C436 0.951 . S
H453 C438 0.951 . S
H454 C440 0.951 . S
H455 C441 0.950 . S
H456 C442 0.957 . S
H457 C443 0.950 . S
H458 C445 0.950 . S
H459 C446 0.951 . S
C460 C461 1.386 . S
C460 C462 1.383 . S
C460 H476 0.951 . S
C461 C460 1.386 . S
C461 C465 1.383 . S
C462 C460 1.383 . S
C462 C463 1.402 . S
C462 H477 0.951 . S
C463 C462 1.402 . S
C463 C464 1.375 . S
C463 C466 1.481 . S
C464 C463 1.375 . S
C464 C465 1.367 . S
C464 H478 0.951 . S
C465 C461 1.383 . S
C465 C464 1.367 . S
C465 H479 0.950 . S
C466 C463 1.481 . S
C466 C467 1.297 . S
C466 H480 0.950 . S
C467 C466 1.297 . S
C467 C468 1.479 . S
C467 H481 0.950 . S
C468 C467 1.479 . S
C468 C469 1.375 . S
C468 C474 1.404 . S
C469 C468 1.375 . S
C469 C470 1.369 . S
C469 H482 0.950 . S
C470 C469 1.369 . S
C470 C471 1.392 . S
C470 H483 0.951 . S
C471 C470 1.392 . S
C471 C473 1.384 . S
H472 C474 0.949 . S
C473 C471 1.384 . S
C473 C474 1.385 . S
C473 H475 0.950 . S
C474 C468 1.404 . S
C474 H472 0.949 . S
C474 C473 1.385 . S
H475 C473 0.950 . S
H476 C460 0.951 . S
H477 C462 0.951 . S
H478 C464 0.951 . S
H479 C465 0.950 . S
H480 C466 0.950 . S
H481 C467 0.950 . S
H482 C469 0.950 . S
H483 C470 0.951 . S
C484 C485 1.386 . S
C484 C486 1.383 . S
C484 H500 0.951 . S
C485 C484 1.386 . S
C485 C489 1.383 . S
C486 C484 1.383 . S
C486 C487 1.402 . S
C486 H501 0.951 . S
C487 C486 1.402 . S
C487 C488 1.375 . S
C487 C490 1.481 . S
C488 C487 1.375 . S
C488 C489 1.367 . S
C488 H502 0.951 . S
C489 C485 1.383 . S
C489 C488 1.367 . S
C489 H503 0.950 . S
C490 C487 1.481 . S
C490 C491 1.297 . S
C490 H504 0.950 . S
C491 C490 1.297 . S
C491 C492 1.479 . S
C491 H505 0.950 . S
C492 C491 1.479 . S
C492 C493 1.375 . S
C492 C498 1.404 . S
C493 C492 1.375 . S
C493 C494 1.369 . S
C493 H506 0.950 . S
C494 C493 1.369 . S
C494 C495 1.392 . S
C494 H507 0.951 . S
C495 C494 1.392 . S
C495 C497 1.384 . S
H496 C498 0.949 . S
C497 C495 1.384 . S
C497 C498 1.385 . S
C497 H499 0.950 . S
C498 C492 1.404 . S
C498 H496 0.949 . S
C498 C497 1.385 . S
H499 C497 0.950 . S
H500 C484 0.951 . S
H501 C486 0.951 . S
H502 C488 0.951 . S
H503 C489 0.950 . S
H504 C490 0.950 . S
H505 C491 0.950 . S
H506 C493 0.950 . S
H507 C494 0.951 . S
C231 C182 1.445 . S
C221 C27 1.490 . S
C245 N6 1.371 . S
C255 C142 1.409 . S
C269 C16 1.469 . S
C279 C195 1.422 . S
C293 N14 1.419 . S
C303 C155 1.408 . S
C317 C57 1.489 . S
C327 C102 1.481 . S
C341 N36 1.374 . S
C351 C62 1.418 . S
C375 C115 1.449 . S
C365 C46 1.476 . S
C399 C75 1.404 . S
C389 N44 1.379 . S
C413 C10 1.394 . S
C423 C81 1.347 . S
C437 C1 1.523 . S
C447 C121 1.480 . S
C471 C161 1.344 . S
C461 C40 1.390 . S
C485 C31 1.516 . S
C495 C201 1.526 . S
