# Generated by pormake.
# Topology ocu, (6,8)-cn, num edge types: 1
# Building blocks:
#     Node 0, Type 0, BuildingBlock: VOLQOD_clean_sbu_1, # of connection points: 6
#     Node 1, Type 0, BuildingBlock: VOLQOD_clean_sbu_1, # of connection points: 6
#     Node 2, Type 0, BuildingBlock: VOLQOD_clean_sbu_1, # of connection points: 6
#     Node 3, Type 0, BuildingBlock: VOLQOD_clean_sbu_1, # of connection points: 6
#     Node 4, Type 0, BuildingBlock: VOLQOD_clean_sbu_1, # of connection points: 6
#     Node 5, Type 0, BuildingBlock: VOLQOD_clean_sbu_1, # of connection points: 6
#     Node 6, Type 0, BuildingBlock: VOLQOD_clean_sbu_1, # of connection points: 6
#     Node 7, Type 0, BuildingBlock: VOLQOD_clean_sbu_1, # of connection points: 6
#     Node 8, Type 1, BuildingBlock: VETTIZ_charged_sbu_0, # of connection points: 8
#     Node 9, Type 1, BuildingBlock: VETTIZ_charged_sbu_0, # of connection points: 8
#     Node 10, Type 1, BuildingBlock: VETTIZ_charged_sbu_0, # of connection points: 8
#     Node 11, Type 1, BuildingBlock: VETTIZ_charged_sbu_0, # of connection points: 8
#     Node 12, Type 1, BuildingBlock: VETTIZ_charged_sbu_0, # of connection points: 8
#     Node 13, Type 1, BuildingBlock: VETTIZ_charged_sbu_0, # of connection points: 8
#     Edge 14, Type (0, 1), BuildingBlock: AJUNOK_clean_linker_0, # of connection points: 2
#     Edge 15, Type (0, 1), BuildingBlock: AJUNOK_clean_linker_0, # of connection points: 2
#     Edge 16, Type (0, 1), BuildingBlock: AJUNOK_clean_linker_0, # of connection points: 2
#     Edge 17, Type (0, 1), BuildingBlock: AJUNOK_clean_linker_0, # of connection points: 2
#     Edge 18, Type (0, 1), BuildingBlock: AJUNOK_clean_linker_0, # of connection points: 2
#     Edge 19, Type (0, 1), BuildingBlock: AJUNOK_clean_linker_0, # of connection points: 2
#     Edge 20, Type (0, 1), BuildingBlock: AJUNOK_clean_linker_0, # of connection points: 2
#     Edge 21, Type (0, 1), BuildingBlock: AJUNOK_clean_linker_0, # of connection points: 2
#     Edge 22, Type (0, 1), BuildingBlock: AJUNOK_clean_linker_0, # of connection points: 2
#     Edge 23, Type (0, 1), BuildingBlock: AJUNOK_clean_linker_0, # of connection points: 2
#     Edge 24, Type (0, 1), BuildingBlock: AJUNOK_clean_linker_0, # of connection points: 2
#     Edge 25, Type (0, 1), BuildingBlock: AJUNOK_clean_linker_0, # of connection points: 2
#     Edge 26, Type (0, 1), BuildingBlock: AJUNOK_clean_linker_0, # of connection points: 2
#     Edge 27, Type (0, 1), BuildingBlock: AJUNOK_clean_linker_0, # of connection points: 2
#     Edge 28, Type (0, 1), BuildingBlock: AJUNOK_clean_linker_0, # of connection points: 2
#     Edge 29, Type (0, 1), BuildingBlock: AJUNOK_clean_linker_0, # of connection points: 2
#     Edge 30, Type (0, 1), BuildingBlock: AJUNOK_clean_linker_0, # of connection points: 2
#     Edge 31, Type (0, 1), BuildingBlock: AJUNOK_clean_linker_0, # of connection points: 2
#     Edge 32, Type (0, 1), BuildingBlock: AJUNOK_clean_linker_0, # of connection points: 2
#     Edge 33, Type (0, 1), BuildingBlock: AJUNOK_clean_linker_0, # of connection points: 2
#     Edge 34, Type (0, 1), BuildingBlock: AJUNOK_clean_linker_0, # of connection points: 2
#     Edge 35, Type (0, 1), BuildingBlock: AJUNOK_clean_linker_0, # of connection points: 2
#     Edge 36, Type (0, 1), BuildingBlock: AJUNOK_clean_linker_0, # of connection points: 2
#     Edge 37, Type (0, 1), BuildingBlock: AJUNOK_clean_linker_0, # of connection points: 2
#     Edge 38, Type (0, 1), BuildingBlock: AJUNOK_clean_linker_0, # of connection points: 2
#     Edge 39, Type (0, 1), BuildingBlock: AJUNOK_clean_linker_0, # of connection points: 2
#     Edge 40, Type (0, 1), BuildingBlock: AJUNOK_clean_linker_0, # of connection points: 2
#     Edge 41, Type (0, 1), BuildingBlock: AJUNOK_clean_linker_0, # of connection points: 2
#     Edge 42, Type (0, 1), BuildingBlock: AJUNOK_clean_linker_0, # of connection points: 2
#     Edge 43, Type (0, 1), BuildingBlock: AJUNOK_clean_linker_0, # of connection points: 2
#     Edge 44, Type (0, 1), BuildingBlock: AJUNOK_clean_linker_0, # of connection points: 2
#     Edge 45, Type (0, 1), BuildingBlock: AJUNOK_clean_linker_0, # of connection points: 2
#     Edge 46, Type (0, 1), BuildingBlock: AJUNOK_clean_linker_0, # of connection points: 2
#     Edge 47, Type (0, 1), BuildingBlock: AJUNOK_clean_linker_0, # of connection points: 2
#     Edge 48, Type (0, 1), BuildingBlock: AJUNOK_clean_linker_0, # of connection points: 2
#     Edge 49, Type (0, 1), BuildingBlock: AJUNOK_clean_linker_0, # of connection points: 2
#     Edge 50, Type (0, 1), BuildingBlock: AJUNOK_clean_linker_0, # of connection points: 2
#     Edge 51, Type (0, 1), BuildingBlock: AJUNOK_clean_linker_0, # of connection points: 2
#     Edge 52, Type (0, 1), BuildingBlock: AJUNOK_clean_linker_0, # of connection points: 2
#     Edge 53, Type (0, 1), BuildingBlock: AJUNOK_clean_linker_0, # of connection points: 2
#     Edge 54, Type (0, 1), BuildingBlock: AJUNOK_clean_linker_0, # of connection points: 2
#     Edge 55, Type (0, 1), BuildingBlock: AJUNOK_clean_linker_0, # of connection points: 2
#     Edge 56, Type (0, 1), BuildingBlock: AJUNOK_clean_linker_0, # of connection points: 2
#     Edge 57, Type (0, 1), BuildingBlock: AJUNOK_clean_linker_0, # of connection points: 2
#     Edge 58, Type (0, 1), BuildingBlock: AJUNOK_clean_linker_0, # of connection points: 2
#     Edge 59, Type (0, 1), BuildingBlock: AJUNOK_clean_linker_0, # of connection points: 2
#     Edge 60, Type (0, 1), BuildingBlock: AJUNOK_clean_linker_0, # of connection points: 2
#     Edge 61, Type (0, 1), BuildingBlock: AJUNOK_clean_linker_0, # of connection points: 2
# Relax obj value: 0.154
# Max RMSD: 0.302
# Mean RMSD: 0.175
data_MOF--net-ocu--node1-VOLQOD_clean_sbu_1--node2-VETTIZ_charged_sbu_0--edge1-AJUNOK_clean_linker_0
_symmetry_space_group_name_H-M    P1
_symmetry_Int_Tables_number       1
_symmetry_cell_setting            triclinic
loop_
_symmetry_equiv_pos_as_xyz
'x, y, z'
_cell_length_a     29.443048
_cell_length_b     29.797092
_cell_length_c     29.43984
_cell_angle_alpha  89.899552
_cell_angle_beta   90.061646
_cell_angle_gamma 89.504163
loop_
_atom_site_label
_atom_site_type_symbol
_atom_site_fract_x
_atom_site_fract_y
_atom_site_fract_z
_atom_type_partial_charge
O0 O 0.32607 0.34963 0.25211 0.0
Zn1 Zn 0.29509 0.30105 0.29237 0.0
O2 O 0.26386 0.25682 0.25304 0.0
Zn3 Zn 0.19878 0.26292 0.25671 0.0
Zn4 Zn 0.27878 0.26623 0.191 0.0
Zn5 Zn 0.28025 0.19514 0.2669 0.0
O6 O 0.17093 0.21151 0.28851 0.0
O7 O 0.22798 0.16302 0.29752 0.0
O8 O 0.24708 0.32896 0.33529 0.0
O9 O 0.18332 0.31049 0.2995 0.0
O10 O 0.16811 0.27575 0.19708 0.0
O11 O 0.22593 0.26968 0.14977 0.0
O12 O 0.32112 0.22043 0.1691 0.0
O13 O 0.34409 0.26861 0.33065 0.0
O14 O 0.31138 0.16194 0.21435 0.0
O15 O 0.3293 0.1977 0.31226 0.0
C16 C 0.32722 0.35279 0.20872 0.0
C17 C 0.1869 0.17517 0.30458 0.0
C18 C 0.18395 0.2762 0.15689 0.0
C19 C 0.20373 0.33013 0.33169 0.0
C20 C 0.32989 0.18007 0.17976 0.0
C21 C 0.352 0.22652 0.33419 0.0
O22 O 0.30959 0.32342 0.18338 0.0
O23 O 0.76085 0.18743 0.1908 0.0
Zn24 Zn 0.80287 0.22218 0.238 0.0
O25 O 0.76333 0.25577 0.28214 0.0
Zn26 Zn 0.76574 0.3201 0.27333 0.0
Zn27 Zn 0.70014 0.2406 0.27256 0.0
Zn28 Zn 0.78035 0.24459 0.34619 0.0
O29 O 0.78958 0.35287 0.32667 0.0
O30 O 0.80858 0.30061 0.37685 0.0
O31 O 0.84505 0.26874 0.20479 0.0
O32 O 0.81314 0.33236 0.22826 0.0
O33 O 0.70771 0.34922 0.25174 0.0
O34 O 0.6601 0.29224 0.25314 0.0
O35 O 0.67578 0.21115 0.32697 0.0
O36 O 0.84346 0.17663 0.27559 0.0
O37 O 0.72845 0.21397 0.38102 0.0
O38 O 0.82872 0.19757 0.34684 0.0
C39 C 0.71794 0.17964 0.19207 0.0
C40 C 0.80903 0.34146 0.36343 0.0
C41 C 0.66825 0.33338 0.24559 0.0
C42 C 0.84319 0.31183 0.20521 0.0
C43 C 0.68941 0.20177 0.36684 0.0
C44 C 0.85 0.173 0.31862 0.0
O45 O 0.69302 0.1966 0.22277 0.0
O46 O 0.69133 0.67664 0.2543 0.0
Zn47 Zn 0.72629 0.71488 0.30223 0.0
O48 O 0.7694 0.7548 0.26971 0.0
Zn49 Zn 0.83262 0.74027 0.28282 0.0
Zn50 Zn 0.76009 0.75186 0.20412 0.0
Zn51 Zn 0.76158 0.8165 0.28822 0.0
O52 O 0.86805 0.78965 0.31301 0.0
O53 O 0.81449 0.84182 0.31937 0.0
O54 O 0.76326 0.67214 0.34541 0.0
O55 O 0.83406 0.6905 0.32661 0.0
O56 O 0.8651 0.71787 0.22804 0.0
O57 O 0.81534 0.72829 0.17223 0.0
O58 O 0.74307 0.81139 0.17776 0.0
O59 O 0.68037 0.75462 0.33918 0.0
O60 O 0.74496 0.85663 0.2374 0.0
O61 O 0.71146 0.82202 0.33137 0.0
C62 C 0.68753 0.68014 0.21101 0.0
C63 C 0.85474 0.82816 0.32603 0.0
C64 C 0.85403 0.71521 0.18642 0.0
C65 C 0.80638 0.66712 0.34938 0.0
C66 C 0.73831 0.85002 0.19543 0.0
C67 C 0.68148 0.79671 0.3481 0.0
O68 O 0.71037 0.70867 0.18864 0.0
O69 O 0.31087 0.77325 0.32155 0.0
Zn70 Zn 0.27043 0.73508 0.28353 0.0
O71 O 0.23346 0.77311 0.24195 0.0
Zn72 Zn 0.16964 0.7614 0.24974 0.0
Zn73 Zn 0.23952 0.83537 0.25503 0.0
Zn74 Zn 0.25027 0.76194 0.18011 0.0
O75 O 0.14653 0.72192 0.20059 0.0
O76 O 0.20173 0.72446 0.14908 0.0
O77 O 0.23084 0.70422 0.32967 0.0
O78 O 0.16335 0.72862 0.30644 0.0
O79 O 0.12976 0.81442 0.26403 0.0
O80 O 0.18473 0.85859 0.28729 0.0
O81 O 0.26486 0.87026 0.20288 0.0
O82 O 0.31215 0.69221 0.24946 0.0
O83 O 0.27236 0.81876 0.14862 0.0
O84 O 0.30485 0.72218 0.18063 0.0
C85 C 0.31075 0.81558 0.32617 0.0
C86 C 0.16344 0.70971 0.16279 0.0
C87 C 0.14382 0.84555 0.28977 0.0
C88 C 0.18813 0.70833 0.33513 0.0
C89 C 0.27848 0.85848 0.16357 0.0
C90 C 0.3246 0.69546 0.20815 0.0
O91 O 0.2855 0.84104 0.30242 0.0
O92 O 0.25683 0.69308 0.6829 0.0
Zn93 Zn 0.2986 0.73406 0.72115 0.0
O94 O 0.26207 0.76655 0.76824 0.0
Zn95 Zn 0.2696 0.83104 0.7656 0.0
Zn96 Zn 0.19768 0.75488 0.76098 0.0
Zn97 Zn 0.28025 0.75062 0.82894 0.0
O98 O 0.30805 0.8576 0.81548 0.0
O99 O 0.31027 0.80048 0.86319 0.0
O100 O 0.32744 0.78095 0.678 0.0
O101 O 0.30271 0.84399 0.70989 0.0
O102 O 0.21126 0.86473 0.75711 0.0
O103 O 0.16482 0.80987 0.73783 0.0
O104 O 0.16971 0.72988 0.81829 0.0
O105 O 0.34789 0.6941 0.75314 0.0
O106 O 0.22918 0.72423 0.86422 0.0
O107 O 0.32861 0.70506 0.82545 0.0
C108 C 0.21392 0.68715 0.68496 0.0
C109 C 0.32108 0.84043 0.85286 0.0
C110 C 0.17416 0.85147 0.73976 0.0
C111 C 0.32393 0.82383 0.67844 0.0
C112 C 0.18727 0.71799 0.8561 0.0
C113 C 0.35341 0.68639 0.79564 0.0
O114 O 0.18926 0.708 0.71354 0.0
O115 O 0.19003 0.1827 0.74194 0.0
Zn116 Zn 0.22563 0.22461 0.78577 0.0
O117 O 0.2674 0.26363 0.74941 0.0
Zn118 Zn 0.33154 0.25308 0.76274 0.0
Zn119 Zn 0.25737 0.25549 0.68472 0.0
Zn120 Zn 0.2569 0.32629 0.76161 0.0
O121 O 0.3622 0.30496 0.79794 0.0
O122 O 0.30494 0.35347 0.80068 0.0
O123 O 0.26467 0.18412 0.82961 0.0
O124 O 0.33384 0.20263 0.8058 0.0
O125 O 0.36514 0.22758 0.70754 0.0
O126 O 0.31101 0.2257 0.65511 0.0
O127 O 0.23622 0.31194 0.653 0.0
O128 O 0.17739 0.26539 0.81901 0.0
O129 O 0.24531 0.36331 0.70625 0.0
O130 O 0.19963 0.33243 0.79516 0.0
C131 C 0.18548 0.18459 0.69872 0.0
C132 C 0.34496 0.34184 0.81229 0.0
C133 C 0.35106 0.21584 0.66821 0.0
C134 C 0.30796 0.17872 0.83014 0.0
C135 C 0.23352 0.35251 0.6662 0.0
C136 C 0.17151 0.30806 0.81624 0.0
O137 O 0.20803 0.21213 0.67503 0.0
O138 O 0.83414 0.26218 0.82898 0.0
Zn139 Zn 0.80725 0.2247 0.7805 0.0
O140 O 0.7652 0.26174 0.74446 0.0
Zn141 Zn 0.70421 0.24859 0.76133 0.0
Zn142 Zn 0.77355 0.32404 0.7541 0.0
Zn143 Zn 0.77582 0.25066 0.68081 0.0
O144 O 0.67298 0.22164 0.70932 0.0
O145 O 0.72575 0.21418 0.65548 0.0
O146 O 0.77515 0.17469 0.81382 0.0
O147 O 0.70471 0.2021 0.80952 0.0
O148 O 0.66927 0.30119 0.78609 0.0
O149 O 0.71771 0.35648 0.77463 0.0
O150 O 0.79979 0.35182 0.699 0.0
O151 O 0.85896 0.20132 0.74268 0.0
O152 O 0.78343 0.30509 0.64303 0.0
O153 O 0.83603 0.22068 0.6734 0.0
C154 C 0.83431 0.30445 0.83397 0.0
C155 C 0.68588 0.20772 0.67061 0.0
C156 C 0.6796 0.3424 0.78866 0.0
C157 C 0.73344 0.17395 0.82503 0.0
C158 C 0.79945 0.34191 0.65692 0.0
C159 C 0.86587 0.20454 0.70016 0.0
O160 O 0.81449 0.33104 0.80644 0.0
O161 O 0.83266 0.81035 0.75238 0.0
Zn162 Zn 0.78876 0.77593 0.7955 0.0
O163 O 0.74523 0.74499 0.75602 0.0
Zn164 Zn 0.68335 0.75371 0.77323 0.0
Zn165 Zn 0.75112 0.76785 0.69587 0.0
Zn166 Zn 0.75506 0.68128 0.75264 0.0
O167 O 0.66222 0.70126 0.80939 0.0
O168 O 0.70452 0.64581 0.78171 0.0
O169 O 0.75068 0.81909 0.83784 0.0
O170 O 0.68 0.8064 0.8135 0.0
O171 O 0.64221 0.76519 0.7198 0.0
O172 O 0.69208 0.77701 0.6649 0.0
O173 O 0.78906 0.7272 0.65943 0.0
O174 O 0.82711 0.72768 0.83094 0.0
O175 O 0.77654 0.66082 0.69085 0.0
O176 O 0.80608 0.66676 0.79323 0.0
C177 C 0.82398 0.82861 0.71387 0.0
C178 C 0.67306 0.65988 0.80795 0.0
C179 C 0.6513 0.77451 0.67858 0.0
C180 C 0.70781 0.82792 0.83808 0.0
C181 C 0.79419 0.68499 0.65984 0.0
C182 C 0.83057 0.68541 0.8231 0.0
O183 O 0.78557 0.82396 0.69491 0.0
Fe184 Fe 0.02236 0.05155 0.51351 0.0
O185 O 0.98052 0.00669 0.54133 0.0
Fe186 Fe 0.12253 0.9891 0.50312 0.0
Fe187 Fe 0.91427 0.00814 0.53481 0.0
O188 O 0.05641 -0.00307 0.49295 0.0
O189 O 0.05642 0.99235 0.4945 0.0
O190 O 0.98032 0.00217 0.5424 0.0
Fe191 Fe 0.01391 0.9478 0.52169 0.0
C192 C 0.95065 0.09578 0.57423 0.0
O193 O 0.9852 0.05425 0.45337 0.0
O194 O 0.91439 0.05166 0.48007 0.0
O195 O 0.05405 0.8967 0.49201 0.0
O196 O 0.11459 0.93516 0.46111 0.0
O197 O 0.12344 0.03649 0.45378 0.0
O198 O 0.07171 0.08998 0.47812 0.0
O199 O 0.90875 0.95494 0.4907 0.0
O200 O 0.97813 0.94755 0.46209 0.0
C201 C 0.10364 0.0753 0.4507 0.0
O202 O 0.04916 0.94641 0.58196 0.0
O203 O 0.12 0.94462 0.55612 0.0
O204 O 0.98212 0.10218 0.54368 0.0
O205 O 0.92307 0.06219 0.5753 0.0
C206 C 0.94257 0.06098 0.44866 0.0
C207 C 0.9357 0.94159 0.45975 0.0
C208 C 0.93485 0.92205 0.58589 0.0
O209 O 0.91558 0.96127 0.58579 0.0
O210 O 0.96495 0.90836 0.55621 0.0
C211 C 0.08742 0.90127 0.46321 0.0
O212 O 0.12842 0.04157 0.54912 0.0
O213 O 0.05806 0.05311 0.57354 0.0
C214 C 0.09139 0.94023 0.58798 0.0
C215 C 0.10057 0.05711 0.57828 0.0
Fe216 Fe 0.52693 0.91209 0.04348 0.0
O217 O 0.5283 0.9779 0.04078 0.0
Fe218 Fe 0.47381 0.01178 0.00967 0.0
Fe219 Fe 0.57921 0.01133 0.01184 0.0
O220 O 0.52387 0.97738 0.03983 0.0
O221 O 0.52481 0.0458 0.98088 0.0
O222 O 0.5295 0.04609 0.98145 0.0
Fe223 Fe 0.52815 0.11199 0.98113 0.0
C224 C 0.61615 0.94405 0.08226 0.0
O225 O 0.5795 0.90316 0.99693 0.0
O226 O 0.58145 0.96718 0.95812 0.0
O227 O 0.47336 0.10455 0.93698 0.0
O228 O 0.42764 0.0536 0.97432 0.0
O229 O 0.47095 0.96772 0.95571 0.0
O230 O 0.47926 0.90322 0.99339 0.0
O231 O 0.62591 0.05071 0.9761 0.0
O232 O 0.58126 0.10202 0.93658 0.0
C233 C 0.46251 0.92607 0.96074 0.0
O234 O 0.4791 0.12007 0.03071 0.0
O235 O 0.47274 0.05373 0.06442 0.0
O236 O 0.57802 0.92357 0.08953 0.0
O237 O 0.62454 0.97109 0.04864 0.0
C238 C 0.59271 0.92613 0.96288 0.0
C239 C 0.61925 0.08076 0.94455 0.0
C240 C 0.59368 0.09561 0.06266 0.0
O241 O 0.58157 0.05491 0.0663 0.0
O242 O 0.58006 0.11953 0.02926 0.0
C243 C 0.43478 0.08452 0.94384 0.0
O244 O 0.42682 0.97178 0.04418 0.0
O245 O 0.47069 0.92157 0.08552 0.0
C246 C 0.4648 0.09552 0.0631 0.0
C247 C 0.43229 0.94137 0.07553 0.0
Fe248 Fe 0.00836 0.54952 0.00771 0.0
O249 O 0.96579 0.49928 0.02022 0.0
Fe250 Fe 0.11181 0.48796 0.99548 0.0
Fe251 Fe 0.90029 0.49989 0.02035 0.0
O252 O 0.04602 0.4955 0.99219 0.0
O253 O 0.04796 0.48822 0.0106 0.0
O254 O 0.96356 0.4929 0.0029 0.0
Fe255 Fe 0.00314 0.43836 0.00792 0.0
C256 C 0.93188 0.59152 0.05993 0.0
O257 O 0.97227 0.55763 0.9464 0.0
O258 O 0.89839 0.54329 0.96559 0.0
O259 O 0.02463 0.43114 0.93965 0.0
O260 O 0.10101 0.44595 0.94106 0.0
O261 O 0.11048 0.54643 0.9563 0.0
O262 O 0.05599 0.59382 0.98467 0.0
O263 O 0.89366 0.44413 0.97959 0.0
O264 O 0.95114 0.39508 0.99569 0.0
C265 C 0.09159 0.58547 0.96084 0.0
O266 O 0.04906 0.38917 0.02219 0.0
O267 O 0.11288 0.42998 0.03517 0.0
O268 O 0.96601 0.59824 0.03377 0.0
O269 O 0.90906 0.55498 0.06171 0.0
C270 C 0.92882 0.56127 0.93999 0.0
C271 C 0.91253 0.40497 0.97788 0.0
C272 C 0.94143 0.43532 0.0922 0.0
O273 O 0.90746 0.45621 0.07414 0.0
O274 O 0.98247 0.43625 0.07645 0.0
C275 C 0.06565 0.42718 0.92379 0.0
O276 O 0.1169 0.53046 0.0504 0.0
O277 O 0.04423 0.54871 0.0695 0.0
C278 C 0.08956 0.39359 0.03715 0.0
C279 C 0.0877 0.55223 0.07468 0.0
Fe280 Fe 0.5134 0.50567 0.96502 0.0
O281 O 0.54454 0.47729 0.01845 0.0
Fe282 Fe 0.41156 0.54307 0.01028 0.0
Fe283 Fe 0.61123 0.47347 0.02384 0.0
O284 O 0.47758 0.53796 0.01235 0.0
O285 O 0.47828 0.53947 0.01702 0.0
O286 O 0.54477 0.47811 0.02323 0.0
Fe287 Fe 0.50952 0.51135 0.07075 0.0
C288 C 0.5856 0.43712 0.93103 0.0
O289 O 0.55864 0.55735 0.96475 0.0
O290 O 0.62334 0.5195 0.97259 0.0
O291 O 0.46738 0.55082 0.11271 0.0
O292 O 0.42049 0.5889 0.06194 0.0
O293 O 0.4255 0.58402 0.95514 0.0
O294 O 0.47657 0.54079 0.91447 0.0
O295 O 0.61972 0.5222 0.07312 0.0
O296 O 0.55633 0.56292 0.07379 0.0
C297 C 0.44747 0.57374 0.91826 0.0
O298 O 0.46298 0.46047 0.07329 0.0
O299 O 0.39858 0.4985 0.06258 0.0
O300 O 0.5556 0.46818 0.92221 0.0
O301 O 0.6031 0.4288 0.9708 0.0
C302 C 0.60045 0.55193 0.95567 0.0
C303 C 0.5975 0.55673 0.08599 0.0
C304 C 0.57549 0.44186 0.1153 0.0
O305 O 0.5972 0.43187 0.07811 0.0
O306 O 0.54698 0.47535 0.12022 0.0
C307 C 0.43852 0.58259 0.10188 0.0
O308 O 0.40378 0.49266 0.96201 0.0
O309 O 0.46821 0.45343 0.96201 0.0
C310 C 0.421 0.46678 0.08142 0.0
C311 C 0.42691 0.45816 0.95024 0.0
Fe312 Fe 0.01553 0.46314 0.51511 0.0
O313 O 0.99438 0.51261 0.55603 0.0
Fe314 Fe 0.02945 0.5168 0.41225 0.0
Fe315 Fe 0.00629 0.51501 0.62202 0.0
O316 O 0.03929 0.51368 0.47801 0.0
O317 O 0.03972 0.51868 0.47831 0.0
O318 O 0.99524 0.51698 0.55649 0.0
Fe319 Fe 0.01481 0.5678 0.51745 0.0
C320 C 0.95709 0.42889 0.5937 0.0
O321 O 0.07676 0.45864 0.54811 0.0
O322 O 0.05895 0.46907 0.62093 0.0
O323 O 0.04139 0.61427 0.4716 0.0
O324 O 0.07338 0.56912 0.41626 0.0
O325 O 0.07694 0.46687 0.41469 0.0
O326 O 0.04555 0.41872 0.46753 0.0
O327 O 0.0524 0.56589 0.62223 0.0
O328 O 0.07687 0.57291 0.55136 0.0
C329 C 0.07557 0.42922 0.43663 0.0
O330 O 0.95286 0.56652 0.48365 0.0
O331 O 0.97757 0.5636 0.41238 0.0
O332 O 0.98331 0.41788 0.5596 0.0
O333 O 0.96305 0.46311 0.61977 0.0
C334 C 0.08607 0.45563 0.59006 0.0
C335 C 0.0828 0.57711 0.59405 0.0
C336 C 0.95396 0.59941 0.59514 0.0
O337 O 0.95738 0.56357 0.6199 0.0
O338 O 0.98229 0.6113 0.56337 0.0
C339 C 0.07124 0.60551 0.4402 0.0
O340 O 0.98133 0.4666 0.41076 0.0
O341 O 0.95428 0.46376 0.48092 0.0
C342 C 0.94619 0.57115 0.44113 0.0
C343 C 0.95 0.45642 0.43863 0.0
Fe344 Fe 0.49996 0.94811 0.49966 0.0
O345 O 0.5294 0.9928 0.54039 0.0
Fe346 Fe 0.49124 0.00523 0.39727 0.0
Fe347 Fe 0.52113 0.99417 0.60657 0.0
O348 O 0.48193 0.00203 0.46313 0.0
O349 O 0.48143 0.00665 0.46358 0.0
O350 O 0.52922 -0.00293 0.54069 0.0
Fe351 Fe 0.51215 0.05094 0.50384 0.0
C352 C 0.43517 0.94366 0.57656 0.0
O353 O 0.5225 0.89723 0.54327 0.0
O354 O 0.55716 0.93486 0.60244 0.0
O355 O 0.57203 0.04424 0.46863 0.0
O356 O 0.54587 0.0481 0.39831 0.0
O357 O 0.53312 0.94897 0.39452 0.0
O358 O 0.55967 0.93987 0.46442 0.0
O359 O 0.57359 0.03885 0.60443 0.0
O360 O 0.54798 0.0895 0.55013 0.0
C361 C 0.56002 0.92983 0.42251 0.0
O362 O 0.48939 0.10222 0.45974 0.0
O363 O 0.45388 0.06404 0.4014 0.0
O364 O 0.4398 0.95171 0.53448 0.0
O365 O 0.46501 0.95375 0.60598 0.0
C366 C 0.54739 0.89891 0.57967 0.0
C367 C 0.57397 0.07749 0.58384 0.0
C368 C 0.45349 0.07052 0.58262 0.0
O369 O 0.48087 0.05095 0.60974 0.0
O370 O 0.4531 0.06157 0.54034 0.0
C371 C 0.5758 0.05747 0.42793 0.0
O372 O 0.43957 0.95941 0.39894 0.0
O373 O 0.46583 0.90856 0.4527 0.0
C374 C 0.46314 0.1003 0.42411 0.0
C375 C 0.4389 0.92104 0.42 0.0
C376 C 0.16286 0.1039 0.34045 0.0
C377 C 0.15963 0.15062 0.33826 0.0
C378 C 0.14261 0.08033 0.37589 0.0
C379 C 0.11926 0.10251 0.41154 0.0
H380 H 0.18194 0.08545 0.31503 0.0
H381 H 0.14651 0.04414 0.3757 0.0
S382 S 0.1003 0.22515 0.42066 0.0
N383 N 0.12981 0.21877 0.37337 0.0
N384 N 0.09267 0.17409 0.44103 0.0
C385 C 0.11434 0.14926 0.40889 0.0
C386 C 0.13442 0.17339 0.37208 0.0
C387 C 0.85631 0.1014 0.36109 0.0
C388 C 0.87854 0.13676 0.33886 0.0
C389 C 0.87848 0.07507 0.39413 0.0
C390 C 0.92396 0.08298 0.4067 0.0
H391 H 0.82038 0.09615 0.35534 0.0
H392 H 0.85893 0.0498 0.41176 0.0
S393 S 0.99855 0.16942 0.35593 0.0
N394 N 0.94938 0.1767 0.32965 0.0
N395 N 0.99152 0.12684 0.39122 0.0
C396 C 0.94763 0.1162 0.38237 0.0
C397 C 0.92477 0.14329 0.34876 0.0
C398 C 0.86992 0.84893 0.40478 0.0
C399 C 0.88158 0.85313 0.35881 0.0
C400 C 0.8879 0.87781 0.4372 0.0
C401 C 0.91825 0.91167 0.42459 0.0
H402 H 0.84547 0.82406 0.41549 0.0
H403 H 0.87776 0.87379 0.47235 0.0
S404 S 0.95908 0.93652 0.30833 0.0
N405 N 0.92485 0.89328 0.30185 0.0
N406 N 0.95941 0.9479 0.36327 0.0
C407 C 0.93103 0.91562 0.37882 0.0
C408 C 0.91238 0.88623 0.34566 0.0
C409 C 0.07982 0.8695 0.34162 0.0
C410 C 0.12285 0.84999 0.33517 0.0
C411 C 0.06447 0.87989 0.38573 0.0
C412 C 0.09156 0.87078 0.42428 0.0
H413 H 0.05952 0.87965 0.31261 0.0
H414 H 0.03345 0.89924 0.38937 0.0
S415 S 0.20248 0.81164 0.42549 0.0
N416 N 0.18887 0.81522 0.37118 0.0
N417 N 0.16012 0.83565 0.45333 0.0
C418 C 0.13226 0.84707 0.41825 0.0
C419 C 0.14791 0.83652 0.37379 0.0
C420 C 0.10393 0.87226 0.69615 0.0
C421 C 0.14838 0.88282 0.71009 0.0
C422 C 0.08394 0.89338 0.6583 0.0
C423 C 0.1084 0.92468 0.63247 0.0
H424 H 0.08549 0.84567 0.71297 0.0
H425 H 0.05055 0.88281 0.64737 0.0
S426 S 0.22324 0.96842 0.65766 0.0
N427 N 0.2137 0.93124 0.69805 0.0
N428 N 0.17717 0.96859 0.62575 0.0
C429 C 0.15145 0.93774 0.6478 0.0
C430 C 0.17115 0.9175 0.68703 0.0
C431 C 0.15637 0.10673 0.68358 0.0
C432 C 0.15619 0.15293 0.67337 0.0
C433 C 0.13704 0.07549 0.6534 0.0
C434 C 0.11697 0.08957 0.61231 0.0
H435 H 0.17362 0.09445 0.71371 0.0
H436 H 0.13856 0.04022 0.66189 0.0
S437 S 0.1023 0.20681 0.5727 0.0
N438 N 0.13008 0.2112 0.62125 0.0
N439 N 0.09403 0.15259 0.56518 0.0
C440 C 0.11403 0.13566 0.60325 0.0
C441 C 0.13363 0.16731 0.63361 0.0
C442 C 0.90682 0.13451 0.68625 0.0
C443 C 0.90427 0.18084 0.67961 0.0
C444 C 0.92742 0.1074 0.65374 0.0
C445 C 0.94558 0.1259 0.6135 0.0
H446 H 0.8883 0.11868 0.71366 0.0
H447 H 0.92514 0.07137 0.65823 0.0
S448 S 0.96865 0.24595 0.59436 0.0
N449 N 0.93572 0.24511 0.63986 0.0
N450 N 0.97522 0.19322 0.57821 0.0
C451 C 0.95132 0.17234 0.61133 0.0
C452 C 0.93002 0.2002 0.64455 0.0
C453 C 0.86345 0.83279 0.63945 0.0
C454 C 0.86044 0.84726 0.68503 0.0
C455 C 0.89188 0.85411 0.60806 0.0
C456 C 0.91776 0.89115 0.62101 0.0
H457 H 0.84197 0.80598 0.62737 0.0
H458 H 0.89078 0.84382 0.57278 0.0
S459 S 0.92571 0.93952 0.73681 0.0
N460 N 0.88908 0.89812 0.74229 0.0
N461 N 0.94163 0.93937 0.68298 0.0
C462 C 0.91728 0.90422 0.66703 0.0
C463 C 0.88889 0.88192 0.69921 0.0
C464 C 0.3924 0.18201 0.12318 0.0
C465 C 0.36505 0.15644 0.15259 0.0
C466 C 0.42571 0.16211 0.09616 0.0
C467 C 0.43335 0.11556 0.09696 0.0
H468 H 0.38811 0.21807 0.12062 0.0
H469 H 0.44499 0.18359 0.07372 0.0
S470 S 0.37274 0.0334 0.16988 0.0
N471 N 0.34916 0.08223 0.18257 0.0
N472 N 0.41191 0.0442 0.13136 0.0
C473 C 0.4073 0.08945 0.12731 0.0
C474 C 0.37316 0.11001 0.15514 0.0
C475 C 0.87542 0.3876 0.18901 0.0
C476 C 0.87632 0.34087 0.18038 0.0
C477 C 0.901 0.41784 0.16348 0.0
C478 C 0.92932 0.403 0.12832 0.0
H479 H 0.85293 0.40167 0.21442 0.0
H480 H 0.89627 0.45348 0.16937 0.0
S481 S 0.94846 0.28456 0.09397 0.0
N482 N 0.91146 0.28122 0.13603 0.0
N483 N 0.95966 0.33847 0.08774 0.0
C484 C 0.93341 0.35636 0.12113 0.0
C485 C 0.90693 0.32523 0.14718 0.0
C486 C 0.72313 0.88843 0.12204 0.0
C487 C 0.71512 0.88493 0.16895 0.0
C488 C 0.69291 0.91216 0.09407 0.0
C489 C 0.65349 0.93176 0.11235 0.0
H490 H 0.75123 0.87039 0.10659 0.0
H491 H 0.69828 0.91175 0.05765 0.0
S492 S 0.61944 0.93586 0.23326 0.0
N493 N 0.66755 0.90699 0.23296 0.0
N494 N 0.60985 0.94996 0.17981 0.0
C495 C 0.64689 0.93136 0.15942 0.0
C496 C 0.67811 0.90832 0.188 0.0
C497 C 0.17019 0.64025 0.11632 0.0
C498 C 0.14234 0.67136 0.13905 0.0
C499 C 0.15252 0.60051 0.09866 0.0
C500 C 0.10586 0.59029 0.10195 0.0
H501 H 0.20633 0.64603 0.11301 0.0
H502 H 0.17587 0.57823 0.08117 0.0
S503 S 0.01863 0.66103 0.15919 0.0
N504 N 0.06617 0.68929 0.16517 0.0
N505 N 0.03232 0.61509 0.13084 0.0
C506 C 0.07763 0.62112 0.12508 0.0
C507 C 0.09595 0.66147 0.1437 0.0
C508 C 0.37812 0.9019 0.86532 0.0
C509 C 0.35387 0.86477 0.88224 0.0
C510 C 0.41328 0.92172 0.89057 0.0
C511 C 0.42589 0.90483 0.93347 0.0
H512 H 0.37074 0.91512 0.83179 0.0
H513 H 0.43117 0.94994 0.87605 0.0
S514 S 0.36929 0.81177 0.99558 0.0
N515 N 0.34237 0.81479 0.94652 0.0
N516 N 0.40829 0.85108 0.99342 0.0
C517 C 0.40076 0.8687 0.95137 0.0
C518 C 0.36483 0.84898 0.92597 0.0
C519 C 0.12085 0.37554 0.82213 0.0
C520 C 0.1329 0.33231 0.83841 0.0
C521 C 0.0936 0.40501 0.84758 0.0
C522 C 0.07614 0.39213 0.88982 0.0
H523 H 0.13528 0.3881 0.79079 0.0
H524 H 0.08919 0.43925 0.83581 0.0
S525 S 0.09226 0.28124 0.94554 0.0
N526 N 0.12133 0.27694 0.89775 0.0
N527 N 0.06912 0.33194 0.94507 0.0
C528 C 0.08413 0.34765 0.9045 0.0
C529 C 0.11257 0.31773 0.87886 0.0
C530 C 0.70346 0.16326 0.90172 0.0
C531 C 0.71754 0.14379 0.86066 0.0
C532 C 0.67442 0.14044 0.931 0.0
C533 C 0.65874 0.0975 0.92005 0.0
H534 H 0.71204 0.19772 0.90948 0.0
H535 H 0.66157 0.15773 0.96075 0.0
S536 S 0.68972 0.03019 0.81909 0.0
N537 N 0.71705 0.07796 0.8122 0.0
N538 N 0.66232 0.03454 0.86791 0.0
C539 C 0.67537 0.07616 0.88099 0.0
C540 C 0.70497 0.09954 0.85099 0.0
C541 C 0.84935 0.60865 0.85175 0.0
C542 C 0.86013 0.65479 0.85061 0.0
C543 C 0.87401 0.57803 0.87825 0.0
C544 C 0.91127 0.59173 0.90423 0.0
H545 H 0.82036 0.59595 0.83325 0.0
H546 H 0.86274 0.54352 0.87971 0.0
S547 S 0.95595 0.70754 0.91184 0.0
N548 N 0.91221 0.71211 0.87681 0.0
N549 N 0.95916 0.65402 0.92645 0.0
C550 C 0.92393 0.6372 0.90222 0.0
C551 C 0.89817 0.66884 0.87561 0.0
C552 C 0.11062 0.30797 0.12839 0.0
C553 C 0.15576 0.2946 0.1195 0.0
C554 C 0.08784 0.33788 0.09946 0.0
C555 C 0.10968 0.35544 0.06114 0.0
H556 H 0.09391 0.29799 0.15953 0.0
H557 H 0.05435 0.3499 0.10898 0.0
S558 S 0.22254 0.32324 0.01634 0.0
N559 N 0.21771 0.29477 0.06424 0.0
N560 N 0.17482 0.35227 0.01106 0.0
C561 C 0.15258 0.33901 0.04917 0.0
C562 C 0.17559 0.30795 0.078 0.0
C563 C 0.11539 0.67844 0.87718 0.0
C564 C 0.1604 0.69029 0.88815 0.0
C565 C 0.09226 0.64564 0.90212 0.0
C566 C 0.11363 0.62335 0.93838 0.0
H567 H 0.09846 0.69315 0.84799 0.0
H568 H 0.05833 0.63625 0.89174 0.0
S569 S 0.22753 0.6459 0.98583 0.0
N570 N 0.22285 0.68037 0.94206 0.0
N571 N 0.17944 0.61791 0.98754 0.0
C572 C 0.15718 0.63646 0.95154 0.0
C573 C 0.18054 0.67027 0.92684 0.0
C574 C 0.32557 0.14264 0.90581 0.0
C575 C 0.33124 0.14419 0.85836 0.0
C576 C 0.35762 0.12015 0.93367 0.0
C577 C 0.39629 0.09907 0.9148 0.0
H578 H 0.29841 0.16168 0.92165 0.0
H579 H 0.35385 0.12201 0.97022 0.0
S580 S 0.42264 0.08764 0.79242 0.0
N581 N 0.37526 0.11767 0.79375 0.0
N582 N 0.43542 0.07674 0.84597 0.0
C583 C 0.40026 0.09759 0.86744 0.0
C584 C 0.36767 0.11973 0.83927 0.0
C585 C 0.82764 0.35691 0.89753 0.0
C586 C 0.85296 0.32359 0.87528 0.0
C587 C 0.84599 0.38028 0.9338 0.0
C588 C 0.89072 0.37175 0.94842 0.0
H589 H 0.79381 0.36593 0.88592 0.0
H590 H 0.82572 0.40694 0.94875 0.0
S591 S 0.96824 0.28276 0.90466 0.0
N592 N 0.92214 0.27883 0.87298 0.0
N593 N 0.95796 0.32371 0.94109 0.0
C594 C 0.91509 0.33579 0.92869 0.0
C595 C 0.89587 0.3115 0.89192 0.0
C596 C 0.68971 0.85369 0.91684 0.0
C597 C 0.68704 0.86084 0.86972 0.0
C598 C 0.65939 0.87542 0.94674 0.0
C599 C 0.62577 0.90557 0.93068 0.0
H600 H 0.71326 0.82893 0.9304 0.0
H601 H 0.66173 0.86786 0.98269 0.0
S602 S 0.60629 0.93731 0.81043 0.0
N603 N 0.64906 0.90111 0.80853 0.0
N604 N 0.59332 0.9429 0.86471 0.0
C605 C 0.62444 0.91475 0.88391 0.0
C606 C 0.65471 0.8921 0.85347 0.0
C607 C 0.88696 0.69942 0.10996 0.0
C608 C 0.88212 0.6877 0.15601 0.0
C609 C 0.90622 0.66912 0.07889 0.0
C610 C 0.9195 0.62596 0.09301 0.0
H611 H 0.87441 0.73152 0.09771 0.0
H612 H 0.90821 0.67844 0.04335 0.0
S613 S 0.91573 0.57971 0.20985 0.0
N614 N 0.8946 0.631 0.21446 0.0
N615 N 0.92877 0.57355 0.15568 0.0
C616 C 0.91607 0.6144 0.13905 0.0
C617 C 0.89794 0.64552 0.17076 0.0
C618 C 0.31431 0.89428 0.095 0.0
C619 C 0.31411 0.88597 0.14198 0.0
C620 C 0.35183 0.9147 0.07407 0.0
C621 C 0.39111 0.92544 0.09912 0.0
H622 H 0.28575 0.88422 0.07427 0.0
H623 H 0.35098 0.92007 0.03767 0.0
S624 S 0.40769 0.9101 0.22293 0.0
N625 N 0.35606 0.8912 0.21308 0.0
N626 N 0.42716 0.92695 0.17322 0.0
C627 C 0.39112 0.91756 0.14604 0.0
C628 C 0.35246 0.89848 0.16759 0.0
C629 C 0.68949 0.16794 0.11209 0.0
C630 C 0.69382 0.15238 0.15707 0.0
C631 C 0.65711 0.14953 0.08201 0.0
C632 C 0.62788 0.11446 0.09542 0.0
H633 H 0.70954 0.19613 0.10077 0.0
H634 H 0.65468 0.16329 0.04803 0.0
S635 S 0.62639 0.06136 0.20959 0.0
N636 N 0.66632 0.09974 0.21341 0.0
N637 N 0.60692 0.06437 0.15703 0.0
C638 C 0.63308 0.09771 0.13993 0.0
C639 C 0.6655 0.1169 0.17062 0.0
C640 C 0.61313 0.64196 0.86511 0.0
C641 C 0.65344 0.62947 0.84258 0.0
C642 C 0.59685 0.61728 0.90211 0.0
C643 C 0.62047 0.57931 0.91862 0.0
H644 H 0.59412 0.67142 0.85439 0.0
H645 H 0.56547 0.62824 0.91794 0.0
S646 S 0.7278 0.53211 0.87138 0.0
N647 N 0.7165 0.57621 0.8392 0.0
N648 N 0.68619 0.52997 0.90879 0.0
C649 C 0.66078 0.56623 0.8962 0.0
C650 C 0.67708 0.59113 0.85814 0.0
C651 C 0.41757 0.67528 0.8483 0.0
C652 C 0.39018 0.65731 0.81366 0.0
C653 C 0.43973 0.64752 0.87989 0.0
C654 C 0.43594 0.60069 0.87761 0.0
H655 H 0.41838 0.71126 0.85364 0.0
H656 H 0.45727 0.6629 0.90817 0.0
S657 S 0.37311 0.53651 0.79047 0.0
N658 N 0.36383 0.58962 0.77664 0.0
N659 N 0.40684 0.53716 0.83539 0.0
C660 C 0.41245 0.58204 0.84064 0.0
C661 C 0.38926 0.61047 0.80867 0.0
C662 C 0.35205 0.41426 0.85484 0.0
C663 C 0.36922 0.37083 0.84589 0.0
C664 C 0.37029 0.44132 0.8891 0.0
C665 C 0.40702 0.42668 0.91614 0.0
H666 H 0.32375 0.42765 0.83539 0.0
H667 H 0.35559 0.47441 0.89393 0.0
S668 S 0.46387 0.31515 0.90842 0.0
N669 N 0.42471 0.31394 0.86822 0.0
N670 N 0.45951 0.36518 0.93222 0.0
C671 C 0.4249 0.38342 0.90763 0.0
C672 C 0.406 0.35553 0.87267 0.0
C673 C 0.67752 0.39438 0.85355 0.0
C674 C 0.65347 0.37125 0.81974 0.0
C675 C 0.65489 0.41519 0.88946 0.0
C676 C 0.60733 0.41479 0.89223 0.0
H677 H 0.71433 0.39447 0.85362 0.0
H678 H 0.67486 0.43162 0.91543 0.0
S679 S 0.52838 0.3631 0.80987 0.0
N680 N 0.57949 0.35079 0.79 0.0
N681 N 0.53651 0.39291 0.85645 0.0
C682 C 0.58259 0.39408 0.85741 0.0
C683 C 0.60581 0.3714 0.82145 0.0
C684 C 0.61223 0.34102 0.18311 0.0
C685 C 0.63459 0.3606 0.22026 0.0
C686 C 0.58983 0.36763 0.15075 0.0
C687 C 0.58777 0.41453 0.15522 0.0
H688 H 0.61529 0.30529 0.17684 0.0
H689 H 0.57617 0.35164 0.12072 0.0
S690 S 0.63323 0.4812 0.25083 0.0
N691 N 0.6487 0.42901 0.2626 0.0
N692 N 0.60441 0.47894 0.20269 0.0
C693 C 0.60587 0.4341 0.19455 0.0
C694 C 0.62994 0.40711 0.22687 0.0
C695 C 0.62334 0.66089 0.15807 0.0
C696 C 0.66098 0.6471 0.18437 0.0
C697 C 0.60237 0.63151 0.12697 0.0
C698 C 0.61934 0.58768 0.11967 0.0
H699 H 0.61045 0.69492 0.16106 0.0
H700 H 0.57345 0.64367 0.10765 0.0
S701 S 0.71874 0.53635 0.17931 0.0
N702 N 0.7145 0.58721 0.20111 0.0
N703 N 0.67689 0.53249 0.14219 0.0
C704 C 0.65722 0.57376 0.14601 0.0
C705 C 0.67759 0.6033 0.17836 0.0
C706 C 0.38822 0.68548 0.15424 0.0
C707 C 0.36213 0.66776 0.18994 0.0
C708 C 0.41688 0.65807 0.1285 0.0
C709 C 0.42078 0.61203 0.13773 0.0
H710 H 0.38443 0.72036 0.14432 0.0
H711 H 0.43377 0.67242 0.09925 0.0
S712 S 0.36419 0.54995 0.23061 0.0
N713 N 0.34545 0.60213 0.23606 0.0
N714 N 0.39984 0.55034 0.1873 0.0
C715 C 0.3982 0.59449 0.17574 0.0
C716 C 0.36869 0.62251 0.20206 0.0
C717 C 0.32725 0.41236 0.1503 0.0
C718 C 0.35086 0.38926 0.18482 0.0
C719 C 0.35023 0.43743 0.11739 0.0
C720 C 0.39797 0.43959 0.11693 0.0
H721 H 0.29069 0.40932 0.14752 0.0
H722 H 0.33036 0.45404 0.09121 0.0
S723 S 0.47545 0.38689 0.2018 0.0
N724 N 0.42419 0.37159 0.21813 0.0
N725 N 0.46791 0.4185 0.1562 0.0
C726 C 0.42195 0.4178 0.15233 0.0
C727 C 0.39828 0.39278 0.18632 0.0
C728 C 0.86965 0.69083 0.62275 0.0
C729 C 0.83013 0.66557 0.63124 0.0
C730 C 0.90969 0.6701 0.6075 0.0
C731 C 0.91089 0.62376 0.60017 0.0
H732 H 0.87093 0.72605 0.63159 0.0
H733 H 0.94039 0.68968 0.60472 0.0
S734 S 0.81387 0.54518 0.60616 0.0
N735 N 0.7928 0.5937 0.62362 0.0
N736 N 0.8676 0.55475 0.59372 0.0
C737 C 0.87031 0.59926 0.60348 0.0
C738 C 0.82992 0.62018 0.61939 0.0
C739 C 0.34023 0.89987 0.64725 0.0
C740 C 0.34661 0.85281 0.64429 0.0
C741 C 0.36649 0.92958 0.62192 0.0
C742 C 0.39917 0.91351 0.59159 0.0
H743 H 0.31653 0.91434 0.67133 0.0
H744 H 0.36294 0.96532 0.62796 0.0
S745 S 0.42594 0.79447 0.56594 0.0
N746 N 0.38585 0.79201 0.60509 0.0
N747 N 0.43439 0.84838 0.55631 0.0
C748 C 0.4036 0.86693 0.5852 0.0
C749 C 0.3774 0.8364 0.61173 0.0
C750 C 0.18645 0.42221 0.66313 0.0
C751 C 0.20505 0.38492 0.64009 0.0
C752 C 0.14902 0.44572 0.64579 0.0
C753 C 0.12941 0.43409 0.60402 0.0
H754 H 0.1984 0.43137 0.69664 0.0
H755 H 0.13415 0.47199 0.66633 0.0
S756 S 0.16967 0.3441 0.52642 0.0
N757 N 0.20412 0.34072 0.57062 0.0
N758 N 0.13442 0.38611 0.53736 0.0
C759 C 0.15016 0.39966 0.57848 0.0
C760 C 0.1879 0.37493 0.5966 0.0
C761 C 0.63154 0.14603 0.67253 0.0
C762 C 0.65609 0.1771 0.64671 0.0
C763 C 0.60536 0.11365 0.6515 0.0
C764 C 0.60235 0.1118 0.60403 0.0
H765 H 0.63349 0.1459 0.70931 0.0
H766 H 0.58705 0.09012 0.67265 0.0
S767 S 0.65811 0.18732 0.52145 0.0
N768 N 0.67522 0.20523 0.57166 0.0
N769 N 0.62431 0.14446 0.53157 0.0
C770 C 0.62569 0.14338 0.57768 0.0
C771 C 0.65321 0.176 0.59923 0.0
C772 C 0.85291 0.37218 0.4307 0.0
C773 C 0.84025 0.37478 0.38463 0.0
C774 C 0.88639 0.40074 0.44881 0.0
C775 C 0.9098 0.43157 0.42122 0.0
H776 H 0.83729 0.3476 0.45272 0.0
H777 H 0.89526 0.39753 0.48423 0.0
S778 S 0.88758 0.45403 0.29916 0.0
N779 N 0.85195 0.41374 0.31263 0.0
N780 N 0.91568 0.46496 0.34624 0.0
C781 C 0.89635 0.4355 0.3756 0.0
C782 C 0.86152 0.40769 0.35746 0.0
C783 C 0.65796 0.84603 0.41184 0.0
C784 C 0.64548 0.82 0.374 0.0
C785 C 0.62962 0.88055 0.42833 0.0
C786 C 0.58838 0.89134 0.40659 0.0
H787 H 0.69106 0.84123 0.42731 0.0
H788 H 0.64115 0.90028 0.4569 0.0
S789 S 0.53918 0.83153 0.30756 0.0
N790 N 0.58822 0.80574 0.31678 0.0
N791 N 0.5351 0.87083 0.34687 0.0
C792 C 0.57473 0.86429 0.36976 0.0
C793 C 0.60321 0.82858 0.35371 0.0
C794 C 0.12189 0.70584 0.38672 0.0
C795 C 0.16496 0.68858 0.37434 0.0
C796 C 0.09248 0.68097 0.41382 0.0
C797 C 0.10572 0.63849 0.42926 0.0
H798 H 0.10933 0.73708 0.37233 0.0
H799 H 0.05795 0.6929 0.41864 0.0
S800 S 0.21876 0.58412 0.41731 0.0
N801 N 0.22247 0.63095 0.38747 0.0
N802 N 0.16711 0.58422 0.43913 0.0
C803 C 0.15081 0.62393 0.4228 0.0
C804 C 0.18068 0.64912 0.39509 0.0
C805 C 0.42184 0.1815 0.33567 0.0
C806 C 0.391 0.20859 0.35984 0.0
C807 C 0.44801 0.14884 0.35774 0.0
C808 C 0.44462 0.14234 0.40485 0.0
H809 H 0.42259 0.18268 0.29886 0.0
H810 H 0.4688 0.12646 0.33733 0.0
S811 S 0.37554 0.21043 0.48457 0.0
N812 N 0.36291 0.23114 0.43392 0.0
N813 N 0.41343 0.17004 0.47599 0.0
C814 C 0.41788 0.17253 0.43016 0.0
C815 C 0.39065 0.2057 0.40743 0.0
C816 C 0.57843 0.81547 0.66913 0.0
C817 C 0.61532 0.79288 0.64892 0.0
C818 C 0.55351 0.84744 0.64471 0.0
C819 C 0.56401 0.85685 0.59924 0.0
H820 H 0.57172 0.81212 0.70515 0.0
H821 H 0.52811 0.86729 0.66244 0.0
S822 S 0.64901 0.79874 0.52761 0.0
N823 N 0.6553 0.77596 0.57848 0.0
N824 N 0.60736 0.83594 0.53246 0.0
C825 C 0.5964 0.83039 0.57691 0.0
C826 C 0.62234 0.79819 0.60188 0.0
C827 C 0.61415 0.16949 0.38322 0.0
C828 C 0.66096 0.17003 0.39276 0.0
C829 C 0.58735 0.13301 0.39526 0.0
C830 C 0.60588 0.0957 0.41815 0.0
H831 H 0.59846 0.1965 0.36394 0.0
H832 H 0.55181 0.13379 0.38574 0.0
S833 S 0.72521 0.08232 0.4561 0.0
N834 N 0.72421 0.1312 0.42945 0.0
N835 N 0.67275 0.06308 0.45404 0.0
C836 C 0.65179 0.09697 0.43107 0.0
C837 C 0.67959 0.13407 0.41798 0.0
C838 C 0.85273 0.59864 0.35681 0.0
C839 C 0.82746 0.63246 0.37865 0.0
C840 C 0.88918 0.57708 0.37859 0.0
C841 C 0.90178 0.58804 0.42336 0.0
H842 H 0.84708 0.59182 0.3211 0.0
H843 H 0.90948 0.55369 0.35901 0.0
S844 S 0.84302 0.67085 0.49723 0.0
N845 N 0.81499 0.67359 0.44862 0.0
N846 N 0.88279 0.63197 0.49037 0.0
C847 C 0.87418 0.61893 0.44706 0.0
C848 C 0.8372 0.64141 0.42448 0.0
C849 C 0.38562 0.82136 0.3647 0.0
C850 C 0.34081 0.83692 0.35892 0.0
C851 C 0.41732 0.84756 0.38784 0.0
C852 C 0.40459 0.88963 0.40525 0.0
H853 H 0.39692 0.79053 0.34867 0.0
H854 H 0.4524 0.83635 0.38943 0.0
S855 S 0.28947 0.94023 0.40762 0.0
N856 N 0.28364 0.89299 0.37906 0.0
N857 N 0.34369 0.9425 0.42173 0.0
C858 C 0.35916 0.90344 0.40331 0.0
C859 C 0.32699 0.87685 0.38029 0.0
C860 C 0.12901 0.3364 0.37081 0.0
C861 C 0.17441 0.35112 0.36668 0.0
C862 C 0.09765 0.35869 0.39855 0.0
C863 C 0.11048 0.39681 0.4227 0.0
H864 H 0.11679 0.30861 0.35069 0.0
H865 H 0.06245 0.34838 0.39795 0.0
S866 S 0.22573 0.44571 0.42922 0.0
N867 N 0.23145 0.40308 0.39379 0.0
N868 N 0.17194 0.446 0.44515 0.0
C869 C 0.15632 0.40993 0.42186 0.0
C870 C 0.18851 0.3868 0.39406 0.0
C871 C 0.42265 0.17141 0.65534 0.0
C872 C 0.37859 0.18325 0.64087 0.0
C873 C 0.44641 0.13541 0.63571 0.0
C874 C 0.42743 0.10959 0.6005 0.0
H875 H 0.43854 0.18914 0.68316 0.0
H876 H 0.48 0.12747 0.6487 0.0
S877 S 0.31372 0.12637 0.54904 0.0
N878 N 0.31725 0.16615 0.58786 0.0
N879 N 0.3626 0.09884 0.55102 0.0
C880 C 0.38425 0.12183 0.58434 0.0
C881 C 0.35971 0.15849 0.60448 0.0
C882 C 0.83999 0.41123 0.64142 0.0
C883 C 0.82884 0.36821 0.62695 0.0
C884 C 0.88084 0.43017 0.62903 0.0
C885 C 0.91257 0.40715 0.60113 0.0
H886 H 0.81894 0.42883 0.66594 0.0
H887 H 0.88785 0.46282 0.64338 0.0
S888 S 0.88864 0.30253 0.53792 0.0
N889 N 0.84465 0.30895 0.57213 0.0
N890 N 0.923 0.34486 0.54865 0.0
C891 C 0.89842 0.36715 0.58055 0.0
C892 C 0.85598 0.34775 0.59326 0.0
C893 C 0.17981 0.65987 0.61162 0.0
C894 C 0.1912 0.65238 0.65754 0.0
C895 C 0.14702 0.6332 0.58952 0.0
C896 C 0.12414 0.59888 0.61306 0.0
H897 H 0.19402 0.68823 0.59368 0.0
H898 H 0.13733 0.64155 0.555 0.0
S899 S 0.14627 0.56321 0.73228 0.0
N900 N 0.18069 0.60587 0.72411 0.0
N901 N 0.11913 0.55653 0.68373 0.0
C902 C 0.13783 0.58954 0.65809 0.0
C903 C 0.17125 0.61616 0.68005 0.0
loop_
_geom_bond_atom_site_label_1
_geom_bond_atom_site_label_2
_geom_bond_distance
_geom_bond_site_symmetry_2
_ccdc_geom_bond_type
O0 Zn1 1.953 . S
O0 C16 1.225 . S
Zn1 O0 1.953 . S
Zn1 O2 1.949 . S
Zn1 O8 1.919 . S
Zn1 O13 1.924 . S
O2 Zn1 1.949 . S
O2 Zn3 1.923 . S
O2 Zn4 1.950 . S
O2 Zn5 1.945 . S
Zn3 O2 1.923 . S
Zn3 O6 1.933 . S
Zn3 O9 1.941 . S
Zn3 O10 1.965 . S
Zn4 O2 1.950 . S
Zn4 O11 1.938 . S
Zn4 O12 1.906 . S
Zn4 O22 1.953 . S
Zn5 O2 1.945 . S
Zn5 O7 1.932 . S
Zn5 O14 1.977 . S
Zn5 O15 1.910 . S
O6 Zn3 1.933 . S
O6 C17 1.226 . S
O7 Zn5 1.932 . S
O7 C17 1.307 . S
O8 Zn1 1.919 . S
O8 C19 1.253 . S
O9 Zn3 1.941 . S
O9 C19 1.283 . S
O10 Zn3 1.965 . S
O10 C18 1.303 . S
O11 Zn4 1.938 . S
O11 C18 1.247 . S
O12 Zn4 1.906 . S
O12 C20 1.304 . S
O13 Zn1 1.924 . S
O13 C21 1.311 . S
O14 Zn5 1.977 . S
O14 C20 1.272 . S
O15 Zn5 1.910 . S
O15 C21 1.231 . S
C16 O0 1.225 . S
C16 O22 1.298 . S
C17 O6 1.226 . S
C17 O7 1.307 . S
C18 O10 1.303 . S
C18 O11 1.247 . S
C19 O8 1.253 . S
C19 O9 1.283 . S
C20 O12 1.304 . S
C20 O14 1.272 . S
C21 O13 1.311 . S
C21 O15 1.231 . S
O22 Zn4 1.953 . S
O22 C16 1.298 . S
O23 Zn24 1.953 . S
O23 C39 1.225 . S
Zn24 O23 1.953 . S
Zn24 O25 1.949 . S
Zn24 O31 1.919 . S
Zn24 O36 1.924 . S
O25 Zn24 1.949 . S
O25 Zn26 1.923 . S
O25 Zn27 1.950 . S
O25 Zn28 1.945 . S
Zn26 O25 1.923 . S
Zn26 O29 1.933 . S
Zn26 O32 1.941 . S
Zn26 O33 1.965 . S
Zn27 O25 1.950 . S
Zn27 O34 1.938 . S
Zn27 O35 1.906 . S
Zn27 O45 1.953 . S
Zn28 O25 1.945 . S
Zn28 O30 1.932 . S
Zn28 O37 1.977 . S
Zn28 O38 1.910 . S
O29 Zn26 1.933 . S
O29 C40 1.226 . S
O30 Zn28 1.932 . S
O30 C40 1.307 . S
O31 Zn24 1.919 . S
O31 C42 1.253 . S
O32 Zn26 1.941 . S
O32 C42 1.283 . S
O33 Zn26 1.965 . S
O33 C41 1.303 . S
O34 Zn27 1.938 . S
O34 C41 1.247 . S
O35 Zn27 1.906 . S
O35 C43 1.304 . S
O36 Zn24 1.924 . S
O36 C44 1.311 . S
O37 Zn28 1.977 . S
O37 C43 1.272 . S
O38 Zn28 1.910 . S
O38 C44 1.231 . S
C39 O23 1.225 . S
C39 O45 1.298 . S
C40 O29 1.226 . S
C40 O30 1.307 . S
C41 O33 1.303 . S
C41 O34 1.247 . S
C42 O31 1.253 . S
C42 O32 1.283 . S
C43 O35 1.304 . S
C43 O37 1.272 . S
C44 O36 1.311 . S
C44 O38 1.231 . S
O45 Zn27 1.953 . S
O45 C39 1.298 . S
O46 Zn47 1.953 . S
O46 C62 1.225 . S
Zn47 O46 1.953 . S
Zn47 O48 1.949 . S
Zn47 O54 1.919 . S
Zn47 O59 1.924 . S
O48 Zn47 1.949 . S
O48 Zn49 1.923 . S
O48 Zn50 1.950 . S
O48 Zn51 1.945 . S
Zn49 O48 1.923 . S
Zn49 O52 1.933 . S
Zn49 O55 1.941 . S
Zn49 O56 1.965 . S
Zn50 O48 1.950 . S
Zn50 O57 1.938 . S
Zn50 O58 1.906 . S
Zn50 O68 1.953 . S
Zn51 O48 1.945 . S
Zn51 O53 1.932 . S
Zn51 O60 1.977 . S
Zn51 O61 1.910 . S
O52 Zn49 1.933 . S
O52 C63 1.226 . S
O53 Zn51 1.932 . S
O53 C63 1.307 . S
O54 Zn47 1.919 . S
O54 C65 1.253 . S
O55 Zn49 1.941 . S
O55 C65 1.283 . S
O56 Zn49 1.965 . S
O56 C64 1.303 . S
O57 Zn50 1.938 . S
O57 C64 1.247 . S
O58 Zn50 1.906 . S
O58 C66 1.304 . S
O59 Zn47 1.924 . S
O59 C67 1.311 . S
O60 Zn51 1.977 . S
O60 C66 1.272 . S
O61 Zn51 1.910 . S
O61 C67 1.231 . S
C62 O46 1.225 . S
C62 O68 1.298 . S
C63 O52 1.226 . S
C63 O53 1.307 . S
C64 O56 1.303 . S
C64 O57 1.247 . S
C65 O54 1.253 . S
C65 O55 1.283 . S
C66 O58 1.304 . S
C66 O60 1.272 . S
C67 O59 1.311 . S
C67 O61 1.231 . S
O68 Zn50 1.953 . S
O68 C62 1.298 . S
O69 Zn70 1.953 . S
O69 C85 1.225 . S
Zn70 O69 1.953 . S
Zn70 O71 1.949 . S
Zn70 O77 1.919 . S
Zn70 O82 1.924 . S
O71 Zn70 1.949 . S
O71 Zn72 1.923 . S
O71 Zn73 1.950 . S
O71 Zn74 1.945 . S
Zn72 O71 1.923 . S
Zn72 O75 1.933 . S
Zn72 O78 1.941 . S
Zn72 O79 1.965 . S
Zn73 O71 1.950 . S
Zn73 O80 1.938 . S
Zn73 O81 1.906 . S
Zn73 O91 1.953 . S
Zn74 O71 1.945 . S
Zn74 O76 1.932 . S
Zn74 O83 1.977 . S
Zn74 O84 1.910 . S
O75 Zn72 1.933 . S
O75 C86 1.226 . S
O76 Zn74 1.932 . S
O76 C86 1.307 . S
O77 Zn70 1.919 . S
O77 C88 1.253 . S
O78 Zn72 1.941 . S
O78 C88 1.283 . S
O79 Zn72 1.965 . S
O79 C87 1.303 . S
O80 Zn73 1.938 . S
O80 C87 1.247 . S
O81 Zn73 1.906 . S
O81 C89 1.304 . S
O82 Zn70 1.924 . S
O82 C90 1.311 . S
O83 Zn74 1.977 . S
O83 C89 1.272 . S
O84 Zn74 1.910 . S
O84 C90 1.231 . S
C85 O69 1.225 . S
C85 O91 1.298 . S
C86 O75 1.226 . S
C86 O76 1.307 . S
C87 O79 1.303 . S
C87 O80 1.247 . S
C88 O77 1.253 . S
C88 O78 1.283 . S
C89 O81 1.304 . S
C89 O83 1.272 . S
C90 O82 1.311 . S
C90 O84 1.231 . S
O91 Zn73 1.953 . S
O91 C85 1.298 . S
O92 Zn93 1.953 . S
O92 C108 1.225 . S
Zn93 O92 1.953 . S
Zn93 O94 1.949 . S
Zn93 O100 1.919 . S
Zn93 O105 1.924 . S
O94 Zn93 1.949 . S
O94 Zn95 1.923 . S
O94 Zn96 1.950 . S
O94 Zn97 1.945 . S
Zn95 O94 1.923 . S
Zn95 O98 1.933 . S
Zn95 O101 1.941 . S
Zn95 O102 1.965 . S
Zn96 O94 1.950 . S
Zn96 O103 1.938 . S
Zn96 O104 1.906 . S
Zn96 O114 1.953 . S
Zn97 O94 1.945 . S
Zn97 O99 1.932 . S
Zn97 O106 1.977 . S
Zn97 O107 1.910 . S
O98 Zn95 1.933 . S
O98 C109 1.226 . S
O99 Zn97 1.932 . S
O99 C109 1.307 . S
O100 Zn93 1.919 . S
O100 C111 1.253 . S
O101 Zn95 1.941 . S
O101 C111 1.283 . S
O102 Zn95 1.965 . S
O102 C110 1.303 . S
O103 Zn96 1.938 . S
O103 C110 1.247 . S
O104 Zn96 1.906 . S
O104 C112 1.304 . S
O105 Zn93 1.924 . S
O105 C113 1.311 . S
O106 Zn97 1.977 . S
O106 C112 1.272 . S
O107 Zn97 1.910 . S
O107 C113 1.231 . S
C108 O92 1.225 . S
C108 O114 1.298 . S
C109 O98 1.226 . S
C109 O99 1.307 . S
C110 O102 1.303 . S
C110 O103 1.247 . S
C111 O100 1.253 . S
C111 O101 1.283 . S
C112 O104 1.304 . S
C112 O106 1.272 . S
C113 O105 1.311 . S
C113 O107 1.231 . S
O114 Zn96 1.953 . S
O114 C108 1.298 . S
O115 Zn116 1.953 . S
O115 C131 1.225 . S
Zn116 O115 1.953 . S
Zn116 O117 1.949 . S
Zn116 O123 1.919 . S
Zn116 O128 1.924 . S
O117 Zn116 1.949 . S
O117 Zn118 1.923 . S
O117 Zn119 1.950 . S
O117 Zn120 1.945 . S
Zn118 O117 1.923 . S
Zn118 O121 1.933 . S
Zn118 O124 1.941 . S
Zn118 O125 1.965 . S
Zn119 O117 1.950 . S
Zn119 O126 1.938 . S
Zn119 O127 1.906 . S
Zn119 O137 1.953 . S
Zn120 O117 1.945 . S
Zn120 O122 1.932 . S
Zn120 O129 1.977 . S
Zn120 O130 1.910 . S
O121 Zn118 1.933 . S
O121 C132 1.226 . S
O122 Zn120 1.932 . S
O122 C132 1.307 . S
O123 Zn116 1.919 . S
O123 C134 1.253 . S
O124 Zn118 1.941 . S
O124 C134 1.283 . S
O125 Zn118 1.965 . S
O125 C133 1.303 . S
O126 Zn119 1.938 . S
O126 C133 1.247 . S
O127 Zn119 1.906 . S
O127 C135 1.304 . S
O128 Zn116 1.924 . S
O128 C136 1.311 . S
O129 Zn120 1.977 . S
O129 C135 1.272 . S
O130 Zn120 1.910 . S
O130 C136 1.231 . S
C131 O115 1.225 . S
C131 O137 1.298 . S
C132 O121 1.226 . S
C132 O122 1.307 . S
C133 O125 1.303 . S
C133 O126 1.247 . S
C134 O123 1.253 . S
C134 O124 1.283 . S
C135 O127 1.304 . S
C135 O129 1.272 . S
C136 O128 1.311 . S
C136 O130 1.231 . S
O137 Zn119 1.953 . S
O137 C131 1.298 . S
O138 Zn139 1.953 . S
O138 C154 1.225 . S
Zn139 O138 1.953 . S
Zn139 O140 1.949 . S
Zn139 O146 1.919 . S
Zn139 O151 1.924 . S
O140 Zn139 1.949 . S
O140 Zn141 1.923 . S
O140 Zn142 1.950 . S
O140 Zn143 1.945 . S
Zn141 O140 1.923 . S
Zn141 O144 1.933 . S
Zn141 O147 1.941 . S
Zn141 O148 1.965 . S
Zn142 O140 1.950 . S
Zn142 O149 1.938 . S
Zn142 O150 1.906 . S
Zn142 O160 1.953 . S
Zn143 O140 1.945 . S
Zn143 O145 1.932 . S
Zn143 O152 1.977 . S
Zn143 O153 1.910 . S
O144 Zn141 1.933 . S
O144 C155 1.226 . S
O145 Zn143 1.932 . S
O145 C155 1.307 . S
O146 Zn139 1.919 . S
O146 C157 1.253 . S
O147 Zn141 1.941 . S
O147 C157 1.283 . S
O148 Zn141 1.965 . S
O148 C156 1.303 . S
O149 Zn142 1.938 . S
O149 C156 1.247 . S
O150 Zn142 1.906 . S
O150 C158 1.304 . S
O151 Zn139 1.924 . S
O151 C159 1.311 . S
O152 Zn143 1.977 . S
O152 C158 1.272 . S
O153 Zn143 1.910 . S
O153 C159 1.231 . S
C154 O138 1.225 . S
C154 O160 1.298 . S
C155 O144 1.226 . S
C155 O145 1.307 . S
C156 O148 1.303 . S
C156 O149 1.247 . S
C157 O146 1.253 . S
C157 O147 1.283 . S
C158 O150 1.304 . S
C158 O152 1.272 . S
C159 O151 1.311 . S
C159 O153 1.231 . S
O160 Zn142 1.953 . S
O160 C154 1.298 . S
O161 Zn162 1.953 . S
O161 C177 1.225 . S
Zn162 O161 1.953 . S
Zn162 O163 1.949 . S
Zn162 O169 1.919 . S
Zn162 O174 1.924 . S
O163 Zn162 1.949 . S
O163 Zn164 1.923 . S
O163 Zn165 1.950 . S
O163 Zn166 1.945 . S
Zn164 O163 1.923 . S
Zn164 O167 1.933 . S
Zn164 O170 1.941 . S
Zn164 O171 1.965 . S
Zn165 O163 1.950 . S
Zn165 O172 1.938 . S
Zn165 O173 1.906 . S
Zn165 O183 1.953 . S
Zn166 O163 1.945 . S
Zn166 O168 1.932 . S
Zn166 O175 1.977 . S
Zn166 O176 1.910 . S
O167 Zn164 1.933 . S
O167 C178 1.226 . S
O168 Zn166 1.932 . S
O168 C178 1.307 . S
O169 Zn162 1.919 . S
O169 C180 1.253 . S
O170 Zn164 1.941 . S
O170 C180 1.283 . S
O171 Zn164 1.965 . S
O171 C179 1.303 . S
O172 Zn165 1.938 . S
O172 C179 1.247 . S
O173 Zn165 1.906 . S
O173 C181 1.304 . S
O174 Zn162 1.924 . S
O174 C182 1.311 . S
O175 Zn166 1.977 . S
O175 C181 1.272 . S
O176 Zn166 1.910 . S
O176 C182 1.231 . S
C177 O161 1.225 . S
C177 O183 1.298 . S
C178 O167 1.226 . S
C178 O168 1.307 . S
C179 O171 1.303 . S
C179 O172 1.247 . S
C180 O169 1.253 . S
C180 O170 1.283 . S
C181 O173 1.304 . S
C181 O175 1.272 . S
C182 O174 1.311 . S
C182 O176 1.231 . S
O183 Zn165 1.953 . S
O183 C177 1.298 . S
Fe184 O185 1.886 1_455 S
Fe184 O188 1.715 . S
Fe184 O193 2.077 1_455 S
Fe184 O198 1.935 . S
Fe184 O204 2.077 1_455 S
Fe184 O213 1.935 . S
O185 Fe184 1.886 1_655 S
O185 Fe187 1.715 . S
Fe186 O188 1.886 . S
Fe186 O189 1.715 1_545 S
Fe186 O196 1.935 1_545 S
Fe186 O197 2.077 . S
Fe186 O203 1.935 1_545 S
Fe186 O212 2.077 . S
Fe187 O185 1.715 . S
Fe187 O190 1.886 1_545 S
Fe187 O194 1.935 . S
Fe187 O199 2.077 1_545 S
Fe187 O205 1.935 . S
Fe187 O209 2.077 1_545 S
O188 Fe184 1.715 . S
O188 Fe186 1.886 . S
O189 Fe186 1.715 1_565 S
O189 Fe191 1.886 . S
O190 Fe187 1.886 1_565 S
O190 Fe191 1.715 1_655 S
Fe191 O189 1.886 . S
Fe191 O190 1.715 1_455 S
Fe191 O195 2.077 . S
Fe191 O200 1.935 1_455 S
Fe191 O202 2.077 . S
Fe191 O210 1.935 1_455 S
C192 O204 1.381 . S
C192 O205 1.421 . S
O193 Fe184 2.077 1_655 S
O193 C206 1.381 . S
O194 Fe187 1.935 . S
O194 C206 1.421 . S
O195 Fe191 2.077 . S
O195 C211 1.381 . S
O196 Fe186 1.935 1_565 S
O196 C211 1.421 . S
O197 Fe186 2.077 . S
O197 C201 1.381 . S
O198 Fe184 1.935 . S
O198 C201 1.421 . S
O199 Fe187 2.077 1_565 S
O199 C207 1.381 . S
O200 Fe191 1.935 1_655 S
O200 C207 1.421 . S
C201 O197 1.381 . S
C201 O198 1.421 . S
O202 Fe191 2.077 . S
O202 C214 1.381 . S
O203 Fe186 1.935 1_565 S
O203 C214 1.421 . S
O204 Fe184 2.077 1_655 S
O204 C192 1.381 . S
O205 Fe187 1.935 . S
O205 C192 1.421 . S
C206 O193 1.381 . S
C206 O194 1.421 . S
C207 O199 1.381 . S
C207 O200 1.421 . S
C208 O209 1.381 . S
C208 O210 1.421 . S
O209 Fe187 2.077 1_565 S
O209 C208 1.381 . S
O210 Fe191 1.935 1_655 S
O210 C208 1.421 . S
C211 O195 1.381 . S
C211 O196 1.421 . S
O212 Fe186 2.077 . S
O212 C215 1.381 . S
O213 Fe184 1.935 . S
O213 C215 1.421 . S
C214 O202 1.381 . S
C214 O203 1.421 . S
C215 O212 1.381 . S
C215 O213 1.421 . S
Fe216 O217 1.886 . S
Fe216 O220 1.715 . S
Fe216 O225 2.077 1_554 S
Fe216 O230 1.935 1_554 S
Fe216 O236 2.077 . S
Fe216 O245 1.935 . S
O217 Fe216 1.886 . S
O217 Fe219 1.715 1_565 S
Fe218 O220 1.886 1_545 S
Fe218 O221 1.715 . S
Fe218 O228 1.935 1_554 S
Fe218 O229 2.077 1_544 S
Fe218 O235 1.935 . S
Fe218 O244 2.077 1_545 S
Fe219 O217 1.715 1_545 S
Fe219 O222 1.886 . S
Fe219 O226 1.935 1_544 S
Fe219 O231 2.077 1_554 S
Fe219 O237 1.935 1_545 S
Fe219 O241 2.077 . S
O220 Fe216 1.715 . S
O220 Fe218 1.886 1_565 S
O221 Fe218 1.715 . S
O221 Fe223 1.886 . S
O222 Fe219 1.886 . S
O222 Fe223 1.715 . S
Fe223 O221 1.886 . S
Fe223 O222 1.715 . S
Fe223 O227 2.077 1_554 S
Fe223 O232 1.935 1_554 S
Fe223 O234 2.077 . S
Fe223 O242 1.935 . S
C224 O236 1.381 . S
C224 O237 1.421 . S
O225 Fe216 2.077 1_556 S
O225 C238 1.381 . S
O226 Fe219 1.935 1_566 S
O226 C238 1.421 . S
O227 Fe223 2.077 1_556 S
O227 C243 1.381 . S
O228 Fe218 1.935 1_556 S
O228 C243 1.421 . S
O229 Fe218 2.077 1_566 S
O229 C233 1.381 . S
O230 Fe216 1.935 1_556 S
O230 C233 1.421 . S
O231 Fe219 2.077 1_556 S
O231 C239 1.381 . S
O232 Fe223 1.935 1_556 S
O232 C239 1.421 . S
C233 O229 1.381 . S
C233 O230 1.421 . S
O234 Fe223 2.077 . S
O234 C246 1.381 . S
O235 Fe218 1.935 . S
O235 C246 1.421 . S
O236 Fe216 2.077 . S
O236 C224 1.381 . S
O237 Fe219 1.935 1_565 S
O237 C224 1.421 . S
C238 O225 1.381 . S
C238 O226 1.421 . S
C239 O231 1.381 . S
C239 O232 1.421 . S
C240 O241 1.381 . S
C240 O242 1.421 . S
O241 Fe219 2.077 . S
O241 C240 1.381 . S
O242 Fe223 1.935 . S
O242 C240 1.421 . S
C243 O227 1.381 . S
C243 O228 1.421 . S
O244 Fe218 2.077 1_565 S
O244 C247 1.381 . S
O245 Fe216 1.935 . S
O245 C247 1.421 . S
C246 O234 1.381 . S
C246 O235 1.421 . S
C247 O244 1.381 . S
C247 O245 1.421 . S
Fe248 O249 1.886 1_455 S
Fe248 O252 1.715 . S
Fe248 O257 2.077 1_454 S
Fe248 O262 1.935 1_554 S
Fe248 O268 2.077 1_455 S
Fe248 O277 1.935 . S
O249 Fe248 1.886 1_655 S
O249 Fe251 1.715 . S
Fe250 O252 1.886 . S
Fe250 O253 1.715 . S
Fe250 O260 1.935 1_554 S
Fe250 O261 2.077 1_554 S
Fe250 O267 1.935 . S
Fe250 O276 2.077 . S
Fe251 O249 1.715 . S
Fe251 O254 1.886 . S
Fe251 O258 1.935 1_554 S
Fe251 O263 2.077 1_554 S
Fe251 O269 1.935 . S
Fe251 O273 2.077 . S
O252 Fe248 1.715 . S
O252 Fe250 1.886 . S
O253 Fe250 1.715 . S
O253 Fe255 1.886 . S
O254 Fe251 1.886 . S
O254 Fe255 1.715 1_655 S
Fe255 O253 1.886 . S
Fe255 O254 1.715 1_455 S
Fe255 O259 2.077 1_554 S
Fe255 O264 1.935 1_454 S
Fe255 O266 2.077 . S
Fe255 O274 1.935 1_455 S
C256 O268 1.381 . S
C256 O269 1.421 . S
O257 Fe248 2.077 1_656 S
O257 C270 1.381 . S
O258 Fe251 1.935 1_556 S
O258 C270 1.421 . S
O259 Fe255 2.077 1_556 S
O259 C275 1.381 . S
O260 Fe250 1.935 1_556 S
O260 C275 1.421 . S
O261 Fe250 2.077 1_556 S
O261 C265 1.381 . S
O262 Fe248 1.935 1_556 S
O262 C265 1.421 . S
O263 Fe251 2.077 1_556 S
O263 C271 1.381 . S
O264 Fe255 1.935 1_656 S
O264 C271 1.421 . S
C265 O261 1.381 . S
C265 O262 1.421 . S
O266 Fe255 2.077 . S
O266 C278 1.381 . S
O267 Fe250 1.935 . S
O267 C278 1.421 . S
O268 Fe248 2.077 1_655 S
O268 C256 1.381 . S
O269 Fe251 1.935 . S
O269 C256 1.421 . S
C270 O257 1.381 . S
C270 O258 1.421 . S
C271 O263 1.381 . S
C271 O264 1.421 . S
C272 O273 1.381 . S
C272 O274 1.421 . S
O273 Fe251 2.077 . S
O273 C272 1.381 . S
O274 Fe255 1.935 1_655 S
O274 C272 1.421 . S
C275 O259 1.381 . S
C275 O260 1.421 . S
O276 Fe250 2.077 . S
O276 C279 1.381 . S
O277 Fe248 1.935 . S
O277 C279 1.421 . S
C278 O266 1.381 . S
C278 O267 1.421 . S
C279 O276 1.381 . S
C279 O277 1.421 . S
Fe280 O281 1.886 . S
Fe280 O284 1.715 . S
Fe280 O289 2.077 . S
Fe280 O294 1.935 . S
Fe280 O300 2.077 . S
Fe280 O309 1.935 . S
O281 Fe280 1.886 . S
O281 Fe283 1.715 1_556 S
Fe282 O284 1.886 1_554 S
Fe282 O285 1.715 . S
Fe282 O292 1.935 . S
Fe282 O293 2.077 1_554 S
Fe282 O299 1.935 . S
Fe282 O308 2.077 1_554 S
Fe283 O281 1.715 1_554 S
Fe283 O286 1.886 . S
Fe283 O290 1.935 1_554 S
Fe283 O295 2.077 . S
Fe283 O301 1.935 1_554 S
Fe283 O305 2.077 . S
O284 Fe280 1.715 . S
O284 Fe282 1.886 1_556 S
O285 Fe282 1.715 . S
O285 Fe287 1.886 . S
O286 Fe283 1.886 . S
O286 Fe287 1.715 . S
Fe287 O285 1.886 . S
Fe287 O286 1.715 . S
Fe287 O291 2.077 . S
Fe287 O296 1.935 . S
Fe287 O298 2.077 . S
Fe287 O306 1.935 . S
C288 O300 1.381 . S
C288 O301 1.421 . S
O289 Fe280 2.077 . S
O289 C302 1.381 . S
O290 Fe283 1.935 1_556 S
O290 C302 1.421 . S
O291 Fe287 2.077 . S
O291 C307 1.381 . S
O292 Fe282 1.935 . S
O292 C307 1.421 . S
O293 Fe282 2.077 1_556 S
O293 C297 1.381 . S
O294 Fe280 1.935 . S
O294 C297 1.421 . S
O295 Fe283 2.077 . S
O295 C303 1.381 . S
O296 Fe287 1.935 . S
O296 C303 1.421 . S
C297 O293 1.381 . S
C297 O294 1.421 . S
O298 Fe287 2.077 . S
O298 C310 1.381 . S
O299 Fe282 1.935 . S
O299 C310 1.421 . S
O300 Fe280 2.077 . S
O300 C288 1.381 . S
O301 Fe283 1.935 1_556 S
O301 C288 1.421 . S
C302 O289 1.381 . S
C302 O290 1.421 . S
C303 O295 1.381 . S
C303 O296 1.421 . S
C304 O305 1.381 . S
C304 O306 1.421 . S
O305 Fe283 2.077 . S
O305 C304 1.381 . S
O306 Fe287 1.935 . S
O306 C304 1.421 . S
C307 O291 1.381 . S
C307 O292 1.421 . S
O308 Fe282 2.077 1_556 S
O308 C311 1.381 . S
O309 Fe280 1.935 . S
O309 C311 1.421 . S
C310 O298 1.381 . S
C310 O299 1.421 . S
C311 O308 1.381 . S
C311 O309 1.421 . S
Fe312 O313 1.886 . S
Fe312 O316 1.715 . S
Fe312 O321 2.077 . S
Fe312 O326 1.935 . S
Fe312 O332 2.077 1_455 S
Fe312 O341 1.935 1_455 S
O313 Fe312 1.886 . S
O313 Fe315 1.715 . S
Fe314 O316 1.886 . S
Fe314 O317 1.715 . S
Fe314 O324 1.935 . S
Fe314 O325 2.077 . S
Fe314 O331 1.935 1_455 S
Fe314 O340 2.077 1_455 S
Fe315 O313 1.715 . S
Fe315 O318 1.886 . S
Fe315 O322 1.935 . S
Fe315 O327 2.077 . S
Fe315 O333 1.935 1_455 S
Fe315 O337 2.077 1_455 S
O316 Fe312 1.715 . S
O316 Fe314 1.886 . S
O317 Fe314 1.715 . S
O317 Fe319 1.886 . S
O318 Fe315 1.886 . S
O318 Fe319 1.715 . S
Fe319 O317 1.886 . S
Fe319 O318 1.715 . S
Fe319 O323 2.077 . S
Fe319 O328 1.935 . S
Fe319 O330 2.077 1_455 S
Fe319 O338 1.935 1_455 S
C320 O332 1.381 . S
C320 O333 1.421 . S
O321 Fe312 2.077 . S
O321 C334 1.381 . S
O322 Fe315 1.935 . S
O322 C334 1.421 . S
O323 Fe319 2.077 . S
O323 C339 1.381 . S
O324 Fe314 1.935 . S
O324 C339 1.421 . S
O325 Fe314 2.077 . S
O325 C329 1.381 . S
O326 Fe312 1.935 . S
O326 C329 1.421 . S
O327 Fe315 2.077 . S
O327 C335 1.381 . S
O328 Fe319 1.935 . S
O328 C335 1.421 . S
C329 O325 1.381 . S
C329 O326 1.421 . S
O330 Fe319 2.077 1_655 S
O330 C342 1.381 . S
O331 Fe314 1.935 1_655 S
O331 C342 1.421 . S
O332 Fe312 2.077 1_655 S
O332 C320 1.381 . S
O333 Fe315 1.935 1_655 S
O333 C320 1.421 . S
C334 O321 1.381 . S
C334 O322 1.421 . S
C335 O327 1.381 . S
C335 O328 1.421 . S
C336 O337 1.381 . S
C336 O338 1.421 . S
O337 Fe315 2.077 1_655 S
O337 C336 1.381 . S
O338 Fe319 1.935 1_655 S
O338 C336 1.421 . S
C339 O323 1.381 . S
C339 O324 1.421 . S
O340 Fe314 2.077 1_655 S
O340 C343 1.381 . S
O341 Fe312 1.935 1_655 S
O341 C343 1.421 . S
C342 O330 1.381 . S
C342 O331 1.421 . S
C343 O340 1.381 . S
C343 O341 1.421 . S
Fe344 O345 1.886 . S
Fe344 O348 1.715 . S
Fe344 O353 2.077 . S
Fe344 O358 1.935 . S
Fe344 O364 2.077 . S
Fe344 O373 1.935 . S
O345 Fe344 1.886 . S
O345 Fe347 1.715 1_565 S
Fe346 O348 1.886 1_545 S
Fe346 O349 1.715 . S
Fe346 O356 1.935 . S
Fe346 O357 2.077 1_545 S
Fe346 O363 1.935 . S
Fe346 O372 2.077 1_545 S
Fe347 O345 1.715 1_545 S
Fe347 O350 1.886 . S
Fe347 O354 1.935 1_545 S
Fe347 O359 2.077 . S
Fe347 O365 1.935 1_545 S
Fe347 O369 2.077 . S
O348 Fe344 1.715 . S
O348 Fe346 1.886 1_565 S
O349 Fe346 1.715 . S
O349 Fe351 1.886 . S
O350 Fe347 1.886 . S
O350 Fe351 1.715 . S
Fe351 O349 1.886 . S
Fe351 O350 1.715 . S
Fe351 O355 2.077 . S
Fe351 O360 1.935 . S
Fe351 O362 2.077 . S
Fe351 O370 1.935 . S
C352 O364 1.381 . S
C352 O365 1.421 . S
O353 Fe344 2.077 . S
O353 C366 1.381 . S
O354 Fe347 1.935 1_565 S
O354 C366 1.421 . S
O355 Fe351 2.077 . S
O355 C371 1.381 . S
O356 Fe346 1.935 . S
O356 C371 1.421 . S
O357 Fe346 2.077 1_565 S
O357 C361 1.381 . S
O358 Fe344 1.935 . S
O358 C361 1.421 . S
O359 Fe347 2.077 . S
O359 C367 1.381 . S
O360 Fe351 1.935 . S
O360 C367 1.421 . S
C361 O357 1.381 . S
C361 O358 1.421 . S
O362 Fe351 2.077 . S
O362 C374 1.381 . S
O363 Fe346 1.935 . S
O363 C374 1.421 . S
O364 Fe344 2.077 . S
O364 C352 1.381 . S
O365 Fe347 1.935 1_565 S
O365 C352 1.421 . S
C366 O353 1.381 . S
C366 O354 1.421 . S
C367 O359 1.381 . S
C367 O360 1.421 . S
C368 O369 1.381 . S
C368 O370 1.421 . S
O369 Fe347 2.077 . S
O369 C368 1.381 . S
O370 Fe351 1.935 . S
O370 C368 1.421 . S
C371 O355 1.381 . S
C371 O356 1.421 . S
O372 Fe346 2.077 1_565 S
O372 C375 1.381 . S
O373 Fe344 1.935 . S
O373 C375 1.421 . S
C374 O362 1.381 . S
C374 O363 1.421 . S
C375 O372 1.381 . S
C375 O373 1.421 . S
C376 C377 1.369 . S
C376 C378 1.419 . S
C376 H380 0.930 . S
C377 C376 1.369 . S
C377 C386 1.429 . S
C378 C376 1.419 . S
C378 C379 1.363 . S
C378 H381 0.929 . S
C379 C378 1.363 . S
C379 C385 1.428 . S
H380 C376 0.930 . S
H381 C378 0.929 . S
S382 N383 1.613 . S
S382 N384 1.610 . S
N383 S382 1.613 . S
N383 C386 1.350 . S
N384 S382 1.610 . S
N384 C385 1.351 . S
C385 C379 1.428 . S
C385 N384 1.351 . S
C385 C386 1.434 . S
C386 C377 1.429 . S
C386 N383 1.350 . S
C386 C385 1.434 . S
C387 C388 1.369 . S
C387 C389 1.419 . S
C387 H391 0.930 . S
C388 C387 1.369 . S
C388 C397 1.429 . S
C389 C387 1.419 . S
C389 C390 1.363 . S
C389 H392 0.929 . S
C390 C389 1.363 . S
C390 C396 1.428 . S
H391 C387 0.930 . S
H392 C389 0.929 . S
S393 N394 1.613 . S
S393 N395 1.610 . S
N394 S393 1.613 . S
N394 C397 1.350 . S
N395 S393 1.610 . S
N395 C396 1.351 . S
C396 C390 1.428 . S
C396 N395 1.351 . S
C396 C397 1.434 . S
C397 C388 1.429 . S
C397 N394 1.350 . S
C397 C396 1.434 . S
C398 C399 1.369 . S
C398 C400 1.419 . S
C398 H402 0.930 . S
C399 C398 1.369 . S
C399 C408 1.429 . S
C400 C398 1.419 . S
C400 C401 1.363 . S
C400 H403 0.929 . S
C401 C400 1.363 . S
C401 C407 1.428 . S
H402 C398 0.930 . S
H403 C400 0.929 . S
S404 N405 1.613 . S
S404 N406 1.610 . S
N405 S404 1.613 . S
N405 C408 1.350 . S
N406 S404 1.610 . S
N406 C407 1.351 . S
C407 C401 1.428 . S
C407 N406 1.351 . S
C407 C408 1.434 . S
C408 C399 1.429 . S
C408 N405 1.350 . S
C408 C407 1.434 . S
C409 C410 1.369 . S
C409 C411 1.419 . S
C409 H413 0.930 . S
C410 C409 1.369 . S
C410 C419 1.429 . S
C411 C409 1.419 . S
C411 C412 1.363 . S
C411 H414 0.929 . S
C412 C411 1.363 . S
C412 C418 1.428 . S
H413 C409 0.930 . S
H414 C411 0.929 . S
S415 N416 1.613 . S
S415 N417 1.610 . S
N416 S415 1.613 . S
N416 C419 1.350 . S
N417 S415 1.610 . S
N417 C418 1.351 . S
C418 C412 1.428 . S
C418 N417 1.351 . S
C418 C419 1.434 . S
C419 C410 1.429 . S
C419 N416 1.350 . S
C419 C418 1.434 . S
C420 C421 1.369 . S
C420 C422 1.419 . S
C420 H424 0.930 . S
C421 C420 1.369 . S
C421 C430 1.429 . S
C422 C420 1.419 . S
C422 C423 1.363 . S
C422 H425 0.929 . S
C423 C422 1.363 . S
C423 C429 1.428 . S
H424 C420 0.930 . S
H425 C422 0.929 . S
S426 N427 1.613 . S
S426 N428 1.610 . S
N427 S426 1.613 . S
N427 C430 1.350 . S
N428 S426 1.610 . S
N428 C429 1.351 . S
C429 C423 1.428 . S
C429 N428 1.351 . S
C429 C430 1.434 . S
C430 C421 1.429 . S
C430 N427 1.350 . S
C430 C429 1.434 . S
C431 C432 1.369 . S
C431 C433 1.419 . S
C431 H435 0.930 . S
C432 C431 1.369 . S
C432 C441 1.429 . S
C433 C431 1.419 . S
C433 C434 1.363 . S
C433 H436 0.929 . S
C434 C433 1.363 . S
C434 C440 1.428 . S
H435 C431 0.930 . S
H436 C433 0.929 . S
S437 N438 1.613 . S
S437 N439 1.610 . S
N438 S437 1.613 . S
N438 C441 1.350 . S
N439 S437 1.610 . S
N439 C440 1.351 . S
C440 C434 1.428 . S
C440 N439 1.351 . S
C440 C441 1.434 . S
C441 C432 1.429 . S
C441 N438 1.350 . S
C441 C440 1.434 . S
C442 C443 1.369 . S
C442 C444 1.419 . S
C442 H446 0.930 . S
C443 C442 1.369 . S
C443 C452 1.429 . S
C444 C442 1.419 . S
C444 C445 1.363 . S
C444 H447 0.929 . S
C445 C444 1.363 . S
C445 C451 1.428 . S
H446 C442 0.930 . S
H447 C444 0.929 . S
S448 N449 1.613 . S
S448 N450 1.610 . S
N449 S448 1.613 . S
N449 C452 1.350 . S
N450 S448 1.610 . S
N450 C451 1.351 . S
C451 C445 1.428 . S
C451 N450 1.351 . S
C451 C452 1.434 . S
C452 C443 1.429 . S
C452 N449 1.350 . S
C452 C451 1.434 . S
C453 C454 1.369 . S
C453 C455 1.419 . S
C453 H457 0.930 . S
C454 C453 1.369 . S
C454 C463 1.429 . S
C455 C453 1.419 . S
C455 C456 1.363 . S
C455 H458 0.929 . S
C456 C455 1.363 . S
C456 C462 1.428 . S
H457 C453 0.930 . S
H458 C455 0.929 . S
S459 N460 1.613 . S
S459 N461 1.610 . S
N460 S459 1.613 . S
N460 C463 1.350 . S
N461 S459 1.610 . S
N461 C462 1.351 . S
C462 C456 1.428 . S
C462 N461 1.351 . S
C462 C463 1.434 . S
C463 C454 1.429 . S
C463 N460 1.350 . S
C463 C462 1.434 . S
C464 C465 1.369 . S
C464 C466 1.419 . S
C464 H468 0.930 . S
C465 C464 1.369 . S
C465 C474 1.429 . S
C466 C464 1.419 . S
C466 C467 1.363 . S
C466 H469 0.929 . S
C467 C466 1.363 . S
C467 C473 1.428 . S
H468 C464 0.930 . S
H469 C466 0.929 . S
S470 N471 1.613 . S
S470 N472 1.610 . S
N471 S470 1.613 . S
N471 C474 1.350 . S
N472 S470 1.610 . S
N472 C473 1.351 . S
C473 C467 1.428 . S
C473 N472 1.351 . S
C473 C474 1.434 . S
C474 C465 1.429 . S
C474 N471 1.350 . S
C474 C473 1.434 . S
C475 C476 1.369 . S
C475 C477 1.419 . S
C475 H479 0.930 . S
C476 C475 1.369 . S
C476 C485 1.429 . S
C477 C475 1.419 . S
C477 C478 1.363 . S
C477 H480 0.929 . S
C478 C477 1.363 . S
C478 C484 1.428 . S
H479 C475 0.930 . S
H480 C477 0.929 . S
S481 N482 1.613 . S
S481 N483 1.610 . S
N482 S481 1.613 . S
N482 C485 1.350 . S
N483 S481 1.610 . S
N483 C484 1.351 . S
C484 C478 1.428 . S
C484 N483 1.351 . S
C484 C485 1.434 . S
C485 C476 1.429 . S
C485 N482 1.350 . S
C485 C484 1.434 . S
C486 C487 1.369 . S
C486 C488 1.419 . S
C486 H490 0.930 . S
C487 C486 1.369 . S
C487 C496 1.429 . S
C488 C486 1.419 . S
C488 C489 1.363 . S
C488 H491 0.929 . S
C489 C488 1.363 . S
C489 C495 1.428 . S
H490 C486 0.930 . S
H491 C488 0.929 . S
S492 N493 1.613 . S
S492 N494 1.610 . S
N493 S492 1.613 . S
N493 C496 1.350 . S
N494 S492 1.610 . S
N494 C495 1.351 . S
C495 C489 1.428 . S
C495 N494 1.351 . S
C495 C496 1.434 . S
C496 C487 1.429 . S
C496 N493 1.350 . S
C496 C495 1.434 . S
C497 C498 1.369 . S
C497 C499 1.419 . S
C497 H501 0.930 . S
C498 C497 1.369 . S
C498 C507 1.429 . S
C499 C497 1.419 . S
C499 C500 1.363 . S
C499 H502 0.929 . S
C500 C499 1.363 . S
C500 C506 1.428 . S
H501 C497 0.930 . S
H502 C499 0.929 . S
S503 N504 1.613 . S
S503 N505 1.610 . S
N504 S503 1.613 . S
N504 C507 1.350 . S
N505 S503 1.610 . S
N505 C506 1.351 . S
C506 C500 1.428 . S
C506 N505 1.351 . S
C506 C507 1.434 . S
C507 C498 1.429 . S
C507 N504 1.350 . S
C507 C506 1.434 . S
C508 C509 1.369 . S
C508 C510 1.419 . S
C508 H512 0.930 . S
C509 C508 1.369 . S
C509 C518 1.429 . S
C510 C508 1.419 . S
C510 C511 1.363 . S
C510 H513 0.929 . S
C511 C510 1.363 . S
C511 C517 1.428 . S
H512 C508 0.930 . S
H513 C510 0.929 . S
S514 N515 1.613 . S
S514 N516 1.610 . S
N515 S514 1.613 . S
N515 C518 1.350 . S
N516 S514 1.610 . S
N516 C517 1.351 . S
C517 C511 1.428 . S
C517 N516 1.351 . S
C517 C518 1.434 . S
C518 C509 1.429 . S
C518 N515 1.350 . S
C518 C517 1.434 . S
C519 C520 1.369 . S
C519 C521 1.419 . S
C519 H523 0.930 . S
C520 C519 1.369 . S
C520 C529 1.429 . S
C521 C519 1.419 . S
C521 C522 1.363 . S
C521 H524 0.929 . S
C522 C521 1.363 . S
C522 C528 1.428 . S
H523 C519 0.930 . S
H524 C521 0.929 . S
S525 N526 1.613 . S
S525 N527 1.610 . S
N526 S525 1.613 . S
N526 C529 1.350 . S
N527 S525 1.610 . S
N527 C528 1.351 . S
C528 C522 1.428 . S
C528 N527 1.351 . S
C528 C529 1.434 . S
C529 C520 1.429 . S
C529 N526 1.350 . S
C529 C528 1.434 . S
C530 C531 1.369 . S
C530 C532 1.419 . S
C530 H534 0.930 . S
C531 C530 1.369 . S
C531 C540 1.429 . S
C532 C530 1.419 . S
C532 C533 1.363 . S
C532 H535 0.929 . S
C533 C532 1.363 . S
C533 C539 1.428 . S
H534 C530 0.930 . S
H535 C532 0.929 . S
S536 N537 1.613 . S
S536 N538 1.610 . S
N537 S536 1.613 . S
N537 C540 1.350 . S
N538 S536 1.610 . S
N538 C539 1.351 . S
C539 C533 1.428 . S
C539 N538 1.351 . S
C539 C540 1.434 . S
C540 C531 1.429 . S
C540 N537 1.350 . S
C540 C539 1.434 . S
C541 C542 1.369 . S
C541 C543 1.419 . S
C541 H545 0.930 . S
C542 C541 1.369 . S
C542 C551 1.429 . S
C543 C541 1.419 . S
C543 C544 1.363 . S
C543 H546 0.929 . S
C544 C543 1.363 . S
C544 C550 1.428 . S
H545 C541 0.930 . S
H546 C543 0.929 . S
S547 N548 1.613 . S
S547 N549 1.610 . S
N548 S547 1.613 . S
N548 C551 1.350 . S
N549 S547 1.610 . S
N549 C550 1.351 . S
C550 C544 1.428 . S
C550 N549 1.351 . S
C550 C551 1.434 . S
C551 C542 1.429 . S
C551 N548 1.350 . S
C551 C550 1.434 . S
C552 C553 1.369 . S
C552 C554 1.419 . S
C552 H556 0.930 . S
C553 C552 1.369 . S
C553 C562 1.429 . S
C554 C552 1.419 . S
C554 C555 1.363 . S
C554 H557 0.929 . S
C555 C554 1.363 . S
C555 C561 1.428 . S
H556 C552 0.930 . S
H557 C554 0.929 . S
S558 N559 1.613 . S
S558 N560 1.610 . S
N559 S558 1.613 . S
N559 C562 1.350 . S
N560 S558 1.610 . S
N560 C561 1.351 . S
C561 C555 1.428 . S
C561 N560 1.351 . S
C561 C562 1.434 . S
C562 C553 1.429 . S
C562 N559 1.350 . S
C562 C561 1.434 . S
C563 C564 1.369 . S
C563 C565 1.419 . S
C563 H567 0.930 . S
C564 C563 1.369 . S
C564 C573 1.429 . S
C565 C563 1.419 . S
C565 C566 1.363 . S
C565 H568 0.929 . S
C566 C565 1.363 . S
C566 C572 1.428 . S
H567 C563 0.930 . S
H568 C565 0.929 . S
S569 N570 1.613 . S
S569 N571 1.610 . S
N570 S569 1.613 . S
N570 C573 1.350 . S
N571 S569 1.610 . S
N571 C572 1.351 . S
C572 C566 1.428 . S
C572 N571 1.351 . S
C572 C573 1.434 . S
C573 C564 1.429 . S
C573 N570 1.350 . S
C573 C572 1.434 . S
C574 C575 1.369 . S
C574 C576 1.419 . S
C574 H578 0.930 . S
C575 C574 1.369 . S
C575 C584 1.429 . S
C576 C574 1.419 . S
C576 C577 1.363 . S
C576 H579 0.929 . S
C577 C576 1.363 . S
C577 C583 1.428 . S
H578 C574 0.930 . S
H579 C576 0.929 . S
S580 N581 1.613 . S
S580 N582 1.610 . S
N581 S580 1.613 . S
N581 C584 1.350 . S
N582 S580 1.610 . S
N582 C583 1.351 . S
C583 C577 1.428 . S
C583 N582 1.351 . S
C583 C584 1.434 . S
C584 C575 1.429 . S
C584 N581 1.350 . S
C584 C583 1.434 . S
C585 C586 1.369 . S
C585 C587 1.419 . S
C585 H589 0.930 . S
C586 C585 1.369 . S
C586 C595 1.429 . S
C587 C585 1.419 . S
C587 C588 1.363 . S
C587 H590 0.929 . S
C588 C587 1.363 . S
C588 C594 1.428 . S
H589 C585 0.930 . S
H590 C587 0.929 . S
S591 N592 1.613 . S
S591 N593 1.610 . S
N592 S591 1.613 . S
N592 C595 1.350 . S
N593 S591 1.610 . S
N593 C594 1.351 . S
C594 C588 1.428 . S
C594 N593 1.351 . S
C594 C595 1.434 . S
C595 C586 1.429 . S
C595 N592 1.350 . S
C595 C594 1.434 . S
C596 C597 1.369 . S
C596 C598 1.419 . S
C596 H600 0.930 . S
C597 C596 1.369 . S
C597 C606 1.429 . S
C598 C596 1.419 . S
C598 C599 1.363 . S
C598 H601 0.929 . S
C599 C598 1.363 . S
C599 C605 1.428 . S
H600 C596 0.930 . S
H601 C598 0.929 . S
S602 N603 1.613 . S
S602 N604 1.610 . S
N603 S602 1.613 . S
N603 C606 1.350 . S
N604 S602 1.610 . S
N604 C605 1.351 . S
C605 C599 1.428 . S
C605 N604 1.351 . S
C605 C606 1.434 . S
C606 C597 1.429 . S
C606 N603 1.350 . S
C606 C605 1.434 . S
C607 C608 1.369 . S
C607 C609 1.419 . S
C607 H611 0.930 . S
C608 C607 1.369 . S
C608 C617 1.429 . S
C609 C607 1.419 . S
C609 C610 1.363 . S
C609 H612 0.929 . S
C610 C609 1.363 . S
C610 C616 1.428 . S
H611 C607 0.930 . S
H612 C609 0.929 . S
S613 N614 1.613 . S
S613 N615 1.610 . S
N614 S613 1.613 . S
N614 C617 1.350 . S
N615 S613 1.610 . S
N615 C616 1.351 . S
C616 C610 1.428 . S
C616 N615 1.351 . S
C616 C617 1.434 . S
C617 C608 1.429 . S
C617 N614 1.350 . S
C617 C616 1.434 . S
C618 C619 1.369 . S
C618 C620 1.419 . S
C618 H622 0.930 . S
C619 C618 1.369 . S
C619 C628 1.429 . S
C620 C618 1.419 . S
C620 C621 1.363 . S
C620 H623 0.929 . S
C621 C620 1.363 . S
C621 C627 1.428 . S
H622 C618 0.930 . S
H623 C620 0.929 . S
S624 N625 1.613 . S
S624 N626 1.610 . S
N625 S624 1.613 . S
N625 C628 1.350 . S
N626 S624 1.610 . S
N626 C627 1.351 . S
C627 C621 1.428 . S
C627 N626 1.351 . S
C627 C628 1.434 . S
C628 C619 1.429 . S
C628 N625 1.350 . S
C628 C627 1.434 . S
C629 C630 1.369 . S
C629 C631 1.419 . S
C629 H633 0.930 . S
C630 C629 1.369 . S
C630 C639 1.429 . S
C631 C629 1.419 . S
C631 C632 1.363 . S
C631 H634 0.929 . S
C632 C631 1.363 . S
C632 C638 1.428 . S
H633 C629 0.930 . S
H634 C631 0.929 . S
S635 N636 1.613 . S
S635 N637 1.610 . S
N636 S635 1.613 . S
N636 C639 1.350 . S
N637 S635 1.610 . S
N637 C638 1.351 . S
C638 C632 1.428 . S
C638 N637 1.351 . S
C638 C639 1.434 . S
C639 C630 1.429 . S
C639 N636 1.350 . S
C639 C638 1.434 . S
C640 C641 1.369 . S
C640 C642 1.419 . S
C640 H644 0.930 . S
C641 C640 1.369 . S
C641 C650 1.429 . S
C642 C640 1.419 . S
C642 C643 1.363 . S
C642 H645 0.929 . S
C643 C642 1.363 . S
C643 C649 1.428 . S
H644 C640 0.930 . S
H645 C642 0.929 . S
S646 N647 1.613 . S
S646 N648 1.610 . S
N647 S646 1.613 . S
N647 C650 1.350 . S
N648 S646 1.610 . S
N648 C649 1.351 . S
C649 C643 1.428 . S
C649 N648 1.351 . S
C649 C650 1.434 . S
C650 C641 1.429 . S
C650 N647 1.350 . S
C650 C649 1.434 . S
C651 C652 1.369 . S
C651 C653 1.419 . S
C651 H655 0.930 . S
C652 C651 1.369 . S
C652 C661 1.429 . S
C653 C651 1.419 . S
C653 C654 1.363 . S
C653 H656 0.929 . S
C654 C653 1.363 . S
C654 C660 1.428 . S
H655 C651 0.930 . S
H656 C653 0.929 . S
S657 N658 1.613 . S
S657 N659 1.610 . S
N658 S657 1.613 . S
N658 C661 1.350 . S
N659 S657 1.610 . S
N659 C660 1.351 . S
C660 C654 1.428 . S
C660 N659 1.351 . S
C660 C661 1.434 . S
C661 C652 1.429 . S
C661 N658 1.350 . S
C661 C660 1.434 . S
C662 C663 1.369 . S
C662 C664 1.419 . S
C662 H666 0.930 . S
C663 C662 1.369 . S
C663 C672 1.429 . S
C664 C662 1.419 . S
C664 C665 1.363 . S
C664 H667 0.929 . S
C665 C664 1.363 . S
C665 C671 1.428 . S
H666 C662 0.930 . S
H667 C664 0.929 . S
S668 N669 1.613 . S
S668 N670 1.610 . S
N669 S668 1.613 . S
N669 C672 1.350 . S
N670 S668 1.610 . S
N670 C671 1.351 . S
C671 C665 1.428 . S
C671 N670 1.351 . S
C671 C672 1.434 . S
C672 C663 1.429 . S
C672 N669 1.350 . S
C672 C671 1.434 . S
C673 C674 1.369 . S
C673 C675 1.419 . S
C673 H677 0.930 . S
C674 C673 1.369 . S
C674 C683 1.429 . S
C675 C673 1.419 . S
C675 C676 1.363 . S
C675 H678 0.929 . S
C676 C675 1.363 . S
C676 C682 1.428 . S
H677 C673 0.930 . S
H678 C675 0.929 . S
S679 N680 1.613 . S
S679 N681 1.610 . S
N680 S679 1.613 . S
N680 C683 1.350 . S
N681 S679 1.610 . S
N681 C682 1.351 . S
C682 C676 1.428 . S
C682 N681 1.351 . S
C682 C683 1.434 . S
C683 C674 1.429 . S
C683 N680 1.350 . S
C683 C682 1.434 . S
C684 C685 1.369 . S
C684 C686 1.419 . S
C684 H688 0.930 . S
C685 C684 1.369 . S
C685 C694 1.429 . S
C686 C684 1.419 . S
C686 C687 1.363 . S
C686 H689 0.929 . S
C687 C686 1.363 . S
C687 C693 1.428 . S
H688 C684 0.930 . S
H689 C686 0.929 . S
S690 N691 1.613 . S
S690 N692 1.610 . S
N691 S690 1.613 . S
N691 C694 1.350 . S
N692 S690 1.610 . S
N692 C693 1.351 . S
C693 C687 1.428 . S
C693 N692 1.351 . S
C693 C694 1.434 . S
C694 C685 1.429 . S
C694 N691 1.350 . S
C694 C693 1.434 . S
C695 C696 1.369 . S
C695 C697 1.419 . S
C695 H699 0.930 . S
C696 C695 1.369 . S
C696 C705 1.429 . S
C697 C695 1.419 . S
C697 C698 1.363 . S
C697 H700 0.929 . S
C698 C697 1.363 . S
C698 C704 1.428 . S
H699 C695 0.930 . S
H700 C697 0.929 . S
S701 N702 1.613 . S
S701 N703 1.610 . S
N702 S701 1.613 . S
N702 C705 1.350 . S
N703 S701 1.610 . S
N703 C704 1.351 . S
C704 C698 1.428 . S
C704 N703 1.351 . S
C704 C705 1.434 . S
C705 C696 1.429 . S
C705 N702 1.350 . S
C705 C704 1.434 . S
C706 C707 1.369 . S
C706 C708 1.419 . S
C706 H710 0.930 . S
C707 C706 1.369 . S
C707 C716 1.429 . S
C708 C706 1.419 . S
C708 C709 1.363 . S
C708 H711 0.929 . S
C709 C708 1.363 . S
C709 C715 1.428 . S
H710 C706 0.930 . S
H711 C708 0.929 . S
S712 N713 1.613 . S
S712 N714 1.610 . S
N713 S712 1.613 . S
N713 C716 1.350 . S
N714 S712 1.610 . S
N714 C715 1.351 . S
C715 C709 1.428 . S
C715 N714 1.351 . S
C715 C716 1.434 . S
C716 C707 1.429 . S
C716 N713 1.350 . S
C716 C715 1.434 . S
C717 C718 1.369 . S
C717 C719 1.419 . S
C717 H721 0.930 . S
C718 C717 1.369 . S
C718 C727 1.429 . S
C719 C717 1.419 . S
C719 C720 1.363 . S
C719 H722 0.929 . S
C720 C719 1.363 . S
C720 C726 1.428 . S
H721 C717 0.930 . S
H722 C719 0.929 . S
S723 N724 1.613 . S
S723 N725 1.610 . S
N724 S723 1.613 . S
N724 C727 1.350 . S
N725 S723 1.610 . S
N725 C726 1.351 . S
C726 C720 1.428 . S
C726 N725 1.351 . S
C726 C727 1.434 . S
C727 C718 1.429 . S
C727 N724 1.350 . S
C727 C726 1.434 . S
C728 C729 1.369 . S
C728 C730 1.419 . S
C728 H732 0.930 . S
C729 C728 1.369 . S
C729 C738 1.429 . S
C730 C728 1.419 . S
C730 C731 1.363 . S
C730 H733 0.929 . S
C731 C730 1.363 . S
C731 C737 1.428 . S
H732 C728 0.930 . S
H733 C730 0.929 . S
S734 N735 1.613 . S
S734 N736 1.610 . S
N735 S734 1.613 . S
N735 C738 1.350 . S
N736 S734 1.610 . S
N736 C737 1.351 . S
C737 C731 1.428 . S
C737 N736 1.351 . S
C737 C738 1.434 . S
C738 C729 1.429 . S
C738 N735 1.350 . S
C738 C737 1.434 . S
C739 C740 1.369 . S
C739 C741 1.419 . S
C739 H743 0.930 . S
C740 C739 1.369 . S
C740 C749 1.429 . S
C741 C739 1.419 . S
C741 C742 1.363 . S
C741 H744 0.929 . S
C742 C741 1.363 . S
C742 C748 1.428 . S
H743 C739 0.930 . S
H744 C741 0.929 . S
S745 N746 1.613 . S
S745 N747 1.610 . S
N746 S745 1.613 . S
N746 C749 1.350 . S
N747 S745 1.610 . S
N747 C748 1.351 . S
C748 C742 1.428 . S
C748 N747 1.351 . S
C748 C749 1.434 . S
C749 C740 1.429 . S
C749 N746 1.350 . S
C749 C748 1.434 . S
C750 C751 1.369 . S
C750 C752 1.419 . S
C750 H754 0.930 . S
C751 C750 1.369 . S
C751 C760 1.429 . S
C752 C750 1.419 . S
C752 C753 1.363 . S
C752 H755 0.929 . S
C753 C752 1.363 . S
C753 C759 1.428 . S
H754 C750 0.930 . S
H755 C752 0.929 . S
S756 N757 1.613 . S
S756 N758 1.610 . S
N757 S756 1.613 . S
N757 C760 1.350 . S
N758 S756 1.610 . S
N758 C759 1.351 . S
C759 C753 1.428 . S
C759 N758 1.351 . S
C759 C760 1.434 . S
C760 C751 1.429 . S
C760 N757 1.350 . S
C760 C759 1.434 . S
C761 C762 1.369 . S
C761 C763 1.419 . S
C761 H765 0.930 . S
C762 C761 1.369 . S
C762 C771 1.429 . S
C763 C761 1.419 . S
C763 C764 1.363 . S
C763 H766 0.929 . S
C764 C763 1.363 . S
C764 C770 1.428 . S
H765 C761 0.930 . S
H766 C763 0.929 . S
S767 N768 1.613 . S
S767 N769 1.610 . S
N768 S767 1.613 . S
N768 C771 1.350 . S
N769 S767 1.610 . S
N769 C770 1.351 . S
C770 C764 1.428 . S
C770 N769 1.351 . S
C770 C771 1.434 . S
C771 C762 1.429 . S
C771 N768 1.350 . S
C771 C770 1.434 . S
C772 C773 1.369 . S
C772 C774 1.419 . S
C772 H776 0.930 . S
C773 C772 1.369 . S
C773 C782 1.429 . S
C774 C772 1.419 . S
C774 C775 1.363 . S
C774 H777 0.929 . S
C775 C774 1.363 . S
C775 C781 1.428 . S
H776 C772 0.930 . S
H777 C774 0.929 . S
S778 N779 1.613 . S
S778 N780 1.610 . S
N779 S778 1.613 . S
N779 C782 1.350 . S
N780 S778 1.610 . S
N780 C781 1.351 . S
C781 C775 1.428 . S
C781 N780 1.351 . S
C781 C782 1.434 . S
C782 C773 1.429 . S
C782 N779 1.350 . S
C782 C781 1.434 . S
C783 C784 1.369 . S
C783 C785 1.419 . S
C783 H787 0.930 . S
C784 C783 1.369 . S
C784 C793 1.429 . S
C785 C783 1.419 . S
C785 C786 1.363 . S
C785 H788 0.929 . S
C786 C785 1.363 . S
C786 C792 1.428 . S
H787 C783 0.930 . S
H788 C785 0.929 . S
S789 N790 1.613 . S
S789 N791 1.610 . S
N790 S789 1.613 . S
N790 C793 1.350 . S
N791 S789 1.610 . S
N791 C792 1.351 . S
C792 C786 1.428 . S
C792 N791 1.351 . S
C792 C793 1.434 . S
C793 C784 1.429 . S
C793 N790 1.350 . S
C793 C792 1.434 . S
C794 C795 1.369 . S
C794 C796 1.419 . S
C794 H798 0.930 . S
C795 C794 1.369 . S
C795 C804 1.429 . S
C796 C794 1.419 . S
C796 C797 1.363 . S
C796 H799 0.929 . S
C797 C796 1.363 . S
C797 C803 1.428 . S
H798 C794 0.930 . S
H799 C796 0.929 . S
S800 N801 1.613 . S
S800 N802 1.610 . S
N801 S800 1.613 . S
N801 C804 1.350 . S
N802 S800 1.610 . S
N802 C803 1.351 . S
C803 C797 1.428 . S
C803 N802 1.351 . S
C803 C804 1.434 . S
C804 C795 1.429 . S
C804 N801 1.350 . S
C804 C803 1.434 . S
C805 C806 1.369 . S
C805 C807 1.419 . S
C805 H809 0.930 . S
C806 C805 1.369 . S
C806 C815 1.429 . S
C807 C805 1.419 . S
C807 C808 1.363 . S
C807 H810 0.929 . S
C808 C807 1.363 . S
C808 C814 1.428 . S
H809 C805 0.930 . S
H810 C807 0.929 . S
S811 N812 1.613 . S
S811 N813 1.610 . S
N812 S811 1.613 . S
N812 C815 1.350 . S
N813 S811 1.610 . S
N813 C814 1.351 . S
C814 C808 1.428 . S
C814 N813 1.351 . S
C814 C815 1.434 . S
C815 C806 1.429 . S
C815 N812 1.350 . S
C815 C814 1.434 . S
C816 C817 1.369 . S
C816 C818 1.419 . S
C816 H820 0.930 . S
C817 C816 1.369 . S
C817 C826 1.429 . S
C818 C816 1.419 . S
C818 C819 1.363 . S
C818 H821 0.929 . S
C819 C818 1.363 . S
C819 C825 1.428 . S
H820 C816 0.930 . S
H821 C818 0.929 . S
S822 N823 1.613 . S
S822 N824 1.610 . S
N823 S822 1.613 . S
N823 C826 1.350 . S
N824 S822 1.610 . S
N824 C825 1.351 . S
C825 C819 1.428 . S
C825 N824 1.351 . S
C825 C826 1.434 . S
C826 C817 1.429 . S
C826 N823 1.350 . S
C826 C825 1.434 . S
C827 C828 1.369 . S
C827 C829 1.419 . S
C827 H831 0.930 . S
C828 C827 1.369 . S
C828 C837 1.429 . S
C829 C827 1.419 . S
C829 C830 1.363 . S
C829 H832 0.929 . S
C830 C829 1.363 . S
C830 C836 1.428 . S
H831 C827 0.930 . S
H832 C829 0.929 . S
S833 N834 1.613 . S
S833 N835 1.610 . S
N834 S833 1.613 . S
N834 C837 1.350 . S
N835 S833 1.610 . S
N835 C836 1.351 . S
C836 C830 1.428 . S
C836 N835 1.351 . S
C836 C837 1.434 . S
C837 C828 1.429 . S
C837 N834 1.350 . S
C837 C836 1.434 . S
C838 C839 1.369 . S
C838 C840 1.419 . S
C838 H842 0.930 . S
C839 C838 1.369 . S
C839 C848 1.429 . S
C840 C838 1.419 . S
C840 C841 1.363 . S
C840 H843 0.929 . S
C841 C840 1.363 . S
C841 C847 1.428 . S
H842 C838 0.930 . S
H843 C840 0.929 . S
S844 N845 1.613 . S
S844 N846 1.610 . S
N845 S844 1.613 . S
N845 C848 1.350 . S
N846 S844 1.610 . S
N846 C847 1.351 . S
C847 C841 1.428 . S
C847 N846 1.351 . S
C847 C848 1.434 . S
C848 C839 1.429 . S
C848 N845 1.350 . S
C848 C847 1.434 . S
C849 C850 1.369 . S
C849 C851 1.419 . S
C849 H853 0.930 . S
C850 C849 1.369 . S
C850 C859 1.429 . S
C851 C849 1.419 . S
C851 C852 1.363 . S
C851 H854 0.929 . S
C852 C851 1.363 . S
C852 C858 1.428 . S
H853 C849 0.930 . S
H854 C851 0.929 . S
S855 N856 1.613 . S
S855 N857 1.610 . S
N856 S855 1.613 . S
N856 C859 1.350 . S
N857 S855 1.610 . S
N857 C858 1.351 . S
C858 C852 1.428 . S
C858 N857 1.351 . S
C858 C859 1.434 . S
C859 C850 1.429 . S
C859 N856 1.350 . S
C859 C858 1.434 . S
C860 C861 1.369 . S
C860 C862 1.419 . S
C860 H864 0.930 . S
C861 C860 1.369 . S
C861 C870 1.429 . S
C862 C860 1.419 . S
C862 C863 1.363 . S
C862 H865 0.929 . S
C863 C862 1.363 . S
C863 C869 1.428 . S
H864 C860 0.930 . S
H865 C862 0.929 . S
S866 N867 1.613 . S
S866 N868 1.610 . S
N867 S866 1.613 . S
N867 C870 1.350 . S
N868 S866 1.610 . S
N868 C869 1.351 . S
C869 C863 1.428 . S
C869 N868 1.351 . S
C869 C870 1.434 . S
C870 C861 1.429 . S
C870 N867 1.350 . S
C870 C869 1.434 . S
C871 C872 1.369 . S
C871 C873 1.419 . S
C871 H875 0.930 . S
C872 C871 1.369 . S
C872 C881 1.429 . S
C873 C871 1.419 . S
C873 C874 1.363 . S
C873 H876 0.929 . S
C874 C873 1.363 . S
C874 C880 1.428 . S
H875 C871 0.930 . S
H876 C873 0.929 . S
S877 N878 1.613 . S
S877 N879 1.610 . S
N878 S877 1.613 . S
N878 C881 1.350 . S
N879 S877 1.610 . S
N879 C880 1.351 . S
C880 C874 1.428 . S
C880 N879 1.351 . S
C880 C881 1.434 . S
C881 C872 1.429 . S
C881 N878 1.350 . S
C881 C880 1.434 . S
C882 C883 1.369 . S
C882 C884 1.419 . S
C882 H886 0.930 . S
C883 C882 1.369 . S
C883 C892 1.429 . S
C884 C882 1.419 . S
C884 C885 1.363 . S
C884 H887 0.929 . S
C885 C884 1.363 . S
C885 C891 1.428 . S
H886 C882 0.930 . S
H887 C884 0.929 . S
S888 N889 1.613 . S
S888 N890 1.610 . S
N889 S888 1.613 . S
N889 C892 1.350 . S
N890 S888 1.610 . S
N890 C891 1.351 . S
C891 C885 1.428 . S
C891 N890 1.351 . S
C891 C892 1.434 . S
C892 C883 1.429 . S
C892 N889 1.350 . S
C892 C891 1.434 . S
C893 C894 1.369 . S
C893 C895 1.419 . S
C893 H897 0.930 . S
C894 C893 1.369 . S
C894 C903 1.429 . S
C895 C893 1.419 . S
C895 C896 1.363 . S
C895 H898 0.929 . S
C896 C895 1.363 . S
C896 C902 1.428 . S
H897 C893 0.930 . S
H898 C895 0.929 . S
S899 N900 1.613 . S
S899 N901 1.610 . S
N900 S899 1.613 . S
N900 C903 1.350 . S
N901 S899 1.610 . S
N901 C902 1.351 . S
C902 C896 1.428 . S
C902 N901 1.351 . S
C902 C903 1.434 . S
C903 C894 1.429 . S
C903 N900 1.350 . S
C903 C902 1.434 . S
C379 C201 1.386 . S
C377 C17 1.360 . S
C390 C206 1.649 . S
C388 C44 1.472 . S
C401 C207 1.417 . S
C399 C63 1.392 . S
C410 C87 1.369 . S
C412 C211 1.342 . S
C421 C110 1.346 . S
C423 C214 1.332 . S
C434 C215 1.440 . S
C432 C131 1.402 . S
C443 C159 1.444 . S
C445 C192 1.631 . S
C454 C177 1.382 . S
C456 C208 1.414 . S
C467 C246 1.448 . S
C465 C20 1.361 . S
C476 C42 1.391 . S
C478 C272 1.385 . S
C489 C224 1.502 . S
C487 C66 1.376 . S
C500 C279 1.287 . S
C498 C86 1.335 . S
C509 C109 1.331 . S
C511 C233 1.295 . S
C522 C275 1.531 . S
C520 C136 1.425 . S
C531 C157 1.389 . S
C533 C239 1.391 . S
C542 C182 1.386 . S
C544 C270 1.480 . S
C553 C18 1.374 . S
C555 C278 1.306 . S
C564 C112 1.324 . S
C566 C265 1.394 . S
C577 C243 1.300 . S
C575 C134 1.312 . S
C588 C271 1.378 . S
C586 C154 1.433 . S
C597 C180 1.326 . S
C599 C238 1.308 . S
C608 C64 1.357 . S
C610 C256 1.302 . S
C621 C247 1.435 . S
C619 C89 1.335 . S
C630 C39 1.447 . S
C632 C240 1.411 . S
C641 C178 1.335 . S
C643 C302 1.303 . S
C652 C113 1.448 . S
C654 C297 1.480 . S
C665 C311 1.318 . S
C663 C132 1.365 . S
C676 C288 1.277 . S
C674 C156 1.343 . S
C685 C41 1.325 . S
C687 C304 1.287 . S
C698 C303 1.333 . S
C696 C62 1.384 . S
C707 C90 1.418 . S
C709 C307 1.528 . S
C718 C16 1.357 . S
C720 C310 1.320 . S
C729 C181 1.365 . S
C731 C336 1.564 . S
C742 C352 1.378 . S
C740 C111 1.409 . S
C751 C135 1.384 . S
C753 C334 1.619 . S
C762 C155 1.353 . S
C764 C367 1.295 . S
C775 C343 1.357 . S
C773 C40 1.333 . S
C784 C67 1.432 . S
C786 C361 1.483 . S
C797 C339 1.411 . S
C795 C88 1.393 . S
C808 C374 1.468 . S
C806 C21 1.407 . S
C819 C366 1.355 . S
C817 C179 1.394 . S
C828 C43 1.337 . S
C830 C371 1.486 . S
C839 C65 1.323 . S
C841 C342 1.342 . S
C852 C375 1.415 . S
C850 C85 1.446 . S
C861 C19 1.338 . S
C863 C329 1.354 . S
C872 C133 1.381 . S
C874 C368 1.346 . S
C885 C320 1.561 . S
C883 C158 1.338 . S
C896 C335 1.498 . S
C894 C108 1.452 . S
