# Generated by pormake.
# Topology gar, (4,6)-cn, num edge types: 1
# Building blocks:
#     Node 0, Type 0, BuildingBlock: NAHDIM_clean_sbu_0, # of connection points: 4
#     Node 1, Type 0, BuildingBlock: NAHDIM_clean_sbu_0, # of connection points: 4
#     Node 2, Type 0, BuildingBlock: NAHDIM_clean_sbu_0, # of connection points: 4
#     Node 3, Type 0, BuildingBlock: NAHDIM_clean_sbu_0, # of connection points: 4
#     Node 4, Type 0, BuildingBlock: NAHDIM_clean_sbu_0, # of connection points: 4
#     Node 5, Type 0, BuildingBlock: NAHDIM_clean_sbu_0, # of connection points: 4
#     Node 6, Type 0, BuildingBlock: NAHDIM_clean_sbu_0, # of connection points: 4
#     Node 7, Type 0, BuildingBlock: NAHDIM_clean_sbu_0, # of connection points: 4
#     Node 8, Type 0, BuildingBlock: NAHDIM_clean_sbu_0, # of connection points: 4
#     Node 9, Type 0, BuildingBlock: NAHDIM_clean_sbu_0, # of connection points: 4
#     Node 10, Type 0, BuildingBlock: NAHDIM_clean_sbu_0, # of connection points: 4
#     Node 11, Type 0, BuildingBlock: NAHDIM_clean_sbu_0, # of connection points: 4
#     Node 12, Type 0, BuildingBlock: NAHDIM_clean_sbu_0, # of connection points: 4
#     Node 13, Type 0, BuildingBlock: NAHDIM_clean_sbu_0, # of connection points: 4
#     Node 14, Type 0, BuildingBlock: NAHDIM_clean_sbu_0, # of connection points: 4
#     Node 15, Type 0, BuildingBlock: NAHDIM_clean_sbu_0, # of connection points: 4
#     Node 16, Type 0, BuildingBlock: NAHDIM_clean_sbu_0, # of connection points: 4
#     Node 17, Type 0, BuildingBlock: NAHDIM_clean_sbu_0, # of connection points: 4
#     Node 18, Type 0, BuildingBlock: NAHDIM_clean_sbu_0, # of connection points: 4
#     Node 19, Type 0, BuildingBlock: NAHDIM_clean_sbu_0, # of connection points: 4
#     Node 20, Type 0, BuildingBlock: NAHDIM_clean_sbu_0, # of connection points: 4
#     Node 21, Type 0, BuildingBlock: NAHDIM_clean_sbu_0, # of connection points: 4
#     Node 22, Type 0, BuildingBlock: NAHDIM_clean_sbu_0, # of connection points: 4
#     Node 23, Type 0, BuildingBlock: NAHDIM_clean_sbu_0, # of connection points: 4
#     Node 24, Type 1, BuildingBlock: KUMJIN_clean_sbu_1, # of connection points: 6
#     Node 25, Type 1, BuildingBlock: KUMJIN_clean_sbu_1, # of connection points: 6
#     Node 26, Type 1, BuildingBlock: KUMJIN_clean_sbu_1, # of connection points: 6
#     Node 27, Type 1, BuildingBlock: KUMJIN_clean_sbu_1, # of connection points: 6
#     Node 28, Type 1, BuildingBlock: KUMJIN_clean_sbu_1, # of connection points: 6
#     Node 29, Type 1, BuildingBlock: KUMJIN_clean_sbu_1, # of connection points: 6
#     Node 30, Type 1, BuildingBlock: KUMJIN_clean_sbu_1, # of connection points: 6
#     Node 31, Type 1, BuildingBlock: KUMJIN_clean_sbu_1, # of connection points: 6
#     Node 32, Type 1, BuildingBlock: KUMJIN_clean_sbu_1, # of connection points: 6
#     Node 33, Type 1, BuildingBlock: KUMJIN_clean_sbu_1, # of connection points: 6
#     Node 34, Type 1, BuildingBlock: KUMJIN_clean_sbu_1, # of connection points: 6
#     Node 35, Type 1, BuildingBlock: KUMJIN_clean_sbu_1, # of connection points: 6
#     Node 36, Type 1, BuildingBlock: KUMJIN_clean_sbu_1, # of connection points: 6
#     Node 37, Type 1, BuildingBlock: KUMJIN_clean_sbu_1, # of connection points: 6
#     Node 38, Type 1, BuildingBlock: KUMJIN_clean_sbu_1, # of connection points: 6
#     Node 39, Type 1, BuildingBlock: KUMJIN_clean_sbu_1, # of connection points: 6
#     Edge 40, Type (0, 1), BuildingBlock: ZUJKAS_clean_linker_0, # of connection points: 2
#     Edge 41, Type (0, 1), BuildingBlock: ZUJKAS_clean_linker_0, # of connection points: 2
#     Edge 42, Type (0, 1), BuildingBlock: ZUJKAS_clean_linker_0, # of connection points: 2
#     Edge 43, Type (0, 1), BuildingBlock: ZUJKAS_clean_linker_0, # of connection points: 2
#     Edge 44, Type (0, 1), BuildingBlock: ZUJKAS_clean_linker_0, # of connection points: 2
#     Edge 45, Type (0, 1), BuildingBlock: ZUJKAS_clean_linker_0, # of connection points: 2
#     Edge 46, Type (0, 1), BuildingBlock: ZUJKAS_clean_linker_0, # of connection points: 2
#     Edge 47, Type (0, 1), BuildingBlock: ZUJKAS_clean_linker_0, # of connection points: 2
#     Edge 48, Type (0, 1), BuildingBlock: ZUJKAS_clean_linker_0, # of connection points: 2
#     Edge 49, Type (0, 1), BuildingBlock: ZUJKAS_clean_linker_0, # of connection points: 2
#     Edge 50, Type (0, 1), BuildingBlock: ZUJKAS_clean_linker_0, # of connection points: 2
#     Edge 51, Type (0, 1), BuildingBlock: ZUJKAS_clean_linker_0, # of connection points: 2
#     Edge 52, Type (0, 1), BuildingBlock: ZUJKAS_clean_linker_0, # of connection points: 2
#     Edge 53, Type (0, 1), BuildingBlock: ZUJKAS_clean_linker_0, # of connection points: 2
#     Edge 54, Type (0, 1), BuildingBlock: ZUJKAS_clean_linker_0, # of connection points: 2
#     Edge 55, Type (0, 1), BuildingBlock: ZUJKAS_clean_linker_0, # of connection points: 2
#     Edge 56, Type (0, 1), BuildingBlock: ZUJKAS_clean_linker_0, # of connection points: 2
#     Edge 57, Type (0, 1), BuildingBlock: ZUJKAS_clean_linker_0, # of connection points: 2
#     Edge 58, Type (0, 1), BuildingBlock: ZUJKAS_clean_linker_0, # of connection points: 2
#     Edge 59, Type (0, 1), BuildingBlock: ZUJKAS_clean_linker_0, # of connection points: 2
#     Edge 60, Type (0, 1), BuildingBlock: ZUJKAS_clean_linker_0, # of connection points: 2
#     Edge 61, Type (0, 1), BuildingBlock: ZUJKAS_clean_linker_0, # of connection points: 2
#     Edge 62, Type (0, 1), BuildingBlock: ZUJKAS_clean_linker_0, # of connection points: 2
#     Edge 63, Type (0, 1), BuildingBlock: ZUJKAS_clean_linker_0, # of connection points: 2
#     Edge 64, Type (0, 1), BuildingBlock: ZUJKAS_clean_linker_0, # of connection points: 2
#     Edge 65, Type (0, 1), BuildingBlock: ZUJKAS_clean_linker_0, # of connection points: 2
#     Edge 66, Type (0, 1), BuildingBlock: ZUJKAS_clean_linker_0, # of connection points: 2
#     Edge 67, Type (0, 1), BuildingBlock: ZUJKAS_clean_linker_0, # of connection points: 2
#     Edge 68, Type (0, 1), BuildingBlock: ZUJKAS_clean_linker_0, # of connection points: 2
#     Edge 69, Type (0, 1), BuildingBlock: ZUJKAS_clean_linker_0, # of connection points: 2
#     Edge 70, Type (0, 1), BuildingBlock: ZUJKAS_clean_linker_0, # of connection points: 2
#     Edge 71, Type (0, 1), BuildingBlock: ZUJKAS_clean_linker_0, # of connection points: 2
#     Edge 72, Type (0, 1), BuildingBlock: ZUJKAS_clean_linker_0, # of connection points: 2
#     Edge 73, Type (0, 1), BuildingBlock: ZUJKAS_clean_linker_0, # of connection points: 2
#     Edge 74, Type (0, 1), BuildingBlock: ZUJKAS_clean_linker_0, # of connection points: 2
#     Edge 75, Type (0, 1), BuildingBlock: ZUJKAS_clean_linker_0, # of connection points: 2
#     Edge 76, Type (0, 1), BuildingBlock: ZUJKAS_clean_linker_0, # of connection points: 2
#     Edge 77, Type (0, 1), BuildingBlock: ZUJKAS_clean_linker_0, # of connection points: 2
#     Edge 78, Type (0, 1), BuildingBlock: ZUJKAS_clean_linker_0, # of connection points: 2
#     Edge 79, Type (0, 1), BuildingBlock: ZUJKAS_clean_linker_0, # of connection points: 2
#     Edge 80, Type (0, 1), BuildingBlock: ZUJKAS_clean_linker_0, # of connection points: 2
#     Edge 81, Type (0, 1), BuildingBlock: ZUJKAS_clean_linker_0, # of connection points: 2
#     Edge 82, Type (0, 1), BuildingBlock: ZUJKAS_clean_linker_0, # of connection points: 2
#     Edge 83, Type (0, 1), BuildingBlock: ZUJKAS_clean_linker_0, # of connection points: 2
#     Edge 84, Type (0, 1), BuildingBlock: ZUJKAS_clean_linker_0, # of connection points: 2
#     Edge 85, Type (0, 1), BuildingBlock: ZUJKAS_clean_linker_0, # of connection points: 2
#     Edge 86, Type (0, 1), BuildingBlock: ZUJKAS_clean_linker_0, # of connection points: 2
#     Edge 87, Type (0, 1), BuildingBlock: ZUJKAS_clean_linker_0, # of connection points: 2
#     Edge 88, Type (0, 1), BuildingBlock: ZUJKAS_clean_linker_0, # of connection points: 2
#     Edge 89, Type (0, 1), BuildingBlock: ZUJKAS_clean_linker_0, # of connection points: 2
#     Edge 90, Type (0, 1), BuildingBlock: ZUJKAS_clean_linker_0, # of connection points: 2
#     Edge 91, Type (0, 1), BuildingBlock: ZUJKAS_clean_linker_0, # of connection points: 2
#     Edge 92, Type (0, 1), BuildingBlock: ZUJKAS_clean_linker_0, # of connection points: 2
#     Edge 93, Type (0, 1), BuildingBlock: ZUJKAS_clean_linker_0, # of connection points: 2
#     Edge 94, Type (0, 1), BuildingBlock: ZUJKAS_clean_linker_0, # of connection points: 2
#     Edge 95, Type (0, 1), BuildingBlock: ZUJKAS_clean_linker_0, # of connection points: 2
#     Edge 96, Type (0, 1), BuildingBlock: ZUJKAS_clean_linker_0, # of connection points: 2
#     Edge 97, Type (0, 1), BuildingBlock: ZUJKAS_clean_linker_0, # of connection points: 2
#     Edge 98, Type (0, 1), BuildingBlock: ZUJKAS_clean_linker_0, # of connection points: 2
#     Edge 99, Type (0, 1), BuildingBlock: ZUJKAS_clean_linker_0, # of connection points: 2
#     Edge 100, Type (0, 1), BuildingBlock: ZUJKAS_clean_linker_0, # of connection points: 2
#     Edge 101, Type (0, 1), BuildingBlock: ZUJKAS_clean_linker_0, # of connection points: 2
#     Edge 102, Type (0, 1), BuildingBlock: ZUJKAS_clean_linker_0, # of connection points: 2
#     Edge 103, Type (0, 1), BuildingBlock: ZUJKAS_clean_linker_0, # of connection points: 2
#     Edge 104, Type (0, 1), BuildingBlock: ZUJKAS_clean_linker_0, # of connection points: 2
#     Edge 105, Type (0, 1), BuildingBlock: ZUJKAS_clean_linker_0, # of connection points: 2
#     Edge 106, Type (0, 1), BuildingBlock: ZUJKAS_clean_linker_0, # of connection points: 2
#     Edge 107, Type (0, 1), BuildingBlock: ZUJKAS_clean_linker_0, # of connection points: 2
#     Edge 108, Type (0, 1), BuildingBlock: ZUJKAS_clean_linker_0, # of connection points: 2
#     Edge 109, Type (0, 1), BuildingBlock: ZUJKAS_clean_linker_0, # of connection points: 2
#     Edge 110, Type (0, 1), BuildingBlock: ZUJKAS_clean_linker_0, # of connection points: 2
#     Edge 111, Type (0, 1), BuildingBlock: ZUJKAS_clean_linker_0, # of connection points: 2
#     Edge 112, Type (0, 1), BuildingBlock: ZUJKAS_clean_linker_0, # of connection points: 2
#     Edge 113, Type (0, 1), BuildingBlock: ZUJKAS_clean_linker_0, # of connection points: 2
#     Edge 114, Type (0, 1), BuildingBlock: ZUJKAS_clean_linker_0, # of connection points: 2
#     Edge 115, Type (0, 1), BuildingBlock: ZUJKAS_clean_linker_0, # of connection points: 2
#     Edge 116, Type (0, 1), BuildingBlock: ZUJKAS_clean_linker_0, # of connection points: 2
#     Edge 117, Type (0, 1), BuildingBlock: ZUJKAS_clean_linker_0, # of connection points: 2
#     Edge 118, Type (0, 1), BuildingBlock: ZUJKAS_clean_linker_0, # of connection points: 2
#     Edge 119, Type (0, 1), BuildingBlock: ZUJKAS_clean_linker_0, # of connection points: 2
#     Edge 120, Type (0, 1), BuildingBlock: ZUJKAS_clean_linker_0, # of connection points: 2
#     Edge 121, Type (0, 1), BuildingBlock: ZUJKAS_clean_linker_0, # of connection points: 2
#     Edge 122, Type (0, 1), BuildingBlock: ZUJKAS_clean_linker_0, # of connection points: 2
#     Edge 123, Type (0, 1), BuildingBlock: ZUJKAS_clean_linker_0, # of connection points: 2
#     Edge 124, Type (0, 1), BuildingBlock: ZUJKAS_clean_linker_0, # of connection points: 2
#     Edge 125, Type (0, 1), BuildingBlock: ZUJKAS_clean_linker_0, # of connection points: 2
#     Edge 126, Type (0, 1), BuildingBlock: ZUJKAS_clean_linker_0, # of connection points: 2
#     Edge 127, Type (0, 1), BuildingBlock: ZUJKAS_clean_linker_0, # of connection points: 2
#     Edge 128, Type (0, 1), BuildingBlock: ZUJKAS_clean_linker_0, # of connection points: 2
#     Edge 129, Type (0, 1), BuildingBlock: ZUJKAS_clean_linker_0, # of connection points: 2
#     Edge 130, Type (0, 1), BuildingBlock: ZUJKAS_clean_linker_0, # of connection points: 2
#     Edge 131, Type (0, 1), BuildingBlock: ZUJKAS_clean_linker_0, # of connection points: 2
#     Edge 132, Type (0, 1), BuildingBlock: ZUJKAS_clean_linker_0, # of connection points: 2
#     Edge 133, Type (0, 1), BuildingBlock: ZUJKAS_clean_linker_0, # of connection points: 2
#     Edge 134, Type (0, 1), BuildingBlock: ZUJKAS_clean_linker_0, # of connection points: 2
#     Edge 135, Type (0, 1), BuildingBlock: ZUJKAS_clean_linker_0, # of connection points: 2
# Relax obj value: 0.069
# Max RMSD: 0.187
# Mean RMSD: 0.132
data_MOF--net-gar--node1-NAHDIM_clean_sbu_0--node2-KUMJIN_clean_sbu_1--edge1-ZUJKAS_clean_linker_0
_symmetry_space_group_name_H-M    P1
_symmetry_Int_Tables_number       1
_symmetry_cell_setting            triclinic
loop_
_symmetry_equiv_pos_as_xyz
'x, y, z'
_cell_length_a     77.649755
_cell_length_b     76.504847
_cell_length_c     70.511184
_cell_angle_alpha  95.729509
_cell_angle_beta   95.921629
_cell_angle_gamma 100.93248
loop_
_atom_site_label
_atom_site_type_symbol
_atom_site_fract_x
_atom_site_fract_y
_atom_site_fract_z
_atom_type_partial_charge
C0 C 0.07593 0.30253 0.34409 0.0
O1 O 0.07835 0.31119 0.36151 0.0
O2 O 0.03748 0.27512 0.36845 0.0
Zn3 Zn 0.03792 0.29681 0.35287 0.0
O4 O 0.04288 0.32058 0.37211 0.0
C5 C 0.99855 0.28258 0.33745 0.0
O6 O 1.00098 0.2685 0.34582 0.0
O7 O 0.05991 0.29584 0.33655 0.0
C8 C 0.03001 0.32753 0.37707 0.0
O9 O 0.01386 0.31928 0.37008 0.0
C10 C 0.02795 0.27113 0.3817 0.0
O11 O 0.01703 0.28151 0.38654 0.0
O12 O 0.01207 0.2952 0.33727 0.0
C13 C 0.9767 0.75125 0.69583 0.0
O14 O 0.97602 0.75355 0.67757 0.0
O15 O 0.00949 0.72107 0.67079 0.0
Zn16 Zn 0.01307 0.74643 0.68767 0.0
O17 O 0.01267 0.76693 0.67008 0.0
C18 C 0.05286 0.7495 0.69821 0.0
O19 O 0.05235 0.74597 0.67956 0.0
O20 O 0.99103 0.74763 0.70393 0.0
C21 C 0.02571 0.77923 0.66791 0.0
O22 O 0.0414 0.77911 0.67675 0.0
C23 C 0.01723 0.71818 0.6559 0.0
O24 O 0.02712 0.73182 0.64973 0.0
O25 O 0.03835 0.75055 0.70519 0.0
C26 C 0.57291 0.78934 0.84135 0.0
O27 O 0.57023 0.77881 0.85481 0.0
O28 O 0.53716 0.775 0.86695 0.0
Zn29 Zn 0.5383 0.79753 0.85254 0.0
O30 O 0.54241 0.82075 0.87248 0.0
C31 C 0.49892 0.78548 0.84053 0.0
O32 O 0.50102 0.77538 0.85425 0.0
O33 O 0.56118 0.79868 0.83713 0.0
C34 C 0.52951 0.82791 0.87691 0.0
O35 O 0.51348 0.82018 0.86897 0.0
C36 C 0.53379 0.77402 0.88419 0.0
O37 O 0.53037 0.7882 0.89402 0.0
O38 O 0.51281 0.79557 0.83613 0.0
C39 C 0.47951 0.25439 0.19733 0.0
O40 O 0.47966 0.26007 0.18036 0.0
O41 O 0.5107 0.22222 0.16982 0.0
Zn42 Zn 0.51478 0.24744 0.18706 0.0
O43 O 0.51363 0.26758 0.16929 0.0
C44 C 0.5521 0.24236 0.2013 0.0
O45 O 0.5464 0.22684 0.19068 0.0
O46 O 0.49291 0.2481 0.20388 0.0
C47 C 0.52647 0.28041 0.16798 0.0
O48 O 0.54193 0.28073 0.17768 0.0
C49 C 0.51992 0.21912 0.15625 0.0
O50 O 0.53204 0.23232 0.15241 0.0
O51 O 0.54115 0.25296 0.20299 0.0
C52 C 0.01497 0.77494 0.12782 0.0
O53 O 0.01431 0.75964 0.11722 0.0
O54 O 0.04371 0.76035 0.09589 0.0
Zn55 Zn 0.04905 0.7865 0.11177 0.0
O56 O 0.0497 0.81007 0.09766 0.0
C57 C 0.08703 0.78626 0.12582 0.0
O58 O 0.08813 0.78353 0.10736 0.0
O59 O 0.02831 0.78765 0.12803 0.0
C60 C 0.0478 0.81324 0.08012 0.0
O61 O 0.04602 0.79981 0.06644 0.0
C62 C 0.05218 0.75346 0.08341 0.0
O63 O 0.06527 0.76393 0.07715 0.0
O64 O 0.07223 0.7885 0.13111 0.0
C65 C 0.53299 0.75346 0.4141 0.0
O66 O 0.52914 0.73827 0.4214 0.0
O67 O 0.5003 0.73672 0.44362 0.0
Zn68 Zn 0.50174 0.76172 0.432 0.0
O69 O 0.50506 0.7859 0.45093 0.0
C70 C 0.46399 0.75061 0.41193 0.0
O71 O 0.46194 0.73846 0.42387 0.0
O72 O 0.52333 0.76506 0.41666 0.0
C73 C 0.5007 0.79918 0.44315 0.0
O74 O 0.49405 0.79625 0.42496 0.0
C75 C 0.50764 0.73333 0.45962 0.0
O76 O 0.51659 0.74684 0.47189 0.0
O77 O 0.47914 0.76089 0.41266 0.0
C78 C 0.51395 0.27925 0.62172 0.0
O79 O 0.51013 0.27286 0.60346 0.0
O80 O 0.54889 0.25929 0.59764 0.0
Zn81 Zn 0.55048 0.2856 0.61142 0.0
O82 O 0.54813 0.30617 0.59341 0.0
C83 C 0.58746 0.28418 0.62567 0.0
O84 O 0.5861 0.27498 0.60864 0.0
O85 O 0.53014 0.28517 0.62846 0.0
C86 C 0.5551 0.32271 0.59911 0.0
O87 O 0.56503 0.32651 0.61582 0.0
C88 C 0.53944 0.2501 0.5827 0.0
O89 O 0.52835 0.25762 0.57256 0.0
O90 O 0.57433 0.29098 0.63004 0.0
C91 C 0.03849 0.26201 0.91959 0.0
O92 O 0.04169 0.25922 0.93758 0.0
O93 O 1.00143 0.2373 0.9422 0.0
Zn94 Zn 1.00245 0.26207 0.92998 0.0
O95 O 0.00729 0.28709 0.94811 0.0
C96 C 0.96376 0.25482 0.9137 0.0
O97 O 0.96105 0.24841 0.92999 0.0
O98 O 0.02296 0.26371 0.91327 0.0
C99 C 0.99618 0.29758 0.94776 0.0
O100 O 0.9807 0.29168 0.93747 0.0
C101 C 0.00694 0.23392 0.95898 0.0
O102 O 0.01376 0.24748 0.97223 0.0
O103 O 0.97965 0.26077 0.91075 0.0
C104 C 0.36532 0.0481 0.29673 0.0
O105 O 0.38216 0.04992 0.30306 0.0
O106 O 0.38543 0.01584 0.27047 0.0
Zn107 Zn 0.36996 0.0144 0.29075 0.0
O108 O 0.38402 0.0175 0.31566 0.0
C109 C 0.35513 0.97969 0.27398 0.0
O110 O 0.36318 0.98458 0.25931 0.0
O111 O 0.35632 0.03281 0.2899 0.0
C112 C 0.39283 0.00568 0.31931 0.0
O113 O 0.39206 0.9918 0.30645 0.0
C114 C 0.40196 0.02181 0.27302 0.0
O115 O 0.40997 0.02858 0.29024 0.0
O116 O 0.35508 0.99094 0.28834 0.0
C117 C 0.2988 0.15061 0.51392 0.0
O118 O 0.30251 0.168 0.51908 0.0
O119 O 0.26413 0.17253 0.53328 0.0
Zn120 Zn 0.26342 0.15704 0.50788 0.0
O121 O 0.26641 0.17095 0.48506 0.0
C122 C 0.22596 0.14595 0.50512 0.0
O123 O 0.22727 0.1634 0.50829 0.0
O124 O 0.28278 0.14274 0.50904 0.0
C125 C 0.26077 0.18506 0.48186 0.0
O126 O 0.25198 0.19226 0.49443 0.0
C127 C 0.27372 0.18787 0.53934 0.0
O128 O 0.28479 0.19572 0.52842 0.0
O129 O 0.23991 0.13976 0.50376 0.0
C130 C 0.14639 0.99908 0.7874 0.0
O131 O 0.1306 0.9961 0.79304 0.0
O132 O 0.12142 0.028 0.75674 0.0
Zn133 Zn 0.13726 0.0328 0.78235 0.0
O134 O 0.12419 0.03018 0.8057 0.0
C135 C 0.14825 0.07138 0.78159 0.0
O136 O 0.13144 0.07043 0.77593 0.0
O137 O 0.15231 0.01415 0.78193 0.0
C138 C 0.11428 0.04003 0.81252 0.0
O139 O 0.11137 0.05394 0.80416 0.0
C140 C 0.10738 0.03388 0.75284 0.0
O141 O 0.10149 0.04347 0.76624 0.0
O142 O 0.15359 0.05718 0.78508 0.0
C143 C 0.25228 0.93732 0.99512 0.0
O144 O 0.25101 0.92004 0.99599 0.0
O145 O 0.2819 0.91958 0.02177 0.0
Zn146 Zn 0.28543 0.93385 0.00032 0.0
O147 O 0.28254 0.91662 0.97745 0.0
C148 C 0.31913 0.95104 0.01853 0.0
O149 O 0.31366 0.94483 0.03404 0.0
O150 O 0.26731 0.94757 0.99709 0.0
C151 C 0.29422 0.91545 0.96642 0.0
O152 O 0.30941 0.92691 0.96947 0.0
C153 C 0.29061 0.90724 0.02316 0.0
O154 O 0.3023 0.90526 0.01133 0.0
O155 O 0.30862 0.94891 0.00321 0.0
C156 C 0.25107 0.39511 0.02948 0.0
O157 O 0.24658 0.37764 0.02489 0.0
O158 O 0.28354 0.37446 0.05857 0.0
Zn159 Zn 0.28592 0.38712 0.0348 0.0
O160 O 0.28208 0.36956 0.01001 0.0
C161 C 0.32439 0.39891 0.04103 0.0
O162 O 0.32408 0.38196 0.04295 0.0
O163 O 0.26732 0.40232 0.0339 0.0
C164 C 0.29233 0.37234 0.99715 0.0
O165 O 0.30552 0.38625 0.00035 0.0
C166 C 0.28892 0.36022 0.0618 0.0
O167 O 0.29663 0.35221 0.04871 0.0
O168 O 0.30985 0.40407 0.03773 0.0
C169 C 0.79869 0.11667 0.04935 0.0
O170 O 0.80005 0.13367 0.04702 0.0
O171 O 0.767 0.13639 0.07267 0.0
Zn172 Zn 0.76505 0.12064 0.04888 0.0
O173 O 0.76728 0.13556 0.02748 0.0
C174 C 0.73025 0.10669 0.05467 0.0
O175 O 0.73312 0.1205 0.06803 0.0
O176 O 0.7838 0.10723 0.05081 0.0
C177 C 0.75594 0.13305 0.01273 0.0
O178 O 0.74203 0.11994 0.01099 0.0
C179 C 0.77391 0.15291 0.07446 0.0
O180 O 0.7812 0.16006 0.06031 0.0
O181 O 0.74243 0.10391 0.04487 0.0
C182 C 0.1832 0.50189 0.24662 0.0
O183 O 0.16623 0.50042 0.2479 0.0
O184 O 0.16149 0.53026 0.22668 0.0
Zn185 Zn 0.17875 0.53514 0.24946 0.0
O186 O 0.16718 0.53325 0.27286 0.0
C187 C 0.19115 0.56813 0.23611 0.0
O188 O 0.1787 0.56228 0.2216 0.0
O189 O 0.19292 0.5172 0.2472 0.0
C190 C 0.15988 0.54551 0.27967 0.0
O191 O 0.16059 0.56025 0.27142 0.0
C192 C 0.14541 0.53136 0.22548 0.0
O193 O 0.13796 0.53436 0.24104 0.0
O194 O 0.19334 0.55864 0.24955 0.0
C195 C 0.75389 0.89869 0.53926 0.0
O196 O 0.752 0.88592 0.55046 0.0
O197 O 0.78253 0.87232 0.55587 0.0
Zn198 Zn 0.78531 0.88545 0.53216 0.0
O199 O 0.77962 0.86864 0.50742 0.0
C200 C 0.82178 0.90528 0.54712 0.0
O201 O 0.81802 0.90098 0.56401 0.0
O202 O 0.76732 0.90137 0.53025 0.0
C203 C 0.79003 0.85903 0.50133 0.0
O204 O 0.80484 0.85892 0.51213 0.0
C205 C 0.79298 0.86319 0.56328 0.0
O206 O 0.80716 0.86137 0.55522 0.0
O207 O 0.81009 0.90035 0.53256 0.0
C208 C 0.90214 0.04397 0.24777 0.0
O209 O 0.91029 0.04221 0.23249 0.0
O210 O 0.93165 0.01777 0.23592 0.0
Zn211 Zn 0.91906 0.01543 0.25951 0.0
O212 O 0.93586 0.02095 0.28404 0.0
C213 C 0.89718 0.97979 0.24466 0.0
O214 O 0.89957 0.98434 0.2275 0.0
O215 O 0.90366 0.03372 0.2607 0.0
C216 C 0.94272 0.0088 0.29101 0.0
O217 O 0.93986 0.99278 0.2812 0.0
C218 C 0.94043 0.00702 0.22855 0.0
O219 O 0.9423 0.99273 0.2368 0.0
O220 O 0.90408 0.99076 0.25942 0.0
C221 C 0.29593 0.60456 0.55628 0.0
O222 O 0.29566 0.61509 0.57209 0.0
O223 O 0.26902 0.63278 0.56661 0.0
Zn224 Zn 0.26576 0.61693 0.54273 0.0
O225 O 0.2676 0.6316 0.52151 0.0
C226 C 0.23119 0.60552 0.5502 0.0
O227 O 0.2349 0.62048 0.56203 0.0
O228 O 0.28388 0.60293 0.54236 0.0
C229 C 0.25459 0.63301 0.50981 0.0
O230 O 0.23871 0.62384 0.51104 0.0
C231 C 0.27605 0.64922 0.56804 0.0
O232 O 0.28299 0.65599 0.55349 0.0
O233 O 0.24274 0.60113 0.54029 0.0
C234 C 0.40303 0.54753 0.75098 0.0
O235 O 0.41503 0.54899 0.73909 0.0
O236 O 0.42719 0.51678 0.73336 0.0
Zn237 Zn 0.41504 0.51466 0.75771 0.0
O238 O 0.43207 0.51918 0.78236 0.0
C239 C 0.40159 0.47541 0.74961 0.0
O240 O 0.4164 0.47522 0.74223 0.0
O241 O 0.40057 0.53404 0.76026 0.0
C242 C 0.43936 0.50739 0.78955 0.0
O243 O 0.43695 0.4913 0.78001 0.0
C244 C 0.44031 0.51005 0.72919 0.0
O245 O 0.44751 0.50083 0.7414 0.0
O246 O 0.39837 0.49033 0.75649 0.0
C247 C 0.68443 0.99712 0.73999 0.0
O248 O 0.66706 0.99338 0.7372 0.0
O249 O 0.66041 0.02673 0.72491 0.0
Zn250 Zn 0.67684 0.02963 0.74833 0.0
O251 O 0.66433 0.02522 0.77069 0.0
C252 C 0.68507 0.06596 0.74361 0.0
O253 O 0.67105 0.06182 0.73069 0.0
O254 O 0.69246 0.01313 0.74518 0.0
C255 C 0.65717 0.03753 0.77772 0.0
O256 O 0.65822 0.05249 0.76984 0.0
C257 C 0.64375 0.02346 0.72409 0.0
O258 O 0.63615 0.01992 0.73945 0.0
O259 O 0.69034 0.054 0.7525 0.0
C260 C 0.79709 0.6509 0.00652 0.0
O261 O 0.80022 0.66745 0.00226 0.0
O262 O 0.76371 0.67287 0.03545 0.0
Zn263 Zn 0.7628 0.65895 0.00914 0.0
O264 O 0.76734 0.67533 0.9883 0.0
C265 C 0.72577 0.64712 0.01044 0.0
O266 O 0.7283 0.66311 0.02025 0.0
O267 O 0.78176 0.64412 0.01032 0.0
C268 C 0.75551 0.67789 0.97559 0.0
O269 O 0.73895 0.67024 0.97608 0.0
C270 C 0.77312 0.68823 0.04177 0.0
O271 O 0.78375 0.69656 0.03072 0.0
O272 O 0.73873 0.64219 0.0033 0.0
C273 C 0.87097 0.55001 0.79991 0.0
O274 O 0.88785 0.55177 0.79798 0.0
O275 O 0.88717 0.51993 0.77091 0.0
Zn276 Zn 0.87435 0.51618 0.79325 0.0
O277 O 0.89166 0.51817 0.81577 0.0
C278 C 0.85888 0.4811 0.77648 0.0
O279 O 0.86775 0.48513 0.76211 0.0
O280 O 0.86118 0.5346 0.79794 0.0
C281 C 0.8948 0.50482 0.82375 0.0
O282 O 0.8859 0.4886 0.81721 0.0
C283 C 0.90048 0.51268 0.76999 0.0
O284 O 0.90473 0.50298 0.78341 0.0
O285 O 0.85888 0.49293 0.79032 0.0
C286 C 0.75246 0.43472 0.4923 0.0
O287 O 0.75066 0.41732 0.49259 0.0
O288 O 0.7803 0.41669 0.52162 0.0
Zn289 Zn 0.78548 0.43046 0.49991 0.0
O290 O 0.78481 0.41371 0.47675 0.0
C291 C 0.82102 0.43703 0.5062 0.0
O292 O 0.81716 0.41944 0.50399 0.0
O293 O 0.76772 0.44457 0.49517 0.0
C294 C 0.79372 0.41725 0.46307 0.0
O295 O 0.8037 0.43324 0.46343 0.0
C296 C 0.78271 0.40072 0.52084 0.0
O297 O 0.78839 0.39335 0.50571 0.0
O298 O 0.80873 0.44576 0.50567 0.0
C299 C 0.64761 0.50297 0.28898 0.0
O300 O 0.63565 0.50305 0.30084 0.0
O301 O 0.62343 0.5375 0.25893 0.0
Zn302 Zn 0.63963 0.53736 0.28303 0.0
O303 O 0.62762 0.53595 0.30711 0.0
C304 C 0.6536 0.57498 0.29105 0.0
O305 O 0.63787 0.57479 0.29643 0.0
O306 O 0.65147 0.5162 0.27955 0.0
C307 C 0.61238 0.5389 0.30947 0.0
O308 O 0.60297 0.54416 0.29538 0.0
C309 C 0.60947 0.52617 0.25205 0.0
O310 O 0.60365 0.51286 0.26165 0.0
O311 O 0.65779 0.56023 0.28539 0.0
Eu312 Eu 0.04666 0.03268 0.03217 0.0
C313 C 0.98657 0.97101 0.98585 0.0
N314 N 0.99592 0.98633 0.98068 0.0
C315 C 0.99661 0.97138 0.9493 0.0
C316 C 0.98201 0.95514 0.97281 0.0
C317 C 1.00088 0.98677 0.96269 0.0
C318 C 0.98714 0.95549 0.95438 0.0
C319 C 0.97167 0.95548 0.00986 0.0
C320 C 0.9814 0.97122 0.0042 0.0
C321 C 0.96725 0.93965 0.99694 0.0
C322 C 0.97234 0.9395 0.97846 0.0
Eu323 Eu 1.00027 0.01208 0.00338 0.0
N324 N 0.9856 0.98682 0.01638 0.0
C325 C 0.96628 0.95619 0.0282 0.0
C326 C 0.97933 0.98779 0.03374 0.0
C327 C 0.97 0.97246 0.04012 0.0
H328 H 0.00748 0.99915 0.95838 0.0
H329 H 0.96528 0.97331 0.05403 0.0
H330 H 0.03918 0.04297 0.07787 0.0
H331 H 0.07548 0.07581 0.98141 0.0
H332 H 0.98075 1.00039 0.04245 0.0
H333 H 0.95881 0.94439 0.03307 0.0
H334 H 0.06071 0.04767 0.99156 0.0
H335 H 1.00039 0.97186 0.93498 0.0
H336 H 0.9597 0.92749 0.00104 0.0
H337 H 0.96865 0.92722 0.9686 0.0
H338 H 0.04628 0.06925 0.10258 0.0
H339 H 0.98374 0.94362 0.94391 0.0
H340 H 0.0836 0.10332 0.00467 0.0
N341 N 0.04986 0.05728 0.056 0.0
C342 C 0.05881 0.0731 0.05146 0.0
C343 C 0.04969 0.07056 0.08821 0.0
C344 C 0.06354 0.08835 0.06534 0.0
C345 C 0.04535 0.05576 0.07406 0.0
C346 C 0.05887 0.0869 0.08387 0.0
N347 N 0.05861 0.05919 0.01965 0.0
C348 C 0.0632 0.05961 0.00154 0.0
C349 C 0.07241 0.09041 0.02784 0.0
C350 C 0.06328 0.07409 0.03285 0.0
C351 C 0.07659 0.09103 0.00905 0.0
C352 C 0.07196 0.07556 0.99585 0.0
H353 H 0.06239 0.09829 0.09495 0.0
H354 H 0.07677 0.11628 0.07095 0.0
H355 H 0.08444 0.11811 0.03816 0.0
O356 O 0.07342 0.03009 0.02818 0.0
O357 O 0.02862 0.05272 0.02587 0.0
O358 O 0.01293 0.04005 0.99698 0.0
O359 O 0.06621 0.03358 0.05693 0.0
O360 O 0.04649 0.01756 0.00247 0.0
O361 O 0.02148 0.02305 0.98607 0.0
O362 O 0.97528 0.0203 0.00675 0.0
O363 O 0.01712 0.99113 0.01007 0.0
O364 O 0.03579 0.00383 0.03758 0.0
O365 O 0.98131 0.01131 0.97805 0.0
O366 O 1.0013 0.02642 0.03372 0.0
O367 O 0.02625 0.0202 0.04959 0.0
C368 C 0.01955 0.05431 0.00949 0.0
C369 C 0.08811 0.01669 0.05211 0.0
C370 C 0.10772 0.99679 0.04372 0.0
C371 C 0.11019 0.99345 0.06295 0.0
C372 C 0.09077 0.01346 0.07137 0.0
C373 C 0.10158 0.00167 0.07667 0.0
C374 C 0.09625 0.00792 0.03836 0.0
C375 C 0.03691 0.01857 0.98625 0.0
C376 C 0.07833 0.03035 0.04649 0.0
C377 C 0.07288 0.10449 0.06041 0.0
C378 C 0.07726 0.10553 0.04173 0.0
C379 C 0.02725 0.98961 0.0258 0.0
C380 C 0.95325 0.02025 0.9797 0.0
C381 C 0.92795 0.03395 0.98293 0.0
C382 C 0.92186 0.02857 0.96339 0.0
C383 C 0.9471 0.01469 0.96018 0.0
C384 C 0.94359 0.02977 0.99096 0.0
C385 C 0.9314 0.01885 0.95208 0.0
C386 C 0.01057 0.02404 0.04962 0.0
C387 C 0.97023 0.0173 0.98826 0.0
H388 H 0.11932 0.98516 0.06753 0.0
H389 H 0.08479 0.02029 0.08234 0.0
H390 H 0.10377 0.99936 0.09155 0.0
H391 H 0.09433 0.01038 0.02348 0.0
H392 H 0.90966 0.03165 0.957 0.0
H393 H 0.95447 0.00732 0.95118 0.0
H394 H 0.94845 0.03436 0.00596 0.0
H395 H 0.92667 0.0146 0.93704 0.0
Eu396 Eu 0.26283 0.76868 0.29426 0.0
C397 C 0.30561 0.73821 0.22017 0.0
N398 N 0.3108 0.75152 0.23511 0.0
C399 C 0.33966 0.74442 0.23901 0.0
C400 C 0.31725 0.7272 0.21435 0.0
C401 C 0.32765 0.75495 0.24433 0.0
C402 C 0.33442 0.73043 0.22403 0.0
C403 C 0.28256 0.72132 0.19565 0.0
C404 C 0.28851 0.73539 0.21079 0.0
C405 C 0.29412 0.71035 0.18985 0.0
C406 C 0.31143 0.7133 0.19915 0.0
Eu407 Eu 0.2897 0.76882 0.24281 0.0
N408 N 0.27741 0.74587 0.21712 0.0
C409 C 0.26506 0.71847 0.18698 0.0
C410 C 0.26034 0.74314 0.20862 0.0
C411 C 0.25392 0.72944 0.1935 0.0
H412 H 0.33206 0.76604 0.25555 0.0
H413 H 0.24032 0.72727 0.18697 0.0
H414 H 0.2217 0.77538 0.29126 0.0
H415 H 0.31875 0.80183 0.34884 0.0
H416 H 0.25146 0.75121 0.21361 0.0
H417 H 0.25999 0.70777 0.17535 0.0
H418 H 0.3011 0.77668 0.32687 0.0
H419 H 0.35299 0.74718 0.24641 0.0
H420 H 0.28977 0.69947 0.17827 0.0
H421 H 0.32018 0.70469 0.19455 0.0
H422 H 0.20573 0.7992 0.30099 0.0
H423 H 0.34375 0.72228 0.21998 0.0
H424 H 0.30685 0.8291 0.35658 0.0
N425 N 0.24628 0.78916 0.30635 0.0
C426 C 0.25511 0.80366 0.31847 0.0
C427 C 0.21966 0.8007 0.30592 0.0
C428 C 0.24667 0.81769 0.32433 0.0
C429 C 0.22872 0.78727 0.30036 0.0
C430 C 0.22874 0.81613 0.31775 0.0
N431 N 0.27976 0.78987 0.31999 0.0
C432 C 0.29584 0.78861 0.32908 0.0
C433 C 0.282 0.81875 0.33852 0.0
C434 C 0.27249 0.80413 0.32537 0.0
C435 C 0.29908 0.81815 0.34647 0.0
C436 C 0.30586 0.80281 0.34207 0.0
H437 H 0.22174 0.82658 0.32195 0.0
H438 H 0.25014 0.84372 0.34112 0.0
H439 H 0.28116 0.84466 0.35357 0.0
O440 O 0.26326 0.74701 0.31158 0.0
O441 O 0.26692 0.79457 0.28197 0.0
O442 O 0.29067 0.78759 0.26996 0.0
O443 O 0.23819 0.75063 0.29802 0.0
O444 O 0.29049 0.76128 0.29681 0.0
O445 O 0.30708 0.77077 0.27199 0.0
O446 O 0.28641 0.78719 0.2215 0.0
O447 O 0.27786 0.74027 0.24639 0.0
O448 O 0.27181 0.75818 0.26866 0.0
O449 O 0.31259 0.78596 0.23452 0.0
O450 O 0.2611 0.77443 0.23998 0.0
O451 O 0.24464 0.76683 0.26573 0.0
C452 C 0.27992 0.79864 0.27188 0.0
C453 C 0.23939 0.74018 0.32869 0.0
C454 C 0.2447 0.73199 0.36074 0.0
C455 C 0.23087 0.74002 0.36627 0.0
C456 C 0.22546 0.74809 0.33418 0.0
C457 C 0.22111 0.74779 0.35291 0.0
C458 C 0.24852 0.73161 0.34187 0.0
C459 C 0.30555 0.76481 0.28902 0.0
C460 C 0.24616 0.74223 0.31025 0.0
C461 C 0.25631 0.83267 0.33667 0.0
C462 C 0.27397 0.83321 0.34372 0.0
C463 C 0.27017 0.74186 0.26144 0.0
C464 C 0.30982 0.79256 0.20261 0.0
C465 C 0.31009 0.80512 0.17242 0.0
C466 C 0.32299 0.79552 0.16733 0.0
C467 C 0.32253 0.78273 0.19733 0.0
C468 C 0.30357 0.80358 0.19005 0.0
C469 C 0.32908 0.78427 0.17973 0.0
C470 C 0.24612 0.77169 0.24813 0.0
C471 C 0.3034 0.79229 0.22139 0.0
H472 H 0.22767 0.74025 0.38087 0.0
H473 H 0.21824 0.75483 0.32424 0.0
H474 H 0.21046 0.75397 0.3572 0.0
H475 H 0.25934 0.72553 0.33775 0.0
H476 H 0.32818 0.79657 0.15371 0.0
H477 H 0.32753 0.77405 0.20682 0.0
H478 H 0.29388 0.81128 0.19418 0.0
H479 H 0.33895 0.7768 0.17574 0.0
Eu480 Eu 0.50402 0.0231 0.52728 0.0
C481 C 0.56585 0.06458 0.48866 0.0
N482 N 0.55372 0.04901 0.48286 0.0
C483 C 0.54724 0.05909 0.45217 0.0
C484 C 0.56848 0.07824 0.47653 0.0
C485 C 0.54524 0.04581 0.46445 0.0
C486 C 0.5587 0.07546 0.45831 0.0
C487 C 0.58942 0.0824 0.51229 0.0
C488 C 0.57643 0.06667 0.5064 0.0
C489 C 0.59159 0.0961 0.5004 0.0
C490 C 0.58118 0.09402 0.4826 0.0
Eu491 Eu 0.55303 0.0276 0.50519 0.0
N492 N 0.57407 0.05336 0.51792 0.0
C493 C 0.60002 0.08384 0.52993 0.0
C494 C 0.58474 0.05436 0.53478 0.0
C495 C 0.59773 0.06972 0.54116 0.0
H496 H 0.53737 0.0329 0.45859 0.0
H497 H 0.60606 0.07061 0.55465 0.0
H498 H 0.51708 0.01937 0.57468 0.0
H499 H 0.45362 0.97859 0.47553 0.0
H500 H 0.58321 0.04324 0.54317 0.0
H501 H 0.61014 0.09571 0.53491 0.0
H502 H 0.47569 0.00626 0.48757 0.0
H503 H 0.54026 0.0565 0.43775 0.0
H504 H 0.60148 0.10827 0.50472 0.0
H505 H 0.58328 0.1046 0.47344 0.0
H506 H 0.51162 0.99706 0.59696 0.0
H507 H 0.56041 0.08561 0.4486 0.0
H508 H 0.44758 0.95456 0.49639 0.0
N509 N 0.5012 0.00272 0.55054 0.0
C510 C 0.48883 0.98732 0.54476 0.0
C511 C 0.5054 0.99401 0.58223 0.0
C512 C 0.48494 0.97437 0.55749 0.0
C513 C 0.5088 0.00652 0.56926 0.0
C514 C 0.49359 0.97779 0.57628 0.0
N515 N 0.48295 0.99733 0.51419 0.0
C516 C 0.47353 0.9956 0.49644 0.0
C517 C 0.46661 0.9688 0.52016 0.0
C518 C 0.47944 0.98462 0.52628 0.0
C519 C 0.45748 0.96655 0.5016 0.0
C520 C 0.46088 0.98006 0.48974 0.0
H521 H 0.49086 0.96823 0.58647 0.0
H522 H 0.46914 0.94857 0.56093 0.0
H523 H 0.45333 0.94361 0.52826 0.0
O524 O 0.47869 0.03171 0.51981 0.0
O525 O 0.50919 0.99695 0.51125 0.0
O526 O 0.53933 0.99888 0.50819 0.0
O527 O 0.49169 0.03568 0.54955 0.0
O528 O 0.51357 0.03383 0.50129 0.0
O529 O 0.5289 0.01778 0.48385 0.0
O530 O 0.57787 0.01789 0.51229 0.0
O531 O 0.54817 0.05273 0.52391 0.0
O532 O 0.51776 0.05062 0.52019 0.0
O533 O 0.56701 0.01848 0.48243 0.0
O534 O 0.5452 0.01623 0.53186 0.0
O535 O 0.52826 0.03175 0.54855 0.0
C536 C 0.52298 0.9897 0.50788 0.0
C537 C 0.4638 0.04512 0.54508 0.0
C538 C 0.43958 0.06105 0.54094 0.0
C539 C 0.4375 0.06057 0.56043 0.0
C540 C 0.4614 0.04472 0.56454 0.0
C541 C 0.44828 0.05236 0.57211 0.0
C542 C 0.45263 0.05311 0.53315 0.0
C543 C 0.51428 0.02328 0.48599 0.0
C544 C 0.4782 0.03741 0.53778 0.0
C545 C 0.47222 0.95862 0.55132 0.0
C546 C 0.46316 0.95581 0.53272 0.0
C547 C 0.53406 0.06 0.52542 0.0
C548 C 0.59457 0.00845 0.48653 0.0
C549 C 0.61767 0.99082 0.48833 0.0
C550 C 0.62177 0.99539 0.47025 0.0
C551 C 0.59894 0.01279 0.46849 0.0
C552 C 0.60415 0.99764 0.49661 0.0
C553 C 0.6125 0.00634 0.46047 0.0
C554 C 0.54306 0.02633 0.54703 0.0
C555 C 0.57961 0.01488 0.49412 0.0
H556 H 0.42744 0.06657 0.5666 0.0
H557 H 0.46969 0.03849 0.57395 0.0
H558 H 0.44654 0.05199 0.58711 0.0
H559 H 0.45434 0.05356 0.51813 0.0
H560 H 0.63231 0.9906 0.46372 0.0
H561 H 0.59184 0.02119 0.46053 0.0
H562 H 0.60077 0.99412 0.51047 0.0
H563 H 0.6158 0.00978 0.44659 0.0
Eu564 Eu 0.2997 0.26964 0.77316 0.0
C565 C 0.23327 0.2938 0.72807 0.0
N566 N 0.24496 0.3015 0.74375 0.0
C567 C 0.2475 0.33019 0.73209 0.0
C568 C 0.22875 0.30404 0.71342 0.0
C569 C 0.25141 0.31959 0.74633 0.0
C570 C 0.23629 0.32235 0.71545 0.0
C571 C 0.21315 0.26747 0.71076 0.0
C572 C 0.22548 0.27568 0.72678 0.0
C573 C 0.20883 0.27761 0.6961 0.0
C574 C 0.21664 0.29582 0.6974 0.0
Eu575 Eu 0.25008 0.28226 0.76704 0.0
N576 N 0.23022 0.26598 0.7409 0.0
C577 C 0.20573 0.24919 0.7098 0.0
C578 C 0.22295 0.2482 0.7401 0.0
C579 C 0.21065 0.23953 0.72453 0.0
H580 H 0.25919 0.32611 0.75955 0.0
H581 H 0.20492 0.22541 0.72393 0.0
H582 H 0.29621 0.22655 0.78239 0.0
H583 H 0.34355 0.32897 0.81282 0.0
H584 H 0.22641 0.24069 0.75151 0.0
H585 H 0.19624 0.2424 0.69772 0.0
H586 H 0.32427 0.31083 0.78475 0.0
H587 H 0.25289 0.34447 0.73411 0.0
H588 H 0.19948 0.27148 0.68365 0.0
H589 H 0.21308 0.30348 0.68601 0.0
H590 H 0.3014 0.2102 0.81011 0.0
H591 H 0.23316 0.33065 0.70451 0.0
H592 H 0.34847 0.31554 0.84295 0.0
N593 N 0.30502 0.25233 0.79833 0.0
C594 C 0.31429 0.26171 0.81487 0.0
C595 C 0.30475 0.2247 0.81179 0.0
C596 C 0.31847 0.25285 0.83083 0.0
C597 C 0.30129 0.23403 0.79623 0.0
C598 C 0.31307 0.23418 0.8293 0.0
N599 N 0.31748 0.2881 0.79943 0.0
C600 C 0.32606 0.30514 0.79803 0.0
C601 C 0.33203 0.28971 0.83158 0.0
C602 C 0.32101 0.27999 0.81531 0.0
C603 C 0.33984 0.30766 0.83078 0.0
C604 C 0.33709 0.31531 0.81381 0.0
H605 H 0.31605 0.22689 0.84123 0.0
H606 H 0.33188 0.25613 0.85987 0.0
H607 H 0.34378 0.28836 0.8605 0.0
O608 O 0.31837 0.27718 0.75208 0.0
O609 O 0.29151 0.2883 0.79635 0.0
O610 O 0.26265 0.27506 0.79475 0.0
O611 O 0.32345 0.2587 0.77196 0.0
O612 O 0.2937 0.29237 0.75704 0.0
O613 O 0.27413 0.30514 0.77315 0.0
O614 O 0.22281 0.27653 0.77494 0.0
O615 O 0.26156 0.27351 0.73963 0.0
O616 O 0.28036 0.25442 0.74813 0.0
O617 O 0.2401 0.30285 0.78373 0.0
O618 O 0.2508 0.25517 0.77683 0.0
O619 O 0.27669 0.24507 0.77074 0.0
C620 C 0.27699 0.28493 0.80446 0.0
C621 C 0.33893 0.25801 0.74466 0.0
C622 C 0.36372 0.25868 0.72548 0.0
C623 C 0.36045 0.23986 0.72357 0.0
C624 C 0.33591 0.23917 0.7422 0.0
C625 C 0.34669 0.23023 0.73186 0.0
C626 C 0.35298 0.26779 0.73625 0.0
C627 C 0.28848 0.30657 0.76448 0.0
C628 C 0.32923 0.26735 0.75822 0.0
C629 C 0.32865 0.26271 0.84745 0.0
C630 C 0.33545 0.28108 0.8478 0.0
C631 C 0.27089 0.26117 0.73521 0.0
C632 C 0.21052 0.29937 0.79337 0.0
C633 C 0.1834 0.29514 0.80899 0.0
C634 C 0.18387 0.31363 0.80976 0.0
C635 C 0.21061 0.31782 0.79459 0.0
C636 C 0.19683 0.28794 0.80073 0.0
C637 C 0.19737 0.32485 0.80268 0.0
C638 C 0.26012 0.24247 0.77495 0.0
C639 C 0.22464 0.2926 0.78396 0.0
H640 H 0.3687 0.23258 0.71571 0.0
H641 H 0.32552 0.23133 0.74876 0.0
H642 H 0.34448 0.21573 0.73042 0.0
H643 H 0.35567 0.28233 0.73828 0.0
H644 H 0.17374 0.31944 0.81601 0.0
H645 H 0.22083 0.32687 0.78902 0.0
H646 H 0.19656 0.27367 0.79996 0.0
H647 H 0.19755 0.33908 0.80341 0.0
Eu648 Eu 0.03148 0.99904 0.52273 0.0
C649 C 0.00452 0.06991 0.55912 0.0
N650 N 0.99677 0.05745 0.54406 0.0
C651 C 0.96848 0.05638 0.55509 0.0
C652 C 0.99443 0.076 0.57296 0.0
C653 C 0.97901 0.0508 0.54168 0.0
C654 C 0.97622 0.069 0.57082 0.0
C655 C 0.03113 0.08911 0.57654 0.0
C656 C 0.02268 0.0763 0.56096 0.0
C657 C 0.02109 0.0953 0.59027 0.0
C658 C 0.00281 0.08872 0.58852 0.0
Eu659 Eu 0.01566 0.04852 0.52261 0.0
N660 N 0.03219 0.06941 0.54796 0.0
C661 C 0.04947 0.09504 0.57805 0.0
C662 C 0.04999 0.07539 0.54916 0.0
C663 C 0.05892 0.0882 0.56425 0.0
H664 H 0.97291 0.0413 0.52937 0.0
H665 H 0.07308 0.09282 0.56521 0.0
H666 H 0.07334 0.00214 0.51408 0.0
H667 H 0.97052 0.95881 0.48209 0.0
H668 H 0.05735 0.07045 0.53845 0.0
H669 H 0.05645 0.10485 0.58982 0.0
H670 H 0.98868 0.97832 0.50961 0.0
H671 H 0.9544 0.05099 0.55324 0.0
H672 H 0.02737 0.10505 0.6024 0.0
H673 H 0.99528 0.09351 0.59932 0.0
H674 H 0.08983 0.99202 0.48831 0.0
H675 H 0.96803 0.07327 0.5812 0.0
H676 H 0.98468 0.94773 0.4547 0.0
N677 N 0.04833 0.98852 0.49982 0.0
C678 C 0.03923 0.97732 0.48437 0.0
C679 C 0.0756 0.98782 0.48699 0.0
C680 C 0.04805 0.97116 0.46933 0.0
C681 C 0.06625 0.99364 0.5015 0.0
C682 C 0.06646 0.97661 0.47078 0.0
N683 N 0.01275 0.97935 0.49765 0.0
C684 C 0.99497 0.97411 0.49762 0.0
C685 C 0.01109 0.96116 0.46726 0.0
C686 C 0.02093 0.9725 0.48329 0.0
C687 C 0.99272 0.95643 0.46675 0.0
C688 C 0.98466 0.96275 0.48211 0.0
H689 H 0.07372 0.97223 0.4595 0.0
H690 H 0.0448 0.95525 0.44151 0.0
H691 H 0.01247 0.9464 0.43975 0.0
O692 O 0.02283 0.97681 0.53953 0.0
O693 O 0.02727 0.00928 0.49351 0.0
O694 O 0.00602 0.02437 0.50062 0.0
O695 O 0.05055 0.98589 0.5375 0.0
O696 O 0.00628 0.00261 0.53555 0.0
O697 O 0.99451 0.02299 0.51868 0.0
O698 O 0.02461 0.06989 0.50494 0.0
O699 O 0.02194 0.03987 0.55228 0.0
O700 O 0.0419 0.02282 0.54509 0.0
O701 O 0.99692 0.06199 0.5077 0.0
O702 O 0.04187 0.0461 0.51164 0.0
O703 O 0.05369 0.02379 0.52568 0.0
C704 C 0.01568 0.01883 0.48816 0.0
C705 C 0.04193 0.95591 0.54495 0.0
C706 C 0.03898 0.92827 0.56048 0.0
C707 C 0.05136 0.92266 0.54936 0.0
C708 C 0.05409 0.94972 0.53385 0.0
C709 C 0.05878 0.93326 0.53613 0.0
C710 C 0.03427 0.945 0.55827 0.0
C711 C 0.99299 0.01015 0.52998 0.0
C712 C 0.03882 0.97444 0.54427 0.0
C713 C 0.03826 0.96003 0.45326 0.0
C714 C 0.01984 0.95501 0.45224 0.0
C715 C 0.03287 0.02956 0.55753 0.0
C716 C 0.00688 0.09213 0.50205 0.0
C717 C 0.00814 0.12027 0.48764 0.0
C718 C 0.99953 0.12677 0.5026 0.0
C719 C 0.99858 0.09922 0.51696 0.0
C720 C 0.01194 0.10288 0.48749 0.0
C721 C 0.99495 0.1164 0.51718 0.0
C722 C 0.05522 0.03839 0.51675 0.0
C723 C 0.00885 0.07313 0.50081 0.0
H724 H 0.0553 0.90997 0.55095 0.0
H725 H 0.0603 0.95777 0.52368 0.0
H726 H 0.06836 0.92877 0.52771 0.0
H727 H 0.02503 0.94965 0.5671 0.0
H728 H 0.99642 0.14002 0.50306 0.0
H729 H 0.99454 0.09135 0.52825 0.0
H730 H 0.01823 0.09753 0.47582 0.0
H731 H 0.98834 0.12162 0.52862 0.0
Eu732 Eu 0.2773 0.79579 0.76437 0.0
C733 C 0.23833 0.73092 0.80277 0.0
N734 N 0.25329 0.74362 0.80866 0.0
C735 C 0.24496 0.74724 0.8404 0.0
C736 C 0.2258 0.72636 0.81553 0.0
C737 C 0.25709 0.75121 0.82735 0.0
C738 C 0.22918 0.73489 0.83443 0.0
C739 C 0.22 0.70926 0.77753 0.0
C740 C 0.23545 0.72237 0.78387 0.0
C741 C 0.20754 0.7048 0.79025 0.0
C742 C 0.21042 0.71333 0.80915 0.0
Eu743 Eu 0.27304 0.74782 0.78555 0.0
N744 N 0.2475 0.72718 0.77159 0.0
C745 C 0.21747 0.70106 0.75851 0.0
C746 C 0.24538 0.71892 0.75326 0.0
C747 C 0.23025 0.70586 0.74636 0.0
H748 H 0.26965 0.75995 0.83249 0.0
H749 H 0.22855 0.69933 0.73176 0.0
H750 H 0.27848 0.78324 0.7165 0.0
H751 H 0.32053 0.84902 0.81318 0.0
H752 H 0.25557 0.72202 0.74415 0.0
H753 H 0.20578 0.69091 0.75312 0.0
H754 H 0.2943 0.82459 0.80282 0.0
H755 H 0.24793 0.7535 0.85514 0.0
H756 H 0.19559 0.69477 0.7856 0.0
H757 H 0.20068 0.70968 0.81878 0.0
H758 H 0.2994 0.78845 0.69297 0.0
H759 H 0.21987 0.73175 0.84464 0.0
H760 H 0.34292 0.85616 0.79104 0.0
N761 N 0.29592 0.79931 0.73985 0.0
C762 C 0.31108 0.81195 0.74486 0.0
C763 C 0.30299 0.79491 0.70759 0.0
C764 C 0.32301 0.81615 0.73138 0.0
C765 C 0.29133 0.79156 0.72124 0.0
C766 C 0.319 0.80708 0.71274 0.0
N767 N 0.30275 0.8173 0.77607 0.0
C768 C 0.30443 0.8273 0.79351 0.0
C769 C 0.32923 0.83556 0.76829 0.0
C770 C 0.31428 0.82155 0.7632 0.0
C771 C 0.33162 0.8453 0.78661 0.0
C772 C 0.31907 0.84125 0.79921 0.0
H773 H 0.32785 0.8099 0.70201 0.0
H774 H 0.34751 0.83302 0.72648 0.0
H775 H 0.3529 0.85002 0.75871 0.0
O776 O 0.2624 0.81601 0.77433 0.0
O777 O 0.30298 0.79067 0.78092 0.0
O778 O 0.30045 0.75987 0.77809 0.0
O779 O 0.27248 0.81642 0.74683 0.0
O780 O 0.26701 0.79024 0.79214 0.0
O781 O 0.2837 0.7725 0.80631 0.0
O782 O 0.27887 0.72065 0.7805 0.0
O783 O 0.24677 0.75776 0.77765 0.0
O784 O 0.25083 0.77683 0.75412 0.0
O785 O 0.28556 0.73641 0.80901 0.0
O786 O 0.28229 0.74992 0.7566 0.0
O787 O 0.2682 0.77083 0.74358 0.0
C788 C 0.3101 0.77628 0.78167 0.0
C789 C 0.24807 0.83007 0.7502 0.0
C790 C 0.23089 0.85353 0.75014 0.0
C791 C 0.22281 0.84636 0.73154 0.0
C792 C 0.23961 0.82278 0.73173 0.0
C793 C 0.22701 0.83092 0.7225 0.0
C794 C 0.24339 0.84524 0.75951 0.0
C795 C 0.27684 0.78681 0.80684 0.0
C796 C 0.26351 0.82381 0.75875 0.0
C797 C 0.33822 0.82968 0.73666 0.0
C798 C 0.34127 0.83941 0.755 0.0
C799 C 0.24039 0.76652 0.76403 0.0
C800 C 0.29199 0.70664 0.8067 0.0
C801 C 0.30751 0.68168 0.80458 0.0
C802 C 0.30418 0.67884 0.82341 0.0
C803 C 0.28908 0.70366 0.82551 0.0
C804 C 0.30105 0.6955 0.79612 0.0
C805 C 0.29504 0.68975 0.83374 0.0
C806 C 0.2752 0.75658 0.74208 0.0
C807 C 0.28545 0.72141 0.7984 0.0
H808 H 0.21318 0.85267 0.72409 0.0
H809 H 0.24312 0.81116 0.72421 0.0
H810 H 0.22074 0.82545 0.70815 0.0
H811 H 0.25004 0.85109 0.77364 0.0
H812 H 0.3086 0.66808 0.83016 0.0
H813 H 0.28201 0.712 0.83381 0.0
H814 H 0.30351 0.69792 0.78166 0.0
H815 H 0.29261 0.68743 0.84821 0.0
Eu816 Eu 0.53145 0.03632 -0.00173 0.0
C817 C 0.55818 0.99316 0.07329 0.0
N818 N 0.54631 0.98707 0.05732 0.0
C819 C 0.55738 0.95989 0.05343 0.0
C820 C 0.57062 0.98303 0.07949 0.0
C821 C 0.54546 0.9705 0.04765 0.0
C822 C 0.57013 0.96625 0.06929 0.0
C823 C 0.57078 0.01678 0.09939 0.0
C824 C 0.55818 0.00981 0.08323 0.0
C825 C 0.58333 0.00681 0.10541 0.0
C826 C 0.58322 0.98997 0.09552 0.0
Eu827 Eu 0.52747 0.00647 0.04796 0.0
N828 N 0.54633 0.01952 0.07657 0.0
C829 C 0.57054 0.03366 0.10891 0.0
C830 C 0.54557 0.03564 0.08635 0.0
C831 C 0.55775 0.04302 0.10248 0.0
H832 H 0.5355 0.96526 0.03555 0.0
H833 H 0.55725 0.05595 0.10996 0.0
H834 H 0.5237 0.07675 0.01128 0.0
H835 H 0.49995 0.98719 0.93615 0.0
H836 H 0.53557 0.04291 0.08198 0.0
H837 H 0.58005 0.0395 0.12132 0.0
H838 H 0.52373 0.00131 0.96164 0.0
H839 H 0.55673 0.94681 0.04562 0.0
H840 H 0.5932 0.01202 0.1177 0.0
H841 H 0.59298 0.98244 0.10036 0.0
H842 H 0.50114 0.09474 0.00369 0.0
H843 H 0.57944 0.95805 0.07362 0.0
H844 H 0.47454 0.00161 0.9288 0.0
N845 N 0.51174 0.05502 0.99 0.0
C846 C 0.49847 0.04836 0.97555 0.0
C847 C 0.5002 0.08169 0.9957 0.0
C848 C 0.48511 0.05795 0.97098 0.0
C849 C 0.51296 0.07151 -6e-05 0.0
C850 C 0.48611 0.07482 0.98127 0.0
N851 N 0.51144 0.02305 0.97032 0.0
C852 C 0.51254 0.00761 0.95934 0.0
C853 C 0.48443 0.0243 0.95062 0.0
C854 C 0.49817 0.03176 0.96557 0.0
C855 C 0.48488 0.00784 0.94031 0.0
C856 C 0.49917 0.99963 0.94447 0.0
H857 H 0.47613 0.08264 0.97817 0.0
H858 H 0.46066 0.05745 0.95286 0.0
H859 H 0.46004 0.02794 0.93504 0.0
O860 O 0.55223 0.03656 0.98011 0.0
O861 O 0.50468 0.03117 0.0078 0.0
O862 O 0.51072 0.00672 0.01988 0.0
O863 O 0.55018 0.06128 0.99667 0.0
O864 O 0.53573 0.00711 0.99359 0.0
O865 O 0.52895 0.98978 0.01906 0.0
O866 O 0.50659 0.00704 0.06623 0.0
O867 O 0.55612 0.01844 0.04697 0.0
O868 O 0.54065 0.02475 0.0229 0.0
O869 O 0.51124 0.9816 0.0538 0.0
O870 O 0.5214 0.0353 0.05002 0.0
O871 O 0.53592 0.05283 0.02824 0.0
C872 C 0.50009 0.01782 0.01755 0.0
C873 C 0.56188 0.0633 0.96687 0.0
C874 C 0.57045 0.06234 0.93454 0.0
C875 C 0.57312 0.08118 0.93616 0.0
C876 C 0.56463 0.08207 0.96828 0.0
C877 C 0.57002 0.09092 0.95286 0.0
C878 C 0.56444 0.05357 0.94983 0.0
C879 C 0.53343 0.9918 0.0015 0.0
C880 C 0.55805 0.05383 0.98357 0.0
C881 C 0.47117 0.05038 0.95644 0.0
C882 C 0.47081 0.03356 0.94632 0.0
C883 C 0.55623 0.02589 0.03159 0.0
C884 C 0.50221 0.98307 0.08473 0.0
C885 C 0.49221 0.98552 0.11603 0.0
C886 C 0.50117 0.97218 0.12142 0.0
C887 C 0.5112 0.96963 0.0901 0.0
C888 C 0.49256 0.99079 0.09772 0.0
C889 C 0.51057 0.96417 0.10838 0.0
C890 C 0.52775 0.05096 0.04387 0.0
C891 C 0.50299 0.98967 0.06598 0.0
H892 H 0.5781 0.08848 0.92482 0.0
H893 H 0.56293 0.08991 0.98136 0.0
H894 H 0.57229 0.10541 0.95406 0.0
H895 H 0.56212 0.03906 0.94861 0.0
H896 H 0.50087 0.96801 0.13564 0.0
H897 H 0.51878 0.96343 0.0803 0.0
H898 H 0.4856 0.00118 0.09373 0.0
H899 H 0.51747 0.95384 0.11251 0.0
Eu900 Eu 0.2695 0.25324 0.26064 0.0
C901 C 0.33034 0.31126 0.30626 0.0
N902 N 0.31477 0.30203 0.31076 0.0
C903 C 0.32876 0.29986 0.34221 0.0
C904 C 0.34583 0.31475 0.31958 0.0
C905 C 0.31369 0.29698 0.32872 0.0
C906 C 0.34493 0.30865 0.33757 0.0
C907 C 0.34639 0.32864 0.28418 0.0
C908 C 0.33064 0.31832 0.28879 0.0
C909 C 0.36185 0.33171 0.29724 0.0
C910 C 0.36157 0.32482 0.3149 0.0
Eu911 Eu 0.28982 0.30113 0.28805 0.0
N912 N 0.31543 0.31553 0.27649 0.0
C913 C 0.34602 0.33601 0.26676 0.0
C914 C 0.31477 0.32343 0.25998 0.0
C915 C 0.33011 0.33346 0.25466 0.0
H916 H 0.30115 0.29167 0.33323 0.0
H917 H 0.32959 0.33949 0.24142 0.0
H918 H 0.25591 0.26329 0.21709 0.0
H919 H 0.23259 0.21493 0.31055 0.0
H920 H 0.30237 0.32226 0.2511 0.0
H921 H 0.35784 0.34402 0.26274 0.0
H922 H 0.25892 0.23187 0.29955 0.0
H923 H 0.32776 0.29581 0.3564 0.0
H924 H 0.37404 0.33969 0.29399 0.0
H925 H 0.37353 0.32768 0.32501 0.0
H926 H 0.22882 0.25651 0.19405 0.0
H927 H 0.35649 0.31121 0.34823 0.0
H928 H 0.20405 0.20823 0.28955 0.0
N929 N 0.24374 0.25044 0.23909 0.0
C930 C 0.22909 0.23979 0.24382 0.0
C931 C 0.22862 0.25199 0.2081 0.0
C932 C 0.21334 0.23533 0.23089 0.0
C933 C 0.24389 0.25615 0.22138 0.0
C934 C 0.21325 0.24162 0.2129 0.0
N935 N 0.24531 0.23715 0.27368 0.0
C936 C 0.24649 0.23027 0.29078 0.0
C937 C 0.21453 0.2226 0.26696 0.0
C938 C 0.22979 0.23325 0.26165 0.0
C939 C 0.21552 0.21633 0.28492 0.0
C940 C 0.23157 0.22016 0.29685 0.0
H941 H 0.20147 0.23831 0.20252 0.0
H942 H 0.1861 0.22098 0.22635 0.0
H943 H 0.18705 0.21009 0.25797 0.0
O944 O 0.26555 0.22442 0.25403 0.0
O945 O 0.24923 0.27113 0.26692 0.0
O946 O 0.26179 0.28985 0.29447 0.0
O947 O 0.27716 0.24153 0.23405 0.0
O948 O 0.28314 0.25309 0.29069 0.0
O949 O 0.27929 0.27975 0.30625 0.0
O950 O 0.28287 0.32672 0.28396 0.0
O951 O 0.30772 0.28779 0.26969 0.0
O952 O 0.29911 0.25785 0.27181 0.0
O953 O 0.29425 0.32243 0.31203 0.0
O954 O 0.2741 0.30002 0.25877 0.0
O955 O 0.28076 0.27486 0.24339 0.0
C956 C 0.2477 0.28145 0.28264 0.0
C957 C 0.28571 0.21361 0.23539 0.0
C958 C 0.2991 0.18918 0.24468 0.0
C959 C 0.30807 0.18957 0.22843 0.0
C960 C 0.29476 0.21407 0.21913 0.0
C961 C 0.306 0.20214 0.21576 0.0
C962 C 0.28813 0.20122 0.24824 0.0
C963 C 0.28215 0.2634 0.30647 0.0
C964 C 0.27295 0.22519 0.23829 0.0
C965 C 0.19827 0.22458 0.23614 0.0
C966 C 0.19882 0.21835 0.25415 0.0
C967 C 0.31125 0.27157 0.26887 0.0
C968 C 0.27503 0.34292 0.31093 0.0
C969 C 0.2554 0.36376 0.30724 0.0
C970 C 0.25504 0.36602 0.32719 0.0
C971 C 0.27489 0.34536 0.33094 0.0
C972 C 0.26484 0.35172 0.29926 0.0
C973 C 0.26466 0.35667 0.33897 0.0
C974 C 0.2768 0.29071 0.24307 0.0
C975 C 0.28724 0.33321 0.30201 0.0
H976 H 0.31665 0.18023 0.22562 0.0
H977 H 0.29298 0.22347 0.20895 0.0
H978 H 0.31293 0.20249 0.20321 0.0
H979 H 0.28119 0.20052 0.26082 0.0
H980 H 0.24796 0.37549 0.33368 0.0
H981 H 0.28292 0.33889 0.34036 0.0
H982 H 0.26496 0.34995 0.28381 0.0
H983 H 0.2647 0.35869 0.35439 0.0
Eu984 Eu 0.5314 0.50004 0.02072 0.0
C985 C 0.50909 0.56826 0.06371 0.0
N986 N 0.49996 0.55701 0.04829 0.0
C987 C 0.47295 0.55628 0.0621 0.0
C988 C 0.5004 0.57379 0.07915 0.0
C989 C 0.48213 0.55114 0.04715 0.0
C990 C 0.48212 0.56761 0.07821 0.0
C991 C 0.53704 0.58575 0.07996 0.0
C992 C 0.52724 0.57408 0.06414 0.0
C993 C 0.52843 0.59123 0.0954 0.0
C994 C 0.51017 0.58526 0.09501 0.0
Eu995 Eu 0.51657 0.54894 0.02388 0.0
N996 N 0.53531 0.56823 0.04915 0.0
C997 C 0.5552 0.59171 0.07969 0.0
C998 C 0.55278 0.57474 0.04839 0.0
C999 C 0.56304 0.58636 0.06373 0.0
H1000 H 0.47492 0.54273 0.03455 0.0
H1001 H 0.57697 0.59131 0.06315 0.0
H1002 H 0.57363 0.5077 0.0116 0.0
H1003 H 0.47181 0.46019 0.97738 0.0
H1004 H 0.55879 0.5714 0.03583 0.0
H1005 H 0.56319 0.60071 0.09155 0.0
H1006 H 0.48887 0.48004 0.00538 0.0
H1007 H 0.4588 0.55158 0.06114 0.0
H1008 H 0.53577 0.60015 0.10769 0.0
H1009 H 0.50372 0.58963 0.10702 0.0
H1010 H 0.59087 0.49881 0.98607 0.0
H1011 H 0.47496 0.57157 0.08978 0.0
H1012 H 0.48716 0.44957 0.9508 0.0
N1013 N 0.54908 0.49277 0.99714 0.0
C1014 C 0.54056 0.48122 0.98164 0.0
C1015 C 0.57673 0.49384 0.9846 0.0
C1016 C 0.54993 0.47566 0.96681 0.0
C1017 C 0.5669 0.49901 -0.00107 0.0
C1018 C 0.56821 0.48212 0.96847 0.0
N1019 N 0.51346 0.48161 0.9944 0.0
C1020 C 0.49565 0.47598 0.99371 0.0
C1021 C 0.51308 0.46379 0.96409 0.0
C1022 C 0.52229 0.47537 0.98028 0.0
C1023 C 0.49471 0.45844 0.96302 0.0
C1024 C 0.48598 0.46449 0.97794 0.0
H1025 H 0.57587 0.47815 0.95738 0.0
H1026 H 0.54777 0.45958 0.93925 0.0
H1027 H 0.51557 0.4492 0.93687 0.0
O1028 O 0.52263 0.4764 0.03639 0.0
O1029 O 0.52562 0.51154 0.99237 0.0
O1030 O 0.50454 0.52727 -0.00028 0.0
O1031 O 0.54968 0.48356 0.02973 0.0
O1032 O 0.50639 0.50265 0.03409 0.0
O1033 O 0.49446 0.52413 0.0192 0.0
O1034 O 0.52455 0.57136 0.00648 0.0
O1035 O 0.52225 0.53746 0.05208 0.0
O1036 O 0.54336 0.52087 0.04598 0.0
O1037 O 0.49792 0.56506 0.0146 0.0
O1038 O 0.54181 0.5461 0.01084 0.0
O1039 O 0.55314 0.52494 0.02682 0.0
C1040 C 0.51348 0.52059 0.98711 0.0
C1041 C 0.54376 0.45685 0.04571 0.0
C1042 C 0.53952 0.43108 0.06434 0.0
C1043 C 0.55615 0.42801 0.06052 0.0
C1044 C 0.5603 0.45312 0.04221 0.0
C1045 C 0.56638 0.43888 0.04953 0.0
C1046 C 0.53318 0.44556 0.05679 0.0
C1047 C 0.49293 0.51008 0.02887 0.0
C1048 C 0.53829 0.47243 0.03725 0.0
C1049 C 0.54078 0.464 0.95077 0.0
C1050 C 0.52243 0.45809 0.94941 0.0
C1051 C 0.53467 0.52899 0.05788 0.0
C1052 C 0.50306 0.58976 0.99545 0.0
C1053 C 0.50827 0.6168 0.97891 0.0
C1054 C 0.49007 0.61661 0.97725 0.0
C1055 C 0.48491 0.59011 0.99337 0.0
C1056 C 0.51485 0.6032 0.98796 0.0
C1057 C 0.47853 0.60337 0.98435 0.0
C1058 C 0.555 0.53854 0.01663 0.0
C1059 C 0.50889 0.57531 0.00568 0.0
H1060 H 0.56121 0.41698 0.06602 0.0
H1061 H 0.56868 0.46122 0.03365 0.0
H1062 H 0.57913 0.43624 0.04663 0.0
H1063 H 0.52035 0.44806 0.0596 0.0
H1064 H 0.48474 0.62684 0.97038 0.0
H1065 H 0.47549 0.58006 -0.00124 0.0
H1066 H 0.52889 0.60326 0.98942 0.0
H1067 H 0.46452 0.60342 0.98294 0.0
Eu1068 Eu 0.77584 0.29847 0.26679 0.0
C1069 C 0.7385 0.22479 0.30497 0.0
N1070 N 0.75479 0.23493 0.31163 0.0
C1071 C 0.74905 0.23206 0.34415 0.0
C1072 C 0.72641 0.21901 0.31782 0.0
C1073 C 0.76064 0.2373 0.33092 0.0
C1074 C 0.73171 0.22331 0.33758 0.0
C1075 C 0.71818 0.20694 0.27841 0.0
C1076 C 0.73444 0.21863 0.28542 0.0
C1077 C 0.70566 0.20236 0.29102 0.0
C1078 C 0.70977 0.20836 0.31066 0.0
Eu1079 Eu 0.77221 0.24434 0.28724 0.0
N1080 N 0.7468 0.22307 0.27346 0.0
C1081 C 0.71524 0.19961 0.25907 0.0
C1082 C 0.74452 0.21492 0.25499 0.0
C1083 C 0.72863 0.20332 0.24742 0.0
H1084 H 0.77422 0.24354 0.33618 0.0
H1085 H 0.72677 0.19718 0.23265 0.0
H1086 H 0.77186 0.29147 0.21701 0.0
H1087 H 0.82353 0.34806 0.31625 0.0
H1088 H 0.75499 0.21725 0.24617 0.0
H1089 H 0.70294 0.19055 0.25318 0.0
H1090 H 0.7963 0.32479 0.30659 0.0
H1091 H 0.75357 0.23461 0.35939 0.0
H1092 H 0.69302 0.1936 0.28582 0.0
H1093 H 0.70025 0.20407 0.32032 0.0
H1094 H 0.79075 0.29861 0.19197 0.0
H1095 H 0.72281 0.2191 0.34787 0.0
H1096 H 0.84365 0.35669 0.29224 0.0
N1097 N 0.79132 0.30503 0.24019 0.0
C1098 C 0.80689 0.31716 0.24496 0.0
C1099 C 0.79558 0.30365 0.20684 0.0
C1100 C 0.8178 0.32217 0.23074 0.0
C1101 C 0.78506 0.29927 0.22128 0.0
C1102 C 0.81217 0.31485 0.21163 0.0
N1103 N 0.80104 0.32072 0.27754 0.0
C1104 C 0.80497 0.32871 0.29606 0.0
C1105 C 0.82744 0.33842 0.26888 0.0
C1106 C 0.81169 0.32537 0.26393 0.0
C1107 C 0.83167 0.34662 0.28791 0.0
C1108 C 0.82036 0.34179 0.30153 0.0
H1109 H 0.82021 0.31833 0.20036 0.0
H1110 H 0.8423 0.33856 0.22513 0.0
H1111 H 0.85073 0.3527 0.25844 0.0
O1112 O 0.76876 0.32391 0.27701 0.0
O1113 O 0.80283 0.29286 0.2803 0.0
O1114 O 0.79956 0.26358 0.2896 0.0
O1115 O 0.75367 0.30693 0.25193 0.0
O1116 O 0.77349 0.28135 0.29028 0.0
O1117 O 0.77238 0.26429 0.3128 0.0
O1118 O 0.7806 0.22033 0.27463 0.0
O1119 O 0.74744 0.25125 0.27004 0.0
O1120 O 0.75101 0.28214 0.27697 0.0
O1121 O 0.79146 0.23285 0.30344 0.0
O1122 O 0.78203 0.26008 0.26386 0.0
O1123 O 0.76943 0.27566 0.24337 0.0
C1124 C 0.80935 0.27947 0.28738 0.0
C1125 C 0.75424 0.3377 0.25313 0.0
C1126 C 0.74022 0.36324 0.25013 0.0
C1127 C 0.74642 0.36508 0.23226 0.0
C1128 C 0.76067 0.33982 0.23542 0.0
C1129 C 0.75675 0.3535 0.22505 0.0
C1130 C 0.74427 0.34957 0.26054 0.0
C1131 C 0.77262 0.28028 0.30848 0.0
C1132 C 0.75593 0.32208 0.26302 0.0
C1133 C 0.83373 0.33473 0.23586 0.0
C1134 C 0.83851 0.34285 0.25483 0.0
C1135 C 0.74125 0.26634 0.26932 0.0
C1136 C 0.79004 0.20203 0.29738 0.0
C1137 C 0.80246 0.17526 0.29846 0.0
C1138 C 0.79336 0.17099 0.31416 0.0
C1139 C 0.78077 0.1975 0.31286 0.0
C1140 C 0.80069 0.19082 0.29013 0.0
C1141 C 0.78249 0.18204 0.32123 0.0
C1142 C 0.7732 0.26048 0.24726 0.0
C1143 C 0.79075 0.21945 0.2903 0.0
H1144 H 0.74343 0.37558 0.22401 0.0
H1145 H 0.76832 0.33066 0.22942 0.0
H1146 H 0.76153 0.35499 0.2113 0.0
H1147 H 0.73909 0.34777 0.27409 0.0
H1148 H 0.79451 0.15904 0.32083 0.0
H1149 H 0.77262 0.20611 0.3188 0.0
H1150 H 0.80816 0.1946 0.27848 0.0
H1151 H 0.77554 0.17873 0.33334 0.0
Eu1152 Eu 0.03116 0.53617 0.49774 0.0
C1153 C 0.05767 0.49314 0.57341 0.0
N1154 N 0.04586 0.48686 0.55745 0.0
C1155 C 0.05693 0.45966 0.55407 0.0
C1156 C 0.07011 0.4831 0.57986 0.0
C1157 C 0.04506 0.47021 0.548 0.0
C1158 C 0.06963 0.4662 0.56994 0.0
C1159 C 0.07018 0.51706 0.59921 0.0
C1160 C 0.0576 0.50987 0.58308 0.0
C1161 C 0.08277 0.50722 0.60546 0.0
C1162 C 0.08269 0.49026 0.59585 0.0
Eu1163 Eu 0.02724 0.50618 0.54735 0.0
N1164 N 0.04569 0.51942 0.57622 0.0
C1165 C 0.06987 0.53402 0.60847 0.0
C1166 C 0.04484 0.53561 0.58579 0.0
C1167 C 0.05701 0.54322 0.60186 0.0
H1168 H 0.0352 0.46491 0.53581 0.0
H1169 H 0.05645 0.55621 0.60915 0.0
H1170 H 0.02406 0.57693 0.51044 0.0
H1171 H 0.99777 0.48607 0.43719 0.0
H1172 H 0.0348 0.54278 0.58129 0.0
H1173 H 0.07937 0.54004 0.62084 0.0
H1174 H 0.02206 0.50023 0.46203 0.0
H1175 H 0.05631 0.4465 0.54646 0.0
H1176 H 0.09262 0.5126 0.61771 0.0
H1177 H 0.09246 0.48282 0.60087 0.0
H1178 H 1.00177 0.59522 0.50285 0.0
H1179 H 0.07893 0.45806 0.57448 0.0
H1180 H 0.97273 0.50101 0.42982 0.0
N1181 N 0.01166 0.55509 0.48948 0.0
C1182 C 0.99818 0.54841 0.47527 0.0
C1183 C 1.00058 0.58206 0.49502 0.0
C1184 C 0.98494 0.55817 0.47074 0.0
C1185 C 0.01319 0.57171 0.49925 0.0
C1186 C 0.9863 0.5752 0.48081 0.0
N1187 N 0.01054 0.52263 0.47033 0.0
C1188 C 0.0111 0.50681 0.45973 0.0
C1189 C 0.9834 0.52405 0.45099 0.0
C1190 C 0.99746 0.53157 0.46557 0.0
C1191 C 0.98333 0.50729 0.44104 0.0
C1192 C 0.9974 0.49879 0.44522 0.0
H1193 H 0.97642 0.58315 0.47773 0.0
H1194 H 0.96033 0.55777 0.45298 0.0
H1195 H 0.95895 0.52786 0.4357 0.0
O1196 O 0.05201 0.536 0.47967 0.0
O1197 O 0.00422 0.53047 0.50692 0.0
O1198 O 0.01155 0.50653 0.51875 0.0
O1199 O 0.04952 0.56109 0.4951 0.0
O1200 O 0.03617 0.50721 0.49307 0.0
O1201 O 0.02995 0.48985 0.51866 0.0
O1202 O 0.00576 0.50617 0.56491 0.0
O1203 O 0.05594 0.51825 0.54657 0.0
O1204 O 0.04056 0.52527 0.52283 0.0
O1205 O 0.01066 0.48105 0.5519 0.0
O1206 O 0.02077 0.53493 0.54937 0.0
O1207 O 0.03536 0.55265 0.52775 0.0
C1208 C 1.0002 0.51685 0.51642 0.0
C1209 C 0.06017 0.56202 0.46469 0.0
C1210 C 0.06613 0.55975 0.43134 0.0
C1211 C 0.06804 0.57847 0.43197 0.0
C1212 C 0.06224 0.58069 0.46511 0.0
C1213 C 0.06599 0.58882 0.44874 0.0
C1214 C 0.06195 0.55166 0.44769 0.0
C1215 C 0.03446 0.49197 0.50113 0.0
C1216 C 0.05736 0.55336 0.48215 0.0
C1217 C 0.97074 0.55057 0.45652 0.0
C1218 C 0.96994 0.53352 0.44671 0.0
C1219 C 0.05609 0.52612 0.53144 0.0
C1220 C 0.99979 0.48094 0.58193 0.0
C1221 C 0.9911 0.48334 0.61404 0.0
C1222 C 0.99371 0.46587 0.61585 0.0
C1223 C 1.00222 0.46341 0.58381 0.0
C1224 C 0.99433 0.49082 0.59714 0.0
C1225 C 0.99928 0.45599 0.60078 0.0
C1226 C 0.02705 0.55067 0.5433 0.0
C1227 C 1.00191 0.48871 0.56387 0.0
H1228 H 0.07167 0.5852 0.41974 0.0
H1229 H 0.06116 0.58901 0.47813 0.0
H1230 H 0.06772 0.60323 0.44918 0.0
H1231 H 0.06039 0.53724 0.44723 0.0
H1232 H 0.99094 0.45966 0.62865 0.0
H1233 H 0.00621 0.45537 0.57217 0.0
H1234 H 0.99231 0.5043 0.59574 0.0
H1235 H 1.00103 0.44245 0.60212 0.0
Eu1236 Eu 0.79957 0.77002 0.26939 0.0
C1237 C 0.73253 0.7937 0.22913 0.0
N1238 N 0.74366 0.80225 0.24488 0.0
C1239 C 0.74641 0.82995 0.23109 0.0
C1240 C 0.72857 0.80283 0.21333 0.0
C1241 C 0.74984 0.82036 0.24645 0.0
C1242 C 0.73598 0.8211 0.21432 0.0
C1243 C 0.71238 0.76674 0.21339 0.0
C1244 C 0.72441 0.77596 0.22916 0.0
C1245 C 0.70895 0.77557 0.19731 0.0
C1246 C 0.71702 0.79358 0.19728 0.0
Eu1247 Eu 0.74991 0.78422 0.26931 0.0
N1248 N 0.72832 0.76767 0.24472 0.0
C1249 C 0.70405 0.74899 0.21437 0.0
C1250 C 0.71966 0.75067 0.2462 0.0
C1251 C 0.70754 0.74099 0.23095 0.0
H1252 H 0.75726 0.82763 0.25958 0.0
H1253 H 0.701 0.72737 0.23195 0.0
H1254 H 0.79301 0.72641 0.27619 0.0
H1255 H 0.84195 0.8286 0.31301 0.0
H1256 H 0.7225 0.74449 0.25897 0.0
H1257 H 0.69473 0.74143 0.20253 0.0
H1258 H 0.82244 0.81225 0.28447 0.0
H1259 H 0.75165 0.84423 0.2323 0.0
H1260 H 0.69987 0.76868 0.18495 0.0
H1261 H 0.71398 0.80033 0.18493 0.0
H1262 H 0.80038 0.70817 0.30164 0.0
H1263 H 0.73327 0.8286 0.20249 0.0
H1264 H 0.85056 0.81231 0.33989 0.0
N1265 N 0.80718 0.75103 0.29182 0.0
C1266 C 0.81832 0.75917 0.30774 0.0
C1267 C 0.80542 0.72251 0.30358 0.0
C1268 C 0.82295 0.74923 0.3226 0.0
C1269 C 0.80112 0.73292 0.28927 0.0
C1270 C 0.81624 0.73071 0.32039 0.0
N1271 N 0.81949 0.78702 0.29522 0.0
C1272 C 0.82583 0.805 0.29615 0.0
C1273 C 0.83585 0.78647 0.32608 0.0
C1274 C 0.8247 0.77763 0.30947 0.0
C1275 C 0.84197 0.80503 0.32736 0.0
C1276 C 0.83707 0.81429 0.31226 0.0
H1277 H 0.81944 0.72262 0.33151 0.0
H1278 H 0.83752 0.75064 0.35081 0.0
H1279 H 0.84882 0.7832 0.35385 0.0
O1280 O 0.82526 0.77672 0.25885 0.0
O1281 O 0.78896 0.7743 0.29837 0.0
O1282 O 0.77362 0.79561 0.29113 0.0
O1283 O 0.8087 0.75041 0.25007 0.0
O1284 O 0.79798 0.79729 0.25978 0.0
O1285 O 0.77398 0.80743 0.27155 0.0
O1286 O 0.72915 0.77506 0.28749 0.0
O1287 O 0.7544 0.76571 0.24362 0.0
O1288 O 0.78324 0.7778 0.24441 0.0
O1289 O 0.73597 0.80284 0.28336 0.0
O1290 O 0.75576 0.75961 0.28224 0.0
O1291 O 0.77519 0.74736 0.26458 0.0
C1292 C 0.78016 0.78659 0.30381 0.0
C1293 C 0.83963 0.7539 0.24671 0.0
C1294 C 0.86692 0.75404 0.23191 0.0
C1295 C 0.86904 0.73864 0.24046 0.0
C1296 C 0.8422 0.73868 0.25529 0.0
C1297 C 0.85686 0.73115 0.25218 0.0
C1298 C 0.85221 0.76174 0.23525 0.0
C1299 C 0.78904 0.80995 0.26392 0.0
C1300 C 0.82353 0.76127 0.24852 0.0
C1301 C 0.83394 0.75805 0.3392 0.0
C1302 C 0.84038 0.7766 0.34093 0.0
C1303 C 0.76888 0.76741 0.23542 0.0
C1304 C 0.70657 0.79254 0.28915 0.0
C1305 C 0.6788 0.79108 0.30328 0.0
C1306 C 0.67284 0.80092 0.28908 0.0
C1307 C 0.69996 0.80194 0.27482 0.0
C1308 C 0.69574 0.7868 0.30323 0.0
C1309 C 0.68327 0.80614 0.27488 0.0
C1310 C 0.7611 0.74574 0.27386 0.0
C1311 C 0.72537 0.79086 0.29075 0.0
H1312 H 0.88022 0.73246 0.23817 0.0
H1313 H 0.83278 0.73251 0.26418 0.0
H1314 H 0.85872 0.71933 0.25875 0.0
H1315 H 0.85027 0.77346 0.22849 0.0
H1316 H 0.65997 0.80448 0.2889 0.0
H1317 H 0.70792 0.80653 0.26384 0.0
H1318 H 0.7007 0.77969 0.31447 0.0
H1319 H 0.67849 0.81371 0.26401 0.0
Eu1320 Eu 0.7632 0.26903 0.79285 0.0
C1321 C 0.80106 0.23806 0.72364 0.0
N1322 N 0.80855 0.25188 0.73743 0.0
C1323 C 0.83351 0.23822 0.74399 0.0
C1324 C 0.80921 0.22331 0.72006 0.0
C1325 C 0.8248 0.25244 0.7472 0.0
C1326 C 0.82559 0.22347 0.73054 0.0
C1327 C 0.77689 0.22463 0.69893 0.0
C1328 C 0.78493 0.23858 0.71358 0.0
C1329 C 0.78462 0.20959 0.69568 0.0
C1330 C 0.80073 0.20891 0.70627 0.0
Eu1331 Eu 0.79179 0.27401 0.74451 0.0
N1332 N 0.77754 0.2531 0.71751 0.0
C1333 C 0.76165 0.22651 0.68758 0.0
C1334 C 0.76393 0.25587 0.70506 0.0
C1335 C 0.75549 0.24246 0.69026 0.0
H1336 H 0.83085 0.26372 0.75773 0.0
H1337 H 0.74433 0.24452 0.68083 0.0
H1338 H 0.72219 0.27615 0.78572 0.0
H1339 H 0.81727 0.30323 0.8493 0.0
H1340 H 0.75958 0.26847 0.70624 0.0
H1341 H 0.75507 0.21614 0.67614 0.0
H1342 H 0.80073 0.27796 0.8268 0.0
H1343 H 0.84625 0.23856 0.75203 0.0
H1344 H 0.77844 0.19859 0.68473 0.0
H1345 H 0.80665 0.19732 0.70348 0.0
H1346 H 0.70524 0.29905 0.79562 0.0
H1347 H 0.83227 0.21237 0.72825 0.0
H1348 H 0.80413 0.32966 0.85701 0.0
N1349 N 0.74564 0.28903 0.8039 0.0
C1350 C 0.75367 0.30315 0.81707 0.0
C1351 C 0.71884 0.30036 0.80178 0.0
C1352 C 0.74463 0.31676 0.82279 0.0
C1353 C 0.72844 0.28738 0.7963 0.0
C1354 C 0.727 0.31518 0.81499 0.0
N1355 N 0.77934 0.29067 0.81871 0.0
C1356 C 0.79521 0.28974 0.82857 0.0
C1357 C 0.77985 0.31874 0.83813 0.0
C1358 C 0.77113 0.30419 0.82441 0.0
C1359 C 0.79696 0.31873 0.84647 0.0
C1360 C 0.80447 0.30392 0.84205 0.0
H1361 H 0.71961 0.32535 0.81902 0.0
H1362 H 0.74683 0.34224 0.84025 0.0
H1363 H 0.77767 0.34393 0.85379 0.0
O1364 O 0.76454 0.24737 0.81037 0.0
O1365 O 0.76456 0.2956 0.78205 0.0
O1366 O 0.78888 0.29065 0.77125 0.0
O1367 O 0.73925 0.2535 0.8015 0.0
O1368 O 0.79209 0.26455 0.79571 0.0
O1369 O 0.80853 0.27986 0.77417 0.0
O1370 O 0.79232 0.29459 0.72522 0.0
O1371 O 0.78938 0.24792 0.7561 0.0
O1372 O 0.76396 0.25183 0.76563 0.0
O1373 O 0.8168 0.28797 0.73676 0.0
O1374 O 0.76228 0.27685 0.7397 0.0
O1375 O 0.74537 0.26726 0.76428 0.0
C1376 C 0.77747 0.30094 0.77248 0.0
C1377 C 0.74352 0.24364 0.83215 0.0
C1378 C 0.75095 0.23628 0.86436 0.0
C1379 C 0.73601 0.24221 0.87006 0.0
C1380 C 0.72852 0.24938 0.83801 0.0
C1381 C 0.72481 0.24863 0.85689 0.0
C1382 C 0.75454 0.23686 0.84538 0.0
C1383 C 0.80738 0.27078 0.78932 0.0
C1384 C 0.74783 0.24448 0.81238 0.0
C1385 C 0.75349 0.33156 0.83585 0.0
C1386 C 0.77108 0.33257 0.84348 0.0
C1387 C 0.77583 0.24207 0.76443 0.0
C1388 C 0.81447 0.29525 0.7049 0.0
C1389 C 0.81224 0.30496 0.67322 0.0
C1390 C 0.82367 0.29383 0.66747 0.0
C1391 C 0.82568 0.28386 0.699 0.0
C1392 C 0.80776 0.30566 0.69191 0.0
C1393 C 0.83027 0.28324 0.68033 0.0
C1394 C 0.74705 0.273 0.74718 0.0
C1395 C 0.80921 0.29638 0.72429 0.0
H1396 H 0.73275 0.24142 0.88457 0.0
H1397 H 0.71964 0.25444 0.82804 0.0
H1398 H 0.71319 0.25294 0.86131 0.0
H1399 H 0.76598 0.23208 0.84096 0.0
H1400 H 0.82727 0.2932 0.65301 0.0
H1401 H 0.83086 0.27547 0.70873 0.0
H1402 H 0.7991 0.31447 0.6964 0.0
H1403 H 0.83894 0.27452 0.67582 0.0
Eu1404 Eu 0.7706 0.75541 0.76056 0.0
C1405 C 0.83 0.8134 0.80548 0.0
N1406 N 0.81513 0.80354 0.81071 0.0
C1407 C 0.83086 0.80049 0.84085 0.0
C1408 C 0.84615 0.8166 0.81766 0.0
C1409 C 0.81519 0.79755 0.82828 0.0
C1410 C 0.84644 0.80995 0.83548 0.0
C1411 C 0.8444 0.83051 0.78224 0.0
C1412 C 0.82901 0.82051 0.78799 0.0
C1413 C 0.86055 0.83338 0.7942 0.0
C1414 C 0.86139 0.82658 0.8119 0.0
Eu1415 Eu 0.7889 0.80233 0.79046 0.0
N1416 N 0.81304 0.81812 0.77694 0.0
C1417 C 0.84306 0.83773 0.76482 0.0
C1418 C 0.81157 0.82616 0.76057 0.0
C1419 C 0.82656 0.83562 0.75401 0.0
H1420 H 0.80305 0.79105 0.83294 0.0
H1421 H 0.8253 0.84172 0.74086 0.0
H1422 H 0.758 0.76624 0.71636 0.0
H1423 H 0.7338 0.71093 0.80455 0.0
H1424 H 0.79891 0.82602 0.75279 0.0
H1425 H 0.85459 0.84539 0.75987 0.0
H1426 H 0.76006 0.73019 0.79532 0.0
H1427 H 0.83084 0.79574 0.8548 0.0
H1428 H 0.87244 0.84113 0.79003 0.0
H1429 H 0.8739 0.82921 0.82111 0.0
H1430 H 0.73108 0.76134 0.69341 0.0
H1431 H 0.85854 0.81234 0.84533 0.0
H1432 H 0.70518 0.7058 0.78377 0.0
N1433 N 0.74531 0.75289 0.73782 0.0
C1434 C 0.73027 0.7423 0.74188 0.0
C1435 C 0.73059 0.75619 0.70713 0.0
C1436 C 0.71464 0.73866 0.72878 0.0
C1437 C 0.74579 0.75934 0.72046 0.0
C1438 C 0.7149 0.74595 0.71137 0.0
N1439 N 0.74609 0.73737 0.77075 0.0
C1440 C 0.74749 0.72873 0.78668 0.0
C1441 C 0.71549 0.72281 0.76305 0.0
C1442 C 0.7307 0.73426 0.75873 0.0
C1443 C 0.71658 0.71465 0.77994 0.0
C1444 C 0.73269 0.71754 0.79173 0.0
H1445 H 0.70321 0.74333 0.70088 0.0
H1446 H 0.68731 0.72452 0.72326 0.0
H1447 H 0.68802 0.71082 0.75334 0.0
O1448 O 0.78354 0.73268 0.76303 0.0
O1449 O 0.75103 0.76653 0.77841 0.0
O1450 O 0.7592 0.79711 0.77939 0.0
O1451 O 0.76855 0.73548 0.73565 0.0
O1452 O 0.78479 0.75554 0.79056 0.0
O1453 O 0.77704 0.7799 0.80656 0.0
O1454 O 0.79328 0.83107 0.79873 0.0
O1455 O 0.80849 0.78362 0.78442 0.0
O1456 O 0.79693 0.77116 0.75426 0.0
O1457 O 0.78201 0.81297 0.81794 0.0
O1458 O 0.77516 0.80431 0.76063 0.0
O1459 O 0.77946 0.77842 0.74383 0.0
C1460 C 0.74716 0.78262 0.78048 0.0
C1461 C 0.78261 0.70997 0.73613 0.0
C1462 C 0.79495 0.68365 0.73975 0.0
C1463 C 0.79262 0.6792 0.71973 0.0
C1464 C 0.77999 0.70542 0.71609 0.0
C1465 C 0.78505 0.69007 0.70794 0.0
C1466 C 0.79004 0.69904 0.74782 0.0
C1467 C 0.78147 0.76423 0.80637 0.0
C1468 C 0.7783 0.72636 0.74503 0.0
C1469 C 0.69941 0.72744 0.73317 0.0
C1470 C 0.69982 0.7196 0.75028 0.0
C1471 C 0.81075 0.77661 0.76726 0.0
C1472 C 0.77414 0.84124 0.81931 0.0
C1473 C 0.75749 0.86361 0.81066 0.0
C1474 C 0.75152 0.86437 0.82876 0.0
C1475 C 0.76833 0.84219 0.83753 0.0
C1476 C 0.76866 0.85202 0.80592 0.0
C1477 C 0.75699 0.85368 0.84218 0.0
C1478 C 0.77576 0.79447 0.74435 0.0
C1479 C 0.78646 0.82959 0.81476 0.0
H1480 H 0.79634 0.66721 0.7133 0.0
H1481 H 0.77426 0.71381 0.70677 0.0
H1482 H 0.78311 0.68658 0.69251 0.0
H1483 H 0.79214 0.70253 0.7633 0.0
H1484 H 0.74299 0.87349 0.83261 0.0
H1485 H 0.77265 0.83414 0.84817 0.0
H1486 H 0.77314 0.85159 0.79184 0.0
H1487 H 0.7526 0.85446 0.85626 0.0
Eu1488 Eu 0.54697 0.53219 0.53154 0.0
C1489 C 0.48627 0.47051 0.48488 0.0
N1490 N 0.49641 0.48556 0.48005 0.0
C1491 C 0.49774 0.47036 0.44897 0.0
C1492 C 0.48168 0.45464 0.47185 0.0
C1493 C 0.50201 0.48576 0.46234 0.0
C1494 C 0.48756 0.45472 0.45375 0.0
C1495 C 0.46992 0.45547 0.50826 0.0
C1496 C 0.48038 0.47097 0.50292 0.0
C1497 C 0.46547 0.43965 0.49534 0.0
C1498 C 0.47126 0.43925 0.47718 0.0
Eu1499 Eu 0.50053 0.5114 0.5026 0.0
N1500 N 0.48473 0.48652 0.51516 0.0
C1501 C 0.46398 0.45639 0.52632 0.0
C1502 C 0.47794 0.48774 0.53222 0.0
C1503 C 0.46788 0.47265 0.53828 0.0
H1504 H 0.50909 0.49797 0.45815 0.0
H1505 H 0.46276 0.47369 0.55197 0.0
H1506 H 0.53878 0.54297 0.57689 0.0
H1507 H 0.57646 0.57473 0.48061 0.0
H1508 H 0.47952 0.5004 0.54088 0.0
H1509 H 0.45596 0.44477 0.53095 0.0
H1510 H 0.56182 0.54667 0.49105 0.0
H1511 H 0.50206 0.47066 0.43487 0.0
H1512 H 0.45739 0.42766 0.49919 0.0
H1513 H 0.46757 0.42698 0.46731 0.0
H1514 H 0.5454 0.56956 0.6012 0.0
H1515 H 0.48417 0.44284 0.44329 0.0
H1516 H 0.58391 0.60254 0.50343 0.0
N1517 N 0.54977 0.55702 0.55498 0.0
C1518 C 0.5587 0.57279 0.55032 0.0
C1519 C 0.54904 0.57069 0.5869 0.0
C1520 C 0.56309 0.58823 0.56396 0.0
C1521 C 0.545 0.55571 0.57296 0.0
C1522 C 0.55816 0.587 0.58241 0.0
N1523 N 0.55906 0.55852 0.51878 0.0
C1524 C 0.56397 0.55874 0.50079 0.0
C1525 C 0.57249 0.58987 0.52662 0.0
C1526 C 0.56342 0.57358 0.53177 0.0
C1527 C 0.57695 0.59029 0.50792 0.0
C1528 C 0.57268 0.57464 0.49497 0.0
H1529 H 0.56141 0.59854 0.59331 0.0
H1530 H 0.57597 0.61628 0.56925 0.0
H1531 H 0.5841 0.61774 0.5366 0.0
O1532 O 0.574 0.5304 0.52797 0.0
O1533 O 0.52863 0.55192 0.52519 0.0
O1534 O 0.51344 0.53921 0.49612 0.0
O1535 O 0.56625 0.53301 0.55655 0.0
O1536 O 0.54692 0.51691 0.50195 0.0
O1537 O 0.52191 0.52211 0.48528 0.0
O1538 O 0.47577 0.5204 0.50534 0.0
O1539 O 0.51638 0.48996 0.51047 0.0
O1540 O 0.53714 0.50303 0.53641 0.0
O1541 O 0.48164 0.50991 0.47706 0.0
O1542 O 0.50159 0.52548 0.5331 0.0
O1543 O 0.52666 0.51953 0.54911 0.0
C1544 C 0.51983 0.55348 0.50864 0.0
C1545 C 0.58795 0.5159 0.55131 0.0
C1546 C 0.60759 0.49612 0.54254 0.0
C1547 C 0.60791 0.49045 0.5609 0.0
C1548 C 0.58847 0.51032 0.56973 0.0
C1549 C 0.59828 0.49748 0.57439 0.0
C1550 C 0.5973 0.50851 0.53777 0.0
C1551 C 0.53747 0.5179 0.48565 0.0
C1552 C 0.57856 0.53005 0.54625 0.0
C1553 C 0.57235 0.60435 0.55888 0.0
C1554 C 0.57699 0.60517 0.54028 0.0
C1555 C 0.52769 0.48873 0.52539 0.0
C1556 C 0.45375 0.51925 0.47793 0.0
C1557 C 0.4287 0.53363 0.48 0.0
C1558 C 0.42096 0.52459 0.46189 0.0
C1559 C 0.44605 0.51023 0.45985 0.0
C1560 C 0.44524 0.53114 0.48767 0.0
C1561 C 0.42971 0.513 0.45183 0.0
C1562 C 0.51068 0.52266 0.54895 0.0
C1563 C 0.47063 0.51647 0.48691 0.0
H1564 H 0.61608 0.48112 0.56507 0.0
H1565 H 0.58148 0.51598 0.58055 0.0
H1566 H 0.59878 0.49331 0.58862 0.0
H1567 H 0.59699 0.51278 0.52355 0.0
H1568 H 0.40804 0.52612 0.45577 0.0
H1569 H 0.45254 0.50097 0.45205 0.0
H1570 H 0.4515 0.53844 0.5014 0.0
H1571 H 0.42368 0.50595 0.43796 0.0
Eu1572 Eu 1.00205 0.52071 0.02781 0.0
C1573 C 0.07144 0.56495 0.98648 0.0
N1574 N 0.05942 0.54964 0.97965 0.0
C1575 C 0.05896 0.55814 0.94769 0.0
C1576 C 0.07712 0.57777 0.97414 0.0
C1577 C 0.05393 0.54571 0.96032 0.0
C1578 C 0.07039 0.57435 0.95466 0.0
C1579 C 0.09176 0.58299 0.01289 0.0
C1580 C 0.07879 0.56753 0.00567 0.0
C1581 C 0.09702 0.59592 0.00073 0.0
C1582 C 0.08971 0.59333 0.98143 0.0
Eu1583 Eu 0.05261 0.52952 0.00271 0.0
N1584 N 0.0734 0.55494 0.0173 0.0
C1585 C 0.09905 0.58502 0.03218 0.0
C1586 C 0.08059 0.55672 0.03604 0.0
C1587 C 0.09346 0.57181 0.04379 0.0
H1588 H 0.04596 0.53282 0.95431 0.0
H1589 H 0.0991 0.57323 0.05869 0.0
H1590 H 0.0074 0.52063 0.07599 0.0
H1591 H 0.94879 0.47797 0.97844 0.0
H1592 H 0.07642 0.54647 0.04499 0.0
H1593 H 0.10902 0.59671 0.03824 0.0
H1594 H 0.97045 0.50583 0.99105 0.0
H1595 H 0.05428 0.55503 0.9325 0.0
H1596 H 0.10687 0.60791 0.00607 0.0
H1597 H 0.09412 0.60331 0.97216 0.0
H1598 H 0.00262 0.49863 0.09934 0.0
H1599 H 0.07444 0.58386 0.94476 0.0
H1600 H 0.9455 0.45226 0.9974 0.0
N1601 N 0.99737 0.5014 0.0517 0.0
C1602 C 0.9869 0.48501 0.04541 0.0
C1603 C 0.99857 0.49446 0.08415 0.0
C1604 C 0.98285 0.47227 0.05829 0.0
C1605 C 1.00184 0.50674 0.0709 0.0
C1606 C 0.98946 0.47697 0.07774 0.0
N1607 N 0.98105 0.4949 0.015 0.0
C1608 C 0.9699 0.49421 -0.00142 0.0
C1609 C 0.96562 0.46587 0.02051 0.0
C1610 C 0.97833 0.48177 0.02664 0.0
C1611 C 0.95545 0.46422 0.00256 0.0
C1612 C 0.9573 0.47866 0.99176 0.0
H1613 H 0.98657 0.4676 0.08809 0.0
H1614 H 0.96827 0.44579 0.06136 0.0
H1615 H 0.95321 0.4402 0.02829 0.0
O1616 O 0.98336 0.53639 0.01535 0.0
O1617 O 0.00701 0.49718 0.0074 0.0
O1618 O 0.03768 0.50084 0.00589 0.0
O1619 O 0.98134 0.52723 0.04344 0.0
O1620 O 0.01912 0.52768 0.00643 0.0
O1621 O 0.02995 0.52647 0.97987 0.0
O1622 O 0.07859 0.52201 0.00918 0.0
O1623 O 0.04408 0.55476 0.01764 0.0
O1624 O 0.01887 0.54934 0.03457 0.0
O1625 O 0.0636 0.51503 0.98045 0.0
O1626 O 0.05 0.52087 0.03205 0.0
O1627 O 0.0261 0.52417 0.04947 0.0
C1628 C 0.02154 0.49074 0.00513 0.0
C1629 C 0.96676 0.55075 0.03743 0.0
C1630 C 0.94119 0.56491 0.03525 0.0
C1631 C 0.94629 0.57314 0.0542 0.0
C1632 C 0.97193 0.55947 0.05628 0.0
C1633 C 0.96169 0.57057 0.06458 0.0
C1634 C 0.9515 0.55382 0.02682 0.0
C1635 C 0.0162 0.52714 0.98809 0.0
C1636 C 0.9747 0.53574 0.03032 0.0
C1637 C 0.97134 0.45579 0.0517 0.0
C1638 C 0.96273 0.45261 0.03286 0.0
C1639 C 0.03255 0.56007 0.0288 0.0
C1640 C 0.09188 0.50607 0.9843 0.0
C1641 C 0.11583 0.48971 0.98873 0.0
C1642 C 0.11677 0.48844 0.96886 0.0
C1643 C 0.09314 0.50465 0.96448 0.0
C1644 C 0.10351 0.49881 0.99652 0.0
C1645 C 0.10558 0.49597 0.95687 0.0
C1646 C 0.04193 0.52063 0.04766 0.0
C1647 C 0.07786 0.51444 0.99163 0.0
H1648 H 0.93835 0.58162 0.06091 0.0
H1649 H 0.98345 0.55709 0.06489 0.0
H1650 H 0.9655 0.5769 0.07923 0.0
H1651 H 0.94719 0.54693 0.01243 0.0
H1652 H 0.12624 0.48161 0.96262 0.0
H1653 H 0.08444 0.5102 0.95482 0.0
H1654 H 0.10258 0.49967 0.0118 0.0
H1655 H 0.10643 0.49494 0.94159 0.0
H1656 H 0.01579 0.22274 0.99396 0.0
H1657 H 0.0172 0.19256 0.00165 0.0
H1658 H 0.99877 0.17127 0.94263 0.0
H1659 H 0.99765 0.20163 0.93474 0.0
H1660 H 0.99413 0.16224 0.00098 0.0
H1661 H 0.04099 0.14876 0.95 0.0
H1662 H 0.03595 0.17067 0.95507 0.0
H1663 H 0.02113 0.15371 0.93838 0.0
C1664 C 0.01204 0.2117 0.9825 0.0
C1665 C 0.00673 0.21492 0.9636 0.0
C1666 C 0.01284 0.19428 0.98699 0.0
C1667 C 0.0085 0.17933 0.97276 0.0
C1668 C 0.00273 0.18241 0.95393 0.0
H1669 H 0.00547 0.06341 0.97513 0.0
H1670 H 0.00269 0.09314 0.96663 0.0
C1671 C 1.0019 0.19989 0.94942 0.0
C1672 C 0.00998 0.16072 0.97779 0.0
H1673 H 0.02842 0.12427 0.96571 0.0
C1674 C 1.00171 0.15404 0.99325 0.0
C1675 C 0.01989 0.14969 0.96794 0.0
C1676 C 0.03015 0.15611 0.95206 0.0
C1677 C 0.00279 0.13692 -0.0012 0.0
C1678 C 0.01262 0.12591 0.98888 0.0
C1679 C 0.02083 0.1325 0.97339 0.0
C1680 C 0.01447 0.10757 0.99428 0.0
C1681 C 0.99301 0.13056 0.01504 0.0
C1682 C 0.02222 0.1054 0.01267 0.0
C1683 C 0.02382 0.08828 0.01762 0.0
C1684 C 0.01783 0.0727 0.00432 0.0
C1685 C 0.01023 0.07493 0.98587 0.0
C1686 C 0.00866 0.09205 0.98093 0.0
H1687 H 0.98271 0.13839 0.01803 0.0
H1688 H 0.98664 0.11614 0.01175 0.0
H1689 H 1.00251 0.13219 0.02827 0.0
H1690 H 0.02719 0.117 0.02324 0.0
H1691 H 0.02971 0.0873 0.03196 0.0
H1692 H 0.09148 0.79275 0.16578 0.0
H1693 H 0.11792 0.79198 0.18801 0.0
H1694 H 0.14483 0.77811 0.13996 0.0
H1695 H 0.11883 0.77899 0.11787 0.0
H1696 H 0.13618 0.76313 0.19271 0.0
H1697 H 0.18062 0.82064 0.16984 0.0
H1698 H 0.15687 0.81663 0.16417 0.0
H1699 H 0.16965 0.80401 0.1504 0.0
C1700 C 0.10306 0.78963 0.15994 0.0
C1701 C 0.10293 0.7861 0.1399 0.0
C1702 C 0.1182 0.78918 0.1727 0.0
C1703 C 0.13363 0.78531 0.16574 0.0
C1704 C 0.13338 0.78158 0.1458 0.0
H1705 H 0.24077 0.7771 0.20977 0.0
H1706 H 0.21346 0.77979 0.19091 0.0
C1707 C 0.11835 0.78201 0.13312 0.0
C1708 C 0.14985 0.7846 0.17909 0.0
H1709 H 0.19423 0.80221 0.18923 0.0
C1710 C 0.14885 0.77177 0.19208 0.0
C1711 C 0.16651 0.79574 0.17825 0.0
C1712 C 0.16853 0.81015 0.16505 0.0
C1713 C 0.16402 0.76924 0.20357 0.0
C1714 C 0.1808 0.78037 0.20274 0.0
C1715 C 0.18162 0.79351 0.19001 0.0
C1716 C 0.19764 0.77847 0.21452 0.0
C1717 C 0.16183 0.754 0.21573 0.0
C1718 C 0.19841 0.77706 0.23433 0.0
C1719 C 0.21389 0.77454 0.24497 0.0
C1720 C 0.22952 0.77424 0.23651 0.0
C1721 C 0.22904 0.77669 0.21691 0.0
C1722 C 0.21333 0.77849 0.20605 0.0
H1723 H 0.15006 0.74342 0.20991 0.0
H1724 H 0.17361 0.74771 0.21665 0.0
H1725 H 0.1598 0.75916 0.23043 0.0
H1726 H 0.18703 0.77793 0.24174 0.0
H1727 H 0.21354 0.77299 0.25994 0.0
H1728 H 0.51808 0.81397 0.47981 0.0
H1729 H 0.52245 0.84547 0.49459 0.0
H1730 H 0.49401 0.85846 0.4439 0.0
H1731 H 0.48942 0.82759 0.42942 0.0
H1732 H 0.53896 0.87844 0.48243 0.0
H1733 H 0.46818 0.87812 0.48555 0.0
H1734 H 0.47647 0.85772 0.48165 0.0
H1735 H 0.47224 0.87022 0.46194 0.0
C1736 C 0.51261 0.82352 0.47192 0.0
C1737 C 0.50326 0.81797 0.45338 0.0
C1738 C 0.5152 0.8416 0.48036 0.0
C1739 C 0.5083 0.8545 0.47056 0.0
C1740 C 0.49915 0.8489 0.45208 0.0
H1741 H 0.5027 0.96744 0.47745 0.0
H1742 H 0.50015 0.93487 0.46982 0.0
C1743 C 0.49661 0.83106 0.44372 0.0
C1744 C 0.51056 0.87386 0.47908 0.0
H1745 H 0.48708 0.90702 0.48727 0.0
C1746 C 0.52761 0.88463 0.48376 0.0
C1747 C 0.49585 0.88216 0.48094 0.0
C1748 C 0.47716 0.87142 0.47745 0.0
C1749 C 0.53028 0.90341 0.48919 0.0
C1750 C 0.51549 0.91181 0.49029 0.0
C1751 C 0.49849 0.90088 0.48624 0.0
C1752 C 0.5172 0.93186 0.49511 0.0
C1753 C 0.54898 0.91414 0.49285 0.0
C1754 C 0.52737 0.94131 0.51203 0.0
C1755 C 0.52908 0.96001 0.51618 0.0
C1756 C 0.52024 0.96974 0.50386 0.0
C1757 C 0.50958 0.9603 0.48729 0.0
C1758 C 0.50816 0.94165 0.48292 0.0
H1759 H 0.55841 0.90672 0.4865 0.0
H1760 H 0.54997 0.92714 0.48688 0.0
H1761 H 0.55313 0.91695 0.50857 0.0
H1762 H 0.53399 0.93426 0.52214 0.0
H1763 H 0.53724 0.96689 0.52915 0.0
H1764 H 0.47888 0.26421 0.61215 0.0
H1765 H 0.4547 0.26497 0.63154 0.0
H1766 H 0.49129 0.29585 0.6785 0.0
H1767 H 0.51574 0.29522 0.65905 0.0
H1768 H 0.45072 0.25166 0.66643 0.0
H1769 H 0.45162 0.32484 0.67393 0.0
H1770 H 0.46273 0.31412 0.65623 0.0
H1771 H 0.47234 0.31861 0.68092 0.0
C1772 C 0.48188 0.27126 0.62657 0.0
C1773 C 0.49935 0.27969 0.63396 0.0
C1774 C 0.46796 0.27167 0.63767 0.0
C1775 C 0.47103 0.28068 0.65644 0.0
C1776 C 0.48847 0.28909 0.66395 0.0
H1777 H 0.39567 0.27926 0.74229 0.0
H1778 H 0.42243 0.28722 0.72635 0.0
C1779 C 0.50248 0.2886 0.65285 0.0
C1780 C 0.45598 0.28045 0.66818 0.0
H1781 H 0.43106 0.30696 0.69031 0.0
C1782 C 0.44651 0.26378 0.67169 0.0
C1783 C 0.4504 0.29625 0.67513 0.0
C1784 C 0.45967 0.31449 0.67129 0.0
C1785 C 0.43168 0.26245 0.68177 0.0
C1786 C 0.42587 0.27817 0.68837 0.0
C1787 C 0.4355 0.29491 0.68526 0.0
C1788 C 0.40932 0.277 0.69772 0.0
C1789 C 0.42223 0.24414 0.68525 0.0
C1790 C 0.39293 0.2694 0.68689 0.0
C1791 C 0.37774 0.2649 0.69592 0.0
C1792 C 0.37851 0.26806 0.716 0.0
C1793 C 0.39463 0.27692 0.72677 0.0
C1794 C 0.40993 0.28138 0.71768 0.0
H1795 H 0.43036 0.23381 0.68287 0.0
H1796 H 0.41874 0.2444 0.70015 0.0
H1797 H 0.40978 0.24006 0.67524 0.0
H1798 H 0.39209 0.26598 0.67149 0.0
H1799 H 0.36555 0.25795 0.68731 0.0
H1800 H 0.99496 0.79026 0.65538 0.0
H1801 H 0.99214 0.81589 0.63753 0.0
H1802 H 0.04849 0.82756 0.63634 0.0
H1803 H 0.05144 0.8023 0.65418 0.0
H1804 H 0.01065 0.85451 0.64819 0.0
H1805 H 0.02599 0.82383 0.57892 0.0
H1806 H 0.01875 0.81068 0.5976 0.0
H1807 H 0.04132 0.82245 0.59937 0.0
C1808 C 0.00673 0.79822 0.65119 0.0
C1809 C 0.02343 0.79411 0.6562 0.0
C1810 C 0.0051 0.81294 0.64107 0.0
C1811 C 0.02009 0.82365 0.63546 0.0
C1812 C 0.0367 0.81946 0.64034 0.0
H1813 H 0.05257 0.9265 0.59735 0.0
H1814 H 0.04464 0.90177 0.61659 0.0
C1815 C 0.03836 0.80497 0.65061 0.0
C1816 C 0.01871 0.83925 0.62455 0.0
H1817 H 0.02753 0.85538 0.58227 0.0
C1818 C 0.01414 0.85464 0.6337 0.0
C1819 C 0.02307 0.83945 0.60555 0.0
C1820 C 0.02741 0.82318 0.59466 0.0
C1821 C 0.01465 0.87039 0.62467 0.0
C1822 C 0.01988 0.87081 0.60603 0.0
C1823 C 0.02364 0.85517 0.5966 0.0
C1824 C 0.02245 0.88747 0.59627 0.0
C1825 C 0.00969 0.88652 0.63511 0.0
C1826 C 0.01242 0.88798 0.57862 0.0
C1827 C 0.01684 0.90222 0.56773 0.0
C1828 C 0.03145 0.91621 0.5742 0.0
C1829 C 0.04099 0.91614 0.59225 0.0
C1830 C 0.03648 0.90196 0.60323 0.0
H1831 H 1.0025 0.88298 0.64747 0.0
H1832 H 0.02187 0.89663 0.64063 0.0
H1833 H 1.00131 0.89278 0.62519 0.0
H1834 H 1.00164 0.87693 0.57285 0.0
H1835 H 0.00951 0.90175 0.5537 0.0
H1836 H 0.46882 0.76143 0.84366 0.0
H1837 H 0.43821 0.76175 0.83251 0.0
H1838 H 0.45498 0.81011 0.80712 0.0
H1839 H 0.48608 0.80963 0.81805 0.0
H1840 H 0.41819 0.7843 0.84186 0.0
H1841 H 0.4202 0.78284 0.76336 0.0
H1842 H 0.43832 0.77879 0.77935 0.0
H1843 H 0.43535 0.80134 0.77745 0.0
C1844 C 0.46618 0.77211 0.8355 0.0
C1845 C 0.48024 0.78547 0.83177 0.0
C1846 C 0.44845 0.77229 0.82914 0.0
C1847 C 0.44387 0.78583 0.81871 0.0
C1848 C 0.45787 0.79919 0.81471 0.0
H1849 H 0.33734 0.8051 0.77951 0.0
H1850 H 0.36913 0.80813 0.7882 0.0
C1851 C 0.47578 0.79896 0.82106 0.0
C1852 C 0.42446 0.78603 0.81297 0.0
H1853 H 0.39315 0.78602 0.77467 0.0
C1854 C 0.41283 0.78464 0.82711 0.0
C1855 C 0.41707 0.78658 0.79377 0.0
C1856 C 0.42831 0.78731 0.77755 0.0
C1857 C 0.39443 0.78371 0.82271 0.0
C1858 C 0.38702 0.78392 0.80351 0.0
C1859 C 0.39863 0.78575 0.7894 0.0
C1860 C 0.36731 0.78198 0.79787 0.0
C1861 C 0.38304 0.78272 0.8388 0.0
C1862 C 0.35529 0.76624 0.80007 0.0
C1863 C 0.33693 0.76442 0.79476 0.0
C1864 C 0.32985 0.77837 0.78726 0.0
C1865 C 0.34196 0.79411 0.7852 0.0
C1866 C 0.36034 0.79583 0.79017 0.0
H1867 H 0.39101 0.78715 0.85307 0.0
H1868 H 0.37295 0.79115 0.83692 0.0
H1869 H 0.37602 0.76865 0.83868 0.0
H1870 H 0.36012 0.75521 0.80579 0.0
H1871 H 0.32823 0.75206 0.79673 0.0
H1872 H 0.5473 0.20366 0.14755 0.0
H1873 H 0.54659 0.17442 0.12951 0.0
H1874 H 0.48967 0.16337 0.12335 0.0
H1875 H 0.49035 0.19265 0.14203 0.0
H1876 H 0.53001 0.13818 0.13676 0.0
H1877 H 0.50358 0.15651 0.0668 0.0
H1878 H 0.51347 0.17313 0.08691 0.0
H1879 H 0.49153 0.16039 0.08678 0.0
C1880 C 0.53459 0.19499 0.14247 0.0
C1881 C 0.51889 0.2006 0.14626 0.0
C1882 C 0.53421 0.1782 0.13213 0.0
C1883 C 0.5181 0.16661 0.12477 0.0
C1884 C 0.50231 0.17204 0.12869 0.0
H1885 H 0.49742 0.06087 0.05356 0.0
H1886 H 0.4944 0.0885 0.073 0.0
C1887 C 0.5027 0.18876 0.13949 0.0
C1888 C 0.51809 0.14906 0.11291 0.0
H1889 H 0.50876 0.12711 0.06699 0.0
C1890 C 0.52528 0.13577 0.12153 0.0
C1891 C 0.51203 0.14576 0.09295 0.0
C1892 C 0.50481 0.15969 0.08266 0.0
C1893 C 0.5265 0.11946 0.11086 0.0
C1894 C 0.52067 0.11628 0.09086 0.0
C1895 C 0.51326 0.12944 0.08227 0.0
C1896 C 0.52247 0.09952 0.07867 0.0
C1897 C 0.5339 0.1056 0.12109 0.0
C1898 C 0.53922 0.09646 0.07501 0.0
C1899 C 0.54092 0.08086 0.06352 0.0
C1900 C 0.52594 0.06771 0.05574 0.0
C1901 C 0.5092 0.07069 0.05947 0.0
C1902 C 0.50748 0.08652 0.07056 0.0
H1903 H 0.53443 0.10836 0.13694 0.0
H1904 H 0.52581 0.09198 0.11623 0.0
H1905 H 0.54752 0.10563 0.11762 0.0
H1906 H 0.55102 0.10623 0.08096 0.0
H1907 H 0.55399 0.07892 0.06098 0.0
H1908 H 0.10909 0.32342 0.35184 0.0
H1909 H 0.13636 0.31927 0.33946 0.0
H1910 H 0.10792 0.27192 0.30291 0.0
H1911 H 0.0802 0.27649 0.31492 0.0
H1912 H 0.15457 0.29493 0.34289 0.0
H1913 H 0.13678 0.2925 0.26445 0.0
H1914 H 0.12271 0.29915 0.28148 0.0
H1915 H 0.12272 0.27578 0.27502 0.0
C1916 C 0.10845 0.31222 0.34093 0.0
C1917 C 0.09214 0.30039 0.33441 0.0
C1918 C 0.12426 0.3098 0.33384 0.0
C1919 C 0.12465 0.29534 0.31995 0.0
C1920 C 0.1083 0.28352 0.31318 0.0
H1921 H 0.21431 0.262 0.26692 0.0
H1922 H 0.18545 0.26452 0.27633 0.0
C1923 C 0.0923 0.2861 0.32016 0.0
C1924 C 0.1423 0.29248 0.3137 0.0
H1925 H 0.16467 0.28616 0.27469 0.0
C1926 C 0.15668 0.29309 0.32791 0.0
C1927 C 0.14547 0.2898 0.2942 0.0
C1928 C 0.13117 0.28942 0.27789 0.0
C1929 C 0.17365 0.29108 0.32341 0.0
C1930 C 0.17699 0.28886 0.30392 0.0
C1931 C 0.16254 0.28795 0.28966 0.0
C1932 C 0.19516 0.28733 0.29807 0.0
C1933 C 0.18763 0.2908 0.33986 0.0
C1934 C 0.21082 0.29934 0.3066 0.0
C1935 C 0.22762 0.2974 0.30166 0.0
C1936 C 0.22951 0.28373 0.28748 0.0
C1937 C 0.21378 0.27234 0.27823 0.0
C1938 C 0.19702 0.27395 0.28355 0.0
H1939 H 0.18163 0.2864 0.35267 0.0
H1940 H 0.19659 0.28172 0.33585 0.0
H1941 H 0.19556 0.30457 0.3441 0.0
H1942 H 0.21014 0.31042 0.31711 0.0
H1943 H 0.23918 0.30683 0.3089 0.0
H1944 H 0.93881 0.03537 0.20806 0.0
H1945 H 0.94987 0.0402 0.17735 0.0
H1946 H 0.96954 0.99115 0.17696 0.0
H1947 H 0.95851 0.98613 0.20767 0.0
H1948 H 0.98612 0.04214 0.1678 0.0
H1949 H 0.93697 0.98628 0.12466 0.0
H1950 H 0.93371 0.99605 0.1481 0.0
H1951 H 0.94832 0.98055 0.14598 0.0
C1952 C 0.94552 0.0256 0.20149 0.0
C1953 C 0.94771 0.01029 0.2103 0.0
C1954 C 0.95184 0.02842 0.18395 0.0
C1955 C 0.96032 0.01593 0.17482 0.0
C1956 C 0.9628 0.00082 0.18369 0.0
H1957 H 0.01874 0.00674 0.08004 0.0
H1958 H 0.006 0.00662 0.1103 0.0
C1959 C 0.95655 0.99801 0.20127 0.0
C1960 C 0.96656 0.01864 0.15597 0.0
H1961 H 0.96078 1.00002 0.10909 0.0
C1962 C 0.98048 0.03306 0.15491 0.0
C1963 C 0.95906 0.00684 0.13918 0.0
C1964 C 0.94358 0.99162 0.13939 0.0
C1965 C 0.98755 0.03554 0.13758 0.0
C1966 C 0.9804 0.02339 0.121 0.0
C1967 C 0.96617 0.0093 0.12191 0.0
C1968 C 0.98837 0.02429 0.10291 0.0
C1969 C 0.0029 0.05079 0.13707 0.0
C1970 C 0.98254 0.03423 0.08876 0.0
C1971 C 0.98972 0.03425 0.07132 0.0
C1972 C 0.0029 0.02442 0.06795 0.0
C1973 C 0.00874 0.0146 0.08229 0.0
C1974 C 1.00148 0.01448 0.09957 0.0
H1975 H 0.00668 0.05939 0.1511 0.0
H1976 H 0.0145 0.04534 0.13313 0.0
H1977 H 0.99946 0.05919 0.12586 0.0
H1978 H 0.97237 0.04185 0.09116 0.0
H1979 H 0.98505 0.04198 0.06053 0.0
H1980 H 0.28287 0.65998 0.50993 0.0
H1981 H 0.28846 0.6798 0.48522 0.0
H1982 H 0.23923 0.65282 0.45174 0.0
H1983 H 0.23331 0.63309 0.47661 0.0
H1984 H 0.29073 0.67061 0.44529 0.0
H1985 H 0.23619 0.70612 0.45832 0.0
H1986 H 0.24427 0.69232 0.47513 0.0
H1987 H 0.22922 0.68217 0.45409 0.0
C1988 C 0.27323 0.65826 0.49728 0.0
C1989 C 0.25763 0.64504 0.49509 0.0
C1990 C 0.27649 0.66954 0.48323 0.0
C1991 C 0.26422 0.66772 0.46685 0.0
C1992 C 0.24871 0.65446 0.46451 0.0
H1993 H 0.24998 0.69783 0.35919 0.0
H1994 H 0.2633 0.68428 0.38558 0.0
C1995 C 0.24534 0.64326 0.47866 0.0
C1996 C 0.26737 0.67995 0.45231 0.0
H1997 H 0.24881 0.71 0.42931 0.0
C1998 C 0.28177 0.67945 0.44188 0.0
C1999 C 0.25579 0.69162 0.44832 0.0
C2000 C 0.2406 0.69325 0.45968 0.0
C2001 C 0.28423 0.68968 0.42659 0.0
C2002 C 0.27201 0.70053 0.42197 0.0
C2003 C 0.25821 0.70168 0.43307 0.0
C2004 C 0.27152 0.70928 0.40444 0.0
C2005 C 0.29949 0.68862 0.41526 0.0
C2006 C 0.27249 0.72786 0.40616 0.0
C2007 C 0.26444 0.73546 0.39142 0.0
C2008 C 0.25561 0.72455 0.37479 0.0
C2009 C 0.25654 0.70635 0.37212 0.0
C2010 C 0.26441 0.6987 0.38698 0.0
H2011 H 0.30953 0.6823 0.42282 0.0
H2012 H 0.29449 0.68051 0.40114 0.0
H2013 H 0.3059 0.70223 0.4125 0.0
H2014 H 0.27785 0.73613 0.41963 0.0
H2015 H 0.26422 0.74964 0.39342 0.0
H2016 H 0.65611 0.04025 0.69482 0.0
H2017 H 0.63953 0.04343 0.66471 0.0
H2018 H 0.5918 0.0145 0.6826 0.0
H2019 H 0.60832 0.01158 0.71333 0.0
H2020 H 0.6218 0.0147 0.63868 0.0
H2021 H 0.57767 0.05949 0.66301 0.0
H2022 H 0.59735 0.05705 0.6777 0.0
H2023 H 0.57749 0.04016 0.67559 0.0
C2024 C 0.64206 0.0346 0.69245 0.0
C2025 C 0.63344 0.02549 0.70627 0.0
C2026 C 0.63266 0.03652 0.6753 0.0
C2027 C 0.61457 0.02929 0.6717 0.0
C2028 C 0.60578 0.02038 0.68547 0.0
H2029 H 0.55231 0.99873 0.56307 0.0
H2030 H 0.57136 1.00044 0.59329 0.0
C2031 C 0.61519 0.01862 0.70284 0.0
C2032 C 0.60525 0.03011 0.65291 0.0
H2033 H 0.57151 0.04588 0.63065 0.0
C2034 C 0.61088 0.02163 0.63682 0.0
C2035 C 0.59135 0.03948 0.65078 0.0
C2036 C 0.58568 0.04972 0.66765 0.0
C2037 C 0.60259 0.02192 0.61841 0.0
C2038 C 0.58804 0.03046 0.61637 0.0
C2039 C 0.58269 0.03931 0.63243 0.0
C2040 C 0.57747 0.02953 0.59784 0.0
C2041 C 0.60954 0.01316 0.60144 0.0
C2042 C 0.57418 0.04533 0.59102 0.0
C2043 C 0.56272 0.0443 0.57432 0.0
C2044 C 0.55506 0.02752 0.5642 0.0
C2045 C 0.55853 0.01176 0.57076 0.0
C2046 C 0.56947 0.01275 0.58778 0.0
H2047 H 0.62378 0.01287 0.60476 0.0
H2048 H 0.60225 0.99906 0.5979 0.0
H2049 H 0.60781 0.02023 0.58858 0.0
H2050 H 0.58022 0.05836 0.59878 0.0
H2051 H 0.56001 0.05651 0.56916 0.0
H2052 H 0.26514 0.34343 0.98375 0.0
H2053 H 0.26019 0.32534 0.95206 0.0
H2054 H 0.3073 0.35741 0.93645 0.0
H2055 H 0.31246 0.3752 0.9678 0.0
H2056 H 0.25564 0.33646 0.91505 0.0
H2057 H 0.31502 0.30658 0.92397 0.0
H2058 H 0.3066 0.31728 0.94403 0.0
H2059 H 0.32025 0.33054 0.9294 0.0
C2060 C 0.27451 0.3465 0.9736 0.0
C2061 C 0.28925 0.36074 0.97839 0.0
C2062 C 0.27164 0.33619 0.95549 0.0
C2063 C 0.28353 0.33983 0.94197 0.0
C2064 C 0.29815 0.35407 0.94675 0.0
H2065 H 0.30137 0.31175 0.82641 0.0
H2066 H 0.30131 0.32368 0.85982 0.0
C2067 C 0.30102 0.36432 0.96473 0.0
C2068 C 0.28072 0.32926 0.9226 0.0
H2069 H 0.30187 0.30617 0.89159 0.0
C2070 C 0.26559 0.32958 0.90996 0.0
C2071 C 0.29367 0.32022 0.916 0.0
C2072 C 0.30971 0.31845 0.92913 0.0
C2073 C 0.26359 0.32203 0.8906 0.0
C2074 C 0.27698 0.3137 0.8838 0.0
C2075 C 0.29171 0.31273 0.8967 0.0
C2076 C 0.2765 0.30658 0.86326 0.0
C2077 C 0.24757 0.32376 0.87742 0.0
C2078 C 0.26262 0.2929 0.85399 0.0
C2079 C 0.26266 0.28602 0.83482 0.0
C2080 C 0.27672 0.29249 0.82461 0.0
C2081 C 0.29053 0.30622 0.83391 0.0
C2082 C 0.29045 0.31313 0.85302 0.0
H2083 H 0.24089 0.33423 0.88359 0.0
H2084 H 0.25122 0.32708 0.8632 0.0
H2085 H 0.23793 0.3108 0.87517 0.0
H2086 H 0.25188 0.28734 0.86165 0.0
H2087 H 0.25182 0.27541 0.8281 0.0
H2088 H 0.96191 0.98726 0.30871 0.0
H2089 H 0.97572 0.99159 0.3421 0.0
H2090 H 0.95865 0.04185 0.35148 0.0
H2091 H 0.94485 0.03771 0.31805 0.0
H2092 H 1.00232 0.02348 0.36274 0.0
H2093 H 0.93827 0.00986 0.39299 0.0
H2094 H 0.94007 0.00293 0.36814 0.0
H2095 H 0.94085 0.02609 0.37615 0.0
C2096 C 0.9612 0.99931 0.31782 0.0
C2097 C 0.95225 0.01211 0.31073 0.0
C2098 C 0.9691 0.00176 0.33688 0.0
C2099 C 0.96804 0.01694 0.34925 0.0
C2100 C 0.95947 0.02996 0.34216 0.0
H2101 H 0.99492 0.04016 0.47311 0.0
H2102 H 0.98474 0.04115 0.43947 0.0
C2103 C 0.95168 0.0276 0.32304 0.0
C2104 C 0.97563 0.01887 0.36967 0.0
H2105 H 0.96424 0.01619 0.41489 0.0
C2106 C 0.99405 0.02194 0.3742 0.0
C2107 C 0.96476 0.01705 0.38452 0.0
C2108 C 0.94487 0.0137 0.38033 0.0
C2109 C 1.00194 0.02323 0.39328 0.0
C2110 C 0.99106 0.02074 0.40813 0.0
C2111 C 0.97261 0.01797 0.40354 0.0
C2112 C 0.99843 0.02089 0.4285 0.0
C2113 C 0.02184 0.02763 0.39731 0.0
C2114 C 0.00967 0.00927 0.43367 0.0
C2115 C 0.01586 0.00895 0.453 0.0
C2116 C 0.0105 0.01989 0.46755 0.0
C2117 C 0.9993 0.03154 0.4623 0.0
C2118 C 0.99341 0.03208 0.44303 0.0
H2119 H 0.02784 0.03482 0.3859 0.0
H2120 H 0.02637 0.03605 0.41135 0.0
H2121 H 0.02683 0.01499 0.39766 0.0
H2122 H 0.01338 1.00014 0.42281 0.0
H2123 H 0.02443 0.99982 0.45652 0.0
H2124 H 0.29381 0.68352 0.57973 0.0
H2125 H 0.29133 0.70211 0.60932 0.0
H2126 H 0.25222 0.65931 0.62426 0.0
H2127 H 0.25496 0.64054 0.59533 0.0
H2128 H 0.26114 0.71271 0.6216 0.0
H2129 H 0.28985 0.67032 0.67098 0.0
H2130 H 0.29126 0.66783 0.64551 0.0
H2131 H 0.27106 0.65867 0.65451 0.0
C2132 C 0.28477 0.67812 0.5894 0.0
C2133 C 0.27477 0.66061 0.58545 0.0
C2134 C 0.28332 0.68869 0.60614 0.0
C2135 C 0.27179 0.68182 0.61886 0.0
C2136 C 0.26144 0.66456 0.61469 0.0
H2137 H 0.24573 0.74515 0.71708 0.0
H2138 H 0.24323 0.72663 0.68608 0.0
C2139 C 0.26304 0.65393 0.59816 0.0
C2140 C 0.27075 0.69266 0.63671 0.0
H2141 H 0.27901 0.69462 0.6852 0.0
C2142 C 0.26505 0.70886 0.63556 0.0
C2143 C 0.27581 0.68729 0.65468 0.0
C2144 C 0.28248 0.67015 0.65656 0.0
C2145 C 0.26471 0.72026 0.65216 0.0
C2146 C 0.26993 0.71495 0.67009 0.0
C2147 C 0.2751 0.6985 0.67125 0.0
C2148 C 0.27127 0.72672 0.68791 0.0
C2149 C 0.25939 0.73807 0.65041 0.0
C2150 C 0.2878 0.73241 0.69902 0.0
C2151 C 0.28912 0.74235 0.71681 0.0
C2152 C 0.27397 0.74692 0.72326 0.0
C2153 C 0.25752 0.74177 0.71195 0.0
C2154 C 0.25611 0.73136 0.69438 0.0
H2155 H 0.25887 0.74143 0.63542 0.0
H2156 H 0.24606 0.73755 0.65496 0.0
H2157 H 0.26877 0.74899 0.65989 0.0
H2158 H 0.29958 0.72885 0.69405 0.0
H2159 H 0.30188 0.74649 0.7255 0.0
H2160 H 0.65385 0.00881 0.79789 0.0
H2161 H 0.63594 0.00337 0.82408 0.0
H2162 H 0.61938 0.05369 0.81975 0.0
H2163 H 0.63727 0.05938 0.79364 0.0
H2164 H 0.63941 0.03086 0.8598 0.0
H2165 H 0.57309 0.01163 0.81704 0.0
H2166 H 0.5932 0.00886 0.80729 0.0
H2167 H 0.58763 0.03061 0.81029 0.0
C2168 C 0.64636 0.0187 0.80249 0.0
C2169 C 0.64684 0.03448 0.79372 0.0
C2170 C 0.63615 0.01552 0.81734 0.0
C2171 C 0.62622 0.02798 0.82338 0.0
C2172 C 0.62679 0.04382 0.81486 0.0
H2173 H 0.56653 0.0687 0.89695 0.0
H2174 H 0.5783 0.05431 0.87023 0.0
C2175 C 0.63707 0.04708 0.80009 0.0
C2176 C 0.61594 0.02518 0.83942 0.0
H2177 H 0.57397 0.02187 0.85048 0.0
C2178 C 0.62507 0.02845 0.85796 0.0
C2179 C 0.59734 0.02188 0.83659 0.0
C2180 C 0.58717 0.01789 0.81672 0.0
C2181 C 0.61608 0.0304 0.87397 0.0
C2182 C 0.59743 0.02842 0.87113 0.0
C2183 C 0.58824 0.02343 0.85257 0.0
C2184 C 0.58777 0.03469 0.88649 0.0
C2185 C 0.62683 0.03614 0.89348 0.0
C2186 C 0.58862 0.028 0.90424 0.0
C2187 C 0.58264 0.03673 0.91978 0.0
C2188 C 0.57506 0.05189 0.9176 0.0
C2189 C 0.57279 0.05747 0.8993 0.0
C2190 C 0.57923 0.04905 0.88393 0.0
H2191 H 0.6412 0.04013 0.89248 0.0
H2192 H 0.6225 0.04762 0.90116 0.0
H2193 H 0.62497 0.02481 0.90223 0.0
H2194 H 0.59474 0.01663 0.90634 0.0
H2195 H 0.58477 0.03205 0.93365 0.0
H2196 H 0.3041 0.33409 0.07644 0.0
H2197 H 0.3012 0.32295 0.10761 0.0
H2198 H 0.26648 0.35911 0.12048 0.0
H2199 H 0.26931 0.37038 0.08944 0.0
H2200 H 0.30931 0.34459 0.14547 0.0
H2201 H 0.23928 0.30831 0.12934 0.0
H2202 H 0.25288 0.3143 0.11076 0.0
H2203 H 0.24374 0.33104 0.12371 0.0
C2204 C 0.29576 0.3396 0.08585 0.0
C2205 C 0.28689 0.35309 0.08042 0.0
C2206 C 0.29417 0.33325 0.10366 0.0
C2207 C 0.2835 0.34009 0.11624 0.0
C2208 C 0.27461 0.35351 0.11087 0.0
H2209 H 0.26193 0.31867 0.23234 0.0
H2210 H 0.26327 0.33157 0.20177 0.0
C2211 C 0.2763 0.35997 0.09315 0.0
C2212 C 0.28196 0.33348 0.13517 0.0
H2213 H 0.2528 0.31023 0.16134 0.0
C2214 C 0.29697 0.33708 0.14895 0.0
C2215 C 0.26582 0.32372 0.13965 0.0
C2216 C 0.2495 0.31895 0.12508 0.0
C2217 C 0.29623 0.33124 0.16716 0.0
C2218 C 0.28013 0.32141 0.17159 0.0
C2219 C 0.26508 0.31792 0.1579 0.0
C2220 C 0.27903 0.3137 0.18996 0.0
C2221 C 0.31264 0.33562 0.18162 0.0
C2222 C 0.28727 0.29932 0.19323 0.0
C2223 C 0.28642 0.2919 0.21046 0.0
C2224 C 0.27736 0.29876 0.22485 0.0
C2225 C 0.26906 0.31318 0.22155 0.0
C2226 C 0.26977 0.3205 0.20413 0.0
H2227 H 0.3229 0.3463 0.17751 0.0
H2228 H 0.3094 0.34 0.19609 0.0
H2229 H 0.31828 0.3234 0.1826 0.0
H2230 H 0.29437 0.29381 0.1824 0.0
H2231 H 0.29303 0.28085 0.21256 0.0
H2232 H 0.24893 0.96812 0.98068 0.0
H2233 H 0.22325 0.98248 0.98084 0.0
H2234 H 0.19531 0.93835 0.00649 0.0
H2235 H 0.22076 0.92384 0.00626 0.0
H2236 H 0.1804 0.95945 0.96713 0.0
H2237 H 0.20471 0.99388 0.04116 0.0
H2238 H 0.21953 0.98851 0.0243 0.0
H2239 H 0.20762 0.97115 0.03606 0.0
C2240 C 0.23718 0.96144 0.98611 0.0
C2241 C 0.2366 0.94497 0.99345 0.0
C2242 C 0.22265 0.96958 0.98611 0.0
C2243 C 0.20769 0.96129 0.99361 0.0
C2244 C 0.2069 0.94467 0.0005 0.0
H2245 H 0.11639 0.96389 0.03782 0.0
H2246 H 0.13925 0.95631 0.01886 0.0
C2247 C 0.22131 0.93645 0.00033 0.0
C2248 C 0.19308 0.97031 0.9956 0.0
H2249 H 0.17413 0.99081 0.03038 0.0
C2250 C 0.17906 0.96678 0.98071 0.0
C2251 C 0.19177 0.97977 0.01339 0.0
C2252 C 0.20674 0.98369 0.02967 0.0
C2253 C 0.16294 0.97143 0.98376 0.0
C2254 C 0.16123 0.97962 0.00204 0.0
C2255 C 0.17571 0.98437 0.0164 0.0
C2256 C 0.14423 0.98186 0.00761 0.0
C2257 C 0.14758 0.9667 0.96804 0.0
C2258 C 0.13947 0.99847 0.00693 0.0
C2259 C 0.12676 0.00292 0.01792 0.0
C2260 C 0.11872 0.99073 0.02967 0.0
C2261 C 0.12257 0.97353 0.02907 0.0
C2262 C 0.13533 0.96911 0.01806 0.0
H2263 H 0.15156 0.96175 0.95413 0.0
H2264 H 0.13724 0.95614 0.97219 0.0
H2265 H 0.14164 0.97863 0.96617 0.0
H2266 H 0.1466 0.00849 -0.0008 0.0
H2267 H 0.12423 0.01638 0.01828 0.0
H2268 H 0.71442 0.61424 0.98861 0.0
H2269 H 0.68544 0.59412 0.98664 0.0
H2270 H 0.66904 0.63193 0.02703 0.0
H2271 H 0.69759 0.65215 0.02875 0.0
H2272 H 0.669 0.57798 0.01517 0.0
H2273 H 0.62876 0.62286 0.98365 0.0
H2274 H 0.65249 0.62673 0.9842 0.0
H2275 H 0.64276 0.6335 0.00513 0.0
C2276 C 0.70457 0.61831 0.99694 0.0
C2277 C 0.70827 0.63488 0.0087 0.0
C2278 C 0.68805 0.6068 0.99583 0.0
C2279 C 0.67496 0.61168 0.00642 0.0
C2280 C 0.67875 0.62809 0.01833 0.0
H2281 H 0.58403 0.5466 0.04325 0.0
H2282 H 0.61342 0.56338 0.03964 0.0
C2283 C 0.69515 0.63961 0.01936 0.0
C2284 C 0.65747 0.59953 0.00554 0.0
H2285 H 0.61313 0.59834 0.99765 0.0
C2286 C 0.65677 0.58233 0.01113 0.0
C2287 C 0.64153 0.60512 0.0 0.0
C2288 C 0.64138 0.62299 0.99272 0.0
C2289 C 0.64053 0.57082 0.012 0.0
C2290 C 0.62459 0.57682 0.00752 0.0
C2291 C 0.62533 0.59378 0.00127 0.0
C2292 C 0.60701 0.56597 0.00953 0.0
C2293 C 0.64061 0.5523 0.01762 0.0
C2294 C 0.59342 0.56233 0.99402 0.0
C2295 C 0.57649 0.55323 0.99627 0.0
C2296 C 0.57299 0.54735 0.01394 0.0
C2297 C 0.58659 0.5507 0.02937 0.0
C2298 C 0.60339 0.56019 0.02727 0.0
H2299 H 0.65308 0.54791 0.01492 0.0
H2300 H 0.63956 0.55247 0.03321 0.0
H2301 H 0.62929 0.5423 0.00962 0.0
H2302 H 0.59588 0.56672 0.98023 0.0
H2303 H 0.56615 0.55075 0.9842 0.0
H2304 H 0.65202 0.47985 0.31514 0.0
H2305 H 0.66833 0.45549 0.31284 0.0
H2306 H 0.67963 0.46717 0.25625 0.0
H2307 H 0.66406 0.49209 0.25887 0.0
H2308 H 0.66319 0.4256 0.28923 0.0
H2309 H 0.72808 0.46672 0.28092 0.0
H2310 H 0.70991 0.47666 0.28751 0.0
H2311 H 0.7113 0.46945 0.26268 0.0
C2312 C 0.65806 0.47725 0.30225 0.0
C2313 C 0.65695 0.48794 0.28726 0.0
C2314 C 0.66737 0.46335 0.30096 0.0
C2315 C 0.67555 0.45979 0.28458 0.0
C2316 C 0.67395 0.47009 0.26932 0.0
H2317 H 0.71045 0.37124 0.23226 0.0
H2318 H 0.69382 0.39334 0.24435 0.0
C2319 C 0.66495 0.48423 0.27075 0.0
C2320 C 0.68536 0.44501 0.2832 0.0
H2321 H 0.72432 0.43493 0.27193 0.0
C2322 C 0.67663 0.42769 0.28569 0.0
C2323 C 0.70305 0.4478 0.279 0.0
C2324 C 0.71367 0.46621 0.27759 0.0
C2325 C 0.68482 0.41295 0.28302 0.0
C2326 C 0.70197 0.41565 0.27751 0.0
C2327 C 0.71104 0.433 0.27597 0.0
C2328 C 0.71031 0.40059 0.27172 0.0
C2329 C 0.6751 0.39454 0.28577 0.0
C2330 C 0.72487 0.39735 0.2833 0.0
C2331 C 0.73428 0.38471 0.27649 0.0
C2332 C 0.72943 0.37549 0.25789 0.0
C2333 C 0.71453 0.3784 0.24655 0.0
C2334 C 0.70497 0.39083 0.25348 0.0
H2335 H 0.66323 0.39511 0.29318 0.0
H2336 H 0.67083 0.38641 0.27154 0.0
H2337 H 0.68399 0.38759 0.29425 0.0
H2338 H 0.7292 0.40494 0.29735 0.0
H2339 H 0.74575 0.38264 0.28545 0.0
H2340 H 0.84889 0.42273 0.4971 0.0
H2341 H 0.87939 0.43881 0.498 0.0
H2342 H 0.86437 0.48844 0.51735 0.0
H2343 H 0.83379 0.47259 0.51648 0.0
H2344 H 0.89131 0.47823 0.48049 0.0
H2345 H 0.90454 0.47008 0.55821 0.0
H2346 H 0.88845 0.45385 0.54186 0.0
H2347 H 0.88381 0.47542 0.54911 0.0
C2348 C 0.8521 0.43706 0.50156 0.0
C2349 C 0.83919 0.44647 0.50695 0.0
C2350 C 0.86936 0.44616 0.50183 0.0
C2351 C 0.87371 0.46461 0.50763 0.0
C2352 C 0.86089 0.47414 0.5127 0.0
H2353 H 0.97536 0.53667 0.52128 0.0
H2354 H 0.94347 0.52494 0.51979 0.0
C2355 C 0.8436 0.46509 0.51233 0.0
C2356 C 0.89203 0.47364 0.51018 0.0
H2357 H 0.92808 0.4852 0.54383 0.0
C2358 C 0.89941 0.47998 0.4943 0.0
C2359 C 0.90219 0.47548 0.52826 0.0
C2360 C 0.89447 0.46834 0.54541 0.0
C2361 C 0.9172 0.48824 0.49614 0.0
C2362 C 0.92732 0.49009 0.51426 0.0
C2363 C 0.9199 0.48383 0.53012 0.0
C2364 C 0.9461 0.49719 0.51667 0.0
C2365 C 0.9253 0.49438 0.47875 0.0
C2366 C 0.95758 0.48521 0.51611 0.0
C2367 C 0.97555 0.49176 0.51724 0.0
C2368 C 0.98196 0.51031 0.51872 0.0
C2369 C 0.97047 0.52231 0.52008 0.0
C2370 C 0.95246 0.51572 0.51915 0.0
H2371 H 0.91543 0.49205 0.4657 0.0
H2372 H 0.93132 0.5089 0.48158 0.0
H2373 H 0.93603 0.4871 0.47588 0.0
H2374 H 0.95257 0.47084 0.5142 0.0
H2375 H 0.98426 0.48231 0.51594 0.0
H2376 H 0.33441 0.05037 0.27664 0.0
H2377 H 0.32069 0.0765 0.27693 0.0
H2378 H 0.36314 0.10626 0.31903 0.0
H2379 H 0.37729 0.08027 0.31845 0.0
H2380 H 0.3094 0.09695 0.30679 0.0
H2381 H 0.36413 0.13508 0.27294 0.0
H2382 H 0.36114 0.11127 0.27399 0.0
H2383 H 0.37086 0.12676 0.29488 0.0
C2384 C 0.34076 0.06246 0.28605 0.0
C2385 C 0.35692 0.06351 0.29743 0.0
C2386 C 0.33287 0.07725 0.28627 0.0
C2387 C 0.34102 0.09312 0.29798 0.0
C2388 C 0.35686 0.09405 0.30983 0.0
H2389 H 0.31596 0.19552 0.28088 0.0
H2390 H 0.32265 0.17286 0.30126 0.0
C2391 C 0.3649 0.0793 0.30942 0.0
C2392 C 0.33353 0.10907 0.29653 0.0
H2393 H 0.34084 0.14926 0.27915 0.0
C2394 C 0.31632 0.1086 0.3011 0.0
C2395 C 0.34266 0.1239 0.28876 0.0
C2396 C 0.36064 0.12431 0.28218 0.0
C2397 C 0.30768 0.12259 0.2975 0.0
C2398 C 0.31672 0.13727 0.2895 0.0
C2399 C 0.33421 0.13806 0.28577 0.0
C2400 C 0.30771 0.15042 0.28142 0.0
C2401 C 0.2888 0.12126 0.30145 0.0
C2402 C 0.2968 0.14509 0.26389 0.0
C2403 C 0.29345 0.15788 0.25209 0.0
C2404 C 0.30086 0.176 0.25792 0.0
C2405 C 0.31038 0.18148 0.2762 0.0
C2406 C 0.31392 0.16866 0.2879 0.0
H2407 H 0.28531 0.11166 0.31195 0.0
H2408 H 0.28645 0.13459 0.30699 0.0
H2409 H 0.27987 0.11643 0.28785 0.0
H2410 H 0.29223 0.131 0.25857 0.0
H2411 H 0.28581 0.15361 0.2381 0.0
H2412 H 0.33271 0.16121 0.53125 0.0
H2413 H 0.35676 0.14475 0.52989 0.0
H2414 H 0.32184 0.10102 0.49338 0.0
H2415 H 0.29753 0.11731 0.49481 0.0
H2416 H 0.35208 0.10519 0.54004 0.0
H2417 H 0.37092 0.11753 0.46761 0.0
H2418 H 0.36097 0.1331 0.48166 0.0
H2419 H 0.34784 0.11195 0.47083 0.0
C2420 C 0.33014 0.14812 0.52287 0.0
C2421 C 0.31322 0.14052 0.51319 0.0
C2422 C 0.34389 0.13878 0.52208 0.0
C2423 C 0.34105 0.12183 0.51137 0.0
C2424 C 0.32425 0.1142 0.50157 0.0
H2425 H 0.4119 0.04587 0.51369 0.0
H2426 H 0.38767 0.06036 0.50238 0.0
C2427 C 0.31039 0.12345 0.50253 0.0
C2428 C 0.35548 0.11175 0.51153 0.0
H2429 H 0.38782 0.10096 0.48588 0.0
C2430 C 0.35979 0.1041 0.52815 0.0
C2431 C 0.36543 0.11044 0.49595 0.0
C2432 C 0.36121 0.1187 0.47794 0.0
C2433 C 0.37405 0.09533 0.52975 0.0
C2434 C 0.38433 0.0944 0.5144 0.0
C2435 C 0.37983 0.10172 0.49756 0.0
C2436 C 0.40038 0.08673 0.5165 0.0
C2437 C 0.37833 0.08741 0.548 0.0
C2438 C 0.41574 0.09699 0.5274 0.0
C2439 C 0.42944 0.08878 0.53386 0.0
C2440 C 0.42801 0.07024 0.52937 0.0
C2441 C 0.41333 0.06024 0.51705 0.0
C2442 C 0.39952 0.06847 0.51065 0.0
H2443 H 0.36786 0.08742 0.55762 0.0
H2444 H 0.38008 0.07342 0.54459 0.0
H2445 H 0.39096 0.09531 0.55589 0.0
H2446 H 0.41652 0.11107 0.53213 0.0
H2447 H 0.44058 0.09665 0.54353 0.0
H2448 H 0.65237 0.608 0.30886 0.0
H2449 H 0.67158 0.63678 0.30603 0.0
H2450 H 0.70084 0.6098 0.26791 0.0
H2451 H 0.6819 0.58093 0.27085 0.0
H2452 H 0.71349 0.64415 0.31256 0.0
H2453 H 0.68089 0.65246 0.24077 0.0
H2454 H 0.6694 0.63932 0.25726 0.0
H2455 H 0.6854 0.63071 0.24449 0.0
C2456 C 0.66295 0.60819 0.29996 0.0
C2457 C 0.66567 0.59222 0.29012 0.0
C2458 C 0.67388 0.6246 0.29836 0.0
C2459 C 0.68749 0.62532 0.28669 0.0
C2460 C 0.69033 0.60943 0.27694 0.0
H2461 H 0.76197 0.71365 0.25318 0.0
H2462 H 0.7448 0.68393 0.25658 0.0
C2463 C 0.67957 0.59298 0.27872 0.0
C2464 C 0.69878 0.64269 0.28468 0.0
H2465 H 0.70616 0.67427 0.25392 0.0
C2466 C 0.71194 0.65078 0.29977 0.0
C2467 C 0.69661 0.65117 0.26795 0.0
C2468 C 0.68227 0.64311 0.25165 0.0
C2469 C 0.72318 0.66718 0.29848 0.0
C2470 C 0.72099 0.67573 0.28177 0.0
C2471 C 0.70785 0.66758 0.26665 0.0
C2472 C 0.73177 0.69349 0.28004 0.0
C2473 C 0.73744 0.67517 0.31489 0.0
C2474 C 0.72998 0.70862 0.29202 0.0
C2475 C 0.73968 0.72552 0.2901 0.0
C2476 C 0.75138 0.72763 0.27614 0.0
C2477 C 0.7532 0.71243 0.26418 0.0
C2478 C 0.74337 0.69549 0.26604 0.0
H2479 H 0.73998 0.66511 0.3246 0.0
H2480 H 0.74997 0.68082 0.30943 0.0
H2481 H 0.73325 0.68624 0.32345 0.0
H2482 H 0.72089 0.70737 0.30271 0.0
H2483 H 0.73793 0.73694 0.29954 0.0
H2484 H 0.84049 0.46933 0.80489 0.0
H2485 H 0.82845 0.43839 0.80894 0.0
H2486 H 0.84869 0.42011 0.75744 0.0
H2487 H 0.861 0.45117 0.75315 0.0
H2488 H 0.80389 0.41738 0.77415 0.0
H2489 H 0.85968 0.38695 0.80219 0.0
H2490 H 0.85982 0.41066 0.80702 0.0
H2491 H 0.86336 0.4014 0.78371 0.0
C2492 C 0.84249 0.45875 0.79444 0.0
C2493 C 0.85139 0.46256 0.77848 0.0
C2494 C 0.83583 0.44118 0.79697 0.0
C2495 C 0.83805 0.42733 0.78364 0.0
C2496 C 0.84727 0.43091 0.76797 0.0
H2497 H 0.80482 0.31681 0.75557 0.0
H2498 H 0.81755 0.34851 0.75845 0.0
C2499 C 0.85397 0.44854 0.76539 0.0
C2500 C 0.82806 0.40944 0.78418 0.0
H2501 H 0.83229 0.36723 0.79116 0.0
C2502 C 0.80993 0.40633 0.77801 0.0
C2503 C 0.83633 0.39549 0.78929 0.0
C2504 C 0.85587 0.3987 0.79605 0.0
C2505 C 0.79976 0.38905 0.77568 0.0
C2506 C 0.80806 0.37489 0.78035 0.0
C2507 C 0.8261 0.37824 0.78751 0.0
C2508 C 0.79869 0.35629 0.77657 0.0
C2509 C 0.78059 0.38609 0.7673 0.0
C2510 C 0.78345 0.35044 0.78507 0.0
C2511 C 0.77545 0.33241 0.78227 0.0
C2512 C 0.78321 0.32005 0.77179 0.0
C2513 C 0.79825 0.32607 0.76306 0.0
C2514 C 0.80576 0.34412 0.76511 0.0
H2515 H 0.77774 0.39756 0.75987 0.0
H2516 H 0.77676 0.3737 0.7569 0.0
H2517 H 0.77216 0.38468 0.77906 0.0
H2518 H 0.77812 0.35967 0.79434 0.0
H2519 H 0.76391 0.32808 0.78931 0.0
H2520 H 0.04354 0.82411 0.04411 0.0
H2521 H 0.03987 0.85346 0.0353 0.0
H2522 H 0.04481 0.87401 0.09514 0.0
H2523 H 0.04847 0.84457 0.10413 0.0
H2524 H 0.01322 0.87379 0.04486 0.0
H2525 H 0.08082 0.91168 0.07296 0.0
H2526 H 0.07563 0.8875 0.06808 0.0
H2527 H 0.06937 0.89846 0.08925 0.0
C2528 C 0.04394 0.83483 0.0555 0.0
C2529 C 0.04639 0.83172 0.07493 0.0
C2530 C 0.04178 0.85172 0.05038 0.0
C2531 C 0.04216 0.86623 0.06445 0.0
C2532 C 0.04469 0.86325 0.08388 0.0
H2533 H 0.03972 0.98042 0.06065 0.0
H2534 H 0.04213 0.95084 0.06947 0.0
C2535 C 0.04677 0.8463 0.08904 0.0
C2536 C 0.03965 0.88427 0.05874 0.0
H2537 H 0.06054 0.92829 0.06082 0.0
C2538 C 0.02359 0.8857 0.04835 0.0
C2539 C 0.05304 0.9 0.06324 0.0
C2540 C 0.07077 0.89945 0.07387 0.0
C2541 C 0.0204 0.90227 0.04284 0.0
C2542 C 0.03392 0.91805 0.0471 0.0
C2543 C 0.05003 0.91649 0.05742 0.0
C2544 C 0.03169 0.93629 0.04144 0.0
C2545 C 1.00225 0.90267 0.03314 0.0
C2546 C 0.02503 0.93858 0.02261 0.0
C2547 C 0.02332 0.95566 0.01758 0.0
C2548 C 0.02865 0.97119 0.03104 0.0
C2549 C 0.03551 0.96894 0.04976 0.0
C2550 C 0.03694 0.95186 0.05486 0.0
H2551 H 0.9921 0.89163 0.0368 0.0
H2552 H 0.99831 0.91559 0.03725 0.0
H2553 H 1.00226 0.90078 0.01733 0.0
H2554 H 0.02139 0.92719 0.01158 0.0
H2555 H 0.01812 0.95672 0.00298 0.0
H2556 H 0.96366 0.26774 0.87837 0.0
H2557 H 0.93796 0.27039 0.85616 0.0
H2558 H 0.90308 0.24685 0.89459 0.0
H2559 H 0.9285 0.24431 0.9168 0.0
H2560 H 0.90875 0.24479 0.83674 0.0
H2561 H 0.88611 0.29328 0.88732 0.0
H2562 H 0.90783 0.28807 0.891 0.0
H2563 H 0.88899 0.27317 0.89727 0.0
C2564 C 0.95052 0.26311 0.8821 0.0
C2565 C 0.94828 0.25592 0.89954 0.0
C2566 C 0.9358 0.26461 0.86934 0.0
C2567 C 0.91847 0.25913 0.87376 0.0
C2568 C 0.91623 0.25157 0.89094 0.0
H2569 H 0.8111 0.24934 0.81796 0.0
H2570 H 0.8382 0.24669 0.83754 0.0
C2571 C 0.93088 0.25003 0.90364 0.0
C2572 C 0.90269 0.26137 0.86066 0.0
H2573 H 0.866 0.2803 0.85947 0.0
C2574 C 0.89952 0.25269 0.84168 0.0
C2575 C 0.89053 0.27171 0.86695 0.0
C2576 C 0.89358 0.28224 0.88668 0.0
C2577 C 0.88437 0.25369 0.82918 0.0
C2578 C 0.87208 0.2637 0.83567 0.0
C2579 C 0.87535 0.27254 0.8545 0.0
C2580 C 0.85566 0.26502 0.82322 0.0
C2581 C 0.88129 0.24373 0.80918 0.0
C2582 C 0.85636 0.27627 0.8086 0.0
C2583 C 0.84079 0.27812 0.79757 0.0
C2584 C 0.82411 0.26863 0.80075 0.0
C2585 C 0.82358 0.25707 0.81516 0.0
C2586 C 0.83911 0.25545 0.82637 0.0
H2587 H 0.89106 0.23507 0.80688 0.0
H2588 H 0.86778 0.23526 0.80643 0.0
H2589 H 0.88222 0.25351 0.79853 0.0
H2590 H 0.86895 0.28385 0.80593 0.0
H2591 H 0.84183 0.28715 0.78667 0.0
H2592 H 0.56199 0.2299 0.59869 0.0
H2593 H 0.5632 0.19846 0.58897 0.0
H2594 H 0.51986 0.19481 0.54439 0.0
H2595 H 0.51893 0.22618 0.55363 0.0
H2596 H 0.54084 0.16756 0.58833 0.0
H2597 H 0.55244 0.17401 0.51315 0.0
H2598 H 0.55382 0.19332 0.53056 0.0
H2599 H 0.53269 0.18141 0.51833 0.0
C2600 C 0.5528 0.22247 0.5867 0.0
C2601 C 0.54046 0.23084 0.5769 0.0
C2602 C 0.55348 0.20438 0.58114 0.0
C2603 C 0.5419 0.19407 0.56557 0.0
C2604 C 0.52939 0.20237 0.55602 0.0
H2605 H 0.50892 0.08085 0.52268 0.0
H2606 H 0.51212 0.11296 0.53265 0.0
C2607 C 0.52877 0.22043 0.56147 0.0
C2608 C 0.54247 0.17462 0.55966 0.0
H2609 H 0.54318 0.14405 0.5207 0.0
C2610 C 0.54158 0.16255 0.57356 0.0
C2611 C 0.54353 0.16776 0.54039 0.0
C2612 C 0.54587 0.17984 0.52481 0.0
C2613 C 0.5411 0.14404 0.56866 0.0
C2614 C 0.54151 0.13717 0.54935 0.0
C2615 C 0.54275 0.1492 0.5355 0.0
C2616 C 0.53991 0.11745 0.54318 0.0
C2617 C 0.53971 0.13173 0.58408 0.0
C2618 C 0.55449 0.10905 0.54565 0.0
C2619 C 0.55273 0.09051 0.53986 0.0
C2620 C 0.53634 0.07987 0.53143 0.0
C2621 C 0.5218 0.08842 0.52903 0.0
C2622 C 0.52359 0.1069 0.53473 0.0
H2623 H 0.53891 0.13892 0.59835 0.0
H2624 H 0.52781 0.12084 0.58016 0.0
H2625 H 0.55142 0.12534 0.58519 0.0
H2626 H 0.56725 0.11682 0.55212 0.0
H2627 H 0.56416 0.0845 0.54227 0.0
H2628 H 0.55315 0.7297 0.40231 0.0
H2629 H 0.57885 0.73506 0.38473 0.0
H2630 H 0.57415 0.79014 0.38353 0.0
H2631 H 0.54819 0.78489 0.40099 0.0
H2632 H 0.57956 0.75372 0.34542 0.0
H2633 H 0.62797 0.78574 0.40889 0.0
H2634 H 0.60819 0.76966 0.41109 0.0
H2635 H 0.60661 0.79187 0.4062 0.0
C2636 C 0.5575 0.74298 0.39831 0.0
C2637 C 0.54852 0.75687 0.40313 0.0
C2638 C 0.57222 0.74599 0.38822 0.0
C2639 C 0.57846 0.76299 0.38287 0.0
C2640 C 0.56957 0.77691 0.38757 0.0
H2641 H 0.66688 0.81321 0.32918 0.0
H2642 H 0.64332 0.80516 0.34923 0.0
C2643 C 0.55471 0.77388 0.39753 0.0
C2644 C 0.59431 0.76615 0.37244 0.0
H2645 H 0.63856 0.78443 0.37873 0.0
C2646 C 0.59249 0.76036 0.35268 0.0
C2647 C 0.61114 0.77477 0.38195 0.0
C2648 C 0.61379 0.78086 0.40323 0.0
C2649 C 0.60698 0.76339 0.34207 0.0
C2650 C 0.62389 0.77209 0.35157 0.0
C2651 C 0.62568 0.77769 0.37142 0.0
C2652 C 0.63955 0.77655 0.34095 0.0
C2653 C 0.60389 0.75781 0.32066 0.0
C2654 C 0.64591 0.76315 0.33019 0.0
C2655 C 0.65957 0.76776 0.31885 0.0
C2656 C 0.66708 0.78585 0.31806 0.0
C2657 C 0.66133 0.79916 0.32956 0.0
C2658 C 0.64783 0.79456 0.34098 0.0
H2659 H 0.58965 0.75536 0.31498 0.0
H2660 H 0.61126 0.7682 0.31294 0.0
H2661 H 0.60865 0.74518 0.31743 0.0
H2662 H 0.64002 0.74914 0.33018 0.0
H2663 H 0.66365 0.75726 0.30999 0.0
H2664 H 0.00399 0.25443 0.40329 0.0
H2665 H 0.00453 0.22711 0.41851 0.0
H2666 H 0.05366 0.22276 0.39697 0.0
H2667 H 0.05316 0.25012 0.38143 0.0
H2668 H 0.01356 0.18939 0.39371 0.0
H2669 H 0.05367 0.222 0.46262 0.0
H2670 H 0.03901 0.23379 0.44983 0.0
H2671 H 0.05842 0.22971 0.43995 0.0
C2672 C 0.01497 0.24775 0.4018 0.0
C2673 C 0.02854 0.25454 0.3911 0.0
C2674 C 0.01523 0.23209 0.4105 0.0
C2675 C 0.02913 0.2229 0.40891 0.0
C2676 C 0.04278 0.22962 0.39836 0.0
H2677 H 0.04084 0.13412 0.4777 0.0
H2678 H 0.04794 0.15754 0.4565 0.0
C2679 C 0.04246 0.24525 0.38947 0.0
C2680 C 0.02906 0.2062 0.4182 0.0
H2681 H 0.0406 0.19138 0.46099 0.0
C2682 C 0.01963 0.18977 0.40835 0.0
C2683 C 0.03719 0.20663 0.43717 0.0
C2684 C 0.04771 0.22392 0.44816 0.0
C2685 C 0.0176 0.1739 0.41721 0.0
C2686 C 0.0248 0.1745 0.43664 0.0
C2687 C 0.03496 0.19082 0.44616 0.0
C2688 C 0.02069 0.15887 0.44782 0.0
C2689 C 0.00766 0.15664 0.40564 0.0
C2690 C 0.00305 0.15162 0.44993 0.0
C2691 C 0.99903 0.13835 0.46202 0.0
C2692 C 0.01252 0.13189 0.47231 0.0
C2693 C 0.03017 0.13863 0.46971 0.0
C2694 C 0.03422 0.1521 0.45772 0.0
H2695 H 0.00858 0.15696 0.39005 0.0
H2696 H 0.01277 0.14491 0.41022 0.0
H2697 H 0.99348 0.15478 0.40768 0.0
H2698 H 0.99236 0.15677 0.44284 0.0
H2699 H 0.98534 0.13355 0.46389 0.0
H2700 H 0.57122 0.27277 0.22582 0.0
H2701 H 0.603 0.27921 0.23852 0.0
H2702 H 0.60843 0.22877 0.20926 0.0
H2703 H 0.57732 0.22236 0.19667 0.0
H2704 H 0.62465 0.261 0.26155 0.0
H2705 H 0.6474 0.26309 0.19002 0.0
H2706 H 0.62496 0.26403 0.19384 0.0
H2707 H 0.6318 0.24279 0.19119 0.0
C2708 C 0.57918 0.26305 0.2221 0.0
C2709 C 0.57139 0.24702 0.21003 0.0
C2710 C 0.59744 0.26674 0.22941 0.0
C2711 C 0.6085 0.25466 0.22465 0.0
C2712 C 0.60058 0.23861 0.21294 0.0
H2713 H 0.71657 0.23766 0.24959 0.0
H2714 H 0.68493 0.23577 0.23985 0.0
C2715 C 0.58252 0.2349 0.20578 0.0
C2716 C 0.62821 0.2584 0.23161 0.0
H2717 H 0.66868 0.25925 0.21554 0.0
C2718 C 0.63425 0.26086 0.25145 0.0
C2719 C 0.64108 0.25832 0.21865 0.0
C2720 C 0.63603 0.25711 0.19725 0.0
C2721 C 0.6524 0.26247 0.25846 0.0
C2722 C 0.6651 0.26167 0.24543 0.0
C2723 C 0.65911 0.25964 0.22566 0.0
C2724 C 0.68457 0.2628 0.25193 0.0
C2725 C 0.65783 0.26439 0.27984 0.0
C2726 C 0.69531 0.27865 0.2619 0.0
C2727 C 0.71354 0.27979 0.2674 0.0
C2728 C 0.72171 0.26507 0.26329 0.0
C2729 C 0.71091 0.24922 0.25328 0.0
C2730 C 0.69271 0.24815 0.24761 0.0
H2731 H 0.64626 0.26183 0.28795 0.0
H2732 H 0.66663 0.25497 0.28336 0.0
H2733 H 0.66536 0.27822 0.28475 0.0
H2734 H 0.68963 0.2903 0.26523 0.0
H2735 H 0.72124 0.29229 0.27498 0.0
H2736 H 0.56039 0.84835 0.89777 0.0
H2737 H 0.56342 0.87584 0.92034 0.0
H2738 H 0.50734 0.87335 0.90914 0.0
H2739 H 0.50419 0.84608 0.88708 0.0
H2740 H 0.55551 0.90931 0.91549 0.0
H2741 H 0.51421 0.87799 0.96716 0.0
H2742 H 0.52246 0.86493 0.94871 0.0
H2743 H 0.50291 0.87382 0.94316 0.0
C2744 C 0.5487 0.85362 0.9002 0.0
C2745 C 0.53201 0.84477 0.89064 0.0
C2746 C 0.55045 0.86939 0.91311 0.0
C2747 C 0.53555 0.87659 0.91686 0.0
C2748 C 0.51901 0.86793 0.90702 0.0
H2749 H 0.50736 0.96972 0.97664 0.0
H2750 H 0.50914 0.94196 0.95674 0.0
C2751 C 0.51725 0.85228 0.89423 0.0
C2752 C 0.53703 0.89326 0.9307 0.0
H2753 H 0.51934 0.91007 0.96948 0.0
C2754 C 0.54779 0.9094 0.92745 0.0
C2755 C 0.52703 0.89355 0.94645 0.0
C2756 C 0.51615 0.87661 0.95172 0.0
C2757 C 0.54819 0.92579 0.93888 0.0
C2758 C 0.53766 0.92614 0.95414 0.0
C2759 C 0.52729 0.90994 0.95771 0.0
C2760 C 0.53681 0.94321 0.9662 0.0
C2761 C 0.55938 0.94277 0.93412 0.0
C2762 C 0.55169 0.95319 0.97836 0.0
C2763 C 0.55065 0.96904 0.98978 0.0
C2764 C 0.53472 0.97526 0.98924 0.0
C2765 C 0.51983 0.96527 0.97721 0.0
C2766 C 0.52084 0.9494 0.96588 0.0
H2767 H 0.56417 0.94085 0.91989 0.0
H2768 H 0.55178 0.9537 0.93416 0.0
H2769 H 0.57105 0.94714 0.9452 0.0
H2770 H 0.56409 0.9486 0.97919 0.0
H2771 H 0.56226 0.97641 -0.0009 0.0
H2772 H 0.9454 0.75847 0.68044 0.0
H2773 H 0.91935 0.76218 0.69548 0.0
H2774 H 0.94449 0.7522 0.74957 0.0
H2775 H 0.97112 0.74865 0.73443 0.0
H2776 H 0.89662 0.73919 0.71176 0.0
H2777 H 0.92636 0.79651 0.7674 0.0
H2778 H 0.93816 0.78957 0.74816 0.0
H2779 H 0.93595 0.77696 0.76826 0.0
C2780 C 0.94563 0.75709 0.69559 0.0
C2781 C 0.96072 0.75325 0.70607 0.0
C2782 C 0.9305 0.75923 0.70425 0.0
C2783 C 0.92966 0.75778 0.72387 0.0
C2784 C 0.94466 0.75385 0.73452 0.0
H2785 H 0.84119 0.77518 0.79116 0.0
H2786 H 0.86964 0.76984 0.78183 0.0
C2787 C 0.95995 0.75165 0.72577 0.0
C2788 C 0.91283 0.75986 0.73248 0.0
H2789 H 0.89579 0.78528 0.76609 0.0
C2790 C 0.89655 0.74928 0.72369 0.0
C2791 C 0.91235 0.77277 0.7483 0.0
C2792 C 0.92909 0.78473 0.75855 0.0
C2793 C 0.88017 0.75125 0.72993 0.0
C2794 C 0.87955 0.76481 0.7451 0.0
C2795 C 0.89589 0.77504 0.75433 0.0
C2796 C 0.86221 0.76874 0.75117 0.0
C2797 C 0.86373 0.73828 0.72035 0.0
C2798 C 0.84833 0.7706 0.73741 0.0
C2799 C 0.83192 0.77321 0.74273 0.0
C2800 C 0.82881 0.77475 0.76211 0.0
C2801 C 0.84294 0.77394 0.77607 0.0
C2802 C 0.85932 0.77089 0.77069 0.0
H2803 H 0.86685 0.72527 0.71482 0.0
H2804 H 0.85367 0.73562 0.73036 0.0
H2805 H 0.85797 0.74393 0.70785 0.0
H2806 H 0.85012 0.76999 0.72237 0.0
H2807 H 0.8216 0.77412 0.73152 0.0
H2808 H 0.12986 0.0293 0.84442 0.0
H2809 H 0.11689 0.02335 0.87406 0.0
H2810 H 0.06787 0.03523 0.84946 0.0
H2811 H 0.08094 0.04166 0.81996 0.0
H2812 H 0.09283 0.0536 0.8934 0.0
H2813 H 0.06565 0.98027 0.87492 0.0
H2814 H 0.08554 0.99095 0.86603 0.0
H2815 H 0.06459 0.99525 0.85678 0.0
C2816 C 0.11629 0.03052 0.84534 0.0
C2817 C 0.10636 0.03597 0.83004 0.0
C2818 C 0.10894 0.02714 0.86221 0.0
C2819 C 0.09146 0.02879 0.86379 0.0
C2820 C 0.08141 0.03393 0.84842 0.0
H2821 H 0.02469 0.02929 0.95259 0.0
H2822 H 0.03838 0.03031 0.92309 0.0
C2823 C 0.08887 0.03765 0.83168 0.0
C2824 C 0.08392 0.02586 0.88184 0.0
H2825 H 0.06041 0.99387 0.90482 0.0
C2826 C 0.08582 0.04055 0.89599 0.0
C2827 C 0.07484 0.0088 0.88501 0.0
C2828 C 0.07246 0.99281 0.86997 0.0
C2829 C 0.07866 0.03862 0.9133 0.0
C2830 C 0.06942 0.0216 0.91643 0.0
C2831 C 0.06767 0.00685 0.90236 0.0
C2832 C 0.0606 0.01932 0.93384 0.0
C2833 C 0.08079 0.05479 0.92811 0.0
C2834 C 0.06851 0.01251 0.94953 0.0
C2835 C 0.06069 0.01186 0.96656 0.0
C2836 C 0.04483 0.01793 0.96801 0.0
C2837 C 0.03682 0.02434 0.95199 0.0
C2838 C 0.04462 0.02498 0.93508 0.0
H2839 H 0.09023 0.0665 0.92459 0.0
H2840 H 0.06777 0.05861 0.92895 0.0
H2841 H 0.08547 0.05154 0.94252 0.0
H2842 H 0.08092 0.00814 0.94875 0.0
H2843 H 0.06718 0.00688 0.97863 0.0
H2844 H 0.75575 0.39726 0.54252 0.0
H2845 H 0.75413 0.38241 0.57191 0.0
H2846 H 0.8054 0.36973 0.56672 0.0
H2847 H 0.80684 0.38404 0.53717 0.0
H2848 H 0.76936 0.3404 0.57168 0.0
H2849 H 0.79361 0.40101 0.62531 0.0
H2850 H 0.78009 0.40168 0.60303 0.0
H2851 H 0.80276 0.39993 0.60282 0.0
C2852 C 0.76657 0.3912 0.54774 0.0
C2853 C 0.78132 0.39148 0.53778 0.0
C2854 C 0.76566 0.38287 0.5644 0.0
C2855 C 0.7797 0.3752 0.57129 0.0
C2856 C 0.79449 0.37562 0.5614 0.0
H2857 H 0.8307 0.32964 0.65411 0.0
H2858 H 0.81871 0.34812 0.63171 0.0
C2859 C 0.79524 0.38362 0.54459 0.0
C2860 C 0.77897 0.36609 0.58849 0.0
H2861 H 0.79408 0.37269 0.63619 0.0
C2862 C 0.77425 0.34737 0.58595 0.0
C2863 C 0.78547 0.37548 0.60682 0.0
C2864 C 0.79075 0.39566 0.60983 0.0
C2865 C 0.77708 0.33756 0.60124 0.0
C2866 C 0.78457 0.34688 0.61941 0.0
C2867 C 0.78821 0.36569 0.6222 0.0
C2868 C 0.79137 0.33733 0.63461 0.0
C2869 C 0.77336 0.31733 0.59752 0.0
C2870 C 0.77986 0.32547 0.6437 0.0
C2871 C 0.78668 0.31491 0.65639 0.0
C2872 C 0.80503 0.3161 0.65994 0.0
C2873 C 0.81651 0.32834 0.65122 0.0
C2874 C 0.8097 0.33898 0.63869 0.0
H2875 H 0.76964 0.31234 0.58201 0.0
H2876 H 0.78513 0.31212 0.60284 0.0
H2877 H 0.76232 0.31176 0.60539 0.0
H2878 H 0.76567 0.32412 0.64065 0.0
H2879 H 0.77766 0.30558 0.66314 0.0
H2880 H 0.39516 0.03167 0.34907 0.0
H2881 H 0.41644 0.03787 0.37803 0.0
H2882 H 0.43922 0.99309 0.35854 0.0
H2883 H 0.418 0.98672 0.32933 0.0
H2884 H 0.42055 0.01154 0.4046 0.0
H2885 H 0.48123 0.03817 0.37256 0.0
H2886 H 0.4592 0.03775 0.36112 0.0
H2887 H 0.46798 0.01763 0.35998 0.0
C2888 C 0.4047 0.02312 0.35092 0.0
C2889 C 0.40501 0.0087 0.33702 0.0
C2890 C 0.41681 0.02675 0.36738 0.0
C2891 C 0.42935 0.01606 0.37 0.0
C2892 C 0.42965 0.00156 0.35635 0.0
H2893 H 0.50776 0.99915 0.454 0.0
H2894 H 0.48602 0.99857 0.426 0.0
C2895 C 0.41749 0.99787 0.33987 0.0
C2896 C 0.44158 0.01943 0.38758 0.0
H2897 H 0.48534 0.03011 0.40425 0.0
C2898 C 0.43471 0.01579 0.40469 0.0
C2899 C 0.45988 0.02517 0.38731 0.0
C2900 C 0.46756 0.03008 0.3693 0.0
C2901 C 0.44599 0.01682 0.42163 0.0
C2902 C 0.46434 0.02172 0.42111 0.0
C2903 C 0.47116 0.02612 0.40422 0.0
C2904 C 0.4768 0.02182 0.43789 0.0
C2905 C 0.43836 0.01206 0.43974 0.0
C2906 C 0.47848 0.03512 0.45338 0.0
C2907 C 0.49073 0.03549 0.46917 0.0
C2908 C 0.50141 0.02259 0.46943 0.0
C2909 C 0.49969 0.00925 0.45388 0.0
C2910 C 0.48735 0.00888 0.43807 0.0
H2911 H 0.42401 0.00607 0.43695 0.0
H2912 H 0.44537 0.00248 0.44658 0.0
H2913 H 0.44023 0.02436 0.45014 0.0
H2914 H 0.47045 0.04526 0.45315 0.0
H2915 H 0.49191 0.04596 0.48105 0.0
H2916 H 0.75057 0.67581 0.06706 0.0
H2917 H 0.7489 0.68938 0.09954 0.0
H2918 H 0.79181 0.73271 0.09388 0.0
H2919 H 0.7933 0.71944 0.06121 0.0
H2920 H 0.77311 0.69618 0.13098 0.0
H2921 H 0.7562 0.76015 0.1127 0.0
H2922 H 0.75526 0.74134 0.09475 0.0
H2923 H 0.77606 0.75611 0.10373 0.0
C2924 C 0.75961 0.68829 0.07266 0.0
C2925 C 0.77205 0.69656 0.06147 0.0
C2926 C 0.75864 0.69603 0.09127 0.0
C2927 C 0.77003 0.71223 0.09912 0.0
C2928 C 0.78257 0.72045 0.08803 0.0
H2929 H 0.79507 0.77291 0.21228 0.0
H2930 H 0.79479 0.75907 0.17939 0.0
C2931 C 0.78349 0.71276 0.06937 0.0
C2932 C 0.76917 0.7202 0.11909 0.0
H2933 H 0.76465 0.75852 0.1459 0.0
C2934 C 0.77111 0.70976 0.1342 0.0
C2935 C 0.76648 0.73791 0.12335 0.0
C2936 C 0.7632 0.74948 0.10776 0.0
C2937 C 0.77087 0.71668 0.1534 0.0
C2938 C 0.76858 0.73447 0.15763 0.0
C2939 C 0.76649 0.74489 0.14259 0.0
C2940 C 0.76864 0.74261 0.17766 0.0
C2941 C 0.77339 0.7051 0.16914 0.0
C2942 C 0.754 0.73794 0.18759 0.0
C2943 C 0.75405 0.74592 0.20639 0.0
C2944 C 0.76878 0.75868 0.21561 0.0
C2945 C 0.78348 0.76317 0.20563 0.0
C2946 C 0.78336 0.7553 0.18681 0.0
H2947 H 0.77691 0.69226 0.16372 0.0
H2948 H 0.78395 0.71241 0.18057 0.0
H2949 H 0.76098 0.70201 0.17578 0.0
H2950 H 0.74249 0.7282 0.18075 0.0
H2951 H 0.74258 0.74205 0.2137 0.0
H2952 H 0.10035 0.00413 0.72621 0.0
H2953 H 0.087 0.0018 0.69255 0.0
H2954 H 0.08349 0.05757 0.70075 0.0
H2955 H 0.09621 0.05978 0.73441 0.0
H2956 H 0.05125 0.01432 0.6795 0.0
H2957 H 0.11243 0.04718 0.65206 0.0
H2958 H 0.11288 0.03592 0.67339 0.0
H2959 H 0.10731 0.05766 0.67425 0.0
C2960 C 0.09664 0.01582 0.72077 0.0
C2961 C 0.09915 0.0321 0.7328 0.0
C2962 C 0.08905 0.01448 0.70164 0.0
C2963 C 0.08438 0.02955 0.69425 0.0
C2964 C 0.08701 0.04582 0.70625 0.0
H2965 H 0.03509 0.05572 0.58794 0.0
H2966 H 0.04734 0.05525 0.62135 0.0
C2967 C 0.09418 0.04704 0.72544 0.0
C2968 C 0.07662 0.02844 0.67402 0.0
H2969 H 0.0857 0.04219 0.63087 0.0
C2970 C 0.05878 0.02028 0.66881 0.0
C2971 C 0.08655 0.03624 0.6602 0.0
C2972 C 0.1059 0.04467 0.6651 0.0
C2973 C 0.05046 0.0201 0.65011 0.0
C2974 C 0.06028 0.02824 0.63642 0.0
C2975 C 0.0782 0.03613 0.64154 0.0
C2976 C 0.05221 0.02835 0.61653 0.0
C2977 C 0.03118 0.01146 0.64504 0.0
C2978 C 0.05089 0.01338 0.60291 0.0
C2979 C 0.0442 0.01377 0.58384 0.0
C2980 C 0.03848 0.02902 0.5781 0.0
C2981 C 0.0393 0.0438 0.59192 0.0
C2982 C 0.04633 0.04355 0.61098 0.0
H2983 H 0.02502 0.00696 0.65773 0.0
H2984 H 0.02384 0.02104 0.6387 0.0
H2985 H 0.02982 0.99967 0.63405 0.0
H2986 H 0.05533 0.00153 0.60698 0.0
H2987 H 0.04362 0.00217 0.57355 0.0
H2988 H 0.77995 0.38183 0.46192 0.0
H2989 H 0.77474 0.35902 0.43417 0.0
H2990 H 0.7984 0.39838 0.39972 0.0
H2991 H 0.80402 0.42138 0.42763 0.0
H2992 H 0.75393 0.35964 0.40001 0.0
H2993 H 0.82325 0.35647 0.38941 0.0
H2994 H 0.81747 0.36717 0.41116 0.0
H2995 H 0.81871 0.37868 0.39016 0.0
C2996 C 0.78417 0.38564 0.44847 0.0
C2997 C 0.7922 0.4034 0.44677 0.0
C2998 C 0.78115 0.3726 0.43269 0.0
C2999 C 0.78613 0.37715 0.41504 0.0
C3000 C 0.79462 0.39471 0.41337 0.0
H3001 H 0.75947 0.31059 0.30412 0.0
H3002 H 0.75968 0.33523 0.32946 0.0
C3003 C 0.79778 0.40779 0.42925 0.0
C3004 C 0.78196 0.36352 0.39825 0.0
H3005 H 0.8009 0.34045 0.3653 0.0
C3006 C 0.76414 0.35547 0.3923 0.0
C3007 C 0.79542 0.35806 0.38857 0.0
C3008 C 0.81479 0.3654 0.39523 0.0
C3009 C 0.75945 0.34189 0.37678 0.0
C3010 C 0.77294 0.33669 0.36706 0.0
C3011 C 0.79067 0.34489 0.3728 0.0
C3012 C 0.7695 0.32134 0.35224 0.0
C3013 C 0.74036 0.3327 0.37129 0.0
C3014 C 0.77476 0.30567 0.35692 0.0
C3015 C 0.77569 0.29239 0.34246 0.0
C3016 C 0.77122 0.29457 0.32317 0.0
C3017 C 0.7644 0.30951 0.31866 0.0
C3018 C 0.76389 0.32314 0.33315 0.0
H3019 H 0.73143 0.33843 0.38039 0.0
H3020 H 0.73619 0.33392 0.35603 0.0
H3021 H 0.73887 0.31818 0.37271 0.0
H3022 H 0.77901 0.30415 0.37169 0.0
H3023 H 0.78037 0.2806 0.34639 0.0
H3024 H 0.43655 0.03675 0.27121 0.0
H3025 H 0.45237 0.03508 0.24293 0.0
H3026 H 0.4056 0.00196 0.20991 0.0
H3027 H 0.38968 0.00375 0.23771 0.0
H3028 H 0.45741 0.00355 0.222 0.0
H3029 H 0.41937 0.04183 0.17634 0.0
H3030 H 0.41861 0.04248 0.20192 0.0
H3031 H 0.40607 0.02366 0.18576 0.0
C3032 C 0.42965 0.02924 0.25787 0.0
C3033 C 0.41185 0.02065 0.25653 0.0
C3034 C 0.43864 0.02834 0.24181 0.0
C3035 C 0.42989 0.01887 0.22434 0.0
C3036 C 0.41231 0.00984 0.22314 0.0
H3037 H 0.457 0.97858 0.11748 0.0
H3038 H 0.44151 0.99054 0.14292 0.0
C3039 C 0.40331 0.0108 0.23908 0.0
C3040 C 0.43936 0.01749 0.20754 0.0
H3041 H 0.43855 0.02555 0.16082 0.0
C3042 C 0.45352 0.00861 0.2087 0.0
C3043 C 0.43388 0.02387 0.19025 0.0
C3044 C 0.41873 0.03363 0.18848 0.0
C3045 C 0.4622 0.00547 0.19273 0.0
C3046 C 0.45682 0.01191 0.17543 0.0
C3047 C 0.44272 0.02093 0.17427 0.0
C3048 C 0.46509 0.00814 0.15816 0.0
C3049 C 0.47657 0.99466 0.19429 0.0
C3050 C 0.48319 0.01478 0.15807 0.0
C3051 C 0.49201 0.00771 0.1439 0.0
C3052 C 0.48267 0.99425 0.12963 0.0
C3053 C 0.46432 0.98878 0.1287 0.0
C3054 C 0.45552 0.9957 0.14301 0.0
H3055 H 0.4763 0.98737 0.20715 0.0
H3056 H 0.47527 0.98475 0.18134 0.0
H3057 H 0.48965 0.00382 0.19546 0.0
H3058 H 0.49063 0.02458 0.1696 0.0
H3059 H 0.50617 0.01225 0.14444 0.0
H3060 H 0.7888 0.69209 0.96747 0.0
H3061 H 0.79665 0.70869 0.94053 0.0
H3062 H 0.74138 0.70429 0.92095 0.0
H3063 H 0.73339 0.68773 0.9477 0.0
H3064 H 0.78561 0.69619 0.89978 0.0
H3065 H 0.7634 0.75869 0.92336 0.0
H3066 H 0.76784 0.7428 0.93962 0.0
H3067 H 0.74739 0.73848 0.92386 0.0
C3068 C 0.7783 0.69478 0.95752 0.0
C3069 C 0.76044 0.68862 0.95981 0.0
C3070 C 0.78283 0.70423 0.94211 0.0
C3071 C 0.7696 0.7079 0.92887 0.0
C3072 C 0.7518 0.70185 0.93117 0.0
H3073 H 0.75395 0.75725 0.8268 0.0
H3074 H 0.75311 0.74379 0.85682 0.0
C3075 C 0.74726 0.69232 0.94646 0.0
C3076 C 0.7742 0.71746 0.91217 0.0
H3077 H 0.76879 0.75446 0.89076 0.0
C3078 C 0.78212 0.70902 0.89782 0.0
C3079 C 0.76971 0.73422 0.90975 0.0
C3080 C 0.76176 0.7442 0.92503 0.0
C3081 C 0.78468 0.71635 0.88054 0.0
C3082 C 0.77964 0.7329 0.87778 0.0
C3083 C 0.7725 0.74171 0.89265 0.0
C3084 C 0.78044 0.74077 0.85925 0.0
C3085 C 0.79189 0.70574 0.8651 0.0
C3086 C 0.79604 0.74363 0.85042 0.0
C3087 C 0.79627 0.75066 0.8328 0.0
C3088 C 0.78112 0.75564 0.82415 0.0
C3089 C 0.76574 0.75336 0.8332 0.0
C3090 C 0.76532 0.74577 0.85041 0.0
H3091 H 0.79039 0.69139 0.86735 0.0
H3092 H 0.78517 0.7065 0.85062 0.0
H3093 H 0.80623 0.71126 0.86546 0.0
H3094 H 0.8081 0.74062 0.85721 0.0
H3095 H 0.8084 0.75277 0.82626 0.0
H3096 H 0.82457 0.12536 0.02744 0.0
H3097 H 0.84874 0.10986 0.02268 0.0
H3098 H 0.83068 0.07346 0.06288 0.0
H3099 H 0.80583 0.08848 0.06697 0.0
H3100 H 0.87507 0.10619 0.04958 0.0
H3101 H 0.83507 0.0398 0.01615 0.0
H3102 H 0.82569 0.05959 0.01909 0.0
H3103 H 0.83005 0.04786 0.03933 0.0
C3104 C 0.82588 0.11414 0.03535 0.0
C3105 C 0.81365 0.10811 0.04767 0.0
C3106 C 0.83957 0.1053 0.03259 0.0
C3107 C 0.84133 0.09059 0.04243 0.0
C3108 C 0.82926 0.08466 0.055 0.0
H3109 H 0.91865 0.02609 0.01751 0.0
H3110 H 0.90085 0.04145 0.03759 0.0
C3111 C 0.81527 0.09328 0.05742 0.0
C3112 C 0.85606 0.08176 0.03942 0.0
H3113 H 0.86586 0.04353 0.01841 0.0
C3114 C 0.87315 0.09239 0.04305 0.0
C3115 C 0.85328 0.06379 0.0309 0.0
C3116 C 0.83505 0.05209 0.02598 0.0
C3117 C 0.88757 0.08579 0.0373 0.0
C3118 C 0.88468 0.06812 0.02811 0.0
C3119 C 0.86782 0.05708 0.02565 0.0
C3120 C 0.89824 0.06144 0.01846 0.0
C3121 C 0.90558 0.09796 0.04024 0.0
C3122 C 0.90257 0.06788 0.00128 0.0
C3123 C 0.91246 0.05903 0.98969 0.0
C3124 C 0.91806 0.04375 0.99529 0.0
C3125 C 0.91437 0.03786 0.01296 0.0
C3126 C 0.90439 0.04662 0.02446 0.0
H3127 H 0.9064 0.10941 0.05154 0.0
H3128 H 0.91604 0.09043 0.04424 0.0
H3129 H 0.90822 0.10347 0.02661 0.0
H3130 H 0.89757 0.07918 0.99642 0.0
H3131 H 0.91549 0.06392 0.97627 0.0
H3132 H 0.33023 0.43547 0.0418 0.0
H3133 H 0.3584 0.456 0.04059 0.0
H3134 H 0.38512 0.41148 0.03901 0.0
H3135 H 0.35715 0.39087 0.04042 0.0
H3136 H 0.39448 0.45697 0.06839 0.0
H3137 H 0.39385 0.44174 0.98934 0.0
H3138 H 0.37375 0.43947 0.00054 0.0
H3139 H 0.38757 0.42334 0.00299 0.0
C3140 C 0.34211 0.43005 0.04129 0.0
C3141 C 0.34144 0.41152 0.04117 0.0
C3142 C 0.35816 0.44179 0.04061 0.0
C3143 C 0.37373 0.43518 0.03961 0.0
C3144 C 0.37318 0.41678 0.03972 0.0
H3145 H 0.48458 0.48305 0.05096 0.0
H3146 H 0.4553 0.4659 0.0539 0.0
C3147 C 0.35719 0.40505 0.04057 0.0
C3148 C 0.39059 0.44744 0.03821 0.0
H3149 H 0.41948 0.46056 0.00655 0.0
C3150 C 0.39995 0.45786 0.05489 0.0
C3151 C 0.39753 0.44858 0.02053 0.0
C3152 C 0.3877 0.43779 0.00223 0.0
C3153 C 0.41636 0.46922 0.05441 0.0
C3154 C 0.42354 0.47002 0.0368 0.0
C3155 C 0.41395 0.45988 0.02003 0.0
C3156 C 0.44122 0.48094 0.03554 0.0
C3157 C 0.42585 0.48032 0.0727 0.0
C3158 C 0.44304 0.49491 0.02397 0.0
C3159 C 0.4598 0.5047 0.02212 0.0
C3160 C 0.47506 0.50063 0.03178 0.0
C3161 C 0.47313 0.48666 0.04343 0.0
C3162 C 0.45639 0.47688 0.04523 0.0
H3163 H 0.41679 0.48149 0.08377 0.0
H3164 H 0.43651 0.47384 0.07864 0.0
H3165 H 0.43201 0.494 0.0699 0.0
H3166 H 0.43148 0.49814 0.01624 0.0
H3167 H 0.46079 0.51516 0.01278 0.0
H3168 H 0.38664 0.56255 0.72292 0.0
H3169 H 0.36965 0.58645 0.72683 0.0
H3170 H 0.37945 0.58832 0.78838 0.0
H3171 H 0.39593 0.56398 0.78451 0.0
H3172 H 0.33842 0.58616 0.75475 0.0
H3173 H 0.39773 0.64148 0.76743 0.0
H3174 H 0.39762 0.61996 0.7542 0.0
H3175 H 0.39869 0.62216 0.77987 0.0
C3176 C 0.38506 0.56805 0.73725 0.0
C3177 C 0.39249 0.5615 0.75342 0.0
C3178 C 0.37537 0.58162 0.73945 0.0
C3179 C 0.37341 0.58912 0.75786 0.0
C3180 C 0.38082 0.5826 0.77406 0.0
H3181 H 0.33748 0.67166 0.81908 0.0
H3182 H 0.35277 0.65001 0.80417 0.0
C3183 C 0.39015 0.56873 0.77185 0.0
C3184 C 0.36383 0.60397 0.7603 0.0
H3185 H 0.37051 0.64901 0.77387 0.0
C3186 C 0.34532 0.59997 0.7587 0.0
C3187 C 0.37298 0.62189 0.76524 0.0
C3188 C 0.39286 0.62677 0.76669 0.0
C3189 C 0.33572 0.61337 0.7631 0.0
C3190 C 0.34494 0.63127 0.76888 0.0
C3191 C 0.36343 0.63532 0.76946 0.0
C3192 C 0.33608 0.64546 0.77687 0.0
C3193 C 0.31592 0.60802 0.76256 0.0
C3194 C 0.32187 0.6506 0.76632 0.0
C3195 C 0.31286 0.66289 0.77499 0.0
C3196 C 0.31801 0.67028 0.79431 0.0
C3197 C 0.33288 0.66586 0.80435 0.0
C3198 C 0.34174 0.65358 0.79578 0.0
H3199 H 0.31139 0.59325 0.76155 0.0
H3200 H 0.31147 0.61432 0.77557 0.0
H3201 H 0.3094 0.61266 0.74979 0.0
H3202 H 0.31755 0.64488 0.75153 0.0
H3203 H 0.30151 0.6661 0.76683 0.0
H3204 H 0.21838 0.57816 0.52184 0.0
H3205 H 0.18753 0.56386 0.5123 0.0
H3206 H 0.17246 0.59521 0.55982 0.0
H3207 H 0.20341 0.60989 0.56951 0.0
H3208 H 0.16217 0.54538 0.53558 0.0
H3209 H 0.14565 0.60699 0.50883 0.0
H3210 H 0.16809 0.6036 0.51293 0.0
H3211 H 0.15691 0.60975 0.53286 0.0
C3212 C 0.20856 0.58187 0.53044 0.0
C3213 C 0.21315 0.59529 0.54624 0.0
C3214 C 0.19103 0.57372 0.52493 0.0
C3215 C 0.17803 0.57891 0.53518 0.0
C3216 C 0.18255 0.59148 0.55163 0.0
H3217 H 0.07491 0.55762 0.54817 0.0
H3218 H 0.10442 0.57148 0.54173 0.0
C3219 C 0.20012 0.59973 0.55714 0.0
C3220 C 0.15962 0.57147 0.52828 0.0
H3221 H 0.12158 0.58302 0.51049 0.0
C3222 C 0.15324 0.5534 0.52977 0.0
C3223 C 0.14844 0.58222 0.52061 0.0
C3224 C 0.1551 0.60171 0.51853 0.0
C3225 C 0.13534 0.54595 0.52502 0.0
C3226 C 0.12394 0.55693 0.51811 0.0
C3227 C 0.13058 0.57472 0.51549 0.0
C3228 C 0.10497 0.55145 0.51787 0.0
C3229 C 0.12861 0.52692 0.52888 0.0
C3230 C 0.09555 0.53618 0.50597 0.0
C3231 C 0.07896 0.52814 0.50994 0.0
C3232 C 0.07181 0.53573 0.52539 0.0
C3233 C 0.08053 0.55178 0.53621 0.0
C3234 C 0.09714 0.55971 0.5324 0.0
H3235 H 0.13907 0.52119 0.53653 0.0
H3236 H 0.11748 0.52636 0.53766 0.0
H3237 H 0.12368 0.5183 0.51506 0.0
H3238 H 0.10155 0.52981 0.49469 0.0
H3239 H 0.07217 0.5156 0.50164 0.0
H3240 H 0.72009 0.00102 0.74305 0.0
H3241 H 0.73702 0.97777 0.74826 0.0
H3242 H 0.68858 0.93815 0.74254 0.0
H3243 H 0.67143 0.96129 0.73734 0.0
H3244 H 0.72935 0.9567 0.78059 0.0
H3245 H 0.7235 0.91574 0.70958 0.0
H3246 H 0.72198 0.93915 0.71214 0.0
H3247 H 0.70366 0.92237 0.71619 0.0
C3248 C 0.71305 0.98729 0.74248 0.0
C3249 C 0.69448 0.98287 0.7399 0.0
C3250 C 0.72273 0.9741 0.74539 0.0
C3251 C 0.71393 0.95642 0.74549 0.0
C3252 C 0.69546 0.95178 0.74206 0.0
H3253 H 0.72481 0.86444 0.79382 0.0
H3254 H 0.71687 0.8868 0.77369 0.0
C3255 C 0.68573 0.96497 0.73917 0.0
C3256 C 0.72382 0.9432 0.75168 0.0
H3257 H 0.73313 0.90263 0.73723 0.0
C3258 C 0.7306 0.94505 0.7711 0.0
C3259 C 0.72514 0.92816 0.73909 0.0
C3260 C 0.71831 0.9262 0.71802 0.0
C3261 C 0.73798 0.93158 0.77858 0.0
C3262 C 0.7387 0.91616 0.76614 0.0
C3263 C 0.73257 0.91463 0.74655 0.0
C3264 C 0.7439 0.90078 0.77401 0.0
C3265 C 0.74408 0.9334 0.79987 0.0
C3266 C 0.7617 0.90121 0.78014 0.0
C3267 C 0.7662 0.88853 0.79154 0.0
C3268 C 0.75287 0.87558 0.79697 0.0
C3269 C 0.73515 0.87457 0.78991 0.0
C3270 C 0.73068 0.8871 0.77832 0.0
H3271 H 0.74118 0.94562 0.80774 0.0
H3272 H 0.73757 0.92149 0.80613 0.0
H3273 H 0.75856 0.93406 0.80219 0.0
H3274 H 0.77194 0.91189 0.777 0.0
H3275 H 0.77996 0.88937 0.79689 0.0
H3276 H 0.73714 0.90473 0.50547 0.0
H3277 H 0.71219 0.92015 0.50115 0.0
H3278 H 0.71462 0.93157 0.56261 0.0
H3279 H 0.73918 0.91566 0.56699 0.0
H3280 H 0.67792 0.9103 0.52425 0.0
H3281 H 0.71587 0.98085 0.53377 0.0
H3282 H 0.72536 0.96241 0.52453 0.0
H3283 H 0.72215 0.96518 0.54936 0.0
C3284 C 0.73244 0.91074 0.518 0.0
C3285 C 0.74 0.90916 0.53656 0.0
C3286 C 0.71821 0.91942 0.51554 0.0
C3287 C 0.71169 0.92697 0.53159 0.0
C3288 C 0.71951 0.92578 0.5501 0.0
H3289 H 0.63336 0.99563 0.52567 0.0
H3290 H 0.65428 0.97863 0.53972 0.0
C3291 C 0.73347 0.91674 0.55258 0.0
C3292 C 0.69632 0.93562 0.52894 0.0
H3293 H 0.68503 0.97631 0.52625 0.0
C3294 C 0.67939 0.92474 0.52482 0.0
C3295 C 0.69837 0.95443 0.53006 0.0
C3296 C 0.71638 0.96653 0.53463 0.0
C3297 C 0.66438 0.9322 0.52124 0.0
C3298 C 0.66648 0.951 0.52131 0.0
C3299 C 0.6834 0.96191 0.52621 0.0
C3300 C 0.65176 0.95948 0.51431 0.0
C3301 C 0.64646 0.91985 0.51736 0.0
C3302 C 0.64312 0.95412 0.49558 0.0
C3303 C 0.63117 0.96368 0.48765 0.0
C3304 C 0.62777 0.97899 0.49817 0.0
C3305 C 0.63568 0.98384 0.51729 0.0
C3306 C 0.64769 0.97421 0.52526 0.0
H3307 H 0.64632 0.90768 0.52477 0.0
H3308 H 0.63592 0.92665 0.52208 0.0
H3309 H 0.64334 0.91537 0.50171 0.0
H3310 H 0.64629 0.94308 0.48668 0.0
H3311 H 0.62512 0.95954 0.47294 0.0
H3312 H 0.40729 0.4413 0.74254 0.0
H3313 H 0.38712 0.41311 0.74506 0.0
H3314 H 0.34771 0.44244 0.76159 0.0
H3315 H 0.36783 0.47077 0.75922 0.0
H3316 H 0.37054 0.40341 0.77943 0.0
H3317 H 0.32237 0.4038 0.71537 0.0
H3318 H 0.34466 0.41686 0.71853 0.0
H3319 H 0.32827 0.42415 0.73182 0.0
C3320 C 0.3943 0.44179 0.74662 0.0
C3321 C 0.38916 0.45832 0.75065 0.0
C3322 C 0.38282 0.42565 0.7481 0.0
C3323 C 0.36591 0.42571 0.75338 0.0
C3324 C 0.36067 0.44213 0.75731 0.0
H3325 H 0.28647 0.33915 0.78343 0.0
H3326 H 0.30496 0.36852 0.78113 0.0
C3327 C 0.3722 0.4583 0.75601 0.0
C3328 C 0.35388 0.40857 0.75512 0.0
H3329 H 0.31525 0.38066 0.73483 0.0
C3330 C 0.35843 0.39846 0.76973 0.0
C3331 C 0.33817 0.40211 0.74234 0.0
C3332 C 0.33305 0.41217 0.72601 0.0
C3333 C 0.34754 0.38209 0.77198 0.0
C3334 C 0.33181 0.37573 0.75928 0.0
C3335 C 0.32727 0.38576 0.74464 0.0
C3336 C 0.32038 0.3582 0.76045 0.0
C3337 C 0.3529 0.3715 0.78772 0.0
C3338 C 0.32294 0.34284 0.74946 0.0
C3339 C 0.31239 0.32614 0.75062 0.0
C3340 C 0.29906 0.3245 0.76281 0.0
C3341 C 0.29647 0.33999 0.77375 0.0
C3342 C 0.30705 0.35673 0.77254 0.0
H3343 H 0.36544 0.37841 0.79663 0.0
H3344 H 0.34231 0.36921 0.79717 0.0
H3345 H 0.35455 0.35814 0.78133 0.0
H3346 H 0.3332 0.34377 0.74008 0.0
H3347 H 0.31479 0.3145 0.74203 0.0
H3348 H 0.18203 0.59632 0.21954 0.0
H3349 H 0.19547 0.62804 0.22947 0.0
H3350 H 0.23471 0.61275 0.2689 0.0
H3351 H 0.22176 0.5813 0.2589 0.0
H3352 H 0.19872 0.6431 0.26999 0.0
H3353 H 0.26267 0.65023 0.23959 0.0
H3354 H 0.24392 0.63248 0.23052 0.0
H3355 H 0.25757 0.63104 0.25226 0.0
C3356 C 0.19382 0.59979 0.2299 0.0
C3357 C 0.20084 0.58656 0.23866 0.0
C3358 C 0.20132 0.61778 0.23563 0.0
C3359 C 0.21589 0.62241 0.2499 0.0
C3360 C 0.2235 0.60921 0.25777 0.0
H3361 H 0.28213 0.72249 0.28776 0.0
H3362 H 0.2657 0.69433 0.2963 0.0
C3363 C 0.21608 0.59134 0.25208 0.0
C3364 C 0.22267 0.64101 0.25767 0.0
H3365 H 0.25942 0.67364 0.26229 0.0
C3366 C 0.21198 0.64992 0.2684 0.0
C3367 C 0.24001 0.64941 0.25569 0.0
C3368 C 0.25168 0.64037 0.24376 0.0
C3369 C 0.21828 0.6675 0.27708 0.0
C3370 C 0.23554 0.67605 0.27477 0.0
C3371 C 0.24633 0.66681 0.2645 0.0
C3372 C 0.2415 0.69543 0.2786 0.0
C3373 C 0.20636 0.67689 0.28817 0.0
C3374 C 0.23276 0.70579 0.26708 0.0
C3375 C 0.24207 0.72167 0.26224 0.0
C3376 C 0.26001 0.72714 0.26902 0.0
C3377 C 0.26826 0.71801 0.28228 0.0
C3378 C 0.25883 0.70229 0.28747 0.0
H3379 H 0.19719 0.6672 0.29504 0.0
H3380 H 0.21406 0.6875 0.2994 0.0
H3381 H 0.1982 0.68322 0.2781 0.0
H3382 H 0.21952 0.70055 0.25982 0.0
H3383 H 0.23567 0.72893 0.25213 0.0
H3384 H 0.49551 0.70094 0.43603 0.0
H3385 H 0.49642 0.67043 0.44378 0.0
H3386 H 0.52036 0.69209 0.50124 0.0
H3387 H 0.51926 0.72234 0.49373 0.0
H3388 H 0.52351 0.65432 0.45438 0.0
H3389 H 0.48221 0.65348 0.51365 0.0
H3390 H 0.48377 0.67072 0.49787 0.0
H3391 H 0.50063 0.67207 0.51784 0.0
C3392 C 0.50076 0.69922 0.4504 0.0
C3393 C 0.50717 0.71433 0.46423 0.0
C3394 C 0.50136 0.68167 0.45483 0.0
C3395 C 0.50818 0.67862 0.47329 0.0
C3396 C 0.51459 0.69373 0.48705 0.0
H3397 H 0.53036 0.58669 0.53069 0.0
H3398 H 0.52797 0.6163 0.52156 0.0
C3399 C 0.51406 0.7112 0.48263 0.0
C3400 C 0.5092 0.65988 0.47807 0.0
H3401 H 0.49897 0.63042 0.51093 0.0
C3402 C 0.51797 0.64909 0.46666 0.0
C3403 C 0.50207 0.65273 0.49412 0.0
C3404 C 0.49149 0.66277 0.50645 0.0
C3405 C 0.52024 0.63191 0.47108 0.0
C3406 C 0.51333 0.6249 0.48729 0.0
C3407 C 0.50443 0.63562 0.4986 0.0
C3408 C 0.51512 0.60657 0.49272 0.0
C3409 C 0.53057 0.62166 0.45863 0.0
C3410 C 0.50861 0.59086 0.47979 0.0
C3411 C 0.51015 0.57382 0.48495 0.0
C3412 C 0.51813 0.57181 0.5033 0.0
C3413 C 0.52439 0.58752 0.51634 0.0
C3414 C 0.52291 0.60458 0.51114 0.0
H3415 H 0.53902 0.63062 0.4503 0.0
H3416 H 0.5391 0.61458 0.46741 0.0
H3417 H 0.52122 0.61151 0.44824 0.0
H3418 H 0.5021 0.59172 0.46567 0.0
H3419 H 0.50499 0.56217 0.47447 0.0
H3420 H 0.59402 0.29712 0.66459 0.0
H3421 H 0.62067 0.2974 0.68699 0.0
H3422 H 0.64429 0.27383 0.64076 0.0
H3423 H 0.61808 0.27363 0.6185 0.0
H3424 H 0.6368 0.2689 0.69736 0.0
H3425 H 0.68326 0.31649 0.6633 0.0
H3426 H 0.65958 0.31384 0.65827 0.0
H3427 H 0.67084 0.29818 0.64647 0.0
C3428 C 0.60497 0.29218 0.65916 0.0
C3429 C 0.60382 0.28548 0.6396 0.0
C3430 C 0.62021 0.29227 0.67203 0.0
C3431 C 0.63475 0.28588 0.66562 0.0
C3432 C 0.63354 0.27919 0.64613 0.0
H3433 H 0.73029 0.25442 0.71269 0.0
H3434 H 0.70336 0.25876 0.6939 0.0
C3435 C 0.61838 0.27902 0.63336 0.0
C3436 C 0.6511 0.28573 0.67909 0.0
H3437 H 0.69629 0.29899 0.6849 0.0
C3438 C 0.64976 0.27569 0.69476 0.0
C3439 C 0.66815 0.29461 0.6759 0.0
C3440 C 0.67059 0.30654 0.6602 0.0
C3441 C 0.66493 0.27375 0.70668 0.0
C3442 C 0.68196 0.28204 0.70298 0.0
C3443 C 0.68329 0.29247 0.68769 0.0
C3444 C 0.69854 0.27963 0.71448 0.0
C3445 C 0.66281 0.26244 0.72293 0.0
C3446 C 0.705 0.28994 0.73233 0.0
C3447 C 0.72075 0.28779 0.74284 0.0
C3448 C 0.73045 0.2753 0.73576 0.0
C3449 C 0.72375 0.26477 0.7181 0.0
C3450 C 0.70812 0.26703 0.7075 0.0
H3451 H 0.64875 0.25634 0.72364 0.0
H3452 H 0.6704 0.25158 0.72119 0.0
H3453 H 0.66832 0.27083 0.73677 0.0
H3454 H 0.69789 0.29973 0.7381 0.0
H3455 H 0.72548 0.29606 0.75644 0.0
H3456 H 0.9733 0.32018 0.95317 0.0
H3457 H 0.97962 0.35202 0.96502 0.0
H3458 H 0.03506 0.35118 0.97592 0.0
H3459 H 0.02879 0.31901 0.96363 0.0
H3460 H 0.99338 0.3717 -0.00134 0.0
H3461 H 0.03741 0.39236 0.94421 0.0
H3462 H 0.02441 0.36995 0.94264 0.0
H3463 H 0.04454 0.37661 0.95894 0.0
C3464 C 0.9869 0.32663 0.95812 0.0
C3465 C 1.00051 0.31679 0.95721 0.0
C3466 C 0.9905 0.34501 0.96498 0.0
C3467 C 0.00789 0.35443 0.9711 0.0
C3468 C 0.02154 0.34455 0.97088 0.0
H3469 H 0.04785 0.47097 0.00562 0.0
H3470 H 0.04502 0.43849 -0.00134 0.0
C3471 C 0.01791 0.326 0.96402 0.0
C3472 C 0.01137 0.37448 0.97737 0.0
H3473 H 0.03301 0.41525 0.96701 0.0
C3474 C 1.00209 0.38116 0.99171 0.0
C3475 C 0.02277 0.38713 0.96853 0.0
C3476 C 0.03276 0.38123 0.95262 0.0
C3477 C 0.00383 0.39979 0.99733 0.0
C3478 C 0.01486 0.41243 0.98811 0.0
C3479 C 0.02445 0.40576 0.9741 0.0
C3480 C 0.01649 0.43252 0.99258 0.0
C3481 C 0.99403 0.40569 0.01341 0.0
C3482 C 1.0015 0.44046 0.99123 0.0
C3483 C 0.00311 0.45919 0.99512 0.0
C3484 C 0.01974 0.47069 0.00056 0.0
C3485 C 0.03476 0.46274 0.0016 0.0
C3486 C 0.03316 0.44402 0.99761 0.0
H3487 H 0.99097 0.39502 0.02287 0.0
H3488 H 1.00176 0.418 0.02234 0.0
H3489 H 0.9813 0.40861 0.00722 0.0
H3490 H 0.98849 0.4322 0.98681 0.0
H3491 H 0.9913 0.46466 0.99348 0.0
H3492 H 0.00563 0.80626 0.14243 0.0
H3493 H 0.98022 0.80921 0.15993 0.0
H3494 H 0.96531 0.75168 0.15608 0.0
H3495 H 0.9903 0.74859 0.13848 0.0
H3496 H 0.93838 0.78384 0.14459 0.0
H3497 H 0.97292 0.78156 0.21721 0.0
H3498 H 0.98439 0.79097 0.19836 0.0
H3499 H 0.97759 0.76713 0.19739 0.0
C3500 C 0.99698 0.79425 0.1454 0.0
C3501 C 1.00007 0.77718 0.13906 0.0
C3502 C 0.98242 0.79596 0.15532 0.0
C3503 C 0.97086 0.78064 0.1593 0.0
C3504 C 0.97401 0.76367 0.15312 0.0
H3505 H 0.87545 0.73726 0.19937 0.0
H3506 H 0.89974 0.74772 0.18102 0.0
C3507 C 0.98835 0.76194 0.14305 0.0
C3508 C 0.95549 0.78199 0.17002 0.0
H3509 H 0.94167 0.77709 0.21405 0.0
C3510 C 0.93914 0.78268 0.15984 0.0
C3511 C 0.95649 0.78064 0.18994 0.0
C3512 C 0.97378 0.78012 0.20152 0.0
C3513 C 0.92364 0.78112 0.16891 0.0
C3514 C 0.92446 0.77859 0.18858 0.0
C3515 C 0.94099 0.77896 0.19897 0.0
C3516 C 0.90823 0.7736 0.19814 0.0
C3517 C 0.90639 0.78178 0.15733 0.0
C3518 C 0.90469 0.78476 0.21376 0.0
C3519 C 0.89058 0.77887 0.22411 0.0
C3520 C 0.88005 0.76156 0.21931 0.0
C3521 C 0.88333 0.75066 0.20337 0.0
C3522 C 0.89718 0.75666 0.19283 0.0
H3523 H 0.90852 0.78804 0.14398 0.0
H3524 H 0.89863 0.76792 0.15321 0.0
H3525 H 0.89844 0.7894 0.16594 0.0
H3526 H 0.91311 0.79783 0.21822 0.0
H3527 H 0.88842 0.78749 0.23642 0.0
H3528 H 0.49553 0.28795 0.15053 0.0
H3529 H 0.49228 0.3132 0.13229 0.0
H3530 H 0.54876 0.33202 0.14109 0.0
H3531 H 0.55213 0.30707 0.15922 0.0
H3532 H 0.50427 0.35199 0.14433 0.0
H3533 H 0.53556 0.32844 0.08202 0.0
H3534 H 0.52731 0.31378 0.09905 0.0
H3535 H 0.54836 0.32893 0.10487 0.0
C3536 C 0.50727 0.2974 0.14848 0.0
C3537 C 0.52412 0.29532 0.1563 0.0
C3538 C 0.50538 0.3119 0.1381 0.0
C3539 C 0.52029 0.32448 0.13509 0.0
C3540 C 0.53706 0.32242 0.14294 0.0
H3541 H 0.5457 0.43032 0.10283 0.0
H3542 H 0.53727 0.40436 0.12009 0.0
C3543 C 0.53895 0.30809 0.15339 0.0
C3544 C 0.5186 0.33986 0.12387 0.0
H3545 H 0.53219 0.35888 0.0846 0.0
C3546 C 0.5102 0.35339 0.13116 0.0
C3547 C 0.52614 0.34171 0.10654 0.0
C3548 C 0.53472 0.32738 0.09752 0.0
C3549 C 0.5099 0.36901 0.12206 0.0
C3550 C 0.51818 0.3712 0.10523 0.0
C3551 C 0.52587 0.35731 0.09752 0.0
C3552 C 0.52012 0.38818 0.096 0.0
C3553 C 0.50082 0.38314 0.13055 0.0
C3554 C 0.51292 0.38809 0.07682 0.0
C3555 C 0.51755 0.40311 0.06701 0.0
C3556 C 0.52958 0.41848 0.07612 0.0
C3557 C 0.53596 0.41892 0.09562 0.0
C3558 C 0.53123 0.40399 0.10546 0.0
H3559 H 0.49198 0.37795 0.14103 0.0
H3560 H 0.51093 0.39463 0.1381 0.0
H3561 H 0.49293 0.38822 0.11904 0.0
H3562 H 0.50445 0.37604 0.06912 0.0
H3563 H 0.51284 0.40216 0.05186 0.0
H3564 H 0.96849 0.25663 0.33472 0.0
H3565 H 0.93787 0.25827 0.32513 0.0
H3566 H 0.95449 0.31288 0.31401 0.0
H3567 H 0.98554 0.31124 0.32349 0.0
H3568 H 0.91762 0.27834 0.341 0.0
H3569 H 0.92021 0.29392 0.26614 0.0
H3570 H 0.93812 0.28673 0.27959 0.0
H3571 H 0.93541 0.30958 0.28368 0.0
C3572 C 0.96582 0.26902 0.33004 0.0
C3573 C 0.97983 0.28378 0.32989 0.0
C3574 C 0.94809 0.26994 0.32456 0.0
C3575 C 0.94347 0.28562 0.31855 0.0
C3576 C 0.95742 0.30041 0.31813 0.0
H3577 H 0.83652 0.309 0.28635 0.0
H3578 H 0.86857 0.3114 0.29373 0.0
C3579 C 0.97531 0.29949 0.32366 0.0
C3580 C 0.92408 0.28643 0.31381 0.0
H3581 H 0.89303 0.2939 0.27866 0.0
C3582 C 0.91235 0.28175 0.32732 0.0
C3583 C 0.91682 0.29096 0.29603 0.0
C3584 C 0.92822 0.29543 0.28042 0.0
C3585 C 0.89401 0.28148 0.32371 0.0
C3586 C 0.88666 0.28564 0.30581 0.0
C3587 C 0.89839 0.29067 0.29238 0.0
C3588 C 0.86689 0.28426 0.30071 0.0
C3589 C 0.88272 0.27699 0.33943 0.0
C3590 C 0.85486 0.26819 0.3017 0.0
C3591 C 0.83647 0.26686 0.29762 0.0
C3592 C 0.82923 0.2815 0.29213 0.0
C3593 C 0.84131 0.29748 0.29068 0.0
C3594 C 0.8598 0.29883 0.29485 0.0
H3595 H 0.89069 0.27983 0.35381 0.0
H3596 H 0.87195 0.28469 0.33949 0.0
H3597 H 0.87668 0.26247 0.33708 0.0
H3598 H 0.85969 0.25648 0.30554 0.0
H3599 H 0.82794 0.25414 0.29866 0.0
H3600 H 0.04529 0.70373 0.64752 0.0
H3601 H 0.04544 0.67462 0.62951 0.0
H3602 H 0.98853 0.66184 0.62347 0.0
H3603 H 0.98838 0.6909 0.64215 0.0
H3604 H 0.02901 0.63751 0.63674 0.0
H3605 H 0.00339 0.65643 0.56675 0.0
H3606 H 0.01336 0.67291 0.58696 0.0
H3607 H 0.99132 0.66037 0.58671 0.0
C3608 C 0.03279 0.69464 0.64255 0.0
C3609 C 0.01683 0.69965 0.64638 0.0
C3610 C 0.0329 0.67796 0.6322 0.0
C3611 C 0.01702 0.66595 0.62486 0.0
C3612 C 1.001 0.67083 0.62884 0.0
H3613 H 0.99669 0.56105 0.55236 0.0
H3614 H 0.99378 0.58863 0.57196 0.0
C3615 C 1.00091 0.6874 0.63965 0.0
C3616 C 0.0174 0.64859 0.61287 0.0
H3617 H 0.00859 0.62702 0.56678 0.0
C3618 C 0.02449 0.63523 0.62146 0.0
C3619 C 0.01162 0.64548 0.59285 0.0
C3620 C 0.00459 0.65954 0.58262 0.0
C3621 C 0.02577 0.61897 0.61072 0.0
C3622 C 0.02014 0.61593 0.59067 0.0
C3623 C 0.01292 0.62921 0.5821 0.0
C3624 C 0.0219 0.59917 0.57841 0.0
C3625 C 0.03299 0.60501 0.62094 0.0
C3626 C 0.03864 0.59584 0.57511 0.0
C3627 C 0.04029 0.58026 0.56354 0.0
C3628 C 0.02526 0.56738 0.55529 0.0
C3629 C 0.00852 0.57063 0.55864 0.0
C3630 C 0.00685 0.58644 0.56982 0.0
H3631 H 0.03329 0.60763 0.63677 0.0
H3632 H 0.02494 0.59142 0.61587 0.0
H3633 H 0.04669 0.60508 0.61771 0.0
H3634 H 0.05049 0.6054 0.5814 0.0
H3635 H 0.05337 0.57813 0.5613 0.0
H3636 H 0.59309 0.76381 0.83959 0.0
H3637 H 0.62142 0.76449 0.82737 0.0
H3638 H 0.62021 0.8166 0.8098 0.0
H3639 H 0.59141 0.81594 0.82204 0.0
H3640 H 0.63164 0.7676 0.79023 0.0
H3641 H 0.66938 0.8245 0.84247 0.0
H3642 H 0.64777 0.81245 0.84586 0.0
H3643 H 0.64989 0.82839 0.82879 0.0
C3644 C 0.59868 0.77547 0.83305 0.0
C3645 C 0.5897 0.78984 0.83194 0.0
C3646 C 0.61505 0.77581 0.82601 0.0
C3647 C 0.62339 0.79067 0.8178 0.0
C3648 C 0.61438 0.80501 0.81629 0.0
H3649 H 0.73161 0.81256 0.78213 0.0
H3650 H 0.70189 0.81481 0.78982 0.0
C3651 C 0.59773 0.80457 0.82315 0.0
C3652 C 0.6414 0.79083 0.81102 0.0
H3653 H 0.68526 0.8116 0.82011 0.0
C3654 C 0.64332 0.77731 0.79675 0.0
C3655 C 0.65688 0.80342 0.81931 0.0
C3656 C 0.65605 0.81797 0.83506 0.0
C3657 C 0.65992 0.77608 0.79057 0.0
C3658 C 0.67555 0.78835 0.79927 0.0
C3659 C 0.67356 0.80207 0.81333 0.0
C3660 C 0.69396 0.78698 0.79431 0.0
C3661 C 0.66036 0.76179 0.77435 0.0
C3662 C 0.70003 0.77074 0.79449 0.0
C3663 C 0.71705 0.76941 0.78994 0.0
C3664 C 0.72887 0.78431 0.78521 0.0
C3665 C 0.72299 0.80069 0.78546 0.0
C3666 C 0.70587 0.802 0.78994 0.0
H3667 H 0.64747 0.758 0.76502 0.0
H3668 H 0.67083 0.76628 0.76529 0.0
H3669 H 0.66297 0.74957 0.7804 0.0
H3670 H 0.69169 0.759 0.79846 0.0
H3671 H 0.72103 0.75665 0.79049 0.0
H3672 H 0.45958 0.48909 0.71038 0.0
H3673 H 0.47063 0.49241 0.67932 0.0
H3674 H 0.44773 0.53913 0.67463 0.0
H3675 H 0.43632 0.53573 0.70556 0.0
H3676 H 0.44662 0.49674 0.64089 0.0
H3677 H 0.50479 0.55129 0.66881 0.0
H3678 H 0.49506 0.53526 0.68381 0.0
H3679 H 0.48377 0.55249 0.67708 0.0
C3680 C 0.45692 0.5001 0.70277 0.0
C3681 C 0.44711 0.51217 0.71046 0.0
C3682 C 0.46319 0.50193 0.685 0.0
C3683 C 0.46003 0.51603 0.67474 0.0
C3684 C 0.4503 0.52816 0.68236 0.0
H3685 H 0.48591 0.54122 0.56082 0.0
H3686 H 0.47305 0.54041 0.59132 0.0
C3687 C 0.44379 0.52618 0.7 0.0
C3688 C 0.46697 0.51807 0.65608 0.0
H3689 H 0.50054 0.54173 0.63549 0.0
C3690 C 0.45833 0.50664 0.63966 0.0
C3691 C 0.4823 0.53093 0.65459 0.0
C3692 C 0.49217 0.54322 0.67196 0.0
C3693 C 0.46467 0.50778 0.62175 0.0
C3694 C 0.48004 0.52057 0.62029 0.0
C3695 C 0.48866 0.53204 0.63668 0.0
C3696 C 0.48789 0.52144 0.60204 0.0
C3697 C 0.45515 0.49515 0.60445 0.0
C3698 C 0.5005 0.51113 0.59812 0.0
C3699 C 0.50792 0.51169 0.5809 0.0
C3700 C 0.50275 0.52245 0.56718 0.0
C3701 C 0.49005 0.53274 0.5711 0.0
C3702 C 0.48276 0.53233 0.58848 0.0
H3703 H 0.44284 0.48656 0.60769 0.0
H3704 H 0.45177 0.50292 0.5926 0.0
H3705 H 0.46401 0.4864 0.59927 0.0
H3706 H 0.50454 0.50258 0.60836 0.0
H3707 H 0.51755 0.50346 0.57821 0.0
H3708 H 0.77456 0.16734 0.01628 0.0
H3709 H 0.77976 0.18623 0.99054 0.0
H3710 H 0.75046 0.14272 0.94901 0.0
H3711 H 0.74445 0.12417 0.97475 0.0
H3712 H 0.79612 0.18317 0.95875 0.0
H3713 H 0.72511 0.18214 0.93825 0.0
H3714 H 0.73305 0.17394 0.95989 0.0
H3715 H 0.72945 0.15991 0.93716 0.0
C3716 C 0.76916 0.1619 0.00164 0.0
C3717 C 0.75893 0.14443 0.9974 0.0
C3718 C 0.77221 0.17264 0.98699 0.0
C3719 C 0.76526 0.16593 0.96796 0.0
C3720 C 0.75553 0.14828 0.96369 0.0
H3721 H 0.75957 0.20352 0.85899 0.0
H3722 H 0.77011 0.18701 0.88428 0.0
C3723 C 0.75211 0.1377 0.97836 0.0
C3724 C 0.76767 0.17747 0.95253 0.0
H3725 H 0.74464 0.19281 0.91624 0.0
C3726 C 0.7849 0.18537 0.94947 0.0
C3727 C 0.75296 0.18054 0.94073 0.0
C3728 C 0.73412 0.17385 0.9443 0.0
C3729 C 0.78773 0.19591 0.93445 0.0
C3730 C 0.77301 0.19821 0.92225 0.0
C3731 C 0.75588 0.19056 0.92548 0.0
C3732 C 0.77445 0.20947 0.90661 0.0
C3733 C 0.80625 0.20449 0.93156 0.0
C3734 C 0.77426 0.22771 0.91079 0.0
C3735 C 0.76793 0.23704 0.8965 0.0
C3736 C 0.76189 0.22821 0.87792 0.0
C3737 C 0.76414 0.21057 0.87325 0.0
C3738 C 0.7703 0.20119 0.88761 0.0
H3739 H 0.81639 0.20055 0.94166 0.0
H3740 H 0.80861 0.20065 0.91659 0.0
H3741 H 0.80781 0.21931 0.93372 0.0
H3742 H 0.77722 0.23418 0.92547 0.0
H3743 H 0.7665 0.25073 0.90027 0.0
H3744 H 0.16003 0.53223 0.19227 0.0
H3745 H 0.14535 0.53282 0.16034 0.0
H3746 H 0.09583 0.5321 0.18323 0.0
H3747 H 0.11048 0.5317 0.21568 0.0
H3748 H 0.11546 0.50397 0.14452 0.0
H3749 H 0.10153 0.57276 0.14606 0.0
H3750 H 0.11909 0.56733 0.16189 0.0
H3751 H 0.09657 0.56145 0.16662 0.0
C3752 C 0.14601 0.53226 0.19064 0.0
C3753 C 0.13626 0.53169 0.20641 0.0
C3754 C 0.13776 0.53275 0.17242 0.0
C3755 C 0.11973 0.53268 0.16975 0.0
C3756 C 0.10992 0.53245 0.18537 0.0
H3757 H 0.03581 0.52641 0.0851 0.0
H3758 H 0.05615 0.52676 0.11348 0.0
C3759 C 0.1182 0.53204 0.20373 0.0
C3760 C 0.11077 0.53074 0.15033 0.0
H3761 H 0.08638 0.55117 0.12027 0.0
C3762 C 0.10917 0.51426 0.13901 0.0
C3763 C 0.10306 0.54445 0.14345 0.0
C3764 C 0.10523 0.56258 0.15503 0.0
C3765 C 0.09871 0.51057 0.12124 0.0
C3766 C 0.09011 0.52394 0.11481 0.0
C3767 C 0.0928 0.54089 0.12559 0.0
C3768 C 0.07711 0.52038 0.09773 0.0
C3769 C 0.09628 0.49218 0.11009 0.0
C3770 C 0.08196 0.51573 0.07967 0.0
C3771 C 0.06987 0.51436 0.06342 0.0
C3772 C 0.05311 0.51853 0.065 0.0
C3773 C 0.04822 0.5226 0.08324 0.0
C3774 C 0.06003 0.52318 0.09951 0.0
H3775 H 0.10061 0.48233 0.11913 0.0
H3776 H 0.08224 0.48705 0.10405 0.0
H3777 H 0.10434 0.49301 0.09799 0.0
H3778 H 0.09524 0.51387 0.07806 0.0
H3779 H 0.07412 0.51105 0.04958 0.0
H3780 H 0.80635 0.83347 0.48554 0.0
H3781 H 0.80203 0.81972 0.45206 0.0
H3782 H 0.76145 0.84957 0.43871 0.0
H3783 H 0.76556 0.86331 0.47219 0.0
H3784 H 0.76837 0.79983 0.42761 0.0
H3785 H 0.8007 0.86307 0.40205 0.0
H3786 H 0.80369 0.85931 0.42696 0.0
H3787 H 0.78332 0.86439 0.41685 0.0
C3788 C 0.7964 0.837 0.47553 0.0
C3789 C 0.78637 0.84954 0.48152 0.0
C3790 C 0.79393 0.8291 0.45643 0.0
C3791 C 0.78155 0.83377 0.44292 0.0
C3792 C 0.77116 0.8459 0.44892 0.0
H3793 H 0.76271 0.81134 0.31875 0.0
H3794 H 0.76196 0.82165 0.35239 0.0
C3795 C 0.77349 0.85368 0.46807 0.0
C3796 C 0.7801 0.82646 0.42242 0.0
H3797 H 0.79011 0.83806 0.37875 0.0
C3798 C 0.7731 0.80815 0.41689 0.0
C3799 C 0.78618 0.83741 0.4085 0.0
C3800 C 0.79401 0.85713 0.41378 0.0
C3801 C 0.77198 0.80048 0.39771 0.0
C3802 C 0.77848 0.81133 0.38386 0.0
C3803 C 0.78526 0.82971 0.3894 0.0
C3804 C 0.77825 0.80404 0.36346 0.0
C3805 C 0.7635 0.78093 0.39236 0.0
C3806 C 0.78765 0.79062 0.35842 0.0
C3807 C 0.78809 0.7846 0.33906 0.0
C3808 C 0.77929 0.79205 0.32442 0.0
C3809 C 0.76974 0.80533 0.3296 0.0
C3810 C 0.76927 0.81127 0.34887 0.0
H3811 H 0.75507 0.77581 0.40322 0.0
H3812 H 0.75529 0.77872 0.37814 0.0
H3813 H 0.77399 0.77296 0.39148 0.0
H3814 H 0.79494 0.78506 0.36945 0.0
H3815 H 0.79552 0.77434 0.33559 0.0
H3816 H 0.46009 0.48719 0.80735 0.0
H3817 H 0.47409 0.49221 0.84069 0.0
H3818 H 0.45435 0.54097 0.84989 0.0
H3819 H 0.44033 0.53612 0.81651 0.0
H3820 H 0.49943 0.52404 0.8614 0.0
H3821 H 0.4355 0.5092 0.89163 0.0
H3822 H 0.43735 0.50274 0.86669 0.0
H3823 H 0.43764 0.52573 0.87512 0.0
C3824 C 0.45881 0.49905 0.8164 0.0
C3825 C 0.44902 0.51121 0.80927 0.0
C3826 C 0.46685 0.50191 0.83545 0.0
C3827 C 0.46509 0.51684 0.8478 0.0
C3828 C 0.45571 0.52926 0.84064 0.0
H3829 H 0.49196 0.54128 0.97189 0.0
H3830 H 0.48153 0.54183 0.93819 0.0
C3831 C 0.44779 0.5265 0.82153 0.0
C3832 C 0.47272 0.51908 0.86829 0.0
H3833 H 0.46143 0.51663 0.91361 0.0
C3834 C 0.49116 0.52248 0.87286 0.0
C3835 C 0.46188 0.5172 0.88318 0.0
C3836 C 0.44198 0.5134 0.87902 0.0
C3837 C 0.49909 0.52405 0.89198 0.0
C3838 C 0.48825 0.52155 0.90687 0.0
C3839 C 0.46978 0.51845 0.90225 0.0
C3840 C 0.49565 0.52191 0.92731 0.0
C3841 C 0.51899 0.52877 0.896 0.0
C3842 C 0.50722 0.51063 0.93258 0.0
C3843 C 0.51351 0.51054 0.95191 0.0
C3844 C 0.5079 0.52128 0.96645 0.0
C3845 C 0.49641 0.53264 0.96112 0.0
C3846 C 0.49041 0.53298 0.94181 0.0
H3847 H 0.52486 0.53599 0.88455 0.0
H3848 H 0.52344 0.53726 0.91 0.0
H3849 H 0.52419 0.51625 0.89638 0.0
H3850 H 0.51116 0.50163 0.92177 0.0
H3851 H 0.5225 0.50183 0.95542 0.0
H3852 H 0.74921 0.14586 0.0983 0.0
H3853 H 0.74723 0.16314 0.12853 0.0
H3854 H 0.79386 0.20147 0.12112 0.0
H3855 H 0.7956 0.18441 0.09023 0.0
H3856 H 0.77196 0.1702 0.16008 0.0
H3857 H 0.75828 0.23265 0.13305 0.0
H3858 H 0.75649 0.21203 0.11744 0.0
H3859 H 0.77781 0.22606 0.12568 0.0
C3860 C 0.75899 0.15803 0.10303 0.0
C3861 C 0.77261 0.16388 0.09211 0.0
C3862 C 0.75783 0.16783 0.12026 0.0
C3863 C 0.77035 0.1835 0.12684 0.0
C3864 C 0.78395 0.1895 0.11596 0.0
H3865 H 0.79519 0.23801 0.2402 0.0
H3866 H 0.79246 0.21641 0.21157 0.0
C3867 C 0.78496 0.17979 0.09846 0.0
C3868 C 0.76928 0.19317 0.14543 0.0
H3869 H 0.76411 0.23326 0.1668 0.0
C3870 C 0.77013 0.18396 0.16163 0.0
C3871 C 0.76659 0.21093 0.14709 0.0
C3872 C 0.76456 0.22097 0.12987 0.0
C3873 C 0.76857 0.19225 0.17973 0.0
C3874 C 0.76661 0.21026 0.1815 0.0
C3875 C 0.76556 0.21938 0.16525 0.0
C3876 C 0.76669 0.22046 0.20016 0.0
C3877 C 0.76891 0.18166 0.19667 0.0
C3878 C 0.75307 0.22975 0.20304 0.0
C3879 C 0.7549 0.24246 0.21896 0.0
C3880 C 0.77014 0.24557 0.23227 0.0
C3881 C 0.78326 0.23552 0.23006 0.0
C3882 C 0.78162 0.22311 0.21389 0.0
H3883 H 0.76467 0.16702 0.19202 0.0
H3884 H 0.78262 0.18409 0.20407 0.0
H3885 H 0.76023 0.18572 0.20714 0.0
H3886 H 0.7415 0.22782 0.19246 0.0
H3887 H 0.74467 0.25015 0.22066 0.0
H3888 H 0.1363 0.56476 0.29257 0.0
H3889 H 0.11711 0.55767 0.3174 0.0
H3890 H 0.13936 0.51113 0.32615 0.0
H3891 H 0.15859 0.51803 0.30144 0.0
H3892 H 0.09242 0.51949 0.31919 0.0
H3893 H 0.14642 0.54667 0.3794 0.0
H3894 H 0.14719 0.55437 0.35606 0.0
H3895 H 0.15052 0.53226 0.35925 0.0
C3896 C 0.13716 0.55309 0.29985 0.0
C3897 C 0.14897 0.54201 0.29519 0.0
C3898 C 0.12612 0.54897 0.31383 0.0
C3899 C 0.12687 0.53385 0.32333 0.0
C3900 C 0.13863 0.52279 0.31878 0.0
H3901 H 0.08381 0.532 0.43079 0.0
H3902 H 0.09461 0.51773 0.4033 0.0
C3903 C 0.14962 0.52683 0.30477 0.0
C3904 C 0.11603 0.53032 0.33883 0.0
H3905 H 0.11768 0.53904 0.3872 0.0
C3906 C 0.09787 0.52344 0.33413 0.0
C3907 C 0.12342 0.53518 0.35817 0.0
C3908 C 0.14295 0.54257 0.36369 0.0
C3909 C 0.08662 0.52225 0.34845 0.0
C3910 C 0.0938 0.52854 0.36771 0.0
C3911 C 0.11218 0.53419 0.37242 0.0
C3912 C 0.08271 0.53246 0.3827 0.0
C3913 C 0.06716 0.51479 0.34277 0.0
C3914 C 0.07176 0.54488 0.38005 0.0
C3915 C 0.06535 0.55293 0.39572 0.0
C3916 C 0.07001 0.54888 0.41431 0.0
C3917 C 0.07983 0.53538 0.41666 0.0
C3918 C 0.08605 0.52718 0.40096 0.0
H3919 H 0.06496 0.50432 0.33017 0.0
H3920 H 0.06086 0.50895 0.35476 0.0
H3921 H 0.06056 0.52573 0.33855 0.0
H3922 H 0.0693 0.54944 0.36616 0.0
H3923 H 0.05751 0.56299 0.3934 0.0
H3924 H 0.81542 0.8486 0.58657 0.0
H3925 H 0.81032 0.837 0.61709 0.0
H3926 H 0.758 0.84867 0.61164 0.0
H3927 H 0.76301 0.86047 0.58116 0.0
H3928 H 0.79975 0.85798 0.6509 0.0
H3929 H 0.75259 0.79412 0.62262 0.0
H3930 H 0.76797 0.80567 0.60822 0.0
H3931 H 0.74871 0.81422 0.61308 0.0
C3932 C 0.80278 0.84861 0.59177 0.0
C3933 C 0.78963 0.85547 0.5814 0.0
C3934 C 0.7999 0.842 0.60925 0.0
C3935 C 0.78375 0.84189 0.61656 0.0
C3936 C 0.77051 0.84851 0.60616 0.0
H3937 H 0.75588 0.818 0.73097 0.0
H3938 H 0.75624 0.83002 0.69971 0.0
C3939 C 0.77343 0.85529 0.58877 0.0
C3940 C 0.78103 0.83541 0.63541 0.0
H3941 H 0.75884 0.8009 0.65637 0.0
C3942 C 0.7907 0.84559 0.65212 0.0
C3943 C 0.76931 0.81917 0.63692 0.0
C3944 C 0.75908 0.80752 0.6193 0.0
C3945 C 0.78894 0.83993 0.67032 0.0
C3946 C 0.77728 0.8237 0.67183 0.0
C3947 C 0.76755 0.81351 0.65515 0.0
C3948 C 0.77644 0.81633 0.69045 0.0
C3949 C 0.79987 0.85103 0.68787 0.0
C3950 C 0.78767 0.80478 0.69546 0.0
C3951 C 0.78744 0.79796 0.71307 0.0
C3952 C 0.77606 0.80263 0.72615 0.0
C3953 C 0.76489 0.81435 0.72123 0.0
C3954 C 0.765 0.82109 0.7034 0.0
H3955 H 0.80762 0.86385 0.68447 0.0
H3956 H 0.79115 0.85405 0.69877 0.0
H3957 H 0.80915 0.84325 0.69439 0.0
H3958 H 0.79669 0.8011 0.68575 0.0
H3959 H 0.79633 0.78907 0.71651 0.0
H3960 H 0.75077 0.46784 0.48255 0.0
H3961 H 0.72576 0.48299 0.48465 0.0
H3962 H 0.69511 0.43566 0.50248 0.0
H3963 H 0.71985 0.42038 0.50034 0.0
H3964 H 0.68416 0.46498 0.46685 0.0
H3965 H 0.70336 0.48446 0.5455 0.0
H3966 H 0.71921 0.48085 0.5292 0.0
H3967 H 0.7049 0.46204 0.53643 0.0
C3968 C 0.73858 0.46063 0.48663 0.0
C3969 C 0.73708 0.443 0.49127 0.0
C3970 C 0.72443 0.46925 0.48776 0.0
C3971 C 0.70888 0.46029 0.49368 0.0
C3972 C 0.70715 0.44256 0.49777 0.0
H3973 H 0.61445 0.46275 0.53378 0.0
H3974 H 0.63813 0.4555 0.51595 0.0
C3975 C 0.72119 0.43389 0.49648 0.0
C3976 C 0.69457 0.46954 0.49684 0.0
H3977 H 0.67362 0.48446 0.5332 0.0
C3978 C 0.68192 0.4697 0.48124 0.0
C3979 C 0.69207 0.47564 0.51567 0.0
C3980 C 0.70565 0.4759 0.5327 0.0
C3981 C 0.66593 0.47471 0.48429 0.0
C3982 C 0.66291 0.47945 0.50327 0.0
C3983 C 0.67612 0.48052 0.51868 0.0
C3984 C 0.64579 0.48225 0.50808 0.0
C3985 C 0.65202 0.47402 0.46753 0.0
C3986 C 0.64227 0.49949 0.50889 0.0
C3987 C 0.62908 0.50373 0.5193 0.0
C3988 C 0.61933 0.49071 0.52896 0.0
C3989 C 0.62199 0.47305 0.52674 0.0
C3990 C 0.63524 0.46884 0.51634 0.0
H3991 H 0.65679 0.47071 0.45355 0.0
H3992 H 0.64017 0.46377 0.46892 0.0
H3993 H 0.64792 0.48716 0.46766 0.0
H3994 H 0.65063 0.50998 0.50284 0.0
H3995 H 0.62744 0.51753 0.52091 0.0
H3996 H 0.21921 0.10955 0.50583 0.0
H3997 H 0.1905 0.08986 0.50675 0.0
H3998 H 0.1649 0.135 0.50401 0.0
H3999 H 0.19347 0.15483 0.50326 0.0
H4000 H 0.16472 0.09875 0.53697 0.0
H4001 H 0.1387 0.09179 0.45939 0.0
H4002 H 0.16213 0.09644 0.46764 0.0
H4003 H 0.14963 0.11371 0.47102 0.0
C4004 C 0.20746 0.11527 0.50526 0.0
C4005 C 0.20861 0.13376 0.50447 0.0
C4006 C 0.19111 0.10402 0.50584 0.0
C4007 C 0.17569 0.11104 0.50538 0.0
C4008 C 0.17672 0.12938 0.50428 0.0
H4009 H 0.06414 0.06893 0.49974 0.0
H4010 H 0.09359 0.08602 0.4979 0.0
C4011 C 0.19304 0.14067 0.50388 0.0
C4012 C 0.15849 0.09934 0.50665 0.0
H4013 H 0.11932 0.07904 0.48016 0.0
C4014 C 0.15477 0.0943 0.52459 0.0
C4015 C 0.14561 0.09385 0.49047 0.0
C4016 C 0.14912 0.0991 0.47096 0.0
C4017 C 0.13819 0.08418 0.5269 0.0
C4018 C 0.12527 0.07843 0.51062 0.0
C4019 C 0.12919 0.08337 0.49263 0.0
C4020 C 0.10739 0.06782 0.51193 0.0
C4021 C 0.13455 0.08046 0.54689 0.0
C4022 C 0.10524 0.05174 0.52026 0.0
C4023 C 0.08834 0.04214 0.52182 0.0
C4024 C 0.07321 0.04806 0.51445 0.0
C4025 C 0.07544 0.06388 0.50556 0.0
C4026 C 0.09232 0.07369 0.50445 0.0
H4027 H 0.1434 0.09033 0.55805 0.0
H4028 H 0.12064 0.08081 0.549 0.0
H4029 H 0.13701 0.06697 0.5492 0.0
H4030 H 0.11663 0.04662 0.52565 0.0
H4031 H 0.08722 0.03024 0.52906 0.0
H4032 H 0.14043 0.96828 0.80424 0.0
H4033 H 0.15767 0.94468 0.80368 0.0
H4034 H 0.19307 0.97401 0.76923 0.0
H4035 H 0.17623 0.99795 0.77025 0.0
H4036 H 0.1627 0.9238 0.77336 0.0
H4037 H 0.22789 0.96128 0.80911 0.0
H4038 H 0.20805 0.97028 0.80965 0.0
H4039 H 0.22 0.97158 0.78909 0.0
C4040 C 0.152 0.9698 0.79671 0.0
C4041 C 0.15703 0.98501 0.78735 0.0
C4042 C 0.16185 0.95632 0.79644 0.0
C4043 C 0.17686 0.95775 0.78676 0.0
C4044 C 0.18187 0.97288 0.77731 0.0
H4045 H 0.23617 0.88654 0.73827 0.0
H4046 H 0.2248 0.91257 0.75101 0.0
C4047 C 0.17214 0.98648 0.77776 0.0
C4048 C 0.18646 0.94279 0.78529 0.0
H4049 H 0.2276 0.93279 0.79093 0.0
C4050 C 0.17684 0.92571 0.77751 0.0
C4051 C 0.20491 0.94531 0.79077 0.0
C4052 C 0.21578 0.96307 0.80031 0.0
C4053 C 0.18527 0.91124 0.77428 0.0
C4054 C 0.20378 0.91393 0.77907 0.0
C4055 C 0.21339 0.93085 0.78731 0.0
C4056 C 0.21336 0.89958 0.77397 0.0
C4057 C 0.17443 0.89333 0.76505 0.0
C4058 C 0.21122 0.88402 0.78319 0.0
C4059 C 0.2178 0.86924 0.77602 0.0
C4060 C 0.22639 0.86987 0.75947 0.0
C4061 C 0.2294 0.8858 0.75095 0.0
C4062 C 0.22302 0.90062 0.75825 0.0
H4063 H 0.16071 0.89422 0.75961 0.0
H4064 H 0.18072 0.88792 0.75293 0.0
H4065 H 0.17375 0.88364 0.7758 0.0
H4066 H 0.2038 0.88305 0.79537 0.0
H4067 H 0.21539 0.85703 0.78277 0.0
H4068 H 0.334 0.96017 0.98689 0.0
H4069 H 0.36525 0.96827 0.98396 0.0
H4070 H 0.378 0.96421 0.04419 0.0
H4071 H 0.3465 0.95548 0.0473 0.0
H4072 H 0.38723 0.99821 0.00448 0.0
H4073 H 0.41042 0.93545 0.01705 0.0
H4074 H 0.38743 0.93602 0.01047 0.0
H4075 H 0.3975 0.94273 0.03488 0.0
C4076 C 0.34339 0.96096 -0.00042 0.0
C4077 C 0.33788 0.95731 0.01742 0.0
C4078 C 0.36119 0.96545 0.99778 0.0
C4079 C 0.37366 0.96646 0.01378 0.0
C4080 C 0.36834 0.96302 0.03165 0.0
H4081 H 0.47967 0.01885 0.04602 0.0
H4082 H 0.44803 0.0052 0.04346 0.0
C4083 C 0.35045 0.95833 0.03346 0.0
C4084 C 0.39221 0.97284 0.01212 0.0
H4085 H 0.43272 0.96214 0.01902 0.0
C4086 C 0.39719 0.99029 0.00742 0.0
C4087 C 0.40488 0.96221 0.01573 0.0
C4088 C 0.39981 0.94299 0.01963 0.0
C4089 C 0.4149 0.99779 0.0071 0.0
C4090 C 0.42758 0.98752 0.01177 0.0
C4091 C 0.42265 0.96985 0.01572 0.0
C4092 C 0.44618 0.99528 0.0133 0.0
C4093 C 0.4201 0.01673 0.00232 0.0
C4094 C 0.45499 0.994 0.99709 0.0
C4095 C 0.47276 0.00171 -0.00146 0.0
C4096 C 0.48157 0.01062 0.01618 0.0
C4097 C 0.47279 0.01192 0.0324 0.0
C4098 C 0.45498 0.00421 0.03095 0.0
H4099 H 0.40843 0.02259 0.99815 0.0
H4100 H 0.42822 0.02531 0.01495 0.0
H4101 H 0.42834 0.01694 0.99034 0.0
H4102 H 0.44812 0.9871 0.98345 0.0
H4103 H 0.47969 1.00059 0.98603 0.0
H4104 H 0.88052 0.58085 0.78481 0.0
H4105 H 0.86404 0.60506 0.78383 0.0
H4106 H 0.82646 0.57776 0.81751 0.0
H4107 H 0.84285 0.55335 0.81848 0.0
H4108 H 0.81669 0.58928 0.7747 0.0
H4109 H 0.85375 0.64112 0.83333 0.0
H4110 H 0.86606 0.6273 0.82024 0.0
H4111 H 0.85054 0.61731 0.83513 0.0
C4112 C 0.86906 0.58032 0.79247 0.0
C4113 C 0.86288 0.56552 0.80182 0.0
C4114 C 0.85969 0.59401 0.79186 0.0
C4115 C 0.84433 0.59302 0.80083 0.0
C4116 C 0.83844 0.57858 0.81073 0.0
H4117 H 0.78039 0.67042 0.76991 0.0
H4118 H 0.79127 0.64968 0.79027 0.0
C4119 C 0.84773 0.56479 0.81122 0.0
C4120 C 0.83372 0.60643 0.79803 0.0
H4121 H 0.83598 0.65118 0.80851 0.0
C4122 C 0.82035 0.60269 0.78246 0.0
C4123 C 0.83888 0.62373 0.80824 0.0
C4124 C 0.85304 0.62772 0.82527 0.0
C4125 C 0.81289 0.61643 0.77578 0.0
C4126 C 0.81905 0.63404 0.78508 0.0
C4127 C 0.83143 0.63754 0.80157 0.0
C4128 C 0.8145 0.64903 0.77599 0.0
C4129 C 0.79957 0.61242 0.75793 0.0
C4130 C 0.82432 0.65548 0.76166 0.0
C4131 C 0.81806 0.66699 0.74987 0.0
C4132 C 0.80204 0.67215 0.75254 0.0
C4133 C 0.79276 0.66644 0.76764 0.0
C4134 C 0.79897 0.65482 0.77932 0.0
H4135 H 0.79519 0.59779 0.75333 0.0
H4136 H 0.78782 0.61821 0.76049 0.0
H4137 H 0.80551 0.61877 0.746 0.0
H4138 H 0.83633 0.65088 0.75902 0.0
H4139 H 0.82551 0.67161 0.73853 0.0
H4140 H 0.79682 0.61806 0.0191 0.0
H4141 H 0.82068 0.60116 0.01976 0.0
H4142 H 0.85279 0.64267 0.99424 0.0
H4143 H 0.82931 0.65983 0.99402 0.0
H4144 H 0.83739 0.58741 0.99087 0.0
H4145 H 0.88523 0.63857 0.04139 0.0
H4146 H 0.86212 0.6394 0.03702 0.0
H4147 H 0.87702 0.64726 0.02034 0.0
C4148 C 0.80899 0.6236 0.01368 0.0
C4149 C 0.81124 0.64037 0.00667 0.0
C4150 C 0.82257 0.61391 0.01401 0.0
C4151 C 0.8386 0.6208 0.00733 0.0
C4152 C 0.84069 0.6373 -0.00011 0.0
H4153 H 0.93908 0.5874 0.00829 0.0
H4154 H 0.91286 0.59889 0.99713 0.0
C4155 C 0.82721 0.64706 -0.00029 0.0
C4156 C 0.85323 0.61084 0.00828 0.0
H4157 H 0.89629 0.61451 0.02678 0.0
C4158 C 0.85027 0.59331 -0.00127 0.0
C4159 C 0.87001 0.61855 0.01859 0.0
C4160 C 0.87377 0.6369 0.03007 0.0
C4161 C 0.86375 0.58335 -0.00091 0.0
C4162 C 0.88051 0.59115 0.0093 0.0
C4163 C 0.88347 0.60868 0.01873 0.0
C4164 C 0.89498 0.58118 0.01173 0.0
C4165 C 0.86003 0.56466 0.98849 0.0
C4166 C 0.89343 0.56702 0.02307 0.0
C4167 C 0.9084 0.5606 0.02955 0.0
C4168 C 0.92501 0.56817 0.02461 0.0
C4169 C 0.92632 0.5813 0.01205 0.0
C4170 C 0.91139 0.58785 0.00572 0.0
H4171 H 0.84834 0.56243 0.97737 0.0
H4172 H 0.87162 0.56202 0.98152 0.0
H4173 H 0.85727 0.55481 -0.00112 0.0
H4174 H 0.88095 0.56189 0.0281 0.0
H4175 H 0.90723 0.55054 0.03938 0.0
H4176 H 0.18439 0.07768 0.78895 0.0
H4177 H 0.20514 0.10637 0.7903 0.0
H4178 H 0.16152 0.13297 0.77966 0.0
H4179 H 0.14066 0.10442 0.77814 0.0
H4180 H 0.20365 0.13016 0.7569 0.0
H4181 H 0.19616 0.16221 0.82921 0.0
H4182 H 0.19172 0.13812 0.82312 0.0
H4183 H 0.17647 0.15094 0.81371 0.0
C4184 C 0.17919 0.08964 0.78702 0.0
C4185 C 0.16087 0.08875 0.78336 0.0
C4186 C 0.19106 0.10599 0.78781 0.0
C4187 C 0.1848 0.12171 0.78519 0.0
C4188 C 0.16655 0.12096 0.78187 0.0
H4189 H 0.22769 0.23336 0.78698 0.0
H4190 H 0.21077 0.20382 0.789 0.0
C4191 C 0.15468 0.10462 0.78094 0.0
C4192 C 0.19731 0.13877 0.78482 0.0
H4193 H 0.21373 0.17991 0.81011 0.0
C4194 C 0.20602 0.14107 0.76854 0.0
C4195 C 0.20006 0.1529 0.79995 0.0
C4196 C 0.19071 0.15103 0.81758 0.0
C4197 C 0.21705 0.15745 0.76665 0.0
C4198 C 0.22009 0.17164 0.78193 0.0
C4199 C 0.21156 0.16908 0.79842 0.0
C4200 C 0.23098 0.18965 0.78068 0.0
C4201 C 0.22451 0.15953 0.74787 0.0
C4202 C 0.24816 0.19179 0.77535 0.0
C4203 C 0.25773 0.20883 0.7733 0.0
C4204 C 0.25066 0.22418 0.77745 0.0
C4205 C 0.23372 0.22197 0.78355 0.0
C4206 C 0.22397 0.20498 0.78488 0.0
H4207 H 0.21666 0.14969 0.73599 0.0
H4208 H 0.22485 0.17321 0.74378 0.0
H4209 H 0.23818 0.15704 0.74931 0.0
H4210 H 0.25415 0.18027 0.77258 0.0
H4211 H 0.27044 0.20985 0.76812 0.0
H4212 H 0.35561 0.96413 0.30661 0.0
H4213 H 0.34517 0.93251 0.30965 0.0
H4214 H 0.33021 0.92166 0.24826 0.0
H4215 H 0.34119 0.95327 0.24501 0.0
H4216 H 0.31089 0.91389 0.29888 0.0
H4217 H 0.35883 0.88366 0.26011 0.0
H4218 H 0.36275 0.90722 0.26905 0.0
H4219 H 0.34895 0.89874 0.24668 0.0
C4220 C 0.35008 0.95495 0.29377 0.0
C4221 C 0.34892 0.9609 0.27555 0.0
C4222 C 0.34428 0.93702 0.29555 0.0
C4223 C 0.33723 0.92501 0.27915 0.0
C4224 C 0.33606 0.93088 0.26095 0.0
H4225 H 0.27168 0.8232 0.24961 0.0
H4226 H 0.28569 0.85531 0.25413 0.0
C4227 C 0.34215 0.94881 0.25911 0.0
C4228 C 0.33002 0.90645 0.28109 0.0
H4229 H 0.33174 0.86389 0.26384 0.0
C4230 C 0.31556 0.9029 0.2915 0.0
C4231 C 0.33648 0.89239 0.27163 0.0
C4232 C 0.35273 0.89567 0.26141 0.0
C4233 C 0.30666 0.88534 0.29171 0.0
C4234 C 0.31245 0.87149 0.28115 0.0
C4235 C 0.32738 0.87491 0.27158 0.0
C4236 C 0.30302 0.85319 0.27956 0.0
C4237 C 0.29093 0.88158 0.30267 0.0
C4238 C 0.30849 0.84204 0.29242 0.0
C4239 C 0.30083 0.82401 0.28969 0.0
C4240 C 0.28771 0.8173 0.27417 0.0
C4241 C 0.28192 0.82849 0.26153 0.0
C4242 C 0.28973 0.84657 0.26418 0.0
H4243 H 0.2885 0.89394 0.31071 0.0
H4244 H 0.27894 0.8753 0.29252 0.0
H4245 H 0.29305 0.87187 0.31296 0.0
H4246 H 0.31888 0.84722 0.30423 0.0
H4247 H 0.30516 0.81528 0.29957 0.0
H4248 H 0.52995 0.32287 0.56765 0.0
H4249 H 0.52409 0.34892 0.55187 0.0
H4250 H 0.56633 0.3834 0.59041 0.0
H4251 H 0.57233 0.35778 0.60585 0.0
H4252 H 0.51403 0.3801 0.56508 0.0
H4253 H 0.57922 0.39894 0.54021 0.0
H4254 H 0.57216 0.37768 0.5489 0.0
H4255 H 0.58163 0.39746 0.56552 0.0
C4256 C 0.53816 0.33596 0.57258 0.0
C4257 C 0.55174 0.33799 0.58806 0.0
C4258 C 0.53472 0.35095 0.56358 0.0
C4259 C 0.54493 0.36836 0.5696 0.0
C4260 C 0.55846 0.37027 0.585 0.0
H4261 H 0.54992 0.48049 0.55481 0.0
H4262 H 0.55279 0.45106 0.5639 0.0
C4263 C 0.56182 0.35544 0.59398 0.0
C4264 C 0.5414 0.38471 0.56046 0.0
H4265 H 0.56227 0.42213 0.5425 0.0
C4266 C 0.52454 0.38913 0.5599 0.0
C4267 C 0.55493 0.39668 0.55341 0.0
C4268 C 0.57293 0.39235 0.55182 0.0
C4269 C 0.52119 0.40537 0.55356 0.0
C4270 C 0.53501 0.41771 0.54745 0.0
C4271 C 0.55166 0.41298 0.5474 0.0
C4272 C 0.53277 0.4358 0.5417 0.0
C4273 C 0.50301 0.4095 0.55414 0.0
C4274 C 0.52072 0.43741 0.52589 0.0
C4275 C 0.51918 0.45439 0.52045 0.0
C4276 C 0.52949 0.47039 0.53073 0.0
C4277 C 0.5416 0.46868 0.54648 0.0
C4278 C 0.54328 0.45173 0.55176 0.0
H4279 H 0.49495 0.40065 0.56291 0.0
H4280 H 0.50388 0.42369 0.56006 0.0
H4281 H 0.496 0.40745 0.53931 0.0
H4282 H 0.51267 0.42549 0.5175 0.0
H4283 H 0.50997 0.45489 0.50806 0.0
H4284 H 0.43114 0.72871 0.40448 0.0
H4285 H 0.40545 0.73224 0.38321 0.0
H4286 H 0.43544 0.78097 0.36765 0.0
H4287 H 0.4614 0.77732 0.38871 0.0
H4288 H 0.38676 0.75898 0.38448 0.0
H4289 H 0.41457 0.75521 0.3151 0.0
H4290 H 0.42537 0.74905 0.33662 0.0
H4291 H 0.42701 0.77228 0.33333 0.0
C4292 C 0.43239 0.74014 0.39645 0.0
C4293 C 0.4485 0.75266 0.39831 0.0
C4294 C 0.4176 0.74216 0.38425 0.0
C4295 C 0.4184 0.75674 0.37347 0.0
C4296 C 0.43446 0.76934 0.37535 0.0
H4297 H 0.33882 0.78532 0.29009 0.0
H4298 H 0.36577 0.78412 0.31086 0.0
C4299 C 0.44933 0.76728 0.38752 0.0
C4300 C 0.40224 0.75886 0.36088 0.0
H4301 H 0.3859 0.76141 0.31441 0.0
C4302 C 0.3866 0.75948 0.36914 0.0
C4303 C 0.40191 0.75977 0.34085 0.0
C4304 C 0.41805 0.7589 0.33087 0.0
C4305 C 0.37083 0.76106 0.35813 0.0
C4306 C 0.37031 0.76138 0.33797 0.0
C4307 C 0.38606 0.76105 0.32976 0.0
C4308 C 0.35367 0.76202 0.32517 0.0
C4309 C 0.35508 0.76288 0.36849 0.0
C4310 C 0.3377 0.74985 0.32579 0.0
C4311 C 0.32215 0.75075 0.31412 0.0
C4312 C 0.3222 0.76348 0.30103 0.0
C4313 C 0.33827 0.77526 0.29991 0.0
C4314 C 0.35375 0.7746 0.31186 0.0
H4315 H 0.35923 0.76863 0.38375 0.0
H4316 H 0.347 0.77155 0.36155 0.0
H4317 H 0.34668 0.74941 0.36841 0.0
H4318 H 0.33721 0.73952 0.33526 0.0
H4319 H 0.31007 0.74134 0.31523 0.0
H4320 H 0.0737 0.73424 0.06571 0.0
H4321 H 0.06934 0.70189 0.05663 0.0
H4322 H 0.01869 0.69442 0.07774 0.0
H4323 H 0.02312 0.72702 0.08731 0.0
H4324 H 0.06247 0.67348 0.08242 0.0
H4325 H 0.00967 0.66641 0.02097 0.0
H4326 H 0.02452 0.68752 0.02968 0.0
H4327 H 0.00689 0.67915 0.04296 0.0
C4328 C 0.06152 0.72583 0.06836 0.0
C4329 C 0.04874 0.73349 0.07722 0.0
C4330 C 0.05908 0.7072 0.06317 0.0
C4331 C 0.04363 0.69552 0.06629 0.0
C4332 C 0.03069 0.70305 0.07496 0.0
H4333 H 0.00773 0.57815 0.04203 0.0
H4334 H 0.01034 0.6104 0.05088 0.0
C4335 C 0.03326 0.72176 0.08049 0.0
C4336 C 0.04145 0.67553 0.06091 0.0
H4337 H 0.01801 0.63981 0.02935 0.0
C4338 C 0.05273 0.66615 0.07081 0.0
C4339 C 0.0288 0.66578 0.04574 0.0
C4340 C 0.0168 0.67514 0.03405 0.0
C4341 C 0.05156 0.64748 0.06619 0.0
C4342 C 0.039 0.63772 0.05092 0.0
C4343 C 0.02766 0.6471 0.04105 0.0
C4344 C 0.03741 0.61785 0.04512 0.0
C4345 C 0.06358 0.63826 0.07805 0.0
C4346 C 0.05161 0.61094 0.03858 0.0
C4347 C 0.05011 0.59237 0.0334 0.0
C4348 C 0.03443 0.58 0.03468 0.0
C4349 C 0.02018 0.58701 0.04108 0.0
C4350 C 0.0216 0.6056 0.04606 0.0
H4351 H 0.0692 0.64643 0.09201 0.0
H4352 H 0.0564 0.62497 0.0809 0.0
H4353 H 0.07472 0.6361 0.07004 0.0
H4354 H 0.06389 0.61994 0.03733 0.0
H4355 H 0.06131 0.58775 0.02848 0.0
H4356 H 0.07274 0.2586 0.92896 0.0
H4357 H 0.09661 0.26086 0.9087 0.0
H4358 H 0.06101 0.26981 0.86124 0.0
H4359 H 0.03707 0.26782 0.88153 0.0
H4360 H 0.10033 0.24122 0.87479 0.0
H4361 H 0.10191 0.31223 0.86371 0.0
H4362 H 0.09005 0.30166 0.88159 0.0
H4363 H 0.08059 0.29788 0.85679 0.0
C4364 C 0.06994 0.26109 0.91422 0.0
C4365 C 0.05292 0.26315 0.90698 0.0
C4366 C 0.08364 0.26233 0.90261 0.0
C4367 C 0.08077 0.26576 0.88346 0.0
C4368 C 0.06372 0.26751 0.87606 0.0
H4369 H 0.14877 0.28677 0.79426 0.0
H4370 H 0.12355 0.27679 0.81151 0.0
C4371 C 0.04998 0.26628 0.88768 0.0
C4372 C 0.09565 0.26765 0.87138 0.0
H4373 H 0.11965 0.29687 0.84559 0.0
C4374 C 0.10457 0.2534 0.86843 0.0
C4375 C 0.10133 0.28357 0.86312 0.0
C4376 C 0.09311 0.29978 0.86658 0.0
C4377 C 0.11872 0.25454 0.85722 0.0
C4378 C 0.12427 0.27041 0.84886 0.0
C4379 C 0.11535 0.28463 0.85184 0.0
C4380 C 0.13942 0.2729 0.83721 0.0
C4381 C 0.1274 0.23863 0.85409 0.0
C4382 C 0.15681 0.27342 0.84556 0.0
C4383 C 0.17128 0.27897 0.83558 0.0
C4384 C 0.16862 0.28412 0.81708 0.0
C4385 C 0.15119 0.28258 0.80835 0.0
C4386 C 0.13677 0.27702 0.81828 0.0
H4387 H 0.11918 0.22618 0.85778 0.0
H4388 H 0.12996 0.23639 0.83892 0.0
H4389 H 0.14029 0.24127 0.86336 0.0
H4390 H 0.15929 0.27066 0.86025 0.0
H4391 H 0.18457 0.28049 0.84284 0.0
H4392 H 0.54239 0.74243 0.86933 0.0
H4393 H 0.54152 0.7147 0.8844 0.0
H4394 H 0.52406 0.73961 0.93449 0.0
H4395 H 0.52474 0.76715 0.91959 0.0
H4396 H 0.55907 0.70784 0.91961 0.0
H4397 H 0.48646 0.69361 0.9197 0.0
H4398 H 0.49747 0.70967 0.90555 0.0
H4399 H 0.49679 0.7158 0.93073 0.0
C4400 C 0.53831 0.74199 0.88354 0.0
C4401 C 0.53351 0.75707 0.89315 0.0
C4402 C 0.53789 0.72612 0.89218 0.0
C4403 C 0.53248 0.72491 0.91052 0.0
C4404 C 0.52797 0.74003 0.92021 0.0
H4405 H 0.51764 0.65152 0.99466 0.0
H4406 H 0.5263 0.6775 0.9775 0.0
C4407 C 0.52844 0.75586 0.91166 0.0
C4408 C 0.53134 0.70792 0.91962 0.0
H4409 H 0.50274 0.67728 0.9395 0.0
C4410 C 0.54671 0.70104 0.92377 0.0
C4411 C 0.51522 0.69887 0.92495 0.0
C4412 C 0.49801 0.70473 0.91984 0.0
C4413 C 0.54646 0.68588 0.93375 0.0
C4414 C 0.53047 0.67736 0.93973 0.0
C4415 C 0.51506 0.68393 0.93512 0.0
C4416 C 0.52927 0.66186 0.95121 0.0
C4417 C 0.56334 0.67932 0.9384 0.0
C4418 C 0.52873 0.64439 0.94243 0.0
C4419 C 0.52385 0.62947 0.95232 0.0
C4420 C 0.51953 0.63178 0.97117 0.0
C4421 C 0.52133 0.64934 0.98033 0.0
C4422 C 0.52611 0.6642 0.97046 0.0
H4423 H 0.57493 0.68807 0.93387 0.0
H4424 H 0.5658 0.67871 0.9541 0.0
H4425 H 0.56199 0.66552 0.93105 0.0
H4426 H 0.53089 0.64222 0.92751 0.0
H4427 H 0.52208 0.6161 0.94471 0.0
H4428 H 0.06548 0.73113 0.7268 0.0
H4429 H 0.09654 0.73406 0.74078 0.0
H4430 H 0.11196 0.77845 0.70888 0.0
H4431 H 0.08118 0.77539 0.69489 0.0
H4432 H 0.12565 0.7305 0.72155 0.0
H4433 H 0.13845 0.79846 0.7617 0.0
H4434 H 0.11638 0.78595 0.75332 0.0
H4435 H 0.12929 0.79794 0.73717 0.0
C4436 C 0.07543 0.74187 0.72328 0.0
C4437 C 0.07069 0.75332 0.71006 0.0
C4438 C 0.09329 0.74343 0.73111 0.0
C4439 C 0.10686 0.75666 0.72619 0.0
C4440 C 0.10195 0.76836 0.71337 0.0
H4441 H 0.22247 0.78388 0.73846 0.0
H4442 H 0.19059 0.78104 0.73028 0.0
C4443 C 0.08424 0.76662 0.70535 0.0
C4444 C 0.12618 0.75767 0.73334 0.0
H4445 H 0.16393 0.7865 0.75558 0.0
C4446 C 0.13392 0.7427 0.72921 0.0
C4447 C 0.13728 0.77354 0.74333 0.0
C4448 C 0.12992 0.78984 0.74933 0.0
C4449 C 0.15223 0.74335 0.73417 0.0
C4450 C 0.16336 0.75934 0.74378 0.0
C4451 C 0.1556 0.77422 0.74816 0.0
C4452 C 0.18307 0.76099 0.74905 0.0
C4453 C 0.15971 0.72707 0.72846 0.0
C4454 C 0.18986 0.75093 0.76266 0.0
C4455 C 0.20827 0.75279 0.76769 0.0
C4456 C 0.22058 0.76447 0.75899 0.0
C4457 C 0.21366 0.77456 0.74542 0.0
C4458 C 0.19528 0.77297 0.74069 0.0
H4459 H 0.15026 0.71705 0.71798 0.0
H4460 H 0.17216 0.73098 0.72209 0.0
H4461 H 0.16284 0.72059 0.74143 0.0
H4462 H 0.18089 0.74181 0.76967 0.0
H4463 H 0.21278 0.74517 0.77856 0.0
H4464 H 0.06097 0.34802 0.39778 0.0
H4465 H 0.06408 0.37566 0.42017 0.0
H4466 H 0.00812 0.37364 0.40842 0.0
H4467 H 0.00488 0.34621 0.38659 0.0
H4468 H 0.05668 0.4092 0.4154 0.0
H4469 H 0.01424 0.37825 0.46632 0.0
H4470 H 0.02244 0.36506 0.44794 0.0
H4471 H 0.00317 0.37437 0.44222 0.0
C4472 C 0.04933 0.35345 0.40003 0.0
C4473 C 0.03264 0.34464 0.39044 0.0
C4474 C 0.05112 0.36929 0.41285 0.0
C4475 C 0.03626 0.37664 0.41644 0.0
C4476 C 0.01974 0.36809 0.40647 0.0
H4477 H 0.00816 0.46928 0.47727 0.0
H4478 H 0.00991 0.44155 0.45737 0.0
C4479 C 0.01794 0.35234 0.3938 0.0
C4480 C 0.03778 0.39332 0.43029 0.0
H4481 H 0.01989 0.41032 0.46882 0.0
C4482 C 0.04881 0.40937 0.42724 0.0
C4483 C 0.02758 0.39372 0.44587 0.0
C4484 C 0.01634 0.37689 0.45093 0.0
C4485 C 0.04931 0.42578 0.43868 0.0
C4486 C 0.03863 0.42625 0.4538 0.0
C4487 C 0.02797 0.41012 0.45717 0.0
C4488 C 0.03784 0.44334 0.46588 0.0
C4489 C 0.06075 0.44266 0.434 0.0
C4490 C 0.05288 0.45365 0.47755 0.0
C4491 C 0.05187 0.46955 0.48892 0.0
C4492 C 0.03581 0.47546 0.48886 0.0
C4493 C 0.02074 0.46511 0.47741 0.0
C4494 C 0.02174 0.44923 0.46608 0.0
H4495 H 0.06517 0.44079 0.41958 0.0
H4496 H 0.05355 0.4539 0.43455 0.0
H4497 H 0.07268 0.44652 0.44481 0.0
H4498 H 0.06538 0.44929 0.47806 0.0
H4499 H 0.0636 0.47718 0.49785 0.0
H4500 H 0.45639 0.27664 0.19177 0.0
H4501 H 0.42956 0.27859 0.20604 0.0
H4502 H 0.43831 0.23689 0.24053 0.0
H4503 H 0.46596 0.23547 0.22665 0.0
H4504 H 0.40024 0.25798 0.20379 0.0
H4505 H 0.42434 0.26812 0.28145 0.0
H4506 H 0.43925 0.26908 0.26344 0.0
H4507 H 0.42857 0.24776 0.26971 0.0
C4508 C 0.45285 0.26796 0.20258 0.0
C4509 C 0.46367 0.25591 0.20795 0.0
C4510 C 0.43725 0.26906 0.21078 0.0
C4511 C 0.43149 0.25805 0.22469 0.0
C4512 C 0.44234 0.24601 0.23028 0.0
H4513 H 0.32652 0.24139 0.26937 0.0
H4514 H 0.35527 0.23755 0.25951 0.0
C4515 C 0.45825 0.24508 0.22221 0.0
C4516 C 0.41381 0.25886 0.23223 0.0
H4517 H 0.39314 0.26257 0.27304 0.0
C4518 C 0.39889 0.25903 0.21899 0.0
C4519 C 0.41151 0.2603 0.25209 0.0
C4520 C 0.42679 0.2615 0.26751 0.0
C4521 C 0.38225 0.26057 0.22483 0.0
C4522 C 0.37994 0.26182 0.24456 0.0
C4523 C 0.39467 0.26143 0.25788 0.0
C4524 C 0.36254 0.26425 0.25145 0.0
C4525 C 0.36709 0.26086 0.20974 0.0
C4526 C 0.35676 0.28052 0.25038 0.0
C4527 C 0.34034 0.28277 0.25606 0.0
C4528 C 0.32897 0.26885 0.26309 0.0
C4529 C 0.33477 0.25251 0.26418 0.0
C4530 C 0.35133 0.2503 0.25856 0.0
H4531 H 0.37002 0.25693 0.19501 0.0
H4532 H 0.35492 0.2517 0.21247 0.0
H4533 H 0.36435 0.27462 0.21044 0.0
H4534 H 0.36495 0.29157 0.24499 0.0
H4535 H 0.33646 0.29544 0.25458 0.0
H4536 H 0.62784 0.5262 0.34049 0.0
H4537 H 0.61569 0.52034 0.37041 0.0
H4538 H 0.56866 0.53853 0.35 0.0
H4539 H 0.58063 0.54434 0.31993 0.0
H4540 H 0.60459 0.54524 0.39733 0.0
H4541 H 0.54974 0.48863 0.36636 0.0
H4542 H 0.56856 0.496 0.35398 0.0
H4543 H 0.5511 0.5084 0.35435 0.0
C4544 C 0.6149 0.52897 0.34233 0.0
C4545 C 0.60517 0.53572 0.32777 0.0
C4546 C 0.60799 0.52559 0.35945 0.0
C4547 C 0.59119 0.52877 0.3623 0.0
C4548 C 0.58152 0.53568 0.34792 0.0
H4549 H 0.52521 0.52818 0.45172 0.0
H4550 H 0.53895 0.52911 0.42227 0.0
C4551 C 0.58843 0.53908 0.33079 0.0
C4552 C 0.58394 0.52525 0.3805 0.0
H4553 H 0.54945 0.50059 0.39874 0.0
C4554 C 0.59265 0.53535 0.3977 0.0
C4555 C 0.56837 0.51232 0.3809 0.0
C4556 C 0.55893 0.50058 0.36296 0.0
C4557 C 0.58584 0.5333 0.41523 0.0
C4558 C 0.5701 0.52059 0.41557 0.0
C4559 C 0.56157 0.51026 0.39843 0.0
C4560 C 0.56157 0.51885 0.43333 0.0
C4561 C 0.59508 0.54523 0.43313 0.0
C4562 C 0.56963 0.51249 0.44929 0.0
C4563 C 0.56172 0.51181 0.46627 0.0
C4564 C 0.54561 0.51744 0.4675 0.0
C4565 C 0.53752 0.52353 0.4513 0.0
C4566 C 0.54536 0.52412 0.4344 0.0
H4567 H 0.60543 0.5563 0.42987 0.0
H4568 H 0.58541 0.55112 0.44094 0.0
H4569 H 0.60147 0.53714 0.44286 0.0
H4570 H 0.58209 0.5082 0.44865 0.0
H4571 H 0.56829 0.50706 0.47846 0.0
H4572 H 0.26094 0.89899 0.04028 0.0
H4573 H 0.25705 0.88155 0.06742 0.0
H4574 H 0.31024 0.87256 0.06749 0.0
H4575 H 0.31422 0.88982 0.04023 0.0
H4576 H 0.27371 0.84094 0.06916 0.0
H4577 H 0.29285 0.90158 0.12354 0.0
H4578 H 0.28051 0.90192 0.10044 0.0
H4579 H 0.3035 0.90105 0.10197 0.0
C4580 C 0.27176 0.89322 0.04607 0.0
C4581 C 0.28793 0.89579 0.03841 0.0
C4582 C 0.26949 0.88328 0.06144 0.0
C4583 C 0.28342 0.87604 0.06931 0.0
C4584 C 0.29941 0.87817 0.06141 0.0
H4585 H 0.32948 0.83138 0.15589 0.0
H4586 H 0.31847 0.8499 0.13294 0.0
C4587 C 0.30164 0.88794 0.04591 0.0
C4588 C 0.2817 0.86666 0.08626 0.0
H4589 H 0.29267 0.87339 0.13477 0.0
C4590 C 0.27738 0.84792 0.0836 0.0
C4591 C 0.28646 0.87607 0.10487 0.0
C4592 C 0.29105 0.89629 0.10805 0.0
C4593 C 0.27896 0.83816 0.0992 0.0
C4594 C 0.28489 0.84756 0.11772 0.0
C4595 C 0.28804 0.86634 0.1205 0.0
C4596 C 0.29088 0.83822 0.13352 0.0
C4597 C 0.2756 0.81795 0.09559 0.0
C4598 C 0.27889 0.82595 0.14162 0.0
C4599 C 0.28516 0.81533 0.1546 0.0
C4600 C 0.30344 0.8169 0.15949 0.0
C4601 C 0.31535 0.82974 0.15197 0.0
C4602 C 0.30908 0.84041 0.13911 0.0
H4603 H 0.27291 0.8129 0.08003 0.0
H4604 H 0.28716 0.81295 0.10193 0.0
H4605 H 0.26401 0.81222 0.10259 0.0
H4606 H 0.26479 0.82422 0.13744 0.0
H4607 H 0.27577 0.80552 0.16037 0.0
H4608 H 0.91749 0.53612 0.83716 0.0
H4609 H 0.93896 0.54214 0.86592 0.0
H4610 H 0.92492 0.48683 0.87597 0.0
H4611 H 0.90317 0.48054 0.84715 0.0
H4612 H 0.92611 0.53186 0.90451 0.0
H4613 H 0.98223 0.50394 0.87949 0.0
H4614 H 0.96658 0.51191 0.86339 0.0
H4615 H 0.96033 0.49071 0.8722 0.0
C4616 C 0.91901 0.52517 0.8454 0.0
C4617 C 0.90855 0.50788 0.84014 0.0
C4618 C 0.93129 0.52867 0.8617 0.0
C4619 C 0.93329 0.5149 0.87275 0.0
C4620 C 0.9234 0.49749 0.8673 0.0
H4621 H 0.99786 0.49687 0.96768 0.0
H4622 H 0.97441 0.49526 0.94138 0.0
C4623 C 0.91104 0.49396 0.85096 0.0
C4624 C 0.94477 0.51898 0.89086 0.0
H4625 H 0.98312 0.51164 0.91287 0.0
C4626 C 0.93863 0.52753 0.90654 0.0
C4627 C 0.96104 0.51349 0.89291 0.0
C4628 C 0.96808 0.5046 0.87611 0.0
C4629 C 0.94797 0.52966 0.9249 0.0
C4630 C 0.96393 0.52338 0.92716 0.0
C4631 C 0.97059 0.51596 0.9111 0.0
C4632 C 0.9739 0.52362 0.94598 0.0
C4633 C 0.94029 0.53788 0.94161 0.0
C4634 C 0.98034 0.53981 0.95793 0.0
C4635 C 0.9928 0.54039 0.97371 0.0
C4636 C 0.99924 0.52496 0.97705 0.0
C4637 C 0.99248 0.5087 0.96552 0.0
C4638 C 0.97931 0.50788 0.95048 0.0
H4639 H 0.92584 0.53706 0.93822 0.0
H4640 H 0.94264 0.53124 0.95466 0.0
H4641 H 0.94664 0.55229 0.94488 0.0
H4642 H 0.97683 0.55221 0.9543 0.0
H4643 H 0.99866 0.55318 0.98211 0.0
H4644 H 0.24654 0.18153 0.56108 0.0
H4645 H 0.24527 0.19524 0.59365 0.0
H4646 H 0.29796 0.22639 0.59485 0.0
H4647 H 0.29895 0.21334 0.56197 0.0
H4648 H 0.26395 0.19381 0.62623 0.0
H4649 H 0.27407 0.26509 0.61359 0.0
H4650 H 0.26972 0.24704 0.59414 0.0
H4651 H 0.29173 0.25485 0.60659 0.0
C4652 C 0.25778 0.19145 0.56823 0.0
C4653 C 0.27279 0.19647 0.5589 0.0
C4654 C 0.25705 0.19927 0.58687 0.0
C4655 C 0.27138 0.21215 0.59668 0.0
C4656 C 0.28649 0.21697 0.58744 0.0
H4657 H 0.29708 0.24845 0.71873 0.0
H4658 H 0.2969 0.23675 0.68501 0.0
C4659 C 0.28709 0.2094 0.56866 0.0
C4660 C 0.27079 0.21992 0.61681 0.0
H4661 H 0.27697 0.25945 0.64644 0.0
C4662 C 0.26672 0.20817 0.63057 0.0
C4663 C 0.27417 0.23869 0.62255 0.0
C4664 C 0.27748 0.25213 0.60839 0.0
C4665 C 0.26639 0.21464 0.64987 0.0
C4666 C 0.27039 0.23331 0.65564 0.0
C4667 C 0.27412 0.24511 0.64194 0.0
C4668 C 0.27063 0.24076 0.67591 0.0
C4669 C 0.26162 0.20157 0.66405 0.0
C4670 C 0.25601 0.24708 0.68185 0.0
C4671 C 0.25615 0.25389 0.70105 0.0
C4672 C 0.27078 0.25435 0.71471 0.0
C4673 C 0.28547 0.24808 0.70864 0.0
C4674 C 0.28543 0.24143 0.68939 0.0
H4675 H 0.25818 0.18744 0.65717 0.0
H4676 H 0.27288 0.20294 0.67552 0.0
H4677 H 0.2502 0.20472 0.67103 0.0
H4678 H 0.24444 0.24659 0.67166 0.0
H4679 H 0.24469 0.25848 0.70519 0.0
H4680 H 0.62155 0.54861 0.22644 0.0
H4681 H 0.60797 0.55003 0.19398 0.0
H4682 H 0.56434 0.50801 0.20101 0.0
H4683 H 0.57784 0.50649 0.23366 0.0
H4684 H 0.59927 0.52174 0.16325 0.0
H4685 H 0.54041 0.54803 0.18181 0.0
H4686 H 0.55948 0.54895 0.19915 0.0
H4687 H 0.5436 0.52831 0.19247 0.0
C4688 C 0.60897 0.53976 0.22119 0.0
C4689 C 0.60073 0.52746 0.23269 0.0
C4690 C 0.60127 0.54057 0.2026 0.0
C4691 C 0.58508 0.52927 0.19517 0.0
C4692 C 0.57673 0.51704 0.2066 0.0
H4693 H 0.51906 0.51168 0.0852 0.0
H4694 H 0.53158 0.51206 0.11876 0.0
C4695 C 0.58449 0.51613 0.22521 0.0
C4696 C 0.57726 0.52996 0.17524 0.0
H4697 H 0.54137 0.53912 0.14882 0.0
C4698 C 0.58664 0.5256 0.16006 0.0
C4699 C 0.5608 0.53501 0.17118 0.0
C4700 C 0.55051 0.5405 0.18699 0.0
C4701 C 0.57983 0.52579 0.14086 0.0
C4702 C 0.56335 0.53085 0.13677 0.0
C4703 C 0.55399 0.53525 0.15198 0.0
C4704 C 0.55544 0.53137 0.11679 0.0
C4705 C 0.59016 0.52011 0.12514 0.0
C4706 C 0.5645 0.5424 0.10471 0.0
C4707 C 0.55747 0.54197 0.08556 0.0
C4708 C 0.54107 0.53093 0.07841 0.0
C4709 C 0.53165 0.52046 0.09061 0.0
C4710 C 0.53881 0.52064 0.10969 0.0
H4711 H 0.59995 0.51225 0.13036 0.0
H4712 H 0.58121 0.51191 0.11281 0.0
H4713 H 0.59751 0.53222 0.11991 0.0
H4714 H 0.57713 0.55112 0.10999 0.0
H4715 H 0.56496 0.55005 0.07626 0.0
H4716 H 0.26738 0.88649 0.96211 0.0
H4717 H 0.26153 0.86098 0.93719 0.0
H4718 H 0.30725 0.88442 0.91168 0.0
H4719 H 0.31337 0.91027 0.9367 0.0
H4720 H 0.25914 0.86557 0.89334 0.0
H4721 H 0.30974 0.8299 0.92394 0.0
H4722 H 0.30018 0.84538 0.93862 0.0
H4723 H 0.31623 0.85372 0.92344 0.0
C4724 C 0.27619 0.88632 0.95117 0.0
C4725 C 0.29083 0.90035 0.95123 0.0
C4726 C 0.27281 0.87174 0.93705 0.0
C4727 C 0.28404 0.87102 0.92293 0.0
C4728 C 0.29862 0.88493 0.92277 0.0
H4729 H 0.30457 0.80681 0.82988 0.0
H4730 H 0.30353 0.82559 0.85968 0.0
C4731 C 0.30206 0.89959 0.93695 0.0
C4732 C 0.28033 0.85577 0.90808 0.0
H4733 H 0.29545 0.81873 0.89272 0.0
C4734 C 0.26691 0.85518 0.89308 0.0
C4735 C 0.29045 0.84237 0.90836 0.0
C4736 C 0.30492 0.8427 0.92449 0.0
C4737 C 0.26421 0.84205 0.87725 0.0
C4738 C 0.27489 0.82896 0.87709 0.0
C4739 C 0.2874 0.82889 0.89291 0.0
C4740 C 0.27523 0.81687 0.85974 0.0
C4741 C 0.2508 0.84314 0.86049 0.0
C4742 C 0.25972 0.80573 0.85012 0.0
C4743 C 0.26022 0.79592 0.8326 0.0
C4744 C 0.27638 0.7964 0.82532 0.0
C4745 C 0.29204 0.80648 0.83548 0.0
C4746 C 0.29142 0.81703 0.85245 0.0
H4747 H 0.24675 0.85634 0.86136 0.0
H4748 H 0.25611 0.84089 0.84662 0.0
H4749 H 0.23875 0.8327 0.86052 0.0
H4750 H 0.24725 0.80493 0.85589 0.0
H4751 H 0.24808 0.78786 0.8248 0.0
H4752 H 0.92626 0.49486 0.76105 0.0
H4753 H 0.94127 0.49596 0.73228 0.0
H4754 H 0.91118 0.53394 0.71228 0.0
H4755 H 0.89602 0.53299 0.74101 0.0
H4756 H 0.91922 0.48989 0.69083 0.0
H4757 H 0.96837 0.55396 0.71282 0.0
H4758 H 0.95959 0.54032 0.73047 0.0
H4759 H 0.94566 0.55228 0.7173 0.0
C4760 C 0.92293 0.50356 0.75063 0.0
C4761 C 0.91004 0.51387 0.75322 0.0
C4762 C 0.93147 0.50413 0.73426 0.0
C4763 C 0.92727 0.51511 0.72047 0.0
C4764 C 0.91455 0.52553 0.723 0.0
H4765 H 0.96494 0.50229 0.60919 0.0
H4766 H 0.94988 0.51517 0.63419 0.0
C4767 C 0.90594 0.52493 0.73934 0.0
C4768 C 0.93593 0.51506 0.7031 0.0
H4769 H 0.97155 0.53652 0.68424 0.0
C4770 C 0.93045 0.50021 0.6891 0.0
C4771 C 0.95048 0.52864 0.70123 0.0
C4772 C 0.9565 0.54476 0.71621 0.0
C4773 C 0.93978 0.49815 0.67344 0.0
C4774 C 0.95483 0.51134 0.67196 0.0
C4775 C 0.9599 0.52658 0.68556 0.0
C4776 C 0.96645 0.50811 0.65756 0.0
C4777 C 0.93411 0.48145 0.65912 0.0
C4778 C 0.98106 0.50055 0.66274 0.0
C4779 C 0.98968 0.49315 0.64857 0.0
C4780 C 0.98374 0.4933 0.62912 0.0
C4781 C 0.96986 0.50208 0.6241 0.0
C4782 C 0.96127 0.50947 0.63828 0.0
H4783 H 0.9227 0.47201 0.66308 0.0
H4784 H 0.93033 0.48524 0.64471 0.0
H4785 H 0.94528 0.47439 0.658 0.0
H4786 H 0.98505 0.49935 0.67767 0.0
H4787 H 1.00053 0.48673 0.65278 0.0
H4788 H 0.27852 0.1734 0.45307 0.0
H4789 H 0.28405 0.18677 0.42363 0.0
H4790 H 0.25602 0.22818 0.44046 0.0
H4791 H 0.25049 0.21499 0.47004 0.0
H4792 H 0.25857 0.19324 0.39421 0.0
H4793 H 0.304 0.25606 0.42835 0.0
H4794 H 0.29904 0.23642 0.44062 0.0
H4795 H 0.28347 0.25093 0.43826 0.0
C4796 C 0.27356 0.1854 0.45058 0.0
C4797 C 0.26413 0.19319 0.464 0.0
C4798 C 0.27673 0.193 0.43372 0.0
C4799 C 0.27066 0.20859 0.42999 0.0
C4800 C 0.26111 0.21632 0.44324 0.0
H4801 H 0.26883 0.27498 0.3387 0.0
H4802 H 0.26737 0.26139 0.36854 0.0
C4803 C 0.25789 0.20872 0.4601 0.0
C4804 C 0.27397 0.21657 0.41205 0.0
H4805 H 0.29401 0.25461 0.39513 0.0
C4806 C 0.26643 0.20659 0.39436 0.0
C4807 C 0.28427 0.23398 0.41233 0.0
C4808 C 0.29331 0.24496 0.43088 0.0
C4809 C 0.2684 0.2138 0.37696 0.0
C4810 C 0.2785 0.23132 0.37726 0.0
C4811 C 0.28628 0.24118 0.39494 0.0
C4812 C 0.28041 0.23995 0.35944 0.0
C4813 C 0.25915 0.20287 0.35846 0.0
C4814 C 0.28859 0.23264 0.34455 0.0
C4815 C 0.28945 0.2404 0.32742 0.0
C4816 C 0.28225 0.25567 0.32495 0.0
C4817 C 0.27455 0.26325 0.34014 0.0
C4818 C 0.27368 0.25549 0.35721 0.0
H4819 H 0.2488 0.19149 0.36108 0.0
H4820 H 0.25292 0.21135 0.34905 0.0
H4821 H 0.26896 0.19728 0.35064 0.0
H4822 H 0.29418 0.22086 0.34613 0.0
H4823 H 0.29561 0.23436 0.31605 0.0
H4824 H 0.30241 0.58802 0.52282 0.0
H4825 H 0.32939 0.57825 0.51633 0.0
H4826 H 0.35157 0.59434 0.57556 0.0
H4827 H 0.3244 0.60445 0.58241 0.0
H4828 H 0.37058 0.60752 0.53764 0.0
H4829 H 0.34873 0.53462 0.54321 0.0
H4830 H 0.33288 0.5464 0.53265 0.0
H4831 H 0.34101 0.55174 0.5577 0.0
C4832 C 0.31288 0.5893 0.5346 0.0
C4833 C 0.31139 0.59698 0.55317 0.0
C4834 C 0.32824 0.58378 0.53081 0.0
C4835 C 0.34218 0.58572 0.54552 0.0
C4836 C 0.34073 0.59292 0.56416 0.0
H4837 H 0.4269 0.53443 0.51832 0.0
H4838 H 0.41003 0.55128 0.53763 0.0
C4839 C 0.3253 0.59856 0.56801 0.0
C4840 C 0.35834 0.58043 0.54087 0.0
H4841 H 0.37406 0.54323 0.52772 0.0
C4842 C 0.37173 0.59355 0.53593 0.0
C4843 C 0.35928 0.56219 0.53846 0.0
C4844 C 0.34477 0.54785 0.54334 0.0
C4845 C 0.38604 0.58867 0.52779 0.0
C4846 C 0.38661 0.57031 0.52461 0.0
C4847 C 0.37354 0.55732 0.53038 0.0
C4848 C 0.39977 0.56384 0.51399 0.0
C4849 C 0.40004 0.60303 0.52212 0.0
C4850 C 0.3997 0.56572 0.49441 0.0
C4851 C 0.40953 0.55627 0.4833 0.0
C4852 C 0.41928 0.54474 0.49169 0.0
C4853 C 0.41973 0.54344 0.51149 0.0
C4854 C 0.41014 0.55303 0.52257 0.0
H4855 H 0.40036 0.61632 0.53026 0.0
H4856 H 0.41332 0.59965 0.52453 0.0
H4857 H 0.39706 0.60416 0.5066 0.0
H4858 H 0.39138 0.57374 0.48755 0.0
H4859 H 0.40917 0.55765 0.46813 0.0
H4860 H 0.85106 0.91442 0.57406 0.0
H4861 H 0.88008 0.93217 0.57064 0.0
H4862 H 0.86177 0.93746 0.51208 0.0
H4863 H 0.8327 0.91975 0.51532 0.0
H4864 H 0.90377 0.9255 0.54222 0.0
H4865 H 0.88103 0.98988 0.53812 0.0
H4866 H 0.86816 0.97092 0.54706 0.0
H4867 H 0.86886 0.97106 0.5217 0.0
C4868 C 0.85316 0.91939 0.56046 0.0
C4869 C 0.83948 0.91579 0.54502 0.0
C4870 C 0.86978 0.92948 0.55852 0.0
C4871 C 0.87298 0.93632 0.5412 0.0
C4872 C 0.85948 0.93253 0.52566 0.0
H4873 H 0.96222 0.00752 0.50637 0.0
H4874 H 0.93334 0.98911 0.50888 0.0
C4875 C 0.84289 0.92235 0.52754 0.0
C4876 C 0.89043 0.9475 0.53944 0.0
H4877 H 0.91077 0.98999 0.53389 0.0
C4878 C 0.90535 0.93961 0.54044 0.0
C4879 C 0.89238 0.96584 0.53694 0.0
C4880 C 0.87681 0.97503 0.53602 0.0
C4881 C 0.92219 0.94955 0.53875 0.0
C4882 C 0.92424 0.96805 0.53668 0.0
C4883 C 0.90925 0.97586 0.53558 0.0
C4884 C 0.94174 0.97955 0.53552 0.0
C4885 C 0.93748 0.93995 0.53863 0.0
C4886 C 0.956 0.9807 0.54989 0.0
C4887 C 0.97259 0.99102 0.54833 0.0
C4888 C 0.97509 0.00078 0.53266 0.0
C4889 C 0.96064 1.00028 0.51873 0.0
C4890 C 0.94415 0.98969 0.5201 0.0
H4891 H 0.93286 0.92532 0.53416 0.0
H4892 H 0.9469 0.94538 0.52882 0.0
H4893 H 0.94465 0.94169 0.55336 0.0
H4894 H 0.95436 0.97353 0.56227 0.0
H4895 H 0.98349 0.99128 0.55934 0.0
H4896 H 0.8934 0.06602 0.2217 0.0
H4897 H 0.87741 0.0905 0.22671 0.0
H4898 H 0.87254 0.07917 0.28479 0.0
H4899 H 0.88835 0.05464 0.28 0.0
H4900 H 0.83943 0.08404 0.24796 0.0
H4901 H 0.898 0.13731 0.27812 0.0
H4902 H 0.89945 0.11906 0.26037 0.0
H4903 H 0.89698 0.11494 0.28461 0.0
C4904 C 0.8889 0.06871 0.23553 0.0
C4905 C 0.8921 0.05839 0.25046 0.0
C4906 C 0.87981 0.08267 0.23833 0.0
C4907 C 0.87399 0.08655 0.25611 0.0
C4908 C 0.87706 0.07629 0.271 0.0
H4909 H 0.82664 0.16051 0.31883 0.0
H4910 H 0.8446 0.14007 0.3062 0.0
C4911 C 0.88603 0.06228 0.2682 0.0
C4912 C 0.8644 0.10116 0.25928 0.0
H4913 H 0.86981 0.14422 0.28033 0.0
C4914 C 0.846 0.09731 0.25476 0.0
C4915 C 0.8732 0.11829 0.2682 0.0
C4916 C 0.89302 0.12282 0.2731 0.0
C4917 C 0.83595 0.11008 0.25972 0.0
C4918 C 0.84471 0.12713 0.26914 0.0
C4919 C 0.86321 0.13113 0.27306 0.0
C4920 C 0.83478 0.14044 0.2764 0.0
C4921 C 0.81605 0.10493 0.25569 0.0
C4922 C 0.82367 0.14765 0.26375 0.0
C4923 C 0.81328 0.15914 0.27093 0.0
C4924 C 0.81396 0.16364 0.29086 0.0
C4925 C 0.8256 0.15692 0.30344 0.0
C4926 C 0.83595 0.14542 0.29625 0.0
H4927 H 0.81136 0.0902 0.25207 0.0
H4928 H 0.80982 0.1095 0.26826 0.0
H4929 H 0.81146 0.11148 0.24331 0.0
H4930 H 0.82284 0.14417 0.24837 0.0
H4931 H 0.80443 0.16417 0.26092 0.0
H4932 H 0.7193 0.08165 0.02356 0.0
H4933 H 0.68891 0.06703 0.01154 0.0
H4934 H 0.67075 0.09311 0.06055 0.0
H4935 H 0.70116 0.10804 0.07276 0.0
H4936 H 0.66274 0.04529 0.03233 0.0
H4937 H 0.64512 0.10814 0.01038 0.0
H4938 H 0.66771 0.10514 0.01434 0.0
H4939 H 0.65611 0.1098 0.03441 0.0
C4940 C 0.70888 0.08412 0.03194 0.0
C4941 C 0.71246 0.09613 0.04897 0.0
C4942 C 0.69162 0.07582 0.025 0.0
C4943 C 0.67788 0.07945 0.03503 0.0
C4944 C 0.6814 0.09059 0.05256 0.0
H4945 H 0.57588 0.05665 0.04941 0.0
H4946 H 0.60528 0.07058 0.04268 0.0
C4947 C 0.69868 0.09899 0.0595 0.0
C4948 C 0.65972 0.0718 0.02705 0.0
H4949 H 0.6212 0.08366 0.01148 0.0
C4950 C 0.65362 0.05346 0.02732 0.0
C4951 C 0.64826 0.08276 0.02047 0.0
C4952 C 0.65462 0.10255 0.0197 0.0
C4953 C 0.63569 0.04593 0.02273 0.0
C4954 C 0.62398 0.05714 0.01722 0.0
C4955 C 0.63039 0.0752 0.01549 0.0
C4956 C 0.60509 0.05145 0.01773 0.0
C4957 C 0.62928 0.02654 0.02551 0.0
C4958 C 0.59529 0.03661 0.00546 0.0
C4959 C 0.57878 0.02849 0.00961 0.0
C4960 C 0.57198 0.03563 0.02558 0.0
C4961 C 0.58116 0.0512 0.03698 0.0
C4962 C 0.59772 0.05917 0.03302 0.0
H4963 H 0.64002 0.02048 0.03209 0.0
H4964 H 0.61854 0.02533 0.03485 0.0
H4965 H 0.6239 0.01861 0.0114 0.0
H4966 H 0.6009 0.03064 0.99358 0.0
H4967 H 0.57172 0.01625 0.00092 0.0
H4968 H 0.17134 0.47144 0.26149 0.0
H4969 H 0.18614 0.4462 0.26383 0.0
H4970 H 0.22752 0.47187 0.2334 0.0
H4971 H 0.21305 0.49757 0.2316 0.0
H4972 H 0.19538 0.42364 0.23442 0.0
H4973 H 0.25367 0.46288 0.28401 0.0
H4974 H 0.23362 0.47122 0.27937 0.0
H4975 H 0.24855 0.47118 0.26157 0.0
C4976 C 0.18346 0.47156 0.2551 0.0
C4977 C 0.19115 0.48624 0.24638 0.0
C4978 C 0.19187 0.45724 0.25645 0.0
C4979 C 0.20784 0.45741 0.24882 0.0
C4980 C 0.21528 0.47178 0.23952 0.0
H4981 H 0.27092 0.38069 0.27954 0.0
H4982 H 0.25913 0.40064 0.25925 0.0
C4983 C 0.20702 0.4863 0.23847 0.0
C4984 C 0.21683 0.44263 0.25144 0.0
H4985 H 0.25092 0.43182 0.27886 0.0
C4986 C 0.20773 0.42535 0.2438 0.0
C4987 C 0.23288 0.4452 0.26371 0.0
C4988 C 0.24276 0.46358 0.27278 0.0
C4989 C 0.21374 0.4103 0.24915 0.0
C4990 C 0.22921 0.41286 0.26224 0.0
C4991 C 0.23903 0.43013 0.26875 0.0
C4992 C 0.23445 0.39811 0.27135 0.0
C4993 C 0.20316 0.39187 0.24151 0.0
C4994 C 0.22424 0.39015 0.28467 0.0
C4995 C 0.23086 0.37866 0.29628 0.0
C4996 C 0.24775 0.37518 0.29463 0.0
C4997 C 0.2577 0.38291 0.28087 0.0
C4998 C 0.25104 0.39425 0.26926 0.0
H4999 H 0.19437 0.39209 0.2281 0.0
H5000 H 0.21201 0.38234 0.23866 0.0
H5001 H 0.19475 0.38683 0.25241 0.0
H5002 H 0.21154 0.39348 0.28667 0.0
H5003 H 0.22297 0.37276 0.3067 0.0
H5004 H 0.25504 0.43048 0.04388 0.0
H5005 H 0.23216 0.44854 0.04443 0.0
H5006 H 0.19344 0.40302 0.01587 0.0
H5007 H 0.21604 0.3848 0.01573 0.0
H5008 H 0.2125 0.45745 0.01478 0.0
H5009 H 0.16779 0.41924 0.05898 0.0
H5010 H 0.19005 0.41594 0.0575 0.0
H5011 H 0.17235 0.40503 0.03912 0.0
C5012 C 0.24161 0.42428 0.03784 0.0
C5013 C 0.23734 0.40617 0.02982 0.0
C5014 C 0.22855 0.43461 0.03821 0.0
C5015 C 0.21099 0.42704 0.03059 0.0
C5016 C 0.20676 0.40902 0.0224 0.0
H5017 H 0.11733 0.45453 0.98541 0.0
H5018 H 0.14067 0.44094 0.0001 0.0
C5019 C 0.21976 0.39865 0.02216 0.0
C5020 C 0.19726 0.43818 0.02995 0.0
H5021 H 0.15489 0.43844 0.0389 0.0
C5022 C 0.20004 0.45353 0.02041 0.0
C5023 C 0.18106 0.43313 0.03744 0.0
C5024 C 0.1777 0.41754 0.04901 0.0
C5025 C 0.18664 0.46325 0.017 0.0
C5026 C 0.17008 0.45757 0.02352 0.0
C5027 C 0.16759 0.44275 0.0339 0.0
C5028 C 0.15461 0.4654 0.01752 0.0
C5029 C 0.18995 0.47889 0.00547 0.0
C5030 C 0.15429 0.48348 0.02311 0.0
C5031 C 0.14084 0.49126 0.01478 0.0
C5032 C 0.12766 0.48102 0.00075 0.0
C5033 C 0.1274 0.46268 0.99617 0.0
C5034 C 0.1407 0.45492 0.00456 0.0
H5035 H 0.20252 0.47983 -0.00095 0.0
H5036 H 0.17893 0.47775 0.99375 0.0
H5037 H 0.19067 0.49154 0.01497 0.0
H5038 H 0.16481 0.49174 0.03327 0.0
H5039 H 0.14133 0.50545 0.01844 0.0
H5040 H 0.88964 0.96656 0.27815 0.0
H5041 H 0.87146 0.93764 0.28197 0.0
H5042 H 0.86198 0.92416 0.22044 0.0
H5043 H 0.88029 0.953 0.21642 0.0
H5044 H 0.83573 0.9248 0.26761 0.0
H5045 H 0.87801 0.87999 0.23921 0.0
H5046 H 0.88603 0.90376 0.24607 0.0
H5047 H 0.87273 0.8957 0.22336 0.0
C5048 C 0.88378 0.95742 0.2654 0.0
C5049 C 0.88643 0.9621 0.24696 0.0
C5050 C 0.87339 0.9409 0.26764 0.0
C5051 C 0.86556 0.92869 0.25151 0.0
C5052 C 0.86818 0.93327 0.23309 0.0
H5053 H 0.7994 0.82273 0.23172 0.0
H5054 H 0.8171 0.85236 0.22919 0.0
C5055 C 0.87856 0.94981 0.23082 0.0
C5056 C 0.85406 0.91147 0.25395 0.0
H5057 H 0.84925 0.86609 0.24464 0.0
C5058 C 0.83868 0.91193 0.26267 0.0
C5059 C 0.858 0.89476 0.2475 0.0
C5060 C 0.87467 0.89344 0.23867 0.0
C5061 C 0.82678 0.89611 0.26456 0.0
C5062 C 0.83063 0.87934 0.25799 0.0
C5063 C 0.84621 0.87892 0.24956 0.0
C5064 C 0.81868 0.86203 0.25941 0.0
C5065 C 0.80996 0.89762 0.27302 0.0
C5066 C 0.81346 0.85767 0.27715 0.0
C5067 C 0.80281 0.84101 0.27841 0.0
C5068 C 0.7978 0.82829 0.26209 0.0
C5069 C 0.80302 0.83253 0.2444 0.0
C5070 C 0.8132 0.84935 0.24302 0.0
H5071 H 0.80649 0.91092 0.27171 0.0
H5072 H 0.79867 0.88705 0.26592 0.0
H5073 H 0.81184 0.89613 0.28855 0.0
H5074 H 0.81802 0.8669 0.29013 0.0
H5075 H 0.79928 0.83771 0.29228 0.0
H5076 H 0.70614 0.07991 0.77662 0.0
H5077 H 0.72328 0.11045 0.78444 0.0
H5078 H 0.70162 0.12402 0.73025 0.0
H5079 H 0.68427 0.09345 0.72226 0.0
H5080 H 0.74808 0.12479 0.75819 0.0
H5081 H 0.69723 0.16509 0.77268 0.0
H5082 H 0.69399 0.14137 0.77482 0.0
H5083 H 0.69158 0.14893 0.75156 0.0
C5084 C 0.70495 0.08945 0.76643 0.0
C5085 C 0.69416 0.08446 0.74874 0.0
C5086 C 0.71461 0.10679 0.77099 0.0
C5087 C 0.71346 0.11915 0.75791 0.0
C5088 C 0.70229 0.11445 0.74051 0.0
H5089 H 0.75553 0.22103 0.73507 0.0
H5090 H 0.74461 0.18869 0.73336 0.0
C5091 C 0.69253 0.09711 0.73597 0.0
C5092 C 0.72522 0.13652 0.76148 0.0
H5093 H 0.72507 0.18095 0.76626 0.0
C5094 C 0.74324 0.13716 0.76028 0.0
C5095 C 0.71853 0.15229 0.76422 0.0
C5096 C 0.69929 0.15196 0.76607 0.0
C5097 C 0.75477 0.15356 0.76063 0.0
C5098 C 0.74786 0.16925 0.76244 0.0
C5099 C 0.73005 0.16861 0.76468 0.0
C5100 C 0.75844 0.18667 0.76112 0.0
C5101 C 0.77391 0.15408 0.75814 0.0
C5102 C 0.77018 0.19564 0.77701 0.0
C5103 C 0.77642 0.21397 0.77792 0.0
C5104 C 0.77058 0.22306 0.7631 0.0
C5105 C 0.75979 0.21392 0.74667 0.0
C5106 C 0.75381 0.19563 0.74561 0.0
H5107 H 0.77676 0.14043 0.75524 0.0
H5108 H 0.77755 0.16179 0.7461 0.0
H5109 H 0.78241 0.16107 0.77137 0.0
H5110 H 0.77355 0.18873 0.78912 0.0
H5111 H 0.78507 0.22115 0.79046 0.0
loop_
_geom_bond_atom_site_label_1
_geom_bond_atom_site_label_2
_geom_bond_distance
_geom_bond_site_symmetry_2
_ccdc_geom_bond_type
C0 O1 1.160 . S
C0 O7 1.185 . S
O1 C0 1.160 . S
O2 Zn3 1.899 . S
O2 C10 1.284 . S
Zn3 O2 1.899 . S
Zn3 O4 2.032 . S
Zn3 O7 2.086 . S
Zn3 O12 1.977 . S
O4 Zn3 2.032 . S
O4 C8 1.278 . S
C5 O6 1.203 . S
C5 O12 1.267 1_655 S
O6 C5 1.203 . S
O7 C0 1.185 . S
O7 Zn3 2.086 . S
C8 O4 1.278 . S
C8 O9 1.211 . S
O9 C8 1.211 . S
C10 O2 1.284 . S
C10 O11 1.273 . S
O11 C10 1.273 . S
O12 Zn3 1.977 . S
O12 C5 1.267 1_455 S
C13 O14 1.160 . S
C13 O20 1.185 . S
O14 C13 1.160 . S
O15 Zn16 1.899 . S
O15 C23 1.284 . S
Zn16 O15 1.899 . S
Zn16 O17 2.032 . S
Zn16 O20 2.086 1_455 S
Zn16 O25 1.977 . S
O17 Zn16 2.032 . S
O17 C21 1.278 . S
C18 O19 1.203 . S
C18 O25 1.267 . S
O19 C18 1.203 . S
O20 C13 1.185 . S
O20 Zn16 2.086 1_655 S
C21 O17 1.278 . S
C21 O22 1.211 . S
O22 C21 1.211 . S
C23 O15 1.284 . S
C23 O24 1.273 . S
O24 C23 1.273 . S
O25 Zn16 1.977 . S
O25 C18 1.267 . S
C26 O27 1.160 . S
C26 O33 1.185 . S
O27 C26 1.160 . S
O28 Zn29 1.899 . S
O28 C36 1.284 . S
Zn29 O28 1.899 . S
Zn29 O30 2.032 . S
Zn29 O33 2.086 . S
Zn29 O38 1.977 . S
O30 Zn29 2.032 . S
O30 C34 1.278 . S
C31 O32 1.203 . S
C31 O38 1.267 . S
O32 C31 1.203 . S
O33 C26 1.185 . S
O33 Zn29 2.086 . S
C34 O30 1.278 . S
C34 O35 1.211 . S
O35 C34 1.211 . S
C36 O28 1.284 . S
C36 O37 1.273 . S
O37 C36 1.273 . S
O38 Zn29 1.977 . S
O38 C31 1.267 . S
C39 O40 1.160 . S
C39 O46 1.185 . S
O40 C39 1.160 . S
O41 Zn42 1.899 . S
O41 C49 1.284 . S
Zn42 O41 1.899 . S
Zn42 O43 2.032 . S
Zn42 O46 2.086 . S
Zn42 O51 1.977 . S
O43 Zn42 2.032 . S
O43 C47 1.278 . S
C44 O45 1.203 . S
C44 O51 1.267 . S
O45 C44 1.203 . S
O46 C39 1.185 . S
O46 Zn42 2.086 . S
C47 O43 1.278 . S
C47 O48 1.211 . S
O48 C47 1.211 . S
C49 O41 1.284 . S
C49 O50 1.273 . S
O50 C49 1.273 . S
O51 Zn42 1.977 . S
O51 C44 1.267 . S
C52 O53 1.160 . S
C52 O59 1.185 . S
O53 C52 1.160 . S
O54 Zn55 1.899 . S
O54 C62 1.284 . S
Zn55 O54 1.899 . S
Zn55 O56 2.032 . S
Zn55 O59 2.086 . S
Zn55 O64 1.977 . S
O56 Zn55 2.032 . S
O56 C60 1.278 . S
C57 O58 1.203 . S
C57 O64 1.267 . S
O58 C57 1.203 . S
O59 C52 1.185 . S
O59 Zn55 2.086 . S
C60 O56 1.278 . S
C60 O61 1.211 . S
O61 C60 1.211 . S
C62 O54 1.284 . S
C62 O63 1.273 . S
O63 C62 1.273 . S
O64 Zn55 1.977 . S
O64 C57 1.267 . S
C65 O66 1.160 . S
C65 O72 1.185 . S
O66 C65 1.160 . S
O67 Zn68 1.899 . S
O67 C75 1.284 . S
Zn68 O67 1.899 . S
Zn68 O69 2.032 . S
Zn68 O72 2.086 . S
Zn68 O77 1.977 . S
O69 Zn68 2.032 . S
O69 C73 1.278 . S
C70 O71 1.203 . S
C70 O77 1.267 . S
O71 C70 1.203 . S
O72 C65 1.185 . S
O72 Zn68 2.086 . S
C73 O69 1.278 . S
C73 O74 1.211 . S
O74 C73 1.211 . S
C75 O67 1.284 . S
C75 O76 1.273 . S
O76 C75 1.273 . S
O77 Zn68 1.977 . S
O77 C70 1.267 . S
C78 O79 1.160 . S
C78 O85 1.185 . S
O79 C78 1.160 . S
O80 Zn81 1.899 . S
O80 C88 1.284 . S
Zn81 O80 1.899 . S
Zn81 O82 2.032 . S
Zn81 O85 2.086 . S
Zn81 O90 1.977 . S
O82 Zn81 2.032 . S
O82 C86 1.278 . S
C83 O84 1.203 . S
C83 O90 1.267 . S
O84 C83 1.203 . S
O85 C78 1.185 . S
O85 Zn81 2.086 . S
C86 O82 1.278 . S
C86 O87 1.211 . S
O87 C86 1.211 . S
C88 O80 1.284 . S
C88 O89 1.273 . S
O89 C88 1.273 . S
O90 Zn81 1.977 . S
O90 C83 1.267 . S
C91 O92 1.160 . S
C91 O98 1.185 . S
O92 C91 1.160 . S
O93 Zn94 1.899 . S
O93 C101 1.285 1_455 S
Zn94 O93 1.899 . S
Zn94 O95 2.032 . S
Zn94 O98 2.086 . S
Zn94 O103 1.977 1_455 S
O95 Zn94 2.032 . S
O95 C99 1.278 . S
C96 O97 1.203 . S
C96 O103 1.267 . S
O97 C96 1.203 . S
O98 C91 1.185 . S
O98 Zn94 2.086 . S
C99 O95 1.278 . S
C99 O100 1.211 1_455 S
O100 C99 1.211 1_655 S
C101 O93 1.285 1_655 S
C101 O102 1.273 . S
O102 C101 1.273 . S
O103 Zn94 1.977 1_655 S
O103 C96 1.267 . S
C104 O105 1.160 . S
C104 O111 1.185 . S
O105 C104 1.160 . S
O106 Zn107 1.899 . S
O106 C114 1.284 . S
Zn107 O106 1.899 . S
Zn107 O108 2.032 . S
Zn107 O111 2.086 . S
Zn107 O116 1.977 1_545 S
O108 Zn107 2.032 . S
O108 C112 1.278 . S
C109 O110 1.203 . S
C109 O116 1.267 . S
O110 C109 1.203 . S
O111 C104 1.185 . S
O111 Zn107 2.086 . S
C112 O108 1.278 . S
C112 O113 1.211 1_545 S
O113 C112 1.211 1_565 S
C114 O106 1.284 . S
C114 O115 1.273 . S
O115 C114 1.273 . S
O116 Zn107 1.977 1_565 S
O116 C109 1.267 . S
C117 O118 1.160 . S
C117 O124 1.185 . S
O118 C117 1.160 . S
O119 Zn120 1.899 . S
O119 C127 1.284 . S
Zn120 O119 1.899 . S
Zn120 O121 2.032 . S
Zn120 O124 2.086 . S
Zn120 O129 1.977 . S
O121 Zn120 2.032 . S
O121 C125 1.278 . S
C122 O123 1.203 . S
C122 O129 1.267 . S
O123 C122 1.203 . S
O124 C117 1.185 . S
O124 Zn120 2.086 . S
C125 O121 1.278 . S
C125 O126 1.211 . S
O126 C125 1.211 . S
C127 O119 1.284 . S
C127 O128 1.273 . S
O128 C127 1.273 . S
O129 Zn120 1.977 . S
O129 C122 1.267 . S
C130 O131 1.167 . S
C130 O137 1.153 1_565 S
O131 C130 1.167 . S
O132 Zn133 1.899 . S
O132 C140 1.284 . S
Zn133 O132 1.899 . S
Zn133 O134 2.032 . S
Zn133 O137 2.086 . S
Zn133 O142 1.977 . S
O134 Zn133 2.032 . S
O134 C138 1.278 . S
C135 O136 1.203 . S
C135 O142 1.267 . S
O136 C135 1.203 . S
O137 C130 1.153 1_545 S
O137 Zn133 2.086 . S
C138 O134 1.278 . S
C138 O139 1.211 . S
O139 C138 1.211 . S
C140 O132 1.284 . S
C140 O141 1.273 . S
O141 C140 1.273 . S
O142 Zn133 1.977 . S
O142 C135 1.267 . S
C143 O144 1.160 . S
C143 O150 1.185 1_554 S
O144 C143 1.160 . S
O145 Zn146 1.899 . S
O145 C153 1.284 . S
Zn146 O145 1.899 . S
Zn146 O147 2.032 1_554 S
Zn146 O150 2.086 1_554 S
Zn146 O155 1.981 . S
O147 Zn146 2.032 1_556 S
O147 C151 1.278 . S
C148 O149 1.203 . S
C148 O155 1.270 . S
O149 C148 1.203 . S
O150 C143 1.185 1_556 S
O150 Zn146 2.086 1_556 S
C151 O147 1.278 . S
C151 O152 1.211 . S
O152 C151 1.211 . S
C153 O145 1.284 . S
C153 O154 1.273 . S
O154 C153 1.273 . S
O155 Zn146 1.981 . S
O155 C148 1.270 . S
C156 O157 1.160 . S
C156 O163 1.185 . S
O157 C156 1.160 . S
O158 Zn159 1.899 . S
O158 C166 1.284 . S
Zn159 O158 1.899 . S
Zn159 O160 2.032 . S
Zn159 O163 2.086 . S
Zn159 O168 1.977 . S
O160 Zn159 2.032 . S
O160 C164 1.278 . S
C161 O162 1.203 . S
C161 O168 1.267 . S
O162 C161 1.203 . S
O163 C156 1.185 . S
O163 Zn159 2.086 . S
C164 O160 1.278 . S
C164 O165 1.211 . S
O165 C164 1.211 . S
C166 O158 1.284 . S
C166 O167 1.273 . S
O167 C166 1.273 . S
O168 Zn159 1.977 . S
O168 C161 1.267 . S
C169 O170 1.160 . S
C169 O176 1.185 . S
O170 C169 1.160 . S
O171 Zn172 1.899 . S
O171 C179 1.284 . S
Zn172 O171 1.899 . S
Zn172 O173 2.032 . S
Zn172 O176 2.086 . S
Zn172 O181 1.977 . S
O173 Zn172 2.032 . S
O173 C177 1.278 . S
C174 O175 1.203 . S
C174 O181 1.267 . S
O175 C174 1.203 . S
O176 C169 1.185 . S
O176 Zn172 2.086 . S
C177 O173 1.278 . S
C177 O178 1.211 . S
O178 C177 1.211 . S
C179 O171 1.284 . S
C179 O180 1.273 . S
O180 C179 1.273 . S
O181 Zn172 1.977 . S
O181 C174 1.267 . S
C182 O183 1.160 . S
C182 O189 1.185 . S
O183 C182 1.160 . S
O184 Zn185 1.899 . S
O184 C192 1.284 . S
Zn185 O184 1.899 . S
Zn185 O186 2.032 . S
Zn185 O189 2.086 . S
Zn185 O194 1.977 . S
O186 Zn185 2.032 . S
O186 C190 1.278 . S
C187 O188 1.203 . S
C187 O194 1.267 . S
O188 C187 1.203 . S
O189 C182 1.185 . S
O189 Zn185 2.086 . S
C190 O186 1.278 . S
C190 O191 1.211 . S
O191 C190 1.211 . S
C192 O184 1.284 . S
C192 O193 1.273 . S
O193 C192 1.273 . S
O194 Zn185 1.977 . S
O194 C187 1.267 . S
C195 O196 1.160 . S
C195 O202 1.185 . S
O196 C195 1.160 . S
O197 Zn198 1.899 . S
O197 C205 1.284 . S
Zn198 O197 1.899 . S
Zn198 O199 2.032 . S
Zn198 O202 2.086 . S
Zn198 O207 1.977 . S
O199 Zn198 2.032 . S
O199 C203 1.278 . S
C200 O201 1.203 . S
C200 O207 1.267 . S
O201 C200 1.203 . S
O202 C195 1.185 . S
O202 Zn198 2.086 . S
C203 O199 1.278 . S
C203 O204 1.211 . S
O204 C203 1.211 . S
C205 O197 1.284 . S
C205 O206 1.273 . S
O206 C205 1.273 . S
O207 Zn198 1.977 . S
O207 C200 1.267 . S
C208 O209 1.160 . S
C208 O215 1.185 . S
O209 C208 1.160 . S
O210 Zn211 1.899 . S
O210 C218 1.284 . S
Zn211 O210 1.899 . S
Zn211 O212 2.032 . S
Zn211 O215 2.086 . S
Zn211 O220 1.977 1_545 S
O212 Zn211 2.032 . S
O212 C216 1.278 . S
C213 O214 1.203 . S
C213 O220 1.267 . S
O214 C213 1.203 . S
O215 C208 1.185 . S
O215 Zn211 2.086 . S
C216 O212 1.278 . S
C216 O217 1.211 1_545 S
O217 C216 1.211 1_565 S
C218 O210 1.284 . S
C218 O219 1.273 . S
O219 C218 1.273 . S
O220 Zn211 1.977 1_565 S
O220 C213 1.267 . S
C221 O222 1.160 . S
C221 O228 1.185 . S
O222 C221 1.160 . S
O223 Zn224 1.899 . S
O223 C231 1.284 . S
Zn224 O223 1.899 . S
Zn224 O225 2.032 . S
Zn224 O228 2.086 . S
Zn224 O233 1.977 . S
O225 Zn224 2.032 . S
O225 C229 1.278 . S
C226 O227 1.203 . S
C226 O233 1.267 . S
O227 C226 1.203 . S
O228 C221 1.185 . S
O228 Zn224 2.086 . S
C229 O225 1.278 . S
C229 O230 1.211 . S
O230 C229 1.211 . S
C231 O223 1.284 . S
C231 O232 1.273 . S
O232 C231 1.273 . S
O233 Zn224 1.977 . S
O233 C226 1.267 . S
C234 O235 1.160 . S
C234 O241 1.185 . S
O235 C234 1.160 . S
O236 Zn237 1.899 . S
O236 C244 1.284 . S
Zn237 O236 1.899 . S
Zn237 O238 2.032 . S
Zn237 O241 2.086 . S
Zn237 O246 1.977 . S
O238 Zn237 2.032 . S
O238 C242 1.278 . S
C239 O240 1.203 . S
C239 O246 1.267 . S
O240 C239 1.203 . S
O241 C234 1.185 . S
O241 Zn237 2.086 . S
C242 O238 1.278 . S
C242 O243 1.211 . S
O243 C242 1.211 . S
C244 O236 1.284 . S
C244 O245 1.273 . S
O245 C244 1.273 . S
O246 Zn237 1.977 . S
O246 C239 1.267 . S
C247 O248 1.153 1_545 S
C247 O254 1.185 . S
O248 C247 1.153 1_565 S
O249 Zn250 1.899 . S
O249 C257 1.284 . S
Zn250 O249 1.899 . S
Zn250 O251 2.032 . S
Zn250 O254 2.086 . S
Zn250 O259 1.977 . S
O251 Zn250 2.032 . S
O251 C255 1.278 . S
C252 O253 1.203 . S
C252 O259 1.267 . S
O253 C252 1.203 . S
O254 C247 1.185 . S
O254 Zn250 2.086 . S
C255 O251 1.278 . S
C255 O256 1.211 . S
O256 C255 1.211 . S
C257 O249 1.284 . S
C257 O258 1.273 . S
O258 C257 1.273 . S
O259 Zn250 1.977 . S
O259 C252 1.267 . S
C260 O261 1.160 . S
C260 O267 1.185 . S
O261 C260 1.160 . S
O262 Zn263 1.899 . S
O262 C270 1.284 . S
Zn263 O262 1.899 . S
Zn263 O264 2.032 1_554 S
Zn263 O267 2.086 . S
Zn263 O272 1.977 . S
O264 Zn263 2.032 1_556 S
O264 C268 1.278 . S
C265 O266 1.203 . S
C265 O272 1.267 . S
O266 C265 1.203 . S
O267 C260 1.185 . S
O267 Zn263 2.086 . S
C268 O264 1.278 . S
C268 O269 1.211 . S
O269 C268 1.211 . S
C270 O262 1.284 . S
C270 O271 1.273 . S
O271 C270 1.273 . S
O272 Zn263 1.977 . S
O272 C265 1.267 . S
C273 O274 1.160 . S
C273 O280 1.185 . S
O274 C273 1.160 . S
O275 Zn276 1.899 . S
O275 C283 1.284 . S
Zn276 O275 1.899 . S
Zn276 O277 2.032 . S
Zn276 O280 2.086 . S
Zn276 O285 1.977 . S
O277 Zn276 2.032 . S
O277 C281 1.278 . S
C278 O279 1.203 . S
C278 O285 1.267 . S
O279 C278 1.203 . S
O280 C273 1.185 . S
O280 Zn276 2.086 . S
C281 O277 1.278 . S
C281 O282 1.211 . S
O282 C281 1.211 . S
C283 O275 1.284 . S
C283 O284 1.273 . S
O284 C283 1.273 . S
O285 Zn276 1.977 . S
O285 C278 1.267 . S
C286 O287 1.160 . S
C286 O293 1.185 . S
O287 C286 1.160 . S
O288 Zn289 1.899 . S
O288 C296 1.284 . S
Zn289 O288 1.899 . S
Zn289 O290 2.032 . S
Zn289 O293 2.086 . S
Zn289 O298 1.977 . S
O290 Zn289 2.032 . S
O290 C294 1.278 . S
C291 O292 1.203 . S
C291 O298 1.267 . S
O292 C291 1.203 . S
O293 C286 1.185 . S
O293 Zn289 2.086 . S
C294 O290 1.278 . S
C294 O295 1.211 . S
O295 C294 1.211 . S
C296 O288 1.284 . S
C296 O297 1.273 . S
O297 C296 1.273 . S
O298 Zn289 1.977 . S
O298 C291 1.267 . S
C299 O300 1.160 . S
C299 O306 1.185 . S
O300 C299 1.160 . S
O301 Zn302 1.899 . S
O301 C309 1.284 . S
Zn302 O301 1.899 . S
Zn302 O303 2.032 . S
Zn302 O306 2.086 . S
Zn302 O311 1.977 . S
O303 Zn302 2.032 . S
O303 C307 1.278 . S
C304 O305 1.203 . S
C304 O311 1.267 . S
O305 C304 1.203 . S
O306 C299 1.185 . S
O306 Zn302 2.086 . S
C307 O303 1.278 . S
C307 O308 1.211 . S
O308 C307 1.211 . S
C309 O301 1.284 . S
C309 O310 1.273 . S
O310 C309 1.273 . S
O311 Zn302 1.977 . S
O311 C304 1.267 . S
Eu312 N341 2.600 . S
Eu312 N347 2.562 . S
Eu312 O356 2.462 . S
Eu312 O357 2.373 . S
Eu312 O359 2.432 . S
Eu312 O360 2.296 1_554 S
Eu312 O364 2.335 1_545 S
Eu312 O367 2.372 . S
Eu312 C376 2.787 . S
C313 N314 1.365 . S
C313 C316 1.405 . S
C313 C320 1.431 1_556 S
N314 C313 1.365 . S
N314 C317 1.319 . S
N314 Eu323 2.600 1_566 S
C315 C317 1.397 . S
C315 C318 1.367 . S
C315 H335 0.931 . S
C316 C313 1.405 . S
C316 C318 1.403 . S
C316 C322 1.439 . S
C317 N314 1.319 . S
C317 C315 1.397 . S
C317 H328 0.930 . S
C318 C315 1.367 . S
C318 C316 1.403 . S
C318 H339 0.929 . S
C319 C320 1.437 . S
C319 C321 1.387 1_554 S
C319 C325 1.404 . S
C320 C313 1.431 1_554 S
C320 C319 1.437 . S
C320 N324 1.361 . S
C321 C319 1.387 1_556 S
C321 C322 1.374 . S
C321 H336 0.931 . S
C322 C316 1.439 . S
C322 C321 1.374 . S
C322 H337 0.931 . S
Eu323 N314 2.600 1_544 S
Eu323 N324 2.562 1_545 S
Eu323 O358 2.335 1_655 S
Eu323 O361 2.372 1_654 S
Eu323 O362 2.462 . S
Eu323 O363 2.373 1_645 S
Eu323 O365 2.432 1_554 S
Eu323 O366 2.291 1_655 S
Eu323 C387 2.787 1_554 S
N324 C320 1.361 . S
N324 Eu323 2.562 1_565 S
N324 C326 1.325 . S
C325 C319 1.404 . S
C325 C327 1.366 . S
C325 H333 0.930 . S
C326 N324 1.325 . S
C326 C327 1.416 . S
C326 H332 0.929 . S
C327 C325 1.366 . S
C327 C326 1.416 . S
C327 H329 0.930 . S
H328 C317 0.930 . S
H329 C327 0.930 . S
H330 C345 0.930 . S
H331 C352 0.930 . S
H332 C326 0.929 . S
H333 C325 0.930 . S
H334 C348 0.929 1_556 S
H335 C315 0.931 . S
H336 C321 0.931 . S
H337 C322 0.931 . S
H338 C343 0.931 . S
H339 C318 0.929 . S
H340 C351 0.930 . S
N341 Eu312 2.600 . S
N341 C342 1.365 . S
N341 C345 1.319 . S
C342 N341 1.365 . S
C342 C344 1.405 . S
C342 C350 1.448 . S
C343 H338 0.931 . S
C343 C345 1.397 . S
C343 C346 1.367 . S
C344 C342 1.405 . S
C344 C346 1.403 . S
C344 C377 1.439 . S
C345 H330 0.930 . S
C345 N341 1.319 . S
C345 C343 1.397 . S
C346 C343 1.367 . S
C346 C344 1.403 . S
C346 H353 0.929 . S
N347 Eu312 2.562 . S
N347 C348 1.325 . S
N347 C350 1.351 . S
C348 H334 0.929 1_554 S
C348 N347 1.325 . S
C348 C352 1.416 1_554 S
C349 C350 1.430 . S
C349 C351 1.404 . S
C349 C378 1.387 . S
C350 C342 1.448 . S
C350 N347 1.351 . S
C350 C349 1.430 . S
C351 H340 0.930 . S
C351 C349 1.404 . S
C351 C352 1.366 1_554 S
C352 H331 0.930 . S
C352 C348 1.416 1_556 S
C352 C351 1.366 1_556 S
H353 C346 0.929 . S
H354 C377 0.931 . S
H355 C378 0.931 . S
O356 Eu312 2.462 . S
O356 C376 1.252 . S
O357 Eu312 2.373 . S
O357 C368 1.249 . S
O358 Eu323 2.335 1_455 S
O358 C368 1.264 . S
O359 Eu312 2.432 . S
O359 C376 1.268 . S
O360 Eu312 2.296 1_556 S
O360 C375 1.251 . S
O361 Eu323 2.372 1_456 S
O361 C375 1.257 . S
O362 Eu323 2.462 . S
O362 C387 1.252 1_554 S
O363 Eu323 2.373 1_465 S
O363 C379 1.249 . S
O364 Eu312 2.335 1_565 S
O364 C379 1.264 . S
O365 Eu323 2.432 1_556 S
O365 C387 1.268 . S
O366 Eu323 2.291 1_455 S
O366 C386 1.255 . S
O367 Eu312 2.372 . S
O367 C386 1.257 . S
C368 O357 1.249 . S
C368 O358 1.264 . S
C369 C372 1.382 . S
C369 C374 1.390 . S
C369 C376 1.506 . S
C370 C371 1.398 . S
C370 C374 1.392 1_565 S
C371 C370 1.398 . S
C371 C373 1.372 1_565 S
C371 H388 0.931 . S
C372 C369 1.382 . S
C372 C373 1.390 . S
C372 H389 0.931 . S
C373 C371 1.372 1_545 S
C373 C372 1.390 . S
C373 H390 0.929 . S
C374 C369 1.390 . S
C374 C370 1.392 1_545 S
C374 H391 0.930 . S
C375 O360 1.251 . S
C375 O361 1.257 . S
C376 Eu312 2.787 . S
C376 O356 1.252 . S
C376 O359 1.268 . S
C376 C369 1.506 . S
C377 C344 1.439 . S
C377 H354 0.931 . S
C377 C378 1.374 . S
C378 C349 1.387 . S
C378 H355 0.931 . S
C378 C377 1.374 . S
C379 O363 1.249 . S
C379 O364 1.264 . S
C380 C383 1.382 . S
C380 C384 1.390 1_556 S
C380 C387 1.506 . S
C381 C382 1.398 1_554 S
C381 C384 1.392 . S
C382 C381 1.398 1_556 S
C382 C385 1.372 . S
C382 H392 0.931 . S
C383 C380 1.382 . S
C383 C385 1.390 . S
C383 H393 0.931 . S
C384 C380 1.390 1_554 S
C384 C381 1.392 . S
C384 H394 0.930 . S
C385 C382 1.372 . S
C385 C383 1.390 . S
C385 H395 0.929 . S
C386 O366 1.255 . S
C386 O367 1.257 . S
C387 Eu323 2.787 1_556 S
C387 O362 1.252 1_556 S
C387 O365 1.268 . S
C387 C380 1.506 . S
H388 C371 0.931 . S
H389 C372 0.931 . S
H390 C373 0.929 . S
H391 C374 0.930 . S
H392 C382 0.931 . S
H393 C383 0.931 . S
H394 C384 0.930 . S
H395 C385 0.929 . S
Eu396 N425 2.600 . S
Eu396 N431 2.562 . S
Eu396 O440 2.462 . S
Eu396 O441 2.373 . S
Eu396 O443 2.432 . S
Eu396 O444 2.291 . S
Eu396 O448 2.335 . S
Eu396 O451 2.372 . S
Eu396 C460 2.787 . S
C397 N398 1.365 . S
C397 C400 1.405 . S
C397 C404 1.448 . S
N398 C397 1.365 . S
N398 C401 1.319 . S
N398 Eu407 2.600 . S
C399 C401 1.397 . S
C399 C402 1.367 . S
C399 H419 0.931 . S
C400 C397 1.405 . S
C400 C402 1.403 . S
C400 C406 1.439 . S
C401 N398 1.319 . S
C401 C399 1.397 . S
C401 H412 0.930 . S
C402 C399 1.367 . S
C402 C400 1.403 . S
C402 H423 0.929 . S
C403 C404 1.430 . S
C403 C405 1.387 . S
C403 C409 1.404 . S
C404 C397 1.448 . S
C404 C403 1.430 . S
C404 N408 1.351 . S
C405 C403 1.387 . S
C405 C406 1.374 . S
C405 H420 0.931 . S
C406 C400 1.439 . S
C406 C405 1.374 . S
C406 H421 0.931 . S
Eu407 N398 2.600 . S
Eu407 N408 2.562 . S
Eu407 O442 2.335 . S
Eu407 O445 2.372 . S
Eu407 O446 2.462 . S
Eu407 O447 2.373 . S
Eu407 O449 2.432 . S
Eu407 O450 2.291 . S
Eu407 C471 2.787 . S
N408 C404 1.351 . S
N408 Eu407 2.562 . S
N408 C410 1.325 . S
C409 C403 1.404 . S
C409 C411 1.366 . S
C409 H417 0.930 . S
C410 N408 1.325 . S
C410 C411 1.416 . S
C410 H416 0.929 . S
C411 C409 1.366 . S
C411 C410 1.416 . S
C411 H413 0.930 . S
H412 C401 0.930 . S
H413 C411 0.930 . S
H414 C429 0.930 . S
H415 C436 0.930 . S
H416 C410 0.929 . S
H417 C409 0.930 . S
H418 C432 0.929 . S
H419 C399 0.931 . S
H420 C405 0.931 . S
H421 C406 0.931 . S
H422 C427 0.931 . S
H423 C402 0.929 . S
H424 C435 0.930 . S
N425 Eu396 2.600 . S
N425 C426 1.365 . S
N425 C429 1.319 . S
C426 N425 1.365 . S
C426 C428 1.405 . S
C426 C434 1.448 . S
C427 H422 0.931 . S
C427 C429 1.397 . S
C427 C430 1.367 . S
C428 C426 1.405 . S
C428 C430 1.403 . S
C428 C461 1.439 . S
C429 H414 0.930 . S
C429 N425 1.319 . S
C429 C427 1.397 . S
C430 C427 1.367 . S
C430 C428 1.403 . S
C430 H437 0.929 . S
N431 Eu396 2.562 . S
N431 C432 1.325 . S
N431 C434 1.351 . S
C432 H418 0.929 . S
C432 N431 1.325 . S
C432 C436 1.416 . S
C433 C434 1.430 . S
C433 C435 1.404 . S
C433 C462 1.387 . S
C434 C426 1.448 . S
C434 N431 1.351 . S
C434 C433 1.430 . S
C435 H424 0.930 . S
C435 C433 1.404 . S
C435 C436 1.366 . S
C436 H415 0.930 . S
C436 C432 1.416 . S
C436 C435 1.366 . S
H437 C430 0.929 . S
H438 C461 0.931 . S
H439 C462 0.931 . S
O440 Eu396 2.462 . S
O440 C460 1.252 . S
O441 Eu396 2.373 . S
O441 C452 1.249 . S
O442 Eu407 2.335 . S
O442 C452 1.264 . S
O443 Eu396 2.432 . S
O443 C460 1.268 . S
O444 Eu396 2.291 . S
O444 C459 1.255 . S
O445 Eu407 2.372 . S
O445 C459 1.257 . S
O446 Eu407 2.462 . S
O446 C471 1.252 . S
O447 Eu407 2.373 . S
O447 C463 1.249 . S
O448 Eu396 2.335 . S
O448 C463 1.264 . S
O449 Eu407 2.432 . S
O449 C471 1.268 . S
O450 Eu407 2.291 . S
O450 C470 1.255 . S
O451 Eu396 2.372 . S
O451 C470 1.257 . S
C452 O441 1.249 . S
C452 O442 1.264 . S
C453 C456 1.382 . S
C453 C458 1.390 . S
C453 C460 1.506 . S
C454 C455 1.398 . S
C454 C458 1.392 . S
C455 C454 1.398 . S
C455 C457 1.372 . S
C455 H472 0.931 . S
C456 C453 1.382 . S
C456 C457 1.390 . S
C456 H473 0.931 . S
C457 C455 1.372 . S
C457 C456 1.390 . S
C457 H474 0.929 . S
C458 C453 1.390 . S
C458 C454 1.392 . S
C458 H475 0.930 . S
C459 O444 1.255 . S
C459 O445 1.257 . S
C460 Eu396 2.787 . S
C460 O440 1.252 . S
C460 O443 1.268 . S
C460 C453 1.506 . S
C461 C428 1.439 . S
C461 H438 0.931 . S
C461 C462 1.374 . S
C462 C433 1.387 . S
C462 H439 0.931 . S
C462 C461 1.374 . S
C463 O447 1.249 . S
C463 O448 1.264 . S
C464 C467 1.382 . S
C464 C468 1.390 . S
C464 C471 1.506 . S
C465 C466 1.398 . S
C465 C468 1.392 . S
C466 C465 1.398 . S
C466 C469 1.372 . S
C466 H476 0.931 . S
C467 C464 1.382 . S
C467 C469 1.390 . S
C467 H477 0.931 . S
C468 C464 1.390 . S
C468 C465 1.392 . S
C468 H478 0.930 . S
C469 C466 1.372 . S
C469 C467 1.390 . S
C469 H479 0.929 . S
C470 O450 1.255 . S
C470 O451 1.257 . S
C471 Eu407 2.787 . S
C471 O446 1.252 . S
C471 O449 1.268 . S
C471 C464 1.506 . S
H472 C455 0.931 . S
H473 C456 0.931 . S
H474 C457 0.929 . S
H475 C458 0.930 . S
H476 C466 0.931 . S
H477 C467 0.931 . S
H478 C468 0.930 . S
H479 C469 0.929 . S
Eu480 N509 2.622 . S
Eu480 N515 2.562 1_545 S
Eu480 O524 2.462 . S
Eu480 O525 2.373 1_545 S
Eu480 O527 2.432 . S
Eu480 O528 2.291 . S
Eu480 O532 2.335 . S
Eu480 O535 2.372 . S
Eu480 C544 2.787 . S
C481 N482 1.365 . S
C481 C484 1.405 . S
C481 C488 1.448 . S
N482 C481 1.365 . S
N482 C485 1.319 . S
N482 Eu491 2.600 . S
C483 C485 1.397 . S
C483 C486 1.367 . S
C483 H503 0.931 . S
C484 C481 1.405 . S
C484 C486 1.403 . S
C484 C490 1.439 . S
C485 N482 1.319 . S
C485 C483 1.397 . S
C485 H496 0.930 . S
C486 C483 1.367 . S
C486 C484 1.403 . S
C486 H507 0.929 . S
C487 C488 1.430 . S
C487 C489 1.387 . S
C487 C493 1.404 . S
C488 C481 1.448 . S
C488 C487 1.430 . S
C488 N492 1.351 . S
C489 C487 1.387 . S
C489 C490 1.374 . S
C489 H504 0.931 . S
C490 C484 1.439 . S
C490 C489 1.374 . S
C490 H505 0.931 . S
Eu491 N482 2.600 . S
Eu491 N492 2.562 . S
Eu491 O526 2.335 1_545 S
Eu491 O529 2.372 . S
Eu491 O530 2.462 . S
Eu491 O531 2.373 . S
Eu491 O533 2.432 . S
Eu491 O534 2.291 . S
Eu491 C555 2.787 . S
N492 C488 1.351 . S
N492 Eu491 2.562 . S
N492 C494 1.325 . S
C493 C487 1.404 . S
C493 C495 1.366 . S
C493 H501 0.930 . S
C494 N492 1.325 . S
C494 C495 1.416 . S
C494 H500 0.929 . S
C495 C493 1.366 . S
C495 C494 1.416 . S
C495 H497 0.930 . S
H496 C485 0.930 . S
H497 C495 0.930 . S
H498 C513 0.930 . S
H499 C520 0.930 . S
H500 C494 0.929 . S
H501 C493 0.930 . S
H502 C516 0.929 1_545 S
H503 C483 0.931 . S
H504 C489 0.931 . S
H505 C490 0.931 . S
H506 C511 0.931 . S
H507 C486 0.929 . S
H508 C519 0.930 . S
N509 Eu480 2.622 . S
N509 C510 1.342 1_545 S
N509 C513 1.318 . S
C510 N509 1.342 1_565 S
C510 C512 1.405 . S
C510 C518 1.448 . S
C511 H506 0.931 . S
C511 C513 1.397 1_565 S
C511 C514 1.367 . S
C512 C510 1.405 . S
C512 C514 1.403 . S
C512 C545 1.439 . S
C513 H498 0.930 . S
C513 N509 1.318 . S
C513 C511 1.397 1_545 S
C514 C511 1.367 . S
C514 C512 1.403 . S
C514 H521 0.929 . S
N515 Eu480 2.562 1_565 S
N515 C516 1.325 . S
N515 C518 1.351 . S
C516 H502 0.929 1_565 S
C516 N515 1.325 . S
C516 C520 1.416 . S
C517 C518 1.430 . S
C517 C519 1.404 . S
C517 C546 1.387 . S
C518 C510 1.448 . S
C518 N515 1.351 . S
C518 C517 1.430 . S
C519 H508 0.930 . S
C519 C517 1.404 . S
C519 C520 1.366 . S
C520 H499 0.930 . S
C520 C516 1.416 . S
C520 C519 1.366 . S
H521 C514 0.929 . S
H522 C545 0.931 . S
H523 C546 0.931 . S
O524 Eu480 2.462 . S
O524 C544 1.252 . S
O525 Eu480 2.373 1_565 S
O525 C536 1.249 . S
O526 Eu491 2.335 1_565 S
O526 C536 1.264 . S
O527 Eu480 2.432 . S
O527 C544 1.268 . S
O528 Eu480 2.291 . S
O528 C543 1.255 . S
O529 Eu491 2.372 . S
O529 C543 1.257 . S
O530 Eu491 2.462 . S
O530 C555 1.252 . S
O531 Eu491 2.373 . S
O531 C547 1.249 . S
O532 Eu480 2.335 . S
O532 C547 1.264 . S
O533 Eu491 2.432 . S
O533 C555 1.268 . S
O534 Eu491 2.291 . S
O534 C554 1.255 . S
O535 Eu480 2.372 . S
O535 C554 1.257 . S
C536 O525 1.249 . S
C536 O526 1.264 . S
C537 C540 1.382 . S
C537 C542 1.390 . S
C537 C544 1.506 . S
C538 C539 1.398 . S
C538 C542 1.392 . S
C539 C538 1.398 . S
C539 C541 1.372 . S
C539 H556 0.931 . S
C540 C537 1.382 . S
C540 C541 1.390 . S
C540 H557 0.931 . S
C541 C539 1.372 . S
C541 C540 1.390 . S
C541 H558 0.929 . S
C542 C537 1.390 . S
C542 C538 1.392 . S
C542 H559 0.930 . S
C543 O528 1.255 . S
C543 O529 1.257 . S
C544 Eu480 2.787 . S
C544 O524 1.252 . S
C544 O527 1.268 . S
C544 C537 1.506 . S
C545 C512 1.439 . S
C545 H522 0.931 . S
C545 C546 1.374 . S
C546 C517 1.387 . S
C546 H523 0.931 . S
C546 C545 1.374 . S
C547 O531 1.249 . S
C547 O532 1.264 . S
C548 C551 1.381 1_545 S
C548 C552 1.387 1_545 S
C548 C555 1.511 . S
C549 C550 1.398 . S
C549 C552 1.392 . S
C550 C549 1.398 . S
C550 C553 1.372 . S
C550 H560 0.931 . S
C551 C548 1.381 1_565 S
C551 C553 1.390 . S
C551 H561 0.944 . S
C552 C548 1.387 1_565 S
C552 C549 1.392 . S
C552 H562 0.930 . S
C553 C550 1.372 . S
C553 C551 1.390 . S
C553 H563 0.929 . S
C554 O534 1.255 . S
C554 O535 1.257 . S
C555 Eu491 2.787 . S
C555 O530 1.252 . S
C555 O533 1.268 . S
C555 C548 1.511 . S
H556 C539 0.931 . S
H557 C540 0.931 . S
H558 C541 0.929 . S
H559 C542 0.930 . S
H560 C550 0.931 . S
H561 C551 0.944 . S
H562 C552 0.930 . S
H563 C553 0.929 . S
Eu564 N593 2.600 . S
Eu564 N599 2.562 . S
Eu564 O608 2.462 . S
Eu564 O609 2.373 . S
Eu564 O611 2.432 . S
Eu564 O612 2.291 . S
Eu564 O616 2.335 . S
Eu564 O619 2.372 . S
Eu564 C628 2.787 . S
C565 N566 1.365 . S
C565 C568 1.405 . S
C565 C572 1.448 . S
N566 C565 1.365 . S
N566 C569 1.319 . S
N566 Eu575 2.600 . S
C567 C569 1.397 . S
C567 C570 1.367 . S
C567 H587 0.931 . S
C568 C565 1.405 . S
C568 C570 1.403 . S
C568 C574 1.439 . S
C569 N566 1.319 . S
C569 C567 1.397 . S
C569 H580 0.930 . S
C570 C567 1.367 . S
C570 C568 1.403 . S
C570 H591 0.929 . S
C571 C572 1.430 . S
C571 C573 1.387 . S
C571 C577 1.404 . S
C572 C565 1.448 . S
C572 C571 1.430 . S
C572 N576 1.351 . S
C573 C571 1.387 . S
C573 C574 1.374 . S
C573 H588 0.931 . S
C574 C568 1.439 . S
C574 C573 1.374 . S
C574 H589 0.931 . S
Eu575 N566 2.600 . S
Eu575 N576 2.562 . S
Eu575 O610 2.335 . S
Eu575 O613 2.372 . S
Eu575 O614 2.462 . S
Eu575 O615 2.373 . S
Eu575 O617 2.432 . S
Eu575 O618 2.291 . S
Eu575 C639 2.787 . S
N576 C572 1.351 . S
N576 Eu575 2.562 . S
N576 C578 1.325 . S
C577 C571 1.404 . S
C577 C579 1.366 . S
C577 H585 0.930 . S
C578 N576 1.325 . S
C578 C579 1.416 . S
C578 H584 0.929 . S
C579 C577 1.366 . S
C579 C578 1.416 . S
C579 H581 0.930 . S
H580 C569 0.930 . S
H581 C579 0.930 . S
H582 C597 0.930 . S
H583 C604 0.930 . S
H584 C578 0.929 . S
H585 C577 0.930 . S
H586 C600 0.929 . S
H587 C567 0.931 . S
H588 C573 0.931 . S
H589 C574 0.931 . S
H590 C595 0.931 . S
H591 C570 0.929 . S
H592 C603 0.930 . S
N593 Eu564 2.600 . S
N593 C594 1.365 . S
N593 C597 1.319 . S
C594 N593 1.365 . S
C594 C596 1.405 . S
C594 C602 1.448 . S
C595 H590 0.931 . S
C595 C597 1.397 . S
C595 C598 1.367 . S
C596 C594 1.405 . S
C596 C598 1.403 . S
C596 C629 1.439 . S
C597 H582 0.930 . S
C597 N593 1.319 . S
C597 C595 1.397 . S
C598 C595 1.367 . S
C598 C596 1.403 . S
C598 H605 0.929 . S
N599 Eu564 2.562 . S
N599 C600 1.325 . S
N599 C602 1.351 . S
C600 H586 0.929 . S
C600 N599 1.325 . S
C600 C604 1.416 . S
C601 C602 1.430 . S
C601 C603 1.404 . S
C601 C630 1.387 . S
C602 C594 1.448 . S
C602 N599 1.351 . S
C602 C601 1.430 . S
C603 H592 0.930 . S
C603 C601 1.404 . S
C603 C604 1.366 . S
C604 H583 0.930 . S
C604 C600 1.416 . S
C604 C603 1.366 . S
H605 C598 0.929 . S
H606 C629 0.931 . S
H607 C630 0.931 . S
O608 Eu564 2.462 . S
O608 C628 1.252 . S
O609 Eu564 2.373 . S
O609 C620 1.249 . S
O610 Eu575 2.335 . S
O610 C620 1.264 . S
O611 Eu564 2.432 . S
O611 C628 1.268 . S
O612 Eu564 2.291 . S
O612 C627 1.255 . S
O613 Eu575 2.372 . S
O613 C627 1.257 . S
O614 Eu575 2.462 . S
O614 C639 1.252 . S
O615 Eu575 2.373 . S
O615 C631 1.249 . S
O616 Eu564 2.335 . S
O616 C631 1.264 . S
O617 Eu575 2.432 . S
O617 C639 1.268 . S
O618 Eu575 2.291 . S
O618 C638 1.255 . S
O619 Eu564 2.372 . S
O619 C638 1.257 . S
C620 O609 1.249 . S
C620 O610 1.264 . S
C621 C624 1.382 . S
C621 C626 1.390 . S
C621 C628 1.506 . S
C622 C623 1.398 . S
C622 C626 1.392 . S
C623 C622 1.398 . S
C623 C625 1.372 . S
C623 H640 0.931 . S
C624 C621 1.382 . S
C624 C625 1.390 . S
C624 H641 0.931 . S
C625 C623 1.372 . S
C625 C624 1.390 . S
C625 H642 0.929 . S
C626 C621 1.390 . S
C626 C622 1.392 . S
C626 H643 0.930 . S
C627 O612 1.255 . S
C627 O613 1.257 . S
C628 Eu564 2.787 . S
C628 O608 1.252 . S
C628 O611 1.268 . S
C628 C621 1.506 . S
C629 C596 1.439 . S
C629 H606 0.931 . S
C629 C630 1.374 . S
C630 C601 1.387 . S
C630 H607 0.931 . S
C630 C629 1.374 . S
C631 O615 1.249 . S
C631 O616 1.264 . S
C632 C635 1.382 . S
C632 C636 1.390 . S
C632 C639 1.506 . S
C633 C634 1.398 . S
C633 C636 1.392 . S
C634 C633 1.398 . S
C634 C637 1.372 . S
C634 H644 0.931 . S
C635 C632 1.382 . S
C635 C637 1.390 . S
C635 H645 0.931 . S
C636 C632 1.390 . S
C636 C633 1.392 . S
C636 H646 0.930 . S
C637 C634 1.372 . S
C637 C635 1.390 . S
C637 H647 0.929 . S
C638 O618 1.255 . S
C638 O619 1.257 . S
C639 Eu575 2.787 . S
C639 O614 1.252 . S
C639 O617 1.268 . S
C639 C632 1.506 . S
H640 C623 0.931 . S
H641 C624 0.931 . S
H642 C625 0.929 . S
H643 C626 0.930 . S
H644 C634 0.931 . S
H645 C635 0.931 . S
H646 C636 0.930 . S
H647 C637 0.929 . S
Eu648 N677 2.603 . S
Eu648 N683 2.567 . S
Eu648 O692 2.469 . S
Eu648 O693 2.368 1_565 S
Eu648 O695 2.438 . S
Eu648 O696 2.288 1_565 S
Eu648 O700 2.332 1_565 S
Eu648 O703 2.366 1_565 S
Eu648 C712 2.794 . S
C649 N650 1.365 1_455 S
C649 C652 1.405 1_455 S
C649 C656 1.448 . S
N650 C649 1.365 1_655 S
N650 C653 1.319 . S
N650 Eu659 2.600 1_655 S
C651 C653 1.397 . S
C651 C654 1.367 . S
C651 H671 0.931 . S
C652 C649 1.405 1_655 S
C652 C654 1.403 . S
C652 C658 1.439 1_655 S
C653 N650 1.319 . S
C653 C651 1.397 . S
C653 H664 0.930 . S
C654 C651 1.367 . S
C654 C652 1.403 . S
C654 H675 0.929 . S
C655 C656 1.430 . S
C655 C657 1.387 . S
C655 C661 1.404 . S
C656 C649 1.448 . S
C656 C655 1.430 . S
C656 N660 1.351 . S
C657 C655 1.387 . S
C657 C658 1.374 . S
C657 H672 0.931 . S
C658 C652 1.439 1_455 S
C658 C657 1.374 . S
C658 H673 0.931 1_455 S
Eu659 N650 2.600 1_455 S
Eu659 N660 2.562 . S
Eu659 O694 2.335 . S
Eu659 O697 2.372 1_455 S
Eu659 O698 2.462 . S
Eu659 O699 2.373 . S
Eu659 O701 2.432 1_455 S
Eu659 O702 2.291 . S
Eu659 C723 2.787 . S
N660 C656 1.351 . S
N660 Eu659 2.562 . S
N660 C662 1.325 . S
C661 C655 1.404 . S
C661 C663 1.366 . S
C661 H669 0.930 . S
C662 N660 1.325 . S
C662 C663 1.416 . S
C662 H668 0.929 . S
C663 C661 1.366 . S
C663 C662 1.416 . S
C663 H665 0.930 . S
H664 C653 0.930 . S
H665 C663 0.930 . S
H666 C681 0.930 1_545 S
H667 C688 0.930 . S
H668 C662 0.929 . S
H669 C661 0.930 . S
H670 C684 0.929 . S
H671 C651 0.931 . S
H672 C657 0.931 . S
H673 C658 0.931 1_655 S
H674 C679 0.931 . S
H675 C654 0.929 . S
H676 C687 0.930 . S
N677 Eu648 2.603 . S
N677 C678 1.365 . S
N677 C681 1.319 . S
C678 N677 1.365 . S
C678 C680 1.405 . S
C678 C686 1.448 . S
C679 H674 0.931 . S
C679 C681 1.397 . S
C679 C682 1.367 . S
C680 C678 1.405 . S
C680 C682 1.403 . S
C680 C713 1.439 . S
C681 H666 0.930 1_565 S
C681 N677 1.319 . S
C681 C679 1.397 . S
C682 C679 1.367 . S
C682 C680 1.403 . S
C682 H689 0.929 . S
N683 Eu648 2.567 . S
N683 C684 1.325 1_455 S
N683 C686 1.351 . S
C684 H670 0.929 . S
C684 N683 1.325 1_655 S
C684 C688 1.416 . S
C685 C686 1.430 . S
C685 C687 1.404 1_455 S
C685 C714 1.387 . S
C686 C678 1.448 . S
C686 N683 1.351 . S
C686 C685 1.430 . S
C687 H676 0.930 . S
C687 C685 1.404 1_655 S
C687 C688 1.366 . S
C688 H667 0.930 . S
C688 C684 1.416 . S
C688 C687 1.366 . S
H689 C682 0.929 . S
H690 C713 0.931 . S
H691 C714 0.931 . S
O692 Eu648 2.469 . S
O692 C712 1.252 . S
O693 Eu648 2.368 1_545 S
O693 C704 1.249 . S
O694 Eu659 2.335 . S
O694 C704 1.264 . S
O695 Eu648 2.438 . S
O695 C712 1.268 . S
O696 Eu648 2.288 1_545 S
O696 C711 1.255 1_455 S
O697 Eu659 2.372 1_655 S
O697 C711 1.257 . S
O698 Eu659 2.462 . S
O698 C723 1.252 . S
O699 Eu659 2.373 . S
O699 C715 1.249 . S
O700 Eu648 2.332 1_545 S
O700 C715 1.264 . S
O701 Eu659 2.432 1_655 S
O701 C723 1.268 1_655 S
O702 Eu659 2.291 . S
O702 C722 1.255 . S
O703 Eu648 2.366 1_545 S
O703 C722 1.257 . S
C704 O693 1.249 . S
C704 O694 1.264 . S
C705 C708 1.382 . S
C705 C710 1.390 . S
C705 C712 1.506 . S
C706 C707 1.398 . S
C706 C710 1.392 . S
C707 C706 1.398 . S
C707 C709 1.372 . S
C707 H724 0.931 . S
C708 C705 1.382 . S
C708 C709 1.390 . S
C708 H725 0.931 . S
C709 C707 1.372 . S
C709 C708 1.390 . S
C709 H726 0.929 . S
C710 C705 1.390 . S
C710 C706 1.392 . S
C710 H727 0.930 . S
C711 O696 1.255 1_655 S
C711 O697 1.257 . S
C712 Eu648 2.794 . S
C712 O692 1.252 . S
C712 O695 1.268 . S
C712 C705 1.506 . S
C713 C680 1.439 . S
C713 H690 0.931 . S
C713 C714 1.374 . S
C714 C685 1.387 . S
C714 H691 0.931 . S
C714 C713 1.374 . S
C715 O699 1.249 . S
C715 O700 1.264 . S
C716 C719 1.382 1_455 S
C716 C720 1.390 . S
C716 C723 1.506 . S
C717 C718 1.398 1_455 S
C717 C720 1.392 . S
C718 C717 1.398 1_655 S
C718 C721 1.372 . S
C718 H728 0.931 . S
C719 C716 1.382 1_655 S
C719 C721 1.390 . S
C719 H729 0.931 . S
C720 C716 1.390 . S
C720 C717 1.392 . S
C720 H730 0.930 . S
C721 C718 1.372 . S
C721 C719 1.390 . S
C721 H731 0.929 . S
C722 O702 1.255 . S
C722 O703 1.257 . S
C723 Eu659 2.787 . S
C723 O698 1.252 . S
C723 O701 1.268 1_455 S
C723 C716 1.506 . S
H724 C707 0.931 . S
H725 C708 0.931 . S
H726 C709 0.929 . S
H727 C710 0.930 . S
H728 C718 0.931 . S
H729 C719 0.931 . S
H730 C720 0.930 . S
H731 C721 0.929 . S
Eu732 N761 2.600 . S
Eu732 N767 2.562 . S
Eu732 O776 2.462 . S
Eu732 O777 2.373 . S
Eu732 O779 2.432 . S
Eu732 O780 2.291 . S
Eu732 O784 2.335 . S
Eu732 O787 2.372 . S
Eu732 C796 2.787 . S
C733 N734 1.365 . S
C733 C736 1.405 . S
C733 C740 1.448 . S
N734 C733 1.365 . S
N734 C737 1.319 . S
N734 Eu743 2.600 . S
C735 C737 1.397 . S
C735 C738 1.367 . S
C735 H755 0.931 . S
C736 C733 1.405 . S
C736 C738 1.403 . S
C736 C742 1.439 . S
C737 N734 1.319 . S
C737 C735 1.397 . S
C737 H748 0.930 . S
C738 C735 1.367 . S
C738 C736 1.403 . S
C738 H759 0.929 . S
C739 C740 1.430 . S
C739 C741 1.387 . S
C739 C745 1.404 . S
C740 C733 1.448 . S
C740 C739 1.430 . S
C740 N744 1.351 . S
C741 C739 1.387 . S
C741 C742 1.374 . S
C741 H756 0.931 . S
C742 C736 1.439 . S
C742 C741 1.374 . S
C742 H757 0.931 . S
Eu743 N734 2.600 . S
Eu743 N744 2.562 . S
Eu743 O778 2.335 . S
Eu743 O781 2.372 . S
Eu743 O782 2.462 . S
Eu743 O783 2.373 . S
Eu743 O785 2.432 . S
Eu743 O786 2.291 . S
Eu743 C807 2.787 . S
N744 C740 1.351 . S
N744 Eu743 2.562 . S
N744 C746 1.325 . S
C745 C739 1.404 . S
C745 C747 1.366 . S
C745 H753 0.930 . S
C746 N744 1.325 . S
C746 C747 1.416 . S
C746 H752 0.929 . S
C747 C745 1.366 . S
C747 C746 1.416 . S
C747 H749 0.930 . S
H748 C737 0.930 . S
H749 C747 0.930 . S
H750 C765 0.930 . S
H751 C772 0.930 . S
H752 C746 0.929 . S
H753 C745 0.930 . S
H754 C768 0.929 . S
H755 C735 0.931 . S
H756 C741 0.931 . S
H757 C742 0.931 . S
H758 C763 0.931 . S
H759 C738 0.929 . S
H760 C771 0.930 . S
N761 Eu732 2.600 . S
N761 C762 1.365 . S
N761 C765 1.319 . S
C762 N761 1.365 . S
C762 C764 1.405 . S
C762 C770 1.448 . S
C763 H758 0.931 . S
C763 C765 1.397 . S
C763 C766 1.367 . S
C764 C762 1.405 . S
C764 C766 1.403 . S
C764 C797 1.439 . S
C765 H750 0.930 . S
C765 N761 1.319 . S
C765 C763 1.397 . S
C766 C763 1.367 . S
C766 C764 1.403 . S
C766 H773 0.929 . S
N767 Eu732 2.562 . S
N767 C768 1.325 . S
N767 C770 1.351 . S
C768 H754 0.929 . S
C768 N767 1.325 . S
C768 C772 1.416 . S
C769 C770 1.430 . S
C769 C771 1.404 . S
C769 C798 1.387 . S
C770 C762 1.448 . S
C770 N767 1.351 . S
C770 C769 1.430 . S
C771 H760 0.930 . S
C771 C769 1.404 . S
C771 C772 1.366 . S
C772 H751 0.930 . S
C772 C768 1.416 . S
C772 C771 1.366 . S
H773 C766 0.929 . S
H774 C797 0.931 . S
H775 C798 0.931 . S
O776 Eu732 2.462 . S
O776 C796 1.252 . S
O777 Eu732 2.373 . S
O777 C788 1.249 . S
O778 Eu743 2.335 . S
O778 C788 1.264 . S
O779 Eu732 2.432 . S
O779 C796 1.268 . S
O780 Eu732 2.291 . S
O780 C795 1.255 . S
O781 Eu743 2.372 . S
O781 C795 1.257 . S
O782 Eu743 2.462 . S
O782 C807 1.252 . S
O783 Eu743 2.373 . S
O783 C799 1.249 . S
O784 Eu732 2.335 . S
O784 C799 1.264 . S
O785 Eu743 2.432 . S
O785 C807 1.268 . S
O786 Eu743 2.291 . S
O786 C806 1.255 . S
O787 Eu732 2.372 . S
O787 C806 1.257 . S
C788 O777 1.249 . S
C788 O778 1.264 . S
C789 C792 1.382 . S
C789 C794 1.390 . S
C789 C796 1.506 . S
C790 C791 1.398 . S
C790 C794 1.392 . S
C791 C790 1.398 . S
C791 C793 1.372 . S
C791 H808 0.931 . S
C792 C789 1.382 . S
C792 C793 1.390 . S
C792 H809 0.931 . S
C793 C791 1.372 . S
C793 C792 1.390 . S
C793 H810 0.929 . S
C794 C789 1.390 . S
C794 C790 1.392 . S
C794 H811 0.930 . S
C795 O780 1.255 . S
C795 O781 1.257 . S
C796 Eu732 2.787 . S
C796 O776 1.252 . S
C796 O779 1.268 . S
C796 C789 1.506 . S
C797 C764 1.439 . S
C797 H774 0.931 . S
C797 C798 1.374 . S
C798 C769 1.387 . S
C798 H775 0.931 . S
C798 C797 1.374 . S
C799 O783 1.249 . S
C799 O784 1.264 . S
C800 C803 1.382 . S
C800 C804 1.390 . S
C800 C807 1.506 . S
C801 C802 1.398 . S
C801 C804 1.392 . S
C802 C801 1.398 . S
C802 C805 1.372 . S
C802 H812 0.931 . S
C803 C800 1.382 . S
C803 C805 1.390 . S
C803 H813 0.931 . S
C804 C800 1.390 . S
C804 C801 1.392 . S
C804 H814 0.930 . S
C805 C802 1.372 . S
C805 C803 1.390 . S
C805 H815 0.929 . S
C806 O786 1.255 . S
C806 O787 1.257 . S
C807 Eu743 2.787 . S
C807 O782 1.252 . S
C807 O785 1.268 . S
C807 C800 1.506 . S
H808 C791 0.931 . S
H809 C792 0.931 . S
H810 C793 0.929 . S
H811 C794 0.930 . S
H812 C802 0.931 . S
H813 C803 0.931 . S
H814 C804 0.930 . S
H815 C805 0.929 . S
Eu816 N845 2.600 . S
Eu816 N851 2.562 . S
Eu816 O860 2.462 . S
Eu816 O861 2.373 1_556 S
Eu816 O863 2.432 . S
Eu816 O864 2.291 1_556 S
Eu816 O868 2.335 1_556 S
Eu816 O871 2.372 1_556 S
Eu816 C880 2.787 . S
C817 N818 1.365 . S
C817 C820 1.405 . S
C817 C824 1.448 1_565 S
N818 C817 1.365 . S
N818 C821 1.319 . S
N818 Eu827 2.600 1_565 S
C819 C821 1.397 . S
C819 C822 1.367 . S
C819 H839 0.931 . S
C820 C817 1.405 . S
C820 C822 1.403 . S
C820 C826 1.439 . S
C821 N818 1.319 . S
C821 C819 1.397 . S
C821 H832 0.930 . S
C822 C819 1.367 . S
C822 C820 1.403 . S
C822 H843 0.929 . S
C823 C824 1.430 . S
C823 C825 1.387 . S
C823 C829 1.404 . S
C824 C817 1.448 1_545 S
C824 C823 1.430 . S
C824 N828 1.351 . S
C825 C823 1.387 . S
C825 C826 1.374 1_545 S
C825 H840 0.931 . S
C826 C820 1.439 . S
C826 C825 1.374 1_565 S
C826 H841 0.931 . S
Eu827 N818 2.600 1_545 S
Eu827 N828 2.562 . S
Eu827 O862 2.335 . S
Eu827 O865 2.372 1_545 S
Eu827 O866 2.462 . S
Eu827 O867 2.373 . S
Eu827 O869 2.432 1_545 S
Eu827 O870 2.291 . S
Eu827 C891 2.787 1_545 S
N828 C824 1.351 . S
N828 Eu827 2.562 . S
N828 C830 1.325 . S
C829 C823 1.404 . S
C829 C831 1.366 . S
C829 H837 0.930 . S
C830 N828 1.325 . S
C830 C831 1.416 . S
C830 H836 0.929 . S
C831 C829 1.366 . S
C831 C830 1.416 . S
C831 H833 0.930 . S
H832 C821 0.930 . S
H833 C831 0.930 . S
H834 C849 0.930 1_554 S
H835 C856 0.930 . S
H836 C830 0.929 . S
H837 C829 0.930 . S
H838 C852 0.929 1_565 S
H839 C819 0.931 . S
H840 C825 0.931 . S
H841 C826 0.931 . S
H842 C847 0.931 . S
H843 C822 0.929 . S
H844 C855 0.930 1_565 S
N845 Eu816 2.600 . S
N845 C846 1.365 . S
N845 C849 1.319 . S
C846 N845 1.365 . S
C846 C848 1.405 . S
C846 C854 1.448 . S
C847 H842 0.931 . S
C847 C849 1.397 . S
C847 C850 1.367 . S
C848 C846 1.405 . S
C848 C850 1.403 . S
C848 C881 1.439 . S
C849 H834 0.930 1_556 S
C849 N845 1.319 . S
C849 C847 1.397 . S
C850 C847 1.367 . S
C850 C848 1.403 . S
C850 H857 0.929 . S
N851 Eu816 2.562 . S
N851 C852 1.325 . S
N851 C854 1.351 . S
C852 H838 0.929 1_545 S
C852 N851 1.325 . S
C852 C856 1.416 1_545 S
C853 C854 1.430 . S
C853 C855 1.404 . S
C853 C882 1.387 . S
C854 C846 1.448 . S
C854 N851 1.351 . S
C854 C853 1.430 . S
C855 H844 0.930 1_545 S
C855 C853 1.404 . S
C855 C856 1.366 1_545 S
C856 H835 0.930 . S
C856 C852 1.416 1_565 S
C856 C855 1.366 1_565 S
H857 C850 0.929 . S
H858 C881 0.931 . S
H859 C882 0.931 . S
O860 Eu816 2.462 . S
O860 C880 1.252 . S
O861 Eu816 2.373 1_554 S
O861 C872 1.249 . S
O862 Eu827 2.335 . S
O862 C872 1.264 . S
O863 Eu816 2.432 . S
O863 C880 1.268 . S
O864 Eu816 2.291 1_554 S
O864 C879 1.255 1_545 S
O865 Eu827 2.372 1_565 S
O865 C879 1.257 . S
O866 Eu827 2.462 . S
O866 C891 1.252 1_545 S
O867 Eu827 2.373 . S
O867 C883 1.249 . S
O868 Eu816 2.335 1_554 S
O868 C883 1.264 . S
O869 Eu827 2.432 1_565 S
O869 C891 1.268 . S
O870 Eu827 2.291 . S
O870 C890 1.255 . S
O871 Eu816 2.372 1_554 S
O871 C890 1.257 . S
C872 O861 1.249 . S
C872 O862 1.264 . S
C873 C876 1.382 . S
C873 C878 1.390 . S
C873 C880 1.506 . S
C874 C875 1.398 . S
C874 C878 1.392 . S
C875 C874 1.398 . S
C875 C877 1.372 . S
C875 H892 0.931 . S
C876 C873 1.382 . S
C876 C877 1.390 . S
C876 H893 0.931 . S
C877 C875 1.372 . S
C877 C876 1.390 . S
C877 H894 0.929 . S
C878 C873 1.390 . S
C878 C874 1.392 . S
C878 H895 0.930 . S
C879 O864 1.255 1_565 S
C879 O865 1.257 . S
C880 Eu816 2.787 . S
C880 O860 1.252 . S
C880 O863 1.268 . S
C880 C873 1.506 . S
C881 C848 1.439 . S
C881 H858 0.931 . S
C881 C882 1.374 . S
C882 C853 1.387 . S
C882 H859 0.931 . S
C882 C881 1.374 . S
C883 O867 1.249 . S
C883 O868 1.264 . S
C884 C887 1.382 . S
C884 C888 1.390 1_565 S
C884 C891 1.506 . S
C885 C886 1.398 1_545 S
C885 C888 1.392 . S
C886 C885 1.398 1_565 S
C886 C889 1.372 . S
C886 H896 0.931 . S
C887 C884 1.382 . S
C887 C889 1.390 . S
C887 H897 0.931 . S
C888 C884 1.390 1_545 S
C888 C885 1.392 . S
C888 H898 0.930 . S
C889 C886 1.372 . S
C889 C887 1.390 . S
C889 H899 0.929 . S
C890 O870 1.255 . S
C890 O871 1.257 . S
C891 Eu827 2.787 1_565 S
C891 O866 1.252 1_565 S
C891 O869 1.268 . S
C891 C884 1.506 . S
H892 C875 0.931 . S
H893 C876 0.931 . S
H894 C877 0.929 . S
H895 C878 0.930 . S
H896 C886 0.931 . S
H897 C887 0.931 . S
H898 C888 0.930 . S
H899 C889 0.929 . S
Eu900 N929 2.600 . S
Eu900 N935 2.562 . S
Eu900 O944 2.462 . S
Eu900 O945 2.373 . S
Eu900 O947 2.432 . S
Eu900 O948 2.291 . S
Eu900 O952 2.335 . S
Eu900 O955 2.372 . S
Eu900 C964 2.787 . S
C901 N902 1.365 . S
C901 C904 1.405 . S
C901 C908 1.448 . S
N902 C901 1.365 . S
N902 C905 1.319 . S
N902 Eu911 2.600 . S
C903 C905 1.397 . S
C903 C906 1.367 . S
C903 H923 0.931 . S
C904 C901 1.405 . S
C904 C906 1.403 . S
C904 C910 1.439 . S
C905 N902 1.319 . S
C905 C903 1.397 . S
C905 H916 0.930 . S
C906 C903 1.367 . S
C906 C904 1.403 . S
C906 H927 0.929 . S
C907 C908 1.430 . S
C907 C909 1.387 . S
C907 C913 1.404 . S
C908 C901 1.448 . S
C908 C907 1.430 . S
C908 N912 1.351 . S
C909 C907 1.387 . S
C909 C910 1.374 . S
C909 H924 0.931 . S
C910 C904 1.439 . S
C910 C909 1.374 . S
C910 H925 0.931 . S
Eu911 N902 2.600 . S
Eu911 N912 2.562 . S
Eu911 O946 2.335 . S
Eu911 O949 2.372 . S
Eu911 O950 2.462 . S
Eu911 O951 2.373 . S
Eu911 O953 2.432 . S
Eu911 O954 2.291 . S
Eu911 C975 2.787 . S
N912 C908 1.351 . S
N912 Eu911 2.562 . S
N912 C914 1.325 . S
C913 C907 1.404 . S
C913 C915 1.366 . S
C913 H921 0.930 . S
C914 N912 1.325 . S
C914 C915 1.416 . S
C914 H920 0.929 . S
C915 C913 1.366 . S
C915 C914 1.416 . S
C915 H917 0.930 . S
H916 C905 0.930 . S
H917 C915 0.930 . S
H918 C933 0.930 . S
H919 C940 0.930 . S
H920 C914 0.929 . S
H921 C913 0.930 . S
H922 C936 0.929 . S
H923 C903 0.931 . S
H924 C909 0.931 . S
H925 C910 0.931 . S
H926 C931 0.931 . S
H927 C906 0.929 . S
H928 C939 0.930 . S
N929 Eu900 2.600 . S
N929 C930 1.365 . S
N929 C933 1.319 . S
C930 N929 1.365 . S
C930 C932 1.405 . S
C930 C938 1.448 . S
C931 H926 0.931 . S
C931 C933 1.397 . S
C931 C934 1.367 . S
C932 C930 1.405 . S
C932 C934 1.403 . S
C932 C965 1.439 . S
C933 H918 0.930 . S
C933 N929 1.319 . S
C933 C931 1.397 . S
C934 C931 1.367 . S
C934 C932 1.403 . S
C934 H941 0.929 . S
N935 Eu900 2.562 . S
N935 C936 1.325 . S
N935 C938 1.351 . S
C936 H922 0.929 . S
C936 N935 1.325 . S
C936 C940 1.416 . S
C937 C938 1.430 . S
C937 C939 1.404 . S
C937 C966 1.387 . S
C938 C930 1.448 . S
C938 N935 1.351 . S
C938 C937 1.430 . S
C939 H928 0.930 . S
C939 C937 1.404 . S
C939 C940 1.366 . S
C940 H919 0.930 . S
C940 C936 1.416 . S
C940 C939 1.366 . S
H941 C934 0.929 . S
H942 C965 0.931 . S
H943 C966 0.931 . S
O944 Eu900 2.462 . S
O944 C964 1.252 . S
O945 Eu900 2.373 . S
O945 C956 1.249 . S
O946 Eu911 2.335 . S
O946 C956 1.264 . S
O947 Eu900 2.432 . S
O947 C964 1.268 . S
O948 Eu900 2.291 . S
O948 C963 1.255 . S
O949 Eu911 2.372 . S
O949 C963 1.257 . S
O950 Eu911 2.462 . S
O950 C975 1.252 . S
O951 Eu911 2.373 . S
O951 C967 1.249 . S
O952 Eu900 2.335 . S
O952 C967 1.264 . S
O953 Eu911 2.432 . S
O953 C975 1.268 . S
O954 Eu911 2.291 . S
O954 C974 1.255 . S
O955 Eu900 2.372 . S
O955 C974 1.257 . S
C956 O945 1.249 . S
C956 O946 1.264 . S
C957 C960 1.382 . S
C957 C962 1.390 . S
C957 C964 1.506 . S
C958 C959 1.398 . S
C958 C962 1.392 . S
C959 C958 1.398 . S
C959 C961 1.372 . S
C959 H976 0.931 . S
C960 C957 1.382 . S
C960 C961 1.390 . S
C960 H977 0.931 . S
C961 C959 1.372 . S
C961 C960 1.390 . S
C961 H978 0.929 . S
C962 C957 1.390 . S
C962 C958 1.392 . S
C962 H979 0.930 . S
C963 O948 1.255 . S
C963 O949 1.257 . S
C964 Eu900 2.787 . S
C964 O944 1.252 . S
C964 O947 1.268 . S
C964 C957 1.506 . S
C965 C932 1.439 . S
C965 H942 0.931 . S
C965 C966 1.374 . S
C966 C937 1.387 . S
C966 H943 0.931 . S
C966 C965 1.374 . S
C967 O951 1.249 . S
C967 O952 1.264 . S
C968 C971 1.382 . S
C968 C972 1.390 . S
C968 C975 1.506 . S
C969 C970 1.398 . S
C969 C972 1.392 . S
C970 C969 1.398 . S
C970 C973 1.372 . S
C970 H980 0.931 . S
C971 C968 1.382 . S
C971 C973 1.390 . S
C971 H981 0.931 . S
C972 C968 1.390 . S
C972 C969 1.392 . S
C972 H982 0.930 . S
C973 C970 1.372 . S
C973 C971 1.390 . S
C973 H983 0.929 . S
C974 O954 1.255 . S
C974 O955 1.257 . S
C975 Eu911 2.787 . S
C975 O950 1.252 . S
C975 O953 1.268 . S
C975 C968 1.506 . S
H976 C959 0.931 . S
H977 C960 0.931 . S
H978 C961 0.929 . S
H979 C962 0.930 . S
H980 C970 0.931 . S
H981 C971 0.931 . S
H982 C972 0.930 . S
H983 C973 0.929 . S
Eu984 N1013 2.600 1_554 S
Eu984 N1019 2.562 1_554 S
Eu984 O1028 2.462 . S
Eu984 O1029 2.373 1_554 S
Eu984 O1031 2.432 . S
Eu984 O1032 2.291 . S
Eu984 O1036 2.335 . S
Eu984 O1039 2.372 . S
Eu984 C1048 2.787 . S
C985 N986 1.365 . S
C985 C988 1.405 . S
C985 C992 1.448 . S
N986 C985 1.365 . S
N986 C989 1.319 . S
N986 Eu995 2.600 . S
C987 C989 1.397 . S
C987 C990 1.367 . S
C987 H1007 0.931 . S
C988 C985 1.405 . S
C988 C990 1.403 . S
C988 C994 1.439 . S
C989 N986 1.319 . S
C989 C987 1.397 . S
C989 H1000 0.930 . S
C990 C987 1.367 . S
C990 C988 1.403 . S
C990 H1011 0.929 . S
C991 C992 1.430 . S
C991 C993 1.387 . S
C991 C997 1.404 . S
C992 C985 1.448 . S
C992 C991 1.430 . S
C992 N996 1.351 . S
C993 C991 1.387 . S
C993 C994 1.374 . S
C993 H1008 0.931 . S
C994 C988 1.439 . S
C994 C993 1.374 . S
C994 H1009 0.931 . S
Eu995 N986 2.600 . S
Eu995 N996 2.562 . S
Eu995 O1030 2.335 1_554 S
Eu995 O1033 2.372 . S
Eu995 O1034 2.462 . S
Eu995 O1035 2.373 . S
Eu995 O1037 2.432 . S
Eu995 O1038 2.291 . S
Eu995 C1059 2.787 . S
N996 C992 1.351 . S
N996 Eu995 2.562 . S
N996 C998 1.325 . S
C997 C991 1.404 . S
C997 C999 1.366 . S
C997 H1005 0.930 . S
C998 N996 1.325 . S
C998 C999 1.416 . S
C998 H1004 0.929 . S
C999 C997 1.366 . S
C999 C998 1.416 . S
C999 H1001 0.930 . S
H1000 C989 0.930 . S
H1001 C999 0.930 . S
H1002 C1017 0.930 1_554 S
H1003 C1024 0.930 . S
H1004 C998 0.929 . S
H1005 C997 0.930 . S
H1006 C1020 0.929 1_554 S
H1007 C987 0.931 . S
H1008 C993 0.931 . S
H1009 C994 0.931 . S
H1010 C1015 0.931 . S
H1011 C990 0.929 . S
H1012 C1023 0.930 . S
N1013 Eu984 2.600 1_556 S
N1013 C1014 1.365 . S
N1013 C1017 1.319 . S
C1014 N1013 1.365 . S
C1014 C1016 1.405 . S
C1014 C1022 1.448 . S
C1015 H1010 0.931 . S
C1015 C1017 1.397 . S
C1015 C1018 1.367 . S
C1016 C1014 1.405 . S
C1016 C1018 1.403 . S
C1016 C1049 1.439 . S
C1017 H1002 0.930 1_556 S
C1017 N1013 1.319 . S
C1017 C1015 1.397 . S
C1018 C1015 1.367 . S
C1018 C1016 1.403 . S
C1018 H1025 0.929 . S
N1019 Eu984 2.562 1_556 S
N1019 C1020 1.325 . S
N1019 C1022 1.351 . S
C1020 H1006 0.929 1_556 S
C1020 N1019 1.325 . S
C1020 C1024 1.416 . S
C1021 C1022 1.430 . S
C1021 C1023 1.404 . S
C1021 C1050 1.387 . S
C1022 C1014 1.448 . S
C1022 N1019 1.351 . S
C1022 C1021 1.430 . S
C1023 H1012 0.930 . S
C1023 C1021 1.404 . S
C1023 C1024 1.366 . S
C1024 H1003 0.930 . S
C1024 C1020 1.416 . S
C1024 C1023 1.366 . S
H1025 C1018 0.929 . S
H1026 C1049 0.931 . S
H1027 C1050 0.931 . S
O1028 Eu984 2.462 . S
O1028 C1048 1.252 . S
O1029 Eu984 2.373 1_556 S
O1029 C1040 1.249 . S
O1030 Eu995 2.335 1_556 S
O1030 C1040 1.264 . S
O1031 Eu984 2.432 . S
O1031 C1048 1.268 . S
O1032 Eu984 2.291 . S
O1032 C1047 1.255 . S
O1033 Eu995 2.372 . S
O1033 C1047 1.257 . S
O1034 Eu995 2.462 . S
O1034 C1059 1.252 . S
O1035 Eu995 2.373 . S
O1035 C1051 1.249 . S
O1036 Eu984 2.335 . S
O1036 C1051 1.264 . S
O1037 Eu995 2.432 . S
O1037 C1059 1.268 . S
O1038 Eu995 2.291 . S
O1038 C1058 1.255 . S
O1039 Eu984 2.372 . S
O1039 C1058 1.257 . S
C1040 O1029 1.249 . S
C1040 O1030 1.264 . S
C1041 C1044 1.382 . S
C1041 C1046 1.390 . S
C1041 C1048 1.506 . S
C1042 C1043 1.398 . S
C1042 C1046 1.392 . S
C1043 C1042 1.398 . S
C1043 C1045 1.372 . S
C1043 H1060 0.931 . S
C1044 C1041 1.382 . S
C1044 C1045 1.390 . S
C1044 H1061 0.931 . S
C1045 C1043 1.372 . S
C1045 C1044 1.390 . S
C1045 H1062 0.929 . S
C1046 C1041 1.390 . S
C1046 C1042 1.392 . S
C1046 H1063 0.930 . S
C1047 O1032 1.255 . S
C1047 O1033 1.257 . S
C1048 Eu984 2.787 . S
C1048 O1028 1.252 . S
C1048 O1031 1.268 . S
C1048 C1041 1.506 . S
C1049 C1016 1.439 . S
C1049 H1026 0.931 . S
C1049 C1050 1.374 . S
C1050 C1021 1.387 . S
C1050 H1027 0.931 . S
C1050 C1049 1.374 . S
C1051 O1035 1.249 . S
C1051 O1036 1.264 . S
C1052 C1055 1.382 . S
C1052 C1056 1.390 . S
C1052 C1059 1.506 1_556 S
C1053 C1054 1.398 . S
C1053 C1056 1.392 . S
C1054 C1053 1.398 . S
C1054 C1057 1.372 . S
C1054 H1064 0.931 . S
C1055 C1052 1.382 . S
C1055 C1057 1.390 . S
C1055 H1065 0.931 1_556 S
C1056 C1052 1.390 . S
C1056 C1053 1.392 . S
C1056 H1066 0.930 . S
C1057 C1054 1.372 . S
C1057 C1055 1.390 . S
C1057 H1067 0.929 . S
C1058 O1038 1.255 . S
C1058 O1039 1.257 . S
C1059 Eu995 2.787 . S
C1059 O1034 1.252 . S
C1059 O1037 1.268 . S
C1059 C1052 1.506 1_554 S
H1060 C1043 0.931 . S
H1061 C1044 0.931 . S
H1062 C1045 0.929 . S
H1063 C1046 0.930 . S
H1064 C1054 0.931 . S
H1065 C1055 0.931 1_554 S
H1066 C1056 0.930 . S
H1067 C1057 0.929 . S
Eu1068 N1097 2.600 . S
Eu1068 N1103 2.562 . S
Eu1068 O1112 2.462 . S
Eu1068 O1113 2.373 . S
Eu1068 O1115 2.432 . S
Eu1068 O1116 2.291 . S
Eu1068 O1120 2.335 . S
Eu1068 O1123 2.372 . S
Eu1068 C1132 2.787 . S
C1069 N1070 1.365 . S
C1069 C1072 1.405 . S
C1069 C1076 1.448 . S
N1070 C1069 1.365 . S
N1070 C1073 1.319 . S
N1070 Eu1079 2.600 . S
C1071 C1073 1.397 . S
C1071 C1074 1.367 . S
C1071 H1091 0.931 . S
C1072 C1069 1.405 . S
C1072 C1074 1.403 . S
C1072 C1078 1.439 . S
C1073 N1070 1.319 . S
C1073 C1071 1.397 . S
C1073 H1084 0.930 . S
C1074 C1071 1.367 . S
C1074 C1072 1.403 . S
C1074 H1095 0.929 . S
C1075 C1076 1.430 . S
C1075 C1077 1.387 . S
C1075 C1081 1.404 . S
C1076 C1069 1.448 . S
C1076 C1075 1.430 . S
C1076 N1080 1.351 . S
C1077 C1075 1.387 . S
C1077 C1078 1.374 . S
C1077 H1092 0.931 . S
C1078 C1072 1.439 . S
C1078 C1077 1.374 . S
C1078 H1093 0.931 . S
Eu1079 N1070 2.600 . S
Eu1079 N1080 2.562 . S
Eu1079 O1114 2.335 . S
Eu1079 O1117 2.372 . S
Eu1079 O1118 2.462 . S
Eu1079 O1119 2.373 . S
Eu1079 O1121 2.432 . S
Eu1079 O1122 2.291 . S
Eu1079 C1143 2.787 . S
N1080 C1076 1.351 . S
N1080 Eu1079 2.562 . S
N1080 C1082 1.325 . S
C1081 C1075 1.404 . S
C1081 C1083 1.366 . S
C1081 H1089 0.930 . S
C1082 N1080 1.325 . S
C1082 C1083 1.416 . S
C1082 H1088 0.929 . S
C1083 C1081 1.366 . S
C1083 C1082 1.416 . S
C1083 H1085 0.930 . S
H1084 C1073 0.930 . S
H1085 C1083 0.930 . S
H1086 C1101 0.930 . S
H1087 C1108 0.930 . S
H1088 C1082 0.929 . S
H1089 C1081 0.930 . S
H1090 C1104 0.929 . S
H1091 C1071 0.931 . S
H1092 C1077 0.931 . S
H1093 C1078 0.931 . S
H1094 C1099 0.931 . S
H1095 C1074 0.929 . S
H1096 C1107 0.930 . S
N1097 Eu1068 2.600 . S
N1097 C1098 1.365 . S
N1097 C1101 1.319 . S
C1098 N1097 1.365 . S
C1098 C1100 1.405 . S
C1098 C1106 1.448 . S
C1099 H1094 0.931 . S
C1099 C1101 1.397 . S
C1099 C1102 1.367 . S
C1100 C1098 1.405 . S
C1100 C1102 1.403 . S
C1100 C1133 1.439 . S
C1101 H1086 0.930 . S
C1101 N1097 1.319 . S
C1101 C1099 1.397 . S
C1102 C1099 1.367 . S
C1102 C1100 1.403 . S
C1102 H1109 0.929 . S
N1103 Eu1068 2.562 . S
N1103 C1104 1.325 . S
N1103 C1106 1.351 . S
C1104 H1090 0.929 . S
C1104 N1103 1.325 . S
C1104 C1108 1.416 . S
C1105 C1106 1.430 . S
C1105 C1107 1.404 . S
C1105 C1134 1.387 . S
C1106 C1098 1.448 . S
C1106 N1103 1.351 . S
C1106 C1105 1.430 . S
C1107 H1096 0.930 . S
C1107 C1105 1.404 . S
C1107 C1108 1.366 . S
C1108 H1087 0.930 . S
C1108 C1104 1.416 . S
C1108 C1107 1.366 . S
H1109 C1102 0.929 . S
H1110 C1133 0.931 . S
H1111 C1134 0.931 . S
O1112 Eu1068 2.462 . S
O1112 C1132 1.252 . S
O1113 Eu1068 2.373 . S
O1113 C1124 1.249 . S
O1114 Eu1079 2.335 . S
O1114 C1124 1.264 . S
O1115 Eu1068 2.432 . S
O1115 C1132 1.268 . S
O1116 Eu1068 2.291 . S
O1116 C1131 1.255 . S
O1117 Eu1079 2.372 . S
O1117 C1131 1.257 . S
O1118 Eu1079 2.462 . S
O1118 C1143 1.252 . S
O1119 Eu1079 2.373 . S
O1119 C1135 1.249 . S
O1120 Eu1068 2.335 . S
O1120 C1135 1.264 . S
O1121 Eu1079 2.432 . S
O1121 C1143 1.268 . S
O1122 Eu1079 2.291 . S
O1122 C1142 1.255 . S
O1123 Eu1068 2.372 . S
O1123 C1142 1.257 . S
C1124 O1113 1.249 . S
C1124 O1114 1.264 . S
C1125 C1128 1.382 . S
C1125 C1130 1.390 . S
C1125 C1132 1.506 . S
C1126 C1127 1.398 . S
C1126 C1130 1.392 . S
C1127 C1126 1.398 . S
C1127 C1129 1.372 . S
C1127 H1144 0.931 . S
C1128 C1125 1.382 . S
C1128 C1129 1.390 . S
C1128 H1145 0.931 . S
C1129 C1127 1.372 . S
C1129 C1128 1.390 . S
C1129 H1146 0.929 . S
C1130 C1125 1.390 . S
C1130 C1126 1.392 . S
C1130 H1147 0.930 . S
C1131 O1116 1.255 . S
C1131 O1117 1.257 . S
C1132 Eu1068 2.787 . S
C1132 O1112 1.252 . S
C1132 O1115 1.268 . S
C1132 C1125 1.506 . S
C1133 C1100 1.439 . S
C1133 H1110 0.931 . S
C1133 C1134 1.374 . S
C1134 C1105 1.387 . S
C1134 H1111 0.931 . S
C1134 C1133 1.374 . S
C1135 O1119 1.249 . S
C1135 O1120 1.264 . S
C1136 C1139 1.382 . S
C1136 C1140 1.390 . S
C1136 C1143 1.506 . S
C1137 C1138 1.398 . S
C1137 C1140 1.392 . S
C1138 C1137 1.398 . S
C1138 C1141 1.372 . S
C1138 H1148 0.931 . S
C1139 C1136 1.382 . S
C1139 C1141 1.390 . S
C1139 H1149 0.931 . S
C1140 C1136 1.390 . S
C1140 C1137 1.392 . S
C1140 H1150 0.930 . S
C1141 C1138 1.372 . S
C1141 C1139 1.390 . S
C1141 H1151 0.929 . S
C1142 O1122 1.255 . S
C1142 O1123 1.257 . S
C1143 Eu1079 2.787 . S
C1143 O1118 1.252 . S
C1143 O1121 1.268 . S
C1143 C1136 1.506 . S
H1144 C1127 0.931 . S
H1145 C1128 0.931 . S
H1146 C1129 0.929 . S
H1147 C1130 0.930 . S
H1148 C1138 0.931 . S
H1149 C1139 0.931 . S
H1150 C1140 0.930 . S
H1151 C1141 0.929 . S
Eu1152 N1181 2.600 . S
Eu1152 N1187 2.545 1_455 S
Eu1152 O1196 2.462 . S
Eu1152 O1197 2.373 1_455 S
Eu1152 O1199 2.432 . S
Eu1152 O1200 2.291 . S
Eu1152 O1204 2.335 . S
Eu1152 O1207 2.372 . S
Eu1152 C1216 2.787 . S
C1153 N1154 1.365 . S
C1153 C1156 1.405 . S
C1153 C1160 1.448 . S
N1154 C1153 1.365 . S
N1154 C1157 1.319 . S
N1154 Eu1163 2.600 . S
C1155 C1157 1.397 . S
C1155 C1158 1.367 . S
C1155 H1175 0.931 . S
C1156 C1153 1.405 . S
C1156 C1158 1.403 . S
C1156 C1162 1.439 . S
C1157 N1154 1.319 . S
C1157 C1155 1.397 . S
C1157 H1168 0.930 . S
C1158 C1155 1.367 . S
C1158 C1156 1.403 . S
C1158 H1179 0.929 . S
C1159 C1160 1.430 . S
C1159 C1161 1.387 . S
C1159 C1165 1.404 . S
C1160 C1153 1.448 . S
C1160 C1159 1.430 . S
C1160 N1164 1.351 . S
C1161 C1159 1.387 . S
C1161 C1162 1.374 . S
C1161 H1176 0.931 . S
C1162 C1156 1.439 . S
C1162 C1161 1.374 . S
C1162 H1177 0.931 . S
Eu1163 N1154 2.600 . S
Eu1163 N1164 2.562 . S
Eu1163 O1198 2.296 1_455 S
Eu1163 O1201 2.372 . S
Eu1163 O1202 2.462 . S
Eu1163 O1203 2.373 . S
Eu1163 O1205 2.432 . S
Eu1163 O1206 2.291 . S
Eu1163 C1227 2.787 . S
N1164 C1160 1.351 . S
N1164 Eu1163 2.562 . S
N1164 C1166 1.325 . S
C1165 C1159 1.404 . S
C1165 C1167 1.366 . S
C1165 H1173 0.930 . S
C1166 N1164 1.325 . S
C1166 C1167 1.416 . S
C1166 H1172 0.929 . S
C1167 C1165 1.366 . S
C1167 C1166 1.416 . S
C1167 H1169 0.930 . S
H1168 C1157 0.930 . S
H1169 C1167 0.930 . S
H1170 C1185 0.930 . S
H1171 C1192 0.930 . S
H1172 C1166 0.929 . S
H1173 C1165 0.930 . S
H1174 C1188 0.929 1_455 S
H1175 C1155 0.931 . S
H1176 C1161 0.931 . S
H1177 C1162 0.931 . S
H1178 C1183 0.931 . S
H1179 C1158 0.929 . S
H1180 C1191 0.930 . S
N1181 Eu1152 2.600 . S
N1181 C1182 1.365 1_455 S
N1181 C1185 1.319 . S
C1182 N1181 1.365 1_655 S
C1182 C1184 1.405 . S
C1182 C1190 1.448 . S
C1183 H1178 0.931 . S
C1183 C1185 1.397 1_655 S
C1183 C1186 1.367 . S
C1184 C1182 1.405 . S
C1184 C1186 1.403 . S
C1184 C1217 1.439 . S
C1185 H1170 0.930 . S
C1185 N1181 1.319 . S
C1185 C1183 1.397 1_455 S
C1186 C1183 1.367 . S
C1186 C1184 1.403 . S
C1186 H1193 0.929 . S
N1187 Eu1152 2.545 1_655 S
N1187 C1188 1.321 . S
N1187 C1190 1.377 . S
C1188 H1174 0.929 1_655 S
C1188 N1187 1.321 . S
C1188 C1192 1.416 . S
C1189 C1190 1.430 . S
C1189 C1191 1.404 . S
C1189 C1218 1.387 . S
C1190 C1182 1.448 . S
C1190 N1187 1.377 . S
C1190 C1189 1.430 . S
C1191 H1180 0.930 . S
C1191 C1189 1.404 . S
C1191 C1192 1.366 . S
C1192 H1171 0.930 . S
C1192 C1188 1.416 . S
C1192 C1191 1.366 . S
H1193 C1186 0.929 . S
H1194 C1217 0.931 . S
H1195 C1218 0.931 . S
O1196 Eu1152 2.462 . S
O1196 C1216 1.252 . S
O1197 Eu1152 2.373 1_655 S
O1197 C1208 1.249 . S
O1198 Eu1163 2.296 1_655 S
O1198 C1208 1.287 . S
O1199 Eu1152 2.432 . S
O1199 C1216 1.268 . S
O1200 Eu1152 2.291 . S
O1200 C1215 1.255 . S
O1201 Eu1163 2.372 . S
O1201 C1215 1.257 . S
O1202 Eu1163 2.462 . S
O1202 C1227 1.252 . S
O1203 Eu1163 2.373 . S
O1203 C1219 1.249 . S
O1204 Eu1152 2.335 . S
O1204 C1219 1.264 . S
O1205 Eu1163 2.432 . S
O1205 C1227 1.268 . S
O1206 Eu1163 2.291 . S
O1206 C1226 1.255 . S
O1207 Eu1152 2.372 . S
O1207 C1226 1.257 . S
C1208 O1197 1.249 . S
C1208 O1198 1.287 . S
C1209 C1212 1.382 . S
C1209 C1214 1.390 . S
C1209 C1216 1.506 . S
C1210 C1211 1.398 . S
C1210 C1214 1.392 . S
C1211 C1210 1.398 . S
C1211 C1213 1.372 . S
C1211 H1228 0.931 . S
C1212 C1209 1.382 . S
C1212 C1213 1.390 . S
C1212 H1229 0.931 . S
C1213 C1211 1.372 . S
C1213 C1212 1.390 . S
C1213 H1230 0.929 . S
C1214 C1209 1.390 . S
C1214 C1210 1.392 . S
C1214 H1231 0.930 . S
C1215 O1200 1.255 . S
C1215 O1201 1.257 . S
C1216 Eu1152 2.787 . S
C1216 O1196 1.252 . S
C1216 O1199 1.268 . S
C1216 C1209 1.506 . S
C1217 C1184 1.439 . S
C1217 H1194 0.931 . S
C1217 C1218 1.374 . S
C1218 C1189 1.387 . S
C1218 H1195 0.931 . S
C1218 C1217 1.374 . S
C1219 O1203 1.249 . S
C1219 O1204 1.264 . S
C1220 C1223 1.382 . S
C1220 C1224 1.390 . S
C1220 C1227 1.506 1_655 S
C1221 C1222 1.398 . S
C1221 C1224 1.392 . S
C1222 C1221 1.398 . S
C1222 C1225 1.372 . S
C1222 H1232 0.931 . S
C1223 C1220 1.382 . S
C1223 C1225 1.390 . S
C1223 H1233 0.931 . S
C1224 C1220 1.390 . S
C1224 C1221 1.392 . S
C1224 H1234 0.930 . S
C1225 C1222 1.372 . S
C1225 C1223 1.390 . S
C1225 H1235 0.929 . S
C1226 O1206 1.255 . S
C1226 O1207 1.257 . S
C1227 Eu1163 2.787 . S
C1227 O1202 1.252 . S
C1227 O1205 1.268 . S
C1227 C1220 1.506 1_455 S
H1228 C1211 0.931 . S
H1229 C1212 0.931 . S
H1230 C1213 0.929 . S
H1231 C1214 0.930 . S
H1232 C1222 0.931 . S
H1233 C1223 0.931 . S
H1234 C1224 0.930 . S
H1235 C1225 0.929 . S
Eu1236 N1265 2.600 . S
Eu1236 N1271 2.562 . S
Eu1236 O1280 2.462 . S
Eu1236 O1281 2.373 . S
Eu1236 O1283 2.432 . S
Eu1236 O1284 2.291 . S
Eu1236 O1288 2.335 . S
Eu1236 O1291 2.372 . S
Eu1236 C1300 2.787 . S
C1237 N1238 1.365 . S
C1237 C1240 1.405 . S
C1237 C1244 1.448 . S
N1238 C1237 1.365 . S
N1238 C1241 1.319 . S
N1238 Eu1247 2.600 . S
C1239 C1241 1.397 . S
C1239 C1242 1.367 . S
C1239 H1259 0.931 . S
C1240 C1237 1.405 . S
C1240 C1242 1.403 . S
C1240 C1246 1.439 . S
C1241 N1238 1.319 . S
C1241 C1239 1.397 . S
C1241 H1252 0.930 . S
C1242 C1239 1.367 . S
C1242 C1240 1.403 . S
C1242 H1263 0.929 . S
C1243 C1244 1.430 . S
C1243 C1245 1.387 . S
C1243 C1249 1.404 . S
C1244 C1237 1.448 . S
C1244 C1243 1.430 . S
C1244 N1248 1.351 . S
C1245 C1243 1.387 . S
C1245 C1246 1.374 . S
C1245 H1260 0.931 . S
C1246 C1240 1.439 . S
C1246 C1245 1.374 . S
C1246 H1261 0.931 . S
Eu1247 N1238 2.600 . S
Eu1247 N1248 2.562 . S
Eu1247 O1282 2.335 . S
Eu1247 O1285 2.372 . S
Eu1247 O1286 2.462 . S
Eu1247 O1287 2.373 . S
Eu1247 O1289 2.432 . S
Eu1247 O1290 2.291 . S
Eu1247 C1311 2.787 . S
N1248 C1244 1.351 . S
N1248 Eu1247 2.562 . S
N1248 C1250 1.325 . S
C1249 C1243 1.404 . S
C1249 C1251 1.366 . S
C1249 H1257 0.930 . S
C1250 N1248 1.325 . S
C1250 C1251 1.416 . S
C1250 H1256 0.929 . S
C1251 C1249 1.366 . S
C1251 C1250 1.416 . S
C1251 H1253 0.930 . S
H1252 C1241 0.930 . S
H1253 C1251 0.930 . S
H1254 C1269 0.930 . S
H1255 C1276 0.930 . S
H1256 C1250 0.929 . S
H1257 C1249 0.930 . S
H1258 C1272 0.929 . S
H1259 C1239 0.931 . S
H1260 C1245 0.931 . S
H1261 C1246 0.931 . S
H1262 C1267 0.931 . S
H1263 C1242 0.929 . S
H1264 C1275 0.930 . S
N1265 Eu1236 2.600 . S
N1265 C1266 1.365 . S
N1265 C1269 1.319 . S
C1266 N1265 1.365 . S
C1266 C1268 1.405 . S
C1266 C1274 1.448 . S
C1267 H1262 0.931 . S
C1267 C1269 1.397 . S
C1267 C1270 1.367 . S
C1268 C1266 1.405 . S
C1268 C1270 1.403 . S
C1268 C1301 1.439 . S
C1269 H1254 0.930 . S
C1269 N1265 1.319 . S
C1269 C1267 1.397 . S
C1270 C1267 1.367 . S
C1270 C1268 1.403 . S
C1270 H1277 0.929 . S
N1271 Eu1236 2.562 . S
N1271 C1272 1.325 . S
N1271 C1274 1.351 . S
C1272 H1258 0.929 . S
C1272 N1271 1.325 . S
C1272 C1276 1.416 . S
C1273 C1274 1.430 . S
C1273 C1275 1.404 . S
C1273 C1302 1.387 . S
C1274 C1266 1.448 . S
C1274 N1271 1.351 . S
C1274 C1273 1.430 . S
C1275 H1264 0.930 . S
C1275 C1273 1.404 . S
C1275 C1276 1.366 . S
C1276 H1255 0.930 . S
C1276 C1272 1.416 . S
C1276 C1275 1.366 . S
H1277 C1270 0.929 . S
H1278 C1301 0.931 . S
H1279 C1302 0.931 . S
O1280 Eu1236 2.462 . S
O1280 C1300 1.252 . S
O1281 Eu1236 2.373 . S
O1281 C1292 1.249 . S
O1282 Eu1247 2.335 . S
O1282 C1292 1.264 . S
O1283 Eu1236 2.432 . S
O1283 C1300 1.268 . S
O1284 Eu1236 2.291 . S
O1284 C1299 1.255 . S
O1285 Eu1247 2.372 . S
O1285 C1299 1.257 . S
O1286 Eu1247 2.462 . S
O1286 C1311 1.252 . S
O1287 Eu1247 2.373 . S
O1287 C1303 1.249 . S
O1288 Eu1236 2.335 . S
O1288 C1303 1.264 . S
O1289 Eu1247 2.432 . S
O1289 C1311 1.268 . S
O1290 Eu1247 2.291 . S
O1290 C1310 1.255 . S
O1291 Eu1236 2.372 . S
O1291 C1310 1.257 . S
C1292 O1281 1.249 . S
C1292 O1282 1.264 . S
C1293 C1296 1.382 . S
C1293 C1298 1.390 . S
C1293 C1300 1.506 . S
C1294 C1295 1.398 . S
C1294 C1298 1.392 . S
C1295 C1294 1.398 . S
C1295 C1297 1.372 . S
C1295 H1312 0.931 . S
C1296 C1293 1.382 . S
C1296 C1297 1.390 . S
C1296 H1313 0.931 . S
C1297 C1295 1.372 . S
C1297 C1296 1.390 . S
C1297 H1314 0.929 . S
C1298 C1293 1.390 . S
C1298 C1294 1.392 . S
C1298 H1315 0.930 . S
C1299 O1284 1.255 . S
C1299 O1285 1.257 . S
C1300 Eu1236 2.787 . S
C1300 O1280 1.252 . S
C1300 O1283 1.268 . S
C1300 C1293 1.506 . S
C1301 C1268 1.439 . S
C1301 H1278 0.931 . S
C1301 C1302 1.374 . S
C1302 C1273 1.387 . S
C1302 H1279 0.931 . S
C1302 C1301 1.374 . S
C1303 O1287 1.249 . S
C1303 O1288 1.264 . S
C1304 C1307 1.382 . S
C1304 C1308 1.390 . S
C1304 C1311 1.506 . S
C1305 C1306 1.398 . S
C1305 C1308 1.392 . S
C1306 C1305 1.398 . S
C1306 C1309 1.372 . S
C1306 H1316 0.931 . S
C1307 C1304 1.382 . S
C1307 C1309 1.390 . S
C1307 H1317 0.931 . S
C1308 C1304 1.390 . S
C1308 C1305 1.392 . S
C1308 H1318 0.930 . S
C1309 C1306 1.372 . S
C1309 C1307 1.390 . S
C1309 H1319 0.929 . S
C1310 O1290 1.255 . S
C1310 O1291 1.257 . S
C1311 Eu1247 2.787 . S
C1311 O1286 1.252 . S
C1311 O1289 1.268 . S
C1311 C1304 1.506 . S
H1312 C1295 0.931 . S
H1313 C1296 0.931 . S
H1314 C1297 0.929 . S
H1315 C1298 0.930 . S
H1316 C1306 0.931 . S
H1317 C1307 0.931 . S
H1318 C1308 0.930 . S
H1319 C1309 0.929 . S
Eu1320 N1349 2.600 . S
Eu1320 N1355 2.562 . S
Eu1320 O1364 2.462 . S
Eu1320 O1365 2.373 . S
Eu1320 O1367 2.432 . S
Eu1320 O1368 2.291 . S
Eu1320 O1372 2.335 . S
Eu1320 O1375 2.372 . S
Eu1320 C1384 2.787 . S
C1321 N1322 1.365 . S
C1321 C1324 1.405 . S
C1321 C1328 1.448 . S
N1322 C1321 1.365 . S
N1322 C1325 1.319 . S
N1322 Eu1331 2.600 . S
C1323 C1325 1.397 . S
C1323 C1326 1.367 . S
C1323 H1343 0.931 . S
C1324 C1321 1.405 . S
C1324 C1326 1.403 . S
C1324 C1330 1.439 . S
C1325 N1322 1.319 . S
C1325 C1323 1.397 . S
C1325 H1336 0.930 . S
C1326 C1323 1.367 . S
C1326 C1324 1.403 . S
C1326 H1347 0.929 . S
C1327 C1328 1.430 . S
C1327 C1329 1.387 . S
C1327 C1333 1.404 . S
C1328 C1321 1.448 . S
C1328 C1327 1.430 . S
C1328 N1332 1.351 . S
C1329 C1327 1.387 . S
C1329 C1330 1.374 . S
C1329 H1344 0.931 . S
C1330 C1324 1.439 . S
C1330 C1329 1.374 . S
C1330 H1345 0.931 . S
Eu1331 N1322 2.600 . S
Eu1331 N1332 2.562 . S
Eu1331 O1366 2.335 . S
Eu1331 O1369 2.372 . S
Eu1331 O1370 2.462 . S
Eu1331 O1371 2.373 . S
Eu1331 O1373 2.432 . S
Eu1331 O1374 2.291 . S
Eu1331 C1395 2.787 . S
N1332 C1328 1.351 . S
N1332 Eu1331 2.562 . S
N1332 C1334 1.325 . S
C1333 C1327 1.404 . S
C1333 C1335 1.366 . S
C1333 H1341 0.930 . S
C1334 N1332 1.325 . S
C1334 C1335 1.416 . S
C1334 H1340 0.929 . S
C1335 C1333 1.366 . S
C1335 C1334 1.416 . S
C1335 H1337 0.930 . S
H1336 C1325 0.930 . S
H1337 C1335 0.930 . S
H1338 C1353 0.930 . S
H1339 C1360 0.930 . S
H1340 C1334 0.929 . S
H1341 C1333 0.930 . S
H1342 C1356 0.929 . S
H1343 C1323 0.931 . S
H1344 C1329 0.931 . S
H1345 C1330 0.931 . S
H1346 C1351 0.931 . S
H1347 C1326 0.929 . S
H1348 C1359 0.930 . S
N1349 Eu1320 2.600 . S
N1349 C1350 1.365 . S
N1349 C1353 1.319 . S
C1350 N1349 1.365 . S
C1350 C1352 1.405 . S
C1350 C1358 1.448 . S
C1351 H1346 0.931 . S
C1351 C1353 1.397 . S
C1351 C1354 1.367 . S
C1352 C1350 1.405 . S
C1352 C1354 1.403 . S
C1352 C1385 1.439 . S
C1353 H1338 0.930 . S
C1353 N1349 1.319 . S
C1353 C1351 1.397 . S
C1354 C1351 1.367 . S
C1354 C1352 1.403 . S
C1354 H1361 0.929 . S
N1355 Eu1320 2.562 . S
N1355 C1356 1.325 . S
N1355 C1358 1.351 . S
C1356 H1342 0.929 . S
C1356 N1355 1.325 . S
C1356 C1360 1.416 . S
C1357 C1358 1.430 . S
C1357 C1359 1.404 . S
C1357 C1386 1.387 . S
C1358 C1350 1.448 . S
C1358 N1355 1.351 . S
C1358 C1357 1.430 . S
C1359 H1348 0.930 . S
C1359 C1357 1.404 . S
C1359 C1360 1.366 . S
C1360 H1339 0.930 . S
C1360 C1356 1.416 . S
C1360 C1359 1.366 . S
H1361 C1354 0.929 . S
H1362 C1385 0.931 . S
H1363 C1386 0.931 . S
O1364 Eu1320 2.462 . S
O1364 C1384 1.252 . S
O1365 Eu1320 2.373 . S
O1365 C1376 1.249 . S
O1366 Eu1331 2.335 . S
O1366 C1376 1.264 . S
O1367 Eu1320 2.432 . S
O1367 C1384 1.268 . S
O1368 Eu1320 2.291 . S
O1368 C1383 1.255 . S
O1369 Eu1331 2.372 . S
O1369 C1383 1.257 . S
O1370 Eu1331 2.462 . S
O1370 C1395 1.252 . S
O1371 Eu1331 2.373 . S
O1371 C1387 1.249 . S
O1372 Eu1320 2.335 . S
O1372 C1387 1.264 . S
O1373 Eu1331 2.432 . S
O1373 C1395 1.268 . S
O1374 Eu1331 2.291 . S
O1374 C1394 1.255 . S
O1375 Eu1320 2.372 . S
O1375 C1394 1.257 . S
C1376 O1365 1.249 . S
C1376 O1366 1.264 . S
C1377 C1380 1.382 . S
C1377 C1382 1.390 . S
C1377 C1384 1.506 . S
C1378 C1379 1.398 . S
C1378 C1382 1.392 . S
C1379 C1378 1.398 . S
C1379 C1381 1.372 . S
C1379 H1396 0.931 . S
C1380 C1377 1.382 . S
C1380 C1381 1.390 . S
C1380 H1397 0.931 . S
C1381 C1379 1.372 . S
C1381 C1380 1.390 . S
C1381 H1398 0.929 . S
C1382 C1377 1.390 . S
C1382 C1378 1.392 . S
C1382 H1399 0.930 . S
C1383 O1368 1.255 . S
C1383 O1369 1.257 . S
C1384 Eu1320 2.787 . S
C1384 O1364 1.252 . S
C1384 O1367 1.268 . S
C1384 C1377 1.506 . S
C1385 C1352 1.439 . S
C1385 H1362 0.931 . S
C1385 C1386 1.374 . S
C1386 C1357 1.387 . S
C1386 H1363 0.931 . S
C1386 C1385 1.374 . S
C1387 O1371 1.249 . S
C1387 O1372 1.264 . S
C1388 C1391 1.382 . S
C1388 C1392 1.390 . S
C1388 C1395 1.506 . S
C1389 C1390 1.398 . S
C1389 C1392 1.392 . S
C1390 C1389 1.398 . S
C1390 C1393 1.372 . S
C1390 H1400 0.931 . S
C1391 C1388 1.382 . S
C1391 C1393 1.390 . S
C1391 H1401 0.931 . S
C1392 C1388 1.390 . S
C1392 C1389 1.392 . S
C1392 H1402 0.930 . S
C1393 C1390 1.372 . S
C1393 C1391 1.390 . S
C1393 H1403 0.929 . S
C1394 O1374 1.255 . S
C1394 O1375 1.257 . S
C1395 Eu1331 2.787 . S
C1395 O1370 1.252 . S
C1395 O1373 1.268 . S
C1395 C1388 1.506 . S
H1396 C1379 0.931 . S
H1397 C1380 0.931 . S
H1398 C1381 0.929 . S
H1399 C1382 0.930 . S
H1400 C1390 0.931 . S
H1401 C1391 0.931 . S
H1402 C1392 0.930 . S
H1403 C1393 0.929 . S
Eu1404 N1433 2.600 . S
Eu1404 N1439 2.562 . S
Eu1404 O1448 2.462 . S
Eu1404 O1449 2.373 . S
Eu1404 O1451 2.432 . S
Eu1404 O1452 2.291 . S
Eu1404 O1456 2.335 . S
Eu1404 O1459 2.372 . S
Eu1404 C1468 2.787 . S
C1405 N1406 1.365 . S
C1405 C1408 1.405 . S
C1405 C1412 1.448 . S
N1406 C1405 1.365 . S
N1406 C1409 1.319 . S
N1406 Eu1415 2.600 . S
C1407 C1409 1.397 . S
C1407 C1410 1.367 . S
C1407 H1427 0.931 . S
C1408 C1405 1.405 . S
C1408 C1410 1.403 . S
C1408 C1414 1.439 . S
C1409 N1406 1.319 . S
C1409 C1407 1.397 . S
C1409 H1420 0.930 . S
C1410 C1407 1.367 . S
C1410 C1408 1.403 . S
C1410 H1431 0.929 . S
C1411 C1412 1.430 . S
C1411 C1413 1.387 . S
C1411 C1417 1.404 . S
C1412 C1405 1.448 . S
C1412 C1411 1.430 . S
C1412 N1416 1.351 . S
C1413 C1411 1.387 . S
C1413 C1414 1.374 . S
C1413 H1428 0.931 . S
C1414 C1408 1.439 . S
C1414 C1413 1.374 . S
C1414 H1429 0.931 . S
Eu1415 N1406 2.600 . S
Eu1415 N1416 2.562 . S
Eu1415 O1450 2.335 . S
Eu1415 O1453 2.372 . S
Eu1415 O1454 2.462 . S
Eu1415 O1455 2.373 . S
Eu1415 O1457 2.432 . S
Eu1415 O1458 2.291 . S
Eu1415 C1479 2.787 . S
N1416 C1412 1.351 . S
N1416 Eu1415 2.562 . S
N1416 C1418 1.325 . S
C1417 C1411 1.404 . S
C1417 C1419 1.366 . S
C1417 H1425 0.930 . S
C1418 N1416 1.325 . S
C1418 C1419 1.416 . S
C1418 H1424 0.929 . S
C1419 C1417 1.366 . S
C1419 C1418 1.416 . S
C1419 H1421 0.930 . S
H1420 C1409 0.930 . S
H1421 C1419 0.930 . S
H1422 C1437 0.930 . S
H1423 C1444 0.930 . S
H1424 C1418 0.929 . S
H1425 C1417 0.930 . S
H1426 C1440 0.929 . S
H1427 C1407 0.931 . S
H1428 C1413 0.931 . S
H1429 C1414 0.931 . S
H1430 C1435 0.931 . S
H1431 C1410 0.929 . S
H1432 C1443 0.930 . S
N1433 Eu1404 2.600 . S
N1433 C1434 1.365 . S
N1433 C1437 1.319 . S
C1434 N1433 1.365 . S
C1434 C1436 1.405 . S
C1434 C1442 1.448 . S
C1435 H1430 0.931 . S
C1435 C1437 1.397 . S
C1435 C1438 1.367 . S
C1436 C1434 1.405 . S
C1436 C1438 1.403 . S
C1436 C1469 1.439 . S
C1437 H1422 0.930 . S
C1437 N1433 1.319 . S
C1437 C1435 1.397 . S
C1438 C1435 1.367 . S
C1438 C1436 1.403 . S
C1438 H1445 0.929 . S
N1439 Eu1404 2.562 . S
N1439 C1440 1.325 . S
N1439 C1442 1.351 . S
C1440 H1426 0.929 . S
C1440 N1439 1.325 . S
C1440 C1444 1.416 . S
C1441 C1442 1.430 . S
C1441 C1443 1.404 . S
C1441 C1470 1.387 . S
C1442 C1434 1.448 . S
C1442 N1439 1.351 . S
C1442 C1441 1.430 . S
C1443 H1432 0.930 . S
C1443 C1441 1.404 . S
C1443 C1444 1.366 . S
C1444 H1423 0.930 . S
C1444 C1440 1.416 . S
C1444 C1443 1.366 . S
H1445 C1438 0.929 . S
H1446 C1469 0.931 . S
H1447 C1470 0.931 . S
O1448 Eu1404 2.462 . S
O1448 C1468 1.252 . S
O1449 Eu1404 2.373 . S
O1449 C1460 1.249 . S
O1450 Eu1415 2.335 . S
O1450 C1460 1.264 . S
O1451 Eu1404 2.432 . S
O1451 C1468 1.268 . S
O1452 Eu1404 2.291 . S
O1452 C1467 1.255 . S
O1453 Eu1415 2.372 . S
O1453 C1467 1.257 . S
O1454 Eu1415 2.462 . S
O1454 C1479 1.252 . S
O1455 Eu1415 2.373 . S
O1455 C1471 1.249 . S
O1456 Eu1404 2.335 . S
O1456 C1471 1.264 . S
O1457 Eu1415 2.432 . S
O1457 C1479 1.268 . S
O1458 Eu1415 2.291 . S
O1458 C1478 1.255 . S
O1459 Eu1404 2.372 . S
O1459 C1478 1.257 . S
C1460 O1449 1.249 . S
C1460 O1450 1.264 . S
C1461 C1464 1.382 . S
C1461 C1466 1.390 . S
C1461 C1468 1.506 . S
C1462 C1463 1.398 . S
C1462 C1466 1.392 . S
C1463 C1462 1.398 . S
C1463 C1465 1.372 . S
C1463 H1480 0.931 . S
C1464 C1461 1.382 . S
C1464 C1465 1.390 . S
C1464 H1481 0.931 . S
C1465 C1463 1.372 . S
C1465 C1464 1.390 . S
C1465 H1482 0.929 . S
C1466 C1461 1.390 . S
C1466 C1462 1.392 . S
C1466 H1483 0.930 . S
C1467 O1452 1.255 . S
C1467 O1453 1.257 . S
C1468 Eu1404 2.787 . S
C1468 O1448 1.252 . S
C1468 O1451 1.268 . S
C1468 C1461 1.506 . S
C1469 C1436 1.439 . S
C1469 H1446 0.931 . S
C1469 C1470 1.374 . S
C1470 C1441 1.387 . S
C1470 H1447 0.931 . S
C1470 C1469 1.374 . S
C1471 O1455 1.249 . S
C1471 O1456 1.264 . S
C1472 C1475 1.382 . S
C1472 C1476 1.390 . S
C1472 C1479 1.506 . S
C1473 C1474 1.398 . S
C1473 C1476 1.392 . S
C1474 C1473 1.398 . S
C1474 C1477 1.372 . S
C1474 H1484 0.931 . S
C1475 C1472 1.382 . S
C1475 C1477 1.390 . S
C1475 H1485 0.931 . S
C1476 C1472 1.390 . S
C1476 C1473 1.392 . S
C1476 H1486 0.930 . S
C1477 C1474 1.372 . S
C1477 C1475 1.390 . S
C1477 H1487 0.929 . S
C1478 O1458 1.255 . S
C1478 O1459 1.257 . S
C1479 Eu1415 2.787 . S
C1479 O1454 1.252 . S
C1479 O1457 1.268 . S
C1479 C1472 1.506 . S
H1480 C1463 0.931 . S
H1481 C1464 0.931 . S
H1482 C1465 0.929 . S
H1483 C1466 0.930 . S
H1484 C1474 0.931 . S
H1485 C1475 0.931 . S
H1486 C1476 0.930 . S
H1487 C1477 0.929 . S
Eu1488 N1517 2.600 . S
Eu1488 N1523 2.562 . S
Eu1488 O1532 2.462 . S
Eu1488 O1533 2.373 . S
Eu1488 O1535 2.432 . S
Eu1488 O1536 2.291 . S
Eu1488 O1540 2.335 . S
Eu1488 O1543 2.372 . S
Eu1488 C1552 2.787 . S
C1489 N1490 1.365 . S
C1489 C1492 1.405 . S
C1489 C1496 1.448 . S
N1490 C1489 1.365 . S
N1490 C1493 1.319 . S
N1490 Eu1499 2.600 . S
C1491 C1493 1.397 . S
C1491 C1494 1.367 . S
C1491 H1511 0.931 . S
C1492 C1489 1.405 . S
C1492 C1494 1.403 . S
C1492 C1498 1.439 . S
C1493 N1490 1.319 . S
C1493 C1491 1.397 . S
C1493 H1504 0.930 . S
C1494 C1491 1.367 . S
C1494 C1492 1.403 . S
C1494 H1515 0.929 . S
C1495 C1496 1.430 . S
C1495 C1497 1.387 . S
C1495 C1501 1.404 . S
C1496 C1489 1.448 . S
C1496 C1495 1.430 . S
C1496 N1500 1.351 . S
C1497 C1495 1.387 . S
C1497 C1498 1.374 . S
C1497 H1512 0.931 . S
C1498 C1492 1.439 . S
C1498 C1497 1.374 . S
C1498 H1513 0.931 . S
Eu1499 N1490 2.600 . S
Eu1499 N1500 2.562 . S
Eu1499 O1534 2.335 . S
Eu1499 O1537 2.372 . S
Eu1499 O1538 2.462 . S
Eu1499 O1539 2.373 . S
Eu1499 O1541 2.432 . S
Eu1499 O1542 2.291 . S
Eu1499 C1563 2.787 . S
N1500 C1496 1.351 . S
N1500 Eu1499 2.562 . S
N1500 C1502 1.325 . S
C1501 C1495 1.404 . S
C1501 C1503 1.366 . S
C1501 H1509 0.930 . S
C1502 N1500 1.325 . S
C1502 C1503 1.416 . S
C1502 H1508 0.929 . S
C1503 C1501 1.366 . S
C1503 C1502 1.416 . S
C1503 H1505 0.930 . S
H1504 C1493 0.930 . S
H1505 C1503 0.930 . S
H1506 C1521 0.930 . S
H1507 C1528 0.930 . S
H1508 C1502 0.929 . S
H1509 C1501 0.930 . S
H1510 C1524 0.929 . S
H1511 C1491 0.931 . S
H1512 C1497 0.931 . S
H1513 C1498 0.931 . S
H1514 C1519 0.931 . S
H1515 C1494 0.929 . S
H1516 C1527 0.930 . S
N1517 Eu1488 2.600 . S
N1517 C1518 1.365 . S
N1517 C1521 1.319 . S
C1518 N1517 1.365 . S
C1518 C1520 1.405 . S
C1518 C1526 1.448 . S
C1519 H1514 0.931 . S
C1519 C1521 1.397 . S
C1519 C1522 1.367 . S
C1520 C1518 1.405 . S
C1520 C1522 1.403 . S
C1520 C1553 1.439 . S
C1521 H1506 0.930 . S
C1521 N1517 1.319 . S
C1521 C1519 1.397 . S
C1522 C1519 1.367 . S
C1522 C1520 1.403 . S
C1522 H1529 0.929 . S
N1523 Eu1488 2.562 . S
N1523 C1524 1.325 . S
N1523 C1526 1.351 . S
C1524 H1510 0.929 . S
C1524 N1523 1.325 . S
C1524 C1528 1.416 . S
C1525 C1526 1.430 . S
C1525 C1527 1.404 . S
C1525 C1554 1.387 . S
C1526 C1518 1.448 . S
C1526 N1523 1.351 . S
C1526 C1525 1.430 . S
C1527 H1516 0.930 . S
C1527 C1525 1.404 . S
C1527 C1528 1.366 . S
C1528 H1507 0.930 . S
C1528 C1524 1.416 . S
C1528 C1527 1.366 . S
H1529 C1522 0.929 . S
H1530 C1553 0.931 . S
H1531 C1554 0.931 . S
O1532 Eu1488 2.462 . S
O1532 C1552 1.252 . S
O1533 Eu1488 2.373 . S
O1533 C1544 1.249 . S
O1534 Eu1499 2.335 . S
O1534 C1544 1.264 . S
O1535 Eu1488 2.432 . S
O1535 C1552 1.268 . S
O1536 Eu1488 2.291 . S
O1536 C1551 1.255 . S
O1537 Eu1499 2.372 . S
O1537 C1551 1.257 . S
O1538 Eu1499 2.462 . S
O1538 C1563 1.252 . S
O1539 Eu1499 2.373 . S
O1539 C1555 1.249 . S
O1540 Eu1488 2.335 . S
O1540 C1555 1.264 . S
O1541 Eu1499 2.432 . S
O1541 C1563 1.268 . S
O1542 Eu1499 2.291 . S
O1542 C1562 1.255 . S
O1543 Eu1488 2.372 . S
O1543 C1562 1.257 . S
C1544 O1533 1.249 . S
C1544 O1534 1.264 . S
C1545 C1548 1.382 . S
C1545 C1550 1.390 . S
C1545 C1552 1.506 . S
C1546 C1547 1.398 . S
C1546 C1550 1.392 . S
C1547 C1546 1.398 . S
C1547 C1549 1.372 . S
C1547 H1564 0.931 . S
C1548 C1545 1.382 . S
C1548 C1549 1.390 . S
C1548 H1565 0.931 . S
C1549 C1547 1.372 . S
C1549 C1548 1.390 . S
C1549 H1566 0.929 . S
C1550 C1545 1.390 . S
C1550 C1546 1.392 . S
C1550 H1567 0.930 . S
C1551 O1536 1.255 . S
C1551 O1537 1.257 . S
C1552 Eu1488 2.787 . S
C1552 O1532 1.252 . S
C1552 O1535 1.268 . S
C1552 C1545 1.506 . S
C1553 C1520 1.439 . S
C1553 H1530 0.931 . S
C1553 C1554 1.374 . S
C1554 C1525 1.387 . S
C1554 H1531 0.931 . S
C1554 C1553 1.374 . S
C1555 O1539 1.249 . S
C1555 O1540 1.264 . S
C1556 C1559 1.382 . S
C1556 C1560 1.390 . S
C1556 C1563 1.506 . S
C1557 C1558 1.398 . S
C1557 C1560 1.392 . S
C1558 C1557 1.398 . S
C1558 C1561 1.372 . S
C1558 H1568 0.931 . S
C1559 C1556 1.382 . S
C1559 C1561 1.390 . S
C1559 H1569 0.931 . S
C1560 C1556 1.390 . S
C1560 C1557 1.392 . S
C1560 H1570 0.930 . S
C1561 C1558 1.372 . S
C1561 C1559 1.390 . S
C1561 H1571 0.929 . S
C1562 O1542 1.255 . S
C1562 O1543 1.257 . S
C1563 Eu1499 2.787 . S
C1563 O1538 1.252 . S
C1563 O1541 1.268 . S
C1563 C1556 1.506 . S
H1564 C1547 0.931 . S
H1565 C1548 0.931 . S
H1566 C1549 0.929 . S
H1567 C1550 0.930 . S
H1568 C1558 0.931 . S
H1569 C1559 0.931 . S
H1570 C1560 0.930 . S
H1571 C1561 0.929 . S
Eu1572 N1601 2.600 1_455 S
Eu1572 N1607 2.562 1_455 S
Eu1572 O1616 2.462 1_455 S
Eu1572 O1617 2.373 . S
Eu1572 O1619 2.432 1_455 S
Eu1572 O1620 2.275 1_554 S
Eu1572 O1624 2.335 . S
Eu1572 O1627 2.372 . S
Eu1572 C1636 2.787 1_455 S
C1573 N1574 1.365 . S
C1573 C1576 1.405 . S
C1573 C1580 1.448 1_556 S
N1574 C1573 1.365 . S
N1574 C1577 1.319 . S
N1574 Eu1583 2.600 1_556 S
C1575 C1577 1.397 . S
C1575 C1578 1.367 . S
C1575 H1595 0.931 . S
C1576 C1573 1.405 . S
C1576 C1578 1.403 . S
C1576 C1582 1.439 . S
C1577 N1574 1.319 . S
C1577 C1575 1.397 . S
C1577 H1588 0.930 . S
C1578 C1575 1.367 . S
C1578 C1576 1.403 . S
C1578 H1599 0.929 . S
C1579 C1580 1.430 . S
C1579 C1581 1.387 1_554 S
C1579 C1585 1.404 . S
C1580 C1573 1.448 1_554 S
C1580 C1579 1.430 . S
C1580 N1584 1.351 . S
C1581 C1579 1.387 1_556 S
C1581 C1582 1.374 . S
C1581 H1596 0.931 1_556 S
C1582 C1576 1.439 . S
C1582 C1581 1.374 . S
C1582 H1597 0.931 . S
Eu1583 N1574 2.600 1_554 S
Eu1583 N1584 2.562 . S
Eu1583 O1618 2.335 . S
Eu1583 O1621 2.372 1_554 S
Eu1583 O1622 2.462 . S
Eu1583 O1623 2.373 . S
Eu1583 O1625 2.432 1_554 S
Eu1583 O1626 2.291 . S
Eu1583 C1647 2.787 1_554 S
N1584 C1580 1.351 . S
N1584 Eu1583 2.562 . S
N1584 C1586 1.325 . S
C1585 C1579 1.404 . S
C1585 C1587 1.366 . S
C1585 H1593 0.930 . S
C1586 N1584 1.325 . S
C1586 C1587 1.416 . S
C1586 H1592 0.929 . S
C1587 C1585 1.366 . S
C1587 C1586 1.416 . S
C1587 H1589 0.930 . S
H1588 C1577 0.930 . S
H1589 C1587 0.930 . S
H1590 C1605 0.914 1_455 S
H1591 C1612 0.930 . S
H1592 C1586 0.929 . S
H1593 C1585 0.930 . S
H1594 C1608 0.929 1_556 S
H1595 C1575 0.931 . S
H1596 C1581 0.931 1_554 S
H1597 C1582 0.931 . S
H1598 C1603 0.931 1_455 S
H1599 C1578 0.929 . S
H1600 C1611 0.930 . S
N1601 Eu1572 2.600 1_655 S
N1601 C1602 1.365 . S
N1601 C1605 1.329 . S
C1602 N1601 1.365 . S
C1602 C1604 1.405 . S
C1602 C1610 1.448 . S
C1603 H1598 0.931 1_655 S
C1603 C1605 1.402 . S
C1603 C1606 1.367 . S
C1604 C1602 1.405 . S
C1604 C1606 1.403 . S
C1604 C1637 1.439 . S
C1605 H1590 0.914 1_655 S
C1605 N1601 1.329 . S
C1605 C1603 1.402 . S
C1606 C1603 1.367 . S
C1606 C1604 1.403 . S
C1606 H1613 0.929 . S
N1607 Eu1572 2.562 1_655 S
N1607 C1608 1.325 . S
N1607 C1610 1.351 . S
C1608 H1594 0.929 1_554 S
C1608 N1607 1.325 . S
C1608 C1612 1.416 1_554 S
C1609 C1610 1.430 . S
C1609 C1611 1.404 . S
C1609 C1638 1.387 . S
C1610 C1602 1.448 . S
C1610 N1607 1.351 . S
C1610 C1609 1.430 . S
C1611 H1600 0.930 . S
C1611 C1609 1.404 . S
C1611 C1612 1.366 1_554 S
C1612 H1591 0.930 . S
C1612 C1608 1.416 1_556 S
C1612 C1611 1.366 1_556 S
H1613 C1606 0.929 . S
H1614 C1637 0.931 . S
H1615 C1638 0.931 . S
O1616 Eu1572 2.462 1_655 S
O1616 C1636 1.252 . S
O1617 Eu1572 2.373 . S
O1617 C1628 1.249 . S
O1618 Eu1583 2.335 . S
O1618 C1628 1.264 . S
O1619 Eu1572 2.432 1_655 S
O1619 C1636 1.268 . S
O1620 Eu1572 2.275 1_556 S
O1620 C1635 1.271 . S
O1621 Eu1583 2.372 1_556 S
O1621 C1635 1.257 . S
O1622 Eu1583 2.462 . S
O1622 C1647 1.252 1_554 S
O1623 Eu1583 2.373 . S
O1623 C1639 1.249 . S
O1624 Eu1572 2.335 . S
O1624 C1639 1.264 . S
O1625 Eu1583 2.432 1_556 S
O1625 C1647 1.268 . S
O1626 Eu1583 2.291 . S
O1626 C1646 1.255 . S
O1627 Eu1572 2.372 . S
O1627 C1646 1.257 . S
C1628 O1617 1.249 . S
C1628 O1618 1.264 . S
C1629 C1632 1.382 . S
C1629 C1634 1.390 . S
C1629 C1636 1.506 . S
C1630 C1631 1.398 . S
C1630 C1634 1.392 . S
C1631 C1630 1.398 . S
C1631 C1633 1.372 . S
C1631 H1648 0.931 . S
C1632 C1629 1.382 . S
C1632 C1633 1.390 . S
C1632 H1649 0.931 . S
C1633 C1631 1.372 . S
C1633 C1632 1.390 . S
C1633 H1650 0.929 . S
C1634 C1629 1.390 . S
C1634 C1630 1.392 . S
C1634 H1651 0.930 . S
C1635 O1620 1.271 . S
C1635 O1621 1.257 . S
C1636 Eu1572 2.787 1_655 S
C1636 O1616 1.252 . S
C1636 O1619 1.268 . S
C1636 C1629 1.506 . S
C1637 C1604 1.439 . S
C1637 H1614 0.931 . S
C1637 C1638 1.374 . S
C1638 C1609 1.387 . S
C1638 H1615 0.931 . S
C1638 C1637 1.374 . S
C1639 O1623 1.249 . S
C1639 O1624 1.264 . S
C1640 C1643 1.382 . S
C1640 C1644 1.390 1_556 S
C1640 C1647 1.506 . S
C1641 C1642 1.398 1_554 S
C1641 C1644 1.392 . S
C1642 C1641 1.398 1_556 S
C1642 C1645 1.372 . S
C1642 H1652 0.931 . S
C1643 C1640 1.382 . S
C1643 C1645 1.390 . S
C1643 H1653 0.931 . S
C1644 C1640 1.390 1_554 S
C1644 C1641 1.392 . S
C1644 H1654 0.930 . S
C1645 C1642 1.372 . S
C1645 C1643 1.390 . S
C1645 H1655 0.929 . S
C1646 O1626 1.255 . S
C1646 O1627 1.257 . S
C1647 Eu1583 2.787 1_556 S
C1647 O1622 1.252 1_556 S
C1647 O1625 1.268 . S
C1647 C1640 1.506 . S
H1648 C1631 0.931 . S
H1649 C1632 0.931 . S
H1650 C1633 0.929 . S
H1651 C1634 0.930 . S
H1652 C1642 0.931 . S
H1653 C1643 0.931 . S
H1654 C1644 0.930 . S
H1655 C1645 0.929 . S
H1656 C1664 0.929 . S
H1657 C1666 0.930 1_554 S
H1658 C1668 0.930 . S
H1659 C1671 0.929 . S
H1660 C1674 0.930 1_554 S
H1661 C1676 0.960 . S
H1662 C1676 0.960 . S
H1663 C1676 0.960 . S
C1664 H1656 0.929 . S
C1664 C1665 1.377 1_455 S
C1664 C1666 1.384 . S
C1665 C1664 1.377 1_655 S
C1665 C1671 1.390 . S
C1666 H1657 0.930 1_556 S
C1666 C1664 1.384 . S
C1666 C1667 1.372 . S
C1667 C1666 1.372 . S
C1667 C1668 1.400 1_455 S
C1667 C1672 1.490 . S
C1668 H1658 0.930 . S
C1668 C1667 1.400 1_655 S
C1668 C1671 1.386 . S
H1669 C1685 0.930 . S
H1670 C1686 0.931 1_655 S
C1671 H1659 0.929 . S
C1671 C1665 1.390 . S
C1671 C1668 1.386 . S
C1672 C1667 1.490 . S
C1672 C1674 1.395 1_455 S
C1672 C1675 1.403 . S
H1673 C1679 0.930 . S
C1674 H1660 0.930 1_556 S
C1674 C1672 1.395 1_655 S
C1674 C1677 1.403 1_556 S
C1675 C1672 1.403 . S
C1675 C1676 1.524 . S
C1675 C1679 1.400 . S
C1676 H1661 0.960 . S
C1676 H1662 0.960 . S
C1676 H1663 0.960 . S
C1676 C1675 1.524 . S
C1677 C1674 1.403 1_554 S
C1677 C1678 1.392 1_654 S
C1677 C1681 1.495 . S
C1678 C1677 1.392 1_456 S
C1678 C1679 1.385 . S
C1678 C1680 1.491 . S
C1679 H1673 0.930 . S
C1679 C1675 1.400 . S
C1679 C1678 1.385 . S
C1680 C1678 1.491 . S
C1680 C1682 1.349 1_556 S
C1680 C1686 1.404 . S
C1681 C1677 1.495 . S
C1681 H1687 0.959 . S
C1681 H1688 0.961 . S
C1681 H1689 0.960 . S
C1682 C1680 1.349 1_554 S
C1682 C1683 1.394 . S
C1682 H1690 0.930 . S
C1683 C1682 1.394 . S
C1683 C1684 1.383 . S
C1683 H1691 0.929 . S
C1684 C1683 1.383 . S
C1684 C1685 1.377 1_554 S
C1685 H1669 0.930 . S
C1685 C1684 1.377 1_556 S
C1685 C1686 1.379 . S
C1686 H1670 0.931 1_455 S
C1686 C1680 1.404 . S
C1686 C1685 1.379 . S
H1687 C1681 0.959 . S
H1688 C1681 0.961 . S
H1689 C1681 0.960 . S
H1690 C1682 0.930 . S
H1691 C1683 0.929 . S
H1692 C1700 0.929 . S
H1693 C1702 0.930 . S
H1694 C1704 0.930 . S
H1695 C1707 0.929 . S
H1696 C1710 0.930 . S
H1697 C1712 0.960 . S
H1698 C1712 0.960 . S
H1699 C1712 0.960 . S
C1700 H1692 0.929 . S
C1700 C1701 1.377 . S
C1700 C1702 1.384 . S
C1701 C1700 1.377 . S
C1701 C1707 1.390 . S
C1702 H1693 0.930 . S
C1702 C1700 1.384 . S
C1702 C1703 1.372 . S
C1703 C1702 1.372 . S
C1703 C1704 1.400 . S
C1703 C1708 1.490 . S
C1704 H1694 0.930 . S
C1704 C1703 1.400 . S
C1704 C1707 1.386 . S
H1705 C1721 0.930 . S
H1706 C1722 0.931 . S
C1707 H1695 0.929 . S
C1707 C1701 1.390 . S
C1707 C1704 1.386 . S
C1708 C1703 1.490 . S
C1708 C1710 1.395 . S
C1708 C1711 1.403 . S
H1709 C1715 0.930 . S
C1710 H1696 0.930 . S
C1710 C1708 1.395 . S
C1710 C1713 1.403 . S
C1711 C1708 1.403 . S
C1711 C1712 1.524 . S
C1711 C1715 1.400 . S
C1712 H1697 0.960 . S
C1712 H1698 0.960 . S
C1712 H1699 0.960 . S
C1712 C1711 1.524 . S
C1713 C1710 1.403 . S
C1713 C1714 1.392 . S
C1713 C1717 1.495 . S
C1714 C1713 1.392 . S
C1714 C1715 1.385 . S
C1714 C1716 1.478 . S
C1715 H1709 0.930 . S
C1715 C1711 1.400 . S
C1715 C1714 1.385 . S
C1716 C1714 1.478 . S
C1716 C1718 1.381 . S
C1716 C1722 1.383 . S
C1717 C1713 1.495 . S
C1717 H1723 0.959 . S
C1717 H1724 0.961 . S
C1717 H1725 0.960 . S
C1718 C1716 1.381 . S
C1718 C1719 1.394 . S
C1718 H1726 0.930 . S
C1719 C1718 1.394 . S
C1719 C1720 1.383 . S
C1719 H1727 0.929 . S
C1720 C1719 1.383 . S
C1720 C1721 1.377 . S
C1721 H1705 0.930 . S
C1721 C1720 1.377 . S
C1721 C1722 1.379 . S
C1722 H1706 0.931 . S
C1722 C1716 1.383 . S
C1722 C1721 1.379 . S
H1723 C1717 0.959 . S
H1724 C1717 0.961 . S
H1725 C1717 0.960 . S
H1726 C1718 0.930 . S
H1727 C1719 0.929 . S
H1728 C1736 0.929 . S
H1729 C1738 0.930 . S
H1730 C1740 0.930 . S
H1731 C1743 0.929 . S
H1732 C1746 0.930 . S
H1733 C1748 0.960 . S
H1734 C1748 0.960 . S
H1735 C1748 0.960 . S
C1736 H1728 0.929 . S
C1736 C1737 1.377 . S
C1736 C1738 1.384 . S
C1737 C1736 1.377 . S
C1737 C1743 1.390 . S
C1738 H1729 0.930 . S
C1738 C1736 1.384 . S
C1738 C1739 1.372 . S
C1739 C1738 1.372 . S
C1739 C1740 1.400 . S
C1739 C1744 1.490 . S
C1740 H1730 0.930 . S
C1740 C1739 1.400 . S
C1740 C1743 1.386 . S
H1741 C1757 0.930 . S
H1742 C1758 0.931 . S
C1743 H1731 0.929 . S
C1743 C1737 1.390 . S
C1743 C1740 1.386 . S
C1744 C1739 1.490 . S
C1744 C1746 1.395 . S
C1744 C1747 1.403 . S
H1745 C1751 0.930 . S
C1746 H1732 0.930 . S
C1746 C1744 1.395 . S
C1746 C1749 1.403 . S
C1747 C1744 1.403 . S
C1747 C1748 1.524 . S
C1747 C1751 1.400 . S
C1748 H1733 0.960 . S
C1748 H1734 0.960 . S
C1748 H1735 0.960 . S
C1748 C1747 1.524 . S
C1749 C1746 1.403 . S
C1749 C1750 1.392 . S
C1749 C1753 1.495 . S
C1750 C1749 1.392 . S
C1750 C1751 1.385 . S
C1750 C1752 1.478 . S
C1751 H1745 0.930 . S
C1751 C1747 1.400 . S
C1751 C1750 1.385 . S
C1752 C1750 1.478 . S
C1752 C1754 1.381 . S
C1752 C1758 1.383 . S
C1753 C1749 1.495 . S
C1753 H1759 0.959 . S
C1753 H1760 0.961 . S
C1753 H1761 0.960 . S
C1754 C1752 1.381 . S
C1754 C1755 1.394 . S
C1754 H1762 0.930 . S
C1755 C1754 1.394 . S
C1755 C1756 1.383 . S
C1755 H1763 0.929 . S
C1756 C1755 1.383 . S
C1756 C1757 1.377 . S
C1757 H1741 0.930 . S
C1757 C1756 1.377 . S
C1757 C1758 1.379 . S
C1758 H1742 0.931 . S
C1758 C1752 1.383 . S
C1758 C1757 1.379 . S
H1759 C1753 0.959 . S
H1760 C1753 0.961 . S
H1761 C1753 0.960 . S
H1762 C1754 0.930 . S
H1763 C1755 0.929 . S
H1764 C1772 0.929 . S
H1765 C1774 0.930 . S
H1766 C1776 0.930 . S
H1767 C1779 0.929 . S
H1768 C1782 0.930 . S
H1769 C1784 0.960 . S
H1770 C1784 0.960 . S
H1771 C1784 0.960 . S
C1772 H1764 0.929 . S
C1772 C1773 1.377 . S
C1772 C1774 1.384 . S
C1773 C1772 1.377 . S
C1773 C1779 1.390 . S
C1774 H1765 0.930 . S
C1774 C1772 1.384 . S
C1774 C1775 1.372 . S
C1775 C1774 1.372 . S
C1775 C1776 1.400 . S
C1775 C1780 1.490 . S
C1776 H1766 0.930 . S
C1776 C1775 1.400 . S
C1776 C1779 1.386 . S
H1777 C1793 0.930 . S
H1778 C1794 0.931 . S
C1779 H1767 0.929 . S
C1779 C1773 1.390 . S
C1779 C1776 1.386 . S
C1780 C1775 1.490 . S
C1780 C1782 1.395 . S
C1780 C1783 1.403 . S
H1781 C1787 0.930 . S
C1782 H1768 0.930 . S
C1782 C1780 1.395 . S
C1782 C1785 1.403 . S
C1783 C1780 1.403 . S
C1783 C1784 1.524 . S
C1783 C1787 1.400 . S
C1784 H1769 0.960 . S
C1784 H1770 0.960 . S
C1784 H1771 0.960 . S
C1784 C1783 1.524 . S
C1785 C1782 1.403 . S
C1785 C1786 1.392 . S
C1785 C1789 1.495 . S
C1786 C1785 1.392 . S
C1786 C1787 1.385 . S
C1786 C1788 1.478 . S
C1787 H1781 0.930 . S
C1787 C1783 1.400 . S
C1787 C1786 1.385 . S
C1788 C1786 1.478 . S
C1788 C1790 1.381 . S
C1788 C1794 1.383 . S
C1789 C1785 1.495 . S
C1789 H1795 0.959 . S
C1789 H1796 0.961 . S
C1789 H1797 0.960 . S
C1790 C1788 1.381 . S
C1790 C1791 1.394 . S
C1790 H1798 0.930 . S
C1791 C1790 1.394 . S
C1791 C1792 1.383 . S
C1791 H1799 0.929 . S
C1792 C1791 1.383 . S
C1792 C1793 1.377 . S
C1793 H1777 0.930 . S
C1793 C1792 1.377 . S
C1793 C1794 1.379 . S
C1794 H1778 0.931 . S
C1794 C1788 1.383 . S
C1794 C1793 1.379 . S
H1795 C1789 0.959 . S
H1796 C1789 0.961 . S
H1797 C1789 0.960 . S
H1798 C1790 0.930 . S
H1799 C1791 0.929 . S
H1800 C1808 0.940 . S
H1801 C1810 0.927 . S
H1802 C1812 0.930 . S
H1803 C1815 0.929 . S
H1804 C1818 0.930 . S
H1805 C1820 0.960 . S
H1806 C1820 0.960 . S
H1807 C1820 0.960 . S
C1808 H1800 0.940 . S
C1808 C1809 1.366 1_655 S
C1808 C1810 1.385 . S
C1809 C1808 1.366 1_455 S
C1809 C1815 1.390 . S
C1810 H1801 0.927 . S
C1810 C1808 1.385 . S
C1810 C1811 1.374 1_655 S
C1811 C1810 1.374 1_455 S
C1811 C1812 1.400 . S
C1811 C1816 1.490 . S
C1812 H1802 0.930 . S
C1812 C1811 1.400 . S
C1812 C1815 1.386 . S
H1813 C1829 0.930 . S
H1814 C1830 0.931 . S
C1815 H1803 0.929 . S
C1815 C1809 1.390 . S
C1815 C1812 1.386 . S
C1816 C1811 1.490 . S
C1816 C1818 1.395 . S
C1816 C1819 1.403 . S
H1817 C1823 0.930 . S
C1818 H1804 0.930 . S
C1818 C1816 1.395 . S
C1818 C1821 1.403 . S
C1819 C1816 1.403 . S
C1819 C1820 1.524 . S
C1819 C1823 1.400 . S
C1820 H1805 0.960 . S
C1820 H1806 0.960 . S
C1820 H1807 0.960 . S
C1820 C1819 1.524 . S
C1821 C1818 1.403 . S
C1821 C1822 1.392 . S
C1821 C1825 1.495 . S
C1822 C1821 1.392 . S
C1822 C1823 1.385 . S
C1822 C1824 1.478 . S
C1823 H1817 0.930 . S
C1823 C1819 1.400 . S
C1823 C1822 1.385 . S
C1824 C1822 1.478 . S
C1824 C1826 1.381 . S
C1824 C1830 1.383 . S
C1825 C1821 1.495 . S
C1825 H1831 0.966 . S
C1825 H1832 0.961 . S
C1825 H1833 0.960 1_455 S
C1826 C1824 1.381 . S
C1826 C1827 1.394 . S
C1826 H1834 0.930 1_455 S
C1827 C1826 1.394 . S
C1827 C1828 1.383 . S
C1827 H1835 0.929 1_455 S
C1828 C1827 1.383 . S
C1828 C1829 1.377 . S
C1829 H1813 0.930 . S
C1829 C1828 1.377 . S
C1829 C1830 1.379 . S
C1830 H1814 0.931 . S
C1830 C1824 1.383 . S
C1830 C1829 1.379 . S
H1831 C1825 0.966 . S
H1832 C1825 0.961 . S
H1833 C1825 0.960 1_655 S
H1834 C1826 0.930 1_655 S
H1835 C1827 0.929 1_655 S
H1836 C1844 0.929 . S
H1837 C1846 0.930 . S
H1838 C1848 0.930 . S
H1839 C1851 0.929 . S
H1840 C1854 0.930 . S
H1841 C1856 0.960 . S
H1842 C1856 0.960 . S
H1843 C1856 0.960 . S
C1844 H1836 0.929 . S
C1844 C1845 1.377 . S
C1844 C1846 1.384 . S
C1845 C1844 1.377 . S
C1845 C1851 1.390 . S
C1846 H1837 0.930 . S
C1846 C1844 1.384 . S
C1846 C1847 1.372 . S
C1847 C1846 1.372 . S
C1847 C1848 1.400 . S
C1847 C1852 1.490 . S
C1848 H1838 0.930 . S
C1848 C1847 1.400 . S
C1848 C1851 1.386 . S
H1849 C1865 0.930 . S
H1850 C1866 0.931 . S
C1851 H1839 0.929 . S
C1851 C1845 1.390 . S
C1851 C1848 1.386 . S
C1852 C1847 1.490 . S
C1852 C1854 1.395 . S
C1852 C1855 1.403 . S
H1853 C1859 0.930 . S
C1854 H1840 0.930 . S
C1854 C1852 1.395 . S
C1854 C1857 1.403 . S
C1855 C1852 1.403 . S
C1855 C1856 1.524 . S
C1855 C1859 1.400 . S
C1856 H1841 0.960 . S
C1856 H1842 0.960 . S
C1856 H1843 0.960 . S
C1856 C1855 1.524 . S
C1857 C1854 1.403 . S
C1857 C1858 1.392 . S
C1857 C1861 1.495 . S
C1858 C1857 1.392 . S
C1858 C1859 1.385 . S
C1858 C1860 1.478 . S
C1859 H1853 0.930 . S
C1859 C1855 1.400 . S
C1859 C1858 1.385 . S
C1860 C1858 1.478 . S
C1860 C1862 1.381 . S
C1860 C1866 1.383 . S
C1861 C1857 1.495 . S
C1861 H1867 0.959 . S
C1861 H1868 0.961 . S
C1861 H1869 0.960 . S
C1862 C1860 1.381 . S
C1862 C1863 1.394 . S
C1862 H1870 0.930 . S
C1863 C1862 1.394 . S
C1863 C1864 1.383 . S
C1863 H1871 0.929 . S
C1864 C1863 1.383 . S
C1864 C1865 1.377 . S
C1865 H1849 0.930 . S
C1865 C1864 1.377 . S
C1865 C1866 1.379 . S
C1866 H1850 0.931 . S
C1866 C1860 1.383 . S
C1866 C1865 1.379 . S
H1867 C1861 0.959 . S
H1868 C1861 0.961 . S
H1869 C1861 0.960 . S
H1870 C1862 0.930 . S
H1871 C1863 0.929 . S
H1872 C1880 0.929 . S
H1873 C1882 0.930 . S
H1874 C1884 0.930 . S
H1875 C1887 0.929 . S
H1876 C1890 0.930 . S
H1877 C1892 0.960 . S
H1878 C1892 0.960 . S
H1879 C1892 0.960 . S
C1880 H1872 0.929 . S
C1880 C1881 1.377 . S
C1880 C1882 1.384 . S
C1881 C1880 1.377 . S
C1881 C1887 1.390 . S
C1882 H1873 0.930 . S
C1882 C1880 1.384 . S
C1882 C1883 1.372 . S
C1883 C1882 1.372 . S
C1883 C1884 1.400 . S
C1883 C1888 1.490 . S
C1884 H1874 0.930 . S
C1884 C1883 1.400 . S
C1884 C1887 1.386 . S
H1885 C1901 0.930 . S
H1886 C1902 0.931 . S
C1887 H1875 0.929 . S
C1887 C1881 1.390 . S
C1887 C1884 1.386 . S
C1888 C1883 1.490 . S
C1888 C1890 1.395 . S
C1888 C1891 1.403 . S
H1889 C1895 0.930 . S
C1890 H1876 0.930 . S
C1890 C1888 1.395 . S
C1890 C1893 1.403 . S
C1891 C1888 1.403 . S
C1891 C1892 1.524 . S
C1891 C1895 1.400 . S
C1892 H1877 0.960 . S
C1892 H1878 0.960 . S
C1892 H1879 0.960 . S
C1892 C1891 1.524 . S
C1893 C1890 1.403 . S
C1893 C1894 1.392 . S
C1893 C1897 1.495 . S
C1894 C1893 1.392 . S
C1894 C1895 1.385 . S
C1894 C1896 1.478 . S
C1895 H1889 0.930 . S
C1895 C1891 1.400 . S
C1895 C1894 1.385 . S
C1896 C1894 1.478 . S
C1896 C1898 1.381 . S
C1896 C1902 1.383 . S
C1897 C1893 1.495 . S
C1897 H1903 0.959 . S
C1897 H1904 0.961 . S
C1897 H1905 0.960 . S
C1898 C1896 1.381 . S
C1898 C1899 1.394 . S
C1898 H1906 0.930 . S
C1899 C1898 1.394 . S
C1899 C1900 1.383 . S
C1899 H1907 0.929 . S
C1900 C1899 1.383 . S
C1900 C1901 1.377 . S
C1901 H1885 0.930 . S
C1901 C1900 1.377 . S
C1901 C1902 1.379 . S
C1902 H1886 0.931 . S
C1902 C1896 1.383 . S
C1902 C1901 1.379 . S
H1903 C1897 0.959 . S
H1904 C1897 0.961 . S
H1905 C1897 0.960 . S
H1906 C1898 0.930 . S
H1907 C1899 0.929 . S
H1908 C1916 0.929 . S
H1909 C1918 0.930 . S
H1910 C1920 0.930 . S
H1911 C1923 0.929 . S
H1912 C1926 0.930 . S
H1913 C1928 0.960 . S
H1914 C1928 0.960 . S
H1915 C1928 0.960 . S
C1916 H1908 0.929 . S
C1916 C1917 1.377 . S
C1916 C1918 1.384 . S
C1917 C1916 1.377 . S
C1917 C1923 1.390 . S
C1918 H1909 0.930 . S
C1918 C1916 1.384 . S
C1918 C1919 1.372 . S
C1919 C1918 1.372 . S
C1919 C1920 1.400 . S
C1919 C1924 1.490 . S
C1920 H1910 0.930 . S
C1920 C1919 1.400 . S
C1920 C1923 1.386 . S
H1921 C1937 0.930 . S
H1922 C1938 0.931 . S
C1923 H1911 0.929 . S
C1923 C1917 1.390 . S
C1923 C1920 1.386 . S
C1924 C1919 1.490 . S
C1924 C1926 1.395 . S
C1924 C1927 1.403 . S
H1925 C1931 0.930 . S
C1926 H1912 0.930 . S
C1926 C1924 1.395 . S
C1926 C1929 1.403 . S
C1927 C1924 1.403 . S
C1927 C1928 1.524 . S
C1927 C1931 1.400 . S
C1928 H1913 0.960 . S
C1928 H1914 0.960 . S
C1928 H1915 0.960 . S
C1928 C1927 1.524 . S
C1929 C1926 1.403 . S
C1929 C1930 1.392 . S
C1929 C1933 1.495 . S
C1930 C1929 1.392 . S
C1930 C1931 1.385 . S
C1930 C1932 1.478 . S
C1931 H1925 0.930 . S
C1931 C1927 1.400 . S
C1931 C1930 1.385 . S
C1932 C1930 1.478 . S
C1932 C1934 1.381 . S
C1932 C1938 1.383 . S
C1933 C1929 1.495 . S
C1933 H1939 0.959 . S
C1933 H1940 0.961 . S
C1933 H1941 0.960 . S
C1934 C1932 1.381 . S
C1934 C1935 1.394 . S
C1934 H1942 0.930 . S
C1935 C1934 1.394 . S
C1935 C1936 1.383 . S
C1935 H1943 0.929 . S
C1936 C1935 1.383 . S
C1936 C1937 1.377 . S
C1937 H1921 0.930 . S
C1937 C1936 1.377 . S
C1937 C1938 1.379 . S
C1938 H1922 0.931 . S
C1938 C1932 1.383 . S
C1938 C1937 1.379 . S
H1939 C1933 0.959 . S
H1940 C1933 0.961 . S
H1941 C1933 0.960 . S
H1942 C1934 0.930 . S
H1943 C1935 0.929 . S
H1944 C1952 0.929 . S
H1945 C1954 0.930 . S
H1946 C1956 0.930 1_565 S
H1947 C1959 0.935 . S
H1948 C1962 0.930 . S
H1949 C1964 0.960 . S
H1950 C1964 0.960 . S
H1951 C1964 0.960 . S
C1952 H1944 0.929 . S
C1952 C1953 1.377 . S
C1952 C1954 1.384 . S
C1953 C1952 1.377 . S
C1953 C1959 1.384 1_545 S
C1954 H1945 0.930 . S
C1954 C1952 1.384 . S
C1954 C1955 1.372 . S
C1955 C1954 1.372 . S
C1955 C1956 1.400 . S
C1955 C1960 1.490 . S
C1956 H1946 0.930 1_545 S
C1956 C1955 1.400 . S
C1956 C1959 1.385 1_545 S
H1957 C1973 0.930 . S
H1958 C1974 0.931 . S
C1959 H1947 0.935 . S
C1959 C1953 1.384 1_565 S
C1959 C1956 1.385 1_565 S
C1960 C1955 1.490 . S
C1960 C1962 1.395 . S
C1960 C1963 1.403 . S
H1961 C1967 0.930 . S
C1962 H1948 0.930 . S
C1962 C1960 1.395 . S
C1962 C1965 1.403 . S
C1963 C1960 1.403 . S
C1963 C1964 1.524 1_545 S
C1963 C1967 1.400 . S
C1964 H1949 0.960 . S
C1964 H1950 0.960 . S
C1964 H1951 0.960 . S
C1964 C1963 1.524 1_565 S
C1965 C1962 1.403 . S
C1965 C1966 1.392 . S
C1965 C1969 1.495 1_655 S
C1966 C1965 1.392 . S
C1966 C1967 1.385 . S
C1966 C1968 1.478 . S
C1967 H1961 0.930 . S
C1967 C1963 1.400 . S
C1967 C1966 1.385 . S
C1968 C1966 1.478 . S
C1968 C1970 1.381 . S
C1968 C1974 1.383 . S
C1969 C1965 1.495 1_455 S
C1969 H1975 0.959 . S
C1969 H1976 0.961 . S
C1969 H1977 0.960 . S
C1970 C1968 1.381 . S
C1970 C1971 1.394 . S
C1970 H1978 0.930 . S
C1971 C1970 1.394 . S
C1971 C1972 1.383 1_655 S
C1971 H1979 0.929 . S
C1972 C1971 1.383 1_455 S
C1972 C1973 1.377 . S
C1973 H1957 0.930 . S
C1973 C1972 1.377 . S
C1973 C1974 1.379 1_455 S
C1974 H1958 0.931 . S
C1974 C1968 1.383 . S
C1974 C1973 1.379 1_655 S
H1975 C1969 0.959 . S
H1976 C1969 0.961 . S
H1977 C1969 0.960 . S
H1978 C1970 0.930 . S
H1979 C1971 0.929 . S
H1980 C1988 0.929 . S
H1981 C1990 0.930 . S
H1982 C1992 0.930 . S
H1983 C1995 0.929 . S
H1984 C1998 0.930 . S
H1985 C2000 0.960 . S
H1986 C2000 0.960 . S
H1987 C2000 0.960 . S
C1988 H1980 0.929 . S
C1988 C1989 1.377 . S
C1988 C1990 1.384 . S
C1989 C1988 1.377 . S
C1989 C1995 1.390 . S
C1990 H1981 0.930 . S
C1990 C1988 1.384 . S
C1990 C1991 1.372 . S
C1991 C1990 1.372 . S
C1991 C1992 1.400 . S
C1991 C1996 1.490 . S
C1992 H1982 0.930 . S
C1992 C1991 1.400 . S
C1992 C1995 1.386 . S
H1993 C2009 0.930 . S
H1994 C2010 0.931 . S
C1995 H1983 0.929 . S
C1995 C1989 1.390 . S
C1995 C1992 1.386 . S
C1996 C1991 1.490 . S
C1996 C1998 1.395 . S
C1996 C1999 1.403 . S
H1997 C2003 0.930 . S
C1998 H1984 0.930 . S
C1998 C1996 1.395 . S
C1998 C2001 1.403 . S
C1999 C1996 1.403 . S
C1999 C2000 1.524 . S
C1999 C2003 1.400 . S
C2000 H1985 0.960 . S
C2000 H1986 0.960 . S
C2000 H1987 0.960 . S
C2000 C1999 1.524 . S
C2001 C1998 1.403 . S
C2001 C2002 1.392 . S
C2001 C2005 1.495 . S
C2002 C2001 1.392 . S
C2002 C2003 1.385 . S
C2002 C2004 1.478 . S
C2003 H1997 0.930 . S
C2003 C1999 1.400 . S
C2003 C2002 1.385 . S
C2004 C2002 1.478 . S
C2004 C2006 1.381 . S
C2004 C2010 1.383 . S
C2005 C2001 1.495 . S
C2005 H2011 0.959 . S
C2005 H2012 0.961 . S
C2005 H2013 0.960 . S
C2006 C2004 1.381 . S
C2006 C2007 1.394 . S
C2006 H2014 0.930 . S
C2007 C2006 1.394 . S
C2007 C2008 1.383 . S
C2007 H2015 0.929 . S
C2008 C2007 1.383 . S
C2008 C2009 1.377 . S
C2009 H1993 0.930 . S
C2009 C2008 1.377 . S
C2009 C2010 1.379 . S
C2010 H1994 0.931 . S
C2010 C2004 1.383 . S
C2010 C2009 1.379 . S
H2011 C2005 0.959 . S
H2012 C2005 0.961 . S
H2013 C2005 0.960 . S
H2014 C2006 0.930 . S
H2015 C2007 0.929 . S
H2016 C2024 0.929 . S
H2017 C2026 0.930 . S
H2018 C2028 0.930 . S
H2019 C2031 0.929 . S
H2020 C2034 0.930 . S
H2021 C2036 0.960 . S
H2022 C2036 0.960 . S
H2023 C2036 0.960 . S
C2024 H2016 0.929 . S
C2024 C2025 1.377 . S
C2024 C2026 1.384 . S
C2025 C2024 1.377 . S
C2025 C2031 1.390 . S
C2026 H2017 0.930 . S
C2026 C2024 1.384 . S
C2026 C2027 1.372 . S
C2027 C2026 1.372 . S
C2027 C2028 1.400 . S
C2027 C2032 1.490 . S
C2028 H2018 0.930 . S
C2028 C2027 1.400 . S
C2028 C2031 1.386 . S
H2029 C2045 0.930 . S
H2030 C2046 0.931 . S
C2031 H2019 0.929 . S
C2031 C2025 1.390 . S
C2031 C2028 1.386 . S
C2032 C2027 1.490 . S
C2032 C2034 1.395 . S
C2032 C2035 1.403 . S
H2033 C2039 0.930 . S
C2034 H2020 0.930 . S
C2034 C2032 1.395 . S
C2034 C2037 1.403 . S
C2035 C2032 1.403 . S
C2035 C2036 1.524 . S
C2035 C2039 1.400 . S
C2036 H2021 0.960 . S
C2036 H2022 0.960 . S
C2036 H2023 0.960 . S
C2036 C2035 1.524 . S
C2037 C2034 1.403 . S
C2037 C2038 1.392 . S
C2037 C2041 1.495 . S
C2038 C2037 1.392 . S
C2038 C2039 1.385 . S
C2038 C2040 1.478 . S
C2039 H2033 0.930 . S
C2039 C2035 1.400 . S
C2039 C2038 1.385 . S
C2040 C2038 1.478 . S
C2040 C2042 1.381 . S
C2040 C2046 1.383 . S
C2041 C2037 1.495 . S
C2041 H2047 0.959 . S
C2041 H2048 0.987 . S
C2041 H2049 0.960 . S
C2042 C2040 1.381 . S
C2042 C2043 1.394 . S
C2042 H2050 0.930 . S
C2043 C2042 1.394 . S
C2043 C2044 1.383 . S
C2043 H2051 0.929 . S
C2044 C2043 1.383 . S
C2044 C2045 1.377 . S
C2045 H2029 0.930 . S
C2045 C2044 1.377 . S
C2045 C2046 1.379 . S
C2046 H2030 0.931 . S
C2046 C2040 1.383 . S
C2046 C2045 1.379 . S
H2047 C2041 0.959 . S
H2048 C2041 0.987 . S
H2049 C2041 0.960 . S
H2050 C2042 0.930 . S
H2051 C2043 0.929 . S
H2052 C2060 0.929 . S
H2053 C2062 0.930 . S
H2054 C2064 0.930 . S
H2055 C2067 0.929 . S
H2056 C2070 0.930 . S
H2057 C2072 0.960 . S
H2058 C2072 0.960 . S
H2059 C2072 0.960 . S
C2060 H2052 0.929 . S
C2060 C2061 1.377 . S
C2060 C2062 1.384 . S
C2061 C2060 1.377 . S
C2061 C2067 1.390 . S
C2062 H2053 0.930 . S
C2062 C2060 1.384 . S
C2062 C2063 1.372 . S
C2063 C2062 1.372 . S
C2063 C2064 1.400 . S
C2063 C2068 1.490 . S
C2064 H2054 0.930 . S
C2064 C2063 1.400 . S
C2064 C2067 1.386 . S
H2065 C2081 0.930 . S
H2066 C2082 0.931 . S
C2067 H2055 0.929 . S
C2067 C2061 1.390 . S
C2067 C2064 1.386 . S
C2068 C2063 1.490 . S
C2068 C2070 1.395 . S
C2068 C2071 1.403 . S
H2069 C2075 0.930 . S
C2070 H2056 0.930 . S
C2070 C2068 1.395 . S
C2070 C2073 1.403 . S
C2071 C2068 1.403 . S
C2071 C2072 1.524 . S
C2071 C2075 1.400 . S
C2072 H2057 0.960 . S
C2072 H2058 0.960 . S
C2072 H2059 0.960 . S
C2072 C2071 1.524 . S
C2073 C2070 1.403 . S
C2073 C2074 1.392 . S
C2073 C2077 1.495 . S
C2074 C2073 1.392 . S
C2074 C2075 1.385 . S
C2074 C2076 1.478 . S
C2075 H2069 0.930 . S
C2075 C2071 1.400 . S
C2075 C2074 1.385 . S
C2076 C2074 1.478 . S
C2076 C2078 1.381 . S
C2076 C2082 1.383 . S
C2077 C2073 1.495 . S
C2077 H2083 0.959 . S
C2077 H2084 0.961 . S
C2077 H2085 0.960 . S
C2078 C2076 1.381 . S
C2078 C2079 1.394 . S
C2078 H2086 0.930 . S
C2079 C2078 1.394 . S
C2079 C2080 1.383 . S
C2079 H2087 0.929 . S
C2080 C2079 1.383 . S
C2080 C2081 1.377 . S
C2081 H2065 0.930 . S
C2081 C2080 1.377 . S
C2081 C2082 1.379 . S
C2082 H2066 0.931 . S
C2082 C2076 1.383 . S
C2082 C2081 1.379 . S
H2083 C2077 0.959 . S
H2084 C2077 0.961 . S
H2085 C2077 0.960 . S
H2086 C2078 0.930 . S
H2087 C2079 0.929 . S
H2088 C2096 0.929 1_565 S
H2089 C2098 0.930 1_565 S
H2090 C2100 0.930 . S
H2091 C2103 0.929 . S
H2092 C2106 0.930 . S
H2093 C2108 0.960 . S
H2094 C2108 0.960 . S
H2095 C2108 0.960 . S
C2096 H2088 0.929 1_545 S
C2096 C2097 1.377 . S
C2096 C2098 1.384 . S
C2097 C2096 1.377 . S
C2097 C2103 1.390 . S
C2098 H2089 0.930 1_545 S
C2098 C2096 1.384 . S
C2098 C2099 1.372 . S
C2099 C2098 1.372 . S
C2099 C2100 1.400 . S
C2099 C2104 1.490 . S
C2100 H2090 0.930 . S
C2100 C2099 1.400 . S
C2100 C2103 1.386 . S
H2101 C2117 0.930 . S
H2102 C2118 0.931 . S
C2103 H2091 0.929 . S
C2103 C2097 1.390 . S
C2103 C2100 1.386 . S
C2104 C2099 1.490 . S
C2104 C2106 1.395 . S
C2104 C2107 1.403 . S
H2105 C2111 0.930 . S
C2106 H2092 0.930 . S
C2106 C2104 1.395 . S
C2106 C2109 1.403 . S
C2107 C2104 1.403 . S
C2107 C2108 1.524 . S
C2107 C2111 1.400 . S
C2108 H2093 0.960 . S
C2108 H2094 0.960 . S
C2108 H2095 0.960 . S
C2108 C2107 1.524 . S
C2109 C2106 1.403 . S
C2109 C2110 1.392 . S
C2109 C2113 1.495 1_655 S
C2110 C2109 1.392 . S
C2110 C2111 1.385 . S
C2110 C2112 1.478 . S
C2111 H2105 0.930 . S
C2111 C2107 1.400 . S
C2111 C2110 1.385 . S
C2112 C2110 1.478 . S
C2112 C2114 1.377 . S
C2112 C2118 1.383 . S
C2113 C2109 1.495 1_455 S
C2113 H2119 0.959 . S
C2113 H2120 0.961 . S
C2113 H2121 0.960 . S
C2114 C2112 1.377 . S
C2114 C2115 1.396 1_655 S
C2114 H2122 0.932 1_645 S
C2115 C2114 1.396 1_455 S
C2115 C2116 1.383 . S
C2115 H2123 0.929 1_545 S
C2116 C2115 1.383 . S
C2116 C2117 1.377 1_455 S
C2117 H2101 0.930 . S
C2117 C2116 1.377 1_655 S
C2117 C2118 1.379 . S
C2118 H2102 0.931 . S
C2118 C2112 1.383 . S
C2118 C2117 1.379 . S
H2119 C2113 0.959 . S
H2120 C2113 0.961 . S
H2121 C2113 0.960 . S
H2122 C2114 0.932 1_465 S
H2123 C2115 0.929 1_565 S
H2124 C2132 0.929 . S
H2125 C2134 0.930 . S
H2126 C2136 0.930 . S
H2127 C2139 0.929 . S
H2128 C2142 0.930 . S
H2129 C2144 0.960 . S
H2130 C2144 0.960 . S
H2131 C2144 0.960 . S
C2132 H2124 0.929 . S
C2132 C2133 1.377 . S
C2132 C2134 1.384 . S
C2133 C2132 1.377 . S
C2133 C2139 1.390 . S
C2134 H2125 0.930 . S
C2134 C2132 1.384 . S
C2134 C2135 1.372 . S
C2135 C2134 1.372 . S
C2135 C2136 1.400 . S
C2135 C2140 1.490 . S
C2136 H2126 0.930 . S
C2136 C2135 1.400 . S
C2136 C2139 1.386 . S
H2137 C2153 0.930 . S
H2138 C2154 0.931 . S
C2139 H2127 0.929 . S
C2139 C2133 1.390 . S
C2139 C2136 1.386 . S
C2140 C2135 1.490 . S
C2140 C2142 1.395 . S
C2140 C2143 1.403 . S
H2141 C2147 0.930 . S
C2142 H2128 0.930 . S
C2142 C2140 1.395 . S
C2142 C2145 1.403 . S
C2143 C2140 1.403 . S
C2143 C2144 1.524 . S
C2143 C2147 1.400 . S
C2144 H2129 0.960 . S
C2144 H2130 0.960 . S
C2144 H2131 0.960 . S
C2144 C2143 1.524 . S
C2145 C2142 1.403 . S
C2145 C2146 1.392 . S
C2145 C2149 1.495 . S
C2146 C2145 1.392 . S
C2146 C2147 1.385 . S
C2146 C2148 1.478 . S
C2147 H2141 0.930 . S
C2147 C2143 1.400 . S
C2147 C2146 1.385 . S
C2148 C2146 1.478 . S
C2148 C2150 1.381 . S
C2148 C2154 1.383 . S
C2149 C2145 1.495 . S
C2149 H2155 0.959 . S
C2149 H2156 0.961 . S
C2149 H2157 0.960 . S
C2150 C2148 1.381 . S
C2150 C2151 1.394 . S
C2150 H2158 0.930 . S
C2151 C2150 1.394 . S
C2151 C2152 1.383 . S
C2151 H2159 0.929 . S
C2152 C2151 1.383 . S
C2152 C2153 1.377 . S
C2153 H2137 0.930 . S
C2153 C2152 1.377 . S
C2153 C2154 1.379 . S
C2154 H2138 0.931 . S
C2154 C2148 1.383 . S
C2154 C2153 1.379 . S
H2155 C2149 0.959 . S
H2156 C2149 0.961 . S
H2157 C2149 0.960 . S
H2158 C2150 0.930 . S
H2159 C2151 0.929 . S
H2160 C2168 0.929 . S
H2161 C2170 0.930 . S
H2162 C2172 0.930 . S
H2163 C2175 0.929 . S
H2164 C2178 0.930 . S
H2165 C2180 0.960 . S
H2166 C2180 0.960 . S
H2167 C2180 0.960 . S
C2168 H2160 0.929 . S
C2168 C2169 1.377 . S
C2168 C2170 1.384 . S
C2169 C2168 1.377 . S
C2169 C2175 1.390 . S
C2170 H2161 0.930 . S
C2170 C2168 1.384 . S
C2170 C2171 1.372 . S
C2171 C2170 1.372 . S
C2171 C2172 1.400 . S
C2171 C2176 1.490 . S
C2172 H2162 0.930 . S
C2172 C2171 1.400 . S
C2172 C2175 1.386 . S
H2173 C2189 0.930 . S
H2174 C2190 0.931 . S
C2175 H2163 0.929 . S
C2175 C2169 1.390 . S
C2175 C2172 1.386 . S
C2176 C2171 1.490 . S
C2176 C2178 1.395 . S
C2176 C2179 1.403 . S
H2177 C2183 0.930 . S
C2178 H2164 0.930 . S
C2178 C2176 1.395 . S
C2178 C2181 1.403 . S
C2179 C2176 1.403 . S
C2179 C2180 1.524 . S
C2179 C2183 1.400 . S
C2180 H2165 0.960 . S
C2180 H2166 0.960 . S
C2180 H2167 0.960 . S
C2180 C2179 1.524 . S
C2181 C2178 1.403 . S
C2181 C2182 1.392 . S
C2181 C2185 1.495 . S
C2182 C2181 1.392 . S
C2182 C2183 1.385 . S
C2182 C2184 1.478 . S
C2183 H2177 0.930 . S
C2183 C2179 1.400 . S
C2183 C2182 1.385 . S
C2184 C2182 1.478 . S
C2184 C2186 1.381 . S
C2184 C2190 1.383 . S
C2185 C2181 1.495 . S
C2185 H2191 0.959 . S
C2185 H2192 0.961 . S
C2185 H2193 0.960 . S
C2186 C2184 1.381 . S
C2186 C2187 1.394 . S
C2186 H2194 0.930 . S
C2187 C2186 1.394 . S
C2187 C2188 1.383 . S
C2187 H2195 0.929 . S
C2188 C2187 1.383 . S
C2188 C2189 1.377 . S
C2189 H2173 0.930 . S
C2189 C2188 1.377 . S
C2189 C2190 1.379 . S
C2190 H2174 0.931 . S
C2190 C2184 1.383 . S
C2190 C2189 1.379 . S
H2191 C2185 0.959 . S
H2192 C2185 0.961 . S
H2193 C2185 0.960 . S
H2194 C2186 0.930 . S
H2195 C2187 0.929 . S
H2196 C2204 0.929 . S
H2197 C2206 0.930 . S
H2198 C2208 0.930 . S
H2199 C2211 0.929 . S
H2200 C2214 0.930 . S
H2201 C2216 0.960 . S
H2202 C2216 0.960 . S
H2203 C2216 0.960 . S
C2204 H2196 0.929 . S
C2204 C2205 1.377 . S
C2204 C2206 1.384 . S
C2205 C2204 1.377 . S
C2205 C2211 1.390 . S
C2206 H2197 0.930 . S
C2206 C2204 1.384 . S
C2206 C2207 1.372 . S
C2207 C2206 1.372 . S
C2207 C2208 1.400 . S
C2207 C2212 1.490 . S
C2208 H2198 0.930 . S
C2208 C2207 1.400 . S
C2208 C2211 1.386 . S
H2209 C2225 0.930 . S
H2210 C2226 0.931 . S
C2211 H2199 0.929 . S
C2211 C2205 1.390 . S
C2211 C2208 1.386 . S
C2212 C2207 1.490 . S
C2212 C2214 1.395 . S
C2212 C2215 1.403 . S
H2213 C2219 0.930 . S
C2214 H2200 0.930 . S
C2214 C2212 1.395 . S
C2214 C2217 1.403 . S
C2215 C2212 1.403 . S
C2215 C2216 1.524 . S
C2215 C2219 1.400 . S
C2216 H2201 0.960 . S
C2216 H2202 0.960 . S
C2216 H2203 0.960 . S
C2216 C2215 1.524 . S
C2217 C2214 1.403 . S
C2217 C2218 1.392 . S
C2217 C2221 1.495 . S
C2218 C2217 1.392 . S
C2218 C2219 1.385 . S
C2218 C2220 1.478 . S
C2219 H2213 0.930 . S
C2219 C2215 1.400 . S
C2219 C2218 1.385 . S
C2220 C2218 1.478 . S
C2220 C2222 1.381 . S
C2220 C2226 1.383 . S
C2221 C2217 1.495 . S
C2221 H2227 0.959 . S
C2221 H2228 0.961 . S
C2221 H2229 0.960 . S
C2222 C2220 1.381 . S
C2222 C2223 1.394 . S
C2222 H2230 0.930 . S
C2223 C2222 1.394 . S
C2223 C2224 1.383 . S
C2223 H2231 0.929 . S
C2224 C2223 1.383 . S
C2224 C2225 1.377 . S
C2225 H2209 0.930 . S
C2225 C2224 1.377 . S
C2225 C2226 1.379 . S
C2226 H2210 0.931 . S
C2226 C2220 1.383 . S
C2226 C2225 1.379 . S
H2227 C2221 0.959 . S
H2228 C2221 0.961 . S
H2229 C2221 0.960 . S
H2230 C2222 0.930 . S
H2231 C2223 0.929 . S
H2232 C2240 0.929 . S
H2233 C2242 0.930 . S
H2234 C2244 0.930 . S
H2235 C2247 0.929 . S
H2236 C2250 0.930 . S
H2237 C2252 0.960 . S
H2238 C2252 0.960 . S
H2239 C2252 0.960 . S
C2240 H2232 0.929 . S
C2240 C2241 1.377 . S
C2240 C2242 1.384 . S
C2241 C2240 1.377 . S
C2241 C2247 1.390 1_556 S
C2242 H2233 0.930 . S
C2242 C2240 1.384 . S
C2242 C2243 1.372 1_556 S
C2243 C2242 1.372 1_554 S
C2243 C2244 1.400 . S
C2243 C2248 1.490 . S
C2244 H2234 0.930 . S
C2244 C2243 1.400 . S
C2244 C2247 1.386 . S
H2245 C2261 0.930 . S
H2246 C2262 0.931 . S
C2247 H2235 0.929 . S
C2247 C2241 1.390 1_554 S
C2247 C2244 1.386 . S
C2248 C2243 1.490 . S
C2248 C2250 1.395 1_554 S
C2248 C2251 1.403 . S
H2249 C2255 0.930 . S
C2250 H2236 0.930 . S
C2250 C2248 1.395 1_556 S
C2250 C2253 1.403 . S
C2251 C2248 1.403 . S
C2251 C2252 1.524 . S
C2251 C2255 1.400 . S
C2252 H2237 0.960 . S
C2252 H2238 0.960 . S
C2252 H2239 0.960 . S
C2252 C2251 1.524 . S
C2253 C2250 1.403 . S
C2253 C2254 1.392 1_556 S
C2253 C2257 1.495 . S
C2254 C2253 1.392 1_554 S
C2254 C2255 1.385 . S
C2254 C2256 1.478 . S
C2255 H2249 0.930 . S
C2255 C2251 1.400 . S
C2255 C2254 1.385 . S
C2256 C2254 1.478 . S
C2256 C2258 1.381 . S
C2256 C2262 1.383 . S
C2257 C2253 1.495 . S
C2257 H2263 0.959 . S
C2257 H2264 0.961 . S
C2257 H2265 0.960 . S
C2258 C2256 1.381 . S
C2258 C2259 1.394 1_565 S
C2258 H2266 0.922 1_564 S
C2259 C2258 1.394 1_545 S
C2259 C2260 1.383 1_545 S
C2259 H2267 0.929 . S
C2260 C2259 1.383 1_565 S
C2260 C2261 1.377 . S
C2261 H2245 0.930 . S
C2261 C2260 1.377 . S
C2261 C2262 1.379 . S
C2262 H2246 0.931 . S
C2262 C2256 1.383 . S
C2262 C2261 1.379 . S
H2263 C2257 0.959 . S
H2264 C2257 0.961 . S
H2265 C2257 0.960 . S
H2266 C2258 0.922 1_546 S
H2267 C2259 0.929 . S
H2268 C2276 0.929 . S
H2269 C2278 0.930 . S
H2270 C2280 0.930 . S
H2271 C2283 0.929 . S
H2272 C2286 0.930 . S
H2273 C2288 0.960 . S
H2274 C2288 0.960 . S
H2275 C2288 0.960 1_554 S
C2276 H2268 0.929 . S
C2276 C2277 1.377 1_556 S
C2276 C2278 1.384 . S
C2277 C2276 1.377 1_554 S
C2277 C2283 1.390 . S
C2278 H2269 0.930 . S
C2278 C2276 1.384 . S
C2278 C2279 1.372 1_556 S
C2279 C2278 1.372 1_554 S
C2279 C2280 1.400 . S
C2279 C2284 1.490 . S
C2280 H2270 0.930 . S
C2280 C2279 1.400 . S
C2280 C2283 1.386 . S
H2281 C2297 0.930 . S
H2282 C2298 0.931 . S
C2283 H2271 0.929 . S
C2283 C2277 1.390 . S
C2283 C2280 1.386 . S
C2284 C2279 1.490 . S
C2284 C2286 1.395 . S
C2284 C2287 1.403 . S
H2285 C2291 0.930 . S
C2286 H2272 0.930 . S
C2286 C2284 1.395 . S
C2286 C2289 1.403 . S
C2287 C2284 1.403 . S
C2287 C2288 1.524 1_554 S
C2287 C2291 1.400 . S
C2288 H2273 0.960 . S
C2288 H2274 0.960 . S
C2288 H2275 0.960 1_556 S
C2288 C2287 1.524 1_556 S
C2289 C2286 1.403 . S
C2289 C2290 1.392 . S
C2289 C2293 1.495 . S
C2290 C2289 1.392 . S
C2290 C2291 1.385 . S
C2290 C2292 1.478 . S
C2291 H2285 0.930 . S
C2291 C2287 1.400 . S
C2291 C2290 1.385 . S
C2292 C2290 1.478 . S
C2292 C2294 1.381 . S
C2292 C2298 1.383 . S
C2293 C2289 1.495 . S
C2293 H2299 0.959 . S
C2293 H2300 0.961 . S
C2293 H2301 0.960 . S
C2294 C2292 1.381 . S
C2294 C2295 1.394 . S
C2294 H2302 0.930 1_554 S
C2295 C2294 1.394 . S
C2295 C2296 1.383 . S
C2295 H2303 0.929 1_554 S
C2296 C2295 1.383 . S
C2296 C2297 1.377 . S
C2297 H2281 0.930 . S
C2297 C2296 1.377 . S
C2297 C2298 1.379 . S
C2298 H2282 0.931 . S
C2298 C2292 1.383 . S
C2298 C2297 1.379 . S
H2299 C2293 0.959 . S
H2300 C2293 0.961 . S
H2301 C2293 0.960 . S
H2302 C2294 0.930 1_556 S
H2303 C2295 0.929 1_556 S
H2304 C2312 0.929 . S
H2305 C2314 0.930 . S
H2306 C2316 0.930 . S
H2307 C2319 0.929 . S
H2308 C2322 0.930 . S
H2309 C2324 0.960 . S
H2310 C2324 0.960 . S
H2311 C2324 0.960 . S
C2312 H2304 0.929 . S
C2312 C2313 1.377 . S
C2312 C2314 1.384 . S
C2313 C2312 1.377 . S
C2313 C2319 1.390 . S
C2314 H2305 0.930 . S
C2314 C2312 1.384 . S
C2314 C2315 1.372 . S
C2315 C2314 1.372 . S
C2315 C2316 1.400 . S
C2315 C2320 1.490 . S
C2316 H2306 0.930 . S
C2316 C2315 1.400 . S
C2316 C2319 1.386 . S
H2317 C2333 0.930 . S
H2318 C2334 0.931 . S
C2319 H2307 0.929 . S
C2319 C2313 1.390 . S
C2319 C2316 1.386 . S
C2320 C2315 1.490 . S
C2320 C2322 1.395 . S
C2320 C2323 1.403 . S
H2321 C2327 0.930 . S
C2322 H2308 0.930 . S
C2322 C2320 1.395 . S
C2322 C2325 1.403 . S
C2323 C2320 1.403 . S
C2323 C2324 1.524 . S
C2323 C2327 1.400 . S
C2324 H2309 0.960 . S
C2324 H2310 0.960 . S
C2324 H2311 0.960 . S
C2324 C2323 1.524 . S
C2325 C2322 1.403 . S
C2325 C2326 1.392 . S
C2325 C2329 1.495 . S
C2326 C2325 1.392 . S
C2326 C2327 1.385 . S
C2326 C2328 1.478 . S
C2327 H2321 0.930 . S
C2327 C2323 1.400 . S
C2327 C2326 1.385 . S
C2328 C2326 1.478 . S
C2328 C2330 1.381 . S
C2328 C2334 1.383 . S
C2329 C2325 1.495 . S
C2329 H2335 0.959 . S
C2329 H2336 0.961 . S
C2329 H2337 0.960 . S
C2330 C2328 1.381 . S
C2330 C2331 1.394 . S
C2330 H2338 0.930 . S
C2331 C2330 1.394 . S
C2331 C2332 1.383 . S
C2331 H2339 0.929 . S
C2332 C2331 1.383 . S
C2332 C2333 1.377 . S
C2333 H2317 0.930 . S
C2333 C2332 1.377 . S
C2333 C2334 1.379 . S
C2334 H2318 0.931 . S
C2334 C2328 1.383 . S
C2334 C2333 1.379 . S
H2335 C2329 0.959 . S
H2336 C2329 0.961 . S
H2337 C2329 0.960 . S
H2338 C2330 0.930 . S
H2339 C2331 0.929 . S
H2340 C2348 0.929 . S
H2341 C2350 0.930 . S
H2342 C2352 0.930 . S
H2343 C2355 0.929 . S
H2344 C2358 0.930 . S
H2345 C2360 0.960 . S
H2346 C2360 0.960 . S
H2347 C2360 0.960 . S
C2348 H2340 0.929 . S
C2348 C2349 1.377 . S
C2348 C2350 1.384 . S
C2349 C2348 1.377 . S
C2349 C2355 1.390 . S
C2350 H2341 0.930 . S
C2350 C2348 1.384 . S
C2350 C2351 1.372 . S
C2351 C2350 1.372 . S
C2351 C2352 1.400 . S
C2351 C2356 1.490 . S
C2352 H2342 0.930 . S
C2352 C2351 1.400 . S
C2352 C2355 1.386 . S
H2353 C2369 0.930 . S
H2354 C2370 0.931 . S
C2355 H2343 0.929 . S
C2355 C2349 1.390 . S
C2355 C2352 1.386 . S
C2356 C2351 1.490 . S
C2356 C2358 1.395 . S
C2356 C2359 1.403 . S
H2357 C2363 0.930 . S
C2358 H2344 0.930 . S
C2358 C2356 1.395 . S
C2358 C2361 1.403 . S
C2359 C2356 1.403 . S
C2359 C2360 1.524 . S
C2359 C2363 1.400 . S
C2360 H2345 0.960 . S
C2360 H2346 0.960 . S
C2360 H2347 0.960 . S
C2360 C2359 1.524 . S
C2361 C2358 1.403 . S
C2361 C2362 1.392 . S
C2361 C2365 1.495 . S
C2362 C2361 1.392 . S
C2362 C2363 1.385 . S
C2362 C2364 1.478 . S
C2363 H2357 0.930 . S
C2363 C2359 1.400 . S
C2363 C2362 1.385 . S
C2364 C2362 1.478 . S
C2364 C2366 1.381 . S
C2364 C2370 1.383 . S
C2365 C2361 1.495 . S
C2365 H2371 0.959 . S
C2365 H2372 0.961 . S
C2365 H2373 0.960 . S
C2366 C2364 1.381 . S
C2366 C2367 1.394 . S
C2366 H2374 0.930 . S
C2367 C2366 1.394 . S
C2367 C2368 1.383 . S
C2367 H2375 0.929 . S
C2368 C2367 1.383 . S
C2368 C2369 1.377 . S
C2369 H2353 0.930 . S
C2369 C2368 1.377 . S
C2369 C2370 1.379 . S
C2370 H2354 0.931 . S
C2370 C2364 1.383 . S
C2370 C2369 1.379 . S
H2371 C2365 0.959 . S
H2372 C2365 0.961 . S
H2373 C2365 0.960 . S
H2374 C2366 0.930 . S
H2375 C2367 0.929 . S
H2376 C2384 0.929 . S
H2377 C2386 0.930 . S
H2378 C2388 0.930 . S
H2379 C2391 0.929 . S
H2380 C2394 0.930 . S
H2381 C2396 0.960 . S
H2382 C2396 0.960 . S
H2383 C2396 0.960 . S
C2384 H2376 0.929 . S
C2384 C2385 1.377 . S
C2384 C2386 1.384 . S
C2385 C2384 1.377 . S
C2385 C2391 1.390 . S
C2386 H2377 0.930 . S
C2386 C2384 1.384 . S
C2386 C2387 1.372 . S
C2387 C2386 1.372 . S
C2387 C2388 1.400 . S
C2387 C2392 1.490 . S
C2388 H2378 0.930 . S
C2388 C2387 1.400 . S
C2388 C2391 1.386 . S
H2389 C2405 0.930 . S
H2390 C2406 0.931 . S
C2391 H2379 0.929 . S
C2391 C2385 1.390 . S
C2391 C2388 1.386 . S
C2392 C2387 1.490 . S
C2392 C2394 1.395 . S
C2392 C2395 1.403 . S
H2393 C2399 0.930 . S
C2394 H2380 0.930 . S
C2394 C2392 1.395 . S
C2394 C2397 1.403 . S
C2395 C2392 1.403 . S
C2395 C2396 1.524 . S
C2395 C2399 1.400 . S
C2396 H2381 0.960 . S
C2396 H2382 0.960 . S
C2396 H2383 0.960 . S
C2396 C2395 1.524 . S
C2397 C2394 1.403 . S
C2397 C2398 1.392 . S
C2397 C2401 1.495 . S
C2398 C2397 1.392 . S
C2398 C2399 1.385 . S
C2398 C2400 1.478 . S
C2399 H2393 0.930 . S
C2399 C2395 1.400 . S
C2399 C2398 1.385 . S
C2400 C2398 1.478 . S
C2400 C2402 1.381 . S
C2400 C2406 1.383 . S
C2401 C2397 1.495 . S
C2401 H2407 0.959 . S
C2401 H2408 0.961 . S
C2401 H2409 0.960 . S
C2402 C2400 1.381 . S
C2402 C2403 1.394 . S
C2402 H2410 0.930 . S
C2403 C2402 1.394 . S
C2403 C2404 1.383 . S
C2403 H2411 0.929 . S
C2404 C2403 1.383 . S
C2404 C2405 1.377 . S
C2405 H2389 0.930 . S
C2405 C2404 1.377 . S
C2405 C2406 1.379 . S
C2406 H2390 0.931 . S
C2406 C2400 1.383 . S
C2406 C2405 1.379 . S
H2407 C2401 0.959 . S
H2408 C2401 0.961 . S
H2409 C2401 0.960 . S
H2410 C2402 0.930 . S
H2411 C2403 0.929 . S
H2412 C2420 0.929 . S
H2413 C2422 0.930 . S
H2414 C2424 0.930 . S
H2415 C2427 0.929 . S
H2416 C2430 0.930 . S
H2417 C2432 0.960 . S
H2418 C2432 0.960 . S
H2419 C2432 0.960 . S
C2420 H2412 0.929 . S
C2420 C2421 1.377 . S
C2420 C2422 1.384 . S
C2421 C2420 1.377 . S
C2421 C2427 1.390 . S
C2422 H2413 0.930 . S
C2422 C2420 1.384 . S
C2422 C2423 1.372 . S
C2423 C2422 1.372 . S
C2423 C2424 1.400 . S
C2423 C2428 1.490 . S
C2424 H2414 0.930 . S
C2424 C2423 1.400 . S
C2424 C2427 1.386 . S
H2425 C2441 0.930 . S
H2426 C2442 0.931 . S
C2427 H2415 0.929 . S
C2427 C2421 1.390 . S
C2427 C2424 1.386 . S
C2428 C2423 1.490 . S
C2428 C2430 1.395 . S
C2428 C2431 1.403 . S
H2429 C2435 0.930 . S
C2430 H2416 0.930 . S
C2430 C2428 1.395 . S
C2430 C2433 1.403 . S
C2431 C2428 1.403 . S
C2431 C2432 1.524 . S
C2431 C2435 1.400 . S
C2432 H2417 0.960 . S
C2432 H2418 0.960 . S
C2432 H2419 0.960 . S
C2432 C2431 1.524 . S
C2433 C2430 1.403 . S
C2433 C2434 1.392 . S
C2433 C2437 1.495 . S
C2434 C2433 1.392 . S
C2434 C2435 1.385 . S
C2434 C2436 1.478 . S
C2435 H2429 0.930 . S
C2435 C2431 1.400 . S
C2435 C2434 1.385 . S
C2436 C2434 1.478 . S
C2436 C2438 1.381 . S
C2436 C2442 1.383 . S
C2437 C2433 1.495 . S
C2437 H2443 0.959 . S
C2437 H2444 0.961 . S
C2437 H2445 0.960 . S
C2438 C2436 1.381 . S
C2438 C2439 1.394 . S
C2438 H2446 0.930 . S
C2439 C2438 1.394 . S
C2439 C2440 1.383 . S
C2439 H2447 0.929 . S
C2440 C2439 1.383 . S
C2440 C2441 1.377 . S
C2441 H2425 0.930 . S
C2441 C2440 1.377 . S
C2441 C2442 1.379 . S
C2442 H2426 0.931 . S
C2442 C2436 1.383 . S
C2442 C2441 1.379 . S
H2443 C2437 0.959 . S
H2444 C2437 0.961 . S
H2445 C2437 0.960 . S
H2446 C2438 0.930 . S
H2447 C2439 0.929 . S
H2448 C2456 0.929 . S
H2449 C2458 0.930 . S
H2450 C2460 0.930 . S
H2451 C2463 0.929 . S
H2452 C2466 0.930 . S
H2453 C2468 0.960 . S
H2454 C2468 0.960 . S
H2455 C2468 0.960 . S
C2456 H2448 0.929 . S
C2456 C2457 1.377 . S
C2456 C2458 1.384 . S
C2457 C2456 1.377 . S
C2457 C2463 1.390 . S
C2458 H2449 0.930 . S
C2458 C2456 1.384 . S
C2458 C2459 1.372 . S
C2459 C2458 1.372 . S
C2459 C2460 1.400 . S
C2459 C2464 1.490 . S
C2460 H2450 0.930 . S
C2460 C2459 1.400 . S
C2460 C2463 1.386 . S
H2461 C2477 0.930 . S
H2462 C2478 0.931 . S
C2463 H2451 0.929 . S
C2463 C2457 1.390 . S
C2463 C2460 1.386 . S
C2464 C2459 1.490 . S
C2464 C2466 1.395 . S
C2464 C2467 1.403 . S
H2465 C2471 0.930 . S
C2466 H2452 0.930 . S
C2466 C2464 1.395 . S
C2466 C2469 1.403 . S
C2467 C2464 1.403 . S
C2467 C2468 1.524 . S
C2467 C2471 1.400 . S
C2468 H2453 0.960 . S
C2468 H2454 0.960 . S
C2468 H2455 0.960 . S
C2468 C2467 1.524 . S
C2469 C2466 1.403 . S
C2469 C2470 1.392 . S
C2469 C2473 1.495 . S
C2470 C2469 1.392 . S
C2470 C2471 1.385 . S
C2470 C2472 1.478 . S
C2471 H2465 0.930 . S
C2471 C2467 1.400 . S
C2471 C2470 1.385 . S
C2472 C2470 1.478 . S
C2472 C2474 1.381 . S
C2472 C2478 1.383 . S
C2473 C2469 1.495 . S
C2473 H2479 0.959 . S
C2473 H2480 0.961 . S
C2473 H2481 0.960 . S
C2474 C2472 1.381 . S
C2474 C2475 1.394 . S
C2474 H2482 0.930 . S
C2475 C2474 1.394 . S
C2475 C2476 1.383 . S
C2475 H2483 0.929 . S
C2476 C2475 1.383 . S
C2476 C2477 1.377 . S
C2477 H2461 0.930 . S
C2477 C2476 1.377 . S
C2477 C2478 1.379 . S
C2478 H2462 0.931 . S
C2478 C2472 1.383 . S
C2478 C2477 1.379 . S
H2479 C2473 0.959 . S
H2480 C2473 0.961 . S
H2481 C2473 0.960 . S
H2482 C2474 0.930 . S
H2483 C2475 0.929 . S
H2484 C2492 0.929 . S
H2485 C2494 0.930 . S
H2486 C2496 0.930 . S
H2487 C2499 0.929 . S
H2488 C2502 0.930 . S
H2489 C2504 0.960 . S
H2490 C2504 0.960 . S
H2491 C2504 0.960 . S
C2492 H2484 0.929 . S
C2492 C2493 1.377 . S
C2492 C2494 1.384 . S
C2493 C2492 1.377 . S
C2493 C2499 1.390 . S
C2494 H2485 0.930 . S
C2494 C2492 1.384 . S
C2494 C2495 1.372 . S
C2495 C2494 1.372 . S
C2495 C2496 1.400 . S
C2495 C2500 1.490 . S
C2496 H2486 0.930 . S
C2496 C2495 1.400 . S
C2496 C2499 1.386 . S
H2497 C2513 0.930 . S
H2498 C2514 0.931 . S
C2499 H2487 0.929 . S
C2499 C2493 1.390 . S
C2499 C2496 1.386 . S
C2500 C2495 1.490 . S
C2500 C2502 1.395 . S
C2500 C2503 1.403 . S
H2501 C2507 0.930 . S
C2502 H2488 0.930 . S
C2502 C2500 1.395 . S
C2502 C2505 1.403 . S
C2503 C2500 1.403 . S
C2503 C2504 1.524 . S
C2503 C2507 1.400 . S
C2504 H2489 0.960 . S
C2504 H2490 0.960 . S
C2504 H2491 0.960 . S
C2504 C2503 1.524 . S
C2505 C2502 1.403 . S
C2505 C2506 1.392 . S
C2505 C2509 1.495 . S
C2506 C2505 1.392 . S
C2506 C2507 1.385 . S
C2506 C2508 1.478 . S
C2507 H2501 0.930 . S
C2507 C2503 1.400 . S
C2507 C2506 1.385 . S
C2508 C2506 1.478 . S
C2508 C2510 1.381 . S
C2508 C2514 1.383 . S
C2509 C2505 1.495 . S
C2509 H2515 0.959 . S
C2509 H2516 0.961 . S
C2509 H2517 0.960 . S
C2510 C2508 1.381 . S
C2510 C2511 1.394 . S
C2510 H2518 0.930 . S
C2511 C2510 1.394 . S
C2511 C2512 1.383 . S
C2511 H2519 0.929 . S
C2512 C2511 1.383 . S
C2512 C2513 1.377 . S
C2513 H2497 0.930 . S
C2513 C2512 1.377 . S
C2513 C2514 1.379 . S
C2514 H2498 0.931 . S
C2514 C2508 1.383 . S
C2514 C2513 1.379 . S
H2515 C2509 0.959 . S
H2516 C2509 0.961 . S
H2517 C2509 0.960 . S
H2518 C2510 0.930 . S
H2519 C2511 0.929 . S
H2520 C2528 0.929 . S
H2521 C2530 0.930 . S
H2522 C2532 0.930 . S
H2523 C2535 0.929 . S
H2524 C2538 0.930 . S
H2525 C2540 0.960 . S
H2526 C2540 0.960 . S
H2527 C2540 0.960 . S
C2528 H2520 0.929 . S
C2528 C2529 1.377 . S
C2528 C2530 1.384 . S
C2529 C2528 1.377 . S
C2529 C2535 1.390 . S
C2530 H2521 0.930 . S
C2530 C2528 1.384 . S
C2530 C2531 1.372 . S
C2531 C2530 1.372 . S
C2531 C2532 1.400 . S
C2531 C2536 1.490 . S
C2532 H2522 0.930 . S
C2532 C2531 1.400 . S
C2532 C2535 1.386 . S
H2533 C2549 0.930 . S
H2534 C2550 0.931 . S
C2535 H2523 0.929 . S
C2535 C2529 1.390 . S
C2535 C2532 1.386 . S
C2536 C2531 1.490 . S
C2536 C2538 1.395 . S
C2536 C2539 1.403 . S
H2537 C2543 0.930 . S
C2538 H2524 0.930 . S
C2538 C2536 1.395 . S
C2538 C2541 1.403 . S
C2539 C2536 1.403 . S
C2539 C2540 1.524 . S
C2539 C2543 1.400 . S
C2540 H2525 0.960 . S
C2540 H2526 0.960 . S
C2540 H2527 0.960 . S
C2540 C2539 1.524 . S
C2541 C2538 1.403 . S
C2541 C2542 1.392 . S
C2541 C2545 1.495 1_455 S
C2542 C2541 1.392 . S
C2542 C2543 1.385 . S
C2542 C2544 1.478 . S
C2543 H2537 0.930 . S
C2543 C2539 1.400 . S
C2543 C2542 1.385 . S
C2544 C2542 1.478 . S
C2544 C2546 1.381 . S
C2544 C2550 1.383 . S
C2545 C2541 1.495 1_655 S
C2545 H2551 0.959 . S
C2545 H2552 0.961 . S
C2545 H2553 0.967 . S
C2546 C2544 1.381 . S
C2546 C2547 1.394 . S
C2546 H2554 0.930 . S
C2547 C2546 1.394 . S
C2547 C2548 1.383 . S
C2547 H2555 0.929 . S
C2548 C2547 1.383 . S
C2548 C2549 1.377 . S
C2549 H2533 0.930 . S
C2549 C2548 1.377 . S
C2549 C2550 1.379 . S
C2550 H2534 0.931 . S
C2550 C2544 1.383 . S
C2550 C2549 1.379 . S
H2551 C2545 0.959 . S
H2552 C2545 0.961 . S
H2553 C2545 0.967 . S
H2554 C2546 0.930 . S
H2555 C2547 0.929 . S
H2556 C2564 0.929 . S
H2557 C2566 0.930 . S
H2558 C2568 0.930 . S
H2559 C2571 0.929 . S
H2560 C2574 0.930 . S
H2561 C2576 0.960 . S
H2562 C2576 0.960 . S
H2563 C2576 0.960 . S
C2564 H2556 0.929 . S
C2564 C2565 1.377 . S
C2564 C2566 1.384 . S
C2565 C2564 1.377 . S
C2565 C2571 1.390 . S
C2566 H2557 0.930 . S
C2566 C2564 1.384 . S
C2566 C2567 1.372 . S
C2567 C2566 1.372 . S
C2567 C2568 1.400 . S
C2567 C2572 1.490 . S
C2568 H2558 0.930 . S
C2568 C2567 1.400 . S
C2568 C2571 1.386 . S
H2569 C2585 0.930 . S
H2570 C2586 0.931 . S
C2571 H2559 0.929 . S
C2571 C2565 1.390 . S
C2571 C2568 1.386 . S
C2572 C2567 1.490 . S
C2572 C2574 1.395 . S
C2572 C2575 1.403 . S
H2573 C2579 0.930 . S
C2574 H2560 0.930 . S
C2574 C2572 1.395 . S
C2574 C2577 1.403 . S
C2575 C2572 1.403 . S
C2575 C2576 1.524 . S
C2575 C2579 1.400 . S
C2576 H2561 0.960 . S
C2576 H2562 0.960 . S
C2576 H2563 0.960 . S
C2576 C2575 1.524 . S
C2577 C2574 1.403 . S
C2577 C2578 1.392 . S
C2577 C2581 1.495 . S
C2578 C2577 1.392 . S
C2578 C2579 1.385 . S
C2578 C2580 1.478 . S
C2579 H2573 0.930 . S
C2579 C2575 1.400 . S
C2579 C2578 1.385 . S
C2580 C2578 1.478 . S
C2580 C2582 1.381 . S
C2580 C2586 1.383 . S
C2581 C2577 1.495 . S
C2581 H2587 0.959 . S
C2581 H2588 0.961 . S
C2581 H2589 0.960 . S
C2582 C2580 1.381 . S
C2582 C2583 1.394 . S
C2582 H2590 0.930 . S
C2583 C2582 1.394 . S
C2583 C2584 1.383 . S
C2583 H2591 0.929 . S
C2584 C2583 1.383 . S
C2584 C2585 1.377 . S
C2585 H2569 0.930 . S
C2585 C2584 1.377 . S
C2585 C2586 1.379 . S
C2586 H2570 0.931 . S
C2586 C2580 1.383 . S
C2586 C2585 1.379 . S
H2587 C2581 0.959 . S
H2588 C2581 0.961 . S
H2589 C2581 0.960 . S
H2590 C2582 0.930 . S
H2591 C2583 0.929 . S
H2592 C2600 0.929 . S
H2593 C2602 0.930 . S
H2594 C2604 0.930 . S
H2595 C2607 0.929 . S
H2596 C2610 0.930 . S
H2597 C2612 0.960 . S
H2598 C2612 0.960 . S
H2599 C2612 0.960 . S
C2600 H2592 0.929 . S
C2600 C2601 1.377 . S
C2600 C2602 1.384 . S
C2601 C2600 1.377 . S
C2601 C2607 1.390 . S
C2602 H2593 0.930 . S
C2602 C2600 1.384 . S
C2602 C2603 1.372 . S
C2603 C2602 1.372 . S
C2603 C2604 1.400 . S
C2603 C2608 1.490 . S
C2604 H2594 0.930 . S
C2604 C2603 1.400 . S
C2604 C2607 1.386 . S
H2605 C2621 0.930 . S
H2606 C2622 0.931 . S
C2607 H2595 0.929 . S
C2607 C2601 1.390 . S
C2607 C2604 1.386 . S
C2608 C2603 1.490 . S
C2608 C2610 1.395 . S
C2608 C2611 1.403 . S
H2609 C2615 0.930 . S
C2610 H2596 0.930 . S
C2610 C2608 1.395 . S
C2610 C2613 1.403 . S
C2611 C2608 1.403 . S
C2611 C2612 1.524 . S
C2611 C2615 1.400 . S
C2612 H2597 0.960 . S
C2612 H2598 0.960 . S
C2612 H2599 0.960 . S
C2612 C2611 1.524 . S
C2613 C2610 1.403 . S
C2613 C2614 1.392 . S
C2613 C2617 1.495 . S
C2614 C2613 1.392 . S
C2614 C2615 1.385 . S
C2614 C2616 1.478 . S
C2615 H2609 0.930 . S
C2615 C2611 1.400 . S
C2615 C2614 1.385 . S
C2616 C2614 1.478 . S
C2616 C2618 1.381 . S
C2616 C2622 1.383 . S
C2617 C2613 1.495 . S
C2617 H2623 0.959 . S
C2617 H2624 0.961 . S
C2617 H2625 0.960 . S
C2618 C2616 1.381 . S
C2618 C2619 1.394 . S
C2618 H2626 0.930 . S
C2619 C2618 1.394 . S
C2619 C2620 1.383 . S
C2619 H2627 0.929 . S
C2620 C2619 1.383 . S
C2620 C2621 1.377 . S
C2621 H2605 0.930 . S
C2621 C2620 1.377 . S
C2621 C2622 1.379 . S
C2622 H2606 0.931 . S
C2622 C2616 1.383 . S
C2622 C2621 1.379 . S
H2623 C2617 0.959 . S
H2624 C2617 0.961 . S
H2625 C2617 0.960 . S
H2626 C2618 0.930 . S
H2627 C2619 0.929 . S
H2628 C2636 0.929 . S
H2629 C2638 0.930 . S
H2630 C2640 0.930 . S
H2631 C2643 0.929 . S
H2632 C2646 0.930 . S
H2633 C2648 0.960 . S
H2634 C2648 0.960 . S
H2635 C2648 0.960 . S
C2636 H2628 0.929 . S
C2636 C2637 1.377 . S
C2636 C2638 1.384 . S
C2637 C2636 1.377 . S
C2637 C2643 1.390 . S
C2638 H2629 0.930 . S
C2638 C2636 1.384 . S
C2638 C2639 1.372 . S
C2639 C2638 1.372 . S
C2639 C2640 1.400 . S
C2639 C2644 1.490 . S
C2640 H2630 0.930 . S
C2640 C2639 1.400 . S
C2640 C2643 1.386 . S
H2641 C2657 0.930 . S
H2642 C2658 0.931 . S
C2643 H2631 0.929 . S
C2643 C2637 1.390 . S
C2643 C2640 1.386 . S
C2644 C2639 1.490 . S
C2644 C2646 1.395 . S
C2644 C2647 1.403 . S
H2645 C2651 0.930 . S
C2646 H2632 0.930 . S
C2646 C2644 1.395 . S
C2646 C2649 1.403 . S
C2647 C2644 1.403 . S
C2647 C2648 1.524 . S
C2647 C2651 1.400 . S
C2648 H2633 0.960 . S
C2648 H2634 0.960 . S
C2648 H2635 0.960 . S
C2648 C2647 1.524 . S
C2649 C2646 1.403 . S
C2649 C2650 1.392 . S
C2649 C2653 1.495 . S
C2650 C2649 1.392 . S
C2650 C2651 1.385 . S
C2650 C2652 1.478 . S
C2651 H2645 0.930 . S
C2651 C2647 1.400 . S
C2651 C2650 1.385 . S
C2652 C2650 1.478 . S
C2652 C2654 1.381 . S
C2652 C2658 1.383 . S
C2653 C2649 1.495 . S
C2653 H2659 0.959 . S
C2653 H2660 0.961 . S
C2653 H2661 0.960 . S
C2654 C2652 1.381 . S
C2654 C2655 1.394 . S
C2654 H2662 0.930 . S
C2655 C2654 1.394 . S
C2655 C2656 1.383 . S
C2655 H2663 0.929 . S
C2656 C2655 1.383 . S
C2656 C2657 1.377 . S
C2657 H2641 0.930 . S
C2657 C2656 1.377 . S
C2657 C2658 1.379 . S
C2658 H2642 0.931 . S
C2658 C2652 1.383 . S
C2658 C2657 1.379 . S
H2659 C2653 0.959 . S
H2660 C2653 0.961 . S
H2661 C2653 0.960 . S
H2662 C2654 0.930 . S
H2663 C2655 0.929 . S
H2664 C2672 0.929 . S
H2665 C2674 0.930 . S
H2666 C2676 0.930 . S
H2667 C2679 0.929 . S
H2668 C2682 0.930 . S
H2669 C2684 0.960 . S
H2670 C2684 0.960 . S
H2671 C2684 0.960 . S
C2672 H2664 0.929 . S
C2672 C2673 1.377 . S
C2672 C2674 1.384 . S
C2673 C2672 1.377 . S
C2673 C2679 1.390 . S
C2674 H2665 0.930 . S
C2674 C2672 1.384 . S
C2674 C2675 1.372 . S
C2675 C2674 1.372 . S
C2675 C2676 1.400 . S
C2675 C2680 1.490 . S
C2676 H2666 0.930 . S
C2676 C2675 1.400 . S
C2676 C2679 1.386 . S
H2677 C2693 0.930 . S
H2678 C2694 0.931 . S
C2679 H2667 0.929 . S
C2679 C2673 1.390 . S
C2679 C2676 1.386 . S
C2680 C2675 1.490 . S
C2680 C2682 1.395 . S
C2680 C2683 1.403 . S
H2681 C2687 0.930 . S
C2682 H2668 0.930 . S
C2682 C2680 1.395 . S
C2682 C2685 1.403 . S
C2683 C2680 1.403 . S
C2683 C2684 1.524 . S
C2683 C2687 1.400 . S
C2684 H2669 0.960 . S
C2684 H2670 0.960 . S
C2684 H2671 0.960 . S
C2684 C2683 1.524 . S
C2685 C2682 1.403 . S
C2685 C2686 1.392 . S
C2685 C2689 1.495 . S
C2686 C2685 1.392 . S
C2686 C2687 1.385 . S
C2686 C2688 1.478 . S
C2687 H2681 0.930 . S
C2687 C2683 1.400 . S
C2687 C2686 1.385 . S
C2688 C2686 1.478 . S
C2688 C2690 1.381 . S
C2688 C2694 1.383 . S
C2689 C2685 1.495 . S
C2689 H2695 0.959 1_455 S
C2689 H2696 0.961 . S
C2689 H2697 0.960 1_455 S
C2690 C2688 1.381 . S
C2690 C2691 1.394 . S
C2690 H2698 0.930 1_455 S
C2691 C2690 1.394 . S
C2691 C2692 1.383 . S
C2691 H2699 0.929 1_455 S
C2692 C2691 1.383 . S
C2692 C2693 1.377 . S
C2693 H2677 0.930 . S
C2693 C2692 1.377 . S
C2693 C2694 1.379 . S
C2694 H2678 0.931 . S
C2694 C2688 1.383 . S
C2694 C2693 1.379 . S
H2695 C2689 0.959 1_655 S
H2696 C2689 0.961 . S
H2697 C2689 0.960 1_655 S
H2698 C2690 0.930 1_655 S
H2699 C2691 0.929 1_655 S
H2700 C2708 0.929 . S
H2701 C2710 0.930 . S
H2702 C2712 0.930 . S
H2703 C2715 0.929 . S
H2704 C2718 0.930 . S
H2705 C2720 0.960 . S
H2706 C2720 0.960 . S
H2707 C2720 0.960 . S
C2708 H2700 0.929 . S
C2708 C2709 1.377 . S
C2708 C2710 1.384 . S
C2709 C2708 1.377 . S
C2709 C2715 1.390 . S
C2710 H2701 0.930 . S
C2710 C2708 1.384 . S
C2710 C2711 1.372 . S
C2711 C2710 1.372 . S
C2711 C2712 1.400 . S
C2711 C2716 1.490 . S
C2712 H2702 0.930 . S
C2712 C2711 1.400 . S
C2712 C2715 1.386 . S
H2713 C2729 0.930 . S
H2714 C2730 0.931 . S
C2715 H2703 0.929 . S
C2715 C2709 1.390 . S
C2715 C2712 1.386 . S
C2716 C2711 1.490 . S
C2716 C2718 1.395 . S
C2716 C2719 1.403 . S
H2717 C2723 0.930 . S
C2718 H2704 0.930 . S
C2718 C2716 1.395 . S
C2718 C2721 1.403 . S
C2719 C2716 1.403 . S
C2719 C2720 1.524 . S
C2719 C2723 1.400 . S
C2720 H2705 0.960 . S
C2720 H2706 0.960 . S
C2720 H2707 0.960 . S
C2720 C2719 1.524 . S
C2721 C2718 1.403 . S
C2721 C2722 1.392 . S
C2721 C2725 1.495 . S
C2722 C2721 1.392 . S
C2722 C2723 1.385 . S
C2722 C2724 1.478 . S
C2723 H2717 0.930 . S
C2723 C2719 1.400 . S
C2723 C2722 1.385 . S
C2724 C2722 1.478 . S
C2724 C2726 1.381 . S
C2724 C2730 1.383 . S
C2725 C2721 1.495 . S
C2725 H2731 0.959 . S
C2725 H2732 0.961 . S
C2725 H2733 0.960 . S
C2726 C2724 1.381 . S
C2726 C2727 1.394 . S
C2726 H2734 0.930 . S
C2727 C2726 1.394 . S
C2727 C2728 1.383 . S
C2727 H2735 0.929 . S
C2728 C2727 1.383 . S
C2728 C2729 1.377 . S
C2729 H2713 0.930 . S
C2729 C2728 1.377 . S
C2729 C2730 1.379 . S
C2730 H2714 0.931 . S
C2730 C2724 1.383 . S
C2730 C2729 1.379 . S
H2731 C2725 0.959 . S
H2732 C2725 0.961 . S
H2733 C2725 0.960 . S
H2734 C2726 0.930 . S
H2735 C2727 0.929 . S
H2736 C2744 0.929 . S
H2737 C2746 0.930 . S
H2738 C2748 0.930 . S
H2739 C2751 0.929 . S
H2740 C2754 0.930 . S
H2741 C2756 0.960 . S
H2742 C2756 0.960 . S
H2743 C2756 0.960 . S
C2744 H2736 0.929 . S
C2744 C2745 1.377 . S
C2744 C2746 1.384 . S
C2745 C2744 1.377 . S
C2745 C2751 1.390 . S
C2746 H2737 0.930 . S
C2746 C2744 1.384 . S
C2746 C2747 1.372 . S
C2747 C2746 1.372 . S
C2747 C2748 1.400 . S
C2747 C2752 1.490 . S
C2748 H2738 0.930 . S
C2748 C2747 1.400 . S
C2748 C2751 1.386 . S
H2749 C2765 0.930 . S
H2750 C2766 0.931 . S
C2751 H2739 0.929 . S
C2751 C2745 1.390 . S
C2751 C2748 1.386 . S
C2752 C2747 1.490 . S
C2752 C2754 1.395 . S
C2752 C2755 1.403 . S
H2753 C2759 0.930 . S
C2754 H2740 0.930 . S
C2754 C2752 1.395 . S
C2754 C2757 1.403 . S
C2755 C2752 1.403 . S
C2755 C2756 1.524 . S
C2755 C2759 1.400 . S
C2756 H2741 0.960 . S
C2756 H2742 0.960 . S
C2756 H2743 0.960 . S
C2756 C2755 1.524 . S
C2757 C2754 1.403 . S
C2757 C2758 1.392 . S
C2757 C2761 1.495 . S
C2758 C2757 1.392 . S
C2758 C2759 1.385 . S
C2758 C2760 1.478 . S
C2759 H2753 0.930 . S
C2759 C2755 1.400 . S
C2759 C2758 1.385 . S
C2760 C2758 1.478 . S
C2760 C2762 1.381 . S
C2760 C2766 1.383 . S
C2761 C2757 1.495 . S
C2761 H2767 0.959 . S
C2761 H2768 0.961 . S
C2761 H2769 0.960 . S
C2762 C2760 1.381 . S
C2762 C2763 1.394 . S
C2762 H2770 0.930 . S
C2763 C2762 1.394 . S
C2763 C2764 1.383 . S
C2763 H2771 0.903 1_556 S
C2764 C2763 1.383 . S
C2764 C2765 1.377 . S
C2765 H2749 0.930 . S
C2765 C2764 1.377 . S
C2765 C2766 1.379 . S
C2766 H2750 0.931 . S
C2766 C2760 1.383 . S
C2766 C2765 1.379 . S
H2767 C2761 0.959 . S
H2768 C2761 0.961 . S
H2769 C2761 0.960 . S
H2770 C2762 0.930 . S
H2771 C2763 0.903 1_554 S
H2772 C2780 0.929 . S
H2773 C2782 0.930 . S
H2774 C2784 0.930 . S
H2775 C2787 0.929 . S
H2776 C2790 0.930 . S
H2777 C2792 0.960 . S
H2778 C2792 0.960 . S
H2779 C2792 0.960 . S
C2780 H2772 0.929 . S
C2780 C2781 1.377 . S
C2780 C2782 1.384 . S
C2781 C2780 1.377 . S
C2781 C2787 1.390 . S
C2782 H2773 0.930 . S
C2782 C2780 1.384 . S
C2782 C2783 1.372 . S
C2783 C2782 1.372 . S
C2783 C2784 1.400 . S
C2783 C2788 1.490 . S
C2784 H2774 0.930 . S
C2784 C2783 1.400 . S
C2784 C2787 1.386 . S
H2785 C2801 0.930 . S
H2786 C2802 0.931 . S
C2787 H2775 0.929 . S
C2787 C2781 1.390 . S
C2787 C2784 1.386 . S
C2788 C2783 1.490 . S
C2788 C2790 1.395 . S
C2788 C2791 1.403 . S
H2789 C2795 0.930 . S
C2790 H2776 0.930 . S
C2790 C2788 1.395 . S
C2790 C2793 1.403 . S
C2791 C2788 1.403 . S
C2791 C2792 1.524 . S
C2791 C2795 1.400 . S
C2792 H2777 0.960 . S
C2792 H2778 0.960 . S
C2792 H2779 0.960 . S
C2792 C2791 1.524 . S
C2793 C2790 1.403 . S
C2793 C2794 1.392 . S
C2793 C2797 1.495 . S
C2794 C2793 1.392 . S
C2794 C2795 1.385 . S
C2794 C2796 1.478 . S
C2795 H2789 0.930 . S
C2795 C2791 1.400 . S
C2795 C2794 1.385 . S
C2796 C2794 1.478 . S
C2796 C2798 1.381 . S
C2796 C2802 1.383 . S
C2797 C2793 1.495 . S
C2797 H2803 0.959 . S
C2797 H2804 0.961 . S
C2797 H2805 0.960 . S
C2798 C2796 1.381 . S
C2798 C2799 1.394 . S
C2798 H2806 0.930 . S
C2799 C2798 1.394 . S
C2799 C2800 1.383 . S
C2799 H2807 0.929 . S
C2800 C2799 1.383 . S
C2800 C2801 1.377 . S
C2801 H2785 0.930 . S
C2801 C2800 1.377 . S
C2801 C2802 1.379 . S
C2802 H2786 0.931 . S
C2802 C2796 1.383 . S
C2802 C2801 1.379 . S
H2803 C2797 0.959 . S
H2804 C2797 0.961 . S
H2805 C2797 0.960 . S
H2806 C2798 0.930 . S
H2807 C2799 0.929 . S
H2808 C2816 0.929 . S
H2809 C2818 0.930 . S
H2810 C2820 0.930 . S
H2811 C2823 0.929 . S
H2812 C2826 0.930 . S
H2813 C2828 0.960 . S
H2814 C2828 0.960 . S
H2815 C2828 0.960 . S
C2816 H2808 0.929 . S
C2816 C2817 1.377 . S
C2816 C2818 1.384 . S
C2817 C2816 1.377 . S
C2817 C2823 1.390 . S
C2818 H2809 0.930 . S
C2818 C2816 1.384 . S
C2818 C2819 1.372 . S
C2819 C2818 1.372 . S
C2819 C2820 1.400 . S
C2819 C2824 1.490 . S
C2820 H2810 0.930 . S
C2820 C2819 1.400 . S
C2820 C2823 1.386 . S
H2821 C2837 0.930 . S
H2822 C2838 0.931 . S
C2823 H2811 0.929 . S
C2823 C2817 1.390 . S
C2823 C2820 1.386 . S
C2824 C2819 1.490 . S
C2824 C2826 1.395 . S
C2824 C2827 1.403 . S
H2825 C2831 0.930 1_565 S
C2826 H2812 0.930 . S
C2826 C2824 1.395 . S
C2826 C2829 1.403 . S
C2827 C2824 1.403 . S
C2827 C2828 1.524 1_545 S
C2827 C2831 1.400 . S
C2828 H2813 0.960 . S
C2828 H2814 0.960 . S
C2828 H2815 0.960 . S
C2828 C2827 1.524 1_565 S
C2829 C2826 1.403 . S
C2829 C2830 1.392 . S
C2829 C2833 1.495 . S
C2830 C2829 1.392 . S
C2830 C2831 1.385 . S
C2830 C2832 1.478 . S
C2831 H2825 0.930 1_545 S
C2831 C2827 1.400 . S
C2831 C2830 1.385 . S
C2832 C2830 1.478 . S
C2832 C2834 1.381 . S
C2832 C2838 1.383 . S
C2833 C2829 1.495 . S
C2833 H2839 0.959 . S
C2833 H2840 0.961 . S
C2833 H2841 0.960 . S
C2834 C2832 1.381 . S
C2834 C2835 1.394 . S
C2834 H2842 0.930 . S
C2835 C2834 1.394 . S
C2835 C2836 1.383 . S
C2835 H2843 0.929 . S
C2836 C2835 1.383 . S
C2836 C2837 1.377 . S
C2837 H2821 0.930 . S
C2837 C2836 1.377 . S
C2837 C2838 1.379 . S
C2838 H2822 0.931 . S
C2838 C2832 1.383 . S
C2838 C2837 1.379 . S
H2839 C2833 0.959 . S
H2840 C2833 0.961 . S
H2841 C2833 0.960 . S
H2842 C2834 0.930 . S
H2843 C2835 0.929 . S
H2844 C2852 0.929 . S
H2845 C2854 0.930 . S
H2846 C2856 0.930 . S
H2847 C2859 0.929 . S
H2848 C2862 0.930 . S
H2849 C2864 0.960 . S
H2850 C2864 0.960 . S
H2851 C2864 0.960 . S
C2852 H2844 0.929 . S
C2852 C2853 1.377 . S
C2852 C2854 1.384 . S
C2853 C2852 1.377 . S
C2853 C2859 1.390 . S
C2854 H2845 0.930 . S
C2854 C2852 1.384 . S
C2854 C2855 1.372 . S
C2855 C2854 1.372 . S
C2855 C2856 1.400 . S
C2855 C2860 1.490 . S
C2856 H2846 0.930 . S
C2856 C2855 1.400 . S
C2856 C2859 1.386 . S
H2857 C2873 0.930 . S
H2858 C2874 0.931 . S
C2859 H2847 0.929 . S
C2859 C2853 1.390 . S
C2859 C2856 1.386 . S
C2860 C2855 1.490 . S
C2860 C2862 1.395 . S
C2860 C2863 1.403 . S
H2861 C2867 0.930 . S
C2862 H2848 0.930 . S
C2862 C2860 1.395 . S
C2862 C2865 1.403 . S
C2863 C2860 1.403 . S
C2863 C2864 1.524 . S
C2863 C2867 1.400 . S
C2864 H2849 0.960 . S
C2864 H2850 0.960 . S
C2864 H2851 0.960 . S
C2864 C2863 1.524 . S
C2865 C2862 1.403 . S
C2865 C2866 1.392 . S
C2865 C2869 1.495 . S
C2866 C2865 1.392 . S
C2866 C2867 1.385 . S
C2866 C2868 1.478 . S
C2867 H2861 0.930 . S
C2867 C2863 1.400 . S
C2867 C2866 1.385 . S
C2868 C2866 1.478 . S
C2868 C2870 1.381 . S
C2868 C2874 1.383 . S
C2869 C2865 1.495 . S
C2869 H2875 0.959 . S
C2869 H2876 0.961 . S
C2869 H2877 0.960 . S
C2870 C2868 1.381 . S
C2870 C2871 1.394 . S
C2870 H2878 0.930 . S
C2871 C2870 1.394 . S
C2871 C2872 1.383 . S
C2871 H2879 0.929 . S
C2872 C2871 1.383 . S
C2872 C2873 1.377 . S
C2873 H2857 0.930 . S
C2873 C2872 1.377 . S
C2873 C2874 1.379 . S
C2874 H2858 0.931 . S
C2874 C2868 1.383 . S
C2874 C2873 1.379 . S
H2875 C2869 0.959 . S
H2876 C2869 0.961 . S
H2877 C2869 0.960 . S
H2878 C2870 0.930 . S
H2879 C2871 0.929 . S
H2880 C2888 0.929 . S
H2881 C2890 0.930 . S
H2882 C2892 0.930 1_565 S
H2883 C2895 0.929 1_565 S
H2884 C2898 0.930 . S
H2885 C2900 0.960 . S
H2886 C2900 0.960 . S
H2887 C2900 0.960 . S
C2888 H2880 0.929 . S
C2888 C2889 1.377 . S
C2888 C2890 1.384 . S
C2889 C2888 1.377 . S
C2889 C2895 1.390 . S
C2890 H2881 0.930 . S
C2890 C2888 1.384 . S
C2890 C2891 1.372 . S
C2891 C2890 1.372 . S
C2891 C2892 1.400 . S
C2891 C2896 1.490 . S
C2892 H2882 0.930 1_545 S
C2892 C2891 1.400 . S
C2892 C2895 1.386 . S
H2893 C2909 0.930 . S
H2894 C2910 0.931 . S
C2895 H2883 0.929 1_545 S
C2895 C2889 1.390 . S
C2895 C2892 1.386 . S
C2896 C2891 1.490 . S
C2896 C2898 1.395 . S
C2896 C2899 1.403 . S
H2897 C2903 0.930 . S
C2898 H2884 0.930 . S
C2898 C2896 1.395 . S
C2898 C2901 1.403 . S
C2899 C2896 1.403 . S
C2899 C2900 1.524 . S
C2899 C2903 1.400 . S
C2900 H2885 0.960 . S
C2900 H2886 0.960 . S
C2900 H2887 0.960 . S
C2900 C2899 1.524 . S
C2901 C2898 1.403 . S
C2901 C2902 1.392 . S
C2901 C2905 1.495 . S
C2902 C2901 1.392 . S
C2902 C2903 1.385 . S
C2902 C2904 1.478 . S
C2903 H2897 0.930 . S
C2903 C2899 1.400 . S
C2903 C2902 1.385 . S
C2904 C2902 1.478 . S
C2904 C2906 1.381 . S
C2904 C2910 1.383 . S
C2905 C2901 1.495 . S
C2905 H2911 0.959 . S
C2905 H2912 0.961 . S
C2905 H2913 0.960 . S
C2906 C2904 1.381 . S
C2906 C2907 1.394 . S
C2906 H2914 0.930 . S
C2907 C2906 1.394 . S
C2907 C2908 1.383 . S
C2907 H2915 0.929 . S
C2908 C2907 1.383 . S
C2908 C2909 1.377 . S
C2909 H2893 0.930 . S
C2909 C2908 1.377 . S
C2909 C2910 1.379 . S
C2910 H2894 0.931 . S
C2910 C2904 1.383 . S
C2910 C2909 1.379 . S
H2911 C2905 0.959 . S
H2912 C2905 0.961 . S
H2913 C2905 0.960 . S
H2914 C2906 0.930 . S
H2915 C2907 0.929 . S
H2916 C2924 0.929 . S
H2917 C2926 0.930 . S
H2918 C2928 0.930 . S
H2919 C2931 0.929 . S
H2920 C2934 0.930 . S
H2921 C2936 0.960 . S
H2922 C2936 0.960 . S
H2923 C2936 0.960 . S
C2924 H2916 0.929 . S
C2924 C2925 1.377 . S
C2924 C2926 1.384 . S
C2925 C2924 1.377 . S
C2925 C2931 1.390 . S
C2926 H2917 0.930 . S
C2926 C2924 1.384 . S
C2926 C2927 1.372 . S
C2927 C2926 1.372 . S
C2927 C2928 1.400 . S
C2927 C2932 1.490 . S
C2928 H2918 0.930 . S
C2928 C2927 1.400 . S
C2928 C2931 1.386 . S
H2929 C2945 0.930 . S
H2930 C2946 0.931 . S
C2931 H2919 0.929 . S
C2931 C2925 1.390 . S
C2931 C2928 1.386 . S
C2932 C2927 1.490 . S
C2932 C2934 1.395 . S
C2932 C2935 1.403 . S
H2933 C2939 0.930 . S
C2934 H2920 0.930 . S
C2934 C2932 1.395 . S
C2934 C2937 1.403 . S
C2935 C2932 1.403 . S
C2935 C2936 1.524 . S
C2935 C2939 1.400 . S
C2936 H2921 0.960 . S
C2936 H2922 0.960 . S
C2936 H2923 0.960 . S
C2936 C2935 1.524 . S
C2937 C2934 1.403 . S
C2937 C2938 1.392 . S
C2937 C2941 1.495 . S
C2938 C2937 1.392 . S
C2938 C2939 1.385 . S
C2938 C2940 1.478 . S
C2939 H2933 0.930 . S
C2939 C2935 1.400 . S
C2939 C2938 1.385 . S
C2940 C2938 1.478 . S
C2940 C2942 1.381 . S
C2940 C2946 1.383 . S
C2941 C2937 1.495 . S
C2941 H2947 0.959 . S
C2941 H2948 0.961 . S
C2941 H2949 0.960 . S
C2942 C2940 1.381 . S
C2942 C2943 1.394 . S
C2942 H2950 0.930 . S
C2943 C2942 1.394 . S
C2943 C2944 1.383 . S
C2943 H2951 0.929 . S
C2944 C2943 1.383 . S
C2944 C2945 1.377 . S
C2945 H2929 0.930 . S
C2945 C2944 1.377 . S
C2945 C2946 1.379 . S
C2946 H2930 0.931 . S
C2946 C2940 1.383 . S
C2946 C2945 1.379 . S
H2947 C2941 0.959 . S
H2948 C2941 0.961 . S
H2949 C2941 0.960 . S
H2950 C2942 0.930 . S
H2951 C2943 0.929 . S
H2952 C2960 0.929 . S
H2953 C2962 0.930 . S
H2954 C2964 0.930 . S
H2955 C2967 0.929 . S
H2956 C2970 0.930 . S
H2957 C2972 0.960 . S
H2958 C2972 0.960 . S
H2959 C2972 0.960 . S
C2960 H2952 0.929 . S
C2960 C2961 1.377 . S
C2960 C2962 1.384 . S
C2961 C2960 1.377 . S
C2961 C2967 1.390 . S
C2962 H2953 0.930 . S
C2962 C2960 1.384 . S
C2962 C2963 1.372 . S
C2963 C2962 1.372 . S
C2963 C2964 1.400 . S
C2963 C2968 1.490 . S
C2964 H2954 0.930 . S
C2964 C2963 1.400 . S
C2964 C2967 1.386 . S
H2965 C2981 0.930 . S
H2966 C2982 0.931 . S
C2967 H2955 0.929 . S
C2967 C2961 1.390 . S
C2967 C2964 1.386 . S
C2968 C2963 1.490 . S
C2968 C2970 1.395 . S
C2968 C2971 1.403 . S
H2969 C2975 0.930 . S
C2970 H2956 0.930 . S
C2970 C2968 1.395 . S
C2970 C2973 1.403 . S
C2971 C2968 1.403 . S
C2971 C2972 1.524 . S
C2971 C2975 1.400 . S
C2972 H2957 0.960 . S
C2972 H2958 0.960 . S
C2972 H2959 0.960 . S
C2972 C2971 1.524 . S
C2973 C2970 1.403 . S
C2973 C2974 1.392 . S
C2973 C2977 1.495 . S
C2974 C2973 1.392 . S
C2974 C2975 1.385 . S
C2974 C2976 1.478 . S
C2975 H2969 0.930 . S
C2975 C2971 1.400 . S
C2975 C2974 1.385 . S
C2976 C2974 1.478 . S
C2976 C2978 1.381 . S
C2976 C2982 1.383 . S
C2977 C2973 1.495 . S
C2977 H2983 0.959 . S
C2977 H2984 0.961 . S
C2977 H2985 0.960 . S
C2978 C2976 1.381 . S
C2978 C2979 1.394 . S
C2978 H2986 0.908 1_545 S
C2979 C2978 1.394 . S
C2979 C2980 1.383 . S
C2979 H2987 0.929 . S
C2980 C2979 1.383 . S
C2980 C2981 1.377 . S
C2981 H2965 0.930 . S
C2981 C2980 1.377 . S
C2981 C2982 1.379 . S
C2982 H2966 0.931 . S
C2982 C2976 1.383 . S
C2982 C2981 1.379 . S
H2983 C2977 0.959 . S
H2984 C2977 0.961 . S
H2985 C2977 0.960 . S
H2986 C2978 0.908 1_565 S
H2987 C2979 0.929 . S
H2988 C2996 0.929 . S
H2989 C2998 0.930 . S
H2990 C3000 0.930 . S
H2991 C3003 0.929 . S
H2992 C3006 0.930 . S
H2993 C3008 0.960 . S
H2994 C3008 0.960 . S
H2995 C3008 0.960 . S
C2996 H2988 0.929 . S
C2996 C2997 1.377 . S
C2996 C2998 1.384 . S
C2997 C2996 1.377 . S
C2997 C3003 1.390 . S
C2998 H2989 0.930 . S
C2998 C2996 1.384 . S
C2998 C2999 1.372 . S
C2999 C2998 1.372 . S
C2999 C3000 1.400 . S
C2999 C3004 1.490 . S
C3000 H2990 0.930 . S
C3000 C2999 1.400 . S
C3000 C3003 1.386 . S
H3001 C3017 0.930 . S
H3002 C3018 0.931 . S
C3003 H2991 0.929 . S
C3003 C2997 1.390 . S
C3003 C3000 1.386 . S
C3004 C2999 1.490 . S
C3004 C3006 1.395 . S
C3004 C3007 1.403 . S
H3005 C3011 0.930 . S
C3006 H2992 0.930 . S
C3006 C3004 1.395 . S
C3006 C3009 1.403 . S
C3007 C3004 1.403 . S
C3007 C3008 1.524 . S
C3007 C3011 1.400 . S
C3008 H2993 0.960 . S
C3008 H2994 0.960 . S
C3008 H2995 0.960 . S
C3008 C3007 1.524 . S
C3009 C3006 1.403 . S
C3009 C3010 1.392 . S
C3009 C3013 1.495 . S
C3010 C3009 1.392 . S
C3010 C3011 1.385 . S
C3010 C3012 1.478 . S
C3011 H3005 0.930 . S
C3011 C3007 1.400 . S
C3011 C3010 1.385 . S
C3012 C3010 1.478 . S
C3012 C3014 1.381 . S
C3012 C3018 1.383 . S
C3013 C3009 1.495 . S
C3013 H3019 0.959 . S
C3013 H3020 0.961 . S
C3013 H3021 0.960 . S
C3014 C3012 1.381 . S
C3014 C3015 1.394 . S
C3014 H3022 0.930 . S
C3015 C3014 1.394 . S
C3015 C3016 1.383 . S
C3015 H3023 0.929 . S
C3016 C3015 1.383 . S
C3016 C3017 1.377 . S
C3017 H3001 0.930 . S
C3017 C3016 1.377 . S
C3017 C3018 1.379 . S
C3018 H3002 0.931 . S
C3018 C3012 1.383 . S
C3018 C3017 1.379 . S
H3019 C3013 0.959 . S
H3020 C3013 0.961 . S
H3021 C3013 0.960 . S
H3022 C3014 0.930 . S
H3023 C3015 0.929 . S
H3024 C3032 0.929 . S
H3025 C3034 0.930 . S
H3026 C3036 0.930 . S
H3027 C3039 0.929 . S
H3028 C3042 0.912 1_565 S
H3029 C3044 0.960 . S
H3030 C3044 0.960 . S
H3031 C3044 0.960 . S
C3032 H3024 0.929 . S
C3032 C3033 1.377 . S
C3032 C3034 1.384 . S
C3033 C3032 1.377 . S
C3033 C3039 1.390 1_545 S
C3034 H3025 0.930 . S
C3034 C3032 1.384 . S
C3034 C3035 1.372 . S
C3035 C3034 1.372 . S
C3035 C3036 1.400 1_545 S
C3035 C3040 1.490 . S
C3036 H3026 0.930 . S
C3036 C3035 1.400 1_565 S
C3036 C3039 1.386 . S
H3037 C3053 0.930 . S
H3038 C3054 0.931 . S
C3039 H3027 0.929 . S
C3039 C3033 1.390 1_565 S
C3039 C3036 1.386 . S
C3040 C3035 1.490 . S
C3040 C3042 1.416 . S
C3040 C3043 1.403 . S
H3041 C3047 0.930 . S
C3042 H3028 0.912 1_545 S
C3042 C3040 1.416 . S
C3042 C3045 1.401 . S
C3043 C3040 1.403 . S
C3043 C3044 1.524 . S
C3043 C3047 1.400 . S
C3044 H3029 0.960 . S
C3044 H3030 0.960 . S
C3044 H3031 0.960 . S
C3044 C3043 1.524 . S
C3045 C3042 1.401 . S
C3045 C3046 1.389 . S
C3045 C3049 1.499 1_545 S
C3046 C3045 1.389 . S
C3046 C3047 1.385 . S
C3046 C3048 1.478 . S
C3047 H3041 0.930 . S
C3047 C3043 1.400 . S
C3047 C3046 1.385 . S
C3048 C3046 1.478 . S
C3048 C3050 1.381 . S
C3048 C3054 1.383 1_545 S
C3049 C3045 1.499 1_565 S
C3049 H3055 0.959 . S
C3049 H3056 0.961 . S
C3049 H3057 0.960 1_565 S
C3050 C3048 1.381 . S
C3050 C3051 1.394 . S
C3050 H3058 0.930 . S
C3051 C3050 1.394 . S
C3051 C3052 1.383 . S
C3051 H3059 0.929 . S
C3052 C3051 1.383 . S
C3052 C3053 1.377 1_545 S
C3053 H3037 0.930 . S
C3053 C3052 1.377 1_565 S
C3053 C3054 1.379 . S
C3054 H3038 0.931 . S
C3054 C3048 1.383 1_565 S
C3054 C3053 1.379 . S
H3055 C3049 0.959 . S
H3056 C3049 0.961 . S
H3057 C3049 0.960 1_545 S
H3058 C3050 0.930 . S
H3059 C3051 0.929 . S
H3060 C3068 0.929 . S
H3061 C3070 0.930 . S
H3062 C3072 0.930 . S
H3063 C3075 0.929 . S
H3064 C3078 0.930 . S
H3065 C3080 0.960 . S
H3066 C3080 0.960 . S
H3067 C3080 0.960 . S
C3068 H3060 0.929 . S
C3068 C3069 1.377 . S
C3068 C3070 1.384 . S
C3069 C3068 1.377 . S
C3069 C3075 1.390 . S
C3070 H3061 0.930 . S
C3070 C3068 1.384 . S
C3070 C3071 1.372 . S
C3071 C3070 1.372 . S
C3071 C3072 1.400 . S
C3071 C3076 1.490 . S
C3072 H3062 0.930 . S
C3072 C3071 1.400 . S
C3072 C3075 1.386 . S
H3073 C3089 0.930 . S
H3074 C3090 0.931 . S
C3075 H3063 0.929 . S
C3075 C3069 1.390 . S
C3075 C3072 1.386 . S
C3076 C3071 1.490 . S
C3076 C3078 1.395 . S
C3076 C3079 1.403 . S
H3077 C3083 0.930 . S
C3078 H3064 0.930 . S
C3078 C3076 1.395 . S
C3078 C3081 1.403 . S
C3079 C3076 1.403 . S
C3079 C3080 1.524 . S
C3079 C3083 1.400 . S
C3080 H3065 0.960 . S
C3080 H3066 0.960 . S
C3080 H3067 0.960 . S
C3080 C3079 1.524 . S
C3081 C3078 1.403 . S
C3081 C3082 1.392 . S
C3081 C3085 1.495 . S
C3082 C3081 1.392 . S
C3082 C3083 1.385 . S
C3082 C3084 1.478 . S
C3083 H3077 0.930 . S
C3083 C3079 1.400 . S
C3083 C3082 1.385 . S
C3084 C3082 1.478 . S
C3084 C3086 1.381 . S
C3084 C3090 1.383 . S
C3085 C3081 1.495 . S
C3085 H3091 0.959 . S
C3085 H3092 0.961 . S
C3085 H3093 0.960 . S
C3086 C3084 1.381 . S
C3086 C3087 1.394 . S
C3086 H3094 0.930 . S
C3087 C3086 1.394 . S
C3087 C3088 1.383 . S
C3087 H3095 0.929 . S
C3088 C3087 1.383 . S
C3088 C3089 1.377 . S
C3089 H3073 0.930 . S
C3089 C3088 1.377 . S
C3089 C3090 1.379 . S
C3090 H3074 0.931 . S
C3090 C3084 1.383 . S
C3090 C3089 1.379 . S
H3091 C3085 0.959 . S
H3092 C3085 0.961 . S
H3093 C3085 0.960 . S
H3094 C3086 0.930 . S
H3095 C3087 0.929 . S
H3096 C3104 0.929 . S
H3097 C3106 0.930 . S
H3098 C3108 0.930 . S
H3099 C3111 0.929 . S
H3100 C3114 0.930 . S
H3101 C3116 0.960 . S
H3102 C3116 0.960 . S
H3103 C3116 0.960 . S
C3104 H3096 0.929 . S
C3104 C3105 1.377 . S
C3104 C3106 1.384 . S
C3105 C3104 1.377 . S
C3105 C3111 1.390 . S
C3106 H3097 0.930 . S
C3106 C3104 1.384 . S
C3106 C3107 1.372 . S
C3107 C3106 1.372 . S
C3107 C3108 1.400 . S
C3107 C3112 1.490 . S
C3108 H3098 0.930 . S
C3108 C3107 1.400 . S
C3108 C3111 1.386 . S
H3109 C3125 0.930 . S
H3110 C3126 0.931 . S
C3111 H3099 0.929 . S
C3111 C3105 1.390 . S
C3111 C3108 1.386 . S
C3112 C3107 1.490 . S
C3112 C3114 1.395 . S
C3112 C3115 1.403 . S
H3113 C3119 0.930 . S
C3114 H3100 0.930 . S
C3114 C3112 1.395 . S
C3114 C3117 1.403 . S
C3115 C3112 1.403 . S
C3115 C3116 1.524 . S
C3115 C3119 1.400 . S
C3116 H3101 0.960 . S
C3116 H3102 0.960 . S
C3116 H3103 0.960 . S
C3116 C3115 1.524 . S
C3117 C3114 1.403 . S
C3117 C3118 1.392 . S
C3117 C3121 1.495 . S
C3118 C3117 1.392 . S
C3118 C3119 1.385 . S
C3118 C3120 1.478 . S
C3119 H3113 0.930 . S
C3119 C3115 1.400 . S
C3119 C3118 1.385 . S
C3120 C3118 1.478 . S
C3120 C3122 1.381 . S
C3120 C3126 1.383 . S
C3121 C3117 1.495 . S
C3121 H3127 0.959 . S
C3121 H3128 0.961 . S
C3121 H3129 0.960 . S
C3122 C3120 1.381 . S
C3122 C3123 1.394 . S
C3122 H3130 0.930 1_554 S
C3123 C3122 1.394 . S
C3123 C3124 1.383 . S
C3123 H3131 0.929 1_554 S
C3124 C3123 1.383 . S
C3124 C3125 1.377 . S
C3125 H3109 0.930 . S
C3125 C3124 1.377 . S
C3125 C3126 1.379 . S
C3126 H3110 0.931 . S
C3126 C3120 1.383 . S
C3126 C3125 1.379 . S
H3127 C3121 0.959 . S
H3128 C3121 0.961 . S
H3129 C3121 0.960 . S
H3130 C3122 0.930 1_556 S
H3131 C3123 0.929 1_556 S
H3132 C3140 0.929 . S
H3133 C3142 0.930 . S
H3134 C3144 0.930 . S
H3135 C3147 0.929 . S
H3136 C3150 0.930 . S
H3137 C3152 0.960 1_556 S
H3138 C3152 0.960 . S
H3139 C3152 0.960 . S
C3140 H3132 0.929 . S
C3140 C3141 1.377 . S
C3140 C3142 1.384 . S
C3141 C3140 1.377 . S
C3141 C3147 1.390 . S
C3142 H3133 0.930 . S
C3142 C3140 1.384 . S
C3142 C3143 1.372 . S
C3143 C3142 1.372 . S
C3143 C3144 1.400 . S
C3143 C3148 1.490 . S
C3144 H3134 0.930 . S
C3144 C3143 1.400 . S
C3144 C3147 1.386 . S
H3145 C3161 0.930 . S
H3146 C3162 0.931 . S
C3147 H3135 0.929 . S
C3147 C3141 1.390 . S
C3147 C3144 1.386 . S
C3148 C3143 1.490 . S
C3148 C3150 1.395 . S
C3148 C3151 1.403 . S
H3149 C3155 0.930 . S
C3150 H3136 0.930 . S
C3150 C3148 1.395 . S
C3150 C3153 1.403 . S
C3151 C3148 1.403 . S
C3151 C3152 1.524 . S
C3151 C3155 1.400 . S
C3152 H3137 0.960 1_554 S
C3152 H3138 0.960 . S
C3152 H3139 0.960 . S
C3152 C3151 1.524 . S
C3153 C3150 1.403 . S
C3153 C3154 1.392 . S
C3153 C3157 1.495 . S
C3154 C3153 1.392 . S
C3154 C3155 1.385 . S
C3154 C3156 1.478 . S
C3155 H3149 0.930 . S
C3155 C3151 1.400 . S
C3155 C3154 1.385 . S
C3156 C3154 1.478 . S
C3156 C3158 1.381 . S
C3156 C3162 1.383 . S
C3157 C3153 1.495 . S
C3157 H3163 0.959 . S
C3157 H3164 0.961 . S
C3157 H3165 0.960 . S
C3158 C3156 1.381 . S
C3158 C3159 1.394 . S
C3158 H3166 0.930 . S
C3159 C3158 1.394 . S
C3159 C3160 1.383 . S
C3159 H3167 0.929 . S
C3160 C3159 1.383 . S
C3160 C3161 1.377 . S
C3161 H3145 0.930 . S
C3161 C3160 1.377 . S
C3161 C3162 1.379 . S
C3162 H3146 0.931 . S
C3162 C3156 1.383 . S
C3162 C3161 1.379 . S
H3163 C3157 0.959 . S
H3164 C3157 0.961 . S
H3165 C3157 0.960 . S
H3166 C3158 0.930 . S
H3167 C3159 0.929 . S
H3168 C3176 0.929 . S
H3169 C3178 0.930 . S
H3170 C3180 0.930 . S
H3171 C3183 0.929 . S
H3172 C3186 0.930 . S
H3173 C3188 0.960 . S
H3174 C3188 0.960 . S
H3175 C3188 0.960 . S
C3176 H3168 0.929 . S
C3176 C3177 1.377 . S
C3176 C3178 1.384 . S
C3177 C3176 1.377 . S
C3177 C3183 1.390 . S
C3178 H3169 0.930 . S
C3178 C3176 1.384 . S
C3178 C3179 1.372 . S
C3179 C3178 1.372 . S
C3179 C3180 1.400 . S
C3179 C3184 1.490 . S
C3180 H3170 0.930 . S
C3180 C3179 1.400 . S
C3180 C3183 1.386 . S
H3181 C3197 0.930 . S
H3182 C3198 0.931 . S
C3183 H3171 0.929 . S
C3183 C3177 1.390 . S
C3183 C3180 1.386 . S
C3184 C3179 1.490 . S
C3184 C3186 1.395 . S
C3184 C3187 1.403 . S
H3185 C3191 0.930 . S
C3186 H3172 0.930 . S
C3186 C3184 1.395 . S
C3186 C3189 1.403 . S
C3187 C3184 1.403 . S
C3187 C3188 1.524 . S
C3187 C3191 1.400 . S
C3188 H3173 0.960 . S
C3188 H3174 0.960 . S
C3188 H3175 0.960 . S
C3188 C3187 1.524 . S
C3189 C3186 1.403 . S
C3189 C3190 1.392 . S
C3189 C3193 1.495 . S
C3190 C3189 1.392 . S
C3190 C3191 1.385 . S
C3190 C3192 1.478 . S
C3191 H3185 0.930 . S
C3191 C3187 1.400 . S
C3191 C3190 1.385 . S
C3192 C3190 1.478 . S
C3192 C3194 1.381 . S
C3192 C3198 1.383 . S
C3193 C3189 1.495 . S
C3193 H3199 0.959 . S
C3193 H3200 0.961 . S
C3193 H3201 0.960 . S
C3194 C3192 1.381 . S
C3194 C3195 1.394 . S
C3194 H3202 0.930 . S
C3195 C3194 1.394 . S
C3195 C3196 1.383 . S
C3195 H3203 0.929 . S
C3196 C3195 1.383 . S
C3196 C3197 1.377 . S
C3197 H3181 0.930 . S
C3197 C3196 1.377 . S
C3197 C3198 1.379 . S
C3198 H3182 0.931 . S
C3198 C3192 1.383 . S
C3198 C3197 1.379 . S
H3199 C3193 0.959 . S
H3200 C3193 0.961 . S
H3201 C3193 0.960 . S
H3202 C3194 0.930 . S
H3203 C3195 0.929 . S
H3204 C3212 0.929 . S
H3205 C3214 0.930 . S
H3206 C3216 0.930 . S
H3207 C3219 0.929 . S
H3208 C3222 0.930 . S
H3209 C3224 0.960 . S
H3210 C3224 0.960 . S
H3211 C3224 0.960 . S
C3212 H3204 0.929 . S
C3212 C3213 1.377 . S
C3212 C3214 1.384 . S
C3213 C3212 1.377 . S
C3213 C3219 1.390 . S
C3214 H3205 0.930 . S
C3214 C3212 1.384 . S
C3214 C3215 1.372 . S
C3215 C3214 1.372 . S
C3215 C3216 1.400 . S
C3215 C3220 1.490 . S
C3216 H3206 0.930 . S
C3216 C3215 1.400 . S
C3216 C3219 1.386 . S
H3217 C3233 0.930 . S
H3218 C3234 0.931 . S
C3219 H3207 0.929 . S
C3219 C3213 1.390 . S
C3219 C3216 1.386 . S
C3220 C3215 1.490 . S
C3220 C3222 1.395 . S
C3220 C3223 1.403 . S
H3221 C3227 0.930 . S
C3222 H3208 0.930 . S
C3222 C3220 1.395 . S
C3222 C3225 1.403 . S
C3223 C3220 1.403 . S
C3223 C3224 1.524 . S
C3223 C3227 1.400 . S
C3224 H3209 0.960 . S
C3224 H3210 0.960 . S
C3224 H3211 0.960 . S
C3224 C3223 1.524 . S
C3225 C3222 1.403 . S
C3225 C3226 1.392 . S
C3225 C3229 1.495 . S
C3226 C3225 1.392 . S
C3226 C3227 1.385 . S
C3226 C3228 1.478 . S
C3227 H3221 0.930 . S
C3227 C3223 1.400 . S
C3227 C3226 1.385 . S
C3228 C3226 1.478 . S
C3228 C3230 1.381 . S
C3228 C3234 1.383 . S
C3229 C3225 1.495 . S
C3229 H3235 0.959 . S
C3229 H3236 0.961 . S
C3229 H3237 0.960 . S
C3230 C3228 1.381 . S
C3230 C3231 1.394 . S
C3230 H3238 0.930 . S
C3231 C3230 1.394 . S
C3231 C3232 1.383 . S
C3231 H3239 0.929 . S
C3232 C3231 1.383 . S
C3232 C3233 1.377 . S
C3233 H3217 0.930 . S
C3233 C3232 1.377 . S
C3233 C3234 1.379 . S
C3234 H3218 0.931 . S
C3234 C3228 1.383 . S
C3234 C3233 1.379 . S
H3235 C3229 0.959 . S
H3236 C3229 0.961 . S
H3237 C3229 0.960 . S
H3238 C3230 0.930 . S
H3239 C3231 0.929 . S
H3240 C3248 0.929 . S
H3241 C3250 0.930 . S
H3242 C3252 0.930 . S
H3243 C3255 0.929 . S
H3244 C3258 0.930 . S
H3245 C3260 0.960 . S
H3246 C3260 0.960 . S
H3247 C3260 0.960 . S
C3248 H3240 0.929 . S
C3248 C3249 1.377 . S
C3248 C3250 1.384 1_545 S
C3249 C3248 1.377 . S
C3249 C3255 1.388 1_545 S
C3250 H3241 0.930 . S
C3250 C3248 1.384 1_565 S
C3250 C3251 1.372 . S
C3251 C3250 1.372 . S
C3251 C3252 1.400 . S
C3251 C3256 1.490 . S
C3252 H3242 0.930 . S
C3252 C3251 1.400 . S
C3252 C3255 1.386 . S
H3253 C3269 0.930 . S
H3254 C3270 0.931 . S
C3255 H3243 0.929 . S
C3255 C3249 1.388 1_565 S
C3255 C3252 1.386 . S
C3256 C3251 1.490 . S
C3256 C3258 1.395 . S
C3256 C3259 1.403 . S
H3257 C3263 0.930 . S
C3258 H3244 0.930 . S
C3258 C3256 1.395 . S
C3258 C3261 1.403 . S
C3259 C3256 1.403 . S
C3259 C3260 1.524 . S
C3259 C3263 1.400 . S
C3260 H3245 0.960 . S
C3260 H3246 0.960 . S
C3260 H3247 0.960 . S
C3260 C3259 1.524 . S
C3261 C3258 1.403 . S
C3261 C3262 1.392 . S
C3261 C3265 1.495 . S
C3262 C3261 1.392 . S
C3262 C3263 1.385 . S
C3262 C3264 1.478 . S
C3263 H3257 0.930 . S
C3263 C3259 1.400 . S
C3263 C3262 1.385 . S
C3264 C3262 1.478 . S
C3264 C3266 1.381 . S
C3264 C3270 1.383 . S
C3265 C3261 1.495 . S
C3265 H3271 0.959 . S
C3265 H3272 0.961 . S
C3265 H3273 0.960 . S
C3266 C3264 1.381 . S
C3266 C3267 1.394 . S
C3266 H3274 0.930 . S
C3267 C3266 1.394 . S
C3267 C3268 1.383 . S
C3267 H3275 0.929 . S
C3268 C3267 1.383 . S
C3268 C3269 1.377 . S
C3269 H3253 0.930 . S
C3269 C3268 1.377 . S
C3269 C3270 1.379 . S
C3270 H3254 0.931 . S
C3270 C3264 1.383 . S
C3270 C3269 1.379 . S
H3271 C3265 0.959 . S
H3272 C3265 0.961 . S
H3273 C3265 0.960 . S
H3274 C3266 0.930 . S
H3275 C3267 0.929 . S
H3276 C3284 0.929 . S
H3277 C3286 0.930 . S
H3278 C3288 0.930 . S
H3279 C3291 0.929 . S
H3280 C3294 0.930 . S
H3281 C3296 0.960 . S
H3282 C3296 0.960 . S
H3283 C3296 0.960 . S
C3284 H3276 0.929 . S
C3284 C3285 1.377 . S
C3284 C3286 1.384 . S
C3285 C3284 1.377 . S
C3285 C3291 1.390 . S
C3286 H3277 0.930 . S
C3286 C3284 1.384 . S
C3286 C3287 1.372 . S
C3287 C3286 1.372 . S
C3287 C3288 1.400 . S
C3287 C3292 1.490 . S
C3288 H3278 0.930 . S
C3288 C3287 1.400 . S
C3288 C3291 1.386 . S
H3289 C3305 0.930 . S
H3290 C3306 0.931 . S
C3291 H3279 0.929 . S
C3291 C3285 1.390 . S
C3291 C3288 1.386 . S
C3292 C3287 1.490 . S
C3292 C3294 1.395 . S
C3292 C3295 1.403 . S
H3293 C3299 0.930 . S
C3294 H3280 0.930 . S
C3294 C3292 1.395 . S
C3294 C3297 1.403 . S
C3295 C3292 1.403 . S
C3295 C3296 1.524 . S
C3295 C3299 1.400 . S
C3296 H3281 0.960 . S
C3296 H3282 0.960 . S
C3296 H3283 0.960 . S
C3296 C3295 1.524 . S
C3297 C3294 1.403 . S
C3297 C3298 1.392 . S
C3297 C3301 1.495 . S
C3298 C3297 1.392 . S
C3298 C3299 1.385 . S
C3298 C3300 1.478 . S
C3299 H3293 0.930 . S
C3299 C3295 1.400 . S
C3299 C3298 1.385 . S
C3300 C3298 1.478 . S
C3300 C3302 1.381 . S
C3300 C3306 1.383 . S
C3301 C3297 1.495 . S
C3301 H3307 0.959 . S
C3301 H3308 0.961 . S
C3301 H3309 0.960 . S
C3302 C3300 1.381 . S
C3302 C3303 1.394 . S
C3302 H3310 0.930 . S
C3303 C3302 1.394 . S
C3303 C3304 1.383 . S
C3303 H3311 0.929 . S
C3304 C3303 1.383 . S
C3304 C3305 1.377 . S
C3305 H3289 0.930 . S
C3305 C3304 1.377 . S
C3305 C3306 1.379 . S
C3306 H3290 0.931 . S
C3306 C3300 1.383 . S
C3306 C3305 1.379 . S
H3307 C3301 0.959 . S
H3308 C3301 0.961 . S
H3309 C3301 0.960 . S
H3310 C3302 0.930 . S
H3311 C3303 0.929 . S
H3312 C3320 0.929 . S
H3313 C3322 0.930 . S
H3314 C3324 0.930 . S
H3315 C3327 0.929 . S
H3316 C3330 0.930 . S
H3317 C3332 0.960 . S
H3318 C3332 0.960 . S
H3319 C3332 0.960 . S
C3320 H3312 0.929 . S
C3320 C3321 1.377 . S
C3320 C3322 1.384 . S
C3321 C3320 1.377 . S
C3321 C3327 1.390 . S
C3322 H3313 0.930 . S
C3322 C3320 1.384 . S
C3322 C3323 1.372 . S
C3323 C3322 1.372 . S
C3323 C3324 1.400 . S
C3323 C3328 1.490 . S
C3324 H3314 0.930 . S
C3324 C3323 1.400 . S
C3324 C3327 1.386 . S
H3325 C3341 0.930 . S
H3326 C3342 0.931 . S
C3327 H3315 0.929 . S
C3327 C3321 1.390 . S
C3327 C3324 1.386 . S
C3328 C3323 1.490 . S
C3328 C3330 1.395 . S
C3328 C3331 1.403 . S
H3329 C3335 0.930 . S
C3330 H3316 0.930 . S
C3330 C3328 1.395 . S
C3330 C3333 1.403 . S
C3331 C3328 1.403 . S
C3331 C3332 1.524 . S
C3331 C3335 1.400 . S
C3332 H3317 0.960 . S
C3332 H3318 0.960 . S
C3332 H3319 0.960 . S
C3332 C3331 1.524 . S
C3333 C3330 1.403 . S
C3333 C3334 1.392 . S
C3333 C3337 1.495 . S
C3334 C3333 1.392 . S
C3334 C3335 1.385 . S
C3334 C3336 1.478 . S
C3335 H3329 0.930 . S
C3335 C3331 1.400 . S
C3335 C3334 1.385 . S
C3336 C3334 1.478 . S
C3336 C3338 1.381 . S
C3336 C3342 1.383 . S
C3337 C3333 1.495 . S
C3337 H3343 0.959 . S
C3337 H3344 0.961 . S
C3337 H3345 0.960 . S
C3338 C3336 1.381 . S
C3338 C3339 1.394 . S
C3338 H3346 0.930 . S
C3339 C3338 1.394 . S
C3339 C3340 1.383 . S
C3339 H3347 0.929 . S
C3340 C3339 1.383 . S
C3340 C3341 1.377 . S
C3341 H3325 0.930 . S
C3341 C3340 1.377 . S
C3341 C3342 1.379 . S
C3342 H3326 0.931 . S
C3342 C3336 1.383 . S
C3342 C3341 1.379 . S
H3343 C3337 0.959 . S
H3344 C3337 0.961 . S
H3345 C3337 0.960 . S
H3346 C3338 0.930 . S
H3347 C3339 0.929 . S
H3348 C3356 0.929 . S
H3349 C3358 0.930 . S
H3350 C3360 0.930 . S
H3351 C3363 0.929 . S
H3352 C3366 0.930 . S
H3353 C3368 0.960 . S
H3354 C3368 0.960 . S
H3355 C3368 0.960 . S
C3356 H3348 0.929 . S
C3356 C3357 1.377 . S
C3356 C3358 1.384 . S
C3357 C3356 1.377 . S
C3357 C3363 1.390 . S
C3358 H3349 0.930 . S
C3358 C3356 1.384 . S
C3358 C3359 1.372 . S
C3359 C3358 1.372 . S
C3359 C3360 1.400 . S
C3359 C3364 1.490 . S
C3360 H3350 0.930 . S
C3360 C3359 1.400 . S
C3360 C3363 1.386 . S
H3361 C3377 0.930 . S
H3362 C3378 0.931 . S
C3363 H3351 0.929 . S
C3363 C3357 1.390 . S
C3363 C3360 1.386 . S
C3364 C3359 1.490 . S
C3364 C3366 1.395 . S
C3364 C3367 1.403 . S
H3365 C3371 0.930 . S
C3366 H3352 0.930 . S
C3366 C3364 1.395 . S
C3366 C3369 1.403 . S
C3367 C3364 1.403 . S
C3367 C3368 1.524 . S
C3367 C3371 1.400 . S
C3368 H3353 0.960 . S
C3368 H3354 0.960 . S
C3368 H3355 0.960 . S
C3368 C3367 1.524 . S
C3369 C3366 1.403 . S
C3369 C3370 1.392 . S
C3369 C3373 1.495 . S
C3370 C3369 1.392 . S
C3370 C3371 1.385 . S
C3370 C3372 1.478 . S
C3371 H3365 0.930 . S
C3371 C3367 1.400 . S
C3371 C3370 1.385 . S
C3372 C3370 1.478 . S
C3372 C3374 1.381 . S
C3372 C3378 1.383 . S
C3373 C3369 1.495 . S
C3373 H3379 0.959 . S
C3373 H3380 0.961 . S
C3373 H3381 0.960 . S
C3374 C3372 1.381 . S
C3374 C3375 1.394 . S
C3374 H3382 0.930 . S
C3375 C3374 1.394 . S
C3375 C3376 1.383 . S
C3375 H3383 0.929 . S
C3376 C3375 1.383 . S
C3376 C3377 1.377 . S
C3377 H3361 0.930 . S
C3377 C3376 1.377 . S
C3377 C3378 1.379 . S
C3378 H3362 0.931 . S
C3378 C3372 1.383 . S
C3378 C3377 1.379 . S
H3379 C3373 0.959 . S
H3380 C3373 0.961 . S
H3381 C3373 0.960 . S
H3382 C3374 0.930 . S
H3383 C3375 0.929 . S
H3384 C3392 0.929 . S
H3385 C3394 0.930 . S
H3386 C3396 0.930 . S
H3387 C3399 0.929 . S
H3388 C3402 0.930 . S
H3389 C3404 0.960 . S
H3390 C3404 0.960 . S
H3391 C3404 0.960 . S
C3392 H3384 0.929 . S
C3392 C3393 1.377 . S
C3392 C3394 1.384 . S
C3393 C3392 1.377 . S
C3393 C3399 1.390 . S
C3394 H3385 0.930 . S
C3394 C3392 1.384 . S
C3394 C3395 1.372 . S
C3395 C3394 1.372 . S
C3395 C3396 1.400 . S
C3395 C3400 1.490 . S
C3396 H3386 0.930 . S
C3396 C3395 1.400 . S
C3396 C3399 1.386 . S
H3397 C3413 0.930 . S
H3398 C3414 0.931 . S
C3399 H3387 0.929 . S
C3399 C3393 1.390 . S
C3399 C3396 1.386 . S
C3400 C3395 1.490 . S
C3400 C3402 1.395 . S
C3400 C3403 1.403 . S
H3401 C3407 0.930 . S
C3402 H3388 0.930 . S
C3402 C3400 1.395 . S
C3402 C3405 1.403 . S
C3403 C3400 1.403 . S
C3403 C3404 1.524 . S
C3403 C3407 1.400 . S
C3404 H3389 0.960 . S
C3404 H3390 0.960 . S
C3404 H3391 0.960 . S
C3404 C3403 1.524 . S
C3405 C3402 1.403 . S
C3405 C3406 1.392 . S
C3405 C3409 1.495 . S
C3406 C3405 1.392 . S
C3406 C3407 1.385 . S
C3406 C3408 1.478 . S
C3407 H3401 0.930 . S
C3407 C3403 1.400 . S
C3407 C3406 1.385 . S
C3408 C3406 1.478 . S
C3408 C3410 1.381 . S
C3408 C3414 1.383 . S
C3409 C3405 1.495 . S
C3409 H3415 0.959 . S
C3409 H3416 0.961 . S
C3409 H3417 0.960 . S
C3410 C3408 1.381 . S
C3410 C3411 1.394 . S
C3410 H3418 0.930 . S
C3411 C3410 1.394 . S
C3411 C3412 1.383 . S
C3411 H3419 0.929 . S
C3412 C3411 1.383 . S
C3412 C3413 1.377 . S
C3413 H3397 0.930 . S
C3413 C3412 1.377 . S
C3413 C3414 1.379 . S
C3414 H3398 0.931 . S
C3414 C3408 1.383 . S
C3414 C3413 1.379 . S
H3415 C3409 0.959 . S
H3416 C3409 0.961 . S
H3417 C3409 0.960 . S
H3418 C3410 0.930 . S
H3419 C3411 0.929 . S
H3420 C3428 0.929 . S
H3421 C3430 0.930 . S
H3422 C3432 0.930 . S
H3423 C3435 0.929 . S
H3424 C3438 0.930 . S
H3425 C3440 0.960 . S
H3426 C3440 0.960 . S
H3427 C3440 0.960 . S
C3428 H3420 0.929 . S
C3428 C3429 1.377 . S
C3428 C3430 1.384 . S
C3429 C3428 1.377 . S
C3429 C3435 1.390 . S
C3430 H3421 0.930 . S
C3430 C3428 1.384 . S
C3430 C3431 1.372 . S
C3431 C3430 1.372 . S
C3431 C3432 1.400 . S
C3431 C3436 1.490 . S
C3432 H3422 0.930 . S
C3432 C3431 1.400 . S
C3432 C3435 1.386 . S
H3433 C3449 0.930 . S
H3434 C3450 0.931 . S
C3435 H3423 0.929 . S
C3435 C3429 1.390 . S
C3435 C3432 1.386 . S
C3436 C3431 1.490 . S
C3436 C3438 1.395 . S
C3436 C3439 1.403 . S
H3437 C3443 0.930 . S
C3438 H3424 0.930 . S
C3438 C3436 1.395 . S
C3438 C3441 1.403 . S
C3439 C3436 1.403 . S
C3439 C3440 1.524 . S
C3439 C3443 1.400 . S
C3440 H3425 0.960 . S
C3440 H3426 0.960 . S
C3440 H3427 0.960 . S
C3440 C3439 1.524 . S
C3441 C3438 1.403 . S
C3441 C3442 1.392 . S
C3441 C3445 1.495 . S
C3442 C3441 1.392 . S
C3442 C3443 1.385 . S
C3442 C3444 1.478 . S
C3443 H3437 0.930 . S
C3443 C3439 1.400 . S
C3443 C3442 1.385 . S
C3444 C3442 1.478 . S
C3444 C3446 1.381 . S
C3444 C3450 1.383 . S
C3445 C3441 1.495 . S
C3445 H3451 0.959 . S
C3445 H3452 0.961 . S
C3445 H3453 0.960 . S
C3446 C3444 1.381 . S
C3446 C3447 1.394 . S
C3446 H3454 0.930 . S
C3447 C3446 1.394 . S
C3447 C3448 1.383 . S
C3447 H3455 0.929 . S
C3448 C3447 1.383 . S
C3448 C3449 1.377 . S
C3449 H3433 0.930 . S
C3449 C3448 1.377 . S
C3449 C3450 1.379 . S
C3450 H3434 0.931 . S
C3450 C3444 1.383 . S
C3450 C3449 1.379 . S
H3451 C3445 0.959 . S
H3452 C3445 0.961 . S
H3453 C3445 0.960 . S
H3454 C3446 0.930 . S
H3455 C3447 0.929 . S
H3456 C3464 0.929 . S
H3457 C3466 0.930 . S
H3458 C3468 0.930 . S
H3459 C3471 0.929 . S
H3460 C3474 0.881 1_654 S
H3461 C3476 0.960 . S
H3462 C3476 0.960 . S
H3463 C3476 0.960 . S
C3464 H3456 0.929 . S
C3464 C3465 1.377 1_655 S
C3464 C3466 1.384 . S
C3465 C3464 1.377 1_455 S
C3465 C3471 1.390 . S
C3466 H3457 0.930 . S
C3466 C3464 1.384 . S
C3466 C3467 1.372 1_655 S
C3467 C3466 1.372 1_455 S
C3467 C3468 1.400 . S
C3467 C3472 1.490 . S
C3468 H3458 0.930 . S
C3468 C3467 1.400 . S
C3468 C3471 1.386 . S
H3469 C3485 0.930 . S
H3470 C3486 0.931 . S
C3471 H3459 0.929 . S
C3471 C3465 1.390 . S
C3471 C3468 1.386 . S
C3472 C3467 1.490 . S
C3472 C3474 1.427 . S
C3472 C3475 1.403 . S
H3473 C3479 0.930 . S
C3474 H3460 0.881 1_456 S
C3474 C3472 1.427 . S
C3474 C3477 1.395 1_556 S
C3475 C3472 1.403 . S
C3475 C3476 1.524 . S
C3475 C3479 1.400 . S
C3476 H3461 0.960 . S
C3476 H3462 0.960 . S
C3476 H3463 0.960 . S
C3476 C3475 1.524 . S
C3477 C3474 1.395 1_554 S
C3477 C3478 1.392 1_554 S
C3477 C3481 1.495 1_455 S
C3478 C3477 1.392 1_556 S
C3478 C3479 1.385 . S
C3478 C3480 1.478 . S
C3479 H3473 0.930 . S
C3479 C3475 1.400 . S
C3479 C3478 1.385 . S
C3480 C3478 1.478 . S
C3480 C3482 1.387 1_455 S
C3480 C3486 1.383 1_556 S
C3481 C3477 1.495 1_655 S
C3481 H3487 0.959 . S
C3481 H3488 0.961 . S
C3481 H3489 0.960 . S
C3482 C3480 1.387 1_655 S
C3482 C3483 1.394 1_655 S
C3482 H3490 0.925 . S
C3483 C3482 1.394 1_455 S
C3483 C3484 1.383 1_556 S
C3483 H3491 0.929 1_455 S
C3484 C3483 1.383 1_554 S
C3484 C3485 1.377 . S
C3485 H3469 0.930 . S
C3485 C3484 1.377 . S
C3485 C3486 1.379 . S
C3486 H3470 0.931 . S
C3486 C3480 1.383 1_554 S
C3486 C3485 1.379 . S
H3487 C3481 0.959 . S
H3488 C3481 0.961 . S
H3489 C3481 0.960 . S
H3490 C3482 0.925 . S
H3491 C3483 0.929 1_655 S
H3492 C3500 0.929 . S
H3493 C3502 0.930 . S
H3494 C3504 0.930 . S
H3495 C3507 0.929 . S
H3496 C3510 0.930 . S
H3497 C3512 0.960 . S
H3498 C3512 0.960 . S
H3499 C3512 0.960 . S
C3500 H3492 0.929 . S
C3500 C3501 1.377 . S
C3500 C3502 1.384 . S
C3501 C3500 1.377 . S
C3501 C3507 1.390 . S
C3502 H3493 0.930 . S
C3502 C3500 1.384 . S
C3502 C3503 1.372 . S
C3503 C3502 1.372 . S
C3503 C3504 1.400 . S
C3503 C3508 1.490 . S
C3504 H3494 0.930 . S
C3504 C3503 1.400 . S
C3504 C3507 1.386 . S
H3505 C3521 0.930 . S
H3506 C3522 0.931 . S
C3507 H3495 0.929 . S
C3507 C3501 1.390 . S
C3507 C3504 1.386 . S
C3508 C3503 1.490 . S
C3508 C3510 1.395 . S
C3508 C3511 1.403 . S
H3509 C3515 0.930 . S
C3510 H3496 0.930 . S
C3510 C3508 1.395 . S
C3510 C3513 1.403 . S
C3511 C3508 1.403 . S
C3511 C3512 1.524 . S
C3511 C3515 1.400 . S
C3512 H3497 0.960 . S
C3512 H3498 0.960 . S
C3512 H3499 0.960 . S
C3512 C3511 1.524 . S
C3513 C3510 1.403 . S
C3513 C3514 1.392 . S
C3513 C3517 1.495 . S
C3514 C3513 1.392 . S
C3514 C3515 1.385 . S
C3514 C3516 1.478 . S
C3515 H3509 0.930 . S
C3515 C3511 1.400 . S
C3515 C3514 1.385 . S
C3516 C3514 1.478 . S
C3516 C3518 1.381 . S
C3516 C3522 1.383 . S
C3517 C3513 1.495 . S
C3517 H3523 0.959 . S
C3517 H3524 0.961 . S
C3517 H3525 0.960 . S
C3518 C3516 1.381 . S
C3518 C3519 1.394 . S
C3518 H3526 0.930 . S
C3519 C3518 1.394 . S
C3519 C3520 1.383 . S
C3519 H3527 0.929 . S
C3520 C3519 1.383 . S
C3520 C3521 1.377 . S
C3521 H3505 0.930 . S
C3521 C3520 1.377 . S
C3521 C3522 1.379 . S
C3522 H3506 0.931 . S
C3522 C3516 1.383 . S
C3522 C3521 1.379 . S
H3523 C3517 0.959 . S
H3524 C3517 0.961 . S
H3525 C3517 0.960 . S
H3526 C3518 0.930 . S
H3527 C3519 0.929 . S
H3528 C3536 0.929 . S
H3529 C3538 0.930 . S
H3530 C3540 0.930 . S
H3531 C3543 0.929 . S
H3532 C3546 0.930 . S
H3533 C3548 0.960 . S
H3534 C3548 0.960 . S
H3535 C3548 0.960 . S
C3536 H3528 0.929 . S
C3536 C3537 1.377 . S
C3536 C3538 1.384 . S
C3537 C3536 1.377 . S
C3537 C3543 1.390 . S
C3538 H3529 0.930 . S
C3538 C3536 1.384 . S
C3538 C3539 1.372 . S
C3539 C3538 1.372 . S
C3539 C3540 1.400 . S
C3539 C3544 1.490 . S
C3540 H3530 0.930 . S
C3540 C3539 1.400 . S
C3540 C3543 1.386 . S
H3541 C3557 0.930 . S
H3542 C3558 0.931 . S
C3543 H3531 0.929 . S
C3543 C3537 1.390 . S
C3543 C3540 1.386 . S
C3544 C3539 1.490 . S
C3544 C3546 1.395 . S
C3544 C3547 1.403 . S
H3545 C3551 0.930 . S
C3546 H3532 0.930 . S
C3546 C3544 1.395 . S
C3546 C3549 1.403 . S
C3547 C3544 1.403 . S
C3547 C3548 1.524 . S
C3547 C3551 1.400 . S
C3548 H3533 0.960 . S
C3548 H3534 0.960 . S
C3548 H3535 0.960 . S
C3548 C3547 1.524 . S
C3549 C3546 1.403 . S
C3549 C3550 1.392 . S
C3549 C3553 1.495 . S
C3550 C3549 1.392 . S
C3550 C3551 1.385 . S
C3550 C3552 1.478 . S
C3551 H3545 0.930 . S
C3551 C3547 1.400 . S
C3551 C3550 1.385 . S
C3552 C3550 1.478 . S
C3552 C3554 1.381 . S
C3552 C3558 1.383 . S
C3553 C3549 1.495 . S
C3553 H3559 0.959 . S
C3553 H3560 0.961 . S
C3553 H3561 0.960 . S
C3554 C3552 1.381 . S
C3554 C3555 1.394 . S
C3554 H3562 0.930 . S
C3555 C3554 1.394 . S
C3555 C3556 1.383 . S
C3555 H3563 0.929 . S
C3556 C3555 1.383 . S
C3556 C3557 1.377 . S
C3557 H3541 0.930 . S
C3557 C3556 1.377 . S
C3557 C3558 1.379 . S
C3558 H3542 0.931 . S
C3558 C3552 1.383 . S
C3558 C3557 1.379 . S
H3559 C3553 0.959 . S
H3560 C3553 0.961 . S
H3561 C3553 0.960 . S
H3562 C3554 0.930 . S
H3563 C3555 0.929 . S
H3564 C3572 0.929 . S
H3565 C3574 0.930 . S
H3566 C3576 0.930 . S
H3567 C3579 0.929 . S
H3568 C3582 0.930 . S
H3569 C3584 0.960 . S
H3570 C3584 0.960 . S
H3571 C3584 0.960 . S
C3572 H3564 0.929 . S
C3572 C3573 1.377 . S
C3572 C3574 1.384 . S
C3573 C3572 1.377 . S
C3573 C3579 1.390 . S
C3574 H3565 0.930 . S
C3574 C3572 1.384 . S
C3574 C3575 1.372 . S
C3575 C3574 1.372 . S
C3575 C3576 1.400 . S
C3575 C3580 1.490 . S
C3576 H3566 0.930 . S
C3576 C3575 1.400 . S
C3576 C3579 1.386 . S
H3577 C3593 0.930 . S
H3578 C3594 0.931 . S
C3579 H3567 0.929 . S
C3579 C3573 1.390 . S
C3579 C3576 1.386 . S
C3580 C3575 1.490 . S
C3580 C3582 1.395 . S
C3580 C3583 1.403 . S
H3581 C3587 0.930 . S
C3582 H3568 0.930 . S
C3582 C3580 1.395 . S
C3582 C3585 1.403 . S
C3583 C3580 1.403 . S
C3583 C3584 1.524 . S
C3583 C3587 1.400 . S
C3584 H3569 0.960 . S
C3584 H3570 0.960 . S
C3584 H3571 0.960 . S
C3584 C3583 1.524 . S
C3585 C3582 1.403 . S
C3585 C3586 1.392 . S
C3585 C3589 1.495 . S
C3586 C3585 1.392 . S
C3586 C3587 1.385 . S
C3586 C3588 1.478 . S
C3587 H3581 0.930 . S
C3587 C3583 1.400 . S
C3587 C3586 1.385 . S
C3588 C3586 1.478 . S
C3588 C3590 1.381 . S
C3588 C3594 1.383 . S
C3589 C3585 1.495 . S
C3589 H3595 0.959 . S
C3589 H3596 0.961 . S
C3589 H3597 0.960 . S
C3590 C3588 1.381 . S
C3590 C3591 1.394 . S
C3590 H3598 0.930 . S
C3591 C3590 1.394 . S
C3591 C3592 1.383 . S
C3591 H3599 0.929 . S
C3592 C3591 1.383 . S
C3592 C3593 1.377 . S
C3593 H3577 0.930 . S
C3593 C3592 1.377 . S
C3593 C3594 1.379 . S
C3594 H3578 0.931 . S
C3594 C3588 1.383 . S
C3594 C3593 1.379 . S
H3595 C3589 0.959 . S
H3596 C3589 0.961 . S
H3597 C3589 0.960 . S
H3598 C3590 0.930 . S
H3599 C3591 0.929 . S
H3600 C3608 0.929 . S
H3601 C3610 0.930 . S
H3602 C3612 0.930 . S
H3603 C3615 0.929 . S
H3604 C3618 0.930 . S
H3605 C3620 0.960 . S
H3606 C3620 0.960 . S
H3607 C3620 0.960 1_655 S
C3608 H3600 0.929 . S
C3608 C3609 1.377 . S
C3608 C3610 1.384 . S
C3609 C3608 1.377 . S
C3609 C3615 1.390 1_455 S
C3610 H3601 0.930 . S
C3610 C3608 1.384 . S
C3610 C3611 1.372 . S
C3611 C3610 1.372 . S
C3611 C3612 1.400 1_455 S
C3611 C3616 1.490 . S
C3612 H3602 0.930 . S
C3612 C3611 1.400 1_655 S
C3612 C3615 1.386 . S
H3613 C3629 0.930 1_655 S
H3614 C3630 0.931 1_655 S
C3615 H3603 0.929 . S
C3615 C3609 1.390 1_655 S
C3615 C3612 1.386 . S
C3616 C3611 1.490 . S
C3616 C3618 1.395 . S
C3616 C3619 1.403 . S
H3617 C3623 0.930 . S
C3618 H3604 0.930 . S
C3618 C3616 1.395 . S
C3618 C3621 1.403 . S
C3619 C3616 1.403 . S
C3619 C3620 1.524 . S
C3619 C3623 1.400 . S
C3620 H3605 0.960 . S
C3620 H3606 0.960 . S
C3620 H3607 0.960 1_455 S
C3620 C3619 1.524 . S
C3621 C3618 1.403 . S
C3621 C3622 1.392 . S
C3621 C3625 1.495 . S
C3622 C3621 1.392 . S
C3622 C3623 1.385 . S
C3622 C3624 1.478 . S
C3623 H3617 0.930 . S
C3623 C3619 1.400 . S
C3623 C3622 1.385 . S
C3624 C3622 1.478 . S
C3624 C3626 1.381 . S
C3624 C3630 1.383 . S
C3625 C3621 1.495 . S
C3625 H3631 0.959 . S
C3625 H3632 0.961 . S
C3625 H3633 0.960 . S
C3626 C3624 1.381 . S
C3626 C3627 1.394 . S
C3626 H3634 0.930 . S
C3627 C3626 1.394 . S
C3627 C3628 1.383 . S
C3627 H3635 0.929 . S
C3628 C3627 1.383 . S
C3628 C3629 1.377 . S
C3629 H3613 0.930 1_455 S
C3629 C3628 1.377 . S
C3629 C3630 1.379 . S
C3630 H3614 0.931 1_455 S
C3630 C3624 1.383 . S
C3630 C3629 1.379 . S
H3631 C3625 0.959 . S
H3632 C3625 0.961 . S
H3633 C3625 0.960 . S
H3634 C3626 0.930 . S
H3635 C3627 0.929 . S
H3636 C3644 0.929 . S
H3637 C3646 0.930 . S
H3638 C3648 0.930 . S
H3639 C3651 0.929 . S
H3640 C3654 0.930 . S
H3641 C3656 0.960 . S
H3642 C3656 0.960 . S
H3643 C3656 0.960 . S
C3644 H3636 0.929 . S
C3644 C3645 1.377 . S
C3644 C3646 1.384 . S
C3645 C3644 1.377 . S
C3645 C3651 1.390 . S
C3646 H3637 0.930 . S
C3646 C3644 1.384 . S
C3646 C3647 1.372 . S
C3647 C3646 1.372 . S
C3647 C3648 1.400 . S
C3647 C3652 1.490 . S
C3648 H3638 0.930 . S
C3648 C3647 1.400 . S
C3648 C3651 1.386 . S
H3649 C3665 0.930 . S
H3650 C3666 0.931 . S
C3651 H3639 0.929 . S
C3651 C3645 1.390 . S
C3651 C3648 1.386 . S
C3652 C3647 1.490 . S
C3652 C3654 1.395 . S
C3652 C3655 1.403 . S
H3653 C3659 0.930 . S
C3654 H3640 0.930 . S
C3654 C3652 1.395 . S
C3654 C3657 1.403 . S
C3655 C3652 1.403 . S
C3655 C3656 1.524 . S
C3655 C3659 1.400 . S
C3656 H3641 0.960 . S
C3656 H3642 0.960 . S
C3656 H3643 0.960 . S
C3656 C3655 1.524 . S
C3657 C3654 1.403 . S
C3657 C3658 1.392 . S
C3657 C3661 1.495 . S
C3658 C3657 1.392 . S
C3658 C3659 1.385 . S
C3658 C3660 1.478 . S
C3659 H3653 0.930 . S
C3659 C3655 1.400 . S
C3659 C3658 1.385 . S
C3660 C3658 1.478 . S
C3660 C3662 1.381 . S
C3660 C3666 1.383 . S
C3661 C3657 1.495 . S
C3661 H3667 0.959 . S
C3661 H3668 0.961 . S
C3661 H3669 0.960 . S
C3662 C3660 1.381 . S
C3662 C3663 1.394 . S
C3662 H3670 0.930 . S
C3663 C3662 1.394 . S
C3663 C3664 1.383 . S
C3663 H3671 0.929 . S
C3664 C3663 1.383 . S
C3664 C3665 1.377 . S
C3665 H3649 0.930 . S
C3665 C3664 1.377 . S
C3665 C3666 1.379 . S
C3666 H3650 0.931 . S
C3666 C3660 1.383 . S
C3666 C3665 1.379 . S
H3667 C3661 0.959 . S
H3668 C3661 0.961 . S
H3669 C3661 0.960 . S
H3670 C3662 0.930 . S
H3671 C3663 0.929 . S
H3672 C3680 0.929 . S
H3673 C3682 0.930 . S
H3674 C3684 0.930 . S
H3675 C3687 0.929 . S
H3676 C3690 0.930 . S
H3677 C3692 0.960 . S
H3678 C3692 0.960 . S
H3679 C3692 0.960 . S
C3680 H3672 0.929 . S
C3680 C3681 1.377 . S
C3680 C3682 1.384 . S
C3681 C3680 1.377 . S
C3681 C3687 1.390 . S
C3682 H3673 0.930 . S
C3682 C3680 1.384 . S
C3682 C3683 1.372 . S
C3683 C3682 1.372 . S
C3683 C3684 1.400 . S
C3683 C3688 1.490 . S
C3684 H3674 0.930 . S
C3684 C3683 1.400 . S
C3684 C3687 1.386 . S
H3685 C3701 0.930 . S
H3686 C3702 0.931 . S
C3687 H3675 0.929 . S
C3687 C3681 1.390 . S
C3687 C3684 1.386 . S
C3688 C3683 1.490 . S
C3688 C3690 1.395 . S
C3688 C3691 1.403 . S
H3689 C3695 0.930 . S
C3690 H3676 0.930 . S
C3690 C3688 1.395 . S
C3690 C3693 1.403 . S
C3691 C3688 1.403 . S
C3691 C3692 1.524 . S
C3691 C3695 1.400 . S
C3692 H3677 0.960 . S
C3692 H3678 0.960 . S
C3692 H3679 0.960 . S
C3692 C3691 1.524 . S
C3693 C3690 1.403 . S
C3693 C3694 1.392 . S
C3693 C3697 1.495 . S
C3694 C3693 1.392 . S
C3694 C3695 1.385 . S
C3694 C3696 1.478 . S
C3695 H3689 0.930 . S
C3695 C3691 1.400 . S
C3695 C3694 1.385 . S
C3696 C3694 1.478 . S
C3696 C3698 1.381 . S
C3696 C3702 1.383 . S
C3697 C3693 1.495 . S
C3697 H3703 0.959 . S
C3697 H3704 0.961 . S
C3697 H3705 0.960 . S
C3698 C3696 1.381 . S
C3698 C3699 1.394 . S
C3698 H3706 0.930 . S
C3699 C3698 1.394 . S
C3699 C3700 1.383 . S
C3699 H3707 0.929 . S
C3700 C3699 1.383 . S
C3700 C3701 1.377 . S
C3701 H3685 0.930 . S
C3701 C3700 1.377 . S
C3701 C3702 1.379 . S
C3702 H3686 0.931 . S
C3702 C3696 1.383 . S
C3702 C3701 1.379 . S
H3703 C3697 0.959 . S
H3704 C3697 0.961 . S
H3705 C3697 0.960 . S
H3706 C3698 0.930 . S
H3707 C3699 0.929 . S
H3708 C3716 0.929 . S
H3709 C3718 0.930 . S
H3710 C3720 0.930 . S
H3711 C3723 0.929 . S
H3712 C3726 0.930 . S
H3713 C3728 0.960 . S
H3714 C3728 0.960 . S
H3715 C3728 0.960 . S
C3716 H3708 0.929 . S
C3716 C3717 1.377 . S
C3716 C3718 1.384 1_554 S
C3717 C3716 1.377 . S
C3717 C3723 1.390 1_554 S
C3718 H3709 0.930 . S
C3718 C3716 1.384 1_556 S
C3718 C3719 1.372 . S
C3719 C3718 1.372 . S
C3719 C3720 1.400 . S
C3719 C3724 1.490 . S
C3720 H3710 0.930 . S
C3720 C3719 1.400 . S
C3720 C3723 1.386 . S
H3721 C3737 0.930 . S
H3722 C3738 0.931 . S
C3723 H3711 0.929 . S
C3723 C3717 1.390 1_556 S
C3723 C3720 1.386 . S
C3724 C3719 1.490 . S
C3724 C3726 1.395 . S
C3724 C3727 1.403 . S
H3725 C3731 0.930 . S
C3726 H3712 0.930 . S
C3726 C3724 1.395 . S
C3726 C3729 1.403 . S
C3727 C3724 1.403 . S
C3727 C3728 1.524 . S
C3727 C3731 1.400 . S
C3728 H3713 0.960 . S
C3728 H3714 0.960 . S
C3728 H3715 0.960 . S
C3728 C3727 1.524 . S
C3729 C3726 1.403 . S
C3729 C3730 1.392 . S
C3729 C3733 1.495 . S
C3730 C3729 1.392 . S
C3730 C3731 1.385 . S
C3730 C3732 1.478 . S
C3731 H3725 0.930 . S
C3731 C3727 1.400 . S
C3731 C3730 1.385 . S
C3732 C3730 1.478 . S
C3732 C3734 1.381 . S
C3732 C3738 1.383 . S
C3733 C3729 1.495 . S
C3733 H3739 0.959 . S
C3733 H3740 0.961 . S
C3733 H3741 0.960 . S
C3734 C3732 1.381 . S
C3734 C3735 1.394 . S
C3734 H3742 0.930 . S
C3735 C3734 1.394 . S
C3735 C3736 1.383 . S
C3735 H3743 0.929 . S
C3736 C3735 1.383 . S
C3736 C3737 1.377 . S
C3737 H3721 0.930 . S
C3737 C3736 1.377 . S
C3737 C3738 1.379 . S
C3738 H3722 0.931 . S
C3738 C3732 1.383 . S
C3738 C3737 1.379 . S
H3739 C3733 0.959 . S
H3740 C3733 0.961 . S
H3741 C3733 0.960 . S
H3742 C3734 0.930 . S
H3743 C3735 0.929 . S
H3744 C3752 0.929 . S
H3745 C3754 0.930 . S
H3746 C3756 0.930 . S
H3747 C3759 0.929 . S
H3748 C3762 0.930 . S
H3749 C3764 0.960 . S
H3750 C3764 0.960 . S
H3751 C3764 0.960 . S
C3752 H3744 0.929 . S
C3752 C3753 1.377 . S
C3752 C3754 1.384 . S
C3753 C3752 1.377 . S
C3753 C3759 1.390 . S
C3754 H3745 0.930 . S
C3754 C3752 1.384 . S
C3754 C3755 1.372 . S
C3755 C3754 1.372 . S
C3755 C3756 1.400 . S
C3755 C3760 1.490 . S
C3756 H3746 0.930 . S
C3756 C3755 1.400 . S
C3756 C3759 1.386 . S
H3757 C3773 0.930 . S
H3758 C3774 0.931 . S
C3759 H3747 0.929 . S
C3759 C3753 1.390 . S
C3759 C3756 1.386 . S
C3760 C3755 1.490 . S
C3760 C3762 1.395 . S
C3760 C3763 1.403 . S
H3761 C3767 0.930 . S
C3762 H3748 0.930 . S
C3762 C3760 1.395 . S
C3762 C3765 1.403 . S
C3763 C3760 1.403 . S
C3763 C3764 1.524 . S
C3763 C3767 1.400 . S
C3764 H3749 0.960 . S
C3764 H3750 0.960 . S
C3764 H3751 0.960 . S
C3764 C3763 1.524 . S
C3765 C3762 1.403 . S
C3765 C3766 1.392 . S
C3765 C3769 1.495 . S
C3766 C3765 1.392 . S
C3766 C3767 1.385 . S
C3766 C3768 1.478 . S
C3767 H3761 0.930 . S
C3767 C3763 1.400 . S
C3767 C3766 1.385 . S
C3768 C3766 1.478 . S
C3768 C3770 1.381 . S
C3768 C3774 1.383 . S
C3769 C3765 1.495 . S
C3769 H3775 0.959 . S
C3769 H3776 0.961 . S
C3769 H3777 0.960 . S
C3770 C3768 1.381 . S
C3770 C3771 1.394 . S
C3770 H3778 0.930 . S
C3771 C3770 1.394 . S
C3771 C3772 1.383 . S
C3771 H3779 0.929 . S
C3772 C3771 1.383 . S
C3772 C3773 1.377 . S
C3773 H3757 0.930 . S
C3773 C3772 1.377 . S
C3773 C3774 1.379 . S
C3774 H3758 0.931 . S
C3774 C3768 1.383 . S
C3774 C3773 1.379 . S
H3775 C3769 0.959 . S
H3776 C3769 0.961 . S
H3777 C3769 0.960 . S
H3778 C3770 0.930 . S
H3779 C3771 0.929 . S
H3780 C3788 0.929 . S
H3781 C3790 0.930 . S
H3782 C3792 0.930 . S
H3783 C3795 0.929 . S
H3784 C3798 0.930 . S
H3785 C3800 0.960 . S
H3786 C3800 0.960 . S
H3787 C3800 0.960 . S
C3788 H3780 0.929 . S
C3788 C3789 1.377 . S
C3788 C3790 1.384 . S
C3789 C3788 1.377 . S
C3789 C3795 1.390 . S
C3790 H3781 0.930 . S
C3790 C3788 1.384 . S
C3790 C3791 1.372 . S
C3791 C3790 1.372 . S
C3791 C3792 1.400 . S
C3791 C3796 1.490 . S
C3792 H3782 0.930 . S
C3792 C3791 1.400 . S
C3792 C3795 1.386 . S
H3793 C3809 0.930 . S
H3794 C3810 0.931 . S
C3795 H3783 0.929 . S
C3795 C3789 1.390 . S
C3795 C3792 1.386 . S
C3796 C3791 1.490 . S
C3796 C3798 1.395 . S
C3796 C3799 1.403 . S
H3797 C3803 0.930 . S
C3798 H3784 0.930 . S
C3798 C3796 1.395 . S
C3798 C3801 1.403 . S
C3799 C3796 1.403 . S
C3799 C3800 1.524 . S
C3799 C3803 1.400 . S
C3800 H3785 0.960 . S
C3800 H3786 0.960 . S
C3800 H3787 0.960 . S
C3800 C3799 1.524 . S
C3801 C3798 1.403 . S
C3801 C3802 1.392 . S
C3801 C3805 1.495 . S
C3802 C3801 1.392 . S
C3802 C3803 1.385 . S
C3802 C3804 1.478 . S
C3803 H3797 0.930 . S
C3803 C3799 1.400 . S
C3803 C3802 1.385 . S
C3804 C3802 1.478 . S
C3804 C3806 1.381 . S
C3804 C3810 1.383 . S
C3805 C3801 1.495 . S
C3805 H3811 0.959 . S
C3805 H3812 0.961 . S
C3805 H3813 0.960 . S
C3806 C3804 1.381 . S
C3806 C3807 1.394 . S
C3806 H3814 0.930 . S
C3807 C3806 1.394 . S
C3807 C3808 1.383 . S
C3807 H3815 0.929 . S
C3808 C3807 1.383 . S
C3808 C3809 1.377 . S
C3809 H3793 0.930 . S
C3809 C3808 1.377 . S
C3809 C3810 1.379 . S
C3810 H3794 0.931 . S
C3810 C3804 1.383 . S
C3810 C3809 1.379 . S
H3811 C3805 0.959 . S
H3812 C3805 0.961 . S
H3813 C3805 0.960 . S
H3814 C3806 0.930 . S
H3815 C3807 0.929 . S
H3816 C3824 0.929 . S
H3817 C3826 0.930 . S
H3818 C3828 0.930 . S
H3819 C3831 0.929 . S
H3820 C3834 0.930 . S
H3821 C3836 0.960 . S
H3822 C3836 0.960 . S
H3823 C3836 0.960 . S
C3824 H3816 0.929 . S
C3824 C3825 1.377 . S
C3824 C3826 1.384 . S
C3825 C3824 1.377 . S
C3825 C3831 1.390 . S
C3826 H3817 0.930 . S
C3826 C3824 1.384 . S
C3826 C3827 1.372 . S
C3827 C3826 1.372 . S
C3827 C3828 1.400 . S
C3827 C3832 1.490 . S
C3828 H3818 0.930 . S
C3828 C3827 1.400 . S
C3828 C3831 1.386 . S
H3829 C3845 0.930 . S
H3830 C3846 0.931 . S
C3831 H3819 0.929 . S
C3831 C3825 1.390 . S
C3831 C3828 1.386 . S
C3832 C3827 1.490 . S
C3832 C3834 1.395 . S
C3832 C3835 1.403 . S
H3833 C3839 0.930 . S
C3834 H3820 0.930 . S
C3834 C3832 1.395 . S
C3834 C3837 1.403 . S
C3835 C3832 1.403 . S
C3835 C3836 1.524 . S
C3835 C3839 1.400 . S
C3836 H3821 0.960 . S
C3836 H3822 0.960 . S
C3836 H3823 0.960 . S
C3836 C3835 1.524 . S
C3837 C3834 1.403 . S
C3837 C3838 1.392 . S
C3837 C3841 1.495 . S
C3838 C3837 1.392 . S
C3838 C3839 1.385 . S
C3838 C3840 1.478 . S
C3839 H3833 0.930 . S
C3839 C3835 1.400 . S
C3839 C3838 1.385 . S
C3840 C3838 1.478 . S
C3840 C3842 1.381 . S
C3840 C3846 1.383 . S
C3841 C3837 1.495 . S
C3841 H3847 0.959 . S
C3841 H3848 0.961 . S
C3841 H3849 0.960 . S
C3842 C3840 1.381 . S
C3842 C3843 1.394 . S
C3842 H3850 0.930 . S
C3843 C3842 1.394 . S
C3843 C3844 1.383 . S
C3843 H3851 0.929 . S
C3844 C3843 1.383 . S
C3844 C3845 1.377 . S
C3845 H3829 0.930 . S
C3845 C3844 1.377 . S
C3845 C3846 1.379 . S
C3846 H3830 0.931 . S
C3846 C3840 1.383 . S
C3846 C3845 1.379 . S
H3847 C3841 0.959 . S
H3848 C3841 0.961 . S
H3849 C3841 0.960 . S
H3850 C3842 0.930 . S
H3851 C3843 0.929 . S
H3852 C3860 0.929 . S
H3853 C3862 0.930 . S
H3854 C3864 0.930 . S
H3855 C3867 0.929 . S
H3856 C3870 0.930 . S
H3857 C3872 0.960 . S
H3858 C3872 0.960 . S
H3859 C3872 0.960 . S
C3860 H3852 0.929 . S
C3860 C3861 1.377 . S
C3860 C3862 1.384 . S
C3861 C3860 1.377 . S
C3861 C3867 1.390 . S
C3862 H3853 0.930 . S
C3862 C3860 1.384 . S
C3862 C3863 1.372 . S
C3863 C3862 1.372 . S
C3863 C3864 1.400 . S
C3863 C3868 1.490 . S
C3864 H3854 0.930 . S
C3864 C3863 1.400 . S
C3864 C3867 1.386 . S
H3865 C3881 0.930 . S
H3866 C3882 0.931 . S
C3867 H3855 0.929 . S
C3867 C3861 1.390 . S
C3867 C3864 1.386 . S
C3868 C3863 1.490 . S
C3868 C3870 1.395 . S
C3868 C3871 1.403 . S
H3869 C3875 0.930 . S
C3870 H3856 0.930 . S
C3870 C3868 1.395 . S
C3870 C3873 1.403 . S
C3871 C3868 1.403 . S
C3871 C3872 1.524 . S
C3871 C3875 1.400 . S
C3872 H3857 0.960 . S
C3872 H3858 0.960 . S
C3872 H3859 0.960 . S
C3872 C3871 1.524 . S
C3873 C3870 1.403 . S
C3873 C3874 1.392 . S
C3873 C3877 1.495 . S
C3874 C3873 1.392 . S
C3874 C3875 1.385 . S
C3874 C3876 1.478 . S
C3875 H3869 0.930 . S
C3875 C3871 1.400 . S
C3875 C3874 1.385 . S
C3876 C3874 1.478 . S
C3876 C3878 1.381 . S
C3876 C3882 1.383 . S
C3877 C3873 1.495 . S
C3877 H3883 0.959 . S
C3877 H3884 0.961 . S
C3877 H3885 0.960 . S
C3878 C3876 1.381 . S
C3878 C3879 1.394 . S
C3878 H3886 0.930 . S
C3879 C3878 1.394 . S
C3879 C3880 1.383 . S
C3879 H3887 0.929 . S
C3880 C3879 1.383 . S
C3880 C3881 1.377 . S
C3881 H3865 0.930 . S
C3881 C3880 1.377 . S
C3881 C3882 1.379 . S
C3882 H3866 0.931 . S
C3882 C3876 1.383 . S
C3882 C3881 1.379 . S
H3883 C3877 0.959 . S
H3884 C3877 0.961 . S
H3885 C3877 0.960 . S
H3886 C3878 0.930 . S
H3887 C3879 0.929 . S
H3888 C3896 0.929 . S
H3889 C3898 0.930 . S
H3890 C3900 0.930 . S
H3891 C3903 0.929 . S
H3892 C3906 0.930 . S
H3893 C3908 0.960 . S
H3894 C3908 0.960 . S
H3895 C3908 0.960 . S
C3896 H3888 0.929 . S
C3896 C3897 1.377 . S
C3896 C3898 1.384 . S
C3897 C3896 1.377 . S
C3897 C3903 1.390 . S
C3898 H3889 0.930 . S
C3898 C3896 1.384 . S
C3898 C3899 1.372 . S
C3899 C3898 1.372 . S
C3899 C3900 1.400 . S
C3899 C3904 1.490 . S
C3900 H3890 0.930 . S
C3900 C3899 1.400 . S
C3900 C3903 1.386 . S
H3901 C3917 0.930 . S
H3902 C3918 0.931 . S
C3903 H3891 0.929 . S
C3903 C3897 1.390 . S
C3903 C3900 1.386 . S
C3904 C3899 1.490 . S
C3904 C3906 1.395 . S
C3904 C3907 1.403 . S
H3905 C3911 0.930 . S
C3906 H3892 0.930 . S
C3906 C3904 1.395 . S
C3906 C3909 1.403 . S
C3907 C3904 1.403 . S
C3907 C3908 1.524 . S
C3907 C3911 1.400 . S
C3908 H3893 0.960 . S
C3908 H3894 0.960 . S
C3908 H3895 0.960 . S
C3908 C3907 1.524 . S
C3909 C3906 1.403 . S
C3909 C3910 1.392 . S
C3909 C3913 1.495 . S
C3910 C3909 1.392 . S
C3910 C3911 1.385 . S
C3910 C3912 1.478 . S
C3911 H3905 0.930 . S
C3911 C3907 1.400 . S
C3911 C3910 1.385 . S
C3912 C3910 1.478 . S
C3912 C3914 1.381 . S
C3912 C3918 1.383 . S
C3913 C3909 1.495 . S
C3913 H3919 0.959 . S
C3913 H3920 0.961 . S
C3913 H3921 0.960 . S
C3914 C3912 1.381 . S
C3914 C3915 1.394 . S
C3914 H3922 0.930 . S
C3915 C3914 1.394 . S
C3915 C3916 1.383 . S
C3915 H3923 0.929 . S
C3916 C3915 1.383 . S
C3916 C3917 1.377 . S
C3917 H3901 0.930 . S
C3917 C3916 1.377 . S
C3917 C3918 1.379 . S
C3918 H3902 0.931 . S
C3918 C3912 1.383 . S
C3918 C3917 1.379 . S
H3919 C3913 0.959 . S
H3920 C3913 0.961 . S
H3921 C3913 0.960 . S
H3922 C3914 0.930 . S
H3923 C3915 0.929 . S
H3924 C3932 0.929 . S
H3925 C3934 0.930 . S
H3926 C3936 0.930 . S
H3927 C3939 0.929 . S
H3928 C3942 0.930 . S
H3929 C3944 0.960 . S
H3930 C3944 0.960 . S
H3931 C3944 0.960 . S
C3932 H3924 0.929 . S
C3932 C3933 1.377 . S
C3932 C3934 1.384 . S
C3933 C3932 1.377 . S
C3933 C3939 1.390 . S
C3934 H3925 0.930 . S
C3934 C3932 1.384 . S
C3934 C3935 1.372 . S
C3935 C3934 1.372 . S
C3935 C3936 1.400 . S
C3935 C3940 1.490 . S
C3936 H3926 0.930 . S
C3936 C3935 1.400 . S
C3936 C3939 1.386 . S
H3937 C3953 0.930 . S
H3938 C3954 0.931 . S
C3939 H3927 0.929 . S
C3939 C3933 1.390 . S
C3939 C3936 1.386 . S
C3940 C3935 1.490 . S
C3940 C3942 1.395 . S
C3940 C3943 1.403 . S
H3941 C3947 0.930 . S
C3942 H3928 0.930 . S
C3942 C3940 1.395 . S
C3942 C3945 1.403 . S
C3943 C3940 1.403 . S
C3943 C3944 1.524 . S
C3943 C3947 1.400 . S
C3944 H3929 0.960 . S
C3944 H3930 0.960 . S
C3944 H3931 0.960 . S
C3944 C3943 1.524 . S
C3945 C3942 1.403 . S
C3945 C3946 1.392 . S
C3945 C3949 1.495 . S
C3946 C3945 1.392 . S
C3946 C3947 1.385 . S
C3946 C3948 1.478 . S
C3947 H3941 0.930 . S
C3947 C3943 1.400 . S
C3947 C3946 1.385 . S
C3948 C3946 1.478 . S
C3948 C3950 1.381 . S
C3948 C3954 1.383 . S
C3949 C3945 1.495 . S
C3949 H3955 0.959 . S
C3949 H3956 0.961 . S
C3949 H3957 0.960 . S
C3950 C3948 1.381 . S
C3950 C3951 1.394 . S
C3950 H3958 0.930 . S
C3951 C3950 1.394 . S
C3951 C3952 1.383 . S
C3951 H3959 0.929 . S
C3952 C3951 1.383 . S
C3952 C3953 1.377 . S
C3953 H3937 0.930 . S
C3953 C3952 1.377 . S
C3953 C3954 1.379 . S
C3954 H3938 0.931 . S
C3954 C3948 1.383 . S
C3954 C3953 1.379 . S
H3955 C3949 0.959 . S
H3956 C3949 0.961 . S
H3957 C3949 0.960 . S
H3958 C3950 0.930 . S
H3959 C3951 0.929 . S
H3960 C3968 0.929 . S
H3961 C3970 0.930 . S
H3962 C3972 0.930 . S
H3963 C3975 0.929 . S
H3964 C3978 0.930 . S
H3965 C3980 0.960 . S
H3966 C3980 0.960 . S
H3967 C3980 0.960 . S
C3968 H3960 0.929 . S
C3968 C3969 1.377 . S
C3968 C3970 1.384 . S
C3969 C3968 1.377 . S
C3969 C3975 1.390 . S
C3970 H3961 0.930 . S
C3970 C3968 1.384 . S
C3970 C3971 1.372 . S
C3971 C3970 1.372 . S
C3971 C3972 1.400 . S
C3971 C3976 1.490 . S
C3972 H3962 0.930 . S
C3972 C3971 1.400 . S
C3972 C3975 1.386 . S
H3973 C3989 0.930 . S
H3974 C3990 0.931 . S
C3975 H3963 0.929 . S
C3975 C3969 1.390 . S
C3975 C3972 1.386 . S
C3976 C3971 1.490 . S
C3976 C3978 1.395 . S
C3976 C3979 1.403 . S
H3977 C3983 0.930 . S
C3978 H3964 0.930 . S
C3978 C3976 1.395 . S
C3978 C3981 1.403 . S
C3979 C3976 1.403 . S
C3979 C3980 1.524 . S
C3979 C3983 1.400 . S
C3980 H3965 0.960 . S
C3980 H3966 0.960 . S
C3980 H3967 0.960 . S
C3980 C3979 1.524 . S
C3981 C3978 1.403 . S
C3981 C3982 1.392 . S
C3981 C3985 1.495 . S
C3982 C3981 1.392 . S
C3982 C3983 1.385 . S
C3982 C3984 1.478 . S
C3983 H3977 0.930 . S
C3983 C3979 1.400 . S
C3983 C3982 1.385 . S
C3984 C3982 1.478 . S
C3984 C3986 1.381 . S
C3984 C3990 1.383 . S
C3985 C3981 1.495 . S
C3985 H3991 0.959 . S
C3985 H3992 0.961 . S
C3985 H3993 0.960 . S
C3986 C3984 1.381 . S
C3986 C3987 1.394 . S
C3986 H3994 0.930 . S
C3987 C3986 1.394 . S
C3987 C3988 1.383 . S
C3987 H3995 0.929 . S
C3988 C3987 1.383 . S
C3988 C3989 1.377 . S
C3989 H3973 0.930 . S
C3989 C3988 1.377 . S
C3989 C3990 1.379 . S
C3990 H3974 0.931 . S
C3990 C3984 1.383 . S
C3990 C3989 1.379 . S
H3991 C3985 0.959 . S
H3992 C3985 0.961 . S
H3993 C3985 0.960 . S
H3994 C3986 0.930 . S
H3995 C3987 0.929 . S
H3996 C4004 0.929 . S
H3997 C4006 0.930 . S
H3998 C4008 0.930 . S
H3999 C4011 0.929 . S
H4000 C4014 0.930 . S
H4001 C4016 0.960 . S
H4002 C4016 0.960 . S
H4003 C4016 0.960 . S
C4004 H3996 0.929 . S
C4004 C4005 1.377 . S
C4004 C4006 1.384 . S
C4005 C4004 1.377 . S
C4005 C4011 1.390 . S
C4006 H3997 0.930 . S
C4006 C4004 1.384 . S
C4006 C4007 1.372 . S
C4007 C4006 1.372 . S
C4007 C4008 1.400 . S
C4007 C4012 1.490 . S
C4008 H3998 0.930 . S
C4008 C4007 1.400 . S
C4008 C4011 1.386 . S
H4009 C4025 0.930 . S
H4010 C4026 0.931 . S
C4011 H3999 0.929 . S
C4011 C4005 1.390 . S
C4011 C4008 1.386 . S
C4012 C4007 1.490 . S
C4012 C4014 1.395 . S
C4012 C4015 1.403 . S
H4013 C4019 0.930 . S
C4014 H4000 0.930 . S
C4014 C4012 1.395 . S
C4014 C4017 1.403 . S
C4015 C4012 1.403 . S
C4015 C4016 1.524 . S
C4015 C4019 1.400 . S
C4016 H4001 0.960 . S
C4016 H4002 0.960 . S
C4016 H4003 0.960 . S
C4016 C4015 1.524 . S
C4017 C4014 1.403 . S
C4017 C4018 1.392 . S
C4017 C4021 1.495 . S
C4018 C4017 1.392 . S
C4018 C4019 1.385 . S
C4018 C4020 1.478 . S
C4019 H4013 0.930 . S
C4019 C4015 1.400 . S
C4019 C4018 1.385 . S
C4020 C4018 1.478 . S
C4020 C4022 1.381 . S
C4020 C4026 1.383 . S
C4021 C4017 1.495 . S
C4021 H4027 0.959 . S
C4021 H4028 0.961 . S
C4021 H4029 0.960 . S
C4022 C4020 1.381 . S
C4022 C4023 1.394 . S
C4022 H4030 0.930 . S
C4023 C4022 1.394 . S
C4023 C4024 1.383 . S
C4023 H4031 0.929 . S
C4024 C4023 1.383 . S
C4024 C4025 1.377 . S
C4025 H4009 0.930 . S
C4025 C4024 1.377 . S
C4025 C4026 1.379 . S
C4026 H4010 0.931 . S
C4026 C4020 1.383 . S
C4026 C4025 1.379 . S
H4027 C4021 0.959 . S
H4028 C4021 0.961 . S
H4029 C4021 0.960 . S
H4030 C4022 0.930 . S
H4031 C4023 0.929 . S
H4032 C4040 0.929 . S
H4033 C4042 0.930 . S
H4034 C4044 0.930 . S
H4035 C4047 0.929 . S
H4036 C4050 0.930 . S
H4037 C4052 0.960 . S
H4038 C4052 0.960 . S
H4039 C4052 0.960 . S
C4040 H4032 0.929 . S
C4040 C4041 1.377 . S
C4040 C4042 1.384 . S
C4041 C4040 1.377 . S
C4041 C4047 1.390 . S
C4042 H4033 0.930 . S
C4042 C4040 1.384 . S
C4042 C4043 1.372 . S
C4043 C4042 1.372 . S
C4043 C4044 1.400 . S
C4043 C4048 1.490 . S
C4044 H4034 0.930 . S
C4044 C4043 1.400 . S
C4044 C4047 1.386 . S
H4045 C4061 0.930 . S
H4046 C4062 0.931 . S
C4047 H4035 0.929 . S
C4047 C4041 1.390 . S
C4047 C4044 1.386 . S
C4048 C4043 1.490 . S
C4048 C4050 1.395 . S
C4048 C4051 1.403 . S
H4049 C4055 0.930 . S
C4050 H4036 0.930 . S
C4050 C4048 1.395 . S
C4050 C4053 1.403 . S
C4051 C4048 1.403 . S
C4051 C4052 1.524 . S
C4051 C4055 1.400 . S
C4052 H4037 0.960 . S
C4052 H4038 0.960 . S
C4052 H4039 0.960 . S
C4052 C4051 1.524 . S
C4053 C4050 1.403 . S
C4053 C4054 1.392 . S
C4053 C4057 1.495 . S
C4054 C4053 1.392 . S
C4054 C4055 1.385 . S
C4054 C4056 1.478 . S
C4055 H4049 0.930 . S
C4055 C4051 1.400 . S
C4055 C4054 1.385 . S
C4056 C4054 1.478 . S
C4056 C4058 1.381 . S
C4056 C4062 1.383 . S
C4057 C4053 1.495 . S
C4057 H4063 0.959 . S
C4057 H4064 0.961 . S
C4057 H4065 0.960 . S
C4058 C4056 1.381 . S
C4058 C4059 1.394 . S
C4058 H4066 0.930 . S
C4059 C4058 1.394 . S
C4059 C4060 1.383 . S
C4059 H4067 0.929 . S
C4060 C4059 1.383 . S
C4060 C4061 1.377 . S
C4061 H4045 0.930 . S
C4061 C4060 1.377 . S
C4061 C4062 1.379 . S
C4062 H4046 0.931 . S
C4062 C4056 1.383 . S
C4062 C4061 1.379 . S
H4063 C4057 0.959 . S
H4064 C4057 0.961 . S
H4065 C4057 0.960 . S
H4066 C4058 0.930 . S
H4067 C4059 0.929 . S
H4068 C4076 0.929 . S
H4069 C4078 0.930 . S
H4070 C4080 0.930 . S
H4071 C4083 0.929 . S
H4072 C4086 0.931 . S
H4073 C4088 0.960 . S
H4074 C4088 0.960 . S
H4075 C4088 0.960 . S
C4076 H4068 0.929 . S
C4076 C4077 1.377 1_556 S
C4076 C4078 1.384 . S
C4077 C4076 1.377 1_554 S
C4077 C4083 1.390 . S
C4078 H4069 0.930 . S
C4078 C4076 1.384 . S
C4078 C4079 1.372 1_556 S
C4079 C4078 1.372 1_554 S
C4079 C4080 1.400 . S
C4079 C4084 1.490 . S
C4080 H4070 0.930 . S
C4080 C4079 1.400 . S
C4080 C4083 1.386 . S
H4081 C4097 0.930 . S
H4082 C4098 0.931 . S
C4083 H4071 0.929 . S
C4083 C4077 1.390 . S
C4083 C4080 1.386 . S
C4084 C4079 1.490 . S
C4084 C4086 1.395 . S
C4084 C4087 1.403 . S
H4085 C4091 0.930 . S
C4086 H4072 0.931 . S
C4086 C4084 1.395 . S
C4086 C4089 1.403 . S
C4087 C4084 1.403 . S
C4087 C4088 1.524 . S
C4087 C4091 1.400 . S
C4088 H4073 0.960 . S
C4088 H4074 0.960 . S
C4088 H4075 0.960 . S
C4088 C4087 1.524 . S
C4089 C4086 1.403 . S
C4089 C4090 1.392 . S
C4089 C4093 1.511 1_565 S
C4090 C4089 1.392 . S
C4090 C4091 1.385 . S
C4090 C4092 1.478 . S
C4091 H4085 0.930 . S
C4091 C4087 1.400 . S
C4091 C4090 1.385 . S
C4092 C4090 1.478 . S
C4092 C4094 1.381 1_554 S
C4092 C4098 1.383 . S
C4093 C4089 1.511 1_545 S
C4093 H4099 0.950 1_554 S
C4093 H4100 0.990 . S
C4093 H4101 0.926 1_554 S
C4094 C4092 1.381 1_556 S
C4094 C4095 1.397 1_566 S
C4094 H4102 0.930 . S
C4095 C4094 1.397 1_544 S
C4095 C4096 1.430 . S
C4095 H4103 0.882 1_554 S
C4096 C4095 1.430 . S
C4096 C4097 1.377 . S
C4097 H4081 0.930 . S
C4097 C4096 1.377 . S
C4097 C4098 1.379 1_545 S
C4098 H4082 0.931 . S
C4098 C4092 1.383 . S
C4098 C4097 1.379 1_565 S
H4099 C4093 0.950 1_556 S
H4100 C4093 0.990 . S
H4101 C4093 0.926 1_556 S
H4102 C4094 0.930 . S
H4103 C4095 0.882 1_556 S
H4104 C4112 0.929 . S
H4105 C4114 0.930 . S
H4106 C4116 0.930 . S
H4107 C4119 0.929 . S
H4108 C4122 0.930 . S
H4109 C4124 0.960 . S
H4110 C4124 0.960 . S
H4111 C4124 0.960 . S
C4112 H4104 0.929 . S
C4112 C4113 1.377 . S
C4112 C4114 1.384 . S
C4113 C4112 1.377 . S
C4113 C4119 1.390 . S
C4114 H4105 0.930 . S
C4114 C4112 1.384 . S
C4114 C4115 1.372 . S
C4115 C4114 1.372 . S
C4115 C4116 1.400 . S
C4115 C4120 1.490 . S
C4116 H4106 0.930 . S
C4116 C4115 1.400 . S
C4116 C4119 1.386 . S
H4117 C4133 0.930 . S
H4118 C4134 0.931 . S
C4119 H4107 0.929 . S
C4119 C4113 1.390 . S
C4119 C4116 1.386 . S
C4120 C4115 1.490 . S
C4120 C4122 1.395 . S
C4120 C4123 1.403 . S
H4121 C4127 0.930 . S
C4122 H4108 0.930 . S
C4122 C4120 1.395 . S
C4122 C4125 1.403 . S
C4123 C4120 1.403 . S
C4123 C4124 1.524 . S
C4123 C4127 1.400 . S
C4124 H4109 0.960 . S
C4124 H4110 0.960 . S
C4124 H4111 0.960 . S
C4124 C4123 1.524 . S
C4125 C4122 1.403 . S
C4125 C4126 1.392 . S
C4125 C4129 1.495 . S
C4126 C4125 1.392 . S
C4126 C4127 1.385 . S
C4126 C4128 1.478 . S
C4127 H4121 0.930 . S
C4127 C4123 1.400 . S
C4127 C4126 1.385 . S
C4128 C4126 1.478 . S
C4128 C4130 1.381 . S
C4128 C4134 1.383 . S
C4129 C4125 1.495 . S
C4129 H4135 0.959 . S
C4129 H4136 0.961 . S
C4129 H4137 0.960 . S
C4130 C4128 1.381 . S
C4130 C4131 1.394 . S
C4130 H4138 0.930 . S
C4131 C4130 1.394 . S
C4131 C4132 1.383 . S
C4131 H4139 0.929 . S
C4132 C4131 1.383 . S
C4132 C4133 1.377 . S
C4133 H4117 0.930 . S
C4133 C4132 1.377 . S
C4133 C4134 1.379 . S
C4134 H4118 0.931 . S
C4134 C4128 1.383 . S
C4134 C4133 1.379 . S
H4135 C4129 0.959 . S
H4136 C4129 0.961 . S
H4137 C4129 0.960 . S
H4138 C4130 0.930 . S
H4139 C4131 0.929 . S
H4140 C4148 0.929 . S
H4141 C4150 0.930 . S
H4142 C4152 0.930 1_556 S
H4143 C4155 0.906 1_556 S
H4144 C4158 0.919 1_556 S
H4145 C4160 0.960 . S
H4146 C4160 0.960 . S
H4147 C4160 0.960 . S
C4148 H4140 0.929 . S
C4148 C4149 1.377 . S
C4148 C4150 1.384 . S
C4149 C4148 1.377 . S
C4149 C4155 1.410 . S
C4150 H4141 0.930 . S
C4150 C4148 1.384 . S
C4150 C4151 1.372 . S
C4151 C4150 1.372 . S
C4151 C4152 1.400 . S
C4151 C4156 1.490 . S
C4152 H4142 0.930 1_554 S
C4152 C4151 1.400 . S
C4152 C4155 1.389 . S
H4153 C4169 0.930 . S
H4154 C4170 0.931 . S
C4155 H4143 0.906 1_554 S
C4155 C4149 1.410 . S
C4155 C4152 1.389 . S
C4156 C4151 1.490 . S
C4156 C4158 1.395 . S
C4156 C4159 1.403 . S
H4157 C4163 0.930 . S
C4158 H4144 0.919 1_554 S
C4158 C4156 1.395 . S
C4158 C4161 1.403 . S
C4159 C4156 1.403 . S
C4159 C4160 1.524 . S
C4159 C4163 1.400 . S
C4160 H4145 0.960 . S
C4160 H4146 0.960 . S
C4160 H4147 0.960 . S
C4160 C4159 1.524 . S
C4161 C4158 1.403 . S
C4161 C4162 1.392 . S
C4161 C4165 1.495 1_554 S
C4162 C4161 1.392 . S
C4162 C4163 1.385 . S
C4162 C4164 1.478 . S
C4163 H4157 0.930 . S
C4163 C4159 1.400 . S
C4163 C4162 1.385 . S
C4164 C4162 1.478 . S
C4164 C4166 1.381 . S
C4164 C4170 1.383 . S
C4165 C4161 1.495 1_556 S
C4165 H4171 0.959 . S
C4165 H4172 0.961 . S
C4165 H4173 0.960 1_556 S
C4166 C4164 1.381 . S
C4166 C4167 1.394 . S
C4166 H4174 0.930 . S
C4167 C4166 1.394 . S
C4167 C4168 1.383 . S
C4167 H4175 0.929 . S
C4168 C4167 1.383 . S
C4168 C4169 1.377 . S
C4169 H4153 0.930 . S
C4169 C4168 1.377 . S
C4169 C4170 1.379 . S
C4170 H4154 0.931 . S
C4170 C4164 1.383 . S
C4170 C4169 1.379 . S
H4171 C4165 0.959 . S
H4172 C4165 0.961 . S
H4173 C4165 0.960 1_554 S
H4174 C4166 0.930 . S
H4175 C4167 0.929 . S
H4176 C4184 0.929 . S
H4177 C4186 0.930 . S
H4178 C4188 0.930 . S
H4179 C4191 0.929 . S
H4180 C4194 0.930 . S
H4181 C4196 0.960 . S
H4182 C4196 0.960 . S
H4183 C4196 0.960 . S
C4184 H4176 0.929 . S
C4184 C4185 1.377 . S
C4184 C4186 1.384 . S
C4185 C4184 1.377 . S
C4185 C4191 1.390 . S
C4186 H4177 0.930 . S
C4186 C4184 1.384 . S
C4186 C4187 1.372 . S
C4187 C4186 1.372 . S
C4187 C4188 1.400 . S
C4187 C4192 1.490 . S
C4188 H4178 0.930 . S
C4188 C4187 1.400 . S
C4188 C4191 1.386 . S
H4189 C4205 0.930 . S
H4190 C4206 0.931 . S
C4191 H4179 0.929 . S
C4191 C4185 1.390 . S
C4191 C4188 1.386 . S
C4192 C4187 1.490 . S
C4192 C4194 1.395 . S
C4192 C4195 1.403 . S
H4193 C4199 0.930 . S
C4194 H4180 0.930 . S
C4194 C4192 1.395 . S
C4194 C4197 1.403 . S
C4195 C4192 1.403 . S
C4195 C4196 1.524 . S
C4195 C4199 1.400 . S
C4196 H4181 0.960 . S
C4196 H4182 0.960 . S
C4196 H4183 0.960 . S
C4196 C4195 1.524 . S
C4197 C4194 1.403 . S
C4197 C4198 1.392 . S
C4197 C4201 1.495 . S
C4198 C4197 1.392 . S
C4198 C4199 1.385 . S
C4198 C4200 1.478 . S
C4199 H4193 0.930 . S
C4199 C4195 1.400 . S
C4199 C4198 1.385 . S
C4200 C4198 1.478 . S
C4200 C4202 1.381 . S
C4200 C4206 1.383 . S
C4201 C4197 1.495 . S
C4201 H4207 0.959 . S
C4201 H4208 0.961 . S
C4201 H4209 0.960 . S
C4202 C4200 1.381 . S
C4202 C4203 1.394 . S
C4202 H4210 0.930 . S
C4203 C4202 1.394 . S
C4203 C4204 1.383 . S
C4203 H4211 0.929 . S
C4204 C4203 1.383 . S
C4204 C4205 1.377 . S
C4205 H4189 0.930 . S
C4205 C4204 1.377 . S
C4205 C4206 1.379 . S
C4206 H4190 0.931 . S
C4206 C4200 1.383 . S
C4206 C4205 1.379 . S
H4207 C4201 0.959 . S
H4208 C4201 0.961 . S
H4209 C4201 0.960 . S
H4210 C4202 0.930 . S
H4211 C4203 0.929 . S
H4212 C4220 0.929 . S
H4213 C4222 0.930 . S
H4214 C4224 0.930 . S
H4215 C4227 0.929 . S
H4216 C4230 0.930 . S
H4217 C4232 0.960 . S
H4218 C4232 0.960 . S
H4219 C4232 0.960 . S
C4220 H4212 0.929 . S
C4220 C4221 1.377 . S
C4220 C4222 1.384 . S
C4221 C4220 1.377 . S
C4221 C4227 1.390 . S
C4222 H4213 0.930 . S
C4222 C4220 1.384 . S
C4222 C4223 1.372 . S
C4223 C4222 1.372 . S
C4223 C4224 1.400 . S
C4223 C4228 1.490 . S
C4224 H4214 0.930 . S
C4224 C4223 1.400 . S
C4224 C4227 1.386 . S
H4225 C4241 0.930 . S
H4226 C4242 0.931 . S
C4227 H4215 0.929 . S
C4227 C4221 1.390 . S
C4227 C4224 1.386 . S
C4228 C4223 1.490 . S
C4228 C4230 1.395 . S
C4228 C4231 1.403 . S
H4229 C4235 0.930 . S
C4230 H4216 0.930 . S
C4230 C4228 1.395 . S
C4230 C4233 1.403 . S
C4231 C4228 1.403 . S
C4231 C4232 1.524 . S
C4231 C4235 1.400 . S
C4232 H4217 0.960 . S
C4232 H4218 0.960 . S
C4232 H4219 0.960 . S
C4232 C4231 1.524 . S
C4233 C4230 1.403 . S
C4233 C4234 1.392 . S
C4233 C4237 1.495 . S
C4234 C4233 1.392 . S
C4234 C4235 1.385 . S
C4234 C4236 1.478 . S
C4235 H4229 0.930 . S
C4235 C4231 1.400 . S
C4235 C4234 1.385 . S
C4236 C4234 1.478 . S
C4236 C4238 1.381 . S
C4236 C4242 1.383 . S
C4237 C4233 1.495 . S
C4237 H4243 0.959 . S
C4237 H4244 0.961 . S
C4237 H4245 0.960 . S
C4238 C4236 1.381 . S
C4238 C4239 1.394 . S
C4238 H4246 0.930 . S
C4239 C4238 1.394 . S
C4239 C4240 1.383 . S
C4239 H4247 0.929 . S
C4240 C4239 1.383 . S
C4240 C4241 1.377 . S
C4241 H4225 0.930 . S
C4241 C4240 1.377 . S
C4241 C4242 1.379 . S
C4242 H4226 0.931 . S
C4242 C4236 1.383 . S
C4242 C4241 1.379 . S
H4243 C4237 0.959 . S
H4244 C4237 0.961 . S
H4245 C4237 0.960 . S
H4246 C4238 0.930 . S
H4247 C4239 0.929 . S
H4248 C4256 0.929 . S
H4249 C4258 0.930 . S
H4250 C4260 0.930 . S
H4251 C4263 0.929 . S
H4252 C4266 0.930 . S
H4253 C4268 0.960 . S
H4254 C4268 0.960 . S
H4255 C4268 0.960 . S
C4256 H4248 0.929 . S
C4256 C4257 1.377 . S
C4256 C4258 1.384 . S
C4257 C4256 1.377 . S
C4257 C4263 1.390 . S
C4258 H4249 0.930 . S
C4258 C4256 1.384 . S
C4258 C4259 1.372 . S
C4259 C4258 1.372 . S
C4259 C4260 1.400 . S
C4259 C4264 1.490 . S
C4260 H4250 0.930 . S
C4260 C4259 1.400 . S
C4260 C4263 1.386 . S
H4261 C4277 0.930 . S
H4262 C4278 0.931 . S
C4263 H4251 0.929 . S
C4263 C4257 1.390 . S
C4263 C4260 1.386 . S
C4264 C4259 1.490 . S
C4264 C4266 1.395 . S
C4264 C4267 1.403 . S
H4265 C4271 0.930 . S
C4266 H4252 0.930 . S
C4266 C4264 1.395 . S
C4266 C4269 1.403 . S
C4267 C4264 1.403 . S
C4267 C4268 1.524 . S
C4267 C4271 1.400 . S
C4268 H4253 0.960 . S
C4268 H4254 0.960 . S
C4268 H4255 0.960 . S
C4268 C4267 1.524 . S
C4269 C4266 1.403 . S
C4269 C4270 1.392 . S
C4269 C4273 1.495 . S
C4270 C4269 1.392 . S
C4270 C4271 1.385 . S
C4270 C4272 1.478 . S
C4271 H4265 0.930 . S
C4271 C4267 1.400 . S
C4271 C4270 1.385 . S
C4272 C4270 1.478 . S
C4272 C4274 1.381 . S
C4272 C4278 1.383 . S
C4273 C4269 1.495 . S
C4273 H4279 0.959 . S
C4273 H4280 0.961 . S
C4273 H4281 0.960 . S
C4274 C4272 1.381 . S
C4274 C4275 1.394 . S
C4274 H4282 0.930 . S
C4275 C4274 1.394 . S
C4275 C4276 1.383 . S
C4275 H4283 0.929 . S
C4276 C4275 1.383 . S
C4276 C4277 1.377 . S
C4277 H4261 0.930 . S
C4277 C4276 1.377 . S
C4277 C4278 1.379 . S
C4278 H4262 0.931 . S
C4278 C4272 1.383 . S
C4278 C4277 1.379 . S
H4279 C4273 0.959 . S
H4280 C4273 0.961 . S
H4281 C4273 0.960 . S
H4282 C4274 0.930 . S
H4283 C4275 0.929 . S
H4284 C4292 0.929 . S
H4285 C4294 0.930 . S
H4286 C4296 0.930 . S
H4287 C4299 0.929 . S
H4288 C4302 0.930 . S
H4289 C4304 0.960 . S
H4290 C4304 0.960 . S
H4291 C4304 0.960 . S
C4292 H4284 0.929 . S
C4292 C4293 1.377 . S
C4292 C4294 1.384 . S
C4293 C4292 1.377 . S
C4293 C4299 1.390 . S
C4294 H4285 0.930 . S
C4294 C4292 1.384 . S
C4294 C4295 1.372 . S
C4295 C4294 1.372 . S
C4295 C4296 1.400 . S
C4295 C4300 1.490 . S
C4296 H4286 0.930 . S
C4296 C4295 1.400 . S
C4296 C4299 1.386 . S
H4297 C4313 0.930 . S
H4298 C4314 0.931 . S
C4299 H4287 0.929 . S
C4299 C4293 1.390 . S
C4299 C4296 1.386 . S
C4300 C4295 1.490 . S
C4300 C4302 1.395 . S
C4300 C4303 1.403 . S
H4301 C4307 0.930 . S
C4302 H4288 0.930 . S
C4302 C4300 1.395 . S
C4302 C4305 1.403 . S
C4303 C4300 1.403 . S
C4303 C4304 1.524 . S
C4303 C4307 1.400 . S
C4304 H4289 0.960 . S
C4304 H4290 0.960 . S
C4304 H4291 0.960 . S
C4304 C4303 1.524 . S
C4305 C4302 1.403 . S
C4305 C4306 1.392 . S
C4305 C4309 1.495 . S
C4306 C4305 1.392 . S
C4306 C4307 1.385 . S
C4306 C4308 1.478 . S
C4307 H4301 0.930 . S
C4307 C4303 1.400 . S
C4307 C4306 1.385 . S
C4308 C4306 1.478 . S
C4308 C4310 1.381 . S
C4308 C4314 1.383 . S
C4309 C4305 1.495 . S
C4309 H4315 0.959 . S
C4309 H4316 0.961 . S
C4309 H4317 0.960 . S
C4310 C4308 1.381 . S
C4310 C4311 1.394 . S
C4310 H4318 0.930 . S
C4311 C4310 1.394 . S
C4311 C4312 1.383 . S
C4311 H4319 0.929 . S
C4312 C4311 1.383 . S
C4312 C4313 1.377 . S
C4313 H4297 0.930 . S
C4313 C4312 1.377 . S
C4313 C4314 1.379 . S
C4314 H4298 0.931 . S
C4314 C4308 1.383 . S
C4314 C4313 1.379 . S
H4315 C4309 0.959 . S
H4316 C4309 0.961 . S
H4317 C4309 0.960 . S
H4318 C4310 0.930 . S
H4319 C4311 0.929 . S
H4320 C4328 0.929 . S
H4321 C4330 0.930 . S
H4322 C4332 0.930 . S
H4323 C4335 0.929 . S
H4324 C4338 0.930 . S
H4325 C4340 0.960 . S
H4326 C4340 0.960 . S
H4327 C4340 0.960 . S
C4328 H4320 0.929 . S
C4328 C4329 1.377 . S
C4328 C4330 1.384 . S
C4329 C4328 1.377 . S
C4329 C4335 1.390 . S
C4330 H4321 0.930 . S
C4330 C4328 1.384 . S
C4330 C4331 1.372 . S
C4331 C4330 1.372 . S
C4331 C4332 1.400 . S
C4331 C4336 1.490 . S
C4332 H4322 0.930 . S
C4332 C4331 1.400 . S
C4332 C4335 1.386 . S
H4333 C4349 0.930 . S
H4334 C4350 0.931 . S
C4335 H4323 0.929 . S
C4335 C4329 1.390 . S
C4335 C4332 1.386 . S
C4336 C4331 1.490 . S
C4336 C4338 1.395 . S
C4336 C4339 1.403 . S
H4337 C4343 0.930 . S
C4338 H4324 0.930 . S
C4338 C4336 1.395 . S
C4338 C4341 1.403 . S
C4339 C4336 1.403 . S
C4339 C4340 1.524 . S
C4339 C4343 1.400 . S
C4340 H4325 0.960 . S
C4340 H4326 0.960 . S
C4340 H4327 0.960 . S
C4340 C4339 1.524 . S
C4341 C4338 1.403 . S
C4341 C4342 1.392 . S
C4341 C4345 1.495 . S
C4342 C4341 1.392 . S
C4342 C4343 1.385 . S
C4342 C4344 1.478 . S
C4343 H4337 0.930 . S
C4343 C4339 1.400 . S
C4343 C4342 1.385 . S
C4344 C4342 1.478 . S
C4344 C4346 1.381 . S
C4344 C4350 1.383 . S
C4345 C4341 1.495 . S
C4345 H4351 0.959 . S
C4345 H4352 0.961 . S
C4345 H4353 0.960 . S
C4346 C4344 1.381 . S
C4346 C4347 1.394 . S
C4346 H4354 0.930 . S
C4347 C4346 1.394 . S
C4347 C4348 1.383 . S
C4347 H4355 0.929 . S
C4348 C4347 1.383 . S
C4348 C4349 1.377 . S
C4349 H4333 0.930 . S
C4349 C4348 1.377 . S
C4349 C4350 1.379 . S
C4350 H4334 0.931 . S
C4350 C4344 1.383 . S
C4350 C4349 1.379 . S
H4351 C4345 0.959 . S
H4352 C4345 0.961 . S
H4353 C4345 0.960 . S
H4354 C4346 0.930 . S
H4355 C4347 0.929 . S
H4356 C4364 0.929 . S
H4357 C4366 0.930 . S
H4358 C4368 0.930 . S
H4359 C4371 0.929 . S
H4360 C4374 0.930 . S
H4361 C4376 0.960 . S
H4362 C4376 0.960 . S
H4363 C4376 0.960 . S
C4364 H4356 0.929 . S
C4364 C4365 1.377 . S
C4364 C4366 1.384 . S
C4365 C4364 1.377 . S
C4365 C4371 1.390 . S
C4366 H4357 0.930 . S
C4366 C4364 1.384 . S
C4366 C4367 1.372 . S
C4367 C4366 1.372 . S
C4367 C4368 1.400 . S
C4367 C4372 1.490 . S
C4368 H4358 0.930 . S
C4368 C4367 1.400 . S
C4368 C4371 1.386 . S
H4369 C4385 0.930 . S
H4370 C4386 0.931 . S
C4371 H4359 0.929 . S
C4371 C4365 1.390 . S
C4371 C4368 1.386 . S
C4372 C4367 1.490 . S
C4372 C4374 1.395 . S
C4372 C4375 1.403 . S
H4373 C4379 0.930 . S
C4374 H4360 0.930 . S
C4374 C4372 1.395 . S
C4374 C4377 1.403 . S
C4375 C4372 1.403 . S
C4375 C4376 1.524 . S
C4375 C4379 1.400 . S
C4376 H4361 0.960 . S
C4376 H4362 0.960 . S
C4376 H4363 0.960 . S
C4376 C4375 1.524 . S
C4377 C4374 1.403 . S
C4377 C4378 1.392 . S
C4377 C4381 1.495 . S
C4378 C4377 1.392 . S
C4378 C4379 1.385 . S
C4378 C4380 1.478 . S
C4379 H4373 0.930 . S
C4379 C4375 1.400 . S
C4379 C4378 1.385 . S
C4380 C4378 1.478 . S
C4380 C4382 1.381 . S
C4380 C4386 1.383 . S
C4381 C4377 1.495 . S
C4381 H4387 0.959 . S
C4381 H4388 0.961 . S
C4381 H4389 0.960 . S
C4382 C4380 1.381 . S
C4382 C4383 1.394 . S
C4382 H4390 0.930 . S
C4383 C4382 1.394 . S
C4383 C4384 1.383 . S
C4383 H4391 0.929 . S
C4384 C4383 1.383 . S
C4384 C4385 1.377 . S
C4385 H4369 0.930 . S
C4385 C4384 1.377 . S
C4385 C4386 1.379 . S
C4386 H4370 0.931 . S
C4386 C4380 1.383 . S
C4386 C4385 1.379 . S
H4387 C4381 0.959 . S
H4388 C4381 0.961 . S
H4389 C4381 0.960 . S
H4390 C4382 0.930 . S
H4391 C4383 0.929 . S
H4392 C4400 0.929 . S
H4393 C4402 0.930 . S
H4394 C4404 0.930 . S
H4395 C4407 0.929 . S
H4396 C4410 0.930 . S
H4397 C4412 0.960 . S
H4398 C4412 0.960 . S
H4399 C4412 0.960 . S
C4400 H4392 0.929 . S
C4400 C4401 1.377 . S
C4400 C4402 1.384 . S
C4401 C4400 1.377 . S
C4401 C4407 1.390 . S
C4402 H4393 0.930 . S
C4402 C4400 1.384 . S
C4402 C4403 1.372 . S
C4403 C4402 1.372 . S
C4403 C4404 1.400 . S
C4403 C4408 1.490 . S
C4404 H4394 0.930 . S
C4404 C4403 1.400 . S
C4404 C4407 1.386 . S
H4405 C4421 0.930 . S
H4406 C4422 0.931 . S
C4407 H4395 0.929 . S
C4407 C4401 1.390 . S
C4407 C4404 1.386 . S
C4408 C4403 1.490 . S
C4408 C4410 1.395 . S
C4408 C4411 1.403 . S
H4409 C4415 0.930 . S
C4410 H4396 0.930 . S
C4410 C4408 1.395 . S
C4410 C4413 1.403 . S
C4411 C4408 1.403 . S
C4411 C4412 1.524 . S
C4411 C4415 1.400 . S
C4412 H4397 0.960 . S
C4412 H4398 0.960 . S
C4412 H4399 0.960 . S
C4412 C4411 1.524 . S
C4413 C4410 1.403 . S
C4413 C4414 1.392 . S
C4413 C4417 1.495 . S
C4414 C4413 1.392 . S
C4414 C4415 1.385 . S
C4414 C4416 1.478 . S
C4415 H4409 0.930 . S
C4415 C4411 1.400 . S
C4415 C4414 1.385 . S
C4416 C4414 1.478 . S
C4416 C4418 1.381 . S
C4416 C4422 1.383 . S
C4417 C4413 1.495 . S
C4417 H4423 0.959 . S
C4417 H4424 0.961 . S
C4417 H4425 0.960 . S
C4418 C4416 1.381 . S
C4418 C4419 1.394 . S
C4418 H4426 0.930 . S
C4419 C4418 1.394 . S
C4419 C4420 1.383 . S
C4419 H4427 0.929 . S
C4420 C4419 1.383 . S
C4420 C4421 1.377 . S
C4421 H4405 0.930 . S
C4421 C4420 1.377 . S
C4421 C4422 1.379 . S
C4422 H4406 0.931 . S
C4422 C4416 1.383 . S
C4422 C4421 1.379 . S
H4423 C4417 0.959 . S
H4424 C4417 0.961 . S
H4425 C4417 0.960 . S
H4426 C4418 0.930 . S
H4427 C4419 0.929 . S
H4428 C4436 0.929 . S
H4429 C4438 0.930 . S
H4430 C4440 0.930 . S
H4431 C4443 0.929 . S
H4432 C4446 0.930 . S
H4433 C4448 0.960 . S
H4434 C4448 0.960 . S
H4435 C4448 0.960 . S
C4436 H4428 0.929 . S
C4436 C4437 1.377 . S
C4436 C4438 1.384 . S
C4437 C4436 1.377 . S
C4437 C4443 1.390 . S
C4438 H4429 0.930 . S
C4438 C4436 1.384 . S
C4438 C4439 1.372 . S
C4439 C4438 1.372 . S
C4439 C4440 1.400 . S
C4439 C4444 1.490 . S
C4440 H4430 0.930 . S
C4440 C4439 1.400 . S
C4440 C4443 1.386 . S
H4441 C4457 0.930 . S
H4442 C4458 0.931 . S
C4443 H4431 0.929 . S
C4443 C4437 1.390 . S
C4443 C4440 1.386 . S
C4444 C4439 1.490 . S
C4444 C4446 1.395 . S
C4444 C4447 1.403 . S
H4445 C4451 0.930 . S
C4446 H4432 0.930 . S
C4446 C4444 1.395 . S
C4446 C4449 1.403 . S
C4447 C4444 1.403 . S
C4447 C4448 1.524 . S
C4447 C4451 1.400 . S
C4448 H4433 0.960 . S
C4448 H4434 0.960 . S
C4448 H4435 0.960 . S
C4448 C4447 1.524 . S
C4449 C4446 1.403 . S
C4449 C4450 1.392 . S
C4449 C4453 1.495 . S
C4450 C4449 1.392 . S
C4450 C4451 1.385 . S
C4450 C4452 1.478 . S
C4451 H4445 0.930 . S
C4451 C4447 1.400 . S
C4451 C4450 1.385 . S
C4452 C4450 1.478 . S
C4452 C4454 1.381 . S
C4452 C4458 1.383 . S
C4453 C4449 1.495 . S
C4453 H4459 0.959 . S
C4453 H4460 0.961 . S
C4453 H4461 0.960 . S
C4454 C4452 1.381 . S
C4454 C4455 1.394 . S
C4454 H4462 0.930 . S
C4455 C4454 1.394 . S
C4455 C4456 1.383 . S
C4455 H4463 0.929 . S
C4456 C4455 1.383 . S
C4456 C4457 1.377 . S
C4457 H4441 0.930 . S
C4457 C4456 1.377 . S
C4457 C4458 1.379 . S
C4458 H4442 0.931 . S
C4458 C4452 1.383 . S
C4458 C4457 1.379 . S
H4459 C4453 0.959 . S
H4460 C4453 0.961 . S
H4461 C4453 0.960 . S
H4462 C4454 0.930 . S
H4463 C4455 0.929 . S
H4464 C4472 0.929 . S
H4465 C4474 0.930 . S
H4466 C4476 0.930 . S
H4467 C4479 0.929 . S
H4468 C4482 0.930 . S
H4469 C4484 0.960 . S
H4470 C4484 0.960 . S
H4471 C4484 0.960 . S
C4472 H4464 0.929 . S
C4472 C4473 1.377 . S
C4472 C4474 1.384 . S
C4473 C4472 1.377 . S
C4473 C4479 1.390 . S
C4474 H4465 0.930 . S
C4474 C4472 1.384 . S
C4474 C4475 1.372 . S
C4475 C4474 1.372 . S
C4475 C4476 1.400 . S
C4475 C4480 1.490 . S
C4476 H4466 0.930 . S
C4476 C4475 1.400 . S
C4476 C4479 1.386 . S
H4477 C4493 0.930 . S
H4478 C4494 0.931 . S
C4479 H4467 0.929 . S
C4479 C4473 1.390 . S
C4479 C4476 1.386 . S
C4480 C4475 1.490 . S
C4480 C4482 1.395 . S
C4480 C4483 1.403 . S
H4481 C4487 0.930 . S
C4482 H4468 0.930 . S
C4482 C4480 1.395 . S
C4482 C4485 1.403 . S
C4483 C4480 1.403 . S
C4483 C4484 1.524 . S
C4483 C4487 1.400 . S
C4484 H4469 0.960 . S
C4484 H4470 0.960 . S
C4484 H4471 0.960 . S
C4484 C4483 1.524 . S
C4485 C4482 1.403 . S
C4485 C4486 1.392 . S
C4485 C4489 1.495 . S
C4486 C4485 1.392 . S
C4486 C4487 1.385 . S
C4486 C4488 1.478 . S
C4487 H4481 0.930 . S
C4487 C4483 1.400 . S
C4487 C4486 1.385 . S
C4488 C4486 1.478 . S
C4488 C4490 1.381 . S
C4488 C4494 1.383 . S
C4489 C4485 1.495 . S
C4489 H4495 0.959 . S
C4489 H4496 0.961 . S
C4489 H4497 0.960 . S
C4490 C4488 1.381 . S
C4490 C4491 1.394 . S
C4490 H4498 0.930 . S
C4491 C4490 1.394 . S
C4491 C4492 1.383 . S
C4491 H4499 0.929 . S
C4492 C4491 1.383 . S
C4492 C4493 1.377 . S
C4493 H4477 0.930 . S
C4493 C4492 1.377 . S
C4493 C4494 1.379 . S
C4494 H4478 0.931 . S
C4494 C4488 1.383 . S
C4494 C4493 1.379 . S
H4495 C4489 0.959 . S
H4496 C4489 0.961 . S
H4497 C4489 0.960 . S
H4498 C4490 0.930 . S
H4499 C4491 0.929 . S
H4500 C4508 0.929 . S
H4501 C4510 0.930 . S
H4502 C4512 0.930 . S
H4503 C4515 0.929 . S
H4504 C4518 0.930 . S
H4505 C4520 0.960 . S
H4506 C4520 0.960 . S
H4507 C4520 0.960 . S
C4508 H4500 0.929 . S
C4508 C4509 1.377 . S
C4508 C4510 1.384 . S
C4509 C4508 1.377 . S
C4509 C4515 1.390 . S
C4510 H4501 0.930 . S
C4510 C4508 1.384 . S
C4510 C4511 1.372 . S
C4511 C4510 1.372 . S
C4511 C4512 1.400 . S
C4511 C4516 1.490 . S
C4512 H4502 0.930 . S
C4512 C4511 1.400 . S
C4512 C4515 1.386 . S
H4513 C4529 0.930 . S
H4514 C4530 0.931 . S
C4515 H4503 0.929 . S
C4515 C4509 1.390 . S
C4515 C4512 1.386 . S
C4516 C4511 1.490 . S
C4516 C4518 1.395 . S
C4516 C4519 1.403 . S
H4517 C4523 0.930 . S
C4518 H4504 0.930 . S
C4518 C4516 1.395 . S
C4518 C4521 1.403 . S
C4519 C4516 1.403 . S
C4519 C4520 1.524 . S
C4519 C4523 1.400 . S
C4520 H4505 0.960 . S
C4520 H4506 0.960 . S
C4520 H4507 0.960 . S
C4520 C4519 1.524 . S
C4521 C4518 1.403 . S
C4521 C4522 1.392 . S
C4521 C4525 1.495 . S
C4522 C4521 1.392 . S
C4522 C4523 1.385 . S
C4522 C4524 1.478 . S
C4523 H4517 0.930 . S
C4523 C4519 1.400 . S
C4523 C4522 1.385 . S
C4524 C4522 1.478 . S
C4524 C4526 1.381 . S
C4524 C4530 1.383 . S
C4525 C4521 1.495 . S
C4525 H4531 0.959 . S
C4525 H4532 0.961 . S
C4525 H4533 0.960 . S
C4526 C4524 1.381 . S
C4526 C4527 1.394 . S
C4526 H4534 0.930 . S
C4527 C4526 1.394 . S
C4527 C4528 1.383 . S
C4527 H4535 0.929 . S
C4528 C4527 1.383 . S
C4528 C4529 1.377 . S
C4529 H4513 0.930 . S
C4529 C4528 1.377 . S
C4529 C4530 1.379 . S
C4530 H4514 0.931 . S
C4530 C4524 1.383 . S
C4530 C4529 1.379 . S
H4531 C4525 0.959 . S
H4532 C4525 0.961 . S
H4533 C4525 0.960 . S
H4534 C4526 0.930 . S
H4535 C4527 0.929 . S
H4536 C4544 0.929 . S
H4537 C4546 0.930 . S
H4538 C4548 0.930 . S
H4539 C4551 0.929 . S
H4540 C4554 0.930 . S
H4541 C4556 0.960 . S
H4542 C4556 0.960 . S
H4543 C4556 0.960 . S
C4544 H4536 0.929 . S
C4544 C4545 1.377 . S
C4544 C4546 1.384 . S
C4545 C4544 1.377 . S
C4545 C4551 1.390 . S
C4546 H4537 0.930 . S
C4546 C4544 1.384 . S
C4546 C4547 1.372 . S
C4547 C4546 1.372 . S
C4547 C4548 1.400 . S
C4547 C4552 1.490 . S
C4548 H4538 0.930 . S
C4548 C4547 1.400 . S
C4548 C4551 1.386 . S
H4549 C4565 0.930 . S
H4550 C4566 0.931 . S
C4551 H4539 0.929 . S
C4551 C4545 1.390 . S
C4551 C4548 1.386 . S
C4552 C4547 1.490 . S
C4552 C4554 1.395 . S
C4552 C4555 1.403 . S
H4553 C4559 0.930 . S
C4554 H4540 0.930 . S
C4554 C4552 1.395 . S
C4554 C4557 1.403 . S
C4555 C4552 1.403 . S
C4555 C4556 1.524 . S
C4555 C4559 1.400 . S
C4556 H4541 0.960 . S
C4556 H4542 0.960 . S
C4556 H4543 0.960 . S
C4556 C4555 1.524 . S
C4557 C4554 1.403 . S
C4557 C4558 1.392 . S
C4557 C4561 1.495 . S
C4558 C4557 1.392 . S
C4558 C4559 1.385 . S
C4558 C4560 1.478 . S
C4559 H4553 0.930 . S
C4559 C4555 1.400 . S
C4559 C4558 1.385 . S
C4560 C4558 1.478 . S
C4560 C4562 1.381 . S
C4560 C4566 1.383 . S
C4561 C4557 1.495 . S
C4561 H4567 0.959 . S
C4561 H4568 0.961 . S
C4561 H4569 0.960 . S
C4562 C4560 1.381 . S
C4562 C4563 1.394 . S
C4562 H4570 0.930 . S
C4563 C4562 1.394 . S
C4563 C4564 1.383 . S
C4563 H4571 0.929 . S
C4564 C4563 1.383 . S
C4564 C4565 1.377 . S
C4565 H4549 0.930 . S
C4565 C4564 1.377 . S
C4565 C4566 1.379 . S
C4566 H4550 0.931 . S
C4566 C4560 1.383 . S
C4566 C4565 1.379 . S
H4567 C4561 0.959 . S
H4568 C4561 0.961 . S
H4569 C4561 0.960 . S
H4570 C4562 0.930 . S
H4571 C4563 0.929 . S
H4572 C4580 0.929 . S
H4573 C4582 0.930 . S
H4574 C4584 0.930 . S
H4575 C4587 0.929 . S
H4576 C4590 0.930 . S
H4577 C4592 0.960 . S
H4578 C4592 0.960 . S
H4579 C4592 0.960 . S
C4580 H4572 0.929 . S
C4580 C4581 1.377 . S
C4580 C4582 1.384 . S
C4581 C4580 1.377 . S
C4581 C4587 1.390 . S
C4582 H4573 0.930 . S
C4582 C4580 1.384 . S
C4582 C4583 1.372 . S
C4583 C4582 1.372 . S
C4583 C4584 1.400 . S
C4583 C4588 1.490 . S
C4584 H4574 0.930 . S
C4584 C4583 1.400 . S
C4584 C4587 1.386 . S
H4585 C4601 0.930 . S
H4586 C4602 0.931 . S
C4587 H4575 0.929 . S
C4587 C4581 1.390 . S
C4587 C4584 1.386 . S
C4588 C4583 1.490 . S
C4588 C4590 1.395 . S
C4588 C4591 1.403 . S
H4589 C4595 0.930 . S
C4590 H4576 0.930 . S
C4590 C4588 1.395 . S
C4590 C4593 1.403 . S
C4591 C4588 1.403 . S
C4591 C4592 1.524 . S
C4591 C4595 1.400 . S
C4592 H4577 0.960 . S
C4592 H4578 0.960 . S
C4592 H4579 0.960 . S
C4592 C4591 1.524 . S
C4593 C4590 1.403 . S
C4593 C4594 1.392 . S
C4593 C4597 1.495 . S
C4594 C4593 1.392 . S
C4594 C4595 1.385 . S
C4594 C4596 1.478 . S
C4595 H4589 0.930 . S
C4595 C4591 1.400 . S
C4595 C4594 1.385 . S
C4596 C4594 1.478 . S
C4596 C4598 1.381 . S
C4596 C4602 1.383 . S
C4597 C4593 1.495 . S
C4597 H4603 0.959 . S
C4597 H4604 0.961 . S
C4597 H4605 0.960 . S
C4598 C4596 1.381 . S
C4598 C4599 1.394 . S
C4598 H4606 0.930 . S
C4599 C4598 1.394 . S
C4599 C4600 1.383 . S
C4599 H4607 0.929 . S
C4600 C4599 1.383 . S
C4600 C4601 1.377 . S
C4601 H4585 0.930 . S
C4601 C4600 1.377 . S
C4601 C4602 1.379 . S
C4602 H4586 0.931 . S
C4602 C4596 1.383 . S
C4602 C4601 1.379 . S
H4603 C4597 0.959 . S
H4604 C4597 0.961 . S
H4605 C4597 0.960 . S
H4606 C4598 0.930 . S
H4607 C4599 0.929 . S
H4608 C4616 0.929 . S
H4609 C4618 0.930 . S
H4610 C4620 0.930 . S
H4611 C4623 0.929 . S
H4612 C4626 0.930 . S
H4613 C4628 0.960 . S
H4614 C4628 0.960 . S
H4615 C4628 0.960 . S
C4616 H4608 0.929 . S
C4616 C4617 1.377 . S
C4616 C4618 1.384 . S
C4617 C4616 1.377 . S
C4617 C4623 1.390 . S
C4618 H4609 0.930 . S
C4618 C4616 1.384 . S
C4618 C4619 1.372 . S
C4619 C4618 1.372 . S
C4619 C4620 1.400 . S
C4619 C4624 1.490 . S
C4620 H4610 0.930 . S
C4620 C4619 1.400 . S
C4620 C4623 1.386 . S
H4621 C4637 0.930 . S
H4622 C4638 0.931 . S
C4623 H4611 0.929 . S
C4623 C4617 1.390 . S
C4623 C4620 1.386 . S
C4624 C4619 1.490 . S
C4624 C4626 1.395 . S
C4624 C4627 1.403 . S
H4625 C4631 0.930 . S
C4626 H4612 0.930 . S
C4626 C4624 1.395 . S
C4626 C4629 1.403 . S
C4627 C4624 1.403 . S
C4627 C4628 1.524 . S
C4627 C4631 1.400 . S
C4628 H4613 0.960 . S
C4628 H4614 0.960 . S
C4628 H4615 0.960 . S
C4628 C4627 1.524 . S
C4629 C4626 1.403 . S
C4629 C4630 1.392 . S
C4629 C4633 1.495 . S
C4630 C4629 1.392 . S
C4630 C4631 1.385 . S
C4630 C4632 1.478 . S
C4631 H4625 0.930 . S
C4631 C4627 1.400 . S
C4631 C4630 1.385 . S
C4632 C4630 1.478 . S
C4632 C4634 1.381 . S
C4632 C4638 1.383 . S
C4633 C4629 1.495 . S
C4633 H4639 0.959 . S
C4633 H4640 0.961 . S
C4633 H4641 0.960 . S
C4634 C4632 1.381 . S
C4634 C4635 1.392 1_655 S
C4634 H4642 0.930 . S
C4635 C4634 1.392 1_455 S
C4635 C4636 1.382 . S
C4635 H4643 0.931 . S
C4636 C4635 1.382 . S
C4636 C4637 1.370 1_455 S
C4637 H4621 0.930 . S
C4637 C4636 1.370 1_655 S
C4637 C4638 1.379 . S
C4638 H4622 0.931 . S
C4638 C4632 1.383 . S
C4638 C4637 1.379 . S
H4639 C4633 0.959 . S
H4640 C4633 0.961 . S
H4641 C4633 0.960 . S
H4642 C4634 0.930 . S
H4643 C4635 0.931 . S
H4644 C4652 0.929 . S
H4645 C4654 0.930 . S
H4646 C4656 0.930 . S
H4647 C4659 0.929 . S
H4648 C4662 0.930 . S
H4649 C4664 0.960 . S
H4650 C4664 0.960 . S
H4651 C4664 0.960 . S
C4652 H4644 0.929 . S
C4652 C4653 1.377 . S
C4652 C4654 1.384 . S
C4653 C4652 1.377 . S
C4653 C4659 1.390 . S
C4654 H4645 0.930 . S
C4654 C4652 1.384 . S
C4654 C4655 1.372 . S
C4655 C4654 1.372 . S
C4655 C4656 1.400 . S
C4655 C4660 1.490 . S
C4656 H4646 0.930 . S
C4656 C4655 1.400 . S
C4656 C4659 1.386 . S
H4657 C4673 0.930 . S
H4658 C4674 0.931 . S
C4659 H4647 0.929 . S
C4659 C4653 1.390 . S
C4659 C4656 1.386 . S
C4660 C4655 1.490 . S
C4660 C4662 1.395 . S
C4660 C4663 1.403 . S
H4661 C4667 0.930 . S
C4662 H4648 0.930 . S
C4662 C4660 1.395 . S
C4662 C4665 1.403 . S
C4663 C4660 1.403 . S
C4663 C4664 1.524 . S
C4663 C4667 1.400 . S
C4664 H4649 0.960 . S
C4664 H4650 0.960 . S
C4664 H4651 0.960 . S
C4664 C4663 1.524 . S
C4665 C4662 1.403 . S
C4665 C4666 1.392 . S
C4665 C4669 1.495 . S
C4666 C4665 1.392 . S
C4666 C4667 1.385 . S
C4666 C4668 1.478 . S
C4667 H4661 0.930 . S
C4667 C4663 1.400 . S
C4667 C4666 1.385 . S
C4668 C4666 1.478 . S
C4668 C4670 1.381 . S
C4668 C4674 1.383 . S
C4669 C4665 1.495 . S
C4669 H4675 0.959 . S
C4669 H4676 0.961 . S
C4669 H4677 0.960 . S
C4670 C4668 1.381 . S
C4670 C4671 1.394 . S
C4670 H4678 0.930 . S
C4671 C4670 1.394 . S
C4671 C4672 1.383 . S
C4671 H4679 0.929 . S
C4672 C4671 1.383 . S
C4672 C4673 1.377 . S
C4673 H4657 0.930 . S
C4673 C4672 1.377 . S
C4673 C4674 1.379 . S
C4674 H4658 0.931 . S
C4674 C4668 1.383 . S
C4674 C4673 1.379 . S
H4675 C4669 0.959 . S
H4676 C4669 0.961 . S
H4677 C4669 0.960 . S
H4678 C4670 0.930 . S
H4679 C4671 0.929 . S
H4680 C4688 0.929 . S
H4681 C4690 0.930 . S
H4682 C4692 0.930 . S
H4683 C4695 0.929 . S
H4684 C4698 0.930 . S
H4685 C4700 0.960 . S
H4686 C4700 0.960 . S
H4687 C4700 0.960 . S
C4688 H4680 0.929 . S
C4688 C4689 1.377 . S
C4688 C4690 1.384 . S
C4689 C4688 1.377 . S
C4689 C4695 1.390 . S
C4690 H4681 0.930 . S
C4690 C4688 1.384 . S
C4690 C4691 1.372 . S
C4691 C4690 1.372 . S
C4691 C4692 1.400 . S
C4691 C4696 1.490 . S
C4692 H4682 0.930 . S
C4692 C4691 1.400 . S
C4692 C4695 1.386 . S
H4693 C4709 0.930 . S
H4694 C4710 0.931 . S
C4695 H4683 0.929 . S
C4695 C4689 1.390 . S
C4695 C4692 1.386 . S
C4696 C4691 1.490 . S
C4696 C4698 1.395 . S
C4696 C4699 1.403 . S
H4697 C4703 0.930 . S
C4698 H4684 0.930 . S
C4698 C4696 1.395 . S
C4698 C4701 1.403 . S
C4699 C4696 1.403 . S
C4699 C4700 1.524 . S
C4699 C4703 1.400 . S
C4700 H4685 0.960 . S
C4700 H4686 0.960 . S
C4700 H4687 0.960 . S
C4700 C4699 1.524 . S
C4701 C4698 1.403 . S
C4701 C4702 1.392 . S
C4701 C4705 1.495 . S
C4702 C4701 1.392 . S
C4702 C4703 1.385 . S
C4702 C4704 1.478 . S
C4703 H4697 0.930 . S
C4703 C4699 1.400 . S
C4703 C4702 1.385 . S
C4704 C4702 1.478 . S
C4704 C4706 1.381 . S
C4704 C4710 1.383 . S
C4705 C4701 1.495 . S
C4705 H4711 0.959 . S
C4705 H4712 0.961 . S
C4705 H4713 0.960 . S
C4706 C4704 1.381 . S
C4706 C4707 1.394 . S
C4706 H4714 0.930 . S
C4707 C4706 1.394 . S
C4707 C4708 1.383 . S
C4707 H4715 0.929 . S
C4708 C4707 1.383 . S
C4708 C4709 1.377 . S
C4709 H4693 0.930 . S
C4709 C4708 1.377 . S
C4709 C4710 1.379 . S
C4710 H4694 0.931 . S
C4710 C4704 1.383 . S
C4710 C4709 1.379 . S
H4711 C4705 0.959 . S
H4712 C4705 0.961 . S
H4713 C4705 0.960 . S
H4714 C4706 0.930 . S
H4715 C4707 0.929 . S
H4716 C4724 0.929 . S
H4717 C4726 0.930 . S
H4718 C4728 0.930 . S
H4719 C4731 0.929 . S
H4720 C4734 0.930 . S
H4721 C4736 0.960 . S
H4722 C4736 0.960 . S
H4723 C4736 0.960 . S
C4724 H4716 0.929 . S
C4724 C4725 1.377 . S
C4724 C4726 1.384 . S
C4725 C4724 1.377 . S
C4725 C4731 1.390 . S
C4726 H4717 0.930 . S
C4726 C4724 1.384 . S
C4726 C4727 1.372 . S
C4727 C4726 1.372 . S
C4727 C4728 1.400 . S
C4727 C4732 1.490 . S
C4728 H4718 0.930 . S
C4728 C4727 1.400 . S
C4728 C4731 1.386 . S
H4729 C4745 0.930 . S
H4730 C4746 0.931 . S
C4731 H4719 0.929 . S
C4731 C4725 1.390 . S
C4731 C4728 1.386 . S
C4732 C4727 1.490 . S
C4732 C4734 1.395 . S
C4732 C4735 1.403 . S
H4733 C4739 0.930 . S
C4734 H4720 0.930 . S
C4734 C4732 1.395 . S
C4734 C4737 1.403 . S
C4735 C4732 1.403 . S
C4735 C4736 1.524 . S
C4735 C4739 1.400 . S
C4736 H4721 0.960 . S
C4736 H4722 0.960 . S
C4736 H4723 0.960 . S
C4736 C4735 1.524 . S
C4737 C4734 1.403 . S
C4737 C4738 1.392 . S
C4737 C4741 1.495 . S
C4738 C4737 1.392 . S
C4738 C4739 1.385 . S
C4738 C4740 1.478 . S
C4739 H4733 0.930 . S
C4739 C4735 1.400 . S
C4739 C4738 1.385 . S
C4740 C4738 1.478 . S
C4740 C4742 1.381 . S
C4740 C4746 1.383 . S
C4741 C4737 1.495 . S
C4741 H4747 0.959 . S
C4741 H4748 0.961 . S
C4741 H4749 0.960 . S
C4742 C4740 1.381 . S
C4742 C4743 1.394 . S
C4742 H4750 0.930 . S
C4743 C4742 1.394 . S
C4743 C4744 1.383 . S
C4743 H4751 0.929 . S
C4744 C4743 1.383 . S
C4744 C4745 1.377 . S
C4745 H4729 0.930 . S
C4745 C4744 1.377 . S
C4745 C4746 1.379 . S
C4746 H4730 0.931 . S
C4746 C4740 1.383 . S
C4746 C4745 1.379 . S
H4747 C4741 0.959 . S
H4748 C4741 0.961 . S
H4749 C4741 0.960 . S
H4750 C4742 0.930 . S
H4751 C4743 0.929 . S
H4752 C4760 0.929 . S
H4753 C4762 0.930 . S
H4754 C4764 0.930 . S
H4755 C4767 0.929 . S
H4756 C4770 0.930 . S
H4757 C4772 0.960 . S
H4758 C4772 0.960 . S
H4759 C4772 0.960 . S
C4760 H4752 0.929 . S
C4760 C4761 1.377 . S
C4760 C4762 1.384 . S
C4761 C4760 1.377 . S
C4761 C4767 1.390 . S
C4762 H4753 0.930 . S
C4762 C4760 1.384 . S
C4762 C4763 1.372 . S
C4763 C4762 1.372 . S
C4763 C4764 1.400 . S
C4763 C4768 1.490 . S
C4764 H4754 0.930 . S
C4764 C4763 1.400 . S
C4764 C4767 1.386 . S
H4765 C4781 0.930 . S
H4766 C4782 0.931 . S
C4767 H4755 0.929 . S
C4767 C4761 1.390 . S
C4767 C4764 1.386 . S
C4768 C4763 1.490 . S
C4768 C4770 1.395 . S
C4768 C4771 1.403 . S
H4769 C4775 0.930 . S
C4770 H4756 0.930 . S
C4770 C4768 1.395 . S
C4770 C4773 1.403 . S
C4771 C4768 1.403 . S
C4771 C4772 1.524 . S
C4771 C4775 1.400 . S
C4772 H4757 0.960 . S
C4772 H4758 0.960 . S
C4772 H4759 0.960 . S
C4772 C4771 1.524 . S
C4773 C4770 1.403 . S
C4773 C4774 1.392 . S
C4773 C4777 1.495 . S
C4774 C4773 1.392 . S
C4774 C4775 1.385 . S
C4774 C4776 1.478 . S
C4775 H4769 0.930 . S
C4775 C4771 1.400 . S
C4775 C4774 1.385 . S
C4776 C4774 1.478 . S
C4776 C4778 1.381 . S
C4776 C4782 1.383 . S
C4777 C4773 1.495 . S
C4777 H4783 0.959 . S
C4777 H4784 0.961 . S
C4777 H4785 0.960 . S
C4778 C4776 1.381 . S
C4778 C4779 1.394 . S
C4778 H4786 0.930 . S
C4779 C4778 1.394 . S
C4779 C4780 1.383 . S
C4779 H4787 0.929 . S
C4780 C4779 1.383 . S
C4780 C4781 1.377 . S
C4781 H4765 0.930 . S
C4781 C4780 1.377 . S
C4781 C4782 1.379 . S
C4782 H4766 0.931 . S
C4782 C4776 1.383 . S
C4782 C4781 1.379 . S
H4783 C4777 0.959 . S
H4784 C4777 0.961 . S
H4785 C4777 0.960 . S
H4786 C4778 0.930 . S
H4787 C4779 0.929 . S
H4788 C4796 0.929 . S
H4789 C4798 0.930 . S
H4790 C4800 0.930 . S
H4791 C4803 0.929 . S
H4792 C4806 0.930 . S
H4793 C4808 0.960 . S
H4794 C4808 0.960 . S
H4795 C4808 0.960 . S
C4796 H4788 0.929 . S
C4796 C4797 1.377 . S
C4796 C4798 1.384 . S
C4797 C4796 1.377 . S
C4797 C4803 1.390 . S
C4798 H4789 0.930 . S
C4798 C4796 1.384 . S
C4798 C4799 1.372 . S
C4799 C4798 1.372 . S
C4799 C4800 1.400 . S
C4799 C4804 1.490 . S
C4800 H4790 0.930 . S
C4800 C4799 1.400 . S
C4800 C4803 1.386 . S
H4801 C4817 0.930 . S
H4802 C4818 0.931 . S
C4803 H4791 0.929 . S
C4803 C4797 1.390 . S
C4803 C4800 1.386 . S
C4804 C4799 1.490 . S
C4804 C4806 1.395 . S
C4804 C4807 1.403 . S
H4805 C4811 0.930 . S
C4806 H4792 0.930 . S
C4806 C4804 1.395 . S
C4806 C4809 1.403 . S
C4807 C4804 1.403 . S
C4807 C4808 1.524 . S
C4807 C4811 1.400 . S
C4808 H4793 0.960 . S
C4808 H4794 0.960 . S
C4808 H4795 0.960 . S
C4808 C4807 1.524 . S
C4809 C4806 1.403 . S
C4809 C4810 1.392 . S
C4809 C4813 1.495 . S
C4810 C4809 1.392 . S
C4810 C4811 1.385 . S
C4810 C4812 1.478 . S
C4811 H4805 0.930 . S
C4811 C4807 1.400 . S
C4811 C4810 1.385 . S
C4812 C4810 1.478 . S
C4812 C4814 1.381 . S
C4812 C4818 1.383 . S
C4813 C4809 1.495 . S
C4813 H4819 0.959 . S
C4813 H4820 0.961 . S
C4813 H4821 0.960 . S
C4814 C4812 1.381 . S
C4814 C4815 1.394 . S
C4814 H4822 0.930 . S
C4815 C4814 1.394 . S
C4815 C4816 1.383 . S
C4815 H4823 0.929 . S
C4816 C4815 1.383 . S
C4816 C4817 1.377 . S
C4817 H4801 0.930 . S
C4817 C4816 1.377 . S
C4817 C4818 1.379 . S
C4818 H4802 0.931 . S
C4818 C4812 1.383 . S
C4818 C4817 1.379 . S
H4819 C4813 0.959 . S
H4820 C4813 0.961 . S
H4821 C4813 0.960 . S
H4822 C4814 0.930 . S
H4823 C4815 0.929 . S
H4824 C4832 0.929 . S
H4825 C4834 0.930 . S
H4826 C4836 0.930 . S
H4827 C4839 0.929 . S
H4828 C4842 0.930 . S
H4829 C4844 0.960 . S
H4830 C4844 0.960 . S
H4831 C4844 0.960 . S
C4832 H4824 0.929 . S
C4832 C4833 1.377 . S
C4832 C4834 1.384 . S
C4833 C4832 1.377 . S
C4833 C4839 1.390 . S
C4834 H4825 0.930 . S
C4834 C4832 1.384 . S
C4834 C4835 1.372 . S
C4835 C4834 1.372 . S
C4835 C4836 1.400 . S
C4835 C4840 1.490 . S
C4836 H4826 0.930 . S
C4836 C4835 1.400 . S
C4836 C4839 1.386 . S
H4837 C4853 0.930 . S
H4838 C4854 0.931 . S
C4839 H4827 0.929 . S
C4839 C4833 1.390 . S
C4839 C4836 1.386 . S
C4840 C4835 1.490 . S
C4840 C4842 1.395 . S
C4840 C4843 1.403 . S
H4841 C4847 0.930 . S
C4842 H4828 0.930 . S
C4842 C4840 1.395 . S
C4842 C4845 1.403 . S
C4843 C4840 1.403 . S
C4843 C4844 1.524 . S
C4843 C4847 1.400 . S
C4844 H4829 0.960 . S
C4844 H4830 0.960 . S
C4844 H4831 0.960 . S
C4844 C4843 1.524 . S
C4845 C4842 1.403 . S
C4845 C4846 1.392 . S
C4845 C4849 1.495 . S
C4846 C4845 1.392 . S
C4846 C4847 1.385 . S
C4846 C4848 1.478 . S
C4847 H4841 0.930 . S
C4847 C4843 1.400 . S
C4847 C4846 1.385 . S
C4848 C4846 1.478 . S
C4848 C4850 1.381 . S
C4848 C4854 1.383 . S
C4849 C4845 1.495 . S
C4849 H4855 0.959 . S
C4849 H4856 0.961 . S
C4849 H4857 0.960 . S
C4850 C4848 1.381 . S
C4850 C4851 1.394 . S
C4850 H4858 0.930 . S
C4851 C4850 1.394 . S
C4851 C4852 1.383 . S
C4851 H4859 0.929 . S
C4852 C4851 1.383 . S
C4852 C4853 1.377 . S
C4853 H4837 0.930 . S
C4853 C4852 1.377 . S
C4853 C4854 1.379 . S
C4854 H4838 0.931 . S
C4854 C4848 1.383 . S
C4854 C4853 1.379 . S
H4855 C4849 0.959 . S
H4856 C4849 0.961 . S
H4857 C4849 0.960 . S
H4858 C4850 0.930 . S
H4859 C4851 0.929 . S
H4860 C4868 0.929 . S
H4861 C4870 0.930 . S
H4862 C4872 0.930 . S
H4863 C4875 0.929 . S
H4864 C4878 0.930 . S
H4865 C4880 0.960 . S
H4866 C4880 0.960 . S
H4867 C4880 0.960 . S
C4868 H4860 0.929 . S
C4868 C4869 1.377 . S
C4868 C4870 1.384 . S
C4869 C4868 1.377 . S
C4869 C4875 1.390 . S
C4870 H4861 0.930 . S
C4870 C4868 1.384 . S
C4870 C4871 1.372 . S
C4871 C4870 1.372 . S
C4871 C4872 1.400 . S
C4871 C4876 1.490 . S
C4872 H4862 0.930 . S
C4872 C4871 1.400 . S
C4872 C4875 1.386 . S
H4873 C4889 0.930 . S
H4874 C4890 0.931 . S
C4875 H4863 0.929 . S
C4875 C4869 1.390 . S
C4875 C4872 1.386 . S
C4876 C4871 1.490 . S
C4876 C4878 1.395 . S
C4876 C4879 1.403 . S
H4877 C4883 0.930 . S
C4878 H4864 0.930 . S
C4878 C4876 1.395 . S
C4878 C4881 1.403 . S
C4879 C4876 1.403 . S
C4879 C4880 1.524 . S
C4879 C4883 1.400 . S
C4880 H4865 0.960 . S
C4880 H4866 0.960 . S
C4880 H4867 0.960 . S
C4880 C4879 1.524 . S
C4881 C4878 1.403 . S
C4881 C4882 1.392 . S
C4881 C4885 1.495 . S
C4882 C4881 1.392 . S
C4882 C4883 1.385 . S
C4882 C4884 1.478 . S
C4883 H4877 0.930 . S
C4883 C4879 1.400 . S
C4883 C4882 1.385 . S
C4884 C4882 1.478 . S
C4884 C4886 1.381 . S
C4884 C4890 1.383 . S
C4885 C4881 1.495 . S
C4885 H4891 0.959 . S
C4885 H4892 0.961 . S
C4885 H4893 0.960 . S
C4886 C4884 1.381 . S
C4886 C4887 1.394 . S
C4886 H4894 0.930 . S
C4887 C4886 1.394 . S
C4887 C4888 1.383 . S
C4887 H4895 0.929 . S
C4888 C4887 1.383 . S
C4888 C4889 1.377 . S
C4889 H4873 0.930 . S
C4889 C4888 1.377 . S
C4889 C4890 1.379 . S
C4890 H4874 0.931 . S
C4890 C4884 1.383 . S
C4890 C4889 1.379 . S
H4891 C4885 0.959 . S
H4892 C4885 0.961 . S
H4893 C4885 0.960 . S
H4894 C4886 0.930 . S
H4895 C4887 0.929 . S
H4896 C4904 0.929 . S
H4897 C4906 0.930 . S
H4898 C4908 0.930 . S
H4899 C4911 0.929 . S
H4900 C4914 0.930 . S
H4901 C4916 0.960 . S
H4902 C4916 0.960 . S
H4903 C4916 0.960 . S
C4904 H4896 0.929 . S
C4904 C4905 1.377 . S
C4904 C4906 1.384 . S
C4905 C4904 1.377 . S
C4905 C4911 1.390 . S
C4906 H4897 0.930 . S
C4906 C4904 1.384 . S
C4906 C4907 1.372 . S
C4907 C4906 1.372 . S
C4907 C4908 1.400 . S
C4907 C4912 1.490 . S
C4908 H4898 0.930 . S
C4908 C4907 1.400 . S
C4908 C4911 1.386 . S
H4909 C4925 0.930 . S
H4910 C4926 0.931 . S
C4911 H4899 0.929 . S
C4911 C4905 1.390 . S
C4911 C4908 1.386 . S
C4912 C4907 1.490 . S
C4912 C4914 1.395 . S
C4912 C4915 1.403 . S
H4913 C4919 0.930 . S
C4914 H4900 0.930 . S
C4914 C4912 1.395 . S
C4914 C4917 1.403 . S
C4915 C4912 1.403 . S
C4915 C4916 1.524 . S
C4915 C4919 1.400 . S
C4916 H4901 0.960 . S
C4916 H4902 0.960 . S
C4916 H4903 0.960 . S
C4916 C4915 1.524 . S
C4917 C4914 1.403 . S
C4917 C4918 1.392 . S
C4917 C4921 1.495 . S
C4918 C4917 1.392 . S
C4918 C4919 1.385 . S
C4918 C4920 1.478 . S
C4919 H4913 0.930 . S
C4919 C4915 1.400 . S
C4919 C4918 1.385 . S
C4920 C4918 1.478 . S
C4920 C4922 1.381 . S
C4920 C4926 1.383 . S
C4921 C4917 1.495 . S
C4921 H4927 0.959 . S
C4921 H4928 0.961 . S
C4921 H4929 0.960 . S
C4922 C4920 1.381 . S
C4922 C4923 1.394 . S
C4922 H4930 0.930 . S
C4923 C4922 1.394 . S
C4923 C4924 1.383 . S
C4923 H4931 0.929 . S
C4924 C4923 1.383 . S
C4924 C4925 1.377 . S
C4925 H4909 0.930 . S
C4925 C4924 1.377 . S
C4925 C4926 1.379 . S
C4926 H4910 0.931 . S
C4926 C4920 1.383 . S
C4926 C4925 1.379 . S
H4927 C4921 0.959 . S
H4928 C4921 0.961 . S
H4929 C4921 0.960 . S
H4930 C4922 0.930 . S
H4931 C4923 0.929 . S
H4932 C4940 0.929 . S
H4933 C4942 0.930 . S
H4934 C4944 0.930 . S
H4935 C4947 0.929 . S
H4936 C4950 0.930 . S
H4937 C4952 0.960 . S
H4938 C4952 0.960 . S
H4939 C4952 0.960 . S
C4940 H4932 0.929 . S
C4940 C4941 1.377 . S
C4940 C4942 1.384 . S
C4941 C4940 1.377 . S
C4941 C4947 1.390 . S
C4942 H4933 0.930 . S
C4942 C4940 1.384 . S
C4942 C4943 1.372 . S
C4943 C4942 1.372 . S
C4943 C4944 1.400 . S
C4943 C4948 1.490 . S
C4944 H4934 0.930 . S
C4944 C4943 1.400 . S
C4944 C4947 1.386 . S
H4945 C4961 0.930 . S
H4946 C4962 0.931 . S
C4947 H4935 0.929 . S
C4947 C4941 1.390 . S
C4947 C4944 1.386 . S
C4948 C4943 1.490 . S
C4948 C4950 1.395 . S
C4948 C4951 1.403 . S
H4949 C4955 0.930 . S
C4950 H4936 0.930 . S
C4950 C4948 1.395 . S
C4950 C4953 1.403 . S
C4951 C4948 1.403 . S
C4951 C4952 1.524 . S
C4951 C4955 1.400 . S
C4952 H4937 0.960 . S
C4952 H4938 0.960 . S
C4952 H4939 0.960 . S
C4952 C4951 1.524 . S
C4953 C4950 1.403 . S
C4953 C4954 1.392 . S
C4953 C4957 1.495 . S
C4954 C4953 1.392 . S
C4954 C4955 1.385 . S
C4954 C4956 1.478 . S
C4955 H4949 0.930 . S
C4955 C4951 1.400 . S
C4955 C4954 1.385 . S
C4956 C4954 1.478 . S
C4956 C4958 1.381 . S
C4956 C4962 1.383 . S
C4957 C4953 1.495 . S
C4957 H4963 0.959 . S
C4957 H4964 0.961 . S
C4957 H4965 0.960 . S
C4958 C4956 1.381 . S
C4958 C4959 1.394 . S
C4958 H4966 0.930 . S
C4959 C4958 1.394 . S
C4959 C4960 1.383 . S
C4959 H4967 0.929 . S
C4960 C4959 1.383 . S
C4960 C4961 1.377 . S
C4961 H4945 0.930 . S
C4961 C4960 1.377 . S
C4961 C4962 1.379 . S
C4962 H4946 0.931 . S
C4962 C4956 1.383 . S
C4962 C4961 1.379 . S
H4963 C4957 0.959 . S
H4964 C4957 0.961 . S
H4965 C4957 0.960 . S
H4966 C4958 0.930 . S
H4967 C4959 0.929 . S
H4968 C4976 0.929 . S
H4969 C4978 0.930 . S
H4970 C4980 0.930 . S
H4971 C4983 0.929 . S
H4972 C4986 0.930 . S
H4973 C4988 0.960 . S
H4974 C4988 0.960 . S
H4975 C4988 0.960 . S
C4976 H4968 0.929 . S
C4976 C4977 1.377 . S
C4976 C4978 1.384 . S
C4977 C4976 1.377 . S
C4977 C4983 1.390 . S
C4978 H4969 0.930 . S
C4978 C4976 1.384 . S
C4978 C4979 1.372 . S
C4979 C4978 1.372 . S
C4979 C4980 1.400 . S
C4979 C4984 1.490 . S
C4980 H4970 0.930 . S
C4980 C4979 1.400 . S
C4980 C4983 1.386 . S
H4981 C4997 0.930 . S
H4982 C4998 0.931 . S
C4983 H4971 0.929 . S
C4983 C4977 1.390 . S
C4983 C4980 1.386 . S
C4984 C4979 1.490 . S
C4984 C4986 1.395 . S
C4984 C4987 1.403 . S
H4985 C4991 0.930 . S
C4986 H4972 0.930 . S
C4986 C4984 1.395 . S
C4986 C4989 1.403 . S
C4987 C4984 1.403 . S
C4987 C4988 1.524 . S
C4987 C4991 1.400 . S
C4988 H4973 0.960 . S
C4988 H4974 0.960 . S
C4988 H4975 0.960 . S
C4988 C4987 1.524 . S
C4989 C4986 1.403 . S
C4989 C4990 1.392 . S
C4989 C4993 1.495 . S
C4990 C4989 1.392 . S
C4990 C4991 1.385 . S
C4990 C4992 1.478 . S
C4991 H4985 0.930 . S
C4991 C4987 1.400 . S
C4991 C4990 1.385 . S
C4992 C4990 1.478 . S
C4992 C4994 1.381 . S
C4992 C4998 1.383 . S
C4993 C4989 1.495 . S
C4993 H4999 0.959 . S
C4993 H5000 0.961 . S
C4993 H5001 0.960 . S
C4994 C4992 1.381 . S
C4994 C4995 1.394 . S
C4994 H5002 0.930 . S
C4995 C4994 1.394 . S
C4995 C4996 1.383 . S
C4995 H5003 0.929 . S
C4996 C4995 1.383 . S
C4996 C4997 1.377 . S
C4997 H4981 0.930 . S
C4997 C4996 1.377 . S
C4997 C4998 1.379 . S
C4998 H4982 0.931 . S
C4998 C4992 1.383 . S
C4998 C4997 1.379 . S
H4999 C4993 0.959 . S
H5000 C4993 0.961 . S
H5001 C4993 0.960 . S
H5002 C4994 0.930 . S
H5003 C4995 0.929 . S
H5004 C5012 0.929 . S
H5005 C5014 0.930 . S
H5006 C5016 0.930 . S
H5007 C5019 0.929 . S
H5008 C5022 0.930 . S
H5009 C5024 0.960 . S
H5010 C5024 0.960 . S
H5011 C5024 0.960 . S
C5012 H5004 0.929 . S
C5012 C5013 1.377 . S
C5012 C5014 1.384 . S
C5013 C5012 1.377 . S
C5013 C5019 1.390 . S
C5014 H5005 0.930 . S
C5014 C5012 1.384 . S
C5014 C5015 1.372 . S
C5015 C5014 1.372 . S
C5015 C5016 1.400 . S
C5015 C5020 1.490 . S
C5016 H5006 0.930 . S
C5016 C5015 1.400 . S
C5016 C5019 1.386 . S
H5017 C5033 0.930 1_556 S
H5018 C5034 0.931 1_556 S
C5019 H5007 0.929 . S
C5019 C5013 1.390 . S
C5019 C5016 1.386 . S
C5020 C5015 1.490 . S
C5020 C5022 1.395 . S
C5020 C5023 1.403 . S
H5021 C5027 0.930 . S
C5022 H5008 0.930 . S
C5022 C5020 1.395 . S
C5022 C5025 1.403 . S
C5023 C5020 1.403 . S
C5023 C5024 1.524 . S
C5023 C5027 1.400 . S
C5024 H5009 0.960 . S
C5024 H5010 0.960 . S
C5024 H5011 0.960 . S
C5024 C5023 1.524 . S
C5025 C5022 1.403 . S
C5025 C5026 1.392 . S
C5025 C5029 1.495 . S
C5026 C5025 1.392 . S
C5026 C5027 1.385 . S
C5026 C5028 1.478 . S
C5027 H5021 0.930 . S
C5027 C5023 1.400 . S
C5027 C5026 1.385 . S
C5028 C5026 1.478 . S
C5028 C5030 1.381 . S
C5028 C5034 1.383 . S
C5029 C5025 1.495 . S
C5029 H5035 0.959 . S
C5029 H5036 0.961 1_554 S
C5029 H5037 0.960 . S
C5030 C5028 1.381 . S
C5030 C5031 1.394 . S
C5030 H5038 0.930 . S
C5031 C5030 1.394 . S
C5031 C5032 1.383 . S
C5031 H5039 0.929 . S
C5032 C5031 1.383 . S
C5032 C5033 1.377 . S
C5033 H5017 0.930 1_554 S
C5033 C5032 1.377 . S
C5033 C5034 1.379 . S
C5034 H5018 0.931 1_554 S
C5034 C5028 1.383 . S
C5034 C5033 1.379 . S
H5035 C5029 0.959 . S
H5036 C5029 0.961 1_556 S
H5037 C5029 0.960 . S
H5038 C5030 0.930 . S
H5039 C5031 0.929 . S
H5040 C5048 0.929 . S
H5041 C5050 0.930 . S
H5042 C5052 0.930 . S
H5043 C5055 0.929 . S
H5044 C5058 0.930 . S
H5045 C5060 0.960 . S
H5046 C5060 0.960 . S
H5047 C5060 0.960 . S
C5048 H5040 0.929 . S
C5048 C5049 1.377 . S
C5048 C5050 1.384 . S
C5049 C5048 1.377 . S
C5049 C5055 1.390 . S
C5050 H5041 0.930 . S
C5050 C5048 1.384 . S
C5050 C5051 1.372 . S
C5051 C5050 1.372 . S
C5051 C5052 1.400 . S
C5051 C5056 1.490 . S
C5052 H5042 0.930 . S
C5052 C5051 1.400 . S
C5052 C5055 1.386 . S
H5053 C5069 0.930 . S
H5054 C5070 0.931 . S
C5055 H5043 0.929 . S
C5055 C5049 1.390 . S
C5055 C5052 1.386 . S
C5056 C5051 1.490 . S
C5056 C5058 1.395 . S
C5056 C5059 1.403 . S
H5057 C5063 0.930 . S
C5058 H5044 0.930 . S
C5058 C5056 1.395 . S
C5058 C5061 1.403 . S
C5059 C5056 1.403 . S
C5059 C5060 1.524 . S
C5059 C5063 1.400 . S
C5060 H5045 0.960 . S
C5060 H5046 0.960 . S
C5060 H5047 0.960 . S
C5060 C5059 1.524 . S
C5061 C5058 1.403 . S
C5061 C5062 1.392 . S
C5061 C5065 1.495 . S
C5062 C5061 1.392 . S
C5062 C5063 1.385 . S
C5062 C5064 1.478 . S
C5063 H5057 0.930 . S
C5063 C5059 1.400 . S
C5063 C5062 1.385 . S
C5064 C5062 1.478 . S
C5064 C5066 1.381 . S
C5064 C5070 1.383 . S
C5065 C5061 1.495 . S
C5065 H5071 0.959 . S
C5065 H5072 0.961 . S
C5065 H5073 0.960 . S
C5066 C5064 1.381 . S
C5066 C5067 1.394 . S
C5066 H5074 0.930 . S
C5067 C5066 1.394 . S
C5067 C5068 1.383 . S
C5067 H5075 0.929 . S
C5068 C5067 1.383 . S
C5068 C5069 1.377 . S
C5069 H5053 0.930 . S
C5069 C5068 1.377 . S
C5069 C5070 1.379 . S
C5070 H5054 0.931 . S
C5070 C5064 1.383 . S
C5070 C5069 1.379 . S
H5071 C5065 0.959 . S
H5072 C5065 0.961 . S
H5073 C5065 0.960 . S
H5074 C5066 0.930 . S
H5075 C5067 0.929 . S
H5076 C5084 0.929 . S
H5077 C5086 0.930 . S
H5078 C5088 0.930 . S
H5079 C5091 0.929 . S
H5080 C5094 0.930 . S
H5081 C5096 0.960 . S
H5082 C5096 0.960 . S
H5083 C5096 0.960 . S
C5084 H5076 0.929 . S
C5084 C5085 1.377 . S
C5084 C5086 1.384 . S
C5085 C5084 1.377 . S
C5085 C5091 1.390 . S
C5086 H5077 0.930 . S
C5086 C5084 1.384 . S
C5086 C5087 1.372 . S
C5087 C5086 1.372 . S
C5087 C5088 1.400 . S
C5087 C5092 1.490 . S
C5088 H5078 0.930 . S
C5088 C5087 1.400 . S
C5088 C5091 1.386 . S
H5089 C5105 0.930 . S
H5090 C5106 0.931 . S
C5091 H5079 0.929 . S
C5091 C5085 1.390 . S
C5091 C5088 1.386 . S
C5092 C5087 1.490 . S
C5092 C5094 1.395 . S
C5092 C5095 1.403 . S
H5093 C5099 0.930 . S
C5094 H5080 0.930 . S
C5094 C5092 1.395 . S
C5094 C5097 1.403 . S
C5095 C5092 1.403 . S
C5095 C5096 1.524 . S
C5095 C5099 1.400 . S
C5096 H5081 0.960 . S
C5096 H5082 0.960 . S
C5096 H5083 0.960 . S
C5096 C5095 1.524 . S
C5097 C5094 1.403 . S
C5097 C5098 1.392 . S
C5097 C5101 1.495 . S
C5098 C5097 1.392 . S
C5098 C5099 1.385 . S
C5098 C5100 1.478 . S
C5099 H5093 0.930 . S
C5099 C5095 1.400 . S
C5099 C5098 1.385 . S
C5100 C5098 1.478 . S
C5100 C5102 1.381 . S
C5100 C5106 1.383 . S
C5101 C5097 1.495 . S
C5101 H5107 0.959 . S
C5101 H5108 0.961 . S
C5101 H5109 0.960 . S
C5102 C5100 1.381 . S
C5102 C5103 1.394 . S
C5102 H5110 0.930 . S
C5103 C5102 1.394 . S
C5103 C5104 1.383 . S
C5103 H5111 0.929 . S
C5104 C5103 1.383 . S
C5104 C5105 1.377 . S
C5105 H5089 0.930 . S
C5105 C5104 1.377 . S
C5105 C5106 1.379 . S
C5106 H5090 0.931 . S
C5106 C5100 1.383 . S
C5106 C5105 1.379 . S
H5107 C5101 0.959 . S
H5108 C5101 0.961 . S
H5109 C5101 0.960 . S
H5110 C5102 0.930 . S
H5111 C5103 0.929 . S
C1665 C101 2.036 . S
C1684 C368 2.037 . S
C1701 C57 1.824 . S
C1720 C470 1.823 . S
C1737 C73 1.808 . S
C1756 C536 1.887 . S
C1792 C622 1.391 . S
C1773 C78 1.520 . S
C1809 C21 1.639 . S
C1828 C706 1.545 . S
C1864 C788 1.848 . S
C1845 C31 1.757 . S
C1900 C890 1.872 . S
C1881 C49 1.874 . S
C1917 C0 1.855 . S
C1936 C956 1.957 . S
C1972 C386 1.520 . S
C1953 C218 1.555 . S
C1989 C229 0.889 . S
C2008 C454 0.918 . S
C2044 C554 1.077 . S
C2025 C257 1.064 . S
C2080 C620 1.592 . S
C2061 C164 1.539 1_556 S
C2097 C216 1.517 . S
C2116 C704 1.577 . S
C2152 C806 1.049 . S
C2133 C231 1.074 . S
C2188 C874 0.864 . S
C2169 C255 0.892 . S
C2224 C974 1.487 . S
C2205 C166 1.535 . S
C2260 C370 0.904 . S
C2241 C143 0.863 1_556 S
C2277 C265 1.668 . S
C2296 C1058 1.665 . S
C2332 C1126 1.231 . S
C2313 C299 1.271 . S
C2368 C1208 0.829 . S
C2349 C291 0.802 . S
C2385 C104 0.783 . S
C2404 C958 0.814 . S
C2421 C117 1.306 . S
C2440 C538 1.224 . S
C2457 C304 1.593 . S
C2476 C1310 1.612 . S
C2512 C1376 0.696 . S
C2493 C278 0.713 . S
C2548 C379 1.971 . S
C2529 C60 1.942 . S
C2584 C1383 1.726 . S
C2565 C96 1.735 . S
C2601 C88 1.776 . S
C2620 C547 1.772 . S
C2637 C65 1.440 . S
C2656 C1305 1.368 . S
C2692 C717 1.430 . S
C2673 C10 1.561 . S
C2709 C44 1.658 . S
C2728 C1135 1.738 . S
C2764 C879 1.774 1_556 S
C2745 C34 1.722 . S
C2800 C1471 1.861 . S
C2781 C13 1.839 . S
C2836 C375 1.392 . S
C2817 C138 1.429 . S
C2872 C1389 0.798 . S
C2853 C296 0.800 . S
C2889 C112 0.965 . S
C2908 C543 0.961 . S
C2925 C270 1.498 . S
C2944 C1303 1.493 . S
C2961 C140 1.476 . S
C2980 C715 1.466 . S
C3016 C1131 0.995 . S
C2997 C294 0.964 . S
C3033 C114 0.800 . S
C3052 C885 0.750 . S
C3069 C268 1.417 . S
C3088 C1467 1.416 . S
C3105 C169 0.831 . S
C3124 C381 0.830 . S
C3141 C161 1.599 . S
C3160 C1047 1.602 . S
C3177 C234 1.247 . S
C3196 C801 1.198 . S
C3213 C226 0.721 . S
C3232 C1219 0.713 . S
C3268 C1473 0.689 . S
C3249 C247 0.751 . S
C3285 C195 1.283 . S
C3304 C549 1.209 . S
C3340 C627 1.502 . S
C3321 C239 1.518 . S
C3376 C463 0.603 . S
C3357 C187 0.620 . S
C3393 C75 2.039 . S
C3412 C1544 2.044 . S
C3448 C1394 1.824 . S
C3429 C83 1.824 . S
C3465 C99 1.801 . S
C3484 C1628 1.890 . S
C3501 C52 1.524 1_655 S
C3520 C1294 1.438 . S
C3537 C47 1.639 . S
C3556 C1042 1.552 . S
C3592 C1124 1.846 . S
C3573 C5 1.758 . S
C3628 C1226 1.872 . S
C3609 C23 1.874 . S
C3664 C1460 1.959 . S
C3645 C26 1.845 . S
C3700 C1562 1.516 . S
C3681 C244 1.554 . S
C3717 C177 0.886 . S
C3736 C1378 0.919 . S
C3772 C1646 1.080 . S
C3753 C192 1.066 . S
C3808 C1292 1.591 . S
C3789 C203 1.532 . S
C3844 C1040 1.577 . S
C3825 C242 1.517 . S
C3861 C179 1.071 . S
C3880 C1142 1.078 . S
C3916 C1210 0.869 . S
C3897 C190 0.879 . S
C3933 C205 1.536 . S
C3952 C1478 1.500 . S
C3988 C1546 0.907 . S
C3969 C286 0.859 . S
C4005 C122 1.670 . S
C4024 C722 1.664 . S
C4060 C790 1.206 . S
C4041 C130 1.302 . S
C4096 C872 0.816 . S
C4077 C148 0.809 . S
C4132 C1462 0.743 . S
C4113 C273 0.785 . S
C4149 C260 1.302 . S
C4168 C1630 1.282 . S
C4204 C638 1.590 . S
C4185 C135 1.599 . S
C4240 C452 0.707 . S
C4221 C109 0.704 . S
C4257 C86 1.943 . S
C4276 C1555 1.971 . S
C4312 C459 1.728 . S
C4293 C70 1.736 . S
C4329 C62 1.776 . S
C4348 C1639 1.775 . S
C4365 C91 1.444 . S
C4384 C633 1.397 . S
C4401 C36 1.565 . S
C4420 C1053 1.481 . S
C4456 C799 1.745 . S
C4437 C18 1.664 . S
C4473 C8 1.722 . S
C4492 C1215 1.774 . S
C4509 C39 1.841 . S
C4528 C967 1.864 . S
C4564 C1551 1.402 . S
C4545 C307 1.431 . S
C4581 C153 0.799 . S
C4600 C465 0.791 . S
C4636 C1635 0.993 . S
C4617 C281 0.962 . S
C4653 C127 1.497 . S
C4672 C631 1.496 . S
C4689 C309 1.474 . S
C4708 C1051 1.469 . S
C4744 C795 0.997 . S
C4725 C151 0.972 . S
C4761 C283 0.796 . S
C4780 C1221 0.737 . S
C4816 C963 1.393 . S
C4797 C125 1.417 . S
C4852 C1557 0.799 . S
C4833 C221 0.833 . S
C4888 C711 1.600 1_565 S
C4869 C200 1.598 . S
C4905 C208 1.247 . S
C4924 C1137 1.203 . S
C4960 C883 0.712 . S
C4941 C174 0.720 . S
C4977 C182 0.753 . S
C4996 C969 0.777 . S
C5013 C156 1.277 . S
C5032 C1641 1.198 . S
C5068 C1299 1.496 . S
C5049 C213 1.517 . S
C5104 C1387 0.602 . S
C5085 C252 0.623 . S
