# Generated by pormake.
# Topology dag, (6,3)-cn, num edge types: 1
# Building blocks:
#     Node 0, Type 0, BuildingBlock: MIDCAF_clean_sbu_0, # of connection points: 6
#     Node 1, Type 0, BuildingBlock: MIDCAF_clean_sbu_0, # of connection points: 6
#     Node 2, Type 0, BuildingBlock: MIDCAF_clean_sbu_0, # of connection points: 6
#     Node 3, Type 0, BuildingBlock: MIDCAF_clean_sbu_0, # of connection points: 6
#     Node 4, Type 1, BuildingBlock: WUSLED_clean_sbu_0, # of connection points: 3
#     Node 5, Type 1, BuildingBlock: WUSLED_clean_sbu_0, # of connection points: 3
#     Node 6, Type 1, BuildingBlock: WUSLED_clean_sbu_0, # of connection points: 3
#     Node 7, Type 1, BuildingBlock: WUSLED_clean_sbu_0, # of connection points: 3
#     Node 8, Type 1, BuildingBlock: WUSLED_clean_sbu_0, # of connection points: 3
#     Node 9, Type 1, BuildingBlock: WUSLED_clean_sbu_0, # of connection points: 3
#     Node 10, Type 1, BuildingBlock: WUSLED_clean_sbu_0, # of connection points: 3
#     Node 11, Type 1, BuildingBlock: WUSLED_clean_sbu_0, # of connection points: 3
#     Edge 12, Type (0, 1), BuildingBlock: XUDNAN_clean_linker_2, # of connection points: 2
#     Edge 13, Type (0, 1), BuildingBlock: XUDNAN_clean_linker_2, # of connection points: 2
#     Edge 14, Type (0, 1), BuildingBlock: XUDNAN_clean_linker_2, # of connection points: 2
#     Edge 15, Type (0, 1), BuildingBlock: XUDNAN_clean_linker_2, # of connection points: 2
#     Edge 16, Type (0, 1), BuildingBlock: XUDNAN_clean_linker_2, # of connection points: 2
#     Edge 17, Type (0, 1), BuildingBlock: XUDNAN_clean_linker_2, # of connection points: 2
#     Edge 18, Type (0, 1), BuildingBlock: XUDNAN_clean_linker_2, # of connection points: 2
#     Edge 19, Type (0, 1), BuildingBlock: XUDNAN_clean_linker_2, # of connection points: 2
#     Edge 20, Type (0, 1), BuildingBlock: XUDNAN_clean_linker_2, # of connection points: 2
#     Edge 21, Type (0, 1), BuildingBlock: XUDNAN_clean_linker_2, # of connection points: 2
#     Edge 22, Type (0, 1), BuildingBlock: XUDNAN_clean_linker_2, # of connection points: 2
#     Edge 23, Type (0, 1), BuildingBlock: XUDNAN_clean_linker_2, # of connection points: 2
#     Edge 24, Type (0, 1), BuildingBlock: XUDNAN_clean_linker_2, # of connection points: 2
#     Edge 25, Type (0, 1), BuildingBlock: XUDNAN_clean_linker_2, # of connection points: 2
#     Edge 26, Type (0, 1), BuildingBlock: XUDNAN_clean_linker_2, # of connection points: 2
#     Edge 27, Type (0, 1), BuildingBlock: XUDNAN_clean_linker_2, # of connection points: 2
#     Edge 28, Type (0, 1), BuildingBlock: XUDNAN_clean_linker_2, # of connection points: 2
#     Edge 29, Type (0, 1), BuildingBlock: XUDNAN_clean_linker_2, # of connection points: 2
#     Edge 30, Type (0, 1), BuildingBlock: XUDNAN_clean_linker_2, # of connection points: 2
#     Edge 31, Type (0, 1), BuildingBlock: XUDNAN_clean_linker_2, # of connection points: 2
#     Edge 32, Type (0, 1), BuildingBlock: XUDNAN_clean_linker_2, # of connection points: 2
#     Edge 33, Type (0, 1), BuildingBlock: XUDNAN_clean_linker_2, # of connection points: 2
#     Edge 34, Type (0, 1), BuildingBlock: XUDNAN_clean_linker_2, # of connection points: 2
#     Edge 35, Type (0, 1), BuildingBlock: XUDNAN_clean_linker_2, # of connection points: 2
# Relax obj value: 0.296
# Max RMSD: 0.190
# Mean RMSD: 0.178
data_MOF--net-dag--node1-MIDCAF_clean_sbu_0--node2-WUSLED_clean_sbu_0--edge1-XUDNAN_clean_linker_2
_symmetry_space_group_name_H-M    P1
_symmetry_Int_Tables_number       1
_symmetry_cell_setting            triclinic
loop_
_symmetry_equiv_pos_as_xyz
'x, y, z'
_cell_length_a     53.068825
_cell_length_b     51.847258
_cell_length_c     39.666307
_cell_angle_alpha  90.259133
_cell_angle_beta   93.642352
_cell_angle_gamma 90.21774
loop_
_atom_site_label
_atom_site_type_symbol
_atom_site_fract_x
_atom_site_fract_y
_atom_site_fract_z
_atom_type_partial_charge
Zn0 Zn 0.14394 0.8175 0.07731 0.0
Zn1 Zn 0.15625 0.86801 0.95781 0.0
Zn2 Zn 0.15198 0.85136 0.00835 0.0
C3 C 0.15592 0.91206 0.98696 0.0
C4 C 0.11357 0.83985 0.95163 0.0
O5 O 0.17621 0.81532 0.01397 0.0
O6 O 0.1623 0.79098 0.05576 0.0
C7 C 0.17036 0.87186 0.0692 0.0
O8 O 0.16188 0.89504 0.01001 0.0
O9 O 0.14705 0.90441 0.95842 0.0
O10 O 0.13238 0.84376 0.93448 0.0
O11 O 0.11492 0.84569 0.98315 0.0
O12 O 0.15994 0.85046 0.07234 0.0
O13 O 0.16808 0.88223 0.04014 0.0
O14 O 0.11062 0.84341 0.01934 0.0
O15 O 0.10828 0.81927 0.06576 0.0
C16 C 0.0977 0.83184 0.04162 0.0
O17 O 0.18039 0.82845 0.98128 0.0
O18 O 0.19202 0.86185 0.9522 0.0
C19 C 0.17639 0.79427 0.03163 0.0
C20 C 0.19559 0.83878 0.96095 0.0
Zn21 Zn 0.64206 0.63306 0.4395 0.0
Zn22 Zn 0.6446 0.66878 0.55182 0.0
Zn23 Zn 0.64208 0.65207 0.4919 0.0
C24 C 0.64919 0.61705 0.56116 0.0
C25 C 0.59727 0.68215 0.52215 0.0
O26 O 0.66677 0.67605 0.46096 0.0
O27 O 0.65024 0.66258 0.41164 0.0
C28 C 0.67154 0.60103 0.47573 0.0
O29 O 0.64946 0.61905 0.52864 0.0
O30 O 0.64693 0.63707 0.57884 0.0
O31 O 0.61173 0.68573 0.54822 0.0
O32 O 0.60434 0.66831 0.49747 0.0
O33 O 0.66928 0.60797 0.44534 0.0
O34 O 0.65935 0.61324 0.49792 0.0
O35 O 0.60206 0.65251 0.46738 0.0
O36 O 0.60761 0.61979 0.43334 0.0
C37 C 0.59282 0.63567 0.44578 0.0
O38 O 0.67188 0.6824 0.49488 0.0
O39 O 0.67452 0.69107 0.5497 0.0
C40 C 0.66457 0.67795 0.42851 0.0
C41 C 0.68232 0.69442 0.52067 0.0
Zn42 Zn 0.84804 0.18298 0.97348 0.0
Zn43 Zn 0.85557 0.13119 0.12426 0.0
Zn44 Zn 0.85565 0.15102 0.07017 0.0
C45 C 0.90572 0.1406 0.11774 0.0
C46 C 0.83098 0.09752 0.0761 0.0
O47 O 0.82814 0.182 0.07239 0.0
O48 O 0.84013 0.18367 0.02212 0.0
C49 C 0.88973 0.17745 0.03243 0.0
O50 O 0.89604 0.15187 0.09109 0.0
O51 O 0.8917 0.12808 0.13633 0.0
O52 O 0.83635 0.10141 0.10712 0.0
O53 O 0.83882 0.11359 0.05444 0.0
O54 O 0.86754 0.17631 0.01874 0.0
O55 O 0.89282 0.1669 0.06134 0.0
O56 O 0.84786 0.12632 0.02141 0.0
O57 O 0.8455 0.14398 0.96855 0.0
C58 C 0.84555 0.12445 0.98836 0.0
O59 O 0.83048 0.17349 0.10424 0.0
O60 O 0.83671 0.15373 0.15322 0.0
C61 C 0.82491 0.19157 0.04298 0.0
C62 C 0.8265 0.17164 0.13599 0.0
Zn63 Zn 0.35149 0.36205 0.61354 0.0
Zn64 Zn 0.34648 0.33279 0.50197 0.0
Zn65 Zn 0.34701 0.35376 0.55588 0.0
C66 C 0.39473 0.32808 0.51471 0.0
C67 C 0.33001 0.38527 0.49555 0.0
O68 O 0.31577 0.33419 0.58213 0.0
O69 O 0.31784 0.35685 0.62932 0.0
C70 C 0.39231 0.33603 0.6053 0.0
O71 O 0.38611 0.33832 0.54148 0.0
O72 O 0.37992 0.32454 0.48908 0.0
O73 O 0.33183 0.36342 0.4819 0.0
O74 O 0.33615 0.38811 0.52711 0.0
O75 O 0.37708 0.33616 0.62833 0.0
O76 O 0.38515 0.34451 0.57583 0.0
O77 O 0.34012 0.39642 0.56252 0.0
O78 O 0.36075 0.39913 0.61234 0.0
C79 C 0.34891 0.41019 0.58786 0.0
O80 O 0.31709 0.32288 0.55131 0.0
O81 O 0.32414 0.30329 0.50323 0.0
C82 C 0.30632 0.34085 0.61003 0.0
C83 C 0.312 0.30487 0.52933 0.0
C84 C 0.10611 0.11984 0.30106 0.0
C85 C 0.10325 0.10152 0.27489 0.0
C86 C 0.06545 0.1233 0.25199 0.0
C87 C 0.08313 0.10328 0.25049 0.0
C88 C 0.06802 0.14115 0.27888 0.0
C89 C 0.08825 0.13947 0.30314 0.0
U90 U 0.16559 0.08621 0.33167 0.0
O91 O 0.20421 0.10092 0.34252 0.0
O92 O 0.18481 0.08035 0.38175 0.0
C93 C 0.20441 0.09446 0.37454 0.0
C94 C 0.1285 0.11931 0.3248 0.0
C95 C 0.21142 0.11541 0.39842 0.0
C96 C 0.19958 0.14937 0.43658 0.0
C97 C 0.19294 0.12843 0.41561 0.0
C98 C 0.24329 0.14466 0.42335 0.0
C99 C 0.22477 0.15801 0.44035 0.0
C100 C 0.23665 0.1235 0.40266 0.0
C101 C 0.17847 0.02265 0.285 0.0
C102 C 0.21415 0.00354 0.25882 0.0
C103 C 0.17868 0.97686 0.27265 0.0
C104 C 0.16706 0.99829 0.28608 0.0
C105 C 0.20181 0.97954 0.25763 0.0
C106 C 0.20262 0.02497 0.27257 0.0
C107 C 0.16339 0.04543 0.29257 0.0
O108 O 0.12904 0.10064 0.34716 0.0
O109 O 0.14998 0.12222 0.31049 0.0
O110 O 0.17209 0.06788 0.28318 0.0
O111 O 0.15368 0.04595 0.32225 0.0
H112 H 0.11688 0.08615 0.27299 0.0
H113 H 0.08144 0.08903 0.23041 0.0
H114 H 0.05478 0.15689 0.28061 0.0
H115 H 0.09023 0.1538 0.32312 0.0
H116 H 0.1849 0.15886 0.44969 0.0
H117 H 0.17329 0.12265 0.4125 0.0
H118 H 0.2628 0.15098 0.42518 0.0
H119 H 0.25113 0.1138 0.38934 0.0
H120 H 0.23202 0.00599 0.24741 0.0
H121 H 0.16856 0.95866 0.27161 0.0
H122 H 0.14842 0.99609 0.29542 0.0
H123 H 0.21196 0.04354 0.27169 0.0
C124 C 0.31589 0.6485 0.64113 0.0
C125 C 0.33802 0.63743 0.62973 0.0
C126 C 0.3169 0.59567 0.62314 0.0
C127 C 0.33849 0.61121 0.62071 0.0
C128 C 0.29441 0.60732 0.63236 0.0
C129 C 0.29393 0.63345 0.64123 0.0
U130 U 0.34125 0.71781 0.65144 0.0
O131 O 0.32224 0.75417 0.66297 0.0
O132 O 0.3524 0.73929 0.69794 0.0
C133 C 0.33486 0.75684 0.69241 0.0
C134 C 0.3159 0.67457 0.65639 0.0
C135 C 0.31982 0.76247 0.72132 0.0
C136 C 0.28662 0.7513 0.75808 0.0
C137 C 0.29981 0.74635 0.72932 0.0
C138 C 0.31325 0.78861 0.77087 0.0
C139 C 0.29336 0.77235 0.7794 0.0
C140 C 0.32633 0.78369 0.74207 0.0
C141 C 0.39527 0.7396 0.598 0.0
C142 C 0.43548 0.76046 0.61302 0.0
C143 C 0.42209 0.75331 0.5542 0.0
C144 C 0.39938 0.74286 0.56376 0.0
C145 C 0.44112 0.76028 0.57885 0.0
C146 C 0.41266 0.75014 0.62258 0.0
C147 C 0.37556 0.72136 0.60718 0.0
O148 O 0.33604 0.68052 0.67591 0.0
O149 O 0.30791 0.69363 0.63676 0.0
O150 O 0.35196 0.72817 0.60031 0.0
O151 O 0.37946 0.71002 0.63661 0.0
H152 H 0.35521 0.64873 0.62933 0.0
H153 H 0.3561 0.60276 0.61387 0.0
H154 H 0.27742 0.5959 0.63414 0.0
H155 H 0.27665 0.64159 0.64974 0.0
H156 H 0.27115 0.73865 0.76358 0.0
H157 H 0.29458 0.72984 0.71353 0.0
H158 H 0.31917 0.80478 0.78688 0.0
H159 H 0.34185 0.79624 0.73631 0.0
H160 H 0.44973 0.76605 0.6325 0.0
H161 H 0.42584 0.75291 0.52767 0.0
H162 H 0.38606 0.73512 0.54443 0.0
H163 H 0.40967 0.74834 0.64923 0.0
C164 C 0.76106 0.87634 0.10964 0.0
C165 C 0.7748 0.88247 0.08165 0.0
C166 C 0.75843 0.9262 0.08191 0.0
C167 C 0.77337 0.90718 0.06774 0.0
C168 C 0.74376 0.91958 0.10892 0.0
C169 C 0.74506 0.8948 0.12266 0.0
U170 U 0.80322 0.81918 0.12924 0.0
O171 O 0.81602 0.80261 0.17821 0.0
O172 O 0.79442 0.77871 0.14071 0.0
C173 C 0.80384 0.7808 0.1721 0.0
C174 C 0.76576 0.85208 0.12787 0.0
C175 C 0.78687 0.77318 0.19827 0.0
C176 C 0.75135 0.78234 0.23228 0.0
C177 C 0.76638 0.7888 0.20578 0.0
C178 C 0.77677 0.74423 0.24341 0.0
C179 C 0.75652 0.76007 0.25159 0.0
C180 C 0.79182 0.75076 0.21702 0.0
C181 C 0.86519 0.81918 0.08124 0.0
C182 C 0.90562 0.80016 0.09884 0.0
C183 C 0.90163 0.82597 0.04806 0.0
C184 C 0.87597 0.82947 0.05282 0.0
C185 C 0.91698 0.81224 0.07182 0.0
C186 C 0.87992 0.80367 0.10358 0.0
C187 C 0.83996 0.82811 0.08931 0.0
O188 O 0.76535 0.83099 0.10928 0.0
O189 O 0.78502 0.85308 0.15032 0.0
O190 O 0.83861 0.83879 0.11925 0.0
O191 O 0.82055 0.81314 0.0806 0.0
H192 H 0.78758 0.86855 0.07161 0.0
H193 H 0.78526 0.91189 0.0474 0.0
H194 H 0.73216 0.93392 0.12037 0.0
H195 H 0.73451 0.89045 0.14446 0.0
H196 H 0.73571 0.79474 0.23766 0.0
H197 H 0.76225 0.80619 0.19144 0.0
H198 H 0.78144 0.7271 0.258 0.0
H199 H 0.80761 0.73854 0.21167 0.0
H200 H 0.91695 0.78925 0.1174 0.0
H201 H 0.9098 0.83573 0.02724 0.0
H202 H 0.8649 0.84161 0.0354 0.0
H203 H 0.87192 0.79553 0.12565 0.0
C204 C 0.66652 0.43678 0.77537 0.0
C205 C 0.64619 0.4345 0.75107 0.0
C206 C 0.66045 0.47259 0.72197 0.0
C207 C 0.64325 0.45213 0.72457 0.0
C208 C 0.68034 0.47535 0.747 0.0
C209 C 0.68341 0.4575 0.77342 0.0
U210 U 0.63858 0.38103 0.81845 0.0
O211 O 0.6519 0.34237 0.83244 0.0
O212 O 0.63751 0.36804 0.87121 0.0
C213 C 0.64676 0.34527 0.86422 0.0
C214 C 0.67 0.41722 0.80214 0.0
C215 C 0.66441 0.33356 0.88944 0.0
C216 C 0.70675 0.32227 0.9107 0.0
C217 C 0.69062 0.33634 0.88843 0.0
C218 C 0.6705 0.30303 0.9353 0.0
C219 C 0.69682 0.30524 0.93412 0.0
C220 C 0.65448 0.31709 0.91317 0.0
C221 C 0.57233 0.36161 0.78631 0.0
C222 C 0.52978 0.35488 0.80367 0.0
C223 C 0.54445 0.33114 0.75606 0.0
C224 C 0.56813 0.34263 0.76122 0.0
C225 C 0.52451 0.33928 0.7751 0.0
C226 C 0.55358 0.3662 0.80913 0.0
C227 C 0.59456 0.37865 0.78553 0.0
O228 O 0.65514 0.41972 0.82727 0.0
O229 O 0.67121 0.39334 0.79099 0.0
O230 O 0.61492 0.36828 0.77409 0.0
O231 O 0.59922 0.39378 0.81189 0.0
H232 H 0.63273 0.41882 0.75235 0.0
H233 H 0.62749 0.44973 0.70606 0.0
H234 H 0.69393 0.49089 0.74562 0.0
H235 H 0.69912 0.45967 0.79203 0.0
H236 H 0.72696 0.32458 0.90945 0.0
H237 H 0.69855 0.34888 0.87003 0.0
H238 H 0.66222 0.28979 0.95256 0.0
H239 H 0.63424 0.31449 0.9139 0.0
H240 H 0.51462 0.36128 0.81871 0.0
H241 H 0.54084 0.31914 0.73381 0.0
H242 H 0.58232 0.33841 0.74354 0.0
H243 H 0.55642 0.38031 0.82923 0.0
C244 C 0.62098 0.28779 0.45319 0.0
C245 C 0.60999 0.31169 0.46054 0.0
C246 C 0.57248 0.28993 0.47904 0.0
C247 C 0.58593 0.31276 0.47327 0.0
C248 C 0.58448 0.26611 0.474 0.0
C249 C 0.60834 0.26507 0.461 0.0
U250 U 0.68477 0.31618 0.43659 0.0
O251 O 0.72192 0.29907 0.42819 0.0
O252 O 0.70307 0.32387 0.38957 0.0
C253 C 0.72284 0.30961 0.39819 0.0
C254 C 0.64487 0.28627 0.436 0.0
C255 C 0.73287 0.29397 0.3711 0.0
C256 C 0.72765 0.26352 0.32431 0.0
C257 C 0.71821 0.27549 0.35271 0.0
C258 C 0.76652 0.28799 0.33313 0.0
C259 C 0.75164 0.27025 0.31376 0.0
C260 C 0.75724 0.29965 0.36155 0.0
C261 C 0.70191 0.37924 0.48328 0.0
C262 C 0.72929 0.41293 0.46374 0.0
C263 C 0.71102 0.41704 0.51798 0.0
C264 C 0.69946 0.39301 0.51324 0.0
C265 C 0.72524 0.42777 0.49271 0.0
C266 C 0.71767 0.38879 0.45904 0.0
C267 C 0.68565 0.35668 0.47634 0.0
O268 O 0.648 0.30412 0.41318 0.0
O269 O 0.6654 0.28187 0.45547 0.0
O270 O 0.6949 0.33425 0.48606 0.0
O271 O 0.67387 0.3561 0.4462 0.0
H272 H 0.61961 0.32955 0.45524 0.0
H273 H 0.57736 0.33142 0.47684 0.0
H274 H 0.575 0.24812 0.47897 0.0
H275 H 0.61659 0.24645 0.45606 0.0
H276 H 0.71582 0.24988 0.30978 0.0
H277 H 0.69929 0.27094 0.35968 0.0
H278 H 0.7852 0.29322 0.32588 0.0
H279 H 0.76883 0.31385 0.37547 0.0
H280 H 0.74028 0.42056 0.44395 0.0
H281 H 0.70709 0.42801 0.54033 0.0
H282 H 0.68735 0.38589 0.53216 0.0
H283 H 0.71989 0.37825 0.43577 0.0
C284 C 0.09032 0.25986 0.92335 0.0
C285 C 0.08617 0.24255 0.94959 0.0
C286 C 0.04219 0.25566 0.94916 0.0
C287 C 0.06235 0.24058 0.96254 0.0
C288 C 0.04687 0.27417 0.92443 0.0
C289 C 0.07077 0.27623 0.91162 0.0
U290 U 0.14537 0.21998 0.90006 0.0
O291 O 0.16139 0.21207 0.85151 0.0
O292 O 0.18522 0.22976 0.89269 0.0
C293 C 0.18319 0.22294 0.86064 0.0
C294 C 0.11357 0.25817 0.90513 0.0
C295 C 0.19263 0.24144 0.83622 0.0
C296 C 0.18481 0.27374 0.79251 0.0
C297 C 0.17639 0.25909 0.81921 0.0
C298 C 0.2262 0.25445 0.80094 0.0
C299 C 0.20963 0.27102 0.78239 0.0
C300 C 0.21774 0.23975 0.82749 0.0
C301 C 0.14276 0.15166 0.94332 0.0
C302 C 0.16705 0.11235 0.93677 0.0
C303 C 0.135 0.1141 0.97755 0.0
C304 C 0.12953 0.13946 0.9682 0.0
C305 C 0.15393 0.10022 0.96223 0.0
C306 C 0.16156 0.138 0.92744 0.0
C307 C 0.1356 0.17832 0.93454 0.0
O308 O 0.13475 0.25643 0.92408 0.0
O309 O 0.11221 0.2416 0.87993 0.0
O310 O 0.12618 0.18249 0.90363 0.0
O311 O 0.15044 0.19699 0.94662 0.0
H312 H 0.10095 0.22952 0.95876 0.0
H313 H 0.05929 0.22593 0.98125 0.0
H314 H 0.03172 0.28617 0.91384 0.0
H315 H 0.07359 0.28963 0.89131 0.0
H316 H 0.17151 0.28629 0.77887 0.0
H317 H 0.15694 0.2608 0.82567 0.0
H318 H 0.24563 0.25241 0.79451 0.0
H319 H 0.23062 0.2264 0.84049 0.0
H320 H 0.18172 0.10216 0.92447 0.0
H321 H 0.12411 0.10524 0.9966 0.0
H322 H 0.11474 0.14957 0.98043 0.0
H323 H 0.17188 0.1471 0.90798 0.0
C324 C 0.28703 0.51569 0.24125 0.0
C325 C 0.30737 0.50108 0.25497 0.0
C326 C 0.28046 0.48283 0.29606 0.0
C327 C 0.30405 0.48462 0.28199 0.0
C328 C 0.25974 0.49604 0.28088 0.0
C329 C 0.26299 0.51228 0.25344 0.0
U330 U 0.32914 0.57086 0.2215 0.0
O331 O 0.33853 0.58902 0.17376 0.0
O332 O 0.32073 0.6117 0.21269 0.0
C333 C 0.32831 0.6111 0.18181 0.0
C334 C 0.29169 0.53777 0.21939 0.0
C335 C 0.31089 0.62283 0.15615 0.0
C336 C 0.26934 0.62663 0.12687 0.0
C337 C 0.28648 0.61293 0.14839 0.0
C338 C 0.30126 0.65949 0.1202 0.0
C339 C 0.27652 0.65037 0.11338 0.0
C340 C 0.31828 0.64583 0.14135 0.0
C341 C 0.38984 0.5769 0.2811 0.0
C342 C 0.41469 0.61534 0.29617 0.0
C343 C 0.4294 0.57333 0.31498 0.0
C344 C 0.40819 0.56183 0.29846 0.0
C345 C 0.43285 0.60028 0.31447 0.0
C346 C 0.39336 0.60374 0.2796 0.0
C347 C 0.36641 0.56421 0.26749 0.0
O348 O 0.29105 0.56009 0.23508 0.0
O349 O 0.31088 0.53567 0.20011 0.0
O350 O 0.36647 0.55446 0.23683 0.0
O351 O 0.34525 0.57597 0.27344 0.0
H352 H 0.32619 0.50363 0.24638 0.0
H353 H 0.32039 0.47478 0.29347 0.0
H354 H 0.24138 0.49473 0.29125 0.0
H355 H 0.24713 0.5235 0.24326 0.0
H356 H 0.25027 0.61938 0.12206 0.0
H357 H 0.28047 0.59519 0.15984 0.0
H358 H 0.30716 0.67773 0.10998 0.0
H359 H 0.33699 0.65374 0.14716 0.0
H360 H 0.41687 0.63608 0.29487 0.0
H361 H 0.44265 0.56108 0.3292 0.0
H362 H 0.40573 0.54112 0.30015 0.0
H363 H 0.37938 0.61574 0.26627 0.0
C364 C 0.83353 0.94258 0.77362 0.0
C365 C 0.85433 0.94158 0.79729 0.0
C366 C 0.83865 0.97853 0.82754 0.0
C367 C 0.85684 0.95926 0.82395 0.0
C368 C 0.81811 0.97996 0.80324 0.0
C369 C 0.81553 0.96204 0.77654 0.0
U370 U 0.86376 0.88687 0.73507 0.0
O371 O 0.85205 0.84729 0.72208 0.0
O372 O 0.86788 0.8719 0.68349 0.0
C373 C 0.85818 0.84932 0.69058 0.0
C374 C 0.83087 0.92269 0.74683 0.0
C375 C 0.84117 0.83689 0.66452 0.0
C376 C 0.80106 0.81684 0.64652 0.0
C377 C 0.81562 0.83216 0.66951 0.0
C378 C 0.83716 0.81153 0.61275 0.0
C379 C 0.81178 0.80599 0.61811 0.0
C380 C 0.85169 0.82677 0.63576 0.0
C381 C 0.92826 0.87357 0.78076 0.0
C382 C 0.95905 0.84165 0.7655 0.0
C383 C 0.96328 0.86341 0.81993 0.0
C384 C 0.94146 0.87725 0.81195 0.0
C385 C 0.97234 0.84574 0.79676 0.0
C386 C 0.93688 0.85559 0.75749 0.0
C387 C 0.90525 0.88845 0.77419 0.0
O388 O 0.84688 0.92479 0.72297 0.0
O389 O 0.82911 0.89901 0.75821 0.0
O390 O 0.88451 0.87706 0.78279 0.0
O391 O 0.90277 0.90053 0.74512 0.0
H392 H 0.86858 0.92685 0.79538 0.0
H393 H 0.87312 0.95787 0.84175 0.0
H394 H 0.80371 0.99452 0.80534 0.0
H395 H 0.79937 0.96318 0.75851 0.0
H396 H 0.78167 0.81273 0.65172 0.0
H397 H 0.80714 0.83957 0.69171 0.0
H398 H 0.84593 0.80386 0.59094 0.0
H399 H 0.87144 0.82999 0.63162 0.0
H400 H 0.96594 0.82812 0.74738 0.0
H401 H 0.97337 0.86673 0.84421 0.0
H402 H 0.9349 0.8909 0.83019 0.0
H403 H 0.9266 0.85248 0.73333 0.0
H404 H 0.19202 0.92051 0.07795 0.0
H405 H 0.17932 0.84805 0.12892 0.0
H406 H 0.19725 0.86613 0.18184 0.0
H407 H 0.25151 0.93904 0.13431 0.0
H408 H 0.24255 0.97254 0.13395 0.0
H409 H 0.23486 0.95243 0.09746 0.0
H410 H 0.18768 0.96433 0.09944 0.0
H411 H 0.19512 0.98467 0.13538 0.0
H412 H 0.17196 0.95931 0.13788 0.0
H413 H 0.20704 0.89297 0.23064 0.0
H414 H 0.20618 0.92827 0.27234 0.0
H415 H 0.21354 0.98404 0.19248 0.0
C416 C 0.19361 0.90842 0.10011 0.0
C417 C 0.18401 0.88306 0.09925 0.0
C418 C 0.18639 0.86768 0.1288 0.0
C419 C 0.19688 0.87763 0.15912 0.0
C420 C 0.20537 0.90294 0.15965 0.0
C421 C 0.20408 0.91818 0.13098 0.0
C422 C 0.21119 0.94578 0.13982 0.0
C423 C 0.23654 0.95287 0.12554 0.0
C424 C 0.19022 0.96461 0.12744 0.0
C425 C 0.21384 0.94406 0.17807 0.0
C426 C 0.21152 0.9189 0.18881 0.0
C427 C 0.20976 0.91269 0.22276 0.0
C428 C 0.20921 0.9328 0.24626 0.0
C429 C 0.21017 0.95872 0.23556 0.0
C430 C 0.2137 0.96432 0.20136 0.0
H431 H 0.56432 0.6795 0.57038 0.0
H432 H 0.57664 0.71514 0.47429 0.0
H433 H 0.54025 0.74431 0.48161 0.0
H434 H 0.49604 0.68186 0.56353 0.0
H435 H 0.4945 0.68785 0.60815 0.0
H436 H 0.52045 0.6699 0.59301 0.0
H437 H 0.55129 0.70238 0.62414 0.0
H438 H 0.52531 0.72113 0.63786 0.0
H439 H 0.54912 0.73621 0.61406 0.0
H440 H 0.50225 0.76949 0.50068 0.0
H441 H 0.46276 0.78368 0.52528 0.0
H442 H 0.47844 0.73244 0.61004 0.0
C443 C 0.55892 0.69305 0.55051 0.0
C444 C 0.57268 0.69486 0.52145 0.0
C445 C 0.56568 0.71311 0.49625 0.0
C446 C 0.5454 0.72997 0.50052 0.0
C447 C 0.53274 0.7283 0.53027 0.0
C448 C 0.53905 0.70996 0.55451 0.0
C449 C 0.5225 0.71154 0.58394 0.0
C450 C 0.50747 0.68631 0.58733 0.0
C451 C 0.53799 0.71823 0.61694 0.0
C452 C 0.50559 0.73357 0.5725 0.0
C453 C 0.51181 0.74321 0.54164 0.0
C454 C 0.49734 0.76221 0.52495 0.0
C455 C 0.47508 0.7703 0.53917 0.0
C456 C 0.4677 0.75936 0.5697 0.0
C457 C 0.4839 0.74178 0.58723 0.0
H458 H 0.81413 0.06302 0.12023 0.0
H459 H 0.80897 0.08094 0.01341 0.0
H460 H 0.78639 0.03941 1.00185 0.0
H461 H 0.8236 0.99873 0.11838 0.0
H462 H 0.80336 0.99136 0.15191 0.0
H463 H 0.81812 0.02249 0.15041 0.0
H464 H 0.77432 0.04448 0.15076 0.0
H465 H 0.75933 0.01329 0.15229 0.0
H466 H 0.7498 0.03564 0.11926 0.0
H467 H 0.76981 0.992 0.00356 0.0
H468 H 0.75746 0.94733 0.01806 0.0
H469 H 0.76848 0.96619 0.12445 0.0
C470 C 0.80836 0.05855 0.09418 0.0
C471 C 0.81516 0.07443 0.06731 0.0
C472 C 0.80594 0.06807 0.03404 0.0
C473 C 0.79248 0.04485 0.02746 0.0
C474 C 0.78712 0.02918 0.05476 0.0
C475 C 0.79415 0.0364 0.08753 0.0
C476 C 0.78625 0.01691 0.11294 0.0
C477 C 0.8092 0.00678 0.13464 0.0
C478 C 0.76623 0.02826 0.13511 0.0
C479 C 0.77503 0.99648 0.08938 0.0
C480 C 0.77545 0.00376 0.05586 0.0
C481 C 0.7687 0.98648 0.02971 0.0
C482 C 0.7618 0.96118 0.03813 0.0
C483 C 0.76152 0.95357 0.07237 0.0
C484 C 0.76764 0.97172 0.0981 0.0
H485 H 0.41955 0.29692 0.63522 0.0
H486 H 0.42303 0.37642 0.60257 0.0
H487 H 0.45511 0.38583 0.64845 0.0
H488 H 0.42387 0.30482 0.71726 0.0
H489 H 0.44572 0.27962 0.73001 0.0
H490 H 0.4267 0.27664 0.69098 0.0
H491 H 0.4661 0.27148 0.65624 0.0
H492 H 0.48524 0.27226 0.69542 0.0
H493 H 0.49168 0.29437 0.66204 0.0
H494 H 0.47429 0.38929 0.70623 0.0
H495 H 0.50178 0.38356 0.75758 0.0
H496 H 0.4932 0.30042 0.74856 0.0
C497 C 0.42849 0.31575 0.63638 0.0
C498 C 0.4189 0.33609 0.61606 0.0
C499 C 0.43047 0.36066 0.61804 0.0
C500 C 0.44825 0.36631 0.6444 0.0
C501 C 0.45509 0.34662 0.66676 0.0
C502 C 0.44728 0.3214 0.66155 0.0
C503 C 0.45824 0.30399 0.6893 0.0
C504 C 0.43738 0.29048 0.70798 0.0
C505 C 0.47641 0.28437 0.6749 0.0
C506 C 0.4722 0.32376 0.71173 0.0
C507 C 0.4691 0.34828 0.69871 0.0
C508 C 0.47794 0.37013 0.71603 0.0
C509 C 0.493 0.36666 0.74564 0.0
C510 C 0.49982 0.34153 0.75661 0.0
C511 C 0.4882 0.31979 0.74059 0.0
H512 H 0.68434 0.56335 0.43295 0.0
H513 H 0.69518 0.58818 0.53737 0.0
H514 H 0.7199 0.54863 0.55057 0.0
H515 H 0.67247 0.50094 0.44707 0.0
H516 H 0.68861 0.48842 0.41187 0.0
H517 H 0.67642 0.52059 0.41036 0.0
H518 H 0.721 0.53795 0.39915 0.0
H519 H 0.73342 0.50563 0.40125 0.0
H520 H 0.74741 0.53055 0.42827 0.0
H521 H 0.73792 0.50395 0.55343 0.0
H522 H 0.74256 0.45683 0.54776 0.0
H523 H 0.7197 0.46209 0.44113 0.0
C524 C 0.69241 0.56081 0.45848 0.0
C525 C 0.68751 0.57852 0.48433 0.0
C526 C 0.6982 0.57445 0.51742 0.0
C527 C 0.71267 0.55233 0.52493 0.0
C528 C 0.71672 0.53494 0.49883 0.0
C529 C 0.7069 0.53907 0.46622 0.0
C530 C 0.71091 0.51617 0.44353 0.0
C531 C 0.68561 0.50593 0.42732 0.0
C532 C 0.72929 0.52298 0.41646 0.0
C533 C 0.72277 0.49757 0.46906 0.0
C534 C 0.72693 0.50905 0.50051 0.0
C535 C 0.73513 0.49488 0.52885 0.0
C536 C 0.7376 0.4681 0.52541 0.0
C537 C 0.73129 0.45575 0.49405 0.0
C538 C 0.72523 0.47094 0.46525 0.0
H539 H 0.93489 0.19726 0.06009 0.0
H540 H 0.89113 0.1855 0.96502 0.0
H541 H 0.92338 0.20853 0.93505 0.0
H542 H 0.95829 0.26212 0.03867 0.0
H543 H 0.98895 0.2572 0.05982 0.0
H544 H 0.96162 0.24119 0.07482 0.0
H545 H 0.98342 0.19686 0.06926 0.0
H546 H 0.01087 0.21277 0.05469 0.0
H547 H 0.99535 0.18769 0.02938 0.0
H548 H 0.96013 0.23146 0.91473 0.0
H549 H 0.00195 0.24913 0.90415 0.0
H550 H 0.02348 0.24606 0.0115 0.0
C551 C 0.9322 0.19955 0.03298 0.0
C552 C 0.91033 0.18983 0.01493 0.0
C553 C 0.90743 0.19318 0.97949 0.0
C554 C 0.92567 0.20628 0.96218 0.0
C555 C 0.94673 0.21607 0.98065 0.0
C556 C 0.95027 0.2128 0.01519 0.0
C557 C 0.97523 0.22456 0.02848 0.0
C558 C 0.97075 0.24763 0.05184 0.0
C559 C 0.99222 0.20425 0.0465 0.0
C560 C 0.98571 0.23347 0.99569 0.0
C561 C 0.96851 0.22908 0.96865 0.0
C562 C 0.97374 0.23521 0.93569 0.0
C563 C 0.9975 0.24543 0.92996 0.0
C564 C 0.01593 0.24913 0.95699 0.0
C565 C 0.00973 0.24348 0.99038 0.0
H566 H 0.3326 0.38457 0.42902 0.0
H567 H 0.30684 0.43247 0.50992 0.0
H568 H 0.28635 0.46181 0.46648 0.0
H569 H 0.34565 0.42993 0.37062 0.0
H570 H 0.3335 0.41065 0.33522 0.0
H571 H 0.34578 0.39522 0.37315 0.0
H572 H 0.30345 0.37061 0.37746 0.0
H573 H 0.29092 0.38597 0.33938 0.0
H574 H 0.27437 0.38841 0.37756 0.0
H575 H 0.26947 0.48538 0.41142 0.0
H576 H 0.26228 0.5028 0.35352 0.0
H577 H 0.29647 0.43472 0.31266 0.0
C578 C 0.3226 0.40114 0.4381 0.0
C579 C 0.32101 0.40609 0.47283 0.0
C580 C 0.30826 0.42837 0.48331 0.0
C581 C 0.29631 0.4448 0.45885 0.0
C582 C 0.29708 0.43808 0.42461 0.0
C583 C 0.31001 0.41665 0.41466 0.0
C584 C 0.30841 0.41264 0.37705 0.0
C585 C 0.3349 0.41212 0.36322 0.0
C586 C 0.29339 0.38796 0.3673 0.0
C587 C 0.2939 0.43634 0.36646 0.0
C588 C 0.28693 0.45061 0.39402 0.0
C589 C 0.27459 0.47416 0.38985 0.0
C590 C 0.27042 0.48379 0.35691 0.0
C591 C 0.27879 0.46993 0.32887 0.0
C592 C 0.28976 0.44553 0.33372 0.0
H593 H 0.09202 0.87116 0.90628 0.0
H594 H 0.08362 0.79626 0.95205 0.0
H595 H 0.04976 0.78513 0.90783 0.0
H596 H 0.02695 0.88188 0.88127 0.0
H597 H 0.03494 0.89825 0.84338 0.0
H598 H 0.05663 0.89877 0.88 0.0
H599 H 0.09101 0.88052 0.8426 0.0
H600 H 0.06874 0.87838 0.80648 0.0
H601 H 0.08569 0.85008 0.82112 0.0
H602 H 0.01515 0.78441 0.85967 0.0
H603 H 0.9801 0.79637 0.8185 0.0
H604 H 0.01714 0.8689 0.80044 0.0
C605 C 0.08262 0.8526 0.90735 0.0
C606 C 0.08974 0.8347 0.93257 0.0
C607 C 0.07769 0.81039 0.93317 0.0
C608 C 0.05892 0.80381 0.90786 0.0
C609 C 0.0532 0.82163 0.88215 0.0
C610 C 0.06461 0.84563 0.88214 0.0
C611 C 0.05517 0.86181 0.85265 0.0
C612 C 0.04267 0.88662 0.86506 0.0
C613 C 0.07643 0.86804 0.82934 0.0
C614 C 0.0361 0.84345 0.836 0.0
C615 C 0.03515 0.82028 0.85319 0.0
C616 C 0.01612 0.80215 0.84552 0.0
C617 C 0.99649 0.80886 0.82177 0.0
C618 C 0.99647 0.83329 0.80614 0.0
C619 C 0.01744 0.84975 0.81131 0.0
H620 H 0.83232 0.11428 0.92195 0.0
H621 H 0.85995 0.07675 0.01462 0.0
H622 H 0.8602 0.03498 0.98403 0.0
H623 H 0.79342 0.06517 0.88517 0.0
H624 H 0.80315 0.07025 0.84297 0.0
H625 H 0.80396 0.09662 0.87268 0.0
H626 H 0.85135 0.10412 0.86362 0.0
H627 H 0.8507 0.07778 0.83381 0.0
H628 H 0.87321 0.0778 0.86978 0.0
H629 H 0.85677 0.99708 0.94238 0.0
H630 H 0.85227 0.96713 0.8937 0.0
H631 H 0.8305 0.03095 0.8279 0.0
C632 C 0.83826 0.09733 0.93613 0.0
C633 C 0.84517 0.09877 0.97121 0.0
C634 C 0.85367 0.0761 0.98814 0.0
C635 C 0.85405 0.05231 0.97086 0.0
C636 C 0.84686 0.0517 0.93635 0.0
C637 C 0.83956 0.07377 0.91913 0.0
C638 C 0.83437 0.06855 0.88171 0.0
C639 C 0.8071 0.07556 0.86997 0.0
C640 C 0.85355 0.08291 0.86102 0.0
C641 C 0.83861 0.03974 0.88066 0.0
C642 C 0.84605 0.03037 0.91233 0.0
C643 C 0.85113 0.00429 0.91749 0.0
C644 C 0.84861 0.98744 0.88962 0.0
C645 C 0.84103 0.99665 0.8569 0.0
C646 C 0.836 0.02321 0.85258 0.0
H647 H 0.44155 0.34583 0.54372 0.0
H648 H 0.40579 0.28445 0.48275 0.0
H649 H 0.44714 0.26701 0.47157 0.0
H650 H 0.49193 0.35794 0.49446 0.0
H651 H 0.51622 0.36182 0.52802 0.0
H652 H 0.4838 0.36833 0.53584 0.0
H653 H 0.48586 0.33572 0.58511 0.0
H654 H 0.51848 0.32938 0.57778 0.0
H655 H 0.49605 0.30319 0.57776 0.0
H656 H 0.49033 0.25939 0.45938 0.0
H657 H 0.53555 0.25895 0.45103 0.0
H658 H 0.54696 0.32324 0.52116 0.0
C659 C 0.44257 0.32838 0.5288 0.0
C660 C 0.42034 0.3167 0.51381 0.0
C661 C 0.42245 0.294 0.49413 0.0
C662 C 0.44591 0.28379 0.48769 0.0
C663 C 0.4674 0.29619 0.50142 0.0
C664 C 0.46623 0.31764 0.52209 0.0
C665 C 0.49285 0.32725 0.53234 0.0
C666 C 0.4964 0.35551 0.52202 0.0
C667 C 0.49866 0.32368 0.57051 0.0
C668 C 0.50869 0.30899 0.51204 0.0
C669 C 0.49336 0.291 0.49507 0.0
C670 C 0.50273 0.27284 0.47328 0.0
C671 C 0.52859 0.27268 0.46884 0.0
C672 C 0.54514 0.29054 0.48607 0.0
C673 C 0.53493 0.3091 0.50792 0.0
H674 H 0.16172 0.94777 0.93782 0.0
H675 H 0.15812 0.94045 0.04628 0.0
H676 H 0.16169 0.98804 0.05208 0.0
H677 H 0.20601 0.00299 0.93928 0.0
H678 H 0.19033 0.01735 0.90239 0.0
H679 H 0.19029 0.98281 0.90727 0.0
H680 H 0.14144 0.98235 0.90033 0.0
H681 H 0.14138 0.01681 0.8954 0.0
H682 H 0.12369 0.00221 0.92768 0.0
H683 H 0.16208 0.03652 0.04522 0.0
H684 H 0.15848 0.08181 0.02679 0.0
H685 H 0.16109 0.05736 0.92235 0.0
C686 C 0.16205 0.95608 0.96295 0.0
C687 C 0.15999 0.94028 0.9918 0.0
C688 C 0.16033 0.95203 0.02404 0.0
C689 C 0.16221 0.97905 0.02747 0.0
C690 C 0.16395 0.994 0.99842 0.0
C691 C 0.16401 0.98287 0.96676 0.0
C692 C 0.16467 0.00318 0.93932 0.0
C693 C 0.18929 0.00147 0.92099 0.0
C694 C 0.1414 0.001 0.91423 0.0
C695 C 0.164 0.02761 0.96036 0.0
C696 C 0.16395 0.02187 0.99441 0.0
C697 C 0.16228 0.04117 0.01867 0.0
C698 C 0.16011 0.06686 0.00791 0.0
C699 C 0.15941 0.07319 0.9731 0.0
C700 C 0.16193 0.05323 0.94914 0.0
H701 H 0.57104 0.6001 0.40277 0.0
H702 H 0.55406 0.6705 0.45602 0.0
H703 H 0.51125 0.67072 0.42663 0.0
H704 H 0.54074 0.61758 0.3239 0.0
H705 H 0.53017 0.58519 0.31396 0.0
H706 H 0.5586 0.59041 0.34037 0.0
H707 H 0.54074 0.56259 0.38759 0.0
H708 H 0.51243 0.55696 0.36112 0.0
H709 H 0.51039 0.57042 0.40283 0.0
H710 H 0.46971 0.66228 0.3894 0.0
H711 H 0.43419 0.64536 0.35207 0.0
H712 H 0.48138 0.5822 0.32201 0.0
C713 C 0.55842 0.6156 0.4087 0.0
C714 C 0.56604 0.63534 0.43197 0.0
C715 C 0.54868 0.65511 0.4386 0.0
C716 C 0.52438 0.65542 0.42178 0.0
C717 C 0.51788 0.63588 0.39831 0.0
C718 C 0.53454 0.61632 0.39201 0.0
C719 C 0.52368 0.59762 0.36555 0.0
C720 C 0.53922 0.59772 0.33409 0.0
C721 C 0.52169 0.57029 0.38016 0.0
C722 C 0.49797 0.60931 0.35806 0.0
C723 C 0.49482 0.63143 0.37695 0.0
C724 C 0.47213 0.64502 0.37452 0.0
C725 C 0.45209 0.63536 0.353 0.0
C726 C 0.45483 0.61229 0.33417 0.0
C727 C 0.47839 0.59962 0.33636 0.0
H728 H 0.35277 0.45541 0.54971 0.0
H729 H 0.32535 0.42475 0.64222 0.0
H730 H 0.31316 0.46827 0.65957 0.0
H731 H 0.37979 0.51293 0.58754 0.0
H732 H 0.37127 0.53368 0.55234 0.0
H733 H 0.37624 0.49978 0.54534 0.0
H734 H 0.33143 0.49584 0.5155 0.0
H735 H 0.32648 0.52981 0.52235 0.0
H736 H 0.30453 0.50651 0.53726 0.0
H737 H 0.30483 0.51426 0.66845 0.0
H738 H 0.30186 0.5616 0.66921 0.0
H739 H 0.336 0.56506 0.57275 0.0
C740 C 0.34375 0.45795 0.57321 0.0
C741 C 0.33975 0.43664 0.59446 0.0
C742 C 0.32844 0.44076 0.62547 0.0
C743 C 0.32143 0.46542 0.63559 0.0
C744 C 0.32592 0.48607 0.61458 0.0
C745 C 0.33684 0.48281 0.5841 0.0
C746 C 0.34052 0.50886 0.56747 0.0
C747 C 0.36863 0.51412 0.56291 0.0
C748 C 0.32481 0.51035 0.53363 0.0
C749 C 0.33029 0.52706 0.59359 0.0
C750 C 0.3217 0.51326 0.62029 0.0
C751 C 0.31135 0.52531 0.64761 0.0
C752 C 0.30965 0.55223 0.64774 0.0
C753 C 0.31845 0.56703 0.62095 0.0
C754 C 0.32907 0.55423 0.59354 0.0
H755 H 0.05516 0.82179 0.99758 0.0
H756 H 0.0797 0.85183 0.09664 0.0
H757 H 0.03664 0.848 0.11487 0.0
H758 H 0.99204 0.85678 0.9967 0.0
H759 H 0.97568 0.83106 0.97364 0.0
H760 H 0.00841 0.83759 0.9671 0.0
H761 H 0.01915 0.79013 0.9813 0.0
H762 H 0.98663 0.78352 0.98876 0.0
H763 H 0.01105 0.77702 0.02126 0.0
H764 H 0.99406 0.83466 0.12605 0.0
H765 H 0.94896 0.82401 0.12558 0.0
H766 H 0.9481 0.80697 0.01815 0.0
C767 C 0.05113 0.82857 0.02249 0.0
C768 C 0.07077 0.83709 0.04573 0.0
C769 C 0.06489 0.84534 0.07843 0.0
C770 C 0.04054 0.843 0.0892 0.0
C771 C 0.02187 0.83321 0.06662 0.0
C772 C 0.02637 0.82719 0.03352 0.0
C773 C 0.00208 0.818 0.01465 0.0
C774 C 0.99407 0.83699 0.98634 0.0
C775 C 0.00491 0.79053 1.00068 0.0
C776 C 0.98385 0.81871 0.04287 0.0
C777 C 0.99603 0.82723 0.07263 0.0
C778 C 0.98404 0.82849 0.10277 0.0
C779 C 0.95846 0.82205 0.10234 0.0
C780 C 0.94493 0.81466 0.0719 0.0
C781 C 0.95793 0.81267 0.04178 0.0
H782 H 0.65822 0.60879 0.62877 0.0
H783 H 0.64379 0.5681 0.5336 0.0
H784 H 0.64558 0.52652 0.56423 0.0
H785 H 0.70119 0.56353 0.66876 0.0
H786 H 0.68898 0.56761 0.70982 0.0
H787 H 0.68728 0.59378 0.68008 0.0
H788 H 0.63891 0.59642 0.68514 0.0
H789 H 0.64044 0.57019 0.71479 0.0
H790 H 0.61973 0.56803 0.67707 0.0
H791 H 0.64767 0.48941 0.60623 0.0
H792 H 0.65135 0.45999 0.65518 0.0
H793 H 0.66388 0.52556 0.72253 0.0
C794 C 0.65555 0.59118 0.61419 0.0
C795 C 0.65121 0.59174 0.57861 0.0
C796 C 0.64758 0.56817 0.56074 0.0
C797 C 0.64842 0.54448 0.57798 0.0
C798 C 0.65263 0.54473 0.61311 0.0
C799 C 0.65614 0.56752 0.63095 0.0
C800 C 0.65986 0.56276 0.66861 0.0
C801 C 0.68588 0.57249 0.68263 0.0
C802 C 0.63846 0.57508 0.6875 0.0
C803 C 0.65827 0.53363 0.66929 0.0
C804 C 0.65386 0.52357 0.63708 0.0
C805 C 0.65117 0.49712 0.6315 0.0
C806 C 0.65317 0.48057 0.65948 0.0
C807 C 0.65799 0.49047 0.69267 0.0
C808 C 0.66053 0.51739 0.69746 0.0
H809 H 0.92404 0.14669 0.18183 0.0
H810 H 0.94779 0.13841 0.07985 0.0
H811 H 0.99234 0.13376 0.10285 0.0
H812 H 0.97953 0.18288 0.21643 0.0
H813 H 0.97876 0.16705 0.25672 0.0
H814 H 0.94987 0.17208 0.23127 0.0
H815 H 0.94031 0.12306 0.23376 0.0
H816 H 0.96939 0.11779 0.25853 0.0
H817 H 0.96304 0.1004 0.21944 0.0
H818 H 0.03365 0.12511 0.13896 0.0
H819 H 0.06815 0.1189 0.18322 0.0
H820 H 0.01576 0.13353 0.26058 0.0
C821 C 0.93868 0.14441 0.16423 0.0
C822 C 0.93264 0.14281 0.12913 0.0
C823 C 0.95219 0.13987 0.10683 0.0
C824 C 0.97743 0.13704 0.11974 0.0
C825 C 0.98255 0.13762 0.15481 0.0
C826 C 0.96367 0.14179 0.17658 0.0
C827 C 0.97351 0.14103 0.21316 0.0
C828 C 0.97023 0.16732 0.2304 0.0
C829 C 0.96081 0.11927 0.23233 0.0
C830 C 0.00096 0.1353 0.20889 0.0
C831 C 0.00593 0.13328 0.17515 0.0
C832 C 0.02995 0.12703 0.16537 0.0
C833 C 0.04937 0.12333 0.19068 0.0
C834 C 0.04467 0.12598 0.22533 0.0
C835 C 0.02006 0.13186 0.23433 0.0
H836 H 0.21415 0.78594 0.07704 0.0
H837 H 0.1769 0.75475 0.98566 0.0
H838 H 0.19904 0.71314 0.99571 0.0
H839 H 0.27336 0.75112 0.08323 0.0
H840 H 0.27123 0.74566 0.12782 0.0
H841 H 0.25704 0.77386 0.10853 0.0
H842 H 0.21442 0.76067 0.1322 0.0
H843 H 0.22822 0.73179 0.15025 0.0
H844 H 0.20078 0.72964 0.12119 0.0
H845 H 0.22366 0.67354 0.01944 0.0
H846 H 0.24896 0.64124 0.05317 0.0
H847 H 0.2634 0.698 0.1325 0.0
C848 C 0.21195 0.77084 0.05807 0.0
C849 C 0.19541 0.77408 0.02919 0.0
C850 C 0.19092 0.75314 0.00659 0.0
C851 C 0.20299 0.72932 0.01257 0.0
C852 C 0.21834 0.72647 0.04224 0.0
C853 C 0.22255 0.74672 0.06473 0.0
C854 C 0.23613 0.73802 0.09728 0.0
C855 C 0.26092 0.75305 0.10461 0.0
C856 C 0.21887 0.74017 0.12696 0.0
C857 C 0.24076 0.71017 0.08869 0.0
C858 C 0.23005 0.70354 0.05715 0.0
C859 C 0.2321 0.67858 0.04415 0.0
C860 C 0.24629 0.66034 0.06346 0.0
C861 C 0.25812 0.66738 0.09515 0.0
C862 C 0.25464 0.69231 0.10817 0.0
H863 H 0.68542 0.74507 0.5355 0.0
H864 H 0.72921 0.67989 0.50468 0.0
H865 H 0.76872 0.70381 0.52077 0.0
H866 H 0.73235 0.79719 0.5108 0.0
H867 H 0.72495 0.81654 0.5467 0.0
H868 H 0.70093 0.79649 0.52559 0.0
H869 H 0.69324 0.77483 0.58279 0.0
H870 H 0.71768 0.79407 0.60392 0.0
H871 H 0.71918 0.75939 0.60623 0.0
H872 H 0.80234 0.73113 0.55171 0.0
H873 H 0.82769 0.76147 0.58817 0.0
H874 H 0.76174 0.80982 0.59632 0.0
C875 C 0.70338 0.73652 0.53038 0.0
C876 C 0.70451 0.71105 0.51813 0.0
C877 C 0.72815 0.69977 0.51301 0.0
C878 C 0.75062 0.71314 0.5224 0.0
C879 C 0.74891 0.73787 0.53615 0.0
C880 C 0.72585 0.74975 0.53916 0.0
C881 C 0.72888 0.77534 0.55751 0.0
C882 C 0.72133 0.79772 0.53373 0.0
C883 C 0.71386 0.77591 0.5895 0.0
C884 C 0.757 0.77533 0.56626 0.0
C885 C 0.76833 0.75375 0.55344 0.0
C886 C 0.79381 0.74852 0.56089 0.0
C887 C 0.80807 0.76592 0.58162 0.0
C888 C 0.79683 0.78828 0.59483 0.0
C889 C 0.77097 0.79299 0.58667 0.0
H890 H 0.79674 0.1624 0.18767 0.0
H891 H 0.82343 0.22378 0.12507 0.0
H892 H 0.80423 0.25605 0.16189 0.0
H893 H 0.73646 0.19391 0.20803 0.0
H894 H 0.73857 0.18116 0.25032 0.0
H895 H 0.75159 0.16333 0.21644 0.0
H896 H 0.79481 0.16208 0.25058 0.0
H897 H 0.78217 0.18031 0.28424 0.0
H898 H 0.80971 0.19191 0.26455 0.0
H899 H 0.78749 0.28131 0.21024 0.0
H900 H 0.77072 0.29785 0.26286 0.0
H901 H 0.75383 0.21969 0.29293 0.0
C902 C 0.79794 0.18263 0.18122 0.0
C903 C 0.81132 0.1907 0.15344 0.0
C904 C 0.81284 0.21726 0.14592 0.0
C905 C 0.80214 0.23567 0.16681 0.0
C906 C 0.78975 0.22706 0.19472 0.0
C907 C 0.78718 0.20111 0.20152 0.0
C908 C 0.77414 0.19681 0.23393 0.0
C909 C 0.74868 0.18299 0.22674 0.0
C910 C 0.79124 0.18191 0.25984 0.0
C911 C 0.77047 0.22442 0.24504 0.0
C912 C 0.77957 0.24158 0.22206 0.0
C913 C 0.77986 0.26808 0.22802 0.0
C914 C 0.77047 0.27726 0.25806 0.0
C915 C 0.76081 0.26004 0.28176 0.0
C916 C 0.76066 0.2333 0.27495 0.0
H917 H 0.29485 0.29135 0.62703 0.0
H918 H 0.26542 0.369 0.62068 0.0
H919 H 0.23289 0.35767 0.65972 0.0
H920 H 0.22966 0.25853 0.64115 0.0
H921 H 0.24511 0.23564 0.66948 0.0
H922 H 0.26102 0.24754 0.63379 0.0
H923 H 0.29859 0.26165 0.67446 0.0
H924 H 0.28261 0.25091 0.71045 0.0
H925 H 0.29331 0.28388 0.7084 0.0
H926 H 0.21188 0.34198 0.70975 0.0
H927 H 0.19836 0.32033 0.76089 0.0
H928 H 0.2399 0.25195 0.73438 0.0
C929 C 0.28045 0.30531 0.63221 0.0
C930 C 0.28218 0.33087 0.62057 0.0
C931 C 0.26391 0.34918 0.62894 0.0
C932 C 0.24549 0.34296 0.65127 0.0
C933 C 0.24539 0.31817 0.66459 0.0
C934 C 0.26179 0.29929 0.65454 0.0
C935 C 0.25948 0.27512 0.67556 0.0
C936 C 0.24814 0.25289 0.65369 0.0
C937 C 0.28502 0.26748 0.69326 0.0
C938 C 0.24104 0.28423 0.70072 0.0
C939 C 0.23278 0.30893 0.69355 0.0
C940 C 0.21746 0.32227 0.71494 0.0
C941 C 0.20992 0.30983 0.74402 0.0
C942 C 0.21784 0.28432 0.75165 0.0
C943 C 0.23354 0.27146 0.72946 0.0
H944 H 0.68852 0.66518 0.37363 0.0
H945 H 0.67535 0.72969 0.43993 0.0
H946 H 0.69679 0.75892 0.40087 0.0
H947 H 0.75055 0.6854 0.35043 0.0
H948 H 0.74524 0.673 0.30804 0.0
H949 H 0.72988 0.65812 0.34221 0.0
H950 H 0.68651 0.66483 0.30964 0.0
H951 H 0.70162 0.68021 0.27565 0.0
H952 H 0.67717 0.69683 0.29653 0.0
H953 H 0.71761 0.7809 0.35111 0.0
H954 H 0.73996 0.79274 0.3004 0.0
H955 H 0.73888 0.71256 0.26865 0.0
C956 C 0.69042 0.68544 0.38017 0.0
C957 C 0.68032 0.69536 0.40953 0.0
C958 C 0.68321 0.72184 0.41754 0.0
C959 C 0.69514 0.73849 0.39539 0.0
C960 C 0.70424 0.72808 0.3659 0.0
C961 C 0.70235 0.70202 0.35877 0.0
C962 C 0.7136 0.69516 0.32591 0.0
C963 C 0.73616 0.67685 0.33202 0.0
C964 C 0.69352 0.68359 0.30044 0.0
C965 C 0.72202 0.7215 0.31511 0.0
C966 C 0.71638 0.74035 0.33824 0.0
C967 C 0.72226 0.76622 0.33308 0.0
C968 C 0.73478 0.77278 0.30407 0.0
C969 C 0.74139 0.75353 0.28071 0.0
C970 C 0.73449 0.72767 0.28626 0.0
H971 H 0.81446 0.21422 0.98148 0.0
H972 H 0.78703 0.20745 0.08183 0.0
H973 H 0.75142 0.23615 0.06514 0.0
H974 H 0.79878 0.28036 0.96736 0.0
H975 H 0.78894 0.27573 0.92341 0.0
H976 H 0.81241 0.25488 0.94343 0.0
H977 H 0.78516 0.21493 0.9255 0.0
H978 H 0.76162 0.23568 0.9054 0.0
H979 H 0.75291 0.21312 0.93712 0.0
H980 H 0.71906 0.26585 0.03755 0.0
H981 H 0.69188 0.29398 1.00087 0.0
H982 H 0.73964 0.27974 0.91789 0.0
C983 C 0.80103 0.2188 1.0 0.0
C984 C 0.80373 0.20892 0.03316 0.0
C985 C 0.7856 0.21521 0.05652 0.0
C986 C 0.76522 0.23135 0.0472 0.0
C987 C 0.76317 0.24082 0.01433 0.0
C988 C 0.7805 0.23468 0.99103 0.0
C989 C 0.77377 0.24707 0.95718 0.0
C990 C 0.79472 0.26561 0.94728 0.0
C991 C 0.76802 0.22647 0.92969 0.0
C992 C 0.75019 0.26152 0.96526 0.0
C993 C 0.74433 0.25759 0.9983 0.0
C994 C 0.72341 0.26901 0.0116 0.0
C995 C 0.70805 0.28488 0.99054 0.0
C996 C 0.71368 0.28914 0.95654 0.0
C997 C 0.73506 0.27723 0.94389 0.0
H998 H 0.31882 0.25432 0.53848 0.0
H999 H 0.26141 0.31284 0.52408 0.0
H1000 H 0.22987 0.27919 0.507 0.0
H1001 H 0.30456 0.22219 0.4691 0.0
H1002 H 0.31007 0.18983 0.4842 0.0
H1003 H 0.32613 0.21646 0.50524 0.0
H1004 H 0.30845 0.20397 0.56225 0.0
H1005 H 0.29306 0.17646 0.54186 0.0
H1006 H 0.27495 0.19924 0.56473 0.0
H1007 H 0.20868 0.24175 0.47745 0.0
H1008 H 0.1971 0.20232 0.44529 0.0
H1009 H 0.2681 0.16732 0.48065 0.0
C1010 C 0.29919 0.25969 0.53389 0.0
C1011 C 0.29215 0.28581 0.53335 0.0
C1012 C 0.26675 0.29271 0.52565 0.0
C1013 C 0.24885 0.27374 0.51564 0.0
C1014 C 0.25679 0.24814 0.51408 0.0
C1015 C 0.28124 0.24099 0.52397 0.0
C1016 C 0.28606 0.21301 0.5156 0.0
C1017 C 0.30798 0.21024 0.49214 0.0
C1018 C 0.2909 0.19723 0.54805 0.0
C1019 C 0.26104 0.2059 0.49758 0.0
C1020 C 0.24433 0.2263 0.49727 0.0
C1021 C 0.22117 0.22529 0.47874 0.0
C1022 C 0.21475 0.20273 0.46054 0.0
C1023 C 0.23143 0.1814 0.46091 0.0
C1024 C 0.2548 0.18312 0.47996 0.0
H1025 H 0.22728 0.85739 0.91541 0.0
H1026 H 0.20452 0.78663 0.96232 0.0
H1027 H 0.23014 0.7616 0.9239 0.0
H1028 H 0.21901 0.83346 0.8339 0.0
H1029 H 0.24464 0.85146 0.81758 0.0
H1030 H 0.22868 0.86388 0.85284 0.0
H1031 H 0.27111 0.86691 0.88869 0.0
H1032 H 0.28735 0.8549 0.85334 0.0
H1033 H 0.29087 0.83878 0.89353 0.0
H1034 H 0.25488 0.74452 0.87601 0.0
H1035 H 0.277 0.73653 0.82406 0.0
H1036 H 0.27956 0.81896 0.80571 0.0
C1037 C 0.22819 0.83666 0.91846 0.0
C1038 C 0.21427 0.82385 0.94272 0.0
C1039 C 0.21562 0.79673 0.94493 0.0
C1040 C 0.22994 0.78245 0.92285 0.0
C1041 C 0.24255 0.7957 0.89838 0.0
C1042 C 0.2418 0.82225 0.89615 0.0
C1043 C 0.25449 0.83187 0.86547 0.0
C1044 C 0.23558 0.84599 0.84102 0.0
C1045 C 0.27732 0.84913 0.8759 0.0
C1046 C 0.26261 0.80654 0.8507 0.0
C1047 C 0.25569 0.7859 0.87008 0.0
C1048 C 0.26049 0.76055 0.86076 0.0
C1049 C 0.27284 0.7562 0.83101 0.0
C1050 C 0.28006 0.7771 0.81073 0.0
C1051 C 0.27475 0.80257 0.82088 0.0
loop_
_geom_bond_atom_site_label_1
_geom_bond_atom_site_label_2
_geom_bond_distance
_geom_bond_site_symmetry_2
_ccdc_geom_bond_type
Zn0 O6 1.920 . S
Zn0 O12 1.898 . S
Zn0 O15 1.905 . S
Zn1 O9 1.905 . S
Zn1 O10 1.898 . S
Zn1 O18 1.920 . S
Zn2 O5 2.080 . S
Zn2 O8 2.114 1_554 S
Zn2 O11 2.120 1_554 S
Zn2 O13 2.120 . S
Zn2 O14 2.114 . S
Zn2 O17 2.080 1_554 S
C3 O8 1.166 . S
C3 O9 1.182 . S
C4 O10 1.167 . S
C4 O11 1.299 . S
O5 Zn2 2.080 . S
O5 C19 1.305 . S
O6 Zn0 1.920 . S
O6 C19 1.234 . S
C7 O12 1.167 . S
C7 O13 1.299 . S
O8 Zn2 2.114 1_556 S
O8 C3 1.166 . S
O9 Zn1 1.905 . S
O9 C3 1.182 . S
O10 Zn1 1.898 . S
O10 C4 1.167 . S
O11 Zn2 2.120 1_556 S
O11 C4 1.299 . S
O12 Zn0 1.898 . S
O12 C7 1.167 . S
O13 Zn2 2.120 . S
O13 C7 1.299 . S
O14 Zn2 2.114 . S
O14 C16 1.166 . S
O15 Zn0 1.905 . S
O15 C16 1.182 . S
C16 O14 1.166 . S
C16 O15 1.182 . S
O17 Zn2 2.080 1_556 S
O17 C20 1.305 . S
O18 Zn1 1.920 . S
O18 C20 1.234 . S
C19 O5 1.305 . S
C19 O6 1.234 . S
C20 O17 1.305 . S
C20 O18 1.234 . S
Zn21 O27 1.920 . S
Zn21 O33 1.898 . S
Zn21 O36 1.905 . S
Zn22 O30 1.905 . S
Zn22 O31 1.898 . S
Zn22 O39 1.920 . S
Zn23 O26 2.080 . S
Zn23 O29 2.114 . S
Zn23 O32 2.120 . S
Zn23 O34 2.120 . S
Zn23 O35 2.114 . S
Zn23 O38 2.080 . S
C24 O29 1.166 . S
C24 O30 1.182 . S
C25 O31 1.167 . S
C25 O32 1.299 . S
O26 Zn23 2.080 . S
O26 C40 1.305 . S
O27 Zn21 1.920 . S
O27 C40 1.234 . S
C28 O33 1.167 . S
C28 O34 1.299 . S
O29 Zn23 2.114 . S
O29 C24 1.166 . S
O30 Zn22 1.905 . S
O30 C24 1.182 . S
O31 Zn22 1.898 . S
O31 C25 1.167 . S
O32 Zn23 2.120 . S
O32 C25 1.299 . S
O33 Zn21 1.898 . S
O33 C28 1.167 . S
O34 Zn23 2.120 . S
O34 C28 1.299 . S
O35 Zn23 2.114 . S
O35 C37 1.166 . S
O36 Zn21 1.905 . S
O36 C37 1.182 . S
C37 O35 1.166 . S
C37 O36 1.182 . S
O38 Zn23 2.080 . S
O38 C41 1.305 . S
O39 Zn22 1.920 . S
O39 C41 1.234 . S
C40 O26 1.305 . S
C40 O27 1.234 . S
C41 O38 1.305 . S
C41 O39 1.234 . S
Zn42 O48 1.920 . S
Zn42 O54 1.898 . S
Zn42 O57 1.905 . S
Zn43 O51 1.905 . S
Zn43 O52 1.898 . S
Zn43 O60 1.920 . S
Zn44 O47 2.080 . S
Zn44 O50 2.114 . S
Zn44 O53 2.120 . S
Zn44 O55 2.120 . S
Zn44 O56 2.114 . S
Zn44 O59 2.080 . S
C45 O50 1.166 . S
C45 O51 1.182 . S
C46 O52 1.167 . S
C46 O53 1.299 . S
O47 Zn44 2.080 . S
O47 C61 1.305 . S
O48 Zn42 1.920 . S
O48 C61 1.234 1_556 S
C49 O54 1.167 1_554 S
C49 O55 1.299 . S
O50 Zn44 2.114 . S
O50 C45 1.166 . S
O51 Zn43 1.905 . S
O51 C45 1.182 . S
O52 Zn43 1.898 . S
O52 C46 1.167 . S
O53 Zn44 2.120 . S
O53 C46 1.299 . S
O54 Zn42 1.898 . S
O54 C49 1.167 1_556 S
O55 Zn44 2.120 . S
O55 C49 1.299 . S
O56 Zn44 2.114 . S
O56 C58 1.166 1_554 S
O57 Zn42 1.905 . S
O57 C58 1.182 . S
C58 O56 1.166 1_556 S
C58 O57 1.182 . S
O59 Zn44 2.080 . S
O59 C62 1.305 . S
O60 Zn43 1.920 . S
O60 C62 1.234 . S
C61 O47 1.305 . S
C61 O48 1.234 1_554 S
C62 O59 1.305 . S
C62 O60 1.234 . S
Zn63 O69 1.920 . S
Zn63 O75 1.898 . S
Zn63 O78 1.905 . S
Zn64 O72 1.905 . S
Zn64 O73 1.898 . S
Zn64 O81 1.920 . S
Zn65 O68 2.080 . S
Zn65 O71 2.114 . S
Zn65 O74 2.120 . S
Zn65 O76 2.120 . S
Zn65 O77 2.114 . S
Zn65 O80 2.080 . S
C66 O71 1.166 . S
C66 O72 1.182 . S
C67 O73 1.167 . S
C67 O74 1.299 . S
O68 Zn65 2.080 . S
O68 C82 1.305 . S
O69 Zn63 1.920 . S
O69 C82 1.234 . S
C70 O75 1.167 . S
C70 O76 1.299 . S
O71 Zn65 2.114 . S
O71 C66 1.166 . S
O72 Zn64 1.905 . S
O72 C66 1.182 . S
O73 Zn64 1.898 . S
O73 C67 1.167 . S
O74 Zn65 2.120 . S
O74 C67 1.299 . S
O75 Zn63 1.898 . S
O75 C70 1.167 . S
O76 Zn65 2.120 . S
O76 C70 1.299 . S
O77 Zn65 2.114 . S
O77 C79 1.166 . S
O78 Zn63 1.905 . S
O78 C79 1.182 . S
C79 O77 1.166 . S
C79 O78 1.182 . S
O80 Zn65 2.080 . S
O80 C83 1.305 . S
O81 Zn64 1.920 . S
O81 C83 1.234 . S
C82 O68 1.305 . S
C82 O69 1.234 . S
C83 O80 1.305 . S
C83 O81 1.234 . S
C84 C85 1.264 . S
C84 C89 1.479 . S
C84 C94 1.465 . S
C85 C84 1.264 . S
C85 C87 1.339 . S
C85 H112 0.931 . S
C86 C87 1.395 . S
C86 C88 1.320 . S
C87 C85 1.339 . S
C87 C86 1.395 . S
C87 H113 0.929 . S
C88 C86 1.320 . S
C88 C89 1.405 . S
C88 H114 0.930 . S
C89 C84 1.479 . S
C89 C88 1.405 . S
C89 H115 0.931 . S
U90 O91 2.454 . S
U90 O92 2.458 . S
U90 C93 2.984 . S
U90 C94 2.847 . S
U90 C107 2.882 . S
U90 O108 2.441 . S
U90 O109 2.420 . S
U90 O110 2.455 . S
U90 O111 2.449 . S
O91 U90 2.454 . S
O91 C93 1.353 . S
O92 U90 2.458 . S
O92 C93 1.286 . S
C93 U90 2.984 . S
C93 O91 1.353 . S
C93 O92 1.286 . S
C93 C95 1.363 . S
C94 C84 1.465 . S
C94 U90 2.847 . S
C94 O108 1.249 . S
C94 O109 1.202 . S
C95 C93 1.363 . S
C95 C97 1.408 . S
C95 C100 1.342 . S
C96 C97 1.310 . S
C96 C99 1.461 . S
C96 H116 0.932 . S
C97 C95 1.408 . S
C97 C96 1.310 . S
C97 H117 0.930 . S
C98 C99 1.474 . S
C98 C100 1.285 . S
C98 H118 0.929 . S
C99 C96 1.461 . S
C99 C98 1.474 . S
C100 C95 1.342 . S
C100 C98 1.285 . S
C100 H119 0.930 . S
C101 C104 1.424 1_545 S
C101 C106 1.245 1_545 S
C101 C107 1.428 . S
C102 C105 1.260 . S
C102 C106 1.477 . S
C102 H120 0.932 . S
C103 C104 1.384 . S
C103 C105 1.479 . S
C103 H121 0.929 . S
C104 C101 1.424 1_565 S
C104 C103 1.384 . S
C104 H122 0.928 . S
C105 C102 1.260 . S
C105 C103 1.479 . S
C106 C101 1.245 1_565 S
C106 C102 1.477 . S
C106 H123 0.932 1_565 S
C107 U90 2.882 . S
C107 C101 1.428 . S
C107 O110 1.301 . S
C107 O111 1.282 . S
O108 U90 2.441 . S
O108 C94 1.249 . S
O109 U90 2.420 . S
O109 C94 1.202 . S
O110 U90 2.455 . S
O110 C107 1.301 . S
O111 U90 2.449 . S
O111 C107 1.282 . S
H112 C85 0.931 . S
H113 C87 0.929 . S
H114 C88 0.930 . S
H115 C89 0.931 . S
H116 C96 0.932 . S
H117 C97 0.930 . S
H118 C98 0.929 . S
H119 C100 0.930 . S
H120 C102 0.932 . S
H121 C103 0.929 . S
H122 C104 0.928 . S
H123 C106 0.932 1_545 S
C124 C125 1.264 . S
C124 C129 1.479 . S
C124 C134 1.465 . S
C125 C124 1.264 . S
C125 C127 1.339 . S
C125 H152 0.931 . S
C126 C127 1.395 . S
C126 C128 1.320 . S
C127 C125 1.339 . S
C127 C126 1.395 . S
C127 H153 0.929 . S
C128 C126 1.320 . S
C128 C129 1.405 . S
C128 H154 0.930 . S
C129 C124 1.479 . S
C129 C128 1.405 . S
C129 H155 0.931 . S
U130 O131 2.454 . S
U130 O132 2.458 . S
U130 C133 2.984 . S
U130 C134 2.847 . S
U130 C147 2.882 . S
U130 O148 2.441 . S
U130 O149 2.420 . S
U130 O150 2.455 . S
U130 O151 2.449 . S
O131 U130 2.454 . S
O131 C133 1.353 . S
O132 U130 2.458 . S
O132 C133 1.286 . S
C133 U130 2.984 . S
C133 O131 1.353 . S
C133 O132 1.286 . S
C133 C135 1.363 . S
C134 C124 1.465 . S
C134 U130 2.847 . S
C134 O148 1.249 . S
C134 O149 1.202 . S
C135 C133 1.363 . S
C135 C137 1.408 . S
C135 C140 1.342 . S
C136 C137 1.310 . S
C136 C139 1.461 . S
C136 H156 0.932 . S
C137 C135 1.408 . S
C137 C136 1.310 . S
C137 H157 0.930 . S
C138 C139 1.474 . S
C138 C140 1.285 . S
C138 H158 0.929 . S
C139 C136 1.461 . S
C139 C138 1.474 . S
C140 C135 1.342 . S
C140 C138 1.285 . S
C140 H159 0.930 . S
C141 C144 1.424 . S
C141 C146 1.245 . S
C141 C147 1.428 . S
C142 C145 1.260 . S
C142 C146 1.477 . S
C142 H160 0.932 . S
C143 C144 1.384 . S
C143 C145 1.479 . S
C143 H161 0.929 . S
C144 C141 1.424 . S
C144 C143 1.384 . S
C144 H162 0.928 . S
C145 C142 1.260 . S
C145 C143 1.479 . S
C146 C141 1.245 . S
C146 C142 1.477 . S
C146 H163 0.932 . S
C147 U130 2.882 . S
C147 C141 1.428 . S
C147 O150 1.301 . S
C147 O151 1.282 . S
O148 U130 2.441 . S
O148 C134 1.249 . S
O149 U130 2.420 . S
O149 C134 1.202 . S
O150 U130 2.455 . S
O150 C147 1.301 . S
O151 U130 2.449 . S
O151 C147 1.282 . S
H152 C125 0.931 . S
H153 C127 0.929 . S
H154 C128 0.930 . S
H155 C129 0.931 . S
H156 C136 0.932 . S
H157 C137 0.930 . S
H158 C138 0.929 . S
H159 C140 0.930 . S
H160 C142 0.932 . S
H161 C143 0.929 . S
H162 C144 0.928 . S
H163 C146 0.932 . S
C164 C165 1.264 . S
C164 C169 1.479 . S
C164 C174 1.465 . S
C165 C164 1.264 . S
C165 C167 1.339 . S
C165 H192 0.931 . S
C166 C167 1.395 . S
C166 C168 1.320 . S
C167 C165 1.339 . S
C167 C166 1.395 . S
C167 H193 0.929 . S
C168 C166 1.320 . S
C168 C169 1.405 . S
C168 H194 0.930 . S
C169 C164 1.479 . S
C169 C168 1.405 . S
C169 H195 0.931 . S
U170 O171 2.454 . S
U170 O172 2.458 . S
U170 C173 2.984 . S
U170 C174 2.847 . S
U170 C187 2.882 . S
U170 O188 2.441 . S
U170 O189 2.420 . S
U170 O190 2.455 . S
U170 O191 2.449 . S
O171 U170 2.454 . S
O171 C173 1.353 . S
O172 U170 2.458 . S
O172 C173 1.286 . S
C173 U170 2.984 . S
C173 O171 1.353 . S
C173 O172 1.286 . S
C173 C175 1.363 . S
C174 C164 1.465 . S
C174 U170 2.847 . S
C174 O188 1.249 . S
C174 O189 1.202 . S
C175 C173 1.363 . S
C175 C177 1.408 . S
C175 C180 1.342 . S
C176 C177 1.310 . S
C176 C179 1.461 . S
C176 H196 0.932 . S
C177 C175 1.408 . S
C177 C176 1.310 . S
C177 H197 0.930 . S
C178 C179 1.474 . S
C178 C180 1.285 . S
C178 H198 0.929 . S
C179 C176 1.461 . S
C179 C178 1.474 . S
C180 C175 1.342 . S
C180 C178 1.285 . S
C180 H199 0.930 . S
C181 C184 1.424 . S
C181 C186 1.245 . S
C181 C187 1.428 . S
C182 C185 1.260 . S
C182 C186 1.477 . S
C182 H200 0.932 . S
C183 C184 1.384 . S
C183 C185 1.479 . S
C183 H201 0.929 . S
C184 C181 1.424 . S
C184 C183 1.384 . S
C184 H202 0.928 . S
C185 C182 1.260 . S
C185 C183 1.479 . S
C186 C181 1.245 . S
C186 C182 1.477 . S
C186 H203 0.932 . S
C187 U170 2.882 . S
C187 C181 1.428 . S
C187 O190 1.301 . S
C187 O191 1.282 . S
O188 U170 2.441 . S
O188 C174 1.249 . S
O189 U170 2.420 . S
O189 C174 1.202 . S
O190 U170 2.455 . S
O190 C187 1.301 . S
O191 U170 2.449 . S
O191 C187 1.282 . S
H192 C165 0.931 . S
H193 C167 0.929 . S
H194 C168 0.930 . S
H195 C169 0.931 . S
H196 C176 0.932 . S
H197 C177 0.930 . S
H198 C178 0.929 . S
H199 C180 0.930 . S
H200 C182 0.932 . S
H201 C183 0.929 . S
H202 C184 0.928 . S
H203 C186 0.932 . S
C204 C205 1.264 . S
C204 C209 1.479 . S
C204 C214 1.465 . S
C205 C204 1.264 . S
C205 C207 1.339 . S
C205 H232 0.931 . S
C206 C207 1.395 . S
C206 C208 1.320 . S
C207 C205 1.339 . S
C207 C206 1.395 . S
C207 H233 0.929 . S
C208 C206 1.320 . S
C208 C209 1.405 . S
C208 H234 0.930 . S
C209 C204 1.479 . S
C209 C208 1.405 . S
C209 H235 0.931 . S
U210 O211 2.454 . S
U210 O212 2.458 . S
U210 C213 2.984 . S
U210 C214 2.847 . S
U210 C227 2.882 . S
U210 O228 2.441 . S
U210 O229 2.420 . S
U210 O230 2.455 . S
U210 O231 2.449 . S
O211 U210 2.454 . S
O211 C213 1.353 . S
O212 U210 2.458 . S
O212 C213 1.286 . S
C213 U210 2.984 . S
C213 O211 1.353 . S
C213 O212 1.286 . S
C213 C215 1.363 . S
C214 C204 1.465 . S
C214 U210 2.847 . S
C214 O228 1.249 . S
C214 O229 1.202 . S
C215 C213 1.363 . S
C215 C217 1.408 . S
C215 C220 1.342 . S
C216 C217 1.310 . S
C216 C219 1.461 . S
C216 H236 0.932 . S
C217 C215 1.408 . S
C217 C216 1.310 . S
C217 H237 0.930 . S
C218 C219 1.474 . S
C218 C220 1.285 . S
C218 H238 0.929 . S
C219 C216 1.461 . S
C219 C218 1.474 . S
C220 C215 1.342 . S
C220 C218 1.285 . S
C220 H239 0.930 . S
C221 C224 1.424 . S
C221 C226 1.245 . S
C221 C227 1.428 . S
C222 C225 1.260 . S
C222 C226 1.477 . S
C222 H240 0.932 . S
C223 C224 1.384 . S
C223 C225 1.479 . S
C223 H241 0.929 . S
C224 C221 1.424 . S
C224 C223 1.384 . S
C224 H242 0.928 . S
C225 C222 1.260 . S
C225 C223 1.479 . S
C226 C221 1.245 . S
C226 C222 1.477 . S
C226 H243 0.932 . S
C227 U210 2.882 . S
C227 C221 1.428 . S
C227 O230 1.301 . S
C227 O231 1.282 . S
O228 U210 2.441 . S
O228 C214 1.249 . S
O229 U210 2.420 . S
O229 C214 1.202 . S
O230 U210 2.455 . S
O230 C227 1.301 . S
O231 U210 2.449 . S
O231 C227 1.282 . S
H232 C205 0.931 . S
H233 C207 0.929 . S
H234 C208 0.930 . S
H235 C209 0.931 . S
H236 C216 0.932 . S
H237 C217 0.930 . S
H238 C218 0.929 . S
H239 C220 0.930 . S
H240 C222 0.932 . S
H241 C223 0.929 . S
H242 C224 0.928 . S
H243 C226 0.932 . S
C244 C245 1.264 . S
C244 C249 1.479 . S
C244 C254 1.465 . S
C245 C244 1.264 . S
C245 C247 1.339 . S
C245 H272 0.931 . S
C246 C247 1.395 . S
C246 C248 1.320 . S
C247 C245 1.339 . S
C247 C246 1.395 . S
C247 H273 0.929 . S
C248 C246 1.320 . S
C248 C249 1.405 . S
C248 H274 0.930 . S
C249 C244 1.479 . S
C249 C248 1.405 . S
C249 H275 0.931 . S
U250 O251 2.454 . S
U250 O252 2.458 . S
U250 C253 2.984 . S
U250 C254 2.847 . S
U250 C267 2.882 . S
U250 O268 2.441 . S
U250 O269 2.420 . S
U250 O270 2.455 . S
U250 O271 2.449 . S
O251 U250 2.454 . S
O251 C253 1.353 . S
O252 U250 2.458 . S
O252 C253 1.286 . S
C253 U250 2.984 . S
C253 O251 1.353 . S
C253 O252 1.286 . S
C253 C255 1.363 . S
C254 C244 1.465 . S
C254 U250 2.847 . S
C254 O268 1.249 . S
C254 O269 1.202 . S
C255 C253 1.363 . S
C255 C257 1.408 . S
C255 C260 1.342 . S
C256 C257 1.310 . S
C256 C259 1.461 . S
C256 H276 0.932 . S
C257 C255 1.408 . S
C257 C256 1.310 . S
C257 H277 0.930 . S
C258 C259 1.474 . S
C258 C260 1.285 . S
C258 H278 0.929 . S
C259 C256 1.461 . S
C259 C258 1.474 . S
C260 C255 1.342 . S
C260 C258 1.285 . S
C260 H279 0.930 . S
C261 C264 1.424 . S
C261 C266 1.245 . S
C261 C267 1.428 . S
C262 C265 1.260 . S
C262 C266 1.477 . S
C262 H280 0.932 . S
C263 C264 1.384 . S
C263 C265 1.479 . S
C263 H281 0.929 . S
C264 C261 1.424 . S
C264 C263 1.384 . S
C264 H282 0.928 . S
C265 C262 1.260 . S
C265 C263 1.479 . S
C266 C261 1.245 . S
C266 C262 1.477 . S
C266 H283 0.932 . S
C267 U250 2.882 . S
C267 C261 1.428 . S
C267 O270 1.301 . S
C267 O271 1.282 . S
O268 U250 2.441 . S
O268 C254 1.249 . S
O269 U250 2.420 . S
O269 C254 1.202 . S
O270 U250 2.455 . S
O270 C267 1.301 . S
O271 U250 2.449 . S
O271 C267 1.282 . S
H272 C245 0.931 . S
H273 C247 0.929 . S
H274 C248 0.930 . S
H275 C249 0.931 . S
H276 C256 0.932 . S
H277 C257 0.930 . S
H278 C258 0.929 . S
H279 C260 0.930 . S
H280 C262 0.932 . S
H281 C263 0.929 . S
H282 C264 0.928 . S
H283 C266 0.932 . S
C284 C285 1.264 . S
C284 C289 1.479 . S
C284 C294 1.465 . S
C285 C284 1.264 . S
C285 C287 1.339 . S
C285 H312 0.931 . S
C286 C287 1.395 . S
C286 C288 1.320 . S
C287 C285 1.339 . S
C287 C286 1.395 . S
C287 H313 0.929 . S
C288 C286 1.320 . S
C288 C289 1.405 . S
C288 H314 0.930 . S
C289 C284 1.479 . S
C289 C288 1.405 . S
C289 H315 0.931 . S
U290 O291 2.454 . S
U290 O292 2.458 . S
U290 C293 2.984 . S
U290 C294 2.847 . S
U290 C307 2.882 . S
U290 O308 2.441 . S
U290 O309 2.420 . S
U290 O310 2.455 . S
U290 O311 2.449 . S
O291 U290 2.454 . S
O291 C293 1.353 . S
O292 U290 2.458 . S
O292 C293 1.286 . S
C293 U290 2.984 . S
C293 O291 1.353 . S
C293 O292 1.286 . S
C293 C295 1.363 . S
C294 C284 1.465 . S
C294 U290 2.847 . S
C294 O308 1.249 . S
C294 O309 1.202 . S
C295 C293 1.363 . S
C295 C297 1.408 . S
C295 C300 1.342 . S
C296 C297 1.310 . S
C296 C299 1.461 . S
C296 H316 0.932 . S
C297 C295 1.408 . S
C297 C296 1.310 . S
C297 H317 0.930 . S
C298 C299 1.474 . S
C298 C300 1.285 . S
C298 H318 0.929 . S
C299 C296 1.461 . S
C299 C298 1.474 . S
C300 C295 1.342 . S
C300 C298 1.285 . S
C300 H319 0.930 . S
C301 C304 1.424 . S
C301 C306 1.245 . S
C301 C307 1.428 . S
C302 C305 1.260 . S
C302 C306 1.477 . S
C302 H320 0.932 . S
C303 C304 1.384 . S
C303 C305 1.479 . S
C303 H321 0.929 . S
C304 C301 1.424 . S
C304 C303 1.384 . S
C304 H322 0.928 . S
C305 C302 1.260 . S
C305 C303 1.479 . S
C306 C301 1.245 . S
C306 C302 1.477 . S
C306 H323 0.932 . S
C307 U290 2.882 . S
C307 C301 1.428 . S
C307 O310 1.301 . S
C307 O311 1.282 . S
O308 U290 2.441 . S
O308 C294 1.249 . S
O309 U290 2.420 . S
O309 C294 1.202 . S
O310 U290 2.455 . S
O310 C307 1.301 . S
O311 U290 2.449 . S
O311 C307 1.282 . S
H312 C285 0.931 . S
H313 C287 0.929 . S
H314 C288 0.930 . S
H315 C289 0.931 . S
H316 C296 0.932 . S
H317 C297 0.930 . S
H318 C298 0.929 . S
H319 C300 0.930 . S
H320 C302 0.932 . S
H321 C303 0.929 . S
H322 C304 0.928 . S
H323 C306 0.932 . S
C324 C325 1.264 . S
C324 C329 1.479 . S
C324 C334 1.465 . S
C325 C324 1.264 . S
C325 C327 1.339 . S
C325 H352 0.931 . S
C326 C327 1.395 . S
C326 C328 1.320 . S
C327 C325 1.339 . S
C327 C326 1.395 . S
C327 H353 0.929 . S
C328 C326 1.320 . S
C328 C329 1.405 . S
C328 H354 0.930 . S
C329 C324 1.479 . S
C329 C328 1.405 . S
C329 H355 0.931 . S
U330 O331 2.454 . S
U330 O332 2.458 . S
U330 C333 2.984 . S
U330 C334 2.847 . S
U330 C347 2.882 . S
U330 O348 2.441 . S
U330 O349 2.420 . S
U330 O350 2.455 . S
U330 O351 2.449 . S
O331 U330 2.454 . S
O331 C333 1.353 . S
O332 U330 2.458 . S
O332 C333 1.286 . S
C333 U330 2.984 . S
C333 O331 1.353 . S
C333 O332 1.286 . S
C333 C335 1.363 . S
C334 C324 1.465 . S
C334 U330 2.847 . S
C334 O348 1.249 . S
C334 O349 1.202 . S
C335 C333 1.363 . S
C335 C337 1.408 . S
C335 C340 1.342 . S
C336 C337 1.310 . S
C336 C339 1.461 . S
C336 H356 0.932 . S
C337 C335 1.408 . S
C337 C336 1.310 . S
C337 H357 0.930 . S
C338 C339 1.474 . S
C338 C340 1.285 . S
C338 H358 0.929 . S
C339 C336 1.461 . S
C339 C338 1.474 . S
C340 C335 1.342 . S
C340 C338 1.285 . S
C340 H359 0.930 . S
C341 C344 1.424 . S
C341 C346 1.245 . S
C341 C347 1.428 . S
C342 C345 1.260 . S
C342 C346 1.477 . S
C342 H360 0.932 . S
C343 C344 1.384 . S
C343 C345 1.479 . S
C343 H361 0.929 . S
C344 C341 1.424 . S
C344 C343 1.384 . S
C344 H362 0.928 . S
C345 C342 1.260 . S
C345 C343 1.479 . S
C346 C341 1.245 . S
C346 C342 1.477 . S
C346 H363 0.932 . S
C347 U330 2.882 . S
C347 C341 1.428 . S
C347 O350 1.301 . S
C347 O351 1.282 . S
O348 U330 2.441 . S
O348 C334 1.249 . S
O349 U330 2.420 . S
O349 C334 1.202 . S
O350 U330 2.455 . S
O350 C347 1.301 . S
O351 U330 2.449 . S
O351 C347 1.282 . S
H352 C325 0.931 . S
H353 C327 0.929 . S
H354 C328 0.930 . S
H355 C329 0.931 . S
H356 C336 0.932 . S
H357 C337 0.930 . S
H358 C338 0.929 . S
H359 C340 0.930 . S
H360 C342 0.932 . S
H361 C343 0.929 . S
H362 C344 0.928 . S
H363 C346 0.932 . S
C364 C365 1.264 . S
C364 C369 1.479 . S
C364 C374 1.465 . S
C365 C364 1.264 . S
C365 C367 1.339 . S
C365 H392 0.931 . S
C366 C367 1.395 . S
C366 C368 1.320 . S
C367 C365 1.339 . S
C367 C366 1.395 . S
C367 H393 0.929 . S
C368 C366 1.320 . S
C368 C369 1.405 . S
C368 H394 0.930 . S
C369 C364 1.479 . S
C369 C368 1.405 . S
C369 H395 0.931 . S
U370 O371 2.454 . S
U370 O372 2.458 . S
U370 C373 2.984 . S
U370 C374 2.847 . S
U370 C387 2.882 . S
U370 O388 2.441 . S
U370 O389 2.420 . S
U370 O390 2.455 . S
U370 O391 2.449 . S
O371 U370 2.454 . S
O371 C373 1.353 . S
O372 U370 2.458 . S
O372 C373 1.286 . S
C373 U370 2.984 . S
C373 O371 1.353 . S
C373 O372 1.286 . S
C373 C375 1.363 . S
C374 C364 1.465 . S
C374 U370 2.847 . S
C374 O388 1.249 . S
C374 O389 1.202 . S
C375 C373 1.363 . S
C375 C377 1.408 . S
C375 C380 1.342 . S
C376 C377 1.310 . S
C376 C379 1.461 . S
C376 H396 0.932 . S
C377 C375 1.408 . S
C377 C376 1.310 . S
C377 H397 0.930 . S
C378 C379 1.474 . S
C378 C380 1.285 . S
C378 H398 0.929 . S
C379 C376 1.461 . S
C379 C378 1.474 . S
C380 C375 1.342 . S
C380 C378 1.285 . S
C380 H399 0.930 . S
C381 C384 1.424 . S
C381 C386 1.245 . S
C381 C387 1.428 . S
C382 C385 1.260 1_655 S
C382 C386 1.477 . S
C382 H400 0.932 . S
C383 C384 1.384 . S
C383 C385 1.479 1_655 S
C383 H401 0.929 1_655 S
C384 C381 1.424 . S
C384 C383 1.384 . S
C384 H402 0.928 . S
C385 C382 1.260 1_455 S
C385 C383 1.479 1_455 S
C386 C381 1.245 . S
C386 C382 1.477 . S
C386 H403 0.932 . S
C387 U370 2.882 . S
C387 C381 1.428 . S
C387 O390 1.301 . S
C387 O391 1.282 . S
O388 U370 2.441 . S
O388 C374 1.249 . S
O389 U370 2.420 . S
O389 C374 1.202 . S
O390 U370 2.455 . S
O390 C387 1.301 . S
O391 U370 2.449 . S
O391 C387 1.282 . S
H392 C365 0.931 . S
H393 C367 0.929 . S
H394 C368 0.930 . S
H395 C369 0.931 . S
H396 C376 0.932 . S
H397 C377 0.930 . S
H398 C378 0.929 . S
H399 C380 0.930 . S
H400 C382 0.932 . S
H401 C383 0.929 1_455 S
H402 C384 0.928 . S
H403 C386 0.932 . S
H404 C416 0.930 . S
H405 C418 0.930 . S
H406 C419 0.930 . S
H407 C423 0.959 . S
H408 C423 0.959 . S
H409 C423 0.961 . S
H410 C424 0.960 . S
H411 C424 0.961 . S
H412 C424 0.959 . S
H413 C427 0.929 . S
H414 C428 0.931 . S
H415 C430 0.930 . S
C416 H404 0.930 . S
C416 C417 1.399 . S
C416 C421 1.399 . S
C417 C416 1.399 . S
C417 C418 1.376 . S
C418 H405 0.930 . S
C418 C417 1.376 . S
C418 C419 1.388 . S
C419 H406 0.930 . S
C419 C418 1.388 . S
C419 C420 1.390 . S
C420 C419 1.390 . S
C420 C421 1.394 . S
C420 C426 1.465 . S
C421 C416 1.399 . S
C421 C420 1.394 . S
C421 C422 1.516 . S
C422 C421 1.516 . S
C422 C423 1.502 . S
C422 C424 1.561 . S
C422 C425 1.526 . S
C423 H407 0.959 . S
C423 H408 0.959 . S
C423 H409 0.961 . S
C423 C422 1.502 . S
C424 H410 0.960 . S
C424 H411 0.961 . S
C424 H412 0.959 . S
C424 C422 1.561 . S
C425 C422 1.526 . S
C425 C426 1.396 . S
C425 C430 1.390 . S
C426 C420 1.465 . S
C426 C425 1.396 . S
C426 C427 1.399 . S
C427 H413 0.929 . S
C427 C426 1.399 . S
C427 C428 1.385 . S
C428 H414 0.931 . S
C428 C427 1.385 . S
C428 C429 1.389 . S
C429 C428 1.389 . S
C429 C430 1.387 . S
C430 H415 0.930 . S
C430 C425 1.390 . S
C430 C429 1.387 . S
H431 C443 0.930 . S
H432 C445 0.930 . S
H433 C446 0.930 . S
H434 C450 0.959 . S
H435 C450 0.959 . S
H436 C450 0.961 . S
H437 C451 0.960 . S
H438 C451 0.961 . S
H439 C451 0.959 . S
H440 C454 0.929 . S
H441 C455 0.931 . S
H442 C457 0.930 . S
C443 H431 0.930 . S
C443 C444 1.399 . S
C443 C448 1.399 . S
C444 C443 1.399 . S
C444 C445 1.376 . S
C445 H432 0.930 . S
C445 C444 1.376 . S
C445 C446 1.388 . S
C446 H433 0.930 . S
C446 C445 1.388 . S
C446 C447 1.390 . S
C447 C446 1.390 . S
C447 C448 1.394 . S
C447 C453 1.465 . S
C448 C443 1.399 . S
C448 C447 1.394 . S
C448 C449 1.516 . S
C449 C448 1.516 . S
C449 C450 1.502 . S
C449 C451 1.561 . S
C449 C452 1.526 . S
C450 H434 0.959 . S
C450 H435 0.959 . S
C450 H436 0.961 . S
C450 C449 1.502 . S
C451 H437 0.960 . S
C451 H438 0.961 . S
C451 H439 0.959 . S
C451 C449 1.561 . S
C452 C449 1.526 . S
C452 C453 1.396 . S
C452 C457 1.390 . S
C453 C447 1.465 . S
C453 C452 1.396 . S
C453 C454 1.399 . S
C454 H440 0.929 . S
C454 C453 1.399 . S
C454 C455 1.385 . S
C455 H441 0.931 . S
C455 C454 1.385 . S
C455 C456 1.389 . S
C456 C455 1.389 . S
C456 C457 1.387 . S
C457 H442 0.930 . S
C457 C452 1.390 . S
C457 C456 1.387 . S
H458 C470 0.930 . S
H459 C472 0.930 . S
H460 C473 0.930 . S
H461 C477 0.959 . S
H462 C477 0.959 . S
H463 C477 0.961 . S
H464 C478 0.960 . S
H465 C478 0.961 . S
H466 C478 0.959 . S
H467 C481 0.929 . S
H468 C482 0.931 . S
H469 C484 0.930 . S
C470 H458 0.930 . S
C470 C471 1.399 . S
C470 C475 1.399 . S
C471 C470 1.399 . S
C471 C472 1.376 . S
C472 H459 0.930 . S
C472 C471 1.376 . S
C472 C473 1.388 . S
C473 H460 0.930 . S
C473 C472 1.388 . S
C473 C474 1.390 . S
C474 C473 1.390 . S
C474 C475 1.394 . S
C474 C480 1.465 . S
C475 C470 1.399 . S
C475 C474 1.394 . S
C475 C476 1.516 . S
C476 C475 1.516 . S
C476 C477 1.502 . S
C476 C478 1.561 . S
C476 C479 1.526 . S
C477 H461 0.959 . S
C477 H462 0.959 . S
C477 H463 0.961 . S
C477 C476 1.502 . S
C478 H464 0.960 . S
C478 H465 0.961 . S
C478 H466 0.959 . S
C478 C476 1.561 . S
C479 C476 1.526 . S
C479 C480 1.396 . S
C479 C484 1.390 1_545 S
C480 C474 1.465 . S
C480 C479 1.396 . S
C480 C481 1.399 . S
C481 H467 0.929 . S
C481 C480 1.399 . S
C481 C482 1.385 1_545 S
C482 H468 0.931 . S
C482 C481 1.385 1_565 S
C482 C483 1.389 . S
C483 C482 1.389 . S
C483 C484 1.387 . S
C484 H469 0.930 . S
C484 C479 1.390 1_565 S
C484 C483 1.387 . S
H485 C497 0.930 . S
H486 C499 0.930 . S
H487 C500 0.930 . S
H488 C504 0.959 . S
H489 C504 0.959 . S
H490 C504 0.961 . S
H491 C505 0.960 . S
H492 C505 0.961 . S
H493 C505 0.959 . S
H494 C508 0.929 . S
H495 C509 0.931 . S
H496 C511 0.930 . S
C497 H485 0.930 . S
C497 C498 1.399 . S
C497 C502 1.399 . S
C498 C497 1.399 . S
C498 C499 1.376 . S
C499 H486 0.930 . S
C499 C498 1.376 . S
C499 C500 1.388 . S
C500 H487 0.930 . S
C500 C499 1.388 . S
C500 C501 1.390 . S
C501 C500 1.390 . S
C501 C502 1.394 . S
C501 C507 1.465 . S
C502 C497 1.399 . S
C502 C501 1.394 . S
C502 C503 1.516 . S
C503 C502 1.516 . S
C503 C504 1.502 . S
C503 C505 1.561 . S
C503 C506 1.526 . S
C504 H488 0.959 . S
C504 H489 0.959 . S
C504 H490 0.961 . S
C504 C503 1.502 . S
C505 H491 0.960 . S
C505 H492 0.961 . S
C505 H493 0.959 . S
C505 C503 1.561 . S
C506 C503 1.526 . S
C506 C507 1.396 . S
C506 C511 1.390 . S
C507 C501 1.465 . S
C507 C506 1.396 . S
C507 C508 1.399 . S
C508 H494 0.929 . S
C508 C507 1.399 . S
C508 C509 1.385 . S
C509 H495 0.931 . S
C509 C508 1.385 . S
C509 C510 1.389 . S
C510 C509 1.389 . S
C510 C511 1.387 . S
C511 H496 0.930 . S
C511 C506 1.390 . S
C511 C510 1.387 . S
H512 C524 0.930 . S
H513 C526 0.930 . S
H514 C527 0.930 . S
H515 C531 0.959 . S
H516 C531 0.959 . S
H517 C531 0.961 . S
H518 C532 0.960 . S
H519 C532 0.961 . S
H520 C532 0.959 . S
H521 C535 0.929 . S
H522 C536 0.931 . S
H523 C538 0.930 . S
C524 H512 0.930 . S
C524 C525 1.399 . S
C524 C529 1.399 . S
C525 C524 1.399 . S
C525 C526 1.376 . S
C526 H513 0.930 . S
C526 C525 1.376 . S
C526 C527 1.388 . S
C527 H514 0.930 . S
C527 C526 1.388 . S
C527 C528 1.390 . S
C528 C527 1.390 . S
C528 C529 1.394 . S
C528 C534 1.465 . S
C529 C524 1.399 . S
C529 C528 1.394 . S
C529 C530 1.516 . S
C530 C529 1.516 . S
C530 C531 1.502 . S
C530 C532 1.561 . S
C530 C533 1.526 . S
C531 H515 0.959 . S
C531 H516 0.959 . S
C531 H517 0.961 . S
C531 C530 1.502 . S
C532 H518 0.960 . S
C532 H519 0.961 . S
C532 H520 0.959 . S
C532 C530 1.561 . S
C533 C530 1.526 . S
C533 C534 1.396 . S
C533 C538 1.390 . S
C534 C528 1.465 . S
C534 C533 1.396 . S
C534 C535 1.399 . S
C535 H521 0.929 . S
C535 C534 1.399 . S
C535 C536 1.385 . S
C536 H522 0.931 . S
C536 C535 1.385 . S
C536 C537 1.389 . S
C537 C536 1.389 . S
C537 C538 1.387 . S
C538 H523 0.930 . S
C538 C533 1.390 . S
C538 C537 1.387 . S
H539 C551 0.930 . S
H540 C553 0.930 . S
H541 C554 0.930 . S
H542 C558 0.959 . S
H543 C558 0.959 . S
H544 C558 0.961 . S
H545 C559 0.960 . S
H546 C559 0.961 . S
H547 C559 0.959 . S
H548 C562 0.929 . S
H549 C563 0.931 1_455 S
H550 C565 0.946 1_455 S
C551 H539 0.930 . S
C551 C552 1.399 . S
C551 C556 1.399 . S
C552 C551 1.399 . S
C552 C553 1.376 1_554 S
C553 H540 0.930 . S
C553 C552 1.376 1_556 S
C553 C554 1.388 . S
C554 H541 0.930 . S
C554 C553 1.388 . S
C554 C555 1.390 . S
C555 C554 1.390 . S
C555 C556 1.394 1_556 S
C555 C561 1.465 . S
C556 C551 1.399 . S
C556 C555 1.394 1_554 S
C556 C557 1.516 . S
C557 C556 1.516 . S
C557 C558 1.502 . S
C557 C559 1.561 . S
C557 C560 1.526 . S
C558 H542 0.959 . S
C558 H543 0.959 . S
C558 H544 0.961 . S
C558 C557 1.502 . S
C559 H545 0.960 . S
C559 H546 0.961 . S
C559 H547 0.959 . S
C559 C557 1.561 . S
C560 C557 1.526 . S
C560 C561 1.396 1_554 S
C560 C565 1.392 . S
C561 C555 1.465 . S
C561 C560 1.396 1_556 S
C561 C562 1.399 . S
C562 H548 0.929 . S
C562 C561 1.399 . S
C562 C563 1.385 . S
C563 H549 0.931 1_655 S
C563 C562 1.385 . S
C563 C564 1.389 1_655 S
C564 C563 1.389 1_455 S
C564 C565 1.368 1_456 S
C565 H550 0.946 1_655 S
C565 C560 1.392 . S
C565 C564 1.368 1_654 S
H566 C578 0.930 . S
H567 C580 0.930 . S
H568 C581 0.930 . S
H569 C585 0.959 . S
H570 C585 0.959 . S
H571 C585 0.961 . S
H572 C586 0.960 . S
H573 C586 0.961 . S
H574 C586 0.959 . S
H575 C589 0.929 . S
H576 C590 0.931 . S
H577 C592 0.930 . S
C578 H566 0.930 . S
C578 C579 1.399 . S
C578 C583 1.399 . S
C579 C578 1.399 . S
C579 C580 1.376 . S
C580 H567 0.930 . S
C580 C579 1.376 . S
C580 C581 1.388 . S
C581 H568 0.930 . S
C581 C580 1.388 . S
C581 C582 1.390 . S
C582 C581 1.390 . S
C582 C583 1.394 . S
C582 C588 1.465 . S
C583 C578 1.399 . S
C583 C582 1.394 . S
C583 C584 1.516 . S
C584 C583 1.516 . S
C584 C585 1.502 . S
C584 C586 1.561 . S
C584 C587 1.526 . S
C585 H569 0.959 . S
C585 H570 0.959 . S
C585 H571 0.961 . S
C585 C584 1.502 . S
C586 H572 0.960 . S
C586 H573 0.961 . S
C586 H574 0.959 . S
C586 C584 1.561 . S
C587 C584 1.526 . S
C587 C588 1.396 . S
C587 C592 1.390 . S
C588 C582 1.465 . S
C588 C587 1.396 . S
C588 C589 1.399 . S
C589 H575 0.929 . S
C589 C588 1.399 . S
C589 C590 1.385 . S
C590 H576 0.931 . S
C590 C589 1.385 . S
C590 C591 1.389 . S
C591 C590 1.389 . S
C591 C592 1.387 . S
C592 H577 0.930 . S
C592 C587 1.390 . S
C592 C591 1.387 . S
H593 C605 0.930 . S
H594 C607 0.930 . S
H595 C608 0.930 . S
H596 C612 0.959 . S
H597 C612 0.959 . S
H598 C612 0.961 . S
H599 C613 0.960 . S
H600 C613 0.961 . S
H601 C613 0.959 . S
H602 C616 0.929 . S
H603 C617 0.931 . S
H604 C619 0.930 . S
C605 H593 0.930 . S
C605 C606 1.399 . S
C605 C610 1.399 . S
C606 C605 1.399 . S
C606 C607 1.376 . S
C607 H594 0.930 . S
C607 C606 1.376 . S
C607 C608 1.388 . S
C608 H595 0.930 . S
C608 C607 1.388 . S
C608 C609 1.390 . S
C609 C608 1.390 . S
C609 C610 1.394 . S
C609 C615 1.465 . S
C610 C605 1.399 . S
C610 C609 1.394 . S
C610 C611 1.516 . S
C611 C610 1.516 . S
C611 C612 1.502 . S
C611 C613 1.561 . S
C611 C614 1.526 . S
C612 H596 0.959 . S
C612 H597 0.959 . S
C612 H598 0.961 . S
C612 C611 1.502 . S
C613 H599 0.960 . S
C613 H600 0.961 . S
C613 H601 0.959 . S
C613 C611 1.561 . S
C614 C611 1.526 . S
C614 C615 1.396 . S
C614 C619 1.390 . S
C615 C609 1.465 . S
C615 C614 1.396 . S
C615 C616 1.399 . S
C616 H602 0.929 . S
C616 C615 1.399 . S
C616 C617 1.385 . S
C617 H603 0.931 . S
C617 C616 1.385 . S
C617 C618 1.389 . S
C618 C617 1.389 . S
C618 C619 1.387 . S
C619 H604 0.930 . S
C619 C614 1.390 . S
C619 C618 1.387 . S
H620 C632 0.930 . S
H621 C634 0.946 . S
H622 C635 0.930 . S
H623 C639 0.959 . S
H624 C639 0.959 . S
H625 C639 0.961 . S
H626 C640 0.960 . S
H627 C640 0.961 . S
H628 C640 0.959 . S
H629 C643 0.929 1_565 S
H630 C644 0.931 . S
H631 C646 0.930 . S
C632 H620 0.930 . S
C632 C633 1.399 . S
C632 C637 1.399 . S
C633 C632 1.399 . S
C633 C634 1.376 . S
C634 H621 0.946 . S
C634 C633 1.376 . S
C634 C635 1.388 . S
C635 H622 0.930 . S
C635 C634 1.388 . S
C635 C636 1.390 . S
C636 C635 1.390 . S
C636 C637 1.394 . S
C636 C642 1.465 . S
C637 C632 1.399 . S
C637 C636 1.394 . S
C637 C638 1.516 . S
C638 C637 1.516 . S
C638 C639 1.502 . S
C638 C640 1.561 . S
C638 C641 1.526 . S
C639 H623 0.959 . S
C639 H624 0.959 . S
C639 H625 0.961 . S
C639 C638 1.502 . S
C640 H626 0.960 . S
C640 H627 0.961 . S
C640 H628 0.959 . S
C640 C638 1.561 . S
C641 C638 1.526 . S
C641 C642 1.396 . S
C641 C646 1.390 . S
C642 C636 1.465 . S
C642 C641 1.396 . S
C642 C643 1.399 . S
C643 H629 0.929 1_545 S
C643 C642 1.399 . S
C643 C644 1.385 1_545 S
C644 H630 0.931 . S
C644 C643 1.385 1_565 S
C644 C645 1.389 1_565 S
C645 C644 1.389 1_545 S
C645 C646 1.387 . S
C646 H631 0.930 . S
C646 C641 1.390 . S
C646 C645 1.387 . S
H647 C659 0.930 . S
H648 C661 0.930 . S
H649 C662 0.930 . S
H650 C666 0.959 . S
H651 C666 0.959 . S
H652 C666 0.961 . S
H653 C667 0.960 . S
H654 C667 0.961 . S
H655 C667 0.959 . S
H656 C670 0.929 . S
H657 C671 0.931 . S
H658 C673 0.930 . S
C659 H647 0.930 . S
C659 C660 1.399 . S
C659 C664 1.399 . S
C660 C659 1.399 . S
C660 C661 1.376 . S
C661 H648 0.930 . S
C661 C660 1.376 . S
C661 C662 1.388 . S
C662 H649 0.930 . S
C662 C661 1.388 . S
C662 C663 1.390 . S
C663 C662 1.390 . S
C663 C664 1.394 . S
C663 C669 1.465 . S
C664 C659 1.399 . S
C664 C663 1.394 . S
C664 C665 1.516 . S
C665 C664 1.516 . S
C665 C666 1.502 . S
C665 C667 1.561 . S
C665 C668 1.526 . S
C666 H650 0.959 . S
C666 H651 0.959 . S
C666 H652 0.961 . S
C666 C665 1.502 . S
C667 H653 0.960 . S
C667 H654 0.961 . S
C667 H655 0.959 . S
C667 C665 1.561 . S
C668 C665 1.526 . S
C668 C669 1.396 . S
C668 C673 1.390 . S
C669 C663 1.465 . S
C669 C668 1.396 . S
C669 C670 1.399 . S
C670 H656 0.929 . S
C670 C669 1.399 . S
C670 C671 1.385 . S
C671 H657 0.931 . S
C671 C670 1.385 . S
C671 C672 1.389 . S
C672 C671 1.389 . S
C672 C673 1.387 . S
C673 H658 0.930 . S
C673 C668 1.390 . S
C673 C672 1.387 . S
H674 C686 0.930 . S
H675 C688 0.930 . S
H676 C689 0.930 . S
H677 C693 0.959 . S
H678 C693 0.959 1_545 S
H679 C693 0.961 . S
H680 C694 0.960 1_565 S
H681 C694 0.961 . S
H682 C694 0.959 . S
H683 C697 0.929 1_554 S
H684 C698 0.931 1_554 S
H685 C700 0.930 . S
C686 H674 0.930 . S
C686 C687 1.399 . S
C686 C691 1.399 . S
C687 C686 1.399 . S
C687 C688 1.376 1_556 S
C688 H675 0.930 . S
C688 C687 1.376 1_554 S
C688 C689 1.388 . S
C689 H676 0.930 . S
C689 C688 1.388 . S
C689 C690 1.390 1_554 S
C690 C689 1.390 1_556 S
C690 C691 1.394 . S
C690 C696 1.465 1_565 S
C691 C686 1.399 . S
C691 C690 1.394 . S
C691 C692 1.510 1_565 S
C692 C691 1.510 1_545 S
C692 C693 1.500 1_545 S
C692 C694 1.562 . S
C692 C695 1.534 . S
C693 H677 0.959 . S
C693 H678 0.959 1_565 S
C693 H679 0.961 . S
C693 C692 1.500 1_565 S
C694 H680 0.960 1_545 S
C694 H681 0.961 . S
C694 H682 0.959 . S
C694 C692 1.562 . S
C695 C692 1.534 . S
C695 C696 1.396 . S
C695 C700 1.390 . S
C696 C690 1.465 1_545 S
C696 C695 1.396 . S
C696 C697 1.399 . S
C697 H683 0.929 1_556 S
C697 C696 1.399 . S
C697 C698 1.385 . S
C698 H684 0.931 1_556 S
C698 C697 1.385 . S
C698 C699 1.389 . S
C699 C698 1.389 . S
C699 C700 1.387 . S
C700 H685 0.930 . S
C700 C695 1.390 . S
C700 C699 1.387 . S
H701 C713 0.930 . S
H702 C715 0.930 . S
H703 C716 0.930 . S
H704 C720 0.959 . S
H705 C720 0.959 . S
H706 C720 0.961 . S
H707 C721 0.960 . S
H708 C721 0.961 . S
H709 C721 0.959 . S
H710 C724 0.929 . S
H711 C725 0.931 . S
H712 C727 0.930 . S
C713 H701 0.930 . S
C713 C714 1.399 . S
C713 C718 1.399 . S
C714 C713 1.399 . S
C714 C715 1.376 . S
C715 H702 0.930 . S
C715 C714 1.376 . S
C715 C716 1.388 . S
C716 H703 0.930 . S
C716 C715 1.388 . S
C716 C717 1.390 . S
C717 C716 1.390 . S
C717 C718 1.394 . S
C717 C723 1.465 . S
C718 C713 1.399 . S
C718 C717 1.394 . S
C718 C719 1.516 . S
C719 C718 1.516 . S
C719 C720 1.502 . S
C719 C721 1.561 . S
C719 C722 1.526 . S
C720 H704 0.959 . S
C720 H705 0.959 . S
C720 H706 0.961 . S
C720 C719 1.502 . S
C721 H707 0.960 . S
C721 H708 0.961 . S
C721 H709 0.959 . S
C721 C719 1.561 . S
C722 C719 1.526 . S
C722 C723 1.396 . S
C722 C727 1.390 . S
C723 C717 1.465 . S
C723 C722 1.396 . S
C723 C724 1.399 . S
C724 H710 0.929 . S
C724 C723 1.399 . S
C724 C725 1.385 . S
C725 H711 0.931 . S
C725 C724 1.385 . S
C725 C726 1.389 . S
C726 C725 1.389 . S
C726 C727 1.387 . S
C727 H712 0.930 . S
C727 C722 1.390 . S
C727 C726 1.387 . S
H728 C740 0.930 . S
H729 C742 0.930 . S
H730 C743 0.930 . S
H731 C747 0.959 . S
H732 C747 0.959 . S
H733 C747 0.961 . S
H734 C748 0.960 . S
H735 C748 0.961 . S
H736 C748 0.959 . S
H737 C751 0.929 . S
H738 C752 0.931 . S
H739 C754 0.930 . S
C740 H728 0.930 . S
C740 C741 1.399 . S
C740 C745 1.399 . S
C741 C740 1.399 . S
C741 C742 1.376 . S
C742 H729 0.930 . S
C742 C741 1.376 . S
C742 C743 1.388 . S
C743 H730 0.930 . S
C743 C742 1.388 . S
C743 C744 1.390 . S
C744 C743 1.390 . S
C744 C745 1.394 . S
C744 C750 1.465 . S
C745 C740 1.399 . S
C745 C744 1.394 . S
C745 C746 1.516 . S
C746 C745 1.516 . S
C746 C747 1.502 . S
C746 C748 1.561 . S
C746 C749 1.526 . S
C747 H731 0.959 . S
C747 H732 0.959 . S
C747 H733 0.961 . S
C747 C746 1.502 . S
C748 H734 0.960 . S
C748 H735 0.961 . S
C748 H736 0.959 . S
C748 C746 1.561 . S
C749 C746 1.526 . S
C749 C750 1.396 . S
C749 C754 1.390 . S
C750 C744 1.465 . S
C750 C749 1.396 . S
C750 C751 1.399 . S
C751 H737 0.929 . S
C751 C750 1.399 . S
C751 C752 1.385 . S
C752 H738 0.931 . S
C752 C751 1.385 . S
C752 C753 1.389 . S
C753 C752 1.389 . S
C753 C754 1.387 . S
C754 H739 0.930 . S
C754 C749 1.390 . S
C754 C753 1.387 . S
H755 C767 0.930 . S
H756 C769 0.930 . S
H757 C770 0.930 . S
H758 C774 0.959 1_554 S
H759 C774 0.959 . S
H760 C774 0.961 1_455 S
H761 C775 0.960 . S
H762 C775 0.961 1_655 S
H763 C775 0.959 1_554 S
H764 C778 0.929 . S
H765 C779 0.931 . S
H766 C781 0.930 . S
C767 H755 0.930 . S
C767 C768 1.399 . S
C767 C772 1.399 . S
C768 C767 1.399 . S
C768 C769 1.376 . S
C769 H756 0.930 . S
C769 C768 1.376 . S
C769 C770 1.388 . S
C770 H757 0.930 . S
C770 C769 1.388 . S
C770 C771 1.390 . S
C771 C770 1.390 . S
C771 C772 1.394 . S
C771 C777 1.465 1_455 S
C772 C767 1.399 . S
C772 C771 1.394 . S
C772 C773 1.516 . S
C773 C772 1.516 . S
C773 C774 1.502 1_454 S
C773 C775 1.561 1_554 S
C773 C776 1.526 1_455 S
C774 H758 0.959 1_556 S
C774 H759 0.959 . S
C774 H760 0.961 1_655 S
C774 C773 1.502 1_656 S
C775 H761 0.960 . S
C775 H762 0.961 1_455 S
C775 H763 0.959 1_556 S
C775 C773 1.561 1_556 S
C776 C773 1.526 1_655 S
C776 C777 1.396 . S
C776 C781 1.390 . S
C777 C771 1.465 1_655 S
C777 C776 1.396 . S
C777 C778 1.399 . S
C778 H764 0.929 . S
C778 C777 1.399 . S
C778 C779 1.385 . S
C779 H765 0.931 . S
C779 C778 1.385 . S
C779 C780 1.389 . S
C780 C779 1.389 . S
C780 C781 1.387 . S
C781 H766 0.930 . S
C781 C776 1.390 . S
C781 C780 1.387 . S
H782 C794 0.930 . S
H783 C796 0.930 . S
H784 C797 0.930 . S
H785 C801 0.959 . S
H786 C801 0.959 . S
H787 C801 0.961 . S
H788 C802 0.960 . S
H789 C802 0.961 . S
H790 C802 0.959 . S
H791 C805 0.929 . S
H792 C806 0.931 . S
H793 C808 0.930 . S
C794 H782 0.930 . S
C794 C795 1.399 . S
C794 C799 1.399 . S
C795 C794 1.399 . S
C795 C796 1.376 . S
C796 H783 0.930 . S
C796 C795 1.376 . S
C796 C797 1.388 . S
C797 H784 0.930 . S
C797 C796 1.388 . S
C797 C798 1.390 . S
C798 C797 1.390 . S
C798 C799 1.394 . S
C798 C804 1.465 . S
C799 C794 1.399 . S
C799 C798 1.394 . S
C799 C800 1.516 . S
C800 C799 1.516 . S
C800 C801 1.502 . S
C800 C802 1.561 . S
C800 C803 1.526 . S
C801 H785 0.959 . S
C801 H786 0.959 . S
C801 H787 0.961 . S
C801 C800 1.502 . S
C802 H788 0.960 . S
C802 H789 0.961 . S
C802 H790 0.959 . S
C802 C800 1.561 . S
C803 C800 1.526 . S
C803 C804 1.396 . S
C803 C808 1.390 . S
C804 C798 1.465 . S
C804 C803 1.396 . S
C804 C805 1.399 . S
C805 H791 0.929 . S
C805 C804 1.399 . S
C805 C806 1.385 . S
C806 H792 0.931 . S
C806 C805 1.385 . S
C806 C807 1.389 . S
C807 C806 1.389 . S
C807 C808 1.387 . S
C808 H793 0.930 . S
C808 C803 1.390 . S
C808 C807 1.387 . S
H809 C821 0.930 . S
H810 C823 0.930 . S
H811 C824 0.930 . S
H812 C828 0.959 . S
H813 C828 0.959 . S
H814 C828 0.961 . S
H815 C829 0.960 . S
H816 C829 0.961 . S
H817 C829 0.959 . S
H818 C832 0.929 . S
H819 C833 0.931 . S
H820 C835 0.930 . S
C821 H809 0.930 . S
C821 C822 1.399 . S
C821 C826 1.399 . S
C822 C821 1.399 . S
C822 C823 1.376 . S
C823 H810 0.930 . S
C823 C822 1.376 . S
C823 C824 1.388 . S
C824 H811 0.930 . S
C824 C823 1.388 . S
C824 C825 1.390 . S
C825 C824 1.390 . S
C825 C826 1.394 . S
C825 C831 1.465 . S
C826 C821 1.399 . S
C826 C825 1.394 . S
C826 C827 1.516 . S
C827 C826 1.516 . S
C827 C828 1.502 . S
C827 C829 1.561 . S
C827 C830 1.526 . S
C828 H812 0.959 . S
C828 H813 0.959 . S
C828 H814 0.961 . S
C828 C827 1.502 . S
C829 H815 0.960 . S
C829 H816 0.961 . S
C829 H817 0.959 . S
C829 C827 1.561 . S
C830 C827 1.526 . S
C830 C831 1.396 . S
C830 C835 1.390 . S
C831 C825 1.465 . S
C831 C830 1.396 . S
C831 C832 1.399 1_655 S
C832 H818 0.929 . S
C832 C831 1.399 1_455 S
C832 C833 1.385 . S
C833 H819 0.931 . S
C833 C832 1.385 . S
C833 C834 1.389 . S
C834 C833 1.389 . S
C834 C835 1.387 1_455 S
C835 H820 0.930 . S
C835 C830 1.390 . S
C835 C834 1.387 1_655 S
H836 C848 0.930 . S
H837 C850 0.930 1_556 S
H838 C851 0.930 1_556 S
H839 C855 0.959 . S
H840 C855 0.959 . S
H841 C855 0.961 . S
H842 C856 0.960 . S
H843 C856 0.961 . S
H844 C856 0.959 . S
H845 C859 0.929 . S
H846 C860 0.931 . S
H847 C862 0.930 . S
C848 H836 0.930 . S
C848 C849 1.399 . S
C848 C853 1.399 . S
C849 C848 1.399 . S
C849 C850 1.376 . S
C850 H837 0.930 1_554 S
C850 C849 1.376 . S
C850 C851 1.388 . S
C851 H838 0.930 1_554 S
C851 C850 1.388 . S
C851 C852 1.390 . S
C852 C851 1.390 . S
C852 C853 1.394 . S
C852 C858 1.465 . S
C853 C848 1.399 . S
C853 C852 1.394 . S
C853 C854 1.516 . S
C854 C853 1.516 . S
C854 C855 1.502 . S
C854 C856 1.561 . S
C854 C857 1.526 . S
C855 H839 0.959 . S
C855 H840 0.959 . S
C855 H841 0.961 . S
C855 C854 1.502 . S
C856 H842 0.960 . S
C856 H843 0.961 . S
C856 H844 0.959 . S
C856 C854 1.561 . S
C857 C854 1.526 . S
C857 C858 1.396 . S
C857 C862 1.390 . S
C858 C852 1.465 . S
C858 C857 1.396 . S
C858 C859 1.399 . S
C859 H845 0.929 . S
C859 C858 1.399 . S
C859 C860 1.385 . S
C860 H846 0.931 . S
C860 C859 1.385 . S
C860 C861 1.389 . S
C861 C860 1.389 . S
C861 C862 1.387 . S
C862 H847 0.930 . S
C862 C857 1.390 . S
C862 C861 1.387 . S
H863 C875 0.930 . S
H864 C877 0.930 . S
H865 C878 0.930 . S
H866 C882 0.959 . S
H867 C882 0.959 . S
H868 C882 0.961 . S
H869 C883 0.960 . S
H870 C883 0.961 . S
H871 C883 0.959 . S
H872 C886 0.929 . S
H873 C887 0.931 . S
H874 C889 0.930 . S
C875 H863 0.930 . S
C875 C876 1.399 . S
C875 C880 1.399 . S
C876 C875 1.399 . S
C876 C877 1.376 . S
C877 H864 0.930 . S
C877 C876 1.376 . S
C877 C878 1.388 . S
C878 H865 0.930 . S
C878 C877 1.388 . S
C878 C879 1.390 . S
C879 C878 1.390 . S
C879 C880 1.394 . S
C879 C885 1.465 . S
C880 C875 1.399 . S
C880 C879 1.394 . S
C880 C881 1.516 . S
C881 C880 1.516 . S
C881 C882 1.502 . S
C881 C883 1.561 . S
C881 C884 1.526 . S
C882 H866 0.959 . S
C882 H867 0.959 . S
C882 H868 0.961 . S
C882 C881 1.502 . S
C883 H869 0.960 . S
C883 H870 0.961 . S
C883 H871 0.959 . S
C883 C881 1.561 . S
C884 C881 1.526 . S
C884 C885 1.396 . S
C884 C889 1.390 . S
C885 C879 1.465 . S
C885 C884 1.396 . S
C885 C886 1.399 . S
C886 H872 0.929 . S
C886 C885 1.399 . S
C886 C887 1.385 . S
C887 H873 0.931 . S
C887 C886 1.385 . S
C887 C888 1.389 . S
C888 C887 1.389 . S
C888 C889 1.387 . S
C889 H874 0.930 . S
C889 C884 1.390 . S
C889 C888 1.387 . S
H890 C902 0.930 . S
H891 C904 0.930 . S
H892 C905 0.930 . S
H893 C909 0.959 . S
H894 C909 0.959 . S
H895 C909 0.961 . S
H896 C910 0.960 . S
H897 C910 0.961 . S
H898 C910 0.959 . S
H899 C913 0.929 . S
H900 C914 0.931 . S
H901 C916 0.930 . S
C902 H890 0.930 . S
C902 C903 1.399 . S
C902 C907 1.399 . S
C903 C902 1.399 . S
C903 C904 1.376 . S
C904 H891 0.930 . S
C904 C903 1.376 . S
C904 C905 1.388 . S
C905 H892 0.930 . S
C905 C904 1.388 . S
C905 C906 1.390 . S
C906 C905 1.390 . S
C906 C907 1.394 . S
C906 C912 1.465 . S
C907 C902 1.399 . S
C907 C906 1.394 . S
C907 C908 1.516 . S
C908 C907 1.516 . S
C908 C909 1.502 . S
C908 C910 1.561 . S
C908 C911 1.526 . S
C909 H893 0.959 . S
C909 H894 0.959 . S
C909 H895 0.961 . S
C909 C908 1.502 . S
C910 H896 0.960 . S
C910 H897 0.961 . S
C910 H898 0.959 . S
C910 C908 1.561 . S
C911 C908 1.526 . S
C911 C912 1.396 . S
C911 C916 1.390 . S
C912 C906 1.465 . S
C912 C911 1.396 . S
C912 C913 1.399 . S
C913 H899 0.929 . S
C913 C912 1.399 . S
C913 C914 1.385 . S
C914 H900 0.931 . S
C914 C913 1.385 . S
C914 C915 1.389 . S
C915 C914 1.389 . S
C915 C916 1.387 . S
C916 H901 0.930 . S
C916 C911 1.390 . S
C916 C915 1.387 . S
H917 C929 0.930 . S
H918 C931 0.930 . S
H919 C932 0.930 . S
H920 C936 0.959 . S
H921 C936 0.959 . S
H922 C936 0.961 . S
H923 C937 0.960 . S
H924 C937 0.961 . S
H925 C937 0.959 . S
H926 C940 0.929 . S
H927 C941 0.931 . S
H928 C943 0.930 . S
C929 H917 0.930 . S
C929 C930 1.399 . S
C929 C934 1.399 . S
C930 C929 1.399 . S
C930 C931 1.376 . S
C931 H918 0.930 . S
C931 C930 1.376 . S
C931 C932 1.388 . S
C932 H919 0.930 . S
C932 C931 1.388 . S
C932 C933 1.390 . S
C933 C932 1.390 . S
C933 C934 1.394 . S
C933 C939 1.465 . S
C934 C929 1.399 . S
C934 C933 1.394 . S
C934 C935 1.516 . S
C935 C934 1.516 . S
C935 C936 1.502 . S
C935 C937 1.561 . S
C935 C938 1.526 . S
C936 H920 0.959 . S
C936 H921 0.959 . S
C936 H922 0.961 . S
C936 C935 1.502 . S
C937 H923 0.960 . S
C937 H924 0.961 . S
C937 H925 0.959 . S
C937 C935 1.561 . S
C938 C935 1.526 . S
C938 C939 1.396 . S
C938 C943 1.390 . S
C939 C933 1.465 . S
C939 C938 1.396 . S
C939 C940 1.399 . S
C940 H926 0.929 . S
C940 C939 1.399 . S
C940 C941 1.385 . S
C941 H927 0.931 . S
C941 C940 1.385 . S
C941 C942 1.389 . S
C942 C941 1.389 . S
C942 C943 1.387 . S
C943 H928 0.930 . S
C943 C938 1.390 . S
C943 C942 1.387 . S
H944 C956 0.930 . S
H945 C958 0.930 . S
H946 C959 0.930 . S
H947 C963 0.959 . S
H948 C963 0.959 . S
H949 C963 0.961 . S
H950 C964 0.960 . S
H951 C964 0.961 . S
H952 C964 0.959 . S
H953 C967 0.929 . S
H954 C968 0.931 . S
H955 C970 0.930 . S
C956 H944 0.930 . S
C956 C957 1.399 . S
C956 C961 1.399 . S
C957 C956 1.399 . S
C957 C958 1.376 . S
C958 H945 0.930 . S
C958 C957 1.376 . S
C958 C959 1.388 . S
C959 H946 0.930 . S
C959 C958 1.388 . S
C959 C960 1.390 . S
C960 C959 1.390 . S
C960 C961 1.394 . S
C960 C966 1.465 . S
C961 C956 1.399 . S
C961 C960 1.394 . S
C961 C962 1.516 . S
C962 C961 1.516 . S
C962 C963 1.502 . S
C962 C964 1.561 . S
C962 C965 1.526 . S
C963 H947 0.959 . S
C963 H948 0.959 . S
C963 H949 0.961 . S
C963 C962 1.502 . S
C964 H950 0.960 . S
C964 H951 0.961 . S
C964 H952 0.959 . S
C964 C962 1.561 . S
C965 C962 1.526 . S
C965 C966 1.396 . S
C965 C970 1.390 . S
C966 C960 1.465 . S
C966 C965 1.396 . S
C966 C967 1.399 . S
C967 H953 0.929 . S
C967 C966 1.399 . S
C967 C968 1.385 . S
C968 H954 0.931 . S
C968 C967 1.385 . S
C968 C969 1.389 . S
C969 C968 1.389 . S
C969 C970 1.387 . S
C970 H955 0.930 . S
C970 C965 1.390 . S
C970 C969 1.387 . S
H971 C983 0.930 . S
H972 C985 0.930 . S
H973 C986 0.930 . S
H974 C990 0.959 . S
H975 C990 0.959 . S
H976 C990 0.961 . S
H977 C991 0.960 . S
H978 C991 0.961 . S
H979 C991 0.959 . S
H980 C994 0.929 1_554 S
H981 C995 0.931 . S
H982 C997 0.930 . S
C983 H971 0.930 . S
C983 C984 1.399 1_556 S
C983 C988 1.399 . S
C984 C983 1.399 1_554 S
C984 C985 1.376 . S
C985 H972 0.930 . S
C985 C984 1.376 . S
C985 C986 1.388 . S
C986 H973 0.930 . S
C986 C985 1.388 . S
C986 C987 1.390 1_554 S
C987 C986 1.390 1_556 S
C987 C988 1.394 . S
C987 C993 1.465 . S
C988 C983 1.399 . S
C988 C987 1.394 . S
C988 C989 1.516 . S
C989 C988 1.516 . S
C989 C990 1.502 . S
C989 C991 1.561 . S
C989 C992 1.526 . S
C990 H974 0.959 . S
C990 H975 0.959 . S
C990 H976 0.961 . S
C990 C989 1.502 . S
C991 H977 0.960 . S
C991 H978 0.961 . S
C991 H979 0.959 . S
C991 C989 1.561 . S
C992 C989 1.526 . S
C992 C993 1.396 . S
C992 C997 1.390 . S
C993 C987 1.465 . S
C993 C992 1.396 . S
C993 C994 1.399 . S
C994 H980 0.929 1_556 S
C994 C993 1.399 . S
C994 C995 1.385 . S
C995 H981 0.931 . S
C995 C994 1.385 . S
C995 C996 1.389 . S
C996 C995 1.389 . S
C996 C997 1.387 . S
C997 H982 0.930 . S
C997 C992 1.390 . S
C997 C996 1.387 . S
H998 C1010 0.930 . S
H999 C1012 0.930 . S
H1000 C1013 0.930 . S
H1001 C1017 0.959 . S
H1002 C1017 0.959 . S
H1003 C1017 0.961 . S
H1004 C1018 0.960 . S
H1005 C1018 0.961 . S
H1006 C1018 0.959 . S
H1007 C1021 0.929 . S
H1008 C1022 0.931 . S
H1009 C1024 0.930 . S
C1010 H998 0.930 . S
C1010 C1011 1.399 . S
C1010 C1015 1.399 . S
C1011 C1010 1.399 . S
C1011 C1012 1.376 . S
C1012 H999 0.930 . S
C1012 C1011 1.376 . S
C1012 C1013 1.388 . S
C1013 H1000 0.930 . S
C1013 C1012 1.388 . S
C1013 C1014 1.390 . S
C1014 C1013 1.390 . S
C1014 C1015 1.394 . S
C1014 C1020 1.465 . S
C1015 C1010 1.399 . S
C1015 C1014 1.394 . S
C1015 C1016 1.516 . S
C1016 C1015 1.516 . S
C1016 C1017 1.502 . S
C1016 C1018 1.561 . S
C1016 C1019 1.526 . S
C1017 H1001 0.959 . S
C1017 H1002 0.959 . S
C1017 H1003 0.961 . S
C1017 C1016 1.502 . S
C1018 H1004 0.960 . S
C1018 H1005 0.961 . S
C1018 H1006 0.959 . S
C1018 C1016 1.561 . S
C1019 C1016 1.526 . S
C1019 C1020 1.396 . S
C1019 C1024 1.390 . S
C1020 C1014 1.465 . S
C1020 C1019 1.396 . S
C1020 C1021 1.399 . S
C1021 H1007 0.929 . S
C1021 C1020 1.399 . S
C1021 C1022 1.385 . S
C1022 H1008 0.931 . S
C1022 C1021 1.385 . S
C1022 C1023 1.389 . S
C1023 C1022 1.389 . S
C1023 C1024 1.387 . S
C1024 H1009 0.930 . S
C1024 C1019 1.390 . S
C1024 C1023 1.387 . S
H1025 C1037 0.930 . S
H1026 C1039 0.930 . S
H1027 C1040 0.930 . S
H1028 C1044 0.959 . S
H1029 C1044 0.959 . S
H1030 C1044 0.961 . S
H1031 C1045 0.960 . S
H1032 C1045 0.961 . S
H1033 C1045 0.959 . S
H1034 C1048 0.929 . S
H1035 C1049 0.931 . S
H1036 C1051 0.930 . S
C1037 H1025 0.930 . S
C1037 C1038 1.399 . S
C1037 C1042 1.399 . S
C1038 C1037 1.399 . S
C1038 C1039 1.376 . S
C1039 H1026 0.930 . S
C1039 C1038 1.376 . S
C1039 C1040 1.388 . S
C1040 H1027 0.930 . S
C1040 C1039 1.388 . S
C1040 C1041 1.390 . S
C1041 C1040 1.390 . S
C1041 C1042 1.394 . S
C1041 C1047 1.465 . S
C1042 C1037 1.399 . S
C1042 C1041 1.394 . S
C1042 C1043 1.516 . S
C1043 C1042 1.516 . S
C1043 C1044 1.502 . S
C1043 C1045 1.561 . S
C1043 C1046 1.526 . S
C1044 H1028 0.959 . S
C1044 H1029 0.959 . S
C1044 H1030 0.961 . S
C1044 C1043 1.502 . S
C1045 H1031 0.960 . S
C1045 H1032 0.961 . S
C1045 H1033 0.959 . S
C1045 C1043 1.561 . S
C1046 C1043 1.526 . S
C1046 C1047 1.396 . S
C1046 C1051 1.390 . S
C1047 C1041 1.465 . S
C1047 C1046 1.396 . S
C1047 C1048 1.399 . S
C1048 H1034 0.929 . S
C1048 C1047 1.399 . S
C1048 C1049 1.385 . S
C1049 H1035 0.931 . S
C1049 C1048 1.385 . S
C1049 C1050 1.389 . S
C1050 C1049 1.389 . S
C1050 C1051 1.387 . S
C1051 H1036 0.930 . S
C1051 C1046 1.390 . S
C1051 C1050 1.387 . S
C417 C7 0.993 . S
C429 C105 1.094 . S
C444 C25 1.219 . S
C456 C145 1.260 . S
C471 C46 1.057 . S
C483 C166 1.042 . S
C510 C225 0.731 . S
C498 C70 0.834 . S
C537 C265 1.047 . S
C525 C28 1.087 . S
C552 C49 1.153 . S
C564 C286 1.082 . S
C579 C67 1.160 . S
C591 C326 1.150 . S
C606 C4 0.854 . S
C618 C385 0.914 . S
C633 C58 1.658 . S
C645 C366 1.642 1_545 S
C672 C246 2.075 . S
C660 C66 1.988 . S
C699 C305 1.915 . S
C687 C3 1.949 . S
C714 C37 1.855 . S
C726 C345 1.970 . S
C753 C126 1.946 . S
C741 C79 1.811 . S
C768 C16 2.102 . S
C780 C185 2.019 . S
C807 C206 1.652 . S
C795 C24 1.666 . S
C834 C86 1.851 . S
C822 C45 1.793 . S
C861 C339 1.422 . S
C849 C19 1.344 . S
C888 C379 1.148 . S
C876 C41 1.107 . S
C903 C62 1.187 . S
C915 C259 1.341 . S
C942 C299 1.576 . S
C930 C82 1.224 . S
C969 C179 1.380 . S
C957 C40 1.238 . S
C984 C61 1.118 . S
C996 C219 1.130 . S
C1023 C99 1.345 . S
C1011 C83 1.316 . S
C1050 C139 1.528 . S
C1038 C20 1.399 . S
