# Generated by pormake.
# Topology myd, (4,6)-cn, num edge types: 1
# Building blocks:
#     Node 0, Type 0, BuildingBlock: KOZSID_clean_sbu_0, # of connection points: 4
#     Node 1, Type 0, BuildingBlock: KOZSID_clean_sbu_0, # of connection points: 4
#     Node 2, Type 0, BuildingBlock: KOZSID_clean_sbu_0, # of connection points: 4
#     Node 3, Type 0, BuildingBlock: KOZSID_clean_sbu_0, # of connection points: 4
#     Node 4, Type 0, BuildingBlock: KOZSID_clean_sbu_0, # of connection points: 4
#     Node 5, Type 0, BuildingBlock: KOZSID_clean_sbu_0, # of connection points: 4
#     Node 6, Type 0, BuildingBlock: KOZSID_clean_sbu_0, # of connection points: 4
#     Node 7, Type 0, BuildingBlock: KOZSID_clean_sbu_0, # of connection points: 4
#     Node 8, Type 0, BuildingBlock: KOZSID_clean_sbu_0, # of connection points: 4
#     Node 9, Type 0, BuildingBlock: KOZSID_clean_sbu_0, # of connection points: 4
#     Node 10, Type 0, BuildingBlock: KOZSID_clean_sbu_0, # of connection points: 4
#     Node 11, Type 0, BuildingBlock: KOZSID_clean_sbu_0, # of connection points: 4
#     Node 12, Type 1, BuildingBlock: MIDCAF_clean_sbu_0, # of connection points: 6
#     Node 13, Type 1, BuildingBlock: MIDCAF_clean_sbu_0, # of connection points: 6
#     Node 14, Type 1, BuildingBlock: MIDCAF_clean_sbu_0, # of connection points: 6
#     Node 15, Type 1, BuildingBlock: MIDCAF_clean_sbu_0, # of connection points: 6
#     Node 16, Type 1, BuildingBlock: MIDCAF_clean_sbu_0, # of connection points: 6
#     Node 17, Type 1, BuildingBlock: MIDCAF_clean_sbu_0, # of connection points: 6
#     Node 18, Type 1, BuildingBlock: MIDCAF_clean_sbu_0, # of connection points: 6
#     Node 19, Type 1, BuildingBlock: MIDCAF_clean_sbu_0, # of connection points: 6
#     Edge 20, Type (0, 1), BuildingBlock: XUDNAN_clean_linker_2, # of connection points: 2
#     Edge 21, Type (0, 1), BuildingBlock: XUDNAN_clean_linker_2, # of connection points: 2
#     Edge 22, Type (0, 1), BuildingBlock: XUDNAN_clean_linker_2, # of connection points: 2
#     Edge 23, Type (0, 1), BuildingBlock: XUDNAN_clean_linker_2, # of connection points: 2
#     Edge 24, Type (0, 1), BuildingBlock: XUDNAN_clean_linker_2, # of connection points: 2
#     Edge 25, Type (0, 1), BuildingBlock: XUDNAN_clean_linker_2, # of connection points: 2
#     Edge 26, Type (0, 1), BuildingBlock: XUDNAN_clean_linker_2, # of connection points: 2
#     Edge 27, Type (0, 1), BuildingBlock: XUDNAN_clean_linker_2, # of connection points: 2
#     Edge 28, Type (0, 1), BuildingBlock: XUDNAN_clean_linker_2, # of connection points: 2
#     Edge 29, Type (0, 1), BuildingBlock: XUDNAN_clean_linker_2, # of connection points: 2
#     Edge 30, Type (0, 1), BuildingBlock: XUDNAN_clean_linker_2, # of connection points: 2
#     Edge 31, Type (0, 1), BuildingBlock: XUDNAN_clean_linker_2, # of connection points: 2
#     Edge 32, Type (0, 1), BuildingBlock: XUDNAN_clean_linker_2, # of connection points: 2
#     Edge 33, Type (0, 1), BuildingBlock: XUDNAN_clean_linker_2, # of connection points: 2
#     Edge 34, Type (0, 1), BuildingBlock: XUDNAN_clean_linker_2, # of connection points: 2
#     Edge 35, Type (0, 1), BuildingBlock: XUDNAN_clean_linker_2, # of connection points: 2
#     Edge 36, Type (0, 1), BuildingBlock: XUDNAN_clean_linker_2, # of connection points: 2
#     Edge 37, Type (0, 1), BuildingBlock: XUDNAN_clean_linker_2, # of connection points: 2
#     Edge 38, Type (0, 1), BuildingBlock: XUDNAN_clean_linker_2, # of connection points: 2
#     Edge 39, Type (0, 1), BuildingBlock: XUDNAN_clean_linker_2, # of connection points: 2
#     Edge 40, Type (0, 1), BuildingBlock: XUDNAN_clean_linker_2, # of connection points: 2
#     Edge 41, Type (0, 1), BuildingBlock: XUDNAN_clean_linker_2, # of connection points: 2
#     Edge 42, Type (0, 1), BuildingBlock: XUDNAN_clean_linker_2, # of connection points: 2
#     Edge 43, Type (0, 1), BuildingBlock: XUDNAN_clean_linker_2, # of connection points: 2
#     Edge 44, Type (0, 1), BuildingBlock: XUDNAN_clean_linker_2, # of connection points: 2
#     Edge 45, Type (0, 1), BuildingBlock: XUDNAN_clean_linker_2, # of connection points: 2
#     Edge 46, Type (0, 1), BuildingBlock: XUDNAN_clean_linker_2, # of connection points: 2
#     Edge 47, Type (0, 1), BuildingBlock: XUDNAN_clean_linker_2, # of connection points: 2
#     Edge 48, Type (0, 1), BuildingBlock: XUDNAN_clean_linker_2, # of connection points: 2
#     Edge 49, Type (0, 1), BuildingBlock: XUDNAN_clean_linker_2, # of connection points: 2
#     Edge 50, Type (0, 1), BuildingBlock: XUDNAN_clean_linker_2, # of connection points: 2
#     Edge 51, Type (0, 1), BuildingBlock: XUDNAN_clean_linker_2, # of connection points: 2
#     Edge 52, Type (0, 1), BuildingBlock: XUDNAN_clean_linker_2, # of connection points: 2
#     Edge 53, Type (0, 1), BuildingBlock: XUDNAN_clean_linker_2, # of connection points: 2
#     Edge 54, Type (0, 1), BuildingBlock: XUDNAN_clean_linker_2, # of connection points: 2
#     Edge 55, Type (0, 1), BuildingBlock: XUDNAN_clean_linker_2, # of connection points: 2
#     Edge 56, Type (0, 1), BuildingBlock: XUDNAN_clean_linker_2, # of connection points: 2
#     Edge 57, Type (0, 1), BuildingBlock: XUDNAN_clean_linker_2, # of connection points: 2
#     Edge 58, Type (0, 1), BuildingBlock: XUDNAN_clean_linker_2, # of connection points: 2
#     Edge 59, Type (0, 1), BuildingBlock: XUDNAN_clean_linker_2, # of connection points: 2
#     Edge 60, Type (0, 1), BuildingBlock: XUDNAN_clean_linker_2, # of connection points: 2
#     Edge 61, Type (0, 1), BuildingBlock: XUDNAN_clean_linker_2, # of connection points: 2
#     Edge 62, Type (0, 1), BuildingBlock: XUDNAN_clean_linker_2, # of connection points: 2
#     Edge 63, Type (0, 1), BuildingBlock: XUDNAN_clean_linker_2, # of connection points: 2
#     Edge 64, Type (0, 1), BuildingBlock: XUDNAN_clean_linker_2, # of connection points: 2
#     Edge 65, Type (0, 1), BuildingBlock: XUDNAN_clean_linker_2, # of connection points: 2
#     Edge 66, Type (0, 1), BuildingBlock: XUDNAN_clean_linker_2, # of connection points: 2
#     Edge 67, Type (0, 1), BuildingBlock: XUDNAN_clean_linker_2, # of connection points: 2
# Relax obj value: 0.146
# Max RMSD: 0.124
# Mean RMSD: 0.101
data_MOF--net-myd--node1-KOZSID_clean_sbu_0--node2-MIDCAF_clean_sbu_0--edge1-XUDNAN_clean_linker_2
_symmetry_space_group_name_H-M    P1
_symmetry_Int_Tables_number       1
_symmetry_cell_setting            triclinic
loop_
_symmetry_equiv_pos_as_xyz
'x, y, z'
_cell_length_a     50.126695
_cell_length_b     50.166907
_cell_length_c     50.043856
_cell_angle_alpha  91.688122
_cell_angle_beta   90.431462
_cell_angle_gamma 92.260102
loop_
_atom_site_label
_atom_site_type_symbol
_atom_site_fract_x
_atom_site_fract_y
_atom_site_fract_z
_atom_type_partial_charge
C0 C 0.98041 0.29862 0.32347 0.0
C1 C 0.95564 0.30414 0.33401 0.0
C2 C 0.93788 0.28549 0.32311 0.0
C3 C 0.95278 0.26971 0.30666 0.0
N4 N 0.97906 0.27682 0.30677 0.0
Co5 Co 0.00765 0.26008 0.28498 0.0
N6 N 0.9807 0.23719 0.26417 0.0
C7 C 0.95408 0.23528 0.26826 0.0
C8 C 0.94054 0.21879 0.25005 0.0
C9 C 0.95961 0.20994 0.23301 0.0
C10 C 0.98376 0.22159 0.24193 0.0
N11 N 0.03626 0.2433 0.26317 0.0
C12 C 0.03405 0.22703 0.24104 0.0
C13 C 0.0589 0.22063 0.23131 0.0
C14 C 0.07746 0.23365 0.24767 0.0
C15 C 0.06298 0.24721 0.26644 0.0
N16 N 0.03442 0.28377 0.30541 0.0
C17 C 0.06134 0.28379 0.30329 0.0
C18 C 0.07423 0.30386 0.31819 0.0
C19 C 0.05437 0.31784 0.33001 0.0
C20 C 0.03042 0.30542 0.32168 0.0
N21 N 0.01097 0.23126 0.31186 0.0
C22 C 0.01834 0.18675 0.34501 0.0
C23 C 0.0398 0.20307 0.33685 0.0
C24 C 0.03567 0.22503 0.32116 0.0
C25 C 0.99278 0.19366 0.33666 0.0
C26 C 0.98959 0.21575 0.32026 0.0
N27 N 0.00495 0.28813 0.25812 0.0
C28 C 0.02759 0.31794 0.22799 0.0
C29 C 1.00344 0.32665 0.21816 0.0
C30 C 0.97975 0.31556 0.22877 0.0
C31 C 0.98096 0.29638 0.24873 0.0
C32 C 0.02788 0.2992 0.2478 0.0
H33 H 0.96246 0.2883 0.25633 0.0
H34 H 0.04708 0.29372 0.25421 0.0
H35 H 0.05315 0.23627 0.31661 0.0
H36 H 0.96965 0.2197 0.31458 0.0
C37 C 0.94223 0.25064 0.28824 0.0
C38 C 1.00432 0.31552 0.32869 0.0
C39 C 0.0089 0.218 0.22811 0.0
C40 C 0.07363 0.2664 0.28504 0.0
H41 H 0.9508 0.3205 0.34747 0.0
H42 H 0.91646 0.28443 0.32579 0.0
H43 H 0.91924 0.21439 0.24881 0.0
H44 H 0.95606 0.19684 0.21566 0.0
H45 H 0.06311 0.20838 0.2138 0.0
H46 H 0.09893 0.23414 0.24541 0.0
H47 H 0.09548 0.30852 0.31935 0.0
H48 H 0.05712 0.3356 0.3427 0.0
H49 H 0.06018 0.19882 0.34195 0.0
H50 H 0.97521 0.18222 0.34272 0.0
H51 H 0.04652 0.32514 0.22012 0.0
H52 H 0.96047 0.32171 0.22191 0.0
C53 C 0.9656 0.72099 0.17363 0.0
C54 C 0.94114 0.71314 0.16203 0.0
C55 C 0.92284 0.73047 0.17172 0.0
C56 C 0.93701 0.74783 0.1887 0.0
N57 N 0.96306 0.7424 0.19034 0.0
Co58 Co 0.99034 0.76217 0.21266 0.0
N59 N 0.96256 0.77716 0.236 0.0
C60 C 0.93659 0.77915 0.22967 0.0
C61 C 0.92221 0.79059 0.24991 0.0
C62 C 0.94034 0.79628 0.27013 0.0
C63 C 0.96486 0.78793 0.26099 0.0
N64 N 0.01746 0.78209 0.23503 0.0
C65 C 0.01515 0.79293 0.25998 0.0
C66 C 0.03905 0.80554 0.26828 0.0
C67 C 0.05672 0.8025 0.24759 0.0
C68 C 0.0427 0.78822 0.22784 0.0
N69 N 0.01773 0.74693 0.18901 0.0
C70 C 0.04292 0.75673 0.18637 0.0
C71 C 0.05722 0.74194 0.16834 0.0
C72 C 0.03983 0.72177 0.15908 0.0
C73 C 0.0158 0.72533 0.17203 0.0
N74 N 0.98885 0.79346 0.18976 0.0
C75 C 1.00387 0.83976 0.16216 0.0
C76 C 1.0024 0.81457 0.14895 0.0
C77 C 0.99436 0.79173 0.163 0.0
C78 C 0.99445 0.84133 0.18843 0.0
C79 C 0.98742 0.81819 0.20184 0.0
N80 N 0.99326 0.73188 0.23626 0.0
C81 C 0.02262 0.70774 0.26424 0.0
C82 C 1.00118 0.69954 0.27991 0.0
C83 C 0.97531 0.70594 0.27218 0.0
C84 C 0.97172 0.7218 0.24986 0.0
C85 C 0.01828 0.72389 0.24263 0.0
H86 H 0.95178 0.72736 0.2447 0.0
H87 H 0.03563 0.73152 0.23246 0.0
H88 H 0.99451 0.77251 0.15272 0.0
H89 H 0.98289 0.82047 0.22274 0.0
C90 C 0.92582 0.76581 0.2069 0.0
C91 C 0.99105 0.70911 0.1666 0.0
C92 C 0.99022 0.79277 0.27536 0.0
C93 C 0.05337 0.77652 0.20453 0.0
H94 H 0.93693 0.6967 0.14794 0.0
H95 H 0.90156 0.72973 0.16776 0.0
H96 H 0.90094 0.7935 0.25036 0.0
H97 H 0.93605 0.80573 0.28925 0.0
H98 H 0.04322 0.81589 0.28723 0.0
H99 H 0.07755 0.80905 0.24741 0.0
H100 H 0.07809 0.74477 0.16332 0.0
H101 H 0.04429 0.70626 0.14448 0.0
H102 H 0.00886 0.8122 0.12846 0.0
H103 H 0.99379 0.86029 0.19926 0.0
H104 H 0.04286 0.70322 0.26974 0.0
H105 H 0.95824 0.69979 0.28397 0.0
C106 C 0.33946 0.97256 0.29658 0.0
C107 C 0.35069 0.94881 0.30334 0.0
C108 C 0.34415 0.93066 0.28307 0.0
C109 C 0.32941 0.94434 0.26514 0.0
N110 N 0.32636 0.96994 0.27286 0.0
Co111 Co 0.30663 0.9967 0.25315 0.0
N112 N 0.28625 0.96843 0.2322 0.0
C113 C 0.29255 0.94262 0.22964 0.0
C114 C 0.27386 0.92736 0.2153 0.0
C115 C 0.25484 0.9447 0.20806 0.0
C116 C 0.26325 0.96984 0.21802 0.0
N117 N 0.28727 0.02353 0.23323 0.0
C118 C 0.26505 0.02051 0.21765 0.0
C119 C 0.25924 0.04454 0.20619 0.0
C120 C 0.27855 0.06301 0.21494 0.0
C121 C 0.29516 0.04936 0.23112 0.0
N122 N 0.32705 0.02457 0.27467 0.0
C123 C 0.33067 0.05032 0.26844 0.0
C124 C 0.34517 0.06487 0.28768 0.0
C125 C 0.35099 0.04705 0.3071 0.0
C126 C 0.33971 0.02257 0.29858 0.0
N127 N 0.33434 0.99781 0.22526 0.0
C128 C 0.37067 0.01081 0.18454 0.0
C129 C 0.37891 0.01107 0.21143 0.0
C130 C 0.36059 1.0039 0.23143 0.0
C131 C 0.34443 1.00228 0.1784 0.0
C132 C 0.32663 0.99618 0.19889 0.0
N133 N 0.27845 0.99661 0.28021 0.0
C134 C 0.24702 0.02188 0.30571 0.0
C135 C 0.23315 0.99848 0.31293 0.0
C136 C 0.24313 0.97394 0.3042 0.0
C137 C 0.26596 0.97344 0.28807 0.0
C138 C 0.26942 0.02053 0.28944 0.0
H139 H 0.27305 0.95438 0.28133 0.0
H140 H 0.27882 0.03906 0.28354 0.0
H141 H 0.36737 0.00457 0.25197 0.0
H142 H 0.30618 0.99166 0.19323 0.0
C143 C 0.31353 0.93273 0.24453 0.0
C144 C 0.34234 0.99742 0.31256 0.0
C145 C 0.25069 0.99485 0.21125 0.0
C146 C 0.31592 0.06065 0.24739 0.0
H147 H 0.36214 0.94498 0.32114 0.0
H148 H 0.34835 0.90966 0.2823 0.0
H149 H 0.27353 0.90601 0.21143 0.0
H150 H 0.23701 0.93937 0.19651 0.0
H151 H 0.24305 0.04828 0.19256 0.0
H152 H 0.27994 0.08399 0.21048 0.0
H153 H 0.34987 0.08613 0.2882 0.0
H154 H 0.36216 0.05153 0.32537 0.0
H155 H 0.39919 0.01726 0.217 0.0
H156 H 0.33718 1.00187 0.15793 0.0
H157 H 0.24005 0.04131 0.31169 0.0
H158 H 0.2333 0.95529 0.30962 0.0
C159 C 0.68049 0.48295 0.23078 0.0
C160 C 0.66407 0.46106 0.22322 0.0
C161 C 0.66738 0.44228 0.24223 0.0
C162 C 0.6855 0.45376 0.26027 0.0
N163 N 0.69376 0.47853 0.25373 0.0
Co164 Co 0.71931 0.50238 0.27422 0.0
N165 N 0.73413 0.47189 0.29287 0.0
C166 C 0.72243 0.44736 0.29458 0.0
C167 C 0.7384 0.42978 0.30692 0.0
C168 C 0.76138 0.44423 0.31361 0.0
C169 C 0.75796 0.47015 0.30545 0.0
N170 N 0.74459 0.5262 0.29493 0.0
C171 C 0.76693 0.52024 0.30855 0.0
C172 C 0.77828 0.54301 0.32121 0.0
C173 C 0.76243 0.56377 0.31508 0.0
C174 C 0.74223 0.55261 0.29919 0.0
N175 N 0.70433 0.53262 0.25525 0.0
C176 C 0.70624 0.55843 0.26329 0.0
C177 C 0.69424 0.57478 0.24558 0.0
C178 C 0.68413 0.55808 0.2253 0.0
C179 C 0.69053 0.53243 0.23182 0.0
N180 N 0.69295 0.50666 0.30285 0.0
C181 C 0.6569 0.51792 0.34453 0.0
C182 C 0.64964 0.52005 0.31741 0.0
C183 C 0.66759 0.51381 0.29707 0.0
C184 C 0.68274 0.5095 0.34996 0.0
C185 C 0.70041 0.50435 0.32904 0.0
N186 N 0.74608 0.49874 0.24613 0.0
C187 C 0.78136 0.51915 0.22032 0.0
C188 C 0.78955 0.49407 0.21154 0.0
C189 C 0.77461 0.47138 0.21937 0.0
C190 C 0.75278 0.47417 0.23643 0.0
C191 C 0.75975 0.52104 0.23764 0.0
H192 H 0.74189 0.45642 0.24252 0.0
H193 H 0.7548 0.5406 0.24496 0.0
H194 H 0.66112 0.51545 0.2766 0.0
H195 H 0.72033 0.49885 0.33419 0.0
C196 C 0.69918 0.44031 0.27991 0.0
C197 C 0.68215 0.50802 0.21654 0.0
C198 C 0.77655 0.49306 0.31153 0.0
C199 C 0.72355 0.56659 0.28448 0.0
H200 H 0.65117 0.45889 0.20578 0.0
H201 H 0.65864 0.4222 0.24214 0.0
H202 H 0.73446 0.40864 0.30945 0.0
H203 H 0.77861 0.4363 0.32322 0.0
H204 H 0.79599 0.54447 0.33375 0.0
H205 H 0.76578 0.58461 0.32082 0.0
H206 H 0.69391 0.59634 0.24661 0.0
H207 H 0.67333 0.56407 0.2078 0.0
H208 H 0.63037 0.52699 0.31156 0.0
H209 H 0.68955 0.50676 0.37021 0.0
H210 H 0.79237 0.53718 0.21492 0.0
H211 H 0.78003 0.45159 0.21272 0.0
C212 C 0.30911 0.35303 0.98594 0.0
C213 C 0.31785 0.36563 0.9631 0.0
C214 C 0.2995 0.35883 0.94334 0.0
C215 C 0.28062 0.34262 0.95523 0.0
N216 N 0.28598 0.33886 0.98119 0.0
Co217 Co 0.26387 0.31748 0.00591 0.0
N218 N 0.24604 0.29716 0.97578 0.0
C219 C 0.24565 0.30445 0.95008 0.0
C220 C 0.23308 0.28568 0.9334 0.0
C221 C 0.22478 0.26554 0.94964 0.0
C222 C 0.23235 0.27337 0.97559 0.0
N223 N 0.24162 0.29625 0.0306 0.0
C224 C 0.22735 0.27303 0.02599 0.0
C225 C 0.21384 0.26552 0.04887 0.0
C226 C 0.21995 0.28481 0.06828 0.0
C227 C 0.23673 0.30307 0.05626 0.0
N228 N 0.28209 0.33809 0.03571 0.0
C229 C 0.27313 0.34053 0.06088 0.0
C230 C 0.29069 0.35523 0.07726 0.0
C231 C 0.31187 0.36246 0.06128 0.0
C232 C 0.306 0.35182 0.03594 0.0
N233 N 0.23582 0.34389 0.005 0.0
C234 C 0.19463 0.38061 0.01 0.0
C235 C 0.1889 0.35343 0.00423 0.0
C236 C 0.20959 0.33553 1.00202 0.0
C237 C 0.22176 0.3889 0.01254 0.0
C238 C 0.2419 0.37043 0.00956 0.0
N239 N 0.29128 0.29072 0.00764 0.0
C240 C 0.31627 0.26121 0.03452 0.0
C241 C 0.32622 0.24863 0.01162 0.0
C242 C 0.3189 0.25808 0.98656 0.0
C243 C 0.30166 0.27939 0.98502 0.0
C244 C 0.29877 0.28194 0.03211 0.0
H245 H 0.29625 0.28631 0.96558 0.0
H246 H 0.29075 0.29035 0.05022 0.0
H247 H 0.20417 0.31474 0.99841 0.0
H248 H 0.26242 0.37755 0.01171 0.0
C249 C 0.2612 0.32644 0.9418 0.0
C250 C 0.32251 0.35586 0.01204 0.0
C251 C 0.22427 0.25908 0.9997 0.0
C252 C 0.25138 0.32431 0.06917 0.0
H253 H 0.33566 0.37827 0.96096 0.0
H254 H 0.30056 0.36398 0.92252 0.0
H255 H 0.23121 0.28601 0.91185 0.0
H256 H 0.2143 0.24727 0.94298 0.0
H257 H 0.20069 0.24813 0.05122 0.0
H258 H 0.21353 0.28504 0.08889 0.0
H259 H 0.28903 0.35905 0.09856 0.0
H260 H 0.32958 0.37401 0.06764 0.0
H261 H 0.16856 0.3458 1.00136 0.0
H262 H 0.22768 0.40944 0.01741 0.0
H263 H 0.32121 0.25444 0.05425 0.0
H264 H 0.32641 0.24906 0.96833 0.0
C265 C 0.21765 0.66974 0.47499 0.0
C266 C 0.21316 0.6567 0.45039 0.0
C267 C 0.23314 0.66536 0.4338 0.0
C268 C 0.2487 0.68315 0.44908 0.0
N269 N 0.23965 0.68622 0.47419 0.0
Co270 Co 0.25593 0.70994 0.5026 0.0
N271 N 0.27526 0.73168 0.47605 0.0
C272 C 0.28073 0.72399 0.45076 0.0
C273 C 0.29426 0.74351 0.43704 0.0
C274 C 0.2976 0.76468 0.45491 0.0
C275 C 0.28597 0.75676 0.47866 0.0
N276 N 0.27217 0.73376 0.5309 0.0
C277 C 0.28318 0.75871 0.529 0.0
C278 C 0.29248 0.76834 0.55376 0.0
C279 C 0.28703 0.74852 0.57162 0.0
C280 C 0.27479 0.72792 0.55682 0.0
N281 N 0.23662 0.68783 0.52889 0.0
C282 C 0.24291 0.6865 0.55499 0.0
C283 C 0.22581 0.66945 0.56823 0.0
C284 C 0.20786 0.65944 0.54918 0.0
C285 C 0.21501 0.67094 0.52525 0.0
N286 N 0.2867 0.68697 0.50525 0.0
C287 C 0.32954 0.65686 0.52206 0.0
C288 C 0.3334 0.68387 0.51626 0.0
C289 C 0.31184 0.69848 0.50789 0.0
C290 C 0.30414 0.64476 0.51713 0.0
C291 C 0.2831 0.66008 0.50844 0.0
N292 N 0.22569 0.73332 0.50111 0.0
C293 C 0.19482 0.76016 0.52543 0.0
C294 C 0.18713 0.77218 0.50194 0.0
C295 C 0.19846 0.76368 0.47772 0.0
C296 C 0.21751 0.7439 0.4777 0.0
C297 C 0.21411 0.74101 0.52461 0.0
H298 H 0.22622 0.73776 0.45895 0.0
H299 H 0.22038 0.73324 0.54334 0.0
H300 H 0.31531 0.71956 0.50521 0.0
H301 H 0.26358 0.65046 0.50573 0.0
C302 C 0.26851 0.70072 0.43939 0.0
C303 C 0.20211 0.6643 0.49916 0.0
C304 C 0.28681 0.77265 0.50375 0.0
C305 C 0.26144 0.70517 0.56689 0.0
H306 H 0.19721 0.64232 0.44501 0.0
H307 H 0.23536 0.66016 0.41281 0.0
H308 H 0.29993 0.74294 0.41621 0.0
H309 H 0.30746 0.78368 0.45085 0.0
H310 H 0.30229 0.78755 0.55836 0.0
H311 H 0.29066 0.74948 0.59298 0.0
H312 H 0.22561 0.66564 0.58941 0.0
H313 H 0.19141 0.64533 0.55252 0.0
H314 H 0.35258 0.69414 0.51968 0.0
H315 H 0.30034 0.62377 0.52066 0.0
H316 H 0.18683 0.76632 0.5446 0.0
H317 H 0.19282 0.77237 0.45905 0.0
C318 C 0.78913 0.8263 0.46554 0.0
C319 C 0.79471 0.83598 0.4404 0.0
C320 C 0.77687 0.82328 0.42295 0.0
C321 C 0.76141 0.80666 0.43833 0.0
N322 N 0.76834 0.80815 0.46437 0.0
Co323 Co 0.75154 0.78728 0.49329 0.0
N324 N 0.73586 0.76026 0.46729 0.0
C325 C 0.73339 0.76324 0.44072 0.0
C326 C 0.72327 0.7407 0.4275 0.0
C327 C 0.71864 0.72256 0.44698 0.0
C328 C 0.72578 0.73525 0.47122 0.0
N329 N 0.73493 0.76641 0.52236 0.0
C330 C 0.72367 0.74131 0.52181 0.0
C331 C 0.71315 0.73531 0.54664 0.0
C332 C 0.71783 0.75743 0.56303 0.0
C333 C 0.73082 0.77577 0.54743 0.0
N334 N 0.76742 0.8146 0.51879 0.0
C335 C 0.75959 0.81898 0.54412 0.0
C336 C 0.7748 0.83878 0.55717 0.0
C337 C 0.79327 0.84735 0.53883 0.0
C338 C 0.78826 0.83232 0.51549 0.0
N339 N 0.71863 0.80768 0.49099 0.0
C340 C 0.66996 0.83463 0.49564 0.0
C341 C 0.69466 0.84878 0.4925 0.0
C342 C 0.71871 0.83497 0.49043 0.0
C343 C 0.67076 0.80667 0.49575 0.0
C344 C 0.69469 0.79387 0.49267 0.0
N345 N 0.78351 0.76616 0.49649 0.0
C346 C 0.81223 0.74214 0.52535 0.0
C347 C 0.82091 0.72668 0.50362 0.0
C348 C 0.81191 0.73279 0.47795 0.0
C349 C 0.79351 0.75284 0.47479 0.0
C350 C 0.79358 0.76165 0.52138 0.0
H351 H 0.7864 0.75664 0.45492 0.0
H352 H 0.78622 0.77201 0.53878 0.0
H353 H 0.73738 0.84634 0.4889 0.0
H354 H 0.69365 0.77247 0.49285 0.0
C355 C 0.74463 0.78568 0.42851 0.0
C356 C 0.80276 0.83601 0.49022 0.0
C357 C 0.71931 0.72426 0.49747 0.0
C358 C 0.74198 0.80064 0.5562 0.0
H359 H 0.81014 0.85058 0.43519 0.0
H360 H 0.77626 0.82492 0.40144 0.0
H361 H 0.7204 0.73752 0.40617 0.0
H362 H 0.71034 0.70248 0.44373 0.0
H363 H 0.70247 0.71717 0.5522 0.0
H364 H 0.7126 0.75973 0.58389 0.0
H365 H 0.77359 0.84524 0.57794 0.0
H366 H 0.80878 0.8627 0.54236 0.0
H367 H 0.69566 0.87032 0.49185 0.0
H368 H 0.6532 0.79411 0.49909 0.0
H369 H 0.81863 0.73822 0.54553 0.0
H370 H 0.81858 0.72176 0.46048 0.0
C371 C 0.47988 0.81349 0.84557 0.0
C372 C 0.45622 0.82161 0.85684 0.0
C373 C 0.43725 0.80188 0.85068 0.0
C374 C 0.45037 0.78287 0.83614 0.0
N375 N 0.47638 0.7894 0.83284 0.0
Co376 Co 0.50256 0.76779 0.81328 0.0
N377 N 0.47382 0.74722 0.7933 0.0
C378 C 0.44775 0.7461 0.79973 0.0
C379 C 0.43221 0.73201 0.78114 0.0
C380 C 0.4496 0.7234 0.76207 0.0
C381 C 0.47505 0.73227 0.77037 0.0
N382 N 0.52878 0.746 0.79403 0.0
C383 C 0.52556 0.7297 0.77201 0.0
C384 C 0.5491 0.71701 0.76635 0.0
C385 C 0.56747 0.72574 0.78547 0.0
C386 C 0.55425 0.74312 0.80186 0.0
N387 N 0.53096 0.78891 0.83327 0.0
C388 C 0.55626 0.78174 0.83681 0.0
C389 C 0.57147 0.80088 0.85086 0.0
C390 C 0.55458 0.82125 0.8565 0.0
C391 C 0.52992 0.81334 0.8456 0.0
N392 N 0.50143 0.74109 0.84146 0.0
C393 C 0.51038 0.70154 0.87887 0.0
C394 C 0.51155 0.72871 0.88659 0.0
C395 C 0.50649 0.74815 0.8677 0.0
C396 C 0.50303 0.69464 0.8525 0.0
C397 C 0.49889 0.71456 0.83419 0.0
N398 N 0.50453 0.79361 0.78471 0.0
C399 C 0.53146 0.81613 0.75199 0.0
C400 C 0.50858 0.82318 0.73815 0.0
C401 C 0.48355 0.81636 0.74897 0.0
C402 C 0.48196 0.80181 0.77243 0.0
C403 C 0.52901 0.80138 0.77509 0.0
H404 H 0.46251 0.79635 0.78007 0.0
H405 H 0.54707 0.79527 0.78449 0.0
H406 H 0.50789 0.76892 0.87406 0.0
H407 H 0.49506 0.70825 0.81374 0.0
C408 C 0.43814 0.76219 0.82057 0.0
C409 C 0.50547 0.82852 0.84822 0.0
C410 C 0.49999 0.72385 0.75775 0.0
C411 C 0.56581 0.75972 0.82231 0.0
H412 H 0.453 0.83994 0.8681 0.0
H413 H 0.41613 0.80213 0.85501 0.0
H414 H 0.41068 0.72926 0.78085 0.0
H415 H 0.44404 0.71174 0.74423 0.0
H416 H 0.55257 0.70258 0.75039 0.0
H417 H 0.58815 0.72045 0.78687 0.0
H418 H 0.59262 0.80068 0.85534 0.0
H419 H 0.55984 0.83974 0.86727 0.0
H420 H 0.51685 0.7349 0.90692 0.0
H421 H 0.50202 0.67395 0.84558 0.0
H422 H 0.5512 0.82088 0.74438 0.0
H423 H 0.46531 0.82189 0.73919 0.0
C424 C 0.55562 0.30612 0.68363 0.0
C425 C 0.57876 0.3155 0.67131 0.0
C426 C 0.59844 0.29856 0.67773 0.0
C427 C 0.58631 0.27981 0.69349 0.0
N428 N 0.56024 0.2839 0.69742 0.0
Co429 Co 0.53549 0.2614 0.71873 0.0
N430 N 0.56553 0.24575 0.73812 0.0
C431 C 0.59127 0.24653 0.73059 0.0
C432 C 0.60785 0.2355 0.74878 0.0
C433 C 0.59148 0.22696 0.76885 0.0
C434 C 0.56561 0.23286 0.76154 0.0
N435 N 0.51079 0.23863 0.73978 0.0
C436 C 0.51534 0.22517 0.76237 0.0
C437 C 0.49254 0.21058 0.76963 0.0
C438 C 0.47323 0.21516 0.75089 0.0
C439 C 0.48523 0.23213 0.73316 0.0
N440 N 0.50569 0.27755 0.69944 0.0
C441 C 0.48052 0.26732 0.6974 0.0
C442 C 0.46414 0.28311 0.68313 0.0
C443 C 0.48011 0.30446 0.67562 0.0
C444 C 0.5055 0.30046 0.68564 0.0
N445 N 0.53606 0.23241 0.69133 0.0
C446 C 0.52165 0.1892 0.65663 0.0
C447 C 0.52101 0.21549 0.64795 0.0
C448 C 0.52898 0.2368 0.6654 0.0
C449 C 0.53195 0.18493 0.68211 0.0
C450 C 0.53886 0.20672 0.69916 0.0
N451 N 0.53382 0.28962 0.74636 0.0
C452 C 0.50701 0.31301 0.77826 0.0
C453 C 0.52972 0.32612 0.78955 0.0
C454 C 0.55465 0.321 0.77817 0.0
C455 C 0.55626 0.30267 0.75655 0.0
C456 C 0.50945 0.29516 0.75675 0.0
H457 H 0.57561 0.29866 0.74839 0.0
H458 H 0.49149 0.28523 0.74906 0.0
H459 H 0.52765 0.25687 0.65846 0.0
H460 H 0.54456 0.20257 0.71935 0.0
C461 C 0.59962 0.26176 0.70903 0.0
C462 C 0.52935 0.3176 0.68008 0.0
C463 C 0.54148 0.22386 0.77586 0.0
C464 C 0.47231 0.24558 0.71283 0.0
H465 H 0.58122 0.33275 0.65895 0.0
H466 H 0.61934 0.30046 0.67256 0.0
H467 H 0.62939 0.2348 0.74814 0.0
H468 H 0.598 0.2174 0.78671 0.0
H469 H 0.49017 0.19769 0.78648 0.0
H470 H 0.4527 0.20761 0.75068 0.0
H471 H 0.44292 0.28007 0.6795 0.0
H472 H 0.4738 0.32099 0.66402 0.0
H473 H 0.51359 0.21957 0.62816 0.0
H474 H 0.53284 0.16491 0.68953 0.0
H475 H 0.48735 0.31573 0.78649 0.0
H476 H 0.57278 0.3309 0.78594 0.0
C477 C 0.8347 0.46873 0.7967 0.0
C478 C 0.84749 0.446 0.80423 0.0
C479 C 0.84132 0.42655 0.78517 0.0
C480 C 0.82516 0.43835 0.76712 0.0
N481 N 0.82064 0.46399 0.7737 0.0
Co482 Co 0.79855 0.48812 0.75298 0.0
N483 N 0.78014 0.45763 0.7334 0.0
C484 C 0.78867 0.43254 0.73139 0.0
C485 C 0.77084 0.41531 0.71817 0.0
C486 C 0.74992 0.43054 0.71127 0.0
C487 C 0.75638 0.45649 0.72028 0.0
N488 N 0.7765 0.51213 0.73226 0.0
C489 C 0.75351 0.50665 0.71842 0.0
C490 C 0.74501 0.52934 0.70615 0.0
C491 C 0.76337 0.54958 0.71274 0.0
C492 C 0.78209 0.53819 0.72851 0.0
N493 N 0.81716 0.51845 0.77263 0.0
C494 C 0.81841 0.54392 0.76482 0.0
C495 C 0.83289 0.56057 0.78228 0.0
C496 C 0.84142 0.54449 0.80212 0.0
C497 C 0.83171 0.51879 0.79565 0.0
N498 N 0.82576 0.49 0.72485 0.0
C499 C 0.86298 0.50098 0.68405 0.0
C500 C 0.83643 0.49284 0.67797 0.0
C501 C 0.81823 0.48776 0.69849 0.0
C502 C 0.87046 0.50241 0.71129 0.0
C503 C 0.85185 0.49632 0.73116 0.0
N504 N 0.771 0.48705 0.78048 0.0
C505 C 0.73867 0.51071 0.80632 0.0
C506 C 0.7263 0.48663 0.81365 0.0
C507 C 0.73747 0.46268 0.8051 0.0
C508 C 0.76014 0.46334 0.78887 0.0
C509 C 0.76076 0.51049 0.78958 0.0
H510 H 0.76828 0.44469 0.78232 0.0
H511 H 0.76883 0.5294 0.78313 0.0
H512 H 0.7978 0.48271 0.69292 0.0
H513 H 0.8584 0.49774 0.75175 0.0
C514 C 0.8103 0.42493 0.74679 0.0
C515 C 0.83858 0.49494 0.81042 0.0
C516 C 0.74059 0.47987 0.71483 0.0
C517 C 0.80231 0.55187 0.74361 0.0
H518 H 0.86019 0.44376 0.82154 0.0
H519 H 0.84711 0.40599 0.78506 0.0
H520 H 0.77212 0.39393 0.71528 0.0
H521 H 0.73194 0.42312 0.70105 0.0
H522 H 0.72753 0.53105 0.69359 0.0
H523 H 0.7626 0.57029 0.70742 0.0
H524 H 0.83612 0.58197 0.78123 0.0
H525 H 0.85362 0.55089 0.81924 0.0
H526 H 0.82944 0.4905 0.65751 0.0
H527 H 0.89039 0.50891 0.71764 0.0
H528 H 0.73053 0.52962 0.81241 0.0
H529 H 0.72854 0.44363 0.81062 0.0
C530 C 0.18566 0.06253 0.7929 0.0
C531 C 0.17934 0.08829 0.80086 0.0
C532 C 0.18947 0.10498 0.782 0.0
C533 C 0.2018 0.08872 0.76383 0.0
N534 N 0.20013 0.06279 0.7701 0.0
Co535 Co 0.21728 0.03311 0.75056 0.0
N536 N 0.24219 0.05819 0.73215 0.0
C537 C 0.23954 0.08469 0.73032 0.0
C538 C 0.26059 0.0972 0.71784 0.0
C539 C 0.27739 0.07732 0.71106 0.0
C540 C 0.26538 0.05357 0.71942 0.0
N541 N 0.23438 1.00342 0.73098 0.0
C542 C 0.25757 1.00326 0.71711 0.0
C543 C 0.26116 0.97823 0.70541 0.0
C544 C 0.2394 0.96238 0.71209 0.0
C545 C 0.22368 0.97852 0.7274 0.0
N546 N 0.19233 0.00839 0.76931 0.0
C547 C 0.18599 0.98302 0.76155 0.0
C548 C 0.16816 0.97077 0.77845 0.0
C549 C 0.16295 0.9897 0.79795 0.0
C550 C 0.178 0.0125 0.79191 0.0
N551 N 0.1915 0.03481 0.72079 0.0
C552 C 0.15667 0.02149 0.67788 0.0
C553 C 0.14668 0.02627 0.70362 0.0
C554 C 0.16449 0.03309 0.72488 0.0
C555 C 0.18394 0.02624 0.67368 0.0
C556 C 0.20087 0.03308 0.6952 0.0
N557 N 0.24337 0.03024 0.77951 0.0
C558 C 0.27019 1.00146 0.80531 0.0
C559 C 0.28723 0.02304 0.81312 0.0
C560 C 0.28087 0.04865 0.80513 0.0
C561 C 0.25863 0.05186 0.78856 0.0
C562 C 0.24852 0.00546 0.78852 0.0
H563 H 0.25447 0.07161 0.78216 0.0
H564 H 0.23678 0.98812 0.78176 0.0
H565 H 0.15661 0.0352 0.74482 0.0
H566 H 0.22189 0.03484 0.69116 0.0
C567 C 0.21985 0.09761 0.74466 0.0
C568 C 0.17659 0.03827 0.80667 0.0
C569 C 0.27497 0.02698 0.71218 0.0
C570 C 0.20073 0.97035 0.74143 0.0
H571 H 0.16891 0.09464 0.81863 0.0
H572 H 0.18937 0.12656 0.78248 0.0
H573 H 0.26391 0.11838 0.71502 0.0
H574 H 0.29618 0.08005 0.7008 0.0
H575 H 0.27752 0.97218 0.69292 0.0
H576 H 0.23576 0.94147 0.70681 0.0
H577 H 0.16065 0.95024 0.77737 0.0
H578 H 0.14954 0.98709 0.8146 0.0
H579 H 0.1256 0.02309 0.70762 0.0
H580 H 0.1924 0.02325 0.65401 0.0
H581 H 0.27435 0.98134 0.81092 0.0
H582 H 0.29328 0.06597 0.81118 0.0
C583 C 0.73285 0.18747 0.97585 0.0
C584 C 0.72636 0.1759 0.95101 0.0
C585 C 0.74644 0.1836 0.93399 0.0
C586 C 0.764 0.19934 0.94937 0.0
N587 N 0.75611 0.20195 0.9749 0.0
Co588 Co 0.77528 0.22258 1.00381 0.0
N589 N 0.79489 0.24453 0.97778 0.0
C590 C 0.79901 0.23774 0.95197 0.0
C591 C 0.81412 0.2567 0.93902 0.0
C592 C 0.81987 0.27651 0.95796 0.0
C593 C 0.80776 0.26853 0.98147 0.0
N594 N 0.79473 0.24313 0.03265 0.0
C595 C 0.80719 0.26757 0.03192 0.0
C596 C 0.81704 0.27529 0.05711 0.0
C597 C 0.811 0.25459 0.07375 0.0
C598 C 0.79757 0.23548 0.05803 0.0
N599 N 0.75532 0.20036 0.02955 0.0
C600 C 0.76225 0.19688 0.05517 0.0
C601 C 0.74384 0.18094 0.06815 0.0
C602 C 0.7243 0.17403 0.04941 0.0
C603 C 0.73191 0.18615 0.02598 0.0
N604 N 0.80403 0.197 1.00308 0.0
C605 C 0.84558 0.161 0.00725 0.0
C606 C 0.81863 0.15196 0.00581 0.0
C607 C 0.7983 0.17016 1.00347 0.0
C608 C 0.85106 0.18857 0.00607 0.0
C609 C 0.83015 0.20611 1.00411 0.0
N610 N 0.74704 0.2484 0.00534 0.0
C611 C 0.7205 0.27733 0.03245 0.0
C612 C 0.71014 0.28904 0.00972 0.0
C613 C 0.71837 0.27934 0.98452 0.0
C614 C 0.73692 0.2591 0.98279 0.0
C615 C 0.73843 0.25699 0.02983 0.0
H616 H 0.74343 0.25237 0.96329 0.0
H617 H 0.74592 0.24875 0.04787 0.0
H618 H 0.77786 0.16255 1.00255 0.0
H619 H 0.83521 0.22718 1.00384 0.0
C620 C 0.78478 0.21592 0.9398 0.0
C621 C 0.71751 0.18318 1.00025 0.0
C622 C 0.81074 0.28295 0.00737 0.0
C623 C 0.78264 0.21326 0.06727 0.0
H624 H 0.70899 0.16326 0.9458 0.0
H625 H 0.74743 0.17925 0.91271 0.0
H626 H 0.81956 0.25662 0.91813 0.0
H627 H 0.83184 0.29455 0.95488 0.0
H628 H 0.8272 0.29395 0.06308 0.0
H629 H 0.81464 0.25424 0.09508 0.0
H630 H 0.74383 0.17607 0.08908 0.0
H631 H 0.70649 0.16171 0.05269 0.0
H632 H 0.81306 0.13097 0.00697 0.0
H633 H 0.87139 0.1967 0.00649 0.0
H634 H 0.71552 0.28424 0.05241 0.0
H635 H 0.7107 0.28731 0.96626 0.0
Zn636 Zn 0.09711 0.08876 0.07653 0.0
Zn637 Zn 0.05083 0.02361 0.0125 0.0
Zn638 Zn 0.07142 0.05892 0.04434 0.0
C639 C 0.09013 0.04643 0.9824 0.0
C640 C 0.06078 0.99504 0.05675 0.0
O641 O 0.04204 0.08692 0.06255 0.0
O642 O 0.06941 0.11247 0.08804 0.0
C643 C 0.12118 0.09856 0.02883 0.0
O644 O 0.08994 0.06241 1.00318 0.0
O645 O 0.07578 0.02521 0.98191 0.0
O646 O 0.04927 0.99151 0.03437 0.0
O647 O 0.07205 0.01813 0.06287 0.0
O648 O 0.12469 0.10379 0.05339 0.0
O649 O 0.10186 0.08234 0.02095 0.0
O650 O 0.09283 0.035 0.07512 0.0
O651 O 0.11002 0.06562 0.10364 0.0
C652 C 0.10663 0.04148 0.09649 0.0
O653 O 0.02895 0.0706 0.04234 0.0
O654 O 0.01653 0.04231 0.00959 0.0
C655 C 0.04621 0.10669 0.07937 0.0
C656 C 0.01103 0.06132 0.02552 0.0
Zn657 Zn 0.99162 0.51788 0.00738 0.0
Zn658 Zn 0.92069 0.42391 0.08322 0.0
Zn659 Zn 0.96674 0.48716 0.03362 0.0
C660 C 0.93369 0.48699 0.08196 0.0
C661 C 0.92373 0.44614 0.02371 0.0
O662 O 0.00936 0.47305 0.03487 0.0
O663 O 0.02796 0.50426 0.01037 0.0
C664 C 0.97041 0.5493 0.04876 0.0
O665 O 0.94598 0.50517 0.06878 0.0
O666 O 0.93466 0.46312 0.07252 0.0
O667 O 0.93048 0.4462 0.04841 0.0
O668 O 0.93542 0.46389 0.00955 0.0
O669 O 0.98431 0.55094 0.02791 0.0
O670 O 0.96084 0.5263 0.05568 0.0
O671 O 0.94689 0.48322 0.99266 0.0
O672 O 0.97332 0.51227 0.97251 0.0
C673 C 0.95367 0.49574 0.97142 0.0
O674 O 0.99309 0.45787 0.05176 0.0
O675 O 0.95457 0.44201 0.06459 0.0
C676 C 0.0303 0.48354 0.02377 0.0
C677 C 0.97991 0.44058 0.06526 0.0
Zn678 Zn 1.00376 0.99145 0.48468 0.0
Zn679 Zn 0.05368 0.92912 0.43099 0.0
Zn680 Zn 0.0303 0.9573 0.45825 0.0
C681 C 0.08137 0.926 0.47543 0.0
C682 C 0.0075 0.90243 0.43148 0.0
O683 O 0.03697 0.99692 0.43948 0.0
O684 O 0.00657 0.02126 0.45921 0.0
C685 C 0.04464 0.97512 0.51918 0.0
O686 O 0.0593 0.93591 0.48339 0.0
O687 O 0.08721 0.92678 0.45105 0.0
O688 O 0.03147 0.89599 0.43063 0.0
O689 O 1.00198 0.92623 0.43958 0.0
O690 O 0.02757 0.99286 0.51714 0.0
O691 O 0.04749 0.95806 0.49967 0.0
O692 O 0.98674 0.94256 0.45715 0.0
O693 O 0.96911 0.97102 0.48573 0.0
C694 C 0.96648 0.95044 0.47065 0.0
O695 O 0.05465 0.97856 0.42636 0.0
O696 O 0.05862 0.94613 0.39635 0.0
C697 C 0.02429 0.01876 0.44165 0.0
C698 C 0.06344 0.97015 0.40346 0.0
Zn699 Zn 0.95107 0.56956 0.43131 0.0
Zn700 Zn 1.0023 0.50804 0.48312 0.0
Zn701 Zn 0.97666 0.5423 0.45851 0.0
C702 C 0.98341 0.47868 0.44014 0.0
C703 C 0.04012 0.54852 0.46973 0.0
O704 O 0.94672 0.56224 0.4852 0.0
O705 O 0.91961 0.57458 0.45351 0.0
C706 C 0.94224 0.52541 0.40421 0.0
O707 O 0.97335 0.50174 0.43686 0.0
O708 O 0.99741 0.4751 0.46067 0.0
O709 O 0.03774 0.52683 0.48184 0.0
O710 O 0.01943 0.55796 0.45842 0.0
O711 O 0.94317 0.54949 0.39777 0.0
O712 O 0.95334 0.51883 0.42637 0.0
O713 O 1.00419 0.57342 0.44095 0.0
O714 O 0.97421 0.6015 0.42823 0.0
C715 C 0.99829 0.59593 0.43107 0.0
O716 O 0.96092 0.54346 0.50066 0.0
O717 O 0.98343 0.51079 0.51743 0.0
C718 C 0.92487 0.57298 0.47803 0.0
C719 C 0.96654 0.52863 0.52042 0.0
Zn720 Zn 0.42415 0.93497 0.5744 0.0
Zn721 Zn 0.48557 0.98873 0.51425 0.0
Zn722 Zn 0.45114 0.96104 0.54476 0.0
C723 C 0.43793 0.9744 0.48337 0.0
C724 C 0.47084 0.02192 0.55839 0.0
O725 O 0.47547 0.92957 0.56379 0.0
O726 O 0.44405 0.90297 0.58008 0.0
C727 C 0.39518 0.93118 0.52879 0.0
O728 O 0.43187 0.96133 0.50448 0.0
O729 O 0.45971 0.98808 0.48274 0.0
O730 O 0.48768 0.02029 0.53981 0.0
O731 O 0.45395 1.00239 0.56235 0.0
O732 O 0.39132 0.92888 0.55343 0.0
O733 O 0.41733 0.94192 0.52054 0.0
O734 O 0.43368 0.98761 0.57698 0.0
O735 O 0.42059 0.95806 0.60633 0.0
C736 C 0.4231 0.98205 0.59976 0.0
O737 O 0.49076 0.9412 0.5428 0.0
O738 O 0.516 0.96401 0.51467 0.0
C739 C 0.46845 0.9082 0.57621 0.0
C740 C 0.51281 0.94444 0.5298 0.0
Zn741 Zn 0.51567 0.52269 0.54675 0.0
Zn742 Zn 0.58438 0.57464 0.60294 0.0
Zn743 Zn 0.55118 0.54844 0.57474 0.0
C744 C 0.58483 0.525 0.62355 0.0
C745 C 0.60503 0.57879 0.55321 0.0
O746 O 0.5117 0.56787 0.58038 0.0
O747 O 0.4839 0.54342 0.55431 0.0
C748 C 0.53529 0.48486 0.58043 0.0
O749 O 0.57032 0.52041 0.60235 0.0
O750 O 0.59168 0.54866 0.63044 0.0
O751 O 0.61296 0.58181 0.5771 0.0
O752 O 0.58189 0.5674 0.54809 0.0
O753 O 0.51787 0.48733 0.56244 0.0
O754 O 0.55024 0.50535 0.58797 0.0
O755 O 0.56446 0.55095 0.53178 0.0
O756 O 0.53196 0.52724 0.51135 0.0
C757 C 0.55369 0.5407 0.51011 0.0
O758 O 0.53043 0.58038 0.59858 0.0
O759 O 0.56424 0.60563 0.61467 0.0
C760 C 0.48818 0.56309 0.5702 0.0
C761 C 0.53942 0.60134 0.61196 0.0
Zn762 Zn 0.52429 0.50707 0.02409 0.0
Zn763 Zn 0.60608 0.42782 0.93599 0.0
Zn764 Zn 0.5536 0.47986 0.99202 0.0
C765 C 0.60054 0.44589 0.99811 0.0
C766 C 0.54548 0.43281 0.9557 0.0
O767 O 0.55501 0.51946 0.97402 0.0
O768 O 0.52464 0.53861 0.99921 0.0
C769 C 0.57195 0.49313 0.05242 0.0
O770 O 0.58625 0.46037 0.01337 0.0
O771 O 0.59532 0.44659 0.97309 0.0
O772 O 0.57054 0.43843 0.95651 0.0
O773 O 0.5309 0.4469 0.97106 0.0
O774 O 0.55148 0.50703 0.05502 0.0
O775 O 0.5755 0.47992 0.03035 0.0
O776 O 0.51426 0.45776 0.9913 0.0
O777 O 0.49269 0.48019 0.0224 0.0
C778 C 0.49333 0.46069 0.00576 0.0
O779 O 0.57117 0.50212 0.9581 0.0
O780 O 0.58821 0.46327 0.9511 0.0
C781 C 0.54056 0.53948 0.97968 0.0
C782 C 0.5857 0.48715 0.9436 0.0
Zn783 Zn 0.51451 0.03495 0.98855 0.0
Zn784 Zn 0.4585 0.0928 0.93344 0.0
Zn785 Zn 0.48434 0.06594 0.96018 0.0
C786 C 0.50374 0.11985 0.92956 0.0
C787 C 0.45246 0.0471 0.90625 0.0
O788 O 0.46749 0.06657 1.00147 0.0
O789 O 0.48941 0.03417 0.01978 0.0
C790 C 0.54624 0.08093 0.97486 0.0
O791 O 0.50996 0.09769 0.94019 0.0
O792 O 0.47962 0.12583 0.92861 0.0
O793 O 0.45273 0.07138 0.90056 0.0
O794 O 0.46308 0.04032 0.92852 0.0
O795 O 0.5467 0.06066 0.98932 0.0
O796 O 0.52512 0.08519 0.96095 0.0
O797 O 0.48344 0.02449 0.94061 0.0
O798 O 0.51353 1.0032 0.96332 0.0
C799 C 0.49715 1.0035 0.94401 0.0
O800 O 0.4532 0.08535 0.98605 0.0
O801 O 0.42608 0.09719 0.95417 0.0
C802 C 0.47135 0.05104 0.02113 0.0
C803 C 0.43123 0.09577 0.97872 0.0
H804 H 0.98891 0.13832 0.34717 0.0
H805 H 0.05858 0.18089 0.38213 0.0
H806 H 0.07006 0.14082 0.40574 0.0
H807 H 0.97189 0.10478 0.40842 0.0
H808 H 0.95957 0.0746 0.39128 0.0
H809 H 0.9578 0.10616 0.37525 0.0
H810 H 0.98383 0.08703 0.33497 0.0
H811 H 0.98609 0.05556 0.35113 0.0
H812 H 0.016 0.0732 0.34049 0.0
H813 H 0.07514 0.09579 0.42519 0.0
H814 H 0.06849 0.05162 0.44553 0.0
H815 H 0.9935 0.03932 0.40256 0.0
C816 C 0.00647 0.13944 0.35991 0.0
C817 C 0.02326 0.16291 0.36172 0.0
C818 C 0.0459 0.16311 0.37906 0.0
C819 C 0.05259 0.14037 0.39286 0.0
C820 C 0.03618 0.11747 0.3899 0.0
C821 C 0.01318 0.117 0.37447 0.0
C822 C 0.99792 0.09036 0.37652 0.0
C823 C 0.97016 0.09421 0.38859 0.0
C824 C 0.99584 0.07568 0.34914 0.0
C825 C 0.01595 0.07608 0.39551 0.0
C826 C 0.03823 0.09191 0.4025 0.0
C827 C 0.05779 0.08319 0.41984 0.0
C828 C 0.05405 0.05799 0.43107 0.0
C829 C 0.03085 0.04195 0.4251 0.0
C830 C 0.0117 0.05103 0.40693 0.0
H831 H 0.00806 0.33154 0.38159 0.0
H832 H 0.99274 0.36046 0.30254 0.0
H833 H 0.98333 0.40509 0.32222 0.0
H834 H 0.95646 0.36702 0.41498 0.0
H835 H 0.97567 0.37397 0.44516 0.0
H836 H 0.98183 0.34467 0.42479 0.0
H837 H 0.03171 0.35958 0.42099 0.0
H838 H 0.02579 0.38869 0.44167 0.0
H839 H 0.04043 0.39234 0.40913 0.0
H840 H 0.97569 0.4469 0.35113 0.0
H841 H 0.973 0.48244 0.38614 0.0
H842 H 0.99154 0.42555 0.44648 0.0
C843 C 1.00311 0.34746 0.36851 0.0
C844 C 1.00151 0.34289 0.34056 0.0
C845 C 0.99443 0.36387 0.32397 0.0
C846 C 0.9889 0.38916 0.335 0.0
C847 C 0.99033 0.39307 0.36272 0.0
C848 C 0.99741 0.3728 0.37923 0.0
C849 C 0.99747 0.3821 0.40834 0.0
C850 C 0.97661 0.36598 0.42425 0.0
C851 C 0.02552 0.38059 0.42076 0.0
C852 C 0.98955 0.4108 0.40568 0.0
C853 C 0.98537 0.41675 0.37924 0.0
C854 C 0.97862 0.44231 0.37192 0.0
C855 C 0.9767 0.46237 0.39204 0.0
C856 C 0.98131 0.45682 0.41925 0.0
C857 C 0.98751 0.43049 0.42596 0.0
H858 H 1.0038 0.85479 0.10886 0.0
H859 H 0.03427 0.87968 0.18759 0.0
H860 H 0.05381 0.92068 0.16907 0.0
H861 H 0.06269 0.88034 0.07254 0.0
H862 H 0.04316 0.89057 0.04452 0.0
H863 H 0.03172 0.86262 0.06378 0.0
H864 H 0.98693 0.88533 0.07238 0.0
H865 H 0.99822 0.91329 0.05314 0.0
H866 H 0.98729 0.91861 0.08705 0.0
H867 H 0.06666 0.96125 0.143 0.0
H868 H 0.07377 0.99671 0.11052 0.0
H869 H 0.04016 0.94398 0.04769 0.0
C870 C 0.01483 0.86864 0.12219 0.0
C871 C 0.01675 0.86399 0.14994 0.0
C872 C 0.03148 0.88293 0.16649 0.0
C873 C 0.04303 0.90628 0.1561 0.0
C874 C 0.04033 0.91045 0.12889 0.0
C875 C 0.0269 0.89204 0.11206 0.0
C876 C 0.02682 0.90162 0.08356 0.0
C877 C 0.042 0.88266 0.065 0.0
C878 C 0.99811 0.90491 0.07345 0.0
C879 C 0.04177 0.92845 0.08721 0.0
C880 C 0.04936 0.93317 0.11353 0.0
C881 C 0.06155 0.95744 0.12215 0.0
C882 C 0.06596 0.97746 0.10342 0.0
C883 C 0.05878 0.97303 0.07619 0.0
C884 C 0.04665 0.94797 0.06816 0.0
H885 H 0.98843 0.65444 0.1729 0.0
H886 H 0.98996 0.7153 0.11321 0.0
H887 H 0.98009 0.68079 0.07788 0.0
H888 H 0.02088 0.60396 0.13088 0.0
H889 H 1.00136 0.5764 0.14392 0.0
H890 H 0.00841 0.60591 0.16455 0.0
H891 H 0.95772 0.61033 0.17217 0.0
H892 H 0.95049 0.58119 0.15101 0.0
H893 H 0.93564 0.61234 0.14375 0.0
H894 H 0.96768 0.64113 0.04971 0.0
H895 H 0.9624 0.59687 0.02765 0.0
H896 H 0.9713 0.55936 0.10408 0.0
C897 C 0.98722 0.66025 0.15228 0.0
C898 C 0.99024 0.68743 0.14556 0.0
C899 C 0.98814 0.69453 0.11853 0.0
C900 C 0.98221 0.67512 0.09846 0.0
C901 C 0.97866 0.64859 0.10569 0.0
C902 C 0.98174 0.64091 0.13177 0.0
C903 C 0.97802 0.61069 0.13356 0.0
C904 C 1.0037 0.59852 0.14383 0.0
C905 C 0.95404 0.6032 0.15117 0.0
C906 C 0.97246 0.60269 0.10439 0.0
C907 C 0.9724 0.62512 0.08895 0.0
C908 C 0.96789 0.62341 0.06152 0.0
C909 C 0.96474 0.59812 0.0492 0.0
C910 C 0.9664 0.57462 0.06408 0.0
C911 C 0.96948 0.57693 0.09225 0.0
H912 H 0.38473 0.9855 0.13749 0.0
H913 H 0.39544 0.06021 0.18265 0.0
H914 H 0.42017 0.07985 0.14476 0.0
H915 H 0.45082 0.98792 0.10762 0.0
H916 H 0.43916 0.97264 0.07641 0.0
H917 H 0.42216 0.96503 0.10699 0.0
H918 H 0.37776 0.97945 0.08602 0.0
H919 H 0.39473 0.98751 0.05553 0.0
H920 H 0.37588 0.01241 0.07288 0.0
H921 H 0.44182 0.092 0.10017 0.0
H922 H 0.46438 0.09323 0.05616 0.0
H923 H 0.44211 0.00978 0.04168 0.0
C924 C 0.39254 0.00591 0.13945 0.0
C925 C 0.38824 0.02135 0.16303 0.0
C926 C 0.39876 0.04797 0.16488 0.0
C927 C 0.41261 0.05934 0.14335 0.0
C928 C 0.41615 0.04373 0.12018 0.0
C929 C 0.40689 0.01738 0.11837 0.0
C930 C 0.41428 0.0045 0.09178 0.0
C931 C 0.4327 0.98115 0.09595 0.0
C932 C 0.38916 0.99544 0.0756 0.0
C933 C 0.42899 0.02769 0.07881 0.0
C934 C 0.42949 0.05032 0.09526 0.0
C935 C 0.44159 0.07434 0.08722 0.0
C936 C 0.45408 0.075 0.06207 0.0
C937 C 0.45464 0.05175 0.04545 0.0
C938 C 0.44178 0.02791 0.05396 0.0
H939 H 0.63383 0.52558 0.19909 0.0
H940 H 0.70581 0.48862 0.17205 0.0
H941 H 0.68585 0.48134 0.12685 0.0
H942 H 0.58862 0.48159 0.1641 0.0
H943 H 0.56511 0.50639 0.15577 0.0
H944 H 0.58579 0.51104 0.18524 0.0
H945 H 0.60376 0.55669 0.16864 0.0
H946 H 0.5828 0.5524 0.13928 0.0
H947 H 0.61826 0.55859 0.13586 0.0
H948 H 0.65689 0.47526 0.08564 0.0
H949 H 0.62228 0.47323 0.05042 0.0
H950 H 0.56845 0.51399 0.10396 0.0
C951 C 0.64561 0.51677 0.18333 0.0
C952 C 0.67162 0.50829 0.18867 0.0
C953 C 0.68612 0.4958 0.16801 0.0
C954 C 0.67487 0.49145 0.1424 0.0
C955 C 0.64899 0.49961 0.1378 0.0
C956 C 0.63461 0.51225 0.15759 0.0
C957 C 0.60677 0.518 0.14766 0.0
C958 C 0.58531 0.50338 0.16418 0.0
C959 C 0.60266 0.54822 0.14787 0.0
C960 C 0.60767 0.50643 0.1193 0.0
C961 C 0.6322 0.49589 0.11407 0.0
C962 C 0.63765 0.48359 0.08948 0.0
C963 C 0.61769 0.48235 0.0696 0.0
C964 C 0.59241 0.49329 0.07427 0.0
C965 C 0.58749 0.50543 0.09961 0.0
H966 H 0.3929 0.00736 0.33361 0.0
H967 H 0.31231 0.98263 0.35485 0.0
H968 H 0.32765 0.97382 0.40086 0.0
H969 H 0.42538 0.9582 0.36998 0.0
H970 H 0.45354 0.97954 0.38042 0.0
H971 H 0.436 0.98582 0.34985 0.0
H972 H 0.42769 0.0341 0.36658 0.0
H973 H 0.44556 0.02811 0.39706 0.0
H974 H 0.41195 0.03955 0.39844 0.0
H975 H 0.35238 0.96608 0.44432 0.0
H976 H 0.38391 0.96199 0.48195 0.0
H977 H 0.44887 0.99039 0.43223 0.0
C978 C 0.37845 1.00081 0.34825 0.0
C979 C 0.35128 0.99632 0.34102 0.0
C980 C 0.33306 0.98675 0.36029 0.0
C981 C 0.34165 0.98154 0.38638 0.0
C982 C 0.36864 0.9858 0.39288 0.0
C983 C 0.38675 0.9954 0.37441 0.0
C984 C 0.41477 0.99741 0.38625 0.0
C985 C 0.43353 0.97915 0.3707 0.0
C986 C 0.42563 0.02653 0.38714 0.0
C987 C 0.40964 0.98741 0.41419 0.0
C988 C 0.3829 0.98077 0.41761 0.0
C989 C 0.37338 0.9711 0.44176 0.0
C990 C 0.39155 0.96845 0.46301 0.0
C991 C 0.41906 0.97522 0.46012 0.0
C992 C 0.42805 0.9848 0.4352 0.0
H993 H 0.66748 0.53374 0.39813 0.0
H994 H 0.60172 0.51499 0.34242 0.0
H995 H 0.57002 0.52559 0.37749 0.0
H996 H 0.63617 0.50067 0.45227 0.0
H997 H 0.649 0.52392 0.47783 0.0
H998 H 0.66741 0.51889 0.44746 0.0
H999 H 0.66722 0.5697 0.43938 0.0
H1000 H 0.6486 0.57467 0.46969 0.0
H1001 H 0.63587 0.58609 0.43845 0.0
H1002 H 0.54476 0.5363 0.41785 0.0
H1003 H 0.52691 0.54005 0.4632 0.0
H1004 H 0.60749 0.54674 0.49582 0.0
C1005 C 0.64648 0.53176 0.39306 0.0
C1006 C 0.6376 0.5241 0.36668 0.0
C1007 C 0.60965 0.52189 0.36165 0.0
C1008 C 0.59122 0.52771 0.38166 0.0
C1009 C 0.6007 0.53529 0.40707 0.0
C1010 C 0.6276 0.53688 0.4131 0.0
C1011 C 0.63204 0.54275 0.44295 0.0
C1012 C 0.64704 0.52021 0.45589 0.0
C1013 C 0.64681 0.56992 0.4479 0.0
C1014 C 0.60336 0.54351 0.45266 0.0
C1015 C 0.58579 0.53985 0.43132 0.0
C1016 C 0.5583 0.53915 0.43473 0.0
C1017 C 0.54836 0.54129 0.46068 0.0
C1018 C 0.56573 0.5437 0.4832 0.0
C1019 C 0.59369 0.54544 0.47906 0.0
H1020 H 0.14194 0.37195 0.02735 0.0
H1021 H 0.19662 0.43405 0.99851 0.0
H1022 H 0.16178 0.46652 1.00385 0.0
H1023 H 0.08499 0.39415 0.99135 0.0
H1024 H 0.06127 0.38597 0.01703 0.0
H1025 H 0.0912 0.36748 0.01367 0.0
H1026 H 0.10319 0.3788 0.06322 0.0
H1027 H 0.0734 0.39757 0.06665 0.0
H1028 H 0.10555 0.41321 0.07474 0.0
H1029 H 0.12184 0.49247 0.01098 0.0
H1030 H 0.07718 0.51006 0.01494 0.0
H1031 H 0.04518 0.43172 0.03591 0.0
C1032 C 0.14673 0.39231 0.02202 0.0
C1033 C 0.1727 0.40019 0.01298 0.0
C1034 C 0.17758 0.42727 0.00639 0.0
C1035 C 0.15772 0.44601 0.00916 0.0
C1036 C 0.13268 0.43759 0.01821 0.0
C1037 C 0.12686 0.41137 0.02423 0.0
C1038 C 0.09752 0.40756 0.03178 0.0
C1039 C 0.08288 0.38761 0.01229 0.0
C1040 C 0.09476 0.39876 0.06082 0.0
C1041 C 0.08781 0.43571 0.02867 0.0
C1042 C 0.10874 0.45262 0.02125 0.0
C1043 C 0.10527 0.47943 0.0167 0.0
C1044 C 0.07966 0.48921 0.01901 0.0
C1045 C 0.0574 0.47233 0.02556 0.0
C1046 C 0.0617 0.44522 0.03104 0.0
H1047 H 0.14909 0.67106 0.48613 0.0
H1048 H 0.20558 0.61124 0.50561 0.0
H1049 H 0.17084 0.57568 0.49677 0.0
H1050 H 0.09127 0.63771 0.51666 0.0
H1051 H 0.06804 0.64725 0.49132 0.0
H1052 H 0.09736 0.6681 0.49894 0.0
H1053 H 0.11068 0.66541 0.44908 0.0
H1054 H 0.08163 0.64415 0.44145 0.0
H1055 H 0.11437 0.63321 0.43287 0.0
H1056 H 0.13145 0.54683 0.48481 0.0
H1057 H 0.08739 0.52538 0.47596 0.0
H1058 H 0.05383 0.60295 0.46548 0.0
C1059 C 0.15384 0.65045 0.48888 0.0
C1060 C 0.17983 0.64374 0.49696 0.0
C1061 C 0.18566 0.61665 0.49992 0.0
C1062 C 0.16614 0.59639 0.49469 0.0
C1063 C 0.14081 0.60351 0.48651 0.0
C1064 C 0.13435 0.62983 0.48396 0.0
C1065 C 0.10518 0.63167 0.47557 0.0
C1066 C 0.08954 0.64709 0.4969 0.0
C1067 C 0.10284 0.64437 0.44811 0.0
C1068 C 0.09629 0.60228 0.47406 0.0
C1069 C 0.11746 0.58656 0.48007 0.0
C1070 C 0.11469 0.55891 0.48024 0.0
C1071 C 0.08947 0.54691 0.47512 0.0
C1072 C 0.06697 0.56238 0.47009 0.0
C1073 C 0.07061 0.59052 0.46893 0.0
H1074 H 0.85618 0.82884 0.47919 0.0
H1075 H 0.79899 0.88974 0.49522 0.0
H1076 H 0.83415 0.92481 0.48855 0.0
H1077 H 0.91262 0.86333 0.51282 0.0
H1078 H 0.93686 0.85264 0.48874 0.0
H1079 H 0.90718 0.8322 0.49429 0.0
H1080 H 0.89591 0.83284 0.44375 0.0
H1081 H 0.92541 0.85358 0.43818 0.0
H1082 H 0.89318 0.86438 0.4278 0.0
H1083 H 0.8746 0.95312 0.48049 0.0
H1084 H 0.91927 0.97398 0.47506 0.0
H1085 H 0.9525 0.8958 0.46442 0.0
C1086 C 0.85129 0.84961 0.48152 0.0
C1087 C 0.82499 0.8567 0.48824 0.0
C1088 C 0.8191 0.88398 0.49065 0.0
C1089 C 0.83889 0.90398 0.48666 0.0
C1090 C 0.86458 0.89646 0.48007 0.0
C1091 C 0.87101 0.86998 0.47769 0.0
C1092 C 0.90053 0.86769 0.47103 0.0
C1093 C 0.91516 0.8531 0.49304 0.0
C1094 C 0.90395 0.85379 0.44355 0.0
C1095 C 0.90969 0.89702 0.47046 0.0
C1096 C 0.88836 0.91309 0.47542 0.0
C1097 C 0.89142 0.94076 0.47658 0.0
C1098 C 0.91698 0.95242 0.47343 0.0
C1099 C 0.93952 0.93665 0.4692 0.0
C1100 C 0.93568 0.90846 0.46713 0.0
H1101 H 0.38334 0.65827 0.51015 0.0
H1102 H 0.32522 0.62225 0.56334 0.0
H1103 H 0.36123 0.59915 0.586 0.0
H1104 H 0.42261 0.60155 0.50195 0.0
H1105 H 0.45396 0.62037 0.50098 0.0
H1106 H 0.42375 0.63528 0.49039 0.0
H1107 H 0.43315 0.67454 0.52445 0.0
H1108 H 0.4632 0.65941 0.53546 0.0
H1109 H 0.43783 0.6677 0.5593 0.0
H1110 H 0.40331 0.57795 0.60138 0.0
H1111 H 0.44707 0.55694 0.60476 0.0
H1112 H 0.47801 0.60712 0.5424 0.0
C1113 C 0.37821 0.64575 0.52675 0.0
C1114 C 0.35134 0.64211 0.5349 0.0
C1115 C 0.34552 0.62513 0.55644 0.0
C1116 C 0.36592 0.61217 0.56968 0.0
C1117 C 0.39217 0.61638 0.56129 0.0
C1118 C 0.39833 0.63258 0.54015 0.0
C1119 C 0.42789 0.63231 0.53385 0.0
C1120 C 0.4323 0.62174 0.5051 0.0
C1121 C 0.4413 0.66015 0.53855 0.0
C1122 C 0.4373 0.61296 0.55434 0.0
C1123 C 0.41647 0.60433 0.57029 0.0
C1124 C 0.41986 0.58495 0.58936 0.0
C1125 C 0.44483 0.5733 0.59138 0.0
C1126 C 0.46606 0.58116 0.57456 0.0
C1127 C 0.4624 0.60167 0.5563 0.0
H1128 H 0.48389 0.65397 0.88965 0.0
H1129 H 0.5563 0.701 0.90868 0.0
H1130 H 0.57297 0.66385 0.93485 0.0
H1131 H 0.47749 0.62384 0.95463 0.0
H1132 H 0.4647 0.59226 0.94079 0.0
H1133 H 0.45883 0.62256 0.92365 0.0
H1134 H 0.48009 0.60246 0.88094 0.0
H1135 H 0.48638 0.57223 0.89808 0.0
H1136 H 0.51349 0.59051 0.88258 0.0
H1137 H 0.58299 0.61988 0.9565 0.0
H1138 H 0.58241 0.57569 0.97764 0.0
H1139 H 0.5022 0.55881 0.94735 0.0
C1140 C 0.50315 0.65651 0.89954 0.0
C1141 C 0.5188 0.68042 0.89717 0.0
C1142 C 0.54386 0.683 0.91047 0.0
C1143 C 0.55359 0.6619 0.92516 0.0
C1144 C 0.53788 0.6384 0.92668 0.0
C1145 C 0.51294 0.63582 0.91468 0.0
C1146 C 0.49964 0.60883 0.92006 0.0
C1147 C 0.47363 0.61208 0.93572 0.0
C1148 C 0.49461 0.59256 0.89385 0.0
C1149 C 0.52093 0.59661 0.93698 0.0
C1150 C 0.54309 0.61375 0.94014 0.0
C1151 C 0.56565 0.60643 0.95431 0.0
C1152 C 0.56527 0.58127 0.96607 0.0
C1153 C 0.54234 0.56397 0.96397 0.0
C1154 C 0.52 0.57172 0.94913 0.0
H1155 H 0.51874 0.85102 0.89789 0.0
H1156 H 0.49026 0.87028 0.81918 0.0
H1157 H 0.48437 0.91706 0.83473 0.0
H1158 H 0.47362 0.89077 0.93456 0.0
H1159 H 0.49723 0.90121 0.96051 0.0
H1160 H 0.50066 0.86975 0.94283 0.0
H1161 H 0.54894 0.88383 0.9296 0.0
H1162 H 0.54579 0.91519 0.94756 0.0
H1163 H 0.55499 0.91476 0.9128 0.0
H1164 H 0.48051 0.96195 0.85967 0.0
H1165 H 0.48089 1.00096 0.89105 0.0
H1166 H 0.51066 0.95215 0.9539 0.0
C1167 C 0.51194 0.86532 0.88382 0.0
C1168 C 0.5056 0.85728 0.85711 0.0
C1169 C 0.49576 0.87625 0.83953 0.0
C1170 C 0.49221 0.9028 0.84826 0.0
C1171 C 0.4984 0.91012 0.87478 0.0
C1172 C 0.50821 0.89194 0.89226 0.0
C1173 C 0.5127 0.90472 0.9199 0.0
C1174 C 0.495 0.89078 0.94067 0.0
C1175 C 0.54237 0.90463 0.92793 0.0
C1176 C 0.50391 0.93288 0.91527 0.0
C1177 C 0.49565 0.93561 0.88915 0.0
C1178 C 0.48677 0.9599 0.88022 0.0
C1179 C 0.48665 0.98196 0.89834 0.0
C1180 C 0.49514 0.97971 0.92521 0.0
C1181 C 0.50382 0.95466 0.93359 0.0
H1182 H 0.54141 0.37118 0.69134 0.0
H1183 H 0.51543 0.31551 0.62764 0.0
H1184 H 0.51749 0.35196 0.59552 0.0
H1185 H 0.5045 0.42752 0.66853 0.0
H1186 H 0.53035 0.45219 0.67764 0.0
H1187 H 0.52707 0.42178 0.69581 0.0
H1188 H 0.57648 0.41231 0.68571 0.0
H1189 H 0.57969 0.44255 0.66721 0.0
H1190 H 0.58755 0.41107 0.65152 0.0
H1191 H 0.52296 0.39308 0.57026 0.0
H1192 H 0.52676 0.43833 0.5531 0.0
H1193 H 0.54838 0.46983 0.6324 0.0
C1194 C 0.53577 0.36693 0.67068 0.0
C1195 C 0.5276 0.34067 0.66197 0.0
C1196 C 0.52102 0.33558 0.63474 0.0
C1197 C 0.52245 0.3561 0.61635 0.0
C1198 C 0.53069 0.38168 0.62542 0.0
C1199 C 0.53701 0.38738 0.65193 0.0
C1200 C 0.54469 0.41698 0.65613 0.0
C1201 C 0.5255 0.43041 0.67569 0.0
C1202 C 0.57383 0.42095 0.66572 0.0
C1203 C 0.54128 0.42695 0.62788 0.0
C1204 C 0.53361 0.40598 0.61059 0.0
C1205 C 0.52887 0.40967 0.5836 0.0
C1206 C 0.53112 0.43555 0.57405 0.0
C1207 C 0.5379 0.45775 0.59132 0.0
C1208 C 0.54362 0.45329 0.6186 0.0
H1209 H 0.54497 0.14324 0.63917 0.0
H1210 H 0.47021 0.18369 0.63873 0.0
H1211 H 0.44793 0.14411 0.61607 0.0
H1212 H 0.53602 0.11206 0.5732 0.0
H1213 H 0.55198 0.08198 0.58219 0.0
H1214 H 0.56142 0.11322 0.59895 0.0
H1215 H 0.55105 0.09218 0.64459 0.0
H1216 H 0.54119 0.06098 0.62791 0.0
H1217 H 0.51839 0.07714 0.65023 0.0
H1218 H 0.43342 0.09861 0.5951 0.0
H1219 H 0.42976 0.05434 0.5715 0.0
H1220 H 0.51458 0.04529 0.58294 0.0
C1221 C 0.52396 0.14376 0.63409 0.0
C1222 C 0.50927 0.16648 0.6406 0.0
C1223 C 0.48183 0.16653 0.63364 0.0
C1224 C 0.46899 0.14407 0.621 0.0
C1225 C 0.48395 0.1218 0.61512 0.0
C1226 C 0.51098 0.12172 0.62096 0.0
C1227 C 0.52283 0.09585 0.61136 0.0
C1228 C 0.54433 0.1011 0.59016 0.0
C1229 C 0.53402 0.08065 0.63493 0.0
C1230 C 0.49831 0.08135 0.59927 0.0
C1231 C 0.47592 0.09637 0.60206 0.0
C1232 C 0.45088 0.08676 0.59275 0.0
C1233 C 0.44886 0.0615 0.57964 0.0
C1234 C 0.4718 0.04641 0.57565 0.0
C1235 C 0.49671 0.05645 0.58583 0.0
H1236 H 0.8534 0.51915 0.63238 0.0
H1237 H 0.91788 0.49751 0.68537 0.0
H1238 H 0.95028 0.50963 0.65121 0.0
H1239 H 0.88158 0.48886 0.57438 0.0
H1240 H 0.87045 0.51343 0.55166 0.0
H1241 H 0.8519 0.50684 0.58158 0.0
H1242 H 0.85633 0.55701 0.59525 0.0
H1243 H 0.87528 0.56366 0.56552 0.0
H1244 H 0.88902 0.57323 0.59794 0.0
H1245 H 0.97612 0.52176 0.61173 0.0
H1246 H 0.99381 0.52675 0.56649 0.0
H1247 H 0.91377 0.53673 0.53572 0.0
C1248 C 0.87426 0.51682 0.63701 0.0
C1249 C 0.88267 0.50786 0.66241 0.0
C1250 C 0.91044 0.5053 0.66695 0.0
C1251 C 0.92923 0.512 0.64745 0.0
C1252 C 0.92024 0.52088 0.62302 0.0
C1253 C 0.89344 0.52287 0.61742 0.0
C1254 C 0.88927 0.53031 0.58837 0.0
C1255 C 0.8723 0.50856 0.5731 0.0
C1256 C 0.87672 0.55768 0.58668 0.0
C1257 C 0.91794 0.53151 0.57848 0.0
C1258 C 0.93535 0.52664 0.59919 0.0
C1259 C 0.96272 0.52566 0.59537 0.0
C1260 C 0.97257 0.52857 0.56955 0.0
C1261 C 0.95523 0.53218 0.54757 0.0
C1262 C 0.92755 0.53449 0.5522 0.0
H1263 H 0.1106 0.03937 0.65442 0.0
H1264 H 0.16584 0.97504 0.65137 0.0
H1265 H 0.14156 0.95461 0.61235 0.0
H1266 H 0.05041 0.99909 0.63281 0.0
H1267 H 0.03776 0.02519 0.61284 0.0
H1268 H 0.05794 0.03358 0.64207 0.0
H1269 H 0.0906 0.06156 0.6132 0.0
H1270 H 0.07057 0.05318 0.58391 0.0
H1271 H 0.10555 0.04612 0.58429 0.0
H1272 H 0.11324 0.94251 0.57197 0.0
H1273 H 0.08288 0.93997 0.533 0.0
H1274 H 0.04602 0.0121 0.56111 0.0
C1275 C 0.11717 0.02073 0.64579 0.0
C1276 C 0.14002 0.00869 0.65595 0.0
C1277 C 0.14839 0.98456 0.64385 0.0
C1278 C 0.13469 0.97277 0.62172 0.0
C1279 C 0.11258 0.98533 0.61178 0.0
C1280 C 0.10379 0.00874 0.62338 0.0
C1281 C 0.08039 0.01885 0.60766 0.0
C1282 C 0.05513 0.01919 0.62487 0.0
C1283 C 0.0872 0.04657 0.59661 0.0
C1284 C 0.07772 0.99768 0.58532 0.0
C1285 C 0.09637 0.97845 0.58822 0.0
C1286 C 0.09841 0.95739 0.56962 0.0
C1287 C 0.08107 0.95605 0.5474 0.0
C1288 C 0.06193 0.97559 0.54369 0.0
C1289 C 0.06022 0.99657 0.56323 0.0
H1290 H 0.83157 0.48718 0.86464 0.0
H1291 H 0.89131 0.50643 0.80534 0.0
H1292 H 0.92672 0.50519 0.83981 0.0
H1293 H 0.86321 0.52724 0.9193 0.0
H1294 H 0.85437 0.50375 0.94465 0.0
H1295 H 0.83355 0.50593 0.91535 0.0
H1296 H 0.83816 0.45535 0.90569 0.0
H1297 H 0.85938 0.45313 0.93472 0.0
H1298 H 0.87094 0.44215 0.90236 0.0
H1299 H 0.9555 0.50075 0.8792 0.0
H1300 H 0.97684 0.4991 0.92331 0.0
H1301 H 0.89952 0.48415 0.95969 0.0
C1302 C 0.85212 0.49151 0.85919 0.0
C1303 C 0.85884 0.49733 0.83246 0.0
C1304 C 0.88586 0.50243 0.82579 0.0
C1305 C 0.90606 0.5015 0.84517 0.0
C1306 C 0.89895 0.49544 0.87124 0.0
C1307 C 0.87268 0.4909 0.87852 0.0
C1308 C 0.87086 0.48561 0.90835 0.0
C1309 C 0.85453 0.50691 0.92276 0.0
C1310 C 0.85913 0.45738 0.91305 0.0
C1311 C 0.9002 0.48807 0.91659 0.0
C1312 C 0.91588 0.49336 0.89459 0.0
C1313 C 0.94345 0.49675 0.8966 0.0
C1314 C 0.95539 0.49572 0.92183 0.0
C1315 C 0.93993 0.49152 0.94507 0.0
C1316 C 0.91192 0.487 0.94231 0.0
H1317 H 0.18662 0.02122 0.85783 0.0
H1318 H 0.12796 0.06058 0.81055 0.0
H1319 H 0.10272 0.07123 0.85148 0.0
H1320 H 0.13709 0.99087 0.90251 0.0
H1321 H 0.15887 0.99372 0.93137 0.0
H1322 H 0.17276 0.99019 0.89843 0.0
H1323 H 0.20175 0.03347 0.90734 0.0
H1324 H 0.18744 0.03745 0.94009 0.0
H1325 H 0.18582 0.06394 0.91664 0.0
H1326 H 0.08553 0.08049 0.89775 0.0
H1327 H 0.07111 0.07819 0.94483 0.0
H1328 H 0.13752 0.02869 0.96233 0.0
C1329 C 0.16834 0.0319 0.85619 0.0
C1330 C 0.15966 0.04089 0.83114 0.0
C1331 C 0.13529 0.05416 0.82964 0.0
C1332 C 0.12091 0.06041 0.85279 0.0
C1333 C 0.13063 0.05247 0.87736 0.0
C1334 C 0.15326 0.0377 0.87917 0.0
C1335 C 0.15805 0.02988 0.90792 0.0
C1336 C 0.1566 0.99935 0.91019 0.0
C1337 C 0.18486 0.04191 0.91862 0.0
C1338 C 0.1347 0.04268 0.92191 0.0
C1339 C 0.11957 0.05619 0.90393 0.0
C1340 C 0.09716 0.06988 0.91198 0.0
C1341 C 0.0893 0.06877 0.93882 0.0
C1342 C 0.10351 0.0538 0.95727 0.0
C1343 C 0.12672 0.04086 0.94876 0.0
H1344 H 0.6597 0.88747 0.51277 0.0
H1345 H 0.61861 0.81344 0.4853 0.0
H1346 H 0.57603 0.83182 0.49715 0.0
H1347 H 0.61548 0.90672 0.56543 0.0
H1348 H 0.61556 0.94144 0.55715 0.0
H1349 H 0.64413 0.92197 0.54949 0.0
H1350 H 0.64092 0.93432 0.49972 0.0
H1351 H 0.61266 0.95419 0.50734 0.0
H1352 H 0.60986 0.9281 0.4818 0.0
H1353 H 0.53713 0.85676 0.51467 0.0
H1354 H 0.50393 0.89074 0.52478 0.0
H1355 H 0.5677 0.95149 0.53242 0.0
C1356 C 0.64193 0.87496 0.50902 0.0
C1357 C 0.64353 0.84803 0.49948 0.0
C1358 C 0.61904 0.83323 0.4944 0.0
C1359 C 0.59429 0.84366 0.50077 0.0
C1360 C 0.59365 0.86959 0.51116 0.0
C1361 C 0.61666 0.88549 0.5142 0.0
C1362 C 0.60978 0.91377 0.52277 0.0
C1363 C 0.62197 0.92142 0.55035 0.0
C1364 C 0.61884 0.93378 0.50165 0.0
C1365 C 0.57943 0.91104 0.52412 0.0
C1366 C 0.5707 0.8851 0.51816 0.0
C1367 C 0.54369 0.87725 0.51902 0.0
C1368 C 0.52496 0.89662 0.52504 0.0
C1369 C 0.53319 0.9237 0.52936 0.0
C1370 C 0.56086 0.93089 0.52922 0.0
H1371 H 0.69714 0.13216 0.00823 0.0
H1372 H 0.6749 0.21075 0.98493 0.0
H1373 H 0.62875 0.19332 0.97527 0.0
H1374 H 0.65897 0.09573 0.95802 0.0
H1375 H 0.6494 0.06843 0.979 0.0
H1376 H 0.68021 0.08728 0.98549 0.0
H1377 H 0.66543 0.0977 0.03405 0.0
H1378 H 0.63473 0.07856 0.02783 0.0
H1379 H 0.63384 0.11275 0.03981 0.0
H1380 H 0.58516 0.16693 0.96731 0.0
H1381 H 0.54724 0.13422 0.96328 0.0
H1382 H 0.59795 0.07217 0.99029 0.0
C1383 C 0.6823 0.14574 1.00172 0.0
C1384 C 0.68924 0.17294 0.99792 0.0
C1385 C 0.66969 0.18998 0.98845 0.0
C1386 C 0.64353 0.18021 0.98279 0.0
C1387 C 0.63728 0.15323 0.98651 0.0
C1388 C 0.65606 0.13625 0.99589 0.0
C1389 C 0.64431 0.10798 0.99751 0.0
C1390 C 0.65911 0.08872 0.9789 0.0
C1391 C 0.64459 0.09871 0.02653 0.0
C1392 C 0.61602 0.11171 0.98761 0.0
C1393 C 0.6124 0.13795 0.9813 0.0
C1394 C 0.58789 0.14627 0.97197 0.0
C1395 C 0.56647 0.1274 0.96931 0.0
C1396 C 0.56959 0.10037 0.97567 0.0
C1397 C 0.59485 0.09258 0.98495 0.0
H1398 H 0.34325 0.40494 0.03081 0.0
H1399 H 0.36537 0.33023 0.99326 0.0
H1400 H 0.41148 0.34858 0.98743 0.0
H1401 H 0.38101 0.4473 0.98924 0.0
H1402 H 0.39099 0.47141 0.01519 0.0
H1403 H 0.36024 0.45196 0.01812 0.0
H1404 H 0.3757 0.43504 0.06389 0.0
H1405 H 0.40633 0.45479 0.06132 0.0
H1406 H 0.40736 0.41943 0.06647 0.0
H1407 H 0.45445 0.37639 0.9827 0.0
H1408 H 0.4919 0.40992 0.9831 0.0
H1409 H 0.4424 0.46636 0.02495 0.0
C1410 C 0.35808 0.39219 0.02223 0.0
C1411 C 0.35099 0.36588 0.01313 0.0
C1412 C 0.37062 0.35021 1.00087 0.0
C1413 C 0.39679 0.36054 0.99733 0.0
C1414 C 0.40311 0.38667 0.00616 0.0
C1415 C 0.38442 0.40219 0.01869 0.0
C1416 C 0.39626 0.42986 0.02573 0.0
C1417 C 0.38123 0.4514 0.0112 0.0
C1418 C 0.39643 0.43508 0.05616 0.0
C1419 C 0.42441 0.42754 0.01509 0.0
C1420 C 0.42791 0.40253 1.00369 0.0
C1421 C 0.45198 0.39596 0.9918 0.0
C1422 C 0.47315 0.41526 0.99195 0.0
C1423 C 0.47028 0.44087 1.00407 0.0
C1424 C 0.44542 0.44696 0.01565 0.0
H1425 H 0.89488 0.16809 0.03345 0.0
H1426 H 0.84713 0.11031 0.98518 0.0
H1427 H 0.88279 0.07844 0.98827 0.0
H1428 H 0.95736 0.15357 1.0027 0.0
H1429 H 0.97681 0.15784 0.03308 0.0
H1430 H 0.94672 0.17584 0.02911 0.0
H1431 H 0.92856 0.15626 0.07294 0.0
H1432 H 0.95845 0.13788 0.07686 0.0
H1433 H 0.92625 0.12057 0.07639 0.0
H1434 H 0.92318 0.05311 0.99489 0.0
H1435 H 0.96767 0.03615 1.00235 0.0
H1436 H 0.99212 0.11024 0.04431 0.0
C1437 C 0.89186 0.14879 0.02343 0.0
C1438 C 0.86768 0.1418 0.00935 0.0
C1439 C 0.86485 0.11614 0.99674 0.0
C1440 C 0.88517 0.09785 0.99821 0.0
C1441 C 0.9085 0.10536 0.01221 0.0
C1442 C 0.91217 0.13023 0.02447 0.0
C1443 C 0.93995 0.13342 0.03712 0.0
C1444 C 0.95616 0.15654 0.02475 0.0
C1445 C 0.93818 0.13726 0.06764 0.0
C1446 C 0.95136 0.10658 0.02956 0.0
C1447 C 0.93257 0.09073 0.0155 0.0
C1448 C 0.93807 0.06532 0.00586 0.0
C1449 C 0.96356 0.0559 0.0102 0.0
C1450 C 0.98364 0.0718 0.02394 0.0
C1451 C 0.97724 0.09744 0.03407 0.0
H1452 H 0.01018 0.16449 0.21692 0.0
H1453 H 0.00667 0.24096 0.17956 0.0
H1454 H 0.00501 0.21822 0.13479 0.0
H1455 H 0.0535 0.1358 0.17142 0.0
H1456 H 0.03813 0.10274 0.17238 0.0
H1457 H 0.03558 0.12534 0.20065 0.0
H1458 H 0.98396 0.11896 0.19811 0.0
H1459 H 0.98652 0.09691 0.1692 0.0
H1460 H 0.96665 0.126 0.16757 0.0
H1461 H 0.00961 0.18753 0.09446 0.0
H1462 H 0.02556 0.15281 0.06303 0.0
H1463 H 0.02364 0.09596 0.12624 0.0
C1464 C 0.00879 0.17628 0.19921 0.0
C1465 C 0.00862 0.20434 0.20136 0.0
C1466 C 0.00692 0.21939 0.17804 0.0
C1467 C 0.00567 0.20662 0.15265 0.0
C1468 C 0.00577 0.17878 0.15106 0.0
C1469 C 0.0074 0.16382 0.17377 0.0
C1470 C 0.00988 0.13449 0.16667 0.0
C1471 C 0.03581 0.124 0.17845 0.0
C1472 C 0.98528 0.11813 0.17594 0.0
C1473 C 0.01072 0.13534 0.13642 0.0
C1474 C 0.00767 0.16098 0.12772 0.0
C1475 C 0.01125 0.16727 0.10094 0.0
C1476 C 0.01992 0.14733 0.08306 0.0
C1477 C 0.02477 0.1215 0.09203 0.0
C1478 C 0.01867 0.11516 0.11863 0.0
H1479 H 0.96918 0.3297 0.17468 0.0
H1480 H 0.03846 0.36959 0.21303 0.0
H1481 H 0.04336 0.3992 0.17497 0.0
H1482 H 0.99112 0.33335 0.10673 0.0
H1483 H 0.95885 0.34094 0.09344 0.0
H1484 H 0.96116 0.32169 0.12315 0.0
H1485 H 0.93257 0.35562 0.14916 0.0
H1486 H 0.92974 0.37446 0.11928 0.0
H1487 H 0.94257 0.39056 0.14966 0.0
H1488 H 0.04158 0.42423 0.13215 0.0
H1489 H 0.02773 0.44815 0.09198 0.0
H1490 H 0.95866 0.39377 0.08273 0.0
C1491 C 0.9852 0.34483 0.17526 0.0
C1492 C 1.00381 0.34672 0.19668 0.0
C1493 C 0.02441 0.36701 0.19653 0.0
C1494 C 0.0274 0.38403 0.17498 0.0
C1495 C 0.00938 0.38096 0.15376 0.0
C1496 C 0.98828 0.36233 0.15401 0.0
C1497 C 0.97069 0.36442 0.12946 0.0
C1498 C 0.97046 0.33855 0.11218 0.0
C1499 C 0.94221 0.37171 0.13737 0.0
C1500 C 0.98516 0.38716 0.11559 0.0
C1501 C 0.0077 0.39614 0.12964 0.0
C1502 C 0.02392 0.41742 0.12096 0.0
C1503 C 0.01611 0.43072 0.09801 0.0
C1504 C 0.99213 0.42284 0.08442 0.0
C1505 C 0.97708 0.40023 0.09283 0.0
H1506 H 0.99157 0.84575 0.28874 0.0
H1507 H 0.98472 0.76737 0.32238 0.0
H1508 H 0.97833 0.78801 0.36748 0.0
H1509 H 0.0281 0.878 0.34162 0.0
H1510 H 0.01144 0.90903 0.33904 0.0
H1511 H 0.01394 0.88722 0.31014 0.0
H1512 H 0.96237 0.88708 0.30465 0.0
H1513 H 0.95979 0.90813 0.33427 0.0
H1514 H 0.94145 0.87651 0.33182 0.0
H1515 H 0.97789 0.81753 0.40908 0.0
H1516 H 0.98793 0.85294 0.4435 0.0
H1517 H 0.99003 0.91212 0.38245 0.0
C1518 C 0.98893 0.83308 0.30576 0.0
C1519 C 0.98933 0.8051 0.30257 0.0
C1520 C 0.98517 0.78889 0.32486 0.0
C1521 C 0.98109 0.80044 0.35034 0.0
C1522 C 0.98052 0.8282 0.3529 0.0
C1523 C 0.98438 0.84428 0.33117 0.0
C1524 C 0.98437 0.87354 0.33937 0.0
C1525 C 0.01104 0.88777 0.33214 0.0
C1526 C 0.96057 0.88711 0.32678 0.0
C1527 C 0.98111 0.87152 0.36933 0.0
C1528 C 0.97849 0.84518 0.37674 0.0
C1529 C 0.9791 0.83823 0.40353 0.0
C1530 C 0.98441 0.85848 0.42304 0.0
C1531 C 0.98869 0.88526 0.41562 0.0
C1532 C 0.98534 0.89197 0.38869 0.0
H1533 H 0.00829 0.64694 0.29046 0.0
H1534 H 0.00739 0.72595 0.32745 0.0
H1535 H 0.01927 0.70752 0.3711 0.0
H1536 H 0.9771 0.61354 0.3425 0.0
H1537 H 0.99619 0.58395 0.33896 0.0
H1538 H 0.99133 0.60446 0.31069 0.0
H1539 H 0.04277 0.60856 0.30498 0.0
H1540 H 0.0476 0.58879 0.33402 0.0
H1541 H 0.06342 0.62159 0.33237 0.0
H1542 H 0.02518 0.68019 0.41118 0.0
H1543 H 0.01736 0.64584 0.44482 0.0
H1544 H 0.01705 0.58432 0.38256 0.0
C1545 C 0.0108 0.66023 0.30782 0.0
C1546 C 0.00668 0.68774 0.30593 0.0
C1547 C 0.01011 0.70474 0.32882 0.0
C1548 C 0.01727 0.6945 0.35352 0.0
C1549 C 0.02129 0.66722 0.35489 0.0
C1550 C 0.01795 0.65027 0.33269 0.0
C1551 C 0.02042 0.62142 0.34016 0.0
C1552 C 0.99474 0.60489 0.33266 0.0
C1553 C 0.04502 0.60939 0.3271 0.0
C1554 C 0.02418 0.62467 0.37023 0.0
C1555 C 0.02544 0.65134 0.37823 0.0
C1556 C 0.025 0.65928 0.40519 0.0
C1557 C 0.02098 0.63963 0.42429 0.0
C1558 C 0.01747 0.61248 0.41628 0.0
C1559 C 0.02105 0.60485 0.38922 0.0
H1560 H 0.20138 0.01578 0.21735 0.0
H1561 H 0.25024 0.97405 0.1601 0.0
H1562 H 0.21325 0.97297 0.1271 0.0
H1563 H 0.13507 0.98577 0.19637 0.0
H1564 H 0.11899 0.01715 0.20027 0.0
H1565 H 0.14721 0.0102 0.22115 0.0
H1566 H 0.17205 0.05346 0.20603 0.0
H1567 H 0.14376 0.0607 0.1856 0.0
H1568 H 0.17635 0.05878 0.17082 0.0
H1569 H 0.17224 0.9793 0.09913 0.0
H1570 H 0.13505 1.0004 0.07595 0.0
H1571 H 0.11438 0.04092 0.15009 0.0
C1572 C 0.20393 0.0059 0.19805 0.0
C1573 C 0.22816 0.99402 0.19158 0.0
C1574 C 0.23139 0.98234 0.16575 0.0
C1575 C 0.21049 0.98157 0.14692 0.0
C1576 C 0.1866 0.99308 0.15401 0.0
C1577 C 0.18343 0.0055 0.1788 0.0
C1578 C 0.15749 0.01992 0.18002 0.0
C1579 C 0.13857 0.00751 0.20068 0.0
C1580 C 0.16273 0.04999 0.18594 0.0
C1581 C 0.14704 0.01446 0.1518 0.0
C1582 C 0.16362 0.99816 0.13736 0.0
C1583 C 0.15893 0.99183 0.11031 0.0
C1584 C 0.13763 1.00367 0.09732 0.0
C1585 C 0.12187 0.02207 0.11132 0.0
C1586 C 0.12596 0.02656 0.13909 0.0
H1587 H 0.80628 0.52254 0.16781 0.0
H1588 H 0.82966 0.46024 0.22052 0.0
H1589 H 0.87204 0.45656 0.19618 0.0
H1590 H 0.83182 0.49307 0.10842 0.0
H1591 H 0.84291 0.52417 0.09422 0.0
H1592 H 0.8154 0.52343 0.11712 0.0
H1593 H 0.84021 0.55955 0.14711 0.0
H1594 H 0.86799 0.56009 0.12442 0.0
H1595 H 0.87335 0.55371 0.15927 0.0
H1596 H 0.91032 0.45758 0.16526 0.0
H1597 H 0.94051 0.46005 0.12672 0.0
H1598 H 0.89352 0.52176 0.09314 0.0
C1599 C 0.82047 0.50832 0.17434 0.0
C1600 C 0.81464 0.49161 0.19607 0.0
C1601 C 0.83354 0.47299 0.20377 0.0
C1602 C 0.8578 0.47098 0.19026 0.0
C1603 C 0.86298 0.48774 0.16903 0.0
C1604 C 0.84481 0.50589 0.16088 0.0
C1605 C 0.85461 0.52009 0.13615 0.0
C1606 C 0.83502 0.51487 0.11258 0.0
C1607 C 0.85932 0.55015 0.1421 0.0
C1608 C 0.88084 0.50661 0.13133 0.0
C1609 C 0.88538 0.48835 0.1509 0.0
C1610 C 0.90722 0.47208 0.15007 0.0
C1611 C 0.92434 0.47374 0.12819 0.0
C1612 C 0.91967 0.49154 0.10739 0.0
C1613 C 0.89805 0.50872 0.10929 0.0
H1614 H 0.18592 0.96907 0.30542 0.0
H1615 H 0.22339 0.03172 0.35605 0.0
H1616 H 0.18125 0.03613 0.38078 0.0
H1617 H 0.11985 0.99721 0.30255 0.0
H1618 H 0.10255 0.96508 0.30371 0.0
H1619 H 0.13516 0.96794 0.2889 0.0
H1620 H 0.15266 0.93276 0.32096 0.0
H1621 H 0.12 0.92944 0.3354 0.0
H1622 H 0.14861 0.9377 0.35651 0.0
H1623 H 0.13557 0.03154 0.40211 0.0
H1624 H 0.09235 0.01542 0.42026 0.0
H1625 H 0.08416 0.95717 0.35465 0.0
C1626 C 0.18531 0.98365 0.32177 0.0
C1627 C 0.20803 1.00009 0.32869 0.0
C1628 C 0.20621 0.01909 0.35011 0.0
C1629 C 0.18231 0.0218 0.36427 0.0
C1630 C 0.1602 0.00553 0.3567 0.0
C1631 C 0.16154 0.98675 0.336 0.0
C1632 C 0.13537 0.97081 0.33266 0.0
C1633 C 0.12247 0.97555 0.30533 0.0
C1634 C 0.13941 0.94092 0.33664 0.0
C1635 C 0.11935 0.98299 0.3552 0.0
C1636 C 0.13384 1.00324 0.36865 0.0
C1637 C 0.12387 0.01599 0.39146 0.0
C1638 C 0.09907 0.00693 0.40149 0.0
C1639 C 0.08453 0.98528 0.38878 0.0
C1640 C 0.09446 0.97406 0.36468 0.0
H1641 H 0.827 0.51039 0.29821 0.0
H1642 H 0.78269 0.46994 0.36004 0.0
H1643 H 0.82452 0.464 0.38507 0.0
H1644 H 0.89137 0.47568 0.30401 0.0
H1645 H 0.91099 0.50624 0.30042 0.0
H1646 H 0.87881 0.50192 0.28416 0.0
H1647 H 0.86323 0.54535 0.3076 0.0
H1648 H 0.89544 0.54997 0.3234 0.0
H1649 H 0.86573 0.54894 0.3435 0.0
H1650 H 0.87025 0.46539 0.40518 0.0
H1651 H 0.91298 0.48366 0.4241 0.0
H1652 H 0.92699 0.52756 0.35189 0.0
C1653 C 0.82635 0.49965 0.31667 0.0
C1654 C 0.80189 0.48927 0.32648 0.0
C1655 C 0.80144 0.47671 0.35146 0.0
C1656 C 0.82511 0.47325 0.36581 0.0
C1657 C 0.84905 0.4832 0.35536 0.0
C1658 C 0.84975 0.49678 0.33168 0.0
C1659 C 0.87707 0.50985 0.32736 0.0
C1660 C 0.89034 0.49769 0.30251 0.0
C1661 C 0.87525 0.54032 0.32537 0.0
C1662 C 0.89129 0.50234 0.35275 0.0
C1663 C 0.87513 0.48603 0.36809 0.0
C1664 C 0.8832 0.47796 0.39325 0.0
C1665 C 0.90765 0.48825 0.40377 0.0
C1666 C 0.92323 0.50702 0.38945 0.0
C1667 C 0.91558 0.51298 0.3631 0.0
H1668 H 0.23338 0.20957 0.01884 0.0
H1669 H 0.17498 0.25358 0.97596 0.0
H1670 H 0.14655 0.21244 0.96964 0.0
H1671 H 0.22334 0.14432 0.98263 0.0
H1672 H 0.22601 0.1257 0.01272 0.0
H1673 H 0.24397 0.15735 0.01003 0.0
H1674 H 0.22166 0.1752 0.05326 0.0
H1675 H 0.20435 0.14343 0.05638 0.0
H1676 H 0.18577 0.17345 0.05566 0.0
H1677 H 0.12326 0.16721 0.97007 0.0
H1678 H 0.10229 0.12547 0.98665 0.0
H1679 H 0.17405 0.11167 0.03202 0.0
C1680 C 0.2148 0.2103 0.00774 0.0
C1681 C 0.20681 0.23438 0.9969 0.0
C1682 C 0.18185 0.23502 0.98352 0.0
C1683 C 0.16567 0.21175 0.97973 0.0
C1684 C 0.17442 0.18804 0.98995 0.0
C1685 C 0.19811 0.18731 0.00428 0.0
C1686 C 0.20103 0.16037 0.01662 0.0
C1687 C 0.22501 0.1461 0.00479 0.0
C1688 C 0.20331 0.16329 0.04729 0.0
C1689 C 0.17488 0.14642 0.0078 0.0
C1690 C 0.16025 0.16234 0.99159 0.0
C1691 C 0.13464 0.15443 0.98251 0.0
C1692 C 0.12297 0.1305 0.99171 0.0
C1693 C 0.13669 0.1153 0.01033 0.0
C1694 C 0.16342 0.12268 0.01729 0.0
H1695 H 0.19246 0.82089 0.47881 0.0
H1696 H 0.13991 0.77364 0.52891 0.0
H1697 H 0.11022 0.81164 0.53401 0.0
H1698 H 0.18458 0.88472 0.5148 0.0
H1699 H 0.18528 0.90356 0.48468 0.0
H1700 H 0.20327 0.87324 0.48636 0.0
H1701 H 0.17798 0.85381 0.44427 0.0
H1702 H 0.1605 0.88429 0.44217 0.0
H1703 H 0.14199 0.85284 0.44373 0.0
H1704 H 0.0844 0.85352 0.53049 0.0
H1705 H 0.06292 0.894 0.51524 0.0
H1706 H 0.13353 0.91479 0.46969 0.0
C1707 C 0.17463 0.81854 0.49074 0.0
C1708 C 0.16841 0.79434 0.50341 0.0
C1709 C 0.14507 0.79209 0.51913 0.0
C1710 C 0.12819 0.8136 0.52227 0.0
C1711 C 0.1351 0.83736 0.50985 0.0
C1712 C 0.15773 0.8399 0.49432 0.0
C1713 C 0.15994 0.86703 0.48195 0.0
C1714 C 0.18474 0.88308 0.49259 0.0
C1715 C 0.16009 0.86432 0.45122 0.0
C1716 C 0.13451 0.879 0.4921 0.0
C1717 C 0.12063 0.86177 0.50852 0.0
C1718 C 0.09533 0.86745 0.51814 0.0
C1719 C 0.08338 0.89064 0.50963 0.0
C1720 C 0.09677 0.90782 0.49174 0.0
C1721 C 0.1231 0.9024 0.48393 0.0
H1722 H 0.81489 0.67641 0.48101 0.0
H1723 H 0.86512 0.72421 0.53634 0.0
H1724 H 0.89294 0.6853 0.54355 0.0
H1725 H 0.81901 0.61271 0.51637 0.0
H1726 H 0.81957 0.59336 0.48547 0.0
H1727 H 0.80198 0.62402 0.4872 0.0
H1728 H 0.82961 0.64234 0.44759 0.0
H1729 H 0.84662 0.61154 0.44541 0.0
H1730 H 0.86556 0.64271 0.44948 0.0
H1731 H 0.91852 0.64227 0.54023 0.0
H1732 H 0.9409 0.60212 0.52315 0.0
H1733 H 0.87242 0.58199 0.47223 0.0
C1734 C 0.83169 0.67868 0.49473 0.0
C1735 C 0.83788 0.70341 0.50801 0.0
C1736 C 0.85988 0.70543 0.52604 0.0
C1737 C 0.87572 0.68337 0.53037 0.0
C1738 C 0.86904 0.65922 0.51693 0.0
C1739 C 0.84745 0.65683 0.49951 0.0
C1740 C 0.84551 0.62948 0.48592 0.0
C1741 C 0.82 0.61398 0.49425 0.0
C1742 C 0.84694 0.63166 0.4553 0.0
C1743 C 0.87017 0.61726 0.49728 0.0
C1744 C 0.88327 0.63441 0.51559 0.0
C1745 C 0.90812 0.62848 0.52634 0.0
C1746 C 0.92062 0.6054 0.5168 0.0
C1747 C 0.90833 0.58885 0.4965 0.0
C1748 C 0.88208 0.59404 0.4881 0.0
H1749 H 0.33924 0.78808 0.49929 0.0
H1750 H 0.26029 0.819 0.50792 0.0
H1751 H 0.27958 0.86528 0.50577 0.0
H1752 H 0.37328 0.83656 0.53985 0.0
H1753 H 0.4029 0.83778 0.51965 0.0
H1754 H 0.38199 0.80787 0.5197 0.0
H1755 H 0.37772 0.80948 0.46805 0.0
H1756 H 0.39807 0.83994 0.46806 0.0
H1757 H 0.36522 0.8388 0.45306 0.0
H1758 H 0.30822 0.90772 0.5077 0.0
H1759 H 0.3437 0.94218 0.51809 0.0
H1760 H 0.40375 0.88386 0.50477 0.0
C1761 C 0.32612 0.80471 0.50053 0.0
C1762 C 0.29839 0.80031 0.50373 0.0
C1763 C 0.28162 0.82224 0.5055 0.0
C1764 C 0.29238 0.84846 0.504 0.0
C1765 C 0.31987 0.85222 0.50038 0.0
C1766 C 0.3365 0.83089 0.49877 0.0
C1767 C 0.36549 0.84022 0.49691 0.0
C1768 C 0.38186 0.83002 0.52043 0.0
C1769 C 0.37732 0.83159 0.46991 0.0
C1770 C 0.3628 0.8702 0.49883 0.0
C1771 C 0.33627 0.87676 0.50037 0.0
C1772 C 0.32898 0.90292 0.50572 0.0
C1773 C 0.34924 0.92249 0.51124 0.0
C1774 C 0.37639 0.91583 0.51109 0.0
C1775 C 0.38321 0.8897 0.5035 0.0
H1776 H 0.52433 0.72648 0.7088 0.0
H1777 H 0.47488 0.6743 0.75697 0.0
H1778 H 0.47216 0.64072 0.71986 0.0
H1779 H 0.49611 0.70716 0.64217 0.0
H1780 H 0.52841 0.70742 0.62657 0.0
H1781 H 0.52264 0.72944 0.65489 0.0
H1782 H 0.56252 0.71019 0.68026 0.0
H1783 H 0.56866 0.68858 0.65186 0.0
H1784 H 0.56349 0.67465 0.68431 0.0
H1785 H 0.47626 0.61184 0.67809 0.0
H1786 H 0.49524 0.58617 0.64022 0.0
H1787 H 0.54591 0.6549 0.62135 0.0
C1788 C 0.51251 0.70818 0.71122 0.0
C1789 C 0.49875 0.70351 0.73524 0.0
C1790 C 0.48456 0.67879 0.73826 0.0
C1791 C 0.48289 0.6596 0.71728 0.0
C1792 C 0.49618 0.66502 0.69358 0.0
C1793 C 0.51131 0.68843 0.69072 0.0
C1794 C 0.52697 0.68762 0.66494 0.0
C1795 C 0.51799 0.7092 0.64603 0.0
C1796 C 0.55719 0.69041 0.67069 0.0
C1797 C 0.5188 0.6599 0.65411 0.0
C1798 C 0.50029 0.64752 0.67043 0.0
C1799 C 0.49065 0.62138 0.66508 0.0
C1800 C 0.50131 0.607 0.64337 0.0
C1801 C 0.52188 0.61862 0.62784 0.0
C1802 C 0.52991 0.6457 0.63271 0.0
H1803 H 0.47977 0.81146 0.69234 0.0
H1804 H 0.54287 0.86474 0.72484 0.0
H1805 H 0.54649 0.88674 0.68134 0.0
H1806 H 0.50632 0.80625 0.62309 0.0
H1807 H 0.4733 0.80583 0.60855 0.0
H1808 H 0.4784 0.79193 0.64093 0.0
H1809 H 0.44325 0.82296 0.66156 0.0
H1810 H 0.43769 0.83631 0.6292 0.0
H1811 H 0.44688 0.85845 0.65707 0.0
H1812 H 0.53889 0.90673 0.6361 0.0
H1813 H 0.51757 0.92521 0.59633 0.0
H1814 H 0.46104 0.85759 0.59278 0.0
C1815 C 0.49448 0.82765 0.69025 0.0
C1816 C 0.51099 0.83642 0.712 0.0
C1817 C 0.53014 0.85754 0.70838 0.0
C1818 C 0.53243 0.87005 0.68369 0.0
C1819 C 0.51578 0.86093 0.66262 0.0
C1820 C 0.49719 0.84015 0.66572 0.0
C1821 C 0.47995 0.83562 0.64096 0.0
C1822 C 0.48479 0.80828 0.6276 0.0
C1823 C 0.45021 0.83854 0.6476 0.0
C1824 C 0.49063 0.8581 0.624 0.0
C1825 C 0.51175 0.87213 0.63647 0.0
C1826 C 0.52274 0.89557 0.6259 0.0
C1827 C 0.51068 0.90583 0.60308 0.0
C1828 C 0.48768 0.89281 0.59146 0.0
C1829 C 0.47882 0.86778 0.60106 0.0
H1830 H 0.56394 0.33271 0.83289 0.0
H1831 H 0.48941 0.36026 0.80095 0.0
H1832 H 0.48254 0.38629 0.84265 0.0
H1833 H 0.54414 0.32775 0.90131 0.0
H1834 H 0.57574 0.34055 0.91471 0.0
H1835 H 0.57438 0.3229 0.88282 0.0
H1836 H 0.59804 0.36332 0.8604 0.0
H1837 H 0.59995 0.38073 0.89236 0.0
H1838 H 0.58435 0.39589 0.86435 0.0
H1839 H 0.48375 0.40967 0.88816 0.0
H1840 H 0.49658 0.43348 0.93074 0.0
H1841 H 0.57073 0.39185 0.93181 0.0
C1842 C 0.54631 0.34442 0.83445 0.0
C1843 C 0.52704 0.34398 0.81365 0.0
C1844 C 0.50418 0.35961 0.81678 0.0
C1845 C 0.50008 0.37455 0.84041 0.0
C1846 C 0.51912 0.37394 0.86074 0.0
C1847 C 0.54202 0.35968 0.85779 0.0
C1848 C 0.56015 0.36361 0.88201 0.0
C1849 C 0.5638 0.33712 0.89604 0.0
C1850 C 0.58721 0.37667 0.87432 0.0
C1851 C 0.54395 0.38245 0.8989 0.0
C1852 C 0.52015 0.3879 0.88653 0.0
C1853 C 0.50232 0.4055 0.89808 0.0
C1854 C 0.50961 0.41874 0.92235 0.0
C1855 C 0.5346 0.41447 0.93444 0.0
C1856 C 0.55148 0.39546 0.92296 0.0
H1857 H 0.52086 0.23254 0.82577 0.0
H1858 H 0.56581 0.17615 0.77904 0.0
H1859 H 0.56962 0.1478 0.81836 0.0
H1860 H 0.55322 0.22329 0.89195 0.0
H1861 H 0.52198 0.2248 0.90943 0.0
H1862 H 0.52698 0.24314 0.8793 0.0
H1863 H 0.48462 0.21966 0.85798 0.0
H1864 H 0.47928 0.20178 0.88818 0.0
H1865 H 0.48171 0.18371 0.85666 0.0
H1866 H 0.56552 0.12375 0.8616 0.0
H1867 H 0.54627 0.10203 0.90118 0.0
H1868 H 0.50178 0.1726 0.91903 0.0
C1869 C 0.53202 0.21452 0.82414 0.0
C1870 C 0.54402 0.20704 0.79979 0.0
C1871 C 0.5574 0.18272 0.79788 0.0
C1872 C 0.55972 0.16654 0.82011 0.0
C1873 C 0.54808 0.17467 0.84406 0.0
C1874 C 0.53405 0.19786 0.84604 0.0
C1875 C 0.52004 0.20008 0.87267 0.0
C1876 C 0.53123 0.22427 0.88932 0.0
C1877 C 0.48962 0.20136 0.86862 0.0
C1878 C 0.5276 0.17411 0.88495 0.0
C1879 C 0.54449 0.16011 0.86853 0.0
C1880 C 0.55254 0.13466 0.87478 0.0
C1881 C 0.54174 0.12254 0.89748 0.0
C1882 C 0.52264 0.13567 0.91319 0.0
C1883 C 0.51665 0.16227 0.90756 0.0
H1884 H 0.69241 0.49883 0.72958 0.0
H1885 H 0.73136 0.45624 0.66535 0.0
H1886 H 0.68889 0.45235 0.64001 0.0
H1887 H 0.62299 0.4671 0.7208 0.0
H1888 H 0.60778 0.49867 0.72676 0.0
H1889 H 0.63894 0.49192 0.74301 0.0
H1890 H 0.66096 0.53474 0.72346 0.0
H1891 H 0.62982 0.54172 0.70776 0.0
H1892 H 0.65953 0.53928 0.68788 0.0
H1893 H 0.6441 0.45757 0.61928 0.0
H1894 H 0.60581 0.48062 0.60069 0.0
H1895 H 0.59681 0.52325 0.67635 0.0
C1896 C 0.69162 0.48796 0.71054 0.0
C1897 C 0.71472 0.47663 0.69998 0.0
C1898 C 0.71351 0.46386 0.67437 0.0
C1899 C 0.68945 0.46152 0.65986 0.0
C1900 C 0.66683 0.47261 0.67093 0.0
C1901 C 0.66788 0.48609 0.69549 0.0
C1902 C 0.64249 0.50073 0.70056 0.0
C1903 C 0.62715 0.48889 0.72419 0.0
C1904 C 0.64857 0.53089 0.70515 0.0
C1905 C 0.62767 0.49466 0.67442 0.0
C1906 C 0.64145 0.47736 0.6581 0.0
C1907 C 0.63293 0.47082 0.632 0.0
C1908 C 0.61097 0.48381 0.62164 0.0
C1909 C 0.59843 0.50361 0.63716 0.0
C1910 C 0.60586 0.50782 0.66429 0.0
H1911 H 0.324 0.00478 0.71839 0.0
H1912 H 0.27513 0.04434 0.66114 0.0
H1913 H 0.31248 0.04511 0.62915 0.0
H1914 H 0.3887 0.03675 0.70177 0.0
H1915 H 0.40661 0.0065 0.70477 0.0
H1916 H 0.37721 0.01165 0.72452 0.0
H1917 H 0.35543 0.96719 0.70565 0.0
H1918 H 0.38502 0.96164 0.68653 0.0
H1919 H 0.35296 0.96157 0.66996 0.0
H1920 H 0.35442 0.04037 0.60278 0.0
H1921 H 0.39343 0.02156 0.58035 0.0
H1922 H 0.41483 0.98329 0.65353 0.0
C1923 C 0.32136 0.01373 0.69916 0.0
C1924 C 0.29704 0.02519 0.69242 0.0
C1925 C 0.29389 0.03602 0.66681 0.0
C1926 C 0.31504 0.03673 0.64863 0.0
C1927 C 0.33913 0.02606 0.65613 0.0
C1928 C 0.3422 0.01417 0.68051 0.0
C1929 C 0.36904 1.0014 0.68232 0.0
C1930 C 0.38641 0.01489 0.70468 0.0
C1931 C 0.36539 0.97117 0.68633 0.0
C1932 C 0.38027 0.00742 0.65494 0.0
C1933 C 0.36303 0.02237 0.64045 0.0
C1934 C 0.36826 0.02895 0.61402 0.0
C1935 C 0.39077 0.01856 0.60152 0.0
C1936 C 0.40749 1.00143 0.61532 0.0
C1937 C 0.40277 0.99689 0.64271 0.0
H1938 H 0.71645 0.51247 0.86141 0.0
H1939 H 0.67906 0.46129 0.79945 0.0
H1940 H 0.63596 0.46304 0.82312 0.0
H1941 H 0.68323 0.48172 0.91529 0.0
H1942 H 0.68048 0.5122 0.9349 0.0
H1943 H 0.70729 0.50899 0.9115 0.0
H1944 H 0.69273 0.55192 0.8887 0.0
H1945 H 0.66544 0.55482 0.91175 0.0
H1946 H 0.65902 0.55365 0.87624 0.0
H1947 H 0.59805 0.46783 0.85463 0.0
H1948 H 0.5696 0.47002 0.89463 0.0
H1949 H 0.63125 0.51747 0.9369 0.0
C1950 C 0.69907 0.50186 0.8528 0.0
C1951 C 0.70093 0.48678 0.82863 0.0
C1952 C 0.67799 0.47278 0.81806 0.0
C1953 C 0.65341 0.47394 0.83119 0.0
C1954 C 0.65215 0.48912 0.85492 0.0
C1955 C 0.67445 0.50251 0.86586 0.0
C1956 C 0.66832 0.51513 0.89292 0.0
C1957 C 0.68586 0.50382 0.91495 0.0
C1958 C 0.67157 0.5457 0.89235 0.0
C1959 C 0.63923 0.50627 0.89579 0.0
C1960 C 0.63017 0.49178 0.87333 0.0
C1961 C 0.6047 0.47962 0.87205 0.0
C1962 C 0.58854 0.48123 0.89472 0.0
C1963 C 0.59788 0.49487 0.9183 0.0
C1964 C 0.62321 0.50815 0.91861 0.0
H1965 H 0.3372 0.0441 0.80344 0.0
H1966 H 0.29379 0.9913 0.8563 0.0
H1967 H 0.33576 0.9833 0.88062 0.0
H1968 H 0.40022 0.00712 0.80222 0.0
H1969 H 0.42051 0.03758 0.8019 0.0
H1970 H 0.38785 0.03608 0.78645 0.0
H1971 H 0.374 0.0767 0.81581 0.0
H1972 H 0.40673 0.07863 0.83067 0.0
H1973 H 0.37773 0.07567 0.85162 0.0
H1974 H 0.3813 0.9859 0.90271 0.0
H1975 H 0.42398 1.00295 0.92301 0.0
H1976 H 0.43801 0.05223 0.85448 0.0
C1977 C 0.33656 0.03075 0.82006 0.0
C1978 C 0.31226 0.0184 0.82805 0.0
C1979 C 0.31226 1.00085 0.84974 0.0
C1980 C 0.33602 0.99605 0.86355 0.0
C1981 C 0.35971 0.00855 0.85512 0.0
C1982 C 0.36008 0.02555 0.83384 0.0
C1983 C 0.38749 0.03851 0.83022 0.0
C1984 C 0.39973 0.02926 0.80361 0.0
C1985 C 0.38641 0.06917 0.83223 0.0
C1986 C 0.40213 0.02746 0.85377 0.0
C1987 C 0.38604 0.00964 0.86755 0.0
C1988 C 0.39427 0.99938 0.89179 0.0
C1989 C 0.41871 0.00896 0.9031 0.0
C1990 C 0.43427 0.02888 0.89028 0.0
C1991 C 0.42666 0.03673 0.86453 0.0
H1992 H 0.72569 0.67662 0.52221 0.0
H1993 H 0.66907 0.71983 0.47612 0.0
H1994 H 0.63693 0.68128 0.47696 0.0
H1995 H 0.70675 0.60777 0.49608 0.0
H1996 H 0.70991 0.59368 0.52862 0.0
H1997 H 0.73057 0.62235 0.52 0.0
H1998 H 0.71368 0.64867 0.56157 0.0
H1999 H 0.69348 0.61996 0.57044 0.0
H2000 H 0.67827 0.65155 0.56621 0.0
H2001 H 0.60952 0.63972 0.48566 0.0
H2002 H 0.58589 0.60343 0.50941 0.0
H2003 H 0.65881 0.58829 0.55247 0.0
C2004 C 0.70672 0.6776 0.51187 0.0
C2005 C 0.70016 0.70074 0.49832 0.0
C2006 C 0.67475 0.70189 0.48588 0.0
C2007 C 0.65644 0.68006 0.48614 0.0
C2008 C 0.66357 0.65731 0.49935 0.0
C2009 C 0.68791 0.65614 0.51245 0.0
C2010 C 0.68901 0.63115 0.52862 0.0
C2011 C 0.71033 0.61265 0.51767 0.0
C2012 C 0.69387 0.63826 0.55847 0.0
C2013 C 0.66114 0.6191 0.52349 0.0
C2014 C 0.64713 0.63394 0.50573 0.0
C2015 C 0.62037 0.62776 0.49938 0.0
C2016 C 0.60713 0.60694 0.51277 0.0
C2017 C 0.62056 0.59303 0.53267 0.0
C2018 C 0.64819 0.5984 0.53706 0.0
H2019 H 0.70458 0.33218 0.97693 0.0
H2020 H 0.67296 0.29731 0.04923 0.0
H2021 H 0.6459 0.33651 0.05695 0.0
H2022 H 0.70621 0.40087 0.99863 0.0
H2023 H 0.69455 0.4128 0.96716 0.0
H2024 H 0.71313 0.38281 0.96794 0.0
H2025 H 0.67463 0.35635 0.94283 0.0
H2026 H 0.65622 0.38638 0.94154 0.0
H2027 H 0.64128 0.35697 0.95602 0.0
H2028 H 0.62232 0.38009 0.05736 0.0
H2029 H 0.59839 0.42058 0.04589 0.0
H2030 H 0.64242 0.42494 0.9718 0.0
C2031 C 0.69182 0.33249 0.99427 0.0
C2032 C 0.69167 0.31167 0.01278 0.0
C2033 C 0.67445 0.31326 0.03517 0.0
C2034 C 0.65879 0.33547 0.03974 0.0
C2035 C 0.66003 0.35586 0.02151 0.0
C2036 C 0.6756 0.35428 0.99887 0.0
C2037 C 0.67176 0.37797 0.98136 0.0
C2038 C 0.69798 0.39459 0.97862 0.0
C2039 C 0.66028 0.36887 0.95382 0.0
C2040 C 0.65158 0.39302 0.99767 0.0
C2041 C 0.64542 0.38023 0.02102 0.0
C2042 C 0.62695 0.39026 0.0391 0.0
C2043 C 0.61363 0.41337 0.03258 0.0
C2044 C 0.6186 0.4258 0.00801 0.0
C2045 C 0.6383 0.41583 0.99076 0.0
H2046 H 0.32111 0.20016 0.98499 0.0
H2047 H 0.36991 0.2444 0.04426 0.0
H2048 H 0.39812 0.20538 0.04903 0.0
H2049 H 0.32498 0.13438 0.01633 0.0
H2050 H 0.32616 0.11681 0.98445 0.0
H2051 H 0.30845 0.14733 0.98764 0.0
H2052 H 0.33677 0.16799 0.94968 0.0
H2053 H 0.35397 0.13737 0.94605 0.0
H2054 H 0.37269 0.1684 0.95219 0.0
H2055 H 0.4242 0.16323 0.04306 0.0
H2056 H 0.44692 0.12407 0.02432 0.0
H2057 H 0.37906 0.10599 0.97194 0.0
C2058 C 0.33769 0.20156 0.99904 0.0
C2059 C 0.3434 0.22531 0.01418 0.0
C2060 C 0.36512 0.22633 0.03254 0.0
C2061 C 0.38116 0.20421 0.03548 0.0
C2062 C 0.37491 0.18099 0.02034 0.0
C2063 C 0.3536 0.17955 1.00254 0.0
C2064 C 0.35201 0.15298 0.9874 0.0
C2065 C 0.32638 0.13693 0.99438 0.0
C2066 C 0.354 0.15693 0.95705 0.0
C2067 C 0.37651 0.14019 0.99843 0.0
C2068 C 0.38928 0.15639 0.01775 0.0
C2069 C 0.41401 0.15004 0.02846 0.0
C2070 C 0.42666 0.12746 0.01803 0.0
C2071 C 0.41457 0.11164 0.99707 0.0
C2072 C 0.38853 0.11735 0.98839 0.0
H2073 H 0.85986 0.29969 0.02758 0.0
H2074 H 0.79052 0.32738 0.98614 0.0
H2075 H 0.81321 0.37193 0.98183 0.0
H2076 H 0.87361 0.36115 0.06628 0.0
H2077 H 0.90925 0.35783 0.06485 0.0
H2078 H 0.88734 0.32851 0.0637 0.0
H2079 H 0.90928 0.31324 0.01932 0.0
H2080 H 0.93078 0.34288 0.02008 0.0
H2081 H 0.90971 0.33507 0.99133 0.0
H2082 H 0.84489 0.41369 0.98146 0.0
H2083 H 0.87961 0.44975 0.99069 0.0
H2084 H 0.92605 0.39434 0.03456 0.0
C2085 C 0.84915 0.31535 0.01829 0.0
C2086 C 0.82318 0.31042 0.0078 0.0
C2087 C 0.81028 0.33106 0.99471 0.0
C2088 C 0.82308 0.35628 0.99201 0.0
C2089 C 0.84877 0.36053 1.0026 0.0
C2090 C 0.86142 0.34069 0.0159 0.0
C2091 C 0.88853 0.35041 0.02642 0.0
C2092 C 0.88974 0.34942 0.05713 0.0
C2093 C 0.91089 0.33445 0.01351 0.0
C2094 C 0.8892 0.37881 0.01708 0.0
C2095 C 0.86638 0.38432 1.00296 0.0
C2096 C 0.8628 0.40955 0.99254 0.0
C2097 C 0.88266 0.42984 0.99758 0.0
C2098 C 0.9054 0.42464 0.01315 0.0
C2099 C 0.90882 0.39873 0.02247 0.0
loop_
_geom_bond_atom_site_label_1
_geom_bond_atom_site_label_2
_geom_bond_distance
_geom_bond_site_symmetry_2
_ccdc_geom_bond_type
C0 C1 1.443 . S
C0 N4 1.376 . S
C0 C38 1.389 . S
C1 C0 1.443 . S
C1 C2 1.340 . S
C1 H41 0.951 . S
C2 C1 1.340 . S
C2 C3 1.439 . S
C2 H42 0.950 . S
C3 C2 1.439 . S
C3 N4 1.374 . S
C3 C37 1.395 . S
N4 C0 1.376 . S
N4 C3 1.374 . S
N4 Co5 2.008 1_655 S
Co5 N4 2.008 1_455 S
Co5 N6 1.995 1_455 S
Co5 N11 2.008 . S
Co5 N16 1.995 . S
Co5 N21 2.282 . S
Co5 N27 2.282 . S
N6 Co5 1.995 1_655 S
N6 C7 1.376 . S
N6 C10 1.383 . S
C7 N6 1.376 . S
C7 C8 1.446 . S
C7 C37 1.391 . S
C8 C7 1.446 . S
C8 C9 1.339 . S
C8 H43 0.949 . S
C9 C8 1.339 . S
C9 C10 1.439 . S
C9 H44 0.950 . S
C10 N6 1.383 . S
C10 C9 1.439 . S
C10 C39 1.392 1_655 S
N11 Co5 2.008 . S
N11 C12 1.376 . S
N11 C15 1.374 . S
C12 N11 1.376 . S
C12 C13 1.443 . S
C12 C39 1.389 . S
C13 C12 1.443 . S
C13 C14 1.340 . S
C13 H45 0.951 . S
C14 C13 1.340 . S
C14 C15 1.439 . S
C14 H46 0.950 . S
C15 N11 1.374 . S
C15 C14 1.439 . S
C15 C40 1.395 . S
N16 Co5 1.995 . S
N16 C17 1.376 . S
N16 C20 1.383 . S
C17 N16 1.376 . S
C17 C18 1.446 . S
C17 C40 1.391 . S
C18 C17 1.446 . S
C18 C19 1.339 . S
C18 H47 0.949 . S
C19 C18 1.339 . S
C19 C20 1.439 . S
C19 H48 0.950 . S
C20 N16 1.383 . S
C20 C19 1.439 . S
C20 C38 1.392 1_455 S
N21 Co5 2.282 . S
N21 C24 1.332 . S
N21 C26 1.332 1_455 S
C22 C23 1.386 . S
C22 C25 1.388 . S
C23 C22 1.386 . S
C23 C24 1.382 . S
C23 H49 0.950 . S
C24 N21 1.332 . S
C24 C23 1.382 . S
C24 H35 0.952 . S
C25 C22 1.388 . S
C25 C26 1.382 1_455 S
C25 H50 0.950 1_455 S
C26 N21 1.332 1_655 S
C26 C25 1.382 1_655 S
C26 H36 0.948 . S
N27 Co5 2.282 . S
N27 C31 1.332 1_455 S
N27 C32 1.332 . S
C28 C29 1.388 1_455 S
C28 C32 1.382 . S
C28 H51 0.950 . S
C29 C28 1.388 1_655 S
C29 C30 1.386 . S
C30 C29 1.386 . S
C30 C31 1.382 . S
C30 H52 0.950 . S
C31 N27 1.332 1_655 S
C31 C30 1.382 . S
C31 H33 0.952 . S
C32 N27 1.332 . S
C32 C28 1.382 . S
C32 H34 0.948 . S
H33 C31 0.952 . S
H34 C32 0.948 . S
H35 C24 0.952 . S
H36 C26 0.948 . S
C37 C3 1.395 . S
C37 C7 1.391 . S
C38 C0 1.389 . S
C38 C20 1.392 1_655 S
C39 C10 1.392 1_455 S
C39 C12 1.389 . S
C40 C15 1.395 . S
C40 C17 1.391 . S
H41 C1 0.951 . S
H42 C2 0.950 . S
H43 C8 0.949 . S
H44 C9 0.950 . S
H45 C13 0.951 . S
H46 C14 0.950 . S
H47 C18 0.949 . S
H48 C19 0.950 . S
H49 C23 0.950 . S
H50 C25 0.950 1_655 S
H51 C28 0.950 . S
H52 C30 0.950 . S
C53 C54 1.443 . S
C53 N57 1.376 . S
C53 C91 1.389 . S
C54 C53 1.443 . S
C54 C55 1.340 . S
C54 H94 0.951 . S
C55 C54 1.340 . S
C55 C56 1.439 . S
C55 H95 0.950 . S
C56 C55 1.439 . S
C56 N57 1.374 . S
C56 C90 1.395 . S
N57 C53 1.376 . S
N57 C56 1.374 . S
N57 Co58 2.008 1_655 S
Co58 N57 2.008 1_455 S
Co58 N59 1.995 1_455 S
Co58 N64 2.008 . S
Co58 N69 1.995 . S
Co58 N74 2.282 . S
Co58 N80 2.282 1_455 S
N59 Co58 1.995 1_655 S
N59 C60 1.376 . S
N59 C63 1.383 . S
C60 N59 1.376 . S
C60 C61 1.446 . S
C60 C90 1.391 . S
C61 C60 1.446 . S
C61 C62 1.339 . S
C61 H96 0.949 . S
C62 C61 1.339 . S
C62 C63 1.439 . S
C62 H97 0.950 . S
C63 N59 1.383 . S
C63 C62 1.439 . S
C63 C92 1.392 1_655 S
N64 Co58 2.008 . S
N64 C65 1.376 . S
N64 C68 1.374 . S
C65 N64 1.376 . S
C65 C66 1.443 . S
C65 C92 1.389 . S
C66 C65 1.443 . S
C66 C67 1.340 . S
C66 H98 0.951 . S
C67 C66 1.340 . S
C67 C68 1.439 . S
C67 H99 0.950 . S
C68 N64 1.374 . S
C68 C67 1.439 . S
C68 C93 1.395 . S
N69 Co58 1.995 . S
N69 C70 1.376 . S
N69 C73 1.383 . S
C70 N69 1.376 . S
C70 C71 1.446 . S
C70 C93 1.391 . S
C71 C70 1.446 . S
C71 C72 1.339 . S
C71 H100 0.949 . S
C72 C71 1.339 . S
C72 C73 1.439 . S
C72 H101 0.950 . S
C73 N69 1.383 . S
C73 C72 1.439 . S
C73 C91 1.392 1_455 S
N74 Co58 2.282 . S
N74 C77 1.332 . S
N74 C79 1.332 1_455 S
C75 C76 1.386 . S
C75 C78 1.388 1_455 S
C76 C75 1.386 . S
C76 C77 1.382 . S
C76 H102 0.950 . S
C77 N74 1.332 . S
C77 C76 1.382 . S
C77 H88 0.952 . S
C78 C75 1.388 1_655 S
C78 C79 1.382 . S
C78 H103 0.950 . S
C79 N74 1.332 1_655 S
C79 C78 1.382 . S
C79 H89 0.948 . S
N80 Co58 2.282 1_655 S
N80 C84 1.332 . S
N80 C85 1.332 1_655 S
C81 C82 1.388 1_455 S
C81 C85 1.382 . S
C81 H104 0.950 . S
C82 C81 1.388 1_655 S
C82 C83 1.386 . S
C83 C82 1.386 . S
C83 C84 1.382 . S
C83 H105 0.950 . S
C84 N80 1.332 . S
C84 C83 1.382 . S
C84 H86 0.952 . S
C85 N80 1.332 1_455 S
C85 C81 1.382 . S
C85 H87 0.948 . S
H86 C84 0.952 . S
H87 C85 0.948 . S
H88 C77 0.952 . S
H89 C79 0.948 . S
C90 C56 1.395 . S
C90 C60 1.391 . S
C91 C53 1.389 . S
C91 C73 1.392 1_655 S
C92 C63 1.392 1_455 S
C92 C65 1.389 . S
C93 C68 1.395 . S
C93 C70 1.391 . S
H94 C54 0.951 . S
H95 C55 0.950 . S
H96 C61 0.949 . S
H97 C62 0.950 . S
H98 C66 0.951 . S
H99 C67 0.950 . S
H100 C71 0.949 . S
H101 C72 0.950 . S
H102 C76 0.950 . S
H103 C78 0.950 . S
H104 C81 0.950 . S
H105 C83 0.950 . S
C106 C107 1.443 . S
C106 N110 1.376 . S
C106 C144 1.389 . S
C107 C106 1.443 . S
C107 C108 1.340 . S
C107 H147 0.951 . S
C108 C107 1.340 . S
C108 C109 1.439 . S
C108 H148 0.950 . S
C109 C108 1.439 . S
C109 N110 1.374 . S
C109 C143 1.395 . S
N110 C106 1.376 . S
N110 C109 1.374 . S
N110 Co111 2.008 1_565 S
Co111 N110 2.008 1_545 S
Co111 N112 1.995 1_545 S
Co111 N117 2.008 . S
Co111 N122 1.995 . S
Co111 N127 2.282 . S
Co111 N133 2.282 . S
N112 Co111 1.995 1_565 S
N112 C113 1.376 . S
N112 C116 1.383 . S
C113 N112 1.376 . S
C113 C114 1.446 . S
C113 C143 1.391 . S
C114 C113 1.446 . S
C114 C115 1.339 . S
C114 H149 0.949 . S
C115 C114 1.339 . S
C115 C116 1.439 . S
C115 H150 0.950 . S
C116 N112 1.383 . S
C116 C115 1.439 . S
C116 C145 1.392 1_565 S
N117 Co111 2.008 . S
N117 C118 1.376 . S
N117 C121 1.374 . S
C118 N117 1.376 . S
C118 C119 1.443 . S
C118 C145 1.389 . S
C119 C118 1.443 . S
C119 C120 1.340 . S
C119 H151 0.951 . S
C120 C119 1.340 . S
C120 C121 1.439 . S
C120 H152 0.950 . S
C121 N117 1.374 . S
C121 C120 1.439 . S
C121 C146 1.395 . S
N122 Co111 1.995 . S
N122 C123 1.376 . S
N122 C126 1.383 . S
C123 N122 1.376 . S
C123 C124 1.446 . S
C123 C146 1.391 . S
C124 C123 1.446 . S
C124 C125 1.339 . S
C124 H153 0.949 . S
C125 C124 1.339 . S
C125 C126 1.439 . S
C125 H154 0.950 . S
C126 N122 1.383 . S
C126 C125 1.439 . S
C126 C144 1.392 1_545 S
N127 Co111 2.282 . S
N127 C130 1.332 . S
N127 C132 1.311 1_545 S
C128 C129 1.386 . S
C128 C131 1.388 . S
C129 C128 1.386 . S
C129 C130 1.382 . S
C129 H155 0.950 . S
C130 N127 1.332 . S
C130 C129 1.382 . S
C130 H141 0.952 . S
C131 C128 1.388 . S
C131 C132 1.375 1_545 S
C131 H156 0.950 1_545 S
C132 N127 1.311 1_565 S
C132 C131 1.375 1_565 S
C132 H142 0.979 . S
N133 Co111 2.282 . S
N133 C137 1.332 1_545 S
N133 C138 1.332 . S
C134 C135 1.388 1_545 S
C134 C138 1.382 . S
C134 H157 0.950 . S
C135 C134 1.388 1_565 S
C135 C136 1.386 . S
C136 C135 1.386 . S
C136 C137 1.382 . S
C136 H158 0.950 . S
C137 N133 1.332 1_565 S
C137 C136 1.382 . S
C137 H139 0.952 . S
C138 N133 1.332 . S
C138 C134 1.382 . S
C138 H140 0.948 . S
H139 C137 0.952 . S
H140 C138 0.948 . S
H141 C130 0.952 . S
H142 C132 0.979 . S
C143 C109 1.395 . S
C143 C113 1.391 . S
C144 C106 1.389 . S
C144 C126 1.392 1_565 S
C145 C116 1.392 1_545 S
C145 C118 1.389 . S
C146 C121 1.395 . S
C146 C123 1.391 . S
H147 C107 0.951 . S
H148 C108 0.950 . S
H149 C114 0.949 . S
H150 C115 0.950 . S
H151 C119 0.951 . S
H152 C120 0.950 . S
H153 C124 0.949 . S
H154 C125 0.950 . S
H155 C129 0.950 . S
H156 C131 0.950 1_565 S
H157 C134 0.950 . S
H158 C136 0.950 . S
C159 C160 1.443 . S
C159 N163 1.376 . S
C159 C197 1.389 . S
C160 C159 1.443 . S
C160 C161 1.340 . S
C160 H200 0.951 . S
C161 C160 1.340 . S
C161 C162 1.439 . S
C161 H201 0.950 . S
C162 C161 1.439 . S
C162 N163 1.374 . S
C162 C196 1.395 . S
N163 C159 1.376 . S
N163 C162 1.374 . S
N163 Co164 2.008 . S
Co164 N163 2.008 . S
Co164 N165 1.995 . S
Co164 N170 2.008 . S
Co164 N175 1.995 . S
Co164 N180 2.282 . S
Co164 N186 2.282 . S
N165 Co164 1.995 . S
N165 C166 1.376 . S
N165 C169 1.383 . S
C166 N165 1.376 . S
C166 C167 1.446 . S
C166 C196 1.391 . S
C167 C166 1.446 . S
C167 C168 1.339 . S
C167 H202 0.949 . S
C168 C167 1.339 . S
C168 C169 1.439 . S
C168 H203 0.950 . S
C169 N165 1.383 . S
C169 C168 1.439 . S
C169 C198 1.392 . S
N170 Co164 2.008 . S
N170 C171 1.376 . S
N170 C174 1.374 . S
C171 N170 1.376 . S
C171 C172 1.443 . S
C171 C198 1.389 . S
C172 C171 1.443 . S
C172 C173 1.340 . S
C172 H204 0.951 . S
C173 C172 1.340 . S
C173 C174 1.439 . S
C173 H205 0.950 . S
C174 N170 1.374 . S
C174 C173 1.439 . S
C174 C199 1.395 . S
N175 Co164 1.995 . S
N175 C176 1.376 . S
N175 C179 1.383 . S
C176 N175 1.376 . S
C176 C177 1.446 . S
C176 C199 1.391 . S
C177 C176 1.446 . S
C177 C178 1.339 . S
C177 H206 0.949 . S
C178 C177 1.339 . S
C178 C179 1.439 . S
C178 H207 0.950 . S
C179 N175 1.383 . S
C179 C178 1.439 . S
C179 C197 1.392 . S
N180 Co164 2.282 . S
N180 C183 1.332 . S
N180 C185 1.332 . S
C181 C182 1.386 . S
C181 C184 1.388 . S
C182 C181 1.386 . S
C182 C183 1.382 . S
C182 H208 0.950 . S
C183 N180 1.332 . S
C183 C182 1.382 . S
C183 H194 0.952 . S
C184 C181 1.388 . S
C184 C185 1.382 . S
C184 H209 0.950 . S
C185 N180 1.332 . S
C185 C184 1.382 . S
C185 H195 0.948 . S
N186 Co164 2.282 . S
N186 C190 1.332 . S
N186 C191 1.332 . S
C187 C188 1.388 . S
C187 C191 1.382 . S
C187 H210 0.950 . S
C188 C187 1.388 . S
C188 C189 1.386 . S
C189 C188 1.386 . S
C189 C190 1.382 . S
C189 H211 0.950 . S
C190 N186 1.332 . S
C190 C189 1.382 . S
C190 H192 0.952 . S
C191 N186 1.332 . S
C191 C187 1.382 . S
C191 H193 0.948 . S
H192 C190 0.952 . S
H193 C191 0.948 . S
H194 C183 0.952 . S
H195 C185 0.948 . S
C196 C162 1.395 . S
C196 C166 1.391 . S
C197 C159 1.389 . S
C197 C179 1.392 . S
C198 C169 1.392 . S
C198 C171 1.389 . S
C199 C174 1.395 . S
C199 C176 1.391 . S
H200 C160 0.951 . S
H201 C161 0.950 . S
H202 C167 0.949 . S
H203 C168 0.950 . S
H204 C172 0.951 . S
H205 C173 0.950 . S
H206 C177 0.949 . S
H207 C178 0.950 . S
H208 C182 0.950 . S
H209 C184 0.950 . S
H210 C187 0.950 . S
H211 C189 0.950 . S
C212 C213 1.443 . S
C212 N216 1.376 . S
C212 C250 1.389 . S
C213 C212 1.443 . S
C213 C214 1.340 . S
C213 H253 0.951 . S
C214 C213 1.340 . S
C214 C215 1.439 . S
C214 H254 0.950 . S
C215 C214 1.439 . S
C215 N216 1.374 . S
C215 C249 1.395 . S
N216 C212 1.376 . S
N216 C215 1.374 . S
N216 Co217 2.008 1_556 S
Co217 N216 2.008 1_554 S
Co217 N218 1.995 1_554 S
Co217 N223 2.008 . S
Co217 N228 1.995 . S
Co217 N233 2.282 . S
Co217 N239 2.287 . S
N218 Co217 1.995 1_556 S
N218 C219 1.376 . S
N218 C222 1.383 . S
C219 N218 1.376 . S
C219 C220 1.446 . S
C219 C249 1.391 . S
C220 C219 1.446 . S
C220 C221 1.339 . S
C220 H255 0.949 . S
C221 C220 1.339 . S
C221 C222 1.439 . S
C221 H256 0.950 . S
C222 N218 1.383 . S
C222 C221 1.439 . S
C222 C251 1.392 1_556 S
N223 Co217 2.008 . S
N223 C224 1.376 . S
N223 C227 1.374 . S
C224 N223 1.376 . S
C224 C225 1.443 . S
C224 C251 1.389 . S
C225 C224 1.443 . S
C225 C226 1.340 . S
C225 H257 0.951 . S
C226 C225 1.340 . S
C226 C227 1.439 . S
C226 H258 0.950 . S
C227 N223 1.374 . S
C227 C226 1.439 . S
C227 C252 1.395 . S
N228 Co217 1.995 . S
N228 C229 1.376 . S
N228 C232 1.383 . S
C229 N228 1.376 . S
C229 C230 1.446 . S
C229 C252 1.391 . S
C230 C229 1.446 . S
C230 C231 1.339 . S
C230 H259 0.949 . S
C231 C230 1.339 . S
C231 C232 1.439 . S
C231 H260 0.950 . S
C232 N228 1.383 . S
C232 C231 1.439 . S
C232 C250 1.392 1_554 S
N233 Co217 2.282 . S
N233 C236 1.332 . S
N233 C238 1.332 1_554 S
C234 C235 1.386 . S
C234 C237 1.388 1_554 S
C235 C234 1.386 . S
C235 C236 1.382 . S
C235 H261 0.950 . S
C236 N233 1.332 . S
C236 C235 1.382 . S
C236 H247 0.952 . S
C237 C234 1.388 1_556 S
C237 C238 1.382 . S
C237 H262 0.950 . S
C238 N233 1.332 1_556 S
C238 C237 1.382 . S
C238 H248 0.948 . S
N239 Co217 2.287 . S
N239 C243 1.295 1_554 S
N239 C244 1.361 . S
C240 C241 1.388 1_554 S
C240 C244 1.382 . S
C240 H263 0.950 . S
C241 C240 1.388 1_556 S
C241 C242 1.386 . S
C242 C241 1.386 . S
C242 C243 1.382 . S
C242 H264 0.950 . S
C243 N239 1.295 1_556 S
C243 C242 1.382 . S
C243 H245 0.952 . S
C244 N239 1.361 . S
C244 C240 1.382 . S
C244 H246 0.948 . S
H245 C243 0.952 . S
H246 C244 0.948 . S
H247 C236 0.952 . S
H248 C238 0.948 . S
C249 C215 1.395 . S
C249 C219 1.391 . S
C250 C212 1.389 . S
C250 C232 1.392 1_556 S
C251 C222 1.392 1_554 S
C251 C224 1.389 . S
C252 C227 1.395 . S
C252 C229 1.391 . S
H253 C213 0.951 . S
H254 C214 0.950 . S
H255 C220 0.949 . S
H256 C221 0.950 . S
H257 C225 0.951 . S
H258 C226 0.950 . S
H259 C230 0.949 . S
H260 C231 0.950 . S
H261 C235 0.950 . S
H262 C237 0.950 . S
H263 C240 0.950 . S
H264 C242 0.950 . S
C265 C266 1.443 . S
C265 N269 1.376 . S
C265 C303 1.389 . S
C266 C265 1.443 . S
C266 C267 1.340 . S
C266 H306 0.951 . S
C267 C266 1.340 . S
C267 C268 1.439 . S
C267 H307 0.950 . S
C268 C267 1.439 . S
C268 N269 1.374 . S
C268 C302 1.395 . S
N269 C265 1.376 . S
N269 C268 1.374 . S
N269 Co270 2.008 . S
Co270 N269 2.008 . S
Co270 N271 1.995 . S
Co270 N276 2.008 . S
Co270 N281 1.995 . S
Co270 N286 2.282 . S
Co270 N292 2.282 . S
N271 Co270 1.995 . S
N271 C272 1.376 . S
N271 C275 1.383 . S
C272 N271 1.376 . S
C272 C273 1.446 . S
C272 C302 1.391 . S
C273 C272 1.446 . S
C273 C274 1.339 . S
C273 H308 0.949 . S
C274 C273 1.339 . S
C274 C275 1.439 . S
C274 H309 0.950 . S
C275 N271 1.383 . S
C275 C274 1.439 . S
C275 C304 1.392 . S
N276 Co270 2.008 . S
N276 C277 1.376 . S
N276 C280 1.374 . S
C277 N276 1.376 . S
C277 C278 1.443 . S
C277 C304 1.389 . S
C278 C277 1.443 . S
C278 C279 1.340 . S
C278 H310 0.951 . S
C279 C278 1.340 . S
C279 C280 1.439 . S
C279 H311 0.950 . S
C280 N276 1.374 . S
C280 C279 1.439 . S
C280 C305 1.395 . S
N281 Co270 1.995 . S
N281 C282 1.376 . S
N281 C285 1.383 . S
C282 N281 1.376 . S
C282 C283 1.446 . S
C282 C305 1.391 . S
C283 C282 1.446 . S
C283 C284 1.339 . S
C283 H312 0.949 . S
C284 C283 1.339 . S
C284 C285 1.439 . S
C284 H313 0.950 . S
C285 N281 1.383 . S
C285 C284 1.439 . S
C285 C303 1.392 . S
N286 Co270 2.282 . S
N286 C289 1.332 . S
N286 C291 1.332 . S
C287 C288 1.386 . S
C287 C290 1.388 . S
C288 C287 1.386 . S
C288 C289 1.382 . S
C288 H314 0.950 . S
C289 N286 1.332 . S
C289 C288 1.382 . S
C289 H300 0.952 . S
C290 C287 1.388 . S
C290 C291 1.382 . S
C290 H315 0.950 . S
C291 N286 1.332 . S
C291 C290 1.382 . S
C291 H301 0.948 . S
N292 Co270 2.282 . S
N292 C296 1.332 . S
N292 C297 1.332 . S
C293 C294 1.388 . S
C293 C297 1.382 . S
C293 H316 0.950 . S
C294 C293 1.388 . S
C294 C295 1.386 . S
C295 C294 1.386 . S
C295 C296 1.382 . S
C295 H317 0.950 . S
C296 N292 1.332 . S
C296 C295 1.382 . S
C296 H298 0.952 . S
C297 N292 1.332 . S
C297 C293 1.382 . S
C297 H299 0.948 . S
H298 C296 0.952 . S
H299 C297 0.948 . S
H300 C289 0.952 . S
H301 C291 0.948 . S
C302 C268 1.395 . S
C302 C272 1.391 . S
C303 C265 1.389 . S
C303 C285 1.392 . S
C304 C275 1.392 . S
C304 C277 1.389 . S
C305 C280 1.395 . S
C305 C282 1.391 . S
H306 C266 0.951 . S
H307 C267 0.950 . S
H308 C273 0.949 . S
H309 C274 0.950 . S
H310 C278 0.951 . S
H311 C279 0.950 . S
H312 C283 0.949 . S
H313 C284 0.950 . S
H314 C288 0.950 . S
H315 C290 0.950 . S
H316 C293 0.950 . S
H317 C295 0.950 . S
C318 C319 1.443 . S
C318 N322 1.376 . S
C318 C356 1.389 . S
C319 C318 1.443 . S
C319 C320 1.340 . S
C319 H359 0.951 . S
C320 C319 1.340 . S
C320 C321 1.439 . S
C320 H360 0.950 . S
C321 C320 1.439 . S
C321 N322 1.374 . S
C321 C355 1.395 . S
N322 C318 1.376 . S
N322 C321 1.374 . S
N322 Co323 2.008 . S
Co323 N322 2.008 . S
Co323 N324 1.995 . S
Co323 N329 2.008 . S
Co323 N334 1.995 . S
Co323 N339 2.282 . S
Co323 N345 2.282 . S
N324 Co323 1.995 . S
N324 C325 1.376 . S
N324 C328 1.383 . S
C325 N324 1.376 . S
C325 C326 1.446 . S
C325 C355 1.391 . S
C326 C325 1.446 . S
C326 C327 1.339 . S
C326 H361 0.949 . S
C327 C326 1.339 . S
C327 C328 1.439 . S
C327 H362 0.950 . S
C328 N324 1.383 . S
C328 C327 1.439 . S
C328 C357 1.392 . S
N329 Co323 2.008 . S
N329 C330 1.376 . S
N329 C333 1.374 . S
C330 N329 1.376 . S
C330 C331 1.443 . S
C330 C357 1.389 . S
C331 C330 1.443 . S
C331 C332 1.340 . S
C331 H363 0.951 . S
C332 C331 1.340 . S
C332 C333 1.439 . S
C332 H364 0.950 . S
C333 N329 1.374 . S
C333 C332 1.439 . S
C333 C358 1.395 . S
N334 Co323 1.995 . S
N334 C335 1.376 . S
N334 C338 1.383 . S
C335 N334 1.376 . S
C335 C336 1.446 . S
C335 C358 1.391 . S
C336 C335 1.446 . S
C336 C337 1.339 . S
C336 H365 0.949 . S
C337 C336 1.339 . S
C337 C338 1.439 . S
C337 H366 0.950 . S
C338 N334 1.383 . S
C338 C337 1.439 . S
C338 C356 1.392 . S
N339 Co323 2.282 . S
N339 C342 1.332 . S
N339 C344 1.332 . S
C340 C341 1.386 . S
C340 C343 1.388 . S
C341 C340 1.386 . S
C341 C342 1.382 . S
C341 H367 0.950 . S
C342 N339 1.332 . S
C342 C341 1.382 . S
C342 H353 0.952 . S
C343 C340 1.388 . S
C343 C344 1.382 . S
C343 H368 0.950 . S
C344 N339 1.332 . S
C344 C343 1.382 . S
C344 H354 0.948 . S
N345 Co323 2.282 . S
N345 C349 1.332 . S
N345 C350 1.332 . S
C346 C347 1.388 . S
C346 C350 1.382 . S
C346 H369 0.950 . S
C347 C346 1.388 . S
C347 C348 1.386 . S
C348 C347 1.386 . S
C348 C349 1.382 . S
C348 H370 0.950 . S
C349 N345 1.332 . S
C349 C348 1.382 . S
C349 H351 0.952 . S
C350 N345 1.332 . S
C350 C346 1.382 . S
C350 H352 0.948 . S
H351 C349 0.952 . S
H352 C350 0.948 . S
H353 C342 0.952 . S
H354 C344 0.948 . S
C355 C321 1.395 . S
C355 C325 1.391 . S
C356 C318 1.389 . S
C356 C338 1.392 . S
C357 C328 1.392 . S
C357 C330 1.389 . S
C358 C333 1.395 . S
C358 C335 1.391 . S
H359 C319 0.951 . S
H360 C320 0.950 . S
H361 C326 0.949 . S
H362 C327 0.950 . S
H363 C331 0.951 . S
H364 C332 0.950 . S
H365 C336 0.949 . S
H366 C337 0.950 . S
H367 C341 0.950 . S
H368 C343 0.950 . S
H369 C346 0.950 . S
H370 C348 0.950 . S
C371 C372 1.443 . S
C371 N375 1.376 . S
C371 C409 1.389 . S
C372 C371 1.443 . S
C372 C373 1.340 . S
C372 H412 0.951 . S
C373 C372 1.340 . S
C373 C374 1.439 . S
C373 H413 0.950 . S
C374 C373 1.439 . S
C374 N375 1.374 . S
C374 C408 1.395 . S
N375 C371 1.376 . S
N375 C374 1.374 . S
N375 Co376 2.008 . S
Co376 N375 2.008 . S
Co376 N377 1.995 . S
Co376 N382 2.008 . S
Co376 N387 1.995 . S
Co376 N392 2.282 . S
Co376 N398 2.282 . S
N377 Co376 1.995 . S
N377 C378 1.376 . S
N377 C381 1.383 . S
C378 N377 1.376 . S
C378 C379 1.446 . S
C378 C408 1.391 . S
C379 C378 1.446 . S
C379 C380 1.339 . S
C379 H414 0.949 . S
C380 C379 1.339 . S
C380 C381 1.439 . S
C380 H415 0.950 . S
C381 N377 1.383 . S
C381 C380 1.439 . S
C381 C410 1.392 . S
N382 Co376 2.008 . S
N382 C383 1.376 . S
N382 C386 1.374 . S
C383 N382 1.376 . S
C383 C384 1.443 . S
C383 C410 1.389 . S
C384 C383 1.443 . S
C384 C385 1.340 . S
C384 H416 0.951 . S
C385 C384 1.340 . S
C385 C386 1.439 . S
C385 H417 0.950 . S
C386 N382 1.374 . S
C386 C385 1.439 . S
C386 C411 1.395 . S
N387 Co376 1.995 . S
N387 C388 1.376 . S
N387 C391 1.383 . S
C388 N387 1.376 . S
C388 C389 1.446 . S
C388 C411 1.391 . S
C389 C388 1.446 . S
C389 C390 1.339 . S
C389 H418 0.949 . S
C390 C389 1.339 . S
C390 C391 1.439 . S
C390 H419 0.950 . S
C391 N387 1.383 . S
C391 C390 1.439 . S
C391 C409 1.392 . S
N392 Co376 2.282 . S
N392 C395 1.332 . S
N392 C397 1.332 . S
C393 C394 1.386 . S
C393 C396 1.388 . S
C394 C393 1.386 . S
C394 C395 1.382 . S
C394 H420 0.950 . S
C395 N392 1.332 . S
C395 C394 1.382 . S
C395 H406 0.952 . S
C396 C393 1.388 . S
C396 C397 1.382 . S
C396 H421 0.950 . S
C397 N392 1.332 . S
C397 C396 1.382 . S
C397 H407 0.948 . S
N398 Co376 2.282 . S
N398 C402 1.332 . S
N398 C403 1.332 . S
C399 C400 1.388 . S
C399 C403 1.382 . S
C399 H422 0.950 . S
C400 C399 1.388 . S
C400 C401 1.386 . S
C401 C400 1.386 . S
C401 C402 1.382 . S
C401 H423 0.950 . S
C402 N398 1.332 . S
C402 C401 1.382 . S
C402 H404 0.952 . S
C403 N398 1.332 . S
C403 C399 1.382 . S
C403 H405 0.948 . S
H404 C402 0.952 . S
H405 C403 0.948 . S
H406 C395 0.952 . S
H407 C397 0.948 . S
C408 C374 1.395 . S
C408 C378 1.391 . S
C409 C371 1.389 . S
C409 C391 1.392 . S
C410 C381 1.392 . S
C410 C383 1.389 . S
C411 C386 1.395 . S
C411 C388 1.391 . S
H412 C372 0.951 . S
H413 C373 0.950 . S
H414 C379 0.949 . S
H415 C380 0.950 . S
H416 C384 0.951 . S
H417 C385 0.950 . S
H418 C389 0.949 . S
H419 C390 0.950 . S
H420 C394 0.950 . S
H421 C396 0.950 . S
H422 C399 0.950 . S
H423 C401 0.950 . S
C424 C425 1.443 . S
C424 N428 1.376 . S
C424 C462 1.389 . S
C425 C424 1.443 . S
C425 C426 1.340 . S
C425 H465 0.951 . S
C426 C425 1.340 . S
C426 C427 1.439 . S
C426 H466 0.950 . S
C427 C426 1.439 . S
C427 N428 1.374 . S
C427 C461 1.395 . S
N428 C424 1.376 . S
N428 C427 1.374 . S
N428 Co429 2.008 . S
Co429 N428 2.008 . S
Co429 N430 1.995 . S
Co429 N435 2.008 . S
Co429 N440 1.995 . S
Co429 N445 2.282 . S
Co429 N451 2.282 . S
N430 Co429 1.995 . S
N430 C431 1.376 . S
N430 C434 1.383 . S
C431 N430 1.376 . S
C431 C432 1.446 . S
C431 C461 1.391 . S
C432 C431 1.446 . S
C432 C433 1.339 . S
C432 H467 0.949 . S
C433 C432 1.339 . S
C433 C434 1.439 . S
C433 H468 0.950 . S
C434 N430 1.383 . S
C434 C433 1.439 . S
C434 C463 1.392 . S
N435 Co429 2.008 . S
N435 C436 1.376 . S
N435 C439 1.374 . S
C436 N435 1.376 . S
C436 C437 1.443 . S
C436 C463 1.389 . S
C437 C436 1.443 . S
C437 C438 1.340 . S
C437 H469 0.951 . S
C438 C437 1.340 . S
C438 C439 1.439 . S
C438 H470 0.950 . S
C439 N435 1.374 . S
C439 C438 1.439 . S
C439 C464 1.395 . S
N440 Co429 1.995 . S
N440 C441 1.376 . S
N440 C444 1.383 . S
C441 N440 1.376 . S
C441 C442 1.446 . S
C441 C464 1.391 . S
C442 C441 1.446 . S
C442 C443 1.339 . S
C442 H471 0.949 . S
C443 C442 1.339 . S
C443 C444 1.439 . S
C443 H472 0.950 . S
C444 N440 1.383 . S
C444 C443 1.439 . S
C444 C462 1.392 . S
N445 Co429 2.282 . S
N445 C448 1.332 . S
N445 C450 1.332 . S
C446 C447 1.386 . S
C446 C449 1.388 . S
C447 C446 1.386 . S
C447 C448 1.382 . S
C447 H473 0.950 . S
C448 N445 1.332 . S
C448 C447 1.382 . S
C448 H459 0.952 . S
C449 C446 1.388 . S
C449 C450 1.382 . S
C449 H474 0.950 . S
C450 N445 1.332 . S
C450 C449 1.382 . S
C450 H460 0.948 . S
N451 Co429 2.282 . S
N451 C455 1.332 . S
N451 C456 1.332 . S
C452 C453 1.388 . S
C452 C456 1.382 . S
C452 H475 0.950 . S
C453 C452 1.388 . S
C453 C454 1.386 . S
C454 C453 1.386 . S
C454 C455 1.382 . S
C454 H476 0.950 . S
C455 N451 1.332 . S
C455 C454 1.382 . S
C455 H457 0.952 . S
C456 N451 1.332 . S
C456 C452 1.382 . S
C456 H458 0.948 . S
H457 C455 0.952 . S
H458 C456 0.948 . S
H459 C448 0.952 . S
H460 C450 0.948 . S
C461 C427 1.395 . S
C461 C431 1.391 . S
C462 C424 1.389 . S
C462 C444 1.392 . S
C463 C434 1.392 . S
C463 C436 1.389 . S
C464 C439 1.395 . S
C464 C441 1.391 . S
H465 C425 0.951 . S
H466 C426 0.950 . S
H467 C432 0.949 . S
H468 C433 0.950 . S
H469 C437 0.951 . S
H470 C438 0.950 . S
H471 C442 0.949 . S
H472 C443 0.950 . S
H473 C447 0.950 . S
H474 C449 0.950 . S
H475 C452 0.950 . S
H476 C454 0.950 . S
C477 C478 1.443 . S
C477 N481 1.376 . S
C477 C515 1.389 . S
C478 C477 1.443 . S
C478 C479 1.340 . S
C478 H518 0.951 . S
C479 C478 1.340 . S
C479 C480 1.439 . S
C479 H519 0.950 . S
C480 C479 1.439 . S
C480 N481 1.374 . S
C480 C514 1.395 . S
N481 C477 1.376 . S
N481 C480 1.374 . S
N481 Co482 2.008 . S
Co482 N481 2.008 . S
Co482 N483 1.995 . S
Co482 N488 2.008 . S
Co482 N493 1.995 . S
Co482 N498 2.282 . S
Co482 N504 2.282 . S
N483 Co482 1.995 . S
N483 C484 1.376 . S
N483 C487 1.383 . S
C484 N483 1.376 . S
C484 C485 1.446 . S
C484 C514 1.391 . S
C485 C484 1.446 . S
C485 C486 1.339 . S
C485 H520 0.949 . S
C486 C485 1.339 . S
C486 C487 1.439 . S
C486 H521 0.950 . S
C487 N483 1.383 . S
C487 C486 1.439 . S
C487 C516 1.392 . S
N488 Co482 2.008 . S
N488 C489 1.376 . S
N488 C492 1.374 . S
C489 N488 1.376 . S
C489 C490 1.443 . S
C489 C516 1.389 . S
C490 C489 1.443 . S
C490 C491 1.340 . S
C490 H522 0.951 . S
C491 C490 1.340 . S
C491 C492 1.439 . S
C491 H523 0.950 . S
C492 N488 1.374 . S
C492 C491 1.439 . S
C492 C517 1.395 . S
N493 Co482 1.995 . S
N493 C494 1.376 . S
N493 C497 1.383 . S
C494 N493 1.376 . S
C494 C495 1.446 . S
C494 C517 1.391 . S
C495 C494 1.446 . S
C495 C496 1.339 . S
C495 H524 0.949 . S
C496 C495 1.339 . S
C496 C497 1.439 . S
C496 H525 0.950 . S
C497 N493 1.383 . S
C497 C496 1.439 . S
C497 C515 1.392 . S
N498 Co482 2.282 . S
N498 C501 1.332 . S
N498 C503 1.332 . S
C499 C500 1.386 . S
C499 C502 1.388 . S
C500 C499 1.386 . S
C500 C501 1.382 . S
C500 H526 0.950 . S
C501 N498 1.332 . S
C501 C500 1.382 . S
C501 H512 0.952 . S
C502 C499 1.388 . S
C502 C503 1.382 . S
C502 H527 0.950 . S
C503 N498 1.332 . S
C503 C502 1.382 . S
C503 H513 0.948 . S
N504 Co482 2.282 . S
N504 C508 1.332 . S
N504 C509 1.332 . S
C505 C506 1.388 . S
C505 C509 1.382 . S
C505 H528 0.950 . S
C506 C505 1.388 . S
C506 C507 1.386 . S
C507 C506 1.386 . S
C507 C508 1.382 . S
C507 H529 0.950 . S
C508 N504 1.332 . S
C508 C507 1.382 . S
C508 H510 0.952 . S
C509 N504 1.332 . S
C509 C505 1.382 . S
C509 H511 0.948 . S
H510 C508 0.952 . S
H511 C509 0.948 . S
H512 C501 0.952 . S
H513 C503 0.948 . S
C514 C480 1.395 . S
C514 C484 1.391 . S
C515 C477 1.389 . S
C515 C497 1.392 . S
C516 C487 1.392 . S
C516 C489 1.389 . S
C517 C492 1.395 . S
C517 C494 1.391 . S
H518 C478 0.951 . S
H519 C479 0.950 . S
H520 C485 0.949 . S
H521 C486 0.950 . S
H522 C490 0.951 . S
H523 C491 0.950 . S
H524 C495 0.949 . S
H525 C496 0.950 . S
H526 C500 0.950 . S
H527 C502 0.950 . S
H528 C505 0.950 . S
H529 C507 0.950 . S
C530 C531 1.443 . S
C530 N534 1.376 . S
C530 C568 1.389 . S
C531 C530 1.443 . S
C531 C532 1.340 . S
C531 H571 0.951 . S
C532 C531 1.340 . S
C532 C533 1.439 . S
C532 H572 0.950 . S
C533 C532 1.439 . S
C533 N534 1.374 . S
C533 C567 1.395 . S
N534 C530 1.376 . S
N534 C533 1.374 . S
N534 Co535 2.008 . S
Co535 N534 2.008 . S
Co535 N536 1.995 . S
Co535 N541 2.008 1_545 S
Co535 N546 1.995 1_545 S
Co535 N551 2.282 1_545 S
Co535 N557 2.282 . S
N536 Co535 1.995 . S
N536 C537 1.376 . S
N536 C540 1.383 . S
C537 N536 1.376 . S
C537 C538 1.446 . S
C537 C567 1.391 . S
C538 C537 1.446 . S
C538 C539 1.339 . S
C538 H573 0.949 . S
C539 C538 1.339 . S
C539 C540 1.439 . S
C539 H574 0.950 . S
C540 N536 1.383 . S
C540 C539 1.439 . S
C540 C569 1.392 1_545 S
N541 Co535 2.008 1_565 S
N541 C542 1.376 . S
N541 C545 1.374 . S
C542 N541 1.376 . S
C542 C543 1.443 . S
C542 C569 1.389 . S
C543 C542 1.443 . S
C543 C544 1.340 . S
C543 H575 0.951 . S
C544 C543 1.340 . S
C544 C545 1.439 . S
C544 H576 0.950 . S
C545 N541 1.374 . S
C545 C544 1.439 . S
C545 C570 1.395 . S
N546 Co535 1.995 1_565 S
N546 C547 1.376 . S
N546 C550 1.383 . S
C547 N546 1.376 . S
C547 C548 1.446 . S
C547 C570 1.391 . S
C548 C547 1.446 . S
C548 C549 1.339 . S
C548 H577 0.949 . S
C549 C548 1.339 . S
C549 C550 1.439 . S
C549 H578 0.950 . S
C550 N546 1.383 . S
C550 C549 1.439 . S
C550 C568 1.392 1_565 S
N551 Co535 2.282 1_565 S
N551 C554 1.332 . S
N551 C556 1.332 1_565 S
C552 C553 1.386 . S
C552 C555 1.388 1_565 S
C553 C552 1.386 . S
C553 C554 1.382 . S
C553 H579 0.950 . S
C554 N551 1.332 . S
C554 C553 1.382 . S
C554 H565 0.952 . S
C555 C552 1.388 1_545 S
C555 C556 1.382 . S
C555 H580 0.950 . S
C556 N551 1.332 1_545 S
C556 C555 1.382 . S
C556 H566 0.948 . S
N557 Co535 2.282 . S
N557 C561 1.332 . S
N557 C562 1.332 1_545 S
C558 C559 1.388 1_565 S
C558 C562 1.382 . S
C558 H581 0.950 . S
C559 C558 1.388 1_545 S
C559 C560 1.386 . S
C560 C559 1.386 . S
C560 C561 1.382 . S
C560 H582 0.950 . S
C561 N557 1.332 . S
C561 C560 1.382 . S
C561 H563 0.952 . S
C562 N557 1.332 1_565 S
C562 C558 1.382 . S
C562 H564 0.948 . S
H563 C561 0.952 . S
H564 C562 0.948 . S
H565 C554 0.952 . S
H566 C556 0.948 . S
C567 C533 1.395 . S
C567 C537 1.391 . S
C568 C530 1.389 . S
C568 C550 1.392 1_545 S
C569 C540 1.392 1_565 S
C569 C542 1.389 . S
C570 C545 1.395 . S
C570 C547 1.391 . S
H571 C531 0.951 . S
H572 C532 0.950 . S
H573 C538 0.949 . S
H574 C539 0.950 . S
H575 C543 0.951 . S
H576 C544 0.950 . S
H577 C548 0.949 . S
H578 C549 0.950 . S
H579 C553 0.950 . S
H580 C555 0.950 . S
H581 C558 0.950 . S
H582 C560 0.950 . S
C583 C584 1.443 . S
C583 N587 1.376 . S
C583 C621 1.389 . S
C584 C583 1.443 . S
C584 C585 1.340 . S
C584 H624 0.951 . S
C585 C584 1.340 . S
C585 C586 1.439 . S
C585 H625 0.950 . S
C586 C585 1.439 . S
C586 N587 1.374 . S
C586 C620 1.395 . S
N587 C583 1.376 . S
N587 C586 1.374 . S
N587 Co588 2.008 1_556 S
Co588 N587 2.008 1_554 S
Co588 N589 1.995 1_554 S
Co588 N594 2.008 . S
Co588 N599 1.995 . S
Co588 N604 2.282 . S
Co588 N610 2.282 1_554 S
N589 Co588 1.995 1_556 S
N589 C590 1.376 . S
N589 C593 1.383 . S
C590 N589 1.376 . S
C590 C591 1.446 . S
C590 C620 1.391 . S
C591 C590 1.446 . S
C591 C592 1.339 . S
C591 H626 0.949 . S
C592 C591 1.339 . S
C592 C593 1.439 . S
C592 H627 0.950 . S
C593 N589 1.383 . S
C593 C592 1.439 . S
C593 C622 1.392 1_556 S
N594 Co588 2.008 . S
N594 C595 1.376 . S
N594 C598 1.374 . S
C595 N594 1.376 . S
C595 C596 1.443 . S
C595 C622 1.389 . S
C596 C595 1.443 . S
C596 C597 1.340 . S
C596 H628 0.951 . S
C597 C596 1.340 . S
C597 C598 1.439 . S
C597 H629 0.950 . S
C598 N594 1.374 . S
C598 C597 1.439 . S
C598 C623 1.395 . S
N599 Co588 1.995 . S
N599 C600 1.376 . S
N599 C603 1.383 . S
C600 N599 1.376 . S
C600 C601 1.446 . S
C600 C623 1.391 . S
C601 C600 1.446 . S
C601 C602 1.339 . S
C601 H630 0.949 . S
C602 C601 1.339 . S
C602 C603 1.439 . S
C602 H631 0.950 . S
C603 N599 1.383 . S
C603 C602 1.439 . S
C603 C621 1.392 1_554 S
N604 Co588 2.282 . S
N604 C607 1.332 . S
N604 C609 1.332 1_554 S
C605 C606 1.386 . S
C605 C608 1.388 1_554 S
C606 C605 1.386 . S
C606 C607 1.382 . S
C606 H632 0.950 . S
C607 N604 1.332 . S
C607 C606 1.382 . S
C607 H618 0.952 . S
C608 C605 1.388 1_556 S
C608 C609 1.382 . S
C608 H633 0.950 . S
C609 N604 1.332 1_556 S
C609 C608 1.382 . S
C609 H619 0.948 . S
N610 Co588 2.282 1_556 S
N610 C614 1.332 . S
N610 C615 1.332 1_556 S
C611 C612 1.388 1_554 S
C611 C615 1.382 . S
C611 H634 0.950 . S
C612 C611 1.388 1_556 S
C612 C613 1.386 . S
C613 C612 1.386 . S
C613 C614 1.382 . S
C613 H635 0.950 . S
C614 N610 1.332 . S
C614 C613 1.382 . S
C614 H616 0.952 . S
C615 N610 1.332 1_554 S
C615 C611 1.382 . S
C615 H617 0.948 . S
H616 C614 0.952 . S
H617 C615 0.948 . S
H618 C607 0.952 . S
H619 C609 0.948 . S
C620 C586 1.395 . S
C620 C590 1.391 . S
C621 C583 1.389 . S
C621 C603 1.392 1_556 S
C622 C593 1.392 1_554 S
C622 C595 1.389 . S
C623 C598 1.395 . S
C623 C600 1.391 . S
H624 C584 0.951 . S
H625 C585 0.950 . S
H626 C591 0.949 . S
H627 C592 0.950 . S
H628 C596 0.951 . S
H629 C597 0.950 . S
H630 C601 0.949 . S
H631 C602 0.950 . S
H632 C606 0.950 . S
H633 C608 0.950 . S
H634 C611 0.950 . S
H635 C613 0.950 . S
Zn636 O642 1.920 . S
Zn636 O648 1.898 . S
Zn636 O651 1.905 . S
Zn637 O645 1.905 1_554 S
Zn637 O646 1.898 . S
Zn637 O654 1.920 . S
Zn638 O641 2.080 . S
Zn638 O644 2.114 . S
Zn638 O647 2.120 . S
Zn638 O649 2.120 . S
Zn638 O650 2.114 . S
Zn638 O653 2.080 . S
C639 O644 1.166 1_556 S
C639 O645 1.182 . S
C640 O646 1.167 . S
C640 O647 1.299 . S
O641 Zn638 2.080 . S
O641 C655 1.305 . S
O642 Zn636 1.920 . S
O642 C655 1.234 . S
C643 O648 1.167 . S
C643 O649 1.299 . S
O644 Zn638 2.114 . S
O644 C639 1.166 1_554 S
O645 Zn637 1.905 1_556 S
O645 C639 1.182 . S
O646 Zn637 1.898 . S
O646 C640 1.167 . S
O647 Zn638 2.120 . S
O647 C640 1.299 . S
O648 Zn636 1.898 . S
O648 C643 1.167 . S
O649 Zn638 2.120 . S
O649 C643 1.299 . S
O650 Zn638 2.114 . S
O650 C652 1.166 . S
O651 Zn636 1.905 . S
O651 C652 1.182 . S
C652 O650 1.166 . S
C652 O651 1.182 . S
O653 Zn638 2.080 . S
O653 C656 1.305 . S
O654 Zn637 1.920 . S
O654 C656 1.234 . S
C655 O641 1.305 . S
C655 O642 1.234 . S
C656 O653 1.305 . S
C656 O654 1.234 . S
Zn657 O663 1.920 1_655 S
Zn657 O669 1.898 . S
Zn657 O672 1.905 1_554 S
Zn658 O666 1.905 . S
Zn658 O667 1.898 . S
Zn658 O675 1.920 . S
Zn659 O662 2.080 . S
Zn659 O665 2.114 . S
Zn659 O668 2.120 . S
Zn659 O670 2.120 . S
Zn659 O671 2.114 . S
Zn659 O674 2.080 . S
C660 O665 1.166 . S
C660 O666 1.182 . S
C661 O667 1.167 . S
C661 O668 1.299 . S
O662 Zn659 2.080 . S
O662 C676 1.305 1_655 S
O663 Zn657 1.920 1_455 S
O663 C676 1.234 . S
C664 O669 1.167 . S
C664 O670 1.299 . S
O665 Zn659 2.114 . S
O665 C660 1.166 . S
O666 Zn658 1.905 . S
O666 C660 1.182 . S
O667 Zn658 1.898 . S
O667 C661 1.167 . S
O668 Zn659 2.120 . S
O668 C661 1.299 . S
O669 Zn657 1.898 . S
O669 C664 1.167 . S
O670 Zn659 2.120 . S
O670 C664 1.299 . S
O671 Zn659 2.114 . S
O671 C673 1.166 1_554 S
O672 Zn657 1.905 1_556 S
O672 C673 1.182 . S
C673 O671 1.166 1_556 S
C673 O672 1.182 . S
O674 Zn659 2.080 . S
O674 C677 1.305 . S
O675 Zn658 1.920 . S
O675 C677 1.234 . S
C676 O662 1.305 1_455 S
C676 O663 1.234 . S
C677 O674 1.305 . S
C677 O675 1.234 . S
Zn678 O684 1.920 1_565 S
Zn678 O690 1.898 . S
Zn678 O693 1.905 1_455 S
Zn679 O687 1.905 . S
Zn679 O688 1.898 . S
Zn679 O696 1.920 . S
Zn680 O683 2.080 . S
Zn680 O686 2.114 . S
Zn680 O689 2.120 . S
Zn680 O691 2.120 . S
Zn680 O692 2.114 . S
Zn680 O695 2.080 . S
C681 O686 1.166 . S
C681 O687 1.182 . S
C682 O688 1.167 . S
C682 O689 1.299 . S
O683 Zn680 2.080 . S
O683 C697 1.305 . S
O684 Zn678 1.920 1_545 S
O684 C697 1.234 1_545 S
C685 O690 1.167 . S
C685 O691 1.299 . S
O686 Zn680 2.114 . S
O686 C681 1.166 . S
O687 Zn679 1.905 . S
O687 C681 1.182 . S
O688 Zn679 1.898 . S
O688 C682 1.167 . S
O689 Zn680 2.120 . S
O689 C682 1.299 . S
O690 Zn678 1.898 . S
O690 C685 1.167 . S
O691 Zn680 2.120 . S
O691 C685 1.299 . S
O692 Zn680 2.114 . S
O692 C694 1.166 1_455 S
O693 Zn678 1.905 1_655 S
O693 C694 1.182 . S
C694 O692 1.166 1_655 S
C694 O693 1.182 . S
O695 Zn680 2.080 . S
O695 C698 1.305 . S
O696 Zn679 1.920 . S
O696 C698 1.234 . S
C697 O683 1.305 . S
C697 O684 1.234 1_565 S
C698 O695 1.305 . S
C698 O696 1.234 . S
Zn699 O705 1.920 . S
Zn699 O711 1.898 . S
Zn699 O714 1.905 . S
Zn700 O708 1.905 . S
Zn700 O709 1.898 1_655 S
Zn700 O717 1.920 . S
Zn701 O704 2.080 . S
Zn701 O707 2.114 . S
Zn701 O710 2.120 . S
Zn701 O712 2.120 . S
Zn701 O713 2.114 . S
Zn701 O716 2.080 . S
C702 O707 1.166 . S
C702 O708 1.182 . S
C703 O709 1.167 . S
C703 O710 1.299 1_455 S
O704 Zn701 2.080 . S
O704 C718 1.305 . S
O705 Zn699 1.920 . S
O705 C718 1.234 . S
C706 O711 1.167 . S
C706 O712 1.299 . S
O707 Zn701 2.114 . S
O707 C702 1.166 . S
O708 Zn700 1.905 . S
O708 C702 1.182 . S
O709 Zn700 1.898 1_455 S
O709 C703 1.167 . S
O710 Zn701 2.120 . S
O710 C703 1.299 1_655 S
O711 Zn699 1.898 . S
O711 C706 1.167 . S
O712 Zn701 2.120 . S
O712 C706 1.299 . S
O713 Zn701 2.114 . S
O713 C715 1.166 . S
O714 Zn699 1.905 . S
O714 C715 1.182 . S
C715 O713 1.166 . S
C715 O714 1.182 . S
O716 Zn701 2.080 . S
O716 C719 1.305 . S
O717 Zn700 1.920 . S
O717 C719 1.234 . S
C718 O704 1.305 . S
C718 O705 1.234 . S
C719 O716 1.305 . S
C719 O717 1.234 . S
Zn720 O726 1.920 . S
Zn720 O732 1.898 . S
Zn720 O735 1.905 . S
Zn721 O729 1.905 . S
Zn721 O730 1.898 1_565 S
Zn721 O738 1.920 . S
Zn722 O725 2.080 . S
Zn722 O728 2.114 . S
Zn722 O731 2.120 . S
Zn722 O733 2.120 . S
Zn722 O734 2.114 . S
Zn722 O737 2.080 . S
C723 O728 1.166 . S
C723 O729 1.182 . S
C724 O730 1.167 . S
C724 O731 1.299 1_545 S
O725 Zn722 2.080 . S
O725 C739 1.305 . S
O726 Zn720 1.920 . S
O726 C739 1.234 . S
C727 O732 1.167 . S
C727 O733 1.299 . S
O728 Zn722 2.114 . S
O728 C723 1.166 . S
O729 Zn721 1.905 . S
O729 C723 1.182 . S
O730 Zn721 1.898 1_545 S
O730 C724 1.167 . S
O731 Zn722 2.120 . S
O731 C724 1.299 1_565 S
O732 Zn720 1.898 . S
O732 C727 1.167 . S
O733 Zn722 2.120 . S
O733 C727 1.299 . S
O734 Zn722 2.114 . S
O734 C736 1.166 . S
O735 Zn720 1.905 . S
O735 C736 1.182 . S
C736 O734 1.166 . S
C736 O735 1.182 . S
O737 Zn722 2.080 . S
O737 C740 1.305 . S
O738 Zn721 1.920 . S
O738 C740 1.234 . S
C739 O725 1.305 . S
C739 O726 1.234 . S
C740 O737 1.305 . S
C740 O738 1.234 . S
Zn741 O747 1.920 . S
Zn741 O753 1.898 . S
Zn741 O756 1.905 . S
Zn742 O750 1.905 . S
Zn742 O751 1.898 . S
Zn742 O759 1.920 . S
Zn743 O746 2.080 . S
Zn743 O749 2.114 . S
Zn743 O752 2.120 . S
Zn743 O754 2.120 . S
Zn743 O755 2.114 . S
Zn743 O758 2.080 . S
C744 O749 1.166 . S
C744 O750 1.182 . S
C745 O751 1.167 . S
C745 O752 1.299 . S
O746 Zn743 2.080 . S
O746 C760 1.305 . S
O747 Zn741 1.920 . S
O747 C760 1.234 . S
C748 O753 1.167 . S
C748 O754 1.299 . S
O749 Zn743 2.114 . S
O749 C744 1.166 . S
O750 Zn742 1.905 . S
O750 C744 1.182 . S
O751 Zn742 1.898 . S
O751 C745 1.167 . S
O752 Zn743 2.120 . S
O752 C745 1.299 . S
O753 Zn741 1.898 . S
O753 C748 1.167 . S
O754 Zn743 2.120 . S
O754 C748 1.299 . S
O755 Zn743 2.114 . S
O755 C757 1.166 . S
O756 Zn741 1.905 . S
O756 C757 1.182 . S
C757 O755 1.166 . S
C757 O756 1.182 . S
O758 Zn743 2.080 . S
O758 C761 1.305 . S
O759 Zn742 1.920 . S
O759 C761 1.234 . S
C760 O746 1.305 . S
C760 O747 1.234 . S
C761 O758 1.305 . S
C761 O759 1.234 . S
Zn762 O768 1.920 1_554 S
Zn762 O774 1.898 . S
Zn762 O777 1.905 1_554 S
Zn763 O771 1.905 . S
Zn763 O772 1.898 . S
Zn763 O780 1.920 . S
Zn764 O767 2.080 . S
Zn764 O770 2.114 . S
Zn764 O773 2.120 . S
Zn764 O775 2.120 1_556 S
Zn764 O776 2.114 . S
Zn764 O779 2.080 . S
C765 O770 1.166 . S
C765 O771 1.182 . S
C766 O772 1.167 . S
C766 O773 1.299 . S
O767 Zn764 2.080 . S
O767 C781 1.305 . S
O768 Zn762 1.920 1_556 S
O768 C781 1.234 . S
C769 O774 1.167 . S
C769 O775 1.299 . S
O770 Zn764 2.114 . S
O770 C765 1.166 . S
O771 Zn763 1.905 . S
O771 C765 1.182 . S
O772 Zn763 1.898 . S
O772 C766 1.167 . S
O773 Zn764 2.120 . S
O773 C766 1.299 . S
O774 Zn762 1.898 . S
O774 C769 1.167 . S
O775 Zn764 2.120 1_554 S
O775 C769 1.299 . S
O776 Zn764 2.114 . S
O776 C778 1.166 . S
O777 Zn762 1.905 1_556 S
O777 C778 1.182 . S
C778 O776 1.166 . S
C778 O777 1.182 . S
O779 Zn764 2.080 . S
O779 C782 1.305 . S
O780 Zn763 1.920 . S
O780 C782 1.234 . S
C781 O767 1.305 . S
C781 O768 1.234 . S
C782 O779 1.305 . S
C782 O780 1.234 . S
Zn783 O789 1.920 1_556 S
Zn783 O795 1.898 . S
Zn783 O798 1.892 1_545 S
Zn784 O792 1.905 . S
Zn784 O793 1.898 . S
Zn784 O801 1.920 . S
Zn785 O788 2.080 . S
Zn785 O791 2.114 . S
Zn785 O794 2.120 . S
Zn785 O796 2.120 . S
Zn785 O797 2.114 . S
Zn785 O800 2.080 . S
C786 O791 1.166 . S
C786 O792 1.182 . S
C787 O793 1.167 . S
C787 O794 1.299 . S
O788 Zn785 2.080 . S
O788 C802 1.348 . S
O789 Zn783 1.920 1_554 S
O789 C802 1.221 1_554 S
C790 O795 1.167 . S
C790 O796 1.299 . S
O791 Zn785 2.114 . S
O791 C786 1.166 . S
O792 Zn784 1.905 . S
O792 C786 1.182 . S
O793 Zn784 1.898 . S
O793 C787 1.167 . S
O794 Zn785 2.120 . S
O794 C787 1.299 . S
O795 Zn783 1.898 . S
O795 C790 1.167 . S
O796 Zn785 2.120 . S
O796 C790 1.299 . S
O797 Zn785 2.114 . S
O797 C799 1.166 . S
O798 Zn783 1.892 1_565 S
O798 C799 1.174 1_565 S
C799 O797 1.166 . S
C799 O798 1.174 1_545 S
O800 Zn785 2.080 . S
O800 C803 1.305 . S
O801 Zn784 1.920 . S
O801 C803 1.234 . S
C802 O788 1.348 . S
C802 O789 1.221 1_556 S
C803 O800 1.305 . S
C803 O801 1.234 . S
H804 C816 0.947 . S
H805 C818 0.930 . S
H806 C819 0.930 . S
H807 C823 0.959 . S
H808 C823 0.959 . S
H809 C823 0.961 . S
H810 C824 0.960 . S
H811 C824 0.961 . S
H812 C824 0.959 . S
H813 C827 0.929 . S
H814 C828 0.931 . S
H815 C830 0.959 . S
C816 H804 0.947 . S
C816 C817 1.399 . S
C816 C821 1.399 . S
C817 C816 1.399 . S
C817 C818 1.376 . S
C818 H805 0.930 . S
C818 C817 1.376 . S
C818 C819 1.388 . S
C819 H806 0.930 . S
C819 C818 1.388 . S
C819 C820 1.390 . S
C820 C819 1.390 . S
C820 C821 1.394 . S
C820 C826 1.465 . S
C821 C816 1.399 . S
C821 C820 1.394 . S
C821 C822 1.516 . S
C822 C821 1.516 . S
C822 C823 1.502 1_455 S
C822 C824 1.561 . S
C822 C825 1.526 . S
C823 H807 0.959 . S
C823 H808 0.959 . S
C823 H809 0.961 . S
C823 C822 1.502 1_655 S
C824 H810 0.960 . S
C824 H811 0.961 . S
C824 H812 0.959 . S
C824 C822 1.561 . S
C825 C822 1.526 . S
C825 C826 1.396 . S
C825 C830 1.390 . S
C826 C820 1.465 . S
C826 C825 1.396 . S
C826 C827 1.399 . S
C827 H813 0.929 . S
C827 C826 1.399 . S
C827 C828 1.385 . S
C828 H814 0.931 . S
C828 C827 1.385 . S
C828 C829 1.389 . S
C829 C828 1.389 . S
C829 C830 1.387 . S
C830 H815 0.959 . S
C830 C825 1.390 . S
C830 C829 1.387 . S
H831 C843 0.930 . S
H832 C845 0.930 . S
H833 C846 0.930 . S
H834 C850 0.959 . S
H835 C850 0.959 . S
H836 C850 0.961 . S
H837 C851 0.960 . S
H838 C851 0.961 . S
H839 C851 0.959 . S
H840 C854 0.929 . S
H841 C855 0.939 . S
H842 C857 0.930 . S
C843 H831 0.930 . S
C843 C844 1.399 . S
C843 C848 1.399 . S
C844 C843 1.399 . S
C844 C845 1.376 1_655 S
C845 H832 0.930 . S
C845 C844 1.376 1_455 S
C845 C846 1.388 . S
C846 H833 0.930 . S
C846 C845 1.388 . S
C846 C847 1.390 1_455 S
C847 C846 1.390 1_655 S
C847 C848 1.394 . S
C847 C853 1.465 . S
C848 C843 1.399 . S
C848 C847 1.394 . S
C848 C849 1.516 . S
C849 C848 1.516 . S
C849 C850 1.502 . S
C849 C851 1.561 . S
C849 C852 1.526 . S
C850 H834 0.959 . S
C850 H835 0.959 . S
C850 H836 0.961 . S
C850 C849 1.502 . S
C851 H837 0.960 . S
C851 H838 0.961 . S
C851 H839 0.959 . S
C851 C849 1.561 . S
C852 C849 1.526 . S
C852 C853 1.396 . S
C852 C857 1.390 . S
C853 C847 1.465 . S
C853 C852 1.396 . S
C853 C854 1.399 1_655 S
C854 H840 0.929 . S
C854 C853 1.399 1_455 S
C854 C855 1.391 . S
C855 H841 0.939 . S
C855 C854 1.391 . S
C855 C856 1.376 1_455 S
C856 C855 1.376 1_655 S
C856 C857 1.387 . S
C857 H842 0.930 . S
C857 C852 1.390 . S
C857 C856 1.387 . S
H858 C870 0.930 . S
H859 C872 0.930 . S
H860 C873 0.930 . S
H861 C877 0.959 . S
H862 C877 0.959 . S
H863 C877 0.961 . S
H864 C878 0.960 . S
H865 C878 0.961 . S
H866 C878 0.959 . S
H867 C881 0.929 . S
H868 C882 0.931 1_545 S
H869 C884 0.930 . S
C870 H858 0.930 . S
C870 C871 1.399 . S
C870 C875 1.399 . S
C871 C870 1.399 . S
C871 C872 1.376 . S
C872 H859 0.930 . S
C872 C871 1.376 . S
C872 C873 1.388 . S
C873 H860 0.930 . S
C873 C872 1.388 . S
C873 C874 1.390 . S
C874 C873 1.390 . S
C874 C875 1.394 . S
C874 C880 1.465 . S
C875 C870 1.399 . S
C875 C874 1.394 . S
C875 C876 1.516 . S
C876 C875 1.516 . S
C876 C877 1.502 . S
C876 C878 1.561 . S
C876 C879 1.526 . S
C877 H861 0.959 . S
C877 H862 0.959 . S
C877 H863 0.961 . S
C877 C876 1.502 . S
C878 H864 0.960 . S
C878 H865 0.961 . S
C878 H866 0.959 . S
C878 C876 1.561 . S
C879 C876 1.526 . S
C879 C880 1.396 . S
C879 C884 1.390 . S
C880 C874 1.465 . S
C880 C879 1.396 . S
C880 C881 1.399 . S
C881 H867 0.929 . S
C881 C880 1.399 . S
C881 C882 1.385 . S
C882 H868 0.931 1_565 S
C882 C881 1.385 . S
C882 C883 1.389 . S
C883 C882 1.389 . S
C883 C884 1.387 . S
C884 H869 0.930 . S
C884 C879 1.390 . S
C884 C883 1.387 . S
H885 C897 0.918 1_455 S
H886 C899 0.930 . S
H887 C900 0.930 . S
H888 C904 0.959 . S
H889 C904 0.959 . S
H890 C904 0.961 . S
H891 C905 0.960 . S
H892 C905 0.961 . S
H893 C905 0.959 . S
H894 C908 0.929 . S
H895 C909 0.931 . S
H896 C911 0.930 . S
C897 H885 0.918 1_655 S
C897 C898 1.399 . S
C897 C902 1.399 . S
C898 C897 1.399 . S
C898 C899 1.376 . S
C899 H886 0.930 . S
C899 C898 1.376 . S
C899 C900 1.388 . S
C900 H887 0.930 . S
C900 C899 1.388 . S
C900 C901 1.390 . S
C901 C900 1.390 . S
C901 C902 1.394 . S
C901 C907 1.465 . S
C902 C897 1.399 . S
C902 C901 1.394 . S
C902 C903 1.516 . S
C903 C902 1.516 . S
C903 C904 1.502 1_655 S
C903 C905 1.561 . S
C903 C906 1.526 . S
C904 H888 0.959 . S
C904 H889 0.959 . S
C904 H890 0.961 . S
C904 C903 1.502 1_455 S
C905 H891 0.960 . S
C905 H892 0.961 . S
C905 H893 0.959 . S
C905 C903 1.561 . S
C906 C903 1.526 . S
C906 C907 1.396 . S
C906 C911 1.390 . S
C907 C901 1.465 . S
C907 C906 1.396 . S
C907 C908 1.399 . S
C908 H894 0.929 . S
C908 C907 1.399 . S
C908 C909 1.385 . S
C909 H895 0.931 . S
C909 C908 1.385 . S
C909 C910 1.389 . S
C910 C909 1.389 . S
C910 C911 1.387 . S
C911 H896 0.930 . S
C911 C906 1.390 . S
C911 C910 1.387 . S
H912 C924 0.926 1_565 S
H913 C926 0.930 . S
H914 C927 0.930 . S
H915 C931 0.959 1_545 S
H916 C931 0.959 . S
H917 C931 0.961 . S
H918 C932 0.960 . S
H919 C932 0.961 . S
H920 C932 0.935 1_545 S
H921 C935 0.929 . S
H922 C936 0.931 . S
H923 C938 0.930 . S
C924 H912 0.926 1_545 S
C924 C925 1.399 . S
C924 C929 1.399 . S
C925 C924 1.399 . S
C925 C926 1.376 . S
C926 H913 0.930 . S
C926 C925 1.376 . S
C926 C927 1.388 . S
C927 H914 0.930 . S
C927 C926 1.388 . S
C927 C928 1.390 . S
C928 C927 1.390 . S
C928 C929 1.394 . S
C928 C934 1.465 . S
C929 C924 1.399 . S
C929 C928 1.394 . S
C929 C930 1.516 . S
C930 C929 1.516 . S
C930 C931 1.502 1_545 S
C930 C932 1.561 1_545 S
C930 C933 1.526 . S
C931 H915 0.959 1_565 S
C931 H916 0.959 . S
C931 H917 0.961 . S
C931 C930 1.502 1_565 S
C932 H918 0.960 . S
C932 H919 0.961 . S
C932 H920 0.935 1_565 S
C932 C930 1.561 1_565 S
C933 C930 1.526 . S
C933 C934 1.396 . S
C933 C938 1.390 . S
C934 C928 1.465 . S
C934 C933 1.396 . S
C934 C935 1.399 . S
C935 H921 0.929 . S
C935 C934 1.399 . S
C935 C936 1.385 . S
C936 H922 0.931 . S
C936 C935 1.385 . S
C936 C937 1.389 . S
C937 C936 1.389 . S
C937 C938 1.387 . S
C938 H923 0.930 . S
C938 C933 1.390 . S
C938 C937 1.387 . S
H939 C951 0.930 . S
H940 C953 0.930 . S
H941 C954 0.930 . S
H942 C958 0.959 . S
H943 C958 0.959 . S
H944 C958 0.961 . S
H945 C959 0.960 . S
H946 C959 0.961 . S
H947 C959 0.959 . S
H948 C962 0.929 . S
H949 C963 0.931 . S
H950 C965 0.930 . S
C951 H939 0.930 . S
C951 C952 1.399 . S
C951 C956 1.399 . S
C952 C951 1.399 . S
C952 C953 1.376 . S
C953 H940 0.930 . S
C953 C952 1.376 . S
C953 C954 1.388 . S
C954 H941 0.930 . S
C954 C953 1.388 . S
C954 C955 1.390 . S
C955 C954 1.390 . S
C955 C956 1.394 . S
C955 C961 1.465 . S
C956 C951 1.399 . S
C956 C955 1.394 . S
C956 C957 1.516 . S
C957 C956 1.516 . S
C957 C958 1.502 . S
C957 C959 1.561 . S
C957 C960 1.526 . S
C958 H942 0.959 . S
C958 H943 0.959 . S
C958 H944 0.961 . S
C958 C957 1.502 . S
C959 H945 0.960 . S
C959 H946 0.961 . S
C959 H947 0.959 . S
C959 C957 1.561 . S
C960 C957 1.526 . S
C960 C961 1.396 . S
C960 C965 1.390 . S
C961 C955 1.465 . S
C961 C960 1.396 . S
C961 C962 1.399 . S
C962 H948 0.929 . S
C962 C961 1.399 . S
C962 C963 1.385 . S
C963 H949 0.931 . S
C963 C962 1.385 . S
C963 C964 1.389 . S
C964 C963 1.389 . S
C964 C965 1.387 . S
C965 H950 0.930 . S
C965 C960 1.390 . S
C965 C964 1.387 . S
H966 C978 0.930 . S
H967 C980 0.930 . S
H968 C981 0.930 . S
H969 C985 0.959 . S
H970 C985 0.959 . S
H971 C985 0.961 . S
H972 C986 0.960 . S
H973 C986 0.961 . S
H974 C986 0.959 . S
H975 C989 0.929 . S
H976 C990 0.931 . S
H977 C992 0.949 . S
C978 H966 0.930 . S
C978 C979 1.399 1_545 S
C978 C983 1.399 1_545 S
C979 C978 1.399 1_565 S
C979 C980 1.376 . S
C980 H967 0.930 . S
C980 C979 1.376 . S
C980 C981 1.388 . S
C981 H968 0.930 . S
C981 C980 1.388 . S
C981 C982 1.390 . S
C982 C981 1.390 . S
C982 C983 1.394 . S
C982 C988 1.465 . S
C983 C978 1.399 1_565 S
C983 C982 1.394 . S
C983 C984 1.516 1_565 S
C984 C983 1.516 1_545 S
C984 C985 1.502 . S
C984 C986 1.561 . S
C984 C987 1.526 1_545 S
C985 H969 0.959 . S
C985 H970 0.959 . S
C985 H971 0.961 . S
C985 C984 1.502 . S
C986 H972 0.960 . S
C986 H973 0.961 . S
C986 H974 0.959 . S
C986 C984 1.561 . S
C987 C984 1.526 1_565 S
C987 C988 1.396 . S
C987 C992 1.390 . S
C988 C982 1.465 . S
C988 C987 1.396 . S
C988 C989 1.399 . S
C989 H975 0.929 . S
C989 C988 1.399 . S
C989 C990 1.385 . S
C990 H976 0.931 . S
C990 C989 1.385 . S
C990 C991 1.389 . S
C991 C990 1.389 . S
C991 C992 1.387 . S
C992 H977 0.949 . S
C992 C987 1.390 . S
C992 C991 1.387 . S
H993 C1005 0.930 . S
H994 C1007 0.930 . S
H995 C1008 0.930 . S
H996 C1012 0.959 . S
H997 C1012 0.959 . S
H998 C1012 0.961 . S
H999 C1013 0.960 . S
H1000 C1013 0.961 . S
H1001 C1013 0.959 . S
H1002 C1016 0.929 . S
H1003 C1017 0.931 . S
H1004 C1019 0.930 . S
C1005 H993 0.930 . S
C1005 C1006 1.399 . S
C1005 C1010 1.399 . S
C1006 C1005 1.399 . S
C1006 C1007 1.376 . S
C1007 H994 0.930 . S
C1007 C1006 1.376 . S
C1007 C1008 1.388 . S
C1008 H995 0.930 . S
C1008 C1007 1.388 . S
C1008 C1009 1.390 . S
C1009 C1008 1.390 . S
C1009 C1010 1.394 . S
C1009 C1015 1.465 . S
C1010 C1005 1.399 . S
C1010 C1009 1.394 . S
C1010 C1011 1.516 . S
C1011 C1010 1.516 . S
C1011 C1012 1.502 . S
C1011 C1013 1.561 . S
C1011 C1014 1.526 . S
C1012 H996 0.959 . S
C1012 H997 0.959 . S
C1012 H998 0.961 . S
C1012 C1011 1.502 . S
C1013 H999 0.960 . S
C1013 H1000 0.961 . S
C1013 H1001 0.959 . S
C1013 C1011 1.561 . S
C1014 C1011 1.526 . S
C1014 C1015 1.396 . S
C1014 C1019 1.390 . S
C1015 C1009 1.465 . S
C1015 C1014 1.396 . S
C1015 C1016 1.399 . S
C1016 H1002 0.929 . S
C1016 C1015 1.399 . S
C1016 C1017 1.385 . S
C1017 H1003 0.931 . S
C1017 C1016 1.385 . S
C1017 C1018 1.389 . S
C1018 C1017 1.389 . S
C1018 C1019 1.387 . S
C1019 H1004 0.930 . S
C1019 C1014 1.390 . S
C1019 C1018 1.387 . S
H1020 C1032 0.930 . S
H1021 C1034 0.930 1_556 S
H1022 C1035 0.930 . S
H1023 C1039 0.959 . S
H1024 C1039 0.959 . S
H1025 C1039 0.961 . S
H1026 C1040 0.960 . S
H1027 C1040 0.961 . S
H1028 C1040 0.959 . S
H1029 C1043 0.929 . S
H1030 C1044 0.931 1_556 S
H1031 C1046 0.930 . S
C1032 H1020 0.930 . S
C1032 C1033 1.399 . S
C1032 C1037 1.399 . S
C1033 C1032 1.399 . S
C1033 C1034 1.376 . S
C1034 H1021 0.930 1_554 S
C1034 C1033 1.376 . S
C1034 C1035 1.388 1_554 S
C1035 H1022 0.930 . S
C1035 C1034 1.388 1_556 S
C1035 C1036 1.390 1_556 S
C1036 C1035 1.390 1_554 S
C1036 C1037 1.394 . S
C1036 C1042 1.465 . S
C1037 C1032 1.399 . S
C1037 C1036 1.394 . S
C1037 C1038 1.516 . S
C1038 C1037 1.516 . S
C1038 C1039 1.502 . S
C1038 C1040 1.561 . S
C1038 C1041 1.526 . S
C1039 H1023 0.959 . S
C1039 H1024 0.959 . S
C1039 H1025 0.961 . S
C1039 C1038 1.502 . S
C1040 H1026 0.960 . S
C1040 H1027 0.961 . S
C1040 H1028 0.959 . S
C1040 C1038 1.561 . S
C1041 C1038 1.526 . S
C1041 C1042 1.396 . S
C1041 C1046 1.390 . S
C1042 C1036 1.465 . S
C1042 C1041 1.396 . S
C1042 C1043 1.399 1_554 S
C1043 H1029 0.929 . S
C1043 C1042 1.399 1_556 S
C1043 C1044 1.385 1_556 S
C1044 H1030 0.931 1_554 S
C1044 C1043 1.385 1_554 S
C1044 C1045 1.389 . S
C1045 C1044 1.389 . S
C1045 C1046 1.387 . S
C1046 H1031 0.930 . S
C1046 C1041 1.390 . S
C1046 C1045 1.387 . S
H1047 C1059 0.930 . S
H1048 C1061 0.930 . S
H1049 C1062 0.930 . S
H1050 C1066 0.959 . S
H1051 C1066 0.959 . S
H1052 C1066 0.961 . S
H1053 C1067 0.960 . S
H1054 C1067 0.961 . S
H1055 C1067 0.959 . S
H1056 C1070 0.929 . S
H1057 C1071 0.931 . S
H1058 C1073 0.930 . S
C1059 H1047 0.930 . S
C1059 C1060 1.399 . S
C1059 C1064 1.399 . S
C1060 C1059 1.399 . S
C1060 C1061 1.376 . S
C1061 H1048 0.930 . S
C1061 C1060 1.376 . S
C1061 C1062 1.388 . S
C1062 H1049 0.930 . S
C1062 C1061 1.388 . S
C1062 C1063 1.390 . S
C1063 C1062 1.390 . S
C1063 C1064 1.394 . S
C1063 C1069 1.465 . S
C1064 C1059 1.399 . S
C1064 C1063 1.394 . S
C1064 C1065 1.516 . S
C1065 C1064 1.516 . S
C1065 C1066 1.502 . S
C1065 C1067 1.561 . S
C1065 C1068 1.526 . S
C1066 H1050 0.959 . S
C1066 H1051 0.959 . S
C1066 H1052 0.961 . S
C1066 C1065 1.502 . S
C1067 H1053 0.960 . S
C1067 H1054 0.961 . S
C1067 H1055 0.959 . S
C1067 C1065 1.561 . S
C1068 C1065 1.526 . S
C1068 C1069 1.396 . S
C1068 C1073 1.390 . S
C1069 C1063 1.465 . S
C1069 C1068 1.396 . S
C1069 C1070 1.399 . S
C1070 H1056 0.929 . S
C1070 C1069 1.399 . S
C1070 C1071 1.385 . S
C1071 H1057 0.931 . S
C1071 C1070 1.385 . S
C1071 C1072 1.389 . S
C1072 C1071 1.389 . S
C1072 C1073 1.387 . S
C1073 H1058 0.930 . S
C1073 C1068 1.390 . S
C1073 C1072 1.387 . S
H1074 C1086 0.930 . S
H1075 C1088 0.930 . S
H1076 C1089 0.930 . S
H1077 C1093 0.959 . S
H1078 C1093 0.959 . S
H1079 C1093 0.961 . S
H1080 C1094 0.960 . S
H1081 C1094 0.961 . S
H1082 C1094 0.959 . S
H1083 C1097 0.929 . S
H1084 C1098 0.931 . S
H1085 C1100 0.930 . S
C1086 H1074 0.930 . S
C1086 C1087 1.399 . S
C1086 C1091 1.399 . S
C1087 C1086 1.399 . S
C1087 C1088 1.376 . S
C1088 H1075 0.930 . S
C1088 C1087 1.376 . S
C1088 C1089 1.388 . S
C1089 H1076 0.930 . S
C1089 C1088 1.388 . S
C1089 C1090 1.390 . S
C1090 C1089 1.390 . S
C1090 C1091 1.394 . S
C1090 C1096 1.465 . S
C1091 C1086 1.399 . S
C1091 C1090 1.394 . S
C1091 C1092 1.516 . S
C1092 C1091 1.516 . S
C1092 C1093 1.502 . S
C1092 C1094 1.561 . S
C1092 C1095 1.526 . S
C1093 H1077 0.959 . S
C1093 H1078 0.959 . S
C1093 H1079 0.961 . S
C1093 C1092 1.502 . S
C1094 H1080 0.960 . S
C1094 H1081 0.961 . S
C1094 H1082 0.959 . S
C1094 C1092 1.561 . S
C1095 C1092 1.526 . S
C1095 C1096 1.396 . S
C1095 C1100 1.390 . S
C1096 C1090 1.465 . S
C1096 C1095 1.396 . S
C1096 C1097 1.399 . S
C1097 H1083 0.929 . S
C1097 C1096 1.399 . S
C1097 C1098 1.385 . S
C1098 H1084 0.931 . S
C1098 C1097 1.385 . S
C1098 C1099 1.389 . S
C1099 C1098 1.389 . S
C1099 C1100 1.387 . S
C1100 H1085 0.930 . S
C1100 C1095 1.390 . S
C1100 C1099 1.387 . S
H1101 C1113 0.930 . S
H1102 C1115 0.930 . S
H1103 C1116 0.930 . S
H1104 C1120 0.959 . S
H1105 C1120 0.959 . S
H1106 C1120 0.961 . S
H1107 C1121 0.960 . S
H1108 C1121 0.961 . S
H1109 C1121 0.959 . S
H1110 C1124 0.929 . S
H1111 C1125 0.931 . S
H1112 C1127 0.930 . S
C1113 H1101 0.930 . S
C1113 C1114 1.399 . S
C1113 C1118 1.399 . S
C1114 C1113 1.399 . S
C1114 C1115 1.376 . S
C1115 H1102 0.930 . S
C1115 C1114 1.376 . S
C1115 C1116 1.388 . S
C1116 H1103 0.930 . S
C1116 C1115 1.388 . S
C1116 C1117 1.390 . S
C1117 C1116 1.390 . S
C1117 C1118 1.394 . S
C1117 C1123 1.465 . S
C1118 C1113 1.399 . S
C1118 C1117 1.394 . S
C1118 C1119 1.516 . S
C1119 C1118 1.516 . S
C1119 C1120 1.502 . S
C1119 C1121 1.561 . S
C1119 C1122 1.526 . S
C1120 H1104 0.959 . S
C1120 H1105 0.959 . S
C1120 H1106 0.961 . S
C1120 C1119 1.502 . S
C1121 H1107 0.960 . S
C1121 H1108 0.961 . S
C1121 H1109 0.959 . S
C1121 C1119 1.561 . S
C1122 C1119 1.526 . S
C1122 C1123 1.396 . S
C1122 C1127 1.390 . S
C1123 C1117 1.465 . S
C1123 C1122 1.396 . S
C1123 C1124 1.399 . S
C1124 H1110 0.929 . S
C1124 C1123 1.399 . S
C1124 C1125 1.385 . S
C1125 H1111 0.931 . S
C1125 C1124 1.385 . S
C1125 C1126 1.389 . S
C1126 C1125 1.389 . S
C1126 C1127 1.387 . S
C1127 H1112 0.930 . S
C1127 C1122 1.390 . S
C1127 C1126 1.387 . S
H1128 C1140 0.930 . S
H1129 C1142 0.930 . S
H1130 C1143 0.930 . S
H1131 C1147 0.959 . S
H1132 C1147 0.959 . S
H1133 C1147 0.961 . S
H1134 C1148 0.960 . S
H1135 C1148 0.961 . S
H1136 C1148 0.959 . S
H1137 C1151 0.929 . S
H1138 C1152 0.931 . S
H1139 C1154 0.930 . S
C1140 H1128 0.930 . S
C1140 C1141 1.399 . S
C1140 C1145 1.399 . S
C1141 C1140 1.399 . S
C1141 C1142 1.376 . S
C1142 H1129 0.930 . S
C1142 C1141 1.376 . S
C1142 C1143 1.388 . S
C1143 H1130 0.930 . S
C1143 C1142 1.388 . S
C1143 C1144 1.390 . S
C1144 C1143 1.390 . S
C1144 C1145 1.394 . S
C1144 C1150 1.465 . S
C1145 C1140 1.399 . S
C1145 C1144 1.394 . S
C1145 C1146 1.516 . S
C1146 C1145 1.516 . S
C1146 C1147 1.502 . S
C1146 C1148 1.561 . S
C1146 C1149 1.526 . S
C1147 H1131 0.959 . S
C1147 H1132 0.959 . S
C1147 H1133 0.961 . S
C1147 C1146 1.502 . S
C1148 H1134 0.960 . S
C1148 H1135 0.961 . S
C1148 H1136 0.959 . S
C1148 C1146 1.561 . S
C1149 C1146 1.526 . S
C1149 C1150 1.396 . S
C1149 C1154 1.390 . S
C1150 C1144 1.465 . S
C1150 C1149 1.396 . S
C1150 C1151 1.399 . S
C1151 H1137 0.929 . S
C1151 C1150 1.399 . S
C1151 C1152 1.385 . S
C1152 H1138 0.931 . S
C1152 C1151 1.385 . S
C1152 C1153 1.389 . S
C1153 C1152 1.389 . S
C1153 C1154 1.387 . S
C1154 H1139 0.930 . S
C1154 C1149 1.390 . S
C1154 C1153 1.387 . S
H1155 C1167 0.930 . S
H1156 C1169 0.930 . S
H1157 C1170 0.930 . S
H1158 C1174 0.959 . S
H1159 C1174 0.959 . S
H1160 C1174 0.961 . S
H1161 C1175 0.960 . S
H1162 C1175 0.961 . S
H1163 C1175 0.959 . S
H1164 C1178 0.929 . S
H1165 C1179 0.931 . S
H1166 C1181 0.930 . S
C1167 H1155 0.930 . S
C1167 C1168 1.399 . S
C1167 C1172 1.399 . S
C1168 C1167 1.399 . S
C1168 C1169 1.376 . S
C1169 H1156 0.930 . S
C1169 C1168 1.376 . S
C1169 C1170 1.388 . S
C1170 H1157 0.930 . S
C1170 C1169 1.388 . S
C1170 C1171 1.390 . S
C1171 C1170 1.390 . S
C1171 C1172 1.394 . S
C1171 C1177 1.465 . S
C1172 C1167 1.399 . S
C1172 C1171 1.394 . S
C1172 C1173 1.516 . S
C1173 C1172 1.516 . S
C1173 C1174 1.502 . S
C1173 C1175 1.561 . S
C1173 C1176 1.526 . S
C1174 H1158 0.959 . S
C1174 H1159 0.959 . S
C1174 H1160 0.961 . S
C1174 C1173 1.502 . S
C1175 H1161 0.960 . S
C1175 H1162 0.961 . S
C1175 H1163 0.959 . S
C1175 C1173 1.561 . S
C1176 C1173 1.526 . S
C1176 C1177 1.396 . S
C1176 C1181 1.390 . S
C1177 C1171 1.465 . S
C1177 C1176 1.396 . S
C1177 C1178 1.399 . S
C1178 H1164 0.929 . S
C1178 C1177 1.399 . S
C1178 C1179 1.385 . S
C1179 H1165 0.931 . S
C1179 C1178 1.385 . S
C1179 C1180 1.389 . S
C1180 C1179 1.389 . S
C1180 C1181 1.387 . S
C1181 H1166 0.930 . S
C1181 C1176 1.390 . S
C1181 C1180 1.387 . S
H1182 C1194 0.930 . S
H1183 C1196 0.930 . S
H1184 C1197 0.930 . S
H1185 C1201 0.959 . S
H1186 C1201 0.959 . S
H1187 C1201 0.961 . S
H1188 C1202 0.960 . S
H1189 C1202 0.961 . S
H1190 C1202 0.959 . S
H1191 C1205 0.929 . S
H1192 C1206 0.931 . S
H1193 C1208 0.930 . S
C1194 H1182 0.930 . S
C1194 C1195 1.399 . S
C1194 C1199 1.399 . S
C1195 C1194 1.399 . S
C1195 C1196 1.376 . S
C1196 H1183 0.930 . S
C1196 C1195 1.376 . S
C1196 C1197 1.388 . S
C1197 H1184 0.930 . S
C1197 C1196 1.388 . S
C1197 C1198 1.390 . S
C1198 C1197 1.390 . S
C1198 C1199 1.394 . S
C1198 C1204 1.465 . S
C1199 C1194 1.399 . S
C1199 C1198 1.394 . S
C1199 C1200 1.516 . S
C1200 C1199 1.516 . S
C1200 C1201 1.502 . S
C1200 C1202 1.561 . S
C1200 C1203 1.526 . S
C1201 H1185 0.959 . S
C1201 H1186 0.959 . S
C1201 H1187 0.961 . S
C1201 C1200 1.502 . S
C1202 H1188 0.960 . S
C1202 H1189 0.961 . S
C1202 H1190 0.959 . S
C1202 C1200 1.561 . S
C1203 C1200 1.526 . S
C1203 C1204 1.396 . S
C1203 C1208 1.390 . S
C1204 C1198 1.465 . S
C1204 C1203 1.396 . S
C1204 C1205 1.399 . S
C1205 H1191 0.929 . S
C1205 C1204 1.399 . S
C1205 C1206 1.385 . S
C1206 H1192 0.931 . S
C1206 C1205 1.385 . S
C1206 C1207 1.389 . S
C1207 C1206 1.389 . S
C1207 C1208 1.387 . S
C1208 H1193 0.930 . S
C1208 C1203 1.390 . S
C1208 C1207 1.387 . S
H1209 C1221 0.930 . S
H1210 C1223 0.930 . S
H1211 C1224 0.930 . S
H1212 C1228 0.959 . S
H1213 C1228 0.959 . S
H1214 C1228 0.961 . S
H1215 C1229 0.960 . S
H1216 C1229 0.961 . S
H1217 C1229 0.959 . S
H1218 C1232 0.929 . S
H1219 C1233 0.931 . S
H1220 C1235 0.930 . S
C1221 H1209 0.930 . S
C1221 C1222 1.399 . S
C1221 C1226 1.399 . S
C1222 C1221 1.399 . S
C1222 C1223 1.376 . S
C1223 H1210 0.930 . S
C1223 C1222 1.376 . S
C1223 C1224 1.388 . S
C1224 H1211 0.930 . S
C1224 C1223 1.388 . S
C1224 C1225 1.390 . S
C1225 C1224 1.390 . S
C1225 C1226 1.394 . S
C1225 C1231 1.465 . S
C1226 C1221 1.399 . S
C1226 C1225 1.394 . S
C1226 C1227 1.516 . S
C1227 C1226 1.516 . S
C1227 C1228 1.502 . S
C1227 C1229 1.561 . S
C1227 C1230 1.526 . S
C1228 H1212 0.959 . S
C1228 H1213 0.959 . S
C1228 H1214 0.961 . S
C1228 C1227 1.502 . S
C1229 H1215 0.960 . S
C1229 H1216 0.961 . S
C1229 H1217 0.959 . S
C1229 C1227 1.561 . S
C1230 C1227 1.526 . S
C1230 C1231 1.396 . S
C1230 C1235 1.390 . S
C1231 C1225 1.465 . S
C1231 C1230 1.396 . S
C1231 C1232 1.399 . S
C1232 H1218 0.929 . S
C1232 C1231 1.399 . S
C1232 C1233 1.385 . S
C1233 H1219 0.931 . S
C1233 C1232 1.385 . S
C1233 C1234 1.389 . S
C1234 C1233 1.389 . S
C1234 C1235 1.387 . S
C1235 H1220 0.930 . S
C1235 C1230 1.390 . S
C1235 C1234 1.387 . S
H1236 C1248 0.930 . S
H1237 C1250 0.930 . S
H1238 C1251 0.930 . S
H1239 C1255 0.959 . S
H1240 C1255 0.959 . S
H1241 C1255 0.961 . S
H1242 C1256 0.960 . S
H1243 C1256 0.961 . S
H1244 C1256 0.959 . S
H1245 C1259 0.929 . S
H1246 C1260 0.931 . S
H1247 C1262 0.930 . S
C1248 H1236 0.930 . S
C1248 C1249 1.399 . S
C1248 C1253 1.399 . S
C1249 C1248 1.399 . S
C1249 C1250 1.376 . S
C1250 H1237 0.930 . S
C1250 C1249 1.376 . S
C1250 C1251 1.388 . S
C1251 H1238 0.930 . S
C1251 C1250 1.388 . S
C1251 C1252 1.390 . S
C1252 C1251 1.390 . S
C1252 C1253 1.394 . S
C1252 C1258 1.465 . S
C1253 C1248 1.399 . S
C1253 C1252 1.394 . S
C1253 C1254 1.516 . S
C1254 C1253 1.516 . S
C1254 C1255 1.502 . S
C1254 C1256 1.561 . S
C1254 C1257 1.526 . S
C1255 H1239 0.959 . S
C1255 H1240 0.959 . S
C1255 H1241 0.961 . S
C1255 C1254 1.502 . S
C1256 H1242 0.960 . S
C1256 H1243 0.961 . S
C1256 H1244 0.959 . S
C1256 C1254 1.561 . S
C1257 C1254 1.526 . S
C1257 C1258 1.396 . S
C1257 C1262 1.390 . S
C1258 C1252 1.465 . S
C1258 C1257 1.396 . S
C1258 C1259 1.399 . S
C1259 H1245 0.929 . S
C1259 C1258 1.399 . S
C1259 C1260 1.385 . S
C1260 H1246 0.931 . S
C1260 C1259 1.385 . S
C1260 C1261 1.389 . S
C1261 C1260 1.389 . S
C1261 C1262 1.387 . S
C1262 H1247 0.930 . S
C1262 C1257 1.390 . S
C1262 C1261 1.387 . S
H1263 C1275 0.930 1_545 S
H1264 C1277 0.930 . S
H1265 C1278 0.930 . S
H1266 C1282 0.953 1_565 S
H1267 C1282 0.959 . S
H1268 C1282 0.961 . S
H1269 C1283 0.960 . S
H1270 C1283 0.961 . S
H1271 C1283 0.959 . S
H1272 C1286 0.929 . S
H1273 C1287 0.931 . S
H1274 C1289 0.930 . S
C1275 H1263 0.930 1_565 S
C1275 C1276 1.399 . S
C1275 C1280 1.399 . S
C1276 C1275 1.399 . S
C1276 C1277 1.376 . S
C1277 H1264 0.930 . S
C1277 C1276 1.376 . S
C1277 C1278 1.388 . S
C1278 H1265 0.930 . S
C1278 C1277 1.388 . S
C1278 C1279 1.390 . S
C1279 C1278 1.390 . S
C1279 C1280 1.394 . S
C1279 C1285 1.465 . S
C1280 C1275 1.399 . S
C1280 C1279 1.394 . S
C1280 C1281 1.516 . S
C1281 C1280 1.516 . S
C1281 C1282 1.502 1_565 S
C1281 C1283 1.561 1_565 S
C1281 C1284 1.526 . S
C1282 H1266 0.953 1_545 S
C1282 H1267 0.959 . S
C1282 H1268 0.961 . S
C1282 C1281 1.502 1_545 S
C1283 H1269 0.960 . S
C1283 H1270 0.961 . S
C1283 H1271 0.959 . S
C1283 C1281 1.561 1_545 S
C1284 C1281 1.526 . S
C1284 C1285 1.396 . S
C1284 C1289 1.390 . S
C1285 C1279 1.465 . S
C1285 C1284 1.396 . S
C1285 C1286 1.399 . S
C1286 H1272 0.929 . S
C1286 C1285 1.399 . S
C1286 C1287 1.385 . S
C1287 H1273 0.931 . S
C1287 C1286 1.385 . S
C1287 C1288 1.389 . S
C1288 C1287 1.389 . S
C1288 C1289 1.387 . S
C1289 H1274 0.930 . S
C1289 C1284 1.390 . S
C1289 C1288 1.387 . S
H1290 C1302 0.930 . S
H1291 C1304 0.930 . S
H1292 C1305 0.930 . S
H1293 C1309 0.959 . S
H1294 C1309 0.959 . S
H1295 C1309 0.961 . S
H1296 C1310 0.960 . S
H1297 C1310 0.961 . S
H1298 C1310 0.959 . S
H1299 C1313 0.929 . S
H1300 C1314 0.931 . S
H1301 C1316 0.930 . S
C1302 H1290 0.930 . S
C1302 C1303 1.399 . S
C1302 C1307 1.399 . S
C1303 C1302 1.399 . S
C1303 C1304 1.376 . S
C1304 H1291 0.930 . S
C1304 C1303 1.376 . S
C1304 C1305 1.388 . S
C1305 H1292 0.930 . S
C1305 C1304 1.388 . S
C1305 C1306 1.390 . S
C1306 C1305 1.390 . S
C1306 C1307 1.394 . S
C1306 C1312 1.465 . S
C1307 C1302 1.399 . S
C1307 C1306 1.394 . S
C1307 C1308 1.516 . S
C1308 C1307 1.516 . S
C1308 C1309 1.502 . S
C1308 C1310 1.561 . S
C1308 C1311 1.526 . S
C1309 H1293 0.959 . S
C1309 H1294 0.959 . S
C1309 H1295 0.961 . S
C1309 C1308 1.502 . S
C1310 H1296 0.960 . S
C1310 H1297 0.961 . S
C1310 H1298 0.959 . S
C1310 C1308 1.561 . S
C1311 C1308 1.526 . S
C1311 C1312 1.396 . S
C1311 C1316 1.390 . S
C1312 C1306 1.465 . S
C1312 C1311 1.396 . S
C1312 C1313 1.399 . S
C1313 H1299 0.929 . S
C1313 C1312 1.399 . S
C1313 C1314 1.385 . S
C1314 H1300 0.931 . S
C1314 C1313 1.385 . S
C1314 C1315 1.389 . S
C1315 C1314 1.389 . S
C1315 C1316 1.387 . S
C1316 H1301 0.930 . S
C1316 C1311 1.390 . S
C1316 C1315 1.387 . S
H1317 C1329 0.930 . S
H1318 C1331 0.930 . S
H1319 C1332 0.930 . S
H1320 C1336 0.959 . S
H1321 C1336 0.959 . S
H1322 C1336 0.961 . S
H1323 C1337 0.960 . S
H1324 C1337 0.961 . S
H1325 C1337 0.959 . S
H1326 C1340 0.929 1_565 S
H1327 C1341 0.931 . S
H1328 C1343 0.930 . S
C1329 H1317 0.930 . S
C1329 C1330 1.399 . S
C1329 C1334 1.399 . S
C1330 C1329 1.399 . S
C1330 C1331 1.376 1_545 S
C1331 H1318 0.930 . S
C1331 C1330 1.376 1_565 S
C1331 C1332 1.388 . S
C1332 H1319 0.930 . S
C1332 C1331 1.388 . S
C1332 C1333 1.390 1_565 S
C1333 C1332 1.390 1_545 S
C1333 C1334 1.394 . S
C1333 C1339 1.465 . S
C1334 C1329 1.399 . S
C1334 C1333 1.394 . S
C1334 C1335 1.516 . S
C1335 C1334 1.516 . S
C1335 C1336 1.502 . S
C1335 C1337 1.561 . S
C1335 C1338 1.526 . S
C1336 H1320 0.959 . S
C1336 H1321 0.959 . S
C1336 H1322 0.961 . S
C1336 C1335 1.502 . S
C1337 H1323 0.960 . S
C1337 H1324 0.961 . S
C1337 H1325 0.959 . S
C1337 C1335 1.561 . S
C1338 C1335 1.526 . S
C1338 C1339 1.396 . S
C1338 C1343 1.390 . S
C1339 C1333 1.465 . S
C1339 C1338 1.396 . S
C1339 C1340 1.399 . S
C1340 H1326 0.929 1_545 S
C1340 C1339 1.399 . S
C1340 C1341 1.385 . S
C1341 H1327 0.931 . S
C1341 C1340 1.385 . S
C1341 C1342 1.389 . S
C1342 C1341 1.389 . S
C1342 C1343 1.387 . S
C1343 H1328 0.930 . S
C1343 C1338 1.390 . S
C1343 C1342 1.387 . S
H1344 C1356 0.930 . S
H1345 C1358 0.930 . S
H1346 C1359 0.930 . S
H1347 C1363 0.959 . S
H1348 C1363 0.959 . S
H1349 C1363 0.961 . S
H1350 C1364 0.960 . S
H1351 C1364 0.961 . S
H1352 C1364 0.959 . S
H1353 C1367 0.929 . S
H1354 C1368 0.931 . S
H1355 C1370 0.930 . S
C1356 H1344 0.930 . S
C1356 C1357 1.399 . S
C1356 C1361 1.399 . S
C1357 C1356 1.399 . S
C1357 C1358 1.376 . S
C1358 H1345 0.930 . S
C1358 C1357 1.376 . S
C1358 C1359 1.388 . S
C1359 H1346 0.930 . S
C1359 C1358 1.388 . S
C1359 C1360 1.390 . S
C1360 C1359 1.390 . S
C1360 C1361 1.394 . S
C1360 C1366 1.465 . S
C1361 C1356 1.399 . S
C1361 C1360 1.394 . S
C1361 C1362 1.516 . S
C1362 C1361 1.516 . S
C1362 C1363 1.502 . S
C1362 C1364 1.561 . S
C1362 C1365 1.526 . S
C1363 H1347 0.959 . S
C1363 H1348 0.959 . S
C1363 H1349 0.961 . S
C1363 C1362 1.502 . S
C1364 H1350 0.960 . S
C1364 H1351 0.961 . S
C1364 H1352 0.959 . S
C1364 C1362 1.561 . S
C1365 C1362 1.526 . S
C1365 C1366 1.396 . S
C1365 C1370 1.390 . S
C1366 C1360 1.465 . S
C1366 C1365 1.396 . S
C1366 C1367 1.399 . S
C1367 H1353 0.929 . S
C1367 C1366 1.399 . S
C1367 C1368 1.385 . S
C1368 H1354 0.931 . S
C1368 C1367 1.385 . S
C1368 C1369 1.389 . S
C1369 C1368 1.389 . S
C1369 C1370 1.387 . S
C1370 H1355 0.930 . S
C1370 C1365 1.390 . S
C1370 C1369 1.387 . S
H1371 C1383 0.930 1_554 S
H1372 C1385 0.930 . S
H1373 C1386 0.930 . S
H1374 C1390 0.959 . S
H1375 C1390 0.959 . S
H1376 C1390 0.961 . S
H1377 C1391 0.960 . S
H1378 C1391 0.961 . S
H1379 C1391 0.959 . S
H1380 C1394 0.929 . S
H1381 C1395 0.931 . S
H1382 C1397 0.930 . S
C1383 H1371 0.930 1_556 S
C1383 C1384 1.399 . S
C1383 C1388 1.399 . S
C1384 C1383 1.399 . S
C1384 C1385 1.376 . S
C1385 H1372 0.930 . S
C1385 C1384 1.376 . S
C1385 C1386 1.388 . S
C1386 H1373 0.930 . S
C1386 C1385 1.388 . S
C1386 C1387 1.390 . S
C1387 C1386 1.390 . S
C1387 C1388 1.394 . S
C1387 C1393 1.465 . S
C1388 C1383 1.399 . S
C1388 C1387 1.394 . S
C1388 C1389 1.516 1_556 S
C1389 C1388 1.516 1_554 S
C1389 C1390 1.502 . S
C1389 C1391 1.561 . S
C1389 C1392 1.526 1_554 S
C1390 H1374 0.959 . S
C1390 H1375 0.959 . S
C1390 H1376 0.961 . S
C1390 C1389 1.502 . S
C1391 H1377 0.960 . S
C1391 H1378 0.961 . S
C1391 H1379 0.959 . S
C1391 C1389 1.561 . S
C1392 C1389 1.526 1_556 S
C1392 C1393 1.396 . S
C1392 C1397 1.390 . S
C1393 C1387 1.465 . S
C1393 C1392 1.396 . S
C1393 C1394 1.399 . S
C1394 H1380 0.929 . S
C1394 C1393 1.399 . S
C1394 C1395 1.385 . S
C1395 H1381 0.931 . S
C1395 C1394 1.385 . S
C1395 C1396 1.389 . S
C1396 C1395 1.389 . S
C1396 C1397 1.387 . S
C1397 H1382 0.930 . S
C1397 C1392 1.390 . S
C1397 C1396 1.387 . S
H1398 C1410 0.930 . S
H1399 C1412 0.930 . S
H1400 C1413 0.930 . S
H1401 C1417 0.959 . S
H1402 C1417 0.959 . S
H1403 C1417 0.961 . S
H1404 C1418 0.960 . S
H1405 C1418 0.961 . S
H1406 C1418 0.959 . S
H1407 C1421 0.929 . S
H1408 C1422 0.931 . S
H1409 C1424 0.930 . S
C1410 H1398 0.930 . S
C1410 C1411 1.399 1_554 S
C1410 C1415 1.399 . S
C1411 C1410 1.399 1_556 S
C1411 C1412 1.376 . S
C1412 H1399 0.930 . S
C1412 C1411 1.376 . S
C1412 C1413 1.388 . S
C1413 H1400 0.930 . S
C1413 C1412 1.388 . S
C1413 C1414 1.390 . S
C1414 C1413 1.390 . S
C1414 C1415 1.394 1_556 S
C1414 C1420 1.465 . S
C1415 C1410 1.399 . S
C1415 C1414 1.394 1_554 S
C1415 C1416 1.516 . S
C1416 C1415 1.516 . S
C1416 C1417 1.502 . S
C1416 C1418 1.561 . S
C1416 C1419 1.525 1_554 S
C1417 H1401 0.959 . S
C1417 H1402 0.959 . S
C1417 H1403 0.961 . S
C1417 C1416 1.502 . S
C1418 H1404 0.960 . S
C1418 H1405 0.961 . S
C1418 H1406 0.959 . S
C1418 C1416 1.561 . S
C1419 C1416 1.525 1_556 S
C1419 C1420 1.397 . S
C1419 C1424 1.389 1_556 S
C1420 C1414 1.465 . S
C1420 C1419 1.397 . S
C1420 C1421 1.399 . S
C1421 H1407 0.929 . S
C1421 C1420 1.399 . S
C1421 C1422 1.385 . S
C1422 H1408 0.931 . S
C1422 C1421 1.385 . S
C1422 C1423 1.389 . S
C1423 C1422 1.389 . S
C1423 C1424 1.387 1_556 S
C1424 H1409 0.930 . S
C1424 C1419 1.389 1_554 S
C1424 C1423 1.387 1_554 S
H1425 C1437 0.930 . S
H1426 C1439 0.930 . S
H1427 C1440 0.930 . S
H1428 C1444 0.959 . S
H1429 C1444 0.959 . S
H1430 C1444 0.961 . S
H1431 C1445 0.960 . S
H1432 C1445 0.961 . S
H1433 C1445 0.959 . S
H1434 C1448 0.929 1_556 S
H1435 C1449 0.931 . S
H1436 C1451 0.930 . S
C1437 H1425 0.930 . S
C1437 C1438 1.399 . S
C1437 C1442 1.399 . S
C1438 C1437 1.399 . S
C1438 C1439 1.376 1_554 S
C1439 H1426 0.930 . S
C1439 C1438 1.376 1_556 S
C1439 C1440 1.388 . S
C1440 H1427 0.930 . S
C1440 C1439 1.388 . S
C1440 C1441 1.390 1_556 S
C1441 C1440 1.390 1_554 S
C1441 C1442 1.394 . S
C1441 C1447 1.465 . S
C1442 C1437 1.399 . S
C1442 C1441 1.394 . S
C1442 C1443 1.516 . S
C1443 C1442 1.516 . S
C1443 C1444 1.502 . S
C1443 C1445 1.561 . S
C1443 C1446 1.526 . S
C1444 H1428 0.959 . S
C1444 H1429 0.959 . S
C1444 H1430 0.961 . S
C1444 C1443 1.502 . S
C1445 H1431 0.960 . S
C1445 H1432 0.961 . S
C1445 H1433 0.959 . S
C1445 C1443 1.561 . S
C1446 C1443 1.526 . S
C1446 C1447 1.396 . S
C1446 C1451 1.390 . S
C1447 C1441 1.465 . S
C1447 C1446 1.396 . S
C1447 C1448 1.399 . S
C1448 H1434 0.929 1_554 S
C1448 C1447 1.399 . S
C1448 C1449 1.385 . S
C1449 H1435 0.931 . S
C1449 C1448 1.385 . S
C1449 C1450 1.389 . S
C1450 C1449 1.389 . S
C1450 C1451 1.387 . S
C1451 H1436 0.930 . S
C1451 C1446 1.390 . S
C1451 C1450 1.387 . S
H1452 C1464 0.930 . S
H1453 C1466 0.930 . S
H1454 C1467 0.930 . S
H1455 C1471 0.959 . S
H1456 C1471 0.959 . S
H1457 C1471 0.961 . S
H1458 C1472 0.960 . S
H1459 C1472 0.961 . S
H1460 C1472 0.959 1_655 S
H1461 C1475 0.929 . S
H1462 C1476 0.931 . S
H1463 C1478 0.930 . S
C1464 H1452 0.930 . S
C1464 C1465 1.399 . S
C1464 C1469 1.399 . S
C1465 C1464 1.399 . S
C1465 C1466 1.376 . S
C1466 H1453 0.930 . S
C1466 C1465 1.376 . S
C1466 C1467 1.388 . S
C1467 H1454 0.930 . S
C1467 C1466 1.388 . S
C1467 C1468 1.390 . S
C1468 C1467 1.390 . S
C1468 C1469 1.394 . S
C1468 C1474 1.465 . S
C1469 C1464 1.399 . S
C1469 C1468 1.394 . S
C1469 C1470 1.516 . S
C1470 C1469 1.516 . S
C1470 C1471 1.502 . S
C1470 C1472 1.561 . S
C1470 C1473 1.526 . S
C1471 H1455 0.959 . S
C1471 H1456 0.959 . S
C1471 H1457 0.961 . S
C1471 C1470 1.502 . S
C1472 H1458 0.960 . S
C1472 H1459 0.961 . S
C1472 H1460 0.959 1_455 S
C1472 C1470 1.561 . S
C1473 C1470 1.526 . S
C1473 C1474 1.396 . S
C1473 C1478 1.390 . S
C1474 C1468 1.465 . S
C1474 C1473 1.396 . S
C1474 C1475 1.399 . S
C1475 H1461 0.929 . S
C1475 C1474 1.399 . S
C1475 C1476 1.385 . S
C1476 H1462 0.931 . S
C1476 C1475 1.385 . S
C1476 C1477 1.389 . S
C1477 C1476 1.389 . S
C1477 C1478 1.387 . S
C1478 H1463 0.930 . S
C1478 C1473 1.390 . S
C1478 C1477 1.387 . S
H1479 C1491 0.930 1_455 S
H1480 C1493 0.930 . S
H1481 C1494 0.930 . S
H1482 C1498 0.959 . S
H1483 C1498 0.959 . S
H1484 C1498 0.961 . S
H1485 C1499 0.960 . S
H1486 C1499 0.961 . S
H1487 C1499 0.959 . S
H1488 C1502 0.929 . S
H1489 C1503 0.931 . S
H1490 C1505 0.930 . S
C1491 H1479 0.930 1_655 S
C1491 C1492 1.399 . S
C1491 C1496 1.399 . S
C1492 C1491 1.399 . S
C1492 C1493 1.376 . S
C1493 H1480 0.930 . S
C1493 C1492 1.376 . S
C1493 C1494 1.388 . S
C1494 H1481 0.930 . S
C1494 C1493 1.388 . S
C1494 C1495 1.390 . S
C1495 C1494 1.390 . S
C1495 C1496 1.394 . S
C1495 C1501 1.465 . S
C1496 C1491 1.399 . S
C1496 C1495 1.394 . S
C1496 C1497 1.516 . S
C1497 C1496 1.516 . S
C1497 C1498 1.502 1_655 S
C1497 C1499 1.561 . S
C1497 C1500 1.526 . S
C1498 H1482 0.959 . S
C1498 H1483 0.959 . S
C1498 H1484 0.961 . S
C1498 C1497 1.502 1_455 S
C1499 H1485 0.960 . S
C1499 H1486 0.961 . S
C1499 H1487 0.959 . S
C1499 C1497 1.561 . S
C1500 C1497 1.526 . S
C1500 C1501 1.396 . S
C1500 C1505 1.390 . S
C1501 C1495 1.465 . S
C1501 C1500 1.396 . S
C1501 C1502 1.399 . S
C1502 H1488 0.929 . S
C1502 C1501 1.399 . S
C1502 C1503 1.385 . S
C1503 H1489 0.931 . S
C1503 C1502 1.385 . S
C1503 C1504 1.389 . S
C1504 C1503 1.389 . S
C1504 C1505 1.387 . S
C1505 H1490 0.930 . S
C1505 C1500 1.390 . S
C1505 C1504 1.387 . S
H1506 C1518 0.930 . S
H1507 C1520 0.930 . S
H1508 C1521 0.930 . S
H1509 C1525 0.959 . S
H1510 C1525 0.959 . S
H1511 C1525 0.961 . S
H1512 C1526 0.960 . S
H1513 C1526 0.961 . S
H1514 C1526 0.959 . S
H1515 C1529 0.929 . S
H1516 C1530 0.931 . S
H1517 C1532 0.930 . S
C1518 H1506 0.930 . S
C1518 C1519 1.399 . S
C1518 C1523 1.399 . S
C1519 C1518 1.399 . S
C1519 C1520 1.376 . S
C1520 H1507 0.930 . S
C1520 C1519 1.376 . S
C1520 C1521 1.388 . S
C1521 H1508 0.930 . S
C1521 C1520 1.388 . S
C1521 C1522 1.390 . S
C1522 C1521 1.390 . S
C1522 C1523 1.394 . S
C1522 C1528 1.465 . S
C1523 C1518 1.399 . S
C1523 C1522 1.394 . S
C1523 C1524 1.516 . S
C1524 C1523 1.516 . S
C1524 C1525 1.502 . S
C1524 C1526 1.561 1_455 S
C1524 C1527 1.526 . S
C1525 H1509 0.959 . S
C1525 H1510 0.959 . S
C1525 H1511 0.961 . S
C1525 C1524 1.502 . S
C1526 H1512 0.960 . S
C1526 H1513 0.961 . S
C1526 H1514 0.959 . S
C1526 C1524 1.561 1_655 S
C1527 C1524 1.526 . S
C1527 C1528 1.396 . S
C1527 C1532 1.390 . S
C1528 C1522 1.465 . S
C1528 C1527 1.396 . S
C1528 C1529 1.399 . S
C1529 H1515 0.929 . S
C1529 C1528 1.399 . S
C1529 C1530 1.385 . S
C1530 H1516 0.931 . S
C1530 C1529 1.385 . S
C1530 C1531 1.389 . S
C1531 C1530 1.389 . S
C1531 C1532 1.387 . S
C1532 H1517 0.930 . S
C1532 C1527 1.390 . S
C1532 C1531 1.387 . S
H1533 C1545 0.930 . S
H1534 C1547 0.930 . S
H1535 C1548 0.930 . S
H1536 C1552 0.959 . S
H1537 C1552 0.959 . S
H1538 C1552 0.961 . S
H1539 C1553 0.960 . S
H1540 C1553 0.961 . S
H1541 C1553 0.959 . S
H1542 C1556 0.929 . S
H1543 C1557 0.931 . S
H1544 C1559 0.930 . S
C1545 H1533 0.930 . S
C1545 C1546 1.399 . S
C1545 C1550 1.399 . S
C1546 C1545 1.399 . S
C1546 C1547 1.376 . S
C1547 H1534 0.930 . S
C1547 C1546 1.376 . S
C1547 C1548 1.388 . S
C1548 H1535 0.930 . S
C1548 C1547 1.388 . S
C1548 C1549 1.390 . S
C1549 C1548 1.390 . S
C1549 C1550 1.394 . S
C1549 C1555 1.465 . S
C1550 C1545 1.399 . S
C1550 C1549 1.394 . S
C1550 C1551 1.516 . S
C1551 C1550 1.516 . S
C1551 C1552 1.502 . S
C1551 C1553 1.561 1_655 S
C1551 C1554 1.526 . S
C1552 H1536 0.959 . S
C1552 H1537 0.959 . S
C1552 H1538 0.961 . S
C1552 C1551 1.502 . S
C1553 H1539 0.960 . S
C1553 H1540 0.961 . S
C1553 H1541 0.959 . S
C1553 C1551 1.561 1_455 S
C1554 C1551 1.526 . S
C1554 C1555 1.396 . S
C1554 C1559 1.390 . S
C1555 C1549 1.465 . S
C1555 C1554 1.396 . S
C1555 C1556 1.399 . S
C1556 H1542 0.929 . S
C1556 C1555 1.399 . S
C1556 C1557 1.385 . S
C1557 H1543 0.931 . S
C1557 C1556 1.385 . S
C1557 C1558 1.389 . S
C1558 C1557 1.389 . S
C1558 C1559 1.387 . S
C1559 H1544 0.930 . S
C1559 C1554 1.390 . S
C1559 C1558 1.387 . S
H1560 C1572 0.930 . S
H1561 C1574 0.930 . S
H1562 C1575 0.930 . S
H1563 C1579 0.959 1_565 S
H1564 C1579 0.959 . S
H1565 C1579 0.961 . S
H1566 C1580 0.960 . S
H1567 C1580 0.961 . S
H1568 C1580 0.959 . S
H1569 C1583 0.929 . S
H1570 C1584 0.931 . S
H1571 C1586 0.930 . S
C1572 H1560 0.930 . S
C1572 C1573 1.399 . S
C1572 C1577 1.399 . S
C1573 C1572 1.399 . S
C1573 C1574 1.376 . S
C1574 H1561 0.930 . S
C1574 C1573 1.376 . S
C1574 C1575 1.388 . S
C1575 H1562 0.930 . S
C1575 C1574 1.388 . S
C1575 C1576 1.390 . S
C1576 C1575 1.390 . S
C1576 C1577 1.394 . S
C1576 C1582 1.465 . S
C1577 C1572 1.399 . S
C1577 C1576 1.394 . S
C1577 C1578 1.516 . S
C1578 C1577 1.516 . S
C1578 C1579 1.502 . S
C1578 C1580 1.561 . S
C1578 C1581 1.526 . S
C1579 H1563 0.959 1_545 S
C1579 H1564 0.959 . S
C1579 H1565 0.961 . S
C1579 C1578 1.502 . S
C1580 H1566 0.960 . S
C1580 H1567 0.961 . S
C1580 H1568 0.959 . S
C1580 C1578 1.561 . S
C1581 C1578 1.526 . S
C1581 C1582 1.396 . S
C1581 C1586 1.390 . S
C1582 C1576 1.465 . S
C1582 C1581 1.396 . S
C1582 C1583 1.399 . S
C1583 H1569 0.929 . S
C1583 C1582 1.399 . S
C1583 C1584 1.385 . S
C1584 H1570 0.931 . S
C1584 C1583 1.385 . S
C1584 C1585 1.389 . S
C1585 C1584 1.389 . S
C1585 C1586 1.387 . S
C1586 H1571 0.930 . S
C1586 C1581 1.390 . S
C1586 C1585 1.387 . S
H1587 C1599 0.930 . S
H1588 C1601 0.930 . S
H1589 C1602 0.930 . S
H1590 C1606 0.959 . S
H1591 C1606 0.959 . S
H1592 C1606 0.961 . S
H1593 C1607 0.960 . S
H1594 C1607 0.961 . S
H1595 C1607 0.959 . S
H1596 C1610 0.929 . S
H1597 C1611 0.931 . S
H1598 C1613 0.930 . S
C1599 H1587 0.930 . S
C1599 C1600 1.399 . S
C1599 C1604 1.399 . S
C1600 C1599 1.399 . S
C1600 C1601 1.376 . S
C1601 H1588 0.930 . S
C1601 C1600 1.376 . S
C1601 C1602 1.388 . S
C1602 H1589 0.930 . S
C1602 C1601 1.388 . S
C1602 C1603 1.390 . S
C1603 C1602 1.390 . S
C1603 C1604 1.394 . S
C1603 C1609 1.465 . S
C1604 C1599 1.399 . S
C1604 C1603 1.394 . S
C1604 C1605 1.516 . S
C1605 C1604 1.516 . S
C1605 C1606 1.502 . S
C1605 C1607 1.561 . S
C1605 C1608 1.526 . S
C1606 H1590 0.959 . S
C1606 H1591 0.959 . S
C1606 H1592 0.961 . S
C1606 C1605 1.502 . S
C1607 H1593 0.960 . S
C1607 H1594 0.961 . S
C1607 H1595 0.959 . S
C1607 C1605 1.561 . S
C1608 C1605 1.526 . S
C1608 C1609 1.396 . S
C1608 C1613 1.390 . S
C1609 C1603 1.465 . S
C1609 C1608 1.396 . S
C1609 C1610 1.399 . S
C1610 H1596 0.929 . S
C1610 C1609 1.399 . S
C1610 C1611 1.385 . S
C1611 H1597 0.931 . S
C1611 C1610 1.385 . S
C1611 C1612 1.389 . S
C1612 C1611 1.389 . S
C1612 C1613 1.387 . S
C1613 H1598 0.930 . S
C1613 C1608 1.390 . S
C1613 C1612 1.387 . S
H1614 C1626 0.930 . S
H1615 C1628 0.930 . S
H1616 C1629 0.930 . S
H1617 C1633 0.959 . S
H1618 C1633 0.959 . S
H1619 C1633 0.961 . S
H1620 C1634 0.960 . S
H1621 C1634 0.961 . S
H1622 C1634 0.959 . S
H1623 C1637 0.929 . S
H1624 C1638 0.931 1_545 S
H1625 C1640 0.930 . S
C1626 H1614 0.930 . S
C1626 C1627 1.399 . S
C1626 C1631 1.399 . S
C1627 C1626 1.399 . S
C1627 C1628 1.376 1_565 S
C1628 H1615 0.930 . S
C1628 C1627 1.376 1_545 S
C1628 C1629 1.388 . S
C1629 H1616 0.930 . S
C1629 C1628 1.388 . S
C1629 C1630 1.390 1_545 S
C1630 C1629 1.390 1_565 S
C1630 C1631 1.394 . S
C1630 C1636 1.465 . S
C1631 C1626 1.399 . S
C1631 C1630 1.394 . S
C1631 C1632 1.516 . S
C1632 C1631 1.516 . S
C1632 C1633 1.502 . S
C1632 C1634 1.561 . S
C1632 C1635 1.526 . S
C1633 H1617 0.959 . S
C1633 H1618 0.959 . S
C1633 H1619 0.961 . S
C1633 C1632 1.502 . S
C1634 H1620 0.960 . S
C1634 H1621 0.961 . S
C1634 H1622 0.959 . S
C1634 C1632 1.561 . S
C1635 C1632 1.526 . S
C1635 C1636 1.396 . S
C1635 C1640 1.390 . S
C1636 C1630 1.465 . S
C1636 C1635 1.396 . S
C1636 C1637 1.399 1_565 S
C1637 H1623 0.929 . S
C1637 C1636 1.399 1_545 S
C1637 C1638 1.385 1_545 S
C1638 H1624 0.931 1_565 S
C1638 C1637 1.385 1_565 S
C1638 C1639 1.389 . S
C1639 C1638 1.389 . S
C1639 C1640 1.387 . S
C1640 H1625 0.930 . S
C1640 C1635 1.390 . S
C1640 C1639 1.387 . S
H1641 C1653 0.930 . S
H1642 C1655 0.930 . S
H1643 C1656 0.930 . S
H1644 C1660 0.959 . S
H1645 C1660 0.959 . S
H1646 C1660 0.961 . S
H1647 C1661 0.960 . S
H1648 C1661 0.961 . S
H1649 C1661 0.959 . S
H1650 C1664 0.929 . S
H1651 C1665 0.931 . S
H1652 C1667 0.930 . S
C1653 H1641 0.930 . S
C1653 C1654 1.399 . S
C1653 C1658 1.399 . S
C1654 C1653 1.399 . S
C1654 C1655 1.376 . S
C1655 H1642 0.930 . S
C1655 C1654 1.376 . S
C1655 C1656 1.388 . S
C1656 H1643 0.930 . S
C1656 C1655 1.388 . S
C1656 C1657 1.390 . S
C1657 C1656 1.390 . S
C1657 C1658 1.394 . S
C1657 C1663 1.465 . S
C1658 C1653 1.399 . S
C1658 C1657 1.394 . S
C1658 C1659 1.516 . S
C1659 C1658 1.516 . S
C1659 C1660 1.502 . S
C1659 C1661 1.561 . S
C1659 C1662 1.526 . S
C1660 H1644 0.959 . S
C1660 H1645 0.959 . S
C1660 H1646 0.961 . S
C1660 C1659 1.502 . S
C1661 H1647 0.960 . S
C1661 H1648 0.961 . S
C1661 H1649 0.959 . S
C1661 C1659 1.561 . S
C1662 C1659 1.526 . S
C1662 C1663 1.396 . S
C1662 C1667 1.390 . S
C1663 C1657 1.465 . S
C1663 C1662 1.396 . S
C1663 C1664 1.399 . S
C1664 H1650 0.929 . S
C1664 C1663 1.399 . S
C1664 C1665 1.385 . S
C1665 H1651 0.931 . S
C1665 C1664 1.385 . S
C1665 C1666 1.389 . S
C1666 C1665 1.389 . S
C1666 C1667 1.387 . S
C1667 H1652 0.930 . S
C1667 C1662 1.390 . S
C1667 C1666 1.387 . S
H1668 C1680 0.930 . S
H1669 C1682 0.930 1_556 S
H1670 C1683 0.949 . S
H1671 C1687 0.959 . S
H1672 C1687 0.959 . S
H1673 C1687 0.961 . S
H1674 C1688 0.960 . S
H1675 C1688 0.961 . S
H1676 C1688 0.959 . S
H1677 C1691 0.929 1_556 S
H1678 C1692 0.931 1_556 S
H1679 C1694 0.930 . S
C1680 H1668 0.930 . S
C1680 C1681 1.399 . S
C1680 C1685 1.399 . S
C1681 C1680 1.399 . S
C1681 C1682 1.376 . S
C1682 H1669 0.930 1_554 S
C1682 C1681 1.376 . S
C1682 C1683 1.387 1_554 S
C1683 H1670 0.949 . S
C1683 C1682 1.387 1_556 S
C1683 C1684 1.372 1_556 S
C1684 C1683 1.372 1_554 S
C1684 C1685 1.394 . S
C1684 C1690 1.465 . S
C1685 C1680 1.399 . S
C1685 C1684 1.394 . S
C1685 C1686 1.516 . S
C1686 C1685 1.516 . S
C1686 C1687 1.502 . S
C1686 C1688 1.561 . S
C1686 C1689 1.526 . S
C1687 H1671 0.959 . S
C1687 H1672 0.959 . S
C1687 H1673 0.961 . S
C1687 C1686 1.502 . S
C1688 H1674 0.960 . S
C1688 H1675 0.961 . S
C1688 H1676 0.959 . S
C1688 C1686 1.561 . S
C1689 C1686 1.526 . S
C1689 C1690 1.396 . S
C1689 C1694 1.390 . S
C1690 C1684 1.465 . S
C1690 C1689 1.396 . S
C1690 C1691 1.399 . S
C1691 H1677 0.929 1_554 S
C1691 C1690 1.399 . S
C1691 C1692 1.385 . S
C1692 H1678 0.931 1_554 S
C1692 C1691 1.385 . S
C1692 C1693 1.389 . S
C1693 C1692 1.389 . S
C1693 C1694 1.387 . S
C1694 H1679 0.930 . S
C1694 C1689 1.390 . S
C1694 C1693 1.387 . S
H1695 C1707 0.930 . S
H1696 C1709 0.930 . S
H1697 C1710 0.930 . S
H1698 C1714 0.959 . S
H1699 C1714 0.959 . S
H1700 C1714 0.961 . S
H1701 C1715 0.960 . S
H1702 C1715 0.961 . S
H1703 C1715 0.959 . S
H1704 C1718 0.929 . S
H1705 C1719 0.931 . S
H1706 C1721 0.930 . S
C1707 H1695 0.930 . S
C1707 C1708 1.399 . S
C1707 C1712 1.399 . S
C1708 C1707 1.399 . S
C1708 C1709 1.376 . S
C1709 H1696 0.930 . S
C1709 C1708 1.376 . S
C1709 C1710 1.388 . S
C1710 H1697 0.930 . S
C1710 C1709 1.388 . S
C1710 C1711 1.390 . S
C1711 C1710 1.390 . S
C1711 C1712 1.394 . S
C1711 C1717 1.465 . S
C1712 C1707 1.399 . S
C1712 C1711 1.394 . S
C1712 C1713 1.516 . S
C1713 C1712 1.516 . S
C1713 C1714 1.502 . S
C1713 C1715 1.561 . S
C1713 C1716 1.526 . S
C1714 H1698 0.959 . S
C1714 H1699 0.959 . S
C1714 H1700 0.961 . S
C1714 C1713 1.502 . S
C1715 H1701 0.960 . S
C1715 H1702 0.961 . S
C1715 H1703 0.959 . S
C1715 C1713 1.561 . S
C1716 C1713 1.526 . S
C1716 C1717 1.396 . S
C1716 C1721 1.390 . S
C1717 C1711 1.465 . S
C1717 C1716 1.396 . S
C1717 C1718 1.399 . S
C1718 H1704 0.929 . S
C1718 C1717 1.399 . S
C1718 C1719 1.385 . S
C1719 H1705 0.931 . S
C1719 C1718 1.385 . S
C1719 C1720 1.389 . S
C1720 C1719 1.389 . S
C1720 C1721 1.387 . S
C1721 H1706 0.930 . S
C1721 C1716 1.390 . S
C1721 C1720 1.387 . S
H1722 C1734 0.930 . S
H1723 C1736 0.930 . S
H1724 C1737 0.930 . S
H1725 C1741 0.959 . S
H1726 C1741 0.959 . S
H1727 C1741 0.961 . S
H1728 C1742 0.960 . S
H1729 C1742 0.961 . S
H1730 C1742 0.959 . S
H1731 C1745 0.929 . S
H1732 C1746 0.931 . S
H1733 C1748 0.930 . S
C1734 H1722 0.930 . S
C1734 C1735 1.399 . S
C1734 C1739 1.399 . S
C1735 C1734 1.399 . S
C1735 C1736 1.376 . S
C1736 H1723 0.930 . S
C1736 C1735 1.376 . S
C1736 C1737 1.388 . S
C1737 H1724 0.930 . S
C1737 C1736 1.388 . S
C1737 C1738 1.390 . S
C1738 C1737 1.390 . S
C1738 C1739 1.394 . S
C1738 C1744 1.465 . S
C1739 C1734 1.399 . S
C1739 C1738 1.394 . S
C1739 C1740 1.516 . S
C1740 C1739 1.516 . S
C1740 C1741 1.502 . S
C1740 C1742 1.561 . S
C1740 C1743 1.526 . S
C1741 H1725 0.959 . S
C1741 H1726 0.959 . S
C1741 H1727 0.961 . S
C1741 C1740 1.502 . S
C1742 H1728 0.960 . S
C1742 H1729 0.961 . S
C1742 H1730 0.959 . S
C1742 C1740 1.561 . S
C1743 C1740 1.526 . S
C1743 C1744 1.396 . S
C1743 C1748 1.390 . S
C1744 C1738 1.465 . S
C1744 C1743 1.396 . S
C1744 C1745 1.399 . S
C1745 H1731 0.929 . S
C1745 C1744 1.399 . S
C1745 C1746 1.385 . S
C1746 H1732 0.931 . S
C1746 C1745 1.385 . S
C1746 C1747 1.389 . S
C1747 C1746 1.389 . S
C1747 C1748 1.387 . S
C1748 H1733 0.930 . S
C1748 C1743 1.390 . S
C1748 C1747 1.387 . S
H1749 C1761 0.930 . S
H1750 C1763 0.930 . S
H1751 C1764 0.930 . S
H1752 C1768 0.959 . S
H1753 C1768 0.959 . S
H1754 C1768 0.961 . S
H1755 C1769 0.960 . S
H1756 C1769 0.961 . S
H1757 C1769 0.959 . S
H1758 C1772 0.929 . S
H1759 C1773 0.931 . S
H1760 C1775 0.930 . S
C1761 H1749 0.930 . S
C1761 C1762 1.399 . S
C1761 C1766 1.399 . S
C1762 C1761 1.399 . S
C1762 C1763 1.376 . S
C1763 H1750 0.930 . S
C1763 C1762 1.376 . S
C1763 C1764 1.388 . S
C1764 H1751 0.930 . S
C1764 C1763 1.388 . S
C1764 C1765 1.390 . S
C1765 C1764 1.390 . S
C1765 C1766 1.394 . S
C1765 C1771 1.465 . S
C1766 C1761 1.399 . S
C1766 C1765 1.394 . S
C1766 C1767 1.516 . S
C1767 C1766 1.516 . S
C1767 C1768 1.502 . S
C1767 C1769 1.561 . S
C1767 C1770 1.526 . S
C1768 H1752 0.959 . S
C1768 H1753 0.959 . S
C1768 H1754 0.961 . S
C1768 C1767 1.502 . S
C1769 H1755 0.960 . S
C1769 H1756 0.961 . S
C1769 H1757 0.959 . S
C1769 C1767 1.561 . S
C1770 C1767 1.526 . S
C1770 C1771 1.396 . S
C1770 C1775 1.390 . S
C1771 C1765 1.465 . S
C1771 C1770 1.396 . S
C1771 C1772 1.399 . S
C1772 H1758 0.929 . S
C1772 C1771 1.399 . S
C1772 C1773 1.385 . S
C1773 H1759 0.931 . S
C1773 C1772 1.385 . S
C1773 C1774 1.389 . S
C1774 C1773 1.389 . S
C1774 C1775 1.387 . S
C1775 H1760 0.930 . S
C1775 C1770 1.390 . S
C1775 C1774 1.387 . S
H1776 C1788 0.930 . S
H1777 C1790 0.930 . S
H1778 C1791 0.930 . S
H1779 C1795 0.959 . S
H1780 C1795 0.959 . S
H1781 C1795 0.961 . S
H1782 C1796 0.960 . S
H1783 C1796 0.961 . S
H1784 C1796 0.959 . S
H1785 C1799 0.929 . S
H1786 C1800 0.931 . S
H1787 C1802 0.930 . S
C1788 H1776 0.930 . S
C1788 C1789 1.399 . S
C1788 C1793 1.399 . S
C1789 C1788 1.399 . S
C1789 C1790 1.376 . S
C1790 H1777 0.930 . S
C1790 C1789 1.376 . S
C1790 C1791 1.388 . S
C1791 H1778 0.930 . S
C1791 C1790 1.388 . S
C1791 C1792 1.390 . S
C1792 C1791 1.390 . S
C1792 C1793 1.394 . S
C1792 C1798 1.465 . S
C1793 C1788 1.399 . S
C1793 C1792 1.394 . S
C1793 C1794 1.516 . S
C1794 C1793 1.516 . S
C1794 C1795 1.502 . S
C1794 C1796 1.561 . S
C1794 C1797 1.526 . S
C1795 H1779 0.959 . S
C1795 H1780 0.959 . S
C1795 H1781 0.961 . S
C1795 C1794 1.502 . S
C1796 H1782 0.960 . S
C1796 H1783 0.961 . S
C1796 H1784 0.959 . S
C1796 C1794 1.561 . S
C1797 C1794 1.526 . S
C1797 C1798 1.396 . S
C1797 C1802 1.390 . S
C1798 C1792 1.465 . S
C1798 C1797 1.396 . S
C1798 C1799 1.399 . S
C1799 H1785 0.929 . S
C1799 C1798 1.399 . S
C1799 C1800 1.385 . S
C1800 H1786 0.931 . S
C1800 C1799 1.385 . S
C1800 C1801 1.389 . S
C1801 C1800 1.389 . S
C1801 C1802 1.387 . S
C1802 H1787 0.930 . S
C1802 C1797 1.390 . S
C1802 C1801 1.387 . S
H1803 C1815 0.930 . S
H1804 C1817 0.930 . S
H1805 C1818 0.930 . S
H1806 C1822 0.959 . S
H1807 C1822 0.959 . S
H1808 C1822 0.961 . S
H1809 C1823 0.960 . S
H1810 C1823 0.961 . S
H1811 C1823 0.959 . S
H1812 C1826 0.929 . S
H1813 C1827 0.931 . S
H1814 C1829 0.930 . S
C1815 H1803 0.930 . S
C1815 C1816 1.399 . S
C1815 C1820 1.399 . S
C1816 C1815 1.399 . S
C1816 C1817 1.376 . S
C1817 H1804 0.930 . S
C1817 C1816 1.376 . S
C1817 C1818 1.388 . S
C1818 H1805 0.930 . S
C1818 C1817 1.388 . S
C1818 C1819 1.390 . S
C1819 C1818 1.390 . S
C1819 C1820 1.394 . S
C1819 C1825 1.465 . S
C1820 C1815 1.399 . S
C1820 C1819 1.394 . S
C1820 C1821 1.516 . S
C1821 C1820 1.516 . S
C1821 C1822 1.502 . S
C1821 C1823 1.561 . S
C1821 C1824 1.526 . S
C1822 H1806 0.959 . S
C1822 H1807 0.959 . S
C1822 H1808 0.961 . S
C1822 C1821 1.502 . S
C1823 H1809 0.960 . S
C1823 H1810 0.961 . S
C1823 H1811 0.959 . S
C1823 C1821 1.561 . S
C1824 C1821 1.526 . S
C1824 C1825 1.396 . S
C1824 C1829 1.390 . S
C1825 C1819 1.465 . S
C1825 C1824 1.396 . S
C1825 C1826 1.399 . S
C1826 H1812 0.929 . S
C1826 C1825 1.399 . S
C1826 C1827 1.385 . S
C1827 H1813 0.931 . S
C1827 C1826 1.385 . S
C1827 C1828 1.389 . S
C1828 C1827 1.389 . S
C1828 C1829 1.387 . S
C1829 H1814 0.930 . S
C1829 C1824 1.390 . S
C1829 C1828 1.387 . S
H1830 C1842 0.930 . S
H1831 C1844 0.930 . S
H1832 C1845 0.930 . S
H1833 C1849 0.959 . S
H1834 C1849 0.959 . S
H1835 C1849 0.961 . S
H1836 C1850 0.960 . S
H1837 C1850 0.961 . S
H1838 C1850 0.959 . S
H1839 C1853 0.929 . S
H1840 C1854 0.931 . S
H1841 C1856 0.930 . S
C1842 H1830 0.930 . S
C1842 C1843 1.399 . S
C1842 C1847 1.399 . S
C1843 C1842 1.399 . S
C1843 C1844 1.376 . S
C1844 H1831 0.930 . S
C1844 C1843 1.376 . S
C1844 C1845 1.388 . S
C1845 H1832 0.930 . S
C1845 C1844 1.388 . S
C1845 C1846 1.390 . S
C1846 C1845 1.390 . S
C1846 C1847 1.394 . S
C1846 C1852 1.465 . S
C1847 C1842 1.399 . S
C1847 C1846 1.394 . S
C1847 C1848 1.516 . S
C1848 C1847 1.516 . S
C1848 C1849 1.502 . S
C1848 C1850 1.561 . S
C1848 C1851 1.526 . S
C1849 H1833 0.959 . S
C1849 H1834 0.959 . S
C1849 H1835 0.961 . S
C1849 C1848 1.502 . S
C1850 H1836 0.960 . S
C1850 H1837 0.961 . S
C1850 H1838 0.959 . S
C1850 C1848 1.561 . S
C1851 C1848 1.526 . S
C1851 C1852 1.396 . S
C1851 C1856 1.390 . S
C1852 C1846 1.465 . S
C1852 C1851 1.396 . S
C1852 C1853 1.399 . S
C1853 H1839 0.929 . S
C1853 C1852 1.399 . S
C1853 C1854 1.385 . S
C1854 H1840 0.931 . S
C1854 C1853 1.385 . S
C1854 C1855 1.389 . S
C1855 C1854 1.389 . S
C1855 C1856 1.387 . S
C1856 H1841 0.930 . S
C1856 C1851 1.390 . S
C1856 C1855 1.387 . S
H1857 C1869 0.930 . S
H1858 C1871 0.930 . S
H1859 C1872 0.930 . S
H1860 C1876 0.959 . S
H1861 C1876 0.959 . S
H1862 C1876 0.961 . S
H1863 C1877 0.960 . S
H1864 C1877 0.961 . S
H1865 C1877 0.959 . S
H1866 C1880 0.929 . S
H1867 C1881 0.931 . S
H1868 C1883 0.930 . S
C1869 H1857 0.930 . S
C1869 C1870 1.399 . S
C1869 C1874 1.399 . S
C1870 C1869 1.399 . S
C1870 C1871 1.376 . S
C1871 H1858 0.930 . S
C1871 C1870 1.376 . S
C1871 C1872 1.388 . S
C1872 H1859 0.930 . S
C1872 C1871 1.388 . S
C1872 C1873 1.390 . S
C1873 C1872 1.390 . S
C1873 C1874 1.394 . S
C1873 C1879 1.465 . S
C1874 C1869 1.399 . S
C1874 C1873 1.394 . S
C1874 C1875 1.516 . S
C1875 C1874 1.516 . S
C1875 C1876 1.502 . S
C1875 C1877 1.561 . S
C1875 C1878 1.526 . S
C1876 H1860 0.959 . S
C1876 H1861 0.959 . S
C1876 H1862 0.961 . S
C1876 C1875 1.502 . S
C1877 H1863 0.960 . S
C1877 H1864 0.961 . S
C1877 H1865 0.959 . S
C1877 C1875 1.561 . S
C1878 C1875 1.526 . S
C1878 C1879 1.396 . S
C1878 C1883 1.390 . S
C1879 C1873 1.465 . S
C1879 C1878 1.396 . S
C1879 C1880 1.399 . S
C1880 H1866 0.929 . S
C1880 C1879 1.399 . S
C1880 C1881 1.385 . S
C1881 H1867 0.931 . S
C1881 C1880 1.385 . S
C1881 C1882 1.389 . S
C1882 C1881 1.389 . S
C1882 C1883 1.387 . S
C1883 H1868 0.930 . S
C1883 C1878 1.390 . S
C1883 C1882 1.387 . S
H1884 C1896 0.930 . S
H1885 C1898 0.930 . S
H1886 C1899 0.930 . S
H1887 C1903 0.959 . S
H1888 C1903 0.959 . S
H1889 C1903 0.961 . S
H1890 C1904 0.960 . S
H1891 C1904 0.961 . S
H1892 C1904 0.959 . S
H1893 C1907 0.929 . S
H1894 C1908 0.931 . S
H1895 C1910 0.930 . S
C1896 H1884 0.930 . S
C1896 C1897 1.399 . S
C1896 C1901 1.399 . S
C1897 C1896 1.399 . S
C1897 C1898 1.376 . S
C1898 H1885 0.930 . S
C1898 C1897 1.376 . S
C1898 C1899 1.388 . S
C1899 H1886 0.930 . S
C1899 C1898 1.388 . S
C1899 C1900 1.390 . S
C1900 C1899 1.390 . S
C1900 C1901 1.394 . S
C1900 C1906 1.465 . S
C1901 C1896 1.399 . S
C1901 C1900 1.394 . S
C1901 C1902 1.516 . S
C1902 C1901 1.516 . S
C1902 C1903 1.502 . S
C1902 C1904 1.561 . S
C1902 C1905 1.526 . S
C1903 H1887 0.959 . S
C1903 H1888 0.959 . S
C1903 H1889 0.961 . S
C1903 C1902 1.502 . S
C1904 H1890 0.960 . S
C1904 H1891 0.961 . S
C1904 H1892 0.959 . S
C1904 C1902 1.561 . S
C1905 C1902 1.526 . S
C1905 C1906 1.396 . S
C1905 C1910 1.390 . S
C1906 C1900 1.465 . S
C1906 C1905 1.396 . S
C1906 C1907 1.399 . S
C1907 H1893 0.929 . S
C1907 C1906 1.399 . S
C1907 C1908 1.385 . S
C1908 H1894 0.931 . S
C1908 C1907 1.385 . S
C1908 C1909 1.389 . S
C1909 C1908 1.389 . S
C1909 C1910 1.387 . S
C1910 H1895 0.930 . S
C1910 C1905 1.390 . S
C1910 C1909 1.387 . S
H1911 C1923 0.953 . S
H1912 C1925 0.930 . S
H1913 C1926 0.930 . S
H1914 C1930 0.959 . S
H1915 C1930 0.959 . S
H1916 C1930 0.961 . S
H1917 C1931 0.960 . S
H1918 C1931 0.961 . S
H1919 C1931 0.959 . S
H1920 C1934 0.929 . S
H1921 C1935 0.931 . S
H1922 C1937 0.930 . S
C1923 H1911 0.953 . S
C1923 C1924 1.399 . S
C1923 C1928 1.399 . S
C1924 C1923 1.399 . S
C1924 C1925 1.376 . S
C1925 H1912 0.930 . S
C1925 C1924 1.376 . S
C1925 C1926 1.388 . S
C1926 H1913 0.930 . S
C1926 C1925 1.388 . S
C1926 C1927 1.390 . S
C1927 C1926 1.390 . S
C1927 C1928 1.394 . S
C1927 C1933 1.465 . S
C1928 C1923 1.399 . S
C1928 C1927 1.394 . S
C1928 C1929 1.516 . S
C1929 C1928 1.516 . S
C1929 C1930 1.502 1_565 S
C1929 C1931 1.561 . S
C1929 C1932 1.526 . S
C1930 H1914 0.959 . S
C1930 H1915 0.959 . S
C1930 H1916 0.961 . S
C1930 C1929 1.502 1_545 S
C1931 H1917 0.960 . S
C1931 H1918 0.961 . S
C1931 H1919 0.959 . S
C1931 C1929 1.561 . S
C1932 C1929 1.526 . S
C1932 C1933 1.396 . S
C1932 C1937 1.390 . S
C1933 C1927 1.465 . S
C1933 C1932 1.396 . S
C1933 C1934 1.399 . S
C1934 H1920 0.929 . S
C1934 C1933 1.399 . S
C1934 C1935 1.385 . S
C1935 H1921 0.931 . S
C1935 C1934 1.385 . S
C1935 C1936 1.389 . S
C1936 C1935 1.389 . S
C1936 C1937 1.387 . S
C1937 H1922 0.930 . S
C1937 C1932 1.390 . S
C1937 C1936 1.387 . S
H1938 C1950 0.930 . S
H1939 C1952 0.930 . S
H1940 C1953 0.930 . S
H1941 C1957 0.959 . S
H1942 C1957 0.959 . S
H1943 C1957 0.961 . S
H1944 C1958 0.960 . S
H1945 C1958 0.961 . S
H1946 C1958 0.959 . S
H1947 C1961 0.929 . S
H1948 C1962 0.931 . S
H1949 C1964 0.930 . S
C1950 H1938 0.930 . S
C1950 C1951 1.399 . S
C1950 C1955 1.399 . S
C1951 C1950 1.399 . S
C1951 C1952 1.376 . S
C1952 H1939 0.930 . S
C1952 C1951 1.376 . S
C1952 C1953 1.388 . S
C1953 H1940 0.930 . S
C1953 C1952 1.388 . S
C1953 C1954 1.390 . S
C1954 C1953 1.390 . S
C1954 C1955 1.394 . S
C1954 C1960 1.465 . S
C1955 C1950 1.399 . S
C1955 C1954 1.394 . S
C1955 C1956 1.516 . S
C1956 C1955 1.516 . S
C1956 C1957 1.502 . S
C1956 C1958 1.561 . S
C1956 C1959 1.526 . S
C1957 H1941 0.959 . S
C1957 H1942 0.959 . S
C1957 H1943 0.961 . S
C1957 C1956 1.502 . S
C1958 H1944 0.960 . S
C1958 H1945 0.961 . S
C1958 H1946 0.959 . S
C1958 C1956 1.561 . S
C1959 C1956 1.526 . S
C1959 C1960 1.396 . S
C1959 C1964 1.390 . S
C1960 C1954 1.465 . S
C1960 C1959 1.396 . S
C1960 C1961 1.399 . S
C1961 H1947 0.929 . S
C1961 C1960 1.399 . S
C1961 C1962 1.385 . S
C1962 H1948 0.931 . S
C1962 C1961 1.385 . S
C1962 C1963 1.389 . S
C1963 C1962 1.389 . S
C1963 C1964 1.387 . S
C1964 H1949 0.930 . S
C1964 C1959 1.390 . S
C1964 C1963 1.387 . S
H1965 C1977 0.930 . S
H1966 C1979 0.930 . S
H1967 C1980 0.930 . S
H1968 C1984 0.959 . S
H1969 C1984 0.959 . S
H1970 C1984 0.961 . S
H1971 C1985 0.960 . S
H1972 C1985 0.961 . S
H1973 C1985 0.959 . S
H1974 C1988 0.949 . S
H1975 C1989 0.931 1_565 S
H1976 C1991 0.930 . S
C1977 H1965 0.930 . S
C1977 C1978 1.399 . S
C1977 C1982 1.399 . S
C1978 C1977 1.399 . S
C1978 C1979 1.376 1_545 S
C1979 H1966 0.930 . S
C1979 C1978 1.376 1_565 S
C1979 C1980 1.388 . S
C1980 H1967 0.930 . S
C1980 C1979 1.388 . S
C1980 C1981 1.390 1_565 S
C1981 C1980 1.390 1_545 S
C1981 C1982 1.394 . S
C1981 C1987 1.465 . S
C1982 C1977 1.399 . S
C1982 C1981 1.394 . S
C1982 C1983 1.516 . S
C1983 C1982 1.516 . S
C1983 C1984 1.502 . S
C1983 C1985 1.561 . S
C1983 C1986 1.526 . S
C1984 H1968 0.959 . S
C1984 H1969 0.959 . S
C1984 H1970 0.961 . S
C1984 C1983 1.502 . S
C1985 H1971 0.960 . S
C1985 H1972 0.961 . S
C1985 H1973 0.959 . S
C1985 C1983 1.561 . S
C1986 C1983 1.526 . S
C1986 C1987 1.396 . S
C1986 C1991 1.390 . S
C1987 C1981 1.465 . S
C1987 C1986 1.396 . S
C1987 C1988 1.384 1_545 S
C1988 H1974 0.949 . S
C1988 C1987 1.384 1_565 S
C1988 C1989 1.380 1_565 S
C1989 H1975 0.931 1_545 S
C1989 C1988 1.380 1_545 S
C1989 C1990 1.389 . S
C1990 C1989 1.389 . S
C1990 C1991 1.387 . S
C1991 H1976 0.930 . S
C1991 C1986 1.390 . S
C1991 C1990 1.387 . S
H1992 C2004 0.930 . S
H1993 C2006 0.930 . S
H1994 C2007 0.930 . S
H1995 C2011 0.959 . S
H1996 C2011 0.959 . S
H1997 C2011 0.961 . S
H1998 C2012 0.960 . S
H1999 C2012 0.961 . S
H2000 C2012 0.959 . S
H2001 C2015 0.929 . S
H2002 C2016 0.931 . S
H2003 C2018 0.930 . S
C2004 H1992 0.930 . S
C2004 C2005 1.399 . S
C2004 C2009 1.399 . S
C2005 C2004 1.399 . S
C2005 C2006 1.376 . S
C2006 H1993 0.930 . S
C2006 C2005 1.376 . S
C2006 C2007 1.388 . S
C2007 H1994 0.930 . S
C2007 C2006 1.388 . S
C2007 C2008 1.390 . S
C2008 C2007 1.390 . S
C2008 C2009 1.394 . S
C2008 C2014 1.465 . S
C2009 C2004 1.399 . S
C2009 C2008 1.394 . S
C2009 C2010 1.516 . S
C2010 C2009 1.516 . S
C2010 C2011 1.502 . S
C2010 C2012 1.561 . S
C2010 C2013 1.526 . S
C2011 H1995 0.959 . S
C2011 H1996 0.959 . S
C2011 H1997 0.961 . S
C2011 C2010 1.502 . S
C2012 H1998 0.960 . S
C2012 H1999 0.961 . S
C2012 H2000 0.959 . S
C2012 C2010 1.561 . S
C2013 C2010 1.526 . S
C2013 C2014 1.396 . S
C2013 C2018 1.390 . S
C2014 C2008 1.465 . S
C2014 C2013 1.396 . S
C2014 C2015 1.399 . S
C2015 H2001 0.929 . S
C2015 C2014 1.399 . S
C2015 C2016 1.385 . S
C2016 H2002 0.931 . S
C2016 C2015 1.385 . S
C2016 C2017 1.389 . S
C2017 C2016 1.389 . S
C2017 C2018 1.387 . S
C2018 H2003 0.930 . S
C2018 C2013 1.390 . S
C2018 C2017 1.387 . S
H2019 C2031 0.930 . S
H2020 C2033 0.930 . S
H2021 C2034 0.930 . S
H2022 C2038 0.959 . S
H2023 C2038 0.959 . S
H2024 C2038 0.961 . S
H2025 C2039 0.960 . S
H2026 C2039 0.961 . S
H2027 C2039 0.959 . S
H2028 C2042 0.929 . S
H2029 C2043 0.931 . S
H2030 C2045 0.930 . S
C2031 H2019 0.930 . S
C2031 C2032 1.399 . S
C2031 C2036 1.399 . S
C2032 C2031 1.399 . S
C2032 C2033 1.376 1_556 S
C2033 H2020 0.930 . S
C2033 C2032 1.376 1_554 S
C2033 C2034 1.388 . S
C2034 H2021 0.930 . S
C2034 C2033 1.388 . S
C2034 C2035 1.377 1_554 S
C2035 C2034 1.377 1_556 S
C2035 C2036 1.411 . S
C2035 C2041 1.465 1_556 S
C2036 C2031 1.399 . S
C2036 C2035 1.411 . S
C2036 C2037 1.516 . S
C2037 C2036 1.516 . S
C2037 C2038 1.502 . S
C2037 C2039 1.561 . S
C2037 C2040 1.526 . S
C2038 H2022 0.959 . S
C2038 H2023 0.959 . S
C2038 H2024 0.961 . S
C2038 C2037 1.502 . S
C2039 H2025 0.960 . S
C2039 H2026 0.961 . S
C2039 H2027 0.959 . S
C2039 C2037 1.561 . S
C2040 C2037 1.526 . S
C2040 C2041 1.366 1_556 S
C2040 C2045 1.390 . S
C2041 C2035 1.465 1_554 S
C2041 C2040 1.366 1_554 S
C2041 C2042 1.424 . S
C2042 H2028 0.929 . S
C2042 C2041 1.424 . S
C2042 C2043 1.385 . S
C2043 H2029 0.931 . S
C2043 C2042 1.385 . S
C2043 C2044 1.389 1_554 S
C2044 C2043 1.389 1_556 S
C2044 C2045 1.387 . S
C2045 H2030 0.930 . S
C2045 C2040 1.390 . S
C2045 C2044 1.387 . S
H2046 C2058 0.930 . S
H2047 C2060 0.930 . S
H2048 C2061 0.930 . S
H2049 C2065 0.959 . S
H2050 C2065 0.959 . S
H2051 C2065 0.961 . S
H2052 C2066 0.960 . S
H2053 C2066 0.961 . S
H2054 C2066 0.959 . S
H2055 C2069 0.929 . S
H2056 C2070 0.931 1_554 S
H2057 C2072 0.930 . S
C2058 H2046 0.930 . S
C2058 C2059 1.399 . S
C2058 C2063 1.399 . S
C2059 C2058 1.399 . S
C2059 C2060 1.376 1_556 S
C2060 H2047 0.930 . S
C2060 C2059 1.376 1_554 S
C2060 C2061 1.388 . S
C2061 H2048 0.930 . S
C2061 C2060 1.388 . S
C2061 C2062 1.390 1_554 S
C2062 C2061 1.390 1_556 S
C2062 C2063 1.394 . S
C2062 C2068 1.465 . S
C2063 C2058 1.399 . S
C2063 C2062 1.394 . S
C2063 C2064 1.516 . S
C2064 C2063 1.516 . S
C2064 C2065 1.502 . S
C2064 C2066 1.561 . S
C2064 C2067 1.526 . S
C2065 H2049 0.959 . S
C2065 H2050 0.959 . S
C2065 H2051 0.961 . S
C2065 C2064 1.502 . S
C2066 H2052 0.960 . S
C2066 H2053 0.961 . S
C2066 H2054 0.959 . S
C2066 C2064 1.561 . S
C2067 C2064 1.526 . S
C2067 C2068 1.396 . S
C2067 C2072 1.390 . S
C2068 C2062 1.465 . S
C2068 C2067 1.396 . S
C2068 C2069 1.399 1_556 S
C2069 H2055 0.929 . S
C2069 C2068 1.399 1_554 S
C2069 C2070 1.385 1_554 S
C2070 H2056 0.931 1_556 S
C2070 C2069 1.385 1_556 S
C2070 C2071 1.389 . S
C2071 C2070 1.389 . S
C2071 C2072 1.387 . S
C2072 H2057 0.930 . S
C2072 C2067 1.390 . S
C2072 C2071 1.387 . S
H2073 C2085 0.930 . S
H2074 C2087 0.930 . S
H2075 C2088 0.930 . S
H2076 C2092 0.959 . S
H2077 C2092 0.959 . S
H2078 C2092 0.961 . S
H2079 C2093 0.960 . S
H2080 C2093 0.961 . S
H2081 C2093 0.959 . S
H2082 C2096 0.929 . S
H2083 C2097 0.931 . S
H2084 C2099 0.930 1_556 S
C2085 H2073 0.930 . S
C2085 C2086 1.399 1_556 S
C2085 C2090 1.399 1_556 S
C2086 C2085 1.399 1_554 S
C2086 C2087 1.376 . S
C2087 H2074 0.930 . S
C2087 C2086 1.376 . S
C2087 C2088 1.388 . S
C2088 H2075 0.930 . S
C2088 C2087 1.388 . S
C2088 C2089 1.390 . S
C2089 C2088 1.390 . S
C2089 C2090 1.394 . S
C2089 C2095 1.465 . S
C2090 C2085 1.399 1_554 S
C2090 C2089 1.394 . S
C2090 C2091 1.516 1_554 S
C2091 C2090 1.516 1_556 S
C2091 C2092 1.502 . S
C2091 C2093 1.561 . S
C2091 C2094 1.526 1_556 S
C2092 H2076 0.959 . S
C2092 H2077 0.959 . S
C2092 H2078 0.961 . S
C2092 C2091 1.502 . S
C2093 H2079 0.960 . S
C2093 H2080 0.961 . S
C2093 H2081 0.959 . S
C2093 C2091 1.561 . S
C2094 C2091 1.526 1_554 S
C2094 C2095 1.396 . S
C2094 C2099 1.390 . S
C2095 C2089 1.465 . S
C2095 C2094 1.396 . S
C2095 C2096 1.399 . S
C2096 H2082 0.929 . S
C2096 C2095 1.399 . S
C2096 C2097 1.385 . S
C2097 H2083 0.931 . S
C2097 C2096 1.385 . S
C2097 C2098 1.389 . S
C2098 C2097 1.389 . S
C2098 C2099 1.387 . S
C2099 H2084 0.930 1_554 S
C2099 C2094 1.390 . S
C2099 C2098 1.387 . S
C817 C22 1.680 . S
C829 C697 1.602 1_545 S
C856 C702 1.701 . S
C844 C38 1.796 . S
C883 C640 1.617 1_565 S
C871 C75 1.694 . S
C898 C91 1.727 . S
C910 C664 1.622 . S
C925 C128 1.690 . S
C937 C802 1.625 1_554 S
C952 C197 1.672 . S
C964 C769 1.644 . S
C991 C723 1.783 . S
C979 C144 1.839 . S
C1006 C181 1.699 . S
C1018 C757 1.565 . S
C1045 C676 1.629 . S
C1033 C234 1.724 . S
C1072 C703 1.624 . S
C1060 C303 1.759 . S
C1087 C356 1.755 . S
C1099 C694 1.623 . S
C1114 C287 1.779 . S
C1126 C760 1.624 . S
C1153 C781 1.549 . S
C1141 C393 1.640 . S
C1180 C799 1.799 1_565 S
C1168 C409 1.827 . S
C1195 C462 1.910 . S
C1207 C748 1.804 . S
C1234 C724 1.481 . S
C1222 C446 1.567 . S
C1249 C499 1.660 . S
C1261 C719 1.568 . S
C1276 C552 1.581 . S
C1288 C685 1.554 . S
C1315 C673 1.598 . S
C1303 C515 1.715 . S
C1330 C568 1.985 . S
C1342 C639 1.841 . S
C1369 C740 1.707 . S
C1357 C340 1.794 . S
C1396 C790 1.620 . S
C1384 C621 1.658 . S
C1411 C250 1.663 . S
C1423 C778 1.644 . S
C1438 C605 1.696 . S
C1450 C656 1.559 1_655 S
C1477 C655 1.272 . S
C1465 C39 1.376 . S
C1492 C29 1.160 . S
C1504 C677 0.958 . S
C1531 C682 1.182 . S
C1519 C92 1.363 . S
C1558 C715 1.040 . S
C1546 C82 1.156 . S
C1573 C145 1.452 . S
C1585 C652 1.242 . S
C1600 C188 1.141 . S
C1612 C660 0.957 . S
C1639 C698 1.140 . S
C1627 C135 1.213 . S
C1654 C198 1.404 . S
C1666 C706 1.246 . S
C1681 C251 1.378 . S
C1693 C643 1.224 . S
C1720 C681 0.961 . S
C1708 C294 1.161 . S
C1735 C347 1.174 . S
C1747 C718 0.985 . S
C1762 C304 1.428 . S
C1774 C727 1.307 . S
C1801 C761 1.177 . S
C1789 C410 1.414 . S
C1816 C400 1.176 . S
C1828 C739 1.098 . S
C1843 C453 1.163 . S
C1855 C766 0.938 . S
C1870 C463 1.541 . S
C1882 C786 1.254 . S
C1897 C516 1.448 . S
C1909 C744 1.324 . S
C1936 C736 1.237 . S
C1924 C569 1.487 . S
C1951 C506 1.089 . S
C1963 C782 0.906 . S
C1990 C787 1.108 . S
C1978 C559 1.171 . S
C2017 C745 1.262 . S
C2005 C357 1.366 . S
C2044 C765 1.128 . S
C2032 C612 1.210 . S
C2071 C803 1.090 . S
C2059 C241 1.164 . S
C2086 C622 1.355 . S
C2098 C661 1.081 . S
