# Generated by pormake.
# Topology iac, (4,6)-cn, num edge types: 1
# Building blocks:
#     Node 0, Type 0, BuildingBlock: NAHDIM_clean_sbu_0, # of connection points: 4
#     Node 1, Type 0, BuildingBlock: NAHDIM_clean_sbu_0, # of connection points: 4
#     Node 2, Type 0, BuildingBlock: NAHDIM_clean_sbu_0, # of connection points: 4
#     Node 3, Type 0, BuildingBlock: NAHDIM_clean_sbu_0, # of connection points: 4
#     Node 4, Type 0, BuildingBlock: NAHDIM_clean_sbu_0, # of connection points: 4
#     Node 5, Type 0, BuildingBlock: NAHDIM_clean_sbu_0, # of connection points: 4
#     Node 6, Type 0, BuildingBlock: NAHDIM_clean_sbu_0, # of connection points: 4
#     Node 7, Type 0, BuildingBlock: NAHDIM_clean_sbu_0, # of connection points: 4
#     Node 8, Type 0, BuildingBlock: NAHDIM_clean_sbu_0, # of connection points: 4
#     Node 9, Type 0, BuildingBlock: NAHDIM_clean_sbu_0, # of connection points: 4
#     Node 10, Type 0, BuildingBlock: NAHDIM_clean_sbu_0, # of connection points: 4
#     Node 11, Type 0, BuildingBlock: NAHDIM_clean_sbu_0, # of connection points: 4
#     Node 12, Type 0, BuildingBlock: NAHDIM_clean_sbu_0, # of connection points: 4
#     Node 13, Type 0, BuildingBlock: NAHDIM_clean_sbu_0, # of connection points: 4
#     Node 14, Type 0, BuildingBlock: NAHDIM_clean_sbu_0, # of connection points: 4
#     Node 15, Type 0, BuildingBlock: NAHDIM_clean_sbu_0, # of connection points: 4
#     Node 16, Type 0, BuildingBlock: NAHDIM_clean_sbu_0, # of connection points: 4
#     Node 17, Type 0, BuildingBlock: NAHDIM_clean_sbu_0, # of connection points: 4
#     Node 18, Type 0, BuildingBlock: NAHDIM_clean_sbu_0, # of connection points: 4
#     Node 19, Type 0, BuildingBlock: NAHDIM_clean_sbu_0, # of connection points: 4
#     Node 20, Type 0, BuildingBlock: NAHDIM_clean_sbu_0, # of connection points: 4
#     Node 21, Type 0, BuildingBlock: NAHDIM_clean_sbu_0, # of connection points: 4
#     Node 22, Type 0, BuildingBlock: NAHDIM_clean_sbu_0, # of connection points: 4
#     Node 23, Type 0, BuildingBlock: NAHDIM_clean_sbu_0, # of connection points: 4
#     Node 24, Type 1, BuildingBlock: VOLQOD_clean_sbu_1, # of connection points: 6
#     Node 25, Type 1, BuildingBlock: VOLQOD_clean_sbu_1, # of connection points: 6
#     Node 26, Type 1, BuildingBlock: VOLQOD_clean_sbu_1, # of connection points: 6
#     Node 27, Type 1, BuildingBlock: VOLQOD_clean_sbu_1, # of connection points: 6
#     Node 28, Type 1, BuildingBlock: VOLQOD_clean_sbu_1, # of connection points: 6
#     Node 29, Type 1, BuildingBlock: VOLQOD_clean_sbu_1, # of connection points: 6
#     Node 30, Type 1, BuildingBlock: VOLQOD_clean_sbu_1, # of connection points: 6
#     Node 31, Type 1, BuildingBlock: VOLQOD_clean_sbu_1, # of connection points: 6
#     Node 32, Type 1, BuildingBlock: VOLQOD_clean_sbu_1, # of connection points: 6
#     Node 33, Type 1, BuildingBlock: VOLQOD_clean_sbu_1, # of connection points: 6
#     Node 34, Type 1, BuildingBlock: VOLQOD_clean_sbu_1, # of connection points: 6
#     Node 35, Type 1, BuildingBlock: VOLQOD_clean_sbu_1, # of connection points: 6
#     Node 36, Type 1, BuildingBlock: VOLQOD_clean_sbu_1, # of connection points: 6
#     Node 37, Type 1, BuildingBlock: VOLQOD_clean_sbu_1, # of connection points: 6
#     Node 38, Type 1, BuildingBlock: VOLQOD_clean_sbu_1, # of connection points: 6
#     Node 39, Type 1, BuildingBlock: VOLQOD_clean_sbu_1, # of connection points: 6
#     Edge 40, Type (0, 1), BuildingBlock: CIFDUS_clean_linker_0, # of connection points: 2
#     Edge 41, Type (0, 1), BuildingBlock: CIFDUS_clean_linker_0, # of connection points: 2
#     Edge 42, Type (0, 1), BuildingBlock: CIFDUS_clean_linker_0, # of connection points: 2
#     Edge 43, Type (0, 1), BuildingBlock: CIFDUS_clean_linker_0, # of connection points: 2
#     Edge 44, Type (0, 1), BuildingBlock: CIFDUS_clean_linker_0, # of connection points: 2
#     Edge 45, Type (0, 1), BuildingBlock: CIFDUS_clean_linker_0, # of connection points: 2
#     Edge 46, Type (0, 1), BuildingBlock: CIFDUS_clean_linker_0, # of connection points: 2
#     Edge 47, Type (0, 1), BuildingBlock: CIFDUS_clean_linker_0, # of connection points: 2
#     Edge 48, Type (0, 1), BuildingBlock: CIFDUS_clean_linker_0, # of connection points: 2
#     Edge 49, Type (0, 1), BuildingBlock: CIFDUS_clean_linker_0, # of connection points: 2
#     Edge 50, Type (0, 1), BuildingBlock: CIFDUS_clean_linker_0, # of connection points: 2
#     Edge 51, Type (0, 1), BuildingBlock: CIFDUS_clean_linker_0, # of connection points: 2
#     Edge 52, Type (0, 1), BuildingBlock: CIFDUS_clean_linker_0, # of connection points: 2
#     Edge 53, Type (0, 1), BuildingBlock: CIFDUS_clean_linker_0, # of connection points: 2
#     Edge 54, Type (0, 1), BuildingBlock: CIFDUS_clean_linker_0, # of connection points: 2
#     Edge 55, Type (0, 1), BuildingBlock: CIFDUS_clean_linker_0, # of connection points: 2
#     Edge 56, Type (0, 1), BuildingBlock: CIFDUS_clean_linker_0, # of connection points: 2
#     Edge 57, Type (0, 1), BuildingBlock: CIFDUS_clean_linker_0, # of connection points: 2
#     Edge 58, Type (0, 1), BuildingBlock: CIFDUS_clean_linker_0, # of connection points: 2
#     Edge 59, Type (0, 1), BuildingBlock: CIFDUS_clean_linker_0, # of connection points: 2
#     Edge 60, Type (0, 1), BuildingBlock: CIFDUS_clean_linker_0, # of connection points: 2
#     Edge 61, Type (0, 1), BuildingBlock: CIFDUS_clean_linker_0, # of connection points: 2
#     Edge 62, Type (0, 1), BuildingBlock: CIFDUS_clean_linker_0, # of connection points: 2
#     Edge 63, Type (0, 1), BuildingBlock: CIFDUS_clean_linker_0, # of connection points: 2
#     Edge 64, Type (0, 1), BuildingBlock: CIFDUS_clean_linker_0, # of connection points: 2
#     Edge 65, Type (0, 1), BuildingBlock: CIFDUS_clean_linker_0, # of connection points: 2
#     Edge 66, Type (0, 1), BuildingBlock: CIFDUS_clean_linker_0, # of connection points: 2
#     Edge 67, Type (0, 1), BuildingBlock: CIFDUS_clean_linker_0, # of connection points: 2
#     Edge 68, Type (0, 1), BuildingBlock: CIFDUS_clean_linker_0, # of connection points: 2
#     Edge 69, Type (0, 1), BuildingBlock: CIFDUS_clean_linker_0, # of connection points: 2
#     Edge 70, Type (0, 1), BuildingBlock: CIFDUS_clean_linker_0, # of connection points: 2
#     Edge 71, Type (0, 1), BuildingBlock: CIFDUS_clean_linker_0, # of connection points: 2
#     Edge 72, Type (0, 1), BuildingBlock: CIFDUS_clean_linker_0, # of connection points: 2
#     Edge 73, Type (0, 1), BuildingBlock: CIFDUS_clean_linker_0, # of connection points: 2
#     Edge 74, Type (0, 1), BuildingBlock: CIFDUS_clean_linker_0, # of connection points: 2
#     Edge 75, Type (0, 1), BuildingBlock: CIFDUS_clean_linker_0, # of connection points: 2
#     Edge 76, Type (0, 1), BuildingBlock: CIFDUS_clean_linker_0, # of connection points: 2
#     Edge 77, Type (0, 1), BuildingBlock: CIFDUS_clean_linker_0, # of connection points: 2
#     Edge 78, Type (0, 1), BuildingBlock: CIFDUS_clean_linker_0, # of connection points: 2
#     Edge 79, Type (0, 1), BuildingBlock: CIFDUS_clean_linker_0, # of connection points: 2
#     Edge 80, Type (0, 1), BuildingBlock: CIFDUS_clean_linker_0, # of connection points: 2
#     Edge 81, Type (0, 1), BuildingBlock: CIFDUS_clean_linker_0, # of connection points: 2
#     Edge 82, Type (0, 1), BuildingBlock: CIFDUS_clean_linker_0, # of connection points: 2
#     Edge 83, Type (0, 1), BuildingBlock: CIFDUS_clean_linker_0, # of connection points: 2
#     Edge 84, Type (0, 1), BuildingBlock: CIFDUS_clean_linker_0, # of connection points: 2
#     Edge 85, Type (0, 1), BuildingBlock: CIFDUS_clean_linker_0, # of connection points: 2
#     Edge 86, Type (0, 1), BuildingBlock: CIFDUS_clean_linker_0, # of connection points: 2
#     Edge 87, Type (0, 1), BuildingBlock: CIFDUS_clean_linker_0, # of connection points: 2
#     Edge 88, Type (0, 1), BuildingBlock: CIFDUS_clean_linker_0, # of connection points: 2
#     Edge 89, Type (0, 1), BuildingBlock: CIFDUS_clean_linker_0, # of connection points: 2
#     Edge 90, Type (0, 1), BuildingBlock: CIFDUS_clean_linker_0, # of connection points: 2
#     Edge 91, Type (0, 1), BuildingBlock: CIFDUS_clean_linker_0, # of connection points: 2
#     Edge 92, Type (0, 1), BuildingBlock: CIFDUS_clean_linker_0, # of connection points: 2
#     Edge 93, Type (0, 1), BuildingBlock: CIFDUS_clean_linker_0, # of connection points: 2
#     Edge 94, Type (0, 1), BuildingBlock: CIFDUS_clean_linker_0, # of connection points: 2
#     Edge 95, Type (0, 1), BuildingBlock: CIFDUS_clean_linker_0, # of connection points: 2
#     Edge 96, Type (0, 1), BuildingBlock: CIFDUS_clean_linker_0, # of connection points: 2
#     Edge 97, Type (0, 1), BuildingBlock: CIFDUS_clean_linker_0, # of connection points: 2
#     Edge 98, Type (0, 1), BuildingBlock: CIFDUS_clean_linker_0, # of connection points: 2
#     Edge 99, Type (0, 1), BuildingBlock: CIFDUS_clean_linker_0, # of connection points: 2
#     Edge 100, Type (0, 1), BuildingBlock: CIFDUS_clean_linker_0, # of connection points: 2
#     Edge 101, Type (0, 1), BuildingBlock: CIFDUS_clean_linker_0, # of connection points: 2
#     Edge 102, Type (0, 1), BuildingBlock: CIFDUS_clean_linker_0, # of connection points: 2
#     Edge 103, Type (0, 1), BuildingBlock: CIFDUS_clean_linker_0, # of connection points: 2
#     Edge 104, Type (0, 1), BuildingBlock: CIFDUS_clean_linker_0, # of connection points: 2
#     Edge 105, Type (0, 1), BuildingBlock: CIFDUS_clean_linker_0, # of connection points: 2
#     Edge 106, Type (0, 1), BuildingBlock: CIFDUS_clean_linker_0, # of connection points: 2
#     Edge 107, Type (0, 1), BuildingBlock: CIFDUS_clean_linker_0, # of connection points: 2
#     Edge 108, Type (0, 1), BuildingBlock: CIFDUS_clean_linker_0, # of connection points: 2
#     Edge 109, Type (0, 1), BuildingBlock: CIFDUS_clean_linker_0, # of connection points: 2
#     Edge 110, Type (0, 1), BuildingBlock: CIFDUS_clean_linker_0, # of connection points: 2
#     Edge 111, Type (0, 1), BuildingBlock: CIFDUS_clean_linker_0, # of connection points: 2
#     Edge 112, Type (0, 1), BuildingBlock: CIFDUS_clean_linker_0, # of connection points: 2
#     Edge 113, Type (0, 1), BuildingBlock: CIFDUS_clean_linker_0, # of connection points: 2
#     Edge 114, Type (0, 1), BuildingBlock: CIFDUS_clean_linker_0, # of connection points: 2
#     Edge 115, Type (0, 1), BuildingBlock: CIFDUS_clean_linker_0, # of connection points: 2
#     Edge 116, Type (0, 1), BuildingBlock: CIFDUS_clean_linker_0, # of connection points: 2
#     Edge 117, Type (0, 1), BuildingBlock: CIFDUS_clean_linker_0, # of connection points: 2
#     Edge 118, Type (0, 1), BuildingBlock: CIFDUS_clean_linker_0, # of connection points: 2
#     Edge 119, Type (0, 1), BuildingBlock: CIFDUS_clean_linker_0, # of connection points: 2
#     Edge 120, Type (0, 1), BuildingBlock: CIFDUS_clean_linker_0, # of connection points: 2
#     Edge 121, Type (0, 1), BuildingBlock: CIFDUS_clean_linker_0, # of connection points: 2
#     Edge 122, Type (0, 1), BuildingBlock: CIFDUS_clean_linker_0, # of connection points: 2
#     Edge 123, Type (0, 1), BuildingBlock: CIFDUS_clean_linker_0, # of connection points: 2
#     Edge 124, Type (0, 1), BuildingBlock: CIFDUS_clean_linker_0, # of connection points: 2
#     Edge 125, Type (0, 1), BuildingBlock: CIFDUS_clean_linker_0, # of connection points: 2
#     Edge 126, Type (0, 1), BuildingBlock: CIFDUS_clean_linker_0, # of connection points: 2
#     Edge 127, Type (0, 1), BuildingBlock: CIFDUS_clean_linker_0, # of connection points: 2
#     Edge 128, Type (0, 1), BuildingBlock: CIFDUS_clean_linker_0, # of connection points: 2
#     Edge 129, Type (0, 1), BuildingBlock: CIFDUS_clean_linker_0, # of connection points: 2
#     Edge 130, Type (0, 1), BuildingBlock: CIFDUS_clean_linker_0, # of connection points: 2
#     Edge 131, Type (0, 1), BuildingBlock: CIFDUS_clean_linker_0, # of connection points: 2
#     Edge 132, Type (0, 1), BuildingBlock: CIFDUS_clean_linker_0, # of connection points: 2
#     Edge 133, Type (0, 1), BuildingBlock: CIFDUS_clean_linker_0, # of connection points: 2
#     Edge 134, Type (0, 1), BuildingBlock: CIFDUS_clean_linker_0, # of connection points: 2
#     Edge 135, Type (0, 1), BuildingBlock: CIFDUS_clean_linker_0, # of connection points: 2
# Relax obj value: 0.316
# Max RMSD: 0.290
# Mean RMSD: 0.182
data_MOF--net-iac--node1-NAHDIM_clean_sbu_0--node2-VOLQOD_clean_sbu_1--edge1-CIFDUS_clean_linker_0
_symmetry_space_group_name_H-M    P1
_symmetry_Int_Tables_number       1
_symmetry_cell_setting            triclinic
loop_
_symmetry_equiv_pos_as_xyz
'x, y, z'
_cell_length_a     49.405799
_cell_length_b     48.275851
_cell_length_c     46.852154
_cell_angle_alpha  90.051276
_cell_angle_beta   90.401539
_cell_angle_gamma 91.123261
loop_
_atom_site_label
_atom_site_type_symbol
_atom_site_fract_x
_atom_site_fract_y
_atom_site_fract_z
_atom_type_partial_charge
C0 C 0.9585 0.23105 0.18243 0.0
O1 O 0.95664 0.22949 0.1545 0.0
O2 O 0.00405 0.20371 0.13884 0.0
Zn3 Zn 0.01127 0.23649 0.16483 0.0
O4 O 0.01103 0.27277 0.14387 0.0
C5 C 0.06641 0.22173 0.16951 0.0
O6 O 0.05949 0.20659 0.14722 0.0
O7 O 0.98156 0.23565 0.19384 0.0
C8 C 0.02896 0.27814 0.12522 0.0
O9 O 0.04617 0.25895 0.11816 0.0
C10 C -0.00295 0.20463 0.1127 0.0
O11 O -0.00455 0.22865 0.09973 0.0
O12 O 0.04819 0.23468 0.1827 0.0
C13 C 0.01068 0.75654 0.28739 0.0
O14 O -0.00197 0.77918 0.29454 0.0
O15 O 0.97335 0.70089 0.34944 0.0
Zn16 Zn 0.97178 0.73433 0.32462 0.0
O17 O 0.97915 0.76763 0.34923 0.0
C18 C 0.91699 0.74205 0.32868 0.0
O19 O 0.92531 0.74086 0.35533 0.0
O20 O 0.00107 0.73327 0.29543 0.0
C21 C 0.97983 0.768 0.37634 0.0
O22 O 0.97594 0.74492 0.39066 0.0
C23 C -0.00485 0.69338 0.36146 0.0
O24 O 0.01792 0.70677 0.35594 0.0
O25 O 0.93413 0.7386 0.30892 0.0
C26 C 0.48162 0.72892 0.64154 0.0
O27 O 0.49139 0.71272 0.62174 0.0
O28 O 0.49613 0.74908 0.57252 0.0
Zn29 Zn 0.50566 0.77151 0.60705 0.0
O30 O 0.49529 0.81086 0.60256 0.0
C31 C 0.56188 0.78751 0.60563 0.0
O32 O 0.5548 0.80197 0.58314 0.0
O33 O 0.48548 0.75496 0.6399 0.0
C34 C 0.50225 0.82677 0.62304 0.0
O35 O 0.51416 0.81618 0.64558 0.0
C36 C 0.47087 0.746 0.56789 0.0
O37 O 0.45401 0.76077 0.58289 0.0
O38 O 0.5447 0.77139 0.61737 0.0
C39 C 0.5665 0.22863 0.83789 0.0
O40 O 0.55877 0.20331 0.84469 0.0
O41 O 0.52165 0.21977 0.9035 0.0
Zn42 Zn 0.51982 0.24757 0.87142 0.0
O43 O 0.5155 0.28506 0.88947 0.0
C44 C 0.48385 0.23533 0.82155 0.0
O45 O 0.50572 0.2352 0.80577 0.0
O46 O 0.55312 0.24903 0.84694 0.0
C47 C 0.52526 0.29061 0.91404 0.0
O48 O 0.53943 0.27186 0.92749 0.0
C49 C 0.50045 0.21966 0.91874 0.0
O50 O 0.4806 0.23604 0.91153 0.0
O51 O 0.48598 0.2397 0.84824 0.0
C52 C 0.17791 0.00961 0.22677 0.0
O53 O 0.17056 0.02389 0.20425 0.0
O54 O 0.11401 0.03423 0.22059 0.0
Zn55 Zn 0.13934 0.04354 0.25261 0.0
O56 O 0.12144 0.04231 0.29095 0.0
C57 C 0.17534 0.0884 0.26402 0.0
O58 O 0.17736 0.0758 0.28876 0.0
O59 O 0.16736 0.01476 0.25083 0.0
C60 C 0.09597 0.04309 0.29432 0.0
O61 O 0.0801 0.04607 0.27196 0.0
C62 C 0.10118 0.01117 0.22052 0.0
O63 O 0.10242 -0.00511 0.24292 0.0
O64 O 0.15865 0.07917 0.24545 0.0
C65 C 0.21912 0.92699 0.54735 0.0
O66 O 0.22306 0.90167 0.55648 0.0
O67 O 0.28003 0.89266 0.55802 0.0
Zn68 Zn 0.27339 0.92141 0.52793 0.0
O69 O 0.26956 0.90398 0.48939 0.0
C70 C 0.30432 0.9678 0.54829 0.0
O71 O 0.28576 0.96738 0.56824 0.0
O72 O 0.23838 0.9401 0.53528 0.0
C73 C 0.28648 0.88871 0.47695 0.0
O74 O 0.30975 0.88359 0.4894 0.0
C75 C 0.27454 0.86701 0.5547 0.0
O76 O 0.26462 0.85814 0.53019 0.0
O77 O 0.30316 0.9498 0.52849 0.0
C78 C 0.37362 0.00945 0.75233 0.0
O79 O 0.39654 -0.00371 0.75046 0.0
O80 O 0.41517 0.9925 0.80556 0.0
Zn81 Zn 0.37501 0.98619 0.80784 0.0
O82 O 0.36412 -9e-05 0.84656 0.0
C83 C 0.37495 0.92476 0.80359 0.0
O84 O 0.40053 0.92531 0.81146 0.0
O85 O 0.36007 0.00841 0.77537 0.0
C86 C 0.36599 0.98256 0.86678 0.0
O87 O 0.36912 0.95634 0.86038 0.0
C88 C 0.42157 0.01776 0.81034 0.0
O89 O 0.40315 0.03401 0.82101 0.0
O90 O 0.36224 0.94724 0.80127 0.0
C91 C 0.28664 0.10171 0.0172 0.0
O92 O 0.28374 0.1262 0.00548 0.0
O93 O 0.22917 0.13265 0.02147 0.0
Zn94 Zn 0.23536 0.1004 0.9956 0.0
O95 O 0.24414 0.1152 0.9567 0.0
C96 C 0.18202 0.08043 0.98228 0.0
O97 O 0.18116 0.10424 0.96876 0.0
O98 O 0.26808 0.08345 0.0135 0.0
C99 C 0.2408 0.10223 0.93333 0.0
O100 O 0.23106 0.07671 0.93364 0.0
C101 C 0.22731 0.15773 0.01363 0.0
O102 O 0.22386 0.16362 0.98652 0.0
O103 O 0.20358 0.07401 0.99538 0.0
C104 C 0.73017 0.41343 0.06379 0.0
O105 O 0.73337 0.39609 0.08509 0.0
O106 O 0.75058 0.34387 0.05733 0.0
Zn107 Zn 0.76316 0.37512 0.03251 0.0
O108 O 0.75747 0.36561 0.99151 0.0
C109 C 0.82107 0.37338 0.02547 0.0
O110 O 0.81532 0.35199 0.00901 0.0
O111 O 0.74136 0.40859 0.04006 0.0
C112 C 0.76926 0.38057 0.97292 0.0
O113 O 0.78471 0.40163 0.98105 0.0
C114 C 0.75587 0.31864 0.05267 0.0
O115 O 0.77087 0.31209 0.03072 0.0
O116 O 0.80214 0.38502 0.03891 0.0
C117 C 0.80469 0.53576 0.21205 0.0
O118 O 0.81795 0.53434 0.18791 0.0
O119 O 0.86658 0.50254 0.19838 0.0
Zn120 Zn 0.84356 0.49618 0.23294 0.0
O121 O 0.86497 0.50206 0.26896 0.0
C122 C 0.84017 0.43675 0.22404 0.0
O123 O 0.86317 0.44003 0.21043 0.0
O124 O 0.81238 0.52166 0.23335 0.0
C125 C 0.88158 0.48411 0.27769 0.0
O126 O 0.88548 0.46183 0.26229 0.0
C127 C 0.891 0.51122 0.19989 0.0
O128 O 0.90207 0.5164 0.22493 0.0
O129 O 0.8284 0.45774 0.23401 0.0
C130 C 0.77224 0.54925 0.54853 0.0
O131 O 0.75329 0.5365 0.56335 0.0
O132 O 0.73644 0.62356 0.56115 0.0
Zn133 Zn 0.73298 0.59304 0.53216 0.0
O134 O 0.7314 0.611 0.49371 0.0
C135 C 0.68715 0.55921 0.55646 0.0
O136 O 0.69889 0.56041 0.58169 0.0
O137 O 0.76677 0.57101 0.53456 0.0
C138 C 0.72206 0.59768 0.4723 0.0
O139 O 0.71516 0.57142 0.47527 0.0
C140 C 0.7267 0.64725 0.55615 0.0
O141 O 0.71185 0.65081 0.53312 0.0
O142 O 0.69849 0.57072 0.53523 0.0
C143 C 0.6819 0.51321 0.74239 0.0
O144 O 0.68956 0.53279 0.76035 0.0
O145 O 0.59789 0.53869 0.72377 0.0
Zn146 Zn 0.63107 0.53985 0.74805 0.0
O147 O 0.61973 0.53114 0.78785 0.0
C148 C 0.6661 0.58414 0.7292 0.0
O149 O 0.67046 0.56736 0.70769 0.0
O150 O 0.65734 0.5118 0.7342 0.0
C151 C 0.633 0.54007 0.80937 0.0
O152 O 0.65544 0.55458 0.80551 0.0
C153 C 0.58092 0.55809 0.72289 0.0
O154 O 0.5857 0.58101 0.73735 0.0
O155 O 0.64892 0.57721 0.74801 0.0
C156 C 0.0657 0.75583 0.82354 0.0
O157 O 0.06132 0.78159 0.83099 0.0
O158 O 0.01956 0.70891 0.88572 0.0
Zn159 Zn 0.01957 0.74173 0.85973 0.0
O160 O 0.02526 0.77607 0.88348 0.0
C161 C 0.97461 0.76568 0.8301 0.0
O162 O 0.9881 0.78886 0.83539 0.0
O163 O 0.05018 0.73661 0.83273 0.0
C164 C 0.00916 0.77933 0.90416 0.0
O165 O 0.99001 0.76056 0.9085 0.0
C166 C -0.00092 0.69413 0.89264 0.0
O167 O 0.97502 0.70033 0.88272 0.0
O168 O 0.98438 0.74288 0.83828 0.0
C169 C 0.95806 0.25522 0.62505 0.0
O170 O 0.95976 0.25217 0.59725 0.0
O171 O 0.0077 0.20505 0.59579 0.0
Zn172 Zn 0.01148 0.2399 0.61857 0.0
O173 O 0.01564 0.27235 0.59258 0.0
C174 C 0.05117 0.21422 0.65436 0.0
O175 O 0.03595 0.19197 0.65 0.0
O176 O 0.97809 0.24853 0.64058 0.0
C177 C 0.01339 0.27225 0.56556 0.0
O178 O 0.01135 0.2487 0.55161 0.0
C179 C 0.02855 0.19634 0.58309 0.0
O180 O 0.05135 0.21073 0.58493 0.0
O181 O 0.04393 0.23727 0.644 0.0
C182 C 0.54394 0.2563 0.39476 0.0
O183 O 0.53976 0.24849 0.42124 0.0
O184 O 0.48416 0.2318 0.42283 0.0
Zn185 Zn 0.48659 0.2633 0.39522 0.0
O186 O 0.48013 0.29784 0.41718 0.0
C187 C 0.4564 0.2368 0.34907 0.0
O188 O 0.46593 0.21362 0.35938 0.0
O189 O 0.52414 0.26442 0.37975 0.0
C190 C 0.45646 0.30704 0.42029 0.0
O191 O 0.43601 0.29473 0.40703 0.0
C192 C 0.47013 0.23179 0.44549 0.0
O193 O 0.45249 0.25133 0.44962 0.0
O194 O 0.46159 0.25956 0.36177 0.0
C195 C 0.434 0.72653 0.14422 0.0
O196 O 0.44842 0.7049 0.15107 0.0
O197 O 0.4995 0.72826 0.09385 0.0
Zn198 Zn 0.48494 0.75025 0.12618 0.0
O199 O 0.49273 0.79104 0.12191 0.0
C200 C 0.4929 0.73744 0.18707 0.0
O201 O 0.47077 0.75125 0.19191 0.0
O202 O 0.445 0.74609 0.13013 0.0
C203 C 0.47946 0.80715 0.13788 0.0
O204 O 0.46272 0.79639 0.15667 0.0
C205 C 0.4875 0.72386 0.07021 0.0
O206 O 0.46412 0.73551 0.06525 0.0
O207 O 0.50206 0.73555 0.16186 0.0
C208 C 0.87031 0.09729 0.76372 0.0
O209 O 0.88165 0.0903 0.78804 0.0
O210 O 0.91033 0.02972 0.72481 0.0
Zn211 Zn 0.87858 0.0403 0.74823 0.0
O212 O 0.88615 0.03218 0.78913 0.0
C213 C 0.84143 0.00984 0.71064 0.0
O214 O 0.85825 0.01649 0.69005 0.0
O215 O 0.86871 0.07977 0.74352 0.0
C216 C 0.87733 0.01035 0.8013 0.0
O217 O 0.86294 0.99207 0.7866 0.0
C218 C 0.91581 0.00421 0.72234 0.0
O219 O 0.90085 0.98562 0.73571 0.0
O220 O 0.84637 0.01795 0.73596 0.0
C221 C 0.7891 0.05179 0.51712 0.0
O222 O 0.77558 0.0614 0.49515 0.0
O223 O 0.79471 0.12704 0.57091 0.0
Zn224 Zn 0.77432 0.10325 0.54279 0.0
O225 O 0.77292 0.1202 0.50362 0.0
C226 C 0.7272 0.12037 0.57107 0.0
O227 O 0.7405 0.14417 0.5704 0.0
O228 O 0.79088 0.06604 0.53991 0.0
C229 C 0.76727 0.14492 0.49688 0.0
O230 O 0.76098 0.16286 0.51672 0.0
C231 C 0.80679 0.15002 0.56624 0.0
O232 O 0.812 0.15761 0.53992 0.0
O233 O 0.73726 0.09922 0.55929 0.0
C234 C 0.59391 0.93541 0.33007 0.0
O235 O 0.56812 0.94145 0.32877 0.0
O236 O 0.57954 0.00624 0.29751 0.0
Zn237 Zn 0.60386 -0.00486 0.32985 0.0
O238 O 0.58869 0.007 0.36728 0.0
C239 C 0.64856 0.0157 0.29814 0.0
O240 O 0.63558 0.00285 0.27728 0.0
O241 O 0.61159 0.9548 0.33042 0.0
C242 C 0.59379 0.0311 0.37707 0.0
O243 O 0.60882 0.04843 0.36212 0.0
C244 C 0.55397 0.00825 0.29805 0.0
O245 O 0.54065 0.00105 0.32114 0.0
O246 O 0.63899 0.0147 0.32322 0.0
C247 C 0.67686 0.93299 -0.003 0.0
O248 O 0.68542 0.92423 0.97218 0.0
O249 O 0.69496 0.85995 0.04808 0.0
Zn250 Zn 0.70873 0.88836 0.02015 0.0
O251 O 0.71214 0.87284 0.98057 0.0
C252 C 0.76367 0.88297 0.03609 0.0
O253 O 0.75784 0.85721 0.02897 0.0
O254 O 0.68425 0.92087 0.01974 0.0
C255 C 0.69316 0.86003 0.96733 0.0
O256 O 0.66991 0.85554 0.98012 0.0
C257 C 0.69855 0.83409 0.04535 0.0
O258 O 0.70992 0.8247 0.0221 0.0
O259 O 0.74543 0.90102 0.03387 0.0
C260 C 0.31086 0.58149 0.01903 0.0
O261 O 0.29579 0.57953 0.99587 0.0
O262 O 0.27141 0.65663 0.05518 0.0
Zn263 Zn 0.27524 0.62484 0.02812 0.0
O264 O 0.27976 0.63823 0.98806 0.0
C265 C 0.21937 0.61629 0.02582 0.0
O266 O 0.22135 0.64263 0.01892 0.0
O267 O 0.30578 0.60001 0.03744 0.0
C268 C 0.30261 0.64557 0.97798 0.0
O269 O 0.32413 0.64568 0.99462 0.0
C270 C 0.27811 0.68181 0.05083 0.0
O271 O 0.29129 0.68881 0.02761 0.0
O272 O 0.2408 0.60298 0.03061 0.0
C273 C 0.18287 0.40651 0.74464 0.0
O274 O 0.18636 0.41912 0.7693 0.0
O275 O 0.12258 0.46289 0.70385 0.0
Zn276 Zn 0.14915 0.45244 0.73433 0.0
O277 O 0.13058 0.45126 0.77208 0.0
C278 C 0.1859 0.49476 0.71389 0.0
O279 O 0.17656 0.4871 0.68872 0.0
O280 O 0.167 0.41676 0.72617 0.0
C281 C 0.12319 0.47464 0.78127 0.0
O282 O 0.12793 0.49679 0.76565 0.0
C283 C 0.09718 0.45927 0.70634 0.0
O284 O 0.08755 0.44647 0.72894 0.0
O285 O 0.17754 0.48224 0.73607 0.0
C286 C 0.19506 0.38726 0.46555 0.0
O287 O 0.20014 0.36335 0.4535 0.0
O288 O 0.24792 0.34918 0.5128 0.0
Zn289 Zn 0.24951 0.38373 0.48915 0.0
O290 O 0.266 0.37272 0.45219 0.0
C291 C 0.27222 0.41445 0.53663 0.0
O292 O 0.26031 0.39505 0.55195 0.0
O293 O 0.21278 0.39871 0.48165 0.0
C294 C 0.27094 0.38733 0.43025 0.0
O295 O 0.26624 0.41402 0.43071 0.0
C296 C 0.26964 0.33586 0.51646 0.0
O297 O 0.29226 0.34556 0.50537 0.0
O298 O 0.27099 0.41331 0.50952 0.0
C299 C 0.33741 0.58024 0.28294 0.0
O300 O 0.35946 0.57413 0.29724 0.0
O301 O 0.38011 0.53682 0.2266 0.0
Zn302 Zn 0.34959 0.53044 0.25358 0.0
O303 O 0.36693 0.51763 0.28953 0.0
C304 C 0.32086 0.50109 0.2098 0.0
O305 O 0.33459 0.51829 0.19343 0.0
O306 O 0.32972 0.56489 0.26227 0.0
C307 C 0.36333 0.49548 0.30359 0.0
O308 O 0.34532 0.4769 0.29488 0.0
C309 C 0.39461 0.51575 0.22243 0.0
O310 O 0.3883 0.49241 0.2354 0.0
O311 O 0.32383 0.50236 0.23674 0.0
O312 O 0.96828 0.0506 0.03184 0.0
Zn313 Zn 0.97567 0.01871 0.006 0.0
O314 O 0.97149 0.98348 0.02586 0.0
Zn315 Zn 0.00652 0.96516 0.02783 0.0
Zn316 Zn 0.95642 0.98993 0.06399 0.0
Zn317 Zn 0.94658 0.96012 0.00466 0.0
O318 O 0.00547 0.92683 0.00953 0.0
O319 O 0.96271 0.92417 0.9947 0.0
O320 O 0.01377 0.02473 0.99301 0.0
O321 O 0.0358 0.98816 0.00885 0.0
O322 O 0.01749 0.96226 0.06897 0.0
O323 O 0.98144 0.97473 0.09386 0.0
O324 O 0.91863 0.97314 0.06887 0.0
O325 O 0.95195 0.0207 0.9714 0.0
O326 O 0.91431 0.95086 0.02754 0.0
O327 O 0.93397 0.97831 0.96875 0.0
C328 C 0.96093 0.05245 0.05771 0.0
C329 C 0.98589 0.91361 -0.0024 0.0
C330 C 0.00555 0.96596 0.09265 0.0
C331 C 0.03552 0.01133 0.99589 0.0
C332 C 0.90536 0.95721 0.05195 0.0
C333 C 0.93714 0.00263 0.95872 0.0
O334 O 0.95548 0.03091 0.07244 0.0
O335 O 0.21985 0.75003 0.20489 0.0
Zn336 Zn 0.21858 0.75568 0.24699 0.0
O337 O 0.24208 0.78676 0.25722 0.0
Zn338 Zn 0.27356 0.77414 0.27787 0.0
Zn339 Zn 0.25311 0.80702 0.22287 0.0
Zn340 Zn 0.22292 0.81057 0.28229 0.0
O341 O 0.27999 0.79504 0.31476 0.0
O342 O 0.2389 0.8115 0.32154 0.0
O343 O 0.23133 0.72035 0.26492 0.0
O344 O 0.26897 0.73421 0.28725 0.0
O345 O 0.30604 0.77604 0.25253 0.0
O346 O 0.29282 0.80297 0.21684 0.0
O347 O 0.24483 0.84788 0.22521 0.0
O348 O 0.18 0.76253 0.25746 0.0
O349 O 0.22707 0.84907 0.26864 0.0
O350 O 0.18313 0.80135 0.28279 0.0
C351 C 0.22706 0.76492 0.18376 0.0
C352 C 0.26289 0.80724 0.33038 0.0
C353 C 0.31074 0.78861 0.22918 0.0
C354 C 0.25194 0.71522 0.28038 0.0
C355 C 0.23543 0.86126 0.24627 0.0
C356 C 0.16902 0.78178 0.2716 0.0
O357 O 0.23784 0.78889 0.18727 0.0
O358 O 0.4994 3e-05 0.59873 0.0
Zn359 Zn 0.49363 0.03677 0.58111 0.0
O360 O 0.50848 0.06565 0.60524 0.0
Zn361 Zn 0.47891 0.08879 0.61913 0.0
Zn362 Zn 0.52959 0.04964 0.63605 0.0
Zn363 Zn 0.53282 0.08748 0.58264 0.0
O364 O 0.47841 0.12615 0.59841 0.0
O365 O 0.51604 0.12261 0.57333 0.0
O366 O 0.45404 0.04038 0.57666 0.0
O367 O 0.44239 0.07079 0.60975 0.0
O368 O 0.48131 0.09173 0.66226 0.0
O369 O 0.51429 0.06255 0.67286 0.0
O370 O 0.56936 0.06068 0.63408 0.0
O371 O 0.51042 0.03554 0.54252 0.0
O372 O 0.56796 0.0944 0.60197 0.0
O373 O 0.54075 0.06981 0.54482 0.0
C374 C 0.51275 0.99131 0.62006 0.0
C375 C 0.49496 0.1357 0.5799 0.0
C376 C 0.49577 0.07892 0.68052 0.0
C377 C 0.43608 0.0531 0.59051 0.0
C378 C 0.58073 0.08054 0.62053 0.0
C379 C 0.52954 0.0497 0.53141 0.0
O380 O 0.52612 0.0079 0.63621 0.0
O381 O 0.27357 0.1843 0.77576 0.0
Zn382 Zn 0.28658 0.20989 0.7444 0.0
O383 O 0.27779 0.194 0.70688 0.0
Zn384 Zn 0.31048 0.1885 0.68389 0.0
Zn385 Zn 0.25639 0.15977 0.71075 0.0
Zn386 Zn 0.25531 0.21916 0.6872 0.0
O387 O 0.30913 0.20943 0.64566 0.0
O388 O 0.2677 0.22606 0.6482 0.0
O389 O 0.32696 0.21343 0.74834 0.0
O390 O 0.34389 0.20085 0.70652 0.0
O391 O 0.31423 0.14735 0.67682 0.0
O392 O 0.2749 0.12902 0.69097 0.0
O393 O 0.21716 0.16236 0.69787 0.0
O394 O 0.27083 0.24836 0.75005 0.0
O395 O 0.21723 0.20653 0.6855 0.0
O396 O 0.25443 0.25508 0.70659 0.0
C397 C 0.2619 0.16051 0.77537 0.0
C398 C 0.28941 0.22241 0.63454 0.0
C399 C 0.29827 0.12649 0.68007 0.0
C400 C 0.34712 0.20957 0.73207 0.0
C401 C 0.20468 0.18377 0.6897 0.0
C402 C 0.25964 0.26386 0.73158 0.0
O403 O 0.25489 0.1489 0.75199 0.0
O404 O -0.00521 0.98206 0.4359 0.0
Zn405 Zn 0.97642 0.96221 0.46852 0.0
O406 O 0.99427 0.97079 0.50452 0.0
Zn407 Zn 0.00295 0.93731 0.52606 0.0
Zn408 Zn 0.02581 -0.00543 0.49848 0.0
Zn409 Zn 0.96967 0.99082 0.52683 0.0
O410 O 0.98626 0.93614 0.56582 0.0
O411 O 0.97209 0.97946 0.56696 0.0
O412 O 0.97987 0.92175 0.46187 0.0
O413 O 0.9936 0.90314 0.50285 0.0
O414 O 0.04298 0.93731 0.53301 0.0
O415 O 0.05869 0.97748 0.51604 0.0
O416 O 0.02074 0.03298 0.51463 0.0
O417 O 0.93622 0.97039 0.4688 0.0
O418 O 0.97736 0.03121 0.5263 0.0
O419 O 0.93211 0.98418 0.5137 0.0
C420 C 0.01744 -0.00493 0.43433 0.0
C421 C 0.97735 0.95687 0.57943 0.0
C422 C 0.06242 0.95447 0.52866 0.0
C423 C 0.98595 0.90077 0.4769 0.0
C424 C -0.00062 0.04481 0.523 0.0
C425 C 0.92163 0.9773 0.48985 0.0
O426 O 0.0319 -0.00016 0.45648 0.0
O427 O 0.34473 0.69537 0.74202 0.0
Zn428 Zn 0.3141 0.71096 0.76444 0.0
O429 O 0.28105 0.7114 0.74102 0.0
Zn430 Zn 0.26848 0.749 0.73796 0.0
Zn431 Zn 0.28703 0.69558 0.70292 0.0
Zn432 Zn 0.25325 0.68998 0.75963 0.0
O433 O 0.23028 0.75348 0.75169 0.0
O434 O 0.21843 0.71028 0.76255 0.0
O435 O 0.32633 0.74967 0.77509 0.0
O436 O 0.29288 0.77544 0.759 0.0
O437 O 0.26968 0.76067 0.69742 0.0
O438 O 0.27859 0.72333 0.67162 0.0
O439 O 0.2665 0.65915 0.69689 0.0
O440 O 0.30839 0.69047 0.80164 0.0
O441 O 0.24666 0.65472 0.73909 0.0
O442 O 0.26452 0.67998 0.79899 0.0
C443 C 0.34678 0.68766 0.71612 0.0
C444 C 0.21262 0.7357 0.75982 0.0
C445 C 0.27329 0.74902 0.67344 0.0
C446 C 0.31544 0.77314 0.77193 0.0
C447 C 0.25235 0.64519 0.71461 0.0
C448 C 0.28684 0.68038 0.81265 0.0
O449 O 0.3265 0.68723 0.69918 0.0
O450 O 0.52176 0.06265 0.12329 0.0
Zn451 Zn 0.51985 0.06016 0.07997 0.0
O452 O 0.48828 0.03799 0.06976 0.0
Zn453 Zn 0.49858 0.00972 0.04374 0.0
Zn454 Zn 0.46917 0.02166 0.10163 0.0
Zn455 Zn 0.46248 0.06079 0.05164 0.0
O456 O 0.47142 0.00549 0.01231 0.0
O457 O 0.44368 0.04047 0.01925 0.0
O458 O 0.55307 0.04073 0.06611 0.0
O459 O 0.53631 0.01606 0.02975 0.0
O460 O 0.49871 0.97333 0.06361 0.0
O461 O 0.47445 0.98018 0.10255 0.0
O462 O 0.42883 0.03025 0.09903 0.0
O463 O 0.51997 0.09747 0.0589 0.0
O464 O 0.43441 0.07143 0.07923 0.0
O465 O 0.48008 0.09469 0.03675 0.0
C466 C 0.50722 0.05194 0.14309 0.0
C467 C 0.45014 0.01861 0.0059 0.0
C468 C 0.4877 0.96427 0.08628 0.0
C469 C 0.5564 0.02597 0.04387 0.0
C470 C 0.41935 0.05353 0.09149 0.0
C471 C 0.50248 0.10725 0.04161 0.0
O472 O 0.48638 0.0368 0.13748 0.0
O473 O 0.22361 0.28306 0.23108 0.0
Zn474 Zn 0.26295 0.28031 0.24188 0.0
O475 O 0.28591 0.28541 0.20878 0.0
Zn476 Zn 0.30378 0.25108 0.20119 0.0
Zn477 Zn 0.26474 0.29603 0.17598 0.0
Zn478 Zn 0.31248 0.31426 0.21635 0.0
O479 O 0.34203 0.25269 0.2162 0.0
O480 O 0.34886 0.29784 0.22307 0.0
O481 O 0.26527 0.24197 0.25794 0.0
O482 O 0.28434 0.22039 0.22165 0.0
O483 O 0.30146 0.24114 0.15964 0.0
O484 O 0.27268 0.27175 0.14233 0.0
O485 O 0.27174 0.33631 0.16646 0.0
O486 O 0.27236 0.30753 0.27231 0.0
O487 O 0.3131 0.34219 0.18489 0.0
O488 O 0.30403 0.33483 0.25301 0.0
C489 C 0.21211 0.28472 0.20678 0.0
C490 C 0.35725 0.27306 0.22372 0.0
C491 C 0.28734 0.25058 0.1391 0.0
C492 C 0.27152 0.21983 0.24509 0.0
C493 C 0.29365 0.35044 0.1693 0.0
C494 C 0.28835 0.32846 0.27355 0.0
O495 O 0.22557 0.28902 0.1841 0.0
O496 O 0.52738 0.50399 0.95604 0.0
Zn497 Zn 0.50688 0.49033 0.99037 0.0
O498 O 0.52574 0.50223 0.02497 0.0
Zn499 Zn 0.53105 0.4713 0.0507 0.0
Zn500 Zn 0.55926 0.52238 0.01666 0.0
Zn501 Zn 0.50335 0.52692 0.04456 0.0
O502 O 0.50774 0.47421 0.08614 0.0
O503 O 0.50231 0.51965 0.08602 0.0
O504 O 0.50795 0.44903 0.98805 0.0
O505 O 0.52424 0.43501 0.02982 0.0
O506 O 0.56983 0.47179 0.06344 0.0
O507 O 0.58996 0.50597 0.03916 0.0
O508 O 0.5569 0.56396 0.02418 0.0
O509 O 0.46727 0.50171 0.98928 0.0
O510 O 0.514 0.56579 0.03758 0.0
O511 O 0.46584 0.52283 0.03121 0.0
C512 C 0.55168 0.51294 0.95324 0.0
C513 C 0.50044 0.49637 0.09853 0.0
C514 C 0.59086 0.48614 0.05711 0.0
C515 C 0.51533 0.42975 0.00473 0.0
C516 C 0.53603 0.57772 0.0305 0.0
C517 C 0.45405 0.51354 0.00896 0.0
O518 O 0.5666 0.51886 0.9748 0.0
O519 O 0.808 0.22432 0.26648 0.0
Zn520 Zn 0.77598 0.23948 0.28692 0.0
O521 O 0.74232 0.22623 0.26861 0.0
Zn522 Zn 0.71955 0.25728 0.25826 0.0
Zn523 Zn 0.74984 0.20397 0.23463 0.0
Zn524 Zn 0.72314 0.20373 0.29561 0.0
O525 O 0.68471 0.25795 0.28022 0.0
O526 O 0.68774 0.21983 0.30638 0.0
O527 O 0.77967 0.28049 0.28208 0.0
O528 O 0.73979 0.29315 0.26468 0.0
O529 O 0.71152 0.2571 0.21629 0.0
O530 O 0.73545 0.22239 0.19933 0.0
O531 O 0.73455 0.16477 0.2372 0.0
O532 O 0.77885 0.22916 0.32899 0.0
O533 O 0.71755 0.16579 0.28095 0.0
O534 O 0.74379 0.19988 0.3314 0.0
C535 C 0.81054 0.21035 0.24363 0.0
C536 C 0.67516 0.24141 0.29891 0.0
C537 C 0.72018 0.243 0.19539 0.0
C538 C 0.76373 0.29903 0.27319 0.0
C539 C 0.72285 0.15288 0.25811 0.0
C540 C 0.76455 0.21143 0.34259 0.0
O541 O 0.78997 0.20165 0.22948 0.0
O542 O 0.03577 0.52118 0.54414 0.0
Zn543 Zn 0.02798 0.51888 0.50183 0.0
O544 O 0.99435 0.4972 0.49516 0.0
Zn545 Zn 0.00155 0.46476 0.47135 0.0
Zn546 Zn 0.97729 0.48599 0.53101 0.0
Zn547 Zn 0.9692 0.51994 0.4755 0.0
O548 O 0.98114 0.46514 0.43379 0.0
O549 O 0.95718 0.50311 0.43894 0.0
O550 O 0.05949 0.49849 0.4857 0.0
O551 O 0.04133 0.4617 0.46389 0.0
O552 O 0.99152 0.42999 0.49226 0.0
O553 O 0.97445 0.44466 0.53316 0.0
O554 O 0.9399 0.50197 0.53712 0.0
O555 O 0.02761 0.55722 0.48327 0.0
O556 O 0.93675 0.52782 0.49822 0.0
O557 O 0.98586 0.55573 0.46574 0.0
C558 C 0.02401 0.51067 0.56586 0.0
C559 C 0.96369 0.48203 0.42449 0.0
C560 C 0.98122 0.42511 0.5166 0.0
C561 C 0.06193 0.47626 0.47137 0.0
C562 C 0.92722 0.51922 0.52174 0.0
C563 C 0.00834 0.56837 0.46948 0.0
O564 O 0.00173 0.49711 0.56346 0.0
O565 O 0.70782 0.72238 0.33603 0.0
Zn566 Zn 0.70973 0.74873 0.30276 0.0
O567 O 0.69331 0.73136 0.26884 0.0
Zn568 Zn 0.71918 0.73088 0.23755 0.0
Zn569 Zn 0.6809 0.69334 0.27715 0.0
Zn570 Zn 0.66282 0.75304 0.25727 0.0
O571 O 0.70669 0.75292 0.20391 0.0
O572 O 0.6669 0.76856 0.21765 0.0
O573 O 0.74936 0.75593 0.29606 0.0
O574 O 0.75584 0.74466 0.25069 0.0
O575 O 0.72506 0.69229 0.2238 0.0
O576 O 0.70061 0.66601 0.25308 0.0
O577 O 0.64076 0.68748 0.26972 0.0
O578 O 0.69149 0.78458 0.31406 0.0
O579 O 0.62923 0.73036 0.2584 0.0
O580 O 0.65716 0.7845 0.28331 0.0
C581 C 0.69963 0.69734 0.33881 0.0
C582 C 0.6854 0.76659 0.19905 0.0
C583 C 0.71702 0.66858 0.2324 0.0
C584 C 0.76489 0.75329 0.27468 0.0
C585 C 0.62299 0.70519 0.2633 0.0
C586 C 0.66982 0.79512 0.30441 0.0
O587 O 0.68901 0.68394 0.318 0.0
O588 O 0.75604 0.25643 0.69621 0.0
Zn589 Zn 0.75335 0.26891 0.73654 0.0
O590 O 0.77017 0.30539 0.74011 0.0
Zn591 Zn 0.80331 0.30381 0.76343 0.0
Zn592 Zn 0.7785 0.32049 0.70218 0.0
Zn593 Zn 0.74484 0.32862 0.75886 0.0
O594 O 0.80158 0.32759 0.79864 0.0
O595 O 0.7584 0.33957 0.7974 0.0
O596 O 0.77523 0.2412 0.75717 0.0
O597 O 0.81002 0.26473 0.77604 0.0
O598 O 0.83613 0.31314 0.74018 0.0
O599 O 0.81878 0.32371 0.69786 0.0
O600 O 0.76147 0.35785 0.69532 0.0
O601 O 0.71466 0.26661 0.75065 0.0
O602 O 0.74002 0.36298 0.73661 0.0
O603 O 0.70868 0.31002 0.76429 0.0
C604 C 0.76248 0.26762 0.67259 0.0
C605 C 0.78129 0.33906 0.80992 0.0
C606 C 0.83911 0.31959 0.71405 0.0
C607 C 0.79729 0.24204 0.77129 0.0
C608 C 0.74702 0.37191 0.7122 0.0
C609 C 0.69972 0.28535 0.76087 0.0
O610 O 0.769 0.29321 0.67096 0.0
O611 O 0.69181 0.79802 0.73365 0.0
Zn612 Zn 0.72383 0.78887 0.75832 0.0
O613 O 0.75763 0.79629 0.73822 0.0
Zn614 Zn 0.77992 0.7634 0.7376 0.0
Zn615 Zn 0.75044 0.80791 0.69904 0.0
Zn616 Zn 0.77668 0.82574 0.75794 0.0
O617 O 0.81676 0.77058 0.75527 0.0
O618 O 0.81498 0.81525 0.76634 0.0
O619 O 0.72023 0.74841 0.76625 0.0
O620 O 0.76063 0.73149 0.75638 0.0
O621 O 0.78397 0.74903 0.69765 0.0
O622 O 0.76148 0.7789 0.67108 0.0
O623 O 0.76727 0.84522 0.68982 0.0
O624 O 0.72192 0.80897 0.79594 0.0
O625 O 0.77748 0.85965 0.73381 0.0
O626 O 0.75961 0.83462 0.7955 0.0
C627 C 0.68978 0.80591 0.7078 0.0
C628 C 0.82788 0.79272 0.76503 0.0
C629 C 0.77446 0.75653 0.67363 0.0
C630 C 0.73642 0.7283 0.76505 0.0
C631 C 0.77489 0.86415 0.70718 0.0
C632 C 0.73803 0.82643 0.80783 0.0
O633 O 0.71063 0.81067 0.69269 0.0
O634 O 0.47385 0.57704 0.50201 0.0
Zn635 Zn 0.4797 0.53638 0.49611 0.0
O636 O 0.46098 0.5156 0.52619 0.0
Zn637 Zn 0.48595 0.49083 0.54488 0.0
Zn638 Zn 0.44486 0.53993 0.55446 0.0
Zn639 Zn 0.43287 0.49337 0.50937 0.0
O640 O 0.48076 0.45095 0.53231 0.0
O641 O 0.44089 0.45353 0.51079 0.0
O642 O 0.52025 0.53146 0.49911 0.0
O643 O 0.52396 0.50257 0.53573 0.0
O644 O 0.48372 0.49459 0.58729 0.0
O645 O 0.46459 0.53568 0.59195 0.0
O646 O 0.4048 0.53145 0.56101 0.0
O647 O 0.46518 0.52639 0.45655 0.0
O648 O 0.39785 0.49922 0.52771 0.0
O649 O 0.42901 0.50104 0.46832 0.0
C650 C 0.46124 0.591 0.52057 0.0
C651 C 0.46087 0.43949 0.51917 0.0
C652 C 0.47751 0.51543 0.60244 0.0
C653 C 0.53469 0.51827 0.51699 0.0
C654 C 0.38931 0.51447 0.54763 0.0
C655 C 0.44369 0.51283 0.44964 0.0
O656 O 0.4491 0.57942 0.54145 0.0
O657 O 0.04036 0.41746 0.01041 0.0
Zn658 Zn 0.02356 0.4467 0.98578 0.0
O659 O 0.02598 0.48292 0.00499 0.0
Zn660 Zn 0.99028 0.49906 0.00806 0.0
Zn661 Zn 0.04307 0.47953 0.04282 0.0
Zn662 Zn 0.04718 0.50771 0.98224 0.0
O663 O 0.98491 0.53401 0.98474 0.0
O664 O 0.02726 0.54115 0.97118 0.0
O665 O 0.98437 0.4341 0.98218 0.0
O666 O 0.9623 0.47053 -0.00163 0.0
O667 O 0.98293 0.5083 0.04863 0.0
O668 O 0.01855 0.49422 0.07342 0.0
O669 O 0.07921 0.50054 0.04547 0.0
O670 O 0.04147 0.44707 0.94684 0.0
O671 O 0.07948 0.52109 0.00309 0.0
O672 O 0.05852 0.48992 0.94637 0.0
C673 C 0.04739 0.41721 0.03661 0.0
C674 C 0.00292 0.54889 0.97251 0.0
C675 C -0.00477 0.50497 0.07227 0.0
C676 C 0.96244 0.44581 0.98898 0.0
C677 C 0.09007 0.51698 0.02742 0.0
C678 C 0.05485 0.46644 0.93456 0.0
O679 O 0.04825 0.43921 0.05166 0.0
H680 H 0.98029 0.15639 0.13671 0.0
H681 H -0.00505 0.19531 0.05525 0.0
H682 H 0.98261 0.15203 0.03077 0.0
H683 H 0.97023 0.10262 0.03282 0.0
H684 H 0.95512 0.06401 0.11448 0.0
H685 H 0.96455 0.10799 0.13855 0.0
C686 C 0.98083 0.15539 0.11359 0.0
C687 C 0.98893 0.17883 0.09779 0.0
C688 C 0.97344 0.13062 0.09972 0.0
C689 C 0.98895 0.17745 0.06786 0.0
C690 C 0.98188 0.15274 0.05387 0.0
C691 C 0.96866 0.10385 0.05586 0.0
C692 C 0.96223 0.07992 0.0718 0.0
C693 C 0.9744 0.12912 0.06962 0.0
C694 C 0.96007 0.08203 0.10164 0.0
C695 C 0.96563 0.10714 0.11547 0.0
H696 H 0.045 0.80043 0.29249 0.0
H697 H 0.03987 0.71633 0.26136 0.0
H698 H 0.08865 0.71715 0.25254 0.0
H699 H 0.13304 0.74058 0.25726 0.0
H700 H 0.13802 0.82366 0.29152 0.0
H701 H 0.08892 0.82426 0.29583 0.0
C702 C 0.05444 0.78245 0.28323 0.0
C703 C 0.03889 0.7584 0.27746 0.0
C704 C 0.08251 0.78271 0.27932 0.0
C705 C 0.05147 0.73512 0.2659 0.0
C706 C 0.07935 0.73552 0.26104 0.0
C707 C 0.12339 0.75886 0.26559 0.0
C708 C 0.13923 0.78196 0.27424 0.0
C709 C 0.09514 0.75898 0.26833 0.0
C710 C 0.12638 0.80548 0.28497 0.0
C711 C 0.09827 0.80591 0.28731 0.0
H712 H 0.52487 0.86656 0.65701 0.0
H713 H 0.47384 0.85467 0.5826 0.0
H714 H 0.4721 0.90468 0.57581 0.0
H715 H 0.48646 0.95127 0.58972 0.0
H716 H 0.53838 0.96371 0.66339 0.0
H717 H 0.53836 0.91372 0.67175 0.0
C718 C 0.51316 0.87492 0.63947 0.0
C719 C 0.49954 0.85697 0.6203 0.0
C720 C 0.51256 0.90367 0.63544 0.0
C721 C 0.48457 0.86808 0.59758 0.0
C722 C 0.48359 0.89664 0.59367 0.0
C723 C 0.49777 0.94316 0.60768 0.0
C724 C 0.51253 0.96123 0.62581 0.0
C725 C 0.49778 0.91456 0.61225 0.0
C726 C 0.52694 0.95026 0.64903 0.0
C727 C 0.52692 0.9217 0.65384 0.0
H728 H 0.47106 0.22375 0.76576 0.0
H729 H 0.43523 0.23761 0.84829 0.0
H730 H 0.39021 0.2315 0.82768 0.0
H731 H 0.3609 0.22214 0.78673 0.0
H732 H 0.39574 0.20735 0.70397 0.0
H733 H 0.4412 0.21401 0.72423 0.0
C734 C 0.4534 0.22543 0.77922 0.0
C735 C 0.45662 0.23117 0.80856 0.0
C736 C 0.42736 0.2218 0.76723 0.0
C737 C 0.43346 0.23321 0.82567 0.0
C738 C 0.40763 0.22975 0.81391 0.0
C739 C 0.37837 0.22047 0.77298 0.0
C740 C 0.37481 0.21434 0.74381 0.0
C741 C 0.40435 0.22407 0.78476 0.0
C742 C 0.39781 0.21209 0.72649 0.0
C743 C 0.42384 0.21587 0.73807 0.0
H744 H 0.98215 0.77689 0.43375 0.0
H745 H 0.98388 0.8192 0.3525 0.0
H746 H 0.98579 0.86372 0.37675 0.0
H747 H 0.98588 0.89062 0.42046 0.0
H748 H 0.98516 0.84946 0.50221 0.0
H749 H 0.98394 0.80432 0.47819 0.0
C750 C 0.98306 0.79585 0.42138 0.0
C751 C 0.98269 0.79471 0.39138 0.0
C752 C 0.98419 0.82151 0.43546 0.0
C753 C 0.98405 0.81946 0.37562 0.0
C754 C 0.98509 0.84496 0.38944 0.0
C755 C 0.98531 0.87181 0.43312 0.0
C756 C 0.98529 0.87334 0.46304 0.0
C757 C 0.9849 0.8462 0.41928 0.0
C758 C 0.98508 0.84877 0.4791 0.0
C759 C 0.98438 0.82301 0.4654 0.0
H760 H 0.44546 0.68688 0.63407 0.0
H761 H 0.47453 0.747 0.69572 0.0
H762 H 0.43742 0.73445 0.72774 0.0
H763 H 0.39316 0.71223 0.73434 0.0
H764 H 0.36078 0.65684 0.66978 0.0
H765 H 0.40299 0.66109 0.64298 0.0
C766 C 0.444 0.69664 0.65486 0.0
C767 C 0.46248 0.71783 0.66266 0.0
C768 C 0.4219 0.69029 0.67246 0.0
C769 C 0.46032 0.73072 0.68936 0.0
C770 C 0.43913 0.72359 0.7076 0.0
C771 C 0.39565 0.70041 0.71486 0.0
C772 C 0.37393 0.68435 0.70394 0.0
C773 C 0.41925 0.70421 0.69885 0.0
C774 C 0.37726 0.66943 0.67849 0.0
C775 C 0.40129 0.67199 0.6631 0.0
H776 H 0.54016 0.19176 0.94729 0.0
H777 H 0.45443 0.20775 0.94765 0.0
H778 H 0.44844 0.17725 0.98844 0.0
H779 H 0.4665 0.14333 0.0214 0.0
H780 H 0.55176 0.12602 0.02191 0.0
H781 H 0.55917 0.1604 0.98402 0.0
C782 C 0.52022 0.18858 0.95638 0.0
C783 C 0.49772 0.20172 0.94416 0.0
C784 C 0.51686 0.17102 0.98014 0.0
C785 C 0.47207 0.19778 0.95646 0.0
C786 C 0.46859 0.18037 0.97986 0.0
C787 C 0.48681 0.14742 0.01357 0.0
C788 C 0.50852 0.13207 0.02421 0.0
C789 C 0.49072 0.16657 0.99153 0.0
C790 C 0.53475 0.13774 0.01414 0.0
C791 C 0.53891 0.15712 0.99224 0.0
H792 H 0.08805 0.25249 0.21323 0.0
H793 H 0.10949 0.20702 0.13745 0.0
H794 H 0.15602 0.22405 0.14168 0.0
H795 H 0.19017 0.25308 0.16555 0.0
H796 H 0.17053 0.29631 0.24299 0.0
H797 H 0.12345 0.27928 0.23924 0.0
C798 C 0.10298 0.24607 0.19783 0.0
C799 C 0.09523 0.22867 0.17494 0.0
C800 C 0.12981 0.25594 0.20037 0.0
C801 C 0.11485 0.22038 0.15528 0.0
C802 C 0.14145 0.23027 0.15753 0.0
C803 C 0.17547 0.25907 0.1814 0.0
C804 C 0.18343 0.27644 0.2041 0.0
C805 C 0.14899 0.24842 0.17965 0.0
C806 C 0.16457 0.28328 0.22509 0.0
C807 C 0.1378 0.27343 0.22302 0.0
H808 H 0.05437 0.98107 0.216 0.0
H809 H 0.11794 0.01978 0.16653 0.0
H810 H 0.09576 0.00461 0.12237 0.0
H811 H 0.05684 0.98379 0.09792 0.0
H812 H 0.9899 0.95053 0.14639 0.0
H813 H 0.01497 0.95951 0.19099 0.0
C814 C 0.06331 0.98597 0.19548 0.0
C815 C 0.08754 0.0016 0.19431 0.0
C816 C 0.04994 0.978 0.17014 0.0
C817 C 0.09904 0.00807 0.16778 0.0
C818 C 0.08649 -0.00073 0.14259 0.0
C819 C 0.04802 0.97786 0.11822 0.0
C820 C 0.02183 0.96616 0.11902 0.0
C821 C 0.06177 0.98462 0.14353 0.0
C822 C 0.01022 0.95931 0.14542 0.0
C823 C 0.02444 0.96464 0.17082 0.0
H824 H 0.31559 0.85231 0.44522 0.0
H825 H 0.2397 0.8953 0.44714 0.0
H826 H 0.2256 0.87295 0.40289 0.0
H827 H 0.23453 0.8418 0.36363 0.0
H828 H 0.31036 0.79902 0.35992 0.0
H829 H 0.32462 0.82057 0.40507 0.0
C830 C 0.29601 0.85682 0.4359 0.0
C831 C 0.27878 0.87548 0.44953 0.0
C832 C 0.28791 0.84385 0.41025 0.0
C833 C 0.25343 0.88106 0.43717 0.0
C834 C 0.24527 0.86825 0.41185 0.0
C835 C 0.25413 0.83694 0.3727 0.0
C836 C 0.27129 0.81873 0.35843 0.0
C837 C 0.2623 0.84962 0.39827 0.0
C838 C 0.29671 0.81295 0.37049 0.0
C839 C 0.3049 0.82531 0.39626 0.0
H840 H 0.42459 0.06936 0.78858 0.0
H841 H 0.46926 0.99379 0.79633 0.0
H842 H 0.50125 0.01045 0.76029 0.0
H843 H 0.51037 0.04167 0.72058 0.0
H844 H 0.46102 0.11356 0.70791 0.0
H845 H 0.43731 0.10354 0.75243 0.0
C846 C 0.44183 0.0569 0.78307 0.0
C847 C 0.44456 0.0303 0.7949 0.0
C848 C 0.45901 0.06585 0.76116 0.0
C849 C 0.46677 0.01426 0.78735 0.0
C850 C 0.48491 0.02373 0.76667 0.0
C851 C 0.49496 0.05567 0.72788 0.0
C852 C 0.48716 0.0781 0.71067 0.0
C853 C 0.48035 0.04882 0.75245 0.0
C854 C 0.46722 0.09601 0.7206 0.0
C855 C 0.45356 0.09018 0.74596 0.0
H856 H 0.23163 0.08302 0.87939 0.0
H857 H 0.26408 0.15341 0.9262 0.0
H858 H 0.27359 0.1775 0.8816 0.0
H859 H 0.27227 0.17895 0.82938 0.0
H860 H 0.23941 0.1088 0.78245 0.0
H861 H 0.23052 0.08439 0.82702 0.0
C862 C 0.24086 0.10359 0.87984 0.0
C863 C 0.24711 0.11634 0.90611 0.0
C864 C 0.24616 0.11747 0.85409 0.0
C865 C 0.25901 0.14306 0.90629 0.0
C866 C 0.26447 0.15691 0.88078 0.0
C867 C 0.26317 0.15832 0.82885 0.0
C868 C 0.2565 0.14582 0.80255 0.0
C869 C 0.25803 0.14436 0.85457 0.0
C870 C 0.24472 0.11903 0.80235 0.0
C871 C 0.23963 0.10499 0.82785 0.0
H872 H 0.04446 0.02682 0.30681 0.0
H873 H 0.12177 0.0472 0.34573 0.0
H874 H 0.10387 0.03515 0.39262 0.0
H875 H 0.06708 0.01691 0.42215 0.0
H876 H 0.99019 -0.00537 0.38321 0.0
H877 H 0.00719 0.00933 0.3367 0.0
C878 C 0.05729 0.02892 0.3256 0.0
C879 C 0.08438 0.0379 0.32281 0.0
C880 C 0.04704 0.02141 0.35243 0.0
C881 C 0.10085 0.04025 0.34731 0.0
C882 C 0.09066 0.03334 0.37412 0.0
C883 C 0.05393 0.01538 0.40356 0.0
C884 C 0.02741 0.00461 0.40621 0.0
C885 C 0.0639 0.02356 0.37686 0.0
C886 C 0.01074 0.00271 0.3818 0.0
C887 C 0.02042 0.01116 0.35518 0.0
H888 H 0.26824 0.81071 0.55463 0.0
H889 H 0.28572 0.88061 0.60991 0.0
H890 H 0.28662 0.85005 0.65112 0.0
H891 H 0.28144 0.80417 0.67167 0.0
H892 H 0.26539 0.73335 0.61745 0.0
H893 H 0.26493 0.76371 0.57545 0.0
C894 C 0.27235 0.81921 0.57569 0.0
C895 C 0.27676 0.84793 0.57918 0.0
C896 C 0.27294 0.80146 0.59943 0.0
C897 C 0.28225 0.85861 0.60657 0.0
C898 C 0.28269 0.84117 0.6302 0.0
C899 C 0.27767 0.79529 0.6507 0.0
C900 C 0.27308 0.76661 0.64768 0.0
C901 C 0.27782 0.81268 0.62688 0.0
C902 C 0.26884 0.75541 0.6203 0.0
C903 C 0.26858 0.77275 0.59634 0.0
H904 H 0.38908 0.95299 0.90884 0.0
H905 H 0.36043 0.0347 0.88915 0.0
H906 H 0.38212 0.05292 0.93261 0.0
H907 H 0.41406 0.04647 0.97282 0.0
H908 H 0.4458 0.96517 0.98868 0.0
H909 H 0.41824 0.94601 0.94992 0.0
C910 C 0.38705 0.97469 0.91426 0.0
C911 C 0.37334 0.9925 0.89568 0.0
C912 C 0.40065 0.98521 0.93832 0.0
C913 C 0.37098 0.02058 0.90309 0.0
C914 C 0.38355 0.03104 0.9278 0.0
C915 C 0.41471 0.02454 0.96788 0.0
C916 C 0.43221 0.00734 0.98327 0.0
C917 C 0.39928 0.01372 0.945 0.0
C918 C 0.43286 0.97894 0.97677 0.0
C919 C 0.41699 0.96791 0.95473 0.0
H920 H 0.2668 0.15364 0.05286 0.0
H921 H 0.20929 0.21085 0.01823 0.0
H922 H 0.22526 0.2465 0.05222 0.0
H923 H 0.25359 0.25977 0.09379 0.0
H924 H 0.31239 0.20232 0.12616 0.0
H925 H 0.29857 0.16863 0.08999 0.0
C926 C 0.25772 0.17391 0.05274 0.0
C927 C 0.23646 0.17953 0.03367 0.0
C928 C 0.26753 0.1943 0.07154 0.0
C929 C 0.22539 0.20605 0.03313 0.0
C930 C 0.23462 0.22639 0.05241 0.0
C931 C 0.26379 0.24012 0.09261 0.0
C932 C 0.28372 0.23347 0.11305 0.0
C933 C 0.25548 0.22058 0.07195 0.0
C934 C 0.29685 0.20797 0.11094 0.0
C935 C 0.28881 0.18855 0.0904 0.0
H936 H 0.13243 0.08937 0.95908 0.0
H937 H 0.177 0.03039 0.00915 0.0
H938 H 0.13593 0.0022 0.01531 0.0
H939 H 0.08675 -0.00369 0.00981 0.0
H940 H 0.04203 0.0562 0.96105 0.0
H941 H 0.08386 0.08178 0.95079 0.0
C942 C 0.13324 0.07024 0.97114 0.0
C943 C 0.15769 0.06219 0.98388 0.0
C944 C 0.1095 0.05428 0.97489 0.0
C945 C 0.15839 0.03722 -0.00072 0.0
C946 C 0.13491 0.02106 0.00283 0.0
C947 C 0.08618 0.01471 -0.00344 0.0
C948 C 0.06125 0.02442 0.98642 0.0
C949 C 0.11025 0.02967 0.9912 0.0
C950 C 0.06091 0.04836 0.96933 0.0
C951 C 0.08482 0.06306 0.96348 0.0
H952 H 0.68807 0.41671 0.10034 0.0
H953 H 0.72659 0.45893 0.02989 0.0
H954 H 0.68792 0.48929 0.02507 0.0
H955 H 0.64045 0.49818 0.03546 0.0
H956 H 0.60046 0.45316 0.10321 0.0
H957 H 0.64253 0.42993 0.11483 0.0
C958 C 0.68828 0.43302 0.08443 0.0
C959 C 0.70989 0.43533 0.06522 0.0
C960 C 0.66555 0.44967 0.08106 0.0
C961 C 0.70995 0.45653 0.04467 0.0
C962 C 0.68784 0.47385 0.04186 0.0
C963 C 0.64109 0.48381 0.05323 0.0
C964 C 0.61729 0.47705 0.06812 0.0
C965 C 0.66505 0.46976 0.05909 0.0
C966 C 0.61846 0.45841 0.09113 0.0
C967 C 0.64248 0.44506 0.09776 0.0
H968 H 0.79021 0.42338 0.24353 0.0
H969 H 0.86673 0.38778 0.22122 0.0
H970 H 0.85038 0.34231 0.23716 0.0
H971 H 0.81433 0.31281 0.25711 0.0
H972 H 0.73686 0.34769 0.27649 0.0
H973 H 0.75384 0.3937 0.26256 0.0
C974 C 0.80329 0.40565 0.24207 0.0
C975 C 0.82964 0.4089 0.23125 0.0
C976 C 0.79374 0.37965 0.25113 0.0
C977 C 0.8463 0.38575 0.22929 0.0
C978 C 0.83705 0.35982 0.2386 0.0
C979 C 0.80134 0.33061 0.25876 0.0
C980 C 0.77457 0.32713 0.26822 0.0
C981 C 0.81088 0.3566 0.24968 0.0
C982 C 0.75764 0.35008 0.26951 0.0
C983 C 0.76727 0.37626 0.26139 0.0
H984 H 0.81635 0.57808 0.53158 0.0
H985 H 0.79159 0.49902 0.56662 0.0
H986 H 0.8385 0.48332 0.56446 0.0
H987 H 0.88615 0.49133 0.54903 0.0
H988 H 0.90889 0.57056 0.51288 0.0
H989 H 0.86317 0.58709 0.51949 0.0
C990 C 0.82109 0.55737 0.5388 0.0
C991 C 0.80045 0.53959 0.54882 0.0
C992 C 0.84782 0.54859 0.53741 0.0
C993 C 0.80713 0.51304 0.55859 0.0
C994 C 0.83393 0.50408 0.55736 0.0
C995 C 0.88109 0.51234 0.54317 0.0
C996 C 0.90072 0.52969 0.53036 0.0
C997 C 0.85441 0.52157 0.54639 0.0
C998 C 0.894 0.5568 0.52258 0.0
C999 C 0.86788 0.56625 0.52627 0.0
H1000 H 0.2028 0.12315 0.3001 0.0
H1001 H 0.19057 0.10394 0.21086 0.0
H1002 H 0.22257 0.14065 0.19764 0.0
H1003 H 0.25192 0.17961 0.21106 0.0
H1004 H 0.26092 0.20269 0.29958 0.0
H1005 H 0.23275 0.16263 0.31364 0.0
C1006 C 0.20725 0.12703 0.2778 0.0
C1007 C 0.19429 0.11105 0.25648 0.0
C1008 C 0.22525 0.14861 0.27029 0.0
C1009 C 0.20006 0.11624 0.22764 0.0
C1010 C 0.21848 0.13708 0.22005 0.0
C1011 C 0.24823 0.1755 0.23348 0.0
C1012 C 0.25869 0.19368 0.25433 0.0
C1013 C 0.23099 0.1535 0.24116 0.0
C1014 C 0.25318 0.18868 0.28325 0.0
C1015 C 0.23696 0.16597 0.29123 0.0
H1016 H 0.31813 0.0027 0.59213 0.0
H1017 H 0.34275 0.9769 0.50802 0.0
H1018 H 0.38419 0.00463 0.51253 0.0
H1019 H 0.41556 0.03152 0.54206 0.0
H1020 H 0.39286 0.05631 0.62694 0.0
H1021 H 0.34815 0.03421 0.62017 0.0
C1022 C 0.3324 0.00345 0.57466 0.0
C1023 C 0.32759 0.98737 0.54998 0.0
C1024 C 0.3565 0.01917 0.57754 0.0
C1025 C 0.34615 0.98874 0.52742 0.0
C1026 C 0.36985 0.00461 0.52994 0.0
C1027 C 0.40071 0.0324 0.55898 0.0
C1028 C 0.40757 0.04505 0.5851 0.0
C1029 C 0.37556 0.01917 0.55519 0.0
C1030 C 0.38802 0.04658 0.60664 0.0
C1031 C 0.36257 0.03376 0.60285 0.0
H1032 H 0.79379 0.5807 0.17942 0.0
H1033 H 0.76604 0.53481 0.253 0.0
H1034 H 0.73321 0.57044 0.26326 0.0
H1035 H 0.71649 0.61693 0.25485 0.0
H1036 H 0.74639 0.66459 0.18337 0.0
H1037 H 0.77391 0.62576 0.16848 0.0
C1038 C 0.78023 0.57831 0.1974 0.0
C1039 C 0.78254 0.5554 0.21563 0.0
C1040 C 0.7619 0.59926 0.20365 0.0
C1041 C 0.76487 0.5525 0.23887 0.0
C1042 C 0.74608 0.57284 0.24475 0.0
C1043 C 0.7286 0.61867 0.23569 0.0
C1044 C 0.72964 0.64371 0.22045 0.0
C1045 C 0.74503 0.59668 0.22781 0.0
C1046 C 0.74545 0.64561 0.19566 0.0
C1047 C 0.76126 0.62345 0.18717 0.0
H1048 H 0.67459 0.4739 0.70127 0.0
H1049 H 0.73247 0.50478 0.76369 0.0
H1050 H 0.76135 0.46543 0.7547 0.0
H1051 H 0.76606 0.41866 0.73539 0.0
H1052 H 0.70773 0.38649 0.67464 0.0
H1053 H 0.68336 0.43028 0.67598 0.0
C1054 C 0.69371 0.47221 0.7126 0.0
C1055 C 0.70106 0.49181 0.73364 0.0
C1056 C 0.71013 0.44937 0.70752 0.0
C1057 C 0.72614 0.48972 0.74771 0.0
C1058 C 0.74269 0.46724 0.74258 0.0
C1059 C 0.74863 0.4218 0.72161 0.0
C1060 C 0.73863 0.39983 0.70481 0.0
C1061 C 0.73436 0.44646 0.72338 0.0
C1062 C 0.71587 0.40353 0.68733 0.0
C1063 C 0.70178 0.42834 0.68847 0.0
H1064 H 0.97366 0.79507 0.94441 0.0
H1065 H 0.04873 0.81995 0.90448 0.0
H1066 H 0.05002 0.86262 0.93273 0.0
H1067 H 0.0278 0.89453 0.96628 0.0
H1068 H 0.95114 0.87031 0.00298 0.0
H1069 H 0.95268 0.82554 0.97891 0.0
C1070 C 0.99045 0.80968 0.94201 0.0
C1071 C 0.01097 0.80441 0.92226 0.0
C1072 C 0.99079 0.83431 0.95785 0.0
C1073 C 0.03256 0.82361 0.91943 0.0
C1074 C 0.03334 0.848 0.9356 0.0
C1075 C 0.0118 0.87914 0.96936 0.0
C1076 C 0.98946 0.88548 0.98637 0.0
C1077 C 0.01233 0.85378 0.95457 0.0
C1078 C 0.96852 0.86573 0.98992 0.0
C1079 C 0.96934 0.84022 0.97611 0.0
H1080 H 0.9521 0.27381 0.67959 0.0
H1081 H 0.91132 0.26862 0.59785 0.0
H1082 H 0.87268 0.29265 0.61729 0.0
H1083 H 0.84925 0.31212 0.65793 0.0
H1084 H 0.88856 0.31554 0.7405 0.0
H1085 H 0.92943 0.29617 0.71995 0.0
C1086 C 0.93473 0.27788 0.66606 0.0
C1087 C 0.93446 0.26909 0.63741 0.0
C1088 C 0.91251 0.2918 0.67736 0.0
C1089 C 0.91197 0.2749 0.62005 0.0
C1090 C 0.8899 0.2888 0.63109 0.0
C1091 C 0.86694 0.30932 0.67139 0.0
C1092 C 0.86577 0.31522 0.70076 0.0
C1093 C 0.88985 0.29709 0.65975 0.0
C1094 C 0.88891 0.3112 0.71781 0.0
C1095 C 0.91218 0.29983 0.70615 0.0
H1096 H 0.44249 0.22101 0.49491 0.0
H1097 H 0.5157 0.20178 0.44953 0.0
H1098 H 0.53135 0.17469 0.48962 0.0
H1099 H 0.52421 0.15536 0.53605 0.0
H1100 H 0.44926 0.16816 0.58065 0.0
H1101 H 0.43485 0.2 0.54282 0.0
C1102 C 0.46177 0.21073 0.49382 0.0
C1103 C 0.47784 0.21339 0.46918 0.0
C1104 C 0.47057 0.19454 0.51693 0.0
C1105 C 0.50278 0.19996 0.46804 0.0
C1106 C 0.51191 0.18462 0.49108 0.0
C1107 C 0.50473 0.16518 0.5379 0.0
C1108 C 0.48779 0.1592 0.56119 0.0
C1109 C 0.49598 0.18175 0.51549 0.0
C1110 C 0.46277 0.17244 0.56302 0.0
C1111 C 0.4544 0.19036 0.54122 0.0
H1112 H 0.52412 0.69227 0.18687 0.0
H1113 H 0.49789 0.75913 0.24046 0.0
H1114 H 0.5337 0.74914 0.27498 0.0
H1115 H 0.57841 0.72917 0.28292 0.0
H1116 H 0.6056 0.66357 0.22845 0.0
H1117 H 0.56288 0.66435 0.20178 0.0
C1118 C 0.52588 0.70412 0.20651 0.0
C1119 C 0.50915 0.7269 0.21088 0.0
C1120 C 0.54665 0.69845 0.22598 0.0
C1121 C 0.5109 0.74174 0.23659 0.0
C1122 C 0.53141 0.7361 0.25624 0.0
C1123 C 0.57432 0.71418 0.26606 0.0
C1124 C 0.59498 0.69668 0.25717 0.0
C1125 C 0.55029 0.7156 0.25025 0.0
C1126 C 0.5898 0.67717 0.23554 0.0
C1127 C 0.56559 0.67797 0.22002 0.0
H1128 H 0.98404 0.16486 0.57113 0.0
H1129 H 0.07082 0.16782 0.56101 0.0
H1130 H 0.06931 0.12174 0.53938 0.0
H1131 H 0.04359 0.07939 0.52649 0.0
H1132 H 0.9568 0.07679 0.53749 0.0
H1133 H 0.95815 0.12407 0.55544 0.0
C1134 C 0.00262 0.15551 0.56405 0.0
C1135 C 0.0275 0.16958 0.56793 0.0
C1136 C 0.00164 0.12904 0.55186 0.0
C1137 C 0.05138 0.15734 0.55836 0.0
C1138 C 0.05055 0.13098 0.54604 0.0
C1139 C 0.02495 0.08926 0.53251 0.0
C1140 C 0.00021 0.07443 0.53092 0.0
C1141 C 0.02583 0.11645 0.54314 0.0
C1142 C 0.9762 0.0876 0.53873 0.0
C1143 C 0.9769 0.11466 0.54903 0.0
H1144 H 0.56099 0.27684 0.34389 0.0
H1145 H 0.58689 0.22819 0.41604 0.0
H1146 H 0.62974 0.21928 0.3925 0.0
H1147 H 0.65906 0.22388 0.35089 0.0
H1148 H 0.63417 0.27369 0.27927 0.0
H1149 H 0.59152 0.28354 0.30319 0.0
C1150 C 0.57608 0.2644 0.35452 0.0
C1151 C 0.57071 0.25304 0.38158 0.0
C1152 C 0.60069 0.25942 0.34091 0.0
C1153 C 0.59053 0.2372 0.39522 0.0
C1154 C 0.61499 0.23198 0.38173 0.0
C1155 C 0.64426 0.23682 0.34045 0.0
C1156 C 0.64955 0.24777 0.31323 0.0
C1157 C 0.62011 0.2427 0.35446 0.0
C1158 C 0.63046 0.26495 0.3002 0.0
C1159 C 0.60612 0.27057 0.31385 0.0
H1160 H 0.50599 0.83578 0.09634 0.0
H1161 H 0.45544 0.84658 0.17016 0.0
H1162 H 0.45424 0.89631 0.16134 0.0
H1163 H 0.46575 0.93643 0.1314 0.0
H1164 H 0.51565 0.92529 0.05705 0.0
H1165 H 0.51885 0.87608 0.06744 0.0
C1166 C 0.49491 0.84903 0.11065 0.0
C1167 C 0.48075 0.83746 0.13377 0.0
C1168 C 0.494 0.87757 0.10528 0.0
C1169 C 0.46645 0.85493 0.15211 0.0
C1170 C 0.4657 0.88339 0.14707 0.0
C1171 C 0.4774 0.92328 0.11752 0.0
C1172 C 0.49025 0.93458 0.0934 0.0
C1173 C 0.47909 0.89488 0.12349 0.0
C1174 C 0.50538 0.91719 0.07571 0.0
C1175 C 0.50727 0.889 0.08162 0.0
H1176 H 0.94516 0.81077 0.81654 0.0
H1177 H 0.94372 0.72141 0.81209 0.0
H1178 H 0.89865 0.72194 0.79048 0.0
H1179 H 0.85906 0.74765 0.77431 0.0
H1180 H 0.86015 0.83698 0.78005 0.0
H1181 H 0.90596 0.83649 0.79962 0.0
C1182 C 0.93507 0.7914 0.8107 0.0
C1183 C 0.94779 0.76612 0.81596 0.0
C1184 C 0.90904 0.79181 0.79859 0.0
C1185 C 0.93437 0.7412 0.80834 0.0
C1186 C 0.90858 0.74146 0.79599 0.0
C1187 C 0.86936 0.76703 0.77967 0.0
C1188 C 0.85611 0.79228 0.77576 0.0
C1189 C 0.89563 0.76664 0.79122 0.0
C1190 C 0.86977 0.8172 0.78295 0.0
C1191 C 0.89601 0.81697 0.79414 0.0
H1192 H 0.90174 0.04621 0.8381 0.0
H1193 H 0.86804 0.96317 0.83221 0.0
H1194 H 0.88205 0.95409 0.88138 0.0
H1195 H 0.90619 0.96889 0.92478 0.0
H1196 H 0.94037 0.05184 0.93012 0.0
H1197 H 0.92355 0.06183 0.88231 0.0
C1198 C 0.89736 0.02613 0.84757 0.0
C1199 C 0.88415 0.00529 0.83147 0.0
C1200 C 0.90556 0.02103 0.87568 0.0
C1201 C 0.87832 0.97952 0.84415 0.0
C1202 C 0.88634 0.9743 0.87223 0.0
C1203 C 0.90979 0.98924 0.91562 0.0
C1204 C 0.92475 0.00948 0.93093 0.0
C1205 C 0.90032 -0.00521 0.88801 0.0
C1206 C 0.92906 0.0358 0.91876 0.0
C1207 C 0.9195 0.04154 0.89139 0.0
H1208 H 0.79624 0.20468 0.56066 0.0
H1209 H 0.81253 0.14122 0.62293 0.0
H1210 H 0.79859 0.17199 0.66125 0.0
H1211 H 0.77882 0.21515 0.6765 0.0
H1212 H 0.76292 0.27961 0.61525 0.0
H1213 H 0.77904 0.2498 0.57669 0.0
C1214 C 0.7975 0.19794 0.5827 0.0
C1215 C 0.80555 0.17083 0.58909 0.0
C1216 C 0.78863 0.21545 0.60453 0.0
C1217 C 0.80657 0.1621 0.61763 0.0
C1218 C 0.79828 0.17951 0.63945 0.0
C1219 C 0.77842 0.2226 0.65465 0.0
C1220 C 0.76898 0.24925 0.64855 0.0
C1221 C 0.78851 0.20585 0.63301 0.0
C1222 C 0.76958 0.25893 0.62031 0.0
C1223 C 0.77905 0.24203 0.59838 0.0
H1224 H 0.5587 0.00216 0.41043 0.0
H1225 H 0.60616 0.07814 0.40735 0.0
H1226 H 0.59049 0.0906 0.4549 0.0
H1227 H 0.56382 0.07957 0.49757 0.0
H1228 H 0.51595 0.00377 0.50008 0.0
H1229 H 0.53135 0.99164 0.45247 0.0
C1230 C 0.56562 0.02147 0.42012 0.0
C1231 C 0.58364 0.03913 0.40541 0.0
C1232 C 0.55651 0.02853 0.44738 0.0
C1233 C 0.59227 0.06416 0.41821 0.0
C1234 C 0.58337 0.07129 0.44543 0.0
C1235 C 0.55679 0.06037 0.48774 0.0
C1236 C 0.53884 0.04258 0.50245 0.0
C1237 C 0.56559 0.05355 0.46026 0.0
C1238 C 0.52976 0.01788 0.48927 0.0
C1239 C 0.53856 0.01089 0.46203 0.0
H1240 H 0.66921 0.84437 0.09283 0.0
H1241 H 0.71936 0.78283 0.05388 0.0
H1242 H 0.71887 0.75592 0.09794 0.0
H1243 H 0.70738 0.7519 0.14866 0.0
H1244 H 0.65624 0.81264 0.18735 0.0
H1245 H 0.65391 0.83788 0.14219 0.0
C1246 C 0.67975 0.82489 0.09388 0.0
C1247 C 0.69456 0.81578 0.07025 0.0
C1248 C 0.67946 0.80957 0.11929 0.0
C1249 C 0.70784 0.79034 0.07178 0.0
C1250 C 0.70772 0.77501 0.09703 0.0
C1251 C 0.69565 0.77062 0.14714 0.0
C1252 C 0.68235 0.78067 0.17133 0.0
C1253 C 0.69416 0.78479 0.1211 0.0
C1254 C 0.66675 0.80459 0.169 0.0
C1255 C 0.66545 0.81904 0.14323 0.0
H1256 H 0.91948 0.9539 0.69653 0.0
H1257 H 0.95686 0.03545 0.7004 0.0
H1258 H 0.98413 0.02486 0.65881 0.0
H1259 H 0.99102 -0.00397 0.61701 0.0
H1260 H 0.95155 0.91594 0.61013 0.0
H1261 H 0.93192 0.92188 0.65776 0.0
C1262 C 0.93408 0.96907 0.68866 0.0
C1263 C 0.93583 -0.00439 0.70111 0.0
C1264 C 0.94913 0.96312 0.66416 0.0
C1265 C 0.95485 0.01506 0.69083 0.0
C1266 C 0.97045 0.00903 0.66708 0.0
C1267 C 0.97869 0.97957 0.62635 0.0
C1268 C 0.97233 0.95579 0.61024 0.0
C1269 C 0.9668 0.98366 0.65291 0.0
C1270 C 0.95667 0.93438 0.62236 0.0
C1271 C 0.94523 0.93796 0.64937 0.0
H1272 H 0.77813 0.1962 0.47514 0.0
H1273 H 0.75861 0.11177 0.45104 0.0
H1274 H 0.75848 0.12482 0.4008 0.0
H1275 H 0.76127 0.1604 0.36412 0.0
H1276 H 0.78225 0.2447 0.38669 0.0
H1277 H 0.78515 0.23149 0.43729 0.0
C1278 C 0.77386 0.18075 0.45881 0.0
C1279 C 0.768 0.15317 0.46667 0.0
C1280 C 0.77434 0.1883 0.42986 0.0
C1281 C 0.76304 0.13315 0.44543 0.0
C1282 C 0.76299 0.14057 0.41675 0.0
C1283 C 0.76683 0.1758 0.38013 0.0
C1284 C 0.77134 0.20345 0.37198 0.0
C1285 C 0.7683 0.16808 0.4088 0.0
C1286 C 0.77885 0.22324 0.39265 0.0
C1287 C 0.78022 0.21573 0.4215 0.0
H1288 H 0.57495 0.03992 0.25571 0.0
H1289 H 0.50073 0.00013 0.28344 0.0
H1290 H 0.47834 0.01379 0.23901 0.0
H1291 H 0.48143 0.03277 0.19054 0.0
H1292 H 0.55592 0.07235 0.16292 0.0
H1293 H 0.57637 0.06371 0.2095 0.0
C1294 C 0.55381 0.03437 0.2521 0.0
C1295 C 0.53962 0.01858 0.27255 0.0
C1296 C 0.5411 0.04237 0.22664 0.0
C1297 C 0.51212 0.01208 0.2679 0.0
C1298 C 0.49934 0.01987 0.24251 0.0
C1299 C 0.50198 0.03999 0.19481 0.0
C1300 C 0.51722 0.0528 0.173 0.0
C1301 C 0.51383 0.03446 0.22147 0.0
C1302 C 0.54371 0.06231 0.17916 0.0
C1303 C 0.55554 0.05717 0.20575 0.0
H1304 H 0.7347 0.87464 0.93273 0.0
H1305 H 0.66029 0.82632 0.93457 0.0
H1306 H 0.66714 0.81224 0.88501 0.0
H1307 H 0.69477 0.81311 0.84148 0.0
H1308 H 0.7689 0.86211 0.84013 0.0
H1309 H 0.76145 0.87658 0.88918 0.0
C1310 C 0.71997 0.86097 0.92236 0.0
C1311 C 0.6971 0.8514 0.93739 0.0
C1312 C 0.72393 0.85315 0.89391 0.0
C1313 C 0.6781 0.83394 0.9235 0.0
C1314 C 0.682 0.82589 0.89516 0.0
C1315 C 0.70924 0.82706 0.85184 0.0
C1316 C 0.73241 0.8364 0.83707 0.0
C1317 C 0.7049 0.83532 0.88018 0.0
C1318 C 0.75089 0.85453 0.8509 0.0
C1319 C 0.74671 0.86281 0.87901 0.0
H1320 H 0.78142 0.93184 0.05948 0.0
H1321 H 0.80876 0.85221 0.03052 0.0
H1322 H 0.85565 0.86727 0.03743 0.0
H1323 H 0.88863 0.90477 0.04546 0.0
H1324 H 0.86241 0.98457 0.07424 0.0
H1325 H 0.8152 0.96759 0.07435 0.0
C1326 C 0.79766 0.91771 0.05501 0.0
C1327 C 0.79166 0.89116 0.04392 0.0
C1328 C 0.82468 0.92651 0.05903 0.0
C1329 C 0.81283 0.87286 0.03875 0.0
C1330 C 0.83967 0.88143 0.04268 0.0
C1331 C 0.87258 0.91818 0.05244 0.0
C1332 C 0.87866 0.94582 0.0596 0.0
C1333 C 0.84577 0.90844 0.05194 0.0
C1334 C 0.858 0.96313 0.06881 0.0
C1335 C 0.83107 0.95351 0.06854 0.0
H1336 H 0.3377 0.55432 0.97737 0.0
H1337 H 0.33813 0.57046 0.06806 0.0
H1338 H 0.38098 0.5467 0.07309 0.0
H1339 H 0.42012 0.52619 0.0513 0.0
H1340 H 0.42242 0.51292 0.96024 0.0
H1341 H 0.37615 0.53009 0.9558 0.0
C1342 C 0.347 0.55224 -0.00173 0.0
C1343 C 0.33498 0.56434 0.0223 0.0
C1344 C 0.37204 0.5392 0.00088 0.0
C1345 C 0.3472 0.56159 0.04924 0.0
C1346 C 0.37165 0.54799 0.05213 0.0
C1347 C 0.41049 0.52679 0.03043 0.0
C1348 C 0.42483 0.51879 0.00604 0.0
C1349 C 0.38455 0.53749 0.028 0.0
C1350 C 0.41182 0.5191 0.9793 0.0
C1351 C 0.38548 0.5291 0.97677 0.0
H1352 H 0.20104 0.53173 0.67256 0.0
H1353 H 0.20931 0.51434 0.76266 0.0
H1354 H 0.23222 0.55879 0.77001 0.0
H1355 H 0.24619 0.60389 0.75203 0.0
H1356 H 0.23866 0.62264 0.6624 0.0
H1357 H 0.21933 0.57608 0.65356 0.0
C1358 C 0.20819 0.53753 0.69371 0.0
C1359 C 0.2031 0.51991 0.71709 0.0
C1360 C 0.22121 0.56336 0.69791 0.0
C1361 C 0.21267 0.52761 0.74434 0.0
C1362 C 0.22575 0.55305 0.74861 0.0
C1363 C 0.24038 0.59778 0.7305 0.0
C1364 C 0.24326 0.61669 0.70796 0.0
C1365 C 0.22944 0.57131 0.72573 0.0
C1366 C 0.23639 0.60837 0.68009 0.0
C1367 C 0.22531 0.58185 0.67509 0.0
H1368 H 0.18326 0.44052 0.47716 0.0
H1369 H 0.14823 0.36465 0.44331 0.0
H1370 H 0.10417 0.38664 0.43921 0.0
H1371 H 0.07507 0.42619 0.449 0.0
H1372 H 0.11052 0.50175 0.48344 0.0
H1373 H 0.15511 0.48112 0.48307 0.0
C1374 C 0.16602 0.42879 0.46877 0.0
C1375 C 0.16889 0.40088 0.46096 0.0
C1376 C 0.14086 0.4415 0.46652 0.0
C1377 C 0.14649 0.38612 0.44964 0.0
C1378 C 0.1213 0.39867 0.44732 0.0
C1379 C 0.09258 0.43834 0.45601 0.0
C1380 C 0.08933 0.4654 0.46654 0.0
C1381 C 0.11817 0.4262 0.45619 0.0
C1382 C 0.11233 0.48082 0.47542 0.0
C1383 C 0.13786 0.46901 0.47533 0.0
H1384 H 0.83858 0.96996 0.66958 0.0
H1385 H 0.79649 0.0022 0.74251 0.0
H1386 H 0.76797 0.96056 0.74432 0.0
H1387 H 0.76164 0.91196 0.73145 0.0
H1388 H 0.80455 0.8781 0.66014 0.0
H1389 H 0.82586 0.92356 0.65096 0.0
C1390 C 0.82258 0.96819 0.68525 0.0
C1391 C 0.81996 0.98872 0.70629 0.0
C1392 C 0.80677 0.94376 0.68673 0.0
C1393 C 0.79914 0.98634 0.72644 0.0
C1394 C 0.78289 0.96254 0.72755 0.0
C1395 C 0.77516 0.9148 0.71346 0.0
C1396 C 0.78207 0.89194 0.6968 0.0
C1397 C 0.78758 0.94059 0.70882 0.0
C1398 C 0.79915 0.89561 0.67327 0.0
C1399 C 0.81144 0.92148 0.66819 0.0
H1400 H 0.70369 0.07488 0.59492 0.0
H1401 H 0.69174 0.16183 0.57898 0.0
H1402 H 0.646 0.15808 0.59816 0.0
H1403 H 0.60784 0.12885 0.61354 0.0
H1404 H 0.61941 0.04197 0.62978 0.0
H1405 H 0.6673 0.04708 0.61742 0.0
C1406 C 0.69107 0.093 0.59586 0.0
C1407 C 0.70067 0.11842 0.58497 0.0
C1408 C 0.66494 0.09075 0.60718 0.0
C1409 C 0.68456 0.14197 0.58695 0.0
C1410 C 0.65847 0.13985 0.59793 0.0
C1411 C 0.62106 0.11122 0.61509 0.0
C1412 C 0.61021 0.08504 0.62212 0.0
C1413 C 0.64823 0.1142 0.60734 0.0
C1414 C 0.62743 0.06235 0.62446 0.0
C1415 C 0.65468 0.06519 0.61701 0.0
H1416 H 0.21231 0.37456 0.78109 0.0
H1417 H 0.18692 0.38164 0.69297 0.0
H1418 H 0.21062 0.33955 0.68123 0.0
H1419 H 0.23657 0.3002 0.69584 0.0
H1420 H 0.26073 0.29027 0.78395 0.0
H1421 H 0.23988 0.33455 0.79574 0.0
C1422 C 0.21207 0.3669 0.75932 0.0
C1423 C 0.19772 0.38113 0.73797 0.0
C1424 C 0.22556 0.34237 0.75269 0.0
C1425 C 0.19759 0.37099 0.70986 0.0
C1426 C 0.21122 0.34697 0.70308 0.0
C1427 C 0.23751 0.30761 0.7177 0.0
C1428 C 0.25006 0.29178 0.73904 0.0
C1429 C 0.22499 0.33242 0.72434 0.0
C1430 C 0.25118 0.30202 0.76712 0.0
C1431 C 0.23914 0.32724 0.77387 0.0
H1432 H 0.28684 0.59293 0.26514 0.0
H1433 H 0.35335 0.62294 0.31767 0.0
H1434 H 0.32976 0.6661 0.32601 0.0
H1435 H 0.29327 0.69721 0.31333 0.0
H1436 H 0.22756 0.668 0.25918 0.0
H1437 H 0.24741 0.62216 0.25745 0.0
C1438 C 0.29609 0.60884 0.27858 0.0
C1439 C 0.32204 0.60506 0.29025 0.0
C1440 C 0.28251 0.63363 0.28315 0.0
C1441 C 0.33352 0.62553 0.30815 0.0
C1442 C 0.32004 0.65019 0.31296 0.0
C1443 C 0.28295 0.6807 0.3016 0.0
C1444 C 0.2593 0.68621 0.28588 0.0
C1445 C 0.29493 0.65475 0.29986 0.0
C1446 C 0.24593 0.66442 0.27127 0.0
C1447 C 0.25741 0.63826 0.27003 0.0
H1448 H 0.49758 0.7154 0.52897 0.0
H1449 H 0.42218 0.71955 0.57462 0.0
H1450 H 0.41081 0.67205 0.56082 0.0
H1451 H 0.42578 0.62728 0.54253 0.0
H1452 H 0.50104 0.62298 0.49671 0.0
H1453 H 0.50879 0.67266 0.50347 0.0
C1454 C 0.47836 0.7061 0.53525 0.0
C1455 C 0.461 0.72074 0.55316 0.0
C1456 C 0.47209 0.67864 0.52756 0.0
C1457 C 0.43597 0.70868 0.56088 0.0
C1458 C 0.42954 0.68141 0.55322 0.0
C1459 C 0.44363 0.63735 0.53361 0.0
C1460 C 0.46308 0.62149 0.51969 0.0
C1461 C 0.448 0.66585 0.53765 0.0
C1462 C 0.48585 0.63478 0.50769 0.0
C1463 C 0.49037 0.66315 0.51166 0.0
H1464 H 0.58483 0.27793 0.81743 0.0
H1465 H 0.60345 0.19097 0.81939 0.0
H1466 H 0.64541 0.20046 0.7934 0.0
H1467 H 0.67824 0.23406 0.7729 0.0
H1468 H 0.65932 0.32103 0.77243 0.0
H1469 H 0.61595 0.31081 0.7948 0.0
C1470 C 0.59796 0.26097 0.8121 0.0
C1471 C 0.5911 0.23381 0.82061 0.0
C1472 C 0.62206 0.26658 0.79739 0.0
C1473 C 0.60828 0.2121 0.81323 0.0
C1474 C 0.6323 0.21752 0.79838 0.0
C1475 C 0.66445 0.25071 0.77732 0.0
C1476 C 0.67214 0.2783 0.77114 0.0
C1477 C 0.6396 0.24475 0.7907 0.0
C1478 C 0.65406 0.29964 0.77713 0.0
C1479 C 0.62923 0.29383 0.78998 0.0
H1480 H 0.05353 0.29282 0.07571 0.0
H1481 H 0.00998 0.32617 0.14707 0.0
H1482 H 0.01487 0.37276 0.12733 0.0
H1483 H 0.02987 0.40369 0.089 0.0
H1484 H 0.06947 0.37017 0.01529 0.0
H1485 H 0.06828 0.32393 0.03694 0.0
C1486 C 0.04518 0.31032 0.08693 0.0
C1487 C 0.03138 0.3061 0.11276 0.0
C1488 C 0.04759 0.33697 0.07517 0.0
C1489 C 0.02048 0.32888 0.12702 0.0
C1490 C 0.0234 0.35553 0.11585 0.0
C1491 C 0.03871 0.38633 0.07795 0.0
C1492 C 0.05012 0.39025 0.05085 0.0
C1493 C 0.0368 0.35978 0.08989 0.0
C1494 C 0.06082 0.36755 0.03632 0.0
C1495 C 0.05999 0.34117 0.0486 0.0
H1496 H 0.89188 0.74407 0.27655 0.0
H1497 H 0.87759 0.75303 0.36692 0.0
H1498 H 0.82985 0.76071 0.3577 0.0
H1499 H 0.79168 0.76163 0.32469 0.0
H1500 H 0.8048 0.75093 0.23436 0.0
H1501 H 0.8535 0.74783 0.24287 0.0
C1502 C 0.87832 0.74783 0.29418 0.0
C1503 C 0.88827 0.74765 0.32238 0.0
C1504 C 0.85069 0.75206 0.28878 0.0
C1505 C 0.87048 0.75276 0.345 0.0
C1506 C 0.84314 0.75725 0.33978 0.0
C1507 C 0.80516 0.75907 0.30674 0.0
C1508 C 0.79452 0.75633 0.27897 0.0
C1509 C 0.83296 0.75654 0.31183 0.0
C1510 C 0.8124 0.753 0.25602 0.0
C1511 C 0.84026 0.75107 0.26087 0.0
H1512 H 0.53715 0.30631 0.96858 0.0
H1513 H 0.50153 0.33557 0.89002 0.0
H1514 H 0.49354 0.38044 0.912 0.0
H1515 H 0.49827 0.41185 0.9526 0.0
H1516 H 0.53426 0.38321 0.03123 0.0
H1517 H 0.54006 0.3374 0.01018 0.0
C1518 C 0.52764 0.3225 0.95626 0.0
C1519 C 0.52016 0.31765 0.92762 0.0
C1520 C 0.52302 0.34829 0.96905 0.0
C1521 C 0.5076 0.33876 0.91206 0.0
C1522 C 0.50298 0.36443 0.92461 0.0
C1523 C 0.50718 0.39558 0.96532 0.0
C1524 C 0.51595 0.40109 0.99344 0.0
C1525 C 0.5108 0.36947 0.95299 0.0
C1526 C 0.52733 0.37961 0.00954 0.0
C1527 C 0.53079 0.35343 -0.00254 0.0
H1528 H 0.91334 0.20304 0.16666 0.0
H1529 H 0.94923 0.24849 0.2371 0.0
H1530 H 0.90692 0.2436 0.26384 0.0
H1531 H 0.85876 0.22967 0.26516 0.0
H1532 H 0.82356 0.18404 0.19418 0.0
H1533 H 0.86691 0.18536 0.16985 0.0
C1534 C 0.91194 0.21182 0.18791 0.0
C1535 C 0.93409 0.22653 0.19976 0.0
C1536 C 0.88777 0.20883 0.20303 0.0
C1537 C 0.93229 0.23725 0.22753 0.0
C1538 C 0.90814 0.23448 0.24275 0.0
C1539 C 0.86063 0.21965 0.24456 0.0
C1540 C 0.83779 0.20712 0.23137 0.0
C1541 C 0.88559 0.22075 0.23045 0.0
C1542 C 0.8407 0.19404 0.20477 0.0
C1543 C 0.86547 0.19487 0.19074 0.0
H1544 H 0.03747 0.66852 0.38866 0.0
H1545 H 0.95006 0.67011 0.38463 0.0
H1546 H 0.9471 0.6345 0.42103 0.0
H1547 H 0.96865 0.60112 0.45144 0.0
H1548 H 0.0557 0.59575 0.45427 0.0
H1549 H 0.05953 0.63547 0.42167 0.0
C1550 C 0.01781 0.66107 0.39583 0.0
C1551 C 0.99403 0.67173 0.38366 0.0
C1552 C 0.01618 0.64021 0.41672 0.0
C1553 C 0.96869 0.66204 0.39329 0.0
C1554 C 0.96694 0.64177 0.41426 0.0
C1555 C 0.98856 0.6087 0.44517 0.0
C1556 C 0.01185 0.5953 0.45493 0.0
C1557 C 0.99049 0.63049 0.42575 0.0
C1558 C 0.03746 0.60576 0.44705 0.0
C1559 C 0.03961 0.62823 0.42818 0.0
H1560 H 0.5723 0.78121 0.6617 0.0
H1561 H 0.60883 0.80836 0.5829 0.0
H1562 H 0.65131 0.81901 0.60832 0.0
H1563 H 0.67824 0.81858 0.65253 0.0
H1564 H 0.64091 0.79198 0.73131 0.0
H1565 H 0.59813 0.78379 0.70623 0.0
C1566 C 0.58962 0.78927 0.65002 0.0
C1567 C 0.58773 0.79349 0.62041 0.0
C1568 C 0.6136 0.79577 0.66479 0.0
C1569 C 0.61001 0.80467 0.60567 0.0
C1570 C 0.6342 0.81084 0.6202 0.0
C1571 C 0.66069 0.81134 0.66434 0.0
C1572 C 0.6629 0.80566 0.69374 0.0
C1573 C 0.63623 0.80629 0.64974 0.0
C1574 C 0.63985 0.79646 0.70868 0.0
C1575 C 0.61541 0.79157 0.69433 0.0
H1576 H 0.55797 0.51007 0.70484 0.0
H1577 H 0.54888 0.59869 0.70111 0.0
H1578 H 0.51185 0.59284 0.66648 0.0
H1579 H 0.48676 0.56278 0.63268 0.0
H1580 H 0.49746 0.47425 0.63571 0.0
H1581 H 0.52873 0.4798 0.67585 0.0
C1582 C 0.54772 0.52811 0.69664 0.0
C1583 C 0.55646 0.55478 0.70495 0.0
C1584 C 0.52673 0.52458 0.67671 0.0
C1585 C 0.54264 0.57795 0.69475 0.0
C1586 C 0.52152 0.5746 0.67495 0.0
C1587 C 0.49534 0.54464 0.64263 0.0
C1588 C 0.49015 0.51818 0.63095 0.0
C1589 C 0.51399 0.54804 0.66513 0.0
C1590 C 0.5014 0.49487 0.64409 0.0
C1591 C 0.5194 0.49803 0.66693 0.0
H1592 H 0.80797 0.38569 0.93278 0.0
H1593 H 0.72518 0.35887 0.94579 0.0
H1594 H 0.72122 0.34544 0.89559 0.0
H1595 H 0.74175 0.33981 0.84881 0.0
H1596 H 0.82578 0.3622 0.83638 0.0
H1597 H 0.82897 0.379 0.88574 0.0
C1598 C 0.78904 0.37713 0.92444 0.0
C1599 C 0.76681 0.37339 0.94262 0.0
C1600 C 0.78724 0.36862 0.89587 0.0
C1601 C 0.7425 0.36184 0.93198 0.0
C1602 C 0.74024 0.35421 0.90338 0.0
C1603 C 0.76069 0.34863 0.85684 0.0
C1604 C 0.78345 0.35007 0.8391 0.0
C1605 C 0.76254 0.35731 0.88525 0.0
C1606 C 0.80803 0.36096 0.8498 0.0
C1607 C 0.80983 0.37055 0.87792 0.0
H1608 H 0.9458 0.51305 0.19549 0.0
H1609 H 0.87214 0.51551 0.14548 0.0
H1610 H 0.89842 0.51687 0.10162 0.0
H1611 H 0.94171 0.51391 0.07758 0.0
H1612 H 0.01556 0.50812 0.12687 0.0
H1613 H 0.98975 0.51191 0.17106 0.0
C1614 C 0.93555 0.5142 0.17499 0.0
C1615 C 0.9071 0.51404 0.17367 0.0
C1616 C 0.95077 0.51433 0.14981 0.0
C1617 C 0.89403 0.51537 0.147 0.0
C1618 C 0.90903 0.5162 0.12194 0.0
C1619 C 0.95231 0.51389 0.09794 0.0
C1620 C 0.98053 0.5107 0.09892 0.0
C1621 C 0.93734 0.5152 0.1231 0.0
C1622 C 0.99383 0.51049 0.12554 0.0
C1623 C 0.97909 0.51257 0.15079 0.0
H1624 H 0.72898 0.6526 0.46137 0.0
H1625 H 0.70351 0.57532 0.42213 0.0
H1626 H 0.69347 0.59955 0.37771 0.0
H1627 H 0.69198 0.64252 0.35008 0.0
H1628 H 0.71766 0.71979 0.38927 0.0
H1629 H 0.72733 0.69561 0.43378 0.0
C1630 C 0.72135 0.641 0.44308 0.0
C1631 C 0.71708 0.61217 0.44506 0.0
C1632 C 0.71547 0.65505 0.41767 0.0
C1633 C 0.70704 0.59752 0.42118 0.0
C1634 C 0.70122 0.61136 0.39578 0.0
C1635 C 0.69953 0.65416 0.36838 0.0
C1636 C 0.70403 0.68296 0.36629 0.0
C1637 C 0.70529 0.64012 0.39383 0.0
C1638 C 0.71398 0.69761 0.39023 0.0
C1639 C 0.71959 0.68381 0.4157 0.0
H1640 H 0.58391 0.51836 0.82348 0.0
H1641 H 0.65782 0.55226 0.86025 0.0
H1642 H 0.63911 0.54672 0.90807 0.0
H1643 H 0.6016 0.533 0.93918 0.0
H1644 H 0.52742 0.4998 0.90222 0.0
H1645 H 0.54651 0.50449 0.85458 0.0
C1646 C 0.59601 0.52442 0.84195 0.0
C1647 C 0.62222 0.53569 0.83833 0.0
C1648 C 0.58506 0.52146 0.86928 0.0
C1649 C 0.63757 0.54355 0.86246 0.0
C1650 C 0.62688 0.54042 0.8898 0.0
C1651 C 0.58955 0.52678 0.92074 0.0
C1652 C 0.56309 0.5161 0.92432 0.0
C1653 C 0.6006 0.52955 0.89342 0.0
C1654 C 0.54782 0.50816 0.90013 0.0
C1655 C 0.55872 0.51077 0.87286 0.0
H1656 H 0.71574 0.32262 0.09123 0.0
H1657 H 0.77645 0.26703 0.06067 0.0
H1658 H 0.76689 0.2354 0.10024 0.0
H1659 H 0.74634 0.2275 0.14716 0.0
H1660 H 0.6867 0.28422 0.1782 0.0
H1661 H 0.6903 0.31104 0.13434 0.0
C1662 C 0.72663 0.30339 0.09302 0.0
C1663 C 0.74718 0.29743 0.0735 0.0
C1664 C 0.72125 0.28554 0.11591 0.0
C1665 C 0.76072 0.2722 0.07564 0.0
C1666 C 0.75531 0.25415 0.09829 0.0
C1667 C 0.73358 0.24529 0.14406 0.0
C1668 C 0.71672 0.25417 0.16623 0.0
C1669 C 0.73632 0.26114 0.11911 0.0
C1670 C 0.70016 0.27714 0.16168 0.0
C1671 C 0.70231 0.29262 0.13666 0.0
H1672 H 0.91649 0.4489 0.30338 0.0
H1673 H 0.87851 0.52812 0.31381 0.0
H1674 H 0.90074 0.53417 0.36 0.0
H1675 H 0.93013 0.51697 0.39741 0.0
H1676 H 0.96856 0.43792 0.38786 0.0
H1677 H 0.94683 0.43183 0.34109 0.0
C1678 C 0.91314 0.46753 0.31571 0.0
C1679 C 0.89582 0.488 0.30519 0.0
C1680 C 0.92594 0.47087 0.34235 0.0
C1681 C 0.8917 0.51201 0.32142 0.0
C1682 C 0.90438 0.5155 0.34785 0.0
C1683 C 0.9338 0.49832 0.38522 0.0
C1684 C 0.95087 0.47787 0.3962 0.0
C1685 C 0.92138 0.49502 0.35853 0.0
C1686 C 0.95547 0.45397 0.37993 0.0
C1687 C 0.94307 0.45048 0.35321 0.0
H1688 H 0.76537 0.64962 0.59768 0.0
H1689 H 0.70476 0.69867 0.55571 0.0
H1690 H 0.71701 0.73827 0.58592 0.0
H1691 H 0.74288 0.75793 0.62602 0.0
H1692 H 0.80272 0.70857 0.66888 0.0
H1693 H 0.79332 0.67036 0.63589 0.0
C1694 C 0.75479 0.66896 0.59516 0.0
C1695 C 0.73394 0.67108 0.57471 0.0
C1696 C 0.76204 0.69169 0.61247 0.0
C1697 C 0.72074 0.69641 0.57144 0.0
C1698 C 0.7278 0.7191 0.58862 0.0
C1699 C 0.75434 0.73908 0.62781 0.0
C1700 C 0.77343 0.73615 0.65 0.0
C1701 C 0.74825 0.71689 0.60936 0.0
C1702 C 0.78791 0.71142 0.65203 0.0
C1703 C 0.78238 0.68945 0.63332 0.0
H1704 H 0.6557 0.56021 0.50883 0.0
H1705 H 0.65694 0.53016 0.59562 0.0
H1706 H 0.61049 0.51241 0.58992 0.0
H1707 H 0.56874 0.50835 0.56138 0.0
H1708 H 0.56695 0.54093 0.47559 0.0
H1709 H 0.6147 0.55457 0.47978 0.0
C1710 C 0.64596 0.54958 0.5265 0.0
C1711 C 0.65977 0.54664 0.5527 0.0
C1712 C 0.61917 0.53993 0.52324 0.0
C1713 C 0.64675 0.53282 0.57529 0.0
C1714 C 0.6202 0.52267 0.57203 0.0
C1715 C 0.57887 0.51805 0.54341 0.0
C1716 C 0.56427 0.52361 0.51817 0.0
C1717 C 0.6061 0.5265 0.54624 0.0
C1718 C 0.57768 0.53647 0.49525 0.0
C1719 C 0.60496 0.54433 0.49766 0.0
H1720 H 0.17273 0.90128 0.56423 0.0
H1721 H 0.20383 0.97823 0.52937 0.0
H1722 H 0.15777 -0.00562 0.52237 0.0
H1723 H 0.10889 0.98489 0.52214 0.0
H1724 H 0.07801 0.90724 0.5557 0.0
H1725 H 0.12388 0.89322 0.56726 0.0
C1726 C 0.16948 0.92174 0.55544 0.0
C1727 C 0.19165 0.93838 0.54702 0.0
C1728 C 0.143 0.93067 0.55095 0.0
C1729 C 0.18708 0.9649 0.53582 0.0
C1730 C 0.16075 0.97414 0.53172 0.0
C1731 C 0.11213 0.96498 0.53217 0.0
C1732 C 0.09004 0.94703 0.53768 0.0
C1733 C 0.13858 0.95689 0.53852 0.0
C1734 C 0.09464 0.9214 0.55095 0.0
C1735 C 0.12088 0.91333 0.5576 0.0
H1736 H 0.39345 0.87201 0.80972 0.0
H1737 H 0.32329 0.91831 0.78426 0.0
H1738 H 0.29857 0.87554 0.7738 0.0
H1739 H 0.29693 0.82542 0.77048 0.0
H1740 H 0.36652 0.77806 0.79519 0.0
H1741 H 0.39121 0.82085 0.80765 0.0
C1742 C 0.37276 0.8727 0.80191 0.0
C1743 C 0.36035 0.89836 0.79768 0.0
C1744 C 0.35847 0.84789 0.79588 0.0
C1745 C 0.33344 0.89889 0.78768 0.0
C1746 C 0.3192 0.87442 0.78169 0.0
C1747 C 0.31746 0.82433 0.77872 0.0
C1748 C 0.32986 0.79857 0.78175 0.0
C1749 C 0.33155 0.84887 0.78554 0.0
C1750 C 0.35645 0.79764 0.79263 0.0
C1751 C 0.37063 0.8221 0.79966 0.0
H1752 H 0.30328 0.05258 0.03991 0.0
H1753 H 0.32173 0.14042 0.03836 0.0
H1754 H 0.36155 0.13344 0.06796 0.0
H1755 H 0.39421 0.10222 0.08861 0.0
H1756 H 0.37878 0.01402 0.0873 0.0
H1757 H 0.33413 0.02137 0.06589 0.0
C1758 C 0.31595 0.07016 0.04624 0.0
C1759 C 0.30993 0.09687 0.03633 0.0
C1760 C 0.3392 0.06598 0.06307 0.0
C1761 C 0.32627 0.11954 0.04505 0.0
C1762 C 0.34895 0.11563 0.06221 0.0
C1763 C 0.38077 0.08463 0.08436 0.0
C1764 C 0.38991 0.05765 0.08908 0.0
C1765 C 0.35602 0.08891 0.0706 0.0
C1766 C 0.3722 0.03504 0.08388 0.0
C1767 C 0.34686 0.03921 0.07117 0.0
H1768 H 0.66051 0.62347 0.76992 0.0
H1769 H 0.71028 0.60074 0.69851 0.0
H1770 H 0.73929 0.64152 0.70671 0.0
H1771 H 0.74874 0.68489 0.73219 0.0
H1772 H 0.69687 0.70969 0.80092 0.0
H1773 H 0.67084 0.66618 0.7964 0.0
C1774 C 0.67772 0.6274 0.75615 0.0
C1775 C 0.68312 0.60923 0.73351 0.0
C1776 C 0.69414 0.65095 0.76084 0.0
C1777 C 0.70552 0.61457 0.71591 0.0
C1778 C 0.72222 0.63776 0.7207 0.0
C1779 C 0.73223 0.68038 0.74673 0.0
C1780 C 0.72487 0.70014 0.76713 0.0
C1781 C 0.71659 0.65616 0.74296 0.0
C1782 C 0.70298 0.69453 0.78529 0.0
C1783 C 0.68798 0.66986 0.78249 0.0
H1784 H 0.86273 0.36199 0.98961 0.0
H1785 H 0.8391 0.417 0.05747 0.0
H1786 H 0.88013 0.44477 0.05077 0.0
H1787 H 0.92159 0.45444 0.025 0.0
H1788 H 0.94736 0.39921 0.95849 0.0
H1789 H 0.90623 0.37059 0.96506 0.0
C1790 C 0.86675 0.37983 0.00318 0.0
C1791 C 0.84778 0.38748 0.0239 0.0
C1792 C 0.89041 0.3959 -0.00088 0.0
C1793 C 0.85327 0.41069 0.04129 0.0
C1794 C 0.87667 0.42669 0.03739 0.0
C1795 C 0.91811 0.43634 0.01162 0.0
C1796 C 0.93715 0.42922 0.99087 0.0
C1797 C 0.89507 0.41975 0.01609 0.0
C1798 C 0.93276 0.40525 0.97435 0.0
C1799 C 0.90937 0.38885 0.97823 0.0
H1800 H 0.32394 0.013 0.72891 0.0
H1801 H 0.40509 0.0469 0.72424 0.0
H1802 H 0.38947 0.08413 0.6931 0.0
H1803 H 0.35115 0.11178 0.67665 0.0
H1804 H 0.26997 0.07739 0.68154 0.0
H1805 H 0.28737 0.0348 0.70167 0.0
C1806 C 0.33819 0.02824 0.72047 0.0
C1807 C 0.36532 0.02794 0.72926 0.0
C1808 C 0.32909 0.04937 0.70256 0.0
C1809 C 0.38397 0.04716 0.71786 0.0
C1810 C 0.37505 0.0684 0.70013 0.0
C1811 C 0.33734 0.09459 0.68103 0.0
C1812 C 0.30921 0.09822 0.67884 0.0
C1813 C 0.3474 0.07047 0.69356 0.0
C1814 C 0.29168 0.07544 0.68386 0.0
C1815 C 0.30157 0.05115 0.69568 0.0
H1816 H 0.20485 0.98359 0.26862 0.0
H1817 H 0.18906 0.98094 0.17799 0.0
H1818 H 0.20991 0.93548 0.17498 0.0
H1819 H 0.22601 0.8936 0.19974 0.0
H1820 H 0.23931 0.89647 0.29085 0.0
H1821 H 0.22644 0.94484 0.29199 0.0
C1822 C 0.20635 0.97325 0.24813 0.0
C1823 C 0.195 0.98521 0.22371 0.0
C1824 C 0.21774 0.94704 0.2467 0.0
C1825 C 0.19752 0.97195 0.19717 0.0
C1826 C 0.2093 0.94591 0.19546 0.0
C1827 C 0.22668 0.9051 0.21964 0.0
C1828 C 0.23305 0.89151 0.24522 0.0
C1829 C 0.21851 0.93279 0.2203 0.0
C1830 C 0.23395 0.90649 0.27096 0.0
C1831 C 0.2266 0.9341 0.27166 0.0
H1832 H 0.49253 0.32975 0.45791 0.0
H1833 H 0.40994 0.33554 0.42796 0.0
H1834 H 0.4029 0.37467 0.45991 0.0
H1835 H 0.42128 0.40937 0.49285 0.0
H1836 H 0.50442 0.40512 0.5214 0.0
H1837 H 0.50984 0.36241 0.49416 0.0
C1838 C 0.47296 0.33954 0.45838 0.0
C1839 C 0.45191 0.33009 0.44023 0.0
C1840 C 0.46908 0.36202 0.47673 0.0
C1841 C 0.42655 0.34263 0.44149 0.0
C1842 C 0.42248 0.36493 0.4598 0.0
C1843 C 0.44052 0.39894 0.49353 0.0
C1844 C 0.46255 0.41068 0.50879 0.0
C1845 C 0.44376 0.37507 0.47708 0.0
C1846 C 0.48717 0.3966 0.50976 0.0
C1847 C 0.49036 0.37234 0.49394 0.0
H1848 H 0.40492 0.77347 0.14192 0.0
H1849 H 0.40732 0.69325 0.18255 0.0
H1850 H 0.37072 0.70651 0.21429 0.0
H1851 H 0.33901 0.74134 0.23122 0.0
H1852 H 0.33648 0.82119 0.19005 0.0
H1853 H 0.37306 0.80786 0.15828 0.0
C1854 C 0.39729 0.75869 0.15747 0.0
C1855 C 0.40889 0.73239 0.15985 0.0
C1856 C 0.37678 0.76665 0.17601 0.0
C1857 C 0.39869 0.71357 0.18016 0.0
C1858 C 0.37796 0.72124 0.19851 0.0
C1859 C 0.34685 0.75601 0.21567 0.0
C1860 C 0.33543 0.78236 0.21322 0.0
C1861 C 0.36722 0.74789 0.19694 0.0
C1862 C 0.34522 0.80091 0.19248 0.0
C1863 C 0.3659 0.79321 0.17417 0.0
H1864 H 0.96098 0.65559 0.90933 0.0
H1865 H 0.04623 0.67674 0.91597 0.0
H1866 H 0.05422 0.63436 0.94227 0.0
H1867 H 0.03792 0.59056 0.9612 0.0
H1868 H 0.95313 0.56798 0.95551 0.0
H1869 H 0.94398 0.61192 0.93123 0.0
C1870 C 0.98125 0.65098 0.9167 0.0
C1871 C 0.003 0.66923 0.9104 0.0
C1872 C 0.98582 0.62636 0.93187 0.0
C1873 C 0.02912 0.66304 0.92028 0.0
C1874 C 0.03377 0.63878 0.93535 0.0
C1875 C 0.01737 0.59516 0.95468 0.0
C1876 C -0.00372 0.5759 0.95975 0.0
C1877 C 0.01238 0.62016 0.94084 0.0
C1878 C 0.96972 0.58247 0.95171 0.0
C1879 C 0.96453 0.60752 0.93778 0.0
H1880 H 0.08024 0.16736 0.66209 0.0
H1881 H 0.08362 0.25611 0.67403 0.0
H1882 H 0.13115 0.25383 0.68768 0.0
H1883 H 0.17228 0.2276 0.69217 0.0
H1884 H 0.17046 0.13901 0.67971 0.0
H1885 H 0.12151 0.14021 0.67044 0.0
C1886 C 0.09128 0.18611 0.66817 0.0
C1887 C 0.07851 0.21192 0.66681 0.0
C1888 C 0.11884 0.18473 0.67551 0.0
C1889 C 0.09305 0.23605 0.67467 0.0
C1890 C 0.12024 0.23479 0.68241 0.0
C1891 C 0.16124 0.20847 0.68744 0.0
C1892 C 0.17499 0.18331 0.68606 0.0
C1893 C 0.13344 0.20938 0.68213 0.0
C1894 C 0.16029 0.15866 0.68064 0.0
C1895 C 0.13237 0.15937 0.67532 0.0
H1896 H 0.53674 0.69979 0.07156 0.0
H1897 H 0.45948 0.69676 0.02786 0.0
H1898 H 0.47062 0.6522 0.00687 0.0
H1899 H 0.49817 0.61061 0.00884 0.0
H1900 H 0.57465 0.61246 0.05362 0.0
H1901 H 0.56825 0.6613 0.06597 0.0
C1902 C 0.52259 0.68967 0.05693 0.0
C1903 C 0.497 0.70117 0.05188 0.0
C1904 C 0.52889 0.66377 0.04543 0.0
C1905 C 0.47914 0.68818 0.03239 0.0
C1906 C 0.48543 0.66261 0.02051 0.0
C1907 C 0.51377 0.62203 0.02061 0.0
C1908 C 0.53661 0.60814 0.03076 0.0
C1909 C 0.50962 0.64967 0.02806 0.0
C1910 C 0.55692 0.62291 0.04566 0.0
C1911 C 0.55311 0.65068 0.05292 0.0
H1912 H 0.10649 0.7904 0.80556 0.0
H1913 H 0.07991 0.7046 0.8053 0.0
H1914 H 0.12236 0.69121 0.78377 0.0
H1915 H 0.16821 0.70314 0.76855 0.0
H1916 H 0.19553 0.78863 0.76882 0.0
H1917 H 0.15149 0.80282 0.78654 0.0
C1918 C 0.10986 0.76882 0.80049 0.0
C1919 C 0.09016 0.74853 0.80738 0.0
C1920 C 0.13451 0.76114 0.78828 0.0
C1921 C 0.0948 0.72067 0.80049 0.0
C1922 C 0.11911 0.71293 0.78819 0.0
C1923 C 0.16453 0.72492 0.7723 0.0
C1924 C 0.18524 0.74474 0.76771 0.0
C1925 C 0.13931 0.7329 0.7826 0.0
C1926 C 0.17996 0.77291 0.77228 0.0
C1927 C 0.1548 0.78104 0.7825 0.0
H1928 H 0.98836 0.3159 0.58791 0.0
H1929 H 0.02479 0.28664 0.51041 0.0
H1930 H 0.01548 0.33101 0.48709 0.0
H1931 H -0.00057 0.37883 0.49016 0.0
H1932 H 0.96233 0.40701 0.568 0.0
H1933 H 0.96895 0.36182 0.58963 0.0
C1934 C -0.00558 0.31929 0.56594 0.0
C1935 C 0.00781 0.29846 0.551 0.0
C1936 C 0.98862 0.34442 0.55273 0.0
C1937 C 0.01476 0.30266 0.52233 0.0
C1938 C 0.00938 0.32791 0.50905 0.0
C1939 C 0.99241 0.375 0.5117 0.0
C1940 C 0.98071 0.39643 0.52754 0.0
C1941 C -0.00341 0.34904 0.5242 0.0
C1942 C 0.97156 0.39099 0.55536 0.0
C1943 C 0.97547 0.3652 0.56784 0.0
H1944 H 0.45143 0.27931 0.31232 0.0
H1945 H 0.42601 0.19438 0.32587 0.0
H1946 H 0.39604 0.19659 0.28407 0.0
H1947 H 0.37305 0.22469 0.24783 0.0
H1948 H 0.39829 0.30997 0.23539 0.0
H1949 H 0.43306 0.30528 0.27212 0.0
C1950 C 0.43945 0.26121 0.30601 0.0
C1951 C 0.44036 0.23693 0.32244 0.0
C1952 C 0.42242 0.26266 0.28209 0.0
C1953 C 0.42534 0.21341 0.31367 0.0
C1954 C 0.40825 0.21467 0.2898 0.0
C1955 C 0.38667 0.24202 0.25254 0.0
C1956 C 0.38279 0.26779 0.23921 0.0
C1957 C 0.40609 0.23945 0.27434 0.0
C1958 C 0.40065 0.29001 0.24556 0.0
C1959 C 0.4204 0.28742 0.26671 0.0
H1960 H 0.40631 0.52627 0.32207 0.0
H1961 H 0.3544 0.45708 0.34562 0.0
H1962 H 0.37662 0.45515 0.39236 0.0
H1963 H 0.40796 0.47551 0.42746 0.0
H1964 H 0.45934 0.54523 0.40437 0.0
H1965 H 0.44018 0.54435 0.35603 0.0
C1966 C 0.39993 0.51063 0.33734 0.0
C1967 C 0.37846 0.49208 0.33058 0.0
C1968 C 0.41258 0.50983 0.36414 0.0
C1969 C 0.37076 0.47167 0.35039 0.0
C1970 C 0.38339 0.47062 0.37711 0.0
C1971 C 0.41511 0.49048 0.41185 0.0
C1972 C 0.43474 0.51073 0.41959 0.0
C1973 C 0.40387 0.49 0.38437 0.0
C1974 C 0.44417 0.52956 0.39896 0.0
C1975 C 0.43315 0.52912 0.3714 0.0
H1976 H 0.23515 0.67846 0.08574 0.0
H1977 H 0.30103 0.73301 0.06094 0.0
H1978 H 0.28795 0.76646 0.0975 0.0
H1979 H 0.26087 0.77733 0.13989 0.0
H1980 H 0.19569 0.72176 0.16475 0.0
H1981 H 0.20494 0.69188 0.12413 0.0
C1982 C 0.2466 0.69773 0.08827 0.0
C1983 C 0.26936 0.70306 0.0712 0.0
C1984 C 0.23892 0.71673 0.10913 0.0
C1985 C 0.28359 0.72838 0.07411 0.0
C1986 C 0.2761 0.74747 0.09496 0.0
C1987 C 0.24816 0.75914 0.13592 0.0
C1988 C 0.22776 0.75163 0.15542 0.0
C1989 C 0.25416 0.74156 0.11302 0.0
C1990 C 0.21161 0.72787 0.15012 0.0
C1991 C 0.21702 0.71067 0.12704 0.0
H1992 H 0.10411 0.43305 0.81553 0.0
H1993 H 0.11269 0.52212 0.8098 0.0
H1994 H 0.092 0.52704 0.85645 0.0
H1995 H 0.0723 0.50646 0.89882 0.0
H1996 H 0.06246 0.41766 0.90548 0.0
H1997 H 0.08274 0.41223 0.85821 0.0
C1998 C 0.10143 0.45352 0.82452 0.0
C1999 C 0.11003 0.47719 0.80927 0.0
C2000 C 0.08933 0.45625 0.85139 0.0
C2001 C 0.10624 0.50357 0.82106 0.0
C2002 C 0.09445 0.50643 0.84775 0.0
C2003 C 0.0746 0.48584 0.89007 0.0
C2004 C 0.06611 0.46247 0.90575 0.0
C2005 C 0.08607 0.48295 0.8631 0.0
C2006 C 0.06888 0.43597 0.89382 0.0
C2007 C 0.08052 0.43288 0.86686 0.0
H2008 H 0.31326 0.30871 0.5379 0.0
H2009 H 0.22586 0.3058 0.53422 0.0
H2010 H 0.22505 0.26638 0.56661 0.0
H2011 H 0.24851 0.23669 0.59998 0.0
H2012 H 0.33554 0.24122 0.60744 0.0
H2013 H 0.33729 0.27535 0.56865 0.0
C2014 C 0.29407 0.29923 0.54394 0.0
C2015 C 0.26962 0.31045 0.53401 0.0
C2016 C 0.29372 0.27682 0.5631 0.0
C2017 C 0.24493 0.29785 0.54189 0.0
C2018 C 0.24444 0.27524 0.56033 0.0
C2019 C 0.26795 0.24478 0.59283 0.0
C2020 C 0.29184 0.2368 0.60682 0.0
C2021 C 0.26864 0.26513 0.57164 0.0
C2022 C 0.31688 0.24705 0.59699 0.0
C2023 C 0.31782 0.26681 0.57508 0.0
H2024 H 0.42327 0.47265 0.20203 0.0
H2025 H 0.41679 0.56163 0.19734 0.0
H2026 H 0.45201 0.56346 0.16118 0.0
H2027 H 0.48143 0.53972 0.12831 0.0
H2028 H 0.48623 0.45049 0.13023 0.0
H2029 H 0.45528 0.44892 0.17077 0.0
C2030 C 0.42975 0.49247 0.19329 0.0
C2031 C 0.41726 0.51695 0.20213 0.0
C2032 C 0.44969 0.49333 0.17213 0.0
C2033 C 0.42589 0.54247 0.19068 0.0
C2034 C 0.44606 0.54355 0.17006 0.0
C2035 C 0.47604 0.51986 0.13773 0.0
C2036 C 0.4859 0.49522 0.12599 0.0
C2037 C 0.45764 0.51907 0.16024 0.0
C2038 C 0.47886 0.46977 0.13875 0.0
C2039 C 0.46103 0.46885 0.1618 0.0
H2040 H 0.2645 0.63778 0.93708 0.0
H2041 H 0.3459 0.66946 0.95046 0.0
H2042 H 0.34888 0.6819 0.89992 0.0
H2043 H 0.32759 0.68502 0.85227 0.0
H2044 H 0.24611 0.65278 0.83992 0.0
H2045 H 0.24413 0.63913 0.88975 0.0
C2046 C 0.28292 0.64745 0.92901 0.0
C2047 C 0.30485 0.65292 0.94752 0.0
C2048 C 0.28453 0.65437 0.90009 0.0
C2049 C 0.32868 0.66513 0.93663 0.0
C2050 C 0.3304 0.67223 0.90775 0.0
C2051 C 0.30951 0.67479 0.86042 0.0
C2052 C 0.287 0.67012 0.84236 0.0
C2053 C 0.30836 0.66708 0.8893 0.0
C2054 C 0.2637 0.65683 0.85332 0.0
C2055 C 0.26249 0.64901 0.88186 0.0
H2056 H 0.10941 0.49538 0.6638 0.0
H2057 H 0.04339 0.44693 0.69917 0.0
H2058 H 0.01361 0.46206 0.66064 0.0
H2059 H 0.00763 0.48545 0.61482 0.0
H2060 H 0.07399 0.53307 0.57881 0.0
H2061 H 0.1021 0.52245 0.62024 0.0
C2062 C 0.08848 0.4882 0.66314 0.0
C2063 C 0.07874 0.46967 0.68402 0.0
C2064 C 0.07149 0.49696 0.64096 0.0
C2065 C 0.05145 0.46098 0.6832 0.0
C2066 C 0.0344 0.46966 0.6612 0.0
C2067 C 0.02807 0.49398 0.61619 0.0
C2068 C 0.03876 0.50974 0.59347 0.0
C2069 C 0.04437 0.48719 0.63968 0.0
C2070 C 0.06525 0.52076 0.59585 0.0
C2071 C 0.08143 0.51451 0.61945 0.0
H2072 H 0.28246 0.41044 0.3781 0.0
H2073 H 0.27606 0.33202 0.42231 0.0
H2074 H 0.28223 0.30737 0.37781 0.0
H2075 H 0.28568 0.30757 0.32614 0.0
H2076 H 0.29391 0.38478 0.28069 0.0
H2077 H 0.29102 0.41047 0.3259 0.0
C2078 C 0.28272 0.38798 0.378 0.0
C2079 C 0.27833 0.37316 0.40349 0.0
C2080 C 0.28639 0.37371 0.35214 0.0
C2081 C 0.27909 0.34404 0.40304 0.0
C2082 C 0.28257 0.32983 0.37757 0.0
C2083 C 0.28696 0.33005 0.32618 0.0
C2084 C 0.28949 0.34438 0.30032 0.0
C2085 C 0.28557 0.34442 0.35199 0.0
C2086 C 0.29181 0.37341 0.30051 0.0
C2087 C 0.29006 0.38803 0.32628 0.0
H2088 H 0.27923 0.46729 0.51936 0.0
H2089 H 0.30305 0.40968 0.58467 0.0
H2090 H 0.3389 0.44189 0.60071 0.0
H2091 H 0.36944 0.48082 0.58803 0.0
H2092 H 0.34654 0.53696 0.5212 0.0
H2093 H 0.30356 0.51184 0.51469 0.0
C2094 C 0.29189 0.46217 0.53756 0.0
C2095 C 0.28921 0.43601 0.55036 0.0
C2096 C 0.31245 0.48066 0.54645 0.0
C2097 C 0.30512 0.42966 0.57431 0.0
C2098 C 0.32561 0.44802 0.58343 0.0
C2099 C 0.35426 0.48843 0.57329 0.0
C2100 C 0.36087 0.51056 0.5551 0.0
C2101 C 0.33033 0.47291 0.56865 0.0
C2102 C 0.34153 0.52011 0.53562 0.0
C2103 C 0.31724 0.5054 0.5315 0.0
H2104 H 0.81186 0.03308 0.46842 0.0
H2105 H 0.80607 0.01724 0.55883 0.0
H2106 H 0.84411 0.98592 0.55627 0.0
H2107 H 0.88432 0.97185 0.5308 0.0
H2108 H 0.89344 0.9915 0.4416 0.0
H2109 H 0.84835 0.01175 0.44084 0.0
C2110 C 0.81843 0.02206 0.48734 0.0
C2111 C 0.80666 0.02777 0.51389 0.0
C2112 C 0.8411 0.00508 0.48592 0.0
C2113 C 0.81521 0.01343 0.53828 0.0
C2114 C 0.83696 -0.0044 0.53683 0.0
C2115 C 0.87611 0.97993 0.511 0.0
C2116 C 0.89228 0.98092 0.4865 0.0
C2117 C 0.85095 0.99261 0.51114 0.0
C2118 C 0.88135 0.99077 0.46079 0.0
C2119 C 0.85572 0.0026 0.46045 0.0
H2120 H 0.66051 0.04 0.24733 0.0
H2121 H 0.68615 0.03587 0.3355 0.0
H2122 H 0.71591 0.07612 0.32873 0.0
H2123 H 0.72794 0.11673 0.30056 0.0
H2124 H 0.70063 0.12344 0.21334 0.0
H2125 H 0.67854 0.07751 0.21661 0.0
C2126 C 0.67317 0.04749 0.26481 0.0
C2127 C 0.67082 0.03541 0.29202 0.0
C2128 C 0.68958 0.07123 0.261 0.0
C2129 C 0.68735 0.04517 0.3145 0.0
C2130 C 0.7043 0.06819 0.31067 0.0
C2131 C 0.71758 0.10783 0.28209 0.0
C2132 C 0.71529 0.12338 0.25697 0.0
C2133 C 0.70451 0.08208 0.28445 0.0
C2134 C 0.70242 0.11169 0.23293 0.0
C2135 C 0.68967 0.08561 0.2349 0.0
H2136 H 0.66788 0.96735 0.04131 0.0
H2137 H 0.64017 0.94715 0.95615 0.0
H2138 H 0.60167 0.97767 0.96182 0.0
H2139 H 0.57299 0.00497 0.99335 0.0
H2140 H 0.60101 0.02536 0.07845 0.0
H2141 H 0.64267 0.00038 0.07018 0.0
C2142 C 0.65359 0.96997 0.02388 0.0
C2143 C 0.65645 0.95471 -0.00141 0.0
C2144 C 0.63158 0.98748 0.0273 0.0
C2145 C 0.63822 0.95861 0.97589 0.0
C2146 C 0.61617 0.97595 0.97916 0.0
C2147 C 0.58844 0.00437 0.0099 0.0
C2148 C 0.58372 0.01651 0.03664 0.0
C2149 C 0.6122 0.98973 0.00512 0.0
C2150 C 0.60409 0.01604 0.05771 0.0
C2151 C 0.62784 0.00159 0.05309 0.0
H2152 H 0.33623 0.47067 0.16481 0.0
H2153 H 0.27345 0.478 0.22763 0.0
H2154 H 0.25417 0.43303 0.21322 0.0
H2155 H 0.2611 0.38833 0.19023 0.0
H2156 H 0.32917 0.37775 0.13471 0.0
H2157 H 0.34008 0.42742 0.13769 0.0
C2158 C 0.31785 0.4627 0.17466 0.0
C2159 C 0.30621 0.47731 0.19723 0.0
C2160 C 0.30798 0.43616 0.16749 0.0
C2161 C 0.28271 0.46683 0.21029 0.0
C2162 C 0.27176 0.44118 0.20208 0.0
C2163 C 0.27754 0.39727 0.17779 0.0
C2164 C 0.29414 0.37985 0.16197 0.0
C2165 C 0.28499 0.42514 0.1817 0.0
C2166 C 0.31597 0.39112 0.14663 0.0
C2167 C 0.32239 0.41936 0.14869 0.0
H2168 H 0.20687 0.56651 0.0502 0.0
H2169 H 0.17197 0.63475 0.00416 0.0
H2170 H 0.12826 0.61056 0.00293 0.0
H2171 H 0.10096 0.56907 0.01183 0.0
H2172 H 0.13445 0.50062 0.05834 0.0
H2173 H 0.17785 0.52611 0.06302 0.0
C2174 C 0.18964 0.57608 0.04001 0.0
C2175 C 0.19269 0.6022 0.02692 0.0
C2176 C 0.16446 0.56211 0.03954 0.0
C2177 C 0.17016 0.61462 0.01423 0.0
C2178 C 0.14518 0.60081 0.01349 0.0
C2179 C 0.11772 0.55981 0.0232 0.0
C2180 C 0.11485 0.53296 0.03438 0.0
C2181 C 0.14227 0.57442 0.02563 0.0
C2182 C 0.13637 0.52131 0.04957 0.0
C2183 C 0.16114 0.53579 0.05204 0.0
H2184 H 0.64375 0.91616 0.34289 0.0
H2185 H 0.56394 0.88963 0.31475 0.0
H2186 H 0.58019 0.84274 0.30721 0.0
H2187 H 0.61788 0.81085 0.30405 0.0
H2188 H 0.69781 0.83697 0.33189 0.0
H2189 H 0.68054 0.88258 0.34464 0.0
C2190 C 0.62985 0.90005 0.33533 0.0
C2191 C 0.60278 0.90643 0.3289 0.0
C2192 C 0.63934 0.87321 0.33097 0.0
C2193 C 0.58489 0.88528 0.31966 0.0
C2194 C 0.59418 0.85851 0.31528 0.0
C2195 C 0.63148 0.82645 0.3132 0.0
C2196 C 0.65914 0.82082 0.31662 0.0
C2197 C 0.62149 0.85249 0.32015 0.0
C2198 C 0.67645 0.84091 0.32901 0.0
C2199 C 0.66662 0.86699 0.3361 0.0
H2200 H 0.87157 0.14115 0.80051 0.0
H2201 H 0.83596 0.11214 0.72114 0.0
H2202 H 0.80856 0.15328 0.71838 0.0
H2203 H 0.79467 0.19716 0.73805 0.0
H2204 H 0.83209 0.22913 0.81504 0.0
H2205 H 0.85854 0.18676 0.81956 0.0
C2206 C 0.8579 0.14393 0.78257 0.0
C2207 C 0.85577 0.12355 0.76114 0.0
C2208 C 0.84225 0.16786 0.78094 0.0
C2209 C 0.83809 0.1275 0.73791 0.0
C2210 C 0.82225 0.15094 0.73637 0.0
C2211 C 0.80824 0.19466 0.75616 0.0
C2212 C 0.81106 0.21582 0.77657 0.0
C2213 C 0.82403 0.17107 0.75784 0.0
C2214 C 0.82938 0.21281 0.79934 0.0
C2215 C 0.84458 0.18874 0.80177 0.0
loop_
_geom_bond_atom_site_label_1
_geom_bond_atom_site_label_2
_geom_bond_distance
_geom_bond_site_symmetry_2
_ccdc_geom_bond_type
C0 O1 1.160 . S
C0 O7 1.185 . S
O1 C0 1.160 . S
O2 Zn3 1.899 . S
O2 C10 1.284 . S
Zn3 O2 1.899 . S
Zn3 O4 2.032 1_455 S
Zn3 O7 2.086 1_455 S
Zn3 O12 1.977 . S
O4 Zn3 2.032 1_655 S
O4 C8 1.278 1_655 S
C5 O6 1.203 . S
C5 O12 1.267 . S
O6 C5 1.203 . S
O7 C0 1.185 . S
O7 Zn3 2.086 1_655 S
C8 O4 1.278 1_455 S
C8 O9 1.211 . S
O9 C8 1.211 . S
C10 O2 1.284 . S
C10 O11 1.273 . S
O11 C10 1.273 . S
O12 Zn3 1.977 . S
O12 C5 1.267 . S
C13 O14 1.160 . S
C13 O20 1.185 . S
O14 C13 1.160 . S
O15 Zn16 1.899 . S
O15 C23 1.284 . S
Zn16 O15 1.899 . S
Zn16 O17 2.032 . S
Zn16 O20 2.086 . S
Zn16 O25 1.977 1_455 S
O17 Zn16 2.032 . S
O17 C21 1.278 . S
C18 O19 1.203 . S
C18 O25 1.267 . S
O19 C18 1.203 . S
O20 C13 1.185 . S
O20 Zn16 2.086 . S
C21 O17 1.278 . S
C21 O22 1.211 1_455 S
O22 C21 1.211 1_655 S
C23 O15 1.284 . S
C23 O24 1.273 1_455 S
O24 C23 1.273 1_655 S
O25 Zn16 1.977 1_655 S
O25 C18 1.267 . S
C26 O27 1.160 . S
C26 O33 1.185 . S
O27 C26 1.160 . S
O28 Zn29 1.899 . S
O28 C36 1.284 . S
Zn29 O28 1.899 . S
Zn29 O30 2.032 . S
Zn29 O33 2.086 . S
Zn29 O38 1.977 . S
O30 Zn29 2.032 . S
O30 C34 1.278 . S
C31 O32 1.203 . S
C31 O38 1.267 . S
O32 C31 1.203 . S
O33 C26 1.185 . S
O33 Zn29 2.086 . S
C34 O30 1.278 . S
C34 O35 1.211 . S
O35 C34 1.211 . S
C36 O28 1.284 . S
C36 O37 1.273 . S
O37 C36 1.273 . S
O38 Zn29 1.977 . S
O38 C31 1.267 . S
C39 O40 1.160 . S
C39 O46 1.185 . S
O40 C39 1.160 . S
O41 Zn42 1.899 . S
O41 C49 1.284 . S
Zn42 O41 1.899 . S
Zn42 O43 2.032 . S
Zn42 O46 2.086 . S
Zn42 O51 1.977 . S
O43 Zn42 2.032 . S
O43 C47 1.278 . S
C44 O45 1.203 . S
C44 O51 1.267 . S
O45 C44 1.203 . S
O46 C39 1.185 . S
O46 Zn42 2.086 . S
C47 O43 1.278 . S
C47 O48 1.211 . S
O48 C47 1.211 . S
C49 O41 1.284 . S
C49 O50 1.273 . S
O50 C49 1.273 . S
O51 Zn42 1.977 . S
O51 C44 1.267 . S
C52 O53 1.160 . S
C52 O59 1.185 . S
O53 C52 1.160 . S
O54 Zn55 1.899 . S
O54 C62 1.284 . S
Zn55 O54 1.899 . S
Zn55 O56 2.032 . S
Zn55 O59 2.086 1_545 S
Zn55 O64 1.977 . S
O56 Zn55 2.032 . S
O56 C60 1.278 . S
C57 O58 1.203 . S
C57 O64 1.267 . S
O58 C57 1.203 . S
O59 C52 1.185 . S
O59 Zn55 2.086 1_565 S
C60 O56 1.278 . S
C60 O61 1.211 . S
O61 C60 1.211 . S
C62 O54 1.284 . S
C62 O63 1.273 . S
O63 C62 1.273 . S
O64 Zn55 1.977 . S
O64 C57 1.267 . S
C65 O66 1.160 . S
C65 O72 1.185 . S
O66 C65 1.160 . S
O67 Zn68 1.899 . S
O67 C75 1.284 . S
Zn68 O67 1.899 . S
Zn68 O69 2.032 . S
Zn68 O72 2.086 . S
Zn68 O77 1.977 . S
O69 Zn68 2.032 . S
O69 C73 1.278 . S
C70 O71 1.203 . S
C70 O77 1.267 . S
O71 C70 1.203 . S
O72 C65 1.185 . S
O72 Zn68 2.086 . S
C73 O69 1.278 . S
C73 O74 1.211 . S
O74 C73 1.211 . S
C75 O67 1.284 . S
C75 O76 1.273 . S
O76 C75 1.273 . S
O77 Zn68 1.977 . S
O77 C70 1.267 . S
C78 O79 1.160 . S
C78 O85 1.185 . S
O79 C78 1.160 . S
O80 Zn81 1.899 . S
O80 C88 1.284 1_545 S
Zn81 O80 1.899 . S
Zn81 O82 2.032 . S
Zn81 O85 2.086 . S
Zn81 O90 1.977 1_545 S
O82 Zn81 2.032 . S
O82 C86 1.278 1_545 S
C83 O84 1.203 . S
C83 O90 1.267 . S
O84 C83 1.203 . S
O85 C78 1.185 . S
O85 Zn81 2.086 . S
C86 O82 1.278 1_565 S
C86 O87 1.211 . S
O87 C86 1.211 . S
C88 O80 1.284 1_565 S
C88 O89 1.273 . S
O89 C88 1.273 . S
O90 Zn81 1.977 1_565 S
O90 C83 1.267 . S
C91 O92 1.160 . S
C91 O98 1.185 . S
O92 C91 1.160 . S
O93 Zn94 1.899 . S
O93 C101 1.284 . S
Zn94 O93 1.899 . S
Zn94 O95 2.032 1_554 S
Zn94 O98 2.086 . S
Zn94 O103 1.977 . S
O95 Zn94 2.032 1_556 S
O95 C99 1.278 . S
C96 O97 1.203 . S
C96 O103 1.267 . S
O97 C96 1.203 . S
O98 C91 1.185 . S
O98 Zn94 2.086 . S
C99 O95 1.278 . S
C99 O100 1.211 . S
O100 C99 1.211 . S
C101 O93 1.284 . S
C101 O102 1.273 . S
O102 C101 1.273 . S
O103 Zn94 1.977 . S
O103 C96 1.267 . S
C104 O105 1.160 . S
C104 O111 1.185 . S
O105 C104 1.160 . S
O106 Zn107 1.899 . S
O106 C114 1.284 . S
Zn107 O106 1.899 . S
Zn107 O108 2.032 1_554 S
Zn107 O111 2.086 . S
Zn107 O116 1.977 . S
O108 Zn107 2.032 1_556 S
O108 C112 1.278 . S
C109 O110 1.203 . S
C109 O116 1.267 . S
O110 C109 1.203 . S
O111 C104 1.185 . S
O111 Zn107 2.086 . S
C112 O108 1.278 . S
C112 O113 1.211 . S
O113 C112 1.211 . S
C114 O106 1.284 . S
C114 O115 1.273 . S
O115 C114 1.273 . S
O116 Zn107 1.977 . S
O116 C109 1.267 . S
C117 O118 1.160 . S
C117 O124 1.185 . S
O118 C117 1.160 . S
O119 Zn120 1.899 . S
O119 C127 1.284 . S
Zn120 O119 1.899 . S
Zn120 O121 2.032 . S
Zn120 O124 2.086 . S
Zn120 O129 1.977 . S
O121 Zn120 2.032 . S
O121 C125 1.278 . S
C122 O123 1.203 . S
C122 O129 1.267 . S
O123 C122 1.203 . S
O124 C117 1.185 . S
O124 Zn120 2.086 . S
C125 O121 1.278 . S
C125 O126 1.211 . S
O126 C125 1.211 . S
C127 O119 1.284 . S
C127 O128 1.273 . S
O128 C127 1.273 . S
O129 Zn120 1.977 . S
O129 C122 1.267 . S
C130 O131 1.160 . S
C130 O137 1.185 . S
O131 C130 1.160 . S
O132 Zn133 1.899 . S
O132 C140 1.284 . S
Zn133 O132 1.899 . S
Zn133 O134 2.032 . S
Zn133 O137 2.086 . S
Zn133 O142 1.977 . S
O134 Zn133 2.032 . S
O134 C138 1.278 . S
C135 O136 1.203 . S
C135 O142 1.267 . S
O136 C135 1.203 . S
O137 C130 1.185 . S
O137 Zn133 2.086 . S
C138 O134 1.278 . S
C138 O139 1.211 . S
O139 C138 1.211 . S
C140 O132 1.284 . S
C140 O141 1.273 . S
O141 C140 1.273 . S
O142 Zn133 1.977 . S
O142 C135 1.267 . S
C143 O144 1.160 . S
C143 O150 1.185 . S
O144 C143 1.160 . S
O145 Zn146 1.899 . S
O145 C153 1.284 . S
Zn146 O145 1.899 . S
Zn146 O147 2.032 . S
Zn146 O150 2.086 . S
Zn146 O155 1.977 . S
O147 Zn146 2.032 . S
O147 C151 1.278 . S
C148 O149 1.203 . S
C148 O155 1.267 . S
O149 C148 1.203 . S
O150 C143 1.185 . S
O150 Zn146 2.086 . S
C151 O147 1.278 . S
C151 O152 1.211 . S
O152 C151 1.211 . S
C153 O145 1.284 . S
C153 O154 1.273 . S
O154 C153 1.273 . S
O155 Zn146 1.977 . S
O155 C148 1.267 . S
C156 O157 1.160 . S
C156 O163 1.185 . S
O157 C156 1.160 . S
O158 Zn159 1.899 . S
O158 C166 1.284 . S
Zn159 O158 1.899 . S
Zn159 O160 2.032 . S
Zn159 O163 2.086 . S
Zn159 O168 1.977 1_455 S
O160 Zn159 2.032 . S
O160 C164 1.307 . S
C161 O162 1.203 . S
C161 O168 1.267 . S
O162 C161 1.203 . S
O163 C156 1.185 . S
O163 Zn159 2.086 . S
C164 O160 1.307 . S
C164 O165 1.170 1_455 S
O165 C164 1.170 1_655 S
C166 O158 1.284 . S
C166 O167 1.273 1_455 S
O167 C166 1.273 1_655 S
O168 Zn159 1.977 1_655 S
O168 C161 1.267 . S
C169 O170 1.160 . S
C169 O176 1.185 . S
O170 C169 1.160 . S
O171 Zn172 1.899 . S
O171 C179 1.284 . S
Zn172 O171 1.899 . S
Zn172 O173 2.032 1_455 S
Zn172 O176 2.086 1_455 S
Zn172 O181 1.977 . S
O173 Zn172 2.032 1_655 S
O173 C177 1.278 1_655 S
C174 O175 1.203 . S
C174 O181 1.267 . S
O175 C174 1.203 . S
O176 C169 1.185 . S
O176 Zn172 2.086 1_655 S
C177 O173 1.278 1_455 S
C177 O178 1.211 . S
O178 C177 1.211 . S
C179 O171 1.284 . S
C179 O180 1.273 . S
O180 C179 1.273 . S
O181 Zn172 1.977 . S
O181 C174 1.267 . S
C182 O183 1.160 . S
C182 O189 1.185 . S
O183 C182 1.160 . S
O184 Zn185 1.899 . S
O184 C192 1.284 . S
Zn185 O184 1.899 . S
Zn185 O186 2.032 . S
Zn185 O189 2.086 . S
Zn185 O194 1.977 . S
O186 Zn185 2.032 . S
O186 C190 1.278 . S
C187 O188 1.203 . S
C187 O194 1.267 . S
O188 C187 1.203 . S
O189 C182 1.185 . S
O189 Zn185 2.086 . S
C190 O186 1.278 . S
C190 O191 1.211 . S
O191 C190 1.211 . S
C192 O184 1.284 . S
C192 O193 1.273 . S
O193 C192 1.273 . S
O194 Zn185 1.977 . S
O194 C187 1.267 . S
C195 O196 1.160 . S
C195 O202 1.185 . S
O196 C195 1.160 . S
O197 Zn198 1.899 . S
O197 C205 1.284 . S
Zn198 O197 1.899 . S
Zn198 O199 2.032 . S
Zn198 O202 2.086 . S
Zn198 O207 1.977 . S
O199 Zn198 2.032 . S
O199 C203 1.278 . S
C200 O201 1.203 . S
C200 O207 1.267 . S
O201 C200 1.203 . S
O202 C195 1.185 . S
O202 Zn198 2.086 . S
C203 O199 1.278 . S
C203 O204 1.211 . S
O204 C203 1.211 . S
C205 O197 1.284 . S
C205 O206 1.273 . S
O206 C205 1.273 . S
O207 Zn198 1.977 . S
O207 C200 1.267 . S
C208 O209 1.160 . S
C208 O215 1.185 . S
O209 C208 1.160 . S
O210 Zn211 1.899 . S
O210 C218 1.284 . S
Zn211 O210 1.899 . S
Zn211 O212 2.032 . S
Zn211 O215 2.086 . S
Zn211 O220 1.977 1_545 S
O212 Zn211 2.032 . S
O212 C216 1.278 . S
C213 O214 1.203 . S
C213 O220 1.267 . S
O214 C213 1.203 . S
O215 C208 1.185 . S
O215 Zn211 2.086 . S
C216 O212 1.278 . S
C216 O217 1.211 1_545 S
O217 C216 1.211 1_565 S
C218 O210 1.284 . S
C218 O219 1.273 . S
O219 C218 1.273 . S
O220 Zn211 1.977 1_565 S
O220 C213 1.267 . S
C221 O222 1.160 . S
C221 O228 1.185 . S
O222 C221 1.160 . S
O223 Zn224 1.899 . S
O223 C231 1.284 . S
Zn224 O223 1.899 . S
Zn224 O225 2.032 . S
Zn224 O228 2.086 . S
Zn224 O233 1.977 . S
O225 Zn224 2.032 . S
O225 C229 1.278 . S
C226 O227 1.203 . S
C226 O233 1.267 . S
O227 C226 1.203 . S
O228 C221 1.185 . S
O228 Zn224 2.086 . S
C229 O225 1.278 . S
C229 O230 1.211 . S
O230 C229 1.211 . S
C231 O223 1.284 . S
C231 O232 1.273 . S
O232 C231 1.273 . S
O233 Zn224 1.977 . S
O233 C226 1.267 . S
C234 O235 1.160 . S
C234 O241 1.185 . S
O235 C234 1.160 . S
O236 Zn237 1.899 . S
O236 C244 1.284 1_565 S
Zn237 O236 1.899 . S
Zn237 O238 2.032 . S
Zn237 O241 2.086 . S
Zn237 O246 1.977 1_565 S
O238 Zn237 2.032 . S
O238 C242 1.278 1_565 S
C239 O240 1.203 . S
C239 O246 1.267 . S
O240 C239 1.203 . S
O241 C234 1.185 . S
O241 Zn237 2.086 . S
C242 O238 1.278 1_545 S
C242 O243 1.211 . S
O243 C242 1.211 . S
C244 O236 1.284 1_545 S
C244 O245 1.273 . S
O245 C244 1.273 . S
O246 Zn237 1.977 1_545 S
O246 C239 1.267 . S
C247 O248 1.160 . S
C247 O254 1.185 1_554 S
O248 C247 1.160 . S
O249 Zn250 1.899 . S
O249 C257 1.284 . S
Zn250 O249 1.899 . S
Zn250 O251 2.032 1_554 S
Zn250 O254 2.086 1_554 S
Zn250 O259 1.978 . S
O251 Zn250 2.032 1_556 S
O251 C255 1.278 . S
C252 O253 1.203 . S
C252 O259 1.267 . S
O253 C252 1.203 . S
O254 C247 1.185 1_556 S
O254 Zn250 2.086 1_556 S
C255 O251 1.278 . S
C255 O256 1.211 . S
O256 C255 1.211 . S
C257 O249 1.284 . S
C257 O258 1.273 . S
O258 C257 1.273 . S
O259 Zn250 1.978 . S
O259 C252 1.267 . S
C260 O261 1.160 . S
C260 O267 1.178 1_554 S
O261 C260 1.160 . S
O262 Zn263 1.899 . S
O262 C270 1.284 . S
Zn263 O262 1.899 . S
Zn263 O264 2.032 1_554 S
Zn263 O267 2.082 1_554 S
Zn263 O272 1.974 1_554 S
O264 Zn263 2.032 1_556 S
O264 C268 1.278 . S
C265 O266 1.203 . S
C265 O272 1.260 1_554 S
O266 C265 1.203 . S
O267 C260 1.178 1_556 S
O267 Zn263 2.082 1_556 S
C268 O264 1.278 . S
C268 O269 1.211 . S
O269 C268 1.211 . S
C270 O262 1.284 . S
C270 O271 1.273 . S
O271 C270 1.273 . S
O272 Zn263 1.974 1_556 S
O272 C265 1.260 1_556 S
C273 O274 1.160 . S
C273 O280 1.185 . S
O274 C273 1.160 . S
O275 Zn276 1.899 . S
O275 C283 1.284 . S
Zn276 O275 1.899 . S
Zn276 O277 2.032 . S
Zn276 O280 2.086 . S
Zn276 O285 1.977 . S
O277 Zn276 2.032 . S
O277 C281 1.278 . S
C278 O279 1.203 . S
C278 O285 1.267 . S
O279 C278 1.203 . S
O280 C273 1.185 . S
O280 Zn276 2.086 . S
C281 O277 1.278 . S
C281 O282 1.211 . S
O282 C281 1.211 . S
C283 O275 1.284 . S
C283 O284 1.273 . S
O284 C283 1.273 . S
O285 Zn276 1.977 . S
O285 C278 1.267 . S
C286 O287 1.160 . S
C286 O293 1.185 . S
O287 C286 1.160 . S
O288 Zn289 1.899 . S
O288 C296 1.284 . S
Zn289 O288 1.899 . S
Zn289 O290 2.032 . S
Zn289 O293 2.086 . S
Zn289 O298 1.977 . S
O290 Zn289 2.032 . S
O290 C294 1.278 . S
C291 O292 1.203 . S
C291 O298 1.267 . S
O292 C291 1.203 . S
O293 C286 1.185 . S
O293 Zn289 2.086 . S
C294 O290 1.278 . S
C294 O295 1.211 . S
O295 C294 1.211 . S
C296 O288 1.284 . S
C296 O297 1.273 . S
O297 C296 1.273 . S
O298 Zn289 1.977 . S
O298 C291 1.267 . S
C299 O300 1.160 . S
C299 O306 1.185 . S
O300 C299 1.160 . S
O301 Zn302 1.899 . S
O301 C309 1.284 . S
Zn302 O301 1.899 . S
Zn302 O303 2.032 . S
Zn302 O306 2.086 . S
Zn302 O311 1.977 . S
O303 Zn302 2.032 . S
O303 C307 1.278 . S
C304 O305 1.203 . S
C304 O311 1.267 . S
O305 C304 1.203 . S
O306 C299 1.185 . S
O306 Zn302 2.086 . S
C307 O303 1.278 . S
C307 O308 1.211 . S
O308 C307 1.211 . S
C309 O301 1.284 . S
C309 O310 1.273 . S
O310 C309 1.273 . S
O311 Zn302 1.977 . S
O311 C304 1.267 . S
O312 Zn313 1.953 . S
O312 C328 1.225 1_455 S
Zn313 O312 1.953 . S
Zn313 O314 1.949 . S
Zn313 O320 1.919 1_554 S
Zn313 O325 1.924 1_454 S
O314 Zn313 1.949 . S
O314 Zn315 1.923 1_545 S
O314 Zn316 1.950 1_455 S
O314 Zn317 1.945 1_444 S
Zn315 O314 1.923 1_565 S
Zn315 O318 1.933 . S
Zn315 O321 1.941 1_565 S
Zn315 O322 1.965 . S
Zn316 O314 1.950 1_655 S
Zn316 O323 1.948 . S
Zn316 O324 1.906 1_545 S
Zn316 O334 1.953 . S
Zn317 O314 1.945 1_666 S
Zn317 O319 1.932 . S
Zn317 O326 1.977 1_556 S
Zn317 O327 1.910 1_565 S
O318 Zn315 1.933 . S
O318 C329 1.226 1_554 S
O319 Zn317 1.932 . S
O319 C329 1.307 1_655 S
O320 Zn313 1.919 1_556 S
O320 C331 1.253 1_556 S
O321 Zn315 1.941 1_545 S
O321 C331 1.283 . S
O322 Zn315 1.965 . S
O322 C330 1.290 1_565 S
O323 Zn316 1.948 . S
O323 C330 1.238 1_655 S
O324 Zn316 1.906 1_565 S
O324 C332 1.304 . S
O325 Zn313 1.924 1_656 S
O325 C333 1.311 . S
O326 Zn317 1.977 1_554 S
O326 C332 1.272 . S
O327 Zn317 1.910 1_545 S
O327 C333 1.231 . S
C328 O312 1.225 1_655 S
C328 O334 1.298 . S
C329 O318 1.226 1_556 S
C329 O319 1.307 1_455 S
C330 O322 1.290 1_545 S
C330 O323 1.238 1_455 S
C331 O320 1.253 1_554 S
C331 O321 1.283 . S
C332 O324 1.304 . S
C332 O326 1.272 . S
C333 O325 1.311 . S
C333 O327 1.231 . S
O334 Zn316 1.953 . S
O334 C328 1.298 . S
O335 Zn336 1.953 . S
O335 C351 1.225 . S
Zn336 O335 1.953 . S
Zn336 O337 1.949 . S
Zn336 O343 1.919 . S
Zn336 O348 1.924 . S
O337 Zn336 1.949 . S
O337 Zn338 1.923 . S
O337 Zn339 1.950 . S
O337 Zn340 1.945 . S
Zn338 O337 1.923 . S
Zn338 O341 1.933 . S
Zn338 O344 1.941 . S
Zn338 O345 1.965 . S
Zn339 O337 1.950 . S
Zn339 O346 1.938 . S
Zn339 O347 1.906 . S
Zn339 O357 1.953 . S
Zn340 O337 1.945 . S
Zn340 O342 1.932 . S
Zn340 O349 1.977 . S
Zn340 O350 1.910 . S
O341 Zn338 1.933 . S
O341 C352 1.226 . S
O342 Zn340 1.932 . S
O342 C352 1.307 . S
O343 Zn336 1.919 . S
O343 C354 1.253 . S
O344 Zn338 1.941 . S
O344 C354 1.283 . S
O345 Zn338 1.965 . S
O345 C353 1.303 . S
O346 Zn339 1.938 . S
O346 C353 1.247 . S
O347 Zn339 1.906 . S
O347 C355 1.304 . S
O348 Zn336 1.924 . S
O348 C356 1.311 . S
O349 Zn340 1.977 . S
O349 C355 1.272 . S
O350 Zn340 1.910 . S
O350 C356 1.231 . S
C351 O335 1.225 . S
C351 O357 1.298 . S
C352 O341 1.226 . S
C352 O342 1.307 . S
C353 O345 1.303 . S
C353 O346 1.247 . S
C354 O343 1.253 . S
C354 O344 1.283 . S
C355 O347 1.304 . S
C355 O349 1.272 . S
C356 O348 1.311 . S
C356 O350 1.231 . S
O357 Zn339 1.953 . S
O357 C351 1.298 . S
O358 Zn359 1.953 . S
O358 C374 1.225 . S
Zn359 O358 1.953 . S
Zn359 O360 1.949 1_565 S
Zn359 O366 1.919 . S
Zn359 O371 1.924 . S
O360 Zn359 1.949 1_545 S
O360 Zn361 1.923 . S
O360 Zn362 1.950 . S
O360 Zn363 1.945 . S
Zn361 O360 1.923 . S
Zn361 O364 1.933 . S
Zn361 O367 1.941 . S
Zn361 O368 1.965 . S
Zn362 O360 1.950 . S
Zn362 O369 1.938 . S
Zn362 O370 1.906 . S
Zn362 O380 1.953 1_545 S
Zn363 O360 1.945 . S
Zn363 O365 1.932 . S
Zn363 O372 1.977 . S
Zn363 O373 1.910 . S
O364 Zn361 1.933 . S
O364 C375 1.226 . S
O365 Zn363 1.932 . S
O365 C375 1.307 . S
O366 Zn359 1.919 . S
O366 C377 1.253 . S
O367 Zn361 1.941 . S
O367 C377 1.283 1_545 S
O368 Zn361 1.965 . S
O368 C376 1.303 . S
O369 Zn362 1.938 . S
O369 C376 1.247 . S
O370 Zn362 1.906 . S
O370 C378 1.304 . S
O371 Zn359 1.924 . S
O371 C379 1.311 . S
O372 Zn363 1.977 . S
O372 C378 1.272 . S
O373 Zn363 1.910 . S
O373 C379 1.231 1_545 S
C374 O358 1.225 . S
C374 O380 1.298 . S
C375 O364 1.226 . S
C375 O365 1.307 . S
C376 O368 1.303 . S
C376 O369 1.247 . S
C377 O366 1.253 . S
C377 O367 1.283 1_565 S
C378 O370 1.304 . S
C378 O372 1.272 . S
C379 O371 1.311 . S
C379 O373 1.231 1_565 S
O380 Zn362 1.953 1_565 S
O380 C374 1.298 . S
O381 Zn382 1.953 . S
O381 C397 1.225 . S
Zn382 O381 1.953 . S
Zn382 O383 1.949 . S
Zn382 O389 1.919 . S
Zn382 O394 1.924 . S
O383 Zn382 1.949 . S
O383 Zn384 1.923 . S
O383 Zn385 1.950 . S
O383 Zn386 1.945 . S
Zn384 O383 1.923 . S
Zn384 O387 1.933 . S
Zn384 O390 1.941 . S
Zn384 O391 1.965 . S
Zn385 O383 1.950 . S
Zn385 O392 1.938 . S
Zn385 O393 1.906 . S
Zn385 O403 1.953 . S
Zn386 O383 1.945 . S
Zn386 O388 1.932 . S
Zn386 O395 1.977 . S
Zn386 O396 1.910 . S
O387 Zn384 1.933 . S
O387 C398 1.226 . S
O388 Zn386 1.932 . S
O388 C398 1.307 . S
O389 Zn382 1.919 . S
O389 C400 1.253 . S
O390 Zn384 1.941 . S
O390 C400 1.283 . S
O391 Zn384 1.965 . S
O391 C399 1.303 . S
O392 Zn385 1.938 . S
O392 C399 1.247 . S
O393 Zn385 1.906 . S
O393 C401 1.304 . S
O394 Zn382 1.924 . S
O394 C402 1.311 . S
O395 Zn386 1.977 . S
O395 C401 1.272 . S
O396 Zn386 1.910 . S
O396 C402 1.231 . S
C397 O381 1.225 . S
C397 O403 1.298 . S
C398 O387 1.226 . S
C398 O388 1.307 . S
C399 O391 1.303 . S
C399 O392 1.247 . S
C400 O389 1.253 . S
C400 O390 1.283 . S
C401 O393 1.304 . S
C401 O395 1.272 . S
C402 O394 1.311 . S
C402 O396 1.231 . S
O403 Zn385 1.953 . S
O403 C397 1.298 . S
O404 Zn405 1.953 1_445 S
O404 C420 1.225 . S
Zn405 O404 1.953 1_665 S
Zn405 O406 1.949 1_665 S
Zn405 O412 1.919 . S
Zn405 O417 1.924 1_565 S
O406 Zn405 1.949 1_445 S
O406 Zn407 1.923 1_545 S
O406 Zn408 1.950 . S
O406 Zn409 1.945 1_455 S
Zn407 O406 1.923 1_565 S
Zn407 O410 1.933 . S
Zn407 O413 1.941 . S
Zn407 O414 1.965 . S
Zn408 O406 1.950 . S
Zn408 O415 1.938 . S
Zn408 O416 1.906 . S
Zn408 O426 1.953 . S
Zn409 O406 1.945 1_655 S
Zn409 O411 1.932 . S
Zn409 O418 1.980 . S
Zn409 O419 1.910 . S
O410 Zn407 1.933 . S
O410 C421 1.226 1_455 S
O411 Zn409 1.932 . S
O411 C421 1.307 1_545 S
O412 Zn405 1.919 . S
O412 C423 1.253 . S
O413 Zn407 1.941 . S
O413 C423 1.283 1_455 S
O414 Zn407 1.965 . S
O414 C422 1.303 . S
O415 Zn408 1.938 . S
O415 C422 1.247 1_545 S
O416 Zn408 1.906 . S
O416 C424 1.304 . S
O417 Zn405 1.924 1_545 S
O417 C425 1.311 . S
O418 Zn409 1.980 . S
O418 C424 1.263 1_655 S
O419 Zn409 1.910 . S
O419 C425 1.231 . S
C420 O404 1.225 . S
C420 O426 1.298 . S
C421 O410 1.226 1_655 S
C421 O411 1.307 1_565 S
C422 O414 1.303 . S
C422 O415 1.247 1_565 S
C423 O412 1.253 . S
C423 O413 1.283 1_655 S
C424 O416 1.304 . S
C424 O418 1.263 1_455 S
C425 O417 1.311 . S
C425 O419 1.231 . S
O426 Zn408 1.953 . S
O426 C420 1.298 . S
O427 Zn428 1.953 . S
O427 C443 1.225 . S
Zn428 O427 1.953 . S
Zn428 O429 1.949 . S
Zn428 O435 1.919 . S
Zn428 O440 1.924 . S
O429 Zn428 1.949 . S
O429 Zn430 1.923 . S
O429 Zn431 1.950 . S
O429 Zn432 1.945 . S
Zn430 O429 1.923 . S
Zn430 O433 1.933 . S
Zn430 O436 1.941 . S
Zn430 O437 1.965 . S
Zn431 O429 1.950 . S
Zn431 O438 1.938 . S
Zn431 O439 1.906 . S
Zn431 O449 1.953 . S
Zn432 O429 1.945 . S
Zn432 O434 1.932 . S
Zn432 O441 1.977 . S
Zn432 O442 1.910 . S
O433 Zn430 1.933 . S
O433 C444 1.226 . S
O434 Zn432 1.932 . S
O434 C444 1.307 . S
O435 Zn428 1.919 . S
O435 C446 1.253 . S
O436 Zn430 1.941 . S
O436 C446 1.283 . S
O437 Zn430 1.965 . S
O437 C445 1.303 . S
O438 Zn431 1.938 . S
O438 C445 1.247 . S
O439 Zn431 1.906 . S
O439 C447 1.304 . S
O440 Zn428 1.924 . S
O440 C448 1.311 . S
O441 Zn432 1.977 . S
O441 C447 1.272 . S
O442 Zn432 1.910 . S
O442 C448 1.231 . S
C443 O427 1.225 . S
C443 O449 1.298 . S
C444 O433 1.226 . S
C444 O434 1.307 . S
C445 O437 1.303 . S
C445 O438 1.247 . S
C446 O435 1.253 . S
C446 O436 1.283 . S
C447 O439 1.304 . S
C447 O441 1.272 . S
C448 O440 1.311 . S
C448 O442 1.231 . S
O449 Zn431 1.953 . S
O449 C443 1.298 . S
O450 Zn451 1.953 . S
O450 C466 1.225 . S
Zn451 O450 1.953 . S
Zn451 O452 1.949 . S
Zn451 O458 1.906 1_545 S
Zn451 O463 1.924 . S
O452 Zn451 1.949 . S
O452 Zn453 1.923 1_544 S
O452 Zn454 1.950 . S
O452 Zn455 1.945 1_554 S
Zn453 O452 1.923 1_566 S
Zn453 O456 1.933 . S
Zn453 O459 1.941 . S
Zn453 O460 1.965 1_556 S
Zn454 O452 1.950 . S
Zn454 O461 1.938 1_545 S
Zn454 O462 1.906 . S
Zn454 O472 1.953 . S
Zn455 O452 1.945 1_556 S
Zn455 O457 1.932 . S
Zn455 O464 1.977 1_556 S
Zn455 O465 1.910 . S
O456 Zn453 1.933 . S
O456 C467 1.226 . S
O457 Zn455 1.932 . S
O457 C467 1.307 1_545 S
O458 Zn451 1.906 1_565 S
O458 C469 1.272 1_554 S
O459 Zn453 1.941 . S
O459 C469 1.283 . S
O460 Zn453 1.965 1_554 S
O460 C468 1.303 . S
O461 Zn454 1.938 1_565 S
O461 C468 1.247 . S
O462 Zn454 1.906 . S
O462 C470 1.304 . S
O463 Zn451 1.924 . S
O463 C471 1.311 1_554 S
O464 Zn455 1.977 1_554 S
O464 C470 1.272 . S
O465 Zn455 1.910 . S
O465 C471 1.231 . S
C466 O450 1.225 . S
C466 O472 1.298 . S
C467 O456 1.226 . S
C467 O457 1.307 1_565 S
C468 O460 1.303 . S
C468 O461 1.247 . S
C469 O458 1.272 1_556 S
C469 O459 1.283 . S
C470 O462 1.304 . S
C470 O464 1.272 . S
C471 O463 1.311 1_556 S
C471 O465 1.231 . S
O472 Zn454 1.953 . S
O472 C466 1.298 . S
O473 Zn474 1.953 . S
O473 C489 1.225 . S
Zn474 O473 1.953 . S
Zn474 O475 1.949 . S
Zn474 O481 1.919 . S
Zn474 O486 1.924 . S
O475 Zn474 1.949 . S
O475 Zn476 1.923 . S
O475 Zn477 1.950 . S
O475 Zn478 1.945 . S
Zn476 O475 1.923 . S
Zn476 O479 1.933 . S
Zn476 O482 1.941 . S
Zn476 O483 1.965 . S
Zn477 O475 1.950 . S
Zn477 O484 1.938 . S
Zn477 O485 1.906 . S
Zn477 O495 1.953 . S
Zn478 O475 1.945 . S
Zn478 O480 1.932 . S
Zn478 O487 1.977 . S
Zn478 O488 1.910 . S
O479 Zn476 1.933 . S
O479 C490 1.226 . S
O480 Zn478 1.932 . S
O480 C490 1.307 . S
O481 Zn474 1.919 . S
O481 C492 1.253 . S
O482 Zn476 1.941 . S
O482 C492 1.283 . S
O483 Zn476 1.965 . S
O483 C491 1.303 . S
O484 Zn477 1.938 . S
O484 C491 1.247 . S
O485 Zn477 1.906 . S
O485 C493 1.304 . S
O486 Zn474 1.924 . S
O486 C494 1.311 . S
O487 Zn478 1.977 . S
O487 C493 1.272 . S
O488 Zn478 1.910 . S
O488 C494 1.231 . S
C489 O473 1.225 . S
C489 O495 1.298 . S
C490 O479 1.226 . S
C490 O480 1.307 . S
C491 O483 1.303 . S
C491 O484 1.247 . S
C492 O481 1.253 . S
C492 O482 1.283 . S
C493 O485 1.304 . S
C493 O487 1.272 . S
C494 O486 1.311 . S
C494 O488 1.231 . S
O495 Zn477 1.953 . S
O495 C489 1.298 . S
O496 Zn497 1.953 . S
O496 C512 1.225 . S
Zn497 O496 1.953 . S
Zn497 O498 1.949 1_556 S
Zn497 O504 1.919 . S
Zn497 O509 1.924 . S
O498 Zn497 1.949 1_554 S
O498 Zn499 1.923 . S
O498 Zn500 1.950 . S
O498 Zn501 1.945 . S
Zn499 O498 1.923 . S
Zn499 O502 1.933 . S
Zn499 O505 1.941 . S
Zn499 O506 1.965 . S
Zn500 O498 1.950 . S
Zn500 O507 1.938 . S
Zn500 O508 1.906 . S
Zn500 O518 1.953 1_554 S
Zn501 O498 1.945 . S
Zn501 O503 1.932 . S
Zn501 O510 1.977 . S
Zn501 O511 1.910 . S
O502 Zn499 1.933 . S
O502 C513 1.226 . S
O503 Zn501 1.932 . S
O503 C513 1.307 . S
O504 Zn497 1.919 . S
O504 C515 1.253 . S
O505 Zn499 1.941 . S
O505 C515 1.283 1_554 S
O506 Zn499 1.965 . S
O506 C514 1.303 . S
O507 Zn500 1.938 . S
O507 C514 1.247 . S
O508 Zn500 1.906 . S
O508 C516 1.304 . S
O509 Zn497 1.924 . S
O509 C517 1.311 . S
O510 Zn501 1.977 . S
O510 C516 1.272 . S
O511 Zn501 1.910 . S
O511 C517 1.231 1_554 S
C512 O496 1.225 . S
C512 O518 1.298 . S
C513 O502 1.226 . S
C513 O503 1.307 . S
C514 O506 1.303 . S
C514 O507 1.247 . S
C515 O504 1.253 . S
C515 O505 1.283 1_556 S
C516 O508 1.304 . S
C516 O510 1.272 . S
C517 O509 1.311 . S
C517 O511 1.231 1_556 S
O518 Zn500 1.953 1_556 S
O518 C512 1.298 . S
O519 Zn520 1.953 . S
O519 C535 1.225 . S
Zn520 O519 1.953 . S
Zn520 O521 1.949 . S
Zn520 O527 1.919 . S
Zn520 O532 1.924 . S
O521 Zn520 1.949 . S
O521 Zn522 1.923 . S
O521 Zn523 1.950 . S
O521 Zn524 1.945 . S
Zn522 O521 1.923 . S
Zn522 O525 1.933 . S
Zn522 O528 1.941 . S
Zn522 O529 1.965 . S
Zn523 O521 1.950 . S
Zn523 O530 1.938 . S
Zn523 O531 1.906 . S
Zn523 O541 1.953 . S
Zn524 O521 1.945 . S
Zn524 O526 1.932 . S
Zn524 O533 1.977 . S
Zn524 O534 1.910 . S
O525 Zn522 1.933 . S
O525 C536 1.226 . S
O526 Zn524 1.932 . S
O526 C536 1.307 . S
O527 Zn520 1.919 . S
O527 C538 1.253 . S
O528 Zn522 1.941 . S
O528 C538 1.283 . S
O529 Zn522 1.965 . S
O529 C537 1.303 . S
O530 Zn523 1.938 . S
O530 C537 1.247 . S
O531 Zn523 1.906 . S
O531 C539 1.304 . S
O532 Zn520 1.924 . S
O532 C540 1.311 . S
O533 Zn524 1.977 . S
O533 C539 1.272 . S
O534 Zn524 1.910 . S
O534 C540 1.231 . S
C535 O519 1.225 . S
C535 O541 1.298 . S
C536 O525 1.226 . S
C536 O526 1.307 . S
C537 O529 1.303 . S
C537 O530 1.247 . S
C538 O527 1.253 . S
C538 O528 1.283 . S
C539 O531 1.304 . S
C539 O533 1.272 . S
C540 O532 1.311 . S
C540 O534 1.231 . S
O541 Zn523 1.953 . S
O541 C535 1.298 . S
O542 Zn543 1.953 . S
O542 C558 1.225 . S
Zn543 O542 1.953 . S
Zn543 O544 1.933 1_455 S
Zn543 O550 1.919 . S
Zn543 O555 1.924 . S
O544 Zn543 1.933 1_655 S
O544 Zn545 1.921 1_655 S
O544 Zn546 1.959 . S
O544 Zn547 1.952 . S
Zn545 O544 1.921 1_455 S
Zn545 O548 1.921 1_455 S
Zn545 O551 1.971 . S
Zn545 O552 1.956 1_455 S
Zn546 O544 1.959 . S
Zn546 O553 1.938 . S
Zn546 O554 1.906 . S
Zn546 O564 1.940 1_655 S
Zn547 O544 1.952 . S
Zn547 O549 1.932 . S
Zn547 O556 1.977 . S
Zn547 O557 1.912 . S
O548 Zn545 1.921 1_655 S
O548 C559 1.226 . S
O549 Zn547 1.932 . S
O549 C559 1.307 . S
O550 Zn543 1.919 . S
O550 C561 1.253 . S
O551 Zn545 1.971 . S
O551 C561 1.283 . S
O552 Zn545 1.956 1_655 S
O552 C560 1.303 . S
O553 Zn546 1.938 . S
O553 C560 1.247 . S
O554 Zn546 1.906 . S
O554 C562 1.304 . S
O555 Zn543 1.924 . S
O555 C563 1.311 . S
O556 Zn547 1.977 . S
O556 C562 1.272 . S
O557 Zn547 1.912 . S
O557 C563 1.228 1_655 S
C558 O542 1.225 . S
C558 O564 1.324 . S
C559 O548 1.226 . S
C559 O549 1.307 . S
C560 O552 1.303 . S
C560 O553 1.247 . S
C561 O550 1.253 . S
C561 O551 1.283 . S
C562 O554 1.304 . S
C562 O556 1.272 . S
C563 O555 1.311 . S
C563 O557 1.228 1_455 S
O564 Zn546 1.940 1_455 S
O564 C558 1.324 . S
O565 Zn566 1.953 . S
O565 C581 1.225 . S
Zn566 O565 1.953 . S
Zn566 O567 1.949 . S
Zn566 O573 1.919 . S
Zn566 O578 1.924 . S
O567 Zn566 1.949 . S
O567 Zn568 1.923 . S
O567 Zn569 1.950 . S
O567 Zn570 1.945 . S
Zn568 O567 1.923 . S
Zn568 O571 1.933 . S
Zn568 O574 1.941 . S
Zn568 O575 1.965 . S
Zn569 O567 1.950 . S
Zn569 O576 1.938 . S
Zn569 O577 1.906 . S
Zn569 O587 1.953 . S
Zn570 O567 1.945 . S
Zn570 O572 1.932 . S
Zn570 O579 1.977 . S
Zn570 O580 1.910 . S
O571 Zn568 1.933 . S
O571 C582 1.226 . S
O572 Zn570 1.932 . S
O572 C582 1.307 . S
O573 Zn566 1.919 . S
O573 C584 1.253 . S
O574 Zn568 1.941 . S
O574 C584 1.283 . S
O575 Zn568 1.965 . S
O575 C583 1.303 . S
O576 Zn569 1.938 . S
O576 C583 1.247 . S
O577 Zn569 1.906 . S
O577 C585 1.304 . S
O578 Zn566 1.924 . S
O578 C586 1.311 . S
O579 Zn570 1.977 . S
O579 C585 1.272 . S
O580 Zn570 1.910 . S
O580 C586 1.231 . S
C581 O565 1.225 . S
C581 O587 1.298 . S
C582 O571 1.226 . S
C582 O572 1.307 . S
C583 O575 1.303 . S
C583 O576 1.247 . S
C584 O573 1.253 . S
C584 O574 1.283 . S
C585 O577 1.304 . S
C585 O579 1.272 . S
C586 O578 1.311 . S
C586 O580 1.231 . S
O587 Zn569 1.953 . S
O587 C581 1.298 . S
O588 Zn589 1.953 . S
O588 C604 1.225 . S
Zn589 O588 1.953 . S
Zn589 O590 1.949 . S
Zn589 O596 1.919 . S
Zn589 O601 1.924 . S
O590 Zn589 1.949 . S
O590 Zn591 1.923 . S
O590 Zn592 1.950 . S
O590 Zn593 1.945 . S
Zn591 O590 1.923 . S
Zn591 O594 1.933 . S
Zn591 O597 1.941 . S
Zn591 O598 1.965 . S
Zn592 O590 1.950 . S
Zn592 O599 1.938 . S
Zn592 O600 1.906 . S
Zn592 O610 1.953 . S
Zn593 O590 1.945 . S
Zn593 O595 1.932 . S
Zn593 O602 1.977 . S
Zn593 O603 1.910 . S
O594 Zn591 1.933 . S
O594 C605 1.226 . S
O595 Zn593 1.932 . S
O595 C605 1.307 . S
O596 Zn589 1.919 . S
O596 C607 1.253 . S
O597 Zn591 1.941 . S
O597 C607 1.283 . S
O598 Zn591 1.965 . S
O598 C606 1.303 . S
O599 Zn592 1.938 . S
O599 C606 1.247 . S
O600 Zn592 1.906 . S
O600 C608 1.304 . S
O601 Zn589 1.924 . S
O601 C609 1.311 . S
O602 Zn593 1.977 . S
O602 C608 1.272 . S
O603 Zn593 1.910 . S
O603 C609 1.231 . S
C604 O588 1.225 . S
C604 O610 1.298 . S
C605 O594 1.226 . S
C605 O595 1.307 . S
C606 O598 1.303 . S
C606 O599 1.247 . S
C607 O596 1.253 . S
C607 O597 1.283 . S
C608 O600 1.304 . S
C608 O602 1.272 . S
C609 O601 1.311 . S
C609 O603 1.231 . S
O610 Zn592 1.953 . S
O610 C604 1.298 . S
O611 Zn612 1.953 . S
O611 C627 1.225 . S
Zn612 O611 1.953 . S
Zn612 O613 1.949 . S
Zn612 O619 1.919 . S
Zn612 O624 1.924 . S
O613 Zn612 1.949 . S
O613 Zn614 1.923 . S
O613 Zn615 1.950 . S
O613 Zn616 1.945 . S
Zn614 O613 1.923 . S
Zn614 O617 1.933 . S
Zn614 O620 1.941 . S
Zn614 O621 1.965 . S
Zn615 O613 1.950 . S
Zn615 O622 1.938 . S
Zn615 O623 1.906 . S
Zn615 O633 1.953 . S
Zn616 O613 1.945 . S
Zn616 O618 1.932 . S
Zn616 O625 1.977 . S
Zn616 O626 1.910 . S
O617 Zn614 1.933 . S
O617 C628 1.226 . S
O618 Zn616 1.932 . S
O618 C628 1.307 . S
O619 Zn612 1.919 . S
O619 C630 1.253 . S
O620 Zn614 1.941 . S
O620 C630 1.283 . S
O621 Zn614 1.965 . S
O621 C629 1.303 . S
O622 Zn615 1.938 . S
O622 C629 1.247 . S
O623 Zn615 1.906 . S
O623 C631 1.304 . S
O624 Zn612 1.924 . S
O624 C632 1.311 . S
O625 Zn616 1.977 . S
O625 C631 1.272 . S
O626 Zn616 1.910 . S
O626 C632 1.231 . S
C627 O611 1.225 . S
C627 O633 1.298 . S
C628 O617 1.226 . S
C628 O618 1.307 . S
C629 O621 1.303 . S
C629 O622 1.247 . S
C630 O619 1.253 . S
C630 O620 1.283 . S
C631 O623 1.304 . S
C631 O625 1.272 . S
C632 O624 1.311 . S
C632 O626 1.231 . S
O633 Zn615 1.953 . S
O633 C627 1.298 . S
O634 Zn635 1.953 . S
O634 C650 1.225 . S
Zn635 O634 1.953 . S
Zn635 O636 1.949 . S
Zn635 O642 1.919 . S
Zn635 O647 1.924 . S
O636 Zn635 1.949 . S
O636 Zn637 1.923 . S
O636 Zn638 1.950 . S
O636 Zn639 1.945 . S
Zn637 O636 1.923 . S
Zn637 O640 1.933 . S
Zn637 O643 1.941 . S
Zn637 O644 1.965 . S
Zn638 O636 1.950 . S
Zn638 O645 1.938 . S
Zn638 O646 1.906 . S
Zn638 O656 1.953 . S
Zn639 O636 1.945 . S
Zn639 O641 1.932 . S
Zn639 O648 1.977 . S
Zn639 O649 1.910 . S
O640 Zn637 1.933 . S
O640 C651 1.226 . S
O641 Zn639 1.932 . S
O641 C651 1.307 . S
O642 Zn635 1.919 . S
O642 C653 1.253 . S
O643 Zn637 1.941 . S
O643 C653 1.283 . S
O644 Zn637 1.965 . S
O644 C652 1.303 . S
O645 Zn638 1.938 . S
O645 C652 1.247 . S
O646 Zn638 1.906 . S
O646 C654 1.304 . S
O647 Zn635 1.924 . S
O647 C655 1.311 . S
O648 Zn639 1.977 . S
O648 C654 1.272 . S
O649 Zn639 1.910 . S
O649 C655 1.231 . S
C650 O634 1.225 . S
C650 O656 1.298 . S
C651 O640 1.226 . S
C651 O641 1.307 . S
C652 O644 1.303 . S
C652 O645 1.247 . S
C653 O642 1.253 . S
C653 O643 1.283 . S
C654 O646 1.304 . S
C654 O648 1.272 . S
C655 O647 1.311 . S
C655 O649 1.231 . S
O656 Zn638 1.953 . S
O656 C650 1.298 . S
O657 Zn658 1.953 1_455 S
O657 C673 1.225 . S
Zn658 O657 1.953 1_655 S
Zn658 O659 1.949 1_655 S
Zn658 O665 1.919 1_554 S
Zn658 O670 1.924 1_654 S
O659 Zn658 1.949 1_455 S
O659 Zn660 1.923 1_455 S
O659 Zn661 1.950 . S
O659 Zn662 1.945 1_554 S
Zn660 O659 1.923 1_655 S
Zn660 O663 1.933 . S
Zn660 O666 1.941 . S
Zn660 O667 1.965 . S
Zn661 O659 1.950 . S
Zn661 O668 1.938 . S
Zn661 O669 1.906 . S
Zn661 O679 1.953 . S
Zn662 O659 1.945 1_556 S
Zn662 O664 1.932 . S
Zn662 O671 1.977 1_556 S
Zn662 O672 1.910 . S
O663 Zn660 1.933 . S
O663 C674 1.226 1_554 S
O664 Zn662 1.932 . S
O664 C674 1.307 1_455 S
O665 Zn658 1.919 1_556 S
O665 C676 1.253 1_556 S
O666 Zn660 1.941 . S
O666 C676 1.283 . S
O667 Zn660 1.965 . S
O667 C675 1.303 . S
O668 Zn661 1.938 . S
O668 C675 1.247 1_455 S
O669 Zn661 1.906 . S
O669 C677 1.304 . S
O670 Zn658 1.924 1_456 S
O670 C678 1.311 . S
O671 Zn662 1.977 1_554 S
O671 C677 1.272 . S
O672 Zn662 1.910 . S
O672 C678 1.231 . S
C673 O657 1.225 . S
C673 O679 1.298 . S
C674 O663 1.226 1_556 S
C674 O664 1.307 1_655 S
C675 O667 1.303 . S
C675 O668 1.247 1_655 S
C676 O665 1.253 1_554 S
C676 O666 1.283 . S
C677 O669 1.304 . S
C677 O671 1.272 . S
C678 O670 1.311 . S
C678 O672 1.231 . S
O679 Zn661 1.953 . S
O679 C673 1.298 . S
H680 C686 0.930 . S
H681 C689 0.930 . S
H682 C690 0.930 . S
H683 C691 0.930 . S
H684 C694 0.930 . S
H685 C695 0.930 . S
C686 H680 0.930 . S
C686 C687 1.355 . S
C686 C688 1.415 . S
C687 C686 1.355 . S
C687 C689 1.419 1_455 S
C688 C686 1.415 . S
C688 C693 1.425 1_455 S
C688 C695 1.409 . S
C689 H681 0.930 . S
C689 C687 1.419 1_655 S
C689 C690 1.362 . S
C690 H682 0.930 . S
C690 C689 1.362 . S
C690 C693 1.409 . S
C691 H683 0.930 . S
C691 C692 1.355 . S
C691 C693 1.415 . S
C692 C691 1.355 . S
C692 C694 1.419 1_655 S
C693 C688 1.425 1_655 S
C693 C690 1.409 . S
C693 C691 1.415 . S
C694 H684 0.930 . S
C694 C692 1.419 1_455 S
C694 C695 1.362 . S
C695 H685 0.930 . S
C695 C688 1.409 . S
C695 C694 1.362 . S
H696 C702 0.930 . S
H697 C705 0.930 . S
H698 C706 0.930 . S
H699 C707 0.930 . S
H700 C710 0.930 . S
H701 C711 0.930 . S
C702 H696 0.930 . S
C702 C703 1.355 . S
C702 C704 1.415 . S
C703 C702 1.355 . S
C703 C705 1.419 . S
C704 C702 1.415 . S
C704 C709 1.425 . S
C704 C711 1.409 . S
C705 H697 0.930 . S
C705 C703 1.419 . S
C705 C706 1.362 . S
C706 H698 0.930 . S
C706 C705 1.362 . S
C706 C709 1.409 . S
C707 H699 0.930 . S
C707 C708 1.355 . S
C707 C709 1.415 . S
C708 C707 1.355 . S
C708 C710 1.419 . S
C709 C704 1.425 . S
C709 C706 1.409 . S
C709 C707 1.415 . S
C710 H700 0.930 . S
C710 C708 1.419 . S
C710 C711 1.362 . S
C711 H701 0.930 . S
C711 C704 1.409 . S
C711 C710 1.362 . S
H712 C718 0.930 . S
H713 C721 0.930 . S
H714 C722 0.930 . S
H715 C723 0.930 . S
H716 C726 0.930 . S
H717 C727 0.930 . S
C718 H712 0.930 . S
C718 C719 1.355 . S
C718 C720 1.415 . S
C719 C718 1.355 . S
C719 C721 1.419 . S
C720 C718 1.415 . S
C720 C725 1.425 . S
C720 C727 1.409 . S
C721 H713 0.930 . S
C721 C719 1.419 . S
C721 C722 1.362 . S
C722 H714 0.930 . S
C722 C721 1.362 . S
C722 C725 1.409 . S
C723 H715 0.930 . S
C723 C724 1.355 . S
C723 C725 1.415 . S
C724 C723 1.355 . S
C724 C726 1.419 . S
C725 C720 1.425 . S
C725 C722 1.409 . S
C725 C723 1.415 . S
C726 H716 0.930 . S
C726 C724 1.419 . S
C726 C727 1.362 . S
C727 H717 0.930 . S
C727 C720 1.409 . S
C727 C726 1.362 . S
H728 C734 0.930 . S
H729 C737 0.930 . S
H730 C738 0.930 . S
H731 C739 0.930 . S
H732 C742 0.930 . S
H733 C743 0.930 . S
C734 H728 0.930 . S
C734 C735 1.355 . S
C734 C736 1.415 . S
C735 C734 1.355 . S
C735 C737 1.419 . S
C736 C734 1.415 . S
C736 C741 1.425 . S
C736 C743 1.409 . S
C737 H729 0.930 . S
C737 C735 1.419 . S
C737 C738 1.362 . S
C738 H730 0.930 . S
C738 C737 1.362 . S
C738 C741 1.409 . S
C739 H731 0.930 . S
C739 C740 1.355 . S
C739 C741 1.415 . S
C740 C739 1.355 . S
C740 C742 1.419 . S
C741 C736 1.425 . S
C741 C738 1.409 . S
C741 C739 1.415 . S
C742 H732 0.930 . S
C742 C740 1.419 . S
C742 C743 1.362 . S
C743 H733 0.930 . S
C743 C736 1.409 . S
C743 C742 1.362 . S
H744 C750 0.934 . S
H745 C753 0.930 . S
H746 C754 0.930 . S
H747 C755 0.930 1_455 S
H748 C758 0.930 . S
H749 C759 0.930 . S
C750 H744 0.934 . S
C750 C751 1.348 1_655 S
C750 C752 1.418 . S
C751 C750 1.348 1_455 S
C751 C753 1.419 . S
C752 C750 1.418 . S
C752 C757 1.422 1_655 S
C752 C759 1.409 . S
C753 H745 0.930 . S
C753 C751 1.419 . S
C753 C754 1.362 . S
C754 H746 0.930 . S
C754 C753 1.362 . S
C754 C757 1.415 . S
C755 H747 0.930 1_655 S
C755 C756 1.355 . S
C755 C757 1.412 1_655 S
C756 C755 1.355 . S
C756 C758 1.419 . S
C757 C752 1.422 1_455 S
C757 C754 1.415 . S
C757 C755 1.412 1_455 S
C758 H748 0.930 . S
C758 C756 1.419 . S
C758 C759 1.362 . S
C759 H749 0.930 . S
C759 C752 1.409 . S
C759 C758 1.362 . S
H760 C766 0.930 . S
H761 C769 0.930 . S
H762 C770 0.930 . S
H763 C771 0.930 . S
H764 C774 0.930 . S
H765 C775 0.930 . S
C766 H760 0.930 . S
C766 C767 1.355 . S
C766 C768 1.415 . S
C767 C766 1.355 . S
C767 C769 1.419 . S
C768 C766 1.415 . S
C768 C773 1.425 . S
C768 C775 1.409 . S
C769 H761 0.930 . S
C769 C767 1.419 . S
C769 C770 1.362 . S
C770 H762 0.930 . S
C770 C769 1.362 . S
C770 C773 1.409 . S
C771 H763 0.930 . S
C771 C772 1.355 . S
C771 C773 1.415 . S
C772 C771 1.355 . S
C772 C774 1.419 . S
C773 C768 1.425 . S
C773 C770 1.409 . S
C773 C771 1.415 . S
C774 H764 0.930 . S
C774 C772 1.419 . S
C774 C775 1.362 . S
C775 H765 0.930 . S
C775 C768 1.409 . S
C775 C774 1.362 . S
H776 C782 0.930 . S
H777 C785 0.930 . S
H778 C786 0.930 . S
H779 C787 0.930 1_554 S
H780 C790 0.930 . S
H781 C791 0.930 . S
C782 H776 0.930 . S
C782 C783 1.355 . S
C782 C784 1.415 . S
C783 C782 1.355 . S
C783 C785 1.419 . S
C784 C782 1.415 . S
C784 C789 1.425 . S
C784 C791 1.409 . S
C785 H777 0.930 . S
C785 C783 1.419 . S
C785 C786 1.362 . S
C786 H778 0.930 . S
C786 C785 1.362 . S
C786 C789 1.409 . S
C787 H779 0.930 1_556 S
C787 C788 1.355 . S
C787 C789 1.415 . S
C788 C787 1.355 . S
C788 C790 1.419 . S
C789 C784 1.425 . S
C789 C786 1.409 . S
C789 C787 1.415 . S
C790 H780 0.930 . S
C790 C788 1.419 . S
C790 C791 1.362 . S
C791 H781 0.930 . S
C791 C784 1.409 . S
C791 C790 1.362 . S
H792 C798 0.930 . S
H793 C801 0.930 . S
H794 C802 0.930 . S
H795 C803 0.930 . S
H796 C806 0.930 . S
H797 C807 0.930 . S
C798 H792 0.930 . S
C798 C799 1.355 . S
C798 C800 1.415 . S
C799 C798 1.355 . S
C799 C801 1.419 . S
C800 C798 1.415 . S
C800 C805 1.425 . S
C800 C807 1.409 . S
C801 H793 0.930 . S
C801 C799 1.419 . S
C801 C802 1.362 . S
C802 H794 0.930 . S
C802 C801 1.362 . S
C802 C805 1.409 . S
C803 H795 0.930 . S
C803 C804 1.355 . S
C803 C805 1.415 . S
C804 C803 1.355 . S
C804 C806 1.419 . S
C805 C800 1.425 . S
C805 C802 1.409 . S
C805 C803 1.415 . S
C806 H796 0.930 . S
C806 C804 1.419 . S
C806 C807 1.362 . S
C807 H797 0.930 . S
C807 C800 1.409 . S
C807 C806 1.362 . S
H808 C814 0.930 . S
H809 C817 0.918 1_565 S
H810 C818 0.930 . S
H811 C819 0.930 . S
H812 C822 0.930 . S
H813 C823 0.930 . S
C814 H808 0.930 . S
C814 C815 1.355 . S
C814 C816 1.415 . S
C815 C814 1.355 . S
C815 C817 1.439 . S
C816 C814 1.415 . S
C816 C821 1.425 . S
C816 C823 1.409 . S
C817 H809 0.918 1_545 S
C817 C815 1.439 . S
C817 C818 1.355 1_545 S
C818 H810 0.930 . S
C818 C817 1.355 1_565 S
C818 C821 1.409 1_565 S
C819 H811 0.930 . S
C819 C820 1.355 1_565 S
C819 C821 1.415 1_565 S
C820 C819 1.355 1_545 S
C820 C822 1.419 . S
C821 C816 1.425 . S
C821 C818 1.409 1_545 S
C821 C819 1.415 1_545 S
C822 H812 0.930 . S
C822 C820 1.419 . S
C822 C823 1.362 . S
C823 H813 0.930 . S
C823 C816 1.409 . S
C823 C822 1.362 . S
H824 C830 0.930 . S
H825 C833 0.930 . S
H826 C834 0.930 . S
H827 C835 0.930 . S
H828 C838 0.930 . S
H829 C839 0.930 . S
C830 H824 0.930 . S
C830 C831 1.355 . S
C830 C832 1.415 . S
C831 C830 1.355 . S
C831 C833 1.419 . S
C832 C830 1.415 . S
C832 C837 1.425 . S
C832 C839 1.409 . S
C833 H825 0.930 . S
C833 C831 1.419 . S
C833 C834 1.362 . S
C834 H826 0.930 . S
C834 C833 1.362 . S
C834 C837 1.409 . S
C835 H827 0.930 . S
C835 C836 1.355 . S
C835 C837 1.415 . S
C836 C835 1.355 . S
C836 C838 1.419 . S
C837 C832 1.425 . S
C837 C834 1.409 . S
C837 C835 1.415 . S
C838 H828 0.930 . S
C838 C836 1.419 . S
C838 C839 1.362 . S
C839 H829 0.930 . S
C839 C832 1.409 . S
C839 C838 1.362 . S
H840 C846 0.930 . S
H841 C849 0.932 . S
H842 C850 0.930 . S
H843 C851 0.930 . S
H844 C854 0.930 . S
H845 C855 0.930 . S
C846 H840 0.930 . S
C846 C847 1.358 . S
C846 C848 1.415 . S
C847 C846 1.358 . S
C847 C849 1.419 1_545 S
C848 C846 1.415 . S
C848 C853 1.425 . S
C848 C855 1.409 . S
C849 H841 0.932 . S
C849 C847 1.419 1_565 S
C849 C850 1.361 1_565 S
C850 H842 0.930 . S
C850 C849 1.361 1_545 S
C850 C853 1.409 . S
C851 H843 0.930 . S
C851 C852 1.355 . S
C851 C853 1.415 . S
C852 C851 1.355 . S
C852 C854 1.419 . S
C853 C848 1.425 . S
C853 C850 1.409 . S
C853 C851 1.415 . S
C854 H844 0.930 . S
C854 C852 1.419 . S
C854 C855 1.362 . S
C855 H845 0.930 . S
C855 C848 1.409 . S
C855 C854 1.362 . S
H856 C862 0.930 . S
H857 C865 0.930 . S
H858 C866 0.930 . S
H859 C867 0.930 . S
H860 C870 0.930 . S
H861 C871 0.930 . S
C862 H856 0.930 . S
C862 C863 1.355 . S
C862 C864 1.415 . S
C863 C862 1.355 . S
C863 C865 1.419 . S
C864 C862 1.415 . S
C864 C869 1.425 . S
C864 C871 1.409 . S
C865 H857 0.930 . S
C865 C863 1.419 . S
C865 C866 1.362 . S
C866 H858 0.930 . S
C866 C865 1.362 . S
C866 C869 1.409 . S
C867 H859 0.930 . S
C867 C868 1.355 . S
C867 C869 1.415 . S
C868 C867 1.355 . S
C868 C870 1.419 . S
C869 C864 1.425 . S
C869 C866 1.409 . S
C869 C867 1.415 . S
C870 H860 0.930 . S
C870 C868 1.419 . S
C870 C871 1.362 . S
C871 H861 0.930 . S
C871 C864 1.409 . S
C871 C870 1.362 . S
H872 C878 0.930 . S
H873 C881 0.930 1_565 S
H874 C882 0.930 1_565 S
H875 C883 0.930 . S
H876 C886 0.930 . S
H877 C887 0.930 . S
C878 H872 0.930 . S
C878 C879 1.355 . S
C878 C880 1.415 . S
C879 C878 1.355 . S
C879 C881 1.419 . S
C880 C878 1.415 . S
C880 C885 1.425 . S
C880 C887 1.409 . S
C881 H873 0.930 1_545 S
C881 C879 1.419 . S
C881 C882 1.362 . S
C882 H874 0.930 1_545 S
C882 C881 1.362 . S
C882 C885 1.409 . S
C883 H875 0.930 . S
C883 C884 1.355 . S
C883 C885 1.415 . S
C884 C883 1.355 . S
C884 C886 1.419 . S
C885 C880 1.425 . S
C885 C882 1.409 . S
C885 C883 1.415 . S
C886 H876 0.930 . S
C886 C884 1.419 . S
C886 C887 1.362 . S
C887 H877 0.930 . S
C887 C880 1.409 . S
C887 C886 1.362 . S
H888 C894 0.930 . S
H889 C897 0.930 . S
H890 C898 0.930 . S
H891 C899 0.930 . S
H892 C902 0.930 . S
H893 C903 0.930 . S
C894 H888 0.930 . S
C894 C895 1.355 . S
C894 C896 1.415 . S
C895 C894 1.355 . S
C895 C897 1.419 . S
C896 C894 1.415 . S
C896 C901 1.425 . S
C896 C903 1.409 . S
C897 H889 0.930 . S
C897 C895 1.419 . S
C897 C898 1.362 . S
C898 H890 0.930 . S
C898 C897 1.362 . S
C898 C901 1.409 . S
C899 H891 0.930 . S
C899 C900 1.355 . S
C899 C901 1.415 . S
C900 C899 1.355 . S
C900 C902 1.419 . S
C901 C896 1.425 . S
C901 C898 1.409 . S
C901 C899 1.415 . S
C902 H892 0.930 . S
C902 C900 1.419 . S
C902 C903 1.362 . S
C903 H893 0.930 . S
C903 C896 1.409 . S
C903 C902 1.362 . S
H904 C910 0.930 . S
H905 C913 0.930 . S
H906 C914 0.930 . S
H907 C915 0.925 1_545 S
H908 C918 0.930 . S
H909 C919 0.930 . S
C910 H904 0.930 . S
C910 C911 1.355 1_565 S
C910 C912 1.415 . S
C911 C910 1.355 1_545 S
C911 C913 1.419 . S
C912 C910 1.415 . S
C912 C917 1.425 1_565 S
C912 C919 1.409 . S
C913 H905 0.930 . S
C913 C911 1.419 . S
C913 C914 1.362 . S
C914 H906 0.930 . S
C914 C913 1.362 . S
C914 C917 1.409 . S
C915 H907 0.925 1_565 S
C915 C916 1.360 . S
C915 C917 1.414 1_565 S
C916 C915 1.360 . S
C916 C918 1.419 . S
C917 C912 1.425 1_545 S
C917 C914 1.409 . S
C917 C915 1.414 1_545 S
C918 H908 0.930 . S
C918 C916 1.419 . S
C918 C919 1.362 . S
C919 H909 0.930 . S
C919 C912 1.409 . S
C919 C918 1.362 . S
H920 C926 0.930 . S
H921 C929 0.930 . S
H922 C930 0.930 . S
H923 C931 0.930 . S
H924 C934 0.930 . S
H925 C935 0.930 . S
C926 H920 0.930 . S
C926 C927 1.355 . S
C926 C928 1.415 . S
C927 C926 1.355 . S
C927 C929 1.419 . S
C928 C926 1.415 . S
C928 C933 1.425 . S
C928 C935 1.409 . S
C929 H921 0.930 . S
C929 C927 1.419 . S
C929 C930 1.362 . S
C930 H922 0.930 . S
C930 C929 1.362 . S
C930 C933 1.409 . S
C931 H923 0.930 . S
C931 C932 1.355 . S
C931 C933 1.415 . S
C932 C931 1.355 . S
C932 C934 1.419 . S
C933 C928 1.425 . S
C933 C930 1.409 . S
C933 C931 1.415 . S
C934 H924 0.930 . S
C934 C932 1.419 . S
C934 C935 1.362 . S
C935 H925 0.930 . S
C935 C928 1.409 . S
C935 C934 1.362 . S
H936 C942 0.930 . S
H937 C945 0.930 . S
H938 C946 0.930 . S
H939 C947 0.930 . S
H940 C950 0.930 . S
H941 C951 0.930 . S
C942 H936 0.930 . S
C942 C943 1.355 1_556 S
C942 C944 1.415 . S
C943 C942 1.355 1_554 S
C943 C945 1.419 . S
C944 C942 1.415 . S
C944 C949 1.425 1_556 S
C944 C951 1.409 . S
C945 H937 0.930 . S
C945 C943 1.419 . S
C945 C946 1.362 . S
C946 H938 0.930 . S
C946 C945 1.362 . S
C946 C949 1.409 . S
C947 H939 0.930 . S
C947 C948 1.355 1_554 S
C947 C949 1.415 . S
C948 C947 1.355 1_556 S
C948 C950 1.419 . S
C949 C944 1.425 1_554 S
C949 C946 1.409 . S
C949 C947 1.415 . S
C950 H940 0.930 . S
C950 C948 1.419 . S
C950 C951 1.362 . S
C951 H941 0.930 . S
C951 C944 1.409 . S
C951 C950 1.362 . S
H952 C958 0.930 . S
H953 C961 0.930 . S
H954 C962 0.930 . S
H955 C963 0.916 1_556 S
H956 C966 0.930 . S
H957 C967 0.930 . S
C958 H952 0.930 . S
C958 C959 1.355 . S
C958 C960 1.415 . S
C959 C958 1.355 . S
C959 C961 1.419 1_554 S
C960 C958 1.415 . S
C960 C965 1.425 . S
C960 C967 1.409 . S
C961 H953 0.930 . S
C961 C959 1.419 1_556 S
C961 C962 1.362 . S
C962 H954 0.930 . S
C962 C961 1.362 . S
C962 C965 1.409 1_556 S
C963 H955 0.916 1_554 S
C963 C964 1.355 . S
C963 C965 1.415 . S
C964 C963 1.355 . S
C964 C966 1.419 . S
C965 C960 1.425 . S
C965 C962 1.409 1_554 S
C965 C963 1.415 . S
C966 H956 0.930 . S
C966 C964 1.419 . S
C966 C967 1.362 . S
C967 H957 0.930 . S
C967 C960 1.409 . S
C967 C966 1.362 . S
H968 C974 0.930 . S
H969 C977 0.930 . S
H970 C978 0.930 . S
H971 C979 0.930 . S
H972 C982 0.930 . S
H973 C983 0.930 . S
C974 H968 0.930 . S
C974 C975 1.355 . S
C974 C976 1.415 . S
C975 C974 1.355 . S
C975 C977 1.419 . S
C976 C974 1.415 . S
C976 C981 1.425 . S
C976 C983 1.409 . S
C977 H969 0.930 . S
C977 C975 1.419 . S
C977 C978 1.362 . S
C978 H970 0.930 . S
C978 C977 1.362 . S
C978 C981 1.409 . S
C979 H971 0.930 . S
C979 C980 1.355 . S
C979 C981 1.415 . S
C980 C979 1.355 . S
C980 C982 1.419 . S
C981 C976 1.425 . S
C981 C978 1.409 . S
C981 C979 1.415 . S
C982 H972 0.930 . S
C982 C980 1.419 . S
C982 C983 1.362 . S
C983 H973 0.930 . S
C983 C976 1.409 . S
C983 C982 1.362 . S
H984 C990 0.930 . S
H985 C993 0.930 . S
H986 C994 0.930 . S
H987 C995 0.930 . S
H988 C998 0.930 . S
H989 C999 0.930 . S
C990 H984 0.930 . S
C990 C991 1.355 . S
C990 C992 1.415 . S
C991 C990 1.355 . S
C991 C993 1.419 . S
C992 C990 1.415 . S
C992 C997 1.425 . S
C992 C999 1.409 . S
C993 H985 0.930 . S
C993 C991 1.419 . S
C993 C994 1.362 . S
C994 H986 0.930 . S
C994 C993 1.362 . S
C994 C997 1.409 . S
C995 H987 0.930 . S
C995 C996 1.355 . S
C995 C997 1.415 . S
C996 C995 1.355 . S
C996 C998 1.419 . S
C997 C992 1.425 . S
C997 C994 1.409 . S
C997 C995 1.415 . S
C998 H988 0.930 . S
C998 C996 1.419 . S
C998 C999 1.362 . S
C999 H989 0.930 . S
C999 C992 1.409 . S
C999 C998 1.362 . S
H1000 C1006 0.930 . S
H1001 C1009 0.930 . S
H1002 C1010 0.930 . S
H1003 C1011 0.930 . S
H1004 C1014 0.930 . S
H1005 C1015 0.930 . S
C1006 H1000 0.930 . S
C1006 C1007 1.355 . S
C1006 C1008 1.415 . S
C1007 C1006 1.355 . S
C1007 C1009 1.419 . S
C1008 C1006 1.415 . S
C1008 C1013 1.425 . S
C1008 C1015 1.409 . S
C1009 H1001 0.930 . S
C1009 C1007 1.419 . S
C1009 C1010 1.362 . S
C1010 H1002 0.930 . S
C1010 C1009 1.362 . S
C1010 C1013 1.409 . S
C1011 H1003 0.930 . S
C1011 C1012 1.355 . S
C1011 C1013 1.415 . S
C1012 C1011 1.355 . S
C1012 C1014 1.419 . S
C1013 C1008 1.425 . S
C1013 C1010 1.409 . S
C1013 C1011 1.415 . S
C1014 H1004 0.930 . S
C1014 C1012 1.419 . S
C1014 C1015 1.362 . S
C1015 H1005 0.930 . S
C1015 C1008 1.409 . S
C1015 C1014 1.362 . S
H1016 C1022 0.930 . S
H1017 C1025 0.930 . S
H1018 C1026 0.930 . S
H1019 C1027 0.930 . S
H1020 C1030 0.930 . S
H1021 C1031 0.930 . S
C1022 H1016 0.930 . S
C1022 C1023 1.355 . S
C1022 C1024 1.415 . S
C1023 C1022 1.355 . S
C1023 C1025 1.419 . S
C1024 C1022 1.415 . S
C1024 C1029 1.425 . S
C1024 C1031 1.409 . S
C1025 H1017 0.930 . S
C1025 C1023 1.419 . S
C1025 C1026 1.362 . S
C1026 H1018 0.930 . S
C1026 C1025 1.362 . S
C1026 C1029 1.409 . S
C1027 H1019 0.930 . S
C1027 C1028 1.355 . S
C1027 C1029 1.415 . S
C1028 C1027 1.355 . S
C1028 C1030 1.419 . S
C1029 C1024 1.425 . S
C1029 C1026 1.409 . S
C1029 C1027 1.415 . S
C1030 H1020 0.930 . S
C1030 C1028 1.419 . S
C1030 C1031 1.362 . S
C1031 H1021 0.930 . S
C1031 C1024 1.409 . S
C1031 C1030 1.362 . S
H1032 C1038 0.930 . S
H1033 C1041 0.930 . S
H1034 C1042 0.930 . S
H1035 C1043 0.930 . S
H1036 C1046 0.930 . S
H1037 C1047 0.930 . S
C1038 H1032 0.930 . S
C1038 C1039 1.355 . S
C1038 C1040 1.415 . S
C1039 C1038 1.355 . S
C1039 C1041 1.419 . S
C1040 C1038 1.415 . S
C1040 C1045 1.425 . S
C1040 C1047 1.409 . S
C1041 H1033 0.930 . S
C1041 C1039 1.419 . S
C1041 C1042 1.362 . S
C1042 H1034 0.930 . S
C1042 C1041 1.362 . S
C1042 C1045 1.409 . S
C1043 H1035 0.930 . S
C1043 C1044 1.355 . S
C1043 C1045 1.415 . S
C1044 C1043 1.355 . S
C1044 C1046 1.419 . S
C1045 C1040 1.425 . S
C1045 C1042 1.409 . S
C1045 C1043 1.415 . S
C1046 H1036 0.930 . S
C1046 C1044 1.419 . S
C1046 C1047 1.362 . S
C1047 H1037 0.930 . S
C1047 C1040 1.409 . S
C1047 C1046 1.362 . S
H1048 C1054 0.930 . S
H1049 C1057 0.930 . S
H1050 C1058 0.930 . S
H1051 C1059 0.930 . S
H1052 C1062 0.930 . S
H1053 C1063 0.930 . S
C1054 H1048 0.930 . S
C1054 C1055 1.355 . S
C1054 C1056 1.415 . S
C1055 C1054 1.355 . S
C1055 C1057 1.419 . S
C1056 C1054 1.415 . S
C1056 C1061 1.425 . S
C1056 C1063 1.409 . S
C1057 H1049 0.930 . S
C1057 C1055 1.419 . S
C1057 C1058 1.362 . S
C1058 H1050 0.930 . S
C1058 C1057 1.362 . S
C1058 C1061 1.409 . S
C1059 H1051 0.930 . S
C1059 C1060 1.355 . S
C1059 C1061 1.415 . S
C1060 C1059 1.355 . S
C1060 C1062 1.419 . S
C1061 C1056 1.425 . S
C1061 C1058 1.409 . S
C1061 C1059 1.415 . S
C1062 H1052 0.930 . S
C1062 C1060 1.419 . S
C1062 C1063 1.362 . S
C1063 H1053 0.930 . S
C1063 C1056 1.409 . S
C1063 C1062 1.362 . S
H1064 C1070 0.938 . S
H1065 C1073 0.930 . S
H1066 C1074 0.930 . S
H1067 C1075 0.930 . S
H1068 C1078 0.930 1_655 S
H1069 C1079 0.930 1_554 S
C1070 H1064 0.938 . S
C1070 C1071 1.350 1_655 S
C1070 C1072 1.411 1_655 S
C1071 C1070 1.350 1_455 S
C1071 C1073 1.419 . S
C1072 C1070 1.411 1_455 S
C1072 C1077 1.425 . S
C1072 C1079 1.409 1_455 S
C1073 H1065 0.930 . S
C1073 C1071 1.419 . S
C1073 C1074 1.362 . S
C1074 H1066 0.930 . S
C1074 C1073 1.362 . S
C1074 C1077 1.409 . S
C1075 H1067 0.930 . S
C1075 C1076 1.355 . S
C1075 C1077 1.415 . S
C1076 C1075 1.355 . S
C1076 C1078 1.419 1_556 S
C1077 C1072 1.425 . S
C1077 C1074 1.409 . S
C1077 C1075 1.415 . S
C1078 H1068 0.930 1_455 S
C1078 C1076 1.419 1_554 S
C1078 C1079 1.362 1_454 S
C1079 H1069 0.930 1_556 S
C1079 C1072 1.409 1_655 S
C1079 C1078 1.362 1_656 S
H1080 C1086 0.930 . S
H1081 C1089 0.930 . S
H1082 C1090 0.930 . S
H1083 C1091 0.930 . S
H1084 C1094 0.930 . S
H1085 C1095 0.930 . S
C1086 H1080 0.930 . S
C1086 C1087 1.355 . S
C1086 C1088 1.415 . S
C1087 C1086 1.355 . S
C1087 C1089 1.419 . S
C1088 C1086 1.415 . S
C1088 C1093 1.425 . S
C1088 C1095 1.409 . S
C1089 H1081 0.930 . S
C1089 C1087 1.419 . S
C1089 C1090 1.362 . S
C1090 H1082 0.930 . S
C1090 C1089 1.362 . S
C1090 C1093 1.409 . S
C1091 H1083 0.930 . S
C1091 C1092 1.355 . S
C1091 C1093 1.415 . S
C1092 C1091 1.355 . S
C1092 C1094 1.419 . S
C1093 C1088 1.425 . S
C1093 C1090 1.409 . S
C1093 C1091 1.415 . S
C1094 H1084 0.930 . S
C1094 C1092 1.419 . S
C1094 C1095 1.362 . S
C1095 H1085 0.930 . S
C1095 C1088 1.409 . S
C1095 C1094 1.362 . S
H1096 C1102 0.930 . S
H1097 C1105 0.930 . S
H1098 C1106 0.930 . S
H1099 C1107 0.930 . S
H1100 C1110 0.930 . S
H1101 C1111 0.930 . S
C1102 H1096 0.930 . S
C1102 C1103 1.355 . S
C1102 C1104 1.415 . S
C1103 C1102 1.355 . S
C1103 C1105 1.419 . S
C1104 C1102 1.415 . S
C1104 C1109 1.425 . S
C1104 C1111 1.409 . S
C1105 H1097 0.930 . S
C1105 C1103 1.419 . S
C1105 C1106 1.362 . S
C1106 H1098 0.930 . S
C1106 C1105 1.362 . S
C1106 C1109 1.409 . S
C1107 H1099 0.930 . S
C1107 C1108 1.355 . S
C1107 C1109 1.415 . S
C1108 C1107 1.355 . S
C1108 C1110 1.419 . S
C1109 C1104 1.425 . S
C1109 C1106 1.409 . S
C1109 C1107 1.415 . S
C1110 H1100 0.930 . S
C1110 C1108 1.419 . S
C1110 C1111 1.362 . S
C1111 H1101 0.930 . S
C1111 C1104 1.409 . S
C1111 C1110 1.362 . S
H1112 C1118 0.930 . S
H1113 C1121 0.930 . S
H1114 C1122 0.930 . S
H1115 C1123 0.930 . S
H1116 C1126 0.930 . S
H1117 C1127 0.930 . S
C1118 H1112 0.930 . S
C1118 C1119 1.355 . S
C1118 C1120 1.415 . S
C1119 C1118 1.355 . S
C1119 C1121 1.419 . S
C1120 C1118 1.415 . S
C1120 C1125 1.425 . S
C1120 C1127 1.409 . S
C1121 H1113 0.930 . S
C1121 C1119 1.419 . S
C1121 C1122 1.362 . S
C1122 H1114 0.930 . S
C1122 C1121 1.362 . S
C1122 C1125 1.409 . S
C1123 H1115 0.930 . S
C1123 C1124 1.355 . S
C1123 C1125 1.415 . S
C1124 C1123 1.355 . S
C1124 C1126 1.419 . S
C1125 C1120 1.425 . S
C1125 C1122 1.409 . S
C1125 C1123 1.415 . S
C1126 H1116 0.930 . S
C1126 C1124 1.419 . S
C1126 C1127 1.362 . S
C1127 H1117 0.930 . S
C1127 C1120 1.409 . S
C1127 C1126 1.362 . S
H1128 C1134 0.930 . S
H1129 C1137 0.930 . S
H1130 C1138 0.930 . S
H1131 C1139 0.930 . S
H1132 C1142 0.930 . S
H1133 C1143 0.930 . S
C1134 H1128 0.930 . S
C1134 C1135 1.355 1_655 S
C1134 C1136 1.415 1_655 S
C1135 C1134 1.355 1_455 S
C1135 C1137 1.419 . S
C1136 C1134 1.415 1_455 S
C1136 C1141 1.425 . S
C1136 C1143 1.409 1_455 S
C1137 H1129 0.930 . S
C1137 C1135 1.419 . S
C1137 C1138 1.362 . S
C1138 H1130 0.930 . S
C1138 C1137 1.362 . S
C1138 C1141 1.409 . S
C1139 H1131 0.930 . S
C1139 C1140 1.355 . S
C1139 C1141 1.415 . S
C1140 C1139 1.355 . S
C1140 C1142 1.419 1_455 S
C1141 C1136 1.425 . S
C1141 C1138 1.409 . S
C1141 C1139 1.415 . S
C1142 H1132 0.930 . S
C1142 C1140 1.419 1_655 S
C1142 C1143 1.362 . S
C1143 H1133 0.930 . S
C1143 C1136 1.409 1_655 S
C1143 C1142 1.362 . S
H1144 C1150 0.930 . S
H1145 C1153 0.930 . S
H1146 C1154 0.930 . S
H1147 C1155 0.930 . S
H1148 C1158 0.930 . S
H1149 C1159 0.930 . S
C1150 H1144 0.930 . S
C1150 C1151 1.355 . S
C1150 C1152 1.415 . S
C1151 C1150 1.355 . S
C1151 C1153 1.419 . S
C1152 C1150 1.415 . S
C1152 C1157 1.425 . S
C1152 C1159 1.409 . S
C1153 H1145 0.930 . S
C1153 C1151 1.419 . S
C1153 C1154 1.362 . S
C1154 H1146 0.930 . S
C1154 C1153 1.362 . S
C1154 C1157 1.409 . S
C1155 H1147 0.930 . S
C1155 C1156 1.355 . S
C1155 C1157 1.415 . S
C1156 C1155 1.355 . S
C1156 C1158 1.419 . S
C1157 C1152 1.425 . S
C1157 C1154 1.409 . S
C1157 C1155 1.415 . S
C1158 H1148 0.930 . S
C1158 C1156 1.419 . S
C1158 C1159 1.362 . S
C1159 H1149 0.930 . S
C1159 C1152 1.409 . S
C1159 C1158 1.362 . S
H1160 C1166 0.930 . S
H1161 C1169 0.930 . S
H1162 C1170 0.930 . S
H1163 C1171 0.930 . S
H1164 C1174 0.930 . S
H1165 C1175 0.930 . S
C1166 H1160 0.930 . S
C1166 C1167 1.355 . S
C1166 C1168 1.415 . S
C1167 C1166 1.355 . S
C1167 C1169 1.419 . S
C1168 C1166 1.415 . S
C1168 C1173 1.425 . S
C1168 C1175 1.409 . S
C1169 H1161 0.930 . S
C1169 C1167 1.419 . S
C1169 C1170 1.362 . S
C1170 H1162 0.930 . S
C1170 C1169 1.362 . S
C1170 C1173 1.409 . S
C1171 H1163 0.930 . S
C1171 C1172 1.355 . S
C1171 C1173 1.415 . S
C1172 C1171 1.355 . S
C1172 C1174 1.419 . S
C1173 C1168 1.425 . S
C1173 C1170 1.409 . S
C1173 C1171 1.415 . S
C1174 H1164 0.930 . S
C1174 C1172 1.419 . S
C1174 C1175 1.362 . S
C1175 H1165 0.930 . S
C1175 C1168 1.409 . S
C1175 C1174 1.362 . S
H1176 C1182 0.930 . S
H1177 C1185 0.930 . S
H1178 C1186 0.930 . S
H1179 C1187 0.930 . S
H1180 C1190 0.930 . S
H1181 C1191 0.930 . S
C1182 H1176 0.930 . S
C1182 C1183 1.355 . S
C1182 C1184 1.415 . S
C1183 C1182 1.355 . S
C1183 C1185 1.419 . S
C1184 C1182 1.415 . S
C1184 C1189 1.425 . S
C1184 C1191 1.409 . S
C1185 H1177 0.930 . S
C1185 C1183 1.419 . S
C1185 C1186 1.362 . S
C1186 H1178 0.930 . S
C1186 C1185 1.362 . S
C1186 C1189 1.409 . S
C1187 H1179 0.930 . S
C1187 C1188 1.355 . S
C1187 C1189 1.415 . S
C1188 C1187 1.355 . S
C1188 C1190 1.419 . S
C1189 C1184 1.425 . S
C1189 C1186 1.409 . S
C1189 C1187 1.415 . S
C1190 H1180 0.930 . S
C1190 C1188 1.419 . S
C1190 C1191 1.362 . S
C1191 H1181 0.930 . S
C1191 C1184 1.409 . S
C1191 C1190 1.362 . S
H1192 C1198 0.930 . S
H1193 C1201 0.930 . S
H1194 C1202 0.918 1_565 S
H1195 C1203 0.930 . S
H1196 C1206 0.930 . S
H1197 C1207 0.930 . S
C1198 H1192 0.930 . S
C1198 C1199 1.355 . S
C1198 C1200 1.415 . S
C1199 C1198 1.355 . S
C1199 C1201 1.419 1_545 S
C1200 C1198 1.415 . S
C1200 C1205 1.425 . S
C1200 C1207 1.409 . S
C1201 H1193 0.930 . S
C1201 C1199 1.419 1_565 S
C1201 C1202 1.361 1_565 S
C1202 H1194 0.918 1_545 S
C1202 C1201 1.361 1_545 S
C1202 C1205 1.423 . S
C1203 H1195 0.930 . S
C1203 C1204 1.355 . S
C1203 C1205 1.415 . S
C1204 C1203 1.355 . S
C1204 C1206 1.419 . S
C1205 C1200 1.425 . S
C1205 C1202 1.423 . S
C1205 C1203 1.415 . S
C1206 H1196 0.930 . S
C1206 C1204 1.419 . S
C1206 C1207 1.362 . S
C1207 H1197 0.930 . S
C1207 C1200 1.409 . S
C1207 C1206 1.362 . S
H1208 C1214 0.930 . S
H1209 C1217 0.930 . S
H1210 C1218 0.930 . S
H1211 C1219 0.930 . S
H1212 C1222 0.930 . S
H1213 C1223 0.930 . S
C1214 H1208 0.930 . S
C1214 C1215 1.355 . S
C1214 C1216 1.415 . S
C1215 C1214 1.355 . S
C1215 C1217 1.419 . S
C1216 C1214 1.415 . S
C1216 C1221 1.425 . S
C1216 C1223 1.409 . S
C1217 H1209 0.930 . S
C1217 C1215 1.419 . S
C1217 C1218 1.362 . S
C1218 H1210 0.930 . S
C1218 C1217 1.362 . S
C1218 C1221 1.409 . S
C1219 H1211 0.930 . S
C1219 C1220 1.355 . S
C1219 C1221 1.415 . S
C1220 C1219 1.355 . S
C1220 C1222 1.419 . S
C1221 C1216 1.425 . S
C1221 C1218 1.409 . S
C1221 C1219 1.415 . S
C1222 H1212 0.930 . S
C1222 C1220 1.419 . S
C1222 C1223 1.362 . S
C1223 H1213 0.930 . S
C1223 C1216 1.409 . S
C1223 C1222 1.362 . S
H1224 C1230 0.920 1_545 S
H1225 C1233 0.930 . S
H1226 C1234 0.930 . S
H1227 C1235 0.930 . S
H1228 C1238 0.930 . S
H1229 C1239 0.930 . S
C1230 H1224 0.920 1_565 S
C1230 C1231 1.356 . S
C1230 C1232 1.424 . S
C1231 C1230 1.356 . S
C1231 C1233 1.419 . S
C1232 C1230 1.424 . S
C1232 C1237 1.425 . S
C1232 C1239 1.409 . S
C1233 H1225 0.930 . S
C1233 C1231 1.419 . S
C1233 C1234 1.362 . S
C1234 H1226 0.930 . S
C1234 C1233 1.362 . S
C1234 C1237 1.409 . S
C1235 H1227 0.930 . S
C1235 C1236 1.355 . S
C1235 C1237 1.415 . S
C1236 C1235 1.355 . S
C1236 C1238 1.419 . S
C1237 C1232 1.425 . S
C1237 C1234 1.409 . S
C1237 C1235 1.415 . S
C1238 H1228 0.930 . S
C1238 C1236 1.419 . S
C1238 C1239 1.362 . S
C1239 H1229 0.930 . S
C1239 C1232 1.409 . S
C1239 C1238 1.362 . S
H1240 C1246 0.930 . S
H1241 C1249 0.930 . S
H1242 C1250 0.930 . S
H1243 C1251 0.930 . S
H1244 C1254 0.930 . S
H1245 C1255 0.930 . S
C1246 H1240 0.930 . S
C1246 C1247 1.355 . S
C1246 C1248 1.415 . S
C1247 C1246 1.355 . S
C1247 C1249 1.419 . S
C1248 C1246 1.415 . S
C1248 C1253 1.425 . S
C1248 C1255 1.409 . S
C1249 H1241 0.930 . S
C1249 C1247 1.419 . S
C1249 C1250 1.362 . S
C1250 H1242 0.930 . S
C1250 C1249 1.362 . S
C1250 C1253 1.409 . S
C1251 H1243 0.930 . S
C1251 C1252 1.355 . S
C1251 C1253 1.415 . S
C1252 C1251 1.355 . S
C1252 C1254 1.419 . S
C1253 C1248 1.425 . S
C1253 C1250 1.409 . S
C1253 C1251 1.415 . S
C1254 H1244 0.930 . S
C1254 C1252 1.419 . S
C1254 C1255 1.362 . S
C1255 H1245 0.930 . S
C1255 C1248 1.409 . S
C1255 C1254 1.362 . S
H1256 C1262 0.930 . S
H1257 C1265 0.930 . S
H1258 C1266 0.930 . S
H1259 C1267 0.930 1_455 S
H1260 C1270 0.930 . S
H1261 C1271 0.930 . S
C1262 H1256 0.930 . S
C1262 C1263 1.355 . S
C1262 C1264 1.415 . S
C1263 C1262 1.355 . S
C1263 C1265 1.419 . S
C1264 C1262 1.415 . S
C1264 C1269 1.425 . S
C1264 C1271 1.409 1_545 S
C1265 H1257 0.930 . S
C1265 C1263 1.419 . S
C1265 C1266 1.362 . S
C1266 H1258 0.930 . S
C1266 C1265 1.362 . S
C1266 C1269 1.409 . S
C1267 H1259 0.930 1_655 S
C1267 C1268 1.355 . S
C1267 C1269 1.415 1_565 S
C1268 C1267 1.355 . S
C1268 C1270 1.419 . S
C1269 C1264 1.425 . S
C1269 C1266 1.409 . S
C1269 C1267 1.415 1_545 S
C1270 H1260 0.930 . S
C1270 C1268 1.419 . S
C1270 C1271 1.362 . S
C1271 H1261 0.930 . S
C1271 C1264 1.409 1_565 S
C1271 C1270 1.362 . S
H1272 C1278 0.930 . S
H1273 C1281 0.930 . S
H1274 C1282 0.930 . S
H1275 C1283 0.930 . S
H1276 C1286 0.930 . S
H1277 C1287 0.930 . S
C1278 H1272 0.930 . S
C1278 C1279 1.355 . S
C1278 C1280 1.415 . S
C1279 C1278 1.355 . S
C1279 C1281 1.419 . S
C1280 C1278 1.415 . S
C1280 C1285 1.425 . S
C1280 C1287 1.409 . S
C1281 H1273 0.930 . S
C1281 C1279 1.419 . S
C1281 C1282 1.362 . S
C1282 H1274 0.930 . S
C1282 C1281 1.362 . S
C1282 C1285 1.409 . S
C1283 H1275 0.930 . S
C1283 C1284 1.355 . S
C1283 C1285 1.415 . S
C1284 C1283 1.355 . S
C1284 C1286 1.419 . S
C1285 C1280 1.425 . S
C1285 C1282 1.409 . S
C1285 C1283 1.415 . S
C1286 H1276 0.930 . S
C1286 C1284 1.419 . S
C1286 C1287 1.362 . S
C1287 H1277 0.930 . S
C1287 C1280 1.409 . S
C1287 C1286 1.362 . S
H1288 C1294 0.930 . S
H1289 C1297 0.930 . S
H1290 C1298 0.930 . S
H1291 C1299 0.930 . S
H1292 C1302 0.930 . S
H1293 C1303 0.930 . S
C1294 H1288 0.930 . S
C1294 C1295 1.355 1_565 S
C1294 C1296 1.415 1_565 S
C1295 C1294 1.355 1_545 S
C1295 C1297 1.419 . S
C1296 C1294 1.415 1_545 S
C1296 C1301 1.425 . S
C1296 C1303 1.409 1_545 S
C1297 H1289 0.930 . S
C1297 C1295 1.419 . S
C1297 C1298 1.362 . S
C1298 H1290 0.930 . S
C1298 C1297 1.362 . S
C1298 C1301 1.409 . S
C1299 H1291 0.930 . S
C1299 C1300 1.355 . S
C1299 C1301 1.415 . S
C1300 C1299 1.355 . S
C1300 C1302 1.419 1_545 S
C1301 C1296 1.425 . S
C1301 C1298 1.409 . S
C1301 C1299 1.415 . S
C1302 H1292 0.930 . S
C1302 C1300 1.419 1_565 S
C1302 C1303 1.362 . S
C1303 H1293 0.930 . S
C1303 C1296 1.409 1_565 S
C1303 C1302 1.362 . S
H1304 C1310 0.930 . S
H1305 C1313 0.930 . S
H1306 C1314 0.930 . S
H1307 C1315 0.930 . S
H1308 C1318 0.930 . S
H1309 C1319 0.930 . S
C1310 H1304 0.930 . S
C1310 C1311 1.355 . S
C1310 C1312 1.415 . S
C1311 C1310 1.355 . S
C1311 C1313 1.419 . S
C1312 C1310 1.415 . S
C1312 C1317 1.425 . S
C1312 C1319 1.409 . S
C1313 H1305 0.930 . S
C1313 C1311 1.419 . S
C1313 C1314 1.362 . S
C1314 H1306 0.930 . S
C1314 C1313 1.362 . S
C1314 C1317 1.409 . S
C1315 H1307 0.930 . S
C1315 C1316 1.355 . S
C1315 C1317 1.415 . S
C1316 C1315 1.355 . S
C1316 C1318 1.419 . S
C1317 C1312 1.425 . S
C1317 C1314 1.409 . S
C1317 C1315 1.415 . S
C1318 H1308 0.930 . S
C1318 C1316 1.419 . S
C1318 C1319 1.362 . S
C1319 H1309 0.930 . S
C1319 C1312 1.409 . S
C1319 C1318 1.362 . S
H1320 C1326 0.930 . S
H1321 C1329 0.930 . S
H1322 C1330 0.930 . S
H1323 C1331 0.930 . S
H1324 C1334 0.930 . S
H1325 C1335 0.930 . S
C1326 H1320 0.930 . S
C1326 C1327 1.355 . S
C1326 C1328 1.415 . S
C1327 C1326 1.355 . S
C1327 C1329 1.419 1_554 S
C1328 C1326 1.415 . S
C1328 C1333 1.425 . S
C1328 C1335 1.409 . S
C1329 H1321 0.930 . S
C1329 C1327 1.419 1_556 S
C1329 C1330 1.362 . S
C1330 H1322 0.930 . S
C1330 C1329 1.362 . S
C1330 C1333 1.409 1_556 S
C1331 H1323 0.930 . S
C1331 C1332 1.355 . S
C1331 C1333 1.415 . S
C1332 C1331 1.355 . S
C1332 C1334 1.419 . S
C1333 C1328 1.425 . S
C1333 C1330 1.409 1_554 S
C1333 C1331 1.415 . S
C1334 H1324 0.930 . S
C1334 C1332 1.419 . S
C1334 C1335 1.362 . S
C1335 H1325 0.930 . S
C1335 C1328 1.409 . S
C1335 C1334 1.362 . S
H1336 C1342 0.945 . S
H1337 C1345 0.930 . S
H1338 C1346 0.930 . S
H1339 C1347 0.930 . S
H1340 C1350 0.930 . S
H1341 C1351 0.929 . S
C1342 H1336 0.945 . S
C1342 C1343 1.349 1_554 S
C1342 C1344 1.407 1_554 S
C1343 C1342 1.349 1_556 S
C1343 C1345 1.419 . S
C1344 C1342 1.407 1_556 S
C1344 C1349 1.425 . S
C1344 C1351 1.410 1_556 S
C1345 H1337 0.930 . S
C1345 C1343 1.419 . S
C1345 C1346 1.362 . S
C1346 H1338 0.930 . S
C1346 C1345 1.362 . S
C1346 C1349 1.409 . S
C1347 H1339 0.930 . S
C1347 C1348 1.355 . S
C1347 C1349 1.415 . S
C1348 C1347 1.355 . S
C1348 C1350 1.419 . S
C1349 C1344 1.425 . S
C1349 C1346 1.409 . S
C1349 C1347 1.415 . S
C1350 H1340 0.930 . S
C1350 C1348 1.419 . S
C1350 C1351 1.363 1_556 S
C1351 H1341 0.929 . S
C1351 C1344 1.410 1_554 S
C1351 C1350 1.363 1_554 S
H1352 C1358 0.930 . S
H1353 C1361 0.930 . S
H1354 C1362 0.930 . S
H1355 C1363 0.930 . S
H1356 C1366 0.930 . S
H1357 C1367 0.930 . S
C1358 H1352 0.930 . S
C1358 C1359 1.355 . S
C1358 C1360 1.415 . S
C1359 C1358 1.355 . S
C1359 C1361 1.419 . S
C1360 C1358 1.415 . S
C1360 C1365 1.425 . S
C1360 C1367 1.409 . S
C1361 H1353 0.930 . S
C1361 C1359 1.419 . S
C1361 C1362 1.362 . S
C1362 H1354 0.930 . S
C1362 C1361 1.362 . S
C1362 C1365 1.409 . S
C1363 H1355 0.930 . S
C1363 C1364 1.355 . S
C1363 C1365 1.415 . S
C1364 C1363 1.355 . S
C1364 C1366 1.419 . S
C1365 C1360 1.425 . S
C1365 C1362 1.409 . S
C1365 C1363 1.415 . S
C1366 H1356 0.930 . S
C1366 C1364 1.419 . S
C1366 C1367 1.362 . S
C1367 H1357 0.930 . S
C1367 C1360 1.409 . S
C1367 C1366 1.362 . S
H1368 C1374 0.930 . S
H1369 C1377 0.930 . S
H1370 C1378 0.930 . S
H1371 C1379 0.930 . S
H1372 C1382 0.930 . S
H1373 C1383 0.930 . S
C1374 H1368 0.930 . S
C1374 C1375 1.355 . S
C1374 C1376 1.415 . S
C1375 C1374 1.355 . S
C1375 C1377 1.419 . S
C1376 C1374 1.415 . S
C1376 C1381 1.425 . S
C1376 C1383 1.409 . S
C1377 H1369 0.930 . S
C1377 C1375 1.419 . S
C1377 C1378 1.362 . S
C1378 H1370 0.930 . S
C1378 C1377 1.362 . S
C1378 C1381 1.409 . S
C1379 H1371 0.930 . S
C1379 C1380 1.355 . S
C1379 C1381 1.415 . S
C1380 C1379 1.355 . S
C1380 C1382 1.419 . S
C1381 C1376 1.425 . S
C1381 C1378 1.409 . S
C1381 C1379 1.415 . S
C1382 H1372 0.930 . S
C1382 C1380 1.419 . S
C1382 C1383 1.362 . S
C1383 H1373 0.930 . S
C1383 C1376 1.409 . S
C1383 C1382 1.362 . S
H1384 C1390 0.930 . S
H1385 C1393 0.930 . S
H1386 C1394 0.930 . S
H1387 C1395 0.930 . S
H1388 C1398 0.930 . S
H1389 C1399 0.930 . S
C1390 H1384 0.930 . S
C1390 C1391 1.355 . S
C1390 C1392 1.415 . S
C1391 C1390 1.355 . S
C1391 C1393 1.419 . S
C1392 C1390 1.415 . S
C1392 C1397 1.425 . S
C1392 C1399 1.409 . S
C1393 H1385 0.930 . S
C1393 C1391 1.419 . S
C1393 C1394 1.362 . S
C1394 H1386 0.930 . S
C1394 C1393 1.362 . S
C1394 C1397 1.409 . S
C1395 H1387 0.930 . S
C1395 C1396 1.355 . S
C1395 C1397 1.415 . S
C1396 C1395 1.355 . S
C1396 C1398 1.419 . S
C1397 C1392 1.425 . S
C1397 C1394 1.409 . S
C1397 C1395 1.415 . S
C1398 H1388 0.930 . S
C1398 C1396 1.419 . S
C1398 C1399 1.362 . S
C1399 H1389 0.930 . S
C1399 C1392 1.409 . S
C1399 C1398 1.362 . S
H1400 C1406 0.930 . S
H1401 C1409 0.930 . S
H1402 C1410 0.930 . S
H1403 C1411 0.930 . S
H1404 C1414 0.930 . S
H1405 C1415 0.930 . S
C1406 H1400 0.930 . S
C1406 C1407 1.355 . S
C1406 C1408 1.415 . S
C1407 C1406 1.355 . S
C1407 C1409 1.419 . S
C1408 C1406 1.415 . S
C1408 C1413 1.425 . S
C1408 C1415 1.409 . S
C1409 H1401 0.930 . S
C1409 C1407 1.419 . S
C1409 C1410 1.362 . S
C1410 H1402 0.930 . S
C1410 C1409 1.362 . S
C1410 C1413 1.409 . S
C1411 H1403 0.930 . S
C1411 C1412 1.355 . S
C1411 C1413 1.415 . S
C1412 C1411 1.355 . S
C1412 C1414 1.419 . S
C1413 C1408 1.425 . S
C1413 C1410 1.409 . S
C1413 C1411 1.415 . S
C1414 H1404 0.930 . S
C1414 C1412 1.419 . S
C1414 C1415 1.362 . S
C1415 H1405 0.930 . S
C1415 C1408 1.409 . S
C1415 C1414 1.362 . S
H1416 C1422 0.930 . S
H1417 C1425 0.930 . S
H1418 C1426 0.930 . S
H1419 C1427 0.930 . S
H1420 C1430 0.930 . S
H1421 C1431 0.930 . S
C1422 H1416 0.930 . S
C1422 C1423 1.355 . S
C1422 C1424 1.415 . S
C1423 C1422 1.355 . S
C1423 C1425 1.419 . S
C1424 C1422 1.415 . S
C1424 C1429 1.425 . S
C1424 C1431 1.409 . S
C1425 H1417 0.930 . S
C1425 C1423 1.419 . S
C1425 C1426 1.362 . S
C1426 H1418 0.930 . S
C1426 C1425 1.362 . S
C1426 C1429 1.409 . S
C1427 H1419 0.930 . S
C1427 C1428 1.355 . S
C1427 C1429 1.415 . S
C1428 C1427 1.355 . S
C1428 C1430 1.419 . S
C1429 C1424 1.425 . S
C1429 C1426 1.409 . S
C1429 C1427 1.415 . S
C1430 H1420 0.930 . S
C1430 C1428 1.419 . S
C1430 C1431 1.362 . S
C1431 H1421 0.930 . S
C1431 C1424 1.409 . S
C1431 C1430 1.362 . S
H1432 C1438 0.930 . S
H1433 C1441 0.930 . S
H1434 C1442 0.930 . S
H1435 C1443 0.930 . S
H1436 C1446 0.930 . S
H1437 C1447 0.930 . S
C1438 H1432 0.930 . S
C1438 C1439 1.355 . S
C1438 C1440 1.415 . S
C1439 C1438 1.355 . S
C1439 C1441 1.419 . S
C1440 C1438 1.415 . S
C1440 C1445 1.425 . S
C1440 C1447 1.409 . S
C1441 H1433 0.930 . S
C1441 C1439 1.419 . S
C1441 C1442 1.362 . S
C1442 H1434 0.930 . S
C1442 C1441 1.362 . S
C1442 C1445 1.409 . S
C1443 H1435 0.930 . S
C1443 C1444 1.355 . S
C1443 C1445 1.415 . S
C1444 C1443 1.355 . S
C1444 C1446 1.419 . S
C1445 C1440 1.425 . S
C1445 C1442 1.409 . S
C1445 C1443 1.415 . S
C1446 H1436 0.930 . S
C1446 C1444 1.419 . S
C1446 C1447 1.362 . S
C1447 H1437 0.930 . S
C1447 C1440 1.409 . S
C1447 C1446 1.362 . S
H1448 C1454 0.930 . S
H1449 C1457 0.930 . S
H1450 C1458 0.930 . S
H1451 C1459 0.930 . S
H1452 C1462 0.930 . S
H1453 C1463 0.930 . S
C1454 H1448 0.930 . S
C1454 C1455 1.355 . S
C1454 C1456 1.415 . S
C1455 C1454 1.355 . S
C1455 C1457 1.419 . S
C1456 C1454 1.415 . S
C1456 C1461 1.425 . S
C1456 C1463 1.409 . S
C1457 H1449 0.930 . S
C1457 C1455 1.419 . S
C1457 C1458 1.362 . S
C1458 H1450 0.930 . S
C1458 C1457 1.362 . S
C1458 C1461 1.409 . S
C1459 H1451 0.930 . S
C1459 C1460 1.355 . S
C1459 C1461 1.415 . S
C1460 C1459 1.355 . S
C1460 C1462 1.419 . S
C1461 C1456 1.425 . S
C1461 C1458 1.409 . S
C1461 C1459 1.415 . S
C1462 H1452 0.930 . S
C1462 C1460 1.419 . S
C1462 C1463 1.362 . S
C1463 H1453 0.930 . S
C1463 C1456 1.409 . S
C1463 C1462 1.362 . S
H1464 C1470 0.930 . S
H1465 C1473 0.930 . S
H1466 C1474 0.930 . S
H1467 C1475 0.930 . S
H1468 C1478 0.930 . S
H1469 C1479 0.930 . S
C1470 H1464 0.930 . S
C1470 C1471 1.355 . S
C1470 C1472 1.415 . S
C1471 C1470 1.355 . S
C1471 C1473 1.419 . S
C1472 C1470 1.415 . S
C1472 C1477 1.425 . S
C1472 C1479 1.409 . S
C1473 H1465 0.930 . S
C1473 C1471 1.419 . S
C1473 C1474 1.362 . S
C1474 H1466 0.930 . S
C1474 C1473 1.362 . S
C1474 C1477 1.409 . S
C1475 H1467 0.930 . S
C1475 C1476 1.355 . S
C1475 C1477 1.415 . S
C1476 C1475 1.355 . S
C1476 C1478 1.419 . S
C1477 C1472 1.425 . S
C1477 C1474 1.409 . S
C1477 C1475 1.415 . S
C1478 H1468 0.930 . S
C1478 C1476 1.419 . S
C1478 C1479 1.362 . S
C1479 H1469 0.930 . S
C1479 C1472 1.409 . S
C1479 C1478 1.362 . S
H1480 C1486 0.930 . S
H1481 C1489 0.930 . S
H1482 C1490 0.930 . S
H1483 C1491 0.930 . S
H1484 C1494 0.930 . S
H1485 C1495 0.930 . S
C1486 H1480 0.930 . S
C1486 C1487 1.355 . S
C1486 C1488 1.415 . S
C1487 C1486 1.355 . S
C1487 C1489 1.419 1_455 S
C1488 C1486 1.415 . S
C1488 C1493 1.425 . S
C1488 C1495 1.409 . S
C1489 H1481 0.930 . S
C1489 C1487 1.419 1_655 S
C1489 C1490 1.362 . S
C1490 H1482 0.930 . S
C1490 C1489 1.362 . S
C1490 C1493 1.409 1_655 S
C1491 H1483 0.930 . S
C1491 C1492 1.355 . S
C1491 C1493 1.415 . S
C1492 C1491 1.355 . S
C1492 C1494 1.419 . S
C1493 C1488 1.425 . S
C1493 C1490 1.409 1_455 S
C1493 C1491 1.415 . S
C1494 H1484 0.930 . S
C1494 C1492 1.419 . S
C1494 C1495 1.362 . S
C1495 H1485 0.930 . S
C1495 C1488 1.409 . S
C1495 C1494 1.362 . S
H1496 C1502 0.930 . S
H1497 C1505 0.930 . S
H1498 C1506 0.930 . S
H1499 C1507 0.930 . S
H1500 C1510 0.930 . S
H1501 C1511 0.930 . S
C1502 H1496 0.930 . S
C1502 C1503 1.355 . S
C1502 C1504 1.415 . S
C1503 C1502 1.355 . S
C1503 C1505 1.419 . S
C1504 C1502 1.415 . S
C1504 C1509 1.425 . S
C1504 C1511 1.409 . S
C1505 H1497 0.930 . S
C1505 C1503 1.419 . S
C1505 C1506 1.362 . S
C1506 H1498 0.930 . S
C1506 C1505 1.362 . S
C1506 C1509 1.409 . S
C1507 H1499 0.930 . S
C1507 C1508 1.355 . S
C1507 C1509 1.415 . S
C1508 C1507 1.355 . S
C1508 C1510 1.419 . S
C1509 C1504 1.425 . S
C1509 C1506 1.409 . S
C1509 C1507 1.415 . S
C1510 H1500 0.930 . S
C1510 C1508 1.419 . S
C1510 C1511 1.362 . S
C1511 H1501 0.930 . S
C1511 C1504 1.409 . S
C1511 C1510 1.362 . S
H1512 C1518 0.930 . S
H1513 C1521 0.930 . S
H1514 C1522 0.930 . S
H1515 C1523 0.930 . S
H1516 C1526 0.930 1_554 S
H1517 C1527 0.930 . S
C1518 H1512 0.930 . S
C1518 C1519 1.355 . S
C1518 C1520 1.415 . S
C1519 C1518 1.355 . S
C1519 C1521 1.419 . S
C1520 C1518 1.415 . S
C1520 C1525 1.425 . S
C1520 C1527 1.409 . S
C1521 H1513 0.930 . S
C1521 C1519 1.419 . S
C1521 C1522 1.362 . S
C1522 H1514 0.930 . S
C1522 C1521 1.362 . S
C1522 C1525 1.409 . S
C1523 H1515 0.930 . S
C1523 C1524 1.355 . S
C1523 C1525 1.415 . S
C1524 C1523 1.355 . S
C1524 C1526 1.419 . S
C1525 C1520 1.425 . S
C1525 C1522 1.409 . S
C1525 C1523 1.415 . S
C1526 H1516 0.930 1_556 S
C1526 C1524 1.419 . S
C1526 C1527 1.362 . S
C1527 H1517 0.930 . S
C1527 C1520 1.409 . S
C1527 C1526 1.362 . S
H1528 C1534 0.930 . S
H1529 C1537 0.930 . S
H1530 C1538 0.930 . S
H1531 C1539 0.930 . S
H1532 C1542 0.930 . S
H1533 C1543 0.930 . S
C1534 H1528 0.930 . S
C1534 C1535 1.355 . S
C1534 C1536 1.415 . S
C1535 C1534 1.355 . S
C1535 C1537 1.419 . S
C1536 C1534 1.415 . S
C1536 C1541 1.425 . S
C1536 C1543 1.409 . S
C1537 H1529 0.930 . S
C1537 C1535 1.419 . S
C1537 C1538 1.362 . S
C1538 H1530 0.930 . S
C1538 C1537 1.362 . S
C1538 C1541 1.409 . S
C1539 H1531 0.930 . S
C1539 C1540 1.355 . S
C1539 C1541 1.415 . S
C1540 C1539 1.355 . S
C1540 C1542 1.419 . S
C1541 C1536 1.425 . S
C1541 C1538 1.409 . S
C1541 C1539 1.415 . S
C1542 H1532 0.930 . S
C1542 C1540 1.419 . S
C1542 C1543 1.362 . S
C1543 H1533 0.930 . S
C1543 C1536 1.409 . S
C1543 C1542 1.362 . S
H1544 C1550 0.930 . S
H1545 C1553 0.930 . S
H1546 C1554 0.930 . S
H1547 C1555 0.930 1_655 S
H1548 C1558 0.930 . S
H1549 C1559 0.930 . S
C1550 H1544 0.930 . S
C1550 C1551 1.355 . S
C1550 C1552 1.415 . S
C1551 C1550 1.355 . S
C1551 C1553 1.419 1_455 S
C1552 C1550 1.415 . S
C1552 C1557 1.425 . S
C1552 C1559 1.409 . S
C1553 H1545 0.930 . S
C1553 C1551 1.419 1_655 S
C1553 C1554 1.362 . S
C1554 H1546 0.930 . S
C1554 C1553 1.362 . S
C1554 C1557 1.409 1_655 S
C1555 H1547 0.930 1_455 S
C1555 C1556 1.355 . S
C1555 C1557 1.415 . S
C1556 C1555 1.355 . S
C1556 C1558 1.419 . S
C1557 C1552 1.425 . S
C1557 C1554 1.409 1_455 S
C1557 C1555 1.415 . S
C1558 H1548 0.930 . S
C1558 C1556 1.419 . S
C1558 C1559 1.362 . S
C1559 H1549 0.930 . S
C1559 C1552 1.409 . S
C1559 C1558 1.362 . S
H1560 C1566 0.930 . S
H1561 C1569 0.930 . S
H1562 C1570 0.930 . S
H1563 C1571 0.930 . S
H1564 C1574 0.930 . S
H1565 C1575 0.930 . S
C1566 H1560 0.930 . S
C1566 C1567 1.355 . S
C1566 C1568 1.415 . S
C1567 C1566 1.355 . S
C1567 C1569 1.419 . S
C1568 C1566 1.415 . S
C1568 C1573 1.425 . S
C1568 C1575 1.409 . S
C1569 H1561 0.930 . S
C1569 C1567 1.419 . S
C1569 C1570 1.362 . S
C1570 H1562 0.930 . S
C1570 C1569 1.362 . S
C1570 C1573 1.409 . S
C1571 H1563 0.930 . S
C1571 C1572 1.355 . S
C1571 C1573 1.415 . S
C1572 C1571 1.355 . S
C1572 C1574 1.419 . S
C1573 C1568 1.425 . S
C1573 C1570 1.409 . S
C1573 C1571 1.415 . S
C1574 H1564 0.930 . S
C1574 C1572 1.419 . S
C1574 C1575 1.362 . S
C1575 H1565 0.930 . S
C1575 C1568 1.409 . S
C1575 C1574 1.362 . S
H1576 C1582 0.930 . S
H1577 C1585 0.930 . S
H1578 C1586 0.930 . S
H1579 C1587 0.930 . S
H1580 C1590 0.930 . S
H1581 C1591 0.930 . S
C1582 H1576 0.930 . S
C1582 C1583 1.355 . S
C1582 C1584 1.415 . S
C1583 C1582 1.355 . S
C1583 C1585 1.419 . S
C1584 C1582 1.415 . S
C1584 C1589 1.425 . S
C1584 C1591 1.409 . S
C1585 H1577 0.930 . S
C1585 C1583 1.419 . S
C1585 C1586 1.362 . S
C1586 H1578 0.930 . S
C1586 C1585 1.362 . S
C1586 C1589 1.409 . S
C1587 H1579 0.930 . S
C1587 C1588 1.355 . S
C1587 C1589 1.415 . S
C1588 C1587 1.355 . S
C1588 C1590 1.419 . S
C1589 C1584 1.425 . S
C1589 C1586 1.409 . S
C1589 C1587 1.415 . S
C1590 H1580 0.930 . S
C1590 C1588 1.419 . S
C1590 C1591 1.362 . S
C1591 H1581 0.930 . S
C1591 C1584 1.409 . S
C1591 C1590 1.362 . S
H1592 C1598 0.930 . S
H1593 C1601 0.930 . S
H1594 C1602 0.930 . S
H1595 C1603 0.930 . S
H1596 C1606 0.930 . S
H1597 C1607 0.930 . S
C1598 H1592 0.930 . S
C1598 C1599 1.355 . S
C1598 C1600 1.415 . S
C1599 C1598 1.355 . S
C1599 C1601 1.419 . S
C1600 C1598 1.415 . S
C1600 C1605 1.425 . S
C1600 C1607 1.409 . S
C1601 H1593 0.930 . S
C1601 C1599 1.419 . S
C1601 C1602 1.362 . S
C1602 H1594 0.930 . S
C1602 C1601 1.362 . S
C1602 C1605 1.409 . S
C1603 H1595 0.930 . S
C1603 C1604 1.355 . S
C1603 C1605 1.415 . S
C1604 C1603 1.355 . S
C1604 C1606 1.419 . S
C1605 C1600 1.425 . S
C1605 C1602 1.409 . S
C1605 C1603 1.415 . S
C1606 H1596 0.930 . S
C1606 C1604 1.419 . S
C1606 C1607 1.362 . S
C1607 H1597 0.930 . S
C1607 C1600 1.409 . S
C1607 C1606 1.362 . S
H1608 C1614 0.930 . S
H1609 C1617 0.930 . S
H1610 C1618 0.930 . S
H1611 C1619 0.930 . S
H1612 C1622 0.930 1_455 S
H1613 C1623 0.930 . S
C1614 H1608 0.930 . S
C1614 C1615 1.355 . S
C1614 C1616 1.415 . S
C1615 C1614 1.355 . S
C1615 C1617 1.419 . S
C1616 C1614 1.415 . S
C1616 C1621 1.425 . S
C1616 C1623 1.409 . S
C1617 H1609 0.930 . S
C1617 C1615 1.419 . S
C1617 C1618 1.362 . S
C1618 H1610 0.930 . S
C1618 C1617 1.362 . S
C1618 C1621 1.409 . S
C1619 H1611 0.930 . S
C1619 C1620 1.355 . S
C1619 C1621 1.415 . S
C1620 C1619 1.355 . S
C1620 C1622 1.419 . S
C1621 C1616 1.425 . S
C1621 C1618 1.409 . S
C1621 C1619 1.415 . S
C1622 H1612 0.930 1_655 S
C1622 C1620 1.419 . S
C1622 C1623 1.362 . S
C1623 H1613 0.930 . S
C1623 C1616 1.409 . S
C1623 C1622 1.362 . S
H1624 C1630 0.930 . S
H1625 C1633 0.930 . S
H1626 C1634 0.930 . S
H1627 C1635 0.930 . S
H1628 C1638 0.930 . S
H1629 C1639 0.930 . S
C1630 H1624 0.930 . S
C1630 C1631 1.355 . S
C1630 C1632 1.415 . S
C1631 C1630 1.355 . S
C1631 C1633 1.419 . S
C1632 C1630 1.415 . S
C1632 C1637 1.425 . S
C1632 C1639 1.409 . S
C1633 H1625 0.930 . S
C1633 C1631 1.419 . S
C1633 C1634 1.362 . S
C1634 H1626 0.930 . S
C1634 C1633 1.362 . S
C1634 C1637 1.409 . S
C1635 H1627 0.930 . S
C1635 C1636 1.355 . S
C1635 C1637 1.415 . S
C1636 C1635 1.355 . S
C1636 C1638 1.419 . S
C1637 C1632 1.425 . S
C1637 C1634 1.409 . S
C1637 C1635 1.415 . S
C1638 H1628 0.930 . S
C1638 C1636 1.419 . S
C1638 C1639 1.362 . S
C1639 H1629 0.930 . S
C1639 C1632 1.409 . S
C1639 C1638 1.362 . S
H1640 C1646 0.930 . S
H1641 C1649 0.930 . S
H1642 C1650 0.930 . S
H1643 C1651 0.930 . S
H1644 C1654 0.930 . S
H1645 C1655 0.930 . S
C1646 H1640 0.930 . S
C1646 C1647 1.355 . S
C1646 C1648 1.415 . S
C1647 C1646 1.355 . S
C1647 C1649 1.419 . S
C1648 C1646 1.415 . S
C1648 C1653 1.425 . S
C1648 C1655 1.409 . S
C1649 H1641 0.930 . S
C1649 C1647 1.419 . S
C1649 C1650 1.362 . S
C1650 H1642 0.930 . S
C1650 C1649 1.362 . S
C1650 C1653 1.409 . S
C1651 H1643 0.930 . S
C1651 C1652 1.355 . S
C1651 C1653 1.415 . S
C1652 C1651 1.355 . S
C1652 C1654 1.419 . S
C1653 C1648 1.425 . S
C1653 C1650 1.409 . S
C1653 C1651 1.415 . S
C1654 H1644 0.930 . S
C1654 C1652 1.419 . S
C1654 C1655 1.362 . S
C1655 H1645 0.930 . S
C1655 C1648 1.409 . S
C1655 C1654 1.362 . S
H1656 C1662 0.930 . S
H1657 C1665 0.930 . S
H1658 C1666 0.930 . S
H1659 C1667 0.930 . S
H1660 C1670 0.930 . S
H1661 C1671 0.930 . S
C1662 H1656 0.930 . S
C1662 C1663 1.355 . S
C1662 C1664 1.415 . S
C1663 C1662 1.355 . S
C1663 C1665 1.419 . S
C1664 C1662 1.415 . S
C1664 C1669 1.425 . S
C1664 C1671 1.409 . S
C1665 H1657 0.930 . S
C1665 C1663 1.419 . S
C1665 C1666 1.362 . S
C1666 H1658 0.930 . S
C1666 C1665 1.362 . S
C1666 C1669 1.409 . S
C1667 H1659 0.930 . S
C1667 C1668 1.355 . S
C1667 C1669 1.415 . S
C1668 C1667 1.355 . S
C1668 C1670 1.419 . S
C1669 C1664 1.425 . S
C1669 C1666 1.409 . S
C1669 C1667 1.415 . S
C1670 H1660 0.930 . S
C1670 C1668 1.419 . S
C1670 C1671 1.362 . S
C1671 H1661 0.930 . S
C1671 C1664 1.409 . S
C1671 C1670 1.362 . S
H1672 C1678 0.930 . S
H1673 C1681 0.930 . S
H1674 C1682 0.930 . S
H1675 C1683 0.930 . S
H1676 C1686 0.930 . S
H1677 C1687 0.930 . S
C1678 H1672 0.930 . S
C1678 C1679 1.355 . S
C1678 C1680 1.415 . S
C1679 C1678 1.355 . S
C1679 C1681 1.419 . S
C1680 C1678 1.415 . S
C1680 C1685 1.425 . S
C1680 C1687 1.409 . S
C1681 H1673 0.930 . S
C1681 C1679 1.419 . S
C1681 C1682 1.362 . S
C1682 H1674 0.930 . S
C1682 C1681 1.362 . S
C1682 C1685 1.409 . S
C1683 H1675 0.930 . S
C1683 C1684 1.355 . S
C1683 C1685 1.415 . S
C1684 C1683 1.355 . S
C1684 C1686 1.419 . S
C1685 C1680 1.425 . S
C1685 C1682 1.409 . S
C1685 C1683 1.415 . S
C1686 H1676 0.930 . S
C1686 C1684 1.419 . S
C1686 C1687 1.362 . S
C1687 H1677 0.930 . S
C1687 C1680 1.409 . S
C1687 C1686 1.362 . S
H1688 C1694 0.930 . S
H1689 C1697 0.930 . S
H1690 C1698 0.930 . S
H1691 C1699 0.930 . S
H1692 C1702 0.930 . S
H1693 C1703 0.930 . S
C1694 H1688 0.930 . S
C1694 C1695 1.355 . S
C1694 C1696 1.415 . S
C1695 C1694 1.355 . S
C1695 C1697 1.419 . S
C1696 C1694 1.415 . S
C1696 C1701 1.425 . S
C1696 C1703 1.409 . S
C1697 H1689 0.930 . S
C1697 C1695 1.419 . S
C1697 C1698 1.362 . S
C1698 H1690 0.930 . S
C1698 C1697 1.362 . S
C1698 C1701 1.409 . S
C1699 H1691 0.930 . S
C1699 C1700 1.355 . S
C1699 C1701 1.415 . S
C1700 C1699 1.355 . S
C1700 C1702 1.419 . S
C1701 C1696 1.425 . S
C1701 C1698 1.409 . S
C1701 C1699 1.415 . S
C1702 H1692 0.930 . S
C1702 C1700 1.419 . S
C1702 C1703 1.362 . S
C1703 H1693 0.930 . S
C1703 C1696 1.409 . S
C1703 C1702 1.362 . S
H1704 C1710 0.930 . S
H1705 C1713 0.930 . S
H1706 C1714 0.930 . S
H1707 C1715 0.930 . S
H1708 C1718 0.930 . S
H1709 C1719 0.930 . S
C1710 H1704 0.930 . S
C1710 C1711 1.355 . S
C1710 C1712 1.415 . S
C1711 C1710 1.355 . S
C1711 C1713 1.419 . S
C1712 C1710 1.415 . S
C1712 C1717 1.425 . S
C1712 C1719 1.409 . S
C1713 H1705 0.930 . S
C1713 C1711 1.419 . S
C1713 C1714 1.362 . S
C1714 H1706 0.930 . S
C1714 C1713 1.362 . S
C1714 C1717 1.409 . S
C1715 H1707 0.930 . S
C1715 C1716 1.355 . S
C1715 C1717 1.415 . S
C1716 C1715 1.355 . S
C1716 C1718 1.419 . S
C1717 C1712 1.425 . S
C1717 C1714 1.409 . S
C1717 C1715 1.415 . S
C1718 H1708 0.930 . S
C1718 C1716 1.419 . S
C1718 C1719 1.362 . S
C1719 H1709 0.930 . S
C1719 C1712 1.409 . S
C1719 C1718 1.362 . S
H1720 C1726 0.930 . S
H1721 C1729 0.930 . S
H1722 C1730 0.930 . S
H1723 C1731 0.930 . S
H1724 C1734 0.930 . S
H1725 C1735 0.930 . S
C1726 H1720 0.930 . S
C1726 C1727 1.355 . S
C1726 C1728 1.415 . S
C1727 C1726 1.355 . S
C1727 C1729 1.419 . S
C1728 C1726 1.415 . S
C1728 C1733 1.425 . S
C1728 C1735 1.409 . S
C1729 H1721 0.930 . S
C1729 C1727 1.419 . S
C1729 C1730 1.362 . S
C1730 H1722 0.930 . S
C1730 C1729 1.362 . S
C1730 C1733 1.409 . S
C1731 H1723 0.930 . S
C1731 C1732 1.355 . S
C1731 C1733 1.415 . S
C1732 C1731 1.355 . S
C1732 C1734 1.419 . S
C1733 C1728 1.425 . S
C1733 C1730 1.409 . S
C1733 C1731 1.415 . S
C1734 H1724 0.930 . S
C1734 C1732 1.419 . S
C1734 C1735 1.362 . S
C1735 H1725 0.930 . S
C1735 C1728 1.409 . S
C1735 C1734 1.362 . S
H1736 C1742 0.930 . S
H1737 C1745 0.930 . S
H1738 C1746 0.930 . S
H1739 C1747 0.930 . S
H1740 C1750 0.930 . S
H1741 C1751 0.930 . S
C1742 H1736 0.930 . S
C1742 C1743 1.355 . S
C1742 C1744 1.415 . S
C1743 C1742 1.355 . S
C1743 C1745 1.419 . S
C1744 C1742 1.415 . S
C1744 C1749 1.425 . S
C1744 C1751 1.409 . S
C1745 H1737 0.930 . S
C1745 C1743 1.419 . S
C1745 C1746 1.362 . S
C1746 H1738 0.930 . S
C1746 C1745 1.362 . S
C1746 C1749 1.409 . S
C1747 H1739 0.930 . S
C1747 C1748 1.355 . S
C1747 C1749 1.415 . S
C1748 C1747 1.355 . S
C1748 C1750 1.419 . S
C1749 C1744 1.425 . S
C1749 C1746 1.409 . S
C1749 C1747 1.415 . S
C1750 H1740 0.930 . S
C1750 C1748 1.419 . S
C1750 C1751 1.362 . S
C1751 H1741 0.930 . S
C1751 C1744 1.409 . S
C1751 C1750 1.362 . S
H1752 C1758 0.930 . S
H1753 C1761 0.930 1_556 S
H1754 C1762 0.930 . S
H1755 C1763 0.930 . S
H1756 C1766 0.930 1_565 S
H1757 C1767 0.930 . S
C1758 H1752 0.930 . S
C1758 C1759 1.355 . S
C1758 C1760 1.415 . S
C1759 C1758 1.355 . S
C1759 C1761 1.419 . S
C1760 C1758 1.415 . S
C1760 C1765 1.425 . S
C1760 C1767 1.409 . S
C1761 H1753 0.930 1_554 S
C1761 C1759 1.419 . S
C1761 C1762 1.362 . S
C1762 H1754 0.930 . S
C1762 C1761 1.362 . S
C1762 C1765 1.409 . S
C1763 H1755 0.930 . S
C1763 C1764 1.355 . S
C1763 C1765 1.415 . S
C1764 C1763 1.355 . S
C1764 C1766 1.419 . S
C1765 C1760 1.425 . S
C1765 C1762 1.409 . S
C1765 C1763 1.415 . S
C1766 H1756 0.930 1_545 S
C1766 C1764 1.419 . S
C1766 C1767 1.362 . S
C1767 H1757 0.930 . S
C1767 C1760 1.409 . S
C1767 C1766 1.362 . S
H1768 C1774 0.930 . S
H1769 C1777 0.930 . S
H1770 C1778 0.930 . S
H1771 C1779 0.930 . S
H1772 C1782 0.930 . S
H1773 C1783 0.930 . S
C1774 H1768 0.930 . S
C1774 C1775 1.355 . S
C1774 C1776 1.415 . S
C1775 C1774 1.355 . S
C1775 C1777 1.419 . S
C1776 C1774 1.415 . S
C1776 C1781 1.425 . S
C1776 C1783 1.409 . S
C1777 H1769 0.930 . S
C1777 C1775 1.419 . S
C1777 C1778 1.362 . S
C1778 H1770 0.930 . S
C1778 C1777 1.362 . S
C1778 C1781 1.409 . S
C1779 H1771 0.930 . S
C1779 C1780 1.355 . S
C1779 C1781 1.415 . S
C1780 C1779 1.355 . S
C1780 C1782 1.419 . S
C1781 C1776 1.425 . S
C1781 C1778 1.409 . S
C1781 C1779 1.415 . S
C1782 H1772 0.930 . S
C1782 C1780 1.419 . S
C1782 C1783 1.362 . S
C1783 H1773 0.930 . S
C1783 C1776 1.409 . S
C1783 C1782 1.362 . S
H1784 C1790 0.930 . S
H1785 C1793 0.930 1_556 S
H1786 C1794 0.930 . S
H1787 C1795 0.930 . S
H1788 C1798 0.930 . S
H1789 C1799 0.930 . S
C1790 H1784 0.930 . S
C1790 C1791 1.355 . S
C1790 C1792 1.415 . S
C1791 C1790 1.355 . S
C1791 C1793 1.419 . S
C1792 C1790 1.415 . S
C1792 C1797 1.413 1_554 S
C1792 C1799 1.409 . S
C1793 H1785 0.930 1_554 S
C1793 C1791 1.419 . S
C1793 C1794 1.362 1_554 S
C1794 H1786 0.930 . S
C1794 C1793 1.362 1_556 S
C1794 C1797 1.413 . S
C1795 H1787 0.930 . S
C1795 C1796 1.355 . S
C1795 C1797 1.424 . S
C1796 C1795 1.355 . S
C1796 C1798 1.419 1_556 S
C1797 C1792 1.413 1_556 S
C1797 C1794 1.413 . S
C1797 C1795 1.424 . S
C1798 H1788 0.930 . S
C1798 C1796 1.419 1_554 S
C1798 C1799 1.362 . S
C1799 H1789 0.930 . S
C1799 C1792 1.409 . S
C1799 C1798 1.362 . S
H1800 C1806 0.930 . S
H1801 C1809 0.930 . S
H1802 C1810 0.930 . S
H1803 C1811 0.930 . S
H1804 C1814 0.930 . S
H1805 C1815 0.930 . S
C1806 H1800 0.930 . S
C1806 C1807 1.355 . S
C1806 C1808 1.415 . S
C1807 C1806 1.355 . S
C1807 C1809 1.419 . S
C1808 C1806 1.415 . S
C1808 C1813 1.425 . S
C1808 C1815 1.409 . S
C1809 H1801 0.930 . S
C1809 C1807 1.419 . S
C1809 C1810 1.362 . S
C1810 H1802 0.930 . S
C1810 C1809 1.362 . S
C1810 C1813 1.409 . S
C1811 H1803 0.930 . S
C1811 C1812 1.355 . S
C1811 C1813 1.415 . S
C1812 C1811 1.355 . S
C1812 C1814 1.419 . S
C1813 C1808 1.425 . S
C1813 C1810 1.409 . S
C1813 C1811 1.415 . S
C1814 H1804 0.930 . S
C1814 C1812 1.419 . S
C1814 C1815 1.362 . S
C1815 H1805 0.930 . S
C1815 C1808 1.409 . S
C1815 C1814 1.362 . S
H1816 C1822 0.930 . S
H1817 C1825 0.930 . S
H1818 C1826 0.930 . S
H1819 C1827 0.930 . S
H1820 C1830 0.930 . S
H1821 C1831 0.930 . S
C1822 H1816 0.930 . S
C1822 C1823 1.355 . S
C1822 C1824 1.415 . S
C1823 C1822 1.355 . S
C1823 C1825 1.419 . S
C1824 C1822 1.415 . S
C1824 C1829 1.425 . S
C1824 C1831 1.409 . S
C1825 H1817 0.930 . S
C1825 C1823 1.419 . S
C1825 C1826 1.362 . S
C1826 H1818 0.930 . S
C1826 C1825 1.362 . S
C1826 C1829 1.409 . S
C1827 H1819 0.930 . S
C1827 C1828 1.355 . S
C1827 C1829 1.415 . S
C1828 C1827 1.355 . S
C1828 C1830 1.419 . S
C1829 C1824 1.425 . S
C1829 C1826 1.409 . S
C1829 C1827 1.415 . S
C1830 H1820 0.930 . S
C1830 C1828 1.419 . S
C1830 C1831 1.362 . S
C1831 H1821 0.930 . S
C1831 C1824 1.409 . S
C1831 C1830 1.362 . S
H1832 C1838 0.930 . S
H1833 C1841 0.930 . S
H1834 C1842 0.930 . S
H1835 C1843 0.930 . S
H1836 C1846 0.930 . S
H1837 C1847 0.930 . S
C1838 H1832 0.930 . S
C1838 C1839 1.355 . S
C1838 C1840 1.415 . S
C1839 C1838 1.355 . S
C1839 C1841 1.419 . S
C1840 C1838 1.415 . S
C1840 C1845 1.425 . S
C1840 C1847 1.409 . S
C1841 H1833 0.930 . S
C1841 C1839 1.419 . S
C1841 C1842 1.362 . S
C1842 H1834 0.930 . S
C1842 C1841 1.362 . S
C1842 C1845 1.409 . S
C1843 H1835 0.930 . S
C1843 C1844 1.355 . S
C1843 C1845 1.415 . S
C1844 C1843 1.355 . S
C1844 C1846 1.419 . S
C1845 C1840 1.425 . S
C1845 C1842 1.409 . S
C1845 C1843 1.415 . S
C1846 H1836 0.930 . S
C1846 C1844 1.419 . S
C1846 C1847 1.362 . S
C1847 H1837 0.930 . S
C1847 C1840 1.409 . S
C1847 C1846 1.362 . S
H1848 C1854 0.930 . S
H1849 C1857 0.930 . S
H1850 C1858 0.930 . S
H1851 C1859 0.930 . S
H1852 C1862 0.930 . S
H1853 C1863 0.930 . S
C1854 H1848 0.930 . S
C1854 C1855 1.355 . S
C1854 C1856 1.415 . S
C1855 C1854 1.355 . S
C1855 C1857 1.419 . S
C1856 C1854 1.415 . S
C1856 C1861 1.425 . S
C1856 C1863 1.409 . S
C1857 H1849 0.930 . S
C1857 C1855 1.419 . S
C1857 C1858 1.362 . S
C1858 H1850 0.930 . S
C1858 C1857 1.362 . S
C1858 C1861 1.409 . S
C1859 H1851 0.930 . S
C1859 C1860 1.355 . S
C1859 C1861 1.415 . S
C1860 C1859 1.355 . S
C1860 C1862 1.419 . S
C1861 C1856 1.425 . S
C1861 C1858 1.409 . S
C1861 C1859 1.415 . S
C1862 H1852 0.930 . S
C1862 C1860 1.419 . S
C1862 C1863 1.362 . S
C1863 H1853 0.930 . S
C1863 C1856 1.409 . S
C1863 C1862 1.362 . S
H1864 C1870 0.930 . S
H1865 C1873 0.930 . S
H1866 C1874 0.930 . S
H1867 C1875 0.930 . S
H1868 C1878 0.930 . S
H1869 C1879 0.930 1_554 S
C1870 H1864 0.930 . S
C1870 C1871 1.361 . S
C1870 C1872 1.415 . S
C1871 C1870 1.361 . S
C1871 C1873 1.410 1_455 S
C1872 C1870 1.415 . S
C1872 C1877 1.425 1_455 S
C1872 C1879 1.409 . S
C1873 H1865 0.930 . S
C1873 C1871 1.410 1_655 S
C1873 C1874 1.362 . S
C1874 H1866 0.930 . S
C1874 C1873 1.362 . S
C1874 C1877 1.409 . S
C1875 H1867 0.930 . S
C1875 C1876 1.355 . S
C1875 C1877 1.415 . S
C1876 C1875 1.355 . S
C1876 C1878 1.419 1_656 S
C1877 C1872 1.425 1_655 S
C1877 C1874 1.409 . S
C1877 C1875 1.415 . S
C1878 H1868 0.930 . S
C1878 C1876 1.419 1_454 S
C1878 C1879 1.362 1_554 S
C1879 H1869 0.930 1_556 S
C1879 C1872 1.409 . S
C1879 C1878 1.362 1_556 S
H1880 C1886 0.930 . S
H1881 C1889 0.930 . S
H1882 C1890 0.930 . S
H1883 C1891 0.930 . S
H1884 C1894 0.930 . S
H1885 C1895 0.930 . S
C1886 H1880 0.930 . S
C1886 C1887 1.355 . S
C1886 C1888 1.415 . S
C1887 C1886 1.355 . S
C1887 C1889 1.419 . S
C1888 C1886 1.415 . S
C1888 C1893 1.425 . S
C1888 C1895 1.409 . S
C1889 H1881 0.930 . S
C1889 C1887 1.419 . S
C1889 C1890 1.362 . S
C1890 H1882 0.930 . S
C1890 C1889 1.362 . S
C1890 C1893 1.409 . S
C1891 H1883 0.930 . S
C1891 C1892 1.355 . S
C1891 C1893 1.415 . S
C1892 C1891 1.355 . S
C1892 C1894 1.419 . S
C1893 C1888 1.425 . S
C1893 C1890 1.409 . S
C1893 C1891 1.415 . S
C1894 H1884 0.930 . S
C1894 C1892 1.419 . S
C1894 C1895 1.362 . S
C1895 H1885 0.930 . S
C1895 C1888 1.409 . S
C1895 C1894 1.362 . S
H1896 C1902 0.930 . S
H1897 C1905 0.930 . S
H1898 C1906 0.930 . S
H1899 C1907 0.930 . S
H1900 C1910 0.930 . S
H1901 C1911 0.930 . S
C1902 H1896 0.930 . S
C1902 C1903 1.355 . S
C1902 C1904 1.415 . S
C1903 C1902 1.355 . S
C1903 C1905 1.419 . S
C1904 C1902 1.415 . S
C1904 C1909 1.425 . S
C1904 C1911 1.409 . S
C1905 H1897 0.930 . S
C1905 C1903 1.419 . S
C1905 C1906 1.362 . S
C1906 H1898 0.930 . S
C1906 C1905 1.362 . S
C1906 C1909 1.409 . S
C1907 H1899 0.930 . S
C1907 C1908 1.355 . S
C1907 C1909 1.415 . S
C1908 C1907 1.355 . S
C1908 C1910 1.419 . S
C1909 C1904 1.425 . S
C1909 C1906 1.409 . S
C1909 C1907 1.415 . S
C1910 H1900 0.930 . S
C1910 C1908 1.419 . S
C1910 C1911 1.362 . S
C1911 H1901 0.930 . S
C1911 C1904 1.409 . S
C1911 C1910 1.362 . S
H1912 C1918 0.930 . S
H1913 C1921 0.930 . S
H1914 C1922 0.930 . S
H1915 C1923 0.930 . S
H1916 C1926 0.930 . S
H1917 C1927 0.930 . S
C1918 H1912 0.930 . S
C1918 C1919 1.355 . S
C1918 C1920 1.415 . S
C1919 C1918 1.355 . S
C1919 C1921 1.419 . S
C1920 C1918 1.415 . S
C1920 C1925 1.425 . S
C1920 C1927 1.409 . S
C1921 H1913 0.930 . S
C1921 C1919 1.419 . S
C1921 C1922 1.362 . S
C1922 H1914 0.930 . S
C1922 C1921 1.362 . S
C1922 C1925 1.409 . S
C1923 H1915 0.930 . S
C1923 C1924 1.355 . S
C1923 C1925 1.415 . S
C1924 C1923 1.355 . S
C1924 C1926 1.419 . S
C1925 C1920 1.425 . S
C1925 C1922 1.409 . S
C1925 C1923 1.415 . S
C1926 H1916 0.930 . S
C1926 C1924 1.419 . S
C1926 C1927 1.362 . S
C1927 H1917 0.930 . S
C1927 C1920 1.409 . S
C1927 C1926 1.362 . S
H1928 C1934 0.930 . S
H1929 C1937 0.930 . S
H1930 C1938 0.930 . S
H1931 C1939 0.930 . S
H1932 C1942 0.930 . S
H1933 C1943 0.930 . S
C1934 H1928 0.930 . S
C1934 C1935 1.355 1_655 S
C1934 C1936 1.415 . S
C1935 C1934 1.355 1_455 S
C1935 C1937 1.419 . S
C1936 C1934 1.415 . S
C1936 C1941 1.425 1_655 S
C1936 C1943 1.409 . S
C1937 H1929 0.930 . S
C1937 C1935 1.419 . S
C1937 C1938 1.362 . S
C1938 H1930 0.930 . S
C1938 C1937 1.362 . S
C1938 C1941 1.409 . S
C1939 H1931 0.930 . S
C1939 C1940 1.355 1_455 S
C1939 C1941 1.415 . S
C1940 C1939 1.355 1_655 S
C1940 C1942 1.419 . S
C1941 C1936 1.425 1_455 S
C1941 C1938 1.409 . S
C1941 C1939 1.415 . S
C1942 H1932 0.930 . S
C1942 C1940 1.419 . S
C1942 C1943 1.362 . S
C1943 H1933 0.930 . S
C1943 C1936 1.409 . S
C1943 C1942 1.362 . S
H1944 C1950 0.930 . S
H1945 C1953 0.930 . S
H1946 C1954 0.930 . S
H1947 C1955 0.930 . S
H1948 C1958 0.930 . S
H1949 C1959 0.930 . S
C1950 H1944 0.930 . S
C1950 C1951 1.355 . S
C1950 C1952 1.415 . S
C1951 C1950 1.355 . S
C1951 C1953 1.419 . S
C1952 C1950 1.415 . S
C1952 C1957 1.425 . S
C1952 C1959 1.409 . S
C1953 H1945 0.930 . S
C1953 C1951 1.419 . S
C1953 C1954 1.362 . S
C1954 H1946 0.930 . S
C1954 C1953 1.362 . S
C1954 C1957 1.409 . S
C1955 H1947 0.930 . S
C1955 C1956 1.355 . S
C1955 C1957 1.415 . S
C1956 C1955 1.355 . S
C1956 C1958 1.419 . S
C1957 C1952 1.425 . S
C1957 C1954 1.409 . S
C1957 C1955 1.415 . S
C1958 H1948 0.930 . S
C1958 C1956 1.419 . S
C1958 C1959 1.362 . S
C1959 H1949 0.930 . S
C1959 C1952 1.409 . S
C1959 C1958 1.362 . S
H1960 C1966 0.930 . S
H1961 C1969 0.930 . S
H1962 C1970 0.930 . S
H1963 C1971 0.930 . S
H1964 C1974 0.930 . S
H1965 C1975 0.930 . S
C1966 H1960 0.930 . S
C1966 C1967 1.355 . S
C1966 C1968 1.415 . S
C1967 C1966 1.355 . S
C1967 C1969 1.419 . S
C1968 C1966 1.415 . S
C1968 C1973 1.425 . S
C1968 C1975 1.409 . S
C1969 H1961 0.930 . S
C1969 C1967 1.419 . S
C1969 C1970 1.362 . S
C1970 H1962 0.930 . S
C1970 C1969 1.362 . S
C1970 C1973 1.409 . S
C1971 H1963 0.930 . S
C1971 C1972 1.355 . S
C1971 C1973 1.415 . S
C1972 C1971 1.355 . S
C1972 C1974 1.419 . S
C1973 C1968 1.425 . S
C1973 C1970 1.409 . S
C1973 C1971 1.415 . S
C1974 H1964 0.930 . S
C1974 C1972 1.419 . S
C1974 C1975 1.362 . S
C1975 H1965 0.930 . S
C1975 C1968 1.409 . S
C1975 C1974 1.362 . S
H1976 C1982 0.930 . S
H1977 C1985 0.930 . S
H1978 C1986 0.930 . S
H1979 C1987 0.930 . S
H1980 C1990 0.930 . S
H1981 C1991 0.930 . S
C1982 H1976 0.930 . S
C1982 C1983 1.355 . S
C1982 C1984 1.415 . S
C1983 C1982 1.355 . S
C1983 C1985 1.419 . S
C1984 C1982 1.415 . S
C1984 C1989 1.425 . S
C1984 C1991 1.409 . S
C1985 H1977 0.930 . S
C1985 C1983 1.419 . S
C1985 C1986 1.362 . S
C1986 H1978 0.930 . S
C1986 C1985 1.362 . S
C1986 C1989 1.409 . S
C1987 H1979 0.930 . S
C1987 C1988 1.355 . S
C1987 C1989 1.415 . S
C1988 C1987 1.355 . S
C1988 C1990 1.419 . S
C1989 C1984 1.425 . S
C1989 C1986 1.409 . S
C1989 C1987 1.415 . S
C1990 H1980 0.930 . S
C1990 C1988 1.419 . S
C1990 C1991 1.362 . S
C1991 H1981 0.930 . S
C1991 C1984 1.409 . S
C1991 C1990 1.362 . S
H1992 C1998 0.930 . S
H1993 C2001 0.930 . S
H1994 C2002 0.930 . S
H1995 C2003 0.930 . S
H1996 C2006 0.930 . S
H1997 C2007 0.930 . S
C1998 H1992 0.930 . S
C1998 C1999 1.355 . S
C1998 C2000 1.415 . S
C1999 C1998 1.355 . S
C1999 C2001 1.419 . S
C2000 C1998 1.415 . S
C2000 C2005 1.425 . S
C2000 C2007 1.409 . S
C2001 H1993 0.930 . S
C2001 C1999 1.419 . S
C2001 C2002 1.362 . S
C2002 H1994 0.930 . S
C2002 C2001 1.362 . S
C2002 C2005 1.409 . S
C2003 H1995 0.930 . S
C2003 C2004 1.355 . S
C2003 C2005 1.415 . S
C2004 C2003 1.355 . S
C2004 C2006 1.419 . S
C2005 C2000 1.425 . S
C2005 C2002 1.409 . S
C2005 C2003 1.415 . S
C2006 H1996 0.930 . S
C2006 C2004 1.419 . S
C2006 C2007 1.362 . S
C2007 H1997 0.930 . S
C2007 C2000 1.409 . S
C2007 C2006 1.362 . S
H2008 C2014 0.930 . S
H2009 C2017 0.930 . S
H2010 C2018 0.930 . S
H2011 C2019 0.930 . S
H2012 C2022 0.930 . S
H2013 C2023 0.930 . S
C2014 H2008 0.930 . S
C2014 C2015 1.355 . S
C2014 C2016 1.415 . S
C2015 C2014 1.355 . S
C2015 C2017 1.419 . S
C2016 C2014 1.415 . S
C2016 C2021 1.425 . S
C2016 C2023 1.409 . S
C2017 H2009 0.930 . S
C2017 C2015 1.419 . S
C2017 C2018 1.362 . S
C2018 H2010 0.930 . S
C2018 C2017 1.362 . S
C2018 C2021 1.409 . S
C2019 H2011 0.930 . S
C2019 C2020 1.355 . S
C2019 C2021 1.415 . S
C2020 C2019 1.355 . S
C2020 C2022 1.419 . S
C2021 C2016 1.425 . S
C2021 C2018 1.409 . S
C2021 C2019 1.415 . S
C2022 H2012 0.930 . S
C2022 C2020 1.419 . S
C2022 C2023 1.362 . S
C2023 H2013 0.930 . S
C2023 C2016 1.409 . S
C2023 C2022 1.362 . S
H2024 C2030 0.930 . S
H2025 C2033 0.930 . S
H2026 C2034 0.930 . S
H2027 C2035 0.930 . S
H2028 C2038 0.930 . S
H2029 C2039 0.930 . S
C2030 H2024 0.930 . S
C2030 C2031 1.355 . S
C2030 C2032 1.415 . S
C2031 C2030 1.355 . S
C2031 C2033 1.419 . S
C2032 C2030 1.415 . S
C2032 C2037 1.425 . S
C2032 C2039 1.409 . S
C2033 H2025 0.930 . S
C2033 C2031 1.419 . S
C2033 C2034 1.362 . S
C2034 H2026 0.930 . S
C2034 C2033 1.362 . S
C2034 C2037 1.409 . S
C2035 H2027 0.930 . S
C2035 C2036 1.355 . S
C2035 C2037 1.415 . S
C2036 C2035 1.355 . S
C2036 C2038 1.419 . S
C2037 C2032 1.425 . S
C2037 C2034 1.409 . S
C2037 C2035 1.415 . S
C2038 H2028 0.930 . S
C2038 C2036 1.419 . S
C2038 C2039 1.362 . S
C2039 H2029 0.930 . S
C2039 C2032 1.409 . S
C2039 C2038 1.362 . S
H2040 C2046 0.930 . S
H2041 C2049 0.930 . S
H2042 C2050 0.930 . S
H2043 C2051 0.930 . S
H2044 C2054 0.930 . S
H2045 C2055 0.930 . S
C2046 H2040 0.930 . S
C2046 C2047 1.355 . S
C2046 C2048 1.415 . S
C2047 C2046 1.355 . S
C2047 C2049 1.419 . S
C2048 C2046 1.415 . S
C2048 C2053 1.425 . S
C2048 C2055 1.409 . S
C2049 H2041 0.930 . S
C2049 C2047 1.419 . S
C2049 C2050 1.362 . S
C2050 H2042 0.930 . S
C2050 C2049 1.362 . S
C2050 C2053 1.409 . S
C2051 H2043 0.930 . S
C2051 C2052 1.355 . S
C2051 C2053 1.415 . S
C2052 C2051 1.355 . S
C2052 C2054 1.419 . S
C2053 C2048 1.425 . S
C2053 C2050 1.409 . S
C2053 C2051 1.415 . S
C2054 H2044 0.930 . S
C2054 C2052 1.419 . S
C2054 C2055 1.362 . S
C2055 H2045 0.930 . S
C2055 C2048 1.409 . S
C2055 C2054 1.362 . S
H2056 C2062 0.930 . S
H2057 C2065 0.930 . S
H2058 C2066 0.930 . S
H2059 C2067 0.930 . S
H2060 C2070 0.930 . S
H2061 C2071 0.930 . S
C2062 H2056 0.930 . S
C2062 C2063 1.355 . S
C2062 C2064 1.415 . S
C2063 C2062 1.355 . S
C2063 C2065 1.419 . S
C2064 C2062 1.415 . S
C2064 C2069 1.425 . S
C2064 C2071 1.409 . S
C2065 H2057 0.930 . S
C2065 C2063 1.419 . S
C2065 C2066 1.362 . S
C2066 H2058 0.930 . S
C2066 C2065 1.362 . S
C2066 C2069 1.409 . S
C2067 H2059 0.930 . S
C2067 C2068 1.355 . S
C2067 C2069 1.415 . S
C2068 C2067 1.355 . S
C2068 C2070 1.419 . S
C2069 C2064 1.425 . S
C2069 C2066 1.409 . S
C2069 C2067 1.415 . S
C2070 H2060 0.930 . S
C2070 C2068 1.419 . S
C2070 C2071 1.362 . S
C2071 H2061 0.930 . S
C2071 C2064 1.409 . S
C2071 C2070 1.362 . S
H2072 C2078 0.930 . S
H2073 C2081 0.930 . S
H2074 C2082 0.930 . S
H2075 C2083 0.930 . S
H2076 C2086 0.930 . S
H2077 C2087 0.930 . S
C2078 H2072 0.930 . S
C2078 C2079 1.355 . S
C2078 C2080 1.415 . S
C2079 C2078 1.355 . S
C2079 C2081 1.419 . S
C2080 C2078 1.415 . S
C2080 C2085 1.425 . S
C2080 C2087 1.409 . S
C2081 H2073 0.930 . S
C2081 C2079 1.419 . S
C2081 C2082 1.362 . S
C2082 H2074 0.930 . S
C2082 C2081 1.362 . S
C2082 C2085 1.409 . S
C2083 H2075 0.930 . S
C2083 C2084 1.355 . S
C2083 C2085 1.415 . S
C2084 C2083 1.355 . S
C2084 C2086 1.419 . S
C2085 C2080 1.425 . S
C2085 C2082 1.409 . S
C2085 C2083 1.415 . S
C2086 H2076 0.930 . S
C2086 C2084 1.419 . S
C2086 C2087 1.362 . S
C2087 H2077 0.930 . S
C2087 C2080 1.409 . S
C2087 C2086 1.362 . S
H2088 C2094 0.930 . S
H2089 C2097 0.930 . S
H2090 C2098 0.930 . S
H2091 C2099 0.930 . S
H2092 C2102 0.930 . S
H2093 C2103 0.930 . S
C2094 H2088 0.930 . S
C2094 C2095 1.355 . S
C2094 C2096 1.415 . S
C2095 C2094 1.355 . S
C2095 C2097 1.419 . S
C2096 C2094 1.415 . S
C2096 C2101 1.425 . S
C2096 C2103 1.409 . S
C2097 H2089 0.930 . S
C2097 C2095 1.419 . S
C2097 C2098 1.362 . S
C2098 H2090 0.930 . S
C2098 C2097 1.362 . S
C2098 C2101 1.409 . S
C2099 H2091 0.930 . S
C2099 C2100 1.355 . S
C2099 C2101 1.415 . S
C2100 C2099 1.355 . S
C2100 C2102 1.419 . S
C2101 C2096 1.425 . S
C2101 C2098 1.409 . S
C2101 C2099 1.415 . S
C2102 H2092 0.930 . S
C2102 C2100 1.419 . S
C2102 C2103 1.362 . S
C2103 H2093 0.930 . S
C2103 C2096 1.409 . S
C2103 C2102 1.362 . S
H2104 C2110 0.930 . S
H2105 C2113 0.930 . S
H2106 C2114 0.930 . S
H2107 C2115 0.930 . S
H2108 C2118 0.930 . S
H2109 C2119 0.930 . S
C2110 H2104 0.930 . S
C2110 C2111 1.355 . S
C2110 C2112 1.415 . S
C2111 C2110 1.355 . S
C2111 C2113 1.419 . S
C2112 C2110 1.415 . S
C2112 C2117 1.425 . S
C2112 C2119 1.409 . S
C2113 H2105 0.930 . S
C2113 C2111 1.419 . S
C2113 C2114 1.362 . S
C2114 H2106 0.930 . S
C2114 C2113 1.362 . S
C2114 C2117 1.409 . S
C2115 H2107 0.930 . S
C2115 C2116 1.355 . S
C2115 C2117 1.415 . S
C2116 C2115 1.355 . S
C2116 C2118 1.419 . S
C2117 C2112 1.425 . S
C2117 C2114 1.409 . S
C2117 C2115 1.415 . S
C2118 H2108 0.930 . S
C2118 C2116 1.419 . S
C2118 C2119 1.362 . S
C2119 H2109 0.930 . S
C2119 C2112 1.409 . S
C2119 C2118 1.362 . S
H2120 C2126 0.930 . S
H2121 C2129 0.930 . S
H2122 C2130 0.930 . S
H2123 C2131 0.930 . S
H2124 C2134 0.930 . S
H2125 C2135 0.930 . S
C2126 H2120 0.930 . S
C2126 C2127 1.355 . S
C2126 C2128 1.415 . S
C2127 C2126 1.355 . S
C2127 C2129 1.419 . S
C2128 C2126 1.415 . S
C2128 C2133 1.425 . S
C2128 C2135 1.409 . S
C2129 H2121 0.930 . S
C2129 C2127 1.419 . S
C2129 C2130 1.362 . S
C2130 H2122 0.930 . S
C2130 C2129 1.362 . S
C2130 C2133 1.409 . S
C2131 H2123 0.930 . S
C2131 C2132 1.355 . S
C2131 C2133 1.415 . S
C2132 C2131 1.355 . S
C2132 C2134 1.419 . S
C2133 C2128 1.425 . S
C2133 C2130 1.409 . S
C2133 C2131 1.415 . S
C2134 H2124 0.930 . S
C2134 C2132 1.419 . S
C2134 C2135 1.362 . S
C2135 H2125 0.930 . S
C2135 C2128 1.409 . S
C2135 C2134 1.362 . S
H2136 C2142 0.930 . S
H2137 C2145 0.930 1_554 S
H2138 C2146 0.930 . S
H2139 C2147 0.930 . S
H2140 C2150 0.930 1_545 S
H2141 C2151 0.955 . S
C2142 H2136 0.930 . S
C2142 C2143 1.355 1_556 S
C2142 C2144 1.415 . S
C2143 C2142 1.355 1_554 S
C2143 C2145 1.419 1_554 S
C2144 C2142 1.415 . S
C2144 C2149 1.425 . S
C2144 C2151 1.409 . S
C2145 H2137 0.930 1_556 S
C2145 C2143 1.419 1_556 S
C2145 C2146 1.362 . S
C2146 H2138 0.930 . S
C2146 C2145 1.362 . S
C2146 C2149 1.409 . S
C2147 H2139 0.930 . S
C2147 C2148 1.355 . S
C2147 C2149 1.415 . S
C2148 C2147 1.355 . S
C2148 C2150 1.419 . S
C2149 C2144 1.425 . S
C2149 C2146 1.409 . S
C2149 C2147 1.415 . S
C2150 H2140 0.930 1_565 S
C2150 C2148 1.419 . S
C2150 C2151 1.362 . S
C2151 H2141 0.955 . S
C2151 C2144 1.409 . S
C2151 C2150 1.362 . S
H2152 C2158 0.930 . S
H2153 C2161 0.930 . S
H2154 C2162 0.930 . S
H2155 C2163 0.930 . S
H2156 C2166 0.930 . S
H2157 C2167 0.930 . S
C2158 H2152 0.930 . S
C2158 C2159 1.355 . S
C2158 C2160 1.415 . S
C2159 C2158 1.355 . S
C2159 C2161 1.419 . S
C2160 C2158 1.415 . S
C2160 C2165 1.425 . S
C2160 C2167 1.409 . S
C2161 H2153 0.930 . S
C2161 C2159 1.419 . S
C2161 C2162 1.362 . S
C2162 H2154 0.930 . S
C2162 C2161 1.362 . S
C2162 C2165 1.409 . S
C2163 H2155 0.930 . S
C2163 C2164 1.355 . S
C2163 C2165 1.415 . S
C2164 C2163 1.355 . S
C2164 C2166 1.419 . S
C2165 C2160 1.425 . S
C2165 C2162 1.409 . S
C2165 C2163 1.415 . S
C2166 H2156 0.930 . S
C2166 C2164 1.419 . S
C2166 C2167 1.362 . S
C2167 H2157 0.930 . S
C2167 C2160 1.409 . S
C2167 C2166 1.362 . S
H2168 C2174 0.930 . S
H2169 C2177 0.930 . S
H2170 C2178 0.930 . S
H2171 C2179 0.930 . S
H2172 C2182 0.930 . S
H2173 C2183 0.930 . S
C2174 H2168 0.930 . S
C2174 C2175 1.355 . S
C2174 C2176 1.415 . S
C2175 C2174 1.355 . S
C2175 C2177 1.419 1_554 S
C2176 C2174 1.415 . S
C2176 C2181 1.425 . S
C2176 C2183 1.409 . S
C2177 H2169 0.930 . S
C2177 C2175 1.419 1_556 S
C2177 C2178 1.362 . S
C2178 H2170 0.930 . S
C2178 C2177 1.362 . S
C2178 C2181 1.409 1_556 S
C2179 H2171 0.930 . S
C2179 C2180 1.355 . S
C2179 C2181 1.415 . S
C2180 C2179 1.355 . S
C2180 C2182 1.419 . S
C2181 C2176 1.425 . S
C2181 C2178 1.409 1_554 S
C2181 C2179 1.415 . S
C2182 H2172 0.930 . S
C2182 C2180 1.419 . S
C2182 C2183 1.362 . S
C2183 H2173 0.930 . S
C2183 C2176 1.409 . S
C2183 C2182 1.362 . S
H2184 C2190 0.930 . S
H2185 C2193 0.930 . S
H2186 C2194 0.930 . S
H2187 C2195 0.930 . S
H2188 C2198 0.930 . S
H2189 C2199 0.930 . S
C2190 H2184 0.930 . S
C2190 C2191 1.355 . S
C2190 C2192 1.415 . S
C2191 C2190 1.355 . S
C2191 C2193 1.419 . S
C2192 C2190 1.415 . S
C2192 C2197 1.425 . S
C2192 C2199 1.409 . S
C2193 H2185 0.930 . S
C2193 C2191 1.419 . S
C2193 C2194 1.362 . S
C2194 H2186 0.930 . S
C2194 C2193 1.362 . S
C2194 C2197 1.409 . S
C2195 H2187 0.930 . S
C2195 C2196 1.355 . S
C2195 C2197 1.415 . S
C2196 C2195 1.355 . S
C2196 C2198 1.419 . S
C2197 C2192 1.425 . S
C2197 C2194 1.409 . S
C2197 C2195 1.415 . S
C2198 H2188 0.930 . S
C2198 C2196 1.419 . S
C2198 C2199 1.362 . S
C2199 H2189 0.930 . S
C2199 C2192 1.409 . S
C2199 C2198 1.362 . S
H2200 C2206 0.930 . S
H2201 C2209 0.930 . S
H2202 C2210 0.930 . S
H2203 C2211 0.930 . S
H2204 C2214 0.930 . S
H2205 C2215 0.930 . S
C2206 H2200 0.930 . S
C2206 C2207 1.355 . S
C2206 C2208 1.415 . S
C2207 C2206 1.355 . S
C2207 C2209 1.419 . S
C2208 C2206 1.415 . S
C2208 C2213 1.425 . S
C2208 C2215 1.409 . S
C2209 H2201 0.930 . S
C2209 C2207 1.419 . S
C2209 C2210 1.362 . S
C2210 H2202 0.930 . S
C2210 C2209 1.362 . S
C2210 C2213 1.409 . S
C2211 H2203 0.930 . S
C2211 C2212 1.355 . S
C2211 C2213 1.415 . S
C2212 C2211 1.355 . S
C2212 C2214 1.419 . S
C2213 C2208 1.425 . S
C2213 C2210 1.409 . S
C2213 C2211 1.415 . S
C2214 H2204 0.930 . S
C2214 C2212 1.419 . S
C2214 C2215 1.362 . S
C2215 H2205 0.930 . S
C2215 C2208 1.409 . S
C2215 C2214 1.362 . S
C692 C328 1.122 . S
C687 C10 1.149 . S
C703 C13 1.291 . S
C708 C356 1.181 . S
C719 C34 1.165 . S
C724 C374 1.187 . S
C740 C400 1.198 . S
C735 C44 1.392 . S
C751 C21 1.380 . S
C756 C423 1.341 . S
C772 C443 1.050 . S
C767 C26 1.057 . S
C788 C471 1.327 . S
C783 C49 1.415 . S
C799 C5 1.067 . S
C804 C489 1.090 . S
C815 C62 1.296 . S
C820 C330 1.320 . S
C831 C73 1.062 . S
C836 C352 1.033 . S
C852 C376 1.334 . S
C847 C88 1.329 1_545 S
C868 C397 1.112 . S
C863 C99 1.119 . S
C879 C60 1.092 . S
C884 C420 1.122 . S
C900 C445 1.315 . S
C895 C75 1.308 . S
C916 C467 1.060 . S
C911 C86 1.083 1_545 S
C932 C491 1.305 . S
C927 C101 1.278 . S
C948 C331 0.972 1_556 S
C943 C96 1.041 . S
C964 C514 1.134 . S
C959 C104 1.144 . S
C975 C122 0.981 . S
C980 C538 0.916 . S
C996 C562 1.091 . S
C991 C130 1.028 . S
C1007 C57 0.991 . S
C1012 C492 0.910 . S
C1028 C377 0.894 . S
C1023 C70 1.069 . S
C1039 C117 1.078 . S
C1044 C583 1.056 . S
C1060 C608 1.054 . S
C1055 C143 1.051 . S
C1071 C164 1.228 . S
C1076 C329 1.218 . S
C1092 C606 1.088 . S
C1087 C169 1.053 . S
C1103 C192 1.238 . S
C1108 C375 1.246 . S
C1119 C200 1.060 . S
C1124 C585 1.072 . S
C1140 C424 1.054 . S
C1135 C179 1.135 . S
C1156 C536 1.156 . S
C1151 C182 1.102 . S
C1172 C468 1.195 . S
C1167 C203 1.191 . S
C1188 C628 1.151 . S
C1183 C161 1.175 . S
C1204 C333 1.071 . S
C1199 C216 1.057 . S
C1215 C231 1.382 . S
C1220 C604 1.370 . S
C1236 C379 1.021 . S
C1231 C242 1.081 1_565 S
C1247 C257 1.347 . S
C1252 C582 1.327 . S
C1263 C218 1.364 . S
C1268 C421 1.332 . S
C1279 C229 1.072 . S
C1284 C540 0.969 . S
C1300 C466 1.301 . S
C1295 C244 1.346 . S
C1311 C255 1.108 . S
C1316 C632 0.982 . S
C1327 C252 1.348 . S
C1332 C332 1.354 . S
C1343 C260 1.311 1_556 S
C1348 C517 1.175 . S
C1359 C278 1.337 . S
C1364 C447 1.327 . S
C1375 C286 1.249 . S
C1380 C561 1.220 . S
C1396 C631 1.308 . S
C1391 C213 1.310 . S
C1412 C378 1.359 . S
C1407 C226 1.355 . S
C1428 C402 1.169 . S
C1423 C273 1.228 . S
C1444 C354 1.140 . S
C1439 C299 1.213 . S
C1455 C36 1.148 . S
C1460 C650 1.120 . S
C1476 C609 1.190 . S
C1471 C39 1.245 . S
C1492 C673 1.158 . S
C1487 C8 1.107 . S
C1503 C18 1.365 . S
C1508 C584 1.306 . S
C1519 C47 1.413 . S
C1524 C515 1.368 . S
C1540 C535 1.080 . S
C1535 C0 1.089 . S
C1556 C563 1.329 . S
C1551 C23 1.415 . S
C1572 C627 1.069 . S
C1567 C31 1.079 . S
C1588 C652 1.296 . S
C1583 C153 1.284 . S
C1599 C112 1.078 . S
C1604 C605 1.085 . S
C1615 C127 1.336 . S
C1620 C675 1.330 . S
C1636 C581 1.052 . S
C1631 C138 1.029 . S
C1652 C512 1.059 . S
C1647 C151 1.059 . S
C1663 C114 1.281 . S
C1668 C537 1.298 . S
C1684 C559 1.074 . S
C1679 C125 1.089 . S
C1695 C140 1.278 . S
C1700 C629 1.311 . S
C1716 C653 1.034 . S
C1711 C135 1.008 . S
C1732 C422 1.129 . S
C1727 C65 1.139 . S
C1748 C446 0.954 . S
C1743 C83 1.009 . S
C1759 C91 1.042 . S
C1764 C470 1.129 . S
C1780 C630 0.866 . S
C1775 C148 0.998 . S
C1791 C109 1.077 . S
C1796 C676 0.927 1_556 S
C1812 C399 1.067 . S
C1807 C78 0.976 . S
C1828 C355 1.057 . S
C1823 C52 0.966 . S
C1839 C190 1.203 . S
C1844 C651 1.252 . S
C1860 C353 1.113 . S
C1855 C195 1.118 . S
C1876 C674 1.220 . S
C1871 C166 1.247 . S
C1887 C174 1.124 . S
C1892 C401 1.122 . S
C1903 C205 1.159 . S
C1908 C516 1.153 . S
C1919 C156 1.160 . S
C1924 C444 1.110 . S
C1935 C177 1.201 . S
C1940 C560 1.213 . S
C1951 C187 1.157 . S
C1956 C490 1.200 . S
C1972 C655 0.984 . S
C1967 C307 1.108 . S
C1983 C270 1.365 . S
C1988 C351 1.337 . S
C2004 C678 1.104 . S
C1999 C281 1.097 . S
C2015 C296 1.363 . S
C2020 C398 1.343 . S
C2031 C309 1.373 . S
C2036 C513 1.329 . S
C2052 C448 0.947 . S
C2047 C268 1.100 . S
C2063 C283 1.372 . S
C2068 C558 1.358 . S
C2084 C494 0.940 . S
C2079 C294 1.084 . S
C2100 C654 1.289 . S
C2095 C291 1.292 . S
C2116 C425 1.212 . S
C2111 C221 1.308 . S
C2127 C239 1.322 . S
C2132 C539 1.299 . S
C2148 C469 1.201 . S
C2143 C247 1.249 . S
C2164 C493 1.273 . S
C2159 C304 1.294 . S
C2175 C265 1.368 . S
C2180 C677 1.372 . S
C2196 C586 1.145 . S
C2191 C234 1.199 . S
C2212 C607 1.061 . S
C2207 C208 1.256 . S
