# Generated by pormake.
# Topology wbl, (4,4)-cn, num edge types: 1
# Building blocks:
#     Node 0, Type 0, BuildingBlock: MUDLON_clean_sbu_0, # of connection points: 4
#     Node 1, Type 0, BuildingBlock: MUDLON_clean_sbu_0, # of connection points: 4
#     Node 2, Type 0, BuildingBlock: MUDLON_clean_sbu_0, # of connection points: 4
#     Node 3, Type 0, BuildingBlock: MUDLON_clean_sbu_0, # of connection points: 4
#     Node 4, Type 0, BuildingBlock: MUDLON_clean_sbu_0, # of connection points: 4
#     Node 5, Type 0, BuildingBlock: MUDLON_clean_sbu_0, # of connection points: 4
#     Node 6, Type 0, BuildingBlock: MUDLON_clean_sbu_0, # of connection points: 4
#     Node 7, Type 0, BuildingBlock: MUDLON_clean_sbu_0, # of connection points: 4
#     Node 8, Type 1, BuildingBlock: GALJAG_clean_sbu_0, # of connection points: 4
#     Node 9, Type 1, BuildingBlock: GALJAG_clean_sbu_0, # of connection points: 4
#     Node 10, Type 1, BuildingBlock: GALJAG_clean_sbu_0, # of connection points: 4
#     Node 11, Type 1, BuildingBlock: GALJAG_clean_sbu_0, # of connection points: 4
#     Node 12, Type 1, BuildingBlock: GALJAG_clean_sbu_0, # of connection points: 4
#     Node 13, Type 1, BuildingBlock: GALJAG_clean_sbu_0, # of connection points: 4
#     Node 14, Type 1, BuildingBlock: GALJAG_clean_sbu_0, # of connection points: 4
#     Node 15, Type 1, BuildingBlock: GALJAG_clean_sbu_0, # of connection points: 4
#     Edge 16, Type (0, 1), BuildingBlock: KIFKEQ_clean_linker_1, # of connection points: 2
#     Edge 17, Type (0, 1), BuildingBlock: KIFKEQ_clean_linker_1, # of connection points: 2
#     Edge 18, Type (0, 1), BuildingBlock: KIFKEQ_clean_linker_1, # of connection points: 2
#     Edge 19, Type (0, 1), BuildingBlock: KIFKEQ_clean_linker_1, # of connection points: 2
#     Edge 20, Type (0, 1), BuildingBlock: KIFKEQ_clean_linker_1, # of connection points: 2
#     Edge 21, Type (0, 1), BuildingBlock: KIFKEQ_clean_linker_1, # of connection points: 2
#     Edge 22, Type (0, 1), BuildingBlock: KIFKEQ_clean_linker_1, # of connection points: 2
#     Edge 23, Type (0, 1), BuildingBlock: KIFKEQ_clean_linker_1, # of connection points: 2
#     Edge 24, Type (0, 1), BuildingBlock: KIFKEQ_clean_linker_1, # of connection points: 2
#     Edge 25, Type (0, 1), BuildingBlock: KIFKEQ_clean_linker_1, # of connection points: 2
#     Edge 26, Type (0, 1), BuildingBlock: KIFKEQ_clean_linker_1, # of connection points: 2
#     Edge 27, Type (0, 1), BuildingBlock: KIFKEQ_clean_linker_1, # of connection points: 2
#     Edge 28, Type (0, 1), BuildingBlock: KIFKEQ_clean_linker_1, # of connection points: 2
#     Edge 29, Type (0, 1), BuildingBlock: KIFKEQ_clean_linker_1, # of connection points: 2
#     Edge 30, Type (0, 1), BuildingBlock: KIFKEQ_clean_linker_1, # of connection points: 2
#     Edge 31, Type (0, 1), BuildingBlock: KIFKEQ_clean_linker_1, # of connection points: 2
#     Edge 32, Type (0, 1), BuildingBlock: KIFKEQ_clean_linker_1, # of connection points: 2
#     Edge 33, Type (0, 1), BuildingBlock: KIFKEQ_clean_linker_1, # of connection points: 2
#     Edge 34, Type (0, 1), BuildingBlock: KIFKEQ_clean_linker_1, # of connection points: 2
#     Edge 35, Type (0, 1), BuildingBlock: KIFKEQ_clean_linker_1, # of connection points: 2
#     Edge 36, Type (0, 1), BuildingBlock: KIFKEQ_clean_linker_1, # of connection points: 2
#     Edge 37, Type (0, 1), BuildingBlock: KIFKEQ_clean_linker_1, # of connection points: 2
#     Edge 38, Type (0, 1), BuildingBlock: KIFKEQ_clean_linker_1, # of connection points: 2
#     Edge 39, Type (0, 1), BuildingBlock: KIFKEQ_clean_linker_1, # of connection points: 2
#     Edge 40, Type (0, 1), BuildingBlock: KIFKEQ_clean_linker_1, # of connection points: 2
#     Edge 41, Type (0, 1), BuildingBlock: KIFKEQ_clean_linker_1, # of connection points: 2
#     Edge 42, Type (0, 1), BuildingBlock: KIFKEQ_clean_linker_1, # of connection points: 2
#     Edge 43, Type (0, 1), BuildingBlock: KIFKEQ_clean_linker_1, # of connection points: 2
#     Edge 44, Type (0, 1), BuildingBlock: KIFKEQ_clean_linker_1, # of connection points: 2
#     Edge 45, Type (0, 1), BuildingBlock: KIFKEQ_clean_linker_1, # of connection points: 2
#     Edge 46, Type (0, 1), BuildingBlock: KIFKEQ_clean_linker_1, # of connection points: 2
#     Edge 47, Type (0, 1), BuildingBlock: KIFKEQ_clean_linker_1, # of connection points: 2
# Relax obj value: 0.157
# Max RMSD: 0.185
# Mean RMSD: 0.147
data_MOF--net-wbl--node1-MUDLON_clean_sbu_0--node2-GALJAG_clean_sbu_0--edge1-KIFKEQ_clean_linker_1
_symmetry_space_group_name_H-M    P1
_symmetry_Int_Tables_number       1
_symmetry_cell_setting            triclinic
loop_
_symmetry_equiv_pos_as_xyz
'x, y, z'
_cell_length_a     34.8072
_cell_length_b     34.936799
_cell_length_c     82.904505
_cell_angle_alpha  90.03397
_cell_angle_beta   90.029813
_cell_angle_gamma 90.014374
loop_
_atom_site_label
_atom_site_type_symbol
_atom_site_fract_x
_atom_site_fract_y
_atom_site_fract_z
_atom_type_partial_charge
Mg0 Mg 0.0034 0.01004 0.34931 0.0
C1 C 0.97 0.97129 0.37768 0.0
O2 O 0.95259 0.00464 0.37811 0.0
C3 C 0.95263 0.02358 0.31983 0.0
O4 O 0.981 0.00655 0.31224 0.0
C5 C 0.05185 0.96123 0.32788 0.0
O6 O 0.02238 0.93841 0.33027 0.0
O7 O 0.05185 0.99417 0.33441 0.0
O8 O 0.99048 0.96314 0.36546 0.0
O9 O 0.01731 0.05478 0.36646 0.0
C10 C 0.99358 0.08188 0.36873 0.0
O11 O 0.96528 0.08636 0.35841 0.0
O12 O 0.95429 0.02761 0.33505 0.0
Mg13 Mg 0.0077 0.50387 0.59627 0.0
C14 C 0.04991 0.47259 0.62435 0.0
O15 O 0.01876 0.45132 0.62453 0.0
C16 C 0.96018 0.43805 0.58403 0.0
O17 O 0.93624 0.4526 0.59463 0.0
C18 C 0.05263 0.56733 0.58071 0.0
O19 O 0.07948 0.55221 0.58984 0.0
O20 O 0.01908 0.55292 0.58094 0.0
O21 O 0.056 0.49386 0.61217 0.0
O22 O 0.96339 0.51546 0.61397 0.0
C23 C 0.97384 0.53502 0.62615 0.0
O24 O 0.00693 0.55309 0.62558 0.0
O25 O 0.99291 0.4536 0.58216 0.0
Mg26 Mg 0.50068 0.48383 0.84617 0.0
C27 C 0.50101 0.55728 0.86595 0.0
O28 O 0.47748 0.56915 0.85462 0.0
C29 C 0.57992 0.48305 0.83106 0.0
O30 O 0.58696 0.50603 0.84326 0.0
C31 C 0.4417 0.4951 0.81955 0.0
O32 O 0.46447 0.47122 0.81191 0.0
O33 O 0.44953 0.50441 0.834 0.0
O34 O 0.51763 0.52516 0.8643 0.0
O35 O 0.48977 0.43536 0.86181 0.0
C36 C 0.51829 0.41393 0.86498 0.0
O37 O 0.54968 0.41773 0.85634 0.0
O38 O 0.5461 0.47013 0.82915 0.0
Mg39 Mg 0.49575 0.99796 0.09865 0.0
C40 C 0.56846 0.00327 0.1193 0.0
O41 O 0.58099 0.02494 0.10747 0.0
C42 C 0.47961 0.91705 0.08773 0.0
O43 O 0.47757 0.91174 0.10339 0.0
C44 C 0.53656 0.04621 0.074 0.0
O45 O 0.55034 0.01241 0.07015 0.0
O46 O 0.51261 0.04881 0.08552 0.0
O47 O 0.53645 0.98621 0.11777 0.0
O48 O 0.44457 0.00777 0.11297 0.0
C49 C 0.41487 0.98664 0.11244 0.0
O50 O 0.41097 0.9622 0.10051 0.0
O51 O 0.48789 0.95008 0.08235 0.0
Mg52 Mg 0.01022 0.48696 0.91279 0.0
C53 C 0.01078 0.56116 0.89363 0.0
O54 O 0.03442 0.57227 0.90507 0.0
C55 C 0.92991 0.48259 0.92633 0.0
O56 O 0.92259 0.50211 0.91314 0.0
C57 C 0.06527 0.50264 0.94033 0.0
O58 O 0.03892 0.48404 0.94853 0.0
O59 O 0.06105 0.50696 0.92522 0.0
O60 O 0.99387 0.52911 0.89498 0.0
O61 O 0.02119 0.43856 0.89711 0.0
C62 C 0.9939 0.41508 0.89468 0.0
O63 O 0.96367 0.41658 0.90414 0.0
O64 O 0.96437 0.47329 0.92947 0.0
Mg65 Mg 0.51458 0.50592 0.15965 0.0
C66 C 0.44012 0.50419 0.14059 0.0
O67 O 0.42985 0.53081 0.15091 0.0
C68 C 0.51791 0.42939 0.17651 0.0
O69 O 0.48822 0.42288 0.1671 0.0
C70 C 0.47123 0.55193 0.18429 0.0
O71 O 0.45877 0.51754 0.18801 0.0
O72 O 0.49519 0.55568 0.17284 0.0
O73 O 0.47121 0.48605 0.14294 0.0
O74 O 0.55833 0.5203 0.14224 0.0
C75 C 0.58676 0.49826 0.13986 0.0
O76 O 0.59435 0.47145 0.1505 0.0
O77 O 0.53438 0.46179 0.17594 0.0
Mg78 Mg 0.49292 0.01807 0.41228 0.0
C79 C 0.51367 0.09105 0.39471 0.0
O80 O 0.54395 0.0896 0.40414 0.0
C81 C 0.4353 0.97227 0.43033 0.0
O82 O 0.455 0.94542 0.42293 0.0
C83 C 0.5463 0.04424 0.43794 0.0
O84 O 0.51406 0.06101 0.44219 0.0
O85 O 0.5463 0.02252 0.42563 0.0
O86 O 0.48572 0.06858 0.39741 0.0
O87 O 0.49255 0.97532 0.39327 0.0
C88 C 0.46351 0.9811 0.38427 0.0
O89 O 0.43825 0.00698 0.38872 0.0
O90 O 0.44482 0.00705 0.42825 0.0
Mg91 Mg 0.99143 0.99266 0.66381 0.0
C92 C 0.02968 0.02599 0.63517 0.0
O93 O 0.99622 0.04335 0.63486 0.0
C94 C 0.99229 0.07265 0.67828 0.0
O95 O 0.02074 0.07705 0.66804 0.0
C96 C 0.038 0.9428 0.68575 0.0
O97 O 0.05967 0.97359 0.68546 0.0
O98 O 0.00672 0.94266 0.67782 0.0
O99 O 0.03807 0.00546 0.64734 0.0
O100 O 0.94539 0.98087 0.6469 0.0
C101 C 0.91939 0.0058 0.64461 0.0
O102 O 0.91666 0.03456 0.65476 0.0
O103 O 0.97575 0.04032 0.67926 0.0
In104 In 0.3717 0.63512 0.00311 0.0
O105 O 0.35763 0.69438 0.01315 0.0
O106 O 0.41647 0.67924 0.01036 0.0
C107 C 0.30268 0.61092 0.99255 0.0
C108 C 0.37786 0.59475 0.03065 0.0
C109 C 0.41203 0.63 0.97545 0.0
O110 O 0.31099 0.64608 0.99354 0.0
O111 O 0.32898 0.58843 0.99697 0.0
O112 O 0.42233 0.61272 0.98815 0.0
O113 O 0.38193 0.64981 0.97686 0.0
C114 C 0.39239 0.70385 0.01502 0.0
O115 O 0.39579 0.58512 0.018 0.0
O116 O 0.35729 0.62425 0.02925 0.0
In117 In 0.35114 0.85876 0.25057 0.0
O118 O 0.34051 0.79673 0.2428 0.0
O119 O 0.39787 0.81761 0.24266 0.0
C120 C 0.2826 0.87699 0.26362 0.0
C121 C 0.3524 0.89645 0.2222 0.0
C122 C 0.39486 0.87547 0.27653 0.0
O123 O 0.29429 0.84281 0.26277 0.0
O124 O 0.30512 0.90145 0.25769 0.0
O125 O 0.39372 0.89648 0.26416 0.0
O126 O 0.37448 0.84567 0.27568 0.0
C127 C 0.37549 0.78997 0.23995 0.0
O128 O 0.37753 0.90141 0.23299 0.0
O129 O 0.32658 0.87252 0.22574 0.0
In130 In 0.13048 0.8761 0.50558 0.0
O131 O 0.11008 0.92979 0.51885 0.0
O132 O 0.14447 0.89007 0.53178 0.0
C133 C 0.0836 0.87892 0.47964 0.0
C134 C 0.11294 0.80643 0.51754 0.0
C135 C 0.19869 0.8981 0.49317 0.0
O136 O 0.07501 0.89423 0.49294 0.0
O137 O 0.11551 0.86185 0.4795 0.0
O138 O 0.19288 0.86462 0.49837 0.0
O139 O 0.17035 0.92037 0.49445 0.0
C140 C 0.12598 0.92108 0.53203 0.0
O141 O 0.14616 0.81464 0.51247 0.0
O142 O 0.08869 0.83308 0.5163 0.0
In143 In 0.1377 0.63278 0.75585 0.0
O144 O 0.08798 0.61252 0.77172 0.0
O145 O 0.12942 0.65001 0.78205 0.0
C146 C 0.12587 0.58857 0.72962 0.0
C147 C 0.20539 0.60578 0.76682 0.0
C148 C 0.12005 0.70243 0.74372 0.0
O149 O 0.10369 0.58797 0.74168 0.0
O150 O 0.15384 0.61135 0.73085 0.0
O151 O 0.15435 0.69103 0.745 0.0
O152 O 0.09524 0.67901 0.74869 0.0
C153 C 0.0991 0.6308 0.78402 0.0
O154 O 0.19968 0.64108 0.76443 0.0
O155 O 0.1772 0.58443 0.76353 0.0
In156 In 0.86199 0.1368 0.50676 0.0
O157 O 0.84879 0.19733 0.51577 0.0
O158 O 0.90548 0.17583 0.51886 0.0
C159 C 0.79444 0.11737 0.49305 0.0
C160 C 0.86424 0.09215 0.53329 0.0
C161 C 0.90637 0.13472 0.48009 0.0
O162 O 0.80117 0.15086 0.4981 0.0
O163 O 0.82164 0.09398 0.49499 0.0
O164 O 0.90607 0.10791 0.49032 0.0
O165 O 0.8847 0.16252 0.48345 0.0
C166 C 0.88241 0.2032 0.52099 0.0
O167 O 0.89083 0.09214 0.52291 0.0
O168 O 0.83655 0.11417 0.53012 0.0
In169 In 0.87503 0.36817 0.75446 0.0
O170 O 0.90447 0.41864 0.74204 0.0
O171 O 0.86309 0.38682 0.72869 0.0
C172 C 0.91426 0.36536 0.78248 0.0
C173 C 0.89738 0.30202 0.74066 0.0
C174 C 0.80609 0.39178 0.76571 0.0
O175 O 0.92082 0.39043 0.77185 0.0
O176 O 0.88812 0.34181 0.77892 0.0
O177 O 0.81244 0.35719 0.76211 0.0
O178 O 0.83404 0.41397 0.76332 0.0
C179 C 0.8868 0.41416 0.72885 0.0
O180 O 0.8623 0.30986 0.74294 0.0
O181 O 0.92063 0.32728 0.74546 0.0
In182 In 0.64047 0.3536 0.0031 0.0
O183 O 0.65391 0.29256 0.01125 0.0
O184 O 0.59666 0.31337 0.01395 0.0
C185 C 0.70625 0.38005 0.99013 0.0
C186 C 0.63827 0.39506 0.03044 0.0
C187 C 0.59654 0.35322 0.97634 0.0
O188 O 0.70242 0.34538 0.99421 0.0
O189 O 0.67731 0.40077 0.99276 0.0
O190 O 0.5914 0.37714 0.9876 0.0
O191 O 0.62331 0.32957 0.97875 0.0
C192 C 0.61991 0.28602 0.01593 0.0
O193 O 0.61671 0.4025 0.01856 0.0
O194 O 0.66059 0.36701 0.02845 0.0
In195 In 0.64566 0.14462 0.25491 0.0
O196 O 0.59638 0.12388 0.27112 0.0
O197 O 0.64005 0.15888 0.28143 0.0
C198 C 0.63813 0.10307 0.22773 0.0
C199 C 0.71637 0.12274 0.26415 0.0
C200 C 0.6204 0.21233 0.24365 0.0
O201 O 0.62225 0.09306 0.2408 0.0
O202 O 0.6575 0.13351 0.22854 0.0
O203 O 0.65579 0.20527 0.24538 0.0
O204 O 0.59821 0.18569 0.24796 0.0
C205 C 0.60924 0.1406 0.28354 0.0
O206 O 0.7074 0.15763 0.26254 0.0
O207 O 0.68989 0.09928 0.2609 0.0
H208 H 0.05799 0.89535 0.31026 0.0
H209 H 0.11971 0.99857 0.32274 0.0
H210 H 0.112 0.87451 0.29373 0.0
H211 H 0.17403 0.97728 0.3066 0.0
H212 H 0.24993 0.94762 0.26439 0.0
H213 H 0.1928 0.96753 0.27907 0.0
H214 H 0.1773 0.85179 0.29628 0.0
H215 H 0.23403 0.83166 0.28116 0.0
C216 C 0.08313 0.91354 0.30953 0.0
C217 C 0.08454 0.94865 0.3178 0.0
C218 C 0.11417 0.90148 0.30012 0.0
C219 C 0.14734 0.92422 0.29881 0.0
C220 C 0.14868 0.95934 0.30711 0.0
C221 C 0.11761 0.97146 0.31645 0.0
C222 C 0.23414 0.92636 0.27121 0.0
C223 C 0.24649 0.88811 0.27168 0.0
C224 C 0.20155 0.93783 0.27972 0.0
C225 C 0.18066 0.91136 0.289 0.0
C226 C 0.19251 0.87285 0.28914 0.0
C227 C 0.22508 0.86132 0.28054 0.0
H228 H 0.11976 0.60758 0.57922 0.0
H229 H 0.00549 0.60287 0.55891 0.0
H230 H 0.13395 0.66371 0.56292 0.0
H231 H 0.02006 0.65852 0.54225 0.0
H232 H 0.04485 0.78513 0.53097 0.0
H233 H 0.03035 0.7262 0.54539 0.0
H234 H 0.14502 0.68477 0.53563 0.0
H235 H 0.15981 0.74436 0.52155 0.0
C236 C 0.09774 0.61833 0.57118 0.0
C237 C 0.06142 0.60084 0.57043 0.0
C238 C 0.106 0.65038 0.56173 0.0
C239 C 0.07818 0.66565 0.55125 0.0
C240 C 0.04199 0.64783 0.55035 0.0
C241 C 0.03368 0.61582 0.55985 0.0
C242 C 0.06688 0.76332 0.53181 0.0
C243 C 0.10352 0.76941 0.52519 0.0
C244 C 0.0585 0.72942 0.54 0.0
C245 C 0.08654 0.70074 0.54172 0.0
C246 C 0.12294 0.70651 0.53475 0.0
C247 C 0.13136 0.74052 0.52658 0.0
H248 H 0.41203 0.47581 0.79009 0.0
H249 H 0.39493 0.5525 0.83038 0.0
H250 H 0.3563 0.50364 0.77656 0.0
H251 H 0.33922 0.58015 0.81684 0.0
H252 H 0.26529 0.6457 0.78001 0.0
H253 H 0.32364 0.61953 0.79228 0.0
H254 H 0.28517 0.50504 0.78105 0.0
H255 H 0.22703 0.5311 0.76882 0.0
C256 C 0.39641 0.49857 0.79606 0.0
C257 C 0.40785 0.51183 0.81134 0.0
C258 C 0.36444 0.51442 0.78833 0.0
C259 C 0.34345 0.54409 0.79564 0.0
C260 C 0.3551 0.5576 0.81084 0.0
C261 C 0.38684 0.54154 0.81864 0.0
C262 C 0.26948 0.61498 0.78008 0.0
C263 C 0.24162 0.59043 0.77349 0.0
C264 C 0.30272 0.6 0.78718 0.0
C265 C 0.30891 0.56023 0.78764 0.0
C266 C 0.28137 0.5358 0.78074 0.0
C267 C 0.248 0.55073 0.77381 0.0
H268 H 0.4944 0.91228 0.05541 0.0
H269 H 0.43859 0.85259 0.09457 0.0
H270 H 0.47258 0.86278 0.03659 0.0
H271 H 0.41647 0.80356 0.07571 0.0
H272 H 0.34807 0.74972 0.03402 0.0
H273 H 0.36965 0.80257 0.05115 0.0
H274 H 0.48497 0.7895 0.03284 0.0
H275 H 0.46358 0.73628 0.01586 0.0
C276 C 0.47758 0.88858 0.05999 0.0
C277 C 0.46827 0.88625 0.07647 0.0
C278 C 0.46517 0.86031 0.04923 0.0
C279 C 0.44263 0.82963 0.05471 0.0
C280 C 0.43345 0.82721 0.07117 0.0
C281 C 0.4464 0.85508 0.08197 0.0
C282 C 0.37789 0.75851 0.03348 0.0
C283 C 0.40419 0.73889 0.02365 0.0
C284 C 0.39026 0.78851 0.04336 0.0
C285 C 0.429 0.79982 0.04338 0.0
C286 C 0.45493 0.78137 0.033 0.0
C287 C 0.4427 0.75094 0.02332 0.0
H288 H 0.1179 0.55257 0.92794 0.0
H289 H 0.08845 0.49122 0.97148 0.0
H290 H 0.1734 0.58047 0.94155 0.0
H291 H 0.14408 0.51926 0.98506 0.0
H292 H 0.27493 0.53831 0.99411 0.0
H293 H 0.21596 0.51341 0.98217 0.0
H294 H 0.1882 0.62627 0.96444 0.0
H295 H 0.24737 0.65135 0.97647 0.0
C296 C 0.12325 0.54504 0.94041 0.0
C297 C 0.09889 0.51952 0.94861 0.0
C298 C 0.15485 0.56129 0.94823 0.0
C299 C 0.16297 0.55207 0.96436 0.0
C300 C 0.13859 0.52665 0.97258 0.0
C301 C 0.10674 0.51069 0.96482 0.0
C302 C 0.2561 0.55788 0.98777 0.0
C303 C 0.26575 0.59674 0.98617 0.0
C304 C 0.22226 0.54365 0.98101 0.0
C305 C 0.19758 0.56789 0.97236 0.0
C306 C 0.20691 0.60691 0.97095 0.0
C307 C 0.24061 0.62127 0.97789 0.0
H308 H 0.4182 0.55445 0.20866 0.0
H309 H 0.49205 0.62647 0.17976 0.0
H310 H 0.39498 0.61085 0.22308 0.0
H311 H 0.46843 0.68266 0.19398 0.0
H312 H 0.44933 0.77004 0.23337 0.0
H313 H 0.47236 0.71147 0.22073 0.0
H314 H 0.35598 0.6688 0.21829 0.0
H315 H 0.33293 0.72738 0.23123 0.0
C316 C 0.42945 0.58227 0.20537 0.0
C317 C 0.45707 0.58596 0.19309 0.0
C318 C 0.41598 0.61458 0.21358 0.0
C319 C 0.42998 0.65118 0.20972 0.0
C320 C 0.45752 0.6548 0.19742 0.0
C321 C 0.4709 0.62258 0.1892 0.0
C322 C 0.42866 0.74807 0.23023 0.0
C323 C 0.3893 0.75335 0.23321 0.0
C324 C 0.44184 0.71461 0.22291 0.0
C325 C 0.41597 0.68566 0.21837 0.0
C326 C 0.37666 0.69048 0.22174 0.0
C327 C 0.36344 0.72406 0.22909 0.0
H328 H 0.39332 0.01898 0.45019 0.0
H329 H 0.40215 0.90202 0.43364 0.0
H330 H 0.3381 0.00154 0.46676 0.0
H331 H 0.34638 0.88488 0.44971 0.0
H332 H 0.26525 0.85709 0.49055 0.0
H333 H 0.3241 0.87576 0.47663 0.0
H334 H 0.27218 0.98399 0.46386 0.0
H335 H 0.21402 0.96579 0.47823 0.0
C336 C 0.3834 0.98959 0.45005 0.0
C337 C 0.4021 0.96191 0.44059 0.0
C338 C 0.35164 0.97961 0.45948 0.0
C339 C 0.3377 0.94178 0.45958 0.0
C340 C 0.35666 0.91412 0.45018 0.0
C341 C 0.38853 0.92403 0.44085 0.0
C342 C 0.26661 0.88498 0.48487 0.0
C343 C 0.23504 0.90994 0.48545 0.0
C344 C 0.30022 0.89561 0.4768 0.0
C345 C 0.30288 0.93133 0.46903 0.0
C346 C 0.27143 0.95651 0.46988 0.0
C347 C 0.23795 0.94598 0.47804 0.0
H348 H 0.00211 0.87333 0.68733 0.0
H349 H 0.10187 0.93447 0.70469 0.0
H350 H 0.02297 0.81644 0.7018 0.0
H351 H 0.12228 0.87769 0.71951 0.0
H352 H 0.16671 0.75462 0.72875 0.0
H353 H 0.14723 0.81353 0.71508 0.0
H354 H 0.02935 0.79267 0.72888 0.0
H355 H 0.04866 0.73361 0.74211 0.0
C356 C 0.02836 0.87473 0.69433 0.0
C357 C 0.05029 0.90847 0.69486 0.0
C358 C 0.04023 0.84215 0.70271 0.0
C359 C 0.07425 0.84252 0.71188 0.0
C360 C 0.09617 0.87629 0.71242 0.0
C361 C 0.08433 0.90891 0.704 0.0
C362 C 0.1367 0.76282 0.72891 0.0
C363 C 0.10918 0.73942 0.7364 0.0
C364 C 0.12554 0.79662 0.72115 0.0
C365 C 0.08666 0.80768 0.72077 0.0
C366 C 0.0594 0.78465 0.72865 0.0
C367 C 0.07051 0.75091 0.73633 0.0
H368 H 0.65479 0.50625 0.83158 0.0
H369 H 0.57645 0.43161 0.80611 0.0
H370 H 0.70728 0.48416 0.8146 0.0
H371 H 0.62907 0.40992 0.78889 0.0
H372 H 0.74469 0.34905 0.77597 0.0
H373 H 0.68834 0.37174 0.79082 0.0
H374 H 0.72988 0.48792 0.78696 0.0
H375 H 0.78623 0.46525 0.77247 0.0
C376 C 0.64868 0.48534 0.82227 0.0
C377 C 0.6114 0.47072 0.82021 0.0
C378 C 0.67876 0.47282 0.81246 0.0
C379 C 0.67236 0.44534 0.80034 0.0
C380 C 0.63502 0.43085 0.79821 0.0
C381 C 0.60484 0.44347 0.80801 0.0
C382 C 0.74149 0.37945 0.77816 0.0
C383 C 0.77 0.40532 0.77318 0.0
C384 C 0.70919 0.39247 0.78662 0.0
C385 C 0.70483 0.43161 0.79022 0.0
C386 C 0.73272 0.45752 0.78467 0.0
C387 C 0.76492 0.44454 0.77627 0.0
H388 H 0.58631 0.05058 0.04852 0.0
H389 H 0.51568 0.12035 0.07972 0.0
H390 H 0.60673 0.1078 0.03399 0.0
H391 H 0.53669 0.17747 0.06543 0.0
H392 H 0.54821 0.26604 0.0258 0.0
H393 H 0.52845 0.20755 0.03938 0.0
H394 H 0.64522 0.16581 0.03748 0.0
H395 H 0.66488 0.22428 0.02352 0.0
C396 C 0.57523 0.07811 0.05231 0.0
C397 C 0.54922 0.08088 0.06523 0.0
C398 C 0.58713 0.11092 0.04404 0.0
C399 C 0.57325 0.14719 0.04851 0.0
C400 C 0.54744 0.14991 0.06151 0.0
C401 C 0.53555 0.11716 0.06976 0.0
C402 C 0.56967 0.24432 0.02822 0.0
C403 C 0.60812 0.24976 0.02363 0.0
C404 C 0.55838 0.2109 0.0361 0.0
C405 C 0.5853 0.18212 0.03963 0.0
C406 C 0.62372 0.18729 0.03481 0.0
C407 C 0.63502 0.22081 0.02688 0.0
H408 H 0.93302 0.00976 0.2884 0.0
H409 H 0.89777 0.073 0.33071 0.0
H410 H 0.87814 0.03564 0.27354 0.0
H411 H 0.8432 0.09887 0.31581 0.0
H412 H 0.77117 0.16585 0.27922 0.0
H413 H 0.83056 0.14305 0.29181 0.0
H414 H 0.80536 0.02814 0.27578 0.0
H415 H 0.74601 0.05077 0.26331 0.0
C416 C 0.91366 0.02923 0.29451 0.0
C417 C 0.91961 0.03919 0.31075 0.0
C418 C 0.88226 0.04396 0.28601 0.0
C419 C 0.85658 0.06934 0.29352 0.0
C420 C 0.86283 0.07971 0.30968 0.0
C421 C 0.89388 0.06462 0.31823 0.0
C422 C 0.7786 0.13583 0.27823 0.0
C423 C 0.75397 0.11003 0.27037 0.0
C424 C 0.81241 0.12278 0.2855 0.0
C425 C 0.8224 0.08383 0.28481 0.0
C426 C 0.79847 0.05834 0.2764 0.0
C427 C 0.76445 0.07128 0.26934 0.0
H428 H 0.89309 0.3977 0.58567 0.0
H429 H 0.0016 0.40197 0.56042 0.0
H430 H 0.87441 0.34191 0.56989 0.0
H431 H 0.98254 0.34653 0.5444 0.0
H432 H 0.95296 0.22107 0.53304 0.0
H433 H 0.97165 0.27833 0.54787 0.0
H434 H 0.85669 0.32327 0.54255 0.0
H435 H 0.83779 0.26549 0.52794 0.0
C436 C 0.91291 0.38687 0.57669 0.0
C437 C 0.94888 0.40426 0.57433 0.0
C438 C 0.90206 0.35502 0.56757 0.0
C439 C 0.92693 0.3398 0.55585 0.0
C440 C 0.96289 0.35728 0.55345 0.0
C441 C 0.97375 0.38915 0.56259 0.0
C442 C 0.9317 0.24324 0.53498 0.0
C443 C 0.89388 0.23877 0.52936 0.0
C444 C 0.94248 0.27616 0.5434 0.0
C445 C 0.91567 0.30538 0.54641 0.0
C446 C 0.87791 0.30107 0.54062 0.0
C447 C 0.86713 0.26811 0.53216 0.0
H448 H 0.61903 0.01954 0.43085 0.0
H449 H 0.55534 0.08914 0.46464 0.0
H450 H 0.67876 0.03717 0.44432 0.0
H451 H 0.61493 0.1061 0.47829 0.0
H452 H 0.73225 0.16271 0.48666 0.0
H453 H 0.67222 0.14412 0.47356 0.0
H454 H 0.71369 0.02797 0.46932 0.0
H455 H 0.7739 0.04676 0.48208 0.0
C456 C 0.61772 0.0383 0.44124 0.0
C457 C 0.58241 0.05298 0.44665 0.0
C458 C 0.65196 0.0483 0.44901 0.0
C459 C 0.65166 0.07317 0.46236 0.0
C460 C 0.61626 0.08738 0.46789 0.0
C461 C 0.58205 0.07741 0.46013 0.0
C462 C 0.72848 0.13322 0.48294 0.0
C463 C 0.75777 0.10621 0.48538 0.0
C464 C 0.69402 0.1225 0.47551 0.0
C465 C 0.68813 0.08453 0.47039 0.0
C466 C 0.71747 0.05754 0.47292 0.0
C467 C 0.75189 0.06827 0.48032 0.0
H468 H 0.9331 0.07371 0.70003 0.0
H469 H 0.02013 0.14574 0.67857 0.0
H470 H 0.90988 0.12803 0.71575 0.0
H471 H 0.99644 0.20008 0.69402 0.0
H472 H 0.97117 0.27926 0.73592 0.0
H473 H 0.99393 0.22294 0.72155 0.0
H474 H 0.87659 0.18913 0.7122 0.0
H475 H 0.85373 0.24537 0.72694 0.0
C476 C 0.94729 0.10111 0.69866 0.0
C477 C 0.97858 0.10536 0.68807 0.0
C478 C 0.93379 0.1323 0.70759 0.0
C479 C 0.95131 0.16838 0.70616 0.0
C480 C 0.98264 0.17255 0.6956 0.0
C481 C 0.99612 0.14141 0.68667 0.0
C482 C 0.95019 0.25973 0.73087 0.0
C483 C 0.91065 0.26679 0.73251 0.0
C484 C 0.96325 0.22756 0.72254 0.0
C485 C 0.93711 0.20168 0.71561 0.0
C486 C 0.89748 0.20834 0.71751 0.0
C487 C 0.88438 0.24061 0.72589 0.0
H488 H 0.8534 0.49809 0.92328 0.0
H489 H 0.9346 0.43605 0.95282 0.0
H490 H 0.80078 0.47326 0.93954 0.0
H491 H 0.88182 0.4116 0.96924 0.0
H492 H 0.77144 0.34138 0.98123 0.0
H493 H 0.82674 0.36703 0.96652 0.0
H494 H 0.77455 0.47921 0.96677 0.0
H495 H 0.71936 0.45362 0.98117 0.0
C496 C 0.86006 0.4794 0.93332 0.0
C497 C 0.89819 0.46907 0.93675 0.0
C498 C 0.8299 0.46529 0.94268 0.0
C499 C 0.83716 0.44048 0.95568 0.0
C500 C 0.8753 0.43035 0.9592 0.0
C501 C 0.90553 0.44459 0.94986 0.0
C502 C 0.772 0.37154 0.97822 0.0
C503 C 0.74101 0.39543 0.98225 0.0
C504 C 0.80368 0.38626 0.96987 0.0
C505 C 0.80483 0.42509 0.96538 0.0
C506 C 0.77422 0.44906 0.96981 0.0
C507 C 0.74269 0.4344 0.97814 0.0
H508 H 0.49112 0.35636 0.17985 0.0
H509 H 0.57784 0.43408 0.19779 0.0
H510 H 0.51615 0.30611 0.19724 0.0
H511 H 0.60236 0.38395 0.21548 0.0
H512 H 0.66177 0.2693 0.22915 0.0
H513 H 0.63666 0.32333 0.2137 0.0
H514 H 0.5208 0.2886 0.22539 0.0
H515 H 0.54585 0.23428 0.24046 0.0
C516 C 0.51535 0.36282 0.18759 0.0
C517 C 0.5325 0.3992 0.18741 0.0
C518 C 0.52956 0.33407 0.19765 0.0
C519 C 0.5612 0.34106 0.2078 0.0
C520 C 0.57822 0.37753 0.20769 0.0
C521 C 0.56402 0.4063 0.1976 0.0
C522 C 0.63097 0.27353 0.22856 0.0
C523 C 0.60577 0.24747 0.23591 0.0
C524 C 0.61657 0.30452 0.21975 0.0
C525 C 0.5767 0.31004 0.21818 0.0
C526 C 0.55163 0.28473 0.22609 0.0
C527 C 0.566 0.25376 0.23483 0.0
H528 H 0.95314 0.99415 0.40826 0.0
H529 H 0.99824 0.89858 0.38116 0.0
H530 H 0.97447 0.96479 0.43312 0.0
H531 H 0.01799 0.86789 0.40625 0.0
H532 H 0.104 0.86336 0.44867 0.0
H533 H 0.06854 0.87856 0.42429 0.0
H534 H 0.97294 0.91803 0.45319 0.0
H535 H 0.0096 0.90453 0.47763 0.0
C536 C 0.96644 0.96616 0.40765 0.0
C537 C 0.97451 0.94894 0.39271 0.0
C538 C 0.9786 0.94912 0.42199 0.0
C539 C 0.99861 0.91413 0.42177 0.0
C540 C 0.00364 0.89534 0.40688 0.0
C541 C 0.99199 0.91272 0.39249 0.0
C542 C 0.07521 0.87483 0.4498 0.0
C543 C 0.05975 0.88324 0.46503 0.0
C544 C 0.05462 0.88327 0.43579 0.0
C545 C 0.0178 0.89983 0.43668 0.0
C546 C 0.00149 0.90608 0.452 0.0
C547 C 0.02238 0.89816 0.46602 0.0
H548 H 0.03927 0.43817 0.65364 0.0
H549 H 0.10495 0.52682 0.62997 0.0
H550 H 0.06199 0.4608 0.67975 0.0
H551 H 0.12653 0.55021 0.656 0.0
H552 H 0.17519 0.57666 0.70462 0.0
H553 H 0.16307 0.54159 0.67972 0.0
H554 H 0.04856 0.51452 0.69642 0.0
H555 H 0.06143 0.5483 0.72157 0.0
C556 C 0.05914 0.46202 0.65397 0.0
C557 C 0.07009 0.48081 0.6397 0.0
C558 C 0.07182 0.47529 0.66897 0.0
C559 C 0.09565 0.50772 0.67004 0.0
C560 C 0.1085 0.52496 0.65569 0.0
C561 C 0.09603 0.51156 0.6407 0.0
C562 C 0.14758 0.56287 0.70301 0.0
C563 C 0.11915 0.5654 0.71498 0.0
C564 C 0.14054 0.5429 0.6887 0.0
C565 C 0.10474 0.52537 0.68596 0.0
C566 C 0.07668 0.52712 0.69817 0.0
C567 C 0.0839 0.54675 0.71256 0.0
H568 H 0.47559 0.62901 0.87384 0.0
H569 H 0.5235 0.52621 0.89463 0.0
H570 H 0.46197 0.65331 0.90081 0.0
H571 H 0.50795 0.54918 0.92139 0.0
H572 H 0.48322 0.59941 0.9697 0.0
H573 H 0.51399 0.58948 0.94354 0.0
H574 H 0.41529 0.63984 0.91994 0.0
H575 H 0.38598 0.65147 0.94597 0.0
C576 C 0.48369 0.61185 0.88418 0.0
C577 C 0.50016 0.57552 0.88207 0.0
C578 C 0.47552 0.62556 0.89966 0.0
C579 C 0.48291 0.60288 0.91337 0.0
C580 C 0.50198 0.56773 0.91124 0.0
C581 C 0.51079 0.55438 0.8958 0.0
C582 C 0.46849 0.60876 0.95888 0.0
C583 C 0.43213 0.62598 0.95985 0.0
C584 C 0.48599 0.60294 0.94387 0.0
C585 C 0.46718 0.61364 0.9295 0.0
C586 C 0.43121 0.63186 0.93064 0.0
C587 C 0.4141 0.6382 0.94562 0.0
H588 H 0.41218 0.03426 0.13857 0.0
H589 H 0.36723 0.92735 0.12035 0.0
H590 H 0.38902 0.01816 0.16545 0.0
H591 H 0.3452 0.91073 0.14726 0.0
H592 H 0.4077 0.94509 0.2113 0.0
H593 H 0.41347 0.97293 0.18455 0.0
H594 H 0.30584 0.92057 0.17068 0.0
H595 H 0.3007 0.89176 0.19744 0.0
C596 C 0.39661 0.0077 0.14023 0.0
C597 C 0.39212 0.9818 0.12738 0.0
C598 C 0.38364 0.99831 0.15567 0.0
C599 C 0.36612 0.96272 0.15862 0.0
C600 C 0.3585 0.93841 0.14546 0.0
C601 C 0.37122 0.94795 0.12998 0.0
C602 C 0.38508 0.93984 0.2026 0.0
C603 C 0.35395 0.91598 0.20641 0.0
C604 C 0.38816 0.95611 0.18728 0.0
C605 C 0.36006 0.94907 0.17542 0.0
C606 C 0.32819 0.92625 0.17945 0.0
C607 C 0.32519 0.90983 0.19479 0.0
H608 H 0.03964 0.63188 0.88611 0.0
H609 H 0.98515 0.53273 0.86493 0.0
H610 H 0.0535 0.65647 0.85921 0.0
H611 H 0.00084 0.55586 0.83827 0.0
H612 H 0.02645 0.60507 0.79023 0.0
H613 H 0.99605 0.59711 0.81653 0.0
H614 H 0.09851 0.64129 0.83955 0.0
H615 H 0.12757 0.65119 0.81329 0.0
C616 C 0.03014 0.61562 0.87571 0.0
C617 C 0.0118 0.58012 0.87767 0.0
C618 C 0.03843 0.62948 0.86027 0.0
C619 C 0.02919 0.60779 0.84647 0.0
C620 C 0.00826 0.57367 0.84849 0.0
C621 C 0.99938 0.5602 0.86389 0.0
C622 C 0.04212 0.61353 0.80095 0.0
C623 C 0.07945 0.62843 0.79976 0.0
C624 C 0.02482 0.60882 0.81605 0.0
C625 C 0.04482 0.6182 0.8303 0.0
C626 C 0.08176 0.63433 0.82895 0.0
C627 C 0.09869 0.63968 0.81386 0.0
H628 H 0.47333 0.48007 0.1126 0.0
H629 H 0.36878 0.52899 0.13161 0.0
H630 H 0.45303 0.49566 0.08546 0.0
H631 H 0.34703 0.54248 0.10424 0.0
H632 H 0.35488 0.61996 0.05997 0.0
H633 H 0.36364 0.5895 0.0859 0.0
H634 H 0.41526 0.49156 0.0624 0.0
H635 H 0.40821 0.52353 0.03633 0.0
C636 C 0.44524 0.49285 0.11094 0.0
C637 C 0.42291 0.50393 0.12428 0.0
C638 C 0.43346 0.50172 0.09528 0.0
C639 C 0.39871 0.52125 0.09257 0.0
C640 C 0.3746 0.52867 0.10586 0.0
C641 C 0.3868 0.52055 0.12156 0.0
C642 C 0.36788 0.59179 0.06032 0.0
C643 C 0.3812 0.57427 0.04615 0.0
C644 C 0.37252 0.57399 0.07523 0.0
C645 C 0.39006 0.53781 0.07638 0.0
C646 C 0.40217 0.51964 0.06206 0.0
C647 C 0.39805 0.53785 0.04711 0.0
H648 H 0.4945 0.91323 0.37335 0.0
H649 H 0.42437 0.00926 0.35883 0.0
H650 H 0.48584 0.88458 0.34642 0.0
H651 H 0.41634 0.98125 0.33227 0.0
H652 H 0.43405 0.94166 0.28209 0.0
H653 H 0.45826 0.96502 0.30792 0.0
H654 H 0.42541 0.85871 0.33055 0.0
H655 H 0.4011 0.83517 0.30467 0.0
C656 C 0.47753 0.92823 0.36441 0.0
C657 C 0.45983 0.96325 0.36821 0.0
C658 C 0.47258 0.91191 0.34907 0.0
C659 C 0.45072 0.93093 0.33726 0.0
C660 C 0.43378 0.96622 0.34105 0.0
C661 C 0.43807 0.98205 0.35634 0.0
C662 C 0.43267 0.92296 0.2925 0.0
C663 C 0.41518 0.88683 0.29143 0.0
C664 C 0.44649 0.93634 0.30726 0.0
C665 C 0.44332 0.91378 0.32123 0.0
C666 C 0.42836 0.87658 0.31995 0.0
C667 C 0.41426 0.86325 0.30517 0.0
H668 H 0.10296 0.99869 0.63152 0.0
H669 H 0.0066 0.04377 0.60473 0.0
H670 H 0.13433 0.98108 0.60627 0.0
H671 H 0.03661 0.02449 0.57971 0.0
H672 H 0.09818 0.99388 0.53491 0.0
H673 H 0.08346 0.02828 0.55977 0.0
H674 H 0.12529 0.93206 0.58753 0.0
H675 H 0.14177 0.89896 0.56275 0.0
C676 C 0.08876 0.00533 0.62023 0.0
C677 C 0.05218 0.02226 0.62013 0.0
C678 C 0.10653 0.99492 0.60575 0.0
C679 C 0.08778 0.00061 0.59088 0.0
C680 C 0.0523 0.01991 0.59082 0.0
C681 C 0.03488 0.03087 0.60525 0.0
C682 C 0.10479 0.9805 0.54637 0.0
C683 C 0.12079 0.94365 0.54692 0.0
C684 C 0.09616 8e-05 0.56063 0.0
C685 C 0.10272 0.98291 0.57575 0.0
C686 C 0.12031 0.94663 0.5762 0.0
C687 C 0.12949 0.92739 0.56195 0.0
H688 H 0.46669 0.41589 0.89 0.0
H689 H 0.57483 0.36609 0.87537 0.0
H690 H 0.47775 0.39389 0.91756 0.0
H691 H 0.58627 0.34504 0.90282 0.0
H692 H 0.59742 0.30014 0.9523 0.0
H693 H 0.56979 0.30584 0.9254 0.0
H694 H 0.52144 0.41554 0.9384 0.0
H695 H 0.54813 0.40917 0.96547 0.0
C696 C 0.49238 0.39948 0.89256 0.0
C697 C 0.52014 0.39317 0.88053 0.0
C698 C 0.49888 0.3872 0.9084 0.0
C699 C 0.53317 0.36822 0.91249 0.0
C700 C 0.55941 0.35933 0.90015 0.0
C701 C 0.55294 0.3716 0.88436 0.0
C702 C 0.58031 0.32516 0.94949 0.0
C703 C 0.57532 0.35446 0.96091 0.0
C704 C 0.56459 0.32849 0.93405 0.0
C705 C 0.54379 0.36135 0.92964 0.0
C706 C 0.53696 0.38964 0.9414 0.0
C707 C 0.55247 0.38616 0.9569 0.0
H708 H 0.53662 0.98322 0.14815 0.0
H709 H 0.63957 0.03106 0.1272 0.0
H710 H 0.55844 0.00169 0.17478 0.0
H711 H 0.66269 0.04772 0.15406 0.0
H712 H 0.65799 0.12744 0.19785 0.0
H713 H 0.64696 0.0959 0.17226 0.0
H714 H 0.59877 0.99835 0.19723 0.0
H715 H 0.60821 0.03127 0.22297 0.0
C716 C 0.56456 0.99661 0.14927 0.0
C717 C 0.58606 0.00632 0.13551 0.0
C718 C 0.57724 0.00709 0.16464 0.0
C719 C 0.61206 0.02699 0.16665 0.0
C720 C 0.63515 0.03355 0.15296 0.0
C721 C 0.62211 0.02366 0.13755 0.0
C722 C 0.64527 0.09913 0.1979 0.0
C723 C 0.63363 0.08196 0.2124 0.0
C724 C 0.6393 0.08075 0.18318 0.0
C725 C 0.62202 0.04436 0.18256 0.0
C726 C 0.6116 0.02658 0.19718 0.0
C727 C 0.61711 0.04533 0.21194 0.0
H728 H 0.94184 0.13536 0.37891 0.0
H729 H 0.03895 0.06864 0.39519 0.0
H730 H 0.92773 0.15304 0.4066 0.0
H731 H 0.02537 0.08722 0.42294 0.0
H732 H 0.91488 0.19087 0.45756 0.0
H733 H 0.94472 0.18555 0.43104 0.0
H734 H 0.9754 0.06821 0.44141 0.0
H735 H 0.94659 0.07401 0.46807 0.0
C736 C 0.96088 0.12535 0.38835 0.0
C737 C 0.99116 0.10012 0.38483 0.0
C738 C 0.95287 0.13564 0.40427 0.0
C739 C 0.97507 0.12106 0.41705 0.0
C740 C 0.00723 0.09829 0.41341 0.0
C741 C 0.01522 0.08795 0.39747 0.0
C742 C 0.92854 0.16414 0.45425 0.0
C743 C 0.92812 0.13273 0.46482 0.0
C744 C 0.94551 0.16105 0.43903 0.0
C745 C 0.96222 0.12639 0.43402 0.0
C746 C 0.96327 0.09552 0.44492 0.0
C747 C 0.94649 0.09871 0.46018 0.0
H748 H 0.90043 0.51099 0.63205 0.0
H749 H 0.0066 0.5412 0.65583 0.0
H750 H 0.87452 0.48822 0.65764 0.0
H751 H 0.98198 0.51643 0.68107 0.0
H752 H 0.92545 0.48217 0.72726 0.0
H753 H 0.94093 0.51912 0.70315 0.0
H754 H 0.88278 0.43457 0.67381 0.0
H755 H 0.86574 0.39913 0.69793 0.0
C756 C 0.918 0.5132 0.6428 0.0
C757 C 0.95548 0.52783 0.64192 0.0
C758 C 0.9034 0.49974 0.65744 0.0
C759 C 0.9263 0.49979 0.67146 0.0
C760 C 0.96315 0.51629 0.67068 0.0
C761 C 0.9774 0.53048 0.65612 0.0
C762 C 0.91565 0.47186 0.71564 0.0
C763 C 0.89452 0.43775 0.71445 0.0
C764 C 0.92468 0.49289 0.70179 0.0
C765 C 0.9133 0.47991 0.68642 0.0
C766 C 0.89144 0.44607 0.68537 0.0
C767 C 0.88192 0.42545 0.69922 0.0
H768 H 0.48059 0.06675 0.36677 0.0
H769 H 0.55688 0.15286 0.386 0.0
H770 H 0.49989 0.08335 0.33962 0.0
H771 H 0.57426 0.17184 0.35867 0.0
H772 H 0.6424 0.15313 0.3126 0.0
H773 H 0.61362 0.14771 0.33907 0.0
H774 H 0.50405 0.12099 0.31701 0.0
H775 H 0.53412 0.12394 0.29042 0.0
C776 C 0.50039 0.09037 0.36515 0.0
C777 C 0.51758 0.10827 0.37852 0.0
C778 C 0.51149 0.10004 0.34949 0.0
C779 C 0.53943 0.12847 0.34679 0.0
C780 C 0.55378 0.14882 0.36021 0.0
C781 C 0.54344 0.1384 0.3759 0.0
C782 C 0.61213 0.14618 0.31342 0.0
C783 C 0.59055 0.13865 0.29949 0.0
C784 C 0.59535 0.14353 0.32865 0.0
C785 C 0.55621 0.13413 0.33037 0.0
C786 C 0.53437 0.12763 0.31629 0.0
C787 C 0.55149 0.12944 0.30102 0.0
H788 H 0.93083 0.95996 0.61819 0.0
H789 H 0.86699 0.05874 0.63452 0.0
H790 H 0.91174 0.97353 0.59049 0.0
H791 H 0.8487 0.07273 0.60687 0.0
H792 H 0.80857 0.08469 0.55616 0.0
H793 H 0.81447 0.05542 0.58275 0.0
H794 H 0.93134 0.02285 0.57171 0.0
H795 H 0.92498 0.0512 0.54499 0.0
C796 C 0.91202 0.98407 0.61594 0.0
C797 C 0.9008 0.00855 0.62857 0.0
C798 C 0.90139 0.99204 0.60003 0.0
C799 C 0.87921 0.02455 0.59641 0.0
C800 C 0.86561 0.04731 0.6092 0.0
C801 C 0.87624 0.03936 0.62509 0.0
C802 C 0.83531 0.07073 0.55934 0.0
C803 C 0.86645 0.07052 0.54856 0.0
C804 C 0.83873 0.0541 0.57459 0.0
C805 C 0.87345 0.03705 0.57943 0.0
C806 C 0.904 0.0353 0.56833 0.0
C807 C 0.90049 0.05178 0.55304 0.0
H808 H 0.04531 0.4159 0.86961 0.0
H809 H 0.93564 0.36927 0.88413 0.0
H810 H 0.03291 0.3959 0.8419 0.0
H811 H 0.92281 0.35042 0.85649 0.0
H812 H 0.9089 0.311 0.80596 0.0
H813 H 0.93618 0.31317 0.83305 0.0
H814 H 0.99017 0.42138 0.82183 0.0
H815 H 0.9639 0.41849 0.79464 0.0
C816 C 0.01895 0.40064 0.86698 0.0
C817 C 0.99116 0.39479 0.87904 0.0
C818 C 0.01169 0.38949 0.85106 0.0
C819 C 0.97652 0.37228 0.84689 0.0
C820 C 0.95027 0.36347 0.85923 0.0
C821 C 0.95757 0.37447 0.87513 0.0
C822 C 0.92708 0.33495 0.80923 0.0
C823 C 0.93396 0.3648 0.79826 0.0
C824 C 0.94262 0.33625 0.82477 0.0
C825 C 0.96516 0.36757 0.8297 0.0
C826 C 0.97341 0.39654 0.81842 0.0
C827 C 0.95808 0.39509 0.80285 0.0
H828 H 0.65539 0.46706 0.13074 0.0
H829 H 0.55311 0.52053 0.11176 0.0
H830 H 0.67467 0.44938 0.10347 0.0
H831 H 0.57056 0.50068 0.08482 0.0
H832 H 0.61029 0.46711 0.0358 0.0
H833 H 0.60616 0.50084 0.06154 0.0
H834 H 0.65665 0.40285 0.08546 0.0
H835 H 0.66301 0.37079 0.05968 0.0
C836 C 0.63735 0.4755 0.1207 0.0
C837 C 0.60269 0.49494 0.12341 0.0
C838 C 0.64806 0.46495 0.10506 0.0
C839 C 0.62376 0.47262 0.09184 0.0
C840 C 0.59037 0.49442 0.09453 0.0
C841 C 0.5802 0.50579 0.11009 0.0
C842 C 0.62084 0.45315 0.0466 0.0
C843 C 0.63676 0.41632 0.0458 0.0
C844 C 0.61835 0.47235 0.06139 0.0
C845 C 0.63087 0.45469 0.07575 0.0
C846 C 0.64746 0.418 0.07475 0.0
C847 C 0.65073 0.39928 0.05995 0.0
loop_
_geom_bond_atom_site_label_1
_geom_bond_atom_site_label_2
_geom_bond_distance
_geom_bond_site_symmetry_2
_ccdc_geom_bond_type
Mg0 O7 2.141 1_545 S
Mg0 O8 2.048 1_545 S
Mg0 O9 2.048 1_455 S
Mg0 O12 2.141 1_455 S
C1 O2 1.313 . S
C1 O8 1.195 . S
O2 C1 1.313 . S
C3 O4 1.245 . S
C3 O12 1.289 . S
O4 C3 1.245 . S
C5 O6 1.245 . S
C5 O7 1.289 . S
O6 C5 1.245 . S
O7 Mg0 2.141 1_565 S
O7 C5 1.289 . S
O8 Mg0 2.048 1_565 S
O8 C1 1.195 . S
O9 Mg0 2.048 1_655 S
O9 C10 1.195 . S
C10 O9 1.195 . S
C10 O11 1.313 1_545 S
O11 C10 1.313 1_565 S
O12 Mg0 2.141 1_655 S
O12 C3 1.289 . S
Mg13 O20 2.141 1_655 S
Mg13 O21 2.048 1_655 S
Mg13 O22 2.048 . S
Mg13 O25 2.141 . S
C14 O15 1.313 . S
C14 O21 1.195 . S
O15 C14 1.313 . S
C16 O17 1.245 . S
C16 O25 1.289 . S
O17 C16 1.245 . S
C18 O19 1.245 . S
C18 O20 1.289 . S
O19 C18 1.245 . S
O20 Mg13 2.141 1_455 S
O20 C18 1.289 . S
O21 Mg13 2.048 1_455 S
O21 C14 1.195 . S
O22 Mg13 2.048 . S
O22 C23 1.195 . S
C23 O22 1.195 . S
C23 O24 1.313 1_655 S
O24 C23 1.313 1_455 S
O25 Mg13 2.141 . S
O25 C16 1.289 . S
Mg26 O33 2.141 . S
Mg26 O34 2.048 . S
Mg26 O35 2.048 . S
Mg26 O38 2.141 . S
C27 O28 1.313 . S
C27 O34 1.195 . S
O28 C27 1.313 . S
C29 O30 1.245 . S
C29 O38 1.289 . S
O30 C29 1.245 . S
C31 O32 1.245 . S
C31 O33 1.289 . S
O32 C31 1.245 . S
O33 Mg26 2.141 . S
O33 C31 1.289 . S
O34 Mg26 2.048 . S
O34 C27 1.195 . S
O35 Mg26 2.048 . S
O35 C36 1.195 . S
C36 O35 1.195 . S
C36 O37 1.313 . S
O37 C36 1.313 . S
O38 Mg26 2.141 . S
O38 C29 1.289 . S
Mg39 O46 2.141 . S
Mg39 O47 2.048 . S
Mg39 O48 2.048 1_545 S
Mg39 O51 2.141 1_545 S
C40 O41 1.313 . S
C40 O47 1.195 . S
O41 C40 1.313 . S
C42 O43 1.245 . S
C42 O51 1.289 . S
O43 C42 1.245 . S
C44 O45 1.245 . S
C44 O46 1.289 . S
O45 C44 1.245 . S
O46 Mg39 2.141 . S
O46 C44 1.289 . S
O47 Mg39 2.048 . S
O47 C40 1.195 . S
O48 Mg39 2.048 1_565 S
O48 C49 1.195 . S
C49 O48 1.195 . S
C49 O50 1.313 . S
O50 C49 1.313 . S
O51 Mg39 2.141 1_565 S
O51 C42 1.289 . S
Mg52 O59 2.141 . S
Mg52 O60 2.048 . S
Mg52 O61 2.048 1_455 S
Mg52 O64 2.141 1_455 S
C53 O54 1.313 . S
C53 O60 1.195 . S
O54 C53 1.313 . S
C55 O56 1.245 . S
C55 O64 1.289 . S
O56 C55 1.245 . S
C57 O58 1.245 . S
C57 O59 1.289 . S
O58 C57 1.245 . S
O59 Mg52 2.141 . S
O59 C57 1.289 . S
O60 Mg52 2.048 . S
O60 C53 1.195 . S
O61 Mg52 2.048 1_655 S
O61 C62 1.195 . S
C62 O61 1.195 . S
C62 O63 1.313 . S
O63 C62 1.313 . S
O64 Mg52 2.141 1_655 S
O64 C55 1.289 . S
Mg65 O72 2.141 . S
Mg65 O73 2.048 . S
Mg65 O74 2.048 . S
Mg65 O77 2.141 . S
C66 O67 1.313 . S
C66 O73 1.195 . S
O67 C66 1.313 . S
C68 O69 1.245 . S
C68 O77 1.289 . S
O69 C68 1.245 . S
C70 O71 1.245 . S
C70 O72 1.289 . S
O71 C70 1.245 . S
O72 Mg65 2.141 . S
O72 C70 1.289 . S
O73 Mg65 2.048 . S
O73 C66 1.195 . S
O74 Mg65 2.048 . S
O74 C75 1.195 . S
C75 O74 1.195 . S
C75 O76 1.313 . S
O76 C75 1.313 . S
O77 Mg65 2.141 . S
O77 C68 1.289 . S
Mg78 O85 2.141 1_565 S
Mg78 O86 2.048 1_565 S
Mg78 O87 2.048 . S
Mg78 O90 2.141 . S
C79 O80 1.313 . S
C79 O86 1.195 . S
O80 C79 1.313 . S
C81 O82 1.245 . S
C81 O90 1.289 . S
O82 C81 1.245 . S
C83 O84 1.245 . S
C83 O85 1.289 . S
O84 C83 1.245 . S
O85 Mg78 2.141 1_545 S
O85 C83 1.289 . S
O86 Mg78 2.048 1_545 S
O86 C79 1.195 . S
O87 Mg78 2.048 . S
O87 C88 1.195 . S
C88 O87 1.195 . S
C88 O89 1.313 1_565 S
O89 C88 1.313 1_545 S
O90 Mg78 2.141 . S
O90 C81 1.289 . S
Mg91 O98 2.141 1_655 S
Mg91 O99 2.048 1_655 S
Mg91 O100 2.048 1_565 S
Mg91 O103 2.141 1_565 S
C92 O93 1.313 . S
C92 O99 1.195 . S
O93 C92 1.313 . S
C94 O95 1.245 . S
C94 O103 1.289 . S
O95 C94 1.245 . S
C96 O97 1.245 . S
C96 O98 1.289 . S
O97 C96 1.245 . S
O98 Mg91 2.141 1_455 S
O98 C96 1.289 . S
O99 Mg91 2.048 1_455 S
O99 C92 1.195 . S
O100 Mg91 2.048 1_545 S
O100 C101 1.195 . S
C101 O100 1.195 . S
C101 O102 1.313 1_655 S
O102 C101 1.313 1_455 S
O103 Mg91 2.141 1_545 S
O103 C94 1.289 . S
In104 O105 2.294 . S
In104 O106 2.326 . S
In104 O110 2.266 1_554 S
In104 O111 2.326 1_554 S
In104 O112 2.266 1_554 S
In104 O113 2.326 1_554 S
In104 O115 2.294 . S
In104 O116 2.326 . S
O105 In104 2.294 . S
O105 C114 1.240 . S
O106 In104 2.326 . S
O106 C114 1.252 . S
C107 O110 1.252 . S
C107 O111 1.260 . S
C108 O115 1.240 . S
C108 O116 1.252 . S
C109 O112 1.252 . S
C109 O113 1.260 . S
O110 In104 2.266 1_556 S
O110 C107 1.252 . S
O111 In104 2.326 1_556 S
O111 C107 1.260 . S
O112 In104 2.266 1_556 S
O112 C109 1.252 . S
O113 In104 2.326 1_556 S
O113 C109 1.260 . S
C114 O105 1.240 . S
C114 O106 1.252 . S
O115 In104 2.294 . S
O115 C108 1.240 . S
O116 In104 2.326 . S
O116 C108 1.252 . S
In117 O118 2.294 . S
In117 O119 2.326 . S
In117 O123 2.266 . S
In117 O124 2.326 . S
In117 O125 2.266 . S
In117 O126 2.326 . S
In117 O128 2.294 . S
In117 O129 2.326 . S
O118 In117 2.294 . S
O118 C127 1.240 . S
O119 In117 2.326 . S
O119 C127 1.252 . S
C120 O123 1.252 . S
C120 O124 1.260 . S
C121 O128 1.240 . S
C121 O129 1.252 . S
C122 O125 1.252 . S
C122 O126 1.260 . S
O123 In117 2.266 . S
O123 C120 1.252 . S
O124 In117 2.326 . S
O124 C120 1.260 . S
O125 In117 2.266 . S
O125 C122 1.252 . S
O126 In117 2.326 . S
O126 C122 1.260 . S
C127 O118 1.240 . S
C127 O119 1.252 . S
O128 In117 2.294 . S
O128 C121 1.240 . S
O129 In117 2.326 . S
O129 C121 1.252 . S
In130 O131 2.294 . S
In130 O132 2.326 . S
In130 O136 2.266 . S
In130 O137 2.326 . S
In130 O138 2.266 . S
In130 O139 2.326 . S
In130 O141 2.294 . S
In130 O142 2.326 . S
O131 In130 2.294 . S
O131 C140 1.240 . S
O132 In130 2.326 . S
O132 C140 1.252 . S
C133 O136 1.252 . S
C133 O137 1.260 . S
C134 O141 1.240 . S
C134 O142 1.252 . S
C135 O138 1.252 . S
C135 O139 1.260 . S
O136 In130 2.266 . S
O136 C133 1.252 . S
O137 In130 2.326 . S
O137 C133 1.260 . S
O138 In130 2.266 . S
O138 C135 1.252 . S
O139 In130 2.326 . S
O139 C135 1.260 . S
C140 O131 1.240 . S
C140 O132 1.252 . S
O141 In130 2.294 . S
O141 C134 1.240 . S
O142 In130 2.326 . S
O142 C134 1.252 . S
In143 O144 2.294 . S
In143 O145 2.326 . S
In143 O149 2.266 . S
In143 O150 2.326 . S
In143 O151 2.266 . S
In143 O152 2.326 . S
In143 O154 2.294 . S
In143 O155 2.326 . S
O144 In143 2.294 . S
O144 C153 1.240 . S
O145 In143 2.326 . S
O145 C153 1.252 . S
C146 O149 1.252 . S
C146 O150 1.260 . S
C147 O154 1.240 . S
C147 O155 1.252 . S
C148 O151 1.252 . S
C148 O152 1.260 . S
O149 In143 2.266 . S
O149 C146 1.252 . S
O150 In143 2.326 . S
O150 C146 1.260 . S
O151 In143 2.266 . S
O151 C148 1.252 . S
O152 In143 2.326 . S
O152 C148 1.260 . S
C153 O144 1.240 . S
C153 O145 1.252 . S
O154 In143 2.294 . S
O154 C147 1.240 . S
O155 In143 2.326 . S
O155 C147 1.252 . S
In156 O157 2.294 . S
In156 O158 2.326 . S
In156 O162 2.266 . S
In156 O163 2.326 . S
In156 O164 2.266 . S
In156 O165 2.326 . S
In156 O167 2.294 . S
In156 O168 2.326 . S
O157 In156 2.294 . S
O157 C166 1.240 . S
O158 In156 2.326 . S
O158 C166 1.252 . S
C159 O162 1.252 . S
C159 O163 1.260 . S
C160 O167 1.240 . S
C160 O168 1.252 . S
C161 O164 1.252 . S
C161 O165 1.260 . S
O162 In156 2.266 . S
O162 C159 1.252 . S
O163 In156 2.326 . S
O163 C159 1.260 . S
O164 In156 2.266 . S
O164 C161 1.252 . S
O165 In156 2.326 . S
O165 C161 1.260 . S
C166 O157 1.240 . S
C166 O158 1.252 . S
O167 In156 2.294 . S
O167 C160 1.240 . S
O168 In156 2.326 . S
O168 C160 1.252 . S
In169 O170 2.294 . S
In169 O171 2.326 . S
In169 O175 2.266 . S
In169 O176 2.326 . S
In169 O177 2.266 . S
In169 O178 2.326 . S
In169 O180 2.294 . S
In169 O181 2.326 . S
O170 In169 2.294 . S
O170 C179 1.240 . S
O171 In169 2.326 . S
O171 C179 1.252 . S
C172 O175 1.252 . S
C172 O176 1.260 . S
C173 O180 1.240 . S
C173 O181 1.252 . S
C174 O177 1.252 . S
C174 O178 1.260 . S
O175 In169 2.266 . S
O175 C172 1.252 . S
O176 In169 2.326 . S
O176 C172 1.260 . S
O177 In169 2.266 . S
O177 C174 1.252 . S
O178 In169 2.326 . S
O178 C174 1.260 . S
C179 O170 1.240 . S
C179 O171 1.252 . S
O180 In169 2.294 . S
O180 C173 1.240 . S
O181 In169 2.326 . S
O181 C173 1.252 . S
In182 O183 2.294 . S
In182 O184 2.326 . S
In182 O188 2.266 1_554 S
In182 O189 2.326 1_554 S
In182 O190 2.266 1_554 S
In182 O191 2.326 1_554 S
In182 O193 2.294 . S
In182 O194 2.326 . S
O183 In182 2.294 . S
O183 C192 1.240 . S
O184 In182 2.326 . S
O184 C192 1.252 . S
C185 O188 1.252 . S
C185 O189 1.260 . S
C186 O193 1.240 . S
C186 O194 1.252 . S
C187 O190 1.252 . S
C187 O191 1.260 . S
O188 In182 2.266 1_556 S
O188 C185 1.252 . S
O189 In182 2.326 1_556 S
O189 C185 1.260 . S
O190 In182 2.266 1_556 S
O190 C187 1.252 . S
O191 In182 2.326 1_556 S
O191 C187 1.260 . S
C192 O183 1.240 . S
C192 O184 1.252 . S
O193 In182 2.294 . S
O193 C186 1.240 . S
O194 In182 2.326 . S
O194 C186 1.252 . S
In195 O196 2.294 . S
In195 O197 2.326 . S
In195 O201 2.266 . S
In195 O202 2.326 . S
In195 O203 2.266 . S
In195 O204 2.326 . S
In195 O206 2.294 . S
In195 O207 2.326 . S
O196 In195 2.294 . S
O196 C205 1.240 . S
O197 In195 2.326 . S
O197 C205 1.252 . S
C198 O201 1.252 . S
C198 O202 1.260 . S
C199 O206 1.240 . S
C199 O207 1.252 . S
C200 O203 1.252 . S
C200 O204 1.260 . S
O201 In195 2.266 . S
O201 C198 1.252 . S
O202 In195 2.326 . S
O202 C198 1.260 . S
O203 In195 2.266 . S
O203 C200 1.252 . S
O204 In195 2.326 . S
O204 C200 1.260 . S
C205 O196 1.240 . S
C205 O197 1.252 . S
O206 In195 2.294 . S
O206 C199 1.240 . S
O207 In195 2.326 . S
O207 C199 1.252 . S
H208 C216 0.950 . S
H209 C221 0.950 . S
H210 C218 0.950 . S
H211 C220 0.950 . S
H212 C222 0.950 . S
H213 C224 0.950 . S
H214 C226 0.950 . S
H215 C227 0.950 . S
C216 H208 0.950 . S
C216 C217 1.386 . S
C216 C218 1.391 . S
C217 C216 1.386 . S
C217 C221 1.393 . S
C218 H210 0.950 . S
C218 C216 1.391 . S
C218 C219 1.400 . S
C219 C218 1.400 . S
C219 C220 1.398 . S
C219 C225 1.491 . S
C220 H211 0.950 . S
C220 C219 1.398 . S
C220 C221 1.391 . S
C221 H209 0.950 . S
C221 C217 1.393 . S
C221 C220 1.391 . S
C222 H212 0.950 . S
C222 C223 1.386 . S
C222 C224 1.391 . S
C223 C222 1.386 . S
C223 C227 1.393 . S
C224 H213 0.950 . S
C224 C222 1.391 . S
C224 C225 1.400 . S
C225 C219 1.491 . S
C225 C224 1.400 . S
C225 C226 1.398 . S
C226 H214 0.950 . S
C226 C225 1.398 . S
C226 C227 1.391 . S
C227 H215 0.950 . S
C227 C223 1.393 . S
C227 C226 1.391 . S
H228 C236 0.950 . S
H229 C241 0.950 . S
H230 C238 0.950 . S
H231 C240 0.950 . S
H232 C242 0.950 . S
H233 C244 0.950 . S
H234 C246 0.950 . S
H235 C247 0.950 . S
C236 H228 0.950 . S
C236 C237 1.386 . S
C236 C238 1.391 . S
C237 C236 1.386 . S
C237 C241 1.393 . S
C238 H230 0.950 . S
C238 C236 1.391 . S
C238 C239 1.400 . S
C239 C238 1.400 . S
C239 C240 1.398 . S
C239 C245 1.491 . S
C240 H231 0.950 . S
C240 C239 1.398 . S
C240 C241 1.391 . S
C241 H229 0.950 . S
C241 C237 1.393 . S
C241 C240 1.391 . S
C242 H232 0.950 . S
C242 C243 1.386 . S
C242 C244 1.391 . S
C243 C242 1.386 . S
C243 C247 1.393 . S
C244 H233 0.950 . S
C244 C242 1.391 . S
C244 C245 1.400 . S
C245 C239 1.491 . S
C245 C244 1.400 . S
C245 C246 1.398 . S
C246 H234 0.950 . S
C246 C245 1.398 . S
C246 C247 1.391 . S
C247 H235 0.950 . S
C247 C243 1.393 . S
C247 C246 1.391 . S
H248 C256 0.950 . S
H249 C261 0.950 . S
H250 C258 0.950 . S
H251 C260 0.950 . S
H252 C262 0.950 . S
H253 C264 0.950 . S
H254 C266 0.950 . S
H255 C267 0.950 . S
C256 H248 0.950 . S
C256 C257 1.386 . S
C256 C258 1.391 . S
C257 C256 1.386 . S
C257 C261 1.393 . S
C258 H250 0.950 . S
C258 C256 1.391 . S
C258 C259 1.400 . S
C259 C258 1.400 . S
C259 C260 1.398 . S
C259 C265 1.491 . S
C260 H251 0.950 . S
C260 C259 1.398 . S
C260 C261 1.391 . S
C261 H249 0.950 . S
C261 C257 1.393 . S
C261 C260 1.391 . S
C262 H252 0.950 . S
C262 C263 1.386 . S
C262 C264 1.391 . S
C263 C262 1.386 . S
C263 C267 1.393 . S
C264 H253 0.950 . S
C264 C262 1.391 . S
C264 C265 1.400 . S
C265 C259 1.491 . S
C265 C264 1.400 . S
C265 C266 1.398 . S
C266 H254 0.950 . S
C266 C265 1.398 . S
C266 C267 1.391 . S
C267 H255 0.950 . S
C267 C263 1.393 . S
C267 C266 1.391 . S
H268 C276 0.950 . S
H269 C281 0.950 . S
H270 C278 0.950 . S
H271 C280 0.950 . S
H272 C282 0.950 . S
H273 C284 0.950 . S
H274 C286 0.950 . S
H275 C287 0.950 . S
C276 H268 0.950 . S
C276 C277 1.386 . S
C276 C278 1.391 . S
C277 C276 1.386 . S
C277 C281 1.393 . S
C278 H270 0.950 . S
C278 C276 1.391 . S
C278 C279 1.400 . S
C279 C278 1.400 . S
C279 C280 1.398 . S
C279 C285 1.491 . S
C280 H271 0.950 . S
C280 C279 1.398 . S
C280 C281 1.391 . S
C281 H269 0.950 . S
C281 C277 1.393 . S
C281 C280 1.391 . S
C282 H272 0.950 . S
C282 C283 1.386 . S
C282 C284 1.391 . S
C283 C282 1.386 . S
C283 C287 1.393 . S
C284 H273 0.950 . S
C284 C282 1.391 . S
C284 C285 1.400 . S
C285 C279 1.491 . S
C285 C284 1.400 . S
C285 C286 1.398 . S
C286 H274 0.950 . S
C286 C285 1.398 . S
C286 C287 1.391 . S
C287 H275 0.950 . S
C287 C283 1.393 . S
C287 C286 1.391 . S
H288 C296 0.950 . S
H289 C301 0.950 . S
H290 C298 0.950 . S
H291 C300 0.950 . S
H292 C302 0.950 1_554 S
H293 C304 0.950 . S
H294 C306 0.950 . S
H295 C307 0.950 . S
C296 H288 0.950 . S
C296 C297 1.386 . S
C296 C298 1.391 . S
C297 C296 1.386 . S
C297 C301 1.393 . S
C298 H290 0.950 . S
C298 C296 1.391 . S
C298 C299 1.400 . S
C299 C298 1.400 . S
C299 C300 1.398 . S
C299 C305 1.491 . S
C300 H291 0.950 . S
C300 C299 1.398 . S
C300 C301 1.391 . S
C301 H289 0.950 . S
C301 C297 1.393 . S
C301 C300 1.391 . S
C302 H292 0.950 1_556 S
C302 C303 1.386 . S
C302 C304 1.391 . S
C303 C302 1.386 . S
C303 C307 1.393 . S
C304 H293 0.950 . S
C304 C302 1.391 . S
C304 C305 1.400 . S
C305 C299 1.491 . S
C305 C304 1.400 . S
C305 C306 1.398 . S
C306 H294 0.950 . S
C306 C305 1.398 . S
C306 C307 1.391 . S
C307 H295 0.950 . S
C307 C303 1.393 . S
C307 C306 1.391 . S
H308 C316 0.950 . S
H309 C321 0.950 . S
H310 C318 0.950 . S
H311 C320 0.950 . S
H312 C322 0.950 . S
H313 C324 0.950 . S
H314 C326 0.950 . S
H315 C327 0.950 . S
C316 H308 0.950 . S
C316 C317 1.386 . S
C316 C318 1.391 . S
C317 C316 1.386 . S
C317 C321 1.393 . S
C318 H310 0.950 . S
C318 C316 1.391 . S
C318 C319 1.400 . S
C319 C318 1.400 . S
C319 C320 1.398 . S
C319 C325 1.491 . S
C320 H311 0.950 . S
C320 C319 1.398 . S
C320 C321 1.391 . S
C321 H309 0.950 . S
C321 C317 1.393 . S
C321 C320 1.391 . S
C322 H312 0.950 . S
C322 C323 1.386 . S
C322 C324 1.391 . S
C323 C322 1.386 . S
C323 C327 1.393 . S
C324 H313 0.950 . S
C324 C322 1.391 . S
C324 C325 1.400 . S
C325 C319 1.491 . S
C325 C324 1.400 . S
C325 C326 1.398 . S
C326 H314 0.950 . S
C326 C325 1.398 . S
C326 C327 1.391 . S
C327 H315 0.950 . S
C327 C323 1.393 . S
C327 C326 1.391 . S
H328 C336 0.950 . S
H329 C341 0.950 . S
H330 C338 0.950 . S
H331 C340 0.950 . S
H332 C342 0.950 . S
H333 C344 0.950 . S
H334 C346 0.950 . S
H335 C347 0.950 . S
C336 H328 0.950 . S
C336 C337 1.386 . S
C336 C338 1.391 . S
C337 C336 1.386 . S
C337 C341 1.393 . S
C338 H330 0.950 . S
C338 C336 1.391 . S
C338 C339 1.400 . S
C339 C338 1.400 . S
C339 C340 1.398 . S
C339 C345 1.491 . S
C340 H331 0.950 . S
C340 C339 1.398 . S
C340 C341 1.391 . S
C341 H329 0.950 . S
C341 C337 1.393 . S
C341 C340 1.391 . S
C342 H332 0.950 . S
C342 C343 1.386 . S
C342 C344 1.391 . S
C343 C342 1.386 . S
C343 C347 1.393 . S
C344 H333 0.950 . S
C344 C342 1.391 . S
C344 C345 1.400 . S
C345 C339 1.491 . S
C345 C344 1.400 . S
C345 C346 1.398 . S
C346 H334 0.950 . S
C346 C345 1.398 . S
C346 C347 1.391 . S
C347 H335 0.950 . S
C347 C343 1.393 . S
C347 C346 1.391 . S
H348 C356 0.950 . S
H349 C361 0.950 . S
H350 C358 0.950 . S
H351 C360 0.950 . S
H352 C362 0.950 . S
H353 C364 0.950 . S
H354 C366 0.950 . S
H355 C367 0.950 . S
C356 H348 0.950 . S
C356 C357 1.386 . S
C356 C358 1.391 . S
C357 C356 1.386 . S
C357 C361 1.393 . S
C358 H350 0.950 . S
C358 C356 1.391 . S
C358 C359 1.400 . S
C359 C358 1.400 . S
C359 C360 1.398 . S
C359 C365 1.491 . S
C360 H351 0.950 . S
C360 C359 1.398 . S
C360 C361 1.391 . S
C361 H349 0.950 . S
C361 C357 1.393 . S
C361 C360 1.391 . S
C362 H352 0.950 . S
C362 C363 1.386 . S
C362 C364 1.391 . S
C363 C362 1.386 . S
C363 C367 1.393 . S
C364 H353 0.950 . S
C364 C362 1.391 . S
C364 C365 1.400 . S
C365 C359 1.491 . S
C365 C364 1.400 . S
C365 C366 1.398 . S
C366 H354 0.950 . S
C366 C365 1.398 . S
C366 C367 1.391 . S
C367 H355 0.950 . S
C367 C363 1.393 . S
C367 C366 1.391 . S
H368 C376 0.950 . S
H369 C381 0.950 . S
H370 C378 0.950 . S
H371 C380 0.950 . S
H372 C382 0.950 . S
H373 C384 0.950 . S
H374 C386 0.950 . S
H375 C387 0.950 . S
C376 H368 0.950 . S
C376 C377 1.386 . S
C376 C378 1.391 . S
C377 C376 1.386 . S
C377 C381 1.393 . S
C378 H370 0.950 . S
C378 C376 1.391 . S
C378 C379 1.400 . S
C379 C378 1.400 . S
C379 C380 1.398 . S
C379 C385 1.491 . S
C380 H371 0.950 . S
C380 C379 1.398 . S
C380 C381 1.391 . S
C381 H369 0.950 . S
C381 C377 1.393 . S
C381 C380 1.391 . S
C382 H372 0.950 . S
C382 C383 1.386 . S
C382 C384 1.391 . S
C383 C382 1.386 . S
C383 C387 1.393 . S
C384 H373 0.950 . S
C384 C382 1.391 . S
C384 C385 1.400 . S
C385 C379 1.491 . S
C385 C384 1.400 . S
C385 C386 1.398 . S
C386 H374 0.950 . S
C386 C385 1.398 . S
C386 C387 1.391 . S
C387 H375 0.950 . S
C387 C383 1.393 . S
C387 C386 1.391 . S
H388 C396 0.950 . S
H389 C401 0.950 . S
H390 C398 0.950 . S
H391 C400 0.950 . S
H392 C402 0.950 . S
H393 C404 0.950 . S
H394 C406 0.950 . S
H395 C407 0.950 . S
C396 H388 0.950 . S
C396 C397 1.386 . S
C396 C398 1.391 . S
C397 C396 1.386 . S
C397 C401 1.393 . S
C398 H390 0.950 . S
C398 C396 1.391 . S
C398 C399 1.400 . S
C399 C398 1.400 . S
C399 C400 1.398 . S
C399 C405 1.491 . S
C400 H391 0.950 . S
C400 C399 1.398 . S
C400 C401 1.391 . S
C401 H389 0.950 . S
C401 C397 1.393 . S
C401 C400 1.391 . S
C402 H392 0.950 . S
C402 C403 1.386 . S
C402 C404 1.391 . S
C403 C402 1.386 . S
C403 C407 1.393 . S
C404 H393 0.950 . S
C404 C402 1.391 . S
C404 C405 1.400 . S
C405 C399 1.491 . S
C405 C404 1.400 . S
C405 C406 1.398 . S
C406 H394 0.950 . S
C406 C405 1.398 . S
C406 C407 1.391 . S
C407 H395 0.950 . S
C407 C403 1.393 . S
C407 C406 1.391 . S
H408 C416 0.950 . S
H409 C421 0.950 . S
H410 C418 0.950 . S
H411 C420 0.950 . S
H412 C422 0.950 . S
H413 C424 0.950 . S
H414 C426 0.950 . S
H415 C427 0.950 . S
C416 H408 0.950 . S
C416 C417 1.386 . S
C416 C418 1.391 . S
C417 C416 1.386 . S
C417 C421 1.393 . S
C418 H410 0.950 . S
C418 C416 1.391 . S
C418 C419 1.400 . S
C419 C418 1.400 . S
C419 C420 1.398 . S
C419 C425 1.491 . S
C420 H411 0.950 . S
C420 C419 1.398 . S
C420 C421 1.391 . S
C421 H409 0.950 . S
C421 C417 1.393 . S
C421 C420 1.391 . S
C422 H412 0.950 . S
C422 C423 1.386 . S
C422 C424 1.391 . S
C423 C422 1.386 . S
C423 C427 1.393 . S
C424 H413 0.950 . S
C424 C422 1.391 . S
C424 C425 1.400 . S
C425 C419 1.491 . S
C425 C424 1.400 . S
C425 C426 1.398 . S
C426 H414 0.950 . S
C426 C425 1.398 . S
C426 C427 1.391 . S
C427 H415 0.950 . S
C427 C423 1.393 . S
C427 C426 1.391 . S
H428 C436 0.950 . S
H429 C441 0.950 . S
H430 C438 0.950 . S
H431 C440 0.950 . S
H432 C442 0.950 . S
H433 C444 0.950 . S
H434 C446 0.950 . S
H435 C447 0.950 . S
C436 H428 0.950 . S
C436 C437 1.386 . S
C436 C438 1.391 . S
C437 C436 1.386 . S
C437 C441 1.393 . S
C438 H430 0.950 . S
C438 C436 1.391 . S
C438 C439 1.400 . S
C439 C438 1.400 . S
C439 C440 1.398 . S
C439 C445 1.491 . S
C440 H431 0.950 . S
C440 C439 1.398 . S
C440 C441 1.391 . S
C441 H429 0.950 . S
C441 C437 1.393 . S
C441 C440 1.391 . S
C442 H432 0.950 . S
C442 C443 1.386 . S
C442 C444 1.391 . S
C443 C442 1.386 . S
C443 C447 1.393 . S
C444 H433 0.950 . S
C444 C442 1.391 . S
C444 C445 1.400 . S
C445 C439 1.491 . S
C445 C444 1.400 . S
C445 C446 1.398 . S
C446 H434 0.950 . S
C446 C445 1.398 . S
C446 C447 1.391 . S
C447 H435 0.950 . S
C447 C443 1.393 . S
C447 C446 1.391 . S
H448 C456 0.950 . S
H449 C461 0.950 . S
H450 C458 0.950 . S
H451 C460 0.950 . S
H452 C462 0.950 . S
H453 C464 0.950 . S
H454 C466 0.950 . S
H455 C467 0.950 . S
C456 H448 0.950 . S
C456 C457 1.386 . S
C456 C458 1.391 . S
C457 C456 1.386 . S
C457 C461 1.393 . S
C458 H450 0.950 . S
C458 C456 1.391 . S
C458 C459 1.400 . S
C459 C458 1.400 . S
C459 C460 1.398 . S
C459 C465 1.491 . S
C460 H451 0.950 . S
C460 C459 1.398 . S
C460 C461 1.391 . S
C461 H449 0.950 . S
C461 C457 1.393 . S
C461 C460 1.391 . S
C462 H452 0.950 . S
C462 C463 1.386 . S
C462 C464 1.391 . S
C463 C462 1.386 . S
C463 C467 1.393 . S
C464 H453 0.950 . S
C464 C462 1.391 . S
C464 C465 1.400 . S
C465 C459 1.491 . S
C465 C464 1.400 . S
C465 C466 1.398 . S
C466 H454 0.950 . S
C466 C465 1.398 . S
C466 C467 1.391 . S
C467 H455 0.950 . S
C467 C463 1.393 . S
C467 C466 1.391 . S
H468 C476 0.950 . S
H469 C481 0.950 . S
H470 C478 0.950 . S
H471 C480 0.950 . S
H472 C482 0.950 . S
H473 C484 0.950 . S
H474 C486 0.950 . S
H475 C487 0.950 . S
C476 H468 0.950 . S
C476 C477 1.386 . S
C476 C478 1.391 . S
C477 C476 1.386 . S
C477 C481 1.393 . S
C478 H470 0.950 . S
C478 C476 1.391 . S
C478 C479 1.400 . S
C479 C478 1.400 . S
C479 C480 1.398 . S
C479 C485 1.491 . S
C480 H471 0.950 . S
C480 C479 1.398 . S
C480 C481 1.391 . S
C481 H469 0.950 . S
C481 C477 1.393 . S
C481 C480 1.391 . S
C482 H472 0.950 . S
C482 C483 1.386 . S
C482 C484 1.391 . S
C483 C482 1.386 . S
C483 C487 1.393 . S
C484 H473 0.950 . S
C484 C482 1.391 . S
C484 C485 1.400 . S
C485 C479 1.491 . S
C485 C484 1.400 . S
C485 C486 1.398 . S
C486 H474 0.950 . S
C486 C485 1.398 . S
C486 C487 1.391 . S
C487 H475 0.950 . S
C487 C483 1.393 . S
C487 C486 1.391 . S
H488 C496 0.950 . S
H489 C501 0.950 . S
H490 C498 0.950 . S
H491 C500 0.950 . S
H492 C502 0.950 . S
H493 C504 0.950 . S
H494 C506 0.950 . S
H495 C507 0.950 1_554 S
C496 H488 0.950 . S
C496 C497 1.386 . S
C496 C498 1.391 . S
C497 C496 1.386 . S
C497 C501 1.393 . S
C498 H490 0.950 . S
C498 C496 1.391 . S
C498 C499 1.400 . S
C499 C498 1.400 . S
C499 C500 1.398 . S
C499 C505 1.491 . S
C500 H491 0.950 . S
C500 C499 1.398 . S
C500 C501 1.391 . S
C501 H489 0.950 . S
C501 C497 1.393 . S
C501 C500 1.391 . S
C502 H492 0.950 . S
C502 C503 1.386 . S
C502 C504 1.391 . S
C503 C502 1.386 . S
C503 C507 1.393 . S
C504 H493 0.950 . S
C504 C502 1.391 . S
C504 C505 1.400 . S
C505 C499 1.491 . S
C505 C504 1.400 . S
C505 C506 1.398 . S
C506 H494 0.950 . S
C506 C505 1.398 . S
C506 C507 1.391 . S
C507 H495 0.950 1_556 S
C507 C503 1.393 . S
C507 C506 1.391 . S
H508 C516 0.950 . S
H509 C521 0.950 . S
H510 C518 0.950 . S
H511 C520 0.950 . S
H512 C522 0.950 . S
H513 C524 0.950 . S
H514 C526 0.950 . S
H515 C527 0.950 . S
C516 H508 0.950 . S
C516 C517 1.386 . S
C516 C518 1.391 . S
C517 C516 1.386 . S
C517 C521 1.393 . S
C518 H510 0.950 . S
C518 C516 1.391 . S
C518 C519 1.400 . S
C519 C518 1.400 . S
C519 C520 1.398 . S
C519 C525 1.491 . S
C520 H511 0.950 . S
C520 C519 1.398 . S
C520 C521 1.391 . S
C521 H509 0.950 . S
C521 C517 1.393 . S
C521 C520 1.391 . S
C522 H512 0.950 . S
C522 C523 1.386 . S
C522 C524 1.391 . S
C523 C522 1.386 . S
C523 C527 1.393 . S
C524 H513 0.950 . S
C524 C522 1.391 . S
C524 C525 1.400 . S
C525 C519 1.491 . S
C525 C524 1.400 . S
C525 C526 1.398 . S
C526 H514 0.950 . S
C526 C525 1.398 . S
C526 C527 1.391 . S
C527 H515 0.950 . S
C527 C523 1.393 . S
C527 C526 1.391 . S
H528 C536 0.950 . S
H529 C541 0.950 . S
H530 C538 0.950 . S
H531 C540 0.950 . S
H532 C542 0.950 . S
H533 C544 0.950 . S
H534 C546 0.950 . S
H535 C547 0.950 . S
C536 H528 0.950 . S
C536 C537 1.386 . S
C536 C538 1.391 . S
C537 C536 1.386 . S
C537 C541 1.393 . S
C538 H530 0.950 . S
C538 C536 1.391 . S
C538 C539 1.400 . S
C539 C538 1.400 . S
C539 C540 1.398 . S
C539 C545 1.491 . S
C540 H531 0.950 . S
C540 C539 1.398 . S
C540 C541 1.391 . S
C541 H529 0.950 . S
C541 C537 1.393 . S
C541 C540 1.391 . S
C542 H532 0.950 . S
C542 C543 1.386 . S
C542 C544 1.391 . S
C543 C542 1.386 . S
C543 C547 1.393 . S
C544 H533 0.950 . S
C544 C542 1.391 . S
C544 C545 1.400 . S
C545 C539 1.491 . S
C545 C544 1.400 . S
C545 C546 1.398 . S
C546 H534 0.950 . S
C546 C545 1.398 . S
C546 C547 1.391 . S
C547 H535 0.950 . S
C547 C543 1.393 . S
C547 C546 1.391 . S
H548 C556 0.950 . S
H549 C561 0.950 . S
H550 C558 0.950 . S
H551 C560 0.950 . S
H552 C562 0.950 . S
H553 C564 0.950 . S
H554 C566 0.950 . S
H555 C567 0.950 . S
C556 H548 0.950 . S
C556 C557 1.386 . S
C556 C558 1.391 . S
C557 C556 1.386 . S
C557 C561 1.393 . S
C558 H550 0.950 . S
C558 C556 1.391 . S
C558 C559 1.400 . S
C559 C558 1.400 . S
C559 C560 1.398 . S
C559 C565 1.491 . S
C560 H551 0.950 . S
C560 C559 1.398 . S
C560 C561 1.391 . S
C561 H549 0.950 . S
C561 C557 1.393 . S
C561 C560 1.391 . S
C562 H552 0.950 . S
C562 C563 1.386 . S
C562 C564 1.391 . S
C563 C562 1.386 . S
C563 C567 1.393 . S
C564 H553 0.950 . S
C564 C562 1.391 . S
C564 C565 1.400 . S
C565 C559 1.491 . S
C565 C564 1.400 . S
C565 C566 1.398 . S
C566 H554 0.950 . S
C566 C565 1.398 . S
C566 C567 1.391 . S
C567 H555 0.950 . S
C567 C563 1.393 . S
C567 C566 1.391 . S
H568 C576 0.950 . S
H569 C581 0.950 . S
H570 C578 0.950 . S
H571 C580 0.950 . S
H572 C582 0.950 . S
H573 C584 0.950 . S
H574 C586 0.950 . S
H575 C587 0.950 . S
C576 H568 0.950 . S
C576 C577 1.386 . S
C576 C578 1.391 . S
C577 C576 1.386 . S
C577 C581 1.393 . S
C578 H570 0.950 . S
C578 C576 1.391 . S
C578 C579 1.400 . S
C579 C578 1.400 . S
C579 C580 1.398 . S
C579 C585 1.491 . S
C580 H571 0.950 . S
C580 C579 1.398 . S
C580 C581 1.391 . S
C581 H569 0.950 . S
C581 C577 1.393 . S
C581 C580 1.391 . S
C582 H572 0.950 . S
C582 C583 1.386 . S
C582 C584 1.391 . S
C583 C582 1.386 . S
C583 C587 1.393 . S
C584 H573 0.950 . S
C584 C582 1.391 . S
C584 C585 1.400 . S
C585 C579 1.491 . S
C585 C584 1.400 . S
C585 C586 1.398 . S
C586 H574 0.950 . S
C586 C585 1.398 . S
C586 C587 1.391 . S
C587 H575 0.950 . S
C587 C583 1.393 . S
C587 C586 1.391 . S
H588 C596 0.950 . S
H589 C601 0.950 . S
H590 C598 0.950 . S
H591 C600 0.950 . S
H592 C602 0.950 . S
H593 C604 0.950 . S
H594 C606 0.950 . S
H595 C607 0.950 . S
C596 H588 0.950 . S
C596 C597 1.386 . S
C596 C598 1.391 . S
C597 C596 1.386 . S
C597 C601 1.393 . S
C598 H590 0.950 . S
C598 C596 1.391 . S
C598 C599 1.400 . S
C599 C598 1.400 . S
C599 C600 1.398 . S
C599 C605 1.491 . S
C600 H591 0.950 . S
C600 C599 1.398 . S
C600 C601 1.391 . S
C601 H589 0.950 . S
C601 C597 1.393 . S
C601 C600 1.391 . S
C602 H592 0.950 . S
C602 C603 1.386 . S
C602 C604 1.391 . S
C603 C602 1.386 . S
C603 C607 1.393 . S
C604 H593 0.950 . S
C604 C602 1.391 . S
C604 C605 1.400 . S
C605 C599 1.491 . S
C605 C604 1.400 . S
C605 C606 1.398 . S
C606 H594 0.950 . S
C606 C605 1.398 . S
C606 C607 1.391 . S
C607 H595 0.950 . S
C607 C603 1.393 . S
C607 C606 1.391 . S
H608 C616 0.950 . S
H609 C621 0.950 . S
H610 C618 0.950 . S
H611 C620 0.950 . S
H612 C622 0.950 . S
H613 C624 0.950 . S
H614 C626 0.950 . S
H615 C627 0.950 . S
C616 H608 0.950 . S
C616 C617 1.386 . S
C616 C618 1.391 . S
C617 C616 1.386 . S
C617 C621 1.393 . S
C618 H610 0.950 . S
C618 C616 1.391 . S
C618 C619 1.400 . S
C619 C618 1.400 . S
C619 C620 1.398 . S
C619 C625 1.491 . S
C620 H611 0.950 . S
C620 C619 1.398 . S
C620 C621 1.391 . S
C621 H609 0.950 . S
C621 C617 1.393 . S
C621 C620 1.391 . S
C622 H612 0.950 . S
C622 C623 1.386 . S
C622 C624 1.391 . S
C623 C622 1.386 . S
C623 C627 1.393 . S
C624 H613 0.950 . S
C624 C622 1.391 . S
C624 C625 1.400 . S
C625 C619 1.491 . S
C625 C624 1.400 . S
C625 C626 1.398 . S
C626 H614 0.950 . S
C626 C625 1.398 . S
C626 C627 1.391 . S
C627 H615 0.950 . S
C627 C623 1.393 . S
C627 C626 1.391 . S
H628 C636 0.950 . S
H629 C641 0.950 . S
H630 C638 0.950 . S
H631 C640 0.950 . S
H632 C642 0.950 . S
H633 C644 0.950 . S
H634 C646 0.950 . S
H635 C647 0.950 . S
C636 H628 0.950 . S
C636 C637 1.386 . S
C636 C638 1.391 . S
C637 C636 1.386 . S
C637 C641 1.393 . S
C638 H630 0.950 . S
C638 C636 1.391 . S
C638 C639 1.400 . S
C639 C638 1.400 . S
C639 C640 1.398 . S
C639 C645 1.491 . S
C640 H631 0.950 . S
C640 C639 1.398 . S
C640 C641 1.391 . S
C641 H629 0.950 . S
C641 C637 1.393 . S
C641 C640 1.391 . S
C642 H632 0.950 . S
C642 C643 1.386 . S
C642 C644 1.391 . S
C643 C642 1.386 . S
C643 C647 1.393 . S
C644 H633 0.950 . S
C644 C642 1.391 . S
C644 C645 1.400 . S
C645 C639 1.491 . S
C645 C644 1.400 . S
C645 C646 1.398 . S
C646 H634 0.950 . S
C646 C645 1.398 . S
C646 C647 1.391 . S
C647 H635 0.950 . S
C647 C643 1.393 . S
C647 C646 1.391 . S
H648 C656 0.950 . S
H649 C661 0.950 . S
H650 C658 0.950 . S
H651 C660 0.950 . S
H652 C662 0.950 . S
H653 C664 0.950 . S
H654 C666 0.950 . S
H655 C667 0.950 . S
C656 H648 0.950 . S
C656 C657 1.386 . S
C656 C658 1.391 . S
C657 C656 1.386 . S
C657 C661 1.393 . S
C658 H650 0.950 . S
C658 C656 1.391 . S
C658 C659 1.400 . S
C659 C658 1.400 . S
C659 C660 1.398 . S
C659 C665 1.491 . S
C660 H651 0.950 . S
C660 C659 1.398 . S
C660 C661 1.391 . S
C661 H649 0.950 . S
C661 C657 1.393 . S
C661 C660 1.391 . S
C662 H652 0.950 . S
C662 C663 1.386 . S
C662 C664 1.391 . S
C663 C662 1.386 . S
C663 C667 1.393 . S
C664 H653 0.950 . S
C664 C662 1.391 . S
C664 C665 1.400 . S
C665 C659 1.491 . S
C665 C664 1.400 . S
C665 C666 1.398 . S
C666 H654 0.950 . S
C666 C665 1.398 . S
C666 C667 1.391 . S
C667 H655 0.950 . S
C667 C663 1.393 . S
C667 C666 1.391 . S
H668 C676 0.950 . S
H669 C681 0.950 . S
H670 C678 0.950 . S
H671 C680 0.950 . S
H672 C682 0.950 . S
H673 C684 0.950 . S
H674 C686 0.950 . S
H675 C687 0.950 . S
C676 H668 0.950 . S
C676 C677 1.386 . S
C676 C678 1.391 . S
C677 C676 1.386 . S
C677 C681 1.393 . S
C678 H670 0.950 . S
C678 C676 1.391 . S
C678 C679 1.400 . S
C679 C678 1.400 . S
C679 C680 1.398 . S
C679 C685 1.491 . S
C680 H671 0.950 . S
C680 C679 1.398 . S
C680 C681 1.391 . S
C681 H669 0.950 . S
C681 C677 1.393 . S
C681 C680 1.391 . S
C682 H672 0.950 . S
C682 C683 1.386 . S
C682 C684 1.391 . S
C683 C682 1.386 . S
C683 C687 1.393 . S
C684 H673 0.950 . S
C684 C682 1.391 . S
C684 C685 1.400 . S
C685 C679 1.491 . S
C685 C684 1.400 . S
C685 C686 1.398 . S
C686 H674 0.950 . S
C686 C685 1.398 . S
C686 C687 1.391 . S
C687 H675 0.950 . S
C687 C683 1.393 . S
C687 C686 1.391 . S
H688 C696 0.950 . S
H689 C701 0.950 . S
H690 C698 0.950 . S
H691 C700 0.950 . S
H692 C702 0.950 . S
H693 C704 0.950 . S
H694 C706 0.950 . S
H695 C707 0.950 . S
C696 H688 0.950 . S
C696 C697 1.386 . S
C696 C698 1.391 . S
C697 C696 1.386 . S
C697 C701 1.393 . S
C698 H690 0.950 . S
C698 C696 1.391 . S
C698 C699 1.400 . S
C699 C698 1.400 . S
C699 C700 1.398 . S
C699 C705 1.491 . S
C700 H691 0.950 . S
C700 C699 1.398 . S
C700 C701 1.391 . S
C701 H689 0.950 . S
C701 C697 1.393 . S
C701 C700 1.391 . S
C702 H692 0.950 . S
C702 C703 1.386 . S
C702 C704 1.391 . S
C703 C702 1.386 . S
C703 C707 1.393 . S
C704 H693 0.950 . S
C704 C702 1.391 . S
C704 C705 1.400 . S
C705 C699 1.491 . S
C705 C704 1.400 . S
C705 C706 1.398 . S
C706 H694 0.950 . S
C706 C705 1.398 . S
C706 C707 1.391 . S
C707 H695 0.950 . S
C707 C703 1.393 . S
C707 C706 1.391 . S
H708 C716 0.950 . S
H709 C721 0.950 . S
H710 C718 0.950 . S
H711 C720 0.950 . S
H712 C722 0.950 . S
H713 C724 0.950 . S
H714 C726 0.950 . S
H715 C727 0.950 . S
C716 H708 0.950 . S
C716 C717 1.386 . S
C716 C718 1.391 . S
C717 C716 1.386 . S
C717 C721 1.393 . S
C718 H710 0.950 . S
C718 C716 1.391 . S
C718 C719 1.400 . S
C719 C718 1.400 . S
C719 C720 1.398 . S
C719 C725 1.491 . S
C720 H711 0.950 . S
C720 C719 1.398 . S
C720 C721 1.391 . S
C721 H709 0.950 . S
C721 C717 1.393 . S
C721 C720 1.391 . S
C722 H712 0.950 . S
C722 C723 1.386 . S
C722 C724 1.391 . S
C723 C722 1.386 . S
C723 C727 1.393 . S
C724 H713 0.950 . S
C724 C722 1.391 . S
C724 C725 1.400 . S
C725 C719 1.491 . S
C725 C724 1.400 . S
C725 C726 1.398 . S
C726 H714 0.950 . S
C726 C725 1.398 . S
C726 C727 1.391 . S
C727 H715 0.950 . S
C727 C723 1.393 . S
C727 C726 1.391 . S
H728 C736 0.950 . S
H729 C741 0.950 . S
H730 C738 0.950 . S
H731 C740 0.950 . S
H732 C742 0.950 . S
H733 C744 0.950 . S
H734 C746 0.950 . S
H735 C747 0.950 . S
C736 H728 0.950 . S
C736 C737 1.386 . S
C736 C738 1.391 . S
C737 C736 1.386 . S
C737 C741 1.393 . S
C738 H730 0.950 . S
C738 C736 1.391 . S
C738 C739 1.400 . S
C739 C738 1.400 . S
C739 C740 1.398 . S
C739 C745 1.491 . S
C740 H731 0.950 . S
C740 C739 1.398 . S
C740 C741 1.391 . S
C741 H729 0.950 . S
C741 C737 1.393 . S
C741 C740 1.391 . S
C742 H732 0.950 . S
C742 C743 1.386 . S
C742 C744 1.391 . S
C743 C742 1.386 . S
C743 C747 1.393 . S
C744 H733 0.950 . S
C744 C742 1.391 . S
C744 C745 1.400 . S
C745 C739 1.491 . S
C745 C744 1.400 . S
C745 C746 1.398 . S
C746 H734 0.950 . S
C746 C745 1.398 . S
C746 C747 1.391 . S
C747 H735 0.950 . S
C747 C743 1.393 . S
C747 C746 1.391 . S
H748 C756 0.950 . S
H749 C761 0.950 . S
H750 C758 0.950 . S
H751 C760 0.950 . S
H752 C762 0.950 . S
H753 C764 0.950 . S
H754 C766 0.950 . S
H755 C767 0.950 . S
C756 H748 0.950 . S
C756 C757 1.386 . S
C756 C758 1.391 . S
C757 C756 1.386 . S
C757 C761 1.393 . S
C758 H750 0.950 . S
C758 C756 1.391 . S
C758 C759 1.400 . S
C759 C758 1.400 . S
C759 C760 1.398 . S
C759 C765 1.491 . S
C760 H751 0.950 . S
C760 C759 1.398 . S
C760 C761 1.391 . S
C761 H749 0.950 . S
C761 C757 1.393 . S
C761 C760 1.391 . S
C762 H752 0.950 . S
C762 C763 1.386 . S
C762 C764 1.391 . S
C763 C762 1.386 . S
C763 C767 1.393 . S
C764 H753 0.950 . S
C764 C762 1.391 . S
C764 C765 1.400 . S
C765 C759 1.491 . S
C765 C764 1.400 . S
C765 C766 1.398 . S
C766 H754 0.950 . S
C766 C765 1.398 . S
C766 C767 1.391 . S
C767 H755 0.950 . S
C767 C763 1.393 . S
C767 C766 1.391 . S
H768 C776 0.950 . S
H769 C781 0.950 . S
H770 C778 0.950 . S
H771 C780 0.950 . S
H772 C782 0.950 . S
H773 C784 0.950 . S
H774 C786 0.950 . S
H775 C787 0.950 . S
C776 H768 0.950 . S
C776 C777 1.386 . S
C776 C778 1.391 . S
C777 C776 1.386 . S
C777 C781 1.393 . S
C778 H770 0.950 . S
C778 C776 1.391 . S
C778 C779 1.400 . S
C779 C778 1.400 . S
C779 C780 1.398 . S
C779 C785 1.491 . S
C780 H771 0.950 . S
C780 C779 1.398 . S
C780 C781 1.391 . S
C781 H769 0.950 . S
C781 C777 1.393 . S
C781 C780 1.391 . S
C782 H772 0.950 . S
C782 C783 1.386 . S
C782 C784 1.391 . S
C783 C782 1.386 . S
C783 C787 1.393 . S
C784 H773 0.950 . S
C784 C782 1.391 . S
C784 C785 1.400 . S
C785 C779 1.491 . S
C785 C784 1.400 . S
C785 C786 1.398 . S
C786 H774 0.950 . S
C786 C785 1.398 . S
C786 C787 1.391 . S
C787 H775 0.950 . S
C787 C783 1.393 . S
C787 C786 1.391 . S
H788 C796 0.950 . S
H789 C801 0.950 . S
H790 C798 0.950 . S
H791 C800 0.950 . S
H792 C802 0.950 . S
H793 C804 0.950 . S
H794 C806 0.950 . S
H795 C807 0.950 . S
C796 H788 0.950 . S
C796 C797 1.386 . S
C796 C798 1.391 . S
C797 C796 1.386 . S
C797 C801 1.393 . S
C798 H790 0.950 . S
C798 C796 1.391 . S
C798 C799 1.400 . S
C799 C798 1.400 . S
C799 C800 1.398 . S
C799 C805 1.491 . S
C800 H791 0.950 . S
C800 C799 1.398 . S
C800 C801 1.391 . S
C801 H789 0.950 . S
C801 C797 1.393 . S
C801 C800 1.391 . S
C802 H792 0.950 . S
C802 C803 1.386 . S
C802 C804 1.391 . S
C803 C802 1.386 . S
C803 C807 1.393 . S
C804 H793 0.950 . S
C804 C802 1.391 . S
C804 C805 1.400 . S
C805 C799 1.491 . S
C805 C804 1.400 . S
C805 C806 1.398 . S
C806 H794 0.950 . S
C806 C805 1.398 . S
C806 C807 1.391 . S
C807 H795 0.950 . S
C807 C803 1.393 . S
C807 C806 1.391 . S
H808 C816 0.950 . S
H809 C821 0.950 . S
H810 C818 0.950 . S
H811 C820 0.950 . S
H812 C822 0.950 . S
H813 C824 0.950 . S
H814 C826 0.950 . S
H815 C827 0.950 . S
C816 H808 0.950 . S
C816 C817 1.386 . S
C816 C818 1.391 . S
C817 C816 1.386 . S
C817 C821 1.393 . S
C818 H810 0.950 . S
C818 C816 1.391 . S
C818 C819 1.400 . S
C819 C818 1.400 . S
C819 C820 1.398 . S
C819 C825 1.491 . S
C820 H811 0.950 . S
C820 C819 1.398 . S
C820 C821 1.391 . S
C821 H809 0.950 . S
C821 C817 1.393 . S
C821 C820 1.391 . S
C822 H812 0.950 . S
C822 C823 1.386 . S
C822 C824 1.391 . S
C823 C822 1.386 . S
C823 C827 1.393 . S
C824 H813 0.950 . S
C824 C822 1.391 . S
C824 C825 1.400 . S
C825 C819 1.491 . S
C825 C824 1.400 . S
C825 C826 1.398 . S
C826 H814 0.950 . S
C826 C825 1.398 . S
C826 C827 1.391 . S
C827 H815 0.950 . S
C827 C823 1.393 . S
C827 C826 1.391 . S
H828 C836 0.950 . S
H829 C841 0.950 . S
H830 C838 0.950 . S
H831 C840 0.950 . S
H832 C842 0.950 . S
H833 C844 0.950 . S
H834 C846 0.950 . S
H835 C847 0.950 . S
C836 H828 0.950 . S
C836 C837 1.386 . S
C836 C838 1.391 . S
C837 C836 1.386 . S
C837 C841 1.393 . S
C838 H830 0.950 . S
C838 C836 1.391 . S
C838 C839 1.400 . S
C839 C838 1.400 . S
C839 C840 1.398 . S
C839 C845 1.491 . S
C840 H831 0.950 . S
C840 C839 1.398 . S
C840 C841 1.391 . S
C841 H829 0.950 . S
C841 C837 1.393 . S
C841 C840 1.391 . S
C842 H832 0.950 . S
C842 C843 1.386 . S
C842 C844 1.391 . S
C843 C842 1.386 . S
C843 C847 1.393 . S
C844 H833 0.950 . S
C844 C842 1.391 . S
C844 C845 1.400 . S
C845 C839 1.491 . S
C845 C844 1.400 . S
C845 C846 1.398 . S
C846 H834 0.950 . S
C846 C845 1.398 . S
C846 C847 1.391 . S
C847 H835 0.950 . S
C847 C843 1.393 . S
C847 C846 1.391 . S
C223 C120 1.260 . S
C217 C5 1.277 . S
C243 C134 1.252 . S
C237 C18 1.267 . S
C263 C147 1.273 . S
C257 C31 1.280 . S
C277 C42 1.257 . S
C283 C114 1.272 . S
C297 C57 1.276 . S
C303 C107 1.270 . S
C317 C70 1.277 . S
C323 C127 1.261 . S
C343 C135 1.273 . S
C337 C81 1.258 . S
C363 C148 1.277 . S
C357 C96 1.273 . S
C377 C29 1.265 . S
C383 C174 1.267 . S
C403 C192 1.252 . S
C397 C44 1.270 . S
C417 C3 1.254 . S
C423 C199 1.275 . S
C443 C166 1.263 . S
C437 C16 1.274 . S
C457 C83 1.283 . S
C463 C159 1.284 . S
C477 C94 1.276 . S
C483 C173 1.261 . S
C503 C185 1.277 . S
C497 C55 1.256 . S
C517 C68 1.264 . S
C523 C200 1.274 . S
C543 C133 1.525 . S
C537 C1 1.522 . S
C563 C146 1.526 . S
C557 C14 1.525 . S
C577 C27 1.533 . S
C583 C109 1.534 . S
C597 C49 1.552 . S
C603 C121 1.523 . S
C617 C53 1.527 . S
C623 C153 1.519 . S
C643 C108 1.516 . S
C637 C66 1.509 . S
C663 C122 1.533 . S
C657 C88 1.553 . S
C683 C140 1.531 . S
C677 C92 1.527 . S
C703 C187 1.527 . S
C697 C36 1.559 . S
C723 C198 1.528 . S
C717 C40 1.519 . S
C737 C10 1.545 . S
C743 C161 1.532 . S
C763 C179 1.528 . S
C757 C23 1.549 . S
C783 C205 1.505 . S
C777 C79 1.509 . S
C797 C101 1.547 . S
C803 C160 1.507 . S
C823 C172 1.522 . S
C817 C62 1.555 . S
C843 C186 1.525 . S
C837 C75 1.552 . S
