# Generated by pormake.
# Topology gar, (4,6)-cn, num edge types: 1
# Building blocks:
#     Node 0, Type 0, BuildingBlock: UXUYUI_clean_sbu_0, # of connection points: 4
#     Node 1, Type 0, BuildingBlock: UXUYUI_clean_sbu_0, # of connection points: 4
#     Node 2, Type 0, BuildingBlock: UXUYUI_clean_sbu_0, # of connection points: 4
#     Node 3, Type 0, BuildingBlock: UXUYUI_clean_sbu_0, # of connection points: 4
#     Node 4, Type 0, BuildingBlock: UXUYUI_clean_sbu_0, # of connection points: 4
#     Node 5, Type 0, BuildingBlock: UXUYUI_clean_sbu_0, # of connection points: 4
#     Node 6, Type 0, BuildingBlock: UXUYUI_clean_sbu_0, # of connection points: 4
#     Node 7, Type 0, BuildingBlock: UXUYUI_clean_sbu_0, # of connection points: 4
#     Node 8, Type 0, BuildingBlock: UXUYUI_clean_sbu_0, # of connection points: 4
#     Node 9, Type 0, BuildingBlock: UXUYUI_clean_sbu_0, # of connection points: 4
#     Node 10, Type 0, BuildingBlock: UXUYUI_clean_sbu_0, # of connection points: 4
#     Node 11, Type 0, BuildingBlock: UXUYUI_clean_sbu_0, # of connection points: 4
#     Node 12, Type 0, BuildingBlock: UXUYUI_clean_sbu_0, # of connection points: 4
#     Node 13, Type 0, BuildingBlock: UXUYUI_clean_sbu_0, # of connection points: 4
#     Node 14, Type 0, BuildingBlock: UXUYUI_clean_sbu_0, # of connection points: 4
#     Node 15, Type 0, BuildingBlock: UXUYUI_clean_sbu_0, # of connection points: 4
#     Node 16, Type 0, BuildingBlock: UXUYUI_clean_sbu_0, # of connection points: 4
#     Node 17, Type 0, BuildingBlock: UXUYUI_clean_sbu_0, # of connection points: 4
#     Node 18, Type 0, BuildingBlock: UXUYUI_clean_sbu_0, # of connection points: 4
#     Node 19, Type 0, BuildingBlock: UXUYUI_clean_sbu_0, # of connection points: 4
#     Node 20, Type 0, BuildingBlock: UXUYUI_clean_sbu_0, # of connection points: 4
#     Node 21, Type 0, BuildingBlock: UXUYUI_clean_sbu_0, # of connection points: 4
#     Node 22, Type 0, BuildingBlock: UXUYUI_clean_sbu_0, # of connection points: 4
#     Node 23, Type 0, BuildingBlock: UXUYUI_clean_sbu_0, # of connection points: 4
#     Node 24, Type 1, BuildingBlock: BETDIP_clean_sbu_0, # of connection points: 6
#     Node 25, Type 1, BuildingBlock: BETDIP_clean_sbu_0, # of connection points: 6
#     Node 26, Type 1, BuildingBlock: BETDIP_clean_sbu_0, # of connection points: 6
#     Node 27, Type 1, BuildingBlock: BETDIP_clean_sbu_0, # of connection points: 6
#     Node 28, Type 1, BuildingBlock: BETDIP_clean_sbu_0, # of connection points: 6
#     Node 29, Type 1, BuildingBlock: BETDIP_clean_sbu_0, # of connection points: 6
#     Node 30, Type 1, BuildingBlock: BETDIP_clean_sbu_0, # of connection points: 6
#     Node 31, Type 1, BuildingBlock: BETDIP_clean_sbu_0, # of connection points: 6
#     Node 32, Type 1, BuildingBlock: BETDIP_clean_sbu_0, # of connection points: 6
#     Node 33, Type 1, BuildingBlock: BETDIP_clean_sbu_0, # of connection points: 6
#     Node 34, Type 1, BuildingBlock: BETDIP_clean_sbu_0, # of connection points: 6
#     Node 35, Type 1, BuildingBlock: BETDIP_clean_sbu_0, # of connection points: 6
#     Node 36, Type 1, BuildingBlock: BETDIP_clean_sbu_0, # of connection points: 6
#     Node 37, Type 1, BuildingBlock: BETDIP_clean_sbu_0, # of connection points: 6
#     Node 38, Type 1, BuildingBlock: BETDIP_clean_sbu_0, # of connection points: 6
#     Node 39, Type 1, BuildingBlock: BETDIP_clean_sbu_0, # of connection points: 6
#     Edge 40, Type (0, 1), BuildingBlock: UVAHIK_clean_linker_0, # of connection points: 2
#     Edge 41, Type (0, 1), BuildingBlock: UVAHIK_clean_linker_0, # of connection points: 2
#     Edge 42, Type (0, 1), BuildingBlock: UVAHIK_clean_linker_0, # of connection points: 2
#     Edge 43, Type (0, 1), BuildingBlock: UVAHIK_clean_linker_0, # of connection points: 2
#     Edge 44, Type (0, 1), BuildingBlock: UVAHIK_clean_linker_0, # of connection points: 2
#     Edge 45, Type (0, 1), BuildingBlock: UVAHIK_clean_linker_0, # of connection points: 2
#     Edge 46, Type (0, 1), BuildingBlock: UVAHIK_clean_linker_0, # of connection points: 2
#     Edge 47, Type (0, 1), BuildingBlock: UVAHIK_clean_linker_0, # of connection points: 2
#     Edge 48, Type (0, 1), BuildingBlock: UVAHIK_clean_linker_0, # of connection points: 2
#     Edge 49, Type (0, 1), BuildingBlock: UVAHIK_clean_linker_0, # of connection points: 2
#     Edge 50, Type (0, 1), BuildingBlock: UVAHIK_clean_linker_0, # of connection points: 2
#     Edge 51, Type (0, 1), BuildingBlock: UVAHIK_clean_linker_0, # of connection points: 2
#     Edge 52, Type (0, 1), BuildingBlock: UVAHIK_clean_linker_0, # of connection points: 2
#     Edge 53, Type (0, 1), BuildingBlock: UVAHIK_clean_linker_0, # of connection points: 2
#     Edge 54, Type (0, 1), BuildingBlock: UVAHIK_clean_linker_0, # of connection points: 2
#     Edge 55, Type (0, 1), BuildingBlock: UVAHIK_clean_linker_0, # of connection points: 2
#     Edge 56, Type (0, 1), BuildingBlock: UVAHIK_clean_linker_0, # of connection points: 2
#     Edge 57, Type (0, 1), BuildingBlock: UVAHIK_clean_linker_0, # of connection points: 2
#     Edge 58, Type (0, 1), BuildingBlock: UVAHIK_clean_linker_0, # of connection points: 2
#     Edge 59, Type (0, 1), BuildingBlock: UVAHIK_clean_linker_0, # of connection points: 2
#     Edge 60, Type (0, 1), BuildingBlock: UVAHIK_clean_linker_0, # of connection points: 2
#     Edge 61, Type (0, 1), BuildingBlock: UVAHIK_clean_linker_0, # of connection points: 2
#     Edge 62, Type (0, 1), BuildingBlock: UVAHIK_clean_linker_0, # of connection points: 2
#     Edge 63, Type (0, 1), BuildingBlock: UVAHIK_clean_linker_0, # of connection points: 2
#     Edge 64, Type (0, 1), BuildingBlock: UVAHIK_clean_linker_0, # of connection points: 2
#     Edge 65, Type (0, 1), BuildingBlock: UVAHIK_clean_linker_0, # of connection points: 2
#     Edge 66, Type (0, 1), BuildingBlock: UVAHIK_clean_linker_0, # of connection points: 2
#     Edge 67, Type (0, 1), BuildingBlock: UVAHIK_clean_linker_0, # of connection points: 2
#     Edge 68, Type (0, 1), BuildingBlock: UVAHIK_clean_linker_0, # of connection points: 2
#     Edge 69, Type (0, 1), BuildingBlock: UVAHIK_clean_linker_0, # of connection points: 2
#     Edge 70, Type (0, 1), BuildingBlock: UVAHIK_clean_linker_0, # of connection points: 2
#     Edge 71, Type (0, 1), BuildingBlock: UVAHIK_clean_linker_0, # of connection points: 2
#     Edge 72, Type (0, 1), BuildingBlock: UVAHIK_clean_linker_0, # of connection points: 2
#     Edge 73, Type (0, 1), BuildingBlock: UVAHIK_clean_linker_0, # of connection points: 2
#     Edge 74, Type (0, 1), BuildingBlock: UVAHIK_clean_linker_0, # of connection points: 2
#     Edge 75, Type (0, 1), BuildingBlock: UVAHIK_clean_linker_0, # of connection points: 2
#     Edge 76, Type (0, 1), BuildingBlock: UVAHIK_clean_linker_0, # of connection points: 2
#     Edge 77, Type (0, 1), BuildingBlock: UVAHIK_clean_linker_0, # of connection points: 2
#     Edge 78, Type (0, 1), BuildingBlock: UVAHIK_clean_linker_0, # of connection points: 2
#     Edge 79, Type (0, 1), BuildingBlock: UVAHIK_clean_linker_0, # of connection points: 2
#     Edge 80, Type (0, 1), BuildingBlock: UVAHIK_clean_linker_0, # of connection points: 2
#     Edge 81, Type (0, 1), BuildingBlock: UVAHIK_clean_linker_0, # of connection points: 2
#     Edge 82, Type (0, 1), BuildingBlock: UVAHIK_clean_linker_0, # of connection points: 2
#     Edge 83, Type (0, 1), BuildingBlock: UVAHIK_clean_linker_0, # of connection points: 2
#     Edge 84, Type (0, 1), BuildingBlock: UVAHIK_clean_linker_0, # of connection points: 2
#     Edge 85, Type (0, 1), BuildingBlock: UVAHIK_clean_linker_0, # of connection points: 2
#     Edge 86, Type (0, 1), BuildingBlock: UVAHIK_clean_linker_0, # of connection points: 2
#     Edge 87, Type (0, 1), BuildingBlock: UVAHIK_clean_linker_0, # of connection points: 2
#     Edge 88, Type (0, 1), BuildingBlock: UVAHIK_clean_linker_0, # of connection points: 2
#     Edge 89, Type (0, 1), BuildingBlock: UVAHIK_clean_linker_0, # of connection points: 2
#     Edge 90, Type (0, 1), BuildingBlock: UVAHIK_clean_linker_0, # of connection points: 2
#     Edge 91, Type (0, 1), BuildingBlock: UVAHIK_clean_linker_0, # of connection points: 2
#     Edge 92, Type (0, 1), BuildingBlock: UVAHIK_clean_linker_0, # of connection points: 2
#     Edge 93, Type (0, 1), BuildingBlock: UVAHIK_clean_linker_0, # of connection points: 2
#     Edge 94, Type (0, 1), BuildingBlock: UVAHIK_clean_linker_0, # of connection points: 2
#     Edge 95, Type (0, 1), BuildingBlock: UVAHIK_clean_linker_0, # of connection points: 2
#     Edge 96, Type (0, 1), BuildingBlock: UVAHIK_clean_linker_0, # of connection points: 2
#     Edge 97, Type (0, 1), BuildingBlock: UVAHIK_clean_linker_0, # of connection points: 2
#     Edge 98, Type (0, 1), BuildingBlock: UVAHIK_clean_linker_0, # of connection points: 2
#     Edge 99, Type (0, 1), BuildingBlock: UVAHIK_clean_linker_0, # of connection points: 2
#     Edge 100, Type (0, 1), BuildingBlock: UVAHIK_clean_linker_0, # of connection points: 2
#     Edge 101, Type (0, 1), BuildingBlock: UVAHIK_clean_linker_0, # of connection points: 2
#     Edge 102, Type (0, 1), BuildingBlock: UVAHIK_clean_linker_0, # of connection points: 2
#     Edge 103, Type (0, 1), BuildingBlock: UVAHIK_clean_linker_0, # of connection points: 2
#     Edge 104, Type (0, 1), BuildingBlock: UVAHIK_clean_linker_0, # of connection points: 2
#     Edge 105, Type (0, 1), BuildingBlock: UVAHIK_clean_linker_0, # of connection points: 2
#     Edge 106, Type (0, 1), BuildingBlock: UVAHIK_clean_linker_0, # of connection points: 2
#     Edge 107, Type (0, 1), BuildingBlock: UVAHIK_clean_linker_0, # of connection points: 2
#     Edge 108, Type (0, 1), BuildingBlock: UVAHIK_clean_linker_0, # of connection points: 2
#     Edge 109, Type (0, 1), BuildingBlock: UVAHIK_clean_linker_0, # of connection points: 2
#     Edge 110, Type (0, 1), BuildingBlock: UVAHIK_clean_linker_0, # of connection points: 2
#     Edge 111, Type (0, 1), BuildingBlock: UVAHIK_clean_linker_0, # of connection points: 2
#     Edge 112, Type (0, 1), BuildingBlock: UVAHIK_clean_linker_0, # of connection points: 2
#     Edge 113, Type (0, 1), BuildingBlock: UVAHIK_clean_linker_0, # of connection points: 2
#     Edge 114, Type (0, 1), BuildingBlock: UVAHIK_clean_linker_0, # of connection points: 2
#     Edge 115, Type (0, 1), BuildingBlock: UVAHIK_clean_linker_0, # of connection points: 2
#     Edge 116, Type (0, 1), BuildingBlock: UVAHIK_clean_linker_0, # of connection points: 2
#     Edge 117, Type (0, 1), BuildingBlock: UVAHIK_clean_linker_0, # of connection points: 2
#     Edge 118, Type (0, 1), BuildingBlock: UVAHIK_clean_linker_0, # of connection points: 2
#     Edge 119, Type (0, 1), BuildingBlock: UVAHIK_clean_linker_0, # of connection points: 2
#     Edge 120, Type (0, 1), BuildingBlock: UVAHIK_clean_linker_0, # of connection points: 2
#     Edge 121, Type (0, 1), BuildingBlock: UVAHIK_clean_linker_0, # of connection points: 2
#     Edge 122, Type (0, 1), BuildingBlock: UVAHIK_clean_linker_0, # of connection points: 2
#     Edge 123, Type (0, 1), BuildingBlock: UVAHIK_clean_linker_0, # of connection points: 2
#     Edge 124, Type (0, 1), BuildingBlock: UVAHIK_clean_linker_0, # of connection points: 2
#     Edge 125, Type (0, 1), BuildingBlock: UVAHIK_clean_linker_0, # of connection points: 2
#     Edge 126, Type (0, 1), BuildingBlock: UVAHIK_clean_linker_0, # of connection points: 2
#     Edge 127, Type (0, 1), BuildingBlock: UVAHIK_clean_linker_0, # of connection points: 2
#     Edge 128, Type (0, 1), BuildingBlock: UVAHIK_clean_linker_0, # of connection points: 2
#     Edge 129, Type (0, 1), BuildingBlock: UVAHIK_clean_linker_0, # of connection points: 2
#     Edge 130, Type (0, 1), BuildingBlock: UVAHIK_clean_linker_0, # of connection points: 2
#     Edge 131, Type (0, 1), BuildingBlock: UVAHIK_clean_linker_0, # of connection points: 2
#     Edge 132, Type (0, 1), BuildingBlock: UVAHIK_clean_linker_0, # of connection points: 2
#     Edge 133, Type (0, 1), BuildingBlock: UVAHIK_clean_linker_0, # of connection points: 2
#     Edge 134, Type (0, 1), BuildingBlock: UVAHIK_clean_linker_0, # of connection points: 2
#     Edge 135, Type (0, 1), BuildingBlock: UVAHIK_clean_linker_0, # of connection points: 2
# Relax obj value: 0.167
# Max RMSD: 0.256
# Mean RMSD: 0.182
data_MOF--net-gar--node1-UXUYUI_clean_sbu_0--node2-BETDIP_clean_sbu_0--edge1-UVAHIK_clean_linker_0
_symmetry_space_group_name_H-M    P1
_symmetry_Int_Tables_number       1
_symmetry_cell_setting            triclinic
loop_
_symmetry_equiv_pos_as_xyz
'x, y, z'
_cell_length_a     91.708139
_cell_length_b     85.942894
_cell_length_c     83.545133
_cell_angle_alpha  96.613285
_cell_angle_beta   97.679925
_cell_angle_gamma 100.10017
loop_
_atom_site_label
_atom_site_type_symbol
_atom_site_fract_x
_atom_site_fract_y
_atom_site_fract_z
_atom_type_partial_charge
Li0 Li 0.00583 0.2816 0.3572 0.0
Li1 Li 0.01795 0.29798 0.38165 0.0
Li2 Li 0.03329 0.28503 0.36469 0.0
Li3 Li 0.01604 0.27045 0.38065 0.0
C4 C 0.0197 0.3163 0.35719 0.0
N5 N 0.01703 0.34731 0.35369 0.0
C6 C 0.00559 0.31996 0.35269 0.0
C7 C 0.03245 0.32842 0.35988 0.0
C8 C 0.00447 0.3357 0.35102 0.0
C9 C 0.03087 0.34402 0.35805 0.0
C10 C 0.98984 0.28846 0.38708 0.0
C11 C 0.98276 0.29803 0.41266 0.0
N12 N 0.9708 0.30263 0.40438 0.0
C13 C 0.97744 0.29322 0.37882 0.0
C14 C 0.99249 0.29081 0.40414 0.0
C15 C 0.96796 0.30038 0.38779 0.0
C16 C 0.97783 0.26695 0.34108 0.0
N17 N 0.99016 0.27764 0.33955 0.0
C18 C 0.97824 0.28327 0.31433 0.0
C19 C 0.99085 0.28535 0.32628 0.0
C20 C 0.96514 0.27281 0.316 0.0
C21 C 0.96513 0.26423 0.32929 0.0
H22 H 0.97773 0.26098 0.3518 0.0
H23 H 1.00097 0.29358 0.32533 0.0
C24 C 0.02853 0.3211 0.40935 0.0
N25 N 0.01787 0.31688 0.39584 0.0
C26 C 0.02799 0.334 0.42089 0.0
C27 C 0.00572 0.33811 0.40418 0.0
C28 C 0.00671 0.3252 0.39301 0.0
C29 C 0.01638 0.34257 0.4184 0.0
H30 H 0.03729 0.31428 0.41131 0.0
H31 H 0.99819 0.32147 0.38241 0.0
C32 C 0.01085 0.25375 0.34514 0.0
N33 N 0.9945 0.23193 0.31933 0.0
C34 C 1.00079 0.24054 0.34804 0.0
C35 C 0.0126 0.25585 0.32911 0.0
C36 C 0.99264 0.22964 0.33482 0.0
C37 C 0.00422 0.2447 0.31623 0.0
C38 C 0.04168 0.27986 0.40009 0.0
C39 C 0.0534 0.27235 0.39639 0.0
C40 C 0.03714 0.27946 0.41538 0.0
C41 C 0.06027 0.26437 0.40802 0.0
C42 C 0.04428 0.27134 0.42666 0.0
N43 N 0.05559 0.26402 0.42278 0.0
C44 C 0.06232 0.29861 0.35894 0.0
C45 C 0.05202 0.27211 0.34625 0.0
C46 C 0.075 0.29864 0.35135 0.0
N47 N 0.05112 0.28553 0.35604 0.0
C48 C 0.06432 0.27167 0.3383 0.0
C49 C 0.07602 0.28507 0.34072 0.0
H50 H 0.06138 0.309 0.36705 0.0
H51 H 0.04308 0.26178 0.34445 0.0
C52 C 1.00135 0.25025 0.39997 0.0
N53 N 0.01301 0.25259 0.39152 0.0
C54 C 0.99843 0.23654 0.40729 0.0
C55 C 0.01949 0.22784 0.39681 0.0
C56 C 0.022 0.24174 0.38972 0.0
C57 C 0.00753 0.22512 0.40566 0.0
H58 H 0.9941 0.25882 0.40073 0.0
H59 H 0.03097 0.24382 0.38256 0.0
O60 O 0.02106 0.3009 0.35861 0.0
O61 O 0.99924 0.28141 0.37849 0.0
O62 O 0.01867 0.26478 0.35789 0.0
O63 O 0.03462 0.28747 0.38877 0.0
H64 H 0.99555 0.31083 0.35092 0.0
H65 H 0.04345 0.32581 0.36333 0.0
H66 H 0.9936 0.3387 0.34767 0.0
H67 H 0.04066 0.35351 0.36008 0.0
H68 H 0.98474 0.30002 0.42586 0.0
H69 H 0.97525 0.29159 0.36564 0.0
H70 H 1.00207 0.2873 0.41073 0.0
H71 H 0.95838 0.3042 0.38156 0.0
H72 H 0.97853 0.29009 0.30421 0.0
H73 H 0.95512 0.25625 0.33107 0.0
H74 H 0.03652 0.3372 0.43162 0.0
H75 H 0.99643 0.3442 0.40193 0.0
H76 H 0.99915 0.2388 0.36034 0.0
H77 H 0.02017 0.26614 0.32664 0.0
H78 H 0.98477 0.21939 0.33688 0.0
H79 H 0.0054 0.24622 0.30377 0.0
H80 H 0.05705 0.27253 0.38462 0.0
H81 H 0.02812 0.28525 0.41845 0.0
H82 H 0.06929 0.25841 0.40529 0.0
H83 H 0.04081 0.27085 0.4385 0.0
H84 H 0.08388 0.30912 0.35379 0.0
H85 H 0.06446 0.26103 0.33006 0.0
H86 H 0.98896 0.2347 0.41379 0.0
H87 H 0.02681 0.21933 0.39539 0.0
Li88 Li 0.0414 0.76035 0.6536 0.0
Li89 Li 0.05187 0.7489 0.67514 0.0
Li90 Li 0.03986 0.73147 0.65155 0.0
Li91 Li 0.02567 0.74447 0.67091 0.0
C92 C 0.06242 0.74801 0.63822 0.0
N93 N 0.07142 0.74673 0.60787 0.0
C94 C 0.07752 0.7486 0.63681 0.0
C95 C 0.05189 0.74665 0.62414 0.0
C96 C 0.08185 0.74797 0.62138 0.0
C97 C 0.05666 0.74605 0.60893 0.0
C98 C 0.04638 0.77514 0.69034 0.0
C99 C 0.04912 0.78333 0.71932 0.0
N100 N 0.06096 0.79499 0.71834 0.0
C101 C 0.0585 0.78726 0.68956 0.0
C102 C 0.04157 0.77319 0.70528 0.0
C103 C 0.06576 0.79715 0.70389 0.0
C104 C 0.02927 0.78359 0.64004 0.0
N105 N 0.0422 0.77804 0.64282 0.0
C106 C 0.05553 0.79921 0.63134 0.0
C107 C 0.05525 0.78556 0.63886 0.0
C108 C 0.04232 0.80527 0.6283 0.0
C109 C 0.02907 0.7973 0.63276 0.0
H110 H 0.0192 0.77745 0.64374 0.0
H111 H 0.06544 0.78107 0.64166 0.0
C112 C 0.06896 0.75134 0.70739 0.0
N113 N 0.06907 0.75329 0.69147 0.0
C114 C 0.08246 0.75269 0.71787 0.0
C115 C 0.09573 0.75967 0.69575 0.0
C116 C 0.08206 0.75814 0.68578 0.0
C117 C 0.09599 0.75625 0.71177 0.0
H118 H 0.05846 0.74816 0.71181 0.0
H119 H 0.08181 0.76039 0.67333 0.0
C120 C 0.01014 0.73768 0.63663 0.0
N121 N 0.98316 0.72605 0.61626 0.0
C122 C 0.9996 0.72564 0.64086 0.0
C123 C 0.00693 0.74384 0.62207 0.0
C124 C 0.98603 0.71992 0.63039 0.0
C125 C 0.99324 0.73779 0.61192 0.0
C126 C 0.04484 0.72118 0.68619 0.0
C127 C 0.05793 0.71555 0.68395 0.0
C128 C 0.03909 0.71978 0.70074 0.0
C129 C 0.06514 0.70873 0.69637 0.0
C130 C 0.0466 0.71282 0.71286 0.0
N131 N 0.05937 0.70751 0.71044 0.0
C132 C 0.05379 0.70878 0.63698 0.0
C133 C 0.0281 0.70563 0.62588 0.0
C134 C 0.05542 0.69605 0.62592 0.0
N135 N 0.04029 0.71327 0.6368 0.0
C136 C 0.02925 0.69294 0.61448 0.0
C137 C 0.04306 0.68801 0.61441 0.0
H138 H 0.06339 0.71531 0.64551 0.0
H139 H 0.01756 0.70949 0.62575 0.0
C140 C 1.00258 0.75737 0.67999 0.0
N141 N 0.00805 0.74369 0.67965 0.0
C142 C 0.98992 0.75865 0.6871 0.0
C143 C 0.98866 0.73158 0.69313 0.0
C144 C 1.00134 0.73079 0.68577 0.0
C145 C 0.98292 0.7457 0.69391 0.0
H146 H 0.00826 0.76737 0.67497 0.0
H147 H 0.00587 0.71998 0.68501 0.0
O148 O 0.05807 0.74837 0.65332 0.0
O149 O 0.03923 0.76524 0.67651 0.0
O150 O 0.02348 0.74353 0.64673 0.0
O151 O 0.0376 0.72786 0.67415 0.0
H152 H 0.08584 0.74941 0.64751 0.0
H153 H 0.04016 0.74604 0.62486 0.0
H154 H 0.09351 0.74843 0.62015 0.0
H155 H 0.04862 0.74502 0.59795 0.0
H156 H 0.04559 0.78191 0.731 0.0
H157 H 0.06232 0.7889 0.67805 0.0
H158 H 0.0322 0.76384 0.70604 0.0
H159 H 0.07521 0.80653 0.70351 0.0
H160 H 0.06595 0.80494 0.628 0.0
H161 H 0.01873 0.80178 0.631 0.0
H162 H 0.0823 0.75016 0.73025 0.0
H163 H 0.106 0.76292 0.69082 0.0
H164 H 1.00199 0.72057 0.65195 0.0
H165 H 0.01495 0.75317 0.6186 0.0
H166 H 0.9778 0.71055 0.63347 0.0
H167 H 0.99063 0.74242 0.6006 0.0
H168 H 0.06264 0.71672 0.67288 0.0
H169 H 0.0291 0.72423 0.70281 0.0
H170 H 0.07536 0.70447 0.69484 0.0
H171 H 0.04232 0.71174 0.72421 0.0
H172 H 0.06624 0.69257 0.62642 0.0
H173 H 0.01949 0.68727 0.60563 0.0
H174 H 0.98591 0.7698 0.68767 0.0
H175 H 0.98341 0.72132 0.69814 0.0
Li176 Li 0.50899 0.78417 0.86123 0.0
Li177 Li 0.52132 0.7996 0.88684 0.0
Li178 Li 0.53641 0.78821 0.86822 0.0
Li179 Li 0.52057 0.77217 0.88376 0.0
C180 C 0.52561 0.81065 0.85047 0.0
N181 N 0.52988 0.82301 0.822 0.0
C182 C 0.5286 0.82716 0.85051 0.0
C183 C 0.52474 0.80042 0.83597 0.0
C184 C 0.53074 0.83318 0.83599 0.0
C185 C 0.52694 0.8069 0.8217 0.0
C186 C 0.4937 0.78918 0.89174 0.0
C187 C 0.4869 0.7983 0.91764 0.0
N188 N 0.47521 0.80359 0.90968 0.0
C189 C 0.48151 0.79455 0.88383 0.0
C190 C 0.49633 0.79091 0.90879 0.0
C191 C 0.47233 0.80185 0.89311 0.0
C192 C 0.48497 0.76721 0.83744 0.0
N193 N 0.49264 0.78197 0.84427 0.0
C194 C 0.47454 0.79422 0.82981 0.0
C195 C 0.48788 0.79539 0.84044 0.0
C196 C 0.46609 0.77907 0.82309 0.0
C197 C 0.47173 0.76548 0.82658 0.0
H198 H 0.48866 0.75674 0.84096 0.0
H199 H 0.49398 0.80698 0.8464 0.0
C200 C 0.52805 0.82077 0.91652 0.0
N201 N 0.52027 0.81771 0.90112 0.0
C202 C 0.52597 0.8335 0.92735 0.0
C203 C 0.50815 0.83973 0.9061 0.0
C204 C 0.51068 0.827 0.89566 0.0
C205 C 0.51577 0.84305 0.92222 0.0
H206 H 0.53568 0.81321 0.92043 0.0
H207 H 0.50466 0.82417 0.88332 0.0
C208 C 0.51832 0.75455 0.84947 0.0
N209 N 0.51062 0.72678 0.82738 0.0
C210 C 0.5087 0.74126 0.85293 0.0
C211 C 0.52408 0.75365 0.83478 0.0
C212 C 0.50492 0.72735 0.8416 0.0
C213 C 0.52003 0.73952 0.82377 0.0
C214 C 0.54587 0.78164 0.90347 0.0
C215 C 0.55846 0.77555 0.90007 0.0
C216 C 0.5406 0.77959 0.91819 0.0
C217 C 0.56539 0.76722 0.9113 0.0
C218 C 0.54783 0.77119 0.9291 0.0
N219 N 0.55996 0.76521 0.92545 0.0
C220 C 0.56116 0.80389 0.85514 0.0
C221 C 0.55851 0.77591 0.85508 0.0
C222 C 0.57325 0.80406 0.8466 0.0
N223 N 0.55396 0.78989 0.85889 0.0
C224 C 0.57055 0.77553 0.84667 0.0
C225 C 0.57795 0.7897 0.84217 0.0
H226 H 0.55735 0.81485 0.85848 0.0
H227 H 0.55255 0.765 0.8583 0.0
C228 C 0.50699 0.7504 0.90206 0.0
N229 N 0.51851 0.75356 0.89355 0.0
C230 C 0.50449 0.73622 0.90865 0.0
C231 C 0.52569 0.72876 0.89738 0.0
C232 C 0.52783 0.74315 0.89108 0.0
C233 C 0.51386 0.7252 0.90624 0.0
H234 H 0.49954 0.75871 0.90344 0.0
H235 H 0.53673 0.74595 0.88397 0.0
O236 O 0.52363 0.80463 0.86464 0.0
O237 O 0.50298 0.78224 0.88284 0.0
O238 O 0.52234 0.76825 0.86051 0.0
O239 O 0.53874 0.78954 0.89245 0.0
H240 H 0.52929 0.83522 0.86166 0.0
H241 H 0.52232 0.78764 0.83574 0.0
H242 H 0.53309 0.84594 0.83583 0.0
H243 H 0.5263 0.79912 0.81039 0.0
H244 H 0.48892 0.79987 0.93083 0.0
H245 H 0.47916 0.79314 0.87068 0.0
H246 H 0.50568 0.78683 0.91515 0.0
H247 H 0.46292 0.80614 0.88713 0.0
H248 H 0.47047 0.80502 0.82769 0.0
H249 H 0.46564 0.75358 0.82153 0.0
H250 H 0.53229 0.83583 0.93957 0.0
H251 H 0.50005 0.84665 0.90169 0.0
H252 H 0.50386 0.74177 0.86404 0.0
H253 H 0.53162 0.76371 0.83188 0.0
H254 H 0.4974 0.71704 0.84409 0.0
H255 H 0.52439 0.73869 0.81236 0.0
H256 H 0.56282 0.77718 0.88887 0.0
H257 H 0.5309 0.78424 0.92106 0.0
H258 H 0.57508 0.76236 0.90877 0.0
H259 H 0.54377 0.76938 0.94045 0.0
H260 H 0.5788 0.81522 0.84344 0.0
H261 H 0.57374 0.76419 0.84331 0.0
H262 H 0.49511 0.73374 0.91521 0.0
H263 H 0.53316 0.72052 0.89536 0.0
Li264 Li 0.54158 0.26317 0.15581 0.0
Li265 Li 0.55146 0.24897 0.17708 0.0
Li266 Li 0.5368 0.23405 0.15117 0.0
Li267 Li 0.52517 0.24706 0.17177 0.0
C268 C 0.56544 0.25007 0.14326 0.0
N269 N 0.58399 0.25189 0.11978 0.0
C270 C 0.58101 0.25398 0.14787 0.0
C271 C 0.55933 0.24694 0.12672 0.0
C272 C 0.5902 0.25491 0.13581 0.0
C273 C 0.56888 0.24794 0.11503 0.0
C274 C 0.54909 0.27685 0.19239 0.0
C275 C 0.5587 0.28295 0.22119 0.0
N276 N 0.56693 0.29695 0.2186 0.0
C277 C 0.55755 0.29137 0.19004 0.0
C278 C 0.54957 0.27265 0.20811 0.0
C279 C 0.56653 0.30134 0.20344 0.0
C280 C 0.53284 0.28923 0.14406 0.0
N281 N 0.54472 0.28185 0.14642 0.0
C282 C 0.5604 0.30238 0.13633 0.0
C283 C 0.55837 0.28812 0.14286 0.0
C284 C 0.54831 0.31025 0.13374 0.0
C285 C 0.53439 0.30356 0.13767 0.0
H286 H 0.52219 0.28395 0.14723 0.0
H287 H 0.56773 0.28226 0.14536 0.0
C288 C 0.56898 0.23823 0.20233 0.0
N289 N 0.5683 0.24989 0.19273 0.0
C290 C 0.58185 0.2389 0.21356 0.0
C291 C 0.59275 0.26373 0.20495 0.0
C292 C 0.57982 0.26244 0.19376 0.0
C293 C 0.5939 0.25177 0.21488 0.0
H294 H 0.55966 0.22831 0.20106 0.0
H295 H 0.57899 0.27134 0.1857 0.0
C296 C 0.51303 0.2457 0.13325 0.0
N297 N 0.49463 0.24044 0.10333 0.0
C298 C 0.49844 0.23684 0.1314 0.0
C299 C 0.51816 0.25212 0.11992 0.0
C300 C 0.48934 0.23425 0.11616 0.0
C301 C 0.50871 0.24927 0.10489 0.0
C302 C 0.52653 0.21892 0.18044 0.0
C303 C 0.51723 0.20565 0.17068 0.0
C304 C 0.52578 0.22171 0.19709 0.0
C305 C 0.50718 0.19543 0.17776 0.0
C306 C 0.51555 0.21124 0.2037 0.0
N307 N 0.50654 0.19843 0.19397 0.0
C308 C 0.54879 0.20955 0.1383 0.0
C309 C 0.52562 0.21076 0.12251 0.0
C310 C 0.55069 0.19692 0.12729 0.0
N311 N 0.5365 0.21626 0.13565 0.0
C312 C 0.52708 0.19816 0.11115 0.0
C313 C 0.5398 0.19116 0.11343 0.0
H314 H 0.55722 0.21421 0.14891 0.0
H315 H 0.51593 0.21619 0.12067 0.0
C316 C 0.50889 0.25885 0.19412 0.0
N317 N 0.508 0.24667 0.18194 0.0
C318 C 0.49709 0.25948 0.20283 0.0
C319 C 0.48333 0.23523 0.18595 0.0
C320 C 0.49555 0.23497 0.17767 0.0
C321 C 0.48404 0.24764 0.19873 0.0
H322 H 0.51879 0.2681 0.19715 0.0
H323 H 0.49515 0.22539 0.16796 0.0
O324 O 0.55633 0.24921 0.15496 0.0
O325 O 0.54033 0.26684 0.17939 0.0
O326 O 0.52206 0.24837 0.14812 0.0
O327 O 0.53633 0.22912 0.17371 0.0
H328 H 0.58596 0.25633 0.16061 0.0
H329 H 0.54736 0.24361 0.12292 0.0
H330 H 0.60226 0.258 0.13921 0.0
H331 H 0.56429 0.24553 0.10218 0.0
H332 H 0.55927 0.27979 0.23339 0.0
H333 H 0.55726 0.29488 0.17801 0.0
H334 H 0.5431 0.26146 0.21015 0.0
H335 H 0.5732 0.31257 0.20179 0.0
H336 H 0.57135 0.30736 0.13363 0.0
H337 H 0.5248 0.30927 0.1357 0.0
H338 H 0.58247 0.22942 0.22098 0.0
H339 H 0.60198 0.27363 0.20539 0.0
H340 H 0.49422 0.23188 0.14156 0.0
H341 H 0.52926 0.2593 0.12114 0.0
H342 H 0.47807 0.2273 0.11454 0.0
H343 H 0.51257 0.25411 0.09447 0.0
H344 H 0.51769 0.20333 0.15777 0.0
H345 H 0.53291 0.23196 0.20479 0.0
H346 H 0.49985 0.18515 0.17035 0.0
H347 H 0.51476 0.21332 0.21654 0.0
H348 H 0.56054 0.19168 0.12965 0.0
H349 H 0.51848 0.19415 0.10055 0.0
H350 H 0.49829 0.26911 0.21277 0.0
H351 H 0.47342 0.22594 0.18227 0.0
Li352 Li 0.04696 0.79501 0.11693 0.0
Li353 Li 0.06164 0.78178 0.13757 0.0
Li354 Li 0.04393 0.76533 0.11398 0.0
Li355 Li 0.03388 0.77878 0.13678 0.0
C356 C 0.07013 0.78018 0.10139 0.0
N357 N 0.08581 0.77596 0.07573 0.0
C358 C 0.08433 0.77625 0.10408 0.0
C359 C 0.06401 0.78221 0.08572 0.0
C360 C 0.09205 0.77409 0.09093 0.0
C361 C 0.07209 0.77996 0.07289 0.0
C362 C 0.05636 0.80787 0.15608 0.0
C363 C 0.06043 0.81205 0.18549 0.0
N364 N 0.07056 0.82565 0.18542 0.0
C365 C 0.06668 0.82196 0.15628 0.0
C366 C 0.0531 0.80292 0.17077 0.0
C367 C 0.07379 0.83075 0.17125 0.0
C368 C 0.0341 0.81561 0.09741 0.0
N369 N 0.04709 0.81361 0.10613 0.0
C370 C 0.05979 0.83891 0.10088 0.0
C371 C 0.05985 0.82483 0.10783 0.0
C372 C 0.04648 0.84143 0.09188 0.0
C373 C 0.03358 0.82935 0.09004 0.0
H374 H 0.02406 0.8066 0.09631 0.0
H375 H 0.07005 0.82298 0.11486 0.0
C376 C 0.08382 0.76867 0.15542 0.0
N377 N 0.08108 0.78246 0.15023 0.0
C378 C 0.09801 0.76784 0.16341 0.0
C379 C 0.10656 0.79537 0.16037 0.0
C380 C 0.09214 0.79568 0.15247 0.0
C381 C 0.10973 0.78126 0.16591 0.0
H382 H 0.07508 0.75812 0.15303 0.0
H383 H 0.08992 0.80635 0.1477 0.0
C384 C 0.01608 0.77172 0.10099 0.0
N385 N 0.99201 0.7578 0.07706 0.0
C386 C 1.00274 0.76395 0.10525 0.0
C387 C 0.01712 0.77254 0.08456 0.0
C388 C 0.99072 0.75694 0.09298 0.0
C389 C 0.00485 0.7654 0.07264 0.0
C390 C 0.043 0.7513 0.14726 0.0
C391 C 0.03543 0.73581 0.14087 0.0
C392 C 0.04702 0.75553 0.16414 0.0
C393 C 0.03183 0.72484 0.1515 0.0
C394 C 0.04323 0.74421 0.17438 0.0
N395 N 0.03576 0.72923 0.1679 0.0
C396 C 0.05436 0.74012 0.09716 0.0
C397 C 0.02789 0.73593 0.09438 0.0
C398 C 0.05363 0.72487 0.08884 0.0
N399 N 0.04161 0.74541 0.09973 0.0
C400 C 0.02664 0.72051 0.0862 0.0
C401 C 0.03964 0.71476 0.08348 0.0
H402 H 0.06516 0.7474 0.10223 0.0
H403 H 0.0179 0.73994 0.09716 0.0
C404 C 0.01289 0.79141 0.15395 0.0
N405 N 0.01732 0.77758 0.14899 0.0
C406 C 1.00025 0.79119 0.16172 0.0
C407 C 0.99698 0.76249 0.15934 0.0
C408 C 0.00961 0.76326 0.15152 0.0
C409 C 0.99205 0.77656 0.16447 0.0
H410 H 0.01907 0.80264 0.15162 0.0
H411 H 0.0129 0.75235 0.147 0.0
O412 O 0.06233 0.78205 0.11408 0.0
O413 O 0.04942 0.79901 0.14156 0.0
O414 O 0.02795 0.77866 0.11287 0.0
O415 O 0.04661 0.76219 0.13702 0.0
H416 H 0.08924 0.7747 0.11618 0.0
H417 H 0.05316 0.78552 0.08351 0.0
H418 H 0.10299 0.77091 0.09279 0.0
H419 H 0.06745 0.78142 0.06067 0.0
H420 H 0.05806 0.80833 0.19696 0.0
H421 H 0.06926 0.82599 0.145 0.0
H422 H 0.04496 0.79219 0.17081 0.0
H423 H 0.08189 0.84163 0.1716 0.0
H424 H 0.06999 0.84785 0.10291 0.0
H425 H 0.02311 0.83045 0.08299 0.0
H426 H 0.09976 0.75673 0.16754 0.0
H427 H 0.11524 0.80595 0.16166 0.0
H428 H 1.00168 0.76326 0.11788 0.0
H429 H 0.02728 0.77862 0.08102 0.0
H430 H 0.98036 0.75082 0.09611 0.0
H431 H 0.00552 0.76591 0.05988 0.0
H432 H 0.03229 0.73231 0.12784 0.0
H433 H 0.05311 0.76738 0.16927 0.0
H434 H 0.02591 0.71283 0.14672 0.0
H435 H 0.04626 0.74732 0.18747 0.0
H436 H 0.06394 0.72075 0.08732 0.0
H437 H 0.01564 0.71303 0.08234 0.0
H438 H 0.99695 0.80236 0.16555 0.0
H439 H 0.99087 0.75092 0.16088 0.0
Li440 Li 0.51194 0.76793 0.41736 0.0
Li441 Li 0.49408 0.75223 0.39537 0.0
Li442 Li 0.50917 0.7392 0.41704 0.0
Li443 Li 0.52204 0.75401 0.39651 0.0
C444 C 0.48747 0.75907 0.43145 0.0
N445 N 0.47527 0.77303 0.45657 0.0
C446 C 0.47949 0.77122 0.42887 0.0
C447 C 0.48914 0.75388 0.44672 0.0
C448 C 0.47345 0.77818 0.44176 0.0
C449 C 0.4829 0.76112 0.45929 0.0
C450 C 0.50829 0.77399 0.37815 0.0
C451 C 0.50706 0.76529 0.3494 0.0
N452 N 0.50468 0.77986 0.34614 0.0
C453 C 0.50581 0.78888 0.37448 0.0
C454 C 0.50886 0.76209 0.36548 0.0
C455 C 0.50401 0.79161 0.35824 0.0
C456 C 0.51739 0.80118 0.42255 0.0
N457 N 0.51499 0.78854 0.43091 0.0
C458 C 0.51495 0.8062 0.45532 0.0
C459 C 0.51409 0.7908 0.44714 0.0
C460 C 0.51659 0.8193 0.44665 0.0
C461 C 0.51807 0.81666 0.43013 0.0
H462 H 0.51859 0.79924 0.40987 0.0
H463 H 0.5124 0.78069 0.45371 0.0
C464 C 0.4648 0.73734 0.37714 0.0
N465 N 0.47467 0.75128 0.3827 0.0
C466 C 0.45036 0.73748 0.36913 0.0
C467 C 0.4566 0.76625 0.37258 0.0
C468 C 0.47078 0.76556 0.38064 0.0
C469 C 0.446 0.75211 0.3668 0.0
H470 H 0.468 0.72612 0.37922 0.0
H471 H 0.47864 0.77651 0.38554 0.0
C472 C 0.53761 0.76555 0.43256 0.0
N473 N 0.55621 0.78709 0.45714 0.0
C474 C 0.54824 0.77773 0.42872 0.0
C475 C 0.53644 0.76431 0.4489 0.0
C476 C 0.55753 0.78852 0.44132 0.0
C477 C 0.54596 0.77531 0.46115 0.0
C478 C 0.50589 0.72111 0.38229 0.0
C479 C 0.51425 0.71008 0.38771 0.0
C480 C 0.49769 0.71809 0.36653 0.0
C481 C 0.5145 0.69633 0.37713 0.0
C482 C 0.49823 0.70421 0.35633 0.0
N483 N 0.50657 0.69372 0.36179 0.0
C484 C 0.49679 0.70835 0.42407 0.0
C485 C 0.52112 0.71943 0.43843 0.0
C486 C 0.49688 0.69417 0.43081 0.0
N487 N 0.50883 0.7206 0.4279 0.0
C488 C 0.5216 0.70559 0.44564 0.0
C489 C 0.50945 0.69255 0.44174 0.0
H490 H 0.48726 0.70945 0.41542 0.0
H491 H 0.53071 0.72913 0.44101 0.0
C492 C 0.5454 0.76872 0.38059 0.0
N493 N 0.53891 0.75454 0.3847 0.0
C494 C 0.5582 0.76985 0.37303 0.0
C495 C 0.55758 0.74181 0.37413 0.0
C496 C 0.54481 0.74124 0.38171 0.0
C497 C 0.56453 0.75629 0.36973 0.0
H498 H 0.54075 0.77925 0.38341 0.0
H499 H 0.53986 0.73024 0.38555 0.0
O500 O 0.49346 0.75209 0.41903 0.0
O501 O 0.50984 0.77109 0.39403 0.0
O502 O 0.52824 0.75507 0.42038 0.0
O503 O 0.50534 0.73456 0.39251 0.0
H504 H 0.4781 0.77533 0.4171 0.0
H505 H 0.49526 0.74443 0.44885 0.0
H506 H 0.46733 0.78768 0.44 0.0
H507 H 0.48415 0.7573 0.4712 0.0
H508 H 0.50755 0.75619 0.33952 0.0
H509 H 0.50505 0.7982 0.38403 0.0
H510 H 0.51083 0.75056 0.368 0.0
H511 H 0.50204 0.80306 0.35525 0.0
H512 H 0.51385 0.80778 0.46813 0.0
H513 H 0.51968 0.8265 0.42311 0.0
H514 H 0.4426 0.72623 0.36519 0.0
H515 H 0.45401 0.77783 0.37093 0.0
H516 H 0.54922 0.77892 0.41614 0.0
H517 H 0.52806 0.75517 0.45209 0.0
H518 H 0.56578 0.79804 0.43853 0.0
H519 H 0.54511 0.77455 0.47384 0.0
H520 H 0.52062 0.71219 0.39988 0.0
H521 H 0.49097 0.72639 0.36222 0.0
H522 H 0.52102 0.68775 0.38112 0.0
H523 H 0.492 0.70177 0.34408 0.0
H524 H 0.48734 0.68444 0.42711 0.0
H525 H 0.53146 0.70515 0.45414 0.0
H526 H 0.56307 0.78125 0.36979 0.0
H527 H 0.5622 0.73111 0.37217 0.0
Li528 Li 0.54897 0.29608 0.61575 0.0
Li529 Li 0.5634 0.2828 0.63671 0.0
Li530 Li 0.54627 0.26685 0.61369 0.0
Li531 Li 0.53582 0.2799 0.63559 0.0
C532 C 0.56974 0.27603 0.60029 0.0
N533 N 0.57895 0.25991 0.57413 0.0
C534 C 0.58057 0.26663 0.60295 0.0
C535 C 0.56366 0.27734 0.58437 0.0
C536 C 0.58506 0.25854 0.58954 0.0
C537 C 0.56846 0.26907 0.57129 0.0
C538 C 0.55935 0.30976 0.65385 0.0
C539 C 0.56694 0.3154 0.683 0.0
N540 N 0.5761 0.32912 0.68113 0.0
C541 C 0.56876 0.32394 0.65219 0.0
C542 C 0.55835 0.30546 0.66934 0.0
C543 C 0.57717 0.33356 0.66615 0.0
C544 C 0.53659 0.32162 0.60522 0.0
N545 N 0.54886 0.31475 0.60519 0.0
C546 C 0.56049 0.33496 0.59094 0.0
C547 C 0.56072 0.32111 0.59827 0.0
C548 C 0.54795 0.34237 0.59075 0.0
C549 C 0.53589 0.33546 0.59805 0.0
H550 H 0.52735 0.31637 0.61091 0.0
H551 H 0.57037 0.31545 0.59845 0.0
C552 C 0.58499 0.27008 0.65591 0.0
N553 N 0.58264 0.28362 0.64985 0.0
C554 C 0.59908 0.2692 0.66414 0.0
C555 C 0.60826 0.29618 0.65971 0.0
C556 C 0.59396 0.29655 0.65156 0.0
C557 C 0.61106 0.2823 0.66604 0.0
H558 H 0.57602 0.25976 0.65399 0.0
H559 H 0.59203 0.30699 0.64615 0.0
C560 C 0.51972 0.27263 0.59839 0.0
N561 N 0.49854 0.25853 0.57162 0.0
C562 C 0.50926 0.25898 0.59939 0.0
C563 C 0.5194 0.27915 0.5838 0.0
C564 C 0.49865 0.25202 0.58571 0.0
C565 C 0.5086 0.27184 0.5704 0.0
C566 C 0.54268 0.25295 0.64631 0.0
C567 C 0.53295 0.23867 0.63932 0.0
C568 C 0.54658 0.25638 0.66326 0.0
C569 C 0.52719 0.22809 0.64946 0.0
C570 C 0.54059 0.24548 0.67298 0.0
N571 N 0.5311 0.23169 0.66593 0.0
C572 C 0.55265 0.23675 0.60677 0.0
C573 C 0.53672 0.24249 0.58442 0.0
C574 C 0.55229 0.22149 0.59877 0.0
N575 N 0.54471 0.24682 0.59972 0.0
C576 C 0.53592 0.22721 0.576 0.0
C577 C 0.54369 0.21644 0.58325 0.0
H578 H 0.55917 0.24053 0.6188 0.0
H579 H 0.53096 0.25078 0.57868 0.0
C580 C 0.51715 0.29258 0.65646 0.0
N581 N 0.51908 0.27901 0.64755 0.0
C582 C 0.50458 0.29255 0.66433 0.0
C583 C 0.49618 0.2646 0.65379 0.0
C584 C 0.50884 0.26519 0.64607 0.0
C585 C 0.49383 0.27841 0.66303 0.0
H586 H 0.52526 0.30352 0.65725 0.0
H587 H 0.51026 0.25465 0.63861 0.0
O588 O 0.56481 0.28356 0.61322 0.0
O589 O 0.55118 0.30009 0.64034 0.0
O590 O 0.53008 0.27975 0.61168 0.0
O591 O 0.54853 0.26341 0.63659 0.0
H592 H 0.5853 0.26545 0.61524 0.0
H593 H 0.5552 0.2845 0.58215 0.0
H594 H 0.59336 0.25113 0.5914 0.0
H595 H 0.56379 0.26988 0.55889 0.0
H596 H 0.5663 0.31221 0.69507 0.0
H597 H 0.56962 0.32741 0.64025 0.0
H598 H 0.551 0.29459 0.6708 0.0
H599 H 0.58457 0.34454 0.66508 0.0
H600 H 0.56999 0.3397 0.58533 0.0
H601 H 0.52608 0.34081 0.59849 0.0
H602 H 0.60055 0.25828 0.66889 0.0
H603 H 0.61715 0.3065 0.66056 0.0
H604 H 0.50944 0.25371 0.61052 0.0
H605 H 0.52741 0.28972 0.58283 0.0
H606 H 0.49053 0.24141 0.58629 0.0
H607 H 0.50823 0.27672 0.55902 0.0
H608 H 0.52966 0.2359 0.62624 0.0
H609 H 0.55421 0.26729 0.66885 0.0
H610 H 0.51958 0.21704 0.64422 0.0
H611 H 0.54351 0.24798 0.68612 0.0
H612 H 0.5584 0.21359 0.60489 0.0
H613 H 0.52938 0.22391 0.56391 0.0
H614 H 0.50331 0.30348 0.67139 0.0
H615 H 0.48809 0.2535 0.65213 0.0
Li616 Li 0.01157 0.26717 0.91931 0.0
Li617 Li 0.99475 0.25149 0.89558 0.0
Li618 Li 0.00897 0.23781 0.91641 0.0
Li619 Li 0.02195 0.25309 0.89705 0.0
C620 C 0.98621 0.25023 0.93237 0.0
N621 N 0.972 0.24914 0.95949 0.0
C622 C 0.97114 0.25156 0.9312 0.0
C623 C 0.99399 0.24816 0.94728 0.0
C624 C 0.96418 0.25106 0.94507 0.0
C625 C 0.98663 0.24766 0.96086 0.0
C626 C 0.00425 0.27941 0.88588 0.0
C627 C 0.99588 0.28408 0.85856 0.0
N628 N 0.99034 0.29676 0.86479 0.0
C629 C 0.99855 0.29253 0.89203 0.0
C630 C 1.00298 0.27518 0.86903 0.0
C631 C 0.99153 0.30113 0.88116 0.0
C632 C 0.02643 0.29835 0.93351 0.0
N633 N 0.01385 0.28721 0.93322 0.0
C634 C 1.00286 0.30653 0.94795 0.0
C635 C 1.0022 0.291 0.94035 0.0
C636 C 0.01565 0.31837 0.94827 0.0
C637 C 0.02769 0.31393 0.94123 0.0
H638 H 0.03525 0.29538 0.9271 0.0
H639 H 0.99202 0.28227 0.9394 0.0
C640 C 0.96966 0.24092 0.86896 0.0
N641 N 0.97565 0.25145 0.88266 0.0
C642 C 0.95558 0.24157 0.86038 0.0
C643 C 0.95415 0.26382 0.88018 0.0
C644 C 0.96818 0.26273 0.88834 0.0
C645 C 0.9476 0.25316 0.86597 0.0
H646 H 0.97575 0.23198 0.86471 0.0
H647 H 0.9731 0.27086 0.89936 0.0
C648 C 0.03953 0.26365 0.93174 0.0
N649 N 0.06284 0.28348 0.95308 0.0
C650 C 0.05184 0.27179 0.92585 0.0
C651 C 0.03919 0.26551 0.94854 0.0
C652 C 0.06349 0.28177 0.93682 0.0
C653 C 0.05104 0.27562 0.95911 0.0
C654 C 0.01023 0.22407 0.88018 0.0
C655 C 0.01711 0.2115 0.88434 0.0
C656 C 0.00841 0.22706 0.86402 0.0
C657 C 0.02222 0.2022 0.87224 0.0
C658 C 0.01368 0.2175 0.85228 0.0
N659 N 0.02042 0.20538 0.85659 0.0
C660 C 0.99774 0.206 0.92161 0.0
C661 C 0.01971 0.21914 0.93965 0.0
C662 C 0.99795 0.19194 0.92854 0.0
N663 N 0.00858 0.21919 0.92716 0.0
C664 C 0.02028 0.20541 0.94703 0.0
C665 C 0.00941 0.19144 0.94139 0.0
H666 H 0.98911 0.2063 0.91153 0.0
H667 H 0.02827 0.22973 0.94376 0.0
C668 C 0.042 0.2663 0.87636 0.0
N669 N 0.03853 0.25399 0.88494 0.0
C670 C 0.0546 0.26758 0.86844 0.0
C671 C 0.05987 0.24351 0.87831 0.0
C672 C 0.04726 0.24278 0.88615 0.0
C673 C 0.06375 0.25607 0.86933 0.0
H674 H 0.03515 0.27532 0.87591 0.0
H675 H 0.04461 0.23343 0.89351 0.0
O676 O 0.99324 0.25088 0.91895 0.0
O677 O 0.01094 0.27068 0.89631 0.0
O678 O 0.02794 0.25392 0.92116 0.0
O679 O 0.0053 0.23339 0.89188 0.0
H680 H 0.96489 0.25302 0.91973 0.0
H681 H 0.00554 0.24686 0.94833 0.0
H682 H 0.95255 0.25217 0.94436 0.0
H683 H 0.99253 0.24608 0.97248 0.0
H684 H 0.99478 0.28091 0.84548 0.0
H685 H 0.99941 0.29596 0.90503 0.0
H686 H 0.00738 0.2651 0.86409 0.0
H687 H 0.987 0.31127 0.88573 0.0
H688 H 0.99311 0.30934 0.9528 0.0
H689 H 0.03788 0.32248 0.94127 0.0
H690 H 0.95108 0.23317 0.84943 0.0
H691 H 0.94839 0.27277 0.88517 0.0
H692 H 0.05237 0.2706 0.91295 0.0
H693 H 0.02987 0.25931 0.95341 0.0
H694 H 0.07302 0.28821 0.9324 0.0
H695 H 0.05086 0.27721 0.97211 0.0
H696 H 0.01864 0.20905 0.89681 0.0
H697 H 1.00303 0.23667 0.8606 0.0
H698 H 0.02764 0.19249 0.87529 0.0
H699 H 0.0124 0.21972 0.83973 0.0
H700 H 0.98945 0.18148 0.92356 0.0
H701 H 0.0292 0.20578 0.95705 0.0
H702 H 0.05712 0.27745 0.86164 0.0
H703 H 0.06673 0.23454 0.87962 0.0
Li704 Li 0.4144 0.03659 0.27356 0.0
Li705 Li 0.39161 0.01889 0.25427 0.0
Li706 Li 0.41192 0.03483 0.24117 0.0
Li707 Li 0.3932 0.0503 0.25615 0.0
C708 C 0.42231 0.00837 0.25089 0.0
N709 N 0.44071 0.98885 0.23954 0.0
C710 C 0.41615 0.99445 0.24002 0.0
C711 C 0.43779 0.01238 0.25604 0.0
C712 C 0.42566 0.98474 0.2344 0.0
C713 C 0.44692 1.00235 0.25015 0.0
C714 C 0.38134 0.0295 0.28254 0.0
C715 C 0.3559 0.0255 0.28798 0.0
N716 N 0.35961 0.01646 0.29966 0.0
C717 C 0.38495 0.02028 0.29467 0.0
C718 C 0.36674 0.03222 0.2792 0.0
C719 C 0.37379 0.01374 0.30316 0.0
C720 C 0.43268 0.04978 0.30685 0.0
N721 N 0.42711 0.03644 0.29567 0.0
C722 C 0.43696 0.02042 0.31505 0.0
C723 C 0.42925 0.02194 0.29964 0.0
C724 C 0.44282 0.03392 0.32698 0.0
C725 C 0.44052 0.04879 0.32244 0.0
H726 H 0.43094 0.06129 0.30381 0.0
H727 H 0.42467 0.01133 0.2909 0.0
C728 C 0.36697 0.98921 0.24261 0.0
N729 N 0.37911 0.99651 0.25398 0.0
C730 C 0.35966 0.9733 0.24296 0.0
C731 C 0.37708 0.97246 0.26684 0.0
C732 C 0.38417 0.98825 0.2659 0.0
C733 C 0.3646 0.96452 0.25523 0.0
H734 H 0.36291 0.99559 0.23309 0.0
H735 H 0.39395 0.99385 0.27472 0.0
C736 C 0.42818 0.06596 0.2574 0.0
N737 N 0.45201 0.08896 0.25348 0.0
C738 C 0.42561 0.07882 0.24933 0.0
C739 C 0.44283 0.0648 0.26355 0.0
C740 C 0.43783 0.09033 0.24745 0.0
C741 C 0.45474 0.07656 0.26142 0.0
C742 C 0.376 0.02686 0.22605 0.0
C743 C 0.37564 0.01653 0.21175 0.0
C744 C 0.36269 0.0309 0.23004 0.0
C745 C 0.36192 0.01031 0.2017 0.0
C746 C 0.34919 0.02443 0.21968 0.0
N747 N 0.34909 0.01435 0.20585 0.0
C748 C 0.4197 0.02033 0.20963 0.0
C749 C 0.43474 0.04566 0.21896 0.0
C750 C 0.42681 0.01885 0.19557 0.0
N751 N 0.42355 0.03365 0.22115 0.0
C752 C 0.44225 0.04459 0.20515 0.0
C753 C 0.43837 0.03107 0.19293 0.0
H754 H 0.41105 0.01063 0.21127 0.0
H755 H 0.43796 0.05627 0.22786 0.0
C756 C 0.38138 0.0787 0.27127 0.0
N757 N 0.38246 0.07015 0.25674 0.0
C758 C 0.37443 0.0923 0.27196 0.0
C759 C 0.36952 0.08852 0.24279 0.0
C760 C 0.37659 0.07501 0.24263 0.0
C761 C 0.36824 0.09768 0.25761 0.0
H762 H 0.38594 0.07502 0.28253 0.0
H763 H 0.37742 0.06845 0.23104 0.0
O764 O 0.41324 0.01814 0.25633 0.0
O765 O 0.39206 0.03583 0.27397 0.0
O766 O 0.41641 0.05456 0.2593 0.0
O767 O 0.3893 0.03309 0.23606 0.0
H768 H 0.40417 0.99125 0.23588 0.0
H769 H 0.44269 0.02315 0.26444 0.0
H770 H 0.42107 0.97394 0.22594 0.0
H771 H 0.45893 0.00529 0.254 0.0
H772 H 0.34453 0.02747 0.28551 0.0
H773 H 0.39623 0.01813 0.29743 0.0
H774 H 0.36383 0.03949 0.26998 0.0
H775 H 0.37639 0.00651 0.31253 0.0
H776 H 0.43797 0.00857 0.31763 0.0
H777 H 0.44483 0.05972 0.33079 0.0
H778 H 0.35008 0.968 0.23373 0.0
H779 H 0.38164 0.9664 0.27643 0.0
H780 H 0.41431 0.07985 0.24453 0.0
H781 H 0.44495 0.0549 0.26985 0.0
H782 H 0.43604 0.10033 0.2412 0.0
H783 H 0.46615 0.07582 0.26607 0.0
H784 H 0.38582 0.0133 0.20846 0.0
H785 H 0.36279 0.03898 0.24099 0.0
H786 H 0.36148 1.00226 0.19061 0.0
H787 H 0.3388 0.02743 0.22263 0.0
H788 H 0.42334 0.008 0.18695 0.0
H789 H 0.45089 0.05453 0.20396 0.0
H790 H 0.37378 0.09839 0.28384 0.0
H791 H 0.36533 0.09185 0.23121 0.0
Li792 Li 0.26851 0.16381 0.51505 0.0
Li793 Li 0.27797 0.14281 0.50106 0.0
Li794 Li 0.26675 0.16155 0.48526 0.0
Li795 Li 0.25041 0.14087 0.49934 0.0
C796 C 0.2963 0.17879 0.50533 0.0
N797 N 0.31939 0.20513 0.5128 0.0
C798 C 0.31016 0.17755 0.51385 0.0
C799 C 0.29428 0.19334 0.50035 0.0
C800 C 0.32166 0.19103 0.51758 0.0
C801 C 0.30607 0.20654 0.50431 0.0
C802 C 0.27313 0.13878 0.53305 0.0
C803 C 0.27485 0.12514 0.55669 0.0
N804 N 0.28872 0.1342 0.56224 0.0
C805 C 0.2874 0.14792 0.53897 0.0
C806 C 0.26679 0.12728 0.54196 0.0
C807 C 0.2951 0.14545 0.55376 0.0
C808 C 0.25859 0.17492 0.54344 0.0
N809 N 0.2705 0.17773 0.53536 0.0
C810 C 0.28398 0.19715 0.55769 0.0
C811 C 0.28308 0.18864 0.54215 0.0
C812 C 0.27172 0.19459 0.56613 0.0
C813 C 0.25885 0.18345 0.55877 0.0
H814 H 0.24896 0.16576 0.53811 0.0
H815 H 0.29258 0.1905 0.5358 0.0
C816 C 0.30571 0.13658 0.49373 0.0
N817 N 0.29424 0.13122 0.50168 0.0
C818 C 0.31829 0.1294 0.49425 0.0
C819 C 0.30703 0.11115 0.51107 0.0
C820 C 0.29459 0.11862 0.5101 0.0
C821 C 0.3192 0.11657 0.50316 0.0
H822 H 0.30512 0.14655 0.48702 0.0
H823 H 0.28532 0.11446 0.51625 0.0
C824 C 0.24379 0.17569 0.50511 0.0
N825 N 0.23032 0.19916 0.51884 0.0
C826 C 0.23021 0.17154 0.51086 0.0
C827 C 0.25041 0.19177 0.50613 0.0
C828 C 0.2236 0.18358 0.51782 0.0
C829 C 0.24346 0.20346 0.51317 0.0
C830 C 0.26638 0.12407 0.47418 0.0
C831 C 0.27605 0.12513 0.4626 0.0
C832 C 0.26168 0.10942 0.47943 0.0
C833 C 0.28096 0.11146 0.45651 0.0
C834 C 0.26684 0.09602 0.47304 0.0
N835 N 0.2763 0.09731 0.46182 0.0
C836 C 0.27932 0.17253 0.45853 0.0
C837 C 0.25601 0.17985 0.46153 0.0
C838 C 0.28011 0.18021 0.4447 0.0
N839 N 0.26737 0.17243 0.46656 0.0
C840 C 0.25637 0.18776 0.44781 0.0
C841 C 0.26852 0.18798 0.4391 0.0
H842 H 0.28824 0.16659 0.46285 0.0
H843 H 0.24666 0.17965 0.46819 0.0
C844 C 0.22657 0.12604 0.51363 0.0
N845 N 0.23089 0.12813 0.49895 0.0
C846 C 0.21215 0.1179 0.51447 0.0
C847 C 0.20679 0.11412 0.48504 0.0
C848 C 0.22138 0.12231 0.48477 0.0
C849 C 0.20191 0.1119 0.50006 0.0
H850 H 0.23427 0.131 0.52473 0.0
H851 H 0.22502 0.12431 0.47325 0.0
O852 O 0.28492 0.16569 0.50154 0.0
O853 O 0.26535 0.14107 0.51865 0.0
O854 O 0.25053 0.16405 0.49848 0.0
O855 O 0.26191 0.13739 0.48076 0.0
H856 H 0.31204 0.16633 0.51757 0.0
H857 H 0.28379 0.19443 0.49341 0.0
H858 H 0.33241 0.19027 0.52426 0.0
H859 H 0.30463 0.2179 0.50059 0.0
H860 H 0.27008 0.11628 0.56371 0.0
H861 H 0.29243 0.15687 0.53225 0.0
H862 H 0.25578 0.12005 0.5375 0.0
H863 H 0.30614 0.15248 0.55849 0.0
H864 H 0.29414 0.2056 0.56309 0.0
H865 H 0.24929 0.18096 0.56506 0.0
H866 H 0.32716 0.13384 0.48765 0.0
H867 H 0.3072 0.10145 0.51824 0.0
H868 H 0.22488 0.15915 0.51007 0.0
H869 H 0.26084 0.1952 0.50163 0.0
H870 H 0.21314 0.18053 0.52242 0.0
H871 H 0.24851 0.21596 0.51413 0.0
H872 H 0.27985 0.13643 0.4585 0.0
H873 H 0.25428 0.10847 0.48849 0.0
H874 H 0.28852 0.11211 0.44761 0.0
H875 H 0.26337 0.0846 0.47705 0.0
H876 H 0.2896 0.17982 0.43834 0.0
H877 H 0.24729 0.19378 0.44419 0.0
H878 H 0.20907 0.11635 0.52634 0.0
H879 H 0.19931 0.10994 0.4736 0.0
Li880 Li 0.1461 0.0425 0.78618 0.0
Li881 Li 0.12731 0.02523 0.80021 0.0
Li882 Li 0.1443 0.01354 0.78393 0.0
Li883 Li 0.12338 0.02339 0.77002 0.0
C884 C 0.1613 0.02459 0.8128 0.0
N885 N 0.18438 0.01312 0.82938 0.0
C886 C 0.15866 0.01567 0.82545 0.0
C887 C 0.1757 0.02786 0.80872 0.0
C888 C 0.17047 0.00993 0.83366 0.0
C889 C 0.18721 0.0219 0.8172 0.0
C890 C 0.11251 0.04995 0.78739 0.0
C891 C 0.08629 0.04915 0.7886 0.0
N892 N 0.0885 0.06521 0.78853 0.0
C893 C 0.11455 0.06644 0.78736 0.0
C894 C 0.0983 0.04121 0.78802 0.0
C895 C 0.10226 0.07394 0.78792 0.0
C896 C 0.15807 0.0692 0.77266 0.0
N897 N 0.15839 0.06282 0.78681 0.0
C898 C 0.17654 0.08535 0.80078 0.0
C899 C 0.16732 0.07053 0.80076 0.0
C900 C 0.17663 0.0922 0.78626 0.0
C901 C 0.16721 0.08386 0.77207 0.0
H902 H 0.15087 0.06273 0.76175 0.0
H903 H 0.16731 0.06516 0.81185 0.0
C904 C 0.11487 0.00936 0.82409 0.0
N905 N 0.11787 0.02392 0.81909 0.0
C906 C 0.10856 0.00763 0.83825 0.0
C907 C 0.10829 0.03589 0.84173 0.0
C908 C 0.11472 0.0371 0.82754 0.0
C909 C 0.10524 0.02101 0.84732 0.0
H910 H 0.11757 0.99911 0.81715 0.0
H911 H 0.11737 0.04857 0.82337 0.0
C912 C 0.15449 0.02637 0.75574 0.0
N913 N 0.17481 0.02501 0.73423 0.0
C914 C 0.14995 0.01769 0.74013 0.0
C915 C 0.16936 0.03443 0.76038 0.0
C916 C 0.16039 0.01712 0.72944 0.0
C917 C 0.17947 0.03358 0.74934 0.0
C918 C 0.11207 0.99285 0.77736 0.0
C919 C 0.11575 0.98042 0.76733 0.0
C920 C 0.09749 0.99159 0.78095 0.0
C921 C 0.10466 0.96705 0.76075 0.0
C922 C 0.08673 0.97802 0.77415 0.0
N923 N 0.0905 0.96614 0.76426 0.0
C924 C 0.15217 0.98592 0.79398 0.0
C925 C 0.16496 0.99433 0.77274 0.0
C926 C 0.1594 0.97295 0.79461 0.0
N927 N 0.15514 0.99639 0.78327 0.0
C928 C 0.17225 0.98139 0.77275 0.0
C929 C 0.16959 0.97049 0.78384 0.0
H930 H 0.14418 0.9877 0.8021 0.0
H931 H 0.16714 1.00257 0.7642 0.0
C932 C 0.10279 0.03296 0.74613 0.0
N933 N 0.10946 0.0207 0.75014 0.0
C934 C 0.09432 0.03196 0.73073 0.0
C935 C 0.09969 0.00573 0.72376 0.0
C936 C 0.10793 0.00718 0.73936 0.0
C937 C 0.09293 0.01834 0.71914 0.0
H938 H 0.10448 0.04381 0.75461 0.0
H939 H 0.1138 0.99786 0.7425 0.0
O940 O 0.14982 0.03 0.80439 0.0
O941 O 0.12439 0.04244 0.7866 0.0
O942 O 0.14438 0.02716 0.7663 0.0
O943 O 0.12279 0.00598 0.78401 0.0
H944 H 0.14759 0.01308 0.82879 0.0
H945 H 0.17795 0.03485 0.79906 0.0
H946 H 0.16857 1.00292 0.84339 0.0
H947 H 0.19839 0.02425 0.8141 0.0
H948 H 0.07521 0.04254 0.78908 0.0
H949 H 0.12551 0.07334 0.78682 0.0
H950 H 0.09657 0.02845 0.78799 0.0
H951 H 0.10365 0.08669 0.78786 0.0
H952 H 0.18342 0.09139 0.81208 0.0
H953 H 0.16705 0.08842 0.76052 0.0
H954 H 0.10624 0.99591 0.842 0.0
H955 H 0.10606 0.04654 0.84844 0.0
H956 H 0.13851 0.0114 0.7363 0.0
H957 H 0.1731 0.04122 0.77238 0.0
H958 H 0.15703 0.01041 0.71734 0.0
H959 H 0.19101 0.03973 0.75279 0.0
H960 H 0.127 0.98117 0.7645 0.0
H961 H 0.09453 1.00093 0.78898 0.0
H962 H 0.10732 0.9574 0.75286 0.0
H963 H 0.07538 0.9769 0.77678 0.0
H964 H 0.15711 0.96506 0.80355 0.0
H965 H 0.17974 0.97986 0.76396 0.0
H966 H 0.0892 0.04194 0.72783 0.0
H967 H 0.09925 0.99514 0.71519 0.0
Li968 Li 0.23647 0.8656 1.00193 0.0
Li969 Li 0.24526 0.84511 0.0157 0.0
Li970 Li 0.2613 0.86364 0.00365 0.0
Li971 Li 0.2422 0.84345 0.98594 0.0
C972 C 0.26182 0.87761 0.03381 0.0
N973 N 0.28425 0.89629 0.05717 0.0
C974 C 0.26884 0.87086 0.04647 0.0
C975 C 0.26627 0.89392 0.03311 0.0
C976 C 0.28011 0.88049 0.05815 0.0
C977 C 0.27762 0.90314 0.04499 0.0
C978 C 0.21795 0.82806 0.99856 0.0
C979 C 0.21585 0.79948 0.99578 0.0
N980 N 0.20078 0.79774 0.99545 0.0
C981 C 0.20245 0.826 0.99818 0.0
C982 C 0.22472 0.81471 0.99734 0.0
C983 C 0.19396 0.81058 0.99661 0.0
C984 C 0.21055 0.87667 0.99082 0.0
N985 N 0.22287 0.87921 1.00249 0.0
C986 C 0.2158 0.90189 0.01606 0.0
C987 C 0.22559 0.89137 0.01502 0.0
C988 C 0.203 0.89964 0.00418 0.0
C989 C 0.20033 0.88686 0.99144 0.0
H990 H 0.20869 0.86671 0.98112 0.0
H991 H 0.23524 0.89277 0.02434 0.0
C992 C 0.25138 0.82127 0.03329 0.0
N993 N 0.2439 0.83353 0.03301 0.0
C994 C 0.25562 0.81604 0.04801 0.0
C995 C 0.24267 0.83482 0.06135 0.0
C996 C 0.23866 0.83969 0.04632 0.0
C997 C 0.25209 0.82362 0.06242 0.0
H998 H 0.25531 0.81665 0.02242 0.0
H999 H 0.23285 0.84956 0.04559 0.0
C1000 C 0.24325 0.87786 0.97615 0.0
N1001 N 0.23252 0.90158 0.96122 0.0
C1002 C 0.23429 0.87414 0.96081 0.0
C1003 C 0.24699 0.89371 0.98374 0.0
C1004 C 0.22892 0.88629 0.95349 0.0
C1005 C 0.24139 0.90552 0.97605 0.0
C1006 C 0.27379 0.83895 0.99889 0.0
C1007 C 0.27876 0.84302 0.98453 0.0
C1008 C 0.28366 0.83444 0.01095 0.0
C1009 C 0.29355 0.84253 0.98249 0.0
C1010 C 0.29836 0.83409 0.00844 0.0
N1011 N 0.30296 0.83811 0.99439 0.0
C1012 C 0.29188 0.87431 0.01842 0.0
C1013 C 0.2842 0.88569 0.99493 0.0
C1014 C 0.30612 0.88385 0.02053 0.0
N1015 N 0.2812 0.8756 0.00594 0.0
C1016 C 0.29828 0.89543 0.99654 0.0
C1017 C 0.30939 0.89465 0.00955 0.0
H1018 H 0.28935 0.86594 0.0268 0.0
H1019 H 0.27566 0.88625 0.98491 0.0
C1020 C 0.22408 0.82935 0.95633 0.0
N1021 N 0.23671 0.82899 0.9667 0.0
C1022 C 0.22055 0.81938 0.9414 0.0
C1023 C 0.24253 0.80817 0.94882 0.0
C1024 C 0.24559 0.81831 0.96354 0.0
C1025 C 0.23007 0.8089 0.93737 0.0
H1026 H 0.21694 0.83761 0.95953 0.0
H1027 H 0.25521 0.81785 0.97231 0.0
O1028 O 0.25066 0.86836 0.02226 0.0
O1029 O 0.22631 0.84313 0.99994 0.0
O1030 O 0.24851 0.8661 0.9836 0.0
O1031 O 0.25943 0.83972 1.00123 0.0
H1032 H 0.26595 0.85825 0.0471 0.0
H1033 H 0.26113 0.89943 0.02343 0.0
H1034 H 0.28567 0.87536 0.06792 0.0
H1035 H 0.28119 0.91574 0.04451 0.0
H1036 H 0.22094 0.78904 0.9948 0.0
H1037 H 0.19704 0.83623 0.99905 0.0
H1038 H 0.23667 0.81603 0.99748 0.0
H1039 H 0.18194 0.8088 0.99629 0.0
H1040 H 0.21797 0.9114 0.02628 0.0
H1041 H 0.19049 0.8848 0.98215 0.0
H1042 H 0.26295 0.80744 0.04827 0.0
H1043 H 0.23959 0.84077 0.07219 0.0
H1044 H 0.23157 0.86205 0.95455 0.0
H1045 H 0.25404 0.89684 0.99551 0.0
H1046 H 0.22191 0.88355 0.94165 0.0
H1047 H 0.24408 0.9178 0.98188 0.0
H1048 H 0.27131 0.84673 0.97516 0.0
H1049 H 0.28012 0.83151 0.02226 0.0
H1050 H 0.29756 0.84573 0.97149 0.0
H1051 H 0.30614 0.83071 0.01771 0.0
H1052 H 0.31449 0.88271 0.03054 0.0
H1053 H 0.30036 0.90367 0.98785 0.0
H1054 H 0.21071 0.8201 0.93298 0.0
H1055 H 0.25025 0.80037 0.94619 0.0
Li1056 Li 0.27969 0.39109 0.03168 0.0
Li1057 Li 0.29145 0.37131 0.04723 0.0
Li1058 Li 0.3075 0.39235 0.03329 0.0
Li1059 Li 0.28937 0.37048 0.01779 0.0
C1060 C 0.29564 0.40681 0.06438 0.0
N1061 N 0.29554 0.42972 0.09044 0.0
C1062 C 0.28706 0.40311 0.07654 0.0
C1063 C 0.30436 0.4221 0.06563 0.0
C1064 C 0.2871 0.41487 0.08957 0.0
C1065 C 0.30411 0.43353 0.07885 0.0
C1066 C 0.26369 0.35454 0.02237 0.0
C1067 C 0.25494 0.32602 0.0176 0.0
N1068 N 0.24562 0.32758 0.00402 0.0
C1069 C 0.25397 0.3559 0.00845 0.0
C1070 C 0.26417 0.33952 0.02706 0.0
C1071 C 0.24494 0.34211 0.9993 0.0
C1072 C 0.25697 0.40491 0.01555 0.0
N1073 N 0.26309 0.40234 0.03054 0.0
C1074 C 0.2447 0.41413 0.04281 0.0
C1075 C 0.25713 0.40668 0.04405 0.0
C1076 C 0.23819 0.41707 0.02749 0.0
C1077 C 0.24456 0.41235 0.01375 0.0
H1078 H 0.26168 0.40107 0.00492 0.0
H1079 H 0.26181 0.40409 0.05576 0.0
C1080 C 0.30327 0.3551 0.07259 0.0
N1081 N 0.29095 0.36033 0.06601 0.0
C1082 C 0.30292 0.34722 0.08635 0.0
C1083 C 0.27735 0.35062 0.08657 0.0
C1084 C 0.27808 0.35811 0.07261 0.0
C1085 C 0.28988 0.34503 0.0936 0.0
H1086 H 0.31339 0.35708 0.06718 0.0
H1087 H 0.26841 0.3623 0.06708 0.0
C1088 C 0.29461 0.4085 0.01044 0.0
N1089 N 0.29951 0.43948 0.00334 0.0
C1090 C 0.29827 0.41165 0.99524 0.0
C1091 C 0.2935 0.42117 0.02199 0.0
C1092 C 0.30071 0.42737 0.99189 0.0
C1093 C 0.29598 0.43672 0.01819 0.0
C1094 C 0.31331 0.35757 0.02576 0.0
C1095 C 0.32146 0.36097 0.01318 0.0
C1096 C 0.31123 0.34223 0.03018 0.0
C1097 C 0.3273 0.34888 0.0051 0.0
C1098 C 0.31729 0.33048 0.02184 0.0
N1099 N 0.32511 0.33402 0.00956 0.0
C1100 C 0.33668 0.41065 0.04846 0.0
C1101 C 0.3319 0.40707 0.01961 0.0
C1102 C 0.35133 0.41884 0.04843 0.0
N1103 N 0.32729 0.40498 0.03415 0.0
C1104 C 0.34636 0.41521 0.019 0.0
C1105 C 0.35642 0.42114 0.03353 0.0
H1106 H 0.3329 0.40856 0.05989 0.0
H1107 H 0.32442 0.40211 0.00837 0.0
C1108 C 0.28586 0.36428 0.98389 0.0
N1109 N 0.28637 0.35654 0.99719 0.0
C1110 C 0.28561 0.35614 0.96842 0.0
C1111 C 0.28532 0.33176 0.98023 0.0
C1112 C 0.28573 0.34046 0.99559 0.0
C1113 C 0.28564 0.33973 0.96648 0.0
H1114 H 0.28588 0.37689 0.98531 0.0
H1115 H 0.28592 0.33443 0.00624 0.0
O1116 O 0.29588 0.39539 0.05161 0.0
O1117 O 0.27279 0.36785 0.03133 0.0
O1118 O 0.29236 0.39313 0.01395 0.0
O1119 O 0.30743 0.36921 0.03373 0.0
H1120 H 0.28029 0.39135 0.07583 0.0
H1121 H 0.31125 0.42514 0.05647 0.0
H1122 H 0.2804 0.4122 0.09899 0.0
H1123 H 0.31075 0.44543 0.0799 0.0
H1124 H 0.25524 0.31431 0.02101 0.0
H1125 H 0.25351 0.36746 0.00468 0.0
H1126 H 0.27169 0.3383 0.03778 0.0
H1127 H 0.23743 0.34294 0.98844 0.0
H1128 H 0.24003 0.41721 0.05372 0.0
H1129 H 0.24007 0.41444 1.0017 0.0
H1130 H 0.31285 0.34318 0.09147 0.0
H1131 H 0.26704 0.34904 0.09171 0.0
H1132 H 0.29946 0.40212 0.98616 0.0
H1133 H 0.2906 0.41905 0.03373 0.0
H1134 H 0.3036 0.42994 0.98021 0.0
H1135 H 0.29508 0.44659 0.02704 0.0
H1136 H 0.32309 0.37274 0.00955 0.0
H1137 H 0.30483 0.33936 0.03979 0.0
H1138 H 0.33354 0.35131 0.99526 0.0
H1139 H 0.31571 0.31854 0.02506 0.0
H1140 H 0.35869 0.42294 0.05996 0.0
H1141 H 0.34959 0.4168 0.00721 0.0
H1142 H 0.28549 0.36265 0.95806 0.0
H1143 H 0.28527 0.31907 0.97921 0.0
Li1144 Li 0.81383 0.19177 0.0461 0.0
Li1145 Li 0.82355 0.17153 0.02953 0.0
Li1146 Li 0.81155 0.19016 0.01772 0.0
Li1147 Li 0.79655 0.16949 0.02777 0.0
C1148 C 0.83751 0.20764 0.02724 0.0
N1149 N 0.85083 0.23341 0.01388 0.0
C1150 C 0.84617 0.20535 0.01494 0.0
C1151 C 0.83568 0.22304 0.03281 0.0
C1152 C 0.85279 0.21853 0.00831 0.0
C1153 C 0.8425 0.23591 0.02589 0.0
C1154 C 0.81427 0.16142 0.06036 0.0
C1155 C 0.80965 0.13934 0.0756 0.0
N1156 N 0.82106 0.14695 0.08755 0.0
C1157 C 0.82599 0.16899 0.07276 0.0
C1158 C 0.80605 0.14645 0.06177 0.0
C1159 C 0.82923 0.1615 0.08642 0.0
C1160 C 0.80364 0.20728 0.0717 0.0
N1161 N 0.8163 0.20496 0.06584 0.0
C1162 C 0.83174 0.22193 0.08862 0.0
C1163 C 0.83019 0.21211 0.07378 0.0
C1164 C 0.81884 0.22452 0.09499 0.0
C1165 C 0.80465 0.21717 0.08635 0.0
H1166 H 0.79279 0.20137 0.065 0.0
H1167 H 0.84001 0.21005 0.06863 0.0
C1168 C 0.84337 0.15808 0.01346 0.0
N1169 N 0.83834 0.15917 0.02803 0.0
C1170 C 0.85255 0.14731 0.00992 0.0
C1171 C 0.85151 0.13931 0.03666 0.0
C1172 C 0.8424 0.1503 0.0397 0.0
C1173 C 0.85643 0.13751 0.02148 0.0
H1174 H 0.83966 0.16507 0.00431 0.0
H1175 H 0.83812 0.15117 0.05107 0.0
C1176 C 0.78257 0.19451 0.02213 0.0
N1177 N 0.75658 0.19916 0.00402 0.0
C1178 C 0.77767 0.18629 0.00634 0.0
C1179 C 0.77426 0.20512 0.02868 0.0
C1180 C 0.76451 0.18879 0.99739 0.0
C1181 C 0.76115 0.2073 0.01933 0.0
C1182 C 0.80602 0.1514 0.00316 0.0
C1183 C 0.80355 0.14692 0.98625 0.0
C1184 C 0.806 0.13964 0.01342 0.0
C1185 C 0.80112 0.13076 0.97989 0.0
C1186 C 0.80356 0.12361 0.00659 0.0
N1187 N 0.80118 0.11954 0.99011 0.0
C1188 C 0.81072 0.19492 0.98551 0.0
C1189 C 0.80473 0.21593 0.00294 0.0
C1190 C 0.80364 0.20003 0.97186 0.0
N1191 N 0.81031 0.20236 1.00062 0.0
C1192 C 0.79743 0.2214 0.98965 0.0
C1193 C 0.79609 0.2128 0.97403 0.0
H1194 H 0.81515 0.18407 0.98418 0.0
H1195 H 0.8044 0.22139 0.01519 0.0
C1196 C 0.7721 0.15335 0.03957 0.0
N1197 N 0.77796 0.15534 0.0257 0.0
C1198 C 0.75896 0.14224 0.03909 0.0
C1199 C 0.75781 0.13595 0.00991 0.0
C1200 C 0.77095 0.1472 0.01097 0.0
C1201 C 0.75179 0.13319 0.02414 0.0
H1202 H 0.77781 0.16022 0.05106 0.0
H1203 H 0.77565 0.14923 1.00004 0.0
O1204 O 0.83075 0.19488 0.0337 0.0
O1205 O 0.81082 0.16858 0.04692 0.0
O1206 O 0.79559 0.19254 0.03108 0.0
O1207 O 0.80832 0.16723 0.00947 0.0
H1208 H 0.84771 0.19352 0.0105 0.0
H1209 H 0.82892 0.225 0.04224 0.0
H1210 H 0.85948 0.21692 0.99874 0.0
H1211 H 0.84112 0.24789 0.03002 0.0
H1212 H 0.80339 0.12776 0.07683 0.0
H1213 H 0.83269 0.18037 0.07171 0.0
H1214 H 0.79704 0.14032 0.05223 0.0
H1215 H 0.83829 0.16721 0.09609 0.0
H1216 H 0.84283 0.22746 0.09502 0.0
H1217 H 0.79448 0.21875 0.09107 0.0
H1218 H 0.85627 0.1464 0.99814 0.0
H1219 H 0.85409 0.13182 0.04581 0.0
H1220 H 0.78405 0.17823 1.00094 0.0
H1221 H 0.77794 0.21166 0.04083 0.0
H1222 H 0.76064 0.18256 0.98514 0.0
H1223 H 0.75462 0.2155 0.02424 0.0
H1224 H 0.80341 0.15583 0.97811 0.0
H1225 H 0.80786 0.1428 0.0265 0.0
H1226 H 0.79917 0.12714 0.96683 0.0
H1227 H 0.80354 0.11441 0.0144 0.0
H1228 H 0.80276 0.19308 0.95998 0.0
H1229 H 0.79181 0.23137 0.9917 0.0
H1230 H 0.7545 0.1407 0.05029 0.0
H1231 H 0.75266 0.12921 0.99815 0.0
Li1232 Li 0.16526 0.51405 0.28065 0.0
Li1233 Li 0.14557 0.49832 0.29377 0.0
Li1234 Li 0.16394 0.48284 0.2791 0.0
Li1235 Li 0.14262 0.49647 0.26168 0.0
C1236 C 0.18004 0.50759 0.3101 0.0
N1237 N 0.2045 0.52273 0.33293 0.0
C1238 C 0.17827 0.5187 0.32294 0.0
C1239 C 0.1942 0.50408 0.30892 0.0
C1240 C 0.19079 0.52625 0.33435 0.0
C1241 C 0.20644 0.5119 0.32057 0.0
C1242 C 0.13781 0.52682 0.28658 0.0
C1243 C 0.11714 0.54008 0.29015 0.0
N1244 N 0.12606 0.55054 0.30255 0.0
C1245 C 0.14676 0.53766 0.29937 0.0
C1246 C 0.12288 0.528 0.28193 0.0
C1247 C 0.14061 0.54958 0.30729 0.0
C1248 C 0.17252 0.5446 0.26886 0.0
N1249 N 0.17786 0.53632 0.28063 0.0
C1250 C 0.19757 0.55942 0.2911 0.0
C1251 C 0.19028 0.54355 0.29164 0.0
C1252 C 0.19232 0.56823 0.27901 0.0
C1253 C 0.17957 0.56035 0.26776 0.0
H1254 H 0.16255 0.53901 0.2603 0.0
H1255 H 0.19458 0.53715 0.30101 0.0
C1256 C 0.14111 0.49644 0.32867 0.0
N1257 N 0.13422 0.49893 0.31388 0.0
C1258 C 0.13409 0.49747 0.34282 0.0
C1259 C 0.11268 0.50342 0.32671 0.0
C1260 C 0.12009 0.50223 0.31285 0.0
C1261 C 0.11957 0.50113 0.34226 0.0
H1262 H 0.15223 0.49368 0.32963 0.0
H1263 H 0.11443 0.50406 0.30122 0.0
C1264 C 0.17596 0.50432 0.25347 0.0
N1265 N 0.19845 0.51953 0.23861 0.0
C1266 C 0.17241 0.51259 0.2405 0.0
C1267 C 0.19091 0.50369 0.25885 0.0
C1268 C 0.18396 0.52024 0.23315 0.0
C1269 C 0.20213 0.51148 0.25118 0.0
C1270 C 0.12892 0.47006 0.28199 0.0
C1271 C 0.13164 0.45997 0.29356 0.0
C1272 C 0.11434 0.47234 0.27726 0.0
C1273 C 0.11964 0.45227 0.30021 0.0
C1274 C 0.10265 0.46442 0.2842 0.0
N1275 N 0.10551 0.45463 0.29544 0.0
C1276 C 0.17648 0.45513 0.2916 0.0
C1277 C 0.18029 0.45792 0.26475 0.0
C1278 C 0.18348 0.44158 0.29126 0.0
N1279 N 0.17487 0.46319 0.27846 0.0
C1280 C 0.18737 0.44442 0.26391 0.0
C1281 C 0.18916 0.43573 0.27725 0.0
H1282 H 0.1723 0.45917 0.30254 0.0
H1283 H 0.17905 0.46411 0.25423 0.0
C1284 C 0.12366 0.50911 0.23672 0.0
N1285 N 0.13007 0.49626 0.2394 0.0
C1286 C 0.11584 0.51024 0.22124 0.0
C1287 C 0.12142 0.48509 0.21097 0.0
C1288 C 0.12901 0.48434 0.22673 0.0
C1289 C 0.11461 0.49822 0.20778 0.0
H1290 H 0.12479 0.51876 0.24657 0.0
H1291 H 0.13437 0.47431 0.22869 0.0
O1292 O 0.16794 0.50005 0.29883 0.0
O1293 O 0.14359 0.51498 0.27879 0.0
O1294 O 0.16489 0.49713 0.2611 0.0
O1295 O 0.14057 0.47822 0.27585 0.0
H1296 H 0.16736 0.52146 0.32409 0.0
H1297 H 0.1957 0.49541 0.2991 0.0
H1298 H 0.18961 0.53491 0.34433 0.0
H1299 H 0.21749 0.50935 0.31979 0.0
H1300 H 0.10559 0.54111 0.28672 0.0
H1301 H 0.15832 0.53689 0.30315 0.0
H1302 H 0.11572 0.51952 0.27224 0.0
H1303 H 0.14742 0.55807 0.3172 0.0
H1304 H 0.20738 0.56468 0.30005 0.0
H1305 H 0.17478 0.56642 0.25831 0.0
H1306 H 0.14007 0.4952 0.3541 0.0
H1307 H 0.10166 0.50644 0.32516 0.0
H1308 H 0.16088 0.51322 0.23625 0.0
H1309 H 0.1938 0.49732 0.2689 0.0
H1310 H 0.1814 0.52676 0.22315 0.0
H1311 H 0.21376 0.51114 0.25524 0.0
H1312 H 0.14291 0.45825 0.29745 0.0
H1313 H 0.11213 0.48029 0.26846 0.0
H1314 H 0.12156 0.44445 0.30921 0.0
H1315 H 0.0913 0.46611 0.28072 0.0
H1316 H 0.18455 0.43588 0.30212 0.0
H1317 H 0.19116 0.44072 0.25262 0.0
H1318 H 0.11079 0.52059 0.21999 0.0
H1319 H 0.12129 0.47552 0.20132 0.0
Li1320 Li 0.78114 0.8925 0.53294 0.0
Li1321 Li 0.79416 0.87446 0.54957 0.0
Li1322 Li 0.80922 0.89527 0.53435 0.0
Li1323 Li 0.7917 0.87143 0.51972 0.0
C1324 C 0.79592 0.9097 0.56492 0.0
N1325 N 0.79264 0.93222 0.58988 0.0
C1326 C 0.78808 0.90503 0.57736 0.0
C1327 C 0.80238 0.92575 0.56536 0.0
C1328 C 0.78647 0.91661 0.58983 0.0
C1329 C 0.80051 0.93697 0.57803 0.0
C1330 C 0.7664 0.85585 0.52464 0.0
C1331 C 0.76072 0.82729 0.51689 0.0
N1332 N 0.74907 0.82882 0.50565 0.0
C1333 C 0.75435 0.85716 0.51307 0.0
C1334 C 0.76962 0.84082 0.52663 0.0
C1335 C 0.74572 0.84334 0.50356 0.0
C1336 C 0.7579 0.90575 0.51637 0.0
N1337 N 0.76422 0.90336 0.53137 0.0
C1338 C 0.74569 0.9149 0.54369 0.0
C1339 C 0.75823 0.90761 0.54488 0.0
C1340 C 0.73907 0.91779 0.5284 0.0
C1341 C 0.74539 0.91305 0.51462 0.0
H1342 H 0.76247 0.90184 0.50568 0.0
H1343 H 0.76296 0.90507 0.55658 0.0
C1344 C 0.80721 0.86495 0.57918 0.0
N1345 N 0.79426 0.86415 0.5688 0.0
C1346 C 0.80709 0.85743 0.5932 0.0
C1347 C 0.78033 0.84841 0.58557 0.0
C1348 C 0.78097 0.8561 0.57174 0.0
C1349 C 0.7935 0.84901 0.5966 0.0
H1350 H 0.81764 0.87147 0.57658 0.0
H1351 H 0.77082 0.85565 0.56331 0.0
C1352 C 0.79375 0.90697 0.50766 0.0
N1353 N 0.7945 0.93414 0.49284 0.0
C1354 C 0.79378 0.90607 0.49086 0.0
C1355 C 0.79409 0.92166 0.51693 0.0
C1356 C 0.79418 0.91995 0.48359 0.0
C1357 C 0.79446 0.93527 0.50921 0.0
C1358 C 0.81894 0.86206 0.53216 0.0
C1359 C 0.82924 0.86559 0.52157 0.0
C1360 C 0.81808 0.84793 0.53905 0.0
C1361 C 0.83847 0.85478 0.51792 0.0
C1362 C 0.8275 0.83743 0.53509 0.0
N1363 N 0.8374 0.84104 0.52469 0.0
C1364 C 0.83975 0.9101 0.54771 0.0
C1365 C 0.83187 0.9149 0.5209 0.0
C1366 C 0.85433 0.91842 0.54746 0.0
N1367 N 0.82882 0.9085 0.53454 0.0
C1368 C 0.84615 0.9235 0.52024 0.0
C1369 C 0.85768 0.92531 0.53358 0.0
H1370 H 0.83721 0.90466 0.55832 0.0
H1371 H 0.82337 0.91303 0.51028 0.0
C1372 C 0.78018 0.86107 0.48692 0.0
N1373 N 0.78866 0.85679 0.49971 0.0
C1374 C 0.77839 0.85249 0.47131 0.0
C1375 C 0.79371 0.83487 0.48231 0.0
C1376 C 0.79504 0.84369 0.49777 0.0
C1377 C 0.78548 0.8394 0.46879 0.0
H1378 H 0.77505 0.87141 0.4888 0.0
H1379 H 0.80135 0.84014 0.50808 0.0
O1380 O 0.79768 0.89853 0.55267 0.0
O1381 O 0.77525 0.86925 0.5337 0.0
O1382 O 0.79327 0.89346 0.51492 0.0
O1383 O 0.80995 0.87253 0.53605 0.0
H1384 H 0.78313 0.89262 0.57728 0.0
H1385 H 0.80884 0.9295 0.55607 0.0
H1386 H 0.7803 0.9132 0.59945 0.0
H1387 H 0.80538 0.94946 0.57847 0.0
H1388 H 0.76312 0.81558 0.51822 0.0
H1389 H 0.75179 0.86873 0.51134 0.0
H1390 H 0.779 0.83966 0.53546 0.0
H1391 H 0.7364 0.84415 0.4945 0.0
H1392 H 0.74106 0.91791 0.55464 0.0
H1393 H 0.74079 0.91504 0.50257 0.0
H1394 H 0.81751 0.85842 0.6014 0.0
H1395 H 0.76962 0.8419 0.58747 0.0
H1396 H 0.7936 0.89479 0.48351 0.0
H1397 H 0.79389 0.9225 0.52989 0.0
H1398 H 0.79424 0.91944 0.47061 0.0
H1399 H 0.79467 0.94673 0.51623 0.0
H1400 H 0.83006 0.87654 0.51621 0.0
H1401 H 0.81016 0.84506 0.54729 0.0
H1402 H 0.84648 0.85731 0.50971 0.0
H1403 H 0.82692 0.8264 0.54026 0.0
H1404 H 0.86287 0.9195 0.55804 0.0
H1405 H 0.84827 0.9283 0.50915 0.0
H1406 H 0.77198 0.85643 0.46123 0.0
H1407 H 0.79912 0.82467 0.48093 0.0
Li1408 Li 0.93425 0.00777 0.26259 0.0
Li1409 Li 0.91237 0.98925 0.24752 0.0
Li1410 Li 0.9309 0.00567 0.23255 0.0
Li1411 Li 0.9134 0.01799 0.24827 0.0
C1412 C 0.94622 0.98275 0.25146 0.0
N1413 N 0.9714 0.97106 0.26226 0.0
C1414 C 0.94478 0.96866 0.25846 0.0
C1415 C 0.96043 0.99082 0.24981 0.0
C1416 C 0.95766 0.96297 0.26389 0.0
C1417 C 0.97303 0.98473 0.25538 0.0
C1418 C 0.90197 1.00106 0.2752 0.0
C1419 C 0.87557 0.99539 0.27695 0.0
N1420 N 0.87884 0.99132 0.29209 0.0
C1421 C 0.90508 0.99702 0.29087 0.0
C1422 C 0.88711 1.0004 0.26825 0.0
C1423 C 0.89323 0.99204 0.29917 0.0
C1424 C 0.95837 0.02366 0.28878 0.0
N1425 N 0.94807 0.0102 0.28247 0.0
C1426 C 0.95392 0.99834 0.30646 0.0
C1427 C 0.9459 0.9976 0.2909 0.0
C1428 C 0.96429 0.01226 0.31352 0.0
C1429 C 0.96664 0.02495 0.30436 0.0
H1430 H 0.95996 0.03361 0.28204 0.0
H1431 H 0.93746 0.98714 0.28576 0.0
C1432 C 0.89068 0.96138 0.23355 0.0
N1433 N 0.89989 0.96902 0.24735 0.0
C1434 C 0.88136 0.94667 0.23367 0.0
C1435 C 0.89132 0.94794 0.26217 0.0
C1436 C 0.90056 0.96249 0.26142 0.0
C1437 C 0.88149 0.93977 0.24817 0.0
H1438 H 0.8906 0.96668 0.22241 0.0
H1439 H 0.90825 0.96863 0.27212 0.0
C1440 C 0.94579 0.03851 0.2533 0.0
N1441 N 0.96742 0.06589 0.26301 0.0
C1442 C 0.94263 0.0515 0.26299 0.0
C1443 C 0.95989 0.03946 0.24846 0.0
C1444 C 0.95374 0.06524 0.26779 0.0
C1445 C 0.97069 0.05341 0.25353 0.0
C1446 C 0.89664 1.00371 0.21808 0.0
C1447 C 0.89941 0.01164 0.20478 0.0
C1448 C 0.88185 0.99832 0.22027 0.0
C1449 C 0.88734 0.01449 0.19418 0.0
C1450 C 0.87008 1.00137 0.20939 0.0
N1451 N 0.87305 0.00936 0.1967 0.0
C1452 C 0.94471 0.99404 0.20624 0.0
C1453 C 0.94232 0.02118 0.20806 0.0
C1454 C 0.9513 0.99522 0.19215 0.0
N1455 N 0.94035 0.00692 0.21379 0.0
C1456 C 0.94879 0.02289 0.19402 0.0
C1457 C 0.95336 0.00979 0.18581 0.0
H1458 H 0.94301 0.98285 0.21112 0.0
H1459 H 0.93865 0.03119 0.21431 0.0
C1460 C 0.89715 0.03968 0.26249 0.0
N1461 N 0.90277 0.03507 0.24884 0.0
C1462 C 0.88964 0.05248 0.26308 0.0
C1463 C 0.89422 0.05581 0.23573 0.0
C1464 C 0.90175 0.04305 0.23574 0.0
C1465 C 0.88801 0.06062 0.24952 0.0
H1466 H 0.89863 0.03357 0.27301 0.0
H1467 H 0.907 0.03969 0.22539 0.0
O1468 O 0.93377 0.98857 0.2462 0.0
O1469 O 0.91343 0.00569 0.26677 0.0
O1470 O 0.93505 0.02501 0.2484 0.0
O1471 O 0.90834 1.00086 0.22861 0.0
H1472 H 0.93383 0.96226 0.25976 0.0
H1473 H 0.96169 1.00169 0.24434 0.0
H1474 H 0.95672 0.95212 0.2694 0.0
H1475 H 0.98412 0.99088 0.25424 0.0
H1476 H 0.86402 0.99479 0.27168 0.0
H1477 H 0.9165 0.99767 0.29656 0.0
H1478 H 0.88454 1.0039 0.25637 0.0
H1479 H 0.89549 0.98878 0.31125 0.0
H1480 H 0.95152 0.98835 0.31313 0.0
H1481 H 0.97464 0.03584 0.30926 0.0
H1482 H 0.87426 0.94072 0.22247 0.0
H1483 H 0.89176 0.94329 0.27369 0.0
H1484 H 0.93176 0.05095 0.26682 0.0
H1485 H 0.96248 0.02955 0.24088 0.0
H1486 H 0.95148 0.07538 0.27533 0.0
H1487 H 0.98167 0.0543 0.24991 0.0
H1488 H 0.91076 0.01572 0.20275 0.0
H1489 H 0.87943 0.99168 0.23013 0.0
H1490 H 0.88935 0.02077 0.18394 0.0
H1491 H 0.85859 0.99733 0.211 0.0
H1492 H 0.95482 0.98487 0.18637 0.0
H1493 H 0.94991 0.03427 0.18948 0.0
H1494 H 0.88507 0.05588 0.27397 0.0
H1495 H 0.89353 0.06205 0.22519 0.0
Li1496 Li 0.31127 0.6887 0.54668 0.0
Li1497 Li 0.32152 0.6682 0.53251 0.0
Li1498 Li 0.31243 0.68825 0.51943 0.0
Li1499 Li 0.2946 0.66762 0.52793 0.0
C1500 C 0.33972 0.70223 0.53108 0.0
N1501 N 0.35925 0.7241 0.51839 0.0
C1502 C 0.35219 0.69786 0.52517 0.0
C1503 C 0.33741 0.71787 0.53089 0.0
C1504 C 0.36188 0.70904 0.51871 0.0
C1505 C 0.34734 0.72871 0.52433 0.0
C1506 C 0.31305 0.66188 0.56287 0.0
C1507 C 0.31183 0.64569 0.58456 0.0
N1508 N 0.32506 0.65464 0.59259 0.0
C1509 C 0.32667 0.6709 0.57131 0.0
C1510 C 0.30557 0.64917 0.56953 0.0
C1511 C 0.33253 0.66706 0.58633 0.0
C1512 C 0.30142 0.69636 0.57571 0.0
N1513 N 0.31212 0.70128 0.56666 0.0
C1514 C 0.32142 0.72515 0.58533 0.0
C1515 C 0.32226 0.71513 0.57129 0.0
C1516 C 0.31016 0.72062 0.59468 0.0
C1517 C 0.3003 0.70585 0.58992 0.0
H1518 H 0.29355 0.68523 0.57162 0.0
H1519 H 0.3307 0.71862 0.56385 0.0
C1520 C 0.34172 0.65443 0.51796 0.0
N1521 N 0.3354 0.65465 0.53176 0.0
C1522 C 0.35107 0.64377 0.51476 0.0
C1523 C 0.34716 0.63363 0.54002 0.0
C1524 C 0.33788 0.64452 0.54274 0.0
C1525 C 0.35375 0.63313 0.52582 0.0
H1526 H 0.33909 0.66226 0.5092 0.0
H1527 H 0.33236 0.64443 0.55332 0.0
C1528 C 0.2867 0.69996 0.538 0.0
N1529 N 0.27078 0.7185 0.55548 0.0
C1530 C 0.27262 0.69328 0.54138 0.0
C1531 C 0.29254 0.71618 0.54327 0.0
C1532 C 0.26477 0.70282 0.55028 0.0
C1533 C 0.28438 0.72532 0.55217 0.0
C1534 C 0.30523 0.64948 0.50447 0.0
C1535 C 0.30479 0.64569 0.48767 0.0
C1536 C 0.30278 0.63721 0.51402 0.0
C1537 C 0.30188 0.62967 0.48068 0.0
C1538 C 0.29992 0.62135 0.50657 0.0
N1539 N 0.29953 0.61794 0.4902 0.0
C1540 C 0.31934 0.69361 0.48871 0.0
C1541 C 0.30772 0.71282 0.50219 0.0
C1542 C 0.31693 0.69993 0.47416 0.0
N1543 N 0.31421 0.69982 0.50208 0.0
C1544 C 0.30521 0.71957 0.48804 0.0
C1545 C 0.3092 0.71264 0.47362 0.0
H1546 H 0.3243 0.68311 0.48907 0.0
H1547 H 0.30352 0.71723 0.51292 0.0
C1548 C 0.26962 0.64936 0.53644 0.0
N1549 N 0.27574 0.65393 0.52341 0.0
C1550 C 0.25588 0.63887 0.5341 0.0
C1551 C 0.25515 0.63774 0.5049 0.0
C1552 C 0.26882 0.64852 0.50783 0.0
C1553 C 0.24856 0.63289 0.51818 0.0
H1554 H 0.2754 0.65398 0.54866 0.0
H1555 H 0.27399 0.65244 0.49771 0.0
O1556 O 0.33003 0.69139 0.53735 0.0
O1557 O 0.30692 0.66549 0.54825 0.0
O1558 O 0.29461 0.69072 0.5294 0.0
O1559 O 0.3081 0.66515 0.51142 0.0
H1560 H 0.35451 0.68603 0.52571 0.0
H1561 H 0.32792 0.72154 0.53552 0.0
H1562 H 0.37152 0.70576 0.51401 0.0
H1563 H 0.34555 0.74078 0.52394 0.0
H1564 H 0.30617 0.63587 0.58984 0.0
H1565 H 0.33268 0.68071 0.5663 0.0
H1566 H 0.29507 0.64202 0.56311 0.0
H1567 H 0.34305 0.67393 0.593 0.0
H1568 H 0.32919 0.73647 0.58853 0.0
H1569 H 0.2917 0.70171 0.597 0.0
H1570 H 0.35569 0.64346 0.50348 0.0
H1571 H 0.34899 0.62554 0.54879 0.0
H1572 H 0.26772 0.6809 0.53714 0.0
H1573 H 0.30341 0.72163 0.54087 0.0
H1574 H 0.25389 0.69775 0.55304 0.0
H1575 H 0.28888 0.73781 0.5565 0.0
H1576 H 0.30665 0.65504 0.48011 0.0
H1577 H 0.30308 0.63986 0.52704 0.0
H1578 H 0.3015 0.62657 0.46769 0.0
H1579 H 0.298 0.61175 0.51381 0.0
H1580 H 0.32019 0.69431 0.46326 0.0
H1581 H 0.29895 0.72915 0.48811 0.0
H1582 H 0.25115 0.63526 0.54461 0.0
H1583 H 0.24974 0.63337 0.49247 0.0
Li1584 Li 0.4099 0.48709 0.74682 0.0
Li1585 Li 0.43182 0.50699 0.76275 0.0
Li1586 Li 0.411 0.5159 0.74803 0.0
Li1587 Li 0.42869 0.50472 0.73285 0.0
C1588 C 0.4019 0.50977 0.77548 0.0
N1589 N 0.38401 0.52454 0.79389 0.0
C1590 C 0.4084 0.52079 0.78931 0.0
C1591 C 0.38632 0.50619 0.77104 0.0
C1592 C 0.39916 0.52814 0.79845 0.0
C1593 C 0.37746 0.51382 0.78049 0.0
C1594 C 0.44136 0.4785 0.75279 0.0
C1595 C 0.46545 0.47062 0.75592 0.0
N1596 N 0.46033 0.45972 0.76544 0.0
C1597 C 0.43627 0.46703 0.76238 0.0
C1598 C 0.45601 0.48016 0.74933 0.0
C1599 C 0.44605 0.45773 0.76876 0.0
C1600 C 0.39407 0.45527 0.73362 0.0
N1601 N 0.39735 0.46688 0.74679 0.0
C1602 C 0.38227 0.45037 0.76192 0.0
C1603 C 0.39176 0.46465 0.76079 0.0
C1604 C 0.37855 0.43817 0.74852 0.0
C1605 C 0.38465 0.4407 0.73424 0.0
H1606 H 0.39868 0.45737 0.72262 0.0
H1607 H 0.39471 0.47397 0.77117 0.0
C1608 C 0.45584 0.52316 0.78886 0.0
N1609 N 0.44498 0.51 0.78313 0.0
C1610 C 0.464 0.52482 0.80457 0.0
C1611 C 0.44954 0.49949 0.8082 0.0
C1612 C 0.44163 0.49839 0.79254 0.0
C1613 C 0.46087 0.51286 0.81445 0.0
H1614 H 0.45796 0.53259 0.78151 0.0
H1615 H 0.43245 0.48847 0.78805 0.0
C1616 C 0.39386 0.49912 0.71752 0.0
N1617 N 0.36859 0.4986 0.69525 0.0
C1618 C 0.39491 0.50752 0.70423 0.0
C1619 C 0.37999 0.49036 0.71945 0.0
C1620 C 0.38199 0.50713 0.69311 0.0
C1621 C 0.36734 0.49028 0.70806 0.0
C1622 C 0.44615 0.53412 0.74949 0.0
C1623 C 0.44733 0.55067 0.75087 0.0
C1624 C 0.45891 0.52752 0.74832 0.0
C1625 C 0.46132 0.56037 0.75123 0.0
C1626 C 0.4727 0.53761 0.74871 0.0
N1627 N 0.47362 0.5537 0.75016 0.0
C1628 C 0.40624 0.54573 0.76043 0.0
C1629 C 0.38618 0.53195 0.74014 0.0
C1630 C 0.39924 0.55883 0.76237 0.0
N1631 N 0.39971 0.53266 0.74939 0.0
C1632 C 0.37887 0.54487 0.7415 0.0
C1633 C 0.38541 0.55861 0.75269 0.0
H1634 H 0.41693 0.54592 0.7678 0.0
H1635 H 0.38099 0.52147 0.73163 0.0
C1636 C 0.44349 0.49366 0.70701 0.0
N1637 N 0.43815 0.50615 0.714 0.0
C1638 C 0.45011 0.49494 0.69295 0.0
C1639 C 0.4456 0.52187 0.6936 0.0
C1640 C 0.43909 0.52007 0.70762 0.0
C1641 C 0.45121 0.50919 0.68602 0.0
H1642 H 0.44254 0.48271 0.71233 0.0
H1643 H 0.43463 0.52975 0.71336 0.0
O1644 O 0.41077 0.50267 0.76622 0.0
O1645 O 0.4319 0.48765 0.74637 0.0
O1646 O 0.40639 0.49917 0.7284 0.0
O1647 O 0.43251 0.52447 0.74902 0.0
H1648 H 0.42046 0.52374 0.79286 0.0
H1649 H 0.38115 0.49775 0.7603 0.0
H1650 H 0.40402 0.53673 0.80916 0.0
H1651 H 0.36539 0.51123 0.77716 0.0
H1652 H 0.47683 0.47184 0.7534 0.0
H1653 H 0.42491 0.46541 0.76499 0.0
H1654 H 0.46003 0.48858 0.74149 0.0
H1655 H 0.44229 0.44891 0.77633 0.0
H1656 H 0.37805 0.44885 0.77325 0.0
H1657 H 0.38199 0.43164 0.7236 0.0
H1658 H 0.47258 0.53537 0.80896 0.0
H1659 H 0.44645 0.49021 0.81555 0.0
H1660 H 0.40557 0.51428 0.70255 0.0
H1661 H 0.37898 0.48383 0.72969 0.0
H1662 H 0.38261 0.5136 0.68278 0.0
H1663 H 0.35653 0.48363 0.70943 0.0
H1664 H 0.43753 0.55597 0.75165 0.0
H1665 H 0.45815 0.51478 0.74724 0.0
H1666 H 0.4624 0.5732 0.75235 0.0
H1667 H 0.48268 0.53266 0.74787 0.0
H1668 H 0.40459 0.56899 0.77141 0.0
H1669 H 0.36834 0.54416 0.73361 0.0
H1670 H 0.45441 0.48492 0.68764 0.0
H1671 H 0.44596 0.53297 0.68858 0.0
Li1672 Li 0.64568 0.99897 0.79458 0.0
Li1673 Li 0.66553 0.01471 0.78117 0.0
Li1674 Li 0.64284 0.99682 0.76201 0.0
Li1675 Li 0.66398 0.98338 0.77976 0.0
C1676 C 0.63938 0.0292 0.78411 0.0
N1677 N 0.63075 0.05754 0.794 0.0
C1678 C 0.64556 0.03793 0.79939 0.0
C1679 C 0.62871 0.03479 0.77391 0.0
C1680 C 0.6411 0.05226 0.80415 0.0
C1681 C 0.62451 0.04917 0.77911 0.0
C1682 C 0.67973 0.00801 0.81145 0.0
C1683 C 0.706 0.01304 0.82275 0.0
N1684 N 0.70326 0.0226 0.8357 0.0
C1685 C 0.67713 0.01771 0.82497 0.0
C1686 C 0.69423 0.00549 0.81039 0.0
C1687 C 0.68919 0.02505 0.83707 0.0
C1688 C 0.6397 0.99436 0.82846 0.0
N1689 N 0.6343 0.9998 0.81453 0.0
C1690 C 0.61427 0.00757 0.82816 0.0
C1691 C 0.62168 0.00628 0.81431 0.0
C1692 C 0.61966 1.00222 0.84284 0.0
C1693 C 0.63265 0.99546 0.84258 0.0
H1694 H 0.64967 0.98921 0.82875 0.0
H1695 H 0.61734 0.01067 0.80338 0.0
C1696 C 0.6802 0.04214 0.76693 0.0
N1697 N 0.67816 0.03705 0.78151 0.0
C1698 C 0.68749 0.05787 0.76607 0.0
C1699 C 0.69033 0.06351 0.79521 0.0
C1700 C 0.6832 0.04755 0.79554 0.0
C1701 C 0.69261 0.06917 0.78029 0.0
H1702 H 0.67588 0.0341 0.75574 0.0
H1703 H 0.68133 0.04378 0.80711 0.0
C1704 C 0.629 0.97044 0.78252 0.0
N1705 N 0.60556 0.95461 0.79561 0.0
C1706 C 0.63173 0.96032 0.79404 0.0
C1707 C 0.61439 0.97257 0.77766 0.0
C1708 C 0.61971 0.9524 0.80052 0.0
C1709 C 0.60268 0.96443 0.78442 0.0
C1710 C 0.67629 1.00121 0.75282 0.0
C1711 C 0.67289 1.00388 0.73667 0.0
C1712 C 0.69121 1.00213 0.75971 0.0
C1713 C 0.68454 0.0076 0.72772 0.0
C1714 C 0.70254 0.00586 0.75036 0.0
N1715 N 0.699 0.00851 0.7347 0.0
C1716 C 0.63208 0.01091 0.73353 0.0
C1717 C 0.62115 0.98363 0.73073 0.0
C1718 C 0.62446 0.01218 0.71801 0.0
N1719 N 0.6304 0.99681 0.73976 0.0
C1720 C 0.61335 0.98437 0.71506 0.0
C1721 C 0.61488 0.99881 0.70824 0.0
H1722 H 0.63952 0.02132 0.74059 0.0
H1723 H 0.61989 0.9724 0.73556 0.0
C1724 C 0.67641 0.95566 0.79227 0.0
N1725 N 0.67491 0.96376 0.77915 0.0
C1726 C 0.68339 0.94209 0.79196 0.0
C1727 C 0.68751 0.94504 0.7647 0.0
C1728 C 0.68043 0.95853 0.7655 0.0
C1729 C 0.68918 0.9363 0.77801 0.0
H1730 H 0.67215 0.95966 0.80317 0.0
H1731 H 0.67927 0.96474 0.75499 0.0
O1732 O 0.64358 0.01513 0.77927 0.0
O1733 O 0.66808 1.00074 0.79946 0.0
O1734 O 0.64067 0.97877 0.77653 0.0
O1735 O 0.66507 0.99773 0.76183 0.0
H1736 H 0.65371 0.03367 0.80747 0.0
H1737 H 0.62365 0.02806 0.76214 0.0
H1738 H 0.64584 0.05917 0.81593 0.0
H1739 H 0.61627 0.05365 0.77134 0.0
H1740 H 0.7173 0.01126 0.82206 0.0
H1741 H 0.66594 0.01957 0.82613 0.0
H1742 H 0.69638 0.99772 0.8002 0.0
H1743 H 0.68736 0.03267 0.84755 0.0
H1744 H 0.60451 0.01309 0.82737 0.0
H1745 H 0.63738 0.99083 0.85319 0.0
H1746 H 0.68899 0.06101 0.75415 0.0
H1747 H 0.69361 0.0714 0.80667 0.0
H1748 H 0.64303 0.95872 0.79804 0.0
H1749 H 0.61216 0.98052 0.76887 0.0
H1750 H 0.62165 0.94456 0.80948 0.0
H1751 H 0.5913 0.96597 0.78081 0.0
H1752 H 0.66139 1.00314 0.73113 0.0
H1753 H 0.69399 1.00002 0.77215 0.0
H1754 H 0.68209 0.00976 0.71524 0.0
H1755 H 0.71414 0.00666 0.75556 0.0
H1756 H 0.62606 0.02373 0.71384 0.0
H1757 H 0.6064 0.97353 0.70826 0.0
H1758 H 0.68436 0.93633 0.80279 0.0
H1759 H 0.6914 0.94136 0.75345 0.0
Li1760 Li 0.76747 0.66277 0.01462 0.0
Li1761 Li 0.77684 0.64199 1.00045 0.0
Li1762 Li 0.7653 0.66074 0.98486 0.0
Li1763 Li 0.74923 0.63987 0.99906 0.0
C1764 C 0.79531 0.67739 0.00657 0.0
N1765 N 0.81909 0.7025 0.01784 0.0
C1766 C 0.80755 0.67527 0.01744 0.0
C1767 C 0.79531 0.69219 1.00117 0.0
C1768 C 0.81942 0.68814 0.02308 0.0
C1769 C 0.80741 0.70476 0.00707 0.0
C1770 C 0.77093 0.63526 0.03163 0.0
C1771 C 0.77118 0.61621 0.05066 0.0
N1772 N 0.78413 0.62523 0.05929 0.0
C1773 C 0.78421 0.64436 0.0407 0.0
C1774 C 0.76432 0.6211 0.03665 0.0
C1775 C 0.79072 0.63909 0.05464 0.0
C1776 C 0.75997 0.67054 0.04507 0.0
N1777 N 0.76938 0.67654 0.03504 0.0
C1778 C 0.77953 0.69949 0.05507 0.0
C1779 C 0.779 0.69081 0.03968 0.0
C1780 C 0.76996 0.69349 0.06569 0.0
C1781 C 0.76005 0.67883 0.06045 0.0
H1782 H 0.75238 0.65921 0.04109 0.0
H1783 H 0.78625 0.69554 0.03154 0.0
C1784 C 0.80488 0.63643 0.99339 0.0
N1785 N 0.79325 0.63055 1.00092 0.0
C1786 C 0.81756 0.62942 0.99385 0.0
C1787 C 0.80612 0.61034 0.00976 0.0
C1788 C 0.79356 0.61758 0.0088 0.0
C1789 C 0.81839 0.6163 1.0023 0.0
H1790 H 0.80436 0.64672 0.98716 0.0
H1791 H 0.78411 0.61288 0.01444 0.0
C1792 C 0.74438 0.67573 0.00604 0.0
N1793 N 0.73523 0.70119 0.0224 0.0
C1794 C 0.73276 0.67302 0.01523 0.0
C1795 C 0.75126 0.69136 0.00504 0.0
C1796 C 0.72832 0.68606 0.02345 0.0
C1797 C 0.74649 0.70408 0.01343 0.0
C1798 C 0.7652 0.62334 0.97365 0.0
C1799 C 0.77496 0.62463 0.96217 0.0
C1800 C 0.76061 0.6086 0.97878 0.0
C1801 C 0.78004 0.61109 0.95604 0.0
C1802 C 0.76595 0.59534 0.97235 0.0
N1803 N 0.77548 0.59685 0.96123 0.0
C1804 C 0.77762 0.67227 0.95821 0.0
C1805 C 0.75379 0.67837 0.96094 0.0
C1806 C 0.7781 0.67991 0.94432 0.0
N1807 N 0.76557 0.6716 0.96615 0.0
C1808 C 0.75383 0.68621 0.94716 0.0
C1809 C 0.76608 0.68703 0.93857 0.0
H1810 H 0.78684 0.66679 0.96263 0.0
H1811 H 0.74435 0.67768 0.9675 0.0
C1812 C 0.7255 0.62543 0.01371 0.0
N1813 N 0.72982 0.62712 0.99896 0.0
C1814 C 0.71115 0.6172 0.01471 0.0
C1815 C 0.70585 0.61254 0.98528 0.0
C1816 C 0.72036 0.62083 0.98485 0.0
C1817 C 0.70099 0.6107 1.00038 0.0
H1818 H 0.73318 0.63071 0.02475 0.0
H1819 H 0.724 0.62251 0.97326 0.0
O1820 O 0.78364 0.66491 1.00082 0.0
O1821 O 0.76431 0.64018 0.01796 0.0
O1822 O 0.74922 0.66314 0.99835 0.0
O1823 O 0.76057 0.63654 0.9803 0.0
H1824 H 0.80793 0.66378 0.02141 0.0
H1825 H 0.78605 0.69396 0.99255 0.0
H1826 H 0.82892 0.68669 0.03156 0.0
H1827 H 0.80751 0.71631 0.00309 0.0
H1828 H 0.76622 0.60524 0.05466 0.0
H1829 H 0.78935 0.65543 0.03708 0.0
H1830 H 0.75405 0.61391 0.02973 0.0
H1831 H 0.80099 0.64602 0.06179 0.0
H1832 H 0.78724 0.71083 0.05856 0.0
H1833 H 0.7526 0.67364 0.06827 0.0
H1834 H 0.82678 0.63447 0.988 0.0
H1835 H 0.8062 0.6001 0.0162 0.0
H1836 H 0.72735 0.66098 0.01614 0.0
H1837 H 0.76028 0.69362 0.99798 0.0
H1838 H 0.71941 0.68416 0.0307 0.0
H1839 H 0.75178 0.71624 0.01286 0.0
H1840 H 0.77868 0.636 0.95818 0.0
H1841 H 0.75316 0.60748 0.98778 0.0
H1842 H 0.78767 0.61191 0.94721 0.0
H1843 H 0.76257 0.58386 0.97627 0.0
H1844 H 0.78769 0.67999 0.93804 0.0
H1845 H 0.74442 0.69171 0.94341 0.0
H1846 H 0.7081 0.61593 0.02664 0.0
H1847 H 0.69842 0.60798 0.97388 0.0
Li1848 Li 0.89126 0.51958 0.75379 0.0
Li1849 Li 0.91404 0.53731 0.773 0.0
Li1850 Li 0.8928 0.55095 0.75552 0.0
Li1851 Li 0.91156 0.5354 0.74056 0.0
C1852 C 0.88088 0.53026 0.78187 0.0
N1853 N 0.85893 0.51727 0.79876 0.0
C1854 C 0.88436 0.5211 0.7941 0.0
C1855 C 0.86629 0.53296 0.77832 0.0
C1856 C 0.87309 0.51459 0.80246 0.0
C1857 C 0.85533 0.52626 0.78698 0.0
C1858 C 0.92205 0.50902 0.75072 0.0
C1859 C 0.94675 0.5031 0.75048 0.0
N1860 N 0.94068 0.48943 0.74009 0.0
C1861 C 0.91603 0.49492 0.74008 0.0
C1862 C 0.93751 0.51318 0.75601 0.0
C1863 C 0.92565 0.48517 0.73482 0.0
C1864 C 0.8666 0.4899 0.74237 0.0
N1865 N 0.8788 0.49724 0.75364 0.0
C1866 C 0.87689 0.47328 0.76663 0.0
C1867 C 0.88395 0.48904 0.76557 0.0
C1868 C 0.86435 0.4653 0.75515 0.0
C1869 C 0.85931 0.47401 0.74286 0.0
H1870 H 0.86246 0.49622 0.73285 0.0
H1871 H 0.89378 0.49469 0.77431 0.0
C1872 C 0.93258 0.55053 0.80619 0.0
N1873 N 0.92675 0.53716 0.79512 0.0
C1874 C 0.94041 0.54953 0.82177 0.0
C1875 C 0.93632 0.52109 0.81461 0.0
C1876 C 0.92861 0.52262 0.7992 0.0
C1877 C 0.94244 0.53461 0.82643 0.0
H1878 H 0.93105 0.56207 0.80305 0.0
H1879 H 0.92383 0.512 0.79055 0.0
C1880 C 0.87571 0.52727 0.7254 0.0
N1881 N 0.84896 0.51443 0.70502 0.0
C1882 C 0.87551 0.51676 0.71127 0.0
C1883 C 0.86232 0.53133 0.72912 0.0
C1884 C 0.86188 0.51038 0.70113 0.0
C1885 C 0.84891 0.52469 0.71868 0.0
C1886 C 0.92776 0.5666 0.75658 0.0
C1887 C 0.92511 0.57939 0.74844 0.0
C1888 C 0.94244 0.56549 0.76265 0.0
C1889 C 0.93728 0.59088 0.74641 0.0
C1890 C 0.9543 0.57723 0.76037 0.0
N1891 N 0.9515 0.58956 0.75236 0.0
C1892 C 0.88073 0.5792 0.77061 0.0
C1893 C 0.87609 0.57562 0.74198 0.0
C1894 C 0.87367 0.59272 0.77132 0.0
N1895 N 0.88194 0.57074 0.75608 0.0
C1896 C 0.86891 0.58906 0.74215 0.0
C1897 C 0.86749 0.59812 0.75697 0.0
H1898 H 0.88527 0.5755 0.78188 0.0
H1899 H 0.877 0.56913 0.73038 0.0
C1900 C 0.91954 0.52049 0.70929 0.0
N1901 N 0.9232 0.53402 0.72054 0.0
C1902 C 0.92666 0.51885 0.69526 0.0
C1903 C 0.94175 0.54485 0.7043 0.0
C1904 C 0.93423 0.54609 0.7181 0.0
C1905 C 0.93806 0.53111 0.69236 0.0
H1906 H 0.91101 0.51076 0.71112 0.0
H1907 H 0.9373 0.55687 0.72678 0.0
O1908 O 0.89171 0.53657 0.77342 0.0
O1909 O 0.91287 0.51882 0.75583 0.0
O1910 O 0.88893 0.53368 0.73548 0.0
O1911 O 0.91603 0.55522 0.75864 0.0
H1912 H 0.89563 0.51897 0.79703 0.0
H1913 H 0.86347 0.54017 0.76901 0.0
H1914 H 0.8756 0.5074 0.8119 0.0
H1915 H 0.84397 0.52821 0.78434 0.0
H1916 H 0.95875 0.50615 0.75444 0.0
H1917 H 0.90408 0.49161 0.73585 0.0
H1918 H 0.9423 0.52409 0.76425 0.0
H1919 H 0.92117 0.47423 0.72653 0.0
H1920 H 0.88153 0.46727 0.77623 0.0
H1921 H 0.84967 0.46867 0.73372 0.0
H1922 H 0.94494 0.56047 0.83004 0.0
H1923 H 0.9371 0.50922 0.81729 0.0
H1924 H 0.88576 0.51352 0.70819 0.0
H1925 H 0.8623 0.53954 0.73994 0.0
H1926 H 0.86155 0.50219 0.69018 0.0
H1927 H 0.83846 0.5277 0.72142 0.0
H1928 H 0.91378 0.58038 0.7437 0.0
H1929 H 0.94463 0.55565 0.76901 0.0
H1930 H 0.93542 0.60083 0.74009 0.0
H1931 H 0.96574 0.57652 0.76495 0.0
H1932 H 0.87292 0.59873 0.7832 0.0
H1933 H 0.86473 0.59241 0.73057 0.0
H1934 H 0.92334 0.50783 0.68685 0.0
H1935 H 0.95026 0.55484 0.70292 0.0
Li1936 Li 0.74952 0.34586 0.51656 0.0
Li1937 Li 0.73603 0.36564 0.50594 0.0
Li1938 Li 0.74419 0.34551 0.48789 0.0
Li1939 Li 0.76205 0.36697 0.50435 0.0
C1940 C 0.72218 0.32645 0.50124 0.0
N1941 N 0.70763 0.29496 0.4974 0.0
C1942 C 0.70682 0.32273 0.5018 0.0
C1943 C 0.73014 0.31418 0.49871 0.0
C1944 C 0.69966 0.30673 0.49984 0.0
C1945 C 0.72259 0.29833 0.4968 0.0
C1946 C 0.76316 0.37984 0.53464 0.0
C1947 C 0.77499 0.40723 0.54451 0.0
N1948 N 0.78539 0.40215 0.55478 0.0
C1949 C 0.77393 0.37489 0.54533 0.0
C1950 C 0.76363 0.39614 0.53426 0.0
C1951 C 0.78508 0.38635 0.55542 0.0
C1952 C 0.76 0.32221 0.53124 0.0
N1953 N 0.75188 0.33382 0.53332 0.0
C1954 C 0.75301 0.33193 0.56162 0.0
C1955 C 0.74787 0.33844 0.54793 0.0
C1956 C 0.76236 0.3207 0.56005 0.0
C1957 C 0.76537 0.3154 0.54452 0.0
H1958 H 0.76312 0.319 0.51947 0.0
H1959 H 0.74156 0.34793 0.54912 0.0
C1960 C 0.71026 0.37736 0.49635 0.0
N1961 N 0.72123 0.37715 0.50891 0.0
C1962 C 0.69962 0.38681 0.49854 0.0
C1963 C 0.71183 0.39533 0.52654 0.0
C1964 C 0.72212 0.38565 0.52385 0.0
C1965 C 0.70052 0.39605 0.51374 0.0
H1966 H 0.70998 0.3704 0.48463 0.0
H1967 H 0.7309 0.385 0.5336 0.0
C1968 C 0.77411 0.34204 0.49101 0.0
N1969 N 0.7953 0.33785 0.47112 0.0
C1970 C 0.77538 0.35064 0.47789 0.0
C1971 C 0.78372 0.3314 0.49409 0.0
C1972 C 0.78614 0.34834 0.46796 0.0
C1973 C 0.79433 0.32942 0.48387 0.0
C1974 C 0.74579 0.38051 0.47769 0.0
C1975 C 0.74788 0.37808 0.46139 0.0
C1976 C 0.7432 0.39528 0.48437 0.0
C1977 C 0.74762 0.39057 0.4521 0.0
C1978 C 0.74302 0.40747 0.47467 0.0
N1979 N 0.74522 0.40488 0.45888 0.0
C1980 C 0.72761 0.33654 0.45696 0.0
C1981 C 0.74516 0.32018 0.46383 0.0
C1982 C 0.72354 0.328 0.44131 0.0
N1983 N 0.73845 0.33268 0.46765 0.0
C1984 C 0.74155 0.31142 0.44832 0.0
C1985 C 0.73078 0.31546 0.43674 0.0
H1986 H 0.72237 0.34647 0.46052 0.0
H1987 H 0.75355 0.3172 0.47269 0.0
C1988 C 0.79284 0.37671 0.51454 0.0
N1989 N 0.78076 0.38127 0.50649 0.0
C1990 C 0.80656 0.38732 0.51864 0.0
C1991 C 0.79525 0.40699 0.50565 0.0
C1992 C 0.78176 0.39601 0.50185 0.0
C1993 C 0.8078 0.40277 0.51436 0.0
H1994 H 0.79165 0.36502 0.51838 0.0
H1995 H 0.77205 0.39949 0.4957 0.0
O1996 O 0.72927 0.34207 0.50304 0.0
O1997 O 0.75237 0.36879 0.52437 0.0
O1998 O 0.76374 0.34412 0.50103 0.0
O1999 O 0.74578 0.3683 0.48685 0.0
H2000 H 0.7005 0.33213 0.50372 0.0
H2001 H 0.74199 0.31685 0.49815 0.0
H2002 H 0.68777 0.30367 0.50025 0.0
H2003 H 0.72861 0.28871 0.49481 0.0
H2004 H 0.77557 0.41988 0.54425 0.0
H2005 H 0.77384 0.36233 0.54566 0.0
H2006 H 0.75546 0.40018 0.52597 0.0
H2007 H 0.79354 0.38269 0.56368 0.0
H2008 H 0.75037 0.33621 0.57339 0.0
H2009 H 0.77272 0.30697 0.54281 0.0
H2010 H 0.69102 0.38718 0.48842 0.0
H2011 H 0.71266 0.40214 0.53848 0.0
H2012 H 0.76823 0.35906 0.47544 0.0
H2013 H 0.78303 0.32474 0.50427 0.0
H2014 H 0.78722 0.35492 0.45775 0.0
H2015 H 0.8018 0.3212 0.4861 0.0
H2016 H 0.74967 0.36666 0.45593 0.0
H2017 H 0.74161 0.39741 0.49696 0.0
H2018 H 0.74928 0.38887 0.43949 0.0
H2019 H 0.74115 0.41899 0.47971 0.0
H2020 H 0.71505 0.33136 0.43281 0.0
H2021 H 0.7476 0.30202 0.44528 0.0
H2022 H 0.81593 0.38365 0.52551 0.0
H2023 H 0.7958 0.4187 0.50189 0.0
Li2024 Li 0.62726 0.5268 0.30116 0.0
Li2025 Li 0.6458 0.54414 0.28688 0.0
Li2026 Li 0.62329 0.52471 0.27095 0.0
Li2027 Li 0.64444 0.51527 0.28493 0.0
C2028 C 0.61214 0.5513 0.2876 0.0
N2029 N 0.58801 0.56651 0.28757 0.0
C2030 C 0.61404 0.56758 0.28636 0.0
C2031 C 0.59801 0.54274 0.28885 0.0
C2032 C 0.60169 0.57506 0.28636 0.0
C2033 C 0.58594 0.55066 0.28882 0.0
C2034 C 0.66128 0.52666 0.3139 0.0
C2035 C 0.68725 0.52425 0.31873 0.0
N2036 N 0.68436 0.51558 0.33097 0.0
C2037 C 0.65859 0.51787 0.32663 0.0
C2038 C 0.67575 0.53002 0.31 0.0
C2039 C 0.67039 0.51232 0.33507 0.0
C2040 C 0.615 0.51103 0.32521 0.0
N2041 N 0.61787 0.52553 0.32006 0.0
C2042 C 0.60827 0.53759 0.34262 0.0
C2043 C 0.61464 0.53872 0.32839 0.0
C2044 C 0.60537 0.52279 0.34839 0.0
C2045 C 0.60876 0.50938 0.33943 0.0
H2046 H 0.61776 0.50076 0.31836 0.0
H2047 H 0.61717 0.55013 0.32408 0.0
C2048 C 0.65748 0.57076 0.27303 0.0
N2049 N 0.65782 0.56457 0.28729 0.0
C2050 C 0.66643 0.58549 0.27232 0.0
C2051 C 0.67561 0.58744 0.30113 0.0
C2052 C 0.66659 0.57254 0.30123 0.0
C2053 C 0.67568 0.5941 0.2865 0.0
H2054 H 0.65039 0.56409 0.26214 0.0
H2055 H 0.66659 0.56731 0.3124 0.0
C2056 C 0.61226 0.49425 0.27868 0.0
N2057 N 0.59067 0.46742 0.26604 0.0
C2058 C 0.61593 0.48162 0.26893 0.0
C2059 C 0.59768 0.49313 0.28223 0.0
C2060 C 0.60484 0.46819 0.26258 0.0
C2061 C 0.58691 0.47949 0.27566 0.0
C2062 C 0.65442 0.52843 0.25661 0.0
C2063 C 0.64997 0.52034 0.24073 0.0
C2064 C 0.66928 0.53642 0.26156 0.0
C2065 C 0.66049 0.52029 0.23009 0.0
C2066 C 0.67946 0.5361 0.25055 0.0
N2067 N 0.67489 0.52811 0.23517 0.0
C2068 C 0.60247 0.53353 0.24667 0.0
C2069 C 0.60828 0.50797 0.24044 0.0
C2070 C 0.59419 0.53219 0.23111 0.0
N2071 N 0.6094 0.52155 0.25101 0.0
C2072 C 0.60023 0.50618 0.22471 0.0
C2073 C 0.59327 0.51852 0.21973 0.0
H2074 H 0.60384 0.54444 0.25498 0.0
H2075 H 0.61438 0.4989 0.24384 0.0
C2076 C 0.65293 0.488 0.2952 0.0
N2077 N 0.65549 0.49833 0.28427 0.0
C2078 C 0.66027 0.47511 0.29569 0.0
C2079 C 0.67236 0.48333 0.27325 0.0
C2080 C 0.66497 0.4962 0.27337 0.0
C2081 C 0.67013 0.47258 0.28456 0.0
H2082 H 0.64514 0.4898 0.30356 0.0
H2083 H 0.66674 0.50428 0.2646 0.0
O2084 O 0.62407 0.5438 0.28741 0.0
O2085 O 0.6498 0.53189 0.30526 0.0
O2086 O 0.623 0.50744 0.2851 0.0
O2087 O 0.64423 0.52868 0.26714 0.0
H2088 H 0.62493 0.57433 0.28535 0.0
H2089 H 0.59639 0.53015 0.28979 0.0
H2090 H 0.60297 0.58765 0.28536 0.0
H2091 H 0.57492 0.54419 0.28977 0.0
H2092 H 0.69849 0.52668 0.31577 0.0
H2093 H 0.64747 0.51522 0.32984 0.0
H2094 H 0.67805 0.53695 0.30031 0.0
H2095 H 0.66845 0.50539 0.34487 0.0
H2096 H 0.60596 0.54826 0.34923 0.0
H2097 H 0.60656 0.49772 0.34332 0.0
H2098 H 0.66627 0.58991 0.26069 0.0
H2099 H 0.68235 0.59369 0.31242 0.0
H2100 H 0.62719 0.48226 0.26613 0.0
H2101 H 0.59473 0.50263 0.29005 0.0
H2102 H 0.60749 0.45839 0.2549 0.0
H2103 H 0.57556 0.47849 0.27827 0.0
H2104 H 0.63854 0.51412 0.23666 0.0
H2105 H 0.67294 0.54278 0.27375 0.0
H2106 H 0.6572 0.51405 0.21777 0.0
H2107 H 0.69099 0.54222 0.25423 0.0
H2108 H 0.5889 0.54196 0.22792 0.0
H2109 H 0.60014 0.49557 0.2163 0.0
H2110 H 0.6583 0.46731 0.30479 0.0
H2111 H 0.67957 0.48172 0.26418 0.0
Tb2112 Tb 0.01325 0.00805 0.00765 0.0
Tb2113 Tb 0.0434 0.02458 0.02479 0.0
C2114 C 0.98556 0.99949 0.99822 0.0
C2115 C 0.97345 0.00845 0.99709 0.0
C2116 C 0.97577 0.02392 0.00563 0.0
C2117 C 0.96444 0.03271 0.00431 0.0
C2118 C 0.95055 0.02605 0.99463 0.0
C2119 C 0.94813 0.01045 0.98628 0.0
C2120 C 0.95961 1.00171 0.98743 0.0
C2121 C 0.03512 0.00554 0.99058 0.0
C2122 C 0.024 0.04568 0.00787 0.0
C2123 C 0.07092 0.0326 0.03493 0.0
C2124 C 0.0823 0.02271 0.03579 0.0
C2125 C 0.08008 0.00856 0.02482 0.0
C2126 C 0.0901 0.99828 0.02635 0.0
C2127 C 0.10251 1.00198 0.03884 0.0
C2128 C 0.10488 0.01626 0.04969 0.0
C2129 C 0.09472 0.02656 0.04822 0.0
C2130 C 0.0214 0.02689 0.04174 0.0
C2131 C 0.03289 0.98698 0.0244 0.0
O2132 O 0.99204 0.99924 0.01309 0.0
O2133 O 0.99525 1.00254 0.9883 0.0
O2134 O 0.03376 0.01764 0.99985 0.0
O2135 O 0.02342 0.99442 0.98998 0.0
O2136 O 0.01259 0.03353 0.00668 0.0
O2137 O 0.03782 0.04442 0.01336 0.0
O2138 O 0.06482 0.0338 0.02015 0.0
O2139 O 0.06097 0.02962 0.04457 0.0
O2140 O 0.02296 0.01487 0.03253 0.0
O2141 O 0.03297 0.03813 0.04233 0.0
O2142 O 0.04428 0.99909 0.02531 0.0
O2143 O 0.01902 0.98829 0.01915 0.0
H2144 H 0.98628 0.02918 0.01344 0.0
H2145 H 0.96643 0.04462 0.01109 0.0
H2146 H 0.93745 0.00514 0.97878 0.0
H2147 H 0.9577 0.98975 0.98081 0.0
H2148 H 0.07053 0.00536 0.01512 0.0
H2149 H 0.08822 0.9875 0.01761 0.0
H2150 H 0.11443 0.01932 0.05939 0.0
H2151 H 0.09645 0.03738 0.05686 0.0
Tb2152 Tb 0.28253 0.75988 0.25195 0.0
Tb2153 Tb 0.27306 0.77265 0.28004 0.0
C2154 C 0.29015 0.75414 0.2245 0.0
C2155 C 0.29944 0.76401 0.21511 0.0
C2156 C 0.29783 0.77978 0.21402 0.0
C2157 C 0.30658 0.78903 0.20493 0.0
C2158 C 0.31708 0.78264 0.19669 0.0
C2159 C 0.3192 0.76709 0.19848 0.0
C2160 C 0.31042 0.75783 0.20765 0.0
C2161 C 0.30004 0.75694 0.27881 0.0
C2162 C 0.2932 0.79775 0.26476 0.0
C2163 C 0.26485 0.77867 0.30712 0.0
C2164 C 0.25516 0.76924 0.31651 0.0
C2165 C 0.25722 0.75395 0.31929 0.0
C2166 C 0.2488 0.74572 0.32941 0.0
C2167 C 0.23811 0.75261 0.3369 0.0
C2168 C 0.2351 0.76726 0.33278 0.0
C2169 C 0.24366 0.77558 0.32275 0.0
C2170 C 0.25568 0.77546 0.25302 0.0
C2171 C 0.26274 0.73477 0.26767 0.0
O2172 O 0.27731 0.75809 0.22655 0.0
O2173 O 0.29734 0.751 0.23791 0.0
O2174 O 0.29486 0.76923 0.27604 0.0
O2175 O 0.29511 0.74587 0.26651 0.0
O2176 O 0.29043 0.78616 0.25211 0.0
O2177 O 0.28894 0.79445 0.27866 0.0
O2178 O 0.27766 0.77442 0.30548 0.0
O2179 O 0.25804 0.78185 0.29354 0.0
O2180 O 0.26075 0.76317 0.25602 0.0
O2181 O 0.26073 0.78667 0.26516 0.0
O2182 O 0.26542 0.74643 0.28022 0.0
O2183 O 0.26695 0.73797 0.25371 0.0
H2184 H 0.2895 0.78486 0.21977 0.0
H2185 H 0.3044 0.80082 0.20353 0.0
H2186 H 0.32721 0.76189 0.19226 0.0
H2187 H 0.31198 0.74575 0.20864 0.0
H2188 H 0.26581 0.74864 0.31431 0.0
H2189 H 0.25163 0.73456 0.33236 0.0
H2190 H 0.22678 0.77277 0.33812 0.0
H2191 H 0.24168 0.78722 0.32035 0.0
Tb2192 Tb 0.54535 0.01906 0.51577 0.0
Tb2193 Tb 0.51229 0.01459 0.52138 0.0
C2194 C 0.57308 0.01928 0.52226 0.0
C2195 C 0.58457 0.00924 0.52047 0.0
C2196 C 0.59076 1.00332 0.53429 0.0
C2197 C 0.60266 0.99523 0.53372 0.0
C2198 C 0.60885 0.9929 0.51932 0.0
C2199 C 0.6024 0.99841 0.50529 0.0
C2200 C 0.59043 0.00657 0.50588 0.0
C2201 C 0.52714 0.01964 0.48752 0.0
C2202 C 0.52435 0.98462 0.50818 0.0
C2203 C 0.4851 0.01519 0.52273 0.0
C2204 C 0.47351 0.02508 0.52096 0.0
C2205 C 0.47306 0.03585 0.50953 0.0
C2206 C 0.46116 0.04415 0.50763 0.0
C2207 C 0.44952 0.04174 0.51706 0.0
C2208 C 0.45033 0.03125 0.52875 0.0
C2209 C 0.46216 0.02304 0.53064 0.0
C2210 C 0.53211 0.00961 0.54604 0.0
C2211 C 0.53218 0.04963 0.52441 0.0
O2212 O 0.56329 0.01474 0.53165 0.0
O2213 O 0.56704 0.02485 0.50951 0.0
O2214 O 0.52387 0.01776 0.50151 0.0
O2215 O 0.54164 0.02106 0.48926 0.0
O2216 O 0.53814 0.99317 0.51208 0.0
O2217 O 0.51225 0.99094 0.50889 0.0
O2218 O 0.48999 0.00978 0.50953 0.0
O2219 O 0.49581 0.01963 0.5353 0.0
O2220 O 0.53399 0.02026 0.53675 0.0
O2221 O 0.5185 1.00164 0.5417 0.0
O2222 O 0.51862 0.04045 0.52199 0.0
O2223 O 0.54455 0.04373 0.52399 0.0
H2224 H 0.5866 0.00526 0.54576 0.0
H2225 H 0.60712 0.99092 0.54467 0.0
H2226 H 0.60694 0.9969 0.49402 0.0
H2227 H 0.58601 0.01109 0.49504 0.0
H2228 H 0.48173 0.03764 0.50193 0.0
H2229 H 0.46087 0.0521 0.49848 0.0
H2230 H 0.44176 0.02934 0.53646 0.0
H2231 H 0.46232 0.01485 0.53958 0.0
Tb2232 Tb 0.26124 0.2649 0.76519 0.0
Tb2233 Tb 0.29606 0.26293 0.76835 0.0
C2234 C 0.23381 0.25627 0.76646 0.0
C2235 C 0.22179 0.25894 0.77613 0.0
C2236 C 0.21626 0.24699 0.78513 0.0
C2237 C 0.20398 0.24814 0.79313 0.0
C2238 C 0.19673 0.2612 0.79224 0.0
C2239 C 0.20249 0.27343 0.7836 0.0
C2240 C 0.21487 0.27228 0.77555 0.0
C2241 C 0.27911 0.2928 0.76461 0.0
C2242 C 0.28295 0.27393 0.79963 0.0
C2243 C 0.32332 0.26468 0.7659 0.0
C2244 C 0.33428 0.26695 0.75436 0.0
C2245 C 0.34384 0.2818 0.75509 0.0
C2246 C 0.35583 0.28332 0.74621 0.0
C2247 C 0.35862 0.26997 0.7365 0.0
C2248 C 0.34866 0.25529 0.73526 0.0
C2249 C 0.33669 0.25378 0.7441 0.0
C2250 C 0.27706 0.23797 0.77364 0.0
C2251 C 0.27521 0.25754 0.73341 0.0
O2252 O 0.24445 0.24987 0.77361 0.0
O2253 O 0.23891 0.26711 0.7576 0.0
O2254 O 0.28207 0.27934 0.76578 0.0
O2255 O 0.26465 0.29114 0.76404 0.0
O2256 O 0.26913 0.26898 0.79146 0.0
O2257 O 0.29523 0.27452 0.79271 0.0
O2258 O 0.31774 0.27699 0.77133 0.0
O2259 O 0.31339 0.25129 0.76315 0.0
O2260 O 0.27479 0.24714 0.7633 0.0
O2261 O 0.29079 0.24216 0.78108 0.0
O2262 O 0.28892 0.2619 0.74205 0.0
O2263 O 0.26278 0.25612 0.74011 0.0
H2264 H 0.22126 0.2365 0.78572 0.0
H2265 H 0.20008 0.23864 0.79991 0.0
H2266 H 0.19714 0.28362 0.78258 0.0
H2267 H 0.21877 0.28164 0.76862 0.0
H2268 H 0.34242 0.29214 0.76302 0.0
H2269 H 0.36332 0.29479 0.74757 0.0
H2270 H 0.35028 0.24482 0.72768 0.0
H2271 H 0.32965 0.24211 0.74331 0.0
Tb2272 Tb 0.02915 0.03604 0.52058 0.0
Tb2273 Tb 0.03184 1.00064 0.51222 0.0
C2274 C 0.03552 0.06571 0.52298 0.0
C2275 C 0.02915 0.07746 0.51422 0.0
C2276 C 0.03728 0.085 0.50325 0.0
C2277 C 0.03092 0.09477 0.49337 0.0
C2278 C 0.0164 0.09738 0.49449 0.0
C2279 C 0.00843 0.09042 0.50591 0.0
C2280 C 0.01473 0.08039 0.51566 0.0
C2281 C 1.00292 0.01664 0.52013 0.0
C2282 C 0.01894 0.01771 0.48423 0.0
C2283 C 0.03174 0.97145 0.51039 0.0
C2284 C 0.03201 0.96005 0.52206 0.0
C2285 C 0.02205 0.95895 0.53346 0.0
C2286 C 0.02315 0.94851 0.54495 0.0
C2287 C 0.03438 0.93932 0.54531 0.0
C2288 C 0.04437 0.94053 0.534 0.0
C2289 C 0.04314 0.95078 0.5224 0.0
C2290 C 0.05432 0.02259 0.50762 0.0
C2291 C 0.03813 0.01741 0.54927 0.0
O2292 O 0.0419 0.05614 0.51402 0.0
O2293 O 0.02733 0.05824 0.53258 0.0
O2294 O 0.01531 0.01335 0.5177 0.0
O2295 O 0.00496 0.03211 0.52275 0.0
O2296 O 0.02357 0.03159 0.49389 0.0
O2297 O 0.01935 1.00382 0.48944 0.0
O2298 O 0.01947 0.97726 0.50755 0.0
O2299 O 0.044 0.98232 0.51218 0.0
O2300 O 0.04694 0.02314 0.5193 0.0
O2301 O 0.04941 0.0091 0.49823 0.0
O2302 O 0.03463 1.0039 0.53894 0.0
O2303 O 0.03828 0.03157 0.54448 0.0
H2304 H 0.04844 0.08298 0.50199 0.0
H2305 H 0.03733 0.10027 0.4848 0.0
H2306 H 0.99723 0.0924 0.50694 0.0
H2307 H 0.00818 0.07472 0.52401 0.0
H2308 H 0.01352 0.9662 0.5336 0.0
H2309 H 0.01538 0.94774 0.55365 0.0
H2310 H 0.053 0.93338 0.53399 0.0
H2311 H 0.05099 0.95161 0.51377 0.0
Tb2312 Tb 0.27776 0.74939 0.76076 0.0
Tb2313 Tb 0.28108 0.78225 0.78018 0.0
C2314 C 0.28063 0.72557 0.74189 0.0
C2315 C 0.29068 0.7141 0.74336 0.0
C2316 C 0.29022 0.70216 0.73032 0.0
C2317 C 0.29909 0.6906 0.73199 0.0
C2318 C 0.30856 0.6908 0.74677 0.0
C2319 C 0.30914 0.70299 0.75975 0.0
C2320 C 0.30028 0.71456 0.75805 0.0
C2321 C 0.27515 0.74966 0.79182 0.0
C2322 C 0.30996 0.7694 0.77758 0.0
C2323 C 0.27794 0.80635 0.79845 0.0
C2324 C 0.26843 0.81834 0.79635 0.0
C2325 C 0.26142 0.82369 0.80927 0.0
C2326 C 0.25243 0.83514 0.80747 0.0
C2327 C 0.25037 0.84148 0.79273 0.0
C2328 C 0.25721 0.8359 0.77971 0.0
C2329 C 0.26608 0.82436 0.78146 0.0
C2330 C 0.2833 0.78179 0.74908 0.0
C2331 C 0.24882 0.76199 0.76385 0.0
O2332 O 0.28699 0.74022 0.74085 0.0
O2333 O 0.27097 0.72502 0.75208 0.0
O2334 O 0.28393 0.75945 0.78587 0.0
O2335 O 0.26849 0.73825 0.78037 0.0
O2336 O 0.30196 0.75858 0.76562 0.0
O2337 O 0.3035 0.77817 0.7875 0.0
O2338 O 0.27089 0.79188 0.79909 0.0
O2339 O 0.28849 0.80647 0.78934 0.0
O2340 O 0.27457 0.77213 0.75516 0.0
O2341 O 0.29039 0.79314 0.76035 0.0
O2342 O 0.25687 0.77293 0.77568 0.0
O2343 O 0.25522 0.75325 0.75385 0.0
H2344 H 0.28281 0.7016 0.71894 0.0
H2345 H 0.29824 0.68126 0.72184 0.0
H2346 H 0.31645 0.7036 0.77121 0.0
H2347 H 0.30076 0.72374 0.76826 0.0
H2348 H 0.26298 0.81908 0.82078 0.0
H2349 H 0.24734 0.83927 0.81773 0.0
H2350 H 0.25563 0.8404 0.76814 0.0
H2351 H 0.27114 0.82021 0.77119 0.0
Tb2352 Tb 0.51583 0.01872 0.00729 0.0
Tb2353 Tb 0.54319 0.01574 0.02904 0.0
C2354 C 0.48952 0.01485 0.99262 0.0
C2355 C 0.47491 0.01003 0.99763 0.0
C2356 C 0.47353 1.00074 0.0103 0.0
C2357 C 0.45952 0.99556 0.01459 0.0
C2358 C 0.44666 0.99948 0.00617 0.0
C2359 C 0.44816 0.00925 0.99387 0.0
C2360 C 0.46223 0.01453 0.98965 0.0
C2361 C 0.53509 0.04555 0.01716 0.0
C2362 C 0.51516 0.01838 0.04638 0.0
C2363 C 0.56951 0.01933 0.04351 0.0
C2364 C 0.58421 0.02363 0.03841 0.0
C2365 C 0.58705 0.03601 0.02898 0.0
C2366 C 0.60122 0.04037 0.02473 0.0
C2367 C 0.61276 0.03227 0.0296 0.0
C2368 C 0.60963 0.01938 0.03839 0.0
C2369 C 0.59549 0.01517 0.04283 0.0
C2370 C 0.52384 0.98895 0.01886 0.0
C2371 C 0.54397 0.01626 0.99001 0.0
O2372 O 0.4977 1.00382 0.99188 0.0
O2373 O 0.49722 0.02874 0.9998 0.0
O2374 O 0.53159 0.03458 0.02549 0.0
O2375 O 0.52697 0.04201 0.00282 0.0
O2376 O 0.50755 0.01617 0.03123 0.0
O2377 O 0.52998 0.01996 0.04866 0.0
O2378 O 0.56152 0.03055 0.0442 0.0
O2379 O 0.56156 0.00543 0.03672 0.0
O2380 O 0.52752 1.00001 0.01075 0.0
O2381 O 0.53185 0.99233 0.03328 0.0
O2382 O 0.55158 0.01828 0.00516 0.0
O2383 O 0.52916 0.01482 0.98772 0.0
H2384 H 0.4832 0.99705 0.01655 0.0
H2385 H 0.45867 0.98781 0.02392 0.0
H2386 H 0.4384 0.01248 0.98725 0.0
H2387 H 0.46317 0.02181 0.97994 0.0
H2388 H 0.57842 0.04256 0.02517 0.0
H2389 H 0.60324 0.05048 0.01815 0.0
H2390 H 0.61817 0.01268 0.04205 0.0
H2391 H 0.59339 0.0054 0.04987 0.0
Tb2392 Tb 0.2646 0.25573 0.26062 0.0
Tb2393 Tb 0.29286 0.27791 0.27223 0.0
C2394 C 0.23852 0.24004 0.25854 0.0
C2395 C 0.22379 0.24436 0.25851 0.0
C2396 C 0.21331 0.23547 0.26627 0.0
C2397 C 0.19993 0.24044 0.26823 0.0
C2398 C 0.19677 0.25439 0.26236 0.0
C2399 C 0.20717 0.26306 0.25415 0.0
C2400 C 0.22063 0.25812 0.25231 0.0
C2401 C 0.2776 0.26763 0.23725 0.0
C2402 C 0.26415 0.29375 0.27029 0.0
C2403 C 0.31891 0.29365 0.27422 0.0
C2404 C 0.33369 0.2894 0.27492 0.0
C2405 C 0.34453 0.29834 0.26761 0.0
C2406 C 0.35804 0.2934 0.2663 0.0
C2407 C 0.36095 0.27945 0.27235 0.0
C2408 C 0.35019 0.27076 0.28012 0.0
C2409 C 0.33662 0.27567 0.28134 0.0
C2410 C 0.27983 0.26617 0.29564 0.0
C2411 C 0.29329 0.23982 0.26277 0.0
O2412 O 0.24769 0.24467 0.27234 0.0
O2413 O 0.24505 0.24261 0.24584 0.0
O2414 O 0.27671 0.27498 0.2509 0.0
O2415 O 0.27054 0.25298 0.23606 0.0
O2416 O 0.25651 0.27868 0.26729 0.0
O2417 O 0.27899 0.29644 0.27147 0.0
O2418 O 0.30994 0.28838 0.26037 0.0
O2419 O 0.31218 0.29163 0.2869 0.0
O2420 O 0.28071 0.25876 0.28201 0.0
O2421 O 0.28704 0.28075 0.2968 0.0
O2422 O 0.30096 0.25488 0.26596 0.0
O2423 O 0.27844 0.23714 0.26126 0.0
H2424 H 0.21571 0.22496 0.27133 0.0
H2425 H 0.19234 0.23368 0.27493 0.0
H2426 H 0.20502 0.27378 0.24939 0.0
H2427 H 0.2287 0.26524 0.24641 0.0
H2428 H 0.34232 0.30883 0.26241 0.0
H2429 H 0.36594 0.30018 0.25994 0.0
H2430 H 0.35216 0.26004 0.285 0.0
H2431 H 0.32828 0.26854 0.28691 0.0
Tb2432 Tb 0.52643 0.53244 0.02155 0.0
Tb2433 Tb 0.53053 0.50008 0.01209 0.0
C2434 C 0.52602 0.56165 0.02398 0.0
C2435 C 0.52145 0.57213 0.01243 0.0
C2436 C 0.52679 0.57232 0.99745 0.0
C2437 C 0.5222 0.58233 0.98663 0.0
C2438 C 0.51204 0.59214 0.99052 0.0
C2439 C 0.5064 0.59154 0.00532 0.0
C2440 C 0.51115 0.58168 0.01622 0.0
C2441 C 0.5042 0.51016 0.02602 0.0
C2442 C 0.51765 0.51654 0.98421 0.0
C2443 C 0.53114 0.4709 0.00967 0.0
C2444 C 0.53444 0.46004 0.02142 0.0
C2445 C 0.52475 0.45593 0.0326 0.0
C2446 C 0.52827 0.44583 0.04381 0.0
C2447 C 0.54156 0.43978 0.04412 0.0
C2448 C 0.55128 0.44404 0.03304 0.0
C2449 C 0.5477 0.45399 0.02171 0.0
C2450 C 0.55272 0.52247 0.00762 0.0
C2451 C 0.53919 0.5159 0.04932 0.0
O2452 O 0.53797 0.55576 0.02187 0.0
O2453 O 0.51513 0.55103 0.02712 0.0
O2454 O 0.51106 0.51004 0.0139 0.0
O2455 O 0.50945 0.5233 0.03586 0.0
O2456 O 0.52146 0.52987 0.99473 0.0
O2457 O 0.51848 0.50257 0.9889 0.0
O2458 O 0.51884 0.47657 0.01016 0.0
O2459 O 0.54251 0.4818 0.00807 0.0
O2460 O 0.5459 0.52245 0.01977 0.0
O2461 O 0.54742 0.50937 0.99773 0.0
O2462 O 0.53469 0.50254 0.03893 0.0
O2463 O 0.53901 0.52991 0.04447 0.0
H2464 H 0.5346 0.56486 0.99413 0.0
H2465 H 0.52689 0.58265 0.97542 0.0
H2466 H 0.49835 0.59872 0.00852 0.0
H2467 H 0.50675 0.58148 0.02762 0.0
H2468 H 0.51445 0.46045 0.03269 0.0
H2469 H 0.52043 0.44255 0.05203 0.0
H2470 H 0.56171 0.43974 0.03315 0.0
H2471 H 0.55536 0.45706 0.01325 0.0
Tb2472 Tb 0.77775 0.25035 0.26086 0.0
Tb2473 Tb 0.78217 0.28424 0.27891 0.0
C2474 C 0.78047 0.22573 0.24313 0.0
C2475 C 0.79028 0.214 0.24449 0.0
C2476 C 0.79433 0.20671 0.23035 0.0
C2477 C 0.80329 0.19518 0.23129 0.0
C2478 C 0.80826 0.19064 0.24643 0.0
C2479 C 0.80446 0.19831 0.26067 0.0
C2480 C 0.79561 0.20996 0.25971 0.0
C2481 C 0.77214 0.25247 0.29093 0.0
C2482 C 0.80991 0.26839 0.28032 0.0
C2483 C 0.77919 0.30899 0.29626 0.0
C2484 C 0.76945 0.32076 0.29419 0.0
C2485 C 0.76259 0.32606 0.30725 0.0
C2486 C 0.75347 0.3374 0.3056 0.0
C2487 C 0.75114 0.34367 0.29086 0.0
C2488 C 0.75781 0.33813 0.27769 0.0
C2489 C 0.76682 0.3267 0.2793 0.0
C2490 C 0.78729 0.28209 0.24866 0.0
C2491 C 0.74989 0.26588 0.25986 0.0
O2492 O 0.78704 0.24014 0.24154 0.0
O2493 O 0.77087 0.22577 0.2534 0.0
O2494 O 0.78236 0.26121 0.28568 0.0
O2495 O 0.76545 0.24106 0.27946 0.0
O2496 O 0.80197 0.25703 0.26882 0.0
O2497 O 0.80379 0.27919 0.28818 0.0
O2498 O 0.77245 0.29464 0.2978 0.0
O2499 O 0.78929 0.30877 0.28659 0.0
O2500 O 0.77729 0.27332 0.25413 0.0
O2501 O 0.79409 0.29359 0.25997 0.0
O2502 O 0.75784 0.27725 0.27137 0.0
O2503 O 0.75615 0.25541 0.2517 0.0
H2504 H 0.79048 0.20986 0.21853 0.0
H2505 H 0.80629 0.18982 0.22013 0.0
H2506 H 0.80799 0.19505 0.27251 0.0
H2507 H 0.79276 0.21563 0.27083 0.0
H2508 H 0.76438 0.32152 0.31878 0.0
H2509 H 0.74851 0.34152 0.31597 0.0
H2510 H 0.75602 0.34259 0.26611 0.0
H2511 H 0.77177 0.32259 0.26892 0.0
Tb2512 Tb 0.01512 0.51582 0.50659 0.0
Tb2513 Tb 0.04293 0.51408 0.52843 0.0
C2514 C 0.98859 0.51089 0.49234 0.0
C2515 C 0.97419 0.50662 0.49805 0.0
C2516 C 0.97268 0.49653 0.51004 0.0
C2517 C 0.95896 0.49253 0.51543 0.0
C2518 C 0.94652 0.49863 0.509 0.0
C2519 C 0.9482 0.50906 0.49728 0.0
C2520 C 0.96194 0.513 0.49183 0.0
C2521 C 0.03373 0.54312 0.51597 0.0
C2522 C 0.01485 0.51636 0.54586 0.0
C2523 C 0.06949 0.51848 0.54247 0.0
C2524 C 0.08392 0.52257 0.53669 0.0
C2525 C 0.08634 0.53464 0.52683 0.0
C2526 C 0.10016 0.53861 0.52164 0.0
C2527 C 0.11177 0.53041 0.526 0.0
C2528 C 0.10906 0.51789 0.53534 0.0
C2529 C 0.09527 0.51407 0.54071 0.0
C2530 C 0.0243 0.48676 0.5187 0.0
C2531 C 0.04331 0.51401 0.48924 0.0
O2532 O 0.99691 0.49997 0.49229 0.0
O2533 O 0.99628 0.52515 0.49829 0.0
O2534 O 0.03062 0.53225 0.52453 0.0
O2535 O 0.0255 0.53926 0.50169 0.0
O2536 O 0.00713 0.51365 0.53073 0.0
O2537 O 0.02971 0.51835 0.54807 0.0
O2538 O 0.06133 0.52955 0.54284 0.0
O2539 O 0.06158 0.50433 0.53646 0.0
O2540 O 0.02756 0.49776 0.51038 0.0
O2541 O 0.03232 0.49056 0.5331 0.0
O2542 O 0.05101 0.51657 0.50438 0.0
O2543 O 0.02845 0.51195 0.48699 0.0
H2544 H 0.98205 0.49157 0.51513 0.0
H2545 H 0.95801 0.48429 0.52428 0.0
H2546 H 0.93887 0.51413 0.49226 0.0
H2547 H 0.96299 0.52098 0.48274 0.0
H2548 H 0.07765 0.54122 0.52331 0.0
H2549 H 0.10187 0.54848 0.51469 0.0
H2550 H 0.11765 0.51114 0.53867 0.0
H2551 H 0.09349 0.50453 0.54808 0.0
Tb2552 Tb 0.7619 0.76875 0.26442 0.0
Tb2553 Tb 0.79467 0.76537 0.26979 0.0
C2554 C 0.73423 0.76687 0.2652 0.0
C2555 C 0.72316 0.76634 0.27668 0.0
C2556 C 0.71706 0.75191 0.28183 0.0
C2557 C 0.7052 0.75111 0.29088 0.0
C2558 C 0.69909 0.7647 0.29496 0.0
C2559 C 0.7055 0.77922 0.2902 0.0
C2560 C 0.71733 0.78001 0.28114 0.0
C2561 C 0.78137 0.79342 0.25961 0.0
C2562 C 0.78093 0.77542 0.30047 0.0
C2563 C 0.82235 0.76732 0.26905 0.0
C2564 C 0.83343 0.76732 0.25757 0.0
C2565 C 0.84017 0.78163 0.25265 0.0
C2566 C 0.85206 0.78194 0.24368 0.0
C2567 C 0.85758 0.76799 0.23946 0.0
C2568 C 0.85051 0.7536 0.24396 0.0
C2569 C 0.83865 0.75329 0.25295 0.0
C2570 C 0.77513 0.74072 0.27457 0.0
C2571 C 0.77555 0.75861 0.23372 0.0
O2572 O 0.74058 0.75447 0.26277 0.0
O2573 O 0.74365 0.78035 0.26578 0.0
O2574 O 0.7831 0.78473 0.27058 0.0
O2575 O 0.76793 0.78904 0.25142 0.0
O2576 O 0.76761 0.77124 0.29109 0.0
O2577 O 0.79359 0.77579 0.29441 0.0
O2578 O 0.81588 0.7797 0.27077 0.0
O2579 O 0.81306 0.75391 0.26914 0.0
O2580 O 0.7735 0.74943 0.26362 0.0
O2581 O 0.78856 0.74505 0.28278 0.0
O2582 O 0.7889 0.76259 0.24306 0.0
O2583 O 0.76294 0.75841 0.23981 0.0
H2584 H 0.72116 0.74109 0.27852 0.0
H2585 H 0.70071 0.73978 0.29452 0.0
H2586 H 0.701 0.78989 0.29291 0.0
H2587 H 0.7216 0.79126 0.27717 0.0
H2588 H 0.83659 0.79272 0.25617 0.0
H2589 H 0.8573 0.79328 0.24061 0.0
H2590 H 0.85426 0.74256 0.24073 0.0
H2591 H 0.83384 0.74209 0.25667 0.0
Tb2592 Tb 0.78262 0.26112 0.75409 0.0
Tb2593 Tb 0.77384 0.2739 0.78256 0.0
C2594 C 0.79008 0.25546 0.72659 0.0
C2595 C 0.80102 0.26445 0.71808 0.0
C2596 C 0.79944 0.2795 0.71398 0.0
C2597 C 0.8093 0.28737 0.70494 0.0
C2598 C 0.82105 0.28041 0.69989 0.0
C2599 C 0.82334 0.26597 0.70521 0.0
C2600 C 0.81331 0.25798 0.7141 0.0
C2601 C 0.80092 0.25877 0.78063 0.0
C2602 C 0.7934 0.29898 0.76658 0.0
C2603 C 0.76681 0.27969 0.81031 0.0
C2604 C 0.75668 0.27062 0.81956 0.0
C2605 C 0.75709 0.25459 0.82099 0.0
C2606 C 0.74776 0.24634 0.83033 0.0
C2607 C 0.73786 0.25396 0.83838 0.0
C2608 C 0.73685 0.26971 0.83611 0.0
C2609 C 0.74624 0.27799 0.82679 0.0
C2610 C 0.75562 0.27637 0.75603 0.0
C2611 C 0.76296 0.23612 0.76985 0.0
O2612 O 0.77826 0.26152 0.72891 0.0
O2613 O 0.79581 0.25009 0.73948 0.0
O2614 O 0.79553 0.27089 0.77779 0.0
O2615 O 0.79582 0.24749 0.76857 0.0
O2616 O 0.79049 0.28734 0.75398 0.0
O2617 O 0.7895 0.29572 0.78065 0.0
O2618 O 0.77888 0.27421 0.80781 0.0
O2619 O 0.76023 0.28413 0.79727 0.0
O2620 O 0.76098 0.26421 0.75882 0.0
O2621 O 0.76059 0.28756 0.76819 0.0
O2622 O 0.76623 0.24762 0.78259 0.0
O2623 O 0.76655 0.23955 0.75571 0.0
H2624 H 0.79024 0.28496 0.71718 0.0
H2625 H 0.80696 0.29834 0.70095 0.0
H2626 H 0.83241 0.26041 0.70178 0.0
H2627 H 0.81492 0.24652 0.71747 0.0
H2628 H 0.76494 0.24858 0.81537 0.0
H2629 H 0.74903 0.23431 0.83205 0.0
H2630 H 0.72926 0.27583 0.84209 0.0
H2631 H 0.7456 0.29027 0.82554 0.0
Tb2632 Tb 0.76381 0.75638 0.75956 0.0
Tb2633 Tb 0.79182 0.77764 0.77417 0.0
C2634 C 0.73705 0.74205 0.75441 0.0
C2635 C 0.72326 0.74792 0.75664 0.0
C2636 C 0.72267 0.75806 0.77087 0.0
C2637 C 0.70975 0.764 0.77277 0.0
C2638 C 0.69718 0.7601 0.76039 0.0
C2639 C 0.69789 0.75017 0.74601 0.0
C2640 C 0.71084 0.74411 0.74418 0.0
C2641 C 0.77953 0.7682 0.73803 0.0
C2642 C 0.76373 0.79416 0.77115 0.0
C2643 C 0.81837 0.79267 0.77959 0.0
C2644 C 0.8322 0.78814 0.7755 0.0
C2645 C 0.83179 0.77757 0.76125 0.0
C2646 C 0.84495 0.77355 0.75708 0.0
C2647 C 0.85871 0.77995 0.76713 0.0
C2648 C 0.85907 0.79005 0.78171 0.0
C2649 C 0.84584 0.79416 0.78585 0.0
C2650 C 0.77597 0.76592 0.79562 0.0
C2651 C 0.79188 0.73986 0.76258 0.0
O2652 O 0.7463 0.74201 0.76778 0.0
O2653 O 0.74396 0.74763 0.74296 0.0
O2654 O 0.77774 0.77547 0.7514 0.0
O2655 O 0.77195 0.7537 0.73617 0.0
O2656 O 0.75595 0.77924 0.76692 0.0
O2657 O 0.77858 0.79668 0.77382 0.0
O2658 O 0.80861 0.79394 0.76709 0.0
O2659 O 0.81217 0.7849 0.79027 0.0
O2660 O 0.77791 0.75861 0.78236 0.0
O2661 O 0.78346 0.78045 0.79741 0.0
O2662 O 0.79963 0.75486 0.76623 0.0
O2663 O 0.77701 0.7373 0.76042 0.0
H2664 H 0.73218 0.7614 0.78062 0.0
H2665 H 0.70952 0.77135 0.78413 0.0
H2666 H 0.68846 0.7471 0.73618 0.0
H2667 H 0.71119 0.7365 0.733 0.0
H2668 H 0.82132 0.77261 0.75319 0.0
H2669 H 0.84442 0.76557 0.74589 0.0
H2670 H 0.86961 0.79513 0.78959 0.0
H2671 H 0.84628 0.80218 0.79697 0.0
Tb2672 Tb 0.51288 0.50888 0.50816 0.0
Tb2673 Tb 0.5426 0.52579 0.52577 0.0
C2674 C 0.48532 0.49975 0.49828 0.0
C2675 C 0.473 0.50837 0.49659 0.0
C2676 C 0.47487 0.52387 0.50493 0.0
C2677 C 0.4633 0.53232 0.50317 0.0
C2678 C 0.44964 0.5253 0.49321 0.0
C2679 C 0.4477 0.5097 0.485 0.0
C2680 C 0.45941 0.5013 0.4866 0.0
C2681 C 0.53504 0.50695 0.4914 0.0
C2682 C 0.52314 0.54662 0.50847 0.0
C2683 C 0.57001 0.53395 0.53634 0.0
C2684 C 0.58136 0.52399 0.53656 0.0
C2685 C 0.57971 0.51104 0.52416 0.0
C2686 C 0.58927 0.50024 0.52524 0.0
C2687 C 0.60056 0.50212 0.53879 0.0
C2688 C 0.60244 0.51528 0.55105 0.0
C2689 C 0.59281 0.52615 0.54995 0.0
C2690 C 0.52029 0.52736 0.54245 0.0
C2691 C 0.53292 0.48799 0.52453 0.0
O2692 O 0.49161 0.49988 0.51331 0.0
O2693 O 0.49517 0.50279 0.48853 0.0
O2694 O 0.53343 0.51894 0.50067 0.0
O2695 O 0.52348 0.49564 0.49063 0.0
O2696 O 0.51185 0.53428 0.50704 0.0
O2697 O 0.53694 0.54559 0.51433 0.0
O2698 O 0.56401 0.53601 0.52181 0.0
O2699 O 0.55997 0.53032 0.54573 0.0
O2700 O 0.52216 0.51551 0.5332 0.0
O2701 O 0.53167 0.53886 0.54316 0.0
O2702 O 0.54407 0.5004 0.52579 0.0
O2703 O 0.51898 0.48902 0.51927 0.0
H2704 H 0.48518 0.5294 0.51295 0.0
H2705 H 0.46493 0.54421 0.50989 0.0
H2706 H 0.4372 0.5041 0.47729 0.0
H2707 H 0.45786 0.48931 0.48013 0.0
H2708 H 0.57082 0.50904 0.51378 0.0
H2709 H 0.58777 0.49036 0.51548 0.0
H2710 H 0.61107 0.51691 0.56163 0.0
H2711 H 0.59404 0.53596 0.55973 0.0
Tb2712 Tb 0.04466 0.51863 0.01495 0.0
Tb2713 Tb 0.01171 0.51482 0.02086 0.0
C2714 C 0.07207 0.51782 0.0219 0.0
C2715 C 0.08383 0.50829 0.01966 0.0
C2716 C 0.09047 0.50258 0.03337 0.0
C2717 C 0.10252 0.49478 0.0325 0.0
C2718 C 0.10839 0.49254 0.01789 0.0
C2719 C 0.10149 0.49784 0.00396 0.0
C2720 C 0.08935 0.50573 0.00485 0.0
C2721 C 0.02657 0.51985 0.98689 0.0
C2722 C 0.02287 0.48454 0.00649 0.0
C2723 C 0.98471 0.5162 0.02239 0.0
C2724 C 0.97345 0.52651 0.02065 0.0
C2725 C 0.97292 0.53681 0.00877 0.0
C2726 C 0.96143 0.54568 0.00711 0.0
C2727 C 0.95032 0.5444 0.01732 0.0
C2728 C 0.95109 0.53415 0.02924 0.0
C2729 C 0.96252 0.52537 0.03089 0.0
C2730 C 0.03145 0.50945 0.0454 0.0
C2731 C 0.03222 0.54946 0.02416 0.0
O2732 O 0.06168 0.51178 0.02998 0.0
O2733 O 0.06678 0.52507 0.01003 0.0
O2734 O 0.02322 0.5179 1.00087 0.0
O2735 O 0.04107 0.52111 0.98859 0.0
O2736 O 0.03677 0.49288 0.00947 0.0
O2737 O 0.01103 0.49089 0.00875 0.0
O2738 O 0.98937 0.51048 0.00917 0.0
O2739 O 0.99551 0.52048 0.03489 0.0
O2740 O 0.03348 0.52002 0.03605 0.0
O2741 O 0.01771 0.50185 0.04123 0.0
O2742 O 0.0185 0.54062 0.02132 0.0
O2743 O 0.04442 0.54325 0.02396 0.0
H2744 H 0.08652 0.50444 0.04497 0.0
H2745 H 0.10734 0.49061 0.04338 0.0
H2746 H 0.10577 0.49634 0.99252 0.0
H2747 H 0.08451 0.51006 0.99409 0.0
H2748 H 0.98127 0.5379 1.00073 0.0
H2749 H 0.9613 0.55356 0.9979 0.0
H2750 H 0.94264 0.53255 0.03712 0.0
H2751 H 0.96267 0.51742 0.04006 0.0
C2752 C 0.99719 0.1657 0.95015 0.0
C2753 C 0.01027 0.17638 0.94857 0.0
C2754 C 0.99808 0.15148 0.9566 0.0
C2755 C 0.02447 0.12393 0.96506 0.0
H2756 H 0.99629 0.10767 0.99271 0.0
C2757 C 0.03388 0.07307 1.00185 0.0
C2758 C 0.02152 0.06086 1.00208 0.0
C2759 C 0.03191 0.087 0.99545 0.0
C2760 C 0.00415 0.11197 0.98487 0.0
H2761 H 0.0346 0.18018 0.95252 0.0
H2762 H 0.03613 0.15592 0.96434 0.0
H2763 H 0.9941 0.13227 0.9814 0.0
H2764 H 0.99731 0.05396 0.99608 0.0
H2765 H 0.99387 0.07842 0.9849 0.0
H2766 H 0.03463 0.10378 0.96872 0.0
C2767 C 0.02514 0.15833 0.9603 0.0
C2768 C 1.00289 0.12608 0.97835 0.0
C2769 C 0.02425 0.17246 0.95374 0.0
C2770 C 0.00707 0.06312 0.99609 0.0
C2771 C 0.0051 0.07716 0.98974 0.0
C2772 C 0.02577 0.10992 0.97165 0.0
C2773 C 0.01207 0.14757 0.96173 0.0
C2774 C 0.01311 0.13233 0.96843 0.0
C2775 C 0.01754 0.08917 0.98914 0.0
C2776 C 0.01571 0.10382 0.98174 0.0
H2777 H 0.98621 0.16835 0.94652 0.0
H2778 H 0.98775 0.14346 0.95734 0.0
H2779 H 0.03233 0.12809 0.95718 0.0
H2780 H 0.04518 0.07183 0.00638 0.0
H2781 H 0.04171 0.09611 0.99545 0.0
C2782 C 0.13417 0.79356 0.18442 0.0
C2783 C 0.12513 0.7804 0.17396 0.0
C2784 C 0.14848 0.79265 0.19211 0.0
C2785 C 0.17878 0.76871 0.19059 0.0
H2786 H 0.19226 0.79059 0.23469 0.0
C2787 C 0.23338 0.76149 0.23205 0.0
C2788 C 0.24183 0.77552 0.24162 0.0
C2789 C 0.2194 0.76164 0.22286 0.0
C2790 C 0.18875 0.78452 0.22232 0.0
H2791 H 0.12447 0.75601 0.16317 0.0
H2792 H 0.14909 0.75426 0.17698 0.0
H2793 H 0.16751 0.79173 0.22082 0.0
H2794 H 0.24258 0.80079 0.24844 0.0
H2795 H 0.21844 0.80106 0.2325 0.0
H2796 H 0.20008 0.76133 0.19233 0.0
C2797 C 0.14521 0.7654 0.17909 0.0
C2798 C 0.17452 0.78521 0.2143 0.0
C2799 C 0.13093 0.76634 0.17133 0.0
C2800 C 0.2363 0.78975 0.24131 0.0
C2801 C 0.22239 0.78988 0.23225 0.0
C2802 C 0.19302 0.76793 0.19868 0.0
C2803 C 0.15419 0.77852 0.18966 0.0
C2804 C 0.16935 0.77745 0.19825 0.0
C2805 C 0.21359 0.7758 0.22317 0.0
C2806 C 0.19825 0.77597 0.21459 0.0
H2807 H 0.13011 0.80456 0.18689 0.0
H2808 H 0.1551 0.80312 0.19992 0.0
H2809 H 0.17532 0.76271 0.17819 0.0
H2810 H 0.23735 0.75034 0.23207 0.0
H2811 H 0.2129 0.75057 0.216 0.0
C2812 C 0.52589 0.84231 0.46923 0.0
C2813 C 0.51643 0.83563 0.4545 0.0
C2814 C 0.52628 0.8581 0.47599 0.0
C2815 C 0.50467 0.89014 0.47695 0.0
H2816 H 0.54335 0.91877 0.48698 0.0
C2817 C 0.50982 0.95854 0.49266 0.0
C2818 C 0.52263 0.96726 0.5031 0.0
C2819 C 0.5087 0.94225 0.48734 0.0
C2820 C 0.53245 0.91096 0.48461 0.0
H2821 H 0.4996 0.83996 0.43561 0.0
H2822 H 0.50007 0.86741 0.4476 0.0
H2823 H 0.54195 0.89067 0.47743 0.0
H2824 H 0.54401 0.96567 0.51676 0.0
H2825 H 0.54177 0.93728 0.50829 0.0
H2826 H 0.49511 0.91019 0.48453 0.0
C2827 C 0.50726 0.86051 0.45382 0.0
C2828 C 0.53168 0.89483 0.47904 0.0
C2829 C 0.50707 0.84486 0.44692 0.0
C2830 C 0.53408 0.9593 0.5085 0.0
C2831 C 0.53283 0.94299 0.50351 0.0
C2832 C 0.50544 0.90623 0.48285 0.0
C2833 C 0.517 0.86736 0.46831 0.0
C2834 C 0.51779 0.88429 0.47503 0.0
C2835 C 0.52024 0.93423 0.49263 0.0
C2836 C 0.51934 0.91693 0.48667 0.0
H2837 H 0.53325 0.83546 0.47527 0.0
H2838 H 0.53384 0.86309 0.48721 0.0
H2839 H 0.49381 0.88222 0.47403 0.0
H2840 H 0.50084 0.96439 0.48824 0.0
H2841 H 0.49892 0.93608 0.47878 0.0
C2842 C 0.47231 0.29079 0.67082 0.0
C2843 C 0.4801 0.27806 0.67089 0.0
C2844 C 0.45914 0.29018 0.67771 0.0
C2845 C 0.42887 0.26155 0.69025 0.0
H2846 H 0.42077 0.2995 0.7145 0.0
C2847 C 0.38052 0.25875 0.72825 0.0
C2848 C 0.37226 0.2711 0.7284 0.0
C2849 C 0.39347 0.2598 0.72098 0.0
C2850 C 0.42274 0.28883 0.7076 0.0
H2851 H 0.48026 0.2549 0.67874 0.0
H2852 H 0.45743 0.25388 0.69082 0.0
H2853 H 0.44373 0.301 0.70255 0.0
H2854 H 0.37121 0.29423 0.72083 0.0
H2855 H 0.3938 0.29604 0.70806 0.0
H2856 H 0.40792 0.24935 0.69532 0.0
C2857 C 0.46131 0.26421 0.68513 0.0
C2858 C 0.43595 0.28968 0.70073 0.0
C2859 C 0.47445 0.2648 0.67821 0.0
C2860 C 0.37736 0.28456 0.72109 0.0
C2861 C 0.39033 0.28561 0.71378 0.0
C2862 C 0.41568 0.26069 0.69711 0.0
C2863 C 0.45341 0.27684 0.68489 0.0
C2864 C 0.43923 0.27603 0.69203 0.0
C2865 C 0.39857 0.27323 0.71362 0.0
C2866 C 0.41246 0.27429 0.70595 0.0
H2867 H 0.47619 0.30109 0.66508 0.0
H2868 H 0.45327 0.30004 0.67708 0.0
H2869 H 0.43083 0.25085 0.68337 0.0
H2870 H 0.37715 0.24836 0.73407 0.0
H2871 H 0.39965 0.25018 0.72141 0.0
C2872 C 0.02999 0.82158 0.60976 0.0
C2873 C 0.04239 0.82006 0.62091 0.0
C2874 C 0.02972 0.83578 0.60337 0.0
C2875 C 0.05329 0.87026 0.59346 0.0
H2876 H 0.01832 0.88975 0.59502 0.0
C2877 C 0.04927 0.9278 0.56636 0.0
C2878 C 0.03542 0.92799 0.55705 0.0
C2879 C 0.05055 0.91607 0.57635 0.0
C2880 C 0.0281 0.88439 0.59439 0.0
H2881 H 0.06427 0.83217 0.63399 0.0
H2882 H 0.06394 0.85685 0.62226 0.0
H2883 H 0.01984 0.86581 0.60772 0.0
H2884 H 0.01202 0.91651 0.55089 0.0
H2885 H 0.01428 0.89567 0.56795 0.0
H2886 H 0.06129 0.88827 0.57949 0.0
C2887 C 0.05445 0.84703 0.61865 0.0
C2888 C 0.02898 0.87076 0.60169 0.0
C2889 C 0.05465 0.83289 0.62524 0.0
C2890 C 0.02277 0.91663 0.55815 0.0
C2891 C 0.02407 0.90477 0.56796 0.0
C2892 C 0.05234 0.88376 0.58596 0.0
C2893 C 0.04191 0.84859 0.60784 0.0
C2894 C 0.04148 0.86353 0.60109 0.0
C2895 C 0.03802 0.90425 0.57698 0.0
C2896 C 0.03964 0.89083 0.58618 0.0
H2897 H 0.02052 0.81179 0.60592 0.0
H2898 H 0.02004 0.83671 0.5948 0.0
H2899 H 0.06298 0.86473 0.59279 0.0
H2900 H 0.05913 0.9366 0.56573 0.0
H2901 H 0.06137 0.91613 0.58338 0.0
C2902 C 0.44721 0.78813 0.80343 0.0
C2903 C 0.45073 0.7774 0.81416 0.0
C2904 C 0.43236 0.78739 0.79642 0.0
C2905 C 0.39501 0.76123 0.78822 0.0
H2906 H 0.38003 0.80075 0.793 0.0
C2907 C 0.33311 0.76249 0.7687 0.0
C2908 C 0.32637 0.77123 0.77988 0.0
C2909 C 0.34861 0.76405 0.77065 0.0
C2910 C 0.38408 0.78964 0.79161 0.0
H2911 H 0.44144 0.75744 0.82587 0.0
H2912 H 0.41574 0.75602 0.8135 0.0
H2913 H 0.4069 0.80136 0.79976 0.0
H2914 H 0.33058 0.78872 0.8017 0.0
H2915 H 0.35779 0.79118 0.80534 0.0
H2916 H 0.37222 0.74939 0.78085 0.0
C2917 C 0.42443 0.76484 0.8103 0.0
C2918 C 0.39944 0.79001 0.79525 0.0
C2919 C 0.43919 0.76564 0.81735 0.0
C2920 C 0.33546 0.78178 0.79293 0.0
C2921 C 0.35103 0.7833 0.79493 0.0
C2922 C 0.37969 0.76085 0.7846 0.0
C2923 C 0.42085 0.77584 0.79997 0.0
C2924 C 0.40498 0.77576 0.79391 0.0
C2925 C 0.35771 0.77433 0.78387 0.0
C2926 C 0.37406 0.77502 0.78654 0.0
H2927 H 0.4559 0.79723 0.80064 0.0
H2928 H 0.42985 0.79593 0.78839 0.0
H2929 H 0.39902 0.75009 0.78698 0.0
H2930 H 0.32643 0.75437 0.75839 0.0
H2931 H 0.35347 0.75717 0.76182 0.0
C2932 C 0.52938 0.16576 0.09449 0.0
C2933 C 0.5417 0.17787 0.10146 0.0
C2934 C 0.5312 0.15307 0.08346 0.0
C2935 C 0.55923 0.13046 0.07202 0.0
H2936 H 0.52885 0.1134 0.03422 0.0
C2937 C 0.54108 0.07463 0.01543 0.0
C2938 C 0.54166 0.06202 0.02462 0.0
C2939 C 0.54445 0.09038 0.02318 0.0
C2940 C 0.5376 0.11818 0.04453 0.0
H2941 H 0.56551 0.18641 0.10205 0.0
H2942 H 0.56871 0.16404 0.08289 0.0
H2943 H 0.52753 0.13824 0.05069 0.0
H2944 H 0.5473 0.05589 0.04884 0.0
H2945 H 0.55317 0.08334 0.06238 0.0
H2946 H 0.5691 0.11017 0.06604 0.0
C2947 C 0.55769 0.16436 0.08608 0.0
C2948 C 0.53672 0.13228 0.05407 0.0
C2949 C 0.55586 0.17711 0.09707 0.0
C2950 C 0.54679 0.06541 0.04147 0.0
C2951 C 0.5502 0.08114 0.04922 0.0
C2952 C 0.56009 0.11631 0.06249 0.0
C2953 C 0.54538 0.15222 0.07921 0.0
C2954 C 0.54732 0.13834 0.06811 0.0
C2955 C 0.54852 0.09373 0.04022 0.0
C2956 C 0.5491 0.10987 0.04885 0.0
H2957 H 0.51838 0.16588 0.09782 0.0
H2958 H 0.52157 0.14371 0.07856 0.0
H2959 H 0.5675 0.13484 0.08285 0.0
H2960 H 0.53723 0.0723 1.00239 0.0
H2961 H 0.54325 0.0999 0.01596 0.0
C2962 C 0.09545 0.29848 0.3256 0.0
C2963 C 0.08893 0.28483 0.33183 0.0
C2964 C 0.10683 0.29775 0.31614 0.0
C2965 C 0.11965 0.27109 0.2877 0.0
H2966 H 0.16047 0.29369 0.30304 0.0
C2967 C 0.1697 0.24943 0.26559 0.0
C2968 C 0.18311 0.26029 0.26578 0.0
C2969 C 0.15746 0.25465 0.27104 0.0
C2970 C 0.14908 0.28761 0.29829 0.0
H2971 H 0.08984 0.25998 0.33371 0.0
H2972 H 0.10922 0.25864 0.31663 0.0
H2973 H 0.14051 0.29915 0.31817 0.0
H2974 H 0.19387 0.28532 0.27095 0.0
H2975 H 0.17219 0.29455 0.27966 0.0
H2976 H 0.12799 0.25951 0.26785 0.0
C2977 C 0.10542 0.26981 0.31906 0.0
C2978 C 0.13771 0.2907 0.30703 0.0
C2979 C 0.0943 0.2706 0.32875 0.0
C2980 C 0.18368 0.27664 0.27055 0.0
C2981 C 0.17131 0.28191 0.27578 0.0
C2982 C 0.13092 0.26822 0.27877 0.0
C2983 C 0.11162 0.28331 0.31257 0.0
C2984 C 0.12306 0.28207 0.30205 0.0
C2985 C 0.15821 0.27091 0.27653 0.0
C2986 C 0.14587 0.27602 0.28429 0.0
H2987 H 0.09147 0.30957 0.32759 0.0
H2988 H 0.11159 0.30828 0.31122 0.0
H2989 H 0.10832 0.26442 0.28365 0.0
H2990 H 0.16881 0.23679 0.2617 0.0
H2991 H 0.14766 0.24578 0.27163 0.0
C2992 C 0.95643 0.99885 0.15746 0.0
C2993 C 0.96 0.01134 0.17063 0.0
C2994 C 0.96236 1.0005 0.14304 0.0
C2995 C 0.9789 0.03099 0.1195 0.0
H2996 H 0.9938 0.99604 0.09779 0.0
C2997 C 0.014 0.03865 0.06746 0.0
C2998 C 0.01217 0.02583 0.05488 0.0
C2999 C 0.00667 0.03697 0.08098 0.0
C3000 C 0.98947 0.00584 0.10354 0.0
H3001 H 0.97296 0.03524 0.17903 0.0
H3002 H 0.98319 0.03813 0.15386 0.0
H3003 H 0.98316 0.99279 0.12268 0.0
H3004 H 1.00085 1.00139 0.04623 0.0
H3005 H 0.98769 0.99858 0.06955 0.0
H3006 H 0.98518 0.04406 0.10038 0.0
C3007 C 0.97562 0.02715 0.15461 0.0
C3008 C 0.9834 1.00398 0.11784 0.0
C3009 C 0.96974 0.02548 0.16904 0.0
C3010 C 1.00243 0.0115 0.05574 0.0
C3011 C 0.99504 0.00983 0.0692 0.0
C3012 C 0.9849 0.03284 0.10516 0.0
C3013 C 0.97195 0.0147 0.14142 0.0
C3014 C 0.97813 0.01656 0.12604 0.0
C3015 C 0.99728 0.02246 0.08213 0.0
C3016 C 0.99033 0.02031 0.09704 0.0
H3017 H 0.94878 0.98789 0.15814 0.0
H3018 H 0.95918 0.99076 0.13302 0.0
H3019 H 0.97471 0.04083 0.12539 0.0
H3020 H 0.0215 0.04982 0.06715 0.0
H3021 H 0.0088 0.04689 0.09078 0.0
C3022 C 0.29512 0.70457 0.44545 0.0
C3023 C 0.30272 0.71679 0.45794 0.0
C3024 C 0.28557 0.70802 0.43249 0.0
C3025 C 0.27456 0.74119 0.41236 0.0
H3026 H 0.23638 0.71172 0.39949 0.0
C3027 C 0.23432 0.75743 0.36578 0.0
C3028 C 0.23321 0.74649 0.35158 0.0
C3029 C 0.23735 0.75268 0.38104 0.0
C3030 C 0.24693 0.72009 0.40315 0.0
H3031 H 0.30742 0.74231 0.46596 0.0
H3032 H 0.29048 0.74832 0.44361 0.0
H3033 H 0.25533 0.7059 0.42031 0.0
H3034 H 0.23054 0.72137 0.34224 0.0
H3035 H 0.23656 0.71325 0.36891 0.0
H3036 H 0.26632 0.75533 0.39524 0.0
C3037 C 0.29189 0.73609 0.44371 0.0
C3038 C 0.25786 0.71669 0.41484 0.0
C3039 C 0.30156 0.73266 0.45656 0.0
C3040 C 0.23199 0.73017 0.35299 0.0
C3041 C 0.2353 0.72548 0.36829 0.0
C3042 C 0.26363 0.74467 0.4009 0.0
C3043 C 0.2834 0.72373 0.43187 0.0
C3044 C 0.27183 0.72717 0.41943 0.0
C3045 C 0.23944 0.73706 0.3822 0.0
C3046 C 0.24975 0.73413 0.39612 0.0
H3047 H 0.29568 0.69219 0.44626 0.0
H3048 H 0.27947 0.69832 0.42329 0.0
H3049 H 0.28529 0.74935 0.41539 0.0
H3050 H 0.23506 0.77006 0.36527 0.0
H3051 H 0.2401 0.76171 0.39173 0.0
C3052 C 0.59291 0.98978 0.68433 0.0
C3053 C 0.60673 0.99996 0.69123 0.0
C3054 C 0.5854 0.99092 0.66867 0.0
C3055 C 0.58378 0.0183 0.63604 0.0
H3056 H 0.56088 0.98004 0.60882 0.0
C3057 C 0.55513 0.01976 0.56847 0.0
C3058 C 0.54175 0.00873 0.56204 0.0
C3059 C 0.56346 0.01882 0.58383 0.0
C3060 C 0.56698 0.991 0.61621 0.0
H3061 H 0.62329 0.01927 0.68594 0.0
H3062 H 0.61028 0.02132 0.65915 0.0
H3063 H 0.57392 0.97825 0.63563 0.0
H3064 H 0.52681 0.98812 0.56721 0.0
H3065 H 0.54081 0.98668 0.59362 0.0
H3066 H 0.57674 0.03107 0.61664 0.0
C3067 C 0.60506 0.01252 0.66598 0.0
C3068 C 0.57459 0.98993 0.63181 0.0
C3069 C 0.61261 0.01133 0.6816 0.0
C3070 C 0.53707 0.9968 0.57153 0.0
C3071 C 0.54528 0.9959 0.58683 0.0
C3072 C 0.5761 0.01938 0.62043 0.0
C3073 C 0.59127 1.00233 0.6591 0.0
C3074 C 0.58314 1.00355 0.64216 0.0
C3075 C 0.55871 0.00686 0.59342 0.0
C3076 C 0.56743 0.00576 0.61013 0.0
H3077 H 0.58763 0.98101 0.69113 0.0
H3078 H 0.57475 0.98295 0.66421 0.0
H3079 H 0.58999 0.0292 0.64347 0.0
H3080 H 0.55913 0.02922 0.5617 0.0
H3081 H 0.57373 0.02747 0.58808 0.0
C3082 C 0.29669 0.33799 0.94066 0.0
C3083 C 0.28639 0.33125 0.95019 0.0
C3084 C 0.29704 0.33053 0.925 0.0
C3085 C 0.27316 0.30409 0.89067 0.0
H3086 H 0.31052 0.29971 0.87532 0.0
C3087 C 0.27304 0.27306 0.82595 0.0
C3088 C 0.28447 0.27904 0.81738 0.0
C3089 C 0.27389 0.27834 0.84254 0.0
C3090 C 0.29999 0.30103 0.8793 0.0
H3091 H 0.26851 0.3113 0.95087 0.0
H3092 H 0.269 0.29828 0.92329 0.0
H3093 H 0.31086 0.31089 0.90359 0.0
H3094 H 0.30588 0.2951 0.8195 0.0
H3095 H 0.30712 0.30488 0.84836 0.0
H3096 H 0.26226 0.29493 0.86639 0.0
C3097 C 0.27681 0.30935 0.92803 0.0
C3098 C 0.3002 0.30735 0.89555 0.0
C3099 C 0.2766 0.31672 0.94382 0.0
C3100 C 0.29693 0.29023 0.82582 0.0
C3101 C 0.29766 0.29576 0.8424 0.0
C3102 C 0.27296 0.298 0.87438 0.0
C3103 C 0.28699 0.31624 0.91843 0.0
C3104 C 0.28678 0.30894 0.90139 0.0
C3105 C 0.28605 0.29 0.85096 0.0
C3106 C 0.28636 0.29636 0.86844 0.0
H3107 H 0.30447 0.3491 0.94533 0.0
H3108 H 0.30492 0.33617 0.91785 0.0
H3109 H 0.26267 0.30542 0.89476 0.0
H3110 H 0.26339 0.26424 0.81983 0.0
H3111 H 0.26494 0.27324 0.84872 0.0
C3112 C 0.97671 1.00059 0.3367 0.0
C3113 C 0.97189 0.01375 0.33066 0.0
C3114 C 0.98256 1.00151 0.35317 0.0
C3115 C 0.99901 0.02954 0.39067 0.0
H3116 H 0.98381 0.99389 0.41227 0.0
C3117 C 0.01084 0.03171 0.46079 0.0
C3118 C 0.0135 0.01765 0.46673 0.0
C3119 C 0.00595 0.03156 0.44417 0.0
C3120 C 0.98834 1.00387 0.40642 0.0
H3121 H 0.96979 0.03835 0.33719 0.0
H3122 H 0.98016 0.04 0.36592 0.0
H3123 H 0.97568 0.99308 0.38322 0.0
H3124 H 0.01331 0.99246 0.45982 0.0
H3125 H 0.00515 0.9923 0.43095 0.0
H3126 H 0.01179 0.04027 0.41387 0.0
C3127 C 0.97948 0.02899 0.35785 0.0
C3128 C 0.98366 1.00339 0.38975 0.0
C3129 C 0.97357 0.02805 0.34138 0.0
C3130 C 0.01122 1.00348 0.4557 0.0
C3131 C 0.00646 1.00337 0.43912 0.0
C3132 C 0.00378 0.02998 0.40736 0.0
C3133 C 0.98378 0.01564 0.36398 0.0
C3134 C 0.98896 0.0162 0.38168 0.0
C3135 C 1.00371 0.01738 0.43313 0.0
C3136 C 0.99852 0.01712 0.41543 0.0
H3137 H 0.97583 0.98949 0.32872 0.0
H3138 H 0.98605 0.99112 0.35747 0.0
H3139 H 1.00338 0.03954 0.38476 0.0
H3140 H 0.01246 0.04282 0.46896 0.0
H3141 H 0.00375 0.04253 0.44002 0.0
C3142 C 0.29415 0.73234 0.61278 0.0
C3143 C 0.3085 0.73126 0.60923 0.0
C3144 C 0.29247 0.74133 0.6271 0.0
C3145 C 0.31312 0.75701 0.66818 0.0
H3146 H 0.27794 0.77575 0.67175 0.0
C3147 C 0.3001 0.78721 0.72864 0.0
C3148 C 0.28655 0.7793 0.73246 0.0
C3149 C 0.30361 0.78411 0.71302 0.0
C3150 C 0.28786 0.77067 0.67082 0.0
H3151 H 0.33239 0.73942 0.61752 0.0
H3152 H 0.32944 0.75584 0.64217 0.0
H3153 H 0.28319 0.76631 0.64482 0.0
H3154 H 0.26591 0.76229 0.72322 0.0
H3155 H 0.27192 0.75716 0.69565 0.0
H3156 H 0.31773 0.76153 0.69427 0.0
C3157 C 0.31948 0.7493 0.63411 0.0
C3158 C 0.29083 0.76518 0.65549 0.0
C3159 C 0.32116 0.74005 0.61989 0.0
C3160 C 0.27639 0.76855 0.72045 0.0
C3161 C 0.27978 0.76568 0.70475 0.0
C3162 C 0.31029 0.76281 0.68349 0.0
C3163 C 0.30511 0.74974 0.63805 0.0
C3164 C 0.30324 0.75783 0.65403 0.0
C3165 C 0.29346 0.77333 0.70103 0.0
C3166 C 0.29745 0.76927 0.68488 0.0
H3167 H 0.28416 0.72602 0.6046 0.0
H3168 H 0.28123 0.74119 0.62981 0.0
H3169 H 0.32262 0.7512 0.66755 0.0
H3170 H 0.30812 0.79546 0.73783 0.0
H3171 H 0.31426 0.79003 0.71031 0.0
C3172 C 0.62 0.00534 0.87413 0.0
C3173 C 0.61194 1.00374 0.85814 0.0
C3174 C 0.61292 0.00679 0.88821 0.0
C3175 C 0.57649 0.0148 0.90255 0.0
H3176 H 0.59295 1.0005 0.94215 0.0
C3177 C 0.54413 0.0131 0.9591 0.0
C3178 C 0.55208 0.01525 0.97516 0.0
C3179 C 0.55143 0.01186 0.94521 0.0
C3180 C 0.58816 1.0048 0.93135 0.0
H3181 H 0.58946 1.00219 0.84524 0.0
H3182 H 0.57731 1.00458 0.86933 0.0
H3183 H 0.60513 0.99798 0.91808 0.0
H3184 H 0.57445 0.01777 0.98863 0.0
H3185 H 0.58713 0.01579 0.96468 0.0
H3186 H 0.55949 0.02156 0.91581 0.0
C3187 C 0.58929 0.00506 0.87114 0.0
C3188 C 0.59528 1.00334 0.91729 0.0
C3189 C 0.59638 1.00365 0.85707 0.0
C3190 C 0.56776 0.01612 0.97663 0.0
C3191 C 0.57508 0.01484 0.9627 0.0
C3192 C 0.56936 0.01623 0.91659 0.0
C3193 C 0.59735 0.00669 0.88715 0.0
C3194 C 0.58964 0.00829 0.90246 0.0
C3195 C 0.56712 0.01268 0.94658 0.0
C3196 C 0.57498 0.01125 0.9314 0.0
H3197 H 0.63198 0.0058 0.87592 0.0
H3198 H 0.61987 0.00829 0.90002 0.0
H3199 H 0.57169 0.01915 0.8918 0.0
H3200 H 0.53209 0.01227 0.95717 0.0
H3201 H 0.54459 0.00995 0.9333 0.0
C3202 C 0.29408 0.32244 0.1092 0.0
C3203 C 0.28934 0.33708 0.10848 0.0
C3204 C 0.29335 0.31486 0.12313 0.0
C3205 C 0.29346 0.32239 0.16712 0.0
H3206 H 0.27367 0.27807 0.16274 0.0
C3207 C 0.2815 0.29222 0.22371 0.0
C3208 C 0.2807 0.27568 0.22299 0.0
C3209 C 0.28313 0.29967 0.20984 0.0
C3210 C 0.27953 0.29035 0.16427 0.0
H3211 H 0.28041 0.35539 0.12189 0.0
H3212 H 0.27947 0.34231 0.14638 0.0
H3213 H 0.27568 0.291 0.13847 0.0
H3214 H 0.28153 0.25405 0.20739 0.0
H3215 H 0.28523 0.26707 0.18342 0.0
H3216 H 0.29785 0.32176 0.19277 0.0
C3217 C 0.2836 0.33664 0.1361 0.0
C3218 C 0.28057 0.29778 0.15029 0.0
C3219 C 0.28405 0.34407 0.12206 0.0
C3220 C 0.28204 0.26682 0.20826 0.0
C3221 C 0.28399 0.27431 0.19445 0.0
C3222 C 0.29271 0.31488 0.18109 0.0
C3223 C 0.28817 0.32192 0.13675 0.0
C3224 C 0.28743 0.31391 0.15158 0.0
C3225 C 0.28433 0.29084 0.19492 0.0
C3226 C 0.28561 0.29875 0.17993 0.0
H3227 H 0.29813 0.31674 0.09888 0.0
H3228 H 0.29701 0.30355 0.12332 0.0
H3229 H 0.29896 0.3348 0.16846 0.0
H3230 H 0.28038 0.29936 0.23488 0.0
H3231 H 0.28302 0.31231 0.21079 0.0
C3232 C 0.19714 0.92667 0.00985 0.0
C3233 C 0.19213 0.91012 0.0059 0.0
C3234 C 0.1872 0.93643 0.01385 0.0
C3235 C 0.14728 0.93794 0.01153 0.0
H3236 H 0.16143 0.97 0.04974 0.0
C3237 C 0.10793 0.97459 0.03795 0.0
C3238 C 0.11322 0.99115 0.03983 0.0
C3239 C 0.11772 0.96415 0.03585 0.0
C3240 C 0.15738 0.96111 0.03905 0.0
H3241 H 0.17287 0.89073 1.0024 0.0
H3242 H 0.15542 0.90783 0.00947 0.0
H3243 H 0.17814 0.95295 0.04038 0.0
H3244 H 0.13287 0.00988 0.04207 0.0
H3245 H 0.15008 0.99157 0.03842 0.0
H3246 H 0.12655 0.94615 0.01015 0.0
C3247 C 0.16698 0.91327 0.00932 0.0
C3248 C 0.16693 0.95144 0.03364 0.0
C3249 C 0.17692 0.90351 0.00525 0.0
C3250 C 0.12859 0.99714 0.04075 0.0
C3251 C 0.1384 0.98669 0.03865 0.0
C3252 C 0.13773 0.94757 0.01697 0.0
C3253 C 0.17213 0.92975 0.01403 0.0
C3254 C 0.16198 0.93988 0.01976 0.0
C3255 C 0.13293 0.97014 0.03563 0.0
C3256 C 0.14274 0.95927 0.03071 0.0
H3257 H 0.20882 0.932 0.01023 0.0
H3258 H 0.19136 0.94916 0.01709 0.0
H3259 H 0.14326 0.92922 1.00071 0.0
H3260 H 0.09612 0.96974 0.03746 0.0
H3261 H 0.11333 0.95141 0.03382 0.0
C3262 C 0.67757 0.60735 0.01357 0.0
C3263 C 0.68544 0.6022 1.00123 0.0
C3264 C 0.66311 0.59927 0.01453 0.0
C3265 C 0.63692 0.5603 1.00029 0.0
H3266 H 0.6069 0.58352 0.01366 0.0
C3267 C 0.5749 0.52987 0.99379 0.0
C3268 C 0.56723 0.53295 0.00693 0.0
C3269 C 0.58908 0.53884 0.99339 0.0
C3270 C 0.6152 0.57685 0.01006 0.0
H3271 H 0.68401 0.58437 0.98017 0.0
H3272 H 0.65873 0.57069 0.98149 0.0
H3273 H 0.63197 0.59806 0.01218 0.0
H3274 H 0.56824 0.54816 0.02976 0.0
H3275 H 0.59311 0.56401 0.02901 0.0
H3276 H 0.6201 0.53913 0.99797 0.0
C3277 C 0.66384 0.58081 0.99067 0.0
C3278 C 0.62961 0.58518 0.00923 0.0
C3279 C 0.67832 0.58883 0.98976 0.0
C3280 C 0.57388 0.54553 0.01947 0.0
C3281 C 0.5881 0.55461 0.01901 0.0
C3282 C 0.62251 0.55201 1.00102 0.0
C3283 C 0.65604 0.58584 0.00312 0.0
C3284 C 0.64067 0.57703 0.00424 0.0
C3285 C 0.59597 0.5512 0.00607 0.0
C3286 C 0.61142 0.56016 0.00581 0.0
H3287 H 0.68252 0.61774 0.02249 0.0
H3288 H 0.65759 0.60346 0.02438 0.0
H3289 H 0.64516 0.55352 0.99678 0.0
H3290 H 0.57003 0.52033 0.98389 0.0
H3291 H 0.59467 0.53607 0.98309 0.0
C3292 C 0.69264 0.46026 0.28099 0.0
C3293 C 0.67796 0.45881 0.28466 0.0
C3294 C 0.69996 0.44732 0.28099 0.0
C3295 C 0.70087 0.41044 0.29845 0.0
H3296 H 0.72183 0.39922 0.26277 0.0
C3297 C 0.72829 0.35493 0.29516 0.0
C3298 C 0.74207 0.35625 0.28935 0.0
C3299 C 0.71991 0.36697 0.29399 0.0
C3300 C 0.71621 0.40231 0.27294 0.0
H3301 H 0.65944 0.44238 0.29095 0.0
H3302 H 0.67246 0.41999 0.29144 0.0
H3303 H 0.70843 0.4213 0.262 0.0
H3304 H 0.75799 0.37126 0.27795 0.0
H3305 H 0.74361 0.39244 0.27625 0.0
H3306 H 0.70895 0.39183 0.30968 0.0
C3307 C 0.67824 0.4312 0.28859 0.0
C3308 C 0.70849 0.41492 0.27245 0.0
C3309 C 0.67083 0.44408 0.28839 0.0
C3310 C 0.7473 0.36983 0.28232 0.0
C3311 C 0.73901 0.38194 0.28131 0.0
C3312 C 0.70873 0.39794 0.29905 0.0
C3313 C 0.69286 0.4327 0.28486 0.0
C3314 C 0.70078 0.41912 0.28521 0.0
C3315 C 0.72521 0.38068 0.28714 0.0
C3316 C 0.71654 0.39374 0.28632 0.0
H3317 H 0.69861 0.47146 0.27837 0.0
H3318 H 0.7113 0.44884 0.27827 0.0
H3319 H 0.69515 0.41356 0.30855 0.0
H3320 H 0.72392 0.3445 0.30046 0.0
H3321 H 0.70922 0.36544 0.29834 0.0
C3322 C 0.83578 0.40976 0.51742 0.0
C3323 C 0.82207 0.41447 0.51895 0.0
C3324 C 0.84913 0.42103 0.52066 0.0
C3325 C 0.86258 0.46316 0.51945 0.0
H3326 H 0.90054 0.45394 0.53841 0.0
C3327 C 0.91878 0.48938 0.50178 0.0
C3328 C 0.93166 0.49323 0.51372 0.0
C3329 C 0.90502 0.48257 0.50572 0.0
C3330 C 0.89001 0.45685 0.53337 0.0
H3331 H 0.81166 0.43447 0.52606 0.0
H3332 H 0.83501 0.4542 0.53153 0.0
H3333 H 0.8772 0.43601 0.54017 0.0
H3334 H 0.94006 0.49381 0.53938 0.0
H3335 H 0.91595 0.48158 0.54619 0.0
H3336 H 0.8754 0.48372 0.51222 0.0
C3337 C 0.83538 0.44183 0.52762 0.0
C3338 C 0.87668 0.4465 0.53423 0.0
C3339 C 0.82203 0.43056 0.52441 0.0
C3340 C 0.93037 0.49072 0.52985 0.0
C3341 C 0.9166 0.48379 0.53377 0.0
C3342 C 0.8759 0.47346 0.51855 0.0
C3343 C 0.84901 0.43721 0.52549 0.0
C3344 C 0.86288 0.44933 0.52687 0.0
C3345 C 0.90387 0.47938 0.52166 0.0
C3346 C 0.88975 0.47015 0.52508 0.0
H3347 H 0.83615 0.39748 0.51311 0.0
H3348 H 0.85945 0.41716 0.51868 0.0
H3349 H 0.85211 0.46558 0.51357 0.0
H3350 H 0.91943 0.49091 0.48919 0.0
H3351 H 0.89545 0.47905 0.49607 0.0
C3352 C 0.36431 0.12513 0.27135 0.0
C3353 C 0.36065 0.11251 0.25807 0.0
C3354 C 0.35735 0.13872 0.27176 0.0
C3355 C 0.32406 0.15474 0.25081 0.0
H3356 H 0.34475 0.19499 0.27612 0.0
C3357 C 0.29323 0.20962 0.25889 0.0
C3358 C 0.30137 0.22554 0.26186 0.0
C3359 C 0.30045 0.19627 0.25838 0.0
C3360 C 0.33868 0.18398 0.2688 0.0
H3361 H 0.34603 0.10522 0.23475 0.0
H3362 H 0.33443 0.12859 0.23527 0.0
H3363 H 0.35694 0.17199 0.27508 0.0
H3364 H 0.32405 0.23924 0.26661 0.0
H3365 H 0.33657 0.2163 0.26552 0.0
H3366 H 0.30597 0.16681 0.24417 0.0
C3367 C 0.34263 0.12798 0.24564 0.0
C3368 C 0.34572 0.17045 0.26838 0.0
C3369 C 0.34958 0.11439 0.24523 0.0
C3370 C 0.31718 0.22737 0.26428 0.0
C3371 C 0.32444 0.21398 0.26377 0.0
C3372 C 0.31703 0.16826 0.25122 0.0
C3373 C 0.34627 0.14059 0.25892 0.0
C3374 C 0.33864 0.15538 0.25938 0.0
C3375 C 0.31629 0.19799 0.2608 0.0
C3376 C 0.32409 0.18332 0.26025 0.0
H3377 H 0.37278 0.12471 0.28153 0.0
H3378 H 0.36063 0.14772 0.28242 0.0
H3379 H 0.31781 0.14364 0.24382 0.0
H3380 H 0.28109 0.20738 0.25704 0.0
H3381 H 0.29343 0.1845 0.25635 0.0
C3382 C 0.33151 0.09254 0.50479 0.0
C3383 C 0.33278 0.10903 0.50429 0.0
C3384 C 0.34423 0.08552 0.50587 0.0
C3385 C 0.386 0.09536 0.51649 0.0
H3386 H 0.38307 0.05273 0.49373 0.0
C3387 C 0.43807 0.06586 0.51231 0.0
C3388 C 0.43633 0.04972 0.51461 0.0
C3389 C 0.42563 0.07333 0.51062 0.0
C3390 C 0.38407 0.0646 0.50027 0.0
H3391 H 0.34873 0.13105 0.50479 0.0
H3392 H 0.37071 0.11876 0.50598 0.0
H3393 H 0.36116 0.0652 0.49173 0.0
H3394 H 0.41999 0.0287 0.51643 0.0
H3395 H 0.39846 0.04171 0.51372 0.0
H3396 H 0.409 0.09473 0.52491 0.0
C3397 C 0.35989 0.11124 0.50584 0.0
C3398 C 0.37146 0.07176 0.49918 0.0
C3399 C 0.34719 0.11828 0.50489 0.0
C3400 C 0.42181 0.0412 0.5149 0.0
C3401 C 0.4094 0.04863 0.51315 0.0
C3402 C 0.39865 0.08822 0.51751 0.0
C3403 C 0.35862 0.09475 0.50635 0.0
C3404 C 0.37219 0.08721 0.50735 0.0
C3405 C 0.41113 0.06481 0.51106 0.0
C3406 C 0.39783 0.0727 0.5095 0.0
H3407 H 0.32064 0.08494 0.50417 0.0
H3408 H 0.34275 0.07284 0.50648 0.0
H3409 H 0.38701 0.10716 0.52318 0.0
H3410 H 0.44909 0.07281 0.51211 0.0
H3411 H 0.42736 0.08578 0.50886 0.0
C3412 C 0.69972 0.61434 0.2955 0.0
C3413 C 0.68541 0.60982 0.28592 0.0
C3414 C 0.70894 0.62893 0.29467 0.0
C3415 C 0.71607 0.65901 0.26753 0.0
H3416 H 0.73694 0.68653 0.30693 0.0
C3417 C 0.75106 0.72116 0.265 0.0
C3418 C 0.76431 0.72636 0.27626 0.0
C3419 C 0.74094 0.7074 0.26651 0.0
C3420 C 0.73138 0.67891 0.29578 0.0
H3421 H 0.66954 0.61748 0.26823 0.0
H3422 H 0.68582 0.64266 0.26649 0.0
H3423 H 0.72045 0.66154 0.30896 0.0
H3424 H 0.77756 0.72118 0.29774 0.0
H3425 H 0.76031 0.69683 0.30003 0.0
H3426 H 0.72726 0.67601 0.25428 0.0
C3427 C 0.68988 0.63483 0.27458 0.0
C3428 C 0.72188 0.66461 0.29697 0.0
C3429 C 0.68058 0.62034 0.27555 0.0
C3430 C 0.76736 0.71749 0.28896 0.0
C3431 C 0.75737 0.7036 0.29034 0.0
C3432 C 0.72571 0.6732 0.26632 0.0
C3433 C 0.70416 0.63926 0.2841 0.0
C3434 C 0.71413 0.65452 0.28286 0.0
C3435 C 0.74401 0.69835 0.27913 0.0
C3436 C 0.73352 0.68335 0.28043 0.0
H3437 H 0.70397 0.60648 0.30341 0.0
H3438 H 0.71998 0.63196 0.30202 0.0
H3439 H 0.71038 0.65136 0.25643 0.0
H3440 H 0.74857 0.72759 0.25489 0.0
H3441 H 0.73071 0.70391 0.25777 0.0
C3442 C 0.85082 0.43705 0.74178 0.0
C3443 C 0.85677 0.44813 0.756 0.0
C3444 C 0.8441 0.42107 0.74265 0.0
C3445 C 0.82694 0.39452 0.77114 0.0
H3446 H 0.83242 0.35997 0.73986 0.0
C3447 C 0.80508 0.32778 0.77877 0.0
C3448 C 0.80099 0.31583 0.76503 0.0
C3449 C 0.81185 0.34359 0.77749 0.0
C3450 C 0.83048 0.36936 0.74863 0.0
H3451 H 0.85977 0.45049 0.78241 0.0
H3452 H 0.84821 0.42298 0.78391 0.0
H3453 H 0.84372 0.38741 0.7379 0.0
H3454 H 0.80101 0.31167 0.73899 0.0
H3455 H 0.81236 0.33906 0.73661 0.0
H3456 H 0.81349 0.37667 0.78172 0.0
C3457 C 0.8487 0.42661 0.77198 0.0
C3458 C 0.83708 0.3853 0.74751 0.0
C3459 C 0.85555 0.44251 0.77111 0.0
C3460 C 0.80399 0.32037 0.74992 0.0
C3461 C 0.81067 0.33625 0.7486 0.0
C3462 C 0.82022 0.37861 0.77218 0.0
C3463 C 0.84285 0.41548 0.75778 0.0
C3464 C 0.83554 0.39826 0.75879 0.0
C3465 C 0.81475 0.34831 0.76235 0.0
C3466 C 0.82187 0.36557 0.76102 0.0
H3467 H 0.85155 0.44063 0.72987 0.0
H3468 H 0.83969 0.41314 0.73136 0.0
H3469 H 0.82512 0.40396 0.77996 0.0
H3470 H 0.8031 0.32494 0.79069 0.0
H3471 H 0.81497 0.35206 0.78857 0.0
C3472 C 0.05848 0.86493 0.07922 0.0
C3473 C 0.04592 0.85662 0.0848 0.0
C3474 C 0.05793 0.87925 0.07283 0.0
C3475 C 0.03515 0.91138 0.07088 0.0
H3476 H 0.05698 0.92207 0.03569 0.0
C3477 C 0.02308 0.96076 0.03309 0.0
C3478 C 0.0354 0.97191 0.03042 0.0
C3479 C 0.02519 0.947 0.03973 0.0
C3480 C 0.05093 0.9193 0.04562 0.0
H3481 H 0.02291 0.85728 0.08805 0.0
H3482 H 0.02168 0.88145 0.07613 0.0
H3483 H 0.05884 0.89743 0.04708 0.0
H3484 H 0.05963 0.97705 0.03232 0.0
H3485 H 0.06329 0.95269 0.04373 0.0
H3486 H 0.02687 0.933 0.06899 0.0
C3487 C 0.03215 0.87721 0.07707 0.0
C3488 C 0.05203 0.90518 0.05222 0.0
C3489 C 0.03277 0.86305 0.08366 0.0
C3490 C 0.0499 0.96872 0.03422 0.0
C3491 C 0.052 0.95476 0.04071 0.0
C3492 C 0.0339 0.92532 0.06413 0.0
C3493 C 0.04474 0.88562 0.07166 0.0
C3494 C 0.04405 0.90093 0.06488 0.0
C3495 C 0.03966 0.94387 0.04375 0.0
C3496 C 0.04168 0.92939 0.05134 0.0
H3497 H 0.06876 0.86034 0.07963 0.0
H3498 H 0.06794 0.88539 0.069 0.0
H3499 H 0.02915 0.90886 0.08089 0.0
H3500 H 0.01174 0.96279 0.03036 0.0
H3501 H 0.01544 0.93875 0.04173 0.0
C3502 C 0.92196 0.24013 0.85048 0.0
C3503 C 0.93247 0.25408 0.85727 0.0
C3504 C 0.90765 0.24102 0.84277 0.0
C3505 C 0.88017 0.26809 0.83968 0.0
H3506 H 0.86228 0.23888 0.80034 0.0
C3507 C 0.82439 0.27324 0.79952 0.0
C3508 C 0.81492 0.25891 0.79185 0.0
C3509 C 0.83853 0.27305 0.80831 0.0
C3510 C 0.86698 0.247 0.81145 0.0
H3511 H 0.93611 0.27997 0.86082 0.0
H3512 H 0.91122 0.28149 0.84742 0.0
H3513 H 0.8872 0.23769 0.8137 0.0
H3514 H 0.81244 0.23317 0.78811 0.0
H3515 H 0.83672 0.23277 0.80369 0.0
H3516 H 0.85986 0.27738 0.8374 0.0
C3517 C 0.91395 0.26983 0.84831 0.0
C3518 C 0.88133 0.24632 0.81912 0.0
C3519 C 0.92827 0.26894 0.856 0.0
C3520 C 0.81956 0.24442 0.79376 0.0
C3521 C 0.83357 0.24421 0.80258 0.0
C3522 C 0.86575 0.26875 0.83201 0.0
C3523 C 0.90342 0.25588 0.84161 0.0
C3524 C 0.88813 0.2568 0.83338 0.0
C3525 C 0.84344 0.25852 0.80965 0.0
C3526 C 0.8589 0.25814 0.81783 0.0
H3527 H 0.92466 0.22847 0.85143 0.0
H3528 H 0.89979 0.23 0.83797 0.0
H3529 H 0.88496 0.27624 0.85074 0.0
H3530 H 0.82113 0.2846 0.7982 0.0
H3531 H 0.84582 0.28432 0.81351 0.0
C3532 C 0.55539 0.19284 0.57554 0.0
C3533 C 0.54263 0.19989 0.57497 0.0
C3534 C 0.55424 0.17694 0.56873 0.0
C3535 C 0.52692 0.13906 0.5576 0.0
H3536 H 0.55719 0.12562 0.53388 0.0
C3537 C 0.54755 0.07718 0.53379 0.0
C3538 C 0.53348 0.06714 0.52841 0.0
C3539 C 0.54864 0.09356 0.5385 0.0
C3540 C 0.54872 0.12913 0.54063 0.0
H3541 H 0.51868 0.19578 0.56657 0.0
H3542 H 0.51669 0.16806 0.55452 0.0
H3543 H 0.55913 0.15386 0.54374 0.0
H3544 H 0.50954 0.06658 0.52334 0.0
H3545 H 0.51147 0.09508 0.53115 0.0
H3546 H 0.51666 0.11438 0.55482 0.0
C3547 C 0.52758 0.17482 0.56037 0.0
C3548 C 0.54982 0.14534 0.54625 0.0
C3549 C 0.52874 0.19075 0.56711 0.0
C3550 C 0.52056 0.07392 0.52752 0.0
C3551 C 0.52166 0.09029 0.53212 0.0
C3552 C 0.52587 0.12286 0.55207 0.0
C3553 C 0.54029 0.16767 0.56123 0.0
C3554 C 0.53894 0.1505 0.55482 0.0
C3555 C 0.5357 0.10032 0.53786 0.0
C3556 C 0.53676 0.11765 0.54351 0.0
H3557 H 0.56628 0.19959 0.58136 0.0
H3558 H 0.56423 0.17179 0.56972 0.0
H3559 H 0.51849 0.14258 0.5644 0.0
H3560 H 0.55774 0.07237 0.53472 0.0
H3561 H 0.55963 0.10084 0.54305 0.0
C3562 C 0.5802 0.74476 0.35053 0.0
C3563 C 0.57845 0.75727 0.3621 0.0
C3564 C 0.59332 0.74559 0.34354 0.0
C3565 C 0.62647 0.77426 0.33647 0.0
H3566 H 0.64302 0.73607 0.32854 0.0
C3567 C 0.68435 0.77608 0.31533 0.0
C3568 C 0.68569 0.76361 0.30347 0.0
C3569 C 0.67149 0.77529 0.32281 0.0
C3570 C 0.63848 0.74682 0.3305 0.0
H3571 H 0.58939 0.78042 0.37553 0.0
H3572 H 0.61223 0.78185 0.3634 0.0
H3573 H 0.62024 0.73478 0.34075 0.0
H3574 H 0.67434 0.74058 0.2901 0.0
H3575 H 0.65202 0.73919 0.30312 0.0
H3576 H 0.64471 0.78629 0.32621 0.0
C3577 C 0.60333 0.77149 0.35949 0.0
C3578 C 0.62538 0.74608 0.33751 0.0
C3579 C 0.5902 0.77066 0.36646 0.0
C3580 C 0.67386 0.75028 0.29939 0.0
C3581 C 0.66102 0.74949 0.30686 0.0
C3582 C 0.63958 0.775 0.32947 0.0
C3583 C 0.6051 0.75895 0.34795 0.0
C3584 C 0.61915 0.75978 0.34056 0.0
C3585 C 0.65961 0.76201 0.31863 0.0
C3586 C 0.64576 0.76128 0.32635 0.0
H3587 H 0.57132 0.73437 0.34667 0.0
H3588 H 0.59414 0.73582 0.33449 0.0
H3589 H 0.62191 0.785 0.33839 0.0
H3590 H 0.69329 0.78644 0.31895 0.0
H3591 H 0.67093 0.78505 0.332 0.0
C3592 C 1.00117 0.2109 0.42897 0.0
C3593 C 0.00447 0.21034 0.413 0.0
C3594 C 0.99902 0.19701 0.43619 0.0
C3595 C 0.01029 0.15845 0.4339 0.0
H3596 H 0.98117 0.1489 0.46282 0.0
C3597 C 0.0098 0.10434 0.46681 0.0
C3598 C 0.00979 0.10743 0.48365 0.0
C3599 C 0.00571 0.11512 0.45669 0.0
C3600 C 0.98934 0.15145 0.45477 0.0
H3601 H 0.0073 0.19484 0.39172 0.0
H3602 H 1.00358 0.17055 0.40436 0.0
H3603 H 0.98054 0.17155 0.44765 0.0
H3604 H 0.00473 0.12351 0.50315 0.0
H3605 H 0.99793 0.14274 0.48548 0.0
H3606 H 0.01948 0.13885 0.44134 0.0
C3607 C 1.0029 0.18175 0.41137 0.0
C3608 C 0.98899 0.16437 0.44613 0.0
C3609 C 0.00508 0.19562 0.40417 0.0
C3610 C 0.00476 0.12094 0.49015 0.0
C3611 C 1.00082 0.13186 0.48003 0.0
C3612 C 0.01066 0.14561 0.44253 0.0
C3613 C 1.00012 0.18237 0.42753 0.0
C3614 C 0.99956 0.16805 0.43574 0.0
C3615 C 1.00175 0.12929 0.4633 0.0
C3616 C 1.00029 0.14206 0.45316 0.0
H3617 H 1.00075 0.22214 0.43607 0.0
H3618 H 0.9971 0.19785 0.44874 0.0
H3619 H 0.01878 0.16122 0.42626 0.0
H3620 H 0.01346 0.09383 0.46158 0.0
H3621 H 0.00621 0.11268 0.44379 0.0
C3622 C 0.61522 0.23887 0.22385 0.0
C3623 C 0.60824 0.25212 0.22531 0.0
C3624 C 0.63007 0.24019 0.23103 0.0
C3625 C 0.66379 0.27123 0.24239 0.0
H3626 H 0.68162 0.23664 0.25713 0.0
C3627 C 0.72716 0.27735 0.26289 0.0
C3628 C 0.7336 0.26484 0.25641 0.0
C3629 C 0.71165 0.27591 0.26082 0.0
C3630 C 0.67674 0.24636 0.25298 0.0
H3631 H 0.61061 0.27662 0.23653 0.0
H3632 H 0.63651 0.27884 0.24953 0.0
H3633 H 0.65434 0.23376 0.2524 0.0
H3634 H 0.72893 0.24106 0.24258 0.0
H3635 H 0.70171 0.2386 0.23887 0.0
H3636 H 0.68616 0.28375 0.24282 0.0
C3637 C 0.63069 0.26759 0.24245 0.0
C3638 C 0.66118 0.24474 0.25032 0.0
C3639 C 0.61588 0.26632 0.23511 0.0
C3640 C 0.72426 0.25093 0.24762 0.0
C3641 C 0.70872 0.24945 0.24566 0.0
C3642 C 0.67932 0.27289 0.24517 0.0
C3643 C 0.63812 0.25475 0.2399 0.0
C3644 C 0.65454 0.25707 0.24474 0.0
C3645 C 0.70231 0.26189 0.25233 0.0
C3646 C 0.68591 0.26037 0.25024 0.0
H3647 H 0.60956 0.22785 0.21621 0.0
H3648 H 0.63551 0.23013 0.2287 0.0
H3649 H 0.65905 0.28082 0.23775 0.0
H3650 H 0.73409 0.28822 0.26974 0.0
H3651 H 0.70695 0.28564 0.26612 0.0
C3652 C 0.51112 0.87083 0.92799 0.0
C3653 C 0.51308 0.85642 0.93358 0.0
C3654 C 0.5087 0.88348 0.93866 0.0
C3655 C 0.51671 0.9005 0.98137 0.0
H3656 H 0.48823 0.92683 0.9681 0.0
C3657 C 0.51649 0.95983 0.02018 0.0
C3658 C 0.51691 0.97263 0.01114 0.0
C3659 C 0.51232 0.94413 0.01223 0.0
C3660 C 0.49621 0.91958 0.97199 0.0
H3661 H 0.5137 0.84386 0.9547 0.0
H3662 H 0.50985 0.86621 0.97346 0.0
H3663 H 0.48839 0.9019 0.95094 0.0
H3664 H 0.5125 0.97924 0.98694 0.0
H3665 H 0.5054 0.95202 0.97309 0.0
H3666 H 0.52509 0.9185 1.00194 0.0
C3667 C 0.51019 0.86763 0.96079 0.0
C3668 C 0.49629 0.90534 0.96218 0.0
C3669 C 0.51249 0.85491 0.95008 0.0
C3670 C 0.51219 0.96958 0.99421 0.0
C3671 C 0.50806 0.95394 0.98628 0.0
C3672 C 0.51669 0.9148 0.99112 0.0
C3673 C 0.50831 0.88203 0.95517 0.0
C3674 C 0.5068 0.8959 0.96658 0.0
C3675 C 0.50852 0.94105 0.99514 0.0
C3676 C 0.50671 0.9247 0.98631 0.0
H3677 H 0.51177 0.87249 0.91543 0.0
H3678 H 0.50758 0.89458 0.93409 0.0
H3679 H 0.52502 0.89351 0.98495 0.0
H3680 H 0.52002 0.96191 0.03327 0.0
H3681 H 0.51258 0.93442 0.01939 0.0
C3682 C 0.96958 0.7429 0.71789 0.0
C3683 C 0.97001 0.74732 0.70227 0.0
C3684 C 0.95822 0.74619 0.72654 0.0
C3685 C 0.93198 0.7737 0.72851 0.0
H3686 H 0.9105 0.74349 0.75239 0.0
C3687 C 0.8751 0.77901 0.7459 0.0
C3688 C 0.87266 0.77682 0.76177 0.0
C3689 C 0.8881 0.7759 0.74048 0.0
C3690 C 0.91661 0.7521 0.74598 0.0
H3691 H 0.95857 0.75768 0.68299 0.0
H3692 H 0.93862 0.76325 0.69797 0.0
H3693 H 0.93093 0.73625 0.73881 0.0
H3694 H 0.88175 0.76974 0.78451 0.0
H3695 H 0.90472 0.76409 0.77487 0.0
H3696 H 0.91742 0.78934 0.73524 0.0
C3697 C 0.94724 0.75765 0.70373 0.0
C3698 C 0.92823 0.74797 0.73821 0.0
C3699 C 0.95859 0.75441 0.69513 0.0
C3700 C 0.88348 0.77155 0.77223 0.0
C3701 C 0.8965 0.76825 0.76672 0.0
C3702 C 0.92037 0.77778 0.73619 0.0
C3703 C 0.94716 0.75393 0.71965 0.0
C3704 C 0.93575 0.75861 0.72908 0.0
C3705 C 0.89888 0.77047 0.75082 0.0
C3706 C 0.91238 0.76688 0.74465 0.0
H3707 H 0.97836 0.73752 0.72368 0.0
H3708 H 0.9584 0.74325 0.73882 0.0
H3709 H 0.93787 0.78228 0.7219 0.0
H3710 H 0.86694 0.7832 0.73768 0.0
H3711 H 0.88963 0.7775 0.72809 0.0
C3712 C 0.08721 0.0274 0.86616 0.0
C3713 C 0.09881 0.01947 0.86263 0.0
C3714 C 0.08112 0.02583 0.88051 0.0
C3715 C 0.07808 0.99995 0.91311 0.0
H3716 H 0.06556 0.03611 0.93572 0.0
C3717 C 0.04229 0.99363 0.96476 0.0
C3718 C 0.04449 0.00634 0.97753 0.0
C3719 C 0.04985 0.99509 0.95138 0.0
C3720 C 0.06917 0.02593 0.92971 0.0
H3721 H 0.11333 1.00395 0.87161 0.0
H3722 H 0.10288 1.00139 0.8967 0.0
H3723 H 0.07704 0.03919 0.91139 0.0
H3724 H 0.05675 0.03034 0.98666 0.0
H3725 H 0.07035 0.03274 0.96361 0.0
H3726 H 0.07061 0.98681 0.93171 0.0
C3727 C 0.09822 0.00853 0.88823 0.0
C3728 C 0.07555 0.02763 0.91557 0.0
C3729 C 0.10424 0.01002 0.87384 0.0
C3730 C 0.05484 0.02033 0.97699 0.0
C3731 C 0.0625 0.02176 0.96367 0.0
C3732 C 0.0718 0.99827 0.92733 0.0
C3733 C 0.08654 0.01638 0.89175 0.0
C3734 C 0.08001 0.01464 0.90701 0.0
C3735 C 0.0599 0.00927 0.95054 0.0
C3736 C 0.06718 0.01121 0.93577 0.0
H3737 H 0.08265 0.03461 0.85768 0.0
H3738 H 0.07197 0.03183 0.88264 0.0
H3739 H 0.0812 0.98962 0.90677 0.0
H3740 H 0.03432 0.98272 0.96482 0.0
H3741 H 0.0474 0.98529 0.94145 0.0
C3742 C 0.77737 0.32774 0.58793 0.0
C3743 C 0.77062 0.31609 0.57456 0.0
C3744 C 0.78714 0.32403 0.60054 0.0
C3745 C 0.79794 0.29008 0.61884 0.0
H3746 H 0.8333 0.32143 0.63917 0.0
C3747 C 0.8298 0.27536 0.67317 0.0
C3748 C 0.82839 0.2864 0.68641 0.0
C3749 C 0.82974 0.27991 0.65772 0.0
C3750 C 0.82359 0.31251 0.63342 0.0
H3751 H 0.76824 0.29128 0.56422 0.0
H3752 H 0.78561 0.28489 0.58598 0.0
H3753 H 0.81699 0.3272 0.61583 0.0
H3754 H 0.82964 0.31154 0.69466 0.0
H3755 H 0.82853 0.31923 0.66751 0.0
H3756 H 0.80409 0.27559 0.63656 0.0
C3757 C 0.78328 0.29686 0.58682 0.0
C3758 C 0.81416 0.31585 0.62023 0.0
C3759 C 0.77339 0.30052 0.57432 0.0
C3760 C 0.83001 0.30263 0.68451 0.0
C3761 C 0.82958 0.3071 0.66896 0.0
C3762 C 0.80737 0.28669 0.63186 0.0
C3763 C 0.79042 0.30864 0.59993 0.0
C3764 C 0.80108 0.30478 0.61306 0.0
C3765 C 0.82794 0.29539 0.65531 0.0
C3766 C 0.82014 0.29798 0.6395 0.0
H3767 H 0.77562 0.33991 0.58835 0.0
H3768 H 0.79221 0.33325 0.61068 0.0
H3769 H 0.78782 0.28142 0.6138 0.0
H3770 H 0.82887 0.26279 0.67413 0.0
H3771 H 0.829 0.27078 0.64738 0.0
C3772 C 0.45107 0.04329 0.35793 0.0
C3773 C 0.45106 0.03241 0.34384 0.0
C3774 C 0.45859 0.04174 0.37348 0.0
C3775 C 0.48775 0.02063 0.39401 0.0
H3776 H 0.4739 0.03586 0.43365 0.0
C3777 C 0.52396 0.02278 0.45764 0.0
C3778 C 0.51728 0.02074 0.47171 0.0
C3779 C 0.51552 0.02406 0.44262 0.0
C3780 C 0.47795 0.03137 0.42279 0.0
H3781 H 0.45964 0.01129 0.33592 0.0
H3782 H 0.47209 0.00835 0.36258 0.0
H3783 H 0.46021 0.03812 0.40713 0.0
H3784 H 0.49602 0.01862 0.48058 0.0
H3785 H 0.48114 0.02059 0.45432 0.0
H3786 H 0.5052 0.01345 0.40951 0.0
C3787 C 0.46646 0.01835 0.3617 0.0
C3788 C 0.47012 0.03288 0.40736 0.0
C3789 C 0.45899 0.01992 0.34617 0.0
C3790 C 0.50166 0.02009 0.47012 0.0
C3791 C 0.49311 0.02136 0.45495 0.0
C3792 C 0.49553 0.01909 0.40937 0.0
C3793 C 0.46651 0.02923 0.37578 0.0
C3794 C 0.47485 0.02759 0.39255 0.0
C3795 C 0.49986 0.02329 0.44077 0.0
C3796 C 0.49093 0.02451 0.42419 0.0
H3797 H 0.44508 0.05301 0.35708 0.0
H3798 H 0.45832 0.05059 0.3837 0.0
H3799 H 0.49213 0.01651 0.38324 0.0
H3800 H 0.53593 0.02349 0.45822 0.0
H3801 H 0.52148 0.02592 0.43245 0.0
C3802 C 0.75703 0.70307 0.08851 0.0
C3803 C 0.77039 0.70222 0.08224 0.0
C3804 C 0.75739 0.71036 0.10443 0.0
C3805 C 0.78207 0.7376 0.1391 0.0
H3806 H 0.75416 0.71667 0.16457 0.0
C3807 C 0.78794 0.7535 0.20914 0.0
C3808 C 0.77476 0.75362 0.21598 0.0
C3809 C 0.78721 0.74815 0.19255 0.0
C3810 C 0.7619 0.7228 0.15758 0.0
H3811 H 0.79464 0.7086 0.08775 0.0
H3812 H 0.79531 0.72122 0.11561 0.0
H3813 H 0.75331 0.70581 0.13619 0.0
H3814 H 0.75043 0.74847 0.21062 0.0
H3815 H 0.74919 0.7393 0.18168 0.0
H3816 H 0.79077 0.75449 0.16063 0.0
C3817 C 0.78451 0.71644 0.10813 0.0
C3818 C 0.76141 0.71657 0.14127 0.0
C3819 C 0.78414 0.7092 0.09215 0.0
C3820 C 0.76082 0.74849 0.20579 0.0
C3821 C 0.7601 0.74314 0.1892 0.0
C3822 C 0.78258 0.74382 0.15544 0.0
C3823 C 0.77114 0.71694 0.11454 0.0
C3824 C 0.77151 0.72386 0.13182 0.0
C3825 C 0.77328 0.74278 0.1824 0.0
C3826 C 0.77252 0.73647 0.16489 0.0
H3827 H 0.74624 0.69806 0.08109 0.0
H3828 H 0.74686 0.71082 0.10882 0.0
H3829 H 0.78988 0.74366 0.13214 0.0
H3830 H 0.79887 0.75734 0.21661 0.0
H3831 H 0.79759 0.74786 0.18776 0.0
C3832 C 0.07715 1.00328 0.69307 0.0
C3833 C 0.08539 0.01773 0.70207 0.0
C3834 C 0.07081 1.00262 0.67676 0.0
C3835 C 0.05881 0.02773 0.64653 0.0
H3836 H 0.0649 0.99393 0.61464 0.0
C3837 C 0.04832 0.03095 0.57771 0.0
C3838 C 0.04242 0.01679 0.56688 0.0
C3839 C 0.05259 0.03048 0.59429 0.0
C3840 C 0.06286 1.0033 0.62339 0.0
H3841 H 0.09344 0.0428 0.70075 0.0
H3842 H 0.08213 0.04169 0.67252 0.0
H3843 H 0.07377 0.99409 0.64352 0.0
H3844 H 0.03624 0.99102 0.56505 0.0
H3845 H 0.04339 0.99024 0.59408 0.0
H3846 H 0.04786 0.03695 0.62652 0.0
C3847 C 0.08047 0.0309 0.67815 0.0
C3848 C 0.06798 1.00341 0.63995 0.0
C3849 C 0.08691 0.03154 0.69439 0.0
C3850 C 0.0408 1.00215 0.57305 0.0
C3851 C 0.04498 1.00169 0.58969 0.0
C3852 C 0.05359 0.02757 0.63001 0.0
C3853 C 0.07245 0.01642 0.66911 0.0
C3854 C 0.06618 0.01574 0.65167 0.0
C3855 C 0.05096 0.01586 0.60052 0.0
C3856 C 0.05573 0.01548 0.6182 0.0
H3857 H 0.07557 0.99245 0.69862 0.0
H3858 H 0.06455 0.99133 0.67014 0.0
H3859 H 0.05706 0.03726 0.65531 0.0
H3860 H 0.04983 0.04244 0.57339 0.0
H3861 H 0.05742 0.04161 0.60217 0.0
C3862 C 0.72715 0.31669 0.40678 0.0
C3863 C 0.7283 0.30758 0.41965 0.0
C3864 C 0.72776 0.31001 0.39094 0.0
C3865 C 0.72905 0.2721 0.36509 0.0
H3866 H 0.75738 0.30021 0.34567 0.0
C3867 C 0.75035 0.25198 0.30563 0.0
C3868 C 0.76563 0.2574 0.30526 0.0
C3869 C 0.74374 0.25794 0.31848 0.0
C3870 C 0.74952 0.2922 0.35099 0.0
H3871 H 0.72946 0.28393 0.42579 0.0
H3872 H 0.73134 0.27252 0.39838 0.0
H3873 H 0.74802 0.31066 0.36966 0.0
H3874 H 0.78617 0.27269 0.318 0.0
H3875 H 0.77474 0.28282 0.34082 0.0
H3876 H 0.73139 0.25339 0.34698 0.0
C3877 C 0.72973 0.28473 0.40039 0.0
C3878 C 0.74391 0.29825 0.36456 0.0
C3879 C 0.72889 0.29134 0.41617 0.0
C3880 C 0.77434 0.26842 0.3181 0.0
C3881 C 0.76776 0.27431 0.33101 0.0
C3882 C 0.7348 0.266 0.3516 0.0
C3883 C 0.72977 0.29419 0.38774 0.0
C3884 C 0.73385 0.2882 0.37196 0.0
C3885 C 0.75235 0.2693 0.3312 0.0
C3886 C 0.74533 0.27593 0.34465 0.0
H3887 H 0.72673 0.32926 0.40904 0.0
H3888 H 0.72743 0.31749 0.38136 0.0
H3889 H 0.72118 0.2641 0.37041 0.0
H3890 H 0.7434 0.24357 0.29572 0.0
H3891 H 0.73182 0.25397 0.31823 0.0
C3892 C 0.46148 0.03656 0.17823 0.0
C3893 C 0.44619 0.02972 0.17773 0.0
C3894 C 0.46871 0.03523 0.16424 0.0
C3895 C 0.46324 0.01382 0.11986 0.0
H3896 H 0.49959 0.04382 0.11816 0.0
C3897 C 0.49119 0.01567 0.05975 0.0
C3898 C 0.507 0.01941 0.06121 0.0
C3899 C 0.48377 0.01675 0.07362 0.0
C3900 C 0.48952 0.03516 0.11833 0.0
H3901 H 0.42673 0.01626 0.1611 0.0
H3902 H 0.43892 0.01432 0.13705 0.0
H3903 H 0.48713 0.04617 0.14196 0.0
H3904 H 0.52714 0.02739 0.0791 0.0
H3905 H 0.5144 0.02938 0.10292 0.0
H3906 H 0.46559 1.0031 0.09594 0.0
C3907 C 0.44568 0.02039 0.14837 0.0
C3908 C 0.48224 0.03647 0.13227 0.0
C3909 C 0.43851 0.02156 0.16241 0.0
C3910 C 0.515 0.02435 0.0772 0.0
C3911 C 0.5076 0.02561 0.09102 0.0
C3912 C 0.47044 0.01265 0.10584 0.0
C3913 C 0.46103 0.02715 0.14883 0.0
C3914 C 0.46889 0.0258 0.13354 0.0
C3915 C 0.49178 0.02184 0.08964 0.0
C3916 C 0.48382 0.02323 0.10472 0.0
H3917 H 0.46808 0.04277 0.18961 0.0
H3918 H 0.48051 0.04043 0.16577 0.0
H3919 H 0.45329 0.005 0.11994 0.0
H3920 H 0.48447 0.01184 0.04781 0.0
H3921 H 0.47164 0.01383 0.0717 0.0
C3922 C 0.77981 0.70394 0.92042 0.0
C3923 C 0.76633 0.69522 0.92372 0.0
C3924 C 0.78007 0.71151 0.90647 0.0
C3925 C 0.75795 0.71193 0.86576 0.0
H3926 H 0.78489 0.75256 0.86815 0.0
C3927 C 0.76934 0.74107 0.80825 0.0
C3928 C 0.77222 0.75781 0.80965 0.0
C3929 C 0.76767 0.73344 0.82202 0.0
C3930 C 0.77714 0.74132 0.86727 0.0
H3931 H 0.74252 0.6876 0.91465 0.0
H3932 H 0.74288 0.70129 0.89075 0.0
H3933 H 0.78376 0.73962 0.89243 0.0
H3934 H 0.77494 0.77969 0.82638 0.0
H3935 H 0.77158 0.76646 0.8503 0.0
H3936 H 0.751 0.7139 0.8407 0.0
C3937 C 0.75334 0.70204 0.89879 0.0
C3938 C 0.77667 0.73374 0.88119 0.0
C3939 C 0.7531 0.69436 0.91268 0.0
C3940 C 0.77279 0.76676 0.82495 0.0
C3941 C 0.77102 0.75916 0.83869 0.0
C3942 C 0.75834 0.71958 0.85186 0.0
C3943 C 0.76684 0.71071 0.89547 0.0
C3944 C 0.76713 0.7189 0.88063 0.0
C3945 C 0.76873 0.7424 0.8375 0.0
C3946 C 0.76798 0.73436 0.85239 0.0
H3947 H 0.79021 0.70507 0.92869 0.0
H3948 H 0.79073 0.71787 0.90426 0.0
H3949 H 0.75059 0.70043 0.86476 0.0
H3950 H 0.76891 0.73385 0.79661 0.0
H3951 H 0.76608 0.72055 0.82059 0.0
C3952 C 0.876 0.12164 0.02908 0.0
C3953 C 0.86485 0.12488 0.0174 0.0
C3954 C 0.88366 0.10943 0.02528 0.0
C3955 C 0.89472 0.08702 0.99093 0.0
H3956 H 0.90229 0.05767 0.02164 0.0
C3957 C 0.94174 0.05125 0.99066 0.0
C3958 C 0.9386 0.0354 0.99371 0.0
C3959 C 0.931 0.06075 0.9916 0.0
C3960 C 0.90006 0.06564 0.01286 0.0
H3961 H 0.85269 0.11768 0.99275 0.0
H3962 H 0.86635 0.09655 0.98603 0.0
H3963 H 0.8867 0.07723 0.02769 0.0
H3964 H 0.92184 0.01678 0.99966 0.0
H3965 H 0.9029 0.03353 1.00132 0.0
H3966 H 0.90831 0.07562 0.97625 0.0
C3967 C 0.8692 0.10355 0.99805 0.0
C3968 C 0.89131 0.07691 0.0164 0.0
C3969 C 0.86147 0.11568 1.00188 0.0
C3970 C 0.9244 0.02897 0.99714 0.0
C3971 C 0.91368 0.03853 0.99821 0.0
C3972 C 0.90353 0.07582 0.98744 0.0
C3973 C 0.88033 0.10034 0.00972 0.0
C3974 C 0.88876 0.0878 0.00555 0.0
C3975 C 0.917 0.05455 0.99569 0.0
C3976 C 0.90641 0.0652 0.99848 0.0
H3977 H 0.87892 0.12866 0.04108 0.0
H3978 H 0.89237 0.10729 0.03439 0.0
H3979 H 0.89297 0.09539 0.98245 0.0
H3980 H 0.95264 0.05639 0.98794 0.0
H3981 H 0.93387 0.07314 0.98978 0.0
C3982 C 0.37943 0.44242 0.04482 0.0
C3983 C 0.37213 0.42939 0.03301 0.0
C3984 C 0.39404 0.45026 0.04412 0.0
C3985 C 0.42146 0.45708 0.0156 0.0
H3986 H 0.45027 0.47063 0.05528 0.0
C3987 C 0.48336 0.48669 0.01452 0.0
C3988 C 0.48988 0.49942 0.02693 0.0
C3989 C 0.4694 0.47721 0.01526 0.0
C3990 C 0.44234 0.46711 0.04407 0.0
H3991 H 0.37488 0.41419 0.01143 0.0
H3992 H 0.40017 0.42795 0.01012 0.0
H3993 H 0.42517 0.45632 0.05662 0.0
H3994 H 0.48701 0.51208 0.04991 0.0
H3995 H 0.46272 0.49591 0.05106 0.0
H3996 H 0.43853 0.46809 0.00308 0.0
C3997 C 0.3945 0.43226 0.0198 0.0
C3998 C 0.42792 0.45887 0.04486 0.0
C3999 C 0.37994 0.42437 0.02056 0.0
C4000 C 0.4823 0.50233 0.04017 0.0
C4001 C 0.46837 0.49294 0.04088 0.0
C4002 C 0.43588 0.46541 0.01482 0.0
C4003 C 0.40175 0.44532 0.03155 0.0
C4004 C 0.41724 0.45382 0.03065 0.0
C4005 C 0.46165 0.48028 0.02841 0.0
C4006 C 0.44651 0.47066 0.02907 0.0
H4007 H 0.37376 0.44681 0.05446 0.0
H4008 H 0.39919 0.46041 0.05326 0.0
H4009 H 0.41349 0.45354 0.00443 0.0
H4010 H 0.48895 0.48416 0.00417 0.0
H4011 H 0.46471 0.46745 0.00553 0.0
C4012 C 0.38656 0.58829 0.75678 0.0
C4013 C 0.378 0.57268 0.75399 0.0
C4014 C 0.37959 0.6015 0.75738 0.0
C4015 C 0.34318 0.61368 0.7616 0.0
H4016 H 0.3599 0.64957 0.74117 0.0
C4017 C 0.3187 0.67123 0.7632 0.0
C4018 C 0.3175 0.67811 0.74871 0.0
C4019 C 0.32665 0.65888 0.76477 0.0
C4020 C 0.35502 0.63961 0.74683 0.0
H4021 H 0.3553 0.55885 0.75011 0.0
H4022 H 0.34316 0.58182 0.75041 0.0
H4023 H 0.37234 0.62686 0.74204 0.0
H4024 H 0.32402 0.67764 0.72468 0.0
H4025 H 0.33755 0.65586 0.72724 0.0
H4026 H 0.32551 0.62616 0.76576 0.0
C4027 C 0.3553 0.58387 0.75245 0.0
C4028 C 0.36228 0.62666 0.74754 0.0
C4029 C 0.36227 0.57066 0.75202 0.0
C4030 C 0.32459 0.67248 0.73592 0.0
C4031 C 0.33251 0.66013 0.73748 0.0
C4032 C 0.33587 0.62659 0.76079 0.0
C4033 C 0.36386 0.59945 0.75504 0.0
C4034 C 0.35641 0.61349 0.75485 0.0
C4035 C 0.33358 0.65312 0.75189 0.0
C4036 C 0.34165 0.63966 0.75331 0.0
H4037 H 0.39868 0.59035 0.75817 0.0
H4038 H 0.38655 0.61332 0.75964 0.0
H4039 H 0.33844 0.60384 0.76751 0.0
H4040 H 0.31324 0.67517 0.77322 0.0
H4041 H 0.32739 0.65388 0.7761 0.0
C4042 C 0.22276 0.62472 0.52432 0.0
C4043 C 0.23419 0.62145 0.51564 0.0
C4044 C 0.20979 0.61329 0.52341 0.0
C4045 C 0.18745 0.57538 0.50052 0.0
H4046 H 0.17362 0.57195 0.54208 0.0
C4047 C 0.12873 0.54223 0.50742 0.0
C4048 C 0.12694 0.53592 0.522 0.0
C4049 C 0.14279 0.55009 0.50508 0.0
C4050 C 0.17745 0.57248 0.5304 0.0
H4051 H 0.24093 0.60405 0.49871 0.0
H4052 H 0.21825 0.58377 0.49734 0.0
H4053 H 0.19588 0.59124 0.54077 0.0
H4054 H 0.13882 0.53174 0.54492 0.0
H4055 H 0.16333 0.54459 0.54042 0.0
H4056 H 0.16905 0.5563 0.49025 0.0
C4057 C 0.21924 0.59526 0.50467 0.0
C4058 C 0.19008 0.58379 0.52961 0.0
C4059 C 0.23219 0.60681 0.50546 0.0
C4060 C 0.13972 0.5364 0.53352 0.0
C4061 C 0.15379 0.544 0.53106 0.0
C4062 C 0.17481 0.56391 0.50133 0.0
C4063 C 0.20808 0.59826 0.51397 0.0
C4064 C 0.19506 0.58559 0.51463 0.0
C4065 C 0.15536 0.55158 0.51717 0.0
C4066 C 0.16957 0.56249 0.51627 0.0
H4067 H 0.22398 0.63605 0.53204 0.0
H4068 H 0.2012 0.61612 0.53036 0.0
H4069 H 0.19104 0.5765 0.4888 0.0
H4070 H 0.11917 0.5417 0.4981 0.0
H4071 H 0.14358 0.55578 0.49424 0.0
C4072 C 0.69327 0.90914 0.78693 0.0
C4073 C 0.69674 0.92148 0.77735 0.0
C4074 C 0.70021 0.89554 0.7863 0.0
C4075 C 0.73322 0.8792 0.77122 0.0
H4076 H 0.71255 0.83916 0.78143 0.0
C4077 C 0.76393 0.82436 0.77582 0.0
C4078 C 0.75574 0.80847 0.77232 0.0
C4079 C 0.75675 0.83774 0.77647 0.0
C4080 C 0.71861 0.85012 0.77837 0.0
H4081 H 0.71098 0.92832 0.75955 0.0
H4082 H 0.72255 0.90492 0.75819 0.0
H4083 H 0.7004 0.86221 0.78207 0.0
H4084 H 0.73303 0.79482 0.76679 0.0
H4085 H 0.72059 0.81782 0.7678 0.0
H4086 H 0.75127 0.86705 0.76712 0.0
C4087 C 0.71452 0.90575 0.76648 0.0
C4088 C 0.71159 0.86366 0.77897 0.0
C4089 C 0.70759 0.91934 0.7671 0.0
C4090 C 0.73993 0.80668 0.76959 0.0
C4091 C 0.73272 0.82009 0.77027 0.0
C4092 C 0.74024 0.86568 0.77063 0.0
C4093 C 0.71106 0.89342 0.77606 0.0
C4094 C 0.71868 0.87864 0.77541 0.0
C4095 C 0.74092 0.83605 0.77366 0.0
C4096 C 0.73317 0.85072 0.77421 0.0
H4097 H 0.68497 0.90978 0.79492 0.0
H4098 H 0.69709 0.88674 0.79414 0.0
H4099 H 0.73945 0.89025 0.76854 0.0
H4100 H 0.77607 0.82655 0.77804 0.0
H4101 H 0.76378 0.8495 0.77943 0.0
C4102 C 0.72402 0.93756 0.53903 0.0
C4103 C 0.72559 0.92547 0.52685 0.0
C4104 C 0.71133 0.94461 0.53773 0.0
C4105 C 0.67981 0.95108 0.50803 0.0
H4106 H 0.66212 0.96013 0.54684 0.0
C4107 C 0.62356 0.97406 0.50613 0.0
C4108 C 0.62228 0.98525 0.5193 0.0
C4109 C 0.63601 0.96657 0.50658 0.0
C4110 C 0.667 0.95789 0.53589 0.0
H4111 H 0.71474 0.91133 0.50376 0.0
H4112 H 0.69274 0.92373 0.50146 0.0
H4113 H 0.68401 0.94764 0.54854 0.0
H4114 H 0.63351 0.99783 0.54294 0.0
H4115 H 0.65512 0.98499 0.54367 0.0
H4116 H 0.66284 0.96147 0.49541 0.0
C4117 C 0.70144 0.92786 0.51195 0.0
C4118 C 0.67958 0.95069 0.53688 0.0
C4119 C 0.71411 0.92076 0.51327 0.0
C4120 C 0.63392 0.989 0.53274 0.0
C4121 C 0.64635 0.98159 0.53317 0.0
C4122 C 0.66723 0.95836 0.50705 0.0
C4123 C 0.69984 0.93984 0.5242 0.0
C4124 C 0.68623 0.94726 0.52299 0.0
C4125 C 0.64753 0.97014 0.52019 0.0
C4126 C 0.6607 0.96197 0.521 0.0
H4127 H 0.7327 0.94177 0.54952 0.0
H4128 H 0.71063 0.95399 0.54728 0.0
H4129 H 0.68471 0.94877 0.49711 0.0
H4130 H 0.61476 0.9708 0.49564 0.0
H4131 H 0.63643 0.95771 0.49641 0.0
C4132 C 0.3555 0.42314 0.75705 0.0
C4133 C 0.36833 0.42295 0.74958 0.0
C4134 C 0.34612 0.4089 0.75861 0.0
C4135 C 0.33646 0.36553 0.74265 0.0
H4136 H 0.31845 0.3631 0.78196 0.0
C4137 C 0.30324 0.30654 0.75752 0.0
C4138 C 0.28973 0.30746 0.76339 0.0
C4139 C 0.31316 0.32044 0.756 0.0
C4140 C 0.32331 0.36363 0.77085 0.0
H4141 H 0.38137 0.4076 0.73789 0.0
H4142 H 0.36513 0.38269 0.74079 0.0
H4143 H 0.33518 0.38756 0.77892 0.0
H4144 H 0.27581 0.32348 0.77204 0.0
H4145 H 0.29316 0.34785 0.76945 0.0
H4146 H 0.32467 0.34147 0.73473 0.0
C4147 C 0.36214 0.39387 0.7452 0.0
C4148 C 0.33287 0.37768 0.76907 0.0
C4149 C 0.37148 0.40815 0.74354 0.0
C4150 C 0.28623 0.32249 0.76761 0.0
C4151 C 0.2962 0.33641 0.76621 0.0
C4152 C 0.32698 0.35143 0.7445 0.0
C4153 C 0.34937 0.39405 0.75285 0.0
C4154 C 0.33949 0.37888 0.75489 0.0
C4155 C 0.30976 0.33555 0.76035 0.0
C4156 C 0.3202 0.35036 0.75857 0.0
H4157 H 0.35262 0.43435 0.7616 0.0
H4158 H 0.33623 0.40957 0.76423 0.0
H4159 H 0.34117 0.36605 0.73146 0.0
H4160 H 0.30595 0.29508 0.7537 0.0
H4161 H 0.32352 0.31936 0.75147 0.0
C4162 C 0.20076 0.5911 0.26303 0.0
C4163 C 0.19986 0.58539 0.27813 0.0
C4164 C 0.20753 0.60703 0.26213 0.0
C4165 C 0.23182 0.64483 0.28781 0.0
H4166 H 0.21936 0.66424 0.24998 0.0
C4167 C 0.25229 0.71331 0.28433 0.0
C4168 C 0.25522 0.71789 0.2692 0.0
C4169 C 0.24562 0.69742 0.28564 0.0
C4170 C 0.22316 0.65907 0.26062 0.0
H4171 H 0.20555 0.59276 0.30424 0.0
H4172 H 0.21688 0.62031 0.30278 0.0
H4173 H 0.20786 0.63693 0.25185 0.0
H4174 H 0.25316 0.70878 0.24354 0.0
H4175 H 0.2416 0.68146 0.24575 0.0
H4176 H 0.24692 0.66723 0.29666 0.0
C4177 C 0.21272 0.6124 0.29144 0.0
C4178 C 0.21652 0.64315 0.2617 0.0
C4179 C 0.20609 0.59639 0.29232 0.0
C4180 C 0.25111 0.70594 0.25543 0.0
C4181 C 0.24434 0.69013 0.25671 0.0
C4182 C 0.23835 0.66082 0.2868 0.0
C4183 C 0.21361 0.61817 0.27631 0.0
C4184 C 0.22072 0.63553 0.27528 0.0
C4185 C 0.24146 0.68546 0.27184 0.0
C4186 C 0.23423 0.6683 0.27314 0.0
H4187 H 0.19642 0.58315 0.25173 0.0
H4188 H 0.20814 0.61045 0.25015 0.0
H4189 H 0.23577 0.63971 0.29841 0.0
H4190 H 0.25523 0.722 0.29527 0.0
H4191 H 0.24354 0.69459 0.29752 0.0
C4192 C 0.49707 0.66771 0.45206 0.0
C4193 C 0.51009 0.6773 0.44867 0.0
C4194 C 0.49773 0.65336 0.45834 0.0
C4195 C 0.52264 0.62358 0.46372 0.0
H4196 H 0.49682 0.60971 0.49461 0.0
C4197 C 0.533 0.57353 0.50131 0.0
C4198 C 0.52062 0.56168 0.50244 0.0
C4199 C 0.53099 0.58734 0.4947 0.0
C4200 C 0.504 0.61336 0.48587 0.0
H4201 H 0.53407 0.67892 0.44921 0.0
H4202 H 0.53534 0.65462 0.46091 0.0
H4203 H 0.49488 0.63439 0.48335 0.0
H4204 H 0.49633 0.55532 0.49781 0.0
H4205 H 0.49281 0.57969 0.48639 0.0
H4206 H 0.53202 0.60277 0.46661 0.0
C4207 C 0.52449 0.65792 0.45835 0.0
C4208 C 0.50288 0.6275 0.47935 0.0
C4209 C 0.5238 0.67212 0.45188 0.0
C4210 C 0.50611 0.5642 0.49712 0.0
C4211 C 0.50409 0.57817 0.49063 0.0
C4212 C 0.52387 0.60958 0.47037 0.0
C4213 C 0.51146 0.64823 0.46159 0.0
C4214 C 0.51227 0.6329 0.46825 0.0
C4215 C 0.51654 0.58979 0.48914 0.0
C4216 C 0.51466 0.60435 0.48162 0.0
H4217 H 0.48632 0.6713 0.45 0.0
H4218 H 0.48741 0.64621 0.46046 0.0
H4219 H 0.52981 0.62701 0.45491 0.0
H4220 H 0.54436 0.57206 0.50525 0.0
H4221 H 0.5408 0.59615 0.49397 0.0
C4222 C 0.63185 0.26697 0.672 0.0
C4223 C 0.62639 0.28129 0.67417 0.0
C4224 C 0.64616 0.26597 0.67964 0.0
C4225 C 0.68294 0.29093 0.6989 0.0
H4226 H 0.68872 0.2534 0.71877 0.0
C4227 C 0.73624 0.29047 0.74388 0.0
C4228 C 0.74195 0.27636 0.7443 0.0
C4229 C 0.72269 0.29058 0.73405 0.0
C4230 C 0.6874 0.26387 0.71306 0.0
H4231 H 0.63189 0.30576 0.68631 0.0
H4232 H 0.65682 0.30403 0.6995 0.0
H4233 H 0.66405 0.2546 0.7044 0.0
H4234 H 0.7381 0.25133 0.73435 0.0
H4235 H 0.7144 0.25151 0.71686 0.0
H4236 H 0.70623 0.30023 0.70752 0.0
C4237 C 0.65007 0.2936 0.69172 0.0
C4238 C 0.67321 0.26457 0.70484 0.0
C4239 C 0.63574 0.2946 0.68413 0.0
C4240 C 0.73397 0.26239 0.73428 0.0
C4241 C 0.72033 0.26249 0.72438 0.0
C4242 C 0.69713 0.29019 0.70704 0.0
C4243 C 0.65548 0.27927 0.6896 0.0
C4244 C 0.67073 0.2782 0.69782 0.0
C4245 C 0.71443 0.27658 0.72426 0.0
C4246 C 0.69954 0.27675 0.71445 0.0
H4247 H 0.62516 0.25654 0.66417 0.0
H4248 H 0.65001 0.25481 0.67751 0.0
H4249 H 0.68157 0.30148 0.69336 0.0
H4250 H 0.74211 0.30144 0.75147 0.0
H4251 H 0.71848 0.3016 0.73455 0.0
C4252 C 0.02352 0.3479 0.94776 0.0
C4253 C 0.01604 0.33539 0.9549 0.0
C4254 C 0.02354 0.36381 0.95354 0.0
C4255 C 0.01532 0.3901 0.98876 0.0
H4256 H 0.01643 0.42052 0.95786 0.0
C4257 C 0.0087 0.45634 0.00365 0.0
C4258 C 0.0207 0.46738 1.00023 0.0
C4259 C 0.00721 0.44001 0.99822 0.0
C4260 C 0.0161 0.41213 0.9666 0.0
H4261 H 1.00282 0.33009 0.97401 0.0
H4262 H 1.00211 0.35772 0.98342 0.0
H4263 H 0.01535 0.39245 0.94825 0.0
H4264 H 0.0403 0.47012 0.98811 0.0
H4265 H 0.0374 0.44172 0.97821 0.0
H4266 H 0.01562 0.40998 0.00699 0.0
C4267 C 0.00834 0.35526 0.97361 0.0
C4268 C 0.01563 0.39604 0.96116 0.0
C4269 C 0.00855 0.33932 0.96801 0.0
C4270 C 0.03098 0.46187 0.991 0.0
C4271 C 0.0293 0.44565 0.98528 0.0
C4272 C 0.01548 0.40618 0.99413 0.0
C4273 C 0.0158 0.36775 0.96642 0.0
C4274 C 0.0155 0.3848 0.97219 0.0
C4275 C 0.01749 0.43456 0.98894 0.0
C4276 C 0.0161 0.41735 0.98313 0.0
H4277 H 0.02918 0.34548 0.93745 0.0
H4278 H 0.0297 0.37301 0.94786 0.0
H4279 H 0.01544 0.38194 0.9977 0.0
H4280 H 1.00067 0.46027 0.01081 0.0
H4281 H 0.99799 0.43165 1.00115 0.0
C4282 C 0.96782 0.78559 0.16811 0.0
C4283 C 0.97823 0.77591 0.17223 0.0
C4284 C 0.95468 0.78468 0.17508 0.0
C4285 C 0.92987 0.75835 0.19697 0.0
H4286 H 0.91451 0.79677 0.2081 0.0
C4287 C 0.88195 0.75946 0.23544 0.0
C4288 C 0.87105 0.76855 0.23108 0.0
C4289 C 0.89477 0.76024 0.22795 0.0
C4290 C 0.91854 0.78589 0.2049 0.0
H4291 H 0.98305 0.7579 0.18723 0.0
H4292 H 0.96031 0.75647 0.19954 0.0
H4293 H 0.93734 0.79847 0.19593 0.0
H4294 H 0.86514 0.78542 0.21511 0.0
H4295 H 0.88754 0.78682 0.20209 0.0
H4296 H 0.91112 0.74581 0.20608 0.0
C4297 C 0.9621 0.76453 0.19063 0.0
C4298 C 0.93166 0.78685 0.19789 0.0
C4299 C 0.9752 0.76538 0.1836 0.0
C4300 C 0.87335 0.77841 0.21896 0.0
C4301 C 0.88622 0.77922 0.21148 0.0
C4302 C 0.91678 0.7574 0.20403 0.0
C4303 C 0.95161 0.77413 0.18644 0.0
C4304 C 0.93755 0.7731 0.19384 0.0
C4305 C 0.89712 0.77017 0.2159 0.0
C4306 C 0.91094 0.77116 0.20812 0.0
H4307 H 0.96966 0.79365 0.1592 0.0
H4308 H 0.94679 0.79207 0.17131 0.0
H4309 H 0.93386 0.74744 0.19376 0.0
H4310 H 0.88076 0.75198 0.24495 0.0
H4311 H 0.90302 0.75331 0.23187 0.0
C4312 C 0.54456 0.33826 0.13394 0.0
C4313 C 0.55017 0.32537 0.12692 0.0
C4314 C 0.54566 0.35232 0.12703 0.0
C4315 C 0.56458 0.37425 0.09755 0.0
H4316 H 0.52879 0.39267 0.09334 0.0
C4317 C 0.55103 0.4153 0.05042 0.0
C4318 C 0.54501 0.42862 0.05561 0.0
C4319 C 0.5535 0.40425 0.06091 0.0
C4320 C 0.53894 0.38781 0.09467 0.0
H4321 H 0.56148 0.31697 0.10742 0.0
H4322 H 0.56312 0.34142 0.09506 0.0
H4323 H 0.52966 0.37023 0.10846 0.0
H4324 H 0.53742 0.44117 0.07603 0.0
H4325 H 0.54142 0.42154 0.09426 0.0
H4326 H 0.57355 0.39151 0.0831 0.0
C4327 C 0.55818 0.34084 0.1061 0.0
C4328 C 0.53947 0.37499 0.10334 0.0
C4329 C 0.55719 0.32683 0.11311 0.0
C4330 C 0.54182 0.43086 0.07161 0.0
C4331 C 0.54417 0.41972 0.08205 0.0
C4332 C 0.564 0.387 0.08875 0.0
C4333 C 0.55227 0.35365 0.11289 0.0
C4334 C 0.55223 0.36797 0.10472 0.0
C4335 C 0.54988 0.40626 0.0767 0.0
C4336 C 0.55111 0.39375 0.08713 0.0
H4337 H 0.5393 0.33745 0.14476 0.0
H4338 H 0.54125 0.3621 0.13269 0.0
H4339 H 0.57464 0.36922 0.09862 0.0
H4340 H 0.55337 0.41311 0.03808 0.0
H4341 H 0.5577 0.39382 0.05645 0.0
C4342 C 0.94544 0.28664 0.30464 0.0
C4343 C 0.95085 0.27243 0.30552 0.0
C4344 C 0.93037 0.28611 0.29881 0.0
C4345 C 0.89487 0.25869 0.29745 0.0
H4346 H 0.87777 0.2911 0.27703 0.0
C4347 C 0.83162 0.25484 0.28013 0.0
C4348 C 0.82604 0.26873 0.28421 0.0
C4349 C 0.84699 0.25534 0.28205 0.0
C4350 C 0.88247 0.28206 0.28286 0.0
H4351 H 0.94545 0.2467 0.29951 0.0
H4352 H 0.91918 0.24573 0.28865 0.0
H4353 H 0.90465 0.29139 0.27872 0.0
H4354 H 0.832 0.29395 0.29376 0.0
H4355 H 0.85911 0.29481 0.29711 0.0
H4356 H 0.87272 0.24935 0.30155 0.0
C4357 C 0.9264 0.25725 0.29296 0.0
C4358 C 0.89779 0.28218 0.28376 0.0
C4359 C 0.94142 0.25778 0.29901 0.0
C4360 C 0.83606 0.28306 0.29064 0.0
C4361 C 0.85151 0.2836 0.29238 0.0
C4362 C 0.87959 0.2585 0.29642 0.0
C4363 C 0.92056 0.27135 0.29364 0.0
C4364 C 0.90416 0.27053 0.29114 0.0
C4365 C 0.85705 0.26975 0.28794 0.0
C4366 C 0.87328 0.27023 0.28921 0.0
H4367 H 0.95252 0.29807 0.30977 0.0
H4368 H 0.92622 0.29718 0.29959 0.0
H4369 H 0.89946 0.24981 0.30364 0.0
H4370 H 0.82412 0.24361 0.27518 0.0
H4371 H 0.85101 0.24453 0.27848 0.0
C4372 C 0.03283 0.66129 0.59775 0.0
C4373 C 0.04456 0.67462 0.60233 0.0
C4374 C 0.03413 0.64874 0.58626 0.0
C4375 C 0.06111 0.62835 0.56959 0.0
H4376 H 0.02767 0.61027 0.53511 0.0
C4377 C 0.0393 0.57216 0.51391 0.0
C4378 C 0.04049 0.55963 0.52309 0.0
C4379 C 0.04311 0.58795 0.52154 0.0
C4380 C 0.03724 0.61537 0.54446 0.0
H4381 H 0.06684 0.68526 0.59832 0.0
H4382 H 0.06925 0.66297 0.57856 0.0
H4383 H 0.02712 0.63484 0.5526 0.0
H4384 H 0.04752 0.55368 0.54708 0.0
H4385 H 0.05439 0.58121 0.56033 0.0
H4386 H 0.07091 0.60844 0.56186 0.0
C4387 C 0.05906 0.66238 0.58389 0.0
C4388 C 0.03683 0.62929 0.55455 0.0
C4389 C 0.05769 0.67505 0.59525 0.0
C4390 C 0.04661 0.56313 0.5397 0.0
C4391 C 0.05058 0.57889 0.54728 0.0
C4392 C 0.06145 0.6143 0.55957 0.0
C4393 C 0.04724 0.6492 0.57925 0.0
C4394 C 0.04859 0.63566 0.56742 0.0
C4395 C 0.04833 0.59139 0.53838 0.0
C4396 C 0.04936 0.60753 0.54715 0.0
H4397 H 0.0227 0.66042 0.60321 0.0
H4398 H 0.02497 0.63853 0.58307 0.0
H4399 H 0.07027 0.63305 0.57951 0.0
H4400 H 0.03463 0.56974 0.50106 0.0
H4401 H 0.04137 0.59744 0.51444 0.0
C4402 C 0.59051 0.79703 0.81855 0.0
C4403 C 0.59016 0.7892 0.8324 0.0
C4404 C 0.60118 0.79514 0.80839 0.0
C4405 C 0.62501 0.76684 0.79723 0.0
H4406 H 0.64718 0.80184 0.77958 0.0
C4407 C 0.66924 0.75507 0.75838 0.0
C4408 C 0.68315 0.76555 0.76312 0.0
C4409 C 0.65633 0.75915 0.76335 0.0
C4410 C 0.64105 0.79195 0.7844 0.0
H4411 H 0.60111 0.77405 0.84704 0.0
H4412 H 0.6198 0.77085 0.82944 0.0
H4413 H 0.62826 0.80689 0.7965 0.0
H4414 H 0.69415 0.78915 0.7754 0.0
H4415 H 0.67179 0.79592 0.78479 0.0
H4416 H 0.63819 0.75202 0.78602 0.0
C4417 C 0.61163 0.77812 0.82618 0.0
C4418 C 0.63015 0.79482 0.79396 0.0
C4419 C 0.60099 0.77998 0.83628 0.0
C4420 C 0.68366 0.78065 0.7719 0.0
C4421 C 0.67078 0.78464 0.77707 0.0
C4422 C 0.6359 0.76398 0.78778 0.0
C4423 C 0.61163 0.78539 0.81196 0.0
C4424 C 0.62229 0.78234 0.80075 0.0
C4425 C 0.65709 0.77368 0.77334 0.0
C4426 C 0.64423 0.77654 0.78149 0.0
H4427 H 0.58219 0.8041 0.81522 0.0
H4428 H 0.60091 0.80082 0.79747 0.0
H4429 H 0.6189 0.75693 0.80205 0.0
H4430 H 0.66844 0.74333 0.75165 0.0
H4431 H 0.64586 0.7506 0.75998 0.0
C4432 C 0.45525 0.49803 0.65808 0.0
C4433 C 0.45797 0.51083 0.67089 0.0
C4434 C 0.46128 0.49973 0.64372 0.0
C4435 C 0.47677 0.53041 0.61958 0.0
H4436 H 0.49326 0.49616 0.59888 0.0
C4437 C 0.51234 0.53885 0.56798 0.0
C4438 C 0.51099 0.526 0.55554 0.0
C4439 C 0.50494 0.53701 0.58143 0.0
C4440 C 0.4885 0.50576 0.60434 0.0
H4441 H 0.46953 0.53536 0.67871 0.0
H4442 H 0.48001 0.53832 0.65369 0.0
H4443 H 0.48249 0.49283 0.62367 0.0
H4444 H 0.50046 0.50127 0.5471 0.0
H4445 H 0.48722 0.49814 0.57036 0.0
H4446 H 0.48281 0.54336 0.60029 0.0
C4447 C 0.47299 0.52704 0.65464 0.0
C4448 C 0.48234 0.50385 0.6186 0.0
C4449 C 0.46698 0.52533 0.66901 0.0
C4450 C 0.50168 0.51141 0.5565 0.0
C4451 C 0.49423 0.50957 0.56992 0.0
C4452 C 0.4829 0.5323 0.60531 0.0
C4453 C 0.47017 0.51428 0.64179 0.0
C4454 C 0.47648 0.51618 0.62644 0.0
C4455 C 0.49597 0.52228 0.5827 0.0
C4456 C 0.48891 0.52004 0.59754 0.0
H4457 H 0.44818 0.48677 0.659 0.0
H4458 H 0.45873 0.48973 0.63398 0.0
H4459 H 0.47212 0.54005 0.62514 0.0
H4460 H 0.5195 0.55021 0.56759 0.0
H4461 H 0.50668 0.547 0.59109 0.0
C4462 C 0.77022 0.2158 0.96346 0.0
C4463 C 0.7849 0.21524 0.96067 0.0
C4464 C 0.75903 0.21619 0.95055 0.0
C4465 C 0.75056 0.20868 0.9054 0.0
H4466 H 0.72458 0.2393 0.91092 0.0
C4467 C 0.73252 0.25563 0.86678 0.0
C4468 C 0.73097 0.24655 0.85137 0.0
C4469 C 0.73116 0.2481 0.88052 0.0
C4470 C 0.73159 0.23051 0.90921 0.0
H4471 H 0.79955 0.21491 0.94241 0.0
H4472 H 0.78019 0.21627 0.91988 0.0
H4473 H 0.74026 0.2338 0.93464 0.0
H4474 H 0.72424 0.22271 0.8378 0.0
H4475 H 0.72173 0.20947 0.86189 0.0
H4476 H 0.74319 0.2066 0.87988 0.0
C4477 C 0.77716 0.2159 0.93194 0.0
C4478 C 0.74053 0.22729 0.92282 0.0
C4479 C 0.7883 0.21534 0.94482 0.0
C4480 C 0.72586 0.22995 0.84963 0.0
C4481 C 0.72443 0.22239 0.86341 0.0
C4482 C 0.74182 0.21207 0.89179 0.0
C4483 C 0.76236 0.21612 0.93464 0.0
C4484 C 0.75069 0.21699 0.92091 0.0
C4485 C 0.72822 0.23134 0.87908 0.0
C4486 C 0.73289 0.22373 0.89346 0.0
H4487 H 0.76724 0.21539 0.97554 0.0
H4488 H 0.74774 0.21625 0.953 0.0
H4489 H 0.75793 0.20028 0.90363 0.0
H4490 H 0.73648 0.26844 0.86858 0.0
H4491 H 0.73421 0.25545 0.89233 0.0
C4492 C 0.10486 0.51438 0.18579 0.0
C4493 C 0.10652 0.49948 0.19074 0.0
C4494 C 0.0973 0.51555 0.17016 0.0
C4495 C 0.07194 0.49032 0.13251 0.0
H4496 H 0.08018 0.52945 0.11375 0.0
C4497 C 0.03547 0.49792 0.07185 0.0
C4498 C 0.041 0.50862 0.06149 0.0
C4499 C 0.04367 0.49704 0.08715 0.0
C4500 C 0.07774 0.51828 0.11853 0.0
H4501 H 0.10097 0.47403 0.18203 0.0
H4502 H 0.08875 0.47607 0.15504 0.0
H4503 H 0.09393 0.52734 0.14007 0.0
H4504 H 0.05991 0.52696 0.05967 0.0
H4505 H 0.07457 0.52497 0.08587 0.0
H4506 H 0.05636 0.48093 0.1107 0.0
C4507 C 0.09292 0.48702 0.16338 0.0
C4508 C 0.08558 0.51713 0.13405 0.0
C4509 C 0.10032 0.48584 0.17908 0.0
C4510 C 0.05522 0.51843 0.06709 0.0
C4511 C 0.06361 0.51738 0.08239 0.0
C4512 C 0.06427 0.49139 0.11694 0.0
C4513 C 0.09112 0.5019 0.15849 0.0
C4514 C 0.08283 0.50314 0.14154 0.0
C4515 C 0.05802 0.50665 0.09287 0.0
C4516 C 0.06682 0.50544 0.10955 0.0
H4517 H 0.10954 0.52537 0.1939 0.0
H4518 H 0.09619 0.52732 0.16741 0.0
H4519 H 0.06905 0.47932 0.13749 0.0
H4520 H 0.02454 0.49024 0.06821 0.0
H4521 H 0.03845 0.48889 0.09459 0.0
C4522 C 0.77123 0.82725 0.44108 0.0
C4523 C 0.78478 0.83099 0.45204 0.0
C4524 C 0.77077 0.82021 0.42503 0.0
C4525 C 0.79252 0.79918 0.39785 0.0
H4526 H 0.76687 0.81314 0.36385 0.0
C4527 C 0.7953 0.78469 0.32877 0.0
C4528 C 0.78153 0.78046 0.31816 0.0
C4529 C 0.79578 0.79011 0.34533 0.0
C4530 C 0.77398 0.80899 0.37321 0.0
H4531 H 0.80847 0.83024 0.45476 0.0
H4532 H 0.80776 0.81827 0.42669 0.0
H4533 H 0.76749 0.82385 0.39221 0.0
H4534 H 0.75743 0.77838 0.31676 0.0
H4535 H 0.7583 0.78776 0.34552 0.0
H4536 H 0.7992 0.78453 0.37865 0.0
C4537 C 0.79739 0.82041 0.43055 0.0
C4538 C 0.77431 0.81509 0.38951 0.0
C4539 C 0.79781 0.82731 0.44666 0.0
C4540 C 0.76825 0.78156 0.32454 0.0
C4541 C 0.76874 0.78704 0.34103 0.0
C4542 C 0.79227 0.79315 0.38149 0.0
C4543 C 0.78389 0.8169 0.41946 0.0
C4544 C 0.78353 0.81024 0.40208 0.0
C4545 C 0.7825 0.79151 0.3516 0.0
C4546 C 0.78295 0.79795 0.369 0.0
H4547 H 0.76096 0.82976 0.44493 0.0
H4548 H 0.76009 0.81737 0.41698 0.0
H4549 H 0.79962 0.79499 0.40718 0.0
H4550 H 0.80575 0.78399 0.32428 0.0
H4551 H 0.80657 0.79357 0.35314 0.0
C4552 C 0.47128 0.52904 0.84192 0.0
C4553 C 0.46879 0.51448 0.83144 0.0
C4554 C 0.47742 0.53007 0.85835 0.0
C4555 C 0.48114 0.50447 0.8905 0.0
H4556 H 0.51024 0.54078 0.91425 0.0
C4557 C 0.51007 0.50322 0.95539 0.0
C4558 C 0.51242 0.51712 0.9668 0.0
C4559 C 0.50515 0.50355 0.93893 0.0
C4560 C 0.50198 0.53064 0.90783 0.0
H4561 H 0.47161 0.48986 0.82977 0.0
H4562 H 0.48239 0.49166 0.85835 0.0
H4563 H 0.50138 0.54025 0.88523 0.0
H4564 H 0.51153 0.54233 0.96984 0.0
H4565 H 0.50261 0.54283 0.94104 0.0
H4566 H 0.48157 0.49488 0.91298 0.0
C4567 C 0.47927 0.50219 0.85398 0.0
C4568 C 0.49693 0.53033 0.8912 0.0
C4569 C 0.47312 0.50116 0.8376 0.0
C4570 C 0.50982 0.53141 0.96135 0.0
C4571 C 0.5048 0.53172 0.94483 0.0
C4572 C 0.48613 0.5048 0.90707 0.0
C4573 C 0.48121 0.51656 0.86463 0.0
C4574 C 0.48655 0.51716 0.88232 0.0
C4575 C 0.50234 0.51775 0.93345 0.0
C4576 C 0.49671 0.51781 0.91592 0.0
H4577 H 0.46792 0.53949 0.83758 0.0
H4578 H 0.47868 0.54128 0.86627 0.0
H4579 H 0.47287 0.49432 0.88412 0.0
H4580 H 0.51211 0.49203 0.95911 0.0
H4581 H 0.50368 0.49265 0.93047 0.0
C4582 C 0.82911 0.23094 0.12459 0.0
C4583 C 0.82002 0.23419 0.11096 0.0
C4584 C 0.82852 0.23842 0.14013 0.0
C4585 C 0.81592 0.27132 0.16302 0.0
H4586 H 0.80545 0.2405 0.19212 0.0
C4587 C 0.7834 0.26604 0.22126 0.0
C4588 C 0.7919 0.27862 0.23275 0.0
C4589 C 0.7885 0.26177 0.20674 0.0
C4590 C 0.80843 0.24921 0.18412 0.0
H4591 H 0.80403 0.24843 0.10255 0.0
H4592 H 0.80301 0.26156 0.12979 0.0
H4593 H 0.81287 0.23164 0.16613 0.0
H4594 H 0.8119 0.2972 0.23792 0.0
H4595 H 0.82065 0.28995 0.21216 0.0
H4596 H 0.81109 0.28882 0.18093 0.0
C4597 C 0.81057 0.25328 0.12846 0.0
C4598 C 0.81282 0.2442 0.16938 0.0
C4599 C 0.81105 0.2457 0.11295 0.0
C4600 C 0.8052 0.2874 0.22922 0.0
C4601 C 0.8102 0.28328 0.21456 0.0
C4602 C 0.81169 0.27637 0.17787 0.0
C4603 C 0.81896 0.24933 0.14219 0.0
C4604 C 0.81634 0.25517 0.1586 0.0
C4605 C 0.80202 0.27025 0.20339 0.0
C4606 C 0.80762 0.26527 0.18833 0.0
H4607 H 0.83604 0.22203 0.12331 0.0
H4608 H 0.83511 0.23526 0.15059 0.0
H4609 H 0.8186 0.27995 0.15484 0.0
H4610 H 0.77297 0.25929 0.22365 0.0
H4611 H 0.78191 0.25182 0.19813 0.0
C4612 C 0.12004 0.50658 0.37357 0.0
C4613 C 0.11179 0.50254 0.35756 0.0
C4614 C 0.1129 0.5079 0.38762 0.0
C4615 C 0.07521 0.51143 0.40132 0.0
H4616 H 0.09417 0.50198 0.44235 0.0
C4617 C 0.04341 0.50972 0.45831 0.0
C4618 C 0.05144 0.51311 0.47438 0.0
C4619 C 0.05076 0.50858 0.44444 0.0
C4620 C 0.08865 0.50492 0.43115 0.0
H4621 H 0.0889 0.49651 0.34472 0.0
H4622 H 0.07671 0.49886 0.36877 0.0
H4623 H 0.10651 0.49976 0.41836 0.0
H4624 H 0.07399 0.518 0.48788 0.0
H4625 H 0.08674 0.51632 0.464 0.0
H4626 H 0.0574 0.51668 0.41406 0.0
C4627 C 0.08884 0.50129 0.37054 0.0
C4628 C 0.09585 0.50362 0.41713 0.0
C4629 C 0.09597 0.49993 0.35649 0.0
C4630 C 0.06723 0.51535 0.47588 0.0
C4631 C 0.07462 0.51424 0.46197 0.0
C4632 C 0.06803 0.51277 0.41532 0.0
C4633 C 0.09709 0.50531 0.38653 0.0
C4634 C 0.08932 0.5068 0.40179 0.0
C4635 C 0.06658 0.51081 0.44583 0.0
C4636 C 0.07451 0.50952 0.43066 0.0
H4637 H 0.13216 0.50906 0.37539 0.0
H4638 H 0.11994 0.51128 0.39942 0.0
H4639 H 0.06968 0.51436 0.3901 0.0
H4640 H 0.03128 0.5078 0.45637 0.0
H4641 H 0.04385 0.50564 0.43255 0.0
C4642 C 0.8046 0.83325 0.61723 0.0
C4643 C 0.793 0.84096 0.61154 0.0
C4644 C 0.80402 0.8256 0.63114 0.0
C4645 C 0.78532 0.8237 0.66801 0.0
H4646 H 0.79924 0.78372 0.66916 0.0
C4647 C 0.78811 0.79315 0.72623 0.0
C4648 C 0.78348 0.77647 0.72412 0.0
C4649 C 0.79028 0.80116 0.7128 0.0
C4650 C 0.79521 0.79483 0.66903 0.0
H4651 H 0.77176 0.84679 0.61636 0.0
H4652 H 0.77056 0.83313 0.64022 0.0
H4653 H 0.80048 0.79716 0.64511 0.0
H4654 H 0.77786 0.75507 0.70634 0.0
H4655 H 0.78148 0.76897 0.68289 0.0
H4656 H 0.77957 0.82111 0.69168 0.0
C4657 C 0.78024 0.83316 0.63407 0.0
C4658 C 0.7961 0.80266 0.65528 0.0
C4659 C 0.78083 0.84083 0.6202 0.0
C4660 C 0.78149 0.76792 0.70836 0.0
C4661 C 0.78363 0.77592 0.69492 0.0
C4662 C 0.78439 0.81585 0.68173 0.0
C4663 C 0.79182 0.82543 0.63975 0.0
C4664 C 0.79112 0.81719 0.65454 0.0
C4665 C 0.78786 0.79268 0.69691 0.0
C4666 C 0.78928 0.80127 0.68243 0.0
H4667 H 0.81407 0.83292 0.61082 0.0
H4668 H 0.81324 0.81995 0.63521 0.0
H4669 H 0.78155 0.83496 0.66802 0.0
H4670 H 0.78971 0.80008 0.73823 0.0
H4671 H 0.79379 0.81402 0.71487 0.0
C4672 C 0.69504 0.42234 0.52395 0.0
C4673 C 0.68982 0.40655 0.51637 0.0
C4674 C 0.68494 0.43212 0.52728 0.0
C4675 C 0.64597 0.43644 0.51597 0.0
H4676 H 0.65413 0.46449 0.55734 0.0
C4677 C 0.60424 0.474 0.53553 0.0
C4678 C 0.61038 0.49035 0.53983 0.0
C4679 C 0.6136 0.46296 0.53438 0.0
C4680 C 0.65177 0.45671 0.54576 0.0
H4681 H 0.67014 0.38851 0.50612 0.0
H4682 H 0.65234 0.40558 0.51219 0.0
H4683 H 0.67121 0.44661 0.55122 0.0
H4684 H 0.63095 0.50797 0.54714 0.0
H4685 H 0.64737 0.48856 0.54527 0.0
H4686 H 0.62653 0.44656 0.51055 0.0
C4687 C 0.66424 0.41047 0.51533 0.0
C4688 C 0.66153 0.44656 0.54221 0.0
C4689 C 0.67437 0.40072 0.51187 0.0
C4690 C 0.62597 0.49541 0.5439 0.0
C4691 C 0.63534 0.48434 0.54283 0.0
C4692 C 0.63616 0.44649 0.51958 0.0
C4693 C 0.66945 0.42621 0.5232 0.0
C4694 C 0.6588 0.43647 0.52721 0.0
C4695 C 0.6292 0.46811 0.53764 0.0
C4696 C 0.63906 0.45678 0.53443 0.0
H4697 H 0.70696 0.42712 0.52728 0.0
H4698 H 0.68927 0.44432 0.53301 0.0
H4699 H 0.64371 0.42895 0.50423 0.0
H4700 H 0.59221 0.46979 0.53266 0.0
H4701 H 0.60865 0.45045 0.53061 0.0
C4702 C 0.17851 0.10868 0.51327 0.0
C4703 C 0.18626 0.10362 0.50077 0.0
C4704 C 0.16392 0.10087 0.51406 0.0
C4705 C 0.13043 0.07435 0.48892 0.0
H4706 H 0.11957 0.06531 0.53065 0.0
C4707 C 0.07616 0.03066 0.49348 0.0
C4708 C 0.06847 0.03356 0.50663 0.0
C4709 C 0.09003 0.04016 0.49279 0.0
C4710 C 0.12229 0.06795 0.51892 0.0
H4711 H 0.18451 0.08614 0.47934 0.0
H4712 H 0.15908 0.07267 0.48062 0.0
H4713 H 0.14465 0.07985 0.52941 0.0
H4714 H 0.06919 0.0489 0.52929 0.0
H4715 H 0.09332 0.06584 0.52795 0.0
H4716 H 0.10811 0.06253 0.47839 0.0
C4717 C 0.16427 0.08282 0.48975 0.0
C4718 C 0.13673 0.07627 0.5182 0.0
C4719 C 0.17889 0.09058 0.48901 0.0
C4720 C 0.07484 0.04641 0.51897 0.0
C4721 C 0.08874 0.05601 0.51826 0.0
C4722 C 0.11598 0.06612 0.48964 0.0
C4723 C 0.15659 0.08783 0.50231 0.0
C4724 C 0.14105 0.07944 0.50317 0.0
C4725 C 0.0966 0.05293 0.5052 0.0
C4726 C 0.11174 0.06262 0.50462 0.0
H4727 H 0.18363 0.11886 0.52238 0.0
H4728 H 0.15829 0.10523 0.52375 0.0
H4729 H 0.13324 0.07683 0.47717 0.0
H4730 H 0.07158 0.0208 0.48381 0.0
H4731 H 0.09578 0.03719 0.48269 0.0
C4732 C 0.17009 0.94193 0.78768 0.0
C4733 C 0.17738 0.95668 0.78414 0.0
C4734 C 0.17747 0.92904 0.78813 0.0
C4735 C 0.20812 0.91272 0.77297 0.0
H4736 H 0.20773 0.8897 0.81024 0.0
C4737 C 0.24675 0.86765 0.78404 0.0
C4738 C 0.24136 0.8541 0.79103 0.0
C4739 C 0.23848 0.87975 0.78276 0.0
C4740 C 0.20776 0.89579 0.7996 0.0
H4741 H 0.19831 0.96932 0.77844 0.0
H4742 H 0.21094 0.94667 0.77874 0.0
H4743 H 0.19395 0.91141 0.80859 0.0
H4744 H 0.22295 0.84241 0.80182 0.0
H4745 H 0.2083 0.86334 0.79924 0.0
H4746 H 0.22169 0.89702 0.76377 0.0
C4747 C 0.19948 0.94515 0.78113 0.0
C4748 C 0.1999 0.90827 0.79871 0.0
C4749 C 0.19219 0.95811 0.7809 0.0
C4750 C 0.22746 0.85282 0.79656 0.0
C4751 C 0.2191 0.86485 0.79512 0.0
C4752 C 0.21583 0.90012 0.77375 0.0
C4753 C 0.19222 0.93053 0.78483 0.0
C4754 C 0.20011 0.91694 0.78546 0.0
C4755 C 0.22454 0.87853 0.78829 0.0
C4756 C 0.21587 0.89157 0.78715 0.0
H4757 H 0.15859 0.94023 0.78991 0.0
H4758 H 0.17156 0.91783 0.79084 0.0
H4759 H 0.20831 0.91909 0.76252 0.0
H4760 H 0.25754 0.86905 0.77988 0.0
H4761 H 0.2432 0.89022 0.77773 0.0
C4762 C 0.33145 0.91304 0.02699 0.0
C4763 C 0.32431 0.90505 0.01155 0.0
C4764 C 0.3453 0.92337 0.02864 0.0
C4765 C 0.37754 0.93317 0.00706 0.0
H4766 H 0.3835 0.97529 0.03221 0.0
C4767 C 0.42097 0.98418 0.99535 0.0
C4768 C 0.43171 0.99167 0.00885 0.0
C4769 C 0.40786 0.97437 0.99759 0.0
C4770 C 0.38199 0.9635 0.0253 0.0
H4771 H 0.32617 0.90122 0.98585 0.0
H4772 H 0.35007 0.91947 0.98863 0.0
H4773 H 0.36084 0.95556 0.03285 0.0
H4774 H 0.43676 0.99572 0.03528 0.0
H4775 H 0.41355 0.97847 0.03918 0.0
H4776 H 0.39836 0.94126 0.99903 0.0
C4777 C 0.34512 0.91765 0.9995 0.0
C4778 C 0.36912 0.95221 0.02572 0.0
C4779 C 0.33134 0.90736 0.99786 0.0
C4780 C 0.42867 0.98996 0.02469 0.0
C4781 C 0.41544 0.9802 0.02692 0.0
C4782 C 0.39026 0.94444 0.00653 0.0
C4783 C 0.35223 0.92579 0.01488 0.0
C4784 C 0.36662 0.93708 0.01624 0.0
C4785 C 0.40522 0.97194 0.01335 0.0
C4786 C 0.39239 0.9598 0.01531 0.0
H4787 H 0.32619 0.91155 0.03772 0.0
H4788 H 0.35059 0.92943 0.04064 0.0
H4789 H 0.37609 0.92147 0.99996 0.0
H4790 H 0.42308 0.98514 0.98302 0.0
H4791 H 0.40001 0.96822 0.98696 0.0
C4792 C 0.84877 0.61476 0.74455 0.0
C4793 C 0.85978 0.61287 0.75744 0.0
C4794 C 0.84171 0.62828 0.74498 0.0
C4795 C 0.84437 0.67056 0.76801 0.0
H4796 H 0.80483 0.66692 0.7433 0.0
C4797 C 0.81573 0.7274 0.76417 0.0
C4798 C 0.79992 0.72556 0.76147 0.0
C4799 C 0.82301 0.71402 0.76359 0.0
C4800 C 0.81582 0.66837 0.75049 0.0
H4801 H 0.87167 0.62498 0.78104 0.0
H4802 H 0.85935 0.64785 0.78195 0.0
H4803 H 0.8168 0.64383 0.74291 0.0
H4804 H 0.77965 0.70739 0.75604 0.0
H4805 H 0.79203 0.68451 0.75522 0.0
H4806 H 0.84321 0.695 0.77594 0.0
C4807 C 0.85619 0.63893 0.77123 0.0
C4808 C 0.82293 0.6549 0.75006 0.0
C4809 C 0.86326 0.62541 0.7708 0.0
C4810 C 0.79179 0.70964 0.75812 0.0
C4811 C 0.79904 0.69629 0.75754 0.0
C4812 C 0.83725 0.68404 0.76846 0.0
C4813 C 0.84518 0.64081 0.75833 0.0
C4814 C 0.83744 0.65554 0.75881 0.0
C4815 C 0.81489 0.69802 0.76028 0.0
C4816 C 0.82273 0.68338 0.75972 0.0
H4817 H 0.84534 0.60565 0.734 0.0
H4818 H 0.83357 0.6289 0.73455 0.0
H4819 H 0.85552 0.67211 0.77486 0.0
H4820 H 0.8226 0.73928 0.76681 0.0
H4821 H 0.83514 0.71637 0.76558 0.0
C4822 C 0.8391 0.60615 0.98984 0.0
C4823 C 0.83207 0.60907 0.00354 0.0
C4824 C 0.85201 0.59944 0.99107 0.0
C4825 C 0.87416 0.57731 0.01822 0.0
H4826 H 0.90506 0.58982 0.99218 0.0
C4827 C 0.932 0.55929 0.02925 0.0
C4828 C 0.93771 0.55333 0.01545 0.0
C4829 C 0.91944 0.56648 0.02757 0.0
C4830 C 0.89648 0.58611 0.99945 0.0
H4831 H 0.83334 0.60758 0.02938 0.0
H4832 H 0.85599 0.59633 0.03168 0.0
H4833 H 0.88264 0.60156 0.98985 0.0
H4834 H 0.93471 0.55073 0.98901 0.0
H4835 H 0.91294 0.5636 0.98612 0.0
H4836 H 0.88819 0.56211 0.02802 0.0
C4837 C 0.85134 0.59872 0.01981 0.0
C4838 C 0.88356 0.5928 0.99808 0.0
C4839 C 0.83833 0.60524 0.01853 0.0
C4840 C 0.93078 0.55531 0.99993 0.0
C4841 C 0.91825 0.56264 0.99826 0.0
C4842 C 0.88714 0.57077 0.0197 0.0
C4843 C 0.85836 0.59565 0.00609 0.0
C4844 C 0.87218 0.58851 0.00746 0.0
C4845 C 0.91229 0.56809 0.01206 0.0
C4846 C 0.89847 0.57509 0.01035 0.0
H4847 H 0.83447 0.60882 0.97808 0.0
H4848 H 0.85686 0.59702 0.98014 0.0
H4849 H 0.86559 0.57338 0.0254 0.0
H4850 H 0.93722 0.55835 0.04143 0.0
H4851 H 0.91533 0.57083 0.03847 0.0
C4852 C 0.20097 0.11199 0.79521 0.0
C4853 C 0.18657 0.10782 0.7858 0.0
C4854 C 0.21042 0.12645 0.7944 0.0
C4855 C 0.21769 0.15663 0.76737 0.0
H4856 H 0.23968 0.18362 0.80659 0.0
C4857 C 0.25291 0.21849 0.76458 0.0
C4858 C 0.26637 0.22359 0.77553 0.0
C4859 C 0.24284 0.20477 0.76624 0.0
C4860 C 0.2338 0.17614 0.79549 0.0
H4861 H 0.17074 0.11601 0.76851 0.0
H4862 H 0.18738 0.14097 0.76682 0.0
H4863 H 0.2229 0.15886 0.80879 0.0
H4864 H 0.28011 0.21817 0.79653 0.0
H4865 H 0.26289 0.19382 0.79907 0.0
H4866 H 0.2288 0.17354 0.75399 0.0
C4867 C 0.19135 0.13295 0.77474 0.0
C4868 C 0.22414 0.16198 0.79678 0.0
C4869 C 0.18185 0.11859 0.77567 0.0
C4870 C 0.26972 0.21457 0.78801 0.0
C4871 C 0.25977 0.20069 0.78954 0.0
C4872 C 0.22747 0.17068 0.76606 0.0
C4873 C 0.20575 0.13701 0.78405 0.0
C4874 C 0.21596 0.15209 0.78273 0.0
C4875 C 0.24618 0.1956 0.77867 0.0
C4876 C 0.23566 0.18066 0.7801 0.0
H4877 H 0.20513 0.10393 0.80294 0.0
H4878 H 0.22153 0.12919 0.80159 0.0
H4879 H 0.21168 0.14914 0.75632 0.0
H4880 H 0.25014 0.22509 0.75467 0.0
H4881 H 0.23242 0.20142 0.75778 0.0
C4882 C 0.35118 0.93631 0.24165 0.0
C4883 C 0.35701 0.94732 0.25593 0.0
C4884 C 0.34449 0.92028 0.24237 0.0
C4885 C 0.3397 0.88949 0.27198 0.0
H4886 H 0.31021 0.86538 0.23619 0.0
C4887 C 0.30477 0.82653 0.27726 0.0
C4888 C 0.30088 0.81464 0.26343 0.0
C4889 C 0.31166 0.84236 0.27617 0.0
C4890 C 0.31853 0.87179 0.2463 0.0
H4891 H 0.35967 0.94955 0.28231 0.0
H4892 H 0.34784 0.92221 0.28361 0.0
H4893 H 0.32152 0.89291 0.23472 0.0
H4894 H 0.3014 0.81068 0.23747 0.0
H4895 H 0.31331 0.83808 0.23554 0.0
H4896 H 0.33647 0.86839 0.28364 0.0
C4897 C 0.34881 0.92564 0.27169 0.0
C4898 C 0.32515 0.8878 0.24545 0.0
C4899 C 0.35565 0.94159 0.27096 0.0
C4900 C 0.30416 0.8193 0.24844 0.0
C4901 C 0.31096 0.8352 0.24732 0.0
C4902 C 0.33297 0.87355 0.27289 0.0
C4903 C 0.34313 0.91449 0.25742 0.0
C4904 C 0.33593 0.89711 0.25828 0.0
C4905 C 0.31489 0.84711 0.26118 0.0
C4906 C 0.32222 0.8643 0.26008 0.0
H4907 H 0.35209 0.93995 0.22979 0.0
H4908 H 0.34065 0.91237 0.23098 0.0
H4909 H 0.3481 0.89572 0.28208 0.0
H4910 H 0.30246 0.82364 0.28906 0.0
H4911 H 0.3142 0.85098 0.28716 0.0
C4912 C 0.56029 0.36918 0.58442 0.0
C4913 C 0.5474 0.35719 0.58307 0.0
C4914 C 0.55966 0.38316 0.57743 0.0
C4915 C 0.53626 0.40001 0.54643 0.0
H4916 H 0.55806 0.44079 0.56986 0.0
C4917 C 0.52393 0.45963 0.52839 0.0
C4918 C 0.53585 0.47272 0.52977 0.0
C4919 C 0.52625 0.4455 0.53417 0.0
C4920 C 0.55207 0.42949 0.56302 0.0
H4921 H 0.52374 0.35058 0.57297 0.0
H4922 H 0.52255 0.37502 0.56124 0.0
H4923 H 0.56029 0.41635 0.5814 0.0
H4924 H 0.55968 0.48105 0.53814 0.0
H4925 H 0.56378 0.45623 0.54807 0.0
H4926 H 0.52792 0.41312 0.52814 0.0
C4927 C 0.53324 0.37355 0.56752 0.0
C4928 C 0.55334 0.41544 0.56966 0.0
C4929 C 0.53388 0.35958 0.57446 0.0
C4930 C 0.55024 0.47121 0.53687 0.0
C4931 C 0.55257 0.45701 0.54268 0.0
C4932 C 0.53499 0.41403 0.53981 0.0
C4933 C 0.54611 0.38556 0.56889 0.0
C4934 C 0.54532 0.40051 0.56153 0.0
C4935 C 0.54057 0.44399 0.54148 0.0
C4936 C 0.54274 0.42899 0.54809 0.0
H4937 H 0.57088 0.36789 0.59109 0.0
H4938 H 0.56985 0.39204 0.57861 0.0
H4939 H 0.53016 0.38873 0.53962 0.0
H4940 H 0.51267 0.46032 0.52306 0.0
H4941 H 0.51668 0.43588 0.53326 0.0
C4942 C 0.42278 0.74079 0.34591 0.0
C4943 C 0.43055 0.75273 0.35864 0.0
C4944 C 0.40846 0.74157 0.33813 0.0
C4945 C 0.37594 0.76211 0.3423 0.0
H4946 H 0.3651 0.74597 0.29619 0.0
C4947 C 0.32168 0.77055 0.30083 0.0
C4948 C 0.31396 0.75687 0.29013 0.0
C4949 C 0.33565 0.77052 0.31012 0.0
C4950 C 0.36792 0.75045 0.3091 0.0
H4951 H 0.42884 0.77471 0.37333 0.0
H4952 H 0.40439 0.77647 0.35931 0.0
H4953 H 0.38986 0.74505 0.31021 0.0
H4954 H 0.31457 0.73229 0.28132 0.0
H4955 H 0.33877 0.73229 0.29729 0.0
H4956 H 0.35395 0.76783 0.34089 0.0
C4957 C 0.40921 0.76629 0.35549 0.0
C4958 C 0.38213 0.74984 0.31721 0.0
C4959 C 0.42345 0.76541 0.36339 0.0
C4960 C 0.32025 0.74307 0.28934 0.0
C4961 C 0.33418 0.74308 0.29843 0.0
C4962 C 0.36175 0.7629 0.3341 0.0
C4963 C 0.40149 0.75442 0.34268 0.0
C4964 C 0.38634 0.75547 0.33399 0.0
C4965 C 0.3422 0.75686 0.30872 0.0
C4966 C 0.35751 0.7569 0.31744 0.0
H4967 H 0.42783 0.7309 0.34173 0.0
H4968 H 0.40284 0.732 0.32856 0.0
H4969 H 0.37861 0.7664 0.35525 0.0
H4970 H 0.31711 0.78137 0.30169 0.0
H4971 H 0.34156 0.78132 0.31795 0.0
C4972 C 0.04717 0.69435 0.06382 0.0
C4973 C 0.03872 0.69799 0.07612 0.0
C4974 C 0.0467 0.67847 0.05738 0.0
C4975 C 0.04067 0.6382 0.06781 0.0
H4976 H 0.03181 0.6238 0.02118 0.0
C4977 C 0.04702 0.57585 0.03836 0.0
C4978 C 0.0339 0.56691 0.02856 0.0
C4979 C 0.04813 0.59212 0.04362 0.0
C4980 C 0.03434 0.62771 0.03422 0.0
H4981 H 0.02332 0.68787 0.09144 0.0
H4982 H 0.0227 0.6601 0.08035 0.0
H4983 H 0.03264 0.6519 0.03156 0.0
H4984 H 0.01186 0.56807 0.01615 0.0
H4985 H 0.01403 0.59666 0.02496 0.0
H4986 H 0.04255 0.61407 0.07047 0.0
C4987 C 0.02955 0.66956 0.07562 0.0
C4988 C 0.03487 0.64374 0.04013 0.0
C4989 C 0.02981 0.68543 0.08185 0.0
C4990 C 0.0221 0.57465 0.02372 0.0
C4991 C 0.02335 0.59099 0.02869 0.0
C4992 C 0.04044 0.62226 0.06188 0.0
C4993 C 0.03801 0.66593 0.06335 0.0
C4994 C 0.03789 0.64908 0.05699 0.0
C4995 C 0.03628 0.59981 0.03888 0.0
C4996 C 0.03715 0.61685 0.04504 0.0
H4997 H 0.05411 0.7038 0.05918 0.0
H4998 H 0.05337 0.67596 0.04798 0.0
H4999 H 0.04311 0.64205 0.08086 0.0
H5000 H 0.05626 0.57018 0.04238 0.0
H5001 H 0.05823 0.5987 0.05144 0.0
C5002 C 0.08698 0.27204 0.8617 0.0
C5003 C 0.07737 0.25725 0.86121 0.0
C5004 C 0.09996 0.27304 0.85439 0.0
C5005 C 0.12594 0.24799 0.83929 0.0
H5006 H 0.13886 0.28387 0.81694 0.0
C5007 C 0.17222 0.24753 0.79905 0.0
C5008 C 0.18294 0.26161 0.79989 0.0
C5009 C 0.15952 0.24757 0.80661 0.0
C5010 C 0.13551 0.27385 0.82328 0.0
H5011 H 0.07372 0.23197 0.85222 0.0
H5012 H 0.09614 0.23371 0.83933 0.0
H5013 H 0.1164 0.2828 0.82983 0.0
H5014 H 0.18846 0.28688 0.8092 0.0
H5015 H 0.16621 0.28696 0.82242 0.0
H5016 H 0.14495 0.23898 0.83265 0.0
C5017 C 0.09389 0.24453 0.8457 0.0
C5018 C 0.12261 0.27324 0.83071 0.0
C5019 C 0.08099 0.24352 0.85307 0.0
C5020 C 0.18041 0.27584 0.80821 0.0
C5021 C 0.16764 0.27588 0.81579 0.0
C5022 C 0.13878 0.24859 0.83184 0.0
C5023 C 0.10363 0.25928 0.84634 0.0
C5024 C 0.11758 0.26022 0.83872 0.0
C5025 C 0.15711 0.26169 0.81522 0.0
C5026 C 0.14368 0.26146 0.82362 0.0
H5027 H 0.08466 0.28283 0.86804 0.0
H5028 H 0.10726 0.28458 0.85536 0.0
H5029 H 0.12267 0.23796 0.84564 0.0
H5030 H 0.17358 0.23641 0.79242 0.0
H5031 H 0.1515 0.23649 0.80557 0.0
C5032 C 0.51122 0.69557 0.90308 0.0
C5033 C 0.51112 0.70998 0.91282 0.0
C5034 C 0.50846 0.68116 0.90931 0.0
C5035 C 0.49305 0.66305 0.94309 0.0
H5036 H 0.51961 0.6334 0.93553 0.0
C5037 C 0.50695 0.61906 0.98628 0.0
C5038 C 0.50803 0.60361 0.97962 0.0
C5039 C 0.50435 0.63036 0.97615 0.0
C5040 C 0.51191 0.64141 0.93747 0.0
H5041 H 0.50825 0.72078 0.93666 0.0
H5042 H 0.50374 0.69569 0.94769 0.0
H5043 H 0.521 0.65672 0.92138 0.0
H5044 H 0.50659 0.58768 0.95707 0.0
H5045 H 0.50247 0.60772 0.93933 0.0
H5046 H 0.48453 0.64809 0.95985 0.0
C5047 C 0.50554 0.69542 0.93512 0.0
C5048 C 0.5127 0.65475 0.92938 0.0
C5049 C 0.5082 0.70978 0.92886 0.0
C5050 C 0.50606 0.59957 0.96257 0.0
C5051 C 0.50362 0.61096 0.95243 0.0
C5052 C 0.49235 0.64978 0.95127 0.0
C5053 C 0.50564 0.68097 0.92541 0.0
C5054 C 0.50352 0.66589 0.93242 0.0
C5055 C 0.50292 0.62648 0.95918 0.0
C5056 C 0.50201 0.63907 0.94879 0.0
H5057 H 0.51324 0.69543 0.89058 0.0
H5058 H 0.50845 0.67018 0.90151 0.0
H5059 H 0.48564 0.67129 0.94542 0.0
H5060 H 0.50871 0.62267 0.99936 0.0
H5061 H 0.50413 0.64235 0.98165 0.0
C5062 C 0.11483 0.7627 0.7374 0.0
C5063 C 0.11029 0.75498 0.72131 0.0
C5064 C 0.12888 0.76197 0.74581 0.0
C5065 C 0.15975 0.73962 0.745 0.0
H5066 H 0.18569 0.78053 0.76181 0.0
C5067 C 0.22342 0.74985 0.7483 0.0
C5068 C 0.2324 0.75995 0.76172 0.0
C5069 C 0.20786 0.74806 0.7464 0.0
C5070 C 0.17853 0.76898 0.75748 0.0
H5071 H 0.11628 0.73979 0.70164 0.0
H5072 H 0.14074 0.73867 0.71615 0.0
H5073 H 0.15891 0.7792 0.7538 0.0
H5074 H 0.23219 0.77575 0.78393 0.0
H5075 H 0.20503 0.77253 0.78058 0.0
H5076 H 0.17945 0.72948 0.74805 0.0
C5077 C 0.13355 0.74521 0.72236 0.0
C5078 C 0.16321 0.76822 0.75295 0.0
C5079 C 0.11965 0.74603 0.71398 0.0
C5080 C 0.22556 0.76802 0.77334 0.0
C5081 C 0.21002 0.76619 0.77145 0.0
C5082 C 0.17505 0.74037 0.74953 0.0
C5083 C 0.13838 0.7533 0.73826 0.0
C5084 C 0.1538 0.75361 0.74616 0.0
C5085 C 0.20104 0.75628 0.75792 0.0
C5086 C 0.18464 0.75513 0.75531 0.0
H5087 H 0.10772 0.76963 0.74325 0.0
H5088 H 0.1324 0.7683 0.75808 0.0
H5089 H 0.15265 0.72818 0.73998 0.0
H5090 H 0.22838 0.74348 0.73917 0.0
H5091 H 0.20119 0.74053 0.7357 0.0
C5092 C 0.01099 0.36979 0.42556 0.0
C5093 C 0.01511 0.35593 0.43063 0.0
C5094 C 0.00923 0.38218 0.43698 0.0
C5095 C 0.02118 0.39986 0.47953 0.0
H5096 H 0.989 0.42297 0.47024 0.0
C5097 C 0.01894 0.45754 0.52018 0.0
C5098 C 0.01795 0.47025 0.51121 0.0
C5099 C 0.0154 0.44182 0.51225 0.0
C5100 C 0.99799 0.41657 0.47303 0.0
H5101 H 0.02056 0.34413 0.45162 0.0
H5102 H 0.01768 0.36598 0.47167 0.0
H5103 H 0.98952 0.39855 0.45242 0.0
H5104 H 0.01173 0.47659 0.48719 0.0
H5105 H 0.00547 0.44931 0.47343 0.0
H5106 H 0.02999 0.41821 0.49975 0.0
C5107 C 0.01586 0.36722 0.45884 0.0
C5108 C 0.99832 0.40266 0.46283 0.0
C5109 C 0.01758 0.35477 0.44738 0.0
C5110 C 0.01245 0.46701 0.49444 0.0
C5111 C 0.00883 0.45135 0.48655 0.0
C5112 C 0.02086 0.41379 0.48974 0.0
C5113 C 0.0116 0.38099 0.45372 0.0
C5114 C 0.01015 0.39444 0.46572 0.0
C5115 C 0.01072 0.43864 0.49529 0.0
C5116 C 0.00949 0.4225 0.48631 0.0
H5117 H 0.00925 0.37113 0.41275 0.0
H5118 H 0.00628 0.39282 0.43271 0.0
H5119 H 0.03051 0.39384 0.48197 0.0
H5120 H 0.02315 0.45976 0.53315 0.0
H5121 H 0.01684 0.43221 0.51927 0.0
C5122 C 0.46283 0.23447 0.21169 0.0
C5123 C 0.47134 0.24842 0.20781 0.0
C5124 C 0.45128 0.23546 0.22087 0.0
C5125 C 0.4392 0.26228 0.25093 0.0
H5126 H 0.3985 0.24086 0.23301 0.0
C5127 C 0.38829 0.28436 0.27036 0.0
C5128 C 0.37473 0.27354 0.26951 0.0
C5129 C 0.40074 0.27912 0.26548 0.0
C5130 C 0.40983 0.24661 0.23844 0.0
H5131 H 0.47396 0.27424 0.20995 0.0
H5132 H 0.4542 0.27591 0.22639 0.0
H5133 H 0.4191 0.2354 0.21898 0.0
H5134 H 0.36385 0.24857 0.26372 0.0
H5135 H 0.38585 0.23932 0.25592 0.0
H5136 H 0.43008 0.2736 0.27032 0.0
C5137 C 0.45659 0.26428 0.22246 0.0
C5138 C 0.42159 0.24352 0.23034 0.0
C5139 C 0.46792 0.2633 0.21309 0.0
C5140 C 0.37416 0.25721 0.26463 0.0
C5141 C 0.38671 0.25193 0.25994 0.0
C5142 C 0.42751 0.26519 0.25917 0.0
C5143 C 0.44827 0.2504 0.22649 0.0
C5144 C 0.43626 0.25172 0.23628 0.0
C5145 C 0.40001 0.26289 0.25989 0.0
C5146 C 0.41263 0.2578 0.25273 0.0
H5147 H 0.46528 0.22285 0.20795 0.0
H5148 H 0.44491 0.22461 0.22385 0.0
H5149 H 0.45052 0.26859 0.25578 0.0
H5150 H 0.38915 0.29698 0.27433 0.0
H5151 H 0.41072 0.28795 0.26542 0.0
C5152 C 0.60465 0.51211 0.37508 0.0
C5153 C 0.59903 0.52135 0.36376 0.0
C5154 C 0.5987 0.51069 0.38952 0.0
C5155 C 0.57575 0.52958 0.4167 0.0
H5156 H 0.57138 0.48891 0.43315 0.0
C5157 C 0.55473 0.52209 0.478 0.0
C5158 C 0.54456 0.50796 0.47848 0.0
C5159 C 0.56249 0.52366 0.46477 0.0
C5160 C 0.57241 0.50033 0.42869 0.0
H5161 H 0.58264 0.5362 0.35866 0.0
H5162 H 0.57208 0.53352 0.3837 0.0
H5163 H 0.58198 0.49175 0.40824 0.0
H5164 H 0.53481 0.48423 0.46579 0.0
H5165 H 0.54805 0.48702 0.44258 0.0
H5166 H 0.56556 0.53795 0.43675 0.0
C5167 C 0.58131 0.52765 0.38163 0.0
C5168 C 0.5787 0.50203 0.41448 0.0
C5169 C 0.58734 0.52915 0.36723 0.0
C5170 C 0.54263 0.49525 0.46576 0.0
C5171 C 0.5503 0.49684 0.45249 0.0
C5172 C 0.56936 0.52784 0.43084 0.0
C5173 C 0.58691 0.51839 0.39297 0.0
C5174 C 0.58041 0.51666 0.40826 0.0
C5175 C 0.56017 0.51115 0.45169 0.0
C5176 C 0.56755 0.51317 0.437 0.0
H5177 H 0.61382 0.50615 0.3729 0.0
H5178 H 0.6035 0.50371 0.39808 0.0
H5179 H 0.57707 0.54109 0.41243 0.0
H5180 H 0.55643 0.5321 0.48765 0.0
H5181 H 0.57021 0.53474 0.46474 0.0
C5182 C 0.26753 0.83612 0.0891 0.0
C5183 C 0.26074 0.82221 0.07822 0.0
C5184 C 0.27841 0.83547 0.10222 0.0
C5185 C 0.30635 0.81197 0.11428 0.0
H5186 H 0.30368 0.82844 0.15872 0.0
C5187 C 0.32167 0.78254 0.16815 0.0
C5188 C 0.32323 0.79101 0.18387 0.0
C5189 C 0.32128 0.79062 0.15466 0.0
C5190 C 0.30501 0.82428 0.14636 0.0
H5191 H 0.25921 0.79661 0.07316 0.0
H5192 H 0.2783 0.7955 0.09613 0.0
H5193 H 0.28621 0.83368 0.13641 0.0
H5194 H 0.32863 0.81457 0.19812 0.0
H5195 H 0.32798 0.82877 0.17445 0.0
H5196 H 0.32474 0.80198 0.12423 0.0
C5197 C 0.27537 0.80691 0.09426 0.0
C5198 C 0.29485 0.82714 0.13361 0.0
C5199 C 0.26439 0.80752 0.08125 0.0
C5200 C 0.32699 0.80776 0.18605 0.0
C5201 C 0.32661 0.81588 0.17252 0.0
C5202 C 0.31663 0.80925 0.12701 0.0
C5203 C 0.28275 0.82095 0.10454 0.0
C5204 C 0.295 0.82034 0.11759 0.0
C5205 C 0.32247 0.80729 0.15673 0.0
C5206 C 0.31554 0.81464 0.14325 0.0
H5207 H 0.26518 0.84768 0.08693 0.0
H5208 H 0.28392 0.84642 0.11008 0.0
H5209 H 0.30685 0.80694 0.10191 0.0
H5210 H 0.31878 0.76962 0.16603 0.0
H5211 H 0.31811 0.78358 0.14269 0.0
C5212 C 0.95836 0.52042 0.84567 0.0
C5213 C 0.95067 0.53309 0.84329 0.0
C5214 C 0.96582 0.51884 0.8612 0.0
C5215 C 0.9698 0.5337 0.90681 0.0
H5216 H 0.00451 0.51366 0.90895 0.0
C5217 C 1.00115 0.52064 0.96956 0.0
C5218 C 0.01675 0.52112 0.97112 0.0
C5219 C 0.99263 0.52198 0.9544 0.0
C5220 C 0.99494 0.51947 0.90881 0.0
H5221 H 0.94511 0.554 0.85643 0.0
H5222 H 0.95833 0.55154 0.88306 0.0
H5223 H 0.99146 0.51675 0.88267 0.0
H5224 H 0.03538 0.52365 0.95758 0.0
H5225 H 0.02096 0.52618 0.93183 0.0
H5226 H 0.97366 0.53679 0.93311 0.0
C5227 C 0.95842 0.54257 0.87288 0.0
C5228 C 0.98718 0.52103 0.89345 0.0
C5229 C 0.95091 0.54413 0.85733 0.0
C5230 C 0.02343 0.52308 0.95703 0.0
C5231 C 0.015 0.52441 0.94202 0.0
C5232 C 0.97761 0.53215 0.92224 0.0
C5233 C 0.96609 0.52988 0.87523 0.0
C5234 C 0.97441 0.52821 0.892 0.0
C5235 C 0.99937 0.52381 0.94021 0.0
C5236 C 0.99046 0.52508 0.92363 0.0
H5237 H 0.95882 0.51166 0.83546 0.0
H5238 H 0.97126 0.50871 0.86213 0.0
H5239 H 0.96 0.53912 0.90658 0.0
H5240 H 0.99551 0.51923 0.98003 0.0
H5241 H 0.98067 0.52134 0.9538 0.0
C5242 C 0.2615 0.2115 0.58667 0.0
C5243 C 0.27253 0.20284 0.58286 0.0
C5244 C 0.26183 0.21857 0.60269 0.0
C5245 C 0.27201 0.21317 0.64432 0.0
H5246 H 0.2739 0.25858 0.65619 0.0
C5247 C 0.26162 0.2415 0.70709 0.0
C5248 C 0.27389 0.25294 0.71561 0.0
C5249 C 0.26107 0.236 0.69057 0.0
C5250 C 0.27332 0.24588 0.65298 0.0
H5251 H 0.29247 0.19467 0.59266 0.0
H5252 H 0.29275 0.20663 0.62087 0.0
H5253 H 0.27393 0.24774 0.62765 0.0
H5254 H 0.29488 0.26806 0.7134 0.0
H5255 H 0.2936 0.25881 0.6843 0.0
H5256 H 0.27106 0.21123 0.66954 0.0
C5257 C 0.28404 0.20815 0.61139 0.0
C5258 C 0.27331 0.23971 0.63673 0.0
C5259 C 0.28392 0.20141 0.59531 0.0
C5260 C 0.28531 0.25921 0.70714 0.0
C5261 C 0.28457 0.25398 0.69052 0.0
C5262 C 0.27166 0.21928 0.66048 0.0
C5263 C 0.27297 0.21674 0.61521 0.0
C5264 C 0.27278 0.22333 0.63231 0.0
C5265 C 0.27258 0.24214 0.68218 0.0
C5266 C 0.27242 0.23569 0.66496 0.0
H5267 H 0.25261 0.21273 0.57725 0.0
H5268 H 0.25315 0.22509 0.6054 0.0
H5269 H 0.27152 0.20049 0.64115 0.0
H5270 H 0.25271 0.23637 0.71333 0.0
H5271 H 0.25169 0.22688 0.68434 0.0
C5272 C 0.57811 0.50306 0.19352 0.0
C5273 C 0.58605 0.51764 0.20249 0.0
C5274 C 0.57208 0.50217 0.17707 0.0
C5275 C 0.56043 0.52688 0.14626 0.0
H5276 H 0.56701 0.49281 0.115 0.0
C5277 C 0.55052 0.52947 0.07741 0.0
C5278 C 0.5443 0.51529 0.06675 0.0
C5279 C 0.55497 0.52912 0.09397 0.0
C5280 C 0.56486 0.50227 0.12358 0.0
H5281 H 0.59396 0.5427 0.201 0.0
H5282 H 0.58322 0.54118 0.17253 0.0
H5283 H 0.5755 0.49329 0.14404 0.0
H5284 H 0.53793 0.48956 0.06512 0.0
H5285 H 0.54548 0.48895 0.09416 0.0
H5286 H 0.54976 0.53587 0.12592 0.0
C5287 C 0.58152 0.53047 0.17827 0.0
C5288 C 0.56975 0.50255 0.14022 0.0
C5289 C 0.58763 0.53134 0.19464 0.0
C5290 C 0.54274 0.5007 0.07301 0.0
C5291 C 0.54712 0.50035 0.08965 0.0
C5292 C 0.55546 0.52655 0.12966 0.0
C5293 C 0.57376 0.51587 0.16927 0.0
C5294 C 0.56775 0.51498 0.15171 0.0
C5295 C 0.55322 0.51458 0.10035 0.0
C5296 C 0.5578 0.51437 0.11808 0.0
H5297 H 0.57651 0.49231 0.1992 0.0
H5298 H 0.56601 0.49078 0.17048 0.0
H5299 H 0.55851 0.53647 0.15485 0.0
H5300 H 0.55198 0.54092 0.07299 0.0
H5301 H 0.55992 0.54027 0.10176 0.0
C5302 C 0.23154 0.78466 0.91853 0.0
C5303 C 0.22814 0.79999 0.92079 0.0
C5304 C 0.23314 0.77776 0.90312 0.0
C5305 C 0.24439 0.79118 0.866 0.0
H5306 H 0.23808 0.74573 0.85114 0.0
C5307 C 0.27707 0.76583 0.81888 0.0
C5308 C 0.26904 0.75361 0.80673 0.0
C5309 C 0.2705 0.77079 0.83218 0.0
C5310 C 0.23976 0.75847 0.85501 0.0
H5311 H 0.22238 0.8195 0.90847 0.0
H5312 H 0.22454 0.80713 0.88143 0.0
H5313 H 0.22694 0.75524 0.87437 0.0
H5314 H 0.24808 0.73667 0.7989 0.0
H5315 H 0.23652 0.74543 0.82206 0.0
H5316 H 0.25703 0.79444 0.84654 0.0
C5317 C 0.22641 0.80066 0.89166 0.0
C5318 C 0.23348 0.76389 0.86838 0.0
C5319 C 0.22497 0.80764 0.90712 0.0
C5320 C 0.25454 0.74605 0.80825 0.0
C5321 C 0.24793 0.75106 0.82148 0.0
C5322 C 0.25055 0.78576 0.85257 0.0
C5323 C 0.2312 0.786 0.88965 0.0
C5324 C 0.23597 0.78028 0.87419 0.0
C5325 C 0.25577 0.76361 0.83347 0.0
C5326 C 0.24854 0.76934 0.84716 0.0
H5327 H 0.23377 0.77836 0.92883 0.0
H5328 H 0.23689 0.76647 0.902 0.0
H5329 H 0.24673 0.80387 0.87031 0.0
H5330 H 0.28829 0.77178 0.8179 0.0
H5331 H 0.27691 0.78031 0.8414 0.0
C5332 C 0.93831 0.52099 0.662 0.0
C5333 C 0.9459 0.52957 0.67717 0.0
C5334 C 0.94549 0.51962 0.64797 0.0
C5335 C 0.98186 0.53579 0.63153 0.0
H5336 H 0.96559 0.50159 0.5959 0.0
C5337 C 0.01474 0.52304 0.57664 0.0
C5338 C 0.00674 0.51758 0.56072 0.0
C5339 C 0.00734 0.5245 0.59046 0.0
C5340 C 0.97033 0.51136 0.60559 0.0
H5341 H 0.96765 0.54318 0.68881 0.0
H5342 H 0.9801 0.54053 0.66501 0.0
H5343 H 0.95329 0.50384 0.61987 0.0
H5344 H 0.98421 0.50932 0.54746 0.0
H5345 H 0.97142 0.51168 0.57134 0.0
H5346 H 0.99911 0.54303 0.61725 0.0
C5347 C 0.96835 0.53512 0.66358 0.0
C5348 C 0.96314 0.51274 0.6196 0.0
C5349 C 0.96111 0.53665 0.67754 0.0
C5350 C 0.99095 0.51354 0.55934 0.0
C5351 C 0.98354 0.51484 0.57322 0.0
C5352 C 0.98915 0.53428 0.6176 0.0
C5353 C 0.96077 0.5266 0.6483 0.0
C5354 C 0.96865 0.52503 0.63303 0.0
C5355 C 0.99154 0.52044 0.58916 0.0
C5356 C 0.98358 0.52205 0.60423 0.0
H5357 H 0.92659 0.51548 0.66077 0.0
H5358 H 0.93879 0.51321 0.63676 0.0
H5359 H 0.98664 0.54572 0.64101 0.0
H5360 H 0.02685 0.52632 0.57848 0.0
H5361 H 0.01415 0.52866 0.6023 0.0
C5362 C 0.28282 0.20429 0.42091 0.0
C5363 C 0.2691 0.19621 0.4243 0.0
C5364 C 0.28339 0.21184 0.40697 0.0
C5365 C 0.26142 0.21313 0.36639 0.0
H5366 H 0.28993 0.25263 0.36849 0.0
C5367 C 0.27323 0.24151 0.3086 0.0
C5368 C 0.27665 0.25824 0.30996 0.0
C5369 C 0.27162 0.234 0.32245 0.0
C5370 C 0.28176 0.24171 0.36769 0.0
H5371 H 0.24518 0.18974 0.41541 0.0
H5372 H 0.24611 0.20339 0.39153 0.0
H5373 H 0.28833 0.23984 0.39282 0.0
H5374 H 0.28054 0.28024 0.32674 0.0
H5375 H 0.27732 0.26723 0.35082 0.0
H5376 H 0.25452 0.2153 0.34138 0.0
C5377 C 0.2565 0.20365 0.39949 0.0
C5378 C 0.281 0.23421 0.38164 0.0
C5379 C 0.25595 0.19599 0.41337 0.0
C5380 C 0.27796 0.26732 0.32534 0.0
C5381 C 0.27626 0.25983 0.33917 0.0
C5382 C 0.2621 0.2207 0.35246 0.0
C5383 C 0.27024 0.21166 0.39606 0.0
C5384 C 0.27087 0.21977 0.38119 0.0
C5385 C 0.27328 0.24306 0.33798 0.0
C5386 C 0.27231 0.23509 0.35289 0.0
H5387 H 0.29317 0.20493 0.4291 0.0
H5388 H 0.29422 0.21768 0.40467 0.0
H5389 H 0.2536 0.20194 0.36547 0.0
H5390 H 0.27222 0.23419 0.29689 0.0
H5391 H 0.26951 0.22108 0.32101 0.0
C5392 C 0.35759 0.60505 0.52387 0.0
C5393 C 0.36273 0.62101 0.52202 0.0
C5394 C 0.36558 0.59338 0.51922 0.0
C5395 C 0.39309 0.58546 0.4928 0.0
H5396 H 0.40045 0.55376 0.52079 0.0
C5397 C 0.44016 0.55019 0.48953 0.0
C5398 C 0.43734 0.53418 0.49212 0.0
C5399 C 0.42919 0.55936 0.49082 0.0
C5400 C 0.39821 0.56234 0.51271 0.0
H5401 H 0.38037 0.63749 0.51443 0.0
H5402 H 0.39445 0.6171 0.50646 0.0
H5403 H 0.3852 0.57304 0.52862 0.0
H5404 H 0.42085 0.51489 0.49739 0.0
H5405 H 0.4015 0.531 0.49956 0.0
H5406 H 0.40651 0.57505 0.47715 0.0
C5407 C 0.3841 0.61355 0.51116 0.0
C5408 C 0.38954 0.57339 0.5172 0.0
C5409 C 0.37611 0.6252 0.51577 0.0
C5410 C 0.42318 0.52721 0.49523 0.0
C5411 C 0.41221 0.53642 0.49661 0.0
C5412 C 0.40178 0.57445 0.48833 0.0
C5413 C 0.37881 0.59752 0.51267 0.0
C5414 C 0.38713 0.5852 0.50742 0.0
C5415 C 0.41528 0.55265 0.49477 0.0
C5416 C 0.4046 0.56298 0.49838 0.0
H5417 H 0.34718 0.60151 0.52845 0.0
H5418 H 0.36122 0.58107 0.52039 0.0
H5419 H 0.39114 0.59428 0.4849 0.0
H5420 H 0.45102 0.55575 0.48704 0.0
H5421 H 0.43188 0.57189 0.48953 0.0
C5422 C 0.87504 0.94858 0.52625 0.0
C5423 C 0.87308 0.93409 0.53271 0.0
C5424 C 0.88935 0.95654 0.52465 0.0
C5425 C 0.93042 0.95824 0.53797 0.0
H5426 H 0.93396 0.98222 0.50165 0.0
C5427 C 0.98794 0.98964 0.52262 0.0
C5428 C 0.98852 0.00558 0.52 0.0
C5429 C 0.9742 0.97982 0.52365 0.0
C5430 C 0.93317 0.9756 0.51189 0.0
H5431 H 0.88474 0.91663 0.54257 0.0
H5432 H 0.9097 0.93024 0.53941 0.0
H5433 H 0.90959 0.96732 0.50461 0.0
H5434 H 0.97519 0.02366 0.51616 0.0
H5435 H 0.95131 0.00656 0.51754 0.0
H5436 H 0.9542 0.96646 0.54498 0.0
C5437 C 0.90021 0.93572 0.53591 0.0
C5438 C 0.91913 0.96711 0.51369 0.0
C5439 C 0.88586 0.92785 0.5377 0.0
C5440 C 0.9751 0.0114 0.51812 0.0
C5441 C 0.9614 1.00158 0.51886 0.0
C5442 C 0.94453 0.9666 0.53603 0.0
C5443 C 0.90218 0.95015 0.52923 0.0
C5444 C 0.91744 0.95851 0.52692 0.0
C5445 C 0.96074 0.9857 0.52177 0.0
C5446 C 0.94604 0.97561 0.52311 0.0
H5447 H 0.86546 0.95385 0.5225 0.0
H5448 H 0.89031 0.9678 0.51989 0.0
H5449 H 0.92966 0.95194 0.54842 0.0
H5450 H 0.99814 0.98493 0.52434 0.0
H5451 H 0.97408 0.96763 0.52587 0.0
C5452 C 0.86967 0.07539 0.2362 0.0
C5453 C 0.88002 0.07417 0.24976 0.0
C5454 C 0.86224 0.08823 0.23628 0.0
C5455 C 0.85259 0.12053 0.26395 0.0
H5456 H 0.84489 0.13835 0.22377 0.0
C5457 C 0.82871 0.17839 0.26023 0.0
C5458 C 0.81701 0.17765 0.24725 0.0
C5459 C 0.83678 0.16605 0.26094 0.0
C5460 C 0.84689 0.13343 0.23505 0.0
H5461 H 0.89083 0.08547 0.27399 0.0
H5462 H 0.87809 0.10812 0.27404 0.0
H5463 H 0.85837 0.11636 0.22429 0.0
H5464 H 0.80441 0.16309 0.22508 0.0
H5465 H 0.81871 0.14183 0.22617 0.0
H5466 H 0.84122 0.13785 0.2747 0.0
C5467 C 0.87544 0.09898 0.26347 0.0
C5468 C 0.85456 0.12079 0.23535 0.0
C5469 C 0.88278 0.08603 0.26343 0.0
C5470 C 0.81357 0.16427 0.23505 0.0
C5471 C 0.82172 0.15204 0.23569 0.0
C5472 C 0.84502 0.13329 0.26367 0.0
C5473 C 0.86511 0.10025 0.24986 0.0
C5474 C 0.85737 0.11406 0.24976 0.0
C5475 C 0.8334 0.1528 0.24862 0.0
C5476 C 0.84198 0.13975 0.24917 0.0
H5477 H 0.86717 0.06629 0.22559 0.0
H5478 H 0.85412 0.08863 0.22573 0.0
H5479 H 0.85438 0.11552 0.2752 0.0
H5480 H 0.8318 0.18861 0.26973 0.0
H5481 H 0.84583 0.16699 0.27098 0.0
C5482 C 0.7262 0.11858 0.01071 0.0
C5483 C 0.73833 0.12068 0.02347 0.0
C5484 C 0.71347 0.10685 0.01025 0.0
C5485 C 0.69293 0.08446 0.03737 0.0
H5486 H 0.6723 0.05728 0.99762 0.0
C5487 C 0.6405 0.03852 0.03892 0.0
C5488 C 0.62825 0.03818 0.02673 0.0
C5489 C 0.65484 0.04611 0.03735 0.0
C5490 C 0.67791 0.06485 0.00879 0.0
H5491 H 0.74692 0.11174 0.04536 0.0
H5492 H 0.72462 0.0914 0.04466 0.0
H5493 H 0.69566 0.07588 0.99712 0.0
H5494 H 0.62171 0.04449 0.00273 0.0
H5495 H 0.64666 0.05842 1.00037 0.0
H5496 H 0.6751 0.07399 0.04899 0.0
C5497 C 0.72489 0.09896 0.03515 0.0
C5498 C 0.69125 0.07547 0.00849 0.0
C5499 C 0.73761 0.11064 0.03558 0.0
C5500 C 0.63085 0.04483 0.01251 0.0
C5501 C 0.64519 0.05262 0.01104 0.0
C5502 C 0.6796 0.07397 0.03765 0.0
C5503 C 0.71266 0.09705 0.02257 0.0
C5504 C 0.69883 0.08539 0.02279 0.0
C5505 C 0.65725 0.05375 0.02368 0.0
C5506 C 0.6719 0.06407 0.02337 0.0
H5507 H 0.72639 0.12624 1.00128 0.0
H5508 H 0.70411 0.10574 1.00053 0.0
H5509 H 0.6984 0.0922 0.0485 0.0
H5510 H 0.63894 0.03365 0.05009 0.0
H5511 H 0.66397 0.04649 0.04715 0.0
C5512 C 0.19355 0.40871 0.28638 0.0
C5513 C 0.19675 0.42091 0.27656 0.0
C5514 C 0.20051 0.39512 0.28573 0.0
C5515 C 0.23306 0.37849 0.26972 0.0
H5516 H 0.21316 0.33888 0.28156 0.0
C5517 C 0.26419 0.32392 0.27396 0.0
C5518 C 0.25607 0.308 0.27137 0.0
C5519 C 0.25695 0.33725 0.27461 0.0
C5520 C 0.219 0.3497 0.27803 0.0
H5521 H 0.21054 0.42747 0.25828 0.0
H5522 H 0.22211 0.40409 0.25685 0.0
H5523 H 0.20094 0.36186 0.28224 0.0
H5524 H 0.23342 0.29427 0.26748 0.0
H5525 H 0.22087 0.31719 0.26842 0.0
H5526 H 0.25093 0.36625 0.26507 0.0
C5527 C 0.21429 0.40503 0.26537 0.0
C5528 C 0.21194 0.36323 0.27865 0.0
C5529 C 0.20735 0.41862 0.26603 0.0
C5530 C 0.24027 0.30614 0.26954 0.0
C5531 C 0.23299 0.31952 0.27019 0.0
C5532 C 0.2401 0.36498 0.26908 0.0
C5533 C 0.21112 0.39284 0.27521 0.0
C5534 C 0.21876 0.37807 0.27453 0.0
C5535 C 0.24112 0.33551 0.27269 0.0
C5536 C 0.23332 0.35016 0.27325 0.0
H5537 H 0.18545 0.40945 0.29459 0.0
H5538 H 0.19761 0.38646 0.29378 0.0
H5539 H 0.2391 0.38941 0.26658 0.0
H5540 H 0.27632 0.32617 0.27548 0.0
H5541 H 0.26396 0.34903 0.27688 0.0
C5542 C 0.21329 0.42001 0.01229 0.0
C5543 C 0.22478 0.42483 0.02584 0.0
C5544 C 0.20068 0.4272 0.01084 0.0
C5545 C 0.17908 0.45066 0.03547 0.0
H5546 H 0.16221 0.4607 0.99369 0.0
C5547 C 0.13383 0.48929 0.03077 0.0
C5548 C 0.12194 0.48515 0.0176 0.0
C5549 C 0.14624 0.48188 0.03117 0.0
C5550 C 0.16665 0.4578 0.00541 0.0
H5551 H 0.23201 0.44135 0.04833 0.0
H5552 H 0.21006 0.45377 0.04586 0.0
H5553 H 0.184 0.44786 0.9956 0.0
H5554 H 0.11401 0.47014 0.99431 0.0
H5555 H 0.13571 0.45706 0.99503 0.0
H5556 H 0.16176 0.46048 0.0453 0.0
C5557 C 0.21069 0.44424 0.03644 0.0
C5558 C 0.17918 0.45044 0.00652 0.0
C5559 C 0.2233 0.43709 0.03787 0.0
C5560 C 0.123 0.47367 0.0046 0.0
C5561 C 0.13545 0.46618 0.00502 0.0
C5562 C 0.16657 0.45796 0.03436 0.0
C5563 C 0.19917 0.43937 0.02294 0.0
C5564 C 0.18563 0.44689 0.02159 0.0
C5565 C 0.14717 0.47006 0.01843 0.0
C5566 C 0.16024 0.46178 0.01935 0.0
H5567 H 0.21388 0.41045 0.0029 0.0
H5568 H 0.19196 0.42298 1.00039 0.0
H5569 H 0.18352 0.44781 0.04721 0.0
H5570 H 0.13357 0.49834 0.04083 0.0
H5571 H 0.15518 0.48552 0.0415 0.0
C5572 C 0.85697 0.92027 0.23957 0.0
C5573 C 0.87145 0.92425 0.24876 0.0
C5574 C 0.84749 0.90583 0.24032 0.0
C5575 C 0.84748 0.86582 0.25363 0.0
H5576 H 0.80481 0.86488 0.25117 0.0
C5577 C 0.80542 0.81308 0.26909 0.0
C5578 C 0.79208 0.80786 0.25793 0.0
C5579 C 0.8154 0.82693 0.26759 0.0
C5580 C 0.81669 0.86494 0.25174 0.0
H5581 H 0.88733 0.91581 0.26576 0.0
H5582 H 0.87058 0.89115 0.26773 0.0
H5583 H 0.82159 0.88975 0.24953 0.0
H5584 H 0.77861 0.81307 0.2366 0.0
H5585 H 0.7959 0.8375 0.23418 0.0
H5586 H 0.84248 0.84102 0.25635 0.0
C5587 C 0.86663 0.89901 0.25962 0.0
C5588 C 0.82633 0.87919 0.25073 0.0
C5589 C 0.87619 0.91334 0.25869 0.0
C5590 C 0.78883 0.81681 0.24534 0.0
C5591 C 0.79869 0.83079 0.24399 0.0
C5592 C 0.83784 0.85162 0.25487 0.0
C5593 C 0.85213 0.89504 0.25046 0.0
C5594 C 0.84186 0.87982 0.25158 0.0
C5595 C 0.81207 0.836 0.2551 0.0
C5596 C 0.82234 0.85104 0.25386 0.0
H5597 H 0.85281 0.9284 0.23193 0.0
H5598 H 0.83651 0.90312 0.23286 0.0
H5599 H 0.85931 0.86572 0.25406 0.0
H5600 H 0.80803 0.80662 0.27915 0.0
H5601 H 0.82554 0.83079 0.27644 0.0
C5602 C 0.69747 0.0937 0.76516 0.0
C5603 C 0.69993 0.08655 0.7795 0.0
C5604 C 0.70427 0.10963 0.76433 0.0
C5605 C 0.72233 0.14893 0.79004 0.0
H5606 H 0.73772 0.15914 0.75079 0.0
C5607 C 0.75453 0.21392 0.78656 0.0
C5608 C 0.75537 0.21926 0.77131 0.0
C5609 C 0.74794 0.19798 0.78773 0.0
C5610 C 0.73329 0.15682 0.76183 0.0
H5611 H 0.71207 0.09169 0.80431 0.0
H5612 H 0.7233 0.11928 0.80296 0.0
H5613 H 0.72599 0.13187 0.75243 0.0
H5614 H 0.74942 0.21159 0.74528 0.0
H5615 H 0.73748 0.18447 0.74719 0.0
H5616 H 0.72913 0.17385 0.79934 0.0
C5617 C 0.71604 0.11241 0.79227 0.0
C5618 C 0.72654 0.14091 0.76278 0.0
C5619 C 0.70944 0.09637 0.79303 0.0
C5620 C 0.74915 0.20808 0.75729 0.0
C5621 C 0.74235 0.19224 0.75844 0.0
C5622 C 0.72885 0.16493 0.789 0.0
C5623 C 0.71368 0.11937 0.77787 0.0
C5624 C 0.72094 0.13658 0.77691 0.0
C5625 C 0.74166 0.18667 0.77369 0.0
C5626 C 0.73454 0.16933 0.77487 0.0
H5627 H 0.69005 0.08715 0.75445 0.0
H5628 H 0.70187 0.11443 0.75305 0.0
H5629 H 0.71806 0.14633 0.8011 0.0
H5630 H 0.75926 0.22199 0.79768 0.0
H5631 H 0.74808 0.19455 0.79979 0.0
loop_
_geom_bond_atom_site_label_1
_geom_bond_atom_site_label_2
_geom_bond_distance
_geom_bond_site_symmetry_2
_ccdc_geom_bond_type
Li0 N17 1.990 . S
Li0 O60 1.956 1_655 S
Li0 O61 1.970 . S
Li0 O62 1.961 . S
Li1 N25 1.990 . S
Li1 O60 1.970 . S
Li1 O61 1.956 1_455 S
Li1 O63 1.961 . S
Li2 N47 1.990 . S
Li2 O60 1.961 . S
Li2 O62 1.956 1_455 S
Li2 O63 1.970 . S
Li3 N53 1.990 . S
Li3 O61 1.919 1_455 S
Li3 O62 1.972 1_455 S
Li3 O63 1.990 . S
C4 C6 1.348 1_455 S
C4 C7 1.356 . S
C4 O60 1.325 . S
N5 C8 1.302 1_455 S
N5 C9 1.296 . S
C6 C4 1.348 1_655 S
C6 C8 1.353 . S
C6 H64 0.929 . S
C7 C4 1.356 . S
C7 C9 1.358 . S
C7 H65 0.930 . S
C8 N5 1.302 1_655 S
C8 C6 1.353 . S
C8 H66 0.930 . S
C9 N5 1.296 . S
C9 C7 1.358 . S
C9 H67 0.930 . S
C10 C13 1.348 . S
C10 C14 1.356 . S
C10 O61 1.325 . S
C11 N12 1.279 . S
C11 C14 1.358 . S
C11 H68 0.930 . S
N12 C11 1.279 . S
N12 C15 1.314 . S
C13 C10 1.348 . S
C13 C15 1.353 . S
C13 H69 0.929 . S
C14 C10 1.356 . S
C14 C11 1.358 . S
C14 H70 0.930 . S
C15 N12 1.314 . S
C15 C13 1.353 . S
C15 H71 0.930 . S
C16 N17 1.314 . S
C16 C21 1.353 . S
C16 H22 0.930 . S
N17 Li0 1.990 . S
N17 C16 1.314 . S
N17 C19 1.279 . S
C18 C19 1.358 . S
C18 C20 1.356 . S
C18 H72 0.930 . S
C19 N17 1.279 . S
C19 C18 1.358 . S
C19 H23 0.930 . S
C20 C18 1.356 . S
C20 C21 1.348 . S
C21 C16 1.353 . S
C21 C20 1.348 . S
C21 H73 0.929 . S
H22 C16 0.930 . S
H23 C19 0.930 . S
C24 N25 1.314 . S
C24 C26 1.353 . S
C24 H30 0.930 . S
N25 Li1 1.990 . S
N25 C24 1.314 . S
N25 C28 1.279 1_455 S
C26 C24 1.353 . S
C26 C29 1.348 . S
C26 H74 0.929 . S
C27 C28 1.358 . S
C27 C29 1.356 1_655 S
C27 H75 0.930 . S
C28 N25 1.279 1_655 S
C28 C27 1.358 . S
C28 H31 0.930 . S
C29 C26 1.348 . S
C29 C27 1.356 1_455 S
H30 C24 0.930 . S
H31 C28 0.930 . S
C32 C34 1.370 . S
C32 C35 1.356 . S
C32 O62 1.325 . S
N33 C36 1.314 . S
N33 C37 1.279 . S
C34 C32 1.370 . S
C34 C36 1.348 . S
C34 H76 0.916 1_655 S
C35 C32 1.356 . S
C35 C37 1.358 . S
C35 H77 0.930 . S
C36 N33 1.314 . S
C36 C34 1.348 . S
C36 H78 0.953 . S
C37 N33 1.279 . S
C37 C35 1.358 . S
C37 H79 0.930 . S
C38 C39 1.348 . S
C38 C40 1.356 . S
C38 O63 1.325 . S
C39 C38 1.348 . S
C39 C41 1.353 . S
C39 H80 0.929 . S
C40 C38 1.356 . S
C40 C42 1.358 . S
C40 H81 0.930 . S
C41 C39 1.353 . S
C41 N43 1.314 . S
C41 H82 0.930 . S
C42 C40 1.358 . S
C42 N43 1.279 . S
C42 H83 0.930 . S
N43 C41 1.314 . S
N43 C42 1.279 . S
C44 C46 1.353 . S
C44 N47 1.314 . S
C44 H50 0.930 . S
C45 N47 1.279 . S
C45 C48 1.358 . S
C45 H51 0.930 . S
C46 C44 1.353 . S
C46 C49 1.348 . S
C46 H84 0.929 . S
N47 Li2 1.990 . S
N47 C44 1.314 . S
N47 C45 1.279 . S
C48 C45 1.358 . S
C48 C49 1.356 . S
C48 H85 0.930 . S
C49 C46 1.348 . S
C49 C48 1.356 . S
H50 C44 0.930 . S
H51 C45 0.930 . S
C52 N53 1.280 1_655 S
C52 C54 1.353 . S
C52 H58 0.930 . S
N53 Li3 1.990 . S
N53 C52 1.280 1_455 S
N53 C56 1.316 . S
C54 C52 1.353 . S
C54 C57 1.409 . S
C54 H86 0.929 . S
C55 C56 1.358 . S
C55 C57 1.301 1_455 S
C55 H87 0.930 . S
C56 N53 1.316 . S
C56 C55 1.358 . S
C56 H59 0.930 . S
C57 C54 1.409 . S
C57 C55 1.301 1_655 S
H58 C52 0.930 . S
H59 C56 0.930 . S
O60 Li0 1.956 1_455 S
O60 Li1 1.970 . S
O60 Li2 1.961 . S
O60 C4 1.325 . S
O61 Li0 1.970 . S
O61 Li1 1.956 1_655 S
O61 Li3 1.919 1_655 S
O61 C10 1.325 . S
O62 Li0 1.961 . S
O62 Li2 1.956 1_655 S
O62 Li3 1.972 1_655 S
O62 C32 1.325 . S
O63 Li1 1.961 . S
O63 Li2 1.970 . S
O63 Li3 1.990 . S
O63 C38 1.325 . S
H64 C6 0.929 . S
H65 C7 0.930 . S
H66 C8 0.930 . S
H67 C9 0.930 . S
H68 C11 0.930 . S
H69 C13 0.929 . S
H70 C14 0.930 . S
H71 C15 0.930 . S
H72 C18 0.930 . S
H73 C21 0.929 . S
H74 C26 0.929 . S
H75 C27 0.930 . S
H76 C34 0.916 1_455 S
H77 C35 0.930 . S
H78 C36 0.953 . S
H79 C37 0.930 . S
H80 C39 0.929 . S
H81 C40 0.930 . S
H82 C41 0.930 . S
H83 C42 0.930 . S
H84 C46 0.929 . S
H85 C48 0.930 . S
H86 C54 0.929 . S
H87 C55 0.930 . S
Li88 N105 1.990 . S
Li88 O148 1.956 . S
Li88 O149 1.970 . S
Li88 O150 1.961 . S
Li89 N113 1.990 . S
Li89 O148 1.970 . S
Li89 O149 1.956 . S
Li89 O151 1.961 . S
Li90 N135 1.990 . S
Li90 O148 1.961 . S
Li90 O150 1.956 . S
Li90 O151 1.970 . S
Li91 N141 1.990 . S
Li91 O149 1.961 . S
Li91 O150 1.970 . S
Li91 O151 1.956 . S
C92 C94 1.348 . S
C92 C95 1.356 . S
C92 O148 1.325 . S
N93 C96 1.314 . S
N93 C97 1.279 . S
C94 C92 1.348 . S
C94 C96 1.353 . S
C94 H152 0.929 . S
C95 C92 1.356 . S
C95 C97 1.358 . S
C95 H153 0.930 . S
C96 N93 1.314 . S
C96 C94 1.353 . S
C96 H154 0.930 . S
C97 N93 1.279 . S
C97 C95 1.358 . S
C97 H155 0.930 . S
C98 C101 1.348 . S
C98 C102 1.356 . S
C98 O149 1.325 . S
C99 N100 1.279 . S
C99 C102 1.358 . S
C99 H156 0.930 . S
N100 C99 1.279 . S
N100 C103 1.314 . S
C101 C98 1.348 . S
C101 C103 1.353 . S
C101 H157 0.929 . S
C102 C98 1.356 . S
C102 C99 1.358 . S
C102 H158 0.930 . S
C103 N100 1.314 . S
C103 C101 1.353 . S
C103 H159 0.930 . S
C104 N105 1.314 . S
C104 C109 1.353 . S
C104 H110 0.930 . S
N105 Li88 1.990 . S
N105 C104 1.314 . S
N105 C107 1.279 . S
C106 C107 1.358 . S
C106 C108 1.356 . S
C106 H160 0.930 . S
C107 N105 1.279 . S
C107 C106 1.358 . S
C107 H111 0.930 . S
C108 C106 1.356 . S
C108 C109 1.348 . S
C109 C104 1.353 . S
C109 C108 1.348 . S
C109 H161 0.929 . S
H110 C104 0.930 . S
H111 C107 0.930 . S
C112 N113 1.314 . S
C112 C114 1.353 . S
C112 H118 0.930 . S
N113 Li89 1.990 . S
N113 C112 1.314 . S
N113 C116 1.279 . S
C114 C112 1.353 . S
C114 C117 1.348 . S
C114 H162 0.929 . S
C115 C116 1.358 . S
C115 C117 1.356 . S
C115 H163 0.930 . S
C116 N113 1.279 . S
C116 C115 1.358 . S
C116 H119 0.930 . S
C117 C114 1.348 . S
C117 C115 1.356 . S
H118 C112 0.930 . S
H119 C116 0.930 . S
C120 C122 1.348 . S
C120 C123 1.356 . S
C120 O150 1.325 . S
N121 C124 1.314 . S
N121 C125 1.279 1_655 S
C122 C120 1.348 . S
C122 C124 1.353 1_455 S
C122 H164 0.929 . S
C123 C120 1.356 . S
C123 C125 1.358 . S
C123 H165 0.930 . S
C124 N121 1.314 . S
C124 C122 1.353 1_655 S
C124 H166 0.930 . S
C125 N121 1.279 1_455 S
C125 C123 1.358 . S
C125 H167 0.930 . S
C126 C127 1.348 . S
C126 C128 1.356 . S
C126 O151 1.325 . S
C127 C126 1.348 . S
C127 C129 1.353 . S
C127 H168 0.929 . S
C128 C126 1.356 . S
C128 C130 1.358 . S
C128 H169 0.930 . S
C129 C127 1.353 . S
C129 N131 1.314 . S
C129 H170 0.930 . S
C130 C128 1.358 . S
C130 N131 1.279 . S
C130 H171 0.930 . S
N131 C129 1.314 . S
N131 C130 1.279 . S
C132 C134 1.353 . S
C132 N135 1.314 . S
C132 H138 0.930 . S
C133 N135 1.279 . S
C133 C136 1.358 . S
C133 H139 0.930 . S
C134 C132 1.353 . S
C134 C137 1.348 . S
C134 H172 0.929 . S
N135 Li90 1.990 . S
N135 C132 1.314 . S
N135 C133 1.279 . S
C136 C133 1.358 . S
C136 C137 1.356 . S
C136 H173 0.930 . S
C137 C134 1.348 . S
C137 C136 1.356 . S
H138 C132 0.930 . S
H139 C133 0.930 . S
C140 N141 1.314 . S
C140 C142 1.353 . S
C140 H146 0.930 . S
N141 Li91 1.990 . S
N141 C140 1.314 . S
N141 C144 1.279 . S
C142 C140 1.353 . S
C142 C145 1.348 1_455 S
C142 H174 0.929 1_455 S
C143 C144 1.358 . S
C143 C145 1.356 1_455 S
C143 H175 0.928 1_455 S
C144 N141 1.279 . S
C144 C143 1.358 . S
C144 H147 0.930 . S
C145 C142 1.348 1_655 S
C145 C143 1.356 1_655 S
H146 C140 0.930 . S
H147 C144 0.930 . S
O148 Li88 1.956 . S
O148 Li89 1.970 . S
O148 Li90 1.961 . S
O148 C92 1.325 . S
O149 Li88 1.970 . S
O149 Li89 1.956 . S
O149 Li91 1.961 . S
O149 C98 1.325 . S
O150 Li88 1.961 . S
O150 Li90 1.956 . S
O150 Li91 1.970 . S
O150 C120 1.325 . S
O151 Li89 1.961 . S
O151 Li90 1.970 . S
O151 Li91 1.956 . S
O151 C126 1.325 . S
H152 C94 0.929 . S
H153 C95 0.930 . S
H154 C96 0.930 . S
H155 C97 0.930 . S
H156 C99 0.930 . S
H157 C101 0.929 . S
H158 C102 0.930 . S
H159 C103 0.930 . S
H160 C106 0.930 . S
H161 C109 0.929 . S
H162 C114 0.929 . S
H163 C115 0.930 . S
H164 C122 0.929 . S
H165 C123 0.930 . S
H166 C124 0.930 . S
H167 C125 0.930 . S
H168 C127 0.929 . S
H169 C128 0.930 . S
H170 C129 0.930 . S
H171 C130 0.930 . S
H172 C134 0.929 . S
H173 C136 0.930 . S
H174 C142 0.929 1_655 S
H175 C143 0.928 1_655 S
Li176 N193 1.990 . S
Li176 O236 1.956 . S
Li176 O237 1.970 . S
Li176 O238 1.961 . S
Li177 N201 1.990 . S
Li177 O236 1.970 . S
Li177 O237 1.956 . S
Li177 O239 1.961 . S
Li178 N223 1.990 . S
Li178 O236 1.961 . S
Li178 O238 1.956 . S
Li178 O239 1.970 . S
Li179 N229 1.990 . S
Li179 O237 1.961 . S
Li179 O238 1.970 . S
Li179 O239 1.956 . S
C180 C182 1.348 . S
C180 C183 1.356 . S
C180 O236 1.325 . S
N181 C184 1.314 . S
N181 C185 1.279 . S
C182 C180 1.348 . S
C182 C184 1.353 . S
C182 H240 0.929 . S
C183 C180 1.356 . S
C183 C185 1.358 . S
C183 H241 0.930 . S
C184 N181 1.314 . S
C184 C182 1.353 . S
C184 H242 0.930 . S
C185 N181 1.279 . S
C185 C183 1.358 . S
C185 H243 0.930 . S
C186 C189 1.348 . S
C186 C190 1.356 . S
C186 O237 1.325 . S
C187 N188 1.279 . S
C187 C190 1.358 . S
C187 H244 0.930 . S
N188 C187 1.279 . S
N188 C191 1.314 . S
C189 C186 1.348 . S
C189 C191 1.353 . S
C189 H245 0.929 . S
C190 C186 1.356 . S
C190 C187 1.358 . S
C190 H246 0.930 . S
C191 N188 1.314 . S
C191 C189 1.353 . S
C191 H247 0.930 . S
C192 N193 1.314 . S
C192 C197 1.353 . S
C192 H198 0.930 . S
N193 Li176 1.990 . S
N193 C192 1.314 . S
N193 C195 1.279 . S
C194 C195 1.358 . S
C194 C196 1.356 . S
C194 H248 0.930 . S
C195 N193 1.279 . S
C195 C194 1.358 . S
C195 H199 0.930 . S
C196 C194 1.356 . S
C196 C197 1.348 . S
C197 C192 1.353 . S
C197 C196 1.348 . S
C197 H249 0.929 . S
H198 C192 0.930 . S
H199 C195 0.930 . S
C200 N201 1.314 . S
C200 C202 1.353 . S
C200 H206 0.930 . S
N201 Li177 1.990 . S
N201 C200 1.314 . S
N201 C204 1.279 . S
C202 C200 1.353 . S
C202 C205 1.348 . S
C202 H250 0.929 . S
C203 C204 1.358 . S
C203 C205 1.356 . S
C203 H251 0.930 . S
C204 N201 1.279 . S
C204 C203 1.358 . S
C204 H207 0.930 . S
C205 C202 1.348 . S
C205 C203 1.356 . S
H206 C200 0.930 . S
H207 C204 0.930 . S
C208 C210 1.348 . S
C208 C211 1.356 . S
C208 O238 1.325 . S
N209 C212 1.314 . S
N209 C213 1.279 . S
C210 C208 1.348 . S
C210 C212 1.353 . S
C210 H252 0.929 . S
C211 C208 1.356 . S
C211 C213 1.358 . S
C211 H253 0.930 . S
C212 N209 1.314 . S
C212 C210 1.353 . S
C212 H254 0.930 . S
C213 N209 1.279 . S
C213 C211 1.358 . S
C213 H255 0.930 . S
C214 C215 1.348 . S
C214 C216 1.356 . S
C214 O239 1.325 . S
C215 C214 1.348 . S
C215 C217 1.353 . S
C215 H256 0.929 . S
C216 C214 1.356 . S
C216 C218 1.358 . S
C216 H257 0.930 . S
C217 C215 1.353 . S
C217 N219 1.314 . S
C217 H258 0.930 . S
C218 C216 1.358 . S
C218 N219 1.279 . S
C218 H259 0.930 . S
N219 C217 1.314 . S
N219 C218 1.279 . S
C220 C222 1.353 . S
C220 N223 1.314 . S
C220 H226 0.930 . S
C221 N223 1.279 . S
C221 C224 1.358 . S
C221 H227 0.930 . S
C222 C220 1.353 . S
C222 C225 1.348 . S
C222 H260 0.929 . S
N223 Li178 1.990 . S
N223 C220 1.314 . S
N223 C221 1.279 . S
C224 C221 1.358 . S
C224 C225 1.356 . S
C224 H261 0.930 . S
C225 C222 1.348 . S
C225 C224 1.356 . S
H226 C220 0.930 . S
H227 C221 0.930 . S
C228 N229 1.314 . S
C228 C230 1.353 . S
C228 H234 0.930 . S
N229 Li179 1.990 . S
N229 C228 1.314 . S
N229 C232 1.279 . S
C230 C228 1.353 . S
C230 C233 1.348 . S
C230 H262 0.929 . S
C231 C232 1.358 . S
C231 C233 1.356 . S
C231 H263 0.930 . S
C232 N229 1.279 . S
C232 C231 1.358 . S
C232 H235 0.930 . S
C233 C230 1.348 . S
C233 C231 1.356 . S
H234 C228 0.930 . S
H235 C232 0.930 . S
O236 Li176 1.956 . S
O236 Li177 1.970 . S
O236 Li178 1.961 . S
O236 C180 1.325 . S
O237 Li176 1.970 . S
O237 Li177 1.956 . S
O237 Li179 1.961 . S
O237 C186 1.325 . S
O238 Li176 1.961 . S
O238 Li178 1.956 . S
O238 Li179 1.970 . S
O238 C208 1.325 . S
O239 Li177 1.961 . S
O239 Li178 1.970 . S
O239 Li179 1.956 . S
O239 C214 1.325 . S
H240 C182 0.929 . S
H241 C183 0.930 . S
H242 C184 0.930 . S
H243 C185 0.930 . S
H244 C187 0.930 . S
H245 C189 0.929 . S
H246 C190 0.930 . S
H247 C191 0.930 . S
H248 C194 0.930 . S
H249 C197 0.929 . S
H250 C202 0.929 . S
H251 C203 0.930 . S
H252 C210 0.929 . S
H253 C211 0.930 . S
H254 C212 0.930 . S
H255 C213 0.930 . S
H256 C215 0.929 . S
H257 C216 0.930 . S
H258 C217 0.930 . S
H259 C218 0.930 . S
H260 C222 0.929 . S
H261 C224 0.930 . S
H262 C230 0.929 . S
H263 C231 0.930 . S
Li264 N281 1.990 . S
Li264 O324 1.956 . S
Li264 O325 1.970 . S
Li264 O326 1.961 . S
Li265 N289 1.990 . S
Li265 O324 1.970 . S
Li265 O325 1.956 . S
Li265 O327 1.961 . S
Li266 N311 1.990 . S
Li266 O324 1.961 . S
Li266 O326 1.956 . S
Li266 O327 1.970 . S
Li267 N317 1.990 . S
Li267 O325 1.961 . S
Li267 O326 1.970 . S
Li267 O327 1.956 . S
C268 C270 1.348 . S
C268 C271 1.356 . S
C268 O324 1.325 . S
N269 C272 1.314 . S
N269 C273 1.279 . S
C270 C268 1.348 . S
C270 C272 1.353 . S
C270 H328 0.929 . S
C271 C268 1.356 . S
C271 C273 1.358 . S
C271 H329 0.930 . S
C272 N269 1.314 . S
C272 C270 1.353 . S
C272 H330 0.930 . S
C273 N269 1.279 . S
C273 C271 1.358 . S
C273 H331 0.930 . S
C274 C277 1.348 . S
C274 C278 1.356 . S
C274 O325 1.325 . S
C275 N276 1.279 . S
C275 C278 1.358 . S
C275 H332 0.930 . S
N276 C275 1.279 . S
N276 C279 1.314 . S
C277 C274 1.348 . S
C277 C279 1.353 . S
C277 H333 0.929 . S
C278 C274 1.356 . S
C278 C275 1.358 . S
C278 H334 0.930 . S
C279 N276 1.314 . S
C279 C277 1.353 . S
C279 H335 0.930 . S
C280 N281 1.314 . S
C280 C285 1.353 . S
C280 H286 0.930 . S
N281 Li264 1.990 . S
N281 C280 1.314 . S
N281 C283 1.279 . S
C282 C283 1.358 . S
C282 C284 1.356 . S
C282 H336 0.930 . S
C283 N281 1.279 . S
C283 C282 1.358 . S
C283 H287 0.930 . S
C284 C282 1.356 . S
C284 C285 1.348 . S
C285 C280 1.353 . S
C285 C284 1.348 . S
C285 H337 0.929 . S
H286 C280 0.930 . S
H287 C283 0.930 . S
C288 N289 1.314 . S
C288 C290 1.353 . S
C288 H294 0.930 . S
N289 Li265 1.990 . S
N289 C288 1.314 . S
N289 C292 1.279 . S
C290 C288 1.353 . S
C290 C293 1.348 . S
C290 H338 0.929 . S
C291 C292 1.358 . S
C291 C293 1.356 . S
C291 H339 0.930 . S
C292 N289 1.279 . S
C292 C291 1.358 . S
C292 H295 0.930 . S
C293 C290 1.348 . S
C293 C291 1.356 . S
H294 C288 0.930 . S
H295 C292 0.930 . S
C296 C298 1.348 . S
C296 C299 1.356 . S
C296 O326 1.325 . S
N297 C300 1.314 . S
N297 C301 1.279 . S
C298 C296 1.348 . S
C298 C300 1.353 . S
C298 H340 0.929 . S
C299 C296 1.356 . S
C299 C301 1.358 . S
C299 H341 0.930 . S
C300 N297 1.314 . S
C300 C298 1.353 . S
C300 H342 0.930 . S
C301 N297 1.279 . S
C301 C299 1.358 . S
C301 H343 0.930 . S
C302 C303 1.348 . S
C302 C304 1.356 . S
C302 O327 1.325 . S
C303 C302 1.348 . S
C303 C305 1.353 . S
C303 H344 0.929 . S
C304 C302 1.356 . S
C304 C306 1.358 . S
C304 H345 0.930 . S
C305 C303 1.353 . S
C305 N307 1.314 . S
C305 H346 0.930 . S
C306 C304 1.358 . S
C306 N307 1.279 . S
C306 H347 0.930 . S
N307 C305 1.314 . S
N307 C306 1.279 . S
C308 C310 1.353 . S
C308 N311 1.314 . S
C308 H314 0.930 . S
C309 N311 1.279 . S
C309 C312 1.358 . S
C309 H315 0.930 . S
C310 C308 1.353 . S
C310 C313 1.348 . S
C310 H348 0.929 . S
N311 Li266 1.990 . S
N311 C308 1.314 . S
N311 C309 1.279 . S
C312 C309 1.358 . S
C312 C313 1.356 . S
C312 H349 0.930 . S
C313 C310 1.348 . S
C313 C312 1.356 . S
H314 C308 0.930 . S
H315 C309 0.930 . S
C316 N317 1.314 . S
C316 C318 1.353 . S
C316 H322 0.930 . S
N317 Li267 1.990 . S
N317 C316 1.314 . S
N317 C320 1.279 . S
C318 C316 1.353 . S
C318 C321 1.348 . S
C318 H350 0.929 . S
C319 C320 1.358 . S
C319 C321 1.356 . S
C319 H351 0.930 . S
C320 N317 1.279 . S
C320 C319 1.358 . S
C320 H323 0.930 . S
C321 C318 1.348 . S
C321 C319 1.356 . S
H322 C316 0.930 . S
H323 C320 0.930 . S
O324 Li264 1.956 . S
O324 Li265 1.970 . S
O324 Li266 1.961 . S
O324 C268 1.325 . S
O325 Li264 1.970 . S
O325 Li265 1.956 . S
O325 Li267 1.961 . S
O325 C274 1.325 . S
O326 Li264 1.961 . S
O326 Li266 1.956 . S
O326 Li267 1.970 . S
O326 C296 1.325 . S
O327 Li265 1.961 . S
O327 Li266 1.970 . S
O327 Li267 1.956 . S
O327 C302 1.325 . S
H328 C270 0.929 . S
H329 C271 0.930 . S
H330 C272 0.930 . S
H331 C273 0.930 . S
H332 C275 0.930 . S
H333 C277 0.929 . S
H334 C278 0.930 . S
H335 C279 0.930 . S
H336 C282 0.930 . S
H337 C285 0.929 . S
H338 C290 0.929 . S
H339 C291 0.930 . S
H340 C298 0.929 . S
H341 C299 0.930 . S
H342 C300 0.930 . S
H343 C301 0.930 . S
H344 C303 0.929 . S
H345 C304 0.930 . S
H346 C305 0.930 . S
H347 C306 0.930 . S
H348 C310 0.929 . S
H349 C312 0.930 . S
H350 C318 0.929 . S
H351 C319 0.930 . S
Li352 N369 1.990 . S
Li352 O412 1.956 . S
Li352 O413 1.970 . S
Li352 O414 1.961 . S
Li353 N377 1.990 . S
Li353 O412 1.970 . S
Li353 O413 1.956 . S
Li353 O415 1.961 . S
Li354 N399 1.990 . S
Li354 O412 1.961 . S
Li354 O414 1.956 . S
Li354 O415 1.970 . S
Li355 N405 1.990 . S
Li355 O413 1.961 . S
Li355 O414 1.970 . S
Li355 O415 1.956 . S
C356 C358 1.348 . S
C356 C359 1.356 . S
C356 O412 1.325 . S
N357 C360 1.314 . S
N357 C361 1.279 . S
C358 C356 1.348 . S
C358 C360 1.353 . S
C358 H416 0.929 . S
C359 C356 1.356 . S
C359 C361 1.358 . S
C359 H417 0.930 . S
C360 N357 1.314 . S
C360 C358 1.353 . S
C360 H418 0.930 . S
C361 N357 1.279 . S
C361 C359 1.358 . S
C361 H419 0.930 . S
C362 C365 1.348 . S
C362 C366 1.356 . S
C362 O413 1.325 . S
C363 N364 1.279 . S
C363 C366 1.358 . S
C363 H420 0.930 . S
N364 C363 1.279 . S
N364 C367 1.314 . S
C365 C362 1.348 . S
C365 C367 1.353 . S
C365 H421 0.929 . S
C366 C362 1.356 . S
C366 C363 1.358 . S
C366 H422 0.930 . S
C367 N364 1.314 . S
C367 C365 1.353 . S
C367 H423 0.930 . S
C368 N369 1.314 . S
C368 C373 1.353 . S
C368 H374 0.930 . S
N369 Li352 1.990 . S
N369 C368 1.314 . S
N369 C371 1.279 . S
C370 C371 1.358 . S
C370 C372 1.356 . S
C370 H424 0.930 . S
C371 N369 1.279 . S
C371 C370 1.358 . S
C371 H375 0.930 . S
C372 C370 1.356 . S
C372 C373 1.348 . S
C373 C368 1.353 . S
C373 C372 1.348 . S
C373 H425 0.929 . S
H374 C368 0.930 . S
H375 C371 0.930 . S
C376 N377 1.314 . S
C376 C378 1.353 . S
C376 H382 0.930 . S
N377 Li353 1.990 . S
N377 C376 1.314 . S
N377 C380 1.279 . S
C378 C376 1.353 . S
C378 C381 1.348 . S
C378 H426 0.929 . S
C379 C380 1.358 . S
C379 C381 1.356 . S
C379 H427 0.930 . S
C380 N377 1.279 . S
C380 C379 1.358 . S
C380 H383 0.930 . S
C381 C378 1.348 . S
C381 C379 1.356 . S
H382 C376 0.930 . S
H383 C380 0.930 . S
C384 C386 1.348 1_455 S
C384 C387 1.356 . S
C384 O414 1.325 . S
N385 C388 1.314 . S
N385 C389 1.279 . S
C386 C384 1.348 1_655 S
C386 C388 1.353 . S
C386 H428 0.929 . S
C387 C384 1.356 . S
C387 C389 1.358 1_455 S
C387 H429 0.930 . S
C388 N385 1.314 . S
C388 C386 1.353 . S
C388 H430 0.930 . S
C389 N385 1.279 . S
C389 C387 1.358 1_655 S
C389 H431 0.930 . S
C390 C391 1.348 . S
C390 C392 1.356 . S
C390 O415 1.325 . S
C391 C390 1.348 . S
C391 C393 1.353 . S
C391 H432 0.929 . S
C392 C390 1.356 . S
C392 C394 1.358 . S
C392 H433 0.930 . S
C393 C391 1.353 . S
C393 N395 1.314 . S
C393 H434 0.930 . S
C394 C392 1.358 . S
C394 N395 1.279 . S
C394 H435 0.930 . S
N395 C393 1.314 . S
N395 C394 1.279 . S
C396 C398 1.353 . S
C396 N399 1.314 . S
C396 H402 0.930 . S
C397 N399 1.279 . S
C397 C400 1.358 . S
C397 H403 0.930 . S
C398 C396 1.353 . S
C398 C401 1.348 . S
C398 H436 0.929 . S
N399 Li354 1.990 . S
N399 C396 1.314 . S
N399 C397 1.279 . S
C400 C397 1.358 . S
C400 C401 1.356 . S
C400 H437 0.930 . S
C401 C398 1.348 . S
C401 C400 1.356 . S
H402 C396 0.930 . S
H403 C397 0.930 . S
C404 N405 1.358 . S
C404 C406 1.296 1_455 S
C404 H410 0.948 . S
N405 Li355 1.990 . S
N405 C404 1.358 . S
N405 C408 1.279 . S
C406 C404 1.296 1_655 S
C406 C409 1.348 . S
C406 H438 0.929 . S
C407 C408 1.358 1_655 S
C407 C409 1.356 . S
C407 H439 0.930 . S
C408 N405 1.279 . S
C408 C407 1.358 1_455 S
C408 H411 0.930 . S
C409 C406 1.348 . S
C409 C407 1.356 . S
H410 C404 0.948 . S
H411 C408 0.930 . S
O412 Li352 1.956 . S
O412 Li353 1.970 . S
O412 Li354 1.961 . S
O412 C356 1.325 . S
O413 Li352 1.970 . S
O413 Li353 1.956 . S
O413 Li355 1.961 . S
O413 C362 1.325 . S
O414 Li352 1.961 . S
O414 Li354 1.956 . S
O414 Li355 1.970 . S
O414 C384 1.325 . S
O415 Li353 1.961 . S
O415 Li354 1.970 . S
O415 Li355 1.956 . S
O415 C390 1.325 . S
H416 C358 0.929 . S
H417 C359 0.930 . S
H418 C360 0.930 . S
H419 C361 0.930 . S
H420 C363 0.930 . S
H421 C365 0.929 . S
H422 C366 0.930 . S
H423 C367 0.930 . S
H424 C370 0.930 . S
H425 C373 0.929 . S
H426 C378 0.929 . S
H427 C379 0.930 . S
H428 C386 0.929 . S
H429 C387 0.930 . S
H430 C388 0.930 . S
H431 C389 0.930 . S
H432 C391 0.929 . S
H433 C392 0.930 . S
H434 C393 0.930 . S
H435 C394 0.930 . S
H436 C398 0.929 . S
H437 C400 0.930 . S
H438 C406 0.929 . S
H439 C407 0.930 . S
Li440 N457 1.990 . S
Li440 O500 1.956 . S
Li440 O501 1.970 . S
Li440 O502 1.961 . S
Li441 N465 1.990 . S
Li441 O500 1.970 . S
Li441 O501 1.956 . S
Li441 O503 1.961 . S
Li442 N487 1.990 . S
Li442 O500 1.961 . S
Li442 O502 1.956 . S
Li442 O503 1.970 . S
Li443 N493 1.990 . S
Li443 O501 1.961 . S
Li443 O502 1.970 . S
Li443 O503 1.956 . S
C444 C446 1.348 . S
C444 C447 1.356 . S
C444 O500 1.325 . S
N445 C448 1.314 . S
N445 C449 1.279 . S
C446 C444 1.348 . S
C446 C448 1.353 . S
C446 H504 0.929 . S
C447 C444 1.356 . S
C447 C449 1.358 . S
C447 H505 0.930 . S
C448 N445 1.314 . S
C448 C446 1.353 . S
C448 H506 0.930 . S
C449 N445 1.279 . S
C449 C447 1.358 . S
C449 H507 0.930 . S
C450 C453 1.348 . S
C450 C454 1.356 . S
C450 O501 1.325 . S
C451 N452 1.279 . S
C451 C454 1.358 . S
C451 H508 0.930 . S
N452 C451 1.279 . S
N452 C455 1.314 . S
C453 C450 1.348 . S
C453 C455 1.353 . S
C453 H509 0.929 . S
C454 C450 1.356 . S
C454 C451 1.358 . S
C454 H510 0.930 . S
C455 N452 1.314 . S
C455 C453 1.353 . S
C455 H511 0.930 . S
C456 N457 1.314 . S
C456 C461 1.353 . S
C456 H462 0.930 . S
N457 Li440 1.990 . S
N457 C456 1.314 . S
N457 C459 1.279 . S
C458 C459 1.358 . S
C458 C460 1.356 . S
C458 H512 0.930 . S
C459 N457 1.279 . S
C459 C458 1.358 . S
C459 H463 0.930 . S
C460 C458 1.356 . S
C460 C461 1.348 . S
C461 C456 1.353 . S
C461 C460 1.348 . S
C461 H513 0.929 . S
H462 C456 0.930 . S
H463 C459 0.930 . S
C464 N465 1.314 . S
C464 C466 1.353 . S
C464 H470 0.930 . S
N465 Li441 1.990 . S
N465 C464 1.314 . S
N465 C468 1.279 . S
C466 C464 1.353 . S
C466 C469 1.348 . S
C466 H514 0.929 . S
C467 C468 1.358 . S
C467 C469 1.356 . S
C467 H515 0.930 . S
C468 N465 1.279 . S
C468 C467 1.358 . S
C468 H471 0.930 . S
C469 C466 1.348 . S
C469 C467 1.356 . S
H470 C464 0.930 . S
H471 C468 0.930 . S
C472 C474 1.348 . S
C472 C475 1.356 . S
C472 O502 1.325 . S
N473 C476 1.314 . S
N473 C477 1.279 . S
C474 C472 1.348 . S
C474 C476 1.353 . S
C474 H516 0.929 . S
C475 C472 1.356 . S
C475 C477 1.358 . S
C475 H517 0.930 . S
C476 N473 1.314 . S
C476 C474 1.353 . S
C476 H518 0.930 . S
C477 N473 1.279 . S
C477 C475 1.358 . S
C477 H519 0.930 . S
C478 C479 1.348 . S
C478 C480 1.356 . S
C478 O503 1.325 . S
C479 C478 1.348 . S
C479 C481 1.353 . S
C479 H520 0.929 . S
C480 C478 1.356 . S
C480 C482 1.358 . S
C480 H521 0.930 . S
C481 C479 1.353 . S
C481 N483 1.314 . S
C481 H522 0.930 . S
C482 C480 1.358 . S
C482 N483 1.279 . S
C482 H523 0.930 . S
N483 C481 1.314 . S
N483 C482 1.279 . S
C484 C486 1.353 . S
C484 N487 1.314 . S
C484 H490 0.930 . S
C485 N487 1.279 . S
C485 C488 1.358 . S
C485 H491 0.930 . S
C486 C484 1.353 . S
C486 C489 1.348 . S
C486 H524 0.929 . S
N487 Li442 1.990 . S
N487 C484 1.314 . S
N487 C485 1.279 . S
C488 C485 1.358 . S
C488 C489 1.356 . S
C488 H525 0.930 . S
C489 C486 1.348 . S
C489 C488 1.356 . S
H490 C484 0.930 . S
H491 C485 0.930 . S
C492 N493 1.314 . S
C492 C494 1.353 . S
C492 H498 0.930 . S
N493 Li443 1.990 . S
N493 C492 1.314 . S
N493 C496 1.279 . S
C494 C492 1.353 . S
C494 C497 1.348 . S
C494 H526 0.929 . S
C495 C496 1.358 . S
C495 C497 1.356 . S
C495 H527 0.930 . S
C496 N493 1.279 . S
C496 C495 1.358 . S
C496 H499 0.930 . S
C497 C494 1.348 . S
C497 C495 1.356 . S
H498 C492 0.930 . S
H499 C496 0.930 . S
O500 Li440 1.956 . S
O500 Li441 1.970 . S
O500 Li442 1.961 . S
O500 C444 1.325 . S
O501 Li440 1.970 . S
O501 Li441 1.956 . S
O501 Li443 1.961 . S
O501 C450 1.325 . S
O502 Li440 1.961 . S
O502 Li442 1.956 . S
O502 Li443 1.970 . S
O502 C472 1.325 . S
O503 Li441 1.961 . S
O503 Li442 1.970 . S
O503 Li443 1.956 . S
O503 C478 1.325 . S
H504 C446 0.929 . S
H505 C447 0.930 . S
H506 C448 0.930 . S
H507 C449 0.930 . S
H508 C451 0.930 . S
H509 C453 0.929 . S
H510 C454 0.930 . S
H511 C455 0.930 . S
H512 C458 0.930 . S
H513 C461 0.929 . S
H514 C466 0.929 . S
H515 C467 0.930 . S
H516 C474 0.929 . S
H517 C475 0.930 . S
H518 C476 0.930 . S
H519 C477 0.930 . S
H520 C479 0.929 . S
H521 C480 0.930 . S
H522 C481 0.930 . S
H523 C482 0.930 . S
H524 C486 0.929 . S
H525 C488 0.930 . S
H526 C494 0.929 . S
H527 C495 0.930 . S
Li528 N545 1.990 . S
Li528 O588 1.956 . S
Li528 O589 1.970 . S
Li528 O590 1.961 . S
Li529 N553 1.990 . S
Li529 O588 1.970 . S
Li529 O589 1.956 . S
Li529 O591 1.961 . S
Li530 N575 1.990 . S
Li530 O588 1.961 . S
Li530 O590 1.956 . S
Li530 O591 1.970 . S
Li531 N581 1.990 . S
Li531 O589 1.961 . S
Li531 O590 1.970 . S
Li531 O591 1.956 . S
C532 C534 1.348 . S
C532 C535 1.356 . S
C532 O588 1.325 . S
N533 C536 1.314 . S
N533 C537 1.279 . S
C534 C532 1.348 . S
C534 C536 1.353 . S
C534 H592 0.929 . S
C535 C532 1.356 . S
C535 C537 1.358 . S
C535 H593 0.930 . S
C536 N533 1.314 . S
C536 C534 1.353 . S
C536 H594 0.930 . S
C537 N533 1.279 . S
C537 C535 1.358 . S
C537 H595 0.930 . S
C538 C541 1.348 . S
C538 C542 1.356 . S
C538 O589 1.325 . S
C539 N540 1.279 . S
C539 C542 1.358 . S
C539 H596 0.930 . S
N540 C539 1.279 . S
N540 C543 1.314 . S
C541 C538 1.348 . S
C541 C543 1.353 . S
C541 H597 0.929 . S
C542 C538 1.356 . S
C542 C539 1.358 . S
C542 H598 0.930 . S
C543 N540 1.314 . S
C543 C541 1.353 . S
C543 H599 0.930 . S
C544 N545 1.314 . S
C544 C549 1.353 . S
C544 H550 0.930 . S
N545 Li528 1.990 . S
N545 C544 1.314 . S
N545 C547 1.279 . S
C546 C547 1.358 . S
C546 C548 1.356 . S
C546 H600 0.930 . S
C547 N545 1.279 . S
C547 C546 1.358 . S
C547 H551 0.930 . S
C548 C546 1.356 . S
C548 C549 1.348 . S
C549 C544 1.353 . S
C549 C548 1.348 . S
C549 H601 0.929 . S
H550 C544 0.930 . S
H551 C547 0.930 . S
C552 N553 1.314 . S
C552 C554 1.353 . S
C552 H558 0.930 . S
N553 Li529 1.990 . S
N553 C552 1.314 . S
N553 C556 1.279 . S
C554 C552 1.353 . S
C554 C557 1.348 . S
C554 H602 0.929 . S
C555 C556 1.358 . S
C555 C557 1.356 . S
C555 H603 0.930 . S
C556 N553 1.279 . S
C556 C555 1.358 . S
C556 H559 0.930 . S
C557 C554 1.348 . S
C557 C555 1.356 . S
H558 C552 0.930 . S
H559 C556 0.930 . S
C560 C562 1.348 . S
C560 C563 1.356 . S
C560 O590 1.325 . S
N561 C564 1.314 . S
N561 C565 1.279 . S
C562 C560 1.348 . S
C562 C564 1.353 . S
C562 H604 0.929 . S
C563 C560 1.356 . S
C563 C565 1.358 . S
C563 H605 0.930 . S
C564 N561 1.314 . S
C564 C562 1.353 . S
C564 H606 0.930 . S
C565 N561 1.279 . S
C565 C563 1.358 . S
C565 H607 0.930 . S
C566 C567 1.348 . S
C566 C568 1.356 . S
C566 O591 1.325 . S
C567 C566 1.348 . S
C567 C569 1.353 . S
C567 H608 0.929 . S
C568 C566 1.356 . S
C568 C570 1.358 . S
C568 H609 0.930 . S
C569 C567 1.353 . S
C569 N571 1.314 . S
C569 H610 0.930 . S
C570 C568 1.358 . S
C570 N571 1.279 . S
C570 H611 0.930 . S
N571 C569 1.314 . S
N571 C570 1.279 . S
C572 C574 1.353 . S
C572 N575 1.314 . S
C572 H578 0.930 . S
C573 N575 1.279 . S
C573 C576 1.358 . S
C573 H579 0.930 . S
C574 C572 1.353 . S
C574 C577 1.348 . S
C574 H612 0.929 . S
N575 Li530 1.990 . S
N575 C572 1.314 . S
N575 C573 1.279 . S
C576 C573 1.358 . S
C576 C577 1.356 . S
C576 H613 0.930 . S
C577 C574 1.348 . S
C577 C576 1.356 . S
H578 C572 0.930 . S
H579 C573 0.930 . S
C580 N581 1.314 . S
C580 C582 1.353 . S
C580 H586 0.930 . S
N581 Li531 1.990 . S
N581 C580 1.314 . S
N581 C584 1.279 . S
C582 C580 1.353 . S
C582 C585 1.348 . S
C582 H614 0.929 . S
C583 C584 1.358 . S
C583 C585 1.356 . S
C583 H615 0.930 . S
C584 N581 1.279 . S
C584 C583 1.358 . S
C584 H587 0.930 . S
C585 C582 1.348 . S
C585 C583 1.356 . S
H586 C580 0.930 . S
H587 C584 0.930 . S
O588 Li528 1.956 . S
O588 Li529 1.970 . S
O588 Li530 1.961 . S
O588 C532 1.325 . S
O589 Li528 1.970 . S
O589 Li529 1.956 . S
O589 Li531 1.961 . S
O589 C538 1.325 . S
O590 Li528 1.961 . S
O590 Li530 1.956 . S
O590 Li531 1.970 . S
O590 C560 1.325 . S
O591 Li529 1.961 . S
O591 Li530 1.970 . S
O591 Li531 1.956 . S
O591 C566 1.325 . S
H592 C534 0.929 . S
H593 C535 0.930 . S
H594 C536 0.930 . S
H595 C537 0.930 . S
H596 C539 0.930 . S
H597 C541 0.929 . S
H598 C542 0.930 . S
H599 C543 0.930 . S
H600 C546 0.930 . S
H601 C549 0.929 . S
H602 C554 0.929 . S
H603 C555 0.930 . S
H604 C562 0.929 . S
H605 C563 0.930 . S
H606 C564 0.930 . S
H607 C565 0.930 . S
H608 C567 0.929 . S
H609 C568 0.930 . S
H610 C569 0.930 . S
H611 C570 0.930 . S
H612 C574 0.929 . S
H613 C576 0.930 . S
H614 C582 0.929 . S
H615 C583 0.930 . S
Li616 N633 1.990 . S
Li616 O676 1.956 1_455 S
Li616 O677 1.970 . S
Li616 O678 1.961 . S
Li617 N641 1.990 . S
Li617 O676 1.970 . S
Li617 O677 1.956 1_655 S
Li617 O679 1.961 1_655 S
Li618 N663 1.990 . S
Li618 O676 1.961 1_455 S
Li618 O678 1.956 . S
Li618 O679 1.970 . S
Li619 N669 1.990 . S
Li619 O677 1.961 . S
Li619 O678 1.970 . S
Li619 O679 1.956 . S
C620 C622 1.348 . S
C620 C623 1.356 . S
C620 O676 1.325 . S
N621 C624 1.314 . S
N621 C625 1.279 . S
C622 C620 1.348 . S
C622 C624 1.353 . S
C622 H680 0.929 . S
C623 C620 1.356 . S
C623 C625 1.358 . S
C623 H681 0.930 . S
C624 N621 1.314 . S
C624 C622 1.353 . S
C624 H682 0.930 . S
C625 N621 1.279 . S
C625 C623 1.358 . S
C625 H683 0.930 . S
C626 C629 1.348 . S
C626 C630 1.356 . S
C626 O677 1.325 . S
C627 N628 1.279 . S
C627 C630 1.358 . S
C627 H684 0.930 . S
N628 C627 1.279 . S
N628 C631 1.314 . S
C629 C626 1.348 . S
C629 C631 1.353 . S
C629 H685 0.929 . S
C630 C626 1.356 . S
C630 C627 1.358 . S
C630 H686 0.930 . S
C631 N628 1.314 . S
C631 C629 1.353 . S
C631 H687 0.930 . S
C632 N633 1.314 . S
C632 C637 1.353 . S
C632 H638 0.930 . S
N633 Li616 1.990 . S
N633 C632 1.314 . S
N633 C635 1.279 . S
C634 C635 1.358 . S
C634 C636 1.356 . S
C634 H688 0.930 . S
C635 N633 1.279 . S
C635 C634 1.358 . S
C635 H639 0.930 1_455 S
C636 C634 1.356 . S
C636 C637 1.348 . S
C637 C632 1.353 . S
C637 C636 1.348 . S
C637 H689 0.929 . S
H638 C632 0.930 . S
H639 C635 0.930 1_655 S
C640 N641 1.314 . S
C640 C642 1.353 . S
C640 H646 0.930 . S
N641 Li617 1.990 . S
N641 C640 1.314 . S
N641 C644 1.279 . S
C642 C640 1.353 . S
C642 C645 1.348 . S
C642 H690 0.929 . S
C643 C644 1.358 . S
C643 C645 1.356 . S
C643 H691 0.930 . S
C644 N641 1.279 . S
C644 C643 1.358 . S
C644 H647 0.930 . S
C645 C642 1.348 . S
C645 C643 1.356 . S
H646 C640 0.930 . S
H647 C644 0.930 . S
C648 C650 1.348 . S
C648 C651 1.356 . S
C648 O678 1.325 . S
N649 C652 1.314 . S
N649 C653 1.279 . S
C650 C648 1.348 . S
C650 C652 1.353 . S
C650 H692 0.929 . S
C651 C648 1.356 . S
C651 C653 1.358 . S
C651 H693 0.930 . S
C652 N649 1.314 . S
C652 C650 1.353 . S
C652 H694 0.930 . S
C653 N649 1.279 . S
C653 C651 1.358 . S
C653 H695 0.930 . S
C654 C655 1.348 . S
C654 C656 1.356 . S
C654 O679 1.325 . S
C655 C654 1.348 . S
C655 C657 1.353 . S
C655 H696 0.929 . S
C656 C654 1.356 . S
C656 C658 1.358 . S
C656 H697 0.930 . S
C657 C655 1.353 . S
C657 N659 1.314 . S
C657 H698 0.930 . S
C658 C656 1.358 . S
C658 N659 1.279 . S
C658 H699 0.930 1_455 S
N659 C657 1.314 . S
N659 C658 1.279 . S
C660 C662 1.353 1_455 S
C660 N663 1.338 . S
C660 H666 0.904 1_455 S
C661 N663 1.279 . S
C661 C664 1.358 . S
C661 H667 0.930 . S
C662 C660 1.353 1_655 S
C662 C665 1.348 1_655 S
C662 H700 0.929 . S
N663 Li618 1.990 . S
N663 C660 1.338 . S
N663 C661 1.279 . S
C664 C661 1.358 . S
C664 C665 1.356 . S
C664 H701 0.930 . S
C665 C662 1.348 1_455 S
C665 C664 1.356 . S
H666 C660 0.904 1_655 S
H667 C661 0.930 . S
C668 N669 1.314 . S
C668 C670 1.353 . S
C668 H674 0.930 . S
N669 Li619 1.990 . S
N669 C668 1.314 . S
N669 C672 1.279 . S
C670 C668 1.353 . S
C670 C673 1.348 . S
C670 H702 0.929 . S
C671 C672 1.358 . S
C671 C673 1.356 . S
C671 H703 0.930 . S
C672 N669 1.279 . S
C672 C671 1.358 . S
C672 H675 0.930 . S
C673 C670 1.348 . S
C673 C671 1.356 . S
H674 C668 0.930 . S
H675 C672 0.930 . S
O676 Li616 1.956 1_655 S
O676 Li617 1.970 . S
O676 Li618 1.961 1_655 S
O676 C620 1.325 . S
O677 Li616 1.970 . S
O677 Li617 1.956 1_455 S
O677 Li619 1.961 . S
O677 C626 1.325 . S
O678 Li616 1.961 . S
O678 Li618 1.956 . S
O678 Li619 1.970 . S
O678 C648 1.325 . S
O679 Li617 1.961 1_455 S
O679 Li618 1.970 . S
O679 Li619 1.956 . S
O679 C654 1.325 . S
H680 C622 0.929 . S
H681 C623 0.930 . S
H682 C624 0.930 . S
H683 C625 0.930 . S
H684 C627 0.930 . S
H685 C629 0.929 . S
H686 C630 0.930 . S
H687 C631 0.930 . S
H688 C634 0.930 . S
H689 C637 0.929 . S
H690 C642 0.929 . S
H691 C643 0.930 . S
H692 C650 0.929 . S
H693 C651 0.930 . S
H694 C652 0.930 . S
H695 C653 0.930 . S
H696 C655 0.929 . S
H697 C656 0.930 . S
H698 C657 0.930 . S
H699 C658 0.930 1_655 S
H700 C662 0.929 . S
H701 C664 0.930 . S
H702 C670 0.929 . S
H703 C671 0.930 . S
Li704 N721 1.990 . S
Li704 O764 1.956 1_545 S
Li704 O765 1.970 . S
Li704 O766 1.961 . S
Li705 N729 1.990 . S
Li705 O764 1.970 . S
Li705 O765 1.956 1_565 S
Li705 O767 1.961 1_565 S
Li706 N751 1.990 . S
Li706 O764 1.961 1_545 S
Li706 O766 1.956 . S
Li706 O767 1.970 . S
Li707 N757 1.990 . S
Li707 O765 1.961 . S
Li707 O766 1.970 . S
Li707 O767 1.956 . S
C708 C710 1.348 . S
C708 C711 1.356 . S
C708 O764 1.325 . S
N709 C712 1.314 . S
N709 C713 1.279 . S
C710 C708 1.348 . S
C710 C712 1.353 . S
C710 H768 0.929 . S
C711 C708 1.356 . S
C711 C713 1.358 . S
C711 H769 0.932 1_565 S
C712 N709 1.314 . S
C712 C710 1.353 . S
C712 H770 0.930 . S
C713 N709 1.279 . S
C713 C711 1.358 . S
C713 H771 0.930 . S
C714 C717 1.348 . S
C714 C718 1.356 . S
C714 O765 1.325 . S
C715 N716 1.279 . S
C715 C718 1.358 . S
C715 H772 0.930 . S
N716 C715 1.279 . S
N716 C719 1.314 . S
C717 C714 1.348 . S
C717 C719 1.353 . S
C717 H773 0.929 . S
C718 C714 1.356 . S
C718 C715 1.358 . S
C718 H774 0.930 . S
C719 N716 1.314 . S
C719 C717 1.353 . S
C719 H775 0.930 . S
C720 N721 1.314 . S
C720 C725 1.353 . S
C720 H726 0.930 . S
N721 Li704 1.990 . S
N721 C720 1.314 . S
N721 C723 1.279 . S
C722 C723 1.358 . S
C722 C724 1.356 . S
C722 H776 0.930 . S
C723 N721 1.279 . S
C723 C722 1.358 . S
C723 H727 0.930 1_545 S
C724 C722 1.356 . S
C724 C725 1.348 . S
C725 C720 1.353 . S
C725 C724 1.348 . S
C725 H777 0.929 . S
H726 C720 0.930 . S
H727 C723 0.930 1_565 S
C728 N729 1.314 . S
C728 C730 1.353 . S
C728 H734 0.930 . S
N729 Li705 1.990 . S
N729 C728 1.314 . S
N729 C732 1.279 . S
C730 C728 1.353 . S
C730 C733 1.348 . S
C730 H778 0.929 . S
C731 C732 1.358 . S
C731 C733 1.356 . S
C731 H779 0.930 . S
C732 N729 1.279 . S
C732 C731 1.358 . S
C732 H735 0.930 . S
C733 C730 1.348 . S
C733 C731 1.356 . S
H734 C728 0.930 . S
H735 C732 0.930 . S
C736 C738 1.348 . S
C736 C739 1.356 . S
C736 O766 1.325 . S
N737 C740 1.314 . S
N737 C741 1.279 . S
C738 C736 1.348 . S
C738 C740 1.353 . S
C738 H780 0.929 . S
C739 C736 1.356 . S
C739 C741 1.358 . S
C739 H781 0.930 . S
C740 N737 1.314 . S
C740 C738 1.353 . S
C740 H782 0.930 . S
C741 N737 1.279 . S
C741 C739 1.358 . S
C741 H783 0.930 . S
C742 C743 1.348 . S
C742 C744 1.356 . S
C742 O767 1.325 . S
C743 C742 1.348 . S
C743 C745 1.353 . S
C743 H784 0.929 . S
C744 C742 1.356 . S
C744 C746 1.358 . S
C744 H785 0.930 . S
C745 C743 1.353 . S
C745 N747 1.314 . S
C745 H786 0.930 . S
C746 C744 1.358 . S
C746 N747 1.279 . S
C746 H787 0.932 1_545 S
N747 C745 1.314 . S
N747 C746 1.279 . S
C748 C750 1.353 . S
C748 N751 1.314 . S
C748 H754 0.930 1_545 S
C749 N751 1.279 . S
C749 C752 1.358 . S
C749 H755 0.930 . S
C750 C748 1.353 . S
C750 C753 1.348 . S
C750 H788 0.929 1_545 S
N751 Li706 1.990 . S
N751 C748 1.314 . S
N751 C749 1.279 . S
C752 C749 1.358 . S
C752 C753 1.356 . S
C752 H789 0.930 . S
C753 C750 1.348 . S
C753 C752 1.356 . S
H754 C748 0.930 1_565 S
H755 C749 0.930 . S
C756 N757 1.314 . S
C756 C758 1.353 . S
C756 H762 0.930 . S
N757 Li707 1.990 . S
N757 C756 1.314 . S
N757 C760 1.279 . S
C758 C756 1.353 . S
C758 C761 1.348 . S
C758 H790 0.929 . S
C759 C760 1.358 . S
C759 C761 1.356 . S
C759 H791 0.930 . S
C760 N757 1.279 . S
C760 C759 1.358 . S
C760 H763 0.930 . S
C761 C758 1.348 . S
C761 C759 1.356 . S
H762 C756 0.930 . S
H763 C760 0.930 . S
O764 Li704 1.956 1_565 S
O764 Li705 1.970 . S
O764 Li706 1.961 1_565 S
O764 C708 1.325 . S
O765 Li704 1.970 . S
O765 Li705 1.956 1_545 S
O765 Li707 1.961 . S
O765 C714 1.325 . S
O766 Li704 1.961 . S
O766 Li706 1.956 . S
O766 Li707 1.970 . S
O766 C736 1.325 . S
O767 Li705 1.961 1_545 S
O767 Li706 1.970 . S
O767 Li707 1.956 . S
O767 C742 1.325 . S
H768 C710 0.929 . S
H769 C711 0.932 1_545 S
H770 C712 0.930 . S
H771 C713 0.930 . S
H772 C715 0.930 . S
H773 C717 0.929 . S
H774 C718 0.930 . S
H775 C719 0.930 . S
H776 C722 0.930 . S
H777 C725 0.929 . S
H778 C730 0.929 . S
H779 C731 0.930 . S
H780 C738 0.929 . S
H781 C739 0.930 . S
H782 C740 0.930 . S
H783 C741 0.930 . S
H784 C743 0.929 . S
H785 C744 0.930 . S
H786 C745 0.930 . S
H787 C746 0.932 1_565 S
H788 C750 0.929 1_565 S
H789 C752 0.930 . S
H790 C758 0.929 . S
H791 C759 0.930 . S
Li792 N809 1.990 . S
Li792 O852 1.956 . S
Li792 O853 1.970 . S
Li792 O854 1.961 . S
Li793 N817 1.990 . S
Li793 O852 1.970 . S
Li793 O853 1.956 . S
Li793 O855 1.961 . S
Li794 N839 1.990 . S
Li794 O852 1.961 . S
Li794 O854 1.956 . S
Li794 O855 1.970 . S
Li795 N845 1.990 . S
Li795 O853 1.961 . S
Li795 O854 1.970 . S
Li795 O855 1.956 . S
C796 C798 1.348 . S
C796 C799 1.356 . S
C796 O852 1.325 . S
N797 C800 1.314 . S
N797 C801 1.279 . S
C798 C796 1.348 . S
C798 C800 1.353 . S
C798 H856 0.929 . S
C799 C796 1.356 . S
C799 C801 1.358 . S
C799 H857 0.930 . S
C800 N797 1.314 . S
C800 C798 1.353 . S
C800 H858 0.930 . S
C801 N797 1.279 . S
C801 C799 1.358 . S
C801 H859 0.930 . S
C802 C805 1.348 . S
C802 C806 1.356 . S
C802 O853 1.325 . S
C803 N804 1.279 . S
C803 C806 1.358 . S
C803 H860 0.930 . S
N804 C803 1.279 . S
N804 C807 1.314 . S
C805 C802 1.348 . S
C805 C807 1.353 . S
C805 H861 0.929 . S
C806 C802 1.356 . S
C806 C803 1.358 . S
C806 H862 0.930 . S
C807 N804 1.314 . S
C807 C805 1.353 . S
C807 H863 0.930 . S
C808 N809 1.314 . S
C808 C813 1.353 . S
C808 H814 0.930 . S
N809 Li792 1.990 . S
N809 C808 1.314 . S
N809 C811 1.279 . S
C810 C811 1.358 . S
C810 C812 1.356 . S
C810 H864 0.930 . S
C811 N809 1.279 . S
C811 C810 1.358 . S
C811 H815 0.930 . S
C812 C810 1.356 . S
C812 C813 1.348 . S
C813 C808 1.353 . S
C813 C812 1.348 . S
C813 H865 0.929 . S
H814 C808 0.930 . S
H815 C811 0.930 . S
C816 N817 1.314 . S
C816 C818 1.353 . S
C816 H822 0.930 . S
N817 Li793 1.990 . S
N817 C816 1.314 . S
N817 C820 1.279 . S
C818 C816 1.353 . S
C818 C821 1.348 . S
C818 H866 0.929 . S
C819 C820 1.358 . S
C819 C821 1.356 . S
C819 H867 0.930 . S
C820 N817 1.279 . S
C820 C819 1.358 . S
C820 H823 0.930 . S
C821 C818 1.348 . S
C821 C819 1.356 . S
H822 C816 0.930 . S
H823 C820 0.930 . S
C824 C826 1.348 . S
C824 C827 1.356 . S
C824 O854 1.325 . S
N825 C828 1.314 . S
N825 C829 1.279 . S
C826 C824 1.348 . S
C826 C828 1.353 . S
C826 H868 0.929 . S
C827 C824 1.356 . S
C827 C829 1.358 . S
C827 H869 0.930 . S
C828 N825 1.314 . S
C828 C826 1.353 . S
C828 H870 0.930 . S
C829 N825 1.279 . S
C829 C827 1.358 . S
C829 H871 0.930 . S
C830 C831 1.348 . S
C830 C832 1.356 . S
C830 O855 1.325 . S
C831 C830 1.348 . S
C831 C833 1.353 . S
C831 H872 0.929 . S
C832 C830 1.356 . S
C832 C834 1.358 . S
C832 H873 0.930 . S
C833 C831 1.353 . S
C833 N835 1.314 . S
C833 H874 0.930 . S
C834 C832 1.358 . S
C834 N835 1.279 . S
C834 H875 0.930 . S
N835 C833 1.314 . S
N835 C834 1.279 . S
C836 C838 1.353 . S
C836 N839 1.314 . S
C836 H842 0.930 . S
C837 N839 1.279 . S
C837 C840 1.358 . S
C837 H843 0.930 . S
C838 C836 1.353 . S
C838 C841 1.348 . S
C838 H876 0.929 . S
N839 Li794 1.990 . S
N839 C836 1.314 . S
N839 C837 1.279 . S
C840 C837 1.358 . S
C840 C841 1.356 . S
C840 H877 0.930 . S
C841 C838 1.348 . S
C841 C840 1.356 . S
H842 C836 0.930 . S
H843 C837 0.930 . S
C844 N845 1.314 . S
C844 C846 1.353 . S
C844 H850 0.930 . S
N845 Li795 1.990 . S
N845 C844 1.314 . S
N845 C848 1.279 . S
C846 C844 1.353 . S
C846 C849 1.348 . S
C846 H878 0.929 . S
C847 C848 1.358 . S
C847 C849 1.356 . S
C847 H879 0.930 . S
C848 N845 1.279 . S
C848 C847 1.358 . S
C848 H851 0.930 . S
C849 C846 1.348 . S
C849 C847 1.356 . S
H850 C844 0.930 . S
H851 C848 0.930 . S
O852 Li792 1.956 . S
O852 Li793 1.970 . S
O852 Li794 1.961 . S
O852 C796 1.325 . S
O853 Li792 1.970 . S
O853 Li793 1.956 . S
O853 Li795 1.961 . S
O853 C802 1.325 . S
O854 Li792 1.961 . S
O854 Li794 1.956 . S
O854 Li795 1.970 . S
O854 C824 1.325 . S
O855 Li793 1.961 . S
O855 Li794 1.970 . S
O855 Li795 1.956 . S
O855 C830 1.325 . S
H856 C798 0.929 . S
H857 C799 0.930 . S
H858 C800 0.930 . S
H859 C801 0.930 . S
H860 C803 0.930 . S
H861 C805 0.929 . S
H862 C806 0.930 . S
H863 C807 0.930 . S
H864 C810 0.930 . S
H865 C813 0.929 . S
H866 C818 0.929 . S
H867 C819 0.930 . S
H868 C826 0.929 . S
H869 C827 0.930 . S
H870 C828 0.930 . S
H871 C829 0.930 . S
H872 C831 0.929 . S
H873 C832 0.930 . S
H874 C833 0.930 . S
H875 C834 0.930 . S
H876 C838 0.929 . S
H877 C840 0.930 . S
H878 C846 0.929 . S
H879 C847 0.930 . S
Li880 N897 1.990 . S
Li880 O940 1.956 . S
Li880 O941 1.970 . S
Li880 O942 1.961 . S
Li881 N905 1.990 . S
Li881 O940 1.970 . S
Li881 O941 1.956 . S
Li881 O943 1.961 1_545 S
Li882 N927 1.990 1_545 S
Li882 O940 1.961 . S
Li882 O942 1.956 . S
Li882 O943 1.970 1_545 S
Li883 N933 1.990 . S
Li883 O941 1.961 . S
Li883 O942 1.970 . S
Li883 O943 1.956 1_545 S
C884 C886 1.348 . S
C884 C887 1.356 . S
C884 O940 1.325 . S
N885 C888 1.314 . S
N885 C889 1.279 . S
C886 C884 1.348 . S
C886 C888 1.353 . S
C886 H944 0.929 . S
C887 C884 1.356 . S
C887 C889 1.358 . S
C887 H945 0.930 . S
C888 N885 1.314 . S
C888 C886 1.353 . S
C888 H946 0.930 . S
C889 N885 1.279 . S
C889 C887 1.358 . S
C889 H947 0.930 . S
C890 C893 1.348 . S
C890 C894 1.356 . S
C890 O941 1.325 . S
C891 N892 1.279 . S
C891 C894 1.358 . S
C891 H948 0.930 . S
N892 C891 1.279 . S
N892 C895 1.314 . S
C893 C890 1.348 . S
C893 C895 1.353 . S
C893 H949 0.929 . S
C894 C890 1.356 . S
C894 C891 1.358 . S
C894 H950 0.930 . S
C895 N892 1.314 . S
C895 C893 1.353 . S
C895 H951 0.930 . S
C896 N897 1.314 . S
C896 C901 1.353 . S
C896 H902 0.930 . S
N897 Li880 1.990 . S
N897 C896 1.314 . S
N897 C899 1.279 . S
C898 C899 1.358 . S
C898 C900 1.356 . S
C898 H952 0.930 . S
C899 N897 1.279 . S
C899 C898 1.358 . S
C899 H903 0.930 . S
C900 C898 1.356 . S
C900 C901 1.348 . S
C901 C896 1.353 . S
C901 C900 1.348 . S
C901 H953 0.929 . S
H902 C896 0.930 . S
H903 C899 0.930 . S
C904 N905 1.314 . S
C904 C906 1.353 . S
C904 H910 0.930 1_545 S
N905 Li881 1.990 . S
N905 C904 1.314 . S
N905 C908 1.279 . S
C906 C904 1.353 . S
C906 C909 1.348 . S
C906 H954 0.929 1_545 S
C907 C908 1.358 . S
C907 C909 1.356 . S
C907 H955 0.930 . S
C908 N905 1.279 . S
C908 C907 1.358 . S
C908 H911 0.930 . S
C909 C906 1.348 . S
C909 C907 1.356 . S
H910 C904 0.930 1_565 S
H911 C908 0.930 . S
C912 C914 1.348 . S
C912 C915 1.356 . S
C912 O942 1.325 . S
N913 C916 1.314 . S
N913 C917 1.279 . S
C914 C912 1.348 . S
C914 C916 1.353 . S
C914 H956 0.929 . S
C915 C912 1.356 . S
C915 C917 1.358 . S
C915 H957 0.930 . S
C916 N913 1.314 . S
C916 C914 1.353 . S
C916 H958 0.930 . S
C917 N913 1.279 . S
C917 C915 1.358 . S
C917 H959 0.930 . S
C918 C919 1.348 . S
C918 C920 1.356 . S
C918 O943 1.325 . S
C919 C918 1.348 . S
C919 C921 1.353 . S
C919 H960 0.929 . S
C920 C918 1.356 . S
C920 C922 1.358 . S
C920 H961 0.930 . S
C921 C919 1.353 . S
C921 N923 1.314 . S
C921 H962 0.930 . S
C922 C920 1.358 . S
C922 N923 1.279 . S
C922 H963 0.930 . S
N923 C921 1.314 . S
N923 C922 1.279 . S
C924 C926 1.353 . S
C924 N927 1.314 . S
C924 H930 0.930 . S
C925 N927 1.279 . S
C925 C928 1.358 . S
C925 H931 0.930 . S
C926 C924 1.353 . S
C926 C929 1.348 . S
C926 H964 0.929 . S
N927 Li882 1.990 1_565 S
N927 C924 1.314 . S
N927 C925 1.279 . S
C928 C925 1.358 . S
C928 C929 1.356 . S
C928 H965 0.930 . S
C929 C926 1.348 . S
C929 C928 1.356 . S
H930 C924 0.930 . S
H931 C925 0.930 . S
C932 N933 1.314 . S
C932 C934 1.353 . S
C932 H938 0.930 . S
N933 Li883 1.990 . S
N933 C932 1.314 . S
N933 C936 1.279 1_545 S
C934 C932 1.353 . S
C934 C937 1.348 . S
C934 H966 0.929 . S
C935 C936 1.358 . S
C935 C937 1.356 1_565 S
C935 H967 0.930 . S
C936 N933 1.279 1_565 S
C936 C935 1.358 . S
C936 H939 0.930 . S
C937 C934 1.348 . S
C937 C935 1.356 1_545 S
H938 C932 0.930 . S
H939 C936 0.930 . S
O940 Li880 1.956 . S
O940 Li881 1.970 . S
O940 Li882 1.961 . S
O940 C884 1.325 . S
O941 Li880 1.970 . S
O941 Li881 1.956 . S
O941 Li883 1.961 . S
O941 C890 1.325 . S
O942 Li880 1.961 . S
O942 Li882 1.956 . S
O942 Li883 1.970 . S
O942 C912 1.325 . S
O943 Li881 1.961 1_565 S
O943 Li882 1.970 1_565 S
O943 Li883 1.956 1_565 S
O943 C918 1.325 . S
H944 C886 0.929 . S
H945 C887 0.930 . S
H946 C888 0.930 . S
H947 C889 0.930 . S
H948 C891 0.930 . S
H949 C893 0.929 . S
H950 C894 0.930 . S
H951 C895 0.930 . S
H952 C898 0.930 . S
H953 C901 0.929 . S
H954 C906 0.929 1_565 S
H955 C907 0.930 . S
H956 C914 0.929 . S
H957 C915 0.930 . S
H958 C916 0.930 . S
H959 C917 0.930 . S
H960 C919 0.929 . S
H961 C920 0.930 . S
H962 C921 0.930 . S
H963 C922 0.930 . S
H964 C926 0.929 . S
H965 C928 0.930 . S
H966 C934 0.929 . S
H967 C935 0.930 . S
Li968 N985 1.990 . S
Li968 O1028 1.974 . S
Li968 O1029 1.971 1_554 S
Li968 O1030 1.939 1_554 S
Li969 N993 1.990 . S
Li969 O1028 1.970 . S
Li969 O1029 1.956 1_554 S
Li969 O1031 2.004 . S
Li970 N1015 1.990 . S
Li970 O1028 1.961 . S
Li970 O1030 1.956 1_554 S
Li970 O1031 1.966 . S
Li971 N1021 1.990 . S
Li971 O1029 1.961 . S
Li971 O1030 1.970 . S
Li971 O1031 1.918 1_556 S
C972 C974 1.348 . S
C972 C975 1.356 . S
C972 O1028 1.325 . S
N973 C976 1.314 . S
N973 C977 1.279 . S
C974 C972 1.348 . S
C974 C976 1.353 . S
C974 H1032 0.929 . S
C975 C972 1.356 . S
C975 C977 1.358 . S
C975 H1033 0.930 . S
C976 N973 1.314 . S
C976 C974 1.353 . S
C976 H1034 0.930 . S
C977 N973 1.279 . S
C977 C975 1.358 . S
C977 H1035 0.930 . S
C978 C981 1.349 . S
C978 C982 1.356 . S
C978 O1029 1.325 . S
C979 N980 1.279 . S
C979 C982 1.358 . S
C979 H1036 0.930 . S
N980 C979 1.279 . S
N980 C983 1.314 . S
C981 C978 1.349 . S
C981 C983 1.353 . S
C981 H1037 0.928 1_556 S
C982 C978 1.356 . S
C982 C979 1.358 . S
C982 H1038 0.930 . S
C983 N980 1.314 . S
C983 C981 1.353 . S
C983 H1039 0.924 1_556 S
C984 N985 1.283 1_556 S
C984 C989 1.353 . S
C984 H990 0.930 . S
N985 Li968 1.990 . S
N985 C984 1.283 1_554 S
N985 C987 1.312 . S
C986 C987 1.358 . S
C986 C988 1.322 1_554 S
C986 H1040 0.930 . S
C987 N985 1.312 . S
C987 C986 1.358 . S
C987 H991 0.930 . S
C988 C986 1.322 1_556 S
C988 C989 1.385 . S
C989 C984 1.353 . S
C989 C988 1.385 . S
C989 H1041 0.929 . S
H990 C984 0.930 . S
H991 C987 0.930 . S
C992 N993 1.314 . S
C992 C994 1.353 . S
C992 H998 0.930 . S
N993 Li969 1.990 . S
N993 C992 1.314 . S
N993 C996 1.279 . S
C994 C992 1.353 . S
C994 C997 1.348 . S
C994 H1042 0.929 . S
C995 C996 1.358 . S
C995 C997 1.356 . S
C995 H1043 0.930 . S
C996 N993 1.279 . S
C996 C995 1.358 . S
C996 H999 0.930 . S
C997 C994 1.348 . S
C997 C995 1.356 . S
H998 C992 0.930 . S
H999 C996 0.930 . S
C1000 C1002 1.348 . S
C1000 C1003 1.356 . S
C1000 O1030 1.325 . S
N1001 C1004 1.314 . S
N1001 C1005 1.279 . S
C1002 C1000 1.348 . S
C1002 C1004 1.353 . S
C1002 H1044 0.929 . S
C1003 C1000 1.356 . S
C1003 C1005 1.358 . S
C1003 H1045 0.930 . S
C1004 N1001 1.314 . S
C1004 C1002 1.353 . S
C1004 H1046 0.930 . S
C1005 N1001 1.279 . S
C1005 C1003 1.358 . S
C1005 H1047 0.930 . S
C1006 C1007 1.335 1_554 S
C1006 C1008 1.364 . S
C1006 O1031 1.324 . S
C1007 C1006 1.335 1_556 S
C1007 C1009 1.353 . S
C1007 H1048 0.929 . S
C1008 C1006 1.364 . S
C1008 C1010 1.358 . S
C1008 H1049 0.930 . S
C1009 C1007 1.353 . S
C1009 N1011 1.325 . S
C1009 H1050 0.930 . S
C1010 C1008 1.358 . S
C1010 N1011 1.267 1_554 S
C1010 H1051 0.930 . S
N1011 C1009 1.325 . S
N1011 C1010 1.267 1_556 S
C1012 C1014 1.353 . S
C1012 N1015 1.314 . S
C1012 H1018 0.930 . S
C1013 N1015 1.279 1_556 S
C1013 C1016 1.358 . S
C1013 H1019 0.930 . S
C1014 C1012 1.353 . S
C1014 C1017 1.348 . S
C1014 H1052 0.929 . S
N1015 Li970 1.990 . S
N1015 C1012 1.314 . S
N1015 C1013 1.279 1_554 S
C1016 C1013 1.358 . S
C1016 C1017 1.356 1_556 S
C1016 H1053 0.930 . S
C1017 C1014 1.348 . S
C1017 C1016 1.356 1_554 S
H1018 C1012 0.930 . S
H1019 C1013 0.930 . S
C1020 N1021 1.314 . S
C1020 C1022 1.353 . S
C1020 H1026 0.930 . S
N1021 Li971 1.990 . S
N1021 C1020 1.314 . S
N1021 C1024 1.279 . S
C1022 C1020 1.353 . S
C1022 C1025 1.348 . S
C1022 H1054 0.929 . S
C1023 C1024 1.358 . S
C1023 C1025 1.356 . S
C1023 H1055 0.930 . S
C1024 N1021 1.279 . S
C1024 C1023 1.358 . S
C1024 H1027 0.930 . S
C1025 C1022 1.348 . S
C1025 C1023 1.356 . S
H1026 C1020 0.930 . S
H1027 C1024 0.930 . S
O1028 Li968 1.974 . S
O1028 Li969 1.970 . S
O1028 Li970 1.961 . S
O1028 C972 1.325 . S
O1029 Li968 1.971 1_556 S
O1029 Li969 1.956 1_556 S
O1029 Li971 1.961 . S
O1029 C978 1.325 . S
O1030 Li968 1.939 1_556 S
O1030 Li970 1.956 1_556 S
O1030 Li971 1.970 . S
O1030 C1000 1.325 . S
O1031 Li969 2.004 . S
O1031 Li970 1.966 . S
O1031 Li971 1.918 1_554 S
O1031 C1006 1.324 . S
H1032 C974 0.929 . S
H1033 C975 0.930 . S
H1034 C976 0.930 . S
H1035 C977 0.930 . S
H1036 C979 0.930 . S
H1037 C981 0.928 1_554 S
H1038 C982 0.930 . S
H1039 C983 0.924 1_554 S
H1040 C986 0.930 . S
H1041 C989 0.929 . S
H1042 C994 0.929 . S
H1043 C995 0.930 . S
H1044 C1002 0.929 . S
H1045 C1003 0.930 . S
H1046 C1004 0.930 . S
H1047 C1005 0.930 . S
H1048 C1007 0.929 . S
H1049 C1008 0.930 . S
H1050 C1009 0.930 . S
H1051 C1010 0.930 . S
H1052 C1014 0.929 . S
H1053 C1016 0.930 . S
H1054 C1022 0.929 . S
H1055 C1023 0.930 . S
Li1056 N1073 1.990 . S
Li1056 O1116 1.956 . S
Li1056 O1117 1.970 . S
Li1056 O1118 1.961 1_554 S
Li1057 N1081 1.990 . S
Li1057 O1116 1.970 . S
Li1057 O1117 1.956 . S
Li1057 O1119 1.961 . S
Li1058 N1103 1.990 . S
Li1058 O1116 1.961 . S
Li1058 O1118 1.956 1_554 S
Li1058 O1119 1.970 . S
Li1059 N1109 1.990 . S
Li1059 O1117 1.961 1_556 S
Li1059 O1118 1.970 . S
Li1059 O1119 1.956 1_556 S
C1060 C1062 1.348 . S
C1060 C1063 1.356 . S
C1060 O1116 1.325 . S
N1061 C1064 1.314 . S
N1061 C1065 1.279 . S
C1062 C1060 1.348 . S
C1062 C1064 1.353 . S
C1062 H1120 0.929 . S
C1063 C1060 1.356 . S
C1063 C1065 1.358 . S
C1063 H1121 0.930 . S
C1064 N1061 1.314 . S
C1064 C1062 1.353 . S
C1064 H1122 0.930 . S
C1065 N1061 1.279 . S
C1065 C1063 1.358 . S
C1065 H1123 0.930 . S
C1066 C1069 1.348 . S
C1066 C1070 1.356 . S
C1066 O1117 1.325 . S
C1067 N1068 1.279 . S
C1067 C1070 1.358 . S
C1067 H1124 0.930 . S
N1068 C1067 1.279 . S
N1068 C1071 1.314 . S
C1069 C1066 1.348 . S
C1069 C1071 1.353 . S
C1069 H1125 0.929 . S
C1070 C1066 1.356 . S
C1070 C1067 1.358 . S
C1070 H1126 0.930 . S
C1071 N1068 1.314 . S
C1071 C1069 1.353 . S
C1071 H1127 0.930 . S
C1072 N1073 1.314 . S
C1072 C1077 1.355 . S
C1072 H1078 0.930 1_554 S
N1073 Li1056 1.990 . S
N1073 C1072 1.314 . S
N1073 C1075 1.279 . S
C1074 C1075 1.358 . S
C1074 C1076 1.356 . S
C1074 H1128 0.930 . S
C1075 N1073 1.279 . S
C1075 C1074 1.358 . S
C1075 H1079 0.930 . S
C1076 C1074 1.356 . S
C1076 C1077 1.383 . S
C1077 C1072 1.355 . S
C1077 C1076 1.383 . S
C1077 H1129 0.893 1_554 S
H1078 C1072 0.930 1_556 S
H1079 C1075 0.930 . S
C1080 N1081 1.314 . S
C1080 C1082 1.353 . S
C1080 H1086 0.930 . S
N1081 Li1057 1.990 . S
N1081 C1080 1.314 . S
N1081 C1084 1.279 . S
C1082 C1080 1.353 . S
C1082 C1085 1.348 . S
C1082 H1130 0.929 . S
C1083 C1084 1.358 . S
C1083 C1085 1.356 . S
C1083 H1131 0.930 . S
C1084 N1081 1.279 . S
C1084 C1083 1.358 . S
C1084 H1087 0.930 . S
C1085 C1082 1.348 . S
C1085 C1083 1.356 . S
H1086 C1080 0.930 . S
H1087 C1084 0.930 . S
C1088 C1090 1.348 . S
C1088 C1091 1.356 . S
C1088 O1118 1.325 . S
N1089 C1092 1.314 . S
N1089 C1093 1.279 . S
C1090 C1088 1.348 . S
C1090 C1092 1.353 . S
C1090 H1132 0.929 . S
C1091 C1088 1.356 . S
C1091 C1093 1.358 . S
C1091 H1133 0.930 . S
C1092 N1089 1.314 . S
C1092 C1090 1.353 . S
C1092 H1134 0.930 . S
C1093 N1089 1.279 . S
C1093 C1091 1.358 . S
C1093 H1135 0.930 . S
C1094 C1095 1.348 . S
C1094 C1096 1.356 . S
C1094 O1119 1.325 . S
C1095 C1094 1.348 . S
C1095 C1097 1.353 . S
C1095 H1136 0.929 . S
C1096 C1094 1.356 . S
C1096 C1098 1.358 . S
C1096 H1137 0.930 . S
C1097 C1095 1.353 . S
C1097 N1099 1.314 . S
C1097 H1138 0.930 . S
C1098 C1096 1.358 . S
C1098 N1099 1.279 . S
C1098 H1139 0.930 . S
N1099 C1097 1.314 . S
N1099 C1098 1.279 . S
C1100 C1102 1.353 . S
C1100 N1103 1.314 . S
C1100 H1106 0.930 . S
C1101 N1103 1.279 . S
C1101 C1104 1.358 . S
C1101 H1107 0.930 1_554 S
C1102 C1100 1.353 . S
C1102 C1105 1.348 . S
C1102 H1140 0.929 . S
N1103 Li1058 1.990 . S
N1103 C1100 1.314 . S
N1103 C1101 1.279 . S
C1104 C1101 1.358 . S
C1104 C1105 1.356 . S
C1104 H1141 0.985 . S
C1105 C1102 1.348 . S
C1105 C1104 1.356 . S
H1106 C1100 0.930 . S
H1107 C1101 0.930 1_556 S
C1108 N1109 1.314 . S
C1108 C1110 1.353 . S
C1108 H1114 0.930 . S
N1109 Li1059 1.990 . S
N1109 C1108 1.314 . S
N1109 C1112 1.279 . S
C1110 C1108 1.353 . S
C1110 C1113 1.348 . S
C1110 H1142 0.929 . S
C1111 C1112 1.358 . S
C1111 C1113 1.356 . S
C1111 H1143 0.930 . S
C1112 N1109 1.279 . S
C1112 C1111 1.358 . S
C1112 H1115 0.930 . S
C1113 C1110 1.348 . S
C1113 C1111 1.356 . S
H1114 C1108 0.930 . S
H1115 C1112 0.930 . S
O1116 Li1056 1.956 . S
O1116 Li1057 1.970 . S
O1116 Li1058 1.961 . S
O1116 C1060 1.325 . S
O1117 Li1056 1.970 . S
O1117 Li1057 1.956 . S
O1117 Li1059 1.961 1_554 S
O1117 C1066 1.325 . S
O1118 Li1056 1.961 1_556 S
O1118 Li1058 1.956 1_556 S
O1118 Li1059 1.970 . S
O1118 C1088 1.325 . S
O1119 Li1057 1.961 . S
O1119 Li1058 1.970 . S
O1119 Li1059 1.956 1_554 S
O1119 C1094 1.325 . S
H1120 C1062 0.929 . S
H1121 C1063 0.930 . S
H1122 C1064 0.930 . S
H1123 C1065 0.930 . S
H1124 C1067 0.930 . S
H1125 C1069 0.929 . S
H1126 C1070 0.930 . S
H1127 C1071 0.930 . S
H1128 C1074 0.930 . S
H1129 C1077 0.893 1_556 S
H1130 C1082 0.929 . S
H1131 C1083 0.930 . S
H1132 C1090 0.929 . S
H1133 C1091 0.930 . S
H1134 C1092 0.930 . S
H1135 C1093 0.930 . S
H1136 C1095 0.929 . S
H1137 C1096 0.930 . S
H1138 C1097 0.930 . S
H1139 C1098 0.930 . S
H1140 C1102 0.929 . S
H1141 C1104 0.985 . S
H1142 C1110 0.929 . S
H1143 C1111 0.930 . S
Li1144 N1161 1.990 . S
Li1144 O1204 1.956 . S
Li1144 O1205 1.970 . S
Li1144 O1206 1.961 . S
Li1145 N1169 1.990 . S
Li1145 O1204 1.970 . S
Li1145 O1205 1.956 . S
Li1145 O1207 1.961 . S
Li1146 N1191 1.990 1_554 S
Li1146 O1204 1.961 . S
Li1146 O1206 1.956 . S
Li1146 O1207 1.970 . S
Li1147 N1197 1.990 . S
Li1147 O1205 1.961 . S
Li1147 O1206 1.970 . S
Li1147 O1207 1.956 . S
C1148 C1150 1.348 . S
C1148 C1151 1.356 . S
C1148 O1204 1.325 . S
N1149 C1152 1.314 . S
N1149 C1153 1.279 . S
C1150 C1148 1.348 . S
C1150 C1152 1.353 . S
C1150 H1208 0.929 . S
C1151 C1148 1.356 . S
C1151 C1153 1.358 . S
C1151 H1209 0.930 . S
C1152 N1149 1.314 . S
C1152 C1150 1.353 . S
C1152 H1210 0.930 . S
C1153 N1149 1.279 . S
C1153 C1151 1.358 . S
C1153 H1211 0.930 . S
C1154 C1157 1.348 . S
C1154 C1158 1.356 . S
C1154 O1205 1.325 . S
C1155 N1156 1.279 . S
C1155 C1158 1.358 . S
C1155 H1212 0.930 . S
N1156 C1155 1.279 . S
N1156 C1159 1.314 . S
C1157 C1154 1.348 . S
C1157 C1159 1.353 . S
C1157 H1213 0.929 . S
C1158 C1154 1.356 . S
C1158 C1155 1.358 . S
C1158 H1214 0.930 . S
C1159 N1156 1.314 . S
C1159 C1157 1.353 . S
C1159 H1215 0.930 . S
C1160 N1161 1.314 . S
C1160 C1165 1.353 . S
C1160 H1166 0.930 . S
N1161 Li1144 1.990 . S
N1161 C1160 1.314 . S
N1161 C1163 1.279 . S
C1162 C1163 1.358 . S
C1162 C1164 1.356 . S
C1162 H1216 0.930 . S
C1163 N1161 1.279 . S
C1163 C1162 1.358 . S
C1163 H1167 0.930 . S
C1164 C1162 1.356 . S
C1164 C1165 1.348 . S
C1165 C1160 1.353 . S
C1165 C1164 1.348 . S
C1165 H1217 0.929 . S
H1166 C1160 0.930 . S
H1167 C1163 0.930 . S
C1168 N1169 1.314 . S
C1168 C1170 1.353 . S
C1168 H1174 0.930 . S
N1169 Li1145 1.990 . S
N1169 C1168 1.314 . S
N1169 C1172 1.279 . S
C1170 C1168 1.353 . S
C1170 C1173 1.348 . S
C1170 H1218 0.929 . S
C1171 C1172 1.358 . S
C1171 C1173 1.356 . S
C1171 H1219 0.930 . S
C1172 N1169 1.279 . S
C1172 C1171 1.358 . S
C1172 H1175 0.930 . S
C1173 C1170 1.348 . S
C1173 C1171 1.356 . S
H1174 C1168 0.930 . S
H1175 C1172 0.930 . S
C1176 C1178 1.348 . S
C1176 C1179 1.356 . S
C1176 O1206 1.325 . S
N1177 C1180 1.314 . S
N1177 C1181 1.279 . S
C1178 C1176 1.348 . S
C1178 C1180 1.353 . S
C1178 H1220 0.929 . S
C1179 C1176 1.356 . S
C1179 C1181 1.358 . S
C1179 H1221 0.930 . S
C1180 N1177 1.314 . S
C1180 C1178 1.353 . S
C1180 H1222 0.930 . S
C1181 N1177 1.279 . S
C1181 C1179 1.358 . S
C1181 H1223 0.930 . S
C1182 C1183 1.348 . S
C1182 C1184 1.356 . S
C1182 O1207 1.325 1_556 S
C1183 C1182 1.348 . S
C1183 C1185 1.353 . S
C1183 H1224 0.929 . S
C1184 C1182 1.356 . S
C1184 C1186 1.358 . S
C1184 H1225 0.930 1_556 S
C1185 C1183 1.353 . S
C1185 N1187 1.314 . S
C1185 H1226 0.930 . S
C1186 C1184 1.358 . S
C1186 N1187 1.279 . S
C1186 H1227 0.930 . S
N1187 C1185 1.314 . S
N1187 C1186 1.279 . S
C1188 C1190 1.353 . S
C1188 N1191 1.314 . S
C1188 H1194 0.930 . S
C1189 N1191 1.279 . S
C1189 C1192 1.358 . S
C1189 H1195 0.930 . S
C1190 C1188 1.353 . S
C1190 C1193 1.348 . S
C1190 H1228 0.929 . S
N1191 Li1146 1.990 1_556 S
N1191 C1188 1.314 . S
N1191 C1189 1.279 . S
C1192 C1189 1.358 . S
C1192 C1193 1.356 . S
C1192 H1229 0.930 . S
C1193 C1190 1.348 . S
C1193 C1192 1.356 . S
H1194 C1188 0.930 . S
H1195 C1189 0.930 . S
C1196 N1197 1.314 . S
C1196 C1198 1.353 . S
C1196 H1202 0.930 . S
N1197 Li1147 1.990 . S
N1197 C1196 1.314 . S
N1197 C1200 1.279 . S
C1198 C1196 1.353 . S
C1198 C1201 1.348 . S
C1198 H1230 0.929 . S
C1199 C1200 1.358 . S
C1199 C1201 1.356 . S
C1199 H1231 0.930 1_554 S
C1200 N1197 1.279 . S
C1200 C1199 1.358 . S
C1200 H1203 0.985 . S
C1201 C1198 1.348 . S
C1201 C1199 1.356 . S
H1202 C1196 0.930 . S
H1203 C1200 0.985 . S
O1204 Li1144 1.956 . S
O1204 Li1145 1.970 . S
O1204 Li1146 1.961 . S
O1204 C1148 1.325 . S
O1205 Li1144 1.970 . S
O1205 Li1145 1.956 . S
O1205 Li1147 1.961 . S
O1205 C1154 1.325 . S
O1206 Li1144 1.961 . S
O1206 Li1146 1.956 . S
O1206 Li1147 1.970 . S
O1206 C1176 1.325 . S
O1207 Li1145 1.961 . S
O1207 Li1146 1.970 . S
O1207 Li1147 1.956 . S
O1207 C1182 1.325 1_554 S
H1208 C1150 0.929 . S
H1209 C1151 0.930 . S
H1210 C1152 0.930 . S
H1211 C1153 0.930 . S
H1212 C1155 0.930 . S
H1213 C1157 0.929 . S
H1214 C1158 0.930 . S
H1215 C1159 0.930 . S
H1216 C1162 0.930 . S
H1217 C1165 0.929 . S
H1218 C1170 0.929 . S
H1219 C1171 0.930 . S
H1220 C1178 0.929 . S
H1221 C1179 0.930 . S
H1222 C1180 0.930 . S
H1223 C1181 0.930 . S
H1224 C1183 0.929 . S
H1225 C1184 0.930 1_554 S
H1226 C1185 0.930 . S
H1227 C1186 0.930 . S
H1228 C1190 0.929 . S
H1229 C1192 0.930 . S
H1230 C1198 0.929 . S
H1231 C1199 0.930 1_556 S
Li1232 N1249 1.990 . S
Li1232 O1292 1.956 . S
Li1232 O1293 1.970 . S
Li1232 O1294 1.961 . S
Li1233 N1257 1.990 . S
Li1233 O1292 1.970 . S
Li1233 O1293 1.956 . S
Li1233 O1295 1.961 . S
Li1234 N1279 1.990 . S
Li1234 O1292 1.961 . S
Li1234 O1294 1.956 . S
Li1234 O1295 1.970 . S
Li1235 N1285 1.990 . S
Li1235 O1293 1.961 . S
Li1235 O1294 1.970 . S
Li1235 O1295 1.956 . S
C1236 C1238 1.348 . S
C1236 C1239 1.356 . S
C1236 O1292 1.325 . S
N1237 C1240 1.314 . S
N1237 C1241 1.279 . S
C1238 C1236 1.348 . S
C1238 C1240 1.353 . S
C1238 H1296 0.929 . S
C1239 C1236 1.356 . S
C1239 C1241 1.358 . S
C1239 H1297 0.930 . S
C1240 N1237 1.314 . S
C1240 C1238 1.353 . S
C1240 H1298 0.930 . S
C1241 N1237 1.279 . S
C1241 C1239 1.358 . S
C1241 H1299 0.930 . S
C1242 C1245 1.348 . S
C1242 C1246 1.356 . S
C1242 O1293 1.325 . S
C1243 N1244 1.279 . S
C1243 C1246 1.358 . S
C1243 H1300 0.930 . S
N1244 C1243 1.279 . S
N1244 C1247 1.314 . S
C1245 C1242 1.348 . S
C1245 C1247 1.353 . S
C1245 H1301 0.929 . S
C1246 C1242 1.356 . S
C1246 C1243 1.358 . S
C1246 H1302 0.930 . S
C1247 N1244 1.314 . S
C1247 C1245 1.353 . S
C1247 H1303 0.930 . S
C1248 N1249 1.314 . S
C1248 C1253 1.353 . S
C1248 H1254 0.930 . S
N1249 Li1232 1.990 . S
N1249 C1248 1.314 . S
N1249 C1251 1.279 . S
C1250 C1251 1.358 . S
C1250 C1252 1.356 . S
C1250 H1304 0.930 . S
C1251 N1249 1.279 . S
C1251 C1250 1.358 . S
C1251 H1255 0.930 . S
C1252 C1250 1.356 . S
C1252 C1253 1.348 . S
C1253 C1248 1.353 . S
C1253 C1252 1.348 . S
C1253 H1305 0.929 . S
H1254 C1248 0.930 . S
H1255 C1251 0.930 . S
C1256 N1257 1.314 . S
C1256 C1258 1.353 . S
C1256 H1262 0.930 . S
N1257 Li1233 1.990 . S
N1257 C1256 1.314 . S
N1257 C1260 1.279 . S
C1258 C1256 1.353 . S
C1258 C1261 1.348 . S
C1258 H1306 0.929 . S
C1259 C1260 1.358 . S
C1259 C1261 1.356 . S
C1259 H1307 0.930 . S
C1260 N1257 1.279 . S
C1260 C1259 1.358 . S
C1260 H1263 0.930 . S
C1261 C1258 1.348 . S
C1261 C1259 1.356 . S
H1262 C1256 0.930 . S
H1263 C1260 0.930 . S
C1264 C1266 1.348 . S
C1264 C1267 1.356 . S
C1264 O1294 1.325 . S
N1265 C1268 1.314 . S
N1265 C1269 1.279 . S
C1266 C1264 1.348 . S
C1266 C1268 1.353 . S
C1266 H1308 0.929 . S
C1267 C1264 1.356 . S
C1267 C1269 1.358 . S
C1267 H1309 0.930 . S
C1268 N1265 1.314 . S
C1268 C1266 1.353 . S
C1268 H1310 0.930 . S
C1269 N1265 1.279 . S
C1269 C1267 1.358 . S
C1269 H1311 0.930 . S
C1270 C1271 1.348 . S
C1270 C1272 1.356 . S
C1270 O1295 1.325 . S
C1271 C1270 1.348 . S
C1271 C1273 1.353 . S
C1271 H1312 0.929 . S
C1272 C1270 1.356 . S
C1272 C1274 1.358 . S
C1272 H1313 0.930 . S
C1273 C1271 1.353 . S
C1273 N1275 1.314 . S
C1273 H1314 0.930 . S
C1274 C1272 1.358 . S
C1274 N1275 1.279 . S
C1274 H1315 0.930 . S
N1275 C1273 1.314 . S
N1275 C1274 1.279 . S
C1276 C1278 1.353 . S
C1276 N1279 1.314 . S
C1276 H1282 0.930 . S
C1277 N1279 1.279 . S
C1277 C1280 1.358 . S
C1277 H1283 0.930 . S
C1278 C1276 1.353 . S
C1278 C1281 1.348 . S
C1278 H1316 0.929 . S
N1279 Li1234 1.990 . S
N1279 C1276 1.314 . S
N1279 C1277 1.279 . S
C1280 C1277 1.358 . S
C1280 C1281 1.356 . S
C1280 H1317 0.930 . S
C1281 C1278 1.348 . S
C1281 C1280 1.356 . S
H1282 C1276 0.930 . S
H1283 C1277 0.930 . S
C1284 N1285 1.314 . S
C1284 C1286 1.353 . S
C1284 H1290 0.930 . S
N1285 Li1235 1.990 . S
N1285 C1284 1.314 . S
N1285 C1288 1.279 . S
C1286 C1284 1.353 . S
C1286 C1289 1.348 . S
C1286 H1318 0.929 . S
C1287 C1288 1.358 . S
C1287 C1289 1.356 . S
C1287 H1319 0.930 . S
C1288 N1285 1.279 . S
C1288 C1287 1.358 . S
C1288 H1291 0.930 . S
C1289 C1286 1.348 . S
C1289 C1287 1.356 . S
H1290 C1284 0.930 . S
H1291 C1288 0.930 . S
O1292 Li1232 1.956 . S
O1292 Li1233 1.970 . S
O1292 Li1234 1.961 . S
O1292 C1236 1.325 . S
O1293 Li1232 1.970 . S
O1293 Li1233 1.956 . S
O1293 Li1235 1.961 . S
O1293 C1242 1.325 . S
O1294 Li1232 1.961 . S
O1294 Li1234 1.956 . S
O1294 Li1235 1.970 . S
O1294 C1264 1.325 . S
O1295 Li1233 1.961 . S
O1295 Li1234 1.970 . S
O1295 Li1235 1.956 . S
O1295 C1270 1.325 . S
H1296 C1238 0.929 . S
H1297 C1239 0.930 . S
H1298 C1240 0.930 . S
H1299 C1241 0.930 . S
H1300 C1243 0.930 . S
H1301 C1245 0.929 . S
H1302 C1246 0.930 . S
H1303 C1247 0.930 . S
H1304 C1250 0.930 . S
H1305 C1253 0.929 . S
H1306 C1258 0.929 . S
H1307 C1259 0.930 . S
H1308 C1266 0.929 . S
H1309 C1267 0.930 . S
H1310 C1268 0.930 . S
H1311 C1269 0.930 . S
H1312 C1271 0.929 . S
H1313 C1272 0.930 . S
H1314 C1273 0.930 . S
H1315 C1274 0.930 . S
H1316 C1278 0.929 . S
H1317 C1280 0.930 . S
H1318 C1286 0.929 . S
H1319 C1287 0.930 . S
Li1320 N1337 1.990 . S
Li1320 O1380 1.956 . S
Li1320 O1381 1.970 . S
Li1320 O1382 1.961 . S
Li1321 N1345 1.990 . S
Li1321 O1380 1.970 . S
Li1321 O1381 1.956 . S
Li1321 O1383 1.961 . S
Li1322 N1367 1.990 . S
Li1322 O1380 1.961 . S
Li1322 O1382 1.956 . S
Li1322 O1383 1.970 . S
Li1323 N1373 1.990 . S
Li1323 O1381 1.961 . S
Li1323 O1382 1.970 . S
Li1323 O1383 1.956 . S
C1324 C1326 1.348 . S
C1324 C1327 1.356 . S
C1324 O1380 1.325 . S
N1325 C1328 1.314 . S
N1325 C1329 1.279 . S
C1326 C1324 1.348 . S
C1326 C1328 1.353 . S
C1326 H1384 0.929 . S
C1327 C1324 1.356 . S
C1327 C1329 1.358 . S
C1327 H1385 0.930 . S
C1328 N1325 1.314 . S
C1328 C1326 1.353 . S
C1328 H1386 0.930 . S
C1329 N1325 1.279 . S
C1329 C1327 1.358 . S
C1329 H1387 0.930 . S
C1330 C1333 1.348 . S
C1330 C1334 1.356 . S
C1330 O1381 1.325 . S
C1331 N1332 1.279 . S
C1331 C1334 1.358 . S
C1331 H1388 0.930 . S
N1332 C1331 1.279 . S
N1332 C1335 1.314 . S
C1333 C1330 1.348 . S
C1333 C1335 1.353 . S
C1333 H1389 0.929 . S
C1334 C1330 1.356 . S
C1334 C1331 1.358 . S
C1334 H1390 0.930 . S
C1335 N1332 1.314 . S
C1335 C1333 1.353 . S
C1335 H1391 0.930 . S
C1336 N1337 1.314 . S
C1336 C1341 1.353 . S
C1336 H1342 0.930 . S
N1337 Li1320 1.990 . S
N1337 C1336 1.314 . S
N1337 C1339 1.279 . S
C1338 C1339 1.358 . S
C1338 C1340 1.356 . S
C1338 H1392 0.930 . S
C1339 N1337 1.279 . S
C1339 C1338 1.358 . S
C1339 H1343 0.930 . S
C1340 C1338 1.356 . S
C1340 C1341 1.348 . S
C1341 C1336 1.353 . S
C1341 C1340 1.348 . S
C1341 H1393 0.929 . S
H1342 C1336 0.930 . S
H1343 C1339 0.930 . S
C1344 N1345 1.314 . S
C1344 C1346 1.353 . S
C1344 H1350 0.930 . S
N1345 Li1321 1.990 . S
N1345 C1344 1.314 . S
N1345 C1348 1.279 . S
C1346 C1344 1.353 . S
C1346 C1349 1.348 . S
C1346 H1394 0.929 . S
C1347 C1348 1.358 . S
C1347 C1349 1.356 . S
C1347 H1395 0.930 . S
C1348 N1345 1.279 . S
C1348 C1347 1.358 . S
C1348 H1351 0.930 . S
C1349 C1346 1.348 . S
C1349 C1347 1.356 . S
H1350 C1344 0.930 . S
H1351 C1348 0.930 . S
C1352 C1354 1.348 . S
C1352 C1355 1.356 . S
C1352 O1382 1.325 . S
N1353 C1356 1.314 . S
N1353 C1357 1.279 . S
C1354 C1352 1.348 . S
C1354 C1356 1.353 . S
C1354 H1396 0.929 . S
C1355 C1352 1.356 . S
C1355 C1357 1.358 . S
C1355 H1397 0.930 . S
C1356 N1353 1.314 . S
C1356 C1354 1.353 . S
C1356 H1398 0.930 . S
C1357 N1353 1.279 . S
C1357 C1355 1.358 . S
C1357 H1399 0.930 . S
C1358 C1359 1.348 . S
C1358 C1360 1.356 . S
C1358 O1383 1.325 . S
C1359 C1358 1.348 . S
C1359 C1361 1.353 . S
C1359 H1400 0.929 . S
C1360 C1358 1.356 . S
C1360 C1362 1.358 . S
C1360 H1401 0.930 . S
C1361 C1359 1.353 . S
C1361 N1363 1.314 . S
C1361 H1402 0.930 . S
C1362 C1360 1.358 . S
C1362 N1363 1.279 . S
C1362 H1403 0.930 . S
N1363 C1361 1.314 . S
N1363 C1362 1.279 . S
C1364 C1366 1.353 . S
C1364 N1367 1.314 . S
C1364 H1370 0.930 . S
C1365 N1367 1.279 . S
C1365 C1368 1.358 . S
C1365 H1371 0.930 . S
C1366 C1364 1.353 . S
C1366 C1369 1.348 . S
C1366 H1404 0.929 . S
N1367 Li1322 1.990 . S
N1367 C1364 1.314 . S
N1367 C1365 1.279 . S
C1368 C1365 1.358 . S
C1368 C1369 1.356 . S
C1368 H1405 0.930 . S
C1369 C1366 1.348 . S
C1369 C1368 1.356 . S
H1370 C1364 0.930 . S
H1371 C1365 0.930 . S
C1372 N1373 1.314 . S
C1372 C1374 1.353 . S
C1372 H1378 0.930 . S
N1373 Li1323 1.990 . S
N1373 C1372 1.314 . S
N1373 C1376 1.279 . S
C1374 C1372 1.353 . S
C1374 C1377 1.348 . S
C1374 H1406 0.929 . S
C1375 C1376 1.358 . S
C1375 C1377 1.356 . S
C1375 H1407 0.930 . S
C1376 N1373 1.279 . S
C1376 C1375 1.358 . S
C1376 H1379 0.930 . S
C1377 C1374 1.348 . S
C1377 C1375 1.356 . S
H1378 C1372 0.930 . S
H1379 C1376 0.930 . S
O1380 Li1320 1.956 . S
O1380 Li1321 1.970 . S
O1380 Li1322 1.961 . S
O1380 C1324 1.325 . S
O1381 Li1320 1.970 . S
O1381 Li1321 1.956 . S
O1381 Li1323 1.961 . S
O1381 C1330 1.325 . S
O1382 Li1320 1.961 . S
O1382 Li1322 1.956 . S
O1382 Li1323 1.970 . S
O1382 C1352 1.325 . S
O1383 Li1321 1.961 . S
O1383 Li1322 1.970 . S
O1383 Li1323 1.956 . S
O1383 C1358 1.325 . S
H1384 C1326 0.929 . S
H1385 C1327 0.930 . S
H1386 C1328 0.930 . S
H1387 C1329 0.930 . S
H1388 C1331 0.930 . S
H1389 C1333 0.929 . S
H1390 C1334 0.930 . S
H1391 C1335 0.930 . S
H1392 C1338 0.930 . S
H1393 C1341 0.929 . S
H1394 C1346 0.929 . S
H1395 C1347 0.930 . S
H1396 C1354 0.929 . S
H1397 C1355 0.930 . S
H1398 C1356 0.930 . S
H1399 C1357 0.930 . S
H1400 C1359 0.929 . S
H1401 C1360 0.930 . S
H1402 C1361 0.930 . S
H1403 C1362 0.930 . S
H1404 C1366 0.929 . S
H1405 C1368 0.930 . S
H1406 C1374 0.929 . S
H1407 C1375 0.930 . S
Li1408 N1425 1.990 . S
Li1408 O1468 1.956 1_545 S
Li1408 O1469 1.970 . S
Li1408 O1470 1.961 . S
Li1409 N1433 1.990 . S
Li1409 O1468 1.970 . S
Li1409 O1469 1.956 1_565 S
Li1409 O1471 1.961 1_565 S
Li1410 N1455 1.990 . S
Li1410 O1468 1.961 1_545 S
Li1410 O1470 1.956 . S
Li1410 O1471 1.970 . S
Li1411 N1461 1.990 . S
Li1411 O1469 1.961 . S
Li1411 O1470 1.970 . S
Li1411 O1471 1.956 . S
C1412 C1414 1.348 . S
C1412 C1415 1.356 . S
C1412 O1468 1.325 . S
N1413 C1416 1.314 . S
N1413 C1417 1.279 . S
C1414 C1412 1.348 . S
C1414 C1416 1.353 . S
C1414 H1472 0.929 . S
C1415 C1412 1.356 . S
C1415 C1417 1.358 . S
C1415 H1473 0.930 . S
C1416 N1413 1.314 . S
C1416 C1414 1.353 . S
C1416 H1474 0.930 . S
C1417 N1413 1.279 . S
C1417 C1415 1.358 . S
C1417 H1475 0.930 . S
C1418 C1421 1.348 . S
C1418 C1422 1.356 . S
C1418 O1469 1.325 . S
C1419 N1420 1.279 . S
C1419 C1422 1.358 . S
C1419 H1476 0.930 . S
N1420 C1419 1.279 . S
N1420 C1423 1.314 . S
C1421 C1418 1.348 . S
C1421 C1423 1.353 . S
C1421 H1477 0.929 . S
C1422 C1418 1.356 . S
C1422 C1419 1.358 . S
C1422 H1478 0.930 . S
C1423 N1420 1.314 . S
C1423 C1421 1.353 . S
C1423 H1479 0.930 . S
C1424 N1425 1.314 . S
C1424 C1429 1.353 . S
C1424 H1430 0.930 . S
N1425 Li1408 1.990 . S
N1425 C1424 1.314 . S
N1425 C1427 1.279 . S
C1426 C1427 1.358 . S
C1426 C1428 1.356 . S
C1426 H1480 0.930 1_545 S
C1427 N1425 1.279 . S
C1427 C1426 1.358 . S
C1427 H1431 0.930 1_545 S
C1428 C1426 1.356 . S
C1428 C1429 1.348 . S
C1429 C1424 1.353 . S
C1429 C1428 1.348 . S
C1429 H1481 0.929 . S
H1430 C1424 0.930 . S
H1431 C1427 0.930 1_565 S
C1432 N1433 1.314 . S
C1432 C1434 1.353 . S
C1432 H1438 0.930 . S
N1433 Li1409 1.990 . S
N1433 C1432 1.314 . S
N1433 C1436 1.279 . S
C1434 C1432 1.353 . S
C1434 C1437 1.348 . S
C1434 H1482 0.929 . S
C1435 C1436 1.358 . S
C1435 C1437 1.356 . S
C1435 H1483 0.930 . S
C1436 N1433 1.279 . S
C1436 C1435 1.358 . S
C1436 H1439 0.930 . S
C1437 C1434 1.348 . S
C1437 C1435 1.356 . S
H1438 C1432 0.930 . S
H1439 C1436 0.930 . S
C1440 C1442 1.348 . S
C1440 C1443 1.356 . S
C1440 O1470 1.325 . S
N1441 C1444 1.314 . S
N1441 C1445 1.279 . S
C1442 C1440 1.348 . S
C1442 C1444 1.353 . S
C1442 H1484 0.929 . S
C1443 C1440 1.356 . S
C1443 C1445 1.358 . S
C1443 H1485 0.930 . S
C1444 N1441 1.314 . S
C1444 C1442 1.353 . S
C1444 H1486 0.930 . S
C1445 N1441 1.279 . S
C1445 C1443 1.358 . S
C1445 H1487 0.930 . S
C1446 C1447 1.348 . S
C1446 C1448 1.352 1_545 S
C1446 O1471 1.325 . S
C1447 C1446 1.348 . S
C1447 C1449 1.353 . S
C1447 H1488 0.929 . S
C1448 C1446 1.352 1_565 S
C1448 C1450 1.354 . S
C1448 H1489 0.942 . S
C1449 C1447 1.353 . S
C1449 N1451 1.326 . S
C1449 H1490 0.930 . S
C1450 C1448 1.354 . S
C1450 N1451 1.262 1_565 S
C1450 H1491 0.930 . S
N1451 C1449 1.326 . S
N1451 C1450 1.262 1_545 S
C1452 C1454 1.353 . S
C1452 N1455 1.314 1_565 S
C1452 H1458 0.930 . S
C1453 N1455 1.279 . S
C1453 C1456 1.358 . S
C1453 H1459 0.930 . S
C1454 C1452 1.353 . S
C1454 C1457 1.348 1_565 S
C1454 H1492 0.929 . S
N1455 Li1410 1.990 . S
N1455 C1452 1.314 1_545 S
N1455 C1453 1.279 . S
C1456 C1453 1.358 . S
C1456 C1457 1.356 . S
C1456 H1493 0.930 . S
C1457 C1454 1.348 1_545 S
C1457 C1456 1.356 . S
H1458 C1452 0.930 . S
H1459 C1453 0.930 . S
C1460 N1461 1.314 . S
C1460 C1462 1.353 . S
C1460 H1466 0.930 . S
N1461 Li1411 1.990 . S
N1461 C1460 1.314 . S
N1461 C1464 1.279 . S
C1462 C1460 1.353 . S
C1462 C1465 1.348 . S
C1462 H1494 0.929 . S
C1463 C1464 1.358 . S
C1463 C1465 1.356 . S
C1463 H1495 0.930 . S
C1464 N1461 1.279 . S
C1464 C1463 1.358 . S
C1464 H1467 0.930 . S
C1465 C1462 1.348 . S
C1465 C1463 1.356 . S
H1466 C1460 0.930 . S
H1467 C1464 0.930 . S
O1468 Li1408 1.956 1_565 S
O1468 Li1409 1.970 . S
O1468 Li1410 1.961 1_565 S
O1468 C1412 1.325 . S
O1469 Li1408 1.970 . S
O1469 Li1409 1.956 1_545 S
O1469 Li1411 1.961 . S
O1469 C1418 1.325 . S
O1470 Li1408 1.961 . S
O1470 Li1410 1.956 . S
O1470 Li1411 1.970 . S
O1470 C1440 1.325 . S
O1471 Li1409 1.961 1_545 S
O1471 Li1410 1.970 . S
O1471 Li1411 1.956 . S
O1471 C1446 1.325 . S
H1472 C1414 0.929 . S
H1473 C1415 0.930 . S
H1474 C1416 0.930 . S
H1475 C1417 0.930 . S
H1476 C1419 0.930 . S
H1477 C1421 0.929 . S
H1478 C1422 0.930 . S
H1479 C1423 0.930 . S
H1480 C1426 0.930 1_565 S
H1481 C1429 0.929 . S
H1482 C1434 0.929 . S
H1483 C1435 0.930 . S
H1484 C1442 0.929 . S
H1485 C1443 0.930 . S
H1486 C1444 0.930 . S
H1487 C1445 0.930 . S
H1488 C1447 0.929 . S
H1489 C1448 0.942 . S
H1490 C1449 0.930 . S
H1491 C1450 0.930 . S
H1492 C1454 0.929 . S
H1493 C1456 0.930 . S
H1494 C1462 0.929 . S
H1495 C1463 0.930 . S
Li1496 N1513 1.990 . S
Li1496 O1556 1.956 . S
Li1496 O1557 1.970 . S
Li1496 O1558 1.961 . S
Li1497 N1521 1.990 . S
Li1497 O1556 1.970 . S
Li1497 O1557 1.956 . S
Li1497 O1559 1.961 . S
Li1498 N1543 1.990 . S
Li1498 O1556 1.961 . S
Li1498 O1558 1.956 . S
Li1498 O1559 1.970 . S
Li1499 N1549 1.990 . S
Li1499 O1557 1.961 . S
Li1499 O1558 1.970 . S
Li1499 O1559 1.956 . S
C1500 C1502 1.348 . S
C1500 C1503 1.356 . S
C1500 O1556 1.325 . S
N1501 C1504 1.314 . S
N1501 C1505 1.279 . S
C1502 C1500 1.348 . S
C1502 C1504 1.353 . S
C1502 H1560 0.929 . S
C1503 C1500 1.356 . S
C1503 C1505 1.358 . S
C1503 H1561 0.930 . S
C1504 N1501 1.314 . S
C1504 C1502 1.353 . S
C1504 H1562 0.930 . S
C1505 N1501 1.279 . S
C1505 C1503 1.358 . S
C1505 H1563 0.930 . S
C1506 C1509 1.348 . S
C1506 C1510 1.356 . S
C1506 O1557 1.325 . S
C1507 N1508 1.279 . S
C1507 C1510 1.358 . S
C1507 H1564 0.930 . S
N1508 C1507 1.279 . S
N1508 C1511 1.314 . S
C1509 C1506 1.348 . S
C1509 C1511 1.353 . S
C1509 H1565 0.929 . S
C1510 C1506 1.356 . S
C1510 C1507 1.358 . S
C1510 H1566 0.930 . S
C1511 N1508 1.314 . S
C1511 C1509 1.353 . S
C1511 H1567 0.930 . S
C1512 N1513 1.314 . S
C1512 C1517 1.353 . S
C1512 H1518 0.930 . S
N1513 Li1496 1.990 . S
N1513 C1512 1.314 . S
N1513 C1515 1.279 . S
C1514 C1515 1.358 . S
C1514 C1516 1.356 . S
C1514 H1568 0.930 . S
C1515 N1513 1.279 . S
C1515 C1514 1.358 . S
C1515 H1519 0.930 . S
C1516 C1514 1.356 . S
C1516 C1517 1.348 . S
C1517 C1512 1.353 . S
C1517 C1516 1.348 . S
C1517 H1569 0.929 . S
H1518 C1512 0.930 . S
H1519 C1515 0.930 . S
C1520 N1521 1.314 . S
C1520 C1522 1.353 . S
C1520 H1526 0.930 . S
N1521 Li1497 1.990 . S
N1521 C1520 1.314 . S
N1521 C1524 1.279 . S
C1522 C1520 1.353 . S
C1522 C1525 1.348 . S
C1522 H1570 0.929 . S
C1523 C1524 1.358 . S
C1523 C1525 1.356 . S
C1523 H1571 0.930 . S
C1524 N1521 1.279 . S
C1524 C1523 1.358 . S
C1524 H1527 0.930 . S
C1525 C1522 1.348 . S
C1525 C1523 1.356 . S
H1526 C1520 0.930 . S
H1527 C1524 0.930 . S
C1528 C1530 1.348 . S
C1528 C1531 1.356 . S
C1528 O1558 1.325 . S
N1529 C1532 1.314 . S
N1529 C1533 1.279 . S
C1530 C1528 1.348 . S
C1530 C1532 1.353 . S
C1530 H1572 0.929 . S
C1531 C1528 1.356 . S
C1531 C1533 1.358 . S
C1531 H1573 0.930 . S
C1532 N1529 1.314 . S
C1532 C1530 1.353 . S
C1532 H1574 0.930 . S
C1533 N1529 1.279 . S
C1533 C1531 1.358 . S
C1533 H1575 0.930 . S
C1534 C1535 1.348 . S
C1534 C1536 1.356 . S
C1534 O1559 1.325 . S
C1535 C1534 1.348 . S
C1535 C1537 1.353 . S
C1535 H1576 0.929 . S
C1536 C1534 1.356 . S
C1536 C1538 1.358 . S
C1536 H1577 0.930 . S
C1537 C1535 1.353 . S
C1537 N1539 1.314 . S
C1537 H1578 0.930 . S
C1538 C1536 1.358 . S
C1538 N1539 1.279 . S
C1538 H1579 0.930 . S
N1539 C1537 1.314 . S
N1539 C1538 1.279 . S
C1540 C1542 1.353 . S
C1540 N1543 1.314 . S
C1540 H1546 0.930 . S
C1541 N1543 1.279 . S
C1541 C1544 1.358 . S
C1541 H1547 0.930 . S
C1542 C1540 1.353 . S
C1542 C1545 1.348 . S
C1542 H1580 0.929 . S
N1543 Li1498 1.990 . S
N1543 C1540 1.314 . S
N1543 C1541 1.279 . S
C1544 C1541 1.358 . S
C1544 C1545 1.356 . S
C1544 H1581 0.930 . S
C1545 C1542 1.348 . S
C1545 C1544 1.356 . S
H1546 C1540 0.930 . S
H1547 C1541 0.930 . S
C1548 N1549 1.314 . S
C1548 C1550 1.353 . S
C1548 H1554 0.930 . S
N1549 Li1499 1.990 . S
N1549 C1548 1.314 . S
N1549 C1552 1.279 . S
C1550 C1548 1.353 . S
C1550 C1553 1.348 . S
C1550 H1582 0.929 . S
C1551 C1552 1.358 . S
C1551 C1553 1.356 . S
C1551 H1583 0.930 . S
C1552 N1549 1.279 . S
C1552 C1551 1.358 . S
C1552 H1555 0.930 . S
C1553 C1550 1.348 . S
C1553 C1551 1.356 . S
H1554 C1548 0.930 . S
H1555 C1552 0.930 . S
O1556 Li1496 1.956 . S
O1556 Li1497 1.970 . S
O1556 Li1498 1.961 . S
O1556 C1500 1.325 . S
O1557 Li1496 1.970 . S
O1557 Li1497 1.956 . S
O1557 Li1499 1.961 . S
O1557 C1506 1.325 . S
O1558 Li1496 1.961 . S
O1558 Li1498 1.956 . S
O1558 Li1499 1.970 . S
O1558 C1528 1.325 . S
O1559 Li1497 1.961 . S
O1559 Li1498 1.970 . S
O1559 Li1499 1.956 . S
O1559 C1534 1.325 . S
H1560 C1502 0.929 . S
H1561 C1503 0.930 . S
H1562 C1504 0.930 . S
H1563 C1505 0.930 . S
H1564 C1507 0.930 . S
H1565 C1509 0.929 . S
H1566 C1510 0.930 . S
H1567 C1511 0.930 . S
H1568 C1514 0.930 . S
H1569 C1517 0.929 . S
H1570 C1522 0.929 . S
H1571 C1523 0.930 . S
H1572 C1530 0.929 . S
H1573 C1531 0.930 . S
H1574 C1532 0.930 . S
H1575 C1533 0.930 . S
H1576 C1535 0.929 . S
H1577 C1536 0.930 . S
H1578 C1537 0.930 . S
H1579 C1538 0.930 . S
H1580 C1542 0.929 . S
H1581 C1544 0.930 . S
H1582 C1550 0.929 . S
H1583 C1551 0.930 . S
Li1584 N1601 1.990 . S
Li1584 O1644 1.956 . S
Li1584 O1645 1.970 . S
Li1584 O1646 1.961 . S
Li1585 N1609 1.990 . S
Li1585 O1644 1.970 . S
Li1585 O1645 1.956 . S
Li1585 O1647 1.961 . S
Li1586 N1631 1.990 . S
Li1586 O1644 1.961 . S
Li1586 O1646 1.956 . S
Li1586 O1647 1.970 . S
Li1587 N1637 1.990 . S
Li1587 O1645 1.961 . S
Li1587 O1646 1.970 . S
Li1587 O1647 1.956 . S
C1588 C1590 1.348 . S
C1588 C1591 1.356 . S
C1588 O1644 1.325 . S
N1589 C1592 1.314 . S
N1589 C1593 1.279 . S
C1590 C1588 1.348 . S
C1590 C1592 1.353 . S
C1590 H1648 0.929 . S
C1591 C1588 1.356 . S
C1591 C1593 1.358 . S
C1591 H1649 0.930 . S
C1592 N1589 1.314 . S
C1592 C1590 1.353 . S
C1592 H1650 0.930 . S
C1593 N1589 1.279 . S
C1593 C1591 1.358 . S
C1593 H1651 0.930 . S
C1594 C1597 1.348 . S
C1594 C1598 1.356 . S
C1594 O1645 1.325 . S
C1595 N1596 1.279 . S
C1595 C1598 1.358 . S
C1595 H1652 0.930 . S
N1596 C1595 1.279 . S
N1596 C1599 1.314 . S
C1597 C1594 1.348 . S
C1597 C1599 1.353 . S
C1597 H1653 0.929 . S
C1598 C1594 1.356 . S
C1598 C1595 1.358 . S
C1598 H1654 0.930 . S
C1599 N1596 1.314 . S
C1599 C1597 1.353 . S
C1599 H1655 0.930 . S
C1600 N1601 1.314 . S
C1600 C1605 1.353 . S
C1600 H1606 0.930 . S
N1601 Li1584 1.990 . S
N1601 C1600 1.314 . S
N1601 C1603 1.279 . S
C1602 C1603 1.358 . S
C1602 C1604 1.356 . S
C1602 H1656 0.930 . S
C1603 N1601 1.279 . S
C1603 C1602 1.358 . S
C1603 H1607 0.930 . S
C1604 C1602 1.356 . S
C1604 C1605 1.348 . S
C1605 C1600 1.353 . S
C1605 C1604 1.348 . S
C1605 H1657 0.929 . S
H1606 C1600 0.930 . S
H1607 C1603 0.930 . S
C1608 N1609 1.314 . S
C1608 C1610 1.353 . S
C1608 H1614 0.930 . S
N1609 Li1585 1.990 . S
N1609 C1608 1.314 . S
N1609 C1612 1.279 . S
C1610 C1608 1.353 . S
C1610 C1613 1.348 . S
C1610 H1658 0.929 . S
C1611 C1612 1.358 . S
C1611 C1613 1.356 . S
C1611 H1659 0.930 . S
C1612 N1609 1.279 . S
C1612 C1611 1.358 . S
C1612 H1615 0.930 . S
C1613 C1610 1.348 . S
C1613 C1611 1.356 . S
H1614 C1608 0.930 . S
H1615 C1612 0.930 . S
C1616 C1618 1.348 . S
C1616 C1619 1.356 . S
C1616 O1646 1.325 . S
N1617 C1620 1.314 . S
N1617 C1621 1.279 . S
C1618 C1616 1.348 . S
C1618 C1620 1.353 . S
C1618 H1660 0.929 . S
C1619 C1616 1.356 . S
C1619 C1621 1.358 . S
C1619 H1661 0.930 . S
C1620 N1617 1.314 . S
C1620 C1618 1.353 . S
C1620 H1662 0.930 . S
C1621 N1617 1.279 . S
C1621 C1619 1.358 . S
C1621 H1663 0.930 . S
C1622 C1623 1.348 . S
C1622 C1624 1.356 . S
C1622 O1647 1.325 . S
C1623 C1622 1.348 . S
C1623 C1625 1.353 . S
C1623 H1664 0.929 . S
C1624 C1622 1.356 . S
C1624 C1626 1.358 . S
C1624 H1665 0.930 . S
C1625 C1623 1.353 . S
C1625 N1627 1.314 . S
C1625 H1666 0.930 . S
C1626 C1624 1.358 . S
C1626 N1627 1.279 . S
C1626 H1667 0.930 . S
N1627 C1625 1.314 . S
N1627 C1626 1.279 . S
C1628 C1630 1.353 . S
C1628 N1631 1.314 . S
C1628 H1634 0.930 . S
C1629 N1631 1.279 . S
C1629 C1632 1.358 . S
C1629 H1635 0.930 . S
C1630 C1628 1.353 . S
C1630 C1633 1.348 . S
C1630 H1668 0.929 . S
N1631 Li1586 1.990 . S
N1631 C1628 1.314 . S
N1631 C1629 1.279 . S
C1632 C1629 1.358 . S
C1632 C1633 1.356 . S
C1632 H1669 0.930 . S
C1633 C1630 1.348 . S
C1633 C1632 1.356 . S
H1634 C1628 0.930 . S
H1635 C1629 0.930 . S
C1636 N1637 1.314 . S
C1636 C1638 1.353 . S
C1636 H1642 0.930 . S
N1637 Li1587 1.990 . S
N1637 C1636 1.314 . S
N1637 C1640 1.279 . S
C1638 C1636 1.353 . S
C1638 C1641 1.348 . S
C1638 H1670 0.929 . S
C1639 C1640 1.358 . S
C1639 C1641 1.356 . S
C1639 H1671 0.930 . S
C1640 N1637 1.279 . S
C1640 C1639 1.358 . S
C1640 H1643 0.930 . S
C1641 C1638 1.348 . S
C1641 C1639 1.356 . S
H1642 C1636 0.930 . S
H1643 C1640 0.930 . S
O1644 Li1584 1.956 . S
O1644 Li1585 1.970 . S
O1644 Li1586 1.961 . S
O1644 C1588 1.325 . S
O1645 Li1584 1.970 . S
O1645 Li1585 1.956 . S
O1645 Li1587 1.961 . S
O1645 C1594 1.325 . S
O1646 Li1584 1.961 . S
O1646 Li1586 1.956 . S
O1646 Li1587 1.970 . S
O1646 C1616 1.325 . S
O1647 Li1585 1.961 . S
O1647 Li1586 1.970 . S
O1647 Li1587 1.956 . S
O1647 C1622 1.325 . S
H1648 C1590 0.929 . S
H1649 C1591 0.930 . S
H1650 C1592 0.930 . S
H1651 C1593 0.930 . S
H1652 C1595 0.930 . S
H1653 C1597 0.929 . S
H1654 C1598 0.930 . S
H1655 C1599 0.930 . S
H1656 C1602 0.930 . S
H1657 C1605 0.929 . S
H1658 C1610 0.929 . S
H1659 C1611 0.930 . S
H1660 C1618 0.929 . S
H1661 C1619 0.930 . S
H1662 C1620 0.930 . S
H1663 C1621 0.930 . S
H1664 C1623 0.929 . S
H1665 C1624 0.930 . S
H1666 C1625 0.930 . S
H1667 C1626 0.930 . S
H1668 C1630 0.929 . S
H1669 C1632 0.930 . S
H1670 C1638 0.929 . S
H1671 C1639 0.930 . S
Li1672 N1689 1.990 . S
Li1672 O1732 1.956 . S
Li1672 O1733 1.970 . S
Li1672 O1734 1.961 1_545 S
Li1673 N1697 1.990 . S
Li1673 O1732 1.970 . S
Li1673 O1733 1.956 . S
Li1673 O1735 1.961 . S
Li1674 N1719 1.990 . S
Li1674 O1732 1.961 . S
Li1674 O1734 1.956 1_545 S
Li1674 O1735 1.970 . S
Li1675 N1725 1.990 . S
Li1675 O1733 1.961 1_565 S
Li1675 O1734 1.970 . S
Li1675 O1735 1.956 1_565 S
C1676 C1678 1.348 . S
C1676 C1679 1.356 . S
C1676 O1732 1.325 . S
N1677 C1680 1.314 . S
N1677 C1681 1.279 . S
C1678 C1676 1.348 . S
C1678 C1680 1.353 . S
C1678 H1736 0.929 . S
C1679 C1676 1.356 . S
C1679 C1681 1.358 . S
C1679 H1737 0.930 . S
C1680 N1677 1.314 . S
C1680 C1678 1.353 . S
C1680 H1738 0.930 . S
C1681 N1677 1.279 . S
C1681 C1679 1.358 . S
C1681 H1739 0.930 . S
C1682 C1685 1.348 . S
C1682 C1686 1.356 . S
C1682 O1733 1.325 . S
C1683 N1684 1.279 . S
C1683 C1686 1.358 . S
C1683 H1740 0.930 . S
N1684 C1683 1.279 . S
N1684 C1687 1.314 . S
C1685 C1682 1.348 . S
C1685 C1687 1.353 . S
C1685 H1741 0.929 . S
C1686 C1682 1.356 . S
C1686 C1683 1.358 . S
C1686 H1742 0.930 . S
C1687 N1684 1.314 . S
C1687 C1685 1.353 . S
C1687 H1743 0.930 . S
C1688 N1689 1.314 1_565 S
C1688 C1693 1.353 . S
C1688 H1694 0.930 . S
N1689 Li1672 1.990 . S
N1689 C1688 1.314 1_545 S
N1689 C1691 1.279 . S
C1690 C1691 1.358 . S
C1690 C1692 1.356 . S
C1690 H1744 0.930 . S
C1691 N1689 1.279 . S
C1691 C1690 1.358 . S
C1691 H1695 0.930 . S
C1692 C1690 1.356 . S
C1692 C1693 1.348 1_545 S
C1693 C1688 1.353 . S
C1693 C1692 1.348 1_565 S
C1693 H1745 0.929 . S
H1694 C1688 0.930 . S
H1695 C1691 0.930 . S
C1696 N1697 1.314 . S
C1696 C1698 1.353 . S
C1696 H1702 0.930 . S
N1697 Li1673 1.990 . S
N1697 C1696 1.314 . S
N1697 C1700 1.279 . S
C1698 C1696 1.353 . S
C1698 C1701 1.348 . S
C1698 H1746 0.929 . S
C1699 C1700 1.358 . S
C1699 C1701 1.356 . S
C1699 H1747 0.930 . S
C1700 N1697 1.279 . S
C1700 C1699 1.358 . S
C1700 H1703 0.930 . S
C1701 C1698 1.348 . S
C1701 C1699 1.356 . S
H1702 C1696 0.930 . S
H1703 C1700 0.930 . S
C1704 C1706 1.348 . S
C1704 C1707 1.356 . S
C1704 O1734 1.325 . S
N1705 C1708 1.314 . S
N1705 C1709 1.279 . S
C1706 C1704 1.348 . S
C1706 C1708 1.353 . S
C1706 H1748 0.929 . S
C1707 C1704 1.356 . S
C1707 C1709 1.358 . S
C1707 H1749 0.930 . S
C1708 N1705 1.314 . S
C1708 C1706 1.353 . S
C1708 H1750 0.930 . S
C1709 N1705 1.279 . S
C1709 C1707 1.358 . S
C1709 H1751 0.930 . S
C1710 C1711 1.348 . S
C1710 C1712 1.356 . S
C1710 O1735 1.325 . S
C1711 C1710 1.348 . S
C1711 C1713 1.353 . S
C1711 H1752 0.929 1_545 S
C1712 C1710 1.356 . S
C1712 C1714 1.358 . S
C1712 H1753 0.930 . S
C1713 C1711 1.353 . S
C1713 N1715 1.314 . S
C1713 H1754 0.928 1_545 S
C1714 C1712 1.358 . S
C1714 N1715 1.279 . S
C1714 H1755 0.930 . S
N1715 C1713 1.314 . S
N1715 C1714 1.279 . S
C1716 C1718 1.353 . S
C1716 N1719 1.314 . S
C1716 H1722 0.930 . S
C1717 N1719 1.279 1_565 S
C1717 C1720 1.358 . S
C1717 H1723 0.930 . S
C1718 C1716 1.353 . S
C1718 C1721 1.316 1_545 S
C1718 H1756 0.929 . S
N1719 Li1674 1.990 . S
N1719 C1716 1.314 . S
N1719 C1717 1.279 1_545 S
C1720 C1717 1.358 . S
C1720 C1721 1.392 . S
C1720 H1757 0.930 . S
C1721 C1718 1.316 1_565 S
C1721 C1720 1.392 . S
H1722 C1716 0.930 . S
H1723 C1717 0.930 . S
C1724 N1725 1.314 . S
C1724 C1726 1.353 . S
C1724 H1730 0.930 . S
N1725 Li1675 1.990 . S
N1725 C1724 1.314 . S
N1725 C1728 1.279 . S
C1726 C1724 1.353 . S
C1726 C1729 1.348 . S
C1726 H1758 0.929 . S
C1727 C1728 1.358 . S
C1727 C1729 1.356 . S
C1727 H1759 0.930 . S
C1728 N1725 1.279 . S
C1728 C1727 1.358 . S
C1728 H1731 0.930 . S
C1729 C1726 1.348 . S
C1729 C1727 1.356 . S
H1730 C1724 0.930 . S
H1731 C1728 0.930 . S
O1732 Li1672 1.956 . S
O1732 Li1673 1.970 . S
O1732 Li1674 1.961 . S
O1732 C1676 1.325 . S
O1733 Li1672 1.970 . S
O1733 Li1673 1.956 . S
O1733 Li1675 1.961 1_545 S
O1733 C1682 1.325 . S
O1734 Li1672 1.961 1_565 S
O1734 Li1674 1.956 1_565 S
O1734 Li1675 1.970 . S
O1734 C1704 1.325 . S
O1735 Li1673 1.961 . S
O1735 Li1674 1.970 . S
O1735 Li1675 1.956 1_545 S
O1735 C1710 1.325 . S
H1736 C1678 0.929 . S
H1737 C1679 0.930 . S
H1738 C1680 0.930 . S
H1739 C1681 0.930 . S
H1740 C1683 0.930 . S
H1741 C1685 0.929 . S
H1742 C1686 0.930 . S
H1743 C1687 0.930 . S
H1744 C1690 0.930 . S
H1745 C1693 0.929 . S
H1746 C1698 0.929 . S
H1747 C1699 0.930 . S
H1748 C1706 0.929 . S
H1749 C1707 0.930 . S
H1750 C1708 0.930 . S
H1751 C1709 0.930 . S
H1752 C1711 0.929 1_565 S
H1753 C1712 0.930 . S
H1754 C1713 0.928 1_565 S
H1755 C1714 0.930 . S
H1756 C1718 0.929 . S
H1757 C1720 0.930 . S
H1758 C1726 0.929 . S
H1759 C1727 0.930 . S
Li1760 N1777 1.990 . S
Li1760 O1820 1.956 . S
Li1760 O1821 1.970 . S
Li1760 O1822 1.961 . S
Li1761 N1785 1.990 . S
Li1761 O1820 1.970 . S
Li1761 O1821 1.956 . S
Li1761 O1823 1.961 1_554 S
Li1762 N1807 2.029 . S
Li1762 O1820 1.933 1_556 S
Li1762 O1822 1.922 1_556 S
Li1762 O1823 1.972 . S
Li1763 N1813 1.990 . S
Li1763 O1821 1.961 . S
Li1763 O1822 1.970 . S
Li1763 O1823 1.956 1_554 S
C1764 C1766 1.348 . S
C1764 C1767 1.356 . S
C1764 O1820 1.325 . S
N1765 C1768 1.314 . S
N1765 C1769 1.279 . S
C1766 C1764 1.348 . S
C1766 C1768 1.353 . S
C1766 H1824 0.929 . S
C1767 C1764 1.356 . S
C1767 C1769 1.358 . S
C1767 H1825 0.930 . S
C1768 N1765 1.314 . S
C1768 C1766 1.353 . S
C1768 H1826 0.930 . S
C1769 N1765 1.279 . S
C1769 C1767 1.358 . S
C1769 H1827 0.930 . S
C1770 C1773 1.348 . S
C1770 C1774 1.356 . S
C1770 O1821 1.325 . S
C1771 N1772 1.279 . S
C1771 C1774 1.358 . S
C1771 H1828 0.930 . S
N1772 C1771 1.279 . S
N1772 C1775 1.314 . S
C1773 C1770 1.348 . S
C1773 C1775 1.353 . S
C1773 H1829 0.929 . S
C1774 C1770 1.356 . S
C1774 C1771 1.358 . S
C1774 H1830 0.930 . S
C1775 N1772 1.314 . S
C1775 C1773 1.353 . S
C1775 H1831 0.930 . S
C1776 N1777 1.314 . S
C1776 C1781 1.353 . S
C1776 H1782 0.930 . S
N1777 Li1760 1.990 . S
N1777 C1776 1.314 . S
N1777 C1779 1.279 . S
C1778 C1779 1.358 . S
C1778 C1780 1.356 . S
C1778 H1832 0.930 . S
C1779 N1777 1.279 . S
C1779 C1778 1.358 . S
C1779 H1783 0.930 . S
C1780 C1778 1.356 . S
C1780 C1781 1.348 . S
C1781 C1776 1.353 . S
C1781 C1780 1.348 . S
C1781 H1833 0.929 . S
H1782 C1776 0.930 . S
H1783 C1779 0.930 . S
C1784 N1785 1.314 . S
C1784 C1786 1.353 . S
C1784 H1790 0.930 1_554 S
N1785 Li1761 1.990 . S
N1785 C1784 1.314 . S
N1785 C1788 1.279 . S
C1786 C1784 1.353 . S
C1786 C1789 1.348 . S
C1786 H1834 0.929 1_554 S
C1787 C1788 1.358 . S
C1787 C1789 1.356 . S
C1787 H1835 0.930 . S
C1788 N1785 1.279 . S
C1788 C1787 1.358 . S
C1788 H1791 0.930 . S
C1789 C1786 1.348 . S
C1789 C1787 1.356 . S
H1790 C1784 0.930 1_556 S
H1791 C1788 0.930 . S
C1792 C1794 1.348 . S
C1792 C1795 1.356 . S
C1792 O1822 1.325 . S
N1793 C1796 1.314 . S
N1793 C1797 1.279 . S
C1794 C1792 1.348 . S
C1794 C1796 1.353 . S
C1794 H1836 0.929 . S
C1795 C1792 1.356 . S
C1795 C1797 1.358 . S
C1795 H1837 0.930 . S
C1796 N1793 1.314 . S
C1796 C1794 1.353 . S
C1796 H1838 0.930 . S
C1797 N1793 1.279 . S
C1797 C1795 1.358 . S
C1797 H1839 0.930 . S
C1798 C1799 1.348 . S
C1798 C1800 1.356 . S
C1798 O1823 1.325 . S
C1799 C1798 1.348 . S
C1799 C1801 1.353 . S
C1799 H1840 0.929 . S
C1800 C1798 1.356 . S
C1800 C1802 1.358 . S
C1800 H1841 0.930 . S
C1801 C1799 1.353 . S
C1801 N1803 1.314 . S
C1801 H1842 0.930 . S
C1802 C1800 1.358 . S
C1802 N1803 1.279 . S
C1802 H1843 0.930 . S
N1803 C1801 1.314 . S
N1803 C1802 1.279 . S
C1804 C1806 1.353 . S
C1804 N1807 1.314 . S
C1804 H1810 0.930 . S
C1805 N1807 1.279 . S
C1805 C1808 1.358 . S
C1805 H1811 0.930 . S
C1806 C1804 1.353 . S
C1806 C1809 1.348 . S
C1806 H1844 0.929 . S
N1807 Li1762 2.029 . S
N1807 C1804 1.314 . S
N1807 C1805 1.279 . S
C1808 C1805 1.358 . S
C1808 C1809 1.356 . S
C1808 H1845 0.930 . S
C1809 C1806 1.348 . S
C1809 C1808 1.356 . S
H1810 C1804 0.930 . S
H1811 C1805 0.930 . S
C1812 N1813 1.314 . S
C1812 C1814 1.353 . S
C1812 H1818 0.930 . S
N1813 Li1763 1.990 . S
N1813 C1812 1.314 . S
N1813 C1816 1.279 1_554 S
C1814 C1812 1.353 . S
C1814 C1817 1.348 . S
C1814 H1846 0.929 . S
C1815 C1816 1.358 . S
C1815 C1817 1.356 1_556 S
C1815 H1847 0.930 . S
C1816 N1813 1.279 1_556 S
C1816 C1815 1.358 . S
C1816 H1819 0.930 . S
C1817 C1814 1.348 . S
C1817 C1815 1.356 1_554 S
H1818 C1812 0.930 . S
H1819 C1816 0.930 . S
O1820 Li1760 1.956 . S
O1820 Li1761 1.970 . S
O1820 Li1762 1.933 1_554 S
O1820 C1764 1.325 . S
O1821 Li1760 1.970 . S
O1821 Li1761 1.956 . S
O1821 Li1763 1.961 . S
O1821 C1770 1.325 . S
O1822 Li1760 1.961 . S
O1822 Li1762 1.922 1_554 S
O1822 Li1763 1.970 . S
O1822 C1792 1.325 . S
O1823 Li1761 1.961 1_556 S
O1823 Li1762 1.972 . S
O1823 Li1763 1.956 1_556 S
O1823 C1798 1.325 . S
H1824 C1766 0.929 . S
H1825 C1767 0.930 . S
H1826 C1768 0.930 . S
H1827 C1769 0.930 . S
H1828 C1771 0.930 . S
H1829 C1773 0.929 . S
H1830 C1774 0.930 . S
H1831 C1775 0.930 . S
H1832 C1778 0.930 . S
H1833 C1781 0.929 . S
H1834 C1786 0.929 1_556 S
H1835 C1787 0.930 . S
H1836 C1794 0.929 . S
H1837 C1795 0.930 . S
H1838 C1796 0.930 . S
H1839 C1797 0.930 . S
H1840 C1799 0.929 . S
H1841 C1800 0.930 . S
H1842 C1801 0.930 . S
H1843 C1802 0.930 . S
H1844 C1806 0.929 . S
H1845 C1808 0.930 . S
H1846 C1814 0.929 . S
H1847 C1815 0.930 . S
Li1848 N1865 1.990 . S
Li1848 O1908 1.956 . S
Li1848 O1909 1.970 . S
Li1848 O1910 1.961 . S
Li1849 N1873 1.990 . S
Li1849 O1908 1.970 . S
Li1849 O1909 1.956 . S
Li1849 O1911 1.961 . S
Li1850 N1895 1.990 . S
Li1850 O1908 1.961 . S
Li1850 O1910 1.956 . S
Li1850 O1911 1.970 . S
Li1851 N1901 1.990 . S
Li1851 O1909 1.961 . S
Li1851 O1910 1.970 . S
Li1851 O1911 1.956 . S
C1852 C1854 1.348 . S
C1852 C1855 1.356 . S
C1852 O1908 1.325 . S
N1853 C1856 1.314 . S
N1853 C1857 1.279 . S
C1854 C1852 1.348 . S
C1854 C1856 1.353 . S
C1854 H1912 0.929 . S
C1855 C1852 1.356 . S
C1855 C1857 1.358 . S
C1855 H1913 0.930 . S
C1856 N1853 1.314 . S
C1856 C1854 1.353 . S
C1856 H1914 0.930 . S
C1857 N1853 1.279 . S
C1857 C1855 1.358 . S
C1857 H1915 0.930 . S
C1858 C1861 1.348 . S
C1858 C1862 1.356 . S
C1858 O1909 1.325 . S
C1859 N1860 1.279 . S
C1859 C1862 1.358 . S
C1859 H1916 0.930 . S
N1860 C1859 1.279 . S
N1860 C1863 1.314 . S
C1861 C1858 1.348 . S
C1861 C1863 1.353 . S
C1861 H1917 0.929 . S
C1862 C1858 1.356 . S
C1862 C1859 1.358 . S
C1862 H1918 0.930 . S
C1863 N1860 1.314 . S
C1863 C1861 1.353 . S
C1863 H1919 0.930 . S
C1864 N1865 1.314 . S
C1864 C1869 1.353 . S
C1864 H1870 0.930 . S
N1865 Li1848 1.990 . S
N1865 C1864 1.314 . S
N1865 C1867 1.279 . S
C1866 C1867 1.358 . S
C1866 C1868 1.356 . S
C1866 H1920 0.930 . S
C1867 N1865 1.279 . S
C1867 C1866 1.358 . S
C1867 H1871 0.930 . S
C1868 C1866 1.356 . S
C1868 C1869 1.348 . S
C1869 C1864 1.353 . S
C1869 C1868 1.348 . S
C1869 H1921 0.929 . S
H1870 C1864 0.930 . S
H1871 C1867 0.930 . S
C1872 N1873 1.314 . S
C1872 C1874 1.353 . S
C1872 H1878 0.930 . S
N1873 Li1849 1.990 . S
N1873 C1872 1.314 . S
N1873 C1876 1.279 . S
C1874 C1872 1.353 . S
C1874 C1877 1.348 . S
C1874 H1922 0.929 . S
C1875 C1876 1.358 . S
C1875 C1877 1.356 . S
C1875 H1923 0.930 . S
C1876 N1873 1.279 . S
C1876 C1875 1.358 . S
C1876 H1879 0.930 . S
C1877 C1874 1.348 . S
C1877 C1875 1.356 . S
H1878 C1872 0.930 . S
H1879 C1876 0.930 . S
C1880 C1882 1.348 . S
C1880 C1883 1.356 . S
C1880 O1910 1.325 . S
N1881 C1884 1.314 . S
N1881 C1885 1.279 . S
C1882 C1880 1.348 . S
C1882 C1884 1.353 . S
C1882 H1924 0.929 . S
C1883 C1880 1.356 . S
C1883 C1885 1.358 . S
C1883 H1925 0.930 . S
C1884 N1881 1.314 . S
C1884 C1882 1.353 . S
C1884 H1926 0.930 . S
C1885 N1881 1.279 . S
C1885 C1883 1.358 . S
C1885 H1927 0.930 . S
C1886 C1887 1.348 . S
C1886 C1888 1.356 . S
C1886 O1911 1.325 . S
C1887 C1886 1.348 . S
C1887 C1889 1.353 . S
C1887 H1928 0.929 . S
C1888 C1886 1.356 . S
C1888 C1890 1.358 . S
C1888 H1929 0.930 . S
C1889 C1887 1.353 . S
C1889 N1891 1.314 . S
C1889 H1930 0.930 . S
C1890 C1888 1.358 . S
C1890 N1891 1.279 . S
C1890 H1931 0.930 . S
N1891 C1889 1.314 . S
N1891 C1890 1.279 . S
C1892 C1894 1.353 . S
C1892 N1895 1.314 . S
C1892 H1898 0.930 . S
C1893 N1895 1.279 . S
C1893 C1896 1.358 . S
C1893 H1899 0.930 . S
C1894 C1892 1.353 . S
C1894 C1897 1.348 . S
C1894 H1932 0.929 . S
N1895 Li1850 1.990 . S
N1895 C1892 1.314 . S
N1895 C1893 1.279 . S
C1896 C1893 1.358 . S
C1896 C1897 1.356 . S
C1896 H1933 0.930 . S
C1897 C1894 1.348 . S
C1897 C1896 1.356 . S
H1898 C1892 0.930 . S
H1899 C1893 0.930 . S
C1900 N1901 1.314 . S
C1900 C1902 1.353 . S
C1900 H1906 0.930 . S
N1901 Li1851 1.990 . S
N1901 C1900 1.314 . S
N1901 C1904 1.279 . S
C1902 C1900 1.353 . S
C1902 C1905 1.348 . S
C1902 H1934 0.929 . S
C1903 C1904 1.358 . S
C1903 C1905 1.356 . S
C1903 H1935 0.930 . S
C1904 N1901 1.279 . S
C1904 C1903 1.358 . S
C1904 H1907 0.930 . S
C1905 C1902 1.348 . S
C1905 C1903 1.356 . S
H1906 C1900 0.930 . S
H1907 C1904 0.930 . S
O1908 Li1848 1.956 . S
O1908 Li1849 1.970 . S
O1908 Li1850 1.961 . S
O1908 C1852 1.325 . S
O1909 Li1848 1.970 . S
O1909 Li1849 1.956 . S
O1909 Li1851 1.961 . S
O1909 C1858 1.325 . S
O1910 Li1848 1.961 . S
O1910 Li1850 1.956 . S
O1910 Li1851 1.970 . S
O1910 C1880 1.325 . S
O1911 Li1849 1.961 . S
O1911 Li1850 1.970 . S
O1911 Li1851 1.956 . S
O1911 C1886 1.325 . S
H1912 C1854 0.929 . S
H1913 C1855 0.930 . S
H1914 C1856 0.930 . S
H1915 C1857 0.930 . S
H1916 C1859 0.930 . S
H1917 C1861 0.929 . S
H1918 C1862 0.930 . S
H1919 C1863 0.930 . S
H1920 C1866 0.930 . S
H1921 C1869 0.929 . S
H1922 C1874 0.929 . S
H1923 C1875 0.930 . S
H1924 C1882 0.929 . S
H1925 C1883 0.930 . S
H1926 C1884 0.930 . S
H1927 C1885 0.930 . S
H1928 C1887 0.929 . S
H1929 C1888 0.930 . S
H1930 C1889 0.930 . S
H1931 C1890 0.930 . S
H1932 C1894 0.929 . S
H1933 C1896 0.930 . S
H1934 C1902 0.929 . S
H1935 C1903 0.930 . S
Li1936 N1953 1.990 . S
Li1936 O1996 1.956 . S
Li1936 O1997 1.970 . S
Li1936 O1998 1.961 . S
Li1937 N1961 1.990 . S
Li1937 O1996 1.970 . S
Li1937 O1997 1.956 . S
Li1937 O1999 1.961 . S
Li1938 N1983 1.990 . S
Li1938 O1996 1.961 . S
Li1938 O1998 1.956 . S
Li1938 O1999 1.970 . S
Li1939 N1989 1.990 . S
Li1939 O1997 1.961 . S
Li1939 O1998 1.970 . S
Li1939 O1999 1.956 . S
C1940 C1942 1.348 . S
C1940 C1943 1.356 . S
C1940 O1996 1.325 . S
N1941 C1944 1.314 . S
N1941 C1945 1.279 . S
C1942 C1940 1.348 . S
C1942 C1944 1.353 . S
C1942 H2000 0.929 . S
C1943 C1940 1.356 . S
C1943 C1945 1.358 . S
C1943 H2001 0.930 . S
C1944 N1941 1.314 . S
C1944 C1942 1.353 . S
C1944 H2002 0.930 . S
C1945 N1941 1.279 . S
C1945 C1943 1.358 . S
C1945 H2003 0.930 . S
C1946 C1949 1.348 . S
C1946 C1950 1.356 . S
C1946 O1997 1.325 . S
C1947 N1948 1.279 . S
C1947 C1950 1.358 . S
C1947 H2004 0.930 . S
N1948 C1947 1.279 . S
N1948 C1951 1.314 . S
C1949 C1946 1.348 . S
C1949 C1951 1.353 . S
C1949 H2005 0.929 . S
C1950 C1946 1.356 . S
C1950 C1947 1.358 . S
C1950 H2006 0.930 . S
C1951 N1948 1.314 . S
C1951 C1949 1.353 . S
C1951 H2007 0.930 . S
C1952 N1953 1.314 . S
C1952 C1957 1.353 . S
C1952 H1958 0.930 . S
N1953 Li1936 1.990 . S
N1953 C1952 1.314 . S
N1953 C1955 1.279 . S
C1954 C1955 1.358 . S
C1954 C1956 1.356 . S
C1954 H2008 0.930 . S
C1955 N1953 1.279 . S
C1955 C1954 1.358 . S
C1955 H1959 0.930 . S
C1956 C1954 1.356 . S
C1956 C1957 1.348 . S
C1957 C1952 1.353 . S
C1957 C1956 1.348 . S
C1957 H2009 0.929 . S
H1958 C1952 0.930 . S
H1959 C1955 0.930 . S
C1960 N1961 1.314 . S
C1960 C1962 1.353 . S
C1960 H1966 0.930 . S
N1961 Li1937 1.990 . S
N1961 C1960 1.314 . S
N1961 C1964 1.279 . S
C1962 C1960 1.353 . S
C1962 C1965 1.348 . S
C1962 H2010 0.929 . S
C1963 C1964 1.358 . S
C1963 C1965 1.356 . S
C1963 H2011 0.930 . S
C1964 N1961 1.279 . S
C1964 C1963 1.358 . S
C1964 H1967 0.930 . S
C1965 C1962 1.348 . S
C1965 C1963 1.356 . S
H1966 C1960 0.930 . S
H1967 C1964 0.930 . S
C1968 C1970 1.348 . S
C1968 C1971 1.356 . S
C1968 O1998 1.325 . S
N1969 C1972 1.314 . S
N1969 C1973 1.279 . S
C1970 C1968 1.348 . S
C1970 C1972 1.353 . S
C1970 H2012 0.929 . S
C1971 C1968 1.356 . S
C1971 C1973 1.358 . S
C1971 H2013 0.930 . S
C1972 N1969 1.314 . S
C1972 C1970 1.353 . S
C1972 H2014 0.930 . S
C1973 N1969 1.279 . S
C1973 C1971 1.358 . S
C1973 H2015 0.930 . S
C1974 C1975 1.348 . S
C1974 C1976 1.356 . S
C1974 O1999 1.325 . S
C1975 C1974 1.348 . S
C1975 C1977 1.353 . S
C1975 H2016 0.929 . S
C1976 C1974 1.356 . S
C1976 C1978 1.358 . S
C1976 H2017 0.930 . S
C1977 C1975 1.353 . S
C1977 N1979 1.314 . S
C1977 H2018 0.930 . S
C1978 C1976 1.358 . S
C1978 N1979 1.279 . S
C1978 H2019 0.930 . S
N1979 C1977 1.314 . S
N1979 C1978 1.279 . S
C1980 C1982 1.353 . S
C1980 N1983 1.314 . S
C1980 H1986 0.930 . S
C1981 N1983 1.279 . S
C1981 C1984 1.358 . S
C1981 H1987 0.930 . S
C1982 C1980 1.353 . S
C1982 C1985 1.348 . S
C1982 H2020 0.929 . S
N1983 Li1938 1.990 . S
N1983 C1980 1.314 . S
N1983 C1981 1.279 . S
C1984 C1981 1.358 . S
C1984 C1985 1.356 . S
C1984 H2021 0.930 . S
C1985 C1982 1.348 . S
C1985 C1984 1.356 . S
H1986 C1980 0.930 . S
H1987 C1981 0.930 . S
C1988 N1989 1.314 . S
C1988 C1990 1.353 . S
C1988 H1994 0.930 . S
N1989 Li1939 1.990 . S
N1989 C1988 1.314 . S
N1989 C1992 1.279 . S
C1990 C1988 1.353 . S
C1990 C1993 1.348 . S
C1990 H2022 0.929 . S
C1991 C1992 1.358 . S
C1991 C1993 1.356 . S
C1991 H2023 0.930 . S
C1992 N1989 1.279 . S
C1992 C1991 1.358 . S
C1992 H1995 0.930 . S
C1993 C1990 1.348 . S
C1993 C1991 1.356 . S
H1994 C1988 0.930 . S
H1995 C1992 0.930 . S
O1996 Li1936 1.956 . S
O1996 Li1937 1.970 . S
O1996 Li1938 1.961 . S
O1996 C1940 1.325 . S
O1997 Li1936 1.970 . S
O1997 Li1937 1.956 . S
O1997 Li1939 1.961 . S
O1997 C1946 1.325 . S
O1998 Li1936 1.961 . S
O1998 Li1938 1.956 . S
O1998 Li1939 1.970 . S
O1998 C1968 1.325 . S
O1999 Li1937 1.961 . S
O1999 Li1938 1.970 . S
O1999 Li1939 1.956 . S
O1999 C1974 1.325 . S
H2000 C1942 0.929 . S
H2001 C1943 0.930 . S
H2002 C1944 0.930 . S
H2003 C1945 0.930 . S
H2004 C1947 0.930 . S
H2005 C1949 0.929 . S
H2006 C1950 0.930 . S
H2007 C1951 0.930 . S
H2008 C1954 0.930 . S
H2009 C1957 0.929 . S
H2010 C1962 0.929 . S
H2011 C1963 0.930 . S
H2012 C1970 0.929 . S
H2013 C1971 0.930 . S
H2014 C1972 0.930 . S
H2015 C1973 0.930 . S
H2016 C1975 0.929 . S
H2017 C1976 0.930 . S
H2018 C1977 0.930 . S
H2019 C1978 0.930 . S
H2020 C1982 0.929 . S
H2021 C1984 0.930 . S
H2022 C1990 0.929 . S
H2023 C1991 0.930 . S
Li2024 N2041 1.990 . S
Li2024 O2084 1.956 . S
Li2024 O2085 1.970 . S
Li2024 O2086 1.961 . S
Li2025 N2049 1.990 . S
Li2025 O2084 1.970 . S
Li2025 O2085 1.956 . S
Li2025 O2087 1.961 . S
Li2026 N2071 1.990 . S
Li2026 O2084 1.961 . S
Li2026 O2086 1.956 . S
Li2026 O2087 1.970 . S
Li2027 N2077 1.990 . S
Li2027 O2085 1.961 . S
Li2027 O2086 1.970 . S
Li2027 O2087 1.956 . S
C2028 C2030 1.348 . S
C2028 C2031 1.356 . S
C2028 O2084 1.325 . S
N2029 C2032 1.314 . S
N2029 C2033 1.279 . S
C2030 C2028 1.348 . S
C2030 C2032 1.353 . S
C2030 H2088 0.929 . S
C2031 C2028 1.356 . S
C2031 C2033 1.358 . S
C2031 H2089 0.930 . S
C2032 N2029 1.314 . S
C2032 C2030 1.353 . S
C2032 H2090 0.930 . S
C2033 N2029 1.279 . S
C2033 C2031 1.358 . S
C2033 H2091 0.930 . S
C2034 C2037 1.348 . S
C2034 C2038 1.356 . S
C2034 O2085 1.325 . S
C2035 N2036 1.279 . S
C2035 C2038 1.358 . S
C2035 H2092 0.930 . S
N2036 C2035 1.279 . S
N2036 C2039 1.314 . S
C2037 C2034 1.348 . S
C2037 C2039 1.353 . S
C2037 H2093 0.929 . S
C2038 C2034 1.356 . S
C2038 C2035 1.358 . S
C2038 H2094 0.930 . S
C2039 N2036 1.314 . S
C2039 C2037 1.353 . S
C2039 H2095 0.930 . S
C2040 N2041 1.314 . S
C2040 C2045 1.353 . S
C2040 H2046 0.930 . S
N2041 Li2024 1.990 . S
N2041 C2040 1.314 . S
N2041 C2043 1.279 . S
C2042 C2043 1.358 . S
C2042 C2044 1.356 . S
C2042 H2096 0.930 . S
C2043 N2041 1.279 . S
C2043 C2042 1.358 . S
C2043 H2047 0.930 . S
C2044 C2042 1.356 . S
C2044 C2045 1.348 . S
C2045 C2040 1.353 . S
C2045 C2044 1.348 . S
C2045 H2097 0.929 . S
H2046 C2040 0.930 . S
H2047 C2043 0.930 . S
C2048 N2049 1.314 . S
C2048 C2050 1.353 . S
C2048 H2054 0.930 . S
N2049 Li2025 1.990 . S
N2049 C2048 1.314 . S
N2049 C2052 1.279 . S
C2050 C2048 1.353 . S
C2050 C2053 1.348 . S
C2050 H2098 0.929 . S
C2051 C2052 1.358 . S
C2051 C2053 1.356 . S
C2051 H2099 0.930 . S
C2052 N2049 1.279 . S
C2052 C2051 1.358 . S
C2052 H2055 0.930 . S
C2053 C2050 1.348 . S
C2053 C2051 1.356 . S
H2054 C2048 0.930 . S
H2055 C2052 0.930 . S
C2056 C2058 1.348 . S
C2056 C2059 1.356 . S
C2056 O2086 1.325 . S
N2057 C2060 1.314 . S
N2057 C2061 1.279 . S
C2058 C2056 1.348 . S
C2058 C2060 1.353 . S
C2058 H2100 0.929 . S
C2059 C2056 1.356 . S
C2059 C2061 1.358 . S
C2059 H2101 0.930 . S
C2060 N2057 1.314 . S
C2060 C2058 1.353 . S
C2060 H2102 0.930 . S
C2061 N2057 1.279 . S
C2061 C2059 1.358 . S
C2061 H2103 0.930 . S
C2062 C2063 1.348 . S
C2062 C2064 1.356 . S
C2062 O2087 1.325 . S
C2063 C2062 1.348 . S
C2063 C2065 1.353 . S
C2063 H2104 0.929 . S
C2064 C2062 1.356 . S
C2064 C2066 1.358 . S
C2064 H2105 0.930 . S
C2065 C2063 1.353 . S
C2065 N2067 1.314 . S
C2065 H2106 0.930 . S
C2066 C2064 1.358 . S
C2066 N2067 1.279 . S
C2066 H2107 0.930 . S
N2067 C2065 1.314 . S
N2067 C2066 1.279 . S
C2068 C2070 1.353 . S
C2068 N2071 1.314 . S
C2068 H2074 0.930 . S
C2069 N2071 1.279 . S
C2069 C2072 1.358 . S
C2069 H2075 0.930 . S
C2070 C2068 1.353 . S
C2070 C2073 1.348 . S
C2070 H2108 0.929 . S
N2071 Li2026 1.990 . S
N2071 C2068 1.314 . S
N2071 C2069 1.279 . S
C2072 C2069 1.358 . S
C2072 C2073 1.356 . S
C2072 H2109 0.930 . S
C2073 C2070 1.348 . S
C2073 C2072 1.356 . S
H2074 C2068 0.930 . S
H2075 C2069 0.930 . S
C2076 N2077 1.314 . S
C2076 C2078 1.353 . S
C2076 H2082 0.930 . S
N2077 Li2027 1.990 . S
N2077 C2076 1.314 . S
N2077 C2080 1.279 . S
C2078 C2076 1.353 . S
C2078 C2081 1.348 . S
C2078 H2110 0.929 . S
C2079 C2080 1.358 . S
C2079 C2081 1.356 . S
C2079 H2111 0.930 . S
C2080 N2077 1.279 . S
C2080 C2079 1.358 . S
C2080 H2083 0.930 . S
C2081 C2078 1.348 . S
C2081 C2079 1.356 . S
H2082 C2076 0.930 . S
H2083 C2080 0.930 . S
O2084 Li2024 1.956 . S
O2084 Li2025 1.970 . S
O2084 Li2026 1.961 . S
O2084 C2028 1.325 . S
O2085 Li2024 1.970 . S
O2085 Li2025 1.956 . S
O2085 Li2027 1.961 . S
O2085 C2034 1.325 . S
O2086 Li2024 1.961 . S
O2086 Li2026 1.956 . S
O2086 Li2027 1.970 . S
O2086 C2056 1.325 . S
O2087 Li2025 1.961 . S
O2087 Li2026 1.970 . S
O2087 Li2027 1.956 . S
O2087 C2062 1.325 . S
H2088 C2030 0.929 . S
H2089 C2031 0.930 . S
H2090 C2032 0.930 . S
H2091 C2033 0.930 . S
H2092 C2035 0.930 . S
H2093 C2037 0.929 . S
H2094 C2038 0.930 . S
H2095 C2039 0.930 . S
H2096 C2042 0.930 . S
H2097 C2045 0.929 . S
H2098 C2050 0.929 . S
H2099 C2051 0.930 . S
H2100 C2058 0.929 . S
H2101 C2059 0.930 . S
H2102 C2060 0.930 . S
H2103 C2061 0.930 . S
H2104 C2063 0.929 . S
H2105 C2064 0.930 . S
H2106 C2065 0.930 . S
H2107 C2066 0.930 . S
H2108 C2070 0.929 . S
H2109 C2072 0.930 . S
H2110 C2078 0.929 . S
H2111 C2079 0.930 . S
Tb2112 C2114 2.813 1_455 S
Tb2112 O2132 2.484 1_455 S
Tb2112 O2133 2.440 1_454 S
Tb2112 O2134 2.640 1_554 S
Tb2112 O2135 2.409 1_554 S
Tb2112 O2136 2.378 . S
Tb2112 O2140 2.325 . S
Tb2112 O2143 2.341 1_545 S
Tb2113 C2123 2.809 1_545 S
Tb2113 O2134 2.280 1_554 S
Tb2113 O2137 2.341 . S
Tb2113 O2138 2.484 1_545 S
Tb2113 O2139 2.440 . S
Tb2113 O2140 2.658 . S
Tb2113 O2141 2.409 . S
Tb2113 O2142 2.378 1_545 S
C2114 Tb2112 2.813 1_655 S
C2114 C2115 1.509 1_554 S
C2114 O2132 1.280 . S
C2114 O2133 1.239 1_554 S
C2115 C2114 1.509 1_556 S
C2115 C2116 1.359 1_556 S
C2115 C2120 1.348 . S
C2116 C2115 1.359 1_554 S
C2116 C2117 1.380 . S
C2116 H2144 0.929 . S
C2117 C2116 1.380 . S
C2117 C2118 1.347 1_554 S
C2117 H2145 0.931 . S
C2118 C2117 1.347 1_556 S
C2118 C2119 1.369 . S
C2119 C2118 1.369 . S
C2119 C2120 1.408 . S
C2119 H2146 0.930 . S
C2120 C2115 1.348 . S
C2120 C2119 1.408 . S
C2120 H2147 0.930 . S
C2121 O2134 1.337 . S
C2121 O2135 1.254 . S
C2122 O2136 1.236 . S
C2122 O2137 1.266 . S
C2123 Tb2113 2.809 1_565 S
C2123 C2124 1.514 . S
C2123 O2138 1.248 . S
C2123 O2139 1.266 1_565 S
C2124 C2123 1.514 . S
C2124 C2125 1.359 . S
C2124 C2129 1.348 . S
C2125 C2124 1.359 . S
C2125 C2126 1.380 . S
C2125 H2148 0.929 . S
C2126 C2125 1.380 . S
C2126 C2127 1.347 . S
C2126 H2149 0.931 . S
C2127 C2126 1.347 . S
C2127 C2128 1.369 . S
C2128 C2127 1.369 . S
C2128 C2129 1.408 . S
C2128 H2150 0.930 . S
C2129 C2124 1.348 . S
C2129 C2128 1.408 . S
C2129 H2151 0.930 . S
C2130 O2140 1.281 . S
C2130 O2141 1.254 . S
C2131 O2142 1.236 . S
C2131 O2143 1.266 . S
O2132 Tb2112 2.484 1_655 S
O2132 C2114 1.280 . S
O2133 Tb2112 2.440 1_656 S
O2133 C2114 1.239 1_556 S
O2134 Tb2112 2.640 1_556 S
O2134 Tb2113 2.280 1_556 S
O2134 C2121 1.337 . S
O2135 Tb2112 2.409 1_556 S
O2135 C2121 1.254 . S
O2136 Tb2112 2.378 . S
O2136 C2122 1.236 . S
O2137 Tb2113 2.341 . S
O2137 C2122 1.266 . S
O2138 Tb2113 2.484 1_565 S
O2138 C2123 1.248 . S
O2139 Tb2113 2.440 . S
O2139 C2123 1.266 1_545 S
O2140 Tb2112 2.325 . S
O2140 Tb2113 2.658 . S
O2140 C2130 1.281 . S
O2141 Tb2113 2.409 . S
O2141 C2130 1.254 . S
O2142 Tb2113 2.378 1_565 S
O2142 C2131 1.236 . S
O2143 Tb2112 2.341 1_565 S
O2143 C2131 1.266 . S
H2144 C2116 0.929 . S
H2145 C2117 0.931 . S
H2146 C2119 0.930 . S
H2147 C2120 0.930 . S
H2148 C2125 0.929 . S
H2149 C2126 0.931 . S
H2150 C2128 0.930 . S
H2151 C2129 0.930 . S
Tb2152 C2154 2.809 . S
Tb2152 O2172 2.484 . S
Tb2152 O2173 2.440 . S
Tb2152 O2174 2.658 . S
Tb2152 O2175 2.409 . S
Tb2152 O2176 2.378 . S
Tb2152 O2180 2.325 . S
Tb2152 O2183 2.341 . S
Tb2153 C2163 2.809 . S
Tb2153 O2174 2.325 . S
Tb2153 O2177 2.341 . S
Tb2153 O2178 2.484 . S
Tb2153 O2179 2.440 . S
Tb2153 O2180 2.658 . S
Tb2153 O2181 2.409 . S
Tb2153 O2182 2.378 . S
C2154 Tb2152 2.809 . S
C2154 C2155 1.514 . S
C2154 O2172 1.248 . S
C2154 O2173 1.266 . S
C2155 C2154 1.514 . S
C2155 C2156 1.359 . S
C2155 C2160 1.348 . S
C2156 C2155 1.359 . S
C2156 C2157 1.380 . S
C2156 H2184 0.929 . S
C2157 C2156 1.380 . S
C2157 C2158 1.347 . S
C2157 H2185 0.931 . S
C2158 C2157 1.347 . S
C2158 C2159 1.369 . S
C2159 C2158 1.369 . S
C2159 C2160 1.408 . S
C2159 H2186 0.930 . S
C2160 C2155 1.348 . S
C2160 C2159 1.408 . S
C2160 H2187 0.930 . S
C2161 O2174 1.281 . S
C2161 O2175 1.254 . S
C2162 O2176 1.236 . S
C2162 O2177 1.266 . S
C2163 Tb2153 2.809 . S
C2163 C2164 1.514 . S
C2163 O2178 1.248 . S
C2163 O2179 1.266 . S
C2164 C2163 1.514 . S
C2164 C2165 1.359 . S
C2164 C2169 1.348 . S
C2165 C2164 1.359 . S
C2165 C2166 1.380 . S
C2165 H2188 0.929 . S
C2166 C2165 1.380 . S
C2166 C2167 1.347 . S
C2166 H2189 0.931 . S
C2167 C2166 1.347 . S
C2167 C2168 1.369 . S
C2168 C2167 1.369 . S
C2168 C2169 1.408 . S
C2168 H2190 0.930 . S
C2169 C2164 1.348 . S
C2169 C2168 1.408 . S
C2169 H2191 0.930 . S
C2170 O2180 1.281 . S
C2170 O2181 1.254 . S
C2171 O2182 1.236 . S
C2171 O2183 1.266 . S
O2172 Tb2152 2.484 . S
O2172 C2154 1.248 . S
O2173 Tb2152 2.440 . S
O2173 C2154 1.266 . S
O2174 Tb2152 2.658 . S
O2174 Tb2153 2.325 . S
O2174 C2161 1.281 . S
O2175 Tb2152 2.409 . S
O2175 C2161 1.254 . S
O2176 Tb2152 2.378 . S
O2176 C2162 1.236 . S
O2177 Tb2153 2.341 . S
O2177 C2162 1.266 . S
O2178 Tb2153 2.484 . S
O2178 C2163 1.248 . S
O2179 Tb2153 2.440 . S
O2179 C2163 1.266 . S
O2180 Tb2152 2.325 . S
O2180 Tb2153 2.658 . S
O2180 C2170 1.281 . S
O2181 Tb2153 2.409 . S
O2181 C2170 1.254 . S
O2182 Tb2153 2.378 . S
O2182 C2171 1.236 . S
O2183 Tb2152 2.341 . S
O2183 C2171 1.266 . S
H2184 C2156 0.929 . S
H2185 C2157 0.931 . S
H2186 C2159 0.930 . S
H2187 C2160 0.930 . S
H2188 C2165 0.929 . S
H2189 C2166 0.931 . S
H2190 C2168 0.930 . S
H2191 C2169 0.930 . S
Tb2192 C2194 2.809 1_545 S
Tb2192 O2212 2.484 1_545 S
Tb2192 O2213 2.440 . S
Tb2192 O2214 2.658 . S
Tb2192 O2215 2.409 . S
Tb2192 O2216 2.378 1_545 S
Tb2192 O2220 2.325 . S
Tb2192 O2223 2.341 . S
Tb2193 C2203 2.809 . S
Tb2193 O2214 2.325 . S
Tb2193 O2217 2.341 1_545 S
Tb2193 O2218 2.484 . S
Tb2193 O2219 2.440 . S
Tb2193 O2220 2.658 . S
Tb2193 O2221 2.409 . S
Tb2193 O2222 2.378 . S
C2194 Tb2192 2.809 1_565 S
C2194 C2195 1.514 . S
C2194 O2212 1.248 . S
C2194 O2213 1.266 1_565 S
C2195 C2194 1.514 . S
C2195 C2196 1.359 . S
C2195 C2200 1.348 . S
C2196 C2195 1.359 . S
C2196 C2197 1.380 . S
C2196 H2224 0.929 . S
C2197 C2196 1.380 . S
C2197 C2198 1.347 . S
C2197 H2225 0.931 . S
C2198 C2197 1.347 . S
C2198 C2199 1.369 . S
C2199 C2198 1.369 . S
C2199 C2200 1.408 . S
C2199 H2226 0.930 . S
C2200 C2195 1.348 . S
C2200 C2199 1.408 . S
C2200 H2227 0.930 . S
C2201 O2214 1.281 . S
C2201 O2215 1.254 . S
C2202 O2216 1.236 . S
C2202 O2217 1.266 . S
C2203 Tb2193 2.809 . S
C2203 C2204 1.514 . S
C2203 O2218 1.248 . S
C2203 O2219 1.266 . S
C2204 C2203 1.514 . S
C2204 C2205 1.359 . S
C2204 C2209 1.348 . S
C2205 C2204 1.359 . S
C2205 C2206 1.380 . S
C2205 H2228 0.929 . S
C2206 C2205 1.380 . S
C2206 C2207 1.347 . S
C2206 H2229 0.931 . S
C2207 C2206 1.347 . S
C2207 C2208 1.369 . S
C2208 C2207 1.369 . S
C2208 C2209 1.408 . S
C2208 H2230 0.930 . S
C2209 C2204 1.348 . S
C2209 C2208 1.408 . S
C2209 H2231 0.930 . S
C2210 O2220 1.281 . S
C2210 O2221 1.254 . S
C2211 O2222 1.236 . S
C2211 O2223 1.266 . S
O2212 Tb2192 2.484 1_565 S
O2212 C2194 1.248 . S
O2213 Tb2192 2.440 . S
O2213 C2194 1.266 1_545 S
O2214 Tb2192 2.658 . S
O2214 Tb2193 2.325 . S
O2214 C2201 1.281 . S
O2215 Tb2192 2.409 . S
O2215 C2201 1.254 . S
O2216 Tb2192 2.378 1_565 S
O2216 C2202 1.236 . S
O2217 Tb2193 2.341 1_565 S
O2217 C2202 1.266 . S
O2218 Tb2193 2.484 . S
O2218 C2203 1.248 . S
O2219 Tb2193 2.440 . S
O2219 C2203 1.266 . S
O2220 Tb2192 2.325 . S
O2220 Tb2193 2.658 . S
O2220 C2210 1.281 . S
O2221 Tb2193 2.409 . S
O2221 C2210 1.254 . S
O2222 Tb2193 2.378 . S
O2222 C2211 1.236 . S
O2223 Tb2192 2.341 . S
O2223 C2211 1.266 . S
H2224 C2196 0.929 . S
H2225 C2197 0.931 . S
H2226 C2199 0.930 . S
H2227 C2200 0.930 . S
H2228 C2205 0.929 . S
H2229 C2206 0.931 . S
H2230 C2208 0.930 . S
H2231 C2209 0.930 . S
Tb2232 C2234 2.809 . S
Tb2232 O2252 2.484 . S
Tb2232 O2253 2.440 . S
Tb2232 O2254 2.658 . S
Tb2232 O2255 2.409 . S
Tb2232 O2256 2.378 . S
Tb2232 O2260 2.325 . S
Tb2232 O2263 2.341 . S
Tb2233 C2243 2.809 . S
Tb2233 O2254 2.325 . S
Tb2233 O2257 2.341 . S
Tb2233 O2258 2.484 . S
Tb2233 O2259 2.440 . S
Tb2233 O2260 2.658 . S
Tb2233 O2261 2.409 . S
Tb2233 O2262 2.378 . S
C2234 Tb2232 2.809 . S
C2234 C2235 1.514 . S
C2234 O2252 1.248 . S
C2234 O2253 1.266 . S
C2235 C2234 1.514 . S
C2235 C2236 1.359 . S
C2235 C2240 1.348 . S
C2236 C2235 1.359 . S
C2236 C2237 1.380 . S
C2236 H2264 0.929 . S
C2237 C2236 1.380 . S
C2237 C2238 1.347 . S
C2237 H2265 0.931 . S
C2238 C2237 1.347 . S
C2238 C2239 1.369 . S
C2239 C2238 1.369 . S
C2239 C2240 1.408 . S
C2239 H2266 0.930 . S
C2240 C2235 1.348 . S
C2240 C2239 1.408 . S
C2240 H2267 0.930 . S
C2241 O2254 1.281 . S
C2241 O2255 1.254 . S
C2242 O2256 1.236 . S
C2242 O2257 1.266 . S
C2243 Tb2233 2.809 . S
C2243 C2244 1.514 . S
C2243 O2258 1.248 . S
C2243 O2259 1.266 . S
C2244 C2243 1.514 . S
C2244 C2245 1.359 . S
C2244 C2249 1.348 . S
C2245 C2244 1.359 . S
C2245 C2246 1.380 . S
C2245 H2268 0.929 . S
C2246 C2245 1.380 . S
C2246 C2247 1.347 . S
C2246 H2269 0.931 . S
C2247 C2246 1.347 . S
C2247 C2248 1.369 . S
C2248 C2247 1.369 . S
C2248 C2249 1.408 . S
C2248 H2270 0.930 . S
C2249 C2244 1.348 . S
C2249 C2248 1.408 . S
C2249 H2271 0.930 . S
C2250 O2260 1.281 . S
C2250 O2261 1.254 . S
C2251 O2262 1.236 . S
C2251 O2263 1.266 . S
O2252 Tb2232 2.484 . S
O2252 C2234 1.248 . S
O2253 Tb2232 2.440 . S
O2253 C2234 1.266 . S
O2254 Tb2232 2.658 . S
O2254 Tb2233 2.325 . S
O2254 C2241 1.281 . S
O2255 Tb2232 2.409 . S
O2255 C2241 1.254 . S
O2256 Tb2232 2.378 . S
O2256 C2242 1.236 . S
O2257 Tb2233 2.341 . S
O2257 C2242 1.266 . S
O2258 Tb2233 2.484 . S
O2258 C2243 1.248 . S
O2259 Tb2233 2.440 . S
O2259 C2243 1.266 . S
O2260 Tb2232 2.325 . S
O2260 Tb2233 2.658 . S
O2260 C2250 1.281 . S
O2261 Tb2233 2.409 . S
O2261 C2250 1.254 . S
O2262 Tb2233 2.378 . S
O2262 C2251 1.236 . S
O2263 Tb2232 2.341 . S
O2263 C2251 1.266 . S
H2264 C2236 0.929 . S
H2265 C2237 0.931 . S
H2266 C2239 0.930 . S
H2267 C2240 0.930 . S
H2268 C2245 0.929 . S
H2269 C2246 0.931 . S
H2270 C2248 0.930 . S
H2271 C2249 0.930 . S
Tb2272 C2274 2.809 . S
Tb2272 O2292 2.484 . S
Tb2272 O2293 2.440 . S
Tb2272 O2294 2.658 . S
Tb2272 O2295 2.409 1_455 S
Tb2272 O2296 2.378 . S
Tb2272 O2300 2.325 . S
Tb2272 O2303 2.341 . S
Tb2273 C2283 2.809 . S
Tb2273 O2294 2.325 1_565 S
Tb2273 O2297 2.355 . S
Tb2273 O2298 2.484 . S
Tb2273 O2299 2.440 . S
Tb2273 O2300 2.658 1_565 S
Tb2273 O2301 2.409 1_565 S
Tb2273 O2302 2.378 1_565 S
C2274 Tb2272 2.809 . S
C2274 C2275 1.514 . S
C2274 O2292 1.248 . S
C2274 O2293 1.266 . S
C2275 C2274 1.514 . S
C2275 C2276 1.359 . S
C2275 C2280 1.348 1_455 S
C2276 C2275 1.359 . S
C2276 C2277 1.380 . S
C2276 H2304 0.929 . S
C2277 C2276 1.380 . S
C2277 C2278 1.347 . S
C2277 H2305 0.931 . S
C2278 C2277 1.347 . S
C2278 C2279 1.369 1_455 S
C2279 C2278 1.369 1_655 S
C2279 C2280 1.408 . S
C2279 H2306 0.930 . S
C2280 C2275 1.348 1_655 S
C2280 C2279 1.408 . S
C2280 H2307 0.930 . S
C2281 O2294 1.281 1_655 S
C2281 O2295 1.254 . S
C2282 O2296 1.236 . S
C2282 O2297 1.242 1_545 S
C2283 Tb2273 2.809 . S
C2283 C2284 1.514 . S
C2283 O2298 1.248 . S
C2283 O2299 1.266 . S
C2284 C2283 1.514 . S
C2284 C2285 1.359 . S
C2284 C2289 1.348 . S
C2285 C2284 1.359 . S
C2285 C2286 1.380 . S
C2285 H2308 0.929 . S
C2286 C2285 1.380 . S
C2286 C2287 1.347 . S
C2286 H2309 0.931 . S
C2287 C2286 1.347 . S
C2287 C2288 1.369 . S
C2288 C2287 1.369 . S
C2288 C2289 1.408 . S
C2288 H2310 0.930 . S
C2289 C2284 1.348 . S
C2289 C2288 1.408 . S
C2289 H2311 0.930 . S
C2290 O2300 1.281 . S
C2290 O2301 1.254 . S
C2291 O2302 1.236 . S
C2291 O2303 1.266 . S
O2292 Tb2272 2.484 . S
O2292 C2274 1.248 . S
O2293 Tb2272 2.440 . S
O2293 C2274 1.266 . S
O2294 Tb2272 2.658 . S
O2294 Tb2273 2.325 1_545 S
O2294 C2281 1.281 1_455 S
O2295 Tb2272 2.409 1_655 S
O2295 C2281 1.254 . S
O2296 Tb2272 2.378 . S
O2296 C2282 1.236 . S
O2297 Tb2273 2.355 . S
O2297 C2282 1.242 1_565 S
O2298 Tb2273 2.484 . S
O2298 C2283 1.248 . S
O2299 Tb2273 2.440 . S
O2299 C2283 1.266 . S
O2300 Tb2272 2.325 . S
O2300 Tb2273 2.658 1_545 S
O2300 C2290 1.281 . S
O2301 Tb2273 2.409 1_545 S
O2301 C2290 1.254 . S
O2302 Tb2273 2.378 1_545 S
O2302 C2291 1.236 . S
O2303 Tb2272 2.341 . S
O2303 C2291 1.266 . S
H2304 C2276 0.929 . S
H2305 C2277 0.931 . S
H2306 C2279 0.930 . S
H2307 C2280 0.930 . S
H2308 C2285 0.929 . S
H2309 C2286 0.931 . S
H2310 C2288 0.930 . S
H2311 C2289 0.930 . S
Tb2312 C2314 2.809 . S
Tb2312 O2332 2.484 . S
Tb2312 O2333 2.440 . S
Tb2312 O2334 2.658 . S
Tb2312 O2335 2.409 . S
Tb2312 O2336 2.378 . S
Tb2312 O2340 2.325 . S
Tb2312 O2343 2.341 . S
Tb2313 C2323 2.809 . S
Tb2313 O2334 2.325 . S
Tb2313 O2337 2.341 . S
Tb2313 O2338 2.484 . S
Tb2313 O2339 2.440 . S
Tb2313 O2340 2.658 . S
Tb2313 O2341 2.409 . S
Tb2313 O2342 2.378 . S
C2314 Tb2312 2.809 . S
C2314 C2315 1.514 . S
C2314 O2332 1.248 . S
C2314 O2333 1.266 . S
C2315 C2314 1.514 . S
C2315 C2316 1.359 . S
C2315 C2320 1.348 . S
C2316 C2315 1.359 . S
C2316 C2317 1.380 . S
C2316 H2344 0.929 . S
C2317 C2316 1.380 . S
C2317 C2318 1.347 . S
C2317 H2345 0.931 . S
C2318 C2317 1.347 . S
C2318 C2319 1.369 . S
C2319 C2318 1.369 . S
C2319 C2320 1.408 . S
C2319 H2346 0.930 . S
C2320 C2315 1.348 . S
C2320 C2319 1.408 . S
C2320 H2347 0.930 . S
C2321 O2334 1.281 . S
C2321 O2335 1.254 . S
C2322 O2336 1.236 . S
C2322 O2337 1.266 . S
C2323 Tb2313 2.809 . S
C2323 C2324 1.514 . S
C2323 O2338 1.248 . S
C2323 O2339 1.266 . S
C2324 C2323 1.514 . S
C2324 C2325 1.359 . S
C2324 C2329 1.348 . S
C2325 C2324 1.359 . S
C2325 C2326 1.380 . S
C2325 H2348 0.929 . S
C2326 C2325 1.380 . S
C2326 C2327 1.347 . S
C2326 H2349 0.931 . S
C2327 C2326 1.347 . S
C2327 C2328 1.369 . S
C2328 C2327 1.369 . S
C2328 C2329 1.408 . S
C2328 H2350 0.930 . S
C2329 C2324 1.348 . S
C2329 C2328 1.408 . S
C2329 H2351 0.930 . S
C2330 O2340 1.281 . S
C2330 O2341 1.254 . S
C2331 O2342 1.236 . S
C2331 O2343 1.266 . S
O2332 Tb2312 2.484 . S
O2332 C2314 1.248 . S
O2333 Tb2312 2.440 . S
O2333 C2314 1.266 . S
O2334 Tb2312 2.658 . S
O2334 Tb2313 2.325 . S
O2334 C2321 1.281 . S
O2335 Tb2312 2.409 . S
O2335 C2321 1.254 . S
O2336 Tb2312 2.378 . S
O2336 C2322 1.236 . S
O2337 Tb2313 2.341 . S
O2337 C2322 1.266 . S
O2338 Tb2313 2.484 . S
O2338 C2323 1.248 . S
O2339 Tb2313 2.440 . S
O2339 C2323 1.266 . S
O2340 Tb2312 2.325 . S
O2340 Tb2313 2.658 . S
O2340 C2330 1.281 . S
O2341 Tb2313 2.409 . S
O2341 C2330 1.254 . S
O2342 Tb2313 2.378 . S
O2342 C2331 1.236 . S
O2343 Tb2312 2.341 . S
O2343 C2331 1.266 . S
H2344 C2316 0.929 . S
H2345 C2317 0.931 . S
H2346 C2319 0.930 . S
H2347 C2320 0.930 . S
H2348 C2325 0.929 . S
H2349 C2326 0.931 . S
H2350 C2328 0.930 . S
H2351 C2329 0.930 . S
Tb2352 C2354 2.809 1_545 S
Tb2352 O2372 2.484 1_545 S
Tb2352 O2373 2.440 . S
Tb2352 O2374 2.658 . S
Tb2352 O2375 2.409 . S
Tb2352 O2376 2.378 . S
Tb2352 O2380 2.325 1_545 S
Tb2352 O2383 2.341 1_554 S
Tb2353 C2363 2.809 . S
Tb2353 O2374 2.325 . S
Tb2353 O2377 2.341 . S
Tb2353 O2378 2.484 . S
Tb2353 O2379 2.440 . S
Tb2353 O2380 2.658 1_545 S
Tb2353 O2381 2.409 1_545 S
Tb2353 O2382 2.356 1_554 S
C2354 Tb2352 2.809 1_565 S
C2354 C2355 1.514 . S
C2354 O2372 1.248 . S
C2354 O2373 1.266 1_565 S
C2355 C2354 1.514 . S
C2355 C2356 1.359 . S
C2355 C2360 1.348 1_565 S
C2356 C2355 1.359 . S
C2356 C2357 1.380 . S
C2356 H2384 0.929 . S
C2357 C2356 1.380 . S
C2357 C2358 1.347 . S
C2357 H2385 0.931 . S
C2358 C2357 1.347 . S
C2358 C2359 1.369 . S
C2359 C2358 1.369 . S
C2359 C2360 1.408 1_565 S
C2359 H2386 0.930 1_565 S
C2360 C2355 1.348 1_545 S
C2360 C2359 1.408 1_545 S
C2360 H2387 0.930 . S
C2361 O2374 1.281 . S
C2361 O2375 1.254 . S
C2362 O2376 1.236 . S
C2362 O2377 1.266 . S
C2363 Tb2353 2.809 . S
C2363 C2364 1.514 . S
C2363 O2378 1.248 . S
C2363 O2379 1.266 . S
C2364 C2363 1.514 . S
C2364 C2365 1.359 . S
C2364 C2369 1.348 . S
C2365 C2364 1.359 . S
C2365 C2366 1.380 . S
C2365 H2388 0.929 . S
C2366 C2365 1.380 . S
C2366 C2367 1.347 . S
C2366 H2389 0.931 . S
C2367 C2366 1.347 . S
C2367 C2368 1.369 . S
C2368 C2367 1.369 . S
C2368 C2369 1.408 . S
C2368 H2390 0.930 . S
C2369 C2364 1.348 . S
C2369 C2368 1.408 . S
C2369 H2391 0.930 . S
C2370 O2380 1.281 . S
C2370 O2381 1.254 . S
C2371 O2382 1.252 . S
C2371 O2383 1.266 . S
O2372 Tb2352 2.484 1_565 S
O2372 C2354 1.248 . S
O2373 Tb2352 2.440 . S
O2373 C2354 1.266 1_545 S
O2374 Tb2352 2.658 . S
O2374 Tb2353 2.325 . S
O2374 C2361 1.281 . S
O2375 Tb2352 2.409 . S
O2375 C2361 1.254 . S
O2376 Tb2352 2.378 . S
O2376 C2362 1.236 . S
O2377 Tb2353 2.341 . S
O2377 C2362 1.266 . S
O2378 Tb2353 2.484 . S
O2378 C2363 1.248 . S
O2379 Tb2353 2.440 . S
O2379 C2363 1.266 . S
O2380 Tb2352 2.325 1_565 S
O2380 Tb2353 2.658 1_565 S
O2380 C2370 1.281 . S
O2381 Tb2353 2.409 1_565 S
O2381 C2370 1.254 . S
O2382 Tb2353 2.356 1_556 S
O2382 C2371 1.252 . S
O2383 Tb2352 2.341 1_556 S
O2383 C2371 1.266 . S
H2384 C2356 0.929 . S
H2385 C2357 0.931 . S
H2386 C2359 0.930 1_545 S
H2387 C2360 0.930 . S
H2388 C2365 0.929 . S
H2389 C2366 0.931 . S
H2390 C2368 0.930 . S
H2391 C2369 0.930 . S
Tb2392 C2394 2.809 . S
Tb2392 O2412 2.484 . S
Tb2392 O2413 2.440 . S
Tb2392 O2414 2.658 . S
Tb2392 O2415 2.409 . S
Tb2392 O2416 2.378 . S
Tb2392 O2420 2.325 . S
Tb2392 O2423 2.341 . S
Tb2393 C2403 2.809 . S
Tb2393 O2414 2.325 . S
Tb2393 O2417 2.341 . S
Tb2393 O2418 2.484 . S
Tb2393 O2419 2.440 . S
Tb2393 O2420 2.658 . S
Tb2393 O2421 2.409 . S
Tb2393 O2422 2.378 . S
C2394 Tb2392 2.809 . S
C2394 C2395 1.514 . S
C2394 O2412 1.248 . S
C2394 O2413 1.266 . S
C2395 C2394 1.514 . S
C2395 C2396 1.359 . S
C2395 C2400 1.348 . S
C2396 C2395 1.359 . S
C2396 C2397 1.380 . S
C2396 H2424 0.929 . S
C2397 C2396 1.380 . S
C2397 C2398 1.347 . S
C2397 H2425 0.931 . S
C2398 C2397 1.347 . S
C2398 C2399 1.369 . S
C2399 C2398 1.369 . S
C2399 C2400 1.408 . S
C2399 H2426 0.930 . S
C2400 C2395 1.348 . S
C2400 C2399 1.408 . S
C2400 H2427 0.930 . S
C2401 O2414 1.281 . S
C2401 O2415 1.254 . S
C2402 O2416 1.236 . S
C2402 O2417 1.266 . S
C2403 Tb2393 2.809 . S
C2403 C2404 1.514 . S
C2403 O2418 1.248 . S
C2403 O2419 1.266 . S
C2404 C2403 1.514 . S
C2404 C2405 1.359 . S
C2404 C2409 1.348 . S
C2405 C2404 1.359 . S
C2405 C2406 1.380 . S
C2405 H2428 0.929 . S
C2406 C2405 1.380 . S
C2406 C2407 1.347 . S
C2406 H2429 0.931 . S
C2407 C2406 1.347 . S
C2407 C2408 1.369 . S
C2408 C2407 1.369 . S
C2408 C2409 1.408 . S
C2408 H2430 0.930 . S
C2409 C2404 1.348 . S
C2409 C2408 1.408 . S
C2409 H2431 0.930 . S
C2410 O2420 1.281 . S
C2410 O2421 1.254 . S
C2411 O2422 1.236 . S
C2411 O2423 1.266 . S
O2412 Tb2392 2.484 . S
O2412 C2394 1.248 . S
O2413 Tb2392 2.440 . S
O2413 C2394 1.266 . S
O2414 Tb2392 2.658 . S
O2414 Tb2393 2.325 . S
O2414 C2401 1.281 . S
O2415 Tb2392 2.409 . S
O2415 C2401 1.254 . S
O2416 Tb2392 2.378 . S
O2416 C2402 1.236 . S
O2417 Tb2393 2.341 . S
O2417 C2402 1.266 . S
O2418 Tb2393 2.484 . S
O2418 C2403 1.248 . S
O2419 Tb2393 2.440 . S
O2419 C2403 1.266 . S
O2420 Tb2392 2.325 . S
O2420 Tb2393 2.658 . S
O2420 C2410 1.281 . S
O2421 Tb2393 2.409 . S
O2421 C2410 1.254 . S
O2422 Tb2393 2.378 . S
O2422 C2411 1.236 . S
O2423 Tb2392 2.341 . S
O2423 C2411 1.266 . S
H2424 C2396 0.929 . S
H2425 C2397 0.931 . S
H2426 C2399 0.930 . S
H2427 C2400 0.930 . S
H2428 C2405 0.929 . S
H2429 C2406 0.931 . S
H2430 C2408 0.930 . S
H2431 C2409 0.930 . S
Tb2432 C2434 2.805 . S
Tb2432 O2452 2.514 . S
Tb2432 O2453 2.440 . S
Tb2432 O2454 2.658 . S
Tb2432 O2455 2.409 . S
Tb2432 O2456 2.378 1_554 S
Tb2432 O2460 2.325 . S
Tb2432 O2463 2.341 . S
Tb2433 C2443 2.809 . S
Tb2433 O2454 2.325 . S
Tb2433 O2457 2.341 1_554 S
Tb2433 O2458 2.484 . S
Tb2433 O2459 2.440 . S
Tb2433 O2460 2.658 . S
Tb2433 O2461 2.409 . S
Tb2433 O2462 2.378 . S
C2434 Tb2432 2.805 . S
C2434 C2435 1.517 1_554 S
C2434 O2452 1.251 . S
C2434 O2453 1.262 . S
C2435 C2434 1.517 1_556 S
C2435 C2436 1.359 . S
C2435 C2440 1.348 . S
C2436 C2435 1.359 . S
C2436 C2437 1.380 . S
C2436 H2464 0.929 . S
C2437 C2436 1.380 . S
C2437 C2438 1.347 . S
C2437 H2465 0.931 . S
C2438 C2437 1.347 . S
C2438 C2439 1.369 . S
C2439 C2438 1.369 . S
C2439 C2440 1.408 . S
C2439 H2466 0.930 . S
C2440 C2435 1.348 . S
C2440 C2439 1.408 . S
C2440 H2467 0.930 . S
C2441 O2454 1.281 . S
C2441 O2455 1.254 . S
C2442 O2456 1.236 . S
C2442 O2457 1.266 . S
C2443 Tb2433 2.809 . S
C2443 C2444 1.514 . S
C2443 O2458 1.248 . S
C2443 O2459 1.266 . S
C2444 C2443 1.514 . S
C2444 C2445 1.359 . S
C2444 C2449 1.348 . S
C2445 C2444 1.359 . S
C2445 C2446 1.380 . S
C2445 H2468 0.929 . S
C2446 C2445 1.380 . S
C2446 C2447 1.347 . S
C2446 H2469 0.931 . S
C2447 C2446 1.347 . S
C2447 C2448 1.369 . S
C2448 C2447 1.369 . S
C2448 C2449 1.408 . S
C2448 H2470 0.930 . S
C2449 C2444 1.348 . S
C2449 C2448 1.408 . S
C2449 H2471 0.930 . S
C2450 O2460 1.281 . S
C2450 O2461 1.254 . S
C2451 O2462 1.236 . S
C2451 O2463 1.266 . S
O2452 Tb2432 2.514 . S
O2452 C2434 1.251 . S
O2453 Tb2432 2.440 . S
O2453 C2434 1.262 . S
O2454 Tb2432 2.658 . S
O2454 Tb2433 2.325 . S
O2454 C2441 1.281 . S
O2455 Tb2432 2.409 . S
O2455 C2441 1.254 . S
O2456 Tb2432 2.378 1_556 S
O2456 C2442 1.236 . S
O2457 Tb2433 2.341 1_556 S
O2457 C2442 1.266 . S
O2458 Tb2433 2.484 . S
O2458 C2443 1.248 . S
O2459 Tb2433 2.440 . S
O2459 C2443 1.266 . S
O2460 Tb2432 2.325 . S
O2460 Tb2433 2.658 . S
O2460 C2450 1.281 . S
O2461 Tb2433 2.409 . S
O2461 C2450 1.254 . S
O2462 Tb2433 2.378 . S
O2462 C2451 1.236 . S
O2463 Tb2432 2.341 . S
O2463 C2451 1.266 . S
H2464 C2436 0.929 . S
H2465 C2437 0.931 . S
H2466 C2439 0.930 . S
H2467 C2440 0.930 . S
H2468 C2445 0.929 . S
H2469 C2446 0.931 . S
H2470 C2448 0.930 . S
H2471 C2449 0.930 . S
Tb2472 C2474 2.809 . S
Tb2472 O2492 2.484 . S
Tb2472 O2493 2.440 . S
Tb2472 O2494 2.658 . S
Tb2472 O2495 2.409 . S
Tb2472 O2496 2.378 . S
Tb2472 O2500 2.325 . S
Tb2472 O2503 2.341 . S
Tb2473 C2483 2.809 . S
Tb2473 O2494 2.325 . S
Tb2473 O2497 2.341 . S
Tb2473 O2498 2.484 . S
Tb2473 O2499 2.440 . S
Tb2473 O2500 2.658 . S
Tb2473 O2501 2.409 . S
Tb2473 O2502 2.378 . S
C2474 Tb2472 2.809 . S
C2474 C2475 1.514 . S
C2474 O2492 1.248 . S
C2474 O2493 1.266 . S
C2475 C2474 1.514 . S
C2475 C2476 1.359 . S
C2475 C2480 1.348 . S
C2476 C2475 1.359 . S
C2476 C2477 1.380 . S
C2476 H2504 0.929 . S
C2477 C2476 1.380 . S
C2477 C2478 1.347 . S
C2477 H2505 0.931 . S
C2478 C2477 1.347 . S
C2478 C2479 1.369 . S
C2479 C2478 1.369 . S
C2479 C2480 1.408 . S
C2479 H2506 0.930 . S
C2480 C2475 1.348 . S
C2480 C2479 1.408 . S
C2480 H2507 0.930 . S
C2481 O2494 1.281 . S
C2481 O2495 1.254 . S
C2482 O2496 1.236 . S
C2482 O2497 1.266 . S
C2483 Tb2473 2.809 . S
C2483 C2484 1.514 . S
C2483 O2498 1.248 . S
C2483 O2499 1.266 . S
C2484 C2483 1.514 . S
C2484 C2485 1.359 . S
C2484 C2489 1.348 . S
C2485 C2484 1.359 . S
C2485 C2486 1.380 . S
C2485 H2508 0.929 . S
C2486 C2485 1.380 . S
C2486 C2487 1.347 . S
C2486 H2509 0.931 . S
C2487 C2486 1.347 . S
C2487 C2488 1.369 . S
C2488 C2487 1.369 . S
C2488 C2489 1.408 . S
C2488 H2510 0.930 . S
C2489 C2484 1.348 . S
C2489 C2488 1.408 . S
C2489 H2511 0.930 . S
C2490 O2500 1.281 . S
C2490 O2501 1.254 . S
C2491 O2502 1.236 . S
C2491 O2503 1.266 . S
O2492 Tb2472 2.484 . S
O2492 C2474 1.248 . S
O2493 Tb2472 2.440 . S
O2493 C2474 1.266 . S
O2494 Tb2472 2.658 . S
O2494 Tb2473 2.325 . S
O2494 C2481 1.281 . S
O2495 Tb2472 2.409 . S
O2495 C2481 1.254 . S
O2496 Tb2472 2.378 . S
O2496 C2482 1.236 . S
O2497 Tb2473 2.341 . S
O2497 C2482 1.266 . S
O2498 Tb2473 2.484 . S
O2498 C2483 1.248 . S
O2499 Tb2473 2.440 . S
O2499 C2483 1.266 . S
O2500 Tb2472 2.325 . S
O2500 Tb2473 2.658 . S
O2500 C2490 1.281 . S
O2501 Tb2473 2.409 . S
O2501 C2490 1.254 . S
O2502 Tb2473 2.378 . S
O2502 C2491 1.236 . S
O2503 Tb2472 2.341 . S
O2503 C2491 1.266 . S
H2504 C2476 0.929 . S
H2505 C2477 0.931 . S
H2506 C2479 0.930 . S
H2507 C2480 0.930 . S
H2508 C2485 0.929 . S
H2509 C2486 0.931 . S
H2510 C2488 0.930 . S
H2511 C2489 0.930 . S
Tb2512 C2514 2.809 1_455 S
Tb2512 O2532 2.484 1_455 S
Tb2512 O2533 2.440 1_455 S
Tb2512 O2534 2.658 . S
Tb2512 O2535 2.409 . S
Tb2512 O2536 2.378 . S
Tb2512 O2540 2.325 . S
Tb2512 O2543 2.341 . S
Tb2513 C2523 2.809 . S
Tb2513 O2534 2.325 . S
Tb2513 O2537 2.341 . S
Tb2513 O2538 2.484 . S
Tb2513 O2539 2.440 . S
Tb2513 O2540 2.658 . S
Tb2513 O2541 2.409 . S
Tb2513 O2542 2.378 . S
C2514 Tb2512 2.809 1_655 S
C2514 C2515 1.514 . S
C2514 O2532 1.248 . S
C2514 O2533 1.266 . S
C2515 C2514 1.514 . S
C2515 C2516 1.359 . S
C2515 C2520 1.348 . S
C2516 C2515 1.359 . S
C2516 C2517 1.380 . S
C2516 H2544 0.929 . S
C2517 C2516 1.380 . S
C2517 C2518 1.347 . S
C2517 H2545 0.931 . S
C2518 C2517 1.347 . S
C2518 C2519 1.369 . S
C2519 C2518 1.369 . S
C2519 C2520 1.408 . S
C2519 H2546 0.930 . S
C2520 C2515 1.348 . S
C2520 C2519 1.408 . S
C2520 H2547 0.930 . S
C2521 O2534 1.281 . S
C2521 O2535 1.254 . S
C2522 O2536 1.236 . S
C2522 O2537 1.266 . S
C2523 Tb2513 2.809 . S
C2523 C2524 1.514 . S
C2523 O2538 1.248 . S
C2523 O2539 1.266 . S
C2524 C2523 1.514 . S
C2524 C2525 1.359 . S
C2524 C2529 1.348 . S
C2525 C2524 1.359 . S
C2525 C2526 1.380 . S
C2525 H2548 0.929 . S
C2526 C2525 1.380 . S
C2526 C2527 1.347 . S
C2526 H2549 0.931 . S
C2527 C2526 1.347 . S
C2527 C2528 1.369 . S
C2528 C2527 1.369 . S
C2528 C2529 1.408 . S
C2528 H2550 0.930 . S
C2529 C2524 1.348 . S
C2529 C2528 1.408 . S
C2529 H2551 0.930 . S
C2530 O2540 1.281 . S
C2530 O2541 1.254 . S
C2531 O2542 1.236 . S
C2531 O2543 1.266 . S
O2532 Tb2512 2.484 1_655 S
O2532 C2514 1.248 . S
O2533 Tb2512 2.440 1_655 S
O2533 C2514 1.266 . S
O2534 Tb2512 2.658 . S
O2534 Tb2513 2.325 . S
O2534 C2521 1.281 . S
O2535 Tb2512 2.409 . S
O2535 C2521 1.254 . S
O2536 Tb2512 2.378 . S
O2536 C2522 1.236 . S
O2537 Tb2513 2.341 . S
O2537 C2522 1.266 . S
O2538 Tb2513 2.484 . S
O2538 C2523 1.248 . S
O2539 Tb2513 2.440 . S
O2539 C2523 1.266 . S
O2540 Tb2512 2.325 . S
O2540 Tb2513 2.658 . S
O2540 C2530 1.281 . S
O2541 Tb2513 2.409 . S
O2541 C2530 1.254 . S
O2542 Tb2513 2.378 . S
O2542 C2531 1.236 . S
O2543 Tb2512 2.341 . S
O2543 C2531 1.266 . S
H2544 C2516 0.929 . S
H2545 C2517 0.931 . S
H2546 C2519 0.930 . S
H2547 C2520 0.930 . S
H2548 C2525 0.929 . S
H2549 C2526 0.931 . S
H2550 C2528 0.930 . S
H2551 C2529 0.930 . S
Tb2552 C2554 2.809 . S
Tb2552 O2572 2.484 . S
Tb2552 O2573 2.440 . S
Tb2552 O2574 2.658 . S
Tb2552 O2575 2.409 . S
Tb2552 O2576 2.378 . S
Tb2552 O2580 2.325 . S
Tb2552 O2583 2.341 . S
Tb2553 C2563 2.809 . S
Tb2553 O2574 2.325 . S
Tb2553 O2577 2.341 . S
Tb2553 O2578 2.484 . S
Tb2553 O2579 2.440 . S
Tb2553 O2580 2.658 . S
Tb2553 O2581 2.409 . S
Tb2553 O2582 2.378 . S
C2554 Tb2552 2.809 . S
C2554 C2555 1.514 . S
C2554 O2572 1.248 . S
C2554 O2573 1.266 . S
C2555 C2554 1.514 . S
C2555 C2556 1.359 . S
C2555 C2560 1.348 . S
C2556 C2555 1.359 . S
C2556 C2557 1.380 . S
C2556 H2584 0.929 . S
C2557 C2556 1.380 . S
C2557 C2558 1.347 . S
C2557 H2585 0.931 . S
C2558 C2557 1.347 . S
C2558 C2559 1.369 . S
C2559 C2558 1.369 . S
C2559 C2560 1.408 . S
C2559 H2586 0.930 . S
C2560 C2555 1.348 . S
C2560 C2559 1.408 . S
C2560 H2587 0.930 . S
C2561 O2574 1.281 . S
C2561 O2575 1.254 . S
C2562 O2576 1.236 . S
C2562 O2577 1.266 . S
C2563 Tb2553 2.809 . S
C2563 C2564 1.514 . S
C2563 O2578 1.248 . S
C2563 O2579 1.266 . S
C2564 C2563 1.514 . S
C2564 C2565 1.359 . S
C2564 C2569 1.348 . S
C2565 C2564 1.359 . S
C2565 C2566 1.380 . S
C2565 H2588 0.929 . S
C2566 C2565 1.380 . S
C2566 C2567 1.347 . S
C2566 H2589 0.931 . S
C2567 C2566 1.347 . S
C2567 C2568 1.369 . S
C2568 C2567 1.369 . S
C2568 C2569 1.408 . S
C2568 H2590 0.930 . S
C2569 C2564 1.348 . S
C2569 C2568 1.408 . S
C2569 H2591 0.930 . S
C2570 O2580 1.281 . S
C2570 O2581 1.254 . S
C2571 O2582 1.236 . S
C2571 O2583 1.266 . S
O2572 Tb2552 2.484 . S
O2572 C2554 1.248 . S
O2573 Tb2552 2.440 . S
O2573 C2554 1.266 . S
O2574 Tb2552 2.658 . S
O2574 Tb2553 2.325 . S
O2574 C2561 1.281 . S
O2575 Tb2552 2.409 . S
O2575 C2561 1.254 . S
O2576 Tb2552 2.378 . S
O2576 C2562 1.236 . S
O2577 Tb2553 2.341 . S
O2577 C2562 1.266 . S
O2578 Tb2553 2.484 . S
O2578 C2563 1.248 . S
O2579 Tb2553 2.440 . S
O2579 C2563 1.266 . S
O2580 Tb2552 2.325 . S
O2580 Tb2553 2.658 . S
O2580 C2570 1.281 . S
O2581 Tb2553 2.409 . S
O2581 C2570 1.254 . S
O2582 Tb2553 2.378 . S
O2582 C2571 1.236 . S
O2583 Tb2552 2.341 . S
O2583 C2571 1.266 . S
H2584 C2556 0.929 . S
H2585 C2557 0.931 . S
H2586 C2559 0.930 . S
H2587 C2560 0.930 . S
H2588 C2565 0.929 . S
H2589 C2566 0.931 . S
H2590 C2568 0.930 . S
H2591 C2569 0.930 . S
Tb2592 C2594 2.809 . S
Tb2592 O2612 2.484 . S
Tb2592 O2613 2.440 . S
Tb2592 O2614 2.658 . S
Tb2592 O2615 2.409 . S
Tb2592 O2616 2.378 . S
Tb2592 O2620 2.325 . S
Tb2592 O2623 2.341 . S
Tb2593 C2603 2.809 . S
Tb2593 O2614 2.325 . S
Tb2593 O2617 2.341 . S
Tb2593 O2618 2.484 . S
Tb2593 O2619 2.440 . S
Tb2593 O2620 2.658 . S
Tb2593 O2621 2.409 . S
Tb2593 O2622 2.378 . S
C2594 Tb2592 2.809 . S
C2594 C2595 1.514 . S
C2594 O2612 1.248 . S
C2594 O2613 1.266 . S
C2595 C2594 1.514 . S
C2595 C2596 1.359 . S
C2595 C2600 1.348 . S
C2596 C2595 1.359 . S
C2596 C2597 1.380 . S
C2596 H2624 0.929 . S
C2597 C2596 1.380 . S
C2597 C2598 1.347 . S
C2597 H2625 0.931 . S
C2598 C2597 1.347 . S
C2598 C2599 1.369 . S
C2599 C2598 1.369 . S
C2599 C2600 1.408 . S
C2599 H2626 0.930 . S
C2600 C2595 1.348 . S
C2600 C2599 1.408 . S
C2600 H2627 0.930 . S
C2601 O2614 1.281 . S
C2601 O2615 1.254 . S
C2602 O2616 1.236 . S
C2602 O2617 1.266 . S
C2603 Tb2593 2.809 . S
C2603 C2604 1.514 . S
C2603 O2618 1.248 . S
C2603 O2619 1.266 . S
C2604 C2603 1.514 . S
C2604 C2605 1.359 . S
C2604 C2609 1.348 . S
C2605 C2604 1.359 . S
C2605 C2606 1.380 . S
C2605 H2628 0.929 . S
C2606 C2605 1.380 . S
C2606 C2607 1.347 . S
C2606 H2629 0.931 . S
C2607 C2606 1.347 . S
C2607 C2608 1.369 . S
C2608 C2607 1.369 . S
C2608 C2609 1.408 . S
C2608 H2630 0.930 . S
C2609 C2604 1.348 . S
C2609 C2608 1.408 . S
C2609 H2631 0.930 . S
C2610 O2620 1.281 . S
C2610 O2621 1.254 . S
C2611 O2622 1.236 . S
C2611 O2623 1.266 . S
O2612 Tb2592 2.484 . S
O2612 C2594 1.248 . S
O2613 Tb2592 2.440 . S
O2613 C2594 1.266 . S
O2614 Tb2592 2.658 . S
O2614 Tb2593 2.325 . S
O2614 C2601 1.281 . S
O2615 Tb2592 2.409 . S
O2615 C2601 1.254 . S
O2616 Tb2592 2.378 . S
O2616 C2602 1.236 . S
O2617 Tb2593 2.341 . S
O2617 C2602 1.266 . S
O2618 Tb2593 2.484 . S
O2618 C2603 1.248 . S
O2619 Tb2593 2.440 . S
O2619 C2603 1.266 . S
O2620 Tb2592 2.325 . S
O2620 Tb2593 2.658 . S
O2620 C2610 1.281 . S
O2621 Tb2593 2.409 . S
O2621 C2610 1.254 . S
O2622 Tb2593 2.378 . S
O2622 C2611 1.236 . S
O2623 Tb2592 2.341 . S
O2623 C2611 1.266 . S
H2624 C2596 0.929 . S
H2625 C2597 0.931 . S
H2626 C2599 0.930 . S
H2627 C2600 0.930 . S
H2628 C2605 0.929 . S
H2629 C2606 0.931 . S
H2630 C2608 0.930 . S
H2631 C2609 0.930 . S
Tb2632 C2634 2.809 . S
Tb2632 O2652 2.484 . S
Tb2632 O2653 2.440 . S
Tb2632 O2654 2.658 . S
Tb2632 O2655 2.409 . S
Tb2632 O2656 2.378 . S
Tb2632 O2660 2.325 . S
Tb2632 O2663 2.341 . S
Tb2633 C2643 2.809 . S
Tb2633 O2654 2.325 . S
Tb2633 O2657 2.341 . S
Tb2633 O2658 2.484 . S
Tb2633 O2659 2.440 . S
Tb2633 O2660 2.658 . S
Tb2633 O2661 2.409 . S
Tb2633 O2662 2.378 . S
C2634 Tb2632 2.809 . S
C2634 C2635 1.514 . S
C2634 O2652 1.248 . S
C2634 O2653 1.266 . S
C2635 C2634 1.514 . S
C2635 C2636 1.359 . S
C2635 C2640 1.348 . S
C2636 C2635 1.359 . S
C2636 C2637 1.380 . S
C2636 H2664 0.929 . S
C2637 C2636 1.380 . S
C2637 C2638 1.347 . S
C2637 H2665 0.931 . S
C2638 C2637 1.347 . S
C2638 C2639 1.369 . S
C2639 C2638 1.369 . S
C2639 C2640 1.408 . S
C2639 H2666 0.930 . S
C2640 C2635 1.348 . S
C2640 C2639 1.408 . S
C2640 H2667 0.930 . S
C2641 O2654 1.281 . S
C2641 O2655 1.254 . S
C2642 O2656 1.236 . S
C2642 O2657 1.266 . S
C2643 Tb2633 2.809 . S
C2643 C2644 1.514 . S
C2643 O2658 1.248 . S
C2643 O2659 1.266 . S
C2644 C2643 1.514 . S
C2644 C2645 1.359 . S
C2644 C2649 1.348 . S
C2645 C2644 1.359 . S
C2645 C2646 1.380 . S
C2645 H2668 0.929 . S
C2646 C2645 1.380 . S
C2646 C2647 1.347 . S
C2646 H2669 0.931 . S
C2647 C2646 1.347 . S
C2647 C2648 1.369 . S
C2648 C2647 1.369 . S
C2648 C2649 1.408 . S
C2648 H2670 0.930 . S
C2649 C2644 1.348 . S
C2649 C2648 1.408 . S
C2649 H2671 0.930 . S
C2650 O2660 1.281 . S
C2650 O2661 1.254 . S
C2651 O2662 1.236 . S
C2651 O2663 1.266 . S
O2652 Tb2632 2.484 . S
O2652 C2634 1.248 . S
O2653 Tb2632 2.440 . S
O2653 C2634 1.266 . S
O2654 Tb2632 2.658 . S
O2654 Tb2633 2.325 . S
O2654 C2641 1.281 . S
O2655 Tb2632 2.409 . S
O2655 C2641 1.254 . S
O2656 Tb2632 2.378 . S
O2656 C2642 1.236 . S
O2657 Tb2633 2.341 . S
O2657 C2642 1.266 . S
O2658 Tb2633 2.484 . S
O2658 C2643 1.248 . S
O2659 Tb2633 2.440 . S
O2659 C2643 1.266 . S
O2660 Tb2632 2.325 . S
O2660 Tb2633 2.658 . S
O2660 C2650 1.281 . S
O2661 Tb2633 2.409 . S
O2661 C2650 1.254 . S
O2662 Tb2633 2.378 . S
O2662 C2651 1.236 . S
O2663 Tb2632 2.341 . S
O2663 C2651 1.266 . S
H2664 C2636 0.929 . S
H2665 C2637 0.931 . S
H2666 C2639 0.930 . S
H2667 C2640 0.930 . S
H2668 C2645 0.929 . S
H2669 C2646 0.931 . S
H2670 C2648 0.930 . S
H2671 C2649 0.930 . S
Tb2672 C2674 2.809 . S
Tb2672 O2692 2.484 . S
Tb2672 O2693 2.440 . S
Tb2672 O2694 2.658 . S
Tb2672 O2695 2.409 . S
Tb2672 O2696 2.378 . S
Tb2672 O2700 2.325 . S
Tb2672 O2703 2.341 . S
Tb2673 C2683 2.809 . S
Tb2673 O2694 2.325 . S
Tb2673 O2697 2.341 . S
Tb2673 O2698 2.484 . S
Tb2673 O2699 2.440 . S
Tb2673 O2700 2.658 . S
Tb2673 O2701 2.409 . S
Tb2673 O2702 2.378 . S
C2674 Tb2672 2.809 . S
C2674 C2675 1.514 . S
C2674 O2692 1.248 . S
C2674 O2693 1.266 . S
C2675 C2674 1.514 . S
C2675 C2676 1.359 . S
C2675 C2680 1.348 . S
C2676 C2675 1.359 . S
C2676 C2677 1.380 . S
C2676 H2704 0.929 . S
C2677 C2676 1.380 . S
C2677 C2678 1.347 . S
C2677 H2705 0.931 . S
C2678 C2677 1.347 . S
C2678 C2679 1.369 . S
C2679 C2678 1.369 . S
C2679 C2680 1.408 . S
C2679 H2706 0.930 . S
C2680 C2675 1.348 . S
C2680 C2679 1.408 . S
C2680 H2707 0.930 . S
C2681 O2694 1.281 . S
C2681 O2695 1.254 . S
C2682 O2696 1.236 . S
C2682 O2697 1.266 . S
C2683 Tb2673 2.809 . S
C2683 C2684 1.514 . S
C2683 O2698 1.248 . S
C2683 O2699 1.266 . S
C2684 C2683 1.514 . S
C2684 C2685 1.359 . S
C2684 C2689 1.348 . S
C2685 C2684 1.359 . S
C2685 C2686 1.380 . S
C2685 H2708 0.929 . S
C2686 C2685 1.380 . S
C2686 C2687 1.347 . S
C2686 H2709 0.931 . S
C2687 C2686 1.347 . S
C2687 C2688 1.369 . S
C2688 C2687 1.369 . S
C2688 C2689 1.408 . S
C2688 H2710 0.930 . S
C2689 C2684 1.348 . S
C2689 C2688 1.408 . S
C2689 H2711 0.930 . S
C2690 O2700 1.281 . S
C2690 O2701 1.254 . S
C2691 O2702 1.236 . S
C2691 O2703 1.266 . S
O2692 Tb2672 2.484 . S
O2692 C2674 1.248 . S
O2693 Tb2672 2.440 . S
O2693 C2674 1.266 . S
O2694 Tb2672 2.658 . S
O2694 Tb2673 2.325 . S
O2694 C2681 1.281 . S
O2695 Tb2672 2.409 . S
O2695 C2681 1.254 . S
O2696 Tb2672 2.378 . S
O2696 C2682 1.236 . S
O2697 Tb2673 2.341 . S
O2697 C2682 1.266 . S
O2698 Tb2673 2.484 . S
O2698 C2683 1.248 . S
O2699 Tb2673 2.440 . S
O2699 C2683 1.266 . S
O2700 Tb2672 2.325 . S
O2700 Tb2673 2.658 . S
O2700 C2690 1.281 . S
O2701 Tb2673 2.409 . S
O2701 C2690 1.254 . S
O2702 Tb2673 2.378 . S
O2702 C2691 1.236 . S
O2703 Tb2672 2.341 . S
O2703 C2691 1.266 . S
H2704 C2676 0.929 . S
H2705 C2677 0.931 . S
H2706 C2679 0.930 . S
H2707 C2680 0.930 . S
H2708 C2685 0.929 . S
H2709 C2686 0.931 . S
H2710 C2688 0.930 . S
H2711 C2689 0.930 . S
Tb2712 C2714 2.809 . S
Tb2712 O2732 2.484 . S
Tb2712 O2733 2.440 1_554 S
Tb2712 O2734 2.646 1_554 S
Tb2712 O2735 2.409 1_554 S
Tb2712 O2736 2.374 1_554 S
Tb2712 O2740 2.325 . S
Tb2712 O2743 2.341 . S
Tb2713 C2723 2.809 1_455 S
Tb2713 O2734 2.260 1_554 S
Tb2713 O2737 2.341 . S
Tb2713 O2738 2.484 1_455 S
Tb2713 O2739 2.440 1_455 S
Tb2713 O2740 2.658 . S
Tb2713 O2741 2.409 . S
Tb2713 O2742 2.378 . S
C2714 Tb2712 2.809 . S
C2714 C2715 1.524 . S
C2714 O2732 1.248 . S
C2714 O2733 1.266 1_554 S
C2715 C2714 1.524 . S
C2715 C2716 1.396 . S
C2715 C2720 1.302 1_554 S
C2716 C2715 1.396 . S
C2716 C2717 1.380 . S
C2716 H2744 0.929 . S
C2717 C2716 1.380 . S
C2717 C2718 1.347 1_554 S
C2717 H2745 0.931 . S
C2718 C2717 1.347 1_556 S
C2718 C2719 1.369 . S
C2719 C2718 1.369 . S
C2719 C2720 1.408 . S
C2719 H2746 0.930 . S
C2720 C2715 1.302 1_556 S
C2720 C2719 1.408 . S
C2720 H2747 0.930 . S
C2721 O2734 1.355 . S
C2721 O2735 1.254 . S
C2722 O2736 1.220 1_554 S
C2722 O2737 1.266 . S
C2723 Tb2713 2.809 1_655 S
C2723 C2724 1.514 . S
C2723 O2738 1.248 . S
C2723 O2739 1.266 . S
C2724 C2723 1.514 . S
C2724 C2725 1.359 . S
C2724 C2729 1.348 . S
C2725 C2724 1.359 . S
C2725 C2726 1.380 . S
C2725 H2748 0.929 . S
C2726 C2725 1.380 . S
C2726 C2727 1.347 . S
C2726 H2749 0.931 . S
C2727 C2726 1.347 . S
C2727 C2728 1.369 . S
C2728 C2727 1.369 . S
C2728 C2729 1.408 . S
C2728 H2750 0.930 . S
C2729 C2724 1.348 . S
C2729 C2728 1.408 . S
C2729 H2751 0.930 . S
C2730 O2740 1.281 . S
C2730 O2741 1.254 . S
C2731 O2742 1.236 . S
C2731 O2743 1.266 . S
O2732 Tb2712 2.484 . S
O2732 C2714 1.248 . S
O2733 Tb2712 2.440 1_556 S
O2733 C2714 1.266 1_556 S
O2734 Tb2712 2.646 1_556 S
O2734 Tb2713 2.260 1_556 S
O2734 C2721 1.355 . S
O2735 Tb2712 2.409 1_556 S
O2735 C2721 1.254 . S
O2736 Tb2712 2.374 1_556 S
O2736 C2722 1.220 1_556 S
O2737 Tb2713 2.341 . S
O2737 C2722 1.266 . S
O2738 Tb2713 2.484 1_655 S
O2738 C2723 1.248 . S
O2739 Tb2713 2.440 1_655 S
O2739 C2723 1.266 . S
O2740 Tb2712 2.325 . S
O2740 Tb2713 2.658 . S
O2740 C2730 1.281 . S
O2741 Tb2713 2.409 . S
O2741 C2730 1.254 . S
O2742 Tb2713 2.378 . S
O2742 C2731 1.236 . S
O2743 Tb2712 2.341 . S
O2743 C2731 1.266 . S
H2744 C2716 0.929 . S
H2745 C2717 0.931 . S
H2746 C2719 0.930 . S
H2747 C2720 0.930 . S
H2748 C2725 0.929 . S
H2749 C2726 0.931 . S
H2750 C2728 0.930 . S
H2751 C2729 0.930 . S
C2752 C2753 1.349 . S
C2752 C2754 1.327 . S
C2752 H2777 0.950 1_455 S
C2753 C2752 1.349 . S
C2753 C2769 1.349 . S
C2754 C2752 1.327 . S
C2754 C2773 1.429 . S
C2754 H2778 0.950 1_455 S
C2755 C2772 1.574 . S
C2755 C2774 1.368 . S
C2755 H2779 0.949 . S
H2756 C2760 0.991 1_655 S
C2757 C2758 1.346 . S
C2757 C2759 1.329 1_554 S
C2757 H2780 0.951 1_554 S
C2758 C2757 1.346 . S
C2758 C2770 1.349 . S
C2759 C2757 1.329 1_556 S
C2759 C2775 1.429 . S
C2759 H2781 0.950 . S
C2760 H2756 0.991 1_455 S
C2760 C2768 1.574 . S
C2760 C2776 1.368 . S
H2761 C2769 0.950 . S
H2762 C2767 0.950 . S
H2763 C2768 0.949 1_655 S
H2764 C2770 0.950 . S
H2765 C2771 0.964 . S
H2766 C2772 0.949 . S
C2767 H2762 0.950 . S
C2767 C2769 1.327 . S
C2767 C2773 1.429 . S
C2768 C2760 1.574 . S
C2768 H2763 0.949 1_455 S
C2768 C2774 1.368 . S
C2769 C2753 1.349 . S
C2769 H2761 0.950 . S
C2769 C2767 1.327 . S
C2770 C2758 1.349 . S
C2770 H2764 0.950 . S
C2770 C2771 1.327 . S
C2771 H2765 0.964 . S
C2771 C2770 1.327 . S
C2771 C2775 1.429 1_554 S
C2772 C2755 1.574 . S
C2772 H2766 0.949 . S
C2772 C2776 1.368 . S
C2773 C2754 1.429 . S
C2773 C2767 1.429 . S
C2773 C2774 1.523 . S
C2774 C2755 1.368 . S
C2774 C2768 1.368 . S
C2774 C2773 1.523 . S
C2775 C2759 1.429 . S
C2775 C2771 1.429 1_556 S
C2775 C2776 1.523 . S
C2776 C2760 1.368 . S
C2776 C2772 1.368 . S
C2776 C2775 1.523 . S
H2777 C2752 0.950 1_655 S
H2778 C2754 0.950 1_655 S
H2779 C2755 0.949 . S
H2780 C2757 0.951 1_556 S
H2781 C2759 0.950 . S
C2782 C2783 1.349 . S
C2782 C2784 1.327 . S
C2782 H2807 0.950 . S
C2783 C2782 1.349 . S
C2783 C2799 1.349 . S
C2784 C2782 1.327 . S
C2784 C2803 1.429 . S
C2784 H2808 0.950 . S
C2785 C2802 1.574 . S
C2785 C2804 1.368 . S
C2785 H2809 0.949 . S
H2786 C2790 0.949 . S
C2787 C2788 1.349 . S
C2787 C2789 1.327 . S
C2787 H2810 0.950 . S
C2788 C2787 1.349 . S
C2788 C2800 1.349 . S
C2789 C2787 1.327 . S
C2789 C2805 1.429 . S
C2789 H2811 0.950 . S
C2790 H2786 0.949 . S
C2790 C2798 1.574 . S
C2790 C2806 1.368 . S
H2791 C2799 0.950 . S
H2792 C2797 0.950 . S
H2793 C2798 0.949 . S
H2794 C2800 0.950 . S
H2795 C2801 0.950 . S
H2796 C2802 0.949 . S
C2797 H2792 0.950 . S
C2797 C2799 1.327 . S
C2797 C2803 1.429 . S
C2798 C2790 1.574 . S
C2798 H2793 0.949 . S
C2798 C2804 1.368 . S
C2799 C2783 1.349 . S
C2799 H2791 0.950 . S
C2799 C2797 1.327 . S
C2800 C2788 1.349 . S
C2800 H2794 0.950 . S
C2800 C2801 1.327 . S
C2801 H2795 0.950 . S
C2801 C2800 1.327 . S
C2801 C2805 1.429 . S
C2802 C2785 1.574 . S
C2802 H2796 0.949 . S
C2802 C2806 1.368 . S
C2803 C2784 1.429 . S
C2803 C2797 1.429 . S
C2803 C2804 1.523 . S
C2804 C2785 1.368 . S
C2804 C2798 1.368 . S
C2804 C2803 1.523 . S
C2805 C2789 1.429 . S
C2805 C2801 1.429 . S
C2805 C2806 1.523 . S
C2806 C2790 1.368 . S
C2806 C2802 1.368 . S
C2806 C2805 1.523 . S
H2807 C2782 0.950 . S
H2808 C2784 0.950 . S
H2809 C2785 0.949 . S
H2810 C2787 0.950 . S
H2811 C2789 0.950 . S
C2812 C2813 1.349 . S
C2812 C2814 1.327 . S
C2812 H2837 0.950 . S
C2813 C2812 1.349 . S
C2813 C2829 1.349 . S
C2814 C2812 1.327 . S
C2814 C2833 1.429 . S
C2814 H2838 0.950 . S
C2815 C2832 1.574 . S
C2815 C2834 1.368 . S
C2815 H2839 0.949 . S
H2816 C2820 0.949 . S
C2817 C2818 1.349 . S
C2817 C2819 1.327 . S
C2817 H2840 0.950 . S
C2818 C2817 1.349 . S
C2818 C2830 1.349 . S
C2819 C2817 1.327 . S
C2819 C2835 1.429 . S
C2819 H2841 0.950 . S
C2820 H2816 0.949 . S
C2820 C2828 1.574 . S
C2820 C2836 1.368 . S
H2821 C2829 0.950 . S
H2822 C2827 0.950 . S
H2823 C2828 0.949 . S
H2824 C2830 0.950 . S
H2825 C2831 0.950 . S
H2826 C2832 0.949 . S
C2827 H2822 0.950 . S
C2827 C2829 1.327 . S
C2827 C2833 1.429 . S
C2828 C2820 1.574 . S
C2828 H2823 0.949 . S
C2828 C2834 1.368 . S
C2829 C2813 1.349 . S
C2829 H2821 0.950 . S
C2829 C2827 1.327 . S
C2830 C2818 1.349 . S
C2830 H2824 0.950 . S
C2830 C2831 1.327 . S
C2831 H2825 0.950 . S
C2831 C2830 1.327 . S
C2831 C2835 1.429 . S
C2832 C2815 1.574 . S
C2832 H2826 0.949 . S
C2832 C2836 1.368 . S
C2833 C2814 1.429 . S
C2833 C2827 1.429 . S
C2833 C2834 1.523 . S
C2834 C2815 1.368 . S
C2834 C2828 1.368 . S
C2834 C2833 1.523 . S
C2835 C2819 1.429 . S
C2835 C2831 1.429 . S
C2835 C2836 1.523 . S
C2836 C2820 1.368 . S
C2836 C2832 1.368 . S
C2836 C2835 1.523 . S
H2837 C2812 0.950 . S
H2838 C2814 0.950 . S
H2839 C2815 0.949 . S
H2840 C2817 0.950 . S
H2841 C2819 0.950 . S
C2842 C2843 1.349 . S
C2842 C2844 1.327 . S
C2842 H2867 0.950 . S
C2843 C2842 1.349 . S
C2843 C2859 1.349 . S
C2844 C2842 1.327 . S
C2844 C2863 1.429 . S
C2844 H2868 0.950 . S
C2845 C2862 1.574 . S
C2845 C2864 1.368 . S
C2845 H2869 0.949 . S
H2846 C2850 0.949 . S
C2847 C2848 1.349 . S
C2847 C2849 1.327 . S
C2847 H2870 0.950 . S
C2848 C2847 1.349 . S
C2848 C2860 1.349 . S
C2849 C2847 1.327 . S
C2849 C2865 1.429 . S
C2849 H2871 0.950 . S
C2850 H2846 0.949 . S
C2850 C2858 1.574 . S
C2850 C2866 1.368 . S
H2851 C2859 0.950 . S
H2852 C2857 0.950 . S
H2853 C2858 0.949 . S
H2854 C2860 0.950 . S
H2855 C2861 0.950 . S
H2856 C2862 0.949 . S
C2857 H2852 0.950 . S
C2857 C2859 1.327 . S
C2857 C2863 1.429 . S
C2858 C2850 1.574 . S
C2858 H2853 0.949 . S
C2858 C2864 1.368 . S
C2859 C2843 1.349 . S
C2859 H2851 0.950 . S
C2859 C2857 1.327 . S
C2860 C2848 1.349 . S
C2860 H2854 0.950 . S
C2860 C2861 1.327 . S
C2861 H2855 0.950 . S
C2861 C2860 1.327 . S
C2861 C2865 1.429 . S
C2862 C2845 1.574 . S
C2862 H2856 0.949 . S
C2862 C2866 1.368 . S
C2863 C2844 1.429 . S
C2863 C2857 1.429 . S
C2863 C2864 1.523 . S
C2864 C2845 1.368 . S
C2864 C2858 1.368 . S
C2864 C2863 1.523 . S
C2865 C2849 1.429 . S
C2865 C2861 1.429 . S
C2865 C2866 1.523 . S
C2866 C2850 1.368 . S
C2866 C2862 1.368 . S
C2866 C2865 1.523 . S
H2867 C2842 0.950 . S
H2868 C2844 0.950 . S
H2869 C2845 0.949 . S
H2870 C2847 0.950 . S
H2871 C2849 0.950 . S
C2872 C2873 1.349 . S
C2872 C2874 1.327 . S
C2872 H2897 0.950 . S
C2873 C2872 1.349 . S
C2873 C2889 1.349 . S
C2874 C2872 1.327 . S
C2874 C2893 1.429 . S
C2874 H2898 0.950 . S
C2875 C2892 1.574 . S
C2875 C2894 1.368 . S
C2875 H2899 0.949 . S
H2876 C2880 0.949 . S
C2877 C2878 1.349 . S
C2877 C2879 1.327 . S
C2877 H2900 0.950 . S
C2878 C2877 1.349 . S
C2878 C2890 1.349 . S
C2879 C2877 1.327 . S
C2879 C2895 1.429 . S
C2879 H2901 0.950 . S
C2880 H2876 0.949 . S
C2880 C2888 1.574 . S
C2880 C2896 1.368 . S
H2881 C2889 0.950 . S
H2882 C2887 0.950 . S
H2883 C2888 0.949 . S
H2884 C2890 0.950 . S
H2885 C2891 0.950 . S
H2886 C2892 0.949 . S
C2887 H2882 0.950 . S
C2887 C2889 1.327 . S
C2887 C2893 1.429 . S
C2888 C2880 1.574 . S
C2888 H2883 0.949 . S
C2888 C2894 1.368 . S
C2889 C2873 1.349 . S
C2889 H2881 0.950 . S
C2889 C2887 1.327 . S
C2890 C2878 1.349 . S
C2890 H2884 0.950 . S
C2890 C2891 1.327 . S
C2891 H2885 0.950 . S
C2891 C2890 1.327 . S
C2891 C2895 1.429 . S
C2892 C2875 1.574 . S
C2892 H2886 0.949 . S
C2892 C2896 1.368 . S
C2893 C2874 1.429 . S
C2893 C2887 1.429 . S
C2893 C2894 1.523 . S
C2894 C2875 1.368 . S
C2894 C2888 1.368 . S
C2894 C2893 1.523 . S
C2895 C2879 1.429 . S
C2895 C2891 1.429 . S
C2895 C2896 1.523 . S
C2896 C2880 1.368 . S
C2896 C2892 1.368 . S
C2896 C2895 1.523 . S
H2897 C2872 0.950 . S
H2898 C2874 0.950 . S
H2899 C2875 0.949 . S
H2900 C2877 0.950 . S
H2901 C2879 0.950 . S
C2902 C2903 1.349 . S
C2902 C2904 1.327 . S
C2902 H2927 0.950 . S
C2903 C2902 1.349 . S
C2903 C2919 1.349 . S
C2904 C2902 1.327 . S
C2904 C2923 1.429 . S
C2904 H2928 0.950 . S
C2905 C2922 1.574 . S
C2905 C2924 1.368 . S
C2905 H2929 0.949 . S
H2906 C2910 0.949 . S
C2907 C2908 1.349 . S
C2907 C2909 1.327 . S
C2907 H2930 0.950 . S
C2908 C2907 1.349 . S
C2908 C2920 1.349 . S
C2909 C2907 1.327 . S
C2909 C2925 1.429 . S
C2909 H2931 0.950 . S
C2910 H2906 0.949 . S
C2910 C2918 1.574 . S
C2910 C2926 1.368 . S
H2911 C2919 0.950 . S
H2912 C2917 0.950 . S
H2913 C2918 0.949 . S
H2914 C2920 0.950 . S
H2915 C2921 0.950 . S
H2916 C2922 0.949 . S
C2917 H2912 0.950 . S
C2917 C2919 1.327 . S
C2917 C2923 1.429 . S
C2918 C2910 1.574 . S
C2918 H2913 0.949 . S
C2918 C2924 1.368 . S
C2919 C2903 1.349 . S
C2919 H2911 0.950 . S
C2919 C2917 1.327 . S
C2920 C2908 1.349 . S
C2920 H2914 0.950 . S
C2920 C2921 1.327 . S
C2921 H2915 0.950 . S
C2921 C2920 1.327 . S
C2921 C2925 1.429 . S
C2922 C2905 1.574 . S
C2922 H2916 0.949 . S
C2922 C2926 1.368 . S
C2923 C2904 1.429 . S
C2923 C2917 1.429 . S
C2923 C2924 1.523 . S
C2924 C2905 1.368 . S
C2924 C2918 1.368 . S
C2924 C2923 1.523 . S
C2925 C2909 1.429 . S
C2925 C2921 1.429 . S
C2925 C2926 1.523 . S
C2926 C2910 1.368 . S
C2926 C2922 1.368 . S
C2926 C2925 1.523 . S
H2927 C2902 0.950 . S
H2928 C2904 0.950 . S
H2929 C2905 0.949 . S
H2930 C2907 0.950 . S
H2931 C2909 0.950 . S
C2932 C2933 1.349 . S
C2932 C2934 1.327 . S
C2932 H2957 0.950 . S
C2933 C2932 1.349 . S
C2933 C2949 1.349 . S
C2934 C2932 1.327 . S
C2934 C2953 1.429 . S
C2934 H2958 0.950 . S
C2935 C2952 1.574 . S
C2935 C2954 1.368 . S
C2935 H2959 0.949 . S
H2936 C2940 0.949 . S
C2937 C2938 1.349 . S
C2937 C2939 1.327 . S
C2937 H2960 0.950 . S
C2938 C2937 1.349 . S
C2938 C2950 1.349 . S
C2939 C2937 1.327 . S
C2939 C2955 1.429 . S
C2939 H2961 0.950 . S
C2940 H2936 0.949 . S
C2940 C2948 1.574 . S
C2940 C2956 1.368 . S
H2941 C2949 0.950 . S
H2942 C2947 0.950 . S
H2943 C2948 0.949 . S
H2944 C2950 0.950 . S
H2945 C2951 0.950 . S
H2946 C2952 0.949 . S
C2947 H2942 0.950 . S
C2947 C2949 1.327 . S
C2947 C2953 1.429 . S
C2948 C2940 1.574 . S
C2948 H2943 0.949 . S
C2948 C2954 1.368 . S
C2949 C2933 1.349 . S
C2949 H2941 0.950 . S
C2949 C2947 1.327 . S
C2950 C2938 1.349 . S
C2950 H2944 0.950 . S
C2950 C2951 1.327 . S
C2951 H2945 0.950 . S
C2951 C2950 1.327 . S
C2951 C2955 1.429 . S
C2952 C2935 1.574 . S
C2952 H2946 0.949 . S
C2952 C2956 1.368 . S
C2953 C2934 1.429 . S
C2953 C2947 1.429 . S
C2953 C2954 1.523 . S
C2954 C2935 1.368 . S
C2954 C2948 1.368 . S
C2954 C2953 1.523 . S
C2955 C2939 1.429 . S
C2955 C2951 1.429 . S
C2955 C2956 1.523 . S
C2956 C2940 1.368 . S
C2956 C2952 1.368 . S
C2956 C2955 1.523 . S
H2957 C2932 0.950 . S
H2958 C2934 0.950 . S
H2959 C2935 0.949 . S
H2960 C2937 0.950 . S
H2961 C2939 0.950 . S
C2962 C2963 1.349 . S
C2962 C2964 1.327 . S
C2962 H2987 0.950 . S
C2963 C2962 1.349 . S
C2963 C2979 1.349 . S
C2964 C2962 1.327 . S
C2964 C2983 1.429 . S
C2964 H2988 0.950 . S
C2965 C2982 1.574 . S
C2965 C2984 1.368 . S
C2965 H2989 0.949 . S
H2966 C2970 0.949 . S
C2967 C2968 1.349 . S
C2967 C2969 1.327 . S
C2967 H2990 0.950 . S
C2968 C2967 1.349 . S
C2968 C2980 1.349 . S
C2969 C2967 1.327 . S
C2969 C2985 1.429 . S
C2969 H2991 0.950 . S
C2970 H2966 0.949 . S
C2970 C2978 1.574 . S
C2970 C2986 1.368 . S
H2971 C2979 0.950 . S
H2972 C2977 0.950 . S
H2973 C2978 0.949 . S
H2974 C2980 0.950 . S
H2975 C2981 0.950 . S
H2976 C2982 0.949 . S
C2977 H2972 0.950 . S
C2977 C2979 1.327 . S
C2977 C2983 1.429 . S
C2978 C2970 1.574 . S
C2978 H2973 0.949 . S
C2978 C2984 1.368 . S
C2979 C2963 1.349 . S
C2979 H2971 0.950 . S
C2979 C2977 1.327 . S
C2980 C2968 1.349 . S
C2980 H2974 0.950 . S
C2980 C2981 1.327 . S
C2981 H2975 0.950 . S
C2981 C2980 1.327 . S
C2981 C2985 1.429 . S
C2982 C2965 1.574 . S
C2982 H2976 0.949 . S
C2982 C2986 1.368 . S
C2983 C2964 1.429 . S
C2983 C2977 1.429 . S
C2983 C2984 1.523 . S
C2984 C2965 1.368 . S
C2984 C2978 1.368 . S
C2984 C2983 1.523 . S
C2985 C2969 1.429 . S
C2985 C2981 1.429 . S
C2985 C2986 1.523 . S
C2986 C2970 1.368 . S
C2986 C2982 1.368 . S
C2986 C2985 1.523 . S
H2987 C2962 0.950 . S
H2988 C2964 0.950 . S
H2989 C2965 0.949 . S
H2990 C2967 0.950 . S
H2991 C2969 0.950 . S
C2992 C2993 1.349 1_565 S
C2992 C2994 1.335 . S
C2992 H3017 0.950 . S
C2993 C2992 1.349 1_545 S
C2993 C3009 1.349 . S
C2994 C2992 1.335 . S
C2994 C3013 1.385 1_565 S
C2994 H3018 0.991 . S
C2995 C3012 1.574 1_655 S
C2995 C3014 1.368 . S
C2995 H3019 0.949 1_655 S
H2996 C3000 0.949 1_565 S
C2997 C2998 1.349 . S
C2997 C2999 1.327 . S
C2997 H3020 0.950 . S
C2998 C2997 1.349 . S
C2998 C3010 1.349 . S
C2999 C2997 1.327 . S
C2999 C3015 1.429 . S
C2999 H3021 0.950 . S
C3000 H2996 0.949 1_545 S
C3000 C3008 1.574 . S
C3000 C3016 1.368 . S
H3001 C3009 0.950 . S
H3002 C3007 0.950 . S
H3003 C3008 0.949 1_565 S
H3004 C3010 0.943 1_665 S
H3005 C3011 0.950 1_565 S
H3006 C3012 0.949 . S
C3007 H3002 0.950 . S
C3007 C3009 1.327 . S
C3007 C3013 1.429 . S
C3008 C3000 1.574 . S
C3008 H3003 0.949 1_545 S
C3008 C3014 1.368 . S
C3009 C2993 1.349 . S
C3009 H3001 0.950 . S
C3009 C3007 1.327 . S
C3010 C2998 1.349 . S
C3010 H3004 0.943 1_445 S
C3010 C3011 1.327 1_455 S
C3011 H3005 0.950 1_545 S
C3011 C3010 1.327 1_655 S
C3011 C3015 1.429 1_655 S
C3012 C2995 1.574 1_455 S
C3012 H3006 0.949 . S
C3012 C3016 1.368 1_455 S
C3013 C2994 1.385 1_545 S
C3013 C3007 1.429 . S
C3013 C3014 1.523 . S
C3014 C2995 1.368 . S
C3014 C3008 1.368 . S
C3014 C3013 1.523 . S
C3015 C2999 1.429 . S
C3015 C3011 1.429 1_455 S
C3015 C3016 1.523 1_455 S
C3016 C3000 1.368 . S
C3016 C3012 1.368 1_655 S
C3016 C3015 1.523 1_655 S
H3017 C2992 0.950 . S
H3018 C2994 0.991 . S
H3019 C2995 0.949 1_455 S
H3020 C2997 0.950 . S
H3021 C2999 0.950 . S
C3022 C3023 1.349 . S
C3022 C3024 1.327 . S
C3022 H3047 0.950 . S
C3023 C3022 1.349 . S
C3023 C3039 1.349 . S
C3024 C3022 1.327 . S
C3024 C3043 1.429 . S
C3024 H3048 0.950 . S
C3025 C3042 1.574 . S
C3025 C3044 1.368 . S
C3025 H3049 0.949 . S
H3026 C3030 0.949 . S
C3027 C3028 1.349 . S
C3027 C3029 1.327 . S
C3027 H3050 0.950 . S
C3028 C3027 1.349 . S
C3028 C3040 1.349 . S
C3029 C3027 1.327 . S
C3029 C3045 1.429 . S
C3029 H3051 0.950 . S
C3030 H3026 0.949 . S
C3030 C3038 1.574 . S
C3030 C3046 1.368 . S
H3031 C3039 0.950 . S
H3032 C3037 0.950 . S
H3033 C3038 0.949 . S
H3034 C3040 0.950 . S
H3035 C3041 0.950 . S
H3036 C3042 0.949 . S
C3037 H3032 0.950 . S
C3037 C3039 1.327 . S
C3037 C3043 1.429 . S
C3038 C3030 1.574 . S
C3038 H3033 0.949 . S
C3038 C3044 1.368 . S
C3039 C3023 1.349 . S
C3039 H3031 0.950 . S
C3039 C3037 1.327 . S
C3040 C3028 1.349 . S
C3040 H3034 0.950 . S
C3040 C3041 1.327 . S
C3041 H3035 0.950 . S
C3041 C3040 1.327 . S
C3041 C3045 1.429 . S
C3042 C3025 1.574 . S
C3042 H3036 0.949 . S
C3042 C3046 1.368 . S
C3043 C3024 1.429 . S
C3043 C3037 1.429 . S
C3043 C3044 1.523 . S
C3044 C3025 1.368 . S
C3044 C3038 1.368 . S
C3044 C3043 1.523 . S
C3045 C3029 1.429 . S
C3045 C3041 1.429 . S
C3045 C3046 1.523 . S
C3046 C3030 1.368 . S
C3046 C3042 1.368 . S
C3046 C3045 1.523 . S
H3047 C3022 0.950 . S
H3048 C3024 0.950 . S
H3049 C3025 0.949 . S
H3050 C3027 0.950 . S
H3051 C3029 0.950 . S
C3052 C3053 1.354 . S
C3052 C3054 1.327 . S
C3052 H3077 0.950 . S
C3053 C3052 1.354 . S
C3053 C3069 1.342 1_565 S
C3054 C3052 1.327 . S
C3054 C3073 1.429 1_565 S
C3054 H3078 0.950 . S
C3055 C3072 1.574 . S
C3055 C3074 1.368 . S
C3055 H3079 0.949 . S
H3056 C3060 0.949 . S
C3057 C3058 1.349 . S
C3057 C3059 1.327 . S
C3057 H3080 0.950 . S
C3058 C3057 1.349 . S
C3058 C3070 1.349 1_545 S
C3059 C3057 1.327 . S
C3059 C3075 1.429 . S
C3059 H3081 0.950 . S
C3060 H3056 0.949 . S
C3060 C3068 1.574 . S
C3060 C3076 1.368 1_565 S
H3061 C3069 0.950 . S
H3062 C3067 0.950 . S
H3063 C3068 0.949 . S
H3064 C3070 0.950 . S
H3065 C3071 0.950 . S
H3066 C3072 0.949 . S
C3067 H3062 0.950 . S
C3067 C3069 1.327 . S
C3067 C3073 1.429 . S
C3068 C3060 1.574 . S
C3068 H3063 0.949 . S
C3068 C3074 1.368 1_565 S
C3069 C3053 1.342 1_545 S
C3069 H3061 0.950 . S
C3069 C3067 1.327 . S
C3070 C3058 1.349 1_565 S
C3070 H3064 0.950 . S
C3070 C3071 1.327 . S
C3071 H3065 0.950 . S
C3071 C3070 1.327 . S
C3071 C3075 1.429 1_565 S
C3072 C3055 1.574 . S
C3072 H3066 0.949 . S
C3072 C3076 1.368 . S
C3073 C3054 1.429 1_545 S
C3073 C3067 1.429 . S
C3073 C3074 1.523 . S
C3074 C3055 1.368 . S
C3074 C3068 1.368 1_545 S
C3074 C3073 1.523 . S
C3075 C3059 1.429 . S
C3075 C3071 1.429 1_545 S
C3075 C3076 1.523 . S
C3076 C3060 1.368 1_545 S
C3076 C3072 1.368 . S
C3076 C3075 1.523 . S
H3077 C3052 0.950 . S
H3078 C3054 0.950 . S
H3079 C3055 0.949 . S
H3080 C3057 0.950 . S
H3081 C3059 0.950 . S
C3082 C3083 1.349 . S
C3082 C3084 1.327 . S
C3082 H3107 0.950 . S
C3083 C3082 1.349 . S
C3083 C3099 1.349 . S
C3084 C3082 1.327 . S
C3084 C3103 1.429 . S
C3084 H3108 0.950 . S
C3085 C3102 1.574 . S
C3085 C3104 1.368 . S
C3085 H3109 0.949 . S
H3086 C3090 0.949 . S
C3087 C3088 1.349 . S
C3087 C3089 1.327 . S
C3087 H3110 0.950 . S
C3088 C3087 1.349 . S
C3088 C3100 1.349 . S
C3089 C3087 1.327 . S
C3089 C3105 1.429 . S
C3089 H3111 0.950 . S
C3090 H3086 0.949 . S
C3090 C3098 1.574 . S
C3090 C3106 1.368 . S
H3091 C3099 0.950 . S
H3092 C3097 0.950 . S
H3093 C3098 0.949 . S
H3094 C3100 0.950 . S
H3095 C3101 0.950 . S
H3096 C3102 0.949 . S
C3097 H3092 0.950 . S
C3097 C3099 1.327 . S
C3097 C3103 1.429 . S
C3098 C3090 1.574 . S
C3098 H3093 0.949 . S
C3098 C3104 1.368 . S
C3099 C3083 1.349 . S
C3099 H3091 0.950 . S
C3099 C3097 1.327 . S
C3100 C3088 1.349 . S
C3100 H3094 0.950 . S
C3100 C3101 1.327 . S
C3101 H3095 0.950 . S
C3101 C3100 1.327 . S
C3101 C3105 1.429 . S
C3102 C3085 1.574 . S
C3102 H3096 0.949 . S
C3102 C3106 1.368 . S
C3103 C3084 1.429 . S
C3103 C3097 1.429 . S
C3103 C3104 1.523 . S
C3104 C3085 1.368 . S
C3104 C3098 1.368 . S
C3104 C3103 1.523 . S
C3105 C3089 1.429 . S
C3105 C3101 1.429 . S
C3105 C3106 1.523 . S
C3106 C3090 1.368 . S
C3106 C3102 1.368 . S
C3106 C3105 1.523 . S
H3107 C3082 0.950 . S
H3108 C3084 0.950 . S
H3109 C3085 0.949 . S
H3110 C3087 0.950 . S
H3111 C3089 0.950 . S
C3112 C3113 1.349 . S
C3112 C3114 1.327 . S
C3112 H3137 0.950 . S
C3113 C3112 1.349 . S
C3113 C3129 1.349 . S
C3114 C3112 1.327 . S
C3114 C3133 1.429 . S
C3114 H3138 0.935 1_545 S
C3115 C3132 1.574 . S
C3115 C3134 1.368 . S
C3115 H3139 0.949 . S
H3116 C3120 0.949 1_565 S
C3117 C3118 1.349 . S
C3117 C3119 1.327 . S
C3117 H3140 0.950 . S
C3118 C3117 1.349 . S
C3118 C3130 1.349 . S
C3119 C3117 1.327 . S
C3119 C3135 1.429 . S
C3119 H3141 0.950 1_455 S
C3120 H3116 0.949 1_545 S
C3120 C3128 1.574 1_455 S
C3120 C3136 1.373 1_455 S
H3121 C3129 0.950 . S
H3122 C3127 0.950 . S
H3123 C3128 0.949 1_465 S
H3124 C3130 0.950 1_565 S
H3125 C3131 0.950 1_565 S
H3126 C3132 0.949 . S
C3127 H3122 0.950 . S
C3127 C3129 1.327 . S
C3127 C3133 1.429 . S
C3128 C3120 1.574 1_655 S
C3128 H3123 0.949 1_645 S
C3128 C3134 1.369 . S
C3129 C3113 1.349 . S
C3129 H3121 0.950 . S
C3129 C3127 1.327 . S
C3130 C3118 1.349 . S
C3130 H3124 0.950 1_545 S
C3130 C3131 1.327 . S
C3131 H3125 0.950 1_545 S
C3131 C3130 1.327 . S
C3131 C3135 1.429 . S
C3132 C3115 1.574 . S
C3132 H3126 0.949 . S
C3132 C3136 1.362 . S
C3133 C3114 1.429 . S
C3133 C3127 1.429 . S
C3133 C3134 1.523 . S
C3134 C3115 1.368 . S
C3134 C3128 1.369 . S
C3134 C3133 1.523 . S
C3135 C3119 1.429 . S
C3135 C3131 1.429 . S
C3135 C3136 1.524 1_455 S
C3136 C3120 1.373 1_655 S
C3136 C3132 1.362 . S
C3136 C3135 1.524 1_655 S
H3137 C3112 0.950 . S
H3138 C3114 0.935 1_565 S
H3139 C3115 0.949 . S
H3140 C3117 0.950 . S
H3141 C3119 0.950 1_655 S
C3142 C3143 1.349 . S
C3142 C3144 1.327 . S
C3142 H3167 0.950 . S
C3143 C3142 1.349 . S
C3143 C3159 1.349 . S
C3144 C3142 1.327 . S
C3144 C3163 1.429 . S
C3144 H3168 0.950 . S
C3145 C3162 1.574 . S
C3145 C3164 1.368 . S
C3145 H3169 0.949 . S
H3146 C3150 0.949 . S
C3147 C3148 1.349 . S
C3147 C3149 1.327 . S
C3147 H3170 0.950 . S
C3148 C3147 1.349 . S
C3148 C3160 1.349 . S
C3149 C3147 1.327 . S
C3149 C3165 1.429 . S
C3149 H3171 0.950 . S
C3150 H3146 0.949 . S
C3150 C3158 1.574 . S
C3150 C3166 1.368 . S
H3151 C3159 0.950 . S
H3152 C3157 0.950 . S
H3153 C3158 0.949 . S
H3154 C3160 0.950 . S
H3155 C3161 0.950 . S
H3156 C3162 0.949 . S
C3157 H3152 0.950 . S
C3157 C3159 1.327 . S
C3157 C3163 1.429 . S
C3158 C3150 1.574 . S
C3158 H3153 0.949 . S
C3158 C3164 1.368 . S
C3159 C3143 1.349 . S
C3159 H3151 0.950 . S
C3159 C3157 1.327 . S
C3160 C3148 1.349 . S
C3160 H3154 0.950 . S
C3160 C3161 1.327 . S
C3161 H3155 0.950 . S
C3161 C3160 1.327 . S
C3161 C3165 1.429 . S
C3162 C3145 1.574 . S
C3162 H3156 0.949 . S
C3162 C3166 1.368 . S
C3163 C3144 1.429 . S
C3163 C3157 1.429 . S
C3163 C3164 1.523 . S
C3164 C3145 1.368 . S
C3164 C3158 1.368 . S
C3164 C3163 1.523 . S
C3165 C3149 1.429 . S
C3165 C3161 1.429 . S
C3165 C3166 1.523 . S
C3166 C3150 1.368 . S
C3166 C3162 1.368 . S
C3166 C3165 1.523 . S
H3167 C3142 0.950 . S
H3168 C3144 0.950 . S
H3169 C3145 0.949 . S
H3170 C3147 0.950 . S
H3171 C3149 0.950 . S
C3172 C3173 1.349 1_565 S
C3172 C3174 1.327 . S
C3172 H3197 0.950 . S
C3173 C3172 1.349 1_545 S
C3173 C3189 1.349 . S
C3174 C3172 1.327 . S
C3174 C3193 1.426 1_565 S
C3174 H3198 0.952 . S
C3175 C3192 1.574 . S
C3175 C3194 1.368 . S
C3175 H3199 0.949 . S
H3176 C3180 0.949 1_565 S
C3177 C3178 1.349 . S
C3177 C3179 1.327 . S
C3177 H3200 0.950 . S
C3178 C3177 1.349 . S
C3178 C3190 1.349 . S
C3179 C3177 1.327 . S
C3179 C3195 1.429 . S
C3179 H3201 0.950 . S
C3180 H3176 0.949 1_545 S
C3180 C3188 1.574 . S
C3180 C3196 1.368 . S
H3181 C3189 0.950 . S
H3182 C3187 0.950 . S
H3183 C3188 0.949 1_565 S
H3184 C3190 0.950 . S
H3185 C3191 0.918 1_565 S
H3186 C3192 0.949 . S
C3187 H3182 0.950 . S
C3187 C3189 1.327 . S
C3187 C3193 1.429 . S
C3188 C3180 1.574 . S
C3188 H3183 0.949 1_545 S
C3188 C3194 1.368 . S
C3189 C3173 1.349 . S
C3189 H3181 0.950 . S
C3189 C3187 1.327 . S
C3190 C3178 1.349 . S
C3190 H3184 0.950 . S
C3190 C3191 1.327 . S
C3191 H3185 0.918 1_545 S
C3191 C3190 1.327 . S
C3191 C3195 1.429 . S
C3192 C3175 1.574 . S
C3192 H3186 0.949 . S
C3192 C3196 1.368 . S
C3193 C3174 1.426 1_545 S
C3193 C3187 1.429 . S
C3193 C3194 1.523 . S
C3194 C3175 1.368 . S
C3194 C3188 1.368 . S
C3194 C3193 1.523 . S
C3195 C3179 1.429 . S
C3195 C3191 1.429 . S
C3195 C3196 1.523 . S
C3196 C3180 1.368 . S
C3196 C3192 1.368 . S
C3196 C3195 1.523 . S
H3197 C3172 0.950 . S
H3198 C3174 0.952 . S
H3199 C3175 0.949 . S
H3200 C3177 0.950 . S
H3201 C3179 0.950 . S
C3202 C3203 1.349 . S
C3202 C3204 1.327 . S
C3202 H3227 0.950 . S
C3203 C3202 1.349 . S
C3203 C3219 1.349 . S
C3204 C3202 1.327 . S
C3204 C3223 1.429 . S
C3204 H3228 0.950 . S
C3205 C3222 1.574 . S
C3205 C3224 1.368 . S
C3205 H3229 0.949 . S
H3206 C3210 0.949 . S
C3207 C3208 1.349 . S
C3207 C3209 1.327 . S
C3207 H3230 0.950 . S
C3208 C3207 1.349 . S
C3208 C3220 1.349 . S
C3209 C3207 1.327 . S
C3209 C3225 1.429 . S
C3209 H3231 0.950 . S
C3210 H3206 0.949 . S
C3210 C3218 1.574 . S
C3210 C3226 1.368 . S
H3211 C3219 0.950 . S
H3212 C3217 0.950 . S
H3213 C3218 0.949 . S
H3214 C3220 0.950 . S
H3215 C3221 0.950 . S
H3216 C3222 0.949 . S
C3217 H3212 0.950 . S
C3217 C3219 1.327 . S
C3217 C3223 1.429 . S
C3218 C3210 1.574 . S
C3218 H3213 0.949 . S
C3218 C3224 1.368 . S
C3219 C3203 1.349 . S
C3219 H3211 0.950 . S
C3219 C3217 1.327 . S
C3220 C3208 1.349 . S
C3220 H3214 0.950 . S
C3220 C3221 1.327 . S
C3221 H3215 0.950 . S
C3221 C3220 1.327 . S
C3221 C3225 1.429 . S
C3222 C3205 1.574 . S
C3222 H3216 0.949 . S
C3222 C3226 1.368 . S
C3223 C3204 1.429 . S
C3223 C3217 1.429 . S
C3223 C3224 1.523 . S
C3224 C3205 1.368 . S
C3224 C3218 1.368 . S
C3224 C3223 1.523 . S
C3225 C3209 1.429 . S
C3225 C3221 1.429 . S
C3225 C3226 1.523 . S
C3226 C3210 1.368 . S
C3226 C3222 1.368 . S
C3226 C3225 1.523 . S
H3227 C3202 0.950 . S
H3228 C3204 0.950 . S
H3229 C3205 0.949 . S
H3230 C3207 0.950 . S
H3231 C3209 0.950 . S
C3232 C3233 1.347 1_554 S
C3232 C3234 1.327 . S
C3232 H3257 0.950 . S
C3233 C3232 1.347 1_556 S
C3233 C3249 1.347 . S
C3234 C3232 1.327 . S
C3234 C3253 1.429 . S
C3234 H3258 0.950 . S
C3235 C3252 1.574 . S
C3235 C3254 1.368 . S
C3235 H3259 0.949 . S
H3236 C3240 0.949 . S
C3237 C3238 1.349 . S
C3237 C3239 1.327 . S
C3237 H3260 0.950 . S
C3238 C3237 1.349 . S
C3238 C3250 1.349 . S
C3239 C3237 1.327 . S
C3239 C3255 1.429 . S
C3239 H3261 0.950 . S
C3240 H3236 0.949 . S
C3240 C3248 1.574 . S
C3240 C3256 1.368 . S
H3241 C3249 0.950 . S
H3242 C3247 0.950 . S
H3243 C3248 0.949 . S
H3244 C3250 0.950 . S
H3245 C3251 0.950 . S
H3246 C3252 0.949 . S
C3247 H3242 0.950 . S
C3247 C3249 1.327 1_554 S
C3247 C3253 1.429 . S
C3248 C3240 1.574 . S
C3248 H3243 0.949 . S
C3248 C3254 1.368 . S
C3249 C3233 1.347 . S
C3249 H3241 0.950 . S
C3249 C3247 1.327 1_556 S
C3250 C3238 1.349 . S
C3250 H3244 0.950 . S
C3250 C3251 1.327 . S
C3251 H3245 0.950 . S
C3251 C3250 1.327 . S
C3251 C3255 1.429 . S
C3252 C3235 1.574 . S
C3252 H3246 0.949 . S
C3252 C3256 1.368 . S
C3253 C3234 1.429 . S
C3253 C3247 1.429 . S
C3253 C3254 1.523 . S
C3254 C3235 1.368 . S
C3254 C3248 1.368 . S
C3254 C3253 1.523 . S
C3255 C3239 1.429 . S
C3255 C3251 1.429 . S
C3255 C3256 1.523 . S
C3256 C3240 1.368 . S
C3256 C3252 1.368 . S
C3256 C3255 1.523 . S
H3257 C3232 0.950 . S
H3258 C3234 0.950 . S
H3259 C3235 0.949 . S
H3260 C3237 0.950 . S
H3261 C3239 0.950 . S
C3262 C3263 1.349 . S
C3262 C3264 1.327 . S
C3262 H3287 0.950 . S
C3263 C3262 1.349 . S
C3263 C3279 1.349 1_554 S
C3264 C3262 1.327 . S
C3264 C3283 1.429 . S
C3264 H3288 0.950 . S
C3265 C3282 1.591 . S
C3265 C3284 1.368 1_556 S
C3265 H3289 0.949 . S
H3266 C3270 0.949 . S
C3267 C3268 1.349 . S
C3267 C3269 1.327 . S
C3267 H3290 0.950 1_554 S
C3268 C3267 1.349 . S
C3268 C3280 1.349 . S
C3269 C3267 1.327 . S
C3269 C3285 1.429 . S
C3269 H3291 0.950 1_554 S
C3270 H3266 0.949 . S
C3270 C3278 1.574 . S
C3270 C3286 1.368 . S
H3271 C3279 0.950 . S
H3272 C3277 0.950 . S
H3273 C3278 0.949 . S
H3274 C3280 0.950 . S
H3275 C3281 0.950 . S
H3276 C3282 0.973 . S
C3277 H3272 0.950 . S
C3277 C3279 1.327 . S
C3277 C3283 1.429 1_556 S
C3278 C3270 1.574 . S
C3278 H3273 0.949 . S
C3278 C3284 1.368 . S
C3279 C3263 1.349 1_556 S
C3279 H3271 0.950 . S
C3279 C3277 1.327 . S
C3280 C3268 1.349 . S
C3280 H3274 0.950 . S
C3280 C3281 1.327 . S
C3281 H3275 0.950 . S
C3281 C3280 1.327 . S
C3281 C3285 1.429 . S
C3282 C3265 1.591 . S
C3282 H3276 0.973 . S
C3282 C3286 1.329 1_556 S
C3283 C3264 1.429 . S
C3283 C3277 1.429 1_554 S
C3283 C3284 1.523 . S
C3284 C3265 1.368 1_554 S
C3284 C3278 1.368 . S
C3284 C3283 1.523 . S
C3285 C3269 1.429 . S
C3285 C3281 1.429 . S
C3285 C3286 1.523 . S
C3286 C3270 1.368 . S
C3286 C3282 1.329 1_554 S
C3286 C3285 1.523 . S
H3287 C3262 0.950 . S
H3288 C3264 0.950 . S
H3289 C3265 0.949 . S
H3290 C3267 0.950 1_556 S
H3291 C3269 0.950 1_556 S
C3292 C3293 1.349 . S
C3292 C3294 1.327 . S
C3292 H3317 0.950 . S
C3293 C3292 1.349 . S
C3293 C3309 1.349 . S
C3294 C3292 1.327 . S
C3294 C3313 1.429 . S
C3294 H3318 0.950 . S
C3295 C3312 1.574 . S
C3295 C3314 1.368 . S
C3295 H3319 0.949 . S
H3296 C3300 0.949 . S
C3297 C3298 1.349 . S
C3297 C3299 1.327 . S
C3297 H3320 0.950 . S
C3298 C3297 1.349 . S
C3298 C3310 1.349 . S
C3299 C3297 1.327 . S
C3299 C3315 1.429 . S
C3299 H3321 0.950 . S
C3300 H3296 0.949 . S
C3300 C3308 1.574 . S
C3300 C3316 1.368 . S
H3301 C3309 0.950 . S
H3302 C3307 0.950 . S
H3303 C3308 0.949 . S
H3304 C3310 0.950 . S
H3305 C3311 0.950 . S
H3306 C3312 0.949 . S
C3307 H3302 0.950 . S
C3307 C3309 1.327 . S
C3307 C3313 1.429 . S
C3308 C3300 1.574 . S
C3308 H3303 0.949 . S
C3308 C3314 1.368 . S
C3309 C3293 1.349 . S
C3309 H3301 0.950 . S
C3309 C3307 1.327 . S
C3310 C3298 1.349 . S
C3310 H3304 0.950 . S
C3310 C3311 1.327 . S
C3311 H3305 0.950 . S
C3311 C3310 1.327 . S
C3311 C3315 1.429 . S
C3312 C3295 1.574 . S
C3312 H3306 0.949 . S
C3312 C3316 1.368 . S
C3313 C3294 1.429 . S
C3313 C3307 1.429 . S
C3313 C3314 1.523 . S
C3314 C3295 1.368 . S
C3314 C3308 1.368 . S
C3314 C3313 1.523 . S
C3315 C3299 1.429 . S
C3315 C3311 1.429 . S
C3315 C3316 1.523 . S
C3316 C3300 1.368 . S
C3316 C3312 1.368 . S
C3316 C3315 1.523 . S
H3317 C3292 0.950 . S
H3318 C3294 0.950 . S
H3319 C3295 0.949 . S
H3320 C3297 0.950 . S
H3321 C3299 0.950 . S
C3322 C3323 1.349 . S
C3322 C3324 1.327 . S
C3322 H3347 0.950 . S
C3323 C3322 1.349 . S
C3323 C3339 1.349 . S
C3324 C3322 1.327 . S
C3324 C3343 1.429 . S
C3324 H3348 0.950 . S
C3325 C3342 1.574 . S
C3325 C3344 1.368 . S
C3325 H3349 0.949 . S
H3326 C3330 0.949 . S
C3327 C3328 1.349 . S
C3327 C3329 1.327 . S
C3327 H3350 0.950 . S
C3328 C3327 1.349 . S
C3328 C3340 1.349 . S
C3329 C3327 1.327 . S
C3329 C3345 1.429 . S
C3329 H3351 0.950 . S
C3330 H3326 0.949 . S
C3330 C3338 1.574 . S
C3330 C3346 1.368 . S
H3331 C3339 0.950 . S
H3332 C3337 0.950 . S
H3333 C3338 0.949 . S
H3334 C3340 0.950 . S
H3335 C3341 0.950 . S
H3336 C3342 0.949 . S
C3337 H3332 0.950 . S
C3337 C3339 1.327 . S
C3337 C3343 1.429 . S
C3338 C3330 1.574 . S
C3338 H3333 0.949 . S
C3338 C3344 1.368 . S
C3339 C3323 1.349 . S
C3339 H3331 0.950 . S
C3339 C3337 1.327 . S
C3340 C3328 1.349 . S
C3340 H3334 0.950 . S
C3340 C3341 1.327 . S
C3341 H3335 0.950 . S
C3341 C3340 1.327 . S
C3341 C3345 1.429 . S
C3342 C3325 1.574 . S
C3342 H3336 0.949 . S
C3342 C3346 1.368 . S
C3343 C3324 1.429 . S
C3343 C3337 1.429 . S
C3343 C3344 1.523 . S
C3344 C3325 1.368 . S
C3344 C3338 1.368 . S
C3344 C3343 1.523 . S
C3345 C3329 1.429 . S
C3345 C3341 1.429 . S
C3345 C3346 1.523 . S
C3346 C3330 1.368 . S
C3346 C3342 1.368 . S
C3346 C3345 1.523 . S
H3347 C3322 0.950 . S
H3348 C3324 0.950 . S
H3349 C3325 0.949 . S
H3350 C3327 0.950 . S
H3351 C3329 0.950 . S
C3352 C3353 1.349 . S
C3352 C3354 1.327 . S
C3352 H3377 0.950 . S
C3353 C3352 1.349 . S
C3353 C3369 1.349 . S
C3354 C3352 1.327 . S
C3354 C3373 1.429 . S
C3354 H3378 0.950 . S
C3355 C3372 1.574 . S
C3355 C3374 1.368 . S
C3355 H3379 0.949 . S
H3356 C3360 0.949 . S
C3357 C3358 1.349 . S
C3357 C3359 1.327 . S
C3357 H3380 0.950 . S
C3358 C3357 1.349 . S
C3358 C3370 1.349 . S
C3359 C3357 1.327 . S
C3359 C3375 1.429 . S
C3359 H3381 0.950 . S
C3360 H3356 0.949 . S
C3360 C3368 1.574 . S
C3360 C3376 1.368 . S
H3361 C3369 0.950 . S
H3362 C3367 0.950 . S
H3363 C3368 0.949 . S
H3364 C3370 0.950 . S
H3365 C3371 0.950 . S
H3366 C3372 0.949 . S
C3367 H3362 0.950 . S
C3367 C3369 1.327 . S
C3367 C3373 1.429 . S
C3368 C3360 1.574 . S
C3368 H3363 0.949 . S
C3368 C3374 1.368 . S
C3369 C3353 1.349 . S
C3369 H3361 0.950 . S
C3369 C3367 1.327 . S
C3370 C3358 1.349 . S
C3370 H3364 0.950 . S
C3370 C3371 1.327 . S
C3371 H3365 0.950 . S
C3371 C3370 1.327 . S
C3371 C3375 1.429 . S
C3372 C3355 1.574 . S
C3372 H3366 0.949 . S
C3372 C3376 1.368 . S
C3373 C3354 1.429 . S
C3373 C3367 1.429 . S
C3373 C3374 1.523 . S
C3374 C3355 1.368 . S
C3374 C3368 1.368 . S
C3374 C3373 1.523 . S
C3375 C3359 1.429 . S
C3375 C3371 1.429 . S
C3375 C3376 1.523 . S
C3376 C3360 1.368 . S
C3376 C3372 1.368 . S
C3376 C3375 1.523 . S
H3377 C3352 0.950 . S
H3378 C3354 0.950 . S
H3379 C3355 0.949 . S
H3380 C3357 0.950 . S
H3381 C3359 0.950 . S
C3382 C3383 1.349 . S
C3382 C3384 1.327 . S
C3382 H3407 0.950 . S
C3383 C3382 1.349 . S
C3383 C3399 1.349 . S
C3384 C3382 1.327 . S
C3384 C3403 1.429 . S
C3384 H3408 0.950 . S
C3385 C3402 1.574 . S
C3385 C3404 1.368 . S
C3385 H3409 0.949 . S
H3386 C3390 0.949 . S
C3387 C3388 1.349 . S
C3387 C3389 1.327 . S
C3387 H3410 0.950 . S
C3388 C3387 1.349 . S
C3388 C3400 1.349 . S
C3389 C3387 1.327 . S
C3389 C3405 1.429 . S
C3389 H3411 0.950 . S
C3390 H3386 0.949 . S
C3390 C3398 1.574 . S
C3390 C3406 1.368 . S
H3391 C3399 0.950 . S
H3392 C3397 0.950 . S
H3393 C3398 0.949 . S
H3394 C3400 0.950 . S
H3395 C3401 0.950 . S
H3396 C3402 0.949 . S
C3397 H3392 0.950 . S
C3397 C3399 1.327 . S
C3397 C3403 1.429 . S
C3398 C3390 1.574 . S
C3398 H3393 0.949 . S
C3398 C3404 1.368 . S
C3399 C3383 1.349 . S
C3399 H3391 0.950 . S
C3399 C3397 1.327 . S
C3400 C3388 1.349 . S
C3400 H3394 0.950 . S
C3400 C3401 1.327 . S
C3401 H3395 0.950 . S
C3401 C3400 1.327 . S
C3401 C3405 1.429 . S
C3402 C3385 1.574 . S
C3402 H3396 0.949 . S
C3402 C3406 1.368 . S
C3403 C3384 1.429 . S
C3403 C3397 1.429 . S
C3403 C3404 1.523 . S
C3404 C3385 1.368 . S
C3404 C3398 1.368 . S
C3404 C3403 1.523 . S
C3405 C3389 1.429 . S
C3405 C3401 1.429 . S
C3405 C3406 1.523 . S
C3406 C3390 1.368 . S
C3406 C3402 1.368 . S
C3406 C3405 1.523 . S
H3407 C3382 0.950 . S
H3408 C3384 0.950 . S
H3409 C3385 0.949 . S
H3410 C3387 0.950 . S
H3411 C3389 0.950 . S
C3412 C3413 1.349 . S
C3412 C3414 1.327 . S
C3412 H3437 0.950 . S
C3413 C3412 1.349 . S
C3413 C3429 1.349 . S
C3414 C3412 1.327 . S
C3414 C3433 1.429 . S
C3414 H3438 0.950 . S
C3415 C3432 1.574 . S
C3415 C3434 1.368 . S
C3415 H3439 0.949 . S
H3416 C3420 0.949 . S
C3417 C3418 1.349 . S
C3417 C3419 1.327 . S
C3417 H3440 0.950 . S
C3418 C3417 1.349 . S
C3418 C3430 1.349 . S
C3419 C3417 1.327 . S
C3419 C3435 1.429 . S
C3419 H3441 0.950 . S
C3420 H3416 0.949 . S
C3420 C3428 1.574 . S
C3420 C3436 1.368 . S
H3421 C3429 0.950 . S
H3422 C3427 0.950 . S
H3423 C3428 0.949 . S
H3424 C3430 0.950 . S
H3425 C3431 0.950 . S
H3426 C3432 0.949 . S
C3427 H3422 0.950 . S
C3427 C3429 1.327 . S
C3427 C3433 1.429 . S
C3428 C3420 1.574 . S
C3428 H3423 0.949 . S
C3428 C3434 1.368 . S
C3429 C3413 1.349 . S
C3429 H3421 0.950 . S
C3429 C3427 1.327 . S
C3430 C3418 1.349 . S
C3430 H3424 0.950 . S
C3430 C3431 1.327 . S
C3431 H3425 0.950 . S
C3431 C3430 1.327 . S
C3431 C3435 1.429 . S
C3432 C3415 1.574 . S
C3432 H3426 0.949 . S
C3432 C3436 1.368 . S
C3433 C3414 1.429 . S
C3433 C3427 1.429 . S
C3433 C3434 1.523 . S
C3434 C3415 1.368 . S
C3434 C3428 1.368 . S
C3434 C3433 1.523 . S
C3435 C3419 1.429 . S
C3435 C3431 1.429 . S
C3435 C3436 1.523 . S
C3436 C3420 1.368 . S
C3436 C3432 1.368 . S
C3436 C3435 1.523 . S
H3437 C3412 0.950 . S
H3438 C3414 0.950 . S
H3439 C3415 0.949 . S
H3440 C3417 0.950 . S
H3441 C3419 0.950 . S
C3442 C3443 1.349 . S
C3442 C3444 1.327 . S
C3442 H3467 0.950 . S
C3443 C3442 1.349 . S
C3443 C3459 1.349 . S
C3444 C3442 1.327 . S
C3444 C3463 1.429 . S
C3444 H3468 0.950 . S
C3445 C3462 1.574 . S
C3445 C3464 1.368 . S
C3445 H3469 0.949 . S
H3446 C3450 0.949 . S
C3447 C3448 1.349 . S
C3447 C3449 1.327 . S
C3447 H3470 0.950 . S
C3448 C3447 1.349 . S
C3448 C3460 1.349 . S
C3449 C3447 1.327 . S
C3449 C3465 1.429 . S
C3449 H3471 0.950 . S
C3450 H3446 0.949 . S
C3450 C3458 1.574 . S
C3450 C3466 1.368 . S
H3451 C3459 0.950 . S
H3452 C3457 0.950 . S
H3453 C3458 0.949 . S
H3454 C3460 0.950 . S
H3455 C3461 0.950 . S
H3456 C3462 0.949 . S
C3457 H3452 0.950 . S
C3457 C3459 1.327 . S
C3457 C3463 1.429 . S
C3458 C3450 1.574 . S
C3458 H3453 0.949 . S
C3458 C3464 1.368 . S
C3459 C3443 1.349 . S
C3459 H3451 0.950 . S
C3459 C3457 1.327 . S
C3460 C3448 1.349 . S
C3460 H3454 0.950 . S
C3460 C3461 1.327 . S
C3461 H3455 0.950 . S
C3461 C3460 1.327 . S
C3461 C3465 1.429 . S
C3462 C3445 1.574 . S
C3462 H3456 0.949 . S
C3462 C3466 1.368 . S
C3463 C3444 1.429 . S
C3463 C3457 1.429 . S
C3463 C3464 1.523 . S
C3464 C3445 1.368 . S
C3464 C3458 1.368 . S
C3464 C3463 1.523 . S
C3465 C3449 1.429 . S
C3465 C3461 1.429 . S
C3465 C3466 1.523 . S
C3466 C3450 1.368 . S
C3466 C3462 1.368 . S
C3466 C3465 1.523 . S
H3467 C3442 0.950 . S
H3468 C3444 0.950 . S
H3469 C3445 0.949 . S
H3470 C3447 0.950 . S
H3471 C3449 0.950 . S
C3472 C3473 1.349 . S
C3472 C3474 1.327 . S
C3472 H3497 0.950 . S
C3473 C3472 1.349 . S
C3473 C3489 1.349 . S
C3474 C3472 1.327 . S
C3474 C3493 1.429 . S
C3474 H3498 0.950 . S
C3475 C3492 1.574 . S
C3475 C3494 1.368 . S
C3475 H3499 0.949 . S
H3476 C3480 0.949 . S
C3477 C3478 1.349 . S
C3477 C3479 1.327 . S
C3477 H3500 0.950 . S
C3478 C3477 1.349 . S
C3478 C3490 1.349 . S
C3479 C3477 1.327 . S
C3479 C3495 1.429 . S
C3479 H3501 0.950 . S
C3480 H3476 0.949 . S
C3480 C3488 1.574 . S
C3480 C3496 1.368 . S
H3481 C3489 0.950 . S
H3482 C3487 0.950 . S
H3483 C3488 0.949 . S
H3484 C3490 0.950 . S
H3485 C3491 0.950 . S
H3486 C3492 0.949 . S
C3487 H3482 0.950 . S
C3487 C3489 1.327 . S
C3487 C3493 1.429 . S
C3488 C3480 1.574 . S
C3488 H3483 0.949 . S
C3488 C3494 1.368 . S
C3489 C3473 1.349 . S
C3489 H3481 0.950 . S
C3489 C3487 1.327 . S
C3490 C3478 1.349 . S
C3490 H3484 0.950 . S
C3490 C3491 1.327 . S
C3491 H3485 0.950 . S
C3491 C3490 1.327 . S
C3491 C3495 1.429 . S
C3492 C3475 1.574 . S
C3492 H3486 0.949 . S
C3492 C3496 1.368 . S
C3493 C3474 1.429 . S
C3493 C3487 1.429 . S
C3493 C3494 1.523 . S
C3494 C3475 1.368 . S
C3494 C3488 1.368 . S
C3494 C3493 1.523 . S
C3495 C3479 1.429 . S
C3495 C3491 1.429 . S
C3495 C3496 1.523 . S
C3496 C3480 1.368 . S
C3496 C3492 1.368 . S
C3496 C3495 1.523 . S
H3497 C3472 0.950 . S
H3498 C3474 0.950 . S
H3499 C3475 0.949 . S
H3500 C3477 0.950 . S
H3501 C3479 0.950 . S
C3502 C3503 1.349 . S
C3502 C3504 1.327 . S
C3502 H3527 0.950 . S
C3503 C3502 1.349 . S
C3503 C3519 1.349 . S
C3504 C3502 1.327 . S
C3504 C3523 1.429 . S
C3504 H3528 0.950 . S
C3505 C3522 1.574 . S
C3505 C3524 1.368 . S
C3505 H3529 0.949 . S
H3506 C3510 0.949 . S
C3507 C3508 1.349 . S
C3507 C3509 1.327 . S
C3507 H3530 0.950 . S
C3508 C3507 1.349 . S
C3508 C3520 1.349 . S
C3509 C3507 1.327 . S
C3509 C3525 1.429 . S
C3509 H3531 0.950 . S
C3510 H3506 0.949 . S
C3510 C3518 1.574 . S
C3510 C3526 1.368 . S
H3511 C3519 0.950 . S
H3512 C3517 0.950 . S
H3513 C3518 0.949 . S
H3514 C3520 0.950 . S
H3515 C3521 0.950 . S
H3516 C3522 0.949 . S
C3517 H3512 0.950 . S
C3517 C3519 1.327 . S
C3517 C3523 1.429 . S
C3518 C3510 1.574 . S
C3518 H3513 0.949 . S
C3518 C3524 1.368 . S
C3519 C3503 1.349 . S
C3519 H3511 0.950 . S
C3519 C3517 1.327 . S
C3520 C3508 1.349 . S
C3520 H3514 0.950 . S
C3520 C3521 1.327 . S
C3521 H3515 0.950 . S
C3521 C3520 1.327 . S
C3521 C3525 1.429 . S
C3522 C3505 1.574 . S
C3522 H3516 0.949 . S
C3522 C3526 1.368 . S
C3523 C3504 1.429 . S
C3523 C3517 1.429 . S
C3523 C3524 1.523 . S
C3524 C3505 1.368 . S
C3524 C3518 1.368 . S
C3524 C3523 1.523 . S
C3525 C3509 1.429 . S
C3525 C3521 1.429 . S
C3525 C3526 1.523 . S
C3526 C3510 1.368 . S
C3526 C3522 1.368 . S
C3526 C3525 1.523 . S
H3527 C3502 0.950 . S
H3528 C3504 0.950 . S
H3529 C3505 0.949 . S
H3530 C3507 0.950 . S
H3531 C3509 0.950 . S
C3532 C3533 1.349 . S
C3532 C3534 1.327 . S
C3532 H3557 0.950 . S
C3533 C3532 1.349 . S
C3533 C3549 1.349 . S
C3534 C3532 1.327 . S
C3534 C3553 1.429 . S
C3534 H3558 0.950 . S
C3535 C3552 1.574 . S
C3535 C3554 1.368 . S
C3535 H3559 0.949 . S
H3536 C3540 0.949 . S
C3537 C3538 1.349 . S
C3537 C3539 1.327 . S
C3537 H3560 0.950 . S
C3538 C3537 1.349 . S
C3538 C3550 1.349 . S
C3539 C3537 1.327 . S
C3539 C3555 1.429 . S
C3539 H3561 0.950 . S
C3540 H3536 0.949 . S
C3540 C3548 1.574 . S
C3540 C3556 1.368 . S
H3541 C3549 0.950 . S
H3542 C3547 0.950 . S
H3543 C3548 0.949 . S
H3544 C3550 0.950 . S
H3545 C3551 0.950 . S
H3546 C3552 0.949 . S
C3547 H3542 0.950 . S
C3547 C3549 1.327 . S
C3547 C3553 1.429 . S
C3548 C3540 1.574 . S
C3548 H3543 0.949 . S
C3548 C3554 1.368 . S
C3549 C3533 1.349 . S
C3549 H3541 0.950 . S
C3549 C3547 1.327 . S
C3550 C3538 1.349 . S
C3550 H3544 0.950 . S
C3550 C3551 1.327 . S
C3551 H3545 0.950 . S
C3551 C3550 1.327 . S
C3551 C3555 1.429 . S
C3552 C3535 1.574 . S
C3552 H3546 0.949 . S
C3552 C3556 1.368 . S
C3553 C3534 1.429 . S
C3553 C3547 1.429 . S
C3553 C3554 1.523 . S
C3554 C3535 1.368 . S
C3554 C3548 1.368 . S
C3554 C3553 1.523 . S
C3555 C3539 1.429 . S
C3555 C3551 1.429 . S
C3555 C3556 1.523 . S
C3556 C3540 1.368 . S
C3556 C3552 1.368 . S
C3556 C3555 1.523 . S
H3557 C3532 0.950 . S
H3558 C3534 0.950 . S
H3559 C3535 0.949 . S
H3560 C3537 0.950 . S
H3561 C3539 0.950 . S
C3562 C3563 1.349 . S
C3562 C3564 1.327 . S
C3562 H3587 0.950 . S
C3563 C3562 1.349 . S
C3563 C3579 1.349 . S
C3564 C3562 1.327 . S
C3564 C3583 1.429 . S
C3564 H3588 0.950 . S
C3565 C3582 1.574 . S
C3565 C3584 1.368 . S
C3565 H3589 0.949 . S
H3566 C3570 0.949 . S
C3567 C3568 1.349 . S
C3567 C3569 1.327 . S
C3567 H3590 0.950 . S
C3568 C3567 1.349 . S
C3568 C3580 1.349 . S
C3569 C3567 1.327 . S
C3569 C3585 1.429 . S
C3569 H3591 0.950 . S
C3570 H3566 0.949 . S
C3570 C3578 1.574 . S
C3570 C3586 1.368 . S
H3571 C3579 0.950 . S
H3572 C3577 0.950 . S
H3573 C3578 0.949 . S
H3574 C3580 0.950 . S
H3575 C3581 0.950 . S
H3576 C3582 0.949 . S
C3577 H3572 0.950 . S
C3577 C3579 1.327 . S
C3577 C3583 1.429 . S
C3578 C3570 1.574 . S
C3578 H3573 0.949 . S
C3578 C3584 1.368 . S
C3579 C3563 1.349 . S
C3579 H3571 0.950 . S
C3579 C3577 1.327 . S
C3580 C3568 1.349 . S
C3580 H3574 0.950 . S
C3580 C3581 1.327 . S
C3581 H3575 0.950 . S
C3581 C3580 1.327 . S
C3581 C3585 1.429 . S
C3582 C3565 1.574 . S
C3582 H3576 0.949 . S
C3582 C3586 1.368 . S
C3583 C3564 1.429 . S
C3583 C3577 1.429 . S
C3583 C3584 1.523 . S
C3584 C3565 1.368 . S
C3584 C3578 1.368 . S
C3584 C3583 1.523 . S
C3585 C3569 1.429 . S
C3585 C3581 1.429 . S
C3585 C3586 1.523 . S
C3586 C3570 1.368 . S
C3586 C3582 1.368 . S
C3586 C3585 1.523 . S
H3587 C3562 0.950 . S
H3588 C3564 0.950 . S
H3589 C3565 0.949 . S
H3590 C3567 0.950 . S
H3591 C3569 0.950 . S
C3592 C3593 1.349 . S
C3592 C3594 1.327 . S
C3592 H3617 0.950 . S
C3593 C3592 1.349 . S
C3593 C3609 1.349 1_655 S
C3594 C3592 1.327 . S
C3594 C3613 1.454 . S
C3594 H3618 0.950 . S
C3595 C3612 1.574 . S
C3595 C3614 1.360 1_455 S
C3595 H3619 0.949 . S
H3596 C3600 0.949 . S
C3597 C3598 1.349 . S
C3597 C3599 1.327 . S
C3597 H3620 0.950 . S
C3598 C3597 1.349 . S
C3598 C3610 1.349 1_455 S
C3599 C3597 1.327 . S
C3599 C3615 1.457 . S
C3599 H3621 0.950 . S
C3600 H3596 0.949 . S
C3600 C3608 1.574 . S
C3600 C3616 1.357 1_655 S
H3601 C3609 0.950 . S
H3602 C3607 0.950 . S
H3603 C3608 0.949 . S
H3604 C3610 0.950 . S
H3605 C3611 0.950 . S
H3606 C3612 0.949 . S
C3607 H3602 0.950 . S
C3607 C3609 1.327 . S
C3607 C3613 1.410 1_455 S
C3608 C3600 1.574 . S
C3608 H3603 0.949 . S
C3608 C3614 1.376 . S
C3609 C3593 1.349 1_455 S
C3609 H3601 0.950 . S
C3609 C3607 1.327 . S
C3610 C3598 1.349 1_655 S
C3610 H3604 0.950 . S
C3610 C3611 1.327 . S
C3611 H3605 0.950 . S
C3611 C3610 1.327 . S
C3611 C3615 1.408 1_655 S
C3612 C3595 1.574 . S
C3612 H3606 0.949 . S
C3612 C3616 1.378 . S
C3613 C3594 1.454 . S
C3613 C3607 1.410 1_655 S
C3613 C3614 1.519 . S
C3614 C3595 1.360 1_655 S
C3614 C3608 1.376 . S
C3614 C3613 1.519 . S
C3615 C3599 1.457 . S
C3615 C3611 1.408 1_455 S
C3615 C3616 1.519 . S
C3616 C3600 1.357 1_455 S
C3616 C3612 1.378 . S
C3616 C3615 1.519 . S
H3617 C3592 0.950 . S
H3618 C3594 0.950 . S
H3619 C3595 0.949 . S
H3620 C3597 0.950 . S
H3621 C3599 0.950 . S
C3622 C3623 1.349 . S
C3622 C3624 1.327 . S
C3622 H3647 0.950 . S
C3623 C3622 1.349 . S
C3623 C3639 1.349 . S
C3624 C3622 1.327 . S
C3624 C3643 1.429 . S
C3624 H3648 0.950 . S
C3625 C3642 1.574 . S
C3625 C3644 1.368 . S
C3625 H3649 0.949 . S
H3626 C3630 0.949 . S
C3627 C3628 1.349 . S
C3627 C3629 1.327 . S
C3627 H3650 0.950 . S
C3628 C3627 1.349 . S
C3628 C3640 1.349 . S
C3629 C3627 1.327 . S
C3629 C3645 1.429 . S
C3629 H3651 0.950 . S
C3630 H3626 0.949 . S
C3630 C3638 1.574 . S
C3630 C3646 1.368 . S
H3631 C3639 0.950 . S
H3632 C3637 0.950 . S
H3633 C3638 0.949 . S
H3634 C3640 0.950 . S
H3635 C3641 0.950 . S
H3636 C3642 0.949 . S
C3637 H3632 0.950 . S
C3637 C3639 1.327 . S
C3637 C3643 1.429 . S
C3638 C3630 1.574 . S
C3638 H3633 0.949 . S
C3638 C3644 1.368 . S
C3639 C3623 1.349 . S
C3639 H3631 0.950 . S
C3639 C3637 1.327 . S
C3640 C3628 1.349 . S
C3640 H3634 0.950 . S
C3640 C3641 1.327 . S
C3641 H3635 0.950 . S
C3641 C3640 1.327 . S
C3641 C3645 1.429 . S
C3642 C3625 1.574 . S
C3642 H3636 0.949 . S
C3642 C3646 1.368 . S
C3643 C3624 1.429 . S
C3643 C3637 1.429 . S
C3643 C3644 1.523 . S
C3644 C3625 1.368 . S
C3644 C3638 1.368 . S
C3644 C3643 1.523 . S
C3645 C3629 1.429 . S
C3645 C3641 1.429 . S
C3645 C3646 1.523 . S
C3646 C3630 1.368 . S
C3646 C3642 1.368 . S
C3646 C3645 1.523 . S
H3647 C3622 0.950 . S
H3648 C3624 0.950 . S
H3649 C3625 0.949 . S
H3650 C3627 0.950 . S
H3651 C3629 0.950 . S
C3652 C3653 1.349 . S
C3652 C3654 1.327 . S
C3652 H3677 0.950 . S
C3653 C3652 1.349 . S
C3653 C3669 1.349 . S
C3654 C3652 1.327 . S
C3654 C3673 1.429 . S
C3654 H3678 0.950 . S
C3655 C3672 1.574 . S
C3655 C3674 1.368 . S
C3655 H3679 0.949 . S
H3656 C3660 0.949 . S
C3657 C3658 1.346 1_554 S
C3657 C3659 1.327 1_554 S
C3657 H3680 0.950 . S
C3658 C3657 1.346 1_556 S
C3658 C3670 1.358 . S
C3659 C3657 1.327 1_556 S
C3659 C3675 1.429 . S
C3659 H3681 0.950 . S
C3660 H3656 0.949 . S
C3660 C3668 1.574 . S
C3660 C3676 1.368 . S
H3661 C3669 0.950 . S
H3662 C3667 0.950 . S
H3663 C3668 0.949 . S
H3664 C3670 0.950 . S
H3665 C3671 0.950 . S
H3666 C3672 0.949 . S
C3667 H3662 0.950 . S
C3667 C3669 1.327 . S
C3667 C3673 1.429 . S
C3668 C3660 1.574 . S
C3668 H3663 0.949 . S
C3668 C3674 1.368 . S
C3669 C3653 1.349 . S
C3669 H3661 0.950 . S
C3669 C3667 1.327 . S
C3670 C3658 1.358 . S
C3670 H3664 0.950 . S
C3670 C3671 1.327 . S
C3671 H3665 0.950 . S
C3671 C3670 1.327 . S
C3671 C3675 1.429 . S
C3672 C3655 1.574 . S
C3672 H3666 0.949 . S
C3672 C3676 1.368 . S
C3673 C3654 1.429 . S
C3673 C3667 1.429 . S
C3673 C3674 1.523 . S
C3674 C3655 1.368 . S
C3674 C3668 1.368 . S
C3674 C3673 1.523 . S
C3675 C3659 1.429 . S
C3675 C3671 1.429 . S
C3675 C3676 1.523 . S
C3676 C3660 1.368 . S
C3676 C3672 1.368 . S
C3676 C3675 1.523 . S
H3677 C3652 0.950 . S
H3678 C3654 0.950 . S
H3679 C3655 0.949 . S
H3680 C3657 0.950 . S
H3681 C3659 0.950 . S
C3682 C3683 1.349 . S
C3682 C3684 1.327 . S
C3682 H3707 0.950 . S
C3683 C3682 1.349 . S
C3683 C3699 1.349 . S
C3684 C3682 1.327 . S
C3684 C3703 1.429 . S
C3684 H3708 0.950 . S
C3685 C3702 1.574 . S
C3685 C3704 1.368 . S
C3685 H3709 0.949 . S
H3686 C3690 0.949 . S
C3687 C3688 1.349 . S
C3687 C3689 1.327 . S
C3687 H3710 0.950 . S
C3688 C3687 1.349 . S
C3688 C3700 1.349 . S
C3689 C3687 1.327 . S
C3689 C3705 1.429 . S
C3689 H3711 0.950 . S
C3690 H3686 0.949 . S
C3690 C3698 1.574 . S
C3690 C3706 1.368 . S
H3691 C3699 0.950 . S
H3692 C3697 0.950 . S
H3693 C3698 0.949 . S
H3694 C3700 0.950 . S
H3695 C3701 0.950 . S
H3696 C3702 0.949 . S
C3697 H3692 0.950 . S
C3697 C3699 1.327 . S
C3697 C3703 1.429 . S
C3698 C3690 1.574 . S
C3698 H3693 0.949 . S
C3698 C3704 1.368 . S
C3699 C3683 1.349 . S
C3699 H3691 0.950 . S
C3699 C3697 1.327 . S
C3700 C3688 1.349 . S
C3700 H3694 0.950 . S
C3700 C3701 1.327 . S
C3701 H3695 0.950 . S
C3701 C3700 1.327 . S
C3701 C3705 1.429 . S
C3702 C3685 1.574 . S
C3702 H3696 0.949 . S
C3702 C3706 1.368 . S
C3703 C3684 1.429 . S
C3703 C3697 1.429 . S
C3703 C3704 1.523 . S
C3704 C3685 1.368 . S
C3704 C3698 1.368 . S
C3704 C3703 1.523 . S
C3705 C3689 1.429 . S
C3705 C3701 1.429 . S
C3705 C3706 1.523 . S
C3706 C3690 1.368 . S
C3706 C3702 1.368 . S
C3706 C3705 1.523 . S
H3707 C3682 0.950 . S
H3708 C3684 0.950 . S
H3709 C3685 0.949 . S
H3710 C3687 0.950 . S
H3711 C3689 0.950 . S
C3712 C3713 1.349 . S
C3712 C3714 1.327 . S
C3712 H3737 0.950 . S
C3713 C3712 1.349 . S
C3713 C3729 1.349 . S
C3714 C3712 1.327 . S
C3714 C3733 1.429 . S
C3714 H3738 0.950 . S
C3715 C3732 1.574 . S
C3715 C3734 1.367 1_565 S
C3715 H3739 0.950 . S
H3716 C3720 0.949 . S
C3717 C3718 1.349 1_565 S
C3717 C3719 1.327 . S
C3717 H3740 0.950 . S
C3718 C3717 1.349 1_545 S
C3718 C3730 1.349 . S
C3719 C3717 1.327 . S
C3719 C3735 1.429 1_565 S
C3719 H3741 0.950 . S
C3720 H3716 0.949 . S
C3720 C3728 1.574 . S
C3720 C3736 1.368 . S
H3721 C3729 0.950 1_565 S
H3722 C3727 0.950 1_565 S
H3723 C3728 0.949 . S
H3724 C3730 0.950 . S
H3725 C3731 0.950 . S
H3726 C3732 0.949 . S
C3727 H3722 0.950 1_545 S
C3727 C3729 1.327 . S
C3727 C3733 1.429 . S
C3728 C3720 1.574 . S
C3728 H3723 0.949 . S
C3728 C3734 1.368 . S
C3729 C3713 1.349 . S
C3729 H3721 0.950 1_545 S
C3729 C3727 1.327 . S
C3730 C3718 1.349 . S
C3730 H3724 0.950 . S
C3730 C3731 1.327 . S
C3731 H3725 0.950 . S
C3731 C3730 1.327 . S
C3731 C3735 1.429 . S
C3732 C3715 1.574 . S
C3732 H3726 0.949 . S
C3732 C3736 1.368 1_565 S
C3733 C3714 1.429 . S
C3733 C3727 1.429 . S
C3733 C3734 1.523 . S
C3734 C3715 1.367 1_545 S
C3734 C3728 1.368 . S
C3734 C3733 1.523 . S
C3735 C3719 1.429 1_545 S
C3735 C3731 1.429 . S
C3735 C3736 1.523 . S
C3736 C3720 1.368 . S
C3736 C3732 1.368 1_545 S
C3736 C3735 1.523 . S
H3737 C3712 0.950 . S
H3738 C3714 0.950 . S
H3739 C3715 0.950 . S
H3740 C3717 0.950 . S
H3741 C3719 0.950 . S
C3742 C3743 1.349 . S
C3742 C3744 1.327 . S
C3742 H3767 0.950 . S
C3743 C3742 1.349 . S
C3743 C3759 1.349 . S
C3744 C3742 1.327 . S
C3744 C3763 1.429 . S
C3744 H3768 0.950 . S
C3745 C3762 1.574 . S
C3745 C3764 1.368 . S
C3745 H3769 0.949 . S
H3746 C3750 0.949 . S
C3747 C3748 1.349 . S
C3747 C3749 1.327 . S
C3747 H3770 0.950 . S
C3748 C3747 1.349 . S
C3748 C3760 1.349 . S
C3749 C3747 1.327 . S
C3749 C3765 1.429 . S
C3749 H3771 0.950 . S
C3750 H3746 0.949 . S
C3750 C3758 1.574 . S
C3750 C3766 1.368 . S
H3751 C3759 0.950 . S
H3752 C3757 0.950 . S
H3753 C3758 0.949 . S
H3754 C3760 0.950 . S
H3755 C3761 0.950 . S
H3756 C3762 0.949 . S
C3757 H3752 0.950 . S
C3757 C3759 1.327 . S
C3757 C3763 1.429 . S
C3758 C3750 1.574 . S
C3758 H3753 0.949 . S
C3758 C3764 1.368 . S
C3759 C3743 1.349 . S
C3759 H3751 0.950 . S
C3759 C3757 1.327 . S
C3760 C3748 1.349 . S
C3760 H3754 0.950 . S
C3760 C3761 1.327 . S
C3761 H3755 0.950 . S
C3761 C3760 1.327 . S
C3761 C3765 1.429 . S
C3762 C3745 1.574 . S
C3762 H3756 0.949 . S
C3762 C3766 1.368 . S
C3763 C3744 1.429 . S
C3763 C3757 1.429 . S
C3763 C3764 1.523 . S
C3764 C3745 1.368 . S
C3764 C3758 1.368 . S
C3764 C3763 1.523 . S
C3765 C3749 1.429 . S
C3765 C3761 1.429 . S
C3765 C3766 1.523 . S
C3766 C3750 1.368 . S
C3766 C3762 1.368 . S
C3766 C3765 1.523 . S
H3767 C3742 0.950 . S
H3768 C3744 0.950 . S
H3769 C3745 0.949 . S
H3770 C3747 0.950 . S
H3771 C3749 0.950 . S
C3772 C3773 1.349 . S
C3772 C3774 1.327 . S
C3772 H3797 0.950 . S
C3773 C3772 1.349 . S
C3773 C3789 1.349 . S
C3774 C3772 1.327 . S
C3774 C3793 1.429 . S
C3774 H3798 0.950 . S
C3775 C3792 1.574 . S
C3775 C3794 1.368 . S
C3775 H3799 0.949 . S
H3776 C3780 0.949 . S
C3777 C3778 1.349 . S
C3777 C3779 1.327 . S
C3777 H3800 0.950 . S
C3778 C3777 1.349 . S
C3778 C3790 1.349 . S
C3779 C3777 1.327 . S
C3779 C3795 1.429 . S
C3779 H3801 0.950 . S
C3780 H3776 0.949 . S
C3780 C3788 1.574 . S
C3780 C3796 1.368 . S
H3781 C3789 0.950 . S
H3782 C3787 0.950 . S
H3783 C3788 0.949 . S
H3784 C3790 0.950 . S
H3785 C3791 0.950 . S
H3786 C3792 0.949 . S
C3787 H3782 0.950 . S
C3787 C3789 1.327 . S
C3787 C3793 1.429 . S
C3788 C3780 1.574 . S
C3788 H3783 0.949 . S
C3788 C3794 1.368 . S
C3789 C3773 1.349 . S
C3789 H3781 0.950 . S
C3789 C3787 1.327 . S
C3790 C3778 1.349 . S
C3790 H3784 0.950 . S
C3790 C3791 1.327 . S
C3791 H3785 0.950 . S
C3791 C3790 1.327 . S
C3791 C3795 1.429 . S
C3792 C3775 1.574 . S
C3792 H3786 0.949 . S
C3792 C3796 1.368 . S
C3793 C3774 1.429 . S
C3793 C3787 1.429 . S
C3793 C3794 1.523 . S
C3794 C3775 1.368 . S
C3794 C3788 1.368 . S
C3794 C3793 1.523 . S
C3795 C3779 1.429 . S
C3795 C3791 1.429 . S
C3795 C3796 1.523 . S
C3796 C3780 1.368 . S
C3796 C3792 1.368 . S
C3796 C3795 1.523 . S
H3797 C3772 0.950 . S
H3798 C3774 0.950 . S
H3799 C3775 0.949 . S
H3800 C3777 0.950 . S
H3801 C3779 0.950 . S
C3802 C3803 1.349 . S
C3802 C3804 1.327 . S
C3802 H3827 0.950 . S
C3803 C3802 1.349 . S
C3803 C3819 1.349 . S
C3804 C3802 1.327 . S
C3804 C3823 1.429 . S
C3804 H3828 0.950 . S
C3805 C3822 1.574 . S
C3805 C3824 1.368 . S
C3805 H3829 0.949 . S
H3806 C3810 0.949 . S
C3807 C3808 1.349 . S
C3807 C3809 1.327 . S
C3807 H3830 0.950 . S
C3808 C3807 1.349 . S
C3808 C3820 1.349 . S
C3809 C3807 1.327 . S
C3809 C3825 1.429 . S
C3809 H3831 0.950 . S
C3810 H3806 0.949 . S
C3810 C3818 1.574 . S
C3810 C3826 1.368 . S
H3811 C3819 0.950 . S
H3812 C3817 0.950 . S
H3813 C3818 0.949 . S
H3814 C3820 0.950 . S
H3815 C3821 0.950 . S
H3816 C3822 0.949 . S
C3817 H3812 0.950 . S
C3817 C3819 1.327 . S
C3817 C3823 1.429 . S
C3818 C3810 1.574 . S
C3818 H3813 0.949 . S
C3818 C3824 1.368 . S
C3819 C3803 1.349 . S
C3819 H3811 0.950 . S
C3819 C3817 1.327 . S
C3820 C3808 1.349 . S
C3820 H3814 0.950 . S
C3820 C3821 1.327 . S
C3821 H3815 0.950 . S
C3821 C3820 1.327 . S
C3821 C3825 1.429 . S
C3822 C3805 1.574 . S
C3822 H3816 0.949 . S
C3822 C3826 1.368 . S
C3823 C3804 1.429 . S
C3823 C3817 1.429 . S
C3823 C3824 1.523 . S
C3824 C3805 1.368 . S
C3824 C3818 1.368 . S
C3824 C3823 1.523 . S
C3825 C3809 1.429 . S
C3825 C3821 1.429 . S
C3825 C3826 1.523 . S
C3826 C3810 1.368 . S
C3826 C3822 1.368 . S
C3826 C3825 1.523 . S
H3827 C3802 0.950 . S
H3828 C3804 0.950 . S
H3829 C3805 0.949 . S
H3830 C3807 0.950 . S
H3831 C3809 0.950 . S
C3832 C3833 1.349 1_565 S
C3832 C3834 1.327 . S
C3832 H3857 0.950 . S
C3833 C3832 1.349 1_545 S
C3833 C3849 1.349 . S
C3834 C3832 1.327 . S
C3834 C3853 1.429 1_565 S
C3834 H3858 0.950 . S
C3835 C3852 1.574 . S
C3835 C3854 1.368 . S
C3835 H3859 0.949 . S
H3836 C3840 0.949 . S
C3837 C3838 1.349 . S
C3837 C3839 1.327 . S
C3837 H3860 0.950 . S
C3838 C3837 1.349 . S
C3838 C3850 1.317 1_545 S
C3839 C3837 1.327 . S
C3839 C3855 1.429 . S
C3839 H3861 0.950 . S
C3840 H3836 0.949 . S
C3840 C3848 1.574 . S
C3840 C3856 1.368 1_565 S
H3841 C3849 0.950 . S
H3842 C3847 0.950 . S
H3843 C3848 0.949 . S
H3844 C3850 0.972 . S
H3845 C3851 0.950 . S
H3846 C3852 0.949 . S
C3847 H3842 0.950 . S
C3847 C3849 1.327 . S
C3847 C3853 1.429 . S
C3848 C3840 1.574 . S
C3848 H3843 0.949 . S
C3848 C3854 1.368 1_565 S
C3849 C3833 1.349 . S
C3849 H3841 0.950 . S
C3849 C3847 1.327 . S
C3850 C3838 1.317 1_565 S
C3850 H3844 0.972 . S
C3850 C3851 1.339 . S
C3851 H3845 0.950 . S
C3851 C3850 1.339 . S
C3851 C3855 1.429 1_565 S
C3852 C3835 1.574 . S
C3852 H3846 0.949 . S
C3852 C3856 1.368 . S
C3853 C3834 1.429 1_545 S
C3853 C3847 1.429 . S
C3853 C3854 1.523 . S
C3854 C3835 1.368 . S
C3854 C3848 1.368 1_545 S
C3854 C3853 1.523 . S
C3855 C3839 1.429 . S
C3855 C3851 1.429 1_545 S
C3855 C3856 1.523 . S
C3856 C3840 1.368 1_545 S
C3856 C3852 1.368 . S
C3856 C3855 1.523 . S
H3857 C3832 0.950 . S
H3858 C3834 0.950 . S
H3859 C3835 0.949 . S
H3860 C3837 0.950 . S
H3861 C3839 0.950 . S
C3862 C3863 1.349 . S
C3862 C3864 1.327 . S
C3862 H3887 0.950 . S
C3863 C3862 1.349 . S
C3863 C3879 1.349 . S
C3864 C3862 1.327 . S
C3864 C3883 1.429 . S
C3864 H3888 0.950 . S
C3865 C3882 1.574 . S
C3865 C3884 1.368 . S
C3865 H3889 0.949 . S
H3866 C3870 0.949 . S
C3867 C3868 1.349 . S
C3867 C3869 1.327 . S
C3867 H3890 0.950 . S
C3868 C3867 1.349 . S
C3868 C3880 1.349 . S
C3869 C3867 1.327 . S
C3869 C3885 1.429 . S
C3869 H3891 0.950 . S
C3870 H3866 0.949 . S
C3870 C3878 1.574 . S
C3870 C3886 1.368 . S
H3871 C3879 0.950 . S
H3872 C3877 0.950 . S
H3873 C3878 0.949 . S
H3874 C3880 0.950 . S
H3875 C3881 0.950 . S
H3876 C3882 0.949 . S
C3877 H3872 0.950 . S
C3877 C3879 1.327 . S
C3877 C3883 1.429 . S
C3878 C3870 1.574 . S
C3878 H3873 0.949 . S
C3878 C3884 1.368 . S
C3879 C3863 1.349 . S
C3879 H3871 0.950 . S
C3879 C3877 1.327 . S
C3880 C3868 1.349 . S
C3880 H3874 0.950 . S
C3880 C3881 1.327 . S
C3881 H3875 0.950 . S
C3881 C3880 1.327 . S
C3881 C3885 1.429 . S
C3882 C3865 1.574 . S
C3882 H3876 0.949 . S
C3882 C3886 1.368 . S
C3883 C3864 1.429 . S
C3883 C3877 1.429 . S
C3883 C3884 1.523 . S
C3884 C3865 1.368 . S
C3884 C3878 1.368 . S
C3884 C3883 1.523 . S
C3885 C3869 1.429 . S
C3885 C3881 1.429 . S
C3885 C3886 1.523 . S
C3886 C3870 1.368 . S
C3886 C3882 1.368 . S
C3886 C3885 1.523 . S
H3887 C3862 0.950 . S
H3888 C3864 0.950 . S
H3889 C3865 0.949 . S
H3890 C3867 0.950 . S
H3891 C3869 0.950 . S
C3892 C3893 1.349 . S
C3892 C3894 1.327 . S
C3892 H3917 0.950 . S
C3893 C3892 1.349 . S
C3893 C3909 1.349 . S
C3894 C3892 1.327 . S
C3894 C3913 1.429 . S
C3894 H3918 0.950 . S
C3895 C3912 1.574 . S
C3895 C3914 1.368 1_565 S
C3895 H3919 0.949 . S
H3896 C3900 0.949 . S
C3897 C3898 1.349 1_565 S
C3897 C3899 1.327 . S
C3897 H3920 0.950 . S
C3898 C3897 1.349 1_545 S
C3898 C3910 1.349 . S
C3899 C3897 1.327 . S
C3899 C3915 1.429 1_565 S
C3899 H3921 0.950 . S
C3900 H3896 0.949 . S
C3900 C3908 1.574 . S
C3900 C3916 1.368 . S
H3901 C3909 0.950 1_565 S
H3902 C3907 0.967 . S
H3903 C3908 0.949 . S
H3904 C3910 0.950 . S
H3905 C3911 0.950 . S
H3906 C3912 0.949 . S
C3907 H3902 0.967 . S
C3907 C3909 1.325 1_565 S
C3907 C3913 1.415 1_565 S
C3908 C3900 1.574 . S
C3908 H3903 0.949 . S
C3908 C3914 1.368 . S
C3909 C3893 1.349 . S
C3909 H3901 0.950 1_545 S
C3909 C3907 1.325 1_545 S
C3910 C3898 1.349 . S
C3910 H3904 0.950 . S
C3910 C3911 1.327 . S
C3911 H3905 0.950 . S
C3911 C3910 1.327 . S
C3911 C3915 1.429 . S
C3912 C3895 1.574 . S
C3912 H3906 0.949 . S
C3912 C3916 1.368 1_565 S
C3913 C3894 1.429 . S
C3913 C3907 1.415 1_545 S
C3913 C3914 1.523 . S
C3914 C3895 1.368 1_545 S
C3914 C3908 1.368 . S
C3914 C3913 1.523 . S
C3915 C3899 1.429 1_545 S
C3915 C3911 1.429 . S
C3915 C3916 1.523 . S
C3916 C3900 1.368 . S
C3916 C3912 1.368 1_545 S
C3916 C3915 1.523 . S
H3917 C3892 0.950 . S
H3918 C3894 0.950 . S
H3919 C3895 0.949 . S
H3920 C3897 0.950 . S
H3921 C3899 0.950 . S
C3922 C3923 1.349 . S
C3922 C3924 1.327 . S
C3922 H3947 0.950 . S
C3923 C3922 1.349 . S
C3923 C3939 1.349 . S
C3924 C3922 1.327 . S
C3924 C3943 1.429 . S
C3924 H3948 0.950 . S
C3925 C3942 1.574 . S
C3925 C3944 1.368 . S
C3925 H3949 0.949 . S
H3926 C3930 0.949 . S
C3927 C3928 1.349 . S
C3927 C3929 1.327 . S
C3927 H3950 0.950 . S
C3928 C3927 1.349 . S
C3928 C3940 1.349 . S
C3929 C3927 1.327 . S
C3929 C3945 1.429 . S
C3929 H3951 0.950 . S
C3930 H3926 0.949 . S
C3930 C3938 1.574 . S
C3930 C3946 1.368 . S
H3931 C3939 0.950 . S
H3932 C3937 0.950 . S
H3933 C3938 0.949 . S
H3934 C3940 0.950 . S
H3935 C3941 0.950 . S
H3936 C3942 0.949 . S
C3937 H3932 0.950 . S
C3937 C3939 1.327 . S
C3937 C3943 1.429 . S
C3938 C3930 1.574 . S
C3938 H3933 0.949 . S
C3938 C3944 1.368 . S
C3939 C3923 1.349 . S
C3939 H3931 0.950 . S
C3939 C3937 1.327 . S
C3940 C3928 1.349 . S
C3940 H3934 0.950 . S
C3940 C3941 1.327 . S
C3941 H3935 0.950 . S
C3941 C3940 1.327 . S
C3941 C3945 1.429 . S
C3942 C3925 1.574 . S
C3942 H3936 0.949 . S
C3942 C3946 1.368 . S
C3943 C3924 1.429 . S
C3943 C3937 1.429 . S
C3943 C3944 1.523 . S
C3944 C3925 1.368 . S
C3944 C3938 1.368 . S
C3944 C3943 1.523 . S
C3945 C3929 1.429 . S
C3945 C3941 1.429 . S
C3945 C3946 1.523 . S
C3946 C3930 1.368 . S
C3946 C3942 1.368 . S
C3946 C3945 1.523 . S
H3947 C3922 0.950 . S
H3948 C3924 0.950 . S
H3949 C3925 0.949 . S
H3950 C3927 0.950 . S
H3951 C3929 0.950 . S
C3952 C3953 1.349 . S
C3952 C3954 1.327 . S
C3952 H3977 0.950 . S
C3953 C3952 1.349 . S
C3953 C3969 1.349 . S
C3954 C3952 1.327 . S
C3954 C3973 1.429 . S
C3954 H3978 0.950 . S
C3955 C3972 1.574 . S
C3955 C3974 1.368 1_556 S
C3955 H3979 0.949 . S
H3956 C3960 0.949 . S
C3957 C3958 1.349 . S
C3957 C3959 1.327 . S
C3957 H3980 0.950 . S
C3958 C3957 1.349 . S
C3958 C3970 1.349 1_556 S
C3959 C3957 1.327 . S
C3959 C3975 1.369 1_556 S
C3959 H3981 0.950 . S
C3960 H3956 0.949 . S
C3960 C3968 1.574 . S
C3960 C3976 1.368 . S
H3961 C3969 0.950 . S
H3962 C3967 0.950 1_556 S
H3963 C3968 0.949 . S
H3964 C3970 0.950 . S
H3965 C3971 0.950 . S
H3966 C3972 0.949 . S
C3967 H3962 0.950 1_554 S
C3967 C3969 1.327 . S
C3967 C3973 1.429 . S
C3968 C3960 1.574 . S
C3968 H3963 0.949 . S
C3968 C3974 1.368 . S
C3969 C3953 1.349 . S
C3969 H3961 0.950 . S
C3969 C3967 1.327 . S
C3970 C3958 1.349 1_554 S
C3970 H3964 0.950 . S
C3970 C3971 1.327 . S
C3971 H3965 0.950 . S
C3971 C3970 1.327 . S
C3971 C3975 1.468 . S
C3972 C3955 1.574 . S
C3972 H3966 0.949 . S
C3972 C3976 1.368 1_556 S
C3973 C3954 1.429 . S
C3973 C3967 1.429 . S
C3973 C3974 1.523 . S
C3974 C3955 1.368 1_554 S
C3974 C3968 1.368 . S
C3974 C3973 1.523 . S
C3975 C3959 1.369 1_554 S
C3975 C3971 1.468 . S
C3975 C3976 1.543 . S
C3976 C3960 1.368 . S
C3976 C3972 1.368 1_554 S
C3976 C3975 1.543 . S
H3977 C3952 0.950 . S
H3978 C3954 0.950 . S
H3979 C3955 0.949 . S
H3980 C3957 0.950 . S
H3981 C3959 0.950 . S
C3982 C3983 1.349 . S
C3982 C3984 1.327 . S
C3982 H4007 0.950 . S
C3983 C3982 1.349 . S
C3983 C3999 1.349 . S
C3984 C3982 1.327 . S
C3984 C4003 1.429 . S
C3984 H4008 0.950 . S
C3985 C4002 1.574 . S
C3985 C4004 1.368 . S
C3985 H4009 0.949 1_554 S
H3986 C3990 0.949 . S
C3987 C3988 1.349 . S
C3987 C3989 1.327 . S
C3987 H4010 0.950 1_554 S
C3988 C3987 1.349 . S
C3988 C4000 1.349 . S
C3989 C3987 1.327 . S
C3989 C4005 1.429 . S
C3989 H4011 0.950 1_554 S
C3990 H3986 0.949 . S
C3990 C3998 1.574 . S
C3990 C4006 1.368 . S
H3991 C3999 0.972 . S
H3992 C3997 0.950 1_556 S
H3993 C3998 0.949 . S
H3994 C4000 0.950 . S
H3995 C4001 0.950 . S
H3996 C4002 0.949 1_556 S
C3997 H3992 0.950 1_554 S
C3997 C3999 1.327 . S
C3997 C4003 1.429 . S
C3998 C3990 1.574 . S
C3998 H3993 0.949 . S
C3998 C4004 1.368 . S
C3999 C3983 1.349 . S
C3999 H3991 0.972 . S
C3999 C3997 1.327 . S
C4000 C3988 1.349 . S
C4000 H3994 0.950 . S
C4000 C4001 1.327 . S
C4001 H3995 0.950 . S
C4001 C4000 1.327 . S
C4001 C4005 1.429 . S
C4002 C3985 1.574 . S
C4002 H3996 0.949 1_554 S
C4002 C4006 1.368 . S
C4003 C3984 1.429 . S
C4003 C3997 1.429 . S
C4003 C4004 1.523 . S
C4004 C3985 1.368 . S
C4004 C3998 1.368 . S
C4004 C4003 1.523 . S
C4005 C3989 1.429 . S
C4005 C4001 1.429 . S
C4005 C4006 1.523 . S
C4006 C3990 1.368 . S
C4006 C4002 1.368 . S
C4006 C4005 1.523 . S
H4007 C3982 0.950 . S
H4008 C3984 0.950 . S
H4009 C3985 0.949 1_556 S
H4010 C3987 0.950 1_556 S
H4011 C3989 0.950 1_556 S
C4012 C4013 1.349 . S
C4012 C4014 1.327 . S
C4012 H4037 0.950 . S
C4013 C4012 1.349 . S
C4013 C4029 1.349 . S
C4014 C4012 1.327 . S
C4014 C4033 1.429 . S
C4014 H4038 0.950 . S
C4015 C4032 1.574 . S
C4015 C4034 1.368 . S
C4015 H4039 0.949 . S
H4016 C4020 0.949 . S
C4017 C4018 1.349 . S
C4017 C4019 1.327 . S
C4017 H4040 0.950 . S
C4018 C4017 1.349 . S
C4018 C4030 1.349 . S
C4019 C4017 1.327 . S
C4019 C4035 1.429 . S
C4019 H4041 0.950 . S
C4020 H4016 0.949 . S
C4020 C4028 1.574 . S
C4020 C4036 1.368 . S
H4021 C4029 0.950 . S
H4022 C4027 0.950 . S
H4023 C4028 0.949 . S
H4024 C4030 0.950 . S
H4025 C4031 0.950 . S
H4026 C4032 0.949 . S
C4027 H4022 0.950 . S
C4027 C4029 1.327 . S
C4027 C4033 1.429 . S
C4028 C4020 1.574 . S
C4028 H4023 0.949 . S
C4028 C4034 1.368 . S
C4029 C4013 1.349 . S
C4029 H4021 0.950 . S
C4029 C4027 1.327 . S
C4030 C4018 1.349 . S
C4030 H4024 0.950 . S
C4030 C4031 1.327 . S
C4031 H4025 0.950 . S
C4031 C4030 1.327 . S
C4031 C4035 1.429 . S
C4032 C4015 1.574 . S
C4032 H4026 0.949 . S
C4032 C4036 1.368 . S
C4033 C4014 1.429 . S
C4033 C4027 1.429 . S
C4033 C4034 1.523 . S
C4034 C4015 1.368 . S
C4034 C4028 1.368 . S
C4034 C4033 1.523 . S
C4035 C4019 1.429 . S
C4035 C4031 1.429 . S
C4035 C4036 1.523 . S
C4036 C4020 1.368 . S
C4036 C4032 1.368 . S
C4036 C4035 1.523 . S
H4037 C4012 0.950 . S
H4038 C4014 0.950 . S
H4039 C4015 0.949 . S
H4040 C4017 0.950 . S
H4041 C4019 0.950 . S
C4042 C4043 1.349 . S
C4042 C4044 1.327 . S
C4042 H4067 0.950 . S
C4043 C4042 1.349 . S
C4043 C4059 1.349 . S
C4044 C4042 1.327 . S
C4044 C4063 1.429 . S
C4044 H4068 0.950 . S
C4045 C4062 1.574 . S
C4045 C4064 1.368 . S
C4045 H4069 0.949 . S
H4046 C4050 0.949 . S
C4047 C4048 1.349 . S
C4047 C4049 1.327 . S
C4047 H4070 0.950 . S
C4048 C4047 1.349 . S
C4048 C4060 1.349 . S
C4049 C4047 1.327 . S
C4049 C4065 1.429 . S
C4049 H4071 0.950 . S
C4050 H4046 0.949 . S
C4050 C4058 1.574 . S
C4050 C4066 1.368 . S
H4051 C4059 0.950 . S
H4052 C4057 0.950 . S
H4053 C4058 0.949 . S
H4054 C4060 0.950 . S
H4055 C4061 0.950 . S
H4056 C4062 0.949 . S
C4057 H4052 0.950 . S
C4057 C4059 1.327 . S
C4057 C4063 1.429 . S
C4058 C4050 1.574 . S
C4058 H4053 0.949 . S
C4058 C4064 1.368 . S
C4059 C4043 1.349 . S
C4059 H4051 0.950 . S
C4059 C4057 1.327 . S
C4060 C4048 1.349 . S
C4060 H4054 0.950 . S
C4060 C4061 1.327 . S
C4061 H4055 0.950 . S
C4061 C4060 1.327 . S
C4061 C4065 1.429 . S
C4062 C4045 1.574 . S
C4062 H4056 0.949 . S
C4062 C4066 1.368 . S
C4063 C4044 1.429 . S
C4063 C4057 1.429 . S
C4063 C4064 1.523 . S
C4064 C4045 1.368 . S
C4064 C4058 1.368 . S
C4064 C4063 1.523 . S
C4065 C4049 1.429 . S
C4065 C4061 1.429 . S
C4065 C4066 1.523 . S
C4066 C4050 1.368 . S
C4066 C4062 1.368 . S
C4066 C4065 1.523 . S
H4067 C4042 0.950 . S
H4068 C4044 0.950 . S
H4069 C4045 0.949 . S
H4070 C4047 0.950 . S
H4071 C4049 0.950 . S
C4072 C4073 1.349 . S
C4072 C4074 1.327 . S
C4072 H4097 0.950 . S
C4073 C4072 1.349 . S
C4073 C4089 1.349 . S
C4074 C4072 1.327 . S
C4074 C4093 1.429 . S
C4074 H4098 0.950 . S
C4075 C4092 1.574 . S
C4075 C4094 1.368 . S
C4075 H4099 0.949 . S
H4076 C4080 0.949 . S
C4077 C4078 1.349 . S
C4077 C4079 1.327 . S
C4077 H4100 0.950 . S
C4078 C4077 1.349 . S
C4078 C4090 1.349 . S
C4079 C4077 1.327 . S
C4079 C4095 1.429 . S
C4079 H4101 0.950 . S
C4080 H4076 0.949 . S
C4080 C4088 1.574 . S
C4080 C4096 1.368 . S
H4081 C4089 0.950 . S
H4082 C4087 0.950 . S
H4083 C4088 0.949 . S
H4084 C4090 0.950 . S
H4085 C4091 0.950 . S
H4086 C4092 0.949 . S
C4087 H4082 0.950 . S
C4087 C4089 1.327 . S
C4087 C4093 1.429 . S
C4088 C4080 1.574 . S
C4088 H4083 0.949 . S
C4088 C4094 1.368 . S
C4089 C4073 1.349 . S
C4089 H4081 0.950 . S
C4089 C4087 1.327 . S
C4090 C4078 1.349 . S
C4090 H4084 0.950 . S
C4090 C4091 1.327 . S
C4091 H4085 0.950 . S
C4091 C4090 1.327 . S
C4091 C4095 1.429 . S
C4092 C4075 1.574 . S
C4092 H4086 0.949 . S
C4092 C4096 1.368 . S
C4093 C4074 1.429 . S
C4093 C4087 1.429 . S
C4093 C4094 1.523 . S
C4094 C4075 1.368 . S
C4094 C4088 1.368 . S
C4094 C4093 1.523 . S
C4095 C4079 1.429 . S
C4095 C4091 1.429 . S
C4095 C4096 1.523 . S
C4096 C4080 1.368 . S
C4096 C4092 1.368 . S
C4096 C4095 1.523 . S
H4097 C4072 0.950 . S
H4098 C4074 0.950 . S
H4099 C4075 0.949 . S
H4100 C4077 0.950 . S
H4101 C4079 0.950 . S
C4102 C4103 1.349 . S
C4102 C4104 1.327 . S
C4102 H4127 0.950 . S
C4103 C4102 1.349 . S
C4103 C4119 1.349 . S
C4104 C4102 1.327 . S
C4104 C4123 1.429 . S
C4104 H4128 0.950 . S
C4105 C4122 1.574 . S
C4105 C4124 1.368 . S
C4105 H4129 0.949 . S
H4106 C4110 0.949 . S
C4107 C4108 1.349 . S
C4107 C4109 1.327 . S
C4107 H4130 0.950 . S
C4108 C4107 1.349 . S
C4108 C4120 1.349 . S
C4109 C4107 1.327 . S
C4109 C4125 1.429 . S
C4109 H4131 0.950 . S
C4110 H4106 0.949 . S
C4110 C4118 1.574 . S
C4110 C4126 1.368 . S
H4111 C4119 0.950 . S
H4112 C4117 0.950 . S
H4113 C4118 0.949 . S
H4114 C4120 0.950 . S
H4115 C4121 0.950 . S
H4116 C4122 0.949 . S
C4117 H4112 0.950 . S
C4117 C4119 1.327 . S
C4117 C4123 1.429 . S
C4118 C4110 1.574 . S
C4118 H4113 0.949 . S
C4118 C4124 1.368 . S
C4119 C4103 1.349 . S
C4119 H4111 0.950 . S
C4119 C4117 1.327 . S
C4120 C4108 1.349 . S
C4120 H4114 0.950 . S
C4120 C4121 1.327 . S
C4121 H4115 0.950 . S
C4121 C4120 1.327 . S
C4121 C4125 1.429 . S
C4122 C4105 1.574 . S
C4122 H4116 0.949 . S
C4122 C4126 1.368 . S
C4123 C4104 1.429 . S
C4123 C4117 1.429 . S
C4123 C4124 1.523 . S
C4124 C4105 1.368 . S
C4124 C4118 1.368 . S
C4124 C4123 1.523 . S
C4125 C4109 1.429 . S
C4125 C4121 1.429 . S
C4125 C4126 1.523 . S
C4126 C4110 1.368 . S
C4126 C4122 1.368 . S
C4126 C4125 1.523 . S
H4127 C4102 0.950 . S
H4128 C4104 0.950 . S
H4129 C4105 0.949 . S
H4130 C4107 0.950 . S
H4131 C4109 0.950 . S
C4132 C4133 1.349 . S
C4132 C4134 1.327 . S
C4132 H4157 0.950 . S
C4133 C4132 1.349 . S
C4133 C4149 1.349 . S
C4134 C4132 1.327 . S
C4134 C4153 1.429 . S
C4134 H4158 0.950 . S
C4135 C4152 1.574 . S
C4135 C4154 1.368 . S
C4135 H4159 0.949 . S
H4136 C4140 0.949 . S
C4137 C4138 1.349 . S
C4137 C4139 1.327 . S
C4137 H4160 0.950 . S
C4138 C4137 1.349 . S
C4138 C4150 1.349 . S
C4139 C4137 1.327 . S
C4139 C4155 1.429 . S
C4139 H4161 0.950 . S
C4140 H4136 0.949 . S
C4140 C4148 1.574 . S
C4140 C4156 1.368 . S
H4141 C4149 0.950 . S
H4142 C4147 0.950 . S
H4143 C4148 0.949 . S
H4144 C4150 0.950 . S
H4145 C4151 0.950 . S
H4146 C4152 0.949 . S
C4147 H4142 0.950 . S
C4147 C4149 1.327 . S
C4147 C4153 1.429 . S
C4148 C4140 1.574 . S
C4148 H4143 0.949 . S
C4148 C4154 1.368 . S
C4149 C4133 1.349 . S
C4149 H4141 0.950 . S
C4149 C4147 1.327 . S
C4150 C4138 1.349 . S
C4150 H4144 0.950 . S
C4150 C4151 1.327 . S
C4151 H4145 0.950 . S
C4151 C4150 1.327 . S
C4151 C4155 1.429 . S
C4152 C4135 1.574 . S
C4152 H4146 0.949 . S
C4152 C4156 1.368 . S
C4153 C4134 1.429 . S
C4153 C4147 1.429 . S
C4153 C4154 1.523 . S
C4154 C4135 1.368 . S
C4154 C4148 1.368 . S
C4154 C4153 1.523 . S
C4155 C4139 1.429 . S
C4155 C4151 1.429 . S
C4155 C4156 1.523 . S
C4156 C4140 1.368 . S
C4156 C4152 1.368 . S
C4156 C4155 1.523 . S
H4157 C4132 0.950 . S
H4158 C4134 0.950 . S
H4159 C4135 0.949 . S
H4160 C4137 0.950 . S
H4161 C4139 0.950 . S
C4162 C4163 1.349 . S
C4162 C4164 1.327 . S
C4162 H4187 0.950 . S
C4163 C4162 1.349 . S
C4163 C4179 1.349 . S
C4164 C4162 1.327 . S
C4164 C4183 1.429 . S
C4164 H4188 0.950 . S
C4165 C4182 1.574 . S
C4165 C4184 1.368 . S
C4165 H4189 0.949 . S
H4166 C4170 0.949 . S
C4167 C4168 1.349 . S
C4167 C4169 1.327 . S
C4167 H4190 0.950 . S
C4168 C4167 1.349 . S
C4168 C4180 1.349 . S
C4169 C4167 1.327 . S
C4169 C4185 1.429 . S
C4169 H4191 0.950 . S
C4170 H4166 0.949 . S
C4170 C4178 1.574 . S
C4170 C4186 1.368 . S
H4171 C4179 0.950 . S
H4172 C4177 0.950 . S
H4173 C4178 0.949 . S
H4174 C4180 0.950 . S
H4175 C4181 0.950 . S
H4176 C4182 0.949 . S
C4177 H4172 0.950 . S
C4177 C4179 1.327 . S
C4177 C4183 1.429 . S
C4178 C4170 1.574 . S
C4178 H4173 0.949 . S
C4178 C4184 1.368 . S
C4179 C4163 1.349 . S
C4179 H4171 0.950 . S
C4179 C4177 1.327 . S
C4180 C4168 1.349 . S
C4180 H4174 0.950 . S
C4180 C4181 1.327 . S
C4181 H4175 0.950 . S
C4181 C4180 1.327 . S
C4181 C4185 1.429 . S
C4182 C4165 1.574 . S
C4182 H4176 0.949 . S
C4182 C4186 1.368 . S
C4183 C4164 1.429 . S
C4183 C4177 1.429 . S
C4183 C4184 1.523 . S
C4184 C4165 1.368 . S
C4184 C4178 1.368 . S
C4184 C4183 1.523 . S
C4185 C4169 1.429 . S
C4185 C4181 1.429 . S
C4185 C4186 1.523 . S
C4186 C4170 1.368 . S
C4186 C4182 1.368 . S
C4186 C4185 1.523 . S
H4187 C4162 0.950 . S
H4188 C4164 0.950 . S
H4189 C4165 0.949 . S
H4190 C4167 0.950 . S
H4191 C4169 0.950 . S
C4192 C4193 1.349 . S
C4192 C4194 1.327 . S
C4192 H4217 0.950 . S
C4193 C4192 1.349 . S
C4193 C4209 1.349 . S
C4194 C4192 1.327 . S
C4194 C4213 1.429 . S
C4194 H4218 0.950 . S
C4195 C4212 1.574 . S
C4195 C4214 1.368 . S
C4195 H4219 0.949 . S
H4196 C4200 0.949 . S
C4197 C4198 1.349 . S
C4197 C4199 1.327 . S
C4197 H4220 0.950 . S
C4198 C4197 1.349 . S
C4198 C4210 1.349 . S
C4199 C4197 1.327 . S
C4199 C4215 1.429 . S
C4199 H4221 0.950 . S
C4200 H4196 0.949 . S
C4200 C4208 1.574 . S
C4200 C4216 1.368 . S
H4201 C4209 0.950 . S
H4202 C4207 0.950 . S
H4203 C4208 0.949 . S
H4204 C4210 0.950 . S
H4205 C4211 0.950 . S
H4206 C4212 0.949 . S
C4207 H4202 0.950 . S
C4207 C4209 1.327 . S
C4207 C4213 1.429 . S
C4208 C4200 1.574 . S
C4208 H4203 0.949 . S
C4208 C4214 1.368 . S
C4209 C4193 1.349 . S
C4209 H4201 0.950 . S
C4209 C4207 1.327 . S
C4210 C4198 1.349 . S
C4210 H4204 0.950 . S
C4210 C4211 1.327 . S
C4211 H4205 0.950 . S
C4211 C4210 1.327 . S
C4211 C4215 1.429 . S
C4212 C4195 1.574 . S
C4212 H4206 0.949 . S
C4212 C4216 1.368 . S
C4213 C4194 1.429 . S
C4213 C4207 1.429 . S
C4213 C4214 1.523 . S
C4214 C4195 1.368 . S
C4214 C4208 1.368 . S
C4214 C4213 1.523 . S
C4215 C4199 1.429 . S
C4215 C4211 1.429 . S
C4215 C4216 1.523 . S
C4216 C4200 1.368 . S
C4216 C4212 1.368 . S
C4216 C4215 1.523 . S
H4217 C4192 0.950 . S
H4218 C4194 0.950 . S
H4219 C4195 0.949 . S
H4220 C4197 0.950 . S
H4221 C4199 0.950 . S
C4222 C4223 1.349 . S
C4222 C4224 1.327 . S
C4222 H4247 0.950 . S
C4223 C4222 1.349 . S
C4223 C4239 1.349 . S
C4224 C4222 1.327 . S
C4224 C4243 1.429 . S
C4224 H4248 0.950 . S
C4225 C4242 1.574 . S
C4225 C4244 1.368 . S
C4225 H4249 0.949 . S
H4226 C4230 0.949 . S
C4227 C4228 1.349 . S
C4227 C4229 1.327 . S
C4227 H4250 0.950 . S
C4228 C4227 1.349 . S
C4228 C4240 1.349 . S
C4229 C4227 1.327 . S
C4229 C4245 1.429 . S
C4229 H4251 0.950 . S
C4230 H4226 0.949 . S
C4230 C4238 1.574 . S
C4230 C4246 1.368 . S
H4231 C4239 0.950 . S
H4232 C4237 0.950 . S
H4233 C4238 0.949 . S
H4234 C4240 0.950 . S
H4235 C4241 0.950 . S
H4236 C4242 0.949 . S
C4237 H4232 0.950 . S
C4237 C4239 1.327 . S
C4237 C4243 1.429 . S
C4238 C4230 1.574 . S
C4238 H4233 0.949 . S
C4238 C4244 1.368 . S
C4239 C4223 1.349 . S
C4239 H4231 0.950 . S
C4239 C4237 1.327 . S
C4240 C4228 1.349 . S
C4240 H4234 0.950 . S
C4240 C4241 1.327 . S
C4241 H4235 0.950 . S
C4241 C4240 1.327 . S
C4241 C4245 1.429 . S
C4242 C4225 1.574 . S
C4242 H4236 0.949 . S
C4242 C4246 1.368 . S
C4243 C4224 1.429 . S
C4243 C4237 1.429 . S
C4243 C4244 1.523 . S
C4244 C4225 1.368 . S
C4244 C4238 1.368 . S
C4244 C4243 1.523 . S
C4245 C4229 1.429 . S
C4245 C4241 1.429 . S
C4245 C4246 1.523 . S
C4246 C4230 1.368 . S
C4246 C4242 1.368 . S
C4246 C4245 1.523 . S
H4247 C4222 0.950 . S
H4248 C4224 0.950 . S
H4249 C4225 0.949 . S
H4250 C4227 0.950 . S
H4251 C4229 0.950 . S
C4252 C4253 1.349 . S
C4252 C4254 1.327 . S
C4252 H4277 0.950 . S
C4253 C4252 1.349 . S
C4253 C4269 1.349 . S
C4254 C4252 1.327 . S
C4254 C4273 1.429 . S
C4254 H4278 0.950 . S
C4255 C4272 1.573 . S
C4255 C4274 1.375 1_554 S
C4255 H4279 0.943 . S
H4256 C4260 0.949 . S
C4257 C4258 1.349 . S
C4257 C4259 1.327 . S
C4257 H4280 0.950 . S
C4258 C4257 1.349 . S
C4258 C4270 1.349 1_554 S
C4259 C4257 1.327 . S
C4259 C4275 1.429 1_554 S
C4259 H4281 0.950 . S
C4260 H4256 0.949 . S
C4260 C4268 1.574 . S
C4260 C4276 1.368 . S
H4261 C4269 0.950 . S
H4262 C4267 0.950 1_554 S
H4263 C4268 0.949 . S
H4264 C4270 0.950 . S
H4265 C4271 0.950 . S
H4266 C4272 0.949 . S
C4267 H4262 0.950 1_556 S
C4267 C4269 1.327 . S
C4267 C4273 1.429 . S
C4268 C4260 1.574 . S
C4268 H4263 0.949 . S
C4268 C4274 1.368 . S
C4269 C4253 1.349 . S
C4269 H4261 0.950 . S
C4269 C4267 1.327 . S
C4270 C4258 1.349 1_556 S
C4270 H4264 0.950 . S
C4270 C4271 1.327 . S
C4271 H4265 0.950 . S
C4271 C4270 1.327 . S
C4271 C4275 1.429 . S
C4272 C4255 1.573 . S
C4272 H4266 0.949 . S
C4272 C4276 1.368 1_554 S
C4273 C4254 1.429 . S
C4273 C4267 1.429 . S
C4273 C4274 1.523 . S
C4274 C4255 1.375 1_556 S
C4274 C4268 1.368 . S
C4274 C4273 1.523 . S
C4275 C4259 1.429 1_556 S
C4275 C4271 1.429 . S
C4275 C4276 1.523 . S
C4276 C4260 1.368 . S
C4276 C4272 1.368 1_556 S
C4276 C4275 1.523 . S
H4277 C4252 0.950 . S
H4278 C4254 0.950 . S
H4279 C4255 0.943 . S
H4280 C4257 0.950 . S
H4281 C4259 0.950 . S
C4282 C4283 1.349 . S
C4282 C4284 1.327 . S
C4282 H4307 0.950 . S
C4283 C4282 1.349 . S
C4283 C4299 1.349 . S
C4284 C4282 1.327 . S
C4284 C4303 1.429 . S
C4284 H4308 0.950 . S
C4285 C4302 1.574 . S
C4285 C4304 1.368 . S
C4285 H4309 0.949 . S
H4286 C4290 0.949 . S
C4287 C4288 1.349 . S
C4287 C4289 1.327 . S
C4287 H4310 0.950 . S
C4288 C4287 1.349 . S
C4288 C4300 1.349 . S
C4289 C4287 1.327 . S
C4289 C4305 1.429 . S
C4289 H4311 0.950 . S
C4290 H4286 0.949 . S
C4290 C4298 1.574 . S
C4290 C4306 1.368 . S
H4291 C4299 0.950 . S
H4292 C4297 0.950 . S
H4293 C4298 0.949 . S
H4294 C4300 0.950 . S
H4295 C4301 0.950 . S
H4296 C4302 0.949 . S
C4297 H4292 0.950 . S
C4297 C4299 1.327 . S
C4297 C4303 1.429 . S
C4298 C4290 1.574 . S
C4298 H4293 0.949 . S
C4298 C4304 1.368 . S
C4299 C4283 1.349 . S
C4299 H4291 0.950 . S
C4299 C4297 1.327 . S
C4300 C4288 1.349 . S
C4300 H4294 0.950 . S
C4300 C4301 1.327 . S
C4301 H4295 0.950 . S
C4301 C4300 1.327 . S
C4301 C4305 1.429 . S
C4302 C4285 1.574 . S
C4302 H4296 0.949 . S
C4302 C4306 1.368 . S
C4303 C4284 1.429 . S
C4303 C4297 1.429 . S
C4303 C4304 1.523 . S
C4304 C4285 1.368 . S
C4304 C4298 1.368 . S
C4304 C4303 1.523 . S
C4305 C4289 1.429 . S
C4305 C4301 1.429 . S
C4305 C4306 1.523 . S
C4306 C4290 1.368 . S
C4306 C4302 1.368 . S
C4306 C4305 1.523 . S
H4307 C4282 0.950 . S
H4308 C4284 0.950 . S
H4309 C4285 0.949 . S
H4310 C4287 0.950 . S
H4311 C4289 0.950 . S
C4312 C4313 1.349 . S
C4312 C4314 1.327 . S
C4312 H4337 0.950 . S
C4313 C4312 1.349 . S
C4313 C4329 1.349 . S
C4314 C4312 1.327 . S
C4314 C4333 1.429 . S
C4314 H4338 0.950 . S
C4315 C4332 1.574 . S
C4315 C4334 1.368 . S
C4315 H4339 0.949 . S
H4316 C4320 0.949 . S
C4317 C4318 1.349 . S
C4317 C4319 1.327 . S
C4317 H4340 0.950 . S
C4318 C4317 1.349 . S
C4318 C4330 1.349 . S
C4319 C4317 1.327 . S
C4319 C4335 1.429 . S
C4319 H4341 0.950 . S
C4320 H4316 0.949 . S
C4320 C4328 1.574 . S
C4320 C4336 1.368 . S
H4321 C4329 0.950 . S
H4322 C4327 0.950 . S
H4323 C4328 0.949 . S
H4324 C4330 0.950 . S
H4325 C4331 0.950 . S
H4326 C4332 0.949 . S
C4327 H4322 0.950 . S
C4327 C4329 1.327 . S
C4327 C4333 1.429 . S
C4328 C4320 1.574 . S
C4328 H4323 0.949 . S
C4328 C4334 1.368 . S
C4329 C4313 1.349 . S
C4329 H4321 0.950 . S
C4329 C4327 1.327 . S
C4330 C4318 1.349 . S
C4330 H4324 0.950 . S
C4330 C4331 1.327 . S
C4331 H4325 0.950 . S
C4331 C4330 1.327 . S
C4331 C4335 1.429 . S
C4332 C4315 1.574 . S
C4332 H4326 0.949 . S
C4332 C4336 1.368 . S
C4333 C4314 1.429 . S
C4333 C4327 1.429 . S
C4333 C4334 1.523 . S
C4334 C4315 1.368 . S
C4334 C4328 1.368 . S
C4334 C4333 1.523 . S
C4335 C4319 1.429 . S
C4335 C4331 1.429 . S
C4335 C4336 1.523 . S
C4336 C4320 1.368 . S
C4336 C4332 1.368 . S
C4336 C4335 1.523 . S
H4337 C4312 0.950 . S
H4338 C4314 0.950 . S
H4339 C4315 0.949 . S
H4340 C4317 0.950 . S
H4341 C4319 0.950 . S
C4342 C4343 1.349 . S
C4342 C4344 1.327 . S
C4342 H4367 0.950 . S
C4343 C4342 1.349 . S
C4343 C4359 1.349 . S
C4344 C4342 1.327 . S
C4344 C4363 1.429 . S
C4344 H4368 0.950 . S
C4345 C4362 1.574 . S
C4345 C4364 1.368 . S
C4345 H4369 0.949 . S
H4346 C4350 0.949 . S
C4347 C4348 1.349 . S
C4347 C4349 1.327 . S
C4347 H4370 0.950 . S
C4348 C4347 1.349 . S
C4348 C4360 1.349 . S
C4349 C4347 1.327 . S
C4349 C4365 1.429 . S
C4349 H4371 0.950 . S
C4350 H4346 0.949 . S
C4350 C4358 1.574 . S
C4350 C4366 1.368 . S
H4351 C4359 0.950 . S
H4352 C4357 0.950 . S
H4353 C4358 0.949 . S
H4354 C4360 0.950 . S
H4355 C4361 0.950 . S
H4356 C4362 0.949 . S
C4357 H4352 0.950 . S
C4357 C4359 1.327 . S
C4357 C4363 1.429 . S
C4358 C4350 1.574 . S
C4358 H4353 0.949 . S
C4358 C4364 1.368 . S
C4359 C4343 1.349 . S
C4359 H4351 0.950 . S
C4359 C4357 1.327 . S
C4360 C4348 1.349 . S
C4360 H4354 0.950 . S
C4360 C4361 1.327 . S
C4361 H4355 0.950 . S
C4361 C4360 1.327 . S
C4361 C4365 1.429 . S
C4362 C4345 1.574 . S
C4362 H4356 0.949 . S
C4362 C4366 1.368 . S
C4363 C4344 1.429 . S
C4363 C4357 1.429 . S
C4363 C4364 1.523 . S
C4364 C4345 1.368 . S
C4364 C4358 1.368 . S
C4364 C4363 1.523 . S
C4365 C4349 1.429 . S
C4365 C4361 1.429 . S
C4365 C4366 1.523 . S
C4366 C4350 1.368 . S
C4366 C4362 1.368 . S
C4366 C4365 1.523 . S
H4367 C4342 0.950 . S
H4368 C4344 0.950 . S
H4369 C4345 0.949 . S
H4370 C4347 0.950 . S
H4371 C4349 0.950 . S
C4372 C4373 1.349 . S
C4372 C4374 1.327 . S
C4372 H4397 0.950 . S
C4373 C4372 1.349 . S
C4373 C4389 1.349 . S
C4374 C4372 1.327 . S
C4374 C4393 1.429 . S
C4374 H4398 0.950 . S
C4375 C4392 1.574 . S
C4375 C4394 1.368 . S
C4375 H4399 0.949 . S
H4376 C4380 0.949 . S
C4377 C4378 1.349 . S
C4377 C4379 1.327 . S
C4377 H4400 0.950 . S
C4378 C4377 1.349 . S
C4378 C4390 1.349 . S
C4379 C4377 1.327 . S
C4379 C4395 1.429 . S
C4379 H4401 0.950 . S
C4380 H4376 0.949 . S
C4380 C4388 1.574 . S
C4380 C4396 1.368 . S
H4381 C4389 0.950 . S
H4382 C4387 0.950 . S
H4383 C4388 0.949 . S
H4384 C4390 0.950 . S
H4385 C4391 0.950 . S
H4386 C4392 0.949 . S
C4387 H4382 0.950 . S
C4387 C4389 1.327 . S
C4387 C4393 1.429 . S
C4388 C4380 1.574 . S
C4388 H4383 0.949 . S
C4388 C4394 1.368 . S
C4389 C4373 1.349 . S
C4389 H4381 0.950 . S
C4389 C4387 1.327 . S
C4390 C4378 1.349 . S
C4390 H4384 0.950 . S
C4390 C4391 1.327 . S
C4391 H4385 0.950 . S
C4391 C4390 1.327 . S
C4391 C4395 1.429 . S
C4392 C4375 1.574 . S
C4392 H4386 0.949 . S
C4392 C4396 1.368 . S
C4393 C4374 1.429 . S
C4393 C4387 1.429 . S
C4393 C4394 1.523 . S
C4394 C4375 1.368 . S
C4394 C4388 1.368 . S
C4394 C4393 1.523 . S
C4395 C4379 1.429 . S
C4395 C4391 1.429 . S
C4395 C4396 1.523 . S
C4396 C4380 1.368 . S
C4396 C4392 1.368 . S
C4396 C4395 1.523 . S
H4397 C4372 0.950 . S
H4398 C4374 0.950 . S
H4399 C4375 0.949 . S
H4400 C4377 0.950 . S
H4401 C4379 0.950 . S
C4402 C4403 1.349 . S
C4402 C4404 1.327 . S
C4402 H4427 0.950 . S
C4403 C4402 1.349 . S
C4403 C4419 1.349 . S
C4404 C4402 1.327 . S
C4404 C4423 1.429 . S
C4404 H4428 0.950 . S
C4405 C4422 1.574 . S
C4405 C4424 1.368 . S
C4405 H4429 0.949 . S
H4406 C4410 0.949 . S
C4407 C4408 1.349 . S
C4407 C4409 1.327 . S
C4407 H4430 0.950 . S
C4408 C4407 1.349 . S
C4408 C4420 1.349 . S
C4409 C4407 1.327 . S
C4409 C4425 1.429 . S
C4409 H4431 0.950 . S
C4410 H4406 0.949 . S
C4410 C4418 1.574 . S
C4410 C4426 1.368 . S
H4411 C4419 0.950 . S
H4412 C4417 0.950 . S
H4413 C4418 0.949 . S
H4414 C4420 0.950 . S
H4415 C4421 0.950 . S
H4416 C4422 0.949 . S
C4417 H4412 0.950 . S
C4417 C4419 1.327 . S
C4417 C4423 1.429 . S
C4418 C4410 1.574 . S
C4418 H4413 0.949 . S
C4418 C4424 1.368 . S
C4419 C4403 1.349 . S
C4419 H4411 0.950 . S
C4419 C4417 1.327 . S
C4420 C4408 1.349 . S
C4420 H4414 0.950 . S
C4420 C4421 1.327 . S
C4421 H4415 0.950 . S
C4421 C4420 1.327 . S
C4421 C4425 1.429 . S
C4422 C4405 1.574 . S
C4422 H4416 0.949 . S
C4422 C4426 1.368 . S
C4423 C4404 1.429 . S
C4423 C4417 1.429 . S
C4423 C4424 1.523 . S
C4424 C4405 1.368 . S
C4424 C4418 1.368 . S
C4424 C4423 1.523 . S
C4425 C4409 1.429 . S
C4425 C4421 1.429 . S
C4425 C4426 1.523 . S
C4426 C4410 1.368 . S
C4426 C4422 1.368 . S
C4426 C4425 1.523 . S
H4427 C4402 0.950 . S
H4428 C4404 0.950 . S
H4429 C4405 0.949 . S
H4430 C4407 0.950 . S
H4431 C4409 0.950 . S
C4432 C4433 1.349 . S
C4432 C4434 1.327 . S
C4432 H4457 0.950 . S
C4433 C4432 1.349 . S
C4433 C4449 1.349 . S
C4434 C4432 1.327 . S
C4434 C4453 1.429 . S
C4434 H4458 0.950 . S
C4435 C4452 1.574 . S
C4435 C4454 1.368 . S
C4435 H4459 0.949 . S
H4436 C4440 0.949 . S
C4437 C4438 1.349 . S
C4437 C4439 1.327 . S
C4437 H4460 0.950 . S
C4438 C4437 1.349 . S
C4438 C4450 1.349 . S
C4439 C4437 1.327 . S
C4439 C4455 1.429 . S
C4439 H4461 0.950 . S
C4440 H4436 0.949 . S
C4440 C4448 1.574 . S
C4440 C4456 1.368 . S
H4441 C4449 0.950 . S
H4442 C4447 0.950 . S
H4443 C4448 0.949 . S
H4444 C4450 0.950 . S
H4445 C4451 0.950 . S
H4446 C4452 0.949 . S
C4447 H4442 0.950 . S
C4447 C4449 1.327 . S
C4447 C4453 1.429 . S
C4448 C4440 1.574 . S
C4448 H4443 0.949 . S
C4448 C4454 1.368 . S
C4449 C4433 1.349 . S
C4449 H4441 0.950 . S
C4449 C4447 1.327 . S
C4450 C4438 1.349 . S
C4450 H4444 0.950 . S
C4450 C4451 1.327 . S
C4451 H4445 0.950 . S
C4451 C4450 1.327 . S
C4451 C4455 1.429 . S
C4452 C4435 1.574 . S
C4452 H4446 0.949 . S
C4452 C4456 1.368 . S
C4453 C4434 1.429 . S
C4453 C4447 1.429 . S
C4453 C4454 1.523 . S
C4454 C4435 1.368 . S
C4454 C4448 1.368 . S
C4454 C4453 1.523 . S
C4455 C4439 1.429 . S
C4455 C4451 1.429 . S
C4455 C4456 1.523 . S
C4456 C4440 1.368 . S
C4456 C4452 1.368 . S
C4456 C4455 1.523 . S
H4457 C4432 0.950 . S
H4458 C4434 0.950 . S
H4459 C4435 0.949 . S
H4460 C4437 0.950 . S
H4461 C4439 0.950 . S
C4462 C4463 1.349 . S
C4462 C4464 1.327 . S
C4462 H4487 0.950 . S
C4463 C4462 1.349 . S
C4463 C4479 1.349 . S
C4464 C4462 1.327 . S
C4464 C4483 1.429 . S
C4464 H4488 0.950 . S
C4465 C4482 1.574 . S
C4465 C4484 1.368 . S
C4465 H4489 0.949 . S
H4466 C4470 0.949 . S
C4467 C4468 1.349 . S
C4467 C4469 1.327 . S
C4467 H4490 0.950 . S
C4468 C4467 1.349 . S
C4468 C4480 1.349 . S
C4469 C4467 1.327 . S
C4469 C4485 1.429 . S
C4469 H4491 0.950 . S
C4470 H4466 0.949 . S
C4470 C4478 1.574 . S
C4470 C4486 1.368 . S
H4471 C4479 0.950 . S
H4472 C4477 0.950 . S
H4473 C4478 0.949 . S
H4474 C4480 0.950 . S
H4475 C4481 0.950 . S
H4476 C4482 0.949 . S
C4477 H4472 0.950 . S
C4477 C4479 1.327 . S
C4477 C4483 1.429 . S
C4478 C4470 1.574 . S
C4478 H4473 0.949 . S
C4478 C4484 1.368 . S
C4479 C4463 1.349 . S
C4479 H4471 0.950 . S
C4479 C4477 1.327 . S
C4480 C4468 1.349 . S
C4480 H4474 0.950 . S
C4480 C4481 1.327 . S
C4481 H4475 0.950 . S
C4481 C4480 1.327 . S
C4481 C4485 1.429 . S
C4482 C4465 1.574 . S
C4482 H4476 0.949 . S
C4482 C4486 1.368 . S
C4483 C4464 1.429 . S
C4483 C4477 1.429 . S
C4483 C4484 1.523 . S
C4484 C4465 1.368 . S
C4484 C4478 1.368 . S
C4484 C4483 1.523 . S
C4485 C4469 1.429 . S
C4485 C4481 1.429 . S
C4485 C4486 1.523 . S
C4486 C4470 1.368 . S
C4486 C4482 1.368 . S
C4486 C4485 1.523 . S
H4487 C4462 0.950 . S
H4488 C4464 0.950 . S
H4489 C4465 0.949 . S
H4490 C4467 0.950 . S
H4491 C4469 0.950 . S
C4492 C4493 1.349 . S
C4492 C4494 1.327 . S
C4492 H4517 0.950 . S
C4493 C4492 1.349 . S
C4493 C4509 1.349 . S
C4494 C4492 1.327 . S
C4494 C4513 1.429 . S
C4494 H4518 0.950 . S
C4495 C4512 1.574 . S
C4495 C4514 1.368 . S
C4495 H4519 0.949 . S
H4496 C4500 0.949 . S
C4497 C4498 1.349 . S
C4497 C4499 1.327 . S
C4497 H4520 0.950 . S
C4498 C4497 1.349 . S
C4498 C4510 1.349 . S
C4499 C4497 1.327 . S
C4499 C4515 1.429 . S
C4499 H4521 0.950 . S
C4500 H4496 0.949 . S
C4500 C4508 1.574 . S
C4500 C4516 1.368 . S
H4501 C4509 0.950 . S
H4502 C4507 0.950 . S
H4503 C4508 0.949 . S
H4504 C4510 0.950 . S
H4505 C4511 0.950 . S
H4506 C4512 0.949 . S
C4507 H4502 0.950 . S
C4507 C4509 1.327 . S
C4507 C4513 1.429 . S
C4508 C4500 1.574 . S
C4508 H4503 0.949 . S
C4508 C4514 1.368 . S
C4509 C4493 1.349 . S
C4509 H4501 0.950 . S
C4509 C4507 1.327 . S
C4510 C4498 1.349 . S
C4510 H4504 0.950 . S
C4510 C4511 1.327 . S
C4511 H4505 0.950 . S
C4511 C4510 1.327 . S
C4511 C4515 1.429 . S
C4512 C4495 1.574 . S
C4512 H4506 0.949 . S
C4512 C4516 1.368 . S
C4513 C4494 1.429 . S
C4513 C4507 1.429 . S
C4513 C4514 1.523 . S
C4514 C4495 1.368 . S
C4514 C4508 1.368 . S
C4514 C4513 1.523 . S
C4515 C4499 1.429 . S
C4515 C4511 1.429 . S
C4515 C4516 1.523 . S
C4516 C4500 1.368 . S
C4516 C4512 1.368 . S
C4516 C4515 1.523 . S
H4517 C4492 0.950 . S
H4518 C4494 0.950 . S
H4519 C4495 0.949 . S
H4520 C4497 0.950 . S
H4521 C4499 0.950 . S
C4522 C4523 1.349 . S
C4522 C4524 1.327 . S
C4522 H4547 0.950 . S
C4523 C4522 1.349 . S
C4523 C4539 1.349 . S
C4524 C4522 1.327 . S
C4524 C4543 1.429 . S
C4524 H4548 0.950 . S
C4525 C4542 1.574 . S
C4525 C4544 1.368 . S
C4525 H4549 0.949 . S
H4526 C4530 0.949 . S
C4527 C4528 1.349 . S
C4527 C4529 1.327 . S
C4527 H4550 0.950 . S
C4528 C4527 1.349 . S
C4528 C4540 1.349 . S
C4529 C4527 1.327 . S
C4529 C4545 1.429 . S
C4529 H4551 0.950 . S
C4530 H4526 0.949 . S
C4530 C4538 1.574 . S
C4530 C4546 1.368 . S
H4531 C4539 0.950 . S
H4532 C4537 0.950 . S
H4533 C4538 0.949 . S
H4534 C4540 0.950 . S
H4535 C4541 0.950 . S
H4536 C4542 0.949 . S
C4537 H4532 0.950 . S
C4537 C4539 1.327 . S
C4537 C4543 1.429 . S
C4538 C4530 1.574 . S
C4538 H4533 0.949 . S
C4538 C4544 1.368 . S
C4539 C4523 1.349 . S
C4539 H4531 0.950 . S
C4539 C4537 1.327 . S
C4540 C4528 1.349 . S
C4540 H4534 0.950 . S
C4540 C4541 1.327 . S
C4541 H4535 0.950 . S
C4541 C4540 1.327 . S
C4541 C4545 1.429 . S
C4542 C4525 1.574 . S
C4542 H4536 0.949 . S
C4542 C4546 1.368 . S
C4543 C4524 1.429 . S
C4543 C4537 1.429 . S
C4543 C4544 1.523 . S
C4544 C4525 1.368 . S
C4544 C4538 1.368 . S
C4544 C4543 1.523 . S
C4545 C4529 1.429 . S
C4545 C4541 1.429 . S
C4545 C4546 1.523 . S
C4546 C4530 1.368 . S
C4546 C4542 1.368 . S
C4546 C4545 1.523 . S
H4547 C4522 0.950 . S
H4548 C4524 0.950 . S
H4549 C4525 0.949 . S
H4550 C4527 0.950 . S
H4551 C4529 0.950 . S
C4552 C4553 1.349 . S
C4552 C4554 1.327 . S
C4552 H4577 0.950 . S
C4553 C4552 1.349 . S
C4553 C4569 1.349 . S
C4554 C4552 1.327 . S
C4554 C4573 1.429 . S
C4554 H4578 0.950 . S
C4555 C4572 1.574 . S
C4555 C4574 1.368 . S
C4555 H4579 0.949 . S
H4556 C4560 0.949 . S
C4557 C4558 1.349 . S
C4557 C4559 1.327 . S
C4557 H4580 0.950 . S
C4558 C4557 1.349 . S
C4558 C4570 1.349 . S
C4559 C4557 1.327 . S
C4559 C4575 1.429 . S
C4559 H4581 0.950 . S
C4560 H4556 0.949 . S
C4560 C4568 1.574 . S
C4560 C4576 1.368 . S
H4561 C4569 0.950 . S
H4562 C4567 0.950 . S
H4563 C4568 0.949 . S
H4564 C4570 0.950 . S
H4565 C4571 0.950 . S
H4566 C4572 0.949 . S
C4567 H4562 0.950 . S
C4567 C4569 1.327 . S
C4567 C4573 1.429 . S
C4568 C4560 1.574 . S
C4568 H4563 0.949 . S
C4568 C4574 1.368 . S
C4569 C4553 1.349 . S
C4569 H4561 0.950 . S
C4569 C4567 1.327 . S
C4570 C4558 1.349 . S
C4570 H4564 0.950 . S
C4570 C4571 1.327 . S
C4571 H4565 0.950 . S
C4571 C4570 1.327 . S
C4571 C4575 1.429 . S
C4572 C4555 1.574 . S
C4572 H4566 0.949 . S
C4572 C4576 1.368 . S
C4573 C4554 1.429 . S
C4573 C4567 1.429 . S
C4573 C4574 1.523 . S
C4574 C4555 1.368 . S
C4574 C4568 1.368 . S
C4574 C4573 1.523 . S
C4575 C4559 1.429 . S
C4575 C4571 1.429 . S
C4575 C4576 1.523 . S
C4576 C4560 1.368 . S
C4576 C4572 1.368 . S
C4576 C4575 1.523 . S
H4577 C4552 0.950 . S
H4578 C4554 0.950 . S
H4579 C4555 0.949 . S
H4580 C4557 0.950 . S
H4581 C4559 0.950 . S
C4582 C4583 1.349 . S
C4582 C4584 1.327 . S
C4582 H4607 0.950 . S
C4583 C4582 1.349 . S
C4583 C4599 1.349 . S
C4584 C4582 1.327 . S
C4584 C4603 1.429 . S
C4584 H4608 0.950 . S
C4585 C4602 1.574 . S
C4585 C4604 1.368 . S
C4585 H4609 0.949 . S
H4586 C4590 0.949 . S
C4587 C4588 1.349 . S
C4587 C4589 1.327 . S
C4587 H4610 0.950 . S
C4588 C4587 1.349 . S
C4588 C4600 1.349 . S
C4589 C4587 1.327 . S
C4589 C4605 1.429 . S
C4589 H4611 0.950 . S
C4590 H4586 0.949 . S
C4590 C4598 1.574 . S
C4590 C4606 1.368 . S
H4591 C4599 0.950 . S
H4592 C4597 0.950 . S
H4593 C4598 0.949 . S
H4594 C4600 0.950 . S
H4595 C4601 0.950 . S
H4596 C4602 0.949 . S
C4597 H4592 0.950 . S
C4597 C4599 1.327 . S
C4597 C4603 1.429 . S
C4598 C4590 1.574 . S
C4598 H4593 0.949 . S
C4598 C4604 1.368 . S
C4599 C4583 1.349 . S
C4599 H4591 0.950 . S
C4599 C4597 1.327 . S
C4600 C4588 1.349 . S
C4600 H4594 0.950 . S
C4600 C4601 1.327 . S
C4601 H4595 0.950 . S
C4601 C4600 1.327 . S
C4601 C4605 1.429 . S
C4602 C4585 1.574 . S
C4602 H4596 0.949 . S
C4602 C4606 1.368 . S
C4603 C4584 1.429 . S
C4603 C4597 1.429 . S
C4603 C4604 1.523 . S
C4604 C4585 1.368 . S
C4604 C4598 1.368 . S
C4604 C4603 1.523 . S
C4605 C4589 1.429 . S
C4605 C4601 1.429 . S
C4605 C4606 1.523 . S
C4606 C4590 1.368 . S
C4606 C4602 1.368 . S
C4606 C4605 1.523 . S
H4607 C4582 0.950 . S
H4608 C4584 0.950 . S
H4609 C4585 0.949 . S
H4610 C4587 0.950 . S
H4611 C4589 0.950 . S
C4612 C4613 1.349 . S
C4612 C4614 1.327 . S
C4612 H4637 0.950 . S
C4613 C4612 1.349 . S
C4613 C4629 1.349 . S
C4614 C4612 1.327 . S
C4614 C4633 1.429 . S
C4614 H4638 0.950 . S
C4615 C4632 1.574 . S
C4615 C4634 1.368 . S
C4615 H4639 0.949 . S
H4616 C4620 0.949 . S
C4617 C4618 1.349 . S
C4617 C4619 1.327 . S
C4617 H4640 0.950 . S
C4618 C4617 1.349 . S
C4618 C4630 1.349 . S
C4619 C4617 1.327 . S
C4619 C4635 1.429 . S
C4619 H4641 0.950 . S
C4620 H4616 0.949 . S
C4620 C4628 1.574 . S
C4620 C4636 1.368 . S
H4621 C4629 0.950 . S
H4622 C4627 0.950 . S
H4623 C4628 0.949 . S
H4624 C4630 0.950 . S
H4625 C4631 0.950 . S
H4626 C4632 0.949 . S
C4627 H4622 0.950 . S
C4627 C4629 1.327 . S
C4627 C4633 1.429 . S
C4628 C4620 1.574 . S
C4628 H4623 0.949 . S
C4628 C4634 1.368 . S
C4629 C4613 1.349 . S
C4629 H4621 0.950 . S
C4629 C4627 1.327 . S
C4630 C4618 1.349 . S
C4630 H4624 0.950 . S
C4630 C4631 1.327 . S
C4631 H4625 0.950 . S
C4631 C4630 1.327 . S
C4631 C4635 1.429 . S
C4632 C4615 1.574 . S
C4632 H4626 0.949 . S
C4632 C4636 1.368 . S
C4633 C4614 1.429 . S
C4633 C4627 1.429 . S
C4633 C4634 1.523 . S
C4634 C4615 1.368 . S
C4634 C4628 1.368 . S
C4634 C4633 1.523 . S
C4635 C4619 1.429 . S
C4635 C4631 1.429 . S
C4635 C4636 1.523 . S
C4636 C4620 1.368 . S
C4636 C4632 1.368 . S
C4636 C4635 1.523 . S
H4637 C4612 0.950 . S
H4638 C4614 0.950 . S
H4639 C4615 0.949 . S
H4640 C4617 0.950 . S
H4641 C4619 0.950 . S
C4642 C4643 1.349 . S
C4642 C4644 1.327 . S
C4642 H4667 0.950 . S
C4643 C4642 1.349 . S
C4643 C4659 1.349 . S
C4644 C4642 1.327 . S
C4644 C4663 1.429 . S
C4644 H4668 0.950 . S
C4645 C4662 1.574 . S
C4645 C4664 1.368 . S
C4645 H4669 0.949 . S
H4646 C4650 0.949 . S
C4647 C4648 1.349 . S
C4647 C4649 1.327 . S
C4647 H4670 0.950 . S
C4648 C4647 1.349 . S
C4648 C4660 1.349 . S
C4649 C4647 1.327 . S
C4649 C4665 1.429 . S
C4649 H4671 0.950 . S
C4650 H4646 0.949 . S
C4650 C4658 1.574 . S
C4650 C4666 1.368 . S
H4651 C4659 0.950 . S
H4652 C4657 0.950 . S
H4653 C4658 0.949 . S
H4654 C4660 0.950 . S
H4655 C4661 0.950 . S
H4656 C4662 0.949 . S
C4657 H4652 0.950 . S
C4657 C4659 1.327 . S
C4657 C4663 1.429 . S
C4658 C4650 1.574 . S
C4658 H4653 0.949 . S
C4658 C4664 1.368 . S
C4659 C4643 1.349 . S
C4659 H4651 0.950 . S
C4659 C4657 1.327 . S
C4660 C4648 1.349 . S
C4660 H4654 0.950 . S
C4660 C4661 1.327 . S
C4661 H4655 0.950 . S
C4661 C4660 1.327 . S
C4661 C4665 1.429 . S
C4662 C4645 1.574 . S
C4662 H4656 0.949 . S
C4662 C4666 1.368 . S
C4663 C4644 1.429 . S
C4663 C4657 1.429 . S
C4663 C4664 1.523 . S
C4664 C4645 1.368 . S
C4664 C4658 1.368 . S
C4664 C4663 1.523 . S
C4665 C4649 1.429 . S
C4665 C4661 1.429 . S
C4665 C4666 1.523 . S
C4666 C4650 1.368 . S
C4666 C4662 1.368 . S
C4666 C4665 1.523 . S
H4667 C4642 0.950 . S
H4668 C4644 0.950 . S
H4669 C4645 0.949 . S
H4670 C4647 0.950 . S
H4671 C4649 0.950 . S
C4672 C4673 1.349 . S
C4672 C4674 1.327 . S
C4672 H4697 0.950 . S
C4673 C4672 1.349 . S
C4673 C4689 1.349 . S
C4674 C4672 1.327 . S
C4674 C4693 1.429 . S
C4674 H4698 0.950 . S
C4675 C4692 1.574 . S
C4675 C4694 1.368 . S
C4675 H4699 0.949 . S
H4676 C4680 0.949 . S
C4677 C4678 1.349 . S
C4677 C4679 1.327 . S
C4677 H4700 0.950 . S
C4678 C4677 1.349 . S
C4678 C4690 1.349 . S
C4679 C4677 1.327 . S
C4679 C4695 1.429 . S
C4679 H4701 0.950 . S
C4680 H4676 0.949 . S
C4680 C4688 1.574 . S
C4680 C4696 1.368 . S
H4681 C4689 0.950 . S
H4682 C4687 0.950 . S
H4683 C4688 0.949 . S
H4684 C4690 0.950 . S
H4685 C4691 0.950 . S
H4686 C4692 0.949 . S
C4687 H4682 0.950 . S
C4687 C4689 1.327 . S
C4687 C4693 1.429 . S
C4688 C4680 1.574 . S
C4688 H4683 0.949 . S
C4688 C4694 1.368 . S
C4689 C4673 1.349 . S
C4689 H4681 0.950 . S
C4689 C4687 1.327 . S
C4690 C4678 1.349 . S
C4690 H4684 0.950 . S
C4690 C4691 1.327 . S
C4691 H4685 0.950 . S
C4691 C4690 1.327 . S
C4691 C4695 1.429 . S
C4692 C4675 1.574 . S
C4692 H4686 0.949 . S
C4692 C4696 1.368 . S
C4693 C4674 1.429 . S
C4693 C4687 1.429 . S
C4693 C4694 1.523 . S
C4694 C4675 1.368 . S
C4694 C4688 1.368 . S
C4694 C4693 1.523 . S
C4695 C4679 1.429 . S
C4695 C4691 1.429 . S
C4695 C4696 1.523 . S
C4696 C4680 1.368 . S
C4696 C4692 1.368 . S
C4696 C4695 1.523 . S
H4697 C4672 0.950 . S
H4698 C4674 0.950 . S
H4699 C4675 0.949 . S
H4700 C4677 0.950 . S
H4701 C4679 0.950 . S
C4702 C4703 1.349 . S
C4702 C4704 1.327 . S
C4702 H4727 0.950 . S
C4703 C4702 1.349 . S
C4703 C4719 1.349 . S
C4704 C4702 1.327 . S
C4704 C4723 1.429 . S
C4704 H4728 0.950 . S
C4705 C4722 1.574 . S
C4705 C4724 1.368 . S
C4705 H4729 0.949 . S
H4706 C4710 0.949 . S
C4707 C4708 1.349 . S
C4707 C4709 1.327 . S
C4707 H4730 0.950 . S
C4708 C4707 1.349 . S
C4708 C4720 1.349 . S
C4709 C4707 1.327 . S
C4709 C4725 1.429 . S
C4709 H4731 0.950 . S
C4710 H4706 0.949 . S
C4710 C4718 1.574 . S
C4710 C4726 1.368 . S
H4711 C4719 0.950 . S
H4712 C4717 0.950 . S
H4713 C4718 0.949 . S
H4714 C4720 0.950 . S
H4715 C4721 0.950 . S
H4716 C4722 0.949 . S
C4717 H4712 0.950 . S
C4717 C4719 1.327 . S
C4717 C4723 1.429 . S
C4718 C4710 1.574 . S
C4718 H4713 0.949 . S
C4718 C4724 1.368 . S
C4719 C4703 1.349 . S
C4719 H4711 0.950 . S
C4719 C4717 1.327 . S
C4720 C4708 1.349 . S
C4720 H4714 0.950 . S
C4720 C4721 1.327 . S
C4721 H4715 0.950 . S
C4721 C4720 1.327 . S
C4721 C4725 1.429 . S
C4722 C4705 1.574 . S
C4722 H4716 0.949 . S
C4722 C4726 1.368 . S
C4723 C4704 1.429 . S
C4723 C4717 1.429 . S
C4723 C4724 1.523 . S
C4724 C4705 1.368 . S
C4724 C4718 1.368 . S
C4724 C4723 1.523 . S
C4725 C4709 1.429 . S
C4725 C4721 1.429 . S
C4725 C4726 1.523 . S
C4726 C4710 1.368 . S
C4726 C4722 1.368 . S
C4726 C4725 1.523 . S
H4727 C4702 0.950 . S
H4728 C4704 0.950 . S
H4729 C4705 0.949 . S
H4730 C4707 0.950 . S
H4731 C4709 0.950 . S
C4732 C4733 1.349 . S
C4732 C4734 1.327 . S
C4732 H4757 0.950 . S
C4733 C4732 1.349 . S
C4733 C4749 1.349 . S
C4734 C4732 1.327 . S
C4734 C4753 1.429 . S
C4734 H4758 0.950 . S
C4735 C4752 1.574 . S
C4735 C4754 1.368 . S
C4735 H4759 0.949 . S
H4736 C4740 0.949 . S
C4737 C4738 1.349 . S
C4737 C4739 1.327 . S
C4737 H4760 0.950 . S
C4738 C4737 1.349 . S
C4738 C4750 1.349 . S
C4739 C4737 1.327 . S
C4739 C4755 1.429 . S
C4739 H4761 0.950 . S
C4740 H4736 0.949 . S
C4740 C4748 1.574 . S
C4740 C4756 1.368 . S
H4741 C4749 0.950 . S
H4742 C4747 0.950 . S
H4743 C4748 0.949 . S
H4744 C4750 0.950 . S
H4745 C4751 0.950 . S
H4746 C4752 0.949 . S
C4747 H4742 0.950 . S
C4747 C4749 1.327 . S
C4747 C4753 1.429 . S
C4748 C4740 1.574 . S
C4748 H4743 0.949 . S
C4748 C4754 1.368 . S
C4749 C4733 1.349 . S
C4749 H4741 0.950 . S
C4749 C4747 1.327 . S
C4750 C4738 1.349 . S
C4750 H4744 0.950 . S
C4750 C4751 1.327 . S
C4751 H4745 0.950 . S
C4751 C4750 1.327 . S
C4751 C4755 1.429 . S
C4752 C4735 1.574 . S
C4752 H4746 0.949 . S
C4752 C4756 1.368 . S
C4753 C4734 1.429 . S
C4753 C4747 1.429 . S
C4753 C4754 1.523 . S
C4754 C4735 1.368 . S
C4754 C4748 1.368 . S
C4754 C4753 1.523 . S
C4755 C4739 1.429 . S
C4755 C4751 1.429 . S
C4755 C4756 1.523 . S
C4756 C4740 1.368 . S
C4756 C4752 1.368 . S
C4756 C4755 1.523 . S
H4757 C4732 0.950 . S
H4758 C4734 0.950 . S
H4759 C4735 0.949 . S
H4760 C4737 0.950 . S
H4761 C4739 0.950 . S
C4762 C4763 1.349 . S
C4762 C4764 1.327 . S
C4762 H4787 0.950 . S
C4763 C4762 1.349 . S
C4763 C4779 1.349 . S
C4764 C4762 1.327 . S
C4764 C4783 1.429 . S
C4764 H4788 0.950 . S
C4765 C4782 1.574 . S
C4765 C4784 1.368 . S
C4765 H4789 0.959 . S
H4766 C4770 0.949 . S
C4767 C4768 1.349 . S
C4767 C4769 1.327 . S
C4767 H4790 0.981 . S
C4768 C4767 1.349 . S
C4768 C4780 1.349 . S
C4769 C4767 1.327 . S
C4769 C4785 1.429 . S
C4769 H4791 0.962 . S
C4770 H4766 0.949 . S
C4770 C4778 1.574 . S
C4770 C4786 1.368 . S
H4771 C4779 0.950 . S
H4772 C4777 0.973 . S
H4773 C4778 0.949 . S
H4774 C4780 0.956 1_545 S
H4775 C4781 0.950 . S
H4776 C4782 0.970 . S
C4777 H4772 0.973 . S
C4777 C4779 1.327 . S
C4777 C4783 1.429 . S
C4778 C4770 1.574 . S
C4778 H4773 0.949 . S
C4778 C4784 1.368 . S
C4779 C4763 1.349 . S
C4779 H4771 0.950 . S
C4779 C4777 1.327 . S
C4780 C4768 1.349 . S
C4780 H4774 0.956 1_565 S
C4780 C4781 1.327 . S
C4781 H4775 0.950 . S
C4781 C4780 1.327 . S
C4781 C4785 1.429 . S
C4782 C4765 1.574 . S
C4782 H4776 0.970 . S
C4782 C4786 1.368 . S
C4783 C4764 1.429 . S
C4783 C4777 1.429 . S
C4783 C4784 1.523 . S
C4784 C4765 1.368 . S
C4784 C4778 1.368 . S
C4784 C4783 1.523 . S
C4785 C4769 1.429 . S
C4785 C4781 1.429 . S
C4785 C4786 1.523 . S
C4786 C4770 1.368 . S
C4786 C4782 1.368 . S
C4786 C4785 1.523 . S
H4787 C4762 0.950 . S
H4788 C4764 0.950 . S
H4789 C4765 0.959 . S
H4790 C4767 0.981 . S
H4791 C4769 0.962 . S
C4792 C4793 1.349 . S
C4792 C4794 1.327 . S
C4792 H4817 0.950 . S
C4793 C4792 1.349 . S
C4793 C4809 1.349 . S
C4794 C4792 1.327 . S
C4794 C4813 1.429 . S
C4794 H4818 0.950 . S
C4795 C4812 1.574 . S
C4795 C4814 1.368 . S
C4795 H4819 0.949 . S
H4796 C4800 0.949 . S
C4797 C4798 1.349 . S
C4797 C4799 1.327 . S
C4797 H4820 0.950 . S
C4798 C4797 1.349 . S
C4798 C4810 1.349 . S
C4799 C4797 1.327 . S
C4799 C4815 1.429 . S
C4799 H4821 0.950 . S
C4800 H4796 0.949 . S
C4800 C4808 1.574 . S
C4800 C4816 1.368 . S
H4801 C4809 0.950 . S
H4802 C4807 0.950 . S
H4803 C4808 0.949 . S
H4804 C4810 0.950 . S
H4805 C4811 0.950 . S
H4806 C4812 0.949 . S
C4807 H4802 0.950 . S
C4807 C4809 1.327 . S
C4807 C4813 1.429 . S
C4808 C4800 1.574 . S
C4808 H4803 0.949 . S
C4808 C4814 1.368 . S
C4809 C4793 1.349 . S
C4809 H4801 0.950 . S
C4809 C4807 1.327 . S
C4810 C4798 1.349 . S
C4810 H4804 0.950 . S
C4810 C4811 1.327 . S
C4811 H4805 0.950 . S
C4811 C4810 1.327 . S
C4811 C4815 1.429 . S
C4812 C4795 1.574 . S
C4812 H4806 0.949 . S
C4812 C4816 1.368 . S
C4813 C4794 1.429 . S
C4813 C4807 1.429 . S
C4813 C4814 1.523 . S
C4814 C4795 1.368 . S
C4814 C4808 1.368 . S
C4814 C4813 1.523 . S
C4815 C4799 1.429 . S
C4815 C4811 1.429 . S
C4815 C4816 1.523 . S
C4816 C4800 1.368 . S
C4816 C4812 1.368 . S
C4816 C4815 1.523 . S
H4817 C4792 0.950 . S
H4818 C4794 0.950 . S
H4819 C4795 0.949 . S
H4820 C4797 0.950 . S
H4821 C4799 0.950 . S
C4822 C4823 1.349 . S
C4822 C4824 1.327 . S
C4822 H4847 0.950 1_554 S
C4823 C4822 1.349 . S
C4823 C4839 1.349 . S
C4824 C4822 1.327 . S
C4824 C4843 1.429 . S
C4824 H4848 0.950 1_554 S
C4825 C4842 1.574 . S
C4825 C4844 1.368 . S
C4825 H4849 0.949 . S
H4826 C4830 0.949 . S
C4827 C4828 1.349 . S
C4827 C4829 1.327 . S
C4827 H4850 0.950 . S
C4828 C4827 1.349 . S
C4828 C4840 1.349 . S
C4829 C4827 1.327 . S
C4829 C4845 1.429 . S
C4829 H4851 0.950 . S
C4830 H4826 0.949 . S
C4830 C4838 1.574 . S
C4830 C4846 1.368 . S
H4831 C4839 0.950 . S
H4832 C4837 0.950 . S
H4833 C4838 0.949 1_556 S
H4834 C4840 0.950 . S
H4835 C4841 0.950 . S
H4836 C4842 0.949 . S
C4837 H4832 0.950 . S
C4837 C4839 1.327 . S
C4837 C4843 1.429 . S
C4838 C4830 1.574 . S
C4838 H4833 0.949 1_554 S
C4838 C4844 1.368 . S
C4839 C4823 1.349 . S
C4839 H4831 0.950 . S
C4839 C4837 1.327 . S
C4840 C4828 1.349 . S
C4840 H4834 0.950 . S
C4840 C4841 1.327 . S
C4841 H4835 0.950 . S
C4841 C4840 1.327 . S
C4841 C4845 1.429 . S
C4842 C4825 1.574 . S
C4842 H4836 0.949 . S
C4842 C4846 1.368 . S
C4843 C4824 1.429 . S
C4843 C4837 1.429 . S
C4843 C4844 1.523 . S
C4844 C4825 1.368 . S
C4844 C4838 1.368 . S
C4844 C4843 1.523 . S
C4845 C4829 1.429 . S
C4845 C4841 1.429 . S
C4845 C4846 1.523 . S
C4846 C4830 1.368 . S
C4846 C4842 1.368 . S
C4846 C4845 1.523 . S
H4847 C4822 0.950 1_556 S
H4848 C4824 0.950 1_556 S
H4849 C4825 0.949 . S
H4850 C4827 0.950 . S
H4851 C4829 0.950 . S
C4852 C4853 1.349 . S
C4852 C4854 1.327 . S
C4852 H4877 0.950 . S
C4853 C4852 1.349 . S
C4853 C4869 1.349 . S
C4854 C4852 1.327 . S
C4854 C4873 1.429 . S
C4854 H4878 0.950 . S
C4855 C4872 1.574 . S
C4855 C4874 1.368 . S
C4855 H4879 0.949 . S
H4856 C4860 0.949 . S
C4857 C4858 1.349 . S
C4857 C4859 1.327 . S
C4857 H4880 0.950 . S
C4858 C4857 1.349 . S
C4858 C4870 1.349 . S
C4859 C4857 1.327 . S
C4859 C4875 1.429 . S
C4859 H4881 0.950 . S
C4860 H4856 0.949 . S
C4860 C4868 1.574 . S
C4860 C4876 1.368 . S
H4861 C4869 0.950 . S
H4862 C4867 0.950 . S
H4863 C4868 0.949 . S
H4864 C4870 0.950 . S
H4865 C4871 0.950 . S
H4866 C4872 0.949 . S
C4867 H4862 0.950 . S
C4867 C4869 1.327 . S
C4867 C4873 1.429 . S
C4868 C4860 1.574 . S
C4868 H4863 0.949 . S
C4868 C4874 1.368 . S
C4869 C4853 1.349 . S
C4869 H4861 0.950 . S
C4869 C4867 1.327 . S
C4870 C4858 1.349 . S
C4870 H4864 0.950 . S
C4870 C4871 1.327 . S
C4871 H4865 0.950 . S
C4871 C4870 1.327 . S
C4871 C4875 1.429 . S
C4872 C4855 1.574 . S
C4872 H4866 0.949 . S
C4872 C4876 1.368 . S
C4873 C4854 1.429 . S
C4873 C4867 1.429 . S
C4873 C4874 1.523 . S
C4874 C4855 1.368 . S
C4874 C4868 1.368 . S
C4874 C4873 1.523 . S
C4875 C4859 1.429 . S
C4875 C4871 1.429 . S
C4875 C4876 1.523 . S
C4876 C4860 1.368 . S
C4876 C4872 1.368 . S
C4876 C4875 1.523 . S
H4877 C4852 0.950 . S
H4878 C4854 0.950 . S
H4879 C4855 0.949 . S
H4880 C4857 0.950 . S
H4881 C4859 0.950 . S
C4882 C4883 1.349 . S
C4882 C4884 1.327 . S
C4882 H4907 0.950 . S
C4883 C4882 1.349 . S
C4883 C4899 1.349 . S
C4884 C4882 1.327 . S
C4884 C4903 1.429 . S
C4884 H4908 0.950 . S
C4885 C4902 1.574 . S
C4885 C4904 1.368 . S
C4885 H4909 0.949 . S
H4886 C4890 0.949 . S
C4887 C4888 1.349 . S
C4887 C4889 1.327 . S
C4887 H4910 0.950 . S
C4888 C4887 1.349 . S
C4888 C4900 1.349 . S
C4889 C4887 1.327 . S
C4889 C4905 1.429 . S
C4889 H4911 0.950 . S
C4890 H4886 0.949 . S
C4890 C4898 1.574 . S
C4890 C4906 1.368 . S
H4891 C4899 0.950 . S
H4892 C4897 0.950 . S
H4893 C4898 0.949 . S
H4894 C4900 0.950 . S
H4895 C4901 0.950 . S
H4896 C4902 0.949 . S
C4897 H4892 0.950 . S
C4897 C4899 1.327 . S
C4897 C4903 1.429 . S
C4898 C4890 1.574 . S
C4898 H4893 0.949 . S
C4898 C4904 1.368 . S
C4899 C4883 1.349 . S
C4899 H4891 0.950 . S
C4899 C4897 1.327 . S
C4900 C4888 1.349 . S
C4900 H4894 0.950 . S
C4900 C4901 1.327 . S
C4901 H4895 0.950 . S
C4901 C4900 1.327 . S
C4901 C4905 1.429 . S
C4902 C4885 1.574 . S
C4902 H4896 0.949 . S
C4902 C4906 1.368 . S
C4903 C4884 1.429 . S
C4903 C4897 1.429 . S
C4903 C4904 1.523 . S
C4904 C4885 1.368 . S
C4904 C4898 1.368 . S
C4904 C4903 1.523 . S
C4905 C4889 1.429 . S
C4905 C4901 1.429 . S
C4905 C4906 1.523 . S
C4906 C4890 1.368 . S
C4906 C4902 1.368 . S
C4906 C4905 1.523 . S
H4907 C4882 0.950 . S
H4908 C4884 0.950 . S
H4909 C4885 0.949 . S
H4910 C4887 0.950 . S
H4911 C4889 0.950 . S
C4912 C4913 1.349 . S
C4912 C4914 1.327 . S
C4912 H4937 0.950 . S
C4913 C4912 1.349 . S
C4913 C4929 1.349 . S
C4914 C4912 1.327 . S
C4914 C4933 1.429 . S
C4914 H4938 0.950 . S
C4915 C4932 1.574 . S
C4915 C4934 1.368 . S
C4915 H4939 0.949 . S
H4916 C4920 0.949 . S
C4917 C4918 1.349 . S
C4917 C4919 1.327 . S
C4917 H4940 0.950 . S
C4918 C4917 1.349 . S
C4918 C4930 1.349 . S
C4919 C4917 1.327 . S
C4919 C4935 1.429 . S
C4919 H4941 0.950 . S
C4920 H4916 0.949 . S
C4920 C4928 1.574 . S
C4920 C4936 1.368 . S
H4921 C4929 0.950 . S
H4922 C4927 0.950 . S
H4923 C4928 0.949 . S
H4924 C4930 0.950 . S
H4925 C4931 0.950 . S
H4926 C4932 0.949 . S
C4927 H4922 0.950 . S
C4927 C4929 1.327 . S
C4927 C4933 1.429 . S
C4928 C4920 1.574 . S
C4928 H4923 0.949 . S
C4928 C4934 1.368 . S
C4929 C4913 1.349 . S
C4929 H4921 0.950 . S
C4929 C4927 1.327 . S
C4930 C4918 1.349 . S
C4930 H4924 0.950 . S
C4930 C4931 1.327 . S
C4931 H4925 0.950 . S
C4931 C4930 1.327 . S
C4931 C4935 1.429 . S
C4932 C4915 1.574 . S
C4932 H4926 0.949 . S
C4932 C4936 1.368 . S
C4933 C4914 1.429 . S
C4933 C4927 1.429 . S
C4933 C4934 1.523 . S
C4934 C4915 1.368 . S
C4934 C4928 1.368 . S
C4934 C4933 1.523 . S
C4935 C4919 1.429 . S
C4935 C4931 1.429 . S
C4935 C4936 1.523 . S
C4936 C4920 1.368 . S
C4936 C4932 1.368 . S
C4936 C4935 1.523 . S
H4937 C4912 0.950 . S
H4938 C4914 0.950 . S
H4939 C4915 0.949 . S
H4940 C4917 0.950 . S
H4941 C4919 0.950 . S
C4942 C4943 1.349 . S
C4942 C4944 1.327 . S
C4942 H4967 0.950 . S
C4943 C4942 1.349 . S
C4943 C4959 1.349 . S
C4944 C4942 1.327 . S
C4944 C4963 1.429 . S
C4944 H4968 0.950 . S
C4945 C4962 1.574 . S
C4945 C4964 1.368 . S
C4945 H4969 0.949 . S
H4946 C4950 0.949 . S
C4947 C4948 1.349 . S
C4947 C4949 1.327 . S
C4947 H4970 0.950 . S
C4948 C4947 1.349 . S
C4948 C4960 1.349 . S
C4949 C4947 1.327 . S
C4949 C4965 1.429 . S
C4949 H4971 0.950 . S
C4950 H4946 0.949 . S
C4950 C4958 1.574 . S
C4950 C4966 1.368 . S
H4951 C4959 0.950 . S
H4952 C4957 0.950 . S
H4953 C4958 0.949 . S
H4954 C4960 0.950 . S
H4955 C4961 0.950 . S
H4956 C4962 0.949 . S
C4957 H4952 0.950 . S
C4957 C4959 1.327 . S
C4957 C4963 1.429 . S
C4958 C4950 1.574 . S
C4958 H4953 0.949 . S
C4958 C4964 1.368 . S
C4959 C4943 1.349 . S
C4959 H4951 0.950 . S
C4959 C4957 1.327 . S
C4960 C4948 1.349 . S
C4960 H4954 0.950 . S
C4960 C4961 1.327 . S
C4961 H4955 0.950 . S
C4961 C4960 1.327 . S
C4961 C4965 1.429 . S
C4962 C4945 1.574 . S
C4962 H4956 0.949 . S
C4962 C4966 1.368 . S
C4963 C4944 1.429 . S
C4963 C4957 1.429 . S
C4963 C4964 1.523 . S
C4964 C4945 1.368 . S
C4964 C4958 1.368 . S
C4964 C4963 1.523 . S
C4965 C4949 1.429 . S
C4965 C4961 1.429 . S
C4965 C4966 1.523 . S
C4966 C4950 1.368 . S
C4966 C4962 1.368 . S
C4966 C4965 1.523 . S
H4967 C4942 0.950 . S
H4968 C4944 0.950 . S
H4969 C4945 0.949 . S
H4970 C4947 0.950 . S
H4971 C4949 0.950 . S
C4972 C4973 1.349 . S
C4972 C4974 1.327 . S
C4972 H4997 0.950 . S
C4973 C4972 1.349 . S
C4973 C4989 1.349 . S
C4974 C4972 1.327 . S
C4974 C4993 1.429 . S
C4974 H4998 0.950 . S
C4975 C4992 1.574 . S
C4975 C4994 1.368 . S
C4975 H4999 0.949 . S
H4976 C4980 0.949 . S
C4977 C4978 1.349 . S
C4977 C4979 1.327 . S
C4977 H5000 0.950 . S
C4978 C4977 1.349 . S
C4978 C4990 1.349 . S
C4979 C4977 1.327 . S
C4979 C4995 1.429 . S
C4979 H5001 0.950 . S
C4980 H4976 0.949 . S
C4980 C4988 1.574 . S
C4980 C4996 1.368 . S
H4981 C4989 0.950 . S
H4982 C4987 0.950 . S
H4983 C4988 0.949 . S
H4984 C4990 0.950 . S
H4985 C4991 0.950 . S
H4986 C4992 0.949 . S
C4987 H4982 0.950 . S
C4987 C4989 1.327 . S
C4987 C4993 1.429 . S
C4988 C4980 1.574 . S
C4988 H4983 0.949 . S
C4988 C4994 1.368 . S
C4989 C4973 1.349 . S
C4989 H4981 0.950 . S
C4989 C4987 1.327 . S
C4990 C4978 1.349 . S
C4990 H4984 0.950 . S
C4990 C4991 1.327 . S
C4991 H4985 0.950 . S
C4991 C4990 1.327 . S
C4991 C4995 1.429 . S
C4992 C4975 1.574 . S
C4992 H4986 0.949 . S
C4992 C4996 1.368 . S
C4993 C4974 1.429 . S
C4993 C4987 1.429 . S
C4993 C4994 1.523 . S
C4994 C4975 1.368 . S
C4994 C4988 1.368 . S
C4994 C4993 1.523 . S
C4995 C4979 1.429 . S
C4995 C4991 1.429 . S
C4995 C4996 1.523 . S
C4996 C4980 1.368 . S
C4996 C4992 1.368 . S
C4996 C4995 1.523 . S
H4997 C4972 0.950 . S
H4998 C4974 0.950 . S
H4999 C4975 0.949 . S
H5000 C4977 0.950 . S
H5001 C4979 0.950 . S
C5002 C5003 1.349 . S
C5002 C5004 1.327 . S
C5002 H5027 0.950 . S
C5003 C5002 1.349 . S
C5003 C5019 1.349 . S
C5004 C5002 1.327 . S
C5004 C5023 1.429 . S
C5004 H5028 0.950 . S
C5005 C5022 1.574 . S
C5005 C5024 1.368 . S
C5005 H5029 0.949 . S
H5006 C5010 0.949 . S
C5007 C5008 1.349 . S
C5007 C5009 1.327 . S
C5007 H5030 0.950 . S
C5008 C5007 1.349 . S
C5008 C5020 1.349 . S
C5009 C5007 1.327 . S
C5009 C5025 1.429 . S
C5009 H5031 0.950 . S
C5010 H5006 0.949 . S
C5010 C5018 1.574 . S
C5010 C5026 1.368 . S
H5011 C5019 0.950 . S
H5012 C5017 0.950 . S
H5013 C5018 0.949 . S
H5014 C5020 0.950 . S
H5015 C5021 0.950 . S
H5016 C5022 0.949 . S
C5017 H5012 0.950 . S
C5017 C5019 1.327 . S
C5017 C5023 1.429 . S
C5018 C5010 1.574 . S
C5018 H5013 0.949 . S
C5018 C5024 1.368 . S
C5019 C5003 1.349 . S
C5019 H5011 0.950 . S
C5019 C5017 1.327 . S
C5020 C5008 1.349 . S
C5020 H5014 0.950 . S
C5020 C5021 1.327 . S
C5021 H5015 0.950 . S
C5021 C5020 1.327 . S
C5021 C5025 1.429 . S
C5022 C5005 1.574 . S
C5022 H5016 0.949 . S
C5022 C5026 1.368 . S
C5023 C5004 1.429 . S
C5023 C5017 1.429 . S
C5023 C5024 1.523 . S
C5024 C5005 1.368 . S
C5024 C5018 1.368 . S
C5024 C5023 1.523 . S
C5025 C5009 1.429 . S
C5025 C5021 1.429 . S
C5025 C5026 1.523 . S
C5026 C5010 1.368 . S
C5026 C5022 1.368 . S
C5026 C5025 1.523 . S
H5027 C5002 0.950 . S
H5028 C5004 0.950 . S
H5029 C5005 0.949 . S
H5030 C5007 0.950 . S
H5031 C5009 0.950 . S
C5032 C5033 1.349 . S
C5032 C5034 1.327 . S
C5032 H5057 0.950 . S
C5033 C5032 1.349 . S
C5033 C5049 1.349 . S
C5034 C5032 1.327 . S
C5034 C5053 1.429 . S
C5034 H5058 0.950 . S
C5035 C5052 1.574 . S
C5035 C5054 1.368 . S
C5035 H5059 0.949 . S
H5036 C5040 0.949 . S
C5037 C5038 1.349 . S
C5037 C5039 1.327 . S
C5037 H5060 0.950 . S
C5038 C5037 1.349 . S
C5038 C5050 1.349 . S
C5039 C5037 1.327 . S
C5039 C5055 1.429 . S
C5039 H5061 0.950 . S
C5040 H5036 0.949 . S
C5040 C5048 1.574 . S
C5040 C5056 1.368 . S
H5041 C5049 0.950 . S
H5042 C5047 0.950 . S
H5043 C5048 0.949 . S
H5044 C5050 0.950 . S
H5045 C5051 0.950 . S
H5046 C5052 0.949 . S
C5047 H5042 0.950 . S
C5047 C5049 1.327 . S
C5047 C5053 1.429 . S
C5048 C5040 1.574 . S
C5048 H5043 0.949 . S
C5048 C5054 1.368 . S
C5049 C5033 1.349 . S
C5049 H5041 0.950 . S
C5049 C5047 1.327 . S
C5050 C5038 1.349 . S
C5050 H5044 0.950 . S
C5050 C5051 1.327 . S
C5051 H5045 0.950 . S
C5051 C5050 1.327 . S
C5051 C5055 1.429 . S
C5052 C5035 1.574 . S
C5052 H5046 0.949 . S
C5052 C5056 1.368 . S
C5053 C5034 1.429 . S
C5053 C5047 1.429 . S
C5053 C5054 1.523 . S
C5054 C5035 1.368 . S
C5054 C5048 1.368 . S
C5054 C5053 1.523 . S
C5055 C5039 1.429 . S
C5055 C5051 1.429 . S
C5055 C5056 1.523 . S
C5056 C5040 1.368 . S
C5056 C5052 1.368 . S
C5056 C5055 1.523 . S
H5057 C5032 0.950 . S
H5058 C5034 0.950 . S
H5059 C5035 0.949 . S
H5060 C5037 0.950 . S
H5061 C5039 0.950 . S
C5062 C5063 1.349 . S
C5062 C5064 1.327 . S
C5062 H5087 0.950 . S
C5063 C5062 1.349 . S
C5063 C5079 1.349 . S
C5064 C5062 1.327 . S
C5064 C5083 1.429 . S
C5064 H5088 0.950 . S
C5065 C5082 1.574 . S
C5065 C5084 1.368 . S
C5065 H5089 0.949 . S
H5066 C5070 0.949 . S
C5067 C5068 1.349 . S
C5067 C5069 1.327 . S
C5067 H5090 0.950 . S
C5068 C5067 1.349 . S
C5068 C5080 1.349 . S
C5069 C5067 1.327 . S
C5069 C5085 1.429 . S
C5069 H5091 0.950 . S
C5070 H5066 0.949 . S
C5070 C5078 1.574 . S
C5070 C5086 1.368 . S
H5071 C5079 0.950 . S
H5072 C5077 0.950 . S
H5073 C5078 0.949 . S
H5074 C5080 0.950 . S
H5075 C5081 0.950 . S
H5076 C5082 0.949 . S
C5077 H5072 0.950 . S
C5077 C5079 1.327 . S
C5077 C5083 1.429 . S
C5078 C5070 1.574 . S
C5078 H5073 0.949 . S
C5078 C5084 1.368 . S
C5079 C5063 1.349 . S
C5079 H5071 0.950 . S
C5079 C5077 1.327 . S
C5080 C5068 1.349 . S
C5080 H5074 0.950 . S
C5080 C5081 1.327 . S
C5081 H5075 0.950 . S
C5081 C5080 1.327 . S
C5081 C5085 1.429 . S
C5082 C5065 1.574 . S
C5082 H5076 0.949 . S
C5082 C5086 1.368 . S
C5083 C5064 1.429 . S
C5083 C5077 1.429 . S
C5083 C5084 1.523 . S
C5084 C5065 1.368 . S
C5084 C5078 1.368 . S
C5084 C5083 1.523 . S
C5085 C5069 1.429 . S
C5085 C5081 1.429 . S
C5085 C5086 1.523 . S
C5086 C5070 1.368 . S
C5086 C5082 1.368 . S
C5086 C5085 1.523 . S
H5087 C5062 0.950 . S
H5088 C5064 0.950 . S
H5089 C5065 0.949 . S
H5090 C5067 0.950 . S
H5091 C5069 0.950 . S
C5092 C5093 1.396 . S
C5092 C5094 1.319 . S
C5092 H5117 0.912 1_455 S
C5093 C5092 1.396 . S
C5093 C5109 1.349 . S
C5094 C5092 1.319 . S
C5094 C5113 1.429 . S
C5094 H5118 0.950 1_455 S
C5095 C5112 1.574 . S
C5095 C5114 1.368 . S
C5095 H5119 0.949 . S
H5096 C5100 0.949 1_655 S
C5097 C5098 1.349 . S
C5097 C5099 1.327 . S
C5097 H5120 0.950 . S
C5098 C5097 1.349 . S
C5098 C5110 1.349 . S
C5099 C5097 1.327 . S
C5099 C5115 1.429 . S
C5099 H5121 0.950 . S
C5100 H5096 0.949 1_455 S
C5100 C5108 1.574 . S
C5100 C5116 1.368 . S
H5101 C5109 0.950 . S
H5102 C5107 0.950 . S
H5103 C5108 0.949 1_655 S
H5104 C5110 0.950 . S
H5105 C5111 0.973 . S
H5106 C5112 0.949 . S
C5107 H5102 0.950 . S
C5107 C5109 1.327 . S
C5107 C5113 1.429 . S
C5108 C5100 1.574 . S
C5108 H5103 0.949 1_455 S
C5108 C5114 1.368 . S
C5109 C5093 1.349 . S
C5109 H5101 0.950 . S
C5109 C5107 1.327 . S
C5110 C5098 1.349 . S
C5110 H5104 0.950 . S
C5110 C5111 1.327 . S
C5111 H5105 0.973 . S
C5111 C5110 1.327 . S
C5111 C5115 1.429 . S
C5112 C5095 1.574 . S
C5112 H5106 0.949 . S
C5112 C5116 1.368 . S
C5113 C5094 1.429 . S
C5113 C5107 1.429 . S
C5113 C5114 1.523 . S
C5114 C5095 1.368 . S
C5114 C5108 1.368 . S
C5114 C5113 1.523 . S
C5115 C5099 1.429 . S
C5115 C5111 1.429 . S
C5115 C5116 1.523 . S
C5116 C5100 1.368 . S
C5116 C5112 1.368 . S
C5116 C5115 1.523 . S
H5117 C5092 0.912 1_655 S
H5118 C5094 0.950 1_655 S
H5119 C5095 0.949 . S
H5120 C5097 0.950 . S
H5121 C5099 0.950 . S
C5122 C5123 1.349 . S
C5122 C5124 1.327 . S
C5122 H5147 0.950 . S
C5123 C5122 1.349 . S
C5123 C5139 1.349 . S
C5124 C5122 1.327 . S
C5124 C5143 1.429 . S
C5124 H5148 0.950 . S
C5125 C5142 1.574 . S
C5125 C5144 1.368 . S
C5125 H5149 0.949 . S
H5126 C5130 0.949 . S
C5127 C5128 1.349 . S
C5127 C5129 1.327 . S
C5127 H5150 0.950 . S
C5128 C5127 1.349 . S
C5128 C5140 1.349 . S
C5129 C5127 1.327 . S
C5129 C5145 1.429 . S
C5129 H5151 0.950 . S
C5130 H5126 0.949 . S
C5130 C5138 1.574 . S
C5130 C5146 1.368 . S
H5131 C5139 0.950 . S
H5132 C5137 0.950 . S
H5133 C5138 0.949 . S
H5134 C5140 0.950 . S
H5135 C5141 0.950 . S
H5136 C5142 0.949 . S
C5137 H5132 0.950 . S
C5137 C5139 1.327 . S
C5137 C5143 1.429 . S
C5138 C5130 1.574 . S
C5138 H5133 0.949 . S
C5138 C5144 1.368 . S
C5139 C5123 1.349 . S
C5139 H5131 0.950 . S
C5139 C5137 1.327 . S
C5140 C5128 1.349 . S
C5140 H5134 0.950 . S
C5140 C5141 1.327 . S
C5141 H5135 0.950 . S
C5141 C5140 1.327 . S
C5141 C5145 1.429 . S
C5142 C5125 1.574 . S
C5142 H5136 0.949 . S
C5142 C5146 1.368 . S
C5143 C5124 1.429 . S
C5143 C5137 1.429 . S
C5143 C5144 1.523 . S
C5144 C5125 1.368 . S
C5144 C5138 1.368 . S
C5144 C5143 1.523 . S
C5145 C5129 1.429 . S
C5145 C5141 1.429 . S
C5145 C5146 1.523 . S
C5146 C5130 1.368 . S
C5146 C5142 1.368 . S
C5146 C5145 1.523 . S
H5147 C5122 0.950 . S
H5148 C5124 0.950 . S
H5149 C5125 0.949 . S
H5150 C5127 0.950 . S
H5151 C5129 0.950 . S
C5152 C5153 1.349 . S
C5152 C5154 1.327 . S
C5152 H5177 0.950 . S
C5153 C5152 1.349 . S
C5153 C5169 1.349 . S
C5154 C5152 1.327 . S
C5154 C5173 1.429 . S
C5154 H5178 0.950 . S
C5155 C5172 1.574 . S
C5155 C5174 1.368 . S
C5155 H5179 0.949 . S
H5156 C5160 0.949 . S
C5157 C5158 1.349 . S
C5157 C5159 1.327 . S
C5157 H5180 0.950 . S
C5158 C5157 1.349 . S
C5158 C5170 1.349 . S
C5159 C5157 1.327 . S
C5159 C5175 1.429 . S
C5159 H5181 0.950 . S
C5160 H5156 0.949 . S
C5160 C5168 1.574 . S
C5160 C5176 1.368 . S
H5161 C5169 0.950 . S
H5162 C5167 0.950 . S
H5163 C5168 0.949 . S
H5164 C5170 0.950 . S
H5165 C5171 0.950 . S
H5166 C5172 0.949 . S
C5167 H5162 0.950 . S
C5167 C5169 1.327 . S
C5167 C5173 1.429 . S
C5168 C5160 1.574 . S
C5168 H5163 0.949 . S
C5168 C5174 1.368 . S
C5169 C5153 1.349 . S
C5169 H5161 0.950 . S
C5169 C5167 1.327 . S
C5170 C5158 1.349 . S
C5170 H5164 0.950 . S
C5170 C5171 1.327 . S
C5171 H5165 0.950 . S
C5171 C5170 1.327 . S
C5171 C5175 1.429 . S
C5172 C5155 1.574 . S
C5172 H5166 0.949 . S
C5172 C5176 1.368 . S
C5173 C5154 1.429 . S
C5173 C5167 1.429 . S
C5173 C5174 1.523 . S
C5174 C5155 1.368 . S
C5174 C5168 1.368 . S
C5174 C5173 1.523 . S
C5175 C5159 1.429 . S
C5175 C5171 1.429 . S
C5175 C5176 1.523 . S
C5176 C5160 1.368 . S
C5176 C5172 1.368 . S
C5176 C5175 1.523 . S
H5177 C5152 0.950 . S
H5178 C5154 0.950 . S
H5179 C5155 0.949 . S
H5180 C5157 0.950 . S
H5181 C5159 0.950 . S
C5182 C5183 1.349 . S
C5182 C5184 1.327 . S
C5182 H5207 0.950 . S
C5183 C5182 1.349 . S
C5183 C5199 1.349 . S
C5184 C5182 1.327 . S
C5184 C5203 1.429 . S
C5184 H5208 0.950 . S
C5185 C5202 1.574 . S
C5185 C5204 1.368 . S
C5185 H5209 0.949 . S
H5186 C5190 0.949 . S
C5187 C5188 1.349 . S
C5187 C5189 1.327 . S
C5187 H5210 0.950 . S
C5188 C5187 1.349 . S
C5188 C5200 1.349 . S
C5189 C5187 1.327 . S
C5189 C5205 1.429 . S
C5189 H5211 0.950 . S
C5190 H5186 0.949 . S
C5190 C5198 1.574 . S
C5190 C5206 1.368 . S
H5191 C5199 0.950 . S
H5192 C5197 0.950 . S
H5193 C5198 0.949 . S
H5194 C5200 0.950 . S
H5195 C5201 0.950 . S
H5196 C5202 0.949 . S
C5197 H5192 0.950 . S
C5197 C5199 1.327 . S
C5197 C5203 1.429 . S
C5198 C5190 1.574 . S
C5198 H5193 0.949 . S
C5198 C5204 1.368 . S
C5199 C5183 1.349 . S
C5199 H5191 0.950 . S
C5199 C5197 1.327 . S
C5200 C5188 1.349 . S
C5200 H5194 0.950 . S
C5200 C5201 1.327 . S
C5201 H5195 0.950 . S
C5201 C5200 1.327 . S
C5201 C5205 1.429 . S
C5202 C5185 1.574 . S
C5202 H5196 0.949 . S
C5202 C5206 1.368 . S
C5203 C5184 1.429 . S
C5203 C5197 1.429 . S
C5203 C5204 1.523 . S
C5204 C5185 1.368 . S
C5204 C5198 1.368 . S
C5204 C5203 1.523 . S
C5205 C5189 1.429 . S
C5205 C5201 1.429 . S
C5205 C5206 1.523 . S
C5206 C5190 1.368 . S
C5206 C5202 1.368 . S
C5206 C5205 1.523 . S
H5207 C5182 0.950 . S
H5208 C5184 0.950 . S
H5209 C5185 0.949 . S
H5210 C5187 0.950 . S
H5211 C5189 0.950 . S
C5212 C5213 1.349 . S
C5212 C5214 1.327 . S
C5212 H5237 0.950 . S
C5213 C5212 1.349 . S
C5213 C5229 1.349 . S
C5214 C5212 1.327 . S
C5214 C5233 1.429 . S
C5214 H5238 0.950 . S
C5215 C5232 1.574 . S
C5215 C5234 1.368 . S
C5215 H5239 0.949 . S
H5216 C5220 0.949 . S
C5217 C5218 1.349 1_655 S
C5217 C5219 1.327 . S
C5217 H5240 0.950 . S
C5218 C5217 1.349 1_455 S
C5218 C5230 1.349 . S
C5219 C5217 1.327 . S
C5219 C5235 1.429 . S
C5219 H5241 0.950 . S
C5220 H5216 0.949 . S
C5220 C5228 1.574 . S
C5220 C5236 1.368 . S
H5221 C5229 0.950 . S
H5222 C5227 0.950 . S
H5223 C5228 0.949 . S
H5224 C5230 0.950 . S
H5225 C5231 0.950 . S
H5226 C5232 0.949 . S
C5227 H5222 0.950 . S
C5227 C5229 1.327 . S
C5227 C5233 1.429 . S
C5228 C5220 1.574 . S
C5228 H5223 0.949 . S
C5228 C5234 1.368 . S
C5229 C5213 1.349 . S
C5229 H5221 0.950 . S
C5229 C5227 1.327 . S
C5230 C5218 1.349 . S
C5230 H5224 0.950 . S
C5230 C5231 1.327 . S
C5231 H5225 0.950 . S
C5231 C5230 1.327 . S
C5231 C5235 1.429 1_455 S
C5232 C5215 1.574 . S
C5232 H5226 0.949 . S
C5232 C5236 1.368 . S
C5233 C5214 1.429 . S
C5233 C5227 1.429 . S
C5233 C5234 1.523 . S
C5234 C5215 1.368 . S
C5234 C5228 1.368 . S
C5234 C5233 1.523 . S
C5235 C5219 1.429 . S
C5235 C5231 1.429 1_655 S
C5235 C5236 1.523 . S
C5236 C5220 1.368 . S
C5236 C5232 1.368 . S
C5236 C5235 1.523 . S
H5237 C5212 0.950 . S
H5238 C5214 0.950 . S
H5239 C5215 0.949 . S
H5240 C5217 0.950 . S
H5241 C5219 0.950 . S
C5242 C5243 1.349 . S
C5242 C5244 1.327 . S
C5242 H5267 0.950 . S
C5243 C5242 1.349 . S
C5243 C5259 1.349 . S
C5244 C5242 1.327 . S
C5244 C5263 1.429 . S
C5244 H5268 0.950 . S
C5245 C5262 1.574 . S
C5245 C5264 1.368 . S
C5245 H5269 0.949 . S
H5246 C5250 0.949 . S
C5247 C5248 1.349 . S
C5247 C5249 1.327 . S
C5247 H5270 0.950 . S
C5248 C5247 1.349 . S
C5248 C5260 1.349 . S
C5249 C5247 1.327 . S
C5249 C5265 1.429 . S
C5249 H5271 0.950 . S
C5250 H5246 0.949 . S
C5250 C5258 1.574 . S
C5250 C5266 1.368 . S
H5251 C5259 0.950 . S
H5252 C5257 0.950 . S
H5253 C5258 0.949 . S
H5254 C5260 0.950 . S
H5255 C5261 0.950 . S
H5256 C5262 0.949 . S
C5257 H5252 0.950 . S
C5257 C5259 1.327 . S
C5257 C5263 1.429 . S
C5258 C5250 1.574 . S
C5258 H5253 0.949 . S
C5258 C5264 1.368 . S
C5259 C5243 1.349 . S
C5259 H5251 0.950 . S
C5259 C5257 1.327 . S
C5260 C5248 1.349 . S
C5260 H5254 0.950 . S
C5260 C5261 1.327 . S
C5261 H5255 0.950 . S
C5261 C5260 1.327 . S
C5261 C5265 1.429 . S
C5262 C5245 1.574 . S
C5262 H5256 0.949 . S
C5262 C5266 1.368 . S
C5263 C5244 1.429 . S
C5263 C5257 1.429 . S
C5263 C5264 1.523 . S
C5264 C5245 1.368 . S
C5264 C5258 1.368 . S
C5264 C5263 1.523 . S
C5265 C5249 1.429 . S
C5265 C5261 1.429 . S
C5265 C5266 1.523 . S
C5266 C5250 1.368 . S
C5266 C5262 1.368 . S
C5266 C5265 1.523 . S
H5267 C5242 0.950 . S
H5268 C5244 0.950 . S
H5269 C5245 0.949 . S
H5270 C5247 0.950 . S
H5271 C5249 0.950 . S
C5272 C5273 1.349 . S
C5272 C5274 1.327 . S
C5272 H5297 0.950 . S
C5273 C5272 1.349 . S
C5273 C5289 1.349 . S
C5274 C5272 1.327 . S
C5274 C5293 1.429 . S
C5274 H5298 0.950 . S
C5275 C5292 1.574 . S
C5275 C5294 1.368 . S
C5275 H5299 0.949 . S
H5276 C5280 0.949 . S
C5277 C5278 1.349 . S
C5277 C5279 1.327 . S
C5277 H5300 0.950 . S
C5278 C5277 1.349 . S
C5278 C5290 1.349 . S
C5279 C5277 1.327 . S
C5279 C5295 1.429 . S
C5279 H5301 0.950 . S
C5280 H5276 0.949 . S
C5280 C5288 1.574 . S
C5280 C5296 1.368 . S
H5281 C5289 0.950 . S
H5282 C5287 0.950 . S
H5283 C5288 0.949 . S
H5284 C5290 0.950 . S
H5285 C5291 0.950 . S
H5286 C5292 0.949 . S
C5287 H5282 0.950 . S
C5287 C5289 1.327 . S
C5287 C5293 1.429 . S
C5288 C5280 1.574 . S
C5288 H5283 0.949 . S
C5288 C5294 1.368 . S
C5289 C5273 1.349 . S
C5289 H5281 0.950 . S
C5289 C5287 1.327 . S
C5290 C5278 1.349 . S
C5290 H5284 0.950 . S
C5290 C5291 1.327 . S
C5291 H5285 0.950 . S
C5291 C5290 1.327 . S
C5291 C5295 1.429 . S
C5292 C5275 1.574 . S
C5292 H5286 0.949 . S
C5292 C5296 1.368 . S
C5293 C5274 1.429 . S
C5293 C5287 1.429 . S
C5293 C5294 1.523 . S
C5294 C5275 1.368 . S
C5294 C5288 1.368 . S
C5294 C5293 1.523 . S
C5295 C5279 1.429 . S
C5295 C5291 1.429 . S
C5295 C5296 1.523 . S
C5296 C5280 1.368 . S
C5296 C5292 1.368 . S
C5296 C5295 1.523 . S
H5297 C5272 0.950 . S
H5298 C5274 0.950 . S
H5299 C5275 0.949 . S
H5300 C5277 0.950 . S
H5301 C5279 0.950 . S
C5302 C5303 1.349 . S
C5302 C5304 1.327 . S
C5302 H5327 0.950 . S
C5303 C5302 1.349 . S
C5303 C5319 1.349 . S
C5304 C5302 1.327 . S
C5304 C5323 1.429 . S
C5304 H5328 0.950 . S
C5305 C5322 1.574 . S
C5305 C5324 1.368 . S
C5305 H5329 0.949 . S
H5306 C5310 0.949 . S
C5307 C5308 1.349 . S
C5307 C5309 1.327 . S
C5307 H5330 0.950 . S
C5308 C5307 1.349 . S
C5308 C5320 1.349 . S
C5309 C5307 1.327 . S
C5309 C5325 1.429 . S
C5309 H5331 0.950 . S
C5310 H5306 0.949 . S
C5310 C5318 1.574 . S
C5310 C5326 1.368 . S
H5311 C5319 0.950 . S
H5312 C5317 0.950 . S
H5313 C5318 0.949 . S
H5314 C5320 0.950 . S
H5315 C5321 0.950 . S
H5316 C5322 0.949 . S
C5317 H5312 0.950 . S
C5317 C5319 1.327 . S
C5317 C5323 1.429 . S
C5318 C5310 1.574 . S
C5318 H5313 0.949 . S
C5318 C5324 1.368 . S
C5319 C5303 1.349 . S
C5319 H5311 0.950 . S
C5319 C5317 1.327 . S
C5320 C5308 1.349 . S
C5320 H5314 0.950 . S
C5320 C5321 1.327 . S
C5321 H5315 0.950 . S
C5321 C5320 1.327 . S
C5321 C5325 1.429 . S
C5322 C5305 1.574 . S
C5322 H5316 0.949 . S
C5322 C5326 1.368 . S
C5323 C5304 1.429 . S
C5323 C5317 1.429 . S
C5323 C5324 1.523 . S
C5324 C5305 1.368 . S
C5324 C5318 1.368 . S
C5324 C5323 1.523 . S
C5325 C5309 1.429 . S
C5325 C5321 1.429 . S
C5325 C5326 1.523 . S
C5326 C5310 1.368 . S
C5326 C5322 1.368 . S
C5326 C5325 1.523 . S
H5327 C5302 0.950 . S
H5328 C5304 0.950 . S
H5329 C5305 0.949 . S
H5330 C5307 0.950 . S
H5331 C5309 0.950 . S
C5332 C5333 1.349 . S
C5332 C5334 1.327 . S
C5332 H5357 0.950 . S
C5333 C5332 1.349 . S
C5333 C5349 1.349 . S
C5334 C5332 1.327 . S
C5334 C5353 1.429 . S
C5334 H5358 0.950 . S
C5335 C5352 1.574 . S
C5335 C5354 1.368 . S
C5335 H5359 0.949 . S
H5336 C5340 0.949 . S
C5337 C5338 1.349 . S
C5337 C5339 1.363 . S
C5337 H5360 0.950 . S
C5338 C5337 1.349 . S
C5338 C5350 1.349 1_455 S
C5339 C5337 1.363 . S
C5339 C5355 1.385 1_455 S
C5339 H5361 0.960 . S
C5340 H5336 0.949 . S
C5340 C5348 1.574 . S
C5340 C5356 1.368 . S
H5341 C5349 0.950 . S
H5342 C5347 0.950 . S
H5343 C5348 0.949 . S
H5344 C5350 0.950 . S
H5345 C5351 0.950 . S
H5346 C5352 0.949 . S
C5347 H5342 0.950 . S
C5347 C5349 1.327 . S
C5347 C5353 1.429 . S
C5348 C5340 1.574 . S
C5348 H5343 0.949 . S
C5348 C5354 1.368 . S
C5349 C5333 1.349 . S
C5349 H5341 0.950 . S
C5349 C5347 1.327 . S
C5350 C5338 1.349 1_655 S
C5350 H5344 0.950 . S
C5350 C5351 1.327 . S
C5351 H5345 0.950 . S
C5351 C5350 1.327 . S
C5351 C5355 1.429 . S
C5352 C5335 1.574 . S
C5352 H5346 0.949 . S
C5352 C5356 1.368 . S
C5353 C5334 1.429 . S
C5353 C5347 1.429 . S
C5353 C5354 1.523 . S
C5354 C5335 1.368 . S
C5354 C5348 1.368 . S
C5354 C5353 1.523 . S
C5355 C5339 1.385 1_655 S
C5355 C5351 1.429 . S
C5355 C5356 1.523 . S
C5356 C5340 1.368 . S
C5356 C5352 1.368 . S
C5356 C5355 1.523 . S
H5357 C5332 0.950 . S
H5358 C5334 0.950 . S
H5359 C5335 0.949 . S
H5360 C5337 0.950 . S
H5361 C5339 0.960 . S
C5362 C5363 1.349 . S
C5362 C5364 1.327 . S
C5362 H5387 0.950 . S
C5363 C5362 1.349 . S
C5363 C5379 1.349 . S
C5364 C5362 1.327 . S
C5364 C5383 1.429 . S
C5364 H5388 0.950 . S
C5365 C5382 1.574 . S
C5365 C5384 1.368 . S
C5365 H5389 0.949 . S
H5366 C5370 0.949 . S
C5367 C5368 1.349 . S
C5367 C5369 1.327 . S
C5367 H5390 0.950 . S
C5368 C5367 1.349 . S
C5368 C5380 1.349 . S
C5369 C5367 1.327 . S
C5369 C5385 1.429 . S
C5369 H5391 0.950 . S
C5370 H5366 0.949 . S
C5370 C5378 1.574 . S
C5370 C5386 1.368 . S
H5371 C5379 0.950 . S
H5372 C5377 0.950 . S
H5373 C5378 0.949 . S
H5374 C5380 0.950 . S
H5375 C5381 0.950 . S
H5376 C5382 0.949 . S
C5377 H5372 0.950 . S
C5377 C5379 1.327 . S
C5377 C5383 1.429 . S
C5378 C5370 1.574 . S
C5378 H5373 0.949 . S
C5378 C5384 1.368 . S
C5379 C5363 1.349 . S
C5379 H5371 0.950 . S
C5379 C5377 1.327 . S
C5380 C5368 1.349 . S
C5380 H5374 0.950 . S
C5380 C5381 1.327 . S
C5381 H5375 0.950 . S
C5381 C5380 1.327 . S
C5381 C5385 1.429 . S
C5382 C5365 1.574 . S
C5382 H5376 0.949 . S
C5382 C5386 1.368 . S
C5383 C5364 1.429 . S
C5383 C5377 1.429 . S
C5383 C5384 1.523 . S
C5384 C5365 1.368 . S
C5384 C5378 1.368 . S
C5384 C5383 1.523 . S
C5385 C5369 1.429 . S
C5385 C5381 1.429 . S
C5385 C5386 1.523 . S
C5386 C5370 1.368 . S
C5386 C5382 1.368 . S
C5386 C5385 1.523 . S
H5387 C5362 0.950 . S
H5388 C5364 0.950 . S
H5389 C5365 0.949 . S
H5390 C5367 0.950 . S
H5391 C5369 0.950 . S
C5392 C5393 1.349 . S
C5392 C5394 1.327 . S
C5392 H5417 0.950 . S
C5393 C5392 1.349 . S
C5393 C5409 1.349 . S
C5394 C5392 1.327 . S
C5394 C5413 1.429 . S
C5394 H5418 0.950 . S
C5395 C5412 1.574 . S
C5395 C5414 1.368 . S
C5395 H5419 0.949 . S
H5396 C5400 0.949 . S
C5397 C5398 1.349 . S
C5397 C5399 1.327 . S
C5397 H5420 0.950 . S
C5398 C5397 1.349 . S
C5398 C5410 1.349 . S
C5399 C5397 1.327 . S
C5399 C5415 1.429 . S
C5399 H5421 0.950 . S
C5400 H5396 0.949 . S
C5400 C5408 1.574 . S
C5400 C5416 1.368 . S
H5401 C5409 0.950 . S
H5402 C5407 0.950 . S
H5403 C5408 0.949 . S
H5404 C5410 0.950 . S
H5405 C5411 0.950 . S
H5406 C5412 0.949 . S
C5407 H5402 0.950 . S
C5407 C5409 1.327 . S
C5407 C5413 1.429 . S
C5408 C5400 1.574 . S
C5408 H5403 0.949 . S
C5408 C5414 1.368 . S
C5409 C5393 1.349 . S
C5409 H5401 0.950 . S
C5409 C5407 1.327 . S
C5410 C5398 1.349 . S
C5410 H5404 0.950 . S
C5410 C5411 1.327 . S
C5411 H5405 0.950 . S
C5411 C5410 1.327 . S
C5411 C5415 1.429 . S
C5412 C5395 1.574 . S
C5412 H5406 0.949 . S
C5412 C5416 1.368 . S
C5413 C5394 1.429 . S
C5413 C5407 1.429 . S
C5413 C5414 1.523 . S
C5414 C5395 1.368 . S
C5414 C5408 1.368 . S
C5414 C5413 1.523 . S
C5415 C5399 1.429 . S
C5415 C5411 1.429 . S
C5415 C5416 1.523 . S
C5416 C5400 1.368 . S
C5416 C5412 1.368 . S
C5416 C5415 1.523 . S
H5417 C5392 0.950 . S
H5418 C5394 0.950 . S
H5419 C5395 0.949 . S
H5420 C5397 0.950 . S
H5421 C5399 0.950 . S
C5422 C5423 1.349 . S
C5422 C5424 1.327 . S
C5422 H5447 0.950 . S
C5423 C5422 1.349 . S
C5423 C5439 1.349 . S
C5424 C5422 1.327 . S
C5424 C5443 1.429 . S
C5424 H5448 0.950 . S
C5425 C5442 1.574 . S
C5425 C5444 1.368 . S
C5425 H5449 0.949 . S
H5426 C5430 0.949 . S
C5427 C5428 1.349 . S
C5427 C5429 1.327 . S
C5427 H5450 0.950 . S
C5428 C5427 1.349 . S
C5428 C5440 1.349 . S
C5429 C5427 1.327 . S
C5429 C5445 1.429 . S
C5429 H5451 0.950 . S
C5430 H5426 0.949 . S
C5430 C5438 1.574 . S
C5430 C5446 1.368 . S
H5431 C5439 0.950 . S
H5432 C5437 0.950 . S
H5433 C5438 0.949 . S
H5434 C5440 0.950 . S
H5435 C5441 0.950 . S
H5436 C5442 0.949 . S
C5437 H5432 0.950 . S
C5437 C5439 1.327 . S
C5437 C5443 1.429 . S
C5438 C5430 1.574 . S
C5438 H5433 0.949 . S
C5438 C5444 1.368 . S
C5439 C5423 1.349 . S
C5439 H5431 0.950 . S
C5439 C5437 1.327 . S
C5440 C5428 1.349 . S
C5440 H5434 0.950 . S
C5440 C5441 1.327 . S
C5441 H5435 0.950 . S
C5441 C5440 1.327 . S
C5441 C5445 1.429 . S
C5442 C5425 1.574 . S
C5442 H5436 0.949 . S
C5442 C5446 1.368 . S
C5443 C5424 1.429 . S
C5443 C5437 1.429 . S
C5443 C5444 1.523 . S
C5444 C5425 1.368 . S
C5444 C5438 1.368 . S
C5444 C5443 1.523 . S
C5445 C5429 1.429 . S
C5445 C5441 1.429 . S
C5445 C5446 1.523 . S
C5446 C5430 1.368 . S
C5446 C5442 1.368 . S
C5446 C5445 1.523 . S
H5447 C5422 0.950 . S
H5448 C5424 0.950 . S
H5449 C5425 0.949 . S
H5450 C5427 0.950 . S
H5451 C5429 0.950 . S
C5452 C5453 1.349 . S
C5452 C5454 1.327 . S
C5452 H5477 0.950 . S
C5453 C5452 1.349 . S
C5453 C5469 1.349 . S
C5454 C5452 1.327 . S
C5454 C5473 1.429 . S
C5454 H5478 0.950 . S
C5455 C5472 1.574 . S
C5455 C5474 1.368 . S
C5455 H5479 0.949 . S
H5456 C5460 0.949 . S
C5457 C5458 1.349 . S
C5457 C5459 1.327 . S
C5457 H5480 0.950 . S
C5458 C5457 1.349 . S
C5458 C5470 1.349 . S
C5459 C5457 1.327 . S
C5459 C5475 1.429 . S
C5459 H5481 0.950 . S
C5460 H5456 0.949 . S
C5460 C5468 1.574 . S
C5460 C5476 1.368 . S
H5461 C5469 0.950 . S
H5462 C5467 0.950 . S
H5463 C5468 0.949 . S
H5464 C5470 0.950 . S
H5465 C5471 0.950 . S
H5466 C5472 0.949 . S
C5467 H5462 0.950 . S
C5467 C5469 1.327 . S
C5467 C5473 1.429 . S
C5468 C5460 1.574 . S
C5468 H5463 0.949 . S
C5468 C5474 1.368 . S
C5469 C5453 1.349 . S
C5469 H5461 0.950 . S
C5469 C5467 1.327 . S
C5470 C5458 1.349 . S
C5470 H5464 0.950 . S
C5470 C5471 1.327 . S
C5471 H5465 0.950 . S
C5471 C5470 1.327 . S
C5471 C5475 1.429 . S
C5472 C5455 1.574 . S
C5472 H5466 0.949 . S
C5472 C5476 1.368 . S
C5473 C5454 1.429 . S
C5473 C5467 1.429 . S
C5473 C5474 1.523 . S
C5474 C5455 1.368 . S
C5474 C5468 1.368 . S
C5474 C5473 1.523 . S
C5475 C5459 1.429 . S
C5475 C5471 1.429 . S
C5475 C5476 1.523 . S
C5476 C5460 1.368 . S
C5476 C5472 1.368 . S
C5476 C5475 1.523 . S
H5477 C5452 0.950 . S
H5478 C5454 0.950 . S
H5479 C5455 0.949 . S
H5480 C5457 0.950 . S
H5481 C5459 0.950 . S
C5482 C5483 1.349 . S
C5482 C5484 1.327 . S
C5482 H5507 0.950 1_554 S
C5483 C5482 1.349 . S
C5483 C5499 1.349 . S
C5484 C5482 1.327 . S
C5484 C5503 1.429 . S
C5484 H5508 0.950 1_554 S
C5485 C5502 1.574 . S
C5485 C5504 1.368 . S
C5485 H5509 0.949 . S
H5486 C5490 0.949 1_556 S
C5487 C5488 1.349 . S
C5487 C5489 1.327 . S
C5487 H5510 0.950 . S
C5488 C5487 1.349 . S
C5488 C5500 1.349 . S
C5489 C5487 1.327 . S
C5489 C5505 1.429 . S
C5489 H5511 0.950 . S
C5490 H5486 0.949 1_554 S
C5490 C5498 1.574 . S
C5490 C5506 1.368 . S
H5491 C5499 0.950 . S
H5492 C5497 0.950 . S
H5493 C5498 0.949 1_556 S
H5494 C5500 0.950 1_556 S
H5495 C5501 0.950 1_556 S
H5496 C5502 0.949 . S
C5497 H5492 0.950 . S
C5497 C5499 1.327 . S
C5497 C5503 1.429 . S
C5498 C5490 1.574 . S
C5498 H5493 0.949 1_554 S
C5498 C5504 1.368 . S
C5499 C5483 1.349 . S
C5499 H5491 0.950 . S
C5499 C5497 1.327 . S
C5500 C5488 1.349 . S
C5500 H5494 0.950 1_554 S
C5500 C5501 1.327 . S
C5501 H5495 0.950 1_554 S
C5501 C5500 1.327 . S
C5501 C5505 1.429 . S
C5502 C5485 1.574 . S
C5502 H5496 0.949 . S
C5502 C5506 1.368 . S
C5503 C5484 1.429 . S
C5503 C5497 1.429 . S
C5503 C5504 1.523 . S
C5504 C5485 1.368 . S
C5504 C5498 1.368 . S
C5504 C5503 1.523 . S
C5505 C5489 1.429 . S
C5505 C5501 1.429 . S
C5505 C5506 1.523 . S
C5506 C5490 1.368 . S
C5506 C5502 1.368 . S
C5506 C5505 1.523 . S
H5507 C5482 0.950 1_556 S
H5508 C5484 0.950 1_556 S
H5509 C5485 0.949 . S
H5510 C5487 0.950 . S
H5511 C5489 0.950 . S
C5512 C5513 1.349 . S
C5512 C5514 1.327 . S
C5512 H5537 0.950 . S
C5513 C5512 1.349 . S
C5513 C5529 1.349 . S
C5514 C5512 1.327 . S
C5514 C5533 1.429 . S
C5514 H5538 0.950 . S
C5515 C5532 1.574 . S
C5515 C5534 1.368 . S
C5515 H5539 0.949 . S
H5516 C5520 0.949 . S
C5517 C5518 1.349 . S
C5517 C5519 1.327 . S
C5517 H5540 0.950 . S
C5518 C5517 1.349 . S
C5518 C5530 1.349 . S
C5519 C5517 1.327 . S
C5519 C5535 1.429 . S
C5519 H5541 0.950 . S
C5520 H5516 0.949 . S
C5520 C5528 1.574 . S
C5520 C5536 1.368 . S
H5521 C5529 0.950 . S
H5522 C5527 0.950 . S
H5523 C5528 0.949 . S
H5524 C5530 0.950 . S
H5525 C5531 0.950 . S
H5526 C5532 0.949 . S
C5527 H5522 0.950 . S
C5527 C5529 1.327 . S
C5527 C5533 1.429 . S
C5528 C5520 1.574 . S
C5528 H5523 0.949 . S
C5528 C5534 1.368 . S
C5529 C5513 1.349 . S
C5529 H5521 0.950 . S
C5529 C5527 1.327 . S
C5530 C5518 1.349 . S
C5530 H5524 0.950 . S
C5530 C5531 1.327 . S
C5531 H5525 0.950 . S
C5531 C5530 1.327 . S
C5531 C5535 1.429 . S
C5532 C5515 1.574 . S
C5532 H5526 0.949 . S
C5532 C5536 1.368 . S
C5533 C5514 1.429 . S
C5533 C5527 1.429 . S
C5533 C5534 1.523 . S
C5534 C5515 1.368 . S
C5534 C5528 1.368 . S
C5534 C5533 1.523 . S
C5535 C5519 1.429 . S
C5535 C5531 1.429 . S
C5535 C5536 1.523 . S
C5536 C5520 1.368 . S
C5536 C5532 1.368 . S
C5536 C5535 1.523 . S
H5537 C5512 0.950 . S
H5538 C5514 0.950 . S
H5539 C5515 0.949 . S
H5540 C5517 0.950 . S
H5541 C5519 0.950 . S
C5542 C5543 1.349 . S
C5542 C5544 1.327 1_554 S
C5542 H5567 0.950 1_554 S
C5543 C5542 1.349 . S
C5543 C5559 1.349 . S
C5544 C5542 1.327 1_556 S
C5544 C5563 1.429 1_556 S
C5544 H5568 0.950 . S
C5545 C5562 1.574 . S
C5545 C5564 1.368 . S
C5545 H5569 0.949 . S
H5546 C5550 0.949 . S
C5547 C5548 1.349 1_554 S
C5547 C5549 1.327 . S
C5547 H5570 0.950 . S
C5548 C5547 1.349 1_556 S
C5548 C5560 1.349 . S
C5549 C5547 1.327 . S
C5549 C5565 1.411 1_554 S
C5549 H5571 0.950 . S
C5550 H5546 0.949 . S
C5550 C5558 1.574 . S
C5550 C5566 1.368 1_556 S
H5551 C5559 0.950 . S
H5552 C5557 0.950 . S
H5553 C5558 0.949 . S
H5554 C5560 0.950 . S
H5555 C5561 0.950 . S
H5556 C5562 0.949 . S
C5557 H5552 0.950 . S
C5557 C5559 1.327 . S
C5557 C5563 1.429 . S
C5558 C5550 1.574 . S
C5558 H5553 0.949 . S
C5558 C5564 1.368 1_556 S
C5559 C5543 1.349 . S
C5559 H5551 0.950 . S
C5559 C5557 1.327 . S
C5560 C5548 1.349 . S
C5560 H5554 0.950 . S
C5560 C5561 1.327 . S
C5561 H5555 0.950 . S
C5561 C5560 1.327 . S
C5561 C5565 1.450 . S
C5562 C5545 1.574 . S
C5562 H5556 0.949 . S
C5562 C5566 1.368 . S
C5563 C5544 1.429 1_554 S
C5563 C5557 1.429 . S
C5563 C5564 1.523 . S
C5564 C5545 1.368 . S
C5564 C5558 1.368 1_554 S
C5564 C5563 1.523 . S
C5565 C5549 1.411 1_556 S
C5565 C5561 1.450 . S
C5565 C5566 1.521 1_556 S
C5566 C5550 1.368 1_554 S
C5566 C5562 1.368 . S
C5566 C5565 1.521 1_554 S
H5567 C5542 0.950 1_556 S
H5568 C5544 0.950 . S
H5569 C5545 0.949 . S
H5570 C5547 0.950 . S
H5571 C5549 0.950 . S
C5572 C5573 1.349 . S
C5572 C5574 1.327 . S
C5572 H5597 0.950 . S
C5573 C5572 1.349 . S
C5573 C5589 1.349 . S
C5574 C5572 1.327 . S
C5574 C5593 1.429 . S
C5574 H5598 0.950 . S
C5575 C5592 1.574 . S
C5575 C5594 1.368 . S
C5575 H5599 0.949 . S
H5576 C5580 0.949 . S
C5577 C5578 1.349 . S
C5577 C5579 1.327 . S
C5577 H5600 0.950 . S
C5578 C5577 1.349 . S
C5578 C5590 1.349 . S
C5579 C5577 1.327 . S
C5579 C5595 1.429 . S
C5579 H5601 0.950 . S
C5580 H5576 0.949 . S
C5580 C5588 1.574 . S
C5580 C5596 1.368 . S
H5581 C5589 0.950 . S
H5582 C5587 0.950 . S
H5583 C5588 0.949 . S
H5584 C5590 0.950 . S
H5585 C5591 0.950 . S
H5586 C5592 0.949 . S
C5587 H5582 0.950 . S
C5587 C5589 1.327 . S
C5587 C5593 1.429 . S
C5588 C5580 1.574 . S
C5588 H5583 0.949 . S
C5588 C5594 1.368 . S
C5589 C5573 1.349 . S
C5589 H5581 0.950 . S
C5589 C5587 1.327 . S
C5590 C5578 1.349 . S
C5590 H5584 0.950 . S
C5590 C5591 1.327 . S
C5591 H5585 0.950 . S
C5591 C5590 1.327 . S
C5591 C5595 1.429 . S
C5592 C5575 1.574 . S
C5592 H5586 0.949 . S
C5592 C5596 1.368 . S
C5593 C5574 1.429 . S
C5593 C5587 1.429 . S
C5593 C5594 1.523 . S
C5594 C5575 1.368 . S
C5594 C5588 1.368 . S
C5594 C5593 1.523 . S
C5595 C5579 1.429 . S
C5595 C5591 1.429 . S
C5595 C5596 1.523 . S
C5596 C5580 1.368 . S
C5596 C5592 1.368 . S
C5596 C5595 1.523 . S
H5597 C5572 0.950 . S
H5598 C5574 0.950 . S
H5599 C5575 0.949 . S
H5600 C5577 0.950 . S
H5601 C5579 0.950 . S
C5602 C5603 1.349 . S
C5602 C5604 1.327 . S
C5602 H5627 0.950 . S
C5603 C5602 1.349 . S
C5603 C5619 1.349 . S
C5604 C5602 1.327 . S
C5604 C5623 1.429 . S
C5604 H5628 0.950 . S
C5605 C5622 1.574 . S
C5605 C5624 1.368 . S
C5605 H5629 0.949 . S
H5606 C5610 0.949 . S
C5607 C5608 1.349 . S
C5607 C5609 1.327 . S
C5607 H5630 0.950 . S
C5608 C5607 1.349 . S
C5608 C5620 1.349 . S
C5609 C5607 1.327 . S
C5609 C5625 1.429 . S
C5609 H5631 0.950 . S
C5610 H5606 0.949 . S
C5610 C5618 1.574 . S
C5610 C5626 1.368 . S
H5611 C5619 0.950 . S
H5612 C5617 0.950 . S
H5613 C5618 0.949 . S
H5614 C5620 0.950 . S
H5615 C5621 0.950 . S
H5616 C5622 0.949 . S
C5617 H5612 0.950 . S
C5617 C5619 1.327 . S
C5617 C5623 1.429 . S
C5618 C5610 1.574 . S
C5618 H5613 0.949 . S
C5618 C5624 1.368 . S
C5619 C5603 1.349 . S
C5619 H5611 0.950 . S
C5619 C5617 1.327 . S
C5620 C5608 1.349 . S
C5620 H5614 0.950 . S
C5620 C5621 1.327 . S
C5621 H5615 0.950 . S
C5621 C5620 1.327 . S
C5621 C5625 1.429 . S
C5622 C5605 1.574 . S
C5622 H5616 0.949 . S
C5622 C5626 1.368 . S
C5623 C5604 1.429 . S
C5623 C5617 1.429 . S
C5623 C5624 1.523 . S
C5624 C5605 1.368 . S
C5624 C5618 1.368 . S
C5624 C5623 1.523 . S
C5625 C5609 1.429 . S
C5625 C5621 1.429 . S
C5625 C5626 1.523 . S
C5626 C5610 1.368 . S
C5626 C5622 1.368 . S
C5626 C5625 1.523 . S
H5627 C5602 0.950 . S
H5628 C5604 0.950 . S
H5629 C5605 0.949 . S
H5630 C5607 0.950 . S
H5631 C5609 0.950 . S
C2753 C665 2.175 . S
C2758 C2122 2.154 . S
C2783 C381 1.955 . S
C2788 C2170 1.936 . S
C2813 C460 0.991 . S
C2818 C2202 1.002 . S
C2848 C2247 1.520 . S
C2843 C585 1.540 . S
C2873 C108 0.833 . S
C2878 C2287 0.832 . S
C2908 C2322 0.602 . S
C2903 C196 0.610 . S
C2938 C2361 1.039 . S
C2933 C313 1.052 . S
C2963 C49 1.121 . S
C2968 C2398 1.128 . S
C2998 C2130 1.861 . S
C2993 C1457 1.882 . S
C3023 C1545 0.565 . S
C3028 C2167 0.626 . S
C3058 C2210 2.487 . S
C3053 C1721 2.511 . S
C3088 C2242 0.906 . S
C3083 C1113 0.899 . S
C3113 C1428 1.006 . S
C3118 C2282 1.015 . S
C3148 C2330 0.663 . S
C3143 C1516 0.659 . S
C3178 C2371 1.598 . S
C3173 C1692 1.668 . S
C3208 C2401 1.855 . S
C3203 C1085 1.873 . S
C3238 C2127 0.954 . S
C3233 C988 0.962 . S
C3263 C1817 2.155 . S
C3268 C2450 2.118 . S
C3298 C2487 1.073 . S
C3293 C2081 1.081 . S
C3328 C2518 0.257 . S
C3323 C1993 0.129 . S
C3353 C761 2.813 . S
C3358 C2411 2.766 . S
C3383 C821 1.333 . S
C3388 C2207 1.321 . S
C3413 C2053 1.761 . S
C3418 C2570 1.741 . S
C3448 C2602 1.655 . S
C3443 C1868 1.641 . S
C3478 C2131 2.150 . S
C3473 C372 2.174 . S
C3508 C2601 1.931 . S
C3503 C645 1.948 . S
C3533 C577 0.985 . S
C3538 C2211 0.996 . S
C3563 C497 1.538 . S
C3568 C2558 1.517 . S
C3598 C2278 0.829 . S
C3593 C57 0.830 . S
C3623 C293 0.601 . S
C3628 C2491 0.594 . S
C3658 C2370 1.031 1_556 S
C3653 C205 1.049 . S
C3688 C2647 1.124 . S
C3683 C145 1.118 . S
C3718 C2121 1.857 . S
C3713 C909 1.879 . S
C3748 C2598 0.631 . S
C3743 C1956 0.555 . S
C3773 C724 2.512 . S
C3778 C2201 2.484 . S
C3803 C1780 0.893 . S
C3808 C2571 0.900 . S
C3833 C937 1.000 . S
C3838 C2291 1.008 . S
C3868 C2481 0.657 . S
C3863 C1985 0.654 . S
C3893 C753 1.664 . S
C3898 C2362 1.592 . S
C3923 C1809 1.871 . S
C3928 C2650 1.852 . S
C3953 C1173 0.966 . S
C3958 C2118 0.954 . S
C3983 C1105 2.148 . S
C3988 C2441 2.114 . S
C4013 C1633 1.079 . S
C4018 C2318 1.070 . S
C4043 C1553 0.116 . S
C4048 C2527 0.261 . S
C4078 C2642 2.763 . S
C4073 C1729 2.809 . S
C4103 C1340 1.331 . S
C4108 C2198 1.318 . S
C4138 C2241 1.738 . S
C4133 C1604 1.755 . S
C4168 C2171 1.648 . S
C4163 C1252 1.638 . S
C4193 C489 2.175 . S
C4198 C2682 2.154 . S
C4228 C2610 1.936 . S
C4223 C557 1.955 . S
C4253 C636 0.991 . S
C4258 C2722 1.002 . S
C4283 C409 1.540 . S
C4288 C2567 1.520 . S
C4313 C284 0.833 . S
C4318 C2447 0.832 . S
C4348 C2482 0.602 . S
C4343 C20 0.610 . S
C4378 C2521 1.039 . S
C4373 C137 1.052 . S
C4408 C2638 1.128 . S
C4403 C225 1.121 . S
C4438 C2690 1.861 . S
C4433 C1641 1.882 . S
C4463 C1193 0.565 . S
C4468 C2607 0.626 . S
C4498 C2730 2.488 . S
C4493 C1289 2.519 . S
C4528 C2562 0.906 . S
C4523 C1377 0.899 . S
C4558 C2442 1.014 . S
C4553 C1613 1.005 . S
C4583 C1164 0.659 . S
C4588 C2490 0.662 . S
C4618 C2531 1.597 . S
C4613 C1261 1.668 . S
C4643 C1349 1.873 . S
C4648 C2641 1.855 . S
C4678 C2687 0.955 . S
C4673 C1965 0.965 . S
C4703 C849 2.155 . S
C4708 C2290 2.118 . S
C4738 C2327 1.073 . S
C4733 C929 1.080 . S
C4768 C2358 0.257 . S
C4763 C1017 0.122 . S
C4798 C2651 2.766 . S
C4793 C1897 2.813 . S
C4823 C1789 1.333 . S
C4828 C2727 1.321 . S
C4858 C2250 1.741 . S
C4853 C900 1.760 . S
C4888 C2162 1.655 . S
C4883 C733 1.641 . S
C4913 C548 2.174 . S
C4918 C2691 2.151 . S
C4948 C2161 1.931 . S
C4943 C469 1.947 . S
C4973 C401 0.986 . S
C4978 C2731 0.996 . S
C5003 C673 1.537 . S
C5008 C2238 1.516 . S
C5033 C233 0.829 . S
C5038 C2438 0.828 . S
C5068 C2331 0.594 . S
C5063 C117 0.602 . S
C5093 C29 1.049 . S
C5098 C2530 1.036 . S
C5123 C321 1.118 . S
C5128 C2407 1.124 . S
C5158 C2681 1.857 . S
C5153 C2044 1.879 . S
C5183 C997 0.556 . S
C5188 C2158 0.636 . S
C5218 C2721 2.484 . S
C5213 C1877 2.513 . S
C5243 C812 0.893 . S
C5248 C2251 0.899 . S
C5273 C2073 1.000 . S
C5278 C2451 1.007 . S
C5308 C2321 0.658 . S
C5303 C1025 0.662 . S
C5333 C1905 1.664 . S
C5338 C2522 1.592 . S
C5368 C2410 1.852 . S
C5363 C841 1.871 . S
C5398 C2678 0.954 . S
C5393 C1525 0.966 . S
C5428 C2281 2.114 1_565 S
C5423 C1369 2.148 . S
C5453 C1465 1.078 . S
C5458 C2478 1.070 . S
C5488 C2367 0.261 . S
C5483 C1201 0.116 . S
C5513 C1281 2.809 . S
C5518 C2402 2.763 . S
C5543 C1076 1.331 . S
C5548 C2718 1.318 . S
C5578 C2561 1.738 . S
C5573 C1437 1.755 . S
C5608 C2611 1.648 . S
C5603 C1701 1.638 . S
