# Generated by pormake.
# Topology gar, (4,6)-cn, num edge types: 1
# Building blocks:
#     Node 0, Type 0, BuildingBlock: TATPOV_clean_sbu_0, # of connection points: 4
#     Node 1, Type 0, BuildingBlock: TATPOV_clean_sbu_0, # of connection points: 4
#     Node 2, Type 0, BuildingBlock: TATPOV_clean_sbu_0, # of connection points: 4
#     Node 3, Type 0, BuildingBlock: TATPOV_clean_sbu_0, # of connection points: 4
#     Node 4, Type 0, BuildingBlock: TATPOV_clean_sbu_0, # of connection points: 4
#     Node 5, Type 0, BuildingBlock: TATPOV_clean_sbu_0, # of connection points: 4
#     Node 6, Type 0, BuildingBlock: TATPOV_clean_sbu_0, # of connection points: 4
#     Node 7, Type 0, BuildingBlock: TATPOV_clean_sbu_0, # of connection points: 4
#     Node 8, Type 0, BuildingBlock: TATPOV_clean_sbu_0, # of connection points: 4
#     Node 9, Type 0, BuildingBlock: TATPOV_clean_sbu_0, # of connection points: 4
#     Node 10, Type 0, BuildingBlock: TATPOV_clean_sbu_0, # of connection points: 4
#     Node 11, Type 0, BuildingBlock: TATPOV_clean_sbu_0, # of connection points: 4
#     Node 12, Type 0, BuildingBlock: TATPOV_clean_sbu_0, # of connection points: 4
#     Node 13, Type 0, BuildingBlock: TATPOV_clean_sbu_0, # of connection points: 4
#     Node 14, Type 0, BuildingBlock: TATPOV_clean_sbu_0, # of connection points: 4
#     Node 15, Type 0, BuildingBlock: TATPOV_clean_sbu_0, # of connection points: 4
#     Node 16, Type 0, BuildingBlock: TATPOV_clean_sbu_0, # of connection points: 4
#     Node 17, Type 0, BuildingBlock: TATPOV_clean_sbu_0, # of connection points: 4
#     Node 18, Type 0, BuildingBlock: TATPOV_clean_sbu_0, # of connection points: 4
#     Node 19, Type 0, BuildingBlock: TATPOV_clean_sbu_0, # of connection points: 4
#     Node 20, Type 0, BuildingBlock: TATPOV_clean_sbu_0, # of connection points: 4
#     Node 21, Type 0, BuildingBlock: TATPOV_clean_sbu_0, # of connection points: 4
#     Node 22, Type 0, BuildingBlock: TATPOV_clean_sbu_0, # of connection points: 4
#     Node 23, Type 0, BuildingBlock: TATPOV_clean_sbu_0, # of connection points: 4
#     Node 24, Type 1, BuildingBlock: PAMTOO_clean_sbu_0, # of connection points: 6
#     Node 25, Type 1, BuildingBlock: PAMTOO_clean_sbu_0, # of connection points: 6
#     Node 26, Type 1, BuildingBlock: PAMTOO_clean_sbu_0, # of connection points: 6
#     Node 27, Type 1, BuildingBlock: PAMTOO_clean_sbu_0, # of connection points: 6
#     Node 28, Type 1, BuildingBlock: PAMTOO_clean_sbu_0, # of connection points: 6
#     Node 29, Type 1, BuildingBlock: PAMTOO_clean_sbu_0, # of connection points: 6
#     Node 30, Type 1, BuildingBlock: PAMTOO_clean_sbu_0, # of connection points: 6
#     Node 31, Type 1, BuildingBlock: PAMTOO_clean_sbu_0, # of connection points: 6
#     Node 32, Type 1, BuildingBlock: PAMTOO_clean_sbu_0, # of connection points: 6
#     Node 33, Type 1, BuildingBlock: PAMTOO_clean_sbu_0, # of connection points: 6
#     Node 34, Type 1, BuildingBlock: PAMTOO_clean_sbu_0, # of connection points: 6
#     Node 35, Type 1, BuildingBlock: PAMTOO_clean_sbu_0, # of connection points: 6
#     Node 36, Type 1, BuildingBlock: PAMTOO_clean_sbu_0, # of connection points: 6
#     Node 37, Type 1, BuildingBlock: PAMTOO_clean_sbu_0, # of connection points: 6
#     Node 38, Type 1, BuildingBlock: PAMTOO_clean_sbu_0, # of connection points: 6
#     Node 39, Type 1, BuildingBlock: PAMTOO_clean_sbu_0, # of connection points: 6
#     Edge 40, Type (0, 1), BuildingBlock: XUDNAN_clean_linker_2, # of connection points: 2
#     Edge 41, Type (0, 1), BuildingBlock: XUDNAN_clean_linker_2, # of connection points: 2
#     Edge 42, Type (0, 1), BuildingBlock: XUDNAN_clean_linker_2, # of connection points: 2
#     Edge 43, Type (0, 1), BuildingBlock: XUDNAN_clean_linker_2, # of connection points: 2
#     Edge 44, Type (0, 1), BuildingBlock: XUDNAN_clean_linker_2, # of connection points: 2
#     Edge 45, Type (0, 1), BuildingBlock: XUDNAN_clean_linker_2, # of connection points: 2
#     Edge 46, Type (0, 1), BuildingBlock: XUDNAN_clean_linker_2, # of connection points: 2
#     Edge 47, Type (0, 1), BuildingBlock: XUDNAN_clean_linker_2, # of connection points: 2
#     Edge 48, Type (0, 1), BuildingBlock: XUDNAN_clean_linker_2, # of connection points: 2
#     Edge 49, Type (0, 1), BuildingBlock: XUDNAN_clean_linker_2, # of connection points: 2
#     Edge 50, Type (0, 1), BuildingBlock: XUDNAN_clean_linker_2, # of connection points: 2
#     Edge 51, Type (0, 1), BuildingBlock: XUDNAN_clean_linker_2, # of connection points: 2
#     Edge 52, Type (0, 1), BuildingBlock: XUDNAN_clean_linker_2, # of connection points: 2
#     Edge 53, Type (0, 1), BuildingBlock: XUDNAN_clean_linker_2, # of connection points: 2
#     Edge 54, Type (0, 1), BuildingBlock: XUDNAN_clean_linker_2, # of connection points: 2
#     Edge 55, Type (0, 1), BuildingBlock: XUDNAN_clean_linker_2, # of connection points: 2
#     Edge 56, Type (0, 1), BuildingBlock: XUDNAN_clean_linker_2, # of connection points: 2
#     Edge 57, Type (0, 1), BuildingBlock: XUDNAN_clean_linker_2, # of connection points: 2
#     Edge 58, Type (0, 1), BuildingBlock: XUDNAN_clean_linker_2, # of connection points: 2
#     Edge 59, Type (0, 1), BuildingBlock: XUDNAN_clean_linker_2, # of connection points: 2
#     Edge 60, Type (0, 1), BuildingBlock: XUDNAN_clean_linker_2, # of connection points: 2
#     Edge 61, Type (0, 1), BuildingBlock: XUDNAN_clean_linker_2, # of connection points: 2
#     Edge 62, Type (0, 1), BuildingBlock: XUDNAN_clean_linker_2, # of connection points: 2
#     Edge 63, Type (0, 1), BuildingBlock: XUDNAN_clean_linker_2, # of connection points: 2
#     Edge 64, Type (0, 1), BuildingBlock: XUDNAN_clean_linker_2, # of connection points: 2
#     Edge 65, Type (0, 1), BuildingBlock: XUDNAN_clean_linker_2, # of connection points: 2
#     Edge 66, Type (0, 1), BuildingBlock: XUDNAN_clean_linker_2, # of connection points: 2
#     Edge 67, Type (0, 1), BuildingBlock: XUDNAN_clean_linker_2, # of connection points: 2
#     Edge 68, Type (0, 1), BuildingBlock: XUDNAN_clean_linker_2, # of connection points: 2
#     Edge 69, Type (0, 1), BuildingBlock: XUDNAN_clean_linker_2, # of connection points: 2
#     Edge 70, Type (0, 1), BuildingBlock: XUDNAN_clean_linker_2, # of connection points: 2
#     Edge 71, Type (0, 1), BuildingBlock: XUDNAN_clean_linker_2, # of connection points: 2
#     Edge 72, Type (0, 1), BuildingBlock: XUDNAN_clean_linker_2, # of connection points: 2
#     Edge 73, Type (0, 1), BuildingBlock: XUDNAN_clean_linker_2, # of connection points: 2
#     Edge 74, Type (0, 1), BuildingBlock: XUDNAN_clean_linker_2, # of connection points: 2
#     Edge 75, Type (0, 1), BuildingBlock: XUDNAN_clean_linker_2, # of connection points: 2
#     Edge 76, Type (0, 1), BuildingBlock: XUDNAN_clean_linker_2, # of connection points: 2
#     Edge 77, Type (0, 1), BuildingBlock: XUDNAN_clean_linker_2, # of connection points: 2
#     Edge 78, Type (0, 1), BuildingBlock: XUDNAN_clean_linker_2, # of connection points: 2
#     Edge 79, Type (0, 1), BuildingBlock: XUDNAN_clean_linker_2, # of connection points: 2
#     Edge 80, Type (0, 1), BuildingBlock: XUDNAN_clean_linker_2, # of connection points: 2
#     Edge 81, Type (0, 1), BuildingBlock: XUDNAN_clean_linker_2, # of connection points: 2
#     Edge 82, Type (0, 1), BuildingBlock: XUDNAN_clean_linker_2, # of connection points: 2
#     Edge 83, Type (0, 1), BuildingBlock: XUDNAN_clean_linker_2, # of connection points: 2
#     Edge 84, Type (0, 1), BuildingBlock: XUDNAN_clean_linker_2, # of connection points: 2
#     Edge 85, Type (0, 1), BuildingBlock: XUDNAN_clean_linker_2, # of connection points: 2
#     Edge 86, Type (0, 1), BuildingBlock: XUDNAN_clean_linker_2, # of connection points: 2
#     Edge 87, Type (0, 1), BuildingBlock: XUDNAN_clean_linker_2, # of connection points: 2
#     Edge 88, Type (0, 1), BuildingBlock: XUDNAN_clean_linker_2, # of connection points: 2
#     Edge 89, Type (0, 1), BuildingBlock: XUDNAN_clean_linker_2, # of connection points: 2
#     Edge 90, Type (0, 1), BuildingBlock: XUDNAN_clean_linker_2, # of connection points: 2
#     Edge 91, Type (0, 1), BuildingBlock: XUDNAN_clean_linker_2, # of connection points: 2
#     Edge 92, Type (0, 1), BuildingBlock: XUDNAN_clean_linker_2, # of connection points: 2
#     Edge 93, Type (0, 1), BuildingBlock: XUDNAN_clean_linker_2, # of connection points: 2
#     Edge 94, Type (0, 1), BuildingBlock: XUDNAN_clean_linker_2, # of connection points: 2
#     Edge 95, Type (0, 1), BuildingBlock: XUDNAN_clean_linker_2, # of connection points: 2
#     Edge 96, Type (0, 1), BuildingBlock: XUDNAN_clean_linker_2, # of connection points: 2
#     Edge 97, Type (0, 1), BuildingBlock: XUDNAN_clean_linker_2, # of connection points: 2
#     Edge 98, Type (0, 1), BuildingBlock: XUDNAN_clean_linker_2, # of connection points: 2
#     Edge 99, Type (0, 1), BuildingBlock: XUDNAN_clean_linker_2, # of connection points: 2
#     Edge 100, Type (0, 1), BuildingBlock: XUDNAN_clean_linker_2, # of connection points: 2
#     Edge 101, Type (0, 1), BuildingBlock: XUDNAN_clean_linker_2, # of connection points: 2
#     Edge 102, Type (0, 1), BuildingBlock: XUDNAN_clean_linker_2, # of connection points: 2
#     Edge 103, Type (0, 1), BuildingBlock: XUDNAN_clean_linker_2, # of connection points: 2
#     Edge 104, Type (0, 1), BuildingBlock: XUDNAN_clean_linker_2, # of connection points: 2
#     Edge 105, Type (0, 1), BuildingBlock: XUDNAN_clean_linker_2, # of connection points: 2
#     Edge 106, Type (0, 1), BuildingBlock: XUDNAN_clean_linker_2, # of connection points: 2
#     Edge 107, Type (0, 1), BuildingBlock: XUDNAN_clean_linker_2, # of connection points: 2
#     Edge 108, Type (0, 1), BuildingBlock: XUDNAN_clean_linker_2, # of connection points: 2
#     Edge 109, Type (0, 1), BuildingBlock: XUDNAN_clean_linker_2, # of connection points: 2
#     Edge 110, Type (0, 1), BuildingBlock: XUDNAN_clean_linker_2, # of connection points: 2
#     Edge 111, Type (0, 1), BuildingBlock: XUDNAN_clean_linker_2, # of connection points: 2
#     Edge 112, Type (0, 1), BuildingBlock: XUDNAN_clean_linker_2, # of connection points: 2
#     Edge 113, Type (0, 1), BuildingBlock: XUDNAN_clean_linker_2, # of connection points: 2
#     Edge 114, Type (0, 1), BuildingBlock: XUDNAN_clean_linker_2, # of connection points: 2
#     Edge 115, Type (0, 1), BuildingBlock: XUDNAN_clean_linker_2, # of connection points: 2
#     Edge 116, Type (0, 1), BuildingBlock: XUDNAN_clean_linker_2, # of connection points: 2
#     Edge 117, Type (0, 1), BuildingBlock: XUDNAN_clean_linker_2, # of connection points: 2
#     Edge 118, Type (0, 1), BuildingBlock: XUDNAN_clean_linker_2, # of connection points: 2
#     Edge 119, Type (0, 1), BuildingBlock: XUDNAN_clean_linker_2, # of connection points: 2
#     Edge 120, Type (0, 1), BuildingBlock: XUDNAN_clean_linker_2, # of connection points: 2
#     Edge 121, Type (0, 1), BuildingBlock: XUDNAN_clean_linker_2, # of connection points: 2
#     Edge 122, Type (0, 1), BuildingBlock: XUDNAN_clean_linker_2, # of connection points: 2
#     Edge 123, Type (0, 1), BuildingBlock: XUDNAN_clean_linker_2, # of connection points: 2
#     Edge 124, Type (0, 1), BuildingBlock: XUDNAN_clean_linker_2, # of connection points: 2
#     Edge 125, Type (0, 1), BuildingBlock: XUDNAN_clean_linker_2, # of connection points: 2
#     Edge 126, Type (0, 1), BuildingBlock: XUDNAN_clean_linker_2, # of connection points: 2
#     Edge 127, Type (0, 1), BuildingBlock: XUDNAN_clean_linker_2, # of connection points: 2
#     Edge 128, Type (0, 1), BuildingBlock: XUDNAN_clean_linker_2, # of connection points: 2
#     Edge 129, Type (0, 1), BuildingBlock: XUDNAN_clean_linker_2, # of connection points: 2
#     Edge 130, Type (0, 1), BuildingBlock: XUDNAN_clean_linker_2, # of connection points: 2
#     Edge 131, Type (0, 1), BuildingBlock: XUDNAN_clean_linker_2, # of connection points: 2
#     Edge 132, Type (0, 1), BuildingBlock: XUDNAN_clean_linker_2, # of connection points: 2
#     Edge 133, Type (0, 1), BuildingBlock: XUDNAN_clean_linker_2, # of connection points: 2
#     Edge 134, Type (0, 1), BuildingBlock: XUDNAN_clean_linker_2, # of connection points: 2
#     Edge 135, Type (0, 1), BuildingBlock: XUDNAN_clean_linker_2, # of connection points: 2
# Relax obj value: 0.162
# Max RMSD: 0.271
# Mean RMSD: 0.176
data_MOF--net-gar--node1-TATPOV_clean_sbu_0--node2-PAMTOO_clean_sbu_0--edge1-XUDNAN_clean_linker_2
_symmetry_space_group_name_H-M    P1
_symmetry_Int_Tables_number       1
_symmetry_cell_setting            triclinic
loop_
_symmetry_equiv_pos_as_xyz
'x, y, z'
_cell_length_a     59.532715
_cell_length_b     59.700685
_cell_length_c     57.982979
_cell_angle_alpha  97.101566
_cell_angle_beta   96.730888
_cell_angle_gamma 107.37635
loop_
_atom_site_label
_atom_site_type_symbol
_atom_site_fract_x
_atom_site_fract_y
_atom_site_fract_z
_atom_type_partial_charge
Zn0 Zn 0.02136 0.31401 0.37834 0.0
Zn1 Zn 0.05688 0.32951 0.36223 0.0
O2 O 0.06106 0.36225 0.3858 0.0
O3 O 0.02978 0.34407 0.40075 0.0
O4 O 0.08944 0.32973 0.34857 0.0
O5 O 0.02156 0.28525 0.39053 0.0
O6 O 0.05758 0.30187 0.383 0.0
C7 C 0.04662 0.36286 0.40055 0.0
C8 C 1.00276 0.31742 0.3355 0.0
O9 O 0.02543 0.3246 0.33466 0.0
O10 O 0.99573 0.31025 0.35368 0.0
C11 C 0.09815 0.32959 0.32922 0.0
O12 O 0.08527 0.33137 0.30995 0.0
C13 C 0.04299 0.28596 0.39182 0.0
Zn14 Zn 0.01353 0.72892 0.72068 0.0
Zn15 Zn 0.02396 0.76509 0.69622 0.0
O16 O 0.99428 0.76867 0.71152 0.0
O17 O 0.98455 0.73914 0.73139 0.0
O18 O 0.03322 0.79393 0.67962 0.0
O19 O 0.04893 0.74101 0.73803 0.0
O20 O 0.0562 0.77072 0.71808 0.0
C21 C 0.98052 0.75722 0.72452 0.0
C22 C 0.01316 0.71325 0.6707 0.0
O23 O 0.01788 0.73551 0.67006 0.0
O24 O 0.00959 0.70567 0.6899 0.0
C25 C 0.02286 0.7966 0.66015 0.0
O26 O 1.00392 0.77945 0.64873 0.0
C27 C 0.06359 0.75925 0.73279 0.0
Zn28 Zn 0.52855 0.83134 0.89014 0.0
Zn29 Zn 0.55636 0.8334 0.86077 0.0
O30 O 0.56578 0.86983 0.88062 0.0
O31 O 0.54157 0.86403 0.90683 0.0
O32 O 0.58425 0.82892 0.84111 0.0
O33 O 0.53235 0.80614 0.90712 0.0
O34 O 0.55457 0.8042 0.87973 0.0
C35 C 0.55755 0.87809 0.89831 0.0
C36 C 0.50179 0.82336 0.84394 0.0
O37 O 0.52252 0.82673 0.83773 0.0
O38 O 0.50006 0.82385 0.8655 0.0
C39 C 0.60707 0.83917 0.84497 0.0
O40 O 0.61618 0.85756 0.862 0.0
C41 C 0.54517 0.79599 0.89703 0.0
Zn42 Zn 0.52003 0.23871 0.2282 0.0
Zn43 Zn 0.52065 0.26469 0.19467 0.0
O44 O 0.49169 0.26864 0.21237 0.0
O45 O 0.49352 0.24904 0.24181 0.0
O46 O 0.52497 0.29034 0.17331 0.0
O47 O 0.55564 0.25343 0.24247 0.0
O48 O 0.556 0.27179 0.21188 0.0
C49 C 0.48364 0.26153 0.23069 0.0
C50 C 0.51119 0.212 0.17897 0.0
O51 O 0.51309 0.23212 0.17262 0.0
O52 O 0.51236 0.21041 0.20074 0.0
C53 C 0.53036 0.28652 0.15289 0.0
O54 O 0.53242 0.26566 0.14545 0.0
C55 C 0.56735 0.26653 0.22951 0.0
Zn56 Zn 0.10116 0.81322 0.08526 0.0
Zn57 Zn 0.06991 0.81056 0.11381 0.0
O58 O 0.06566 0.83983 0.09638 0.0
O59 O 0.09388 0.84333 0.07463 0.0
O60 O 0.04253 0.80204 0.13304 0.0
O61 O 0.08662 0.7781 0.06724 0.0
O62 O 0.0657 0.77576 0.09601 0.0
C63 C 0.07759 0.85087 0.08179 0.0
C64 C 0.12176 0.81977 0.13611 0.0
O65 O 0.10087 0.8199 0.13925 0.0
O66 O 0.12628 0.81687 0.11525 0.0
C67 C 0.02832 0.81332 0.13862 0.0
O68 O 0.0306 0.83405 0.13204 0.0
C69 C 0.07246 0.76532 0.07874 0.0
Zn70 Zn 0.47735 0.77048 0.47884 0.0
Zn71 Zn 0.50135 0.77351 0.44318 0.0
O72 O 0.51008 0.80864 0.46199 0.0
O73 O 0.49314 0.80662 0.49365 0.0
O74 O 0.5261 0.77551 0.42081 0.0
O75 O 0.48723 0.74138 0.48958 0.0
O76 O 0.50512 0.74367 0.4587 0.0
C77 C 0.50544 0.81923 0.4806 0.0
C78 C 0.44882 0.76625 0.43038 0.0
O79 O 0.46822 0.76757 0.42239 0.0
O80 O 0.44852 0.76632 0.45234 0.0
C81 C 0.5438 0.79349 0.41951 0.0
O82 O 0.54656 0.81414 0.43234 0.0
C83 C 0.4993 0.73311 0.47613 0.0
Zn84 Zn 0.6061 0.31869 0.58523 0.0
Zn85 Zn 0.57065 0.30864 0.6093 0.0
O86 O 0.56647 0.33914 0.59406 0.0
O87 O 0.59553 0.34676 0.57323 0.0
O88 O 0.54532 0.30179 0.63045 0.0
O89 O 0.59276 0.28315 0.56733 0.0
O90 O 0.56393 0.27473 0.58844 0.0
C91 C 0.57802 0.35201 0.58037 0.0
C92 C 0.62329 0.31894 0.63432 0.0
O93 O 0.6008 0.31352 0.63407 0.0
O94 O 0.63151 0.32398 0.61567 0.0
C95 C 0.5242 0.30292 0.62708 0.0
O96 O 0.51649 0.30946 0.60766 0.0
C97 C 0.57526 0.26778 0.57307 0.0
Zn98 Zn 0.97032 0.26409 0.97245 0.0
Zn99 Zn 1.00321 0.27738 0.94656 0.0
O100 O 0.00931 0.31043 0.96858 0.0
O101 O 0.98105 0.29921 0.98984 0.0
O102 O 0.03062 0.28399 0.92684 0.0
O103 O 0.98012 0.23597 0.98334 0.0
O104 O 0.00813 0.24728 0.96185 0.0
C105 C 0.99744 0.31581 0.98417 0.0
C106 C 0.94934 0.26395 0.92484 0.0
O107 O 0.97131 0.27204 0.92244 0.0
O108 O 0.94418 0.25738 0.94407 0.0
C109 C 0.04229 0.30502 0.92441 0.0
O110 O 0.03584 0.32286 0.93374 0.0
C111 C 0.99798 0.23286 0.97511 0.0
Zn112 Zn 0.39722 0.99778 0.29646 0.0
Zn113 Zn 0.40051 0.03804 0.3011 0.0
O114 O 0.4179 0.03706 0.33285 0.0
O115 O 0.39607 0.9999 0.3312 0.0
O116 O 0.39982 0.07038 0.2991 0.0
O117 O 0.42867 1.00224 0.28646 0.0
O118 O 0.41706 0.03051 0.27328 0.0
C119 C 0.41063 0.01907 0.34299 0.0
C120 C 0.35543 1.00099 0.28371 0.0
O121 O 0.36557 0.019 0.29952 0.0
O122 O 0.36864 0.99347 0.27145 0.0
C123 C 0.38536 0.07775 0.30975 0.0
O124 O 0.37558 0.06619 0.3258 0.0
C125 C 0.43012 0.0171 0.27259 0.0
Zn126 Zn 0.26178 0.23379 0.51767 0.0
Zn127 Zn 0.29092 0.2075 0.52255 0.0
O128 O 0.29707 0.22177 0.49183 0.0
O129 O 0.27581 0.24609 0.48952 0.0
O130 O 0.31409 0.18891 0.52638 0.0
O131 O 0.27322 0.25057 0.55207 0.0
O132 O 0.29546 0.22724 0.55543 0.0
C133 C 0.2901 0.23655 0.48108 0.0
C134 C 0.23763 0.18292 0.51449 0.0
O135 O 0.25877 0.18212 0.51884 0.0
O136 O 0.23392 0.20241 0.51206 0.0
C137 C 0.30925 0.1699 0.51161 0.0
O138 O 0.29078 0.16456 0.49476 0.0
C139 C 0.28705 0.24281 0.5648 0.0
Zn140 Zn 0.10423 0.07675 0.79045 0.0
Zn141 Zn 0.12694 0.04419 0.78498 0.0
O142 O 0.11006 0.03708 0.81435 0.0
O143 O 0.09094 0.06337 0.81821 0.0
O144 O 0.1444 0.01965 0.78103 0.0
O145 O 0.08737 0.06619 0.75654 0.0
O146 O 0.10558 0.03912 0.75247 0.0
C147 C 0.09684 0.04642 0.82543 0.0
C148 C 0.15499 0.09756 0.79594 0.0
O149 O 0.15457 0.07601 0.79122 0.0
O150 O 0.13595 0.10262 0.7971 0.0
C151 C 0.1572 0.01765 0.79933 0.0
O152 O 0.15817 0.0311 0.81938 0.0
C153 C 0.09148 0.04952 0.74376 0.0
Zn154 Zn 0.3353 0.89697 0.00226 0.0
Zn155 Zn 0.2885 0.91599 0.0019 0.0
O156 O 0.27373 0.89731 0.96906 0.0
O157 O 0.30683 0.89068 0.97945 0.0
O158 O 0.26536 0.92853 0.0154 0.0
O159 O 0.32522 0.88198 0.02969 0.0
O160 O 0.29492 0.89634 0.02564 0.0
C161 C 0.28844 0.88659 0.96468 0.0
C162 C 0.33989 0.94845 0.00508 0.0
O163 O 0.31739 0.94416 0.00223 0.0
O164 O 0.34983 0.93244 0.00674 0.0
C165 C 0.25266 0.93778 0.00332 0.0
O166 O 0.25471 0.93862 0.9811 0.0
C167 C 0.30619 0.88435 0.03577 0.0
Zn168 Zn 0.31732 0.35427 0.04347 0.0
Zn169 Zn 0.28823 0.37978 0.03665 0.0
O170 O 0.28322 0.3566 0.00452 0.0
O171 O 0.30458 0.33322 0.01207 0.0
O172 O 0.26358 0.39717 0.03194 0.0
O173 O 0.30543 0.34415 0.07301 0.0
O174 O 0.28295 0.36716 0.06858 0.0
C175 C 0.29075 0.33935 0.9977 0.0
C176 C 0.34123 0.40477 0.04297 0.0
O177 O 0.32016 0.40612 0.04046 0.0
O178 O 0.34465 0.385 0.0446 0.0
C179 C 0.25448 0.39873 0.01145 0.0
O180 O 0.26114 0.389 0.99299 0.0
C181 C 0.29052 0.35339 0.0804 0.0
Zn182 Zn 0.76298 0.20861 0.05231 0.0
Zn183 Zn 0.79932 0.17058 0.06007 0.0
O184 O 0.79851 0.1677 0.02444 0.0
O185 O 0.77151 0.18136 0.03554 0.0
O186 O 0.82354 0.15713 0.07236 0.0
O187 O 0.78422 0.22389 0.08418 0.0
O188 O 0.80753 0.20566 0.0699 0.0
C189 C 0.78481 0.17987 0.02046 0.0
C190 C 0.74645 0.15426 0.06179 0.0
O191 O 0.76696 0.15202 0.06715 0.0
O192 O 0.74377 0.17272 0.05412 0.0
C193 C 0.81716 0.13546 0.06291 0.0
O194 O 0.79681 0.12612 0.04845 0.0
C195 C 0.80158 0.21578 0.08749 0.0
Zn196 Zn 0.19508 0.59351 0.24427 0.0
Zn197 Zn 0.18947 0.55558 0.2563 0.0
O198 O 0.16977 0.56788 0.27732 0.0
O199 O 0.1875 0.6055 0.27581 0.0
O200 O 0.18935 0.5255 0.26595 0.0
O201 O 0.16992 0.58093 0.21708 0.0
O202 O 0.17479 0.54659 0.22126 0.0
C203 C 0.17398 0.5898 0.28525 0.0
C204 C 0.23782 0.58974 0.25612 0.0
O205 O 0.2246 0.57543 0.26712 0.0
O206 O 0.22792 0.59515 0.23816 0.0
C207 C 0.20111 0.51502 0.25441 0.0
O208 O 0.209 0.52322 0.23586 0.0
C209 C 0.16641 0.55933 0.20896 0.0
Zn210 Zn 0.81065 0.85027 0.54288 0.0
Zn211 Zn 0.78981 0.88217 0.54129 0.0
O212 O 0.78076 0.86027 0.50793 0.0
O213 O 0.79784 0.83249 0.51009 0.0
O214 O 0.76806 0.90307 0.53839 0.0
O215 O 0.79797 0.83819 0.5708 0.0
O216 O 0.78209 0.86716 0.57205 0.0
C217 C 0.78546 0.84215 0.49805 0.0
C218 C 0.84339 0.89824 0.54543 0.0
O219 O 0.82476 0.90474 0.54386 0.0
O220 O 0.84149 0.87672 0.54663 0.0
C221 C 0.76685 0.91277 0.52012 0.0
O222 O 0.7802 0.90964 0.50429 0.0
C223 C 0.78637 0.84994 0.58089 0.0
Zn224 Zn 0.97419 0.01547 0.2617 0.0
Zn225 Zn 0.95475 0.0425 0.26641 0.0
O226 O 0.97313 0.0472 0.30141 0.0
O227 O 0.98025 0.01321 0.29527 0.0
O228 O 0.93938 0.06857 0.26648 0.0
O229 O 1.00094 0.03077 0.24633 0.0
O230 O 0.97308 0.04623 0.23622 0.0
C231 C 0.97961 0.03069 0.30953 0.0
C232 C 0.92733 0.99064 0.25078 0.0
O233 O 0.92728 0.01006 0.26268 0.0
O234 O 0.94571 0.99047 0.24195 0.0
C235 C 0.92714 0.07405 0.28152 0.0
O236 O 0.92327 0.06194 0.29889 0.0
C237 C 0.99197 0.04137 0.23216 0.0
Zn238 Zn 0.27504 0.71879 0.5545 0.0
Zn239 Zn 0.30174 0.67138 0.55879 0.0
O240 O 0.29481 0.66592 0.52272 0.0
O241 O 0.27453 0.68651 0.53761 0.0
O242 O 0.32585 0.65646 0.56793 0.0
O243 O 0.30335 0.73634 0.58188 0.0
O244 O 0.31293 0.7067 0.56634 0.0
C245 C 0.28338 0.68048 0.52008 0.0
C246 C 0.25251 0.66514 0.56866 0.0
O247 O 0.27071 0.658 0.57079 0.0
O248 O 0.2535 0.68506 0.56179 0.0
C249 C 0.3191 0.63649 0.57472 0.0
O250 O 0.29731 0.62842 0.57929 0.0
C251 C 0.31493 0.72183 0.58429 0.0
Zn252 Zn 0.47062 0.50666 0.76832 0.0
Zn253 Zn 0.45425 0.54183 0.7689 0.0
O254 O 0.47504 0.54688 0.80246 0.0
O255 O 0.48748 0.5156 0.80127 0.0
O256 O 0.44147 0.57025 0.77252 0.0
O257 O 0.48706 0.51539 0.74131 0.0
O258 O 0.47219 0.54474 0.73916 0.0
C259 C 0.48624 0.53455 0.81258 0.0
C260 C 0.42094 0.48955 0.76183 0.0
O261 O 0.42372 0.51178 0.76377 0.0
O262 O 0.43878 0.48222 0.76279 0.0
C263 C 0.41934 0.56794 0.77113 0.0
O264 O 0.40366 0.54652 0.76605 0.0
C265 C 0.48456 0.53223 0.73109 0.0
Zn266 Zn 0.68305 0.09845 0.74874 0.0
Zn267 Zn 0.68792 0.05648 0.75022 0.0
O268 O 0.66549 0.0593 0.77367 0.0
O269 O 0.66112 0.09446 0.77237 0.0
O270 O 0.68955 0.02451 0.75135 0.0
O271 O 0.6715 0.08884 0.71451 0.0
O272 O 0.67517 0.05352 0.71614 0.0
C273 C 0.65648 0.07524 0.78059 0.0
C274 C 0.73124 0.0997 0.76132 0.0
O275 O 0.72288 0.07723 0.75919 0.0
O276 O 0.71767 0.11224 0.75862 0.0
C277 C 0.69873 0.02154 0.77102 0.0
O278 O 0.70554 0.03926 0.78885 0.0
C279 C 0.67005 0.06834 0.70437 0.0
Zn280 Zn 0.75764 0.73374 0.01783 0.0
Zn281 Zn 0.7893 0.71034 0.02402 0.0
O282 O 0.79572 0.72498 0.99378 0.0
O283 O 0.7718 0.74656 0.98979 0.0
O284 O 0.81564 0.69642 0.03082 0.0
O285 O 0.76759 0.75165 0.052 0.0
O286 O 0.79127 0.72991 0.05623 0.0
C287 C 0.78773 0.73876 0.98244 0.0
C288 C 0.73735 0.6817 0.01491 0.0
O289 O 0.75901 0.68236 0.01917 0.0
O290 O 0.73219 0.70056 0.01264 0.0
C291 C 0.81636 0.67729 0.01913 0.0
O292 O 0.79954 0.66609 0.00108 0.0
C293 C 0.78206 0.74496 0.06511 0.0
Zn294 Zn 0.89581 0.49498 0.79378 0.0
Zn295 Zn 0.89942 0.53572 0.80135 0.0
O296 O 0.92087 0.5341 0.83026 0.0
O297 O 0.90146 0.49621 0.82883 0.0
O298 O 0.9001 0.56885 0.80162 0.0
O299 O 0.92273 0.49851 0.77579 0.0
O300 O 0.90969 0.52831 0.76991 0.0
C301 C 0.91589 0.51569 0.84005 0.0
C302 C 0.8523 0.49989 0.78802 0.0
O303 O 0.8648 0.51787 0.80304 0.0
O304 O 0.86288 0.4889 0.7755 0.0
C305 C 0.88586 0.5761 0.81273 0.0
O306 O 0.87551 0.56364 0.82794 0.0
C307 C 0.92077 0.51406 0.76349 0.0
Zn308 Zn 0.81374 0.40756 0.50719 0.0
Zn309 Zn 0.78148 0.42165 0.50931 0.0
O310 O 0.77447 0.40284 0.47643 0.0
O311 O 0.81189 0.40911 0.47283 0.0
O312 O 0.75729 0.43767 0.51132 0.0
O313 O 0.79649 0.37741 0.51703 0.0
O314 O 0.77596 0.3986 0.5326 0.0
C315 C 0.79015 0.40174 0.46369 0.0
C316 C 0.83309 0.45177 0.52687 0.0
O317 O 0.81258 0.45005 0.51634 0.0
O318 O 0.83774 0.43311 0.5305 0.0
C319 C 0.76059 0.45588 0.50139 0.0
O320 O 0.77759 0.46093 0.48849 0.0
C321 C 0.78193 0.37978 0.53056 0.0
Zn322 Zn 0.5991 0.56945 0.29359 0.0
Zn323 Zn 0.62321 0.54399 0.28455 0.0
O324 O 0.61108 0.53664 0.31739 0.0
O325 O 0.59036 0.56102 0.32364 0.0
O326 O 0.63974 0.51939 0.27602 0.0
O327 O 0.57537 0.55924 0.26429 0.0
O328 O 0.59914 0.53978 0.25289 0.0
C329 C 0.59865 0.54538 0.33041 0.0
C330 C 0.64626 0.59712 0.28984 0.0
O331 O 0.64954 0.57685 0.28683 0.0
O332 O 0.62622 0.59852 0.29366 0.0
C333 C 0.65387 0.51315 0.29019 0.0
O334 O 0.65863 0.52287 0.31253 0.0
C335 C 0.58145 0.54736 0.24799 0.0
Dy336 Dy 0.06808 0.05936 0.03876 0.0
Dy337 Dy 0.01459 0.02823 0.01593 0.0
C338 C 0.05456 0.0347 0.98388 0.0
O339 O 0.05525 0.08921 0.03103 0.0
O340 O 0.01748 0.06729 0.01256 0.0
O341 O 0.10314 0.08251 0.0368 0.0
O342 O 0.09607 0.06831 0.06878 0.0
O343 O 0.01499 0.0332 0.05481 0.0
O344 O 0.04733 0.06637 0.06696 0.0
O345 O 0.0278 0.99779 0.02498 0.0
O346 O 0.06581 0.02109 0.04158 0.0
O347 O 0.97981 0.00389 0.01688 0.0
O348 O 0.98568 0.02247 0.98728 0.0
C349 C 0.03461 0.08807 0.01942 0.0
O350 O 0.06759 0.05325 -0.00047 0.0
O351 O 0.0353 0.01964 0.98846 0.0
C352 C 0.13006 0.06619 0.05465 0.0
C353 C 0.15991 0.03811 0.05292 0.0
C354 C 0.1395 0.03256 0.03585 0.0
C355 C 0.12474 0.04651 0.03668 0.0
C356 C 0.15029 0.07179 0.07191 0.0
C357 C 0.16529 0.05775 0.07102 0.0
C358 C 0.1123 0.07817 0.05666 0.0
C359 C 0.02809 0.05095 0.07111 0.0
C360 C 0.04927 0.99993 0.03591 0.0
C361 C 0.95335 0.02353 0.00554 0.0
C362 C 0.92273 0.04751 0.02046 0.0
C363 C 0.94633 0.05455 0.03182 0.0
C364 C 0.96157 0.04271 0.02435 0.0
C365 C 0.92997 0.01699 0.99348 0.0
C366 C 0.91461 0.0291 0.00093 0.0
C367 C 0.97001 0.01117 -0.00076 0.0
H368 H 0.1347 0.01715 0.02206 0.0
H369 H 0.10874 0.04148 0.02362 0.0
H370 H 0.15417 0.08661 0.08619 0.0
H371 H 0.18102 0.06221 0.08433 0.0
H372 H 0.95279 0.0689 0.0468 0.0
H373 H 0.97971 0.04822 0.03364 0.0
H374 H 0.92359 1.00243 0.97874 0.0
H375 H 0.89631 0.02366 0.99204 0.0
Dy376 Dy 0.29383 0.79006 0.27043 0.0
Dy377 Dy 0.26443 0.79822 0.31248 0.0
C378 C 0.30115 0.84126 0.29969 0.0
O379 O 0.31568 0.78364 0.30221 0.0
O380 O 0.29703 0.79404 0.33257 0.0
O381 O 0.32747 0.80236 0.2581 0.0
O382 O 0.29876 0.77249 0.23751 0.0
O383 O 0.26178 0.75987 0.30813 0.0
O384 O 0.26923 0.7545 0.27047 0.0
O385 O 0.24589 0.80815 0.28082 0.0
O386 O 0.26049 0.79278 0.24983 0.0
O387 O 0.23135 0.78645 0.32599 0.0
O388 O 0.25902 0.81896 0.3432 0.0
C389 C 0.31449 0.78756 0.32485 0.0
O390 O 0.29737 0.8285 0.27876 0.0
O391 O 0.29434 0.83142 0.3175 0.0
C392 C 0.31781 0.80244 0.21827 0.0
C393 C 0.30979 0.82524 0.18045 0.0
C394 C 0.30129 0.83019 0.20134 0.0
C395 C 0.30536 0.81897 0.22006 0.0
C396 C 0.32662 0.79749 0.1976 0.0
C397 C 0.32273 0.809 0.17869 0.0
C398 C 0.31877 0.7891 0.23745 0.0
C399 C 0.26273 0.74605 0.28917 0.0
C400 C 0.24529 0.80249 0.25802 0.0
C401 C 0.2428 0.79203 0.3671 0.0
C402 C 0.2647 0.77599 0.40398 0.0
C403 C 0.25213 0.75998 0.3836 0.0
C404 C 0.24112 0.76787 0.36534 0.0
C405 C 0.25352 0.80757 0.38844 0.0
C406 C 0.26441 0.79953 0.40691 0.0
C407 C 0.24013 0.80191 0.34542 0.0
H408 H 0.29086 0.84222 0.20305 0.0
H409 H 0.29802 0.82265 0.23571 0.0
H410 H 0.336 0.78452 0.19595 0.0
H411 H 0.32966 0.80513 0.16274 0.0
H412 H 0.25158 0.74151 0.38144 0.0
H413 H 0.23301 0.75536 0.34919 0.0
H414 H 0.25522 0.8263 0.3901 0.0
H415 H 0.27371 0.81192 0.42284 0.0
Dy416 Dy 0.50899 0.03944 0.53658 0.0
Dy417 Dy 0.56313 0.04533 0.52564 0.0
C418 C 0.52075 0.03814 0.48561 0.0
O419 O 0.50726 1.00166 0.52178 0.0
O420 O 0.54747 0.00645 0.52791 0.0
O421 O 0.47074 0.02709 0.52701 0.0
O422 O 0.48734 0.04759 0.56177 0.0
O423 O 0.55995 0.05957 0.56162 0.0
O424 O 0.5291 0.02891 0.56546 0.0
O425 O 0.55963 0.08172 0.52273 0.0
O426 O 0.52889 0.07947 0.54416 0.0
O427 O 0.59736 0.04689 0.54368 0.0
O428 O 0.5929 0.04926 0.50641 0.0
C429 C 0.52507 0.99262 0.52256 0.0
O430 O 0.512 0.04934 0.50124 0.0
O431 O 0.53856 0.03036 0.49165 0.0
C432 C 0.4527 0.05407 0.54395 0.0
C433 C 0.42135 0.08069 0.5382 0.0
C434 C 0.43445 0.07682 0.52039 0.0
C435 C 0.45019 0.06377 0.5233 0.0
C436 C 0.44038 0.05886 0.5622 0.0
C437 C 0.42481 0.07219 0.55938 0.0
C438 C 0.4677 0.03862 0.54649 0.0
C439 C 0.5495 0.04459 0.57447 0.0
C440 C 0.54653 0.09208 0.53444 0.0
C441 C 0.62056 0.02988 0.52099 0.0
C442 C 0.65026 1.00095 0.51505 0.0
C443 C 0.64805 0.01062 0.5377 0.0
C444 C 0.63344 0.02495 0.54062 0.0
C445 C 0.62207 0.01951 0.49836 0.0
C446 C 0.63666 0.00515 0.49544 0.0
C447 C 0.60686 0.04683 0.52451 0.0
H448 H 0.43188 0.08322 0.5039 0.0
H449 H 0.45981 0.06069 0.50913 0.0
H450 H 0.4423 0.05171 0.57834 0.0
H451 H 0.41462 0.07483 0.57318 0.0
H452 H 0.65837 0.00799 0.5532 0.0
H453 H 0.63276 0.03273 0.55832 0.0
H454 H 0.61236 0.02283 0.48285 0.0
H455 H 0.63757 0.99764 0.47773 0.0
Dy456 Dy 0.31179 0.28876 0.78006 0.0
Dy457 Dy 0.26057 0.2996 0.78008 0.0
C458 C 0.30687 0.33907 0.77281 0.0
O459 O 0.30557 0.29049 0.81755 0.0
O460 O 0.28165 0.31435 0.81639 0.0
O461 O 0.35022 0.29857 0.78907 0.0
O462 O 0.32978 0.26368 0.76942 0.0
O463 O 0.25753 0.26765 0.79687 0.0
O464 O 0.28243 0.254 0.77613 0.0
O465 O 0.25985 0.27969 0.74405 0.0
O466 O 0.30002 0.29236 0.74321 0.0
O467 O 0.22201 0.28654 0.77399 0.0
O468 O 0.24074 0.32416 0.78618 0.0
C469 C 0.29509 0.30435 0.82831 0.0
O470 O 0.3197 0.32821 0.78424 0.0
O471 O 0.28406 0.32872 0.76487 0.0
C472 C 0.36909 0.27957 0.76227 0.0
C473 C 0.40461 0.28024 0.73373 0.0
C474 C 0.39367 0.29819 0.73477 0.0
C475 C 0.37602 0.29785 0.74892 0.0
C476 C 0.37952 0.26141 0.76078 0.0
C477 C 0.39703 0.26169 0.74667 0.0
C478 C 0.35095 0.27857 0.77772 0.0
C479 C 0.26517 0.25036 0.78873 0.0
C480 C 0.27795 0.28329 0.73232 0.0
C481 C 0.20356 0.30827 0.79859 0.0
C482 C 0.17163 0.31184 0.83037 0.0
C483 C 0.18383 0.29499 0.83138 0.0
C484 C 0.19979 0.29329 0.81568 0.0
C485 C 0.19122 0.32481 0.79745 0.0
C486 C 0.17546 0.32658 0.81309 0.0
C487 C 0.22018 0.30731 0.78172 0.0
H488 H 0.39917 0.3128 0.72514 0.0
H489 H 0.368 0.31194 0.74962 0.0
H490 H 0.37419 0.24699 0.77069 0.0
H491 H 0.40466 0.24732 0.74595 0.0
H492 H 0.18142 0.28352 0.84458 0.0
H493 H 0.20923 0.28044 0.81698 0.0
H494 H 0.19381 0.33646 0.78439 0.0
H495 H 0.16613 0.3395 0.81153 0.0
Dy496 Dy 0.04873 0.02061 0.52549 0.0
Dy497 Dy 0.02985 0.06754 0.52966 0.0
C498 C 0.99624 0.0158 0.53374 0.0
O499 O 0.02797 0.0189 0.49032 0.0
O500 O 0.03342 0.05868 0.49181 0.0
O501 O 0.04184 0.98301 0.51432 0.0
O502 O 0.07602 0.00462 0.53474 0.0
O503 O 0.0697 0.07982 0.53363 0.0
O504 O 0.07554 0.04802 0.5116 0.0
O505 O 0.03246 0.05824 0.5663 0.0
O506 O 0.06211 0.0419 0.56145 0.0
O507 O 0.03477 0.10411 0.54431 0.0
O508 O 1.00498 0.08488 0.51673 0.0
C509 C 0.02735 0.03704 0.47982 0.0
O510 O 0.01573 0.01117 0.54121 0.0
O511 O 0.99705 0.03546 0.52536 0.0
C512 C 0.06011 0.96548 0.54261 0.0
C513 C 0.05785 0.93195 0.57349 0.0
C514 C 0.03713 0.93671 0.56434 0.0
C515 C 0.03826 0.95339 0.54917 0.0
C516 C 0.0808 0.96078 0.55179 0.0
C517 C 0.07971 0.94426 0.56711 0.0
C518 C 0.06176 0.98309 0.52649 0.0
C519 C 0.08288 0.07048 0.52138 0.0
C520 C 0.04908 0.04978 0.57509 0.0
C521 C 0.02384 0.12528 0.51527 0.0
C522 C 0.03517 0.16271 0.48892 0.0
C523 C 0.0511 0.14994 0.49337 0.0
C524 C 0.0454 0.13121 0.50623 0.0
C525 C 0.0078 0.13786 0.51057 0.0
C526 C 0.01335 0.15637 0.49738 0.0
C527 C 0.01764 0.1056 0.52891 0.0
H528 H 0.02008 0.92778 0.56916 0.0
H529 H 0.02201 0.95682 0.54265 0.0
H530 H 0.09784 0.96989 0.54705 0.0
H531 H 0.09597 0.94087 0.5737 0.0
H532 H 0.06795 0.15446 0.48684 0.0
H533 H 0.05787 0.12145 0.50925 0.0
H534 H 0.99099 0.13339 0.51716 0.0
H535 H 1.00085 0.16604 0.49419 0.0
Dy536 Dy 0.28944 0.81999 0.75852 0.0
Dy537 Dy 0.28265 0.76419 0.76913 0.0
C538 C 0.28955 0.8069 0.80951 0.0
O539 O 0.327 0.82117 0.77194 0.0
O540 O 0.32219 0.78091 0.7703 0.0
O541 O 0.30269 0.85807 0.76922 0.0
O542 O 0.28027 0.84265 0.73519 0.0
O543 O 0.27238 0.76762 0.73224 0.0
O544 O 0.30164 0.80061 0.73014 0.0
O545 O 0.24623 0.76793 0.77116 0.0
O546 O 0.25008 0.79978 0.75111 0.0
O547 O 0.28114 0.72957 0.75208 0.0
O548 O 0.27821 0.7352 0.78917 0.0
C549 C 0.33575 0.80341 0.77355 0.0
O550 O 0.28032 0.81729 0.79408 0.0
O551 O 0.29599 0.78819 0.80336 0.0
C552 C 0.27472 0.87638 0.75643 0.0
C553 C 0.24699 0.90549 0.76899 0.0
C554 C 0.24528 0.88473 0.77878 0.0
C555 C 0.25904 0.87036 0.7726 0.0
C556 C 0.27595 0.89659 0.74601 0.0
C557 C 0.26216 0.91104 0.75219 0.0
C558 C 0.29012 0.86188 0.75095 0.0
C559 C 0.28945 0.77851 0.7216 0.0
C560 C 0.23704 0.78239 0.76064 0.0
C561 C 0.29887 0.70827 0.77609 0.0
C562 C 0.33211 0.68348 0.78305 0.0
C563 C 0.31964 0.68179 0.76049 0.0
C564 C 0.30326 0.69406 0.75705 0.0
C565 C 0.31141 0.71002 0.79876 0.0
C566 C 0.32803 0.69781 0.80217 0.0
C567 C 0.28117 0.72087 0.77165 0.0
H568 H 0.23348 0.87972 0.79146 0.0
H569 H 0.25776 0.85475 0.78077 0.0
H570 H 0.28793 0.90144 0.73344 0.0
H571 H 0.26399 0.92697 0.74445 0.0
H572 H 0.32267 0.67102 0.74545 0.0
H573 H 0.29395 0.69237 0.73939 0.0
H574 H 0.30841 0.72075 0.81383 0.0
H575 H 0.33739 0.69924 0.81975 0.0
Dy576 Dy 0.54288 0.07568 0.00883 0.0
Dy577 Dy 0.5362 0.03515 0.04268 0.0
C578 C 0.54466 0.02236 0.99021 0.0
O579 O 0.50622 0.06841 0.01606 0.0
O580 O 0.50152 0.02985 0.01996 0.0
O581 O 0.52976 0.0872 0.97773 0.0
O582 O 0.56313 0.10901 -8e-05 0.0
O583 O 0.52697 0.06468 0.06283 0.0
O584 O 0.5455 0.09615 0.04524 0.0
O585 O 0.57506 0.05507 0.05006 0.0
O586 O 0.57733 0.06909 0.01518 0.0
O587 O 0.54511 0.02267 0.07462 0.0
O588 O 0.51709 0.99945 0.04706 0.0
C589 C 0.4927 0.047 0.0165 0.0
O590 O 0.53764 0.04042 0.98488 0.0
O591 O 0.5491 0.01963 0.01217 0.0
C592 C 0.56204 0.1024 0.95923 0.0
C593 C 0.57975 0.09119 0.91827 0.0
C594 C 0.58371 0.08062 0.93793 0.0
C595 C 0.57492 0.08618 0.95823 0.0
C596 C 0.55867 0.11363 0.93991 0.0
C597 C 0.5677 0.10818 0.91949 0.0
C598 C 0.54971 0.10455 0.97927 0.0
C599 C 0.53473 0.08771 0.0625 0.0
C600 C 0.5872 0.06341 0.0339 0.0
C601 C 0.51229 0.99702 0.08618 0.0
C602 C 0.48993 0.99179 0.12583 0.0
C603 C 0.48844 0.00978 0.11279 0.0
C604 C 0.49956 0.01235 0.09301 0.0
C605 C 0.51221 0.97796 0.09795 0.0
C606 C 0.50094 0.97524 0.11763 0.0
C607 C 0.5278 1.00253 0.06867 0.0
H608 H 0.59323 0.06771 0.93746 0.0
H609 H 0.57741 0.07708 0.97285 0.0
H610 H 0.54844 0.1259 0.94034 0.0
H611 H 0.56448 0.11648 0.90439 0.0
H612 H 0.48023 0.02289 0.11877 0.0
H613 H 0.49944 0.02712 0.0839 0.0
H614 H 0.52188 0.96593 0.09266 0.0
H615 H 0.50193 0.96098 0.12717 0.0
Dy616 Dy 0.27682 0.26733 0.2661 0.0
Dy617 Dy 0.30389 0.31981 0.2942 0.0
C618 C 0.29562 0.27578 0.32114 0.0
O619 O 0.24937 0.2786 0.28454 0.0
O620 O 0.26535 0.31883 0.28782 0.0
O621 O 0.2496 0.23362 0.26427 0.0
O622 O 0.27079 0.23935 0.2364 0.0
O623 O 0.30056 0.32385 0.25622 0.0
O624 O 0.27002 0.28992 0.2397 0.0
O625 O 0.3329 0.30291 0.29185 0.0
O626 O 0.31497 0.27498 0.25913 0.0
O627 O 0.33238 0.35305 0.29814 0.0
O628 O 0.30886 0.3471 0.32412 0.0
C629 C 0.24719 0.29999 0.28849 0.0
O630 O 0.29465 0.26263 0.30088 0.0
O631 O 0.29455 0.29739 0.3218 0.0
C632 C 0.26323 0.20284 0.24926 0.0
C633 C 0.28377 0.16688 0.2542 0.0
C634 C 0.28608 0.18453 0.27351 0.0
C635 C 0.27592 0.20234 0.27105 0.0
C636 C 0.26016 0.18485 0.23011 0.0
C637 C 0.27038 0.16687 0.23256 0.0
C638 C 0.25614 0.22376 0.24602 0.0
C639 C 0.28426 0.31109 0.23834 0.0
C640 C 0.33439 0.28799 0.27382 0.0
C641 C 0.31741 0.38323 0.31117 0.0
C642 C 0.29642 0.41846 0.30489 0.0
C643 C 0.291 0.39832 0.28744 0.0
C644 C 0.30138 0.38083 0.2906 0.0
C645 C 0.3235 0.40357 0.32837 0.0
C646 C 0.31303 0.42123 0.32522 0.0
C647 C 0.32458 0.36275 0.31557 0.0
H648 H 0.29679 0.18535 0.29023 0.0
H649 H 0.27884 0.21626 0.28599 0.0
H650 H 0.25066 0.18522 0.21311 0.0
H651 H 0.26838 0.1534 0.21745 0.0
H652 H 0.27781 0.39545 0.27189 0.0
H653 H 0.29596 0.36485 0.2775 0.0
H654 H 0.33554 0.40534 0.3445 0.0
H655 H 0.3174 0.43669 0.33887 0.0
Dy656 Dy 0.54583 0.51881 0.0278 0.0
Dy657 Dy 0.5337 0.56991 0.03024 0.0
C658 C 0.49383 0.52182 0.03242 0.0
O659 O 0.5463 0.52783 0.99119 0.0
O660 O 0.52125 0.55044 0.99352 0.0
O661 O 0.53374 0.48037 0.02064 0.0
O662 O 0.57126 0.49955 0.0321 0.0
O663 O 0.56883 0.57513 0.01825 0.0
O664 O 0.58007 0.54867 0.0382 0.0
O665 O 0.54644 0.56828 0.06789 0.0
O666 O 0.54278 0.52833 0.06548 0.0
O667 O 0.54536 0.60832 0.03872 0.0
O668 O 0.50929 0.58908 0.02103 0.0
C669 C 0.53257 0.53881 0.98122 0.0
O670 O 0.50628 0.51043 0.02142 0.0
O671 O 0.50285 0.54451 0.04144 0.0
C672 C 0.5563 0.46189 0.04377 0.0
C673 C 0.5569 0.42498 0.06983 0.0
C674 C 0.54029 0.43728 0.07238 0.0
C675 C 0.53996 0.45559 0.05941 0.0
C676 C 0.57377 0.45067 0.04241 0.0
C677 C 0.57413 0.43248 0.05532 0.0
C678 C 0.55477 0.47885 0.0276 0.0
C679 C 0.5855 0.56748 0.02791 0.0
C680 C 0.54623 0.54945 0.07779 0.0
C681 C 0.52794 0.62619 0.01028 0.0
C682 C 0.53193 0.65784 0.97727 0.0
C683 C 0.54549 0.64213 0.97745 0.0
C684 C 0.54354 0.62649 0.99383 0.0
C685 C 0.5141 0.64145 0.00988 0.0
C686 C 0.51606 0.65712 0.99359 0.0
C687 C 0.52558 0.60984 0.02766 0.0
H688 H 0.52677 0.4319 0.08337 0.0
H689 H 0.52643 0.46419 0.06096 0.0
H690 H 0.58669 0.45541 0.03068 0.0
H691 H 0.58743 0.42368 0.05327 0.0
H692 H 0.55806 0.64231 0.96535 0.0
H693 H 0.55441 0.61484 0.99384 0.0
H694 H 0.50178 0.64131 0.02226 0.0
H695 H 0.50502 0.66862 0.99375 0.0
Dy696 Dy 0.79308 0.32067 0.26555 0.0
Dy697 Dy 0.78421 0.26526 0.27606 0.0
C698 C 0.78622 0.30686 0.3154 0.0
O699 O 0.82963 0.32017 0.28131 0.0
O700 O 0.82291 0.27977 0.27236 0.0
O701 O 0.80484 0.35855 0.278 0.0
O702 O 0.78827 0.34444 0.24153 0.0
O703 O 0.7752 0.2679 0.2387 0.0
O704 O 0.80495 0.30096 0.23702 0.0
O705 O 0.74764 0.26964 0.27531 0.0
O706 O 0.75416 0.30011 0.25337 0.0
O707 O 0.77513 0.22833 0.26046 0.0
O708 O 0.78577 0.23881 0.29816 0.0
C709 C 0.83759 0.30172 0.27867 0.0
O710 O 0.77881 0.31708 0.29873 0.0
O711 O 0.79374 0.2886 0.31085 0.0
C712 C 0.77962 0.37781 0.25983 0.0
C713 C 0.7483 0.40526 0.2611 0.0
C714 C 0.75077 0.39176 0.27893 0.0
C715 C 0.76621 0.37805 0.27825 0.0
C716 C 0.77733 0.39142 0.24222 0.0
C717 C 0.76188 0.405 0.24283 0.0
C718 C 0.79555 0.36305 0.25823 0.0
C719 C 0.79215 0.27909 0.22805 0.0
C720 C 0.73963 0.28321 0.26229 0.0
C721 C 0.79978 0.20897 0.27941 0.0
C722 C 0.83409 0.18483 0.27817 0.0
C723 C 0.82231 0.18859 0.25722 0.0
C724 C 0.80544 0.20053 0.25782 0.0
C725 C 0.8113 0.20497 0.30036 0.0
C726 C 0.82829 0.19307 0.29977 0.0
C727 C 0.78213 0.22205 0.2801 0.0
H728 H 0.74041 0.39137 0.29313 0.0
H729 H 0.76746 0.3675 0.29197 0.0
H730 H 0.78746 0.39146 0.22786 0.0
H731 H 0.76069 0.41546 0.22901 0.0
H732 H 0.82591 0.18205 0.24023 0.0
H733 H 0.79685 0.20311 0.24127 0.0
H734 H 0.80729 0.2112 0.31727 0.0
H735 H 0.83713 0.19065 0.31625 0.0
Dy736 Dy 0.03888 0.56416 0.50045 0.0
Dy737 Dy 0.03939 0.53667 0.54484 0.0
C738 C 0.03815 0.51127 0.49322 0.0
O739 O 1.00107 0.54357 0.50111 0.0
O740 O 1.00412 0.54218 0.54063 0.0
O741 O 0.02816 0.56384 0.46356 0.0
O742 O 0.04808 0.59703 0.48677 0.0
O743 O 0.04284 0.57385 0.56221 0.0
O744 O 0.02995 0.58726 0.52923 0.0
O745 O 0.0759 0.54457 0.53646 0.0
O746 O 0.07609 0.57693 0.51927 0.0
O747 O 0.05202 0.53205 0.57981 0.0
O748 O 0.02647 0.50249 0.55533 0.0
C749 C 0.99161 0.5415 0.52033 0.0
O750 O 0.0494 0.53192 0.48785 0.0
O751 O 0.02662 0.51081 0.51115 0.0
C752 C 0.05736 0.59177 0.4492 0.0
C753 C 0.09099 0.6022 0.41906 0.0
C754 C 0.09161 0.58563 0.43411 0.0
C755 C 0.07494 0.58053 0.4492 0.0
C756 C 0.05702 0.60872 0.43467 0.0
C757 C 0.07383 0.61397 0.41965 0.0
C758 C 0.04004 0.58636 0.46508 0.0
C759 C 0.03547 0.58971 0.55231 0.0
C760 C 0.08737 0.56422 0.52964 0.0
C761 C 0.02055 0.50636 0.59388 0.0
C762 C 0.98375 0.49594 0.62052 0.0
C763 C 0.99081 0.51798 0.61276 0.0
C764 C 0.00897 0.5231 0.59942 0.0
C765 C 0.01376 0.4844 0.60166 0.0
C766 C 0.99545 0.47922 0.61507 0.0
C767 C 0.03694 0.51053 0.57705 0.0
H768 H 0.10484 0.57649 0.43401 0.0
H769 H 0.07562 0.5677 0.46074 0.0
H770 H 0.04367 0.6177 0.43481 0.0
H771 H 0.07297 0.62665 0.408 0.0
H772 H 0.98252 0.53146 0.61726 0.0
H773 H 0.01369 0.53996 0.59306 0.0
H774 H 0.02224 0.47114 0.59694 0.0
H775 H 0.9903 0.46216 0.62099 0.0
Dy776 Dy 0.81374 0.78527 0.28625 0.0
Dy777 Dy 0.76772 0.80621 0.28125 0.0
C778 C 0.81916 0.83854 0.27725 0.0
O779 O 0.80254 0.78758 0.32241 0.0
O780 O 0.79112 0.81941 0.31595 0.0
O781 O 0.85113 0.79123 0.29901 0.0
O782 O 0.8299 0.75839 0.27628 0.0
O783 O 0.75564 0.77119 0.29352 0.0
O784 O 0.78152 0.7532 0.27939 0.0
O785 O 0.76666 0.78791 0.24495 0.0
O786 O 0.80594 0.78893 0.24829 0.0
O787 O 0.73055 0.80202 0.26998 0.0
O788 O 0.75268 0.83304 0.29471 0.0
C789 C 0.79509 0.80533 0.3303 0.0
O790 O 0.8268 0.8247 0.28994 0.0
O791 O 0.79645 0.83321 0.26829 0.0
C792 C 0.86967 0.77437 0.27053 0.0
C793 C 0.90353 0.77653 0.23954 0.0
C794 C 0.88559 0.78724 0.23572 0.0
C795 C 0.86883 0.78616 0.25105 0.0
C796 C 0.88762 0.76395 0.27457 0.0
C797 C 0.90438 0.76506 0.25933 0.0
C798 C 0.85132 0.77183 0.28602 0.0
C799 C 0.7612 0.75206 0.2865 0.0
C800 C 0.78512 0.78579 0.23556 0.0
C801 C 0.71302 0.81607 0.3008 0.0
C802 C 0.67721 0.80641 0.32973 0.0
C803 C 0.69442 0.79454 0.33029 0.0
C804 C 0.71217 0.79936 0.31603 0.0
C805 C 0.69632 0.82838 0.30061 0.0
C806 C 0.67863 0.82366 0.31497 0.0
C807 C 0.731 0.82044 0.2849 0.0
H808 H 0.88413 0.79601 0.22061 0.0
H809 H 0.85502 0.79425 0.24751 0.0
H810 H 0.88857 0.75475 0.28945 0.0
H811 H 0.91813 0.75698 0.2632 0.0
H812 H 0.69411 0.78142 0.34169 0.0
H813 H 0.72506 0.78984 0.31669 0.0
H814 H 0.69674 0.8414 0.28907 0.0
H815 H 0.6656 0.83301 0.31395 0.0
Dy816 Dy 0.8015 0.30365 0.772 0.0
Dy817 Dy 0.76449 0.29566 0.80919 0.0
C818 C 0.78917 0.34569 0.79856 0.0
O819 O 0.8233 0.29558 0.80198 0.0
O820 O 0.80039 0.29935 0.83063 0.0
O821 O 0.83193 0.32674 0.76035 0.0
O822 O 0.81423 0.29094 0.74144 0.0
O823 O 0.77143 0.26149 0.80356 0.0
O824 O 0.78515 0.26414 0.76834 0.0
O825 O 0.74105 0.28639 0.77372 0.0
O826 O 0.76778 0.30794 0.75286 0.0
O827 O 0.73305 0.27754 0.8229 0.0
O828 O 0.75617 0.31272 0.84042 0.0
C829 C 0.82 0.29644 0.82399 0.0
O830 O 0.80725 0.33843 0.7949 0.0
O831 O 0.76848 0.3305 0.79861 0.0
C832 C 0.82691 0.32022 0.71902 0.0
C833 C 0.80987 0.32643 0.6741 0.0
C834 C 0.80597 0.33965 0.69415 0.0
C835 C 0.81427 0.33641 0.7165 0.0
C836 C 0.83251 0.30849 0.69915 0.0
C837 C 0.824 0.31155 0.67675 0.0
C838 C 0.8296 0.31163 0.74127 0.0
C839 C 0.7779 0.25206 0.78499 0.0
C840 C 0.74558 0.29705 0.75534 0.0
C841 C 0.74509 0.28415 0.86394 0.0
C842 C 0.7685 0.27477 0.90458 0.0
C843 C 0.76614 0.26057 0.88273 0.0
C844 C 0.75459 0.26524 0.8626 0.0
C845 C 0.74644 0.2977 0.88592 0.0
C846 C 0.75798 0.29293 0.90622 0.0
C847 C 0.73973 0.29318 0.84238 0.0
H848 H 0.79564 0.35172 0.69255 0.0
H849 H 0.80954 0.34545 0.73166 0.0
H850 H 0.84197 0.29569 0.70089 0.0
H851 H 0.82723 0.30118 0.66156 0.0
H852 H 0.77352 0.24601 0.88112 0.0
H853 H 0.75426 0.25479 0.84583 0.0
H854 H 0.73976 0.31274 0.88718 0.0
H855 H 0.75946 0.30391 0.92301 0.0
Dy856 Dy 0.77516 0.76362 0.76911 0.0
Dy857 Dy 0.8023 0.81837 0.79122 0.0
C858 C 0.79835 0.77763 0.82316 0.0
O859 O 0.74755 0.77606 0.78588 0.0
O860 O 0.76337 0.81634 0.78813 0.0
O861 O 0.75033 0.72971 0.77149 0.0
O862 O 0.76605 0.73473 0.73984 0.0
O863 O 0.79494 0.81872 0.75231 0.0
O864 O 0.76499 0.78325 0.74158 0.0
O865 O 0.8326 0.8038 0.78641 0.0
O866 O 0.81264 0.76918 0.76076 0.0
O867 O 0.82987 0.85144 0.79121 0.0
O868 O 0.80816 0.84818 0.81881 0.0
C869 C 0.74534 0.7975 0.78935 0.0
O870 O 0.79499 0.76221 0.80389 0.0
O871 O 0.79794 0.7993 0.82213 0.0
C872 C 0.76209 0.69868 0.75309 0.0
C873 C 0.7849 0.66415 0.75503 0.0
C874 C 0.78304 0.67766 0.77587 0.0
C875 C 0.77182 0.69485 0.77492 0.0
C876 C 0.76304 0.68451 0.73227 0.0
C877 C 0.77455 0.66737 0.73321 0.0
C878 C 0.75411 0.71945 0.75176 0.0
C879 C 0.77773 0.80353 0.73661 0.0
C880 C 0.83276 0.7855 0.77128 0.0
C881 C 0.8145 0.88239 0.80204 0.0
C882 C 0.78671 0.91081 0.79012 0.0
C883 C 0.79438 0.89814 0.7724 0.0
C884 C 0.80808 0.88391 0.77829 0.0
C885 C 0.80831 0.8964 0.81981 0.0
C886 C 0.79438 0.91047 0.8139 0.0
C887 C 0.82256 0.86268 0.80797 0.0
H888 H 0.79138 0.67582 0.79287 0.0
H889 H 0.77178 0.70583 0.79125 0.0
H890 H 0.75586 0.68747 0.71527 0.0
H891 H 0.77594 0.65712 0.71698 0.0
H892 H 0.78906 0.89853 0.75397 0.0
H893 H 0.81239 0.87307 0.76416 0.0
H894 H 0.81276 0.89513 0.83817 0.0
H895 H 0.78851 0.91997 0.82789 0.0
Dy896 Dy 0.56429 0.5563 0.5423 0.0
Dy897 Dy 0.51144 0.52982 0.51708 0.0
C898 C 0.55436 0.53428 0.48808 0.0
O899 O 0.55399 0.58344 0.52273 0.0
O900 O 0.51433 0.56915 0.52347 0.0
O901 O 0.5998 0.57978 0.54279 0.0
O902 O 0.59003 0.5656 0.57416 0.0
O903 O 0.51226 0.5302 0.55583 0.0
O904 O 0.54132 0.56539 0.56745 0.0
O905 O 0.52685 0.49933 0.51872 0.0
O906 O 0.5572 0.51811 0.54939 0.0
O907 O 0.47642 0.50539 0.51711 0.0
O908 O 0.48312 0.52445 0.48802 0.0
C909 C 0.5329 0.58654 0.52052 0.0
O910 O 0.56842 0.53687 0.50809 0.0
O911 O 0.53269 0.5354 0.48773 0.0
C912 C 0.62695 0.56657 0.56454 0.0
C913 C 0.66462 0.54822 0.56131 0.0
C914 C 0.64124 0.53419 0.55128 0.0
C915 C 0.62255 0.54331 0.55292 0.0
C916 C 0.65 0.58036 0.57543 0.0
C917 C 0.66884 0.57117 0.57386 0.0
C918 C 0.60739 0.5764 0.56369 0.0
C919 C 0.52346 0.54865 0.57214 0.0
C920 C 0.54323 0.49826 0.53572 0.0
C921 C 0.44828 0.52235 0.50313 0.0
C922 C 0.41325 0.54237 0.51396 0.0
C923 C 0.43708 0.55389 0.52414 0.0
C924 C 0.4544 0.54378 0.51898 0.0
C925 C 0.42456 0.51108 0.49236 0.0
C926 C 0.40697 0.52099 0.49795 0.0
C927 C 0.46699 0.51203 0.4988 0.0
H928 H 0.63749 0.51663 0.54108 0.0
H929 H 0.60476 0.53253 0.54432 0.0
H930 H 0.65349 0.59834 0.58449 0.0
H931 H 0.68674 0.5822 0.58184 0.0
H932 H 0.44213 0.57014 0.53691 0.0
H933 H 0.47248 0.55236 0.52793 0.0
H934 H 0.41964 0.49449 0.48014 0.0
H935 H 0.38852 0.51188 0.49013 0.0
Dy936 Dy 0.0087 0.53801 0.03691 0.0
Dy937 Dy 0.06329 0.54364 0.02638 0.0
C938 C 0.02167 0.53893 0.98677 0.0
O939 O 1.00667 0.50077 0.02191 0.0
O940 O 0.04658 0.50401 0.02656 0.0
O941 O 0.97093 0.52799 0.02437 0.0
O942 O 0.98521 0.54328 0.06116 0.0
O943 O 0.0601 0.55425 0.0633 0.0
O944 O 0.02692 0.52484 0.06528 0.0
O945 O 0.06098 0.58132 0.02754 0.0
O946 O 0.02994 0.57687 0.04887 0.0
O947 O 0.09747 0.54482 0.04402 0.0
O948 O 0.09303 0.54792 0.00698 0.0
C949 C 0.02379 0.4909 0.02195 0.0
O950 O 0.01421 0.55066 0.00308 0.0
O951 O 0.03914 0.53052 0.99209 0.0
C952 C 0.95262 0.55353 0.04389 0.0
C953 C 0.92653 0.58585 0.04402 0.0
C954 C 0.93344 0.57759 0.0231 0.0
C955 C 0.94645 0.56163 0.02303 0.0
C956 C 0.94557 0.56168 0.06473 0.0
C957 C 0.93271 0.57775 0.06483 0.0
C958 C 0.96666 0.53699 0.04449 0.0
C959 C 0.04825 0.53847 0.07471 0.0
C960 C 0.04779 0.59057 0.04032 0.0
C961 C 0.12011 0.52773 0.02065 0.0
C962 C 0.14702 0.49629 0.01334 0.0
C963 C 0.13891 0.49977 0.03488 0.0
C964 C 0.12566 0.5153 0.03851 0.0
C965 C 0.12832 0.52435 -0.00082 0.0
C966 C 0.14159 0.50882 0.99556 0.0
C967 C 0.10692 0.54501 0.02484 0.0
H968 H 0.9291 0.58375 0.00686 0.0
H969 H 0.95176 0.55578 0.0067 0.0
H970 H 0.95008 0.55565 0.081 0.0
H971 H 0.92737 0.58361 0.08114 0.0
H972 H 0.14253 0.49025 0.04888 0.0
H973 H 0.11985 0.51759 0.05541 0.0
H974 H 0.12468 0.53389 0.98522 0.0
H975 H 0.14791 0.50691 0.97889 0.0
H976 H 0.97269 0.18703 0.98239 0.0
H977 H 0.04439 0.23318 0.98222 0.0
H978 H 0.06053 0.20189 0.99399 0.0
H979 H 0.98568 0.15774 0.03124 0.0
H980 H 0.96597 0.12854 0.01784 0.0
H981 H 0.9596 0.15464 0.01027 0.0
H982 H 0.9585 0.13966 0.9662 0.0
H983 H 0.9648 0.1135 0.97372 0.0
H984 H 0.98376 0.1324 0.95704 0.0
H985 H 0.06937 0.1664 0.00742 0.0
H986 H 0.07067 0.12817 0.01767 0.0
H987 H 0.99324 0.10148 0.00636 0.0
C988 C 0.99181 0.19055 0.98486 0.0
C989 C 1.00728 0.21297 0.98145 0.0
C990 C 0.03211 0.21644 0.98459 0.0
C991 C 0.04146 0.19869 0.9914 0.0
C992 C 0.02585 0.17697 0.99459 0.0
C993 C 1.00149 0.17258 0.99105 0.0
C994 C 0.98878 0.14703 0.99453 0.0
C995 C 0.97414 0.147 0.01467 0.0
C996 C 0.97302 0.13228 0.9715 0.0
C997 C 0.0098 0.13797 0.00106 0.0
C998 C 0.03096 0.15578 0.00114 0.0
C999 C 0.05287 0.15234 0.00719 0.0
C1000 C 0.05336 0.13032 0.01312 0.0
C1001 C 0.03212 0.11126 0.0129 0.0
C1002 C 0.00991 0.11533 0.00662 0.0
H1003 H 0.14107 0.78537 0.14788 0.0
H1004 H 0.14503 0.8585 0.17052 0.0
H1005 H 0.17739 0.86222 0.20339 0.0
H1006 H 0.15093 0.77267 0.20817 0.0
H1007 H 0.1673 0.75268 0.20028 0.0
H1008 H 0.14462 0.75603 0.17874 0.0
H1009 H 0.1754 0.76705 0.15063 0.0
H1010 H 0.19823 0.76389 0.17207 0.0
H1011 H 0.20269 0.79141 0.16071 0.0
H1012 H 0.20961 0.85776 0.23424 0.0
H1013 H 0.23801 0.84547 0.26047 0.0
H1014 H 0.21371 0.77512 0.21803 0.0
C1015 C 0.14878 0.80216 0.15981 0.0
C1016 C 0.14055 0.82173 0.15656 0.0
C1017 C 0.15093 0.84329 0.17268 0.0
C1018 C 0.16939 0.84555 0.19138 0.0
C1019 C 0.17713 0.82595 0.19409 0.0
C1020 C 0.16693 0.80456 0.17888 0.0
C1021 C 0.17792 0.78598 0.18615 0.0
C1022 C 0.15907 0.76563 0.19378 0.0
C1023 C 0.18924 0.77654 0.1662 0.0
C1024 C 0.19672 0.80047 0.20716 0.0
C1025 C 0.19564 0.8234 0.21169 0.0
C1026 C 0.21052 0.83985 0.23075 0.0
C1027 C 0.22662 0.8327 0.24563 0.0
C1028 C 0.22825 0.8094 0.24135 0.0
C1029 C 0.21316 0.79316 0.22164 0.0
H1030 H 0.50004 0.85013 0.51911 0.0
H1031 H 0.5234 0.84978 0.45091 0.0
H1032 H 0.52898 0.8926 0.4541 0.0
H1033 H 0.46824 0.89215 0.51351 0.0
H1034 H 0.47775 0.90762 0.54346 0.0
H1035 H 0.47586 0.87677 0.53659 0.0
H1036 H 0.51998 0.88696 0.55552 0.0
H1037 H 0.52191 0.9178 0.56266 0.0
H1038 H 0.5426 0.90962 0.54569 0.0
H1039 H 0.53091 0.93532 0.46336 0.0
H1040 H 0.53256 0.97603 0.47992 0.0
H1041 H 0.50934 0.95129 0.54301 0.0
C1042 C 0.50664 0.8591 0.50497 0.0
C1043 C 0.51135 0.84611 0.4847 0.0
C1044 C 0.51981 0.85889 0.46669 0.0
C1045 C 0.52292 0.88339 0.46827 0.0
C1046 C 0.51783 0.89546 0.48814 0.0
C1047 C 0.51025 0.88393 0.50642 0.0
C1048 C 0.5066 0.90162 0.526 0.0
C1049 C 0.48056 0.89409 0.53013 0.0
C1050 C 0.5238 0.90415 0.54882 0.0
C1051 C 0.5129 0.92467 0.51564 0.0
C1052 C 0.51927 0.92051 0.49371 0.0
C1053 C 0.52601 0.93874 0.48053 0.0
C1054 C 0.5268 0.96186 0.49004 0.0
C1055 C 0.52083 0.96697 0.51259 0.0
C1056 C 0.51362 0.94796 0.52554 0.0
H1057 H 0.47893 0.30614 0.62756 0.0
H1058 H 0.53423 0.28636 0.66774 0.0
H1059 H 0.50908 0.27729 0.69839 0.0
H1060 H 0.46148 0.33483 0.67659 0.0
H1061 H 0.43012 0.32446 0.66462 0.0
H1062 H 0.45192 0.32831 0.64514 0.0
H1063 H 0.43234 0.28444 0.62465 0.0
H1064 H 0.41042 0.28043 0.64403 0.0
H1065 H 0.42843 0.26098 0.64209 0.0
H1066 H 0.47886 0.27162 0.72533 0.0
H1067 H 0.44549 0.26998 0.74711 0.0
H1068 H 0.4092 0.29309 0.68974 0.0
C1069 C 0.48571 0.29976 0.64272 0.0
C1070 C 0.50862 0.29699 0.64517 0.0
C1071 C 0.51679 0.28868 0.66539 0.0
C1072 C 0.50262 0.28342 0.68292 0.0
C1073 C 0.48025 0.28651 0.68004 0.0
C1074 C 0.47178 0.29442 0.66046 0.0
C1075 C 0.44729 0.29675 0.66206 0.0
C1076 C 0.44774 0.32263 0.66211 0.0
C1077 C 0.42851 0.27963 0.64202 0.0
C1078 C 0.44353 0.28928 0.68577 0.0
C1079 C 0.46272 0.28326 0.6957 0.0
C1080 C 0.46365 0.27611 0.71765 0.0
C1081 C 0.44449 0.27511 0.72985 0.0
C1082 C 0.42456 0.28123 0.72014 0.0
C1083 C 0.42419 0.28842 0.69775 0.0
H1084 H 1.00453 0.80885 0.61946 0.0
H1085 H 0.06221 0.83511 0.67907 0.0
H1086 H 0.07753 0.87236 0.66336 0.0
H1087 H 0.03885 0.83387 0.57592 0.0
H1088 H 0.0146 0.84107 0.56031 0.0
H1089 H 0.00842 0.8163 0.57606 0.0
H1090 H 0.98189 0.83447 0.59964 0.0
H1091 H 0.98805 0.85932 0.584 0.0
H1092 H 0.99418 0.86444 0.61574 0.0
H1093 H 0.08666 0.9069 0.64106 0.0
H1094 H 0.08841 0.93625 0.61421 0.0
H1095 H 0.02468 0.88763 0.56934 0.0
C1096 C 0.02041 0.82238 0.62922 0.0
C1097 C 0.03213 0.81897 0.65054 0.0
C1098 C 0.05286 0.83723 0.66272 0.0
C1099 C 0.06174 0.85849 0.65393 0.0
C1100 C 0.04972 0.86127 0.63291 0.0
C1101 C 0.02951 0.84372 0.6207 0.0
C1102 C 0.01981 0.85127 0.59863 0.0
C1103 C 0.02047 0.83464 0.57642 0.0
C1104 C 0.99448 0.85245 0.59957 0.0
C1105 C 0.03762 0.87585 0.6004 0.0
C1106 C 0.05482 0.88124 0.62023 0.0
C1107 C 0.07329 0.90284 0.62548 0.0
C1108 C 0.07421 0.91936 0.61006 0.0
C1109 C 0.0567 0.91427 0.58968 0.0
C1110 C 0.03817 0.89218 0.58491 0.0
H1111 H 0.45636 0.80857 0.85344 0.0
H1112 H 0.49532 0.83086 0.79713 0.0
H1113 H 0.45716 0.82873 0.7727 0.0
H1114 H 0.40322 0.76724 0.81789 0.0
H1115 H 0.38395 0.77526 0.83686 0.0
H1116 H 0.4141 0.77794 0.84888 0.0
H1117 H 0.4218 0.82231 0.86561 0.0
H1118 H 0.39173 0.81983 0.85344 0.0
H1119 H 0.41654 0.84209 0.84604 0.0
H1120 H 0.41347 0.82627 0.75552 0.0
H1121 H 0.36997 0.82024 0.74647 0.0
H1122 H 0.36081 0.79833 0.81409 0.0
C1123 C 0.4571 0.81285 0.83588 0.0
C1124 C 0.47915 0.8199 0.82731 0.0
C1125 C 0.47884 0.82527 0.80416 0.0
C1126 C 0.45719 0.82425 0.79023 0.0
C1127 C 0.43593 0.81774 0.79961 0.0
C1128 C 0.43586 0.8119 0.82191 0.0
C1129 C 0.41103 0.8057 0.82843 0.0
C1130 C 0.40259 0.78 0.83329 0.0
C1131 C 0.41024 0.82354 0.84963 0.0
C1132 C 0.39675 0.80843 0.80617 0.0
C1133 C 0.41137 0.81578 0.7898 0.0
C1134 C 0.40202 0.82031 0.76822 0.0
C1135 C 0.37729 0.81692 0.76323 0.0
C1136 C 0.36204 0.80868 0.77951 0.0
C1137 C 0.37203 0.80447 0.80124 0.0
H1138 H 0.52656 0.20963 0.13524 0.0
H1139 H 0.49353 0.16572 0.18415 0.0
H1140 H 0.49555 0.1301 0.15932 0.0
H1141 H 0.49785 0.16508 0.08077 0.0
H1142 H 0.52414 0.17279 0.06704 0.0
H1143 H 0.51841 0.19501 0.08743 0.0
H1144 H 0.55988 0.20316 0.11234 0.0
H1145 H 0.56563 0.18083 0.09215 0.0
H1146 H 0.56759 0.17888 0.12306 0.0
H1147 H 0.50306 0.09956 0.13129 0.0
H1148 H 0.51404 0.07492 0.10043 0.0
H1149 H 0.54286 0.13712 0.06814 0.0
C1150 C 0.51923 0.19243 0.14038 0.0
C1151 C 0.50965 0.19056 0.1617 0.0
C1152 C 0.50083 0.16773 0.16799 0.0
C1153 C 0.50193 0.14732 0.15397 0.0
C1154 C 0.51196 0.14979 0.13353 0.0
C1155 C 0.52031 0.17165 0.12651 0.0
C1156 C 0.53106 0.16905 0.10405 0.0
C1157 C 0.51702 0.17589 0.08361 0.0
C1158 C 0.55762 0.18386 0.10816 0.0
C1159 C 0.52774 0.14244 0.09986 0.0
C1160 C 0.51656 0.13184 0.11714 0.0
C1161 C 0.51169 0.10763 0.11758 0.0
C1162 C 0.51812 0.09375 0.09985 0.0
C1163 C 0.52943 0.10386 0.08161 0.0
C1164 C 0.53434 0.12871 0.08176 0.0
H1165 H 0.12505 0.33397 0.29255 0.0
H1166 H 0.12513 0.31434 0.36213 0.0
H1167 H 0.1622 0.30433 0.35888 0.0
H1168 H 0.14762 0.28851 0.26646 0.0
H1169 H 0.16594 0.30737 0.24929 0.0
H1170 H 0.13932 0.31292 0.25677 0.0
H1171 H 0.16416 0.35617 0.27584 0.0
H1172 H 0.19077 0.3507 0.26825 0.0
H1173 H 0.18955 0.36132 0.29841 0.0
H1174 H 0.19868 0.29416 0.34706 0.0
H1175 H 0.23314 0.28876 0.32964 0.0
H1176 H 0.21198 0.31768 0.26885 0.0
C1177 C 0.13289 0.32771 0.30723 0.0
C1178 C 0.12179 0.32504 0.32772 0.0
C1179 C 0.133 0.31674 0.34633 0.0
C1180 C 0.15413 0.31088 0.34457 0.0
C1181 C 0.16439 0.31354 0.32414 0.0
C1182 C 0.1543 0.32207 0.30589 0.0
C1183 C 0.16924 0.32368 0.28602 0.0
C1184 C 0.15466 0.30714 0.26329 0.0
C1185 C 0.17901 0.34951 0.28189 0.0
C1186 C 0.18938 0.31492 0.29597 0.0
C1187 C 0.18596 0.30877 0.31783 0.0
C1188 C 0.20156 0.29923 0.3301 0.0
C1189 C 0.22113 0.29616 0.32001 0.0
C1190 C 0.22557 0.303 0.298 0.0
C1191 C 0.20934 0.31255 0.28585 0.0
H1192 H 0.98727 0.07059 0.19832 0.0
H1193 H 0.01586 0.01389 0.21323 0.0
H1194 H 0.02844 0.01169 0.17477 0.0
H1195 H 0.96573 0.04895 0.13691 0.0
H1196 H 0.9751 0.07749 0.12746 0.0
H1197 H 0.96829 0.07566 0.15678 0.0
H1198 H 0.01027 0.10522 0.17433 0.0
H1199 H 0.01718 0.10716 0.14503 0.0
H1200 H 0.0363 0.09871 0.16636 0.0
H1201 H 0.03569 0.01264 0.13461 0.0
H1202 H 0.0401 0.01927 0.09406 0.0
H1203 H 0.01005 0.07698 0.1033 0.0
C1204 C 0.99639 0.05793 0.1935 0.0
C1205 C 1.00064 0.04254 0.2091 0.0
C1206 C 0.0126 0.02617 0.202 0.0
C1207 C 0.01979 0.02462 0.18001 0.0
C1208 C 0.01539 0.03982 0.16512 0.0
C1209 C 1.00435 0.05645 0.17147 0.0
C1210 C 1.00248 0.07075 0.15168 0.0
C1211 C 0.97634 0.06804 0.14268 0.0
C1212 C 0.01744 0.09702 0.15984 0.0
C1213 C 0.0133 0.05882 0.13314 0.0
C1214 C 0.02062 0.04105 0.14155 0.0
C1215 C 0.03034 0.0267 0.12786 0.0
C1216 C 0.03273 0.03055 0.10488 0.0
C1217 C 0.0256 0.04867 0.09577 0.0
C1218 C 0.01586 0.06317 0.11006 0.0
H1219 H 0.26498 0.71603 0.5143 0.0
H1220 H 0.30957 0.67833 0.48425 0.0
H1221 H 0.31595 0.7049 0.45438 0.0
H1222 H 0.23593 0.72335 0.46378 0.0
H1223 H 0.23521 0.75275 0.47454 0.0
H1224 H 0.23692 0.73267 0.49478 0.0
H1225 H 0.27527 0.76408 0.51899 0.0
H1226 H 0.27384 0.78428 0.49858 0.0
H1227 H 0.30044 0.77606 0.50464 0.0
H1228 H 0.3131 0.73185 0.42554 0.0
H1229 H 0.29877 0.75509 0.39818 0.0
H1230 H 0.25855 0.77667 0.44933 0.0
C1231 C 0.27671 0.71372 0.50196 0.0
C1232 C 0.28716 0.69547 0.50182 0.0
C1233 C 0.30156 0.69241 0.4847 0.0
C1234 C 0.30549 0.70755 0.46792 0.0
C1235 C 0.29529 0.72576 0.46897 0.0
C1236 C 0.28124 0.72889 0.48561 0.0
C1237 C 0.27048 0.74826 0.48188 0.0
C1238 C 0.24303 0.73867 0.47853 0.0
C1239 C 0.28062 0.76943 0.50223 0.0
C1240 C 0.27934 0.75454 0.45949 0.0
C1241 C 0.29413 0.74179 0.45261 0.0
C1242 C 0.30208 0.74237 0.43099 0.0
C1243 C 0.29385 0.7555 0.4156 0.0
C1244 C 0.27781 0.76759 0.42203 0.0
C1245 C 0.27133 0.768 0.44452 0.0
H1246 H 0.65715 0.09583 0.67545 0.0
H1247 H 0.65741 0.02358 0.67813 0.0
H1248 H 0.62741 0.00923 0.64196 0.0
H1249 H 0.59958 0.08188 0.66752 0.0
H1250 H 0.59595 0.10254 0.64832 0.0
H1251 H 0.6233 0.10927 0.66843 0.0
H1252 H 0.64833 0.1135 0.63457 0.0
H1253 H 0.62127 0.10851 0.61433 0.0
H1254 H 0.64001 0.09023 0.6092 0.0
H1255 H 0.59123 1.00188 0.61157 0.0
H1256 H 0.55617 0.0035 0.58482 0.0
H1257 H 0.57767 0.07989 0.60704 0.0
C1258 C 0.65171 0.07712 0.6679 0.0
C1259 C 0.65907 0.06072 0.67967 0.0
C1260 C 0.65169 0.0364 0.66933 0.0
C1261 C 0.63467 0.02808 0.64885 0.0
C1262 C 0.62562 0.04444 0.63923 0.0
C1263 C 0.63435 0.06858 0.6481 0.0
C1264 C 0.61914 0.08201 0.63764 0.0
C1265 C 0.6089 0.09464 0.65662 0.0
C1266 C 0.63301 0.09959 0.62305 0.0
C1267 C 0.59995 0.06158 0.62229 0.0
C1268 C 0.60402 0.04007 0.62301 0.0
C1269 C 0.58798 0.01865 0.61063 0.0
C1270 C 0.56791 0.01961 0.59605 0.0
C1271 C 0.5644 0.04178 0.59457 0.0
C1272 C 0.58004 0.06275 0.60837 0.0
H1273 H 0.2829 0.35935 0.95817 0.0
H1274 H 0.29064 0.2949 0.98039 0.0
H1275 H 0.29227 0.27904 0.93953 0.0
H1276 H 0.24662 0.33072 0.89923 0.0
H1277 H 0.26141 0.35523 0.88538 0.0
H1278 H 0.25825 0.36046 0.91594 0.0
H1279 H 0.30404 0.38053 0.92693 0.0
H1280 H 0.30737 0.37487 0.89649 0.0
H1281 H 0.3236 0.36415 0.91846 0.0
H1282 H 0.29782 0.272 0.89746 0.0
H1283 H 0.30143 0.27187 0.85548 0.0
H1284 H 0.28898 0.34014 0.85944 0.0
C1285 C 0.2841 0.34157 0.95426 0.0
C1286 C 0.28644 0.32827 0.97251 0.0
C1287 C 0.28871 0.30536 0.96674 0.0
C1288 C 0.28976 0.29623 0.94357 0.0
C1289 C 0.28848 0.31015 0.9262 0.0
C1290 C 0.28527 0.33215 0.9311 0.0
C1291 C 0.28552 0.34383 0.90924 0.0
C1292 C 0.26151 0.34779 0.90202 0.0
C1293 C 0.30637 0.36723 0.91301 0.0
C1294 C 0.28935 0.32501 0.8914 0.0
C1295 C 0.29128 0.30585 0.90168 0.0
C1296 C 0.29601 0.28676 0.88914 0.0
C1297 C 0.29826 0.28695 0.86533 0.0
C1298 C 0.29544 0.30595 0.85412 0.0
C1299 C 0.29106 0.32529 0.86747 0.0
H1300 H 0.9996 0.06698 0.34911 0.0
H1301 H 0.96813 0.99041 0.32752 0.0
H1302 H 0.9766 0.98452 0.36817 0.0
H1303 H 0.0472 0.06465 0.39185 0.0
H1304 H 0.04636 0.08879 0.41336 0.0
H1305 H 0.03682 0.08806 0.38254 0.0
H1306 H 0.99592 0.09059 0.39132 0.0
H1307 H 1.00547 0.0915 0.4222 0.0
H1308 H 0.97847 0.06908 0.40689 0.0
H1309 H 0.99008 0.98556 0.40957 0.0
H1310 H 1.006 0.99399 0.4518 0.0
H1311 H 0.02884 0.06985 0.44938 0.0
C1312 C 0.99422 0.04908 0.35311 0.0
C1313 C 0.98337 0.02914 0.33498 0.0
C1314 C 0.97676 0.00597 0.34093 0.0
C1315 C 0.98141 1.00236 0.36405 0.0
C1316 C 0.99268 0.02209 0.38136 0.0
C1317 C 0.99888 0.04505 0.37647 0.0
C1318 C 0.01136 0.06278 0.39888 0.0
C1319 C 0.03696 0.07691 0.39651 0.0
C1320 C 0.99694 0.07948 0.40519 0.0
C1321 C 0.01126 0.04606 0.41674 0.0
C1322 C 1.00039 0.0227 0.40603 0.0
C1323 C 0.99849 0.00379 0.4183 0.0
C1324 C 0.00772 0.0088 0.44233 0.0
C1325 C 0.01868 0.03257 0.45406 0.0
C1326 C 0.02048 0.05148 0.44099 0.0
H1327 H 0.28265 0.69799 0.60835 0.0
H1328 H 0.35722 0.73695 0.61316 0.0
H1329 H 0.36128 0.74499 0.65626 0.0
H1330 H 0.26719 0.73261 0.63745 0.0
H1331 H 0.24742 0.71591 0.65506 0.0
H1332 H 0.25222 0.70105 0.62836 0.0
H1333 H 0.26607 0.67138 0.65042 0.0
H1334 H 0.26056 0.68573 0.67747 0.0
H1335 H 0.28936 0.68216 0.67575 0.0
H1336 H 0.35358 0.76472 0.69118 0.0
H1337 H 0.33629 0.78808 0.71743 0.0
H1338 H 0.26615 0.73671 0.69282 0.0
C1339 C 0.30011 0.7064 0.61885 0.0
C1340 C 0.31969 0.71662 0.60792 0.0
C1341 C 0.34223 0.72866 0.62152 0.0
C1342 C 0.34461 0.73327 0.64604 0.0
C1343 C 0.32427 0.72555 0.65643 0.0
C1344 C 0.3025 0.71127 0.64338 0.0
C1345 C 0.28237 0.71009 0.65748 0.0
C1346 C 0.26112 0.71529 0.64376 0.0
C1347 C 0.27412 0.6859 0.66578 0.0
C1348 C 0.29538 0.72957 0.67807 0.0
C1349 C 0.31973 0.73729 0.67786 0.0
C1350 C 0.33477 0.75815 0.69218 0.0
C1351 C 0.32473 0.77162 0.70666 0.0
C1352 C 0.29991 0.76414 0.70672 0.0
C1353 C 0.28524 0.74249 0.69301 0.0
H1354 H 0.65053 0.11022 0.8112 0.0
H1355 H 0.63017 0.03338 0.79248 0.0
H1356 H 0.60665 0.02895 0.82515 0.0
H1357 H 0.65869 0.111 0.87324 0.0
H1358 H 0.64815 0.13607 0.87957 0.0
H1359 H 0.66218 0.13292 0.85403 0.0
H1360 H 0.62492 0.13488 0.8273 0.0
H1361 H 0.6108 0.13813 0.85277 0.0
H1362 H 0.59598 0.1144 0.82837 0.0
H1363 H 0.58645 0.03326 0.86036 0.0
H1364 H 0.57149 0.04588 0.89616 0.0
H1365 H 0.60619 0.11989 0.89168 0.0
C1366 C 0.64085 0.09245 0.81375 0.0
C1367 C 0.64183 0.07212 0.79928 0.0
C1368 C 0.62948 0.04914 0.80345 0.0
C1369 C 0.6161 0.04648 0.82186 0.0
C1370 C 0.61565 0.06698 0.83591 0.0
C1371 C 0.62784 0.08949 0.83215 0.0
C1372 C 0.62563 0.10867 0.85043 0.0
C1373 C 0.65011 0.123 0.86519 0.0
C1374 C 0.6136 0.12497 0.83903 0.0
C1375 C 0.60976 0.09348 0.86482 0.0
C1376 C 0.60431 0.06947 0.85627 0.0
C1377 C 0.59051 0.05199 0.86716 0.0
C1378 C 0.58218 0.05929 0.88743 0.0
C1379 C 0.58768 0.08381 0.89639 0.0
C1380 C 0.60148 0.10107 0.88487 0.0
H1381 H 0.2747 0.31235 0.09918 0.0
H1382 H 0.29578 0.38925 0.11615 0.0
H1383 H 0.29423 0.38649 0.15818 0.0
H1384 H 0.23262 0.30216 0.14361 0.0
H1385 H 0.23931 0.27579 0.14984 0.0
H1386 H 0.24044 0.28376 0.1209 0.0
H1387 H 0.28383 0.28294 0.12375 0.0
H1388 H 0.28297 0.27521 0.15273 0.0
H1389 H 0.30593 0.30113 0.14822 0.0
H1390 H 0.29588 0.37581 0.1985 0.0
H1391 H 0.2958 0.35789 0.23451 0.0
H1392 H 0.26975 0.28735 0.19214 0.0
C1393 C 0.27834 0.32852 0.11173 0.0
C1394 C 0.28513 0.35105 0.10446 0.0
C1395 C 0.29009 0.37185 0.12132 0.0
C1396 C 0.2894 0.37045 0.14524 0.0
C1397 C 0.28302 0.34804 0.15195 0.0
C1398 C 0.27691 0.32739 0.13565 0.0
C1399 C 0.27066 0.30561 0.14771 0.0
C1400 C 0.24418 0.29096 0.14006 0.0
C1401 C 0.28683 0.29033 0.14281 0.0
C1402 C 0.27561 0.31729 0.17344 0.0
C1403 C 0.28265 0.34181 0.17537 0.0
C1404 C 0.28985 0.35665 0.1972 0.0
C1405 C 0.28983 0.34627 0.21761 0.0
C1406 C 0.28244 0.32122 0.21626 0.0
C1407 C 0.27498 0.30654 0.19379 0.0
H1408 H 0.22592 0.96235 0.98378 0.0
H1409 H 0.24627 0.94009 0.04948 0.0
H1410 H 0.22426 0.96334 0.06988 0.0
H1411 H 0.23297 0.02151 0.00812 0.0
H1412 H 0.20804 0.0228 0.98804 0.0
H1413 H 0.22445 0.00315 0.97939 0.0
H1414 H 0.18442 0.96778 0.97051 0.0
H1415 H 0.1685 0.9877 0.97991 0.0
H1416 H 0.16666 0.9618 0.99354 0.0
H1417 H 0.20193 0.99094 0.08336 0.0
H1418 H 0.17881 0.01911 0.08808 0.0
H1419 H 0.1753 0.02352 0.01366 0.0
C1420 C 0.2255 0.96206 0.00237 0.0
C1421 C 0.23775 0.94954 0.01504 0.0
C1422 C 0.23691 0.94966 0.03942 0.0
C1423 C 0.22452 0.96278 0.05118 0.0
C1424 C 0.21314 0.97549 0.03822 0.0
C1425 C 0.21339 0.97506 0.01435 0.0
C1426 C 0.20057 0.99083 0.00453 0.0
C1427 C 0.21753 0.01075 0.99444 0.0
C1428 C 0.17874 0.97614 0.98604 0.0
C1429 C 0.19335 1.0005 0.02668 0.0
C1430 C 0.20062 0.99144 0.04597 0.0
C1431 C 0.19605 0.99813 0.06839 0.0
C1432 C 0.18321 0.01423 0.07096 0.0
C1433 C 0.17538 0.02324 0.05119 0.0
C1434 C 0.1809 0.01659 0.02897 0.0
H1435 H 0.69205 0.66452 0.98958 0.0
H1436 H 0.73946 0.65033 0.04447 0.0
H1437 H 0.70606 0.61739 0.05202 0.0
H1438 H 0.64234 0.65542 0.01557 0.0
H1439 H 0.62067 0.6397 0.98982 0.0
H1440 H 0.64873 0.6602 0.98658 0.0
H1441 H 0.6572 0.627 0.95918 0.0
H1442 H 0.62895 0.60642 0.96213 0.0
H1443 H 0.65606 0.59933 0.96918 0.0
H1444 H 0.66688 0.58934 0.05675 0.0
H1445 H 0.62479 0.56634 0.05665 0.0
H1446 H 0.60298 0.59788 0.99791 0.0
C1447 C 0.69544 0.65404 0.00275 0.0
C1448 C 0.71826 0.65979 0.01636 0.0
C1449 C 0.72214 0.6459 0.0336 0.0
C1450 C 0.70328 0.62723 0.03807 0.0
C1451 C 0.68084 0.62229 0.0247 0.0
C1452 C 0.67693 0.6349 0.007 0.0
C1453 C 0.65096 0.62626 0.99561 0.0
C1454 C 0.64004 0.64662 0.99701 0.0
C1455 C 0.64813 0.61403 0.97001 0.0
C1456 C 0.64061 0.60831 0.01096 0.0
C1457 C 0.65823 0.60585 0.02726 0.0
C1458 C 0.65296 0.59081 0.04382 0.0
C1459 C 0.62902 0.57785 0.04365 0.0
C1460 C 0.61069 0.58035 0.02729 0.0
C1461 C 0.61664 0.59568 0.01067 0.0
H1462 H 0.68499 0.49574 0.31567 0.0
H1463 H 0.64842 0.49031 0.24484 0.0
H1464 H 0.66771 0.46136 0.2301 0.0
H1465 H 0.74019 0.49279 0.29954 0.0
H1466 H 0.7455 0.47524 0.32148 0.0
H1467 H 0.72826 0.49499 0.32661 0.0
H1468 H 0.6933 0.4598 0.33362 0.0
H1469 H 0.71044 0.43992 0.32847 0.0
H1470 H 0.68129 0.43353 0.31135 0.0
H1471 H 0.69157 0.43382 0.2228 0.0
H1472 H 0.71844 0.40941 0.2234 0.0
H1473 H 0.73986 0.43284 0.2989 0.0
C1474 C 0.68094 0.48841 0.29707 0.0
C1475 C 0.66514 0.49536 0.28144 0.0
C1476 C 0.66041 0.48531 0.2572 0.0
C1477 C 0.67127 0.46882 0.24864 0.0
C1478 C 0.68679 0.46247 0.26451 0.0
C1479 C 0.6916 0.4719 0.28822 0.0
C1480 C 0.70925 0.46232 0.30146 0.0
C1481 C 0.73216 0.48254 0.31294 0.0
C1482 C 0.69788 0.44804 0.31981 0.0
C1483 C 0.7138 0.44623 0.28144 0.0
C1484 C 0.70059 0.44654 0.2603 0.0
C1485 C 0.70201 0.43343 0.23924 0.0
C1486 C 0.71746 0.41974 0.23975 0.0
C1487 C 0.7314 0.41927 0.26116 0.0
C1488 C 0.7293 0.4326 0.28229 0.0
H1489 H 0.864 0.45208 0.49775 0.0
H1490 H 0.84683 0.49686 0.553 0.0
H1491 H 0.88421 0.5294 0.55201 0.0
H1492 H 0.9225 0.46643 0.51974 0.0
H1493 H 0.9327 0.46504 0.49169 0.0
H1494 H 0.90288 0.44782 0.49387 0.0
H1495 H 0.88604 0.46752 0.46149 0.0
H1496 H 0.91594 0.4849 0.4592 0.0
H1497 H 0.89422 0.49951 0.46507 0.0
H1498 H 0.92656 0.55239 0.55074 0.0
H1499 H 0.96961 0.56511 0.54799 0.0
H1500 H 0.95727 0.50615 0.49143 0.0
C1501 C 0.86791 0.46903 0.50919 0.0
C1502 C 0.85308 0.47232 0.52552 0.0
C1503 C 0.85833 0.49436 0.54042 0.0
C1504 C 0.87931 0.51281 0.53983 0.0
C1505 C 0.89411 0.50874 0.52389 0.0
C1506 C 0.88841 0.48743 0.50862 0.0
C1507 C 0.90829 0.48606 0.49523 0.0
C1508 C 0.91711 0.46512 0.50047 0.0
C1509 C 0.90066 0.48442 0.46867 0.0
C1510 C 0.92659 0.50968 0.50585 0.0
C1511 C 0.91813 0.52259 0.52233 0.0
C1512 C 0.93313 0.54298 0.5373 0.0
C1513 C 0.95744 0.54999 0.53573 0.0
C1514 C 0.96613 0.53677 0.51911 0.0
C1515 C 0.95056 0.51693 0.50354 0.0
H1516 H 0.35243 0.09637 0.32611 0.0
H1517 H 0.3928 0.09435 0.26851 0.0
H1518 H 0.36875 0.11431 0.24665 0.0
H1519 H 0.29613 0.08465 0.29157 0.0
H1520 H 0.28678 0.105 0.31084 0.0
H1521 H 0.30771 0.09128 0.32266 0.0
H1522 H 0.33813 0.13275 0.34048 0.0
H1523 H 0.31707 0.1466 0.32924 0.0
H1524 H 0.34666 0.15474 0.32172 0.0
H1525 H 0.33938 0.13251 0.23021 0.0
H1526 H 0.31036 0.15395 0.22296 0.0
H1527 H 0.28895 0.14344 0.29093 0.0
C1528 C 0.35651 0.1005 0.30909 0.0
C1529 C 0.37439 0.09376 0.29901 0.0
C1530 C 0.37921 0.09945 0.27667 0.0
C1531 C 0.36552 0.11057 0.26397 0.0
C1532 C 0.34736 0.11604 0.27401 0.0
C1533 C 0.34315 0.1117 0.29623 0.0
C1534 C 0.32289 0.11988 0.30318 0.0
C1535 C 0.30216 0.09894 0.30729 0.0
C1536 C 0.33172 0.13967 0.32493 0.0
C1537 C 0.3163 0.12932 0.28127 0.0
C1538 C 0.33047 0.12675 0.26457 0.0
C1539 C 0.32811 0.13466 0.2431 0.0
C1540 C 0.31141 0.14653 0.23903 0.0
C1541 C 0.29749 0.15027 0.2564 0.0
C1542 C 0.29947 0.14087 0.27741 0.0
H1543 H 0.3513 0.17638 0.54173 0.0
H1544 H 0.29868 0.12577 0.48613 0.0
H1545 H 0.32104 0.09745 0.48874 0.0
H1546 H 0.40228 0.16387 0.52293 0.0
H1547 H 0.41791 0.16665 0.55224 0.0
H1548 H 0.39745 0.18311 0.54704 0.0
H1549 H 0.37412 0.16456 0.57868 0.0
H1550 H 0.39452 0.14801 0.58391 0.0
H1551 H 0.36293 0.13263 0.57623 0.0
H1552 H 0.34871 0.07524 0.49551 0.0
H1553 H 0.38171 0.05963 0.50643 0.0
H1554 H 0.41707 0.12334 0.55814 0.0
C1555 C 0.34447 0.15929 0.53021 0.0
C1556 C 0.32322 0.15331 0.51367 0.0
C1557 C 0.31492 0.13083 0.49884 0.0
C1558 C 0.32744 0.11455 0.50023 0.0
C1559 C 0.34826 0.12095 0.51654 0.0
C1560 C 0.35686 0.14271 0.53131 0.0
C1561 C 0.38022 0.14508 0.54671 0.0
C1562 C 0.40067 0.16591 0.54193 0.0
C1563 C 0.37778 0.14772 0.57294 0.0
C1564 C 0.38329 0.12128 0.53805 0.0
C1565 C 0.36453 0.10776 0.52067 0.0
C1566 C 0.36346 0.08552 0.50918 0.0
C1567 C 0.38222 0.07684 0.51542 0.0
C1568 C 0.40166 0.09032 0.53304 0.0
C1569 C 0.40218 0.11272 0.54474 0.0
H1570 H 0.69531 0.61866 0.30557 0.0
H1571 H 0.63416 0.6239 0.26043 0.0
H1572 H 0.65805 0.66273 0.25305 0.0
H1573 H 0.71708 0.67844 0.33259 0.0
H1574 H 0.74838 0.68232 0.33331 0.0
H1575 H 0.72781 0.65325 0.33329 0.0
H1576 H 0.7417 0.6363 0.29621 0.0
H1577 H 0.76255 0.66532 0.2963 0.0
H1578 H 0.74095 0.6502 0.27035 0.0
H1579 H 0.6851 0.70246 0.25497 0.0
H1580 H 0.71723 0.74097 0.26209 0.0
H1581 H 0.76319 0.71141 0.3037 0.0
C1582 C 0.68731 0.6278 0.29367 0.0
C1583 C 0.66288 0.61842 0.28363 0.0
C1584 C 0.65279 0.63094 0.26843 0.0
C1585 C 0.66621 0.65298 0.26406 0.0
C1586 C 0.68986 0.66231 0.27485 0.0
C1587 C 0.70063 0.65015 0.28901 0.0
C1588 C 0.72622 0.66528 0.2991 0.0
C1589 C 0.73009 0.6701 0.32618 0.0
C1590 C 0.74391 0.65357 0.28994 0.0
C1591 C 0.72758 0.6879 0.28902 0.0
C1592 C 0.70627 0.6856 0.27513 0.0
C1593 C 0.7021 0.70441 0.26535 0.0
C1594 C 0.72033 0.72622 0.26963 0.0
C1595 C 0.74252 0.72891 0.28323 0.0
C1596 C 0.74637 0.70952 0.29295 0.0
H1597 H 0.84507 0.48316 0.82734 0.0
H1598 H 0.81067 0.48196 0.75717 0.0
H1599 H 0.78205 0.4427 0.75793 0.0
H1600 H 0.8525 0.43402 0.81318 0.0
H1601 H 0.84941 0.42168 0.83993 0.0
H1602 H 0.85815 0.45327 0.84122 0.0
H1603 H 0.82271 0.45616 0.86179 0.0
H1604 H 0.81431 0.42453 0.86184 0.0
H1605 H 0.79287 0.43734 0.84924 0.0
H1606 H 0.76674 0.40073 0.76022 0.0
H1607 H 0.76515 0.35959 0.76409 0.0
H1608 H 0.81517 0.38556 0.82937 0.0
C1609 C 0.83014 0.47539 0.81308 0.0
C1610 C 0.82933 0.4856 0.79253 0.0
C1611 C 0.81083 0.47459 0.77333 0.0
C1612 C 0.79469 0.45218 0.77361 0.0
C1613 C 0.79787 0.44104 0.79296 0.0
C1614 C 0.81514 0.45237 0.81254 0.0
C1615 C 0.82008 0.43477 0.82753 0.0
C1616 C 0.84658 0.43602 0.83059 0.0
C1617 C 0.81199 0.43841 0.85152 0.0
C1618 C 0.80433 0.41177 0.81245 0.0
C1619 C 0.79088 0.41581 0.79319 0.0
C1620 C 0.77667 0.39735 0.77553 0.0
C1621 C 0.7761 0.37418 0.77768 0.0
C1622 C 0.79023 0.36996 0.7969 0.0
C1623 C 0.80433 0.38875 0.81457 0.0
H1624 H 0.03711 0.86511 0.0658 0.0
H1625 H 0.11429 0.891 0.08355 0.0
H1626 H 0.11462 0.93007 0.07389 0.0
H1627 H 0.03551 0.89732 0.01518 0.0
H1628 H 0.00852 0.90382 0.01975 0.0
H1629 H 0.01359 0.87761 0.02867 0.0
H1630 H 0.00782 0.89128 0.07098 0.0
H1631 H 1.00272 0.91751 0.06217 0.0
H1632 H 0.02577 0.92039 0.08652 0.0
H1633 H 0.10763 0.96691 0.06317 0.0
H1634 H 0.09403 0.99897 0.05065 0.0
H1635 H 0.0208 0.95173 0.03674 0.0
C1636 C 0.05405 0.87907 0.06782 0.0
C1637 C 0.07581 0.87462 0.07584 0.0
C1638 C 0.09742 0.89354 0.07762 0.0
C1639 C 0.0978 0.916 0.07215 0.0
C1640 C 0.07638 0.91979 0.06425 0.0
C1641 C 0.05484 0.90186 0.06175 0.0
C1642 C 0.03468 0.91099 0.05182 0.0
C1643 C 0.02233 0.89657 0.02741 0.0
C1644 C 0.01667 0.90998 0.06889 0.0
C1645 C 0.04825 0.93691 0.0499 0.0
C1646 C 0.07233 0.94129 0.05718 0.0
C1647 C 0.0888 0.96356 0.05737 0.0
C1648 C 0.08075 0.98188 0.05013 0.0
C1649 C 0.05621 0.97849 0.04244 0.0
C1650 C 0.03971 0.9553 0.04227 0.0
H1651 H 0.94531 0.29882 0.89817 0.0
H1652 H 0.90707 0.22872 0.91134 0.0
H1653 H 0.87048 0.22993 0.88738 0.0
H1654 H 0.89659 0.32168 0.90262 0.0
H1655 H 0.90253 0.34002 0.88017 0.0
H1656 H 0.92658 0.3333 0.89673 0.0
H1657 H 0.93771 0.3161 0.85812 0.0
H1658 H 0.91395 0.32308 0.8414 0.0
H1659 H 0.9152 0.29307 0.8373 0.0
H1660 H 0.83657 0.24104 0.86742 0.0
H1661 H 0.80917 0.25804 0.84574 0.0
H1662 H 0.86874 0.31891 0.84044 0.0
C1663 C 0.92944 0.28342 0.8953 0.0
C1664 C 0.92924 0.26343 0.90641 0.0
C1665 C 0.90779 0.24407 0.90291 0.0
C1666 C 0.88683 0.24467 0.88942 0.0
C1667 C 0.88733 0.26487 0.87948 0.0
C1668 C 0.90812 0.28376 0.88183 0.0
C1669 C 0.90323 0.30368 0.87001 0.0
C1670 C 0.9075 0.32599 0.88847 0.0
C1671 C 0.91843 0.3093 0.85054 0.0
C1672 C 0.87674 0.29264 0.85993 0.0
C1673 C 0.86785 0.27058 0.86643 0.0
C1674 C 0.84351 0.25794 0.8616 0.0
C1675 C 0.82801 0.26768 0.8492 0.0
C1676 C 0.83674 0.28931 0.84068 0.0
C1677 C 0.86153 0.30208 0.84633 0.0
H1678 H 0.56297 0.22777 0.59531 0.0
H1679 H 0.57554 0.24856 0.52776 0.0
H1680 H 0.56931 0.20661 0.5109 0.0
H1681 H 0.59497 0.18427 0.59029 0.0
H1682 H 0.57575 0.16382 0.60551 0.0
H1683 H 0.57998 0.19525 0.61219 0.0
H1684 H 0.53442 0.18689 0.60309 0.0
H1685 H 0.53006 0.15545 0.5965 0.0
H1686 H 0.51808 0.17001 0.57498 0.0
H1687 H 0.56343 0.16213 0.50143 0.0
H1688 H 0.55678 0.11898 0.49988 0.0
H1689 H 0.54746 0.1256 0.57314 0.0
C1690 C 0.56393 0.22341 0.57684 0.0
C1691 C 0.56933 0.24172 0.56277 0.0
C1692 C 0.57123 0.23511 0.53891 0.0
C1693 C 0.56777 0.21121 0.52916 0.0
C1694 C 0.56281 0.19373 0.54349 0.0
C1695 C 0.56097 0.19951 0.56688 0.0
C1696 C 0.55675 0.17737 0.57866 0.0
C1697 C 0.57813 0.18035 0.5978 0.0
C1698 C 0.53343 0.17212 0.58891 0.0
C1699 C 0.55522 0.15808 0.558 0.0
C1700 C 0.55933 0.16808 0.538 0.0
C1701 C 0.56003 0.15419 0.51699 0.0
C1702 C 0.55629 0.12959 0.51627 0.0
C1703 C 0.55133 0.11861 0.53622 0.0
C1704 C 0.55081 0.13325 0.55741 0.0
H1705 H 0.58002 0.82874 0.40705 0.0
H1706 H 0.54967 0.75195 0.39962 0.0
H1707 H 0.58125 0.74709 0.37733 0.0
H1708 H 0.59581 0.82931 0.3489 0.0
H1709 H 0.62307 0.85383 0.35825 0.0
H1710 H 0.59844 0.85138 0.37416 0.0
H1711 H 0.62597 0.85271 0.41279 0.0
H1712 H 0.65063 0.85505 0.39692 0.0
H1713 H 0.64197 0.83146 0.41392 0.0
H1714 H 0.6164 0.75048 0.35617 0.0
H1715 H 0.65079 0.76173 0.33517 0.0
H1716 H 0.65801 0.83633 0.35531 0.0
C1717 C 0.57998 0.81089 0.40072 0.0
C1718 C 0.56226 0.7907 0.40512 0.0
C1719 C 0.56288 0.76769 0.3964 0.0
C1720 C 0.58086 0.76474 0.38381 0.0
C1721 C 0.59807 0.78497 0.37987 0.0
C1722 C 0.59768 0.8076 0.38788 0.0
C1723 C 0.61793 0.82633 0.38064 0.0
C1724 C 0.60822 0.84108 0.36453 0.0
C1725 C 0.63514 0.84233 0.40236 0.0
C1726 C 0.62964 0.8107 0.3672 0.0
C1727 C 0.61805 0.78691 0.36721 0.0
C1728 C 0.6256 0.76906 0.35603 0.0
C1729 C 0.64527 0.77566 0.34425 0.0
C1730 C 0.65719 0.79992 0.34352 0.0
C1731 C 0.64921 0.81762 0.35533 0.0
H1732 H 0.0211 0.23856 0.3874 0.0
H1733 H 0.08026 0.29672 0.42807 0.0
H1734 H 0.08602 0.27065 0.4569 0.0
H1735 H 0.99568 0.21576 0.43271 0.0
H1736 H 0.98785 0.18474 0.4201 0.0
H1737 H 0.99053 0.20677 0.40117 0.0
H1738 H 0.02158 0.19228 0.3814 0.0
H1739 H 0.01864 0.16978 0.39993 0.0
H1740 H 0.0476 0.19047 0.39938 0.0
H1741 H 0.08217 0.23929 0.48331 0.0
H1742 H 0.07102 0.20448 0.50382 0.0
H1743 H 0.0141 0.16702 0.44575 0.0
C1744 C 0.03582 0.24549 0.40193 0.0
C1745 C 0.0506 0.26942 0.40535 0.0
C1746 C 0.06928 0.2782 0.42484 0.0
C1747 C 0.07247 0.26358 0.44138 0.0
C1748 C 0.05708 0.24019 0.43785 0.0
C1749 C 0.03944 0.23107 0.41832 0.0
C1750 C 0.0247 0.20567 0.41894 0.0
C1751 C 0.99812 0.20312 0.4182 0.0
C1752 C 0.02835 0.18853 0.39872 0.0
C1753 C 0.03585 0.20231 0.44258 0.0
C1754 C 0.05477 0.22227 0.45303 0.0
C1755 C 0.06761 0.22349 0.47512 0.0
C1756 C 0.06116 0.20372 0.48666 0.0
C1757 C 0.0418 0.18322 0.47629 0.0
C1758 C 0.02896 0.18255 0.45401 0.0
H1759 H 0.60189 0.27392 0.26959 0.0
H1760 H 0.5925 0.26822 0.19346 0.0
H1761 H 0.63431 0.26976 0.19415 0.0
H1762 H 0.66393 0.31688 0.27832 0.0
H1763 H 0.67421 0.30529 0.30331 0.0
H1764 H 0.64342 0.30406 0.29728 0.0
H1765 H 0.63033 0.2586 0.29676 0.0
H1766 H 0.66108 0.25971 0.30248 0.0
H1767 H 0.64146 0.24017 0.27708 0.0
H1768 H 0.67612 0.27008 0.20207 0.0
H1769 H 0.71778 0.27407 0.21735 0.0
H1770 H 0.70291 0.28142 0.28884 0.0
C1771 C 0.60879 0.27335 0.25313 0.0
C1772 C 0.59373 0.27107 0.2314 0.0
C1773 C 0.60355 0.27034 0.21032 0.0
C1774 C 0.62732 0.27098 0.21051 0.0
C1775 C 0.64153 0.27292 0.23199 0.0
C1776 C 0.63296 0.27473 0.25305 0.0
C1777 C 0.65281 0.27789 0.27366 0.0
C1778 C 0.65895 0.30249 0.28906 0.0
C1779 C 0.646 0.25789 0.28835 0.0
C1780 C 0.67337 0.27636 0.26074 0.0
C1781 C 0.66629 0.27364 0.2367 0.0
C1782 C 0.68189 0.27231 0.22085 0.0
C1783 C 0.70553 0.2745 0.2297 0.0
C1784 C 0.71358 0.27776 0.2542 0.0
C1785 C 0.69714 0.27842 0.26998 0.0
H1786 H 0.55787 0.89653 0.94347 0.0
H1787 H 0.56859 0.91776 0.87579 0.0
H1788 H 0.56743 0.9581 0.89154 0.0
H1789 H 0.51549 0.92404 0.9536 0.0
H1790 H 0.52513 0.9323 0.98498 0.0
H1791 H 0.53015 0.90672 0.96936 0.0
H1792 H 0.57546 0.92427 0.98532 0.0
H1793 H 0.57047 0.94967 0.00142 0.0
H1794 H 0.5916 0.9539 0.98121 0.0
H1795 H 0.56023 0.99576 0.91515 0.0
H1796 H 0.55201 0.02581 0.94387 0.0
H1797 H 0.5455 0.97773 0.99474 0.0
C1798 C 0.56078 0.90985 0.93208 0.0
C1799 C 0.56373 0.90395 0.90841 0.0
C1800 C 0.56692 0.9219 0.8941 0.0
C1801 C 0.56595 0.94481 0.90288 0.0
C1802 C 0.56185 0.94956 0.92607 0.0
C1803 C 0.55974 0.9325 0.94048 0.0
C1804 C 0.55414 0.94097 0.96422 0.0
C1805 C 0.52978 0.92506 0.96826 0.0
C1806 C 0.57412 0.94229 0.98422 0.0
C1807 C 0.55336 0.96552 0.96115 0.0
C1808 C 0.55772 0.97038 0.9391 0.0
C1809 C 0.55703 0.992 0.93247 0.0
C1810 C 0.55216 0.00896 0.94886 0.0
C1811 C 0.54813 0.00431 0.9717 0.0
C1812 C 0.54868 0.98214 0.97759 0.0
H1813 H 0.93893 0.73183 0.74069 0.0
H1814 H 0.97515 0.80114 0.72416 0.0
H1815 H 0.94239 0.81544 0.73504 0.0
H1816 H 0.87918 0.73013 0.71722 0.0
H1817 H 0.8652 0.71569 0.73977 0.0
H1818 H 0.892 0.71085 0.73196 0.0
H1819 H 0.91249 0.72474 0.77552 0.0
H1820 H 0.8857 0.72962 0.78336 0.0
H1821 H 0.91366 0.75349 0.7905 0.0
H1822 H 0.90623 0.82314 0.74915 0.0
H1823 H 0.86774 0.82248 0.76149 0.0
H1824 H 0.85165 0.74749 0.76569 0.0
C1825 C 0.94005 0.75006 0.73947 0.0
C1826 C 0.96007 0.76535 0.73159 0.0
C1827 C 0.96034 0.78897 0.73007 0.0
C1828 C 0.94172 0.79733 0.73632 0.0
C1829 C 0.92236 0.78191 0.74388 0.0
C1830 C 0.9212 0.75866 0.74526 0.0
C1831 C 0.89776 0.74567 0.75317 0.0
C1832 C 0.88264 0.72432 0.73441 0.0
C1833 C 0.9027 0.73791 0.77705 0.0
C1834 C 0.88584 0.76506 0.75559 0.0
C1835 C 0.90071 0.78597 0.75066 0.0
C1836 C 0.8944 0.80676 0.75279 0.0
C1837 C 0.87242 0.80623 0.7599 0.0
C1838 C 0.85633 0.78495 0.76438 0.0
C1839 C 0.86326 0.76401 0.76209 0.0
H1840 H 0.08465 0.07272 0.86096 0.0
H1841 H 0.09371 0.00389 0.84103 0.0
H1842 H 0.08282 0.99274 0.87905 0.0
H1843 H 0.11092 0.08165 0.92099 0.0
H1844 H 0.09086 0.09632 0.93181 0.0
H1845 H 0.0976 0.09798 0.90247 0.0
H1846 H 0.05251 0.08089 0.88538 0.0
H1847 H 0.0456 0.07924 0.91469 0.0
H1848 H 0.03501 0.05299 0.89234 0.0
H1849 H 0.06955 0.98904 0.91945 0.0
H1850 H 0.05925 0.99456 0.95959 0.0
H1851 H 0.06304 0.06723 0.95409 0.0
C1852 C 0.08409 0.05516 0.86441 0.0
C1853 C 0.08972 0.03903 0.84782 0.0
C1854 C 0.08931 0.01647 0.85336 0.0
C1855 C 0.0831 0.00999 0.8749 0.0
C1856 C 0.07774 0.0264 0.8909 0.0
C1857 C 0.07847 0.04863 0.88595 0.0
C1858 C 0.07318 0.06355 0.90644 0.0
C1859 C 0.09441 0.08621 0.91599 0.0
C1860 C 0.05021 0.06952 0.89928 0.0
C1861 C 0.06969 0.04646 0.92394 0.0
C1862 C 0.07183 0.0249 0.9145 0.0
C1863 C 0.06816 0.00596 0.92706 0.0
C1864 C 0.06232 0.00922 0.94981 0.0
C1865 C 0.06087 0.03143 0.96002 0.0
C1866 C 0.06461 0.05024 0.94687 0.0
H1867 H 0.80932 0.35496 0.54647 0.0
H1868 H 0.74284 0.36908 0.55293 0.0
H1869 H 0.73871 0.34763 0.58691 0.0
H1870 H 0.79776 0.29779 0.5718 0.0
H1871 H 0.82802 0.30788 0.58727 0.0
H1872 H 0.82132 0.31629 0.55907 0.0
H1873 H 0.84141 0.36066 0.57777 0.0
H1874 H 0.84764 0.35265 0.60604 0.0
H1875 H 0.83069 0.37285 0.60265 0.0
H1876 H 0.74564 0.33171 0.62369 0.0
H1877 H 0.76425 0.32552 0.66174 0.0
H1878 H 0.82897 0.32839 0.63356 0.0
C1879 C 0.79326 0.35248 0.55427 0.0
C1880 C 0.77614 0.36315 0.54703 0.0
C1881 C 0.75593 0.36063 0.55823 0.0
C1882 C 0.75341 0.34839 0.57736 0.0
C1883 C 0.77146 0.33926 0.58502 0.0
C1884 C 0.79108 0.34131 0.57382 0.0
C1885 C 0.81063 0.33539 0.58827 0.0
C1886 C 0.81466 0.31299 0.57586 0.0
C1887 C 0.83393 0.35665 0.59402 0.0
C1888 C 0.79948 0.33072 0.60989 0.0
C1889 C 0.77658 0.33218 0.60737 0.0
C1890 C 0.76346 0.33035 0.62576 0.0
C1891 C 0.77426 0.32739 0.64738 0.0
C1892 C 0.7981 0.32722 0.65061 0.0
C1893 C 0.81062 0.32827 0.63147 0.0
H1894 H 0.4465 0.05507 0.3715 0.0
H1895 H 0.40172 0.98187 0.36731 0.0
H1896 H 0.42716 0.9782 0.40236 0.0
H1897 H 0.50099 0.04607 0.38739 0.0
H1898 H 0.51435 0.07362 0.40774 0.0
H1899 H 0.49166 0.07162 0.38342 0.0
H1900 H 0.46592 0.08501 0.41205 0.0
H1901 H 0.48897 0.08789 0.43634 0.0
H1902 H 0.45886 0.06938 0.4363 0.0
H1903 H 0.45965 0.98107 0.43493 0.0
H1904 H 0.49273 0.99325 0.46873 0.0
H1905 H 0.51502 0.0647 0.45243 0.0
C1906 C 0.44168 0.03846 0.37827 0.0
C1907 C 0.42233 0.0187 0.36659 0.0
C1908 C 0.41659 0.99722 0.37596 0.0
C1909 C 0.43099 0.99488 0.39574 0.0
C1910 C 0.45078 0.01427 0.40599 0.0
C1911 C 0.45575 0.03585 0.39805 0.0
C1912 C 0.47814 0.05388 0.41223 0.0
C1913 C 0.49741 0.06175 0.39676 0.0
C1914 C 0.47263 0.0753 0.425 0.0
C1915 C 0.485 0.03903 0.4293 0.0
C1916 C 0.46924 0.0161 0.42514 0.0
C1917 C 0.47208 0.99899 0.43847 0.0
C1918 C 0.49102 0.0059 0.45729 0.0
C1919 C 0.50637 0.02966 0.46249 0.0
C1920 C 0.50366 0.0463 0.44821 0.0
H1921 H 0.7973 0.78648 0.0987 0.0
H1922 H 0.76595 0.70973 0.08912 0.0
H1923 H 0.76204 0.7123 0.13112 0.0
H1924 H 0.83226 0.79142 0.15671 0.0
H1925 H 0.82865 0.81933 0.16836 0.0
H1926 H 0.82845 0.81181 0.13725 0.0
H1927 H 0.78729 0.81801 0.12842 0.0
H1928 H 0.7873 0.82537 0.15952 0.0
H1929 H 0.76285 0.80167 0.14162 0.0
H1930 H 0.75946 0.72276 0.17316 0.0
H1931 H 0.76324 0.74035 0.21493 0.0
H1932 H 0.7996 0.81005 0.19957 0.0
C1933 C 0.78976 0.77031 0.10561 0.0
C1934 C 0.7819 0.74787 0.09076 0.0
C1935 C 0.77221 0.72704 0.10031 0.0
C1936 C 0.76979 0.72832 0.12409 0.0
C1937 C 0.77756 0.75058 0.13833 0.0
C1938 C 0.78782 0.7712 0.12969 0.0
C1939 C 0.79569 0.79262 0.14939 0.0
C1940 C 0.82288 0.80449 0.15315 0.0
C1941 C 0.78249 0.81047 0.14443 0.0
C1942 C 0.78798 0.78078 0.17021 0.0
C1943 C 0.77724 0.75654 0.16323 0.0
C1944 C 0.76801 0.74169 0.17893 0.0
C1945 C 0.77013 0.75179 0.20253 0.0
C1946 C 0.78167 0.77639 0.21026 0.0
C1947 C 0.7907 0.79113 0.19394 0.0
H1948 H 0.07512 0.07754 0.71627 0.0
H1949 H 0.08618 0.00867 0.71329 0.0
H1950 H 0.07264 1.00029 0.67024 0.0
H1951 H 0.02261 0.05965 0.66924 0.0
H1952 H 0.03225 0.08715 0.65789 0.0
H1953 H 0.04023 0.08672 0.68877 0.0
H1954 H 0.08487 0.10518 0.68589 0.0
H1955 H 0.07709 0.10563 0.65504 0.0
H1956 H 0.09782 0.09062 0.66448 0.0
H1957 H 0.06117 1.00049 0.62773 0.0
H1958 H 0.05344 0.00941 0.58786 0.0
H1959 H 0.04999 0.07855 0.61723 0.0
C1960 C 0.07417 0.06045 0.70664 0.0
C1961 C 0.08144 0.0436 0.71824 0.0
C1962 C 0.08057 0.02177 0.70486 0.0
C1963 C 0.07284 0.01683 0.68041 0.0
C1964 C 0.06616 0.03396 0.66952 0.0
C1965 C 0.06678 0.05535 0.68214 0.0
C1966 C 0.06045 0.0714 0.66582 0.0
C1967 C 0.03751 0.07653 0.67073 0.0
C1968 C 0.0813 0.09458 0.66794 0.0
C1969 C 0.0565 0.05583 0.64197 0.0
C1970 C 0.05973 0.03422 0.64467 0.0
C1971 C 0.05839 0.01723 0.62543 0.0
C1972 C 0.05408 0.02254 0.60283 0.0
C1973 C 0.05108 0.04465 0.59946 0.0
C1974 C 0.05184 0.06138 0.6193 0.0
H1975 H 0.78614 0.40724 0.41759 0.0
H1976 H 0.78162 0.35566 0.46469 0.0
H1977 H 0.77923 0.32455 0.43135 0.0
H1978 H 0.74456 0.36423 0.36665 0.0
H1979 H 0.76153 0.37828 0.3456 0.0
H1980 H 0.76038 0.39575 0.37285 0.0
H1981 H 0.80669 0.41038 0.3819 0.0
H1982 H 0.80786 0.39261 0.35492 0.0
H1983 H 0.82235 0.38879 0.38257 0.0
H1984 H 0.78256 0.30091 0.3943 0.0
H1985 H 0.78556 0.28427 0.35387 0.0
H1986 H 0.7859 0.35104 0.33122 0.0
C1987 C 0.78375 0.38917 0.42053 0.0
C1988 C 0.78356 0.38336 0.44319 0.0
C1989 C 0.7812 0.35991 0.44703 0.0
C1990 C 0.78001 0.34228 0.42836 0.0
C1991 C 0.78082 0.34855 0.40612 0.0
C1992 C 0.78204 0.37122 0.40198 0.0
C1993 C 0.78333 0.37336 0.37652 0.0
C1994 C 0.76112 0.37818 0.36471 0.0
C1995 C 0.80644 0.39241 0.37384 0.0
C1996 C 0.78342 0.34868 0.36732 0.0
C1997 C 0.78204 0.33462 0.3846 0.0
C1998 C 0.78312 0.31151 0.3804 0.0
C1999 C 0.78498 0.3023 0.35756 0.0
C2000 C 0.78553 0.31631 0.33957 0.0
C2001 C 0.78498 0.33978 0.34461 0.0
H2002 H 0.41783 0.02024 0.22676 0.0
H2003 H 0.47291 0.00984 0.27624 0.0
H2004 H 0.4938 1.00137 0.2435 0.0
H2005 H 0.41542 0.97229 0.18264 0.0
H2006 H 0.41006 0.98688 0.15812 0.0
H2007 H 0.40026 0.99425 0.18546 0.0
H2008 H 0.42419 0.0388 0.18768 0.0
H2009 H 0.43373 0.03158 0.16016 0.0
H2010 H 0.45556 0.04717 0.18581 0.0
H2011 H 0.50758 0.99265 0.20614 0.0
H2012 H 0.51548 0.98638 0.16557 0.0
H2013 H 0.45019 1.00013 0.13973 0.0
C2014 C 0.43466 0.01686 0.23065 0.0
C2015 C 0.44418 0.01604 0.25383 0.0
C2016 C 0.46568 0.01075 0.25846 0.0
C2017 C 0.47753 0.00583 0.24005 0.0
C2018 C 0.46733 0.006 0.21726 0.0
C2019 C 0.44647 0.01145 0.21242 0.0
C2020 C 0.43879 0.00917 0.18619 0.0
C2021 C 0.4147 0.98947 0.17761 0.0
C2022 C 0.43804 0.03311 0.17958 0.0
C2023 C 0.45888 1.00205 0.17715 0.0
C2024 C 0.47498 1.00016 0.1954 0.0
C2025 C 0.4951 0.99396 0.19162 0.0
C2026 C 0.49926 0.99016 0.1685 0.0
C2027 C 0.4833 0.99254 0.14953 0.0
C2028 C 0.46267 0.99821 0.15392 0.0
H2029 H 0.78137 0.7735 0.95757 0.0
H2030 H 0.81023 0.71471 0.95475 0.0
H2031 H 0.81805 0.71953 0.91444 0.0
H2032 H 0.75183 0.76036 0.89928 0.0
H2033 H 0.75873 0.79084 0.8947 0.0
H2034 H 0.75696 0.78389 0.9239 0.0
H2035 H 0.79984 0.81279 0.93872 0.0
H2036 H 0.80172 0.81998 0.90956 0.0
H2037 H 0.82392 0.80918 0.92405 0.0
H2038 H 0.8184 0.7278 0.87262 0.0
H2039 H 0.81482 0.74141 0.83414 0.0
H2040 H 0.78825 0.79647 0.86492 0.0
C2041 C 0.7897 0.76188 0.94865 0.0
C2042 C 0.79518 0.74371 0.95943 0.0
C2043 C 0.80601 0.72887 0.94702 0.0
C2044 C 0.81045 0.73142 0.92404 0.0
C2045 C 0.80437 0.74916 0.91375 0.0
C2046 C 0.79463 0.76442 0.92582 0.0
C2047 C 0.78939 0.78178 0.91064 0.0
C2048 C 0.76264 0.77904 0.90691 0.0
C2049 C 0.80463 0.80746 0.92138 0.0
C2050 C 0.79705 0.77349 0.88791 0.0
C2051 C 0.80558 0.75459 0.89004 0.0
C2052 C 0.81216 0.74287 0.8709 0.0
C2053 C 0.80999 0.75066 0.84907 0.0
C2054 C 0.80155 0.77017 0.84654 0.0
C2055 C 0.79522 0.78181 0.86637 0.0
H2056 H 0.84175 0.13095 0.0279 0.0
H2057 H 0.83088 0.11231 0.09655 0.0
H2058 H 0.85799 0.08794 0.09328 0.0
H2059 H 0.84164 0.07598 8e-05 0.0
H2060 H 0.86494 0.08743 0.98332 0.0
H2061 H 0.84659 0.10507 0.99195 0.0
H2062 H 0.88428 0.13974 0.01251 0.0
H2063 H 0.90278 0.12229 0.00366 0.0
H2064 H 0.90532 0.13425 0.0343 0.0
H2065 H 0.88365 0.06425 0.08144 0.0
H2066 H 0.90843 0.0432 0.06244 0.0
H2067 H 0.90204 0.07717 0.00122 0.0
C2068 C 0.84552 0.12199 0.04233 0.0
C2069 C 0.8347 0.12323 0.0625 0.0
C2070 C 0.83946 0.11142 0.08114 0.0
C2071 C 0.85469 0.09765 0.07938 0.0
C2072 C 0.86486 0.09636 0.05899 0.0
C2073 C 0.86074 0.10843 0.04091 0.0
C2074 C 0.87331 0.10353 0.02063 0.0
C2075 C 0.85555 0.09233 0.99765 0.0
C2076 C 0.89257 0.1263 0.01761 0.0
C2077 C 0.88429 0.08597 0.0297 0.0
C2078 C 0.87946 0.08237 0.05198 0.0
C2079 C 0.88765 0.06692 0.06407 0.0
C2080 C 0.90147 0.055 0.05316 0.0
C2081 C 0.90654 0.05852 0.03044 0.0
C2082 C 0.89787 0.07405 0.01847 0.0
H2083 H 0.38299 0.40576 0.0276 0.0
H2084 H 0.34558 0.45151 0.0576 0.0
H2085 H 0.38039 0.48687 0.0575 0.0
H2086 H 0.44116 0.43769 0.05813 0.0
H2087 H 0.45578 0.43314 0.03326 0.0
H2088 H 0.42793 0.41169 0.03569 0.0
H2089 H 0.40952 0.41639 0.99446 0.0
H2090 H 0.43734 0.43788 0.9919 0.0
H2091 H 0.4102 0.44558 0.98877 0.0
H2092 H 0.42014 0.51695 0.05568 0.0
H2093 H 0.46089 0.53957 0.0506 0.0
H2094 H 0.47103 0.47384 0.01997 0.0
C2095 C 0.38217 0.42322 0.03426 0.0
C2096 C 0.36178 0.42597 0.04289 0.0
C2097 C 0.36112 0.44909 0.05099 0.0
C2098 C 0.38077 0.46922 0.051 0.0
C2099 C 0.40065 0.46588 0.04241 0.0
C2100 C 0.40134 0.44347 0.03392 0.0
C2101 C 0.42455 0.44469 0.02516 0.0
C2102 C 0.43816 0.43099 0.03889 0.0
C2103 C 0.42013 0.4356 -0.00151 0.0
C2104 C 0.43717 0.47123 0.03075 0.0
C2105 C 0.4231 0.48319 0.04061 0.0
C2106 C 0.43125 0.50779 0.0478 0.0
C2107 C 0.45443 0.52048 0.04487 0.0
C2108 C 0.46914 0.50853 0.0348 0.0
C2109 C 0.46023 0.48358 0.02757 0.0
H2110 H 0.37362 0.56902 0.76289 0.0
H2111 H 0.4462 0.61425 0.79015 0.0
H2112 H 0.43157 0.64866 0.7987 0.0
H2113 H 0.35538 0.61086 0.73383 0.0
H2114 H 0.32554 0.60166 0.74066 0.0
H2115 H 0.34177 0.58068 0.73812 0.0
H2116 H 0.33548 0.57224 0.78013 0.0
H2117 H 0.31931 0.59332 0.78283 0.0
H2118 H 0.34488 0.59662 0.80451 0.0
H2119 H 0.40839 0.6782 0.80428 0.0
H2120 H 0.37937 0.70066 0.80278 0.0
H2121 H 0.3229 0.63587 0.77021 0.0
C2122 C 0.3865 0.58611 0.77074 0.0
C2123 C 0.41107 0.58891 0.77589 0.0
C2124 C 0.42729 0.61168 0.786 0.0
C2125 C 0.41914 0.63129 0.79103 0.0
C2126 C 0.39474 0.62782 0.78577 0.0
C2127 C 0.37873 0.6058 0.77567 0.0
C2128 C 0.35358 0.6068 0.77074 0.0
C2129 C 0.34349 0.59958 0.74427 0.0
C2130 C 0.33736 0.59132 0.78543 0.0
C2131 C 0.35793 0.63294 0.7791 0.0
C2132 C 0.38167 0.64476 0.78819 0.0
C2133 C 0.38978 0.6691 0.79715 0.0
C2134 C 0.37322 0.68168 0.79634 0.0
C2135 C 0.34905 0.66993 0.78628 0.0
C2136 C 0.34135 0.64525 0.77785 0.0
H2137 H 0.21088 0.66459 0.54406 0.0
H2138 H 0.24153 0.62559 0.5902 0.0
H2139 H 0.20258 0.59344 0.58342 0.0
H2140 H 0.15287 0.64968 0.55967 0.0
H2141 H 0.13842 0.64708 0.5299 0.0
H2142 H 0.16841 0.66683 0.53952 0.0
H2143 H 0.18208 0.64524 0.50476 0.0
H2144 H 0.15218 0.62506 0.49542 0.0
H2145 H 0.17657 0.61356 0.50174 0.0
H2146 H 0.15989 0.5659 0.57133 0.0
H2147 H 0.1168 0.54645 0.55674 0.0
H2148 H 0.11657 0.60341 0.51687 0.0
C2149 C 0.20936 0.64958 0.55321 0.0
C2150 C 0.229 0.64771 0.568 0.0
C2151 C 0.22648 0.62741 0.57904 0.0
C2152 C 0.20457 0.60905 0.57514 0.0
C2153 C 0.18574 0.61123 0.55986 0.0
C2154 C 0.18801 0.631 0.5491 0.0
C2155 C 0.16547 0.62904 0.53306 0.0
C2156 C 0.15571 0.64936 0.54103 0.0
C2157 C 0.16932 0.62817 0.50722 0.0
C2158 C 0.14978 0.60541 0.53704 0.0
C2159 C 0.16173 0.59519 0.55233 0.0
C2160 C 0.15039 0.57368 0.55924 0.0
C2161 C 0.12598 0.56276 0.55082 0.0
C2162 C 0.11341 0.57355 0.53579 0.0
C2163 C 0.12568 0.59475 0.52837 0.0
H2164 H 0.73392 0.01721 0.80228 0.0
H2165 H 0.6799 0.97861 0.7419 0.0
H2166 H 0.6956 0.94463 0.74113 0.0
H2167 H 0.77991 1.0005 0.78112 0.0
H2168 H 0.79435 0.99865 0.8096 0.0
H2169 H 0.77701 0.01854 0.80723 0.0
H2170 H 0.75101 0.99843 0.83657 0.0
H2171 H 0.76845 0.9786 0.8392 0.0
H2172 H 0.73652 0.96666 0.83067 0.0
H2173 H 0.71867 0.9163 0.7457 0.0
H2174 H 0.74757 0.89524 0.75541 0.0
H2175 H 0.78756 0.95439 0.81091 0.0
C2176 C 0.72494 1.00135 0.78933 0.0
C2177 C 0.70557 1.00021 0.77239 0.0
C2178 C 0.6947 0.97954 0.75518 0.0
C2179 C 0.70346 0.96025 0.75459 0.0
C2180 C 0.72307 0.96223 0.77123 0.0
C2181 C 0.73366 0.98223 0.78826 0.0
C2182 C 0.75569 0.98085 0.80285 0.0
C2183 C 0.77805 1.00081 0.80001 0.0
C2184 C 0.75272 0.98114 0.82886 0.0
C2185 C 0.75584 0.95691 0.79139 0.0
C2186 C 0.73686 0.94636 0.77328 0.0
C2187 C 0.7336 0.92432 0.75987 0.0
C2188 C 0.75019 0.91267 0.76534 0.0
C2189 C 0.76975 0.92334 0.78385 0.0
C2190 C 0.77259 0.94574 0.79689 0.0
H2191 H 0.73116 0.91826 0.54521 0.0
H2192 H 0.76569 0.93985 0.4859 0.0
H2193 H 0.73909 0.96347 0.47805 0.0
H2194 H 0.67114 0.91328 0.51734 0.0
H2195 H 0.66269 0.92458 0.54413 0.0
H2196 H 0.68426 0.90887 0.54536 0.0
H2197 H 0.71456 0.94487 0.57385 0.0
H2198 H 0.69305 0.96063 0.5727 0.0
H2199 H 0.72214 0.97391 0.56531 0.0
H2200 H 0.70984 0.98517 0.47649 0.0
H2201 H 0.67932 0.00456 0.48166 0.0
H2202 H 0.66213 0.96899 0.54136 0.0
C2203 C 0.73314 0.92801 0.53063 0.0
C2204 C 0.75066 0.92718 0.51621 0.0
C2205 C 0.7525 0.94011 0.49721 0.0
C2206 C 0.73743 0.95361 0.49256 0.0
C2207 C 0.72041 0.95401 0.50696 0.0
C2208 C 0.71804 0.94159 0.52559 0.0
C2209 C 0.69804 0.94523 0.53815 0.0
C2210 C 0.67784 0.92158 0.53612 0.0
C2211 C 0.70753 0.95686 0.56404 0.0
C2212 C 0.69005 0.96205 0.52394 0.0
C2213 C 0.70312 0.96662 0.50592 0.0
C2214 C 0.69931 0.98161 0.49041 0.0
C2215 C 0.68174 0.9924 0.4934 0.0
C2216 C 0.66803 0.98819 0.51175 0.0
C2217 C 0.67231 0.9727 0.5272 0.0
H2218 H 0.40851 0.46377 0.79557 0.0
H2219 H 0.3823 0.47457 0.72638 0.0
H2220 H 0.34727 0.43824 0.72289 0.0
H2221 H 0.39669 0.40439 0.78319 0.0
H2222 H 0.38747 0.39742 0.81071 0.0
H2223 H 0.40755 0.42635 0.80964 0.0
H2224 H 0.3789 0.44646 0.82705 0.0
H2225 H 0.35886 0.41754 0.82868 0.0
H2226 H 0.34817 0.43764 0.81313 0.0
H2227 H 0.31795 0.39804 0.72551 0.0
H2228 H 0.29665 0.35824 0.73409 0.0
H2229 H 0.34371 0.37386 0.80105 0.0
C2230 C 0.39484 0.45894 0.7801 0.0
C2231 C 0.39759 0.472 0.76143 0.0
C2232 C 0.37997 0.46498 0.74107 0.0
C2233 C 0.36018 0.44436 0.73895 0.0
C2234 C 0.35836 0.43134 0.75748 0.0
C2235 C 0.37509 0.43863 0.77783 0.0
C2236 C 0.37038 0.42069 0.79439 0.0
C2237 C 0.39179 0.41168 0.79977 0.0
C2238 C 0.36367 0.43121 0.81716 0.0
C2239 C 0.34919 0.40145 0.77966 0.0
C2240 C 0.34209 0.40809 0.75868 0.0
C2241 C 0.32317 0.39284 0.74202 0.0
C2242 C 0.3112 0.37032 0.74702 0.0
C2243 C 0.3186 0.36315 0.76821 0.0
C2244 C 0.33777 0.37895 0.78469 0.0
H2245 H 0.27025 0.62177 0.23804 0.0
H2246 H 0.25328 0.6 0.30399 0.0
H2247 H 0.26424 0.64181 0.32251 0.0
H2248 H 0.31262 0.68638 0.26039 0.0
H2249 H 0.29734 0.69564 0.23648 0.0
H2250 H 0.30133 0.66673 0.23247 0.0
H2251 H 0.25573 0.6484 0.21879 0.0
H2252 H 0.25118 0.67677 0.22456 0.0
H2253 H 0.23576 0.65281 0.23873 0.0
H2254 H 0.26216 0.68314 0.32959 0.0
H2255 H 0.25669 0.72229 0.32693 0.0
H2256 H 0.26678 0.71417 0.25371 0.0
C2257 C 0.2707 0.62593 0.25685 0.0
C2258 C 0.25968 0.60792 0.26923 0.0
C2259 C 0.26095 0.61365 0.2939 0.0
C2260 C 0.26678 0.63748 0.30452 0.0
C2261 C 0.27198 0.65488 0.29024 0.0
C2262 C 0.27464 0.64945 0.26695 0.0
C2263 C 0.27382 0.66942 0.25354 0.0
C2264 C 0.29771 0.68019 0.24525 0.0
C2265 C 0.25289 0.66134 0.23271 0.0
C2266 C 0.26962 0.68645 0.27263 0.0
C2267 C 0.26894 0.67808 0.29376 0.0
C2268 C 0.26341 0.69022 0.31332 0.0
C2269 C 0.25989 0.71218 0.31153 0.0
C2270 C 0.26147 0.72131 0.29017 0.0
C2271 C 0.2657 0.70785 0.2704 0.0
H2272 H 0.49679 0.70826 0.51503 0.0
H2273 H 0.517 0.7066 0.44547 0.0
H2274 H 0.5275 0.67023 0.44959 0.0
H2275 H 0.54501 0.68701 0.54063 0.0
H2276 H 0.5272 0.66974 0.55928 0.0
H2277 H 0.52123 0.69593 0.55136 0.0
H2278 H 0.47742 0.67087 0.53481 0.0
H2279 H 0.4833 0.64467 0.54271 0.0
H2280 H 0.47119 0.64476 0.51275 0.0
H2281 H 0.53682 0.63381 0.46116 0.0
H2282 H 0.54269 0.59984 0.4787 0.0
H2283 H 0.51562 0.62252 0.5406 0.0
C2284 C 0.50342 0.70027 0.50063 0.0
C2285 C 0.50597 0.71081 0.47978 0.0
C2286 C 0.51488 0.69943 0.46164 0.0
C2287 C 0.52092 0.67855 0.46381 0.0
C2288 C 0.51829 0.66876 0.48441 0.0
C2289 C 0.50979 0.67925 0.5026 0.0
C2290 C 0.50914 0.66504 0.52301 0.0
C2291 C 0.52668 0.68034 0.54487 0.0
C2292 C 0.48374 0.65579 0.52864 0.0
C2293 C 0.51757 0.64448 0.51305 0.0
C2294 C 0.52322 0.64738 0.49091 0.0
C2295 C 0.5323 0.63141 0.47842 0.0
C2296 C 0.53565 0.61207 0.48859 0.0
C2297 C 0.52953 0.60811 0.51099 0.0
C2298 C 0.52027 0.62471 0.52333 0.0
H2299 H 0.67232 0.34115 0.65192 0.0
H2300 H 0.60931 0.28691 0.66327 0.0
H2301 H 0.6336 0.27589 0.69446 0.0
H2302 H 0.71626 0.31221 0.66252 0.0
H2303 H 0.73834 0.33881 0.67939 0.0
H2304 H 0.7156 0.34127 0.6575 0.0
H2305 H 0.70576 0.36873 0.69065 0.0
H2306 H 0.72786 0.36419 0.71201 0.0
H2307 H 0.69737 0.35732 0.71685 0.0
H2308 H 0.66447 0.26867 0.72284 0.0
H2309 H 0.6996 0.26785 0.74921 0.0
H2310 H 0.744 0.32761 0.72229 0.0
C2311 C 0.66364 0.32712 0.66114 0.0
C2312 C 0.6387 0.31489 0.65489 0.0
C2313 C 0.62818 0.29675 0.66765 0.0
C2314 C 0.64191 0.29022 0.68541 0.0
C2315 C 0.66631 0.3023 0.69094 0.0
C2316 C 0.67709 0.32076 0.67967 0.0
C2317 C 0.70356 0.33138 0.69016 0.0
C2318 C 0.71933 0.33079 0.67118 0.0
C2319 C 0.70895 0.35692 0.70319 0.0
C2320 C 0.70626 0.31474 0.70761 0.0
C2321 C 0.6843 0.29845 0.70799 0.0
C2322 C 0.68173 0.28143 0.72276 0.0
C2323 C 0.70194 0.28108 0.73772 0.0
C2324 C 0.72483 0.29748 0.73795 0.0
C2325 C 0.72692 0.31455 0.72247 0.0
H2326 H 0.03656 0.3585 0.99063 0.0
H2327 H 0.96122 0.33138 0.99519 0.0
H2328 H 0.96024 0.37223 0.00478 0.0
H2329 H 0.04925 0.40829 0.04119 0.0
H2330 H 0.07127 0.42887 0.02858 0.0
H2331 H 0.06673 0.39736 0.02196 0.0
H2332 H 0.05903 0.3989 0.97735 0.0
H2333 H 0.06347 0.43037 0.98395 0.0
H2334 H 0.03617 0.41073 0.96615 0.0
H2335 H 0.96602 0.41566 0.01155 0.0
H2336 H 0.97914 0.45935 0.01908 0.0
H2337 H 0.05178 0.46099 0.01377 0.0
C2338 C 0.01995 0.3612 0.99391 0.0
C2339 C 0.99893 0.34133 0.99221 0.0
C2340 C 0.97764 0.34593 0.99664 0.0
C2341 C 0.97683 0.36923 0.00198 0.0
C2342 C 0.99761 0.38827 0.00346 0.0
C2343 C 0.01895 0.38468 7e-05 0.0
C2344 C 0.03872 0.40873 0.00379 0.0
C2345 C 0.05762 0.41093 0.02515 0.0
C2346 C 0.05001 0.41239 0.98147 0.0
C2347 C 0.02491 0.42617 0.00883 0.0
C2348 C 1.00121 0.41378 0.00851 0.0
C2349 C 0.98461 0.42555 0.0121 0.0
C2350 C 0.99233 0.45056 0.01634 0.0
C2351 C 0.01661 0.46405 0.01721 0.0
C2352 C 0.03312 0.45145 0.0134 0.0
H2353 H 0.99741 0.83419 0.15736 0.0
H2354 H 0.01598 0.76894 0.15127 0.0
H2355 H 0.98491 0.75188 0.17462 0.0
H2356 H 0.98738 0.83585 0.21665 0.0
H2357 H 0.96258 0.84717 0.21238 0.0
H2358 H 0.98536 0.85372 0.19408 0.0
H2359 H 0.95319 0.8359 0.15674 0.0
H2360 H 0.93027 0.82923 0.17493 0.0
H2361 H 0.93331 0.8059 0.15384 0.0
H2362 H 0.95239 0.74218 0.19957 0.0
H2363 H 0.92185 0.741 0.22504 0.0
H2364 H 0.92514 0.81302 0.21613 0.0
C2365 C 0.99488 0.81625 0.16079 0.0
C2366 C 0.00925 0.80296 0.15241 0.0
C2367 C 1.00532 0.77957 0.15747 0.0
C2368 C 0.98763 0.76966 0.17068 0.0
C2369 C 0.97392 0.7833 0.17879 0.0
C2370 C 0.97735 0.80609 0.17406 0.0
C2371 C 0.96068 0.81722 0.18546 0.0
C2372 C 0.97485 0.83983 0.2032 0.0
C2373 C 0.94333 0.82237 0.16662 0.0
C2374 C 0.94771 0.79738 0.19779 0.0
C2375 C 0.95544 0.77786 0.19347 0.0
C2376 C 0.9463 0.75743 0.20313 0.0
C2377 C 0.92905 0.75702 0.21778 0.0
C2378 C 0.92113 0.777 0.22297 0.0
C2379 C 0.93053 0.79733 0.21249 0.0
H2380 H 0.53303 0.33423 0.16338 0.0
H2381 H 0.53792 0.28104 0.10752 0.0
H2382 H 0.54631 0.31102 0.08161 0.0
H2383 H 0.50414 0.36493 0.12621 0.0
H2384 H 0.52036 0.39427 0.14237 0.0
H2385 H 0.51524 0.36886 0.15723 0.0
H2386 H 0.56063 0.38 0.1714 0.0
H2387 H 0.56589 0.40538 0.15647 0.0
H2388 H 0.58064 0.38354 0.15008 0.0
H2389 H 0.55402 0.34559 0.06141 0.0
H2390 H 0.55898 0.38343 0.04695 0.0
H2391 H 0.5491 0.41575 0.11476 0.0
C2392 C 0.53583 0.32892 0.14569 0.0
C2393 C 0.53482 0.30515 0.13758 0.0
C2394 C 0.53865 0.29903 0.11429 0.0
C2395 C 0.54349 0.31597 0.09937 0.0
C2396 C 0.54453 0.33912 0.10787 0.0
C2397 C 0.54079 0.34575 0.13041 0.0
C2398 C 0.54272 0.372 0.13472 0.0
C2399 C 0.5192 0.37519 0.14046 0.0
C2400 C 0.56372 0.38606 0.15433 0.0
C2401 C 0.54755 0.37875 0.11086 0.0
C2402 C 0.54883 0.35946 0.09588 0.0
C2403 C 0.55316 0.36089 0.07297 0.0
C2404 C 0.55612 0.38256 0.06497 0.0
C2405 C 0.55468 0.40268 0.07972 0.0
C2406 C 0.55029 0.40069 0.10304 0.0
H2407 H 0.97228 0.34108 0.34494 0.0
H2408 H 0.98781 0.2967 0.2882 0.0
H2409 H 0.94767 0.29072 0.26554 0.0
H2410 H 0.91465 0.30426 0.34271 0.0
H2411 H 0.90245 0.32777 0.35088 0.0
H2412 H 0.93353 0.33199 0.36034 0.0
H2413 H 0.9455 0.36975 0.34108 0.0
H2414 H 0.91442 0.36597 0.33187 0.0
H2415 H 0.9343 0.36814 0.31044 0.0
H2416 H 0.9028 0.28374 0.25285 0.0
H2417 H 0.86004 0.28001 0.2492 0.0
H2418 H 0.87418 0.33015 0.31395 0.0
C2419 C 0.96774 0.33107 0.3272 0.0
C2420 C 0.98363 0.32005 0.31801 0.0
C2421 C 0.97646 0.30609 0.29525 0.0
C2422 C 0.95348 0.30233 0.28246 0.0
C2423 C 0.93786 0.31255 0.29271 0.0
C2424 C 0.94494 0.32692 0.31451 0.0
C2425 C 0.92437 0.33392 0.32298 0.0
C2426 C 0.91841 0.32389 0.34556 0.0
C2427 C 0.92998 0.36107 0.3268 0.0
C2428 C 0.90446 0.32167 0.30236 0.0
C2429 C 0.91248 0.30906 0.28523 0.0
C2430 C 0.89666 0.29414 0.26585 0.0
C2431 C 0.87231 0.29215 0.26388 0.0
C2432 C 0.86378 0.30538 0.28082 0.0
C2433 C 0.88023 0.32048 0.30025 0.0
H2434 H 0.0217 0.67014 0.66945 0.0
H2435 H 0.00752 0.71871 0.62423 0.0
H2436 H 0.0113 0.6922 0.58961 0.0
H2437 H 0.0665 0.65664 0.63908 0.0
H2438 H 0.05829 0.62595 0.64316 0.0
H2439 H 0.05306 0.64792 0.66423 0.0
H2440 H 0.00837 0.62318 0.65827 0.0
H2441 H 0.01341 0.60105 0.63722 0.0
H2442 H 0.99119 0.61482 0.62902 0.0
H2443 H 0.0169 0.66077 0.5599 0.0
H2444 H 0.02473 0.62725 0.53702 0.0
H2445 H 0.03701 0.59895 0.60116 0.0
C2446 C 0.01901 0.67503 0.65222 0.0
C2447 C 0.01394 0.69646 0.6496 0.0
C2448 C 0.01122 0.70241 0.62676 0.0
C2449 C 0.01335 0.68743 0.60696 0.0
C2450 C 0.01856 0.66663 0.6102 0.0
C2451 C 0.02147 0.66044 0.63226 0.0
C2452 C 0.02807 0.63761 0.63094 0.0
C2453 C 0.05296 0.64232 0.6452 0.0
C2454 C 0.00912 0.618 0.63936 0.0
C2455 C 0.02811 0.63172 0.60462 0.0
C2456 C 0.02253 0.64876 0.59307 0.0
C2457 C 0.02132 0.64737 0.56879 0.0
C2458 C 0.02583 0.62813 0.5559 0.0
C2459 C 0.03163 0.61029 0.56711 0.0
C2460 C 0.03281 0.61226 0.59194 0.0
H2461 H 0.65468 0.86159 0.84153 0.0
H2462 H 0.59848 0.79379 0.8205 0.0
H2463 H 0.62713 0.7763 0.8038 0.0
H2464 H 0.68371 0.85651 0.78877 0.0
H2465 H 0.71334 0.8711 0.80501 0.0
H2466 H 0.68834 0.87851 0.81464 0.0
H2467 H 0.69967 0.86851 0.85576 0.0
H2468 H 0.72459 0.86098 0.84612 0.0
H2469 H 0.70256 0.8396 0.85797 0.0
H2470 H 0.66324 0.76528 0.79169 0.0
H2471 H 0.70185 0.76253 0.78247 0.0
H2472 H 0.73491 0.83797 0.80908 0.0
C2473 C 0.64824 0.84311 0.83316 0.0
C2474 C 0.62394 0.82918 0.83242 0.0
C2475 C 0.61666 0.80504 0.82125 0.0
C2476 C 0.63296 0.79488 0.81177 0.0
C2477 C 0.65671 0.80902 0.8131 0.0
C2478 C 0.66425 0.83278 0.82318 0.0
C2479 C 0.69074 0.84414 0.82211 0.0
C2480 C 0.69423 0.86373 0.80672 0.0
C2481 C 0.70524 0.85388 0.84697 0.0
C2482 C 0.69712 0.82302 0.81042 0.0
C2483 C 0.6772 0.80291 0.80542 0.0
C2484 C 0.67878 0.78105 0.79534 0.0
C2485 C 0.70098 0.77966 0.79018 0.0
C2486 C 0.72177 0.8 0.79477 0.0
C2487 C 0.71953 0.82204 0.805 0.0
H2488 H 0.48121 0.56334 0.69889 0.0
H2489 H 0.5121 0.50799 0.71309 0.0
H2490 H 0.52671 0.50845 0.67558 0.0
H2491 H 0.46186 0.54333 0.63797 0.0
H2492 H 0.47022 0.57217 0.62902 0.0
H2493 H 0.46322 0.56942 0.65814 0.0
H2494 H 0.50441 0.60008 0.67642 0.0
H2495 H 0.5115 0.60301 0.64731 0.0
H2496 H 0.53112 0.59503 0.66855 0.0
H2497 H 0.53439 0.51076 0.63549 0.0
H2498 H 0.53777 0.51775 0.59485 0.0
H2499 H 0.50496 0.57327 0.60496 0.0
C2500 C 0.49139 0.55165 0.69425 0.0
C2501 C 0.49524 0.53551 0.70916 0.0
C2502 C 0.50863 0.52047 0.70222 0.0
C2503 C 0.51715 0.52056 0.68082 0.0
C2504 C 0.51264 0.53609 0.66636 0.0
C2505 C 0.50048 0.55169 0.67276 0.0
C2506 C 0.4981 0.5662 0.65326 0.0
C2507 C 0.47177 0.56256 0.64406 0.0
C2508 C 0.51211 0.59266 0.6619 0.0
C2509 C 0.50971 0.55536 0.63468 0.0
C2510 C 0.51808 0.53813 0.64291 0.0
C2511 C 0.52831 0.5245 0.62894 0.0
C2512 C 0.53008 0.52852 0.60587 0.0
C2513 C 0.52183 0.54611 0.59695 0.0
C2514 C 0.51168 0.55992 0.61157 0.0
H2515 H 0.76002 0.20989 0.01151 0.0
H2516 H 0.82082 0.18941 0.99397 0.0
H2517 H 0.82882 0.21977 0.96799 0.0
H2518 H 0.73837 0.21555 0.95776 0.0
H2519 H 0.72904 0.24099 0.96651 0.0
H2520 H 0.73125 0.22118 0.98687 0.0
H2521 H 0.76008 0.25664 0.01724 0.0
H2522 H 0.75815 0.2767 0.9968 0.0
H2523 H 0.78684 0.27521 0.009 0.0
H2524 H 0.82641 0.24722 0.94007 0.0
H2525 H 0.81137 0.26663 0.90934 0.0
H2526 H 0.75278 0.26969 0.94615 0.0
C2527 C 0.77548 0.21225 0.00281 0.0
C2528 C 0.79 0.19762 0.00492 0.0
C2529 C 0.80955 0.20062 0.9926 0.0
C2530 C 0.81442 0.218 0.97812 0.0
C2531 C 0.79979 0.23231 0.97659 0.0
C2532 C 0.78072 0.22959 0.98863 0.0
C2533 C 0.76582 0.24487 0.98176 0.0
C2534 C 0.7396 0.22973 0.97267 0.0
C2535 C 0.76785 0.26453 0.00243 0.0
C2536 C 0.77827 0.25509 0.96241 0.0
C2537 C 0.79837 0.24836 0.96031 0.0
C2538 C 0.81108 0.2531 0.94184 0.0
C2539 C 0.80235 0.26396 0.92444 0.0
C2540 C 0.78095 0.2695 0.92557 0.0
C2541 C 0.76948 0.2661 0.94531 0.0
H2542 H 0.15458 0.58454 0.1773 0.0
H2543 H 0.14452 0.51203 0.18892 0.0
H2544 H 0.11268 0.49736 0.15378 0.0
H2545 H 0.09648 0.57848 0.16837 0.0
H2546 H 0.09765 0.59791 0.14677 0.0
H2547 H 0.12351 0.60236 0.16834 0.0
H2548 H 0.14921 0.59868 0.13574 0.0
H2549 H 0.12378 0.59553 0.11399 0.0
H2550 H 0.13869 0.57331 0.11234 0.0
H2551 H 0.0783 0.49185 0.11993 0.0
H2552 H 0.04766 0.49626 0.08923 0.0
H2553 H 0.07897 0.57296 0.10635 0.0
C2554 C 0.14617 0.56548 0.17222 0.0
C2555 C 0.15161 0.54939 0.18587 0.0
C2556 C 0.14039 0.52461 0.17857 0.0
C2557 C 0.12233 0.51617 0.15875 0.0
C2558 C 0.11604 0.53287 0.14682 0.0
C2559 C 0.12798 0.557 0.15321 0.0
C2560 C 0.11637 0.57181 0.14008 0.0
C2561 C 0.10801 0.58861 0.1569 0.0
C2562 C 0.133 0.58563 0.12461 0.0
C2563 C 0.09563 0.55235 0.12556 0.0
C2564 C 0.09571 0.52992 0.12917 0.0
C2565 C 0.07806 0.50935 0.11703 0.0
C2566 C 0.06053 0.51196 0.10008 0.0
C2567 C 0.06103 0.53496 0.09604 0.0
C2568 C 0.0782 0.55522 0.10947 0.0
H2569 H 0.80131 0.81083 0.4705 0.0
H2570 H 0.75761 0.85733 0.4665 0.0
H2571 H 0.75301 0.84956 0.42315 0.0
H2572 H 0.8333 0.82945 0.42643 0.0
H2573 H 0.83458 0.80072 0.41405 0.0
H2574 H 0.83172 0.80675 0.44457 0.0
H2575 H 0.79344 0.77029 0.43817 0.0
H2576 H 0.7963 0.76392 0.40762 0.0
H2577 H 0.76908 0.7678 0.41534 0.0
H2578 H 0.75612 0.84035 0.38141 0.0
H2579 H 0.76627 0.83034 0.34282 0.0
H2580 H 0.80907 0.78982 0.3721 0.0
C2581 C 0.79019 0.81886 0.46051 0.0
C2582 C 0.77957 0.83455 0.47203 0.0
C2583 C 0.76569 0.8451 0.45821 0.0
C2584 C 0.76299 0.84079 0.43354 0.0
C2585 C 0.77421 0.82581 0.42286 0.0
C2586 C 0.78738 0.81483 0.43579 0.0
C2587 C 0.79895 0.80093 0.41981 0.0
C2588 C 0.82626 0.81001 0.42663 0.0
C2589 C 0.78884 0.77414 0.42027 0.0
C2590 C 0.79104 0.80667 0.39596 0.0
C2591 C 0.77644 0.82074 0.39832 0.0
C2592 C 0.76739 0.82923 0.37934 0.0
C2593 C 0.77351 0.82349 0.3574 0.0
C2594 C 0.78876 0.80942 0.35424 0.0
C2595 C 0.79736 0.80054 0.37383 0.0
H2596 H 0.48446 0.50362 0.84327 0.0
H2597 H 0.50959 0.57885 0.83932 0.0
H2598 H 0.52738 0.58754 0.88174 0.0
H2599 H 0.46765 0.51178 0.90073 0.0
H2600 H 0.47552 0.48675 0.90935 0.0
H2601 H 0.46595 0.48691 0.87875 0.0
H2602 H 0.50491 0.48014 0.86874 0.0
H2603 H 0.51481 0.48033 0.89936 0.0
H2604 H 0.5333 0.50065 0.88345 0.0
H2605 H 0.54235 0.58761 0.92453 0.0
H2606 H 0.54942 0.57993 0.96524 0.0
H2607 H 0.51308 0.50465 0.94148 0.0
C2608 C 0.49386 0.52194 0.85131 0.0
C2609 C 0.49603 0.54059 0.83803 0.0
C2610 C 0.50786 0.56435 0.84923 0.0
C2611 C 0.51809 0.56938 0.87321 0.0
C2612 C 0.5159 0.55045 0.88572 0.0
C2613 C 0.50366 0.52726 0.87522 0.0
C2614 C 0.50237 0.51027 0.89278 0.0
C2615 C 0.47633 0.49822 0.89557 0.0
C2616 C 0.51459 0.49175 0.88565 0.0
C2617 C 0.51624 0.52741 0.91488 0.0
C2618 C 0.52398 0.55051 0.91038 0.0
C2619 C 0.53644 0.5696 0.92817 0.0
C2620 C 0.54043 0.56508 0.95119 0.0
C2621 C 0.53207 0.54172 0.95631 0.0
C2622 C 0.52018 0.52257 0.93787 0.0
H2623 H 0.77342 0.19344 0.11578 0.0
H2624 H 0.84647 0.23138 0.11165 0.0
H2625 H 0.85575 0.24118 0.15482 0.0
H2626 H 0.76144 0.22936 0.14586 0.0
H2627 H 0.74442 0.2143 0.16638 0.0
H2628 H 0.74607 0.19768 0.13926 0.0
H2629 H 0.76271 0.16949 0.16111 0.0
H2630 H 0.76028 0.18559 0.18866 0.0
H2631 H 0.78832 0.18151 0.1841 0.0
H2632 H 0.85148 0.26438 0.18941 0.0
H2633 H 0.83689 0.28964 0.21665 0.0
H2634 H 0.76691 0.23651 0.20201 0.0
C2635 C 0.79165 0.20236 0.12441 0.0
C2636 C 0.80921 0.21214 0.11107 0.0
C2637 C 0.83291 0.22387 0.12197 0.0
C2638 C 0.83828 0.22941 0.14649 0.0
C2639 C 0.81972 0.22271 0.15944 0.0
C2640 C 0.79699 0.20809 0.1489 0.0
C2641 C 0.77899 0.20809 0.16532 0.0
C2642 C 0.75648 0.21269 0.15348 0.0
C2643 C 0.7722 0.18479 0.1754 0.0
C2644 C 0.79392 0.22856 0.18416 0.0
C2645 C 0.8176 0.23604 0.18113 0.0
C2646 C 0.83339 0.25792 0.19286 0.0
C2647 C 0.82486 0.27242 0.20791 0.0
C2648 C 0.80088 0.26476 0.21134 0.0
C2649 C 0.78547 0.24241 0.19983 0.0
H2650 H 0.14519 0.56038 0.30982 0.0
H2651 H 0.18008 0.63498 0.30724 0.0
H2652 H 0.16391 0.64647 0.34254 0.0
H2653 H 0.09186 0.56722 0.3275 0.0
H2654 H 0.08887 0.54505 0.34641 0.0
H2655 H 0.10348 0.54289 0.32114 0.0
H2656 H 0.14086 0.54168 0.34823 0.0
H2657 H 0.12643 0.54417 0.37361 0.0
H2658 H 0.15502 0.56539 0.37281 0.0
H2659 H 0.1432 0.64976 0.37741 0.0
H2660 H 0.11867 0.6444 0.40926 0.0
H2661 H 0.09839 0.56778 0.38885 0.0
C2662 C 0.14945 0.57915 0.31663 0.0
C2663 C 0.16385 0.59681 0.30582 0.0
C2664 C 0.16901 0.62116 0.31527 0.0
C2665 C 0.16 0.62786 0.33532 0.0
C2666 C 0.14599 0.60997 0.34562 0.0
C2667 C 0.1407 0.58613 0.33658 0.0
C2668 C 0.12494 0.5704 0.35071 0.0
C2669 C 0.10086 0.55552 0.33553 0.0
C2670 C 0.13758 0.55448 0.36201 0.0
C2671 C 0.12209 0.58914 0.36904 0.0
C2672 C 0.13436 0.61186 0.36586 0.0
C2673 C 0.13362 0.63207 0.3802 0.0
C2674 C 0.11969 0.62889 0.39812 0.0
C2675 C 0.10695 0.60572 0.40145 0.0
C2676 C 0.10838 0.58567 0.38688 0.0
H2677 H 0.80029 0.87329 0.6269 0.0
H2678 H 0.75381 0.80817 0.58285 0.0
H2679 H 0.74398 0.79072 0.61828 0.0
H2680 H 0.82517 0.84629 0.66807 0.0
H2681 H 0.82685 0.8674 0.69381 0.0
H2682 H 0.82742 0.87664 0.66544 0.0
H2683 H 0.79123 0.89127 0.67036 0.0
H2684 H 0.7907 0.88222 0.69889 0.0
H2685 H 0.76432 0.87109 0.67675 0.0
H2686 H 0.74208 0.77883 0.65766 0.0
H2687 H 0.74816 0.77276 0.69876 0.0
H2688 H 0.79715 0.84494 0.71864 0.0
C2689 C 0.78729 0.85576 0.62488 0.0
C2690 C 0.77712 0.84227 0.60219 0.0
C2691 C 0.76118 0.81894 0.60008 0.0
C2692 C 0.75559 0.80888 0.62011 0.0
C2693 C 0.76623 0.82232 0.64224 0.0
C2694 C 0.78165 0.84531 0.64486 0.0
C2695 C 0.79216 0.85494 0.67072 0.0
C2696 C 0.81952 0.86171 0.67473 0.0
C2697 C 0.78412 0.87614 0.67971 0.0
C2698 C 0.78093 0.8335 0.682 0.0
C2699 C 0.76571 0.81509 0.66522 0.0
C2700 C 0.75371 0.79322 0.67101 0.0
C2701 C 0.75733 0.78997 0.69452 0.0
C2702 C 0.77307 0.80839 0.71216 0.0
C2703 C 0.7849 0.83053 0.7057 0.0
H2704 H 0.72091 0.44851 0.52214 0.0
H2705 H 0.7742 0.50267 0.49659 0.0
H2706 H 0.75733 0.53313 0.51274 0.0
H2707 H 0.67286 0.47195 0.50877 0.0
H2708 H 0.65994 0.46403 0.5344 0.0
H2709 H 0.67657 0.44674 0.52106 0.0
H2710 H 0.70404 0.45381 0.56126 0.0
H2711 H 0.68769 0.47148 0.57458 0.0
H2712 H 0.71951 0.48385 0.57612 0.0
H2713 H 0.73532 0.55741 0.53179 0.0
H2714 H 0.70582 0.57354 0.548 0.0
H2715 H 0.66745 0.50349 0.56163 0.0
C2716 C 0.72893 0.46675 0.51981 0.0
C2717 C 0.74881 0.47335 0.50819 0.0
C2718 C 0.7588 0.4973 0.50532 0.0
C2719 C 0.74954 0.51473 0.51462 0.0
C2720 C 0.73032 0.50772 0.52654 0.0
C2721 C 0.71987 0.48429 0.52884 0.0
C2722 C 0.6987 0.48132 0.54152 0.0
C2723 C 0.67566 0.46506 0.52548 0.0
C2724 C 0.70275 0.47207 0.56475 0.0
C2725 C 0.69892 0.5068 0.54597 0.0
C2726 C 0.71745 0.52177 0.53744 0.0
C2727 C 0.7208 0.54597 0.53871 0.0
C2728 C 0.70414 0.555 0.54817 0.0
C2729 C 0.68449 0.53973 0.55611 0.0
C2730 C 0.68233 0.51552 0.55565 0.0
H2731 H 0.19606 0.15954 0.4835 0.0
H2732 H 0.23439 0.16117 0.55235 0.0
H2733 H 0.19938 0.13054 0.56065 0.0
H2734 H 0.13998 0.15243 0.49785 0.0
H2735 H 0.12325 0.13108 0.47222 0.0
H2736 H 0.15189 0.15167 0.47065 0.0
H2737 H 0.16682 0.11663 0.4565 0.0
H2738 H 0.13809 0.0959 0.45781 0.0
H2739 H 0.16475 0.09316 0.47373 0.0
H2740 H 0.15918 0.10453 0.56367 0.0
H2741 H 0.11676 0.0802 0.55939 0.0
H2742 H 0.10491 0.09195 0.48734 0.0
C2743 C 0.1971 0.15298 0.50005 0.0
C2744 C 0.21774 0.16248 0.51732 0.0
C2745 C 0.21871 0.15376 0.53887 0.0
C2746 C 0.19894 0.13647 0.54375 0.0
C2747 C 0.17866 0.12764 0.52657 0.0
C2748 C 0.17774 0.13505 0.5049 0.0
C2749 C 0.15359 0.12255 0.48967 0.0
C2750 C 0.14147 0.14052 0.48217 0.0
C2751 C 0.15596 0.10608 0.46815 0.0
C2752 C 0.14068 0.10826 0.50676 0.0
C2753 C 0.15559 0.11137 0.52788 0.0
C2754 C 0.14746 0.10144 0.54705 0.0
C2755 C 0.12343 0.08779 0.54453 0.0
C2756 C 0.10803 0.08412 0.52299 0.0
C2757 C 0.11667 0.09428 0.50381 0.0
H2758 H 0.1694 0.99465 0.76044 0.0
H2759 H 0.17576 1.00185 0.83662 0.0
H2760 H 0.1989 0.97398 0.83663 0.0
H2761 H 0.16387 0.93197 0.74881 0.0
H2762 H 0.1819 0.93488 0.72578 0.0
H2763 H 0.16519 0.9551 0.73125 0.0
H2764 H 0.20396 0.99087 0.73667 0.0
H2765 H 0.22076 0.97071 0.73125 0.0
H2766 H 0.22916 0.99225 0.75798 0.0
H2767 H 0.22102 0.94578 0.82912 0.0
H2768 H 0.24227 0.91886 0.81434 0.0
H2769 H 0.22284 0.92954 0.7429 0.0
C2770 C 0.17555 0.99021 0.77708 0.0
C2771 C 0.17067 1.0004 0.79856 0.0
C2772 C 0.17928 0.99436 0.81997 0.0
C2773 C 0.19243 0.97849 0.82018 0.0
C2774 C 0.19704 0.96889 0.79884 0.0
C2775 C 0.18903 0.9745 0.77765 0.0
C2776 C 0.19719 0.96193 0.75739 0.0
C2777 C 0.17575 0.94496 0.73977 0.0
C2778 C 0.21375 0.98002 0.7451 0.0
C2779 C 0.21076 0.94829 0.77061 0.0
C2780 C 0.21034 0.95261 0.79448 0.0
C2781 C 0.22145 0.94214 0.81045 0.0
C2782 C 0.23334 0.92674 0.80184 0.0
C2783 C 0.23406 0.92188 0.77745 0.0
C2784 C 0.22269 0.93296 0.76165 0.0
H2785 H 0.36702 0.95989 0.97265 0.0
H2786 H 0.34816 0.98857 0.03699 0.0
H2787 H 0.38307 0.02484 0.04117 0.0
H2788 H 0.42181 0.97042 0.99262 0.0
H2789 H 0.43474 0.9781 0.96691 0.0
H2790 H 0.40432 0.95978 0.96356 0.0
H2791 H 0.39047 0.9893 0.9409 0.0
H2792 H 0.42113 0.00772 0.94373 0.0
H2793 H 0.39929 0.02033 0.95378 0.0
H2794 H 0.42431 0.05101 0.04429 0.0
H2795 H 0.46815 0.0648 0.04609 0.0
H2796 H 0.46086 0.01753 0.98088 0.0
C2797 C 0.36966 0.97456 0.9868 0.0
C2798 C 0.35519 0.97213 0.00429 0.0
C2799 C 0.35906 0.99079 0.02321 0.0
C2800 C 0.37875 0.01134 0.02562 0.0
C2801 C 0.39386 0.0127 0.00878 0.0
C2802 C 0.38925 0.99487 0.98946 0.0
C2803 C 0.41035 0.99764 0.97675 0.0
C2804 C 0.41825 0.97517 0.97491 0.0
C2805 C 0.40499 0.00415 0.95234 0.0
C2806 C 0.42834 0.01835 0.9932 0.0
C2807 C 0.41831 0.0275 0.01101 0.0
C2808 C 0.4322 0.04462 0.03002 0.0
C2809 C 0.45695 0.05222 0.03101 0.0
C2810 C 0.4672 0.04212 0.01345 0.0
C2811 C 0.45292 0.02555 0.99415 0.0
H2812 H 0.84574 0.58576 0.82244 0.0
H2813 H 0.90189 0.60338 0.77977 0.0
H2814 H 0.87989 0.62501 0.75746 0.0
H2815 H 0.79738 0.57519 0.77607 0.0
H2816 H 0.7801 0.588 0.79401 0.0
H2817 H 0.80058 0.57451 0.80726 0.0
H2818 H 0.82231 0.61365 0.83675 0.0
H2819 H 0.80148 0.62699 0.82402 0.0
H2820 H 0.83308 0.64116 0.82566 0.0
H2821 H 0.85142 0.64373 0.7393 0.0
H2822 H 0.82082 0.6631 0.73028 0.0
H2823 H 0.78319 0.63167 0.78402 0.0
C2824 C 0.85371 0.59456 0.80876 0.0
C2825 C 0.87552 0.59297 0.80288 0.0
C2826 C 0.8852 0.60451 0.78463 0.0
C2827 C 0.87276 0.6166 0.77171 0.0
C2828 C 0.85078 0.61688 0.7773 0.0
C2829 C 0.84151 0.60649 0.79559 0.0
C2830 C 0.81768 0.60952 0.79823 0.0
C2831 C 0.79777 0.58536 0.79361 0.0
C2832 C 0.81871 0.62369 0.8226 0.0
C2833 C 0.81518 0.62363 0.7788 0.0
C2834 C 0.83427 0.62742 0.76668 0.0
C2835 C 0.83628 0.64079 0.74853 0.0
C2836 C 0.81876 0.65147 0.74336 0.0
C2837 C 0.79978 0.64864 0.75645 0.0
C2838 C 0.79756 0.63392 0.77376 0.0
H2839 H 0.82433 0.63764 0.99723 0.0
H2840 H 0.85154 0.69443 0.05773 0.0
H2841 H 0.8829 0.67732 0.07055 0.0
H2842 H 0.83381 0.59119 0.02665 0.0
H2843 H 0.84251 0.57665 0.00169 0.0
H2844 H 0.82234 0.59354 0.99717 0.0
H2845 H 0.85061 0.6191 0.97277 0.0
H2846 H 0.87088 0.6023 0.97723 0.0
H2847 H 0.88138 0.63424 0.98557 0.0
H2848 H 0.91068 0.65371 0.07724 0.0
H2849 H 0.93379 0.62553 0.07669 0.0
H2850 H 0.88846 0.58442 0.01179 0.0
C2851 C 0.83691 0.64654 0.01313 0.0
C2852 C 0.83549 0.66737 0.02645 0.0
C2853 C 0.85231 0.67847 0.04719 0.0
C2854 C 0.87017 0.66889 0.05465 0.0
C2855 C 0.87099 0.64829 0.04114 0.0
C2856 C 0.85488 0.63729 0.0208 0.0
C2857 C 0.85964 0.6153 0.00951 0.0
C2858 C 0.83831 0.59285 0.00872 0.0
C2859 C 0.86601 0.61791 0.98481 0.0
C2860 C 0.88095 0.61568 0.0267 0.0
C2861 C 0.88716 0.6348 0.04487 0.0
C2862 C 0.90604 0.63868 0.06309 0.0
C2863 C 0.91895 0.62255 0.0627 0.0
C2864 C 0.91291 0.60287 0.04419 0.0
C2865 C 0.89368 0.59949 0.02599 0.0
H2866 H 0.18003 0.11687 0.76303 0.0
H2867 H 0.17859 0.12346 0.83798 0.0
H2868 H 0.2114 0.16171 0.84475 0.0
H2869 H 0.24619 0.14724 0.76653 0.0
H2870 H 0.24126 0.16182 0.74186 0.0
H2871 H 0.22107 0.13293 0.74337 0.0
H2872 H 0.18567 0.14961 0.73908 0.0
H2873 H 0.20571 0.17853 0.73779 0.0
H2874 H 0.18628 0.17514 0.75964 0.0
H2875 H 0.23832 0.20164 0.84272 0.0
H2876 H 0.25985 0.24032 0.83223 0.0
H2877 H 0.24539 0.20812 0.75863 0.0
C2878 C 0.18748 0.12595 0.78089 0.0
C2879 C 0.17751 0.11715 0.80013 0.0
C2880 C 0.18661 0.12983 0.82321 0.0
C2881 C 0.20514 0.15152 0.82716 0.0
C2882 C 0.21424 0.16019 0.80778 0.0
C2883 C 0.20593 0.14772 0.78509 0.0
C2884 C 0.21684 0.16228 0.76718 0.0
C2885 C 0.23227 0.15035 0.75396 0.0
C2886 C 0.19747 0.16665 0.74992 0.0
C2887 C 0.23201 0.18508 0.78329 0.0
C2888 C 0.23029 0.18342 0.80665 0.0
C2889 C 0.24041 0.20297 0.8246 0.0
C2890 C 0.2525 0.22483 0.81851 0.0
C2891 C 0.2546 0.22681 0.79478 0.0
C2892 C 0.2446 0.20668 0.77698 0.0
H2893 H 0.32763 0.96268 0.25273 0.0
H2894 H 0.33781 0.99738 0.32513 0.0
H2895 H 0.32157 0.95851 0.3372 0.0
H2896 H 0.27528 0.90706 0.25409 0.0
H2897 H 0.28883 0.8895 0.23627 0.0
H2898 H 0.29238 0.91982 0.23251 0.0
H2899 H 0.3382 0.92805 0.23905 0.0
H2900 H 0.33483 0.89835 0.24447 0.0
H2901 H 0.3527 0.92347 0.26634 0.0
H2902 H 0.31496 0.91646 0.34288 0.0
H2903 H 0.30969 0.87354 0.34023 0.0
H2904 H 0.30791 0.86737 0.26452 0.0
C2905 C 0.32477 0.96219 0.2708 0.0
C2906 C 0.33421 0.98285 0.28797 0.0
C2907 C 0.33063 0.98171 0.31161 0.0
C2908 C 0.32176 0.95962 0.31872 0.0
C2909 C 0.31607 0.93924 0.30183 0.0
C2910 C 0.31676 0.94032 0.2782 0.0
C2911 C 0.31402 0.91632 0.26422 0.0
C2912 C 0.29126 0.90766 0.24569 0.0
C2913 C 0.33626 0.91659 0.25288 0.0
C2914 C 0.31196 0.90171 0.28366 0.0
C2915 C 0.31319 0.91512 0.30523 0.0
C2916 C 0.31323 0.9056 0.32597 0.0
C2917 C 0.31051 0.88133 0.32432 0.0
C2918 C 0.30802 0.86716 0.3021 0.0
C2919 C 0.30948 0.87769 0.28172 0.0
H2920 H 0.57935 0.39748 0.60298 0.0
H2921 H 0.5595 0.3515 0.535 0.0
H2922 H 0.54797 0.38275 0.51697 0.0
H2923 H 0.53292 0.42631 0.59541 0.0
H2924 H 0.55213 0.45539 0.60978 0.0
H2925 H 0.55771 0.4291 0.61786 0.0
H2926 H 0.6007 0.44443 0.60901 0.0
H2927 H 0.59522 0.47075 0.6009 0.0
H2928 H 0.60541 0.45216 0.58046 0.0
H2929 H 0.53751 0.41918 0.50592 0.0
H2930 H 0.53215 0.45814 0.50233 0.0
H2931 H 0.56153 0.48332 0.57632 0.0
C2932 C 0.57227 0.39387 0.58436 0.0
C2933 C 0.56992 0.37143 0.57057 0.0
C2934 C 0.56119 0.36808 0.54613 0.0
C2935 C 0.5546 0.38589 0.53567 0.0
C2936 C 0.55711 0.40765 0.54959 0.0
C2937 C 0.56599 0.41186 0.57341 0.0
C2938 C 0.56783 0.43736 0.58402 0.0
C2939 C 0.55169 0.43702 0.60289 0.0
C2940 C 0.59384 0.45204 0.5942 0.0
C2941 C 0.5587 0.44677 0.56254 0.0
C2942 C 0.5523 0.42911 0.54294 0.0
C2943 C 0.54268 0.43309 0.5212 0.0
C2944 C 0.53962 0.45545 0.51932 0.0
C2945 C 0.54649 0.4743 0.53885 0.0
C2946 C 0.55627 0.46964 0.56083 0.0
H2947 H 0.4209 0.74338 0.38573 0.0
H2948 H 0.43151 0.8015 0.44306 0.0
H2949 H 0.39922 0.81274 0.4222 0.0
H2950 H 0.4057 0.77212 0.33732 0.0
H2951 H 0.38197 0.74648 0.32127 0.0
H2952 H 0.4063 0.74254 0.34016 0.0
H2953 H 0.37619 0.71671 0.36276 0.0
H2954 H 0.35185 0.72069 0.34388 0.0
H2955 H 0.35505 0.72865 0.37537 0.0
H2956 H 0.3656 0.8177 0.39667 0.0
H2957 H 0.33248 0.81696 0.36658 0.0
H2958 H 0.34166 0.75628 0.3239 0.0
C2959 C 0.41638 0.75847 0.39377 0.0
C2960 C 0.42881 0.77153 0.41625 0.0
C2961 C 0.42218 0.79106 0.42613 0.0
C2962 C 0.40385 0.79766 0.41435 0.0
C2963 C 0.39175 0.78442 0.39258 0.0
C2964 C 0.3975 0.76515 0.38227 0.0
C2965 C 0.38064 0.75377 0.35892 0.0
C2966 C 0.39449 0.75374 0.33819 0.0
C2967 C 0.36501 0.72845 0.36031 0.0
C2968 C 0.36549 0.77035 0.3574 0.0
C2969 C 0.37206 0.78755 0.37735 0.0
C2970 C 0.36034 0.80437 0.38091 0.0
C2971 C 0.34143 0.80375 0.36369 0.0
C2972 C 0.33442 0.78671 0.34274 0.0
C2973 C 0.34675 0.76975 0.33956 0.0
H2974 H 0.06339 0.73088 0.0375 0.0
H2975 H 0.07258 0.73938 0.11377 0.0
H2976 H 0.06965 0.69715 0.11168 0.0
H2977 H 0.01857 0.67033 0.02918 0.0
H2978 H 0.02832 0.6594 0.00305 0.0
H2979 H 0.03146 0.69057 0.01008 0.0
H2980 H 0.07655 0.70128 0.00836 0.0
H2981 H 0.07353 0.67014 0.00153 0.0
H2982 H 0.09466 0.68867 0.02652 0.0
H2983 H 0.06669 0.65432 0.10215 0.0
H2984 H 0.05981 0.6123 0.08558 0.0
H2985 H 0.05039 0.62849 0.01494 0.0
C2986 C 0.0646 0.72376 0.05372 0.0
C2987 C 0.06818 0.73877 0.07591 0.0
C2988 C 0.06956 0.7285 0.0966 0.0
C2989 C 0.06809 0.70443 0.0956 0.0
C2990 C 0.06467 0.69022 0.07368 0.0
C2991 C 0.06239 0.69925 0.05302 0.0
C2992 C 0.05739 0.6793 0.03185 0.0
C2993 C 0.03246 0.67463 0.0177 0.0
C2994 C 0.0767 0.68521 0.01614 0.0
C2995 C 0.05825 0.65808 0.0439 0.0
C2996 C 0.06239 0.66497 0.06808 0.0
C2997 C 0.06341 0.64877 0.08325 0.0
C2998 C 0.05956 0.62486 0.07364 0.0
C2999 C 0.0549 0.61695 0.04898 0.0
C3000 C 0.05446 0.63397 0.03386 0.0
H3001 H 0.06081 0.27287 0.90056 0.0
H3002 H 0.07206 0.34847 0.92054 0.0
H3003 H 0.10728 0.35777 0.90086 0.0
H3004 H 0.1242 0.27773 0.90745 0.0
H3005 H 0.12038 0.25509 0.88236 0.0
H3006 H 0.09632 0.25387 0.89888 0.0
H3007 H 0.06831 0.25281 0.86076 0.0
H3008 H 0.09223 0.25391 0.84413 0.0
H3009 H 0.07711 0.27591 0.84321 0.0
H3010 H 0.14053 0.35956 0.87863 0.0
H3011 H 0.16928 0.35356 0.85324 0.0
H3012 H 0.13724 0.27698 0.84621 0.0
C3013 C 0.07073 0.29137 0.90085 0.0
C3014 C 0.0635 0.30992 0.91218 0.0
C3015 C 0.07704 0.33388 0.91203 0.0
C3016 C 0.09721 0.33941 0.90095 0.0
C3017 C 0.10381 0.32084 0.88998 0.0
C3018 C 0.09103 0.29729 0.88971 0.0
C3019 C 0.10186 0.2809 0.87595 0.0
C3020 C 0.11125 0.26601 0.89213 0.0
C3021 C 0.0838 0.26494 0.85475 0.0
C3022 C 0.12228 0.29896 0.8681 0.0
C3023 C 0.12315 0.32188 0.87672 0.0
C3024 C 0.14002 0.3417 0.87172 0.0
C3025 C 0.15621 0.33809 0.85715 0.0
C3026 C 0.15541 0.31483 0.84746 0.0
C3027 C 0.13843 0.29499 0.85342 0.0
H3028 H 0.54182 0.7843 0.94058 0.0
H3029 H 0.55258 0.75751 0.87115 0.0
H3030 H 0.55033 0.71868 0.88373 0.0
H3031 H 0.57663 0.75439 0.97353 0.0
H3032 H 0.55677 0.74924 0.9949 0.0
H3033 H 0.56036 0.77477 0.98038 0.0
H3034 H 0.51462 0.76132 0.96657 0.0
H3035 H 0.51096 0.73557 0.98073 0.0
H3036 H 0.49975 0.73196 0.94979 0.0
H3037 H 0.54431 0.68173 0.90413 0.0
H3038 H 0.53817 0.65169 0.93064 0.0
H3039 H 0.53262 0.70425 0.98658 0.0
C3040 C 0.54406 0.7704 0.92806 0.0
C3041 C 0.5475 0.77395 0.90489 0.0
C3042 C 0.55027 0.75528 0.88907 0.0
C3043 C 0.54882 0.73313 0.89603 0.0
C3044 C 0.54487 0.73012 0.91893 0.0
C3045 C 0.54288 0.74846 0.93476 0.0
C3046 C 0.53863 0.74097 0.95829 0.0
C3047 C 0.55933 0.75572 0.97793 0.0
C3048 C 0.51456 0.74255 0.96417 0.0
C3049 C 0.53822 0.71541 0.95331 0.0
C3050 C 0.54178 0.70935 0.93054 0.0
C3051 C 0.54177 0.68645 0.92204 0.0
C3052 C 0.53835 0.66952 0.93728 0.0
C3053 C 0.53494 0.67553 0.9608 0.0
C3054 C 0.53484 0.69885 0.96869 0.0
H3055 H 0.09295 0.73132 0.72965 0.0
H3056 H 0.09354 0.80292 0.75485 0.0
H3057 H 0.13736 0.81527 0.76717 0.0
H3058 H 0.1408 0.72818 0.77337 0.0
H3059 H 0.15347 0.71283 0.75232 0.0
H3060 H 0.12201 0.70907 0.74731 0.0
H3061 H 0.12559 0.72235 0.7067 0.0
H3062 H 0.15705 0.72612 0.71153 0.0
H3063 H 0.14689 0.75055 0.70496 0.0
H3064 H 0.18119 0.82049 0.77509 0.0
H3065 H 0.22222 0.81885 0.77662 0.0
H3066 H 0.19472 0.74419 0.74536 0.0
C3067 C 0.10229 0.74946 0.73828 0.0
C3068 C 0.08969 0.76605 0.74189 0.0
C3069 C 0.1027 0.78985 0.75229 0.0
C3070 C 0.12761 0.797 0.75931 0.0
C3071 C 0.13952 0.78031 0.75538 0.0
C3072 C 0.12735 0.75707 0.74489 0.0
C3073 C 0.14477 0.74326 0.74095 0.0
C3074 C 0.13997 0.72208 0.75429 0.0
C3075 C 0.14349 0.73509 0.71446 0.0
C3076 C 0.1686 0.76219 0.75137 0.0
C3077 C 0.16502 0.78344 0.7595 0.0
C3078 C 0.18412 0.8039 0.76889 0.0
C3079 C 0.20742 0.80281 0.76967 0.0
C3080 C 0.21177 0.78143 0.76133 0.0
C3081 C 0.192 0.76069 0.75231 0.0
H3082 H 0.07104 0.41297 0.40312 0.0
H3083 H 0.02267 0.36192 0.43699 0.0
H3084 H 0.01519 0.39396 0.46119 0.0
H3085 H 0.09544 0.45664 0.4603 0.0
H3086 H 0.09906 0.4826 0.4464 0.0
H3087 H 0.10177 0.45578 0.43061 0.0
H3088 H 0.06925 0.45583 0.39691 0.0
H3089 H 0.06633 0.48251 0.41271 0.0
H3090 H 0.04053 0.45637 0.40345 0.0
H3091 H 0.0089 0.42885 0.47946 0.0
H3092 H 0.00967 0.46805 0.49765 0.0
H3093 H 0.0646 0.50109 0.45784 0.0
C3094 C 0.05925 0.40864 0.41592 0.0
C3095 C 0.0471 0.38442 0.4174 0.0
C3096 C 0.03194 0.37989 0.43468 0.0
C3097 C 0.02743 0.39811 0.44876 0.0
C3098 C 0.0387 0.42136 0.44634 0.0
C3099 C 0.0549 0.42709 0.43108 0.0
C3100 C 0.06508 0.45429 0.43374 0.0
C3101 C 0.09194 0.46283 0.44332 0.0
C3102 C 0.05998 0.46274 0.41029 0.0
C3103 C 0.0512 0.46236 0.45203 0.0
C3104 C 0.03611 0.44269 0.4587 0.0
C3105 C 0.02094 0.44452 0.47477 0.0
C3106 C 0.02154 0.46708 0.48504 0.0
C3107 C 0.03736 0.48797 0.47956 0.0
C3108 C 0.05229 0.48556 0.46249 0.0
H3109 H 0.43945 0.26152 0.20701 0.0
H3110 H 0.48198 0.27605 0.27643 0.0
H3111 H 0.44931 0.285 0.29419 0.0
H3112 H 0.40903 0.30624 0.21778 0.0
H3113 H 0.38064 0.28741 0.20137 0.0
H3114 H 0.40787 0.28363 0.19357 0.0
H3115 H 0.39274 0.23931 0.198 0.0
H3116 H 0.36551 0.24298 0.20588 0.0
H3117 H 0.38363 0.2315 0.2253 0.0
H3118 H 0.41237 0.29289 0.30496 0.0
H3119 H 0.37266 0.29652 0.30827 0.0
H3120 H 0.35107 0.27389 0.23276 0.0
C3121 C 0.44199 0.26697 0.2259 0.0
C3122 C 0.4637 0.26846 0.24026 0.0
C3123 C 0.46582 0.27497 0.26498 0.0
C3124 C 0.44727 0.2801 0.27528 0.0
C3125 C 0.42614 0.27827 0.26082 0.0
C3126 C 0.4232 0.27164 0.23667 0.0
C3127 C 0.39799 0.26988 0.22552 0.0
C3128 C 0.39894 0.28786 0.20855 0.0
C3129 C 0.38415 0.2444 0.21293 0.0
C3130 C 0.38734 0.27651 0.24714 0.0
C3131 C 0.40414 0.28158 0.26724 0.0
C3132 C 0.39905 0.28879 0.28933 0.0
C3133 C 0.37633 0.29084 0.29103 0.0
C3134 C 0.3584 0.28533 0.27091 0.0
C3135 C 0.36413 0.27796 0.24861 0.0
H3136 H 0.57996 0.56766 0.36328 0.0
H3137 H 0.60743 0.50836 0.35104 0.0
H3138 H 0.59945 0.49869 0.39046 0.0
H3139 H 0.60457 0.58517 0.42491 0.0
H3140 H 0.57942 0.59388 0.43218 0.0
H3141 H 0.5877 0.59581 0.40341 0.0
H3142 H 0.54495 0.56925 0.38407 0.0
H3143 H 0.53653 0.56726 0.41276 0.0
H3144 H 0.53266 0.54049 0.39238 0.0
H3145 H 0.58894 0.49682 0.43286 0.0
H3146 H 0.57541 0.50167 0.47167 0.0
H3147 H 0.5535 0.56108 0.45366 0.0
C3148 C 0.5843 0.5525 0.36867 0.0
C3149 C 0.59428 0.53869 0.35387 0.0
C3150 C 0.59981 0.51923 0.36199 0.0
C3151 C 0.59532 0.51364 0.38437 0.0
C3152 C 0.58545 0.52777 0.39845 0.0
C3153 C 0.58005 0.54681 0.39074 0.0
C3154 C 0.56971 0.5595 0.40885 0.0
C3155 C 0.58634 0.5851 0.41787 0.0
C3156 C 0.54446 0.55908 0.39892 0.0
C3157 C 0.56932 0.54429 0.42786 0.0
C3158 C 0.57891 0.52632 0.42191 0.0
C3159 C 0.58131 0.51077 0.43749 0.0
C3160 C 0.57368 0.51367 0.4595 0.0
C3161 C 0.56332 0.53162 0.46547 0.0
C3162 C 0.56111 0.54701 0.44937 0.0
H3163 H 0.29552 0.84024 0.0476 0.0
H3164 H 0.30294 0.91394 0.07262 0.0
H3165 H 0.29777 0.90484 0.11229 0.0
H3166 H 0.25043 0.81581 0.08922 0.0
H3167 H 0.26256 0.7919 0.09253 0.0
H3168 H 0.26138 0.80289 0.06495 0.0
H3169 H 0.3067 0.81045 0.06691 0.0
H3170 H 0.30826 0.79987 0.09451 0.0
H3171 H 0.32702 0.82922 0.09233 0.0
H3172 H 0.30266 0.89106 0.14918 0.0
H3173 H 0.31166 0.8715 0.18224 0.0
H3174 H 0.29669 0.80517 0.13395 0.0
C3175 C 0.2952 0.85408 0.0614 0.0
C3176 C 0.2996 0.87764 0.05763 0.0
C3177 C 0.29936 0.89572 0.07561 0.0
C3178 C 0.29631 0.89072 0.09802 0.0
C3179 C 0.29272 0.86743 0.10162 0.0
C3180 C 0.29137 0.84918 0.08374 0.0
C3181 C 0.28947 0.82626 0.09298 0.0
C3182 C 0.26447 0.80814 0.08442 0.0
C3183 C 0.30905 0.81588 0.08629 0.0
C3184 C 0.2931 0.83534 0.11908 0.0
C3185 C 0.29424 0.85897 0.12356 0.0
C3186 C 0.30072 0.87228 0.1461 0.0
C3187 C 0.30594 0.86107 0.16471 0.0
C3188 C 0.30453 0.83679 0.16057 0.0
C3189 C 0.2978 0.82374 0.13752 0.0
H3190 H 0.96095 0.54304 0.85984 0.0
H3191 H 0.89854 0.48875 0.87228 0.0
H3192 H 0.92059 0.48658 0.91034 0.0
H3193 H 1.00345 0.51647 0.884 0.0
H3194 H 0.02573 0.54457 0.89662 0.0
H3195 H 1.00503 0.5424 0.87049 0.0
H3196 H 0.99157 0.57615 0.89112 0.0
H3197 H 0.01262 0.57878 0.91705 0.0
H3198 H 0.98156 0.5736 0.91915 0.0
H3199 H 0.94856 0.49086 0.94667 0.0
H3200 H 0.98064 0.50327 0.98115 0.0
H3201 H 0.02551 0.55343 0.94443 0.0
C3202 C 0.9519 0.53095 0.87077 0.0
C3203 C 0.92816 0.51613 0.86344 0.0
C3204 C 0.91683 0.50019 0.87781 0.0
C3205 C 0.92918 0.49876 0.89929 0.0
C3206 C 0.95284 0.51313 0.90573 0.0
C3207 C 0.96408 0.52899 0.89202 0.0
C3208 C 0.98966 0.54229 0.90302 0.0
C3209 C 1.00699 0.53605 0.88761 0.0
C3210 C 0.99409 0.5693 0.90788 0.0
C3211 C 0.99073 0.53212 0.92553 0.0
C3212 C 0.96937 0.51506 0.92652 0.0
C3213 C 0.96548 0.50393 0.94604 0.0
C3214 C 0.98372 0.51099 0.9654 0.0
C3215 C 1.00534 0.52889 0.96489 0.0
C3216 C 0.0092 0.53928 0.9447 0.0
H3217 H 0.2955 0.28427 0.5971 0.0
H3218 H 0.27736 0.20752 0.59033 0.0
H3219 H 0.27021 0.20964 0.63141 0.0
H3220 H 0.32806 0.29561 0.65806 0.0
H3221 H 0.3188 0.32105 0.66693 0.0
H3222 H 0.32212 0.31354 0.63673 0.0
H3223 H 0.27862 0.31213 0.62329 0.0
H3224 H 0.27502 0.31918 0.65349 0.0
H3225 H 0.25472 0.29272 0.63489 0.0
H3226 H 0.26129 0.21933 0.67178 0.0
H3227 H 0.26019 0.2369 0.71245 0.0
H3228 H 0.28902 0.30763 0.69581 0.0
C3229 C 0.29043 0.26803 0.60449 0.0
C3230 C 0.28708 0.24572 0.59056 0.0
C3231 C 0.28037 0.22482 0.60077 0.0
C3232 C 0.27598 0.2258 0.62402 0.0
C3233 C 0.27897 0.2479 0.63717 0.0
C3234 C 0.28685 0.26875 0.62814 0.0
C3235 C 0.29008 0.29021 0.64681 0.0
C3236 C 0.31633 0.30603 0.65247 0.0
C3237 C 0.27362 0.3044 0.63915 0.0
C3238 C 0.2824 0.27808 0.66748 0.0
C3239 C 0.27551 0.25363 0.66127 0.0
C3240 C 0.26689 0.23847 0.67696 0.0
C3241 C 0.26607 0.24855 0.69991 0.0
C3242 C 0.27429 0.2735 0.70705 0.0
C3243 C 0.28241 0.28847 0.6906 0.0
H3244 H 0.58664 0.52206 0.20592 0.0
H3245 H 0.55289 0.57259 0.23364 0.0
H3246 H 0.54057 0.57834 0.19365 0.0
H3247 H 0.60833 0.55067 0.1597 0.0
H3248 H 0.60139 0.52416 0.13804 0.0
H3249 H 0.60702 0.52261 0.16892 0.0
H3250 H 0.56597 0.49005 0.16501 0.0
H3251 H 0.56037 0.49132 0.13403 0.0
H3252 H 0.53936 0.49574 0.15269 0.0
H3253 H 0.53588 0.58274 0.15146 0.0
H3254 H 0.53308 0.58005 0.10828 0.0
H3255 H 0.56588 0.52412 0.10617 0.0
C3256 C 0.57622 0.53392 0.20352 0.0
C3257 C 0.57087 0.54686 0.22319 0.0
C3258 C 0.55725 0.5623 0.21911 0.0
C3259 C 0.5502 0.56586 0.19635 0.0
C3260 C 0.55629 0.55346 0.1775 0.0
C3261 C 0.56836 0.53727 0.18064 0.0
C3262 C 0.57211 0.52606 0.15697 0.0
C3263 C 0.59881 0.53119 0.15586 0.0
C3264 C 0.55865 0.49919 0.15188 0.0
C3265 C 0.56097 0.53906 0.14036 0.0
C3266 C 0.55217 0.55495 0.15268 0.0
C3267 C 0.54229 0.57002 0.14151 0.0
C3268 C 0.54093 0.5685 0.11701 0.0
C3269 C 0.54903 0.55176 0.10383 0.0
C3270 C 0.55922 0.53688 0.11575 0.0
H3271 H 0.27301 0.89034 0.91939 0.0
H3272 H 0.30028 0.84694 0.9628 0.0
H3273 H 0.30544 0.82294 0.92752 0.0
H3274 H 0.24036 0.84262 0.871 0.0
H3275 H 0.24809 0.8606 0.84854 0.0
H3276 H 0.24586 0.87432 0.87727 0.0
H3277 H 0.28907 0.90301 0.88101 0.0
H3278 H 0.29142 0.88914 0.85238 0.0
H3279 H 0.31303 0.89084 0.8776 0.0
H3280 H 0.30884 0.80459 0.88891 0.0
H3281 H 0.307 0.78991 0.84692 0.0
H3282 H 0.27752 0.84496 0.8282 0.0
C3283 C 0.27923 0.87525 0.92121 0.0
C3284 C 0.28579 0.86996 0.94345 0.0
C3285 C 0.29482 0.85079 0.94563 0.0
C3286 C 0.29805 0.83727 0.92583 0.0
C3287 C 0.2921 0.84322 0.90412 0.0
C3288 C 0.28269 0.86152 0.90152 0.0
C3289 C 0.2781 0.86405 0.87597 0.0
C3290 C 0.25152 0.86015 0.86771 0.0
C3291 C 0.29385 0.8882 0.8715 0.0
C3292 C 0.28576 0.84389 0.86485 0.0
C3293 C 0.29415 0.83244 0.88146 0.0
C3294 C 0.30219 0.81324 0.87557 0.0
C3295 C 0.30105 0.80505 0.85175 0.0
C3296 C 0.29183 0.81612 0.83443 0.0
C3297 C 0.28447 0.836 0.84109 0.0
H3298 H 0.95244 0.49377 0.74738 0.0
H3299 H 0.90203 0.53001 0.72626 0.0
H3300 H 0.9074 0.52166 0.68494 0.0
H3301 H 0.99274 0.51694 0.70993 0.0
H3302 H 1.00072 0.49019 0.70398 0.0
H3303 H 0.99072 0.49712 0.73122 0.0
H3304 H 0.95778 0.45586 0.72201 0.0
H3305 H 0.96718 0.44917 0.69423 0.0
H3306 H 0.93668 0.44803 0.69504 0.0
H3307 H 0.91827 0.51019 0.64671 0.0
H3308 H 0.94151 0.50524 0.61508 0.0
H3309 H 0.98632 0.47848 0.66147 0.0
C3310 C 0.94254 0.49991 0.73401 0.0
C3311 C 0.92671 0.51229 0.73979 0.0
C3312 C 0.91432 0.52049 0.72207 0.0
C3313 C 0.91691 0.51549 0.69856 0.0
C3314 C 0.93201 0.50246 0.69329 0.0
C3315 C 0.94511 0.49536 0.71054 0.0
C3316 C 0.96218 0.48411 0.70054 0.0
C3317 C 0.98812 0.49793 0.71209 0.0
C3318 C 0.95555 0.45772 0.70311 0.0
C3319 C 0.95732 0.48693 0.67509 0.0
C3320 C 0.93917 0.49669 0.67115 0.0
C3321 C 0.93246 0.50247 0.64946 0.0
C3322 C 0.94574 0.49965 0.63168 0.0
C3323 C 0.96576 0.49176 0.6361 0.0
C3324 C 0.97083 0.48416 0.65758 0.0
H3325 H 0.28517 0.27213 0.45694 0.0
H3326 H 0.30821 0.20954 0.45112 0.0
H3327 H 0.3132 0.21306 0.40981 0.0
H3328 H 0.25156 0.26001 0.40039 0.0
H3329 H 0.26004 0.29049 0.39565 0.0
H3330 H 0.25983 0.28396 0.42513 0.0
H3331 H 0.30413 0.31014 0.43714 0.0
H3332 H 0.30444 0.317 0.40775 0.0
H3333 H 0.32602 0.30436 0.42034 0.0
H3334 H 0.3119 0.22146 0.36741 0.0
H3335 H 0.30817 0.23628 0.32951 0.0
H3336 H 0.28765 0.29418 0.36399 0.0
C3337 C 0.29165 0.25936 0.44714 0.0
C3338 C 0.29633 0.24056 0.4574 0.0
C3339 C 0.3047 0.22423 0.44382 0.0
C3340 C 0.30747 0.22601 0.42025 0.0
C3341 C 0.30214 0.24442 0.41052 0.0
C3342 C 0.29481 0.26104 0.42372 0.0
C3343 C 0.28997 0.27899 0.40916 0.0
C3344 C 0.26379 0.27831 0.40749 0.0
C3345 C 0.30717 0.30411 0.41919 0.0
C3346 C 0.2952 0.26964 0.38554 0.0
C3347 C 0.30213 0.24963 0.38658 0.0
C3348 C 0.3068 0.23731 0.36655 0.0
C3349 C 0.30454 0.24579 0.34504 0.0
C3350 C 0.29782 0.2665 0.34371 0.0
C3351 C 0.29314 0.27847 0.36436 0.0
H3352 H 0.35778 0.64317 0.55235 0.0
H3353 H 0.31094 0.59269 0.58766 0.0
H3354 H 0.32964 0.56256 0.57478 0.0
H3355 H 0.35465 0.60185 0.50227 0.0
H3356 H 0.38524 0.61481 0.49865 0.0
H3357 H 0.3697 0.63322 0.51216 0.0
H3358 H 0.40253 0.64699 0.54918 0.0
H3359 H 0.41841 0.62901 0.53555 0.0
H3360 H 0.41044 0.62503 0.56417 0.0
H3361 H 0.35059 0.53725 0.55543 0.0
H3362 H 0.37695 0.51941 0.53501 0.0
H3363 H 0.4099 0.58659 0.51262 0.0
C3364 C 0.35182 0.626 0.55794 0.0
C3365 C 0.33299 0.62021 0.5711 0.0
C3366 C 0.32543 0.59743 0.57766 0.0
C3367 C 0.33581 0.58021 0.57032 0.0
C3368 C 0.35359 0.58619 0.55648 0.0
C3369 C 0.36179 0.6086 0.55061 0.0
C3370 C 0.38053 0.61022 0.53488 0.0
C3371 C 0.37201 0.61533 0.51056 0.0
C3372 C 0.4044 0.6289 0.54666 0.0
C3373 C 0.38181 0.58524 0.53314 0.0
C3374 C 0.36584 0.57157 0.54539 0.0
C3375 C 0.36327 0.54771 0.54585 0.0
C3376 C 0.37802 0.5377 0.53404 0.0
C3377 C 0.39506 0.5517 0.52225 0.0
C3378 C 0.39679 0.57562 0.52149 0.0
H3379 H 0.86148 0.94832 0.55157 0.0
H3380 H 0.87894 0.88357 0.53153 0.0
H3381 H 0.91778 0.90707 0.52443 0.0
H3382 H 0.89265 0.98183 0.50949 0.0
H3383 H 0.9042 0.00972 0.52957 0.0
H3384 H 0.87648 0.98825 0.53252 0.0
H3385 H 0.89334 0.98846 0.57591 0.0
H3386 H 0.92103 0.01 0.57307 0.0
H3387 H 0.92107 0.98232 0.58241 0.0
H3388 H 0.95435 0.93554 0.51996 0.0
H3389 H 0.9897 0.96961 0.52027 0.0
H3390 H 0.95199 0.01812 0.54344 0.0
C3391 C 0.87354 0.93921 0.54569 0.0
C3392 C 0.86702 0.91399 0.5423 0.0
C3393 C 0.88338 0.90277 0.53461 0.0
C3394 C 0.90556 0.91596 0.5303 0.0
C3395 C 0.91151 0.94054 0.53384 0.0
C3396 C 0.8963 0.95228 0.54153 0.0
C3397 C 0.90832 0.97913 0.54474 0.0
C3398 C 0.89458 0.9904 0.52809 0.0
C3399 C 0.9111 0.99066 0.57057 0.0
C3400 C 0.93247 0.98031 0.53772 0.0
C3401 C 0.93355 0.95764 0.53139 0.0
C3402 C 0.95381 0.95344 0.52486 0.0
C3403 C 0.97384 0.97292 0.5252 0.0
C3404 C 0.97361 0.99643 0.53201 0.0
C3405 C 0.95251 1.0003 0.53797 0.0
H3406 H 0.89622 0.08779 0.30754 0.0
H3407 H 0.9355 0.105 0.25007 0.0
H3408 H 0.91814 0.13709 0.24509 0.0
H3409 H 0.84314 0.09573 0.28212 0.0
H3410 H 0.83672 0.10881 0.30927 0.0
H3411 H 0.85379 0.08852 0.30977 0.0
H3412 H 0.88801 0.12042 0.33897 0.0
H3413 H 0.87102 0.14084 0.33853 0.0
H3414 H 0.90071 0.1494 0.33131 0.0
H3415 H 0.89535 0.16591 0.24497 0.0
H3416 H 0.86748 0.18891 0.24883 0.0
H3417 H 0.84178 0.15221 0.30546 0.0
C3418 C 0.90138 0.09846 0.29408 0.0
C3419 C 0.91726 0.09385 0.2792 0.0
C3420 C 0.92338 0.10814 0.26167 0.0
C3421 C 0.91369 0.12649 0.25876 0.0
C3422 C 0.89794 0.1304 0.27354 0.0
C3423 C 0.89182 0.11685 0.29087 0.0
C3424 C 0.87357 0.12404 0.3036 0.0
C3425 C 0.85044 0.10302 0.30102 0.0
C3426 C 0.88395 0.13429 0.32965 0.0
C3427 C 0.86985 0.14322 0.29018 0.0
C3428 C 0.88439 0.14684 0.27319 0.0
C3429 C 0.88386 0.16324 0.25821 0.0
C3430 C 0.8678 0.17607 0.26042 0.0
C3431 C 0.8522 0.17225 0.27728 0.0
C3432 C 0.85358 0.15579 0.29256 0.0
H3433 H 0.71745 0.1311 0.09061 0.0
H3434 H 0.73032 0.12978 0.01859 0.0
H3435 H 0.69358 0.09599 0.00522 0.0
H3436 H 0.68292 0.0618 0.08195 0.0
H3437 H 0.66296 0.0673 0.1014 0.0
H3438 H 0.69387 0.08561 0.10684 0.0
H3439 H 0.68101 0.12335 0.10678 0.0
H3440 H 0.65032 0.10526 0.10154 0.0
H3441 H 0.66122 0.12545 0.08166 0.0
H3442 H 0.65327 0.07102 -0.00183 0.0
H3443 H 0.6101 0.05815 0.99734 0.0
H3444 H 0.62074 0.07452 0.07359 0.0
C3445 C 0.71278 0.12284 0.07226 0.0
C3446 C 0.72639 0.13248 0.05551 0.0
C3447 C 0.71991 0.12217 0.03151 0.0
C3448 C 0.69931 0.10284 0.02384 0.0
C3449 C 0.68561 0.09396 0.04051 0.0
C3450 C 0.69206 0.10339 0.0643 0.0
C3451 C 0.67201 0.09327 0.0777 0.0
C3452 C 0.67832 0.07597 0.09287 0.0
C3453 C 0.66577 0.11302 0.09276 0.0
C3454 C 0.65233 0.07983 0.05731 0.0
C3455 C 0.6611 0.07921 0.03622 0.0
C3456 C 0.64624 0.07071 0.01455 0.0
C3457 C 0.62175 0.0637 0.01425 0.0
C3458 C 0.61241 0.0656 0.03546 0.0
C3459 C 0.62771 0.07259 0.05729 0.0
H3460 H 0.22639 0.48888 0.23457 0.0
H3461 H 0.19833 0.50409 0.29853 0.0
H3462 H 0.22077 0.48162 0.31879 0.0
H3463 H 0.22544 0.42863 0.24203 0.0
H3464 H 0.25258 0.43154 0.23004 0.0
H3465 H 0.23294 0.44751 0.22024 0.0
H3466 H 0.268 0.48708 0.23155 0.0
H3467 H 0.28769 0.47135 0.24176 0.0
H3468 H 0.28412 0.49556 0.26127 0.0
H3469 H 0.24826 0.4605 0.33286 0.0
H3470 H 0.2757 0.43706 0.33857 0.0
H3471 H 0.28603 0.43645 0.26559 0.0
C3472 C 0.22458 0.48708 0.25268 0.0
C3473 C 0.21072 0.49816 0.26501 0.0
C3474 C 0.20879 0.49554 0.28873 0.0
C3475 C 0.22156 0.48299 0.30044 0.0
C3476 C 0.23582 0.47308 0.28804 0.0
C3477 C 0.23708 0.47457 0.2646 0.0
C3478 C 0.2539 0.4625 0.25541 0.0
C3479 C 0.24041 0.44128 0.23578 0.0
C3480 C 0.27466 0.48019 0.24701 0.0
C3481 C 0.26228 0.45445 0.27755 0.0
C3482 C 0.25168 0.46076 0.29617 0.0
C3483 C 0.25667 0.45533 0.31845 0.0
C3484 C 0.27246 0.44234 0.3216 0.0
C3485 C 0.28293 0.43514 0.30253 0.0
C3486 C 0.27813 0.4417 0.28041 0.0
H3487 H 0.24408 0.43083 0.04381 0.0
H3488 H 0.22385 0.3943 0.97128 0.0
H3489 H 0.19383 0.41455 0.96456 0.0
H3490 H 0.18494 0.4303 0.05398 0.0
H3491 H 0.19505 0.45982 0.07113 0.0
H3492 H 0.21461 0.44189 0.07083 0.0
H3493 H 0.24655 0.47538 0.05727 0.0
H3494 H 0.22709 0.4934 0.05758 0.0
H3495 H 0.23874 0.48678 0.03115 0.0
H3496 H 0.16626 0.43829 0.96521 0.0
H3497 H 0.14311 0.46556 0.97289 0.0
H3498 H 0.18185 0.48856 0.04447 0.0
C3499 C 0.23319 0.42698 0.02659 0.0
C3500 C 0.23626 0.41088 0.00808 0.0
C3501 C 0.22188 0.40657 0.98571 0.0
C3502 C 0.20472 0.41794 0.98171 0.0
C3503 C 0.20222 0.43375 0.0002 0.0
C3504 C 0.21607 0.43845 0.02217 0.0
C3505 C 0.21016 0.45694 0.03865 0.0
C3506 C 0.20062 0.44661 0.0599 0.0
C3507 C 0.23193 0.47946 0.04662 0.0
C3508 C 0.19075 0.4617 0.02246 0.0
C3509 C 0.18648 0.44804 0.00041 0.0
C3510 C 0.1695 0.44922 0.98236 0.0
C3511 C 0.15656 0.46492 0.98685 0.0
C3512 C 0.16074 0.47942 0.00919 0.0
C3513 C 0.17804 0.47761 0.02725 0.0
H3514 H 0.87739 0.97004 0.24577 0.0
H3515 H 0.94522 0.95962 0.26857 0.0
H3516 H 0.9244 0.92067 0.27768 0.0
H3517 H 0.84604 0.9397 0.28997 0.0
H3518 H 0.8182 0.92561 0.27022 0.0
H3519 H 0.83793 0.95371 0.2659 0.0
H3520 H 0.83837 0.93522 0.22312 0.0
H3521 H 0.81873 0.90707 0.22739 0.0
H3522 H 0.84694 0.90872 0.21808 0.0
H3523 H 0.8984 0.88348 0.28318 0.0
H3524 H 0.86679 0.84778 0.28644 0.0
H3525 H 0.81334 0.87893 0.26048 0.0
C3526 C 0.88767 0.95946 0.25271 0.0
C3527 C 0.91294 0.96765 0.25607 0.0
C3528 C 0.92588 0.95347 0.26536 0.0
C3529 C 0.91424 0.93135 0.27074 0.0
C3530 C 0.88952 0.92343 0.26677 0.0
C3531 C 0.87617 0.9368 0.25806 0.0
C3532 C 0.84964 0.92308 0.25532 0.0
C3533 C 0.83721 0.93632 0.2713 0.0
C3534 C 0.83772 0.91824 0.22943 0.0
C3535 C 0.85051 0.90011 0.2637 0.0
C3536 C 0.87387 0.90108 0.27022 0.0
C3537 C 0.87996 0.88247 0.27834 0.0
C3538 C 0.86171 0.8622 0.28015 0.0
C3539 C 0.83741 0.8605 0.27397 0.0
C3540 C 0.8317 0.87971 0.2654 0.0
H3541 H 0.75702 0.12112 0.7314 0.0
H3542 H 0.76016 0.10895 0.80326 0.0
H3543 H 0.78478 0.15047 0.81704 0.0
H3544 H 0.81509 0.17867 0.74012 0.0
H3545 H 0.79821 0.19103 0.72034 0.0
H3546 H 0.79409 0.15953 0.71535 0.0
H3547 H 0.749 0.15176 0.71449 0.0
H3548 H 0.7528 0.18286 0.72112 0.0
H3549 H 0.7386 0.16313 0.74004 0.0
H3550 H 0.7864 0.19096 0.82345 0.0
H3551 H 0.77994 0.22925 0.82234 0.0
H3552 H 0.77782 0.21981 0.74673 0.0
C3553 C 0.76499 0.12689 0.74979 0.0
C3554 C 0.75668 0.11239 0.7664 0.0
C3555 C 0.76656 0.11996 0.79038 0.0
C3556 C 0.7802 0.14375 0.79832 0.0
C3557 C 0.78394 0.15914 0.78185 0.0
C3558 C 0.77751 0.15094 0.75782 0.0
C3559 C 0.77757 0.17119 0.74428 0.0
C3560 C 0.79745 0.17536 0.72914 0.0
C3561 C 0.75305 0.16695 0.72914 0.0
C3562 C 0.78286 0.19152 0.76449 0.0
C3563 C 0.78647 0.18413 0.78595 0.0
C3564 C 0.78555 0.19761 0.80695 0.0
C3565 C 0.78175 0.2194 0.80613 0.0
C3566 C 0.77989 0.22812 0.78464 0.0
C3567 C 0.78045 0.21401 0.76353 0.0
loop_
_geom_bond_atom_site_label_1
_geom_bond_atom_site_label_2
_geom_bond_distance
_geom_bond_site_symmetry_2
_ccdc_geom_bond_type
Zn0 O3 2.031 . S
Zn0 O5 2.049 . S
Zn0 O10 2.067 1_455 S
Zn1 O2 1.962 . S
Zn1 O4 1.986 . S
Zn1 O6 1.996 . S
Zn1 O9 1.943 . S
O2 Zn1 1.962 . S
O2 C7 1.254 . S
O3 Zn0 2.031 . S
O3 C7 1.269 . S
O4 Zn1 1.986 . S
O4 C11 1.262 . S
O5 Zn0 2.049 . S
O5 C13 1.260 . S
O6 Zn1 1.996 . S
O6 C13 1.257 . S
C7 O2 1.254 . S
C7 O3 1.269 . S
C8 O9 1.214 1_655 S
C8 O10 1.286 . S
O9 Zn1 1.943 . S
O9 C8 1.214 1_455 S
O10 Zn0 2.067 1_655 S
O10 C8 1.286 . S
C11 O4 1.262 . S
C11 O12 1.232 . S
O12 C11 1.232 . S
C13 O5 1.260 . S
C13 O6 1.257 . S
Zn14 O17 2.031 1_455 S
Zn14 O19 2.049 . S
Zn14 O24 2.067 . S
Zn15 O16 1.962 . S
Zn15 O18 1.986 . S
Zn15 O20 1.996 . S
Zn15 O23 1.943 . S
O16 Zn15 1.962 . S
O16 C21 1.254 1_455 S
O17 Zn14 2.031 1_655 S
O17 C21 1.269 . S
O18 Zn15 1.986 . S
O18 C25 1.262 . S
O19 Zn14 2.049 . S
O19 C27 1.260 . S
O20 Zn15 1.996 . S
O20 C27 1.257 . S
C21 O16 1.254 1_655 S
C21 O17 1.269 . S
C22 O23 1.249 . S
C22 O24 1.270 . S
O23 Zn15 1.943 . S
O23 C22 1.249 . S
O24 Zn14 2.067 . S
O24 C22 1.270 . S
C25 O18 1.262 . S
C25 O26 1.232 . S
O26 C25 1.232 . S
C27 O19 1.260 . S
C27 O20 1.257 . S
Zn28 O31 2.031 . S
Zn28 O33 2.049 . S
Zn28 O38 2.067 . S
Zn29 O30 1.962 . S
Zn29 O32 1.986 . S
Zn29 O34 1.996 . S
Zn29 O37 1.943 . S
O30 Zn29 1.962 . S
O30 C35 1.254 . S
O31 Zn28 2.031 . S
O31 C35 1.269 . S
O32 Zn29 1.986 . S
O32 C39 1.262 . S
O33 Zn28 2.049 . S
O33 C41 1.260 . S
O34 Zn29 1.996 . S
O34 C41 1.257 . S
C35 O30 1.254 . S
C35 O31 1.269 . S
C36 O37 1.249 . S
C36 O38 1.270 . S
O37 Zn29 1.943 . S
O37 C36 1.249 . S
O38 Zn28 2.067 . S
O38 C36 1.270 . S
C39 O32 1.262 . S
C39 O40 1.232 . S
O40 C39 1.232 . S
C41 O33 1.260 . S
C41 O34 1.257 . S
Zn42 O45 2.031 . S
Zn42 O47 2.049 . S
Zn42 O52 2.067 . S
Zn43 O44 1.962 . S
Zn43 O46 1.986 . S
Zn43 O48 1.996 . S
Zn43 O51 1.943 . S
O44 Zn43 1.962 . S
O44 C49 1.254 . S
O45 Zn42 2.031 . S
O45 C49 1.269 . S
O46 Zn43 1.986 . S
O46 C53 1.262 . S
O47 Zn42 2.049 . S
O47 C55 1.260 . S
O48 Zn43 1.996 . S
O48 C55 1.257 . S
C49 O44 1.254 . S
C49 O45 1.269 . S
C50 O51 1.249 . S
C50 O52 1.270 . S
O51 Zn43 1.943 . S
O51 C50 1.249 . S
O52 Zn42 2.067 . S
O52 C50 1.270 . S
C53 O46 1.262 . S
C53 O54 1.232 . S
O54 C53 1.232 . S
C55 O47 1.260 . S
C55 O48 1.257 . S
Zn56 O59 2.031 . S
Zn56 O61 2.049 . S
Zn56 O66 2.067 . S
Zn57 O58 1.962 . S
Zn57 O60 1.986 . S
Zn57 O62 1.996 . S
Zn57 O65 1.943 . S
O58 Zn57 1.962 . S
O58 C63 1.254 . S
O59 Zn56 2.031 . S
O59 C63 1.269 . S
O60 Zn57 1.986 . S
O60 C67 1.262 . S
O61 Zn56 2.049 . S
O61 C69 1.260 . S
O62 Zn57 1.996 . S
O62 C69 1.257 . S
C63 O58 1.254 . S
C63 O59 1.269 . S
C64 O65 1.249 . S
C64 O66 1.270 . S
O65 Zn57 1.943 . S
O65 C64 1.249 . S
O66 Zn56 2.067 . S
O66 C64 1.270 . S
C67 O60 1.262 . S
C67 O68 1.232 . S
O68 C67 1.232 . S
C69 O61 1.260 . S
C69 O62 1.257 . S
Zn70 O73 2.031 . S
Zn70 O75 2.049 . S
Zn70 O80 2.067 . S
Zn71 O72 1.962 . S
Zn71 O74 1.986 . S
Zn71 O76 1.996 . S
Zn71 O79 1.943 . S
O72 Zn71 1.962 . S
O72 C77 1.254 . S
O73 Zn70 2.031 . S
O73 C77 1.269 . S
O74 Zn71 1.986 . S
O74 C81 1.262 . S
O75 Zn70 2.049 . S
O75 C83 1.260 . S
O76 Zn71 1.996 . S
O76 C83 1.257 . S
C77 O72 1.254 . S
C77 O73 1.269 . S
C78 O79 1.249 . S
C78 O80 1.270 . S
O79 Zn71 1.943 . S
O79 C78 1.249 . S
O80 Zn70 2.067 . S
O80 C78 1.270 . S
C81 O74 1.262 . S
C81 O82 1.232 . S
O82 C81 1.232 . S
C83 O75 1.260 . S
C83 O76 1.257 . S
Zn84 O87 2.031 . S
Zn84 O89 2.049 . S
Zn84 O94 2.067 . S
Zn85 O86 1.962 . S
Zn85 O88 1.986 . S
Zn85 O90 1.996 . S
Zn85 O93 1.943 . S
O86 Zn85 1.962 . S
O86 C91 1.254 . S
O87 Zn84 2.031 . S
O87 C91 1.269 . S
O88 Zn85 1.986 . S
O88 C95 1.262 . S
O89 Zn84 2.049 . S
O89 C97 1.260 . S
O90 Zn85 1.996 . S
O90 C97 1.257 . S
C91 O86 1.254 . S
C91 O87 1.269 . S
C92 O93 1.249 . S
C92 O94 1.270 . S
O93 Zn85 1.943 . S
O93 C92 1.249 . S
O94 Zn84 2.067 . S
O94 C92 1.270 . S
C95 O88 1.262 . S
C95 O96 1.232 . S
O96 C95 1.232 . S
C97 O89 1.260 . S
C97 O90 1.257 . S
Zn98 O101 2.031 . S
Zn98 O103 2.049 . S
Zn98 O108 2.067 . S
Zn99 O100 1.962 . S
Zn99 O102 1.986 . S
Zn99 O104 1.996 . S
Zn99 O107 1.943 1_455 S
O100 Zn99 1.962 . S
O100 C105 1.254 . S
O101 Zn98 2.031 . S
O101 C105 1.269 1_655 S
O102 Zn99 1.986 . S
O102 C109 1.262 . S
O103 Zn98 2.049 . S
O103 C111 1.260 . S
O104 Zn99 1.996 . S
O104 C111 1.257 1_455 S
C105 O100 1.254 . S
C105 O101 1.269 1_455 S
C106 O107 1.249 . S
C106 O108 1.270 . S
O107 Zn99 1.943 1_655 S
O107 C106 1.249 . S
O108 Zn98 2.067 . S
O108 C106 1.270 . S
C109 O102 1.262 . S
C109 O110 1.232 . S
O110 C109 1.232 . S
C111 O103 1.260 . S
C111 O104 1.257 1_655 S
Zn112 O115 2.031 . S
Zn112 O117 2.049 . S
Zn112 O122 2.067 . S
Zn113 O114 1.962 . S
Zn113 O116 1.986 . S
Zn113 O118 1.996 . S
Zn113 O121 1.943 1_545 S
O114 Zn113 1.962 . S
O114 C119 1.254 . S
O115 Zn112 2.031 . S
O115 C119 1.269 1_565 S
O116 Zn113 1.986 . S
O116 C123 1.262 . S
O117 Zn112 2.049 . S
O117 C125 1.260 . S
O118 Zn113 1.996 . S
O118 C125 1.257 1_545 S
C119 O114 1.254 . S
C119 O115 1.269 1_545 S
C120 O121 1.249 . S
C120 O122 1.270 . S
O121 Zn113 1.943 1_565 S
O121 C120 1.249 . S
O122 Zn112 2.067 . S
O122 C120 1.270 . S
C123 O116 1.262 . S
C123 O124 1.232 . S
O124 C123 1.232 . S
C125 O117 1.260 . S
C125 O118 1.257 1_565 S
Zn126 O129 2.031 . S
Zn126 O131 2.049 . S
Zn126 O136 2.067 . S
Zn127 O128 1.962 . S
Zn127 O130 1.986 . S
Zn127 O132 1.996 . S
Zn127 O135 1.943 . S
O128 Zn127 1.962 . S
O128 C133 1.254 . S
O129 Zn126 2.031 . S
O129 C133 1.269 . S
O130 Zn127 1.986 . S
O130 C137 1.262 . S
O131 Zn126 2.049 . S
O131 C139 1.260 . S
O132 Zn127 1.996 . S
O132 C139 1.257 . S
C133 O128 1.254 . S
C133 O129 1.269 . S
C134 O135 1.249 . S
C134 O136 1.270 . S
O135 Zn127 1.943 . S
O135 C134 1.249 . S
O136 Zn126 2.067 . S
O136 C134 1.270 . S
C137 O130 1.262 . S
C137 O138 1.232 . S
O138 C137 1.232 . S
C139 O131 1.260 . S
C139 O132 1.257 . S
Zn140 O143 2.031 . S
Zn140 O145 2.049 . S
Zn140 O150 2.067 . S
Zn141 O142 1.962 . S
Zn141 O144 1.986 . S
Zn141 O146 1.996 . S
Zn141 O149 1.943 . S
O142 Zn141 1.962 . S
O142 C147 1.254 . S
O143 Zn140 2.031 . S
O143 C147 1.269 . S
O144 Zn141 1.986 . S
O144 C151 1.262 . S
O145 Zn140 2.049 . S
O145 C153 1.260 . S
O146 Zn141 1.996 . S
O146 C153 1.257 . S
C147 O142 1.254 . S
C147 O143 1.269 . S
C148 O149 1.249 . S
C148 O150 1.270 . S
O149 Zn141 1.943 . S
O149 C148 1.249 . S
O150 Zn140 2.067 . S
O150 C148 1.270 . S
C151 O144 1.262 . S
C151 O152 1.232 . S
O152 C151 1.232 . S
C153 O145 1.260 . S
C153 O146 1.257 . S
Zn154 O157 2.031 1_554 S
Zn154 O159 2.049 . S
Zn154 O164 2.067 . S
Zn155 O156 1.962 . S
Zn155 O158 1.986 1_556 S
Zn155 O160 1.996 1_556 S
Zn155 O163 1.943 1_556 S
O156 Zn155 1.962 . S
O156 C161 1.254 . S
O157 Zn154 2.031 1_556 S
O157 C161 1.269 . S
O158 Zn155 1.986 1_554 S
O158 C165 1.262 1_554 S
O159 Zn154 2.049 . S
O159 C167 1.260 . S
O160 Zn155 1.996 1_554 S
O160 C167 1.257 . S
C161 O156 1.254 . S
C161 O157 1.269 . S
C162 O163 1.249 . S
C162 O164 1.270 . S
O163 Zn155 1.943 1_554 S
O163 C162 1.249 . S
O164 Zn154 2.067 . S
O164 C162 1.270 . S
C165 O158 1.262 1_556 S
C165 O166 1.232 . S
O166 C165 1.232 . S
C167 O159 1.260 . S
C167 O160 1.257 . S
Zn168 O171 2.031 . S
Zn168 O173 2.049 . S
Zn168 O178 2.067 . S
Zn169 O170 1.962 . S
Zn169 O172 1.986 . S
Zn169 O174 1.996 . S
Zn169 O177 1.943 . S
O170 Zn169 1.962 . S
O170 C175 1.254 1_554 S
O171 Zn168 2.031 . S
O171 C175 1.269 1_554 S
O172 Zn169 1.986 . S
O172 C179 1.262 . S
O173 Zn168 2.049 . S
O173 C181 1.260 . S
O174 Zn169 1.996 . S
O174 C181 1.257 . S
C175 O170 1.254 1_556 S
C175 O171 1.269 1_556 S
C176 O177 1.249 . S
C176 O178 1.270 . S
O177 Zn169 1.943 . S
O177 C176 1.249 . S
O178 Zn168 2.067 . S
O178 C176 1.270 . S
C179 O172 1.262 . S
C179 O180 1.232 . S
O180 C179 1.232 . S
C181 O173 1.260 . S
C181 O174 1.257 . S
Zn182 O185 2.031 . S
Zn182 O187 2.049 . S
Zn182 O192 2.067 . S
Zn183 O184 1.962 . S
Zn183 O186 1.986 . S
Zn183 O188 1.996 . S
Zn183 O191 1.943 . S
O184 Zn183 1.962 . S
O184 C189 1.254 . S
O185 Zn182 2.031 . S
O185 C189 1.269 . S
O186 Zn183 1.986 . S
O186 C193 1.262 . S
O187 Zn182 2.049 . S
O187 C195 1.260 . S
O188 Zn183 1.996 . S
O188 C195 1.257 . S
C189 O184 1.254 . S
C189 O185 1.269 . S
C190 O191 1.249 . S
C190 O192 1.270 . S
O191 Zn183 1.943 . S
O191 C190 1.249 . S
O192 Zn182 2.067 . S
O192 C190 1.270 . S
C193 O186 1.262 . S
C193 O194 1.232 . S
O194 C193 1.232 . S
C195 O187 1.260 . S
C195 O188 1.257 . S
Zn196 O199 2.031 . S
Zn196 O201 2.049 . S
Zn196 O206 2.067 . S
Zn197 O198 1.962 . S
Zn197 O200 1.986 . S
Zn197 O202 1.996 . S
Zn197 O205 1.943 . S
O198 Zn197 1.962 . S
O198 C203 1.254 . S
O199 Zn196 2.031 . S
O199 C203 1.269 . S
O200 Zn197 1.986 . S
O200 C207 1.262 . S
O201 Zn196 2.049 . S
O201 C209 1.260 . S
O202 Zn197 1.996 . S
O202 C209 1.257 . S
C203 O198 1.254 . S
C203 O199 1.269 . S
C204 O205 1.249 . S
C204 O206 1.270 . S
O205 Zn197 1.943 . S
O205 C204 1.249 . S
O206 Zn196 2.067 . S
O206 C204 1.270 . S
C207 O200 1.262 . S
C207 O208 1.232 . S
O208 C207 1.232 . S
C209 O201 1.260 . S
C209 O202 1.257 . S
Zn210 O213 2.031 . S
Zn210 O215 2.049 . S
Zn210 O220 2.067 . S
Zn211 O212 1.962 . S
Zn211 O214 1.986 . S
Zn211 O216 1.996 . S
Zn211 O219 1.943 . S
O212 Zn211 1.962 . S
O212 C217 1.254 . S
O213 Zn210 2.031 . S
O213 C217 1.269 . S
O214 Zn211 1.986 . S
O214 C221 1.262 . S
O215 Zn210 2.049 . S
O215 C223 1.260 . S
O216 Zn211 1.996 . S
O216 C223 1.257 . S
C217 O212 1.254 . S
C217 O213 1.269 . S
C218 O219 1.249 . S
C218 O220 1.270 . S
O219 Zn211 1.943 . S
O219 C218 1.249 . S
O220 Zn210 2.067 . S
O220 C218 1.270 . S
C221 O214 1.262 . S
C221 O222 1.232 . S
O222 C221 1.232 . S
C223 O215 1.260 . S
C223 O216 1.257 . S
Zn224 O227 2.031 . S
Zn224 O229 2.049 . S
Zn224 O234 2.067 1_545 S
Zn225 O226 1.962 . S
Zn225 O228 1.986 . S
Zn225 O230 1.996 . S
Zn225 O233 1.943 . S
O226 Zn225 1.962 . S
O226 C231 1.254 . S
O227 Zn224 2.031 . S
O227 C231 1.269 . S
O228 Zn225 1.986 . S
O228 C235 1.262 . S
O229 Zn224 2.049 . S
O229 C237 1.260 . S
O230 Zn225 1.996 . S
O230 C237 1.257 . S
C231 O226 1.254 . S
C231 O227 1.269 . S
C232 O233 1.249 1_565 S
C232 O234 1.270 . S
O233 Zn225 1.943 . S
O233 C232 1.249 1_545 S
O234 Zn224 2.067 1_565 S
O234 C232 1.270 . S
C235 O228 1.262 . S
C235 O236 1.232 . S
O236 C235 1.232 . S
C237 O229 1.260 . S
C237 O230 1.257 . S
Zn238 O241 2.031 . S
Zn238 O243 2.049 . S
Zn238 O248 2.067 . S
Zn239 O240 1.962 . S
Zn239 O242 1.986 . S
Zn239 O244 1.996 . S
Zn239 O247 1.943 . S
O240 Zn239 1.962 . S
O240 C245 1.254 . S
O241 Zn238 2.031 . S
O241 C245 1.269 . S
O242 Zn239 1.986 . S
O242 C249 1.262 . S
O243 Zn238 2.049 . S
O243 C251 1.260 . S
O244 Zn239 1.996 . S
O244 C251 1.257 . S
C245 O240 1.254 . S
C245 O241 1.269 . S
C246 O247 1.249 . S
C246 O248 1.270 . S
O247 Zn239 1.943 . S
O247 C246 1.249 . S
O248 Zn238 2.067 . S
O248 C246 1.270 . S
C249 O242 1.262 . S
C249 O250 1.232 . S
O250 C249 1.232 . S
C251 O243 1.260 . S
C251 O244 1.257 . S
Zn252 O255 2.031 . S
Zn252 O257 2.049 . S
Zn252 O262 2.067 . S
Zn253 O254 1.962 . S
Zn253 O256 1.986 . S
Zn253 O258 1.996 . S
Zn253 O261 1.943 . S
O254 Zn253 1.962 . S
O254 C259 1.254 . S
O255 Zn252 2.031 . S
O255 C259 1.269 . S
O256 Zn253 1.986 . S
O256 C263 1.262 . S
O257 Zn252 2.049 . S
O257 C265 1.260 . S
O258 Zn253 1.996 . S
O258 C265 1.257 . S
C259 O254 1.254 . S
C259 O255 1.269 . S
C260 O261 1.249 . S
C260 O262 1.270 . S
O261 Zn253 1.943 . S
O261 C260 1.249 . S
O262 Zn252 2.067 . S
O262 C260 1.270 . S
C263 O256 1.262 . S
C263 O264 1.232 . S
O264 C263 1.232 . S
C265 O257 1.260 . S
C265 O258 1.257 . S
Zn266 O269 2.031 . S
Zn266 O271 2.049 . S
Zn266 O276 2.067 . S
Zn267 O268 1.962 . S
Zn267 O270 1.986 . S
Zn267 O272 1.996 . S
Zn267 O275 1.943 . S
O268 Zn267 1.962 . S
O268 C273 1.254 . S
O269 Zn266 2.031 . S
O269 C273 1.269 . S
O270 Zn267 1.986 . S
O270 C277 1.262 . S
O271 Zn266 2.049 . S
O271 C279 1.260 . S
O272 Zn267 1.996 . S
O272 C279 1.257 . S
C273 O268 1.254 . S
C273 O269 1.269 . S
C274 O275 1.249 . S
C274 O276 1.270 . S
O275 Zn267 1.943 . S
O275 C274 1.249 . S
O276 Zn266 2.067 . S
O276 C274 1.270 . S
C277 O270 1.262 . S
C277 O278 1.232 . S
O278 C277 1.232 . S
C279 O271 1.260 . S
C279 O272 1.257 . S
Zn280 O283 2.031 1_554 S
Zn280 O285 2.049 . S
Zn280 O290 2.067 . S
Zn281 O282 1.994 . S
Zn281 O284 1.986 . S
Zn281 O286 1.996 . S
Zn281 O289 1.943 . S
O282 Zn281 1.994 . S
O282 C287 1.240 1_554 S
O283 Zn280 2.031 1_556 S
O283 C287 1.269 . S
O284 Zn281 1.986 . S
O284 C291 1.262 . S
O285 Zn280 2.049 . S
O285 C293 1.260 . S
O286 Zn281 1.996 . S
O286 C293 1.257 . S
C287 O282 1.240 1_556 S
C287 O283 1.269 . S
C288 O289 1.249 . S
C288 O290 1.270 . S
O289 Zn281 1.943 . S
O289 C288 1.249 . S
O290 Zn280 2.067 . S
O290 C288 1.270 . S
C291 O284 1.262 . S
C291 O292 1.232 . S
O292 C291 1.232 . S
C293 O285 1.260 . S
C293 O286 1.257 . S
Zn294 O297 2.031 . S
Zn294 O299 2.049 . S
Zn294 O304 2.067 . S
Zn295 O296 1.962 . S
Zn295 O298 1.986 . S
Zn295 O300 1.996 . S
Zn295 O303 1.943 . S
O296 Zn295 1.962 . S
O296 C301 1.254 . S
O297 Zn294 2.031 . S
O297 C301 1.269 . S
O298 Zn295 1.986 . S
O298 C305 1.262 . S
O299 Zn294 2.049 . S
O299 C307 1.260 . S
O300 Zn295 1.996 . S
O300 C307 1.257 . S
C301 O296 1.254 . S
C301 O297 1.269 . S
C302 O303 1.249 . S
C302 O304 1.270 . S
O303 Zn295 1.943 . S
O303 C302 1.249 . S
O304 Zn294 2.067 . S
O304 C302 1.270 . S
C305 O298 1.262 . S
C305 O306 1.232 . S
O306 C305 1.232 . S
C307 O299 1.260 . S
C307 O300 1.257 . S
Zn308 O311 2.031 . S
Zn308 O313 2.049 . S
Zn308 O318 2.067 . S
Zn309 O310 1.962 . S
Zn309 O312 1.986 . S
Zn309 O314 1.996 . S
Zn309 O317 1.943 . S
O310 Zn309 1.962 . S
O310 C315 1.254 . S
O311 Zn308 2.031 . S
O311 C315 1.269 . S
O312 Zn309 1.986 . S
O312 C319 1.262 . S
O313 Zn308 2.049 . S
O313 C321 1.260 . S
O314 Zn309 1.996 . S
O314 C321 1.257 . S
C315 O310 1.254 . S
C315 O311 1.269 . S
C316 O317 1.249 . S
C316 O318 1.270 . S
O317 Zn309 1.943 . S
O317 C316 1.249 . S
O318 Zn308 2.067 . S
O318 C316 1.270 . S
C319 O312 1.262 . S
C319 O320 1.232 . S
O320 C319 1.232 . S
C321 O313 1.260 . S
C321 O314 1.257 . S
Zn322 O325 2.031 . S
Zn322 O327 2.049 . S
Zn322 O332 2.067 . S
Zn323 O324 1.962 . S
Zn323 O326 1.986 . S
Zn323 O328 1.996 . S
Zn323 O331 1.943 . S
O324 Zn323 1.962 . S
O324 C329 1.254 . S
O325 Zn322 2.031 . S
O325 C329 1.269 . S
O326 Zn323 1.986 . S
O326 C333 1.262 . S
O327 Zn322 2.049 . S
O327 C335 1.260 . S
O328 Zn323 1.996 . S
O328 C335 1.257 . S
C329 O324 1.254 . S
C329 O325 1.269 . S
C330 O331 1.249 . S
C330 O332 1.270 . S
O331 Zn323 1.943 . S
O331 C330 1.249 . S
O332 Zn322 2.067 . S
O332 C330 1.270 . S
C333 O326 1.262 . S
C333 O334 1.232 . S
O334 C333 1.232 . S
C335 O327 1.260 . S
C335 O328 1.257 . S
Dy336 O339 2.307 . S
Dy336 O341 2.395 . S
Dy336 O342 2.379 . S
Dy336 O344 2.339 . S
Dy336 O346 2.298 . S
Dy336 O350 2.275 . S
Dy336 C358 2.738 . S
Dy337 O340 2.293 1_655 S
Dy337 O343 2.260 1_655 S
Dy337 O345 2.308 1_655 S
Dy337 O347 2.428 . S
Dy337 O348 2.410 1_554 S
Dy337 O351 2.321 1_654 S
Dy337 C367 2.774 . S
C338 O350 1.254 1_556 S
C338 O351 1.257 . S
O339 Dy336 2.307 . S
O339 C349 1.266 . S
O340 Dy337 2.293 1_455 S
O340 C349 1.236 . S
O341 Dy336 2.395 . S
O341 C358 1.255 . S
O342 Dy336 2.379 . S
O342 C358 1.249 . S
O343 Dy337 2.260 1_455 S
O343 C359 1.254 . S
O344 Dy336 2.339 . S
O344 C359 1.257 . S
O345 Dy337 2.308 1_455 S
O345 C360 1.254 1_545 S
O346 Dy336 2.298 . S
O346 C360 1.236 1_545 S
O347 Dy337 2.428 . S
O347 C367 1.255 . S
O348 Dy337 2.410 1_556 S
O348 C367 1.249 1_556 S
C349 O339 1.266 . S
C349 O340 1.236 . S
O350 Dy336 2.275 . S
O350 C338 1.254 1_554 S
O351 Dy337 2.321 1_456 S
O351 C338 1.257 . S
C352 C355 1.344 . S
C352 C356 1.328 . S
C352 C358 1.516 . S
C353 C354 1.304 . S
C353 C357 1.323 . S
C354 C353 1.304 . S
C354 C355 1.371 . S
C354 H368 0.936 . S
C355 C352 1.344 . S
C355 C354 1.371 . S
C355 H369 0.931 . S
C356 C352 1.328 . S
C356 C357 1.433 . S
C356 H370 0.931 . S
C357 C353 1.323 . S
C357 C356 1.433 . S
C357 H371 0.933 . S
C358 Dy336 2.738 . S
C358 O341 1.255 . S
C358 O342 1.249 . S
C358 C352 1.516 . S
C359 O343 1.254 . S
C359 O344 1.257 . S
C360 O345 1.254 1_565 S
C360 O346 1.236 1_565 S
C361 C364 1.344 . S
C361 C365 1.328 1_554 S
C361 C367 1.516 . S
C362 C363 1.304 . S
C362 C366 1.323 1_554 S
C363 C362 1.304 . S
C363 C364 1.371 . S
C363 H372 0.930 . S
C364 C361 1.344 . S
C364 C363 1.371 . S
C364 H373 0.931 . S
C365 C361 1.328 1_556 S
C365 C366 1.433 . S
C365 H374 0.931 . S
C366 C362 1.323 1_556 S
C366 C365 1.433 . S
C366 H375 0.933 . S
C367 Dy337 2.774 . S
C367 O347 1.255 . S
C367 O348 1.249 1_554 S
C367 C361 1.516 . S
H368 C354 0.936 . S
H369 C355 0.931 . S
H370 C356 0.931 . S
H371 C357 0.933 . S
H372 C363 0.930 . S
H373 C364 0.931 . S
H374 C365 0.931 . S
H375 C366 0.933 . S
Dy376 O379 2.307 . S
Dy376 O381 2.395 . S
Dy376 O382 2.379 . S
Dy376 O384 2.339 . S
Dy376 O386 2.298 . S
Dy376 O390 2.275 . S
Dy376 C398 2.738 . S
Dy377 O380 2.298 . S
Dy377 O383 2.275 . S
Dy377 O385 2.307 . S
Dy377 O387 2.395 . S
Dy377 O388 2.379 . S
Dy377 O391 2.339 . S
Dy377 C407 2.738 . S
C378 O390 1.254 . S
C378 O391 1.257 . S
O379 Dy376 2.307 . S
O379 C389 1.266 . S
O380 Dy377 2.298 . S
O380 C389 1.236 . S
O381 Dy376 2.395 . S
O381 C398 1.255 . S
O382 Dy376 2.379 . S
O382 C398 1.249 . S
O383 Dy377 2.275 . S
O383 C399 1.254 . S
O384 Dy376 2.339 . S
O384 C399 1.257 . S
O385 Dy377 2.307 . S
O385 C400 1.266 . S
O386 Dy376 2.298 . S
O386 C400 1.236 . S
O387 Dy377 2.395 . S
O387 C407 1.255 . S
O388 Dy377 2.379 . S
O388 C407 1.249 . S
C389 O379 1.266 . S
C389 O380 1.236 . S
O390 Dy376 2.275 . S
O390 C378 1.254 . S
O391 Dy377 2.339 . S
O391 C378 1.257 . S
C392 C395 1.344 . S
C392 C396 1.328 . S
C392 C398 1.516 . S
C393 C394 1.304 . S
C393 C397 1.323 . S
C394 C393 1.304 . S
C394 C395 1.371 . S
C394 H408 0.930 . S
C395 C392 1.344 . S
C395 C394 1.371 . S
C395 H409 0.931 . S
C396 C392 1.328 . S
C396 C397 1.433 . S
C396 H410 0.931 . S
C397 C393 1.323 . S
C397 C396 1.433 . S
C397 H411 0.933 . S
C398 Dy376 2.738 . S
C398 O381 1.255 . S
C398 O382 1.249 . S
C398 C392 1.516 . S
C399 O383 1.254 . S
C399 O384 1.257 . S
C400 O385 1.266 . S
C400 O386 1.236 . S
C401 C404 1.344 . S
C401 C405 1.328 . S
C401 C407 1.516 . S
C402 C403 1.304 . S
C402 C406 1.323 . S
C403 C402 1.304 . S
C403 C404 1.371 . S
C403 H412 0.930 . S
C404 C401 1.344 . S
C404 C403 1.371 . S
C404 H413 0.931 . S
C405 C401 1.328 . S
C405 C406 1.433 . S
C405 H414 0.931 . S
C406 C402 1.323 . S
C406 C405 1.433 . S
C406 H415 0.933 . S
C407 Dy377 2.738 . S
C407 O387 1.255 . S
C407 O388 1.249 . S
C407 C401 1.516 . S
H408 C394 0.930 . S
H409 C395 0.931 . S
H410 C396 0.931 . S
H411 C397 0.933 . S
H412 C403 0.930 . S
H413 C404 0.931 . S
H414 C405 0.931 . S
H415 C406 0.933 . S
Dy416 O419 2.307 1_545 S
Dy416 O421 2.395 . S
Dy416 O422 2.379 . S
Dy416 O424 2.339 . S
Dy416 O426 2.298 . S
Dy416 O430 2.275 . S
Dy416 C438 2.738 . S
Dy417 O420 2.298 . S
Dy417 O423 2.275 . S
Dy417 O425 2.307 . S
Dy417 O427 2.395 . S
Dy417 O428 2.379 . S
Dy417 O431 2.339 . S
Dy417 C447 2.738 . S
C418 O430 1.254 . S
C418 O431 1.257 . S
O419 Dy416 2.307 1_565 S
O419 C429 1.266 . S
O420 Dy417 2.298 . S
O420 C429 1.236 1_545 S
O421 Dy416 2.395 . S
O421 C438 1.255 . S
O422 Dy416 2.379 . S
O422 C438 1.249 . S
O423 Dy417 2.275 . S
O423 C439 1.254 . S
O424 Dy416 2.339 . S
O424 C439 1.257 . S
O425 Dy417 2.307 . S
O425 C440 1.266 . S
O426 Dy416 2.298 . S
O426 C440 1.236 . S
O427 Dy417 2.395 . S
O427 C447 1.255 . S
O428 Dy417 2.379 . S
O428 C447 1.249 . S
C429 O419 1.266 . S
C429 O420 1.236 1_565 S
O430 Dy416 2.275 . S
O430 C418 1.254 . S
O431 Dy417 2.339 . S
O431 C418 1.257 . S
C432 C435 1.344 . S
C432 C436 1.328 . S
C432 C438 1.516 . S
C433 C434 1.304 . S
C433 C437 1.323 . S
C434 C433 1.304 . S
C434 C435 1.371 . S
C434 H448 0.930 . S
C435 C432 1.344 . S
C435 C434 1.371 . S
C435 H449 0.931 . S
C436 C432 1.328 . S
C436 C437 1.433 . S
C436 H450 0.931 . S
C437 C433 1.323 . S
C437 C436 1.433 . S
C437 H451 0.933 . S
C438 Dy416 2.738 . S
C438 O421 1.255 . S
C438 O422 1.249 . S
C438 C432 1.516 . S
C439 O423 1.254 . S
C439 O424 1.257 . S
C440 O425 1.266 . S
C440 O426 1.236 . S
C441 C444 1.344 1_545 S
C441 C445 1.333 . S
C441 C447 1.516 . S
C442 C443 1.304 . S
C442 C446 1.323 . S
C443 C442 1.304 . S
C443 C444 1.371 . S
C443 H452 0.930 . S
C444 C441 1.344 1_565 S
C444 C443 1.371 . S
C444 H453 0.931 . S
C445 C441 1.333 . S
C445 C446 1.404 1_545 S
C445 H454 0.956 . S
C446 C442 1.323 . S
C446 C445 1.404 1_565 S
C446 H455 0.933 . S
C447 Dy417 2.738 . S
C447 O427 1.255 . S
C447 O428 1.249 . S
C447 C441 1.516 . S
H448 C434 0.930 . S
H449 C435 0.931 . S
H450 C436 0.931 . S
H451 C437 0.933 . S
H452 C443 0.930 . S
H453 C444 0.931 . S
H454 C445 0.956 . S
H455 C446 0.933 . S
Dy456 O459 2.307 . S
Dy456 O461 2.395 . S
Dy456 O462 2.379 . S
Dy456 O464 2.339 . S
Dy456 O466 2.298 . S
Dy456 O470 2.275 . S
Dy456 C478 2.738 . S
Dy457 O460 2.298 . S
Dy457 O463 2.275 . S
Dy457 O465 2.307 . S
Dy457 O467 2.395 . S
Dy457 O468 2.379 . S
Dy457 O471 2.339 . S
Dy457 C487 2.738 . S
C458 O470 1.254 . S
C458 O471 1.257 . S
O459 Dy456 2.307 . S
O459 C469 1.266 . S
O460 Dy457 2.298 . S
O460 C469 1.236 . S
O461 Dy456 2.395 . S
O461 C478 1.255 . S
O462 Dy456 2.379 . S
O462 C478 1.249 . S
O463 Dy457 2.275 . S
O463 C479 1.254 . S
O464 Dy456 2.339 . S
O464 C479 1.257 . S
O465 Dy457 2.307 . S
O465 C480 1.266 . S
O466 Dy456 2.298 . S
O466 C480 1.236 . S
O467 Dy457 2.395 . S
O467 C487 1.255 . S
O468 Dy457 2.379 . S
O468 C487 1.249 . S
C469 O459 1.266 . S
C469 O460 1.236 . S
O470 Dy456 2.275 . S
O470 C458 1.254 . S
O471 Dy457 2.339 . S
O471 C458 1.257 . S
C472 C475 1.344 . S
C472 C476 1.328 . S
C472 C478 1.516 . S
C473 C474 1.304 . S
C473 C477 1.323 . S
C474 C473 1.304 . S
C474 C475 1.371 . S
C474 H488 0.930 . S
C475 C472 1.344 . S
C475 C474 1.371 . S
C475 H489 0.931 . S
C476 C472 1.328 . S
C476 C477 1.433 . S
C476 H490 0.931 . S
C477 C473 1.323 . S
C477 C476 1.433 . S
C477 H491 0.933 . S
C478 Dy456 2.738 . S
C478 O461 1.255 . S
C478 O462 1.249 . S
C478 C472 1.516 . S
C479 O463 1.254 . S
C479 O464 1.257 . S
C480 O465 1.266 . S
C480 O466 1.236 . S
C481 C484 1.344 . S
C481 C485 1.328 . S
C481 C487 1.516 . S
C482 C483 1.304 . S
C482 C486 1.323 . S
C483 C482 1.304 . S
C483 C484 1.371 . S
C483 H492 0.930 . S
C484 C481 1.344 . S
C484 C483 1.371 . S
C484 H493 0.931 . S
C485 C481 1.328 . S
C485 C486 1.433 . S
C485 H494 0.931 . S
C486 C482 1.323 . S
C486 C485 1.433 . S
C486 H495 0.933 . S
C487 Dy457 2.738 . S
C487 O467 1.255 . S
C487 O468 1.249 . S
C487 C481 1.516 . S
H488 C474 0.930 . S
H489 C475 0.931 . S
H490 C476 0.931 . S
H491 C477 0.933 . S
H492 C483 0.930 . S
H493 C484 0.931 . S
H494 C485 0.931 . S
H495 C486 0.933 . S
Dy496 O499 2.307 . S
Dy496 O501 2.395 1_545 S
Dy496 O502 2.379 1_545 S
Dy496 O504 2.339 . S
Dy496 O506 2.298 . S
Dy496 O510 2.275 . S
Dy496 C518 2.738 1_545 S
Dy497 O500 2.298 . S
Dy497 O503 2.275 . S
Dy497 O505 2.307 . S
Dy497 O507 2.395 . S
Dy497 O508 2.381 . S
Dy497 O511 2.339 1_455 S
Dy497 C527 2.738 . S
C498 O510 1.254 1_655 S
C498 O511 1.257 . S
O499 Dy496 2.307 . S
O499 C509 1.266 . S
O500 Dy497 2.298 . S
O500 C509 1.236 . S
O501 Dy496 2.395 1_565 S
O501 C518 1.255 . S
O502 Dy496 2.379 1_565 S
O502 C518 1.249 . S
O503 Dy497 2.275 . S
O503 C519 1.254 . S
O504 Dy496 2.339 . S
O504 C519 1.257 . S
O505 Dy497 2.307 . S
O505 C520 1.266 . S
O506 Dy496 2.298 . S
O506 C520 1.236 . S
O507 Dy497 2.395 . S
O507 C527 1.255 . S
O508 Dy497 2.381 . S
O508 C527 1.252 . S
C509 O499 1.266 . S
C509 O500 1.236 . S
O510 Dy496 2.275 . S
O510 C498 1.254 1_455 S
O511 Dy497 2.339 1_655 S
O511 C498 1.257 . S
C512 C515 1.344 . S
C512 C516 1.328 . S
C512 C518 1.516 . S
C513 C514 1.304 . S
C513 C517 1.323 . S
C514 C513 1.304 . S
C514 C515 1.371 . S
C514 H528 0.930 . S
C515 C512 1.344 . S
C515 C514 1.371 . S
C515 H529 0.931 . S
C516 C512 1.328 . S
C516 C517 1.433 . S
C516 H530 0.931 . S
C517 C513 1.323 . S
C517 C516 1.433 . S
C517 H531 0.933 . S
C518 Dy496 2.738 1_565 S
C518 O501 1.255 . S
C518 O502 1.249 . S
C518 C512 1.516 . S
C519 O503 1.254 . S
C519 O504 1.257 . S
C520 O505 1.266 . S
C520 O506 1.236 . S
C521 C524 1.344 . S
C521 C525 1.328 1_455 S
C521 C527 1.516 . S
C522 C523 1.304 . S
C522 C526 1.323 1_455 S
C523 C522 1.304 . S
C523 C524 1.371 . S
C523 H532 0.930 . S
C524 C521 1.344 . S
C524 C523 1.371 . S
C524 H533 0.931 . S
C525 C521 1.328 1_655 S
C525 C526 1.433 . S
C525 H534 0.931 . S
C526 C522 1.323 1_655 S
C526 C525 1.433 . S
C526 H535 0.933 . S
C527 Dy497 2.738 . S
C527 O507 1.255 . S
C527 O508 1.252 . S
C527 C521 1.516 . S
H528 C514 0.930 . S
H529 C515 0.931 . S
H530 C516 0.931 . S
H531 C517 0.933 . S
H532 C523 0.930 . S
H533 C524 0.931 . S
H534 C525 0.931 . S
H535 C526 0.933 . S
Dy536 O539 2.307 . S
Dy536 O541 2.395 . S
Dy536 O542 2.379 . S
Dy536 O544 2.339 . S
Dy536 O546 2.298 . S
Dy536 O550 2.275 . S
Dy536 C558 2.738 . S
Dy537 O540 2.298 . S
Dy537 O543 2.275 . S
Dy537 O545 2.307 . S
Dy537 O547 2.395 . S
Dy537 O548 2.379 . S
Dy537 O551 2.339 . S
Dy537 C567 2.738 . S
C538 O550 1.254 . S
C538 O551 1.257 . S
O539 Dy536 2.307 . S
O539 C549 1.266 . S
O540 Dy537 2.298 . S
O540 C549 1.236 . S
O541 Dy536 2.395 . S
O541 C558 1.255 . S
O542 Dy536 2.379 . S
O542 C558 1.249 . S
O543 Dy537 2.275 . S
O543 C559 1.254 . S
O544 Dy536 2.339 . S
O544 C559 1.257 . S
O545 Dy537 2.307 . S
O545 C560 1.266 . S
O546 Dy536 2.298 . S
O546 C560 1.236 . S
O547 Dy537 2.395 . S
O547 C567 1.255 . S
O548 Dy537 2.379 . S
O548 C567 1.249 . S
C549 O539 1.266 . S
C549 O540 1.236 . S
O550 Dy536 2.275 . S
O550 C538 1.254 . S
O551 Dy537 2.339 . S
O551 C538 1.257 . S
C552 C555 1.344 . S
C552 C556 1.328 . S
C552 C558 1.516 . S
C553 C554 1.304 . S
C553 C557 1.323 . S
C554 C553 1.304 . S
C554 C555 1.371 . S
C554 H568 0.930 . S
C555 C552 1.344 . S
C555 C554 1.371 . S
C555 H569 0.931 . S
C556 C552 1.328 . S
C556 C557 1.433 . S
C556 H570 0.931 . S
C557 C553 1.323 . S
C557 C556 1.433 . S
C557 H571 0.933 . S
C558 Dy536 2.738 . S
C558 O541 1.255 . S
C558 O542 1.249 . S
C558 C552 1.516 . S
C559 O543 1.254 . S
C559 O544 1.257 . S
C560 O545 1.266 . S
C560 O546 1.236 . S
C561 C564 1.344 . S
C561 C565 1.328 . S
C561 C567 1.516 . S
C562 C563 1.304 . S
C562 C566 1.323 . S
C563 C562 1.304 . S
C563 C564 1.371 . S
C563 H572 0.930 . S
C564 C561 1.344 . S
C564 C563 1.371 . S
C564 H573 0.931 . S
C565 C561 1.328 . S
C565 C566 1.433 . S
C565 H574 0.931 . S
C566 C562 1.323 . S
C566 C565 1.433 . S
C566 H575 0.933 . S
C567 Dy537 2.738 . S
C567 O547 1.255 . S
C567 O548 1.249 . S
C567 C561 1.516 . S
H568 C554 0.930 . S
H569 C555 0.931 . S
H570 C556 0.931 . S
H571 C557 0.933 . S
H572 C563 0.930 . S
H573 C564 0.931 . S
H574 C565 0.931 . S
H575 C566 0.933 . S
Dy576 O579 2.307 1_556 S
Dy576 O581 2.395 . S
Dy576 O582 2.379 . S
Dy576 O584 2.339 1_556 S
Dy576 O586 2.298 1_556 S
Dy576 O590 2.275 1_556 S
Dy576 C598 2.738 . S
Dy577 O580 2.298 . S
Dy577 O583 2.275 . S
Dy577 O585 2.307 . S
Dy577 O587 2.395 . S
Dy577 O588 2.379 . S
Dy577 O591 2.339 . S
Dy577 C607 2.738 . S
C578 O590 1.254 . S
C578 O591 1.257 . S
O579 Dy576 2.307 1_554 S
O579 C589 1.266 . S
O580 Dy577 2.298 . S
O580 C589 1.236 . S
O581 Dy576 2.395 . S
O581 C598 1.255 . S
O582 Dy576 2.379 . S
O582 C598 1.249 . S
O583 Dy577 2.275 . S
O583 C599 1.254 . S
O584 Dy576 2.339 1_554 S
O584 C599 1.257 . S
O585 Dy577 2.307 . S
O585 C600 1.266 . S
O586 Dy576 2.298 1_554 S
O586 C600 1.236 . S
O587 Dy577 2.395 . S
O587 C607 1.255 . S
O588 Dy577 2.379 . S
O588 C607 1.249 . S
C589 O579 1.266 . S
C589 O580 1.236 . S
O590 Dy576 2.275 1_554 S
O590 C578 1.254 . S
O591 Dy577 2.339 . S
O591 C578 1.257 . S
C592 C595 1.344 . S
C592 C596 1.328 . S
C592 C598 1.516 . S
C593 C594 1.304 . S
C593 C597 1.323 . S
C594 C593 1.304 . S
C594 C595 1.371 . S
C594 H608 0.930 . S
C595 C592 1.344 . S
C595 C594 1.371 . S
C595 H609 0.931 . S
C596 C592 1.328 . S
C596 C597 1.433 . S
C596 H610 0.931 . S
C597 C593 1.323 . S
C597 C596 1.433 . S
C597 H611 0.933 . S
C598 Dy576 2.738 . S
C598 O581 1.255 . S
C598 O582 1.249 . S
C598 C592 1.516 . S
C599 O583 1.254 . S
C599 O584 1.257 . S
C600 O585 1.266 . S
C600 O586 1.236 . S
C601 C604 1.344 . S
C601 C605 1.328 1_545 S
C601 C607 1.516 . S
C602 C603 1.304 1_565 S
C602 C606 1.323 . S
C603 C602 1.304 1_545 S
C603 C604 1.371 . S
C603 H612 0.930 . S
C604 C601 1.344 . S
C604 C603 1.371 . S
C604 H613 0.931 . S
C605 C601 1.328 1_565 S
C605 C606 1.433 . S
C605 H614 0.931 . S
C606 C602 1.323 . S
C606 C605 1.433 . S
C606 H615 0.933 . S
C607 Dy577 2.738 . S
C607 O587 1.255 . S
C607 O588 1.249 . S
C607 C601 1.516 . S
H608 C594 0.930 . S
H609 C595 0.931 . S
H610 C596 0.931 . S
H611 C597 0.933 . S
H612 C603 0.930 . S
H613 C604 0.931 . S
H614 C605 0.931 . S
H615 C606 0.933 . S
Dy616 O619 2.307 . S
Dy616 O621 2.395 . S
Dy616 O622 2.379 . S
Dy616 O624 2.339 . S
Dy616 O626 2.298 . S
Dy616 O630 2.275 . S
Dy616 C638 2.738 . S
Dy617 O620 2.298 . S
Dy617 O623 2.275 . S
Dy617 O625 2.307 . S
Dy617 O627 2.395 . S
Dy617 O628 2.379 . S
Dy617 O631 2.339 . S
Dy617 C647 2.738 . S
C618 O630 1.254 . S
C618 O631 1.257 . S
O619 Dy616 2.307 . S
O619 C629 1.266 . S
O620 Dy617 2.298 . S
O620 C629 1.236 . S
O621 Dy616 2.395 . S
O621 C638 1.255 . S
O622 Dy616 2.379 . S
O622 C638 1.249 . S
O623 Dy617 2.275 . S
O623 C639 1.254 . S
O624 Dy616 2.339 . S
O624 C639 1.257 . S
O625 Dy617 2.307 . S
O625 C640 1.266 . S
O626 Dy616 2.298 . S
O626 C640 1.236 . S
O627 Dy617 2.395 . S
O627 C647 1.255 . S
O628 Dy617 2.379 . S
O628 C647 1.249 . S
C629 O619 1.266 . S
C629 O620 1.236 . S
O630 Dy616 2.275 . S
O630 C618 1.254 . S
O631 Dy617 2.339 . S
O631 C618 1.257 . S
C632 C635 1.344 . S
C632 C636 1.328 . S
C632 C638 1.516 . S
C633 C634 1.304 . S
C633 C637 1.323 . S
C634 C633 1.304 . S
C634 C635 1.371 . S
C634 H648 0.930 . S
C635 C632 1.344 . S
C635 C634 1.371 . S
C635 H649 0.931 . S
C636 C632 1.328 . S
C636 C637 1.433 . S
C636 H650 0.931 . S
C637 C633 1.323 . S
C637 C636 1.433 . S
C637 H651 0.933 . S
C638 Dy616 2.738 . S
C638 O621 1.255 . S
C638 O622 1.249 . S
C638 C632 1.516 . S
C639 O623 1.254 . S
C639 O624 1.257 . S
C640 O625 1.266 . S
C640 O626 1.236 . S
C641 C644 1.344 . S
C641 C645 1.328 . S
C641 C647 1.516 . S
C642 C643 1.304 . S
C642 C646 1.323 . S
C643 C642 1.304 . S
C643 C644 1.371 . S
C643 H652 0.930 . S
C644 C641 1.344 . S
C644 C643 1.371 . S
C644 H653 0.931 . S
C645 C641 1.328 . S
C645 C646 1.433 . S
C645 H654 0.931 . S
C646 C642 1.323 . S
C646 C645 1.433 . S
C646 H655 0.933 . S
C647 Dy617 2.738 . S
C647 O627 1.255 . S
C647 O628 1.249 . S
C647 C641 1.516 . S
H648 C634 0.930 . S
H649 C635 0.931 . S
H650 C636 0.931 . S
H651 C637 0.933 . S
H652 C643 0.930 . S
H653 C644 0.931 . S
H654 C645 0.931 . S
H655 C646 0.933 . S
Dy656 O659 2.307 1_554 S
Dy656 O661 2.395 . S
Dy656 O662 2.379 . S
Dy656 O664 2.339 . S
Dy656 O666 2.298 . S
Dy656 O670 2.275 . S
Dy656 C678 2.738 . S
Dy657 O660 2.298 1_554 S
Dy657 O663 2.275 . S
Dy657 O665 2.307 . S
Dy657 O667 2.395 . S
Dy657 O668 2.379 . S
Dy657 O671 2.339 . S
Dy657 C687 2.738 . S
C658 O670 1.254 . S
C658 O671 1.257 . S
O659 Dy656 2.307 1_556 S
O659 C669 1.266 . S
O660 Dy657 2.298 1_556 S
O660 C669 1.236 . S
O661 Dy656 2.395 . S
O661 C678 1.255 . S
O662 Dy656 2.379 . S
O662 C678 1.249 . S
O663 Dy657 2.275 . S
O663 C679 1.254 . S
O664 Dy656 2.339 . S
O664 C679 1.257 . S
O665 Dy657 2.307 . S
O665 C680 1.266 . S
O666 Dy656 2.298 . S
O666 C680 1.236 . S
O667 Dy657 2.395 . S
O667 C687 1.255 . S
O668 Dy657 2.379 . S
O668 C687 1.249 . S
C669 O659 1.266 . S
C669 O660 1.236 . S
O670 Dy656 2.275 . S
O670 C658 1.254 . S
O671 Dy657 2.339 . S
O671 C658 1.257 . S
C672 C675 1.344 . S
C672 C676 1.328 . S
C672 C678 1.516 . S
C673 C674 1.304 . S
C673 C677 1.323 . S
C674 C673 1.304 . S
C674 C675 1.371 . S
C674 H688 0.930 . S
C675 C672 1.344 . S
C675 C674 1.371 . S
C675 H689 0.931 . S
C676 C672 1.328 . S
C676 C677 1.433 . S
C676 H690 0.931 . S
C677 C673 1.323 . S
C677 C676 1.433 . S
C677 H691 0.933 . S
C678 Dy656 2.738 . S
C678 O661 1.255 . S
C678 O662 1.249 . S
C678 C672 1.516 . S
C679 O663 1.254 . S
C679 O664 1.257 . S
C680 O665 1.266 . S
C680 O666 1.236 . S
C681 C684 1.344 . S
C681 C685 1.328 . S
C681 C687 1.516 1_556 S
C682 C683 1.304 . S
C682 C686 1.323 . S
C683 C682 1.304 . S
C683 C684 1.371 . S
C683 H692 0.930 . S
C684 C681 1.344 . S
C684 C683 1.371 . S
C684 H693 0.931 . S
C685 C681 1.328 . S
C685 C686 1.433 . S
C685 H694 0.912 1_556 S
C686 C682 1.323 . S
C686 C685 1.433 . S
C686 H695 0.933 . S
C687 Dy657 2.738 . S
C687 O667 1.255 . S
C687 O668 1.249 . S
C687 C681 1.516 1_554 S
H688 C674 0.930 . S
H689 C675 0.931 . S
H690 C676 0.931 . S
H691 C677 0.933 . S
H692 C683 0.930 . S
H693 C684 0.931 . S
H694 C685 0.912 1_554 S
H695 C686 0.933 . S
Dy696 O699 2.307 . S
Dy696 O701 2.395 . S
Dy696 O702 2.379 . S
Dy696 O704 2.339 . S
Dy696 O706 2.298 . S
Dy696 O710 2.275 . S
Dy696 C718 2.738 . S
Dy697 O700 2.298 . S
Dy697 O703 2.275 . S
Dy697 O705 2.307 . S
Dy697 O707 2.395 . S
Dy697 O708 2.379 . S
Dy697 O711 2.339 . S
Dy697 C727 2.738 . S
C698 O710 1.254 . S
C698 O711 1.257 . S
O699 Dy696 2.307 . S
O699 C709 1.266 . S
O700 Dy697 2.298 . S
O700 C709 1.236 . S
O701 Dy696 2.395 . S
O701 C718 1.255 . S
O702 Dy696 2.379 . S
O702 C718 1.249 . S
O703 Dy697 2.275 . S
O703 C719 1.254 . S
O704 Dy696 2.339 . S
O704 C719 1.257 . S
O705 Dy697 2.307 . S
O705 C720 1.266 . S
O706 Dy696 2.298 . S
O706 C720 1.236 . S
O707 Dy697 2.395 . S
O707 C727 1.255 . S
O708 Dy697 2.379 . S
O708 C727 1.249 . S
C709 O699 1.266 . S
C709 O700 1.236 . S
O710 Dy696 2.275 . S
O710 C698 1.254 . S
O711 Dy697 2.339 . S
O711 C698 1.257 . S
C712 C715 1.344 . S
C712 C716 1.328 . S
C712 C718 1.516 . S
C713 C714 1.304 . S
C713 C717 1.323 . S
C714 C713 1.304 . S
C714 C715 1.371 . S
C714 H728 0.930 . S
C715 C712 1.344 . S
C715 C714 1.371 . S
C715 H729 0.931 . S
C716 C712 1.328 . S
C716 C717 1.433 . S
C716 H730 0.931 . S
C717 C713 1.323 . S
C717 C716 1.433 . S
C717 H731 0.933 . S
C718 Dy696 2.738 . S
C718 O701 1.255 . S
C718 O702 1.249 . S
C718 C712 1.516 . S
C719 O703 1.254 . S
C719 O704 1.257 . S
C720 O705 1.266 . S
C720 O706 1.236 . S
C721 C724 1.344 . S
C721 C725 1.328 . S
C721 C727 1.516 . S
C722 C723 1.304 . S
C722 C726 1.323 . S
C723 C722 1.304 . S
C723 C724 1.371 . S
C723 H732 0.930 . S
C724 C721 1.344 . S
C724 C723 1.371 . S
C724 H733 0.931 . S
C725 C721 1.328 . S
C725 C726 1.433 . S
C725 H734 0.931 . S
C726 C722 1.323 . S
C726 C725 1.433 . S
C726 H735 0.933 . S
C727 Dy697 2.738 . S
C727 O707 1.255 . S
C727 O708 1.249 . S
C727 C721 1.516 . S
H728 C714 0.930 . S
H729 C715 0.931 . S
H730 C716 0.931 . S
H731 C717 0.933 . S
H732 C723 0.930 . S
H733 C724 0.931 . S
H734 C725 0.931 . S
H735 C726 0.933 . S
Dy736 O739 2.307 1_455 S
Dy736 O741 2.395 . S
Dy736 O742 2.379 . S
Dy736 O744 2.339 . S
Dy736 O746 2.298 . S
Dy736 O750 2.275 . S
Dy736 C758 2.738 . S
Dy737 O740 2.298 1_455 S
Dy737 O743 2.275 . S
Dy737 O745 2.307 . S
Dy737 O747 2.395 . S
Dy737 O748 2.379 . S
Dy737 O751 2.339 . S
Dy737 C767 2.738 . S
C738 O750 1.254 . S
C738 O751 1.257 . S
O739 Dy736 2.307 1_655 S
O739 C749 1.266 . S
O740 Dy737 2.298 1_655 S
O740 C749 1.236 . S
O741 Dy736 2.395 . S
O741 C758 1.255 . S
O742 Dy736 2.379 . S
O742 C758 1.249 . S
O743 Dy737 2.275 . S
O743 C759 1.254 . S
O744 Dy736 2.339 . S
O744 C759 1.257 . S
O745 Dy737 2.307 . S
O745 C760 1.266 . S
O746 Dy736 2.298 . S
O746 C760 1.236 . S
O747 Dy737 2.395 . S
O747 C767 1.255 . S
O748 Dy737 2.379 . S
O748 C767 1.249 . S
C749 O739 1.266 . S
C749 O740 1.236 . S
O750 Dy736 2.275 . S
O750 C738 1.254 . S
O751 Dy737 2.339 . S
O751 C738 1.257 . S
C752 C755 1.344 . S
C752 C756 1.328 . S
C752 C758 1.516 . S
C753 C754 1.304 . S
C753 C757 1.323 . S
C754 C753 1.304 . S
C754 C755 1.371 . S
C754 H768 0.930 . S
C755 C752 1.344 . S
C755 C754 1.371 . S
C755 H769 0.931 . S
C756 C752 1.328 . S
C756 C757 1.433 . S
C756 H770 0.931 . S
C757 C753 1.323 . S
C757 C756 1.433 . S
C757 H771 0.933 . S
C758 Dy736 2.738 . S
C758 O741 1.255 . S
C758 O742 1.249 . S
C758 C752 1.516 . S
C759 O743 1.254 . S
C759 O744 1.257 . S
C760 O745 1.266 . S
C760 O746 1.236 . S
C761 C764 1.344 . S
C761 C765 1.328 . S
C761 C767 1.516 1_655 S
C762 C763 1.304 . S
C762 C766 1.323 . S
C763 C762 1.304 . S
C763 C764 1.371 . S
C763 H772 0.930 . S
C764 C761 1.344 . S
C764 C763 1.371 . S
C764 H773 0.931 . S
C765 C761 1.328 . S
C765 C766 1.433 . S
C765 H774 0.931 . S
C766 C762 1.323 . S
C766 C765 1.433 . S
C766 H775 0.933 . S
C767 Dy737 2.738 . S
C767 O747 1.255 . S
C767 O748 1.249 . S
C767 C761 1.516 1_455 S
H768 C754 0.930 . S
H769 C755 0.931 . S
H770 C756 0.931 . S
H771 C757 0.933 . S
H772 C763 0.930 . S
H773 C764 0.931 . S
H774 C765 0.931 . S
H775 C766 0.933 . S
Dy776 O779 2.307 . S
Dy776 O781 2.395 . S
Dy776 O782 2.379 . S
Dy776 O784 2.339 . S
Dy776 O786 2.298 . S
Dy776 O790 2.275 . S
Dy776 C798 2.738 . S
Dy777 O780 2.298 . S
Dy777 O783 2.275 . S
Dy777 O785 2.307 . S
Dy777 O787 2.395 . S
Dy777 O788 2.379 . S
Dy777 O791 2.339 . S
Dy777 C807 2.738 . S
C778 O790 1.254 . S
C778 O791 1.257 . S
O779 Dy776 2.307 . S
O779 C789 1.266 . S
O780 Dy777 2.298 . S
O780 C789 1.236 . S
O781 Dy776 2.395 . S
O781 C798 1.255 . S
O782 Dy776 2.379 . S
O782 C798 1.249 . S
O783 Dy777 2.275 . S
O783 C799 1.254 . S
O784 Dy776 2.339 . S
O784 C799 1.257 . S
O785 Dy777 2.307 . S
O785 C800 1.266 . S
O786 Dy776 2.298 . S
O786 C800 1.236 . S
O787 Dy777 2.395 . S
O787 C807 1.255 . S
O788 Dy777 2.379 . S
O788 C807 1.249 . S
C789 O779 1.266 . S
C789 O780 1.236 . S
O790 Dy776 2.275 . S
O790 C778 1.254 . S
O791 Dy777 2.339 . S
O791 C778 1.257 . S
C792 C795 1.344 . S
C792 C796 1.328 . S
C792 C798 1.516 . S
C793 C794 1.304 . S
C793 C797 1.323 . S
C794 C793 1.304 . S
C794 C795 1.371 . S
C794 H808 0.930 . S
C795 C792 1.344 . S
C795 C794 1.371 . S
C795 H809 0.931 . S
C796 C792 1.328 . S
C796 C797 1.433 . S
C796 H810 0.931 . S
C797 C793 1.323 . S
C797 C796 1.433 . S
C797 H811 0.933 . S
C798 Dy776 2.738 . S
C798 O781 1.255 . S
C798 O782 1.249 . S
C798 C792 1.516 . S
C799 O783 1.254 . S
C799 O784 1.257 . S
C800 O785 1.266 . S
C800 O786 1.236 . S
C801 C804 1.344 . S
C801 C805 1.328 . S
C801 C807 1.516 . S
C802 C803 1.304 . S
C802 C806 1.323 . S
C803 C802 1.304 . S
C803 C804 1.371 . S
C803 H812 0.930 . S
C804 C801 1.344 . S
C804 C803 1.371 . S
C804 H813 0.931 . S
C805 C801 1.328 . S
C805 C806 1.433 . S
C805 H814 0.931 . S
C806 C802 1.323 . S
C806 C805 1.433 . S
C806 H815 0.933 . S
C807 Dy777 2.738 . S
C807 O787 1.255 . S
C807 O788 1.249 . S
C807 C801 1.516 . S
H808 C794 0.930 . S
H809 C795 0.931 . S
H810 C796 0.931 . S
H811 C797 0.933 . S
H812 C803 0.930 . S
H813 C804 0.931 . S
H814 C805 0.931 . S
H815 C806 0.933 . S
Dy816 O819 2.307 . S
Dy816 O821 2.395 . S
Dy816 O822 2.379 . S
Dy816 O824 2.339 . S
Dy816 O826 2.298 . S
Dy816 O830 2.275 . S
Dy816 C838 2.738 . S
Dy817 O820 2.298 . S
Dy817 O823 2.275 . S
Dy817 O825 2.307 . S
Dy817 O827 2.395 . S
Dy817 O828 2.379 . S
Dy817 O831 2.339 . S
Dy817 C847 2.738 . S
C818 O830 1.254 . S
C818 O831 1.257 . S
O819 Dy816 2.307 . S
O819 C829 1.266 . S
O820 Dy817 2.298 . S
O820 C829 1.236 . S
O821 Dy816 2.395 . S
O821 C838 1.255 . S
O822 Dy816 2.379 . S
O822 C838 1.249 . S
O823 Dy817 2.275 . S
O823 C839 1.254 . S
O824 Dy816 2.339 . S
O824 C839 1.257 . S
O825 Dy817 2.307 . S
O825 C840 1.266 . S
O826 Dy816 2.298 . S
O826 C840 1.236 . S
O827 Dy817 2.395 . S
O827 C847 1.255 . S
O828 Dy817 2.379 . S
O828 C847 1.249 . S
C829 O819 1.266 . S
C829 O820 1.236 . S
O830 Dy816 2.275 . S
O830 C818 1.254 . S
O831 Dy817 2.339 . S
O831 C818 1.257 . S
C832 C835 1.344 . S
C832 C836 1.328 . S
C832 C838 1.516 . S
C833 C834 1.304 . S
C833 C837 1.323 . S
C834 C833 1.304 . S
C834 C835 1.371 . S
C834 H848 0.930 . S
C835 C832 1.344 . S
C835 C834 1.371 . S
C835 H849 0.931 . S
C836 C832 1.328 . S
C836 C837 1.433 . S
C836 H850 0.931 . S
C837 C833 1.323 . S
C837 C836 1.433 . S
C837 H851 0.933 . S
C838 Dy816 2.738 . S
C838 O821 1.255 . S
C838 O822 1.249 . S
C838 C832 1.516 . S
C839 O823 1.254 . S
C839 O824 1.257 . S
C840 O825 1.266 . S
C840 O826 1.236 . S
C841 C844 1.344 . S
C841 C845 1.328 . S
C841 C847 1.516 . S
C842 C843 1.304 . S
C842 C846 1.323 . S
C843 C842 1.304 . S
C843 C844 1.371 . S
C843 H852 0.930 . S
C844 C841 1.344 . S
C844 C843 1.371 . S
C844 H853 0.931 . S
C845 C841 1.328 . S
C845 C846 1.433 . S
C845 H854 0.931 . S
C846 C842 1.323 . S
C846 C845 1.433 . S
C846 H855 0.933 . S
C847 Dy817 2.738 . S
C847 O827 1.255 . S
C847 O828 1.249 . S
C847 C841 1.516 . S
H848 C834 0.930 . S
H849 C835 0.931 . S
H850 C836 0.931 . S
H851 C837 0.933 . S
H852 C843 0.930 . S
H853 C844 0.931 . S
H854 C845 0.931 . S
H855 C846 0.933 . S
Dy856 O859 2.307 . S
Dy856 O861 2.395 . S
Dy856 O862 2.379 . S
Dy856 O864 2.339 . S
Dy856 O866 2.298 . S
Dy856 O870 2.275 . S
Dy856 C878 2.738 . S
Dy857 O860 2.298 . S
Dy857 O863 2.275 . S
Dy857 O865 2.307 . S
Dy857 O867 2.395 . S
Dy857 O868 2.379 . S
Dy857 O871 2.339 . S
Dy857 C887 2.738 . S
C858 O870 1.254 . S
C858 O871 1.257 . S
O859 Dy856 2.307 . S
O859 C869 1.266 . S
O860 Dy857 2.298 . S
O860 C869 1.236 . S
O861 Dy856 2.395 . S
O861 C878 1.255 . S
O862 Dy856 2.379 . S
O862 C878 1.249 . S
O863 Dy857 2.275 . S
O863 C879 1.254 . S
O864 Dy856 2.339 . S
O864 C879 1.257 . S
O865 Dy857 2.307 . S
O865 C880 1.266 . S
O866 Dy856 2.298 . S
O866 C880 1.236 . S
O867 Dy857 2.395 . S
O867 C887 1.255 . S
O868 Dy857 2.379 . S
O868 C887 1.249 . S
C869 O859 1.266 . S
C869 O860 1.236 . S
O870 Dy856 2.275 . S
O870 C858 1.254 . S
O871 Dy857 2.339 . S
O871 C858 1.257 . S
C872 C875 1.344 . S
C872 C876 1.328 . S
C872 C878 1.516 . S
C873 C874 1.304 . S
C873 C877 1.323 . S
C874 C873 1.304 . S
C874 C875 1.371 . S
C874 H888 0.930 . S
C875 C872 1.344 . S
C875 C874 1.371 . S
C875 H889 0.931 . S
C876 C872 1.328 . S
C876 C877 1.433 . S
C876 H890 0.931 . S
C877 C873 1.323 . S
C877 C876 1.433 . S
C877 H891 0.933 . S
C878 Dy856 2.738 . S
C878 O861 1.255 . S
C878 O862 1.249 . S
C878 C872 1.516 . S
C879 O863 1.254 . S
C879 O864 1.257 . S
C880 O865 1.266 . S
C880 O866 1.236 . S
C881 C884 1.344 . S
C881 C885 1.328 . S
C881 C887 1.516 . S
C882 C883 1.304 . S
C882 C886 1.323 . S
C883 C882 1.304 . S
C883 C884 1.371 . S
C883 H892 0.930 . S
C884 C881 1.344 . S
C884 C883 1.371 . S
C884 H893 0.931 . S
C885 C881 1.328 . S
C885 C886 1.433 . S
C885 H894 0.931 . S
C886 C882 1.323 . S
C886 C885 1.433 . S
C886 H895 0.933 . S
C887 Dy857 2.738 . S
C887 O867 1.255 . S
C887 O868 1.249 . S
C887 C881 1.516 . S
H888 C874 0.930 . S
H889 C875 0.931 . S
H890 C876 0.931 . S
H891 C877 0.933 . S
H892 C883 0.930 . S
H893 C884 0.931 . S
H894 C885 0.931 . S
H895 C886 0.933 . S
Dy896 O899 2.307 . S
Dy896 O901 2.395 . S
Dy896 O902 2.379 . S
Dy896 O904 2.339 . S
Dy896 O906 2.298 . S
Dy896 O910 2.275 . S
Dy896 C918 2.738 . S
Dy897 O900 2.298 . S
Dy897 O903 2.275 . S
Dy897 O905 2.307 . S
Dy897 O907 2.395 . S
Dy897 O908 2.379 . S
Dy897 O911 2.339 . S
Dy897 C927 2.738 . S
C898 O910 1.254 . S
C898 O911 1.257 . S
O899 Dy896 2.307 . S
O899 C909 1.266 . S
O900 Dy897 2.298 . S
O900 C909 1.236 . S
O901 Dy896 2.395 . S
O901 C918 1.255 . S
O902 Dy896 2.379 . S
O902 C918 1.249 . S
O903 Dy897 2.275 . S
O903 C919 1.254 . S
O904 Dy896 2.339 . S
O904 C919 1.257 . S
O905 Dy897 2.307 . S
O905 C920 1.266 . S
O906 Dy896 2.298 . S
O906 C920 1.236 . S
O907 Dy897 2.395 . S
O907 C927 1.255 . S
O908 Dy897 2.379 . S
O908 C927 1.249 . S
C909 O899 1.266 . S
C909 O900 1.236 . S
O910 Dy896 2.275 . S
O910 C898 1.254 . S
O911 Dy897 2.339 . S
O911 C898 1.257 . S
C912 C915 1.344 . S
C912 C916 1.328 . S
C912 C918 1.516 . S
C913 C914 1.304 . S
C913 C917 1.323 . S
C914 C913 1.304 . S
C914 C915 1.371 . S
C914 H928 0.930 . S
C915 C912 1.344 . S
C915 C914 1.371 . S
C915 H929 0.931 . S
C916 C912 1.328 . S
C916 C917 1.433 . S
C916 H930 0.931 . S
C917 C913 1.323 . S
C917 C916 1.433 . S
C917 H931 0.933 . S
C918 Dy896 2.738 . S
C918 O901 1.255 . S
C918 O902 1.249 . S
C918 C912 1.516 . S
C919 O903 1.254 . S
C919 O904 1.257 . S
C920 O905 1.266 . S
C920 O906 1.236 . S
C921 C924 1.344 . S
C921 C925 1.328 . S
C921 C927 1.516 . S
C922 C923 1.304 . S
C922 C926 1.323 . S
C923 C922 1.304 . S
C923 C924 1.371 . S
C923 H932 0.930 . S
C924 C921 1.344 . S
C924 C923 1.371 . S
C924 H933 0.931 . S
C925 C921 1.328 . S
C925 C926 1.433 . S
C925 H934 0.931 . S
C926 C922 1.323 . S
C926 C925 1.433 . S
C926 H935 0.933 . S
C927 Dy897 2.738 . S
C927 O907 1.255 . S
C927 O908 1.249 . S
C927 C921 1.516 . S
H928 C914 0.930 . S
H929 C915 0.931 . S
H930 C916 0.931 . S
H931 C917 0.933 . S
H932 C923 0.930 . S
H933 C924 0.931 . S
H934 C925 0.931 . S
H935 C926 0.933 . S
Dy936 O939 2.307 1_655 S
Dy936 O941 2.395 . S
Dy936 O942 2.379 . S
Dy936 O944 2.339 1_655 S
Dy936 O946 2.298 1_655 S
Dy936 O950 2.275 1_655 S
Dy936 C958 2.738 . S
Dy937 O940 2.298 . S
Dy937 O943 2.275 . S
Dy937 O945 2.307 . S
Dy937 O947 2.395 . S
Dy937 O948 2.379 1_554 S
Dy937 O951 2.339 1_554 S
Dy937 C967 2.738 . S
C938 O950 1.254 1_556 S
C938 O951 1.257 . S
O939 Dy936 2.307 1_455 S
O939 C949 1.266 . S
O940 Dy937 2.298 . S
O940 C949 1.236 . S
O941 Dy936 2.395 . S
O941 C958 1.255 . S
O942 Dy936 2.379 . S
O942 C958 1.249 . S
O943 Dy937 2.275 . S
O943 C959 1.254 . S
O944 Dy936 2.339 1_455 S
O944 C959 1.257 . S
O945 Dy937 2.307 . S
O945 C960 1.266 . S
O946 Dy936 2.298 1_455 S
O946 C960 1.236 . S
O947 Dy937 2.395 . S
O947 C967 1.255 . S
O948 Dy937 2.379 1_556 S
O948 C967 1.249 1_556 S
C949 O939 1.266 . S
C949 O940 1.236 . S
O950 Dy936 2.275 1_455 S
O950 C938 1.254 1_554 S
O951 Dy937 2.339 1_556 S
O951 C938 1.257 . S
C952 C955 1.344 . S
C952 C956 1.328 . S
C952 C958 1.516 . S
C953 C954 1.304 . S
C953 C957 1.323 . S
C954 C953 1.304 . S
C954 C955 1.371 . S
C954 H968 0.930 . S
C955 C952 1.344 . S
C955 C954 1.371 . S
C955 H969 0.931 . S
C956 C952 1.328 . S
C956 C957 1.433 . S
C956 H970 0.931 . S
C957 C953 1.323 . S
C957 C956 1.433 . S
C957 H971 0.933 . S
C958 Dy936 2.738 . S
C958 O941 1.255 . S
C958 O942 1.249 . S
C958 C952 1.516 . S
C959 O943 1.254 . S
C959 O944 1.257 . S
C960 O945 1.266 . S
C960 O946 1.236 . S
C961 C964 1.344 . S
C961 C965 1.328 1_554 S
C961 C967 1.516 . S
C962 C963 1.304 . S
C962 C966 1.323 1_554 S
C963 C962 1.304 . S
C963 C964 1.371 . S
C963 H972 0.930 . S
C964 C961 1.344 . S
C964 C963 1.371 . S
C964 H973 0.931 . S
C965 C961 1.328 1_556 S
C965 C966 1.433 . S
C965 H974 0.931 . S
C966 C962 1.323 1_556 S
C966 C965 1.433 . S
C966 H975 0.933 . S
C967 Dy937 2.738 . S
C967 O947 1.255 . S
C967 O948 1.249 1_554 S
C967 C961 1.516 . S
H968 C954 0.930 . S
H969 C955 0.931 . S
H970 C956 0.931 . S
H971 C957 0.933 . S
H972 C963 0.930 . S
H973 C964 0.931 . S
H974 C965 0.931 . S
H975 C966 0.933 . S
H976 C988 0.930 . S
H977 C990 0.930 . S
H978 C991 0.930 . S
H979 C995 0.959 . S
H980 C995 0.959 . S
H981 C995 0.961 . S
H982 C996 0.960 . S
H983 C996 0.961 . S
H984 C996 0.959 . S
H985 C999 0.929 . S
H986 C1000 0.931 . S
H987 C1002 0.930 1_655 S
C988 H976 0.930 . S
C988 C989 1.399 1_655 S
C988 C993 1.399 1_556 S
C989 C988 1.399 1_455 S
C989 C990 1.376 1_556 S
C990 H977 0.930 . S
C990 C989 1.376 1_554 S
C990 C991 1.388 . S
C991 H978 0.930 . S
C991 C990 1.388 . S
C991 C992 1.390 . S
C992 C991 1.390 . S
C992 C993 1.394 1_455 S
C992 C998 1.465 . S
C993 C988 1.399 1_554 S
C993 C992 1.394 1_655 S
C993 C994 1.516 . S
C994 C993 1.516 . S
C994 C995 1.502 . S
C994 C996 1.561 1_554 S
C994 C997 1.526 1_655 S
C995 H979 0.959 . S
C995 H980 0.959 . S
C995 H981 0.961 . S
C995 C994 1.502 . S
C996 H982 0.960 . S
C996 H983 0.961 . S
C996 H984 0.959 . S
C996 C994 1.561 1_556 S
C997 C994 1.526 1_455 S
C997 C998 1.396 . S
C997 C1002 1.390 . S
C998 C992 1.465 . S
C998 C997 1.396 . S
C998 C999 1.399 . S
C999 H985 0.929 . S
C999 C998 1.399 . S
C999 C1000 1.385 . S
C1000 H986 0.931 . S
C1000 C999 1.385 . S
C1000 C1001 1.389 . S
C1001 C1000 1.389 . S
C1001 C1002 1.387 . S
C1002 H987 0.930 1_455 S
C1002 C997 1.390 . S
C1002 C1001 1.387 . S
H1003 C1015 0.930 . S
H1004 C1017 0.930 . S
H1005 C1018 0.930 . S
H1006 C1022 0.959 . S
H1007 C1022 0.959 . S
H1008 C1022 0.961 . S
H1009 C1023 0.960 . S
H1010 C1023 0.961 . S
H1011 C1023 0.959 . S
H1012 C1026 0.929 . S
H1013 C1027 0.931 . S
H1014 C1029 0.930 . S
C1015 H1003 0.930 . S
C1015 C1016 1.399 . S
C1015 C1020 1.399 . S
C1016 C1015 1.399 . S
C1016 C1017 1.376 . S
C1017 H1004 0.930 . S
C1017 C1016 1.376 . S
C1017 C1018 1.388 . S
C1018 H1005 0.930 . S
C1018 C1017 1.388 . S
C1018 C1019 1.390 . S
C1019 C1018 1.390 . S
C1019 C1020 1.394 . S
C1019 C1025 1.465 . S
C1020 C1015 1.399 . S
C1020 C1019 1.394 . S
C1020 C1021 1.516 . S
C1021 C1020 1.516 . S
C1021 C1022 1.502 . S
C1021 C1023 1.561 . S
C1021 C1024 1.526 . S
C1022 H1006 0.959 . S
C1022 H1007 0.959 . S
C1022 H1008 0.961 . S
C1022 C1021 1.502 . S
C1023 H1009 0.960 . S
C1023 H1010 0.961 . S
C1023 H1011 0.959 . S
C1023 C1021 1.561 . S
C1024 C1021 1.526 . S
C1024 C1025 1.396 . S
C1024 C1029 1.390 . S
C1025 C1019 1.465 . S
C1025 C1024 1.396 . S
C1025 C1026 1.399 . S
C1026 H1012 0.929 . S
C1026 C1025 1.399 . S
C1026 C1027 1.385 . S
C1027 H1013 0.931 . S
C1027 C1026 1.385 . S
C1027 C1028 1.389 . S
C1028 C1027 1.389 . S
C1028 C1029 1.387 . S
C1029 H1014 0.930 . S
C1029 C1024 1.390 . S
C1029 C1028 1.387 . S
H1030 C1042 0.930 . S
H1031 C1044 0.930 . S
H1032 C1045 0.930 . S
H1033 C1049 0.959 . S
H1034 C1049 0.959 . S
H1035 C1049 0.961 . S
H1036 C1050 0.960 . S
H1037 C1050 0.961 . S
H1038 C1050 0.959 . S
H1039 C1053 0.929 . S
H1040 C1054 0.931 . S
H1041 C1056 0.930 . S
C1042 H1030 0.930 . S
C1042 C1043 1.399 . S
C1042 C1047 1.399 . S
C1043 C1042 1.399 . S
C1043 C1044 1.376 . S
C1044 H1031 0.930 . S
C1044 C1043 1.376 . S
C1044 C1045 1.388 . S
C1045 H1032 0.930 . S
C1045 C1044 1.388 . S
C1045 C1046 1.390 . S
C1046 C1045 1.390 . S
C1046 C1047 1.394 . S
C1046 C1052 1.465 . S
C1047 C1042 1.399 . S
C1047 C1046 1.394 . S
C1047 C1048 1.516 . S
C1048 C1047 1.516 . S
C1048 C1049 1.502 . S
C1048 C1050 1.561 . S
C1048 C1051 1.526 . S
C1049 H1033 0.959 . S
C1049 H1034 0.959 . S
C1049 H1035 0.961 . S
C1049 C1048 1.502 . S
C1050 H1036 0.960 . S
C1050 H1037 0.961 . S
C1050 H1038 0.959 . S
C1050 C1048 1.561 . S
C1051 C1048 1.526 . S
C1051 C1052 1.396 . S
C1051 C1056 1.390 . S
C1052 C1046 1.465 . S
C1052 C1051 1.396 . S
C1052 C1053 1.399 . S
C1053 H1039 0.929 . S
C1053 C1052 1.399 . S
C1053 C1054 1.385 . S
C1054 H1040 0.931 . S
C1054 C1053 1.385 . S
C1054 C1055 1.389 . S
C1055 C1054 1.389 . S
C1055 C1056 1.387 . S
C1056 H1041 0.930 . S
C1056 C1051 1.390 . S
C1056 C1055 1.387 . S
H1057 C1069 0.930 . S
H1058 C1071 0.930 . S
H1059 C1072 0.930 . S
H1060 C1076 0.959 . S
H1061 C1076 0.959 . S
H1062 C1076 0.961 . S
H1063 C1077 0.960 . S
H1064 C1077 0.961 . S
H1065 C1077 0.959 . S
H1066 C1080 0.929 . S
H1067 C1081 0.931 . S
H1068 C1083 0.930 . S
C1069 H1057 0.930 . S
C1069 C1070 1.399 . S
C1069 C1074 1.399 . S
C1070 C1069 1.399 . S
C1070 C1071 1.376 . S
C1071 H1058 0.930 . S
C1071 C1070 1.376 . S
C1071 C1072 1.388 . S
C1072 H1059 0.930 . S
C1072 C1071 1.388 . S
C1072 C1073 1.390 . S
C1073 C1072 1.390 . S
C1073 C1074 1.394 . S
C1073 C1079 1.465 . S
C1074 C1069 1.399 . S
C1074 C1073 1.394 . S
C1074 C1075 1.516 . S
C1075 C1074 1.516 . S
C1075 C1076 1.502 . S
C1075 C1077 1.561 . S
C1075 C1078 1.526 . S
C1076 H1060 0.959 . S
C1076 H1061 0.959 . S
C1076 H1062 0.961 . S
C1076 C1075 1.502 . S
C1077 H1063 0.960 . S
C1077 H1064 0.961 . S
C1077 H1065 0.959 . S
C1077 C1075 1.561 . S
C1078 C1075 1.526 . S
C1078 C1079 1.396 . S
C1078 C1083 1.390 . S
C1079 C1073 1.465 . S
C1079 C1078 1.396 . S
C1079 C1080 1.399 . S
C1080 H1066 0.929 . S
C1080 C1079 1.399 . S
C1080 C1081 1.385 . S
C1081 H1067 0.931 . S
C1081 C1080 1.385 . S
C1081 C1082 1.389 . S
C1082 C1081 1.389 . S
C1082 C1083 1.387 . S
C1083 H1068 0.930 . S
C1083 C1078 1.390 . S
C1083 C1082 1.387 . S
H1084 C1096 0.930 . S
H1085 C1098 0.930 . S
H1086 C1099 0.930 . S
H1087 C1103 0.959 . S
H1088 C1103 0.959 . S
H1089 C1103 0.961 . S
H1090 C1104 0.960 . S
H1091 C1104 0.961 . S
H1092 C1104 0.959 . S
H1093 C1107 0.929 . S
H1094 C1108 0.931 . S
H1095 C1110 0.930 . S
C1096 H1084 0.930 . S
C1096 C1097 1.399 . S
C1096 C1101 1.399 . S
C1097 C1096 1.399 . S
C1097 C1098 1.376 . S
C1098 H1085 0.930 . S
C1098 C1097 1.376 . S
C1098 C1099 1.388 . S
C1099 H1086 0.930 . S
C1099 C1098 1.388 . S
C1099 C1100 1.390 . S
C1100 C1099 1.390 . S
C1100 C1101 1.394 . S
C1100 C1106 1.465 . S
C1101 C1096 1.399 . S
C1101 C1100 1.394 . S
C1101 C1102 1.516 . S
C1102 C1101 1.516 . S
C1102 C1103 1.502 . S
C1102 C1104 1.561 1_455 S
C1102 C1105 1.526 . S
C1103 H1087 0.959 . S
C1103 H1088 0.959 . S
C1103 H1089 0.961 . S
C1103 C1102 1.502 . S
C1104 H1090 0.960 . S
C1104 H1091 0.961 . S
C1104 H1092 0.959 . S
C1104 C1102 1.561 1_655 S
C1105 C1102 1.526 . S
C1105 C1106 1.396 . S
C1105 C1110 1.390 . S
C1106 C1100 1.465 . S
C1106 C1105 1.396 . S
C1106 C1107 1.399 . S
C1107 H1093 0.929 . S
C1107 C1106 1.399 . S
C1107 C1108 1.385 . S
C1108 H1094 0.931 . S
C1108 C1107 1.385 . S
C1108 C1109 1.389 . S
C1109 C1108 1.389 . S
C1109 C1110 1.387 . S
C1110 H1095 0.930 . S
C1110 C1105 1.390 . S
C1110 C1109 1.387 . S
H1111 C1123 0.930 . S
H1112 C1125 0.930 . S
H1113 C1126 0.930 . S
H1114 C1130 0.959 . S
H1115 C1130 0.959 . S
H1116 C1130 0.961 . S
H1117 C1131 0.960 . S
H1118 C1131 0.961 . S
H1119 C1131 0.959 . S
H1120 C1134 0.929 . S
H1121 C1135 0.931 . S
H1122 C1137 0.930 . S
C1123 H1111 0.930 . S
C1123 C1124 1.399 . S
C1123 C1128 1.399 . S
C1124 C1123 1.399 . S
C1124 C1125 1.376 . S
C1125 H1112 0.930 . S
C1125 C1124 1.376 . S
C1125 C1126 1.388 . S
C1126 H1113 0.930 . S
C1126 C1125 1.388 . S
C1126 C1127 1.390 . S
C1127 C1126 1.390 . S
C1127 C1128 1.394 . S
C1127 C1133 1.465 . S
C1128 C1123 1.399 . S
C1128 C1127 1.394 . S
C1128 C1129 1.516 . S
C1129 C1128 1.516 . S
C1129 C1130 1.502 . S
C1129 C1131 1.561 . S
C1129 C1132 1.526 . S
C1130 H1114 0.959 . S
C1130 H1115 0.959 . S
C1130 H1116 0.961 . S
C1130 C1129 1.502 . S
C1131 H1117 0.960 . S
C1131 H1118 0.961 . S
C1131 H1119 0.959 . S
C1131 C1129 1.561 . S
C1132 C1129 1.526 . S
C1132 C1133 1.396 . S
C1132 C1137 1.390 . S
C1133 C1127 1.465 . S
C1133 C1132 1.396 . S
C1133 C1134 1.399 . S
C1134 H1120 0.929 . S
C1134 C1133 1.399 . S
C1134 C1135 1.385 . S
C1135 H1121 0.931 . S
C1135 C1134 1.385 . S
C1135 C1136 1.389 . S
C1136 C1135 1.389 . S
C1136 C1137 1.387 . S
C1137 H1122 0.930 . S
C1137 C1132 1.390 . S
C1137 C1136 1.387 . S
H1138 C1150 0.930 . S
H1139 C1152 0.930 . S
H1140 C1153 0.930 . S
H1141 C1157 0.959 . S
H1142 C1157 0.959 . S
H1143 C1157 0.961 . S
H1144 C1158 0.960 . S
H1145 C1158 0.961 . S
H1146 C1158 0.959 . S
H1147 C1161 0.929 . S
H1148 C1162 0.931 . S
H1149 C1164 0.930 . S
C1150 H1138 0.930 . S
C1150 C1151 1.399 . S
C1150 C1155 1.399 . S
C1151 C1150 1.399 . S
C1151 C1152 1.376 . S
C1152 H1139 0.930 . S
C1152 C1151 1.376 . S
C1152 C1153 1.388 . S
C1153 H1140 0.930 . S
C1153 C1152 1.388 . S
C1153 C1154 1.390 . S
C1154 C1153 1.390 . S
C1154 C1155 1.394 . S
C1154 C1160 1.465 . S
C1155 C1150 1.399 . S
C1155 C1154 1.394 . S
C1155 C1156 1.516 . S
C1156 C1155 1.516 . S
C1156 C1157 1.502 . S
C1156 C1158 1.561 . S
C1156 C1159 1.526 . S
C1157 H1141 0.959 . S
C1157 H1142 0.959 . S
C1157 H1143 0.961 . S
C1157 C1156 1.502 . S
C1158 H1144 0.960 . S
C1158 H1145 0.961 . S
C1158 H1146 0.959 . S
C1158 C1156 1.561 . S
C1159 C1156 1.526 . S
C1159 C1160 1.396 . S
C1159 C1164 1.390 . S
C1160 C1154 1.465 . S
C1160 C1159 1.396 . S
C1160 C1161 1.399 . S
C1161 H1147 0.929 . S
C1161 C1160 1.399 . S
C1161 C1162 1.385 . S
C1162 H1148 0.931 . S
C1162 C1161 1.385 . S
C1162 C1163 1.389 . S
C1163 C1162 1.389 . S
C1163 C1164 1.387 . S
C1164 H1149 0.930 . S
C1164 C1159 1.390 . S
C1164 C1163 1.387 . S
H1165 C1177 0.930 . S
H1166 C1179 0.930 . S
H1167 C1180 0.930 . S
H1168 C1184 0.959 . S
H1169 C1184 0.959 . S
H1170 C1184 0.961 . S
H1171 C1185 0.960 . S
H1172 C1185 0.961 . S
H1173 C1185 0.959 . S
H1174 C1188 0.929 . S
H1175 C1189 0.931 . S
H1176 C1191 0.930 . S
C1177 H1165 0.930 . S
C1177 C1178 1.399 . S
C1177 C1182 1.399 . S
C1178 C1177 1.399 . S
C1178 C1179 1.376 . S
C1179 H1166 0.930 . S
C1179 C1178 1.376 . S
C1179 C1180 1.388 . S
C1180 H1167 0.930 . S
C1180 C1179 1.388 . S
C1180 C1181 1.390 . S
C1181 C1180 1.390 . S
C1181 C1182 1.394 . S
C1181 C1187 1.465 . S
C1182 C1177 1.399 . S
C1182 C1181 1.394 . S
C1182 C1183 1.516 . S
C1183 C1182 1.516 . S
C1183 C1184 1.502 . S
C1183 C1185 1.561 . S
C1183 C1186 1.526 . S
C1184 H1168 0.959 . S
C1184 H1169 0.959 . S
C1184 H1170 0.961 . S
C1184 C1183 1.502 . S
C1185 H1171 0.960 . S
C1185 H1172 0.961 . S
C1185 H1173 0.959 . S
C1185 C1183 1.561 . S
C1186 C1183 1.526 . S
C1186 C1187 1.396 . S
C1186 C1191 1.390 . S
C1187 C1181 1.465 . S
C1187 C1186 1.396 . S
C1187 C1188 1.399 . S
C1188 H1174 0.929 . S
C1188 C1187 1.399 . S
C1188 C1189 1.385 . S
C1189 H1175 0.931 . S
C1189 C1188 1.385 . S
C1189 C1190 1.389 . S
C1190 C1189 1.389 . S
C1190 C1191 1.387 . S
C1191 H1176 0.930 . S
C1191 C1186 1.390 . S
C1191 C1190 1.387 . S
H1192 C1204 0.930 . S
H1193 C1206 0.930 . S
H1194 C1207 0.926 1_455 S
H1195 C1211 0.959 . S
H1196 C1211 0.959 . S
H1197 C1211 0.961 . S
H1198 C1212 0.960 . S
H1199 C1212 0.961 . S
H1200 C1212 0.959 . S
H1201 C1215 0.929 . S
H1202 C1216 0.931 . S
H1203 C1218 0.930 . S
C1204 H1192 0.930 . S
C1204 C1205 1.399 . S
C1204 C1209 1.399 . S
C1205 C1204 1.399 . S
C1205 C1206 1.376 . S
C1206 H1193 0.930 . S
C1206 C1205 1.376 . S
C1206 C1207 1.391 . S
C1207 H1194 0.926 1_655 S
C1207 C1206 1.391 . S
C1207 C1208 1.397 1_655 S
C1208 C1207 1.397 1_455 S
C1208 C1209 1.366 1_455 S
C1208 C1214 1.483 . S
C1209 C1204 1.399 . S
C1209 C1208 1.366 1_655 S
C1209 C1210 1.516 . S
C1210 C1209 1.516 . S
C1210 C1211 1.502 . S
C1210 C1212 1.561 1_655 S
C1210 C1213 1.526 1_655 S
C1211 H1195 0.959 . S
C1211 H1196 0.959 . S
C1211 H1197 0.961 . S
C1211 C1210 1.502 . S
C1212 H1198 0.960 . S
C1212 H1199 0.961 . S
C1212 H1200 0.959 . S
C1212 C1210 1.561 1_455 S
C1213 C1210 1.526 1_455 S
C1213 C1214 1.396 . S
C1213 C1218 1.390 . S
C1214 C1208 1.483 . S
C1214 C1213 1.396 . S
C1214 C1215 1.399 . S
C1215 H1201 0.929 . S
C1215 C1214 1.399 . S
C1215 C1216 1.385 . S
C1216 H1202 0.931 . S
C1216 C1215 1.385 . S
C1216 C1217 1.389 . S
C1217 C1216 1.389 . S
C1217 C1218 1.387 . S
C1218 H1203 0.930 . S
C1218 C1213 1.390 . S
C1218 C1217 1.387 . S
H1219 C1231 0.930 . S
H1220 C1233 0.930 . S
H1221 C1234 0.930 . S
H1222 C1238 0.959 . S
H1223 C1238 0.959 . S
H1224 C1238 0.961 . S
H1225 C1239 0.960 . S
H1226 C1239 0.961 . S
H1227 C1239 0.959 . S
H1228 C1242 0.929 . S
H1229 C1243 0.931 . S
H1230 C1245 0.930 . S
C1231 H1219 0.930 . S
C1231 C1232 1.399 . S
C1231 C1236 1.399 . S
C1232 C1231 1.399 . S
C1232 C1233 1.376 . S
C1233 H1220 0.930 . S
C1233 C1232 1.376 . S
C1233 C1234 1.388 . S
C1234 H1221 0.930 . S
C1234 C1233 1.388 . S
C1234 C1235 1.390 . S
C1235 C1234 1.390 . S
C1235 C1236 1.394 . S
C1235 C1241 1.465 . S
C1236 C1231 1.399 . S
C1236 C1235 1.394 . S
C1236 C1237 1.516 . S
C1237 C1236 1.516 . S
C1237 C1238 1.502 . S
C1237 C1239 1.561 . S
C1237 C1240 1.526 . S
C1238 H1222 0.959 . S
C1238 H1223 0.959 . S
C1238 H1224 0.961 . S
C1238 C1237 1.502 . S
C1239 H1225 0.960 . S
C1239 H1226 0.961 . S
C1239 H1227 0.959 . S
C1239 C1237 1.561 . S
C1240 C1237 1.526 . S
C1240 C1241 1.396 . S
C1240 C1245 1.390 . S
C1241 C1235 1.465 . S
C1241 C1240 1.396 . S
C1241 C1242 1.399 . S
C1242 H1228 0.929 . S
C1242 C1241 1.399 . S
C1242 C1243 1.385 . S
C1243 H1229 0.931 . S
C1243 C1242 1.385 . S
C1243 C1244 1.389 . S
C1244 C1243 1.389 . S
C1244 C1245 1.387 . S
C1245 H1230 0.930 . S
C1245 C1240 1.390 . S
C1245 C1244 1.387 . S
H1246 C1258 0.930 . S
H1247 C1260 0.930 . S
H1248 C1261 0.930 . S
H1249 C1265 0.959 . S
H1250 C1265 0.959 . S
H1251 C1265 0.961 . S
H1252 C1266 0.960 . S
H1253 C1266 0.961 . S
H1254 C1266 0.959 . S
H1255 C1269 0.929 . S
H1256 C1270 0.931 . S
H1257 C1272 0.930 . S
C1258 H1246 0.930 . S
C1258 C1259 1.399 . S
C1258 C1263 1.399 . S
C1259 C1258 1.399 . S
C1259 C1260 1.376 . S
C1260 H1247 0.930 . S
C1260 C1259 1.376 . S
C1260 C1261 1.388 . S
C1261 H1248 0.930 . S
C1261 C1260 1.388 . S
C1261 C1262 1.390 . S
C1262 C1261 1.390 . S
C1262 C1263 1.394 . S
C1262 C1268 1.465 . S
C1263 C1258 1.399 . S
C1263 C1262 1.394 . S
C1263 C1264 1.516 . S
C1264 C1263 1.516 . S
C1264 C1265 1.502 . S
C1264 C1266 1.561 . S
C1264 C1267 1.526 . S
C1265 H1249 0.959 . S
C1265 H1250 0.959 . S
C1265 H1251 0.961 . S
C1265 C1264 1.502 . S
C1266 H1252 0.960 . S
C1266 H1253 0.961 . S
C1266 H1254 0.959 . S
C1266 C1264 1.561 . S
C1267 C1264 1.526 . S
C1267 C1268 1.396 . S
C1267 C1272 1.390 . S
C1268 C1262 1.465 . S
C1268 C1267 1.396 . S
C1268 C1269 1.399 . S
C1269 H1255 0.929 . S
C1269 C1268 1.399 . S
C1269 C1270 1.385 . S
C1270 H1256 0.931 . S
C1270 C1269 1.385 . S
C1270 C1271 1.389 . S
C1271 C1270 1.389 . S
C1271 C1272 1.387 . S
C1272 H1257 0.930 . S
C1272 C1267 1.390 . S
C1272 C1271 1.387 . S
H1273 C1285 0.930 . S
H1274 C1287 0.930 . S
H1275 C1288 0.930 . S
H1276 C1292 0.959 . S
H1277 C1292 0.959 . S
H1278 C1292 0.961 . S
H1279 C1293 0.960 . S
H1280 C1293 0.961 . S
H1281 C1293 0.959 . S
H1282 C1296 0.929 . S
H1283 C1297 0.931 . S
H1284 C1299 0.930 . S
C1285 H1273 0.930 . S
C1285 C1286 1.399 . S
C1285 C1290 1.399 . S
C1286 C1285 1.399 . S
C1286 C1287 1.376 . S
C1287 H1274 0.930 . S
C1287 C1286 1.376 . S
C1287 C1288 1.388 . S
C1288 H1275 0.930 . S
C1288 C1287 1.388 . S
C1288 C1289 1.390 . S
C1289 C1288 1.390 . S
C1289 C1290 1.394 . S
C1289 C1295 1.465 . S
C1290 C1285 1.399 . S
C1290 C1289 1.394 . S
C1290 C1291 1.516 . S
C1291 C1290 1.516 . S
C1291 C1292 1.502 . S
C1291 C1293 1.561 . S
C1291 C1294 1.526 . S
C1292 H1276 0.959 . S
C1292 H1277 0.959 . S
C1292 H1278 0.961 . S
C1292 C1291 1.502 . S
C1293 H1279 0.960 . S
C1293 H1280 0.961 . S
C1293 H1281 0.959 . S
C1293 C1291 1.561 . S
C1294 C1291 1.526 . S
C1294 C1295 1.396 . S
C1294 C1299 1.390 . S
C1295 C1289 1.465 . S
C1295 C1294 1.396 . S
C1295 C1296 1.399 . S
C1296 H1282 0.929 . S
C1296 C1295 1.399 . S
C1296 C1297 1.385 . S
C1297 H1283 0.931 . S
C1297 C1296 1.385 . S
C1297 C1298 1.389 . S
C1298 C1297 1.389 . S
C1298 C1299 1.387 . S
C1299 H1284 0.930 . S
C1299 C1294 1.390 . S
C1299 C1298 1.387 . S
H1300 C1312 0.930 . S
H1301 C1314 0.926 1_565 S
H1302 C1315 0.930 1_565 S
H1303 C1319 0.959 . S
H1304 C1319 0.959 . S
H1305 C1319 0.961 . S
H1306 C1320 0.960 . S
H1307 C1320 0.961 . S
H1308 C1320 0.959 . S
H1309 C1323 0.929 1_565 S
H1310 C1324 0.890 1_565 S
H1311 C1326 0.930 . S
C1312 H1300 0.930 . S
C1312 C1313 1.399 . S
C1312 C1317 1.399 . S
C1313 C1312 1.399 . S
C1313 C1314 1.376 . S
C1314 H1301 0.926 1_545 S
C1314 C1313 1.376 . S
C1314 C1315 1.388 . S
C1315 H1302 0.930 1_545 S
C1315 C1314 1.388 . S
C1315 C1316 1.390 . S
C1316 C1315 1.390 . S
C1316 C1317 1.394 . S
C1316 C1322 1.465 . S
C1317 C1312 1.399 . S
C1317 C1316 1.394 . S
C1317 C1318 1.516 1_655 S
C1318 C1317 1.516 1_455 S
C1318 C1319 1.502 . S
C1318 C1320 1.561 1_455 S
C1318 C1321 1.526 . S
C1319 H1303 0.959 . S
C1319 H1304 0.959 . S
C1319 H1305 0.961 . S
C1319 C1318 1.502 . S
C1320 H1306 0.960 . S
C1320 H1307 0.961 . S
C1320 H1308 0.959 . S
C1320 C1318 1.561 1_655 S
C1321 C1318 1.526 . S
C1321 C1322 1.396 1_455 S
C1321 C1326 1.390 . S
C1322 C1316 1.465 . S
C1322 C1321 1.396 1_655 S
C1322 C1323 1.399 . S
C1323 H1309 0.929 1_545 S
C1323 C1322 1.399 . S
C1323 C1324 1.385 1_655 S
C1324 H1310 0.890 1_545 S
C1324 C1323 1.385 1_455 S
C1324 C1325 1.389 . S
C1325 C1324 1.389 . S
C1325 C1326 1.387 . S
C1326 H1311 0.930 . S
C1326 C1321 1.390 . S
C1326 C1325 1.387 . S
H1327 C1339 0.930 . S
H1328 C1341 0.930 . S
H1329 C1342 0.930 . S
H1330 C1346 0.959 . S
H1331 C1346 0.959 . S
H1332 C1346 0.961 . S
H1333 C1347 0.960 . S
H1334 C1347 0.961 . S
H1335 C1347 0.959 . S
H1336 C1350 0.929 . S
H1337 C1351 0.931 . S
H1338 C1353 0.930 . S
C1339 H1327 0.930 . S
C1339 C1340 1.399 . S
C1339 C1344 1.399 . S
C1340 C1339 1.399 . S
C1340 C1341 1.376 . S
C1341 H1328 0.930 . S
C1341 C1340 1.376 . S
C1341 C1342 1.388 . S
C1342 H1329 0.930 . S
C1342 C1341 1.388 . S
C1342 C1343 1.390 . S
C1343 C1342 1.390 . S
C1343 C1344 1.394 . S
C1343 C1349 1.465 . S
C1344 C1339 1.399 . S
C1344 C1343 1.394 . S
C1344 C1345 1.516 . S
C1345 C1344 1.516 . S
C1345 C1346 1.502 . S
C1345 C1347 1.561 . S
C1345 C1348 1.526 . S
C1346 H1330 0.959 . S
C1346 H1331 0.959 . S
C1346 H1332 0.961 . S
C1346 C1345 1.502 . S
C1347 H1333 0.960 . S
C1347 H1334 0.961 . S
C1347 H1335 0.959 . S
C1347 C1345 1.561 . S
C1348 C1345 1.526 . S
C1348 C1349 1.396 . S
C1348 C1353 1.390 . S
C1349 C1343 1.465 . S
C1349 C1348 1.396 . S
C1349 C1350 1.399 . S
C1350 H1336 0.929 . S
C1350 C1349 1.399 . S
C1350 C1351 1.385 . S
C1351 H1337 0.931 . S
C1351 C1350 1.385 . S
C1351 C1352 1.389 . S
C1352 C1351 1.389 . S
C1352 C1353 1.387 . S
C1353 H1338 0.930 . S
C1353 C1348 1.390 . S
C1353 C1352 1.387 . S
H1354 C1366 0.930 . S
H1355 C1368 0.930 . S
H1356 C1369 0.930 . S
H1357 C1373 0.959 . S
H1358 C1373 0.959 . S
H1359 C1373 0.961 . S
H1360 C1374 0.960 . S
H1361 C1374 0.961 . S
H1362 C1374 0.959 . S
H1363 C1377 0.929 . S
H1364 C1378 0.931 . S
H1365 C1380 0.930 . S
C1366 H1354 0.930 . S
C1366 C1367 1.399 . S
C1366 C1371 1.399 . S
C1367 C1366 1.399 . S
C1367 C1368 1.376 . S
C1368 H1355 0.930 . S
C1368 C1367 1.376 . S
C1368 C1369 1.388 . S
C1369 H1356 0.930 . S
C1369 C1368 1.388 . S
C1369 C1370 1.390 . S
C1370 C1369 1.390 . S
C1370 C1371 1.394 . S
C1370 C1376 1.465 . S
C1371 C1366 1.399 . S
C1371 C1370 1.394 . S
C1371 C1372 1.516 . S
C1372 C1371 1.516 . S
C1372 C1373 1.502 . S
C1372 C1374 1.561 . S
C1372 C1375 1.526 . S
C1373 H1357 0.959 . S
C1373 H1358 0.959 . S
C1373 H1359 0.961 . S
C1373 C1372 1.502 . S
C1374 H1360 0.960 . S
C1374 H1361 0.961 . S
C1374 H1362 0.959 . S
C1374 C1372 1.561 . S
C1375 C1372 1.526 . S
C1375 C1376 1.396 . S
C1375 C1380 1.390 . S
C1376 C1370 1.465 . S
C1376 C1375 1.396 . S
C1376 C1377 1.399 . S
C1377 H1363 0.929 . S
C1377 C1376 1.399 . S
C1377 C1378 1.385 . S
C1378 H1364 0.931 . S
C1378 C1377 1.385 . S
C1378 C1379 1.389 . S
C1379 C1378 1.389 . S
C1379 C1380 1.387 . S
C1380 H1365 0.930 . S
C1380 C1375 1.390 . S
C1380 C1379 1.387 . S
H1381 C1393 0.930 . S
H1382 C1395 0.930 . S
H1383 C1396 0.930 . S
H1384 C1400 0.959 . S
H1385 C1400 0.959 . S
H1386 C1400 0.961 . S
H1387 C1401 0.960 . S
H1388 C1401 0.961 . S
H1389 C1401 0.959 . S
H1390 C1404 0.929 . S
H1391 C1405 0.931 . S
H1392 C1407 0.930 . S
C1393 H1381 0.930 . S
C1393 C1394 1.399 . S
C1393 C1398 1.399 . S
C1394 C1393 1.399 . S
C1394 C1395 1.376 . S
C1395 H1382 0.930 . S
C1395 C1394 1.376 . S
C1395 C1396 1.388 . S
C1396 H1383 0.930 . S
C1396 C1395 1.388 . S
C1396 C1397 1.390 . S
C1397 C1396 1.390 . S
C1397 C1398 1.394 . S
C1397 C1403 1.465 . S
C1398 C1393 1.399 . S
C1398 C1397 1.394 . S
C1398 C1399 1.516 . S
C1399 C1398 1.516 . S
C1399 C1400 1.502 . S
C1399 C1401 1.561 . S
C1399 C1402 1.526 . S
C1400 H1384 0.959 . S
C1400 H1385 0.959 . S
C1400 H1386 0.961 . S
C1400 C1399 1.502 . S
C1401 H1387 0.960 . S
C1401 H1388 0.961 . S
C1401 H1389 0.959 . S
C1401 C1399 1.561 . S
C1402 C1399 1.526 . S
C1402 C1403 1.396 . S
C1402 C1407 1.390 . S
C1403 C1397 1.465 . S
C1403 C1402 1.396 . S
C1403 C1404 1.399 . S
C1404 H1390 0.929 . S
C1404 C1403 1.399 . S
C1404 C1405 1.385 . S
C1405 H1391 0.931 . S
C1405 C1404 1.385 . S
C1405 C1406 1.389 . S
C1406 C1405 1.389 . S
C1406 C1407 1.387 . S
C1407 H1392 0.930 . S
C1407 C1402 1.390 . S
C1407 C1406 1.387 . S
H1408 C1420 0.930 . S
H1409 C1422 0.930 . S
H1410 C1423 0.930 . S
H1411 C1427 0.962 1_545 S
H1412 C1427 0.963 1_545 S
H1413 C1427 0.959 . S
H1414 C1428 0.960 . S
H1415 C1428 0.961 . S
H1416 C1428 0.959 . S
H1417 C1431 0.929 . S
H1418 C1432 0.935 . S
H1419 C1434 0.930 . S
C1420 H1408 0.930 . S
C1420 C1421 1.399 1_556 S
C1420 C1425 1.399 1_556 S
C1421 C1420 1.399 1_554 S
C1421 C1422 1.376 . S
C1422 H1409 0.930 . S
C1422 C1421 1.376 . S
C1422 C1423 1.388 . S
C1423 H1410 0.930 . S
C1423 C1422 1.388 . S
C1423 C1424 1.390 . S
C1424 C1423 1.390 . S
C1424 C1425 1.394 . S
C1424 C1430 1.465 . S
C1425 C1420 1.399 1_554 S
C1425 C1424 1.394 . S
C1425 C1426 1.516 . S
C1426 C1425 1.516 . S
C1426 C1427 1.498 1_554 S
C1426 C1428 1.561 1_554 S
C1426 C1429 1.526 . S
C1427 H1411 0.962 1_565 S
C1427 H1412 0.963 1_565 S
C1427 H1413 0.959 . S
C1427 C1426 1.498 1_556 S
C1428 H1414 0.960 . S
C1428 H1415 0.961 . S
C1428 H1416 0.959 . S
C1428 C1426 1.561 1_556 S
C1429 C1426 1.526 . S
C1429 C1430 1.396 . S
C1429 C1434 1.390 1_565 S
C1430 C1424 1.465 . S
C1430 C1429 1.396 . S
C1430 C1431 1.399 . S
C1431 H1417 0.929 . S
C1431 C1430 1.399 . S
C1431 C1432 1.365 1_565 S
C1432 H1418 0.935 . S
C1432 C1431 1.365 1_545 S
C1432 C1433 1.406 . S
C1433 C1432 1.406 . S
C1433 C1434 1.387 . S
C1434 H1419 0.930 . S
C1434 C1429 1.390 1_545 S
C1434 C1433 1.387 . S
H1435 C1447 0.930 1_556 S
H1436 C1449 0.930 . S
H1437 C1450 0.930 . S
H1438 C1454 0.959 . S
H1439 C1454 0.959 . S
H1440 C1454 0.961 . S
H1441 C1455 0.960 . S
H1442 C1455 0.961 . S
H1443 C1455 0.959 . S
H1444 C1458 0.929 . S
H1445 C1459 0.931 . S
H1446 C1461 0.930 1_556 S
C1447 H1435 0.930 1_554 S
C1447 C1448 1.399 . S
C1447 C1452 1.399 . S
C1448 C1447 1.399 . S
C1448 C1449 1.376 . S
C1449 H1436 0.930 . S
C1449 C1448 1.376 . S
C1449 C1450 1.388 . S
C1450 H1437 0.930 . S
C1450 C1449 1.388 . S
C1450 C1451 1.390 . S
C1451 C1450 1.390 . S
C1451 C1452 1.394 . S
C1451 C1457 1.465 . S
C1452 C1447 1.399 . S
C1452 C1451 1.394 . S
C1452 C1453 1.516 1_554 S
C1453 C1452 1.516 1_556 S
C1453 C1454 1.502 . S
C1453 C1455 1.561 . S
C1453 C1456 1.526 1_556 S
C1454 H1438 0.959 . S
C1454 H1439 0.959 . S
C1454 H1440 0.961 . S
C1454 C1453 1.502 . S
C1455 H1441 0.960 . S
C1455 H1442 0.961 . S
C1455 H1443 0.959 . S
C1455 C1453 1.561 . S
C1456 C1453 1.526 1_554 S
C1456 C1457 1.396 . S
C1456 C1461 1.390 . S
C1457 C1451 1.465 . S
C1457 C1456 1.396 . S
C1457 C1458 1.399 . S
C1458 H1444 0.929 . S
C1458 C1457 1.399 . S
C1458 C1459 1.385 . S
C1459 H1445 0.931 . S
C1459 C1458 1.385 . S
C1459 C1460 1.389 . S
C1460 C1459 1.389 . S
C1460 C1461 1.387 . S
C1461 H1446 0.930 1_554 S
C1461 C1456 1.390 . S
C1461 C1460 1.387 . S
H1462 C1474 0.930 . S
H1463 C1476 0.930 . S
H1464 C1477 0.930 . S
H1465 C1481 0.959 . S
H1466 C1481 0.959 . S
H1467 C1481 0.961 . S
H1468 C1482 0.960 . S
H1469 C1482 0.961 . S
H1470 C1482 0.959 . S
H1471 C1485 0.929 . S
H1472 C1486 0.931 . S
H1473 C1488 0.930 . S
C1474 H1462 0.930 . S
C1474 C1475 1.399 . S
C1474 C1479 1.399 . S
C1475 C1474 1.399 . S
C1475 C1476 1.376 . S
C1476 H1463 0.930 . S
C1476 C1475 1.376 . S
C1476 C1477 1.388 . S
C1477 H1464 0.930 . S
C1477 C1476 1.388 . S
C1477 C1478 1.390 . S
C1478 C1477 1.390 . S
C1478 C1479 1.394 . S
C1478 C1484 1.465 . S
C1479 C1474 1.399 . S
C1479 C1478 1.394 . S
C1479 C1480 1.516 . S
C1480 C1479 1.516 . S
C1480 C1481 1.502 . S
C1480 C1482 1.561 . S
C1480 C1483 1.526 . S
C1481 H1465 0.959 . S
C1481 H1466 0.959 . S
C1481 H1467 0.961 . S
C1481 C1480 1.502 . S
C1482 H1468 0.960 . S
C1482 H1469 0.961 . S
C1482 H1470 0.959 . S
C1482 C1480 1.561 . S
C1483 C1480 1.526 . S
C1483 C1484 1.396 . S
C1483 C1488 1.390 . S
C1484 C1478 1.465 . S
C1484 C1483 1.396 . S
C1484 C1485 1.399 . S
C1485 H1471 0.929 . S
C1485 C1484 1.399 . S
C1485 C1486 1.385 . S
C1486 H1472 0.931 . S
C1486 C1485 1.385 . S
C1486 C1487 1.389 . S
C1487 C1486 1.389 . S
C1487 C1488 1.387 . S
C1488 H1473 0.930 . S
C1488 C1483 1.390 . S
C1488 C1487 1.387 . S
H1489 C1501 0.930 . S
H1490 C1503 0.930 . S
H1491 C1504 0.930 . S
H1492 C1508 0.959 . S
H1493 C1508 0.959 . S
H1494 C1508 0.961 . S
H1495 C1509 0.960 . S
H1496 C1509 0.961 . S
H1497 C1509 0.959 . S
H1498 C1512 0.929 . S
H1499 C1513 0.931 . S
H1500 C1515 0.930 . S
C1501 H1489 0.930 . S
C1501 C1502 1.399 . S
C1501 C1506 1.399 . S
C1502 C1501 1.399 . S
C1502 C1503 1.376 . S
C1503 H1490 0.930 . S
C1503 C1502 1.376 . S
C1503 C1504 1.388 . S
C1504 H1491 0.930 . S
C1504 C1503 1.388 . S
C1504 C1505 1.390 . S
C1505 C1504 1.390 . S
C1505 C1506 1.394 . S
C1505 C1511 1.465 . S
C1506 C1501 1.399 . S
C1506 C1505 1.394 . S
C1506 C1507 1.516 . S
C1507 C1506 1.516 . S
C1507 C1508 1.502 . S
C1507 C1509 1.561 . S
C1507 C1510 1.526 . S
C1508 H1492 0.959 . S
C1508 H1493 0.959 . S
C1508 H1494 0.961 . S
C1508 C1507 1.502 . S
C1509 H1495 0.960 . S
C1509 H1496 0.961 . S
C1509 H1497 0.959 . S
C1509 C1507 1.561 . S
C1510 C1507 1.526 . S
C1510 C1511 1.396 . S
C1510 C1515 1.390 . S
C1511 C1505 1.465 . S
C1511 C1510 1.396 . S
C1511 C1512 1.399 . S
C1512 H1498 0.929 . S
C1512 C1511 1.399 . S
C1512 C1513 1.385 . S
C1513 H1499 0.931 . S
C1513 C1512 1.385 . S
C1513 C1514 1.389 . S
C1514 C1513 1.389 . S
C1514 C1515 1.387 . S
C1515 H1500 0.930 . S
C1515 C1510 1.390 . S
C1515 C1514 1.387 . S
H1516 C1528 0.930 . S
H1517 C1530 0.930 . S
H1518 C1531 0.930 . S
H1519 C1535 0.959 . S
H1520 C1535 0.959 . S
H1521 C1535 0.961 . S
H1522 C1536 0.960 . S
H1523 C1536 0.961 . S
H1524 C1536 0.959 . S
H1525 C1539 0.929 . S
H1526 C1540 0.931 . S
H1527 C1542 0.930 . S
C1528 H1516 0.930 . S
C1528 C1529 1.399 . S
C1528 C1533 1.399 . S
C1529 C1528 1.399 . S
C1529 C1530 1.376 . S
C1530 H1517 0.930 . S
C1530 C1529 1.376 . S
C1530 C1531 1.388 . S
C1531 H1518 0.930 . S
C1531 C1530 1.388 . S
C1531 C1532 1.390 . S
C1532 C1531 1.390 . S
C1532 C1533 1.394 . S
C1532 C1538 1.465 . S
C1533 C1528 1.399 . S
C1533 C1532 1.394 . S
C1533 C1534 1.516 . S
C1534 C1533 1.516 . S
C1534 C1535 1.502 . S
C1534 C1536 1.561 . S
C1534 C1537 1.526 . S
C1535 H1519 0.959 . S
C1535 H1520 0.959 . S
C1535 H1521 0.961 . S
C1535 C1534 1.502 . S
C1536 H1522 0.960 . S
C1536 H1523 0.961 . S
C1536 H1524 0.959 . S
C1536 C1534 1.561 . S
C1537 C1534 1.526 . S
C1537 C1538 1.396 . S
C1537 C1542 1.390 . S
C1538 C1532 1.465 . S
C1538 C1537 1.396 . S
C1538 C1539 1.399 . S
C1539 H1525 0.929 . S
C1539 C1538 1.399 . S
C1539 C1540 1.385 . S
C1540 H1526 0.931 . S
C1540 C1539 1.385 . S
C1540 C1541 1.389 . S
C1541 C1540 1.389 . S
C1541 C1542 1.387 . S
C1542 H1527 0.930 . S
C1542 C1537 1.390 . S
C1542 C1541 1.387 . S
H1543 C1555 0.930 . S
H1544 C1557 0.930 . S
H1545 C1558 0.930 . S
H1546 C1562 0.959 . S
H1547 C1562 0.959 . S
H1548 C1562 0.961 . S
H1549 C1563 0.960 . S
H1550 C1563 0.961 . S
H1551 C1563 0.959 . S
H1552 C1566 0.929 . S
H1553 C1567 0.931 . S
H1554 C1569 0.930 . S
C1555 H1543 0.930 . S
C1555 C1556 1.399 . S
C1555 C1560 1.399 . S
C1556 C1555 1.399 . S
C1556 C1557 1.376 . S
C1557 H1544 0.930 . S
C1557 C1556 1.376 . S
C1557 C1558 1.388 . S
C1558 H1545 0.930 . S
C1558 C1557 1.388 . S
C1558 C1559 1.390 . S
C1559 C1558 1.390 . S
C1559 C1560 1.394 . S
C1559 C1565 1.465 . S
C1560 C1555 1.399 . S
C1560 C1559 1.394 . S
C1560 C1561 1.516 . S
C1561 C1560 1.516 . S
C1561 C1562 1.502 . S
C1561 C1563 1.561 . S
C1561 C1564 1.526 . S
C1562 H1546 0.959 . S
C1562 H1547 0.959 . S
C1562 H1548 0.961 . S
C1562 C1561 1.502 . S
C1563 H1549 0.960 . S
C1563 H1550 0.961 . S
C1563 H1551 0.959 . S
C1563 C1561 1.561 . S
C1564 C1561 1.526 . S
C1564 C1565 1.396 . S
C1564 C1569 1.390 . S
C1565 C1559 1.465 . S
C1565 C1564 1.396 . S
C1565 C1566 1.399 . S
C1566 H1552 0.929 . S
C1566 C1565 1.399 . S
C1566 C1567 1.385 . S
C1567 H1553 0.931 . S
C1567 C1566 1.385 . S
C1567 C1568 1.389 . S
C1568 C1567 1.389 . S
C1568 C1569 1.387 . S
C1569 H1554 0.930 . S
C1569 C1564 1.390 . S
C1569 C1568 1.387 . S
H1570 C1582 0.930 . S
H1571 C1584 0.930 . S
H1572 C1585 0.930 . S
H1573 C1589 0.959 . S
H1574 C1589 0.959 . S
H1575 C1589 0.961 . S
H1576 C1590 0.960 . S
H1577 C1590 0.961 . S
H1578 C1590 0.959 . S
H1579 C1593 0.929 . S
H1580 C1594 0.931 . S
H1581 C1596 0.930 . S
C1582 H1570 0.930 . S
C1582 C1583 1.399 . S
C1582 C1587 1.399 . S
C1583 C1582 1.399 . S
C1583 C1584 1.376 . S
C1584 H1571 0.930 . S
C1584 C1583 1.376 . S
C1584 C1585 1.388 . S
C1585 H1572 0.930 . S
C1585 C1584 1.388 . S
C1585 C1586 1.390 . S
C1586 C1585 1.390 . S
C1586 C1587 1.394 . S
C1586 C1592 1.465 . S
C1587 C1582 1.399 . S
C1587 C1586 1.394 . S
C1587 C1588 1.516 . S
C1588 C1587 1.516 . S
C1588 C1589 1.502 . S
C1588 C1590 1.561 . S
C1588 C1591 1.526 . S
C1589 H1573 0.959 . S
C1589 H1574 0.959 . S
C1589 H1575 0.961 . S
C1589 C1588 1.502 . S
C1590 H1576 0.960 . S
C1590 H1577 0.961 . S
C1590 H1578 0.959 . S
C1590 C1588 1.561 . S
C1591 C1588 1.526 . S
C1591 C1592 1.396 . S
C1591 C1596 1.390 . S
C1592 C1586 1.465 . S
C1592 C1591 1.396 . S
C1592 C1593 1.399 . S
C1593 H1579 0.929 . S
C1593 C1592 1.399 . S
C1593 C1594 1.385 . S
C1594 H1580 0.931 . S
C1594 C1593 1.385 . S
C1594 C1595 1.389 . S
C1595 C1594 1.389 . S
C1595 C1596 1.387 . S
C1596 H1581 0.930 . S
C1596 C1591 1.390 . S
C1596 C1595 1.387 . S
H1597 C1609 0.930 . S
H1598 C1611 0.930 . S
H1599 C1612 0.930 . S
H1600 C1616 0.959 . S
H1601 C1616 0.959 . S
H1602 C1616 0.961 . S
H1603 C1617 0.960 . S
H1604 C1617 0.961 . S
H1605 C1617 0.959 . S
H1606 C1620 0.929 . S
H1607 C1621 0.931 . S
H1608 C1623 0.930 . S
C1609 H1597 0.930 . S
C1609 C1610 1.399 . S
C1609 C1614 1.399 . S
C1610 C1609 1.399 . S
C1610 C1611 1.376 . S
C1611 H1598 0.930 . S
C1611 C1610 1.376 . S
C1611 C1612 1.388 . S
C1612 H1599 0.930 . S
C1612 C1611 1.388 . S
C1612 C1613 1.390 . S
C1613 C1612 1.390 . S
C1613 C1614 1.394 . S
C1613 C1619 1.465 . S
C1614 C1609 1.399 . S
C1614 C1613 1.394 . S
C1614 C1615 1.516 . S
C1615 C1614 1.516 . S
C1615 C1616 1.502 . S
C1615 C1617 1.561 . S
C1615 C1618 1.526 . S
C1616 H1600 0.959 . S
C1616 H1601 0.959 . S
C1616 H1602 0.961 . S
C1616 C1615 1.502 . S
C1617 H1603 0.960 . S
C1617 H1604 0.961 . S
C1617 H1605 0.959 . S
C1617 C1615 1.561 . S
C1618 C1615 1.526 . S
C1618 C1619 1.396 . S
C1618 C1623 1.390 . S
C1619 C1613 1.465 . S
C1619 C1618 1.396 . S
C1619 C1620 1.399 . S
C1620 H1606 0.929 . S
C1620 C1619 1.399 . S
C1620 C1621 1.385 . S
C1621 H1607 0.931 . S
C1621 C1620 1.385 . S
C1621 C1622 1.389 . S
C1622 C1621 1.389 . S
C1622 C1623 1.387 . S
C1623 H1608 0.930 . S
C1623 C1618 1.390 . S
C1623 C1622 1.387 . S
H1624 C1636 0.930 . S
H1625 C1638 0.930 . S
H1626 C1639 0.930 . S
H1627 C1643 0.959 . S
H1628 C1643 0.959 . S
H1629 C1643 0.961 . S
H1630 C1644 0.961 . S
H1631 C1644 0.961 1_655 S
H1632 C1644 0.959 . S
H1633 C1647 0.929 . S
H1634 C1648 0.931 . S
H1635 C1650 0.930 . S
C1636 H1624 0.930 . S
C1636 C1637 1.399 . S
C1636 C1641 1.399 . S
C1637 C1636 1.399 . S
C1637 C1638 1.376 . S
C1638 H1625 0.930 . S
C1638 C1637 1.376 . S
C1638 C1639 1.388 . S
C1639 H1626 0.930 . S
C1639 C1638 1.388 . S
C1639 C1640 1.390 . S
C1640 C1639 1.390 . S
C1640 C1641 1.394 . S
C1640 C1646 1.465 . S
C1641 C1636 1.399 . S
C1641 C1640 1.394 . S
C1641 C1642 1.516 . S
C1642 C1641 1.516 . S
C1642 C1643 1.502 . S
C1642 C1644 1.561 . S
C1642 C1645 1.526 . S
C1643 H1627 0.959 . S
C1643 H1628 0.959 . S
C1643 H1629 0.961 . S
C1643 C1642 1.502 . S
C1644 H1630 0.961 . S
C1644 H1631 0.961 1_455 S
C1644 H1632 0.959 . S
C1644 C1642 1.561 . S
C1645 C1642 1.526 . S
C1645 C1646 1.396 . S
C1645 C1650 1.390 . S
C1646 C1640 1.465 . S
C1646 C1645 1.396 . S
C1646 C1647 1.399 . S
C1647 H1633 0.929 . S
C1647 C1646 1.399 . S
C1647 C1648 1.385 . S
C1648 H1634 0.931 . S
C1648 C1647 1.385 . S
C1648 C1649 1.389 . S
C1649 C1648 1.389 . S
C1649 C1650 1.387 . S
C1650 H1635 0.930 . S
C1650 C1645 1.390 . S
C1650 C1649 1.387 . S
H1651 C1663 0.930 . S
H1652 C1665 0.930 . S
H1653 C1666 0.930 . S
H1654 C1670 0.959 . S
H1655 C1670 0.959 . S
H1656 C1670 0.961 . S
H1657 C1671 0.960 . S
H1658 C1671 0.961 . S
H1659 C1671 0.959 . S
H1660 C1674 0.929 . S
H1661 C1675 0.931 . S
H1662 C1677 0.930 . S
C1663 H1651 0.930 . S
C1663 C1664 1.399 . S
C1663 C1668 1.399 . S
C1664 C1663 1.399 . S
C1664 C1665 1.376 . S
C1665 H1652 0.930 . S
C1665 C1664 1.376 . S
C1665 C1666 1.388 . S
C1666 H1653 0.930 . S
C1666 C1665 1.388 . S
C1666 C1667 1.390 . S
C1667 C1666 1.390 . S
C1667 C1668 1.394 . S
C1667 C1673 1.465 . S
C1668 C1663 1.399 . S
C1668 C1667 1.394 . S
C1668 C1669 1.516 . S
C1669 C1668 1.516 . S
C1669 C1670 1.502 . S
C1669 C1671 1.561 . S
C1669 C1672 1.526 . S
C1670 H1654 0.959 . S
C1670 H1655 0.959 . S
C1670 H1656 0.961 . S
C1670 C1669 1.502 . S
C1671 H1657 0.960 . S
C1671 H1658 0.961 . S
C1671 H1659 0.959 . S
C1671 C1669 1.561 . S
C1672 C1669 1.526 . S
C1672 C1673 1.396 . S
C1672 C1677 1.390 . S
C1673 C1667 1.465 . S
C1673 C1672 1.396 . S
C1673 C1674 1.399 . S
C1674 H1660 0.929 . S
C1674 C1673 1.399 . S
C1674 C1675 1.385 . S
C1675 H1661 0.931 . S
C1675 C1674 1.385 . S
C1675 C1676 1.389 . S
C1676 C1675 1.389 . S
C1676 C1677 1.387 . S
C1677 H1662 0.930 . S
C1677 C1672 1.390 . S
C1677 C1676 1.387 . S
H1678 C1690 0.930 . S
H1679 C1692 0.930 . S
H1680 C1693 0.930 . S
H1681 C1697 0.959 . S
H1682 C1697 0.959 . S
H1683 C1697 0.961 . S
H1684 C1698 0.960 . S
H1685 C1698 0.961 . S
H1686 C1698 0.959 . S
H1687 C1701 0.929 . S
H1688 C1702 0.931 . S
H1689 C1704 0.930 . S
C1690 H1678 0.930 . S
C1690 C1691 1.399 . S
C1690 C1695 1.399 . S
C1691 C1690 1.399 . S
C1691 C1692 1.376 . S
C1692 H1679 0.930 . S
C1692 C1691 1.376 . S
C1692 C1693 1.388 . S
C1693 H1680 0.930 . S
C1693 C1692 1.388 . S
C1693 C1694 1.390 . S
C1694 C1693 1.390 . S
C1694 C1695 1.394 . S
C1694 C1700 1.465 . S
C1695 C1690 1.399 . S
C1695 C1694 1.394 . S
C1695 C1696 1.516 . S
C1696 C1695 1.516 . S
C1696 C1697 1.502 . S
C1696 C1698 1.561 . S
C1696 C1699 1.526 . S
C1697 H1681 0.959 . S
C1697 H1682 0.959 . S
C1697 H1683 0.961 . S
C1697 C1696 1.502 . S
C1698 H1684 0.960 . S
C1698 H1685 0.961 . S
C1698 H1686 0.959 . S
C1698 C1696 1.561 . S
C1699 C1696 1.526 . S
C1699 C1700 1.396 . S
C1699 C1704 1.390 . S
C1700 C1694 1.465 . S
C1700 C1699 1.396 . S
C1700 C1701 1.399 . S
C1701 H1687 0.929 . S
C1701 C1700 1.399 . S
C1701 C1702 1.385 . S
C1702 H1688 0.931 . S
C1702 C1701 1.385 . S
C1702 C1703 1.389 . S
C1703 C1702 1.389 . S
C1703 C1704 1.387 . S
C1704 H1689 0.930 . S
C1704 C1699 1.390 . S
C1704 C1703 1.387 . S
H1705 C1717 0.930 . S
H1706 C1719 0.930 . S
H1707 C1720 0.930 . S
H1708 C1724 0.959 . S
H1709 C1724 0.959 . S
H1710 C1724 0.961 . S
H1711 C1725 0.960 . S
H1712 C1725 0.961 . S
H1713 C1725 0.959 . S
H1714 C1728 0.929 . S
H1715 C1729 0.931 . S
H1716 C1731 0.930 . S
C1717 H1705 0.930 . S
C1717 C1718 1.399 . S
C1717 C1722 1.399 . S
C1718 C1717 1.399 . S
C1718 C1719 1.376 . S
C1719 H1706 0.930 . S
C1719 C1718 1.376 . S
C1719 C1720 1.388 . S
C1720 H1707 0.930 . S
C1720 C1719 1.388 . S
C1720 C1721 1.390 . S
C1721 C1720 1.390 . S
C1721 C1722 1.394 . S
C1721 C1727 1.465 . S
C1722 C1717 1.399 . S
C1722 C1721 1.394 . S
C1722 C1723 1.516 . S
C1723 C1722 1.516 . S
C1723 C1724 1.502 . S
C1723 C1725 1.561 . S
C1723 C1726 1.526 . S
C1724 H1708 0.959 . S
C1724 H1709 0.959 . S
C1724 H1710 0.961 . S
C1724 C1723 1.502 . S
C1725 H1711 0.960 . S
C1725 H1712 0.961 . S
C1725 H1713 0.959 . S
C1725 C1723 1.561 . S
C1726 C1723 1.526 . S
C1726 C1727 1.396 . S
C1726 C1731 1.390 . S
C1727 C1721 1.465 . S
C1727 C1726 1.396 . S
C1727 C1728 1.399 . S
C1728 H1714 0.929 . S
C1728 C1727 1.399 . S
C1728 C1729 1.385 . S
C1729 H1715 0.931 . S
C1729 C1728 1.385 . S
C1729 C1730 1.389 . S
C1730 C1729 1.389 . S
C1730 C1731 1.387 . S
C1731 H1716 0.930 . S
C1731 C1726 1.390 . S
C1731 C1730 1.387 . S
H1732 C1744 0.930 . S
H1733 C1746 0.930 . S
H1734 C1747 0.930 . S
H1735 C1751 0.959 . S
H1736 C1751 0.959 . S
H1737 C1751 0.961 . S
H1738 C1752 0.960 . S
H1739 C1752 0.961 . S
H1740 C1752 0.959 . S
H1741 C1755 0.929 . S
H1742 C1756 0.931 . S
H1743 C1758 0.930 1_655 S
C1744 H1732 0.930 . S
C1744 C1745 1.399 . S
C1744 C1749 1.399 . S
C1745 C1744 1.399 . S
C1745 C1746 1.376 . S
C1746 H1733 0.930 . S
C1746 C1745 1.376 . S
C1746 C1747 1.388 . S
C1747 H1734 0.930 . S
C1747 C1746 1.388 . S
C1747 C1748 1.390 . S
C1748 C1747 1.390 . S
C1748 C1749 1.394 . S
C1748 C1754 1.465 . S
C1749 C1744 1.399 . S
C1749 C1748 1.394 . S
C1749 C1750 1.516 . S
C1750 C1749 1.516 . S
C1750 C1751 1.502 1_455 S
C1750 C1752 1.561 . S
C1750 C1753 1.526 . S
C1751 H1735 0.959 . S
C1751 H1736 0.959 . S
C1751 H1737 0.961 . S
C1751 C1750 1.502 1_655 S
C1752 H1738 0.960 . S
C1752 H1739 0.961 . S
C1752 H1740 0.959 . S
C1752 C1750 1.561 . S
C1753 C1750 1.526 . S
C1753 C1754 1.396 . S
C1753 C1758 1.390 . S
C1754 C1748 1.465 . S
C1754 C1753 1.396 . S
C1754 C1755 1.399 . S
C1755 H1741 0.929 . S
C1755 C1754 1.399 . S
C1755 C1756 1.385 . S
C1756 H1742 0.931 . S
C1756 C1755 1.385 . S
C1756 C1757 1.389 . S
C1757 C1756 1.389 . S
C1757 C1758 1.387 . S
C1758 H1743 0.930 1_455 S
C1758 C1753 1.390 . S
C1758 C1757 1.387 . S
H1759 C1771 0.930 . S
H1760 C1773 0.930 . S
H1761 C1774 0.930 . S
H1762 C1778 0.959 . S
H1763 C1778 0.959 . S
H1764 C1778 0.961 . S
H1765 C1779 0.960 . S
H1766 C1779 0.961 . S
H1767 C1779 0.959 . S
H1768 C1782 0.929 . S
H1769 C1783 0.931 . S
H1770 C1785 0.930 . S
C1771 H1759 0.930 . S
C1771 C1772 1.399 . S
C1771 C1776 1.399 . S
C1772 C1771 1.399 . S
C1772 C1773 1.376 . S
C1773 H1760 0.930 . S
C1773 C1772 1.376 . S
C1773 C1774 1.388 . S
C1774 H1761 0.930 . S
C1774 C1773 1.388 . S
C1774 C1775 1.390 . S
C1775 C1774 1.390 . S
C1775 C1776 1.394 . S
C1775 C1781 1.465 . S
C1776 C1771 1.399 . S
C1776 C1775 1.394 . S
C1776 C1777 1.516 . S
C1777 C1776 1.516 . S
C1777 C1778 1.502 . S
C1777 C1779 1.561 . S
C1777 C1780 1.526 . S
C1778 H1762 0.959 . S
C1778 H1763 0.959 . S
C1778 H1764 0.961 . S
C1778 C1777 1.502 . S
C1779 H1765 0.960 . S
C1779 H1766 0.961 . S
C1779 H1767 0.959 . S
C1779 C1777 1.561 . S
C1780 C1777 1.526 . S
C1780 C1781 1.396 . S
C1780 C1785 1.390 . S
C1781 C1775 1.465 . S
C1781 C1780 1.396 . S
C1781 C1782 1.399 . S
C1782 H1768 0.929 . S
C1782 C1781 1.399 . S
C1782 C1783 1.385 . S
C1783 H1769 0.931 . S
C1783 C1782 1.385 . S
C1783 C1784 1.389 . S
C1784 C1783 1.389 . S
C1784 C1785 1.387 . S
C1785 H1770 0.930 . S
C1785 C1780 1.390 . S
C1785 C1784 1.387 . S
H1786 C1798 0.930 . S
H1787 C1800 0.930 . S
H1788 C1801 0.930 . S
H1789 C1805 0.959 . S
H1790 C1805 0.959 . S
H1791 C1805 0.961 . S
H1792 C1806 0.960 . S
H1793 C1806 0.961 1_554 S
H1794 C1806 0.959 . S
H1795 C1809 0.929 . S
H1796 C1810 0.931 1_545 S
H1797 C1812 0.930 1_554 S
C1798 H1786 0.930 . S
C1798 C1799 1.399 . S
C1798 C1803 1.399 . S
C1799 C1798 1.399 . S
C1799 C1800 1.376 . S
C1800 H1787 0.930 . S
C1800 C1799 1.376 . S
C1800 C1801 1.388 . S
C1801 H1788 0.930 . S
C1801 C1800 1.388 . S
C1801 C1802 1.390 . S
C1802 C1801 1.390 . S
C1802 C1803 1.394 . S
C1802 C1808 1.465 . S
C1803 C1798 1.399 . S
C1803 C1802 1.394 . S
C1803 C1804 1.516 . S
C1804 C1803 1.516 . S
C1804 C1805 1.502 . S
C1804 C1806 1.561 . S
C1804 C1807 1.526 . S
C1805 H1789 0.959 . S
C1805 H1790 0.959 . S
C1805 H1791 0.961 . S
C1805 C1804 1.502 . S
C1806 H1792 0.960 . S
C1806 H1793 0.961 1_556 S
C1806 H1794 0.959 . S
C1806 C1804 1.561 . S
C1807 C1804 1.526 . S
C1807 C1808 1.396 . S
C1807 C1812 1.390 . S
C1808 C1802 1.465 . S
C1808 C1807 1.396 . S
C1808 C1809 1.399 . S
C1809 H1795 0.929 . S
C1809 C1808 1.399 . S
C1809 C1810 1.385 . S
C1810 H1796 0.931 1_565 S
C1810 C1809 1.385 . S
C1810 C1811 1.389 . S
C1811 C1810 1.389 . S
C1811 C1812 1.387 . S
C1812 H1797 0.930 1_556 S
C1812 C1807 1.390 . S
C1812 C1811 1.387 . S
H1813 C1825 0.930 . S
H1814 C1827 0.930 . S
H1815 C1828 0.930 . S
H1816 C1832 0.959 . S
H1817 C1832 0.959 . S
H1818 C1832 0.961 . S
H1819 C1833 0.960 . S
H1820 C1833 0.961 . S
H1821 C1833 0.959 . S
H1822 C1836 0.929 . S
H1823 C1837 0.931 . S
H1824 C1839 0.930 . S
C1825 H1813 0.930 . S
C1825 C1826 1.399 . S
C1825 C1830 1.399 . S
C1826 C1825 1.399 . S
C1826 C1827 1.376 . S
C1827 H1814 0.930 . S
C1827 C1826 1.376 . S
C1827 C1828 1.388 . S
C1828 H1815 0.930 . S
C1828 C1827 1.388 . S
C1828 C1829 1.390 . S
C1829 C1828 1.390 . S
C1829 C1830 1.394 . S
C1829 C1835 1.465 . S
C1830 C1825 1.399 . S
C1830 C1829 1.394 . S
C1830 C1831 1.516 . S
C1831 C1830 1.516 . S
C1831 C1832 1.502 . S
C1831 C1833 1.561 . S
C1831 C1834 1.526 . S
C1832 H1816 0.959 . S
C1832 H1817 0.959 . S
C1832 H1818 0.961 . S
C1832 C1831 1.502 . S
C1833 H1819 0.960 . S
C1833 H1820 0.961 . S
C1833 H1821 0.959 . S
C1833 C1831 1.561 . S
C1834 C1831 1.526 . S
C1834 C1835 1.396 . S
C1834 C1839 1.390 . S
C1835 C1829 1.465 . S
C1835 C1834 1.396 . S
C1835 C1836 1.399 . S
C1836 H1822 0.929 . S
C1836 C1835 1.399 . S
C1836 C1837 1.385 . S
C1837 H1823 0.931 . S
C1837 C1836 1.385 . S
C1837 C1838 1.389 . S
C1838 C1837 1.389 . S
C1838 C1839 1.387 . S
C1839 H1824 0.930 . S
C1839 C1834 1.390 . S
C1839 C1838 1.387 . S
H1840 C1852 0.930 . S
H1841 C1854 0.930 . S
H1842 C1855 0.938 . S
H1843 C1859 0.959 . S
H1844 C1859 0.959 . S
H1845 C1859 0.961 . S
H1846 C1860 0.960 . S
H1847 C1860 0.961 . S
H1848 C1860 0.959 . S
H1849 C1863 0.929 1_565 S
H1850 C1864 0.931 1_565 S
H1851 C1866 0.930 . S
C1852 H1840 0.930 . S
C1852 C1853 1.399 . S
C1852 C1857 1.399 . S
C1853 C1852 1.399 . S
C1853 C1854 1.376 . S
C1854 H1841 0.930 . S
C1854 C1853 1.376 . S
C1854 C1855 1.388 . S
C1855 H1842 0.938 . S
C1855 C1854 1.388 . S
C1855 C1856 1.390 . S
C1856 C1855 1.390 . S
C1856 C1857 1.394 . S
C1856 C1862 1.465 . S
C1857 C1852 1.399 . S
C1857 C1856 1.394 . S
C1857 C1858 1.516 . S
C1858 C1857 1.516 . S
C1858 C1859 1.502 . S
C1858 C1860 1.561 . S
C1858 C1861 1.526 . S
C1859 H1843 0.959 . S
C1859 H1844 0.959 . S
C1859 H1845 0.961 . S
C1859 C1858 1.502 . S
C1860 H1846 0.960 . S
C1860 H1847 0.961 . S
C1860 H1848 0.959 . S
C1860 C1858 1.561 . S
C1861 C1858 1.526 . S
C1861 C1862 1.396 . S
C1861 C1866 1.390 . S
C1862 C1856 1.465 . S
C1862 C1861 1.396 . S
C1862 C1863 1.399 . S
C1863 H1849 0.929 1_545 S
C1863 C1862 1.399 . S
C1863 C1864 1.385 . S
C1864 H1850 0.931 1_545 S
C1864 C1863 1.385 . S
C1864 C1865 1.389 . S
C1865 C1864 1.389 . S
C1865 C1866 1.387 . S
C1866 H1851 0.930 . S
C1866 C1861 1.390 . S
C1866 C1865 1.387 . S
H1867 C1879 0.930 . S
H1868 C1881 0.930 . S
H1869 C1882 0.930 . S
H1870 C1886 0.959 . S
H1871 C1886 0.959 . S
H1872 C1886 0.961 . S
H1873 C1887 0.960 . S
H1874 C1887 0.961 . S
H1875 C1887 0.959 . S
H1876 C1890 0.929 . S
H1877 C1891 0.931 . S
H1878 C1893 0.930 . S
C1879 H1867 0.930 . S
C1879 C1880 1.399 . S
C1879 C1884 1.399 . S
C1880 C1879 1.399 . S
C1880 C1881 1.376 . S
C1881 H1868 0.930 . S
C1881 C1880 1.376 . S
C1881 C1882 1.388 . S
C1882 H1869 0.930 . S
C1882 C1881 1.388 . S
C1882 C1883 1.390 . S
C1883 C1882 1.390 . S
C1883 C1884 1.394 . S
C1883 C1889 1.465 . S
C1884 C1879 1.399 . S
C1884 C1883 1.394 . S
C1884 C1885 1.516 . S
C1885 C1884 1.516 . S
C1885 C1886 1.502 . S
C1885 C1887 1.561 . S
C1885 C1888 1.526 . S
C1886 H1870 0.959 . S
C1886 H1871 0.959 . S
C1886 H1872 0.961 . S
C1886 C1885 1.502 . S
C1887 H1873 0.960 . S
C1887 H1874 0.961 . S
C1887 H1875 0.959 . S
C1887 C1885 1.561 . S
C1888 C1885 1.526 . S
C1888 C1889 1.396 . S
C1888 C1893 1.390 . S
C1889 C1883 1.465 . S
C1889 C1888 1.396 . S
C1889 C1890 1.399 . S
C1890 H1876 0.929 . S
C1890 C1889 1.399 . S
C1890 C1891 1.385 . S
C1891 H1877 0.931 . S
C1891 C1890 1.385 . S
C1891 C1892 1.389 . S
C1892 C1891 1.389 . S
C1892 C1893 1.387 . S
C1893 H1878 0.930 . S
C1893 C1888 1.390 . S
C1893 C1892 1.387 . S
H1894 C1906 0.930 . S
H1895 C1908 0.930 . S
H1896 C1909 0.930 . S
H1897 C1913 0.959 . S
H1898 C1913 0.959 . S
H1899 C1913 0.961 . S
H1900 C1914 0.960 . S
H1901 C1914 0.961 . S
H1902 C1914 0.959 . S
H1903 C1917 0.910 1_565 S
H1904 C1918 0.931 . S
H1905 C1920 0.930 . S
C1906 H1894 0.930 . S
C1906 C1907 1.399 . S
C1906 C1911 1.399 . S
C1907 C1906 1.399 . S
C1907 C1908 1.376 1_545 S
C1908 H1895 0.930 . S
C1908 C1907 1.376 1_565 S
C1908 C1909 1.388 . S
C1909 H1896 0.930 . S
C1909 C1908 1.388 . S
C1909 C1910 1.390 1_565 S
C1910 C1909 1.390 1_545 S
C1910 C1911 1.394 . S
C1910 C1916 1.465 . S
C1911 C1906 1.399 . S
C1911 C1910 1.394 . S
C1911 C1912 1.516 . S
C1912 C1911 1.516 . S
C1912 C1913 1.502 . S
C1912 C1914 1.561 . S
C1912 C1915 1.526 . S
C1913 H1897 0.959 . S
C1913 H1898 0.959 . S
C1913 H1899 0.961 . S
C1913 C1912 1.502 . S
C1914 H1900 0.960 . S
C1914 H1901 0.961 . S
C1914 H1902 0.959 . S
C1914 C1912 1.561 . S
C1915 C1912 1.526 . S
C1915 C1916 1.396 . S
C1915 C1920 1.390 . S
C1916 C1910 1.465 . S
C1916 C1915 1.396 . S
C1916 C1917 1.417 . S
C1917 H1903 0.910 1_545 S
C1917 C1916 1.417 . S
C1917 C1918 1.387 . S
C1918 H1904 0.931 . S
C1918 C1917 1.387 . S
C1918 C1919 1.389 . S
C1919 C1918 1.389 . S
C1919 C1920 1.387 . S
C1920 H1905 0.930 . S
C1920 C1915 1.390 . S
C1920 C1919 1.387 . S
H1921 C1933 0.930 . S
H1922 C1935 0.930 . S
H1923 C1936 0.930 . S
H1924 C1940 0.959 . S
H1925 C1940 0.959 . S
H1926 C1940 0.961 . S
H1927 C1941 0.960 . S
H1928 C1941 0.961 . S
H1929 C1941 0.959 . S
H1930 C1944 0.929 . S
H1931 C1945 0.931 . S
H1932 C1947 0.930 . S
C1933 H1921 0.930 . S
C1933 C1934 1.399 . S
C1933 C1938 1.399 . S
C1934 C1933 1.399 . S
C1934 C1935 1.376 . S
C1935 H1922 0.930 . S
C1935 C1934 1.376 . S
C1935 C1936 1.388 . S
C1936 H1923 0.930 . S
C1936 C1935 1.388 . S
C1936 C1937 1.390 . S
C1937 C1936 1.390 . S
C1937 C1938 1.394 . S
C1937 C1943 1.465 . S
C1938 C1933 1.399 . S
C1938 C1937 1.394 . S
C1938 C1939 1.516 . S
C1939 C1938 1.516 . S
C1939 C1940 1.502 . S
C1939 C1941 1.561 . S
C1939 C1942 1.526 . S
C1940 H1924 0.959 . S
C1940 H1925 0.959 . S
C1940 H1926 0.961 . S
C1940 C1939 1.502 . S
C1941 H1927 0.960 . S
C1941 H1928 0.961 . S
C1941 H1929 0.959 . S
C1941 C1939 1.561 . S
C1942 C1939 1.526 . S
C1942 C1943 1.396 . S
C1942 C1947 1.390 . S
C1943 C1937 1.465 . S
C1943 C1942 1.396 . S
C1943 C1944 1.399 . S
C1944 H1930 0.929 . S
C1944 C1943 1.399 . S
C1944 C1945 1.385 . S
C1945 H1931 0.931 . S
C1945 C1944 1.385 . S
C1945 C1946 1.389 . S
C1946 C1945 1.389 . S
C1946 C1947 1.387 . S
C1947 H1932 0.930 . S
C1947 C1942 1.390 . S
C1947 C1946 1.387 . S
H1948 C1960 0.930 . S
H1949 C1962 0.930 . S
H1950 C1963 0.966 . S
H1951 C1967 0.959 . S
H1952 C1967 0.959 . S
H1953 C1967 0.961 . S
H1954 C1968 0.960 . S
H1955 C1968 0.961 . S
H1956 C1968 0.959 . S
H1957 C1971 0.929 . S
H1958 C1972 0.931 . S
H1959 C1974 0.930 . S
C1960 H1948 0.930 . S
C1960 C1961 1.399 . S
C1960 C1965 1.399 . S
C1961 C1960 1.399 . S
C1961 C1962 1.376 . S
C1962 H1949 0.930 . S
C1962 C1961 1.376 . S
C1962 C1963 1.388 . S
C1963 H1950 0.966 . S
C1963 C1962 1.388 . S
C1963 C1964 1.390 . S
C1964 C1963 1.390 . S
C1964 C1965 1.394 . S
C1964 C1970 1.465 . S
C1965 C1960 1.399 . S
C1965 C1964 1.394 . S
C1965 C1966 1.516 . S
C1966 C1965 1.516 . S
C1966 C1967 1.502 . S
C1966 C1968 1.561 . S
C1966 C1969 1.526 . S
C1967 H1951 0.959 . S
C1967 H1952 0.959 . S
C1967 H1953 0.961 . S
C1967 C1966 1.502 . S
C1968 H1954 0.960 . S
C1968 H1955 0.961 . S
C1968 H1956 0.959 . S
C1968 C1966 1.561 . S
C1969 C1966 1.526 . S
C1969 C1970 1.396 . S
C1969 C1974 1.390 . S
C1970 C1964 1.465 . S
C1970 C1969 1.396 . S
C1970 C1971 1.399 . S
C1971 H1957 0.929 . S
C1971 C1970 1.399 . S
C1971 C1972 1.385 . S
C1972 H1958 0.931 . S
C1972 C1971 1.385 . S
C1972 C1973 1.389 . S
C1973 C1972 1.389 . S
C1973 C1974 1.387 . S
C1974 H1959 0.930 . S
C1974 C1969 1.390 . S
C1974 C1973 1.387 . S
H1975 C1987 0.930 . S
H1976 C1989 0.930 . S
H1977 C1990 0.930 . S
H1978 C1994 0.959 . S
H1979 C1994 0.959 . S
H1980 C1994 0.961 . S
H1981 C1995 0.960 . S
H1982 C1995 0.961 . S
H1983 C1995 0.959 . S
H1984 C1998 0.929 . S
H1985 C1999 0.931 . S
H1986 C2001 0.930 . S
C1987 H1975 0.930 . S
C1987 C1988 1.399 . S
C1987 C1992 1.399 . S
C1988 C1987 1.399 . S
C1988 C1989 1.376 . S
C1989 H1976 0.930 . S
C1989 C1988 1.376 . S
C1989 C1990 1.388 . S
C1990 H1977 0.930 . S
C1990 C1989 1.388 . S
C1990 C1991 1.390 . S
C1991 C1990 1.390 . S
C1991 C1992 1.394 . S
C1991 C1997 1.465 . S
C1992 C1987 1.399 . S
C1992 C1991 1.394 . S
C1992 C1993 1.516 . S
C1993 C1992 1.516 . S
C1993 C1994 1.502 . S
C1993 C1995 1.561 . S
C1993 C1996 1.526 . S
C1994 H1978 0.959 . S
C1994 H1979 0.959 . S
C1994 H1980 0.961 . S
C1994 C1993 1.502 . S
C1995 H1981 0.960 . S
C1995 H1982 0.961 . S
C1995 H1983 0.959 . S
C1995 C1993 1.561 . S
C1996 C1993 1.526 . S
C1996 C1997 1.396 . S
C1996 C2001 1.390 . S
C1997 C1991 1.465 . S
C1997 C1996 1.396 . S
C1997 C1998 1.399 . S
C1998 H1984 0.929 . S
C1998 C1997 1.399 . S
C1998 C1999 1.385 . S
C1999 H1985 0.931 . S
C1999 C1998 1.385 . S
C1999 C2000 1.389 . S
C2000 C1999 1.389 . S
C2000 C2001 1.387 . S
C2001 H1986 0.930 . S
C2001 C1996 1.390 . S
C2001 C2000 1.387 . S
H2002 C2014 0.929 1_565 S
H2003 C2016 0.930 . S
H2004 C2017 0.930 . S
H2005 C2021 0.959 . S
H2006 C2021 0.959 . S
H2007 C2021 0.961 . S
H2008 C2022 0.960 . S
H2009 C2022 0.961 . S
H2010 C2022 0.959 . S
H2011 C2025 0.920 . S
H2012 C2026 0.931 . S
H2013 C2028 0.930 . S
C2014 H2002 0.929 1_545 S
C2014 C2015 1.399 . S
C2014 C2019 1.396 1_545 S
C2015 C2014 1.399 . S
C2015 C2016 1.376 . S
C2016 H2003 0.930 . S
C2016 C2015 1.376 . S
C2016 C2017 1.388 . S
C2017 H2004 0.930 . S
C2017 C2016 1.388 . S
C2017 C2018 1.386 . S
C2018 C2017 1.386 . S
C2018 C2019 1.409 1_545 S
C2018 C2024 1.462 1_545 S
C2019 C2014 1.396 1_565 S
C2019 C2018 1.409 1_565 S
C2019 C2020 1.513 . S
C2020 C2019 1.513 . S
C2020 C2021 1.502 . S
C2020 C2022 1.561 1_565 S
C2020 C2023 1.526 . S
C2021 H2005 0.959 . S
C2021 H2006 0.959 . S
C2021 H2007 0.961 . S
C2021 C2020 1.502 . S
C2022 H2008 0.960 . S
C2022 H2009 0.961 . S
C2022 H2010 0.959 . S
C2022 C2020 1.561 1_545 S
C2023 C2020 1.526 . S
C2023 C2024 1.396 . S
C2023 C2028 1.390 . S
C2024 C2018 1.462 1_565 S
C2024 C2023 1.396 . S
C2024 C2025 1.399 . S
C2025 H2011 0.920 . S
C2025 C2024 1.399 . S
C2025 C2026 1.385 . S
C2026 H2012 0.931 . S
C2026 C2025 1.385 . S
C2026 C2027 1.389 . S
C2027 C2026 1.389 . S
C2027 C2028 1.387 . S
C2028 H2013 0.930 . S
C2028 C2023 1.390 . S
C2028 C2027 1.387 . S
H2029 C2041 0.930 . S
H2030 C2043 0.930 . S
H2031 C2044 0.930 . S
H2032 C2048 0.959 . S
H2033 C2048 0.959 . S
H2034 C2048 0.961 . S
H2035 C2049 0.960 . S
H2036 C2049 0.961 . S
H2037 C2049 0.959 . S
H2038 C2052 0.929 . S
H2039 C2053 0.931 . S
H2040 C2055 0.930 . S
C2041 H2029 0.930 . S
C2041 C2042 1.399 . S
C2041 C2046 1.399 . S
C2042 C2041 1.399 . S
C2042 C2043 1.376 . S
C2043 H2030 0.930 . S
C2043 C2042 1.376 . S
C2043 C2044 1.388 . S
C2044 H2031 0.930 . S
C2044 C2043 1.388 . S
C2044 C2045 1.390 . S
C2045 C2044 1.390 . S
C2045 C2046 1.394 . S
C2045 C2051 1.465 . S
C2046 C2041 1.399 . S
C2046 C2045 1.394 . S
C2046 C2047 1.516 . S
C2047 C2046 1.516 . S
C2047 C2048 1.502 . S
C2047 C2049 1.561 . S
C2047 C2050 1.526 . S
C2048 H2032 0.959 . S
C2048 H2033 0.959 . S
C2048 H2034 0.961 . S
C2048 C2047 1.502 . S
C2049 H2035 0.960 . S
C2049 H2036 0.961 . S
C2049 H2037 0.959 . S
C2049 C2047 1.561 . S
C2050 C2047 1.526 . S
C2050 C2051 1.396 . S
C2050 C2055 1.390 . S
C2051 C2045 1.465 . S
C2051 C2050 1.396 . S
C2051 C2052 1.399 . S
C2052 H2038 0.929 . S
C2052 C2051 1.399 . S
C2052 C2053 1.385 . S
C2053 H2039 0.931 . S
C2053 C2052 1.385 . S
C2053 C2054 1.389 . S
C2054 C2053 1.389 . S
C2054 C2055 1.387 . S
C2055 H2040 0.930 . S
C2055 C2050 1.390 . S
C2055 C2054 1.387 . S
H2056 C2068 0.930 . S
H2057 C2070 0.930 . S
H2058 C2071 0.930 . S
H2059 C2075 0.959 . S
H2060 C2075 0.959 . S
H2061 C2075 0.961 . S
H2062 C2076 0.960 . S
H2063 C2076 0.961 . S
H2064 C2076 0.959 . S
H2065 C2079 0.929 . S
H2066 C2080 0.931 . S
H2067 C2082 0.930 1_556 S
C2068 H2056 0.930 . S
C2068 C2069 1.399 . S
C2068 C2073 1.399 . S
C2069 C2068 1.399 . S
C2069 C2070 1.376 . S
C2070 H2057 0.930 . S
C2070 C2069 1.376 . S
C2070 C2071 1.388 . S
C2071 H2058 0.930 . S
C2071 C2070 1.388 . S
C2071 C2072 1.390 . S
C2072 C2071 1.390 . S
C2072 C2073 1.394 . S
C2072 C2078 1.465 . S
C2073 C2068 1.399 . S
C2073 C2072 1.394 . S
C2073 C2074 1.516 . S
C2074 C2073 1.516 . S
C2074 C2075 1.502 1_554 S
C2074 C2076 1.561 . S
C2074 C2077 1.526 . S
C2075 H2059 0.959 . S
C2075 H2060 0.959 . S
C2075 H2061 0.961 . S
C2075 C2074 1.502 1_556 S
C2076 H2062 0.960 . S
C2076 H2063 0.961 . S
C2076 H2064 0.959 . S
C2076 C2074 1.561 . S
C2077 C2074 1.526 . S
C2077 C2078 1.396 . S
C2077 C2082 1.390 . S
C2078 C2072 1.465 . S
C2078 C2077 1.396 . S
C2078 C2079 1.399 . S
C2079 H2065 0.929 . S
C2079 C2078 1.399 . S
C2079 C2080 1.385 . S
C2080 H2066 0.931 . S
C2080 C2079 1.385 . S
C2080 C2081 1.389 . S
C2081 C2080 1.389 . S
C2081 C2082 1.387 . S
C2082 H2067 0.930 1_554 S
C2082 C2077 1.390 . S
C2082 C2081 1.387 . S
H2083 C2095 0.930 . S
H2084 C2097 0.930 . S
H2085 C2098 0.930 . S
H2086 C2102 0.959 . S
H2087 C2102 0.959 . S
H2088 C2102 0.961 . S
H2089 C2103 0.960 . S
H2090 C2103 0.961 . S
H2091 C2103 0.959 . S
H2092 C2106 0.929 . S
H2093 C2107 0.931 . S
H2094 C2109 0.930 . S
C2095 H2083 0.930 . S
C2095 C2096 1.399 . S
C2095 C2100 1.399 . S
C2096 C2095 1.399 . S
C2096 C2097 1.376 . S
C2097 H2084 0.930 . S
C2097 C2096 1.376 . S
C2097 C2098 1.388 . S
C2098 H2085 0.930 . S
C2098 C2097 1.388 . S
C2098 C2099 1.390 . S
C2099 C2098 1.390 . S
C2099 C2100 1.394 . S
C2099 C2105 1.465 . S
C2100 C2095 1.399 . S
C2100 C2099 1.394 . S
C2100 C2101 1.516 . S
C2101 C2100 1.516 . S
C2101 C2102 1.502 . S
C2101 C2103 1.561 1_554 S
C2101 C2104 1.526 . S
C2102 H2086 0.959 . S
C2102 H2087 0.959 . S
C2102 H2088 0.961 . S
C2102 C2101 1.502 . S
C2103 H2089 0.960 . S
C2103 H2090 0.961 . S
C2103 H2091 0.959 . S
C2103 C2101 1.561 1_556 S
C2104 C2101 1.526 . S
C2104 C2105 1.396 . S
C2104 C2109 1.390 . S
C2105 C2099 1.465 . S
C2105 C2104 1.396 . S
C2105 C2106 1.399 . S
C2106 H2092 0.929 . S
C2106 C2105 1.399 . S
C2106 C2107 1.385 . S
C2107 H2093 0.931 . S
C2107 C2106 1.385 . S
C2107 C2108 1.389 . S
C2108 C2107 1.389 . S
C2108 C2109 1.387 . S
C2109 H2094 0.930 . S
C2109 C2104 1.390 . S
C2109 C2108 1.387 . S
H2110 C2122 0.930 . S
H2111 C2124 0.930 . S
H2112 C2125 0.930 . S
H2113 C2129 0.959 . S
H2114 C2129 0.959 . S
H2115 C2129 0.961 . S
H2116 C2130 0.960 . S
H2117 C2130 0.961 . S
H2118 C2130 0.959 . S
H2119 C2133 0.929 . S
H2120 C2134 0.931 . S
H2121 C2136 0.930 . S
C2122 H2110 0.930 . S
C2122 C2123 1.399 . S
C2122 C2127 1.399 . S
C2123 C2122 1.399 . S
C2123 C2124 1.376 . S
C2124 H2111 0.930 . S
C2124 C2123 1.376 . S
C2124 C2125 1.388 . S
C2125 H2112 0.930 . S
C2125 C2124 1.388 . S
C2125 C2126 1.390 . S
C2126 C2125 1.390 . S
C2126 C2127 1.394 . S
C2126 C2132 1.465 . S
C2127 C2122 1.399 . S
C2127 C2126 1.394 . S
C2127 C2128 1.516 . S
C2128 C2127 1.516 . S
C2128 C2129 1.502 . S
C2128 C2130 1.561 . S
C2128 C2131 1.526 . S
C2129 H2113 0.959 . S
C2129 H2114 0.959 . S
C2129 H2115 0.961 . S
C2129 C2128 1.502 . S
C2130 H2116 0.960 . S
C2130 H2117 0.961 . S
C2130 H2118 0.959 . S
C2130 C2128 1.561 . S
C2131 C2128 1.526 . S
C2131 C2132 1.396 . S
C2131 C2136 1.390 . S
C2132 C2126 1.465 . S
C2132 C2131 1.396 . S
C2132 C2133 1.399 . S
C2133 H2119 0.929 . S
C2133 C2132 1.399 . S
C2133 C2134 1.385 . S
C2134 H2120 0.931 . S
C2134 C2133 1.385 . S
C2134 C2135 1.389 . S
C2135 C2134 1.389 . S
C2135 C2136 1.387 . S
C2136 H2121 0.930 . S
C2136 C2131 1.390 . S
C2136 C2135 1.387 . S
H2137 C2149 0.930 . S
H2138 C2151 0.930 . S
H2139 C2152 0.930 . S
H2140 C2156 0.959 . S
H2141 C2156 0.959 . S
H2142 C2156 0.961 . S
H2143 C2157 0.960 . S
H2144 C2157 0.961 . S
H2145 C2157 0.959 . S
H2146 C2160 0.929 . S
H2147 C2161 0.931 . S
H2148 C2163 0.930 . S
C2149 H2137 0.930 . S
C2149 C2150 1.399 . S
C2149 C2154 1.399 . S
C2150 C2149 1.399 . S
C2150 C2151 1.376 . S
C2151 H2138 0.930 . S
C2151 C2150 1.376 . S
C2151 C2152 1.388 . S
C2152 H2139 0.930 . S
C2152 C2151 1.388 . S
C2152 C2153 1.390 . S
C2153 C2152 1.390 . S
C2153 C2154 1.394 . S
C2153 C2159 1.465 . S
C2154 C2149 1.399 . S
C2154 C2153 1.394 . S
C2154 C2155 1.516 . S
C2155 C2154 1.516 . S
C2155 C2156 1.502 . S
C2155 C2157 1.561 . S
C2155 C2158 1.526 . S
C2156 H2140 0.959 . S
C2156 H2141 0.959 . S
C2156 H2142 0.961 . S
C2156 C2155 1.502 . S
C2157 H2143 0.960 . S
C2157 H2144 0.961 . S
C2157 H2145 0.959 . S
C2157 C2155 1.561 . S
C2158 C2155 1.526 . S
C2158 C2159 1.396 . S
C2158 C2163 1.390 . S
C2159 C2153 1.465 . S
C2159 C2158 1.396 . S
C2159 C2160 1.399 . S
C2160 H2146 0.929 . S
C2160 C2159 1.399 . S
C2160 C2161 1.385 . S
C2161 H2147 0.931 . S
C2161 C2160 1.385 . S
C2161 C2162 1.389 . S
C2162 C2161 1.389 . S
C2162 C2163 1.387 . S
C2163 H2148 0.930 . S
C2163 C2158 1.390 . S
C2163 C2162 1.387 . S
H2164 C2176 0.930 . S
H2165 C2178 0.930 . S
H2166 C2179 0.930 . S
H2167 C2183 0.959 . S
H2168 C2183 0.959 . S
H2169 C2183 0.961 . S
H2170 C2184 0.960 . S
H2171 C2184 0.961 . S
H2172 C2184 0.959 1_565 S
H2173 C2187 0.929 . S
H2174 C2188 0.931 . S
H2175 C2190 0.930 . S
C2176 H2164 0.930 . S
C2176 C2177 1.399 . S
C2176 C2181 1.399 . S
C2177 C2176 1.399 . S
C2177 C2178 1.376 . S
C2178 H2165 0.930 . S
C2178 C2177 1.376 . S
C2178 C2179 1.388 1_545 S
C2179 H2166 0.930 . S
C2179 C2178 1.388 1_565 S
C2179 C2180 1.390 . S
C2180 C2179 1.390 . S
C2180 C2181 1.394 1_565 S
C2180 C2186 1.465 . S
C2181 C2176 1.399 . S
C2181 C2180 1.394 1_545 S
C2181 C2182 1.516 . S
C2182 C2181 1.516 . S
C2182 C2183 1.502 . S
C2182 C2184 1.561 . S
C2182 C2185 1.526 1_545 S
C2183 H2167 0.959 . S
C2183 H2168 0.959 . S
C2183 H2169 0.961 . S
C2183 C2182 1.502 . S
C2184 H2170 0.960 . S
C2184 H2171 0.961 . S
C2184 H2172 0.959 1_545 S
C2184 C2182 1.561 . S
C2185 C2182 1.526 1_565 S
C2185 C2186 1.396 . S
C2185 C2190 1.390 . S
C2186 C2180 1.465 . S
C2186 C2185 1.396 . S
C2186 C2187 1.399 . S
C2187 H2173 0.929 . S
C2187 C2186 1.399 . S
C2187 C2188 1.385 . S
C2188 H2174 0.931 . S
C2188 C2187 1.385 . S
C2188 C2189 1.389 . S
C2189 C2188 1.389 . S
C2189 C2190 1.387 . S
C2190 H2175 0.930 . S
C2190 C2185 1.390 . S
C2190 C2189 1.387 . S
H2191 C2203 0.930 . S
H2192 C2205 0.930 . S
H2193 C2206 0.930 . S
H2194 C2210 0.959 . S
H2195 C2210 0.959 . S
H2196 C2210 0.961 . S
H2197 C2211 0.960 . S
H2198 C2211 0.961 . S
H2199 C2211 0.959 . S
H2200 C2214 0.929 . S
H2201 C2215 0.931 . S
H2202 C2217 0.930 . S
C2203 H2191 0.930 . S
C2203 C2204 1.399 . S
C2203 C2208 1.399 . S
C2204 C2203 1.399 . S
C2204 C2205 1.376 . S
C2205 H2192 0.930 . S
C2205 C2204 1.376 . S
C2205 C2206 1.388 . S
C2206 H2193 0.930 . S
C2206 C2205 1.388 . S
C2206 C2207 1.390 . S
C2207 C2206 1.390 . S
C2207 C2208 1.394 . S
C2207 C2213 1.465 . S
C2208 C2203 1.399 . S
C2208 C2207 1.394 . S
C2208 C2209 1.516 . S
C2209 C2208 1.516 . S
C2209 C2210 1.502 . S
C2209 C2211 1.561 . S
C2209 C2212 1.526 . S
C2210 H2194 0.959 . S
C2210 H2195 0.959 . S
C2210 H2196 0.961 . S
C2210 C2209 1.502 . S
C2211 H2197 0.960 . S
C2211 H2198 0.961 . S
C2211 H2199 0.959 . S
C2211 C2209 1.561 . S
C2212 C2209 1.526 . S
C2212 C2213 1.396 . S
C2212 C2217 1.390 . S
C2213 C2207 1.465 . S
C2213 C2212 1.396 . S
C2213 C2214 1.399 . S
C2214 H2200 0.929 . S
C2214 C2213 1.399 . S
C2214 C2215 1.385 . S
C2215 H2201 0.931 . S
C2215 C2214 1.385 . S
C2215 C2216 1.389 . S
C2216 C2215 1.389 . S
C2216 C2217 1.387 . S
C2217 H2202 0.930 . S
C2217 C2212 1.390 . S
C2217 C2216 1.387 . S
H2218 C2230 0.930 . S
H2219 C2232 0.930 . S
H2220 C2233 0.930 . S
H2221 C2237 0.959 . S
H2222 C2237 0.959 . S
H2223 C2237 0.961 . S
H2224 C2238 0.960 . S
H2225 C2238 0.961 . S
H2226 C2238 0.959 . S
H2227 C2241 0.929 . S
H2228 C2242 0.931 . S
H2229 C2244 0.930 . S
C2230 H2218 0.930 . S
C2230 C2231 1.399 . S
C2230 C2235 1.399 . S
C2231 C2230 1.399 . S
C2231 C2232 1.376 . S
C2232 H2219 0.930 . S
C2232 C2231 1.376 . S
C2232 C2233 1.388 . S
C2233 H2220 0.930 . S
C2233 C2232 1.388 . S
C2233 C2234 1.390 . S
C2234 C2233 1.390 . S
C2234 C2235 1.394 . S
C2234 C2240 1.465 . S
C2235 C2230 1.399 . S
C2235 C2234 1.394 . S
C2235 C2236 1.516 . S
C2236 C2235 1.516 . S
C2236 C2237 1.502 . S
C2236 C2238 1.561 . S
C2236 C2239 1.526 . S
C2237 H2221 0.959 . S
C2237 H2222 0.959 . S
C2237 H2223 0.961 . S
C2237 C2236 1.502 . S
C2238 H2224 0.960 . S
C2238 H2225 0.961 . S
C2238 H2226 0.959 . S
C2238 C2236 1.561 . S
C2239 C2236 1.526 . S
C2239 C2240 1.396 . S
C2239 C2244 1.390 . S
C2240 C2234 1.465 . S
C2240 C2239 1.396 . S
C2240 C2241 1.399 . S
C2241 H2227 0.929 . S
C2241 C2240 1.399 . S
C2241 C2242 1.385 . S
C2242 H2228 0.931 . S
C2242 C2241 1.385 . S
C2242 C2243 1.389 . S
C2243 C2242 1.389 . S
C2243 C2244 1.387 . S
C2244 H2229 0.930 . S
C2244 C2239 1.390 . S
C2244 C2243 1.387 . S
H2245 C2257 0.930 . S
H2246 C2259 0.930 . S
H2247 C2260 0.930 . S
H2248 C2264 0.959 . S
H2249 C2264 0.959 . S
H2250 C2264 0.961 . S
H2251 C2265 0.960 . S
H2252 C2265 0.961 . S
H2253 C2265 0.959 . S
H2254 C2268 0.929 . S
H2255 C2269 0.931 . S
H2256 C2271 0.930 . S
C2257 H2245 0.930 . S
C2257 C2258 1.399 . S
C2257 C2262 1.399 . S
C2258 C2257 1.399 . S
C2258 C2259 1.376 . S
C2259 H2246 0.930 . S
C2259 C2258 1.376 . S
C2259 C2260 1.388 . S
C2260 H2247 0.930 . S
C2260 C2259 1.388 . S
C2260 C2261 1.390 . S
C2261 C2260 1.390 . S
C2261 C2262 1.394 . S
C2261 C2267 1.465 . S
C2262 C2257 1.399 . S
C2262 C2261 1.394 . S
C2262 C2263 1.516 . S
C2263 C2262 1.516 . S
C2263 C2264 1.502 . S
C2263 C2265 1.561 . S
C2263 C2266 1.526 . S
C2264 H2248 0.959 . S
C2264 H2249 0.959 . S
C2264 H2250 0.961 . S
C2264 C2263 1.502 . S
C2265 H2251 0.960 . S
C2265 H2252 0.961 . S
C2265 H2253 0.959 . S
C2265 C2263 1.561 . S
C2266 C2263 1.526 . S
C2266 C2267 1.396 . S
C2266 C2271 1.390 . S
C2267 C2261 1.465 . S
C2267 C2266 1.396 . S
C2267 C2268 1.399 . S
C2268 H2254 0.929 . S
C2268 C2267 1.399 . S
C2268 C2269 1.385 . S
C2269 H2255 0.931 . S
C2269 C2268 1.385 . S
C2269 C2270 1.389 . S
C2270 C2269 1.389 . S
C2270 C2271 1.387 . S
C2271 H2256 0.930 . S
C2271 C2266 1.390 . S
C2271 C2270 1.387 . S
H2272 C2284 0.930 . S
H2273 C2286 0.930 . S
H2274 C2287 0.930 . S
H2275 C2291 0.959 . S
H2276 C2291 0.959 . S
H2277 C2291 0.961 . S
H2278 C2292 0.960 . S
H2279 C2292 0.961 . S
H2280 C2292 0.959 . S
H2281 C2295 0.929 . S
H2282 C2296 0.931 . S
H2283 C2298 0.930 . S
C2284 H2272 0.930 . S
C2284 C2285 1.399 . S
C2284 C2289 1.399 . S
C2285 C2284 1.399 . S
C2285 C2286 1.376 . S
C2286 H2273 0.930 . S
C2286 C2285 1.376 . S
C2286 C2287 1.388 . S
C2287 H2274 0.930 . S
C2287 C2286 1.388 . S
C2287 C2288 1.390 . S
C2288 C2287 1.390 . S
C2288 C2289 1.394 . S
C2288 C2294 1.465 . S
C2289 C2284 1.399 . S
C2289 C2288 1.394 . S
C2289 C2290 1.516 . S
C2290 C2289 1.516 . S
C2290 C2291 1.502 . S
C2290 C2292 1.561 . S
C2290 C2293 1.526 . S
C2291 H2275 0.959 . S
C2291 H2276 0.959 . S
C2291 H2277 0.961 . S
C2291 C2290 1.502 . S
C2292 H2278 0.960 . S
C2292 H2279 0.961 . S
C2292 H2280 0.959 . S
C2292 C2290 1.561 . S
C2293 C2290 1.526 . S
C2293 C2294 1.396 . S
C2293 C2298 1.390 . S
C2294 C2288 1.465 . S
C2294 C2293 1.396 . S
C2294 C2295 1.399 . S
C2295 H2281 0.929 . S
C2295 C2294 1.399 . S
C2295 C2296 1.385 . S
C2296 H2282 0.931 . S
C2296 C2295 1.385 . S
C2296 C2297 1.389 . S
C2297 C2296 1.389 . S
C2297 C2298 1.387 . S
C2298 H2283 0.930 . S
C2298 C2293 1.390 . S
C2298 C2297 1.387 . S
H2299 C2311 0.930 . S
H2300 C2313 0.930 . S
H2301 C2314 0.930 . S
H2302 C2318 0.959 . S
H2303 C2318 0.959 . S
H2304 C2318 0.961 . S
H2305 C2319 0.960 . S
H2306 C2319 0.961 . S
H2307 C2319 0.959 . S
H2308 C2322 0.929 . S
H2309 C2323 0.931 . S
H2310 C2325 0.930 . S
C2311 H2299 0.930 . S
C2311 C2312 1.399 . S
C2311 C2316 1.399 . S
C2312 C2311 1.399 . S
C2312 C2313 1.376 . S
C2313 H2300 0.930 . S
C2313 C2312 1.376 . S
C2313 C2314 1.388 . S
C2314 H2301 0.930 . S
C2314 C2313 1.388 . S
C2314 C2315 1.390 . S
C2315 C2314 1.390 . S
C2315 C2316 1.394 . S
C2315 C2321 1.465 . S
C2316 C2311 1.399 . S
C2316 C2315 1.394 . S
C2316 C2317 1.516 . S
C2317 C2316 1.516 . S
C2317 C2318 1.502 . S
C2317 C2319 1.561 . S
C2317 C2320 1.526 . S
C2318 H2302 0.959 . S
C2318 H2303 0.959 . S
C2318 H2304 0.961 . S
C2318 C2317 1.502 . S
C2319 H2305 0.960 . S
C2319 H2306 0.961 . S
C2319 H2307 0.959 . S
C2319 C2317 1.561 . S
C2320 C2317 1.526 . S
C2320 C2321 1.396 . S
C2320 C2325 1.390 . S
C2321 C2315 1.465 . S
C2321 C2320 1.396 . S
C2321 C2322 1.399 . S
C2322 H2308 0.929 . S
C2322 C2321 1.399 . S
C2322 C2323 1.385 . S
C2323 H2309 0.931 . S
C2323 C2322 1.385 . S
C2323 C2324 1.389 . S
C2324 C2323 1.389 . S
C2324 C2325 1.387 . S
C2325 H2310 0.930 . S
C2325 C2320 1.390 . S
C2325 C2324 1.387 . S
H2326 C2338 0.930 . S
H2327 C2340 0.930 . S
H2328 C2341 0.930 . S
H2329 C2345 0.959 . S
H2330 C2345 0.959 . S
H2331 C2345 0.961 . S
H2332 C2346 0.964 . S
H2333 C2346 0.957 1_554 S
H2334 C2346 0.982 . S
H2335 C2349 0.923 1_556 S
H2336 C2350 0.931 . S
H2337 C2352 0.930 . S
C2338 H2326 0.930 . S
C2338 C2339 1.399 1_554 S
C2338 C2343 1.399 . S
C2339 C2338 1.399 1_556 S
C2339 C2340 1.376 1_455 S
C2340 H2327 0.930 . S
C2340 C2339 1.376 1_655 S
C2340 C2341 1.388 . S
C2341 H2328 0.930 . S
C2341 C2340 1.388 . S
C2341 C2342 1.390 1_556 S
C2342 C2341 1.390 1_554 S
C2342 C2343 1.394 1_655 S
C2342 C2348 1.465 1_655 S
C2343 C2338 1.399 . S
C2343 C2342 1.394 1_455 S
C2343 C2344 1.516 . S
C2344 C2343 1.516 . S
C2344 C2345 1.502 . S
C2344 C2346 1.539 1_554 S
C2344 C2347 1.526 . S
C2345 H2329 0.959 . S
C2345 H2330 0.959 . S
C2345 H2331 0.961 . S
C2345 C2344 1.502 . S
C2346 H2332 0.964 . S
C2346 H2333 0.957 1_556 S
C2346 H2334 0.982 . S
C2346 C2344 1.539 1_556 S
C2347 C2344 1.526 . S
C2347 C2348 1.396 . S
C2347 C2352 1.390 . S
C2348 C2342 1.465 1_455 S
C2348 C2347 1.396 . S
C2348 C2349 1.399 1_455 S
C2349 H2335 0.923 1_554 S
C2349 C2348 1.399 1_655 S
C2349 C2350 1.385 . S
C2350 H2336 0.931 . S
C2350 C2349 1.385 . S
C2350 C2351 1.389 1_655 S
C2351 C2350 1.389 1_455 S
C2351 C2352 1.387 . S
C2352 H2337 0.930 . S
C2352 C2347 1.390 . S
C2352 C2351 1.387 . S
H2353 C2365 0.930 . S
H2354 C2367 0.926 1_455 S
H2355 C2368 0.930 . S
H2356 C2372 0.959 . S
H2357 C2372 0.959 . S
H2358 C2372 0.961 . S
H2359 C2373 0.960 . S
H2360 C2373 0.961 . S
H2361 C2373 0.959 . S
H2362 C2376 0.929 . S
H2363 C2377 0.931 . S
H2364 C2379 0.930 . S
C2365 H2353 0.930 . S
C2365 C2366 1.399 1_655 S
C2365 C2370 1.399 . S
C2366 C2365 1.399 1_455 S
C2366 C2367 1.377 1_455 S
C2367 H2354 0.926 1_655 S
C2367 C2366 1.377 1_655 S
C2367 C2368 1.392 . S
C2368 H2355 0.930 . S
C2368 C2367 1.392 . S
C2368 C2369 1.390 . S
C2369 C2368 1.390 . S
C2369 C2370 1.394 . S
C2369 C2375 1.465 . S
C2370 C2365 1.399 . S
C2370 C2369 1.394 . S
C2370 C2371 1.516 . S
C2371 C2370 1.516 . S
C2371 C2372 1.502 . S
C2371 C2373 1.561 . S
C2371 C2374 1.526 . S
C2372 H2356 0.959 . S
C2372 H2357 0.959 . S
C2372 H2358 0.961 . S
C2372 C2371 1.502 . S
C2373 H2359 0.960 . S
C2373 H2360 0.961 . S
C2373 H2361 0.959 . S
C2373 C2371 1.561 . S
C2374 C2371 1.526 . S
C2374 C2375 1.396 . S
C2374 C2379 1.390 . S
C2375 C2369 1.465 . S
C2375 C2374 1.396 . S
C2375 C2376 1.399 . S
C2376 H2362 0.929 . S
C2376 C2375 1.399 . S
C2376 C2377 1.385 . S
C2377 H2363 0.931 . S
C2377 C2376 1.385 . S
C2377 C2378 1.389 . S
C2378 C2377 1.389 . S
C2378 C2379 1.387 . S
C2379 H2364 0.930 . S
C2379 C2374 1.390 . S
C2379 C2378 1.387 . S
H2380 C2392 0.930 . S
H2381 C2394 0.930 . S
H2382 C2395 0.930 . S
H2383 C2399 0.959 . S
H2384 C2399 0.959 . S
H2385 C2399 0.961 . S
H2386 C2400 0.960 . S
H2387 C2400 0.961 . S
H2388 C2400 0.959 . S
H2389 C2403 0.929 . S
H2390 C2404 0.931 . S
H2391 C2406 0.930 . S
C2392 H2380 0.930 . S
C2392 C2393 1.399 . S
C2392 C2397 1.399 . S
C2393 C2392 1.399 . S
C2393 C2394 1.376 . S
C2394 H2381 0.930 . S
C2394 C2393 1.376 . S
C2394 C2395 1.388 . S
C2395 H2382 0.930 . S
C2395 C2394 1.388 . S
C2395 C2396 1.390 . S
C2396 C2395 1.390 . S
C2396 C2397 1.394 . S
C2396 C2402 1.465 . S
C2397 C2392 1.399 . S
C2397 C2396 1.394 . S
C2397 C2398 1.516 . S
C2398 C2397 1.516 . S
C2398 C2399 1.502 . S
C2398 C2400 1.561 . S
C2398 C2401 1.526 . S
C2399 H2383 0.959 . S
C2399 H2384 0.959 . S
C2399 H2385 0.961 . S
C2399 C2398 1.502 . S
C2400 H2386 0.960 . S
C2400 H2387 0.961 . S
C2400 H2388 0.959 . S
C2400 C2398 1.561 . S
C2401 C2398 1.526 . S
C2401 C2402 1.396 . S
C2401 C2406 1.390 . S
C2402 C2396 1.465 . S
C2402 C2401 1.396 . S
C2402 C2403 1.399 . S
C2403 H2389 0.929 . S
C2403 C2402 1.399 . S
C2403 C2404 1.385 . S
C2404 H2390 0.931 . S
C2404 C2403 1.385 . S
C2404 C2405 1.389 . S
C2405 C2404 1.389 . S
C2405 C2406 1.387 . S
C2406 H2391 0.930 . S
C2406 C2401 1.390 . S
C2406 C2405 1.387 . S
H2407 C2419 0.930 . S
H2408 C2421 0.930 . S
H2409 C2422 0.930 . S
H2410 C2426 0.959 . S
H2411 C2426 0.959 . S
H2412 C2426 0.961 . S
H2413 C2427 0.960 . S
H2414 C2427 0.961 . S
H2415 C2427 0.959 . S
H2416 C2430 0.929 . S
H2417 C2431 0.931 . S
H2418 C2433 0.930 . S
C2419 H2407 0.930 . S
C2419 C2420 1.399 . S
C2419 C2424 1.399 . S
C2420 C2419 1.399 . S
C2420 C2421 1.376 . S
C2421 H2408 0.930 . S
C2421 C2420 1.376 . S
C2421 C2422 1.388 . S
C2422 H2409 0.930 . S
C2422 C2421 1.388 . S
C2422 C2423 1.390 . S
C2423 C2422 1.390 . S
C2423 C2424 1.394 . S
C2423 C2429 1.465 . S
C2424 C2419 1.399 . S
C2424 C2423 1.394 . S
C2424 C2425 1.516 . S
C2425 C2424 1.516 . S
C2425 C2426 1.502 . S
C2425 C2427 1.561 . S
C2425 C2428 1.526 . S
C2426 H2410 0.959 . S
C2426 H2411 0.959 . S
C2426 H2412 0.961 . S
C2426 C2425 1.502 . S
C2427 H2413 0.960 . S
C2427 H2414 0.961 . S
C2427 H2415 0.959 . S
C2427 C2425 1.561 . S
C2428 C2425 1.526 . S
C2428 C2429 1.396 . S
C2428 C2433 1.390 . S
C2429 C2423 1.465 . S
C2429 C2428 1.396 . S
C2429 C2430 1.399 . S
C2430 H2416 0.929 . S
C2430 C2429 1.399 . S
C2430 C2431 1.385 . S
C2431 H2417 0.931 . S
C2431 C2430 1.385 . S
C2431 C2432 1.389 . S
C2432 C2431 1.389 . S
C2432 C2433 1.387 . S
C2433 H2418 0.930 . S
C2433 C2428 1.390 . S
C2433 C2432 1.387 . S
H2434 C2446 0.930 . S
H2435 C2448 0.930 1_655 S
H2436 C2449 0.914 1_655 S
H2437 C2453 0.959 . S
H2438 C2453 0.959 . S
H2439 C2453 0.961 . S
H2440 C2454 0.960 . S
H2441 C2454 0.961 . S
H2442 C2454 0.959 1_655 S
H2443 C2457 0.929 1_655 S
H2444 C2458 0.931 . S
H2445 C2460 0.930 . S
C2446 H2434 0.930 . S
C2446 C2447 1.399 . S
C2446 C2451 1.399 . S
C2447 C2446 1.399 . S
C2447 C2448 1.376 . S
C2448 H2435 0.930 1_455 S
C2448 C2447 1.376 . S
C2448 C2449 1.376 . S
C2449 H2436 0.914 1_455 S
C2449 C2448 1.376 . S
C2449 C2450 1.421 . S
C2450 C2449 1.421 . S
C2450 C2451 1.394 . S
C2450 C2456 1.465 . S
C2451 C2446 1.399 . S
C2451 C2450 1.394 . S
C2451 C2452 1.516 . S
C2452 C2451 1.516 . S
C2452 C2453 1.502 . S
C2452 C2454 1.561 . S
C2452 C2455 1.526 . S
C2453 H2437 0.959 . S
C2453 H2438 0.959 . S
C2453 H2439 0.961 . S
C2453 C2452 1.502 . S
C2454 H2440 0.960 . S
C2454 H2441 0.961 . S
C2454 H2442 0.959 1_455 S
C2454 C2452 1.561 . S
C2455 C2452 1.526 . S
C2455 C2456 1.396 . S
C2455 C2460 1.390 . S
C2456 C2450 1.465 . S
C2456 C2455 1.396 . S
C2456 C2457 1.399 . S
C2457 H2443 0.929 1_455 S
C2457 C2456 1.399 . S
C2457 C2458 1.385 . S
C2458 H2444 0.931 . S
C2458 C2457 1.385 . S
C2458 C2459 1.389 . S
C2459 C2458 1.389 . S
C2459 C2460 1.387 . S
C2460 H2445 0.930 . S
C2460 C2455 1.390 . S
C2460 C2459 1.387 . S
H2461 C2473 0.930 . S
H2462 C2475 0.930 . S
H2463 C2476 0.930 . S
H2464 C2480 0.959 . S
H2465 C2480 0.959 . S
H2466 C2480 0.961 . S
H2467 C2481 0.960 . S
H2468 C2481 0.961 . S
H2469 C2481 0.959 . S
H2470 C2484 0.929 . S
H2471 C2485 0.931 . S
H2472 C2487 0.930 . S
C2473 H2461 0.930 . S
C2473 C2474 1.399 . S
C2473 C2478 1.399 . S
C2474 C2473 1.399 . S
C2474 C2475 1.376 . S
C2475 H2462 0.930 . S
C2475 C2474 1.376 . S
C2475 C2476 1.388 . S
C2476 H2463 0.930 . S
C2476 C2475 1.388 . S
C2476 C2477 1.390 . S
C2477 C2476 1.390 . S
C2477 C2478 1.394 . S
C2477 C2483 1.465 . S
C2478 C2473 1.399 . S
C2478 C2477 1.394 . S
C2478 C2479 1.516 . S
C2479 C2478 1.516 . S
C2479 C2480 1.502 . S
C2479 C2481 1.561 . S
C2479 C2482 1.526 . S
C2480 H2464 0.959 . S
C2480 H2465 0.959 . S
C2480 H2466 0.961 . S
C2480 C2479 1.502 . S
C2481 H2467 0.960 . S
C2481 H2468 0.961 . S
C2481 H2469 0.959 . S
C2481 C2479 1.561 . S
C2482 C2479 1.526 . S
C2482 C2483 1.396 . S
C2482 C2487 1.390 . S
C2483 C2477 1.465 . S
C2483 C2482 1.396 . S
C2483 C2484 1.399 . S
C2484 H2470 0.929 . S
C2484 C2483 1.399 . S
C2484 C2485 1.385 . S
C2485 H2471 0.931 . S
C2485 C2484 1.385 . S
C2485 C2486 1.389 . S
C2486 C2485 1.389 . S
C2486 C2487 1.387 . S
C2487 H2472 0.930 . S
C2487 C2482 1.390 . S
C2487 C2486 1.387 . S
H2488 C2500 0.930 . S
H2489 C2502 0.930 . S
H2490 C2503 0.930 . S
H2491 C2507 0.959 . S
H2492 C2507 0.959 . S
H2493 C2507 0.961 . S
H2494 C2508 0.960 . S
H2495 C2508 0.961 . S
H2496 C2508 0.959 . S
H2497 C2511 0.929 . S
H2498 C2512 0.931 . S
H2499 C2514 0.930 . S
C2500 H2488 0.930 . S
C2500 C2501 1.399 . S
C2500 C2505 1.399 . S
C2501 C2500 1.399 . S
C2501 C2502 1.376 . S
C2502 H2489 0.930 . S
C2502 C2501 1.376 . S
C2502 C2503 1.388 . S
C2503 H2490 0.930 . S
C2503 C2502 1.388 . S
C2503 C2504 1.390 . S
C2504 C2503 1.390 . S
C2504 C2505 1.394 . S
C2504 C2510 1.465 . S
C2505 C2500 1.399 . S
C2505 C2504 1.394 . S
C2505 C2506 1.516 . S
C2506 C2505 1.516 . S
C2506 C2507 1.502 . S
C2506 C2508 1.561 . S
C2506 C2509 1.526 . S
C2507 H2491 0.959 . S
C2507 H2492 0.959 . S
C2507 H2493 0.961 . S
C2507 C2506 1.502 . S
C2508 H2494 0.960 . S
C2508 H2495 0.961 . S
C2508 H2496 0.959 . S
C2508 C2506 1.561 . S
C2509 C2506 1.526 . S
C2509 C2510 1.396 . S
C2509 C2514 1.390 . S
C2510 C2504 1.465 . S
C2510 C2509 1.396 . S
C2510 C2511 1.399 . S
C2511 H2497 0.929 . S
C2511 C2510 1.399 . S
C2511 C2512 1.385 . S
C2512 H2498 0.931 . S
C2512 C2511 1.385 . S
C2512 C2513 1.389 . S
C2513 C2512 1.389 . S
C2513 C2514 1.387 . S
C2514 H2499 0.930 . S
C2514 C2509 1.390 . S
C2514 C2513 1.387 . S
H2515 C2527 0.930 . S
H2516 C2529 0.930 . S
H2517 C2530 0.930 . S
H2518 C2534 0.959 . S
H2519 C2534 0.959 . S
H2520 C2534 0.934 1_554 S
H2521 C2535 0.960 . S
H2522 C2535 0.961 . S
H2523 C2535 0.959 . S
H2524 C2538 0.929 . S
H2525 C2539 0.931 . S
H2526 C2541 0.930 . S
C2527 H2515 0.930 . S
C2527 C2528 1.399 . S
C2527 C2532 1.357 1_554 S
C2528 C2527 1.399 . S
C2528 C2529 1.376 . S
C2529 H2516 0.930 . S
C2529 C2528 1.376 . S
C2529 C2530 1.388 1_554 S
C2530 H2517 0.930 . S
C2530 C2529 1.388 1_556 S
C2530 C2531 1.390 . S
C2531 C2530 1.390 . S
C2531 C2532 1.427 . S
C2531 C2537 1.465 . S
C2532 C2527 1.357 1_556 S
C2532 C2531 1.427 . S
C2532 C2533 1.532 . S
C2533 C2532 1.532 . S
C2533 C2534 1.502 . S
C2533 C2535 1.561 1_556 S
C2533 C2536 1.526 . S
C2534 H2518 0.959 . S
C2534 H2519 0.959 . S
C2534 H2520 0.934 1_556 S
C2534 C2533 1.502 . S
C2535 H2521 0.960 . S
C2535 H2522 0.961 . S
C2535 H2523 0.959 . S
C2535 C2533 1.561 1_554 S
C2536 C2533 1.526 . S
C2536 C2537 1.396 . S
C2536 C2541 1.390 . S
C2537 C2531 1.465 . S
C2537 C2536 1.396 . S
C2537 C2538 1.399 . S
C2538 H2524 0.929 . S
C2538 C2537 1.399 . S
C2538 C2539 1.385 . S
C2539 H2525 0.931 . S
C2539 C2538 1.385 . S
C2539 C2540 1.389 . S
C2540 C2539 1.389 . S
C2540 C2541 1.387 . S
C2541 H2526 0.930 . S
C2541 C2536 1.390 . S
C2541 C2540 1.387 . S
H2542 C2554 0.930 . S
H2543 C2556 0.930 . S
H2544 C2557 0.930 . S
H2545 C2561 0.959 . S
H2546 C2561 0.959 . S
H2547 C2561 0.961 . S
H2548 C2562 0.960 . S
H2549 C2562 0.961 . S
H2550 C2562 0.959 . S
H2551 C2565 0.929 . S
H2552 C2566 0.931 . S
H2553 C2568 0.930 . S
C2554 H2542 0.930 . S
C2554 C2555 1.399 . S
C2554 C2559 1.399 . S
C2555 C2554 1.399 . S
C2555 C2556 1.376 . S
C2556 H2543 0.930 . S
C2556 C2555 1.376 . S
C2556 C2557 1.388 . S
C2557 H2544 0.930 . S
C2557 C2556 1.388 . S
C2557 C2558 1.390 . S
C2558 C2557 1.390 . S
C2558 C2559 1.394 . S
C2558 C2564 1.465 . S
C2559 C2554 1.399 . S
C2559 C2558 1.394 . S
C2559 C2560 1.516 . S
C2560 C2559 1.516 . S
C2560 C2561 1.502 . S
C2560 C2562 1.561 . S
C2560 C2563 1.526 . S
C2561 H2545 0.959 . S
C2561 H2546 0.959 . S
C2561 H2547 0.961 . S
C2561 C2560 1.502 . S
C2562 H2548 0.960 . S
C2562 H2549 0.961 . S
C2562 H2550 0.959 . S
C2562 C2560 1.561 . S
C2563 C2560 1.526 . S
C2563 C2564 1.396 . S
C2563 C2568 1.390 . S
C2564 C2558 1.465 . S
C2564 C2563 1.396 . S
C2564 C2565 1.399 . S
C2565 H2551 0.929 . S
C2565 C2564 1.399 . S
C2565 C2566 1.385 . S
C2566 H2552 0.931 . S
C2566 C2565 1.385 . S
C2566 C2567 1.389 . S
C2567 C2566 1.389 . S
C2567 C2568 1.387 . S
C2568 H2553 0.930 . S
C2568 C2563 1.390 . S
C2568 C2567 1.387 . S
H2569 C2581 0.930 . S
H2570 C2583 0.930 . S
H2571 C2584 0.930 . S
H2572 C2588 0.959 . S
H2573 C2588 0.959 . S
H2574 C2588 0.961 . S
H2575 C2589 0.960 . S
H2576 C2589 0.961 . S
H2577 C2589 0.959 . S
H2578 C2592 0.929 . S
H2579 C2593 0.931 . S
H2580 C2595 0.930 . S
C2581 H2569 0.930 . S
C2581 C2582 1.399 . S
C2581 C2586 1.399 . S
C2582 C2581 1.399 . S
C2582 C2583 1.376 . S
C2583 H2570 0.930 . S
C2583 C2582 1.376 . S
C2583 C2584 1.388 . S
C2584 H2571 0.930 . S
C2584 C2583 1.388 . S
C2584 C2585 1.390 . S
C2585 C2584 1.390 . S
C2585 C2586 1.394 . S
C2585 C2591 1.465 . S
C2586 C2581 1.399 . S
C2586 C2585 1.394 . S
C2586 C2587 1.516 . S
C2587 C2586 1.516 . S
C2587 C2588 1.502 . S
C2587 C2589 1.561 . S
C2587 C2590 1.526 . S
C2588 H2572 0.959 . S
C2588 H2573 0.959 . S
C2588 H2574 0.961 . S
C2588 C2587 1.502 . S
C2589 H2575 0.960 . S
C2589 H2576 0.961 . S
C2589 H2577 0.959 . S
C2589 C2587 1.561 . S
C2590 C2587 1.526 . S
C2590 C2591 1.396 . S
C2590 C2595 1.390 . S
C2591 C2585 1.465 . S
C2591 C2590 1.396 . S
C2591 C2592 1.399 . S
C2592 H2578 0.929 . S
C2592 C2591 1.399 . S
C2592 C2593 1.385 . S
C2593 H2579 0.931 . S
C2593 C2592 1.385 . S
C2593 C2594 1.389 . S
C2594 C2593 1.389 . S
C2594 C2595 1.387 . S
C2595 H2580 0.930 . S
C2595 C2590 1.390 . S
C2595 C2594 1.387 . S
H2596 C2608 0.930 . S
H2597 C2610 0.930 . S
H2598 C2611 0.930 . S
H2599 C2615 0.959 . S
H2600 C2615 0.959 . S
H2601 C2615 0.961 . S
H2602 C2616 0.960 . S
H2603 C2616 0.961 . S
H2604 C2616 0.959 . S
H2605 C2619 0.929 . S
H2606 C2620 0.931 . S
H2607 C2622 0.930 . S
C2608 H2596 0.930 . S
C2608 C2609 1.399 . S
C2608 C2613 1.399 . S
C2609 C2608 1.399 . S
C2609 C2610 1.376 . S
C2610 H2597 0.930 . S
C2610 C2609 1.376 . S
C2610 C2611 1.388 . S
C2611 H2598 0.930 . S
C2611 C2610 1.388 . S
C2611 C2612 1.390 . S
C2612 C2611 1.390 . S
C2612 C2613 1.394 . S
C2612 C2618 1.465 . S
C2613 C2608 1.399 . S
C2613 C2612 1.394 . S
C2613 C2614 1.516 . S
C2614 C2613 1.516 . S
C2614 C2615 1.502 . S
C2614 C2616 1.561 . S
C2614 C2617 1.526 . S
C2615 H2599 0.959 . S
C2615 H2600 0.959 . S
C2615 H2601 0.961 . S
C2615 C2614 1.502 . S
C2616 H2602 0.960 . S
C2616 H2603 0.961 . S
C2616 H2604 0.959 . S
C2616 C2614 1.561 . S
C2617 C2614 1.526 . S
C2617 C2618 1.396 . S
C2617 C2622 1.390 . S
C2618 C2612 1.465 . S
C2618 C2617 1.396 . S
C2618 C2619 1.399 . S
C2619 H2605 0.929 . S
C2619 C2618 1.399 . S
C2619 C2620 1.385 . S
C2620 H2606 0.931 . S
C2620 C2619 1.385 . S
C2620 C2621 1.389 . S
C2621 C2620 1.389 . S
C2621 C2622 1.387 . S
C2622 H2607 0.930 . S
C2622 C2617 1.390 . S
C2622 C2621 1.387 . S
H2623 C2635 0.930 . S
H2624 C2637 0.930 . S
H2625 C2638 0.930 . S
H2626 C2642 0.959 . S
H2627 C2642 0.959 . S
H2628 C2642 0.961 . S
H2629 C2643 0.960 . S
H2630 C2643 0.961 . S
H2631 C2643 0.959 . S
H2632 C2646 0.929 . S
H2633 C2647 0.931 . S
H2634 C2649 0.930 . S
C2635 H2623 0.930 . S
C2635 C2636 1.399 . S
C2635 C2640 1.399 . S
C2636 C2635 1.399 . S
C2636 C2637 1.376 . S
C2637 H2624 0.930 . S
C2637 C2636 1.376 . S
C2637 C2638 1.388 . S
C2638 H2625 0.930 . S
C2638 C2637 1.388 . S
C2638 C2639 1.390 . S
C2639 C2638 1.390 . S
C2639 C2640 1.394 . S
C2639 C2645 1.465 . S
C2640 C2635 1.399 . S
C2640 C2639 1.394 . S
C2640 C2641 1.516 . S
C2641 C2640 1.516 . S
C2641 C2642 1.502 . S
C2641 C2643 1.561 . S
C2641 C2644 1.526 . S
C2642 H2626 0.959 . S
C2642 H2627 0.959 . S
C2642 H2628 0.961 . S
C2642 C2641 1.502 . S
C2643 H2629 0.960 . S
C2643 H2630 0.961 . S
C2643 H2631 0.959 . S
C2643 C2641 1.561 . S
C2644 C2641 1.526 . S
C2644 C2645 1.396 . S
C2644 C2649 1.390 . S
C2645 C2639 1.465 . S
C2645 C2644 1.396 . S
C2645 C2646 1.399 . S
C2646 H2632 0.929 . S
C2646 C2645 1.399 . S
C2646 C2647 1.385 . S
C2647 H2633 0.931 . S
C2647 C2646 1.385 . S
C2647 C2648 1.389 . S
C2648 C2647 1.389 . S
C2648 C2649 1.387 . S
C2649 H2634 0.930 . S
C2649 C2644 1.390 . S
C2649 C2648 1.387 . S
H2650 C2662 0.930 . S
H2651 C2664 0.930 . S
H2652 C2665 0.930 . S
H2653 C2669 0.959 . S
H2654 C2669 0.959 . S
H2655 C2669 0.961 . S
H2656 C2670 0.960 . S
H2657 C2670 0.961 . S
H2658 C2670 0.959 . S
H2659 C2673 0.929 . S
H2660 C2674 0.931 . S
H2661 C2676 0.930 . S
C2662 H2650 0.930 . S
C2662 C2663 1.399 . S
C2662 C2667 1.399 . S
C2663 C2662 1.399 . S
C2663 C2664 1.376 . S
C2664 H2651 0.930 . S
C2664 C2663 1.376 . S
C2664 C2665 1.388 . S
C2665 H2652 0.930 . S
C2665 C2664 1.388 . S
C2665 C2666 1.390 . S
C2666 C2665 1.390 . S
C2666 C2667 1.394 . S
C2666 C2672 1.465 . S
C2667 C2662 1.399 . S
C2667 C2666 1.394 . S
C2667 C2668 1.516 . S
C2668 C2667 1.516 . S
C2668 C2669 1.502 . S
C2668 C2670 1.561 . S
C2668 C2671 1.526 . S
C2669 H2653 0.959 . S
C2669 H2654 0.959 . S
C2669 H2655 0.961 . S
C2669 C2668 1.502 . S
C2670 H2656 0.960 . S
C2670 H2657 0.961 . S
C2670 H2658 0.959 . S
C2670 C2668 1.561 . S
C2671 C2668 1.526 . S
C2671 C2672 1.396 . S
C2671 C2676 1.390 . S
C2672 C2666 1.465 . S
C2672 C2671 1.396 . S
C2672 C2673 1.399 . S
C2673 H2659 0.929 . S
C2673 C2672 1.399 . S
C2673 C2674 1.385 . S
C2674 H2660 0.931 . S
C2674 C2673 1.385 . S
C2674 C2675 1.389 . S
C2675 C2674 1.389 . S
C2675 C2676 1.387 . S
C2676 H2661 0.930 . S
C2676 C2671 1.390 . S
C2676 C2675 1.387 . S
H2677 C2689 0.930 . S
H2678 C2691 0.930 . S
H2679 C2692 0.930 . S
H2680 C2696 0.959 . S
H2681 C2696 0.959 . S
H2682 C2696 0.961 . S
H2683 C2697 0.960 . S
H2684 C2697 0.961 . S
H2685 C2697 0.959 . S
H2686 C2700 0.929 . S
H2687 C2701 0.931 . S
H2688 C2703 0.930 . S
C2689 H2677 0.930 . S
C2689 C2690 1.399 . S
C2689 C2694 1.399 . S
C2690 C2689 1.399 . S
C2690 C2691 1.376 . S
C2691 H2678 0.930 . S
C2691 C2690 1.376 . S
C2691 C2692 1.388 . S
C2692 H2679 0.930 . S
C2692 C2691 1.388 . S
C2692 C2693 1.390 . S
C2693 C2692 1.390 . S
C2693 C2694 1.394 . S
C2693 C2699 1.465 . S
C2694 C2689 1.399 . S
C2694 C2693 1.394 . S
C2694 C2695 1.516 . S
C2695 C2694 1.516 . S
C2695 C2696 1.502 . S
C2695 C2697 1.561 . S
C2695 C2698 1.526 . S
C2696 H2680 0.959 . S
C2696 H2681 0.959 . S
C2696 H2682 0.961 . S
C2696 C2695 1.502 . S
C2697 H2683 0.960 . S
C2697 H2684 0.961 . S
C2697 H2685 0.959 . S
C2697 C2695 1.561 . S
C2698 C2695 1.526 . S
C2698 C2699 1.396 . S
C2698 C2703 1.390 . S
C2699 C2693 1.465 . S
C2699 C2698 1.396 . S
C2699 C2700 1.399 . S
C2700 H2686 0.929 . S
C2700 C2699 1.399 . S
C2700 C2701 1.385 . S
C2701 H2687 0.931 . S
C2701 C2700 1.385 . S
C2701 C2702 1.389 . S
C2702 C2701 1.389 . S
C2702 C2703 1.387 . S
C2703 H2688 0.930 . S
C2703 C2698 1.390 . S
C2703 C2702 1.387 . S
H2704 C2716 0.930 . S
H2705 C2718 0.930 . S
H2706 C2719 0.930 . S
H2707 C2723 0.959 . S
H2708 C2723 0.959 . S
H2709 C2723 0.961 . S
H2710 C2724 0.960 . S
H2711 C2724 0.961 . S
H2712 C2724 0.959 . S
H2713 C2727 0.929 . S
H2714 C2728 0.931 . S
H2715 C2730 0.930 . S
C2716 H2704 0.930 . S
C2716 C2717 1.399 . S
C2716 C2721 1.399 . S
C2717 C2716 1.399 . S
C2717 C2718 1.376 . S
C2718 H2705 0.930 . S
C2718 C2717 1.376 . S
C2718 C2719 1.388 . S
C2719 H2706 0.930 . S
C2719 C2718 1.388 . S
C2719 C2720 1.390 . S
C2720 C2719 1.390 . S
C2720 C2721 1.394 . S
C2720 C2726 1.465 . S
C2721 C2716 1.399 . S
C2721 C2720 1.394 . S
C2721 C2722 1.516 . S
C2722 C2721 1.516 . S
C2722 C2723 1.502 . S
C2722 C2724 1.561 . S
C2722 C2725 1.526 . S
C2723 H2707 0.959 . S
C2723 H2708 0.959 . S
C2723 H2709 0.961 . S
C2723 C2722 1.502 . S
C2724 H2710 0.960 . S
C2724 H2711 0.961 . S
C2724 H2712 0.959 . S
C2724 C2722 1.561 . S
C2725 C2722 1.526 . S
C2725 C2726 1.396 . S
C2725 C2730 1.390 . S
C2726 C2720 1.465 . S
C2726 C2725 1.396 . S
C2726 C2727 1.399 . S
C2727 H2713 0.929 . S
C2727 C2726 1.399 . S
C2727 C2728 1.385 . S
C2728 H2714 0.931 . S
C2728 C2727 1.385 . S
C2728 C2729 1.389 . S
C2729 C2728 1.389 . S
C2729 C2730 1.387 . S
C2730 H2715 0.930 . S
C2730 C2725 1.390 . S
C2730 C2729 1.387 . S
H2731 C2743 0.930 . S
H2732 C2745 0.930 . S
H2733 C2746 0.930 . S
H2734 C2750 0.959 . S
H2735 C2750 0.959 . S
H2736 C2750 0.961 . S
H2737 C2751 0.960 . S
H2738 C2751 0.961 . S
H2739 C2751 0.959 . S
H2740 C2754 0.929 . S
H2741 C2755 0.931 . S
H2742 C2757 0.930 . S
C2743 H2731 0.930 . S
C2743 C2744 1.399 . S
C2743 C2748 1.399 . S
C2744 C2743 1.399 . S
C2744 C2745 1.376 . S
C2745 H2732 0.930 . S
C2745 C2744 1.376 . S
C2745 C2746 1.388 . S
C2746 H2733 0.930 . S
C2746 C2745 1.388 . S
C2746 C2747 1.390 . S
C2747 C2746 1.390 . S
C2747 C2748 1.394 . S
C2747 C2753 1.465 . S
C2748 C2743 1.399 . S
C2748 C2747 1.394 . S
C2748 C2749 1.516 . S
C2749 C2748 1.516 . S
C2749 C2750 1.502 . S
C2749 C2751 1.561 . S
C2749 C2752 1.526 . S
C2750 H2734 0.959 . S
C2750 H2735 0.959 . S
C2750 H2736 0.961 . S
C2750 C2749 1.502 . S
C2751 H2737 0.960 . S
C2751 H2738 0.961 . S
C2751 H2739 0.959 . S
C2751 C2749 1.561 . S
C2752 C2749 1.526 . S
C2752 C2753 1.396 . S
C2752 C2757 1.390 . S
C2753 C2747 1.465 . S
C2753 C2752 1.396 . S
C2753 C2754 1.399 . S
C2754 H2740 0.929 . S
C2754 C2753 1.399 . S
C2754 C2755 1.385 . S
C2755 H2741 0.931 . S
C2755 C2754 1.385 . S
C2755 C2756 1.389 . S
C2756 C2755 1.389 . S
C2756 C2757 1.387 . S
C2757 H2742 0.930 . S
C2757 C2752 1.390 . S
C2757 C2756 1.387 . S
H2758 C2770 0.930 . S
H2759 C2772 0.930 . S
H2760 C2773 0.930 . S
H2761 C2777 0.959 . S
H2762 C2777 0.959 . S
H2763 C2777 0.961 . S
H2764 C2778 0.960 . S
H2765 C2778 0.961 . S
H2766 C2778 0.959 . S
H2767 C2781 0.929 . S
H2768 C2782 0.931 . S
H2769 C2784 0.930 . S
C2770 H2758 0.930 . S
C2770 C2771 1.399 . S
C2770 C2775 1.399 . S
C2771 C2770 1.399 . S
C2771 C2772 1.376 . S
C2772 H2759 0.930 . S
C2772 C2771 1.376 . S
C2772 C2773 1.388 . S
C2773 H2760 0.930 . S
C2773 C2772 1.388 . S
C2773 C2774 1.390 . S
C2774 C2773 1.390 . S
C2774 C2775 1.394 . S
C2774 C2780 1.465 . S
C2775 C2770 1.399 . S
C2775 C2774 1.394 . S
C2775 C2776 1.516 . S
C2776 C2775 1.516 . S
C2776 C2777 1.502 . S
C2776 C2778 1.561 . S
C2776 C2779 1.526 . S
C2777 H2761 0.959 . S
C2777 H2762 0.959 . S
C2777 H2763 0.961 . S
C2777 C2776 1.502 . S
C2778 H2764 0.960 . S
C2778 H2765 0.961 . S
C2778 H2766 0.959 . S
C2778 C2776 1.561 . S
C2779 C2776 1.526 . S
C2779 C2780 1.396 . S
C2779 C2784 1.390 . S
C2780 C2774 1.465 . S
C2780 C2779 1.396 . S
C2780 C2781 1.399 . S
C2781 H2767 0.929 . S
C2781 C2780 1.399 . S
C2781 C2782 1.385 . S
C2782 H2768 0.931 . S
C2782 C2781 1.385 . S
C2782 C2783 1.389 . S
C2783 C2782 1.389 . S
C2783 C2784 1.387 . S
C2784 H2769 0.930 . S
C2784 C2779 1.390 . S
C2784 C2783 1.387 . S
H2785 C2797 0.930 . S
H2786 C2799 0.930 . S
H2787 C2800 0.930 . S
H2788 C2804 0.959 . S
H2789 C2804 0.959 . S
H2790 C2804 0.961 . S
H2791 C2805 0.960 . S
H2792 C2805 0.961 . S
H2793 C2805 0.995 . S
H2794 C2808 0.929 . S
H2795 C2809 0.931 . S
H2796 C2811 0.930 1_556 S
C2797 H2785 0.930 . S
C2797 C2798 1.399 1_556 S
C2797 C2802 1.399 . S
C2798 C2797 1.399 1_554 S
C2798 C2799 1.376 . S
C2799 H2786 0.930 . S
C2799 C2798 1.376 . S
C2799 C2800 1.388 . S
C2800 H2787 0.930 . S
C2800 C2799 1.388 . S
C2800 C2801 1.390 . S
C2801 C2800 1.390 . S
C2801 C2802 1.394 1_554 S
C2801 C2807 1.465 1_565 S
C2802 C2797 1.399 . S
C2802 C2801 1.394 1_556 S
C2802 C2803 1.516 . S
C2803 C2802 1.516 . S
C2803 C2804 1.502 . S
C2803 C2805 1.561 . S
C2803 C2806 1.526 1_556 S
C2804 H2788 0.959 . S
C2804 H2789 0.959 . S
C2804 H2790 0.961 . S
C2804 C2803 1.502 . S
C2805 H2791 0.960 . S
C2805 H2792 0.961 . S
C2805 H2793 0.995 . S
C2805 C2803 1.561 . S
C2806 C2803 1.526 1_554 S
C2806 C2807 1.396 1_565 S
C2806 C2811 1.390 1_565 S
C2807 C2801 1.465 1_545 S
C2807 C2806 1.396 1_545 S
C2807 C2808 1.399 . S
C2808 H2794 0.929 . S
C2808 C2807 1.399 . S
C2808 C2809 1.385 . S
C2809 H2795 0.931 . S
C2809 C2808 1.385 . S
C2809 C2810 1.389 . S
C2810 C2809 1.389 . S
C2810 C2811 1.387 . S
C2811 H2796 0.930 1_554 S
C2811 C2806 1.390 1_545 S
C2811 C2810 1.387 . S
H2812 C2824 0.930 . S
H2813 C2826 0.930 . S
H2814 C2827 0.930 . S
H2815 C2831 0.959 . S
H2816 C2831 0.959 . S
H2817 C2831 0.961 . S
H2818 C2832 0.960 . S
H2819 C2832 0.961 . S
H2820 C2832 0.959 . S
H2821 C2835 0.929 . S
H2822 C2836 0.931 . S
H2823 C2838 0.930 . S
C2824 H2812 0.930 . S
C2824 C2825 1.399 . S
C2824 C2829 1.399 . S
C2825 C2824 1.399 . S
C2825 C2826 1.376 . S
C2826 H2813 0.930 . S
C2826 C2825 1.376 . S
C2826 C2827 1.388 . S
C2827 H2814 0.930 . S
C2827 C2826 1.388 . S
C2827 C2828 1.390 . S
C2828 C2827 1.390 . S
C2828 C2829 1.394 . S
C2828 C2834 1.465 . S
C2829 C2824 1.399 . S
C2829 C2828 1.394 . S
C2829 C2830 1.516 . S
C2830 C2829 1.516 . S
C2830 C2831 1.502 . S
C2830 C2832 1.561 . S
C2830 C2833 1.526 . S
C2831 H2815 0.959 . S
C2831 H2816 0.959 . S
C2831 H2817 0.961 . S
C2831 C2830 1.502 . S
C2832 H2818 0.960 . S
C2832 H2819 0.961 . S
C2832 H2820 0.959 . S
C2832 C2830 1.561 . S
C2833 C2830 1.526 . S
C2833 C2834 1.396 . S
C2833 C2838 1.390 . S
C2834 C2828 1.465 . S
C2834 C2833 1.396 . S
C2834 C2835 1.399 . S
C2835 H2821 0.929 . S
C2835 C2834 1.399 . S
C2835 C2836 1.385 . S
C2836 H2822 0.931 . S
C2836 C2835 1.385 . S
C2836 C2837 1.389 . S
C2837 C2836 1.389 . S
C2837 C2838 1.387 . S
C2838 H2823 0.930 . S
C2838 C2833 1.390 . S
C2838 C2837 1.387 . S
H2839 C2851 0.930 . S
H2840 C2853 0.930 . S
H2841 C2854 0.930 . S
H2842 C2858 0.959 . S
H2843 C2858 0.959 . S
H2844 C2858 0.961 . S
H2845 C2859 0.960 . S
H2846 C2859 0.961 . S
H2847 C2859 0.959 1_554 S
H2848 C2862 0.929 . S
H2849 C2863 0.931 . S
H2850 C2865 0.930 . S
C2851 H2839 0.930 . S
C2851 C2852 1.399 . S
C2851 C2856 1.399 . S
C2852 C2851 1.399 . S
C2852 C2853 1.376 . S
C2853 H2840 0.930 . S
C2853 C2852 1.376 . S
C2853 C2854 1.388 . S
C2854 H2841 0.930 . S
C2854 C2853 1.388 . S
C2854 C2855 1.390 . S
C2855 C2854 1.390 . S
C2855 C2856 1.394 . S
C2855 C2861 1.465 . S
C2856 C2851 1.399 . S
C2856 C2855 1.394 . S
C2856 C2857 1.516 . S
C2857 C2856 1.516 . S
C2857 C2858 1.502 . S
C2857 C2859 1.561 1_554 S
C2857 C2860 1.526 . S
C2858 H2842 0.959 . S
C2858 H2843 0.959 . S
C2858 H2844 0.961 . S
C2858 C2857 1.502 . S
C2859 H2845 0.960 . S
C2859 H2846 0.961 . S
C2859 H2847 0.959 1_556 S
C2859 C2857 1.561 1_556 S
C2860 C2857 1.526 . S
C2860 C2861 1.396 . S
C2860 C2865 1.390 . S
C2861 C2855 1.465 . S
C2861 C2860 1.396 . S
C2861 C2862 1.399 . S
C2862 H2848 0.929 . S
C2862 C2861 1.399 . S
C2862 C2863 1.385 . S
C2863 H2849 0.931 . S
C2863 C2862 1.385 . S
C2863 C2864 1.389 . S
C2864 C2863 1.389 . S
C2864 C2865 1.387 . S
C2865 H2850 0.930 . S
C2865 C2860 1.390 . S
C2865 C2864 1.387 . S
H2866 C2878 0.930 . S
H2867 C2880 0.930 . S
H2868 C2881 0.930 . S
H2869 C2885 0.959 . S
H2870 C2885 0.959 . S
H2871 C2885 0.961 . S
H2872 C2886 0.960 . S
H2873 C2886 0.961 . S
H2874 C2886 0.959 . S
H2875 C2889 0.929 . S
H2876 C2890 0.931 . S
H2877 C2892 0.930 . S
C2878 H2866 0.930 . S
C2878 C2879 1.399 . S
C2878 C2883 1.399 . S
C2879 C2878 1.399 . S
C2879 C2880 1.376 . S
C2880 H2867 0.930 . S
C2880 C2879 1.376 . S
C2880 C2881 1.388 . S
C2881 H2868 0.930 . S
C2881 C2880 1.388 . S
C2881 C2882 1.390 . S
C2882 C2881 1.390 . S
C2882 C2883 1.394 . S
C2882 C2888 1.465 . S
C2883 C2878 1.399 . S
C2883 C2882 1.394 . S
C2883 C2884 1.516 . S
C2884 C2883 1.516 . S
C2884 C2885 1.502 . S
C2884 C2886 1.561 . S
C2884 C2887 1.526 . S
C2885 H2869 0.959 . S
C2885 H2870 0.959 . S
C2885 H2871 0.961 . S
C2885 C2884 1.502 . S
C2886 H2872 0.960 . S
C2886 H2873 0.961 . S
C2886 H2874 0.959 . S
C2886 C2884 1.561 . S
C2887 C2884 1.526 . S
C2887 C2888 1.396 . S
C2887 C2892 1.390 . S
C2888 C2882 1.465 . S
C2888 C2887 1.396 . S
C2888 C2889 1.399 . S
C2889 H2875 0.929 . S
C2889 C2888 1.399 . S
C2889 C2890 1.385 . S
C2890 H2876 0.931 . S
C2890 C2889 1.385 . S
C2890 C2891 1.389 . S
C2891 C2890 1.389 . S
C2891 C2892 1.387 . S
C2892 H2877 0.930 . S
C2892 C2887 1.390 . S
C2892 C2891 1.387 . S
H2893 C2905 0.930 . S
H2894 C2907 0.930 . S
H2895 C2908 0.930 . S
H2896 C2912 0.959 . S
H2897 C2912 0.959 . S
H2898 C2912 0.961 . S
H2899 C2913 0.960 . S
H2900 C2913 0.961 . S
H2901 C2913 0.959 . S
H2902 C2916 0.929 . S
H2903 C2917 0.931 . S
H2904 C2919 0.930 . S
C2905 H2893 0.930 . S
C2905 C2906 1.399 . S
C2905 C2910 1.399 . S
C2906 C2905 1.399 . S
C2906 C2907 1.376 . S
C2907 H2894 0.930 . S
C2907 C2906 1.376 . S
C2907 C2908 1.388 . S
C2908 H2895 0.930 . S
C2908 C2907 1.388 . S
C2908 C2909 1.390 . S
C2909 C2908 1.390 . S
C2909 C2910 1.394 . S
C2909 C2915 1.465 . S
C2910 C2905 1.399 . S
C2910 C2909 1.394 . S
C2910 C2911 1.516 . S
C2911 C2910 1.516 . S
C2911 C2912 1.502 . S
C2911 C2913 1.561 . S
C2911 C2914 1.526 . S
C2912 H2896 0.959 . S
C2912 H2897 0.959 . S
C2912 H2898 0.961 . S
C2912 C2911 1.502 . S
C2913 H2899 0.960 . S
C2913 H2900 0.961 . S
C2913 H2901 0.959 . S
C2913 C2911 1.561 . S
C2914 C2911 1.526 . S
C2914 C2915 1.396 . S
C2914 C2919 1.390 . S
C2915 C2909 1.465 . S
C2915 C2914 1.396 . S
C2915 C2916 1.399 . S
C2916 H2902 0.929 . S
C2916 C2915 1.399 . S
C2916 C2917 1.385 . S
C2917 H2903 0.931 . S
C2917 C2916 1.385 . S
C2917 C2918 1.389 . S
C2918 C2917 1.389 . S
C2918 C2919 1.387 . S
C2919 H2904 0.930 . S
C2919 C2914 1.390 . S
C2919 C2918 1.387 . S
H2920 C2932 0.930 . S
H2921 C2934 0.930 . S
H2922 C2935 0.930 . S
H2923 C2939 0.959 . S
H2924 C2939 0.959 . S
H2925 C2939 0.961 . S
H2926 C2940 0.960 . S
H2927 C2940 0.961 . S
H2928 C2940 0.959 . S
H2929 C2943 0.929 . S
H2930 C2944 0.931 . S
H2931 C2946 0.930 . S
C2932 H2920 0.930 . S
C2932 C2933 1.399 . S
C2932 C2937 1.399 . S
C2933 C2932 1.399 . S
C2933 C2934 1.376 . S
C2934 H2921 0.930 . S
C2934 C2933 1.376 . S
C2934 C2935 1.388 . S
C2935 H2922 0.930 . S
C2935 C2934 1.388 . S
C2935 C2936 1.390 . S
C2936 C2935 1.390 . S
C2936 C2937 1.394 . S
C2936 C2942 1.465 . S
C2937 C2932 1.399 . S
C2937 C2936 1.394 . S
C2937 C2938 1.516 . S
C2938 C2937 1.516 . S
C2938 C2939 1.502 . S
C2938 C2940 1.561 . S
C2938 C2941 1.526 . S
C2939 H2923 0.959 . S
C2939 H2924 0.959 . S
C2939 H2925 0.961 . S
C2939 C2938 1.502 . S
C2940 H2926 0.960 . S
C2940 H2927 0.961 . S
C2940 H2928 0.959 . S
C2940 C2938 1.561 . S
C2941 C2938 1.526 . S
C2941 C2942 1.396 . S
C2941 C2946 1.390 . S
C2942 C2936 1.465 . S
C2942 C2941 1.396 . S
C2942 C2943 1.399 . S
C2943 H2929 0.929 . S
C2943 C2942 1.399 . S
C2943 C2944 1.385 . S
C2944 H2930 0.931 . S
C2944 C2943 1.385 . S
C2944 C2945 1.389 . S
C2945 C2944 1.389 . S
C2945 C2946 1.387 . S
C2946 H2931 0.930 . S
C2946 C2941 1.390 . S
C2946 C2945 1.387 . S
H2947 C2959 0.930 . S
H2948 C2961 0.930 . S
H2949 C2962 0.930 . S
H2950 C2966 0.959 . S
H2951 C2966 0.959 . S
H2952 C2966 0.961 . S
H2953 C2967 0.960 . S
H2954 C2967 0.961 . S
H2955 C2967 0.959 . S
H2956 C2970 0.929 . S
H2957 C2971 0.931 . S
H2958 C2973 0.930 . S
C2959 H2947 0.930 . S
C2959 C2960 1.399 . S
C2959 C2964 1.399 . S
C2960 C2959 1.399 . S
C2960 C2961 1.376 . S
C2961 H2948 0.930 . S
C2961 C2960 1.376 . S
C2961 C2962 1.388 . S
C2962 H2949 0.930 . S
C2962 C2961 1.388 . S
C2962 C2963 1.390 . S
C2963 C2962 1.390 . S
C2963 C2964 1.394 . S
C2963 C2969 1.465 . S
C2964 C2959 1.399 . S
C2964 C2963 1.394 . S
C2964 C2965 1.516 . S
C2965 C2964 1.516 . S
C2965 C2966 1.502 . S
C2965 C2967 1.561 . S
C2965 C2968 1.526 . S
C2966 H2950 0.959 . S
C2966 H2951 0.959 . S
C2966 H2952 0.961 . S
C2966 C2965 1.502 . S
C2967 H2953 0.960 . S
C2967 H2954 0.961 . S
C2967 H2955 0.959 . S
C2967 C2965 1.561 . S
C2968 C2965 1.526 . S
C2968 C2969 1.396 . S
C2968 C2973 1.390 . S
C2969 C2963 1.465 . S
C2969 C2968 1.396 . S
C2969 C2970 1.399 . S
C2970 H2956 0.929 . S
C2970 C2969 1.399 . S
C2970 C2971 1.385 . S
C2971 H2957 0.931 . S
C2971 C2970 1.385 . S
C2971 C2972 1.389 . S
C2972 C2971 1.389 . S
C2972 C2973 1.387 . S
C2973 H2958 0.930 . S
C2973 C2968 1.390 . S
C2973 C2972 1.387 . S
H2974 C2986 0.930 . S
H2975 C2988 0.930 . S
H2976 C2989 0.930 . S
H2977 C2993 0.981 . S
H2978 C2993 0.941 1_556 S
H2979 C2993 0.961 . S
H2980 C2994 0.982 . S
H2981 C2994 0.961 1_556 S
H2982 C2994 0.959 . S
H2983 C2997 0.929 . S
H2984 C2998 0.931 . S
H2985 C3000 0.930 . S
C2986 H2974 0.930 . S
C2986 C2987 1.399 . S
C2986 C2991 1.399 . S
C2987 C2986 1.399 . S
C2987 C2988 1.376 . S
C2988 H2975 0.930 . S
C2988 C2987 1.376 . S
C2988 C2989 1.388 . S
C2989 H2976 0.930 . S
C2989 C2988 1.388 . S
C2989 C2990 1.390 . S
C2990 C2989 1.390 . S
C2990 C2991 1.394 . S
C2990 C2996 1.465 . S
C2991 C2986 1.399 . S
C2991 C2990 1.394 . S
C2991 C2992 1.516 . S
C2992 C2991 1.516 . S
C2992 C2993 1.502 . S
C2992 C2994 1.561 . S
C2992 C2995 1.526 . S
C2993 H2977 0.981 . S
C2993 H2978 0.941 1_554 S
C2993 H2979 0.961 . S
C2993 C2992 1.502 . S
C2994 H2980 0.982 . S
C2994 H2981 0.961 1_554 S
C2994 H2982 0.959 . S
C2994 C2992 1.561 . S
C2995 C2992 1.526 . S
C2995 C2996 1.396 . S
C2995 C3000 1.390 . S
C2996 C2990 1.465 . S
C2996 C2995 1.396 . S
C2996 C2997 1.399 . S
C2997 H2983 0.929 . S
C2997 C2996 1.399 . S
C2997 C2998 1.385 . S
C2998 H2984 0.931 . S
C2998 C2997 1.385 . S
C2998 C2999 1.389 . S
C2999 C2998 1.389 . S
C2999 C3000 1.387 . S
C3000 H2985 0.930 . S
C3000 C2995 1.390 . S
C3000 C2999 1.387 . S
H3001 C3013 0.930 . S
H3002 C3015 0.930 . S
H3003 C3016 0.930 . S
H3004 C3020 0.959 . S
H3005 C3020 0.959 . S
H3006 C3020 0.961 . S
H3007 C3021 0.960 . S
H3008 C3021 0.961 . S
H3009 C3021 0.959 . S
H3010 C3024 0.929 . S
H3011 C3025 0.931 . S
H3012 C3027 0.930 . S
C3013 H3001 0.930 . S
C3013 C3014 1.399 . S
C3013 C3018 1.399 . S
C3014 C3013 1.399 . S
C3014 C3015 1.376 . S
C3015 H3002 0.930 . S
C3015 C3014 1.376 . S
C3015 C3016 1.388 . S
C3016 H3003 0.930 . S
C3016 C3015 1.388 . S
C3016 C3017 1.390 . S
C3017 C3016 1.390 . S
C3017 C3018 1.394 . S
C3017 C3023 1.465 . S
C3018 C3013 1.399 . S
C3018 C3017 1.394 . S
C3018 C3019 1.516 . S
C3019 C3018 1.516 . S
C3019 C3020 1.502 . S
C3019 C3021 1.561 . S
C3019 C3022 1.526 . S
C3020 H3004 0.959 . S
C3020 H3005 0.959 . S
C3020 H3006 0.961 . S
C3020 C3019 1.502 . S
C3021 H3007 0.960 . S
C3021 H3008 0.961 . S
C3021 H3009 0.959 . S
C3021 C3019 1.561 . S
C3022 C3019 1.526 . S
C3022 C3023 1.396 . S
C3022 C3027 1.390 . S
C3023 C3017 1.465 . S
C3023 C3022 1.396 . S
C3023 C3024 1.399 . S
C3024 H3010 0.929 . S
C3024 C3023 1.399 . S
C3024 C3025 1.385 . S
C3025 H3011 0.931 . S
C3025 C3024 1.385 . S
C3025 C3026 1.389 . S
C3026 C3025 1.389 . S
C3026 C3027 1.387 . S
C3027 H3012 0.930 . S
C3027 C3022 1.390 . S
C3027 C3026 1.387 . S
H3028 C3040 0.930 . S
H3029 C3042 0.930 . S
H3030 C3043 0.930 . S
H3031 C3047 0.959 . S
H3032 C3047 0.959 . S
H3033 C3047 0.961 . S
H3034 C3048 0.960 . S
H3035 C3048 0.961 . S
H3036 C3048 0.959 . S
H3037 C3051 0.929 . S
H3038 C3052 0.931 . S
H3039 C3054 0.930 . S
C3040 H3028 0.930 . S
C3040 C3041 1.399 . S
C3040 C3045 1.399 . S
C3041 C3040 1.399 . S
C3041 C3042 1.376 . S
C3042 H3029 0.930 . S
C3042 C3041 1.376 . S
C3042 C3043 1.388 . S
C3043 H3030 0.930 . S
C3043 C3042 1.388 . S
C3043 C3044 1.390 . S
C3044 C3043 1.390 . S
C3044 C3045 1.394 . S
C3044 C3050 1.465 . S
C3045 C3040 1.399 . S
C3045 C3044 1.394 . S
C3045 C3046 1.516 . S
C3046 C3045 1.516 . S
C3046 C3047 1.502 . S
C3046 C3048 1.561 . S
C3046 C3049 1.526 . S
C3047 H3031 0.959 . S
C3047 H3032 0.959 . S
C3047 H3033 0.961 . S
C3047 C3046 1.502 . S
C3048 H3034 0.960 . S
C3048 H3035 0.961 . S
C3048 H3036 0.959 . S
C3048 C3046 1.561 . S
C3049 C3046 1.526 . S
C3049 C3050 1.396 . S
C3049 C3054 1.390 . S
C3050 C3044 1.465 . S
C3050 C3049 1.396 . S
C3050 C3051 1.399 . S
C3051 H3037 0.929 . S
C3051 C3050 1.399 . S
C3051 C3052 1.385 . S
C3052 H3038 0.931 . S
C3052 C3051 1.385 . S
C3052 C3053 1.389 . S
C3053 C3052 1.389 . S
C3053 C3054 1.387 . S
C3054 H3039 0.930 . S
C3054 C3049 1.390 . S
C3054 C3053 1.387 . S
H3055 C3067 0.930 . S
H3056 C3069 0.930 . S
H3057 C3070 0.930 . S
H3058 C3074 0.959 . S
H3059 C3074 0.959 . S
H3060 C3074 0.961 . S
H3061 C3075 0.960 . S
H3062 C3075 0.961 . S
H3063 C3075 0.959 . S
H3064 C3078 0.929 . S
H3065 C3079 0.931 . S
H3066 C3081 0.930 . S
C3067 H3055 0.930 . S
C3067 C3068 1.399 . S
C3067 C3072 1.399 . S
C3068 C3067 1.399 . S
C3068 C3069 1.376 . S
C3069 H3056 0.930 . S
C3069 C3068 1.376 . S
C3069 C3070 1.388 . S
C3070 H3057 0.930 . S
C3070 C3069 1.388 . S
C3070 C3071 1.390 . S
C3071 C3070 1.390 . S
C3071 C3072 1.394 . S
C3071 C3077 1.465 . S
C3072 C3067 1.399 . S
C3072 C3071 1.394 . S
C3072 C3073 1.516 . S
C3073 C3072 1.516 . S
C3073 C3074 1.502 . S
C3073 C3075 1.561 . S
C3073 C3076 1.526 . S
C3074 H3058 0.959 . S
C3074 H3059 0.959 . S
C3074 H3060 0.961 . S
C3074 C3073 1.502 . S
C3075 H3061 0.960 . S
C3075 H3062 0.961 . S
C3075 H3063 0.959 . S
C3075 C3073 1.561 . S
C3076 C3073 1.526 . S
C3076 C3077 1.396 . S
C3076 C3081 1.390 . S
C3077 C3071 1.465 . S
C3077 C3076 1.396 . S
C3077 C3078 1.399 . S
C3078 H3064 0.929 . S
C3078 C3077 1.399 . S
C3078 C3079 1.385 . S
C3079 H3065 0.931 . S
C3079 C3078 1.385 . S
C3079 C3080 1.389 . S
C3080 C3079 1.389 . S
C3080 C3081 1.387 . S
C3081 H3066 0.930 . S
C3081 C3076 1.390 . S
C3081 C3080 1.387 . S
H3082 C3094 0.930 . S
H3083 C3096 0.930 . S
H3084 C3097 0.930 1_655 S
H3085 C3101 0.959 . S
H3086 C3101 0.959 . S
H3087 C3101 0.961 . S
H3088 C3102 0.960 . S
H3089 C3102 0.961 . S
H3090 C3102 0.959 . S
H3091 C3105 0.929 1_655 S
H3092 C3106 0.904 1_655 S
H3093 C3108 0.930 . S
C3094 H3082 0.930 . S
C3094 C3095 1.399 . S
C3094 C3099 1.399 . S
C3095 C3094 1.399 . S
C3095 C3096 1.376 . S
C3096 H3083 0.930 . S
C3096 C3095 1.376 . S
C3096 C3097 1.388 . S
C3097 H3084 0.930 1_455 S
C3097 C3096 1.388 . S
C3097 C3098 1.390 . S
C3098 C3097 1.390 . S
C3098 C3099 1.394 . S
C3098 C3104 1.465 . S
C3099 C3094 1.399 . S
C3099 C3098 1.394 . S
C3099 C3100 1.516 . S
C3100 C3099 1.516 . S
C3100 C3101 1.502 . S
C3100 C3102 1.561 . S
C3100 C3103 1.526 . S
C3101 H3085 0.959 . S
C3101 H3086 0.959 . S
C3101 H3087 0.961 . S
C3101 C3100 1.502 . S
C3102 H3088 0.960 . S
C3102 H3089 0.961 . S
C3102 H3090 0.959 . S
C3102 C3100 1.561 . S
C3103 C3100 1.526 . S
C3103 C3104 1.396 . S
C3103 C3108 1.390 . S
C3104 C3098 1.465 . S
C3104 C3103 1.396 . S
C3104 C3105 1.399 . S
C3105 H3091 0.929 1_455 S
C3105 C3104 1.399 . S
C3105 C3106 1.385 . S
C3106 H3092 0.904 1_455 S
C3106 C3105 1.385 . S
C3106 C3107 1.389 . S
C3107 C3106 1.389 . S
C3107 C3108 1.387 . S
C3108 H3093 0.930 . S
C3108 C3103 1.390 . S
C3108 C3107 1.387 . S
H3109 C3121 0.930 . S
H3110 C3123 0.930 . S
H3111 C3124 0.930 . S
H3112 C3128 0.959 . S
H3113 C3128 0.959 . S
H3114 C3128 0.961 . S
H3115 C3129 0.960 . S
H3116 C3129 0.961 . S
H3117 C3129 0.959 . S
H3118 C3132 0.929 . S
H3119 C3133 0.931 . S
H3120 C3135 0.930 . S
C3121 H3109 0.930 . S
C3121 C3122 1.399 . S
C3121 C3126 1.399 . S
C3122 C3121 1.399 . S
C3122 C3123 1.376 . S
C3123 H3110 0.930 . S
C3123 C3122 1.376 . S
C3123 C3124 1.388 . S
C3124 H3111 0.930 . S
C3124 C3123 1.388 . S
C3124 C3125 1.390 . S
C3125 C3124 1.390 . S
C3125 C3126 1.394 . S
C3125 C3131 1.465 . S
C3126 C3121 1.399 . S
C3126 C3125 1.394 . S
C3126 C3127 1.516 . S
C3127 C3126 1.516 . S
C3127 C3128 1.502 . S
C3127 C3129 1.561 . S
C3127 C3130 1.526 . S
C3128 H3112 0.959 . S
C3128 H3113 0.959 . S
C3128 H3114 0.961 . S
C3128 C3127 1.502 . S
C3129 H3115 0.960 . S
C3129 H3116 0.961 . S
C3129 H3117 0.959 . S
C3129 C3127 1.561 . S
C3130 C3127 1.526 . S
C3130 C3131 1.396 . S
C3130 C3135 1.390 . S
C3131 C3125 1.465 . S
C3131 C3130 1.396 . S
C3131 C3132 1.399 . S
C3132 H3118 0.929 . S
C3132 C3131 1.399 . S
C3132 C3133 1.385 . S
C3133 H3119 0.931 . S
C3133 C3132 1.385 . S
C3133 C3134 1.389 . S
C3134 C3133 1.389 . S
C3134 C3135 1.387 . S
C3135 H3120 0.930 . S
C3135 C3130 1.390 . S
C3135 C3134 1.387 . S
H3136 C3148 0.930 . S
H3137 C3150 0.930 . S
H3138 C3151 0.930 . S
H3139 C3155 0.959 . S
H3140 C3155 0.959 . S
H3141 C3155 0.961 . S
H3142 C3156 0.960 . S
H3143 C3156 0.961 . S
H3144 C3156 0.959 . S
H3145 C3159 0.929 . S
H3146 C3160 0.931 . S
H3147 C3162 0.930 . S
C3148 H3136 0.930 . S
C3148 C3149 1.399 . S
C3148 C3153 1.399 . S
C3149 C3148 1.399 . S
C3149 C3150 1.376 . S
C3150 H3137 0.930 . S
C3150 C3149 1.376 . S
C3150 C3151 1.388 . S
C3151 H3138 0.930 . S
C3151 C3150 1.388 . S
C3151 C3152 1.390 . S
C3152 C3151 1.390 . S
C3152 C3153 1.394 . S
C3152 C3158 1.465 . S
C3153 C3148 1.399 . S
C3153 C3152 1.394 . S
C3153 C3154 1.516 . S
C3154 C3153 1.516 . S
C3154 C3155 1.502 . S
C3154 C3156 1.561 . S
C3154 C3157 1.526 . S
C3155 H3139 0.959 . S
C3155 H3140 0.959 . S
C3155 H3141 0.961 . S
C3155 C3154 1.502 . S
C3156 H3142 0.960 . S
C3156 H3143 0.961 . S
C3156 H3144 0.959 . S
C3156 C3154 1.561 . S
C3157 C3154 1.526 . S
C3157 C3158 1.396 . S
C3157 C3162 1.390 . S
C3158 C3152 1.465 . S
C3158 C3157 1.396 . S
C3158 C3159 1.399 . S
C3159 H3145 0.929 . S
C3159 C3158 1.399 . S
C3159 C3160 1.385 . S
C3160 H3146 0.931 . S
C3160 C3159 1.385 . S
C3160 C3161 1.389 . S
C3161 C3160 1.389 . S
C3161 C3162 1.387 . S
C3162 H3147 0.930 . S
C3162 C3157 1.390 . S
C3162 C3161 1.387 . S
H3163 C3175 0.930 . S
H3164 C3177 0.930 . S
H3165 C3178 0.930 . S
H3166 C3182 0.959 . S
H3167 C3182 0.959 . S
H3168 C3182 0.961 . S
H3169 C3183 0.960 . S
H3170 C3183 0.961 . S
H3171 C3183 0.959 . S
H3172 C3186 0.929 . S
H3173 C3187 0.931 . S
H3174 C3189 0.930 . S
C3175 H3163 0.930 . S
C3175 C3176 1.399 . S
C3175 C3180 1.399 . S
C3176 C3175 1.399 . S
C3176 C3177 1.376 . S
C3177 H3164 0.930 . S
C3177 C3176 1.376 . S
C3177 C3178 1.388 . S
C3178 H3165 0.930 . S
C3178 C3177 1.388 . S
C3178 C3179 1.390 . S
C3179 C3178 1.390 . S
C3179 C3180 1.394 . S
C3179 C3185 1.465 . S
C3180 C3175 1.399 . S
C3180 C3179 1.394 . S
C3180 C3181 1.516 . S
C3181 C3180 1.516 . S
C3181 C3182 1.502 . S
C3181 C3183 1.561 . S
C3181 C3184 1.526 . S
C3182 H3166 0.959 . S
C3182 H3167 0.959 . S
C3182 H3168 0.961 . S
C3182 C3181 1.502 . S
C3183 H3169 0.960 . S
C3183 H3170 0.961 . S
C3183 H3171 0.959 . S
C3183 C3181 1.561 . S
C3184 C3181 1.526 . S
C3184 C3185 1.396 . S
C3184 C3189 1.390 . S
C3185 C3179 1.465 . S
C3185 C3184 1.396 . S
C3185 C3186 1.399 . S
C3186 H3172 0.929 . S
C3186 C3185 1.399 . S
C3186 C3187 1.385 . S
C3187 H3173 0.931 . S
C3187 C3186 1.385 . S
C3187 C3188 1.389 . S
C3188 C3187 1.389 . S
C3188 C3189 1.387 . S
C3189 H3174 0.930 . S
C3189 C3184 1.390 . S
C3189 C3188 1.387 . S
H3190 C3202 0.930 . S
H3191 C3204 0.930 . S
H3192 C3205 0.930 . S
H3193 C3209 0.959 . S
H3194 C3209 0.959 1_455 S
H3195 C3209 0.961 . S
H3196 C3210 0.960 . S
H3197 C3210 0.961 1_455 S
H3198 C3210 0.959 . S
H3199 C3213 0.929 . S
H3200 C3214 0.931 . S
H3201 C3216 0.958 . S
C3202 H3190 0.930 . S
C3202 C3203 1.399 . S
C3202 C3207 1.399 . S
C3203 C3202 1.399 . S
C3203 C3204 1.376 . S
C3204 H3191 0.930 . S
C3204 C3203 1.376 . S
C3204 C3205 1.388 . S
C3205 H3192 0.930 . S
C3205 C3204 1.388 . S
C3205 C3206 1.390 . S
C3206 C3205 1.390 . S
C3206 C3207 1.394 . S
C3206 C3212 1.465 . S
C3207 C3202 1.399 . S
C3207 C3206 1.394 . S
C3207 C3208 1.516 . S
C3208 C3207 1.516 . S
C3208 C3209 1.502 . S
C3208 C3210 1.561 . S
C3208 C3211 1.526 . S
C3209 H3193 0.959 . S
C3209 H3194 0.959 1_655 S
C3209 H3195 0.961 . S
C3209 C3208 1.502 . S
C3210 H3196 0.960 . S
C3210 H3197 0.961 1_655 S
C3210 H3198 0.959 . S
C3210 C3208 1.561 . S
C3211 C3208 1.526 . S
C3211 C3212 1.396 . S
C3211 C3216 1.368 1_655 S
C3212 C3206 1.465 . S
C3212 C3211 1.396 . S
C3212 C3213 1.399 . S
C3213 H3199 0.929 . S
C3213 C3212 1.399 . S
C3213 C3214 1.385 . S
C3214 H3200 0.931 . S
C3214 C3213 1.385 . S
C3214 C3215 1.389 . S
C3215 C3214 1.389 . S
C3215 C3216 1.380 1_655 S
C3216 H3201 0.958 . S
C3216 C3211 1.368 1_455 S
C3216 C3215 1.380 1_455 S
H3217 C3229 0.930 . S
H3218 C3231 0.930 . S
H3219 C3232 0.930 . S
H3220 C3236 0.959 . S
H3221 C3236 0.959 . S
H3222 C3236 0.961 . S
H3223 C3237 0.960 . S
H3224 C3237 0.961 . S
H3225 C3237 0.959 . S
H3226 C3240 0.929 . S
H3227 C3241 0.931 . S
H3228 C3243 0.930 . S
C3229 H3217 0.930 . S
C3229 C3230 1.399 . S
C3229 C3234 1.399 . S
C3230 C3229 1.399 . S
C3230 C3231 1.376 . S
C3231 H3218 0.930 . S
C3231 C3230 1.376 . S
C3231 C3232 1.388 . S
C3232 H3219 0.930 . S
C3232 C3231 1.388 . S
C3232 C3233 1.390 . S
C3233 C3232 1.390 . S
C3233 C3234 1.394 . S
C3233 C3239 1.465 . S
C3234 C3229 1.399 . S
C3234 C3233 1.394 . S
C3234 C3235 1.516 . S
C3235 C3234 1.516 . S
C3235 C3236 1.502 . S
C3235 C3237 1.561 . S
C3235 C3238 1.526 . S
C3236 H3220 0.959 . S
C3236 H3221 0.959 . S
C3236 H3222 0.961 . S
C3236 C3235 1.502 . S
C3237 H3223 0.960 . S
C3237 H3224 0.961 . S
C3237 H3225 0.959 . S
C3237 C3235 1.561 . S
C3238 C3235 1.526 . S
C3238 C3239 1.396 . S
C3238 C3243 1.390 . S
C3239 C3233 1.465 . S
C3239 C3238 1.396 . S
C3239 C3240 1.399 . S
C3240 H3226 0.929 . S
C3240 C3239 1.399 . S
C3240 C3241 1.385 . S
C3241 H3227 0.931 . S
C3241 C3240 1.385 . S
C3241 C3242 1.389 . S
C3242 C3241 1.389 . S
C3242 C3243 1.387 . S
C3243 H3228 0.930 . S
C3243 C3238 1.390 . S
C3243 C3242 1.387 . S
H3244 C3256 0.930 . S
H3245 C3258 0.930 . S
H3246 C3259 0.930 . S
H3247 C3263 0.959 . S
H3248 C3263 0.959 . S
H3249 C3263 0.961 . S
H3250 C3264 0.960 . S
H3251 C3264 0.961 . S
H3252 C3264 0.959 . S
H3253 C3267 0.929 . S
H3254 C3268 0.931 . S
H3255 C3270 0.930 . S
C3256 H3244 0.930 . S
C3256 C3257 1.399 . S
C3256 C3261 1.399 . S
C3257 C3256 1.399 . S
C3257 C3258 1.376 . S
C3258 H3245 0.930 . S
C3258 C3257 1.376 . S
C3258 C3259 1.388 . S
C3259 H3246 0.930 . S
C3259 C3258 1.388 . S
C3259 C3260 1.390 . S
C3260 C3259 1.390 . S
C3260 C3261 1.394 . S
C3260 C3266 1.465 . S
C3261 C3256 1.399 . S
C3261 C3260 1.394 . S
C3261 C3262 1.516 . S
C3262 C3261 1.516 . S
C3262 C3263 1.502 . S
C3262 C3264 1.561 . S
C3262 C3265 1.526 . S
C3263 H3247 0.959 . S
C3263 H3248 0.959 . S
C3263 H3249 0.961 . S
C3263 C3262 1.502 . S
C3264 H3250 0.960 . S
C3264 H3251 0.961 . S
C3264 H3252 0.959 . S
C3264 C3262 1.561 . S
C3265 C3262 1.526 . S
C3265 C3266 1.396 . S
C3265 C3270 1.390 . S
C3266 C3260 1.465 . S
C3266 C3265 1.396 . S
C3266 C3267 1.399 . S
C3267 H3253 0.929 . S
C3267 C3266 1.399 . S
C3267 C3268 1.385 . S
C3268 H3254 0.931 . S
C3268 C3267 1.385 . S
C3268 C3269 1.389 . S
C3269 C3268 1.389 . S
C3269 C3270 1.387 . S
C3270 H3255 0.930 . S
C3270 C3265 1.390 . S
C3270 C3269 1.387 . S
H3271 C3283 0.930 . S
H3272 C3285 0.930 . S
H3273 C3286 0.930 . S
H3274 C3290 0.959 . S
H3275 C3290 0.959 . S
H3276 C3290 0.961 . S
H3277 C3291 0.960 . S
H3278 C3291 0.961 . S
H3279 C3291 0.959 . S
H3280 C3294 0.929 . S
H3281 C3295 0.931 . S
H3282 C3297 0.930 . S
C3283 H3271 0.930 . S
C3283 C3284 1.399 . S
C3283 C3288 1.399 . S
C3284 C3283 1.399 . S
C3284 C3285 1.376 . S
C3285 H3272 0.930 . S
C3285 C3284 1.376 . S
C3285 C3286 1.388 . S
C3286 H3273 0.930 . S
C3286 C3285 1.388 . S
C3286 C3287 1.390 . S
C3287 C3286 1.390 . S
C3287 C3288 1.394 . S
C3287 C3293 1.465 . S
C3288 C3283 1.399 . S
C3288 C3287 1.394 . S
C3288 C3289 1.516 . S
C3289 C3288 1.516 . S
C3289 C3290 1.502 . S
C3289 C3291 1.561 . S
C3289 C3292 1.526 . S
C3290 H3274 0.959 . S
C3290 H3275 0.959 . S
C3290 H3276 0.961 . S
C3290 C3289 1.502 . S
C3291 H3277 0.960 . S
C3291 H3278 0.961 . S
C3291 H3279 0.959 . S
C3291 C3289 1.561 . S
C3292 C3289 1.526 . S
C3292 C3293 1.396 . S
C3292 C3297 1.390 . S
C3293 C3287 1.465 . S
C3293 C3292 1.396 . S
C3293 C3294 1.399 . S
C3294 H3280 0.929 . S
C3294 C3293 1.399 . S
C3294 C3295 1.385 . S
C3295 H3281 0.931 . S
C3295 C3294 1.385 . S
C3295 C3296 1.389 . S
C3296 C3295 1.389 . S
C3296 C3297 1.387 . S
C3297 H3282 0.930 . S
C3297 C3292 1.390 . S
C3297 C3296 1.387 . S
H3298 C3310 0.930 . S
H3299 C3312 0.930 . S
H3300 C3313 0.930 . S
H3301 C3317 0.959 . S
H3302 C3317 0.959 . S
H3303 C3317 0.961 . S
H3304 C3318 0.960 . S
H3305 C3318 0.961 . S
H3306 C3318 0.959 . S
H3307 C3321 0.929 . S
H3308 C3322 0.931 . S
H3309 C3324 0.930 . S
C3310 H3298 0.930 . S
C3310 C3311 1.399 . S
C3310 C3315 1.399 . S
C3311 C3310 1.399 . S
C3311 C3312 1.376 . S
C3312 H3299 0.930 . S
C3312 C3311 1.376 . S
C3312 C3313 1.388 . S
C3313 H3300 0.930 . S
C3313 C3312 1.388 . S
C3313 C3314 1.390 . S
C3314 C3313 1.390 . S
C3314 C3315 1.394 . S
C3314 C3320 1.465 . S
C3315 C3310 1.399 . S
C3315 C3314 1.394 . S
C3315 C3316 1.516 . S
C3316 C3315 1.516 . S
C3316 C3317 1.502 . S
C3316 C3318 1.561 . S
C3316 C3319 1.526 . S
C3317 H3301 0.959 . S
C3317 H3302 0.959 . S
C3317 H3303 0.961 . S
C3317 C3316 1.502 . S
C3318 H3304 0.960 . S
C3318 H3305 0.961 . S
C3318 H3306 0.959 . S
C3318 C3316 1.561 . S
C3319 C3316 1.526 . S
C3319 C3320 1.396 . S
C3319 C3324 1.390 . S
C3320 C3314 1.465 . S
C3320 C3319 1.396 . S
C3320 C3321 1.399 . S
C3321 H3307 0.929 . S
C3321 C3320 1.399 . S
C3321 C3322 1.385 . S
C3322 H3308 0.931 . S
C3322 C3321 1.385 . S
C3322 C3323 1.389 . S
C3323 C3322 1.389 . S
C3323 C3324 1.387 . S
C3324 H3309 0.930 . S
C3324 C3319 1.390 . S
C3324 C3323 1.387 . S
H3325 C3337 0.930 . S
H3326 C3339 0.930 . S
H3327 C3340 0.930 . S
H3328 C3344 0.959 . S
H3329 C3344 0.959 . S
H3330 C3344 0.961 . S
H3331 C3345 0.960 . S
H3332 C3345 0.961 . S
H3333 C3345 0.959 . S
H3334 C3348 0.929 . S
H3335 C3349 0.931 . S
H3336 C3351 0.930 . S
C3337 H3325 0.930 . S
C3337 C3338 1.399 . S
C3337 C3342 1.399 . S
C3338 C3337 1.399 . S
C3338 C3339 1.376 . S
C3339 H3326 0.930 . S
C3339 C3338 1.376 . S
C3339 C3340 1.388 . S
C3340 H3327 0.930 . S
C3340 C3339 1.388 . S
C3340 C3341 1.390 . S
C3341 C3340 1.390 . S
C3341 C3342 1.394 . S
C3341 C3347 1.465 . S
C3342 C3337 1.399 . S
C3342 C3341 1.394 . S
C3342 C3343 1.516 . S
C3343 C3342 1.516 . S
C3343 C3344 1.502 . S
C3343 C3345 1.561 . S
C3343 C3346 1.526 . S
C3344 H3328 0.959 . S
C3344 H3329 0.959 . S
C3344 H3330 0.961 . S
C3344 C3343 1.502 . S
C3345 H3331 0.960 . S
C3345 H3332 0.961 . S
C3345 H3333 0.959 . S
C3345 C3343 1.561 . S
C3346 C3343 1.526 . S
C3346 C3347 1.396 . S
C3346 C3351 1.390 . S
C3347 C3341 1.465 . S
C3347 C3346 1.396 . S
C3347 C3348 1.399 . S
C3348 H3334 0.929 . S
C3348 C3347 1.399 . S
C3348 C3349 1.385 . S
C3349 H3335 0.931 . S
C3349 C3348 1.385 . S
C3349 C3350 1.389 . S
C3350 C3349 1.389 . S
C3350 C3351 1.387 . S
C3351 H3336 0.930 . S
C3351 C3346 1.390 . S
C3351 C3350 1.387 . S
H3352 C3364 0.930 . S
H3353 C3366 0.930 . S
H3354 C3367 0.930 . S
H3355 C3371 0.959 . S
H3356 C3371 0.959 . S
H3357 C3371 0.961 . S
H3358 C3372 0.960 . S
H3359 C3372 0.961 . S
H3360 C3372 0.959 . S
H3361 C3375 0.929 . S
H3362 C3376 0.931 . S
H3363 C3378 0.930 . S
C3364 H3352 0.930 . S
C3364 C3365 1.399 . S
C3364 C3369 1.399 . S
C3365 C3364 1.399 . S
C3365 C3366 1.376 . S
C3366 H3353 0.930 . S
C3366 C3365 1.376 . S
C3366 C3367 1.388 . S
C3367 H3354 0.930 . S
C3367 C3366 1.388 . S
C3367 C3368 1.390 . S
C3368 C3367 1.390 . S
C3368 C3369 1.394 . S
C3368 C3374 1.465 . S
C3369 C3364 1.399 . S
C3369 C3368 1.394 . S
C3369 C3370 1.516 . S
C3370 C3369 1.516 . S
C3370 C3371 1.502 . S
C3370 C3372 1.561 . S
C3370 C3373 1.526 . S
C3371 H3355 0.959 . S
C3371 H3356 0.959 . S
C3371 H3357 0.961 . S
C3371 C3370 1.502 . S
C3372 H3358 0.960 . S
C3372 H3359 0.961 . S
C3372 H3360 0.959 . S
C3372 C3370 1.561 . S
C3373 C3370 1.526 . S
C3373 C3374 1.396 . S
C3373 C3378 1.390 . S
C3374 C3368 1.465 . S
C3374 C3373 1.396 . S
C3374 C3375 1.399 . S
C3375 H3361 0.929 . S
C3375 C3374 1.399 . S
C3375 C3376 1.385 . S
C3376 H3362 0.931 . S
C3376 C3375 1.385 . S
C3376 C3377 1.389 . S
C3377 C3376 1.389 . S
C3377 C3378 1.387 . S
C3378 H3363 0.930 . S
C3378 C3373 1.390 . S
C3378 C3377 1.387 . S
H3379 C3391 0.930 . S
H3380 C3393 0.930 . S
H3381 C3394 0.930 . S
H3382 C3398 0.959 . S
H3383 C3398 0.959 1_545 S
H3384 C3398 0.961 . S
H3385 C3399 0.960 . S
H3386 C3399 0.961 1_545 S
H3387 C3399 0.959 . S
H3388 C3402 0.929 . S
H3389 C3403 0.931 . S
H3390 C3405 0.930 . S
C3391 H3379 0.930 . S
C3391 C3392 1.399 . S
C3391 C3396 1.399 . S
C3392 C3391 1.399 . S
C3392 C3393 1.376 . S
C3393 H3380 0.930 . S
C3393 C3392 1.376 . S
C3393 C3394 1.388 . S
C3394 H3381 0.930 . S
C3394 C3393 1.388 . S
C3394 C3395 1.390 . S
C3395 C3394 1.390 . S
C3395 C3396 1.394 . S
C3395 C3401 1.465 . S
C3396 C3391 1.399 . S
C3396 C3395 1.394 . S
C3396 C3397 1.516 . S
C3397 C3396 1.516 . S
C3397 C3398 1.502 . S
C3397 C3399 1.561 . S
C3397 C3400 1.526 . S
C3398 H3382 0.959 . S
C3398 H3383 0.959 1_565 S
C3398 H3384 0.961 . S
C3398 C3397 1.502 . S
C3399 H3385 0.960 . S
C3399 H3386 0.961 1_565 S
C3399 H3387 0.959 . S
C3399 C3397 1.561 . S
C3400 C3397 1.526 . S
C3400 C3401 1.396 . S
C3400 C3405 1.390 1_565 S
C3401 C3395 1.465 . S
C3401 C3400 1.396 . S
C3401 C3402 1.399 . S
C3402 H3388 0.929 . S
C3402 C3401 1.399 . S
C3402 C3403 1.385 . S
C3403 H3389 0.931 . S
C3403 C3402 1.385 . S
C3403 C3404 1.389 . S
C3404 C3403 1.389 . S
C3404 C3405 1.387 1_565 S
C3405 H3390 0.930 . S
C3405 C3400 1.390 1_545 S
C3405 C3404 1.387 1_545 S
H3406 C3418 0.930 . S
H3407 C3420 0.930 . S
H3408 C3421 0.930 . S
H3409 C3425 0.959 . S
H3410 C3425 0.959 . S
H3411 C3425 0.961 . S
H3412 C3426 0.960 . S
H3413 C3426 0.961 . S
H3414 C3426 0.959 . S
H3415 C3429 0.929 . S
H3416 C3430 0.931 . S
H3417 C3432 0.930 . S
C3418 H3406 0.930 . S
C3418 C3419 1.399 . S
C3418 C3423 1.399 . S
C3419 C3418 1.399 . S
C3419 C3420 1.376 . S
C3420 H3407 0.930 . S
C3420 C3419 1.376 . S
C3420 C3421 1.388 . S
C3421 H3408 0.930 . S
C3421 C3420 1.388 . S
C3421 C3422 1.390 . S
C3422 C3421 1.390 . S
C3422 C3423 1.394 . S
C3422 C3428 1.465 . S
C3423 C3418 1.399 . S
C3423 C3422 1.394 . S
C3423 C3424 1.516 . S
C3424 C3423 1.516 . S
C3424 C3425 1.502 . S
C3424 C3426 1.561 . S
C3424 C3427 1.526 . S
C3425 H3409 0.959 . S
C3425 H3410 0.959 . S
C3425 H3411 0.961 . S
C3425 C3424 1.502 . S
C3426 H3412 0.960 . S
C3426 H3413 0.961 . S
C3426 H3414 0.959 . S
C3426 C3424 1.561 . S
C3427 C3424 1.526 . S
C3427 C3428 1.396 . S
C3427 C3432 1.390 . S
C3428 C3422 1.465 . S
C3428 C3427 1.396 . S
C3428 C3429 1.399 . S
C3429 H3415 0.929 . S
C3429 C3428 1.399 . S
C3429 C3430 1.385 . S
C3430 H3416 0.931 . S
C3430 C3429 1.385 . S
C3430 C3431 1.389 . S
C3431 C3430 1.389 . S
C3431 C3432 1.387 . S
C3432 H3417 0.930 . S
C3432 C3427 1.390 . S
C3432 C3431 1.387 . S
H3433 C3445 0.930 . S
H3434 C3447 0.930 . S
H3435 C3448 0.930 . S
H3436 C3452 0.959 . S
H3437 C3452 0.959 . S
H3438 C3452 0.961 . S
H3439 C3453 0.960 . S
H3440 C3453 0.961 . S
H3441 C3453 0.959 . S
H3442 C3456 0.929 . S
H3443 C3457 0.931 . S
H3444 C3459 0.930 . S
C3445 H3433 0.930 . S
C3445 C3446 1.399 . S
C3445 C3450 1.399 . S
C3446 C3445 1.399 . S
C3446 C3447 1.376 . S
C3447 H3434 0.930 . S
C3447 C3446 1.376 . S
C3447 C3448 1.388 . S
C3448 H3435 0.930 . S
C3448 C3447 1.388 . S
C3448 C3449 1.390 . S
C3449 C3448 1.390 . S
C3449 C3450 1.394 . S
C3449 C3455 1.465 . S
C3450 C3445 1.399 . S
C3450 C3449 1.394 . S
C3450 C3451 1.516 . S
C3451 C3450 1.516 . S
C3451 C3452 1.502 . S
C3451 C3453 1.561 . S
C3451 C3454 1.526 . S
C3452 H3436 0.959 . S
C3452 H3437 0.959 . S
C3452 H3438 0.961 . S
C3452 C3451 1.502 . S
C3453 H3439 0.960 . S
C3453 H3440 0.961 . S
C3453 H3441 0.959 . S
C3453 C3451 1.561 . S
C3454 C3451 1.526 . S
C3454 C3455 1.396 . S
C3454 C3459 1.390 . S
C3455 C3449 1.465 . S
C3455 C3454 1.396 . S
C3455 C3456 1.399 . S
C3456 H3442 0.929 . S
C3456 C3455 1.399 . S
C3456 C3457 1.385 . S
C3457 H3443 0.931 . S
C3457 C3456 1.385 . S
C3457 C3458 1.389 . S
C3458 C3457 1.389 . S
C3458 C3459 1.387 . S
C3459 H3444 0.930 . S
C3459 C3454 1.390 . S
C3459 C3458 1.387 . S
H3460 C3472 0.930 . S
H3461 C3474 0.930 . S
H3462 C3475 0.930 . S
H3463 C3479 0.959 . S
H3464 C3479 0.959 . S
H3465 C3479 0.961 . S
H3466 C3480 0.960 . S
H3467 C3480 0.961 . S
H3468 C3480 0.959 . S
H3469 C3483 0.929 . S
H3470 C3484 0.931 . S
H3471 C3486 0.930 . S
C3472 H3460 0.930 . S
C3472 C3473 1.399 . S
C3472 C3477 1.399 . S
C3473 C3472 1.399 . S
C3473 C3474 1.376 . S
C3474 H3461 0.930 . S
C3474 C3473 1.376 . S
C3474 C3475 1.388 . S
C3475 H3462 0.930 . S
C3475 C3474 1.388 . S
C3475 C3476 1.390 . S
C3476 C3475 1.390 . S
C3476 C3477 1.394 . S
C3476 C3482 1.465 . S
C3477 C3472 1.399 . S
C3477 C3476 1.394 . S
C3477 C3478 1.516 . S
C3478 C3477 1.516 . S
C3478 C3479 1.502 . S
C3478 C3480 1.561 . S
C3478 C3481 1.526 . S
C3479 H3463 0.959 . S
C3479 H3464 0.959 . S
C3479 H3465 0.961 . S
C3479 C3478 1.502 . S
C3480 H3466 0.960 . S
C3480 H3467 0.961 . S
C3480 H3468 0.959 . S
C3480 C3478 1.561 . S
C3481 C3478 1.526 . S
C3481 C3482 1.396 . S
C3481 C3486 1.390 . S
C3482 C3476 1.465 . S
C3482 C3481 1.396 . S
C3482 C3483 1.399 . S
C3483 H3469 0.929 . S
C3483 C3482 1.399 . S
C3483 C3484 1.385 . S
C3484 H3470 0.931 . S
C3484 C3483 1.385 . S
C3484 C3485 1.389 . S
C3485 C3484 1.389 . S
C3485 C3486 1.387 . S
C3486 H3471 0.930 . S
C3486 C3481 1.390 . S
C3486 C3485 1.387 . S
H3487 C3499 0.930 . S
H3488 C3501 0.930 1_556 S
H3489 C3502 0.930 . S
H3490 C3506 0.959 . S
H3491 C3506 0.959 . S
H3492 C3506 0.961 . S
H3493 C3507 0.960 . S
H3494 C3507 0.961 . S
H3495 C3507 0.959 . S
H3496 C3510 0.929 . S
H3497 C3511 0.931 . S
H3498 C3513 0.930 . S
C3499 H3487 0.930 . S
C3499 C3500 1.399 . S
C3499 C3504 1.399 . S
C3500 C3499 1.399 . S
C3500 C3501 1.376 . S
C3501 H3488 0.930 1_554 S
C3501 C3500 1.376 . S
C3501 C3502 1.388 1_554 S
C3502 H3489 0.930 . S
C3502 C3501 1.388 1_556 S
C3502 C3503 1.390 1_556 S
C3503 C3502 1.390 1_554 S
C3503 C3504 1.394 . S
C3503 C3509 1.465 . S
C3504 C3499 1.399 . S
C3504 C3503 1.394 . S
C3504 C3505 1.516 . S
C3505 C3504 1.516 . S
C3505 C3506 1.502 . S
C3505 C3507 1.561 . S
C3505 C3508 1.526 . S
C3506 H3490 0.959 . S
C3506 H3491 0.959 . S
C3506 H3492 0.961 . S
C3506 C3505 1.502 . S
C3507 H3493 0.960 . S
C3507 H3494 0.961 . S
C3507 H3495 0.959 . S
C3507 C3505 1.561 . S
C3508 C3505 1.526 . S
C3508 C3509 1.396 . S
C3508 C3513 1.390 . S
C3509 C3503 1.465 . S
C3509 C3508 1.396 . S
C3509 C3510 1.399 1_554 S
C3510 H3496 0.929 . S
C3510 C3509 1.399 1_556 S
C3510 C3511 1.385 . S
C3511 H3497 0.931 . S
C3511 C3510 1.385 . S
C3511 C3512 1.389 1_556 S
C3512 C3511 1.389 1_554 S
C3512 C3513 1.387 . S
C3513 H3498 0.930 . S
C3513 C3508 1.390 . S
C3513 C3512 1.387 . S
H3514 C3526 0.930 . S
H3515 C3528 0.930 . S
H3516 C3529 0.930 . S
H3517 C3533 0.959 . S
H3518 C3533 0.959 . S
H3519 C3533 0.961 . S
H3520 C3534 0.960 . S
H3521 C3534 0.961 . S
H3522 C3534 0.959 . S
H3523 C3537 0.929 . S
H3524 C3538 0.931 . S
H3525 C3540 0.930 . S
C3526 H3514 0.930 . S
C3526 C3527 1.399 . S
C3526 C3531 1.399 . S
C3527 C3526 1.399 . S
C3527 C3528 1.376 . S
C3528 H3515 0.930 . S
C3528 C3527 1.376 . S
C3528 C3529 1.388 . S
C3529 H3516 0.930 . S
C3529 C3528 1.388 . S
C3529 C3530 1.390 . S
C3530 C3529 1.390 . S
C3530 C3531 1.394 . S
C3530 C3536 1.465 . S
C3531 C3526 1.399 . S
C3531 C3530 1.394 . S
C3531 C3532 1.516 . S
C3532 C3531 1.516 . S
C3532 C3533 1.502 . S
C3532 C3534 1.561 . S
C3532 C3535 1.526 . S
C3533 H3517 0.959 . S
C3533 H3518 0.959 . S
C3533 H3519 0.961 . S
C3533 C3532 1.502 . S
C3534 H3520 0.960 . S
C3534 H3521 0.961 . S
C3534 H3522 0.959 . S
C3534 C3532 1.561 . S
C3535 C3532 1.526 . S
C3535 C3536 1.396 . S
C3535 C3540 1.390 . S
C3536 C3530 1.465 . S
C3536 C3535 1.396 . S
C3536 C3537 1.399 . S
C3537 H3523 0.929 . S
C3537 C3536 1.399 . S
C3537 C3538 1.385 . S
C3538 H3524 0.931 . S
C3538 C3537 1.385 . S
C3538 C3539 1.389 . S
C3539 C3538 1.389 . S
C3539 C3540 1.387 . S
C3540 H3525 0.930 . S
C3540 C3535 1.390 . S
C3540 C3539 1.387 . S
H3541 C3553 0.930 . S
H3542 C3555 0.930 . S
H3543 C3556 0.930 . S
H3544 C3560 0.959 . S
H3545 C3560 0.959 . S
H3546 C3560 0.961 . S
H3547 C3561 0.960 . S
H3548 C3561 0.961 . S
H3549 C3561 0.959 . S
H3550 C3564 0.929 . S
H3551 C3565 0.931 . S
H3552 C3567 0.930 . S
C3553 H3541 0.930 . S
C3553 C3554 1.399 . S
C3553 C3558 1.399 . S
C3554 C3553 1.399 . S
C3554 C3555 1.376 . S
C3555 H3542 0.930 . S
C3555 C3554 1.376 . S
C3555 C3556 1.388 . S
C3556 H3543 0.930 . S
C3556 C3555 1.388 . S
C3556 C3557 1.390 . S
C3557 C3556 1.390 . S
C3557 C3558 1.394 . S
C3557 C3563 1.465 . S
C3558 C3553 1.399 . S
C3558 C3557 1.394 . S
C3558 C3559 1.516 . S
C3559 C3558 1.516 . S
C3559 C3560 1.502 . S
C3559 C3561 1.561 . S
C3559 C3562 1.526 . S
C3560 H3544 0.959 . S
C3560 H3545 0.959 . S
C3560 H3546 0.961 . S
C3560 C3559 1.502 . S
C3561 H3547 0.960 . S
C3561 H3548 0.961 . S
C3561 H3549 0.959 . S
C3561 C3559 1.561 . S
C3562 C3559 1.526 . S
C3562 C3563 1.396 . S
C3562 C3567 1.390 . S
C3563 C3557 1.465 . S
C3563 C3562 1.396 . S
C3563 C3564 1.399 . S
C3564 H3550 0.929 . S
C3564 C3563 1.399 . S
C3564 C3565 1.385 . S
C3565 H3551 0.931 . S
C3565 C3564 1.385 . S
C3565 C3566 1.389 . S
C3566 C3565 1.389 . S
C3566 C3567 1.387 . S
C3567 H3552 0.930 . S
C3567 C3562 1.390 . S
C3567 C3566 1.387 . S
C989 C111 2.187 1_455 S
C1001 C349 2.164 . S
C1016 C64 2.059 . S
C1028 C400 2.101 . S
C1043 C77 1.509 . S
C1055 C429 1.487 . S
C1082 C473 1.298 . S
C1070 C95 1.303 . S
C1097 C25 1.194 . S
C1109 C513 1.155 . S
C1136 C549 1.619 . S
C1124 C36 1.574 . S
C1163 C599 1.877 . S
C1151 C50 1.793 . S
C1178 C11 2.213 . S
C1190 C629 2.190 . S
C1217 C359 1.829 . S
C1205 C237 1.801 . S
C1232 C245 0.606 . S
C1244 C402 0.478 . S
C1271 C439 1.154 . S
C1259 C279 1.131 . S
C1298 C469 1.352 . S
C1286 C175 1.331 . S
C1313 C231 1.326 . S
C1325 C509 1.334 . S
C1352 C559 0.808 . S
C1340 C251 0.850 . S
C1379 C593 0.774 . S
C1367 C273 0.852 . S
C1406 C639 1.852 . S
C1394 C181 1.821 . S
C1433 C353 1.115 . S
C1421 C165 1.100 1_554 S
C1448 C288 1.627 . S
C1460 C679 1.674 . S
C1487 C713 1.393 . S
C1475 C333 1.429 . S
C1514 C749 0.876 . S
C1502 C316 0.860 . S
C1529 C123 1.296 . S
C1541 C633 1.293 . S
C1556 C137 1.464 . S
C1568 C433 1.391 . S
C1583 C330 1.528 . S
C1595 C799 1.610 . S
C1622 C818 0.338 . S
C1610 C302 0.435 . S
C1649 C360 2.257 . S
C1637 C63 2.296 . S
C1676 C829 2.153 . S
C1664 C106 2.149 . S
C1691 C97 1.580 . S
C1703 C440 1.626 . S
C1718 C81 1.352 . S
C1730 C802 1.261 . S
C1757 C522 1.252 . S
C1745 C13 1.204 . S
C1772 C55 1.533 . S
C1784 C720 1.597 . S
C1811 C578 1.839 1_566 S
C1799 C35 1.820 . S
C1838 C880 2.396 . S
C1826 C21 2.401 . S
C1865 C338 1.989 . S
C1853 C147 2.006 . S
C1892 C833 0.475 . S
C1880 C321 0.716 . S
C1907 C119 1.201 . S
C1919 C418 1.170 . S
C1934 C293 1.370 . S
C1946 C800 1.452 . S
C1961 C153 1.480 . S
C1973 C520 1.502 . S
C2000 C698 0.810 . S
C1988 C315 0.821 . S
C2015 C125 0.749 1_545 S
C2027 C602 0.800 . S
C2042 C287 1.995 . S
C2054 C858 1.981 . S
C2069 C193 1.167 . S
C2081 C362 1.046 . S
C2096 C176 1.719 . S
C2108 C658 1.701 . S
C2123 C263 1.346 . S
C2135 C562 1.348 . S
C2150 C246 0.998 . S
C2162 C760 0.986 . S
C2189 C882 1.264 . S
C2177 C277 1.329 . S
C2204 C221 1.409 . S
C2216 C442 1.435 . S
C2243 C458 1.656 . S
C2231 C260 1.641 . S
C2270 C399 0.451 . S
C2258 C204 0.446 . S
C2285 C83 2.187 . S
C2297 C909 2.133 . S
C2324 C840 2.084 . S
C2312 C92 2.026 . S
C2339 C105 1.497 . S
C2351 C949 1.502 . S
C2366 C67 1.307 . S
C2378 C793 1.295 . S
C2393 C53 1.194 . S
C2405 C673 1.190 . S
C2432 C709 1.617 . S
C2420 C8 1.601 . S
C2459 C759 1.871 . S
C2447 C22 1.835 . S
C2486 C869 2.217 . S
C2474 C39 2.217 . S
C2513 C919 1.829 . S
C2501 C265 1.801 . S
C2528 C189 0.582 . S
C2540 C842 0.507 . S
C2567 C959 1.155 . S
C2555 C209 1.131 . S
C2594 C789 1.311 . S
C2582 C217 1.343 . S
C2621 C669 1.348 . S
C2609 C259 1.358 . S
C2636 C195 0.856 . S
C2648 C719 0.811 . S
C2675 C753 0.891 . S
C2663 C203 0.840 . S
C2690 C223 1.833 . S
C2702 C879 1.848 . S
C2729 C913 1.086 . S
C2717 C319 1.123 . S
C2744 C134 1.625 . S
C2756 C519 1.675 . S
C2783 C553 1.329 . S
C2771 C151 1.430 1_565 S
C2810 C589 0.868 . S
C2798 C162 0.841 . S
C2837 C873 1.271 . S
C2825 C305 1.301 . S
C2852 C291 1.471 . S
C2864 C953 1.406 . S
C2891 C479 1.619 . S
C2879 C148 1.580 . S
C2918 C378 0.122 . S
C2906 C120 0.370 . S
C2933 C91 2.299 . S
C2945 C920 2.291 . S
C2972 C389 2.128 . S
C2960 C78 2.144 . S
C2987 C69 1.536 . S
C2999 C960 1.596 . S
C3014 C109 1.308 . S
C3026 C482 1.338 . S
C3041 C41 1.209 . S
C3053 C682 1.245 . S
C3080 C560 1.614 . S
C3068 C27 1.590 . S
C3095 C7 1.778 . S
C3107 C738 1.820 . S
C3122 C49 2.421 . S
C3134 C640 2.411 . S
C3161 C898 1.989 . S
C3149 C329 2.006 . S
C3176 C167 0.640 . S
C3188 C393 0.458 . S
C3215 C938 1.189 1_655 S
C3203 C301 1.205 . S
C3230 C139 1.378 . S
C3242 C480 1.451 . S
C3257 C335 1.396 . S
C3269 C680 1.524 . S
C3296 C538 0.811 . S
C3284 C161 0.831 . S
C3311 C307 0.852 . S
C3323 C762 0.742 . S
C3350 C618 1.981 . S
C3338 C133 1.995 . S
C3377 C922 1.067 . S
C3365 C249 1.166 . S
C3404 C498 1.723 1_565 S
C3392 C218 1.686 . S
C3419 C235 1.396 . S
C3431 C722 1.296 . S
C3458 C600 0.954 . S
C3446 C190 0.918 . S
C3473 C207 1.286 . S
C3485 C642 1.358 . S
C3500 C179 1.394 . S
C3512 C962 1.427 . S
C3539 C778 1.663 . S
C3527 C232 1.624 . S
C3566 C839 0.455 . S
C3554 C274 0.469 . S
