# Generated by pormake.
# Topology sit, (3,6)-cn, num edge types: 1
# Building blocks:
#     Node 0, Type 0, BuildingBlock: OLANEW_clean_sbu_2, # of connection points: 3
#     Node 1, Type 0, BuildingBlock: OLANEW_clean_sbu_2, # of connection points: 3
#     Node 2, Type 0, BuildingBlock: OLANEW_clean_sbu_2, # of connection points: 3
#     Node 3, Type 0, BuildingBlock: OLANEW_clean_sbu_2, # of connection points: 3
#     Node 4, Type 1, BuildingBlock: MIDCAF_clean_sbu_0, # of connection points: 6
#     Node 5, Type 1, BuildingBlock: MIDCAF_clean_sbu_0, # of connection points: 6
#     Edge 6, Type (0, 1), BuildingBlock: ZUJKAS_clean_linker_0, # of connection points: 2
#     Edge 7, Type (0, 1), BuildingBlock: ZUJKAS_clean_linker_0, # of connection points: 2
#     Edge 8, Type (0, 1), BuildingBlock: ZUJKAS_clean_linker_0, # of connection points: 2
#     Edge 9, Type (0, 1), BuildingBlock: ZUJKAS_clean_linker_0, # of connection points: 2
#     Edge 10, Type (0, 1), BuildingBlock: ZUJKAS_clean_linker_0, # of connection points: 2
#     Edge 11, Type (0, 1), BuildingBlock: ZUJKAS_clean_linker_0, # of connection points: 2
#     Edge 12, Type (0, 1), BuildingBlock: ZUJKAS_clean_linker_0, # of connection points: 2
#     Edge 13, Type (0, 1), BuildingBlock: ZUJKAS_clean_linker_0, # of connection points: 2
#     Edge 14, Type (0, 1), BuildingBlock: ZUJKAS_clean_linker_0, # of connection points: 2
#     Edge 15, Type (0, 1), BuildingBlock: ZUJKAS_clean_linker_0, # of connection points: 2
#     Edge 16, Type (0, 1), BuildingBlock: ZUJKAS_clean_linker_0, # of connection points: 2
#     Edge 17, Type (0, 1), BuildingBlock: ZUJKAS_clean_linker_0, # of connection points: 2
# Relax obj value: 0.079
# Max RMSD: 0.183
# Mean RMSD: 0.112
data_MOF--net-sit--node1-OLANEW_clean_sbu_2--node2-MIDCAF_clean_sbu_0--edge1-ZUJKAS_clean_linker_0
_symmetry_space_group_name_H-M    P1
_symmetry_Int_Tables_number       1
_symmetry_cell_setting            triclinic
loop_
_symmetry_equiv_pos_as_xyz
'x, y, z'
_cell_length_a     28.863867
_cell_length_b     45.627031
_cell_length_c     50.303808
_cell_angle_alpha  90.350938
_cell_angle_beta   83.876337
_cell_angle_gamma 83.706139
loop_
_atom_site_label
_atom_site_type_symbol
_atom_site_fract_x
_atom_site_fract_y
_atom_site_fract_z
_atom_type_partial_charge
O0 O 0.22382 0.23242 0.00311 0.0
Cd1 Cd 0.18022 0.18933 0.00231 0.0
O2 O 0.15746 0.26113 0.01014 0.0
Cd3 Cd 0.11502 0.304 0.01464 0.0
O4 O 0.06924 0.3443 0.00906 0.0
C5 C 0.06646 0.35222 0.98506 0.0
O6 O 0.09182 0.33643 0.9657 0.0
C7 C 0.20192 0.2582 0.00549 0.0
C8 C 0.16659 0.15914 0.05 0.0
O9 O 0.20314 0.15228 0.03341 0.0
O10 O 0.13728 0.18078 0.04433 0.0
O11 O 0.08319 0.72514 0.02677 0.0
Cd12 Cd 0.00918 0.75522 0.0417 0.0
O13 O 0.07998 0.73758 0.98479 0.0
Cd14 Cd 0.00729 0.75712 0.99157 0.0
O15 O 0.93998 0.74252 0.98482 0.0
C16 C 0.94115 0.71459 0.98426 0.0
O17 O 0.9801 0.69866 0.98895 0.0
C18 C 0.10163 0.72404 0.0026 0.0
C19 C 0.01862 0.79819 0.07998 0.0
O20 O 0.01051 0.77204 0.08674 0.0
O21 O 0.02257 0.80406 0.05501 0.0
O22 O 0.69082 0.76315 0.52327 0.0
Cd23 Cd 0.6391 0.72391 0.5278 0.0
O24 O 0.62884 0.79584 0.52643 0.0
Cd25 Cd 0.59175 0.84029 0.52605 0.0
O26 O 0.54581 0.88021 0.51937 0.0
C27 C 0.55009 0.89215 0.49662 0.0
O28 O 0.58331 0.88079 0.47838 0.0
C29 C 0.67313 0.78985 0.52232 0.0
C30 C 0.63232 0.69459 0.57631 0.0
O31 O 0.66523 0.68644 0.55771 0.0
O32 O 0.60353 0.71716 0.57224 0.0
O33 O 0.56322 0.18428 0.55844 0.0
Cd34 Cd 0.49138 0.21834 0.5684 0.0
O35 O 0.59171 0.21133 0.52595 0.0
Cd36 Cd 0.52281 0.23542 0.52389 0.0
O37 O 0.45988 0.22477 0.50716 0.0
C38 C 0.46782 0.20263 0.4912 0.0
O39 O 0.51104 0.18989 0.48638 0.0
C40 C 0.59663 0.18914 0.54099 0.0
C41 C 0.50383 0.26629 0.60081 0.0
O42 O 0.49239 0.24204 0.61092 0.0
O43 O 0.50964 0.26792 0.57527 0.0
Zn44 Zn 0.01949 0.06619 0.3554 0.0
Zn45 Zn 0.09812 0.95556 0.36153 0.0
Zn46 Zn 0.05895 0.01072 0.3598 0.0
C47 C 0.07906 0.96419 0.30914 0.0
C48 C 0.01248 0.96103 0.39504 0.0
O49 O 0.1068 0.03942 0.37513 0.0
O50 O 0.06766 0.08393 0.37441 0.0
C51 C 0.044 0.04417 0.30367 0.0
O52 O 0.06506 0.9902 0.31907 0.0
O53 O 0.09582 0.9442 0.32375 0.0
O54 O 0.04902 0.94337 0.38895 0.0
O55 O 0.00901 0.98715 0.38537 0.0
O56 O 0.02501 0.06743 0.31583 0.0
O57 O 0.05705 0.02115 0.31691 0.0
O58 O 0.99047 0.01717 0.38517 0.0
O59 O 0.95818 0.06156 0.37553 0.0
C60 C 0.95608 0.03788 0.38823 0.0
O61 O 0.12591 0.00977 0.37807 0.0
O62 O 0.15867 0.96358 0.37312 0.0
C63 C 0.1034 0.0674 0.37983 0.0
C64 C 0.16017 0.98978 0.38081 0.0
Zn65 Zn 0.53689 0.59391 0.85511 0.0
Zn66 Zn 0.60328 0.43883 0.86514 0.0
Zn67 Zn 0.57438 0.49171 0.86219 0.0
C68 C 0.58571 0.4482 0.81173 0.0
C69 C 0.51703 0.45149 0.89932 0.0
O70 O 0.62559 0.51796 0.87641 0.0
O71 O 0.5784 0.55511 0.86503 0.0
C72 C 0.56046 0.53387 0.81874 0.0
O73 O 0.57596 0.47488 0.82072 0.0
O74 O 0.59818 0.42789 0.82729 0.0
O75 O 0.55124 0.43193 0.89337 0.0
O76 O 0.51672 0.477 0.88864 0.0
O77 O 0.55153 0.54915 0.84051 0.0
O78 O 0.56993 0.50599 0.82112 0.0
O79 O 0.50826 0.50837 0.88561 0.0
O80 O 0.52583 0.55006 0.86844 0.0
C81 C 0.49793 0.53632 0.88412 0.0
O82 O 0.64209 0.48869 0.8799 0.0
O83 O 0.66678 0.44113 0.87613 0.0
C84 C 0.61613 0.54593 0.87501 0.0
C85 C 0.67333 0.4669 0.88289 0.0
H86 H 0.09125 0.16755 0.08803 0.0
H87 H 0.07508 0.13835 0.12783 0.0
H88 H 0.20435 0.0823 0.10713 0.0
H89 H 0.22114 0.11158 0.06729 0.0
H90 H 0.06715 0.07604 0.13036 0.0
H91 H 0.21154 0.10927 0.18515 0.0
H92 H 0.19174 0.12949 0.15698 0.0
H93 H 0.22751 0.0948 0.1517 0.0
C94 C 0.11643 0.14912 0.09197 0.0
C95 C 0.15762 0.14199 0.07455 0.0
C96 C 0.10701 0.13238 0.11466 0.0
C97 C 0.13864 0.1083 0.12047 0.0
C98 C 0.17977 0.10103 0.10315 0.0
H99 H 0.11809 0.01459 0.27248 0.0
H100 H 0.14192 0.02273 0.22504 0.0
C101 C 0.18924 0.11776 0.08039 0.0
C102 C 0.12823 0.09107 0.14481 0.0
H103 H 0.1613 0.07794 0.20715 0.0
C104 C 0.088 0.07615 0.14707 0.0
C105 C 0.1558 0.09101 0.16642 0.0
C106 C 0.19893 0.10711 0.16519 0.0
C107 C 0.07368 0.062 0.17075 0.0
C108 C 0.09983 0.06332 0.19286 0.0
C109 C 0.14136 0.07694 0.19014 0.0
C110 C 0.08189 0.05418 0.21988 0.0
C111 C 0.03028 0.0462 0.17207 0.0
C112 C 0.03989 0.06873 0.23251 0.0
C113 C 0.02627 0.0641 0.25946 0.0
C114 C 0.05438 0.04482 0.27431 0.0
C115 C 0.09539 0.02922 0.26139 0.0
C116 C 0.10914 0.03395 0.23437 0.0
H117 H 0.02385 0.0386 0.1519 0.0
H118 H 0.03303 0.02688 0.18537 0.0
H119 H -0.00054 0.0616 0.18011 0.0
H120 H 0.01884 0.0849 0.22192 0.0
H121 H 0.99463 0.07653 0.26896 0.0
H122 H 0.02869 0.85678 0.07261 0.0
H123 H 0.03542 0.89405 0.10687 0.0
H124 H 0.02591 0.82814 0.16771 0.0
H125 H 0.01822 0.79101 0.13381 0.0
H126 H 0.96951 0.87977 0.18169 0.0
H127 H 0.15072 0.90262 0.14539 0.0
H128 H 0.10863 0.90738 0.12147 0.0
H129 H 0.12521 0.87123 0.13366 0.0
C130 C 0.02813 0.85023 0.09329 0.0
C131 C 0.0231 0.82088 0.10048 0.0
C132 C 0.03219 0.87154 0.11282 0.0
C133 C 0.03175 0.8638 0.1398 0.0
C134 C 0.02637 0.8346 0.147 0.0
H135 H 0.13268 0.92205 0.27803 0.0
H136 H 0.11898 0.90394 0.2342 0.0
C137 C 0.02209 0.81336 0.12757 0.0
C138 C 0.03672 0.88585 0.16084 0.0
H139 H 0.11479 0.92807 0.18426 0.0
C140 C 0.00101 0.89065 0.18214 0.0
C141 C 0.07791 0.89997 0.16132 0.0
C142 C 0.11804 0.89497 0.13938 0.0
C143 C 0.00619 0.90807 0.2045 0.0
C144 C 0.0479 0.92158 0.20532 0.0
C145 C 0.08272 0.91788 0.18346 0.0
C146 C 0.0589 0.93577 0.23017 0.0
C147 C 0.96819 0.91035 0.22774 0.0
C148 C 0.03053 0.96033 0.24217 0.0
C149 C 0.03801 0.97056 0.26752 0.0
C150 C 0.07441 0.95665 0.28099 0.0
C151 C 0.10421 0.93315 0.26821 0.0
C152 C 0.09658 0.92287 0.24308 0.0
H153 H 0.94217 0.89445 0.22574 0.0
H154 H 0.98353 0.90627 0.24688 0.0
H155 H 0.9493 0.93292 0.22877 0.0
H156 H 0.00169 0.97092 0.23235 0.0
H157 H 0.01414 0.98846 0.27702 0.0
H158 H 0.69255 0.64979 0.59334 0.0
H159 H 0.68059 0.62021 0.63349 0.0
H160 H 0.54694 0.67104 0.65546 0.0
H161 H 0.55862 0.70089 0.61553 0.0
H162 H 0.65918 0.64311 0.69018 0.0
H163 H 0.5225 0.58071 0.6538 0.0
H164 H 0.56353 0.59854 0.63145 0.0
H165 H 0.51484 0.6201 0.65 0.0
C166 C 0.66068 0.65476 0.60676 0.0
C167 C 0.62648 0.67766 0.60123 0.0
C168 C 0.65393 0.63783 0.62965 0.0
C169 C 0.61266 0.64326 0.64716 0.0
C170 C 0.57878 0.66633 0.64195 0.0
H171 H 0.53354 0.59135 0.80787 0.0
H172 H 0.547 0.6164 0.76543 0.0
C173 C 0.58565 0.68345 0.61922 0.0
C174 C 0.60509 0.62503 0.67111 0.0
H175 H 0.53644 0.57453 0.69917 0.0
C176 C 0.63255 0.628 0.69213 0.0
C177 C 0.57058 0.6052 0.67339 0.0
C178 C 0.54127 0.60065 0.65093 0.0
C179 C 0.62544 0.61219 0.71579 0.0
C180 C 0.58999 0.59302 0.71839 0.0
C181 C 0.5634 0.58941 0.69709 0.0
C182 C 0.57936 0.57725 0.74349 0.0
C183 C 0.65566 0.61613 0.73795 0.0
C184 C 0.59216 0.54679 0.74496 0.0
C185 C 0.58486 0.5324 0.76929 0.0
C186 C 0.56421 0.54824 0.79243 0.0
C187 C 0.54993 0.57855 0.79054 0.0
C188 C 0.55752 0.59292 0.76631 0.0
H189 H 0.68675 0.62753 0.73106 0.0
H190 H 0.63467 0.62951 0.75443 0.0
H191 H 0.66777 0.59443 0.74618 0.0
H192 H 0.60902 0.53437 0.72748 0.0
H193 H 0.59676 0.50913 0.77014 0.0
H194 H 0.52217 0.32196 0.5858 0.0
H195 H 0.53281 0.36342 0.61494 0.0
H196 H 0.51101 0.30912 0.68405 0.0
H197 H 0.49944 0.26792 0.65525 0.0
H198 H 0.46204 0.36481 0.69055 0.0
H199 H 0.64912 0.37126 0.65293 0.0
H200 H 0.60796 0.37448 0.62842 0.0
H201 H 0.6187 0.34026 0.64533 0.0
C202 C 0.51966 0.31887 0.60721 0.0
C203 C 0.51017 0.29157 0.6182 0.0
C204 C 0.52593 0.34256 0.62382 0.0
C205 C 0.52324 0.33926 0.65165 0.0
C206 C 0.51323 0.31216 0.66262 0.0
H207 H 0.63135 0.40116 0.78347 0.0
H208 H 0.61478 0.38201 0.74069 0.0
C209 C 0.50676 0.28858 0.64611 0.0
C210 C 0.53128 0.36365 0.66969 0.0
H211 H 0.61708 0.40242 0.68902 0.0
C212 C 0.49567 0.37345 0.69001 0.0
C213 C 0.5752 0.37486 0.66884 0.0
C214 C 0.61516 0.36462 0.64786 0.0
C215 C 0.5036 0.39282 0.71043 0.0
C216 C 0.54817 0.4031 0.71022 0.0
C217 C 0.58287 0.39467 0.689 0.0
C218 C 0.562 0.4179 0.73404 0.0
C219 C 0.46531 0.40043 0.73305 0.0
C220 C 0.539 0.44509 0.74415 0.0
C221 C 0.54833 0.45613 0.76891 0.0
C222 C 0.58087 0.4401 0.78373 0.0
C223 C 0.60577 0.41389 0.77266 0.0
C224 C 0.5965 0.40297 0.7481 0.0
H225 H 0.43534 0.38727 0.73204 0.0
H226 H 0.47917 0.39664 0.75265 0.0
H227 H 0.45194 0.4241 0.73215 0.0
H228 H 0.51274 0.45721 0.7334 0.0
H229 H 0.5285 0.47632 0.77702 0.0
H230 H 0.17557 0.3082 0.97903 0.0
H231 H 0.22235 0.34855 0.96671 0.0
H232 H 0.33538 0.30604 0.00705 0.0
H233 H 0.28834 0.26569 0.01969 0.0
H234 H 0.27049 0.38862 0.99576 0.0
H235 H 0.39034 0.31057 0.92822 0.0
H236 H 0.33383 0.30186 0.94294 0.0
H237 H 0.38297 0.29896 0.96231 0.0
C238 C 0.20959 0.30803 0.9862 0.0
C239 C 0.22795 0.28412 0.0008 0.0
C240 C 0.23649 0.33096 0.97889 0.0
C241 C 0.28237 0.33016 0.98582 0.0
C242 C 0.30014 0.3069 0.00131 0.0
H243 H 0.5226 0.41923 0.94375 0.0
H244 H 0.46014 0.39474 0.96779 0.0
C245 C 0.2733 0.28392 0.00853 0.0
C246 C 0.31309 0.35214 0.97487 0.0
H247 H 0.41364 0.35808 0.93402 0.0
C248 C 0.30174 0.38206 0.9822 0.0
C249 C 0.35334 0.34351 0.95681 0.0
C250 C 0.36572 0.31204 0.94685 0.0
C251 C 0.3308 0.40342 0.97266 0.0
C252 C 0.37178 0.3945 0.95535 0.0
C253 C 0.38236 0.36475 0.94756 0.0
C254 C 0.40562 0.41509 0.94543 0.0
C255 C 0.31839 0.43516 0.98157 0.0
C256 C 0.39516 0.43563 0.92562 0.0
C257 C 0.43097 0.44989 0.9119 0.0
C258 C 0.47747 0.44343 0.91775 0.0
C259 C 0.487 0.42454 0.93888 0.0
C260 C 0.45139 0.41057 0.95264 0.0
H261 H 0.28872 0.43789 -0.0023 0.0
H262 H 0.34924 0.444 0.9888 0.0
H263 H 0.30841 0.44853 0.96429 0.0
H264 H 0.36014 0.43905 0.9195 0.0
H265 H 0.42297 0.46402 0.89539 0.0
H266 H 0.85623 0.74034 0.97109 0.0
H267 H 0.79293 0.71542 0.95526 0.0
H268 H 0.87369 0.63116 0.96282 0.0
H269 H 0.93627 0.65563 0.97907 0.0
H270 H 0.79779 0.68051 0.91042 0.0
H271 H 0.74747 0.6163 -0.00026 0.0
H272 H 0.783 0.64638 0.00092 0.0
H273 H 0.80926 0.61022 0.98957 0.0
C274 C 0.86015 0.71649 0.96974 0.0
C275 C 0.90123 0.69997 0.97642 0.0
C276 C 0.82402 0.7023 0.96066 0.0
C277 C 0.82828 0.67142 0.95828 0.0
C278 C 0.86909 0.65495 0.96515 0.0
H279 H 0.70738 0.53421 0.88434 0.0
H280 H 0.75551 0.56691 0.90506 0.0
C281 C 0.90503 0.66904 0.97427 0.0
C282 C 0.79175 0.65624 0.947 0.0
H283 H 0.72473 0.59943 0.95807 0.0
C284 C 0.78114 0.66314 0.921 0.0
C285 C 0.77002 0.63361 0.96087 0.0
C286 C 0.77765 0.6264 0.98942 0.0
C287 C 0.75112 0.64702 0.90803 0.0
C288 C 0.73122 0.62357 0.92149 0.0
C289 C 0.74049 0.61731 0.94778 0.0
C290 C 0.70227 0.60439 0.90825 0.0
C291 C 0.74227 0.65428 0.87967 0.0
C292 C 0.65656 0.61476 0.90316 0.0
C293 C 0.62876 0.59593 0.89173 0.0
C294 C 0.64632 0.56648 0.88532 0.0
C295 C 0.69254 0.55648 0.88982 0.0
C296 C 0.72016 0.5752 0.9014 0.0
H297 H 0.76467 0.67087 0.87096 0.0
H298 H 0.74881 0.63401 0.86688 0.0
H299 H 0.70499 0.66317 0.87928 0.0
H300 H 0.64215 0.6372 0.9085 0.0
H301 H 0.59319 0.60421 0.88856 0.0
H302 H 0.01302 0.39239 0.01971 0.0
H303 H 0.95 0.42954 0.00906 0.0
H304 H 0.97772 0.40384 0.92571 0.0
H305 H 0.04145 0.36766 0.93597 0.0
H306 H 0.95599 0.46328 0.93202 0.0
H307 H 0.82581 0.40391 0.99439 0.0
H308 H 0.87066 0.41794 0.01133 0.0
H309 H 0.88607 0.38859 0.98693 0.0
C310 C 0.00601 0.39496 -0.00093 0.0
C311 C 0.03175 0.37678 0.97872 0.0
C312 C 0.96988 0.41611 0.99305 0.0
C313 C 0.95848 0.41902 0.96668 0.0
C314 C 0.9858 0.40195 0.94622 0.0
H315 H 0.76118 0.44387 0.8649 0.0
H316 H 0.83129 0.44337 0.8882 0.0
C317 C 0.02215 0.38114 0.95215 0.0
C318 C 0.91607 0.43779 0.96014 0.0
H319 H 0.79679 0.44009 0.96619 0.0
C320 C 0.92112 0.4587 0.93993 0.0
C321 C 0.8705 0.43199 0.97062 0.0
C322 C 0.86263 0.40929 0.99188 0.0
C323 C 0.88208 0.47221 0.92853 0.0
C324 C 0.83706 0.46458 0.93757 0.0
C325 C 0.83153 0.44585 0.95938 0.0
C326 C 0.79715 0.47063 0.92155 0.0
C327 C 0.88943 0.49328 0.90589 0.0
C328 C 0.75485 0.48646 0.93246 0.0
C329 C 0.71475 0.48698 0.91898 0.0
C330 C 0.71649 0.4712 0.89476 0.0
C331 C 0.7592 0.45633 0.88348 0.0
C332 C 0.79927 0.45623 0.89667 0.0
H333 H 0.92211 0.50385 0.90686 0.0
H334 H 0.89262 0.48092 0.88659 0.0
H335 H 0.85931 0.5107 0.90617 0.0
H336 H 0.75246 0.49733 0.95184 0.0
H337 H 0.68191 0.4983 0.92812 0.0
H338 H 0.1484 0.7157 0.95255 0.0
H339 H 0.21559 0.67981 0.93832 0.0
H340 H 0.22186 0.65219 0.01978 0.0
H341 H 0.15444 0.68828 0.03438 0.0
H342 H 0.31069 0.65944 0.99107 0.0
H343 H 0.20737 0.5899 0.93488 0.0
H344 H 0.20039 0.62808 0.92602 0.0
H345 H 0.18044 0.6175 0.95932 0.0
C346 C 0.16418 0.70222 0.96755 0.0
C347 C 0.14574 0.70474 0.99461 0.0
C348 C 0.2024 0.68154 0.95932 0.0
C349 C 0.22292 0.6629 0.97791 0.0
C350 C 0.2061 0.66618 0.0051 0.0
H351 H 0.4293 0.51379 0.91754 0.0
H352 H 0.36231 0.54155 0.94429 0.0
C353 C 0.16769 0.68687 0.01339 0.0
C354 C 0.26188 0.64004 0.96868 0.0
H355 H 0.29095 0.58162 0.92511 0.0
C356 C 0.3063 0.64215 0.97695 0.0
C357 C 0.25584 0.61714 0.95069 0.0
C358 C 0.20834 0.61275 0.94239 0.0
C359 C 0.34547 0.62304 0.96639 0.0
C360 C 0.34001 0.60156 0.94689 0.0
C361 C 0.29511 0.59828 0.93988 0.0
C362 C 0.38092 0.58437 0.93164 0.0
C363 C 0.39257 0.62639 0.97576 0.0
C364 C 0.41292 0.59921 0.91542 0.0
C365 C 0.45067 0.5835 0.90005 0.0
C366 C 0.45727 0.55252 0.90043 0.0
C367 C 0.4251 0.5376 0.91671 0.0
C368 C 0.38696 0.55342 0.93205 0.0
H369 H 0.38874 0.63694 0.99596 0.0
H370 H 0.41403 0.6047 0.97632 0.0
H371 H 0.41176 0.64065 0.96171 0.0
H372 H 0.40838 0.62305 0.91437 0.0
H373 H 0.47463 0.59581 0.88791 0.0
H374 H 0.65466 0.83728 0.49086 0.0
H375 H 0.70859 0.87223 0.47384 0.0
H376 H 0.81604 0.82826 0.51745 0.0
H377 H 0.76189 0.79335 0.53479 0.0
H378 H 0.76402 0.91155 0.49819 0.0
H379 H 0.87149 0.82077 0.43845 0.0
H380 H 0.81338 0.81712 0.45431 0.0
H381 H 0.86257 0.81386 0.47363 0.0
C382 C 0.68911 0.83576 0.49767 0.0
C383 C 0.70376 0.81297 0.5146 0.0
C384 C 0.72009 0.85556 0.48768 0.0
C385 C 0.76637 0.85268 0.49422 0.0
C386 C 0.78057 0.83064 0.51194 0.0
H387 H 0.0205 0.92408 0.43653 0.0
H388 H 0.95806 0.90144 0.46267 0.0
C389 C 0.74965 0.81079 0.52187 0.0
C390 C 0.80078 0.87114 0.48087 0.0
H391 H 0.90182 0.86676 0.43849 0.0
C392 C 0.79419 0.90185 0.48512 0.0
C393 C 0.83966 0.8584 0.46353 0.0
C394 C 0.84712 0.82577 0.45694 0.0
C395 C 0.82645 0.92008 0.47308 0.0
C396 C 0.86581 0.90718 0.4562 0.0
C397 C 0.87183 0.87655 0.45167 0.0
C398 C 0.90197 0.9246 0.44312 0.0
C399 C 0.81875 0.95283 0.47886 0.0
C400 C 0.89106 0.94559 0.42376 0.0
C401 C 0.92685 0.95865 0.4088 0.0
C402 C 0.97392 0.95076 0.41295 0.0
C403 C 0.98448 0.93053 0.43293 0.0
C404 C 0.94887 0.91765 0.44791 0.0
H405 H 0.79304 0.9584 0.4967 0.0
H406 H 0.85223 0.96152 0.48206 0.0
H407 H 0.80496 0.96419 0.46144 0.0
H408 H 0.85522 0.95081 0.41933 0.0
H409 H 0.91792 0.97372 0.39312 0.0
H410 H 0.47545 0.15654 0.45575 0.0
H411 H 0.41251 0.13495 0.43662 0.0
H412 H 0.31041 0.19873 0.48007 0.0
H413 H 0.37342 0.22083 0.49915 0.0
H414 H 0.33855 0.11003 0.46445 0.0
H415 H 0.27369 0.20392 0.40355 0.0
H416 H 0.32961 0.20178 0.41686 0.0
H417 H 0.27644 0.21284 0.43814 0.0
C418 C 0.43966 0.16619 0.46112 0.0
C419 C 0.42945 0.19047 0.47895 0.0
C420 C 0.40374 0.15377 0.45016 0.0
C421 C 0.35689 0.16543 0.45668 0.0
C422 C 0.34645 0.18975 0.47438 0.0
H423 H 0.09322 0.11376 0.41485 0.0
H424 H 0.15507 0.13683 0.43409 0.0
C425 C 0.38245 0.20226 0.48537 0.0
C426 C 0.31909 0.15122 0.44573 0.0
H427 H 0.22943 0.16305 0.4066 0.0
C428 C 0.31477 0.12158 0.45172 0.0
C429 C 0.28812 0.16639 0.4292 0.0
C430 C 0.29228 0.19792 0.42131 0.0
C431 C 0.27991 0.10675 0.44186 0.0
C432 C 0.24906 0.12184 0.42524 0.0
C433 C 0.25322 0.15154 0.41934 0.0
C434 C 0.21192 0.10729 0.41393 0.0
C435 C 0.27567 0.07528 0.44976 0.0
C436 C 0.22347 0.08326 0.39597 0.0
C437 C 0.18818 0.07009 0.38495 0.0
C438 C 0.14087 0.08069 0.39178 0.0
C439 C 0.12946 0.10501 0.40943 0.0
C440 C 0.16468 0.11817 0.42043 0.0
H441 H 0.296 0.06868 0.46672 0.0
H442 H 0.23837 0.07201 0.45537 0.0
H443 H 0.28928 0.06052 0.43246 0.0
H444 H 0.25978 0.075 0.39013 0.0
H445 H 0.19792 0.0521 0.37062 0.0
H446 H 0.53913 0.91464 0.44729 0.0
H447 H 0.47368 0.94782 0.43453 0.0
H448 H 0.41518 0.95716 0.51713 0.0
H449 H 0.48007 0.923 0.52999 0.0
H450 H 0.35316 0.94153 0.48784 0.0
H451 H 0.4304 0.0337 0.43672 0.0
H452 H 0.45976 0.99962 0.42264 0.0
H453 H 0.46326 0.00866 0.4573 0.0
C454 C 0.51294 0.92423 0.46286 0.0
C455 C 0.51458 0.91595 0.48963 0.0
C456 C 0.47568 0.94354 0.45555 0.0
C457 C 0.43974 0.95545 0.47489 0.0
C458 C 0.44262 0.94842 0.50186 0.0
H459 H 0.15914 0.01824 0.42868 0.0
H460 H 0.22553 0.01819 0.45558 0.0
C461 C 0.47969 0.92883 0.50917 0.0
C462 C 0.39616 0.9712 0.46633 0.0
H463 H 0.35726 0.02078 0.42088 0.0
C464 C 0.35373 0.95955 0.47389 0.0
C465 C 0.39672 0.99482 0.44822 0.0
C466 C 0.43999 0.01008 0.44103 0.0
C467 C 0.31298 0.96903 0.46207 0.0
C468 C 0.31469 0.99084 0.44226 0.0
C469 C 0.35612 0.00399 0.43604 0.0
C470 C 0.2764 0.99647 0.42501 0.0
C471 C 0.26939 0.954 0.46932 0.0
C472 C 0.28351 0.98514 0.39875 0.0
C473 C 0.24577 0.9847 0.38368 0.0
C474 C 0.20056 0.99618 0.39442 0.0
C475 C 0.1939 0.00951 0.41997 0.0
C476 C 0.23165 0.00944 0.4353 0.0
H477 H 0.27539 0.93545 0.48319 0.0
H478 H 0.2412 0.97023 0.47913 0.0
H479 H 0.25674 0.94539 0.45103 0.0
H480 H 0.31773 0.9749 0.39053 0.0
H481 H 0.25153 0.9742 0.36404 0.0
H482 H 0.61 0.13325 0.5605 0.0
H483 H 0.67372 0.09468 0.54592 0.0
H484 H 0.74079 0.15663 0.49473 0.0
H485 H 0.67759 0.19518 0.50912 0.0
H486 H 0.69382 0.07546 0.49265 0.0
H487 H 0.85052 0.11397 0.52964 0.0
H488 H 0.79157 0.12733 0.54353 0.0
H489 H 0.81743 0.14284 0.5134 0.0
C490 C 0.63892 0.13886 0.54664 0.0
C491 C 0.63864 0.1673 0.53589 0.0
C492 C 0.67522 0.11675 0.5383 0.0
C493 C 0.71219 0.12286 0.51946 0.0
C494 C 0.71307 0.15156 0.50969 0.0
H495 H 0.86563 0.05835 0.38433 0.0
H496 H 0.80372 0.0683 0.42113 0.0
C497 C 0.67672 0.17357 0.51782 0.0
C498 C 0.74704 0.09887 0.50744 0.0
H499 H 0.86436 0.08318 0.48934 0.0
C500 C 0.73119 0.0766 0.49251 0.0
C501 C 0.79574 0.09996 0.50765 0.0
C502 C 0.81483 0.12215 0.52467 0.0
C503 C 0.7627 0.05726 0.47572 0.0
C504 C 0.81109 0.0605 0.4737 0.0
C505 C 0.8272 0.08081 0.49068 0.0
C506 C 0.8442 0.04745 0.45109 0.0
C507 C 0.7436 0.03458 0.45924 0.0
C508 C 0.88723 0.03165 0.45548 0.0
C509 C 0.92281 0.02589 0.4343 0.0
C510 C 0.91586 0.03619 0.4086 0.0
C511 C 0.87172 0.05007 0.40394 0.0
C512 C 0.83619 0.05558 0.42497 0.0
H513 H 0.71209 0.02659 0.47025 0.0
H514 H 0.73283 0.04487 0.44061 0.0
H515 H 0.77015 0.01544 0.45376 0.0
H516 H 0.89423 0.02539 0.47553 0.0
H517 H 0.95678 0.01546 0.43843 0.0
loop_
_geom_bond_atom_site_label_1
_geom_bond_atom_site_label_2
_geom_bond_distance
_geom_bond_site_symmetry_2
_ccdc_geom_bond_type
O0 Cd1 2.300 . S
O0 C7 1.275 . S
Cd1 O0 2.300 . S
Cd1 O9 2.381 . S
Cd1 O10 2.378 . S
O2 Cd3 2.385 . S
O2 C7 1.255 . S
Cd3 O2 2.385 . S
Cd3 O4 2.317 . S
O4 Cd3 2.317 . S
O4 C5 1.232 1_554 S
C5 O4 1.232 1_556 S
C5 O6 1.218 . S
O6 C5 1.218 . S
C7 O0 1.275 . S
C7 O2 1.255 . S
C8 O9 1.258 . S
C8 O10 1.256 . S
O9 Cd1 2.381 . S
O9 C8 1.258 . S
O10 Cd1 2.378 . S
O10 C8 1.256 . S
O11 Cd12 2.300 . S
O11 C18 1.275 . S
Cd12 O11 2.300 . S
Cd12 O20 2.381 . S
Cd12 O21 2.378 1_455 S
O13 Cd14 2.385 1_455 S
O13 C18 1.255 1_556 S
Cd14 O13 2.385 1_655 S
Cd14 O15 2.317 1_556 S
O15 Cd14 2.317 1_554 S
O15 C16 1.232 1_554 S
C16 O15 1.232 1_556 S
C16 O17 1.218 . S
O17 C16 1.218 . S
C18 O11 1.275 . S
C18 O13 1.255 1_554 S
C19 O20 1.258 . S
C19 O21 1.256 1_455 S
O20 Cd12 2.381 . S
O20 C19 1.258 . S
O21 Cd12 2.378 1_655 S
O21 C19 1.256 1_655 S
O22 Cd23 2.300 . S
O22 C29 1.275 . S
Cd23 O22 2.300 . S
Cd23 O31 2.381 . S
Cd23 O32 2.378 . S
O24 Cd25 2.385 . S
O24 C29 1.255 . S
Cd25 O24 2.385 . S
Cd25 O26 2.317 . S
O26 Cd25 2.317 . S
O26 C27 1.232 . S
C27 O26 1.232 . S
C27 O28 1.218 . S
O28 C27 1.218 . S
C29 O22 1.275 . S
C29 O24 1.255 . S
C30 O31 1.258 . S
C30 O32 1.256 . S
O31 Cd23 2.381 . S
O31 C30 1.258 . S
O32 Cd23 2.378 . S
O32 C30 1.256 . S
O33 Cd34 2.300 . S
O33 C40 1.275 . S
Cd34 O33 2.300 . S
Cd34 O42 2.381 . S
Cd34 O43 2.378 . S
O35 Cd36 2.385 . S
O35 C40 1.255 . S
Cd36 O35 2.385 . S
Cd36 O37 2.317 . S
O37 Cd36 2.317 . S
O37 C38 1.232 . S
C38 O37 1.232 . S
C38 O39 1.218 . S
O39 C38 1.218 . S
C40 O33 1.275 . S
C40 O35 1.255 . S
C41 O42 1.258 . S
C41 O43 1.256 . S
O42 Cd34 2.381 . S
O42 C41 1.258 . S
O43 Cd34 2.378 . S
O43 C41 1.256 . S
Zn44 O50 1.920 . S
Zn44 O56 1.898 . S
Zn44 O59 1.905 . S
Zn45 O53 1.905 . S
Zn45 O54 1.898 . S
Zn45 O62 1.920 . S
Zn46 O49 2.080 . S
Zn46 O52 2.114 1_545 S
Zn46 O55 2.120 1_545 S
Zn46 O57 2.120 . S
Zn46 O58 2.114 . S
Zn46 O61 2.080 1_545 S
C47 O52 1.166 . S
C47 O53 1.182 . S
C48 O54 1.167 . S
C48 O55 1.299 . S
O49 Zn46 2.080 . S
O49 C63 1.305 . S
O50 Zn44 1.920 . S
O50 C63 1.234 . S
C51 O56 1.167 . S
C51 O57 1.299 . S
O52 Zn46 2.114 1_565 S
O52 C47 1.166 . S
O53 Zn45 1.905 . S
O53 C47 1.182 . S
O54 Zn45 1.898 . S
O54 C48 1.167 . S
O55 Zn46 2.120 1_565 S
O55 C48 1.299 . S
O56 Zn44 1.898 . S
O56 C51 1.167 . S
O57 Zn46 2.120 . S
O57 C51 1.299 . S
O58 Zn46 2.114 . S
O58 C60 1.166 1_455 S
O59 Zn44 1.905 . S
O59 C60 1.182 1_455 S
C60 O58 1.166 1_655 S
C60 O59 1.182 1_655 S
O61 Zn46 2.080 1_565 S
O61 C64 1.305 . S
O62 Zn45 1.920 . S
O62 C64 1.234 . S
C63 O49 1.305 . S
C63 O50 1.234 . S
C64 O61 1.305 . S
C64 O62 1.234 . S
Zn65 O71 1.920 . S
Zn65 O77 1.898 . S
Zn65 O80 1.905 . S
Zn66 O74 1.905 . S
Zn66 O75 1.898 . S
Zn66 O83 1.920 . S
Zn67 O70 2.080 . S
Zn67 O73 2.114 . S
Zn67 O76 2.120 . S
Zn67 O78 2.120 . S
Zn67 O79 2.114 . S
Zn67 O82 2.080 . S
C68 O73 1.166 . S
C68 O74 1.182 . S
C69 O75 1.167 . S
C69 O76 1.299 . S
O70 Zn67 2.080 . S
O70 C84 1.305 . S
O71 Zn65 1.920 . S
O71 C84 1.234 . S
C72 O77 1.167 . S
C72 O78 1.299 . S
O73 Zn67 2.114 . S
O73 C68 1.166 . S
O74 Zn66 1.905 . S
O74 C68 1.182 . S
O75 Zn66 1.898 . S
O75 C69 1.167 . S
O76 Zn67 2.120 . S
O76 C69 1.299 . S
O77 Zn65 1.898 . S
O77 C72 1.167 . S
O78 Zn67 2.120 . S
O78 C72 1.299 . S
O79 Zn67 2.114 . S
O79 C81 1.166 . S
O80 Zn65 1.905 . S
O80 C81 1.182 . S
C81 O79 1.166 . S
C81 O80 1.182 . S
O82 Zn67 2.080 . S
O82 C85 1.305 . S
O83 Zn66 1.920 . S
O83 C85 1.234 . S
C84 O70 1.305 . S
C84 O71 1.234 . S
C85 O82 1.305 . S
C85 O83 1.234 . S
H86 C94 0.929 . S
H87 C96 0.930 . S
H88 C98 0.930 . S
H89 C101 0.929 . S
H90 C104 0.930 . S
H91 C106 0.960 . S
H92 C106 0.960 . S
H93 C106 0.960 . S
C94 H86 0.929 . S
C94 C95 1.377 . S
C94 C96 1.384 . S
C95 C94 1.377 . S
C95 C101 1.390 . S
C96 H87 0.930 . S
C96 C94 1.384 . S
C96 C97 1.372 . S
C97 C96 1.372 . S
C97 C98 1.400 . S
C97 C102 1.490 . S
C98 H88 0.930 . S
C98 C97 1.400 . S
C98 C101 1.386 . S
H99 C115 0.930 . S
H100 C116 0.931 . S
C101 H89 0.929 . S
C101 C95 1.390 . S
C101 C98 1.386 . S
C102 C97 1.490 . S
C102 C104 1.395 . S
C102 C105 1.403 . S
H103 C109 0.930 . S
C104 H90 0.930 . S
C104 C102 1.395 . S
C104 C107 1.403 . S
C105 C102 1.403 . S
C105 C106 1.524 . S
C105 C109 1.400 . S
C106 H91 0.960 . S
C106 H92 0.960 . S
C106 H93 0.960 . S
C106 C105 1.524 . S
C107 C104 1.403 . S
C107 C108 1.392 . S
C107 C111 1.495 . S
C108 C107 1.392 . S
C108 C109 1.385 . S
C108 C110 1.478 . S
C109 H103 0.930 . S
C109 C105 1.400 . S
C109 C108 1.385 . S
C110 C108 1.478 . S
C110 C112 1.381 . S
C110 C116 1.383 . S
C111 C107 1.495 . S
C111 H117 0.959 . S
C111 H118 0.961 . S
C111 H119 0.960 . S
C112 C110 1.381 . S
C112 C113 1.394 . S
C112 H120 0.930 . S
C113 C112 1.394 . S
C113 C114 1.383 . S
C113 H121 0.929 . S
C114 C113 1.383 . S
C114 C115 1.377 . S
C115 H99 0.930 . S
C115 C114 1.377 . S
C115 C116 1.379 . S
C116 H100 0.931 . S
C116 C110 1.383 . S
C116 C115 1.379 . S
H117 C111 0.959 . S
H118 C111 0.961 . S
H119 C111 0.960 . S
H120 C112 0.930 . S
H121 C113 0.929 . S
H122 C130 0.929 . S
H123 C132 0.930 . S
H124 C134 0.930 . S
H125 C137 0.929 . S
H126 C140 0.930 . S
H127 C142 0.960 . S
H128 C142 0.960 . S
H129 C142 0.960 . S
C130 H122 0.929 . S
C130 C131 1.377 1_655 S
C130 C132 1.384 . S
C131 C130 1.377 1_455 S
C131 C137 1.390 . S
C132 H123 0.930 . S
C132 C130 1.384 . S
C132 C133 1.372 1_655 S
C133 C132 1.372 1_455 S
C133 C134 1.400 . S
C133 C138 1.490 . S
C134 H124 0.930 . S
C134 C133 1.400 . S
C134 C137 1.386 . S
H135 C151 0.930 . S
H136 C152 0.931 . S
C137 H125 0.929 . S
C137 C131 1.390 . S
C137 C134 1.386 . S
C138 C133 1.490 . S
C138 C140 1.395 1_455 S
C138 C141 1.403 . S
H139 C145 0.930 . S
C140 H126 0.930 . S
C140 C138 1.395 1_655 S
C140 C143 1.403 . S
C141 C138 1.403 . S
C141 C142 1.524 . S
C141 C145 1.400 . S
C142 H127 0.960 . S
C142 H128 0.960 . S
C142 H129 0.960 . S
C142 C141 1.524 . S
C143 C140 1.403 . S
C143 C144 1.392 1_655 S
C143 C147 1.495 . S
C144 C143 1.392 1_455 S
C144 C145 1.385 . S
C144 C146 1.478 . S
C145 H139 0.930 . S
C145 C141 1.400 . S
C145 C144 1.385 . S
C146 C144 1.478 . S
C146 C148 1.381 . S
C146 C152 1.383 . S
C147 C143 1.495 . S
C147 H153 0.959 . S
C147 H154 0.961 . S
C147 H155 0.960 . S
C148 C146 1.381 . S
C148 C149 1.394 . S
C148 H156 0.930 1_455 S
C149 C148 1.394 . S
C149 C150 1.383 . S
C149 H157 0.929 1_455 S
C150 C149 1.383 . S
C150 C151 1.377 . S
C151 H135 0.930 . S
C151 C150 1.377 . S
C151 C152 1.379 . S
C152 H136 0.931 . S
C152 C146 1.383 . S
C152 C151 1.379 . S
H153 C147 0.959 . S
H154 C147 0.961 . S
H155 C147 0.960 . S
H156 C148 0.930 1_655 S
H157 C149 0.929 1_655 S
H158 C166 0.929 . S
H159 C168 0.930 . S
H160 C170 0.930 . S
H161 C173 0.929 . S
H162 C176 0.930 . S
H163 C178 0.960 . S
H164 C178 0.960 . S
H165 C178 0.960 . S
C166 H158 0.929 . S
C166 C167 1.377 . S
C166 C168 1.384 . S
C167 C166 1.377 . S
C167 C173 1.390 . S
C168 H159 0.930 . S
C168 C166 1.384 . S
C168 C169 1.372 . S
C169 C168 1.372 . S
C169 C170 1.400 . S
C169 C174 1.490 . S
C170 H160 0.930 . S
C170 C169 1.400 . S
C170 C173 1.386 . S
H171 C187 0.930 . S
H172 C188 0.931 . S
C173 H161 0.929 . S
C173 C167 1.390 . S
C173 C170 1.386 . S
C174 C169 1.490 . S
C174 C176 1.395 . S
C174 C177 1.403 . S
H175 C181 0.930 . S
C176 H162 0.930 . S
C176 C174 1.395 . S
C176 C179 1.403 . S
C177 C174 1.403 . S
C177 C178 1.524 . S
C177 C181 1.400 . S
C178 H163 0.960 . S
C178 H164 0.960 . S
C178 H165 0.960 . S
C178 C177 1.524 . S
C179 C176 1.403 . S
C179 C180 1.392 . S
C179 C183 1.495 . S
C180 C179 1.392 . S
C180 C181 1.385 . S
C180 C182 1.478 . S
C181 H175 0.930 . S
C181 C177 1.400 . S
C181 C180 1.385 . S
C182 C180 1.478 . S
C182 C184 1.381 . S
C182 C188 1.383 . S
C183 C179 1.495 . S
C183 H189 0.959 . S
C183 H190 0.961 . S
C183 H191 0.960 . S
C184 C182 1.381 . S
C184 C185 1.394 . S
C184 H192 0.930 . S
C185 C184 1.394 . S
C185 C186 1.383 . S
C185 H193 0.929 . S
C186 C185 1.383 . S
C186 C187 1.377 . S
C187 H171 0.930 . S
C187 C186 1.377 . S
C187 C188 1.379 . S
C188 H172 0.931 . S
C188 C182 1.383 . S
C188 C187 1.379 . S
H189 C183 0.959 . S
H190 C183 0.961 . S
H191 C183 0.960 . S
H192 C184 0.930 . S
H193 C185 0.929 . S
H194 C202 0.929 . S
H195 C204 0.930 . S
H196 C206 0.930 . S
H197 C209 0.929 . S
H198 C212 0.930 . S
H199 C214 0.960 . S
H200 C214 0.960 . S
H201 C214 0.960 . S
C202 H194 0.929 . S
C202 C203 1.377 . S
C202 C204 1.384 . S
C203 C202 1.377 . S
C203 C209 1.390 . S
C204 H195 0.930 . S
C204 C202 1.384 . S
C204 C205 1.372 . S
C205 C204 1.372 . S
C205 C206 1.400 . S
C205 C210 1.490 . S
C206 H196 0.930 . S
C206 C205 1.400 . S
C206 C209 1.386 . S
H207 C223 0.930 . S
H208 C224 0.931 . S
C209 H197 0.929 . S
C209 C203 1.390 . S
C209 C206 1.386 . S
C210 C205 1.490 . S
C210 C212 1.395 . S
C210 C213 1.403 . S
H211 C217 0.930 . S
C212 H198 0.930 . S
C212 C210 1.395 . S
C212 C215 1.403 . S
C213 C210 1.403 . S
C213 C214 1.524 . S
C213 C217 1.400 . S
C214 H199 0.960 . S
C214 H200 0.960 . S
C214 H201 0.960 . S
C214 C213 1.524 . S
C215 C212 1.403 . S
C215 C216 1.392 . S
C215 C219 1.495 . S
C216 C215 1.392 . S
C216 C217 1.385 . S
C216 C218 1.478 . S
C217 H211 0.930 . S
C217 C213 1.400 . S
C217 C216 1.385 . S
C218 C216 1.478 . S
C218 C220 1.381 . S
C218 C224 1.383 . S
C219 C215 1.495 . S
C219 H225 0.959 . S
C219 H226 0.961 . S
C219 H227 0.960 . S
C220 C218 1.381 . S
C220 C221 1.394 . S
C220 H228 0.930 . S
C221 C220 1.394 . S
C221 C222 1.383 . S
C221 H229 0.929 . S
C222 C221 1.383 . S
C222 C223 1.377 . S
C223 H207 0.930 . S
C223 C222 1.377 . S
C223 C224 1.379 . S
C224 H208 0.931 . S
C224 C218 1.383 . S
C224 C223 1.379 . S
H225 C219 0.959 . S
H226 C219 0.961 . S
H227 C219 0.960 . S
H228 C220 0.930 . S
H229 C221 0.929 . S
H230 C238 0.929 . S
H231 C240 0.930 . S
H232 C242 0.930 1_554 S
H233 C245 0.929 . S
H234 C248 0.930 . S
H235 C250 0.960 . S
H236 C250 0.960 . S
H237 C250 0.960 . S
C238 H230 0.929 . S
C238 C239 1.377 . S
C238 C240 1.384 . S
C239 C238 1.377 . S
C239 C245 1.390 1_556 S
C240 H231 0.930 . S
C240 C238 1.384 . S
C240 C241 1.372 . S
C241 C240 1.372 . S
C241 C242 1.400 . S
C241 C246 1.490 . S
C242 H232 0.930 1_556 S
C242 C241 1.400 . S
C242 C245 1.386 1_556 S
H243 C259 0.930 . S
H244 C260 0.931 . S
C245 H233 0.929 . S
C245 C239 1.390 1_554 S
C245 C242 1.386 1_554 S
C246 C241 1.490 . S
C246 C248 1.395 . S
C246 C249 1.403 . S
H247 C253 0.930 . S
C248 H234 0.930 . S
C248 C246 1.395 . S
C248 C251 1.403 . S
C249 C246 1.403 . S
C249 C250 1.524 . S
C249 C253 1.400 . S
C250 H235 0.960 . S
C250 H236 0.960 . S
C250 H237 0.960 . S
C250 C249 1.524 . S
C251 C248 1.403 . S
C251 C252 1.392 . S
C251 C255 1.495 . S
C252 C251 1.392 . S
C252 C253 1.385 . S
C252 C254 1.478 . S
C253 H247 0.930 . S
C253 C249 1.400 . S
C253 C252 1.385 . S
C254 C252 1.478 . S
C254 C256 1.381 . S
C254 C260 1.383 . S
C255 C251 1.495 . S
C255 H261 0.959 . S
C255 H262 0.961 . S
C255 H263 0.960 . S
C256 C254 1.381 . S
C256 C257 1.394 . S
C256 H264 0.930 . S
C257 C256 1.394 . S
C257 C258 1.383 . S
C257 H265 0.929 . S
C258 C257 1.383 . S
C258 C259 1.377 . S
C259 H243 0.930 . S
C259 C258 1.377 . S
C259 C260 1.379 . S
C260 H244 0.931 . S
C260 C254 1.383 . S
C260 C259 1.379 . S
H261 C255 0.959 . S
H262 C255 0.961 . S
H263 C255 0.960 . S
H264 C256 0.930 . S
H265 C257 0.929 . S
H266 C274 0.929 . S
H267 C276 0.930 . S
H268 C278 0.930 . S
H269 C281 0.930 1_554 S
H270 C284 0.930 . S
H271 C286 0.960 . S
H272 C286 0.960 . S
H273 C286 0.960 . S
C274 H266 0.929 . S
C274 C275 1.377 . S
C274 C276 1.384 . S
C275 C274 1.377 . S
C275 C281 1.390 . S
C276 H267 0.930 . S
C276 C274 1.384 . S
C276 C277 1.372 . S
C277 C276 1.372 . S
C277 C278 1.400 . S
C277 C282 1.490 . S
C278 H268 0.930 . S
C278 C277 1.400 . S
C278 C281 1.385 . S
H279 C295 0.930 . S
H280 C296 0.931 . S
C281 H269 0.930 1_556 S
C281 C275 1.390 . S
C281 C278 1.385 . S
C282 C277 1.490 . S
C282 C284 1.395 . S
C282 C285 1.403 . S
H283 C289 0.930 . S
C284 H270 0.930 . S
C284 C282 1.395 . S
C284 C287 1.403 . S
C285 C282 1.403 . S
C285 C286 1.524 1_556 S
C285 C289 1.400 . S
C286 H271 0.960 . S
C286 H272 0.960 . S
C286 H273 0.960 . S
C286 C285 1.524 1_554 S
C287 C284 1.403 . S
C287 C288 1.392 . S
C287 C291 1.495 . S
C288 C287 1.392 . S
C288 C289 1.385 . S
C288 C290 1.478 . S
C289 H283 0.930 . S
C289 C285 1.400 . S
C289 C288 1.385 . S
C290 C288 1.478 . S
C290 C292 1.381 . S
C290 C296 1.383 . S
C291 C287 1.495 . S
C291 H297 0.959 . S
C291 H298 0.961 . S
C291 H299 0.960 . S
C292 C290 1.381 . S
C292 C293 1.394 . S
C292 H300 0.930 . S
C293 C292 1.394 . S
C293 C294 1.383 . S
C293 H301 0.929 . S
C294 C293 1.383 . S
C294 C295 1.377 . S
C295 H279 0.930 . S
C295 C294 1.377 . S
C295 C296 1.379 . S
C296 H280 0.931 . S
C296 C290 1.383 . S
C296 C295 1.379 . S
H297 C291 0.959 . S
H298 C291 0.961 . S
H299 C291 0.960 . S
H300 C292 0.930 . S
H301 C293 0.929 . S
H302 C310 0.929 . S
H303 C312 0.930 . S
H304 C314 0.930 . S
H305 C317 0.929 1_455 S
H306 C320 0.930 . S
H307 C322 0.960 . S
H308 C322 0.960 . S
H309 C322 0.960 . S
C310 H302 0.929 . S
C310 C311 1.377 . S
C310 C312 1.384 1_455 S
C311 C310 1.377 . S
C311 C317 1.390 1_455 S
C312 H303 0.930 . S
C312 C310 1.384 1_655 S
C312 C313 1.372 . S
C313 C312 1.372 . S
C313 C314 1.400 . S
C313 C318 1.490 . S
C314 H304 0.930 . S
C314 C313 1.400 . S
C314 C317 1.386 . S
H315 C331 0.930 . S
H316 C332 0.931 . S
C317 H305 0.929 1_655 S
C317 C311 1.390 1_655 S
C317 C314 1.386 . S
C318 C313 1.490 . S
C318 C320 1.395 . S
C318 C321 1.403 . S
H319 C325 0.930 . S
C320 H306 0.930 . S
C320 C318 1.395 . S
C320 C323 1.403 . S
C321 C318 1.403 . S
C321 C322 1.524 . S
C321 C325 1.400 . S
C322 H307 0.960 . S
C322 H308 0.960 . S
C322 H309 0.960 . S
C322 C321 1.524 . S
C323 C320 1.403 . S
C323 C324 1.392 . S
C323 C327 1.495 . S
C324 C323 1.392 . S
C324 C325 1.385 . S
C324 C326 1.478 . S
C325 H319 0.930 . S
C325 C321 1.400 . S
C325 C324 1.385 . S
C326 C324 1.478 . S
C326 C328 1.381 . S
C326 C332 1.383 . S
C327 C323 1.495 . S
C327 H333 0.959 . S
C327 H334 0.961 . S
C327 H335 0.960 . S
C328 C326 1.381 . S
C328 C329 1.394 . S
C328 H336 0.930 . S
C329 C328 1.394 . S
C329 C330 1.383 . S
C329 H337 0.929 . S
C330 C329 1.383 . S
C330 C331 1.377 . S
C331 H315 0.930 . S
C331 C330 1.377 . S
C331 C332 1.379 . S
C332 H316 0.931 . S
C332 C326 1.383 . S
C332 C331 1.379 . S
H333 C327 0.959 . S
H334 C327 0.961 . S
H335 C327 0.960 . S
H336 C328 0.930 . S
H337 C329 0.929 . S
H338 C346 0.929 . S
H339 C348 0.930 . S
H340 C350 0.930 . S
H341 C353 0.929 . S
H342 C356 0.930 . S
H343 C358 0.960 . S
H344 C358 0.960 . S
H345 C358 0.960 . S
C346 H338 0.929 . S
C346 C347 1.377 . S
C346 C348 1.384 . S
C347 C346 1.377 . S
C347 C353 1.390 . S
C348 H339 0.930 . S
C348 C346 1.384 . S
C348 C349 1.372 . S
C349 C348 1.372 . S
C349 C350 1.400 . S
C349 C354 1.490 . S
C350 H340 0.930 . S
C350 C349 1.400 . S
C350 C353 1.386 . S
H351 C367 0.930 . S
H352 C368 0.931 . S
C353 H341 0.929 . S
C353 C347 1.390 . S
C353 C350 1.386 . S
C354 C349 1.490 . S
C354 C356 1.395 . S
C354 C357 1.403 . S
H355 C361 0.930 . S
C356 H342 0.930 . S
C356 C354 1.395 . S
C356 C359 1.403 . S
C357 C354 1.403 . S
C357 C358 1.524 . S
C357 C361 1.400 . S
C358 H343 0.960 . S
C358 H344 0.960 . S
C358 H345 0.960 . S
C358 C357 1.524 . S
C359 C356 1.403 . S
C359 C360 1.392 . S
C359 C363 1.495 . S
C360 C359 1.392 . S
C360 C361 1.385 . S
C360 C362 1.478 . S
C361 H355 0.930 . S
C361 C357 1.400 . S
C361 C360 1.385 . S
C362 C360 1.478 . S
C362 C364 1.381 . S
C362 C368 1.383 . S
C363 C359 1.495 . S
C363 H369 0.959 . S
C363 H370 0.961 . S
C363 H371 0.960 . S
C364 C362 1.381 . S
C364 C365 1.394 . S
C364 H372 0.930 . S
C365 C364 1.394 . S
C365 C366 1.383 . S
C365 H373 0.929 . S
C366 C365 1.383 . S
C366 C367 1.377 . S
C367 H351 0.930 . S
C367 C366 1.377 . S
C367 C368 1.379 . S
C368 H352 0.931 . S
C368 C362 1.383 . S
C368 C367 1.379 . S
H369 C363 0.959 . S
H370 C363 0.961 . S
H371 C363 0.960 . S
H372 C364 0.930 . S
H373 C365 0.929 . S
H374 C382 0.929 . S
H375 C384 0.930 . S
H376 C386 0.930 . S
H377 C389 0.929 . S
H378 C392 0.930 . S
H379 C394 0.960 . S
H380 C394 0.960 . S
H381 C394 0.960 . S
C382 H374 0.929 . S
C382 C383 1.377 . S
C382 C384 1.384 . S
C383 C382 1.377 . S
C383 C389 1.390 . S
C384 H375 0.930 . S
C384 C382 1.384 . S
C384 C385 1.372 . S
C385 C384 1.372 . S
C385 C386 1.400 . S
C385 C390 1.490 . S
C386 H376 0.930 . S
C386 C385 1.400 . S
C386 C389 1.386 . S
H387 C403 0.930 . S
H388 C404 0.931 . S
C389 H377 0.929 . S
C389 C383 1.390 . S
C389 C386 1.386 . S
C390 C385 1.490 . S
C390 C392 1.395 . S
C390 C393 1.403 . S
H391 C397 0.930 . S
C392 H378 0.930 . S
C392 C390 1.395 . S
C392 C395 1.403 . S
C393 C390 1.403 . S
C393 C394 1.524 . S
C393 C397 1.400 . S
C394 H379 0.960 . S
C394 H380 0.960 . S
C394 H381 0.960 . S
C394 C393 1.524 . S
C395 C392 1.403 . S
C395 C396 1.392 . S
C395 C399 1.495 . S
C396 C395 1.392 . S
C396 C397 1.385 . S
C396 C398 1.478 . S
C397 H391 0.930 . S
C397 C393 1.400 . S
C397 C396 1.385 . S
C398 C396 1.478 . S
C398 C400 1.381 . S
C398 C404 1.383 . S
C399 C395 1.495 . S
C399 H405 0.959 . S
C399 H406 0.961 . S
C399 H407 0.960 . S
C400 C398 1.381 . S
C400 C401 1.394 . S
C400 H408 0.930 . S
C401 C400 1.394 . S
C401 C402 1.383 . S
C401 H409 0.929 . S
C402 C401 1.383 . S
C402 C403 1.377 1_655 S
C403 H387 0.930 . S
C403 C402 1.377 1_455 S
C403 C404 1.379 1_455 S
C404 H388 0.931 . S
C404 C398 1.383 . S
C404 C403 1.379 1_655 S
H405 C399 0.959 . S
H406 C399 0.961 . S
H407 C399 0.960 . S
H408 C400 0.930 . S
H409 C401 0.929 . S
H410 C418 0.929 . S
H411 C420 0.930 . S
H412 C422 0.930 . S
H413 C425 0.929 . S
H414 C428 0.930 . S
H415 C430 0.960 . S
H416 C430 0.960 . S
H417 C430 0.960 . S
C418 H410 0.929 . S
C418 C419 1.377 . S
C418 C420 1.384 . S
C419 C418 1.377 . S
C419 C425 1.390 . S
C420 H411 0.930 . S
C420 C418 1.384 . S
C420 C421 1.372 . S
C421 C420 1.372 . S
C421 C422 1.400 . S
C421 C426 1.490 . S
C422 H412 0.930 . S
C422 C421 1.400 . S
C422 C425 1.386 . S
H423 C439 0.930 . S
H424 C440 0.931 . S
C425 H413 0.929 . S
C425 C419 1.390 . S
C425 C422 1.386 . S
C426 C421 1.490 . S
C426 C428 1.395 . S
C426 C429 1.403 . S
H427 C433 0.930 . S
C428 H414 0.930 . S
C428 C426 1.395 . S
C428 C431 1.403 . S
C429 C426 1.403 . S
C429 C430 1.524 . S
C429 C433 1.400 . S
C430 H415 0.960 . S
C430 H416 0.960 . S
C430 H417 0.960 . S
C430 C429 1.524 . S
C431 C428 1.403 . S
C431 C432 1.392 . S
C431 C435 1.495 . S
C432 C431 1.392 . S
C432 C433 1.385 . S
C432 C434 1.478 . S
C433 H427 0.930 . S
C433 C429 1.400 . S
C433 C432 1.385 . S
C434 C432 1.478 . S
C434 C436 1.381 . S
C434 C440 1.383 . S
C435 C431 1.495 . S
C435 H441 0.959 . S
C435 H442 0.961 . S
C435 H443 0.960 . S
C436 C434 1.381 . S
C436 C437 1.394 . S
C436 H444 0.930 . S
C437 C436 1.394 . S
C437 C438 1.383 . S
C437 H445 0.929 . S
C438 C437 1.383 . S
C438 C439 1.377 . S
C439 H423 0.930 . S
C439 C438 1.377 . S
C439 C440 1.379 . S
C440 H424 0.931 . S
C440 C434 1.383 . S
C440 C439 1.379 . S
H441 C435 0.959 . S
H442 C435 0.961 . S
H443 C435 0.960 . S
H444 C436 0.930 . S
H445 C437 0.929 . S
H446 C454 0.929 . S
H447 C456 0.930 . S
H448 C458 0.930 . S
H449 C461 0.929 . S
H450 C464 0.930 . S
H451 C466 0.960 . S
H452 C466 0.960 . S
H453 C466 0.960 . S
C454 H446 0.929 . S
C454 C455 1.377 . S
C454 C456 1.384 . S
C455 C454 1.377 . S
C455 C461 1.390 . S
C456 H447 0.930 . S
C456 C454 1.384 . S
C456 C457 1.372 . S
C457 C456 1.372 . S
C457 C458 1.400 . S
C457 C462 1.490 . S
C458 H448 0.930 . S
C458 C457 1.400 . S
C458 C461 1.386 . S
H459 C475 0.930 . S
H460 C476 0.931 . S
C461 H449 0.929 . S
C461 C455 1.390 . S
C461 C458 1.386 . S
C462 C457 1.490 . S
C462 C464 1.395 . S
C462 C465 1.403 . S
H463 C469 0.930 . S
C464 H450 0.930 . S
C464 C462 1.395 . S
C464 C467 1.403 . S
C465 C462 1.403 . S
C465 C466 1.524 . S
C465 C469 1.400 . S
C466 H451 0.960 . S
C466 H452 0.960 . S
C466 H453 0.960 . S
C466 C465 1.524 . S
C467 C464 1.403 . S
C467 C468 1.392 . S
C467 C471 1.495 . S
C468 C467 1.392 . S
C468 C469 1.385 . S
C468 C470 1.478 . S
C469 H463 0.930 . S
C469 C465 1.400 . S
C469 C468 1.385 . S
C470 C468 1.478 . S
C470 C472 1.381 . S
C470 C476 1.383 . S
C471 C467 1.495 . S
C471 H477 0.959 . S
C471 H478 0.961 . S
C471 H479 0.960 . S
C472 C470 1.381 . S
C472 C473 1.394 . S
C472 H480 0.930 . S
C473 C472 1.394 . S
C473 C474 1.383 . S
C473 H481 0.929 . S
C474 C473 1.383 . S
C474 C475 1.377 . S
C475 H459 0.930 . S
C475 C474 1.377 . S
C475 C476 1.379 . S
C476 H460 0.931 . S
C476 C470 1.383 . S
C476 C475 1.379 . S
H477 C471 0.959 . S
H478 C471 0.961 . S
H479 C471 0.960 . S
H480 C472 0.930 . S
H481 C473 0.929 . S
H482 C490 0.929 . S
H483 C492 0.930 . S
H484 C494 0.930 . S
H485 C497 0.929 . S
H486 C500 0.930 . S
H487 C502 0.960 . S
H488 C502 0.960 . S
H489 C502 0.960 . S
C490 H482 0.929 . S
C490 C491 1.377 . S
C490 C492 1.384 . S
C491 C490 1.377 . S
C491 C497 1.390 . S
C492 H483 0.930 . S
C492 C490 1.384 . S
C492 C493 1.372 . S
C493 C492 1.372 . S
C493 C494 1.400 . S
C493 C498 1.490 . S
C494 H484 0.930 . S
C494 C493 1.400 . S
C494 C497 1.386 . S
H495 C511 0.930 . S
H496 C512 0.931 . S
C497 H485 0.929 . S
C497 C491 1.390 . S
C497 C494 1.386 . S
C498 C493 1.490 . S
C498 C500 1.395 . S
C498 C501 1.403 . S
H499 C505 0.930 . S
C500 H486 0.930 . S
C500 C498 1.395 . S
C500 C503 1.403 . S
C501 C498 1.403 . S
C501 C502 1.524 . S
C501 C505 1.400 . S
C502 H487 0.960 . S
C502 H488 0.960 . S
C502 H489 0.960 . S
C502 C501 1.524 . S
C503 C500 1.403 . S
C503 C504 1.392 . S
C503 C507 1.495 . S
C504 C503 1.392 . S
C504 C505 1.385 . S
C504 C506 1.478 . S
C505 H499 0.930 . S
C505 C501 1.400 . S
C505 C504 1.385 . S
C506 C504 1.478 . S
C506 C508 1.381 . S
C506 C512 1.383 . S
C507 C503 1.495 . S
C507 H513 0.959 . S
C507 H514 0.961 . S
C507 H515 0.960 . S
C508 C506 1.381 . S
C508 C509 1.394 . S
C508 H516 0.930 . S
C509 C508 1.394 . S
C509 C510 1.383 . S
C509 H517 0.929 . S
C510 C509 1.383 . S
C510 C511 1.377 . S
C511 H495 0.930 . S
C511 C510 1.377 . S
C511 C512 1.379 . S
C512 H496 0.931 . S
C512 C506 1.383 . S
C512 C511 1.379 . S
H513 C507 0.959 . S
H514 C507 0.961 . S
H515 C507 0.960 . S
H516 C508 0.930 . S
H517 C509 0.929 . S
C114 C51 1.386 . S
C95 C8 1.525 . S
C150 C47 1.366 . S
C131 C19 1.509 . S
C186 C72 1.428 . S
C167 C30 1.526 . S
C203 C41 1.509 . S
C222 C68 1.370 . S
C239 C7 1.139 1_556 S
C258 C69 1.102 . S
C294 C84 0.996 . S
C275 C16 1.046 . S
C311 C5 1.474 . S
C330 C85 1.639 . S
C366 C81 1.669 . S
C347 C18 1.805 1_556 S
C402 C48 1.105 1_655 S
C383 C29 1.139 . S
C419 C38 1.032 . S
C438 C63 1.085 . S
C474 C64 1.576 . S
C455 C27 1.485 . S
C510 C60 1.713 . S
C491 C40 1.805 . S
