# Generated by pormake.
# Topology soc, (4,6)-cn, num edge types: 1
# Building blocks:
#     Node 0, Type 0, BuildingBlock: ESEHIV_clean_sbu_0, # of connection points: 4
#     Node 1, Type 0, BuildingBlock: ESEHIV_clean_sbu_0, # of connection points: 4
#     Node 2, Type 0, BuildingBlock: ESEHIV_clean_sbu_0, # of connection points: 4
#     Node 3, Type 0, BuildingBlock: ESEHIV_clean_sbu_0, # of connection points: 4
#     Node 4, Type 0, BuildingBlock: ESEHIV_clean_sbu_0, # of connection points: 4
#     Node 5, Type 0, BuildingBlock: ESEHIV_clean_sbu_0, # of connection points: 4
#     Node 6, Type 0, BuildingBlock: ESEHIV_clean_sbu_0, # of connection points: 4
#     Node 7, Type 0, BuildingBlock: ESEHIV_clean_sbu_0, # of connection points: 4
#     Node 8, Type 0, BuildingBlock: ESEHIV_clean_sbu_0, # of connection points: 4
#     Node 9, Type 0, BuildingBlock: ESEHIV_clean_sbu_0, # of connection points: 4
#     Node 10, Type 0, BuildingBlock: ESEHIV_clean_sbu_0, # of connection points: 4
#     Node 11, Type 0, BuildingBlock: ESEHIV_clean_sbu_0, # of connection points: 4
#     Node 12, Type 1, BuildingBlock: PAMTOO_clean_sbu_0, # of connection points: 6
#     Node 13, Type 1, BuildingBlock: PAMTOO_clean_sbu_0, # of connection points: 6
#     Node 14, Type 1, BuildingBlock: PAMTOO_clean_sbu_0, # of connection points: 6
#     Node 15, Type 1, BuildingBlock: PAMTOO_clean_sbu_0, # of connection points: 6
#     Node 16, Type 1, BuildingBlock: PAMTOO_clean_sbu_0, # of connection points: 6
#     Node 17, Type 1, BuildingBlock: PAMTOO_clean_sbu_0, # of connection points: 6
#     Node 18, Type 1, BuildingBlock: PAMTOO_clean_sbu_0, # of connection points: 6
#     Node 19, Type 1, BuildingBlock: PAMTOO_clean_sbu_0, # of connection points: 6
#     Edge 20, Type (0, 1), None
#     Edge 21, Type (0, 1), None
#     Edge 22, Type (0, 1), None
#     Edge 23, Type (0, 1), None
#     Edge 24, Type (0, 1), None
#     Edge 25, Type (0, 1), None
#     Edge 26, Type (0, 1), None
#     Edge 27, Type (0, 1), None
#     Edge 28, Type (0, 1), None
#     Edge 29, Type (0, 1), None
#     Edge 30, Type (0, 1), None
#     Edge 31, Type (0, 1), None
#     Edge 32, Type (0, 1), None
#     Edge 33, Type (0, 1), None
#     Edge 34, Type (0, 1), None
#     Edge 35, Type (0, 1), None
#     Edge 36, Type (0, 1), None
#     Edge 37, Type (0, 1), None
#     Edge 38, Type (0, 1), None
#     Edge 39, Type (0, 1), None
#     Edge 40, Type (0, 1), None
#     Edge 41, Type (0, 1), None
#     Edge 42, Type (0, 1), None
#     Edge 43, Type (0, 1), None
#     Edge 44, Type (0, 1), None
#     Edge 45, Type (0, 1), None
#     Edge 46, Type (0, 1), None
#     Edge 47, Type (0, 1), None
#     Edge 48, Type (0, 1), None
#     Edge 49, Type (0, 1), None
#     Edge 50, Type (0, 1), None
#     Edge 51, Type (0, 1), None
#     Edge 52, Type (0, 1), None
#     Edge 53, Type (0, 1), None
#     Edge 54, Type (0, 1), None
#     Edge 55, Type (0, 1), None
#     Edge 56, Type (0, 1), None
#     Edge 57, Type (0, 1), None
#     Edge 58, Type (0, 1), None
#     Edge 59, Type (0, 1), None
#     Edge 60, Type (0, 1), None
#     Edge 61, Type (0, 1), None
#     Edge 62, Type (0, 1), None
#     Edge 63, Type (0, 1), None
#     Edge 64, Type (0, 1), None
#     Edge 65, Type (0, 1), None
#     Edge 66, Type (0, 1), None
#     Edge 67, Type (0, 1), None
# Relax obj value: 0.239
# Max RMSD: 0.527
# Mean RMSD: 0.240
data_MOF--net-soc--node1-ESEHIV_clean_sbu_0--node2-PAMTOO_clean_sbu_0--edge1-none
_symmetry_space_group_name_H-M    P1
_symmetry_Int_Tables_number       1
_symmetry_cell_setting            triclinic
loop_
_symmetry_equiv_pos_as_xyz
'x, y, z'
_cell_length_a     31.882882
_cell_length_b     22.311486
_cell_length_c     20.074906
_cell_angle_alpha  93.972541
_cell_angle_beta   94.523404
_cell_angle_gamma 52.638372
loop_
_atom_site_label
_atom_site_type_symbol
_atom_site_fract_x
_atom_site_fract_y
_atom_site_fract_z
_atom_type_partial_charge
Cu0 Cu 0.14726 0.12826 0.43369 0.0
N1 N 0.14875 0.20751 0.46916 0.0
N2 N 0.17229 0.28436 0.48491 0.0
C3 C 0.18933 0.21192 0.47852 0.0
C4 C 0.11913 0.32688 0.48028 0.0
C5 C 0.10488 0.27966 0.47056 0.0
O6 O 0.2085 0.05719 0.38137 0.0
C7 C 0.04741 0.16594 0.36866 0.0
O8 O 0.06228 0.09672 0.36896 0.0
H9 H 0.23048 0.16332 0.4786 0.0
H10 H 0.06513 0.29708 0.46066 0.0
N11 N 0.15097 0.06639 0.49633 0.0
N12 N 0.13416 0.98328 0.50748 0.0
C13 C 0.11342 0.05656 0.50056 0.0
C14 C 0.19696 0.99785 0.50711 0.0
C15 C 0.1869 0.94666 0.513 0.0
C16 C 0.24076 0.06688 0.36146 0.0
O17 O 0.22701 0.13498 0.35611 0.0
H18 H 0.07196 0.10068 0.49041 0.0
H19 H 0.2354 0.98358 0.50019 0.0
O20 O 0.07948 0.18112 0.38501 0.0
H21 H 0.09246 0.3879 0.48054 0.0
H22 H 0.21658 0.88626 0.51608 0.0
Cu23 Cu 0.15592 0.07165 0.7362 0.0
N24 N 0.14216 0.01173 0.68422 0.0
N25 N 0.10342 0.95485 0.66725 0.0
C26 C 0.09702 0.01913 0.68557 0.0
C27 C 0.15472 0.90465 0.65312 0.0
C28 C 0.17851 0.93949 0.66441 0.0
O29 O 0.09681 0.13903 0.79138 0.0
C30 C 0.26198 0.97097 0.74856 0.0
O31 O 0.25661 0.98637 0.68509 0.0
H32 H 0.0612 0.06858 0.70518 0.0
H33 H 0.2204 0.91155 0.66362 0.0
N34 N 0.16615 0.1334 0.6939 0.0
N35 N 0.19621 0.20065 0.68858 0.0
C36 C 0.19736 0.15034 0.72314 0.0
C37 C 0.14347 0.17593 0.63927 0.0
C38 C 0.16162 0.2182 0.63663 0.0
C39 C 0.05625 0.1856 0.75496 0.0
O40 O 0.05972 0.18064 0.68988 0.0
H41 H 0.22141 0.12494 0.76848 0.0
H42 H 0.11498 0.17766 0.60476 0.0
O43 O 0.22152 0.00253 0.78341 0.0
H44 H 0.17465 0.84555 0.64031 0.0
H45 H 0.14951 0.26024 0.60095 0.0
Cu46 Cu 0.41259 0.09185 0.10244 0.0
N47 N 0.37543 0.0754 1.03459 0.0
N48 N 0.37382 0.00318 0.95212 0.0
C49 C 0.39197 0.00507 1.01463 0.0
C50 C 0.34435 0.07496 0.93168 0.0
C51 C 0.34478 0.1194 0.98275 0.0
O52 O 0.43692 0.00863 0.16805 0.0
C53 C 0.42348 0.17856 1.01572 0.0
O54 O 0.37423 0.22591 1.03272 0.0
H55 H 0.4217 0.95496 0.04226 0.0
H56 H 0.32715 0.17847 0.97962 0.0
N57 N 0.37522 0.17567 0.16305 0.0
N58 N 0.37516 0.24928 0.24586 0.0
C59 C 0.38917 0.22108 0.1828 0.0
C60 C 0.35104 0.17699 0.21607 0.0
C61 C 0.35223 0.22018 0.26723 0.0
C62 C 0.4012 0.00122 0.18225 0.0
O63 O 0.3558 0.03995 0.148 0.0
H64 H 0.41344 0.22774 0.15425 0.0
H65 H 0.336 0.14542 0.21993 0.0
O66 O 0.45241 0.11348 0.04401 0.0
H67 H 0.32523 0.09367 0.8825 0.0
H68 H 0.33626 0.23068 0.31595 0.0
Cu69 Cu 0.20113 0.45312 0.12793 0.0
N70 N 0.23533 0.45278 0.05414 0.0
N71 N 0.29138 0.43045 0.97759 0.0
C72 C 0.28674 0.41494 0.03974 0.0
C73 C 0.24162 0.48039 0.95299 0.0
C74 C 0.20763 0.49602 1.00085 0.0
O75 O 0.21465 0.49714 0.20839 0.0
C76 C 0.12116 0.46659 0.04301 0.0
O77 O 0.16285 0.42109 1.00721 0.0
H78 H 0.31965 0.37397 0.0722 0.0
H79 H 0.16503 0.53468 0.99614 0.0
N80 N 0.22586 0.3587 0.15962 0.0
N81 N 0.1877 0.31251 0.2023 0.0
C82 C 0.19737 0.33229 0.14672 0.0
C83 C 0.23916 0.34705 0.22538 0.0
C84 C 0.21551 0.31961 0.25171 0.0
C85 C 0.24632 0.51438 0.20987 0.0
O86 O 0.25535 0.53088 0.15381 0.0
H87 H 0.1751 0.34115 0.1005 0.0
H88 H 0.25593 0.37059 0.25515 0.0
O89 O 0.12696 0.49457 0.09801 0.0
H90 H 0.2306 0.50397 0.90366 0.0
H91 H 0.21144 0.31803 0.3045 0.0
Cu92 Cu 0.88652 0.11236 0.06941 0.0
N93 N 0.92344 0.12265 1.00892 0.0
N94 N 0.92718 0.18576 0.93091 0.0
C95 C 0.90792 0.19052 0.9898 0.0
C96 C 0.95593 0.11225 0.9117 0.0
C97 C 0.95426 0.07319 0.96054 0.0
O98 O 0.85927 0.20467 0.13472 0.0
C99 C 0.86804 0.04714 0.94505 0.0
O100 O 0.84667 0.0736 1.00301 0.0
H101 H 0.87829 0.24343 1.01459 0.0
H102 H 0.97028 0.01429 0.95787 0.0
N103 N 0.92782 0.03448 0.13128 0.0
N104 N 0.93462 0.9599 0.20778 0.0
C105 C 0.92204 0.98077 0.14315 0.0
C106 C 0.9464 0.04479 0.19027 0.0
C107 C 0.94949 0.00062 0.23737 0.0
C108 C 0.892 0.21986 0.15448 0.0
O109 O 0.9379 0.18073 0.1268 0.0
H110 H 0.90374 0.96346 0.10747 0.0
H111 H 0.95428 0.08502 0.20077 0.0
O112 O 0.8497 0.07499 1.00443 0.0
H113 H 0.97555 0.08878 0.86495 0.0
H114 H 0.96219 0.99819 0.28945 0.0
Cu115 Cu 0.10676 0.75618 0.08264 0.0
N116 N 0.07252 0.74351 1.00728 0.0
N117 N 1.01308 0.76484 0.92544 0.0
C118 C 0.02068 0.78479 0.98811 0.0
C119 C 0.0615 0.70845 0.90485 0.0
C120 C 0.09772 0.69427 0.95582 0.0
O121 O 0.09641 0.72744 0.16804 0.0
C122 C 0.1889 0.72483 1.00668 0.0
O123 O 0.14902 0.76181 0.96277 0.0
H124 H 0.98955 0.83134 1.01773 0.0
H125 H 0.14009 0.65311 0.95396 0.0
N126 N 0.07877 0.85735 0.10121 0.0
N127 N 0.11313 0.91492 0.14587 0.0
C128 C 0.10763 0.8814 0.09103 0.0
C129 C 0.05955 0.88616 0.16195 0.0
C130 C 0.0808 0.92096 0.18965 0.0
C131 C 0.07381 0.69656 0.17213 0.0
O132 O 0.06801 0.66552 0.11772 0.0
H133 H 0.13408 0.86001 0.05084 0.0
H134 H 0.04197 0.868 0.19047 0.0
O135 O 0.18076 0.70953 0.06246 0.0
H136 H 0.07009 0.67959 0.8565 0.0
H137 H 0.08113 0.93499 0.24235 0.0
Cu138 Cu 0.6691 0.57247 0.93641 0.0
N139 N 0.67267 0.64003 0.99312 0.0
N140 N 0.69933 0.71298 1.00733 0.0
C141 C 0.71444 0.64161 1.00036 0.0
C142 C 0.6463 0.75721 1.00814 0.0
C143 C 0.63027 0.71265 1.00078 0.0
O144 O 0.72789 0.51476 0.88016 0.0
C145 C 0.56115 0.66364 0.91945 0.0
O146 O 0.5647 0.65078 0.9833 0.0
H147 H 0.75448 0.59224 0.99275 0.0
H148 H 0.58966 0.73464 0.99216 0.0
N149 N 0.6729 0.49667 0.97692 0.0
N150 N 0.65228 0.41942 0.99238 0.0
C151 C 0.63512 0.48695 0.97136 0.0
C152 C 0.7169 0.4303 0.99838 0.0
C153 C 0.70424 0.38234 1.00828 0.0
C154 C 0.75724 0.53005 0.86116 0.0
O155 O 0.74313 0.59892 0.86626 0.0
H156 H 0.59654 0.5258 0.94777 0.0
H157 H 0.75577 0.41687 1.00411 0.0
O158 O 0.60256 0.63373 0.88711 0.0
H159 H 0.62006 0.81816 1.00748 0.0
H160 H 0.73069 0.32573 1.02705 0.0
Cu161 Cu 0.645 0.6347 0.23609 0.0
N162 N 0.6296 0.57213 0.19207 0.0
N163 N 0.60025 0.50243 0.1893 0.0
C164 C 0.59566 0.5629 0.21659 0.0
C165 C 0.64025 0.47014 0.14795 0.0
C166 C 0.65757 0.51369 0.14857 0.0
O167 O 0.58746 0.70185 0.2915 0.0
C168 C 0.74805 0.52338 0.248 0.0
O169 O 0.74144 0.53068 0.18299 0.0
H170 H 0.57047 0.59686 0.2573 0.0
H171 H 0.69021 0.50055 0.12175 0.0
N172 N 0.6537 0.69588 0.18789 0.0
N173 N 0.6931 0.74856 0.16964 0.0
C174 C 0.69934 0.6875 0.18985 0.0
C175 C 0.61669 0.76736 0.16774 0.0
C176 C 0.64093 0.80006 0.15675 0.0
C177 C 0.54443 0.73487 0.25677 0.0
O178 O 0.54503 0.72158 0.19193 0.0
H179 H 0.73611 0.6411 0.21225 0.0
H180 H 0.5746 0.79628 0.16532 0.0
O181 O 0.70949 0.5666 0.28529 0.0
H182 H 0.65725 0.41704 0.12173 0.0
H183 H 0.62175 0.85703 0.14101 0.0
Cu184 Cu 0.9162 0.58673 0.56441 0.0
N185 N 0.96508 0.57825 0.50546 0.0
N186 N 0.97825 0.62413 0.42159 0.0
C187 C 0.96528 0.63733 0.48701 0.0
C188 C 0.98666 0.55961 0.39859 0.0
C189 C 0.98088 0.5283 0.44975 0.0
O190 O 0.88796 0.6853 0.62408 0.0
C191 C 0.90367 0.48148 0.48316 0.0
O192 O 0.94662 0.43182 0.51847 0.0
H193 H 0.95927 0.61271 0.52572 0.0
H194 H 0.98203 0.47899 0.4456 0.0
N195 N 0.94718 0.5123 0.62734 0.0
N196 N 0.94794 0.44534 0.70528 0.0
C197 C 0.92165 0.48825 0.65176 0.0
C198 C 0.9913 0.48335 0.66642 0.0
C199 C 0.9917 0.44226 0.7151 0.0
C200 C 0.88987 0.69119 0.68951 0.0
O201 O 0.90121 0.63474 0.7238 0.0
H202 H 0.883 0.50588 0.63306 0.0
H203 H 0.0193 0.49505 0.66222 0.0
O204 O 0.88051 0.55317 0.49653 0.0
H205 H 0.99498 0.53795 0.34758 0.0
H206 H 0.02133 0.41365 0.7554 0.0
Cu207 Cu 0.71711 0.92991 0.55556 0.0
N208 N 0.75621 0.91611 0.48024 0.0
N209 N 0.81776 0.89271 0.41113 0.0
C210 C 0.80883 0.87947 0.47191 0.0
C211 C 0.76939 0.93998 0.38145 0.0
C212 C 0.73226 0.95601 0.42427 0.0
O213 O 0.74346 0.96225 0.62976 0.0
C214 C 0.62211 0.98526 0.48269 0.0
O215 O 0.65583 0.93043 0.44191 0.0
H216 H 0.83963 0.84379 0.50907 0.0
H217 H 0.6902 0.99764 0.41584 0.0
N218 N 0.72331 0.8451 0.5849 0.0
N219 N 0.68298 0.80356 0.63138 0.0
C220 C 0.68262 0.84049 0.5804 0.0
C221 C 0.75188 0.80587 0.63972 0.0
C222 C 0.72732 0.78054 0.6684 0.0
C223 C 0.73495 0.96605 0.69146 0.0
O224 O 0.69799 0.96168 0.70859 0.0
H225 H 0.64933 0.87171 0.54579 0.0
H226 H 0.7835 0.80584 0.66319 0.0
O227 O 0.64051 0.00096 0.5342 0.0
H228 H 0.76114 0.96407 0.33275 0.0
H229 H 0.73856 0.75385 0.71624 0.0
Cu230 Cu 0.40456 0.60451 0.59157 0.0
N231 N 0.43801 0.63694 0.53855 0.0
N232 N 0.43645 0.71425 0.46593 0.0
C233 C 0.41419 0.71 0.51958 0.0
C234 C 0.47594 0.64159 0.45153 0.0
C235 C 0.47767 0.59573 0.49605 0.0
O236 O 0.37992 0.678 0.66634 0.0
C237 C 0.38459 0.56296 0.47309 0.0
O238 O 0.43571 0.51925 0.48578 0.0
H239 H 0.37753 0.75817 0.53958 0.0
H240 H 0.50289 0.53561 0.4914 0.0
N241 N 0.42726 0.50874 0.635 0.0
N242 N 0.40029 0.46052 0.73415 0.0
C243 C 0.43341 0.49614 0.71989 0.0
C244 C 0.39239 0.48066 0.59656 0.0
C245 C 0.37301 0.45094 0.66231 0.0
C246 C 0.41949 0.6705 0.69715 0.0
O247 O 0.46689 0.61723 0.67647 0.0
H248 H 0.44991 0.51452 0.75746 0.0
H249 H 0.37844 0.48587 0.54584 0.0
O250 O 0.35568 0.61171 0.51868 0.0
H251 H 0.50094 0.62213 0.4094 0.0
H252 H 0.34967 0.43033 0.65694 0.0
Cu253 Cu 0.55546 0.34209 0.59968 0.0
N254 N 0.5537 0.42009 0.5701 0.0
N255 N 0.61297 0.43122 0.53124 0.0
C256 C 0.58547 0.40295 0.52004 0.0
C257 C 0.59491 0.47171 0.5892 0.0
C258 C 0.55906 0.46409 0.6131 0.0
O259 O 0.62978 0.28228 0.63671 0.0
C260 C 0.51774 0.28112 0.47239 0.0
O261 O 0.55012 0.21024 0.45232 0.0
H262 H 0.59416 0.36057 0.48215 0.0
H263 H 0.5467 0.47641 0.66399 0.0
N264 N 0.51182 0.36857 0.67178 0.0
N265 N 0.50871 0.28348 0.72089 0.0
C266 C 0.53525 0.31221 0.71611 0.0
C267 C 0.46126 0.3906 0.66005 0.0
C268 C 0.46815 0.32296 0.67591 0.0
C269 C 0.67049 0.25259 0.60219 0.0
O270 O 0.66835 0.23307 0.53951 0.0
H271 H 0.57361 0.28829 0.74058 0.0
H272 H 0.36723 0.53995 0.67633 0.0
O273 O 0.53279 0.3045 0.52221 0.0
H274 H 0.61188 0.49564 0.61788 0.0
H275 H 0.43746 0.31548 0.6713 0.0
Dy276 Dy 0.34129 0.41532 0.41002 0.0
Dy277 Dy 0.40846 0.41523 0.29201 0.0
C278 C 0.3804 0.29927 0.2806 0.0
O279 O 0.42152 0.37052 0.46016 0.0
O280 O 0.46966 0.32956 0.36633 0.0
O281 O 0.34168 0.3552 0.48997 0.0
O282 O 0.26943 0.46368 0.46177 0.0
O283 O 0.40319 0.49022 0.37515 0.0
O284 O 0.33096 0.5243 0.43021 0.0
O285 O 0.32305 0.4984 0.26039 0.0
O286 O 0.28722 0.45492 0.31694 0.0
O287 O 0.41258 0.47748 0.21915 0.0
O288 O 0.47801 0.35975 0.23355 0.0
C289 C 0.46733 0.33223 0.4318 0.0
O290 O 0.37013 0.31243 0.3446 0.0
O291 O 0.39209 0.33634 0.24863 0.0
C292 C 0.26143 0.37066 0.49429 0.0
C293 C 0.20333 0.31212 0.48954 0.0
C294 C 0.25238 0.27177 0.45973 0.0
C295 C 0.28101 0.30087 0.46181 0.0
C296 C 0.21296 0.41031 0.52499 0.0
C297 C 0.18417 0.38152 0.52251 0.0
C298 C 0.29069 0.403 0.49608 0.0
C299 C 0.3672 0.53286 0.41935 0.0
C300 C 0.28518 0.49234 0.26733 0.0
C301 C 0.4985 0.44114 0.20724 0.0
C302 C 0.56751 0.47972 0.19974 0.0
C303 C 0.51659 0.53251 0.22369 0.0
C304 C 0.48257 0.51345 0.22757 0.0
C305 C 0.54987 0.3874 0.18551 0.0
C306 C 0.58416 0.40633 0.18203 0.0
C307 C 0.46133 0.42234 0.20586 0.0
H308 H 0.26806 0.21858 0.43345 0.0
H309 H 0.3183 0.26897 0.4376 0.0
H310 H 0.19717 0.46392 0.55062 0.0
H311 H 0.14691 0.41348 0.54675 0.0
H312 H 0.50202 0.5897 0.23721 0.0
H313 H 0.4433 0.5562 0.24502 0.0
H314 H 0.56311 0.3312 0.16976 0.0
H315 H 0.62322 0.36378 0.16418 0.0
Dy316 Dy 0.86887 0.32573 0.3664 0.0
Dy317 Dy 0.9225 0.37699 0.27613 0.0
C318 C 0.79997 0.46773 0.27567 0.0
O319 O 0.85486 0.29298 0.26123 0.0
O320 O 0.91973 0.28925 0.21497 0.0
O321 O 0.846 0.32354 0.46458 0.0
O322 O 0.83073 0.27395 0.37941 0.0
O323 O 0.98202 0.29552 0.34964 0.0
O324 O 0.95366 0.22426 0.35511 0.0
O325 O 0.89136 0.46323 0.36302 0.0
O326 O 0.89367 0.38675 0.43542 0.0
O327 O 0.94581 0.44578 0.25027 0.0
O328 O 0.97346 0.34253 0.19465 0.0
C329 C 0.88574 0.27326 0.21131 0.0
O330 O 0.80486 0.44174 0.33438 0.0
O331 O 0.83989 0.44191 0.23853 0.0
C332 C 0.76621 0.33511 0.46114 0.0
C333 C 0.66244 0.40322 0.50214 0.0
C334 C 0.68868 0.43518 0.52118 0.0
C335 C 0.73992 0.40145 0.50122 0.0
C336 C 0.73944 0.30498 0.43958 0.0
C337 C 0.68823 0.33878 0.45915 0.0
C338 C 0.82136 0.29599 0.44171 0.0
C339 C 0.99226 0.22997 0.35498 0.0
C340 C 0.88984 0.44811 0.42482 0.0
C341 C 0.03382 0.37165 0.21213 0.0
C342 C 0.137 0.33012 0.21125 0.0
C343 C 0.12886 0.27517 0.20071 0.0
C344 C 0.07769 0.29562 0.20147 0.0
C345 C 0.04261 0.42596 0.22432 0.0
C346 C 0.09366 0.40535 0.22413 0.0
C347 C 0.97889 0.39556 0.20683 0.0
H348 H 0.67023 0.48561 0.55266 0.0
H349 H 0.75912 0.42686 0.51808 0.0
H350 H 0.75858 0.25411 0.40837 0.0
H351 H 0.67022 0.31198 0.44198 0.0
H352 H 0.16182 0.21706 0.19031 0.0
H353 H 0.07248 0.25209 0.19201 0.0
H354 H 1.00975 0.48487 0.23167 0.0
H355 H 0.09928 0.44866 0.23131 0.0
Dy356 Dy 0.92188 0.77813 0.24736 0.0
Dy357 Dy 0.98169 0.81122 0.36937 0.0
C358 C 0.86375 0.86401 0.38053 0.0
O359 O 0.935 0.85548 0.20463 0.0
O360 O 0.93432 0.91119 0.30473 0.0
O361 O 0.85676 0.8281 0.17408 0.0
O362 O 0.90949 0.70698 0.18477 0.0
O363 O 0.03545 0.76068 0.27977 0.0
O364 O 1.00468 0.70332 0.21727 0.0
O365 O 0.99274 0.71113 0.40724 0.0
O366 O 0.9462 0.69257 0.32515 0.0
O367 O 0.05099 0.78163 0.42922 0.0
O368 O 0.97565 0.89185 0.44222 0.0
C369 C 0.93337 0.90895 0.23912 0.0
O370 O 0.86152 0.86856 0.31554 0.0
O371 O 0.90925 0.83388 0.41408 0.0
C372 C 0.8195 0.7627 0.15946 0.0
C373 C 0.73509 0.75476 0.16557 0.0
C374 C 0.7271 0.82342 0.17936 0.0
C375 C 0.76909 0.82736 0.17661 0.0
C376 C 0.82694 0.6947 0.1444 0.0
C377 C 0.78537 0.6906 0.14806 0.0
C378 C 0.86501 0.7642 0.15831 0.0
C379 C 0.03921 0.71681 0.22862 0.0
C380 C 0.97371 0.67556 0.38285 0.0
C381 C 0.05339 0.88445 0.46606 0.0
C382 C 0.10695 0.94965 0.49465 0.0
C383 C 0.05216 0.99248 0.50199 0.0
C384 C 0.02579 0.96031 0.48799 0.0
C385 C 0.10803 0.84175 0.45825 0.0
C386 C 0.13437 0.87386 0.47215 0.0
C387 C 0.02623 0.84853 0.45835 0.0
H388 H 0.68877 0.87347 0.19317 0.0
H389 H 0.76208 0.88079 0.18833 0.0
H390 H 0.86512 0.64439 0.13022 0.0
H391 H 0.79229 0.63731 0.1358 0.0
H392 H 0.0297 0.05054 0.51989 0.0
H393 H 0.98389 0.99445 0.49607 0.0
H394 H 0.13081 0.78294 0.44233 0.0
H395 H 0.17629 0.83893 0.46462 0.0
Dy396 Dy 0.41766 0.91408 0.39152 0.0
Dy397 Dy 0.37362 0.84899 0.28279 0.0
C398 C 0.49439 0.7809 0.28734 0.0
O399 O 0.43303 0.94249 0.29335 0.0
O400 O 0.37162 0.93777 0.2309 0.0
O401 O 0.47109 0.89899 0.47356 0.0
O402 O 0.40602 0.01116 0.44381 0.0
O403 O 0.30762 0.93421 0.34614 0.0
O404 O 0.33347 0.00859 0.36289 0.0
O405 O 0.4245 0.75944 0.35949 0.0
O406 O 0.40214 0.84155 0.44704 0.0
O407 O 0.33998 0.85018 0.18469 0.0
O408 O 0.34715 0.78029 0.26117 0.0
C409 C 0.40496 0.95488 0.23692 0.0
O410 O 0.4903 0.81499 0.34515 0.0
O411 O 0.45464 0.78978 0.25244 0.0
C412 C 0.48617 0.99031 0.47989 0.0
C413 C 0.56855 0.00441 0.48081 0.0
C414 C 0.54828 0.99331 0.42033 0.0
C415 C 0.50761 0.98618 0.41988 0.0
C416 C 0.50327 0.0073 0.53982 0.0
C417 C 0.54401 0.01474 0.54031 0.0
C418 C 0.44956 0.97061 0.48051 0.0
C419 C 0.29583 0.00108 0.35457 0.0
C420 C 0.41896 0.77334 0.42423 0.0
C421 C 0.27023 0.8401 0.18984 0.0
C422 C 0.16442 0.89434 0.16603 0.0
C423 C 0.17995 0.93782 0.14901 0.0
C424 C 0.2325 0.9112 0.16132 0.0
C425 C 0.25422 0.7971 0.20679 0.0
C426 C 0.2019 0.82403 0.19523 0.0
C427 C 0.32611 0.80973 0.20283 0.0
H428 H 0.56644 0.98476 0.3737 0.0
H429 H 0.49489 0.97339 0.37304 0.0
H430 H 0.48716 0.01074 0.5867 0.0
H431 H 0.55922 0.02198 0.58786 0.0
H432 H 0.15171 0.99141 0.12525 0.0
H433 H 0.2436 0.94583 0.14777 0.0
H434 H 0.28243 0.74199 0.22815 0.0
H435 H 0.1908 0.78878 0.20681 0.0
Dy436 Dy 0.38675 0.79975 0.8937 0.0
Dy437 Dy 0.43827 0.84394 0.7824 0.0
C438 C 0.31422 0.91911 0.77879 0.0
O439 O 0.37876 0.75526 0.79313 0.0
O440 O 0.45057 0.73662 0.74964 0.0
O441 O 0.33423 0.82968 0.97312 0.0
O442 O 0.39173 0.71277 0.94383 0.0
O443 O 0.50081 0.77561 0.8601 0.0
O444 O 0.473 0.71017 0.89649 0.0
O445 O 0.38531 0.94443 0.84884 0.0
O446 O 0.40406 0.87793 0.9422 0.0
O447 O 0.471 0.902 0.76444 0.0
O448 O 0.46961 0.83189 0.68552 0.0
C449 C 0.41458 0.72506 0.74785 0.0
O450 O 0.31751 0.89548 0.83845 0.0
O451 O 0.35503 0.89931 0.7452 0.0
C452 C 0.313 0.74587 0.98617 0.0
C453 C 0.23565 0.72305 0.99788 0.0
C454 C 0.23864 0.75072 0.93866 0.0
C455 C 0.27673 0.7622 0.93297 0.0
C456 C 0.31194 0.71502 0.04419 0.0
C457 C 0.27355 0.70376 0.05012 0.0
C458 C 0.35228 0.76011 0.9815 0.0
C459 C 0.50975 0.71774 0.88855 0.0
C460 C 0.38777 0.941 0.91411 0.0
C461 C 0.54067 0.84245 0.68778 0.0
C462 C 0.63772 0.8089 0.65079 0.0
C463 C 0.62654 0.81505 0.71862 0.0
C464 C 0.57859 0.83191 0.73686 0.0
C465 C 0.55312 0.83216 0.6204 0.0
C466 C 0.60072 0.81602 0.60206 0.0
C467 C 0.48635 0.87145 0.705 0.0
H468 H 0.21031 0.76612 0.89714 0.0
H469 H 0.27727 0.7851 0.88745 0.0
H470 H 0.34021 0.70097 0.0855 0.0
H471 H 0.2725 0.68241 0.09629 0.0
H472 H 0.65355 0.81068 0.75775 0.0
H473 H 0.57055 0.83918 0.78939 0.0
H474 H 0.52509 0.83907 0.58168 0.0
H475 H 0.60795 0.81103 0.54946 0.0
Dy476 Dy 0.39481 0.28936 0.81521 0.0
Dy477 Dy 0.45952 0.32031 0.92562 0.0
C478 C 0.33543 0.39485 0.94151 0.0
O479 O 0.37634 0.39526 0.77948 0.0
O480 O 0.43426 0.40689 0.84273 0.0
O481 O 0.33571 0.32065 0.73606 0.0
O482 O 0.39259 0.20341 0.76299 0.0
O483 O 0.50772 0.28663 0.83543 0.0
O484 O 0.47459 0.23384 0.77402 0.0
O485 O 0.47309 0.21308 0.96 0.0
O486 O 0.39954 0.23385 0.90813 0.0
O487 O 0.53091 0.2724 0.98673 0.0
O488 O 0.46455 0.39152 0.99863 0.0
C489 C 0.40122 0.42533 0.78943 0.0
O490 O 0.331 0.38323 0.87726 0.0
O491 O 0.3815 0.36932 0.9714 0.0
C492 C 0.3092 0.24297 0.71782 0.0
C493 C 0.23157 0.22031 0.69884 0.0
C494 C 0.247 0.23009 0.76374 0.0
C495 C 0.28557 0.24169 0.77323 0.0
C496 C 0.29333 0.23434 0.65323 0.0
C497 C 0.25498 0.22277 0.64391 0.0
C498 C 0.35103 0.25197 0.7257 0.0
C499 C 0.50269 0.25927 0.77804 0.0
C500 C 0.43685 0.20149 0.95593 0.0
C501 C 0.55124 0.35757 1.01167 0.0
C502 C 0.61913 0.39715 1.00064 0.0
C503 C 0.63901 0.32127 0.9953 0.0
C504 C 0.60531 0.30158 1.00073 0.0
C505 C 0.53214 0.43298 1.02 0.0
C506 C 0.56565 0.45249 1.01449 0.0
C507 C 0.51462 0.33803 1.01345 0.0
H508 H 0.22967 0.22786 0.80687 0.0
H509 H 0.29748 0.24849 0.82352 0.0
H510 H 0.31148 0.23482 0.61003 0.0
H511 H 0.2454 0.21206 0.59399 0.0
H512 H 0.68012 0.27758 0.98537 0.0
H513 H 0.62147 0.24265 0.99528 0.0
H514 H 0.49116 0.47716 1.03041 0.0
H515 H 0.54962 0.51123 1.0216 0.0
Dy516 Dy 0.9305 0.3709 0.89054 0.0
Dy517 Dy 0.88054 0.3273 0.75692 0.0
C518 C 1.00447 0.23907 0.78129 0.0
O519 O 0.95726 0.39187 0.80321 0.0
O520 O 0.89464 0.40919 0.72293 0.0
O521 O 0.98282 0.34617 0.97787 0.0
O522 O 0.92043 0.46166 0.95326 0.0
O523 O 0.82083 0.4012 0.8308 0.0
O524 O 0.84952 0.47097 0.85798 0.0
O525 O 0.9194 0.23495 0.83009 0.0
O526 O 0.9028 0.30696 0.92564 0.0
O527 O 0.81521 0.36688 0.684 0.0
O528 O 0.87766 0.24732 0.69227 0.0
C529 C 0.93246 0.41549 0.74465 0.0
O530 O 0.99982 0.26372 0.84409 0.0
O531 O 0.96457 0.26517 0.73736 0.0
C532 C 0.99962 0.43618 1.00245 0.0
C533 C 0.07483 0.4657 1.02677 0.0
C534 C 0.07475 0.42709 0.96794 0.0
C535 C 0.03786 0.41242 0.95608 0.0
C536 C 0.99732 0.47858 0.05941 0.0
C537 C 0.03459 0.49324 0.07153 0.0
C538 C 0.96236 0.41685 0.9914 0.0
C539 C 0.81073 0.46642 0.84547 0.0
C540 C 0.91583 0.24383 0.89512 0.0
C541 C 0.79192 0.28311 0.65525 0.0
C542 C 0.71439 0.25746 0.62606 0.0
C543 C 0.70722 0.30971 0.67678 0.0
C544 C 0.74534 0.32262 0.69098 0.0
C545 C 0.79981 0.22924 0.60643 0.0
C546 C 0.76171 0.21681 0.5919 0.0
C547 C 0.83155 0.29901 0.66467 0.0
H548 H 0.10459 0.40545 0.93162 0.0
H549 H 0.03996 0.38095 0.91118 0.0
H550 H 0.96741 0.49891 0.09533 0.0
H551 H 0.03302 0.52362 0.1169 0.0
H552 H 0.67107 0.34315 0.70356 0.0
H553 H 0.7378 0.36469 0.72885 0.0
H554 H 0.83503 0.19807 0.57778 0.0
H555 H 0.76869 0.17672 0.55218 0.0
Dy556 Dy 0.84741 0.8621 0.87483 0.0
Dy557 Dy 0.90034 0.88468 0.75917 0.0
C558 C 0.88205 0.75826 0.73041 0.0
O559 O 0.92227 0.8384 0.9194 0.0
O560 O 0.96555 0.7901 0.82378 0.0
O561 O 0.8627 0.78076 0.94421 0.0
O562 O 0.78781 0.8937 0.94304 0.0
O563 O 0.88943 0.96698 0.84464 0.0
O564 O 0.83667 0.9684 0.91727 0.0
O565 O 0.81682 0.94562 0.71962 0.0
O566 O 0.78037 0.92142 0.79843 0.0
O567 O 0.90258 0.95754 0.69699 0.0
O568 O 0.96497 0.83669 0.69388 0.0
C569 C 0.96654 0.79746 0.88916 0.0
O570 O 0.87601 0.76397 0.79634 0.0
O571 O 0.88666 0.80556 0.70268 0.0
C572 C 0.78692 0.79529 0.9774 0.0
C573 C 0.73027 0.73931 0.99934 0.0
C574 C 0.78094 0.69152 0.9734 0.0
C575 C 0.80902 0.71926 0.96255 0.0
C576 C 0.73706 0.84245 1.00447 0.0
C577 C 0.70899 0.81504 1.01497 0.0
C578 C 0.81555 0.82634 0.96788 0.0
C579 C 0.86209 0.99413 0.89979 0.0
C580 C 0.77778 0.94819 0.74072 0.0
C581 C 0.98881 0.91534 0.67514 0.0
C582 C 0.06521 0.94052 0.67109 0.0
C583 C 0.02091 0.98758 0.71059 0.0
C584 C 0.98319 0.97505 0.71268 0.0
C585 C 0.03343 0.86718 0.6371 0.0
C586 C 0.07151 0.8792 0.63557 0.0
C587 C 0.94863 0.90255 0.67447 0.0
H588 H 0.79888 0.63305 0.96048 0.0
H589 H 0.84784 0.6812 0.94237 0.0
H590 H 0.71974 0.9008 1.01792 0.0
H591 H 0.67089 0.85344 0.03662 0.0
H592 H 1.01526 0.03383 0.74067 0.0
H593 H 0.94961 0.01232 0.74353 0.0
H594 H 0.03866 0.82044 0.60812 0.0
H595 H 0.10519 0.84146 0.60521 0.0
loop_
_geom_bond_atom_site_label_1
_geom_bond_atom_site_label_2
_geom_bond_distance
_geom_bond_site_symmetry_2
_ccdc_geom_bond_type
Cu0 N1 1.999 . S
Cu0 O6 1.974 . S
Cu0 N11 1.985 . S
Cu0 O20 1.959 . S
N1 Cu0 1.999 . S
N1 C3 1.263 . S
N1 C5 1.389 . S
N2 C3 1.358 . S
N2 C4 1.400 . S
C3 N1 1.263 . S
C3 N2 1.358 . S
C3 H9 0.930 . S
C4 N2 1.400 . S
C4 C5 1.351 . S
C4 H21 0.930 . S
C5 N1 1.389 . S
C5 C4 1.351 . S
C5 H10 0.930 . S
O6 Cu0 1.974 . S
O6 C16 1.282 1_545 S
C7 O8 1.261 . S
C7 O20 1.251 . S
O8 C7 1.261 . S
H9 C3 0.930 . S
H10 C5 0.930 . S
N11 Cu0 1.985 . S
N11 C13 1.335 . S
N11 C14 1.390 1_545 S
N12 C13 1.345 1_565 S
N12 C15 1.336 . S
C13 N11 1.335 . S
C13 N12 1.345 1_545 S
C13 H18 0.930 . S
C14 N11 1.390 1_565 S
C14 C15 1.346 . S
C14 H19 0.930 . S
C15 N12 1.336 . S
C15 C14 1.346 . S
C15 H22 0.929 . S
C16 O6 1.282 1_565 S
C16 O17 1.215 1_565 S
O17 C16 1.215 1_545 S
H18 C13 0.930 . S
H19 C14 0.930 . S
O20 Cu0 1.959 . S
O20 C7 1.251 . S
H21 C4 0.930 . S
H22 C15 0.929 . S
Cu23 N24 1.999 . S
Cu23 O29 1.974 . S
Cu23 N34 1.985 . S
Cu23 O43 1.959 1_545 S
N24 Cu23 1.999 . S
N24 C26 1.263 . S
N24 C28 1.389 1_545 S
N25 C26 1.358 1_565 S
N25 C27 1.400 . S
C26 N24 1.263 . S
C26 N25 1.358 1_545 S
C26 H32 0.930 . S
C27 N25 1.400 . S
C27 C28 1.351 . S
C27 H44 0.930 . S
C28 N24 1.389 1_565 S
C28 C27 1.351 . S
C28 H33 0.930 . S
O29 Cu23 1.974 . S
O29 C39 1.282 . S
C30 O31 1.261 . S
C30 O43 1.251 . S
O31 C30 1.261 . S
H32 C26 0.930 . S
H33 C28 0.930 . S
N34 Cu23 1.985 . S
N34 C36 1.335 . S
N34 C37 1.390 . S
N35 C36 1.345 . S
N35 C38 1.336 . S
C36 N34 1.335 . S
C36 N35 1.345 . S
C36 H41 0.930 . S
C37 N34 1.390 . S
C37 C38 1.346 . S
C37 H42 0.930 . S
C38 N35 1.336 . S
C38 C37 1.346 . S
C38 H45 0.929 . S
C39 O29 1.282 . S
C39 O40 1.216 . S
O40 C39 1.216 . S
H41 C36 0.930 . S
H42 C37 0.930 . S
O43 Cu23 1.959 1_565 S
O43 C30 1.251 . S
H44 C27 0.930 . S
H45 C38 0.929 . S
Cu46 N47 1.999 1_554 S
Cu46 O52 1.974 . S
Cu46 N57 1.985 . S
Cu46 O66 1.959 1_554 S
N47 Cu46 1.999 1_556 S
N47 C49 1.263 . S
N47 C51 1.389 . S
N48 C49 1.358 . S
N48 C50 1.400 . S
C49 N47 1.263 . S
C49 N48 1.358 . S
C49 H55 0.930 1_556 S
C50 N48 1.400 . S
C50 C51 1.351 . S
C50 H67 0.930 . S
C51 N47 1.389 . S
C51 C50 1.351 . S
C51 H56 0.930 . S
O52 Cu46 1.974 . S
O52 C62 1.282 . S
C53 O54 1.261 . S
C53 O66 1.251 . S
O54 C53 1.261 . S
H55 C49 0.930 1_554 S
H56 C51 0.930 . S
N57 Cu46 1.985 . S
N57 C59 1.335 . S
N57 C60 1.390 . S
N58 C59 1.345 . S
N58 C61 1.336 . S
C59 N57 1.335 . S
C59 N58 1.345 . S
C59 H64 0.930 . S
C60 N57 1.390 . S
C60 C61 1.346 . S
C60 H65 0.930 . S
C61 N58 1.336 . S
C61 C60 1.346 . S
C61 H68 0.929 . S
C62 O52 1.282 . S
C62 O63 1.216 . S
O63 C62 1.216 . S
H64 C59 0.930 . S
H65 C60 0.930 . S
O66 Cu46 1.959 1_556 S
O66 C53 1.251 . S
H67 C50 0.930 . S
H68 C61 0.929 . S
Cu69 N70 1.999 1_554 S
Cu69 O75 1.974 . S
Cu69 N80 1.985 . S
Cu69 O89 1.957 1_554 S
N70 Cu69 1.999 1_556 S
N70 C72 1.263 . S
N70 C74 1.389 . S
N71 C72 1.358 . S
N71 C73 1.400 . S
C72 N70 1.263 . S
C72 N71 1.358 . S
C72 H78 0.930 1_556 S
C73 N71 1.400 . S
C73 C74 1.351 . S
C73 H90 0.930 . S
C74 N70 1.389 . S
C74 C73 1.351 . S
C74 H79 0.930 . S
O75 Cu69 1.974 . S
O75 C85 1.282 . S
C76 O77 1.262 . S
C76 O89 1.252 . S
O77 C76 1.262 . S
H78 C72 0.930 1_554 S
H79 C74 0.930 . S
N80 Cu69 1.985 . S
N80 C82 1.335 . S
N80 C83 1.390 . S
N81 C82 1.345 . S
N81 C84 1.336 . S
C82 N80 1.335 . S
C82 N81 1.345 . S
C82 H87 0.930 . S
C83 N80 1.390 . S
C83 C84 1.346 . S
C83 H88 0.930 . S
C84 N81 1.336 . S
C84 C83 1.346 . S
C84 H91 0.929 . S
C85 O75 1.282 . S
C85 O86 1.216 . S
O86 C85 1.216 . S
H87 C82 0.930 . S
H88 C83 0.930 . S
O89 Cu69 1.957 1_556 S
O89 C76 1.252 . S
H90 C73 0.930 . S
H91 C84 0.929 . S
Cu92 N93 1.999 1_554 S
Cu92 O98 1.974 . S
Cu92 N103 1.985 1_545 S
Cu92 O112 1.959 1_544 S
N93 Cu92 1.999 1_556 S
N93 C95 1.263 . S
N93 C97 1.389 . S
N94 C95 1.358 . S
N94 C96 1.400 . S
C95 N93 1.263 . S
C95 N94 1.358 . S
C95 H101 0.930 1_556 S
C96 N94 1.400 . S
C96 C97 1.351 . S
C96 H113 0.930 . S
C97 N93 1.389 . S
C97 C96 1.351 . S
C97 H102 0.930 . S
O98 Cu92 1.974 . S
O98 C108 1.282 1_655 S
C99 O100 1.261 1_655 S
C99 O112 1.251 . S
O100 C99 1.261 1_455 S
H101 C95 0.930 1_554 S
H102 C97 0.930 . S
N103 Cu92 1.985 1_565 S
N103 C105 1.335 . S
N103 C106 1.391 . S
N104 C105 1.345 . S
N104 C107 1.336 1_655 S
C105 N103 1.335 . S
C105 N104 1.345 . S
C105 H110 0.930 . S
C106 N103 1.391 . S
C106 C107 1.347 1_655 S
C106 H111 0.929 1_655 S
C107 N104 1.336 1_455 S
C107 C106 1.347 1_455 S
C107 H114 0.929 . S
C108 O98 1.282 1_455 S
C108 O109 1.216 . S
O109 C108 1.216 . S
H110 C105 0.930 . S
H111 C106 0.929 1_455 S
O112 Cu92 1.959 1_566 S
O112 C99 1.251 . S
H113 C96 0.930 . S
H114 C107 0.929 . S
Cu115 N116 1.999 1_454 S
Cu115 O121 1.974 1_455 S
Cu115 N126 1.985 . S
Cu115 O135 1.959 1_554 S
N116 Cu115 1.999 1_656 S
N116 C118 1.263 . S
N116 C120 1.394 . S
N117 C118 1.358 . S
N117 C119 1.400 . S
C118 N116 1.263 . S
C118 N117 1.358 . S
C118 H124 0.930 . S
C119 N117 1.400 . S
C119 C120 1.374 . S
C119 H136 0.930 . S
C120 N116 1.394 . S
C120 C119 1.374 . S
C120 H125 0.905 1_655 S
O121 Cu115 1.974 1_655 S
O121 C131 1.282 . S
C122 O123 1.261 . S
C122 O135 1.251 . S
O123 C122 1.261 . S
H124 C118 0.930 . S
H125 C120 0.905 1_455 S
N126 Cu115 1.985 . S
N126 C128 1.335 . S
N126 C129 1.390 . S
N127 C128 1.345 . S
N127 C130 1.336 . S
C128 N126 1.335 . S
C128 N127 1.345 . S
C128 H133 0.930 . S
C129 N126 1.390 . S
C129 C130 1.346 . S
C129 H134 0.930 . S
C130 N127 1.336 . S
C130 C129 1.346 . S
C130 H137 0.929 . S
C131 O121 1.282 . S
C131 O132 1.216 . S
O132 C131 1.216 . S
H133 C128 0.930 . S
H134 C129 0.930 . S
O135 Cu115 1.959 1_556 S
O135 C122 1.251 . S
H136 C119 0.930 . S
H137 C130 0.929 . S
Cu138 N139 1.999 . S
Cu138 O144 1.974 . S
Cu138 N149 1.984 1_554 S
Cu138 O158 1.959 . S
N139 Cu138 1.999 . S
N139 C141 1.263 1_554 S
N139 C143 1.389 . S
N140 C141 1.358 1_554 S
N140 C142 1.400 . S
C141 N139 1.263 1_556 S
C141 N140 1.358 1_556 S
C141 H147 0.930 . S
C142 N140 1.400 . S
C142 C143 1.351 . S
C142 H159 0.930 . S
C143 N139 1.389 . S
C143 C142 1.351 . S
C143 H148 0.930 . S
O144 Cu138 1.974 . S
O144 C154 1.282 1_554 S
C145 O146 1.261 . S
C145 O158 1.251 1_556 S
O146 C145 1.261 . S
H147 C141 0.930 . S
H148 C143 0.930 . S
N149 Cu138 1.984 1_556 S
N149 C151 1.333 1_556 S
N149 C152 1.392 . S
N150 C151 1.345 . S
N150 C153 1.336 1_554 S
C151 N149 1.333 1_554 S
C151 N150 1.345 . S
C151 H156 0.930 . S
C152 N149 1.392 . S
C152 C153 1.346 . S
C152 H157 0.930 . S
C153 N150 1.336 1_556 S
C153 C152 1.346 . S
C153 H160 0.929 . S
C154 O144 1.282 1_556 S
C154 O155 1.216 . S
O155 C154 1.216 . S
H156 C151 0.930 . S
H157 C152 0.930 . S
O158 Cu138 1.959 . S
O158 C145 1.251 1_554 S
H159 C142 0.930 . S
H160 C153 0.929 . S
Cu161 N162 1.999 . S
Cu161 O167 1.974 . S
Cu161 N172 1.985 . S
Cu161 O181 1.959 . S
N162 Cu161 1.999 . S
N162 C164 1.263 . S
N162 C166 1.389 . S
N163 C164 1.358 . S
N163 C165 1.400 . S
C164 N162 1.263 . S
C164 N163 1.358 . S
C164 H170 0.930 . S
C165 N163 1.400 . S
C165 C166 1.351 . S
C165 H182 0.930 . S
C166 N162 1.389 . S
C166 C165 1.351 . S
C166 H171 0.930 . S
O167 Cu161 1.974 . S
O167 C177 1.282 . S
C168 O169 1.261 . S
C168 O181 1.251 . S
O169 C168 1.261 . S
H170 C164 0.930 . S
H171 C166 0.930 . S
N172 Cu161 1.985 . S
N172 C174 1.335 . S
N172 C175 1.390 . S
N173 C174 1.345 . S
N173 C176 1.336 . S
C174 N172 1.335 . S
C174 N173 1.345 . S
C174 H179 0.930 . S
C175 N172 1.390 . S
C175 C176 1.346 . S
C175 H180 0.930 . S
C176 N173 1.336 . S
C176 C175 1.346 . S
C176 H183 0.929 . S
C177 O167 1.282 . S
C177 O178 1.216 . S
O178 C177 1.216 . S
H179 C174 0.930 . S
H180 C175 0.930 . S
O181 Cu161 1.959 . S
O181 C168 1.251 . S
H182 C165 0.930 . S
H183 C176 0.929 . S
Cu184 N185 1.999 . S
Cu184 O190 1.974 . S
Cu184 N195 1.985 . S
Cu184 O204 1.959 . S
N185 Cu184 1.999 . S
N185 C187 1.263 . S
N185 C189 1.389 . S
N186 C187 1.358 . S
N186 C188 1.400 . S
C187 N185 1.263 . S
C187 N186 1.358 . S
C187 H193 0.930 . S
C188 N186 1.400 . S
C188 C189 1.351 . S
C188 H205 0.930 . S
C189 N185 1.389 . S
C189 C188 1.351 . S
C189 H194 0.930 . S
O190 Cu184 1.974 . S
O190 C200 1.282 . S
C191 O192 1.261 . S
C191 O204 1.251 . S
O192 C191 1.261 . S
H193 C187 0.930 . S
H194 C189 0.930 . S
N195 Cu184 1.985 . S
N195 C197 1.335 . S
N195 C198 1.390 . S
N196 C197 1.345 . S
N196 C199 1.336 . S
C197 N195 1.335 . S
C197 N196 1.345 . S
C197 H202 0.930 . S
C198 N195 1.390 . S
C198 C199 1.346 . S
C198 H203 0.930 . S
C199 N196 1.336 . S
C199 C198 1.346 . S
C199 H206 0.929 . S
C200 O190 1.282 . S
C200 O201 1.216 . S
O201 C200 1.216 . S
H202 C197 0.930 . S
H203 C198 0.930 . S
O204 Cu184 1.959 . S
O204 C191 1.251 . S
H205 C188 0.930 . S
H206 C199 0.929 . S
Cu207 N208 1.999 . S
Cu207 O213 1.974 . S
Cu207 N218 1.985 . S
Cu207 O227 1.959 . S
N208 Cu207 1.999 . S
N208 C210 1.263 . S
N208 C212 1.389 . S
N209 C210 1.358 . S
N209 C211 1.400 . S
C210 N208 1.263 . S
C210 N209 1.358 . S
C210 H216 0.930 . S
C211 N209 1.400 . S
C211 C212 1.351 . S
C211 H228 0.930 . S
C212 N208 1.389 . S
C212 C211 1.351 . S
C212 H217 0.930 . S
O213 Cu207 1.974 . S
O213 C223 1.282 . S
C214 O215 1.261 . S
C214 O227 1.251 . S
O215 C214 1.261 . S
H216 C210 0.930 . S
H217 C212 0.930 . S
N218 Cu207 1.985 . S
N218 C220 1.335 . S
N218 C221 1.390 . S
N219 C220 1.345 . S
N219 C222 1.336 . S
C220 N218 1.335 . S
C220 N219 1.345 . S
C220 H225 0.930 . S
C221 N218 1.390 . S
C221 C222 1.346 . S
C221 H226 0.930 . S
C222 N219 1.336 . S
C222 C221 1.346 . S
C222 H229 0.929 . S
C223 O213 1.282 . S
C223 O224 1.216 . S
O224 C223 1.216 . S
H225 C220 0.930 . S
H226 C221 0.930 . S
O227 Cu207 1.959 . S
O227 C214 1.251 . S
H228 C211 0.930 . S
H229 C222 0.929 . S
Cu230 N231 1.999 . S
Cu230 O236 1.974 . S
Cu230 N241 1.985 . S
Cu230 O250 1.959 . S
N231 Cu230 1.999 . S
N231 C233 1.263 . S
N231 C235 1.389 . S
N232 C233 1.358 . S
N232 C234 1.400 . S
C233 N231 1.263 . S
C233 N232 1.358 . S
C233 H239 0.930 . S
C234 N232 1.400 . S
C234 C235 1.351 . S
C234 H251 0.930 . S
C235 N231 1.389 . S
C235 C234 1.351 . S
C235 H240 0.930 . S
O236 Cu230 1.974 . S
O236 C246 1.282 . S
C237 O238 1.261 . S
C237 O250 1.251 . S
O238 C237 1.261 . S
H239 C233 0.930 . S
H240 C235 0.930 . S
N241 Cu230 1.985 . S
N241 C243 1.335 . S
N241 C244 1.390 . S
N242 C243 1.345 . S
N242 C245 1.336 . S
C243 N241 1.335 . S
C243 N242 1.345 . S
C243 H248 0.930 . S
C244 N241 1.390 . S
C244 C245 1.346 . S
C244 H249 0.930 . S
C245 N242 1.336 . S
C245 C244 1.346 . S
C245 H252 0.929 . S
C246 O236 1.282 . S
C246 O247 1.216 . S
O247 C246 1.216 . S
H248 C243 0.930 . S
H249 C244 0.930 . S
O250 Cu230 1.959 . S
O250 C237 1.251 . S
H251 C234 0.930 . S
H252 C245 0.929 . S
Cu253 N254 1.999 . S
Cu253 O259 1.974 . S
Cu253 N264 1.985 . S
Cu253 O273 1.959 . S
N254 Cu253 1.999 . S
N254 C256 1.263 . S
N254 C258 1.389 . S
N255 C256 1.358 . S
N255 C257 1.400 . S
C256 N254 1.263 . S
C256 N255 1.358 . S
C256 H262 0.930 . S
C257 N255 1.400 . S
C257 C258 1.351 . S
C257 H274 0.930 . S
C258 N254 1.389 . S
C258 C257 1.351 . S
C258 H263 0.930 . S
O259 Cu253 1.974 . S
O259 C269 1.282 . S
C260 O261 1.261 . S
C260 O273 1.251 . S
O261 C260 1.261 . S
H262 C256 0.930 . S
H263 C258 0.930 . S
N264 Cu253 1.985 . S
N264 C266 1.335 . S
N264 C267 1.390 . S
N265 C266 1.345 . S
N265 C268 1.336 . S
C266 N264 1.335 . S
C266 N265 1.345 . S
C266 H271 0.930 . S
C267 N264 1.390 . S
C267 C268 1.346 . S
C267 H272 0.930 . S
C268 N265 1.336 . S
C268 C267 1.346 . S
C268 H275 0.929 . S
C269 O259 1.282 . S
C269 O270 1.216 . S
O270 C269 1.216 . S
H271 C266 0.930 . S
H272 C267 0.930 . S
O273 Cu253 1.959 . S
O273 C260 1.251 . S
H274 C257 0.930 . S
H275 C268 0.929 . S
Dy276 O279 2.307 . S
Dy276 O281 2.395 . S
Dy276 O282 2.379 . S
Dy276 O284 2.339 . S
Dy276 O286 2.298 . S
Dy276 O290 2.275 . S
Dy276 C298 2.738 . S
Dy277 O280 2.298 . S
Dy277 O283 2.275 . S
Dy277 O285 2.307 . S
Dy277 O287 2.395 . S
Dy277 O288 2.379 . S
Dy277 O291 2.339 . S
Dy277 C307 2.738 . S
C278 O290 1.254 . S
C278 O291 1.257 . S
O279 Dy276 2.307 . S
O279 C289 1.266 . S
O280 Dy277 2.298 . S
O280 C289 1.236 . S
O281 Dy276 2.395 . S
O281 C298 1.255 . S
O282 Dy276 2.379 . S
O282 C298 1.249 . S
O283 Dy277 2.275 . S
O283 C299 1.254 . S
O284 Dy276 2.339 . S
O284 C299 1.257 . S
O285 Dy277 2.307 . S
O285 C300 1.266 . S
O286 Dy276 2.298 . S
O286 C300 1.236 . S
O287 Dy277 2.395 . S
O287 C307 1.255 . S
O288 Dy277 2.379 . S
O288 C307 1.249 . S
C289 O279 1.266 . S
C289 O280 1.236 . S
O290 Dy276 2.275 . S
O290 C278 1.254 . S
O291 Dy277 2.339 . S
O291 C278 1.257 . S
C292 C295 1.344 . S
C292 C296 1.328 . S
C292 C298 1.516 . S
C293 C294 1.304 . S
C293 C297 1.323 . S
C294 C293 1.304 . S
C294 C295 1.371 . S
C294 H308 0.930 . S
C295 C292 1.344 . S
C295 C294 1.371 . S
C295 H309 0.931 . S
C296 C292 1.328 . S
C296 C297 1.433 . S
C296 H310 0.931 . S
C297 C293 1.323 . S
C297 C296 1.433 . S
C297 H311 0.933 . S
C298 Dy276 2.738 . S
C298 O281 1.255 . S
C298 O282 1.249 . S
C298 C292 1.516 . S
C299 O283 1.254 . S
C299 O284 1.257 . S
C300 O285 1.266 . S
C300 O286 1.236 . S
C301 C304 1.344 . S
C301 C305 1.328 . S
C301 C307 1.516 . S
C302 C303 1.304 . S
C302 C306 1.323 . S
C303 C302 1.304 . S
C303 C304 1.371 . S
C303 H312 0.930 . S
C304 C301 1.344 . S
C304 C303 1.371 . S
C304 H313 0.931 . S
C305 C301 1.328 . S
C305 C306 1.433 . S
C305 H314 0.931 . S
C306 C302 1.323 . S
C306 C305 1.433 . S
C306 H315 0.933 . S
C307 Dy277 2.738 . S
C307 O287 1.255 . S
C307 O288 1.249 . S
C307 C301 1.516 . S
H308 C294 0.930 . S
H309 C295 0.931 . S
H310 C296 0.931 . S
H311 C297 0.933 . S
H312 C303 0.930 . S
H313 C304 0.931 . S
H314 C305 0.931 . S
H315 C306 0.933 . S
Dy316 O319 2.307 . S
Dy316 O321 2.395 . S
Dy316 O322 2.379 . S
Dy316 O324 2.339 . S
Dy316 O326 2.298 . S
Dy316 O330 2.275 . S
Dy316 C338 2.738 . S
Dy317 O320 2.298 . S
Dy317 O323 2.275 . S
Dy317 O325 2.307 . S
Dy317 O327 2.395 1_655 S
Dy317 O328 2.379 . S
Dy317 O331 2.339 . S
Dy317 C347 2.738 . S
C318 O330 1.254 . S
C318 O331 1.257 . S
O319 Dy316 2.307 . S
O319 C329 1.266 . S
O320 Dy317 2.298 . S
O320 C329 1.236 . S
O321 Dy316 2.395 . S
O321 C338 1.255 . S
O322 Dy316 2.379 . S
O322 C338 1.249 . S
O323 Dy317 2.275 . S
O323 C339 1.254 . S
O324 Dy316 2.339 . S
O324 C339 1.257 . S
O325 Dy317 2.307 . S
O325 C340 1.266 . S
O326 Dy316 2.298 . S
O326 C340 1.236 . S
O327 Dy317 2.395 1_455 S
O327 C347 1.255 1_455 S
O328 Dy317 2.379 . S
O328 C347 1.249 . S
C329 O319 1.266 . S
C329 O320 1.236 . S
O330 Dy316 2.275 . S
O330 C318 1.254 . S
O331 Dy317 2.339 . S
O331 C318 1.257 . S
C332 C335 1.344 . S
C332 C336 1.328 . S
C332 C338 1.516 . S
C333 C334 1.304 . S
C333 C337 1.323 . S
C334 C333 1.304 . S
C334 C335 1.371 . S
C334 H348 0.930 . S
C335 C332 1.344 . S
C335 C334 1.371 . S
C335 H349 0.931 . S
C336 C332 1.328 . S
C336 C337 1.433 . S
C336 H350 0.931 . S
C337 C333 1.323 . S
C337 C336 1.433 . S
C337 H351 0.933 . S
C338 Dy316 2.738 . S
C338 O321 1.255 . S
C338 O322 1.249 . S
C338 C332 1.516 . S
C339 O323 1.254 . S
C339 O324 1.257 . S
C340 O325 1.266 . S
C340 O326 1.236 . S
C341 C344 1.344 . S
C341 C345 1.328 . S
C341 C347 1.516 1_455 S
C342 C343 1.304 . S
C342 C346 1.323 . S
C343 C342 1.304 . S
C343 C344 1.371 . S
C343 H352 0.930 . S
C344 C341 1.344 . S
C344 C343 1.371 . S
C344 H353 0.931 . S
C345 C341 1.328 . S
C345 C346 1.433 . S
C345 H354 0.931 1_455 S
C346 C342 1.323 . S
C346 C345 1.433 . S
C346 H355 0.933 . S
C347 Dy317 2.738 . S
C347 O327 1.255 1_655 S
C347 O328 1.249 . S
C347 C341 1.516 1_655 S
H348 C334 0.930 . S
H349 C335 0.931 . S
H350 C336 0.931 . S
H351 C337 0.933 . S
H352 C343 0.930 . S
H353 C344 0.931 . S
H354 C345 0.931 1_655 S
H355 C346 0.933 . S
Dy356 O359 2.307 . S
Dy356 O361 2.395 . S
Dy356 O362 2.379 . S
Dy356 O364 2.339 . S
Dy356 O366 2.298 . S
Dy356 O370 2.275 . S
Dy356 C378 2.738 . S
Dy357 O360 2.298 . S
Dy357 O363 2.275 . S
Dy357 O365 2.307 . S
Dy357 O367 2.395 1_655 S
Dy357 O368 2.379 . S
Dy357 O371 2.339 . S
Dy357 C387 2.738 1_655 S
C358 O370 1.254 . S
C358 O371 1.257 . S
O359 Dy356 2.307 . S
O359 C369 1.266 . S
O360 Dy357 2.298 . S
O360 C369 1.236 . S
O361 Dy356 2.395 . S
O361 C378 1.255 . S
O362 Dy356 2.379 . S
O362 C378 1.249 . S
O363 Dy357 2.275 . S
O363 C379 1.254 . S
O364 Dy356 2.339 . S
O364 C379 1.257 . S
O365 Dy357 2.307 . S
O365 C380 1.266 . S
O366 Dy356 2.298 . S
O366 C380 1.236 . S
O367 Dy357 2.395 1_455 S
O367 C387 1.255 . S
O368 Dy357 2.379 . S
O368 C387 1.249 1_655 S
C369 O359 1.266 . S
C369 O360 1.236 . S
O370 Dy356 2.275 . S
O370 C358 1.254 . S
O371 Dy357 2.339 . S
O371 C358 1.257 . S
C372 C375 1.344 . S
C372 C376 1.328 . S
C372 C378 1.516 . S
C373 C374 1.304 . S
C373 C377 1.323 . S
C374 C373 1.304 . S
C374 C375 1.371 . S
C374 H388 0.930 . S
C375 C372 1.344 . S
C375 C374 1.371 . S
C375 H389 0.931 . S
C376 C372 1.328 . S
C376 C377 1.433 . S
C376 H390 0.931 . S
C377 C373 1.323 . S
C377 C376 1.433 . S
C377 H391 0.933 . S
C378 Dy356 2.738 . S
C378 O361 1.255 . S
C378 O362 1.249 . S
C378 C372 1.516 . S
C379 O363 1.254 . S
C379 O364 1.257 . S
C380 O365 1.266 . S
C380 O366 1.236 . S
C381 C384 1.344 . S
C381 C385 1.328 . S
C381 C387 1.516 . S
C382 C383 1.304 . S
C382 C386 1.323 . S
C383 C382 1.304 . S
C383 C384 1.371 . S
C383 H392 0.930 . S
C384 C381 1.344 . S
C384 C383 1.371 . S
C384 H393 0.931 . S
C385 C381 1.328 . S
C385 C386 1.433 . S
C385 H394 0.931 . S
C386 C382 1.323 . S
C386 C385 1.433 . S
C386 H395 0.933 . S
C387 Dy357 2.738 1_455 S
C387 O367 1.255 . S
C387 O368 1.249 1_455 S
C387 C381 1.516 . S
H388 C374 0.930 . S
H389 C375 0.931 . S
H390 C376 0.931 . S
H391 C377 0.933 . S
H392 C383 0.930 . S
H393 C384 0.931 . S
H394 C385 0.931 . S
H395 C386 0.933 . S
Dy396 O399 2.307 . S
Dy396 O401 2.395 . S
Dy396 O402 2.379 . S
Dy396 O404 2.339 . S
Dy396 O406 2.298 . S
Dy396 O410 2.275 . S
Dy396 C418 2.738 . S
Dy397 O400 2.298 . S
Dy397 O403 2.275 . S
Dy397 O405 2.307 . S
Dy397 O407 2.395 . S
Dy397 O408 2.379 . S
Dy397 O411 2.339 . S
Dy397 C427 2.738 . S
C398 O410 1.254 . S
C398 O411 1.257 . S
O399 Dy396 2.307 . S
O399 C409 1.266 . S
O400 Dy397 2.298 . S
O400 C409 1.236 . S
O401 Dy396 2.395 . S
O401 C418 1.255 . S
O402 Dy396 2.379 . S
O402 C418 1.249 . S
O403 Dy397 2.275 . S
O403 C419 1.254 . S
O404 Dy396 2.339 . S
O404 C419 1.257 . S
O405 Dy397 2.307 . S
O405 C420 1.266 . S
O406 Dy396 2.298 . S
O406 C420 1.236 . S
O407 Dy397 2.395 . S
O407 C427 1.255 . S
O408 Dy397 2.379 . S
O408 C427 1.249 . S
C409 O399 1.266 . S
C409 O400 1.236 . S
O410 Dy396 2.275 . S
O410 C398 1.254 . S
O411 Dy397 2.339 . S
O411 C398 1.257 . S
C412 C415 1.344 . S
C412 C416 1.328 . S
C412 C418 1.516 . S
C413 C414 1.304 . S
C413 C417 1.323 . S
C414 C413 1.304 . S
C414 C415 1.371 . S
C414 H428 0.930 . S
C415 C412 1.344 . S
C415 C414 1.371 . S
C415 H429 0.931 . S
C416 C412 1.328 . S
C416 C417 1.433 . S
C416 H430 0.931 . S
C417 C413 1.323 . S
C417 C416 1.433 . S
C417 H431 0.933 . S
C418 Dy396 2.738 . S
C418 O401 1.255 . S
C418 O402 1.249 . S
C418 C412 1.516 . S
C419 O403 1.254 . S
C419 O404 1.257 . S
C420 O405 1.266 . S
C420 O406 1.236 . S
C421 C424 1.344 . S
C421 C425 1.328 . S
C421 C427 1.516 . S
C422 C423 1.304 . S
C422 C426 1.323 . S
C423 C422 1.304 . S
C423 C424 1.371 . S
C423 H432 0.930 1_565 S
C424 C421 1.344 . S
C424 C423 1.371 . S
C424 H433 0.931 1_565 S
C425 C421 1.328 . S
C425 C426 1.433 . S
C425 H434 0.931 . S
C426 C422 1.323 . S
C426 C425 1.433 . S
C426 H435 0.933 . S
C427 Dy397 2.738 . S
C427 O407 1.255 . S
C427 O408 1.249 . S
C427 C421 1.516 . S
H428 C414 0.930 . S
H429 C415 0.931 . S
H430 C416 0.931 . S
H431 C417 0.933 . S
H432 C423 0.930 1_545 S
H433 C424 0.931 1_545 S
H434 C425 0.931 . S
H435 C426 0.933 . S
Dy436 O439 2.307 . S
Dy436 O441 2.395 . S
Dy436 O442 2.379 . S
Dy436 O444 2.339 . S
Dy436 O446 2.298 . S
Dy436 O450 2.275 . S
Dy436 C458 2.738 . S
Dy437 O440 2.298 . S
Dy437 O443 2.275 . S
Dy437 O445 2.307 . S
Dy437 O447 2.395 . S
Dy437 O448 2.379 . S
Dy437 O451 2.339 . S
Dy437 C467 2.738 . S
C438 O450 1.254 . S
C438 O451 1.257 . S
O439 Dy436 2.307 . S
O439 C449 1.266 . S
O440 Dy437 2.298 . S
O440 C449 1.236 . S
O441 Dy436 2.395 . S
O441 C458 1.255 . S
O442 Dy436 2.379 . S
O442 C458 1.249 . S
O443 Dy437 2.275 . S
O443 C459 1.254 . S
O444 Dy436 2.339 . S
O444 C459 1.257 . S
O445 Dy437 2.307 . S
O445 C460 1.266 . S
O446 Dy436 2.298 . S
O446 C460 1.236 . S
O447 Dy437 2.395 . S
O447 C467 1.255 . S
O448 Dy437 2.379 . S
O448 C467 1.249 . S
C449 O439 1.266 . S
C449 O440 1.236 . S
O450 Dy436 2.275 . S
O450 C438 1.254 . S
O451 Dy437 2.339 . S
O451 C438 1.257 . S
C452 C455 1.344 . S
C452 C456 1.316 1_556 S
C452 C458 1.516 . S
C453 C454 1.304 1_554 S
C453 C457 1.323 . S
C454 C453 1.304 1_556 S
C454 C455 1.371 . S
C454 H468 0.933 . S
C455 C452 1.344 . S
C455 C454 1.371 . S
C455 H469 0.931 . S
C456 C452 1.316 1_554 S
C456 C457 1.441 . S
C456 H470 0.934 . S
C457 C453 1.323 . S
C457 C456 1.441 . S
C457 H471 0.933 . S
C458 Dy436 2.738 . S
C458 O441 1.255 . S
C458 O442 1.249 . S
C458 C452 1.516 . S
C459 O443 1.254 . S
C459 O444 1.257 . S
C460 O445 1.266 . S
C460 O446 1.236 . S
C461 C464 1.344 . S
C461 C465 1.328 . S
C461 C467 1.516 . S
C462 C463 1.304 . S
C462 C466 1.323 . S
C463 C462 1.304 . S
C463 C464 1.371 . S
C463 H472 0.930 . S
C464 C461 1.344 . S
C464 C463 1.371 . S
C464 H473 0.931 . S
C465 C461 1.328 . S
C465 C466 1.433 . S
C465 H474 0.931 . S
C466 C462 1.323 . S
C466 C465 1.433 . S
C466 H475 0.933 . S
C467 Dy437 2.738 . S
C467 O447 1.255 . S
C467 O448 1.249 . S
C467 C461 1.516 . S
H468 C454 0.933 . S
H469 C455 0.931 . S
H470 C456 0.934 . S
H471 C457 0.933 . S
H472 C463 0.930 . S
H473 C464 0.931 . S
H474 C465 0.931 . S
H475 C466 0.933 . S
Dy476 O479 2.307 . S
Dy476 O481 2.395 . S
Dy476 O482 2.379 . S
Dy476 O484 2.339 . S
Dy476 O486 2.298 . S
Dy476 O490 2.275 . S
Dy476 C498 2.738 . S
Dy477 O480 2.298 . S
Dy477 O483 2.275 . S
Dy477 O485 2.307 . S
Dy477 O487 2.395 . S
Dy477 O488 2.379 . S
Dy477 O491 2.339 . S
Dy477 C507 2.738 . S
C478 O490 1.254 . S
C478 O491 1.257 . S
O479 Dy476 2.307 . S
O479 C489 1.266 . S
O480 Dy477 2.298 . S
O480 C489 1.236 . S
O481 Dy476 2.395 . S
O481 C498 1.255 . S
O482 Dy476 2.379 . S
O482 C498 1.249 . S
O483 Dy477 2.275 . S
O483 C499 1.254 . S
O484 Dy476 2.339 . S
O484 C499 1.257 . S
O485 Dy477 2.307 . S
O485 C500 1.266 . S
O486 Dy476 2.298 . S
O486 C500 1.236 . S
O487 Dy477 2.395 . S
O487 C507 1.255 . S
O488 Dy477 2.379 . S
O488 C507 1.249 . S
C489 O479 1.266 . S
C489 O480 1.236 . S
O490 Dy476 2.275 . S
O490 C478 1.254 . S
O491 Dy477 2.339 . S
O491 C478 1.257 . S
C492 C495 1.344 . S
C492 C496 1.328 . S
C492 C498 1.516 . S
C493 C494 1.304 . S
C493 C497 1.323 . S
C494 C493 1.304 . S
C494 C495 1.371 . S
C494 H508 0.930 . S
C495 C492 1.344 . S
C495 C494 1.371 . S
C495 H509 0.931 . S
C496 C492 1.328 . S
C496 C497 1.433 . S
C496 H510 0.931 . S
C497 C493 1.323 . S
C497 C496 1.433 . S
C497 H511 0.933 . S
C498 Dy476 2.738 . S
C498 O481 1.255 . S
C498 O482 1.249 . S
C498 C492 1.516 . S
C499 O483 1.254 . S
C499 O484 1.257 . S
C500 O485 1.266 . S
C500 O486 1.236 . S
C501 C504 1.344 . S
C501 C505 1.328 . S
C501 C507 1.516 . S
C502 C503 1.304 . S
C502 C506 1.323 . S
C503 C502 1.304 . S
C503 C504 1.371 . S
C503 H512 0.930 . S
C504 C501 1.344 . S
C504 C503 1.371 . S
C504 H513 0.931 . S
C505 C501 1.328 . S
C505 C506 1.433 . S
C505 H514 0.931 1_556 S
C506 C502 1.323 . S
C506 C505 1.433 . S
C506 H515 0.933 1_556 S
C507 Dy477 2.738 . S
C507 O487 1.255 . S
C507 O488 1.249 . S
C507 C501 1.516 . S
H508 C494 0.930 . S
H509 C495 0.931 . S
H510 C496 0.931 . S
H511 C497 0.933 . S
H512 C503 0.930 . S
H513 C504 0.931 . S
H514 C505 0.931 1_554 S
H515 C506 0.933 1_554 S
Dy516 O519 2.307 . S
Dy516 O521 2.395 1_655 S
Dy516 O522 2.379 . S
Dy516 O524 2.339 . S
Dy516 O526 2.298 . S
Dy516 O530 2.275 . S
Dy516 C538 2.738 1_655 S
Dy517 O520 2.298 . S
Dy517 O523 2.275 . S
Dy517 O525 2.307 . S
Dy517 O527 2.395 . S
Dy517 O528 2.379 . S
Dy517 O531 2.339 . S
Dy517 C547 2.738 . S
C518 O530 1.254 . S
C518 O531 1.257 . S
O519 Dy516 2.307 . S
O519 C529 1.266 . S
O520 Dy517 2.298 . S
O520 C529 1.236 . S
O521 Dy516 2.395 1_455 S
O521 C538 1.255 . S
O522 Dy516 2.379 . S
O522 C538 1.249 1_655 S
O523 Dy517 2.275 . S
O523 C539 1.254 . S
O524 Dy516 2.339 . S
O524 C539 1.257 . S
O525 Dy517 2.307 . S
O525 C540 1.266 . S
O526 Dy516 2.298 . S
O526 C540 1.236 . S
O527 Dy517 2.395 . S
O527 C547 1.255 . S
O528 Dy517 2.379 . S
O528 C547 1.249 . S
C529 O519 1.266 . S
C529 O520 1.236 . S
O530 Dy516 2.275 . S
O530 C518 1.254 . S
O531 Dy517 2.339 . S
O531 C518 1.257 . S
C532 C535 1.344 . S
C532 C536 1.328 1_556 S
C532 C538 1.516 . S
C533 C534 1.304 1_554 S
C533 C537 1.323 . S
C534 C533 1.304 1_556 S
C534 C535 1.371 . S
C534 H548 0.930 . S
C535 C532 1.344 . S
C535 C534 1.371 . S
C535 H549 0.931 . S
C536 C532 1.328 1_554 S
C536 C537 1.433 . S
C536 H550 0.931 . S
C537 C533 1.323 . S
C537 C536 1.433 . S
C537 H551 0.933 . S
C538 Dy516 2.738 1_455 S
C538 O521 1.255 . S
C538 O522 1.249 1_455 S
C538 C532 1.516 . S
C539 O523 1.254 . S
C539 O524 1.257 . S
C540 O525 1.266 . S
C540 O526 1.236 . S
C541 C544 1.344 . S
C541 C545 1.328 . S
C541 C547 1.516 . S
C542 C543 1.304 . S
C542 C546 1.323 . S
C543 C542 1.304 . S
C543 C544 1.371 . S
C543 H552 0.930 . S
C544 C541 1.344 . S
C544 C543 1.371 . S
C544 H553 0.931 . S
C545 C541 1.328 . S
C545 C546 1.433 . S
C545 H554 0.931 . S
C546 C542 1.323 . S
C546 C545 1.433 . S
C546 H555 0.933 . S
C547 Dy517 2.738 . S
C547 O527 1.255 . S
C547 O528 1.249 . S
C547 C541 1.516 . S
H548 C534 0.930 . S
H549 C535 0.931 . S
H550 C536 0.931 . S
H551 C537 0.933 . S
H552 C543 0.930 . S
H553 C544 0.931 . S
H554 C545 0.931 . S
H555 C546 0.933 . S
Dy556 O559 2.307 . S
Dy556 O561 2.395 . S
Dy556 O562 2.379 . S
Dy556 O564 2.339 . S
Dy556 O566 2.298 . S
Dy556 O570 2.275 . S
Dy556 C578 2.738 . S
Dy557 O560 2.298 . S
Dy557 O563 2.275 . S
Dy557 O565 2.307 . S
Dy557 O567 2.395 1_565 S
Dy557 O568 2.379 . S
Dy557 O571 2.339 . S
Dy557 C587 2.738 . S
C558 O570 1.254 . S
C558 O571 1.257 . S
O559 Dy556 2.307 . S
O559 C569 1.266 . S
O560 Dy557 2.298 . S
O560 C569 1.236 . S
O561 Dy556 2.395 . S
O561 C578 1.255 . S
O562 Dy556 2.379 . S
O562 C578 1.249 . S
O563 Dy557 2.275 . S
O563 C579 1.254 1_565 S
O564 Dy556 2.339 . S
O564 C579 1.257 1_565 S
O565 Dy557 2.307 . S
O565 C580 1.266 . S
O566 Dy556 2.298 . S
O566 C580 1.236 . S
O567 Dy557 2.395 1_545 S
O567 C587 1.255 1_545 S
O568 Dy557 2.379 . S
O568 C587 1.249 . S
C569 O559 1.266 . S
C569 O560 1.236 . S
O570 Dy556 2.275 . S
O570 C558 1.254 . S
O571 Dy557 2.339 . S
O571 C558 1.257 . S
C572 C575 1.344 . S
C572 C576 1.328 . S
C572 C578 1.516 . S
C573 C574 1.304 . S
C573 C577 1.323 . S
C574 C573 1.304 . S
C574 C575 1.371 . S
C574 H588 0.930 . S
C575 C572 1.344 . S
C575 C574 1.371 . S
C575 H589 0.931 . S
C576 C572 1.328 . S
C576 C577 1.433 . S
C576 H590 0.931 . S
C577 C573 1.323 . S
C577 C576 1.433 . S
C577 H591 0.933 . S
C578 Dy556 2.738 . S
C578 O561 1.255 . S
C578 O562 1.249 . S
C578 C572 1.516 . S
C579 O563 1.254 1_545 S
C579 O564 1.257 1_545 S
C580 O565 1.266 . S
C580 O566 1.236 . S
C581 C584 1.344 1_565 S
C581 C585 1.328 . S
C581 C587 1.516 . S
C582 C583 1.304 1_455 S
C582 C586 1.323 1_545 S
C583 C582 1.304 1_655 S
C583 C584 1.371 . S
C583 H592 0.930 1_655 S
C584 C581 1.344 1_545 S
C584 C583 1.371 . S
C584 H593 0.931 . S
C585 C581 1.328 . S
C585 C586 1.433 1_655 S
C585 H594 0.931 . S
C586 C582 1.323 1_565 S
C586 C585 1.433 1_455 S
C586 H595 0.933 . S
C587 Dy557 2.738 . S
C587 O567 1.255 1_565 S
C587 O568 1.249 . S
C587 C581 1.516 . S
H588 C574 0.930 . S
H589 C575 0.931 . S
H590 C576 0.931 . S
H591 C577 0.933 . S
H592 C583 0.930 1_455 S
H593 C584 0.931 . S
H594 C585 0.931 . S
H595 C586 0.933 . S
C293 N2 2.177 . S
C339 C7 2.822 1_655 S
C382 N12 2.138 . S
C16 C419 2.823 . S
C438 C30 3.220 . S
C493 N35 1.515 . S
C39 C518 3.518 1_455 S
C582 N25 1.276 1_545 S
C278 N58 3.048 . S
N81 C342 3.483 . S
C369 N104 2.639 . S
N127 C422 3.143 . S
C460 N48 2.152 1_565 S
C478 N71 1.311 . S
N94 C540 2.065 . S
C569 N117 1.408 . S
C85 C300 4.025 . S
C122 C453 3.203 1_556 S
C53 C500 4.933 . S
C533 C76 2.957 1_554 S
C579 C99 5.288 1_545 S
C379 C131 4.201 . S
C409 C62 3.573 1_565 S
C108 C329 3.506 1_455 S
C573 N140 2.579 1_556 S
C145 C459 2.784 . S
C502 N150 1.689 1_556 S
C154 C539 2.781 . S
C318 C168 3.196 . S
N173 C373 0.974 . S
C398 C177 3.457 . S
C302 N163 1.486 . S
C558 C200 3.489 . S
C462 N219 3.573 . S
N242 C489 3.000 . S
C542 C269 3.406 . S
C340 C191 2.931 . S
N209 C358 2.148 . S
N232 C420 2.635 . S
C260 C289 2.363 . S
C223 C580 4.066 . S
N255 C333 3.008 . S
N186 C380 4.807 . S
C413 C214 2.858 . S
C299 C237 4.892 . S
C499 N265 3.654 . S
C529 N196 2.834 . S
C449 C246 3.061 . S
