# Generated by pormake.
# Topology gar, (4,6)-cn, num edge types: 1
# Building blocks:
#     Node 0, Type 0, BuildingBlock: KUFVIS_clean_sbu_0, # of connection points: 4
#     Node 1, Type 0, BuildingBlock: KUFVIS_clean_sbu_0, # of connection points: 4
#     Node 2, Type 0, BuildingBlock: KUFVIS_clean_sbu_0, # of connection points: 4
#     Node 3, Type 0, BuildingBlock: KUFVIS_clean_sbu_0, # of connection points: 4
#     Node 4, Type 0, BuildingBlock: KUFVIS_clean_sbu_0, # of connection points: 4
#     Node 5, Type 0, BuildingBlock: KUFVIS_clean_sbu_0, # of connection points: 4
#     Node 6, Type 0, BuildingBlock: KUFVIS_clean_sbu_0, # of connection points: 4
#     Node 7, Type 0, BuildingBlock: KUFVIS_clean_sbu_0, # of connection points: 4
#     Node 8, Type 0, BuildingBlock: KUFVIS_clean_sbu_0, # of connection points: 4
#     Node 9, Type 0, BuildingBlock: KUFVIS_clean_sbu_0, # of connection points: 4
#     Node 10, Type 0, BuildingBlock: KUFVIS_clean_sbu_0, # of connection points: 4
#     Node 11, Type 0, BuildingBlock: KUFVIS_clean_sbu_0, # of connection points: 4
#     Node 12, Type 0, BuildingBlock: KUFVIS_clean_sbu_0, # of connection points: 4
#     Node 13, Type 0, BuildingBlock: KUFVIS_clean_sbu_0, # of connection points: 4
#     Node 14, Type 0, BuildingBlock: KUFVIS_clean_sbu_0, # of connection points: 4
#     Node 15, Type 0, BuildingBlock: KUFVIS_clean_sbu_0, # of connection points: 4
#     Node 16, Type 0, BuildingBlock: KUFVIS_clean_sbu_0, # of connection points: 4
#     Node 17, Type 0, BuildingBlock: KUFVIS_clean_sbu_0, # of connection points: 4
#     Node 18, Type 0, BuildingBlock: KUFVIS_clean_sbu_0, # of connection points: 4
#     Node 19, Type 0, BuildingBlock: KUFVIS_clean_sbu_0, # of connection points: 4
#     Node 20, Type 0, BuildingBlock: KUFVIS_clean_sbu_0, # of connection points: 4
#     Node 21, Type 0, BuildingBlock: KUFVIS_clean_sbu_0, # of connection points: 4
#     Node 22, Type 0, BuildingBlock: KUFVIS_clean_sbu_0, # of connection points: 4
#     Node 23, Type 0, BuildingBlock: KUFVIS_clean_sbu_0, # of connection points: 4
#     Node 24, Type 1, BuildingBlock: BETDIP_clean_sbu_0, # of connection points: 6
#     Node 25, Type 1, BuildingBlock: BETDIP_clean_sbu_0, # of connection points: 6
#     Node 26, Type 1, BuildingBlock: BETDIP_clean_sbu_0, # of connection points: 6
#     Node 27, Type 1, BuildingBlock: BETDIP_clean_sbu_0, # of connection points: 6
#     Node 28, Type 1, BuildingBlock: BETDIP_clean_sbu_0, # of connection points: 6
#     Node 29, Type 1, BuildingBlock: BETDIP_clean_sbu_0, # of connection points: 6
#     Node 30, Type 1, BuildingBlock: BETDIP_clean_sbu_0, # of connection points: 6
#     Node 31, Type 1, BuildingBlock: BETDIP_clean_sbu_0, # of connection points: 6
#     Node 32, Type 1, BuildingBlock: BETDIP_clean_sbu_0, # of connection points: 6
#     Node 33, Type 1, BuildingBlock: BETDIP_clean_sbu_0, # of connection points: 6
#     Node 34, Type 1, BuildingBlock: BETDIP_clean_sbu_0, # of connection points: 6
#     Node 35, Type 1, BuildingBlock: BETDIP_clean_sbu_0, # of connection points: 6
#     Node 36, Type 1, BuildingBlock: BETDIP_clean_sbu_0, # of connection points: 6
#     Node 37, Type 1, BuildingBlock: BETDIP_clean_sbu_0, # of connection points: 6
#     Node 38, Type 1, BuildingBlock: BETDIP_clean_sbu_0, # of connection points: 6
#     Node 39, Type 1, BuildingBlock: BETDIP_clean_sbu_0, # of connection points: 6
#     Edge 40, Type (0, 1), BuildingBlock: MIFKUJ_clean_linker_0, # of connection points: 2
#     Edge 41, Type (0, 1), BuildingBlock: MIFKUJ_clean_linker_0, # of connection points: 2
#     Edge 42, Type (0, 1), BuildingBlock: MIFKUJ_clean_linker_0, # of connection points: 2
#     Edge 43, Type (0, 1), BuildingBlock: MIFKUJ_clean_linker_0, # of connection points: 2
#     Edge 44, Type (0, 1), BuildingBlock: MIFKUJ_clean_linker_0, # of connection points: 2
#     Edge 45, Type (0, 1), BuildingBlock: MIFKUJ_clean_linker_0, # of connection points: 2
#     Edge 46, Type (0, 1), BuildingBlock: MIFKUJ_clean_linker_0, # of connection points: 2
#     Edge 47, Type (0, 1), BuildingBlock: MIFKUJ_clean_linker_0, # of connection points: 2
#     Edge 48, Type (0, 1), BuildingBlock: MIFKUJ_clean_linker_0, # of connection points: 2
#     Edge 49, Type (0, 1), BuildingBlock: MIFKUJ_clean_linker_0, # of connection points: 2
#     Edge 50, Type (0, 1), BuildingBlock: MIFKUJ_clean_linker_0, # of connection points: 2
#     Edge 51, Type (0, 1), BuildingBlock: MIFKUJ_clean_linker_0, # of connection points: 2
#     Edge 52, Type (0, 1), BuildingBlock: MIFKUJ_clean_linker_0, # of connection points: 2
#     Edge 53, Type (0, 1), BuildingBlock: MIFKUJ_clean_linker_0, # of connection points: 2
#     Edge 54, Type (0, 1), BuildingBlock: MIFKUJ_clean_linker_0, # of connection points: 2
#     Edge 55, Type (0, 1), BuildingBlock: MIFKUJ_clean_linker_0, # of connection points: 2
#     Edge 56, Type (0, 1), BuildingBlock: MIFKUJ_clean_linker_0, # of connection points: 2
#     Edge 57, Type (0, 1), BuildingBlock: MIFKUJ_clean_linker_0, # of connection points: 2
#     Edge 58, Type (0, 1), BuildingBlock: MIFKUJ_clean_linker_0, # of connection points: 2
#     Edge 59, Type (0, 1), BuildingBlock: MIFKUJ_clean_linker_0, # of connection points: 2
#     Edge 60, Type (0, 1), BuildingBlock: MIFKUJ_clean_linker_0, # of connection points: 2
#     Edge 61, Type (0, 1), BuildingBlock: MIFKUJ_clean_linker_0, # of connection points: 2
#     Edge 62, Type (0, 1), BuildingBlock: MIFKUJ_clean_linker_0, # of connection points: 2
#     Edge 63, Type (0, 1), BuildingBlock: MIFKUJ_clean_linker_0, # of connection points: 2
#     Edge 64, Type (0, 1), BuildingBlock: MIFKUJ_clean_linker_0, # of connection points: 2
#     Edge 65, Type (0, 1), BuildingBlock: MIFKUJ_clean_linker_0, # of connection points: 2
#     Edge 66, Type (0, 1), BuildingBlock: MIFKUJ_clean_linker_0, # of connection points: 2
#     Edge 67, Type (0, 1), BuildingBlock: MIFKUJ_clean_linker_0, # of connection points: 2
#     Edge 68, Type (0, 1), BuildingBlock: MIFKUJ_clean_linker_0, # of connection points: 2
#     Edge 69, Type (0, 1), BuildingBlock: MIFKUJ_clean_linker_0, # of connection points: 2
#     Edge 70, Type (0, 1), BuildingBlock: MIFKUJ_clean_linker_0, # of connection points: 2
#     Edge 71, Type (0, 1), BuildingBlock: MIFKUJ_clean_linker_0, # of connection points: 2
#     Edge 72, Type (0, 1), BuildingBlock: MIFKUJ_clean_linker_0, # of connection points: 2
#     Edge 73, Type (0, 1), BuildingBlock: MIFKUJ_clean_linker_0, # of connection points: 2
#     Edge 74, Type (0, 1), BuildingBlock: MIFKUJ_clean_linker_0, # of connection points: 2
#     Edge 75, Type (0, 1), BuildingBlock: MIFKUJ_clean_linker_0, # of connection points: 2
#     Edge 76, Type (0, 1), BuildingBlock: MIFKUJ_clean_linker_0, # of connection points: 2
#     Edge 77, Type (0, 1), BuildingBlock: MIFKUJ_clean_linker_0, # of connection points: 2
#     Edge 78, Type (0, 1), BuildingBlock: MIFKUJ_clean_linker_0, # of connection points: 2
#     Edge 79, Type (0, 1), BuildingBlock: MIFKUJ_clean_linker_0, # of connection points: 2
#     Edge 80, Type (0, 1), BuildingBlock: MIFKUJ_clean_linker_0, # of connection points: 2
#     Edge 81, Type (0, 1), BuildingBlock: MIFKUJ_clean_linker_0, # of connection points: 2
#     Edge 82, Type (0, 1), BuildingBlock: MIFKUJ_clean_linker_0, # of connection points: 2
#     Edge 83, Type (0, 1), BuildingBlock: MIFKUJ_clean_linker_0, # of connection points: 2
#     Edge 84, Type (0, 1), BuildingBlock: MIFKUJ_clean_linker_0, # of connection points: 2
#     Edge 85, Type (0, 1), BuildingBlock: MIFKUJ_clean_linker_0, # of connection points: 2
#     Edge 86, Type (0, 1), BuildingBlock: MIFKUJ_clean_linker_0, # of connection points: 2
#     Edge 87, Type (0, 1), BuildingBlock: MIFKUJ_clean_linker_0, # of connection points: 2
#     Edge 88, Type (0, 1), BuildingBlock: MIFKUJ_clean_linker_0, # of connection points: 2
#     Edge 89, Type (0, 1), BuildingBlock: MIFKUJ_clean_linker_0, # of connection points: 2
#     Edge 90, Type (0, 1), BuildingBlock: MIFKUJ_clean_linker_0, # of connection points: 2
#     Edge 91, Type (0, 1), BuildingBlock: MIFKUJ_clean_linker_0, # of connection points: 2
#     Edge 92, Type (0, 1), BuildingBlock: MIFKUJ_clean_linker_0, # of connection points: 2
#     Edge 93, Type (0, 1), BuildingBlock: MIFKUJ_clean_linker_0, # of connection points: 2
#     Edge 94, Type (0, 1), BuildingBlock: MIFKUJ_clean_linker_0, # of connection points: 2
#     Edge 95, Type (0, 1), BuildingBlock: MIFKUJ_clean_linker_0, # of connection points: 2
#     Edge 96, Type (0, 1), BuildingBlock: MIFKUJ_clean_linker_0, # of connection points: 2
#     Edge 97, Type (0, 1), BuildingBlock: MIFKUJ_clean_linker_0, # of connection points: 2
#     Edge 98, Type (0, 1), BuildingBlock: MIFKUJ_clean_linker_0, # of connection points: 2
#     Edge 99, Type (0, 1), BuildingBlock: MIFKUJ_clean_linker_0, # of connection points: 2
#     Edge 100, Type (0, 1), BuildingBlock: MIFKUJ_clean_linker_0, # of connection points: 2
#     Edge 101, Type (0, 1), BuildingBlock: MIFKUJ_clean_linker_0, # of connection points: 2
#     Edge 102, Type (0, 1), BuildingBlock: MIFKUJ_clean_linker_0, # of connection points: 2
#     Edge 103, Type (0, 1), BuildingBlock: MIFKUJ_clean_linker_0, # of connection points: 2
#     Edge 104, Type (0, 1), BuildingBlock: MIFKUJ_clean_linker_0, # of connection points: 2
#     Edge 105, Type (0, 1), BuildingBlock: MIFKUJ_clean_linker_0, # of connection points: 2
#     Edge 106, Type (0, 1), BuildingBlock: MIFKUJ_clean_linker_0, # of connection points: 2
#     Edge 107, Type (0, 1), BuildingBlock: MIFKUJ_clean_linker_0, # of connection points: 2
#     Edge 108, Type (0, 1), BuildingBlock: MIFKUJ_clean_linker_0, # of connection points: 2
#     Edge 109, Type (0, 1), BuildingBlock: MIFKUJ_clean_linker_0, # of connection points: 2
#     Edge 110, Type (0, 1), BuildingBlock: MIFKUJ_clean_linker_0, # of connection points: 2
#     Edge 111, Type (0, 1), BuildingBlock: MIFKUJ_clean_linker_0, # of connection points: 2
#     Edge 112, Type (0, 1), BuildingBlock: MIFKUJ_clean_linker_0, # of connection points: 2
#     Edge 113, Type (0, 1), BuildingBlock: MIFKUJ_clean_linker_0, # of connection points: 2
#     Edge 114, Type (0, 1), BuildingBlock: MIFKUJ_clean_linker_0, # of connection points: 2
#     Edge 115, Type (0, 1), BuildingBlock: MIFKUJ_clean_linker_0, # of connection points: 2
#     Edge 116, Type (0, 1), BuildingBlock: MIFKUJ_clean_linker_0, # of connection points: 2
#     Edge 117, Type (0, 1), BuildingBlock: MIFKUJ_clean_linker_0, # of connection points: 2
#     Edge 118, Type (0, 1), BuildingBlock: MIFKUJ_clean_linker_0, # of connection points: 2
#     Edge 119, Type (0, 1), BuildingBlock: MIFKUJ_clean_linker_0, # of connection points: 2
#     Edge 120, Type (0, 1), BuildingBlock: MIFKUJ_clean_linker_0, # of connection points: 2
#     Edge 121, Type (0, 1), BuildingBlock: MIFKUJ_clean_linker_0, # of connection points: 2
#     Edge 122, Type (0, 1), BuildingBlock: MIFKUJ_clean_linker_0, # of connection points: 2
#     Edge 123, Type (0, 1), BuildingBlock: MIFKUJ_clean_linker_0, # of connection points: 2
#     Edge 124, Type (0, 1), BuildingBlock: MIFKUJ_clean_linker_0, # of connection points: 2
#     Edge 125, Type (0, 1), BuildingBlock: MIFKUJ_clean_linker_0, # of connection points: 2
#     Edge 126, Type (0, 1), BuildingBlock: MIFKUJ_clean_linker_0, # of connection points: 2
#     Edge 127, Type (0, 1), BuildingBlock: MIFKUJ_clean_linker_0, # of connection points: 2
#     Edge 128, Type (0, 1), BuildingBlock: MIFKUJ_clean_linker_0, # of connection points: 2
#     Edge 129, Type (0, 1), BuildingBlock: MIFKUJ_clean_linker_0, # of connection points: 2
#     Edge 130, Type (0, 1), BuildingBlock: MIFKUJ_clean_linker_0, # of connection points: 2
#     Edge 131, Type (0, 1), BuildingBlock: MIFKUJ_clean_linker_0, # of connection points: 2
#     Edge 132, Type (0, 1), BuildingBlock: MIFKUJ_clean_linker_0, # of connection points: 2
#     Edge 133, Type (0, 1), BuildingBlock: MIFKUJ_clean_linker_0, # of connection points: 2
#     Edge 134, Type (0, 1), BuildingBlock: MIFKUJ_clean_linker_0, # of connection points: 2
#     Edge 135, Type (0, 1), BuildingBlock: MIFKUJ_clean_linker_0, # of connection points: 2
# Relax obj value: 0.145
# Max RMSD: 0.268
# Mean RMSD: 0.138
data_MOF--net-gar--node1-KUFVIS_clean_sbu_0--node2-BETDIP_clean_sbu_0--edge1-MIFKUJ_clean_linker_0
_symmetry_space_group_name_H-M    P1
_symmetry_Int_Tables_number       1
_symmetry_cell_setting            triclinic
loop_
_symmetry_equiv_pos_as_xyz
'x, y, z'
_cell_length_a     79.212258
_cell_length_b     73.001399
_cell_length_c     71.947882
_cell_angle_alpha  96.66941
_cell_angle_beta   97.778803
_cell_angle_gamma 100.49534
loop_
_atom_site_label
_atom_site_type_symbol
_atom_site_fract_x
_atom_site_fract_y
_atom_site_fract_z
_atom_type_partial_charge
Mn0 Mn 0.01984 0.29797 0.38402 0.0
Mn1 Mn 0.02162 0.32958 0.35333 0.0
C2 C 0.99455 0.30204 0.36661 0.0
C3 C 0.02238 0.26842 0.39163 0.0
C4 C 0.02516 0.34035 0.39577 0.0
O5 O 0.0453 0.30354 0.38111 0.0
O6 O 0.04454 0.32221 0.35835 0.0
C7 C 0.02636 0.30516 0.31937 0.0
N8 N 0.01706 0.31664 0.32798 0.0
C9 C 0.99714 0.31436 0.29907 0.0
C10 C 1.0065 0.30256 0.28986 0.0
C11 C 0.0211 0.29782 0.3001 0.0
C12 C 1.00275 0.3209 0.31838 0.0
H13 H 0.03772 0.30168 0.32713 0.0
C14 C 0.0525 0.3129 0.3694 0.0
O15 O 0.02507 0.28307 0.40452 0.0
O16 O 0.018 0.27086 0.37415 0.0
N17 N 1.00032 0.33791 0.34699 0.0
C18 C 0.99294 0.34985 0.35783 0.0
C19 C 0.97808 0.35579 0.34975 0.0
C20 C 0.97124 0.34981 0.33051 0.0
C21 C 0.97936 0.33799 0.31952 0.0
C22 C 0.99397 0.33228 0.32841 0.0
H23 H 0.9983 0.35476 0.37255 0.0
O24 O 0.99409 0.29416 0.38186 0.0
O25 O 0.00973 0.30662 0.36158 0.0
O26 O 0.02244 0.32363 0.39973 0.0
O27 O 0.02598 0.3442 0.37902 0.0
C28 C 0.97379 0.33201 0.29999 0.0
C29 C 0.98262 0.32014 0.28978 0.0
H30 H 1.00262 0.29707 0.27494 0.0
H31 H 0.02834 0.28867 0.29308 0.0
H32 H 0.972 0.36506 0.3583 0.0
H33 H 0.95986 0.35455 0.32427 0.0
H34 H 0.96285 0.33668 0.29267 0.0
H35 H 0.97831 0.31573 0.27473 0.0
Mn36 Mn 0.05154 0.75554 0.68445 0.0
Mn37 Mn 0.06079 0.78485 0.726 0.0
C38 C 0.07985 0.76965 0.6968 0.0
C39 C 0.04723 0.726 0.66651 0.0
C40 C 0.04774 0.79679 0.68883 0.0
O41 O 0.02919 0.74945 0.69524 0.0
O42 O 0.0367 0.76981 0.72244 0.0
C43 C 0.06003 0.75559 0.75133 0.0
N44 N 0.06862 0.77132 0.74558 0.0
C45 C 0.09378 0.77281 0.769 0.0
C46 C 0.08515 0.75671 0.77527 0.0
C47 C 0.06821 0.74805 0.76637 0.0
C48 C 0.08493 0.77974 0.75402 0.0
H49 H 0.04705 0.74883 0.74449 0.0
C50 C 0.02585 0.75696 0.71087 0.0
O51 O 0.04095 0.73962 0.65992 0.0
O52 O 0.05517 0.72926 0.68393 0.0
N53 N 0.08369 0.80012 0.7315 0.0
C54 C 0.09051 0.81499 0.72315 0.0
C55 C 0.10748 0.82503 0.73017 0.0
C56 C 0.11716 0.81975 0.74576 0.0
C57 C 0.10988 0.80443 0.75413 0.0
C58 C 0.09285 0.7951 0.74666 0.0
H59 H 0.0831 0.81911 0.71116 0.0
O60 O 0.07541 0.76344 0.67885 0.0
O61 O 0.06764 0.7671 0.70721 0.0
O62 O 0.04596 0.7807 0.67896 0.0
O63 O 0.05334 0.80012 0.70663 0.0
C64 C 0.11894 0.79792 0.76943 0.0
C65 C 0.11091 0.78208 0.77682 0.0
H66 H 0.09145 0.7508 0.7868 0.0
H67 H 0.0615 0.73556 0.77106 0.0
H68 H 0.11307 0.83682 0.72361 0.0
H69 H 0.13015 0.82757 0.75122 0.0
H70 H 0.13215 0.80485 0.77548 0.0
H71 H 0.11808 0.77705 0.78843 0.0
Mn72 Mn 0.523 0.79623 0.89315 0.0
Mn73 Mn 0.52192 0.82497 0.85969 0.0
C74 C 0.49722 0.80407 0.88142 0.0
C75 C 0.52225 0.76673 0.90236 0.0
C76 C 0.53563 0.83894 0.9012 0.0
O77 O 0.54559 0.79559 0.8832 0.0
O78 O 0.54331 0.8142 0.86049 0.0
C79 C 0.51764 0.79606 0.826 0.0
N80 N 0.51177 0.8101 0.83578 0.0
C81 C 0.48697 0.80688 0.81143 0.0
C82 C 0.49278 0.79245 0.80105 0.0
C83 C 0.50817 0.787 0.80839 0.0
C84 C 0.49694 0.81539 0.8289 0.0
H85 H 0.52944 0.79179 0.83158 0.0
C86 C 0.55128 0.80346 0.86974 0.0
O87 O 0.5299 0.78201 0.91367 0.0
O88 O 0.51509 0.76855 0.88551 0.0
N89 N 0.50179 0.83611 0.8571 0.0
C90 C 0.49775 0.84999 0.86905 0.0
C91 C 0.48266 0.85696 0.86384 0.0
C92 C 0.47196 0.84971 0.84637 0.0
C93 C 0.4765 0.83561 0.8342 0.0
C94 C 0.49174 0.82929 0.8401 0.0
H95 H 0.5059 0.85559 0.88251 0.0
O96 O 0.49913 0.79827 0.89783 0.0
O97 O 0.51038 0.80492 0.87234 0.0
O98 O 0.53274 0.82283 0.90658 0.0
O99 O 0.53211 0.84155 0.88395 0.0
C100 C 0.46642 0.82749 0.81652 0.0
C101 C 0.47159 0.81305 0.8052 0.0
H102 H 0.4855 0.78541 0.78748 0.0
H103 H 0.51273 0.77585 0.80049 0.0
H104 H 0.47926 0.86785 0.87331 0.0
H105 H 0.46027 0.85502 0.84247 0.0
H106 H 0.45457 0.8321 0.81159 0.0
H107 H 0.4636 0.80674 0.79175 0.0
Mn108 Mn 0.53967 0.24882 0.17573 0.0
Mn109 Mn 0.50416 0.24841 0.14435 0.0
C110 C 0.52716 0.22189 0.15445 0.0
C111 C 0.56978 0.25561 0.18392 0.0
C112 C 0.50405 0.24824 0.18652 0.0
O113 O 0.53911 0.27661 0.17551 0.0
O114 O 0.51793 0.27453 0.1505 0.0
C115 C 0.51941 0.2583 0.11061 0.0
N116 N 0.50892 0.24594 0.11896 0.0
C117 C 0.49914 0.22508 0.08951 0.0
C118 C 0.50974 0.23766 0.08054 0.0
C119 C 0.52004 0.25425 0.09118 0.0
C120 C 0.49926 0.22973 0.10895 0.0
H121 H 0.52712 0.27122 0.1187 0.0
C122 C 0.53033 0.28402 0.16325 0.0
O123 O 0.55974 0.25486 0.19677 0.0
O124 O 0.56231 0.25254 0.16633 0.0
N125 N 0.49011 0.22364 0.1374 0.0
C126 C 0.48067 0.21294 0.1482 0.0
C127 C 0.4701 0.19557 0.13982 0.0
C128 C 0.46916 0.1895 0.1204 0.0
C129 C 0.47883 0.20086 0.10954 0.0
C130 C 0.48928 0.21794 0.1187 0.0
H131 H 0.48114 0.21761 0.16308 0.0
O132 O 0.53726 0.22081 0.16991 0.0
O133 O 0.52485 0.23862 0.15215 0.0
O134 O 0.51949 0.24569 0.19075 0.0
O135 O 0.49762 0.25059 0.16993 0.0
C136 C 0.47834 0.19601 0.08993 0.0
C137 C 0.48829 0.20823 0.0799 0.0
H138 H 0.51006 0.23475 0.0655 0.0
H139 H 0.52828 0.264 0.08437 0.0
H140 H 0.46262 0.18694 0.1483 0.0
H141 H 0.46092 0.17614 0.11395 0.0
H142 H 0.4702 0.18301 0.08239 0.0
H143 H 0.48733 0.20458 0.06476 0.0
Mn144 Mn 0.06595 0.78557 0.1458 0.0
Mn145 Mn 0.03507 0.7718 0.10679 0.0
C146 C 0.05772 0.75372 0.13232 0.0
C147 C 0.09526 0.79414 0.16132 0.0
C148 C 0.02639 0.78132 0.14626 0.0
O149 O 0.06536 0.8108 0.13506 0.0
O150 O 0.04462 0.79941 0.10957 0.0
C151 C 0.05767 0.77891 0.07772 0.0
N152 N 0.04591 0.76692 0.08506 0.0
C153 C 0.04587 0.74153 0.06049 0.0
C154 C 0.05787 0.75366 0.0526 0.0
C155 C 0.06381 0.77242 0.06127 0.0
C156 C 0.04012 0.74883 0.07682 0.0
H157 H 0.06235 0.79331 0.08439 0.0
C158 C 0.05567 0.81306 0.11996 0.0
O159 O 0.08247 0.79794 0.16959 0.0
O160 O 0.0912 0.78685 0.14359 0.0
N161 N 0.0249 0.74547 0.10212 0.0
C162 C 0.01421 0.73527 0.11219 0.0
C163 C 1.00753 0.71607 0.10571 0.0
C164 C 0.01182 0.70758 0.08893 0.0
C165 C 0.02273 0.71839 0.07873 0.0
C166 C 0.02888 0.73751 0.08578 0.0
H167 H 0.01095 0.74167 0.12516 0.0
O168 O 0.06447 0.75854 0.15005 0.0
O169 O 0.05561 0.76762 0.12304 0.0
O170 O 0.04215 0.78588 0.15477 0.0
O171 O 0.02244 0.77591 0.1284 0.0
C172 C 0.02809 0.71084 0.06211 0.0
C173 C 0.03967 0.72239 0.05301 0.0
H174 H 0.06273 0.74868 0.03998 0.0
H175 H 0.07315 0.78184 0.05533 0.0
H176 H 0.99917 0.70781 0.11371 0.0
H177 H 1.0068 0.69272 0.0841 0.0
H178 H 0.02363 0.69608 0.05639 0.0
H179 H 0.04391 0.71636 0.0404 0.0
Mn180 Mn 0.50777 0.75246 0.42005 0.0
Mn181 Mn 0.50499 0.77642 0.38225 0.0
C182 C 0.48021 0.75493 0.40433 0.0
C183 C 0.51059 0.72474 0.43401 0.0
C184 C 0.51299 0.79602 0.42297 0.0
O185 O 0.5325 0.75493 0.41279 0.0
O186 O 0.5283 0.77032 0.38788 0.0
C187 C 0.50768 0.745 0.35354 0.0
N188 N 0.49926 0.75873 0.3595 0.0
C189 C 0.4786 0.75167 0.33062 0.0
C190 C 0.4871 0.73752 0.3241 0.0
C191 C 0.50165 0.73411 0.33566 0.0
C192 C 0.48512 0.76194 0.34862 0.0
H193 H 0.51891 0.7424 0.36235 0.0
C194 C 0.53792 0.76267 0.39903 0.0
O195 O 0.51521 0.74152 0.44358 0.0
O196 O 0.50443 0.72395 0.41618 0.0
N197 N 0.48356 0.78382 0.37427 0.0
C198 C 0.47681 0.79788 0.38273 0.0
C199 C 0.46248 0.80339 0.37288 0.0
C200 C 0.45524 0.79442 0.35443 0.0
C201 C 0.46251 0.78013 0.34593 0.0
C202 C 0.47704 0.77553 0.35628 0.0
H203 H 0.4825 0.80508 0.39677 0.0
O204 O 0.48229 0.75067 0.42139 0.0
O205 O 0.49422 0.75691 0.39642 0.0
O206 O 0.51256 0.78104 0.43077 0.0
O207 O 0.51057 0.79575 0.405 0.0
C208 C 0.4559 0.77025 0.32762 0.0
C209 C 0.46386 0.75591 0.32002 0.0
H210 H 0.48253 0.72913 0.31029 0.0
H211 H 0.50824 0.72317 0.33076 0.0
H212 H 0.4573 0.81478 0.37941 0.0
H213 H 0.44423 0.79872 0.34679 0.0
H214 H 0.44461 0.77343 0.31933 0.0
H215 H 0.45854 0.74825 0.30602 0.0
Mn216 Mn 0.56617 0.28643 0.64595 0.0
Mn217 Mn 0.53382 0.27705 0.60815 0.0
C218 C 0.55581 0.25529 0.63076 0.0
C219 C 0.59586 0.29315 0.66063 0.0
C220 C 0.52697 0.28379 0.64859 0.0
O221 O 0.56674 0.3128 0.63736 0.0
O222 O 0.54425 0.30447 0.61324 0.0
C223 C 0.5556 0.28622 0.57881 0.0
N224 N 0.54359 0.27386 0.58541 0.0
C225 C 0.5403 0.25118 0.55743 0.0
C226 C 0.5526 0.26369 0.55029 0.0
C227 C 0.56032 0.28126 0.56106 0.0
C228 C 0.53618 0.25688 0.57523 0.0
H229 H 0.56151 0.29977 0.587 0.0
C230 C 0.55632 0.31684 0.62384 0.0
O231 O 0.58351 0.29691 0.66966 0.0
O232 O 0.59117 0.28672 0.64272 0.0
N233 N 0.52226 0.25134 0.60111 0.0
C234 C 0.51105 0.24073 0.61031 0.0
C235 C 0.50198 0.22288 0.60135 0.0
C236 C 0.50451 0.21616 0.58304 0.0
C237 C 0.51629 0.22723 0.57396 0.0
C238 C 0.5247 0.24505 0.58345 0.0
H239 H 0.50883 0.24596 0.62425 0.0
O240 O 0.56341 0.25898 0.64828 0.0
O241 O 0.55427 0.27003 0.62244 0.0
O242 O 0.54296 0.28719 0.65636 0.0
O243 O 0.52222 0.27974 0.63068 0.0
C244 C 0.51998 0.22131 0.55587 0.0
C245 C 0.53208 0.23323 0.54766 0.0
H246 H 0.55626 0.25993 0.5366 0.0
H247 H 0.56985 0.29098 0.55566 0.0
H248 H 0.49286 0.21448 0.60845 0.0
H249 H 0.49719 0.20259 0.57598 0.0
H250 H 0.51372 0.20756 0.54822 0.0
H251 H 0.53497 0.22845 0.53384 0.0
Mn252 Mn 0.00873 0.25167 0.92009 0.0
Mn253 Mn 1.00509 0.27675 0.88326 0.0
C254 C 0.98105 0.25383 0.90486 0.0
C255 C 0.01234 0.22356 0.93286 0.0
C256 C 0.01312 0.29528 0.9243 0.0
O257 O 0.03319 0.25484 0.91237 0.0
O258 O 0.02894 0.27156 0.88843 0.0
C259 C 0.00879 0.24684 0.85346 0.0
N260 N 0.99961 0.25952 0.86017 0.0
C261 C 0.97838 0.25192 0.83175 0.0
C262 C 0.98762 0.23881 0.8245 0.0
C263 C 1.00285 0.2362 0.83545 0.0
C264 C 0.98481 0.26194 0.84989 0.0
H265 H 0.02058 0.2449 0.86176 0.0
C266 C 0.03858 0.26347 0.89913 0.0
O267 O 0.01696 0.24011 0.94293 0.0
O268 O 1.00563 0.22325 0.91529 0.0
N269 N 0.98306 0.28327 0.87591 0.0
C270 C 0.97583 0.29669 0.88483 0.0
C271 C 0.96056 0.3011 0.87572 0.0
C272 C 0.95313 0.29204 0.85737 0.0
C273 C 0.96106 0.27864 0.84826 0.0
C274 C 0.97621 0.27475 0.85808 0.0
H275 H 0.98166 0.30396 0.89879 0.0
O276 O 0.98326 0.24924 0.92179 0.0
O277 O 0.995 0.25647 0.89693 0.0
O278 O 0.01324 0.28007 0.93161 0.0
O279 O 0.01033 0.2955 0.90641 0.0
C280 C 0.95455 0.26902 0.82981 0.0
C281 C 0.9631 0.25553 0.82164 0.0
H282 H 0.98315 0.23068 0.81056 0.0
H283 H 0.01006 0.22611 0.82997 0.0
H284 H 0.95458 0.31155 0.88279 0.0
H285 H 0.94138 0.29552 0.85038 0.0
H286 H 0.94295 0.27184 0.82178 0.0
H287 H 0.95788 0.24811 0.80753 0.0
Mn288 Mn 0.41207 0.04177 0.26918 0.0
Mn289 Mn 0.37945 0.03596 0.29611 0.0
C290 C 0.39697 0.01023 0.2729 0.0
C291 C 0.42468 0.04365 0.2387 0.0
C292 C 0.4181 0.04503 0.31446 0.0
O293 O 0.40381 0.06901 0.27107 0.0
O294 O 0.38278 0.06209 0.28868 0.0
C295 C 0.3506 0.0379 0.26594 0.0
N296 N 0.35759 0.02865 0.27951 0.0
C297 C 0.33243 1.00341 0.27284 0.0
C298 C 0.32489 0.0128 0.25899 0.0
C299 C 0.33405 0.03008 0.25548 0.0
C300 C 0.34898 0.01187 0.28279 0.0
H301 H 0.35759 0.05111 0.26305 0.0
C302 C 0.39116 0.07373 0.2794 0.0
O303 O 0.43341 0.04979 0.25553 0.0
O304 O 0.40828 0.03769 0.23927 0.0
N305 N 0.37371 0.01186 0.30435 0.0
C306 C 0.38275 1.00451 0.31817 0.0
C307 C 0.37534 0.98726 0.3234 0.0
C308 C 0.35863 0.97781 0.31454 0.0
C309 C 0.34941 0.98581 0.30067 0.0
C310 C 0.3574 1.00313 0.29616 0.0
H311 H 0.39559 0.01163 0.3251 0.0
O312 O 0.41235 0.01343 0.26819 0.0
O313 O 0.39067 0.02555 0.2753 0.0
O314 O 0.42404 0.04612 0.29859 0.0
O315 O 0.40168 0.04248 0.31482 0.0
C316 C 0.33264 0.97719 0.29104 0.0
C317 C 0.32421 0.98593 0.27705 0.0
H318 H 0.31213 1.00681 0.25088 0.0
H319 H 0.32837 0.03735 0.24472 0.0
H320 H 0.38252 0.98122 0.33417 0.0
H321 H 0.35303 0.96441 0.31846 0.0
H322 H 0.32617 0.96377 0.29419 0.0
H323 H 0.31139 0.97906 0.2696 0.0
Mn324 Mn 0.2598 0.15586 0.5122 0.0
Mn325 Mn 0.25315 0.11997 0.47624 0.0
C326 C 0.23131 0.1381 0.50063 0.0
C327 C 0.26531 0.16871 0.54495 0.0
C328 C 0.2607 0.16099 0.46994 0.0
O329 O 0.28431 0.14934 0.51305 0.0
O330 O 0.27784 0.12544 0.48883 0.0
C331 C 0.25929 0.08901 0.49783 0.0
N332 N 0.24883 0.09625 0.48522 0.0
C333 C 0.22885 0.06652 0.47658 0.0
C334 C 0.23936 0.05869 0.48947 0.0
C335 C 0.25455 0.07006 0.50031 0.0
C336 C 0.23393 0.08562 0.4752 0.0
H337 H 0.27123 0.09757 0.50574 0.0
C338 C 0.28861 0.1362 0.50233 0.0
O339 O 0.26885 0.17888 0.53182 0.0
O340 O 0.25903 0.15095 0.53918 0.0
N341 N 0.22991 0.11287 0.46287 0.0
C342 C 0.22074 0.12289 0.45192 0.0
C343 C 0.2048 0.11382 0.4408 0.0
C344 C 0.19877 0.09446 0.44063 0.0
C345 C 0.20851 0.08449 0.452 0.0
C346 C 0.22393 0.09442 0.46331 0.0
H347 H 0.22564 0.13763 0.45155 0.0
O348 O 0.2339 0.15537 0.50895 0.0
O349 O 0.2455 0.13194 0.49872 0.0
O350 O 0.26216 0.16799 0.4874 0.0
O351 O 0.25726 0.14327 0.46457 0.0
C352 C 0.20381 0.06499 0.45218 0.0
C353 C 0.21381 0.05603 0.46465 0.0
H354 H 0.23594 0.04398 0.4911 0.0
H355 H 0.26275 0.06413 0.51026 0.0
H356 H 0.19737 0.12163 0.43207 0.0
H357 H 0.18666 0.08739 0.43171 0.0
H358 H 0.19271 0.05676 0.44248 0.0
H359 H 0.20999 0.04104 0.46474 0.0
Mn360 Mn 0.14039 0.0419 0.79351 0.0
Mn361 Mn 0.17547 0.04901 0.82778 0.0
C362 C 0.15892 0.07174 0.80198 0.0
C363 C 0.12727 0.03458 0.76121 0.0
C364 C 0.13841 0.04346 0.8363 0.0
O365 O 0.14471 0.01505 0.79483 0.0
O366 O 0.16915 0.02196 0.81673 0.0
C367 C 0.20255 0.0403 0.80555 0.0
N368 N 0.1965 0.05273 0.81727 0.0
C369 C 0.22346 0.07524 0.82147 0.0
C370 C 0.23004 0.06263 0.80954 0.0
C371 C 0.21946 0.04518 0.80136 0.0
C372 C 0.20639 0.06977 0.82477 0.0
H373 H 0.19462 0.02667 0.79967 0.0
C374 C 0.15746 0.01026 0.80482 0.0
O375 O 0.11822 0.03281 0.77487 0.0
O376 O 0.14396 0.04001 0.76628 0.0
N377 N 0.18278 0.07473 0.83927 0.0
C378 C 0.17445 0.08528 0.85044 0.0
C379 C 0.18296 0.10349 0.859 0.0
C380 C 0.20002 0.11053 0.85626 0.0
C381 C 0.20836 0.09933 0.84485 0.0
C382 C 0.1991 0.08145 0.83637 0.0
H383 H 0.16142 0.07986 0.85277 0.0
O384 O 0.14283 0.07012 0.79425 0.0
O385 O 0.16332 0.056 0.80506 0.0
O386 O 0.13081 0.04224 0.81918 0.0
O387 O 0.15487 0.04574 0.84062 0.0
C388 C 0.22563 0.10503 0.84193 0.0
C389 C 0.23326 0.09284 0.83056 0.0
H390 H 0.2432 0.06614 0.80662 0.0
H391 H 0.22444 0.03539 0.79214 0.0
H392 H 0.17643 0.11201 0.86782 0.0
H393 H 0.20662 0.12449 0.86306 0.0
H394 H 0.23326 0.11863 0.8486 0.0
H395 H 0.24676 0.0971 0.82911 0.0
Mn396 Mn 0.24073 0.87401 0.98984 0.0
Mn397 Mn 0.2286 0.90695 0.96477 0.0
C398 C 0.26141 0.89565 0.97991 0.0
C399 C 0.24875 0.86302 0.01802 0.0
C400 C 0.22589 0.86657 0.94751 0.0
O401 O 0.21622 0.87383 0.99518 0.0
O402 O 0.20944 0.89611 0.97799 0.0
C403 C 0.22611 0.93493 0.99708 0.0
N404 N 0.23298 0.93043 0.9812 0.0
C405 C 0.25006 0.96178 0.98427 0.0
C406 C 0.24306 0.96679 1.00057 0.0
C407 C 0.23107 0.95329 0.00703 0.0
C408 C 0.24459 0.94328 0.97492 0.0
H409 H 0.21694 0.92461 1.00216 0.0
C410 C 0.2058 0.88405 0.98922 0.0
O411 O 0.24205 0.85157 1.00254 0.0
O412 O 0.25035 0.88094 0.01727 0.0
N413 N 0.24607 0.91885 0.95173 0.0
C414 C 0.25239 0.91144 0.93648 0.0
C415 C 0.26467 0.92303 0.9284 0.0
C416 C 0.2703 0.94209 0.93609 0.0
C417 C 0.2638 0.94936 0.95193 0.0
C418 C 0.25142 0.93719 0.95923 0.0
H419 H 0.24818 0.89678 0.93057 0.0
O420 O 0.26475 0.8796 0.98369 0.0
O421 O 0.24603 0.89855 0.98204 0.0
O422 O 0.23152 0.86106 0.96287 0.0
O423 O 0.22415 0.88349 0.9465 0.0
C424 C 0.26923 0.96815 0.96088 0.0
C425 C 0.26242 0.97433 0.97709 0.0
H426 H 0.2469 0.98092 0.00833 0.0
H427 H 0.22568 0.95701 0.01966 0.0
H428 H 0.26976 0.91731 0.91627 0.0
H429 H 0.27958 0.95097 0.92965 0.0
H430 H 0.27875 0.97792 0.95553 0.0
H431 H 0.26687 0.98874 0.98399 0.0
Mn432 Mn 0.31089 0.38723 0.05319 0.0
Mn433 Mn 0.31661 0.42402 0.0281 0.0
C434 C 0.33938 0.40195 0.04973 0.0
C435 C 0.307 0.37402 0.08173 0.0
C436 C 0.30621 0.38326 0.00919 0.0
O437 O 0.28683 0.39535 0.05131 0.0
O438 O 0.2932 0.41972 0.03548 0.0
C439 C 0.31565 0.45378 0.05943 0.0
N440 N 0.3237 0.44699 0.04532 0.0
C441 C 0.34597 0.47511 0.05091 0.0
C442 C 0.33788 0.48247 0.06543 0.0
C443 C 0.3227 0.47171 0.06976 0.0
C444 C 0.33841 0.45711 0.04121 0.0
H445 H 0.30393 0.4456 0.06274 0.0
C446 C 0.28269 0.40933 0.04375 0.0
O447 O 0.30182 0.36436 0.06499 0.0
O448 O 0.31415 0.39157 0.08201 0.0
N449 N 0.33844 0.43074 0.01964 0.0
C450 C 0.34483 0.42143 1.00552 0.0
C451 C 0.35979 0.43036 0.99922 0.0
C452 C 0.36802 0.44878 0.00747 0.0
C453 C 0.36119 0.45811 0.02192 0.0
C454 C 0.34603 0.44865 0.02733 0.0
H455 H 0.33838 0.40741 0.99888 0.0
O456 O 0.33606 0.38513 0.05428 0.0
O457 O 0.32602 0.41016 0.04789 0.0
O458 O 0.30603 0.37593 0.02454 0.0
O459 O 0.30961 0.40104 0.00902 0.0
C460 C 0.36885 0.47641 0.03119 0.0
C461 C 0.36132 0.48485 0.04579 0.0
H462 H 0.34325 0.49631 0.07339 0.0
H463 H 0.31641 0.47726 0.08099 0.0
H464 H 0.36474 0.42318 0.9878 0.0
H465 H 0.37947 0.45575 1.00252 0.0
H466 H 0.38063 0.48403 0.02736 0.0
H467 H 0.36744 0.49882 0.053 0.0
Mn468 Mn 0.83503 0.16015 0.07517 0.0
Mn469 Mn 0.81182 0.11943 0.04959 0.0
C470 C 0.80801 0.14766 0.08167 0.0
C471 C 0.85502 0.17662 0.10096 0.0
C472 C 0.8138 0.15715 0.03561 0.0
O473 O 0.85324 0.15016 0.06203 0.0
O474 O 0.83657 0.12311 0.04615 0.0
C475 C 0.82878 0.09392 0.07145 0.0
N476 N 0.81407 0.09946 0.06412 0.0
C477 C 0.79595 0.07405 0.07499 0.0
C478 C 0.8109 0.06796 0.08251 0.0
C479 C 0.82739 0.07803 0.08085 0.0
C480 C 0.79817 0.09017 0.06607 0.0
H481 H 0.84147 0.10157 0.07011 0.0
C482 C 0.85111 0.13478 0.05087 0.0
O483 O 0.85163 0.1841 0.08571 0.0
O484 O 0.84773 0.15915 0.10063 0.0
N485 N 0.78756 0.11336 0.05117 0.0
C486 C 0.77444 0.12112 0.0432 0.0
C487 C 0.7571 0.11279 0.04371 0.0
C488 C 0.7534 0.09626 0.05191 0.0
C489 C 0.76709 0.0883 0.05967 0.0
C490 C 0.78411 0.09735 0.05893 0.0
H491 H 0.77719 0.13359 0.03651 0.0
O492 O 0.81486 0.16531 0.08703 0.0
O493 O 0.81732 0.13751 0.07305 0.0
O494 O 0.82404 0.1668 0.05008 0.0
O495 O 0.80844 0.13934 0.03392 0.0
C496 C 0.76452 0.07167 0.06801 0.0
C497 C 0.77894 0.0647 0.0759 0.0
H498 H 0.80987 0.0556 0.08962 0.0
H499 H 0.83899 0.07347 0.08669 0.0
H500 H 0.74661 0.11897 0.03762 0.0
H501 H 0.74 0.08979 0.05213 0.0
H502 H 0.7515 0.0642 0.06857 0.0
H503 H 0.77679 0.05207 0.08253 0.0
Mn504 Mn 0.15915 0.50992 0.2905 0.0
Mn505 Mn 0.19361 0.52073 0.32617 0.0
C506 C 0.17493 0.54238 0.29959 0.0
C507 C 0.14486 0.50424 0.25661 0.0
C508 C 0.1558 0.5118 0.33467 0.0
O509 O 0.16812 0.48329 0.29129 0.0
O510 O 0.19089 0.49323 0.31494 0.0
C511 C 0.22208 0.51638 0.30419 0.0
N512 N 0.21486 0.5272 0.31635 0.0
C513 C 0.23866 0.55351 0.31849 0.0
C514 C 0.24643 0.54255 0.30619 0.0
C515 C 0.23808 0.52392 0.29898 0.0
C516 C 0.22279 0.54517 0.32337 0.0
H517 H 0.21567 0.50213 0.2984 0.0
C518 C 0.18181 0.48012 0.30191 0.0
O519 O 0.13687 0.49973 0.27051 0.0
O520 O 0.16145 0.51031 0.26202 0.0
N521 N 0.19831 0.54656 0.33768 0.0
C522 C 0.18832 0.55586 0.34785 0.0
C523 C 0.19438 0.57497 0.35518 0.0
C524 C 0.21063 0.58434 0.35201 0.0
C525 C 0.22067 0.57451 0.3415 0.0
C526 C 0.21402 0.55543 0.33464 0.0
H527 H 0.17575 0.54885 0.35022 0.0
O528 O 0.15869 0.53814 0.29194 0.0
O529 O 0.18124 0.52745 0.30276 0.0
O530 O 0.14878 0.50906 0.31694 0.0
O531 O 0.17243 0.51512 0.33912 0.0
C532 C 0.23679 0.58305 0.3371 0.0
C533 C 0.24578 0.57256 0.32562 0.0
H534 H 0.25868 0.54837 0.30197 0.0
H535 H 0.24391 0.51542 0.28933 0.0
H536 H 0.1865 0.58249 0.36318 0.0
H537 H 0.21516 0.59914 0.35752 0.0
H538 H 0.24222 0.59779 0.34218 0.0
H539 H 0.25801 0.57938 0.32205 0.0
Mn540 Mn 0.80928 0.88845 0.55519 0.0
Mn541 Mn 0.81171 0.92551 0.53048 0.0
C542 C 0.83666 0.90675 0.55259 0.0
C543 C 0.80634 0.87415 0.58331 0.0
C544 C 0.80577 0.88516 0.51116 0.0
O545 O 0.78413 0.89359 0.55303 0.0
O546 O 0.78785 0.91749 0.53598 0.0
C547 C 0.80548 0.95307 0.56108 0.0
N548 N 0.81545 0.94808 0.54808 0.0
C549 C 0.83388 0.97882 0.55426 0.0
C550 C 0.82384 0.98434 0.56771 0.0
C551 C 0.80971 0.97131 0.57131 0.0
C552 C 0.82949 0.96023 0.54509 0.0
H553 H 0.79433 0.94326 0.56353 0.0
C554 C 0.77833 0.90612 0.54434 0.0
O555 O 0.80226 0.86464 0.56642 0.0
O556 O 0.81196 0.89213 0.584 0.0
N557 N 0.83367 0.93558 0.52371 0.0
C558 C 0.8416 0.92832 0.5097 0.0
C559 C 0.85611 0.9395 0.50452 0.0
C560 C 0.86182 0.95829 0.51314 0.0
C561 C 0.853 0.96569 0.52693 0.0
C562 C 0.83903 0.95369 0.53202 0.0
H563 H 0.8369 0.91409 0.50255 0.0
O564 O 0.83521 0.88975 0.55672 0.0
O565 O 0.82217 0.91288 0.55057 0.0
O566 O 0.80533 0.87759 0.52637 0.0
O567 O 0.80819 0.90296 0.51127 0.0
C568 C 0.85706 0.9847 0.53525 0.0
C569 C 0.84771 0.9912 0.54914 0.0
H570 H 0.8268 0.99856 0.57527 0.0
H571 H 0.8019 0.97544 0.58169 0.0
H572 H 0.86267 0.93376 0.49365 0.0
H573 H 0.8728 0.967 0.50883 0.0
H574 H 0.86716 0.99453 0.53081 0.0
H575 H 0.85102 1.00584 0.55551 0.0
Mn576 Mn 0.93334 0.9981 0.25047 0.0
Mn577 Mn 0.8991 0.99736 0.27435 0.0
C578 C 0.91645 0.96927 0.25455 0.0
C579 C 0.94563 1.00035 0.22221 0.0
C580 C 0.93668 1.00611 0.29421 0.0
O581 O 0.92849 0.02485 0.25058 0.0
O582 O 0.9049 0.02202 0.26522 0.0
C583 C 0.87202 0.99884 0.24219 0.0
N584 N 0.87779 0.99025 0.25693 0.0
C585 C 0.85071 0.96789 0.25244 0.0
C586 C 0.84443 0.97651 0.23723 0.0
C587 C 0.85518 0.99197 0.232 0.0
C588 C 0.86771 0.97512 0.2618 0.0
H589 H 0.88017 0.01088 0.23831 0.0
C590 C 0.91608 0.03136 0.25682 0.0
O591 O 0.95492 1.00537 0.23893 0.0
O592 O 0.92918 0.9938 0.2218 0.0
N593 N 0.89166 0.97451 0.28419 0.0
C594 C 0.89984 0.96751 0.29887 0.0
C595 C 0.89099 0.95177 0.3056 0.0
C596 C 0.87368 0.94374 0.29754 0.0
C597 C 0.86541 0.95146 0.28274 0.0
C598 C 0.87498 0.96692 0.27639 0.0
H599 H 0.91301 0.97387 0.3054 0.0
O600 O 0.93214 0.97023 0.25074 0.0
O601 O 0.91102 0.98507 0.25561 0.0
O602 O 0.94363 1.00386 0.27923 0.0
O603 O 0.92028 1.00444 0.29367 0.0
C604 C 0.848 0.9445 0.27411 0.0
C605 C 0.84074 0.9525 0.25876 0.0
H606 H 0.83139 0.97139 0.22948 0.0
H607 H 0.85044 0.99869 0.22028 0.0
H608 H 0.89744 0.94597 0.3171 0.0
H609 H 0.86685 0.93168 0.30284 0.0
H610 H 0.84017 0.93277 0.27895 0.0
H611 H 0.82747 0.94672 0.25196 0.0
Mn612 Mn 0.32561 0.66291 0.54664 0.0
Mn613 Mn 0.32134 0.62522 0.51318 0.0
C614 C 0.30321 0.6376 0.54513 0.0
C615 C 0.33797 0.68088 0.57566 0.0
C616 C 0.30635 0.65898 0.50571 0.0
O617 O 0.34876 0.66757 0.53747 0.0
O618 O 0.34319 0.64374 0.51357 0.0
C619 C 0.35092 0.61132 0.53272 0.0
N620 N 0.3338 0.60836 0.52496 0.0
C621 C 0.32888 0.5766 0.53208 0.0
C622 C 0.34646 0.57931 0.5401 0.0
C623 C 0.35752 0.59677 0.54045 0.0
C624 C 0.32302 0.59169 0.52477 0.0
H625 H 0.35953 0.62467 0.53302 0.0
C626 C 0.35289 0.65869 0.52313 0.0
O627 O 0.33168 0.6884 0.56148 0.0
O628 O 0.33722 0.66281 0.57299 0.0
N629 N 0.30134 0.60548 0.51042 0.0
C630 C 0.28518 0.60463 0.50066 0.0
C631 C 0.27273 0.58789 0.49831 0.0
C632 C 0.2771 0.57203 0.50558 0.0
C633 C 0.294 0.573 0.51494 0.0
C634 C 0.30592 0.59006 0.51676 0.0
H635 H 0.28179 0.61667 0.49479 0.0
O636 O 0.30271 0.65398 0.55396 0.0
O637 O 0.31747 0.63599 0.53835 0.0
O638 O 0.31341 0.66878 0.52168 0.0
O639 O 0.30789 0.642 0.50088 0.0
C640 C 0.29957 0.55763 0.52225 0.0
C641 C 0.31698 0.55946 0.53092 0.0
H642 H 0.35161 0.56808 0.54597 0.0
H643 H 0.37111 0.59898 0.5466 0.0
H644 H 0.2599 0.58728 0.49073 0.0
H645 H 0.26752 0.55906 0.50363 0.0
H646 H 0.29059 0.5443 0.52117 0.0
H647 H 0.32113 0.54754 0.53645 0.0
Mn648 Mn 0.43472 0.49817 0.75487 0.0
Mn649 Mn 0.40153 0.49847 0.78016 0.0
C650 C 0.41555 0.47 0.75672 0.0
C651 C 0.44668 0.50136 0.72652 0.0
C652 C 0.4391 0.5026 0.79873 0.0
O653 O 0.43232 0.52592 0.7578 0.0
O654 O 0.4093 0.5238 0.77336 0.0
C655 C 0.37475 0.50547 0.75044 0.0
N656 N 0.37996 0.49462 0.7634 0.0
C657 C 0.3516 0.47458 0.7582 0.0
C658 C 0.34587 0.48556 0.74483 0.0
C659 C 0.35755 0.50097 0.74081 0.0
C660 C 0.36897 0.47948 0.76701 0.0
H661 H 0.38359 0.51757 0.74762 0.0
C662 C 0.42087 0.53309 0.76539 0.0
O663 O 0.4563 0.50433 0.74309 0.0
O664 O 0.43005 0.49642 0.72633 0.0
N665 N 0.39249 0.47492 0.78785 0.0
C666 C 0.40001 0.46589 0.80128 0.0
C667 C 0.3902 0.44984 0.80656 0.0
C668 C 0.37266 0.44356 0.79836 0.0
C669 C 0.36509 0.45339 0.78496 0.0
C670 C 0.37558 0.46909 0.78002 0.0
H671 H 0.41339 0.47087 0.80791 0.0
O672 O 0.43093 0.46977 0.75242 0.0
O673 O 0.41182 0.48657 0.75971 0.0
O674 O 0.44558 0.50092 0.78338 0.0
O675 O 0.42295 0.50222 0.7988 0.0
C676 C 0.34745 0.44848 0.77662 0.0
C677 C 0.34069 0.45916 0.76336 0.0
H678 H 0.33255 0.48228 0.73757 0.0
H679 H 0.35323 0.50953 0.73053 0.0
H680 H 0.3961 0.44244 0.81705 0.0
H681 H 0.36508 0.43127 0.80258 0.0
H682 H 0.33894 0.43663 0.78046 0.0
H683 H 0.32704 0.45551 0.75734 0.0
Mn684 Mn 0.65722 1.00817 0.79022 0.0
Mn685 Mn 0.69152 0.01863 0.82608 0.0
C686 C 0.67316 0.04061 0.79974 0.0
C687 C 0.64289 1.00273 0.75637 0.0
C688 C 0.65356 0.00989 0.83429 0.0
O689 O 0.66607 0.98143 0.79082 0.0
O690 O 0.68854 0.99109 0.81484 0.0
C691 C 0.71987 0.01385 0.80403 0.0
N692 N 0.71272 0.02487 0.81609 0.0
C693 C 0.7363 0.05122 0.81738 0.0
C694 C 0.74397 0.04007 0.80514 0.0
C695 C 0.73571 0.02131 0.79843 0.0
C696 C 0.72059 0.04295 0.82265 0.0
H697 H 0.71354 0.99948 0.79862 0.0
C698 C 0.67957 0.97808 0.80164 0.0
O699 O 0.63493 0.99816 0.77026 0.0
O700 O 0.6595 1.00875 0.76173 0.0
N701 N 0.6965 0.04446 0.83764 0.0
C702 C 0.68691 0.05375 0.84838 0.0
C703 C 0.69315 0.07283 0.85571 0.0
C704 C 0.70916 0.0822 0.85192 0.0
C705 C 0.71882 0.07238 0.84088 0.0
C706 C 0.71204 0.0533 0.83411 0.0
H707 H 0.67452 0.04673 0.85125 0.0
O708 O 0.65696 0.03653 0.79193 0.0
O709 O 0.67932 0.02556 0.80272 0.0
O710 O 0.64671 1.00708 0.81651 0.0
O711 O 0.6702 0.01328 0.83893 0.0
C712 C 0.73472 0.08089 0.83596 0.0
C713 C 0.74345 0.07033 0.82422 0.0
H714 H 0.75611 0.04583 0.80065 0.0
H715 H 0.74148 0.01265 0.78887 0.0
H716 H 0.68557 0.08034 0.86415 0.0
H717 H 0.71382 0.09699 0.85741 0.0
H718 H 0.74022 0.09564 0.84089 0.0
H719 H 0.75555 0.0771 0.82032 0.0
Mn720 Mn 0.76424 0.66104 0.01564 0.0
Mn721 Mn 0.75355 0.62371 0.98084 0.0
C722 C 0.73515 0.64483 1.00686 0.0
C723 C 0.77189 0.67451 0.04807 0.0
C724 C 0.76245 0.66421 0.97274 0.0
O725 O 0.78785 0.65279 0.01442 0.0
O726 O 0.77877 0.62766 0.99153 0.0
C727 C 0.759 0.59332 1.00355 0.0
N728 N 0.74833 0.60094 0.99154 0.0
C729 C 0.72446 0.57501 0.99057 0.0
C730 C 0.73521 0.56685 1.00288 0.0
C731 C 0.75255 0.57606 0.0094 0.0
C732 C 0.73165 0.59217 0.98512 0.0
H733 H 0.77232 0.60034 0.00865 0.0
C734 C 0.79069 0.63853 1.00392 0.0
O735 O 0.77509 0.68423 0.0345 0.0
O736 O 0.76507 0.6568 0.04287 0.0
N737 N 0.72948 0.61821 0.96978 0.0
C738 C 0.72052 0.62853 0.95897 0.0
C739 C 0.70282 0.62159 0.95184 0.0
C740 C 0.69454 0.6041 0.95582 0.0
C741 C 0.70405 0.5937 0.96691 0.0
C742 C 0.72167 0.6013 0.97358 0.0
H743 H 0.7268 0.64201 0.95592 0.0
O744 O 0.73883 0.6623 0.01471 0.0
O745 O 0.74856 0.63767 1.00379 0.0
O746 O 0.76507 0.6719 0.9901 0.0
O747 O 0.75827 0.64635 0.96795 0.0
C748 C 0.69664 0.57626 0.9719 0.0
C749 C 0.70683 0.56694 0.98376 0.0
H750 H 0.73026 0.5536 0.00752 0.0
H751 H 0.76093 0.56988 0.01893 0.0
H752 H 0.69556 0.62973 0.94334 0.0
H753 H 0.68086 0.59886 0.95041 0.0
H754 H 0.68306 0.57003 0.96692 0.0
H755 H 0.7009 0.55369 0.98774 0.0
Mn756 Mn 0.91296 0.54024 0.76846 0.0
Mn757 Mn 0.88055 0.53454 0.79572 0.0
C758 C 0.89776 0.50856 0.77223 0.0
C759 C 0.9261 0.5425 0.73826 0.0
C760 C 0.91926 0.54388 0.81377 0.0
O761 O 0.90433 0.56733 0.77001 0.0
O762 O 0.8836 0.56062 0.78803 0.0
C763 C 0.85106 0.5362 0.76622 0.0
N764 N 0.85839 0.52712 0.77972 0.0
C765 C 0.83296 0.50228 0.7745 0.0
C766 C 0.82509 0.51146 0.76068 0.0
C767 C 0.83421 0.52846 0.75648 0.0
C768 C 0.84977 0.51067 0.78376 0.0
H769 H 0.85801 0.54923 0.76286 0.0
C770 C 0.89175 0.57213 0.77843 0.0
O771 O 0.93445 0.54891 0.75518 0.0
O772 O 0.90974 0.53591 0.73853 0.0
N773 N 0.87517 0.51051 0.80419 0.0
C774 C 0.88491 0.50282 0.81712 0.0
C775 C 0.87781 0.48555 0.82251 0.0
C776 C 0.8607 0.47644 0.81475 0.0
C777 C 0.85083 0.48471 0.80169 0.0
C778 C 0.85857 0.50201 0.79691 0.0
H779 H 0.89807 0.5097 0.82318 0.0
O780 O 0.91322 0.51183 0.76767 0.0
O781 O 0.8915 0.52392 0.77463 0.0
O782 O 0.92508 0.54485 0.79784 0.0
O783 O 0.90287 0.54129 0.8142 0.0
C784 C 0.83377 0.47623 0.79285 0.0
C785 C 0.82487 0.48497 0.77921 0.0
H786 H 0.81211 0.50551 0.75309 0.0
H787 H 0.82827 0.53558 0.74575 0.0
H788 H 0.88553 0.47924 0.83257 0.0
H789 H 0.85534 0.463 0.81878 0.0
H790 H 0.8275 0.46281 0.79618 0.0
H791 H 0.81187 0.47815 0.77229 0.0
Mn792 Mn 0.75521 0.36756 0.48841 0.0
Mn793 Mn 0.75581 0.40735 0.46871 0.0
C794 C 0.78135 0.38588 0.48541 0.0
C795 C 0.75485 0.3521 0.51467 0.0
C796 C 0.74634 0.36826 0.44596 0.0
O797 O 0.7311 0.37261 0.48976 0.0
O798 O 0.73342 0.40025 0.47825 0.0
C799 C 0.75589 0.4339 0.50316 0.0
N800 N 0.76342 0.42881 0.48794 0.0
C801 C 0.7865 0.45619 0.49638 0.0
C802 C 0.77893 0.46179 0.51207 0.0
C803 C 0.76358 0.45058 0.51549 0.0
C804 C 0.77819 0.43949 0.48452 0.0
H805 H 0.74413 0.4253 0.5059 0.0
C806 C 0.7251 0.38697 0.48572 0.0
O807 O 0.74933 0.34296 0.4977 0.0
O808 O 0.76021 0.37018 0.51634 0.0
N809 N 0.77694 0.41593 0.45934 0.0
C810 C 0.78322 0.40792 0.44435 0.0
C811 C 0.79871 0.41717 0.43928 0.0
C812 C 0.80757 0.43455 0.44963 0.0
C813 C 0.8009 0.44249 0.46504 0.0
C814 C 0.78529 0.43274 0.4693 0.0
H815 H 0.77655 0.39452 0.43642 0.0
O816 O 0.78033 0.36824 0.48716 0.0
O817 O 0.76705 0.39223 0.48544 0.0
O818 O 0.74881 0.35931 0.45992 0.0
O819 O 0.74829 0.38617 0.44768 0.0
C820 C 0.80931 0.45951 0.47657 0.0
C821 C 0.80214 0.46633 0.49225 0.0
H822 H 0.78488 0.47458 0.52168 0.0
H823 H 0.75771 0.45479 0.52761 0.0
H824 H 0.80384 0.41089 0.42744 0.0
H825 H 0.81955 0.44161 0.4457 0.0
H826 H 0.82146 0.4673 0.47369 0.0
H827 H 0.80886 0.47928 0.50118 0.0
Mn828 Mn 0.64068 0.54422 0.29912 0.0
Mn829 Mn 0.67509 0.55065 0.33429 0.0
C830 C 0.6575 0.57453 0.31006 0.0
C831 C 0.62821 0.5385 0.26664 0.0
C832 C 0.63779 0.54319 0.34164 0.0
O833 O 0.64619 0.51779 0.29819 0.0
O834 O 0.6687 0.5238 0.32233 0.0
C835 C 0.70157 0.54291 0.31064 0.0
N836 N 0.69623 0.55446 0.32394 0.0
C837 C 0.7231 0.57712 0.32779 0.0
C838 C 0.72891 0.56543 0.31422 0.0
C839 C 0.71805 0.54832 0.30552 0.0
C840 C 0.70651 0.57104 0.33226 0.0
H841 H 0.69329 0.52972 0.30396 0.0
C842 C 0.65812 0.51261 0.30897 0.0
O843 O 0.61899 0.53475 0.27984 0.0
O844 O 0.64467 0.54522 0.27224 0.0
N845 N 0.68296 0.5759 0.34696 0.0
C846 C 0.67481 0.58626 0.3585 0.0
C847 C 0.68385 0.60382 0.36826 0.0
C848 C 0.70111 0.61054 0.36599 0.0
C849 C 0.70903 0.5999 0.35359 0.0
C850 C 0.69952 0.58233 0.34456 0.0
H851 H 0.66159 0.58108 0.36037 0.0
O852 O 0.64134 0.57219 0.30221 0.0
O853 O 0.66306 0.55905 0.31203 0.0
O854 O 0.63069 0.5414 0.32426 0.0
O855 O 0.65425 0.54715 0.34685 0.0
C856 C 0.72596 0.60608 0.34975 0.0
C857 C 0.73294 0.59475 0.33675 0.0
H858 H 0.7416 0.56955 0.3102 0.0
H859 H 0.72237 0.53934 0.29487 0.0
H860 H 0.67758 0.61209 0.37764 0.0
H861 H 0.7082 0.62389 0.37382 0.0
H862 H 0.7336 0.61965 0.35648 0.0
H863 H 0.74583 0.59981 0.33363 0.0
Tb864 Tb 0.02452 0.01006 0.0165 0.0
Tb865 Tb 0.05675 0.0307 0.0398 0.0
C866 C 0.99314 1.00203 1.0016 0.0
C867 C 0.98219 0.01494 0.99481 0.0
C868 C 0.98352 0.03265 1.00551 0.0
C869 C 0.97471 0.0458 0.99843 0.0
C870 C 0.9641 0.04147 0.98063 0.0
C871 C 0.96236 0.02362 0.97001 0.0
C872 C 0.97155 0.0105 0.97697 0.0
C873 C 0.05159 0.01096 0.99851 0.0
C874 C 0.0359 0.05532 0.01738 0.0
C875 C 0.08828 0.03911 0.05424 0.0
C876 C 0.09978 0.02729 0.06236 0.0
C877 C 0.11443 0.02507 0.05407 0.0
C878 C 0.1231 0.01063 0.05799 0.0
C879 C 0.11744 0.99817 0.07048 0.0
C880 C 0.10362 1.0014 0.07996 0.0
C881 C 0.09483 0.0158 0.07589 0.0
C882 C 0.02941 0.02986 0.05748 0.0
C883 C 0.04535 0.9855 0.03931 0.0
O884 O 0.99833 1.00437 0.01995 0.0
O885 O 1.00578 0.99999 0.9921 0.0
O886 O 0.04859 0.02423 0.00976 0.0
O887 O 0.03896 0.99651 0.99712 0.0
O888 O 0.02354 0.03984 0.0135 0.0
O889 O 0.05127 0.05504 0.02697 0.0
O890 O 0.08282 0.03442 0.03602 0.0
O891 O 0.07581 0.0426 0.06348 0.0
O892 O 0.03265 0.01661 0.04646 0.0
O893 O 0.04215 0.04426 0.05918 0.0
O894 O 0.05755 1.00111 0.04379 0.0
O895 O 0.03024 0.98556 0.02895 0.0
H896 H 0.9915 0.0365 0.01937 0.0
H897 H 0.97586 0.05924 0.00716 0.0
H898 H 0.95394 0.0199 0.95639 0.0
H899 H 0.97044 0.99696 0.96845 0.0
H900 H 0.11842 0.03367 0.04352 0.0
H901 H 0.1335 1.0085 0.05016 0.0
H902 H 0.09911 0.99231 0.0899 0.0
H903 H 0.08356 0.01719 0.08254 0.0
Tb904 Tb 0.28919 0.76974 0.26794 0.0
Tb905 Tb 0.28386 0.78377 0.3051 0.0
C906 C 0.28994 0.76268 0.23297 0.0
C907 C 0.29587 0.77198 0.21734 0.0
C908 C 0.2958 0.79108 0.21662 0.0
C909 C 0.2991 0.79887 0.20031 0.0
C910 C 0.30255 0.78768 0.18452 0.0
C911 C 0.30372 0.76887 0.18587 0.0
C912 C 0.30033 0.76109 0.20213 0.0
C913 C 0.31399 0.76603 0.2952 0.0
C914 C 0.30407 0.81405 0.28362 0.0
C915 C 0.28341 0.79081 0.34009 0.0
C916 C 0.27298 0.78392 0.35407 0.0
C917 C 0.28103 0.78575 0.3729 0.0
C918 C 0.27207 0.7776 0.38621 0.0
C919 C 0.25481 0.7675 0.38094 0.0
C920 C 0.24648 0.76658 0.36218 0.0
C921 C 0.25555 0.77464 0.34879 0.0
C922 C 0.25864 0.78702 0.27798 0.0
C923 C 0.26905 0.73905 0.28949 0.0
O924 O 0.27705 0.76826 0.23999 0.0
O925 O 0.30196 0.76004 0.2461 0.0
O926 O 0.30687 0.78013 0.29422 0.0
O927 O 0.30766 0.75384 0.28023 0.0
O928 O 0.29808 0.80102 0.26841 0.0
O929 O 0.30208 0.80923 0.30054 0.0
O930 O 0.29217 0.77907 0.33273 0.0
O931 O 0.27594 0.79946 0.32741 0.0
O932 O 0.2661 0.77319 0.27895 0.0
O933 O 0.26468 0.79905 0.2931 0.0
O934 O 0.27331 0.75271 0.3044 0.0
O935 O 0.27272 0.74315 0.27277 0.0
H936 H 0.29244 0.79975 0.22827 0.0
H937 H 0.29789 0.81334 0.19969 0.0
H938 H 0.3066 0.75996 0.17408 0.0
H939 H 0.30055 0.74633 0.20253 0.0
H940 H 0.29451 0.79284 0.37714 0.0
H941 H 0.27909 0.77827 0.40035 0.0
H942 H 0.23318 0.75904 0.35767 0.0
H943 H 0.24915 0.77312 0.33424 0.0
Tb944 Tb 0.55338 0.02455 0.52733 0.0
Tb945 Tb 0.51562 0.02109 0.53867 0.0
C946 C 0.58482 0.02193 0.52692 0.0
C947 C 0.59736 0.00913 0.53077 0.0
C948 C 0.60836 0.01139 0.54835 0.0
C949 C 0.62165 1.00099 0.55095 0.0
C950 C 0.62448 0.98817 0.53599 0.0
C951 C 0.61314 0.98557 0.51861 0.0
C952 C 0.59985 0.99586 0.51604 0.0
C953 C 0.52948 0.03009 0.49781 0.0
C954 C 0.52755 0.98437 0.52234 0.0
C955 C 0.48408 0.02328 0.53861 0.0
C956 C 0.47118 0.03521 0.53331 0.0
C957 C 0.45527 0.02689 0.52165 0.0
C958 C 0.44191 0.03704 0.51861 0.0
C959 C 0.44398 0.05585 0.52724 0.0
C960 C 0.46017 0.06437 0.53839 0.0
C961 C 0.47356 0.05422 0.54138 0.0
C962 C 0.53934 0.01554 0.56826 0.0
C963 C 0.54146 0.06133 0.54356 0.0
O964 O 0.57951 0.03093 0.54121 0.0
O965 O 0.57232 0.01622 0.51239 0.0
O966 O 0.52758 0.02653 0.51444 0.0
O967 O 0.54609 0.0314 0.4981 0.0
O968 O 0.54377 0.99414 0.5252 0.0
O969 O 0.51405 0.99223 0.52507 0.0
O970 O 0.48943 0.01331 0.52503 0.0
O971 O 0.49663 0.03039 0.55282 0.0
O972 O 0.54139 0.01908 0.55164 0.0
O973 O 0.52271 0.01421 0.56786 0.0
O974 O 0.52526 0.05148 0.54071 0.0
O975 O 0.55499 0.05351 0.54075 0.0
H976 H 0.60706 0.02161 0.55996 0.0
H977 H 0.63013 1.00355 0.56451 0.0
H978 H 0.61462 0.97565 0.50683 0.0
H979 H 0.59181 0.99375 0.50224 0.0
H980 H 0.45292 0.01224 0.51538 0.0
H981 H 0.42967 0.02983 0.51007 0.0
H982 H 0.46248 0.07889 0.54501 0.0
H983 H 0.48562 0.06117 0.55044 0.0
Tb984 Tb 0.26752 0.27452 0.77646 0.0
Tb985 Tb 0.3055 0.26931 0.78099 0.0
C986 C 0.23574 0.27316 0.77881 0.0
C987 C 0.22275 0.27287 0.79205 0.0
C988 C 0.22173 0.2609 0.80603 0.0
C989 C 0.20837 0.26017 0.8172 0.0
C990 C 0.19561 0.2713 0.81463 0.0
C991 C 0.19685 0.2833 0.80066 0.0
C992 C 0.2102 0.28408 0.78962 0.0
C993 C 0.29039 0.30088 0.76565 0.0
C994 C 0.29119 0.28619 0.81751 0.0
C995 C 0.33825 0.2748 0.78384 0.0
C996 C 0.35224 0.27061 0.77313 0.0
C997 C 0.3693 0.27323 0.78281 0.0
C998 C 0.38327 0.2722 0.77289 0.0
C999 C 0.38063 0.26863 0.7529 0.0
C1000 C 0.36332 0.26511 0.7433 0.0
C1001 C 0.34933 0.26619 0.75326 0.0
C1002 C 0.28147 0.23875 0.78041 0.0
C1003 C 0.28174 0.2572 0.74088 0.0
O1004 O 0.24255 0.25822 0.77561 0.0
O1005 O 0.24706 0.28887 0.7796 0.0
O1006 O 0.2926 0.29226 0.77962 0.0
O1007 O 0.27434 0.29541 0.75733 0.0
O1008 O 0.27591 0.28499 0.80673 0.0
O1009 O 0.30448 0.28048 0.81066 0.0
O1010 O 0.32867 0.28593 0.77671 0.0
O1011 O 0.32903 0.26105 0.79066 0.0
O1012 O 0.28157 0.25519 0.78802 0.0
O1013 O 0.29583 0.23869 0.77358 0.0
O1014 O 0.29768 0.26453 0.75006 0.0
O1015 O 0.26786 0.25711 0.74943 0.0
H1016 H 0.23112 0.25196 0.80819 0.0
H1017 H 0.20806 0.25084 0.82785 0.0
H1018 H 0.18721 0.29181 0.7978 0.0
H1019 H 0.21048 0.29324 0.7788 0.0
H1020 H 0.37195 0.27688 0.7981 0.0
H1021 H 0.39626 0.27526 0.78098 0.0
H1022 H 0.36053 0.26186 0.728 0.0
H1023 H 0.3363 0.26414 0.7454 0.0
Tb1024 Tb 0.03189 0.04382 0.53125 0.0
Tb1025 Tb 0.03498 1.00176 0.52284 0.0
C1026 C 0.03384 0.07821 0.53015 0.0
C1027 C 0.03533 0.09001 0.51493 0.0
C1028 C 0.04919 0.10547 0.51717 0.0
C1029 C 0.05067 0.11702 0.50306 0.0
C1030 C 0.0382 0.11342 0.48647 0.0
C1031 C 0.02459 0.09758 0.48404 0.0
C1032 C 0.0232 0.08595 0.49808 0.0
C1033 C 1.00642 0.01842 0.53913 0.0
C1034 C 0.0221 0.02159 0.48853 0.0
C1035 C 0.02725 0.96684 0.52189 0.0
C1036 C 0.0335 0.95361 0.53359 0.0
C1037 C 0.0232 0.93571 0.53268 0.0
C1038 C 0.02736 0.92407 0.54594 0.0
C1039 C 0.0419 0.9302 0.56033 0.0
C1040 C 0.05254 0.94797 0.56076 0.0
C1041 C 0.04835 0.95961 0.54749 0.0
C1042 C 0.06481 0.02526 0.5209 0.0
C1043 C 0.04882 0.0251 0.56449 0.0
O1044 O 0.04742 0.07093 0.53527 0.0
O1045 O 0.01906 0.06624 0.52892 0.0
O1046 O 0.01443 0.01694 0.52515 0.0
O1047 O 0.01206 0.03512 0.54875 0.0
O1048 O 0.02646 0.03797 0.49996 0.0
O1049 O 0.02299 1.00533 0.49475 0.0
O1050 O 0.0195 0.9787 0.53089 0.0
O1051 O 0.03802 0.97496 0.51152 0.0
O1052 O 0.05042 0.02862 0.52409 0.0
O1053 O 0.06278 1.00701 0.51872 0.0
O1054 O 0.04348 1.00842 0.55368 0.0
O1055 O 0.04709 0.04114 0.55812 0.0
H1056 H 0.05884 0.1087 0.52992 0.0
H1057 H 0.06153 0.12886 0.50523 0.0
H1058 H 0.0147 0.09445 0.47155 0.0
H1059 H 0.01249 0.07395 0.49581 0.0
H1060 H 0.01154 0.93106 0.52222 0.0
H1061 H 0.01873 0.91061 0.5454 0.0
H1062 H 0.0639 0.95301 0.57156 0.0
H1063 H 0.05631 0.97353 0.54847 0.0
Tb1064 Tb 0.29065 0.75244 0.76249 0.0
Tb1065 Tb 0.29085 0.79558 0.7654 0.0
C1066 C 0.29285 0.71932 0.7504 0.0
C1067 C 0.30484 0.70635 0.75354 0.0
C1068 C 0.31986 0.71137 0.76734 0.0
C1069 C 0.33185 0.69943 0.76884 0.0
C1070 C 0.32911 0.68237 0.75641 0.0
C1071 C 0.31392 0.6774 0.74278 0.0
C1072 C 0.30194 0.68927 0.74137 0.0
C1073 C 0.28285 0.76876 0.79407 0.0
C1074 C 0.32295 0.78169 0.78494 0.0
C1075 C 0.28394 0.8278 0.771 0.0
C1076 C 0.26888 0.83625 0.77475 0.0
C1077 C 0.25183 0.82843 0.76547 0.0
C1078 C 0.2381 0.83761 0.76845 0.0
C1079 C 0.24115 0.85469 0.78087 0.0
C1080 C 0.25815 0.86207 0.79054 0.0
C1081 C 0.27181 0.85297 0.78749 0.0
C1082 C 0.30696 0.78121 0.73943 0.0
C1083 C 0.25657 0.76534 0.746 0.0
O1084 O 0.29908 0.73413 0.74294 0.0
O1085 O 0.28407 0.72343 0.76401 0.0
O1086 O 0.27946 0.77246 0.77763 0.0
O1087 O 0.28992 0.75398 0.79334 0.0
O1088 O 0.31749 0.76527 0.77388 0.0
O1089 O 0.31326 0.79466 0.78624 0.0
O1090 O 0.2909 0.81962 0.78457 0.0
O1091 O 0.28301 0.81841 0.75405 0.0
O1092 O 0.29324 0.77368 0.74464 0.0
O1093 O 0.31178 0.79839 0.74796 0.0
O1094 O 0.26394 0.78305 0.75296 0.0
O1095 O 0.2645 0.75099 0.7476 0.0
H1096 H 0.32245 0.72466 0.77669 0.0
H1097 H 0.34348 0.70378 0.77938 0.0
H1098 H 0.31124 0.66427 0.73318 0.0
H1099 H 0.29051 0.68523 0.73052 0.0
H1100 H 0.24916 0.81543 0.75569 0.0
H1101 H 0.22514 0.83144 0.76095 0.0
H1102 H 0.26106 0.87531 0.79998 0.0
H1103 H 0.28482 0.85925 0.79481 0.0
Tb1104 Tb 0.51694 0.02015 0.01853 0.0
Tb1105 Tb 0.55026 0.03235 0.04634 0.0
C1106 C 0.4892 0.99987 1.00075 0.0
C1107 C 0.47075 0.99576 1.0026 0.0
C1108 C 0.46065 0.97824 0.99422 0.0
C1109 C 0.44303 0.97387 0.9956 0.0
C1110 C 0.4352 0.987 1.00536 0.0
C1111 C 0.4454 1.00456 0.0139 0.0
C1112 C 0.46312 1.00887 0.01263 0.0
C1113 C 0.52701 0.05662 0.02863 0.0
C1114 C 0.51469 0.02601 0.06463 0.0
C1115 C 0.57703 0.05314 0.06552 0.0
C1116 C 0.59589 0.05917 0.06682 0.0
C1117 C 0.60303 0.07846 0.07118 0.0
C1118 C 0.62099 0.0848 0.07472 0.0
C1119 C 0.63215 0.07191 0.07402 0.0
C1120 C 0.62499 0.05257 0.06914 0.0
C1121 C 0.60695 0.04622 0.06552 0.0
C1122 C 0.54073 0.99582 0.03534 0.0
C1123 C 0.55271 0.02621 1.00024 0.0
O1124 O 0.49969 0.99408 0.01348 0.0
O1125 O 0.49545 0.01679 0.99717 0.0
O1126 O 0.52821 0.04391 0.03878 0.0
O1127 O 0.51778 0.04894 0.01233 0.0
O1128 O 0.50647 0.02009 0.04668 0.0
O1129 O 0.53193 0.03217 0.06757 0.0
O1130 O 0.56722 0.05865 0.05193 0.0
O1131 O 0.57109 0.03589 0.06843 0.0
O1132 O 0.53905 1.00894 0.02595 0.0
O1133 O 0.54998 1.00316 0.05174 0.0
O1134 O 0.56088 0.03248 0.01821 0.0
O1135 O 0.53542 0.01982 0.99729 0.0
H1136 H 0.46638 0.96795 0.98649 0.0
H1137 H 0.43544 0.96034 0.98866 0.0
H1138 H 0.4397 0.01486 0.02162 0.0
H1139 H 0.47083 0.02241 0.01938 0.0
H1140 H 0.59468 0.08862 0.07242 0.0
H1141 H 0.62613 0.09975 0.07867 0.0
H1142 H 0.63332 0.04238 0.06828 0.0
H1143 H 0.60169 0.03124 0.06216 0.0
Tb1144 Tb 0.27086 0.26433 0.27442 0.0
Tb1145 Tb 0.30483 0.29127 0.2907 0.0
C1146 C 0.24031 0.24597 0.27081 0.0
C1147 C 0.22497 0.24998 0.27892 0.0
C1148 C 0.22361 0.24805 0.29793 0.0
C1149 C 0.20999 0.25355 0.30608 0.0
C1150 C 0.19738 0.26101 0.29541 0.0
C1151 C 0.19838 0.26234 0.27624 0.0
C1152 C 0.21202 0.25681 0.26806 0.0
C1153 C 0.28808 0.27926 0.24877 0.0
C1154 C 0.27021 0.30937 0.28819 0.0
C1155 C 0.33433 0.31041 0.29044 0.0
C1156 C 0.35174 0.30629 0.29484 0.0
C1157 C 0.36522 0.31531 0.28641 0.0
C1158 C 0.38063 0.30858 0.28664 0.0
C1159 C 0.38281 0.29263 0.2953 0.0
C1160 C 0.36963 0.28436 0.3048 0.0
C1161 C 0.35419 0.2911 0.30451 0.0
C1162 C 0.29275 0.27385 0.31839 0.0
C1163 C 0.30513 0.24587 0.27994 0.0
O1164 O 0.2532 0.2432 0.28285 0.0
O1165 O 0.24572 0.25665 0.25853 0.0
O1166 O 0.28665 0.28726 0.26492 0.0
O1167 O 0.27928 0.26205 0.24655 0.0
O1168 O 0.26143 0.29147 0.28279 0.0
O1169 O 0.28766 0.31268 0.29168 0.0
O1170 O 0.3248 0.29958 0.27547 0.0
O1171 O 0.32571 0.31254 0.30465 0.0
O1172 O 0.28631 0.27213 0.30112 0.0
O1173 O 0.30668 0.2869 0.32084 0.0
O1174 O 0.31404 0.26374 0.28427 0.0
O1175 O 0.28774 0.24272 0.27621 0.0
H1176 H 0.23331 0.24275 0.30672 0.0
H1177 H 0.20966 0.2525 0.32092 0.0
H1178 H 0.18867 0.26774 0.26758 0.0
H1179 H 0.21263 0.25827 0.25333 0.0
H1180 H 0.36341 0.32684 0.27862 0.0
H1181 H 0.39032 0.31513 0.27889 0.0
H1182 H 0.37095 0.2722 0.31177 0.0
H1183 H 0.3438 0.28381 0.31093 0.0
Tb1184 Tb 0.53641 0.5356 0.03153 0.0
Tb1185 Tb 0.54464 0.4988 0.02718 0.0
C1186 C 0.53525 0.56992 0.03601 0.0
C1187 C 0.53233 0.58251 0.02192 0.0
C1188 C 0.53776 0.57955 1.0042 0.0
C1189 C 0.53411 0.59084 0.99042 0.0
C1190 C 0.52489 0.60522 0.99408 0.0
C1191 C 0.51934 0.60805 0.01177 0.0
C1192 C 0.52304 0.59676 0.02559 0.0
C1193 C 0.50928 0.50791 0.03091 0.0
C1194 C 0.52926 0.51466 0.99057 0.0
C1195 C 0.54593 0.46452 0.02271 0.0
C1196 C 0.55183 0.45297 0.03669 0.0
C1197 C 0.54404 0.43392 0.03498 0.0
C1198 C 0.54799 0.4235 0.04952 0.0
C1199 C 0.55977 0.43202 0.06602 0.0
C1200 C 0.56792 0.45101 0.06739 0.0
C1201 C 0.56394 0.46141 0.05289 0.0
C1202 C 0.57179 0.52656 0.02788 0.0
C1203 C 0.55229 0.51994 0.06828 0.0
O1204 O 0.54977 0.56371 0.03668 0.0
O1205 O 0.52193 0.55658 0.03641 0.0
O1206 O 0.52454 0.50918 0.03954 0.0
O1207 O 0.50887 0.52261 0.02256 0.0
O1208 O 0.53386 0.53147 1.00081 0.0
O1209 O 0.53045 0.49943 0.99862 0.0
O1210 O 0.53187 0.4707 0.02554 0.0
O1211 O 0.55791 0.47767 0.01876 0.0
O1212 O 0.55652 0.52528 0.01929 0.0
O1213 O 0.57223 0.51171 0.036 0.0
O1214 O 0.54873 0.50314 0.05801 0.0
O1215 O 0.54985 0.53497 0.06039 0.0
H1216 H 0.54475 0.56847 1.00095 0.0
H1217 H 0.5384 0.58825 0.97686 0.0
H1218 H 0.51241 0.6192 0.01504 0.0
H1219 H 0.5186 0.59909 0.0391 0.0
H1220 H 0.53448 0.42727 0.02271 0.0
H1221 H 0.54127 0.40898 0.04814 0.0
H1222 H 0.57718 0.45793 0.0798 0.0
H1223 H 0.56999 0.47619 0.05458 0.0
Tb1224 Tb 0.78322 0.24956 0.25153 0.0
Tb1225 Tb 0.78704 0.29205 0.26529 0.0
C1226 C 0.78882 0.218 0.23868 0.0
C1227 C 0.80348 0.20778 0.2396 0.0
C1228 C 0.81011 0.20262 0.22304 0.0
C1229 C 0.82278 0.19146 0.22328 0.0
C1230 C 0.82916 0.18514 0.24013 0.0
C1231 C 0.8228 0.19077 0.2568 0.0
C1232 C 0.81017 0.20194 0.25655 0.0
C1233 C 0.76801 0.25871 0.28037 0.0
C1234 C 0.81729 0.27313 0.27971 0.0
C1235 C 0.7825 0.32339 0.28012 0.0
C1236 C 0.76879 0.33449 0.28135 0.0
C1237 C 0.77154 0.34975 0.29587 0.0
C1238 C 0.75909 0.36092 0.29733 0.0
C1239 C 0.74354 0.35714 0.28423 0.0
C1240 C 0.7408 0.34173 0.26964 0.0
C1241 C 0.75327 0.33042 0.2683 0.0
C1242 C 0.80367 0.28342 0.23753 0.0
C1243 C 0.75289 0.26843 0.23726 0.0
O1244 O 0.78999 0.23239 0.22929 0.0
O1245 O 0.78228 0.22115 0.25426 0.0
O1246 O 0.78241 0.26674 0.27706 0.0
O1247 O 0.76166 0.24394 0.26784 0.0
O1248 O 0.80997 0.25823 0.26688 0.0
O1249 O 0.80953 0.28743 0.28336 0.0
O1250 O 0.78089 0.30826 0.28843 0.0
O1251 O 0.78775 0.32069 0.26368 0.0
O1252 O 0.7889 0.27505 0.2399 0.0
O1253 O 0.80908 0.29825 0.25024 0.0
O1254 O 0.76054 0.28362 0.24953 0.0
O1255 O 0.76019 0.25369 0.23395 0.0
H1256 H 0.80521 0.2069 0.20975 0.0
H1257 H 0.82744 0.18766 0.21019 0.0
H1258 H 0.82709 0.18599 0.27 0.0
H1259 H 0.80536 0.20558 0.2696 0.0
H1260 H 0.78347 0.35316 0.30604 0.0
H1261 H 0.76188 0.37284 0.30851 0.0
H1262 H 0.72901 0.33836 0.25931 0.0
H1263 H 0.75088 0.31865 0.25703 0.0
Tb1264 Tb 0.02673 0.53594 0.52413 0.0
Tb1265 Tb 0.0548 0.52508 0.54885 0.0
C1266 C 0.99818 0.53772 0.50487 0.0
C1267 C 0.97972 0.53166 0.50605 0.0
C1268 C 0.96746 0.5283 0.48944 0.0
C1269 C 0.95028 0.51949 0.48959 0.0
C1270 C 0.94524 0.51377 0.50635 0.0
C1271 C 0.95735 0.5181 0.52319 0.0
C1272 C 0.97446 0.52702 0.52304 0.0
C1273 C 0.05207 0.56434 0.54022 0.0
C1274 C 0.02171 0.53054 0.56838 0.0
C1275 C 0.08357 0.524 0.56782 0.0
C1276 C 0.10194 0.52928 0.56567 0.0
C1277 C 0.10813 0.54595 0.55861 0.0
C1278 C 0.12577 0.55131 0.55764 0.0
C1279 C 0.13748 0.53999 0.56347 0.0
C1280 C 0.1312 0.52304 0.56998 0.0
C1281 C 0.11354 0.51778 0.57117 0.0
C1282 C 0.0294 0.49668 0.53308 0.0
C1283 C 0.05951 0.52943 0.50433 0.0
O1284 O 1.00643 0.52397 0.50194 0.0
O1285 O 1.00723 0.55134 0.51777 0.0
O1286 O 0.0456 0.55042 0.54754 0.0
O1287 O 0.04372 0.56284 0.52314 0.0
O1288 O 0.01452 0.53203 0.55073 0.0
O1289 O 0.0382 0.52847 0.5713 0.0
O1290 O 0.07541 0.53792 0.57034 0.0
O1291 O 0.07417 0.5097 0.55597 0.0
O1292 O 0.03582 0.51053 0.52561 0.0
O1293 O 0.03802 0.49815 0.55003 0.0
O1294 O 0.06695 0.52847 0.52206 0.0
O1295 O 0.04301 0.53151 0.50157 0.0
H1296 H 0.97135 0.5317 0.47617 0.0
H1297 H 0.94123 0.51617 0.47639 0.0
H1298 H 0.95371 0.51402 0.53633 0.0
H1299 H 0.98366 0.52957 0.53603 0.0
H1300 H 0.09938 0.55494 0.55404 0.0
H1301 H 0.13027 0.56429 0.55226 0.0
H1302 H 0.13999 0.51409 0.57455 0.0
H1303 H 0.10897 0.50484 0.57659 0.0
Tb1304 Tb 0.76836 0.77527 0.27946 0.0
Tb1305 Tb 0.80582 0.76893 0.28483 0.0
C1306 C 0.73658 0.77391 0.28209 0.0
C1307 C 0.72411 0.77239 0.29603 0.0
C1308 C 0.71475 0.75469 0.29842 0.0
C1309 C 0.70135 0.75325 0.30948 0.0
C1310 C 0.69678 0.76946 0.31841 0.0
C1311 C 0.70653 0.78715 0.31647 0.0
C1312 C 0.71992 0.78859 0.30541 0.0
C1313 C 0.79212 0.80259 0.27163 0.0
C1314 C 0.79187 0.78423 0.32103 0.0
C1315 C 0.83751 0.76912 0.28251 0.0
C1316 C 0.85054 0.77088 0.2692 0.0
C1317 C 0.8608 0.78852 0.26811 0.0
C1318 C 0.87469 0.78998 0.25775 0.0
C1319 C 0.87887 0.77383 0.24819 0.0
C1320 C 0.86828 0.75622 0.24884 0.0
C1321 C 0.8544 0.75477 0.25924 0.0
C1322 C 0.78169 0.74163 0.29227 0.0
C1323 C 0.78243 0.76053 0.24336 0.0
O1324 O 0.74318 0.75915 0.27746 0.0
O1325 O 0.74801 0.78964 0.28342 0.0
O1326 O 0.79384 0.79274 0.28476 0.0
O1327 O 0.77607 0.79823 0.26307 0.0
O1328 O 0.77613 0.77966 0.31058 0.0
O1329 O 0.80607 0.78283 0.31351 0.0
O1330 O 0.83151 0.7841 0.28795 0.0
O1331 O 0.82543 0.75377 0.27994 0.0
O1332 O 0.78039 0.7516 0.27927 0.0
O1333 O 0.79762 0.7459 0.30115 0.0
O1334 O 0.79823 0.76572 0.25364 0.0
O1335 O 0.76818 0.761 0.25101 0.0
H1336 H 0.71737 0.74187 0.29124 0.0
H1337 H 0.69411 0.73937 0.31036 0.0
H1338 H 0.7037 0.79999 0.32333 0.0
H1339 H 0.7267 0.80247 0.30381 0.0
H1340 H 0.85839 0.80126 0.2757 0.0
H1341 H 0.88224 0.80383 0.25737 0.0
H1342 H 0.87108 0.7434 0.24189 0.0
H1343 H 0.84702 0.7409 0.25995 0.0
Tb1344 Tb 0.79115 0.2665 0.77045 0.0
Tb1345 Tb 0.78218 0.2817 0.80502 0.0
C1346 C 0.79546 0.25738 0.73686 0.0
C1347 C 0.79799 0.26566 0.71964 0.0
C1348 C 0.79171 0.25436 0.70212 0.0
C1349 C 0.79298 0.26193 0.68536 0.0
C1350 C 0.80064 0.28097 0.68584 0.0
C1351 C 0.80731 0.29218 0.7035 0.0
C1352 C 0.80596 0.28457 0.72031 0.0
C1353 C 0.81261 0.26183 0.8005 0.0
C1354 C 0.80374 0.31182 0.7843 0.0
C1355 C 0.77842 0.28947 0.83911 0.0
C1356 C 0.77465 0.27912 0.85483 0.0
C1357 C 0.77388 0.25965 0.85317 0.0
C1358 C 0.7715 0.25018 0.86867 0.0
C1359 C 0.77004 0.26008 0.88614 0.0
C1360 C 0.77044 0.27953 0.88764 0.0
C1361 C 0.77268 0.28897 0.87205 0.0
C1362 C 0.7607 0.28647 0.77504 0.0
C1363 C 0.76926 0.2364 0.79083 0.0
O1364 O 0.78023 0.25702 0.74202 0.0
O1365 O 0.80816 0.26216 0.7512 0.0
O1366 O 0.80649 0.27641 0.79817 0.0
O1367 O 0.80673 0.24951 0.78556 0.0
O1368 O 0.80065 0.29761 0.76997 0.0
O1369 O 0.79854 0.30841 0.80057 0.0
O1370 O 0.79337 0.28874 0.83364 0.0
O1371 O 0.76585 0.28721 0.82479 0.0
O1372 O 0.76684 0.27186 0.77725 0.0
O1373 O 0.76636 0.29866 0.79018 0.0
O1374 O 0.77162 0.25075 0.80483 0.0
O1375 O 0.7752 0.23958 0.7749 0.0
H1376 H 0.78545 0.23974 0.70141 0.0
H1377 H 0.78736 0.25302 0.67205 0.0
H1378 H 0.81337 0.30686 0.70431 0.0
H1379 H 0.8109 0.29347 0.73377 0.0
H1380 H 0.77563 0.25183 0.84012 0.0
H1381 H 0.77157 0.23525 0.8672 0.0
H1382 H 0.7693 0.28748 0.90094 0.0
H1383 H 0.77328 0.30402 0.87356 0.0
Tb1384 Tb 0.76933 0.76274 0.77767 0.0
Tb1385 Tb 0.80199 0.78767 0.78749 0.0
C1386 C 0.74283 0.73775 0.77746 0.0
C1387 C 0.72579 0.73838 0.78342 0.0
C1388 C 0.72418 0.7401 0.80275 0.0
C1389 C 0.70856 0.74263 0.80851 0.0
C1390 C 0.69417 0.74339 0.7951 0.0
C1391 C 0.69552 0.74085 0.77573 0.0
C1392 C 0.71117 0.73829 0.76994 0.0
C1393 C 0.77911 0.77921 0.74877 0.0
C1394 C 0.76683 0.80608 0.78775 0.0
C1395 C 0.82896 0.8119 0.788 0.0
C1396 C 0.84625 0.80946 0.7842 0.0
C1397 C 0.85329 0.81815 0.76981 0.0
C1398 C 0.86782 0.81306 0.76322 0.0
C1399 C 0.8756 0.79931 0.77111 0.0
C1400 C 0.8691 0.79135 0.7862 0.0
C1401 C 0.85448 0.79628 0.79262 0.0
C1402 C 0.79213 0.77093 0.81612 0.0
C1403 C 0.80452 0.74427 0.77797 0.0
O1404 O 0.75626 0.74177 0.79101 0.0
O1405 O 0.74606 0.74574 0.76263 0.0
O1406 O 0.78883 0.77267 0.76077 0.0
O1407 O 0.76334 0.77536 0.75218 0.0
O1408 O 0.75812 0.78827 0.78542 0.0
O1409 O 0.78414 0.80889 0.78854 0.0
O1410 O 0.81667 0.80668 0.77327 0.0
O1411 O 0.82407 0.80605 0.80332 0.0
O1412 O 0.78248 0.77776 0.80433 0.0
O1413 O 0.80788 0.77432 0.81251 0.0
O1414 O 0.81327 0.76205 0.78001 0.0
O1415 O 0.78724 0.74158 0.77716 0.0
H1416 H 0.73511 0.74004 0.81353 0.0
H1417 H 0.70799 0.7447 0.82355 0.0
H1418 H 0.68454 0.74109 0.76507 0.0
H1419 H 0.71197 0.73674 0.75494 0.0
H1420 H 0.847 0.82818 0.76305 0.0
H1421 H 0.87268 0.81948 0.75164 0.0
H1422 H 0.87475 0.78056 0.79237 0.0
H1423 H 0.84916 0.78909 0.80353 0.0
Tb1424 Tb 0.51946 0.51273 0.52042 0.0
Tb1425 Tb 0.55713 0.53151 0.53977 0.0
C1426 C 0.48742 0.5081 0.51008 0.0
C1427 C 0.47702 0.52293 0.5103 0.0
C1428 C 0.47767 0.53509 0.52716 0.0
C1429 C 0.47144 0.55171 0.52669 0.0
C1430 C 0.46451 0.55659 0.50936 0.0
C1431 C 0.46281 0.54388 0.49265 0.0
C1432 C 0.46902 0.52717 0.49313 0.0
C1433 C 0.54419 0.51027 0.49936 0.0
C1434 C 0.53412 0.55795 0.52228 0.0
C1435 C 0.58963 0.53724 0.54448 0.0
C1436 C 0.60073 0.52334 0.54725 0.0
C1437 C 0.59604 0.50544 0.53624 0.0
C1438 C 0.60535 0.49151 0.53989 0.0
C1439 C 0.61958 0.49511 0.55461 0.0
C1440 C 0.62461 0.5131 0.5654 0.0
C1441 C 0.61513 0.52712 0.56182 0.0
C1442 C 0.53525 0.53127 0.56504 0.0
C1443 C 0.54147 0.48765 0.54144 0.0
O1444 O 0.49429 0.50473 0.52664 0.0
O1445 O 0.49856 0.50923 0.49817 0.0
O1446 O 0.54326 0.52388 0.51144 0.0
O1447 O 0.53039 0.49722 0.49847 0.0
O1448 O 0.52074 0.54332 0.51951 0.0
O1449 O 0.55006 0.55667 0.52984 0.0
O1450 O 0.57994 0.53484 0.52782 0.0
O1451 O 0.58095 0.54084 0.55825 0.0
O1452 O 0.53223 0.5251 0.54758 0.0
O1453 O 0.55158 0.53936 0.56867 0.0
O1454 O 0.55533 0.50104 0.54132 0.0
O1455 O 0.52546 0.48973 0.53529 0.0
H1456 H 0.48381 0.53234 0.54066 0.0
H1457 H 0.47253 0.56104 0.53984 0.0
H1458 H 0.45749 0.54729 0.4791 0.0
H1459 H 0.46851 0.51811 0.47994 0.0
H1460 H 0.58498 0.50203 0.52492 0.0
H1461 H 0.60149 0.47791 0.53104 0.0
H1462 H 0.6357 0.51622 0.57668 0.0
H1463 H 0.61888 0.54078 0.57056 0.0
Tb1464 Tb 0.05516 0.52449 0.0268 0.0
Tb1465 Tb 0.0175 0.52136 0.0384 0.0
C1466 C 0.08675 0.5226 0.02609 0.0
C1467 C 0.10006 0.51064 0.02935 0.0
C1468 C 0.10345 0.50297 0.04623 0.0
C1469 C 0.11701 0.49289 0.04895 0.0
C1470 C 0.12761 0.49033 0.03494 0.0
C1471 C 0.12383 0.49772 0.01796 0.0
C1472 C 0.11034 0.50769 0.01525 0.0
C1473 C 0.03118 0.5299 0.99722 0.0
C1474 C 0.02945 0.48427 0.02264 0.0
C1475 C 0.98602 0.52375 0.03891 0.0
C1476 C 0.97321 0.53625 0.0351 0.0
C1477 C 0.96396 0.53588 0.01686 0.0
C1478 C 0.95059 0.54612 0.01404 0.0
C1479 C 0.94585 0.5569 0.0294 0.0
C1480 C 0.95536 0.55745 0.04757 0.0
C1481 C 0.96875 0.54732 0.05035 0.0
C1482 C 0.04141 0.5163 0.06811 0.0
C1483 C 0.04341 0.56137 0.04297 0.0
O1484 O 0.08126 0.53088 0.04064 0.0
O1485 O 0.07423 0.51653 0.01166 0.0
O1486 O 0.02931 0.52654 0.01394 0.0
O1487 O 0.04778 0.53108 0.9975 0.0
O1488 O 0.04559 0.49415 0.0248 0.0
O1489 O 0.01599 0.49213 0.02575 0.0
O1490 O 0.99135 0.51476 0.02464 0.0
O1491 O 0.99857 0.52978 0.05333 0.0
O1492 O 0.04338 0.51951 0.05135 0.0
O1493 O 0.0248 0.51506 0.06777 0.0
O1494 O 0.02715 0.55173 0.04018 0.0
O1495 O 0.05686 0.5534 0.04024 0.0
H1496 H 0.09581 0.50495 0.05741 0.0
H1497 H 0.11948 0.48754 0.06227 0.0
H1498 H 0.13134 0.49582 1.00663 0.0
H1499 H 0.10809 0.51338 1.00208 0.0
H1500 H 0.96679 0.52736 1.00476 0.0
H1501 H 0.94389 0.54545 0.99976 0.0
H1502 H 0.9521 0.56519 0.0599 0.0
H1503 H 0.9753 0.54774 0.06467 0.0
H1504 H 0.99782 0.18653 0.91817 0.0
H1505 H 1.00132 0.15804 0.9322 0.0
H1506 H 0.03581 0.19216 0.98018 0.0
H1507 H 0.03212 0.22065 0.96643 0.0
H1508 H 0.04837 0.16009 0.96569 0.0
H1509 H 0.99532 0.17444 0.98443 0.0
H1510 H 0.96572 0.18077 0.97798 0.0
H1511 H 0.94798 0.12619 0.94456 0.0
H1512 H 0.97752 0.11966 0.95058 0.0
H1513 H 0.05444 0.09176 0.02751 0.0
H1514 H 0.05006 0.11975 0.01329 0.0
H1515 H 1.0066 0.08625 0.97374 0.0
H1516 H 0.01052 0.05842 0.98842 0.0
H1517 H 0.99827 0.11771 0.98292 0.0
H1518 H 0.04862 0.10239 0.96145 0.0
H1519 H 0.07774 0.09449 0.96378 0.0
H1520 H 0.10001 0.14814 0.99745 0.0
H1521 H 0.07095 0.15623 0.99554 0.0
C1522 C 1.00616 0.18799 0.93171 0.0
C1523 C 0.01464 0.206 0.94113 0.0
C1524 C 1.00812 0.17164 0.93977 0.0
C1525 C 0.0188 0.17279 0.95738 0.0
C1526 C 0.02751 0.19075 0.96663 0.0
C1527 C 0.02532 0.2071 0.95873 0.0
C1528 C 0.02085 0.15541 0.96623 0.0
C1529 C 0.03744 0.15098 0.9697 0.0
C1530 C 1.00657 0.14297 0.97086 0.0
C1531 C 0.9887 0.14668 0.96771 0.0
C1532 C 0.98513 0.16384 0.97559 0.0
C1533 C 0.96835 0.16746 0.97204 0.0
C1534 C 0.955 0.15395 0.96077 0.0
C1535 C 0.95833 0.13669 0.95323 0.0
C1536 C 0.9751 0.13302 0.95671 0.0
C1537 C 0.04387 0.09035 0.01587 0.0
C1538 C 0.03281 0.07272 0.00926 0.0
C1539 C 0.04143 0.10642 0.00758 0.0
C1540 C 0.02811 0.10533 0.99209 0.0
C1541 C 0.01692 0.08774 0.98566 0.0
C1542 C 0.01919 0.07173 0.99413 0.0
C1543 C 0.02589 0.12239 0.98261 0.0
C1544 C 0.00926 0.12678 0.97898 0.0
C1545 C 0.04008 0.13454 0.97735 0.0
C1546 C 0.05759 0.12982 0.97852 0.0
C1547 C 0.05971 0.11243 0.96947 0.0
C1548 C 0.0762 0.10793 0.9707 0.0
C1549 C 0.09071 0.12079 0.98081 0.0
C1550 C 0.08875 0.13819 0.98966 0.0
C1551 C 0.07228 0.14274 0.9885 0.0
H1552 H 0.10347 0.11729 0.98174 0.0
H1553 H 0.94208 0.15691 0.95788 0.0
H1554 H 0.10807 0.81008 0.19829 0.0
H1555 H 0.13611 0.80917 0.21699 0.0
H1556 H 0.15071 0.77974 0.1681 0.0
H1557 H 0.12274 0.78068 0.14932 0.0
H1558 H 0.15745 0.76289 0.19987 0.0
H1559 H 0.16927 0.82577 0.18383 0.0
H1560 H 0.16398 0.85781 0.1819 0.0
H1561 H 0.16796 0.86827 0.24247 0.0
H1562 H 0.17307 0.8362 0.24474 0.0
H1563 H 0.24477 0.76571 0.24314 0.0
H1564 H 0.21836 0.76762 0.2221 0.0
H1565 H 0.20744 0.80905 0.26431 0.0
H1566 H 0.23468 0.80848 0.28434 0.0
H1567 H 0.19884 0.81969 0.23439 0.0
H1568 H 0.1852 0.75736 0.25156 0.0
H1569 H 0.18969 0.72523 0.25475 0.0
H1570 H 0.18766 0.71319 0.19454 0.0
H1571 H 0.18334 0.74532 0.19102 0.0
C1572 C 0.11734 0.80366 0.19141 0.0
C1573 C 0.1131 0.79559 0.17219 0.0
C1574 C 0.13342 0.80312 0.20216 0.0
C1575 C 0.14568 0.79441 0.19403 0.0
C1576 C 0.14155 0.78653 0.17479 0.0
C1577 C 0.12555 0.78722 0.16399 0.0
C1578 C 0.1626 0.79314 0.20567 0.0
C1579 C 0.1666 0.77533 0.20727 0.0
C1580 C 0.17444 0.80924 0.21578 0.0
C1581 C 0.17139 0.82853 0.21443 0.0
C1582 C 0.16889 0.83485 0.19672 0.0
C1583 C 0.16595 0.85303 0.19557 0.0
C1584 C 0.16559 0.86505 0.21205 0.0
C1585 C 0.16822 0.85894 0.22972 0.0
C1586 C 0.17115 0.84077 0.23094 0.0
C1587 C 0.23684 0.77536 0.24781 0.0
C1588 C 0.24203 0.78708 0.26537 0.0
C1589 C 0.22146 0.77625 0.23586 0.0
C1590 C 0.21039 0.78824 0.24153 0.0
C1591 C 0.21555 0.79971 0.25928 0.0
C1592 C 0.23118 0.7993 0.27088 0.0
C1593 C 0.19372 0.78933 0.22904 0.0
C1594 C 0.18974 0.80714 0.22717 0.0
C1595 C 0.18173 0.77317 0.21898 0.0
C1596 C 0.1841 0.75379 0.22105 0.0
C1597 C 0.18578 0.74788 0.23902 0.0
C1598 C 0.1883 0.72967 0.24088 0.0
C1599 C 0.18901 0.7172 0.22486 0.0
C1600 C 0.18714 0.72288 0.20694 0.0
C1601 C 0.18463 0.74108 0.205 0.0
H1602 H 0.19097 0.70311 0.22634 0.0
H1603 H 0.16332 0.87912 0.21113 0.0
H1604 H 0.51051 0.8041 0.46097 0.0
H1605 H 0.51279 0.8352 0.47946 0.0
H1606 H 0.52348 0.86165 0.43063 0.0
H1607 H 0.52126 0.83088 0.41218 0.0
H1608 H 0.5444 0.88099 0.46154 0.0
H1609 H 0.48368 0.85638 0.44305 0.0
H1610 H 0.4563 0.83312 0.43998 0.0
H1611 H 0.46043 0.83874 0.50058 0.0
H1612 H 0.48805 0.86178 0.50403 0.0
H1613 H 0.49902 0.96168 0.49933 0.0
H1614 H 0.49648 0.92919 0.48413 0.0
H1615 H 0.54696 0.92791 0.51458 0.0
H1616 H 0.54992 0.96058 0.52886 0.0
H1617 H 0.49518 0.89582 0.49238 0.0
H1618 H 0.56866 0.90153 0.49039 0.0
H1619 H 0.59459 0.92608 0.49031 0.0
H1620 H 0.56232 0.96032 0.46417 0.0
H1621 H 0.53623 0.9359 0.4639 0.0
C1622 C 0.51352 0.81654 0.45422 0.0
C1623 C 0.51567 0.81484 0.43501 0.0
C1624 C 0.51471 0.83435 0.46479 0.0
C1625 C 0.51819 0.8509 0.45646 0.0
C1626 C 0.52081 0.84921 0.43747 0.0
C1627 C 0.51948 0.83149 0.42689 0.0
C1628 C 0.5188 0.86997 0.46723 0.0
C1629 C 0.53367 0.88416 0.46838 0.0
C1630 C 0.50467 0.87442 0.4758 0.0
C1631 C 0.48804 0.86064 0.47381 0.0
C1632 C 0.47883 0.85253 0.45573 0.0
C1633 C 0.46325 0.83941 0.45392 0.0
C1634 C 0.45664 0.83443 0.47007 0.0
C1635 C 0.46558 0.84259 0.48808 0.0
C1636 C 0.48121 0.85568 0.48998 0.0
C1637 C 0.5095 0.95439 0.5029 0.0
C1638 C 0.52475 0.96384 0.51516 0.0
C1639 C 0.50804 0.93576 0.49418 0.0
C1640 C 0.52171 0.92603 0.49771 0.0
C1641 C 0.53643 0.93512 0.51099 0.0
C1642 C 0.53807 0.95384 0.51931 0.0
C1643 C 0.52094 0.90682 0.487 0.0
C1644 C 0.50601 0.89262 0.48574 0.0
C1645 C 0.53483 0.90248 0.47785 0.0
C1646 C 0.55049 0.91695 0.47728 0.0
C1647 C 0.56712 0.91425 0.48451 0.0
C1648 C 0.58183 0.92815 0.48456 0.0
C1649 C 0.58009 0.94477 0.47729 0.0
C1650 C 0.56364 0.94747 0.46985 0.0
C1651 C 0.54889 0.9336 0.46974 0.0
H1652 H 0.59149 0.95554 0.4774 0.0
H1653 H 0.44456 0.82429 0.46864 0.0
H1654 H 0.49315 0.2866 0.63767 0.0
H1655 H 0.46954 0.28469 0.65638 0.0
H1656 H 0.50468 0.2785 0.7054 0.0
H1657 H 0.5286 0.28061 0.68672 0.0
H1658 H 0.47255 0.25201 0.69904 0.0
H1659 H 0.49191 0.31898 0.70393 0.0
H1660 H 0.49991 0.34896 0.69157 0.0
H1661 H 0.44851 0.3407 0.65977 0.0
H1662 H 0.44028 0.31053 0.67173 0.0
H1663 H 0.41263 0.25928 0.76345 0.0
H1664 H 0.43782 0.26283 0.74723 0.0
H1665 H 0.40864 0.28255 0.70128 0.0
H1666 H 0.3838 0.28047 0.71813 0.0
H1667 H 0.43888 0.30261 0.70697 0.0
H1668 H 0.41922 0.23586 0.69952 0.0
H1669 H 0.41033 0.20485 0.70958 0.0
H1670 H 0.46067 0.2111 0.74324 0.0
H1671 H 0.46979 0.24227 0.73356 0.0
C1672 C 0.49598 0.28497 0.65248 0.0
C1673 C 0.51292 0.28384 0.66063 0.0
C1674 C 0.48239 0.28391 0.6632 0.0
C1675 C 0.48523 0.28152 0.68239 0.0
C1676 C 0.5021 0.28037 0.69064 0.0
C1677 C 0.51582 0.2817 0.67996 0.0
C1678 C 0.47047 0.27992 0.69358 0.0
C1679 C 0.46537 0.2632 0.70106 0.0
C1680 C 0.46064 0.29421 0.69571 0.0
C1681 C 0.46553 0.31241 0.6886 0.0
C1682 C 0.48236 0.32348 0.69418 0.0
C1683 C 0.48692 0.34053 0.68727 0.0
C1684 C 0.47473 0.34671 0.67486 0.0
C1685 C 0.45794 0.33589 0.66937 0.0
C1686 C 0.45331 0.31882 0.67623 0.0
C1687 C 0.4115 0.26457 0.74999 0.0
C1688 C 0.39589 0.26951 0.74225 0.0
C1689 C 0.42598 0.26632 0.7405 0.0
C1690 C 0.42526 0.27266 0.72271 0.0
C1691 C 0.4097 0.27754 0.71491 0.0
C1692 C 0.39529 0.27606 0.72452 0.0
C1693 C 0.44075 0.27458 0.71244 0.0
C1694 C 0.44603 0.29138 0.70507 0.0
C1695 C 0.45055 0.26021 0.71012 0.0
C1696 C 0.44512 0.24148 0.71597 0.0
C1697 C 0.42835 0.23068 0.70918 0.0
C1698 C 0.42328 0.21307 0.71479 0.0
C1699 C 0.43491 0.20604 0.72709 0.0
C1700 C 0.45166 0.21658 0.73375 0.0
C1701 C 0.45679 0.23421 0.72819 0.0
H1702 H 0.43096 0.1924 0.73142 0.0
H1703 H 0.47829 0.35991 0.66952 0.0
H1704 H 0.03426 0.79508 0.65156 0.0
H1705 H 0.03458 0.82115 0.63333 0.0
H1706 H 0.05504 0.86069 0.68418 0.0
H1707 H 0.0549 0.83458 0.70276 0.0
H1708 H 0.0287 0.87166 0.65674 0.0
H1709 H 0.08315 0.8517 0.66087 0.0
H1710 H 0.10191 0.82823 0.65963 0.0
H1711 H 0.08115 0.80989 0.60075 0.0
H1712 H 0.062 0.833 0.60173 0.0
H1713 H 0.05168 0.94185 0.59849 0.0
H1714 H 0.05494 0.92211 0.62349 0.0
H1715 H 0.04208 0.8725 0.58141 0.0
H1716 H 0.03958 0.89211 0.5563 0.0
H1717 H 0.06807 0.87018 0.60865 0.0
H1718 H 0.01141 0.88701 0.6055 0.0
H1719 H 0.9912 0.90898 0.60668 0.0
H1720 H 0.01564 0.93274 0.66346 0.0
H1721 H 0.03616 0.91106 0.66252 0.0
C1722 C 0.03859 0.80929 0.65902 0.0
C1723 C 0.04486 0.8127 0.67861 0.0
C1724 C 0.03875 0.82417 0.64854 0.0
C1725 C 0.04513 0.84274 0.65741 0.0
C1726 C 0.05016 0.84639 0.67713 0.0
C1727 C 0.05008 0.83145 0.68769 0.0
C1728 C 0.04782 0.85795 0.64564 0.0
C1729 C 0.03757 0.87165 0.64649 0.0
C1730 C 0.05928 0.85768 0.63219 0.0
C1731 C 0.07104 0.844 0.63142 0.0
C1732 C 0.08249 0.84257 0.64769 0.0
C1733 C 0.0932 0.82934 0.64703 0.0
C1734 C 0.0927 0.81756 0.63013 0.0
C1735 C 0.08152 0.81902 0.61383 0.0
C1736 C 0.07074 0.8322 0.61443 0.0
C1737 C 0.0499 0.92676 0.59453 0.0
C1738 C 0.04527 0.9185 0.57541 0.0
C1739 C 0.05157 0.91552 0.60885 0.0
C1740 C 0.04843 0.89587 0.60431 0.0
C1741 C 0.04446 0.88765 0.58522 0.0
C1742 C 0.04289 0.89886 0.5709 0.0
C1743 C 0.04859 0.88366 0.61934 0.0
C1744 C 0.05944 0.87049 0.61913 0.0
C1745 C 0.03766 0.88444 0.63335 0.0
C1746 C 0.02541 0.89754 0.63388 0.0
C1747 C 0.01256 0.89702 0.61818 0.0
C1748 C 1.00102 0.90938 0.61882 0.0
C1749 C 1.00211 0.92221 0.63515 0.0
C1750 C 0.01478 0.92275 0.65085 0.0
C1751 C 0.02637 0.91044 0.65027 0.0
H1752 H 0.99316 0.93177 0.63562 0.0
H1753 H 0.101 0.80732 0.62965 0.0
H1754 H 0.47449 0.82511 0.89296 0.0
H1755 H 0.44499 0.82448 0.87688 0.0
H1756 H 0.45075 0.78069 0.83369 0.0
H1757 H 0.48059 0.78254 0.84897 0.0
H1758 H 0.43482 0.80143 0.8171 0.0
H1759 H 0.42685 0.77344 0.87302 0.0
H1760 H 0.43037 0.77128 0.90724 0.0
H1761 H 0.40699 0.81943 0.91715 0.0
H1762 H 0.40353 0.82201 0.883 0.0
H1763 H 0.34732 0.75981 0.78327 0.0
H1764 H 0.37686 0.76639 0.80058 0.0
H1765 H 0.36864 0.81881 0.82859 0.0
H1766 H 0.33881 0.81233 0.81133 0.0
H1767 H 0.38529 0.79677 0.85289 0.0
H1768 H 0.39073 0.82024 0.79324 0.0
H1769 H 0.38529 0.81688 0.75832 0.0
H1770 H 0.4124 0.77104 0.75503 0.0
H1771 H 0.41776 0.77392 0.78991 0.0
C1772 C 0.46938 0.81555 0.87992 0.0
C1773 C 0.47973 0.80419 0.87186 0.0
C1774 C 0.45251 0.81502 0.87084 0.0
C1775 C 0.44545 0.80231 0.85418 0.0
C1776 C 0.45585 0.79072 0.84641 0.0
C1777 C 0.47286 0.79172 0.85513 0.0
C1778 C 0.42726 0.80089 0.84478 0.0
C1779 C 0.42407 0.8004 0.82501 0.0
C1780 C 0.41306 0.79956 0.85497 0.0
C1781 C 0.41512 0.79805 0.8755 0.0
C1782 C 0.42258 0.78365 0.88252 0.0
C1783 C 0.42454 0.78234 0.9019 0.0
C1784 C 0.41896 0.79525 0.91437 0.0
C1785 C 0.41135 0.80947 0.90748 0.0
C1786 C 0.40937 0.81085 0.88812 0.0
C1787 C 0.35169 0.77275 0.79313 0.0
C1788 C 0.34071 0.78562 0.79585 0.0
C1789 C 0.36862 0.77648 0.80297 0.0
C1790 C 0.37493 0.79317 0.81564 0.0
C1791 C 0.36396 0.80589 0.81877 0.0
C1792 C 0.34697 0.80219 0.80886 0.0
C1793 C 0.39311 0.79729 0.82543 0.0
C1794 C 0.39622 0.79823 0.84519 0.0
C1795 C 0.40719 0.79846 0.81519 0.0
C1796 C 0.40455 0.79723 0.79421 0.0
C1797 C 0.39548 0.8094 0.78507 0.0
C1798 C 0.3924 0.80757 0.76527 0.0
C1799 C 0.39845 0.79372 0.75445 0.0
C1800 C 0.40769 0.78175 0.76341 0.0
C1801 C 0.41079 0.7835 0.7832 0.0
H1802 H 0.39599 0.79227 0.73913 0.0
H1803 H 0.42048 0.79421 0.92936 0.0
H1804 H 0.54497 0.22352 0.1254 0.0
H1805 H 0.54655 0.19774 0.10161 0.0
H1806 H 0.50535 0.16189 0.12189 0.0
H1807 H 0.50592 0.18711 0.14767 0.0
H1808 H 0.52778 0.14386 0.11867 0.0
H1809 H 0.50284 0.17551 0.06018 0.0
H1810 H 0.50504 0.20189 0.04127 0.0
H1811 H 0.56071 0.21125 0.05316 0.0
H1812 H 0.55882 0.18434 0.07117 0.0
H1813 H 0.50267 0.06638 0.04807 0.0
H1814 H 0.50382 0.0967 0.06721 0.0
H1815 H 0.55212 0.11933 0.049 0.0
H1816 H 0.55083 0.08882 0.02961 0.0
H1817 H 0.53099 0.14486 0.05047 0.0
H1818 H 0.55384 0.10598 0.09086 0.0
H1819 H 0.55603 0.07802 0.10651 0.0
H1820 H 0.50994 0.08301 0.13033 0.0
H1821 H 0.50727 0.11082 0.11454 0.0
C1822 C 0.53607 0.21016 0.12448 0.0
C1823 C 0.52513 0.20725 0.13808 0.0
C1824 C 0.5367 0.19544 0.11052 0.0
C1825 C 0.52573 0.17773 0.10927 0.0
C1826 C 0.51406 0.17529 0.12241 0.0
C1827 C 0.51419 0.18971 0.13706 0.0
C1828 C 0.52774 0.16107 0.09619 0.0
C1829 C 0.52803 0.14412 0.10367 0.0
C1830 C 0.52961 0.1614 0.07685 0.0
C1831 C 0.53068 0.17852 0.06764 0.0
C1832 C 0.51552 0.18346 0.05902 0.0
C1833 C 0.51671 0.19832 0.04829 0.0
C1834 C 0.53297 0.2085 0.04641 0.0
C1835 C 0.54812 0.20354 0.05484 0.0
C1836 C 0.54699 0.18838 0.06513 0.0
C1837 C 0.5133 0.07801 0.04787 0.0
C1838 C 0.52656 0.07558 0.03732 0.0
C1839 C 0.51404 0.09521 0.05889 0.0
C1840 C 0.52818 0.11014 0.05972 0.0
C1841 C 0.54112 0.10794 0.04854 0.0
C1842 C 0.54036 0.09065 0.03746 0.0
C1843 C 0.52957 0.12773 0.0728 0.0
C1844 C 0.53032 0.14471 0.06543 0.0
C1845 C 0.52909 0.12755 0.09233 0.0
C1846 C 0.5303 0.11045 0.10141 0.0
C1847 C 0.54404 0.101 0.09925 0.0
C1848 C 0.5454 0.0852 0.10819 0.0
C1849 C 0.53318 0.07881 0.11947 0.0
C1850 C 0.51943 0.08803 0.12164 0.0
C1851 C 0.51799 0.10382 0.11269 0.0
H1852 H 0.53442 0.06677 0.12662 0.0
H1853 H 0.53383 0.22008 0.03822 0.0
H1854 H 0.07482 0.33575 0.35215 0.0
H1855 H 0.10225 0.33011 0.34319 0.0
H1856 H 0.09805 0.28095 0.37157 0.0
H1857 H 0.07076 0.28671 0.38101 0.0
H1858 H 0.13187 0.29909 0.37466 0.0
H1859 H 0.0827 0.27598 0.32525 0.0
H1860 H 0.05646 0.27853 0.30384 0.0
H1861 H 0.0867 0.3214 0.27902 0.0
H1862 H 0.11313 0.31922 0.30048 0.0
H1863 H 0.17834 0.24438 0.32014 0.0
H1864 H 0.15613 0.25628 0.33574 0.0
H1865 H 0.16297 0.30501 0.30678 0.0
H1866 H 0.18533 0.2933 0.29126 0.0
H1867 H 0.12892 0.28884 0.30475 0.0
H1868 H 0.17914 0.309 0.35313 0.0
H1869 H 0.2048 0.30491 0.37456 0.0
H1870 H 0.17216 0.26579 0.40119 0.0
H1871 H 0.14631 0.26943 0.37972 0.0
C1872 C 0.07989 0.32395 0.35682 0.0
C1873 C 0.07047 0.31149 0.36702 0.0
C1874 C 0.09556 0.32075 0.35168 0.0
C1875 C 0.10193 0.30488 0.35636 0.0
C1876 C 0.09329 0.29323 0.36776 0.0
C1877 C 0.07767 0.29653 0.3731 0.0
C1878 C 0.11647 0.29933 0.34766 0.0
C1879 C 0.13122 0.29672 0.35939 0.0
C1880 C 0.11563 0.29644 0.32773 0.0
C1881 C 0.09984 0.29757 0.31459 0.0
C1882 C 0.08373 0.28603 0.3153 0.0
C1883 C 0.06882 0.2874 0.30315 0.0
C1884 C 0.06989 0.30018 0.29011 0.0
C1885 C 0.08589 0.31154 0.28915 0.0
C1886 C 0.10084 0.31022 0.30128 0.0
C1887 C 0.17522 0.25771 0.31723 0.0
C1888 C 0.18357 0.26791 0.30448 0.0
C1889 C 0.16256 0.26449 0.32616 0.0
C1890 C 0.15809 0.28163 0.32258 0.0
C1891 C 0.16627 0.29176 0.30974 0.0
C1892 C 0.17895 0.285 0.3008 0.0
C1893 C 0.14442 0.28864 0.33172 0.0
C1894 C 0.12972 0.29142 0.32004 0.0
C1895 C 0.14529 0.29147 0.35166 0.0
C1896 C 0.1608 0.28937 0.3647 0.0
C1897 C 0.17744 0.29942 0.36346 0.0
C1898 C 0.19202 0.2972 0.37563 0.0
C1899 C 0.19012 0.28507 0.3892 0.0
C1900 C 0.17362 0.27517 0.39066 0.0
C1901 C 0.15899 0.27732 0.37851 0.0
H1902 H 0.20142 0.28336 0.3986 0.0
H1903 H 0.05833 0.30124 0.28073 0.0
H1904 H 0.93296 0.98231 0.18583 0.0
H1905 H 0.94601 0.98617 0.15698 0.0
H1906 H 0.98859 0.0277 0.18953 0.0
H1907 H 0.97601 0.02343 0.21847 0.0
H1908 H 0.96615 0.03522 0.15045 0.0
H1909 H 1.00192 0.99567 0.1807 0.0
H1910 H 1.00707 0.96729 0.19423 0.0
H1911 H 0.9818 0.93263 0.14201 0.0
H1912 H 0.97616 0.9608 0.12831 0.0
H1913 H 0.02704 0.05507 0.08783 0.0
H1914 H 0.01127 0.0494 0.11422 0.0
H1915 H 0.99065 0.9921 0.08773 0.0
H1916 H 1.00689 0.99765 0.06151 0.0
H1917 H 1.00001 0.99117 0.1228 0.0
H1918 H 0.9651 0.02786 0.09106 0.0
H1919 H 0.95762 0.0544 0.0756 0.0
H1920 H 0.97772 0.09222 0.12736 0.0
H1921 H 0.98552 0.06595 0.14309 0.0
C1922 C 0.94515 0.9922 0.18687 0.0
C1923 C 0.95344 1.00251 0.20454 0.0
C1924 C 0.95262 0.99436 0.17035 0.0
C1925 C 0.96835 1.00718 0.17104 0.0
C1926 C 0.97651 0.01766 0.18861 0.0
C1927 C 0.96929 0.01517 0.20517 0.0
C1928 C 0.97609 0.01004 0.15343 0.0
C1929 C 0.97373 0.02572 0.1445 0.0
C1930 C 0.98539 0.99727 0.14517 0.0
C1931 C 0.98829 0.98032 0.15363 0.0
C1932 C 0.99715 0.98198 0.17224 0.0
C1933 C 1.00024 0.96593 0.1799 0.0
C1934 C 0.99467 0.94815 0.16903 0.0
C1935 C 0.98602 0.94639 0.15046 0.0
C1936 C 0.98285 0.96239 0.14275 0.0
C1937 C 0.01898 0.04131 0.08749 0.0
C1938 C 0.01823 0.02684 0.07247 0.0
C1939 C 0.00985 0.03808 0.10261 0.0
C1940 C 0.99946 0.02034 0.10308 0.0
C1941 C 0.99848 1.00594 0.08787 0.0
C1942 C 1.00771 0.00915 0.07277 0.0
C1943 C 0.99038 0.01662 0.11979 0.0
C1944 C 0.99241 1.00073 0.12859 0.0
C1945 C 0.98044 0.02901 0.12769 0.0
C1946 C 0.97606 0.04494 0.11821 0.0
C1947 C 0.96809 0.04186 0.09911 0.0
C1948 C 0.96375 0.05685 0.0903 0.0
C1949 C 0.96723 0.07499 0.10048 0.0
C1950 C 0.97505 0.07817 0.11949 0.0
C1951 C 0.97941 0.06323 0.12836 0.0
H1952 H 0.96382 0.08656 0.09365 0.0
H1953 H 0.99713 0.93575 0.17497 0.0
H1954 H 0.28394 0.64153 0.47349 0.0
H1955 H 0.26457 0.65562 0.45269 0.0
H1956 H 0.28372 0.70966 0.48745 0.0
H1957 H 0.30274 0.69566 0.50859 0.0
H1958 H 0.2491 0.7042 0.47622 0.0
H1959 H 0.30005 0.69716 0.4471 0.0
H1960 H 0.32035 0.67932 0.4338 0.0
H1961 H 0.27821 0.64563 0.39315 0.0
H1962 H 0.25763 0.66314 0.40639 0.0
H1963 H 0.25707 0.77581 0.41957 0.0
H1964 H 0.25379 0.75265 0.44124 0.0
H1965 H 0.2305 0.70926 0.39423 0.0
H1966 H 0.23501 0.73197 0.37232 0.0
H1967 H 0.2593 0.7025 0.40964 0.0
H1968 H 0.21016 0.71685 0.43388 0.0
H1969 H 0.19085 0.73628 0.44672 0.0
H1970 H 0.22955 0.75783 0.49597 0.0
H1971 H 0.24922 0.73878 0.48331 0.0
C1972 C 0.28403 0.6564 0.47674 0.0
C1973 C 0.29503 0.66749 0.49263 0.0
C1974 C 0.27288 0.66441 0.46488 0.0
C1975 C 0.27276 0.68369 0.4685 0.0
C1976 C 0.28351 0.69471 0.48449 0.0
C1977 C 0.29452 0.68671 0.49645 0.0
C1978 C 0.26258 0.69287 0.45494 0.0
C1979 C 0.25125 0.7039 0.46162 0.0
C1980 C 0.26493 0.69185 0.43576 0.0
C1981 C 0.27728 0.68124 0.42792 0.0
C1982 C 0.2951 0.68583 0.43545 0.0
C1983 C 0.30666 0.6758 0.4279 0.0
C1984 C 0.30056 0.6613 0.41269 0.0
C1985 C 0.2829 0.65682 0.40497 0.0
C1986 C 0.27129 0.66678 0.41249 0.0
C1987 C 0.25084 0.76142 0.41386 0.0
C1988 C 0.24687 0.75563 0.39416 0.0
C1989 C 0.24868 0.7482 0.42634 0.0
C1990 C 0.24213 0.7291 0.41929 0.0
C1991 C 0.23572 0.72388 0.39989 0.0
C1992 C 0.23821 0.73698 0.38737 0.0
C1993 C 0.24619 0.71457 0.43099 0.0
C1994 C 0.25651 0.70246 0.42399 0.0
C1995 C 0.24297 0.7148 0.44986 0.0
C1996 C 0.23122 0.72639 0.45758 0.0
C1997 C 0.21462 0.72584 0.44738 0.0
C1998 C 0.2036 0.73677 0.45465 0.0
C1999 C 0.20897 0.74829 0.47214 0.0
C2000 C 0.22539 0.74889 0.48242 0.0
C2001 C 0.23648 0.73799 0.47522 0.0
H2002 H 0.20041 0.75674 0.47774 0.0
H2003 H 0.30953 0.65357 0.40685 0.0
H2004 H 0.60729 0.99407 0.74246 0.0
H2005 H 0.59166 0.99608 0.71124 0.0
H2006 H 0.64037 0.01383 0.69199 0.0
H2007 H 0.65604 0.0124 0.72361 0.0
H2008 H 0.62019 0.03216 0.67499 0.0
H2009 H 0.6095 0.96619 0.678 0.0
H2010 H 0.60028 0.93692 0.69114 0.0
H2011 H 0.54871 0.94795 0.68944 0.0
H2012 H 0.55768 0.97742 0.67649 0.0
H2013 H 0.57659 0.02119 0.5762 0.0
H2014 H 0.59504 0.01862 0.60601 0.0
H2015 H 0.54918 1.00307 0.63121 0.0
H2016 H 0.53103 1.00539 0.60176 0.0
H2017 H 0.56943 0.98286 0.6441 0.0
H2018 H 0.58098 0.04958 0.64142 0.0
H2019 H 0.59059 0.07816 0.62731 0.0
H2020 H 0.64112 0.06465 0.62717 0.0
H2021 H 0.63173 0.03586 0.64108 0.0
C2022 C 0.61483 0.99823 0.73163 0.0
C2023 C 0.63323 1.00279 0.73609 0.0
C2024 C 0.60572 0.9993 0.71337 0.0
C2025 C 0.61442 1.00476 0.69825 0.0
C2026 C 0.63285 0.00948 0.70278 0.0
C2027 C 0.64198 1.00851 0.72113 0.0
C2028 C 0.60442 1.00573 0.67818 0.0
C2029 C 0.60926 0.02111 0.6683 0.0
C2030 C 0.58975 0.99177 0.66865 0.0
C2031 C 0.58431 0.9741 0.67646 0.0
C2032 C 0.59623 0.96244 0.68055 0.0
C2033 C 0.59104 0.9458 0.68795 0.0
C2034 C 0.57393 0.94061 0.69118 0.0
C2035 C 0.56196 0.95201 0.68696 0.0
C2036 C 0.56709 0.96867 0.67958 0.0
C2037 C 0.57038 0.01716 0.58801 0.0
C2038 C 0.55197 0.01353 0.58602 0.0
C2039 C 0.58107 0.01581 0.60542 0.0
C2040 C 0.57393 0.0108 0.62175 0.0
C2041 C 0.55556 1.00693 0.61944 0.0
C2042 C 0.54499 1.00834 0.60224 0.0
C2043 C 0.58502 0.00939 0.64104 0.0
C2044 C 0.58037 0.99389 0.65079 0.0
C2045 C 0.5999 0.02316 0.65033 0.0
C2046 C 0.6056 0.04048 0.6421 0.0
C2047 C 0.5941 0.05265 0.63827 0.0
C2048 C 0.59952 0.06889 0.63032 0.0
C2049 C 0.61644 0.07319 0.6263 0.0
C2050 C 0.62801 0.06128 0.63027 0.0
C2051 C 0.62265 0.04501 0.63819 0.0
H2052 H 0.6206 0.08576 0.62014 0.0
H2053 H 0.56994 0.92772 0.6969 0.0
H2054 H 0.29223 0.39054 0.97458 0.0
H2055 H 0.28959 0.37175 0.94342 0.0
H2056 H 0.31188 0.32966 0.96969 0.0
H2057 H 0.31406 0.34818 1.00111 0.0
H2058 H 0.32718 0.34501 0.93555 0.0
H2059 H 0.27385 0.31599 0.95517 0.0
H2060 H 0.24625 0.31629 0.96734 0.0
H2061 H 0.22772 0.34264 0.92043 0.0
H2062 H 0.25535 0.34277 0.90814 0.0
H2063 H 0.31481 0.28223 0.84816 0.0
H2064 H 0.31728 0.2961 0.88139 0.0
H2065 H 0.27531 0.32449 0.86592 0.0
H2066 H 0.2722 0.30983 0.83315 0.0
H2067 H 0.27047 0.31416 0.89647 0.0
H2068 H 0.32229 0.34631 0.87747 0.0
H2069 H 0.34992 0.34951 0.86478 0.0
H2070 H 0.37148 0.32183 0.90908 0.0
H2071 H 0.34388 0.31825 0.9219 0.0
C2072 C 0.29639 0.37717 0.9738 0.0
C2073 C 0.30325 0.37085 0.99045 0.0
C2074 C 0.2949 0.36645 0.95593 0.0
C2075 C 0.30059 0.34929 0.95411 0.0
C2076 C 0.30742 0.34286 0.97068 0.0
C2077 C 0.30852 0.35339 0.98867 0.0
C2078 C 0.29952 0.33833 0.93486 0.0
C2079 C 0.31482 0.33796 0.92709 0.0
C2080 C 0.28338 0.3297 0.92351 0.0
C2081 C 0.26674 0.32957 0.93085 0.0
C2082 C 0.26396 0.32202 0.94755 0.0
C2083 C 0.2483 0.32207 0.95445 0.0
C2084 C 0.23526 0.32952 0.94469 0.0
C2085 C 0.23784 0.33689 0.92799 0.0
C2086 C 0.2535 0.3369 0.92104 0.0
C2087 C 0.30612 0.29143 0.85187 0.0
C2088 C 0.2933 0.29484 0.83786 0.0
C2089 C 0.30761 0.29953 0.87095 0.0
C2090 C 0.29668 0.31175 0.87647 0.0
C2091 C 0.28392 0.31513 0.86238 0.0
C2092 C 0.28218 0.30673 0.84347 0.0
C2093 C 0.2982 0.32089 0.89678 0.0
C2094 C 0.28294 0.32103 0.90482 0.0
C2095 C 0.31438 0.32973 0.90819 0.0
C2096 C 0.33096 0.33181 0.9005 0.0
C2097 C 0.33288 0.34078 0.88442 0.0
C2098 C 0.34854 0.34268 0.87721 0.0
C2099 C 0.36243 0.33582 0.88608 0.0
C2100 C 0.3607 0.32709 0.9022 0.0
C2101 C 0.34505 0.32513 0.90945 0.0
H2102 H 0.37454 0.33731 0.88049 0.0
H2103 H 0.22313 0.32954 0.95005 0.0
H2104 H 0.97156 1.00503 0.30402 0.0
H2105 H 0.98855 0.00984 0.33603 0.0
H2106 H 0.9438 0.02104 0.35997 0.0
H2107 H 0.92691 0.01646 0.32833 0.0
H2108 H 0.97215 0.04481 0.37866 0.0
H2109 H 0.95538 0.9778 0.35866 0.0
H2110 H 0.95368 0.94817 0.33751 0.0
H2111 H 0.00944 0.95686 0.34594 0.0
H2112 H 0.01146 0.98669 0.36694 0.0
H2113 H 1.00023 0.99287 0.46417 0.0
H2114 H 0.98804 0.99259 0.43111 0.0
H2115 H 0.0173 0.04895 0.43292 0.0
H2116 H 0.02856 0.0497 0.46648 0.0
H2117 H 0.99868 0.99293 0.40033 0.0
H2118 H 0.99986 0.07147 0.3995 0.0
H2119 H 0.9996 0.10003 0.42136 0.0
H2120 H 0.97066 0.06639 0.45605 0.0
H2121 H 0.97069 0.03761 0.43433 0.0
C2122 C 0.96538 1.0087 0.31608 0.0
C2123 C 0.94776 0.01024 0.31343 0.0
C2124 C 0.97511 0.01137 0.33444 0.0
C2125 C 0.96748 0.01568 0.35058 0.0
C2126 C 0.95009 0.01778 0.34788 0.0
C2127 C 0.94038 0.01505 0.32964 0.0
C2128 C 0.97716 0.01726 0.37035 0.0
C2129 C 0.97804 0.03349 0.38335 0.0
C2130 C 0.98476 1.00251 0.37672 0.0
C2131 C 0.98357 0.98456 0.36418 0.0
C2132 C 0.96728 0.97345 0.35588 0.0
C2133 C 0.96625 0.95662 0.34394 0.0
C2134 C 0.98144 0.95066 0.34034 0.0
C2135 C 0.99768 0.96151 0.34871 0.0
C2136 C 0.99878 0.97838 0.36064 0.0
C2137 C 1.00404 1.00525 0.45756 0.0
C2138 C 0.01532 0.02134 0.46808 0.0
C2139 C 0.99708 1.00506 0.43853 0.0
C2140 C 1.00141 0.02084 0.42926 0.0
C2141 C 0.01318 0.03674 0.43964 0.0
C2142 C 0.01977 0.03712 0.45888 0.0
C2143 C 0.99349 0.0204 0.40889 0.0
C2144 C 0.99296 1.00437 0.39569 0.0
C2145 C 0.98592 0.03521 0.40245 0.0
C2146 C 0.9854 0.0524 0.41537 0.0
C2147 C 0.99336 0.07019 0.41174 0.0
C2148 C 0.99327 0.0864 0.42411 0.0
C2149 C 0.98511 0.08503 0.44008 0.0
C2150 C 0.97699 0.06743 0.44368 0.0
C2151 C 0.97706 0.05115 0.43136 0.0
H2152 H 0.9851 0.09759 0.44967 0.0
H2153 H 0.98063 0.93763 0.3311 0.0
H2154 H 0.33938 0.66894 0.6103 0.0
H2155 H 0.34232 0.68887 0.64085 0.0
H2156 H 0.35377 0.73845 0.61385 0.0
H2157 H 0.35024 0.71865 0.58323 0.0
H2158 H 0.36363 0.71871 0.66583 0.0
H2159 H 0.3264 0.76625 0.6252 0.0
H2160 H 0.30815 0.76522 0.59427 0.0
H2161 H 0.29148 0.70538 0.59078 0.0
H2162 H 0.30942 0.70613 0.62179 0.0
H2163 H 0.34025 0.79045 0.73205 0.0
H2164 H 0.3525 0.77524 0.70602 0.0
H2165 H 0.30308 0.73717 0.6869 0.0
H2166 H 0.2909 0.75229 0.71247 0.0
H2167 H 0.31588 0.75422 0.6586 0.0
H2168 H 0.33499 0.72138 0.70958 0.0
H2169 H 0.35047 0.71953 0.74121 0.0
H2170 H 0.39878 0.74509 0.72559 0.0
H2171 H 0.38353 0.74732 0.69391 0.0
C2172 C 0.34305 0.68408 0.61101 0.0
C2173 C 0.34416 0.69232 0.59441 0.0
C2174 C 0.34484 0.69544 0.62848 0.0
C2175 C 0.34791 0.71512 0.6295 0.0
C2176 C 0.35115 0.72328 0.61328 0.0
C2177 C 0.34904 0.71197 0.5958 0.0
C2178 C 0.34417 0.7267 0.64615 0.0
C2179 C 0.35336 0.72669 0.66428 0.0
C2180 C 0.33052 0.73678 0.64414 0.0
C2181 C 0.31942 0.73623 0.62566 0.0
C2182 C 0.31879 0.7529 0.61784 0.0
C2183 C 0.3085 0.75236 0.60031 0.0
C2184 C 0.29871 0.73524 0.59053 0.0
C2185 C 0.29911 0.71863 0.59832 0.0
C2186 C 0.30934 0.7191 0.61587 0.0
C2187 C 0.33211 0.77883 0.72223 0.0
C2188 C 0.31471 0.77243 0.7242 0.0
C2189 C 0.3391 0.77012 0.70751 0.0
C2190 C 0.32867 0.75509 0.69463 0.0
C2191 C 0.31132 0.74876 0.69671 0.0
C2192 C 0.30441 0.75734 0.71135 0.0
C2193 C 0.33524 0.74623 0.67832 0.0
C2194 C 0.3265 0.7467 0.66018 0.0
C2195 C 0.34891 0.73621 0.68048 0.0
C2196 C 0.3581 0.73471 0.69945 0.0
C2197 C 0.3489 0.72675 0.71294 0.0
C2198 C 0.35763 0.7256 0.73087 0.0
C2199 C 0.37559 0.73226 0.73544 0.0
C2200 C 0.38486 0.73999 0.72205 0.0
C2201 C 0.37619 0.74118 0.7041 0.0
H2202 H 0.38233 0.73138 0.74934 0.0
H2203 H 0.29079 0.73485 0.57695 0.0
H2204 H 0.6641 0.01436 0.8736 0.0
H2205 H 0.64769 0.0167 0.89987 0.0
H2206 H 0.60033 0.00918 0.86026 0.0
H2207 H 0.61696 1.0071 0.83369 0.0
H2208 H 0.59541 0.03198 0.88809 0.0
H2209 H 0.61391 0.97409 0.89217 0.0
H2210 H 0.63395 0.95196 0.8943 0.0
H2211 H 0.66227 0.98467 0.94631 0.0
H2212 H 0.64251 1.00714 0.94437 0.0
H2213 H 0.54046 0.0176 0.96102 0.0
H2214 H 0.55617 0.01453 0.93404 0.0
H2215 H 0.60477 0.02779 0.97227 0.0
H2216 H 0.58899 0.03099 0.99939 0.0
H2217 H 0.60836 1.0014 0.94485 0.0
H2218 H 0.58826 0.05914 0.94 0.0
H2219 H 0.56655 0.07941 0.93749 0.0
H2220 H 0.53938 0.04454 0.88612 0.0
H2221 H 0.56081 0.02392 0.88845 0.0
C2222 C 0.65015 0.01296 0.87016 0.0
C2223 C 0.64229 0.01024 0.85076 0.0
C2224 C 0.6405 0.01423 0.88561 0.0
C2225 C 0.62216 0.01282 0.88297 0.0
C2226 C 0.61426 0.01031 0.86356 0.0
C2227 C 0.62395 1.00896 0.84801 0.0
C2228 C 0.61163 0.0143 0.90015 0.0
C2229 C 0.59829 0.02496 0.90026 0.0
C2230 C 0.61478 1.00567 0.9169 0.0
C2231 C 0.62687 0.99242 0.91799 0.0
C2232 C 0.62452 0.97667 0.90396 0.0
C2233 C 0.63581 0.96404 0.90515 0.0
C2234 C 0.64942 0.96694 0.92039 0.0
C2235 C 0.65175 0.98246 0.93449 0.0
C2236 C 0.6405 0.99514 0.93336 0.0
C2237 C 0.55452 0.02005 0.96394 0.0
C2238 C 0.56305 0.0248 0.98309 0.0
C2239 C 0.56372 0.01833 0.94812 0.0
C2240 C 0.58218 0.02108 0.95024 0.0
C2241 C 0.59072 0.02553 0.96942 0.0
C2242 C 0.58151 0.0275 0.98526 0.0
C2243 C 0.59233 0.01921 0.93284 0.0
C2244 C 0.60556 1.00845 0.93268 0.0
C2245 C 0.58891 0.02753 0.91596 0.0
C2246 C 0.57604 0.03989 0.91451 0.0
C2247 C 0.57758 0.05572 0.92824 0.0
C2248 C 0.56534 0.06728 0.92684 0.0
C2249 C 0.55157 0.06323 0.91168 0.0
C2250 C 0.55003 0.04764 0.89787 0.0
C2251 C 0.56223 0.03602 0.89921 0.0
H2252 H 0.5421 0.0722 0.91062 0.0
H2253 H 0.65812 0.95714 0.92131 0.0
H2254 H 0.31568 0.39071 0.11925 0.0
H2255 H 0.31307 0.37585 0.1479 0.0
H2256 H 0.29213 0.32213 0.11326 0.0
H2257 H 0.29429 0.337 0.08468 0.0
H2258 H 0.27466 0.32424 0.14073 0.0
H2259 H 0.33605 0.3361 0.13914 0.0
H2260 H 0.36484 0.35529 0.138 0.0
H2261 H 0.36264 0.38947 0.19003 0.0
H2262 H 0.33372 0.37062 0.19136 0.0
H2263 H 0.28434 0.26462 0.21121 0.0
H2264 H 0.28815 0.28136 0.184 0.0
H2265 H 0.30411 0.33404 0.22153 0.0
H2266 H 0.30034 0.31725 0.2489 0.0
H2267 H 0.32398 0.33353 0.19356 0.0
H2268 H 0.26285 0.32083 0.19541 0.0
H2269 H 0.23429 0.30119 0.19659 0.0
H2270 H 0.23627 0.26812 0.14382 0.0
H2271 H 0.26498 0.28741 0.14246 0.0
C2272 C 0.31049 0.37573 0.1177 0.0
C2273 C 0.30524 0.36514 0.09948 0.0
C2274 C 0.30911 0.36715 0.1342 0.0
C2275 C 0.30263 0.34763 0.13306 0.0
C2276 C 0.29719 0.33714 0.11482 0.0
C2277 C 0.29848 0.34572 0.09836 0.0
C2278 C 0.30131 0.33812 0.15064 0.0
C2279 C 0.28559 0.32614 0.15211 0.0
C2280 C 0.31528 0.34074 0.166 0.0
C2281 C 0.33265 0.35208 0.16524 0.0
C2282 C 0.34165 0.3478 0.15026 0.0
C2283 C 0.358 0.3586 0.14959 0.0
C2284 C 0.36554 0.37363 0.1639 0.0
C2285 C 0.35677 0.37785 0.17894 0.0
C2286 C 0.3404 0.36711 0.17967 0.0
C2287 C 0.28879 0.27976 0.21375 0.0
C2288 C 0.29197 0.28952 0.23236 0.0
C2289 C 0.29087 0.2894 0.19808 0.0
C2290 C 0.29617 0.30914 0.20044 0.0
C2291 C 0.29994 0.31886 0.21911 0.0
C2292 C 0.29778 0.30921 0.23482 0.0
C2293 C 0.29743 0.31954 0.18347 0.0
C2294 C 0.31309 0.33167 0.18215 0.0
C2295 C 0.28343 0.31702 0.1682 0.0
C2296 C 0.26614 0.30546 0.16892 0.0
C2297 C 0.25725 0.30928 0.18413 0.0
C2298 C 0.24103 0.29822 0.18482 0.0
C2299 C 0.23349 0.28339 0.17032 0.0
C2300 C 0.24214 0.2796 0.15506 0.0
C2301 C 0.25838 0.2906 0.15431 0.0
H2302 H 0.22093 0.27484 0.17088 0.0
H2303 H 0.3782 0.38197 0.16336 0.0
H2304 H 0.17925 0.90175 0.97868 0.0
H2305 H 0.15828 0.91017 0.9981 0.0
H2306 H 0.17489 0.87551 0.03883 0.0
H2307 H 0.19637 0.86731 0.01962 0.0
H2308 H 0.13189 0.89709 0.01539 0.0
H2309 H 0.18107 0.90155 0.08203 0.0
H2310 H 0.21225 0.90154 0.09139 0.0
H2311 H 0.22413 0.92767 0.04294 0.0
H2312 H 0.19308 0.92803 0.03348 0.0
H2313 H 0.10008 0.96252 0.0732 0.0
H2314 H 0.11057 0.93325 0.06768 0.0
H2315 H 0.16101 0.9651 0.06295 0.0
H2316 H 0.15113 0.99425 0.07025 0.0
H2317 H 0.16598 0.93532 0.07461 0.0
H2318 H 0.12339 0.94934 0.0248 0.0
H2319 H 0.09422 0.95364 0.01148 0.0
H2320 H 0.07216 0.89741 0.01941 0.0
H2321 H 0.10111 0.89304 0.0335 0.0
C2322 C 0.17816 0.89544 0.99148 0.0
C2323 C 0.18986 0.88429 0.99785 0.0
C2324 C 0.16602 0.90018 1.00254 0.0
C2325 C 0.1653 0.89383 0.02014 0.0
C2326 C 0.17544 0.88081 0.02542 0.0
C2327 C 0.1877 0.87612 0.01438 0.0
C2328 C 0.1565 0.90366 0.03401 0.0
C2329 C 0.13917 0.90514 0.02858 0.0
C2330 C 0.16606 0.9143 0.05113 0.0
C2331 C 0.18478 0.91458 0.05696 0.0
C2332 C 0.19037 0.90733 0.07344 0.0
C2333 C 0.20801 0.90727 0.07875 0.0
C2334 C 0.22016 0.91453 0.06772 0.0
C2335 C 0.21471 0.922 0.05144 0.0
C2336 C 0.19711 0.92215 0.04611 0.0
C2337 C 0.11362 0.96334 0.07181 0.0
C2338 C 0.12464 0.9808 0.07163 0.0
C2339 C 0.11955 0.94652 0.0684 0.0
C2340 C 0.13639 0.94687 0.06416 0.0
C2341 C 0.14787 0.96432 0.06592 0.0
C2342 C 0.14212 0.98107 0.06982 0.0
C2343 C 0.14165 0.92971 0.05542 0.0
C2344 C 0.15832 0.92668 0.06191 0.0
C2345 C 0.13174 0.9183 0.03879 0.0
C2346 C 0.11434 0.92099 0.03049 0.0
C2347 C 0.11228 0.93798 0.0239 0.0
C2348 C 0.09578 0.94044 0.01628 0.0
C2349 C 0.08132 0.92586 0.01478 0.0
C2350 C 0.08334 0.90876 0.0208 0.0
C2351 C 0.09977 0.90631 0.0287 0.0
H2352 H 0.06856 0.92778 0.00885 0.0
H2353 H 0.23379 0.91441 0.07182 0.0
H2354 H 0.70275 0.65111 0.9937 0.0
H2355 H 0.67426 0.63199 0.99577 0.0
H2356 H 0.69994 0.59334 0.02427 0.0
H2357 H 0.72824 0.61231 0.02198 0.0
H2358 H 0.67375 0.57378 1.00006 0.0
H2359 H 0.68052 0.62705 0.04778 0.0
H2360 H 0.68559 0.66074 0.06067 0.0
H2361 H 0.64001 0.66665 0.02398 0.0
H2362 H 0.63482 0.63303 0.01065 0.0
H2363 H 0.60556 0.52609 0.04123 0.0
H2364 H 0.63198 0.54675 0.03618 0.0
H2365 H 0.60094 0.57814 1.00345 0.0
H2366 H 0.57427 0.55728 0.00845 0.0
H2367 H 0.62863 0.60177 0.0278 0.0
H2368 H 0.62121 0.54721 0.98152 0.0
H2369 H 0.6167 0.51337 0.96949 0.0
H2370 H 0.66423 0.50986 1.00422 0.0
H2371 H 0.66888 0.54362 0.01671 0.0
C2372 C 0.70225 0.63845 1.00027 0.0
C2373 C 0.71775 0.63293 0.00717 0.0
C2374 C 0.68594 0.62755 1.00158 0.0
C2375 C 0.68474 0.61113 0.01031 0.0
C2376 C 0.70031 0.60578 0.01736 0.0
C2377 C 0.71655 0.61661 0.01596 0.0
C2378 C 0.66742 0.5995 0.01226 0.0
C2379 C 0.66399 0.57997 1.00623 0.0
C2380 C 0.65434 0.60738 0.02006 0.0
C2381 C 0.65739 0.62758 0.02807 0.0
C2382 C 0.67165 0.63557 0.04235 0.0
C2383 C 0.67454 0.65464 0.04976 0.0
C2384 C 0.66315 0.66584 0.04312 0.0
C2385 C 0.64884 0.65797 0.02909 0.0
C2386 C 0.64591 0.6389 0.0216 0.0
C2387 C 0.60429 0.53739 0.03296 0.0
C2388 C 0.58772 0.53991 0.02516 0.0
C2389 C 0.61948 0.54921 0.03001 0.0
C2390 C 0.61863 0.56397 0.0192 0.0
C2391 C 0.60206 0.56686 0.01179 0.0
C2392 C 0.58679 0.5549 0.01463 0.0
C2393 C 0.63507 0.5761 0.01559 0.0
C2394 C 0.63834 0.59567 0.02137 0.0
C2395 C 0.64808 0.56826 0.00764 0.0
C2396 C 0.64528 0.54792 1.00022 0.0
C2397 C 0.63061 0.53919 0.98674 0.0
C2398 C 0.62805 0.52002 0.97981 0.0
C2399 C 0.64014 0.50946 0.98613 0.0
C2400 C 0.65485 0.51805 0.99937 0.0
C2401 C 0.65746 0.5372 1.00637 0.0
H2402 H 0.63814 0.49463 0.98074 0.0
H2403 H 0.6654 0.68061 0.04888 0.0
H2404 H 0.66953 0.4917 0.33503 0.0
H2405 H 0.67975 0.4623 0.32927 0.0
H2406 H 0.66495 0.46041 0.26903 0.0
H2407 H 0.65403 0.48968 0.27484 0.0
H2408 H 0.66051 0.42491 0.2783 0.0
H2409 H 0.70683 0.47906 0.29012 0.0
H2410 H 0.72421 0.50918 0.30738 0.0
H2411 H 0.73594 0.48257 0.35637 0.0
H2412 H 0.71852 0.45226 0.33944 0.0
H2413 H 0.72427 0.36973 0.25533 0.0
H2414 H 0.7058 0.3931 0.25814 0.0
H2415 H 0.71552 0.39672 0.31901 0.0
H2416 H 0.73366 0.37317 0.31634 0.0
H2417 H 0.72215 0.4312 0.30742 0.0
H2418 H 0.67614 0.3762 0.29408 0.0
H2419 H 0.66 0.34619 0.27535 0.0
H2420 H 0.64876 0.37458 0.22751 0.0
H2421 H 0.66508 0.40474 0.24587 0.0
C2422 C 0.66809 0.48482 0.32056 0.0
C2423 C 0.66111 0.4931 0.30538 0.0
C2424 C 0.67402 0.46804 0.31727 0.0
C2425 C 0.67359 0.45936 0.29868 0.0
C2426 C 0.66554 0.46688 0.2835 0.0
C2427 C 0.65928 0.4836 0.28683 0.0
C2428 C 0.68293 0.44354 0.29529 0.0
C2429 C 0.67404 0.42635 0.28448 0.0
C2430 C 0.7006 0.44529 0.30339 0.0
C2431 C 0.71125 0.46344 0.31356 0.0
C2432 C 0.71303 0.47965 0.30461 0.0
C2433 C 0.72289 0.49676 0.31433 0.0
C2434 C 0.7311 0.49783 0.33299 0.0
C2435 C 0.72954 0.48174 0.34193 0.0
C2436 C 0.71971 0.46458 0.33227 0.0
C2437 C 0.72219 0.37519 0.2693 0.0
C2438 C 0.73069 0.36971 0.28562 0.0
C2439 C 0.71164 0.3886 0.27088 0.0
C2440 C 0.70932 0.39676 0.2888 0.0
C2441 C 0.71723 0.39077 0.30504 0.0
C2442 C 0.72769 0.37734 0.30348 0.0
C2443 C 0.69967 0.41243 0.29082 0.0
C2444 C 0.7086 0.4297 0.30128 0.0
C2445 C 0.68217 0.41074 0.28221 0.0
C2446 C 0.67198 0.39271 0.2713 0.0
C2447 C 0.67032 0.37603 0.27953 0.0
C2448 C 0.66112 0.359 0.26899 0.0
C2449 C 0.6534 0.35847 0.25023 0.0
C2450 C 0.65478 0.375 0.24203 0.0
C2451 C 0.66398 0.39208 0.25251 0.0
H2452 H 0.64634 0.34525 0.24208 0.0
H2453 H 0.73871 0.5111 0.34049 0.0
H2454 H 0.80852 0.38209 0.46698 0.0
H2455 H 0.8372 0.40316 0.47229 0.0
H2456 H 0.82117 0.43837 0.51637 0.0
H2457 H 0.79285 0.41694 0.51146 0.0
H2458 H 0.84553 0.43758 0.46713 0.0
H2459 H 0.85611 0.46184 0.54868 0.0
H2460 H 0.8516 0.44922 0.57836 0.0
H2461 H 0.84826 0.39309 0.55048 0.0
H2462 H 0.85303 0.4054 0.52069 0.0
H2463 H 0.91333 0.51879 0.49029 0.0
H2464 H 0.88526 0.49714 0.48779 0.0
H2465 H 0.91078 0.45928 0.51787 0.0
H2466 H 0.93859 0.48104 0.52084 0.0
H2467 H 0.8821 0.4608 0.52993 0.0
H2468 H 0.89913 0.45269 0.4685 0.0
H2469 H 0.90784 0.46247 0.43893 0.0
H2470 H 0.85963 0.48078 0.4258 0.0
H2471 H 0.85073 0.47136 0.45544 0.0
C2472 C 0.81126 0.39433 0.47781 0.0
C2473 C 0.79844 0.39843 0.48834 0.0
C2474 C 0.82756 0.40633 0.48085 0.0
C2475 C 0.83134 0.42237 0.49472 0.0
C2476 C 0.81866 0.426 0.50574 0.0
C2477 C 0.80242 0.41397 0.50272 0.0
C2478 C 0.84819 0.43578 0.49703 0.0
C2479 C 0.85349 0.44267 0.48088 0.0
C2480 C 0.85874 0.44225 0.51493 0.0
C2481 C 0.85478 0.43455 0.53241 0.0
C2482 C 0.85436 0.4468 0.54886 0.0
C2483 C 0.85181 0.43971 0.56571 0.0
C2484 C 0.84972 0.42039 0.56631 0.0
C2485 C 0.8499 0.40807 0.54998 0.0
C2486 C 0.85248 0.41509 0.53309 0.0
C2487 C 0.91284 0.5059 0.49647 0.0
C2488 C 0.92806 0.50159 0.50582 0.0
C2489 C 0.89686 0.49352 0.49497 0.0
C2490 C 0.89596 0.47647 0.50243 0.0
C2491 C 0.91113 0.47237 0.51207 0.0
C2492 C 0.92701 0.48483 0.5138 0.0
C2493 C 0.87933 0.46266 0.50007 0.0
C2494 C 0.87403 0.45579 0.51621 0.0
C2495 C 0.86902 0.45582 0.4821 0.0
C2496 C 0.87437 0.46154 0.46431 0.0
C2497 C 0.89045 0.45896 0.45939 0.0
C2498 C 0.89541 0.46441 0.44261 0.0
C2499 C 0.88432 0.4723 0.43053 0.0
C2500 C 0.86822 0.47471 0.43519 0.0
C2501 C 0.86322 0.46932 0.45198 0.0
H2502 H 0.88818 0.4765 0.41753 0.0
H2503 H 0.84804 0.41498 0.57947 0.0
H2504 H 0.35976 0.08166 0.28755 0.0
H2505 H 0.34733 0.10969 0.28705 0.0
H2506 H 0.39295 0.13879 0.26873 0.0
H2507 H 0.40565 0.11009 0.26895 0.0
H2508 H 0.38134 0.16443 0.29496 0.0
H2509 H 0.35155 0.12337 0.2384 0.0
H2510 H 0.33461 0.09352 0.22003 0.0
H2511 H 0.2936 0.09604 0.25306 0.0
H2512 H 0.31041 0.12578 0.27181 0.0
H2513 H 0.34075 0.24486 0.2796 0.0
H2514 H 0.35571 0.21825 0.27839 0.0
H2515 H 0.30739 0.18042 0.27917 0.0
H2516 H 0.29232 0.20697 0.27924 0.0
H2517 H 0.32154 0.15933 0.26119 0.0
H2518 H 0.34969 0.1983 0.31851 0.0
H2519 H 0.3659 0.22706 0.3394 0.0
H2520 H 0.4091 0.22731 0.3092 0.0
H2521 H 0.39291 0.19892 0.28766 0.0
C2522 C 0.36746 0.09381 0.28327 0.0
C2523 C 0.38412 0.09264 0.27823 0.0
C2524 C 0.36005 0.11028 0.28293 0.0
C2525 C 0.36866 0.12725 0.27771 0.0
C2526 C 0.38548 0.12641 0.27288 0.0
C2527 C 0.39289 0.10962 0.27291 0.0
C2528 C 0.35991 0.14516 0.27726 0.0
C2529 C 0.36837 0.16318 0.28721 0.0
C2530 C 0.34253 0.14446 0.268 0.0
C2531 C 0.33231 0.12672 0.2566 0.0
C2532 C 0.33897 0.1175 0.24182 0.0
C2533 C 0.32938 0.1006 0.23133 0.0
C2534 C 0.31305 0.09286 0.2354 0.0
C2535 C 0.30626 0.10204 0.24993 0.0
C2536 C 0.3158 0.11893 0.26048 0.0
C2537 C 0.33313 0.23093 0.2795 0.0
C2538 C 0.31489 0.22881 0.27949 0.0
C2539 C 0.34194 0.21528 0.27904 0.0
C2540 C 0.33333 0.19629 0.27911 0.0
C2541 C 0.31506 0.19427 0.27906 0.0
C2542 C 0.3062 0.20986 0.27917 0.0
C2543 C 0.3429 0.17885 0.27894 0.0
C2544 C 0.33455 0.16079 0.26891 0.0
C2545 C 0.36024 0.17947 0.28851 0.0
C2546 C 0.36999 0.19661 0.3013 0.0
C2547 C 0.36258 0.2046 0.31618 0.0
C2548 C 0.37174 0.22087 0.32811 0.0
C2549 C 0.38846 0.22909 0.32552 0.0
C2550 C 0.39608 0.22102 0.31106 0.0
C2551 C 0.38689 0.20487 0.29895 0.0
H2552 H 0.39555 0.24167 0.33478 0.0
H2553 H 0.30566 0.07977 0.22728 0.0
H2554 H 0.31347 0.14506 0.53502 0.0
H2555 H 0.34084 0.13364 0.54079 0.0
H2556 H 0.33145 0.10588 0.48303 0.0
H2557 H 0.30432 0.11689 0.47732 0.0
H2558 H 0.33986 0.08226 0.50528 0.0
H2559 H 0.36386 0.147 0.50053 0.0
H2560 H 0.36874 0.18145 0.50933 0.0
H2561 H 0.39044 0.17651 0.56611 0.0
H2562 H 0.38549 0.142 0.5577 0.0
H2563 H 0.41939 0.05449 0.49578 0.0
H2564 H 0.39465 0.07017 0.49281 0.0
H2565 H 0.40958 0.09614 0.55112 0.0
H2566 H 0.43459 0.08073 0.55406 0.0
H2567 H 0.39838 0.12079 0.53127 0.0
H2568 H 0.37529 0.05664 0.5363 0.0
H2569 H 0.37031 0.02211 0.52818 0.0
H2570 H 0.34637 0.02579 0.47187 0.0
H2571 H 0.35143 0.06037 0.47958 0.0
C2572 C 0.31741 0.13681 0.52347 0.0
C2573 C 0.30653 0.13191 0.50571 0.0
C2574 C 0.3331 0.13023 0.52678 0.0
C2575 C 0.33837 0.11876 0.51236 0.0
C2576 C 0.32777 0.11449 0.49451 0.0
C2577 C 0.31218 0.12092 0.49124 0.0
C2578 C 0.35436 0.11035 0.51574 0.0
C2579 C 0.35267 0.0908 0.51076 0.0
C2580 C 0.37112 0.12118 0.52349 0.0
C2581 C 0.37413 0.14191 0.52854 0.0
C2582 C 0.36955 0.15325 0.51493 0.0
C2583 C 0.37235 0.17279 0.51984 0.0
C2584 C 0.37985 0.18116 0.53828 0.0
C2585 C 0.38461 0.17001 0.55184 0.0
C2586 C 0.38182 0.15046 0.547 0.0
C2587 C 0.41748 0.06353 0.508 0.0
C2588 C 0.42914 0.0662 0.52517 0.0
C2589 C 0.4032 0.07251 0.50631 0.0
C2590 C 0.39987 0.08418 0.52184 0.0
C2591 C 0.41171 0.08725 0.53887 0.0
C2592 C 0.42611 0.07841 0.54052 0.0
C2593 C 0.38389 0.09278 0.52037 0.0
C2594 C 0.38556 0.11228 0.52581 0.0
C2595 C 0.36704 0.08191 0.51312 0.0
C2596 C 0.36387 0.0611 0.50847 0.0
C2597 C 0.36906 0.05009 0.52215 0.0
C2598 C 0.36621 0.03051 0.51762 0.0
C2599 C 0.35806 0.02177 0.49951 0.0
C2600 C 0.3527 0.03258 0.48589 0.0
C2601 C 0.35554 0.05217 0.49034 0.0
H2602 H 0.35587 1.00661 0.49603 0.0
H2603 H 0.382 0.19629 0.54206 0.0
H2604 H 0.68981 0.58018 0.30041 0.0
H2605 H 0.70986 0.60961 0.30056 0.0
H2606 H 0.67042 0.64012 0.31495 0.0
H2607 H 0.65153 0.61043 0.31793 0.0
H2608 H 0.71134 0.63274 0.28032 0.0
H2609 H 0.68477 0.68629 0.32413 0.0
H2610 H 0.66917 0.69045 0.3513 0.0
H2611 H 0.6926 0.64904 0.37694 0.0
H2612 H 0.7084 0.64465 0.34973 0.0
H2613 H 0.75188 0.72506 0.26793 0.0
H2614 H 0.72952 0.69843 0.27185 0.0
H2615 H 0.75804 0.69548 0.32651 0.0
H2616 H 0.78048 0.72224 0.32264 0.0
H2617 H 0.72158 0.69129 0.32619 0.0
H2618 H 0.7611 0.66528 0.28981 0.0
H2619 H 0.77724 0.66292 0.26291 0.0
H2620 H 0.7292 0.65015 0.22388 0.0
H2621 H 0.71279 0.65268 0.25057 0.0
C2622 C 0.68589 0.5932 0.30491 0.0
C2623 C 0.6696 0.59291 0.3106 0.0
C2624 C 0.69719 0.6102 0.30437 0.0
C2625 C 0.69213 0.62762 0.30819 0.0
C2626 C 0.67534 0.62729 0.31288 0.0
C2627 C 0.66433 0.61018 0.31433 0.0
C2628 C 0.70419 0.64559 0.30596 0.0
C2629 C 0.71354 0.64538 0.29059 0.0
C2630 C 0.707 0.66269 0.31871 0.0
C2631 C 0.69749 0.6649 0.33487 0.0
C2632 C 0.68653 0.67802 0.33554 0.0
C2633 C 0.67767 0.6804 0.35089 0.0
C2634 C 0.67981 0.66987 0.36574 0.0
C2635 C 0.69086 0.65698 0.36529 0.0
C2636 C 0.69972 0.65449 0.34991 0.0
C2637 C 0.75331 0.71888 0.28088 0.0
C2638 C 0.76794 0.72579 0.295 0.0
C2639 C 0.74054 0.70358 0.28307 0.0
C2640 C 0.74208 0.69483 0.29944 0.0
C2641 C 0.75651 0.70198 0.31376 0.0
C2642 C 0.76938 0.71721 0.3115 0.0
C2643 C 0.72903 0.6778 0.30129 0.0
C2644 C 0.71939 0.6784 0.31626 0.0
C2645 C 0.72591 0.66106 0.28821 0.0
C2646 C 0.73574 0.65935 0.27217 0.0
C2647 C 0.75399 0.6621 0.27548 0.0
C2648 C 0.76318 0.66071 0.26028 0.0
C2649 C 0.75425 0.65644 0.24169 0.0
C2650 C 0.7361 0.65348 0.23828 0.0
C2651 C 0.72685 0.65488 0.25344 0.0
H2652 H 0.76139 0.65537 0.22994 0.0
H2653 H 0.67297 0.67176 0.37765 0.0
H2654 H 0.86405 0.49013 0.75529 0.0
H2655 H 0.84838 0.45826 0.75688 0.0
H2656 H 0.89394 0.44752 0.79035 0.0
H2657 H 0.90923 0.47977 0.78943 0.0
H2658 H 0.87058 0.42957 0.80392 0.0
H2659 H 0.81833 0.41912 0.73731 0.0
H2660 H 0.81468 0.42887 0.70553 0.0
H2661 H 0.86984 0.4372 0.7061 0.0
H2662 H 0.87379 0.42732 0.73779 0.0
H2663 H 0.80937 0.34521 0.80957 0.0
H2664 H 0.82419 0.37703 0.80698 0.0
H2665 H 0.83534 0.3571 0.75216 0.0
H2666 H 0.81985 0.32524 0.75448 0.0
H2667 H 0.83128 0.3898 0.74884 0.0
H2668 H 0.86713 0.37128 0.79897 0.0
H2669 H 0.87464 0.35969 0.82927 0.0
H2670 H 0.85852 0.40624 0.85921 0.0
H2671 H 0.85071 0.41798 0.82904 0.0
C2672 C 0.87074 0.48112 0.76323 0.0
C2673 C 0.88792 0.48828 0.77281 0.0
C2674 C 0.86175 0.4624 0.76386 0.0
C2675 C 0.86958 0.44947 0.77366 0.0
C2676 C 0.88701 0.45657 0.78277 0.0
C2677 C 0.89595 0.47531 0.78217 0.0
C2678 C 0.85986 0.42899 0.77468 0.0
C2679 C 0.86198 0.42109 0.79174 0.0
C2680 C 0.8486 0.41687 0.75906 0.0
C2681 C 0.84636 0.42266 0.73998 0.0
C2682 C 0.82967 0.42297 0.73061 0.0
C2683 C 0.82755 0.42854 0.71263 0.0
C2684 C 0.84203 0.43371 0.70383 0.0
C2685 C 0.85865 0.43326 0.71296 0.0
C2686 C 0.86084 0.42769 0.73094 0.0
C2687 C 0.81494 0.3474 0.79688 0.0
C2688 C 0.81317 0.33197 0.78233 0.0
C2689 C 0.82375 0.36596 0.79545 0.0
C2690 C 0.83169 0.37029 0.77951 0.0
C2691 C 0.82968 0.35489 0.7648 0.0
C2692 C 0.82071 0.33631 0.76616 0.0
C2693 C 0.84179 0.39052 0.77816 0.0
C2694 C 0.83978 0.39834 0.76105 0.0
C2695 C 0.85353 0.40239 0.79359 0.0
C2696 C 0.85815 0.39538 0.81173 0.0
C2697 C 0.86507 0.37896 0.812 0.0
C2698 C 0.8694 0.37238 0.82915 0.0
C2699 C 0.86701 0.38219 0.84615 0.0
C2700 C 0.86033 0.39863 0.84603 0.0
C2701 C 0.85596 0.40526 0.82891 0.0
H2702 H 0.87037 0.37708 0.85942 0.0
H2703 H 0.84036 0.43803 0.68992 0.0
H2704 H 0.04178 0.8206 0.08548 0.0
H2705 H 0.0426 0.85057 0.0739 0.0
H2706 H 0.07315 0.87929 0.12684 0.0
H2707 H 0.07232 0.84884 0.13883 0.0
H2708 H 0.04773 0.89831 0.11477 0.0
H2709 H 0.09227 0.87545 0.08672 0.0
H2710 H 0.10639 0.8531 0.06915 0.0
H2711 H 0.06806 0.84891 0.01974 0.0
H2712 H 0.05357 0.87105 0.0371 0.0
H2713 H 0.06581 0.98369 0.07266 0.0
H2714 H 0.06934 0.95595 0.0878 0.0
H2715 H 0.03446 0.92041 0.04095 0.0
H2716 H 0.0307 0.94826 0.02586 0.0
H2717 H 0.06483 0.9066 0.05201 0.0
H2718 H 0.02029 0.92983 0.08126 0.0
H2719 H 1.00745 0.95318 0.09921 0.0
H2720 H 0.04757 0.95787 0.14703 0.0
H2721 H 0.06085 0.93478 0.12926 0.0
C2722 C 0.04876 0.83318 0.09484 0.0
C2723 C 0.05699 0.83204 0.11324 0.0
C2724 C 0.0493 0.85046 0.08804 0.0
C2725 C 0.05811 0.86741 0.09928 0.0
C2726 C 0.06629 0.8665 0.11775 0.0
C2727 C 0.06587 0.84902 0.1246 0.0
C2728 C 0.05831 0.8858 0.09153 0.0
C2729 C 0.05182 0.90023 0.10121 0.0
C2730 C 0.06333 0.88845 0.07365 0.0
C2731 C 0.07175 0.87478 0.06327 0.0
C2732 C 0.08675 0.86961 0.07217 0.0
C2733 C 0.09484 0.85701 0.06223 0.0
C2734 C 0.0881 0.84955 0.04335 0.0
C2735 C 0.07325 0.85467 0.03437 0.0
C2736 C 0.0651 0.86725 0.04425 0.0
C2737 C 0.05905 0.96997 0.06543 0.0
C2738 C 0.0481 0.96829 0.0479 0.0
C2739 C 0.06093 0.95408 0.07424 0.0
C2740 C 0.05207 0.93596 0.06567 0.0
C2741 C 0.04141 0.93418 0.04795 0.0
C2742 C 0.03926 0.95014 0.03931 0.0
C2743 C 0.05402 0.91889 0.07503 0.0
C2744 C 0.06092 0.90472 0.06563 0.0
C2745 C 0.04955 0.91664 0.09322 0.0
C2746 C 0.0417 0.93073 0.10382 0.0
C2747 C 0.02651 0.936 0.09552 0.0
C2748 C 0.01912 0.94916 0.10568 0.0
C2749 C 0.02672 0.95704 0.12422 0.0
C2750 C 0.04172 0.95178 0.13265 0.0
C2751 C 0.04918 0.93866 0.12254 0.0
H2752 H 0.02096 0.96719 0.13208 0.0
H2753 H 0.09441 0.83983 0.03568 0.0
H2754 H 0.95773 0.27331 0.91804 0.0
H2755 H 0.92874 0.27491 0.90214 0.0
H2756 H 0.93457 0.23581 0.85477 0.0
H2757 H 0.96385 0.23486 0.87046 0.0
H2758 H 0.92129 0.26123 0.84109 0.0
H2759 H 0.90633 0.22476 0.88931 0.0
H2760 H 0.9065 0.21675 0.92169 0.0
H2761 H 0.88636 0.26593 0.93808 0.0
H2762 H 0.88629 0.27437 0.90585 0.0
H2763 H 0.83281 0.23547 0.79786 0.0
H2764 H 0.86066 0.23514 0.81693 0.0
H2765 H 0.8578 0.28638 0.85159 0.0
H2766 H 0.82987 0.28711 0.83203 0.0
H2767 H 0.86894 0.256 0.87232 0.0
H2768 H 0.88327 0.29141 0.8226 0.0
H2769 H 0.88272 0.29785 0.78968 0.0
H2770 H 0.90419 0.24902 0.7758 0.0
H2771 H 0.90455 0.24207 0.80858 0.0
C2772 C 0.95277 0.26506 0.90423 0.0
C2773 C 0.96327 0.25442 0.89524 0.0
C2774 C 0.93608 0.26583 0.89517 0.0
C2775 C 0.92913 0.25538 0.87715 0.0
C2776 C 0.93946 0.24415 0.86854 0.0
C2777 C 0.95627 0.24363 0.87749 0.0
C2778 C 0.9115 0.2567 0.86698 0.0
C2779 C 0.90992 0.25994 0.84799 0.0
C2780 C 0.8964 0.2553 0.87581 0.0
C2781 C 0.89648 0.25031 0.89522 0.0
C2782 C 0.90207 0.23395 0.89986 0.0
C2783 C 0.90213 0.22931 0.91818 0.0
C2784 C 0.8965 0.24085 0.93195 0.0
C2785 C 0.89075 0.25702 0.92741 0.0
C2786 C 0.89069 0.26174 0.90911 0.0
C2787 C 0.838 0.24669 0.80957 0.0
C2788 C 0.82905 0.26138 0.81331 0.0
C2789 C 0.85401 0.24647 0.82048 0.0
C2790 C 0.86148 0.26075 0.8357 0.0
C2791 C 0.85235 0.27517 0.83994 0.0
C2792 C 0.83638 0.2756 0.82874 0.0
C2793 C 0.87903 0.26069 0.84662 0.0
C2794 C 0.8805 0.25755 0.86563 0.0
C2795 C 0.89406 0.26204 0.83779 0.0
C2796 C 0.89369 0.26607 0.818 0.0
C2797 C 0.88766 0.2819 0.81248 0.0
C2798 C 0.88743 0.28567 0.79385 0.0
C2799 C 0.89335 0.27381 0.78063 0.0
C2800 C 0.89956 0.25817 0.78604 0.0
C2801 C 0.89977 0.2543 0.80464 0.0
H2802 H 0.89319 0.27677 0.76622 0.0
H2803 H 0.89654 0.23723 0.94612 0.0
H2804 H 0.56155 0.24299 0.59499 0.0
H2805 H 0.55777 0.21059 0.57941 0.0
H2806 H 0.54442 0.19058 0.63075 0.0
H2807 H 0.54559 0.2228 0.64498 0.0
H2808 H 0.57256 0.18524 0.58182 0.0
H2809 H 0.53008 0.1506 0.62996 0.0
H2810 H 0.50451 0.15337 0.64553 0.0
H2811 H 0.48342 0.17965 0.59981 0.0
H2812 H 0.50912 0.17721 0.58421 0.0
H2813 H 0.57156 0.08577 0.56186 0.0
H2814 H 0.57464 0.11863 0.57625 0.0
H2815 H 0.52048 0.11641 0.55557 0.0
H2816 H 0.51724 0.08364 0.54182 0.0
H2817 H 0.52648 0.13217 0.58955 0.0
H2818 H 0.55643 0.1416 0.5366 0.0
H2819 H 0.57848 0.13757 0.51616 0.0
H2820 H 0.61924 0.16048 0.56321 0.0
H2821 H 0.5974 0.16443 0.58399 0.0
C2822 C 0.55669 0.2316 0.60244 0.0
C2823 C 0.55266 0.23554 0.62072 0.0
C2824 C 0.55501 0.21292 0.59373 0.0
C2825 C 0.55019 0.19754 0.60346 0.0
C2826 C 0.54706 0.20166 0.62219 0.0
C2827 C 0.54802 0.22028 0.63054 0.0
C2828 C 0.54952 0.17751 0.59445 0.0
C2829 C 0.56234 0.17376 0.5835 0.0
C2830 C 0.53646 0.16202 0.59645 0.0
C2831 C 0.52162 0.1643 0.60626 0.0
C2832 C 0.52006 0.15718 0.62341 0.0
C2833 C 0.5056 0.1587 0.63223 0.0
C2834 C 0.49247 0.16695 0.6238 0.0
C2835 C 0.49377 0.17363 0.60651 0.0
C2836 C 0.50833 0.17236 0.59777 0.0
C2837 C 0.56037 0.09237 0.56018 0.0
C2838 C 0.54415 0.08194 0.55065 0.0
C2839 C 0.56215 0.11125 0.56841 0.0
C2840 C 0.54782 0.12028 0.56704 0.0
C2841 C 0.53176 0.10994 0.55707 0.0
C2842 C 0.52994 0.0911 0.54909 0.0
C2843 C 0.5491 0.14012 0.5765 0.0
C2844 C 0.53658 0.14374 0.58777 0.0
C2845 C 0.56214 0.15548 0.57433 0.0
C2846 C 0.57529 0.15312 0.56188 0.0
C2847 C 0.57009 0.14564 0.54261 0.0
C2848 C 0.58255 0.1434 0.53096 0.0
C2849 C 0.60025 0.14871 0.53839 0.0
C2850 C 0.60552 0.15633 0.55748 0.0
C2851 C 0.59312 0.15859 0.5692 0.0
H2852 H 0.60988 0.14696 0.52935 0.0
H2853 H 0.48121 0.16799 0.63057 0.0
H2854 H 0.56044 0.73845 0.40755 0.0
H2855 H 0.58829 0.73752 0.39607 0.0
H2856 H 0.58379 0.7866 0.36919 0.0
H2857 H 0.55631 0.78748 0.38027 0.0
H2858 H 0.59117 0.76093 0.34488 0.0
H2859 H 0.61363 0.7873 0.41029 0.0
H2860 H 0.61691 0.78756 0.44491 0.0
H2861 H 0.63628 0.73629 0.43918 0.0
H2862 H 0.63291 0.73561 0.40448 0.0
H2863 H 0.67287 0.79247 0.31947 0.0
H2864 H 0.64739 0.78957 0.33532 0.0
H2865 H 0.65952 0.73982 0.35641 0.0
H2866 H 0.6855 0.74298 0.34105 0.0
H2867 H 0.64809 0.76149 0.38353 0.0
H2868 H 0.6275 0.73619 0.31854 0.0
H2869 H 0.62413 0.73562 0.28389 0.0
H2870 H 0.60074 0.78424 0.28872 0.0
H2871 H 0.6042 0.78527 0.32344 0.0
C2872 C 0.56556 0.7492 0.39946 0.0
C2873 C 0.55597 0.76295 0.39478 0.0
C2874 C 0.5815 0.74866 0.39285 0.0
C2875 C 0.58824 0.76195 0.38158 0.0
C2876 C 0.57893 0.77603 0.3776 0.0
C2877 C 0.56313 0.77652 0.38406 0.0
C2878 C 0.60447 0.76112 0.37308 0.0
C2879 C 0.60362 0.76124 0.35343 0.0
C2880 C 0.62074 0.76085 0.38395 0.0
C2881 C 0.62282 0.76129 0.40479 0.0
C2882 C 0.61845 0.776 0.4164 0.0
C2883 C 0.62035 0.77624 0.43604 0.0
C2884 C 0.62674 0.76192 0.44423 0.0
C2885 C 0.6313 0.74736 0.43281 0.0
C2886 C 0.62941 0.74704 0.41316 0.0
C2887 C 0.67037 0.78105 0.3277 0.0
C2888 C 0.68142 0.76797 0.32885 0.0
C2889 C 0.65559 0.77928 0.33664 0.0
C2890 C 0.65124 0.76431 0.34692 0.0
C2891 C 0.66244 0.75147 0.34854 0.0
C2892 C 0.67727 0.75322 0.33956 0.0
C2893 C 0.63481 0.76193 0.35546 0.0
C2894 C 0.63561 0.76109 0.37501 0.0
C2895 C 0.61841 0.7615 0.34451 0.0
C2896 C 0.61624 0.76089 0.32362 0.0
C2897 C 0.62175 0.74684 0.31223 0.0
C2898 C 0.61981 0.74642 0.29257 0.0
C2899 C 0.61226 0.75991 0.28411 0.0
C2900 C 0.6066 0.77382 0.29529 0.0
C2901 C 0.60853 0.77431 0.31496 0.0
H2902 H 0.61077 0.75956 0.26889 0.0
H2903 H 0.62821 0.76213 0.45944 0.0
H2904 H 0.03452 0.26092 0.42645 0.0
H2905 H 0.03893 0.23084 0.43546 0.0
H2906 H 0.02005 0.20387 0.37792 0.0
H2907 H 0.01554 0.23424 0.36866 0.0
H2908 H 1.00594 0.18385 0.40535 0.0
H2909 H 0.06152 0.20951 0.39219 0.0
H2910 H 0.08755 0.23397 0.39252 0.0
H2911 H 0.09933 0.23839 0.4531 0.0
H2912 H 0.0732 0.21419 0.45319 0.0
H2913 H 0.03037 0.10535 0.44754 0.0
H2914 H 0.02929 0.12782 0.4248 0.0
H2915 H 0.04634 0.1739 0.4707 0.0
H2916 H 0.047 0.15176 0.49343 0.0
H2917 H 0.06324 0.17928 0.44009 0.0
H2918 H 1.00391 0.15922 0.45267 0.0
H2919 H 0.97731 0.13555 0.45248 0.0
H2920 H 0.97286 0.12055 0.39227 0.0
H2921 H 0.99959 0.14398 0.39215 0.0
C2922 C 0.03129 0.24864 0.41565 0.0
C2923 C 0.02472 0.24996 0.39683 0.0
C2924 C 0.03391 0.23146 0.42082 0.0
C2925 C 0.03006 0.21521 0.40729 0.0
C2926 C 0.02321 0.21632 0.38852 0.0
C2927 C 0.02066 0.23364 0.38327 0.0
C2928 C 0.03298 0.19718 0.4133 0.0
C2929 C 0.01856 0.18257 0.41247 0.0
C2930 C 0.04945 0.19559 0.42262 0.0
C2931 C 0.06533 0.21004 0.42268 0.0
C2932 C 0.06959 0.21577 0.4056 0.0
C2933 C 0.08438 0.22959 0.40571 0.0
C2934 C 0.09508 0.23774 0.42282 0.0
C2935 C 0.09103 0.23205 0.43985 0.0
C2936 C 0.07625 0.21826 0.43983 0.0
C2937 C 0.03386 0.12028 0.45278 0.0
C2938 C 0.03877 0.12674 0.47234 0.0
C2939 C 0.03332 0.13307 0.43976 0.0
C2940 C 0.03772 0.1525 0.4461 0.0
C2941 C 0.04305 0.15895 0.46551 0.0
C2942 C 0.04349 0.14624 0.47849 0.0
C2943 C 0.03605 0.16643 0.43292 0.0
C2944 C 0.05074 0.18026 0.4324 0.0
C2945 C 0.01986 0.16725 0.42232 0.0
C2946 C 1.00384 0.15317 0.42243 0.0
C2947 C 0.99733 0.15077 0.43942 0.0
C2948 C 0.98221 0.13744 0.43936 0.0
C2949 C 0.9734 0.12656 0.42237 0.0
C2950 C 0.97969 0.129 0.40541 0.0
C2951 C 0.99483 0.14229 0.4054 0.0
H2952 H 0.96172 0.11622 0.42237 0.0
H2953 H 0.10652 0.24844 0.42288 0.0
H2954 H 0.59385 0.26265 0.16054 0.0
H2955 H 0.62542 0.26681 0.16856 0.0
H2956 H 0.62042 0.26041 0.22657 0.0
H2957 H 0.58887 0.2568 0.21876 0.0
H2958 H 0.64763 0.28675 0.22589 0.0
H2959 H 0.62562 0.22353 0.19484 0.0
H2960 H 0.60919 0.19872 0.16925 0.0
H2961 H 0.64112 0.22098 0.13016 0.0
H2962 H 0.6576 0.24609 0.15548 0.0
H2963 H 0.72695 0.23738 0.22721 0.0
H2964 H 0.69605 0.23669 0.21724 0.0
H2965 H 0.70737 0.29678 0.21687 0.0
H2966 H 0.73817 0.29757 0.22752 0.0
H2967 H 0.6769 0.24394 0.18884 0.0
H2968 H 0.67426 0.31648 0.2297 0.0
H2969 H 0.68964 0.33831 0.25823 0.0
H2970 H 0.70567 0.29225 0.28301 0.0
H2971 H 0.69035 0.27015 0.25471 0.0
C2972 C 0.59949 0.26226 0.17504 0.0
C2973 C 0.58889 0.25923 0.189 0.0
C2974 C 0.61753 0.26459 0.17959 0.0
C2975 C 0.62526 0.2636 0.1981 0.0
C2976 C 0.61474 0.2612 0.21219 0.0
C2977 C 0.5967 0.25907 0.20769 0.0
C2978 C 0.64422 0.26432 0.20262 0.0
C2979 C 0.65406 0.27745 0.21776 0.0
C2980 C 0.65255 0.25192 0.19224 0.0
C2981 C 0.64272 0.2368 0.177 0.0
C2982 C 0.62905 0.22321 0.18075 0.0
C2983 C 0.61975 0.20908 0.1663 0.0
C2984 C 0.62408 0.20831 0.14807 0.0
C2985 C 0.63776 0.22162 0.14427 0.0
C2986 C 0.6471 0.2358 0.15867 0.0
C2987 C 0.72285 0.25038 0.22472 0.0
C2988 C 0.73487 0.26755 0.22829 0.0
C2989 C 0.70519 0.25 0.21908 0.0
C2990 C 0.69931 0.26675 0.21671 0.0
C2991 C 0.7115 0.28376 0.21915 0.0
C2992 C 0.7291 0.28418 0.22512 0.0
C2993 C 0.68039 0.2664 0.21215 0.0
C2994 C 0.67054 0.25336 0.19693 0.0
C2995 C 0.67199 0.27849 0.22287 0.0
C2996 C 0.6813 0.29169 0.23997 0.0
C2997 C 0.68105 0.31101 0.24125 0.0
C2998 C 0.68974 0.32343 0.25739 0.0
C2999 C 0.69862 0.31667 0.27243 0.0
C3000 C 0.69885 0.29749 0.27134 0.0
C3001 C 0.69019 0.28501 0.25523 0.0
H3002 H 0.70533 0.32631 0.28491 0.0
H3003 H 0.61686 0.19736 0.1369 0.0
H3004 H 0.5347 0.87603 0.89906 0.0
H3005 H 0.54149 0.90192 0.92532 0.0
H3006 H 0.55897 0.86505 0.9632 0.0
H3007 H 0.55175 0.83899 0.93717 0.0
H3008 H 0.53661 0.88134 0.97753 0.0
H3009 H 0.58706 0.90291 0.95175 0.0
H3010 H 0.60565 0.91239 0.92828 0.0
H3011 H 0.57894 0.95741 0.91866 0.0
H3012 H 0.55988 0.94796 0.94173 0.0
H3013 H 0.55565 0.96761 0.04874 0.0
H3014 H 0.55948 0.9389 0.0294 0.0
H3015 H 0.5295 0.95343 0.98064 0.0
H3016 H 0.52547 0.98155 0.99959 0.0
H3017 H 0.56486 0.94764 0.97688 0.0
H3018 H 0.51077 0.92016 0.9979 0.0
H3019 H 0.49322 0.9111 0.02242 0.0
H3020 H 0.52941 0.87765 0.04214 0.0
H3021 H 0.54731 0.88675 0.01787 0.0
C3022 C 0.54028 0.87351 0.91289 0.0
C3023 C 0.5424 0.85538 0.91609 0.0
C3024 C 0.54428 0.88837 0.9279 0.0
C3025 C 0.55078 0.88544 0.94626 0.0
C3026 C 0.55389 0.86762 0.94919 0.0
C3027 C 0.54973 0.85274 0.93428 0.0
C3028 C 0.55228 0.90027 0.96267 0.0
C3029 C 0.5432 0.89574 0.97757 0.0
C3030 C 0.56078 0.91911 0.96275 0.0
C3031 C 0.57191 0.92458 0.94842 0.0
C3032 C 0.58498 0.91468 0.94447 0.0
C3033 C 0.59563 0.92008 0.93125 0.0
C3034 C 0.59344 0.93545 0.92195 0.0
C3035 C 0.58059 0.94547 0.92584 0.0
C3036 C 0.56985 0.94009 0.939 0.0
C3037 C 0.54953 0.96434 0.03403 0.0
C3038 C 0.54032 0.97681 0.02564 0.0
C3039 C 0.55182 0.94809 0.02301 0.0
C3040 C 0.54498 0.94434 1.00359 0.0
C3041 C 0.53502 0.95625 0.99557 0.0
C3042 C 0.53261 0.97224 1.00649 0.0
C3043 C 0.5487 0.92866 0.99102 0.0
C3044 C 0.55875 0.93308 0.97692 0.0
C3045 C 0.54123 0.90975 0.9917 0.0
C3046 C 0.5305 0.90435 1.00628 0.0
C3047 C 0.51509 0.91105 0.00761 0.0
C3048 C 0.50505 0.90586 0.02142 0.0
C3049 C 0.51023 0.89387 0.03388 0.0
C3050 C 0.52544 0.88699 0.03251 0.0
C3051 C 0.53553 0.89215 0.01873 0.0
H3052 H 0.50244 0.88986 0.04456 0.0
H3053 H 0.60171 0.93961 0.91174 0.0
H3054 H 0.99555 0.74281 0.68623 0.0
H3055 H 0.96603 0.74177 0.69331 0.0
H3056 H 0.98671 0.75915 0.75264 0.0
H3057 H 0.01613 0.76022 0.74574 0.0
H3058 H 0.95381 0.73458 0.74629 0.0
H3059 H 0.98364 0.79187 0.72584 0.0
H3060 H 0.99857 0.80875 0.70298 0.0
H3061 H 0.95341 0.78919 0.6602 0.0
H3062 H 0.93833 0.77192 0.68276 0.0
H3063 H 0.9061 0.79369 0.7898 0.0
H3064 H 0.92837 0.77986 0.7762 0.0
H3065 H 0.8987 0.77444 0.72021 0.0
H3066 H 0.87653 0.78864 0.73376 0.0
H3067 H 0.93191 0.78721 0.71974 0.0
H3068 H 0.89971 0.73577 0.74316 0.0
H3069 H 0.88493 0.72037 0.76694 0.0
H3070 H 0.9337 0.7286 0.80413 0.0
H3071 H 0.94876 0.74434 0.78069 0.0
C3072 C 0.99375 0.74581 0.70085 0.0
C3073 C 1.00813 0.75197 0.7154 0.0
C3074 C 0.9769 0.74521 0.70486 0.0
C3075 C 0.97428 0.75065 0.72345 0.0
C3076 C 0.98848 0.75493 0.73821 0.0
C3077 C 1.0053 0.75569 0.73421 0.0
C3078 C 0.95752 0.75511 0.72725 0.0
C3079 C 0.9489 0.74598 0.74044 0.0
C3080 C 0.95101 0.76979 0.71932 0.0
C3081 C 0.95995 0.78044 0.70589 0.0
C3082 C 0.97694 0.79108 0.71152 0.0
C3083 C 0.98543 0.80071 0.69863 0.0
C3084 C 0.97696 0.79999 0.68013 0.0
C3085 C 0.95997 0.78969 0.67452 0.0
C3086 C 0.95145 0.77997 0.68734 0.0
C3087 C 0.90438 0.78956 0.77459 0.0
C3088 C 0.88964 0.7922 0.76282 0.0
C3089 C 0.91701 0.78155 0.76685 0.0
C3090 C 0.91497 0.77571 0.74723 0.0
C3091 C 0.90045 0.77873 0.73539 0.0
C3092 C 0.88788 0.78693 0.74312 0.0
C3093 C 0.92832 0.76696 0.73915 0.0
C3094 C 0.93637 0.77538 0.7252 0.0
C3095 C 0.93422 0.75159 0.74636 0.0
C3096 C 0.92535 0.74139 0.7602 0.0
C3097 C 0.90728 0.73438 0.75644 0.0
C3098 C 0.89884 0.72564 0.76989 0.0
C3099 C 0.90834 0.72369 0.78712 0.0
C3100 C 0.92634 0.73025 0.79083 0.0
C3101 C 0.93485 0.73904 0.77744 0.0
H3102 H 0.90178 0.71689 0.79751 0.0
H3103 H 0.98356 0.80745 0.67017 0.0
H3104 H 0.15008 0.05576 0.87394 0.0
H3105 H 0.13496 0.05107 0.90075 0.0
H3106 H 0.08846 0.02234 0.86269 0.0
H3107 H 0.10356 0.02756 0.83541 0.0
H3108 H 0.07954 0.04272 0.89156 0.0
H3109 H 0.11633 0.99802 0.88744 0.0
H3110 H 0.14355 0.98674 0.88492 0.0
H3111 H 0.16765 0.02057 0.93798 0.0
H3112 H 0.14064 0.03227 0.94069 0.0
H3113 H 0.04772 0.98885 0.96416 0.0
H3114 H 0.062 0.99558 0.93685 0.0
H3115 H 0.0927 0.04697 0.96932 0.0
H3116 H 0.07793 0.04069 0.9966 0.0
H3117 H 0.10873 0.01434 0.94318 0.0
H3118 H 0.07066 0.06001 0.9453 0.0
H3119 H 0.0421 0.06823 0.94763 0.0
H3120 H 0.01922 0.02916 0.89738 0.0
H3121 H 0.04759 0.02033 0.89508 0.0
C3122 C 0.13658 0.04854 0.87111 0.0
C3123 C 0.12815 0.0419 0.85234 0.0
C3124 C 0.12793 0.04576 0.8866 0.0
C3125 C 0.11062 0.03588 0.88398 0.0
C3126 C 0.10185 0.02988 0.86523 0.0
C3127 C 0.1105 0.03289 0.84959 0.0
C3128 C 0.10208 0.03149 0.90088 0.0
C3129 C 0.08593 0.03638 0.90271 0.0
C3130 C 0.11026 0.02323 0.91571 0.0
C3131 C 0.1265 0.01616 0.91418 0.0
C3132 C 0.12747 1.00316 0.89851 0.0
C3133 C 0.14286 0.99667 0.89705 0.0
C3134 C 0.15734 1.00297 0.91126 0.0
C3135 C 0.15644 0.01572 0.92698 0.0
C3136 C 0.14108 0.02228 0.92849 0.0
C3137 C 0.05759 1.00154 0.9656 0.0
C3138 C 0.06168 0.01422 0.98266 0.0
C3139 C 0.06571 1.00539 0.9499 0.0
C3140 C 0.07835 0.02183 0.95093 0.0
C3141 C 0.08293 0.03422 0.96814 0.0
C3142 C 0.07453 0.03059 0.98375 0.0
C3143 C 0.08657 0.02602 0.93394 0.0
C3144 C 0.10252 0.02085 0.93204 0.0
C3145 C 0.07814 0.03379 0.91902 0.0
C3146 C 0.06118 0.03933 0.92018 0.0
C3147 C 0.0595 0.05301 0.93489 0.0
C3148 C 0.04336 0.05783 0.93617 0.0
C3149 C 0.02885 0.04921 0.92268 0.0
C3150 C 0.03046 0.0358 0.90784 0.0
C3151 C 0.04657 0.03087 0.90655 0.0
H3152 H 0.01636 0.05296 0.92369 0.0
H3153 H 0.16924 0.99793 0.91011 0.0
H3154 H 0.755 0.36649 0.55116 0.0
H3155 H 0.76296 0.35236 0.57938 0.0
H3156 H 0.76764 0.30212 0.54407 0.0
H3157 H 0.75889 0.31593 0.5157 0.0
H3158 H 0.75537 0.29369 0.57588 0.0
H3159 H 0.80348 0.33635 0.56081 0.0
H3160 H 0.81647 0.36676 0.55183 0.0
H3161 H 0.80915 0.39559 0.60473 0.0
H3162 H 0.79589 0.36538 0.61392 0.0
H3163 H 0.80679 0.26542 0.65152 0.0
H3164 H 0.80081 0.27661 0.62101 0.0
H3165 H 0.78778 0.32634 0.64927 0.0
H3166 H 0.79328 0.3151 0.67972 0.0
H3167 H 0.80658 0.33315 0.61917 0.0
H3168 H 0.7564 0.29052 0.63258 0.0
H3169 H 0.74161 0.26032 0.64044 0.0
H3170 H 0.75308 0.23106 0.58984 0.0
H3171 H 0.7682 0.26109 0.58183 0.0
C3172 C 0.75737 0.35228 0.54944 0.0
C3173 C 0.75658 0.34236 0.53134 0.0
C3174 C 0.76198 0.34426 0.56553 0.0
C3175 C 0.76642 0.32645 0.56376 0.0
C3176 C 0.76442 0.31595 0.5457 0.0
C3177 C 0.75943 0.32384 0.52955 0.0
C3178 C 0.77445 0.31957 0.58066 0.0
C3179 C 0.76674 0.30215 0.58517 0.0
C3180 C 0.7893 0.33065 0.59277 0.0
C3181 C 0.79858 0.34863 0.58799 0.0
C3182 C 0.8047 0.34917 0.57055 0.0
C3183 C 0.81206 0.36637 0.5654 0.0
C3184 C 0.81352 0.38308 0.57766 0.0
C3185 C 0.80795 0.38262 0.59524 0.0
C3186 C 0.80055 0.36546 0.60045 0.0
C3187 C 0.80281 0.27883 0.65125 0.0
C3188 C 0.80025 0.28925 0.66799 0.0
C3189 C 0.7995 0.28522 0.63385 0.0
C3190 C 0.79364 0.30213 0.63296 0.0
C3191 C 0.79231 0.31324 0.64974 0.0
C3192 C 0.79551 0.30681 0.66713 0.0
C3193 C 0.78729 0.30746 0.61453 0.0
C3194 C 0.79538 0.32457 0.60971 0.0
C3195 C 0.7729 0.29601 0.60207 0.0
C3196 C 0.76359 0.27801 0.60672 0.0
C3197 C 0.75588 0.27762 0.62321 0.0
C3198 C 0.74743 0.26054 0.62768 0.0
C3199 C 0.74645 0.24377 0.61568 0.0
C3200 C 0.75388 0.24406 0.59914 0.0
C3201 C 0.76239 0.2611 0.59463 0.0
H3202 H 0.7399 0.23056 0.61916 0.0
H3203 H 0.81883 0.3964 0.57347 0.0
H3204 H 0.45485 0.04927 0.32331 0.0
H3205 H 0.47281 0.0477 0.35355 0.0
H3206 H 0.42683 0.03828 0.37973 0.0
H3207 H 0.40914 0.04079 0.35005 0.0
H3208 H 0.44838 0.05571 0.40639 0.0
H3209 H 0.45505 1.00244 0.36488 0.0
H3210 H 0.46216 0.98514 0.33639 0.0
H3211 H 0.51466 0.01674 0.34902 0.0
H3212 H 0.5078 0.03439 0.37748 0.0
H3213 H 0.4923 0.02543 0.49072 0.0
H3214 H 0.47347 0.02779 0.46115 0.0
H3215 H 0.51878 0.042 0.43467 0.0
H3216 H 0.53728 0.03915 0.4637 0.0
H3217 H 0.49701 0.02161 0.40848 0.0
H3218 H 0.48879 0.074 0.45199 0.0
H3219 H 0.48026 0.0884 0.48113 0.0
H3220 H 0.42856 0.0552 0.46491 0.0
H3221 H 0.43689 0.0403 0.43595 0.0
C3222 C 0.44847 0.04702 0.33548 0.0
C3223 C 0.43016 0.04523 0.33354 0.0
C3224 C 0.45889 0.04582 0.35307 0.0
C3225 C 0.45161 0.04235 0.36972 0.0
C3226 C 0.43337 0.04092 0.36775 0.0
C3227 C 0.42303 0.04234 0.35033 0.0
C3228 C 0.4626 0.04022 0.38892 0.0
C3229 C 0.45886 0.048 0.40658 0.0
C3230 C 0.47669 0.03039 0.39026 0.0
C3231 C 0.48086 0.01987 0.37318 0.0
C3232 C 0.46808 1.00578 0.36151 0.0
C3233 C 0.47207 0.99591 0.34537 0.0
C3234 C 0.48884 0.99988 0.34086 0.0
C3235 C 0.50167 0.01371 0.35251 0.0
C3236 C 0.49774 0.02364 0.36865 0.0
C3237 C 0.49832 0.02915 0.47868 0.0
C3238 C 0.51668 0.03214 0.48018 0.0
C3239 C 0.48741 0.03065 0.46148 0.0
C3240 C 0.49426 0.03541 0.44491 0.0
C3241 C 0.51258 0.03829 0.44661 0.0
C3242 C 0.52337 0.03674 0.46362 0.0
C3243 C 0.48289 0.03722 0.42588 0.0
C3244 C 0.48656 0.02936 0.40825 0.0
C3245 C 0.46856 0.04669 0.42461 0.0
C3246 C 0.46352 0.05589 0.4419 0.0
C3247 C 0.47564 0.06969 0.45472 0.0
C3248 C 0.47084 0.07792 0.47123 0.0
C3249 C 0.4539 0.07264 0.47496 0.0
C3250 C 0.44171 0.0592 0.46212 0.0
C3251 C 0.44646 0.05085 0.44565 0.0
H3252 H 0.45022 0.07901 0.48775 0.0
H3253 H 0.4919 0.99222 0.32837 0.0
H3254 H 0.76138 0.65865 0.07842 0.0
H3255 H 0.76348 0.67386 0.11106 0.0
H3256 H 0.79013 0.72588 0.09652 0.0
H3257 H 0.78799 0.71074 0.06375 0.0
H3258 H 0.80512 0.71872 0.1314 0.0
H3259 H 0.74781 0.72017 0.10034 0.0
H3260 H 0.71886 0.70648 0.08167 0.0
H3261 H 0.70741 0.6712 0.12398 0.0
H3262 H 0.73642 0.68449 0.14277 0.0
H3263 H 0.79983 0.77566 0.21658 0.0
H3264 H 0.79769 0.7627 0.1832 0.0
H3265 H 0.76041 0.71431 0.19115 0.0
H3266 H 0.76135 0.72831 0.22401 0.0
H3267 H 0.75107 0.72014 0.15873 0.0
H3268 H 0.80877 0.71758 0.18955 0.0
H3269 H 0.83732 0.73207 0.20885 0.0
H3270 H 0.84821 0.76857 0.16742 0.0
H3271 H 0.81966 0.75451 0.14802 0.0
C3272 C 0.76783 0.67329 0.08216 0.0
C3273 C 0.77449 0.68344 0.06835 0.0
C3274 C 0.76894 0.68202 0.10087 0.0
C3275 C 0.7768 0.70114 0.10635 0.0
C3276 C 0.78397 0.71115 0.09274 0.0
C3277 C 0.78272 0.70246 0.07395 0.0
C3278 C 0.7772 0.71073 0.1261 0.0
C3279 C 0.79329 0.71917 0.13733 0.0
C3280 C 0.76184 0.71111 0.1341 0.0
C3281 C 0.74435 0.7032 0.12288 0.0
C3282 C 0.73917 0.70939 0.10559 0.0
C3283 C 0.72275 0.70172 0.095 0.0
C3284 C 0.71132 0.68795 0.10161 0.0
C3285 C 0.71629 0.68185 0.11886 0.0
C3286 C 0.73271 0.68946 0.1295 0.0
C3287 C 0.79107 0.76234 0.2111 0.0
C3288 C 0.78078 0.75299 0.22291 0.0
C3289 C 0.79 0.75474 0.192 0.0
C3290 C 0.77933 0.73703 0.18446 0.0
C3291 C 0.76883 0.72789 0.19634 0.0
C3292 C 0.76939 0.73588 0.21521 0.0
C3293 C 0.77908 0.72796 0.16439 0.0
C3294 C 0.76298 0.71962 0.153 0.0
C3295 C 0.79446 0.72748 0.15631 0.0
C3296 C 0.81202 0.73511 0.16743 0.0
C3297 C 0.81728 0.72867 0.18456 0.0
C3298 C 0.83344 0.73684 0.19553 0.0
C3299 C 0.84451 0.75128 0.18939 0.0
C3300 C 0.83959 0.75741 0.17216 0.0
C3301 C 0.82343 0.74934 0.16117 0.0
H3302 H 0.85688 0.75779 0.19799 0.0
H3303 H 0.6986 0.68205 0.09341 0.0
H3304 H 0.14325 0.03481 0.72967 0.0
H3305 H 0.12983 0.03204 0.69653 0.0
H3306 H 0.0791 0.02568 0.71336 0.0
H3307 H 0.09246 0.0279 0.74653 0.0
H3308 H 0.07653 1.00327 0.68174 0.0
H3309 H 0.10128 0.06851 0.70235 0.0
H3310 H 0.12441 0.09597 0.71636 0.0
H3311 H 0.15447 0.08303 0.673 0.0
H3312 H 0.13161 0.05534 0.65887 0.0
H3313 H 0.0559 0.05484 0.59349 0.0
H3314 H 0.06862 0.05552 0.62655 0.0
H3315 H 0.07378 0.99774 0.61414 0.0
H3316 H 0.06047 0.99677 0.58128 0.0
H3317 H 0.09813 0.05275 0.64406 0.0
H3318 H 0.07156 0.97531 0.65275 0.0
H3319 H 0.04638 0.94988 0.63905 0.0
H3320 H 0.01583 0.99077 0.62528 0.0
H3321 H 0.04065 0.01646 0.63931 0.0
C3322 C 0.12922 0.03268 0.72634 0.0
C3323 C 0.11897 0.03167 0.74086 0.0
C3324 C 0.12153 0.03121 0.70732 0.0
C3325 C 0.10339 0.029 0.70228 0.0
C3326 C 0.0931 0.02743 0.71673 0.0
C3327 C 0.10078 0.02874 0.73576 0.0
C3328 C 0.09523 0.0288 0.6821 0.0
C3329 C 0.08131 0.01408 0.67352 0.0
C3330 C 0.10109 0.04305 0.67128 0.0
C3331 C 0.11481 0.05976 0.67966 0.0
C3332 C 0.11288 0.07146 0.69588 0.0
C3333 C 0.12593 0.08707 0.70383 0.0
C3334 C 0.14092 0.09122 0.6956 0.0
C3335 C 0.14286 0.07979 0.67937 0.0
C3336 C 0.12986 0.06414 0.67138 0.0
C3337 C 0.05969 0.04224 0.59777 0.0
C3338 C 0.05699 0.02571 0.58462 0.0
C3339 C 0.06705 0.04266 0.61675 0.0
C3340 C 0.07202 0.02661 0.62313 0.0
C3341 C 0.06972 0.01022 0.60988 0.0
C3342 C 0.06215 0.00971 0.59096 0.0
C3343 C 0.07958 0.02709 0.64357 0.0
C3344 C 0.09338 0.04187 0.65222 0.0
C3345 C 0.0733 0.01315 0.65458 0.0
C3346 C 0.05805 0.99781 0.64687 0.0
C3347 C 0.05943 0.97888 0.64693 0.0
C3348 C 0.04523 0.96442 0.63907 0.0
C3349 C 0.02958 0.96871 0.63115 0.0
C3350 C 0.028 0.98747 0.63132 0.0
C3351 C 0.04212 1.00199 0.63925 0.0
H3352 H 0.01867 0.95751 0.62488 0.0
H3353 H 0.15101 0.10331 0.70178 0.0
H3354 H 0.74994 0.38148 0.41234 0.0
H3355 H 0.74824 0.36277 0.38144 0.0
H3356 H 0.73193 0.31191 0.40485 0.0
H3357 H 0.73397 0.33041 0.43595 0.0
H3358 H 0.76977 0.33446 0.37882 0.0
H3359 H 0.70401 0.28164 0.36538 0.0
H3360 H 0.67385 0.28061 0.37106 0.0
H3361 H 0.68054 0.34027 0.37073 0.0
H3362 H 0.71064 0.34162 0.36479 0.0
H3363 H 0.77712 0.25665 0.31726 0.0
H3364 H 0.76848 0.27459 0.34404 0.0
H3365 H 0.73377 0.29685 0.30514 0.0
H3366 H 0.74165 0.27791 0.27837 0.0
H3367 H 0.72013 0.29108 0.33684 0.0
H3368 H 0.77595 0.3232 0.32338 0.0
H3369 H 0.80642 0.32497 0.31811 0.0
H3370 H 0.81949 0.30796 0.37248 0.0
H3371 H 0.7892 0.30627 0.37807 0.0
C3372 C 0.7457 0.36635 0.41089 0.0
C3373 C 0.74239 0.3574 0.42669 0.0
C3374 C 0.74471 0.35571 0.39321 0.0
C3375 C 0.73998 0.33603 0.39097 0.0
C3376 C 0.73551 0.32712 0.40635 0.0
C3377 C 0.73678 0.33772 0.42411 0.0
C3378 C 0.74199 0.32466 0.37339 0.0
C3379 C 0.75891 0.32507 0.36956 0.0
C3380 C 0.72779 0.31242 0.36145 0.0
C3381 C 0.70965 0.31174 0.36483 0.0
C3382 C 0.69903 0.29453 0.36646 0.0
C3383 C 0.68194 0.29389 0.36973 0.0
C3384 C 0.6753 0.31037 0.37132 0.0
C3385 C 0.68572 0.32752 0.36958 0.0
C3386 C 0.70281 0.32824 0.36631 0.0
C3387 C 0.76718 0.26485 0.31456 0.0
C3388 C 0.75985 0.26583 0.29596 0.0
C3389 C 0.76242 0.27527 0.32977 0.0
C3390 C 0.75078 0.28738 0.32653 0.0
C3391 C 0.74275 0.28758 0.30793 0.0
C3392 C 0.74721 0.27676 0.29269 0.0
C3393 C 0.74797 0.3007 0.34241 0.0
C3394 C 0.73096 0.3006 0.346 0.0
C3395 C 0.7621 0.31327 0.35425 0.0
C3396 C 0.78033 0.31447 0.35101 0.0
C3397 C 0.78535 0.31979 0.33412 0.0
C3398 C 0.80256 0.32079 0.3311 0.0
C3399 C 0.81483 0.31645 0.34488 0.0
C3400 C 0.80996 0.31128 0.36179 0.0
C3401 C 0.79281 0.31038 0.36492 0.0
H3402 H 0.82812 0.31715 0.34248 0.0
H3403 H 0.66207 0.30984 0.37385 0.0
H3404 H 0.45994 0.05062 0.23474 0.0
H3405 H 0.47393 0.04728 0.20658 0.0
H3406 H 0.42367 0.03052 0.17144 0.0
H3407 H 0.40967 0.03306 0.19994 0.0
H3408 H 0.44123 0.01239 0.1533 0.0
H3409 H 0.4583 0.07794 0.17658 0.0
H3410 H 0.47086 0.10665 0.19945 0.0
H3411 H 0.52031 0.08993 0.20633 0.0
H3412 H 0.50799 0.06101 0.18366 0.0
H3413 H 0.47845 0.02054 0.06595 0.0
H3414 H 0.46308 0.02363 0.09329 0.0
H3415 H 0.51207 0.03704 0.13093 0.0
H3416 H 0.52738 0.03451 0.10361 0.0
H3417 H 0.49442 0.05724 0.1471 0.0
H3418 H 0.47583 0.99102 0.12255 0.0
H3419 H 0.46235 0.96367 0.09825 0.0
H3420 H 0.41445 0.98366 0.09203 0.0
H3421 H 0.4277 0.01121 0.11616 0.0
C3422 C 0.45168 0.04635 0.22108 0.0
C3423 C 0.43333 0.0424 0.22031 0.0
C3424 C 0.45987 0.04456 0.20452 0.0
C3425 C 0.45034 0.03904 0.18581 0.0
C3426 C 0.43194 0.0349 0.18508 0.0
C3427 C 0.42373 0.0365 0.20172 0.0
C3428 C 0.45937 0.03731 0.16749 0.0
C3429 C 0.45273 0.02252 0.15211 0.0
C3430 C 0.47474 0.04995 0.16487 0.0
C3431 C 0.48216 0.06721 0.1786 0.0
C3432 C 0.47182 0.08032 0.18308 0.0
C3433 C 0.4789 0.09664 0.19599 0.0
C3434 C 0.49636 0.10008 0.20438 0.0
C3435 C 0.50678 0.08722 0.19985 0.0
C3436 C 0.49976 0.07087 0.18697 0.0
C3437 C 0.48609 0.02404 0.08 0.0
C3438 C 0.50454 0.02711 0.0819 0.0
C3439 C 0.47711 0.02572 0.09604 0.0
C3440 C 0.48592 0.03035 0.11515 0.0
C3441 C 0.50435 0.03347 0.11692 0.0
C3442 C 0.51331 0.03191 0.10093 0.0
C3443 C 0.47638 0.03227 0.13303 0.0
C3444 C 0.48293 0.04711 0.14832 0.0
C3445 C 0.4608 0.01985 0.13542 0.0
C3446 C 0.45281 1.00326 0.12102 0.0
C3447 C 0.46245 0.98962 0.11593 0.0
C3448 C 0.45485 0.97408 0.10219 0.0
C3449 C 0.43757 0.97196 0.09356 0.0
C3450 C 0.42783 0.98533 0.0987 0.0
C3451 C 0.43538 1.0009 0.11242 0.0
H3452 H 0.43171 0.95993 0.08293 0.0
H3453 H 0.50182 0.11272 0.21436 0.0
H3454 H 0.75727 0.65281 0.93418 0.0
H3455 H 0.76054 0.67185 0.90871 0.0
H3456 H 0.7743 0.72226 0.94969 0.0
H3457 H 0.77137 0.70318 0.97542 0.0
H3458 H 0.74561 0.69725 0.89445 0.0
H3459 H 0.80205 0.75621 0.93379 0.0
H3460 H 0.82678 0.76102 0.95991 0.0
H3461 H 0.82851 0.70229 0.9499 0.0
H3462 H 0.80394 0.69719 0.92359 0.0
H3463 H 0.76149 0.76714 0.83163 0.0
H3464 H 0.75466 0.75069 0.85854 0.0
H3465 H 0.80452 0.73422 0.86288 0.0
H3466 H 0.81149 0.75107 0.83673 0.0
H3467 H 0.80024 0.74346 0.89622 0.0
H3468 H 0.76223 0.7033 0.84301 0.0
H3469 H 0.73897 0.69609 0.81516 0.0
H3470 H 0.70282 0.71298 0.84981 0.0
H3471 H 0.72592 0.72045 0.87784 0.0
C3472 C 0.76103 0.66795 0.93792 0.0
C3473 C 0.76418 0.67629 0.95712 0.0
C3474 C 0.7628 0.67891 0.92318 0.0
C3475 C 0.76786 0.69865 0.927 0.0
C3476 C 0.77067 0.70709 0.94614 0.0
C3477 C 0.76893 0.69611 0.96095 0.0
C3478 C 0.77059 0.71014 0.91101 0.0
C3479 C 0.75755 0.70741 0.89494 0.0
C3480 C 0.78617 0.72337 0.91121 0.0
C3481 C 0.80103 0.7263 0.92689 0.0
C3482 C 0.80774 0.74434 0.93715 0.0
C3483 C 0.82173 0.74711 0.95198 0.0
C3484 C 0.82917 0.73195 0.95661 0.0
C3485 C 0.82269 0.714 0.94636 0.0
C3486 C 0.80872 0.71116 0.9315 0.0
C3487 C 0.77091 0.75999 0.83833 0.0
C3488 C 0.78704 0.76054 0.83198 0.0
C3489 C 0.76701 0.75044 0.85374 0.0
C3490 C 0.779 0.74092 0.86297 0.0
C3491 C 0.795 0.74144 0.85638 0.0
C3492 C 0.79893 0.7511 0.84126 0.0
C3493 C 0.77533 0.73053 0.87953 0.0
C3494 C 0.7882 0.73345 0.89575 0.0
C3495 C 0.75975 0.71721 0.87926 0.0
C3496 C 0.74582 0.71255 0.86248 0.0
C3497 C 0.74933 0.70553 0.84467 0.0
C3498 C 0.73617 0.70136 0.82887 0.0
C3499 C 0.71942 0.70402 0.83074 0.0
C3500 C 0.71579 0.71087 0.8484 0.0
C3501 C 0.72891 0.71505 0.86426 0.0
H3502 H 0.70926 0.70083 0.81848 0.0
H3503 H 0.83998 0.73413 0.96811 0.0
H3504 H 0.85743 0.09998 0.04141 0.0
H3505 H 0.88045 0.09162 0.02481 0.0
H3506 H 0.90071 0.15033 0.0234 0.0
H3507 H 0.8778 0.15895 0.04063 0.0
H3508 H 0.89307 0.12174 0.9861 0.0
H3509 H 0.9253 0.13624 0.04862 0.0
H3510 H 0.93125 0.13618 0.08313 0.0
H3511 H 0.9257 0.07606 0.07428 0.0
H3512 H 0.9193 0.07569 0.03972 0.0
H3513 H 0.97498 0.07859 0.97793 0.0
H3514 H 0.95719 0.10254 0.98133 0.0
H3515 H 0.91151 0.05875 0.97589 0.0
H3516 H 0.92908 0.03489 0.97191 0.0
H3517 H 0.93713 0.08903 0.01556 0.0
H3518 H 0.90024 0.07562 0.95189 0.0
H3519 H 0.89572 0.07727 0.91768 0.0
H3520 H 0.91119 0.1375 0.92892 0.0
H3521 H 0.91614 0.13612 0.96329 0.0
C3522 C 0.86689 0.11114 0.03778 0.0
C3523 C 0.86591 0.1301 0.04233 0.0
C3524 C 0.87999 0.10635 0.02829 0.0
C3525 C 0.89215 0.12039 0.02292 0.0
C3526 C 0.89136 0.13937 0.0275 0.0
C3527 C 0.87841 0.14424 0.03742 0.0
C3528 C 0.90533 0.11469 0.01217 0.0
C3529 C 0.90299 0.11491 0.99251 0.0
C3530 C 0.91819 0.10587 0.0207 0.0
C3531 C 0.92166 0.10594 0.04154 0.0
C3532 C 0.92511 0.12298 0.05402 0.0
C3533 C 0.92861 0.12302 0.07361 0.0
C3534 C 0.92881 0.10613 0.0809 0.0
C3535 C 0.9255 0.08914 0.06862 0.0
C3536 C 0.92194 0.08901 0.04902 0.0
C3537 C 0.96098 0.07415 0.97626 0.0
C3538 C 0.95334 0.05496 0.97483 0.0
C3539 C 0.95083 0.08782 0.97809 0.0
C3540 C 0.93301 0.0824 0.97858 0.0
C3541 C 0.92513 0.06322 0.9749 0.0
C3542 C 0.93521 0.04956 0.97277 0.0
C3543 C 0.92433 0.09526 0.98935 0.0
C3544 C 0.92755 0.0963 0.00913 0.0
C3545 C 0.91231 0.10515 0.98088 0.0
C3546 C 0.90927 0.10571 0.96018 0.0
C3547 C 0.90318 0.08917 0.94712 0.0
C3548 C 0.90036 0.09006 0.92766 0.0
C3549 C 0.90335 0.10746 0.9211 0.0
C3550 C 0.909 0.12401 0.93399 0.0
C3551 C 0.91184 0.12317 0.95345 0.0
H3552 H 0.90115 0.10812 0.90604 0.0
H3553 H 0.93159 0.1062 0.09606 0.0
H3554 H 0.35728 0.43786 0.06401 0.0
H3555 H 0.38651 0.45283 0.06022 0.0
H3556 H 0.39397 0.39935 0.03371 0.0
H3557 H 0.36384 0.3856 0.0346 0.0
H3558 H 0.41539 0.45409 0.07168 0.0
H3559 H 0.42559 0.39812 0.02289 0.0
H3560 H 0.41416 0.37367 0.99505 0.0
H3561 H 0.38719 0.41193 0.96809 0.0
H3562 H 0.39868 0.43654 0.99578 0.0
H3563 H 0.50494 0.48399 0.05785 0.0
H3564 H 0.47771 0.46371 0.06234 0.0
H3565 H 0.45035 0.48114 0.01366 0.0
H3566 H 0.47727 0.50157 0.00939 0.0
H3567 H 0.44189 0.44195 0.0141 0.0
H3568 H 0.44639 0.49996 0.05661 0.0
H3569 H 0.46102 0.52468 0.08314 0.0
H3570 H 0.46157 0.48319 0.12081 0.0
H3571 H 0.44715 0.45818 0.09441 0.0
C3572 C 0.36491 0.42965 0.0564 0.0
C3573 C 0.35767 0.41098 0.04826 0.0
C3574 C 0.38199 0.43807 0.05463 0.0
C3575 C 0.39291 0.42778 0.04566 0.0
C3576 C 0.386 0.4085 0.03913 0.0
C3577 C 0.36865 0.40036 0.04012 0.0
C3578 C 0.4114 0.43729 0.04403 0.0
C3579 C 0.4209 0.4513 0.0589 0.0
C3580 C 0.41969 0.43366 0.02791 0.0
C3581 C 0.41206 0.41874 0.01177 0.0
C3582 C 0.41698 0.40115 0.01112 0.0
C3583 C 0.41058 0.38731 0.99537 0.0
C3584 C 0.39967 0.39112 0.97996 0.0
C3585 C 0.39532 0.40885 0.98021 0.0
C3586 C 0.40161 0.42268 0.996 0.0
C3587 C 0.49312 0.4834 0.04807 0.0
C3588 C 0.4933 0.49447 0.03328 0.0
C3589 C 0.47753 0.47185 0.05068 0.0
C3590 C 0.46182 0.47088 0.0384 0.0
C3591 C 0.46218 0.48155 0.02335 0.0
C3592 C 0.47762 0.49329 0.02094 0.0
C3593 C 0.44492 0.45907 0.04115 0.0
C3594 C 0.43601 0.44466 0.02666 0.0
C3595 C 0.4373 0.46218 0.05763 0.0
C3596 C 0.44588 0.47719 0.0735 0.0
C3597 C 0.44976 0.49609 0.07052 0.0
C3598 C 0.45799 0.51016 0.08554 0.0
C3599 C 0.46227 0.5055 0.10364 0.0
C3600 C 0.45828 0.48677 0.10677 0.0
C3601 C 0.45007 0.47265 0.09179 0.0
H3602 H 0.46864 0.51641 0.11525 0.0
H3603 H 0.39478 0.38042 0.96773 0.0
H3604 H 0.42172 0.56009 0.79471 0.0
H3605 H 0.41084 0.58922 0.7931 0.0
H3606 H 0.40411 0.57887 0.73203 0.0
H3607 H 0.41569 0.54993 0.73371 0.0
H3608 H 0.41199 0.61688 0.74505 0.0
H3609 H 0.37081 0.56308 0.7545 0.0
H3610 H 0.36019 0.53596 0.77025 0.0
H3611 H 0.36432 0.57284 0.82239 0.0
H3612 H 0.3751 0.6002 0.807 0.0
H3613 H 0.34055 0.66327 0.72706 0.0
H3614 H 0.36009 0.64098 0.72874 0.0
H3615 H 0.3667 0.65082 0.7898 0.0
H3616 H 0.34675 0.67278 0.78821 0.0
H3617 H 0.35979 0.61382 0.77665 0.0
H3618 H 0.39904 0.66828 0.76551 0.0
H3619 H 0.40839 0.69486 0.74854 0.0
H3620 H 0.40685 0.65632 0.6982 0.0
H3621 H 0.39718 0.6295 0.71478 0.0
C3622 C 0.41861 0.56446 0.78098 0.0
C3623 C 0.41964 0.55288 0.76434 0.0
C3624 C 0.41223 0.58101 0.78005 0.0
C3625 C 0.40621 0.586 0.76243 0.0
C3626 C 0.4086 0.57528 0.74578 0.0
C3627 C 0.41531 0.55882 0.74674 0.0
C3628 C 0.39559 0.60089 0.76149 0.0
C3629 C 0.4005 0.61615 0.75181 0.0
C3630 C 0.38063 0.60006 0.77043 0.0
C3631 C 0.37391 0.58366 0.77965 0.0
C3632 C 0.36954 0.5654 0.76935 0.0
C3633 C 0.36349 0.54998 0.77821 0.0
C3634 C 0.36165 0.55266 0.79732 0.0
C3635 C 0.36578 0.57078 0.80759 0.0
C3636 C 0.37183 0.58625 0.79881 0.0
C3637 C 0.34612 0.66067 0.74087 0.0
C3638 C 0.34196 0.66975 0.75751 0.0
C3639 C 0.35747 0.64806 0.7418 0.0
C3640 C 0.36502 0.64429 0.7594 0.0
C3641 C 0.36109 0.65352 0.77605 0.0
C3642 C 0.34976 0.66618 0.77513 0.0
C3643 C 0.37628 0.63001 0.76043 0.0
C3644 C 0.37138 0.61471 0.77002 0.0
C3645 C 0.39109 0.63078 0.75124 0.0
C3646 C 0.39724 0.64687 0.74135 0.0
C3647 C 0.40058 0.66547 0.75079 0.0
C3648 C 0.40595 0.68058 0.74124 0.0
C3649 C 0.40818 0.67729 0.72229 0.0
C3650 C 0.4051 0.65886 0.71287 0.0
C3651 C 0.39969 0.64369 0.72234 0.0
H3652 H 0.41232 0.68901 0.71492 0.0
H3653 H 0.35699 0.5407 0.80415 0.0
H3654 H 0.30101 0.60282 0.55631 0.0
H3655 H 0.27419 0.57978 0.55657 0.0
H3656 H 0.24385 0.61688 0.53192 0.0
H3657 H 0.27048 0.63937 0.53095 0.0
H3658 H 0.24911 0.5901 0.57729 0.0
H3659 H 0.2195 0.60114 0.50968 0.0
H3660 H 0.21823 0.59839 0.47499 0.0
H3661 H 0.23336 0.54475 0.47425 0.0
H3662 H 0.23515 0.54752 0.50904 0.0
H3663 H 0.158 0.57433 0.57704 0.0
H3664 H 0.18843 0.5852 0.57388 0.0
H3665 H 0.18958 0.53029 0.54513 0.0
H3666 H 0.15905 0.51932 0.54827 0.0
H3667 H 0.20077 0.55959 0.52554 0.0
H3668 H 0.21249 0.54345 0.58768 0.0
H3669 H 0.20925 0.54304 0.62123 0.0
H3670 H 0.22622 0.60312 0.63251 0.0
H3671 H 0.22932 0.60394 0.59896 0.0
C3672 C 0.28861 0.6056 0.55027 0.0
C3673 C 0.28774 0.62248 0.54301 0.0
C3674 C 0.27332 0.59251 0.55044 0.0
C3675 C 0.25699 0.59624 0.54353 0.0
C3676 C 0.25623 0.61316 0.53632 0.0
C3677 C 0.27145 0.62616 0.53608 0.0
C3678 C 0.2408 0.58434 0.54703 0.0
C3679 C 0.23858 0.58331 0.56596 0.0
C3680 C 0.22707 0.57534 0.53231 0.0
C3681 C 0.22832 0.57498 0.512 0.0
C3682 C 0.22318 0.58911 0.50219 0.0
C3683 C 0.22215 0.58744 0.48249 0.0
C3684 C 0.22584 0.57147 0.47242 0.0
C3685 C 0.23062 0.55718 0.48206 0.0
C3686 C 0.23179 0.55887 0.50178 0.0
C3687 C 0.1648 0.56455 0.57018 0.0
C3688 C 0.15621 0.54604 0.56279 0.0
C3689 C 0.1822 0.57071 0.56854 0.0
C3690 C 0.19125 0.55849 0.55941 0.0
C3691 C 0.18281 0.53987 0.55234 0.0
C3692 C 0.16544 0.53363 0.55417 0.0
C3693 C 0.20897 0.56578 0.55574 0.0
C3694 C 0.21143 0.56604 0.53686 0.0
C3695 C 0.22281 0.57418 0.57052 0.0
C3696 C 0.22104 0.57376 0.59075 0.0
C3697 C 0.21541 0.55659 0.59728 0.0
C3698 C 0.21362 0.55629 0.61631 0.0
C3699 C 0.2175 0.57305 0.62899 0.0
C3700 C 0.22321 0.59015 0.62267 0.0
C3701 C 0.22501 0.59054 0.60365 0.0
H3702 H 0.2161 0.57278 0.64372 0.0
H3703 H 0.22493 0.57014 0.45716 0.0
H3704 H 0.7107 0.97037 0.81888 0.0
H3705 H 0.72352 0.94252 0.81597 0.0
H3706 H 0.67887 0.91308 0.77597 0.0
H3707 H 0.6658 0.94149 0.77874 0.0
H3708 H 0.68966 0.88706 0.79794 0.0
H3709 H 0.72192 0.93002 0.76383 0.0
H3710 H 0.73938 0.96034 0.75937 0.0
H3711 H 0.77832 0.95655 0.80569 0.0
H3712 H 0.76096 0.92633 0.8106 0.0
H3713 H 0.73137 0.80731 0.77698 0.0
H3714 H 0.71643 0.83383 0.77755 0.0
H3715 H 0.76444 0.8715 0.80309 0.0
H3716 H 0.77958 0.84499 0.8011 0.0
H3717 H 0.75084 0.89339 0.78752 0.0
H3718 H 0.71856 0.85247 0.82402 0.0
H3719 H 0.70109 0.82288 0.83035 0.0
H3720 H 0.66266 0.82331 0.78229 0.0
H3721 H 0.67996 0.85282 0.7756 0.0
C3722 C 0.70329 0.95815 0.80931 0.0
C3723 C 0.68676 0.95914 0.79913 0.0
C3724 C 0.71095 0.94179 0.80755 0.0
C3725 C 0.70277 0.92479 0.79549 0.0
C3726 C 0.68605 0.92546 0.78547 0.0
C3727 C 0.67839 0.94209 0.78705 0.0
C3728 C 0.71177 0.90699 0.79354 0.0
C3729 C 0.703 0.88864 0.7954 0.0
C3730 C 0.72951 0.90797 0.79075 0.0
C3731 C 0.74007 0.92599 0.78768 0.0
C3732 C 0.73416 0.93571 0.77313 0.0
C3733 C 0.74404 0.95287 0.77052 0.0
C3734 C 0.75992 0.96039 0.78227 0.0
C3735 C 0.76599 0.95072 0.79662 0.0
C3736 C 0.75615 0.93356 0.79931 0.0
C3737 C 0.73891 0.82117 0.78288 0.0
C3738 C 0.75708 0.82319 0.78913 0.0
C3739 C 0.73008 0.83681 0.78349 0.0
C3740 C 0.73854 0.85576 0.79104 0.0
C3741 C 0.75679 0.85771 0.79718 0.0
C3742 C 0.7657 0.84212 0.79614 0.0
C3743 C 0.72887 0.87323 0.79216 0.0
C3744 C 0.73753 0.89164 0.79014 0.0
C3745 C 0.71111 0.87233 0.79513 0.0
C3746 C 0.70064 0.85472 0.7992 0.0
C3747 C 0.70642 0.84621 0.81477 0.0
C3748 C 0.69655 0.82946 0.81842 0.0
C3749 C 0.68082 0.8212 0.80668 0.0
C3750 C 0.67487 0.82971 0.79134 0.0
C3751 C 0.68469 0.84645 0.78762 0.0
H3752 H 0.67321 0.80824 0.80947 0.0
H3753 H 0.76755 0.97368 0.78024 0.0
H3754 H 0.75777 0.91571 0.51535 0.0
H3755 H 0.73085 0.92724 0.516 0.0
H3756 H 0.73058 0.91606 0.57348 0.0
H3757 H 0.75776 0.90409 0.57278 0.0
H3758 H 0.69674 0.90906 0.55275 0.0
H3759 H 0.74573 0.96007 0.56586 0.0
H3760 H 0.77354 0.97865 0.56075 0.0
H3761 H 0.74942 0.98797 0.50649 0.0
H3762 H 0.72147 0.96927 0.51118 0.0
H3763 H 0.63758 0.97247 0.56674 0.0
H3764 H 0.66244 0.95666 0.56995 0.0
H3765 H 0.67054 0.9653 0.51332 0.0
H3766 H 0.64599 0.98129 0.51012 0.0
H3767 H 0.70097 0.974 0.53706 0.0
H3768 H 0.65214 0.92186 0.52377 0.0
H3769 H 0.62447 0.90305 0.52902 0.0
H3770 H 0.6484 0.89613 0.5843 0.0
H3771 H 0.67617 0.91514 0.57947 0.0
C3772 C 0.75184 0.91529 0.52805 0.0
C3773 C 0.76004 0.90898 0.54403 0.0
C3774 C 0.73643 0.92205 0.52844 0.0
C3775 C 0.72876 0.92303 0.54493 0.0
C3776 C 0.73623 0.91559 0.56059 0.0
C3777 C 0.75174 0.90863 0.56015 0.0
C3778 C 0.71373 0.93297 0.54586 0.0
C3779 C 0.69777 0.92338 0.54965 0.0
C3780 C 0.71482 0.95162 0.54159 0.0
C3781 C 0.73153 0.96314 0.53882 0.0
C3782 C 0.74638 0.96599 0.55279 0.0
C3783 C 0.76217 0.97655 0.54997 0.0
C3784 C 0.76327 0.98442 0.53328 0.0
C3785 C 0.74855 0.98184 0.5194 0.0
C3786 C 0.73272 0.97129 0.52215 0.0
C3787 C 0.64467 0.97107 0.55497 0.0
C3788 C 0.63957 0.97816 0.53811 0.0
C3789 C 0.65885 0.96185 0.55678 0.0
C3790 C 0.66843 0.95955 0.54183 0.0
C3791 C 0.66345 0.96677 0.52509 0.0
C3792 C 0.64923 0.97582 0.52322 0.0
C3793 C 0.68382 0.95001 0.54359 0.0
C3794 C 0.69992 0.95973 0.54031 0.0
C3795 C 0.68283 0.93156 0.54844 0.0
C3796 C 0.66617 0.92011 0.55135 0.0
C3797 C 0.65146 0.91647 0.53711 0.0
C3798 C 0.63577 0.90574 0.53999 0.0
C3799 C 0.63466 0.89845 0.557 0.0
C3800 C 0.64927 0.90182 0.57114 0.0
C3801 C 0.66499 0.91256 0.56834 0.0
H3802 H 0.6225 0.89015 0.55921 0.0
H3803 H 0.77553 0.99257 0.53112 0.0
H3804 H 0.38465 0.46034 0.73298 0.0
H3805 H 0.36357 0.43172 0.72833 0.0
H3806 H 0.39456 0.4117 0.77321 0.0
H3807 H 0.41665 0.4398 0.77563 0.0
H3808 H 0.38374 0.38419 0.75709 0.0
H3809 H 0.32265 0.41809 0.75043 0.0
H3810 H 0.30666 0.43582 0.72936 0.0
H3811 H 0.33112 0.41643 0.68323 0.0
H3812 H 0.34714 0.39855 0.70407 0.0
H3813 H 0.31943 0.32079 0.78917 0.0
H3814 H 0.34024 0.34774 0.78339 0.0
H3815 H 0.31176 0.34391 0.72705 0.0
H3816 H 0.29044 0.3173 0.7332 0.0
H3817 H 0.32032 0.37773 0.73906 0.0
H3818 H 0.35408 0.33103 0.73675 0.0
H3819 H 0.36886 0.30569 0.74573 0.0
H3820 H 0.39664 0.34163 0.7962 0.0
H3821 H 0.38203 0.36722 0.78752 0.0
C3822 C 0.38695 0.44952 0.74157 0.0
C3823 C 0.40229 0.45233 0.75467 0.0
C3824 C 0.37451 0.43268 0.73907 0.0
C3825 C 0.3767 0.41801 0.74991 0.0
C3826 C 0.39217 0.4215 0.76349 0.0
C3827 C 0.40495 0.43797 0.7653 0.0
C3828 C 0.36365 0.39923 0.74787 0.0
C3829 C 0.36988 0.3836 0.75403 0.0
C3830 C 0.34534 0.39608 0.741 0.0
C3831 C 0.33694 0.40809 0.72913 0.0
C3832 C 0.32502 0.41815 0.73597 0.0
C3833 C 0.31579 0.42801 0.72401 0.0
C3834 C 0.31819 0.42761 0.70509 0.0
C3835 C 0.32952 0.41702 0.69798 0.0
C3836 C 0.33863 0.407 0.70983 0.0
C3837 C 0.31767 0.32561 0.77549 0.0
C3838 C 0.30331 0.31685 0.7616 0.0
C3839 C 0.32969 0.34101 0.77213 0.0
C3840 C 0.32791 0.34789 0.75463 0.0
C3841 C 0.31355 0.33903 0.7407 0.0
C3842 C 0.30136 0.32376 0.74418 0.0
C3843 C 0.34056 0.36477 0.75129 0.0
C3844 C 0.33423 0.3794 0.74352 0.0
C3845 C 0.35879 0.36667 0.75578 0.0
C3846 C 0.36686 0.35098 0.76155 0.0
C3847 C 0.36318 0.33345 0.74988 0.0
C3848 C 0.37157 0.31906 0.75489 0.0
C3849 C 0.38365 0.32204 0.77155 0.0
C3850 C 0.38728 0.33936 0.78331 0.0
C3851 C 0.37898 0.35382 0.77833 0.0
H3852 H 0.39035 0.31104 0.77531 0.0
H3853 H 0.31105 0.43527 0.69588 0.0
H3854 H 0.16629 0.57692 0.30999 0.0
H3855 H 0.18182 0.60885 0.30839 0.0
H3856 H 0.22368 0.58595 0.28859 0.0
H3857 H 0.20743 0.55404 0.28888 0.0
H3858 H 0.20667 0.63337 0.32241 0.0
H3859 H 0.25027 0.61524 0.26725 0.0
H3860 H 0.24914 0.59176 0.23927 0.0
H3861 H 0.19332 0.58191 0.23008 0.0
H3862 H 0.19414 0.60544 0.2579 0.0
H3863 H 0.2656 0.72133 0.3218 0.0
H3864 H 0.25121 0.68918 0.32422 0.0
H3865 H 0.23528 0.67852 0.26363 0.0
H3866 H 0.25063 0.71021 0.2612 0.0
H3867 H 0.23863 0.64781 0.26965 0.0
H3868 H 0.20777 0.68607 0.30434 0.0
H3869 H 0.20138 0.70948 0.32859 0.0
H3870 H 0.22149 0.68046 0.37255 0.0
H3871 H 0.22846 0.65726 0.34862 0.0
C3872 C 0.17885 0.57861 0.30535 0.0
C3873 C 0.18565 0.56244 0.30024 0.0
C3874 C 0.18793 0.59718 0.30446 0.0
C3875 C 0.20427 0.60072 0.29812 0.0
C3876 C 0.21109 0.58444 0.2931 0.0
C3877 C 0.20187 0.56585 0.29376 0.0
C3878 C 0.21385 0.6211 0.29676 0.0
C3879 C 0.21369 0.63631 0.31082 0.0
C3880 C 0.22286 0.62601 0.28154 0.0
C3881 C 0.22228 0.61194 0.26476 0.0
C3882 C 0.23777 0.60809 0.25922 0.0
C3883 C 0.23718 0.59477 0.24341 0.0
C3884 C 0.22117 0.5853 0.23295 0.0
C3885 C 0.20571 0.58919 0.23824 0.0
C3886 C 0.20623 0.6025 0.25404 0.0
C3887 C 0.25904 0.71221 0.30892 0.0
C3888 C 0.25952 0.71896 0.29127 0.0
C3889 C 0.25047 0.69352 0.31032 0.0
C3890 C 0.24138 0.68059 0.2942 0.0
C3891 C 0.24194 0.68746 0.27657 0.0
C3892 C 0.25081 0.70598 0.27514 0.0
C3893 C 0.23166 0.66019 0.29548 0.0
C3894 C 0.23175 0.64494 0.28136 0.0
C3895 C 0.22193 0.6554 0.31023 0.0
C3896 C 0.21882 0.67005 0.32469 0.0
C3897 C 0.21109 0.68488 0.31919 0.0
C3898 C 0.20735 0.69811 0.33289 0.0
C3899 C 0.21105 0.6965 0.35211 0.0
C3900 C 0.21871 0.6818 0.35768 0.0
C3901 C 0.2226 0.66862 0.34406 0.0
H3902 H 0.20787 0.70658 0.36266 0.0
H3903 H 0.22074 0.57499 0.22071 0.0
H3904 H 0.50951 0.68848 0.41707 0.0
H3905 H 0.51293 0.6608 0.43239 0.0
H3906 H 0.51781 0.69401 0.48723 0.0
H3907 H 0.51537 0.72181 0.47195 0.0
H3908 H 0.53865 0.67347 0.49196 0.0
H3909 H 0.47926 0.65789 0.46381 0.0
H3910 H 0.45372 0.65278 0.43869 0.0
H3911 H 0.47312 0.60952 0.4075 0.0
H3912 H 0.49895 0.61457 0.4323 0.0
H3913 H 0.50316 0.56895 0.51139 0.0
H3914 H 0.49858 0.59715 0.4977 0.0
H3915 H 0.554 0.61499 0.50098 0.0
H3916 H 0.55862 0.58738 0.51556 0.0
H3917 H 0.50154 0.61047 0.46868 0.0
H3918 H 0.56744 0.66091 0.50133 0.0
H3919 H 0.58852 0.66741 0.53103 0.0
H3920 H 0.5486 0.64342 0.56105 0.0
H3921 H 0.52725 0.63699 0.53159 0.0
C3922 C 0.51129 0.68987 0.4324 0.0
C3923 C 0.51216 0.70749 0.44321 0.0
C3924 C 0.51312 0.6739 0.44124 0.0
C3925 C 0.5154 0.67489 0.46117 0.0
C3926 C 0.51617 0.69255 0.47191 0.0
C3927 C 0.51469 0.70856 0.4631 0.0
C3928 C 0.5174 0.65783 0.47089 0.0
C3929 C 0.53047 0.65973 0.48677 0.0
C3930 C 0.50655 0.63975 0.46482 0.0
C3931 C 0.49113 0.63676 0.4498 0.0
C3932 C 0.47815 0.6474 0.45151 0.0
C3933 C 0.4636 0.64449 0.43736 0.0
C3934 C 0.4618 0.63086 0.4215 0.0
C3935 C 0.47454 0.62009 0.41978 0.0
C3936 C 0.48914 0.62297 0.43388 0.0
C3937 C 0.51441 0.57906 0.50957 0.0
C3938 C 0.53129 0.57589 0.51503 0.0
C3939 C 0.51176 0.59524 0.50156 0.0
C3940 C 0.52588 0.60879 0.49851 0.0
C3941 C 0.54276 0.60541 0.50367 0.0
C3942 C 0.54542 0.58941 0.51201 0.0
C3943 C 0.52294 0.62607 0.48961 0.0
C3944 C 0.50971 0.6242 0.47387 0.0
C3945 C 0.53307 0.64439 0.49641 0.0
C3946 C 0.54581 0.64829 0.5142 0.0
C3947 C 0.56316 0.65708 0.51428 0.0
C3948 C 0.57515 0.66074 0.53107 0.0
C3949 C 0.56991 0.65577 0.5479 0.0
C3950 C 0.55265 0.64719 0.54799 0.0
C3951 C 0.54061 0.64352 0.53125 0.0
H3952 H 0.57922 0.6586 0.56088 0.0
H3953 H 0.45052 0.62863 0.41057 0.0
H3954 H 0.62234 0.2783 0.6476 0.0
H3955 H 0.65082 0.27726 0.66532 0.0
H3956 H 0.63888 0.30894 0.7145 0.0
H3957 H 0.61033 0.30984 0.69694 0.0
H3958 H 0.67292 0.32151 0.70836 0.0
H3959 H 0.63558 0.26208 0.71179 0.0
H3960 H 0.6156 0.23206 0.69822 0.0
H3961 H 0.65489 0.21492 0.66846 0.0
H3962 H 0.67503 0.24497 0.68165 0.0
H3963 H 0.73733 0.30893 0.78043 0.0
H3964 H 0.71044 0.30986 0.7601 0.0
H3965 H 0.72033 0.26687 0.71889 0.0
H3966 H 0.7469 0.26502 0.7401 0.0
H3967 H 0.68802 0.26004 0.71864 0.0
H3968 H 0.72579 0.31769 0.71457 0.0
H3969 H 0.74635 0.3478 0.7262 0.0
H3970 H 0.7076 0.36871 0.75407 0.0
H3971 H 0.68688 0.33863 0.74282 0.0
C3972 C 0.62582 0.28524 0.66213 0.0
C3973 C 0.61395 0.2942 0.67077 0.0
C3974 C 0.64212 0.28452 0.67232 0.0
C3975 C 0.64708 0.29286 0.69141 0.0
C3976 C 0.63546 0.30235 0.69985 0.0
C3977 C 0.61909 0.30286 0.68975 0.0
C3978 C 0.66416 0.29147 0.70268 0.0
C3979 C 0.67614 0.30806 0.71077 0.0
C3980 C 0.66879 0.27396 0.70536 0.0
C3981 C 0.65674 0.25585 0.69755 0.0
C3982 C 0.63991 0.25197 0.70223 0.0
C3983 C 0.62856 0.23494 0.69463 0.0
C3984 C 0.63395 0.22161 0.68244 0.0
C3985 C 0.65072 0.22527 0.67788 0.0
C3986 C 0.66211 0.24229 0.68543 0.0
C3987 C 0.73387 0.29967 0.76701 0.0
C3988 C 0.74446 0.287 0.76189 0.0
C3989 C 0.71843 0.30034 0.75521 0.0
C3990 C 0.71331 0.28888 0.73746 0.0
C3991 C 0.72384 0.27603 0.73236 0.0
C3992 C 0.73914 0.27502 0.74447 0.0
C3993 C 0.69689 0.29015 0.72459 0.0
C3994 C 0.68497 0.27354 0.71619 0.0
C3995 C 0.69245 0.30767 0.7213 0.0
C3996 C 0.70483 0.32584 0.72797 0.0
C3997 C 0.72169 0.32867 0.72327 0.0
C3998 C 0.73337 0.34573 0.72978 0.0
C3999 C 0.72829 0.36014 0.7409 0.0
C4000 C 0.71151 0.35753 0.74547 0.0
C4001 C 0.69979 0.34049 0.73901 0.0
H4002 H 0.73736 0.37334 0.74594 0.0
H4003 H 0.62515 0.20843 0.67657 0.0
H4004 H 0.02248 0.33048 0.91484 0.0
H4005 H 0.02461 0.36086 0.93387 0.0
H4006 H 0.0106 0.33298 0.98088 0.0
H4007 H 0.00902 0.30231 0.96193 0.0
H4008 H 1.00265 0.37724 0.94743 0.0
H4009 H 0.02589 0.36239 0.02287 0.0
H4010 H 0.0434 0.34218 0.03861 0.0
H4011 H 0.07163 0.33887 0.99181 0.0
H4012 H 0.05444 0.35924 0.97592 0.0
H4013 H 0.99852 0.45837 0.0108 0.0
H4014 H 0.99473 0.42519 0.9971 0.0
H4015 H 0.05039 0.43017 1.00501 0.0
H4016 H 0.05427 0.46299 0.01889 0.0
H4017 H 0.03625 0.39682 0.01225 0.0
H4018 H 0.02706 0.43337 0.9624 0.0
H4019 H 0.01357 0.45586 0.94561 0.0
H4020 H 0.96376 0.41846 0.93777 0.0
H4021 H 0.97695 0.39591 0.95507 0.0
C4022 C 0.02 0.33072 0.9293 0.0
C4023 C 0.01563 0.3138 0.9368 0.0
C4024 C 0.02113 0.34822 0.94019 0.0
C4025 C 0.01781 0.34948 0.95896 0.0
C4026 C 0.01353 0.3326 0.9666 0.0
C4027 C 0.01262 0.31499 0.95572 0.0
C4028 C 0.0186 0.36849 0.97013 0.0
C4029 C 0.00992 0.38137 0.96166 0.0
C4030 C 0.02825 0.3743 0.98866 0.0
C4031 C 0.03873 0.36214 0.99812 0.0
C4032 C 0.03586 0.35738 0.01597 0.0
C4033 C 0.04572 0.34589 0.02491 0.0
C4034 C 0.05857 0.33918 0.01618 0.0
C4035 C 0.06162 0.344 0.99852 0.0
C4036 C 0.05181 0.3555 0.98953 0.0
C4037 C 0.00995 0.45235 0.00986 0.0
C4038 C 0.0267 0.46356 0.01589 0.0
C4039 C 1.00777 0.43334 1.00192 0.0
C4040 C 0.02228 0.42507 0.99975 0.0
C4041 C 0.03895 0.43605 1.00647 0.0
C4042 C 0.04114 0.45498 0.01436 0.0
C4043 C 0.02031 0.40544 0.98952 0.0
C4044 C 0.02876 0.3925 0.99814 0.0
C4045 C 0.01091 0.39975 0.97089 0.0
C4046 C 1.00295 0.41307 0.96023 0.0
C4047 C 0.0132 0.43 0.95722 0.0
C4048 C 1.00561 0.44276 0.9476 0.0
C4049 C 0.98779 0.43862 0.9406 0.0
C4050 C 0.97755 0.42167 0.94323 0.0
C4051 C 0.98508 0.4089 0.95298 0.0
H4052 H 0.98194 0.44852 0.93314 0.0
H4053 H 0.06618 0.33029 0.02312 0.0
H4054 H 0.992 0.76482 0.13508 0.0
H4055 H 0.9681 0.76448 0.15304 0.0
H4056 H 1.00308 0.79859 0.20078 0.0
H4057 H 0.02741 0.79822 0.18303 0.0
H4058 H 0.98204 0.77432 0.21397 0.0
H4059 H 0.97214 0.81629 0.16973 0.0
H4060 H 0.96862 0.82721 0.13852 0.0
H4061 H 0.92417 0.7825 0.11888 0.0
H4062 H 0.92756 0.77116 0.1499 0.0
H4063 H 0.91094 0.79776 0.25862 0.0
H4064 H 0.93622 0.80004 0.24222 0.0
H4065 H 0.90784 0.75548 0.19857 0.0
H4066 H 0.8826 0.7529 0.21495 0.0
H4067 H 0.9259 0.78714 0.18434 0.0
H4068 H 0.93726 0.74565 0.23012 0.0
H4069 H 0.94116 0.73685 0.26226 0.0
H4070 H 0.98348 0.78424 0.28017 0.0
H4071 H 0.97967 0.79348 0.24818 0.0
C4072 C 0.99471 0.77233 0.14938 0.0
C4073 C 0.01177 0.78166 0.15747 0.0
C4074 C 0.98089 0.77223 0.15967 0.0
C4075 C 0.98349 0.78189 0.17825 0.0
C4076 C 1.00055 0.79108 0.18648 0.0
C4077 C 0.01451 0.79092 0.17626 0.0
C4078 C 0.96844 0.7821 0.189 0.0
C4079 C 0.9699 0.77745 0.20752 0.0
C4080 C 0.95235 0.78597 0.18076 0.0
C4081 C 0.9502 0.79278 0.1621 0.0
C4082 C 0.96168 0.80871 0.15872 0.0
C4083 C 0.9597 0.81499 0.14106 0.0
C4084 C 0.9462 0.80553 0.12672 0.0
C4085 C 0.93463 0.7898 0.13001 0.0
C4086 C 0.93656 0.78346 0.14763 0.0
C4087 C 0.90994 0.78853 0.24543 0.0
C4088 C 0.89444 0.7753 0.23807 0.0
C4089 C 0.92452 0.78977 0.23613 0.0
C4090 C 0.92402 0.77794 0.2191 0.0
C4091 C 0.90859 0.76482 0.21163 0.0
C4092 C 0.89411 0.76336 0.22108 0.0
C4093 C 0.93952 0.77918 0.20908 0.0
C4094 C 0.93811 0.78413 0.19073 0.0
C4095 C 0.95572 0.77595 0.21761 0.0
C4096 C 0.95806 0.77037 0.23682 0.0
C4097 C 0.9473 0.75429 0.24096 0.0
C4098 C 0.94951 0.7492 0.25914 0.0
C4099 C 0.96253 0.76001 0.27327 0.0
C4100 C 0.97339 0.7759 0.26923 0.0
C4101 C 0.97122 0.78106 0.25107 0.0
H4102 H 0.96423 0.75605 0.28734 0.0
H4103 H 0.94469 0.8104 0.11306 0.0
H4104 H 0.56045 0.30827 0.1809 0.0
H4105 H 0.57079 0.34053 0.17515 0.0
H4106 H 0.52279 0.33761 0.13749 0.0
H4107 H 0.51229 0.30582 0.1434 0.0
H4108 H 0.57746 0.35006 0.14264 0.0
H4109 H 0.51235 0.37828 0.13443 0.0
H4110 H 0.48734 0.3786 0.15137 0.0
H4111 H 0.51822 0.3707 0.20252 0.0
H4112 H 0.54351 0.37063 0.186 0.0
H4113 H 0.56339 0.39536 0.06459 0.0
H4114 H 0.56466 0.37691 0.09068 0.0
H4115 H 0.56469 0.42619 0.13015 0.0
H4116 H 0.56257 0.44457 0.10393 0.0
H4117 H 0.5416 0.39869 0.13603 0.0
H4118 H 0.60086 0.40547 0.13206 0.0
H4119 H 0.62727 0.40659 0.11729 0.0
H4120 H 0.61108 0.34783 0.09521 0.0
H4121 H 0.58443 0.34639 0.10959 0.0
C4122 C 0.55192 0.31471 0.1718 0.0
C4123 C 0.53559 0.3044 0.16249 0.0
C4124 C 0.55788 0.33312 0.16849 0.0
C4125 C 0.54753 0.34155 0.15601 0.0
C4126 C 0.5309 0.33159 0.14749 0.0
C4127 C 0.52496 0.31328 0.15075 0.0
C4128 C 0.55464 0.35963 0.14974 0.0
C4129 C 0.56979 0.36088 0.14146 0.0
C4130 C 0.54501 0.37412 0.14884 0.0
C4131 C 0.52986 0.37442 0.15893 0.0
C4132 C 0.51387 0.37678 0.14933 0.0
C4133 C 0.49962 0.37687 0.15885 0.0
C4134 C 0.50118 0.37465 0.178 0.0
C4135 C 0.51702 0.37237 0.18768 0.0
C4136 C 0.53131 0.37228 0.17823 0.0
C4137 C 0.56375 0.40231 0.07883 0.0
C4138 C 0.56275 0.42139 0.08214 0.0
C4139 C 0.56475 0.39181 0.0938 0.0
C4140 C 0.565 0.40021 0.11244 0.0
C4141 C 0.56462 0.41944 0.11591 0.0
C4142 C 0.56353 0.42995 0.1009 0.0
C4143 C 0.56366 0.3883 0.12774 0.0
C4144 C 0.5496 0.38824 0.13772 0.0
C4145 C 0.57453 0.37517 0.13058 0.0
C4146 C 0.5906 0.37585 0.12191 0.0
C4147 C 0.60287 0.3928 0.12397 0.0
C4148 C 0.6179 0.39349 0.11567 0.0
C4149 C 0.62085 0.37729 0.10531 0.0
C4150 C 0.60878 0.36036 0.10326 0.0
C4151 C 0.59373 0.35959 0.11152 0.0
H4152 H 0.63249 0.37785 0.09889 0.0
H4153 H 0.49013 0.37471 0.18534 0.0
H4154 H 0.98225 0.28058 0.33267 0.0
H4155 H 0.95233 0.27385 0.31638 0.0
H4156 H 0.94045 0.31714 0.35593 0.0
H4157 H 0.9697 0.32158 0.37383 0.0
H4158 H 0.91784 0.29024 0.35471 0.0
H4159 H 0.92995 0.31635 0.2915 0.0
H4160 H 0.94397 0.31747 0.26287 0.0
H4161 H 0.94412 0.2584 0.25943 0.0
H4162 H 0.92922 0.2568 0.28739 0.0
H4163 H 0.83648 0.30069 0.30745 0.0
H4164 H 0.86677 0.30367 0.32169 0.0
H4165 H 0.86862 0.25091 0.28887 0.0
H4166 H 0.8384 0.24792 0.27427 0.0
H4167 H 0.89529 0.27808 0.28585 0.0
H4168 H 0.86907 0.25414 0.33649 0.0
H4169 H 0.84902 0.253 0.35992 0.0
H4170 H 0.87441 0.30878 0.3864 0.0
H4171 H 0.89448 0.31036 0.36297 0.0
C4172 C 0.97325 0.2889 0.33752 0.0
C4173 C 0.9782 0.3018 0.35424 0.0
C4174 C 0.95613 0.28528 0.32798 0.0
C4175 C 0.94388 0.29516 0.33451 0.0
C4176 C 0.94942 0.30909 0.35056 0.0
C4177 C 0.9662 0.31185 0.36071 0.0
C4178 C 0.92494 0.28945 0.32665 0.0
C4179 C 0.91305 0.288 0.33961 0.0
C4180 C 0.91829 0.28527 0.30698 0.0
C4181 C 0.92923 0.28665 0.29196 0.0
C4182 C 0.93329 0.30371 0.28482 0.0
C4183 C 0.94108 0.30435 0.26852 0.0
C4184 C 0.9452 0.28809 0.25953 0.0
C4185 C 0.94116 0.27105 0.26655 0.0
C4186 C 0.93289 0.27023 0.2825 0.0
C4187 C 0.84325 0.28961 0.30338 0.0
C4188 C 0.83505 0.27411 0.28966 0.0
C4189 C 0.86054 0.29129 0.31163 0.0
C4190 C 0.86987 0.27744 0.30643 0.0
C4191 C 0.86161 0.26173 0.29308 0.0
C4192 C 0.84432 0.26004 0.2848 0.0
C4193 C 0.8886 0.28007 0.3139 0.0
C4194 C 0.90029 0.28058 0.30094 0.0
C4195 C 0.89503 0.28349 0.33351 0.0
C4196 C 0.88322 0.28241 0.34789 0.0
C4197 C 0.87033 0.2662 0.34725 0.0
C4198 C 0.85896 0.26548 0.36054 0.0
C4199 C 0.86042 0.28083 0.37461 0.0
C4200 C 0.8733 0.29691 0.37548 0.0
C4201 C 0.88469 0.29771 0.36222 0.0
H4202 H 0.85158 0.28025 0.38486 0.0
H4203 H 0.95139 0.28868 0.24703 0.0
H4204 H 0.06069 0.69576 0.67589 0.0
H4205 H 0.06427 0.66883 0.65425 0.0
H4206 H 0.03816 0.69006 0.60723 0.0
H4207 H 0.03424 0.71681 0.62879 0.0
H4208 H 0.028 0.65298 0.60415 0.0
H4209 H 0.08271 0.69698 0.61679 0.0
H4210 H 0.10854 0.71745 0.63679 0.0
H4211 H 0.12302 0.66948 0.65912 0.0
H4212 H 0.09711 0.64874 0.63946 0.0
H4213 H 0.05211 0.5992 0.52991 0.0
H4214 H 0.05542 0.62844 0.55165 0.0
H4215 H 0.07087 0.60044 0.5988 0.0
H4216 H 0.06722 0.57106 0.57724 0.0
H4217 H 0.08749 0.64111 0.60162 0.0
H4218 H 0.03181 0.59779 0.59077 0.0
H4219 H 1.00673 0.57701 0.56988 0.0
H4220 H 0.9945 0.62412 0.54404 0.0
H4221 H 0.01983 0.64513 0.56449 0.0
C4222 C 0.05548 0.69455 0.66098 0.0
C4223 C 0.04725 0.70845 0.65403 0.0
C4224 C 0.05767 0.67924 0.64862 0.0
C4225 C 0.05182 0.67767 0.62908 0.0
C4226 C 0.04288 0.69107 0.62224 0.0
C4227 C 0.04063 0.70633 0.6346 0.0
C4228 C 0.05523 0.66226 0.61566 0.0
C4229 C 0.04104 0.65059 0.60347 0.0
C4230 C 0.07223 0.65889 0.61498 0.0
C4231 C 0.08786 0.67133 0.62679 0.0
C4232 C 0.09132 0.69081 0.62608 0.0
C4233 C 0.10599 0.70246 0.63734 0.0
C4234 C 0.11739 0.69478 0.64926 0.0
C4235 C 0.11416 0.67542 0.64991 0.0
C4236 C 0.09949 0.66371 0.6387 0.0
C4237 C 0.05682 0.59942 0.5448 0.0
C4238 C 0.05917 0.58279 0.55195 0.0
C4239 C 0.0587 0.61614 0.55719 0.0
C4240 C 0.06316 0.61645 0.5768 0.0
C4241 C 0.06744 0.60043 0.5837 0.0
C4242 C 0.06533 0.58366 0.57136 0.0
C4243 C 0.06031 0.63213 0.59016 0.0
C4244 C 0.07452 0.64369 0.60234 0.0
C4245 C 0.04336 0.63546 0.59089 0.0
C4246 C 0.02782 0.62299 0.579 0.0
C4247 C 0.02386 0.60369 0.58053 0.0
C4248 C 0.00959 0.59187 0.56878 0.0
C4249 C 0.99904 0.59922 0.55561 0.0
C4250 C 1.0027 0.61844 0.55422 0.0
C4251 C 0.01702 0.63031 0.56588 0.0
H4252 H 0.988 0.59004 0.54652 0.0
H4253 H 0.12875 0.70382 0.65796 0.0
H4254 H 0.56797 0.81728 0.84185 0.0
H4255 H 0.59269 0.80744 0.82968 0.0
H4256 H 0.5955 0.76944 0.87113 0.0
H4257 H 0.57094 0.77936 0.88365 0.0
H4258 H 0.62771 0.7876 0.86665 0.0
H4259 H 0.57511 0.75316 0.82694 0.0
H4260 H 0.54667 0.75014 0.80683 0.0
H4261 H 0.5712 0.78197 0.76774 0.0
H4262 H 0.59977 0.78547 0.78782 0.0
H4263 H 0.67777 0.72968 0.82317 0.0
H4264 H 0.65335 0.73994 0.83586 0.0
H4265 H 0.65028 0.77775 0.79423 0.0
H4266 H 0.67481 0.76775 0.78162 0.0
H4267 H 0.61822 0.75972 0.79884 0.0
H4268 H 0.67059 0.79459 0.83857 0.0
H4269 H 0.69906 0.79824 0.85877 0.0
H4270 H 0.67499 0.76586 0.89778 0.0
H4271 H 0.64639 0.76181 0.87761 0.0
C4272 C 0.57393 0.80699 0.84855 0.0
C4273 C 0.56734 0.79898 0.86363 0.0
C4274 C 0.58803 0.80134 0.84152 0.0
C4275 C 0.59569 0.78749 0.84931 0.0
C4276 C 0.5897 0.7801 0.86489 0.0
C4277 C 0.57562 0.78577 0.87199 0.0
C4278 C 0.60941 0.78008 0.84065 0.0
C4279 C 0.62558 0.7813 0.85189 0.0
C4280 C 0.60667 0.77218 0.8213 0.0
C4281 C 0.58956 0.76973 0.80898 0.0
C4282 C 0.57443 0.75961 0.81412 0.0
C4283 C 0.55829 0.75781 0.80273 0.0
C4284 C 0.55713 0.7659 0.78605 0.0
C4285 C 0.57212 0.77574 0.78069 0.0
C4286 C 0.58829 0.77763 0.79206 0.0
C4287 C 0.67185 0.74015 0.8167 0.0
C4288 C 0.67825 0.748 0.80148 0.0
C4289 C 0.65792 0.74597 0.82395 0.0
C4290 C 0.65023 0.75982 0.81616 0.0
C4291 C 0.65608 0.76708 0.80045 0.0
C4292 C 0.67003 0.76128 0.79321 0.0
C4293 C 0.63651 0.76723 0.82484 0.0
C4294 C 0.62034 0.76601 0.8136 0.0
C4295 C 0.63925 0.77514 0.84419 0.0
C4296 C 0.65639 0.77774 0.85647 0.0
C4297 C 0.67139 0.78814 0.85137 0.0
C4298 C 0.68755 0.7903 0.86283 0.0
C4299 C 0.68885 0.78224 0.87953 0.0
C4300 C 0.67397 0.77207 0.88482 0.0
C4301 C 0.65778 0.76985 0.87339 0.0
H4302 H 0.70137 0.78392 0.88838 0.0
H4303 H 0.54461 0.76451 0.77726 0.0
H4304 H 0.47997 0.51798 0.7236 0.0
H4305 H 0.49263 0.52264 0.69486 0.0
H4306 H 0.44387 0.49479 0.66045 0.0
H4307 H 0.43099 0.49032 0.68926 0.0
H4308 H 0.47371 0.48315 0.64754 0.0
H4309 H 0.45388 0.54036 0.66418 0.0
H4310 H 0.4512 0.56822 0.68563 0.0
H4311 H 0.50656 0.58783 0.69409 0.0
H4312 H 0.5096 0.55993 0.6729 0.0
H4313 H 0.502 0.50955 0.56194 0.0
H4314 H 0.4847 0.50443 0.58743 0.0
H4315 H 0.52586 0.54129 0.6274 0.0
H4316 H 0.54266 0.54694 0.60192 0.0
H4317 H 0.4972 0.54791 0.63613 0.0
H4318 H 0.51807 0.49087 0.622 0.0
H4319 H 0.52206 0.46289 0.60162 0.0
H4320 H 0.46675 0.4427 0.5897 0.0
H4321 H 0.46242 0.47071 0.60979 0.0
C4322 C 0.4719 0.5128 0.70994 0.0
C4323 C 0.4544 0.50381 0.70884 0.0
C4324 C 0.47918 0.51552 0.69347 0.0
C4325 C 0.46924 0.50916 0.67537 0.0
C4326 C 0.45186 0.49983 0.67418 0.0
C4327 C 0.44448 0.49735 0.6907 0.0
C4328 C 0.477 0.51266 0.65783 0.0
C4329 C 0.4786 0.49732 0.64488 0.0
C4330 C 0.48377 0.5311 0.65444 0.0
C4331 C 0.48198 0.54796 0.66708 0.0
C4332 C 0.4655 0.55053 0.67073 0.0
C4333 C 0.46391 0.56635 0.68282 0.0
C4334 C 0.47871 0.57977 0.69125 0.0
C4335 C 0.49512 0.57742 0.68757 0.0
C4336 C 0.49678 0.56162 0.6755 0.0
C4337 C 0.50717 0.51684 0.57605 0.0
C4338 C 0.52367 0.5288 0.57974 0.0
C4339 C 0.49737 0.51371 0.59077 0.0
C4340 C 0.50396 0.52224 0.60962 0.0
C4341 C 0.52031 0.53449 0.61313 0.0
C4342 C 0.52998 0.5377 0.59846 0.0
C4343 C 0.49422 0.5184 0.62584 0.0
C4344 C 0.49223 0.5337 0.63862 0.0
C4345 C 0.48732 0.49991 0.62918 0.0
C4346 C 0.48991 0.48299 0.61723 0.0
C4347 C 0.50675 0.48053 0.61492 0.0
C4348 C 0.50908 0.46466 0.60343 0.0
C4349 C 0.49466 0.45106 0.59433 0.0
C4350 C 0.4779 0.45327 0.59673 0.0
C4351 C 0.4755 0.46914 0.60817 0.0
H4352 H 0.49647 0.43877 0.58546 0.0
H4353 H 0.47746 0.592 0.70061 0.0
H4354 H 0.82396 0.1943 0.03191 0.0
H4355 H 0.8125 0.211 0.00718 0.0
H4356 H 0.77712 0.15982 0.98018 0.0
H4357 H 0.78872 0.14285 1.00463 0.0
H4358 H 0.79205 0.17753 0.95474 0.0
H4359 H 0.76265 0.19478 1.00564 0.0
H4360 H 0.75989 0.20651 0.0384 0.0
H4361 H 0.79096 0.26016 0.03432 0.0
H4362 H 0.79414 0.24867 1.00161 0.0
H4363 H 0.75034 0.22596 0.88906 0.0
H4364 H 0.75319 0.20795 0.9156 0.0
H4365 H 0.79215 0.25401 0.94755 0.0
H4366 H 0.7892 0.27212 0.92123 0.0
H4367 H 0.77157 0.23697 0.97031 0.0
H4368 H 0.80356 0.21787 0.92074 0.0
H4369 H 0.80582 0.20619 0.88777 0.0
H4370 H 0.76899 0.15561 0.88951 0.0
H4371 H 0.76634 0.16713 0.92242 0.0
C4372 C 0.81375 0.18655 0.02072 0.0
C4373 C 0.80725 0.16722 0.02031 0.0
C4374 C 0.80713 0.19616 1.00666 0.0
C4375 C 0.79374 0.18672 0.99203 0.0
C4376 C 0.78739 0.16739 0.9914 0.0
C4377 C 0.79406 0.15772 1.0054 0.0
C4378 C 0.78675 0.19696 0.9771 0.0
C4379 C 0.78726 0.19033 0.95813 0.0
C4380 C 0.78069 0.21378 0.98155 0.0
C4381 C 0.77874 0.2208 1.0012 0.0
C4382 C 0.769 0.20903 0.01177 0.0
C4383 C 0.76734 0.21565 0.03033 0.0
C4384 C 0.77527 0.23405 0.03845 0.0
C4385 C 0.78484 0.2459 0.02801 0.0
C4386 C 0.78655 0.23935 0.00945 0.0
C4387 C 0.75931 0.23231 0.90187 0.0
C4388 C 0.76968 0.25034 0.90305 0.0
C4389 C 0.76092 0.22204 0.917 0.0
C4390 C 0.77311 0.22953 0.93338 0.0
C4391 C 0.78267 0.24798 0.93503 0.0
C4392 C 0.78096 0.25831 0.91999 0.0
C4393 C 0.77716 0.21768 0.94807 0.0
C4394 C 0.77612 0.22402 0.96696 0.0
C4395 C 0.78269 0.20055 0.94357 0.0
C4396 C 0.78463 0.19343 0.92396 0.0
C4397 C 0.79589 0.2043 0.91406 0.0
C4398 C 0.79724 0.19771 0.89538 0.0
C4399 C 0.78752 0.18019 0.88653 0.0
C4400 C 0.77649 0.16919 0.89637 0.0
C4401 C 0.77507 0.17573 0.91504 0.0
H4402 H 0.78856 0.17512 0.87207 0.0
H4403 H 0.77397 0.23915 0.05282 0.0
H4404 H 0.15825 0.51441 0.22422 0.0
H4405 H 0.14294 0.51589 0.19256 0.0
H4406 H 0.09393 0.49648 0.21053 0.0
H4407 H 0.1093 0.49453 0.24202 0.0
H4408 H 0.0895 0.48143 0.17628 0.0
H4409 H 0.11298 0.54628 0.20198 0.0
H4410 H 0.13615 0.57364 0.21619 0.0
H4411 H 0.16208 0.56652 0.16794 0.0
H4412 H 0.13916 0.53897 0.15355 0.0
H4413 H 0.03299 0.50601 0.10149 0.0
H4414 H 0.05097 0.50394 0.13107 0.0
H4415 H 0.09709 0.52047 0.10663 0.0
H4416 H 0.07873 0.52303 0.07664 0.0
H4417 H 0.10439 0.53645 0.14295 0.0
H4418 H 0.08062 0.47252 0.11669 0.0
H4419 H 0.05784 0.44483 0.10246 0.0
H4420 H 0.03292 0.44985 0.15171 0.0
H4421 H 0.05544 0.47773 0.16614 0.0
C4422 C 0.1442 0.51032 0.22153 0.0
C4423 C 0.13531 0.50425 0.23626 0.0
C4424 C 0.13525 0.5114 0.20315 0.0
C4425 C 0.11681 0.50673 0.19841 0.0
C4426 C 0.10799 0.50033 0.21309 0.0
C4427 C 0.11694 0.4992 0.23143 0.0
C4428 C 0.10678 0.50826 0.17852 0.0
C4429 C 0.09277 0.4937 0.16931 0.0
C4430 C 0.11079 0.52379 0.16829 0.0
C4431 C 0.12445 0.54045 0.17679 0.0
C4432 C 0.12367 0.5505 0.19445 0.0
C4433 C 0.13676 0.56604 0.20253 0.0
C4434 C 0.15061 0.57178 0.193 0.0
C4435 C 0.15136 0.56204 0.17533 0.0
C4436 C 0.13832 0.54646 0.16719 0.0
C4437 C 0.04697 0.50911 0.1021 0.0
C4438 C 0.05403 0.51445 0.08596 0.0
C4439 C 0.05746 0.50779 0.11937 0.0
C4440 C 0.07584 0.51158 0.12178 0.0
C4441 C 0.08309 0.51722 0.10574 0.0
C4442 C 0.07246 0.51855 0.08825 0.0
C4443 C 0.087 0.50973 0.1409 0.0
C4444 C 0.10117 0.5242 0.14994 0.0
C4445 C 0.08318 0.49409 0.151 0.0
C4446 C 0.06964 0.47732 0.14242 0.0
C4447 C 0.07022 0.46779 0.12443 0.0
C4448 C 0.05736 0.45205 0.11634 0.0
C4449 C 0.04392 0.44561 0.12616 0.0
C4450 C 0.04333 0.45487 0.14411 0.0
C4451 C 0.05615 0.47063 0.15226 0.0
H4452 H 0.03397 0.43343 0.11987 0.0
H4453 H 0.16074 0.5838 0.1993 0.0
H4454 H 0.79853 0.84612 0.50232 0.0
H4455 H 0.79582 0.82724 0.47108 0.0
H4456 H 0.80658 0.87811 0.44601 0.0
H4457 H 0.80884 0.89687 0.47673 0.0
H4458 H 0.78194 0.85544 0.42355 0.0
H4459 H 0.83743 0.84902 0.45559 0.0
H4460 H 0.85756 0.8409 0.48118 0.0
H4461 H 0.82961 0.78355 0.47035 0.0
H4462 H 0.80917 0.79138 0.44484 0.0
H4463 H 0.82161 0.79956 0.34688 0.0
H4464 H 0.82372 0.81474 0.37959 0.0
H4465 H 0.76785 0.80169 0.37462 0.0
H4466 H 0.76561 0.78688 0.34193 0.0
H4467 H 0.81515 0.80494 0.41215 0.0
H4468 H 0.7535 0.83645 0.39885 0.0
H4469 H 0.73593 0.84679 0.37253 0.0
H4470 H 0.78078 0.8583 0.34504 0.0
H4471 H 0.79865 0.84825 0.37128 0.0
C4472 C 0.80028 0.85329 0.49015 0.0
C4473 C 0.80389 0.87312 0.49226 0.0
C4474 C 0.79883 0.84244 0.47223 0.0
C4475 C 0.80113 0.85113 0.45597 0.0
C4476 C 0.80465 0.8709 0.45812 0.0
C4477 C 0.80599 0.88168 0.47589 0.0
C4478 C 0.79983 0.83995 0.43666 0.0
C4479 C 0.78917 0.84434 0.42119 0.0
C4480 C 0.80939 0.82558 0.43319 0.0
C4481 C 0.82168 0.82083 0.44845 0.0
C4482 C 0.83551 0.83471 0.45876 0.0
C4483 C 0.84698 0.83015 0.47323 0.0
C4484 C 0.84483 0.81173 0.47742 0.0
C4485 C 0.83124 0.79782 0.46711 0.0
C4486 C 0.81971 0.8023 0.45264 0.0
C4487 C 0.80976 0.79978 0.35277 0.0
C4488 C 0.79343 0.79206 0.34156 0.0
C4489 C 0.81099 0.80846 0.37157 0.0
C4490 C 0.79595 0.80971 0.37967 0.0
C4491 C 0.77968 0.80133 0.36873 0.0
C4492 C 0.77843 0.79275 0.34995 0.0
C4493 C 0.79718 0.82038 0.39918 0.0
C4494 C 0.80782 0.81592 0.41463 0.0
C4495 C 0.7879 0.835 0.40261 0.0
C4496 C 0.77735 0.84142 0.38694 0.0
C4497 C 0.75962 0.84127 0.38722 0.0
C4498 C 0.74961 0.84706 0.37231 0.0
C4499 C 0.75722 0.85314 0.3571 0.0
C4500 C 0.77488 0.85352 0.3568 0.0
C4501 C 0.78495 0.84777 0.37168 0.0
H4502 H 0.74944 0.85759 0.34556 0.0
H4503 H 0.85373 0.80824 0.48863 0.0
H4504 H 0.47414 0.50125 0.80706 0.0
H4505 H 0.4917 0.50405 0.83857 0.0
H4506 H 0.44712 0.51149 0.86477 0.0
H4507 H 0.42973 0.50897 0.83376 0.0
H4508 H 0.4745 0.53529 0.88373 0.0
H4509 H 0.46091 0.46893 0.86022 0.0
H4510 H 0.46028 0.44065 0.83755 0.0
H4511 H 0.5161 0.4526 0.84496 0.0
H4512 H 0.51704 0.48111 0.86749 0.0
H4513 H 0.50837 0.48429 0.96703 0.0
H4514 H 0.49524 0.48294 0.93389 0.0
H4515 H 0.52245 0.53984 0.93406 0.0
H4516 H 0.53476 0.54156 0.96737 0.0
H4517 H 0.50485 0.48458 0.90138 0.0
H4518 H 0.50079 0.56277 0.90525 0.0
H4519 H 0.49968 0.58942 0.92928 0.0
H4520 H 0.47468 0.55098 0.96276 0.0
H4521 H 0.47551 0.52415 0.93888 0.0
C4522 C 0.4681 0.50357 0.81953 0.0
C4523 C 0.45042 0.50482 0.81767 0.0
C4524 C 0.47816 0.5051 0.83759 0.0
C4525 C 0.47077 0.50788 0.85421 0.0
C4526 C 0.45324 0.50943 0.85231 0.0
C4527 C 0.44324 0.50788 0.83441 0.0
C4528 C 0.48094 0.50886 0.87362 0.0
C4529 C 0.48123 0.52423 0.8875 0.0
C4530 C 0.48957 0.49439 0.87885 0.0
C4531 C 0.48904 0.47725 0.86537 0.0
C4532 C 0.47304 0.4656 0.8569 0.0
C4533 C 0.47263 0.44952 0.84409 0.0
C4534 C 0.48814 0.44486 0.83977 0.0
C4535 C 0.5041 0.45625 0.84829 0.0
C4536 C 0.50458 0.47236 0.86108 0.0
C4537 C 0.51158 0.49649 0.95997 0.0
C4538 C 0.52247 0.5131 0.96995 0.0
C4539 C 0.50409 0.4957 0.94095 0.0
C4540 C 0.50746 0.51142 0.93137 0.0
C4541 C 0.5191 0.52767 0.94111 0.0
C4542 C 0.52626 0.52861 0.96021 0.0
C4543 C 0.4984 0.511 0.91151 0.0
C4544 C 0.49829 0.49574 0.89756 0.0
C4545 C 0.4896 0.52539 0.9063 0.0
C4546 C 0.48834 0.54147 0.92034 0.0
C4547 C 0.49494 0.56003 0.91767 0.0
C4548 C 0.4944 0.57516 0.93129 0.0
C4549 C 0.48716 0.57188 0.94755 0.0
C4550 C 0.48033 0.55349 0.95018 0.0
C4551 C 0.48083 0.53833 0.93662 0.0
H4552 H 0.4868 0.58358 0.9581 0.0
H4553 H 0.4878 0.4324 0.82986 0.0
H4554 H 0.87473 0.21227 0.10634 0.0
H4555 H 0.87876 0.23507 0.13506 0.0
H4556 H 0.85581 0.19101 0.16456 0.0
H4557 H 0.85285 0.1682 0.13646 0.0
H4558 H 0.85203 0.24345 0.14469 0.0
H4559 H 0.85833 0.20332 0.21105 0.0
H4560 H 0.87666 0.18263 0.22435 0.0
H4561 H 0.91664 0.20357 0.19303 0.0
H4562 H 0.89872 0.22467 0.17976 0.0
H4563 H 0.79346 0.25884 0.20495 0.0
H4564 H 0.81208 0.24441 0.18563 0.0
H4565 H 0.85766 0.27531 0.22395 0.0
H4566 H 0.83901 0.28959 0.2435 0.0
H4567 H 0.85918 0.23753 0.21313 0.0
H4568 H 0.84968 0.29072 0.18408 0.0
H4569 H 0.83249 0.31264 0.17113 0.0
H4570 H 0.80285 0.26798 0.12866 0.0
H4571 H 0.81969 0.24571 0.14152 0.0
C4572 C 0.87137 0.20734 0.11925 0.0
C4573 C 0.86314 0.18857 0.11907 0.0
C4574 C 0.87362 0.22038 0.13567 0.0
C4575 C 0.86732 0.21491 0.15197 0.0
C4576 C 0.86101 0.19571 0.15237 0.0
C4577 C 0.85919 0.1826 0.13613 0.0
C4578 C 0.86343 0.2292 0.16639 0.0
C4579 C 0.854 0.24232 0.15969 0.0
C4580 C 0.86607 0.22805 0.18609 0.0
C4581 C 0.87706 0.21554 0.19426 0.0
C4582 C 0.87106 0.20363 0.20705 0.0
C4583 C 0.88137 0.19178 0.21458 0.0
C4584 C 0.89776 0.19172 0.20948 0.0
C4585 C 0.90391 0.20357 0.19691 0.0
C4586 C 0.89366 0.21547 0.18935 0.0
C4587 C 0.80745 0.26248 0.20923 0.0
C4588 C 0.81485 0.27528 0.2256 0.0
C4589 C 0.81805 0.25431 0.19822 0.0
C4590 C 0.83623 0.25893 0.20333 0.0
C4591 C 0.84367 0.2716 0.2198 0.0
C4592 C 0.83304 0.27985 0.2308 0.0
C4593 C 0.84728 0.25072 0.19104 0.0
C4594 C 0.85786 0.23885 0.19817 0.0
C4595 C 0.846 0.25316 0.17176 0.0
C4596 C 0.83592 0.26653 0.16381 0.0
C4597 C 0.83943 0.28555 0.17204 0.0
C4598 C 0.82975 0.29804 0.16471 0.0
C4599 C 0.81658 0.2917 0.14909 0.0
C4600 C 0.81307 0.27287 0.14075 0.0
C4601 C 0.8227 0.26031 0.14803 0.0
H4602 H 0.80909 0.3014 0.14344 0.0
H4603 H 0.90571 0.18252 0.21531 0.0
H4604 H 0.11986 0.51258 0.33505 0.0
H4605 H 0.10388 0.51511 0.36206 0.0
H4606 H 0.15046 0.51501 0.40041 0.0
H4607 H 0.16634 0.51252 0.37359 0.0
H4608 H 0.12575 0.49635 0.41536 0.0
H4609 H 0.12934 0.5565 0.39361 0.0
H4610 H 0.12508 0.57833 0.37048 0.0
H4611 H 0.0699 0.55736 0.36183 0.0
H4612 H 0.07386 0.53523 0.38475 0.0
H4613 H 0.09415 0.52495 0.50251 0.0
H4614 H 0.1094 0.52178 0.47511 0.0
H4615 H 0.06341 0.52644 0.43813 0.0
H4616 H 0.04829 0.52987 0.46555 0.0
H4617 H 0.08743 0.54243 0.42213 0.0
H4618 H 0.08278 0.48156 0.44134 0.0
H4619 H 0.0857 0.45811 0.46301 0.0
H4620 H 0.14089 0.47905 0.47556 0.0
H4621 H 0.13831 0.50247 0.45371 0.0
C4622 C 0.12683 0.51298 0.34915 0.0
C4623 C 0.1448 0.51219 0.35138 0.0
C4624 C 0.11755 0.51465 0.365 0.0
C4625 C 0.12554 0.5156 0.38421 0.0
C4626 C 0.14338 0.5144 0.38631 0.0
C4627 C 0.15267 0.51294 0.37056 0.0
C4628 C 0.11571 0.51783 0.40187 0.0
C4629 C 0.11761 0.50671 0.41671 0.0
C4630 C 0.10434 0.5308 0.40446 0.0
C4631 C 0.10192 0.54408 0.39073 0.0
C4632 C 0.11631 0.55646 0.38668 0.0
C4633 C 0.11394 0.5689 0.37362 0.0
C4634 C 0.09723 0.5692 0.36465 0.0
C4635 C 0.08284 0.55709 0.36876 0.0
C4636 C 0.08513 0.5446 0.38179 0.0
C4637 C 0.08712 0.52534 0.48861 0.0
C4638 C 0.06958 0.52774 0.48697 0.0
C4639 C 0.09598 0.52328 0.47251 0.0
C4640 C 0.08795 0.52342 0.45354 0.0
C4641 C 0.07051 0.52614 0.45201 0.0
C4642 C 0.06164 0.52812 0.46808 0.0
C4643 C 0.0975 0.52099 0.43566 0.0
C4644 C 0.09557 0.53208 0.42079 0.0
C4645 C 0.10867 0.50782 0.43291 0.0
C4646 C 0.11033 0.49387 0.44606 0.0
C4647 C 0.09553 0.48121 0.44879 0.0
C4648 C 0.09712 0.46791 0.46107 0.0
C4649 C 0.11345 0.4672 0.47079 0.0
C4650 C 0.12824 0.47966 0.46807 0.0
C4651 C 0.12674 0.49288 0.45567 0.0
H4652 H 0.11463 0.45694 0.48036 0.0
H4653 H 0.09542 0.57884 0.35455 0.0
H4654 H 0.79712 0.83638 0.58541 0.0
H4655 H 0.79446 0.82075 0.61342 0.0
H4656 H 0.80904 0.87458 0.64913 0.0
H4657 H 0.81216 0.89031 0.62102 0.0
H4658 H 0.82366 0.85049 0.66669 0.0
H4659 H 0.76539 0.84886 0.63727 0.0
H4660 H 0.74043 0.84227 0.61126 0.0
H4661 H 0.74165 0.78334 0.60564 0.0
H4662 H 0.76676 0.78961 0.63148 0.0
H4663 H 0.75923 0.798 0.72749 0.0
H4664 H 0.76563 0.81435 0.7009 0.0
H4665 H 0.81626 0.79971 0.70598 0.0
H4666 H 0.80999 0.78379 0.73342 0.0
H4667 H 0.76963 0.80446 0.66801 0.0
H4668 H 0.84408 0.82941 0.68454 0.0
H4669 H 0.86765 0.83932 0.71201 0.0
H4670 H 0.83152 0.85666 0.74642 0.0
H4671 H 0.80777 0.84699 0.71913 0.0
C4672 C 0.79978 0.84498 0.59919 0.0
C4673 C 0.80476 0.86472 0.60076 0.0
C4674 C 0.79817 0.83596 0.61533 0.0
C4675 C 0.80125 0.84634 0.63367 0.0
C4676 C 0.80653 0.86607 0.63531 0.0
C4677 C 0.80824 0.87512 0.61913 0.0
C4678 C 0.79862 0.83665 0.65093 0.0
C4679 C 0.81183 0.8404 0.66691 0.0
C4680 C 0.78316 0.82357 0.65168 0.0
C4681 C 0.76806 0.81973 0.63617 0.0
C4682 C 0.76041 0.83451 0.6304 0.0
C4683 C 0.74622 0.83083 0.6157 0.0
C4684 C 0.73949 0.8124 0.60677 0.0
C4685 C 0.7469 0.79761 0.61255 0.0
C4686 C 0.7611 0.80122 0.62723 0.0
C4687 C 0.77181 0.79829 0.72307 0.0
C4688 C 0.78404 0.78945 0.73269 0.0
C4689 C 0.77546 0.80766 0.70768 0.0
C4690 C 0.79149 0.80852 0.70108 0.0
C4691 C 0.80386 0.79971 0.71073 0.0
C4692 C 0.80025 0.79045 0.72643 0.0
C4693 C 0.79467 0.81823 0.68391 0.0
C4694 C 0.78154 0.81446 0.66785 0.0
C4695 C 0.81002 0.83158 0.68331 0.0
C4696 C 0.82414 0.83732 0.69984 0.0
C4697 C 0.84119 0.83537 0.69797 0.0
C4698 C 0.85457 0.84094 0.7135 0.0
C4699 C 0.85109 0.84864 0.73093 0.0
C4700 C 0.83419 0.85071 0.7329 0.0
C4701 C 0.82076 0.84513 0.71742 0.0
H4702 H 0.86148 0.85298 0.74292 0.0
H4703 H 0.72851 0.80958 0.5954 0.0
H4704 H 0.70439 0.4109 0.47425 0.0
H4705 H 0.68191 0.4212 0.49043 0.0
H4706 H 0.68668 0.38048 0.52873 0.0
H4707 H 0.70926 0.37002 0.51261 0.0
H4708 H 0.65025 0.40601 0.50088 0.0
H4709 H 0.6887 0.40598 0.57356 0.0
H4710 H 0.71813 0.40353 0.58815 0.0
H4711 H 0.73998 0.4303 0.54432 0.0
H4712 H 0.71074 0.43319 0.52969 0.0
H4713 H 0.60722 0.45861 0.55836 0.0
H4714 H 0.62237 0.43246 0.55364 0.0
H4715 H 0.66949 0.47194 0.55134 0.0
H4716 H 0.65447 0.49806 0.5564 0.0
H4717 H 0.67657 0.44007 0.56504 0.0
H4718 H 0.63942 0.45688 0.51173 0.0
H4719 H 0.61105 0.46136 0.4961 0.0
H4720 H 0.58833 0.40393 0.49909 0.0
H4721 H 0.61654 0.39919 0.51498 0.0
C4722 C 0.70034 0.40376 0.48578 0.0
C4723 C 0.70879 0.38986 0.49232 0.0
C4724 C 0.68742 0.4096 0.49495 0.0
C4725 C 0.68285 0.40177 0.51092 0.0
C4726 C 0.69015 0.38676 0.5165 0.0
C4727 C 0.70302 0.38079 0.50722 0.0
C4728 C 0.67246 0.41128 0.52303 0.0
C4729 C 0.65581 0.41309 0.51509 0.0
C4730 C 0.67982 0.42064 0.54149 0.0
C4731 C 0.69753 0.41956 0.55044 0.0
C4732 C 0.69981 0.41141 0.56711 0.0
C4733 C 0.71645 0.40995 0.57537 0.0
C4734 C 0.73091 0.4167 0.56712 0.0
C4735 C 0.72877 0.42504 0.55066 0.0
C4736 C 0.71217 0.42659 0.54238 0.0
C4737 C 0.62098 0.46167 0.55751 0.0
C4738 C 0.62966 0.48025 0.55738 0.0
C4739 C 0.62961 0.44676 0.55486 0.0
C4740 C 0.64692 0.45027 0.55169 0.0
C4741 C 0.65611 0.46894 0.55371 0.0
C4742 C 0.64753 0.48387 0.55657 0.0
C4743 C 0.65447 0.43504 0.54276 0.0
C4744 C 0.67065 0.43228 0.55122 0.0
C4745 C 0.64679 0.42501 0.52463 0.0
C4746 C 0.63 0.42774 0.51468 0.0
C4747 C 0.62835 0.44524 0.50909 0.0
C4748 C 0.61232 0.44783 0.5002 0.0
C4749 C 0.5979 0.43296 0.49664 0.0
C4750 C 0.59951 0.41544 0.50189 0.0
C4751 C 0.61551 0.41279 0.51083 0.0
H4752 H 0.58549 0.43501 0.48978 0.0
H4753 H 0.74377 0.4155 0.5735 0.0
H4754 H 0.22352 0.10193 0.50873 0.0
H4755 H 0.19506 0.08312 0.51039 0.0
H4756 H 0.1705 0.12731 0.49173 0.0
H4757 H 0.19914 0.14619 0.4902 0.0
H4758 H 0.15692 0.11732 0.51995 0.0
H4759 H 0.15148 0.06945 0.45953 0.0
H4760 H 0.15771 0.04335 0.43826 0.0
H4761 H 0.18423 0.02399 0.48595 0.0
H4762 H 0.17745 0.04953 0.50752 0.0
H4763 H 0.06938 0.06147 0.5117 0.0
H4764 H 0.09677 0.08168 0.50784 0.0
H4765 H 0.12489 0.03959 0.5254 0.0
H4766 H 0.09761 0.01926 0.52832 0.0
H4767 H 0.13569 0.04941 0.49658 0.0
H4768 H 0.12619 0.08653 0.55284 0.0
H4769 H 0.10905 0.10443 0.57149 0.0
H4770 H 0.10736 0.14248 0.53034 0.0
H4771 H 0.12437 0.1247 0.51135 0.0
C4772 C 0.21203 0.10733 0.5042 0.0
C4773 C 0.21372 0.12541 0.49874 0.0
C4774 C 0.19558 0.09649 0.50519 0.0
C4775 C 0.18021 0.10339 0.50086 0.0
C4776 C 0.18192 0.12139 0.4951 0.0
C4777 C 0.19838 0.13223 0.49414 0.0
C4778 C 0.16274 0.09286 0.50416 0.0
C4779 C 0.15229 0.10249 0.5146 0.0
C4780 C 0.15633 0.07338 0.49773 0.0
C4781 C 0.16462 0.06182 0.48501 0.0
C4782 C 0.15913 0.05997 0.46537 0.0
C4783 C 0.16232 0.04497 0.45334 0.0
C4784 C 0.17135 0.032 0.46075 0.0
C4785 C 0.17729 0.03407 0.48022 0.0
C4786 C 0.17377 0.0488 0.49235 0.0
C4787 C 0.08148 0.05674 0.51505 0.0
C4788 C 0.08131 0.03877 0.52041 0.0
C4789 C 0.09722 0.06835 0.51289 0.0
C4790 C 0.11322 0.06242 0.51645 0.0
C4791 C 0.11293 0.04467 0.5224 0.0
C4792 C 0.09725 0.03299 0.52415 0.0
C4793 C 0.13013 0.07366 0.51265 0.0
C4794 C 0.1404 0.06423 0.50206 0.0
C4795 C 0.13623 0.09321 0.51896 0.0
C4796 C 0.12644 0.1042 0.53062 0.0
C4797 C 0.12212 0.09868 0.54775 0.0
C4798 C 0.11243 0.10881 0.55838 0.0
C4799 C 0.10709 0.12456 0.55208 0.0
C4800 C 0.1115 0.13028 0.53519 0.0
C4801 C 0.12119 0.1202 0.52451 0.0
H4802 H 0.09955 0.13235 0.56031 0.0
H4803 H 0.17385 0.02043 0.45139 0.0
H4804 H 0.14779 0.98365 0.7727 0.0
H4805 H 0.15731 0.95346 0.76745 0.0
H4806 H 0.18252 0.9623 0.8257 0.0
H4807 H 0.17337 0.99229 0.83088 0.0
H4808 H 0.20461 0.95557 0.80288 0.0
H4809 H 0.14579 0.92777 0.80806 0.0
H4810 H 0.11383 0.9209 0.79976 0.0
H4811 H 0.11749 0.8968 0.74346 0.0
H4812 H 0.14951 0.90381 0.75132 0.0
H4813 H 0.23423 0.87305 0.81352 0.0
H4814 H 0.21519 0.89572 0.81635 0.0
H4815 H 0.19717 0.88386 0.75609 0.0
H4816 H 0.21632 0.86115 0.75312 0.0
H4817 H 0.17075 0.89148 0.77707 0.0
H4818 H 0.22916 0.91963 0.77157 0.0
H4819 H 0.26112 0.92579 0.77975 0.0
H4820 H 0.25793 0.94927 0.83642 0.0
H4821 H 0.2259 0.94296 0.82866 0.0
C4822 C 0.15499 0.97889 0.78448 0.0
C4823 C 0.15995 0.99047 0.80216 0.0
C4824 C 0.16045 0.96163 0.78146 0.0
C4825 C 0.17077 0.9556 0.79615 0.0
C4826 C 0.17475 0.96667 0.81407 0.0
C4827 C 0.16946 0.98384 0.81703 0.0
C4828 C 0.17893 0.93885 0.79274 0.0
C4829 C 0.1971 0.94154 0.79745 0.0
C4830 C 0.16931 0.92058 0.785 0.0
C4831 C 0.15007 0.91656 0.7802 0.0
C4832 C 0.1398 0.92121 0.79383 0.0
C4833 C 0.12167 0.91724 0.78922 0.0
C4834 C 0.11364 0.90849 0.77107 0.0
C4835 C 0.12373 0.90363 0.7575 0.0
C4836 C 0.14187 0.9076 0.76202 0.0
C4837 C 0.22608 0.87509 0.80087 0.0
C4838 C 0.22713 0.8656 0.78303 0.0
C4839 C 0.21513 0.888 0.80253 0.0
C4840 C 0.20503 0.89182 0.78637 0.0
C4841 C 0.20493 0.88125 0.76874 0.0
C4842 C 0.21589 0.86824 0.76707 0.0
C4843 C 0.19625 0.90824 0.78775 0.0
C4844 C 0.17813 0.90554 0.78249 0.0
C4845 C 0.20585 0.9266 0.79493 0.0
C4846 C 0.22513 0.93067 0.79957 0.0
C4847 C 0.23526 0.92599 0.78581 0.0
C4848 C 0.25339 0.92952 0.79037 0.0
C4849 C 0.26155 0.93788 0.80861 0.0
C4850 C 0.25159 0.94277 0.82231 0.0
C4851 C 0.23345 0.93924 0.81783 0.0
H4852 H 0.27558 0.94059 0.81211 0.0
H4853 H 0.0996 0.9054 0.76754 0.0
H4854 H 0.26933 0.93015 1.001 0.0
H4855 H 0.29649 0.95339 1.00451 0.0
H4856 H 0.31438 0.91798 0.96225 0.0
H4857 H 0.287 0.89496 0.95841 0.0
H4858 H 0.3268 0.94293 0.01762 0.0
H4859 H 0.33594 0.93648 0.94275 0.0
H4860 H 0.32392 0.94073 0.91037 0.0
H4861 H 0.30319 0.98737 0.93319 0.0
H4862 H 0.31459 0.98289 0.9657 0.0
H4863 H 0.41636 0.95439 0.013 0.0
H4864 H 0.38476 0.94537 0.01002 0.0
H4865 H 0.37972 1.00022 0.99602 0.0
H4866 H 0.41141 0.00922 0.99863 0.0
H4867 H 0.35902 0.97243 0.97065 0.0
H4868 H 0.37028 0.98819 0.03778 0.0
H4869 H 0.38489 0.9881 0.07027 0.0
H4870 H 0.36624 0.92841 0.06499 0.0
H4871 H 0.35175 0.92807 0.03234 0.0
C4872 C 0.27875 0.92779 0.99185 0.0
C4873 C 0.27598 0.91106 0.97909 0.0
C4874 C 0.29428 0.941 0.99394 0.0
C4875 C 0.30737 0.93757 0.98345 0.0
C4876 C 0.30429 0.9212 0.9701 0.0
C4877 C 0.28875 0.90798 0.96803 0.0
C4878 C 0.3252 0.94904 0.98889 0.0
C4879 C 0.33381 0.94956 0.00741 0.0
C4880 C 0.33431 0.95789 0.97574 0.0
C4881 C 0.32581 0.95916 0.95653 0.0
C4882 C 0.32853 0.9474 0.94081 0.0
C4883 C 0.32186 0.94986 0.92246 0.0
C4884 C 0.3128 0.96432 0.91972 0.0
C4885 C 0.31021 0.97618 0.93533 0.0
C4886 C 0.31654 0.97351 0.95371 0.0
C4887 C 0.40851 0.96458 0.00946 0.0
C4888 C 0.4163 0.98246 1.00593 0.0
C4889 C 0.39049 0.95947 0.00792 0.0
C4890 C 0.37992 0.97217 1.00291 0.0
C4891 C 0.38768 0.99025 0.99996 0.0
C4892 C 0.40575 0.9954 1.00157 0.0
C4893 C 0.36077 0.96589 0.99922 0.0
C4894 C 0.35195 0.9662 0.98103 0.0
C4895 C 0.35149 0.95795 0.0128 0.0
C4896 C 0.36 0.9581 0.03254 0.0
C4897 C 0.36938 0.97502 0.04349 0.0
C4898 C 0.37764 0.97505 0.06195 0.0
C4899 C 0.37652 0.95825 0.06968 0.0
C4900 C 0.3671 0.9414 0.05898 0.0
C4901 C 0.35884 0.94129 0.0405 0.0
H4902 H 0.38294 0.9583 0.08396 0.0
H4903 H 0.30777 0.96632 0.90551 0.0
H4904 H 0.90329 0.60609 0.76203 0.0
H4905 H 0.89032 0.63438 0.76075 0.0
H4906 H 0.85029 0.61023 0.79063 0.0
H4907 H 0.86291 0.58237 0.79177 0.0
H4908 H 0.83394 0.62708 0.76796 0.0
H4909 H 0.88958 0.655 0.80929 0.0
H4910 H 0.92169 0.66246 0.8162 0.0
H4911 H 0.92345 0.68803 0.76548 0.0
H4912 H 0.89137 0.68077 0.75835 0.0
H4913 H 0.79386 0.70743 0.78599 0.0
H4914 H 0.80872 0.68095 0.78624 0.0
H4915 H 0.8523 0.71374 0.76732 0.0
H4916 H 0.83786 0.74089 0.76873 0.0
H4917 H 0.86762 0.69252 0.78225 0.0
H4918 H 0.81462 0.66765 0.74019 0.0
H4919 H 0.78299 0.65938 0.7289 0.0
H4920 H 0.77617 0.62633 0.77396 0.0
H4921 H 0.80776 0.63456 0.78564 0.0
C4922 C 0.89179 0.60667 0.76848 0.0
C4923 C 0.88467 0.59106 0.77716 0.0
C4924 C 0.88421 0.62333 0.76788 0.0
C4925 C 0.86892 0.62559 0.77583 0.0
C4926 C 0.86185 0.60987 0.78423 0.0
C4927 C 0.86941 0.59348 0.78496 0.0
C4928 C 0.85995 0.64347 0.77537 0.0
C4929 C 0.84154 0.64131 0.77142 0.0
C4930 C 0.86898 0.66277 0.77889 0.0
C4931 C 0.88815 0.66731 0.78328 0.0
C4932 C 0.89685 0.66221 0.79963 0.0
C4933 C 0.91503 0.66641 0.80359 0.0
C4934 C 0.92461 0.67569 0.79128 0.0
C4935 C 0.91603 0.6808 0.77498 0.0
C4936 C 0.89786 0.67672 0.77102 0.0
C4937 C 0.80658 0.7092 0.78172 0.0
C4938 C 0.81411 0.72701 0.77712 0.0
C4939 C 0.81528 0.69349 0.78156 0.0
C4940 C 0.832 0.69389 0.77601 0.0
C4941 C 0.8396 0.71187 0.77159 0.0
C4942 C 0.83108 0.72782 0.77229 0.0
C4943 C 0.84142 0.6762 0.77517 0.0
C4944 C 0.85991 0.67835 0.77886 0.0
C4945 C 0.83247 0.65681 0.77077 0.0
C4946 C 0.81351 0.6519 0.76391 0.0
C4947 C 0.80635 0.65871 0.74775 0.0
C4948 C 0.78844 0.65402 0.74128 0.0
C4949 C 0.77757 0.64238 0.75074 0.0
C4950 C 0.7846 0.63537 0.76667 0.0
C4951 C 0.80251 0.64003 0.77322 0.0
H4952 H 0.76371 0.63877 0.74571 0.0
H4953 H 0.93867 0.67894 0.79436 0.0
H4954 H 0.80183 0.61148 0.98179 0.0
H4955 H 0.82877 0.60002 0.98705 0.0
H4956 H 0.84673 0.64102 0.03721 0.0
H4957 H 0.8195 0.65284 0.03197 0.0
H4958 H 0.87351 0.63671 0.01625 0.0
H4959 H 0.83036 0.59612 0.04128 0.0
H4960 H 0.80154 0.57597 0.04014 0.0
H4961 H 0.81094 0.53841 0.9939 0.0
H4962 H 0.83969 0.55853 0.99452 0.0
H4963 H 0.94179 0.59046 0.049 0.0
H4964 H 0.91668 0.60551 0.04586 0.0
H4965 H 0.89057 0.56202 0.99997 0.0
H4966 H 0.91518 0.54623 1.00379 0.0
H4967 H 0.86801 0.56867 0.02092 0.0
H4968 H 0.91001 0.60953 0.99426 0.0
H4969 H 0.93834 0.63005 0.99386 0.0
H4970 H 0.93104 0.66695 0.04181 0.0
H4971 H 0.90275 0.64652 0.04263 0.0
C4972 C 0.81146 0.61828 0.99393 0.0
C4973 C 0.80823 0.63311 1.00652 0.0
C4974 C 0.82696 0.61159 0.99694 0.0
C4975 C 0.8398 0.61934 0.01273 0.0
C4976 C 0.83704 0.63467 0.02496 0.0
C4977 C 0.82142 0.64145 0.02194 0.0
C4978 C 0.85564 0.6108 0.01658 0.0
C4979 C 0.87232 0.6219 0.01758 0.0
C4980 C 0.85423 0.59135 0.01793 0.0
C4981 C 0.83714 0.57892 0.01786 0.0
C4982 C 0.82625 0.58362 0.03081 0.0
C4983 C 0.80992 0.5722 0.03025 0.0
C4984 C 0.8044 0.55594 0.01693 0.0
C4985 C 0.81523 0.55102 1.0042 0.0
C4986 C 0.83155 0.56242 1.00465 0.0
C4987 C 0.93069 0.5839 0.03832 0.0
C4988 C 0.93076 0.56695 0.02669 0.0
C4989 C 0.91631 0.59276 0.03634 0.0
C4990 C 0.90159 0.58519 0.02246 0.0
C4991 C 0.90165 0.56833 0.01079 0.0
C4992 C 0.91595 0.55937 0.01285 0.0
C4993 C 0.88601 0.59448 0.02032 0.0
C4994 C 0.86931 0.58351 0.01967 0.0
C4995 C 0.88742 0.61401 0.01919 0.0
C4996 C 0.90435 0.6264 0.01863 0.0
C4997 C 0.9145 0.62196 1.0048 0.0
C4998 C 0.93054 0.63358 1.00448 0.0
C4999 C 0.93651 0.64976 0.01784 0.0
C5000 C 0.92641 0.6544 0.03149 0.0
C5001 C 0.91037 0.64281 0.03188 0.0
H5002 H 0.94894 0.65874 0.01758 0.0
H5003 H 0.79174 0.54714 0.0165 0.0
H5004 H 0.18151 0.07268 0.77713 0.0
H5005 H 0.20069 0.09972 0.76974 0.0
H5006 H 0.18682 0.13499 0.81535 0.0
H5007 H 0.16533 0.10814 0.82052 0.0
H5008 H 0.18869 0.15403 0.79054 0.0
H5009 H 0.24637 0.12437 0.80969 0.0
H5010 H 0.26283 0.0991 0.80361 0.0
H5011 H 0.23908 0.08854 0.74516 0.0
H5012 H 0.22332 0.11438 0.75072 0.0
H5013 H 0.25763 0.23414 0.80449 0.0
H5014 H 0.23636 0.2057 0.80602 0.0
H5015 H 0.25253 0.17729 0.75744 0.0
H5016 H 0.27453 0.20538 0.75676 0.0
H5017 H 0.249 0.15432 0.77927 0.0
H5018 H 0.21238 0.19431 0.75834 0.0
H5019 H 0.19934 0.22246 0.75778 0.0
H5020 H 0.18057 0.21319 0.80983 0.0
H5021 H 0.19423 0.18565 0.81128 0.0
C5022 C 0.18273 0.08622 0.78569 0.0
C5023 C 0.17217 0.08821 0.79967 0.0
C5024 C 0.19419 0.10181 0.78176 0.0
C5025 C 0.19624 0.11976 0.7924 0.0
C5026 C 0.18579 0.12153 0.80674 0.0
C5027 C 0.17357 0.1061 0.80993 0.0
C5028 C 0.20806 0.13698 0.78801 0.0
C5029 C 0.202 0.15404 0.78848 0.0
C5030 C 0.22512 0.13726 0.78367 0.0
C5031 C 0.23284 0.1204 0.78091 0.0
C5032 C 0.24433 0.11626 0.7957 0.0
C5033 C 0.25374 0.10208 0.79227 0.0
C5034 C 0.2516 0.09186 0.77417 0.0
C5035 C 0.24046 0.09618 0.75928 0.0
C5036 C 0.23143 0.11069 0.76252 0.0
C5037 C 0.25656 0.22182 0.79411 0.0
C5038 C 0.26779 0.22193 0.78056 0.0
C5039 C 0.24426 0.20555 0.79488 0.0
C5040 C 0.24251 0.18917 0.78171 0.0
C5041 C 0.25355 0.18955 0.76789 0.0
C5042 C 0.26613 0.20565 0.76744 0.0
C5043 C 0.22991 0.1714 0.78289 0.0
C5044 C 0.23576 0.15435 0.78165 0.0
C5045 C 0.21246 0.17105 0.78567 0.0
C5046 C 0.20453 0.18796 0.78502 0.0
C5047 C 0.20572 0.19845 0.76985 0.0
C5048 C 0.19824 0.21436 0.76939 0.0
C5049 C 0.18922 0.21973 0.78383 0.0
C5050 C 0.18772 0.20922 0.79877 0.0
C5051 C 0.19538 0.19347 0.79945 0.0
H5052 H 0.18335 0.23198 0.78341 0.0
H5053 H 0.2588 0.0808 0.77161 0.0
H5054 H 0.40722 0.98377 0.29434 0.0
H5055 H 0.39199 0.952 0.29651 0.0
H5056 H 0.35023 0.95759 0.25379 0.0
H5057 H 0.36495 0.99011 0.25299 0.0
H5058 H 0.33452 0.93718 0.27218 0.0
H5059 H 0.38682 0.92681 0.25053 0.0
H5060 H 0.41839 0.93042 0.25045 0.0
H5061 H 0.4249 0.91185 0.30499 0.0
H5062 H 0.39339 0.90831 0.30547 0.0
H5063 H 0.30268 0.83426 0.25273 0.0
H5064 H 0.31756 0.86658 0.25073 0.0
H5065 H 0.34287 0.87206 0.30844 0.0
H5066 H 0.32752 0.84014 0.31075 0.0
H5067 H 0.3665 0.88585 0.28188 0.0
H5068 H 0.31207 0.89473 0.30064 0.0
H5069 H 0.28011 0.88954 0.29743 0.0
H5070 H 0.2775 0.90919 0.24333 0.0
H5071 H 0.30946 0.91423 0.24609 0.0
C5072 C 0.39475 0.9783 0.2854 0.0
C5073 C 0.38733 0.9901 0.27384 0.0
C5074 C 0.38598 0.95966 0.28639 0.0
C5075 C 0.36971 0.95124 0.27498 0.0
C5076 C 0.36255 0.963 0.26299 0.0
C5077 C 0.37109 0.98189 0.26247 0.0
C5078 C 0.36015 0.93069 0.27574 0.0
C5079 C 0.34176 0.92611 0.27402 0.0
C5080 C 0.36886 0.91537 0.27833 0.0
C5081 C 0.38779 0.91748 0.27811 0.0
C5082 C 0.39501 0.92359 0.26254 0.0
C5083 C 0.41289 0.92562 0.26243 0.0
C5084 C 0.42365 0.92142 0.27773 0.0
C5085 C 0.41655 0.91513 0.29316 0.0
C5086 C 0.39868 0.91309 0.29336 0.0
C5087 C 0.31137 0.84227 0.26508 0.0
C5088 C 0.31364 0.83409 0.28195 0.0
C5089 C 0.31996 0.861 0.26392 0.0
C5090 C 0.33163 0.87235 0.27941 0.0
C5091 C 0.33413 0.86405 0.29613 0.0
C5092 C 0.32519 0.84556 0.29746 0.0
C5093 C 0.34112 0.89263 0.27828 0.0
C5094 C 0.35943 0.89708 0.27997 0.0
C5095 C 0.33232 0.90765 0.27515 0.0
C5096 C 0.31314 0.90463 0.27347 0.0
C5097 C 0.30468 0.89776 0.28797 0.0
C5098 C 0.28656 0.89489 0.28625 0.0
C5099 C 0.27678 0.89897 0.27015 0.0
C5100 C 0.2851 0.90599 0.25577 0.0
C5101 C 0.30321 0.90887 0.25741 0.0
H5102 H 0.26276 0.89675 0.26885 0.0
H5103 H 0.43749 0.923 0.27761 0.0
H5104 H 0.53036 0.33643 0.62102 0.0
H5105 H 0.52984 0.36593 0.60828 0.0
H5106 H 0.58378 0.37079 0.60197 0.0
H5107 H 0.58448 0.34146 0.61572 0.0
H5108 H 0.57835 0.40488 0.60992 0.0
H5109 H 0.54861 0.35308 0.56387 0.0
H5110 H 0.52757 0.32358 0.5511 0.0
H5111 H 0.48529 0.35103 0.56054 0.0
H5112 H 0.5061 0.38064 0.57366 0.0
H5113 H 0.57114 0.47279 0.54613 0.0
H5114 H 0.57546 0.44453 0.55986 0.0
H5115 H 0.52218 0.43441 0.56933 0.0
H5116 H 0.51763 0.46221 0.55486 0.0
H5117 H 0.52927 0.40248 0.55836 0.0
H5118 H 0.56123 0.45473 0.60593 0.0
H5119 H 0.58347 0.48386 0.61626 0.0
H5120 H 0.62311 0.45472 0.60083 0.0
H5121 H 0.60107 0.4255 0.59016 0.0
C5122 C 0.54226 0.34401 0.61736 0.0
C5123 C 0.5575 0.3366 0.61958 0.0
C5124 C 0.54189 0.36084 0.60978 0.0
C5125 C 0.5566 0.37056 0.60345 0.0
C5126 C 0.57215 0.36367 0.60653 0.0
C5127 C 0.5726 0.34691 0.61452 0.0
C5128 C 0.55533 0.38727 0.59301 0.0
C5129 C 0.5677 0.40421 0.59851 0.0
C5130 C 0.54151 0.38677 0.57799 0.0
C5131 C 0.52893 0.36905 0.5699 0.0
C5132 C 0.53483 0.3528 0.56332 0.0
C5133 C 0.52295 0.33606 0.55602 0.0
C5134 C 0.50511 0.33542 0.55505 0.0
C5135 C 0.49912 0.35154 0.56133 0.0
C5136 C 0.51095 0.36832 0.56869 0.0
C5137 C 0.56032 0.46455 0.55109 0.0
C5138 C 0.54403 0.46994 0.54931 0.0
C5139 C 0.56284 0.44837 0.55916 0.0
C5140 C 0.5493 0.4373 0.56623 0.0
C5141 C 0.53295 0.44255 0.56417 0.0
C5142 C 0.53034 0.45854 0.55581 0.0
C5143 C 0.55195 0.42027 0.57564 0.0
C5144 C 0.53988 0.40319 0.56983 0.0
C5145 C 0.56619 0.4206 0.59012 0.0
C5146 C 0.5795 0.43797 0.59717 0.0
C5147 C 0.57469 0.45455 0.60474 0.0
C5148 C 0.58726 0.47108 0.61062 0.0
C5149 C 0.60468 0.47115 0.60917 0.0
C5150 C 0.6096 0.45465 0.60195 0.0
C5151 C 0.59709 0.4381 0.596 0.0
H5152 H 0.61438 0.48397 0.61366 0.0
H5153 H 0.49593 0.32244 0.54939 0.0
H5154 H 0.46374 0.73961 0.36836 0.0
H5155 H 0.43553 0.74308 0.35246 0.0
H5156 H 0.42647 0.77186 0.40498 0.0
H5157 H 0.45572 0.77099 0.41964 0.0
H5158 H 0.40614 0.7315 0.35231 0.0
H5159 H 0.39568 0.78208 0.40491 0.0
H5160 H 0.40652 0.81065 0.42853 0.0
H5161 H 0.43525 0.83675 0.38878 0.0
H5162 H 0.42438 0.80831 0.36499 0.0
H5163 H 0.32485 0.78089 0.33282 0.0
H5164 H 0.35125 0.77803 0.35334 0.0
H5165 H 0.36855 0.75043 0.3051 0.0
H5166 H 0.34129 0.75135 0.28529 0.0
H5167 H 0.38204 0.78947 0.35904 0.0
H5168 H 0.39727 0.72424 0.31498 0.0
H5169 H 0.3814 0.69537 0.29398 0.0
H5170 H 0.33639 0.69703 0.32088 0.0
H5171 H 0.35207 0.72578 0.34221 0.0
C5172 C 0.456 0.74753 0.37616 0.0
C5173 C 0.46255 0.75623 0.3948 0.0
C5174 C 0.43953 0.7492 0.3672 0.0
C5175 C 0.42853 0.75872 0.37692 0.0
C5176 C 0.43466 0.76594 0.39621 0.0
C5177 C 0.45144 0.76496 0.4049 0.0
C5178 C 0.41066 0.75997 0.36682 0.0
C5179 C 0.40121 0.74443 0.35365 0.0
C5180 C 0.40287 0.77608 0.3692 0.0
C5181 C 0.41021 0.7927 0.38365 0.0
C5182 C 0.40458 0.79382 0.40138 0.0
C5183 C 0.41063 0.80999 0.41476 0.0
C5184 C 0.42185 0.82538 0.41029 0.0
C5185 C 0.42687 0.82467 0.39238 0.0
C5186 C 0.42092 0.80845 0.37902 0.0
C5187 C 0.33416 0.77392 0.32671 0.0
C5188 C 0.33071 0.76593 0.30752 0.0
C5189 C 0.34944 0.7724 0.33845 0.0
C5190 C 0.362 0.76341 0.33116 0.0
C5191 C 0.35893 0.75654 0.31161 0.0
C5192 C 0.34335 0.75731 0.30012 0.0
C5193 C 0.37828 0.76146 0.34384 0.0
C5194 C 0.38721 0.7767 0.35752 0.0
C5195 C 0.38521 0.7448 0.3425 0.0
C5196 C 0.3758 0.72725 0.33008 0.0
C5197 C 0.38402 0.71838 0.31649 0.0
C5198 C 0.37505 0.70206 0.30451 0.0
C5199 C 0.35788 0.69441 0.30606 0.0
C5200 C 0.34968 0.70301 0.31966 0.0
C5201 C 0.35859 0.71931 0.3317 0.0
H5202 H 0.35095 0.6818 0.29674 0.0
H5203 H 0.42646 0.83793 0.42062 0.0
H5204 H 0.0434 0.72074 0.14378 0.0
H5205 H 0.042 0.68848 0.12854 0.0
H5206 H 0.0683 0.71048 0.08465 0.0
H5207 H 0.07037 0.74257 0.10042 0.0
H5208 H 0.02671 0.66887 0.09704 0.0
H5209 H 0.09056 0.68065 0.06529 0.0
H5210 H 0.11986 0.70092 0.07256 0.0
H5211 H 0.11587 0.70809 0.13178 0.0
H5212 H 0.08665 0.68768 0.12489 0.0
H5213 H 0.023 0.58633 0.0335 0.0
H5214 H 0.02632 0.61925 0.04732 0.0
H5215 H 0.07299 0.6152 0.08394 0.0
H5216 H 0.07035 0.58267 0.06898 0.0
H5217 H 0.07808 0.64769 0.07625 0.0
H5218 H 0.02869 0.61199 0.09707 0.0
H5219 H 1.00016 0.59041 0.09285 0.0
H5220 H 0.97647 0.62879 0.06229 0.0
H5221 H 1.00491 0.65049 0.0661 0.0
C5222 C 0.04888 0.71861 0.13089 0.0
C5223 C 0.05645 0.73416 0.12291 0.0
C5224 C 0.04803 0.70016 0.12211 0.0
C5225 C 0.05506 0.6968 0.10535 0.0
C5226 C 0.06296 0.71245 0.09766 0.0
C5227 C 0.0639 0.73086 0.10651 0.0
C5228 C 0.05404 0.67703 0.09595 0.0
C5229 C 0.03797 0.66427 0.09253 0.0
C5230 C 0.0687 0.6707 0.09021 0.0
C5231 C 0.08636 0.68278 0.09454 0.0
C5232 C 0.09597 0.68649 0.07987 0.0
C5233 C 0.11255 0.69801 0.08392 0.0
C5234 C 0.1197 0.70583 0.10261 0.0
C5235 C 0.1103 0.70208 0.1173 0.0
C5236 C 0.09372 0.69055 0.11333 0.0
C5237 C 0.0341 0.59257 0.04432 0.0
C5238 C 0.04641 0.58187 0.05015 0.0
C5239 C 0.0359 0.6114 0.05244 0.0
C5240 C 0.04961 0.61982 0.06726 0.0
C5241 C 0.06221 0.60924 0.07265 0.0
C5242 C 0.06072 0.59057 0.06408 0.0
C5243 C 0.05072 0.63943 0.07729 0.0
C5244 C 0.06679 0.65222 0.08077 0.0
C5245 C 0.03616 0.64559 0.08362 0.0
C5246 C 0.01897 0.63277 0.08171 0.0
C5247 C 0.01741 0.61579 0.08939 0.0
C5248 C 1.00125 0.60354 0.08706 0.0
C5249 C 0.98652 0.6082 0.07726 0.0
C5250 C 0.9879 0.62518 0.06985 0.0
C5251 C 1.00403 0.63747 0.0721 0.0
H5252 H 0.97404 0.59868 0.07544 0.0
H5253 H 0.13253 0.71476 0.10572 0.0
H5254 H 0.0605 0.29341 0.89079 0.0
H5255 H 0.08819 0.29407 0.87934 0.0
H5256 H 0.08482 0.23541 0.88512 0.0
H5257 H 0.05733 0.23505 0.89764 0.0
H5258 H 0.11765 0.2521 0.89276 0.0
H5259 H 0.07256 0.25143 0.8413 0.0
H5260 H 0.04778 0.26205 0.82427 0.0
H5261 H 0.08013 0.31611 0.82439 0.0
H5262 H 0.10505 0.30591 0.84171 0.0
H5263 H 0.17796 0.24041 0.82792 0.0
H5264 H 0.15267 0.23825 0.84414 0.0
H5265 H 0.15412 0.29748 0.84357 0.0
H5266 H 0.17938 0.29973 0.82733 0.0
H5267 H 0.1218 0.27853 0.83268 0.0
H5268 H 0.16702 0.27819 0.88489 0.0
H5269 H 0.19131 0.26636 0.90141 0.0
H5270 H 0.15807 0.21223 0.89829 0.0
H5271 H 0.13363 0.22368 0.88155 0.0
C5272 C 0.0658 0.28072 0.88995 0.0
C5273 C 0.05666 0.26416 0.89509 0.0
C5274 C 0.08161 0.28105 0.8832 0.0
C5275 C 0.0885 0.26463 0.88067 0.0
C5276 C 0.07983 0.24827 0.88672 0.0
C5277 C 0.06411 0.24806 0.89394 0.0
C5278 C 0.10422 0.26454 0.87099 0.0
C5279 C 0.11842 0.25766 0.87949 0.0
C5280 C 0.10552 0.27189 0.85368 0.0
C5281 C 0.09064 0.27795 0.84293 0.0
C5282 C 0.07437 0.26561 0.83777 0.0
C5283 C 0.0603 0.27156 0.82807 0.0
C5284 C 0.06237 0.28975 0.82328 0.0
C5285 C 0.07854 0.30202 0.82813 0.0
C5286 C 0.09265 0.29616 0.83787 0.0
C5287 C 0.17307 0.25305 0.83135 0.0
C5288 C 0.18079 0.27018 0.82593 0.0
C5289 C 0.15852 0.25179 0.84074 0.0
C5290 C 0.15135 0.26771 0.84525 0.0
C5291 C 0.15921 0.28491 0.8402 0.0
C5292 C 0.17371 0.28615 0.83077 0.0
C5293 C 0.13536 0.26645 0.85461 0.0
C5294 C 0.12105 0.27299 0.84596 0.0
C5295 C 0.13391 0.25856 0.8716 0.0
C5296 C 0.14855 0.25174 0.88182 0.0
C5297 C 0.16493 0.26373 0.88762 0.0
C5298 C 0.17872 0.2571 0.89704 0.0
C5299 C 0.17625 0.23854 0.90085 0.0
C5300 C 0.15997 0.2266 0.89531 0.0
C5301 C 0.14614 0.23315 0.88588 0.0
H5302 H 0.18694 0.23343 0.90813 0.0
H5303 H 0.05146 0.29434 0.81578 0.0
H5304 H 0.53874 0.75913 0.93533 0.0
H5305 H 0.53667 0.72883 0.94679 0.0
H5306 H 0.50164 0.70205 0.8957 0.0
H5307 H 0.50392 0.73247 0.8839 0.0
H5308 H 0.50929 0.70695 0.95513 0.0
H5309 H 0.50739 0.65571 0.88723 0.0
H5310 H 0.51757 0.65577 0.8563 0.0
H5311 H 0.5597 0.70187 0.88029 0.0
H5312 H 0.5499 0.70191 0.9114 0.0
H5313 H 0.4948 0.61698 0.98266 0.0
H5314 H 0.49095 0.64083 0.96202 0.0
H5315 H 0.54435 0.646 0.95326 0.0
H5316 H 0.54815 0.62201 0.97356 0.0
H5317 H 0.5243 0.65025 0.92158 0.0
H5318 H 0.53339 0.6746 0.98848 0.0
H5319 H 0.52662 0.67572 0.02102 0.0
H5320 H 0.47599 0.68608 1.00158 0.0
H5321 H 0.4824 0.68476 0.96886 0.0
C5322 C 0.53066 0.7468 0.92646 0.0
C5323 C 0.52145 0.74816 0.90873 0.0
C5324 C 0.52945 0.7295 0.93306 0.0
C5325 C 0.519 0.7132 0.92212 0.0
C5326 C 0.5099 0.71444 0.90429 0.0
C5327 C 0.51119 0.7318 0.8976 0.0
C5328 C 0.51747 0.69513 0.9298 0.0
C5329 C 0.51243 0.69451 0.9477 0.0
C5330 C 0.52165 0.67894 0.92015 0.0
C5331 C 0.52776 0.67896 0.90156 0.0
C5332 C 0.51884 0.66583 0.8859 0.0
C5333 C 0.52455 0.66585 0.86834 0.0
C5334 C 0.53923 0.67887 0.86631 0.0
C5335 C 0.54828 0.69185 0.88186 0.0
C5336 C 0.54264 0.69187 0.89945 0.0
C5337 C 0.50563 0.62307 0.97612 0.0
C5338 C 0.52184 0.61786 0.97989 0.0
C5339 C 0.5034 0.63659 0.96429 0.0
C5340 C 0.51745 0.64537 0.95636 0.0
C5341 C 0.53333 0.63937 0.9592 0.0
C5342 C 0.5355 0.6257 0.97085 0.0
C5343 C 0.51636 0.66222 0.94699 0.0
C5344 C 0.52084 0.66259 0.92879 0.0
C5345 C 0.51211 0.67841 0.95655 0.0
C5346 C 0.5083 0.67937 0.97622 0.0
C5347 C 0.52078 0.677 0.99114 0.0
C5348 C 0.51701 0.67768 0.0096 0.0
C5349 C 0.50086 0.68091 0.01335 0.0
C5350 C 0.48847 0.68353 0.99864 0.0
C5351 C 0.49217 0.68282 0.98014 0.0
H5352 H 0.49797 0.68144 0.02766 0.0
H5353 H 0.54362 0.67887 0.8527 0.0
H5354 H 0.096 0.75627 0.72622 0.0
H5355 H 0.12734 0.75995 0.73605 0.0
H5356 H 0.13675 0.79495 0.69272 0.0
H5357 H 0.10529 0.79234 0.68372 0.0
H5358 H 0.14486 0.74871 0.69986 0.0
H5359 H 0.15974 0.81831 0.71269 0.0
H5360 H 0.1602 0.8504 0.72819 0.0
H5361 H 0.16986 0.8328 0.78288 0.0
H5362 H 0.1691 0.80051 0.76765 0.0
H5363 H 0.23962 0.76199 0.70995 0.0
H5364 H 0.20862 0.76264 0.70086 0.0
H5365 H 0.20129 0.76201 0.75913 0.0
H5366 H 0.23213 0.76152 0.7682 0.0
H5367 H 0.19287 0.79337 0.74268 0.0
H5368 H 0.1832 0.72586 0.7299 0.0
H5369 H 0.18656 0.69498 0.71474 0.0
H5370 H 0.1681 0.70842 0.66007 0.0
H5371 H 0.16497 0.73958 0.67486 0.0
C5372 C 0.10478 0.76566 0.7196 0.0
C5373 C 0.09837 0.77465 0.70478 0.0
C5374 C 0.12263 0.76767 0.72512 0.0
C5375 C 0.13429 0.77816 0.71545 0.0
C5376 C 0.12795 0.78744 0.70083 0.0
C5377 C 0.11005 0.78575 0.69557 0.0
C5378 C 0.15238 0.77558 0.71778 0.0
C5379 C 0.15549 0.75859 0.70897 0.0
C5380 C 0.16598 0.78837 0.72992 0.0
C5381 C 0.16393 0.8069 0.73902 0.0
C5382 C 0.16143 0.82115 0.728 0.0
C5383 C 0.16198 0.83944 0.73674 0.0
C5384 C 0.16508 0.84365 0.75651 0.0
C5385 C 0.16744 0.82953 0.76758 0.0
C5386 C 0.1669 0.81122 0.7589 0.0
C5387 C 0.23116 0.76138 0.7206 0.0
C5388 C 0.23791 0.7615 0.73965 0.0
C5389 C 0.21359 0.7618 0.71546 0.0
C5390 C 0.20285 0.76248 0.72942 0.0
C5391 C 0.20949 0.76158 0.74827 0.0
C5392 C 0.22696 0.76115 0.75338 0.0
C5393 C 0.18531 0.76639 0.72496 0.0
C5394 C 0.1823 0.78355 0.73341 0.0
C5395 C 0.17183 0.75378 0.71243 0.0
C5396 C 0.17414 0.73522 0.70348 0.0
C5397 C 0.18013 0.72238 0.71462 0.0
C5398 C 0.18193 0.70478 0.70609 0.0
C5399 C 0.17763 0.69977 0.68644 0.0
C5400 C 0.1715 0.71235 0.67528 0.0
C5401 C 0.16972 0.72999 0.68373 0.0
H5402 H 0.17899 0.68612 0.67988 0.0
H5403 H 0.16558 0.85782 0.76324 0.0
H5404 H 0.01583 0.33795 0.43072 0.0
H5405 H 0.01453 0.36382 0.45486 0.0
H5406 H 0.03507 0.40393 0.42 0.0
H5407 H 0.03629 0.37812 0.39555 0.0
H5408 H 0.04993 0.41241 0.45955 0.0
H5409 H 0.99462 0.39659 0.41867 0.0
H5410 H 0.96822 0.37481 0.40137 0.0
H5411 H 0.95386 0.36018 0.45401 0.0
H5412 H 0.98039 0.38161 0.47162 0.0
H5413 H 0.01016 0.48977 0.49784 0.0
H5414 H 1.0057 0.46091 0.47533 0.0
H5415 H 0.0292 0.43348 0.519 0.0
H5416 H 0.03321 0.46213 0.54178 0.0
H5417 H 0.99165 0.41929 0.47416 0.0
H5418 H 0.06414 0.42038 0.49756 0.0
H5419 H 0.09053 0.44276 0.51421 0.0
H5420 H 0.07005 0.48869 0.49419 0.0
H5421 H 0.04391 0.46659 0.4769 0.0
C5422 C 0.0203 0.35225 0.42823 0.0
C5423 C 0.0261 0.35598 0.41115 0.0
C5424 C 0.01947 0.36699 0.44203 0.0
C5425 C 0.02456 0.3857 0.43908 0.0
C5426 C 0.03107 0.38953 0.42246 0.0
C5427 C 0.03171 0.37478 0.40851 0.0
C5428 C 0.02236 0.40122 0.45301 0.0
C5429 C 0.03721 0.4139 0.46277 0.0
C5430 C 1.00571 0.40321 0.45698 0.0
C5431 C 0.98959 0.39057 0.44646 0.0
C5432 C 0.98591 0.38862 0.42656 0.0
C5433 C 0.97091 0.37635 0.41669 0.0
C5434 C 0.95938 0.36609 0.42658 0.0
C5435 C 0.96281 0.36812 0.44637 0.0
C5436 C 0.97783 0.38033 0.4563 0.0
C5437 C 0.01369 0.47737 0.50285 0.0
C5438 C 0.02218 0.47824 0.52147 0.0
C5439 C 0.01111 0.46089 0.48998 0.0
C5440 C 0.01735 0.44526 0.49552 0.0
C5441 C 0.02436 0.4455 0.51454 0.0
C5442 C 0.02662 0.46186 0.52751 0.0
C5443 C 0.01924 0.43017 0.48093 0.0
C5444 C 1.00436 0.41766 0.47102 0.0
C5445 C 0.03585 0.42847 0.47661 0.0
C5446 C 0.05191 0.44184 0.48624 0.0
C5447 C 0.06533 0.43525 0.49663 0.0
C5448 C 0.08026 0.4479 0.50615 0.0
C5449 C 0.08192 0.46717 0.50538 0.0
C5450 C 0.06873 0.4738 0.49489 0.0
C5451 C 0.05386 0.46121 0.4852 0.0
H5452 H 0.09346 0.47695 0.51279 0.0
H5453 H 0.94777 0.35659 0.41893 0.0
H5454 H 0.50909 0.2366 0.22153 0.0
H5455 H 0.48994 0.23695 0.24562 0.0
H5456 H 0.45512 0.2617 0.20941 0.0
H5457 H 0.47371 0.26088 0.18526 0.0
H5458 H 0.47983 0.26374 0.26595 0.0
H5459 H 0.41439 0.24728 0.21232 0.0
H5460 H 0.40213 0.2274 0.18167 0.0
H5461 H 0.43819 0.19106 0.1924 0.0
H5462 H 0.45048 0.21051 0.22328 0.0
H5463 H 0.4166 0.30966 0.29511 0.0
H5464 H 0.43898 0.29518 0.28303 0.0
H5465 H 0.40563 0.24034 0.27721 0.0
H5466 H 0.38274 0.25489 0.28817 0.0
H5467 H 0.41601 0.24287 0.24671 0.0
H5468 H 0.44657 0.25348 0.30838 0.0
H5469 H 0.45915 0.2699 0.34052 0.0
H5470 H 0.49292 0.31096 0.31715 0.0
H5471 H 0.48037 0.29498 0.28484 0.0
C5472 C 0.4973 0.24203 0.21871 0.0
C5473 C 0.49285 0.24856 0.2014 0.0
C5474 C 0.48639 0.24223 0.23249 0.0
C5475 C 0.47091 0.24898 0.22917 0.0
C5476 C 0.46672 0.2559 0.21209 0.0
C5477 C 0.47745 0.25551 0.1983 0.0
C5478 C 0.45916 0.24946 0.24355 0.0
C5479 C 0.46587 0.25901 0.26188 0.0
C5480 C 0.44104 0.24245 0.23854 0.0
C5481 C 0.4334 0.23043 0.22013 0.0
C5482 C 0.41961 0.23496 0.20824 0.0
C5483 C 0.41267 0.22378 0.19079 0.0
C5484 C 0.41939 0.208 0.18508 0.0
C5485 C 0.43302 0.20331 0.19683 0.0
C5486 C 0.43998 0.21442 0.2143 0.0
C5487 C 0.4141 0.29449 0.29151 0.0
C5488 C 0.39775 0.28352 0.29234 0.0
C5489 C 0.42706 0.28614 0.28487 0.0
C5490 C 0.42413 0.26658 0.27931 0.0
C5491 C 0.40826 0.25545 0.28144 0.0
C5492 C 0.3952 0.26381 0.28788 0.0
C5493 C 0.43654 0.25832 0.26879 0.0
C5494 C 0.42995 0.24722 0.25111 0.0
C5495 C 0.45478 0.2633 0.27472 0.0
C5496 C 0.46247 0.27302 0.29414 0.0
C5497 C 0.45661 0.26607 0.31007 0.0
C5498 C 0.46375 0.2753 0.32833 0.0
C5499 C 0.47682 0.29147 0.33087 0.0
C5500 C 0.4828 0.29842 0.31516 0.0
C5501 C 0.47571 0.28926 0.29686 0.0
H5502 H 0.48232 0.29859 0.34502 0.0
H5503 H 0.41402 0.19939 0.17155 0.0
H5504 H 0.60633 0.51881 0.33956 0.0
H5505 H 0.59028 0.51176 0.36555 0.0
H5506 H 0.62808 0.55424 0.40407 0.0
H5507 H 0.64467 0.56021 0.37851 0.0
H5508 H 0.6216 0.52849 0.42241 0.0
H5509 H 0.58264 0.55762 0.38462 0.0
H5510 H 0.56428 0.56259 0.35585 0.0
H5511 H 0.53334 0.50709 0.35198 0.0
H5512 H 0.55165 0.5017 0.38062 0.0
H5513 H 0.56804 0.54093 0.49436 0.0
H5514 H 0.58352 0.5451 0.46744 0.0
H5515 H 0.55776 0.48945 0.44021 0.0
H5516 H 0.54273 0.48485 0.46756 0.0
H5517 H 0.55746 0.52012 0.41634 0.0
H5518 H 0.59711 0.49422 0.45801 0.0
H5519 H 0.61444 0.49372 0.48904 0.0
H5520 H 0.64393 0.54881 0.48729 0.0
H5521 H 0.62645 0.54989 0.45648 0.0
C5522 C 0.61109 0.52677 0.35354 0.0
C5523 C 0.62677 0.54019 0.35682 0.0
C5524 C 0.60183 0.5228 0.36849 0.0
C5525 C 0.60765 0.5326 0.38704 0.0
C5526 C 0.62316 0.54627 0.39012 0.0
C5527 C 0.63264 0.54984 0.37535 0.0
C5528 C 0.59803 0.52844 0.40336 0.0
C5529 C 0.60758 0.52692 0.42097 0.0
C5530 C 0.57964 0.52602 0.40187 0.0
C5531 C 0.56864 0.52918 0.38463 0.0
C5532 C 0.572 0.54643 0.37755 0.0
C5533 C 0.56159 0.54933 0.36129 0.0
C5534 C 0.54769 0.53514 0.35206 0.0
C5535 C 0.54413 0.51805 0.35912 0.0
C5536 C 0.55452 0.51507 0.37537 0.0
C5537 C 0.56598 0.52935 0.48291 0.0
C5538 C 0.55439 0.51237 0.4834 0.0
C5539 C 0.57471 0.53186 0.46738 0.0
C5540 C 0.57186 0.5176 0.45172 0.0
C5541 C 0.56019 0.50068 0.45207 0.0
C5542 C 0.55168 0.49803 0.46779 0.0
C5543 C 0.5811 0.52044 0.43508 0.0
C5544 C 0.57147 0.52167 0.41754 0.0
C5545 C 0.59943 0.52314 0.43677 0.0
C5546 C 0.61036 0.5222 0.45498 0.0
C5547 C 0.60721 0.50629 0.46429 0.0
C5548 C 0.61706 0.50589 0.48184 0.0
C5549 C 0.63026 0.52121 0.49013 0.0
C5550 C 0.63368 0.53695 0.48085 0.0
C5551 C 0.6238 0.53747 0.46334 0.0
H5552 H 0.63785 0.52088 0.50374 0.0
H5553 H 0.53964 0.53742 0.33947 0.0
H5554 H 0.26966 0.88307 0.04994 0.0
H5555 H 0.28183 0.87063 0.07787 0.0
H5556 H 0.25464 0.81458 0.05314 0.0
H5557 H 0.24255 0.82683 0.02518 0.0
H5558 H 0.25129 0.82423 0.09104 0.0
H5559 H 0.2961 0.82615 0.05173 0.0
H5560 H 0.31699 0.8415 0.03305 0.0
H5561 H 0.34318 0.87983 0.08267 0.0
H5562 H 0.32226 0.86488 0.1016 0.0
H5563 H 0.28743 0.76881 0.14958 0.0
H5564 H 0.28232 0.78207 0.12033 0.0
H5565 H 0.3115 0.83624 0.14829 0.0
H5566 H 0.31728 0.82288 0.17767 0.0
H5567 H 0.31484 0.82899 0.10941 0.0
H5568 H 0.2705 0.82806 0.14865 0.0
H5569 H 0.24978 0.81343 0.16792 0.0
H5570 H 0.22254 0.77475 0.11898 0.0
H5571 H 0.24334 0.78891 0.09949 0.0
C5572 C 0.2662 0.86812 0.05053 0.0
C5573 C 0.25517 0.8559 0.0354 0.0
C5574 C 0.27324 0.86104 0.0664 0.0
C5575 C 0.26924 0.84169 0.06741 0.0
C5576 C 0.25791 0.82955 0.05254 0.0
C5577 C 0.25103 0.83657 0.03661 0.0
C5578 C 0.27666 0.834 0.08405 0.0
C5579 C 0.26516 0.82508 0.09493 0.0
C5580 C 0.2948 0.83564 0.08936 0.0
C5581 C 0.30749 0.84453 0.07804 0.0
C5582 C 0.30621 0.83796 0.05863 0.0
C5583 C 0.31808 0.84657 0.048 0.0
C5584 C 0.33137 0.86167 0.05665 0.0
C5585 C 0.33286 0.86815 0.07598 0.0
C5586 C 0.32101 0.8596 0.08666 0.0
C5587 C 0.29336 0.78337 0.14941 0.0
C5588 C 0.30258 0.79487 0.16606 0.0
C5589 C 0.29031 0.79095 0.13267 0.0
C5590 C 0.29624 0.81019 0.13232 0.0
C5591 C 0.30673 0.82137 0.14837 0.0
C5592 C 0.30986 0.81376 0.16517 0.0
C5593 C 0.28942 0.81896 0.11615 0.0
C5594 C 0.30098 0.82816 0.10548 0.0
C5595 C 0.27131 0.81777 0.11106 0.0
C5596 C 0.25858 0.80942 0.12266 0.0
C5597 C 0.26017 0.81634 0.14203 0.0
C5598 C 0.24841 0.80814 0.15299 0.0
C5599 C 0.23488 0.79314 0.14469 0.0
C5600 C 0.23305 0.78635 0.1254 0.0
C5601 C 0.24482 0.79446 0.11439 0.0
H5602 H 0.22577 0.78681 0.1532 0.0
H5603 H 0.34055 0.86832 0.0484 0.0
H5604 H 0.91045 0.54118 0.84961 0.0
H5605 H 0.92803 0.53903 0.87943 0.0
H5606 H 0.9738 0.545 0.85277 0.0
H5607 H 0.95589 0.5465 0.82234 0.0
H5608 H 0.97869 0.52213 0.87603 0.0
H5609 H 0.96158 0.5811 0.88927 0.0
H5610 H 0.94155 0.60317 0.89164 0.0
H5611 H 0.91585 0.57137 0.93 0.0
H5612 H 0.93559 0.54897 0.92767 0.0
H5613 H 0.03902 0.5368 0.96251 0.0
H5614 H 0.02078 0.53961 0.93335 0.0
H5615 H 0.97551 0.53005 0.96065 0.0
H5616 H 0.99417 0.52753 0.99044 0.0
H5617 H 0.97007 0.55461 0.93738 0.0
H5618 H 0.98685 0.49521 0.92318 0.0
H5619 H 1.00672 0.47305 0.9202 0.0
H5620 H 0.03353 0.50647 0.88381 0.0
H5621 H 0.01373 0.5288 0.88646 0.0
C5622 C 0.9243 0.54229 0.84985 0.0
C5623 C 0.93137 0.54431 0.83289 0.0
C5624 C 0.9346 0.54116 0.86738 0.0
C5625 C 0.95281 0.54224 0.86936 0.0
C5626 C 0.95997 0.54418 0.8524 0.0
C5627 C 0.94959 0.54521 0.8347 0.0
C5628 C 0.964 0.54082 0.88868 0.0
C5629 C 0.97683 0.52959 0.88928 0.0
C5630 C 0.96188 0.54987 0.90676 0.0
C5631 C 0.94995 0.56325 0.90813 0.0
C5632 C 0.95157 0.57874 0.8981 0.0
C5633 C 0.94028 0.59132 0.89945 0.0
C5634 C 0.9274 0.58864 0.91092 0.0
C5635 C 0.92581 0.57341 0.9211 0.0
C5636 C 0.93705 0.56077 0.91977 0.0
C5637 C 0.02517 0.53521 0.96256 0.0
C5638 C 0.01844 0.53179 0.97942 0.0
C5639 C 0.0145 0.53667 0.94543 0.0
C5640 C 0.99623 0.53464 0.9438 0.0
C5641 C 0.98938 0.53159 0.96079 0.0
C5642 C 1.00018 0.5301 0.97812 0.0
C5643 C 0.98475 0.53597 0.92466 0.0
C5644 C 0.9719 0.54718 0.9241 0.0
C5645 C 0.98688 0.52697 0.90659 0.0
C5646 C 0.99894 0.51376 0.90518 0.0
C5647 C 0.99706 0.4979 0.91466 0.0
C5648 C 1.00829 0.4853 0.91301 0.0
C5649 C 0.02145 0.48841 0.90195 0.0
C5650 C 0.02335 0.5041 0.89241 0.0
C5651 C 0.0121 0.5167 0.89393 0.0
H5652 H 0.03013 0.47863 0.90071 0.0
H5653 H 0.91868 0.59841 0.91195 0.0
H5654 H 0.28512 0.20279 0.56243 0.0
H5655 H 0.28798 0.21715 0.59559 0.0
H5656 H 0.25292 0.16871 0.60679 0.0
H5657 H 0.25037 0.15403 0.57375 0.0
H5658 H 0.24536 0.20552 0.62066 0.0
H5659 H 0.29281 0.17221 0.62316 0.0
H5660 H 0.31938 0.16384 0.61328 0.0
H5661 H 0.346 0.22155 0.62798 0.0
H5662 H 0.31949 0.23032 0.63768 0.0
H5663 H 0.25528 0.22926 0.72092 0.0
H5664 H 0.25258 0.21378 0.68833 0.0
H5665 H 0.3003 0.2501 0.68197 0.0
H5666 H 0.30352 0.26475 0.71493 0.0
H5667 H 0.30121 0.21894 0.66499 0.0
H5668 H 0.25566 0.25377 0.66126 0.0
H5669 H 0.22955 0.2646 0.66961 0.0
H5670 H 0.1999 0.20805 0.65551 0.0
H5671 H 0.2259 0.19684 0.64729 0.0
C5672 C 0.2781 0.19511 0.57196 0.0
C5673 C 0.26757 0.17718 0.56535 0.0
C5674 C 0.27975 0.20336 0.59097 0.0
C5675 C 0.27067 0.19407 0.60381 0.0
C5676 C 0.26006 0.17621 0.59723 0.0
C5677 C 0.25868 0.16778 0.57832 0.0
C5678 C 0.27218 0.20303 0.62402 0.0
C5679 C 0.25751 0.20824 0.63045 0.0
C5680 C 0.28814 0.20722 0.6367 0.0
C5681 C 0.3041 0.20195 0.63096 0.0
C5682 C 0.30428 0.18315 0.62412 0.0
C5683 C 0.31934 0.17832 0.61859 0.0
C5684 C 0.33435 0.19216 0.61995 0.0
C5685 C 0.33435 0.21085 0.62691 0.0
C5686 C 0.31931 0.21575 0.63244 0.0
C5687 C 0.26514 0.23404 0.71253 0.0
C5688 C 0.27955 0.24839 0.7206 0.0
C5689 C 0.26355 0.22522 0.69373 0.0
C5690 C 0.27602 0.23088 0.68217 0.0
C5691 C 0.29042 0.24529 0.69031 0.0
C5692 C 0.29223 0.25378 0.70924 0.0
C5693 C 0.27433 0.22164 0.66187 0.0
C5694 C 0.28899 0.21633 0.65533 0.0
C5695 C 0.25843 0.21777 0.64894 0.0
C5696 C 0.24277 0.22445 0.65385 0.0
C5697 C 0.2436 0.24363 0.66006 0.0
C5698 C 0.22882 0.24983 0.66476 0.0
C5699 C 0.21309 0.23701 0.66315 0.0
C5700 C 0.2121 0.21796 0.65678 0.0
C5701 C 0.22685 0.21167 0.65209 0.0
H5702 H 0.20167 0.24184 0.66679 0.0
H5703 H 0.346 0.1884 0.61567 0.0
H5704 H 0.59728 0.51581 0.24896 0.0
H5705 H 0.58424 0.512 0.21536 0.0
H5706 H 0.62773 0.55202 0.20475 0.0
H5707 H 0.64113 0.55541 0.2381 0.0
H5708 H 0.58846 0.55607 0.1913 0.0
H5709 H 0.63063 0.51491 0.18904 0.0
H5710 H 0.64353 0.48847 0.19859 0.0
H5711 H 0.5942 0.45065 0.18056 0.0
H5712 H 0.58092 0.47696 0.17123 0.0
H5713 H 0.57201 0.55115 0.09139 0.0
H5714 H 0.58467 0.55386 0.12474 0.0
H5715 H 0.56046 0.49601 0.12547 0.0
H5716 H 0.5488 0.49298 0.09177 0.0
H5717 H 0.58931 0.50048 0.145 0.0
H5718 H 0.54612 0.53785 0.14698 0.0
H5719 H 0.53 0.56245 0.1388 0.0
H5720 H 0.57602 0.60502 0.15888 0.0
H5721 H 0.59249 0.58063 0.16695 0.0
C5722 C 0.60411 0.52372 0.23945 0.0
C5723 C 0.62029 0.53587 0.24623 0.0
C5724 C 0.59664 0.52152 0.22025 0.0
C5725 C 0.605 0.53172 0.20752 0.0
C5726 C 0.62105 0.544 0.21429 0.0
C5727 C 0.62872 0.54586 0.23336 0.0
C5728 C 0.59694 0.52978 0.18719 0.0
C5729 C 0.5888 0.54404 0.18107 0.0
C5730 C 0.59674 0.51373 0.17404 0.0
C5731 C 0.60473 0.49796 0.17971 0.0
C5732 C 0.62248 0.50101 0.18735 0.0
C5733 C 0.62987 0.48604 0.19267 0.0
C5734 C 0.61968 0.46791 0.19026 0.0
C5735 C 0.60208 0.46471 0.18248 0.0
C5736 C 0.59461 0.47965 0.17718 0.0
C5737 C 0.56931 0.53905 0.09869 0.0
C5738 C 0.55926 0.5219 0.0889 0.0
C5739 C 0.57648 0.54062 0.1179 0.0
C5740 C 0.5733 0.52528 0.12807 0.0
C5741 C 0.56321 0.50814 0.1182 0.0
C5742 C 0.55643 0.50642 0.09887 0.0
C5743 C 0.5808 0.52694 0.14874 0.0
C5744 C 0.58884 0.51258 0.15505 0.0
C5745 C 0.58042 0.54267 0.16222 0.0
C5746 C 0.57058 0.55739 0.1574 0.0
C5747 C 0.55283 0.55244 0.14952 0.0
C5748 C 0.54363 0.56635 0.14493 0.0
C5749 C 0.55199 0.58528 0.14827 0.0
C5750 C 0.56957 0.59034 0.15627 0.0
C5751 C 0.57884 0.57649 0.16088 0.0
H5752 H 0.54484 0.59603 0.1447 0.0
H5753 H 0.62544 0.45633 0.19437 0.0
H5754 H 0.22477 0.82867 0.94385 0.0
H5755 H 0.22967 0.80893 0.91618 0.0
H5756 H 0.22802 0.85459 0.8834 0.0
H5757 H 0.22274 0.87441 0.91092 0.0
H5758 H 0.21528 0.81979 0.86151 0.0
H5759 H 0.26574 0.85101 0.90629 0.0
H5760 H 0.28329 0.86001 0.93817 0.0
H5761 H 0.28422 0.80193 0.94204 0.0
H5762 H 0.26639 0.79255 0.91028 0.0
H5763 H 0.2669 0.79832 0.79437 0.0
H5764 H 0.25512 0.81333 0.81995 0.0
H5765 H 0.26739 0.77136 0.8544 0.0
H5766 H 0.28166 0.75783 0.82933 0.0
H5767 H 0.27297 0.8025 0.87567 0.0
H5768 H 0.22315 0.77225 0.82781 0.0
H5769 H 0.20678 0.76574 0.79527 0.0
H5770 H 0.20599 0.8245 0.79613 0.0
H5771 H 0.22243 0.83137 0.82866 0.0
C5772 C 0.22496 0.8344 0.93063 0.0
C5773 C 0.22388 0.85333 0.92976 0.0
C5774 C 0.22777 0.82307 0.91483 0.0
C5775 C 0.22971 0.8305 0.89796 0.0
C5776 C 0.22674 0.84867 0.89639 0.0
C5777 C 0.22377 0.86 0.91218 0.0
C5778 C 0.23713 0.82038 0.88302 0.0
C5779 C 0.22788 0.81598 0.86453 0.0
C5780 C 0.25358 0.81544 0.88706 0.0
C5781 C 0.26457 0.82106 0.906 0.0
C5782 C 0.26959 0.84014 0.91399 0.0
C5783 C 0.27959 0.84532 0.93203 0.0
C5784 C 0.28482 0.83155 0.94214 0.0
C5785 C 0.28012 0.81258 0.9342 0.0
C5786 C 0.27007 0.80732 0.91618 0.0
C5787 C 0.26775 0.79271 0.80764 0.0
C5788 C 0.27571 0.77728 0.81007 0.0
C5789 C 0.26043 0.80095 0.82211 0.0
C5790 C 0.25969 0.79311 0.83894 0.0
C5791 C 0.26764 0.7776 0.84147 0.0
C5792 C 0.27576 0.76985 0.82719 0.0
C5793 C 0.25104 0.8015 0.85399 0.0
C5794 C 0.26017 0.80581 0.87259 0.0
C5795 C 0.23457 0.80656 0.84994 0.0
C5796 C 0.22404 0.80231 0.83067 0.0
C5797 C 0.21946 0.78377 0.82107 0.0
C5798 C 0.21019 0.78002 0.80262 0.0
C5799 C 0.20537 0.7947 0.79364 0.0
C5800 C 0.20971 0.81314 0.80313 0.0
C5801 C 0.21894 0.81696 0.8216 0.0
H5802 H 0.19826 0.79179 0.77933 0.0
H5803 H 0.29256 0.83558 0.95612 0.0
H5804 H 0.95836 0.56252 0.73238 0.0
H5805 H 0.9732 0.56082 0.70449 0.0
H5806 H 0.93034 0.51831 0.67433 0.0
H5807 H 0.9152 0.52044 0.70209 0.0
H5808 H 0.96131 0.50826 0.66613 0.0
H5809 H 0.93838 0.56455 0.6635 0.0
H5810 H 0.93387 0.59605 0.67549 0.0
H5811 H 0.9889 0.61774 0.68329 0.0
H5812 H 0.99376 0.58629 0.67159 0.0
H5813 H 0.9908 0.54404 0.57211 0.0
H5814 H 0.97507 0.54639 0.59934 0.0
H5815 H 0.01213 0.52105 0.6313 0.0
H5816 H 0.02823 0.51936 0.60441 0.0
H5817 H 0.98276 0.56484 0.63752 0.0
H5818 H 0.99044 0.49465 0.6631 0.0
H5819 H 0.99406 0.46301 0.65025 0.0
H5820 H 0.96831 0.46901 0.59546 0.0
H5821 H 0.96433 0.50056 0.60805 0.0
C5822 C 0.95185 0.55287 0.71983 0.0
C5823 C 0.93514 0.5418 0.72011 0.0
C5824 C 0.96053 0.55187 0.70355 0.0
C5825 C 0.95331 0.53941 0.68647 0.0
C5826 C 0.9367 0.52815 0.68681 0.0
C5827 C 0.92783 0.52948 0.70297 0.0
C5828 C 0.96291 0.5382 0.66863 0.0
C5829 C 0.96602 0.52081 0.66015 0.0
C5830 C 0.96933 0.55413 0.65983 0.0
C5831 C 0.96644 0.57302 0.66685 0.0
C5832 C 0.94953 0.576 0.66792 0.0
C5833 C 0.94691 0.59385 0.67464 0.0
C5834 C 0.9611 0.60887 0.6802 0.0
C5835 C 0.97793 0.60608 0.67901 0.0
C5836 C 0.98062 0.58825 0.67232 0.0
C5837 C 0.99578 0.53896 0.58488 0.0
C5838 C 0.01119 0.53146 0.58539 0.0
C5839 C 0.98663 0.54039 0.60079 0.0
C5840 C 0.99192 0.53391 0.61814 0.0
C5841 C 1.0072 0.52621 0.61856 0.0
C5842 C 0.01661 0.52524 0.60285 0.0
C5843 C 0.98163 0.53501 0.63542 0.0
C5844 C 0.97827 0.55234 0.6437 0.0
C5845 C 0.97514 0.51906 0.64415 0.0
C5846 C 0.97726 0.50004 0.63649 0.0
C5847 C 0.9855 0.48918 0.64833 0.0
C5848 C 0.98762 0.47127 0.64109 0.0
C5849 C 0.98147 0.46403 0.62204 0.0
C5850 C 0.97313 0.47466 0.6102 0.0
C5851 C 0.97096 0.49257 0.61738 0.0
H5852 H 0.98314 0.45017 0.61645 0.0
H5853 H 0.95904 0.62269 0.68539 0.0
H5854 H 0.27434 0.19946 0.47366 0.0
H5855 H 0.27898 0.21879 0.44833 0.0
H5856 H 0.25664 0.17027 0.40634 0.0
H5857 H 0.25249 0.15095 0.43137 0.0
H5858 H 0.28259 0.18781 0.39401 0.0
H5859 H 0.23499 0.20866 0.41878 0.0
H5860 H 0.21944 0.2214 0.44315 0.0
H5861 H 0.25859 0.27215 0.45554 0.0
H5862 H 0.2745 0.25961 0.43138 0.0
H5863 H 0.27147 0.23847 0.31463 0.0
H5864 H 0.26477 0.21976 0.34002 0.0
H5865 H 0.29483 0.26524 0.38175 0.0
H5866 H 0.30153 0.28381 0.3565 0.0
H5867 H 0.26463 0.24939 0.39374 0.0
H5868 H 0.31192 0.2279 0.3683 0.0
H5869 H 0.3261 0.21545 0.34247 0.0
H5870 H 0.28591 0.16559 0.33017 0.0
H5871 H 0.27135 0.17787 0.35577 0.0
C5872 C 0.27034 0.19292 0.45904 0.0
C5873 C 0.26301 0.17351 0.45478 0.0
C5874 C 0.27294 0.20405 0.44445 0.0
C5875 C 0.26803 0.19621 0.42512 0.0
C5876 C 0.26067 0.17687 0.42094 0.0
C5877 C 0.25823 0.16576 0.43544 0.0
C5878 C 0.27063 0.20789 0.4092 0.0
C5879 C 0.2784 0.20114 0.39395 0.0
C5880 C 0.26553 0.22555 0.40886 0.0
C5881 C 0.25603 0.23311 0.42342 0.0
C5882 C 0.24035 0.22248 0.4268 0.0
C5883 C 0.23146 0.22967 0.44056 0.0
C5884 C 0.23805 0.24755 0.45092 0.0
C5885 C 0.25352 0.25829 0.44752 0.0
C5886 C 0.26247 0.25115 0.43379 0.0
C5887 C 0.27635 0.24461 0.32921 0.0
C5888 C 0.28691 0.26276 0.33346 0.0
C5889 C 0.27266 0.23381 0.34378 0.0
C5890 C 0.27935 0.24094 0.36299 0.0
C5891 C 0.28943 0.2593 0.36719 0.0
C5892 C 0.29329 0.26994 0.35267 0.0
C5893 C 0.27647 0.22923 0.37869 0.0
C5894 C 0.26872 0.236 0.39387 0.0
C5895 C 0.28146 0.21154 0.37888 0.0
C5896 C 0.29045 0.20389 0.36384 0.0
C5897 C 0.30605 0.21432 0.36002 0.0
C5898 C 0.31416 0.2073 0.34543 0.0
C5899 C 0.30688 0.18977 0.33464 0.0
C5900 C 0.29152 0.17918 0.33852 0.0
C5901 C 0.28334 0.18616 0.35308 0.0
H5902 H 0.31316 0.18437 0.32332 0.0
H5903 H 0.23114 0.2531 0.46156 0.0
H5904 H 0.3816 0.67974 0.54674 0.0
H5905 H 0.41167 0.67818 0.54384 0.0
H5906 H 0.39462 0.64718 0.48757 0.0
H5907 H 0.36471 0.64881 0.4903 0.0
H5908 H 0.41501 0.64264 0.5423 0.0
H5909 H 0.4268 0.64409 0.46361 0.0
H5910 H 0.42548 0.66566 0.43977 0.0
H5911 H 0.43248 0.71257 0.48392 0.0
H5912 H 0.43392 0.69133 0.50807 0.0
H5913 H 0.43533 0.56452 0.48977 0.0
H5914 H 0.42627 0.59492 0.4914 0.0
H5915 H 0.47387 0.62104 0.52894 0.0
H5916 H 0.48293 0.59066 0.52769 0.0
H5917 H 0.44881 0.63824 0.48928 0.0
H5918 H 0.45891 0.6256 0.55782 0.0
H5919 H 0.45762 0.60212 0.57996 0.0
H5920 H 0.40462 0.57832 0.55498 0.0
H5921 H 0.40574 0.60149 0.53253 0.0
C5922 C 0.38435 0.67339 0.5334 0.0
C5923 C 0.37077 0.6638 0.51899 0.0
C5924 C 0.40158 0.67259 0.53174 0.0
C5925 C 0.40538 0.66234 0.51561 0.0
C5926 C 0.39208 0.65527 0.50012 0.0
C5927 C 0.37488 0.65598 0.5018 0.0
C5928 C 0.42109 0.65395 0.517 0.0
C5929 C 0.42294 0.6424 0.53113 0.0
C5930 C 0.43118 0.65322 0.50223 0.0
C5931 C 0.43044 0.66607 0.48769 0.0
C5932 C 0.42818 0.65902 0.46828 0.0
C5933 C 0.42736 0.67119 0.45469 0.0
C5934 C 0.42892 0.69047 0.46032 0.0
C5935 C 0.43124 0.69762 0.47956 0.0
C5936 C 0.432 0.68551 0.49321 0.0
C5937 C 0.44401 0.57681 0.49806 0.0
C5938 C 0.45971 0.57519 0.50879 0.0
C5939 C 0.43889 0.59415 0.49887 0.0
C5940 C 0.44947 0.61011 0.51024 0.0
C5941 C 0.4656 0.60882 0.52008 0.0
C5942 C 0.47062 0.59144 0.5195 0.0
C5943 C 0.44214 0.62698 0.51427 0.0
C5944 C 0.44163 0.6396 0.50101 0.0
C5945 C 0.4332 0.62882 0.52981 0.0
C5946 C 0.43248 0.61511 0.54345 0.0
C5947 C 0.44704 0.61527 0.557 0.0
C5948 C 0.44634 0.60203 0.5696 0.0
C5949 C 0.43107 0.5887 0.56885 0.0
C5950 C 0.41645 0.58861 0.55552 0.0
C5951 C 0.41712 0.60178 0.54286 0.0
H5952 H 0.43054 0.57847 0.57861 0.0
H5953 H 0.42831 0.69987 0.44978 0.0
H5954 H 0.85255 0.93938 0.57582 0.0
H5955 H 0.88179 0.9568 0.57821 0.0
H5956 H 0.88931 0.91971 0.5299 0.0
H5957 H 0.86084 0.9005 0.53 0.0
H5958 H 0.91667 0.92644 0.54493 0.0
H5959 H 0.89632 0.99591 0.54451 0.0
H5960 H 0.88353 0.02037 0.56101 0.0
H5961 H 0.89776 1.00136 0.6141 0.0
H5962 H 0.9111 0.97729 0.59787 0.0
H5963 H 0.98586 0.98826 0.51453 0.0
H5964 H 0.95864 0.96844 0.51928 0.0
H5965 H 0.96456 0.99827 0.57592 0.0
H5966 H 0.99127 0.0184 0.57089 0.0
H5967 H 0.9339 0.99555 0.56192 0.0
H5968 H 0.96917 0.95045 0.56534 0.0
H5969 H 0.9899 0.93121 0.55566 0.0
H5970 H 0.9535 0.90519 0.50574 0.0
H5971 H 0.93263 0.92449 0.51498 0.0
C5972 C 0.86056 0.93501 0.56575 0.0
C5973 C 0.8542 0.91866 0.55255 0.0
C5974 C 0.87758 0.94544 0.56678 0.0
C5975 C 0.88873 0.94056 0.554 0.0
C5976 C 0.88189 0.92418 0.54052 0.0
C5977 C 0.86527 0.91312 0.54028 0.0
C5978 C 0.9074 0.95152 0.55452 0.0
C5979 C 0.9199 0.94165 0.54812 0.0
C5980 C 0.91334 0.97135 0.56047 0.0
C5981 C 0.90337 0.98388 0.56976 0.0
C5982 C 0.89607 0.99655 0.55958 0.0
C5983 C 0.88906 0.01056 0.56893 0.0
C5984 C 0.88934 0.01205 0.58851 0.0
C5985 C 0.89716 0.99992 0.59887 0.0
C5986 C 0.90455 0.98619 0.58962 0.0
C5987 C 0.98142 0.99043 0.52805 0.0
C5988 C 0.99074 1.005 0.5423 0.0
C5989 C 0.96584 0.979 0.53083 0.0
C5990 C 0.95931 0.98163 0.54805 0.0
C5991 C 0.96901 0.99587 0.56243 0.0
C5992 C 0.9844 1.0074 0.55957 0.0
C5993 C 0.94194 0.97058 0.55077 0.0
C5994 C 0.93007 0.98038 0.55804 0.0
C5995 C 0.93691 0.95075 0.54638 0.0
C5996 C 0.94939 0.93906 0.54077 0.0
C5997 C 0.96563 0.94074 0.55222 0.0
C5998 C 0.9774 0.9298 0.54682 0.0
C5999 C 0.97303 0.91701 0.53007 0.0
C6000 C 0.95687 0.91512 0.5187 0.0
C6001 C 0.94506 0.92604 0.52402 0.0
H6002 H 0.98215 0.90853 0.52593 0.0
H6003 H 0.88381 0.02283 0.5957 0.0
H6004 H 0.90596 0.04332 0.22341 0.0
H6005 H 0.8947 0.072 0.2194 0.0
H6006 H 0.90859 0.09065 0.27965 0.0
H6007 H 0.91885 0.06147 0.28364 0.0
H6008 H 0.87802 0.09423 0.27043 0.0
H6009 H 0.92906 0.11272 0.24304 0.0
H6010 H 0.95048 0.10971 0.22157 0.0
H6011 H 0.91073 0.10508 0.17337 0.0
H6012 H 0.88901 0.10781 0.19455 0.0
H6013 H 0.85606 0.18384 0.26826 0.0
H6014 H 0.87423 0.1602 0.26987 0.0
H6015 H 0.8495 0.13328 0.21385 0.0
H6016 H 0.83081 0.15645 0.2123 0.0
H6017 H 0.88646 0.13527 0.22077 0.0
H6018 H 0.83558 0.11548 0.24945 0.0
H6019 H 0.81501 0.11969 0.27168 0.0
H6020 H 0.85654 0.12827 0.31879 0.0
H6021 H 0.87741 0.12438 0.2968 0.0
C6022 C 0.90709 0.05388 0.23566 0.0
C6023 C 0.91354 0.0504 0.25379 0.0
C6024 C 0.90064 0.07031 0.23339 0.0
C6025 C 0.90085 0.08376 0.2492 0.0
C6026 C 0.90816 0.08059 0.2672 0.0
C6027 C 0.91422 0.06401 0.26948 0.0
C6028 C 0.89201 0.10013 0.24737 0.0
C6029 C 0.88022 0.10336 0.25977 0.0
C6030 C 0.89435 0.11193 0.23317 0.0
C6031 C 0.90737 0.11029 0.22039 0.0
C6032 C 0.92486 0.11091 0.22786 0.0
C6033 C 0.93706 0.10928 0.21574 0.0
C6034 C 0.93196 0.10715 0.19612 0.0
C6035 C 0.91466 0.1067 0.18857 0.0
C6036 C 0.9024 0.10831 0.20063 0.0
C6037 C 0.85438 0.17288 0.25626 0.0
C6038 C 0.84168 0.172 0.24026 0.0
C6039 C 0.86491 0.15945 0.25716 0.0
C6040 C 0.86312 0.14484 0.24206 0.0
C6041 C 0.85114 0.14443 0.22567 0.0
C6042 C 0.84047 0.15778 0.22481 0.0
C6043 C 0.87281 0.12927 0.24394 0.0
C6044 C 0.88455 0.12616 0.23151 0.0
C6045 C 0.87065 0.11768 0.25824 0.0
C6046 C 0.85808 0.11983 0.27147 0.0
C6047 C 0.84035 0.11841 0.26454 0.0
C6048 C 0.82863 0.12072 0.2771 0.0
C6049 C 0.83447 0.12429 0.29663 0.0
C6050 C 0.85204 0.12552 0.30365 0.0
C6051 C 0.86381 0.12326 0.29115 0.0
H6052 H 0.82538 0.12607 0.30633 0.0
H6053 H 0.94143 0.1059 0.18676 0.0
H6054 H 0.77838 0.16049 0.07484 0.0
H6055 H 0.75014 0.14765 0.08295 0.0
H6056 H 0.77243 0.10604 0.11054 0.0
H6057 H 0.80059 0.11843 0.10137 0.0
H6058 H 0.74508 0.08946 0.09007 0.0
H6059 H 0.7559 0.14263 0.13577 0.0
H6060 H 0.76532 0.17583 0.15037 0.0
H6061 H 0.72505 0.19097 0.11255 0.0
H6062 H 0.71554 0.15792 0.0975 0.0
H6063 H 0.65533 0.05729 0.09667 0.0
H6064 H 0.6866 0.06968 0.10615 0.0
H6065 H 0.68296 0.11448 0.07252 0.0
H6066 H 0.65181 0.10216 0.06296 0.0
H6067 H 0.70233 0.12744 0.10753 0.0
H6068 H 0.69801 0.07606 0.05637 0.0
H6069 H 0.68988 0.04312 0.04065 0.0
H6070 H 0.71923 0.02557 0.08764 0.0
H6071 H 0.72734 0.0584 0.10375 0.0
C6072 C 0.77717 0.14865 0.0827 0.0
C6073 C 0.79128 0.13996 0.08697 0.0
C6074 C 0.76113 0.14151 0.08765 0.0
C6075 C 0.75915 0.12607 0.09773 0.0
C6076 C 0.77361 0.11798 0.10282 0.0
C6077 C 0.7896 0.1249 0.09746 0.0
C6078 C 0.74151 0.11707 0.10058 0.0
C6079 C 0.73585 0.09775 0.09415 0.0
C6080 C 0.72945 0.12776 0.10641 0.0
C6081 C 0.73502 0.14773 0.11547 0.0
C6082 C 0.7491 0.15304 0.13048 0.0
C6083 C 0.75445 0.17185 0.13885 0.0
C6084 C 0.74579 0.1855 0.13239 0.0
C6085 C 0.73173 0.18037 0.11756 0.0
C6086 C 0.72633 0.16158 0.10913 0.0
C6087 C 0.66126 0.06966 0.09115 0.0
C6088 C 0.65117 0.07875 0.07905 0.0
C6089 C 0.67907 0.07678 0.09668 0.0
C6090 C 0.68703 0.09301 0.09006 0.0
C6091 C 0.67699 0.10205 0.07795 0.0
C6092 C 0.65923 0.09498 0.07245 0.0
C6093 C 0.70593 0.10042 0.09515 0.0
C6094 C 0.71174 0.11926 0.10352 0.0
C6095 C 0.71819 0.08937 0.0909 0.0
C6096 C 0.71299 0.0696 0.08142 0.0
C6097 C 0.70253 0.06513 0.06346 0.0
C6098 C 0.69798 0.0465 0.05445 0.0
C6099 C 0.70396 0.03225 0.06318 0.0
C6100 C 0.71454 0.03661 0.08093 0.0
C6101 C 0.7191 0.05522 0.09001 0.0
H6102 H 0.70045 0.01783 0.05617 0.0
H6103 H 0.74996 0.20006 0.13888 0.0
H6104 H 0.16721 0.44295 0.28072 0.0
H6105 H 0.18025 0.41458 0.2779 0.0
H6106 H 0.22683 0.44542 0.31405 0.0
H6107 H 0.21395 0.47326 0.31712 0.0
H6108 H 0.2381 0.42451 0.28875 0.0
H6109 H 0.19342 0.4071 0.32616 0.0
H6110 H 0.16354 0.40031 0.33338 0.0
H6111 H 0.14837 0.35766 0.28454 0.0
H6112 H 0.1781 0.3644 0.27686 0.0
H6113 H 0.28263 0.34777 0.3031 0.0
H6114 H 0.26769 0.37426 0.30528 0.0
H6115 H 0.21975 0.33751 0.27807 0.0
H6116 H 0.23465 0.3107 0.27685 0.0
H6117 H 0.20823 0.36108 0.29731 0.0
H6118 H 0.25092 0.37814 0.25833 0.0
H6119 H 0.28006 0.3845 0.24906 0.0
H6120 H 0.2979 0.42739 0.29743 0.0
H6121 H 0.26891 0.42113 0.30711 0.0
C6122 C 0.1802 0.44386 0.28821 0.0
C6123 C 0.18907 0.46126 0.29931 0.0
C6124 C 0.18784 0.42723 0.28665 0.0
C6125 C 0.20498 0.42689 0.29582 0.0
C6126 C 0.21378 0.44435 0.30659 0.0
C6127 C 0.20612 0.46071 0.30842 0.0
C6128 C 0.21395 0.40907 0.29431 0.0
C6129 C 0.2314 0.41077 0.29089 0.0
C6130 C 0.20585 0.3903 0.29637 0.0
C6131 C 0.18793 0.38642 0.3008 0.0
C6132 C 0.18367 0.39641 0.31685 0.0
C6133 C 0.16677 0.39254 0.32104 0.0
C6134 C 0.15405 0.3786 0.30939 0.0
C6135 C 0.15822 0.36848 0.29353 0.0
C6136 C 0.17509 0.37233 0.28924 0.0
C6137 C 0.26888 0.34507 0.2975 0.0
C6138 C 0.26031 0.32634 0.28969 0.0
C6139 C 0.26011 0.36071 0.29852 0.0
C6140 C 0.2421 0.35907 0.29133 0.0
C6141 C 0.23347 0.34021 0.28378 0.0
C6142 C 0.24221 0.32448 0.28302 0.0
C6143 C 0.2325 0.37651 0.29183 0.0
C6144 C 0.21495 0.37477 0.2951 0.0
C6145 C 0.24039 0.39522 0.28927 0.0
C6146 C 0.25781 0.39902 0.28355 0.0
C6147 C 0.2611 0.38885 0.26705 0.0
C6148 C 0.27758 0.39244 0.26172 0.0
C6149 C 0.29084 0.4063 0.27268 0.0
C6150 C 0.28763 0.41663 0.28898 0.0
C6151 C 0.27117 0.41308 0.29439 0.0
H6152 H 0.30359 0.40906 0.26853 0.0
H6153 H 0.14098 0.37561 0.31268 0.0
H6154 H 0.25393 0.39264 0.05921 0.0
H6155 H 0.22643 0.40381 0.06063 0.0
H6156 H 0.24496 0.45012 0.0317 0.0
H6157 H 0.27191 0.43941 0.03031 0.0
H6158 H 0.23135 0.46284 0.06073 0.0
H6159 H 0.21396 0.41052 0.00958 0.0
H6160 H 0.20944 0.37722 0.99544 0.0
H6161 H 0.17546 0.36131 0.03508 0.0
H6162 H 0.17996 0.39453 0.04962 0.0
H6163 H 0.15975 0.49939 0.02407 0.0
H6164 H 0.18418 0.48342 0.0281 0.0
H6165 H 0.15509 0.44317 0.05713 0.0
H6166 H 0.13021 0.45889 0.05267 0.0
H6167 H 0.1728 0.42541 0.03292 0.0
H6168 H 0.18783 0.47812 0.0819 0.0
H6169 H 0.19221 0.51142 0.09594 0.0
H6170 H 0.23085 0.52653 0.06092 0.0
H6171 H 0.22652 0.49335 0.04646 0.0
C6172 C 0.2521 0.40515 0.0531 0.0
C6173 C 0.26537 0.41498 0.04464 0.0
C6174 C 0.23631 0.41153 0.05387 0.0
C6175 C 0.23345 0.42792 0.04626 0.0
C6176 C 0.24668 0.43757 0.03781 0.0
C6177 C 0.26223 0.43125 0.03697 0.0
C6178 C 0.21705 0.43558 0.04705 0.0
C6179 C 0.21859 0.45461 0.05454 0.0
C6180 C 0.20017 0.42489 0.03955 0.0
C6181 C 0.19748 0.40496 0.03083 0.0
C6182 C 0.20565 0.3999 0.01538 0.0
C6183 C 0.20306 0.38105 0.00728 0.0
C6184 C 0.19222 0.36715 0.0144 0.0
C6185 C 0.18389 0.37209 0.02961 0.0
C6186 C 0.18645 0.39092 0.03778 0.0
C6187 C 0.15836 0.48704 0.03117 0.0
C6188 C 0.14279 0.48052 0.03797 0.0
C6189 C 0.17252 0.47797 0.03365 0.0
C6190 C 0.17173 0.46209 0.04312 0.0
C6191 C 0.15618 0.45537 0.0498 0.0
C6192 C 0.14196 0.46453 0.04739 0.0
C6193 C 0.18725 0.45282 0.04606 0.0
C6194 C 0.18554 0.43355 0.03932 0.0
C6195 C 0.20403 0.46327 0.05428 0.0
C6196 C 0.20675 0.48325 0.063 0.0
C6197 C 0.19717 0.48856 0.07709 0.0
C6198 C 0.19966 0.50741 0.08514 0.0
C6199 C 0.21178 0.52109 0.0793 0.0
C6200 C 0.22146 0.51593 0.06542 0.0
C6201 C 0.21901 0.49709 0.05731 0.0
H6202 H 0.21368 0.53568 0.08555 0.0
H6203 H 0.19023 0.35257 0.0081 0.0
H6204 H 0.92163 0.94163 0.27609 0.0
H6205 H 0.90155 0.91201 0.27684 0.0
H6206 H 0.86572 0.92484 0.23168 0.0
H6207 H 0.88528 0.95502 0.23209 0.0
H6208 H 0.84751 0.91217 0.25294 0.0
H6209 H 0.89232 0.88763 0.22834 0.0
H6210 H 0.92179 0.88227 0.22565 0.0
H6211 H 0.92465 0.86029 0.27856 0.0
H6212 H 0.89529 0.86579 0.28173 0.0
H6213 H 0.79095 0.82324 0.24225 0.0
H6214 H 0.81281 0.84984 0.23717 0.0
H6215 H 0.84563 0.8444 0.28835 0.0
H6216 H 0.82377 0.81786 0.29347 0.0
H6217 H 0.86498 0.85151 0.26098 0.0
H6218 H 0.82092 0.87845 0.28704 0.0
H6219 H 0.79139 0.88385 0.2893 0.0
H6220 H 0.78781 0.90221 0.23458 0.0
H6221 H 0.81723 0.89663 0.23185 0.0
C6222 C 0.90946 0.93801 0.26632 0.0
C6223 C 0.90481 0.95079 0.25436 0.0
C6224 C 0.89801 0.92092 0.26655 0.0
C6225 C 0.88199 0.91573 0.25413 0.0
C6226 C 0.87781 0.92829 0.24157 0.0
C6227 C 0.88902 0.9456 0.24176 0.0
C6228 C 0.8691 0.89801 0.25506 0.0
C6229 C 0.85151 0.89905 0.2548 0.0
C6230 C 0.8739 0.88041 0.25708 0.0
C6231 C 0.89166 0.87732 0.25536 0.0
C6232 C 0.8993 0.88182 0.23949 0.0
C6233 C 0.91597 0.87873 0.23787 0.0
C6234 C 0.92511 0.87099 0.25195 0.0
C6235 C 0.91757 0.86631 0.26768 0.0
C6236 C 0.90091 0.86941 0.26939 0.0
C6237 C 0.80285 0.82769 0.25239 0.0
C6238 C 0.80563 0.81837 0.26823 0.0
C6239 C 0.81535 0.84295 0.2495 0.0
C6240 C 0.8309 0.84936 0.26247 0.0
C6241 C 0.83383 0.83978 0.27809 0.0
C6242 C 0.82131 0.82455 0.28099 0.0
C6243 C 0.84384 0.86633 0.26006 0.0
C6244 C 0.86128 0.86496 0.25971 0.0
C6245 C 0.83899 0.88375 0.25766 0.0
C6246 C 0.82118 0.88684 0.25912 0.0
C6247 C 0.81376 0.88342 0.27539 0.0
C6248 C 0.79706 0.88656 0.27678 0.0
C6249 C 0.7877 0.89329 0.26206 0.0
C6250 C 0.79505 0.89693 0.24594 0.0
C6251 C 0.81173 0.89378 0.24446 0.0
H6252 H 0.77478 0.89574 0.26318 0.0
H6253 H 0.93801 0.86858 0.25065 0.0
H6254 H 0.66655 0.07498 0.81474 0.0
H6255 H 0.6827 0.10704 0.81497 0.0
H6256 H 0.72008 0.08471 0.78556 0.0
H6257 H 0.70424 0.05257 0.78621 0.0
H6258 H 0.73814 0.11366 0.80545 0.0
H6259 H 0.68374 0.10944 0.76553 0.0
H6260 H 0.65184 0.10371 0.75666 0.0
H6261 H 0.64921 0.14658 0.8018 0.0
H6262 H 0.68109 0.15241 0.81107 0.0
H6263 H 0.77019 0.20169 0.77051 0.0
H6264 H 0.75516 0.1698 0.77341 0.0
H6265 H 0.7309 0.19277 0.81821 0.0
H6266 H 0.74646 0.2247 0.81584 0.0
H6267 H 0.70644 0.16421 0.79108 0.0
H6268 H 0.76194 0.16912 0.82915 0.0
H6269 H 0.79396 0.17494 0.83611 0.0
H6270 H 0.79445 0.13054 0.79158 0.0
H6271 H 0.76242 0.12464 0.78415 0.0
C6272 C 0.6783 0.0768 0.80844 0.0
C6273 C 0.68406 0.06068 0.80087 0.0
C6274 C 0.68759 0.09546 0.80831 0.0
C6275 C 0.70282 0.09921 0.79983 0.0
C6276 C 0.70857 0.083 0.79227 0.0
C6277 C 0.69942 0.0643 0.7927 0.0
C6278 C 0.71254 0.11964 0.79874 0.0
C6279 C 0.73098 0.12446 0.802 0.0
C6280 C 0.7039 0.13467 0.79462 0.0
C6281 C 0.68477 0.13121 0.78911 0.0
C6282 C 0.67634 0.11756 0.77363 0.0
C6283 C 0.65827 0.11431 0.76853 0.0
C6284 C 0.6485 0.12474 0.77869 0.0
C6285 C 0.65679 0.13848 0.79396 0.0
C6286 C 0.67486 0.14178 0.79914 0.0
C6287 C 0.76174 0.20012 0.7811 0.0
C6288 C 0.75982 0.21634 0.7929 0.0
C6289 C 0.75304 0.18159 0.78279 0.0
C6290 C 0.74157 0.17821 0.79607 0.0
C6291 C 0.73947 0.19442 0.80774 0.0
C6292 C 0.74854 0.21294 0.8064 0.0
C6293 C 0.73188 0.15803 0.79765 0.0
C6294 C 0.7135 0.15332 0.79449 0.0
C6295 C 0.74056 0.14306 0.80155 0.0
C6296 C 0.75979 0.14659 0.80594 0.0
C6297 C 0.76888 0.16072 0.82071 0.0
C6298 C 0.78703 0.164 0.82478 0.0
C6299 C 0.79623 0.15315 0.81426 0.0
C6300 C 0.7873 0.13896 0.79969 0.0
C6301 C 0.76915 0.13563 0.79555 0.0
H6302 H 0.81029 0.1557 0.81744 0.0
H6303 H 0.63451 0.1222 0.77472 0.0
loop_
_geom_bond_atom_site_label_1
_geom_bond_atom_site_label_2
_geom_bond_distance
_geom_bond_site_symmetry_2
_ccdc_geom_bond_type
Mn0 O5 2.095 . S
Mn0 O15 2.162 . S
Mn0 O16 2.297 1_455 S
Mn0 O24 2.385 1_455 S
Mn0 O25 2.209 1_455 S
Mn0 O26 2.094 . S
Mn1 O6 2.127 1_655 S
Mn1 N8 2.256 . S
Mn1 N17 2.276 . S
Mn1 O25 2.213 . S
Mn1 O27 2.117 1_655 S
C2 O24 1.234 . S
C2 O25 1.283 . S
C3 O15 1.281 1_655 S
C3 O16 1.236 . S
C4 O26 1.240 . S
C4 O27 1.264 . S
O5 Mn0 2.095 . S
O5 C14 1.250 . S
O6 Mn1 2.127 1_455 S
O6 C14 1.258 . S
C7 N8 1.326 . S
C7 C11 1.460 . S
C7 H13 0.929 1_655 S
N8 Mn1 2.256 . S
N8 C7 1.326 . S
N8 C12 1.362 . S
C9 C10 1.258 . S
C9 C12 1.431 . S
C9 C29 1.449 . S
C10 C9 1.258 . S
C10 C11 1.477 . S
C10 H30 0.931 . S
C11 C7 1.460 . S
C11 C10 1.477 . S
C11 H31 0.930 . S
C12 N8 1.362 . S
C12 C9 1.431 . S
C12 C22 1.476 . S
H13 C7 0.929 1_455 S
C14 O5 1.250 . S
C14 O6 1.258 . S
O15 Mn0 2.162 . S
O15 C3 1.281 1_455 S
O16 Mn0 2.297 1_655 S
O16 C3 1.236 . S
N17 Mn1 2.276 . S
N17 C18 1.328 . S
N17 C22 1.318 . S
C18 N17 1.328 . S
C18 C19 1.457 . S
C18 H23 0.929 . S
C19 C18 1.457 . S
C19 C20 1.291 . S
C19 H32 0.931 . S
C20 C19 1.291 . S
C20 C21 1.373 . S
C20 H33 0.929 . S
C21 C20 1.373 . S
C21 C22 1.396 . S
C21 C28 1.403 . S
C22 C12 1.476 . S
C22 N17 1.318 . S
C22 C21 1.396 . S
H23 C18 0.929 . S
O24 Mn0 2.385 1_655 S
O24 C2 1.234 . S
O25 Mn0 2.209 1_655 S
O25 Mn1 2.213 . S
O25 C2 1.283 . S
O26 Mn0 2.094 . S
O26 C4 1.240 . S
O27 Mn1 2.117 1_455 S
O27 C4 1.264 . S
C28 C21 1.403 . S
C28 C29 1.399 . S
C28 H34 0.929 . S
C29 C9 1.449 . S
C29 C28 1.399 . S
C29 H35 0.930 . S
H30 C10 0.931 . S
H31 C11 0.930 . S
H32 C19 0.931 . S
H33 C20 0.929 . S
H34 C28 0.929 . S
H35 C29 0.930 . S
Mn36 O41 2.095 . S
Mn36 O51 2.162 . S
Mn36 O52 2.297 . S
Mn36 O60 2.385 . S
Mn36 O61 2.209 . S
Mn36 O62 2.094 . S
Mn37 O42 2.121 . S
Mn37 N44 2.257 . S
Mn37 N53 2.282 . S
Mn37 O61 2.215 . S
Mn37 O63 2.117 . S
C38 O60 1.234 . S
C38 O61 1.283 . S
C39 O51 1.281 . S
C39 O52 1.236 . S
C40 O62 1.240 . S
C40 O63 1.264 . S
O41 Mn36 2.095 . S
O41 C50 1.250 . S
O42 Mn37 2.121 . S
O42 C50 1.258 . S
C43 N44 1.326 . S
C43 C47 1.460 . S
C43 H49 0.929 . S
N44 Mn37 2.257 . S
N44 C43 1.326 . S
N44 C48 1.362 . S
C45 C46 1.258 . S
C45 C48 1.431 . S
C45 C65 1.449 . S
C46 C45 1.258 . S
C46 C47 1.477 . S
C46 H66 0.931 . S
C47 C43 1.460 . S
C47 C46 1.477 . S
C47 H67 0.930 . S
C48 N44 1.362 . S
C48 C45 1.431 . S
C48 C58 1.476 . S
H49 C43 0.929 . S
C50 O41 1.250 . S
C50 O42 1.258 . S
O51 Mn36 2.162 . S
O51 C39 1.281 . S
O52 Mn36 2.297 . S
O52 C39 1.236 . S
N53 Mn37 2.282 . S
N53 C54 1.328 . S
N53 C58 1.318 . S
C54 N53 1.328 . S
C54 C55 1.457 . S
C54 H59 0.929 . S
C55 C54 1.457 . S
C55 C56 1.291 . S
C55 H68 0.931 . S
C56 C55 1.291 . S
C56 C57 1.373 . S
C56 H69 0.929 . S
C57 C56 1.373 . S
C57 C58 1.396 . S
C57 C64 1.403 . S
C58 C48 1.476 . S
C58 N53 1.318 . S
C58 C57 1.396 . S
H59 C54 0.929 . S
O60 Mn36 2.385 . S
O60 C38 1.234 . S
O61 Mn36 2.209 . S
O61 Mn37 2.215 . S
O61 C38 1.283 . S
O62 Mn36 2.094 . S
O62 C40 1.240 . S
O63 Mn37 2.117 . S
O63 C40 1.264 . S
C64 C57 1.403 . S
C64 C65 1.399 . S
C64 H70 0.929 . S
C65 C45 1.449 . S
C65 C64 1.399 . S
C65 H71 0.930 . S
H66 C46 0.931 . S
H67 C47 0.930 . S
H68 C55 0.931 . S
H69 C56 0.929 . S
H70 C64 0.929 . S
H71 C65 0.930 . S
Mn72 O77 2.095 . S
Mn72 O87 2.162 . S
Mn72 O88 2.297 . S
Mn72 O96 2.385 . S
Mn72 O97 2.209 . S
Mn72 O98 2.094 . S
Mn73 O78 2.121 . S
Mn73 N80 2.257 . S
Mn73 N89 2.282 . S
Mn73 O97 2.215 . S
Mn73 O99 2.117 . S
C74 O96 1.234 . S
C74 O97 1.283 . S
C75 O87 1.281 . S
C75 O88 1.236 . S
C76 O98 1.240 . S
C76 O99 1.264 . S
O77 Mn72 2.095 . S
O77 C86 1.250 . S
O78 Mn73 2.121 . S
O78 C86 1.258 . S
C79 N80 1.326 . S
C79 C83 1.460 . S
C79 H85 0.929 . S
N80 Mn73 2.257 . S
N80 C79 1.326 . S
N80 C84 1.362 . S
C81 C82 1.258 . S
C81 C84 1.431 . S
C81 C101 1.449 . S
C82 C81 1.258 . S
C82 C83 1.477 . S
C82 H102 0.931 . S
C83 C79 1.460 . S
C83 C82 1.477 . S
C83 H103 0.930 . S
C84 N80 1.362 . S
C84 C81 1.431 . S
C84 C94 1.476 . S
H85 C79 0.929 . S
C86 O77 1.250 . S
C86 O78 1.258 . S
O87 Mn72 2.162 . S
O87 C75 1.281 . S
O88 Mn72 2.297 . S
O88 C75 1.236 . S
N89 Mn73 2.282 . S
N89 C90 1.328 . S
N89 C94 1.318 . S
C90 N89 1.328 . S
C90 C91 1.457 . S
C90 H95 0.929 . S
C91 C90 1.457 . S
C91 C92 1.291 . S
C91 H104 0.931 . S
C92 C91 1.291 . S
C92 C93 1.373 . S
C92 H105 0.929 . S
C93 C92 1.373 . S
C93 C94 1.396 . S
C93 C100 1.403 . S
C94 C84 1.476 . S
C94 N89 1.318 . S
C94 C93 1.396 . S
H95 C90 0.929 . S
O96 Mn72 2.385 . S
O96 C74 1.234 . S
O97 Mn72 2.209 . S
O97 Mn73 2.215 . S
O97 C74 1.283 . S
O98 Mn72 2.094 . S
O98 C76 1.240 . S
O99 Mn73 2.117 . S
O99 C76 1.264 . S
C100 C93 1.403 . S
C100 C101 1.399 . S
C100 H106 0.929 . S
C101 C81 1.449 . S
C101 C100 1.399 . S
C101 H107 0.930 . S
H102 C82 0.931 . S
H103 C83 0.930 . S
H104 C91 0.931 . S
H105 C92 0.929 . S
H106 C100 0.929 . S
H107 C101 0.930 . S
Mn108 O113 2.095 . S
Mn108 O123 2.162 . S
Mn108 O124 2.297 . S
Mn108 O132 2.385 . S
Mn108 O133 2.209 . S
Mn108 O134 2.094 . S
Mn109 O114 2.121 . S
Mn109 N116 2.257 . S
Mn109 N125 2.282 . S
Mn109 O133 2.215 . S
Mn109 O135 2.117 . S
C110 O132 1.234 . S
C110 O133 1.283 . S
C111 O123 1.281 . S
C111 O124 1.236 . S
C112 O134 1.240 . S
C112 O135 1.264 . S
O113 Mn108 2.095 . S
O113 C122 1.250 . S
O114 Mn109 2.121 . S
O114 C122 1.258 . S
C115 N116 1.326 . S
C115 C119 1.460 . S
C115 H121 0.929 . S
N116 Mn109 2.257 . S
N116 C115 1.326 . S
N116 C120 1.362 . S
C117 C118 1.258 . S
C117 C120 1.431 . S
C117 C137 1.449 . S
C118 C117 1.258 . S
C118 C119 1.477 . S
C118 H138 0.931 . S
C119 C115 1.460 . S
C119 C118 1.477 . S
C119 H139 0.930 . S
C120 N116 1.362 . S
C120 C117 1.431 . S
C120 C130 1.476 . S
H121 C115 0.929 . S
C122 O113 1.250 . S
C122 O114 1.258 . S
O123 Mn108 2.162 . S
O123 C111 1.281 . S
O124 Mn108 2.297 . S
O124 C111 1.236 . S
N125 Mn109 2.282 . S
N125 C126 1.328 . S
N125 C130 1.318 . S
C126 N125 1.328 . S
C126 C127 1.457 . S
C126 H131 0.929 . S
C127 C126 1.457 . S
C127 C128 1.291 . S
C127 H140 0.931 . S
C128 C127 1.291 . S
C128 C129 1.373 . S
C128 H141 0.929 . S
C129 C128 1.373 . S
C129 C130 1.396 . S
C129 C136 1.403 . S
C130 C120 1.476 . S
C130 N125 1.318 . S
C130 C129 1.396 . S
H131 C126 0.929 . S
O132 Mn108 2.385 . S
O132 C110 1.234 . S
O133 Mn108 2.209 . S
O133 Mn109 2.215 . S
O133 C110 1.283 . S
O134 Mn108 2.094 . S
O134 C112 1.240 . S
O135 Mn109 2.117 . S
O135 C112 1.264 . S
C136 C129 1.403 . S
C136 C137 1.399 . S
C136 H142 0.929 . S
C137 C117 1.449 . S
C137 C136 1.399 . S
C137 H143 0.930 . S
H138 C118 0.931 . S
H139 C119 0.930 . S
H140 C127 0.931 . S
H141 C128 0.929 . S
H142 C136 0.929 . S
H143 C137 0.930 . S
Mn144 O149 2.095 . S
Mn144 O159 2.162 . S
Mn144 O160 2.297 . S
Mn144 O168 2.385 . S
Mn144 O169 2.209 . S
Mn144 O170 2.094 . S
Mn145 O150 2.121 . S
Mn145 N152 2.257 . S
Mn145 N161 2.280 . S
Mn145 O169 2.215 . S
Mn145 O171 2.117 . S
C146 O168 1.234 . S
C146 O169 1.283 . S
C147 O159 1.281 . S
C147 O160 1.236 . S
C148 O170 1.240 . S
C148 O171 1.264 . S
O149 Mn144 2.095 . S
O149 C158 1.250 . S
O150 Mn145 2.121 . S
O150 C158 1.258 . S
C151 N152 1.326 . S
C151 C155 1.460 . S
C151 H157 0.929 . S
N152 Mn145 2.257 . S
N152 C151 1.326 . S
N152 C156 1.362 . S
C153 C154 1.258 . S
C153 C156 1.431 . S
C153 C173 1.449 1_455 S
C154 C153 1.258 . S
C154 C155 1.477 . S
C154 H174 0.931 . S
C155 C151 1.460 . S
C155 C154 1.477 . S
C155 H175 0.930 . S
C156 N152 1.362 . S
C156 C153 1.431 . S
C156 C166 1.476 1_455 S
H157 C151 0.929 . S
C158 O149 1.250 . S
C158 O150 1.258 . S
O159 Mn144 2.162 . S
O159 C147 1.281 . S
O160 Mn144 2.297 . S
O160 C147 1.236 . S
N161 Mn145 2.280 . S
N161 C162 1.330 1_455 S
N161 C166 1.317 1_455 S
C162 N161 1.330 1_655 S
C162 C163 1.457 . S
C162 H167 0.929 . S
C163 C162 1.457 . S
C163 C164 1.291 . S
C163 H176 0.931 . S
C164 C163 1.291 . S
C164 C165 1.373 . S
C164 H177 0.929 . S
C165 C164 1.373 . S
C165 C166 1.396 . S
C165 C172 1.403 . S
C166 C156 1.476 1_655 S
C166 N161 1.317 1_655 S
C166 C165 1.396 . S
H167 C162 0.929 . S
O168 Mn144 2.385 . S
O168 C146 1.234 . S
O169 Mn144 2.209 . S
O169 Mn145 2.215 . S
O169 C146 1.283 . S
O170 Mn144 2.094 . S
O170 C148 1.240 . S
O171 Mn145 2.117 . S
O171 C148 1.264 . S
C172 C165 1.403 . S
C172 C173 1.399 . S
C172 H178 0.929 . S
C173 C153 1.449 1_655 S
C173 C172 1.399 . S
C173 H179 0.930 . S
H174 C154 0.931 . S
H175 C155 0.930 . S
H176 C163 0.931 . S
H177 C164 0.929 . S
H178 C172 0.929 . S
H179 C173 0.930 . S
Mn180 O185 2.095 . S
Mn180 O195 2.162 . S
Mn180 O196 2.297 . S
Mn180 O204 2.385 . S
Mn180 O205 2.209 . S
Mn180 O206 2.094 . S
Mn181 O186 2.121 . S
Mn181 N188 2.257 . S
Mn181 N197 2.282 . S
Mn181 O205 2.215 . S
Mn181 O207 2.117 . S
C182 O204 1.234 . S
C182 O205 1.283 . S
C183 O195 1.281 . S
C183 O196 1.236 . S
C184 O206 1.240 . S
C184 O207 1.264 . S
O185 Mn180 2.095 . S
O185 C194 1.250 . S
O186 Mn181 2.121 . S
O186 C194 1.258 . S
C187 N188 1.326 . S
C187 C191 1.460 . S
C187 H193 0.929 . S
N188 Mn181 2.257 . S
N188 C187 1.326 . S
N188 C192 1.362 . S
C189 C190 1.258 . S
C189 C192 1.431 . S
C189 C209 1.449 . S
C190 C189 1.258 . S
C190 C191 1.477 . S
C190 H210 0.931 . S
C191 C187 1.460 . S
C191 C190 1.477 . S
C191 H211 0.930 . S
C192 N188 1.362 . S
C192 C189 1.431 . S
C192 C202 1.476 . S
H193 C187 0.929 . S
C194 O185 1.250 . S
C194 O186 1.258 . S
O195 Mn180 2.162 . S
O195 C183 1.281 . S
O196 Mn180 2.297 . S
O196 C183 1.236 . S
N197 Mn181 2.282 . S
N197 C198 1.328 . S
N197 C202 1.318 . S
C198 N197 1.328 . S
C198 C199 1.457 . S
C198 H203 0.929 . S
C199 C198 1.457 . S
C199 C200 1.291 . S
C199 H212 0.931 . S
C200 C199 1.291 . S
C200 C201 1.373 . S
C200 H213 0.929 . S
C201 C200 1.373 . S
C201 C202 1.396 . S
C201 C208 1.403 . S
C202 C192 1.476 . S
C202 N197 1.318 . S
C202 C201 1.396 . S
H203 C198 0.929 . S
O204 Mn180 2.385 . S
O204 C182 1.234 . S
O205 Mn180 2.209 . S
O205 Mn181 2.215 . S
O205 C182 1.283 . S
O206 Mn180 2.094 . S
O206 C184 1.240 . S
O207 Mn181 2.117 . S
O207 C184 1.264 . S
C208 C201 1.403 . S
C208 C209 1.399 . S
C208 H214 0.929 . S
C209 C189 1.449 . S
C209 C208 1.399 . S
C209 H215 0.930 . S
H210 C190 0.931 . S
H211 C191 0.930 . S
H212 C199 0.931 . S
H213 C200 0.929 . S
H214 C208 0.929 . S
H215 C209 0.930 . S
Mn216 O221 2.095 . S
Mn216 O231 2.162 . S
Mn216 O232 2.297 . S
Mn216 O240 2.385 . S
Mn216 O241 2.209 . S
Mn216 O242 2.094 . S
Mn217 O222 2.121 . S
Mn217 N224 2.257 . S
Mn217 N233 2.282 . S
Mn217 O241 2.215 . S
Mn217 O243 2.117 . S
C218 O240 1.234 . S
C218 O241 1.283 . S
C219 O231 1.281 . S
C219 O232 1.236 . S
C220 O242 1.240 . S
C220 O243 1.264 . S
O221 Mn216 2.095 . S
O221 C230 1.250 . S
O222 Mn217 2.121 . S
O222 C230 1.258 . S
C223 N224 1.326 . S
C223 C227 1.460 . S
C223 H229 0.929 . S
N224 Mn217 2.257 . S
N224 C223 1.326 . S
N224 C228 1.362 . S
C225 C226 1.258 . S
C225 C228 1.431 . S
C225 C245 1.449 . S
C226 C225 1.258 . S
C226 C227 1.477 . S
C226 H246 0.931 . S
C227 C223 1.460 . S
C227 C226 1.477 . S
C227 H247 0.930 . S
C228 N224 1.362 . S
C228 C225 1.431 . S
C228 C238 1.476 . S
H229 C223 0.929 . S
C230 O221 1.250 . S
C230 O222 1.258 . S
O231 Mn216 2.162 . S
O231 C219 1.281 . S
O232 Mn216 2.297 . S
O232 C219 1.236 . S
N233 Mn217 2.282 . S
N233 C234 1.328 . S
N233 C238 1.318 . S
C234 N233 1.328 . S
C234 C235 1.457 . S
C234 H239 0.929 . S
C235 C234 1.457 . S
C235 C236 1.291 . S
C235 H248 0.931 . S
C236 C235 1.291 . S
C236 C237 1.373 . S
C236 H249 0.929 . S
C237 C236 1.373 . S
C237 C238 1.396 . S
C237 C244 1.403 . S
C238 C228 1.476 . S
C238 N233 1.318 . S
C238 C237 1.396 . S
H239 C234 0.929 . S
O240 Mn216 2.385 . S
O240 C218 1.234 . S
O241 Mn216 2.209 . S
O241 Mn217 2.215 . S
O241 C218 1.283 . S
O242 Mn216 2.094 . S
O242 C220 1.240 . S
O243 Mn217 2.117 . S
O243 C220 1.264 . S
C244 C237 1.403 . S
C244 C245 1.399 . S
C244 H250 0.929 . S
C245 C225 1.449 . S
C245 C244 1.399 . S
C245 H251 0.930 . S
H246 C226 0.931 . S
H247 C227 0.930 . S
H248 C235 0.931 . S
H249 C236 0.929 . S
H250 C244 0.929 . S
H251 C245 0.930 . S
Mn252 O257 2.095 . S
Mn252 O267 2.162 . S
Mn252 O268 2.297 . S
Mn252 O276 2.385 1_455 S
Mn252 O277 2.209 1_455 S
Mn252 O278 2.094 . S
Mn253 O258 2.121 . S
Mn253 N260 2.258 . S
Mn253 N269 2.282 1_455 S
Mn253 O277 2.215 1_455 S
Mn253 O279 2.117 . S
C254 O276 1.234 . S
C254 O277 1.283 . S
C255 O267 1.281 . S
C255 O268 1.236 . S
C256 O278 1.240 . S
C256 O279 1.264 . S
O257 Mn252 2.095 . S
O257 C266 1.250 . S
O258 Mn253 2.121 . S
O258 C266 1.258 . S
C259 N260 1.330 . S
C259 C263 1.472 . S
C259 H265 0.929 . S
N260 Mn253 2.258 . S
N260 C259 1.330 . S
N260 C264 1.357 1_455 S
C261 C262 1.258 . S
C261 C264 1.431 . S
C261 C281 1.449 . S
C262 C261 1.258 . S
C262 C263 1.432 1_655 S
C262 H282 0.931 . S
C263 C259 1.472 . S
C263 C262 1.432 1_455 S
C263 H283 0.963 . S
C264 N260 1.357 1_655 S
C264 C261 1.431 . S
C264 C274 1.476 . S
H265 C259 0.929 . S
C266 O257 1.250 . S
C266 O258 1.258 . S
O267 Mn252 2.162 . S
O267 C255 1.281 . S
O268 Mn252 2.297 . S
O268 C255 1.236 . S
N269 Mn253 2.282 1_655 S
N269 C270 1.328 . S
N269 C274 1.318 . S
C270 N269 1.328 . S
C270 C271 1.457 . S
C270 H275 0.929 . S
C271 C270 1.457 . S
C271 C272 1.291 . S
C271 H284 0.931 . S
C272 C271 1.291 . S
C272 C273 1.373 . S
C272 H285 0.929 . S
C273 C272 1.373 . S
C273 C274 1.396 . S
C273 C280 1.403 . S
C274 C264 1.476 . S
C274 N269 1.318 . S
C274 C273 1.396 . S
H275 C270 0.929 . S
O276 Mn252 2.385 1_655 S
O276 C254 1.234 . S
O277 Mn252 2.209 1_655 S
O277 Mn253 2.215 1_655 S
O277 C254 1.283 . S
O278 Mn252 2.094 . S
O278 C256 1.240 . S
O279 Mn253 2.117 . S
O279 C256 1.264 . S
C280 C273 1.403 . S
C280 C281 1.399 . S
C280 H286 0.929 . S
C281 C261 1.449 . S
C281 C280 1.399 . S
C281 H287 0.930 . S
H282 C262 0.931 . S
H283 C263 0.963 . S
H284 C271 0.931 . S
H285 C272 0.929 . S
H286 C280 0.929 . S
H287 C281 0.930 . S
Mn288 O293 2.095 . S
Mn288 O303 2.162 . S
Mn288 O304 2.297 . S
Mn288 O312 2.385 1_545 S
Mn288 O313 2.209 . S
Mn288 O314 2.094 . S
Mn289 O294 2.121 . S
Mn289 N296 2.257 . S
Mn289 N305 2.282 1_545 S
Mn289 O313 2.215 . S
Mn289 O315 2.117 . S
C290 O312 1.234 . S
C290 O313 1.283 1_565 S
C291 O303 1.281 . S
C291 O304 1.236 . S
C292 O314 1.240 . S
C292 O315 1.264 . S
O293 Mn288 2.095 . S
O293 C302 1.250 . S
O294 Mn289 2.121 . S
O294 C302 1.258 . S
C295 N296 1.326 . S
C295 C299 1.460 . S
C295 H301 0.929 . S
N296 Mn289 2.257 . S
N296 C295 1.326 . S
N296 C300 1.362 1_545 S
C297 C298 1.258 . S
C297 C300 1.431 . S
C297 C317 1.449 . S
C298 C297 1.258 . S
C298 C299 1.477 1_565 S
C298 H318 0.931 . S
C299 C295 1.460 . S
C299 C298 1.477 1_545 S
C299 H319 0.930 . S
C300 N296 1.362 1_565 S
C300 C297 1.431 . S
C300 C310 1.476 . S
H301 C295 0.929 . S
C302 O293 1.250 . S
C302 O294 1.258 . S
O303 Mn288 2.162 . S
O303 C291 1.281 . S
O304 Mn288 2.297 . S
O304 C291 1.236 . S
N305 Mn289 2.282 1_565 S
N305 C306 1.328 . S
N305 C310 1.318 . S
C306 N305 1.328 . S
C306 C307 1.457 . S
C306 H311 0.929 . S
C307 C306 1.457 . S
C307 C308 1.291 . S
C307 H320 0.931 . S
C308 C307 1.291 . S
C308 C309 1.373 . S
C308 H321 0.929 . S
C309 C308 1.373 . S
C309 C310 1.396 . S
C309 C316 1.403 . S
C310 C300 1.476 . S
C310 N305 1.318 . S
C310 C309 1.396 . S
H311 C306 0.929 . S
O312 Mn288 2.385 1_565 S
O312 C290 1.234 . S
O313 Mn288 2.209 . S
O313 Mn289 2.215 . S
O313 C290 1.283 1_545 S
O314 Mn288 2.094 . S
O314 C292 1.240 . S
O315 Mn289 2.117 . S
O315 C292 1.264 . S
C316 C309 1.403 . S
C316 C317 1.399 . S
C316 H322 0.929 . S
C317 C297 1.449 . S
C317 C316 1.399 . S
C317 H323 0.930 . S
H318 C298 0.931 . S
H319 C299 0.930 . S
H320 C307 0.931 . S
H321 C308 0.929 . S
H322 C316 0.929 . S
H323 C317 0.930 . S
Mn324 O329 2.095 . S
Mn324 O339 2.162 . S
Mn324 O340 2.297 . S
Mn324 O348 2.385 . S
Mn324 O349 2.209 . S
Mn324 O350 2.094 . S
Mn325 O330 2.121 . S
Mn325 N332 2.257 . S
Mn325 N341 2.282 . S
Mn325 O349 2.215 . S
Mn325 O351 2.117 . S
C326 O348 1.234 . S
C326 O349 1.283 . S
C327 O339 1.281 . S
C327 O340 1.236 . S
C328 O350 1.240 . S
C328 O351 1.264 . S
O329 Mn324 2.095 . S
O329 C338 1.250 . S
O330 Mn325 2.121 . S
O330 C338 1.258 . S
C331 N332 1.326 . S
C331 C335 1.460 . S
C331 H337 0.929 . S
N332 Mn325 2.257 . S
N332 C331 1.326 . S
N332 C336 1.362 . S
C333 C334 1.258 . S
C333 C336 1.431 . S
C333 C353 1.449 . S
C334 C333 1.258 . S
C334 C335 1.477 . S
C334 H354 0.931 . S
C335 C331 1.460 . S
C335 C334 1.477 . S
C335 H355 0.930 . S
C336 N332 1.362 . S
C336 C333 1.431 . S
C336 C346 1.476 . S
H337 C331 0.929 . S
C338 O329 1.250 . S
C338 O330 1.258 . S
O339 Mn324 2.162 . S
O339 C327 1.281 . S
O340 Mn324 2.297 . S
O340 C327 1.236 . S
N341 Mn325 2.282 . S
N341 C342 1.328 . S
N341 C346 1.318 . S
C342 N341 1.328 . S
C342 C343 1.457 . S
C342 H347 0.929 . S
C343 C342 1.457 . S
C343 C344 1.291 . S
C343 H356 0.931 . S
C344 C343 1.291 . S
C344 C345 1.373 . S
C344 H357 0.929 . S
C345 C344 1.373 . S
C345 C346 1.396 . S
C345 C352 1.403 . S
C346 C336 1.476 . S
C346 N341 1.318 . S
C346 C345 1.396 . S
H347 C342 0.929 . S
O348 Mn324 2.385 . S
O348 C326 1.234 . S
O349 Mn324 2.209 . S
O349 Mn325 2.215 . S
O349 C326 1.283 . S
O350 Mn324 2.094 . S
O350 C328 1.240 . S
O351 Mn325 2.117 . S
O351 C328 1.264 . S
C352 C345 1.403 . S
C352 C353 1.399 . S
C352 H358 0.929 . S
C353 C333 1.449 . S
C353 C352 1.399 . S
C353 H359 0.930 . S
H354 C334 0.931 . S
H355 C335 0.930 . S
H356 C343 0.931 . S
H357 C344 0.929 . S
H358 C352 0.929 . S
H359 C353 0.930 . S
Mn360 O365 2.095 1_545 S
Mn360 O375 2.162 . S
Mn360 O376 2.297 . S
Mn360 O384 2.385 . S
Mn360 O385 2.209 . S
Mn360 O386 2.094 . S
Mn361 O366 2.121 . S
Mn361 N368 2.257 . S
Mn361 N377 2.282 . S
Mn361 O385 2.215 . S
Mn361 O387 2.117 . S
C362 O384 1.234 . S
C362 O385 1.283 . S
C363 O375 1.281 . S
C363 O376 1.236 . S
C364 O386 1.240 . S
C364 O387 1.264 . S
O365 Mn360 2.095 1_565 S
O365 C374 1.250 . S
O366 Mn361 2.121 . S
O366 C374 1.258 1_545 S
C367 N368 1.326 . S
C367 C371 1.460 . S
C367 H373 0.929 . S
N368 Mn361 2.257 . S
N368 C367 1.326 . S
N368 C372 1.362 . S
C369 C370 1.258 . S
C369 C372 1.431 . S
C369 C389 1.449 . S
C370 C369 1.258 . S
C370 C371 1.477 . S
C370 H390 0.931 . S
C371 C367 1.460 . S
C371 C370 1.477 . S
C371 H391 0.930 . S
C372 N368 1.362 . S
C372 C369 1.431 . S
C372 C382 1.476 . S
H373 C367 0.929 . S
C374 O365 1.250 . S
C374 O366 1.258 1_565 S
O375 Mn360 2.162 . S
O375 C363 1.281 . S
O376 Mn360 2.297 . S
O376 C363 1.236 . S
N377 Mn361 2.282 . S
N377 C378 1.328 . S
N377 C382 1.318 . S
C378 N377 1.328 . S
C378 C379 1.457 . S
C378 H383 0.929 . S
C379 C378 1.457 . S
C379 C380 1.291 . S
C379 H392 0.931 . S
C380 C379 1.291 . S
C380 C381 1.373 . S
C380 H393 0.929 . S
C381 C380 1.373 . S
C381 C382 1.396 . S
C381 C388 1.403 . S
C382 C372 1.476 . S
C382 N377 1.318 . S
C382 C381 1.396 . S
H383 C378 0.929 . S
O384 Mn360 2.385 . S
O384 C362 1.234 . S
O385 Mn360 2.209 . S
O385 Mn361 2.215 . S
O385 C362 1.283 . S
O386 Mn360 2.094 . S
O386 C364 1.240 . S
O387 Mn361 2.117 . S
O387 C364 1.264 . S
C388 C381 1.403 . S
C388 C389 1.399 . S
C388 H394 0.929 . S
C389 C369 1.449 . S
C389 C388 1.399 . S
C389 H395 0.930 . S
H390 C370 0.931 . S
H391 C371 0.930 . S
H392 C379 0.931 . S
H393 C380 0.929 . S
H394 C388 0.929 . S
H395 C389 0.930 . S
Mn396 O401 2.095 1_554 S
Mn396 O411 2.162 . S
Mn396 O412 2.297 . S
Mn396 O420 2.385 . S
Mn396 O421 2.213 . S
Mn396 O422 2.094 1_554 S
Mn397 O402 2.121 . S
Mn397 N404 2.257 . S
Mn397 N413 2.282 . S
Mn397 O421 2.198 1_556 S
Mn397 O423 2.117 . S
C398 O420 1.234 . S
C398 O421 1.286 . S
C399 O411 1.281 . S
C399 O412 1.236 . S
C400 O422 1.240 . S
C400 O423 1.264 . S
O401 Mn396 2.095 1_556 S
O401 C410 1.250 . S
O402 Mn397 2.121 . S
O402 C410 1.258 . S
C403 N404 1.326 . S
C403 C407 1.460 . S
C403 H409 0.929 . S
N404 Mn397 2.257 . S
N404 C403 1.326 . S
N404 C408 1.362 . S
C405 C406 1.258 . S
C405 C408 1.431 . S
C405 C425 1.449 . S
C406 C405 1.258 . S
C406 C407 1.477 . S
C406 H426 0.931 . S
C407 C403 1.460 . S
C407 C406 1.477 . S
C407 H427 0.940 . S
C408 N404 1.362 . S
C408 C405 1.431 . S
C408 C418 1.476 . S
H409 C403 0.929 . S
C410 O401 1.250 . S
C410 O402 1.258 . S
O411 Mn396 2.162 . S
O411 C399 1.281 . S
O412 Mn396 2.297 . S
O412 C399 1.236 . S
N413 Mn397 2.282 . S
N413 C414 1.328 . S
N413 C418 1.318 . S
C414 N413 1.328 . S
C414 C415 1.457 . S
C414 H419 0.929 . S
C415 C414 1.457 . S
C415 C416 1.291 . S
C415 H428 0.931 . S
C416 C415 1.291 . S
C416 C417 1.373 . S
C416 H429 0.929 . S
C417 C416 1.373 . S
C417 C418 1.396 . S
C417 C424 1.403 . S
C418 C408 1.476 . S
C418 N413 1.318 . S
C418 C417 1.396 . S
H419 C414 0.929 . S
O420 Mn396 2.385 . S
O420 C398 1.234 . S
O421 Mn396 2.213 . S
O421 Mn397 2.198 1_554 S
O421 C398 1.286 . S
O422 Mn396 2.094 1_556 S
O422 C400 1.240 . S
O423 Mn397 2.117 . S
O423 C400 1.264 . S
C424 C417 1.403 . S
C424 C425 1.399 . S
C424 H430 0.929 . S
C425 C405 1.449 . S
C425 C424 1.399 . S
C425 H431 0.930 . S
H426 C406 0.931 . S
H427 C407 0.940 . S
H428 C415 0.931 . S
H429 C416 0.929 . S
H430 C424 0.929 . S
H431 C425 0.930 . S
Mn432 O437 2.095 . S
Mn432 O447 2.162 . S
Mn432 O448 2.297 . S
Mn432 O456 2.385 . S
Mn432 O457 2.209 . S
Mn432 O458 2.099 1_554 S
Mn433 O438 2.121 1_556 S
Mn433 N440 2.257 1_556 S
Mn433 N449 2.282 . S
Mn433 O457 2.215 1_556 S
Mn433 O459 2.117 . S
C434 O456 1.234 . S
C434 O457 1.283 . S
C435 O447 1.281 . S
C435 O448 1.236 . S
C436 O458 1.234 . S
C436 O459 1.264 . S
O437 Mn432 2.095 . S
O437 C446 1.250 . S
O438 Mn433 2.121 1_554 S
O438 C446 1.258 . S
C439 N440 1.326 . S
C439 C443 1.460 . S
C439 H445 0.929 . S
N440 Mn433 2.257 1_554 S
N440 C439 1.326 . S
N440 C444 1.364 . S
C441 C442 1.258 . S
C441 C444 1.431 . S
C441 C461 1.449 1_554 S
C442 C441 1.258 . S
C442 C443 1.477 . S
C442 H462 0.931 . S
C443 C439 1.460 . S
C443 C442 1.477 . S
C443 H463 0.930 . S
C444 N440 1.364 . S
C444 C441 1.431 . S
C444 C454 1.475 1_554 S
H445 C439 0.929 . S
C446 O437 1.250 . S
C446 O438 1.258 . S
O447 Mn432 2.162 . S
O447 C435 1.281 . S
O448 Mn432 2.297 . S
O448 C435 1.236 . S
N449 Mn433 2.282 . S
N449 C450 1.328 . S
N449 C454 1.318 . S
C450 N449 1.328 . S
C450 C451 1.457 . S
C450 H455 0.929 . S
C451 C450 1.457 . S
C451 C452 1.291 . S
C451 H464 0.931 . S
C452 C451 1.291 . S
C452 C453 1.373 . S
C452 H465 0.929 . S
C453 C452 1.373 . S
C453 C454 1.396 . S
C453 C460 1.403 . S
C454 C444 1.475 1_556 S
C454 N449 1.318 . S
C454 C453 1.396 . S
H455 C450 0.929 . S
O456 Mn432 2.385 . S
O456 C434 1.234 . S
O457 Mn432 2.209 . S
O457 Mn433 2.215 1_554 S
O457 C434 1.283 . S
O458 Mn432 2.099 1_556 S
O458 C436 1.234 . S
O459 Mn433 2.117 . S
O459 C436 1.264 . S
C460 C453 1.403 . S
C460 C461 1.399 . S
C460 H466 0.929 . S
C461 C441 1.449 1_556 S
C461 C460 1.399 . S
C461 H467 0.930 . S
H462 C442 0.931 . S
H463 C443 0.930 . S
H464 C451 0.931 . S
H465 C452 0.929 . S
H466 C460 0.929 . S
H467 C461 0.930 . S
Mn468 O473 2.095 . S
Mn468 O483 2.162 . S
Mn468 O484 2.297 . S
Mn468 O492 2.385 . S
Mn468 O493 2.209 . S
Mn468 O494 2.094 . S
Mn469 O474 2.121 . S
Mn469 N476 2.257 . S
Mn469 N485 2.264 1_554 S
Mn469 O493 2.215 . S
Mn469 O495 2.117 . S
C470 O492 1.234 . S
C470 O493 1.283 . S
C471 O483 1.281 . S
C471 O484 1.236 . S
C472 O494 1.240 . S
C472 O495 1.264 . S
O473 Mn468 2.095 . S
O473 C482 1.250 . S
O474 Mn469 2.121 . S
O474 C482 1.258 . S
C475 N476 1.326 . S
C475 C479 1.460 . S
C475 H481 0.929 . S
N476 Mn469 2.257 . S
N476 C475 1.326 . S
N476 C480 1.362 . S
C477 C478 1.258 . S
C477 C480 1.431 . S
C477 C497 1.449 1_554 S
C478 C477 1.258 . S
C478 C479 1.477 . S
C478 H498 0.931 . S
C479 C475 1.460 . S
C479 C478 1.477 . S
C479 H499 0.930 . S
C480 N476 1.362 . S
C480 C477 1.431 . S
C480 C490 1.476 1_554 S
H481 C475 0.929 . S
C482 O473 1.250 . S
C482 O474 1.258 . S
O483 Mn468 2.162 . S
O483 C471 1.281 . S
O484 Mn468 2.297 . S
O484 C471 1.236 . S
N485 Mn469 2.264 1_556 S
N485 C486 1.350 . S
N485 C490 1.313 . S
C486 N485 1.350 . S
C486 C487 1.457 . S
C486 H491 0.929 . S
C487 C486 1.457 . S
C487 C488 1.291 . S
C487 H500 0.931 . S
C488 C487 1.291 . S
C488 C489 1.373 . S
C488 H501 0.929 . S
C489 C488 1.373 . S
C489 C490 1.396 . S
C489 C496 1.403 . S
C490 C480 1.476 1_556 S
C490 N485 1.313 . S
C490 C489 1.396 . S
H491 C486 0.929 . S
O492 Mn468 2.385 . S
O492 C470 1.234 . S
O493 Mn468 2.209 . S
O493 Mn469 2.215 . S
O493 C470 1.283 . S
O494 Mn468 2.094 . S
O494 C472 1.240 . S
O495 Mn469 2.117 . S
O495 C472 1.264 . S
C496 C489 1.403 . S
C496 C497 1.399 . S
C496 H502 0.929 . S
C497 C477 1.449 1_556 S
C497 C496 1.399 . S
C497 H503 0.930 . S
H498 C478 0.931 . S
H499 C479 0.930 . S
H500 C487 0.931 . S
H501 C488 0.929 . S
H502 C496 0.929 . S
H503 C497 0.930 . S
Mn504 O509 2.095 . S
Mn504 O519 2.162 . S
Mn504 O520 2.297 . S
Mn504 O528 2.385 . S
Mn504 O529 2.209 . S
Mn504 O530 2.094 . S
Mn505 O510 2.121 . S
Mn505 N512 2.257 . S
Mn505 N521 2.282 . S
Mn505 O529 2.215 . S
Mn505 O531 2.117 . S
C506 O528 1.234 . S
C506 O529 1.283 . S
C507 O519 1.281 . S
C507 O520 1.236 . S
C508 O530 1.240 . S
C508 O531 1.264 . S
O509 Mn504 2.095 . S
O509 C518 1.250 . S
O510 Mn505 2.121 . S
O510 C518 1.258 . S
C511 N512 1.326 . S
C511 C515 1.460 . S
C511 H517 0.929 . S
N512 Mn505 2.257 . S
N512 C511 1.326 . S
N512 C516 1.362 . S
C513 C514 1.258 . S
C513 C516 1.431 . S
C513 C533 1.449 . S
C514 C513 1.258 . S
C514 C515 1.477 . S
C514 H534 0.931 . S
C515 C511 1.460 . S
C515 C514 1.477 . S
C515 H535 0.930 . S
C516 N512 1.362 . S
C516 C513 1.431 . S
C516 C526 1.476 . S
H517 C511 0.929 . S
C518 O509 1.250 . S
C518 O510 1.258 . S
O519 Mn504 2.162 . S
O519 C507 1.281 . S
O520 Mn504 2.297 . S
O520 C507 1.236 . S
N521 Mn505 2.282 . S
N521 C522 1.328 . S
N521 C526 1.318 . S
C522 N521 1.328 . S
C522 C523 1.457 . S
C522 H527 0.929 . S
C523 C522 1.457 . S
C523 C524 1.291 . S
C523 H536 0.931 . S
C524 C523 1.291 . S
C524 C525 1.373 . S
C524 H537 0.929 . S
C525 C524 1.373 . S
C525 C526 1.396 . S
C525 C532 1.403 . S
C526 C516 1.476 . S
C526 N521 1.318 . S
C526 C525 1.396 . S
H527 C522 0.929 . S
O528 Mn504 2.385 . S
O528 C506 1.234 . S
O529 Mn504 2.209 . S
O529 Mn505 2.215 . S
O529 C506 1.283 . S
O530 Mn504 2.094 . S
O530 C508 1.240 . S
O531 Mn505 2.117 . S
O531 C508 1.264 . S
C532 C525 1.403 . S
C532 C533 1.399 . S
C532 H538 0.929 . S
C533 C513 1.449 . S
C533 C532 1.399 . S
C533 H539 0.930 . S
H534 C514 0.931 . S
H535 C515 0.930 . S
H536 C523 0.931 . S
H537 C524 0.929 . S
H538 C532 0.929 . S
H539 C533 0.930 . S
Mn540 O545 2.095 . S
Mn540 O555 2.162 . S
Mn540 O556 2.297 . S
Mn540 O564 2.385 . S
Mn540 O565 2.209 . S
Mn540 O566 2.094 . S
Mn541 O546 2.121 . S
Mn541 N548 2.257 . S
Mn541 N557 2.282 . S
Mn541 O565 2.215 . S
Mn541 O567 2.117 . S
C542 O564 1.234 . S
C542 O565 1.283 . S
C543 O555 1.281 . S
C543 O556 1.236 . S
C544 O566 1.240 . S
C544 O567 1.264 . S
O545 Mn540 2.095 . S
O545 C554 1.250 . S
O546 Mn541 2.121 . S
O546 C554 1.258 . S
C547 N548 1.326 . S
C547 C551 1.460 . S
C547 H553 0.929 . S
N548 Mn541 2.257 . S
N548 C547 1.326 . S
N548 C552 1.362 . S
C549 C550 1.258 . S
C549 C552 1.431 . S
C549 C569 1.449 . S
C550 C549 1.258 . S
C550 C551 1.477 . S
C550 H570 0.931 . S
C551 C547 1.460 . S
C551 C550 1.477 . S
C551 H571 0.930 . S
C552 N548 1.362 . S
C552 C549 1.431 . S
C552 C562 1.476 . S
H553 C547 0.929 . S
C554 O545 1.250 . S
C554 O546 1.258 . S
O555 Mn540 2.162 . S
O555 C543 1.281 . S
O556 Mn540 2.297 . S
O556 C543 1.236 . S
N557 Mn541 2.282 . S
N557 C558 1.328 . S
N557 C562 1.318 . S
C558 N557 1.328 . S
C558 C559 1.457 . S
C558 H563 0.929 . S
C559 C558 1.457 . S
C559 C560 1.291 . S
C559 H572 0.931 . S
C560 C559 1.291 . S
C560 C561 1.373 . S
C560 H573 0.929 . S
C561 C560 1.373 . S
C561 C562 1.396 . S
C561 C568 1.403 . S
C562 C552 1.476 . S
C562 N557 1.318 . S
C562 C561 1.396 . S
H563 C558 0.929 . S
O564 Mn540 2.385 . S
O564 C542 1.234 . S
O565 Mn540 2.209 . S
O565 Mn541 2.215 . S
O565 C542 1.283 . S
O566 Mn540 2.094 . S
O566 C544 1.240 . S
O567 Mn541 2.117 . S
O567 C544 1.264 . S
C568 C561 1.403 . S
C568 C569 1.399 . S
C568 H574 0.929 . S
C569 C549 1.449 . S
C569 C568 1.399 . S
C569 H575 0.930 . S
H570 C550 0.931 . S
H571 C551 0.930 . S
H572 C559 0.931 . S
H573 C560 0.929 . S
H574 C568 0.929 . S
H575 C569 0.930 . S
Mn576 O581 2.095 . S
Mn576 O591 2.162 . S
Mn576 O592 2.297 1_545 S
Mn576 O600 2.385 1_545 S
Mn576 O601 2.209 1_545 S
Mn576 O602 2.094 . S
Mn577 O582 2.134 . S
Mn577 N584 2.255 1_545 S
Mn577 N593 2.269 1_545 S
Mn577 O601 2.209 1_545 S
Mn577 O603 2.116 . S
C578 O600 1.234 . S
C578 O601 1.283 . S
C579 O591 1.281 . S
C579 O592 1.235 1_545 S
C580 O602 1.240 . S
C580 O603 1.264 . S
O581 Mn576 2.095 . S
O581 C590 1.250 . S
O582 Mn577 2.134 . S
O582 C590 1.258 . S
C583 N584 1.326 . S
C583 C587 1.460 . S
C583 H589 0.929 1_565 S
N584 Mn577 2.255 1_565 S
N584 C583 1.326 . S
N584 C588 1.362 . S
C585 C586 1.258 . S
C585 C588 1.431 . S
C585 C605 1.449 . S
C586 C585 1.258 . S
C586 C587 1.477 . S
C586 H606 0.931 . S
C587 C583 1.460 . S
C587 C586 1.477 . S
C587 H607 0.930 . S
C588 N584 1.362 . S
C588 C585 1.431 . S
C588 C598 1.476 . S
H589 C583 0.929 1_545 S
C590 O581 1.250 . S
C590 O582 1.258 . S
O591 Mn576 2.162 . S
O591 C579 1.281 . S
O592 Mn576 2.297 1_565 S
O592 C579 1.235 1_565 S
N593 Mn577 2.269 1_565 S
N593 C594 1.328 . S
N593 C598 1.318 . S
C594 N593 1.328 . S
C594 C595 1.457 . S
C594 H599 0.929 . S
C595 C594 1.457 . S
C595 C596 1.291 . S
C595 H608 0.931 . S
C596 C595 1.291 . S
C596 C597 1.373 . S
C596 H609 0.929 . S
C597 C596 1.373 . S
C597 C598 1.396 . S
C597 C604 1.403 . S
C598 C588 1.476 . S
C598 N593 1.318 . S
C598 C597 1.396 . S
H599 C594 0.929 . S
O600 Mn576 2.385 1_565 S
O600 C578 1.234 . S
O601 Mn576 2.209 1_565 S
O601 Mn577 2.209 1_565 S
O601 C578 1.283 . S
O602 Mn576 2.094 . S
O602 C580 1.240 . S
O603 Mn577 2.116 . S
O603 C580 1.264 . S
C604 C597 1.403 . S
C604 C605 1.399 . S
C604 H610 0.929 . S
C605 C585 1.449 . S
C605 C604 1.399 . S
C605 H611 0.930 . S
H606 C586 0.931 . S
H607 C587 0.930 . S
H608 C595 0.931 . S
H609 C596 0.929 . S
H610 C604 0.929 . S
H611 C605 0.930 . S
Mn612 O617 2.095 . S
Mn612 O627 2.162 . S
Mn612 O628 2.297 . S
Mn612 O636 2.385 . S
Mn612 O637 2.209 . S
Mn612 O638 2.094 . S
Mn613 O618 2.121 . S
Mn613 N620 2.257 . S
Mn613 N629 2.282 . S
Mn613 O637 2.215 . S
Mn613 O639 2.117 . S
C614 O636 1.234 . S
C614 O637 1.283 . S
C615 O627 1.281 . S
C615 O628 1.236 . S
C616 O638 1.240 . S
C616 O639 1.264 . S
O617 Mn612 2.095 . S
O617 C626 1.250 . S
O618 Mn613 2.121 . S
O618 C626 1.258 . S
C619 N620 1.326 . S
C619 C623 1.460 . S
C619 H625 0.929 . S
N620 Mn613 2.257 . S
N620 C619 1.326 . S
N620 C624 1.362 . S
C621 C622 1.258 . S
C621 C624 1.431 . S
C621 C641 1.449 . S
C622 C621 1.258 . S
C622 C623 1.477 . S
C622 H642 0.931 . S
C623 C619 1.460 . S
C623 C622 1.477 . S
C623 H643 0.930 . S
C624 N620 1.362 . S
C624 C621 1.431 . S
C624 C634 1.476 . S
H625 C619 0.929 . S
C626 O617 1.250 . S
C626 O618 1.258 . S
O627 Mn612 2.162 . S
O627 C615 1.281 . S
O628 Mn612 2.297 . S
O628 C615 1.236 . S
N629 Mn613 2.282 . S
N629 C630 1.328 . S
N629 C634 1.318 . S
C630 N629 1.328 . S
C630 C631 1.457 . S
C630 H635 0.929 . S
C631 C630 1.457 . S
C631 C632 1.291 . S
C631 H644 0.931 . S
C632 C631 1.291 . S
C632 C633 1.373 . S
C632 H645 0.929 . S
C633 C632 1.373 . S
C633 C634 1.396 . S
C633 C640 1.403 . S
C634 C624 1.476 . S
C634 N629 1.318 . S
C634 C633 1.396 . S
H635 C630 0.929 . S
O636 Mn612 2.385 . S
O636 C614 1.234 . S
O637 Mn612 2.209 . S
O637 Mn613 2.215 . S
O637 C614 1.283 . S
O638 Mn612 2.094 . S
O638 C616 1.240 . S
O639 Mn613 2.117 . S
O639 C616 1.264 . S
C640 C633 1.403 . S
C640 C641 1.399 . S
C640 H646 0.929 . S
C641 C621 1.449 . S
C641 C640 1.399 . S
C641 H647 0.930 . S
H642 C622 0.931 . S
H643 C623 0.930 . S
H644 C631 0.931 . S
H645 C632 0.929 . S
H646 C640 0.929 . S
H647 C641 0.930 . S
Mn648 O653 2.095 . S
Mn648 O663 2.162 . S
Mn648 O664 2.297 . S
Mn648 O672 2.385 . S
Mn648 O673 2.209 . S
Mn648 O674 2.094 . S
Mn649 O654 2.121 . S
Mn649 N656 2.257 . S
Mn649 N665 2.282 . S
Mn649 O673 2.215 . S
Mn649 O675 2.117 . S
C650 O672 1.234 . S
C650 O673 1.283 . S
C651 O663 1.281 . S
C651 O664 1.236 . S
C652 O674 1.240 . S
C652 O675 1.264 . S
O653 Mn648 2.095 . S
O653 C662 1.250 . S
O654 Mn649 2.121 . S
O654 C662 1.258 . S
C655 N656 1.326 . S
C655 C659 1.460 . S
C655 H661 0.929 . S
N656 Mn649 2.257 . S
N656 C655 1.326 . S
N656 C660 1.362 . S
C657 C658 1.258 . S
C657 C660 1.431 . S
C657 C677 1.449 . S
C658 C657 1.258 . S
C658 C659 1.477 . S
C658 H678 0.931 . S
C659 C655 1.460 . S
C659 C658 1.477 . S
C659 H679 0.930 . S
C660 N656 1.362 . S
C660 C657 1.431 . S
C660 C670 1.476 . S
H661 C655 0.929 . S
C662 O653 1.250 . S
C662 O654 1.258 . S
O663 Mn648 2.162 . S
O663 C651 1.281 . S
O664 Mn648 2.297 . S
O664 C651 1.236 . S
N665 Mn649 2.282 . S
N665 C666 1.328 . S
N665 C670 1.318 . S
C666 N665 1.328 . S
C666 C667 1.457 . S
C666 H671 0.929 . S
C667 C666 1.457 . S
C667 C668 1.291 . S
C667 H680 0.931 . S
C668 C667 1.291 . S
C668 C669 1.373 . S
C668 H681 0.929 . S
C669 C668 1.373 . S
C669 C670 1.396 . S
C669 C676 1.403 . S
C670 C660 1.476 . S
C670 N665 1.318 . S
C670 C669 1.396 . S
H671 C666 0.929 . S
O672 Mn648 2.385 . S
O672 C650 1.234 . S
O673 Mn648 2.209 . S
O673 Mn649 2.215 . S
O673 C650 1.283 . S
O674 Mn648 2.094 . S
O674 C652 1.240 . S
O675 Mn649 2.117 . S
O675 C652 1.264 . S
C676 C669 1.403 . S
C676 C677 1.399 . S
C676 H682 0.929 . S
C677 C657 1.449 . S
C677 C676 1.399 . S
C677 H683 0.930 . S
H678 C658 0.931 . S
H679 C659 0.930 . S
H680 C667 0.931 . S
H681 C668 0.929 . S
H682 C676 0.929 . S
H683 C677 0.930 . S
Mn684 O689 2.095 1_545 S
Mn684 O699 2.162 . S
Mn684 O700 2.297 . S
Mn684 O708 2.385 . S
Mn684 O709 2.209 . S
Mn684 O710 2.094 . S
Mn685 O690 2.121 1_545 S
Mn685 N692 2.257 . S
Mn685 N701 2.282 . S
Mn685 O709 2.215 . S
Mn685 O711 2.117 . S
C686 O708 1.234 . S
C686 O709 1.283 . S
C687 O699 1.281 . S
C687 O700 1.236 . S
C688 O710 1.240 . S
C688 O711 1.264 . S
O689 Mn684 2.095 1_565 S
O689 C698 1.250 . S
O690 Mn685 2.121 1_565 S
O690 C698 1.258 . S
C691 N692 1.326 . S
C691 C695 1.460 . S
C691 H697 0.929 . S
N692 Mn685 2.257 . S
N692 C691 1.326 . S
N692 C696 1.362 . S
C693 C694 1.258 . S
C693 C696 1.431 . S
C693 C713 1.449 . S
C694 C693 1.258 . S
C694 C695 1.477 . S
C694 H714 0.931 . S
C695 C691 1.460 . S
C695 C694 1.477 . S
C695 H715 0.930 . S
C696 N692 1.362 . S
C696 C693 1.431 . S
C696 C706 1.476 . S
H697 C691 0.929 . S
C698 O689 1.250 . S
C698 O690 1.258 . S
O699 Mn684 2.162 . S
O699 C687 1.281 . S
O700 Mn684 2.297 . S
O700 C687 1.236 . S
N701 Mn685 2.282 . S
N701 C702 1.328 . S
N701 C706 1.318 . S
C702 N701 1.328 . S
C702 C703 1.457 . S
C702 H707 0.929 . S
C703 C702 1.457 . S
C703 C704 1.291 . S
C703 H716 0.931 . S
C704 C703 1.291 . S
C704 C705 1.373 . S
C704 H717 0.929 . S
C705 C704 1.373 . S
C705 C706 1.396 . S
C705 C712 1.403 . S
C706 C696 1.476 . S
C706 N701 1.318 . S
C706 C705 1.396 . S
H707 C702 0.929 . S
O708 Mn684 2.385 . S
O708 C686 1.234 . S
O709 Mn684 2.209 . S
O709 Mn685 2.215 . S
O709 C686 1.283 . S
O710 Mn684 2.094 . S
O710 C688 1.240 . S
O711 Mn685 2.117 . S
O711 C688 1.264 . S
C712 C705 1.403 . S
C712 C713 1.399 . S
C712 H718 0.929 . S
C713 C693 1.449 . S
C713 C712 1.399 . S
C713 H719 0.930 . S
H714 C694 0.931 . S
H715 C695 0.930 . S
H716 C703 0.931 . S
H717 C704 0.929 . S
H718 C712 0.929 . S
H719 C713 0.930 . S
Mn720 O725 2.095 . S
Mn720 O735 2.162 . S
Mn720 O736 2.297 . S
Mn720 O744 2.385 . S
Mn720 O745 2.209 . S
Mn720 O746 2.094 . S
Mn721 O726 2.121 1_556 S
Mn721 N728 2.257 . S
Mn721 N737 2.282 . S
Mn721 O745 2.215 1_556 S
Mn721 O747 2.117 . S
C722 O744 1.234 . S
C722 O745 1.283 . S
C723 O735 1.281 . S
C723 O736 1.236 . S
C724 O746 1.240 1_556 S
C724 O747 1.264 . S
O725 Mn720 2.095 . S
O725 C734 1.250 . S
O726 Mn721 2.121 1_554 S
O726 C734 1.258 . S
C727 N728 1.326 . S
C727 C731 1.460 . S
C727 H733 0.929 1_556 S
N728 Mn721 2.257 . S
N728 C727 1.326 . S
N728 C732 1.362 . S
C729 C730 1.258 . S
C729 C732 1.431 . S
C729 C749 1.449 . S
C730 C729 1.258 . S
C730 C731 1.477 . S
C730 H750 0.931 . S
C731 C727 1.460 . S
C731 C730 1.477 . S
C731 H751 0.930 1_556 S
C732 N728 1.362 . S
C732 C729 1.431 . S
C732 C742 1.476 . S
H733 C727 0.929 1_554 S
C734 O725 1.250 . S
C734 O726 1.258 . S
O735 Mn720 2.162 . S
O735 C723 1.281 . S
O736 Mn720 2.297 . S
O736 C723 1.236 . S
N737 Mn721 2.282 . S
N737 C738 1.328 . S
N737 C742 1.318 . S
C738 N737 1.328 . S
C738 C739 1.457 . S
C738 H743 0.929 . S
C739 C738 1.457 . S
C739 C740 1.291 . S
C739 H752 0.931 . S
C740 C739 1.291 . S
C740 C741 1.373 . S
C740 H753 0.929 . S
C741 C740 1.373 . S
C741 C742 1.396 . S
C741 C748 1.403 . S
C742 C732 1.476 . S
C742 N737 1.318 . S
C742 C741 1.396 . S
H743 C738 0.929 . S
O744 Mn720 2.385 . S
O744 C722 1.234 . S
O745 Mn720 2.209 . S
O745 Mn721 2.215 1_554 S
O745 C722 1.283 . S
O746 Mn720 2.094 . S
O746 C724 1.240 1_554 S
O747 Mn721 2.117 . S
O747 C724 1.264 . S
C748 C741 1.403 . S
C748 C749 1.399 . S
C748 H754 0.929 . S
C749 C729 1.449 . S
C749 C748 1.399 . S
C749 H755 0.930 . S
H750 C730 0.931 . S
H751 C731 0.930 1_554 S
H752 C739 0.931 . S
H753 C740 0.929 . S
H754 C748 0.929 . S
H755 C749 0.930 . S
Mn756 O761 2.095 . S
Mn756 O771 2.162 . S
Mn756 O772 2.297 . S
Mn756 O780 2.385 . S
Mn756 O781 2.209 . S
Mn756 O782 2.094 . S
Mn757 O762 2.121 . S
Mn757 N764 2.257 . S
Mn757 N773 2.282 . S
Mn757 O781 2.215 . S
Mn757 O783 2.117 . S
C758 O780 1.234 . S
C758 O781 1.283 . S
C759 O771 1.281 . S
C759 O772 1.236 . S
C760 O782 1.240 . S
C760 O783 1.264 . S
O761 Mn756 2.095 . S
O761 C770 1.250 . S
O762 Mn757 2.121 . S
O762 C770 1.258 . S
C763 N764 1.326 . S
C763 C767 1.460 . S
C763 H769 0.929 . S
N764 Mn757 2.257 . S
N764 C763 1.326 . S
N764 C768 1.362 . S
C765 C766 1.258 . S
C765 C768 1.431 . S
C765 C785 1.449 . S
C766 C765 1.258 . S
C766 C767 1.477 . S
C766 H786 0.931 . S
C767 C763 1.460 . S
C767 C766 1.477 . S
C767 H787 0.930 . S
C768 N764 1.362 . S
C768 C765 1.431 . S
C768 C778 1.476 . S
H769 C763 0.929 . S
C770 O761 1.250 . S
C770 O762 1.258 . S
O771 Mn756 2.162 . S
O771 C759 1.281 . S
O772 Mn756 2.297 . S
O772 C759 1.236 . S
N773 Mn757 2.282 . S
N773 C774 1.328 . S
N773 C778 1.318 . S
C774 N773 1.328 . S
C774 C775 1.457 . S
C774 H779 0.929 . S
C775 C774 1.457 . S
C775 C776 1.291 . S
C775 H788 0.931 . S
C776 C775 1.291 . S
C776 C777 1.373 . S
C776 H789 0.929 . S
C777 C776 1.373 . S
C777 C778 1.396 . S
C777 C784 1.403 . S
C778 C768 1.476 . S
C778 N773 1.318 . S
C778 C777 1.396 . S
H779 C774 0.929 . S
O780 Mn756 2.385 . S
O780 C758 1.234 . S
O781 Mn756 2.209 . S
O781 Mn757 2.215 . S
O781 C758 1.283 . S
O782 Mn756 2.094 . S
O782 C760 1.240 . S
O783 Mn757 2.117 . S
O783 C760 1.264 . S
C784 C777 1.403 . S
C784 C785 1.399 . S
C784 H790 0.929 . S
C785 C765 1.449 . S
C785 C784 1.399 . S
C785 H791 0.930 . S
H786 C766 0.931 . S
H787 C767 0.930 . S
H788 C775 0.931 . S
H789 C776 0.929 . S
H790 C784 0.929 . S
H791 C785 0.930 . S
Mn792 O797 2.095 . S
Mn792 O807 2.162 . S
Mn792 O808 2.297 . S
Mn792 O816 2.385 . S
Mn792 O817 2.209 . S
Mn792 O818 2.094 . S
Mn793 O798 2.121 . S
Mn793 N800 2.257 . S
Mn793 N809 2.282 . S
Mn793 O817 2.215 . S
Mn793 O819 2.117 . S
C794 O816 1.234 . S
C794 O817 1.283 . S
C795 O807 1.281 . S
C795 O808 1.236 . S
C796 O818 1.240 . S
C796 O819 1.264 . S
O797 Mn792 2.095 . S
O797 C806 1.250 . S
O798 Mn793 2.121 . S
O798 C806 1.258 . S
C799 N800 1.326 . S
C799 C803 1.460 . S
C799 H805 0.929 . S
N800 Mn793 2.257 . S
N800 C799 1.326 . S
N800 C804 1.362 . S
C801 C802 1.258 . S
C801 C804 1.431 . S
C801 C821 1.449 . S
C802 C801 1.258 . S
C802 C803 1.477 . S
C802 H822 0.931 . S
C803 C799 1.460 . S
C803 C802 1.477 . S
C803 H823 0.930 . S
C804 N800 1.362 . S
C804 C801 1.431 . S
C804 C814 1.476 . S
H805 C799 0.929 . S
C806 O797 1.250 . S
C806 O798 1.258 . S
O807 Mn792 2.162 . S
O807 C795 1.281 . S
O808 Mn792 2.297 . S
O808 C795 1.236 . S
N809 Mn793 2.282 . S
N809 C810 1.328 . S
N809 C814 1.318 . S
C810 N809 1.328 . S
C810 C811 1.457 . S
C810 H815 0.929 . S
C811 C810 1.457 . S
C811 C812 1.291 . S
C811 H824 0.931 . S
C812 C811 1.291 . S
C812 C813 1.373 . S
C812 H825 0.929 . S
C813 C812 1.373 . S
C813 C814 1.396 . S
C813 C820 1.403 . S
C814 C804 1.476 . S
C814 N809 1.318 . S
C814 C813 1.396 . S
H815 C810 0.929 . S
O816 Mn792 2.385 . S
O816 C794 1.234 . S
O817 Mn792 2.209 . S
O817 Mn793 2.215 . S
O817 C794 1.283 . S
O818 Mn792 2.094 . S
O818 C796 1.240 . S
O819 Mn793 2.117 . S
O819 C796 1.264 . S
C820 C813 1.403 . S
C820 C821 1.399 . S
C820 H826 0.929 . S
C821 C801 1.449 . S
C821 C820 1.399 . S
C821 H827 0.930 . S
H822 C802 0.931 . S
H823 C803 0.930 . S
H824 C811 0.931 . S
H825 C812 0.929 . S
H826 C820 0.929 . S
H827 C821 0.930 . S
Mn828 O833 2.095 . S
Mn828 O843 2.162 . S
Mn828 O844 2.297 . S
Mn828 O852 2.385 . S
Mn828 O853 2.209 . S
Mn828 O854 2.094 . S
Mn829 O834 2.121 . S
Mn829 N836 2.257 . S
Mn829 N845 2.282 . S
Mn829 O853 2.215 . S
Mn829 O855 2.117 . S
C830 O852 1.234 . S
C830 O853 1.283 . S
C831 O843 1.281 . S
C831 O844 1.236 . S
C832 O854 1.240 . S
C832 O855 1.264 . S
O833 Mn828 2.095 . S
O833 C842 1.250 . S
O834 Mn829 2.121 . S
O834 C842 1.258 . S
C835 N836 1.326 . S
C835 C839 1.460 . S
C835 H841 0.929 . S
N836 Mn829 2.257 . S
N836 C835 1.326 . S
N836 C840 1.362 . S
C837 C838 1.258 . S
C837 C840 1.431 . S
C837 C857 1.449 . S
C838 C837 1.258 . S
C838 C839 1.477 . S
C838 H858 0.931 . S
C839 C835 1.460 . S
C839 C838 1.477 . S
C839 H859 0.930 . S
C840 N836 1.362 . S
C840 C837 1.431 . S
C840 C850 1.476 . S
H841 C835 0.929 . S
C842 O833 1.250 . S
C842 O834 1.258 . S
O843 Mn828 2.162 . S
O843 C831 1.281 . S
O844 Mn828 2.297 . S
O844 C831 1.236 . S
N845 Mn829 2.282 . S
N845 C846 1.328 . S
N845 C850 1.318 . S
C846 N845 1.328 . S
C846 C847 1.457 . S
C846 H851 0.929 . S
C847 C846 1.457 . S
C847 C848 1.291 . S
C847 H860 0.931 . S
C848 C847 1.291 . S
C848 C849 1.373 . S
C848 H861 0.929 . S
C849 C848 1.373 . S
C849 C850 1.396 . S
C849 C856 1.403 . S
C850 C840 1.476 . S
C850 N845 1.318 . S
C850 C849 1.396 . S
H851 C846 0.929 . S
O852 Mn828 2.385 . S
O852 C830 1.234 . S
O853 Mn828 2.209 . S
O853 Mn829 2.215 . S
O853 C830 1.283 . S
O854 Mn828 2.094 . S
O854 C832 1.240 . S
O855 Mn829 2.117 . S
O855 C832 1.264 . S
C856 C849 1.403 . S
C856 C857 1.399 . S
C856 H862 0.929 . S
C857 C837 1.449 . S
C857 C856 1.399 . S
C857 H863 0.930 . S
H858 C838 0.931 . S
H859 C839 0.930 . S
H860 C847 0.931 . S
H861 C848 0.929 . S
H862 C856 0.929 . S
H863 C857 0.930 . S
Tb864 C866 2.814 . S
Tb864 O884 2.489 . S
Tb864 O885 2.445 1_554 S
Tb864 O886 2.652 1_655 S
Tb864 O887 2.405 1_644 S
Tb864 O888 2.376 1_655 S
Tb864 O892 2.322 1_655 S
Tb864 O895 2.338 1_645 S
Tb865 C875 2.809 1_545 S
Tb865 O886 2.325 . S
Tb865 O889 2.341 . S
Tb865 O890 2.484 1_545 S
Tb865 O891 2.440 . S
Tb865 O892 2.658 . S
Tb865 O893 2.409 . S
Tb865 O894 2.378 1_545 S
C866 Tb864 2.814 . S
C866 C867 1.521 . S
C866 O884 1.248 . S
C866 O885 1.266 1_554 S
C867 C866 1.521 . S
C867 C868 1.400 . S
C867 C872 1.301 1_554 S
C868 C867 1.400 . S
C868 C869 1.380 . S
C868 H896 0.929 . S
C869 C868 1.380 . S
C869 C870 1.347 1_554 S
C869 H897 0.931 . S
C870 C869 1.347 1_556 S
C870 C871 1.369 . S
C871 C870 1.369 . S
C871 C872 1.408 . S
C871 H898 0.930 . S
C872 C867 1.301 1_556 S
C872 C871 1.408 . S
C872 H899 0.930 . S
C873 O886 1.281 1_556 S
C873 O887 1.258 1_545 S
C874 O888 1.236 . S
C874 O889 1.266 . S
C875 Tb865 2.809 1_565 S
C875 C876 1.514 . S
C875 O890 1.248 . S
C875 O891 1.266 1_565 S
C876 C875 1.514 . S
C876 C877 1.359 . S
C876 C881 1.348 . S
C877 C876 1.359 . S
C877 C878 1.380 . S
C877 H900 0.929 . S
C878 C877 1.380 . S
C878 C879 1.347 . S
C878 H901 0.931 . S
C879 C878 1.347 . S
C879 C880 1.369 . S
C880 C879 1.369 . S
C880 C881 1.408 . S
C880 H902 0.930 . S
C881 C876 1.348 . S
C881 C880 1.408 . S
C881 H903 0.930 . S
C882 O892 1.281 . S
C882 O893 1.254 . S
C883 O894 1.236 . S
C883 O895 1.266 . S
O884 Tb864 2.489 . S
O884 C866 1.248 . S
O885 Tb864 2.445 1_556 S
O885 C866 1.266 1_556 S
O886 Tb864 2.652 1_455 S
O886 Tb865 2.325 . S
O886 C873 1.281 1_554 S
O887 Tb864 2.405 1_466 S
O887 C873 1.258 1_565 S
O888 Tb864 2.376 1_455 S
O888 C874 1.236 . S
O889 Tb865 2.341 . S
O889 C874 1.266 . S
O890 Tb865 2.484 1_565 S
O890 C875 1.248 . S
O891 Tb865 2.440 . S
O891 C875 1.266 1_545 S
O892 Tb864 2.322 1_455 S
O892 Tb865 2.658 . S
O892 C882 1.281 . S
O893 Tb865 2.409 . S
O893 C882 1.254 . S
O894 Tb865 2.378 1_565 S
O894 C883 1.236 . S
O895 Tb864 2.338 1_465 S
O895 C883 1.266 . S
H896 C868 0.929 . S
H897 C869 0.931 . S
H898 C871 0.930 . S
H899 C872 0.930 . S
H900 C877 0.929 . S
H901 C878 0.931 . S
H902 C880 0.930 . S
H903 C881 0.930 . S
Tb904 C906 2.809 . S
Tb904 O924 2.484 . S
Tb904 O925 2.440 . S
Tb904 O926 2.658 . S
Tb904 O927 2.409 . S
Tb904 O928 2.378 . S
Tb904 O932 2.325 . S
Tb904 O935 2.341 . S
Tb905 C915 2.809 . S
Tb905 O926 2.325 . S
Tb905 O929 2.341 . S
Tb905 O930 2.484 . S
Tb905 O931 2.440 . S
Tb905 O932 2.658 . S
Tb905 O933 2.409 . S
Tb905 O934 2.378 . S
C906 Tb904 2.809 . S
C906 C907 1.514 . S
C906 O924 1.248 . S
C906 O925 1.266 . S
C907 C906 1.514 . S
C907 C908 1.359 . S
C907 C912 1.348 . S
C908 C907 1.359 . S
C908 C909 1.380 . S
C908 H936 0.929 . S
C909 C908 1.380 . S
C909 C910 1.347 . S
C909 H937 0.931 . S
C910 C909 1.347 . S
C910 C911 1.369 . S
C911 C910 1.369 . S
C911 C912 1.408 . S
C911 H938 0.930 . S
C912 C907 1.348 . S
C912 C911 1.408 . S
C912 H939 0.930 . S
C913 O926 1.281 . S
C913 O927 1.254 . S
C914 O928 1.236 . S
C914 O929 1.266 . S
C915 Tb905 2.809 . S
C915 C916 1.514 . S
C915 O930 1.248 . S
C915 O931 1.266 . S
C916 C915 1.514 . S
C916 C917 1.359 . S
C916 C921 1.348 . S
C917 C916 1.359 . S
C917 C918 1.380 . S
C917 H940 0.929 . S
C918 C917 1.380 . S
C918 C919 1.347 . S
C918 H941 0.931 . S
C919 C918 1.347 . S
C919 C920 1.369 . S
C920 C919 1.369 . S
C920 C921 1.408 . S
C920 H942 0.930 . S
C921 C916 1.348 . S
C921 C920 1.408 . S
C921 H943 0.930 . S
C922 O932 1.281 . S
C922 O933 1.254 . S
C923 O934 1.236 . S
C923 O935 1.266 . S
O924 Tb904 2.484 . S
O924 C906 1.248 . S
O925 Tb904 2.440 . S
O925 C906 1.266 . S
O926 Tb904 2.658 . S
O926 Tb905 2.325 . S
O926 C913 1.281 . S
O927 Tb904 2.409 . S
O927 C913 1.254 . S
O928 Tb904 2.378 . S
O928 C914 1.236 . S
O929 Tb905 2.341 . S
O929 C914 1.266 . S
O930 Tb905 2.484 . S
O930 C915 1.248 . S
O931 Tb905 2.440 . S
O931 C915 1.266 . S
O932 Tb904 2.325 . S
O932 Tb905 2.658 . S
O932 C922 1.281 . S
O933 Tb905 2.409 . S
O933 C922 1.254 . S
O934 Tb905 2.378 . S
O934 C923 1.236 . S
O935 Tb904 2.341 . S
O935 C923 1.266 . S
H936 C908 0.929 . S
H937 C909 0.931 . S
H938 C911 0.930 . S
H939 C912 0.930 . S
H940 C917 0.929 . S
H941 C918 0.931 . S
H942 C920 0.930 . S
H943 C921 0.930 . S
Tb944 C946 2.809 . S
Tb944 O964 2.484 . S
Tb944 O965 2.440 . S
Tb944 O966 2.658 . S
Tb944 O967 2.409 . S
Tb944 O968 2.378 1_545 S
Tb944 O972 2.325 . S
Tb944 O975 2.341 . S
Tb945 C955 2.809 . S
Tb945 O966 2.325 . S
Tb945 O969 2.341 1_545 S
Tb945 O970 2.484 . S
Tb945 O971 2.440 . S
Tb945 O972 2.658 . S
Tb945 O973 2.409 . S
Tb945 O974 2.378 . S
C946 Tb944 2.809 . S
C946 C947 1.514 1_545 S
C946 O964 1.248 . S
C946 O965 1.266 . S
C947 C946 1.514 1_565 S
C947 C948 1.359 . S
C947 C952 1.348 . S
C948 C947 1.359 . S
C948 C949 1.380 . S
C948 H976 0.929 . S
C949 C948 1.380 . S
C949 C950 1.347 . S
C949 H977 0.931 . S
C950 C949 1.347 . S
C950 C951 1.369 . S
C951 C950 1.369 . S
C951 C952 1.408 . S
C951 H978 0.930 . S
C952 C947 1.348 . S
C952 C951 1.408 . S
C952 H979 0.930 . S
C953 O966 1.281 . S
C953 O967 1.254 . S
C954 O968 1.236 . S
C954 O969 1.266 . S
C955 Tb945 2.809 . S
C955 C956 1.514 . S
C955 O970 1.248 . S
C955 O971 1.266 . S
C956 C955 1.514 . S
C956 C957 1.359 . S
C956 C961 1.348 . S
C957 C956 1.359 . S
C957 C958 1.380 . S
C957 H980 0.929 . S
C958 C957 1.380 . S
C958 C959 1.347 . S
C958 H981 0.931 . S
C959 C958 1.347 . S
C959 C960 1.369 . S
C960 C959 1.369 . S
C960 C961 1.408 . S
C960 H982 0.930 . S
C961 C956 1.348 . S
C961 C960 1.408 . S
C961 H983 0.930 . S
C962 O972 1.281 . S
C962 O973 1.254 . S
C963 O974 1.236 . S
C963 O975 1.266 . S
O964 Tb944 2.484 . S
O964 C946 1.248 . S
O965 Tb944 2.440 . S
O965 C946 1.266 . S
O966 Tb944 2.658 . S
O966 Tb945 2.325 . S
O966 C953 1.281 . S
O967 Tb944 2.409 . S
O967 C953 1.254 . S
O968 Tb944 2.378 1_565 S
O968 C954 1.236 . S
O969 Tb945 2.341 1_565 S
O969 C954 1.266 . S
O970 Tb945 2.484 . S
O970 C955 1.248 . S
O971 Tb945 2.440 . S
O971 C955 1.266 . S
O972 Tb944 2.325 . S
O972 Tb945 2.658 . S
O972 C962 1.281 . S
O973 Tb945 2.409 . S
O973 C962 1.254 . S
O974 Tb945 2.378 . S
O974 C963 1.236 . S
O975 Tb944 2.341 . S
O975 C963 1.266 . S
H976 C948 0.929 . S
H977 C949 0.931 . S
H978 C951 0.930 . S
H979 C952 0.930 . S
H980 C957 0.929 . S
H981 C958 0.931 . S
H982 C960 0.930 . S
H983 C961 0.930 . S
Tb984 C986 2.809 . S
Tb984 O1004 2.484 . S
Tb984 O1005 2.440 . S
Tb984 O1006 2.658 . S
Tb984 O1007 2.409 . S
Tb984 O1008 2.378 . S
Tb984 O1012 2.325 . S
Tb984 O1015 2.341 . S
Tb985 C995 2.809 . S
Tb985 O1006 2.325 . S
Tb985 O1009 2.341 . S
Tb985 O1010 2.484 . S
Tb985 O1011 2.440 . S
Tb985 O1012 2.658 . S
Tb985 O1013 2.409 . S
Tb985 O1014 2.378 . S
C986 Tb984 2.809 . S
C986 C987 1.514 . S
C986 O1004 1.248 . S
C986 O1005 1.266 . S
C987 C986 1.514 . S
C987 C988 1.359 . S
C987 C992 1.348 . S
C988 C987 1.359 . S
C988 C989 1.380 . S
C988 H1016 0.929 . S
C989 C988 1.380 . S
C989 C990 1.347 . S
C989 H1017 0.931 . S
C990 C989 1.347 . S
C990 C991 1.369 . S
C991 C990 1.369 . S
C991 C992 1.408 . S
C991 H1018 0.930 . S
C992 C987 1.348 . S
C992 C991 1.408 . S
C992 H1019 0.930 . S
C993 O1006 1.281 . S
C993 O1007 1.254 . S
C994 O1008 1.236 . S
C994 O1009 1.266 . S
C995 Tb985 2.809 . S
C995 C996 1.514 . S
C995 O1010 1.248 . S
C995 O1011 1.266 . S
C996 C995 1.514 . S
C996 C997 1.359 . S
C996 C1001 1.348 . S
C997 C996 1.359 . S
C997 C998 1.380 . S
C997 H1020 0.929 . S
C998 C997 1.380 . S
C998 C999 1.347 . S
C998 H1021 0.931 . S
C999 C998 1.347 . S
C999 C1000 1.369 . S
C1000 C999 1.369 . S
C1000 C1001 1.408 . S
C1000 H1022 0.930 . S
C1001 C996 1.348 . S
C1001 C1000 1.408 . S
C1001 H1023 0.930 . S
C1002 O1012 1.281 . S
C1002 O1013 1.254 . S
C1003 O1014 1.236 . S
C1003 O1015 1.266 . S
O1004 Tb984 2.484 . S
O1004 C986 1.248 . S
O1005 Tb984 2.440 . S
O1005 C986 1.266 . S
O1006 Tb984 2.658 . S
O1006 Tb985 2.325 . S
O1006 C993 1.281 . S
O1007 Tb984 2.409 . S
O1007 C993 1.254 . S
O1008 Tb984 2.378 . S
O1008 C994 1.236 . S
O1009 Tb985 2.341 . S
O1009 C994 1.266 . S
O1010 Tb985 2.484 . S
O1010 C995 1.248 . S
O1011 Tb985 2.440 . S
O1011 C995 1.266 . S
O1012 Tb984 2.325 . S
O1012 Tb985 2.658 . S
O1012 C1002 1.281 . S
O1013 Tb985 2.409 . S
O1013 C1002 1.254 . S
O1014 Tb985 2.378 . S
O1014 C1003 1.236 . S
O1015 Tb984 2.341 . S
O1015 C1003 1.266 . S
H1016 C988 0.929 . S
H1017 C989 0.931 . S
H1018 C991 0.930 . S
H1019 C992 0.930 . S
H1020 C997 0.929 . S
H1021 C998 0.931 . S
H1022 C1000 0.930 . S
H1023 C1001 0.930 . S
Tb1024 C1026 2.809 . S
Tb1024 O1044 2.484 . S
Tb1024 O1045 2.440 . S
Tb1024 O1046 2.658 . S
Tb1024 O1047 2.409 1_455 S
Tb1024 O1048 2.378 . S
Tb1024 O1052 2.325 . S
Tb1024 O1055 2.341 . S
Tb1025 C1035 2.809 . S
Tb1025 O1046 2.325 1_565 S
Tb1025 O1049 2.366 . S
Tb1025 O1050 2.484 . S
Tb1025 O1051 2.440 . S
Tb1025 O1052 2.658 1_565 S
Tb1025 O1053 2.409 1_565 S
Tb1025 O1054 2.378 1_565 S
C1026 Tb1024 2.809 . S
C1026 C1027 1.514 . S
C1026 O1044 1.248 . S
C1026 O1045 1.266 . S
C1027 C1026 1.514 . S
C1027 C1028 1.359 . S
C1027 C1032 1.348 1_455 S
C1028 C1027 1.359 . S
C1028 C1029 1.380 . S
C1028 H1056 0.929 . S
C1029 C1028 1.380 . S
C1029 C1030 1.347 . S
C1029 H1057 0.931 . S
C1030 C1029 1.347 . S
C1030 C1031 1.369 1_455 S
C1031 C1030 1.369 1_655 S
C1031 C1032 1.408 . S
C1031 H1058 0.930 . S
C1032 C1027 1.348 1_655 S
C1032 C1031 1.408 . S
C1032 H1059 0.930 . S
C1033 O1046 1.281 1_655 S
C1033 O1047 1.254 . S
C1034 O1048 1.236 . S
C1034 O1049 1.221 1_545 S
C1035 Tb1025 2.809 . S
C1035 C1036 1.514 . S
C1035 O1050 1.248 . S
C1035 O1051 1.266 . S
C1036 C1035 1.514 . S
C1036 C1037 1.359 . S
C1036 C1041 1.348 . S
C1037 C1036 1.359 . S
C1037 C1038 1.380 . S
C1037 H1060 0.929 . S
C1038 C1037 1.380 . S
C1038 C1039 1.347 . S
C1038 H1061 0.931 . S
C1039 C1038 1.347 . S
C1039 C1040 1.369 . S
C1040 C1039 1.369 . S
C1040 C1041 1.408 . S
C1040 H1062 0.930 . S
C1041 C1036 1.348 . S
C1041 C1040 1.408 . S
C1041 H1063 0.930 . S
C1042 O1052 1.281 . S
C1042 O1053 1.254 . S
C1043 O1054 1.236 . S
C1043 O1055 1.266 . S
O1044 Tb1024 2.484 . S
O1044 C1026 1.248 . S
O1045 Tb1024 2.440 . S
O1045 C1026 1.266 . S
O1046 Tb1024 2.658 . S
O1046 Tb1025 2.325 1_545 S
O1046 C1033 1.281 1_455 S
O1047 Tb1024 2.409 1_655 S
O1047 C1033 1.254 . S
O1048 Tb1024 2.378 . S
O1048 C1034 1.236 . S
O1049 Tb1025 2.366 . S
O1049 C1034 1.221 1_565 S
O1050 Tb1025 2.484 . S
O1050 C1035 1.248 . S
O1051 Tb1025 2.440 . S
O1051 C1035 1.266 . S
O1052 Tb1024 2.325 . S
O1052 Tb1025 2.658 1_545 S
O1052 C1042 1.281 . S
O1053 Tb1025 2.409 1_545 S
O1053 C1042 1.254 . S
O1054 Tb1025 2.378 1_545 S
O1054 C1043 1.236 . S
O1055 Tb1024 2.341 . S
O1055 C1043 1.266 . S
H1056 C1028 0.929 . S
H1057 C1029 0.931 . S
H1058 C1031 0.930 . S
H1059 C1032 0.930 . S
H1060 C1037 0.929 . S
H1061 C1038 0.931 . S
H1062 C1040 0.930 . S
H1063 C1041 0.930 . S
Tb1064 C1066 2.809 . S
Tb1064 O1084 2.484 . S
Tb1064 O1085 2.440 . S
Tb1064 O1086 2.658 . S
Tb1064 O1087 2.409 . S
Tb1064 O1088 2.378 . S
Tb1064 O1092 2.325 . S
Tb1064 O1095 2.341 . S
Tb1065 C1075 2.809 . S
Tb1065 O1086 2.325 . S
Tb1065 O1089 2.341 . S
Tb1065 O1090 2.484 . S
Tb1065 O1091 2.440 . S
Tb1065 O1092 2.658 . S
Tb1065 O1093 2.409 . S
Tb1065 O1094 2.378 . S
C1066 Tb1064 2.809 . S
C1066 C1067 1.514 . S
C1066 O1084 1.248 . S
C1066 O1085 1.266 . S
C1067 C1066 1.514 . S
C1067 C1068 1.359 . S
C1067 C1072 1.348 . S
C1068 C1067 1.359 . S
C1068 C1069 1.380 . S
C1068 H1096 0.929 . S
C1069 C1068 1.380 . S
C1069 C1070 1.347 . S
C1069 H1097 0.931 . S
C1070 C1069 1.347 . S
C1070 C1071 1.369 . S
C1071 C1070 1.369 . S
C1071 C1072 1.408 . S
C1071 H1098 0.930 . S
C1072 C1067 1.348 . S
C1072 C1071 1.408 . S
C1072 H1099 0.930 . S
C1073 O1086 1.281 . S
C1073 O1087 1.254 . S
C1074 O1088 1.236 . S
C1074 O1089 1.266 . S
C1075 Tb1065 2.809 . S
C1075 C1076 1.514 . S
C1075 O1090 1.248 . S
C1075 O1091 1.266 . S
C1076 C1075 1.514 . S
C1076 C1077 1.359 . S
C1076 C1081 1.348 . S
C1077 C1076 1.359 . S
C1077 C1078 1.380 . S
C1077 H1100 0.929 . S
C1078 C1077 1.380 . S
C1078 C1079 1.347 . S
C1078 H1101 0.931 . S
C1079 C1078 1.347 . S
C1079 C1080 1.369 . S
C1080 C1079 1.369 . S
C1080 C1081 1.408 . S
C1080 H1102 0.930 . S
C1081 C1076 1.348 . S
C1081 C1080 1.408 . S
C1081 H1103 0.930 . S
C1082 O1092 1.281 . S
C1082 O1093 1.254 . S
C1083 O1094 1.236 . S
C1083 O1095 1.266 . S
O1084 Tb1064 2.484 . S
O1084 C1066 1.248 . S
O1085 Tb1064 2.440 . S
O1085 C1066 1.266 . S
O1086 Tb1064 2.658 . S
O1086 Tb1065 2.325 . S
O1086 C1073 1.281 . S
O1087 Tb1064 2.409 . S
O1087 C1073 1.254 . S
O1088 Tb1064 2.378 . S
O1088 C1074 1.236 . S
O1089 Tb1065 2.341 . S
O1089 C1074 1.266 . S
O1090 Tb1065 2.484 . S
O1090 C1075 1.248 . S
O1091 Tb1065 2.440 . S
O1091 C1075 1.266 . S
O1092 Tb1064 2.325 . S
O1092 Tb1065 2.658 . S
O1092 C1082 1.281 . S
O1093 Tb1065 2.409 . S
O1093 C1082 1.254 . S
O1094 Tb1065 2.378 . S
O1094 C1083 1.236 . S
O1095 Tb1064 2.341 . S
O1095 C1083 1.266 . S
H1096 C1068 0.929 . S
H1097 C1069 0.931 . S
H1098 C1071 0.930 . S
H1099 C1072 0.930 . S
H1100 C1077 0.929 . S
H1101 C1078 0.931 . S
H1102 C1080 0.930 . S
H1103 C1081 0.930 . S
Tb1104 C1106 2.809 . S
Tb1104 O1124 2.484 1_545 S
Tb1104 O1125 2.440 . S
Tb1104 O1126 2.658 . S
Tb1104 O1127 2.409 . S
Tb1104 O1128 2.378 . S
Tb1104 O1132 2.325 1_545 S
Tb1104 O1135 2.341 1_554 S
Tb1105 C1115 2.809 . S
Tb1105 O1126 2.325 . S
Tb1105 O1129 2.341 . S
Tb1105 O1130 2.484 . S
Tb1105 O1131 2.440 . S
Tb1105 O1132 2.658 1_545 S
Tb1105 O1133 2.409 1_545 S
Tb1105 O1134 2.378 . S
C1106 Tb1104 2.809 . S
C1106 C1107 1.514 1_545 S
C1106 O1124 1.248 1_545 S
C1106 O1125 1.266 . S
C1107 C1106 1.514 1_565 S
C1107 C1108 1.359 . S
C1107 C1112 1.348 1_565 S
C1108 C1107 1.359 . S
C1108 C1109 1.380 . S
C1108 H1136 0.929 . S
C1109 C1108 1.380 . S
C1109 C1110 1.347 . S
C1109 H1137 0.931 . S
C1110 C1109 1.347 . S
C1110 C1111 1.337 1_565 S
C1111 C1110 1.337 1_545 S
C1111 C1112 1.415 . S
C1111 H1138 0.956 . S
C1112 C1107 1.348 1_545 S
C1112 C1111 1.415 . S
C1112 H1139 0.930 . S
C1113 O1126 1.281 . S
C1113 O1127 1.254 . S
C1114 O1128 1.236 . S
C1114 O1129 1.266 . S
C1115 Tb1105 2.809 . S
C1115 C1116 1.514 . S
C1115 O1130 1.248 . S
C1115 O1131 1.266 . S
C1116 C1115 1.514 . S
C1116 C1117 1.359 . S
C1116 C1121 1.348 . S
C1117 C1116 1.359 . S
C1117 C1118 1.380 . S
C1117 H1140 0.929 . S
C1118 C1117 1.380 . S
C1118 C1119 1.347 . S
C1118 H1141 0.931 . S
C1119 C1118 1.347 . S
C1119 C1120 1.369 . S
C1120 C1119 1.369 . S
C1120 C1121 1.408 . S
C1120 H1142 0.930 . S
C1121 C1116 1.348 . S
C1121 C1120 1.408 . S
C1121 H1143 0.930 . S
C1122 O1132 1.281 . S
C1122 O1133 1.254 . S
C1123 O1134 1.236 1_556 S
C1123 O1135 1.266 . S
O1124 Tb1104 2.484 1_565 S
O1124 C1106 1.248 1_565 S
O1125 Tb1104 2.440 . S
O1125 C1106 1.266 . S
O1126 Tb1104 2.658 . S
O1126 Tb1105 2.325 . S
O1126 C1113 1.281 . S
O1127 Tb1104 2.409 . S
O1127 C1113 1.254 . S
O1128 Tb1104 2.378 . S
O1128 C1114 1.236 . S
O1129 Tb1105 2.341 . S
O1129 C1114 1.266 . S
O1130 Tb1105 2.484 . S
O1130 C1115 1.248 . S
O1131 Tb1105 2.440 . S
O1131 C1115 1.266 . S
O1132 Tb1104 2.325 1_565 S
O1132 Tb1105 2.658 1_565 S
O1132 C1122 1.281 . S
O1133 Tb1105 2.409 1_565 S
O1133 C1122 1.254 . S
O1134 Tb1105 2.378 . S
O1134 C1123 1.236 1_554 S
O1135 Tb1104 2.341 1_556 S
O1135 C1123 1.266 . S
H1136 C1108 0.929 . S
H1137 C1109 0.931 . S
H1138 C1111 0.956 . S
H1139 C1112 0.930 . S
H1140 C1117 0.929 . S
H1141 C1118 0.931 . S
H1142 C1120 0.930 . S
H1143 C1121 0.930 . S
Tb1144 C1146 2.809 . S
Tb1144 O1164 2.484 . S
Tb1144 O1165 2.440 . S
Tb1144 O1166 2.658 . S
Tb1144 O1167 2.409 . S
Tb1144 O1168 2.378 . S
Tb1144 O1172 2.325 . S
Tb1144 O1175 2.341 . S
Tb1145 C1155 2.809 . S
Tb1145 O1166 2.325 . S
Tb1145 O1169 2.341 . S
Tb1145 O1170 2.484 . S
Tb1145 O1171 2.440 . S
Tb1145 O1172 2.658 . S
Tb1145 O1173 2.409 . S
Tb1145 O1174 2.378 . S
C1146 Tb1144 2.809 . S
C1146 C1147 1.514 . S
C1146 O1164 1.248 . S
C1146 O1165 1.266 . S
C1147 C1146 1.514 . S
C1147 C1148 1.359 . S
C1147 C1152 1.348 . S
C1148 C1147 1.359 . S
C1148 C1149 1.380 . S
C1148 H1176 0.929 . S
C1149 C1148 1.380 . S
C1149 C1150 1.347 . S
C1149 H1177 0.931 . S
C1150 C1149 1.347 . S
C1150 C1151 1.369 . S
C1151 C1150 1.369 . S
C1151 C1152 1.408 . S
C1151 H1178 0.930 . S
C1152 C1147 1.348 . S
C1152 C1151 1.408 . S
C1152 H1179 0.930 . S
C1153 O1166 1.281 . S
C1153 O1167 1.254 . S
C1154 O1168 1.236 . S
C1154 O1169 1.266 . S
C1155 Tb1145 2.809 . S
C1155 C1156 1.514 . S
C1155 O1170 1.248 . S
C1155 O1171 1.266 . S
C1156 C1155 1.514 . S
C1156 C1157 1.359 . S
C1156 C1161 1.348 . S
C1157 C1156 1.359 . S
C1157 C1158 1.380 . S
C1157 H1180 0.929 . S
C1158 C1157 1.380 . S
C1158 C1159 1.347 . S
C1158 H1181 0.931 . S
C1159 C1158 1.347 . S
C1159 C1160 1.369 . S
C1160 C1159 1.369 . S
C1160 C1161 1.408 . S
C1160 H1182 0.930 . S
C1161 C1156 1.348 . S
C1161 C1160 1.408 . S
C1161 H1183 0.930 . S
C1162 O1172 1.281 . S
C1162 O1173 1.254 . S
C1163 O1174 1.236 . S
C1163 O1175 1.266 . S
O1164 Tb1144 2.484 . S
O1164 C1146 1.248 . S
O1165 Tb1144 2.440 . S
O1165 C1146 1.266 . S
O1166 Tb1144 2.658 . S
O1166 Tb1145 2.325 . S
O1166 C1153 1.281 . S
O1167 Tb1144 2.409 . S
O1167 C1153 1.254 . S
O1168 Tb1144 2.378 . S
O1168 C1154 1.236 . S
O1169 Tb1145 2.341 . S
O1169 C1154 1.266 . S
O1170 Tb1145 2.484 . S
O1170 C1155 1.248 . S
O1171 Tb1145 2.440 . S
O1171 C1155 1.266 . S
O1172 Tb1144 2.325 . S
O1172 Tb1145 2.658 . S
O1172 C1162 1.281 . S
O1173 Tb1145 2.409 . S
O1173 C1162 1.254 . S
O1174 Tb1145 2.378 . S
O1174 C1163 1.236 . S
O1175 Tb1144 2.341 . S
O1175 C1163 1.266 . S
H1176 C1148 0.929 . S
H1177 C1149 0.931 . S
H1178 C1151 0.930 . S
H1179 C1152 0.930 . S
H1180 C1157 0.929 . S
H1181 C1158 0.931 . S
H1182 C1160 0.930 . S
H1183 C1161 0.930 . S
Tb1184 C1186 2.809 . S
Tb1184 O1204 2.484 . S
Tb1184 O1205 2.440 . S
Tb1184 O1206 2.658 . S
Tb1184 O1207 2.409 . S
Tb1184 O1208 2.378 1_554 S
Tb1184 O1212 2.325 . S
Tb1184 O1215 2.341 . S
Tb1185 C1195 2.809 . S
Tb1185 O1206 2.325 . S
Tb1185 O1209 2.341 1_554 S
Tb1185 O1210 2.484 . S
Tb1185 O1211 2.440 . S
Tb1185 O1212 2.658 . S
Tb1185 O1213 2.409 . S
Tb1185 O1214 2.378 . S
C1186 Tb1184 2.809 . S
C1186 C1187 1.514 1_554 S
C1186 O1204 1.248 . S
C1186 O1205 1.266 . S
C1187 C1186 1.514 1_556 S
C1187 C1188 1.359 . S
C1187 C1192 1.348 . S
C1188 C1187 1.359 . S
C1188 C1189 1.380 . S
C1188 H1216 0.929 . S
C1189 C1188 1.380 . S
C1189 C1190 1.347 . S
C1189 H1217 0.931 . S
C1190 C1189 1.347 . S
C1190 C1191 1.369 . S
C1191 C1190 1.369 . S
C1191 C1192 1.408 . S
C1191 H1218 0.930 . S
C1192 C1187 1.348 . S
C1192 C1191 1.408 . S
C1192 H1219 0.930 . S
C1193 O1206 1.281 . S
C1193 O1207 1.254 . S
C1194 O1208 1.236 . S
C1194 O1209 1.266 . S
C1195 Tb1185 2.809 . S
C1195 C1196 1.514 . S
C1195 O1210 1.248 . S
C1195 O1211 1.266 . S
C1196 C1195 1.514 . S
C1196 C1197 1.359 . S
C1196 C1201 1.348 . S
C1197 C1196 1.359 . S
C1197 C1198 1.380 . S
C1197 H1220 0.929 . S
C1198 C1197 1.380 . S
C1198 C1199 1.347 . S
C1198 H1221 0.931 . S
C1199 C1198 1.347 . S
C1199 C1200 1.369 . S
C1200 C1199 1.369 . S
C1200 C1201 1.408 . S
C1200 H1222 0.930 . S
C1201 C1196 1.348 . S
C1201 C1200 1.408 . S
C1201 H1223 0.930 . S
C1202 O1212 1.281 . S
C1202 O1213 1.254 . S
C1203 O1214 1.236 . S
C1203 O1215 1.266 . S
O1204 Tb1184 2.484 . S
O1204 C1186 1.248 . S
O1205 Tb1184 2.440 . S
O1205 C1186 1.266 . S
O1206 Tb1184 2.658 . S
O1206 Tb1185 2.325 . S
O1206 C1193 1.281 . S
O1207 Tb1184 2.409 . S
O1207 C1193 1.254 . S
O1208 Tb1184 2.378 1_556 S
O1208 C1194 1.236 . S
O1209 Tb1185 2.341 1_556 S
O1209 C1194 1.266 . S
O1210 Tb1185 2.484 . S
O1210 C1195 1.248 . S
O1211 Tb1185 2.440 . S
O1211 C1195 1.266 . S
O1212 Tb1184 2.325 . S
O1212 Tb1185 2.658 . S
O1212 C1202 1.281 . S
O1213 Tb1185 2.409 . S
O1213 C1202 1.254 . S
O1214 Tb1185 2.378 . S
O1214 C1203 1.236 . S
O1215 Tb1184 2.341 . S
O1215 C1203 1.266 . S
H1216 C1188 0.929 . S
H1217 C1189 0.931 . S
H1218 C1191 0.930 . S
H1219 C1192 0.930 . S
H1220 C1197 0.929 . S
H1221 C1198 0.931 . S
H1222 C1200 0.930 . S
H1223 C1201 0.930 . S
Tb1224 C1226 2.809 . S
Tb1224 O1244 2.484 . S
Tb1224 O1245 2.440 . S
Tb1224 O1246 2.658 . S
Tb1224 O1247 2.409 . S
Tb1224 O1248 2.378 . S
Tb1224 O1252 2.325 . S
Tb1224 O1255 2.341 . S
Tb1225 C1235 2.809 . S
Tb1225 O1246 2.325 . S
Tb1225 O1249 2.341 . S
Tb1225 O1250 2.484 . S
Tb1225 O1251 2.440 . S
Tb1225 O1252 2.658 . S
Tb1225 O1253 2.409 . S
Tb1225 O1254 2.378 . S
C1226 Tb1224 2.809 . S
C1226 C1227 1.514 . S
C1226 O1244 1.248 . S
C1226 O1245 1.266 . S
C1227 C1226 1.514 . S
C1227 C1228 1.359 . S
C1227 C1232 1.348 . S
C1228 C1227 1.359 . S
C1228 C1229 1.380 . S
C1228 H1256 0.929 . S
C1229 C1228 1.380 . S
C1229 C1230 1.347 . S
C1229 H1257 0.931 . S
C1230 C1229 1.347 . S
C1230 C1231 1.369 . S
C1231 C1230 1.369 . S
C1231 C1232 1.408 . S
C1231 H1258 0.930 . S
C1232 C1227 1.348 . S
C1232 C1231 1.408 . S
C1232 H1259 0.930 . S
C1233 O1246 1.281 . S
C1233 O1247 1.254 . S
C1234 O1248 1.236 . S
C1234 O1249 1.266 . S
C1235 Tb1225 2.809 . S
C1235 C1236 1.514 . S
C1235 O1250 1.248 . S
C1235 O1251 1.266 . S
C1236 C1235 1.514 . S
C1236 C1237 1.359 . S
C1236 C1241 1.348 . S
C1237 C1236 1.359 . S
C1237 C1238 1.380 . S
C1237 H1260 0.929 . S
C1238 C1237 1.380 . S
C1238 C1239 1.347 . S
C1238 H1261 0.931 . S
C1239 C1238 1.347 . S
C1239 C1240 1.369 . S
C1240 C1239 1.369 . S
C1240 C1241 1.408 . S
C1240 H1262 0.930 . S
C1241 C1236 1.348 . S
C1241 C1240 1.408 . S
C1241 H1263 0.930 . S
C1242 O1252 1.281 . S
C1242 O1253 1.254 . S
C1243 O1254 1.236 . S
C1243 O1255 1.266 . S
O1244 Tb1224 2.484 . S
O1244 C1226 1.248 . S
O1245 Tb1224 2.440 . S
O1245 C1226 1.266 . S
O1246 Tb1224 2.658 . S
O1246 Tb1225 2.325 . S
O1246 C1233 1.281 . S
O1247 Tb1224 2.409 . S
O1247 C1233 1.254 . S
O1248 Tb1224 2.378 . S
O1248 C1234 1.236 . S
O1249 Tb1225 2.341 . S
O1249 C1234 1.266 . S
O1250 Tb1225 2.484 . S
O1250 C1235 1.248 . S
O1251 Tb1225 2.440 . S
O1251 C1235 1.266 . S
O1252 Tb1224 2.325 . S
O1252 Tb1225 2.658 . S
O1252 C1242 1.281 . S
O1253 Tb1225 2.409 . S
O1253 C1242 1.254 . S
O1254 Tb1225 2.378 . S
O1254 C1243 1.236 . S
O1255 Tb1224 2.341 . S
O1255 C1243 1.266 . S
H1256 C1228 0.929 . S
H1257 C1229 0.931 . S
H1258 C1231 0.930 . S
H1259 C1232 0.930 . S
H1260 C1237 0.929 . S
H1261 C1238 0.931 . S
H1262 C1240 0.930 . S
H1263 C1241 0.930 . S
Tb1264 C1266 2.809 1_455 S
Tb1264 O1284 2.484 1_455 S
Tb1264 O1285 2.440 1_455 S
Tb1264 O1286 2.658 . S
Tb1264 O1287 2.409 . S
Tb1264 O1288 2.378 . S
Tb1264 O1292 2.325 . S
Tb1264 O1295 2.341 . S
Tb1265 C1275 2.809 . S
Tb1265 O1286 2.325 . S
Tb1265 O1289 2.341 . S
Tb1265 O1290 2.484 . S
Tb1265 O1291 2.440 . S
Tb1265 O1292 2.658 . S
Tb1265 O1293 2.409 . S
Tb1265 O1294 2.378 . S
C1266 Tb1264 2.809 1_655 S
C1266 C1267 1.514 . S
C1266 O1284 1.248 . S
C1266 O1285 1.266 . S
C1267 C1266 1.514 . S
C1267 C1268 1.359 . S
C1267 C1272 1.348 . S
C1268 C1267 1.359 . S
C1268 C1269 1.380 . S
C1268 H1296 0.929 . S
C1269 C1268 1.380 . S
C1269 C1270 1.347 . S
C1269 H1297 0.931 . S
C1270 C1269 1.347 . S
C1270 C1271 1.369 . S
C1271 C1270 1.369 . S
C1271 C1272 1.408 . S
C1271 H1298 0.930 . S
C1272 C1267 1.348 . S
C1272 C1271 1.408 . S
C1272 H1299 0.930 . S
C1273 O1286 1.281 . S
C1273 O1287 1.254 . S
C1274 O1288 1.236 . S
C1274 O1289 1.266 . S
C1275 Tb1265 2.809 . S
C1275 C1276 1.514 . S
C1275 O1290 1.248 . S
C1275 O1291 1.266 . S
C1276 C1275 1.514 . S
C1276 C1277 1.359 . S
C1276 C1281 1.348 . S
C1277 C1276 1.359 . S
C1277 C1278 1.380 . S
C1277 H1300 0.929 . S
C1278 C1277 1.380 . S
C1278 C1279 1.347 . S
C1278 H1301 0.931 . S
C1279 C1278 1.347 . S
C1279 C1280 1.369 . S
C1280 C1279 1.369 . S
C1280 C1281 1.408 . S
C1280 H1302 0.930 . S
C1281 C1276 1.348 . S
C1281 C1280 1.408 . S
C1281 H1303 0.930 . S
C1282 O1292 1.281 . S
C1282 O1293 1.254 . S
C1283 O1294 1.236 . S
C1283 O1295 1.266 . S
O1284 Tb1264 2.484 1_655 S
O1284 C1266 1.248 . S
O1285 Tb1264 2.440 1_655 S
O1285 C1266 1.266 . S
O1286 Tb1264 2.658 . S
O1286 Tb1265 2.325 . S
O1286 C1273 1.281 . S
O1287 Tb1264 2.409 . S
O1287 C1273 1.254 . S
O1288 Tb1264 2.378 . S
O1288 C1274 1.236 . S
O1289 Tb1265 2.341 . S
O1289 C1274 1.266 . S
O1290 Tb1265 2.484 . S
O1290 C1275 1.248 . S
O1291 Tb1265 2.440 . S
O1291 C1275 1.266 . S
O1292 Tb1264 2.325 . S
O1292 Tb1265 2.658 . S
O1292 C1282 1.281 . S
O1293 Tb1265 2.409 . S
O1293 C1282 1.254 . S
O1294 Tb1265 2.378 . S
O1294 C1283 1.236 . S
O1295 Tb1264 2.341 . S
O1295 C1283 1.266 . S
H1296 C1268 0.929 . S
H1297 C1269 0.931 . S
H1298 C1271 0.930 . S
H1299 C1272 0.930 . S
H1300 C1277 0.929 . S
H1301 C1278 0.931 . S
H1302 C1280 0.930 . S
H1303 C1281 0.930 . S
Tb1304 C1306 2.809 . S
Tb1304 O1324 2.484 . S
Tb1304 O1325 2.440 . S
Tb1304 O1326 2.658 . S
Tb1304 O1327 2.409 . S
Tb1304 O1328 2.378 . S
Tb1304 O1332 2.325 . S
Tb1304 O1335 2.341 . S
Tb1305 C1315 2.809 . S
Tb1305 O1326 2.325 . S
Tb1305 O1329 2.341 . S
Tb1305 O1330 2.484 . S
Tb1305 O1331 2.440 . S
Tb1305 O1332 2.658 . S
Tb1305 O1333 2.409 . S
Tb1305 O1334 2.378 . S
C1306 Tb1304 2.809 . S
C1306 C1307 1.514 . S
C1306 O1324 1.248 . S
C1306 O1325 1.266 . S
C1307 C1306 1.514 . S
C1307 C1308 1.359 . S
C1307 C1312 1.348 . S
C1308 C1307 1.359 . S
C1308 C1309 1.380 . S
C1308 H1336 0.929 . S
C1309 C1308 1.380 . S
C1309 C1310 1.347 . S
C1309 H1337 0.931 . S
C1310 C1309 1.347 . S
C1310 C1311 1.369 . S
C1311 C1310 1.369 . S
C1311 C1312 1.408 . S
C1311 H1338 0.930 . S
C1312 C1307 1.348 . S
C1312 C1311 1.408 . S
C1312 H1339 0.930 . S
C1313 O1326 1.281 . S
C1313 O1327 1.254 . S
C1314 O1328 1.236 . S
C1314 O1329 1.266 . S
C1315 Tb1305 2.809 . S
C1315 C1316 1.514 . S
C1315 O1330 1.248 . S
C1315 O1331 1.266 . S
C1316 C1315 1.514 . S
C1316 C1317 1.359 . S
C1316 C1321 1.348 . S
C1317 C1316 1.359 . S
C1317 C1318 1.380 . S
C1317 H1340 0.929 . S
C1318 C1317 1.380 . S
C1318 C1319 1.347 . S
C1318 H1341 0.931 . S
C1319 C1318 1.347 . S
C1319 C1320 1.369 . S
C1320 C1319 1.369 . S
C1320 C1321 1.408 . S
C1320 H1342 0.930 . S
C1321 C1316 1.348 . S
C1321 C1320 1.408 . S
C1321 H1343 0.930 . S
C1322 O1332 1.281 . S
C1322 O1333 1.254 . S
C1323 O1334 1.236 . S
C1323 O1335 1.266 . S
O1324 Tb1304 2.484 . S
O1324 C1306 1.248 . S
O1325 Tb1304 2.440 . S
O1325 C1306 1.266 . S
O1326 Tb1304 2.658 . S
O1326 Tb1305 2.325 . S
O1326 C1313 1.281 . S
O1327 Tb1304 2.409 . S
O1327 C1313 1.254 . S
O1328 Tb1304 2.378 . S
O1328 C1314 1.236 . S
O1329 Tb1305 2.341 . S
O1329 C1314 1.266 . S
O1330 Tb1305 2.484 . S
O1330 C1315 1.248 . S
O1331 Tb1305 2.440 . S
O1331 C1315 1.266 . S
O1332 Tb1304 2.325 . S
O1332 Tb1305 2.658 . S
O1332 C1322 1.281 . S
O1333 Tb1305 2.409 . S
O1333 C1322 1.254 . S
O1334 Tb1305 2.378 . S
O1334 C1323 1.236 . S
O1335 Tb1304 2.341 . S
O1335 C1323 1.266 . S
H1336 C1308 0.929 . S
H1337 C1309 0.931 . S
H1338 C1311 0.930 . S
H1339 C1312 0.930 . S
H1340 C1317 0.929 . S
H1341 C1318 0.931 . S
H1342 C1320 0.930 . S
H1343 C1321 0.930 . S
Tb1344 C1346 2.809 . S
Tb1344 O1364 2.484 . S
Tb1344 O1365 2.440 . S
Tb1344 O1366 2.658 . S
Tb1344 O1367 2.409 . S
Tb1344 O1368 2.378 . S
Tb1344 O1372 2.325 . S
Tb1344 O1375 2.341 . S
Tb1345 C1355 2.809 . S
Tb1345 O1366 2.325 . S
Tb1345 O1369 2.341 . S
Tb1345 O1370 2.484 . S
Tb1345 O1371 2.440 . S
Tb1345 O1372 2.658 . S
Tb1345 O1373 2.409 . S
Tb1345 O1374 2.378 . S
C1346 Tb1344 2.809 . S
C1346 C1347 1.514 . S
C1346 O1364 1.248 . S
C1346 O1365 1.266 . S
C1347 C1346 1.514 . S
C1347 C1348 1.359 . S
C1347 C1352 1.348 . S
C1348 C1347 1.359 . S
C1348 C1349 1.380 . S
C1348 H1376 0.929 . S
C1349 C1348 1.380 . S
C1349 C1350 1.347 . S
C1349 H1377 0.931 . S
C1350 C1349 1.347 . S
C1350 C1351 1.369 . S
C1351 C1350 1.369 . S
C1351 C1352 1.408 . S
C1351 H1378 0.930 . S
C1352 C1347 1.348 . S
C1352 C1351 1.408 . S
C1352 H1379 0.930 . S
C1353 O1366 1.281 . S
C1353 O1367 1.254 . S
C1354 O1368 1.236 . S
C1354 O1369 1.266 . S
C1355 Tb1345 2.809 . S
C1355 C1356 1.514 . S
C1355 O1370 1.248 . S
C1355 O1371 1.266 . S
C1356 C1355 1.514 . S
C1356 C1357 1.359 . S
C1356 C1361 1.348 . S
C1357 C1356 1.359 . S
C1357 C1358 1.380 . S
C1357 H1380 0.929 . S
C1358 C1357 1.380 . S
C1358 C1359 1.347 . S
C1358 H1381 0.931 . S
C1359 C1358 1.347 . S
C1359 C1360 1.369 . S
C1360 C1359 1.369 . S
C1360 C1361 1.408 . S
C1360 H1382 0.930 . S
C1361 C1356 1.348 . S
C1361 C1360 1.408 . S
C1361 H1383 0.930 . S
C1362 O1372 1.281 . S
C1362 O1373 1.254 . S
C1363 O1374 1.236 . S
C1363 O1375 1.266 . S
O1364 Tb1344 2.484 . S
O1364 C1346 1.248 . S
O1365 Tb1344 2.440 . S
O1365 C1346 1.266 . S
O1366 Tb1344 2.658 . S
O1366 Tb1345 2.325 . S
O1366 C1353 1.281 . S
O1367 Tb1344 2.409 . S
O1367 C1353 1.254 . S
O1368 Tb1344 2.378 . S
O1368 C1354 1.236 . S
O1369 Tb1345 2.341 . S
O1369 C1354 1.266 . S
O1370 Tb1345 2.484 . S
O1370 C1355 1.248 . S
O1371 Tb1345 2.440 . S
O1371 C1355 1.266 . S
O1372 Tb1344 2.325 . S
O1372 Tb1345 2.658 . S
O1372 C1362 1.281 . S
O1373 Tb1345 2.409 . S
O1373 C1362 1.254 . S
O1374 Tb1345 2.378 . S
O1374 C1363 1.236 . S
O1375 Tb1344 2.341 . S
O1375 C1363 1.266 . S
H1376 C1348 0.929 . S
H1377 C1349 0.931 . S
H1378 C1351 0.930 . S
H1379 C1352 0.930 . S
H1380 C1357 0.929 . S
H1381 C1358 0.931 . S
H1382 C1360 0.930 . S
H1383 C1361 0.930 . S
Tb1384 C1386 2.809 . S
Tb1384 O1404 2.484 . S
Tb1384 O1405 2.440 . S
Tb1384 O1406 2.658 . S
Tb1384 O1407 2.409 . S
Tb1384 O1408 2.378 . S
Tb1384 O1412 2.325 . S
Tb1384 O1415 2.341 . S
Tb1385 C1395 2.809 . S
Tb1385 O1406 2.325 . S
Tb1385 O1409 2.341 . S
Tb1385 O1410 2.484 . S
Tb1385 O1411 2.440 . S
Tb1385 O1412 2.658 . S
Tb1385 O1413 2.409 . S
Tb1385 O1414 2.378 . S
C1386 Tb1384 2.809 . S
C1386 C1387 1.514 . S
C1386 O1404 1.248 . S
C1386 O1405 1.266 . S
C1387 C1386 1.514 . S
C1387 C1388 1.359 . S
C1387 C1392 1.348 . S
C1388 C1387 1.359 . S
C1388 C1389 1.380 . S
C1388 H1416 0.929 . S
C1389 C1388 1.380 . S
C1389 C1390 1.347 . S
C1389 H1417 0.931 . S
C1390 C1389 1.347 . S
C1390 C1391 1.369 . S
C1391 C1390 1.369 . S
C1391 C1392 1.408 . S
C1391 H1418 0.930 . S
C1392 C1387 1.348 . S
C1392 C1391 1.408 . S
C1392 H1419 0.930 . S
C1393 O1406 1.281 . S
C1393 O1407 1.254 . S
C1394 O1408 1.236 . S
C1394 O1409 1.266 . S
C1395 Tb1385 2.809 . S
C1395 C1396 1.514 . S
C1395 O1410 1.248 . S
C1395 O1411 1.266 . S
C1396 C1395 1.514 . S
C1396 C1397 1.359 . S
C1396 C1401 1.348 . S
C1397 C1396 1.359 . S
C1397 C1398 1.380 . S
C1397 H1420 0.929 . S
C1398 C1397 1.380 . S
C1398 C1399 1.347 . S
C1398 H1421 0.931 . S
C1399 C1398 1.347 . S
C1399 C1400 1.369 . S
C1400 C1399 1.369 . S
C1400 C1401 1.408 . S
C1400 H1422 0.930 . S
C1401 C1396 1.348 . S
C1401 C1400 1.408 . S
C1401 H1423 0.930 . S
C1402 O1412 1.281 . S
C1402 O1413 1.254 . S
C1403 O1414 1.236 . S
C1403 O1415 1.266 . S
O1404 Tb1384 2.484 . S
O1404 C1386 1.248 . S
O1405 Tb1384 2.440 . S
O1405 C1386 1.266 . S
O1406 Tb1384 2.658 . S
O1406 Tb1385 2.325 . S
O1406 C1393 1.281 . S
O1407 Tb1384 2.409 . S
O1407 C1393 1.254 . S
O1408 Tb1384 2.378 . S
O1408 C1394 1.236 . S
O1409 Tb1385 2.341 . S
O1409 C1394 1.266 . S
O1410 Tb1385 2.484 . S
O1410 C1395 1.248 . S
O1411 Tb1385 2.440 . S
O1411 C1395 1.266 . S
O1412 Tb1384 2.325 . S
O1412 Tb1385 2.658 . S
O1412 C1402 1.281 . S
O1413 Tb1385 2.409 . S
O1413 C1402 1.254 . S
O1414 Tb1385 2.378 . S
O1414 C1403 1.236 . S
O1415 Tb1384 2.341 . S
O1415 C1403 1.266 . S
H1416 C1388 0.929 . S
H1417 C1389 0.931 . S
H1418 C1391 0.930 . S
H1419 C1392 0.930 . S
H1420 C1397 0.929 . S
H1421 C1398 0.931 . S
H1422 C1400 0.930 . S
H1423 C1401 0.930 . S
Tb1424 C1426 2.809 . S
Tb1424 O1444 2.484 . S
Tb1424 O1445 2.440 . S
Tb1424 O1446 2.658 . S
Tb1424 O1447 2.409 . S
Tb1424 O1448 2.378 . S
Tb1424 O1452 2.325 . S
Tb1424 O1455 2.341 . S
Tb1425 C1435 2.809 . S
Tb1425 O1446 2.325 . S
Tb1425 O1449 2.341 . S
Tb1425 O1450 2.484 . S
Tb1425 O1451 2.440 . S
Tb1425 O1452 2.658 . S
Tb1425 O1453 2.409 . S
Tb1425 O1454 2.378 . S
C1426 Tb1424 2.809 . S
C1426 C1427 1.514 . S
C1426 O1444 1.248 . S
C1426 O1445 1.266 . S
C1427 C1426 1.514 . S
C1427 C1428 1.359 . S
C1427 C1432 1.348 . S
C1428 C1427 1.359 . S
C1428 C1429 1.380 . S
C1428 H1456 0.929 . S
C1429 C1428 1.380 . S
C1429 C1430 1.347 . S
C1429 H1457 0.931 . S
C1430 C1429 1.347 . S
C1430 C1431 1.369 . S
C1431 C1430 1.369 . S
C1431 C1432 1.408 . S
C1431 H1458 0.930 . S
C1432 C1427 1.348 . S
C1432 C1431 1.408 . S
C1432 H1459 0.930 . S
C1433 O1446 1.281 . S
C1433 O1447 1.254 . S
C1434 O1448 1.236 . S
C1434 O1449 1.266 . S
C1435 Tb1425 2.809 . S
C1435 C1436 1.514 . S
C1435 O1450 1.248 . S
C1435 O1451 1.266 . S
C1436 C1435 1.514 . S
C1436 C1437 1.359 . S
C1436 C1441 1.348 . S
C1437 C1436 1.359 . S
C1437 C1438 1.380 . S
C1437 H1460 0.929 . S
C1438 C1437 1.380 . S
C1438 C1439 1.347 . S
C1438 H1461 0.931 . S
C1439 C1438 1.347 . S
C1439 C1440 1.369 . S
C1440 C1439 1.369 . S
C1440 C1441 1.408 . S
C1440 H1462 0.930 . S
C1441 C1436 1.348 . S
C1441 C1440 1.408 . S
C1441 H1463 0.930 . S
C1442 O1452 1.281 . S
C1442 O1453 1.254 . S
C1443 O1454 1.236 . S
C1443 O1455 1.266 . S
O1444 Tb1424 2.484 . S
O1444 C1426 1.248 . S
O1445 Tb1424 2.440 . S
O1445 C1426 1.266 . S
O1446 Tb1424 2.658 . S
O1446 Tb1425 2.325 . S
O1446 C1433 1.281 . S
O1447 Tb1424 2.409 . S
O1447 C1433 1.254 . S
O1448 Tb1424 2.378 . S
O1448 C1434 1.236 . S
O1449 Tb1425 2.341 . S
O1449 C1434 1.266 . S
O1450 Tb1425 2.484 . S
O1450 C1435 1.248 . S
O1451 Tb1425 2.440 . S
O1451 C1435 1.266 . S
O1452 Tb1424 2.325 . S
O1452 Tb1425 2.658 . S
O1452 C1442 1.281 . S
O1453 Tb1425 2.409 . S
O1453 C1442 1.254 . S
O1454 Tb1425 2.378 . S
O1454 C1443 1.236 . S
O1455 Tb1424 2.341 . S
O1455 C1443 1.266 . S
H1456 C1428 0.929 . S
H1457 C1429 0.931 . S
H1458 C1431 0.930 . S
H1459 C1432 0.930 . S
H1460 C1437 0.929 . S
H1461 C1438 0.931 . S
H1462 C1440 0.930 . S
H1463 C1441 0.930 . S
Tb1464 C1466 2.809 . S
Tb1464 O1484 2.484 . S
Tb1464 O1485 2.440 1_554 S
Tb1464 O1486 2.658 . S
Tb1464 O1487 2.409 1_554 S
Tb1464 O1488 2.378 . S
Tb1464 O1492 2.325 . S
Tb1464 O1495 2.341 . S
Tb1465 C1475 2.809 1_455 S
Tb1465 O1486 2.325 . S
Tb1465 O1489 2.341 . S
Tb1465 O1490 2.484 1_455 S
Tb1465 O1491 2.440 1_455 S
Tb1465 O1492 2.658 . S
Tb1465 O1493 2.409 . S
Tb1465 O1494 2.378 . S
C1466 Tb1464 2.809 . S
C1466 C1467 1.514 . S
C1466 O1484 1.248 . S
C1466 O1485 1.266 1_554 S
C1467 C1466 1.514 . S
C1467 C1468 1.359 . S
C1467 C1472 1.348 1_554 S
C1468 C1467 1.359 . S
C1468 C1469 1.380 . S
C1468 H1496 0.929 . S
C1469 C1468 1.380 . S
C1469 C1470 1.347 . S
C1469 H1497 0.931 . S
C1470 C1469 1.347 . S
C1470 C1471 1.369 1_554 S
C1471 C1470 1.369 1_556 S
C1471 C1472 1.408 . S
C1471 H1498 0.930 . S
C1472 C1467 1.348 1_556 S
C1472 C1471 1.408 . S
C1472 H1499 0.930 . S
C1473 O1486 1.281 1_556 S
C1473 O1487 1.254 . S
C1474 O1488 1.236 . S
C1474 O1489 1.266 . S
C1475 Tb1465 2.809 1_655 S
C1475 C1476 1.514 . S
C1475 O1490 1.248 . S
C1475 O1491 1.266 . S
C1476 C1475 1.514 . S
C1476 C1477 1.359 . S
C1476 C1481 1.348 . S
C1477 C1476 1.359 . S
C1477 C1478 1.380 . S
C1477 H1500 0.929 . S
C1478 C1477 1.380 . S
C1478 C1479 1.347 . S
C1478 H1501 0.931 . S
C1479 C1478 1.347 . S
C1479 C1480 1.369 . S
C1480 C1479 1.369 . S
C1480 C1481 1.408 . S
C1480 H1502 0.930 . S
C1481 C1476 1.348 . S
C1481 C1480 1.408 . S
C1481 H1503 0.930 . S
C1482 O1492 1.281 . S
C1482 O1493 1.254 . S
C1483 O1494 1.236 . S
C1483 O1495 1.266 . S
O1484 Tb1464 2.484 . S
O1484 C1466 1.248 . S
O1485 Tb1464 2.440 1_556 S
O1485 C1466 1.266 1_556 S
O1486 Tb1464 2.658 . S
O1486 Tb1465 2.325 . S
O1486 C1473 1.281 1_554 S
O1487 Tb1464 2.409 1_556 S
O1487 C1473 1.254 . S
O1488 Tb1464 2.378 . S
O1488 C1474 1.236 . S
O1489 Tb1465 2.341 . S
O1489 C1474 1.266 . S
O1490 Tb1465 2.484 1_655 S
O1490 C1475 1.248 . S
O1491 Tb1465 2.440 1_655 S
O1491 C1475 1.266 . S
O1492 Tb1464 2.325 . S
O1492 Tb1465 2.658 . S
O1492 C1482 1.281 . S
O1493 Tb1465 2.409 . S
O1493 C1482 1.254 . S
O1494 Tb1465 2.378 . S
O1494 C1483 1.236 . S
O1495 Tb1464 2.341 . S
O1495 C1483 1.266 . S
H1496 C1468 0.929 . S
H1497 C1469 0.931 . S
H1498 C1471 0.930 . S
H1499 C1472 0.930 . S
H1500 C1477 0.929 . S
H1501 C1478 0.931 . S
H1502 C1480 0.930 . S
H1503 C1481 0.930 . S
H1504 C1522 0.951 . S
H1505 C1524 0.990 . S
H1506 C1526 0.950 . S
H1507 C1527 0.950 . S
H1508 C1529 0.950 . S
H1509 C1532 0.916 1_454 S
H1510 C1533 0.957 . S
H1511 C1535 0.950 . S
H1512 C1536 0.950 . S
H1513 C1537 0.951 . S
H1514 C1539 0.951 . S
H1515 C1541 0.950 1_655 S
H1516 C1542 0.914 1_655 S
H1517 C1544 0.950 1_655 S
H1518 C1547 0.950 . S
H1519 C1548 0.950 . S
H1520 C1550 0.950 . S
H1521 C1551 0.950 . S
C1522 H1504 0.951 . S
C1522 C1523 1.366 1_655 S
C1522 C1524 1.401 . S
C1523 C1522 1.366 1_455 S
C1523 C1527 1.385 . S
C1524 H1505 0.990 . S
C1524 C1522 1.401 . S
C1524 C1525 1.317 1_655 S
C1525 C1524 1.317 1_455 S
C1525 C1526 1.414 . S
C1525 C1528 1.499 . S
C1526 H1506 0.950 . S
C1526 C1525 1.414 . S
C1526 C1527 1.374 . S
C1527 H1507 0.950 . S
C1527 C1523 1.385 . S
C1527 C1526 1.374 . S
C1528 C1525 1.499 . S
C1528 C1529 1.373 . S
C1528 C1530 1.389 . S
C1529 H1508 0.950 . S
C1529 C1528 1.373 . S
C1529 C1545 1.377 . S
C1530 C1528 1.389 . S
C1530 C1531 1.524 1_455 S
C1530 C1544 1.377 . S
C1531 C1530 1.524 1_655 S
C1531 C1532 1.397 . S
C1531 C1536 1.363 . S
C1532 H1509 0.916 1_656 S
C1532 C1531 1.397 . S
C1532 C1533 1.329 1_556 S
C1533 H1510 0.957 . S
C1533 C1532 1.329 1_554 S
C1533 C1534 1.286 1_554 S
C1534 C1533 1.286 1_556 S
C1534 C1535 1.524 . S
C1534 H1553 0.913 . S
C1535 H1511 0.950 . S
C1535 C1534 1.524 . S
C1535 C1536 1.415 . S
C1536 H1512 0.950 . S
C1536 C1531 1.363 . S
C1536 C1535 1.415 . S
C1537 H1513 0.951 . S
C1537 C1538 1.366 . S
C1537 C1539 1.388 . S
C1538 C1537 1.366 . S
C1538 C1542 1.385 1_554 S
C1539 H1514 0.951 . S
C1539 C1537 1.388 . S
C1539 C1540 1.366 1_554 S
C1540 C1539 1.366 1_556 S
C1540 C1541 1.414 . S
C1540 C1543 1.499 . S
C1541 H1515 0.950 1_455 S
C1541 C1540 1.414 . S
C1541 C1542 1.374 . S
C1542 H1516 0.914 1_455 S
C1542 C1538 1.385 1_556 S
C1542 C1541 1.374 . S
C1543 C1540 1.499 . S
C1543 C1544 1.373 . S
C1543 C1545 1.389 . S
C1544 H1517 0.950 1_455 S
C1544 C1530 1.377 . S
C1544 C1543 1.373 . S
C1545 C1529 1.377 . S
C1545 C1543 1.389 . S
C1545 C1546 1.524 . S
C1546 C1545 1.524 . S
C1546 C1547 1.397 . S
C1546 C1551 1.363 . S
C1547 H1518 0.950 . S
C1547 C1546 1.397 . S
C1547 C1548 1.334 . S
C1548 H1519 0.950 . S
C1548 C1547 1.334 . S
C1548 C1549 1.287 . S
C1549 C1548 1.287 . S
C1549 C1550 1.524 . S
C1549 H1552 0.999 . S
C1550 H1520 0.950 . S
C1550 C1549 1.524 . S
C1550 C1551 1.415 . S
C1551 H1521 0.950 . S
C1551 C1546 1.363 . S
C1551 C1550 1.415 . S
H1552 C1549 0.999 . S
H1553 C1534 0.913 . S
H1554 C1572 0.951 . S
H1555 C1574 0.951 . S
H1556 C1576 0.950 . S
H1557 C1577 0.950 . S
H1558 C1579 0.950 . S
H1559 C1582 0.950 . S
H1560 C1583 0.950 . S
H1561 C1585 0.950 . S
H1562 C1586 0.950 . S
H1563 C1587 0.951 . S
H1564 C1589 0.951 . S
H1565 C1591 0.950 . S
H1566 C1592 0.950 . S
H1567 C1594 0.950 . S
H1568 C1597 0.950 . S
H1569 C1598 0.950 . S
H1570 C1600 0.950 . S
H1571 C1601 0.950 . S
C1572 H1554 0.951 . S
C1572 C1573 1.366 . S
C1572 C1574 1.388 . S
C1573 C1572 1.366 . S
C1573 C1577 1.385 . S
C1574 H1555 0.951 . S
C1574 C1572 1.388 . S
C1574 C1575 1.366 . S
C1575 C1574 1.366 . S
C1575 C1576 1.414 . S
C1575 C1578 1.499 . S
C1576 H1556 0.950 . S
C1576 C1575 1.414 . S
C1576 C1577 1.374 . S
C1577 H1557 0.950 . S
C1577 C1573 1.385 . S
C1577 C1576 1.374 . S
C1578 C1575 1.499 . S
C1578 C1579 1.373 . S
C1578 C1580 1.389 . S
C1579 H1558 0.950 . S
C1579 C1578 1.373 . S
C1579 C1595 1.377 . S
C1580 C1578 1.389 . S
C1580 C1581 1.524 . S
C1580 C1594 1.377 . S
C1581 C1580 1.524 . S
C1581 C1582 1.397 . S
C1581 C1586 1.363 . S
C1582 H1559 0.950 . S
C1582 C1581 1.397 . S
C1582 C1583 1.334 . S
C1583 H1560 0.950 . S
C1583 C1582 1.334 . S
C1583 C1584 1.287 . S
C1584 C1583 1.287 . S
C1584 C1585 1.524 . S
C1584 H1603 0.913 . S
C1585 H1561 0.950 . S
C1585 C1584 1.524 . S
C1585 C1586 1.415 . S
C1586 H1562 0.950 . S
C1586 C1581 1.363 . S
C1586 C1585 1.415 . S
C1587 H1563 0.951 . S
C1587 C1588 1.366 . S
C1587 C1589 1.388 . S
C1588 C1587 1.366 . S
C1588 C1592 1.385 . S
C1589 H1564 0.951 . S
C1589 C1587 1.388 . S
C1589 C1590 1.366 . S
C1590 C1589 1.366 . S
C1590 C1591 1.414 . S
C1590 C1593 1.499 . S
C1591 H1565 0.950 . S
C1591 C1590 1.414 . S
C1591 C1592 1.374 . S
C1592 H1566 0.950 . S
C1592 C1588 1.385 . S
C1592 C1591 1.374 . S
C1593 C1590 1.499 . S
C1593 C1594 1.373 . S
C1593 C1595 1.389 . S
C1594 H1567 0.950 . S
C1594 C1580 1.377 . S
C1594 C1593 1.373 . S
C1595 C1579 1.377 . S
C1595 C1593 1.389 . S
C1595 C1596 1.524 . S
C1596 C1595 1.524 . S
C1596 C1597 1.397 . S
C1596 C1601 1.363 . S
C1597 H1568 0.950 . S
C1597 C1596 1.397 . S
C1597 C1598 1.334 . S
C1598 H1569 0.950 . S
C1598 C1597 1.334 . S
C1598 C1599 1.287 . S
C1599 C1598 1.287 . S
C1599 C1600 1.524 . S
C1599 H1602 0.999 . S
C1600 H1570 0.950 . S
C1600 C1599 1.524 . S
C1600 C1601 1.415 . S
C1601 H1571 0.950 . S
C1601 C1596 1.363 . S
C1601 C1600 1.415 . S
H1602 C1599 0.999 . S
H1603 C1584 0.913 . S
H1604 C1622 0.951 . S
H1605 C1624 0.951 . S
H1606 C1626 0.950 . S
H1607 C1627 0.950 . S
H1608 C1629 0.950 . S
H1609 C1632 0.950 . S
H1610 C1633 0.950 . S
H1611 C1635 0.950 . S
H1612 C1636 0.950 . S
H1613 C1637 0.951 . S
H1614 C1639 0.951 . S
H1615 C1641 0.950 . S
H1616 C1642 0.950 . S
H1617 C1644 0.950 . S
H1618 C1647 0.950 . S
H1619 C1648 0.950 . S
H1620 C1650 0.950 . S
H1621 C1651 0.950 . S
C1622 H1604 0.951 . S
C1622 C1623 1.366 . S
C1622 C1624 1.388 . S
C1623 C1622 1.366 . S
C1623 C1627 1.385 . S
C1624 H1605 0.951 . S
C1624 C1622 1.388 . S
C1624 C1625 1.366 . S
C1625 C1624 1.366 . S
C1625 C1626 1.414 . S
C1625 C1628 1.499 . S
C1626 H1606 0.950 . S
C1626 C1625 1.414 . S
C1626 C1627 1.374 . S
C1627 H1607 0.950 . S
C1627 C1623 1.385 . S
C1627 C1626 1.374 . S
C1628 C1625 1.499 . S
C1628 C1629 1.373 . S
C1628 C1630 1.389 . S
C1629 H1608 0.950 . S
C1629 C1628 1.373 . S
C1629 C1645 1.377 . S
C1630 C1628 1.389 . S
C1630 C1631 1.524 . S
C1630 C1644 1.377 . S
C1631 C1630 1.524 . S
C1631 C1632 1.397 . S
C1631 C1636 1.363 . S
C1632 H1609 0.950 . S
C1632 C1631 1.397 . S
C1632 C1633 1.334 . S
C1633 H1610 0.950 . S
C1633 C1632 1.334 . S
C1633 C1634 1.287 . S
C1634 C1633 1.287 . S
C1634 C1635 1.524 . S
C1634 H1653 0.913 . S
C1635 H1611 0.950 . S
C1635 C1634 1.524 . S
C1635 C1636 1.415 . S
C1636 H1612 0.950 . S
C1636 C1631 1.363 . S
C1636 C1635 1.415 . S
C1637 H1613 0.951 . S
C1637 C1638 1.366 . S
C1637 C1639 1.388 . S
C1638 C1637 1.366 . S
C1638 C1642 1.385 . S
C1639 H1614 0.951 . S
C1639 C1637 1.388 . S
C1639 C1640 1.366 . S
C1640 C1639 1.366 . S
C1640 C1641 1.414 . S
C1640 C1643 1.499 . S
C1641 H1615 0.950 . S
C1641 C1640 1.414 . S
C1641 C1642 1.374 . S
C1642 H1616 0.950 . S
C1642 C1638 1.385 . S
C1642 C1641 1.374 . S
C1643 C1640 1.499 . S
C1643 C1644 1.373 . S
C1643 C1645 1.389 . S
C1644 H1617 0.950 . S
C1644 C1630 1.377 . S
C1644 C1643 1.373 . S
C1645 C1629 1.377 . S
C1645 C1643 1.389 . S
C1645 C1646 1.524 . S
C1646 C1645 1.524 . S
C1646 C1647 1.397 . S
C1646 C1651 1.363 . S
C1647 H1618 0.950 . S
C1647 C1646 1.397 . S
C1647 C1648 1.334 . S
C1648 H1619 0.950 . S
C1648 C1647 1.334 . S
C1648 C1649 1.287 . S
C1649 C1648 1.287 . S
C1649 C1650 1.524 . S
C1649 H1652 0.999 . S
C1650 H1620 0.950 . S
C1650 C1649 1.524 . S
C1650 C1651 1.415 . S
C1651 H1621 0.950 . S
C1651 C1646 1.363 . S
C1651 C1650 1.415 . S
H1652 C1649 0.999 . S
H1653 C1634 0.913 . S
H1654 C1672 0.951 . S
H1655 C1674 0.951 . S
H1656 C1676 0.950 . S
H1657 C1677 0.950 . S
H1658 C1679 0.950 . S
H1659 C1682 0.950 . S
H1660 C1683 0.950 . S
H1661 C1685 0.950 . S
H1662 C1686 0.950 . S
H1663 C1687 0.951 . S
H1664 C1689 0.951 . S
H1665 C1691 0.950 . S
H1666 C1692 0.950 . S
H1667 C1694 0.950 . S
H1668 C1697 0.950 . S
H1669 C1698 0.950 . S
H1670 C1700 0.950 . S
H1671 C1701 0.950 . S
C1672 H1654 0.951 . S
C1672 C1673 1.366 . S
C1672 C1674 1.388 . S
C1673 C1672 1.366 . S
C1673 C1677 1.385 . S
C1674 H1655 0.951 . S
C1674 C1672 1.388 . S
C1674 C1675 1.366 . S
C1675 C1674 1.366 . S
C1675 C1676 1.414 . S
C1675 C1678 1.499 . S
C1676 H1656 0.950 . S
C1676 C1675 1.414 . S
C1676 C1677 1.374 . S
C1677 H1657 0.950 . S
C1677 C1673 1.385 . S
C1677 C1676 1.374 . S
C1678 C1675 1.499 . S
C1678 C1679 1.373 . S
C1678 C1680 1.389 . S
C1679 H1658 0.950 . S
C1679 C1678 1.373 . S
C1679 C1695 1.377 . S
C1680 C1678 1.389 . S
C1680 C1681 1.524 . S
C1680 C1694 1.377 . S
C1681 C1680 1.524 . S
C1681 C1682 1.397 . S
C1681 C1686 1.363 . S
C1682 H1659 0.950 . S
C1682 C1681 1.397 . S
C1682 C1683 1.334 . S
C1683 H1660 0.950 . S
C1683 C1682 1.334 . S
C1683 C1684 1.287 . S
C1684 C1683 1.287 . S
C1684 C1685 1.524 . S
C1684 H1703 0.913 . S
C1685 H1661 0.950 . S
C1685 C1684 1.524 . S
C1685 C1686 1.415 . S
C1686 H1662 0.950 . S
C1686 C1681 1.363 . S
C1686 C1685 1.415 . S
C1687 H1663 0.951 . S
C1687 C1688 1.366 . S
C1687 C1689 1.388 . S
C1688 C1687 1.366 . S
C1688 C1692 1.385 . S
C1689 H1664 0.951 . S
C1689 C1687 1.388 . S
C1689 C1690 1.366 . S
C1690 C1689 1.366 . S
C1690 C1691 1.414 . S
C1690 C1693 1.499 . S
C1691 H1665 0.950 . S
C1691 C1690 1.414 . S
C1691 C1692 1.374 . S
C1692 H1666 0.950 . S
C1692 C1688 1.385 . S
C1692 C1691 1.374 . S
C1693 C1690 1.499 . S
C1693 C1694 1.373 . S
C1693 C1695 1.389 . S
C1694 H1667 0.950 . S
C1694 C1680 1.377 . S
C1694 C1693 1.373 . S
C1695 C1679 1.377 . S
C1695 C1693 1.389 . S
C1695 C1696 1.524 . S
C1696 C1695 1.524 . S
C1696 C1697 1.397 . S
C1696 C1701 1.363 . S
C1697 H1668 0.950 . S
C1697 C1696 1.397 . S
C1697 C1698 1.334 . S
C1698 H1669 0.950 . S
C1698 C1697 1.334 . S
C1698 C1699 1.287 . S
C1699 C1698 1.287 . S
C1699 C1700 1.524 . S
C1699 H1702 0.999 . S
C1700 H1670 0.950 . S
C1700 C1699 1.524 . S
C1700 C1701 1.415 . S
C1701 H1671 0.950 . S
C1701 C1696 1.363 . S
C1701 C1700 1.415 . S
H1702 C1699 0.999 . S
H1703 C1684 0.913 . S
H1704 C1722 0.951 . S
H1705 C1724 0.951 . S
H1706 C1726 0.950 . S
H1707 C1727 0.950 . S
H1708 C1729 0.950 . S
H1709 C1732 0.950 . S
H1710 C1733 0.950 . S
H1711 C1735 0.950 1_655 S
H1712 C1736 0.950 . S
H1713 C1737 0.951 . S
H1714 C1739 0.951 . S
H1715 C1741 0.950 . S
H1716 C1742 0.950 . S
H1717 C1744 0.950 . S
H1718 C1747 0.950 . S
H1719 C1748 0.950 . S
H1720 C1750 0.950 . S
H1721 C1751 0.950 . S
C1722 H1704 0.951 . S
C1722 C1723 1.366 . S
C1722 C1724 1.388 . S
C1723 C1722 1.366 . S
C1723 C1727 1.385 . S
C1724 H1705 0.951 . S
C1724 C1722 1.388 . S
C1724 C1725 1.366 . S
C1725 C1724 1.366 . S
C1725 C1726 1.414 . S
C1725 C1728 1.499 . S
C1726 H1706 0.950 . S
C1726 C1725 1.414 . S
C1726 C1727 1.374 . S
C1727 H1707 0.950 . S
C1727 C1723 1.385 . S
C1727 C1726 1.374 . S
C1728 C1725 1.499 . S
C1728 C1729 1.373 . S
C1728 C1730 1.389 . S
C1729 H1708 0.950 . S
C1729 C1728 1.373 . S
C1729 C1745 1.377 . S
C1730 C1728 1.389 . S
C1730 C1731 1.524 . S
C1730 C1744 1.377 . S
C1731 C1730 1.524 . S
C1731 C1732 1.397 . S
C1731 C1736 1.363 . S
C1732 H1709 0.950 . S
C1732 C1731 1.397 . S
C1732 C1733 1.334 . S
C1733 H1710 0.950 . S
C1733 C1732 1.334 . S
C1733 C1734 1.287 . S
C1734 C1733 1.287 . S
C1734 C1735 1.524 . S
C1734 H1753 0.913 . S
C1735 H1711 0.950 1_455 S
C1735 C1734 1.524 . S
C1735 C1736 1.415 . S
C1736 H1712 0.950 . S
C1736 C1731 1.363 . S
C1736 C1735 1.415 . S
C1737 H1713 0.951 . S
C1737 C1738 1.366 . S
C1737 C1739 1.388 . S
C1738 C1737 1.366 . S
C1738 C1742 1.385 . S
C1739 H1714 0.951 . S
C1739 C1737 1.388 . S
C1739 C1740 1.366 . S
C1740 C1739 1.366 . S
C1740 C1741 1.414 . S
C1740 C1743 1.499 . S
C1741 H1715 0.950 . S
C1741 C1740 1.414 . S
C1741 C1742 1.374 . S
C1742 H1716 0.950 . S
C1742 C1738 1.385 . S
C1742 C1741 1.374 . S
C1743 C1740 1.499 . S
C1743 C1744 1.373 . S
C1743 C1745 1.389 . S
C1744 H1717 0.950 . S
C1744 C1730 1.377 . S
C1744 C1743 1.373 . S
C1745 C1729 1.377 . S
C1745 C1743 1.389 . S
C1745 C1746 1.524 . S
C1746 C1745 1.524 . S
C1746 C1747 1.397 . S
C1746 C1751 1.363 . S
C1747 H1718 0.950 . S
C1747 C1746 1.397 . S
C1747 C1748 1.334 . S
C1748 H1719 0.950 . S
C1748 C1747 1.334 . S
C1748 C1749 1.287 . S
C1749 C1748 1.287 . S
C1749 C1750 1.524 . S
C1749 H1752 0.999 . S
C1750 H1720 0.950 . S
C1750 C1749 1.524 . S
C1750 C1751 1.415 . S
C1751 H1721 0.950 . S
C1751 C1746 1.363 . S
C1751 C1750 1.415 . S
H1752 C1749 0.999 . S
H1753 C1734 0.913 . S
H1754 C1772 0.951 . S
H1755 C1774 0.951 . S
H1756 C1776 0.950 . S
H1757 C1777 0.950 . S
H1758 C1779 0.950 . S
H1759 C1782 0.950 . S
H1760 C1783 0.950 . S
H1761 C1785 0.950 . S
H1762 C1786 0.950 . S
H1763 C1787 0.951 . S
H1764 C1789 0.951 . S
H1765 C1791 0.950 . S
H1766 C1792 0.950 . S
H1767 C1794 0.950 . S
H1768 C1797 0.950 . S
H1769 C1798 0.950 . S
H1770 C1800 0.950 . S
H1771 C1801 0.950 . S
C1772 H1754 0.951 . S
C1772 C1773 1.366 . S
C1772 C1774 1.388 . S
C1773 C1772 1.366 . S
C1773 C1777 1.385 . S
C1774 H1755 0.951 . S
C1774 C1772 1.388 . S
C1774 C1775 1.366 . S
C1775 C1774 1.366 . S
C1775 C1776 1.414 . S
C1775 C1778 1.499 . S
C1776 H1756 0.950 . S
C1776 C1775 1.414 . S
C1776 C1777 1.374 . S
C1777 H1757 0.950 . S
C1777 C1773 1.385 . S
C1777 C1776 1.374 . S
C1778 C1775 1.499 . S
C1778 C1779 1.373 . S
C1778 C1780 1.389 . S
C1779 H1758 0.950 . S
C1779 C1778 1.373 . S
C1779 C1795 1.377 . S
C1780 C1778 1.389 . S
C1780 C1781 1.524 . S
C1780 C1794 1.377 . S
C1781 C1780 1.524 . S
C1781 C1782 1.397 . S
C1781 C1786 1.363 . S
C1782 H1759 0.950 . S
C1782 C1781 1.397 . S
C1782 C1783 1.334 . S
C1783 H1760 0.950 . S
C1783 C1782 1.334 . S
C1783 C1784 1.287 . S
C1784 C1783 1.287 . S
C1784 C1785 1.524 . S
C1784 H1803 0.913 . S
C1785 H1761 0.950 . S
C1785 C1784 1.524 . S
C1785 C1786 1.415 . S
C1786 H1762 0.950 . S
C1786 C1781 1.363 . S
C1786 C1785 1.415 . S
C1787 H1763 0.951 . S
C1787 C1788 1.366 . S
C1787 C1789 1.388 . S
C1788 C1787 1.366 . S
C1788 C1792 1.385 . S
C1789 H1764 0.951 . S
C1789 C1787 1.388 . S
C1789 C1790 1.366 . S
C1790 C1789 1.366 . S
C1790 C1791 1.414 . S
C1790 C1793 1.499 . S
C1791 H1765 0.950 . S
C1791 C1790 1.414 . S
C1791 C1792 1.374 . S
C1792 H1766 0.950 . S
C1792 C1788 1.385 . S
C1792 C1791 1.374 . S
C1793 C1790 1.499 . S
C1793 C1794 1.373 . S
C1793 C1795 1.389 . S
C1794 H1767 0.950 . S
C1794 C1780 1.377 . S
C1794 C1793 1.373 . S
C1795 C1779 1.377 . S
C1795 C1793 1.389 . S
C1795 C1796 1.524 . S
C1796 C1795 1.524 . S
C1796 C1797 1.397 . S
C1796 C1801 1.363 . S
C1797 H1768 0.950 . S
C1797 C1796 1.397 . S
C1797 C1798 1.334 . S
C1798 H1769 0.950 . S
C1798 C1797 1.334 . S
C1798 C1799 1.287 . S
C1799 C1798 1.287 . S
C1799 C1800 1.524 . S
C1799 H1802 0.999 . S
C1800 H1770 0.950 . S
C1800 C1799 1.524 . S
C1800 C1801 1.415 . S
C1801 H1771 0.950 . S
C1801 C1796 1.363 . S
C1801 C1800 1.415 . S
H1802 C1799 0.999 . S
H1803 C1784 0.913 . S
H1804 C1822 0.951 . S
H1805 C1824 0.951 . S
H1806 C1826 0.950 . S
H1807 C1827 0.950 . S
H1808 C1829 0.950 . S
H1809 C1832 0.950 . S
H1810 C1833 0.950 . S
H1811 C1835 0.950 . S
H1812 C1836 0.950 . S
H1813 C1837 0.951 . S
H1814 C1839 0.951 . S
H1815 C1841 0.950 . S
H1816 C1842 0.950 . S
H1817 C1844 0.950 . S
H1818 C1847 0.950 . S
H1819 C1848 0.950 . S
H1820 C1850 0.950 . S
H1821 C1851 0.950 . S
C1822 H1804 0.951 . S
C1822 C1823 1.366 . S
C1822 C1824 1.388 . S
C1823 C1822 1.366 . S
C1823 C1827 1.385 . S
C1824 H1805 0.951 . S
C1824 C1822 1.388 . S
C1824 C1825 1.366 . S
C1825 C1824 1.366 . S
C1825 C1826 1.414 . S
C1825 C1828 1.499 . S
C1826 H1806 0.950 . S
C1826 C1825 1.414 . S
C1826 C1827 1.374 . S
C1827 H1807 0.950 . S
C1827 C1823 1.385 . S
C1827 C1826 1.374 . S
C1828 C1825 1.499 . S
C1828 C1829 1.373 . S
C1828 C1830 1.389 . S
C1829 H1808 0.950 . S
C1829 C1828 1.373 . S
C1829 C1845 1.377 . S
C1830 C1828 1.389 . S
C1830 C1831 1.524 . S
C1830 C1844 1.377 . S
C1831 C1830 1.524 . S
C1831 C1832 1.397 . S
C1831 C1836 1.363 . S
C1832 H1809 0.950 . S
C1832 C1831 1.397 . S
C1832 C1833 1.334 . S
C1833 H1810 0.950 . S
C1833 C1832 1.334 . S
C1833 C1834 1.287 . S
C1834 C1833 1.287 . S
C1834 C1835 1.524 . S
C1834 H1853 0.913 . S
C1835 H1811 0.950 . S
C1835 C1834 1.524 . S
C1835 C1836 1.415 . S
C1836 H1812 0.950 . S
C1836 C1831 1.363 . S
C1836 C1835 1.415 . S
C1837 H1813 0.951 . S
C1837 C1838 1.366 . S
C1837 C1839 1.388 . S
C1838 C1837 1.366 . S
C1838 C1842 1.385 . S
C1839 H1814 0.951 . S
C1839 C1837 1.388 . S
C1839 C1840 1.366 . S
C1840 C1839 1.366 . S
C1840 C1841 1.414 . S
C1840 C1843 1.499 . S
C1841 H1815 0.950 . S
C1841 C1840 1.414 . S
C1841 C1842 1.374 . S
C1842 H1816 0.950 . S
C1842 C1838 1.385 . S
C1842 C1841 1.374 . S
C1843 C1840 1.499 . S
C1843 C1844 1.373 . S
C1843 C1845 1.389 . S
C1844 H1817 0.950 . S
C1844 C1830 1.377 . S
C1844 C1843 1.373 . S
C1845 C1829 1.377 . S
C1845 C1843 1.389 . S
C1845 C1846 1.524 . S
C1846 C1845 1.524 . S
C1846 C1847 1.397 . S
C1846 C1851 1.363 . S
C1847 H1818 0.950 . S
C1847 C1846 1.397 . S
C1847 C1848 1.334 . S
C1848 H1819 0.950 . S
C1848 C1847 1.334 . S
C1848 C1849 1.287 . S
C1849 C1848 1.287 . S
C1849 C1850 1.524 . S
C1849 H1852 0.999 . S
C1850 H1820 0.950 . S
C1850 C1849 1.524 . S
C1850 C1851 1.415 . S
C1851 H1821 0.950 . S
C1851 C1846 1.363 . S
C1851 C1850 1.415 . S
H1852 C1849 0.999 . S
H1853 C1834 0.913 . S
H1854 C1872 0.951 . S
H1855 C1874 0.951 . S
H1856 C1876 0.950 . S
H1857 C1877 0.950 . S
H1858 C1879 0.950 . S
H1859 C1882 0.950 . S
H1860 C1883 0.950 . S
H1861 C1885 0.950 . S
H1862 C1886 0.950 . S
H1863 C1887 0.951 . S
H1864 C1889 0.951 . S
H1865 C1891 0.950 . S
H1866 C1892 0.950 . S
H1867 C1894 0.950 . S
H1868 C1897 0.950 . S
H1869 C1898 0.950 . S
H1870 C1900 0.950 . S
H1871 C1901 0.950 . S
C1872 H1854 0.951 . S
C1872 C1873 1.366 . S
C1872 C1874 1.388 . S
C1873 C1872 1.366 . S
C1873 C1877 1.385 . S
C1874 H1855 0.951 . S
C1874 C1872 1.388 . S
C1874 C1875 1.366 . S
C1875 C1874 1.366 . S
C1875 C1876 1.414 . S
C1875 C1878 1.499 . S
C1876 H1856 0.950 . S
C1876 C1875 1.414 . S
C1876 C1877 1.374 . S
C1877 H1857 0.950 . S
C1877 C1873 1.385 . S
C1877 C1876 1.374 . S
C1878 C1875 1.499 . S
C1878 C1879 1.373 . S
C1878 C1880 1.389 . S
C1879 H1858 0.950 . S
C1879 C1878 1.373 . S
C1879 C1895 1.377 . S
C1880 C1878 1.389 . S
C1880 C1881 1.524 . S
C1880 C1894 1.377 . S
C1881 C1880 1.524 . S
C1881 C1882 1.397 . S
C1881 C1886 1.363 . S
C1882 H1859 0.950 . S
C1882 C1881 1.397 . S
C1882 C1883 1.334 . S
C1883 H1860 0.950 . S
C1883 C1882 1.334 . S
C1883 C1884 1.287 . S
C1884 C1883 1.287 . S
C1884 C1885 1.524 . S
C1884 H1903 0.913 . S
C1885 H1861 0.950 . S
C1885 C1884 1.524 . S
C1885 C1886 1.415 . S
C1886 H1862 0.950 . S
C1886 C1881 1.363 . S
C1886 C1885 1.415 . S
C1887 H1863 0.951 . S
C1887 C1888 1.366 . S
C1887 C1889 1.388 . S
C1888 C1887 1.366 . S
C1888 C1892 1.385 . S
C1889 H1864 0.951 . S
C1889 C1887 1.388 . S
C1889 C1890 1.366 . S
C1890 C1889 1.366 . S
C1890 C1891 1.414 . S
C1890 C1893 1.499 . S
C1891 H1865 0.950 . S
C1891 C1890 1.414 . S
C1891 C1892 1.374 . S
C1892 H1866 0.950 . S
C1892 C1888 1.385 . S
C1892 C1891 1.374 . S
C1893 C1890 1.499 . S
C1893 C1894 1.373 . S
C1893 C1895 1.389 . S
C1894 H1867 0.950 . S
C1894 C1880 1.377 . S
C1894 C1893 1.373 . S
C1895 C1879 1.377 . S
C1895 C1893 1.389 . S
C1895 C1896 1.524 . S
C1896 C1895 1.524 . S
C1896 C1897 1.397 . S
C1896 C1901 1.363 . S
C1897 H1868 0.950 . S
C1897 C1896 1.397 . S
C1897 C1898 1.334 . S
C1898 H1869 0.950 . S
C1898 C1897 1.334 . S
C1898 C1899 1.287 . S
C1899 C1898 1.287 . S
C1899 C1900 1.524 . S
C1899 H1902 0.999 . S
C1900 H1870 0.950 . S
C1900 C1899 1.524 . S
C1900 C1901 1.415 . S
C1901 H1871 0.950 . S
C1901 C1896 1.363 . S
C1901 C1900 1.415 . S
H1902 C1899 0.999 . S
H1903 C1884 0.913 . S
H1904 C1922 0.951 . S
H1905 C1924 0.951 . S
H1906 C1926 0.950 . S
H1907 C1927 0.950 . S
H1908 C1929 0.950 . S
H1909 C1932 0.950 . S
H1910 C1933 0.950 . S
H1911 C1935 0.950 . S
H1912 C1936 0.950 . S
H1913 C1937 0.951 . S
H1914 C1939 0.951 . S
H1915 C1941 0.950 . S
H1916 C1942 0.950 . S
H1917 C1944 0.950 . S
H1918 C1947 0.950 . S
H1919 C1948 0.950 . S
H1920 C1950 0.950 . S
H1921 C1951 0.950 . S
C1922 H1904 0.951 . S
C1922 C1923 1.366 1_565 S
C1922 C1924 1.388 . S
C1923 C1922 1.366 1_545 S
C1923 C1927 1.385 . S
C1924 H1905 0.951 . S
C1924 C1922 1.388 . S
C1924 C1925 1.366 1_565 S
C1925 C1924 1.366 1_545 S
C1925 C1926 1.414 . S
C1925 C1928 1.499 . S
C1926 H1906 0.950 . S
C1926 C1925 1.414 . S
C1926 C1927 1.374 . S
C1927 H1907 0.950 . S
C1927 C1923 1.385 . S
C1927 C1926 1.374 . S
C1928 C1925 1.499 . S
C1928 C1929 1.373 . S
C1928 C1930 1.389 1_545 S
C1929 H1908 0.950 . S
C1929 C1928 1.373 . S
C1929 C1945 1.377 . S
C1930 C1928 1.389 1_565 S
C1930 C1931 1.524 . S
C1930 C1944 1.377 . S
C1931 C1930 1.524 . S
C1931 C1932 1.397 . S
C1931 C1936 1.363 . S
C1932 H1909 0.950 . S
C1932 C1931 1.397 . S
C1932 C1933 1.334 . S
C1933 H1910 0.950 . S
C1933 C1932 1.334 . S
C1933 C1934 1.287 . S
C1934 C1933 1.287 . S
C1934 C1935 1.524 . S
C1934 H1953 0.913 . S
C1935 H1911 0.950 . S
C1935 C1934 1.524 . S
C1935 C1936 1.415 . S
C1936 H1912 0.950 . S
C1936 C1931 1.363 . S
C1936 C1935 1.415 . S
C1937 H1913 0.951 . S
C1937 C1938 1.366 . S
C1937 C1939 1.388 . S
C1938 C1937 1.366 . S
C1938 C1942 1.385 1_455 S
C1939 H1914 0.951 . S
C1939 C1937 1.388 . S
C1939 C1940 1.366 1_455 S
C1940 C1939 1.366 1_655 S
C1940 C1941 1.414 . S
C1940 C1943 1.499 . S
C1941 H1915 0.950 . S
C1941 C1940 1.414 . S
C1941 C1942 1.374 . S
C1942 H1916 0.950 . S
C1942 C1938 1.385 1_655 S
C1942 C1941 1.374 . S
C1943 C1940 1.499 . S
C1943 C1944 1.373 1_545 S
C1943 C1945 1.389 . S
C1944 H1917 0.950 . S
C1944 C1930 1.377 . S
C1944 C1943 1.373 1_565 S
C1945 C1929 1.377 . S
C1945 C1943 1.389 . S
C1945 C1946 1.524 1_655 S
C1946 C1945 1.524 1_455 S
C1946 C1947 1.397 1_455 S
C1946 C1951 1.363 . S
C1947 H1918 0.950 . S
C1947 C1946 1.397 1_655 S
C1947 C1948 1.334 1_655 S
C1948 H1919 0.950 . S
C1948 C1947 1.334 1_455 S
C1948 C1949 1.287 . S
C1949 C1948 1.287 . S
C1949 C1950 1.524 . S
C1949 H1952 0.999 . S
C1950 H1920 0.950 . S
C1950 C1949 1.524 . S
C1950 C1951 1.415 . S
C1951 H1921 0.950 . S
C1951 C1946 1.363 . S
C1951 C1950 1.415 . S
H1952 C1949 0.999 . S
H1953 C1934 0.913 . S
H1954 C1972 0.951 . S
H1955 C1974 0.951 . S
H1956 C1976 0.950 . S
H1957 C1977 0.950 . S
H1958 C1979 0.950 . S
H1959 C1982 0.950 . S
H1960 C1983 0.950 . S
H1961 C1985 0.950 . S
H1962 C1986 0.950 . S
H1963 C1987 0.951 . S
H1964 C1989 0.951 . S
H1965 C1991 0.950 . S
H1966 C1992 0.950 . S
H1967 C1994 0.950 . S
H1968 C1997 0.950 . S
H1969 C1998 0.950 . S
H1970 C2000 0.950 . S
H1971 C2001 0.950 . S
C1972 H1954 0.951 . S
C1972 C1973 1.366 . S
C1972 C1974 1.388 . S
C1973 C1972 1.366 . S
C1973 C1977 1.385 . S
C1974 H1955 0.951 . S
C1974 C1972 1.388 . S
C1974 C1975 1.366 . S
C1975 C1974 1.366 . S
C1975 C1976 1.414 . S
C1975 C1978 1.499 . S
C1976 H1956 0.950 . S
C1976 C1975 1.414 . S
C1976 C1977 1.374 . S
C1977 H1957 0.950 . S
C1977 C1973 1.385 . S
C1977 C1976 1.374 . S
C1978 C1975 1.499 . S
C1978 C1979 1.373 . S
C1978 C1980 1.389 . S
C1979 H1958 0.950 . S
C1979 C1978 1.373 . S
C1979 C1995 1.377 . S
C1980 C1978 1.389 . S
C1980 C1981 1.524 . S
C1980 C1994 1.377 . S
C1981 C1980 1.524 . S
C1981 C1982 1.397 . S
C1981 C1986 1.363 . S
C1982 H1959 0.950 . S
C1982 C1981 1.397 . S
C1982 C1983 1.334 . S
C1983 H1960 0.950 . S
C1983 C1982 1.334 . S
C1983 C1984 1.287 . S
C1984 C1983 1.287 . S
C1984 C1985 1.524 . S
C1984 H2003 0.913 . S
C1985 H1961 0.950 . S
C1985 C1984 1.524 . S
C1985 C1986 1.415 . S
C1986 H1962 0.950 . S
C1986 C1981 1.363 . S
C1986 C1985 1.415 . S
C1987 H1963 0.951 . S
C1987 C1988 1.366 . S
C1987 C1989 1.388 . S
C1988 C1987 1.366 . S
C1988 C1992 1.385 . S
C1989 H1964 0.951 . S
C1989 C1987 1.388 . S
C1989 C1990 1.366 . S
C1990 C1989 1.366 . S
C1990 C1991 1.414 . S
C1990 C1993 1.499 . S
C1991 H1965 0.950 . S
C1991 C1990 1.414 . S
C1991 C1992 1.374 . S
C1992 H1966 0.950 . S
C1992 C1988 1.385 . S
C1992 C1991 1.374 . S
C1993 C1990 1.499 . S
C1993 C1994 1.373 . S
C1993 C1995 1.389 . S
C1994 H1967 0.950 . S
C1994 C1980 1.377 . S
C1994 C1993 1.373 . S
C1995 C1979 1.377 . S
C1995 C1993 1.389 . S
C1995 C1996 1.524 . S
C1996 C1995 1.524 . S
C1996 C1997 1.397 . S
C1996 C2001 1.363 . S
C1997 H1968 0.950 . S
C1997 C1996 1.397 . S
C1997 C1998 1.334 . S
C1998 H1969 0.950 . S
C1998 C1997 1.334 . S
C1998 C1999 1.287 . S
C1999 C1998 1.287 . S
C1999 C2000 1.524 . S
C1999 H2002 0.999 . S
C2000 H1970 0.950 . S
C2000 C1999 1.524 . S
C2000 C2001 1.415 . S
C2001 H1971 0.950 . S
C2001 C1996 1.363 . S
C2001 C2000 1.415 . S
H2002 C1999 0.999 . S
H2003 C1984 0.913 . S
H2004 C2022 0.951 . S
H2005 C2024 0.951 . S
H2006 C2026 0.950 . S
H2007 C2027 0.966 . S
H2008 C2029 0.950 . S
H2009 C2032 0.950 . S
H2010 C2033 0.950 . S
H2011 C2035 0.950 . S
H2012 C2036 0.950 1_545 S
H2013 C2037 0.951 . S
H2014 C2039 0.951 . S
H2015 C2041 0.950 . S
H2016 C2042 0.950 . S
H2017 C2044 0.944 1_565 S
H2018 C2047 0.950 . S
H2019 C2048 0.950 . S
H2020 C2050 0.950 . S
H2021 C2051 0.950 . S
C2022 H2004 0.951 . S
C2022 C2023 1.366 . S
C2022 C2024 1.388 . S
C2023 C2022 1.366 . S
C2023 C2027 1.385 . S
C2024 H2005 0.951 . S
C2024 C2022 1.388 . S
C2024 C2025 1.366 . S
C2025 C2024 1.366 . S
C2025 C2026 1.414 . S
C2025 C2028 1.499 . S
C2026 H2006 0.950 . S
C2026 C2025 1.414 . S
C2026 C2027 1.374 . S
C2027 H2007 0.966 . S
C2027 C2023 1.385 . S
C2027 C2026 1.374 . S
C2028 C2025 1.499 . S
C2028 C2029 1.373 . S
C2028 C2030 1.389 . S
C2029 H2008 0.950 . S
C2029 C2028 1.373 . S
C2029 C2045 1.377 . S
C2030 C2028 1.389 . S
C2030 C2031 1.524 1_545 S
C2030 C2044 1.377 . S
C2031 C2030 1.524 1_565 S
C2031 C2032 1.397 . S
C2031 C2036 1.363 . S
C2032 H2009 0.950 . S
C2032 C2031 1.397 . S
C2032 C2033 1.334 . S
C2033 H2010 0.950 . S
C2033 C2032 1.334 . S
C2033 C2034 1.287 . S
C2034 C2033 1.287 . S
C2034 C2035 1.524 . S
C2034 H2053 0.913 . S
C2035 H2011 0.950 . S
C2035 C2034 1.524 . S
C2035 C2036 1.415 . S
C2036 H2012 0.950 1_565 S
C2036 C2031 1.363 . S
C2036 C2035 1.415 . S
C2037 H2013 0.951 . S
C2037 C2038 1.366 . S
C2037 C2039 1.388 . S
C2038 C2037 1.366 . S
C2038 C2042 1.385 . S
C2039 H2014 0.951 . S
C2039 C2037 1.388 . S
C2039 C2040 1.366 . S
C2040 C2039 1.366 . S
C2040 C2041 1.414 . S
C2040 C2043 1.499 . S
C2041 H2015 0.950 . S
C2041 C2040 1.414 . S
C2041 C2042 1.374 . S
C2042 H2016 0.950 . S
C2042 C2038 1.385 . S
C2042 C2041 1.374 . S
C2043 C2040 1.499 . S
C2043 C2044 1.373 . S
C2043 C2045 1.389 . S
C2044 H2017 0.944 1_545 S
C2044 C2030 1.377 . S
C2044 C2043 1.373 . S
C2045 C2029 1.377 . S
C2045 C2043 1.389 . S
C2045 C2046 1.524 . S
C2046 C2045 1.524 . S
C2046 C2047 1.397 . S
C2046 C2051 1.363 . S
C2047 H2018 0.950 . S
C2047 C2046 1.397 . S
C2047 C2048 1.334 . S
C2048 H2019 0.950 . S
C2048 C2047 1.334 . S
C2048 C2049 1.287 . S
C2049 C2048 1.287 . S
C2049 C2050 1.524 . S
C2049 H2052 0.999 . S
C2050 H2020 0.950 . S
C2050 C2049 1.524 . S
C2050 C2051 1.415 . S
C2051 H2021 0.950 . S
C2051 C2046 1.363 . S
C2051 C2050 1.415 . S
H2052 C2049 0.999 . S
H2053 C2034 0.913 . S
H2054 C2072 0.951 . S
H2055 C2074 0.951 . S
H2056 C2076 0.950 . S
H2057 C2077 0.950 . S
H2058 C2079 0.950 . S
H2059 C2082 0.950 . S
H2060 C2083 0.950 . S
H2061 C2085 0.950 . S
H2062 C2086 0.950 . S
H2063 C2087 0.951 . S
H2064 C2089 0.951 . S
H2065 C2091 0.950 . S
H2066 C2092 0.950 . S
H2067 C2094 0.950 . S
H2068 C2097 0.950 . S
H2069 C2098 0.950 . S
H2070 C2100 0.950 . S
H2071 C2101 0.950 . S
C2072 H2054 0.951 . S
C2072 C2073 1.366 . S
C2072 C2074 1.388 . S
C2073 C2072 1.366 . S
C2073 C2077 1.385 . S
C2074 H2055 0.951 . S
C2074 C2072 1.388 . S
C2074 C2075 1.366 . S
C2075 C2074 1.366 . S
C2075 C2076 1.414 . S
C2075 C2078 1.499 . S
C2076 H2056 0.950 . S
C2076 C2075 1.414 . S
C2076 C2077 1.374 . S
C2077 H2057 0.950 . S
C2077 C2073 1.385 . S
C2077 C2076 1.374 . S
C2078 C2075 1.499 . S
C2078 C2079 1.373 . S
C2078 C2080 1.389 . S
C2079 H2058 0.950 . S
C2079 C2078 1.373 . S
C2079 C2095 1.377 . S
C2080 C2078 1.389 . S
C2080 C2081 1.524 . S
C2080 C2094 1.377 . S
C2081 C2080 1.524 . S
C2081 C2082 1.397 . S
C2081 C2086 1.363 . S
C2082 H2059 0.950 . S
C2082 C2081 1.397 . S
C2082 C2083 1.334 . S
C2083 H2060 0.950 . S
C2083 C2082 1.334 . S
C2083 C2084 1.287 . S
C2084 C2083 1.287 . S
C2084 C2085 1.524 . S
C2084 H2103 0.913 . S
C2085 H2061 0.950 . S
C2085 C2084 1.524 . S
C2085 C2086 1.415 . S
C2086 H2062 0.950 . S
C2086 C2081 1.363 . S
C2086 C2085 1.415 . S
C2087 H2063 0.951 . S
C2087 C2088 1.366 . S
C2087 C2089 1.388 . S
C2088 C2087 1.366 . S
C2088 C2092 1.385 . S
C2089 H2064 0.951 . S
C2089 C2087 1.388 . S
C2089 C2090 1.366 . S
C2090 C2089 1.366 . S
C2090 C2091 1.414 . S
C2090 C2093 1.499 . S
C2091 H2065 0.950 . S
C2091 C2090 1.414 . S
C2091 C2092 1.374 . S
C2092 H2066 0.950 . S
C2092 C2088 1.385 . S
C2092 C2091 1.374 . S
C2093 C2090 1.499 . S
C2093 C2094 1.373 . S
C2093 C2095 1.389 . S
C2094 H2067 0.950 . S
C2094 C2080 1.377 . S
C2094 C2093 1.373 . S
C2095 C2079 1.377 . S
C2095 C2093 1.389 . S
C2095 C2096 1.524 . S
C2096 C2095 1.524 . S
C2096 C2097 1.397 . S
C2096 C2101 1.363 . S
C2097 H2068 0.950 . S
C2097 C2096 1.397 . S
C2097 C2098 1.334 . S
C2098 H2069 0.950 . S
C2098 C2097 1.334 . S
C2098 C2099 1.287 . S
C2099 C2098 1.287 . S
C2099 C2100 1.524 . S
C2099 H2102 0.999 . S
C2100 H2070 0.950 . S
C2100 C2099 1.524 . S
C2100 C2101 1.415 . S
C2101 H2071 0.950 . S
C2101 C2096 1.363 . S
C2101 C2100 1.415 . S
H2102 C2099 0.999 . S
H2103 C2084 0.913 . S
H2104 C2122 0.951 . S
H2105 C2124 0.951 . S
H2106 C2126 0.950 1_565 S
H2107 C2127 0.950 1_565 S
H2108 C2129 0.950 . S
H2109 C2132 0.950 . S
H2110 C2133 0.945 1_655 S
H2111 C2135 0.956 . S
H2112 C2136 0.950 . S
H2113 C2137 0.952 . S
H2114 C2139 0.950 1_565 S
H2115 C2141 0.950 . S
H2116 C2142 0.950 . S
H2117 C2144 0.913 1_455 S
H2118 C2147 0.950 . S
H2119 C2148 0.950 . S
H2120 C2150 0.950 . S
H2121 C2151 0.950 . S
C2122 H2104 0.951 . S
C2122 C2123 1.366 . S
C2122 C2124 1.388 . S
C2123 C2122 1.366 . S
C2123 C2127 1.385 . S
C2124 H2105 0.951 . S
C2124 C2122 1.388 . S
C2124 C2125 1.366 . S
C2125 C2124 1.366 . S
C2125 C2126 1.414 . S
C2125 C2128 1.499 . S
C2126 H2106 0.950 1_545 S
C2126 C2125 1.414 . S
C2126 C2127 1.374 . S
C2127 H2107 0.950 1_545 S
C2127 C2123 1.385 . S
C2127 C2126 1.374 . S
C2128 C2125 1.499 . S
C2128 C2129 1.373 . S
C2128 C2130 1.389 . S
C2129 H2108 0.950 . S
C2129 C2128 1.373 . S
C2129 C2145 1.377 . S
C2130 C2128 1.389 . S
C2130 C2131 1.524 1_645 S
C2130 C2144 1.388 . S
C2131 C2130 1.524 1_465 S
C2131 C2132 1.397 1_455 S
C2131 C2136 1.363 1_565 S
C2132 H2109 0.950 . S
C2132 C2131 1.397 1_655 S
C2132 C2133 1.321 1_655 S
C2133 H2110 0.945 1_455 S
C2133 C2132 1.321 1_455 S
C2133 C2134 1.306 . S
C2134 C2133 1.306 . S
C2134 C2135 1.524 . S
C2134 H2153 0.913 . S
C2135 H2111 0.956 . S
C2135 C2134 1.524 . S
C2135 C2136 1.415 1_565 S
C2136 H2112 0.950 . S
C2136 C2131 1.363 1_545 S
C2136 C2135 1.415 1_545 S
C2137 H2113 0.952 . S
C2137 C2138 1.366 1_655 S
C2137 C2139 1.388 . S
C2138 C2137 1.366 1_455 S
C2138 C2142 1.385 . S
C2139 H2114 0.950 1_545 S
C2139 C2137 1.388 . S
C2139 C2140 1.366 . S
C2140 C2139 1.366 . S
C2140 C2141 1.414 1_655 S
C2140 C2143 1.499 . S
C2141 H2115 0.950 . S
C2141 C2140 1.414 1_455 S
C2141 C2142 1.374 . S
C2142 H2116 0.950 . S
C2142 C2138 1.385 . S
C2142 C2141 1.374 . S
C2143 C2140 1.499 . S
C2143 C2144 1.400 . S
C2143 C2145 1.389 . S
C2144 H2117 0.913 1_655 S
C2144 C2130 1.388 . S
C2144 C2143 1.400 . S
C2145 C2129 1.377 . S
C2145 C2143 1.389 . S
C2145 C2146 1.524 . S
C2146 C2145 1.524 . S
C2146 C2147 1.397 . S
C2146 C2151 1.363 . S
C2147 H2118 0.950 . S
C2147 C2146 1.397 . S
C2147 C2148 1.334 . S
C2148 H2119 0.950 . S
C2148 C2147 1.334 . S
C2148 C2149 1.287 . S
C2149 C2148 1.287 . S
C2149 C2150 1.524 . S
C2149 H2152 0.999 . S
C2150 H2120 0.950 . S
C2150 C2149 1.524 . S
C2150 C2151 1.415 . S
C2151 H2121 0.950 . S
C2151 C2146 1.363 . S
C2151 C2150 1.415 . S
H2152 C2149 0.999 . S
H2153 C2134 0.913 . S
H2154 C2172 0.951 . S
H2155 C2174 0.951 . S
H2156 C2176 0.950 . S
H2157 C2177 0.950 . S
H2158 C2179 0.950 . S
H2159 C2182 0.950 . S
H2160 C2183 0.950 . S
H2161 C2185 0.950 . S
H2162 C2186 0.950 . S
H2163 C2187 0.951 . S
H2164 C2189 0.951 . S
H2165 C2191 0.950 . S
H2166 C2192 0.950 . S
H2167 C2194 0.950 . S
H2168 C2197 0.950 . S
H2169 C2198 0.950 . S
H2170 C2200 0.950 . S
H2171 C2201 0.950 . S
C2172 H2154 0.951 . S
C2172 C2173 1.366 . S
C2172 C2174 1.388 . S
C2173 C2172 1.366 . S
C2173 C2177 1.385 . S
C2174 H2155 0.951 . S
C2174 C2172 1.388 . S
C2174 C2175 1.366 . S
C2175 C2174 1.366 . S
C2175 C2176 1.414 . S
C2175 C2178 1.499 . S
C2176 H2156 0.950 . S
C2176 C2175 1.414 . S
C2176 C2177 1.374 . S
C2177 H2157 0.950 . S
C2177 C2173 1.385 . S
C2177 C2176 1.374 . S
C2178 C2175 1.499 . S
C2178 C2179 1.373 . S
C2178 C2180 1.389 . S
C2179 H2158 0.950 . S
C2179 C2178 1.373 . S
C2179 C2195 1.377 . S
C2180 C2178 1.389 . S
C2180 C2181 1.524 . S
C2180 C2194 1.377 . S
C2181 C2180 1.524 . S
C2181 C2182 1.397 . S
C2181 C2186 1.363 . S
C2182 H2159 0.950 . S
C2182 C2181 1.397 . S
C2182 C2183 1.334 . S
C2183 H2160 0.950 . S
C2183 C2182 1.334 . S
C2183 C2184 1.287 . S
C2184 C2183 1.287 . S
C2184 C2185 1.524 . S
C2184 H2203 0.913 . S
C2185 H2161 0.950 . S
C2185 C2184 1.524 . S
C2185 C2186 1.415 . S
C2186 H2162 0.950 . S
C2186 C2181 1.363 . S
C2186 C2185 1.415 . S
C2187 H2163 0.951 . S
C2187 C2188 1.366 . S
C2187 C2189 1.388 . S
C2188 C2187 1.366 . S
C2188 C2192 1.385 . S
C2189 H2164 0.951 . S
C2189 C2187 1.388 . S
C2189 C2190 1.366 . S
C2190 C2189 1.366 . S
C2190 C2191 1.414 . S
C2190 C2193 1.499 . S
C2191 H2165 0.950 . S
C2191 C2190 1.414 . S
C2191 C2192 1.374 . S
C2192 H2166 0.950 . S
C2192 C2188 1.385 . S
C2192 C2191 1.374 . S
C2193 C2190 1.499 . S
C2193 C2194 1.373 . S
C2193 C2195 1.389 . S
C2194 H2167 0.950 . S
C2194 C2180 1.377 . S
C2194 C2193 1.373 . S
C2195 C2179 1.377 . S
C2195 C2193 1.389 . S
C2195 C2196 1.524 . S
C2196 C2195 1.524 . S
C2196 C2197 1.397 . S
C2196 C2201 1.363 . S
C2197 H2168 0.950 . S
C2197 C2196 1.397 . S
C2197 C2198 1.334 . S
C2198 H2169 0.950 . S
C2198 C2197 1.334 . S
C2198 C2199 1.287 . S
C2199 C2198 1.287 . S
C2199 C2200 1.524 . S
C2199 H2202 0.999 . S
C2200 H2170 0.950 . S
C2200 C2199 1.524 . S
C2200 C2201 1.415 . S
C2201 H2171 0.950 . S
C2201 C2196 1.363 . S
C2201 C2200 1.415 . S
H2202 C2199 0.999 . S
H2203 C2184 0.913 . S
H2204 C2222 0.951 . S
H2205 C2224 0.951 . S
H2206 C2226 0.950 1_565 S
H2207 C2227 0.904 1_565 S
H2208 C2229 0.950 . S
H2209 C2232 0.950 . S
H2210 C2233 0.950 . S
H2211 C2235 0.950 . S
H2212 C2236 0.950 . S
H2213 C2237 0.951 . S
H2214 C2239 0.951 . S
H2215 C2241 0.950 . S
H2216 C2242 0.950 . S
H2217 C2244 0.950 . S
H2218 C2247 0.950 . S
H2219 C2248 0.950 . S
H2220 C2250 0.950 . S
H2221 C2251 0.990 . S
C2222 H2204 0.951 . S
C2222 C2223 1.366 . S
C2222 C2224 1.388 . S
C2223 C2222 1.366 . S
C2223 C2227 1.426 . S
C2224 H2205 0.951 . S
C2224 C2222 1.388 . S
C2224 C2225 1.366 . S
C2225 C2224 1.366 . S
C2225 C2226 1.414 . S
C2225 C2228 1.499 . S
C2226 H2206 0.950 1_545 S
C2226 C2225 1.414 . S
C2226 C2227 1.381 . S
C2227 H2207 0.904 1_545 S
C2227 C2223 1.426 . S
C2227 C2226 1.381 . S
C2228 C2225 1.499 . S
C2228 C2229 1.373 . S
C2228 C2230 1.389 . S
C2229 H2208 0.950 . S
C2229 C2228 1.373 . S
C2229 C2245 1.377 . S
C2230 C2228 1.389 . S
C2230 C2231 1.524 . S
C2230 C2244 1.377 . S
C2231 C2230 1.524 . S
C2231 C2232 1.397 . S
C2231 C2236 1.363 . S
C2232 H2209 0.950 . S
C2232 C2231 1.397 . S
C2232 C2233 1.334 . S
C2233 H2210 0.950 . S
C2233 C2232 1.334 . S
C2233 C2234 1.287 . S
C2234 C2233 1.287 . S
C2234 C2235 1.524 . S
C2234 H2253 0.913 . S
C2235 H2211 0.950 . S
C2235 C2234 1.524 . S
C2235 C2236 1.415 . S
C2236 H2212 0.950 . S
C2236 C2231 1.363 . S
C2236 C2235 1.415 . S
C2237 H2213 0.951 . S
C2237 C2238 1.366 . S
C2237 C2239 1.388 . S
C2238 C2237 1.366 . S
C2238 C2242 1.385 . S
C2239 H2214 0.951 . S
C2239 C2237 1.388 . S
C2239 C2240 1.366 . S
C2240 C2239 1.366 . S
C2240 C2241 1.414 . S
C2240 C2243 1.499 . S
C2241 H2215 0.950 . S
C2241 C2240 1.414 . S
C2241 C2242 1.374 . S
C2242 H2216 0.950 . S
C2242 C2238 1.385 . S
C2242 C2241 1.374 . S
C2243 C2240 1.499 . S
C2243 C2244 1.373 . S
C2243 C2245 1.389 . S
C2244 H2217 0.950 . S
C2244 C2230 1.377 . S
C2244 C2243 1.373 . S
C2245 C2229 1.377 . S
C2245 C2243 1.389 . S
C2245 C2246 1.524 . S
C2246 C2245 1.524 . S
C2246 C2247 1.397 . S
C2246 C2251 1.328 1_545 S
C2247 H2218 0.950 . S
C2247 C2246 1.397 . S
C2247 C2248 1.334 . S
C2248 H2219 0.950 . S
C2248 C2247 1.334 . S
C2248 C2249 1.287 . S
C2249 C2248 1.287 . S
C2249 C2250 1.524 1_545 S
C2249 H2252 0.999 . S
C2250 H2220 0.950 . S
C2250 C2249 1.524 1_565 S
C2250 C2251 1.412 . S
C2251 H2221 0.990 . S
C2251 C2246 1.328 1_565 S
C2251 C2250 1.412 . S
H2252 C2249 0.999 . S
H2253 C2234 0.913 . S
H2254 C2272 0.951 . S
H2255 C2274 0.951 . S
H2256 C2276 0.950 . S
H2257 C2277 0.950 . S
H2258 C2279 0.950 . S
H2259 C2282 0.950 . S
H2260 C2283 0.950 . S
H2261 C2285 0.950 . S
H2262 C2286 0.950 . S
H2263 C2287 0.951 . S
H2264 C2289 0.951 . S
H2265 C2291 0.950 . S
H2266 C2292 0.950 . S
H2267 C2294 0.950 . S
H2268 C2297 0.950 . S
H2269 C2298 0.950 . S
H2270 C2300 0.950 . S
H2271 C2301 0.950 . S
C2272 H2254 0.951 . S
C2272 C2273 1.366 . S
C2272 C2274 1.388 . S
C2273 C2272 1.366 . S
C2273 C2277 1.385 . S
C2274 H2255 0.951 . S
C2274 C2272 1.388 . S
C2274 C2275 1.366 . S
C2275 C2274 1.366 . S
C2275 C2276 1.414 . S
C2275 C2278 1.499 . S
C2276 H2256 0.950 . S
C2276 C2275 1.414 . S
C2276 C2277 1.374 . S
C2277 H2257 0.950 . S
C2277 C2273 1.385 . S
C2277 C2276 1.374 . S
C2278 C2275 1.499 . S
C2278 C2279 1.373 . S
C2278 C2280 1.389 . S
C2279 H2258 0.950 . S
C2279 C2278 1.373 . S
C2279 C2295 1.377 . S
C2280 C2278 1.389 . S
C2280 C2281 1.524 . S
C2280 C2294 1.377 . S
C2281 C2280 1.524 . S
C2281 C2282 1.397 . S
C2281 C2286 1.363 . S
C2282 H2259 0.950 . S
C2282 C2281 1.397 . S
C2282 C2283 1.334 . S
C2283 H2260 0.950 . S
C2283 C2282 1.334 . S
C2283 C2284 1.287 . S
C2284 C2283 1.287 . S
C2284 C2285 1.524 . S
C2284 H2303 0.913 . S
C2285 H2261 0.950 . S
C2285 C2284 1.524 . S
C2285 C2286 1.415 . S
C2286 H2262 0.950 . S
C2286 C2281 1.363 . S
C2286 C2285 1.415 . S
C2287 H2263 0.951 . S
C2287 C2288 1.366 . S
C2287 C2289 1.388 . S
C2288 C2287 1.366 . S
C2288 C2292 1.385 . S
C2289 H2264 0.951 . S
C2289 C2287 1.388 . S
C2289 C2290 1.366 . S
C2290 C2289 1.366 . S
C2290 C2291 1.414 . S
C2290 C2293 1.499 . S
C2291 H2265 0.950 . S
C2291 C2290 1.414 . S
C2291 C2292 1.374 . S
C2292 H2266 0.950 . S
C2292 C2288 1.385 . S
C2292 C2291 1.374 . S
C2293 C2290 1.499 . S
C2293 C2294 1.373 . S
C2293 C2295 1.389 . S
C2294 H2267 0.950 . S
C2294 C2280 1.377 . S
C2294 C2293 1.373 . S
C2295 C2279 1.377 . S
C2295 C2293 1.389 . S
C2295 C2296 1.524 . S
C2296 C2295 1.524 . S
C2296 C2297 1.397 . S
C2296 C2301 1.363 . S
C2297 H2268 0.950 . S
C2297 C2296 1.397 . S
C2297 C2298 1.334 . S
C2298 H2269 0.950 . S
C2298 C2297 1.334 . S
C2298 C2299 1.287 . S
C2299 C2298 1.287 . S
C2299 C2300 1.524 . S
C2299 H2302 0.999 . S
C2300 H2270 0.950 . S
C2300 C2299 1.524 . S
C2300 C2301 1.415 . S
C2301 H2271 0.950 . S
C2301 C2296 1.363 . S
C2301 C2300 1.415 . S
H2302 C2299 0.999 . S
H2303 C2284 0.913 . S
H2304 C2322 0.951 . S
H2305 C2324 0.951 . S
H2306 C2326 0.950 . S
H2307 C2327 0.950 . S
H2308 C2329 0.950 . S
H2309 C2332 0.950 . S
H2310 C2333 0.950 . S
H2311 C2335 0.950 . S
H2312 C2336 0.950 . S
H2313 C2337 0.951 . S
H2314 C2339 0.951 . S
H2315 C2341 0.950 . S
H2316 C2342 0.950 . S
H2317 C2344 0.950 . S
H2318 C2347 0.950 . S
H2319 C2348 0.950 . S
H2320 C2350 0.950 . S
H2321 C2351 0.950 . S
C2322 H2304 0.951 . S
C2322 C2323 1.369 . S
C2322 C2324 1.388 . S
C2323 C2322 1.369 . S
C2323 C2327 1.379 1_556 S
C2324 H2305 0.951 . S
C2324 C2322 1.388 . S
C2324 C2325 1.366 1_556 S
C2325 C2324 1.366 1_554 S
C2325 C2326 1.414 . S
C2325 C2328 1.499 . S
C2326 H2306 0.950 . S
C2326 C2325 1.414 . S
C2326 C2327 1.374 . S
C2327 H2307 0.950 . S
C2327 C2323 1.379 1_554 S
C2327 C2326 1.374 . S
C2328 C2325 1.499 . S
C2328 C2329 1.373 . S
C2328 C2330 1.389 . S
C2329 H2308 0.950 . S
C2329 C2328 1.373 . S
C2329 C2345 1.377 . S
C2330 C2328 1.389 . S
C2330 C2331 1.524 . S
C2330 C2344 1.377 . S
C2331 C2330 1.524 . S
C2331 C2332 1.397 . S
C2331 C2336 1.363 . S
C2332 H2309 0.950 . S
C2332 C2331 1.397 . S
C2332 C2333 1.334 . S
C2333 H2310 0.950 . S
C2333 C2332 1.334 . S
C2333 C2334 1.287 . S
C2334 C2333 1.287 . S
C2334 C2335 1.524 . S
C2334 H2353 0.913 . S
C2335 H2311 0.950 . S
C2335 C2334 1.524 . S
C2335 C2336 1.415 . S
C2336 H2312 0.950 . S
C2336 C2331 1.363 . S
C2336 C2335 1.415 . S
C2337 H2313 0.951 . S
C2337 C2338 1.366 . S
C2337 C2339 1.388 . S
C2338 C2337 1.366 . S
C2338 C2342 1.385 . S
C2339 H2314 0.951 . S
C2339 C2337 1.388 . S
C2339 C2340 1.366 . S
C2340 C2339 1.366 . S
C2340 C2341 1.414 . S
C2340 C2343 1.499 . S
C2341 H2315 0.950 . S
C2341 C2340 1.414 . S
C2341 C2342 1.374 . S
C2342 H2316 0.950 . S
C2342 C2338 1.385 . S
C2342 C2341 1.374 . S
C2343 C2340 1.499 . S
C2343 C2344 1.373 . S
C2343 C2345 1.389 . S
C2344 H2317 0.950 . S
C2344 C2330 1.377 . S
C2344 C2343 1.373 . S
C2345 C2329 1.377 . S
C2345 C2343 1.389 . S
C2345 C2346 1.524 . S
C2346 C2345 1.524 . S
C2346 C2347 1.397 . S
C2346 C2351 1.363 . S
C2347 H2318 0.950 . S
C2347 C2346 1.397 . S
C2347 C2348 1.334 . S
C2348 H2319 0.950 . S
C2348 C2347 1.334 . S
C2348 C2349 1.287 . S
C2349 C2348 1.287 . S
C2349 C2350 1.524 . S
C2349 H2352 0.999 . S
C2350 H2320 0.950 . S
C2350 C2349 1.524 . S
C2350 C2351 1.415 . S
C2351 H2321 0.950 . S
C2351 C2346 1.363 . S
C2351 C2350 1.415 . S
H2352 C2349 0.999 . S
H2353 C2334 0.913 . S
H2354 C2372 0.951 1_556 S
H2355 C2374 0.936 1_556 S
H2356 C2376 0.950 . S
H2357 C2377 0.950 . S
H2358 C2379 0.950 . S
H2359 C2382 0.950 . S
H2360 C2383 0.950 . S
H2361 C2385 0.950 . S
H2362 C2386 0.950 . S
H2363 C2387 0.951 . S
H2364 C2389 0.951 . S
H2365 C2391 0.943 1_556 S
H2366 C2392 0.968 . S
H2367 C2394 0.950 . S
H2368 C2397 0.950 . S
H2369 C2398 0.950 . S
H2370 C2400 0.950 . S
H2371 C2401 0.950 . S
C2372 H2354 0.951 1_554 S
C2372 C2373 1.366 . S
C2372 C2374 1.388 . S
C2373 C2372 1.366 . S
C2373 C2377 1.385 . S
C2374 H2355 0.936 1_554 S
C2374 C2372 1.388 . S
C2374 C2375 1.366 . S
C2375 C2374 1.366 . S
C2375 C2376 1.414 . S
C2375 C2378 1.499 . S
C2376 H2356 0.950 . S
C2376 C2375 1.414 . S
C2376 C2377 1.374 . S
C2377 H2357 0.950 . S
C2377 C2373 1.385 . S
C2377 C2376 1.374 . S
C2378 C2375 1.499 . S
C2378 C2379 1.373 . S
C2378 C2380 1.389 . S
C2379 H2358 0.950 . S
C2379 C2378 1.373 . S
C2379 C2395 1.377 . S
C2380 C2378 1.389 . S
C2380 C2381 1.524 . S
C2380 C2394 1.377 . S
C2381 C2380 1.524 . S
C2381 C2382 1.397 . S
C2381 C2386 1.363 . S
C2382 H2359 0.950 . S
C2382 C2381 1.397 . S
C2382 C2383 1.334 . S
C2383 H2360 0.950 . S
C2383 C2382 1.334 . S
C2383 C2384 1.287 . S
C2384 C2383 1.287 . S
C2384 C2385 1.524 . S
C2384 H2403 0.913 . S
C2385 H2361 0.950 . S
C2385 C2384 1.524 . S
C2385 C2386 1.415 . S
C2386 H2362 0.950 . S
C2386 C2381 1.363 . S
C2386 C2385 1.415 . S
C2387 H2363 0.951 . S
C2387 C2388 1.366 . S
C2387 C2389 1.388 . S
C2388 C2387 1.366 . S
C2388 C2392 1.385 . S
C2389 H2364 0.951 . S
C2389 C2387 1.388 . S
C2389 C2390 1.366 . S
C2390 C2389 1.366 . S
C2390 C2391 1.414 . S
C2390 C2393 1.499 . S
C2391 H2365 0.943 1_554 S
C2391 C2390 1.414 . S
C2391 C2392 1.374 . S
C2392 H2366 0.968 . S
C2392 C2388 1.385 . S
C2392 C2391 1.374 . S
C2393 C2390 1.499 . S
C2393 C2394 1.373 . S
C2393 C2395 1.389 . S
C2394 H2367 0.950 . S
C2394 C2380 1.377 . S
C2394 C2393 1.373 . S
C2395 C2379 1.377 . S
C2395 C2393 1.389 . S
C2395 C2396 1.524 . S
C2396 C2395 1.524 . S
C2396 C2397 1.397 1_554 S
C2396 C2401 1.363 . S
C2397 H2368 0.950 . S
C2397 C2396 1.397 1_556 S
C2397 C2398 1.334 . S
C2398 H2369 0.950 . S
C2398 C2397 1.334 . S
C2398 C2399 1.284 . S
C2399 C2398 1.284 . S
C2399 C2400 1.527 1_556 S
C2399 H2402 0.999 . S
C2400 H2370 0.950 . S
C2400 C2399 1.527 1_554 S
C2400 C2401 1.415 . S
C2401 H2371 0.950 . S
C2401 C2396 1.363 . S
C2401 C2400 1.415 . S
H2402 C2399 0.999 . S
H2403 C2384 0.913 . S
H2404 C2422 0.951 . S
H2405 C2424 0.951 . S
H2406 C2426 0.950 . S
H2407 C2427 0.950 . S
H2408 C2429 0.950 . S
H2409 C2432 0.950 . S
H2410 C2433 0.950 . S
H2411 C2435 0.950 . S
H2412 C2436 0.950 . S
H2413 C2437 0.951 . S
H2414 C2439 0.951 . S
H2415 C2441 0.950 . S
H2416 C2442 0.950 . S
H2417 C2444 0.950 . S
H2418 C2447 0.950 . S
H2419 C2448 0.950 . S
H2420 C2450 0.950 . S
H2421 C2451 0.950 . S
C2422 H2404 0.951 . S
C2422 C2423 1.366 . S
C2422 C2424 1.388 . S
C2423 C2422 1.366 . S
C2423 C2427 1.385 . S
C2424 H2405 0.951 . S
C2424 C2422 1.388 . S
C2424 C2425 1.366 . S
C2425 C2424 1.366 . S
C2425 C2426 1.414 . S
C2425 C2428 1.499 . S
C2426 H2406 0.950 . S
C2426 C2425 1.414 . S
C2426 C2427 1.374 . S
C2427 H2407 0.950 . S
C2427 C2423 1.385 . S
C2427 C2426 1.374 . S
C2428 C2425 1.499 . S
C2428 C2429 1.373 . S
C2428 C2430 1.389 . S
C2429 H2408 0.950 . S
C2429 C2428 1.373 . S
C2429 C2445 1.377 . S
C2430 C2428 1.389 . S
C2430 C2431 1.524 . S
C2430 C2444 1.377 . S
C2431 C2430 1.524 . S
C2431 C2432 1.397 . S
C2431 C2436 1.363 . S
C2432 H2409 0.950 . S
C2432 C2431 1.397 . S
C2432 C2433 1.334 . S
C2433 H2410 0.950 . S
C2433 C2432 1.334 . S
C2433 C2434 1.287 . S
C2434 C2433 1.287 . S
C2434 C2435 1.524 . S
C2434 H2453 0.913 . S
C2435 H2411 0.950 . S
C2435 C2434 1.524 . S
C2435 C2436 1.415 . S
C2436 H2412 0.950 . S
C2436 C2431 1.363 . S
C2436 C2435 1.415 . S
C2437 H2413 0.951 . S
C2437 C2438 1.366 . S
C2437 C2439 1.388 . S
C2438 C2437 1.366 . S
C2438 C2442 1.385 . S
C2439 H2414 0.951 . S
C2439 C2437 1.388 . S
C2439 C2440 1.366 . S
C2440 C2439 1.366 . S
C2440 C2441 1.414 . S
C2440 C2443 1.499 . S
C2441 H2415 0.950 . S
C2441 C2440 1.414 . S
C2441 C2442 1.374 . S
C2442 H2416 0.950 . S
C2442 C2438 1.385 . S
C2442 C2441 1.374 . S
C2443 C2440 1.499 . S
C2443 C2444 1.373 . S
C2443 C2445 1.389 . S
C2444 H2417 0.950 . S
C2444 C2430 1.377 . S
C2444 C2443 1.373 . S
C2445 C2429 1.377 . S
C2445 C2443 1.389 . S
C2445 C2446 1.524 . S
C2446 C2445 1.524 . S
C2446 C2447 1.397 . S
C2446 C2451 1.363 . S
C2447 H2418 0.950 . S
C2447 C2446 1.397 . S
C2447 C2448 1.334 . S
C2448 H2419 0.950 . S
C2448 C2447 1.334 . S
C2448 C2449 1.287 . S
C2449 C2448 1.287 . S
C2449 C2450 1.524 . S
C2449 H2452 0.999 . S
C2450 H2420 0.950 . S
C2450 C2449 1.524 . S
C2450 C2451 1.415 . S
C2451 H2421 0.950 . S
C2451 C2446 1.363 . S
C2451 C2450 1.415 . S
H2452 C2449 0.999 . S
H2453 C2434 0.913 . S
H2454 C2472 0.951 . S
H2455 C2474 0.951 . S
H2456 C2476 0.950 . S
H2457 C2477 0.950 . S
H2458 C2479 0.950 . S
H2459 C2482 0.950 . S
H2460 C2483 0.950 . S
H2461 C2485 0.950 . S
H2462 C2486 0.950 . S
H2463 C2487 0.951 . S
H2464 C2489 0.951 . S
H2465 C2491 0.950 . S
H2466 C2492 0.950 . S
H2467 C2494 0.950 . S
H2468 C2497 0.950 . S
H2469 C2498 0.950 . S
H2470 C2500 0.950 . S
H2471 C2501 0.950 . S
C2472 H2454 0.951 . S
C2472 C2473 1.366 . S
C2472 C2474 1.388 . S
C2473 C2472 1.366 . S
C2473 C2477 1.385 . S
C2474 H2455 0.951 . S
C2474 C2472 1.388 . S
C2474 C2475 1.366 . S
C2475 C2474 1.366 . S
C2475 C2476 1.414 . S
C2475 C2478 1.499 . S
C2476 H2456 0.950 . S
C2476 C2475 1.414 . S
C2476 C2477 1.374 . S
C2477 H2457 0.950 . S
C2477 C2473 1.385 . S
C2477 C2476 1.374 . S
C2478 C2475 1.499 . S
C2478 C2479 1.373 . S
C2478 C2480 1.389 . S
C2479 H2458 0.950 . S
C2479 C2478 1.373 . S
C2479 C2495 1.377 . S
C2480 C2478 1.389 . S
C2480 C2481 1.524 . S
C2480 C2494 1.377 . S
C2481 C2480 1.524 . S
C2481 C2482 1.397 . S
C2481 C2486 1.363 . S
C2482 H2459 0.950 . S
C2482 C2481 1.397 . S
C2482 C2483 1.334 . S
C2483 H2460 0.950 . S
C2483 C2482 1.334 . S
C2483 C2484 1.287 . S
C2484 C2483 1.287 . S
C2484 C2485 1.524 . S
C2484 H2503 0.913 . S
C2485 H2461 0.950 . S
C2485 C2484 1.524 . S
C2485 C2486 1.415 . S
C2486 H2462 0.950 . S
C2486 C2481 1.363 . S
C2486 C2485 1.415 . S
C2487 H2463 0.951 . S
C2487 C2488 1.366 . S
C2487 C2489 1.388 . S
C2488 C2487 1.366 . S
C2488 C2492 1.385 . S
C2489 H2464 0.951 . S
C2489 C2487 1.388 . S
C2489 C2490 1.366 . S
C2490 C2489 1.366 . S
C2490 C2491 1.414 . S
C2490 C2493 1.499 . S
C2491 H2465 0.950 . S
C2491 C2490 1.414 . S
C2491 C2492 1.374 . S
C2492 H2466 0.950 . S
C2492 C2488 1.385 . S
C2492 C2491 1.374 . S
C2493 C2490 1.499 . S
C2493 C2494 1.373 . S
C2493 C2495 1.389 . S
C2494 H2467 0.950 . S
C2494 C2480 1.377 . S
C2494 C2493 1.373 . S
C2495 C2479 1.377 . S
C2495 C2493 1.389 . S
C2495 C2496 1.524 . S
C2496 C2495 1.524 . S
C2496 C2497 1.397 . S
C2496 C2501 1.363 . S
C2497 H2468 0.950 . S
C2497 C2496 1.397 . S
C2497 C2498 1.334 . S
C2498 H2469 0.950 . S
C2498 C2497 1.334 . S
C2498 C2499 1.287 . S
C2499 C2498 1.287 . S
C2499 C2500 1.524 . S
C2499 H2502 0.999 . S
C2500 H2470 0.950 . S
C2500 C2499 1.524 . S
C2500 C2501 1.415 . S
C2501 H2471 0.950 . S
C2501 C2496 1.363 . S
C2501 C2500 1.415 . S
H2502 C2499 0.999 . S
H2503 C2484 0.913 . S
H2504 C2522 0.951 . S
H2505 C2524 0.951 . S
H2506 C2526 0.950 . S
H2507 C2527 0.950 . S
H2508 C2529 0.950 . S
H2509 C2532 0.950 . S
H2510 C2533 0.950 . S
H2511 C2535 0.950 . S
H2512 C2536 0.950 . S
H2513 C2537 0.951 . S
H2514 C2539 0.951 . S
H2515 C2541 0.950 . S
H2516 C2542 0.950 . S
H2517 C2544 0.950 . S
H2518 C2547 0.950 . S
H2519 C2548 0.950 . S
H2520 C2550 0.950 . S
H2521 C2551 0.950 . S
C2522 H2504 0.951 . S
C2522 C2523 1.366 . S
C2522 C2524 1.388 . S
C2523 C2522 1.366 . S
C2523 C2527 1.385 . S
C2524 H2505 0.951 . S
C2524 C2522 1.388 . S
C2524 C2525 1.366 . S
C2525 C2524 1.366 . S
C2525 C2526 1.414 . S
C2525 C2528 1.499 . S
C2526 H2506 0.950 . S
C2526 C2525 1.414 . S
C2526 C2527 1.374 . S
C2527 H2507 0.950 . S
C2527 C2523 1.385 . S
C2527 C2526 1.374 . S
C2528 C2525 1.499 . S
C2528 C2529 1.373 . S
C2528 C2530 1.389 . S
C2529 H2508 0.950 . S
C2529 C2528 1.373 . S
C2529 C2545 1.377 . S
C2530 C2528 1.389 . S
C2530 C2531 1.524 . S
C2530 C2544 1.377 . S
C2531 C2530 1.524 . S
C2531 C2532 1.397 . S
C2531 C2536 1.363 . S
C2532 H2509 0.950 . S
C2532 C2531 1.397 . S
C2532 C2533 1.334 . S
C2533 H2510 0.950 . S
C2533 C2532 1.334 . S
C2533 C2534 1.287 . S
C2534 C2533 1.287 . S
C2534 C2535 1.524 . S
C2534 H2553 0.913 . S
C2535 H2511 0.950 . S
C2535 C2534 1.524 . S
C2535 C2536 1.415 . S
C2536 H2512 0.950 . S
C2536 C2531 1.363 . S
C2536 C2535 1.415 . S
C2537 H2513 0.951 . S
C2537 C2538 1.366 . S
C2537 C2539 1.388 . S
C2538 C2537 1.366 . S
C2538 C2542 1.385 . S
C2539 H2514 0.951 . S
C2539 C2537 1.388 . S
C2539 C2540 1.366 . S
C2540 C2539 1.366 . S
C2540 C2541 1.414 . S
C2540 C2543 1.499 . S
C2541 H2515 0.950 . S
C2541 C2540 1.414 . S
C2541 C2542 1.374 . S
C2542 H2516 0.950 . S
C2542 C2538 1.385 . S
C2542 C2541 1.374 . S
C2543 C2540 1.499 . S
C2543 C2544 1.373 . S
C2543 C2545 1.389 . S
C2544 H2517 0.950 . S
C2544 C2530 1.377 . S
C2544 C2543 1.373 . S
C2545 C2529 1.377 . S
C2545 C2543 1.389 . S
C2545 C2546 1.524 . S
C2546 C2545 1.524 . S
C2546 C2547 1.397 . S
C2546 C2551 1.363 . S
C2547 H2518 0.950 . S
C2547 C2546 1.397 . S
C2547 C2548 1.334 . S
C2548 H2519 0.950 . S
C2548 C2547 1.334 . S
C2548 C2549 1.287 . S
C2549 C2548 1.287 . S
C2549 C2550 1.524 . S
C2549 H2552 0.999 . S
C2550 H2520 0.950 . S
C2550 C2549 1.524 . S
C2550 C2551 1.415 . S
C2551 H2521 0.950 . S
C2551 C2546 1.363 . S
C2551 C2550 1.415 . S
H2552 C2549 0.999 . S
H2553 C2534 0.913 . S
H2554 C2572 0.951 . S
H2555 C2574 0.951 . S
H2556 C2576 0.950 . S
H2557 C2577 0.950 . S
H2558 C2579 0.950 . S
H2559 C2582 0.950 . S
H2560 C2583 0.950 . S
H2561 C2585 0.950 . S
H2562 C2586 0.950 . S
H2563 C2587 0.951 . S
H2564 C2589 0.951 . S
H2565 C2591 0.950 . S
H2566 C2592 0.950 . S
H2567 C2594 0.950 . S
H2568 C2597 0.950 . S
H2569 C2598 0.950 . S
H2570 C2600 0.950 . S
H2571 C2601 0.950 . S
C2572 H2554 0.951 . S
C2572 C2573 1.366 . S
C2572 C2574 1.388 . S
C2573 C2572 1.366 . S
C2573 C2577 1.385 . S
C2574 H2555 0.951 . S
C2574 C2572 1.388 . S
C2574 C2575 1.366 . S
C2575 C2574 1.366 . S
C2575 C2576 1.414 . S
C2575 C2578 1.499 . S
C2576 H2556 0.950 . S
C2576 C2575 1.414 . S
C2576 C2577 1.374 . S
C2577 H2557 0.950 . S
C2577 C2573 1.385 . S
C2577 C2576 1.374 . S
C2578 C2575 1.499 . S
C2578 C2579 1.373 . S
C2578 C2580 1.389 . S
C2579 H2558 0.950 . S
C2579 C2578 1.373 . S
C2579 C2595 1.377 . S
C2580 C2578 1.389 . S
C2580 C2581 1.524 . S
C2580 C2594 1.377 . S
C2581 C2580 1.524 . S
C2581 C2582 1.397 . S
C2581 C2586 1.363 . S
C2582 H2559 0.950 . S
C2582 C2581 1.397 . S
C2582 C2583 1.334 . S
C2583 H2560 0.950 . S
C2583 C2582 1.334 . S
C2583 C2584 1.287 . S
C2584 C2583 1.287 . S
C2584 C2585 1.524 . S
C2584 H2603 0.913 . S
C2585 H2561 0.950 . S
C2585 C2584 1.524 . S
C2585 C2586 1.415 . S
C2586 H2562 0.950 . S
C2586 C2581 1.363 . S
C2586 C2585 1.415 . S
C2587 H2563 0.951 . S
C2587 C2588 1.366 . S
C2587 C2589 1.388 . S
C2588 C2587 1.366 . S
C2588 C2592 1.385 . S
C2589 H2564 0.951 . S
C2589 C2587 1.388 . S
C2589 C2590 1.366 . S
C2590 C2589 1.366 . S
C2590 C2591 1.414 . S
C2590 C2593 1.499 . S
C2591 H2565 0.950 . S
C2591 C2590 1.414 . S
C2591 C2592 1.374 . S
C2592 H2566 0.950 . S
C2592 C2588 1.385 . S
C2592 C2591 1.374 . S
C2593 C2590 1.499 . S
C2593 C2594 1.373 . S
C2593 C2595 1.389 . S
C2594 H2567 0.950 . S
C2594 C2580 1.377 . S
C2594 C2593 1.373 . S
C2595 C2579 1.377 . S
C2595 C2593 1.389 . S
C2595 C2596 1.524 . S
C2596 C2595 1.524 . S
C2596 C2597 1.397 . S
C2596 C2601 1.363 . S
C2597 H2568 0.950 . S
C2597 C2596 1.397 . S
C2597 C2598 1.334 . S
C2598 H2569 0.950 . S
C2598 C2597 1.334 . S
C2598 C2599 1.287 . S
C2599 C2598 1.287 . S
C2599 C2600 1.524 . S
C2599 H2602 0.999 . S
C2600 H2570 0.950 . S
C2600 C2599 1.524 . S
C2600 C2601 1.415 . S
C2601 H2571 0.950 . S
C2601 C2596 1.363 . S
C2601 C2600 1.415 . S
H2602 C2599 0.999 . S
H2603 C2584 0.913 . S
H2604 C2622 0.951 . S
H2605 C2624 0.951 . S
H2606 C2626 0.950 . S
H2607 C2627 0.950 . S
H2608 C2629 0.950 . S
H2609 C2632 0.950 . S
H2610 C2633 0.950 . S
H2611 C2635 0.950 . S
H2612 C2636 0.950 . S
H2613 C2637 0.951 . S
H2614 C2639 0.951 . S
H2615 C2641 0.950 . S
H2616 C2642 0.950 . S
H2617 C2644 0.950 . S
H2618 C2647 0.950 . S
H2619 C2648 0.950 . S
H2620 C2650 0.950 . S
H2621 C2651 0.950 . S
C2622 H2604 0.951 . S
C2622 C2623 1.366 . S
C2622 C2624 1.388 . S
C2623 C2622 1.366 . S
C2623 C2627 1.385 . S
C2624 H2605 0.951 . S
C2624 C2622 1.388 . S
C2624 C2625 1.366 . S
C2625 C2624 1.366 . S
C2625 C2626 1.414 . S
C2625 C2628 1.499 . S
C2626 H2606 0.950 . S
C2626 C2625 1.414 . S
C2626 C2627 1.374 . S
C2627 H2607 0.950 . S
C2627 C2623 1.385 . S
C2627 C2626 1.374 . S
C2628 C2625 1.499 . S
C2628 C2629 1.373 . S
C2628 C2630 1.389 . S
C2629 H2608 0.950 . S
C2629 C2628 1.373 . S
C2629 C2645 1.377 . S
C2630 C2628 1.389 . S
C2630 C2631 1.524 . S
C2630 C2644 1.377 . S
C2631 C2630 1.524 . S
C2631 C2632 1.397 . S
C2631 C2636 1.363 . S
C2632 H2609 0.950 . S
C2632 C2631 1.397 . S
C2632 C2633 1.334 . S
C2633 H2610 0.950 . S
C2633 C2632 1.334 . S
C2633 C2634 1.287 . S
C2634 C2633 1.287 . S
C2634 C2635 1.524 . S
C2634 H2653 0.913 . S
C2635 H2611 0.950 . S
C2635 C2634 1.524 . S
C2635 C2636 1.415 . S
C2636 H2612 0.950 . S
C2636 C2631 1.363 . S
C2636 C2635 1.415 . S
C2637 H2613 0.951 . S
C2637 C2638 1.366 . S
C2637 C2639 1.388 . S
C2638 C2637 1.366 . S
C2638 C2642 1.385 . S
C2639 H2614 0.951 . S
C2639 C2637 1.388 . S
C2639 C2640 1.366 . S
C2640 C2639 1.366 . S
C2640 C2641 1.414 . S
C2640 C2643 1.499 . S
C2641 H2615 0.950 . S
C2641 C2640 1.414 . S
C2641 C2642 1.374 . S
C2642 H2616 0.950 . S
C2642 C2638 1.385 . S
C2642 C2641 1.374 . S
C2643 C2640 1.499 . S
C2643 C2644 1.373 . S
C2643 C2645 1.389 . S
C2644 H2617 0.950 . S
C2644 C2630 1.377 . S
C2644 C2643 1.373 . S
C2645 C2629 1.377 . S
C2645 C2643 1.389 . S
C2645 C2646 1.524 . S
C2646 C2645 1.524 . S
C2646 C2647 1.397 . S
C2646 C2651 1.363 . S
C2647 H2618 0.950 . S
C2647 C2646 1.397 . S
C2647 C2648 1.334 . S
C2648 H2619 0.950 . S
C2648 C2647 1.334 . S
C2648 C2649 1.287 . S
C2649 C2648 1.287 . S
C2649 C2650 1.524 . S
C2649 H2652 0.999 . S
C2650 H2620 0.950 . S
C2650 C2649 1.524 . S
C2650 C2651 1.415 . S
C2651 H2621 0.950 . S
C2651 C2646 1.363 . S
C2651 C2650 1.415 . S
H2652 C2649 0.999 . S
H2653 C2634 0.913 . S
H2654 C2672 0.951 . S
H2655 C2674 0.951 . S
H2656 C2676 0.950 . S
H2657 C2677 0.950 . S
H2658 C2679 0.950 . S
H2659 C2682 0.950 . S
H2660 C2683 0.950 . S
H2661 C2685 0.950 . S
H2662 C2686 0.950 . S
H2663 C2687 0.951 . S
H2664 C2689 0.951 . S
H2665 C2691 0.950 . S
H2666 C2692 0.950 . S
H2667 C2694 0.950 . S
H2668 C2697 0.950 . S
H2669 C2698 0.950 . S
H2670 C2700 0.950 . S
H2671 C2701 0.950 . S
C2672 H2654 0.951 . S
C2672 C2673 1.366 . S
C2672 C2674 1.388 . S
C2673 C2672 1.366 . S
C2673 C2677 1.385 . S
C2674 H2655 0.951 . S
C2674 C2672 1.388 . S
C2674 C2675 1.366 . S
C2675 C2674 1.366 . S
C2675 C2676 1.414 . S
C2675 C2678 1.499 . S
C2676 H2656 0.950 . S
C2676 C2675 1.414 . S
C2676 C2677 1.374 . S
C2677 H2657 0.950 . S
C2677 C2673 1.385 . S
C2677 C2676 1.374 . S
C2678 C2675 1.499 . S
C2678 C2679 1.373 . S
C2678 C2680 1.389 . S
C2679 H2658 0.950 . S
C2679 C2678 1.373 . S
C2679 C2695 1.377 . S
C2680 C2678 1.389 . S
C2680 C2681 1.524 . S
C2680 C2694 1.377 . S
C2681 C2680 1.524 . S
C2681 C2682 1.397 . S
C2681 C2686 1.363 . S
C2682 H2659 0.950 . S
C2682 C2681 1.397 . S
C2682 C2683 1.334 . S
C2683 H2660 0.950 . S
C2683 C2682 1.334 . S
C2683 C2684 1.287 . S
C2684 C2683 1.287 . S
C2684 C2685 1.524 . S
C2684 H2703 0.913 . S
C2685 H2661 0.950 . S
C2685 C2684 1.524 . S
C2685 C2686 1.415 . S
C2686 H2662 0.950 . S
C2686 C2681 1.363 . S
C2686 C2685 1.415 . S
C2687 H2663 0.951 . S
C2687 C2688 1.366 . S
C2687 C2689 1.388 . S
C2688 C2687 1.366 . S
C2688 C2692 1.385 . S
C2689 H2664 0.951 . S
C2689 C2687 1.388 . S
C2689 C2690 1.366 . S
C2690 C2689 1.366 . S
C2690 C2691 1.414 . S
C2690 C2693 1.499 . S
C2691 H2665 0.950 . S
C2691 C2690 1.414 . S
C2691 C2692 1.374 . S
C2692 H2666 0.950 . S
C2692 C2688 1.385 . S
C2692 C2691 1.374 . S
C2693 C2690 1.499 . S
C2693 C2694 1.373 . S
C2693 C2695 1.389 . S
C2694 H2667 0.950 . S
C2694 C2680 1.377 . S
C2694 C2693 1.373 . S
C2695 C2679 1.377 . S
C2695 C2693 1.389 . S
C2695 C2696 1.524 . S
C2696 C2695 1.524 . S
C2696 C2697 1.397 . S
C2696 C2701 1.363 . S
C2697 H2668 0.950 . S
C2697 C2696 1.397 . S
C2697 C2698 1.334 . S
C2698 H2669 0.950 . S
C2698 C2697 1.334 . S
C2698 C2699 1.287 . S
C2699 C2698 1.287 . S
C2699 C2700 1.524 . S
C2699 H2702 0.999 . S
C2700 H2670 0.950 . S
C2700 C2699 1.524 . S
C2700 C2701 1.415 . S
C2701 H2671 0.950 . S
C2701 C2696 1.363 . S
C2701 C2700 1.415 . S
H2702 C2699 0.999 . S
H2703 C2684 0.913 . S
H2704 C2722 0.951 . S
H2705 C2724 0.951 . S
H2706 C2726 0.950 . S
H2707 C2727 0.950 . S
H2708 C2729 0.950 . S
H2709 C2732 0.950 . S
H2710 C2733 0.950 . S
H2711 C2735 0.950 . S
H2712 C2736 0.950 . S
H2713 C2737 0.951 . S
H2714 C2739 0.951 . S
H2715 C2741 0.950 . S
H2716 C2742 0.950 . S
H2717 C2744 0.950 . S
H2718 C2747 0.950 1_655 S
H2719 C2748 0.950 . S
H2720 C2750 0.950 . S
H2721 C2751 0.950 . S
C2722 H2704 0.951 . S
C2722 C2723 1.366 . S
C2722 C2724 1.388 . S
C2723 C2722 1.366 . S
C2723 C2727 1.385 . S
C2724 H2705 0.951 . S
C2724 C2722 1.388 . S
C2724 C2725 1.366 . S
C2725 C2724 1.366 . S
C2725 C2726 1.414 . S
C2725 C2728 1.499 . S
C2726 H2706 0.950 . S
C2726 C2725 1.414 . S
C2726 C2727 1.374 . S
C2727 H2707 0.950 . S
C2727 C2723 1.385 . S
C2727 C2726 1.374 . S
C2728 C2725 1.499 . S
C2728 C2729 1.373 . S
C2728 C2730 1.389 . S
C2729 H2708 0.950 . S
C2729 C2728 1.373 . S
C2729 C2745 1.377 . S
C2730 C2728 1.389 . S
C2730 C2731 1.524 . S
C2730 C2744 1.377 . S
C2731 C2730 1.524 . S
C2731 C2732 1.397 . S
C2731 C2736 1.363 . S
C2732 H2709 0.950 . S
C2732 C2731 1.397 . S
C2732 C2733 1.334 . S
C2733 H2710 0.950 . S
C2733 C2732 1.334 . S
C2733 C2734 1.287 . S
C2734 C2733 1.287 . S
C2734 C2735 1.524 . S
C2734 H2753 0.913 . S
C2735 H2711 0.950 . S
C2735 C2734 1.524 . S
C2735 C2736 1.415 . S
C2736 H2712 0.950 . S
C2736 C2731 1.363 . S
C2736 C2735 1.415 . S
C2737 H2713 0.951 . S
C2737 C2738 1.366 . S
C2737 C2739 1.388 . S
C2738 C2737 1.366 . S
C2738 C2742 1.385 . S
C2739 H2714 0.951 . S
C2739 C2737 1.388 . S
C2739 C2740 1.366 . S
C2740 C2739 1.366 . S
C2740 C2741 1.414 . S
C2740 C2743 1.499 . S
C2741 H2715 0.950 . S
C2741 C2740 1.414 . S
C2741 C2742 1.374 . S
C2742 H2716 0.950 . S
C2742 C2738 1.385 . S
C2742 C2741 1.374 . S
C2743 C2740 1.499 . S
C2743 C2744 1.373 . S
C2743 C2745 1.389 . S
C2744 H2717 0.950 . S
C2744 C2730 1.377 . S
C2744 C2743 1.373 . S
C2745 C2729 1.377 . S
C2745 C2743 1.389 . S
C2745 C2746 1.524 . S
C2746 C2745 1.524 . S
C2746 C2747 1.400 . S
C2746 C2751 1.363 . S
C2747 H2718 0.950 1_455 S
C2747 C2746 1.400 . S
C2747 C2748 1.331 1_455 S
C2748 H2719 0.950 . S
C2748 C2747 1.331 1_655 S
C2748 C2749 1.287 . S
C2749 C2748 1.287 . S
C2749 C2750 1.524 1_655 S
C2749 H2752 0.999 . S
C2750 H2720 0.950 . S
C2750 C2749 1.524 1_455 S
C2750 C2751 1.415 . S
C2751 H2721 0.950 . S
C2751 C2746 1.363 . S
C2751 C2750 1.415 . S
H2752 C2749 0.999 . S
H2753 C2734 0.913 . S
H2754 C2772 0.951 . S
H2755 C2774 0.951 . S
H2756 C2776 0.950 . S
H2757 C2777 0.950 . S
H2758 C2779 0.950 . S
H2759 C2782 0.950 . S
H2760 C2783 0.950 . S
H2761 C2785 0.950 . S
H2762 C2786 0.950 . S
H2763 C2787 0.951 . S
H2764 C2789 0.951 . S
H2765 C2791 0.950 . S
H2766 C2792 0.950 . S
H2767 C2794 0.950 . S
H2768 C2797 0.950 . S
H2769 C2798 0.950 . S
H2770 C2800 0.950 . S
H2771 C2801 0.950 . S
C2772 H2754 0.951 . S
C2772 C2773 1.366 . S
C2772 C2774 1.388 . S
C2773 C2772 1.366 . S
C2773 C2777 1.385 . S
C2774 H2755 0.951 . S
C2774 C2772 1.388 . S
C2774 C2775 1.366 . S
C2775 C2774 1.366 . S
C2775 C2776 1.414 . S
C2775 C2778 1.499 . S
C2776 H2756 0.950 . S
C2776 C2775 1.414 . S
C2776 C2777 1.374 . S
C2777 H2757 0.950 . S
C2777 C2773 1.385 . S
C2777 C2776 1.374 . S
C2778 C2775 1.499 . S
C2778 C2779 1.373 . S
C2778 C2780 1.389 . S
C2779 H2758 0.950 . S
C2779 C2778 1.373 . S
C2779 C2795 1.377 . S
C2780 C2778 1.389 . S
C2780 C2781 1.524 . S
C2780 C2794 1.377 . S
C2781 C2780 1.524 . S
C2781 C2782 1.397 . S
C2781 C2786 1.363 . S
C2782 H2759 0.950 . S
C2782 C2781 1.397 . S
C2782 C2783 1.334 . S
C2783 H2760 0.950 . S
C2783 C2782 1.334 . S
C2783 C2784 1.287 . S
C2784 C2783 1.287 . S
C2784 C2785 1.524 . S
C2784 H2803 0.913 . S
C2785 H2761 0.950 . S
C2785 C2784 1.524 . S
C2785 C2786 1.415 . S
C2786 H2762 0.950 . S
C2786 C2781 1.363 . S
C2786 C2785 1.415 . S
C2787 H2763 0.951 . S
C2787 C2788 1.366 . S
C2787 C2789 1.388 . S
C2788 C2787 1.366 . S
C2788 C2792 1.385 . S
C2789 H2764 0.951 . S
C2789 C2787 1.388 . S
C2789 C2790 1.366 . S
C2790 C2789 1.366 . S
C2790 C2791 1.414 . S
C2790 C2793 1.499 . S
C2791 H2765 0.950 . S
C2791 C2790 1.414 . S
C2791 C2792 1.374 . S
C2792 H2766 0.950 . S
C2792 C2788 1.385 . S
C2792 C2791 1.374 . S
C2793 C2790 1.499 . S
C2793 C2794 1.373 . S
C2793 C2795 1.389 . S
C2794 H2767 0.950 . S
C2794 C2780 1.377 . S
C2794 C2793 1.373 . S
C2795 C2779 1.377 . S
C2795 C2793 1.389 . S
C2795 C2796 1.524 . S
C2796 C2795 1.524 . S
C2796 C2797 1.397 . S
C2796 C2801 1.363 . S
C2797 H2768 0.950 . S
C2797 C2796 1.397 . S
C2797 C2798 1.334 . S
C2798 H2769 0.950 . S
C2798 C2797 1.334 . S
C2798 C2799 1.287 . S
C2799 C2798 1.287 . S
C2799 C2800 1.524 . S
C2799 H2802 0.999 . S
C2800 H2770 0.950 . S
C2800 C2799 1.524 . S
C2800 C2801 1.415 . S
C2801 H2771 0.950 . S
C2801 C2796 1.363 . S
C2801 C2800 1.415 . S
H2802 C2799 0.999 . S
H2803 C2784 0.913 . S
H2804 C2822 0.951 . S
H2805 C2824 0.951 . S
H2806 C2826 0.950 . S
H2807 C2827 0.950 . S
H2808 C2829 0.950 . S
H2809 C2832 0.950 . S
H2810 C2833 0.950 . S
H2811 C2835 0.950 . S
H2812 C2836 0.950 . S
H2813 C2837 0.951 . S
H2814 C2839 0.951 . S
H2815 C2841 0.950 . S
H2816 C2842 0.950 . S
H2817 C2844 0.950 . S
H2818 C2847 0.950 . S
H2819 C2848 0.950 . S
H2820 C2850 0.950 . S
H2821 C2851 0.950 . S
C2822 H2804 0.951 . S
C2822 C2823 1.366 . S
C2822 C2824 1.388 . S
C2823 C2822 1.366 . S
C2823 C2827 1.385 . S
C2824 H2805 0.951 . S
C2824 C2822 1.388 . S
C2824 C2825 1.366 . S
C2825 C2824 1.366 . S
C2825 C2826 1.414 . S
C2825 C2828 1.499 . S
C2826 H2806 0.950 . S
C2826 C2825 1.414 . S
C2826 C2827 1.374 . S
C2827 H2807 0.950 . S
C2827 C2823 1.385 . S
C2827 C2826 1.374 . S
C2828 C2825 1.499 . S
C2828 C2829 1.373 . S
C2828 C2830 1.389 . S
C2829 H2808 0.950 . S
C2829 C2828 1.373 . S
C2829 C2845 1.377 . S
C2830 C2828 1.389 . S
C2830 C2831 1.524 . S
C2830 C2844 1.377 . S
C2831 C2830 1.524 . S
C2831 C2832 1.397 . S
C2831 C2836 1.363 . S
C2832 H2809 0.950 . S
C2832 C2831 1.397 . S
C2832 C2833 1.334 . S
C2833 H2810 0.950 . S
C2833 C2832 1.334 . S
C2833 C2834 1.287 . S
C2834 C2833 1.287 . S
C2834 C2835 1.524 . S
C2834 H2853 0.913 . S
C2835 H2811 0.950 . S
C2835 C2834 1.524 . S
C2835 C2836 1.415 . S
C2836 H2812 0.950 . S
C2836 C2831 1.363 . S
C2836 C2835 1.415 . S
C2837 H2813 0.951 . S
C2837 C2838 1.366 . S
C2837 C2839 1.388 . S
C2838 C2837 1.366 . S
C2838 C2842 1.385 . S
C2839 H2814 0.951 . S
C2839 C2837 1.388 . S
C2839 C2840 1.366 . S
C2840 C2839 1.366 . S
C2840 C2841 1.414 . S
C2840 C2843 1.499 . S
C2841 H2815 0.950 . S
C2841 C2840 1.414 . S
C2841 C2842 1.374 . S
C2842 H2816 0.950 . S
C2842 C2838 1.385 . S
C2842 C2841 1.374 . S
C2843 C2840 1.499 . S
C2843 C2844 1.373 . S
C2843 C2845 1.389 . S
C2844 H2817 0.950 . S
C2844 C2830 1.377 . S
C2844 C2843 1.373 . S
C2845 C2829 1.377 . S
C2845 C2843 1.389 . S
C2845 C2846 1.524 . S
C2846 C2845 1.524 . S
C2846 C2847 1.397 . S
C2846 C2851 1.363 . S
C2847 H2818 0.950 . S
C2847 C2846 1.397 . S
C2847 C2848 1.334 . S
C2848 H2819 0.950 . S
C2848 C2847 1.334 . S
C2848 C2849 1.287 . S
C2849 C2848 1.287 . S
C2849 C2850 1.524 . S
C2849 H2852 0.999 . S
C2850 H2820 0.950 . S
C2850 C2849 1.524 . S
C2850 C2851 1.415 . S
C2851 H2821 0.950 . S
C2851 C2846 1.363 . S
C2851 C2850 1.415 . S
H2852 C2849 0.999 . S
H2853 C2834 0.913 . S
H2854 C2872 0.951 . S
H2855 C2874 0.951 . S
H2856 C2876 0.950 . S
H2857 C2877 0.950 . S
H2858 C2879 0.950 . S
H2859 C2882 0.950 . S
H2860 C2883 0.950 . S
H2861 C2885 0.950 . S
H2862 C2886 0.950 . S
H2863 C2887 0.951 . S
H2864 C2889 0.951 . S
H2865 C2891 0.950 . S
H2866 C2892 0.950 . S
H2867 C2894 0.950 . S
H2868 C2897 0.950 . S
H2869 C2898 0.950 . S
H2870 C2900 0.950 . S
H2871 C2901 0.950 . S
C2872 H2854 0.951 . S
C2872 C2873 1.366 . S
C2872 C2874 1.388 . S
C2873 C2872 1.366 . S
C2873 C2877 1.385 . S
C2874 H2855 0.951 . S
C2874 C2872 1.388 . S
C2874 C2875 1.366 . S
C2875 C2874 1.366 . S
C2875 C2876 1.414 . S
C2875 C2878 1.499 . S
C2876 H2856 0.950 . S
C2876 C2875 1.414 . S
C2876 C2877 1.374 . S
C2877 H2857 0.950 . S
C2877 C2873 1.385 . S
C2877 C2876 1.374 . S
C2878 C2875 1.499 . S
C2878 C2879 1.373 . S
C2878 C2880 1.389 . S
C2879 H2858 0.950 . S
C2879 C2878 1.373 . S
C2879 C2895 1.377 . S
C2880 C2878 1.389 . S
C2880 C2881 1.524 . S
C2880 C2894 1.377 . S
C2881 C2880 1.524 . S
C2881 C2882 1.397 . S
C2881 C2886 1.363 . S
C2882 H2859 0.950 . S
C2882 C2881 1.397 . S
C2882 C2883 1.334 . S
C2883 H2860 0.950 . S
C2883 C2882 1.334 . S
C2883 C2884 1.287 . S
C2884 C2883 1.287 . S
C2884 C2885 1.524 . S
C2884 H2903 0.913 . S
C2885 H2861 0.950 . S
C2885 C2884 1.524 . S
C2885 C2886 1.415 . S
C2886 H2862 0.950 . S
C2886 C2881 1.363 . S
C2886 C2885 1.415 . S
C2887 H2863 0.951 . S
C2887 C2888 1.366 . S
C2887 C2889 1.388 . S
C2888 C2887 1.366 . S
C2888 C2892 1.385 . S
C2889 H2864 0.951 . S
C2889 C2887 1.388 . S
C2889 C2890 1.366 . S
C2890 C2889 1.366 . S
C2890 C2891 1.414 . S
C2890 C2893 1.499 . S
C2891 H2865 0.950 . S
C2891 C2890 1.414 . S
C2891 C2892 1.374 . S
C2892 H2866 0.950 . S
C2892 C2888 1.385 . S
C2892 C2891 1.374 . S
C2893 C2890 1.499 . S
C2893 C2894 1.373 . S
C2893 C2895 1.389 . S
C2894 H2867 0.950 . S
C2894 C2880 1.377 . S
C2894 C2893 1.373 . S
C2895 C2879 1.377 . S
C2895 C2893 1.389 . S
C2895 C2896 1.524 . S
C2896 C2895 1.524 . S
C2896 C2897 1.397 . S
C2896 C2901 1.363 . S
C2897 H2868 0.950 . S
C2897 C2896 1.397 . S
C2897 C2898 1.334 . S
C2898 H2869 0.950 . S
C2898 C2897 1.334 . S
C2898 C2899 1.287 . S
C2899 C2898 1.287 . S
C2899 C2900 1.524 . S
C2899 H2902 0.999 . S
C2900 H2870 0.950 . S
C2900 C2899 1.524 . S
C2900 C2901 1.415 . S
C2901 H2871 0.950 . S
C2901 C2896 1.363 . S
C2901 C2900 1.415 . S
H2902 C2899 0.999 . S
H2903 C2884 0.913 . S
H2904 C2922 0.951 . S
H2905 C2924 0.951 . S
H2906 C2926 0.950 . S
H2907 C2927 0.950 . S
H2908 C2929 0.950 . S
H2909 C2932 0.950 . S
H2910 C2933 0.950 . S
H2911 C2935 0.950 . S
H2912 C2936 0.950 . S
H2913 C2937 0.951 . S
H2914 C2939 0.951 . S
H2915 C2941 0.950 . S
H2916 C2942 0.950 . S
H2917 C2944 0.950 . S
H2918 C2947 0.950 . S
H2919 C2948 0.950 . S
H2920 C2950 0.950 . S
H2921 C2951 0.950 . S
C2922 H2904 0.951 . S
C2922 C2923 1.366 1_455 S
C2922 C2924 1.388 . S
C2923 C2922 1.366 1_655 S
C2923 C2927 1.385 . S
C2924 H2905 0.951 . S
C2924 C2922 1.388 . S
C2924 C2925 1.359 1_455 S
C2925 C2924 1.359 1_655 S
C2925 C2926 1.424 . S
C2925 C2928 1.499 . S
C2926 H2906 0.950 . S
C2926 C2925 1.424 . S
C2926 C2927 1.374 . S
C2927 H2907 0.950 . S
C2927 C2923 1.385 . S
C2927 C2926 1.374 . S
C2928 C2925 1.499 . S
C2928 C2929 1.397 . S
C2928 C2930 1.365 1_655 S
C2929 H2908 0.950 . S
C2929 C2928 1.397 . S
C2929 C2945 1.377 . S
C2930 C2928 1.365 1_455 S
C2930 C2931 1.524 . S
C2930 C2944 1.377 . S
C2931 C2930 1.524 . S
C2931 C2932 1.397 . S
C2931 C2936 1.363 . S
C2932 H2909 0.950 . S
C2932 C2931 1.397 . S
C2932 C2933 1.334 . S
C2933 H2910 0.950 . S
C2933 C2932 1.334 . S
C2933 C2934 1.287 . S
C2934 C2933 1.287 . S
C2934 C2935 1.524 . S
C2934 H2953 0.913 . S
C2935 H2911 0.950 . S
C2935 C2934 1.524 . S
C2935 C2936 1.415 . S
C2936 H2912 0.950 . S
C2936 C2931 1.363 . S
C2936 C2935 1.415 . S
C2937 H2913 0.951 . S
C2937 C2938 1.364 . S
C2937 C2939 1.388 . S
C2938 C2937 1.364 . S
C2938 C2942 1.386 1_655 S
C2939 H2914 0.951 . S
C2939 C2937 1.388 . S
C2939 C2940 1.366 . S
C2940 C2939 1.366 . S
C2940 C2941 1.414 1_655 S
C2940 C2943 1.499 . S
C2941 H2915 0.950 . S
C2941 C2940 1.414 1_455 S
C2941 C2942 1.374 . S
C2942 H2916 0.950 . S
C2942 C2938 1.386 1_455 S
C2942 C2941 1.374 . S
C2943 C2940 1.499 . S
C2943 C2944 1.373 1_655 S
C2943 C2945 1.389 . S
C2944 H2917 0.950 . S
C2944 C2930 1.377 . S
C2944 C2943 1.373 1_455 S
C2945 C2929 1.377 . S
C2945 C2943 1.389 . S
C2945 C2946 1.524 . S
C2946 C2945 1.524 . S
C2946 C2947 1.397 . S
C2946 C2951 1.363 . S
C2947 H2918 0.950 . S
C2947 C2946 1.397 . S
C2947 C2948 1.334 . S
C2948 H2919 0.950 . S
C2948 C2947 1.334 . S
C2948 C2949 1.287 . S
C2949 C2948 1.287 . S
C2949 C2950 1.524 . S
C2949 H2952 0.999 . S
C2950 H2920 0.950 . S
C2950 C2949 1.524 . S
C2950 C2951 1.415 . S
C2951 H2921 0.950 . S
C2951 C2946 1.363 . S
C2951 C2950 1.415 . S
H2952 C2949 0.999 . S
H2953 C2934 0.913 . S
H2954 C2972 0.951 . S
H2955 C2974 0.951 . S
H2956 C2976 0.950 . S
H2957 C2977 0.950 . S
H2958 C2979 0.950 . S
H2959 C2982 0.950 . S
H2960 C2983 0.950 . S
H2961 C2985 0.950 . S
H2962 C2986 0.950 . S
H2963 C2987 0.951 . S
H2964 C2989 0.951 . S
H2965 C2991 0.950 . S
H2966 C2992 0.950 . S
H2967 C2994 0.950 . S
H2968 C2997 0.950 . S
H2969 C2998 0.950 . S
H2970 C3000 0.950 . S
H2971 C3001 0.950 . S
C2972 H2954 0.951 . S
C2972 C2973 1.366 . S
C2972 C2974 1.388 . S
C2973 C2972 1.366 . S
C2973 C2977 1.385 . S
C2974 H2955 0.951 . S
C2974 C2972 1.388 . S
C2974 C2975 1.366 . S
C2975 C2974 1.366 . S
C2975 C2976 1.414 . S
C2975 C2978 1.499 . S
C2976 H2956 0.950 . S
C2976 C2975 1.414 . S
C2976 C2977 1.374 . S
C2977 H2957 0.950 . S
C2977 C2973 1.385 . S
C2977 C2976 1.374 . S
C2978 C2975 1.499 . S
C2978 C2979 1.373 . S
C2978 C2980 1.389 . S
C2979 H2958 0.950 . S
C2979 C2978 1.373 . S
C2979 C2995 1.377 . S
C2980 C2978 1.389 . S
C2980 C2981 1.524 . S
C2980 C2994 1.377 . S
C2981 C2980 1.524 . S
C2981 C2982 1.397 . S
C2981 C2986 1.363 . S
C2982 H2959 0.950 . S
C2982 C2981 1.397 . S
C2982 C2983 1.334 . S
C2983 H2960 0.950 . S
C2983 C2982 1.334 . S
C2983 C2984 1.287 . S
C2984 C2983 1.287 . S
C2984 C2985 1.524 . S
C2984 H3003 0.913 . S
C2985 H2961 0.950 . S
C2985 C2984 1.524 . S
C2985 C2986 1.415 . S
C2986 H2962 0.950 . S
C2986 C2981 1.363 . S
C2986 C2985 1.415 . S
C2987 H2963 0.951 . S
C2987 C2988 1.366 . S
C2987 C2989 1.388 . S
C2988 C2987 1.366 . S
C2988 C2992 1.385 . S
C2989 H2964 0.951 . S
C2989 C2987 1.388 . S
C2989 C2990 1.366 . S
C2990 C2989 1.366 . S
C2990 C2991 1.414 . S
C2990 C2993 1.499 . S
C2991 H2965 0.950 . S
C2991 C2990 1.414 . S
C2991 C2992 1.374 . S
C2992 H2966 0.950 . S
C2992 C2988 1.385 . S
C2992 C2991 1.374 . S
C2993 C2990 1.499 . S
C2993 C2994 1.373 . S
C2993 C2995 1.389 . S
C2994 H2967 0.950 . S
C2994 C2980 1.377 . S
C2994 C2993 1.373 . S
C2995 C2979 1.377 . S
C2995 C2993 1.389 . S
C2995 C2996 1.524 . S
C2996 C2995 1.524 . S
C2996 C2997 1.397 . S
C2996 C3001 1.363 . S
C2997 H2968 0.950 . S
C2997 C2996 1.397 . S
C2997 C2998 1.334 . S
C2998 H2969 0.950 . S
C2998 C2997 1.334 . S
C2998 C2999 1.287 . S
C2999 C2998 1.287 . S
C2999 C3000 1.524 . S
C2999 H3002 0.999 . S
C3000 H2970 0.950 . S
C3000 C2999 1.524 . S
C3000 C3001 1.415 . S
C3001 H2971 0.950 . S
C3001 C2996 1.363 . S
C3001 C3000 1.415 . S
H3002 C2999 0.999 . S
H3003 C2984 0.913 . S
H3004 C3022 0.951 . S
H3005 C3024 0.951 . S
H3006 C3026 0.950 . S
H3007 C3027 0.950 . S
H3008 C3029 0.950 . S
H3009 C3032 0.950 . S
H3010 C3033 0.950 . S
H3011 C3035 0.950 . S
H3012 C3036 0.950 . S
H3013 C3037 0.951 . S
H3014 C3039 0.951 . S
H3015 C3041 0.950 . S
H3016 C3042 0.950 . S
H3017 C3044 0.950 . S
H3018 C3047 0.950 1_556 S
H3019 C3048 0.950 . S
H3020 C3050 0.950 . S
H3021 C3051 0.950 1_556 S
C3022 H3004 0.951 . S
C3022 C3023 1.366 . S
C3022 C3024 1.388 . S
C3023 C3022 1.366 . S
C3023 C3027 1.385 . S
C3024 H3005 0.951 . S
C3024 C3022 1.388 . S
C3024 C3025 1.366 . S
C3025 C3024 1.366 . S
C3025 C3026 1.414 . S
C3025 C3028 1.499 . S
C3026 H3006 0.950 . S
C3026 C3025 1.414 . S
C3026 C3027 1.374 . S
C3027 H3007 0.950 . S
C3027 C3023 1.385 . S
C3027 C3026 1.374 . S
C3028 C3025 1.499 . S
C3028 C3029 1.373 . S
C3028 C3030 1.389 . S
C3029 H3008 0.950 . S
C3029 C3028 1.373 . S
C3029 C3045 1.377 . S
C3030 C3028 1.389 . S
C3030 C3031 1.524 . S
C3030 C3044 1.377 . S
C3031 C3030 1.524 . S
C3031 C3032 1.397 . S
C3031 C3036 1.363 . S
C3032 H3009 0.950 . S
C3032 C3031 1.397 . S
C3032 C3033 1.334 . S
C3033 H3010 0.950 . S
C3033 C3032 1.334 . S
C3033 C3034 1.287 . S
C3034 C3033 1.287 . S
C3034 C3035 1.524 . S
C3034 H3053 0.913 . S
C3035 H3011 0.950 . S
C3035 C3034 1.524 . S
C3035 C3036 1.415 . S
C3036 H3012 0.950 . S
C3036 C3031 1.363 . S
C3036 C3035 1.415 . S
C3037 H3013 0.951 . S
C3037 C3038 1.366 . S
C3037 C3039 1.388 1_554 S
C3038 C3037 1.366 . S
C3038 C3042 1.385 1_554 S
C3039 H3014 0.951 . S
C3039 C3037 1.388 1_556 S
C3039 C3040 1.366 . S
C3040 C3039 1.366 . S
C3040 C3041 1.414 . S
C3040 C3043 1.499 . S
C3041 H3015 0.950 . S
C3041 C3040 1.414 . S
C3041 C3042 1.374 . S
C3042 H3016 0.950 . S
C3042 C3038 1.385 1_556 S
C3042 C3041 1.374 . S
C3043 C3040 1.499 . S
C3043 C3044 1.373 . S
C3043 C3045 1.389 . S
C3044 H3017 0.950 . S
C3044 C3030 1.377 . S
C3044 C3043 1.373 . S
C3045 C3029 1.377 . S
C3045 C3043 1.389 . S
C3045 C3046 1.524 . S
C3046 C3045 1.524 . S
C3046 C3047 1.397 1_556 S
C3046 C3051 1.363 1_556 S
C3047 H3018 0.950 1_554 S
C3047 C3046 1.397 1_554 S
C3047 C3048 1.334 . S
C3048 H3019 0.950 . S
C3048 C3047 1.334 . S
C3048 C3049 1.287 . S
C3049 C3048 1.287 . S
C3049 C3050 1.524 . S
C3049 H3052 0.999 . S
C3050 H3020 0.950 . S
C3050 C3049 1.524 . S
C3050 C3051 1.415 . S
C3051 H3021 0.950 1_554 S
C3051 C3046 1.363 1_554 S
C3051 C3050 1.415 . S
H3052 C3049 0.999 . S
H3053 C3034 0.913 . S
H3054 C3072 0.951 . S
H3055 C3074 0.951 . S
H3056 C3076 0.945 . S
H3057 C3077 0.950 . S
H3058 C3079 0.950 . S
H3059 C3082 0.950 . S
H3060 C3083 0.950 . S
H3061 C3085 0.950 . S
H3062 C3086 0.950 . S
H3063 C3087 0.951 . S
H3064 C3089 0.951 . S
H3065 C3091 0.950 . S
H3066 C3092 0.950 . S
H3067 C3094 0.950 . S
H3068 C3097 0.950 . S
H3069 C3098 0.950 . S
H3070 C3100 0.950 . S
H3071 C3101 0.950 . S
C3072 H3054 0.951 . S
C3072 C3073 1.366 . S
C3072 C3074 1.388 1_455 S
C3073 C3072 1.366 . S
C3073 C3077 1.385 . S
C3074 H3055 0.951 . S
C3074 C3072 1.388 1_655 S
C3074 C3075 1.366 . S
C3075 C3074 1.366 . S
C3075 C3076 1.376 1_655 S
C3075 C3078 1.499 . S
C3076 H3056 0.945 . S
C3076 C3075 1.376 1_455 S
C3076 C3077 1.429 . S
C3077 H3057 0.950 . S
C3077 C3073 1.385 . S
C3077 C3076 1.429 . S
C3078 C3075 1.499 . S
C3078 C3079 1.373 . S
C3078 C3080 1.389 . S
C3079 H3058 0.950 . S
C3079 C3078 1.373 . S
C3079 C3095 1.377 . S
C3080 C3078 1.389 . S
C3080 C3081 1.524 . S
C3080 C3094 1.377 . S
C3081 C3080 1.524 . S
C3081 C3082 1.397 . S
C3081 C3086 1.363 . S
C3082 H3059 0.950 . S
C3082 C3081 1.397 . S
C3082 C3083 1.334 . S
C3083 H3060 0.950 . S
C3083 C3082 1.334 . S
C3083 C3084 1.287 . S
C3084 C3083 1.287 . S
C3084 C3085 1.524 . S
C3084 H3103 0.913 . S
C3085 H3061 0.950 . S
C3085 C3084 1.524 . S
C3085 C3086 1.415 . S
C3086 H3062 0.950 . S
C3086 C3081 1.363 . S
C3086 C3085 1.415 . S
C3087 H3063 0.951 . S
C3087 C3088 1.366 . S
C3087 C3089 1.388 . S
C3088 C3087 1.366 . S
C3088 C3092 1.385 . S
C3089 H3064 0.951 . S
C3089 C3087 1.388 . S
C3089 C3090 1.366 . S
C3090 C3089 1.366 . S
C3090 C3091 1.414 . S
C3090 C3093 1.499 . S
C3091 H3065 0.950 . S
C3091 C3090 1.414 . S
C3091 C3092 1.374 . S
C3092 H3066 0.950 . S
C3092 C3088 1.385 . S
C3092 C3091 1.374 . S
C3093 C3090 1.499 . S
C3093 C3094 1.373 . S
C3093 C3095 1.389 . S
C3094 H3067 0.950 . S
C3094 C3080 1.377 . S
C3094 C3093 1.373 . S
C3095 C3079 1.377 . S
C3095 C3093 1.389 . S
C3095 C3096 1.524 . S
C3096 C3095 1.524 . S
C3096 C3097 1.397 . S
C3096 C3101 1.363 . S
C3097 H3068 0.950 . S
C3097 C3096 1.397 . S
C3097 C3098 1.334 . S
C3098 H3069 0.950 . S
C3098 C3097 1.334 . S
C3098 C3099 1.287 . S
C3099 C3098 1.287 . S
C3099 C3100 1.524 . S
C3099 H3102 0.999 . S
C3100 H3070 0.950 . S
C3100 C3099 1.524 . S
C3100 C3101 1.415 . S
C3101 H3071 0.950 . S
C3101 C3096 1.363 . S
C3101 C3100 1.415 . S
H3102 C3099 0.999 . S
H3103 C3084 0.913 . S
H3104 C3122 0.951 . S
H3105 C3124 0.951 . S
H3106 C3126 0.950 1_565 S
H3107 C3127 0.950 1_565 S
H3108 C3129 0.950 . S
H3109 C3132 0.950 1_565 S
H3110 C3133 0.950 1_565 S
H3111 C3135 0.950 . S
H3112 C3136 0.950 . S
H3113 C3137 0.951 . S
H3114 C3139 0.951 . S
H3115 C3141 0.950 . S
H3116 C3142 0.950 . S
H3117 C3144 0.950 . S
H3118 C3147 0.950 . S
H3119 C3148 0.950 . S
H3120 C3150 0.950 1_655 S
H3121 C3151 0.950 . S
C3122 H3104 0.951 . S
C3122 C3123 1.366 . S
C3122 C3124 1.388 . S
C3123 C3122 1.366 . S
C3123 C3127 1.385 . S
C3124 H3105 0.951 . S
C3124 C3122 1.388 . S
C3124 C3125 1.366 . S
C3125 C3124 1.366 . S
C3125 C3126 1.414 . S
C3125 C3128 1.499 . S
C3126 H3106 0.950 1_545 S
C3126 C3125 1.414 . S
C3126 C3127 1.374 . S
C3127 H3107 0.950 1_545 S
C3127 C3123 1.385 . S
C3127 C3126 1.374 . S
C3128 C3125 1.499 . S
C3128 C3129 1.373 . S
C3128 C3130 1.389 . S
C3129 H3108 0.950 . S
C3129 C3128 1.373 . S
C3129 C3145 1.377 . S
C3130 C3128 1.389 . S
C3130 C3131 1.524 . S
C3130 C3144 1.377 . S
C3131 C3130 1.524 . S
C3131 C3132 1.397 . S
C3131 C3136 1.363 . S
C3132 H3109 0.950 1_545 S
C3132 C3131 1.397 . S
C3132 C3133 1.334 . S
C3133 H3110 0.950 1_545 S
C3133 C3132 1.334 . S
C3133 C3134 1.287 . S
C3134 C3133 1.287 . S
C3134 C3135 1.524 . S
C3134 H3153 0.913 . S
C3135 H3111 0.950 . S
C3135 C3134 1.524 . S
C3135 C3136 1.415 . S
C3136 H3112 0.950 . S
C3136 C3131 1.363 . S
C3136 C3135 1.415 . S
C3137 H3113 0.951 . S
C3137 C3138 1.366 1_565 S
C3137 C3139 1.388 . S
C3138 C3137 1.366 1_545 S
C3138 C3142 1.385 . S
C3139 H3114 0.951 . S
C3139 C3137 1.388 . S
C3139 C3140 1.366 1_565 S
C3140 C3139 1.366 1_545 S
C3140 C3141 1.414 . S
C3140 C3143 1.499 . S
C3141 H3115 0.950 . S
C3141 C3140 1.414 . S
C3141 C3142 1.374 . S
C3142 H3116 0.950 . S
C3142 C3138 1.385 . S
C3142 C3141 1.374 . S
C3143 C3140 1.499 . S
C3143 C3144 1.373 . S
C3143 C3145 1.389 . S
C3144 H3117 0.950 . S
C3144 C3130 1.377 . S
C3144 C3143 1.373 . S
C3145 C3129 1.377 . S
C3145 C3143 1.389 . S
C3145 C3146 1.524 . S
C3146 C3145 1.524 . S
C3146 C3147 1.397 . S
C3146 C3151 1.363 1_545 S
C3147 H3118 0.950 . S
C3147 C3146 1.397 . S
C3147 C3148 1.334 . S
C3148 H3119 0.950 . S
C3148 C3147 1.334 . S
C3148 C3149 1.268 1_455 S
C3149 C3148 1.268 1_655 S
C3149 C3150 1.496 1_645 S
C3149 H3152 1.053 . S
C3150 H3120 0.950 1_455 S
C3150 C3149 1.496 1_465 S
C3150 C3151 1.415 . S
C3151 H3121 0.950 . S
C3151 C3146 1.363 1_565 S
C3151 C3150 1.415 . S
H3152 C3149 1.053 . S
H3153 C3134 0.913 . S
H3154 C3172 0.951 . S
H3155 C3174 0.951 . S
H3156 C3176 0.950 . S
H3157 C3177 0.950 . S
H3158 C3179 0.950 . S
H3159 C3182 0.950 . S
H3160 C3183 0.950 . S
H3161 C3185 0.950 . S
H3162 C3186 0.950 . S
H3163 C3187 0.951 . S
H3164 C3189 0.951 . S
H3165 C3191 0.950 . S
H3166 C3192 0.950 . S
H3167 C3194 0.950 . S
H3168 C3197 0.950 . S
H3169 C3198 0.950 . S
H3170 C3200 0.950 . S
H3171 C3201 0.950 . S
C3172 H3154 0.951 . S
C3172 C3173 1.366 . S
C3172 C3174 1.388 . S
C3173 C3172 1.366 . S
C3173 C3177 1.385 . S
C3174 H3155 0.951 . S
C3174 C3172 1.388 . S
C3174 C3175 1.366 . S
C3175 C3174 1.366 . S
C3175 C3176 1.414 . S
C3175 C3178 1.499 . S
C3176 H3156 0.950 . S
C3176 C3175 1.414 . S
C3176 C3177 1.374 . S
C3177 H3157 0.950 . S
C3177 C3173 1.385 . S
C3177 C3176 1.374 . S
C3178 C3175 1.499 . S
C3178 C3179 1.373 . S
C3178 C3180 1.389 . S
C3179 H3158 0.950 . S
C3179 C3178 1.373 . S
C3179 C3195 1.377 . S
C3180 C3178 1.389 . S
C3180 C3181 1.524 . S
C3180 C3194 1.377 . S
C3181 C3180 1.524 . S
C3181 C3182 1.397 . S
C3181 C3186 1.363 . S
C3182 H3159 0.950 . S
C3182 C3181 1.397 . S
C3182 C3183 1.334 . S
C3183 H3160 0.950 . S
C3183 C3182 1.334 . S
C3183 C3184 1.287 . S
C3184 C3183 1.287 . S
C3184 C3185 1.524 . S
C3184 H3203 0.913 . S
C3185 H3161 0.950 . S
C3185 C3184 1.524 . S
C3185 C3186 1.415 . S
C3186 H3162 0.950 . S
C3186 C3181 1.363 . S
C3186 C3185 1.415 . S
C3187 H3163 0.951 . S
C3187 C3188 1.366 . S
C3187 C3189 1.388 . S
C3188 C3187 1.366 . S
C3188 C3192 1.385 . S
C3189 H3164 0.951 . S
C3189 C3187 1.388 . S
C3189 C3190 1.366 . S
C3190 C3189 1.366 . S
C3190 C3191 1.414 . S
C3190 C3193 1.499 . S
C3191 H3165 0.950 . S
C3191 C3190 1.414 . S
C3191 C3192 1.374 . S
C3192 H3166 0.950 . S
C3192 C3188 1.385 . S
C3192 C3191 1.374 . S
C3193 C3190 1.499 . S
C3193 C3194 1.373 . S
C3193 C3195 1.389 . S
C3194 H3167 0.950 . S
C3194 C3180 1.377 . S
C3194 C3193 1.373 . S
C3195 C3179 1.377 . S
C3195 C3193 1.389 . S
C3195 C3196 1.524 . S
C3196 C3195 1.524 . S
C3196 C3197 1.397 . S
C3196 C3201 1.363 . S
C3197 H3168 0.950 . S
C3197 C3196 1.397 . S
C3197 C3198 1.334 . S
C3198 H3169 0.950 . S
C3198 C3197 1.334 . S
C3198 C3199 1.287 . S
C3199 C3198 1.287 . S
C3199 C3200 1.524 . S
C3199 H3202 0.999 . S
C3200 H3170 0.950 . S
C3200 C3199 1.524 . S
C3200 C3201 1.415 . S
C3201 H3171 0.950 . S
C3201 C3196 1.363 . S
C3201 C3200 1.415 . S
H3202 C3199 0.999 . S
H3203 C3184 0.913 . S
H3204 C3222 0.951 . S
H3205 C3224 0.951 . S
H3206 C3226 0.950 . S
H3207 C3227 0.950 . S
H3208 C3229 0.950 . S
H3209 C3232 0.950 . S
H3210 C3233 0.950 . S
H3211 C3235 0.950 . S
H3212 C3236 0.950 . S
H3213 C3237 0.951 . S
H3214 C3239 0.951 . S
H3215 C3241 0.950 . S
H3216 C3242 0.950 . S
H3217 C3244 0.950 . S
H3218 C3247 0.950 . S
H3219 C3248 0.950 . S
H3220 C3250 0.950 . S
H3221 C3251 0.950 . S
C3222 H3204 0.951 . S
C3222 C3223 1.366 . S
C3222 C3224 1.388 . S
C3223 C3222 1.366 . S
C3223 C3227 1.385 . S
C3224 H3205 0.951 . S
C3224 C3222 1.388 . S
C3224 C3225 1.366 . S
C3225 C3224 1.366 . S
C3225 C3226 1.414 . S
C3225 C3228 1.499 . S
C3226 H3206 0.950 . S
C3226 C3225 1.414 . S
C3226 C3227 1.374 . S
C3227 H3207 0.950 . S
C3227 C3223 1.385 . S
C3227 C3226 1.374 . S
C3228 C3225 1.499 . S
C3228 C3229 1.373 . S
C3228 C3230 1.389 . S
C3229 H3208 0.950 . S
C3229 C3228 1.373 . S
C3229 C3245 1.377 . S
C3230 C3228 1.389 . S
C3230 C3231 1.524 1_545 S
C3230 C3244 1.377 . S
C3231 C3230 1.524 1_565 S
C3231 C3232 1.397 . S
C3231 C3236 1.363 . S
C3232 H3209 0.950 . S
C3232 C3231 1.397 . S
C3232 C3233 1.334 . S
C3233 H3210 0.950 . S
C3233 C3232 1.334 . S
C3233 C3234 1.287 . S
C3234 C3233 1.287 . S
C3234 C3235 1.524 . S
C3234 H3253 0.913 . S
C3235 H3211 0.950 . S
C3235 C3234 1.524 . S
C3235 C3236 1.415 . S
C3236 H3212 0.950 . S
C3236 C3231 1.363 . S
C3236 C3235 1.415 . S
C3237 H3213 0.951 . S
C3237 C3238 1.366 . S
C3237 C3239 1.388 . S
C3238 C3237 1.366 . S
C3238 C3242 1.385 . S
C3239 H3214 0.951 . S
C3239 C3237 1.388 . S
C3239 C3240 1.366 . S
C3240 C3239 1.366 . S
C3240 C3241 1.414 . S
C3240 C3243 1.499 . S
C3241 H3215 0.950 . S
C3241 C3240 1.414 . S
C3241 C3242 1.374 . S
C3242 H3216 0.950 . S
C3242 C3238 1.385 . S
C3242 C3241 1.374 . S
C3243 C3240 1.499 . S
C3243 C3244 1.373 . S
C3243 C3245 1.389 . S
C3244 H3217 0.950 . S
C3244 C3230 1.377 . S
C3244 C3243 1.373 . S
C3245 C3229 1.377 . S
C3245 C3243 1.389 . S
C3245 C3246 1.524 . S
C3246 C3245 1.524 . S
C3246 C3247 1.397 . S
C3246 C3251 1.363 . S
C3247 H3218 0.950 . S
C3247 C3246 1.397 . S
C3247 C3248 1.334 . S
C3248 H3219 0.950 . S
C3248 C3247 1.334 . S
C3248 C3249 1.287 . S
C3249 C3248 1.287 . S
C3249 C3250 1.524 . S
C3249 H3252 0.999 . S
C3250 H3220 0.950 . S
C3250 C3249 1.524 . S
C3250 C3251 1.415 . S
C3251 H3221 0.950 . S
C3251 C3246 1.363 . S
C3251 C3250 1.415 . S
H3252 C3249 0.999 . S
H3253 C3234 0.913 . S
H3254 C3272 0.951 . S
H3255 C3274 0.951 . S
H3256 C3276 0.950 . S
H3257 C3277 0.950 . S
H3258 C3279 0.950 . S
H3259 C3282 0.950 . S
H3260 C3283 0.950 . S
H3261 C3285 0.950 . S
H3262 C3286 0.950 . S
H3263 C3287 0.951 . S
H3264 C3289 0.951 . S
H3265 C3291 0.950 . S
H3266 C3292 0.950 . S
H3267 C3294 0.950 . S
H3268 C3297 0.950 . S
H3269 C3298 0.950 . S
H3270 C3300 0.950 . S
H3271 C3301 0.950 . S
C3272 H3254 0.951 . S
C3272 C3273 1.366 . S
C3272 C3274 1.388 . S
C3273 C3272 1.366 . S
C3273 C3277 1.385 . S
C3274 H3255 0.951 . S
C3274 C3272 1.388 . S
C3274 C3275 1.366 . S
C3275 C3274 1.366 . S
C3275 C3276 1.414 . S
C3275 C3278 1.499 . S
C3276 H3256 0.950 . S
C3276 C3275 1.414 . S
C3276 C3277 1.374 . S
C3277 H3257 0.950 . S
C3277 C3273 1.385 . S
C3277 C3276 1.374 . S
C3278 C3275 1.499 . S
C3278 C3279 1.373 . S
C3278 C3280 1.389 . S
C3279 H3258 0.950 . S
C3279 C3278 1.373 . S
C3279 C3295 1.377 . S
C3280 C3278 1.389 . S
C3280 C3281 1.524 . S
C3280 C3294 1.377 . S
C3281 C3280 1.524 . S
C3281 C3282 1.397 . S
C3281 C3286 1.363 . S
C3282 H3259 0.950 . S
C3282 C3281 1.397 . S
C3282 C3283 1.334 . S
C3283 H3260 0.950 . S
C3283 C3282 1.334 . S
C3283 C3284 1.287 . S
C3284 C3283 1.287 . S
C3284 C3285 1.524 . S
C3284 H3303 0.913 . S
C3285 H3261 0.950 . S
C3285 C3284 1.524 . S
C3285 C3286 1.415 . S
C3286 H3262 0.950 . S
C3286 C3281 1.363 . S
C3286 C3285 1.415 . S
C3287 H3263 0.951 . S
C3287 C3288 1.366 . S
C3287 C3289 1.388 . S
C3288 C3287 1.366 . S
C3288 C3292 1.385 . S
C3289 H3264 0.951 . S
C3289 C3287 1.388 . S
C3289 C3290 1.366 . S
C3290 C3289 1.366 . S
C3290 C3291 1.414 . S
C3290 C3293 1.499 . S
C3291 H3265 0.950 . S
C3291 C3290 1.414 . S
C3291 C3292 1.374 . S
C3292 H3266 0.950 . S
C3292 C3288 1.385 . S
C3292 C3291 1.374 . S
C3293 C3290 1.499 . S
C3293 C3294 1.373 . S
C3293 C3295 1.389 . S
C3294 H3267 0.950 . S
C3294 C3280 1.377 . S
C3294 C3293 1.373 . S
C3295 C3279 1.377 . S
C3295 C3293 1.389 . S
C3295 C3296 1.524 . S
C3296 C3295 1.524 . S
C3296 C3297 1.397 . S
C3296 C3301 1.363 . S
C3297 H3268 0.950 . S
C3297 C3296 1.397 . S
C3297 C3298 1.334 . S
C3298 H3269 0.950 . S
C3298 C3297 1.334 . S
C3298 C3299 1.287 . S
C3299 C3298 1.287 . S
C3299 C3300 1.524 . S
C3299 H3302 0.999 . S
C3300 H3270 0.950 . S
C3300 C3299 1.524 . S
C3300 C3301 1.415 . S
C3301 H3271 0.950 . S
C3301 C3296 1.363 . S
C3301 C3300 1.415 . S
H3302 C3299 0.999 . S
H3303 C3284 0.913 . S
H3304 C3322 0.951 . S
H3305 C3324 0.951 . S
H3306 C3326 0.950 . S
H3307 C3327 0.950 . S
H3308 C3329 0.950 . S
H3309 C3332 0.950 . S
H3310 C3333 0.950 . S
H3311 C3335 0.950 . S
H3312 C3336 0.950 . S
H3313 C3337 0.951 . S
H3314 C3339 0.951 . S
H3315 C3341 0.934 1_565 S
H3316 C3342 0.935 1_565 S
H3317 C3344 0.950 . S
H3318 C3347 0.950 . S
H3319 C3348 0.950 . S
H3320 C3350 0.945 1_645 S
H3321 C3351 0.950 . S
C3322 H3304 0.951 . S
C3322 C3323 1.366 . S
C3322 C3324 1.388 . S
C3323 C3322 1.366 . S
C3323 C3327 1.385 . S
C3324 H3305 0.951 . S
C3324 C3322 1.388 . S
C3324 C3325 1.366 . S
C3325 C3324 1.366 . S
C3325 C3326 1.414 . S
C3325 C3328 1.499 . S
C3326 H3306 0.950 . S
C3326 C3325 1.414 . S
C3326 C3327 1.374 . S
C3327 H3307 0.950 . S
C3327 C3323 1.385 . S
C3327 C3326 1.374 . S
C3328 C3325 1.499 . S
C3328 C3329 1.373 . S
C3328 C3330 1.389 . S
C3329 H3308 0.950 . S
C3329 C3328 1.373 . S
C3329 C3345 1.377 . S
C3330 C3328 1.389 . S
C3330 C3331 1.524 . S
C3330 C3344 1.377 . S
C3331 C3330 1.524 . S
C3331 C3332 1.397 . S
C3331 C3336 1.363 . S
C3332 H3309 0.950 . S
C3332 C3331 1.397 . S
C3332 C3333 1.334 . S
C3333 H3310 0.950 . S
C3333 C3332 1.334 . S
C3333 C3334 1.287 . S
C3334 C3333 1.287 . S
C3334 C3335 1.524 . S
C3334 H3353 0.913 . S
C3335 H3311 0.950 . S
C3335 C3334 1.524 . S
C3335 C3336 1.415 . S
C3336 H3312 0.950 . S
C3336 C3331 1.363 . S
C3336 C3335 1.415 . S
C3337 H3313 0.951 . S
C3337 C3338 1.366 . S
C3337 C3339 1.388 . S
C3338 C3337 1.366 . S
C3338 C3342 1.385 . S
C3339 H3314 0.951 . S
C3339 C3337 1.388 . S
C3339 C3340 1.366 . S
C3340 C3339 1.366 . S
C3340 C3341 1.414 . S
C3340 C3343 1.499 . S
C3341 H3315 0.934 1_545 S
C3341 C3340 1.414 . S
C3341 C3342 1.374 . S
C3342 H3316 0.935 1_545 S
C3342 C3338 1.385 . S
C3342 C3341 1.374 . S
C3343 C3340 1.499 . S
C3343 C3344 1.373 . S
C3343 C3345 1.389 . S
C3344 H3317 0.950 . S
C3344 C3330 1.377 . S
C3344 C3343 1.373 . S
C3345 C3329 1.377 . S
C3345 C3343 1.389 . S
C3345 C3346 1.536 . S
C3346 C3345 1.536 . S
C3346 C3347 1.356 1_545 S
C3346 C3351 1.390 . S
C3347 H3318 0.950 . S
C3347 C3346 1.356 1_565 S
C3347 C3348 1.334 . S
C3348 H3319 0.950 . S
C3348 C3347 1.334 . S
C3348 C3349 1.287 . S
C3349 C3348 1.287 . S
C3349 C3350 1.532 . S
C3349 H3352 0.999 1_455 S
C3350 H3320 0.945 1_465 S
C3350 C3349 1.532 . S
C3350 C3351 1.413 1_565 S
C3351 H3321 0.950 . S
C3351 C3346 1.390 . S
C3351 C3350 1.413 1_545 S
H3352 C3349 0.999 1_655 S
H3353 C3334 0.913 . S
H3354 C3372 0.951 . S
H3355 C3374 0.951 . S
H3356 C3376 0.950 . S
H3357 C3377 0.950 . S
H3358 C3379 0.950 . S
H3359 C3382 0.950 . S
H3360 C3383 0.950 . S
H3361 C3385 0.950 . S
H3362 C3386 0.950 . S
H3363 C3387 0.951 . S
H3364 C3389 0.951 . S
H3365 C3391 0.950 . S
H3366 C3392 0.950 . S
H3367 C3394 0.950 . S
H3368 C3397 0.950 . S
H3369 C3398 0.950 . S
H3370 C3400 0.950 . S
H3371 C3401 0.950 . S
C3372 H3354 0.951 . S
C3372 C3373 1.366 . S
C3372 C3374 1.388 . S
C3373 C3372 1.366 . S
C3373 C3377 1.385 . S
C3374 H3355 0.951 . S
C3374 C3372 1.388 . S
C3374 C3375 1.366 . S
C3375 C3374 1.366 . S
C3375 C3376 1.414 . S
C3375 C3378 1.499 . S
C3376 H3356 0.950 . S
C3376 C3375 1.414 . S
C3376 C3377 1.374 . S
C3377 H3357 0.950 . S
C3377 C3373 1.385 . S
C3377 C3376 1.374 . S
C3378 C3375 1.499 . S
C3378 C3379 1.373 . S
C3378 C3380 1.389 . S
C3379 H3358 0.950 . S
C3379 C3378 1.373 . S
C3379 C3395 1.377 . S
C3380 C3378 1.389 . S
C3380 C3381 1.524 . S
C3380 C3394 1.377 . S
C3381 C3380 1.524 . S
C3381 C3382 1.397 . S
C3381 C3386 1.363 . S
C3382 H3359 0.950 . S
C3382 C3381 1.397 . S
C3382 C3383 1.334 . S
C3383 H3360 0.950 . S
C3383 C3382 1.334 . S
C3383 C3384 1.287 . S
C3384 C3383 1.287 . S
C3384 C3385 1.524 . S
C3384 H3403 0.913 . S
C3385 H3361 0.950 . S
C3385 C3384 1.524 . S
C3385 C3386 1.415 . S
C3386 H3362 0.950 . S
C3386 C3381 1.363 . S
C3386 C3385 1.415 . S
C3387 H3363 0.951 . S
C3387 C3388 1.366 . S
C3387 C3389 1.388 . S
C3388 C3387 1.366 . S
C3388 C3392 1.385 . S
C3389 H3364 0.951 . S
C3389 C3387 1.388 . S
C3389 C3390 1.366 . S
C3390 C3389 1.366 . S
C3390 C3391 1.414 . S
C3390 C3393 1.499 . S
C3391 H3365 0.950 . S
C3391 C3390 1.414 . S
C3391 C3392 1.374 . S
C3392 H3366 0.950 . S
C3392 C3388 1.385 . S
C3392 C3391 1.374 . S
C3393 C3390 1.499 . S
C3393 C3394 1.373 . S
C3393 C3395 1.389 . S
C3394 H3367 0.950 . S
C3394 C3380 1.377 . S
C3394 C3393 1.373 . S
C3395 C3379 1.377 . S
C3395 C3393 1.389 . S
C3395 C3396 1.524 . S
C3396 C3395 1.524 . S
C3396 C3397 1.397 . S
C3396 C3401 1.363 . S
C3397 H3368 0.950 . S
C3397 C3396 1.397 . S
C3397 C3398 1.334 . S
C3398 H3369 0.950 . S
C3398 C3397 1.334 . S
C3398 C3399 1.287 . S
C3399 C3398 1.287 . S
C3399 C3400 1.524 . S
C3399 H3402 0.999 . S
C3400 H3370 0.950 . S
C3400 C3399 1.524 . S
C3400 C3401 1.415 . S
C3401 H3371 0.950 . S
C3401 C3396 1.363 . S
C3401 C3400 1.415 . S
H3402 C3399 0.999 . S
H3403 C3384 0.913 . S
H3404 C3422 0.951 1_565 S
H3405 C3424 0.951 1_565 S
H3406 C3426 0.950 . S
H3407 C3427 0.950 . S
H3408 C3429 0.950 . S
H3409 C3432 0.950 . S
H3410 C3433 0.950 . S
H3411 C3435 0.950 . S
H3412 C3436 0.950 1_565 S
H3413 C3437 0.951 . S
H3414 C3439 0.951 . S
H3415 C3441 0.950 . S
H3416 C3442 0.950 . S
H3417 C3444 0.950 . S
H3418 C3447 0.950 . S
H3419 C3448 0.950 . S
H3420 C3450 0.950 . S
H3421 C3451 0.950 . S
C3422 H3404 0.951 1_545 S
C3422 C3423 1.366 . S
C3422 C3424 1.388 . S
C3423 C3422 1.366 . S
C3423 C3427 1.385 . S
C3424 H3405 0.951 1_545 S
C3424 C3422 1.388 . S
C3424 C3425 1.366 . S
C3425 C3424 1.366 . S
C3425 C3426 1.414 . S
C3425 C3428 1.499 . S
C3426 H3406 0.950 . S
C3426 C3425 1.414 . S
C3426 C3427 1.374 . S
C3427 H3407 0.950 . S
C3427 C3423 1.385 . S
C3427 C3426 1.374 . S
C3428 C3425 1.499 . S
C3428 C3429 1.373 . S
C3428 C3430 1.389 . S
C3429 H3408 0.950 . S
C3429 C3428 1.373 . S
C3429 C3445 1.377 . S
C3430 C3428 1.389 . S
C3430 C3431 1.524 . S
C3430 C3444 1.377 . S
C3431 C3430 1.524 . S
C3431 C3432 1.397 . S
C3431 C3436 1.363 . S
C3432 H3409 0.950 . S
C3432 C3431 1.397 . S
C3432 C3433 1.334 . S
C3433 H3410 0.950 . S
C3433 C3432 1.334 . S
C3433 C3434 1.287 . S
C3434 C3433 1.287 . S
C3434 C3435 1.524 . S
C3434 H3453 0.913 . S
C3435 H3411 0.950 . S
C3435 C3434 1.524 . S
C3435 C3436 1.415 . S
C3436 H3412 0.950 1_545 S
C3436 C3431 1.363 . S
C3436 C3435 1.415 . S
C3437 H3413 0.951 . S
C3437 C3438 1.366 . S
C3437 C3439 1.388 . S
C3438 C3437 1.366 . S
C3438 C3442 1.385 1_545 S
C3439 H3414 0.951 . S
C3439 C3437 1.388 . S
C3439 C3440 1.366 . S
C3440 C3439 1.366 . S
C3440 C3441 1.414 1_545 S
C3440 C3443 1.499 . S
C3441 H3415 0.950 . S
C3441 C3440 1.414 1_565 S
C3441 C3442 1.374 . S
C3442 H3416 0.950 . S
C3442 C3438 1.385 1_565 S
C3442 C3441 1.374 . S
C3443 C3440 1.499 . S
C3443 C3444 1.373 . S
C3443 C3445 1.389 . S
C3444 H3417 0.950 . S
C3444 C3430 1.377 . S
C3444 C3443 1.373 . S
C3445 C3429 1.377 . S
C3445 C3443 1.389 . S
C3445 C3446 1.524 . S
C3446 C3445 1.524 . S
C3446 C3447 1.397 1_545 S
C3446 C3451 1.363 . S
C3447 H3418 0.950 . S
C3447 C3446 1.397 1_565 S
C3447 C3448 1.334 . S
C3448 H3419 0.950 . S
C3448 C3447 1.334 . S
C3448 C3449 1.287 . S
C3449 C3448 1.287 . S
C3449 C3450 1.524 1_565 S
C3449 H3452 0.999 . S
C3450 H3420 0.950 . S
C3450 C3449 1.524 1_545 S
C3450 C3451 1.415 . S
C3451 H3421 0.950 . S
C3451 C3446 1.363 . S
C3451 C3450 1.415 . S
H3452 C3449 0.999 . S
H3453 C3434 0.913 . S
H3454 C3472 0.951 . S
H3455 C3474 0.951 . S
H3456 C3476 0.950 . S
H3457 C3477 0.950 . S
H3458 C3479 0.950 . S
H3459 C3482 0.950 . S
H3460 C3483 0.950 . S
H3461 C3485 0.950 . S
H3462 C3486 0.950 . S
H3463 C3487 0.951 . S
H3464 C3489 0.951 . S
H3465 C3491 0.950 . S
H3466 C3492 0.950 . S
H3467 C3494 0.950 . S
H3468 C3497 0.950 . S
H3469 C3498 0.950 . S
H3470 C3500 0.950 . S
H3471 C3501 0.950 . S
C3472 H3454 0.951 . S
C3472 C3473 1.366 . S
C3472 C3474 1.388 . S
C3473 C3472 1.366 . S
C3473 C3477 1.385 . S
C3474 H3455 0.951 . S
C3474 C3472 1.388 . S
C3474 C3475 1.366 . S
C3475 C3474 1.366 . S
C3475 C3476 1.414 . S
C3475 C3478 1.499 . S
C3476 H3456 0.950 . S
C3476 C3475 1.414 . S
C3476 C3477 1.374 . S
C3477 H3457 0.950 . S
C3477 C3473 1.385 . S
C3477 C3476 1.374 . S
C3478 C3475 1.499 . S
C3478 C3479 1.373 . S
C3478 C3480 1.389 . S
C3479 H3458 0.950 . S
C3479 C3478 1.373 . S
C3479 C3495 1.377 . S
C3480 C3478 1.389 . S
C3480 C3481 1.524 . S
C3480 C3494 1.377 . S
C3481 C3480 1.524 . S
C3481 C3482 1.397 . S
C3481 C3486 1.363 . S
C3482 H3459 0.950 . S
C3482 C3481 1.397 . S
C3482 C3483 1.334 . S
C3483 H3460 0.950 . S
C3483 C3482 1.334 . S
C3483 C3484 1.287 . S
C3484 C3483 1.287 . S
C3484 C3485 1.524 . S
C3484 H3503 0.913 . S
C3485 H3461 0.950 . S
C3485 C3484 1.524 . S
C3485 C3486 1.415 . S
C3486 H3462 0.950 . S
C3486 C3481 1.363 . S
C3486 C3485 1.415 . S
C3487 H3463 0.951 . S
C3487 C3488 1.366 . S
C3487 C3489 1.388 . S
C3488 C3487 1.366 . S
C3488 C3492 1.385 . S
C3489 H3464 0.951 . S
C3489 C3487 1.388 . S
C3489 C3490 1.366 . S
C3490 C3489 1.366 . S
C3490 C3491 1.414 . S
C3490 C3493 1.499 . S
C3491 H3465 0.950 . S
C3491 C3490 1.414 . S
C3491 C3492 1.374 . S
C3492 H3466 0.950 . S
C3492 C3488 1.385 . S
C3492 C3491 1.374 . S
C3493 C3490 1.499 . S
C3493 C3494 1.373 . S
C3493 C3495 1.389 . S
C3494 H3467 0.950 . S
C3494 C3480 1.377 . S
C3494 C3493 1.373 . S
C3495 C3479 1.377 . S
C3495 C3493 1.389 . S
C3495 C3496 1.524 . S
C3496 C3495 1.524 . S
C3496 C3497 1.397 . S
C3496 C3501 1.363 . S
C3497 H3468 0.950 . S
C3497 C3496 1.397 . S
C3497 C3498 1.334 . S
C3498 H3469 0.950 . S
C3498 C3497 1.334 . S
C3498 C3499 1.287 . S
C3499 C3498 1.287 . S
C3499 C3500 1.524 . S
C3499 H3502 0.999 . S
C3500 H3470 0.950 . S
C3500 C3499 1.524 . S
C3500 C3501 1.415 . S
C3501 H3471 0.950 . S
C3501 C3496 1.363 . S
C3501 C3500 1.415 . S
H3502 C3499 0.999 . S
H3503 C3484 0.913 . S
H3504 C3522 0.951 . S
H3505 C3524 0.951 . S
H3506 C3526 0.950 . S
H3507 C3527 0.950 . S
H3508 C3529 0.950 . S
H3509 C3532 0.950 . S
H3510 C3533 0.950 . S
H3511 C3535 0.950 . S
H3512 C3536 0.950 . S
H3513 C3537 0.951 . S
H3514 C3539 0.945 1_556 S
H3515 C3541 0.950 . S
H3516 C3542 0.950 . S
H3517 C3544 0.950 . S
H3518 C3547 0.950 . S
H3519 C3548 0.950 . S
H3520 C3550 0.950 . S
H3521 C3551 0.950 . S
C3522 H3504 0.951 . S
C3522 C3523 1.366 . S
C3522 C3524 1.388 . S
C3523 C3522 1.366 . S
C3523 C3527 1.385 . S
C3524 H3505 0.951 . S
C3524 C3522 1.388 . S
C3524 C3525 1.366 . S
C3525 C3524 1.366 . S
C3525 C3526 1.414 . S
C3525 C3528 1.499 . S
C3526 H3506 0.950 . S
C3526 C3525 1.414 . S
C3526 C3527 1.374 . S
C3527 H3507 0.950 . S
C3527 C3523 1.385 . S
C3527 C3526 1.374 . S
C3528 C3525 1.499 . S
C3528 C3529 1.373 . S
C3528 C3530 1.389 . S
C3529 H3508 0.950 . S
C3529 C3528 1.373 . S
C3529 C3545 1.377 . S
C3530 C3528 1.389 . S
C3530 C3531 1.524 . S
C3530 C3544 1.377 . S
C3531 C3530 1.524 . S
C3531 C3532 1.397 . S
C3531 C3536 1.363 . S
C3532 H3509 0.950 . S
C3532 C3531 1.397 . S
C3532 C3533 1.334 . S
C3533 H3510 0.950 . S
C3533 C3532 1.334 . S
C3533 C3534 1.287 . S
C3534 C3533 1.287 . S
C3534 C3535 1.524 . S
C3534 H3553 0.913 . S
C3535 H3511 0.950 . S
C3535 C3534 1.524 . S
C3535 C3536 1.415 . S
C3536 H3512 0.950 . S
C3536 C3531 1.363 . S
C3536 C3535 1.415 . S
C3537 H3513 0.951 . S
C3537 C3538 1.366 . S
C3537 C3539 1.380 1_556 S
C3538 C3537 1.366 . S
C3538 C3542 1.385 1_556 S
C3539 H3514 0.945 1_554 S
C3539 C3537 1.380 1_554 S
C3539 C3540 1.379 . S
C3540 C3539 1.379 . S
C3540 C3541 1.414 . S
C3540 C3543 1.499 . S
C3541 H3515 0.950 . S
C3541 C3540 1.414 . S
C3541 C3542 1.374 . S
C3542 H3516 0.950 . S
C3542 C3538 1.385 1_554 S
C3542 C3541 1.374 . S
C3543 C3540 1.499 . S
C3543 C3544 1.373 . S
C3543 C3545 1.389 . S
C3544 H3517 0.950 . S
C3544 C3530 1.377 . S
C3544 C3543 1.373 . S
C3545 C3529 1.377 . S
C3545 C3543 1.389 . S
C3545 C3546 1.524 1_554 S
C3546 C3545 1.524 1_556 S
C3546 C3547 1.397 . S
C3546 C3551 1.363 . S
C3547 H3518 0.950 . S
C3547 C3546 1.397 . S
C3547 C3548 1.334 . S
C3548 H3519 0.950 . S
C3548 C3547 1.334 . S
C3548 C3549 1.287 . S
C3549 C3548 1.287 . S
C3549 C3550 1.524 . S
C3549 H3552 0.999 . S
C3550 H3520 0.950 . S
C3550 C3549 1.524 . S
C3550 C3551 1.415 . S
C3551 H3521 0.950 . S
C3551 C3546 1.363 . S
C3551 C3550 1.415 . S
H3552 C3549 0.999 . S
H3553 C3534 0.913 . S
H3554 C3572 0.951 . S
H3555 C3574 0.951 . S
H3556 C3576 0.950 . S
H3557 C3577 0.950 . S
H3558 C3579 0.950 . S
H3559 C3582 0.950 . S
H3560 C3583 0.950 . S
H3561 C3585 0.950 . S
H3562 C3586 0.950 . S
H3563 C3587 0.951 . S
H3564 C3589 0.951 . S
H3565 C3591 0.950 . S
H3566 C3592 0.950 . S
H3567 C3594 1.009 . S
H3568 C3597 0.950 . S
H3569 C3598 0.950 . S
H3570 C3600 0.950 . S
H3571 C3601 0.950 . S
C3572 H3554 0.951 . S
C3572 C3573 1.366 . S
C3572 C3574 1.388 . S
C3573 C3572 1.366 . S
C3573 C3577 1.385 . S
C3574 H3555 0.951 . S
C3574 C3572 1.388 . S
C3574 C3575 1.366 . S
C3575 C3574 1.366 . S
C3575 C3576 1.414 . S
C3575 C3578 1.499 . S
C3576 H3556 0.950 . S
C3576 C3575 1.414 . S
C3576 C3577 1.374 . S
C3577 H3557 0.950 . S
C3577 C3573 1.385 . S
C3577 C3576 1.374 . S
C3578 C3575 1.499 . S
C3578 C3579 1.373 . S
C3578 C3580 1.389 . S
C3579 H3558 0.950 . S
C3579 C3578 1.373 . S
C3579 C3595 1.377 . S
C3580 C3578 1.389 . S
C3580 C3581 1.524 1_554 S
C3580 C3594 1.377 . S
C3581 C3580 1.524 1_556 S
C3581 C3582 1.397 . S
C3581 C3586 1.363 . S
C3582 H3559 0.950 . S
C3582 C3581 1.397 . S
C3582 C3583 1.334 . S
C3583 H3560 0.950 . S
C3583 C3582 1.334 . S
C3583 C3584 1.287 . S
C3584 C3583 1.287 . S
C3584 C3585 1.524 . S
C3584 H3603 0.913 . S
C3585 H3561 0.950 . S
C3585 C3584 1.524 . S
C3585 C3586 1.415 . S
C3586 H3562 0.950 . S
C3586 C3581 1.363 . S
C3586 C3585 1.415 . S
C3587 H3563 0.951 . S
C3587 C3588 1.366 . S
C3587 C3589 1.388 . S
C3588 C3587 1.366 . S
C3588 C3592 1.385 . S
C3589 H3564 0.951 . S
C3589 C3587 1.388 . S
C3589 C3590 1.366 . S
C3590 C3589 1.366 . S
C3590 C3591 1.414 . S
C3590 C3593 1.499 . S
C3591 H3565 0.950 . S
C3591 C3590 1.414 . S
C3591 C3592 1.374 . S
C3592 H3566 0.950 . S
C3592 C3588 1.385 . S
C3592 C3591 1.374 . S
C3593 C3590 1.499 . S
C3593 C3594 1.373 . S
C3593 C3595 1.389 . S
C3594 H3567 1.009 . S
C3594 C3580 1.377 . S
C3594 C3593 1.373 . S
C3595 C3579 1.377 . S
C3595 C3593 1.389 . S
C3595 C3596 1.524 . S
C3596 C3595 1.524 . S
C3596 C3597 1.397 . S
C3596 C3601 1.363 . S
C3597 H3568 0.950 . S
C3597 C3596 1.397 . S
C3597 C3598 1.334 . S
C3598 H3569 0.950 . S
C3598 C3597 1.334 . S
C3598 C3599 1.287 . S
C3599 C3598 1.287 . S
C3599 C3600 1.524 . S
C3599 H3602 0.999 . S
C3600 H3570 0.950 . S
C3600 C3599 1.524 . S
C3600 C3601 1.415 . S
C3601 H3571 0.950 . S
C3601 C3596 1.363 . S
C3601 C3600 1.415 . S
H3602 C3599 0.999 . S
H3603 C3584 0.913 . S
H3604 C3622 0.951 . S
H3605 C3624 0.951 . S
H3606 C3626 0.950 . S
H3607 C3627 0.950 . S
H3608 C3629 0.950 . S
H3609 C3632 0.950 . S
H3610 C3633 0.950 . S
H3611 C3635 0.950 . S
H3612 C3636 0.950 . S
H3613 C3637 0.951 . S
H3614 C3639 0.951 . S
H3615 C3641 0.950 . S
H3616 C3642 0.950 . S
H3617 C3644 0.950 . S
H3618 C3647 0.950 . S
H3619 C3648 0.950 . S
H3620 C3650 0.950 . S
H3621 C3651 0.950 . S
C3622 H3604 0.951 . S
C3622 C3623 1.366 . S
C3622 C3624 1.388 . S
C3623 C3622 1.366 . S
C3623 C3627 1.385 . S
C3624 H3605 0.951 . S
C3624 C3622 1.388 . S
C3624 C3625 1.366 . S
C3625 C3624 1.366 . S
C3625 C3626 1.414 . S
C3625 C3628 1.499 . S
C3626 H3606 0.950 . S
C3626 C3625 1.414 . S
C3626 C3627 1.374 . S
C3627 H3607 0.950 . S
C3627 C3623 1.385 . S
C3627 C3626 1.374 . S
C3628 C3625 1.499 . S
C3628 C3629 1.373 . S
C3628 C3630 1.389 . S
C3629 H3608 0.950 . S
C3629 C3628 1.373 . S
C3629 C3645 1.377 . S
C3630 C3628 1.389 . S
C3630 C3631 1.524 . S
C3630 C3644 1.377 . S
C3631 C3630 1.524 . S
C3631 C3632 1.397 . S
C3631 C3636 1.363 . S
C3632 H3609 0.950 . S
C3632 C3631 1.397 . S
C3632 C3633 1.334 . S
C3633 H3610 0.950 . S
C3633 C3632 1.334 . S
C3633 C3634 1.287 . S
C3634 C3633 1.287 . S
C3634 C3635 1.524 . S
C3634 H3653 0.913 . S
C3635 H3611 0.950 . S
C3635 C3634 1.524 . S
C3635 C3636 1.415 . S
C3636 H3612 0.950 . S
C3636 C3631 1.363 . S
C3636 C3635 1.415 . S
C3637 H3613 0.951 . S
C3637 C3638 1.366 . S
C3637 C3639 1.388 . S
C3638 C3637 1.366 . S
C3638 C3642 1.385 . S
C3639 H3614 0.951 . S
C3639 C3637 1.388 . S
C3639 C3640 1.366 . S
C3640 C3639 1.366 . S
C3640 C3641 1.414 . S
C3640 C3643 1.499 . S
C3641 H3615 0.950 . S
C3641 C3640 1.414 . S
C3641 C3642 1.374 . S
C3642 H3616 0.950 . S
C3642 C3638 1.385 . S
C3642 C3641 1.374 . S
C3643 C3640 1.499 . S
C3643 C3644 1.373 . S
C3643 C3645 1.389 . S
C3644 H3617 0.950 . S
C3644 C3630 1.377 . S
C3644 C3643 1.373 . S
C3645 C3629 1.377 . S
C3645 C3643 1.389 . S
C3645 C3646 1.524 . S
C3646 C3645 1.524 . S
C3646 C3647 1.397 . S
C3646 C3651 1.363 . S
C3647 H3618 0.950 . S
C3647 C3646 1.397 . S
C3647 C3648 1.334 . S
C3648 H3619 0.950 . S
C3648 C3647 1.334 . S
C3648 C3649 1.287 . S
C3649 C3648 1.287 . S
C3649 C3650 1.524 . S
C3649 H3652 0.999 . S
C3650 H3620 0.950 . S
C3650 C3649 1.524 . S
C3650 C3651 1.415 . S
C3651 H3621 0.950 . S
C3651 C3646 1.363 . S
C3651 C3650 1.415 . S
H3652 C3649 0.999 . S
H3653 C3634 0.913 . S
H3654 C3672 0.951 . S
H3655 C3674 0.951 . S
H3656 C3676 0.950 . S
H3657 C3677 0.950 . S
H3658 C3679 0.950 . S
H3659 C3682 0.950 . S
H3660 C3683 0.950 . S
H3661 C3685 0.950 . S
H3662 C3686 0.950 . S
H3663 C3687 0.951 . S
H3664 C3689 0.951 . S
H3665 C3691 0.950 . S
H3666 C3692 0.950 . S
H3667 C3694 0.950 . S
H3668 C3697 0.950 . S
H3669 C3698 0.950 . S
H3670 C3700 0.950 . S
H3671 C3701 0.950 . S
C3672 H3654 0.951 . S
C3672 C3673 1.366 . S
C3672 C3674 1.388 . S
C3673 C3672 1.366 . S
C3673 C3677 1.385 . S
C3674 H3655 0.951 . S
C3674 C3672 1.388 . S
C3674 C3675 1.366 . S
C3675 C3674 1.366 . S
C3675 C3676 1.414 . S
C3675 C3678 1.499 . S
C3676 H3656 0.950 . S
C3676 C3675 1.414 . S
C3676 C3677 1.374 . S
C3677 H3657 0.950 . S
C3677 C3673 1.385 . S
C3677 C3676 1.374 . S
C3678 C3675 1.499 . S
C3678 C3679 1.373 . S
C3678 C3680 1.389 . S
C3679 H3658 0.950 . S
C3679 C3678 1.373 . S
C3679 C3695 1.377 . S
C3680 C3678 1.389 . S
C3680 C3681 1.524 . S
C3680 C3694 1.377 . S
C3681 C3680 1.524 . S
C3681 C3682 1.397 . S
C3681 C3686 1.363 . S
C3682 H3659 0.950 . S
C3682 C3681 1.397 . S
C3682 C3683 1.334 . S
C3683 H3660 0.950 . S
C3683 C3682 1.334 . S
C3683 C3684 1.287 . S
C3684 C3683 1.287 . S
C3684 C3685 1.524 . S
C3684 H3703 0.913 . S
C3685 H3661 0.950 . S
C3685 C3684 1.524 . S
C3685 C3686 1.415 . S
C3686 H3662 0.950 . S
C3686 C3681 1.363 . S
C3686 C3685 1.415 . S
C3687 H3663 0.951 . S
C3687 C3688 1.366 . S
C3687 C3689 1.388 . S
C3688 C3687 1.366 . S
C3688 C3692 1.385 . S
C3689 H3664 0.951 . S
C3689 C3687 1.388 . S
C3689 C3690 1.366 . S
C3690 C3689 1.366 . S
C3690 C3691 1.414 . S
C3690 C3693 1.499 . S
C3691 H3665 0.950 . S
C3691 C3690 1.414 . S
C3691 C3692 1.374 . S
C3692 H3666 0.950 . S
C3692 C3688 1.385 . S
C3692 C3691 1.374 . S
C3693 C3690 1.499 . S
C3693 C3694 1.373 . S
C3693 C3695 1.389 . S
C3694 H3667 0.950 . S
C3694 C3680 1.377 . S
C3694 C3693 1.373 . S
C3695 C3679 1.377 . S
C3695 C3693 1.389 . S
C3695 C3696 1.524 . S
C3696 C3695 1.524 . S
C3696 C3697 1.397 . S
C3696 C3701 1.363 . S
C3697 H3668 0.950 . S
C3697 C3696 1.397 . S
C3697 C3698 1.334 . S
C3698 H3669 0.950 . S
C3698 C3697 1.334 . S
C3698 C3699 1.287 . S
C3699 C3698 1.287 . S
C3699 C3700 1.524 . S
C3699 H3702 0.999 . S
C3700 H3670 0.950 . S
C3700 C3699 1.524 . S
C3700 C3701 1.415 . S
C3701 H3671 0.950 . S
C3701 C3696 1.363 . S
C3701 C3700 1.415 . S
H3702 C3699 0.999 . S
H3703 C3684 0.913 . S
H3704 C3722 0.951 . S
H3705 C3724 0.951 . S
H3706 C3726 0.950 . S
H3707 C3727 0.950 . S
H3708 C3729 0.950 . S
H3709 C3732 0.950 . S
H3710 C3733 0.950 . S
H3711 C3735 0.950 . S
H3712 C3736 0.950 . S
H3713 C3737 0.951 . S
H3714 C3739 0.951 . S
H3715 C3741 0.950 . S
H3716 C3742 0.950 . S
H3717 C3744 0.950 . S
H3718 C3747 0.950 . S
H3719 C3748 0.950 . S
H3720 C3750 0.950 . S
H3721 C3751 0.950 . S
C3722 H3704 0.951 . S
C3722 C3723 1.366 . S
C3722 C3724 1.388 . S
C3723 C3722 1.366 . S
C3723 C3727 1.385 . S
C3724 H3705 0.951 . S
C3724 C3722 1.388 . S
C3724 C3725 1.366 . S
C3725 C3724 1.366 . S
C3725 C3726 1.414 . S
C3725 C3728 1.499 . S
C3726 H3706 0.950 . S
C3726 C3725 1.414 . S
C3726 C3727 1.374 . S
C3727 H3707 0.950 . S
C3727 C3723 1.385 . S
C3727 C3726 1.374 . S
C3728 C3725 1.499 . S
C3728 C3729 1.373 . S
C3728 C3730 1.389 . S
C3729 H3708 0.950 . S
C3729 C3728 1.373 . S
C3729 C3745 1.377 . S
C3730 C3728 1.389 . S
C3730 C3731 1.524 . S
C3730 C3744 1.377 . S
C3731 C3730 1.524 . S
C3731 C3732 1.397 . S
C3731 C3736 1.363 . S
C3732 H3709 0.950 . S
C3732 C3731 1.397 . S
C3732 C3733 1.334 . S
C3733 H3710 0.950 . S
C3733 C3732 1.334 . S
C3733 C3734 1.287 . S
C3734 C3733 1.287 . S
C3734 C3735 1.524 . S
C3734 H3753 0.913 . S
C3735 H3711 0.950 . S
C3735 C3734 1.524 . S
C3735 C3736 1.415 . S
C3736 H3712 0.950 . S
C3736 C3731 1.363 . S
C3736 C3735 1.415 . S
C3737 H3713 0.951 . S
C3737 C3738 1.366 . S
C3737 C3739 1.388 . S
C3738 C3737 1.366 . S
C3738 C3742 1.385 . S
C3739 H3714 0.951 . S
C3739 C3737 1.388 . S
C3739 C3740 1.366 . S
C3740 C3739 1.366 . S
C3740 C3741 1.414 . S
C3740 C3743 1.499 . S
C3741 H3715 0.950 . S
C3741 C3740 1.414 . S
C3741 C3742 1.374 . S
C3742 H3716 0.950 . S
C3742 C3738 1.385 . S
C3742 C3741 1.374 . S
C3743 C3740 1.499 . S
C3743 C3744 1.373 . S
C3743 C3745 1.389 . S
C3744 H3717 0.950 . S
C3744 C3730 1.377 . S
C3744 C3743 1.373 . S
C3745 C3729 1.377 . S
C3745 C3743 1.389 . S
C3745 C3746 1.524 . S
C3746 C3745 1.524 . S
C3746 C3747 1.397 . S
C3746 C3751 1.363 . S
C3747 H3718 0.950 . S
C3747 C3746 1.397 . S
C3747 C3748 1.334 . S
C3748 H3719 0.950 . S
C3748 C3747 1.334 . S
C3748 C3749 1.287 . S
C3749 C3748 1.287 . S
C3749 C3750 1.524 . S
C3749 H3752 0.999 . S
C3750 H3720 0.950 . S
C3750 C3749 1.524 . S
C3750 C3751 1.415 . S
C3751 H3721 0.950 . S
C3751 C3746 1.363 . S
C3751 C3750 1.415 . S
H3752 C3749 0.999 . S
H3753 C3734 0.913 . S
H3754 C3772 0.951 . S
H3755 C3774 0.951 . S
H3756 C3776 0.950 . S
H3757 C3777 0.950 . S
H3758 C3779 0.950 . S
H3759 C3782 0.950 . S
H3760 C3783 0.950 . S
H3761 C3785 0.950 . S
H3762 C3786 0.950 . S
H3763 C3787 0.951 . S
H3764 C3789 0.951 . S
H3765 C3791 0.950 . S
H3766 C3792 0.950 . S
H3767 C3794 0.950 . S
H3768 C3797 0.950 . S
H3769 C3798 0.950 . S
H3770 C3800 0.950 . S
H3771 C3801 0.950 . S
C3772 H3754 0.951 . S
C3772 C3773 1.366 . S
C3772 C3774 1.388 . S
C3773 C3772 1.366 . S
C3773 C3777 1.385 . S
C3774 H3755 0.951 . S
C3774 C3772 1.388 . S
C3774 C3775 1.366 . S
C3775 C3774 1.366 . S
C3775 C3776 1.414 . S
C3775 C3778 1.499 . S
C3776 H3756 0.950 . S
C3776 C3775 1.414 . S
C3776 C3777 1.374 . S
C3777 H3757 0.950 . S
C3777 C3773 1.385 . S
C3777 C3776 1.374 . S
C3778 C3775 1.499 . S
C3778 C3779 1.373 . S
C3778 C3780 1.389 . S
C3779 H3758 0.950 . S
C3779 C3778 1.373 . S
C3779 C3795 1.377 . S
C3780 C3778 1.389 . S
C3780 C3781 1.524 . S
C3780 C3794 1.377 . S
C3781 C3780 1.524 . S
C3781 C3782 1.397 . S
C3781 C3786 1.363 . S
C3782 H3759 0.950 . S
C3782 C3781 1.397 . S
C3782 C3783 1.334 . S
C3783 H3760 0.950 . S
C3783 C3782 1.334 . S
C3783 C3784 1.287 . S
C3784 C3783 1.287 . S
C3784 C3785 1.524 . S
C3784 H3803 0.913 . S
C3785 H3761 0.950 . S
C3785 C3784 1.524 . S
C3785 C3786 1.415 . S
C3786 H3762 0.950 . S
C3786 C3781 1.363 . S
C3786 C3785 1.415 . S
C3787 H3763 0.951 . S
C3787 C3788 1.366 . S
C3787 C3789 1.388 . S
C3788 C3787 1.366 . S
C3788 C3792 1.385 . S
C3789 H3764 0.951 . S
C3789 C3787 1.388 . S
C3789 C3790 1.366 . S
C3790 C3789 1.366 . S
C3790 C3791 1.414 . S
C3790 C3793 1.499 . S
C3791 H3765 0.950 . S
C3791 C3790 1.414 . S
C3791 C3792 1.374 . S
C3792 H3766 0.950 . S
C3792 C3788 1.385 . S
C3792 C3791 1.374 . S
C3793 C3790 1.499 . S
C3793 C3794 1.373 . S
C3793 C3795 1.389 . S
C3794 H3767 0.950 . S
C3794 C3780 1.377 . S
C3794 C3793 1.373 . S
C3795 C3779 1.377 . S
C3795 C3793 1.389 . S
C3795 C3796 1.524 . S
C3796 C3795 1.524 . S
C3796 C3797 1.397 . S
C3796 C3801 1.363 . S
C3797 H3768 0.950 . S
C3797 C3796 1.397 . S
C3797 C3798 1.334 . S
C3798 H3769 0.950 . S
C3798 C3797 1.334 . S
C3798 C3799 1.287 . S
C3799 C3798 1.287 . S
C3799 C3800 1.524 . S
C3799 H3802 0.999 . S
C3800 H3770 0.950 . S
C3800 C3799 1.524 . S
C3800 C3801 1.415 . S
C3801 H3771 0.950 . S
C3801 C3796 1.363 . S
C3801 C3800 1.415 . S
H3802 C3799 0.999 . S
H3803 C3784 0.913 . S
H3804 C3822 0.951 . S
H3805 C3824 0.951 . S
H3806 C3826 0.950 . S
H3807 C3827 0.950 . S
H3808 C3829 0.950 . S
H3809 C3832 0.950 . S
H3810 C3833 0.950 . S
H3811 C3835 0.950 . S
H3812 C3836 0.950 . S
H3813 C3837 0.951 . S
H3814 C3839 0.951 . S
H3815 C3841 0.950 . S
H3816 C3842 0.950 . S
H3817 C3844 0.950 . S
H3818 C3847 0.950 . S
H3819 C3848 0.950 . S
H3820 C3850 0.950 . S
H3821 C3851 0.950 . S
C3822 H3804 0.951 . S
C3822 C3823 1.366 . S
C3822 C3824 1.388 . S
C3823 C3822 1.366 . S
C3823 C3827 1.385 . S
C3824 H3805 0.951 . S
C3824 C3822 1.388 . S
C3824 C3825 1.366 . S
C3825 C3824 1.366 . S
C3825 C3826 1.414 . S
C3825 C3828 1.499 . S
C3826 H3806 0.950 . S
C3826 C3825 1.414 . S
C3826 C3827 1.374 . S
C3827 H3807 0.950 . S
C3827 C3823 1.385 . S
C3827 C3826 1.374 . S
C3828 C3825 1.499 . S
C3828 C3829 1.373 . S
C3828 C3830 1.389 . S
C3829 H3808 0.950 . S
C3829 C3828 1.373 . S
C3829 C3845 1.377 . S
C3830 C3828 1.389 . S
C3830 C3831 1.524 . S
C3830 C3844 1.377 . S
C3831 C3830 1.524 . S
C3831 C3832 1.397 . S
C3831 C3836 1.363 . S
C3832 H3809 0.950 . S
C3832 C3831 1.397 . S
C3832 C3833 1.334 . S
C3833 H3810 0.950 . S
C3833 C3832 1.334 . S
C3833 C3834 1.287 . S
C3834 C3833 1.287 . S
C3834 C3835 1.524 . S
C3834 H3853 0.913 . S
C3835 H3811 0.950 . S
C3835 C3834 1.524 . S
C3835 C3836 1.415 . S
C3836 H3812 0.950 . S
C3836 C3831 1.363 . S
C3836 C3835 1.415 . S
C3837 H3813 0.951 . S
C3837 C3838 1.366 . S
C3837 C3839 1.388 . S
C3838 C3837 1.366 . S
C3838 C3842 1.385 . S
C3839 H3814 0.951 . S
C3839 C3837 1.388 . S
C3839 C3840 1.366 . S
C3840 C3839 1.366 . S
C3840 C3841 1.414 . S
C3840 C3843 1.499 . S
C3841 H3815 0.950 . S
C3841 C3840 1.414 . S
C3841 C3842 1.374 . S
C3842 H3816 0.950 . S
C3842 C3838 1.385 . S
C3842 C3841 1.374 . S
C3843 C3840 1.499 . S
C3843 C3844 1.373 . S
C3843 C3845 1.389 . S
C3844 H3817 0.950 . S
C3844 C3830 1.377 . S
C3844 C3843 1.373 . S
C3845 C3829 1.377 . S
C3845 C3843 1.389 . S
C3845 C3846 1.524 . S
C3846 C3845 1.524 . S
C3846 C3847 1.397 . S
C3846 C3851 1.363 . S
C3847 H3818 0.950 . S
C3847 C3846 1.397 . S
C3847 C3848 1.334 . S
C3848 H3819 0.950 . S
C3848 C3847 1.334 . S
C3848 C3849 1.287 . S
C3849 C3848 1.287 . S
C3849 C3850 1.524 . S
C3849 H3852 0.999 . S
C3850 H3820 0.950 . S
C3850 C3849 1.524 . S
C3850 C3851 1.415 . S
C3851 H3821 0.950 . S
C3851 C3846 1.363 . S
C3851 C3850 1.415 . S
H3852 C3849 0.999 . S
H3853 C3834 0.913 . S
H3854 C3872 0.951 . S
H3855 C3874 0.951 . S
H3856 C3876 0.950 . S
H3857 C3877 0.950 . S
H3858 C3879 0.950 . S
H3859 C3882 0.950 . S
H3860 C3883 0.950 . S
H3861 C3885 0.950 . S
H3862 C3886 0.950 . S
H3863 C3887 0.951 . S
H3864 C3889 0.951 . S
H3865 C3891 0.950 . S
H3866 C3892 0.950 . S
H3867 C3894 0.950 . S
H3868 C3897 0.950 . S
H3869 C3898 0.950 . S
H3870 C3900 0.950 . S
H3871 C3901 0.950 . S
C3872 H3854 0.951 . S
C3872 C3873 1.366 . S
C3872 C3874 1.388 . S
C3873 C3872 1.366 . S
C3873 C3877 1.385 . S
C3874 H3855 0.951 . S
C3874 C3872 1.388 . S
C3874 C3875 1.366 . S
C3875 C3874 1.366 . S
C3875 C3876 1.414 . S
C3875 C3878 1.499 . S
C3876 H3856 0.950 . S
C3876 C3875 1.414 . S
C3876 C3877 1.374 . S
C3877 H3857 0.950 . S
C3877 C3873 1.385 . S
C3877 C3876 1.374 . S
C3878 C3875 1.499 . S
C3878 C3879 1.373 . S
C3878 C3880 1.389 . S
C3879 H3858 0.950 . S
C3879 C3878 1.373 . S
C3879 C3895 1.377 . S
C3880 C3878 1.389 . S
C3880 C3881 1.524 . S
C3880 C3894 1.377 . S
C3881 C3880 1.524 . S
C3881 C3882 1.397 . S
C3881 C3886 1.363 . S
C3882 H3859 0.950 . S
C3882 C3881 1.397 . S
C3882 C3883 1.334 . S
C3883 H3860 0.950 . S
C3883 C3882 1.334 . S
C3883 C3884 1.287 . S
C3884 C3883 1.287 . S
C3884 C3885 1.524 . S
C3884 H3903 0.913 . S
C3885 H3861 0.950 . S
C3885 C3884 1.524 . S
C3885 C3886 1.415 . S
C3886 H3862 0.950 . S
C3886 C3881 1.363 . S
C3886 C3885 1.415 . S
C3887 H3863 0.951 . S
C3887 C3888 1.366 . S
C3887 C3889 1.388 . S
C3888 C3887 1.366 . S
C3888 C3892 1.385 . S
C3889 H3864 0.951 . S
C3889 C3887 1.388 . S
C3889 C3890 1.366 . S
C3890 C3889 1.366 . S
C3890 C3891 1.414 . S
C3890 C3893 1.499 . S
C3891 H3865 0.950 . S
C3891 C3890 1.414 . S
C3891 C3892 1.374 . S
C3892 H3866 0.950 . S
C3892 C3888 1.385 . S
C3892 C3891 1.374 . S
C3893 C3890 1.499 . S
C3893 C3894 1.373 . S
C3893 C3895 1.389 . S
C3894 H3867 0.950 . S
C3894 C3880 1.377 . S
C3894 C3893 1.373 . S
C3895 C3879 1.377 . S
C3895 C3893 1.389 . S
C3895 C3896 1.524 . S
C3896 C3895 1.524 . S
C3896 C3897 1.397 . S
C3896 C3901 1.363 . S
C3897 H3868 0.950 . S
C3897 C3896 1.397 . S
C3897 C3898 1.334 . S
C3898 H3869 0.950 . S
C3898 C3897 1.334 . S
C3898 C3899 1.287 . S
C3899 C3898 1.287 . S
C3899 C3900 1.524 . S
C3899 H3902 0.999 . S
C3900 H3870 0.950 . S
C3900 C3899 1.524 . S
C3900 C3901 1.415 . S
C3901 H3871 0.950 . S
C3901 C3896 1.363 . S
C3901 C3900 1.415 . S
H3902 C3899 0.999 . S
H3903 C3884 0.913 . S
H3904 C3922 0.951 . S
H3905 C3924 0.951 . S
H3906 C3926 0.950 . S
H3907 C3927 0.950 . S
H3908 C3929 0.950 . S
H3909 C3932 0.950 . S
H3910 C3933 0.950 . S
H3911 C3935 0.950 . S
H3912 C3936 0.950 . S
H3913 C3937 0.951 . S
H3914 C3939 0.951 . S
H3915 C3941 0.950 . S
H3916 C3942 0.950 . S
H3917 C3944 0.950 . S
H3918 C3947 0.950 . S
H3919 C3948 0.950 . S
H3920 C3950 0.950 . S
H3921 C3951 0.950 . S
C3922 H3904 0.951 . S
C3922 C3923 1.366 . S
C3922 C3924 1.388 . S
C3923 C3922 1.366 . S
C3923 C3927 1.385 . S
C3924 H3905 0.951 . S
C3924 C3922 1.388 . S
C3924 C3925 1.366 . S
C3925 C3924 1.366 . S
C3925 C3926 1.414 . S
C3925 C3928 1.499 . S
C3926 H3906 0.950 . S
C3926 C3925 1.414 . S
C3926 C3927 1.374 . S
C3927 H3907 0.950 . S
C3927 C3923 1.385 . S
C3927 C3926 1.374 . S
C3928 C3925 1.499 . S
C3928 C3929 1.373 . S
C3928 C3930 1.389 . S
C3929 H3908 0.950 . S
C3929 C3928 1.373 . S
C3929 C3945 1.377 . S
C3930 C3928 1.389 . S
C3930 C3931 1.524 . S
C3930 C3944 1.377 . S
C3931 C3930 1.524 . S
C3931 C3932 1.397 . S
C3931 C3936 1.363 . S
C3932 H3909 0.950 . S
C3932 C3931 1.397 . S
C3932 C3933 1.334 . S
C3933 H3910 0.950 . S
C3933 C3932 1.334 . S
C3933 C3934 1.287 . S
C3934 C3933 1.287 . S
C3934 C3935 1.524 . S
C3934 H3953 0.913 . S
C3935 H3911 0.950 . S
C3935 C3934 1.524 . S
C3935 C3936 1.415 . S
C3936 H3912 0.950 . S
C3936 C3931 1.363 . S
C3936 C3935 1.415 . S
C3937 H3913 0.951 . S
C3937 C3938 1.366 . S
C3937 C3939 1.388 . S
C3938 C3937 1.366 . S
C3938 C3942 1.385 . S
C3939 H3914 0.951 . S
C3939 C3937 1.388 . S
C3939 C3940 1.366 . S
C3940 C3939 1.366 . S
C3940 C3941 1.414 . S
C3940 C3943 1.499 . S
C3941 H3915 0.950 . S
C3941 C3940 1.414 . S
C3941 C3942 1.374 . S
C3942 H3916 0.950 . S
C3942 C3938 1.385 . S
C3942 C3941 1.374 . S
C3943 C3940 1.499 . S
C3943 C3944 1.373 . S
C3943 C3945 1.389 . S
C3944 H3917 0.950 . S
C3944 C3930 1.377 . S
C3944 C3943 1.373 . S
C3945 C3929 1.377 . S
C3945 C3943 1.389 . S
C3945 C3946 1.524 . S
C3946 C3945 1.524 . S
C3946 C3947 1.397 . S
C3946 C3951 1.363 . S
C3947 H3918 0.950 . S
C3947 C3946 1.397 . S
C3947 C3948 1.334 . S
C3948 H3919 0.950 . S
C3948 C3947 1.334 . S
C3948 C3949 1.287 . S
C3949 C3948 1.287 . S
C3949 C3950 1.524 . S
C3949 H3952 0.999 . S
C3950 H3920 0.950 . S
C3950 C3949 1.524 . S
C3950 C3951 1.415 . S
C3951 H3921 0.950 . S
C3951 C3946 1.363 . S
C3951 C3950 1.415 . S
H3952 C3949 0.999 . S
H3953 C3934 0.913 . S
H3954 C3972 0.951 . S
H3955 C3974 0.951 . S
H3956 C3976 0.950 . S
H3957 C3977 0.950 . S
H3958 C3979 0.950 . S
H3959 C3982 0.950 . S
H3960 C3983 0.950 . S
H3961 C3985 0.950 . S
H3962 C3986 0.950 . S
H3963 C3987 0.951 . S
H3964 C3989 0.951 . S
H3965 C3991 0.950 . S
H3966 C3992 0.950 . S
H3967 C3994 0.950 . S
H3968 C3997 0.950 . S
H3969 C3998 0.950 . S
H3970 C4000 0.950 . S
H3971 C4001 0.950 . S
C3972 H3954 0.951 . S
C3972 C3973 1.366 . S
C3972 C3974 1.388 . S
C3973 C3972 1.366 . S
C3973 C3977 1.385 . S
C3974 H3955 0.951 . S
C3974 C3972 1.388 . S
C3974 C3975 1.366 . S
C3975 C3974 1.366 . S
C3975 C3976 1.414 . S
C3975 C3978 1.499 . S
C3976 H3956 0.950 . S
C3976 C3975 1.414 . S
C3976 C3977 1.374 . S
C3977 H3957 0.950 . S
C3977 C3973 1.385 . S
C3977 C3976 1.374 . S
C3978 C3975 1.499 . S
C3978 C3979 1.373 . S
C3978 C3980 1.389 . S
C3979 H3958 0.950 . S
C3979 C3978 1.373 . S
C3979 C3995 1.377 . S
C3980 C3978 1.389 . S
C3980 C3981 1.524 . S
C3980 C3994 1.377 . S
C3981 C3980 1.524 . S
C3981 C3982 1.397 . S
C3981 C3986 1.363 . S
C3982 H3959 0.950 . S
C3982 C3981 1.397 . S
C3982 C3983 1.334 . S
C3983 H3960 0.950 . S
C3983 C3982 1.334 . S
C3983 C3984 1.287 . S
C3984 C3983 1.287 . S
C3984 C3985 1.524 . S
C3984 H4003 0.913 . S
C3985 H3961 0.950 . S
C3985 C3984 1.524 . S
C3985 C3986 1.415 . S
C3986 H3962 0.950 . S
C3986 C3981 1.363 . S
C3986 C3985 1.415 . S
C3987 H3963 0.951 . S
C3987 C3988 1.366 . S
C3987 C3989 1.388 . S
C3988 C3987 1.366 . S
C3988 C3992 1.385 . S
C3989 H3964 0.951 . S
C3989 C3987 1.388 . S
C3989 C3990 1.366 . S
C3990 C3989 1.366 . S
C3990 C3991 1.414 . S
C3990 C3993 1.499 . S
C3991 H3965 0.950 . S
C3991 C3990 1.414 . S
C3991 C3992 1.374 . S
C3992 H3966 0.950 . S
C3992 C3988 1.385 . S
C3992 C3991 1.374 . S
C3993 C3990 1.499 . S
C3993 C3994 1.373 . S
C3993 C3995 1.389 . S
C3994 H3967 0.950 . S
C3994 C3980 1.377 . S
C3994 C3993 1.373 . S
C3995 C3979 1.377 . S
C3995 C3993 1.389 . S
C3995 C3996 1.524 . S
C3996 C3995 1.524 . S
C3996 C3997 1.397 . S
C3996 C4001 1.363 . S
C3997 H3968 0.950 . S
C3997 C3996 1.397 . S
C3997 C3998 1.334 . S
C3998 H3969 0.950 . S
C3998 C3997 1.334 . S
C3998 C3999 1.287 . S
C3999 C3998 1.287 . S
C3999 C4000 1.524 . S
C3999 H4002 0.999 . S
C4000 H3970 0.950 . S
C4000 C3999 1.524 . S
C4000 C4001 1.415 . S
C4001 H3971 0.950 . S
C4001 C3996 1.363 . S
C4001 C4000 1.415 . S
H4002 C3999 0.999 . S
H4003 C3984 0.913 . S
H4004 C4022 0.951 . S
H4005 C4024 0.951 . S
H4006 C4026 0.950 1_655 S
H4007 C4027 0.950 1_655 S
H4008 C4029 0.950 . S
H4009 C4032 0.950 . S
H4010 C4033 0.950 . S
H4011 C4035 0.950 . S
H4012 C4036 0.950 1_556 S
H4013 C4037 0.951 . S
H4014 C4039 0.978 . S
H4015 C4041 0.950 . S
H4016 C4042 0.950 . S
H4017 C4044 0.950 1_554 S
H4018 C4047 0.950 . S
H4019 C4048 0.950 1_455 S
H4020 C4050 0.950 . S
H4021 C4051 0.950 . S
C4022 H4004 0.951 . S
C4022 C4023 1.366 . S
C4022 C4024 1.388 . S
C4023 C4022 1.366 . S
C4023 C4027 1.385 . S
C4024 H4005 0.951 . S
C4024 C4022 1.388 . S
C4024 C4025 1.366 . S
C4025 C4024 1.366 . S
C4025 C4026 1.414 . S
C4025 C4028 1.499 . S
C4026 H4006 0.950 1_455 S
C4026 C4025 1.414 . S
C4026 C4027 1.374 . S
C4027 H4007 0.950 1_455 S
C4027 C4023 1.385 . S
C4027 C4026 1.374 . S
C4028 C4025 1.499 . S
C4028 C4029 1.373 . S
C4028 C4030 1.389 . S
C4029 H4008 0.950 . S
C4029 C4028 1.373 . S
C4029 C4045 1.377 . S
C4030 C4028 1.389 . S
C4030 C4031 1.552 . S
C4030 C4044 1.377 . S
C4031 C4030 1.552 . S
C4031 C4032 1.367 1_556 S
C4031 C4036 1.364 1_556 S
C4032 H4009 0.950 . S
C4032 C4031 1.367 1_554 S
C4032 C4033 1.334 . S
C4033 H4010 0.950 . S
C4033 C4032 1.334 . S
C4033 C4034 1.287 . S
C4034 C4033 1.287 . S
C4034 C4035 1.524 . S
C4034 H4053 0.913 . S
C4035 H4011 0.950 . S
C4035 C4034 1.524 . S
C4035 C4036 1.415 . S
C4036 H4012 0.950 1_554 S
C4036 C4031 1.364 1_554 S
C4036 C4035 1.415 . S
C4037 H4013 0.951 . S
C4037 C4038 1.366 . S
C4037 C4039 1.388 1_554 S
C4038 C4037 1.366 . S
C4038 C4042 1.385 . S
C4039 H4014 0.978 . S
C4039 C4037 1.388 1_556 S
C4039 C4040 1.366 . S
C4040 C4039 1.366 . S
C4040 C4041 1.414 . S
C4040 C4043 1.499 . S
C4041 H4015 0.950 . S
C4041 C4040 1.414 . S
C4041 C4042 1.374 1_556 S
C4042 H4016 0.950 . S
C4042 C4038 1.385 . S
C4042 C4041 1.374 1_554 S
C4043 C4040 1.499 . S
C4043 C4044 1.373 . S
C4043 C4045 1.389 . S
C4044 H4017 0.950 1_556 S
C4044 C4030 1.377 . S
C4044 C4043 1.373 . S
C4045 C4029 1.377 . S
C4045 C4043 1.389 . S
C4045 C4046 1.490 1_455 S
C4046 C4045 1.490 1_655 S
C4046 C4047 1.381 1_655 S
C4046 C4051 1.410 . S
C4047 H4018 0.950 . S
C4047 C4046 1.381 1_455 S
C4047 C4048 1.334 1_455 S
C4048 H4019 0.950 1_655 S
C4048 C4047 1.334 1_655 S
C4048 C4049 1.287 . S
C4049 C4048 1.287 . S
C4049 C4050 1.524 . S
C4049 H4052 0.999 . S
C4050 H4020 0.950 . S
C4050 C4049 1.524 . S
C4050 C4051 1.415 . S
C4051 H4021 0.950 . S
C4051 C4046 1.410 . S
C4051 C4050 1.415 . S
H4052 C4049 0.999 . S
H4053 C4034 0.913 . S
H4054 C4072 0.951 . S
H4055 C4074 0.951 . S
H4056 C4076 0.950 . S
H4057 C4077 0.950 1_455 S
H4058 C4079 0.950 . S
H4059 C4082 0.950 . S
H4060 C4083 0.950 . S
H4061 C4085 0.950 . S
H4062 C4086 0.950 . S
H4063 C4087 0.951 . S
H4064 C4089 0.951 . S
H4065 C4091 0.950 . S
H4066 C4092 0.950 . S
H4067 C4094 0.950 . S
H4068 C4097 0.950 . S
H4069 C4098 0.950 . S
H4070 C4100 0.950 . S
H4071 C4101 0.950 . S
C4072 H4054 0.951 . S
C4072 C4073 1.366 . S
C4072 C4074 1.388 . S
C4073 C4072 1.366 . S
C4073 C4077 1.385 . S
C4074 H4055 0.951 . S
C4074 C4072 1.388 . S
C4074 C4075 1.366 . S
C4075 C4074 1.366 . S
C4075 C4076 1.414 . S
C4075 C4078 1.499 . S
C4076 H4056 0.950 . S
C4076 C4075 1.414 . S
C4076 C4077 1.374 . S
C4077 H4057 0.950 1_655 S
C4077 C4073 1.385 . S
C4077 C4076 1.374 . S
C4078 C4075 1.499 . S
C4078 C4079 1.373 . S
C4078 C4080 1.389 . S
C4079 H4058 0.950 . S
C4079 C4078 1.373 . S
C4079 C4095 1.377 . S
C4080 C4078 1.389 . S
C4080 C4081 1.524 . S
C4080 C4094 1.377 . S
C4081 C4080 1.524 . S
C4081 C4082 1.397 . S
C4081 C4086 1.363 . S
C4082 H4059 0.950 . S
C4082 C4081 1.397 . S
C4082 C4083 1.334 . S
C4083 H4060 0.950 . S
C4083 C4082 1.334 . S
C4083 C4084 1.287 . S
C4084 C4083 1.287 . S
C4084 C4085 1.524 . S
C4084 H4103 0.913 . S
C4085 H4061 0.950 . S
C4085 C4084 1.524 . S
C4085 C4086 1.415 . S
C4086 H4062 0.950 . S
C4086 C4081 1.363 . S
C4086 C4085 1.415 . S
C4087 H4063 0.951 . S
C4087 C4088 1.366 . S
C4087 C4089 1.388 . S
C4088 C4087 1.366 . S
C4088 C4092 1.385 . S
C4089 H4064 0.951 . S
C4089 C4087 1.388 . S
C4089 C4090 1.366 . S
C4090 C4089 1.366 . S
C4090 C4091 1.414 . S
C4090 C4093 1.499 . S
C4091 H4065 0.950 . S
C4091 C4090 1.414 . S
C4091 C4092 1.374 . S
C4092 H4066 0.950 . S
C4092 C4088 1.385 . S
C4092 C4091 1.374 . S
C4093 C4090 1.499 . S
C4093 C4094 1.373 . S
C4093 C4095 1.389 . S
C4094 H4067 0.950 . S
C4094 C4080 1.377 . S
C4094 C4093 1.373 . S
C4095 C4079 1.377 . S
C4095 C4093 1.389 . S
C4095 C4096 1.524 . S
C4096 C4095 1.524 . S
C4096 C4097 1.397 . S
C4096 C4101 1.363 . S
C4097 H4068 0.950 . S
C4097 C4096 1.397 . S
C4097 C4098 1.334 . S
C4098 H4069 0.950 . S
C4098 C4097 1.334 . S
C4098 C4099 1.287 . S
C4099 C4098 1.287 . S
C4099 C4100 1.524 . S
C4099 H4102 0.999 . S
C4100 H4070 0.950 . S
C4100 C4099 1.524 . S
C4100 C4101 1.415 . S
C4101 H4071 0.950 . S
C4101 C4096 1.363 . S
C4101 C4100 1.415 . S
H4102 C4099 0.999 . S
H4103 C4084 0.913 . S
H4104 C4122 0.951 . S
H4105 C4124 0.951 . S
H4106 C4126 0.950 . S
H4107 C4127 0.950 . S
H4108 C4129 0.950 . S
H4109 C4132 0.950 . S
H4110 C4133 0.950 . S
H4111 C4135 0.950 . S
H4112 C4136 0.950 . S
H4113 C4137 0.951 . S
H4114 C4139 0.951 . S
H4115 C4141 0.950 . S
H4116 C4142 0.950 . S
H4117 C4144 0.950 . S
H4118 C4147 0.950 . S
H4119 C4148 0.950 . S
H4120 C4150 0.950 . S
H4121 C4151 0.950 . S
C4122 H4104 0.951 . S
C4122 C4123 1.366 . S
C4122 C4124 1.388 . S
C4123 C4122 1.366 . S
C4123 C4127 1.385 . S
C4124 H4105 0.951 . S
C4124 C4122 1.388 . S
C4124 C4125 1.366 . S
C4125 C4124 1.366 . S
C4125 C4126 1.414 . S
C4125 C4128 1.499 . S
C4126 H4106 0.950 . S
C4126 C4125 1.414 . S
C4126 C4127 1.374 . S
C4127 H4107 0.950 . S
C4127 C4123 1.385 . S
C4127 C4126 1.374 . S
C4128 C4125 1.499 . S
C4128 C4129 1.373 . S
C4128 C4130 1.389 . S
C4129 H4108 0.950 . S
C4129 C4128 1.373 . S
C4129 C4145 1.377 . S
C4130 C4128 1.389 . S
C4130 C4131 1.524 . S
C4130 C4144 1.377 . S
C4131 C4130 1.524 . S
C4131 C4132 1.397 . S
C4131 C4136 1.363 . S
C4132 H4109 0.950 . S
C4132 C4131 1.397 . S
C4132 C4133 1.334 . S
C4133 H4110 0.950 . S
C4133 C4132 1.334 . S
C4133 C4134 1.287 . S
C4134 C4133 1.287 . S
C4134 C4135 1.524 . S
C4134 H4153 0.913 . S
C4135 H4111 0.950 . S
C4135 C4134 1.524 . S
C4135 C4136 1.415 . S
C4136 H4112 0.950 . S
C4136 C4131 1.363 . S
C4136 C4135 1.415 . S
C4137 H4113 0.951 . S
C4137 C4138 1.366 . S
C4137 C4139 1.388 . S
C4138 C4137 1.366 . S
C4138 C4142 1.385 . S
C4139 H4114 0.951 . S
C4139 C4137 1.388 . S
C4139 C4140 1.366 . S
C4140 C4139 1.366 . S
C4140 C4141 1.414 . S
C4140 C4143 1.499 . S
C4141 H4115 0.950 . S
C4141 C4140 1.414 . S
C4141 C4142 1.374 . S
C4142 H4116 0.950 . S
C4142 C4138 1.385 . S
C4142 C4141 1.374 . S
C4143 C4140 1.499 . S
C4143 C4144 1.373 . S
C4143 C4145 1.389 . S
C4144 H4117 0.950 . S
C4144 C4130 1.377 . S
C4144 C4143 1.373 . S
C4145 C4129 1.377 . S
C4145 C4143 1.389 . S
C4145 C4146 1.524 . S
C4146 C4145 1.524 . S
C4146 C4147 1.397 . S
C4146 C4151 1.363 . S
C4147 H4118 0.950 . S
C4147 C4146 1.397 . S
C4147 C4148 1.334 . S
C4148 H4119 0.950 . S
C4148 C4147 1.334 . S
C4148 C4149 1.287 . S
C4149 C4148 1.287 . S
C4149 C4150 1.524 . S
C4149 H4152 0.999 . S
C4150 H4120 0.950 . S
C4150 C4149 1.524 . S
C4150 C4151 1.415 . S
C4151 H4121 0.950 . S
C4151 C4146 1.363 . S
C4151 C4150 1.415 . S
H4152 C4149 0.999 . S
H4153 C4134 0.913 . S
H4154 C4172 0.951 . S
H4155 C4174 0.951 . S
H4156 C4176 0.950 . S
H4157 C4177 0.950 . S
H4158 C4179 0.950 . S
H4159 C4182 0.950 . S
H4160 C4183 0.950 . S
H4161 C4185 0.950 . S
H4162 C4186 0.950 . S
H4163 C4187 0.951 . S
H4164 C4189 0.951 . S
H4165 C4191 0.950 . S
H4166 C4192 0.950 . S
H4167 C4194 0.950 . S
H4168 C4197 0.950 . S
H4169 C4198 0.950 . S
H4170 C4200 0.950 . S
H4171 C4201 0.950 . S
C4172 H4154 0.951 . S
C4172 C4173 1.366 . S
C4172 C4174 1.388 . S
C4173 C4172 1.366 . S
C4173 C4177 1.385 . S
C4174 H4155 0.951 . S
C4174 C4172 1.388 . S
C4174 C4175 1.366 . S
C4175 C4174 1.366 . S
C4175 C4176 1.414 . S
C4175 C4178 1.499 . S
C4176 H4156 0.950 . S
C4176 C4175 1.414 . S
C4176 C4177 1.374 . S
C4177 H4157 0.950 . S
C4177 C4173 1.385 . S
C4177 C4176 1.374 . S
C4178 C4175 1.499 . S
C4178 C4179 1.373 . S
C4178 C4180 1.389 . S
C4179 H4158 0.950 . S
C4179 C4178 1.373 . S
C4179 C4195 1.377 . S
C4180 C4178 1.389 . S
C4180 C4181 1.524 . S
C4180 C4194 1.377 . S
C4181 C4180 1.524 . S
C4181 C4182 1.397 . S
C4181 C4186 1.363 . S
C4182 H4159 0.950 . S
C4182 C4181 1.397 . S
C4182 C4183 1.334 . S
C4183 H4160 0.950 . S
C4183 C4182 1.334 . S
C4183 C4184 1.287 . S
C4184 C4183 1.287 . S
C4184 C4185 1.524 . S
C4184 H4203 0.913 . S
C4185 H4161 0.950 . S
C4185 C4184 1.524 . S
C4185 C4186 1.415 . S
C4186 H4162 0.950 . S
C4186 C4181 1.363 . S
C4186 C4185 1.415 . S
C4187 H4163 0.951 . S
C4187 C4188 1.366 . S
C4187 C4189 1.388 . S
C4188 C4187 1.366 . S
C4188 C4192 1.385 . S
C4189 H4164 0.951 . S
C4189 C4187 1.388 . S
C4189 C4190 1.366 . S
C4190 C4189 1.366 . S
C4190 C4191 1.414 . S
C4190 C4193 1.499 . S
C4191 H4165 0.950 . S
C4191 C4190 1.414 . S
C4191 C4192 1.374 . S
C4192 H4166 0.950 . S
C4192 C4188 1.385 . S
C4192 C4191 1.374 . S
C4193 C4190 1.499 . S
C4193 C4194 1.373 . S
C4193 C4195 1.389 . S
C4194 H4167 0.950 . S
C4194 C4180 1.377 . S
C4194 C4193 1.373 . S
C4195 C4179 1.377 . S
C4195 C4193 1.389 . S
C4195 C4196 1.524 . S
C4196 C4195 1.524 . S
C4196 C4197 1.397 . S
C4196 C4201 1.363 . S
C4197 H4168 0.950 . S
C4197 C4196 1.397 . S
C4197 C4198 1.334 . S
C4198 H4169 0.950 . S
C4198 C4197 1.334 . S
C4198 C4199 1.287 . S
C4199 C4198 1.287 . S
C4199 C4200 1.524 . S
C4199 H4202 0.999 . S
C4200 H4170 0.950 . S
C4200 C4199 1.524 . S
C4200 C4201 1.415 . S
C4201 H4171 0.950 . S
C4201 C4196 1.363 . S
C4201 C4200 1.415 . S
H4202 C4199 0.999 . S
H4203 C4184 0.913 . S
H4204 C4222 0.951 . S
H4205 C4224 0.951 . S
H4206 C4226 0.950 . S
H4207 C4227 0.950 . S
H4208 C4229 0.950 . S
H4209 C4232 0.950 . S
H4210 C4233 0.950 . S
H4211 C4235 0.950 . S
H4212 C4236 0.950 . S
H4213 C4237 0.951 . S
H4214 C4239 0.951 . S
H4215 C4241 0.950 . S
H4216 C4242 0.950 . S
H4217 C4244 0.950 . S
H4218 C4247 0.950 . S
H4219 C4248 0.950 . S
H4220 C4250 0.950 . S
H4221 C4251 0.961 . S
C4222 H4204 0.951 . S
C4222 C4223 1.366 . S
C4222 C4224 1.388 . S
C4223 C4222 1.366 . S
C4223 C4227 1.385 . S
C4224 H4205 0.951 . S
C4224 C4222 1.388 . S
C4224 C4225 1.366 . S
C4225 C4224 1.366 . S
C4225 C4226 1.414 . S
C4225 C4228 1.499 . S
C4226 H4206 0.950 . S
C4226 C4225 1.414 . S
C4226 C4227 1.374 . S
C4227 H4207 0.950 . S
C4227 C4223 1.385 . S
C4227 C4226 1.374 . S
C4228 C4225 1.499 . S
C4228 C4229 1.373 . S
C4228 C4230 1.389 . S
C4229 H4208 0.950 . S
C4229 C4228 1.373 . S
C4229 C4245 1.377 . S
C4230 C4228 1.389 . S
C4230 C4231 1.524 . S
C4230 C4244 1.377 . S
C4231 C4230 1.524 . S
C4231 C4232 1.397 . S
C4231 C4236 1.363 . S
C4232 H4209 0.950 . S
C4232 C4231 1.397 . S
C4232 C4233 1.334 . S
C4233 H4210 0.950 . S
C4233 C4232 1.334 . S
C4233 C4234 1.287 . S
C4234 C4233 1.287 . S
C4234 C4235 1.524 . S
C4234 H4253 0.913 . S
C4235 H4211 0.950 . S
C4235 C4234 1.524 . S
C4235 C4236 1.415 . S
C4236 H4212 0.950 . S
C4236 C4231 1.363 . S
C4236 C4235 1.415 . S
C4237 H4213 0.951 . S
C4237 C4238 1.366 . S
C4237 C4239 1.388 . S
C4238 C4237 1.366 . S
C4238 C4242 1.385 . S
C4239 H4214 0.951 . S
C4239 C4237 1.388 . S
C4239 C4240 1.366 . S
C4240 C4239 1.366 . S
C4240 C4241 1.414 . S
C4240 C4243 1.499 . S
C4241 H4215 0.950 . S
C4241 C4240 1.414 . S
C4241 C4242 1.374 . S
C4242 H4216 0.950 . S
C4242 C4238 1.385 . S
C4242 C4241 1.374 . S
C4243 C4240 1.499 . S
C4243 C4244 1.373 . S
C4243 C4245 1.389 . S
C4244 H4217 0.950 . S
C4244 C4230 1.377 . S
C4244 C4243 1.373 . S
C4245 C4229 1.377 . S
C4245 C4243 1.389 . S
C4245 C4246 1.524 . S
C4246 C4245 1.524 . S
C4246 C4247 1.397 . S
C4246 C4251 1.340 1_455 S
C4247 H4218 0.950 . S
C4247 C4246 1.397 . S
C4247 C4248 1.334 . S
C4248 H4219 0.950 . S
C4248 C4247 1.334 . S
C4248 C4249 1.287 1_455 S
C4249 C4248 1.287 1_655 S
C4249 C4250 1.524 . S
C4249 H4252 0.999 . S
C4250 H4220 0.950 . S
C4250 C4249 1.524 . S
C4250 C4251 1.427 . S
C4251 H4221 0.961 . S
C4251 C4246 1.340 1_655 S
C4251 C4250 1.427 . S
H4252 C4249 0.999 . S
H4253 C4234 0.913 . S
H4254 C4272 0.951 . S
H4255 C4274 0.951 . S
H4256 C4276 0.950 . S
H4257 C4277 0.950 . S
H4258 C4279 0.950 . S
H4259 C4282 0.950 . S
H4260 C4283 0.950 . S
H4261 C4285 0.950 . S
H4262 C4286 0.950 . S
H4263 C4287 0.951 . S
H4264 C4289 0.951 . S
H4265 C4291 0.950 . S
H4266 C4292 0.950 . S
H4267 C4294 0.950 . S
H4268 C4297 0.950 . S
H4269 C4298 0.950 . S
H4270 C4300 0.950 . S
H4271 C4301 0.950 . S
C4272 H4254 0.951 . S
C4272 C4273 1.366 . S
C4272 C4274 1.388 . S
C4273 C4272 1.366 . S
C4273 C4277 1.385 . S
C4274 H4255 0.951 . S
C4274 C4272 1.388 . S
C4274 C4275 1.366 . S
C4275 C4274 1.366 . S
C4275 C4276 1.414 . S
C4275 C4278 1.499 . S
C4276 H4256 0.950 . S
C4276 C4275 1.414 . S
C4276 C4277 1.374 . S
C4277 H4257 0.950 . S
C4277 C4273 1.385 . S
C4277 C4276 1.374 . S
C4278 C4275 1.499 . S
C4278 C4279 1.373 . S
C4278 C4280 1.389 . S
C4279 H4258 0.950 . S
C4279 C4278 1.373 . S
C4279 C4295 1.377 . S
C4280 C4278 1.389 . S
C4280 C4281 1.524 . S
C4280 C4294 1.377 . S
C4281 C4280 1.524 . S
C4281 C4282 1.397 . S
C4281 C4286 1.363 . S
C4282 H4259 0.950 . S
C4282 C4281 1.397 . S
C4282 C4283 1.334 . S
C4283 H4260 0.950 . S
C4283 C4282 1.334 . S
C4283 C4284 1.287 . S
C4284 C4283 1.287 . S
C4284 C4285 1.524 . S
C4284 H4303 0.913 . S
C4285 H4261 0.950 . S
C4285 C4284 1.524 . S
C4285 C4286 1.415 . S
C4286 H4262 0.950 . S
C4286 C4281 1.363 . S
C4286 C4285 1.415 . S
C4287 H4263 0.951 . S
C4287 C4288 1.366 . S
C4287 C4289 1.388 . S
C4288 C4287 1.366 . S
C4288 C4292 1.385 . S
C4289 H4264 0.951 . S
C4289 C4287 1.388 . S
C4289 C4290 1.366 . S
C4290 C4289 1.366 . S
C4290 C4291 1.414 . S
C4290 C4293 1.499 . S
C4291 H4265 0.950 . S
C4291 C4290 1.414 . S
C4291 C4292 1.374 . S
C4292 H4266 0.950 . S
C4292 C4288 1.385 . S
C4292 C4291 1.374 . S
C4293 C4290 1.499 . S
C4293 C4294 1.373 . S
C4293 C4295 1.389 . S
C4294 H4267 0.950 . S
C4294 C4280 1.377 . S
C4294 C4293 1.373 . S
C4295 C4279 1.377 . S
C4295 C4293 1.389 . S
C4295 C4296 1.524 . S
C4296 C4295 1.524 . S
C4296 C4297 1.397 . S
C4296 C4301 1.363 . S
C4297 H4268 0.950 . S
C4297 C4296 1.397 . S
C4297 C4298 1.334 . S
C4298 H4269 0.950 . S
C4298 C4297 1.334 . S
C4298 C4299 1.287 . S
C4299 C4298 1.287 . S
C4299 C4300 1.524 . S
C4299 H4302 0.999 . S
C4300 H4270 0.950 . S
C4300 C4299 1.524 . S
C4300 C4301 1.415 . S
C4301 H4271 0.950 . S
C4301 C4296 1.363 . S
C4301 C4300 1.415 . S
H4302 C4299 0.999 . S
H4303 C4284 0.913 . S
H4304 C4322 0.951 . S
H4305 C4324 0.951 . S
H4306 C4326 0.950 . S
H4307 C4327 0.950 . S
H4308 C4329 0.950 . S
H4309 C4332 0.950 . S
H4310 C4333 0.950 . S
H4311 C4335 0.950 . S
H4312 C4336 0.950 . S
H4313 C4337 0.951 . S
H4314 C4339 0.951 . S
H4315 C4341 0.950 . S
H4316 C4342 0.950 . S
H4317 C4344 0.950 . S
H4318 C4347 0.950 . S
H4319 C4348 0.950 . S
H4320 C4350 0.950 . S
H4321 C4351 0.950 . S
C4322 H4304 0.951 . S
C4322 C4323 1.366 . S
C4322 C4324 1.388 . S
C4323 C4322 1.366 . S
C4323 C4327 1.385 . S
C4324 H4305 0.951 . S
C4324 C4322 1.388 . S
C4324 C4325 1.366 . S
C4325 C4324 1.366 . S
C4325 C4326 1.414 . S
C4325 C4328 1.499 . S
C4326 H4306 0.950 . S
C4326 C4325 1.414 . S
C4326 C4327 1.374 . S
C4327 H4307 0.950 . S
C4327 C4323 1.385 . S
C4327 C4326 1.374 . S
C4328 C4325 1.499 . S
C4328 C4329 1.373 . S
C4328 C4330 1.389 . S
C4329 H4308 0.950 . S
C4329 C4328 1.373 . S
C4329 C4345 1.377 . S
C4330 C4328 1.389 . S
C4330 C4331 1.524 . S
C4330 C4344 1.377 . S
C4331 C4330 1.524 . S
C4331 C4332 1.397 . S
C4331 C4336 1.363 . S
C4332 H4309 0.950 . S
C4332 C4331 1.397 . S
C4332 C4333 1.334 . S
C4333 H4310 0.950 . S
C4333 C4332 1.334 . S
C4333 C4334 1.287 . S
C4334 C4333 1.287 . S
C4334 C4335 1.524 . S
C4334 H4353 0.913 . S
C4335 H4311 0.950 . S
C4335 C4334 1.524 . S
C4335 C4336 1.415 . S
C4336 H4312 0.950 . S
C4336 C4331 1.363 . S
C4336 C4335 1.415 . S
C4337 H4313 0.951 . S
C4337 C4338 1.366 . S
C4337 C4339 1.388 . S
C4338 C4337 1.366 . S
C4338 C4342 1.385 . S
C4339 H4314 0.951 . S
C4339 C4337 1.388 . S
C4339 C4340 1.366 . S
C4340 C4339 1.366 . S
C4340 C4341 1.414 . S
C4340 C4343 1.499 . S
C4341 H4315 0.950 . S
C4341 C4340 1.414 . S
C4341 C4342 1.374 . S
C4342 H4316 0.950 . S
C4342 C4338 1.385 . S
C4342 C4341 1.374 . S
C4343 C4340 1.499 . S
C4343 C4344 1.373 . S
C4343 C4345 1.389 . S
C4344 H4317 0.950 . S
C4344 C4330 1.377 . S
C4344 C4343 1.373 . S
C4345 C4329 1.377 . S
C4345 C4343 1.389 . S
C4345 C4346 1.524 . S
C4346 C4345 1.524 . S
C4346 C4347 1.397 . S
C4346 C4351 1.363 . S
C4347 H4318 0.950 . S
C4347 C4346 1.397 . S
C4347 C4348 1.334 . S
C4348 H4319 0.950 . S
C4348 C4347 1.334 . S
C4348 C4349 1.287 . S
C4349 C4348 1.287 . S
C4349 C4350 1.524 . S
C4349 H4352 0.999 . S
C4350 H4320 0.950 . S
C4350 C4349 1.524 . S
C4350 C4351 1.415 . S
C4351 H4321 0.950 . S
C4351 C4346 1.363 . S
C4351 C4350 1.415 . S
H4352 C4349 0.999 . S
H4353 C4334 0.913 . S
H4354 C4372 0.951 . S
H4355 C4374 0.951 . S
H4356 C4376 0.950 . S
H4357 C4377 0.952 . S
H4358 C4379 0.950 . S
H4359 C4382 0.950 . S
H4360 C4383 0.950 1_554 S
H4361 C4385 0.950 . S
H4362 C4386 0.950 . S
H4363 C4387 0.951 . S
H4364 C4389 0.951 . S
H4365 C4391 0.950 . S
H4366 C4392 0.950 . S
H4367 C4394 0.950 . S
H4368 C4397 0.950 . S
H4369 C4398 0.950 . S
H4370 C4400 0.950 . S
H4371 C4401 0.950 . S
C4372 H4354 0.951 . S
C4372 C4373 1.366 . S
C4372 C4374 1.388 1_554 S
C4373 C4372 1.366 . S
C4373 C4377 1.391 . S
C4374 H4355 0.951 . S
C4374 C4372 1.388 1_556 S
C4374 C4375 1.366 . S
C4375 C4374 1.366 . S
C4375 C4376 1.414 . S
C4375 C4378 1.499 . S
C4376 H4356 0.950 . S
C4376 C4375 1.414 . S
C4376 C4377 1.365 1_556 S
C4377 H4357 0.952 . S
C4377 C4373 1.391 . S
C4377 C4376 1.365 1_554 S
C4378 C4375 1.499 . S
C4378 C4379 1.373 . S
C4378 C4380 1.389 . S
C4379 H4358 0.950 . S
C4379 C4378 1.373 . S
C4379 C4395 1.377 . S
C4380 C4378 1.389 . S
C4380 C4381 1.524 . S
C4380 C4394 1.377 . S
C4381 C4380 1.524 . S
C4381 C4382 1.397 . S
C4381 C4386 1.363 . S
C4382 H4359 0.950 . S
C4382 C4381 1.397 . S
C4382 C4383 1.334 . S
C4383 H4360 0.950 1_556 S
C4383 C4382 1.334 . S
C4383 C4384 1.287 . S
C4384 C4383 1.287 . S
C4384 C4385 1.524 . S
C4384 H4403 0.913 1_556 S
C4385 H4361 0.950 . S
C4385 C4384 1.524 . S
C4385 C4386 1.415 . S
C4386 H4362 0.950 . S
C4386 C4381 1.363 . S
C4386 C4385 1.415 . S
C4387 H4363 0.951 . S
C4387 C4388 1.366 . S
C4387 C4389 1.388 . S
C4388 C4387 1.366 . S
C4388 C4392 1.385 . S
C4389 H4364 0.951 . S
C4389 C4387 1.388 . S
C4389 C4390 1.366 . S
C4390 C4389 1.366 . S
C4390 C4391 1.414 . S
C4390 C4393 1.499 . S
C4391 H4365 0.950 . S
C4391 C4390 1.414 . S
C4391 C4392 1.374 . S
C4392 H4366 0.950 . S
C4392 C4388 1.385 . S
C4392 C4391 1.374 . S
C4393 C4390 1.499 . S
C4393 C4394 1.373 . S
C4393 C4395 1.389 . S
C4394 H4367 0.950 . S
C4394 C4380 1.377 . S
C4394 C4393 1.373 . S
C4395 C4379 1.377 . S
C4395 C4393 1.389 . S
C4395 C4396 1.524 . S
C4396 C4395 1.524 . S
C4396 C4397 1.397 . S
C4396 C4401 1.363 . S
C4397 H4368 0.950 . S
C4397 C4396 1.397 . S
C4397 C4398 1.334 . S
C4398 H4369 0.950 . S
C4398 C4397 1.334 . S
C4398 C4399 1.287 . S
C4399 C4398 1.287 . S
C4399 C4400 1.524 . S
C4399 H4402 0.999 . S
C4400 H4370 0.950 . S
C4400 C4399 1.524 . S
C4400 C4401 1.415 . S
C4401 H4371 0.950 . S
C4401 C4396 1.363 . S
C4401 C4400 1.415 . S
H4402 C4399 0.999 . S
H4403 C4384 0.913 1_554 S
H4404 C4422 0.951 . S
H4405 C4424 0.951 . S
H4406 C4426 0.950 . S
H4407 C4427 0.950 . S
H4408 C4429 0.950 . S
H4409 C4432 0.950 . S
H4410 C4433 0.950 . S
H4411 C4435 0.950 . S
H4412 C4436 0.950 . S
H4413 C4437 0.951 . S
H4414 C4439 0.951 . S
H4415 C4441 0.950 . S
H4416 C4442 0.950 . S
H4417 C4444 0.950 . S
H4418 C4447 0.950 . S
H4419 C4448 0.950 . S
H4420 C4450 0.950 . S
H4421 C4451 0.950 . S
C4422 H4404 0.951 . S
C4422 C4423 1.366 . S
C4422 C4424 1.388 . S
C4423 C4422 1.366 . S
C4423 C4427 1.385 . S
C4424 H4405 0.951 . S
C4424 C4422 1.388 . S
C4424 C4425 1.366 . S
C4425 C4424 1.366 . S
C4425 C4426 1.414 . S
C4425 C4428 1.499 . S
C4426 H4406 0.950 . S
C4426 C4425 1.414 . S
C4426 C4427 1.374 . S
C4427 H4407 0.950 . S
C4427 C4423 1.385 . S
C4427 C4426 1.374 . S
C4428 C4425 1.499 . S
C4428 C4429 1.373 . S
C4428 C4430 1.389 . S
C4429 H4408 0.950 . S
C4429 C4428 1.373 . S
C4429 C4445 1.377 . S
C4430 C4428 1.389 . S
C4430 C4431 1.524 . S
C4430 C4444 1.377 . S
C4431 C4430 1.524 . S
C4431 C4432 1.397 . S
C4431 C4436 1.363 . S
C4432 H4409 0.950 . S
C4432 C4431 1.397 . S
C4432 C4433 1.334 . S
C4433 H4410 0.950 . S
C4433 C4432 1.334 . S
C4433 C4434 1.287 . S
C4434 C4433 1.287 . S
C4434 C4435 1.524 . S
C4434 H4453 0.913 . S
C4435 H4411 0.950 . S
C4435 C4434 1.524 . S
C4435 C4436 1.415 . S
C4436 H4412 0.950 . S
C4436 C4431 1.363 . S
C4436 C4435 1.415 . S
C4437 H4413 0.951 . S
C4437 C4438 1.366 . S
C4437 C4439 1.388 . S
C4438 C4437 1.366 . S
C4438 C4442 1.385 . S
C4439 H4414 0.951 . S
C4439 C4437 1.388 . S
C4439 C4440 1.366 . S
C4440 C4439 1.366 . S
C4440 C4441 1.414 . S
C4440 C4443 1.499 . S
C4441 H4415 0.950 . S
C4441 C4440 1.414 . S
C4441 C4442 1.374 . S
C4442 H4416 0.950 . S
C4442 C4438 1.385 . S
C4442 C4441 1.374 . S
C4443 C4440 1.499 . S
C4443 C4444 1.373 . S
C4443 C4445 1.389 . S
C4444 H4417 0.950 . S
C4444 C4430 1.377 . S
C4444 C4443 1.373 . S
C4445 C4429 1.377 . S
C4445 C4443 1.389 . S
C4445 C4446 1.524 . S
C4446 C4445 1.524 . S
C4446 C4447 1.397 . S
C4446 C4451 1.363 . S
C4447 H4418 0.950 . S
C4447 C4446 1.397 . S
C4447 C4448 1.334 . S
C4448 H4419 0.950 . S
C4448 C4447 1.334 . S
C4448 C4449 1.287 . S
C4449 C4448 1.287 . S
C4449 C4450 1.524 . S
C4449 H4452 0.999 . S
C4450 H4420 0.950 . S
C4450 C4449 1.524 . S
C4450 C4451 1.415 . S
C4451 H4421 0.950 . S
C4451 C4446 1.363 . S
C4451 C4450 1.415 . S
H4452 C4449 0.999 . S
H4453 C4434 0.913 . S
H4454 C4472 0.951 . S
H4455 C4474 0.951 . S
H4456 C4476 0.950 . S
H4457 C4477 0.950 . S
H4458 C4479 0.950 . S
H4459 C4482 0.950 . S
H4460 C4483 0.950 . S
H4461 C4485 0.950 . S
H4462 C4486 0.950 . S
H4463 C4487 0.951 . S
H4464 C4489 0.951 . S
H4465 C4491 0.950 . S
H4466 C4492 0.950 . S
H4467 C4494 0.950 . S
H4468 C4497 0.950 . S
H4469 C4498 0.950 . S
H4470 C4500 0.950 . S
H4471 C4501 0.950 . S
C4472 H4454 0.951 . S
C4472 C4473 1.366 . S
C4472 C4474 1.388 . S
C4473 C4472 1.366 . S
C4473 C4477 1.385 . S
C4474 H4455 0.951 . S
C4474 C4472 1.388 . S
C4474 C4475 1.366 . S
C4475 C4474 1.366 . S
C4475 C4476 1.414 . S
C4475 C4478 1.499 . S
C4476 H4456 0.950 . S
C4476 C4475 1.414 . S
C4476 C4477 1.374 . S
C4477 H4457 0.950 . S
C4477 C4473 1.385 . S
C4477 C4476 1.374 . S
C4478 C4475 1.499 . S
C4478 C4479 1.373 . S
C4478 C4480 1.389 . S
C4479 H4458 0.950 . S
C4479 C4478 1.373 . S
C4479 C4495 1.377 . S
C4480 C4478 1.389 . S
C4480 C4481 1.524 . S
C4480 C4494 1.377 . S
C4481 C4480 1.524 . S
C4481 C4482 1.397 . S
C4481 C4486 1.363 . S
C4482 H4459 0.950 . S
C4482 C4481 1.397 . S
C4482 C4483 1.334 . S
C4483 H4460 0.950 . S
C4483 C4482 1.334 . S
C4483 C4484 1.287 . S
C4484 C4483 1.287 . S
C4484 C4485 1.524 . S
C4484 H4503 0.913 . S
C4485 H4461 0.950 . S
C4485 C4484 1.524 . S
C4485 C4486 1.415 . S
C4486 H4462 0.950 . S
C4486 C4481 1.363 . S
C4486 C4485 1.415 . S
C4487 H4463 0.951 . S
C4487 C4488 1.366 . S
C4487 C4489 1.388 . S
C4488 C4487 1.366 . S
C4488 C4492 1.385 . S
C4489 H4464 0.951 . S
C4489 C4487 1.388 . S
C4489 C4490 1.366 . S
C4490 C4489 1.366 . S
C4490 C4491 1.414 . S
C4490 C4493 1.499 . S
C4491 H4465 0.950 . S
C4491 C4490 1.414 . S
C4491 C4492 1.374 . S
C4492 H4466 0.950 . S
C4492 C4488 1.385 . S
C4492 C4491 1.374 . S
C4493 C4490 1.499 . S
C4493 C4494 1.373 . S
C4493 C4495 1.389 . S
C4494 H4467 0.950 . S
C4494 C4480 1.377 . S
C4494 C4493 1.373 . S
C4495 C4479 1.377 . S
C4495 C4493 1.389 . S
C4495 C4496 1.524 . S
C4496 C4495 1.524 . S
C4496 C4497 1.397 . S
C4496 C4501 1.363 . S
C4497 H4468 0.950 . S
C4497 C4496 1.397 . S
C4497 C4498 1.334 . S
C4498 H4469 0.950 . S
C4498 C4497 1.334 . S
C4498 C4499 1.287 . S
C4499 C4498 1.287 . S
C4499 C4500 1.524 . S
C4499 H4502 0.999 . S
C4500 H4470 0.950 . S
C4500 C4499 1.524 . S
C4500 C4501 1.415 . S
C4501 H4471 0.950 . S
C4501 C4496 1.363 . S
C4501 C4500 1.415 . S
H4502 C4499 0.999 . S
H4503 C4484 0.913 . S
H4504 C4522 0.951 . S
H4505 C4524 0.951 . S
H4506 C4526 0.950 . S
H4507 C4527 0.950 . S
H4508 C4529 0.950 . S
H4509 C4532 0.950 . S
H4510 C4533 0.950 . S
H4511 C4535 0.950 . S
H4512 C4536 0.950 . S
H4513 C4537 0.951 . S
H4514 C4539 0.951 . S
H4515 C4541 0.950 . S
H4516 C4542 0.950 . S
H4517 C4544 0.950 . S
H4518 C4547 0.950 . S
H4519 C4548 0.950 . S
H4520 C4550 0.950 . S
H4521 C4551 0.950 . S
C4522 H4504 0.951 . S
C4522 C4523 1.366 . S
C4522 C4524 1.388 . S
C4523 C4522 1.366 . S
C4523 C4527 1.385 . S
C4524 H4505 0.951 . S
C4524 C4522 1.388 . S
C4524 C4525 1.366 . S
C4525 C4524 1.366 . S
C4525 C4526 1.414 . S
C4525 C4528 1.499 . S
C4526 H4506 0.950 . S
C4526 C4525 1.414 . S
C4526 C4527 1.374 . S
C4527 H4507 0.950 . S
C4527 C4523 1.385 . S
C4527 C4526 1.374 . S
C4528 C4525 1.499 . S
C4528 C4529 1.373 . S
C4528 C4530 1.389 . S
C4529 H4508 0.950 . S
C4529 C4528 1.373 . S
C4529 C4545 1.377 . S
C4530 C4528 1.389 . S
C4530 C4531 1.524 . S
C4530 C4544 1.377 . S
C4531 C4530 1.524 . S
C4531 C4532 1.397 . S
C4531 C4536 1.363 . S
C4532 H4509 0.950 . S
C4532 C4531 1.397 . S
C4532 C4533 1.334 . S
C4533 H4510 0.950 . S
C4533 C4532 1.334 . S
C4533 C4534 1.287 . S
C4534 C4533 1.287 . S
C4534 C4535 1.524 . S
C4534 H4553 0.913 . S
C4535 H4511 0.950 . S
C4535 C4534 1.524 . S
C4535 C4536 1.415 . S
C4536 H4512 0.950 . S
C4536 C4531 1.363 . S
C4536 C4535 1.415 . S
C4537 H4513 0.951 . S
C4537 C4538 1.366 . S
C4537 C4539 1.388 . S
C4538 C4537 1.366 . S
C4538 C4542 1.385 . S
C4539 H4514 0.951 . S
C4539 C4537 1.388 . S
C4539 C4540 1.366 . S
C4540 C4539 1.366 . S
C4540 C4541 1.414 . S
C4540 C4543 1.499 . S
C4541 H4515 0.950 . S
C4541 C4540 1.414 . S
C4541 C4542 1.374 . S
C4542 H4516 0.950 . S
C4542 C4538 1.385 . S
C4542 C4541 1.374 . S
C4543 C4540 1.499 . S
C4543 C4544 1.373 . S
C4543 C4545 1.389 . S
C4544 H4517 0.950 . S
C4544 C4530 1.377 . S
C4544 C4543 1.373 . S
C4545 C4529 1.377 . S
C4545 C4543 1.389 . S
C4545 C4546 1.524 . S
C4546 C4545 1.524 . S
C4546 C4547 1.397 . S
C4546 C4551 1.363 . S
C4547 H4518 0.950 . S
C4547 C4546 1.397 . S
C4547 C4548 1.334 . S
C4548 H4519 0.950 . S
C4548 C4547 1.334 . S
C4548 C4549 1.287 . S
C4549 C4548 1.287 . S
C4549 C4550 1.524 . S
C4549 H4552 0.999 . S
C4550 H4520 0.950 . S
C4550 C4549 1.524 . S
C4550 C4551 1.415 . S
C4551 H4521 0.950 . S
C4551 C4546 1.363 . S
C4551 C4550 1.415 . S
H4552 C4549 0.999 . S
H4553 C4534 0.913 . S
H4554 C4572 0.951 . S
H4555 C4574 0.951 . S
H4556 C4576 0.950 . S
H4557 C4577 0.950 . S
H4558 C4579 0.950 . S
H4559 C4582 0.950 . S
H4560 C4583 0.950 . S
H4561 C4585 0.950 . S
H4562 C4586 0.950 . S
H4563 C4587 0.951 . S
H4564 C4589 0.951 . S
H4565 C4591 0.950 . S
H4566 C4592 0.950 . S
H4567 C4594 0.950 . S
H4568 C4597 0.950 . S
H4569 C4598 0.950 . S
H4570 C4600 0.950 . S
H4571 C4601 0.950 . S
C4572 H4554 0.951 . S
C4572 C4573 1.366 . S
C4572 C4574 1.388 . S
C4573 C4572 1.366 . S
C4573 C4577 1.385 . S
C4574 H4555 0.951 . S
C4574 C4572 1.388 . S
C4574 C4575 1.366 . S
C4575 C4574 1.366 . S
C4575 C4576 1.414 . S
C4575 C4578 1.499 . S
C4576 H4556 0.950 . S
C4576 C4575 1.414 . S
C4576 C4577 1.374 . S
C4577 H4557 0.950 . S
C4577 C4573 1.385 . S
C4577 C4576 1.374 . S
C4578 C4575 1.499 . S
C4578 C4579 1.373 . S
C4578 C4580 1.389 . S
C4579 H4558 0.950 . S
C4579 C4578 1.373 . S
C4579 C4595 1.377 . S
C4580 C4578 1.389 . S
C4580 C4581 1.524 . S
C4580 C4594 1.377 . S
C4581 C4580 1.524 . S
C4581 C4582 1.397 . S
C4581 C4586 1.363 . S
C4582 H4559 0.950 . S
C4582 C4581 1.397 . S
C4582 C4583 1.334 . S
C4583 H4560 0.950 . S
C4583 C4582 1.334 . S
C4583 C4584 1.287 . S
C4584 C4583 1.287 . S
C4584 C4585 1.524 . S
C4584 H4603 0.913 . S
C4585 H4561 0.950 . S
C4585 C4584 1.524 . S
C4585 C4586 1.415 . S
C4586 H4562 0.950 . S
C4586 C4581 1.363 . S
C4586 C4585 1.415 . S
C4587 H4563 0.951 . S
C4587 C4588 1.366 . S
C4587 C4589 1.388 . S
C4588 C4587 1.366 . S
C4588 C4592 1.385 . S
C4589 H4564 0.951 . S
C4589 C4587 1.388 . S
C4589 C4590 1.366 . S
C4590 C4589 1.366 . S
C4590 C4591 1.414 . S
C4590 C4593 1.499 . S
C4591 H4565 0.950 . S
C4591 C4590 1.414 . S
C4591 C4592 1.374 . S
C4592 H4566 0.950 . S
C4592 C4588 1.385 . S
C4592 C4591 1.374 . S
C4593 C4590 1.499 . S
C4593 C4594 1.373 . S
C4593 C4595 1.389 . S
C4594 H4567 0.950 . S
C4594 C4580 1.377 . S
C4594 C4593 1.373 . S
C4595 C4579 1.377 . S
C4595 C4593 1.389 . S
C4595 C4596 1.524 . S
C4596 C4595 1.524 . S
C4596 C4597 1.397 . S
C4596 C4601 1.363 . S
C4597 H4568 0.950 . S
C4597 C4596 1.397 . S
C4597 C4598 1.334 . S
C4598 H4569 0.950 . S
C4598 C4597 1.334 . S
C4598 C4599 1.287 . S
C4599 C4598 1.287 . S
C4599 C4600 1.524 . S
C4599 H4602 0.999 . S
C4600 H4570 0.950 . S
C4600 C4599 1.524 . S
C4600 C4601 1.415 . S
C4601 H4571 0.950 . S
C4601 C4596 1.363 . S
C4601 C4600 1.415 . S
H4602 C4599 0.999 . S
H4603 C4584 0.913 . S
H4604 C4622 0.951 . S
H4605 C4624 0.951 . S
H4606 C4626 0.950 . S
H4607 C4627 0.950 . S
H4608 C4629 0.950 . S
H4609 C4632 0.950 . S
H4610 C4633 0.950 . S
H4611 C4635 0.950 . S
H4612 C4636 0.950 . S
H4613 C4637 0.951 . S
H4614 C4639 0.951 . S
H4615 C4641 0.950 . S
H4616 C4642 0.950 . S
H4617 C4644 0.950 . S
H4618 C4647 0.950 . S
H4619 C4648 0.950 . S
H4620 C4650 0.950 . S
H4621 C4651 0.950 . S
C4622 H4604 0.951 . S
C4622 C4623 1.366 . S
C4622 C4624 1.388 . S
C4623 C4622 1.366 . S
C4623 C4627 1.385 . S
C4624 H4605 0.951 . S
C4624 C4622 1.388 . S
C4624 C4625 1.366 . S
C4625 C4624 1.366 . S
C4625 C4626 1.414 . S
C4625 C4628 1.499 . S
C4626 H4606 0.950 . S
C4626 C4625 1.414 . S
C4626 C4627 1.374 . S
C4627 H4607 0.950 . S
C4627 C4623 1.385 . S
C4627 C4626 1.374 . S
C4628 C4625 1.499 . S
C4628 C4629 1.373 . S
C4628 C4630 1.389 . S
C4629 H4608 0.950 . S
C4629 C4628 1.373 . S
C4629 C4645 1.377 . S
C4630 C4628 1.389 . S
C4630 C4631 1.524 . S
C4630 C4644 1.377 . S
C4631 C4630 1.524 . S
C4631 C4632 1.397 . S
C4631 C4636 1.363 . S
C4632 H4609 0.950 . S
C4632 C4631 1.397 . S
C4632 C4633 1.334 . S
C4633 H4610 0.950 . S
C4633 C4632 1.334 . S
C4633 C4634 1.287 . S
C4634 C4633 1.287 . S
C4634 C4635 1.524 . S
C4634 H4653 0.913 . S
C4635 H4611 0.950 . S
C4635 C4634 1.524 . S
C4635 C4636 1.415 . S
C4636 H4612 0.950 . S
C4636 C4631 1.363 . S
C4636 C4635 1.415 . S
C4637 H4613 0.951 . S
C4637 C4638 1.366 . S
C4637 C4639 1.388 . S
C4638 C4637 1.366 . S
C4638 C4642 1.385 . S
C4639 H4614 0.951 . S
C4639 C4637 1.388 . S
C4639 C4640 1.366 . S
C4640 C4639 1.366 . S
C4640 C4641 1.414 . S
C4640 C4643 1.499 . S
C4641 H4615 0.950 . S
C4641 C4640 1.414 . S
C4641 C4642 1.374 . S
C4642 H4616 0.950 . S
C4642 C4638 1.385 . S
C4642 C4641 1.374 . S
C4643 C4640 1.499 . S
C4643 C4644 1.373 . S
C4643 C4645 1.389 . S
C4644 H4617 0.950 . S
C4644 C4630 1.377 . S
C4644 C4643 1.373 . S
C4645 C4629 1.377 . S
C4645 C4643 1.389 . S
C4645 C4646 1.524 . S
C4646 C4645 1.524 . S
C4646 C4647 1.397 . S
C4646 C4651 1.363 . S
C4647 H4618 0.950 . S
C4647 C4646 1.397 . S
C4647 C4648 1.334 . S
C4648 H4619 0.950 . S
C4648 C4647 1.334 . S
C4648 C4649 1.287 . S
C4649 C4648 1.287 . S
C4649 C4650 1.524 . S
C4649 H4652 0.999 . S
C4650 H4620 0.950 . S
C4650 C4649 1.524 . S
C4650 C4651 1.415 . S
C4651 H4621 0.950 . S
C4651 C4646 1.363 . S
C4651 C4650 1.415 . S
H4652 C4649 0.999 . S
H4653 C4634 0.913 . S
H4654 C4672 0.951 . S
H4655 C4674 0.951 . S
H4656 C4676 0.950 . S
H4657 C4677 0.950 . S
H4658 C4679 0.950 . S
H4659 C4682 0.950 . S
H4660 C4683 0.950 . S
H4661 C4685 0.950 . S
H4662 C4686 0.950 . S
H4663 C4687 0.951 . S
H4664 C4689 0.951 . S
H4665 C4691 0.950 . S
H4666 C4692 0.950 . S
H4667 C4694 0.950 . S
H4668 C4697 0.950 . S
H4669 C4698 0.950 . S
H4670 C4700 0.950 . S
H4671 C4701 0.950 . S
C4672 H4654 0.951 . S
C4672 C4673 1.366 . S
C4672 C4674 1.388 . S
C4673 C4672 1.366 . S
C4673 C4677 1.385 . S
C4674 H4655 0.951 . S
C4674 C4672 1.388 . S
C4674 C4675 1.366 . S
C4675 C4674 1.366 . S
C4675 C4676 1.414 . S
C4675 C4678 1.499 . S
C4676 H4656 0.950 . S
C4676 C4675 1.414 . S
C4676 C4677 1.374 . S
C4677 H4657 0.950 . S
C4677 C4673 1.385 . S
C4677 C4676 1.374 . S
C4678 C4675 1.499 . S
C4678 C4679 1.373 . S
C4678 C4680 1.389 . S
C4679 H4658 0.950 . S
C4679 C4678 1.373 . S
C4679 C4695 1.377 . S
C4680 C4678 1.389 . S
C4680 C4681 1.524 . S
C4680 C4694 1.377 . S
C4681 C4680 1.524 . S
C4681 C4682 1.397 . S
C4681 C4686 1.363 . S
C4682 H4659 0.950 . S
C4682 C4681 1.397 . S
C4682 C4683 1.334 . S
C4683 H4660 0.950 . S
C4683 C4682 1.334 . S
C4683 C4684 1.287 . S
C4684 C4683 1.287 . S
C4684 C4685 1.524 . S
C4684 H4703 0.913 . S
C4685 H4661 0.950 . S
C4685 C4684 1.524 . S
C4685 C4686 1.415 . S
C4686 H4662 0.950 . S
C4686 C4681 1.363 . S
C4686 C4685 1.415 . S
C4687 H4663 0.951 . S
C4687 C4688 1.366 . S
C4687 C4689 1.388 . S
C4688 C4687 1.366 . S
C4688 C4692 1.385 . S
C4689 H4664 0.951 . S
C4689 C4687 1.388 . S
C4689 C4690 1.366 . S
C4690 C4689 1.366 . S
C4690 C4691 1.414 . S
C4690 C4693 1.499 . S
C4691 H4665 0.950 . S
C4691 C4690 1.414 . S
C4691 C4692 1.374 . S
C4692 H4666 0.950 . S
C4692 C4688 1.385 . S
C4692 C4691 1.374 . S
C4693 C4690 1.499 . S
C4693 C4694 1.373 . S
C4693 C4695 1.389 . S
C4694 H4667 0.950 . S
C4694 C4680 1.377 . S
C4694 C4693 1.373 . S
C4695 C4679 1.377 . S
C4695 C4693 1.389 . S
C4695 C4696 1.524 . S
C4696 C4695 1.524 . S
C4696 C4697 1.397 . S
C4696 C4701 1.363 . S
C4697 H4668 0.950 . S
C4697 C4696 1.397 . S
C4697 C4698 1.334 . S
C4698 H4669 0.950 . S
C4698 C4697 1.334 . S
C4698 C4699 1.287 . S
C4699 C4698 1.287 . S
C4699 C4700 1.524 . S
C4699 H4702 0.999 . S
C4700 H4670 0.950 . S
C4700 C4699 1.524 . S
C4700 C4701 1.415 . S
C4701 H4671 0.950 . S
C4701 C4696 1.363 . S
C4701 C4700 1.415 . S
H4702 C4699 0.999 . S
H4703 C4684 0.913 . S
H4704 C4722 0.951 . S
H4705 C4724 0.951 . S
H4706 C4726 0.950 . S
H4707 C4727 0.950 . S
H4708 C4729 0.950 . S
H4709 C4732 0.950 . S
H4710 C4733 0.950 . S
H4711 C4735 0.950 . S
H4712 C4736 0.950 . S
H4713 C4737 0.951 . S
H4714 C4739 0.951 . S
H4715 C4741 0.950 . S
H4716 C4742 0.950 . S
H4717 C4744 0.950 . S
H4718 C4747 0.950 . S
H4719 C4748 0.950 . S
H4720 C4750 0.950 . S
H4721 C4751 0.950 . S
C4722 H4704 0.951 . S
C4722 C4723 1.366 . S
C4722 C4724 1.388 . S
C4723 C4722 1.366 . S
C4723 C4727 1.385 . S
C4724 H4705 0.951 . S
C4724 C4722 1.388 . S
C4724 C4725 1.366 . S
C4725 C4724 1.366 . S
C4725 C4726 1.414 . S
C4725 C4728 1.499 . S
C4726 H4706 0.950 . S
C4726 C4725 1.414 . S
C4726 C4727 1.374 . S
C4727 H4707 0.950 . S
C4727 C4723 1.385 . S
C4727 C4726 1.374 . S
C4728 C4725 1.499 . S
C4728 C4729 1.373 . S
C4728 C4730 1.389 . S
C4729 H4708 0.950 . S
C4729 C4728 1.373 . S
C4729 C4745 1.377 . S
C4730 C4728 1.389 . S
C4730 C4731 1.524 . S
C4730 C4744 1.377 . S
C4731 C4730 1.524 . S
C4731 C4732 1.397 . S
C4731 C4736 1.363 . S
C4732 H4709 0.950 . S
C4732 C4731 1.397 . S
C4732 C4733 1.334 . S
C4733 H4710 0.950 . S
C4733 C4732 1.334 . S
C4733 C4734 1.287 . S
C4734 C4733 1.287 . S
C4734 C4735 1.524 . S
C4734 H4753 0.913 . S
C4735 H4711 0.950 . S
C4735 C4734 1.524 . S
C4735 C4736 1.415 . S
C4736 H4712 0.950 . S
C4736 C4731 1.363 . S
C4736 C4735 1.415 . S
C4737 H4713 0.951 . S
C4737 C4738 1.366 . S
C4737 C4739 1.388 . S
C4738 C4737 1.366 . S
C4738 C4742 1.385 . S
C4739 H4714 0.951 . S
C4739 C4737 1.388 . S
C4739 C4740 1.366 . S
C4740 C4739 1.366 . S
C4740 C4741 1.414 . S
C4740 C4743 1.499 . S
C4741 H4715 0.950 . S
C4741 C4740 1.414 . S
C4741 C4742 1.374 . S
C4742 H4716 0.950 . S
C4742 C4738 1.385 . S
C4742 C4741 1.374 . S
C4743 C4740 1.499 . S
C4743 C4744 1.373 . S
C4743 C4745 1.389 . S
C4744 H4717 0.950 . S
C4744 C4730 1.377 . S
C4744 C4743 1.373 . S
C4745 C4729 1.377 . S
C4745 C4743 1.389 . S
C4745 C4746 1.524 . S
C4746 C4745 1.524 . S
C4746 C4747 1.397 . S
C4746 C4751 1.363 . S
C4747 H4718 0.950 . S
C4747 C4746 1.397 . S
C4747 C4748 1.334 . S
C4748 H4719 0.950 . S
C4748 C4747 1.334 . S
C4748 C4749 1.287 . S
C4749 C4748 1.287 . S
C4749 C4750 1.524 . S
C4749 H4752 0.999 . S
C4750 H4720 0.950 . S
C4750 C4749 1.524 . S
C4750 C4751 1.415 . S
C4751 H4721 0.950 . S
C4751 C4746 1.363 . S
C4751 C4750 1.415 . S
H4752 C4749 0.999 . S
H4753 C4734 0.913 . S
H4754 C4772 0.951 . S
H4755 C4774 0.951 . S
H4756 C4776 0.950 . S
H4757 C4777 0.950 . S
H4758 C4779 0.950 . S
H4759 C4782 0.950 . S
H4760 C4783 0.950 . S
H4761 C4785 0.950 . S
H4762 C4786 0.950 . S
H4763 C4787 0.951 . S
H4764 C4789 0.951 . S
H4765 C4791 0.950 . S
H4766 C4792 0.950 . S
H4767 C4794 0.950 . S
H4768 C4797 0.950 . S
H4769 C4798 0.950 . S
H4770 C4800 0.950 . S
H4771 C4801 0.950 . S
C4772 H4754 0.951 . S
C4772 C4773 1.366 . S
C4772 C4774 1.388 . S
C4773 C4772 1.366 . S
C4773 C4777 1.385 . S
C4774 H4755 0.951 . S
C4774 C4772 1.388 . S
C4774 C4775 1.366 . S
C4775 C4774 1.366 . S
C4775 C4776 1.414 . S
C4775 C4778 1.499 . S
C4776 H4756 0.950 . S
C4776 C4775 1.414 . S
C4776 C4777 1.374 . S
C4777 H4757 0.950 . S
C4777 C4773 1.385 . S
C4777 C4776 1.374 . S
C4778 C4775 1.499 . S
C4778 C4779 1.373 . S
C4778 C4780 1.389 . S
C4779 H4758 0.950 . S
C4779 C4778 1.373 . S
C4779 C4795 1.377 . S
C4780 C4778 1.389 . S
C4780 C4781 1.524 . S
C4780 C4794 1.377 . S
C4781 C4780 1.524 . S
C4781 C4782 1.397 . S
C4781 C4786 1.363 . S
C4782 H4759 0.950 . S
C4782 C4781 1.397 . S
C4782 C4783 1.334 . S
C4783 H4760 0.950 . S
C4783 C4782 1.334 . S
C4783 C4784 1.287 . S
C4784 C4783 1.287 . S
C4784 C4785 1.524 . S
C4784 H4803 0.913 . S
C4785 H4761 0.950 . S
C4785 C4784 1.524 . S
C4785 C4786 1.415 . S
C4786 H4762 0.950 . S
C4786 C4781 1.363 . S
C4786 C4785 1.415 . S
C4787 H4763 0.951 . S
C4787 C4788 1.366 . S
C4787 C4789 1.388 . S
C4788 C4787 1.366 . S
C4788 C4792 1.385 . S
C4789 H4764 0.951 . S
C4789 C4787 1.388 . S
C4789 C4790 1.366 . S
C4790 C4789 1.366 . S
C4790 C4791 1.414 . S
C4790 C4793 1.499 . S
C4791 H4765 0.950 . S
C4791 C4790 1.414 . S
C4791 C4792 1.374 . S
C4792 H4766 0.950 . S
C4792 C4788 1.385 . S
C4792 C4791 1.374 . S
C4793 C4790 1.499 . S
C4793 C4794 1.373 . S
C4793 C4795 1.389 . S
C4794 H4767 0.950 . S
C4794 C4780 1.377 . S
C4794 C4793 1.373 . S
C4795 C4779 1.377 . S
C4795 C4793 1.389 . S
C4795 C4796 1.524 . S
C4796 C4795 1.524 . S
C4796 C4797 1.397 . S
C4796 C4801 1.363 . S
C4797 H4768 0.950 . S
C4797 C4796 1.397 . S
C4797 C4798 1.334 . S
C4798 H4769 0.950 . S
C4798 C4797 1.334 . S
C4798 C4799 1.287 . S
C4799 C4798 1.287 . S
C4799 C4800 1.524 . S
C4799 H4802 0.999 . S
C4800 H4770 0.950 . S
C4800 C4799 1.524 . S
C4800 C4801 1.415 . S
C4801 H4771 0.950 . S
C4801 C4796 1.363 . S
C4801 C4800 1.415 . S
H4802 C4799 0.999 . S
H4803 C4784 0.913 . S
H4804 C4822 0.951 . S
H4805 C4824 0.951 . S
H4806 C4826 0.950 . S
H4807 C4827 0.950 . S
H4808 C4829 0.950 . S
H4809 C4832 0.950 . S
H4810 C4833 0.950 . S
H4811 C4835 0.950 . S
H4812 C4836 0.950 . S
H4813 C4837 0.951 . S
H4814 C4839 0.951 . S
H4815 C4841 0.950 . S
H4816 C4842 0.950 . S
H4817 C4844 0.950 . S
H4818 C4847 0.950 . S
H4819 C4848 0.950 . S
H4820 C4850 0.950 . S
H4821 C4851 0.950 . S
C4822 H4804 0.951 . S
C4822 C4823 1.366 . S
C4822 C4824 1.388 . S
C4823 C4822 1.366 . S
C4823 C4827 1.385 . S
C4824 H4805 0.951 . S
C4824 C4822 1.388 . S
C4824 C4825 1.366 . S
C4825 C4824 1.366 . S
C4825 C4826 1.414 . S
C4825 C4828 1.499 . S
C4826 H4806 0.950 . S
C4826 C4825 1.414 . S
C4826 C4827 1.374 . S
C4827 H4807 0.950 . S
C4827 C4823 1.385 . S
C4827 C4826 1.374 . S
C4828 C4825 1.499 . S
C4828 C4829 1.373 . S
C4828 C4830 1.389 . S
C4829 H4808 0.950 . S
C4829 C4828 1.373 . S
C4829 C4845 1.377 . S
C4830 C4828 1.389 . S
C4830 C4831 1.524 . S
C4830 C4844 1.377 . S
C4831 C4830 1.524 . S
C4831 C4832 1.397 . S
C4831 C4836 1.363 . S
C4832 H4809 0.950 . S
C4832 C4831 1.397 . S
C4832 C4833 1.334 . S
C4833 H4810 0.950 . S
C4833 C4832 1.334 . S
C4833 C4834 1.287 . S
C4834 C4833 1.287 . S
C4834 C4835 1.524 . S
C4834 H4853 0.913 . S
C4835 H4811 0.950 . S
C4835 C4834 1.524 . S
C4835 C4836 1.415 . S
C4836 H4812 0.950 . S
C4836 C4831 1.363 . S
C4836 C4835 1.415 . S
C4837 H4813 0.951 . S
C4837 C4838 1.366 . S
C4837 C4839 1.388 . S
C4838 C4837 1.366 . S
C4838 C4842 1.385 . S
C4839 H4814 0.951 . S
C4839 C4837 1.388 . S
C4839 C4840 1.366 . S
C4840 C4839 1.366 . S
C4840 C4841 1.414 . S
C4840 C4843 1.499 . S
C4841 H4815 0.950 . S
C4841 C4840 1.414 . S
C4841 C4842 1.374 . S
C4842 H4816 0.950 . S
C4842 C4838 1.385 . S
C4842 C4841 1.374 . S
C4843 C4840 1.499 . S
C4843 C4844 1.373 . S
C4843 C4845 1.389 . S
C4844 H4817 0.950 . S
C4844 C4830 1.377 . S
C4844 C4843 1.373 . S
C4845 C4829 1.377 . S
C4845 C4843 1.389 . S
C4845 C4846 1.524 . S
C4846 C4845 1.524 . S
C4846 C4847 1.397 . S
C4846 C4851 1.363 . S
C4847 H4818 0.950 . S
C4847 C4846 1.397 . S
C4847 C4848 1.334 . S
C4848 H4819 0.950 . S
C4848 C4847 1.334 . S
C4848 C4849 1.287 . S
C4849 C4848 1.287 . S
C4849 C4850 1.524 . S
C4849 H4852 0.999 . S
C4850 H4820 0.950 . S
C4850 C4849 1.524 . S
C4850 C4851 1.415 . S
C4851 H4821 0.950 . S
C4851 C4846 1.363 . S
C4851 C4850 1.415 . S
H4852 C4849 0.999 . S
H4853 C4834 0.913 . S
H4854 C4872 0.951 . S
H4855 C4874 0.951 . S
H4856 C4876 0.950 . S
H4857 C4877 0.950 . S
H4858 C4879 0.950 . S
H4859 C4882 0.950 . S
H4860 C4883 0.950 . S
H4861 C4885 0.950 . S
H4862 C4886 0.950 . S
H4863 C4887 0.951 . S
H4864 C4889 0.951 . S
H4865 C4891 0.950 . S
H4866 C4892 0.924 1_545 S
H4867 C4894 0.954 . S
H4868 C4897 0.950 . S
H4869 C4898 0.950 . S
H4870 C4900 0.950 . S
H4871 C4901 0.950 . S
C4872 H4854 0.951 . S
C4872 C4873 1.366 . S
C4872 C4874 1.388 . S
C4873 C4872 1.366 . S
C4873 C4877 1.385 . S
C4874 H4855 0.951 . S
C4874 C4872 1.388 . S
C4874 C4875 1.366 . S
C4875 C4874 1.366 . S
C4875 C4876 1.414 . S
C4875 C4878 1.499 . S
C4876 H4856 0.950 . S
C4876 C4875 1.414 . S
C4876 C4877 1.374 . S
C4877 H4857 0.950 . S
C4877 C4873 1.385 . S
C4877 C4876 1.374 . S
C4878 C4875 1.499 . S
C4878 C4879 1.373 . S
C4878 C4880 1.389 1_554 S
C4879 H4858 0.950 . S
C4879 C4878 1.373 . S
C4879 C4895 1.377 . S
C4880 C4878 1.389 1_556 S
C4880 C4881 1.524 . S
C4880 C4894 1.376 . S
C4881 C4880 1.524 . S
C4881 C4882 1.397 . S
C4881 C4886 1.363 . S
C4882 H4859 0.950 . S
C4882 C4881 1.397 . S
C4882 C4883 1.334 . S
C4883 H4860 0.950 . S
C4883 C4882 1.334 . S
C4883 C4884 1.287 . S
C4884 C4883 1.287 . S
C4884 C4885 1.524 . S
C4884 H4903 0.913 . S
C4885 H4861 0.950 . S
C4885 C4884 1.524 . S
C4885 C4886 1.415 . S
C4886 H4862 0.950 . S
C4886 C4881 1.363 . S
C4886 C4885 1.415 . S
C4887 H4863 0.951 . S
C4887 C4888 1.366 . S
C4887 C4889 1.388 . S
C4888 C4887 1.366 . S
C4888 C4892 1.385 . S
C4889 H4864 0.951 . S
C4889 C4887 1.388 . S
C4889 C4890 1.366 . S
C4890 C4889 1.366 . S
C4890 C4891 1.414 . S
C4890 C4893 1.499 . S
C4891 H4865 0.950 . S
C4891 C4890 1.414 . S
C4891 C4892 1.374 . S
C4892 H4866 0.924 1_565 S
C4892 C4888 1.385 . S
C4892 C4891 1.374 . S
C4893 C4890 1.499 . S
C4893 C4894 1.370 1_554 S
C4893 C4895 1.389 . S
C4894 H4867 0.954 . S
C4894 C4880 1.376 . S
C4894 C4893 1.370 1_556 S
C4895 C4879 1.377 . S
C4895 C4893 1.389 . S
C4895 C4896 1.524 . S
C4896 C4895 1.524 . S
C4896 C4897 1.397 . S
C4896 C4901 1.363 . S
C4897 H4868 0.950 . S
C4897 C4896 1.397 . S
C4897 C4898 1.334 . S
C4898 H4869 0.950 . S
C4898 C4897 1.334 . S
C4898 C4899 1.287 . S
C4899 C4898 1.287 . S
C4899 C4900 1.524 . S
C4899 H4902 0.999 . S
C4900 H4870 0.950 . S
C4900 C4899 1.524 . S
C4900 C4901 1.415 . S
C4901 H4871 0.950 . S
C4901 C4896 1.363 . S
C4901 C4900 1.415 . S
H4902 C4899 0.999 . S
H4903 C4884 0.913 . S
H4904 C4922 0.951 . S
H4905 C4924 0.951 . S
H4906 C4926 0.950 . S
H4907 C4927 0.950 . S
H4908 C4929 0.950 . S
H4909 C4932 0.950 . S
H4910 C4933 0.950 . S
H4911 C4935 0.950 . S
H4912 C4936 0.950 . S
H4913 C4937 0.951 . S
H4914 C4939 0.951 . S
H4915 C4941 0.950 . S
H4916 C4942 0.950 . S
H4917 C4944 0.950 . S
H4918 C4947 0.950 . S
H4919 C4948 0.950 . S
H4920 C4950 0.950 . S
H4921 C4951 0.950 . S
C4922 H4904 0.951 . S
C4922 C4923 1.366 . S
C4922 C4924 1.388 . S
C4923 C4922 1.366 . S
C4923 C4927 1.385 . S
C4924 H4905 0.951 . S
C4924 C4922 1.388 . S
C4924 C4925 1.366 . S
C4925 C4924 1.366 . S
C4925 C4926 1.414 . S
C4925 C4928 1.499 . S
C4926 H4906 0.950 . S
C4926 C4925 1.414 . S
C4926 C4927 1.374 . S
C4927 H4907 0.950 . S
C4927 C4923 1.385 . S
C4927 C4926 1.374 . S
C4928 C4925 1.499 . S
C4928 C4929 1.373 . S
C4928 C4930 1.389 . S
C4929 H4908 0.950 . S
C4929 C4928 1.373 . S
C4929 C4945 1.377 . S
C4930 C4928 1.389 . S
C4930 C4931 1.524 . S
C4930 C4944 1.377 . S
C4931 C4930 1.524 . S
C4931 C4932 1.397 . S
C4931 C4936 1.363 . S
C4932 H4909 0.950 . S
C4932 C4931 1.397 . S
C4932 C4933 1.334 . S
C4933 H4910 0.950 . S
C4933 C4932 1.334 . S
C4933 C4934 1.287 . S
C4934 C4933 1.287 . S
C4934 C4935 1.524 . S
C4934 H4953 0.913 . S
C4935 H4911 0.950 . S
C4935 C4934 1.524 . S
C4935 C4936 1.415 . S
C4936 H4912 0.950 . S
C4936 C4931 1.363 . S
C4936 C4935 1.415 . S
C4937 H4913 0.951 . S
C4937 C4938 1.366 . S
C4937 C4939 1.388 . S
C4938 C4937 1.366 . S
C4938 C4942 1.385 . S
C4939 H4914 0.951 . S
C4939 C4937 1.388 . S
C4939 C4940 1.366 . S
C4940 C4939 1.366 . S
C4940 C4941 1.414 . S
C4940 C4943 1.499 . S
C4941 H4915 0.950 . S
C4941 C4940 1.414 . S
C4941 C4942 1.374 . S
C4942 H4916 0.950 . S
C4942 C4938 1.385 . S
C4942 C4941 1.374 . S
C4943 C4940 1.499 . S
C4943 C4944 1.373 . S
C4943 C4945 1.389 . S
C4944 H4917 0.950 . S
C4944 C4930 1.377 . S
C4944 C4943 1.373 . S
C4945 C4929 1.377 . S
C4945 C4943 1.389 . S
C4945 C4946 1.524 . S
C4946 C4945 1.524 . S
C4946 C4947 1.397 . S
C4946 C4951 1.363 . S
C4947 H4918 0.950 . S
C4947 C4946 1.397 . S
C4947 C4948 1.334 . S
C4948 H4919 0.950 . S
C4948 C4947 1.334 . S
C4948 C4949 1.287 . S
C4949 C4948 1.287 . S
C4949 C4950 1.524 . S
C4949 H4952 0.999 . S
C4950 H4920 0.950 . S
C4950 C4949 1.524 . S
C4950 C4951 1.415 . S
C4951 H4921 0.950 . S
C4951 C4946 1.363 . S
C4951 C4950 1.415 . S
H4952 C4949 0.999 . S
H4953 C4934 0.913 . S
H4954 C4972 0.951 1_556 S
H4955 C4974 0.951 . S
H4956 C4976 0.950 . S
H4957 C4977 0.950 . S
H4958 C4979 0.950 . S
H4959 C4982 0.950 . S
H4960 C4983 0.950 . S
H4961 C4985 0.950 . S
H4962 C4986 0.950 . S
H4963 C4987 0.951 . S
H4964 C4989 0.951 . S
H4965 C4991 0.950 . S
H4966 C4992 0.950 . S
H4967 C4994 0.950 . S
H4968 C4997 0.950 . S
H4969 C4998 0.950 . S
H4970 C5000 0.950 . S
H4971 C5001 0.950 . S
C4972 H4954 0.951 1_554 S
C4972 C4973 1.366 . S
C4972 C4974 1.388 . S
C4973 C4972 1.366 . S
C4973 C4977 1.385 . S
C4974 H4955 0.951 . S
C4974 C4972 1.388 . S
C4974 C4975 1.366 . S
C4975 C4974 1.366 . S
C4975 C4976 1.414 . S
C4975 C4978 1.499 . S
C4976 H4956 0.950 . S
C4976 C4975 1.414 . S
C4976 C4977 1.374 . S
C4977 H4957 0.950 . S
C4977 C4973 1.385 . S
C4977 C4976 1.374 . S
C4978 C4975 1.499 . S
C4978 C4979 1.373 . S
C4978 C4980 1.389 . S
C4979 H4958 0.950 . S
C4979 C4978 1.373 . S
C4979 C4995 1.377 . S
C4980 C4978 1.389 . S
C4980 C4981 1.524 . S
C4980 C4994 1.377 . S
C4981 C4980 1.524 . S
C4981 C4982 1.397 . S
C4981 C4986 1.363 1_554 S
C4982 H4959 0.950 . S
C4982 C4981 1.397 . S
C4982 C4983 1.334 . S
C4983 H4960 0.950 . S
C4983 C4982 1.334 . S
C4983 C4984 1.287 1_554 S
C4984 C4983 1.287 1_556 S
C4984 C4985 1.524 . S
C4984 H5003 0.913 . S
C4985 H4961 0.950 . S
C4985 C4984 1.524 . S
C4985 C4986 1.415 . S
C4986 H4962 0.950 . S
C4986 C4981 1.363 1_556 S
C4986 C4985 1.415 . S
C4987 H4963 0.951 . S
C4987 C4988 1.366 . S
C4987 C4989 1.388 . S
C4988 C4987 1.366 . S
C4988 C4992 1.385 . S
C4989 H4964 0.951 . S
C4989 C4987 1.388 . S
C4989 C4990 1.366 . S
C4990 C4989 1.366 . S
C4990 C4991 1.414 . S
C4990 C4993 1.499 . S
C4991 H4965 0.950 . S
C4991 C4990 1.414 . S
C4991 C4992 1.374 . S
C4992 H4966 0.950 . S
C4992 C4988 1.385 . S
C4992 C4991 1.374 . S
C4993 C4990 1.499 . S
C4993 C4994 1.373 . S
C4993 C4995 1.389 . S
C4994 H4967 0.950 . S
C4994 C4980 1.377 . S
C4994 C4993 1.373 . S
C4995 C4979 1.377 . S
C4995 C4993 1.389 . S
C4995 C4996 1.524 . S
C4996 C4995 1.524 . S
C4996 C4997 1.397 . S
C4996 C5001 1.363 . S
C4997 H4968 0.950 . S
C4997 C4996 1.397 . S
C4997 C4998 1.334 . S
C4998 H4969 0.950 . S
C4998 C4997 1.334 . S
C4998 C4999 1.287 . S
C4999 C4998 1.287 . S
C4999 C5000 1.524 . S
C4999 H5002 0.999 . S
C5000 H4970 0.950 . S
C5000 C4999 1.524 . S
C5000 C5001 1.415 . S
C5001 H4971 0.950 . S
C5001 C4996 1.363 . S
C5001 C5000 1.415 . S
H5002 C4999 0.999 . S
H5003 C4984 0.913 . S
H5004 C5022 0.951 . S
H5005 C5024 0.951 . S
H5006 C5026 0.950 . S
H5007 C5027 0.950 . S
H5008 C5029 0.950 . S
H5009 C5032 0.950 . S
H5010 C5033 0.950 . S
H5011 C5035 0.950 . S
H5012 C5036 0.950 . S
H5013 C5037 0.951 . S
H5014 C5039 0.951 . S
H5015 C5041 0.950 . S
H5016 C5042 0.950 . S
H5017 C5044 0.950 . S
H5018 C5047 0.950 . S
H5019 C5048 0.950 . S
H5020 C5050 0.950 . S
H5021 C5051 0.950 . S
C5022 H5004 0.951 . S
C5022 C5023 1.366 . S
C5022 C5024 1.388 . S
C5023 C5022 1.366 . S
C5023 C5027 1.385 . S
C5024 H5005 0.951 . S
C5024 C5022 1.388 . S
C5024 C5025 1.366 . S
C5025 C5024 1.366 . S
C5025 C5026 1.414 . S
C5025 C5028 1.499 . S
C5026 H5006 0.950 . S
C5026 C5025 1.414 . S
C5026 C5027 1.374 . S
C5027 H5007 0.950 . S
C5027 C5023 1.385 . S
C5027 C5026 1.374 . S
C5028 C5025 1.499 . S
C5028 C5029 1.373 . S
C5028 C5030 1.389 . S
C5029 H5008 0.950 . S
C5029 C5028 1.373 . S
C5029 C5045 1.377 . S
C5030 C5028 1.389 . S
C5030 C5031 1.524 . S
C5030 C5044 1.377 . S
C5031 C5030 1.524 . S
C5031 C5032 1.397 . S
C5031 C5036 1.363 . S
C5032 H5009 0.950 . S
C5032 C5031 1.397 . S
C5032 C5033 1.334 . S
C5033 H5010 0.950 . S
C5033 C5032 1.334 . S
C5033 C5034 1.287 . S
C5034 C5033 1.287 . S
C5034 C5035 1.524 . S
C5034 H5053 0.913 . S
C5035 H5011 0.950 . S
C5035 C5034 1.524 . S
C5035 C5036 1.415 . S
C5036 H5012 0.950 . S
C5036 C5031 1.363 . S
C5036 C5035 1.415 . S
C5037 H5013 0.951 . S
C5037 C5038 1.366 . S
C5037 C5039 1.388 . S
C5038 C5037 1.366 . S
C5038 C5042 1.385 . S
C5039 H5014 0.951 . S
C5039 C5037 1.388 . S
C5039 C5040 1.366 . S
C5040 C5039 1.366 . S
C5040 C5041 1.414 . S
C5040 C5043 1.499 . S
C5041 H5015 0.950 . S
C5041 C5040 1.414 . S
C5041 C5042 1.374 . S
C5042 H5016 0.950 . S
C5042 C5038 1.385 . S
C5042 C5041 1.374 . S
C5043 C5040 1.499 . S
C5043 C5044 1.373 . S
C5043 C5045 1.389 . S
C5044 H5017 0.950 . S
C5044 C5030 1.377 . S
C5044 C5043 1.373 . S
C5045 C5029 1.377 . S
C5045 C5043 1.389 . S
C5045 C5046 1.524 . S
C5046 C5045 1.524 . S
C5046 C5047 1.397 . S
C5046 C5051 1.363 . S
C5047 H5018 0.950 . S
C5047 C5046 1.397 . S
C5047 C5048 1.334 . S
C5048 H5019 0.950 . S
C5048 C5047 1.334 . S
C5048 C5049 1.287 . S
C5049 C5048 1.287 . S
C5049 C5050 1.524 . S
C5049 H5052 0.999 . S
C5050 H5020 0.950 . S
C5050 C5049 1.524 . S
C5050 C5051 1.415 . S
C5051 H5021 0.950 . S
C5051 C5046 1.363 . S
C5051 C5050 1.415 . S
H5052 C5049 0.999 . S
H5053 C5034 0.913 . S
H5054 C5072 0.951 . S
H5055 C5074 0.951 . S
H5056 C5076 0.950 . S
H5057 C5077 0.950 . S
H5058 C5079 0.950 . S
H5059 C5082 0.950 . S
H5060 C5083 0.950 . S
H5061 C5085 0.950 . S
H5062 C5086 0.950 . S
H5063 C5087 0.951 . S
H5064 C5089 0.951 . S
H5065 C5091 0.950 . S
H5066 C5092 0.950 . S
H5067 C5094 0.950 . S
H5068 C5097 0.950 . S
H5069 C5098 0.950 . S
H5070 C5100 0.950 . S
H5071 C5101 0.950 . S
C5072 H5054 0.951 . S
C5072 C5073 1.366 . S
C5072 C5074 1.388 . S
C5073 C5072 1.366 . S
C5073 C5077 1.385 . S
C5074 H5055 0.951 . S
C5074 C5072 1.388 . S
C5074 C5075 1.366 . S
C5075 C5074 1.366 . S
C5075 C5076 1.414 . S
C5075 C5078 1.499 . S
C5076 H5056 0.950 . S
C5076 C5075 1.414 . S
C5076 C5077 1.374 . S
C5077 H5057 0.950 . S
C5077 C5073 1.385 . S
C5077 C5076 1.374 . S
C5078 C5075 1.499 . S
C5078 C5079 1.373 . S
C5078 C5080 1.389 . S
C5079 H5058 0.950 . S
C5079 C5078 1.373 . S
C5079 C5095 1.377 . S
C5080 C5078 1.389 . S
C5080 C5081 1.524 . S
C5080 C5094 1.377 . S
C5081 C5080 1.524 . S
C5081 C5082 1.397 . S
C5081 C5086 1.363 . S
C5082 H5059 0.950 . S
C5082 C5081 1.397 . S
C5082 C5083 1.334 . S
C5083 H5060 0.950 . S
C5083 C5082 1.334 . S
C5083 C5084 1.287 . S
C5084 C5083 1.287 . S
C5084 C5085 1.524 . S
C5084 H5103 0.913 . S
C5085 H5061 0.950 . S
C5085 C5084 1.524 . S
C5085 C5086 1.415 . S
C5086 H5062 0.950 . S
C5086 C5081 1.363 . S
C5086 C5085 1.415 . S
C5087 H5063 0.951 . S
C5087 C5088 1.366 . S
C5087 C5089 1.388 . S
C5088 C5087 1.366 . S
C5088 C5092 1.385 . S
C5089 H5064 0.951 . S
C5089 C5087 1.388 . S
C5089 C5090 1.366 . S
C5090 C5089 1.366 . S
C5090 C5091 1.414 . S
C5090 C5093 1.499 . S
C5091 H5065 0.950 . S
C5091 C5090 1.414 . S
C5091 C5092 1.374 . S
C5092 H5066 0.950 . S
C5092 C5088 1.385 . S
C5092 C5091 1.374 . S
C5093 C5090 1.499 . S
C5093 C5094 1.373 . S
C5093 C5095 1.389 . S
C5094 H5067 0.950 . S
C5094 C5080 1.377 . S
C5094 C5093 1.373 . S
C5095 C5079 1.377 . S
C5095 C5093 1.389 . S
C5095 C5096 1.524 . S
C5096 C5095 1.524 . S
C5096 C5097 1.397 . S
C5096 C5101 1.363 . S
C5097 H5068 0.950 . S
C5097 C5096 1.397 . S
C5097 C5098 1.334 . S
C5098 H5069 0.950 . S
C5098 C5097 1.334 . S
C5098 C5099 1.287 . S
C5099 C5098 1.287 . S
C5099 C5100 1.524 . S
C5099 H5102 0.999 . S
C5100 H5070 0.950 . S
C5100 C5099 1.524 . S
C5100 C5101 1.415 . S
C5101 H5071 0.950 . S
C5101 C5096 1.363 . S
C5101 C5100 1.415 . S
H5102 C5099 0.999 . S
H5103 C5084 0.913 . S
H5104 C5122 0.951 . S
H5105 C5124 0.951 . S
H5106 C5126 0.950 . S
H5107 C5127 0.950 . S
H5108 C5129 0.950 . S
H5109 C5132 0.950 . S
H5110 C5133 0.950 . S
H5111 C5135 0.950 . S
H5112 C5136 0.950 . S
H5113 C5137 0.951 . S
H5114 C5139 0.951 . S
H5115 C5141 0.950 . S
H5116 C5142 0.950 . S
H5117 C5144 0.950 . S
H5118 C5147 0.950 . S
H5119 C5148 0.950 . S
H5120 C5150 0.950 . S
H5121 C5151 0.950 . S
C5122 H5104 0.951 . S
C5122 C5123 1.366 . S
C5122 C5124 1.388 . S
C5123 C5122 1.366 . S
C5123 C5127 1.385 . S
C5124 H5105 0.951 . S
C5124 C5122 1.388 . S
C5124 C5125 1.366 . S
C5125 C5124 1.366 . S
C5125 C5126 1.414 . S
C5125 C5128 1.499 . S
C5126 H5106 0.950 . S
C5126 C5125 1.414 . S
C5126 C5127 1.374 . S
C5127 H5107 0.950 . S
C5127 C5123 1.385 . S
C5127 C5126 1.374 . S
C5128 C5125 1.499 . S
C5128 C5129 1.373 . S
C5128 C5130 1.389 . S
C5129 H5108 0.950 . S
C5129 C5128 1.373 . S
C5129 C5145 1.377 . S
C5130 C5128 1.389 . S
C5130 C5131 1.524 . S
C5130 C5144 1.377 . S
C5131 C5130 1.524 . S
C5131 C5132 1.397 . S
C5131 C5136 1.363 . S
C5132 H5109 0.950 . S
C5132 C5131 1.397 . S
C5132 C5133 1.334 . S
C5133 H5110 0.950 . S
C5133 C5132 1.334 . S
C5133 C5134 1.287 . S
C5134 C5133 1.287 . S
C5134 C5135 1.524 . S
C5134 H5153 0.913 . S
C5135 H5111 0.950 . S
C5135 C5134 1.524 . S
C5135 C5136 1.415 . S
C5136 H5112 0.950 . S
C5136 C5131 1.363 . S
C5136 C5135 1.415 . S
C5137 H5113 0.951 . S
C5137 C5138 1.366 . S
C5137 C5139 1.388 . S
C5138 C5137 1.366 . S
C5138 C5142 1.385 . S
C5139 H5114 0.951 . S
C5139 C5137 1.388 . S
C5139 C5140 1.366 . S
C5140 C5139 1.366 . S
C5140 C5141 1.414 . S
C5140 C5143 1.499 . S
C5141 H5115 0.950 . S
C5141 C5140 1.414 . S
C5141 C5142 1.374 . S
C5142 H5116 0.950 . S
C5142 C5138 1.385 . S
C5142 C5141 1.374 . S
C5143 C5140 1.499 . S
C5143 C5144 1.373 . S
C5143 C5145 1.389 . S
C5144 H5117 0.950 . S
C5144 C5130 1.377 . S
C5144 C5143 1.373 . S
C5145 C5129 1.377 . S
C5145 C5143 1.389 . S
C5145 C5146 1.524 . S
C5146 C5145 1.524 . S
C5146 C5147 1.397 . S
C5146 C5151 1.363 . S
C5147 H5118 0.950 . S
C5147 C5146 1.397 . S
C5147 C5148 1.334 . S
C5148 H5119 0.950 . S
C5148 C5147 1.334 . S
C5148 C5149 1.287 . S
C5149 C5148 1.287 . S
C5149 C5150 1.524 . S
C5149 H5152 0.999 . S
C5150 H5120 0.950 . S
C5150 C5149 1.524 . S
C5150 C5151 1.415 . S
C5151 H5121 0.950 . S
C5151 C5146 1.363 . S
C5151 C5150 1.415 . S
H5152 C5149 0.999 . S
H5153 C5134 0.913 . S
H5154 C5172 0.951 . S
H5155 C5174 0.951 . S
H5156 C5176 0.950 . S
H5157 C5177 0.950 . S
H5158 C5179 0.950 . S
H5159 C5182 0.950 . S
H5160 C5183 0.950 . S
H5161 C5185 0.950 . S
H5162 C5186 0.950 . S
H5163 C5187 0.951 . S
H5164 C5189 0.951 . S
H5165 C5191 0.950 . S
H5166 C5192 0.950 . S
H5167 C5194 0.950 . S
H5168 C5197 0.950 . S
H5169 C5198 0.950 . S
H5170 C5200 0.950 . S
H5171 C5201 0.950 . S
C5172 H5154 0.951 . S
C5172 C5173 1.366 . S
C5172 C5174 1.388 . S
C5173 C5172 1.366 . S
C5173 C5177 1.385 . S
C5174 H5155 0.951 . S
C5174 C5172 1.388 . S
C5174 C5175 1.366 . S
C5175 C5174 1.366 . S
C5175 C5176 1.414 . S
C5175 C5178 1.499 . S
C5176 H5156 0.950 . S
C5176 C5175 1.414 . S
C5176 C5177 1.374 . S
C5177 H5157 0.950 . S
C5177 C5173 1.385 . S
C5177 C5176 1.374 . S
C5178 C5175 1.499 . S
C5178 C5179 1.373 . S
C5178 C5180 1.389 . S
C5179 H5158 0.950 . S
C5179 C5178 1.373 . S
C5179 C5195 1.377 . S
C5180 C5178 1.389 . S
C5180 C5181 1.524 . S
C5180 C5194 1.377 . S
C5181 C5180 1.524 . S
C5181 C5182 1.397 . S
C5181 C5186 1.363 . S
C5182 H5159 0.950 . S
C5182 C5181 1.397 . S
C5182 C5183 1.334 . S
C5183 H5160 0.950 . S
C5183 C5182 1.334 . S
C5183 C5184 1.287 . S
C5184 C5183 1.287 . S
C5184 C5185 1.524 . S
C5184 H5203 0.913 . S
C5185 H5161 0.950 . S
C5185 C5184 1.524 . S
C5185 C5186 1.415 . S
C5186 H5162 0.950 . S
C5186 C5181 1.363 . S
C5186 C5185 1.415 . S
C5187 H5163 0.951 . S
C5187 C5188 1.366 . S
C5187 C5189 1.388 . S
C5188 C5187 1.366 . S
C5188 C5192 1.385 . S
C5189 H5164 0.951 . S
C5189 C5187 1.388 . S
C5189 C5190 1.366 . S
C5190 C5189 1.366 . S
C5190 C5191 1.414 . S
C5190 C5193 1.499 . S
C5191 H5165 0.950 . S
C5191 C5190 1.414 . S
C5191 C5192 1.374 . S
C5192 H5166 0.950 . S
C5192 C5188 1.385 . S
C5192 C5191 1.374 . S
C5193 C5190 1.499 . S
C5193 C5194 1.373 . S
C5193 C5195 1.389 . S
C5194 H5167 0.950 . S
C5194 C5180 1.377 . S
C5194 C5193 1.373 . S
C5195 C5179 1.377 . S
C5195 C5193 1.389 . S
C5195 C5196 1.524 . S
C5196 C5195 1.524 . S
C5196 C5197 1.397 . S
C5196 C5201 1.363 . S
C5197 H5168 0.950 . S
C5197 C5196 1.397 . S
C5197 C5198 1.334 . S
C5198 H5169 0.950 . S
C5198 C5197 1.334 . S
C5198 C5199 1.287 . S
C5199 C5198 1.287 . S
C5199 C5200 1.524 . S
C5199 H5202 0.999 . S
C5200 H5170 0.950 . S
C5200 C5199 1.524 . S
C5200 C5201 1.415 . S
C5201 H5171 0.950 . S
C5201 C5196 1.363 . S
C5201 C5200 1.415 . S
H5202 C5199 0.999 . S
H5203 C5184 0.913 . S
H5204 C5222 0.951 . S
H5205 C5224 0.951 . S
H5206 C5226 0.950 . S
H5207 C5227 0.950 . S
H5208 C5229 0.950 . S
H5209 C5232 0.950 . S
H5210 C5233 0.950 . S
H5211 C5235 0.950 . S
H5212 C5236 0.950 . S
H5213 C5237 0.951 . S
H5214 C5239 0.951 . S
H5215 C5241 0.950 . S
H5216 C5242 0.950 . S
H5217 C5244 0.950 . S
H5218 C5247 0.936 1_455 S
H5219 C5248 0.950 . S
H5220 C5250 0.950 . S
H5221 C5251 0.947 1_455 S
C5222 H5204 0.951 . S
C5222 C5223 1.366 . S
C5222 C5224 1.388 . S
C5223 C5222 1.366 . S
C5223 C5227 1.385 . S
C5224 H5205 0.951 . S
C5224 C5222 1.388 . S
C5224 C5225 1.366 . S
C5225 C5224 1.366 . S
C5225 C5226 1.414 . S
C5225 C5228 1.499 . S
C5226 H5206 0.950 . S
C5226 C5225 1.414 . S
C5226 C5227 1.374 . S
C5227 H5207 0.950 . S
C5227 C5223 1.385 . S
C5227 C5226 1.374 . S
C5228 C5225 1.499 . S
C5228 C5229 1.373 . S
C5228 C5230 1.389 . S
C5229 H5208 0.950 . S
C5229 C5228 1.373 . S
C5229 C5245 1.377 . S
C5230 C5228 1.389 . S
C5230 C5231 1.524 . S
C5230 C5244 1.377 . S
C5231 C5230 1.524 . S
C5231 C5232 1.397 . S
C5231 C5236 1.363 . S
C5232 H5209 0.950 . S
C5232 C5231 1.397 . S
C5232 C5233 1.334 . S
C5233 H5210 0.950 . S
C5233 C5232 1.334 . S
C5233 C5234 1.287 . S
C5234 C5233 1.287 . S
C5234 C5235 1.524 . S
C5234 H5253 0.913 . S
C5235 H5211 0.950 . S
C5235 C5234 1.524 . S
C5235 C5236 1.415 . S
C5236 H5212 0.950 . S
C5236 C5231 1.363 . S
C5236 C5235 1.415 . S
C5237 H5213 0.951 . S
C5237 C5238 1.366 . S
C5237 C5239 1.388 . S
C5238 C5237 1.366 . S
C5238 C5242 1.385 . S
C5239 H5214 0.951 . S
C5239 C5237 1.388 . S
C5239 C5240 1.366 . S
C5240 C5239 1.366 . S
C5240 C5241 1.414 . S
C5240 C5243 1.499 . S
C5241 H5215 0.950 . S
C5241 C5240 1.414 . S
C5241 C5242 1.374 . S
C5242 H5216 0.950 . S
C5242 C5238 1.385 . S
C5242 C5241 1.374 . S
C5243 C5240 1.499 . S
C5243 C5244 1.373 . S
C5243 C5245 1.389 . S
C5244 H5217 0.950 . S
C5244 C5230 1.377 . S
C5244 C5243 1.373 . S
C5245 C5229 1.377 . S
C5245 C5243 1.389 . S
C5245 C5246 1.524 . S
C5246 C5245 1.524 . S
C5246 C5247 1.397 1_455 S
C5246 C5251 1.363 1_455 S
C5247 H5218 0.936 1_655 S
C5247 C5246 1.397 1_655 S
C5247 C5248 1.334 . S
C5248 H5219 0.950 . S
C5248 C5247 1.334 . S
C5248 C5249 1.287 . S
C5249 C5248 1.287 . S
C5249 C5250 1.524 . S
C5249 H5252 0.999 . S
C5250 H5220 0.950 . S
C5250 C5249 1.524 . S
C5250 C5251 1.415 . S
C5251 H5221 0.947 1_655 S
C5251 C5246 1.363 1_655 S
C5251 C5250 1.415 . S
H5252 C5249 0.999 . S
H5253 C5234 0.913 . S
H5254 C5272 0.951 . S
H5255 C5274 0.951 . S
H5256 C5276 0.950 . S
H5257 C5277 0.950 . S
H5258 C5279 0.950 . S
H5259 C5282 0.950 . S
H5260 C5283 0.950 . S
H5261 C5285 0.950 . S
H5262 C5286 0.950 . S
H5263 C5287 0.951 . S
H5264 C5289 0.951 . S
H5265 C5291 0.950 . S
H5266 C5292 0.950 . S
H5267 C5294 0.950 . S
H5268 C5297 0.950 . S
H5269 C5298 0.950 . S
H5270 C5300 0.950 . S
H5271 C5301 0.950 . S
C5272 H5254 0.951 . S
C5272 C5273 1.366 . S
C5272 C5274 1.388 . S
C5273 C5272 1.366 . S
C5273 C5277 1.385 . S
C5274 H5255 0.951 . S
C5274 C5272 1.388 . S
C5274 C5275 1.366 . S
C5275 C5274 1.366 . S
C5275 C5276 1.414 . S
C5275 C5278 1.499 . S
C5276 H5256 0.950 . S
C5276 C5275 1.414 . S
C5276 C5277 1.374 . S
C5277 H5257 0.950 . S
C5277 C5273 1.385 . S
C5277 C5276 1.374 . S
C5278 C5275 1.499 . S
C5278 C5279 1.373 . S
C5278 C5280 1.389 . S
C5279 H5258 0.950 . S
C5279 C5278 1.373 . S
C5279 C5295 1.377 . S
C5280 C5278 1.389 . S
C5280 C5281 1.524 . S
C5280 C5294 1.377 . S
C5281 C5280 1.524 . S
C5281 C5282 1.397 . S
C5281 C5286 1.363 . S
C5282 H5259 0.950 . S
C5282 C5281 1.397 . S
C5282 C5283 1.334 . S
C5283 H5260 0.950 . S
C5283 C5282 1.334 . S
C5283 C5284 1.287 . S
C5284 C5283 1.287 . S
C5284 C5285 1.524 . S
C5284 H5303 0.913 . S
C5285 H5261 0.950 . S
C5285 C5284 1.524 . S
C5285 C5286 1.415 . S
C5286 H5262 0.950 . S
C5286 C5281 1.363 . S
C5286 C5285 1.415 . S
C5287 H5263 0.951 . S
C5287 C5288 1.366 . S
C5287 C5289 1.388 . S
C5288 C5287 1.366 . S
C5288 C5292 1.385 . S
C5289 H5264 0.951 . S
C5289 C5287 1.388 . S
C5289 C5290 1.366 . S
C5290 C5289 1.366 . S
C5290 C5291 1.414 . S
C5290 C5293 1.499 . S
C5291 H5265 0.950 . S
C5291 C5290 1.414 . S
C5291 C5292 1.374 . S
C5292 H5266 0.950 . S
C5292 C5288 1.385 . S
C5292 C5291 1.374 . S
C5293 C5290 1.499 . S
C5293 C5294 1.373 . S
C5293 C5295 1.389 . S
C5294 H5267 0.950 . S
C5294 C5280 1.377 . S
C5294 C5293 1.373 . S
C5295 C5279 1.377 . S
C5295 C5293 1.389 . S
C5295 C5296 1.524 . S
C5296 C5295 1.524 . S
C5296 C5297 1.397 . S
C5296 C5301 1.363 . S
C5297 H5268 0.950 . S
C5297 C5296 1.397 . S
C5297 C5298 1.334 . S
C5298 H5269 0.950 . S
C5298 C5297 1.334 . S
C5298 C5299 1.287 . S
C5299 C5298 1.287 . S
C5299 C5300 1.524 . S
C5299 H5302 0.999 . S
C5300 H5270 0.950 . S
C5300 C5299 1.524 . S
C5300 C5301 1.415 . S
C5301 H5271 0.950 . S
C5301 C5296 1.363 . S
C5301 C5300 1.415 . S
H5302 C5299 0.999 . S
H5303 C5284 0.913 . S
H5304 C5322 0.951 . S
H5305 C5324 0.951 . S
H5306 C5326 0.950 . S
H5307 C5327 0.950 . S
H5308 C5329 0.950 . S
H5309 C5332 0.950 . S
H5310 C5333 0.950 . S
H5311 C5335 0.950 . S
H5312 C5336 0.950 . S
H5313 C5337 0.951 . S
H5314 C5339 0.951 . S
H5315 C5341 0.950 . S
H5316 C5342 0.950 . S
H5317 C5344 0.950 . S
H5318 C5347 0.950 . S
H5319 C5348 0.950 1_554 S
H5320 C5350 0.950 . S
H5321 C5351 0.950 . S
C5322 H5304 0.951 . S
C5322 C5323 1.366 . S
C5322 C5324 1.388 . S
C5323 C5322 1.366 . S
C5323 C5327 1.385 . S
C5324 H5305 0.951 . S
C5324 C5322 1.388 . S
C5324 C5325 1.366 . S
C5325 C5324 1.366 . S
C5325 C5326 1.414 . S
C5325 C5328 1.499 . S
C5326 H5306 0.950 . S
C5326 C5325 1.414 . S
C5326 C5327 1.374 . S
C5327 H5307 0.950 . S
C5327 C5323 1.385 . S
C5327 C5326 1.374 . S
C5328 C5325 1.499 . S
C5328 C5329 1.373 . S
C5328 C5330 1.389 . S
C5329 H5308 0.950 . S
C5329 C5328 1.373 . S
C5329 C5345 1.377 . S
C5330 C5328 1.389 . S
C5330 C5331 1.524 . S
C5330 C5344 1.377 . S
C5331 C5330 1.524 . S
C5331 C5332 1.397 . S
C5331 C5336 1.363 . S
C5332 H5309 0.950 . S
C5332 C5331 1.397 . S
C5332 C5333 1.334 . S
C5333 H5310 0.950 . S
C5333 C5332 1.334 . S
C5333 C5334 1.287 . S
C5334 C5333 1.287 . S
C5334 C5335 1.524 . S
C5334 H5353 0.913 . S
C5335 H5311 0.950 . S
C5335 C5334 1.524 . S
C5335 C5336 1.415 . S
C5336 H5312 0.950 . S
C5336 C5331 1.363 . S
C5336 C5335 1.415 . S
C5337 H5313 0.951 . S
C5337 C5338 1.366 . S
C5337 C5339 1.388 . S
C5338 C5337 1.366 . S
C5338 C5342 1.385 . S
C5339 H5314 0.951 . S
C5339 C5337 1.388 . S
C5339 C5340 1.366 . S
C5340 C5339 1.366 . S
C5340 C5341 1.414 . S
C5340 C5343 1.499 . S
C5341 H5315 0.950 . S
C5341 C5340 1.414 . S
C5341 C5342 1.374 . S
C5342 H5316 0.950 . S
C5342 C5338 1.385 . S
C5342 C5341 1.374 . S
C5343 C5340 1.499 . S
C5343 C5344 1.373 . S
C5343 C5345 1.389 . S
C5344 H5317 0.950 . S
C5344 C5330 1.377 . S
C5344 C5343 1.373 . S
C5345 C5329 1.377 . S
C5345 C5343 1.389 . S
C5345 C5346 1.524 . S
C5346 C5345 1.524 . S
C5346 C5347 1.397 . S
C5346 C5351 1.363 . S
C5347 H5318 0.950 . S
C5347 C5346 1.397 . S
C5347 C5348 1.334 . S
C5348 H5319 0.950 1_556 S
C5348 C5347 1.334 . S
C5348 C5349 1.287 . S
C5349 C5348 1.287 . S
C5349 C5350 1.524 . S
C5349 H5352 0.999 1_556 S
C5350 H5320 0.950 . S
C5350 C5349 1.524 . S
C5350 C5351 1.415 . S
C5351 H5321 0.950 . S
C5351 C5346 1.363 . S
C5351 C5350 1.415 . S
H5352 C5349 0.999 1_554 S
H5353 C5334 0.913 . S
H5354 C5372 0.951 . S
H5355 C5374 0.951 . S
H5356 C5376 0.950 . S
H5357 C5377 0.950 . S
H5358 C5379 0.950 . S
H5359 C5382 0.950 . S
H5360 C5383 0.950 . S
H5361 C5385 0.950 . S
H5362 C5386 0.950 . S
H5363 C5387 0.951 . S
H5364 C5389 0.951 . S
H5365 C5391 0.950 . S
H5366 C5392 0.950 . S
H5367 C5394 0.950 . S
H5368 C5397 0.950 . S
H5369 C5398 0.950 . S
H5370 C5400 0.950 . S
H5371 C5401 0.950 . S
C5372 H5354 0.951 . S
C5372 C5373 1.366 . S
C5372 C5374 1.388 . S
C5373 C5372 1.366 . S
C5373 C5377 1.385 . S
C5374 H5355 0.951 . S
C5374 C5372 1.388 . S
C5374 C5375 1.366 . S
C5375 C5374 1.366 . S
C5375 C5376 1.414 . S
C5375 C5378 1.499 . S
C5376 H5356 0.950 . S
C5376 C5375 1.414 . S
C5376 C5377 1.374 . S
C5377 H5357 0.950 . S
C5377 C5373 1.385 . S
C5377 C5376 1.374 . S
C5378 C5375 1.499 . S
C5378 C5379 1.373 . S
C5378 C5380 1.389 . S
C5379 H5358 0.950 . S
C5379 C5378 1.373 . S
C5379 C5395 1.377 . S
C5380 C5378 1.389 . S
C5380 C5381 1.524 . S
C5380 C5394 1.377 . S
C5381 C5380 1.524 . S
C5381 C5382 1.397 . S
C5381 C5386 1.363 . S
C5382 H5359 0.950 . S
C5382 C5381 1.397 . S
C5382 C5383 1.334 . S
C5383 H5360 0.950 . S
C5383 C5382 1.334 . S
C5383 C5384 1.287 . S
C5384 C5383 1.287 . S
C5384 C5385 1.524 . S
C5384 H5403 0.913 . S
C5385 H5361 0.950 . S
C5385 C5384 1.524 . S
C5385 C5386 1.415 . S
C5386 H5362 0.950 . S
C5386 C5381 1.363 . S
C5386 C5385 1.415 . S
C5387 H5363 0.951 . S
C5387 C5388 1.366 . S
C5387 C5389 1.388 . S
C5388 C5387 1.366 . S
C5388 C5392 1.385 . S
C5389 H5364 0.951 . S
C5389 C5387 1.388 . S
C5389 C5390 1.366 . S
C5390 C5389 1.366 . S
C5390 C5391 1.414 . S
C5390 C5393 1.499 . S
C5391 H5365 0.950 . S
C5391 C5390 1.414 . S
C5391 C5392 1.374 . S
C5392 H5366 0.950 . S
C5392 C5388 1.385 . S
C5392 C5391 1.374 . S
C5393 C5390 1.499 . S
C5393 C5394 1.373 . S
C5393 C5395 1.389 . S
C5394 H5367 0.950 . S
C5394 C5380 1.377 . S
C5394 C5393 1.373 . S
C5395 C5379 1.377 . S
C5395 C5393 1.389 . S
C5395 C5396 1.524 . S
C5396 C5395 1.524 . S
C5396 C5397 1.397 . S
C5396 C5401 1.363 . S
C5397 H5368 0.950 . S
C5397 C5396 1.397 . S
C5397 C5398 1.334 . S
C5398 H5369 0.950 . S
C5398 C5397 1.334 . S
C5398 C5399 1.287 . S
C5399 C5398 1.287 . S
C5399 C5400 1.524 . S
C5399 H5402 0.999 . S
C5400 H5370 0.950 . S
C5400 C5399 1.524 . S
C5400 C5401 1.415 . S
C5401 H5371 0.950 . S
C5401 C5396 1.363 . S
C5401 C5400 1.415 . S
H5402 C5399 0.999 . S
H5403 C5384 0.913 . S
H5404 C5422 0.951 . S
H5405 C5424 0.921 1_655 S
H5406 C5426 0.950 . S
H5407 C5427 0.950 . S
H5408 C5429 0.950 . S
H5409 C5432 0.950 . S
H5410 C5433 0.950 . S
H5411 C5435 0.950 . S
H5412 C5436 0.950 . S
H5413 C5437 0.951 . S
H5414 C5439 0.951 . S
H5415 C5441 0.950 . S
H5416 C5442 0.950 . S
H5417 C5444 0.950 1_655 S
H5418 C5447 0.950 . S
H5419 C5448 0.950 . S
H5420 C5450 0.950 . S
H5421 C5451 0.950 . S
C5422 H5404 0.951 . S
C5422 C5423 1.366 1_655 S
C5422 C5424 1.394 1_655 S
C5423 C5422 1.366 1_455 S
C5423 C5427 1.385 . S
C5424 H5405 0.921 1_455 S
C5424 C5422 1.394 1_455 S
C5424 C5425 1.390 . S
C5425 C5424 1.390 . S
C5425 C5426 1.414 . S
C5425 C5428 1.499 . S
C5426 H5406 0.950 . S
C5426 C5425 1.414 . S
C5426 C5427 1.374 . S
C5427 H5407 0.950 . S
C5427 C5423 1.385 . S
C5427 C5426 1.374 . S
C5428 C5425 1.499 . S
C5428 C5429 1.373 . S
C5428 C5430 1.389 . S
C5429 H5408 0.950 . S
C5429 C5428 1.373 . S
C5429 C5445 1.377 . S
C5430 C5428 1.389 . S
C5430 C5431 1.524 1_455 S
C5430 C5444 1.377 . S
C5431 C5430 1.524 1_655 S
C5431 C5432 1.397 . S
C5431 C5436 1.363 . S
C5432 H5409 0.950 . S
C5432 C5431 1.397 . S
C5432 C5433 1.334 . S
C5433 H5410 0.950 . S
C5433 C5432 1.334 . S
C5433 C5434 1.287 . S
C5434 C5433 1.287 . S
C5434 C5435 1.524 . S
C5434 H5453 0.913 . S
C5435 H5411 0.950 . S
C5435 C5434 1.524 . S
C5435 C5436 1.415 . S
C5436 H5412 0.950 . S
C5436 C5431 1.363 . S
C5436 C5435 1.415 . S
C5437 H5413 0.951 . S
C5437 C5438 1.366 . S
C5437 C5439 1.388 . S
C5438 C5437 1.366 . S
C5438 C5442 1.385 . S
C5439 H5414 0.951 . S
C5439 C5437 1.388 . S
C5439 C5440 1.366 . S
C5440 C5439 1.366 . S
C5440 C5441 1.414 . S
C5440 C5443 1.499 . S
C5441 H5415 0.950 . S
C5441 C5440 1.414 . S
C5441 C5442 1.374 . S
C5442 H5416 0.950 . S
C5442 C5438 1.385 . S
C5442 C5441 1.374 . S
C5443 C5440 1.499 . S
C5443 C5444 1.373 . S
C5443 C5445 1.389 . S
C5444 H5417 0.950 1_455 S
C5444 C5430 1.377 . S
C5444 C5443 1.373 . S
C5445 C5429 1.377 . S
C5445 C5443 1.389 . S
C5445 C5446 1.524 . S
C5446 C5445 1.524 . S
C5446 C5447 1.397 . S
C5446 C5451 1.363 . S
C5447 H5418 0.950 . S
C5447 C5446 1.397 . S
C5447 C5448 1.334 . S
C5448 H5419 0.950 . S
C5448 C5447 1.334 . S
C5448 C5449 1.287 . S
C5449 C5448 1.287 . S
C5449 C5450 1.524 . S
C5449 H5452 0.999 . S
C5450 H5420 0.950 . S
C5450 C5449 1.524 . S
C5450 C5451 1.415 . S
C5451 H5421 0.950 . S
C5451 C5446 1.363 . S
C5451 C5450 1.415 . S
H5452 C5449 0.999 . S
H5453 C5434 0.913 . S
H5454 C5472 0.951 . S
H5455 C5474 0.951 . S
H5456 C5476 0.950 . S
H5457 C5477 0.950 . S
H5458 C5479 0.950 . S
H5459 C5482 0.950 . S
H5460 C5483 0.950 . S
H5461 C5485 0.950 . S
H5462 C5486 0.950 . S
H5463 C5487 0.951 . S
H5464 C5489 0.951 . S
H5465 C5491 0.950 . S
H5466 C5492 0.950 . S
H5467 C5494 0.950 . S
H5468 C5497 0.950 . S
H5469 C5498 0.950 . S
H5470 C5500 0.950 . S
H5471 C5501 0.950 . S
C5472 H5454 0.951 . S
C5472 C5473 1.366 . S
C5472 C5474 1.388 . S
C5473 C5472 1.366 . S
C5473 C5477 1.385 . S
C5474 H5455 0.951 . S
C5474 C5472 1.388 . S
C5474 C5475 1.366 . S
C5475 C5474 1.366 . S
C5475 C5476 1.414 . S
C5475 C5478 1.499 . S
C5476 H5456 0.950 . S
C5476 C5475 1.414 . S
C5476 C5477 1.374 . S
C5477 H5457 0.950 . S
C5477 C5473 1.385 . S
C5477 C5476 1.374 . S
C5478 C5475 1.499 . S
C5478 C5479 1.373 . S
C5478 C5480 1.389 . S
C5479 H5458 0.950 . S
C5479 C5478 1.373 . S
C5479 C5495 1.377 . S
C5480 C5478 1.389 . S
C5480 C5481 1.524 . S
C5480 C5494 1.377 . S
C5481 C5480 1.524 . S
C5481 C5482 1.397 . S
C5481 C5486 1.363 . S
C5482 H5459 0.950 . S
C5482 C5481 1.397 . S
C5482 C5483 1.334 . S
C5483 H5460 0.950 . S
C5483 C5482 1.334 . S
C5483 C5484 1.287 . S
C5484 C5483 1.287 . S
C5484 C5485 1.524 . S
C5484 H5503 0.913 . S
C5485 H5461 0.950 . S
C5485 C5484 1.524 . S
C5485 C5486 1.415 . S
C5486 H5462 0.950 . S
C5486 C5481 1.363 . S
C5486 C5485 1.415 . S
C5487 H5463 0.951 . S
C5487 C5488 1.366 . S
C5487 C5489 1.388 . S
C5488 C5487 1.366 . S
C5488 C5492 1.385 . S
C5489 H5464 0.951 . S
C5489 C5487 1.388 . S
C5489 C5490 1.366 . S
C5490 C5489 1.366 . S
C5490 C5491 1.414 . S
C5490 C5493 1.499 . S
C5491 H5465 0.950 . S
C5491 C5490 1.414 . S
C5491 C5492 1.374 . S
C5492 H5466 0.950 . S
C5492 C5488 1.385 . S
C5492 C5491 1.374 . S
C5493 C5490 1.499 . S
C5493 C5494 1.373 . S
C5493 C5495 1.389 . S
C5494 H5467 0.950 . S
C5494 C5480 1.377 . S
C5494 C5493 1.373 . S
C5495 C5479 1.377 . S
C5495 C5493 1.389 . S
C5495 C5496 1.524 . S
C5496 C5495 1.524 . S
C5496 C5497 1.397 . S
C5496 C5501 1.363 . S
C5497 H5468 0.950 . S
C5497 C5496 1.397 . S
C5497 C5498 1.334 . S
C5498 H5469 0.950 . S
C5498 C5497 1.334 . S
C5498 C5499 1.287 . S
C5499 C5498 1.287 . S
C5499 C5500 1.524 . S
C5499 H5502 0.999 . S
C5500 H5470 0.950 . S
C5500 C5499 1.524 . S
C5500 C5501 1.415 . S
C5501 H5471 0.950 . S
C5501 C5496 1.363 . S
C5501 C5500 1.415 . S
H5502 C5499 0.999 . S
H5503 C5484 0.913 . S
H5504 C5522 0.951 . S
H5505 C5524 0.951 . S
H5506 C5526 0.950 . S
H5507 C5527 0.950 . S
H5508 C5529 0.950 . S
H5509 C5532 0.950 . S
H5510 C5533 0.950 . S
H5511 C5535 0.950 . S
H5512 C5536 0.950 . S
H5513 C5537 0.951 . S
H5514 C5539 0.951 . S
H5515 C5541 0.950 . S
H5516 C5542 0.950 . S
H5517 C5544 0.950 . S
H5518 C5547 0.950 . S
H5519 C5548 0.950 . S
H5520 C5550 0.950 . S
H5521 C5551 0.950 . S
C5522 H5504 0.951 . S
C5522 C5523 1.366 . S
C5522 C5524 1.388 . S
C5523 C5522 1.366 . S
C5523 C5527 1.385 . S
C5524 H5505 0.951 . S
C5524 C5522 1.388 . S
C5524 C5525 1.366 . S
C5525 C5524 1.366 . S
C5525 C5526 1.414 . S
C5525 C5528 1.499 . S
C5526 H5506 0.950 . S
C5526 C5525 1.414 . S
C5526 C5527 1.374 . S
C5527 H5507 0.950 . S
C5527 C5523 1.385 . S
C5527 C5526 1.374 . S
C5528 C5525 1.499 . S
C5528 C5529 1.373 . S
C5528 C5530 1.389 . S
C5529 H5508 0.950 . S
C5529 C5528 1.373 . S
C5529 C5545 1.377 . S
C5530 C5528 1.389 . S
C5530 C5531 1.524 . S
C5530 C5544 1.377 . S
C5531 C5530 1.524 . S
C5531 C5532 1.397 . S
C5531 C5536 1.363 . S
C5532 H5509 0.950 . S
C5532 C5531 1.397 . S
C5532 C5533 1.334 . S
C5533 H5510 0.950 . S
C5533 C5532 1.334 . S
C5533 C5534 1.287 . S
C5534 C5533 1.287 . S
C5534 C5535 1.524 . S
C5534 H5553 0.913 . S
C5535 H5511 0.950 . S
C5535 C5534 1.524 . S
C5535 C5536 1.415 . S
C5536 H5512 0.950 . S
C5536 C5531 1.363 . S
C5536 C5535 1.415 . S
C5537 H5513 0.951 . S
C5537 C5538 1.366 . S
C5537 C5539 1.388 . S
C5538 C5537 1.366 . S
C5538 C5542 1.385 . S
C5539 H5514 0.951 . S
C5539 C5537 1.388 . S
C5539 C5540 1.366 . S
C5540 C5539 1.366 . S
C5540 C5541 1.414 . S
C5540 C5543 1.499 . S
C5541 H5515 0.950 . S
C5541 C5540 1.414 . S
C5541 C5542 1.374 . S
C5542 H5516 0.950 . S
C5542 C5538 1.385 . S
C5542 C5541 1.374 . S
C5543 C5540 1.499 . S
C5543 C5544 1.373 . S
C5543 C5545 1.389 . S
C5544 H5517 0.950 . S
C5544 C5530 1.377 . S
C5544 C5543 1.373 . S
C5545 C5529 1.377 . S
C5545 C5543 1.389 . S
C5545 C5546 1.524 . S
C5546 C5545 1.524 . S
C5546 C5547 1.397 . S
C5546 C5551 1.363 . S
C5547 H5518 0.950 . S
C5547 C5546 1.397 . S
C5547 C5548 1.334 . S
C5548 H5519 0.950 . S
C5548 C5547 1.334 . S
C5548 C5549 1.287 . S
C5549 C5548 1.287 . S
C5549 C5550 1.524 . S
C5549 H5552 0.999 . S
C5550 H5520 0.950 . S
C5550 C5549 1.524 . S
C5550 C5551 1.415 . S
C5551 H5521 0.950 . S
C5551 C5546 1.363 . S
C5551 C5550 1.415 . S
H5552 C5549 0.999 . S
H5553 C5534 0.913 . S
H5554 C5572 0.951 . S
H5555 C5574 0.951 . S
H5556 C5576 0.950 . S
H5557 C5577 0.950 . S
H5558 C5579 0.950 . S
H5559 C5582 0.950 . S
H5560 C5583 0.950 . S
H5561 C5585 0.950 . S
H5562 C5586 0.950 . S
H5563 C5587 0.951 . S
H5564 C5589 0.951 . S
H5565 C5591 0.950 . S
H5566 C5592 0.950 . S
H5567 C5594 0.950 . S
H5568 C5597 0.950 . S
H5569 C5598 0.950 . S
H5570 C5600 0.950 . S
H5571 C5601 0.950 . S
C5572 H5554 0.951 . S
C5572 C5573 1.366 . S
C5572 C5574 1.388 . S
C5573 C5572 1.366 . S
C5573 C5577 1.385 . S
C5574 H5555 0.951 . S
C5574 C5572 1.388 . S
C5574 C5575 1.366 . S
C5575 C5574 1.366 . S
C5575 C5576 1.414 . S
C5575 C5578 1.499 . S
C5576 H5556 0.950 . S
C5576 C5575 1.414 . S
C5576 C5577 1.374 . S
C5577 H5557 0.950 . S
C5577 C5573 1.385 . S
C5577 C5576 1.374 . S
C5578 C5575 1.499 . S
C5578 C5579 1.373 . S
C5578 C5580 1.389 . S
C5579 H5558 0.950 . S
C5579 C5578 1.373 . S
C5579 C5595 1.377 . S
C5580 C5578 1.389 . S
C5580 C5581 1.524 . S
C5580 C5594 1.377 . S
C5581 C5580 1.524 . S
C5581 C5582 1.397 . S
C5581 C5586 1.363 . S
C5582 H5559 0.950 . S
C5582 C5581 1.397 . S
C5582 C5583 1.334 . S
C5583 H5560 0.950 . S
C5583 C5582 1.334 . S
C5583 C5584 1.287 . S
C5584 C5583 1.287 . S
C5584 C5585 1.524 . S
C5584 H5603 0.913 . S
C5585 H5561 0.950 . S
C5585 C5584 1.524 . S
C5585 C5586 1.415 . S
C5586 H5562 0.950 . S
C5586 C5581 1.363 . S
C5586 C5585 1.415 . S
C5587 H5563 0.951 . S
C5587 C5588 1.366 . S
C5587 C5589 1.388 . S
C5588 C5587 1.366 . S
C5588 C5592 1.385 . S
C5589 H5564 0.951 . S
C5589 C5587 1.388 . S
C5589 C5590 1.366 . S
C5590 C5589 1.366 . S
C5590 C5591 1.414 . S
C5590 C5593 1.499 . S
C5591 H5565 0.950 . S
C5591 C5590 1.414 . S
C5591 C5592 1.374 . S
C5592 H5566 0.950 . S
C5592 C5588 1.385 . S
C5592 C5591 1.374 . S
C5593 C5590 1.499 . S
C5593 C5594 1.373 . S
C5593 C5595 1.389 . S
C5594 H5567 0.950 . S
C5594 C5580 1.377 . S
C5594 C5593 1.373 . S
C5595 C5579 1.377 . S
C5595 C5593 1.389 . S
C5595 C5596 1.524 . S
C5596 C5595 1.524 . S
C5596 C5597 1.397 . S
C5596 C5601 1.363 . S
C5597 H5568 0.950 . S
C5597 C5596 1.397 . S
C5597 C5598 1.334 . S
C5598 H5569 0.950 . S
C5598 C5597 1.334 . S
C5598 C5599 1.287 . S
C5599 C5598 1.287 . S
C5599 C5600 1.524 . S
C5599 H5602 0.999 . S
C5600 H5570 0.950 . S
C5600 C5599 1.524 . S
C5600 C5601 1.415 . S
C5601 H5571 0.950 . S
C5601 C5596 1.363 . S
C5601 C5600 1.415 . S
H5602 C5599 0.999 . S
H5603 C5584 0.913 . S
H5604 C5622 0.951 . S
H5605 C5624 0.951 . S
H5606 C5626 0.950 . S
H5607 C5627 0.950 . S
H5608 C5629 0.950 . S
H5609 C5632 0.950 . S
H5610 C5633 0.950 . S
H5611 C5635 0.950 . S
H5612 C5636 0.950 . S
H5613 C5637 0.951 . S
H5614 C5639 0.951 . S
H5615 C5641 0.950 . S
H5616 C5642 0.950 . S
H5617 C5644 0.950 . S
H5618 C5647 0.950 . S
H5619 C5648 0.950 . S
H5620 C5650 0.950 . S
H5621 C5651 0.950 . S
C5622 H5604 0.951 . S
C5622 C5623 1.366 . S
C5622 C5624 1.388 . S
C5623 C5622 1.366 . S
C5623 C5627 1.385 . S
C5624 H5605 0.951 . S
C5624 C5622 1.388 . S
C5624 C5625 1.366 . S
C5625 C5624 1.366 . S
C5625 C5626 1.414 . S
C5625 C5628 1.499 . S
C5626 H5606 0.950 . S
C5626 C5625 1.414 . S
C5626 C5627 1.374 . S
C5627 H5607 0.950 . S
C5627 C5623 1.385 . S
C5627 C5626 1.374 . S
C5628 C5625 1.499 . S
C5628 C5629 1.373 . S
C5628 C5630 1.389 . S
C5629 H5608 0.950 . S
C5629 C5628 1.373 . S
C5629 C5645 1.377 . S
C5630 C5628 1.389 . S
C5630 C5631 1.524 . S
C5630 C5644 1.377 . S
C5631 C5630 1.524 . S
C5631 C5632 1.397 . S
C5631 C5636 1.363 . S
C5632 H5609 0.950 . S
C5632 C5631 1.397 . S
C5632 C5633 1.334 . S
C5633 H5610 0.950 . S
C5633 C5632 1.334 . S
C5633 C5634 1.287 . S
C5634 C5633 1.287 . S
C5634 C5635 1.524 . S
C5634 H5653 0.913 . S
C5635 H5611 0.950 . S
C5635 C5634 1.524 . S
C5635 C5636 1.415 . S
C5636 H5612 0.950 . S
C5636 C5631 1.363 . S
C5636 C5635 1.415 . S
C5637 H5613 0.951 . S
C5637 C5638 1.366 . S
C5637 C5639 1.388 . S
C5638 C5637 1.366 . S
C5638 C5642 1.385 1_455 S
C5639 H5614 0.951 . S
C5639 C5637 1.388 . S
C5639 C5640 1.366 1_455 S
C5640 C5639 1.366 1_655 S
C5640 C5641 1.414 . S
C5640 C5643 1.499 . S
C5641 H5615 0.950 . S
C5641 C5640 1.414 . S
C5641 C5642 1.374 . S
C5642 H5616 0.950 . S
C5642 C5638 1.385 1_655 S
C5642 C5641 1.374 . S
C5643 C5640 1.499 . S
C5643 C5644 1.373 . S
C5643 C5645 1.389 . S
C5644 H5617 0.950 . S
C5644 C5630 1.377 . S
C5644 C5643 1.373 . S
C5645 C5629 1.377 . S
C5645 C5643 1.389 . S
C5645 C5646 1.524 . S
C5646 C5645 1.524 . S
C5646 C5647 1.397 . S
C5646 C5651 1.363 1_655 S
C5647 H5618 0.950 . S
C5647 C5646 1.397 . S
C5647 C5648 1.334 1_655 S
C5648 H5619 0.950 . S
C5648 C5647 1.334 1_455 S
C5648 C5649 1.287 . S
C5649 C5648 1.287 . S
C5649 C5650 1.524 . S
C5649 H5652 0.999 . S
C5650 H5620 0.950 . S
C5650 C5649 1.524 . S
C5650 C5651 1.415 . S
C5651 H5621 0.950 . S
C5651 C5646 1.363 1_455 S
C5651 C5650 1.415 . S
H5652 C5649 0.999 . S
H5653 C5634 0.913 . S
H5654 C5672 0.951 . S
H5655 C5674 0.951 . S
H5656 C5676 0.950 . S
H5657 C5677 0.950 . S
H5658 C5679 0.950 . S
H5659 C5682 0.950 . S
H5660 C5683 0.950 . S
H5661 C5685 0.950 . S
H5662 C5686 0.950 . S
H5663 C5687 0.951 . S
H5664 C5689 0.951 . S
H5665 C5691 0.950 . S
H5666 C5692 0.950 . S
H5667 C5694 0.950 . S
H5668 C5697 0.950 . S
H5669 C5698 0.950 . S
H5670 C5700 0.950 . S
H5671 C5701 0.950 . S
C5672 H5654 0.951 . S
C5672 C5673 1.366 . S
C5672 C5674 1.388 . S
C5673 C5672 1.366 . S
C5673 C5677 1.385 . S
C5674 H5655 0.951 . S
C5674 C5672 1.388 . S
C5674 C5675 1.366 . S
C5675 C5674 1.366 . S
C5675 C5676 1.414 . S
C5675 C5678 1.499 . S
C5676 H5656 0.950 . S
C5676 C5675 1.414 . S
C5676 C5677 1.374 . S
C5677 H5657 0.950 . S
C5677 C5673 1.385 . S
C5677 C5676 1.374 . S
C5678 C5675 1.499 . S
C5678 C5679 1.373 . S
C5678 C5680 1.389 . S
C5679 H5658 0.950 . S
C5679 C5678 1.373 . S
C5679 C5695 1.377 . S
C5680 C5678 1.389 . S
C5680 C5681 1.524 . S
C5680 C5694 1.377 . S
C5681 C5680 1.524 . S
C5681 C5682 1.397 . S
C5681 C5686 1.363 . S
C5682 H5659 0.950 . S
C5682 C5681 1.397 . S
C5682 C5683 1.334 . S
C5683 H5660 0.950 . S
C5683 C5682 1.334 . S
C5683 C5684 1.287 . S
C5684 C5683 1.287 . S
C5684 C5685 1.524 . S
C5684 H5703 0.913 . S
C5685 H5661 0.950 . S
C5685 C5684 1.524 . S
C5685 C5686 1.415 . S
C5686 H5662 0.950 . S
C5686 C5681 1.363 . S
C5686 C5685 1.415 . S
C5687 H5663 0.951 . S
C5687 C5688 1.366 . S
C5687 C5689 1.388 . S
C5688 C5687 1.366 . S
C5688 C5692 1.385 . S
C5689 H5664 0.951 . S
C5689 C5687 1.388 . S
C5689 C5690 1.366 . S
C5690 C5689 1.366 . S
C5690 C5691 1.414 . S
C5690 C5693 1.499 . S
C5691 H5665 0.950 . S
C5691 C5690 1.414 . S
C5691 C5692 1.374 . S
C5692 H5666 0.950 . S
C5692 C5688 1.385 . S
C5692 C5691 1.374 . S
C5693 C5690 1.499 . S
C5693 C5694 1.373 . S
C5693 C5695 1.389 . S
C5694 H5667 0.950 . S
C5694 C5680 1.377 . S
C5694 C5693 1.373 . S
C5695 C5679 1.377 . S
C5695 C5693 1.389 . S
C5695 C5696 1.524 . S
C5696 C5695 1.524 . S
C5696 C5697 1.397 . S
C5696 C5701 1.363 . S
C5697 H5668 0.950 . S
C5697 C5696 1.397 . S
C5697 C5698 1.334 . S
C5698 H5669 0.950 . S
C5698 C5697 1.334 . S
C5698 C5699 1.287 . S
C5699 C5698 1.287 . S
C5699 C5700 1.524 . S
C5699 H5702 0.999 . S
C5700 H5670 0.950 . S
C5700 C5699 1.524 . S
C5700 C5701 1.415 . S
C5701 H5671 0.950 . S
C5701 C5696 1.363 . S
C5701 C5700 1.415 . S
H5702 C5699 0.999 . S
H5703 C5684 0.913 . S
H5704 C5722 0.951 . S
H5705 C5724 0.951 . S
H5706 C5726 0.950 . S
H5707 C5727 0.950 . S
H5708 C5729 0.950 . S
H5709 C5732 0.950 . S
H5710 C5733 0.950 . S
H5711 C5735 0.950 . S
H5712 C5736 0.950 . S
H5713 C5737 0.951 . S
H5714 C5739 0.951 . S
H5715 C5741 0.950 . S
H5716 C5742 0.950 . S
H5717 C5744 0.950 . S
H5718 C5747 0.950 . S
H5719 C5748 0.950 . S
H5720 C5750 0.950 . S
H5721 C5751 0.950 . S
C5722 H5704 0.951 . S
C5722 C5723 1.366 . S
C5722 C5724 1.388 . S
C5723 C5722 1.366 . S
C5723 C5727 1.385 . S
C5724 H5705 0.951 . S
C5724 C5722 1.388 . S
C5724 C5725 1.366 . S
C5725 C5724 1.366 . S
C5725 C5726 1.414 . S
C5725 C5728 1.499 . S
C5726 H5706 0.950 . S
C5726 C5725 1.414 . S
C5726 C5727 1.374 . S
C5727 H5707 0.950 . S
C5727 C5723 1.385 . S
C5727 C5726 1.374 . S
C5728 C5725 1.499 . S
C5728 C5729 1.373 . S
C5728 C5730 1.389 . S
C5729 H5708 0.950 . S
C5729 C5728 1.373 . S
C5729 C5745 1.377 . S
C5730 C5728 1.389 . S
C5730 C5731 1.524 . S
C5730 C5744 1.377 . S
C5731 C5730 1.524 . S
C5731 C5732 1.397 . S
C5731 C5736 1.363 . S
C5732 H5709 0.950 . S
C5732 C5731 1.397 . S
C5732 C5733 1.334 . S
C5733 H5710 0.950 . S
C5733 C5732 1.334 . S
C5733 C5734 1.287 . S
C5734 C5733 1.287 . S
C5734 C5735 1.524 . S
C5734 H5753 0.913 . S
C5735 H5711 0.950 . S
C5735 C5734 1.524 . S
C5735 C5736 1.415 . S
C5736 H5712 0.950 . S
C5736 C5731 1.363 . S
C5736 C5735 1.415 . S
C5737 H5713 0.951 . S
C5737 C5738 1.366 . S
C5737 C5739 1.388 . S
C5738 C5737 1.366 . S
C5738 C5742 1.385 . S
C5739 H5714 0.951 . S
C5739 C5737 1.388 . S
C5739 C5740 1.366 . S
C5740 C5739 1.366 . S
C5740 C5741 1.414 . S
C5740 C5743 1.499 . S
C5741 H5715 0.950 . S
C5741 C5740 1.414 . S
C5741 C5742 1.374 . S
C5742 H5716 0.950 . S
C5742 C5738 1.385 . S
C5742 C5741 1.374 . S
C5743 C5740 1.499 . S
C5743 C5744 1.373 . S
C5743 C5745 1.389 . S
C5744 H5717 0.950 . S
C5744 C5730 1.377 . S
C5744 C5743 1.373 . S
C5745 C5729 1.377 . S
C5745 C5743 1.389 . S
C5745 C5746 1.524 . S
C5746 C5745 1.524 . S
C5746 C5747 1.397 . S
C5746 C5751 1.363 . S
C5747 H5718 0.950 . S
C5747 C5746 1.397 . S
C5747 C5748 1.334 . S
C5748 H5719 0.950 . S
C5748 C5747 1.334 . S
C5748 C5749 1.287 . S
C5749 C5748 1.287 . S
C5749 C5750 1.524 . S
C5749 H5752 0.999 . S
C5750 H5720 0.950 . S
C5750 C5749 1.524 . S
C5750 C5751 1.415 . S
C5751 H5721 0.950 . S
C5751 C5746 1.363 . S
C5751 C5750 1.415 . S
H5752 C5749 0.999 . S
H5753 C5734 0.913 . S
H5754 C5772 0.951 . S
H5755 C5774 0.951 . S
H5756 C5776 0.950 . S
H5757 C5777 0.950 . S
H5758 C5779 0.950 . S
H5759 C5782 0.950 . S
H5760 C5783 0.950 . S
H5761 C5785 0.950 . S
H5762 C5786 0.950 . S
H5763 C5787 0.951 . S
H5764 C5789 0.951 . S
H5765 C5791 0.950 . S
H5766 C5792 0.950 . S
H5767 C5794 0.950 . S
H5768 C5797 0.950 . S
H5769 C5798 0.950 . S
H5770 C5800 0.950 . S
H5771 C5801 0.950 . S
C5772 H5754 0.951 . S
C5772 C5773 1.366 . S
C5772 C5774 1.388 . S
C5773 C5772 1.366 . S
C5773 C5777 1.385 . S
C5774 H5755 0.951 . S
C5774 C5772 1.388 . S
C5774 C5775 1.366 . S
C5775 C5774 1.366 . S
C5775 C5776 1.414 . S
C5775 C5778 1.499 . S
C5776 H5756 0.950 . S
C5776 C5775 1.414 . S
C5776 C5777 1.374 . S
C5777 H5757 0.950 . S
C5777 C5773 1.385 . S
C5777 C5776 1.374 . S
C5778 C5775 1.499 . S
C5778 C5779 1.373 . S
C5778 C5780 1.389 . S
C5779 H5758 0.950 . S
C5779 C5778 1.373 . S
C5779 C5795 1.377 . S
C5780 C5778 1.389 . S
C5780 C5781 1.524 . S
C5780 C5794 1.377 . S
C5781 C5780 1.524 . S
C5781 C5782 1.397 . S
C5781 C5786 1.363 . S
C5782 H5759 0.950 . S
C5782 C5781 1.397 . S
C5782 C5783 1.334 . S
C5783 H5760 0.950 . S
C5783 C5782 1.334 . S
C5783 C5784 1.287 . S
C5784 C5783 1.287 . S
C5784 C5785 1.524 . S
C5784 H5803 0.913 . S
C5785 H5761 0.950 . S
C5785 C5784 1.524 . S
C5785 C5786 1.415 . S
C5786 H5762 0.950 . S
C5786 C5781 1.363 . S
C5786 C5785 1.415 . S
C5787 H5763 0.951 . S
C5787 C5788 1.366 . S
C5787 C5789 1.388 . S
C5788 C5787 1.366 . S
C5788 C5792 1.385 . S
C5789 H5764 0.951 . S
C5789 C5787 1.388 . S
C5789 C5790 1.366 . S
C5790 C5789 1.366 . S
C5790 C5791 1.414 . S
C5790 C5793 1.499 . S
C5791 H5765 0.950 . S
C5791 C5790 1.414 . S
C5791 C5792 1.374 . S
C5792 H5766 0.950 . S
C5792 C5788 1.385 . S
C5792 C5791 1.374 . S
C5793 C5790 1.499 . S
C5793 C5794 1.373 . S
C5793 C5795 1.389 . S
C5794 H5767 0.950 . S
C5794 C5780 1.377 . S
C5794 C5793 1.373 . S
C5795 C5779 1.377 . S
C5795 C5793 1.389 . S
C5795 C5796 1.524 . S
C5796 C5795 1.524 . S
C5796 C5797 1.397 . S
C5796 C5801 1.363 . S
C5797 H5768 0.950 . S
C5797 C5796 1.397 . S
C5797 C5798 1.334 . S
C5798 H5769 0.950 . S
C5798 C5797 1.334 . S
C5798 C5799 1.287 . S
C5799 C5798 1.287 . S
C5799 C5800 1.524 . S
C5799 H5802 0.999 . S
C5800 H5770 0.950 . S
C5800 C5799 1.524 . S
C5800 C5801 1.415 . S
C5801 H5771 0.950 . S
C5801 C5796 1.363 . S
C5801 C5800 1.415 . S
H5802 C5799 0.999 . S
H5803 C5784 0.913 . S
H5804 C5822 0.951 . S
H5805 C5824 0.951 . S
H5806 C5826 0.950 . S
H5807 C5827 0.950 . S
H5808 C5829 0.950 . S
H5809 C5832 0.950 . S
H5810 C5833 0.950 . S
H5811 C5835 0.950 . S
H5812 C5836 0.950 . S
H5813 C5837 0.951 . S
H5814 C5839 0.951 . S
H5815 C5841 0.950 1_455 S
H5816 C5842 0.950 . S
H5817 C5844 0.950 . S
H5818 C5847 0.950 . S
H5819 C5848 0.950 1_455 S
H5820 C5850 0.950 . S
H5821 C5851 0.950 . S
C5822 H5804 0.951 . S
C5822 C5823 1.366 . S
C5822 C5824 1.388 . S
C5823 C5822 1.366 . S
C5823 C5827 1.385 . S
C5824 H5805 0.951 . S
C5824 C5822 1.388 . S
C5824 C5825 1.366 . S
C5825 C5824 1.366 . S
C5825 C5826 1.414 . S
C5825 C5828 1.499 . S
C5826 H5806 0.950 . S
C5826 C5825 1.414 . S
C5826 C5827 1.374 . S
C5827 H5807 0.950 . S
C5827 C5823 1.385 . S
C5827 C5826 1.374 . S
C5828 C5825 1.499 . S
C5828 C5829 1.373 . S
C5828 C5830 1.389 . S
C5829 H5808 0.950 . S
C5829 C5828 1.373 . S
C5829 C5845 1.377 . S
C5830 C5828 1.389 . S
C5830 C5831 1.524 . S
C5830 C5844 1.377 . S
C5831 C5830 1.524 . S
C5831 C5832 1.397 . S
C5831 C5836 1.363 . S
C5832 H5809 0.950 . S
C5832 C5831 1.397 . S
C5832 C5833 1.334 . S
C5833 H5810 0.950 . S
C5833 C5832 1.334 . S
C5833 C5834 1.287 . S
C5834 C5833 1.287 . S
C5834 C5835 1.524 . S
C5834 H5853 0.913 . S
C5835 H5811 0.950 . S
C5835 C5834 1.524 . S
C5835 C5836 1.415 . S
C5836 H5812 0.950 . S
C5836 C5831 1.363 . S
C5836 C5835 1.415 . S
C5837 H5813 0.951 . S
C5837 C5838 1.366 1_655 S
C5837 C5839 1.388 . S
C5838 C5837 1.366 1_455 S
C5838 C5842 1.385 . S
C5839 H5814 0.951 . S
C5839 C5837 1.388 . S
C5839 C5840 1.366 . S
C5840 C5839 1.366 . S
C5840 C5841 1.414 . S
C5840 C5843 1.499 . S
C5841 H5815 0.950 1_655 S
C5841 C5840 1.414 . S
C5841 C5842 1.374 1_655 S
C5842 H5816 0.950 . S
C5842 C5838 1.385 . S
C5842 C5841 1.374 1_455 S
C5843 C5840 1.499 . S
C5843 C5844 1.373 . S
C5843 C5845 1.389 . S
C5844 H5817 0.950 . S
C5844 C5830 1.377 . S
C5844 C5843 1.373 . S
C5845 C5829 1.377 . S
C5845 C5843 1.389 . S
C5845 C5846 1.524 . S
C5846 C5845 1.524 . S
C5846 C5847 1.397 . S
C5846 C5851 1.363 . S
C5847 H5818 0.950 . S
C5847 C5846 1.397 . S
C5847 C5848 1.334 . S
C5848 H5819 0.950 1_655 S
C5848 C5847 1.334 . S
C5848 C5849 1.287 . S
C5849 C5848 1.287 . S
C5849 C5850 1.524 . S
C5849 H5852 0.999 . S
C5850 H5820 0.950 . S
C5850 C5849 1.524 . S
C5850 C5851 1.415 . S
C5851 H5821 0.950 . S
C5851 C5846 1.363 . S
C5851 C5850 1.415 . S
H5852 C5849 0.999 . S
H5853 C5834 0.913 . S
H5854 C5872 0.951 . S
H5855 C5874 0.951 . S
H5856 C5876 0.950 . S
H5857 C5877 0.950 . S
H5858 C5879 0.950 . S
H5859 C5882 0.950 . S
H5860 C5883 0.950 . S
H5861 C5885 0.950 . S
H5862 C5886 0.950 . S
H5863 C5887 0.951 . S
H5864 C5889 0.951 . S
H5865 C5891 0.950 . S
H5866 C5892 0.950 . S
H5867 C5894 0.950 . S
H5868 C5897 0.950 . S
H5869 C5898 0.950 . S
H5870 C5900 0.950 . S
H5871 C5901 0.950 . S
C5872 H5854 0.951 . S
C5872 C5873 1.366 . S
C5872 C5874 1.388 . S
C5873 C5872 1.366 . S
C5873 C5877 1.385 . S
C5874 H5855 0.951 . S
C5874 C5872 1.388 . S
C5874 C5875 1.366 . S
C5875 C5874 1.366 . S
C5875 C5876 1.414 . S
C5875 C5878 1.499 . S
C5876 H5856 0.950 . S
C5876 C5875 1.414 . S
C5876 C5877 1.374 . S
C5877 H5857 0.950 . S
C5877 C5873 1.385 . S
C5877 C5876 1.374 . S
C5878 C5875 1.499 . S
C5878 C5879 1.373 . S
C5878 C5880 1.389 . S
C5879 H5858 0.950 . S
C5879 C5878 1.373 . S
C5879 C5895 1.377 . S
C5880 C5878 1.389 . S
C5880 C5881 1.524 . S
C5880 C5894 1.377 . S
C5881 C5880 1.524 . S
C5881 C5882 1.397 . S
C5881 C5886 1.363 . S
C5882 H5859 0.950 . S
C5882 C5881 1.397 . S
C5882 C5883 1.334 . S
C5883 H5860 0.950 . S
C5883 C5882 1.334 . S
C5883 C5884 1.287 . S
C5884 C5883 1.287 . S
C5884 C5885 1.524 . S
C5884 H5903 0.913 . S
C5885 H5861 0.950 . S
C5885 C5884 1.524 . S
C5885 C5886 1.415 . S
C5886 H5862 0.950 . S
C5886 C5881 1.363 . S
C5886 C5885 1.415 . S
C5887 H5863 0.951 . S
C5887 C5888 1.366 . S
C5887 C5889 1.388 . S
C5888 C5887 1.366 . S
C5888 C5892 1.385 . S
C5889 H5864 0.951 . S
C5889 C5887 1.388 . S
C5889 C5890 1.366 . S
C5890 C5889 1.366 . S
C5890 C5891 1.414 . S
C5890 C5893 1.499 . S
C5891 H5865 0.950 . S
C5891 C5890 1.414 . S
C5891 C5892 1.374 . S
C5892 H5866 0.950 . S
C5892 C5888 1.385 . S
C5892 C5891 1.374 . S
C5893 C5890 1.499 . S
C5893 C5894 1.373 . S
C5893 C5895 1.389 . S
C5894 H5867 0.950 . S
C5894 C5880 1.377 . S
C5894 C5893 1.373 . S
C5895 C5879 1.377 . S
C5895 C5893 1.389 . S
C5895 C5896 1.524 . S
C5896 C5895 1.524 . S
C5896 C5897 1.397 . S
C5896 C5901 1.363 . S
C5897 H5868 0.950 . S
C5897 C5896 1.397 . S
C5897 C5898 1.334 . S
C5898 H5869 0.950 . S
C5898 C5897 1.334 . S
C5898 C5899 1.287 . S
C5899 C5898 1.287 . S
C5899 C5900 1.524 . S
C5899 H5902 0.999 . S
C5900 H5870 0.950 . S
C5900 C5899 1.524 . S
C5900 C5901 1.415 . S
C5901 H5871 0.950 . S
C5901 C5896 1.363 . S
C5901 C5900 1.415 . S
H5902 C5899 0.999 . S
H5903 C5884 0.913 . S
H5904 C5922 0.951 . S
H5905 C5924 0.951 . S
H5906 C5926 0.950 . S
H5907 C5927 0.950 . S
H5908 C5929 0.950 . S
H5909 C5932 0.950 . S
H5910 C5933 0.950 . S
H5911 C5935 0.950 . S
H5912 C5936 0.950 . S
H5913 C5937 0.951 . S
H5914 C5939 0.951 . S
H5915 C5941 0.950 . S
H5916 C5942 0.950 . S
H5917 C5944 0.950 . S
H5918 C5947 0.950 . S
H5919 C5948 0.950 . S
H5920 C5950 0.950 . S
H5921 C5951 0.950 . S
C5922 H5904 0.951 . S
C5922 C5923 1.366 . S
C5922 C5924 1.388 . S
C5923 C5922 1.366 . S
C5923 C5927 1.385 . S
C5924 H5905 0.951 . S
C5924 C5922 1.388 . S
C5924 C5925 1.366 . S
C5925 C5924 1.366 . S
C5925 C5926 1.414 . S
C5925 C5928 1.499 . S
C5926 H5906 0.950 . S
C5926 C5925 1.414 . S
C5926 C5927 1.374 . S
C5927 H5907 0.950 . S
C5927 C5923 1.385 . S
C5927 C5926 1.374 . S
C5928 C5925 1.499 . S
C5928 C5929 1.373 . S
C5928 C5930 1.389 . S
C5929 H5908 0.950 . S
C5929 C5928 1.373 . S
C5929 C5945 1.377 . S
C5930 C5928 1.389 . S
C5930 C5931 1.524 . S
C5930 C5944 1.377 . S
C5931 C5930 1.524 . S
C5931 C5932 1.397 . S
C5931 C5936 1.363 . S
C5932 H5909 0.950 . S
C5932 C5931 1.397 . S
C5932 C5933 1.334 . S
C5933 H5910 0.950 . S
C5933 C5932 1.334 . S
C5933 C5934 1.287 . S
C5934 C5933 1.287 . S
C5934 C5935 1.524 . S
C5934 H5953 0.913 . S
C5935 H5911 0.950 . S
C5935 C5934 1.524 . S
C5935 C5936 1.415 . S
C5936 H5912 0.950 . S
C5936 C5931 1.363 . S
C5936 C5935 1.415 . S
C5937 H5913 0.951 . S
C5937 C5938 1.366 . S
C5937 C5939 1.388 . S
C5938 C5937 1.366 . S
C5938 C5942 1.385 . S
C5939 H5914 0.951 . S
C5939 C5937 1.388 . S
C5939 C5940 1.366 . S
C5940 C5939 1.366 . S
C5940 C5941 1.414 . S
C5940 C5943 1.499 . S
C5941 H5915 0.950 . S
C5941 C5940 1.414 . S
C5941 C5942 1.374 . S
C5942 H5916 0.950 . S
C5942 C5938 1.385 . S
C5942 C5941 1.374 . S
C5943 C5940 1.499 . S
C5943 C5944 1.373 . S
C5943 C5945 1.389 . S
C5944 H5917 0.950 . S
C5944 C5930 1.377 . S
C5944 C5943 1.373 . S
C5945 C5929 1.377 . S
C5945 C5943 1.389 . S
C5945 C5946 1.524 . S
C5946 C5945 1.524 . S
C5946 C5947 1.397 . S
C5946 C5951 1.363 . S
C5947 H5918 0.950 . S
C5947 C5946 1.397 . S
C5947 C5948 1.334 . S
C5948 H5919 0.950 . S
C5948 C5947 1.334 . S
C5948 C5949 1.287 . S
C5949 C5948 1.287 . S
C5949 C5950 1.524 . S
C5949 H5952 0.999 . S
C5950 H5920 0.950 . S
C5950 C5949 1.524 . S
C5950 C5951 1.415 . S
C5951 H5921 0.950 . S
C5951 C5946 1.363 . S
C5951 C5950 1.415 . S
H5952 C5949 0.999 . S
H5953 C5934 0.913 . S
H5954 C5972 0.951 . S
H5955 C5974 0.951 . S
H5956 C5976 0.950 . S
H5957 C5977 0.950 . S
H5958 C5979 0.950 . S
H5959 C5982 0.950 . S
H5960 C5983 0.950 . S
H5961 C5985 0.950 . S
H5962 C5986 0.950 . S
H5963 C5987 0.951 . S
H5964 C5989 0.951 . S
H5965 C5991 0.950 . S
H5966 C5992 0.950 1_545 S
H5967 C5994 0.950 . S
H5968 C5997 0.950 . S
H5969 C5998 0.950 . S
H5970 C6000 0.950 . S
H5971 C6001 0.950 . S
C5972 H5954 0.951 . S
C5972 C5973 1.366 . S
C5972 C5974 1.388 . S
C5973 C5972 1.366 . S
C5973 C5977 1.385 . S
C5974 H5955 0.951 . S
C5974 C5972 1.388 . S
C5974 C5975 1.366 . S
C5975 C5974 1.366 . S
C5975 C5976 1.414 . S
C5975 C5978 1.499 . S
C5976 H5956 0.950 . S
C5976 C5975 1.414 . S
C5976 C5977 1.374 . S
C5977 H5957 0.950 . S
C5977 C5973 1.385 . S
C5977 C5976 1.374 . S
C5978 C5975 1.499 . S
C5978 C5979 1.373 . S
C5978 C5980 1.389 . S
C5979 H5958 0.950 . S
C5979 C5978 1.373 . S
C5979 C5995 1.377 . S
C5980 C5978 1.389 . S
C5980 C5981 1.524 . S
C5980 C5994 1.377 . S
C5981 C5980 1.524 . S
C5981 C5982 1.397 . S
C5981 C5986 1.363 . S
C5982 H5959 0.950 . S
C5982 C5981 1.397 . S
C5982 C5983 1.334 . S
C5983 H5960 0.950 . S
C5983 C5982 1.334 . S
C5983 C5984 1.287 . S
C5984 C5983 1.287 . S
C5984 C5985 1.524 . S
C5984 H6003 0.913 . S
C5985 H5961 0.950 . S
C5985 C5984 1.524 . S
C5985 C5986 1.415 . S
C5986 H5962 0.950 . S
C5986 C5981 1.363 . S
C5986 C5985 1.415 . S
C5987 H5963 0.951 . S
C5987 C5988 1.366 . S
C5987 C5989 1.388 . S
C5988 C5987 1.366 . S
C5988 C5992 1.385 . S
C5989 H5964 0.951 . S
C5989 C5987 1.388 . S
C5989 C5990 1.366 . S
C5990 C5989 1.366 . S
C5990 C5991 1.414 . S
C5990 C5993 1.499 . S
C5991 H5965 0.950 . S
C5991 C5990 1.414 . S
C5991 C5992 1.374 . S
C5992 H5966 0.950 1_565 S
C5992 C5988 1.385 . S
C5992 C5991 1.374 . S
C5993 C5990 1.499 . S
C5993 C5994 1.373 . S
C5993 C5995 1.389 . S
C5994 H5967 0.950 . S
C5994 C5980 1.377 . S
C5994 C5993 1.373 . S
C5995 C5979 1.377 . S
C5995 C5993 1.389 . S
C5995 C5996 1.524 . S
C5996 C5995 1.524 . S
C5996 C5997 1.397 . S
C5996 C6001 1.363 . S
C5997 H5968 0.950 . S
C5997 C5996 1.397 . S
C5997 C5998 1.334 . S
C5998 H5969 0.950 . S
C5998 C5997 1.334 . S
C5998 C5999 1.287 . S
C5999 C5998 1.287 . S
C5999 C6000 1.524 . S
C5999 H6002 0.999 . S
C6000 H5970 0.950 . S
C6000 C5999 1.524 . S
C6000 C6001 1.415 . S
C6001 H5971 0.950 . S
C6001 C5996 1.363 . S
C6001 C6000 1.415 . S
H6002 C5999 0.999 . S
H6003 C5984 0.913 . S
H6004 C6022 0.951 . S
H6005 C6024 0.951 . S
H6006 C6026 0.950 . S
H6007 C6027 0.950 . S
H6008 C6029 0.950 . S
H6009 C6032 0.950 . S
H6010 C6033 0.950 . S
H6011 C6035 0.950 . S
H6012 C6036 0.950 . S
H6013 C6037 0.951 . S
H6014 C6039 0.951 . S
H6015 C6041 0.950 . S
H6016 C6042 0.950 . S
H6017 C6044 0.950 . S
H6018 C6047 0.950 . S
H6019 C6048 0.950 . S
H6020 C6050 0.950 . S
H6021 C6051 0.950 . S
C6022 H6004 0.951 . S
C6022 C6023 1.366 . S
C6022 C6024 1.388 . S
C6023 C6022 1.366 . S
C6023 C6027 1.385 . S
C6024 H6005 0.951 . S
C6024 C6022 1.388 . S
C6024 C6025 1.366 . S
C6025 C6024 1.366 . S
C6025 C6026 1.414 . S
C6025 C6028 1.499 . S
C6026 H6006 0.950 . S
C6026 C6025 1.414 . S
C6026 C6027 1.374 . S
C6027 H6007 0.950 . S
C6027 C6023 1.385 . S
C6027 C6026 1.374 . S
C6028 C6025 1.499 . S
C6028 C6029 1.373 . S
C6028 C6030 1.389 . S
C6029 H6008 0.950 . S
C6029 C6028 1.373 . S
C6029 C6045 1.377 . S
C6030 C6028 1.389 . S
C6030 C6031 1.524 . S
C6030 C6044 1.377 . S
C6031 C6030 1.524 . S
C6031 C6032 1.397 . S
C6031 C6036 1.363 . S
C6032 H6009 0.950 . S
C6032 C6031 1.397 . S
C6032 C6033 1.334 . S
C6033 H6010 0.950 . S
C6033 C6032 1.334 . S
C6033 C6034 1.287 . S
C6034 C6033 1.287 . S
C6034 C6035 1.524 . S
C6034 H6053 0.913 . S
C6035 H6011 0.950 . S
C6035 C6034 1.524 . S
C6035 C6036 1.415 . S
C6036 H6012 0.950 . S
C6036 C6031 1.363 . S
C6036 C6035 1.415 . S
C6037 H6013 0.951 . S
C6037 C6038 1.366 . S
C6037 C6039 1.388 . S
C6038 C6037 1.366 . S
C6038 C6042 1.385 . S
C6039 H6014 0.951 . S
C6039 C6037 1.388 . S
C6039 C6040 1.366 . S
C6040 C6039 1.366 . S
C6040 C6041 1.414 . S
C6040 C6043 1.499 . S
C6041 H6015 0.950 . S
C6041 C6040 1.414 . S
C6041 C6042 1.374 . S
C6042 H6016 0.950 . S
C6042 C6038 1.385 . S
C6042 C6041 1.374 . S
C6043 C6040 1.499 . S
C6043 C6044 1.373 . S
C6043 C6045 1.389 . S
C6044 H6017 0.950 . S
C6044 C6030 1.377 . S
C6044 C6043 1.373 . S
C6045 C6029 1.377 . S
C6045 C6043 1.389 . S
C6045 C6046 1.524 . S
C6046 C6045 1.524 . S
C6046 C6047 1.397 . S
C6046 C6051 1.363 . S
C6047 H6018 0.950 . S
C6047 C6046 1.397 . S
C6047 C6048 1.334 . S
C6048 H6019 0.950 . S
C6048 C6047 1.334 . S
C6048 C6049 1.287 . S
C6049 C6048 1.287 . S
C6049 C6050 1.524 . S
C6049 H6052 0.999 . S
C6050 H6020 0.950 . S
C6050 C6049 1.524 . S
C6050 C6051 1.415 . S
C6051 H6021 0.950 . S
C6051 C6046 1.363 . S
C6051 C6050 1.415 . S
H6052 C6049 0.999 . S
H6053 C6034 0.913 . S
H6054 C6072 0.951 . S
H6055 C6074 0.951 . S
H6056 C6076 0.950 . S
H6057 C6077 0.950 . S
H6058 C6079 0.950 . S
H6059 C6082 0.950 . S
H6060 C6083 0.950 . S
H6061 C6085 0.950 . S
H6062 C6086 0.950 . S
H6063 C6087 0.951 . S
H6064 C6089 0.951 . S
H6065 C6091 0.950 . S
H6066 C6092 0.950 . S
H6067 C6094 0.950 . S
H6068 C6097 0.950 . S
H6069 C6098 0.950 . S
H6070 C6100 0.950 . S
H6071 C6101 0.950 . S
C6072 H6054 0.951 . S
C6072 C6073 1.366 . S
C6072 C6074 1.388 . S
C6073 C6072 1.366 . S
C6073 C6077 1.385 . S
C6074 H6055 0.951 . S
C6074 C6072 1.388 . S
C6074 C6075 1.366 . S
C6075 C6074 1.366 . S
C6075 C6076 1.414 . S
C6075 C6078 1.499 . S
C6076 H6056 0.950 . S
C6076 C6075 1.414 . S
C6076 C6077 1.374 . S
C6077 H6057 0.950 . S
C6077 C6073 1.385 . S
C6077 C6076 1.374 . S
C6078 C6075 1.499 . S
C6078 C6079 1.373 . S
C6078 C6080 1.389 . S
C6079 H6058 0.950 . S
C6079 C6078 1.373 . S
C6079 C6095 1.377 . S
C6080 C6078 1.389 . S
C6080 C6081 1.524 . S
C6080 C6094 1.377 . S
C6081 C6080 1.524 . S
C6081 C6082 1.397 . S
C6081 C6086 1.363 . S
C6082 H6059 0.950 . S
C6082 C6081 1.397 . S
C6082 C6083 1.334 . S
C6083 H6060 0.950 . S
C6083 C6082 1.334 . S
C6083 C6084 1.287 . S
C6084 C6083 1.287 . S
C6084 C6085 1.524 . S
C6084 H6103 0.913 . S
C6085 H6061 0.950 . S
C6085 C6084 1.524 . S
C6085 C6086 1.415 . S
C6086 H6062 0.950 . S
C6086 C6081 1.363 . S
C6086 C6085 1.415 . S
C6087 H6063 0.951 . S
C6087 C6088 1.366 . S
C6087 C6089 1.388 . S
C6088 C6087 1.366 . S
C6088 C6092 1.385 . S
C6089 H6064 0.951 . S
C6089 C6087 1.388 . S
C6089 C6090 1.366 . S
C6090 C6089 1.366 . S
C6090 C6091 1.414 . S
C6090 C6093 1.499 . S
C6091 H6065 0.950 . S
C6091 C6090 1.414 . S
C6091 C6092 1.374 . S
C6092 H6066 0.950 . S
C6092 C6088 1.385 . S
C6092 C6091 1.374 . S
C6093 C6090 1.499 . S
C6093 C6094 1.373 . S
C6093 C6095 1.389 . S
C6094 H6067 0.950 . S
C6094 C6080 1.377 . S
C6094 C6093 1.373 . S
C6095 C6079 1.377 . S
C6095 C6093 1.389 . S
C6095 C6096 1.524 . S
C6096 C6095 1.524 . S
C6096 C6097 1.397 . S
C6096 C6101 1.363 . S
C6097 H6068 0.950 . S
C6097 C6096 1.397 . S
C6097 C6098 1.334 . S
C6098 H6069 0.950 . S
C6098 C6097 1.334 . S
C6098 C6099 1.287 . S
C6099 C6098 1.287 . S
C6099 C6100 1.524 . S
C6099 H6102 0.999 . S
C6100 H6070 0.950 . S
C6100 C6099 1.524 . S
C6100 C6101 1.415 . S
C6101 H6071 0.950 . S
C6101 C6096 1.363 . S
C6101 C6100 1.415 . S
H6102 C6099 0.999 . S
H6103 C6084 0.913 . S
H6104 C6122 0.951 . S
H6105 C6124 0.951 . S
H6106 C6126 0.950 . S
H6107 C6127 0.950 . S
H6108 C6129 0.950 . S
H6109 C6132 0.950 . S
H6110 C6133 0.950 . S
H6111 C6135 0.950 . S
H6112 C6136 0.950 . S
H6113 C6137 0.951 . S
H6114 C6139 0.951 . S
H6115 C6141 0.950 . S
H6116 C6142 0.950 . S
H6117 C6144 0.950 . S
H6118 C6147 0.950 . S
H6119 C6148 0.950 . S
H6120 C6150 0.950 . S
H6121 C6151 0.950 . S
C6122 H6104 0.951 . S
C6122 C6123 1.366 . S
C6122 C6124 1.388 . S
C6123 C6122 1.366 . S
C6123 C6127 1.385 . S
C6124 H6105 0.951 . S
C6124 C6122 1.388 . S
C6124 C6125 1.366 . S
C6125 C6124 1.366 . S
C6125 C6126 1.414 . S
C6125 C6128 1.499 . S
C6126 H6106 0.950 . S
C6126 C6125 1.414 . S
C6126 C6127 1.374 . S
C6127 H6107 0.950 . S
C6127 C6123 1.385 . S
C6127 C6126 1.374 . S
C6128 C6125 1.499 . S
C6128 C6129 1.373 . S
C6128 C6130 1.389 . S
C6129 H6108 0.950 . S
C6129 C6128 1.373 . S
C6129 C6145 1.377 . S
C6130 C6128 1.389 . S
C6130 C6131 1.524 . S
C6130 C6144 1.377 . S
C6131 C6130 1.524 . S
C6131 C6132 1.397 . S
C6131 C6136 1.363 . S
C6132 H6109 0.950 . S
C6132 C6131 1.397 . S
C6132 C6133 1.334 . S
C6133 H6110 0.950 . S
C6133 C6132 1.334 . S
C6133 C6134 1.287 . S
C6134 C6133 1.287 . S
C6134 C6135 1.524 . S
C6134 H6153 0.913 . S
C6135 H6111 0.950 . S
C6135 C6134 1.524 . S
C6135 C6136 1.415 . S
C6136 H6112 0.950 . S
C6136 C6131 1.363 . S
C6136 C6135 1.415 . S
C6137 H6113 0.951 . S
C6137 C6138 1.366 . S
C6137 C6139 1.388 . S
C6138 C6137 1.366 . S
C6138 C6142 1.385 . S
C6139 H6114 0.951 . S
C6139 C6137 1.388 . S
C6139 C6140 1.366 . S
C6140 C6139 1.366 . S
C6140 C6141 1.414 . S
C6140 C6143 1.499 . S
C6141 H6115 0.950 . S
C6141 C6140 1.414 . S
C6141 C6142 1.374 . S
C6142 H6116 0.950 . S
C6142 C6138 1.385 . S
C6142 C6141 1.374 . S
C6143 C6140 1.499 . S
C6143 C6144 1.373 . S
C6143 C6145 1.389 . S
C6144 H6117 0.950 . S
C6144 C6130 1.377 . S
C6144 C6143 1.373 . S
C6145 C6129 1.377 . S
C6145 C6143 1.389 . S
C6145 C6146 1.524 . S
C6146 C6145 1.524 . S
C6146 C6147 1.397 . S
C6146 C6151 1.363 . S
C6147 H6118 0.950 . S
C6147 C6146 1.397 . S
C6147 C6148 1.334 . S
C6148 H6119 0.950 . S
C6148 C6147 1.334 . S
C6148 C6149 1.287 . S
C6149 C6148 1.287 . S
C6149 C6150 1.524 . S
C6149 H6152 0.999 . S
C6150 H6120 0.950 . S
C6150 C6149 1.524 . S
C6150 C6151 1.415 . S
C6151 H6121 0.950 . S
C6151 C6146 1.363 . S
C6151 C6150 1.415 . S
H6152 C6149 0.999 . S
H6153 C6134 0.913 . S
H6154 C6172 0.951 . S
H6155 C6174 0.951 . S
H6156 C6176 0.950 . S
H6157 C6177 0.950 . S
H6158 C6179 0.950 . S
H6159 C6182 0.950 . S
H6160 C6183 0.950 . S
H6161 C6185 0.950 . S
H6162 C6186 0.950 1_554 S
H6163 C6187 0.951 . S
H6164 C6189 0.950 1_556 S
H6165 C6191 0.950 . S
H6166 C6192 0.950 . S
H6167 C6194 0.950 1_556 S
H6168 C6197 0.950 . S
H6169 C6198 0.950 . S
H6170 C6200 0.950 . S
H6171 C6201 0.950 . S
C6172 H6154 0.951 . S
C6172 C6173 1.366 . S
C6172 C6174 1.388 . S
C6173 C6172 1.366 . S
C6173 C6177 1.385 . S
C6174 H6155 0.951 . S
C6174 C6172 1.388 . S
C6174 C6175 1.366 . S
C6175 C6174 1.366 . S
C6175 C6176 1.414 . S
C6175 C6178 1.499 . S
C6176 H6156 0.950 . S
C6176 C6175 1.414 . S
C6176 C6177 1.374 . S
C6177 H6157 0.950 . S
C6177 C6173 1.385 . S
C6177 C6176 1.374 . S
C6178 C6175 1.499 . S
C6178 C6179 1.373 . S
C6178 C6180 1.389 . S
C6179 H6158 0.950 . S
C6179 C6178 1.373 . S
C6179 C6195 1.377 . S
C6180 C6178 1.389 . S
C6180 C6181 1.524 1_554 S
C6180 C6194 1.377 . S
C6181 C6180 1.524 1_556 S
C6181 C6182 1.397 . S
C6181 C6186 1.363 . S
C6182 H6159 0.950 . S
C6182 C6181 1.397 . S
C6182 C6183 1.334 . S
C6183 H6160 0.950 . S
C6183 C6182 1.334 . S
C6183 C6184 1.287 . S
C6184 C6183 1.287 . S
C6184 C6185 1.524 . S
C6184 H6203 0.913 . S
C6185 H6161 0.950 . S
C6185 C6184 1.524 . S
C6185 C6186 1.415 . S
C6186 H6162 0.950 1_556 S
C6186 C6181 1.363 . S
C6186 C6185 1.415 . S
C6187 H6163 0.951 . S
C6187 C6188 1.345 1_556 S
C6187 C6189 1.388 1_556 S
C6188 C6187 1.345 1_554 S
C6188 C6192 1.413 . S
C6189 H6164 0.950 1_554 S
C6189 C6187 1.388 1_554 S
C6189 C6190 1.366 . S
C6190 C6189 1.366 . S
C6190 C6191 1.414 . S
C6190 C6193 1.499 . S
C6191 H6165 0.950 . S
C6191 C6190 1.414 . S
C6191 C6192 1.374 . S
C6192 H6166 0.950 . S
C6192 C6188 1.413 . S
C6192 C6191 1.374 . S
C6193 C6190 1.499 . S
C6193 C6194 1.373 . S
C6193 C6195 1.389 . S
C6194 H6167 0.950 1_554 S
C6194 C6180 1.377 . S
C6194 C6193 1.373 . S
C6195 C6179 1.377 . S
C6195 C6193 1.389 . S
C6195 C6196 1.524 . S
C6196 C6195 1.524 . S
C6196 C6197 1.397 . S
C6196 C6201 1.363 . S
C6197 H6168 0.950 . S
C6197 C6196 1.397 . S
C6197 C6198 1.334 . S
C6198 H6169 0.950 . S
C6198 C6197 1.334 . S
C6198 C6199 1.287 . S
C6199 C6198 1.287 . S
C6199 C6200 1.524 . S
C6199 H6202 0.999 . S
C6200 H6170 0.950 . S
C6200 C6199 1.524 . S
C6200 C6201 1.415 . S
C6201 H6171 0.950 . S
C6201 C6196 1.363 . S
C6201 C6200 1.415 . S
H6202 C6199 0.999 . S
H6203 C6184 0.913 . S
H6204 C6222 0.951 . S
H6205 C6224 0.951 . S
H6206 C6226 0.950 . S
H6207 C6227 0.950 . S
H6208 C6229 0.950 . S
H6209 C6232 0.950 . S
H6210 C6233 0.950 . S
H6211 C6235 0.950 . S
H6212 C6236 0.950 . S
H6213 C6237 0.951 . S
H6214 C6239 0.951 . S
H6215 C6241 0.950 . S
H6216 C6242 0.950 . S
H6217 C6244 0.950 . S
H6218 C6247 0.950 . S
H6219 C6248 0.950 . S
H6220 C6250 0.950 . S
H6221 C6251 0.950 . S
C6222 H6204 0.951 . S
C6222 C6223 1.366 . S
C6222 C6224 1.388 . S
C6223 C6222 1.366 . S
C6223 C6227 1.385 . S
C6224 H6205 0.951 . S
C6224 C6222 1.388 . S
C6224 C6225 1.366 . S
C6225 C6224 1.366 . S
C6225 C6226 1.414 . S
C6225 C6228 1.499 . S
C6226 H6206 0.950 . S
C6226 C6225 1.414 . S
C6226 C6227 1.374 . S
C6227 H6207 0.950 . S
C6227 C6223 1.385 . S
C6227 C6226 1.374 . S
C6228 C6225 1.499 . S
C6228 C6229 1.373 . S
C6228 C6230 1.389 . S
C6229 H6208 0.950 . S
C6229 C6228 1.373 . S
C6229 C6245 1.377 . S
C6230 C6228 1.389 . S
C6230 C6231 1.524 . S
C6230 C6244 1.377 . S
C6231 C6230 1.524 . S
C6231 C6232 1.397 . S
C6231 C6236 1.363 . S
C6232 H6209 0.950 . S
C6232 C6231 1.397 . S
C6232 C6233 1.334 . S
C6233 H6210 0.950 . S
C6233 C6232 1.334 . S
C6233 C6234 1.287 . S
C6234 C6233 1.287 . S
C6234 C6235 1.524 . S
C6234 H6253 0.913 . S
C6235 H6211 0.950 . S
C6235 C6234 1.524 . S
C6235 C6236 1.415 . S
C6236 H6212 0.950 . S
C6236 C6231 1.363 . S
C6236 C6235 1.415 . S
C6237 H6213 0.951 . S
C6237 C6238 1.366 . S
C6237 C6239 1.388 . S
C6238 C6237 1.366 . S
C6238 C6242 1.385 . S
C6239 H6214 0.951 . S
C6239 C6237 1.388 . S
C6239 C6240 1.366 . S
C6240 C6239 1.366 . S
C6240 C6241 1.414 . S
C6240 C6243 1.499 . S
C6241 H6215 0.950 . S
C6241 C6240 1.414 . S
C6241 C6242 1.374 . S
C6242 H6216 0.950 . S
C6242 C6238 1.385 . S
C6242 C6241 1.374 . S
C6243 C6240 1.499 . S
C6243 C6244 1.373 . S
C6243 C6245 1.389 . S
C6244 H6217 0.950 . S
C6244 C6230 1.377 . S
C6244 C6243 1.373 . S
C6245 C6229 1.377 . S
C6245 C6243 1.389 . S
C6245 C6246 1.524 . S
C6246 C6245 1.524 . S
C6246 C6247 1.397 . S
C6246 C6251 1.363 . S
C6247 H6218 0.950 . S
C6247 C6246 1.397 . S
C6247 C6248 1.334 . S
C6248 H6219 0.950 . S
C6248 C6247 1.334 . S
C6248 C6249 1.287 . S
C6249 C6248 1.287 . S
C6249 C6250 1.524 . S
C6249 H6252 0.999 . S
C6250 H6220 0.950 . S
C6250 C6249 1.524 . S
C6250 C6251 1.415 . S
C6251 H6221 0.950 . S
C6251 C6246 1.363 . S
C6251 C6250 1.415 . S
H6252 C6249 0.999 . S
H6253 C6234 0.913 . S
H6254 C6272 0.951 . S
H6255 C6274 0.951 . S
H6256 C6276 0.950 . S
H6257 C6277 0.950 . S
H6258 C6279 0.950 . S
H6259 C6282 0.950 . S
H6260 C6283 0.950 . S
H6261 C6285 0.950 . S
H6262 C6286 0.950 . S
H6263 C6287 0.951 . S
H6264 C6289 0.951 . S
H6265 C6291 0.950 . S
H6266 C6292 0.950 . S
H6267 C6294 0.950 . S
H6268 C6297 0.950 . S
H6269 C6298 0.950 . S
H6270 C6300 0.950 . S
H6271 C6301 0.950 . S
C6272 H6254 0.951 . S
C6272 C6273 1.366 . S
C6272 C6274 1.388 . S
C6273 C6272 1.366 . S
C6273 C6277 1.385 . S
C6274 H6255 0.951 . S
C6274 C6272 1.388 . S
C6274 C6275 1.366 . S
C6275 C6274 1.366 . S
C6275 C6276 1.414 . S
C6275 C6278 1.499 . S
C6276 H6256 0.950 . S
C6276 C6275 1.414 . S
C6276 C6277 1.374 . S
C6277 H6257 0.950 . S
C6277 C6273 1.385 . S
C6277 C6276 1.374 . S
C6278 C6275 1.499 . S
C6278 C6279 1.373 . S
C6278 C6280 1.389 . S
C6279 H6258 0.950 . S
C6279 C6278 1.373 . S
C6279 C6295 1.377 . S
C6280 C6278 1.389 . S
C6280 C6281 1.524 . S
C6280 C6294 1.377 . S
C6281 C6280 1.524 . S
C6281 C6282 1.397 . S
C6281 C6286 1.363 . S
C6282 H6259 0.950 . S
C6282 C6281 1.397 . S
C6282 C6283 1.334 . S
C6283 H6260 0.950 . S
C6283 C6282 1.334 . S
C6283 C6284 1.287 . S
C6284 C6283 1.287 . S
C6284 C6285 1.524 . S
C6284 H6303 0.913 . S
C6285 H6261 0.950 . S
C6285 C6284 1.524 . S
C6285 C6286 1.415 . S
C6286 H6262 0.950 . S
C6286 C6281 1.363 . S
C6286 C6285 1.415 . S
C6287 H6263 0.951 . S
C6287 C6288 1.366 . S
C6287 C6289 1.388 . S
C6288 C6287 1.366 . S
C6288 C6292 1.385 . S
C6289 H6264 0.951 . S
C6289 C6287 1.388 . S
C6289 C6290 1.366 . S
C6290 C6289 1.366 . S
C6290 C6291 1.414 . S
C6290 C6293 1.499 . S
C6291 H6265 0.950 . S
C6291 C6290 1.414 . S
C6291 C6292 1.374 . S
C6292 H6266 0.950 . S
C6292 C6288 1.385 . S
C6292 C6291 1.374 . S
C6293 C6290 1.499 . S
C6293 C6294 1.373 . S
C6293 C6295 1.389 . S
C6294 H6267 0.950 . S
C6294 C6280 1.377 . S
C6294 C6293 1.373 . S
C6295 C6279 1.377 . S
C6295 C6293 1.389 . S
C6295 C6296 1.524 . S
C6296 C6295 1.524 . S
C6296 C6297 1.397 . S
C6296 C6301 1.363 . S
C6297 H6268 0.950 . S
C6297 C6296 1.397 . S
C6297 C6298 1.334 . S
C6298 H6269 0.950 . S
C6298 C6297 1.334 . S
C6298 C6299 1.287 . S
C6299 C6298 1.287 . S
C6299 C6300 1.524 . S
C6299 H6302 0.999 . S
C6300 H6270 0.950 . S
C6300 C6299 1.524 . S
C6300 C6301 1.415 . S
C6301 H6271 0.950 . S
C6301 C6296 1.363 . S
C6301 C6300 1.415 . S
H6302 C6299 0.999 . S
H6303 C6284 0.913 . S
C1523 C255 2.199 . S
C1538 C874 2.145 . S
C1573 C147 2.022 . S
C1588 C922 2.010 . S
C1623 C184 1.087 . S
C1638 C954 1.086 . S
C1688 C999 1.556 . S
C1673 C220 1.574 . S
C1723 C40 0.834 . S
C1738 C1039 0.833 . S
C1788 C1074 0.862 . S
C1773 C74 0.861 . S
C1838 C1113 1.157 . S
C1823 C110 1.170 . S
C1873 C14 1.153 . S
C1888 C1150 1.159 . S
C1938 C882 1.993 . S
C1923 C579 2.004 . S
C1973 C616 0.429 . S
C1988 C919 0.449 . S
C2038 C962 2.479 . S
C2023 C687 2.506 . S
C2088 C994 1.031 . S
C2073 C436 1.032 . S
C2123 C580 1.132 . S
C2138 C1034 1.129 . S
C2188 C1082 0.512 . S
C2173 C615 0.489 . S
C2238 C1123 1.870 . S
C2223 C688 1.950 . S
C2288 C1153 1.924 . S
C2273 C435 1.942 . S
C2338 C879 1.065 . S
C2323 C410 1.072 . S
C2373 C722 2.260 . S
C2388 C1202 2.240 . S
C2438 C1239 1.218 . S
C2423 C842 1.201 . S
C2488 C1270 0.361 . S
C2473 C794 0.268 . S
C2523 C302 2.783 . S
C2538 C1163 2.810 . S
C2573 C338 1.416 . S
C2588 C959 1.429 . S
C2623 C830 1.870 . S
C2638 C1322 1.856 . S
C2688 C1354 1.786 . S
C2673 C758 1.781 . S
C2738 C883 2.122 . S
C2723 C158 2.100 . S
C2788 C1353 1.985 . S
C2773 C254 1.989 . S
C2823 C218 1.056 . S
C2838 C963 1.055 . S
C2873 C194 1.477 . S
C2888 C1310 1.523 . S
C2938 C1030 0.818 1_655 S
C2923 C3 0.817 . S
C2973 C111 0.671 . S
C2988 C1243 0.675 . S
C3038 C1122 1.132 . S
C3023 C76 1.145 . S
C3088 C1399 1.204 . S
C3073 C50 1.156 . S
C3138 C873 1.945 . S
C3123 C364 1.956 . S
C3188 C1350 0.509 . S
C3173 C795 0.308 . S
C3223 C292 2.426 . S
C3238 C953 2.416 . S
C3273 C723 0.947 . S
C3288 C1323 0.937 . S
C3323 C363 1.083 . S
C3338 C1043 1.068 . S
C3388 C1233 0.466 . S
C3373 C796 0.475 . S
C3423 C291 1.903 . S
C3438 C1114 1.837 . S
C3473 C724 1.941 . S
C3488 C1402 1.926 . S
C3523 C482 1.040 . S
C3538 C870 1.102 . S
C3573 C434 2.213 . S
C3588 C1193 2.193 . S
C3623 C662 1.132 . S
C3638 C1070 1.185 . S
C3673 C614 0.250 . S
C3688 C1279 0.354 . S
C3738 C1394 2.808 . S
C3723 C698 2.801 . S
C3773 C554 1.358 . S
C3788 C950 1.410 . S
C3838 C993 1.797 . S
C3823 C650 1.804 . S
C3888 C923 1.726 . S
C3873 C506 1.739 . S
C3923 C183 2.199 . S
C3938 C1434 2.145 . S
C3988 C1362 2.009 . S
C3973 C219 2.020 . S
C4023 C256 1.081 . S
C4038 C1474 1.081 . S
C4073 C148 1.569 1_655 S
C4088 C1319 1.551 . S
C4123 C122 0.870 . S
C4138 C1199 0.885 . S
C4188 C1234 0.749 . S
C4173 C2 0.747 . S
C4238 C1273 1.039 . S
C4223 C39 1.043 . S
C4288 C1390 1.220 . S
C4273 C86 1.213 . S
C4338 C1442 2.010 . S
C4323 C651 2.021 . S
C4373 C472 0.438 . S
C4388 C1359 0.456 . S
C4438 C1482 2.467 . S
C4423 C507 2.493 . S
C4488 C1314 1.038 . S
C4473 C544 1.039 . S
C4538 C1194 1.125 . S
C4523 C652 1.128 . S
C4573 C471 0.456 . S
C4588 C1242 0.483 . S
C4638 C1283 1.865 . S
C4623 C508 1.941 . S
C4673 C543 1.966 . S
C4688 C1393 1.944 . S
C4738 C1439 1.096 . S
C4723 C806 1.103 . S
C4773 C326 2.236 . S
C4788 C1042 2.215 . S
C4838 C1079 1.190 . S
C4823 C374 1.174 . S
C4888 C1110 0.395 . S
C4873 C398 0.309 . S
C4938 C1403 2.823 . S
C4923 C770 2.792 . S
C4973 C734 1.407 . S
C4988 C1479 1.418 . S
C5038 C1002 1.845 . S
C5023 C362 1.859 . S
C5088 C914 1.806 . S
C5073 C290 1.803 . S
C5123 C230 2.101 . S
C5138 C1443 2.122 . S
C5188 C913 1.995 . S
C5173 C182 1.998 . S
C5223 C146 1.056 . S
C5238 C1483 1.056 . S
C5273 C266 1.479 . S
C5288 C990 1.524 . S
C5323 C75 0.876 . S
C5338 C1190 0.875 . S
C5388 C1083 0.796 . S
C5373 C38 0.795 . S
C5423 C4 1.055 . S
C5438 C1282 1.046 . S
C5473 C112 1.127 . S
C5488 C1159 1.123 . S
C5538 C1433 1.949 . S
C5523 C832 1.960 . S
C5573 C399 0.295 . S
C5588 C910 0.505 . S
C5638 C1473 2.412 . S
C5623 C760 2.422 . S
C5673 C327 0.939 . S
C5688 C1003 0.931 . S
C5723 C831 1.111 . S
C5738 C1203 1.096 . S
C5788 C1073 0.456 . S
C5773 C400 0.470 . S
C5823 C759 1.902 . S
C5838 C1274 1.831 . S
C5888 C1162 1.930 . S
C5873 C328 1.946 . S
C5938 C1430 1.114 . S
C5923 C626 1.050 . S
C5988 C1033 2.194 1_565 S
C5973 C542 2.213 . S
C6023 C590 1.102 . S
C6038 C1230 1.153 . S
C6088 C1119 0.327 . S
C6073 C470 0.226 . S
C6123 C518 2.787 . S
C6138 C1154 2.795 . S
C6173 C446 1.352 . S
C6188 C1470 1.409 . S
C6238 C1313 1.811 . S
C6223 C578 1.818 . S
C6288 C1363 1.700 . S
C6273 C686 1.713 . S
