# Generated by pormake.
# Topology zzz, (3,6)-cn, num edge types: 1
# Building blocks:
#     Node 0, Type 0, BuildingBlock: OLANEW_clean_sbu_2, # of connection points: 3
#     Node 1, Type 0, BuildingBlock: OLANEW_clean_sbu_2, # of connection points: 3
#     Node 2, Type 0, BuildingBlock: OLANEW_clean_sbu_2, # of connection points: 3
#     Node 3, Type 0, BuildingBlock: OLANEW_clean_sbu_2, # of connection points: 3
#     Node 4, Type 0, BuildingBlock: OLANEW_clean_sbu_2, # of connection points: 3
#     Node 5, Type 0, BuildingBlock: OLANEW_clean_sbu_2, # of connection points: 3
#     Node 6, Type 0, BuildingBlock: OLANEW_clean_sbu_2, # of connection points: 3
#     Node 7, Type 0, BuildingBlock: OLANEW_clean_sbu_2, # of connection points: 3
#     Node 8, Type 1, BuildingBlock: KUMBUR_clean_sbu_1, # of connection points: 6
#     Node 9, Type 1, BuildingBlock: KUMBUR_clean_sbu_1, # of connection points: 6
#     Node 10, Type 1, BuildingBlock: KUMBUR_clean_sbu_1, # of connection points: 6
#     Node 11, Type 1, BuildingBlock: KUMBUR_clean_sbu_1, # of connection points: 6
#     Edge 12, Type (0, 1), BuildingBlock: XUDNAN_clean_linker_2, # of connection points: 2
#     Edge 13, Type (0, 1), BuildingBlock: XUDNAN_clean_linker_2, # of connection points: 2
#     Edge 14, Type (0, 1), BuildingBlock: XUDNAN_clean_linker_2, # of connection points: 2
#     Edge 15, Type (0, 1), BuildingBlock: XUDNAN_clean_linker_2, # of connection points: 2
#     Edge 16, Type (0, 1), BuildingBlock: XUDNAN_clean_linker_2, # of connection points: 2
#     Edge 17, Type (0, 1), BuildingBlock: XUDNAN_clean_linker_2, # of connection points: 2
#     Edge 18, Type (0, 1), BuildingBlock: XUDNAN_clean_linker_2, # of connection points: 2
#     Edge 19, Type (0, 1), BuildingBlock: XUDNAN_clean_linker_2, # of connection points: 2
#     Edge 20, Type (0, 1), BuildingBlock: XUDNAN_clean_linker_2, # of connection points: 2
#     Edge 21, Type (0, 1), BuildingBlock: XUDNAN_clean_linker_2, # of connection points: 2
#     Edge 22, Type (0, 1), BuildingBlock: XUDNAN_clean_linker_2, # of connection points: 2
#     Edge 23, Type (0, 1), BuildingBlock: XUDNAN_clean_linker_2, # of connection points: 2
#     Edge 24, Type (0, 1), BuildingBlock: XUDNAN_clean_linker_2, # of connection points: 2
#     Edge 25, Type (0, 1), BuildingBlock: XUDNAN_clean_linker_2, # of connection points: 2
#     Edge 26, Type (0, 1), BuildingBlock: XUDNAN_clean_linker_2, # of connection points: 2
#     Edge 27, Type (0, 1), BuildingBlock: XUDNAN_clean_linker_2, # of connection points: 2
#     Edge 28, Type (0, 1), BuildingBlock: XUDNAN_clean_linker_2, # of connection points: 2
#     Edge 29, Type (0, 1), BuildingBlock: XUDNAN_clean_linker_2, # of connection points: 2
#     Edge 30, Type (0, 1), BuildingBlock: XUDNAN_clean_linker_2, # of connection points: 2
#     Edge 31, Type (0, 1), BuildingBlock: XUDNAN_clean_linker_2, # of connection points: 2
#     Edge 32, Type (0, 1), BuildingBlock: XUDNAN_clean_linker_2, # of connection points: 2
#     Edge 33, Type (0, 1), BuildingBlock: XUDNAN_clean_linker_2, # of connection points: 2
#     Edge 34, Type (0, 1), BuildingBlock: XUDNAN_clean_linker_2, # of connection points: 2
#     Edge 35, Type (0, 1), BuildingBlock: XUDNAN_clean_linker_2, # of connection points: 2
# Relax obj value: 0.150
# Max RMSD: 0.103
# Mean RMSD: 0.086
data_MOF--net-zzz--node1-OLANEW_clean_sbu_2--node2-KUMBUR_clean_sbu_1--edge1-XUDNAN_clean_linker_2
_symmetry_space_group_name_H-M    P1
_symmetry_Int_Tables_number       1
_symmetry_cell_setting            triclinic
loop_
_symmetry_equiv_pos_as_xyz
'x, y, z'
_cell_length_a     53.92535
_cell_length_b     54.109717
_cell_length_c     17.867152
_cell_angle_alpha  90.205874
_cell_angle_beta   89.748719
_cell_angle_gamma 90.413956
loop_
_atom_site_label
_atom_site_type_symbol
_atom_site_fract_x
_atom_site_fract_y
_atom_site_fract_z
_atom_type_partial_charge
O0 O 0.75469 0.58728 0.01489 0.0
Cd1 Cd 0.71879 0.60925 0.0643 0.0
O2 O 0.76571 0.58183 0.13129 0.0
Cd3 Cd 0.7898 0.56944 0.22156 0.0
O4 O 0.81664 0.55562 0.30166 0.0
C5 C 0.81359 0.55876 0.37159 0.0
O6 O 0.79379 0.5704 0.39569 0.0
C7 C 0.76951 0.57796 0.06187 0.0
C8 C 0.67579 0.58598 0.01368 0.0
O9 O 0.68466 0.60498 0.98001 0.0
O10 O 0.68698 0.57827 0.07215 0.0
O11 O 0.9095 0.7417 0.03616 0.0
Cd12 Cd 0.89768 0.70255 0.09398 0.0
O13 O 0.92289 0.75165 0.14772 0.0
Cd14 Cd 0.94353 0.77465 0.22708 0.0
O15 O 0.96198 0.80523 0.28436 0.0
C16 C 0.94957 0.81983 0.32565 0.0
O17 O 0.92571 0.81575 0.33503 0.0
C18 C 0.92004 0.75723 0.07913 0.0
C19 C 0.92763 0.66476 0.03941 0.0
O20 O 0.9062 0.6688 0.01137 0.0
O21 O 0.93483 0.67844 0.09395 0.0
O22 O 0.77323 0.89059 0.09169 0.0
Cd23 Cd 0.81432 0.88189 0.14153 0.0
O24 O 0.77378 0.92213 0.16921 0.0
Cd25 Cd 0.75379 0.95268 0.22144 0.0
O26 O 0.72134 0.97156 0.26622 0.0
C27 C 0.71465 0.96844 0.33385 0.0
O28 O 0.7284 0.95485 0.37786 0.0
C29 C 0.76296 0.9098 0.11803 0.0
C30 C 0.84884 0.9128 0.07172 0.0
O31 O 0.84558 0.89051 0.04915 0.0
O32 O 0.83617 0.92029 0.1281 0.0
O33 O 0.61533 0.76561 0.94331 0.0
Cd34 Cd 0.6487 0.79487 0.97148 0.0
O35 O 0.6127 0.75199 0.05854 0.0
Cd36 Cd 0.59565 0.7307 0.14897 0.0
O37 O 0.58266 0.70288 0.22795 0.0
C38 C 0.5969 0.69668 0.28095 0.0
O39 O 0.61852 0.70783 0.28754 0.0
C40 C 0.60488 0.75177 0.9915 0.0
C41 C 0.62975 0.84121 0.93815 0.0
O42 O 0.64087 0.82833 0.88808 0.0
O43 O 0.62865 0.83265 0.00489 0.0
O44 O 0.28035 0.55303 0.107 0.0
Cd45 Cd 0.31605 0.54661 0.02455 0.0
O46 O 0.26874 0.51468 0.08682 0.0
Cd47 Cd 0.24051 0.48553 0.08884 0.0
O48 O 0.20633 0.469 0.04679 0.0
C49 C 0.18701 0.48227 0.04963 0.0
O50 O 0.18837 0.50402 0.08242 0.0
C51 C 0.26511 0.53543 0.11844 0.0
C52 C 0.35709 0.53196 0.10683 0.0
O53 O 0.3527 0.55488 0.09531 0.0
O54 O 0.3422 0.51593 0.07854 0.0
O55 O 0.94171 0.2701 0.19247 0.0
Cd56 Cd 0.93188 0.30532 0.11316 0.0
O57 O 0.97555 0.26658 0.12545 0.0
Cd58 Cd 0.00807 0.24646 0.0869 0.0
O59 O 0.02495 0.2165 0.02396 0.0
C60 C 0.01591 0.19511 0.03561 0.0
O61 O 0.99857 0.19249 0.08698 0.0
C62 C 0.96206 0.2592 0.17959 0.0
C63 C 0.95235 0.34746 0.17858 0.0
O64 O 0.93023 0.3403 0.19427 0.0
O65 O 0.96465 0.33504 0.12998 0.0
O66 O 0.25987 0.09945 0.30064 0.0
Cd67 Cd 0.22137 0.11865 0.26121 0.0
O68 O 0.27351 0.10312 0.18568 0.0
Cd69 Cd 0.29841 0.09532 0.09222 0.0
O70 O 0.32375 0.0871 0.00047 0.0
C71 C 0.33234 0.06541 0.99398 0.0
O72 O 0.32525 0.04834 0.0418 0.0
C73 C 0.27675 0.09563 0.25229 0.0
C74 C 0.18176 0.09038 0.31432 0.0
O75 O 0.19263 0.08485 0.25266 0.0
O76 O 0.1893 0.10956 0.35012 0.0
O77 O 0.44328 0.25093 0.25703 0.0
Cd78 Cd 0.43598 0.21285 0.187 0.0
O79 O 0.4419 0.2724 0.15346 0.0
Cd80 Cd 0.4478 0.30537 0.08524 0.0
O81 O 0.45397 0.336 0.00824 0.0
C82 C 0.45231 0.33181 0.93842 0.0
O83 O 0.44691 0.30932 0.91549 0.0
C84 C 0.44508 0.27159 0.22387 0.0
C85 C 0.45888 0.17424 0.26182 0.0
O86 O 0.47104 0.18785 0.21578 0.0
O87 O 0.43573 0.17854 0.27128 0.0
Tb88 Tb 0.98462 0.02556 0.60386 0.0
C89 C 0.07412 0.02332 0.79996 0.0
N90 N 0.06977 0.00794 0.74119 0.0
C91 C 0.11049 0.01694 0.69271 0.0
C92 C 0.09634 0.03707 0.80563 0.0
C93 C 0.08837 0.00327 0.69085 0.0
C94 C 0.11429 0.03432 0.74951 0.0
C95 C 0.06142 0.03781 0.92261 0.0
C96 C 0.05696 0.02385 0.85735 0.0
C97 C 0.08291 0.05254 0.92714 0.0
C98 C 0.10031 0.05227 0.86851 0.0
Tb99 Tb 0.03149 0.98886 0.73975 0.0
N100 N 0.03611 0.00995 0.84987 0.0
C101 C 0.04442 0.036 0.98184 0.0
C102 C 0.01995 0.00724 0.90857 0.0
C103 C 0.02372 0.02045 0.97506 0.0
H104 H 0.08634 0.98899 0.64889 0.0
H105 H 0.01066 0.01868 0.02093 0.0
H106 H 0.9303 0.00199 0.6489 0.0
H107 H 0.02963 0.03711 0.33409 0.0
H108 H 0.00386 0.99534 0.90302 0.0
H109 H 0.04735 0.04614 0.03347 0.0
H110 H 0.02159 0.04703 0.46635 0.0
H111 H 0.12473 0.01378 0.65096 0.0
H112 H 0.08653 0.06374 0.97635 0.0
H113 H 0.11714 0.0632 0.87352 0.0
H114 H 0.89763 0.9766 0.58822 0.0
H115 H 0.13156 0.04465 0.75142 0.0
H116 H 0.00308 0.00668 0.26798 0.0
N117 N 0.95381 0.00201 0.55314 0.0
C118 C 0.95647 0.99572 0.48003 0.0
C119 C 0.9142 0.98169 0.55738 0.0
C120 C 0.9385 0.98119 0.44321 0.0
C121 C 0.9327 0.99596 0.59163 0.0
C122 C 0.91717 0.97415 0.48294 0.0
N123 N 0.99269 0.02015 0.47864 0.0
C124 C 0.01066 0.03272 0.43974 0.0
C125 C 0.98015 0.99925 0.36522 0.0
C126 C 0.97693 0.00469 0.44184 0.0
C127 C -8e-05 0.01039 0.32688 0.0
C128 C 0.01497 0.02755 0.36403 0.0
H129 H 0.90273 0.96326 0.45637 0.0
H130 H 0.92869 0.96335 0.33852 0.0
H131 H 0.96527 0.97908 0.27018 0.0
O132 O 0.97065 0.05477 0.53914 0.0
O133 O 0.98252 0.98493 0.6093 0.0
O134 O 0.02233 0.97155 0.63221 0.0
O135 O 0.95964 0.05032 0.6538 0.0
O136 O 0.02484 0.03065 0.58982 0.0
O137 O 0.04337 0.99386 0.62254 0.0
O138 O 0.02106 0.95968 0.80955 0.0
O139 O 0.01485 0.02464 0.76867 0.0
O140 O 0.0146 0.04575 0.65905 0.0
O141 O 0.05815 0.96184 0.76654 0.0
O142 O 0.99194 0.98077 0.75068 0.0
O143 O 0.97081 0.01629 0.71667 0.0
C144 C 0.00071 0.9693 0.59861 0.0
C145 C 0.96702 0.09118 0.61124 0.0
C146 C 0.97817 0.132 0.56341 0.0
C147 C 0.98501 0.13939 0.63586 0.0
C148 C 0.97347 0.09915 0.68378 0.0
C149 C 0.98238 0.12312 0.69577 0.0
C150 C 0.96892 0.10797 0.55148 0.0
C151 C 0.0423 0.01398 0.58143 0.0
C152 C 0.96 0.0651 0.59651 0.0
C153 C 0.94214 0.97475 0.36774 0.0
C154 C 0.963 0.98368 0.32887 0.0
C155 C 0.01838 0.04508 0.73125 0.0
C156 C 0.04069 0.92173 0.78984 0.0
C157 C 0.0219 0.88188 0.82347 0.0
C158 C 0.03838 0.87014 0.77359 0.0
C159 C 0.05687 0.90966 0.74033 0.0
C160 C 0.0231 0.90777 0.83005 0.0
C161 C 0.05554 0.88399 0.73203 0.0
C162 C 0.97294 0.99581 0.75615 0.0
C163 C 0.0422 0.9486 0.80394 0.0
H164 H 0.99219 0.15785 0.6461 0.0
H165 H 0.97207 0.0868 0.73118 0.0
H166 H 0.98752 0.12901 0.75157 0.0
H167 H 0.96404 0.1021 0.49531 0.0
H168 H 0.03848 0.85023 0.76765 0.0
H169 H 0.07061 0.91994 0.7086 0.0
H170 H 0.01031 0.91731 0.8669 0.0
H171 H 0.06816 0.87473 0.69412 0.0
Tb172 Tb 0.52904 0.01291 0.7248 0.0
C173 C 0.48922 0.91927 0.599 0.0
N174 N 0.50438 0.9344 0.55893 0.0
C175 C 0.52989 0.90002 0.52479 0.0
C176 C 0.4945 0.89397 0.6067 0.0
C177 C 0.52387 0.92505 0.51892 0.0
C178 C 0.51536 0.88448 0.56977 0.0
C179 C 0.45151 0.91412 0.67118 0.0
C180 C 0.46821 0.92935 0.6312 0.0
C181 C 0.45712 0.88904 0.68187 0.0
C182 C 0.47859 0.87899 0.64967 0.0
Tb183 Tb 0.49391 0.97513 0.55562 0.0
N184 N 0.46333 0.95363 0.61877 0.0
C185 C 0.42923 0.92429 0.69655 0.0
C186 C 0.4404 0.96274 0.6364 0.0
C187 C 0.42342 0.94856 0.67761 0.0
H188 H 0.53522 0.93719 0.48489 0.0
H189 H 0.40565 0.95621 0.6934 0.0
H190 H 0.48561 0.02354 0.85375 0.0
H191 H 0.60013 0.07396 0.61864 0.0
H192 H 0.43468 0.98077 0.6179 0.0
H193 H 0.41589 0.91324 0.72756 0.0
H194 H 0.58131 0.0335 0.65115 0.0
H195 H 0.54578 0.89275 0.49499 0.0
H196 H 0.44463 0.87712 0.7131 0.0
H197 H 0.4824 0.85951 0.65691 0.0
H198 H 0.46226 0.05953 0.90123 0.0
H199 H 0.5201 0.86512 0.5744 0.0
H200 H 0.57788 0.11265 0.64901 0.0
N201 N 0.50812 0.0449 0.77992 0.0
C202 C 0.51561 0.06796 0.76038 0.0
C203 C 0.47704 0.06215 0.86085 0.0
C204 C 0.50346 0.08912 0.78774 0.0
C205 C 0.49007 0.04178 0.83301 0.0
C206 C 0.48344 0.08592 0.83698 0.0
N207 N 0.54852 0.04929 0.69668 0.0
C208 C 0.57151 0.05032 0.66431 0.0
C209 C 0.54676 0.09371 0.70082 0.0
C210 C 0.53684 0.07026 0.71784 0.0
C211 C 0.56956 0.09498 0.66312 0.0
C212 C 0.5822 0.07318 0.64599 0.0
H213 H 0.47353 0.10168 0.85924 0.0
H214 H 0.50313 0.1292 0.78732 0.0
H215 H 0.54115 0.13322 0.71102 0.0
O216 O 0.56049 0.99413 0.76404 0.0
O217 O 0.52689 0.03156 0.61583 0.0
O218 O 0.49194 0.01566 0.55506 0.0
O219 O 0.53871 0.01674 0.83793 0.0
O220 O 0.55344 0.99491 0.64162 0.0
O221 O 0.53156 0.98766 0.52982 0.0
O222 O 0.46598 0.96578 0.47841 0.0
O223 O 0.52008 0.95752 0.63213 0.0
O224 O 0.50803 0.9789 0.73159 0.0
O225 O 0.50259 0.97506 0.44063 0.0
O226 O 0.4722 0.00309 0.61699 0.0
O227 O 0.48997 0.00097 0.73345 0.0
C228 C 0.50892 0.03303 0.56633 0.0
C229 C 0.58121 0.01218 0.86687 0.0
C230 C 0.61985 0.00214 0.93102 0.0
C231 C 0.62285 0.02746 0.9483 0.0
C232 C 0.58493 0.0373 0.88307 0.0
C233 C 0.60571 0.04484 0.92358 0.0
C234 C 0.59888 0.99483 0.8894 0.0
C235 C 0.55218 0.99128 0.56829 0.0
C236 C 0.55837 0.0032 0.83111 0.0
C237 C 0.51236 0.11268 0.76758 0.0
C238 C 0.53402 0.11497 0.72421 0.0
C239 C 0.51856 0.9593 0.70475 0.0
C240 C 0.46975 0.98586 0.36058 0.0
C241 C 0.43626 0.01063 0.30767 0.0
C242 C 0.4498 0.01227 0.24026 0.0
C243 C 0.48283 0.98788 0.29284 0.0
C244 C 0.44672 0.99771 0.36822 0.0
C245 C 0.47299 0.00118 0.23338 0.0
C246 C 0.47211 0.0084 0.68909 0.0
C247 C 0.47997 0.9703 0.42068 0.0
H248 H 0.63818 0.03398 0.98203 0.0
H249 H 0.5716 0.051 0.86569 0.0
H250 H 0.60833 0.0642 0.93708 0.0
H251 H 0.59603 0.9756 0.87443 0.0
H252 H 0.4423 0.02153 0.19188 0.0
H253 H 0.50058 0.97889 0.28562 0.0
H254 H 0.43688 0.99666 0.42109 0.0
H255 H 0.48314 0.00246 0.18112 0.0
Tb256 Tb 0.53541 0.49805 0.56225 0.0
C257 C 0.43154 0.51567 0.68713 0.0
N258 N 0.4431 0.52838 0.6313 0.0
C259 C 0.40627 0.52555 0.5566 0.0
C260 C 0.40719 0.50646 0.67852 0.0
C261 C 0.43023 0.53478 0.56863 0.0
C262 C 0.39487 0.51092 0.61119 0.0
C263 C 0.43143 0.50245 0.81682 0.0
C264 C 0.44345 0.51358 0.75534 0.0
C265 C 0.40765 0.49217 0.80749 0.0
C266 C 0.39559 0.49409 0.73837 0.0
Tb267 Tb 0.48284 0.54089 0.65689 0.0
N268 N 0.46658 0.5234 0.76209 0.0
C269 C 0.44338 0.5027 0.88625 0.0
C270 C 0.47791 0.52472 0.83031 0.0
C271 C 0.46661 0.5141 0.89317 0.0
H272 H 0.43809 0.54742 0.52831 0.0
H273 H 0.47574 0.51482 0.94696 0.0
H274 H 0.58551 0.51489 0.6546 0.0
H275 H 0.5183 0.49484 0.26366 0.0
H276 H 0.49568 0.53385 0.83597 0.0
H277 H 0.43461 0.49461 0.93513 0.0
H278 H 0.51337 0.48111 0.39427 0.0
H279 H 0.39644 0.53016 0.5059 0.0
H280 H 0.39818 0.48326 0.85383 0.0
H281 H 0.37697 0.48669 0.73258 0.0
H282 H 0.62297 0.54065 0.63185 0.0
H283 H 0.37616 0.50414 0.60226 0.0
H284 H 0.55057 0.52581 0.23097 0.0
N285 N 0.57166 0.5194 0.5444 0.0
C286 C 0.57614 0.528 0.4745 0.0
C287 C 0.60984 0.53738 0.58719 0.0
C288 C 0.59701 0.54288 0.45873 0.0
C289 C 0.58868 0.52282 0.59998 0.0
C290 C 0.61382 0.5478 0.51655 0.0
N291 N 0.5408 0.5059 0.4369 0.0
C292 C 0.52684 0.49535 0.38148 0.0
C293 C 0.56386 0.52924 0.34474 0.0
C294 C 0.5598 0.52136 0.41888 0.0
C295 C 0.54814 0.52021 0.28872 0.0
C296 C 0.52988 0.50276 0.30699 0.0
H297 H 0.63012 0.55919 0.50688 0.0
H298 H 0.61621 0.56378 0.37259 0.0
H299 H 0.58715 0.55176 0.27244 0.0
O300 O 0.54965 0.46608 0.50998 0.0
O301 O 0.54069 0.53761 0.58249 0.0
O302 O 0.50309 0.55498 0.55923 0.0
O303 O 0.55418 0.4722 0.62766 0.0
O304 O 0.4981 0.4973 0.51151 0.0
O305 O 0.4807 0.53573 0.53447 0.0
O306 O 0.49539 0.57472 0.70046 0.0
O307 O 0.48913 0.5028 0.6964 0.0
O308 O 0.49892 0.48297 0.58784 0.0
O309 O 0.4566 0.56863 0.68086 0.0
O310 O 0.51904 0.54093 0.7118 0.0
O311 O 0.53711 0.503 0.68437 0.0
C312 C 0.52737 0.55531 0.55411 0.0
C313 C 0.54527 0.43144 0.59125 0.0
C314 C 0.52032 0.39516 0.55766 0.0
C315 C 0.52316 0.38613 0.63083 0.0
C316 C 0.54808 0.42182 0.6637 0.0
C317 C 0.53698 0.3994 0.68331 0.0
C318 C 0.53145 0.41789 0.5383 0.0
C319 C 0.48333 0.51566 0.49292 0.0
C320 C 0.5556 0.45618 0.57363 0.0
C321 C 0.6005 0.55197 0.38582 0.0
C322 C 0.58391 0.54517 0.32886 0.0
C323 C 0.48933 0.48272 0.65503 0.0
C324 C 0.4683 0.59469 0.78251 0.0
C325 C 0.47872 0.6271 0.87219 0.0
C326 C 0.46426 0.61511 0.92671 0.0
C327 C 0.45334 0.58313 0.83681 0.0
C328 C 0.48057 0.61682 0.80027 0.0
C329 C 0.4514 0.59335 0.90866 0.0
C330 C 0.53526 0.52335 0.72476 0.0
C331 C 0.47321 0.58345 0.70894 0.0
H332 H 0.51438 0.36898 0.6479 0.0
H333 H 0.55856 0.43187 0.70569 0.0
H334 H 0.53892 0.39236 0.73961 0.0
H335 H 0.52938 0.42497 0.48204 0.0
H336 H 0.46273 0.62271 0.9827 0.0
H337 H 0.44349 0.56614 0.82423 0.0
H338 H 0.49228 0.6257 0.75858 0.0
H339 H 0.44008 0.58425 0.95063 0.0
Tb340 Tb 0.02344 0.52169 0.59926 0.0
C341 C 0.02433 0.43661 0.82568 0.0
N342 N 0.01376 0.43729 0.75711 0.0
C343 C 0.03204 0.39835 0.72559 0.0
C344 C 0.04013 0.41718 0.84618 0.0
C345 C 0.01663 0.41817 0.7078 0.0
C346 C 0.04407 0.39798 0.7948 0.0
C347 C 0.02948 0.45553 0.94744 0.0
C348 C 0.01903 0.45544 0.87527 0.0
C349 C 0.04615 0.43684 0.96741 0.0
C350 C 0.05138 0.41762 0.91696 0.0
Tb351 Tb 0.98948 0.47045 0.73189 0.0
N352 N 0.00271 0.47301 0.85378 0.0
C353 C 0.02232 0.47399 0.9979 0.0
C354 C 0.99411 0.48976 0.90505 0.0
C355 C 0.0042 0.4909 0.97701 0.0
H356 H 0.00741 0.41857 0.65419 0.0
H357 H 0.99773 0.5046 0.01667 0.0
H358 H 0.03398 0.57151 0.70726 0.0
H359 H 0.98443 0.51769 0.32279 0.0
H360 H 0.97922 0.50216 0.89146 0.0
H361 H 0.02995 0.47478 0.05386 0.0
H362 H 0.00968 0.50314 0.42929 0.0
H363 H 0.0347 0.38344 0.6859 0.0
H364 H 0.05462 0.43676 0.02229 0.0
H365 H 0.06389 0.40308 0.93351 0.0
H366 H 0.01474 0.61215 0.7279 0.0
H367 H 0.05611 0.3827 0.80829 0.0
H368 H 0.96159 0.55711 0.33316 0.0
N369 N 0.00978 0.56138 0.6181 0.0
C370 C 0.9933 0.56988 0.56728 0.0
C371 C 0.00822 0.60029 0.6831 0.0
C372 C 0.98272 0.59352 0.57419 0.0
C373 C 0.0187 0.57696 0.67224 0.0
C374 C 0.98972 0.60841 0.6348 0.0
N375 N 0.00016 0.53343 0.49942 0.0
C376 C 0.99948 0.52017 0.43423 0.0
C377 C 0.97408 0.56463 0.446 0.0
C378 C 0.98883 0.55567 0.50456 0.0
C379 C 0.97238 0.55065 0.38011 0.0
C380 C 0.98531 0.52841 0.37397 0.0
H381 H 0.98193 0.62665 0.64252 0.0
H382 H 0.95796 0.61995 0.52319 0.0
H383 H 0.95055 0.59466 0.41035 0.0
O384 O 0.05245 0.51012 0.52904 0.0
O385 O 0.98438 0.51135 0.57786 0.0
O386 O 0.96907 0.50288 0.6951 0.0
O387 O 0.05042 0.54781 0.56527 0.0
O388 O 0.02372 0.48302 0.56054 0.0
O389 O 0.9891 0.46339 0.61176 0.0
O390 O 0.9609 0.45736 0.8027 0.0
O391 O 0.02842 0.46772 0.69712 0.0
O392 O 0.04253 0.50753 0.6974 0.0
O393 O 0.96327 0.44554 0.68834 0.0
O394 O 0.98663 0.50964 0.76241 0.0
O395 O 0.02274 0.5287 0.72153 0.0
C396 C 0.96582 0.50965 0.62548 0.0
C397 C 0.09017 0.53115 0.54394 0.0
C398 C 0.13247 0.53356 0.49581 0.0
C399 C 0.14136 0.52655 0.56636 0.0
C400 C 0.09932 0.52457 0.61446 0.0
C401 C 0.12483 0.5223 0.6255 0.0
C402 C 0.1068 0.53593 0.48509 0.0
C403 C 0.00544 0.46669 0.55762 0.0
C404 C 0.06342 0.53154 0.52915 0.0
C405 C 0.96651 0.60194 0.51852 0.0
C406 C 0.96232 0.58757 0.45422 0.0
C407 C 0.04523 0.48421 0.71511 0.0
C408 C 0.92347 0.45544 0.73298 0.0
C409 C 0.8868 0.47858 0.77211 0.0
C410 C 0.87694 0.47572 0.69985 0.0
C411 C 0.91297 0.45246 0.66145 0.0
C412 C 0.91006 0.46831 0.7883 0.0
C413 C 0.88994 0.46264 0.64513 0.0
C414 C 0.00352 0.5273 0.76732 0.0
C415 C 0.94914 0.44706 0.74717 0.0
H416 H 0.16108 0.52464 0.57585 0.0
H417 H 0.08682 0.52092 0.66061 0.0
H418 H 0.1318 0.51706 0.67988 0.0
H419 H 0.09974 0.54084 0.4304 0.0
H420 H 0.85902 0.4833 0.68591 0.0
H421 H 0.92278 0.44269 0.61748 0.0
H422 H 0.91801 0.47099 0.84337 0.0
H423 H 0.88219 0.46049 0.58968 0.0
H424 H 0.14757 0.10271 0.42146 0.0
H425 H 0.17022 0.04279 0.27483 0.0
H426 H 0.13722 0.01615 0.32832 0.0
H427 H 0.13211 0.06565 0.58191 0.0
H428 H 0.10559 0.08394 0.60759 0.0
H429 H 0.13135 0.09808 0.55909 0.0
H430 H 0.10159 0.11322 0.45518 0.0
H431 H 0.07581 0.09918 0.50375 0.0
H432 H 0.08202 0.09111 0.40755 0.0
H433 H 0.10282 0.99544 0.40283 0.0
H434 H 0.06711 0.98387 0.48407 0.0
H435 H 0.06565 0.0583 0.57397 0.0
C436 C 0.1456 0.08398 0.40062 0.0
C437 C 0.16149 0.07475 0.34427 0.0
C438 C 0.15818 0.05023 0.31792 0.0
C439 C 0.13958 0.03493 0.34814 0.0
C440 C 0.1243 0.04457 0.40396 0.0
C441 C 0.12694 0.06862 0.42931 0.0
C442 C 0.10767 0.07477 0.48817 0.0
C443 C 0.11992 0.08097 0.56363 0.0
C444 C 0.09078 0.09581 0.46206 0.0
C445 C 0.09378 0.05047 0.49179 0.0
C446 C 0.10383 0.03311 0.44378 0.0
C447 C 0.09463 0.00896 0.44004 0.0
C448 C 0.07448 0.00252 0.48625 0.0
C449 C 0.06366 0.02034 0.53401 0.0
C450 C 0.07343 0.04452 0.53674 0.0
H451 H 0.43724 0.1354 0.33587 0.0
H452 H 0.50868 0.1688 0.2841 0.0
H453 H 0.52947 0.13695 0.35973 0.0
H454 H 0.45068 0.11818 0.52546 0.0
H455 H 0.43399 0.08925 0.52025 0.0
H456 H 0.42459 0.11491 0.46332 0.0
H457 H 0.42878 0.08787 0.3446 0.0
H458 H 0.43807 0.0621 0.40093 0.0
H459 H 0.4576 0.07242 0.3249 0.0
H460 H 0.54233 0.10192 0.44438 0.0
H461 H 0.54628 0.06424 0.52159 0.0
H462 H 0.46664 0.05312 0.51174 0.0
C463 C 0.45725 0.13604 0.34052 0.0
C464 C 0.47136 0.15462 0.3045 0.0
C465 C 0.49753 0.15468 0.31119 0.0
C466 C 0.50949 0.13676 0.35427 0.0
C467 C 0.49502 0.1188 0.3896 0.0
C468 C 0.4695 0.11814 0.38244 0.0
C469 C 0.4583 0.09646 0.42409 0.0
C470 C 0.44086 0.10524 0.48702 0.0
C471 C 0.44492 0.07865 0.37035 0.0
C472 C 0.48147 0.08497 0.45539 0.0
C473 C 0.50247 0.09827 0.43593 0.0
C474 C 0.526 0.09132 0.45972 0.0
C475 C 0.52807 0.07003 0.50385 0.0
C476 C 0.50677 0.05591 0.52267 0.0
C477 C 0.48325 0.06354 0.49802 0.0
H478 H 0.38933 0.56183 0.18394 0.0
H479 H 0.37209 0.4848 0.13762 0.0
H480 H 0.40523 0.4721 0.22405 0.0
H481 H 0.45692 0.55454 0.2036 0.0
H482 H 0.45866 0.57681 0.2787 0.0
H483 H 0.43531 0.57979 0.20749 0.0
H484 H 0.40113 0.58015 0.31005 0.0
H485 H 0.42429 0.57698 0.38147 0.0
H486 H 0.39917 0.55493 0.37554 0.0
H487 H 0.43773 0.46786 0.32383 0.0
H488 H 0.46699 0.47252 0.42914 0.0
H489 H 0.46336 0.55226 0.40812 0.0
C490 C 0.39279 0.54228 0.19089 0.0
C491 C 0.37816 0.5243 0.15389 0.0
C492 C 0.38309 0.49891 0.16528 0.0
C493 C 0.40192 0.49151 0.21411 0.0
C494 C 0.4157 0.50973 0.25074 0.0
C495 C 0.41145 0.5346 0.2394 0.0
C496 C 0.42781 0.55049 0.28894 0.0
C497 C 0.44574 0.56634 0.24186 0.0
C498 C 0.41216 0.56657 0.34213 0.0
C499 C 0.44149 0.53068 0.33118 0.0
C500 C 0.43443 0.50729 0.30798 0.0
C501 C 0.44364 0.48608 0.34175 0.0
C502 C 0.46027 0.48891 0.40136 0.0
C503 C 0.46739 0.51275 0.42659 0.0
C504 C 0.45817 0.53381 0.39004 0.0
H505 H 0.9323 0.37384 0.29399 0.0
H506 H 0.99853 0.36806 0.15633 0.0
H507 H 0.01887 0.40041 0.23322 0.0
H508 H 0.93632 0.44102 0.33093 0.0
H509 H 0.9252 0.43719 0.4255 0.0
H510 H 0.91525 0.41607 0.3533 0.0
H511 H 0.93073 0.37945 0.43393 0.0
H512 H 0.94106 0.40067 0.50513 0.0
H513 H 0.96258 0.37909 0.46422 0.0
H514 H 0.03296 0.43136 0.33244 0.0
H515 H 0.03928 0.45774 0.44464 0.0
H516 H 0.96377 0.4418 0.51579 0.0
C517 C 0.9509 0.3797 0.2789 0.0
C518 C 0.96379 0.36851 0.21898 0.0
C519 C 0.98826 0.37647 0.20187 0.0
C520 C -5e-05 0.39484 0.24515 0.0
C521 C 0.98687 0.40507 0.30505 0.0
C522 C 0.96281 0.39785 0.32153 0.0
C523 C 0.9533 0.41032 0.39167 0.0
C524 C 0.93122 0.42716 0.37424 0.0
C525 C 0.94654 0.39124 0.45229 0.0
C526 C 0.97594 0.42525 0.41316 0.0
C527 C 0.99507 0.42231 0.36232 0.0
C528 C 0.01803 0.43391 0.37232 0.0
C529 C 0.02148 0.4488 0.43616 0.0
C530 C 0.00212 0.45163 0.48927 0.0
C531 C 0.97907 0.43984 0.47679 0.0
H532 H 0.8877 0.90036 0.98001 0.0
H533 H 0.84882 0.96326 0.07412 0.0
H534 H 0.87617 0.99157 0.00283 0.0
H535 H 0.94902 0.92856 0.98547 0.0
H536 H 0.95889 0.91437 0.89905 0.0
H537 H 0.93627 0.89907 0.95748 0.0
H538 H 0.90593 0.8968 0.84566 0.0
H539 H 0.92844 0.91216 0.78706 0.0
H540 H 0.89776 0.92477 0.79734 0.0
H541 H 0.90623 0.01293 0.91534 0.0
H542 H 0.93959 0.02577 0.82762 0.0
H543 H 0.96009 0.94896 0.79719 0.0
C544 C 0.885 0.9201 0.98575 0.0
C545 C 0.86609 0.92966 0.03223 0.0
C546 C 0.86326 0.95557 0.03892 0.0
C547 C 0.87862 0.97179 0.99847 0.0
C548 C 0.89694 0.96177 0.95253 0.0
C549 C 0.90044 0.93653 0.94684 0.0
C550 C 0.9218 0.93053 0.89472 0.0
C551 C 0.94273 0.91736 0.93674 0.0
C552 C 0.91294 0.91516 0.8272 0.0
C553 C 0.92955 0.95632 0.87144 0.0
C554 C 0.91487 0.9741 0.90474 0.0
C555 C 0.91801 0.9992 0.88947 0.0
C556 C 0.93687 0.00631 0.83941 0.0
C557 C 0.95245 0.98838 0.80625 0.0
C558 C 0.94864 0.96311 0.82251 0.0
H559 H 0.62086 0.85888 0.79757 0.0
H560 H 0.60757 0.87434 0.03287 0.0
H561 H 0.57964 0.90835 0.99819 0.0
H562 H 0.61727 0.92425 0.7312 0.0
H563 H 0.60184 0.91495 0.64621 0.0
H564 H 0.62367 0.89452 0.68982 0.0
H565 H 0.58976 0.86016 0.69334 0.0
H566 H 0.56797 0.88079 0.6509 0.0
H567 H 0.56056 0.86636 0.73902 0.0
H568 H 0.54894 0.93654 0.93843 0.0
H569 H 0.52026 0.95951 0.85735 0.0
H570 H 0.55403 0.92603 0.66108 0.0
C571 C 0.61264 0.86985 0.84186 0.0
C572 C 0.61641 0.86399 0.91795 0.0
C573 C 0.60495 0.87852 0.97421 0.0
C574 C 0.58906 0.89787 0.95507 0.0
C575 C 0.58495 0.9025 0.87949 0.0
C576 C 0.59667 0.88915 0.82372 0.0
C577 C 0.58773 0.89665 0.74688 0.0
C578 C 0.6089 0.90829 0.70084 0.0
C579 C 0.5758 0.87468 0.70514 0.0
C580 C 0.56859 0.91572 0.76828 0.0
C581 C 0.56737 0.91894 0.84498 0.0
C582 C 0.55005 0.93452 0.87823 0.0
C583 C 0.53378 0.94738 0.83176 0.0
C584 C 0.53513 0.94478 0.75291 0.0
C585 C 0.55267 0.92859 0.72106 0.0
H586 H 0.64162 0.60328 0.91436 0.0
H587 H 0.66047 0.53889 0.04601 0.0
H588 H 0.62524 0.51594 0.99038 0.0
H589 H 0.57464 0.59553 0.92906 0.0
H590 H 0.5693 0.60617 0.83504 0.0
H591 H 0.59573 0.61744 0.88661 0.0
H592 H 0.62483 0.60324 0.77945 0.0
H593 H 0.59861 0.59167 0.72774 0.0
H594 H 0.62396 0.57142 0.74923 0.0
H595 H 0.59038 0.49887 0.91055 0.0
H596 H 0.55611 0.49047 0.82148 0.0
H597 H 0.5583 0.56705 0.75129 0.0
C598 C 0.63823 0.58441 0.9319 0.0
C599 C 0.65379 0.57281 0.98427 0.0
C600 C 0.6487 0.54814 0.00611 0.0
C601 C 0.62879 0.53495 0.9747 0.0
C602 C 0.61396 0.54684 0.92251 0.0
C603 C 0.61824 0.57113 0.90205 0.0
C604 C 0.59962 0.57965 0.84477 0.0
C605 C 0.58387 0.60096 0.87575 0.0
C606 C 0.61253 0.58692 0.77095 0.0
C607 C 0.58437 0.55631 0.83561 0.0
C608 C 0.59306 0.53746 0.88017 0.0
C609 C 0.58308 0.51362 0.87656 0.0
C610 C 0.56373 0.50899 0.82597 0.0
C611 C 0.55438 0.52826 0.78119 0.0
C612 C 0.5647 0.55219 0.78666 0.0
H613 H 0.91383 0.62609 0.94984 0.0
H614 H 0.97763 0.65913 0.05968 0.0
H615 H 0.0046 0.62708 0.00389 0.0
H616 H 0.93261 0.56234 0.97451 0.0
H617 H 0.92021 0.55287 0.88527 0.0
H618 H 0.90648 0.57828 0.93546 0.0
H619 H 0.91305 0.60607 0.81837 0.0
H620 H 0.92714 0.58066 0.76926 0.0
H621 H 0.94378 0.60948 0.77929 0.0
H622 H 0.02491 0.59216 0.92956 0.0
H623 H 0.03585 0.55613 0.84939 0.0
H624 H 0.9582 0.54585 0.79582 0.0
C625 C 0.93346 0.62658 0.96233 0.0
C626 C 0.94368 0.64513 0.00877 0.0
C627 C 0.96943 0.64501 0.02429 0.0
C628 C 0.98489 0.62694 0.99276 0.0
C629 C 0.97423 0.60898 0.9467 0.0
C630 C 0.94903 0.60854 0.93226 0.0
C631 C 0.94202 0.5872 0.88166 0.0
C632 C 0.92429 0.5691 0.92163 0.0
C633 C 0.93085 0.59642 0.80778 0.0
C634 C 0.96721 0.57588 0.86917 0.0
C635 C 0.98566 0.58866 0.90656 0.0
C636 C 0.01056 0.5819 0.90054 0.0
C637 C 0.01664 0.56155 0.85497 0.0
C638 C 0.99782 0.54832 0.81678 0.0
C639 C 0.97291 0.55552 0.82482 0.0
H640 H 0.93256 0.2244 0.24717 0.0
H641 H 0.00908 0.24842 0.22384 0.0
H642 H 0.02201 0.21619 0.31269 0.0
H643 H 0.93385 0.21318 0.43969 0.0
H644 H 0.91426 0.18605 0.43716 0.0
H645 H 0.91126 0.20939 0.36634 0.0
H646 H 0.91855 0.17651 0.26289 0.0
H647 H 0.92146 0.153 0.33345 0.0
H648 H 0.94596 0.15766 0.26588 0.0
H649 H 0.02595 0.18476 0.41461 0.0
H650 H 0.02089 0.15417 0.51647 0.0
H651 H 0.94219 0.1492 0.47026 0.0
C652 C 0.95208 0.22254 0.25988 0.0
C653 C 0.96991 0.23854 0.22757 0.0
C654 C 0.99524 0.23584 0.24613 0.0
C655 C 0.00272 0.21773 0.29705 0.0
C656 C 0.98466 0.20235 0.32841 0.0
C657 C 0.9599 0.20434 0.3099 0.0
C658 C 0.94412 0.18608 0.35356 0.0
C659 C 0.92474 0.19948 0.40206 0.0
C660 C 0.9318 0.16719 0.30078 0.0
C661 C 0.96377 0.17405 0.40123 0.0
C662 C 0.98705 0.1837 0.38581 0.0
C663 C 0.0079 0.17675 0.42626 0.0
C664 C 0.00487 0.1595 0.48405 0.0
C665 C 0.98124 0.1493 0.50023 0.0
C666 C 0.96051 0.15647 0.45781 0.0
H667 H 0.32496 0.10135 0.20283 0.0
H668 H 0.2781 0.05729 0.34933 0.0
H669 H 0.31407 0.03169 0.38282 0.0
H670 H 0.36367 0.052 0.13364 0.0
H671 H 0.39133 0.07076 0.13343 0.0
H672 H 0.3616 0.08507 0.12145 0.0
H673 H 0.37106 0.11396 0.23587 0.0
H674 H 0.40068 0.0992 0.2446 0.0
H675 H 0.37976 0.10019 0.3236 0.0
H676 H 0.35407 0.00921 0.39362 0.0
H677 H 0.39621 0.99241 0.3867 0.0
H678 H 0.41815 0.05272 0.23978 0.0
C679 C 0.32227 0.08615 0.24127 0.0
C680 C 0.2987 0.081 0.27268 0.0
C681 C 0.29602 0.06148 0.32467 0.0
C682 C 0.31631 0.04682 0.34388 0.0
C683 C 0.33924 0.0522 0.31153 0.0
C684 C 0.34245 0.07151 0.26189 0.0
C685 C 0.36925 0.07351 0.23632 0.0
C686 C 0.37155 0.07014 0.15111 0.0
C687 C 0.38087 0.09817 0.26171 0.0
C688 C 0.38034 0.05184 0.27762 0.0
C689 C 0.36271 0.03987 0.32074 0.0
C690 C 0.36819 0.01867 0.36114 0.0
C691 C 0.39233 0.00937 0.35721 0.0
C692 C 0.41088 0.02132 0.31356 0.0
C693 C 0.4046 0.04294 0.27353 0.0
H694 H 0.47634 0.27343 0.3425 0.0
H695 H 0.43037 0.3196 0.20285 0.0
H696 H 0.44435 0.35658 0.27343 0.0
H697 H 0.46619 0.30642 0.5156 0.0
H698 H 0.49756 0.30235 0.54742 0.0
H699 H 0.48359 0.27971 0.48634 0.0
H700 H 0.51996 0.28508 0.39222 0.0
H701 H 0.53404 0.30772 0.45301 0.0
H702 H 0.5274 0.31546 0.35718 0.0
H703 H 0.46372 0.38851 0.3602 0.0
H704 H 0.48714 0.41267 0.45445 0.0
H705 H 0.52075 0.34514 0.53457 0.0
C706 C 0.46911 0.29132 0.32706 0.0
C707 C 0.4526 0.29378 0.26655 0.0
C708 C 0.44358 0.31745 0.24772 0.0
C709 C 0.45122 0.33849 0.28798 0.0
C710 C 0.46782 0.33545 0.34683 0.0
C711 C 0.47664 0.31243 0.36623 0.0
C712 C 0.49469 0.31409 0.4306 0.0
C713 C 0.48491 0.2998 0.49903 0.0
C714 C 0.52055 0.30506 0.4068 0.0
C715 C 0.49465 0.34165 0.44463 0.0
C716 C 0.47901 0.35369 0.39601 0.0
C717 C 0.47608 0.37926 0.39839 0.0
C718 C 0.48957 0.39284 0.45176 0.0
C719 C 0.50583 0.3808 0.50177 0.0
C720 C 0.50826 0.35487 0.49786 0.0
H721 H 0.24451 0.50308 0.21827 0.0
H722 H 0.23698 0.57701 0.12895 0.0
H723 H 0.20087 0.58408 0.21229 0.0
H724 H 0.1783 0.48982 0.24271 0.0
H725 H 0.18308 0.47325 0.32872 0.0
H726 H 0.20696 0.4737 0.25786 0.0
H727 H 0.23823 0.4907 0.35573 0.0
H728 H 0.21433 0.49059 0.42638 0.0
H729 H 0.2311 0.51873 0.40604 0.0
H730 H 0.16573 0.58298 0.30599 0.0
H731 H 0.13596 0.57486 0.40921 0.0
H732 H 0.168 0.50244 0.4413 0.0
C733 C 0.2349 0.52054 0.21514 0.0
C734 C 0.24311 0.53935 0.16627 0.0
C735 C 0.23076 0.56233 0.16574 0.0
C736 C 0.21023 0.56646 0.21259 0.0
C737 C 0.20255 0.5475 0.26018 0.0
C738 C 0.21461 0.52505 0.26216 0.0
C739 C 0.20359 0.50825 0.32134 0.0
C740 C 0.19231 0.48487 0.28551 0.0
C741 C 0.22297 0.5017 0.38089 0.0
C742 C 0.18366 0.52485 0.35316 0.0
C743 C 0.18309 0.54727 0.31633 0.0
C744 C 0.16604 0.56552 0.33531 0.0
C745 C 0.14922 0.56077 0.39377 0.0
C746 C 0.1499 0.53814 0.43317 0.0
C747 C 0.16732 0.51999 0.41242 0.0
H748 H 0.93923 0.76472 0.93913 0.0
H749 H 0.92356 0.80243 0.14846 0.0
H750 H 0.94676 0.83904 0.10401 0.0
H751 H 0.99921 0.78615 0.91132 0.0
H752 H 0.99683 0.79062 0.8117 0.0
H753 H 0.97755 0.76793 0.85741 0.0
H754 H 0.93817 0.78866 0.8046 0.0
H755 H 0.95738 0.81126 0.75779 0.0
H756 H 0.9332 0.82116 0.82085 0.0
H757 H 0.97612 0.86892 0.04366 0.0
H758 H 0.00565 0.89238 0.96661 0.0
H759 H 0.99806 0.83774 0.78881 0.0
C760 C 0.9403 0.78087 0.97501 0.0
C761 C 0.93054 0.78041 0.04853 0.0
C762 C 0.9321 0.80191 0.09361 0.0
C763 C 0.94487 0.82295 0.06831 0.0
C764 C 0.95529 0.8224 0.99685 0.0
C765 C 0.95263 0.80218 0.95006 0.0
C766 C 0.96604 0.80625 0.87634 0.0
C767 C 0.9861 0.78657 0.86349 0.0
C768 C 0.9476 0.80687 0.81103 0.0
C769 C 0.97745 0.83151 0.89024 0.0
C770 C 0.97096 0.84047 0.96003 0.0
C771 C 0.98076 0.86246 0.98797 0.0
C772 C 0.99747 0.87578 0.94318 0.0
C773 C 0.00401 0.86737 0.87033 0.0
C774 C 0.99364 0.84487 0.84389 0.0
H775 H 0.75198 0.95596 0.07162 0.0
H776 H 0.72052 0.88257 0.09685 0.0
H777 H 0.68001 0.89786 0.05079 0.0
H778 H 0.69912 0.99069 0.12644 0.0
H779 H 0.70408 0.01451 0.0577 0.0
H780 H 0.73004 0.99754 0.09353 0.0
H781 H 0.74249 0.98519 0.95796 0.0
H782 H 0.7165 0.0021 0.92206 0.0
H783 H 0.72009 0.96987 0.89888 0.0
H784 H 0.64231 0.92255 0.01008 0.0
H785 H 0.61174 0.95291 0.96785 0.0
H786 H 0.67006 0.00877 0.95538 0.0
C787 C 0.73649 0.94317 0.0676 0.0
C788 C 0.73903 0.91825 0.08865 0.0
C789 C 0.7187 0.9018 0.08122 0.0
C790 C 0.69571 0.91033 0.05537 0.0
C791 C 0.69372 0.93519 0.03573 0.0
C792 C 0.71372 0.95124 0.04038 0.0
C793 C 0.70713 0.97682 0.01356 0.0
C794 C 0.71029 0.99602 0.07657 0.0
C795 C 0.72246 0.9839 0.94397 0.0
C796 C 0.68011 0.97288 0.99439 0.0
C797 C 0.67261 0.94885 0.00806 0.0
C798 C 0.64811 0.9413 0.99788 0.0
C799 C 0.63088 0.95876 0.97304 0.0
C800 C 0.63825 0.9835 0.95718 0.0
C801 C 0.66339 0.99032 0.9677 0.0
H802 H 0.59052 0.70557 0.04191 0.0
H803 H 0.57043 0.76393 0.8882 0.0
H804 H 0.53389 0.73962 0.84836 0.0
H805 H 0.57381 0.65599 0.92586 0.0
H806 H 0.56168 0.63661 0.99955 0.0
H807 H 0.58543 0.65914 0.0199 0.0
H808 H 0.55747 0.67822 0.12194 0.0
H809 H 0.53329 0.6561 0.1019 0.0
H810 H 0.52685 0.68873 0.09837 0.0
H811 H 0.50128 0.70835 0.81961 0.0
H812 H 0.47485 0.67126 0.8019 0.0
H813 H 0.51462 0.63383 0.97811 0.0
C814 C 0.57797 0.71363 0.00194 0.0
C815 C 0.58295 0.73694 0.96956 0.0
C816 C 0.56686 0.74615 0.91399 0.0
C817 C 0.54598 0.73258 0.89138 0.0
C818 C 0.54141 0.70982 0.92501 0.0
C819 C 0.55689 0.70037 0.97913 0.0
C820 C 0.54847 0.67477 0.00309 0.0
C821 C 0.56855 0.65549 0.98606 0.0
C822 C 0.54106 0.67446 0.08626 0.0
C823 C 0.52606 0.67123 0.95319 0.0
C824 C 0.5223 0.69174 0.90882 0.0
C825 C 0.50378 0.69233 0.85477 0.0
C826 C 0.48889 0.67126 0.84507 0.0
C827 C 0.49256 0.65002 0.88947 0.0
C828 C 0.51112 0.65013 0.94489 0.0
H829 H 0.79402 0.58085 0.92775 0.0
H830 H 0.79005 0.53823 0.13258 0.0
H831 H 0.82318 0.51114 0.08608 0.0
H832 H 0.79954 0.52981 0.80869 0.0
H833 H 0.82046 0.54436 0.74306 0.0
H834 H 0.79924 0.56288 0.79681 0.0
H835 H 0.83603 0.58915 0.8465 0.0
H836 H 0.85748 0.57057 0.79331 0.0
H837 H 0.86139 0.57413 0.89288 0.0
H838 H 0.85439 0.48666 0.01389 0.0
H839 H 0.87977 0.46535 0.91841 0.0
H840 H 0.86158 0.52215 0.75735 0.0
C841 C 0.80052 0.56612 0.9634 0.0
C842 C 0.79026 0.56242 0.03546 0.0
C843 C 0.79867 0.54246 0.07943 0.0
C844 C 0.81727 0.5267 0.05291 0.0
C845 C 0.82708 0.53093 0.98185 0.0
C846 C 0.81893 0.55008 0.93744 0.0
C847 C 0.83094 0.54924 0.86063 0.0
C848 C 0.81138 0.54639 0.79867 0.0
C849 C 0.84744 0.57213 0.84758 0.0
C850 C 0.84641 0.52615 0.8681 0.0
C851 C 0.84431 0.51616 0.93889 0.0
C852 C 0.85637 0.49444 0.95846 0.0
C853 C 0.87079 0.48251 0.90396 0.0
C854 C 0.87274 0.49215 0.83055 0.0
C855 C 0.86049 0.51436 0.81292 0.0
H856 H 0.9982 0.1477 0.04294 0.0
H857 H 0.04852 0.19503 0.91721 0.0
H858 H 0.05681 0.16065 0.82945 0.0
H859 H 0.03275 0.09037 0.02051 0.0
H860 H 0.00473 0.07212 0.0117 0.0
H861 H 0.00464 0.10006 0.06658 0.0
H862 H 0.96804 0.11606 0.98688 0.0
H863 H 0.96859 0.08834 0.93097 0.0
H864 H 0.97153 0.11809 0.8867 0.0
H865 H 0.05601 0.12258 0.7481 0.0
H866 H 0.04824 0.08264 0.68398 0.0
H867 H 0.00012 0.05982 0.86629 0.0
C868 C 0.01128 0.15077 0.9977 0.0
C869 C 0.02277 0.17404 0.98707 0.0
C870 C 0.03957 0.17732 0.92666 0.0
C871 C 0.04439 0.15792 0.87649 0.0
C872 C 0.0324 0.13534 0.88791 0.0
C873 C 0.01632 0.13164 0.94732 0.0
C874 C 0.00498 0.10601 0.94544 0.0
C875 C 0.01224 0.09125 0.01518 0.0
C876 C 0.97661 0.10722 0.93697 0.0
C877 C 0.0171 0.09584 0.87546 0.0
C878 C 0.03271 0.11311 0.8427 0.0
C879 C 0.04426 0.10873 0.77401 0.0
C880 C 0.03966 0.08613 0.73787 0.0
C881 C 0.02394 0.06821 0.77107 0.0
C882 C 0.01274 0.07304 0.84093 0.0
H883 H 0.36487 0.02683 0.99135 0.0
H884 H 0.3428 0.09188 0.86752 0.0
H885 H 0.3753 0.08339 0.77312 0.0
H886 H 0.42926 0.03498 0.96463 0.0
H887 H 0.43628 0.00262 0.95459 0.0
H888 H 0.41005 0.01213 0.01006 0.0
H889 H 0.38056 0.98485 0.93107 0.0
H890 H 0.40657 0.97452 0.8759 0.0
H891 H 0.38022 0.98818 0.83071 0.0
H892 H 0.41021 0.06784 0.69237 0.0
H893 H 0.44685 0.04767 0.63547 0.0
H894 H 0.44721 0.99405 0.815 0.0
C895 C 0.36666 0.0391 0.94386 0.0
C896 C 0.35119 0.05988 0.93627 0.0
C897 C 0.35443 0.07581 0.87421 0.0
C898 C 0.37278 0.07111 0.82027 0.0
C899 C 0.38782 0.05054 0.82961 0.0
C900 C 0.38505 0.03486 0.89003 0.0
C901 C 0.40439 0.01471 0.8889 0.0
C902 C 0.42098 0.01621 0.95865 0.0
C903 C 0.3922 0.98905 0.88118 0.0
C904 C 0.41855 0.02161 0.81867 0.0
C905 C 0.40852 0.04215 0.78474 0.0
C906 C 0.41826 0.05178 0.7185 0.0
C907 C 0.43893 0.0402 0.68644 0.0
C908 C 0.44975 0.01956 0.72142 0.0
C909 C 0.43932 0.01004 0.78789 0.0
H910 H 0.46483 0.38022 0.96717 0.0
H911 H 0.44908 0.32886 0.78583 0.0
H912 H 0.4556 0.36236 0.69435 0.0
H913 H 0.43523 0.43401 0.88702 0.0
H914 H 0.45888 0.45451 0.92304 0.0
H915 H 0.45171 0.42625 0.97131 0.0
H916 H 0.49873 0.41517 0.96173 0.0
H917 H 0.50486 0.44313 0.9103 0.0
H918 H 0.51324 0.41366 0.87068 0.0
H919 H 0.46397 0.40105 0.62285 0.0
H920 H 0.47523 0.44229 0.575 0.0
H921 H 0.48519 0.46883 0.80255 0.0
C922 C 0.46265 0.37601 0.90826 0.0
C923 C 0.45631 0.35193 0.88371 0.0
C924 C 0.45383 0.34717 0.80605 0.0
C925 C 0.45746 0.36608 0.75363 0.0
C926 C 0.46351 0.38963 0.77981 0.0
C927 C 0.4662 0.39466 0.85517 0.0
C928 C 0.47337 0.42145 0.8683 0.0
C929 C 0.45358 0.43483 0.91513 0.0
C930 C 0.49908 0.42345 0.90491 0.0
C931 C 0.47401 0.43077 0.78853 0.0
C932 C 0.46831 0.41205 0.73844 0.0
C933 C 0.46835 0.41588 0.66151 0.0
C934 C 0.47479 0.43936 0.63494 0.0
C935 C 0.48091 0.45877 0.68518 0.0
C936 C 0.48022 0.45445 0.76299 0.0
H937 H 0.1449 0.50934 0.0306 0.0
H938 H 0.17878 0.4395 0.97007 0.0
H939 H 0.1439 0.43051 0.8848 0.0
H940 H 0.07921 0.48765 0.01752 0.0
H941 H 0.06917 0.51661 0.97891 0.0
H942 H 0.09475 0.51599 0.04351 0.0
H943 H 0.12272 0.53847 0.94646 0.0
H944 H 0.09733 0.53923 0.88164 0.0
H945 H 0.12629 0.52541 0.85406 0.0
H946 H 0.10777 0.43145 0.79518 0.0
H947 H 0.07285 0.44208 0.71154 0.0
H948 H 0.06346 0.51135 0.83035 0.0
C949 C 0.14472 0.49186 0.00093 0.0
C950 C 0.16457 0.47511 0.00712 0.0
C951 C 0.16374 0.45259 0.96644 0.0
C952 C 0.14398 0.4473 0.91792 0.0
C953 C 0.12513 0.46462 0.9112 0.0
C954 C 0.12522 0.48634 0.95226 0.0
C955 C 0.10384 0.50278 0.93075 0.0
C956 C 0.08567 0.50594 0.9966 0.0
C957 C 0.11312 0.52795 0.90149 0.0
C958 C 0.09239 0.48745 0.86896 0.0
C959 C 0.1046 0.4653 0.85923 0.0
C960 C 0.09789 0.44861 0.80301 0.0
C961 C 0.07815 0.45477 0.75578 0.0
C962 C 0.06561 0.47743 0.76504 0.0
C963 C 0.07284 0.49389 0.82226 0.0
H964 H 0.92941 0.85264 0.42614 0.0
H965 H 0.99711 0.83632 0.30359 0.0
H966 H 0.01706 0.87324 0.3587 0.0
H967 H 0.93191 0.91905 0.41102 0.0
H968 H 0.9199 0.92311 0.50477 0.0
H969 H 0.912 0.89584 0.45225 0.0
H970 H 0.92856 0.87018 0.56493 0.0
H971 H 0.93755 0.89809 0.61325 0.0
H972 H 0.96022 0.87454 0.59452 0.0
H973 H 0.02991 0.91127 0.42801 0.0
H974 H 0.03483 0.94851 0.50704 0.0
H975 H 0.95845 0.94128 0.58135 0.0
C976 C 0.94843 0.85682 0.41085 0.0
C977 C 0.96168 0.84161 0.36038 0.0
C978 C 0.98659 0.84766 0.3422 0.0
C979 C 0.99808 0.86862 0.37311 0.0
C980 C 0.98444 0.88329 0.42223 0.0
C981 C 0.96022 0.87765 0.44134 0.0
C982 C 0.94985 0.89635 0.49629 0.0
C983 C 0.92709 0.90938 0.46398 0.0
C984 C 0.94369 0.88405 0.5717 0.0
C985 C 0.97182 0.91381 0.50337 0.0
C986 C 0.99168 0.90567 0.46099 0.0
C987 C 0.01446 0.91794 0.46103 0.0
C988 C 0.01709 0.939 0.50607 0.0
C989 C 0.99697 0.94775 0.54948 0.0
C990 C 0.97397 0.93515 0.54757 0.0
H991 H 0.69435 0.96488 0.47495 0.0
H992 H 0.67963 0.99234 0.25148 0.0
H993 H 0.63739 0.00366 0.29065 0.0
H994 H 0.6363 0.93757 0.50684 0.0
H995 H 0.63443 0.94618 0.60425 0.0
H996 H 0.66422 0.94223 0.56047 0.0
H997 H 0.67656 0.9867 0.60181 0.0
H998 H 0.64655 0.99051 0.64501 0.0
H999 H 0.65723 0.01229 0.57568 0.0
H1000 H 0.59576 0.00774 0.34866 0.0
H1001 H 0.55758 0.00681 0.42489 0.0
H1002 H 0.59901 0.97801 0.61282 0.0
C1003 C 0.6824 0.97369 0.43463 0.0
C1004 C 0.69033 0.97769 0.36003 0.0
C1005 C 0.67405 0.98912 0.30889 0.0
C1006 C 0.64999 0.99564 0.33063 0.0
C1007 C 0.64257 0.99091 0.40395 0.0
C1008 C 0.65834 0.9805 0.45558 0.0
C1009 C 0.64529 0.97647 0.53001 0.0
C1010 C 0.64505 0.94897 0.55156 0.0
C1011 C 0.65712 0.99245 0.59177 0.0
C1012 C 0.61951 0.98542 0.51116 0.0
C1013 C 0.61845 0.99378 0.43822 0.0
C1014 C 0.5964 0.00158 0.40616 0.0
C1015 C 0.57479 0.00079 0.44973 0.0
C1016 C 0.5754 0.99235 0.52463 0.0
C1017 C 0.59812 0.98484 0.55597 0.0
H1018 H 0.55606 0.66607 0.27294 0.0
H1019 H 0.62154 0.68185 0.40613 0.0
H1020 H 0.61016 0.64793 0.49175 0.0
H1021 H 0.51502 0.65085 0.42544 0.0
H1022 H 0.49962 0.62611 0.37583 0.0
H1023 H 0.51272 0.65176 0.32483 0.0
H1024 H 0.53888 0.62146 0.24463 0.0
H1025 H 0.52576 0.59575 0.29533 0.0
H1026 H 0.55893 0.59978 0.29059 0.0
H1027 H 0.59248 0.61196 0.56107 0.0
H1028 H 0.56908 0.57623 0.61088 0.0
H1029 H 0.51474 0.58387 0.43442 0.0
C1030 C 0.56794 0.6625 0.32035 0.0
C1031 C 0.58967 0.67669 0.33301 0.0
C1032 C 0.60481 0.67126 0.39532 0.0
C1033 C 0.5985 0.65204 0.4443 0.0
C1034 C 0.57704 0.6384 0.43011 0.0
C1035 C 0.56197 0.64332 0.36972 0.0
C1036 C 0.54012 0.62556 0.36669 0.0
C1037 C 0.51541 0.63941 0.37364 0.0
C1038 C 0.54098 0.6097 0.29505 0.0
C1039 C 0.5451 0.61013 0.43544 0.0
C1040 C 0.56662 0.61774 0.47078 0.0
C1041 C 0.57554 0.60591 0.53414 0.0
C1042 C 0.56218 0.58565 0.5619 0.0
C1043 C 0.54015 0.57754 0.52649 0.0
C1044 C 0.53137 0.59005 0.46296 0.0
H1045 H 0.85541 0.53221 0.33985 0.0
H1046 H 0.81541 0.56698 0.52301 0.0
H1047 H 0.84914 0.5559 0.60947 0.0
H1048 H 0.88161 0.48141 0.45417 0.0
H1049 H 0.91032 0.48167 0.4022 0.0
H1050 H 0.88182 0.48994 0.3567 0.0
H1051 H 0.90095 0.53249 0.31744 0.0
H1052 H 0.92927 0.52268 0.35994 0.0
H1053 H 0.91535 0.55158 0.38816 0.0
H1054 H 0.88828 0.54355 0.67363 0.0
H1055 H 0.92964 0.52972 0.71268 0.0
H1056 H 0.94527 0.5052 0.48604 0.0
C1057 C 0.85359 0.53727 0.39829 0.0
C1058 C 0.83282 0.55056 0.42462 0.0
C1059 C 0.83114 0.5568 0.50155 0.0
C1060 C 0.85018 0.55056 0.5511 0.0
C1061 C 0.87064 0.53793 0.52286 0.0
C1062 C 0.87236 0.53114 0.44845 0.0
C1063 C 0.89671 0.51845 0.43176 0.0
C1064 C 0.89233 0.49125 0.40994 0.0
C1065 C 0.91144 0.53219 0.37079 0.0
C1066 C 0.90907 0.52049 0.50743 0.0
C1067 C 0.89342 0.53118 0.55962 0.0
C1068 C 0.90055 0.53486 0.63358 0.0
C1069 C 0.92419 0.52719 0.65501 0.0
C1070 C 0.94077 0.51688 0.60201 0.0
C1071 C 0.93306 0.51342 0.52734 0.0
loop_
_geom_bond_atom_site_label_1
_geom_bond_atom_site_label_2
_geom_bond_distance
_geom_bond_site_symmetry_2
_ccdc_geom_bond_type
O0 Cd1 2.300 . S
O0 C7 1.275 . S
Cd1 O0 2.300 . S
Cd1 O9 2.381 . S
Cd1 O10 2.378 . S
O2 Cd3 2.385 . S
O2 C7 1.255 . S
Cd3 O2 2.385 . S
Cd3 O4 2.317 . S
O4 Cd3 2.317 . S
O4 C5 1.232 . S
C5 O4 1.232 . S
C5 O6 1.218 . S
O6 C5 1.218 . S
C7 O0 1.275 . S
C7 O2 1.255 . S
C8 O9 1.258 . S
C8 O10 1.256 . S
O9 Cd1 2.381 . S
O9 C8 1.258 . S
O10 Cd1 2.378 . S
O10 C8 1.256 . S
O11 Cd12 2.300 . S
O11 C18 1.275 . S
Cd12 O11 2.300 . S
Cd12 O20 2.381 . S
Cd12 O21 2.378 . S
O13 Cd14 2.385 1_655 S
O13 C18 1.255 . S
Cd14 O13 2.385 1_455 S
Cd14 O15 2.317 1_455 S
O15 Cd14 2.317 1_655 S
O15 C16 1.232 . S
C16 O15 1.232 . S
C16 O17 1.218 . S
O17 C16 1.218 . S
C18 O11 1.275 . S
C18 O13 1.255 . S
C19 O20 1.258 . S
C19 O21 1.256 . S
O20 Cd12 2.381 . S
O20 C19 1.258 . S
O21 Cd12 2.378 . S
O21 C19 1.256 . S
O22 Cd23 2.300 . S
O22 C29 1.275 . S
Cd23 O22 2.300 . S
Cd23 O31 2.381 . S
Cd23 O32 2.378 . S
O24 Cd25 2.385 1_565 S
O24 C29 1.255 . S
Cd25 O24 2.385 1_545 S
Cd25 O26 2.317 1_545 S
O26 Cd25 2.317 1_565 S
O26 C27 1.232 . S
C27 O26 1.232 . S
C27 O28 1.218 . S
O28 C27 1.218 . S
C29 O22 1.275 . S
C29 O24 1.255 . S
C30 O31 1.258 . S
C30 O32 1.256 . S
O31 Cd23 2.381 . S
O31 C30 1.258 . S
O32 Cd23 2.378 . S
O32 C30 1.256 . S
O33 Cd34 2.300 . S
O33 C40 1.275 . S
Cd34 O33 2.300 . S
Cd34 O42 2.381 . S
Cd34 O43 2.378 . S
O35 Cd36 2.385 . S
O35 C40 1.255 . S
Cd36 O35 2.385 . S
Cd36 O37 2.317 . S
O37 Cd36 2.317 . S
O37 C38 1.232 . S
C38 O37 1.232 . S
C38 O39 1.218 . S
O39 C38 1.218 . S
C40 O33 1.275 . S
C40 O35 1.255 . S
C41 O42 1.258 . S
C41 O43 1.256 . S
O42 Cd34 2.381 . S
O42 C41 1.258 . S
O43 Cd34 2.378 . S
O43 C41 1.256 . S
O44 Cd45 2.300 . S
O44 C51 1.275 . S
Cd45 O44 2.300 . S
Cd45 O53 2.381 . S
Cd45 O54 2.378 . S
O46 Cd47 2.385 1_554 S
O46 C51 1.255 . S
Cd47 O46 2.385 1_556 S
Cd47 O48 2.317 . S
O48 Cd47 2.317 . S
O48 C49 1.232 . S
C49 O48 1.232 . S
C49 O50 1.218 . S
O50 C49 1.218 . S
C51 O44 1.275 . S
C51 O46 1.255 . S
C52 O53 1.258 . S
C52 O54 1.256 . S
O53 Cd45 2.381 . S
O53 C52 1.258 . S
O54 Cd45 2.378 . S
O54 C52 1.256 . S
O55 Cd56 2.300 . S
O55 C62 1.275 . S
Cd56 O55 2.300 . S
Cd56 O64 2.381 . S
Cd56 O65 2.378 . S
O57 Cd58 2.385 1_554 S
O57 C62 1.255 . S
Cd58 O57 2.385 1_556 S
Cd58 O59 2.317 . S
O59 Cd58 2.317 . S
O59 C60 1.232 . S
C60 O59 1.232 . S
C60 O61 1.218 . S
O61 C60 1.218 . S
C62 O55 1.275 . S
C62 O57 1.255 . S
C63 O64 1.258 . S
C63 O65 1.256 . S
O64 Cd56 2.381 . S
O64 C63 1.258 . S
O65 Cd56 2.378 . S
O65 C63 1.256 . S
O66 Cd67 2.300 . S
O66 C73 1.275 . S
Cd67 O66 2.300 . S
Cd67 O75 2.381 . S
Cd67 O76 2.378 . S
O68 Cd69 2.385 1_554 S
O68 C73 1.255 . S
Cd69 O68 2.385 1_556 S
Cd69 O70 2.317 . S
O70 Cd69 2.317 . S
O70 C71 1.232 . S
C71 O70 1.232 . S
C71 O72 1.218 . S
O72 C71 1.218 . S
C73 O66 1.275 . S
C73 O68 1.255 . S
C74 O75 1.258 . S
C74 O76 1.256 . S
O75 Cd67 2.381 . S
O75 C74 1.258 . S
O76 Cd67 2.378 . S
O76 C74 1.256 . S
O77 Cd78 2.300 . S
O77 C84 1.275 . S
Cd78 O77 2.300 . S
Cd78 O86 2.381 . S
Cd78 O87 2.378 . S
O79 Cd80 2.385 1_554 S
O79 C84 1.255 . S
Cd80 O79 2.385 1_556 S
Cd80 O81 2.317 . S
O81 Cd80 2.317 . S
O81 C82 1.232 . S
C82 O81 1.232 . S
C82 O83 1.218 . S
O83 C82 1.218 . S
C84 O77 1.275 . S
C84 O79 1.255 . S
C85 O86 1.258 . S
C85 O87 1.256 . S
O86 Cd78 2.381 . S
O86 C85 1.258 . S
O87 Cd78 2.378 . S
O87 C85 1.256 . S
Tb88 N117 2.617 . S
Tb88 N123 2.572 . S
Tb88 O132 2.457 1_655 S
Tb88 O133 2.387 1_545 S
Tb88 O135 2.428 . S
Tb88 O136 2.308 1_655 S
Tb88 O140 2.349 1_655 S
Tb88 O143 2.393 . S
Tb88 C152 2.802 . S
C89 N90 1.379 . S
C89 C92 1.416 . S
C89 C96 1.424 . S
N90 C89 1.379 . S
N90 C93 1.334 . S
N90 Tb99 2.617 1_545 S
C91 C93 1.390 . S
C91 C94 1.339 . S
C91 H111 0.930 . S
C92 C89 1.416 . S
C92 C94 1.416 . S
C92 C98 1.448 . S
C93 N90 1.334 . S
C93 C91 1.390 . S
C93 H104 0.930 1_545 S
C94 C91 1.339 . S
C94 C92 1.416 . S
C94 H115 0.930 . S
C95 C96 1.413 . S
C95 C97 1.427 . S
C95 C101 1.416 1_556 S
C96 C89 1.424 . S
C96 C95 1.413 . S
C96 N100 1.361 . S
C97 C95 1.427 . S
C97 C98 1.328 . S
C97 H112 0.929 1_556 S
C98 C92 1.448 . S
C98 C97 1.328 . S
C98 H113 0.930 . S
Tb99 N90 2.617 1_565 S
Tb99 N100 2.572 1_565 S
Tb99 O134 2.349 . S
Tb99 O137 2.397 . S
Tb99 O138 2.465 . S
Tb99 O139 2.387 1_565 S
Tb99 O141 2.428 . S
Tb99 O142 2.308 1_465 S
Tb99 C163 2.802 . S
N100 C96 1.361 . S
N100 Tb99 2.572 1_545 S
N100 C102 1.340 . S
C101 C95 1.416 1_554 S
C101 C103 1.332 1_554 S
C101 H109 0.931 . S
C102 N100 1.340 . S
C102 C103 1.407 . S
C102 H108 0.930 1_455 S
C103 C101 1.332 1_556 S
C103 C102 1.407 . S
C103 H105 0.929 1_456 S
H104 C93 0.930 1_565 S
H105 C103 0.929 1_654 S
H106 C121 0.930 . S
H107 C128 0.931 . S
H108 C102 0.930 1_655 S
H109 C101 0.931 . S
H110 C124 0.930 . S
H111 C91 0.930 . S
H112 C97 0.929 1_554 S
H113 C98 0.930 . S
H114 C119 0.930 . S
H115 C94 0.930 . S
H116 C127 0.931 . S
N117 Tb88 2.617 . S
N117 C118 1.379 . S
N117 C121 1.334 . S
C118 N117 1.379 . S
C118 C120 1.416 1_545 S
C118 C126 1.424 . S
C119 H114 0.930 . S
C119 C121 1.390 . S
C119 C122 1.345 . S
C120 C118 1.416 1_565 S
C120 C122 1.415 1_565 S
C120 C153 1.448 . S
C121 H106 0.930 . S
C121 N117 1.334 . S
C121 C119 1.390 . S
C122 C119 1.345 . S
C122 C120 1.415 1_545 S
C122 H129 0.925 1_545 S
N123 Tb88 2.572 . S
N123 C124 1.340 1_655 S
N123 C126 1.361 . S
C124 H110 0.930 . S
C124 N123 1.340 1_455 S
C124 C128 1.400 1_545 S
C125 C126 1.413 1_565 S
C125 C127 1.416 . S
C125 C154 1.427 . S
C126 C118 1.424 . S
C126 N123 1.361 . S
C126 C125 1.413 1_545 S
C127 H116 0.931 . S
C127 C125 1.416 . S
C127 C128 1.338 1_655 S
C128 H107 0.931 . S
C128 C124 1.400 1_565 S
C128 C127 1.338 1_455 S
H129 C122 0.925 1_565 S
H130 C153 0.930 . S
H131 C154 0.929 . S
O132 Tb88 2.457 1_455 S
O132 C152 1.245 1_455 S
O133 Tb88 2.387 1_565 S
O133 C144 1.264 . S
O134 Tb99 2.349 . S
O134 C144 1.243 1_455 S
O135 Tb88 2.428 . S
O135 C152 1.256 . S
O136 Tb88 2.308 1_455 S
O136 C151 1.266 . S
O137 Tb99 2.397 . S
O137 C151 1.231 1_565 S
O138 Tb99 2.465 . S
O138 C163 1.264 . S
O139 Tb99 2.387 1_545 S
O139 C155 1.264 . S
O140 Tb88 2.349 1_455 S
O140 C155 1.243 . S
O141 Tb99 2.428 . S
O141 C163 1.256 . S
O142 Tb99 2.308 1_645 S
O142 C162 1.266 . S
O143 Tb88 2.393 . S
O143 C162 1.248 . S
C144 O133 1.264 . S
C144 O134 1.243 1_655 S
C145 C148 1.399 . S
C145 C150 1.383 . S
C145 C152 1.496 . S
C146 C147 1.399 . S
C146 C150 1.389 . S
C147 C146 1.399 . S
C147 C149 1.380 . S
C147 H164 0.929 . S
C148 C145 1.399 . S
C148 C149 1.392 . S
C148 H165 0.929 . S
C149 C147 1.380 . S
C149 C148 1.392 . S
C149 H166 0.929 . S
C150 C145 1.383 . S
C150 C146 1.389 . S
C150 H167 0.931 1_655 S
C151 O136 1.266 . S
C151 O137 1.231 1_545 S
C152 Tb88 2.802 . S
C152 O132 1.245 1_655 S
C152 O135 1.256 . S
C152 C145 1.496 . S
C153 C120 1.448 . S
C153 H130 0.930 . S
C153 C154 1.328 . S
C154 C125 1.427 . S
C154 H131 0.929 . S
C154 C153 1.328 . S
C155 O139 1.264 . S
C155 O140 1.243 . S
C156 C159 1.399 . S
C156 C160 1.383 . S
C156 C163 1.496 . S
C157 C158 1.399 . S
C157 C160 1.389 . S
C158 C157 1.399 . S
C158 C161 1.380 . S
C158 H168 0.929 . S
C159 C156 1.399 . S
C159 C161 1.392 . S
C159 H169 0.929 . S
C160 C156 1.383 . S
C160 C157 1.389 . S
C160 H170 0.939 . S
C161 C158 1.380 . S
C161 C159 1.392 . S
C161 H171 0.929 . S
C162 O142 1.266 . S
C162 O143 1.248 . S
C163 Tb99 2.802 . S
C163 O138 1.264 . S
C163 O141 1.256 . S
C163 C156 1.496 . S
H164 C147 0.929 . S
H165 C148 0.929 . S
H166 C149 0.929 . S
H167 C150 0.931 1_455 S
H168 C158 0.929 . S
H169 C159 0.929 . S
H170 C160 0.939 . S
H171 C161 0.929 . S
Tb172 N201 2.617 . S
Tb172 N207 2.572 . S
Tb172 O216 2.465 . S
Tb172 O217 2.387 . S
Tb172 O219 2.428 . S
Tb172 O220 2.308 . S
Tb172 O224 2.349 1_545 S
Tb172 O227 2.393 . S
Tb172 C236 2.802 . S
C173 N174 1.379 . S
C173 C176 1.416 . S
C173 C180 1.424 . S
N174 C173 1.379 . S
N174 C177 1.334 . S
N174 Tb183 2.617 . S
C175 C177 1.390 . S
C175 C178 1.339 . S
C175 H195 0.930 . S
C176 C173 1.416 . S
C176 C178 1.416 . S
C176 C182 1.448 . S
C177 N174 1.334 . S
C177 C175 1.390 . S
C177 H188 0.930 . S
C178 C175 1.339 . S
C178 C176 1.416 . S
C178 H199 0.930 . S
C179 C180 1.413 . S
C179 C181 1.427 . S
C179 C185 1.416 . S
C180 C173 1.424 . S
C180 C179 1.413 . S
C180 N184 1.361 . S
C181 C179 1.427 . S
C181 C182 1.328 . S
C181 H196 0.929 . S
C182 C176 1.448 . S
C182 C181 1.328 . S
C182 H197 0.930 . S
Tb183 N174 2.617 . S
Tb183 N184 2.572 . S
Tb183 O218 2.349 1_565 S
Tb183 O221 2.393 . S
Tb183 O222 2.474 . S
Tb183 O223 2.387 . S
Tb183 O225 2.428 . S
Tb183 O226 2.308 1_565 S
Tb183 C247 2.802 . S
N184 C180 1.361 . S
N184 Tb183 2.572 . S
N184 C186 1.340 . S
C185 C179 1.416 . S
C185 C187 1.332 . S
C185 H193 0.931 . S
C186 N184 1.340 . S
C186 C187 1.407 . S
C186 H192 0.930 . S
C187 C185 1.332 . S
C187 C186 1.407 . S
C187 H189 0.929 . S
H188 C177 0.930 . S
H189 C187 0.929 . S
H190 C205 0.930 . S
H191 C212 0.929 . S
H192 C186 0.930 . S
H193 C185 0.931 . S
H194 C208 0.930 . S
H195 C175 0.930 . S
H196 C181 0.929 . S
H197 C182 0.930 . S
H198 C203 0.930 . S
H199 C178 0.930 . S
H200 C211 0.931 . S
N201 Tb172 2.617 . S
N201 C202 1.379 . S
N201 C205 1.334 . S
C202 N201 1.379 . S
C202 C204 1.416 . S
C202 C210 1.424 . S
C203 H198 0.930 . S
C203 C205 1.390 . S
C203 C206 1.339 . S
C204 C202 1.416 . S
C204 C206 1.416 . S
C204 C237 1.448 . S
C205 H190 0.930 . S
C205 N201 1.334 . S
C205 C203 1.390 . S
C206 C203 1.339 . S
C206 C204 1.416 . S
C206 H213 0.930 . S
N207 Tb172 2.572 . S
N207 C208 1.340 . S
N207 C210 1.361 . S
C208 H194 0.930 . S
C208 N207 1.340 . S
C208 C212 1.407 . S
C209 C210 1.413 . S
C209 C211 1.416 . S
C209 C238 1.427 . S
C210 C202 1.424 . S
C210 N207 1.361 . S
C210 C209 1.413 . S
C211 H200 0.931 . S
C211 C209 1.416 . S
C211 C212 1.332 . S
C212 H191 0.929 . S
C212 C208 1.407 . S
C212 C211 1.332 . S
H213 C206 0.930 . S
H214 C237 0.930 . S
H215 C238 0.929 . S
O216 Tb172 2.465 . S
O216 C236 1.264 . S
O217 Tb172 2.387 . S
O217 C228 1.264 . S
O218 Tb183 2.349 1_545 S
O218 C228 1.243 . S
O219 Tb172 2.428 . S
O219 C236 1.256 . S
O220 Tb172 2.308 . S
O220 C235 1.266 . S
O221 Tb183 2.393 . S
O221 C235 1.248 1_565 S
O222 Tb183 2.474 . S
O222 C247 1.270 . S
O223 Tb183 2.387 . S
O223 C239 1.264 . S
O224 Tb172 2.349 1_565 S
O224 C239 1.243 . S
O225 Tb183 2.428 . S
O225 C247 1.256 . S
O226 Tb183 2.308 1_545 S
O226 C246 1.266 . S
O227 Tb172 2.393 . S
O227 C246 1.248 . S
C228 O217 1.264 . S
C228 O218 1.243 . S
C229 C232 1.399 . S
C229 C234 1.383 . S
C229 C236 1.496 . S
C230 C231 1.399 1_556 S
C230 C234 1.389 . S
C231 C230 1.399 1_554 S
C231 C233 1.380 . S
C231 H248 0.929 . S
C232 C229 1.399 . S
C232 C233 1.392 1_556 S
C232 H249 0.929 . S
C233 C231 1.380 . S
C233 C232 1.392 1_554 S
C233 H250 0.929 . S
C234 C229 1.383 . S
C234 C230 1.389 . S
C234 H251 0.931 . S
C235 O220 1.266 . S
C235 O221 1.248 1_545 S
C236 Tb172 2.802 . S
C236 O216 1.264 . S
C236 O219 1.256 . S
C236 C229 1.496 . S
C237 C204 1.448 . S
C237 H214 0.930 . S
C237 C238 1.328 . S
C238 C209 1.427 . S
C238 H215 0.929 . S
C238 C237 1.328 . S
C239 O223 1.264 . S
C239 O224 1.243 . S
C240 C243 1.399 . S
C240 C244 1.383 1_565 S
C240 C247 1.496 . S
C241 C242 1.411 . S
C241 C244 1.389 . S
C242 C241 1.411 . S
C242 C245 1.367 1_545 S
C242 H252 0.932 . S
C243 C240 1.399 . S
C243 C245 1.392 . S
C243 H253 0.929 . S
C244 C240 1.383 1_545 S
C244 C241 1.389 . S
C244 H254 0.931 . S
C245 C242 1.367 1_565 S
C245 C243 1.392 . S
C245 H255 0.929 . S
C246 O226 1.266 . S
C246 O227 1.248 . S
C247 Tb183 2.802 . S
C247 O222 1.270 . S
C247 O225 1.256 . S
C247 C240 1.496 . S
H248 C231 0.929 . S
H249 C232 0.929 . S
H250 C233 0.929 . S
H251 C234 0.931 . S
H252 C242 0.932 . S
H253 C243 0.929 . S
H254 C244 0.931 . S
H255 C245 0.929 . S
Tb256 N285 2.617 . S
Tb256 N291 2.572 . S
Tb256 O300 2.465 . S
Tb256 O301 2.387 . S
Tb256 O303 2.428 . S
Tb256 O304 2.308 . S
Tb256 O308 2.349 . S
Tb256 O311 2.393 . S
Tb256 C320 2.802 . S
C257 N258 1.379 . S
C257 C260 1.416 . S
C257 C264 1.424 . S
N258 C257 1.379 . S
N258 C261 1.334 . S
N258 Tb267 2.617 . S
C259 C261 1.390 . S
C259 C262 1.339 . S
C259 H279 0.930 . S
C260 C257 1.416 . S
C260 C262 1.416 . S
C260 C266 1.448 . S
C261 N258 1.334 . S
C261 C259 1.390 . S
C261 H272 0.930 . S
C262 C259 1.339 . S
C262 C260 1.416 . S
C262 H283 0.930 . S
C263 C264 1.413 . S
C263 C265 1.427 . S
C263 C269 1.416 1_556 S
C264 C257 1.424 . S
C264 C263 1.413 . S
C264 N268 1.361 . S
C265 C263 1.427 . S
C265 C266 1.328 . S
C265 H280 0.929 1_556 S
C266 C260 1.448 . S
C266 C265 1.328 . S
C266 H281 0.930 . S
Tb267 N258 2.617 . S
Tb267 N268 2.572 . S
Tb267 O302 2.349 . S
Tb267 O305 2.393 . S
Tb267 O306 2.465 . S
Tb267 O307 2.387 . S
Tb267 O309 2.428 . S
Tb267 O310 2.308 . S
Tb267 C331 2.802 . S
N268 C264 1.361 . S
N268 Tb267 2.572 . S
N268 C270 1.340 . S
C269 C263 1.416 1_554 S
C269 C271 1.332 1_554 S
C269 H277 0.931 . S
C270 N268 1.340 . S
C270 C271 1.407 . S
C270 H276 0.930 . S
C271 C269 1.332 1_556 S
C271 C270 1.407 . S
C271 H273 0.929 1_556 S
H272 C261 0.930 . S
H273 C271 0.929 1_554 S
H274 C289 0.930 . S
H275 C296 0.929 . S
H276 C270 0.930 . S
H277 C269 0.931 . S
H278 C292 0.930 . S
H279 C259 0.930 . S
H280 C265 0.929 1_554 S
H281 C266 0.930 . S
H282 C287 0.930 . S
H283 C262 0.930 . S
H284 C295 0.931 . S
N285 Tb256 2.617 . S
N285 C286 1.379 . S
N285 C289 1.334 . S
C286 N285 1.379 . S
C286 C288 1.416 . S
C286 C294 1.424 . S
C287 H282 0.930 . S
C287 C289 1.390 . S
C287 C290 1.339 . S
C288 C286 1.416 . S
C288 C290 1.416 . S
C288 C321 1.448 . S
C289 H274 0.930 . S
C289 N285 1.334 . S
C289 C287 1.390 . S
C290 C287 1.339 . S
C290 C288 1.416 . S
C290 H297 0.930 . S
N291 Tb256 2.572 . S
N291 C292 1.340 . S
N291 C294 1.361 . S
C292 H278 0.930 . S
C292 N291 1.340 . S
C292 C296 1.407 . S
C293 C294 1.413 . S
C293 C295 1.416 . S
C293 C322 1.427 . S
C294 C286 1.424 . S
C294 N291 1.361 . S
C294 C293 1.413 . S
C295 H284 0.931 . S
C295 C293 1.416 . S
C295 C296 1.332 . S
C296 H275 0.929 . S
C296 C292 1.407 . S
C296 C295 1.332 . S
H297 C290 0.930 . S
H298 C321 0.930 . S
H299 C322 0.929 . S
O300 Tb256 2.465 . S
O300 C320 1.264 . S
O301 Tb256 2.387 . S
O301 C312 1.264 . S
O302 Tb267 2.349 . S
O302 C312 1.243 . S
O303 Tb256 2.428 . S
O303 C320 1.256 . S
O304 Tb256 2.308 . S
O304 C319 1.266 . S
O305 Tb267 2.393 . S
O305 C319 1.248 . S
O306 Tb267 2.465 . S
O306 C331 1.264 . S
O307 Tb267 2.387 . S
O307 C323 1.264 . S
O308 Tb256 2.349 . S
O308 C323 1.243 . S
O309 Tb267 2.428 . S
O309 C331 1.256 . S
O310 Tb267 2.308 . S
O310 C330 1.266 . S
O311 Tb256 2.393 . S
O311 C330 1.248 . S
C312 O301 1.264 . S
C312 O302 1.243 . S
C313 C316 1.399 . S
C313 C318 1.383 . S
C313 C320 1.496 . S
C314 C315 1.399 . S
C314 C318 1.389 . S
C315 C314 1.399 . S
C315 C317 1.380 . S
C315 H332 0.929 . S
C316 C313 1.399 . S
C316 C317 1.392 . S
C316 H333 0.929 . S
C317 C315 1.380 . S
C317 C316 1.392 . S
C317 H334 0.929 . S
C318 C313 1.383 . S
C318 C314 1.389 . S
C318 H335 0.931 . S
C319 O304 1.266 . S
C319 O305 1.248 . S
C320 Tb256 2.802 . S
C320 O300 1.264 . S
C320 O303 1.256 . S
C320 C313 1.496 . S
C321 C288 1.448 . S
C321 H298 0.930 . S
C321 C322 1.328 . S
C322 C293 1.427 . S
C322 H299 0.929 . S
C322 C321 1.328 . S
C323 O307 1.264 . S
C323 O308 1.243 . S
C324 C327 1.399 . S
C324 C328 1.383 . S
C324 C331 1.496 . S
C325 C326 1.399 . S
C325 C328 1.389 . S
C326 C325 1.399 . S
C326 C329 1.380 . S
C326 H336 0.929 . S
C327 C324 1.399 . S
C327 C329 1.392 . S
C327 H337 0.929 . S
C328 C324 1.383 . S
C328 C325 1.389 . S
C328 H338 0.931 . S
C329 C326 1.380 . S
C329 C327 1.392 . S
C329 H339 0.929 . S
C330 O310 1.266 . S
C330 O311 1.248 . S
C331 Tb267 2.802 . S
C331 O306 1.264 . S
C331 O309 1.256 . S
C331 C324 1.496 . S
H332 C315 0.929 . S
H333 C316 0.929 . S
H334 C317 0.929 . S
H335 C318 0.931 . S
H336 C326 0.929 . S
H337 C327 0.929 . S
H338 C328 0.931 . S
H339 C329 0.929 . S
Tb340 N369 2.617 . S
Tb340 N375 2.572 . S
Tb340 O384 2.465 . S
Tb340 O385 2.387 1_455 S
Tb340 O387 2.428 . S
Tb340 O388 2.308 . S
Tb340 O392 2.349 . S
Tb340 O395 2.393 . S
Tb340 C404 2.802 . S
C341 N342 1.379 1_455 S
C341 C344 1.416 . S
C341 C348 1.424 . S
N342 C341 1.379 1_655 S
N342 C345 1.334 . S
N342 Tb351 2.617 . S
C343 C345 1.390 1_455 S
C343 C346 1.339 . S
C343 H363 0.930 . S
C344 C341 1.416 . S
C344 C346 1.416 . S
C344 C350 1.448 . S
C345 N342 1.334 . S
C345 C343 1.390 1_655 S
C345 H356 0.930 . S
C346 C343 1.339 . S
C346 C344 1.416 . S
C346 H367 0.930 . S
C347 C348 1.413 . S
C347 C349 1.427 . S
C347 C353 1.416 1_556 S
C348 C341 1.424 . S
C348 C347 1.413 . S
C348 N352 1.361 . S
C349 C347 1.427 . S
C349 C350 1.328 . S
C349 H364 0.929 1_556 S
C350 C344 1.448 . S
C350 C349 1.328 . S
C350 H365 0.930 . S
Tb351 N342 2.617 . S
Tb351 N352 2.572 1_655 S
Tb351 O386 2.349 . S
Tb351 O389 2.393 . S
Tb351 O390 2.465 . S
Tb351 O391 2.387 1_655 S
Tb351 O393 2.428 . S
Tb351 O394 2.300 1_655 S
Tb351 C415 2.802 . S
N352 C348 1.361 . S
N352 Tb351 2.572 1_455 S
N352 C354 1.340 . S
C353 C347 1.416 1_554 S
C353 C355 1.332 1_554 S
C353 H361 0.931 . S
C354 N352 1.340 . S
C354 C355 1.407 . S
C354 H360 0.936 . S
C355 C353 1.332 1_556 S
C355 C354 1.407 . S
C355 H357 0.929 1_556 S
H356 C345 0.930 . S
H357 C355 0.929 1_554 S
H358 C373 0.930 . S
H359 C380 0.929 . S
H360 C354 0.936 . S
H361 C353 0.931 . S
H362 C376 0.930 . S
H363 C343 0.930 . S
H364 C349 0.929 1_554 S
H365 C350 0.930 . S
H366 C371 0.930 . S
H367 C346 0.930 . S
H368 C379 0.931 . S
N369 Tb340 2.617 . S
N369 C370 1.379 . S
N369 C373 1.334 . S
C370 N369 1.379 . S
C370 C372 1.416 1_455 S
C370 C378 1.424 . S
C371 H366 0.930 . S
C371 C373 1.390 . S
C371 C374 1.339 1_455 S
C372 C370 1.416 1_655 S
C372 C374 1.416 . S
C372 C405 1.448 . S
C373 H358 0.930 . S
C373 N369 1.334 . S
C373 C371 1.390 . S
C374 C371 1.339 1_655 S
C374 C372 1.416 . S
C374 H381 0.930 . S
N375 Tb340 2.572 . S
N375 C376 1.340 . S
N375 C378 1.361 . S
C376 H362 0.930 . S
C376 N375 1.340 . S
C376 C380 1.407 1_455 S
C377 C378 1.413 1_655 S
C377 C379 1.416 . S
C377 C406 1.427 . S
C378 C370 1.424 . S
C378 N375 1.361 . S
C378 C377 1.413 1_455 S
C379 H368 0.931 . S
C379 C377 1.416 . S
C379 C380 1.332 . S
C380 H359 0.929 . S
C380 C376 1.407 1_655 S
C380 C379 1.332 . S
H381 C374 0.930 . S
H382 C405 0.930 . S
H383 C406 0.929 . S
O384 Tb340 2.465 . S
O384 C404 1.264 . S
O385 Tb340 2.387 1_655 S
O385 C396 1.264 . S
O386 Tb351 2.349 . S
O386 C396 1.243 . S
O387 Tb340 2.428 . S
O387 C404 1.256 . S
O388 Tb340 2.308 . S
O388 C403 1.266 . S
O389 Tb351 2.393 . S
O389 C403 1.248 1_655 S
O390 Tb351 2.465 . S
O390 C415 1.264 . S
O391 Tb351 2.387 1_455 S
O391 C407 1.264 . S
O392 Tb340 2.349 . S
O392 C407 1.243 . S
O393 Tb351 2.428 . S
O393 C415 1.256 . S
O394 Tb351 2.300 1_455 S
O394 C414 1.273 . S
O395 Tb340 2.393 . S
O395 C414 1.248 . S
C396 O385 1.264 . S
C396 O386 1.243 . S
C397 C400 1.399 . S
C397 C402 1.383 . S
C397 C404 1.496 . S
C398 C399 1.399 . S
C398 C402 1.389 . S
C399 C398 1.399 . S
C399 C401 1.380 . S
C399 H416 0.929 . S
C400 C397 1.399 . S
C400 C401 1.392 . S
C400 H417 0.929 . S
C401 C399 1.380 . S
C401 C400 1.392 . S
C401 H418 0.929 . S
C402 C397 1.383 . S
C402 C398 1.389 . S
C402 H419 0.931 . S
C403 O388 1.266 . S
C403 O389 1.248 1_455 S
C404 Tb340 2.802 . S
C404 O384 1.264 . S
C404 O387 1.256 . S
C404 C397 1.496 . S
C405 C372 1.448 . S
C405 H382 0.930 . S
C405 C406 1.328 . S
C406 C377 1.427 . S
C406 H383 0.929 . S
C406 C405 1.328 . S
C407 O391 1.264 . S
C407 O392 1.243 . S
C408 C411 1.399 . S
C408 C412 1.383 . S
C408 C415 1.496 . S
C409 C410 1.399 . S
C409 C412 1.389 . S
C410 C409 1.399 . S
C410 C413 1.380 . S
C410 H420 0.929 . S
C411 C408 1.399 . S
C411 C413 1.392 . S
C411 H421 0.929 . S
C412 C408 1.383 . S
C412 C409 1.389 . S
C412 H422 0.931 . S
C413 C410 1.380 . S
C413 C411 1.392 . S
C413 H423 0.929 . S
C414 O394 1.273 . S
C414 O395 1.248 . S
C415 Tb351 2.802 . S
C415 O390 1.264 . S
C415 O393 1.256 . S
C415 C408 1.496 . S
H416 C399 0.929 . S
H417 C400 0.929 . S
H418 C401 0.929 . S
H419 C402 0.931 . S
H420 C410 0.929 . S
H421 C411 0.929 . S
H422 C412 0.931 . S
H423 C413 0.929 . S
H424 C436 0.930 . S
H425 C438 0.930 . S
H426 C439 0.930 1_565 S
H427 C443 0.959 . S
H428 C443 0.959 . S
H429 C443 0.961 . S
H430 C444 0.960 . S
H431 C444 0.961 . S
H432 C444 0.959 . S
H433 C447 0.929 . S
H434 C448 0.931 . S
H435 C450 0.930 . S
C436 H424 0.930 . S
C436 C437 1.399 . S
C436 C441 1.399 . S
C437 C436 1.399 . S
C437 C438 1.376 . S
C438 H425 0.930 . S
C438 C437 1.376 . S
C438 C439 1.388 . S
C439 H426 0.930 1_545 S
C439 C438 1.388 . S
C439 C440 1.390 . S
C440 C439 1.390 . S
C440 C441 1.394 . S
C440 C446 1.465 . S
C441 C436 1.399 . S
C441 C440 1.394 . S
C441 C442 1.516 . S
C442 C441 1.516 . S
C442 C443 1.502 . S
C442 C444 1.561 . S
C442 C445 1.526 . S
C443 H427 0.959 . S
C443 H428 0.959 . S
C443 H429 0.961 . S
C443 C442 1.502 . S
C444 H430 0.960 . S
C444 H431 0.961 . S
C444 H432 0.959 . S
C444 C442 1.561 . S
C445 C442 1.526 . S
C445 C446 1.396 . S
C445 C450 1.390 . S
C446 C440 1.465 . S
C446 C445 1.396 . S
C446 C447 1.399 1_545 S
C447 H433 0.929 . S
C447 C446 1.399 1_565 S
C447 C448 1.385 . S
C448 H434 0.931 . S
C448 C447 1.385 . S
C448 C449 1.389 1_565 S
C449 C448 1.389 1_545 S
C449 C450 1.387 . S
C450 H435 0.930 . S
C450 C445 1.390 . S
C450 C449 1.387 . S
H451 C463 0.930 . S
H452 C465 0.930 . S
H453 C466 0.930 . S
H454 C470 0.959 . S
H455 C470 0.959 . S
H456 C470 0.961 . S
H457 C471 0.960 . S
H458 C471 0.961 . S
H459 C471 0.959 . S
H460 C474 0.929 . S
H461 C475 0.931 . S
H462 C477 0.930 . S
C463 H451 0.930 . S
C463 C464 1.399 . S
C463 C468 1.399 . S
C464 C463 1.399 . S
C464 C465 1.376 . S
C465 H452 0.930 . S
C465 C464 1.376 . S
C465 C466 1.388 . S
C466 H453 0.930 . S
C466 C465 1.388 . S
C466 C467 1.390 . S
C467 C466 1.390 . S
C467 C468 1.394 . S
C467 C473 1.465 . S
C468 C463 1.399 . S
C468 C467 1.394 . S
C468 C469 1.516 . S
C469 C468 1.516 . S
C469 C470 1.502 . S
C469 C471 1.561 . S
C469 C472 1.526 . S
C470 H454 0.959 . S
C470 H455 0.959 . S
C470 H456 0.961 . S
C470 C469 1.502 . S
C471 H457 0.960 . S
C471 H458 0.961 . S
C471 H459 0.959 . S
C471 C469 1.561 . S
C472 C469 1.526 . S
C472 C473 1.396 . S
C472 C477 1.390 . S
C473 C467 1.465 . S
C473 C472 1.396 . S
C473 C474 1.399 . S
C474 H460 0.929 . S
C474 C473 1.399 . S
C474 C475 1.385 . S
C475 H461 0.931 . S
C475 C474 1.385 . S
C475 C476 1.389 . S
C476 C475 1.389 . S
C476 C477 1.387 . S
C477 H462 0.930 . S
C477 C472 1.390 . S
C477 C476 1.387 . S
H478 C490 0.930 . S
H479 C492 0.930 . S
H480 C493 0.930 . S
H481 C497 0.959 . S
H482 C497 0.959 . S
H483 C497 0.961 . S
H484 C498 0.960 . S
H485 C498 0.961 . S
H486 C498 0.959 . S
H487 C501 0.929 . S
H488 C502 0.931 . S
H489 C504 0.930 . S
C490 H478 0.930 . S
C490 C491 1.399 . S
C490 C495 1.399 . S
C491 C490 1.399 . S
C491 C492 1.376 . S
C492 H479 0.930 . S
C492 C491 1.376 . S
C492 C493 1.388 . S
C493 H480 0.930 . S
C493 C492 1.388 . S
C493 C494 1.390 . S
C494 C493 1.390 . S
C494 C495 1.394 . S
C494 C500 1.465 . S
C495 C490 1.399 . S
C495 C494 1.394 . S
C495 C496 1.516 . S
C496 C495 1.516 . S
C496 C497 1.502 . S
C496 C498 1.561 . S
C496 C499 1.526 . S
C497 H481 0.959 . S
C497 H482 0.959 . S
C497 H483 0.961 . S
C497 C496 1.502 . S
C498 H484 0.960 . S
C498 H485 0.961 . S
C498 H486 0.959 . S
C498 C496 1.561 . S
C499 C496 1.526 . S
C499 C500 1.396 . S
C499 C504 1.390 . S
C500 C494 1.465 . S
C500 C499 1.396 . S
C500 C501 1.399 . S
C501 H487 0.929 . S
C501 C500 1.399 . S
C501 C502 1.385 . S
C502 H488 0.931 . S
C502 C501 1.385 . S
C502 C503 1.389 . S
C503 C502 1.389 . S
C503 C504 1.387 . S
C504 H489 0.930 . S
C504 C499 1.390 . S
C504 C503 1.387 . S
H505 C517 0.930 . S
H506 C519 0.930 . S
H507 C520 0.930 . S
H508 C524 0.959 1_655 S
H509 C524 0.959 . S
H510 C524 0.961 . S
H511 C525 0.960 . S
H512 C525 0.961 . S
H513 C525 0.959 . S
H514 C528 0.929 . S
H515 C529 0.931 . S
H516 C531 0.930 . S
C517 H505 0.930 . S
C517 C518 1.399 . S
C517 C522 1.399 . S
C518 C517 1.399 . S
C518 C519 1.376 . S
C519 H506 0.930 . S
C519 C518 1.376 . S
C519 C520 1.388 . S
C520 H507 0.930 . S
C520 C519 1.388 . S
C520 C521 1.390 . S
C521 C520 1.390 . S
C521 C522 1.394 . S
C521 C527 1.465 . S
C522 C517 1.399 . S
C522 C521 1.394 . S
C522 C523 1.516 . S
C523 C522 1.516 . S
C523 C524 1.502 . S
C523 C525 1.561 . S
C523 C526 1.526 . S
C524 H508 0.959 1_455 S
C524 H509 0.959 . S
C524 H510 0.961 . S
C524 C523 1.502 . S
C525 H511 0.960 . S
C525 H512 0.961 . S
C525 H513 0.959 . S
C525 C523 1.561 . S
C526 C523 1.526 . S
C526 C527 1.396 . S
C526 C531 1.390 . S
C527 C521 1.465 . S
C527 C526 1.396 . S
C527 C528 1.399 . S
C528 H514 0.929 . S
C528 C527 1.399 . S
C528 C529 1.385 . S
C529 H515 0.931 . S
C529 C528 1.385 . S
C529 C530 1.389 . S
C530 C529 1.389 . S
C530 C531 1.387 . S
C531 H516 0.930 . S
C531 C526 1.390 . S
C531 C530 1.387 . S
H532 C544 0.930 . S
H533 C546 0.930 . S
H534 C547 0.930 1_556 S
H535 C551 0.959 . S
H536 C551 0.959 1_556 S
H537 C551 0.961 . S
H538 C552 0.960 . S
H539 C552 0.961 . S
H540 C552 0.959 . S
H541 C555 0.929 . S
H542 C556 0.931 . S
H543 C558 0.930 . S
C544 H532 0.930 . S
C544 C545 1.399 . S
C544 C549 1.399 . S
C545 C544 1.399 . S
C545 C546 1.376 1_565 S
C546 H533 0.930 . S
C546 C545 1.376 1_545 S
C546 C547 1.388 . S
C547 H534 0.930 1_554 S
C547 C546 1.388 . S
C547 C548 1.390 1_544 S
C548 C547 1.390 1_566 S
C548 C549 1.394 1_556 S
C548 C554 1.465 1_565 S
C549 C544 1.399 . S
C549 C548 1.394 1_554 S
C549 C550 1.516 1_554 S
C550 C549 1.516 1_556 S
C550 C551 1.502 1_556 S
C550 C552 1.561 . S
C550 C553 1.526 . S
C551 H535 0.959 . S
C551 H536 0.959 1_554 S
C551 H537 0.961 . S
C551 C550 1.502 1_554 S
C552 H538 0.960 . S
C552 H539 0.961 . S
C552 H540 0.959 . S
C552 C550 1.561 . S
C553 C550 1.526 . S
C553 C554 1.396 1_565 S
C553 C558 1.390 . S
C554 C548 1.465 1_545 S
C554 C553 1.396 1_545 S
C554 C555 1.399 . S
C555 H541 0.929 . S
C555 C554 1.399 . S
C555 C556 1.385 . S
C556 H542 0.931 . S
C556 C555 1.385 . S
C556 C557 1.389 . S
C557 C556 1.389 . S
C557 C558 1.387 1_545 S
C558 H543 0.930 . S
C558 C553 1.390 . S
C558 C557 1.387 1_565 S
H559 C571 0.930 . S
H560 C573 0.930 . S
H561 C574 0.930 . S
H562 C578 0.959 . S
H563 C578 0.959 . S
H564 C578 0.961 . S
H565 C579 0.960 . S
H566 C579 0.961 . S
H567 C579 0.959 . S
H568 C582 0.929 . S
H569 C583 0.931 . S
H570 C585 0.930 . S
C571 H559 0.930 . S
C571 C572 1.399 . S
C571 C576 1.399 1_554 S
C572 C571 1.399 . S
C572 C573 1.376 . S
C573 H560 0.930 . S
C573 C572 1.376 . S
C573 C574 1.388 . S
C574 H561 0.930 . S
C574 C573 1.388 . S
C574 C575 1.390 . S
C575 C574 1.390 . S
C575 C576 1.394 1_554 S
C575 C581 1.465 1_554 S
C576 C571 1.399 1_556 S
C576 C575 1.394 1_556 S
C576 C577 1.516 . S
C577 C576 1.516 . S
C577 C578 1.502 . S
C577 C579 1.561 . S
C577 C580 1.526 . S
C578 H562 0.959 . S
C578 H563 0.959 . S
C578 H564 0.961 . S
C578 C577 1.502 . S
C579 H565 0.960 . S
C579 H566 0.961 . S
C579 H567 0.959 . S
C579 C577 1.561 . S
C580 C577 1.526 . S
C580 C581 1.396 . S
C580 C585 1.390 . S
C581 C575 1.465 1_556 S
C581 C580 1.396 . S
C581 C582 1.399 . S
C582 H568 0.929 . S
C582 C581 1.399 . S
C582 C583 1.385 . S
C583 H569 0.931 . S
C583 C582 1.385 . S
C583 C584 1.389 . S
C584 C583 1.389 . S
C584 C585 1.387 . S
C585 H570 0.930 . S
C585 C580 1.390 . S
C585 C584 1.387 . S
H586 C598 0.930 . S
H587 C600 0.930 . S
H588 C601 0.930 1_556 S
H589 C605 0.959 . S
H590 C605 0.959 1_556 S
H591 C605 0.961 . S
H592 C606 0.960 . S
H593 C606 0.961 . S
H594 C606 0.959 . S
H595 C609 0.929 . S
H596 C610 0.931 . S
H597 C612 0.930 . S
C598 H586 0.930 . S
C598 C599 1.399 . S
C598 C603 1.399 . S
C599 C598 1.399 . S
C599 C600 1.376 . S
C600 H587 0.930 . S
C600 C599 1.376 . S
C600 C601 1.388 . S
C601 H588 0.930 1_554 S
C601 C600 1.388 . S
C601 C602 1.390 1_554 S
C602 C601 1.390 1_556 S
C602 C603 1.394 1_556 S
C602 C608 1.465 . S
C603 C598 1.399 . S
C603 C602 1.394 1_554 S
C603 C604 1.516 1_554 S
C604 C603 1.516 1_556 S
C604 C605 1.502 1_556 S
C604 C606 1.561 . S
C604 C607 1.526 . S
C605 H589 0.959 . S
C605 H590 0.959 1_554 S
C605 H591 0.961 . S
C605 C604 1.502 1_554 S
C606 H592 0.960 . S
C606 H593 0.961 . S
C606 H594 0.959 . S
C606 C604 1.561 . S
C607 C604 1.526 . S
C607 C608 1.396 . S
C607 C612 1.390 . S
C608 C602 1.465 . S
C608 C607 1.396 . S
C608 C609 1.399 . S
C609 H595 0.929 . S
C609 C608 1.399 . S
C609 C610 1.385 . S
C610 H596 0.931 . S
C610 C609 1.385 . S
C610 C611 1.389 . S
C611 C610 1.389 . S
C611 C612 1.387 . S
C612 H597 0.930 . S
C612 C607 1.390 . S
C612 C611 1.387 . S
H613 C625 0.930 . S
H614 C627 0.930 . S
H615 C628 0.936 . S
H616 C632 0.959 . S
H617 C632 0.959 . S
H618 C632 0.961 . S
H619 C633 0.967 . S
H620 C633 0.961 . S
H621 C633 0.959 . S
H622 C636 0.929 . S
H623 C637 0.931 . S
H624 C639 0.930 . S
C625 H613 0.930 . S
C625 C626 1.399 . S
C625 C630 1.399 1_554 S
C626 C625 1.399 . S
C626 C627 1.376 . S
C627 H614 0.930 . S
C627 C626 1.376 . S
C627 C628 1.388 . S
C628 H615 0.936 . S
C628 C627 1.388 . S
C628 C629 1.390 . S
C629 C628 1.390 . S
C629 C630 1.394 1_554 S
C629 C635 1.465 1_554 S
C630 C625 1.399 1_556 S
C630 C629 1.394 1_556 S
C630 C631 1.516 . S
C631 C630 1.516 . S
C631 C632 1.502 . S
C631 C633 1.561 1_655 S
C631 C634 1.526 . S
C632 H616 0.959 . S
C632 H617 0.959 . S
C632 H618 0.961 . S
C632 C631 1.502 . S
C633 H619 0.967 . S
C633 H620 0.961 . S
C633 H621 0.959 . S
C633 C631 1.561 1_455 S
C634 C631 1.526 . S
C634 C635 1.396 . S
C634 C639 1.390 . S
C635 C629 1.465 1_556 S
C635 C634 1.396 . S
C635 C636 1.399 1_655 S
C636 H622 0.929 . S
C636 C635 1.399 1_455 S
C636 C637 1.385 . S
C637 H623 0.931 . S
C637 C636 1.385 . S
C637 C638 1.389 1_455 S
C638 C637 1.389 1_655 S
C638 C639 1.387 . S
C639 H624 0.930 . S
C639 C634 1.390 . S
C639 C638 1.387 . S
H640 C652 0.930 . S
H641 C654 0.930 . S
H642 C655 0.930 . S
H643 C659 0.959 . S
H644 C659 0.959 . S
H645 C659 0.961 . S
H646 C660 0.960 . S
H647 C660 0.961 . S
H648 C660 0.959 . S
H649 C663 0.929 . S
H650 C664 0.931 . S
H651 C666 0.930 1_655 S
C652 H640 0.930 . S
C652 C653 1.399 . S
C652 C657 1.399 . S
C653 C652 1.399 . S
C653 C654 1.376 . S
C654 H641 0.930 . S
C654 C653 1.376 . S
C654 C655 1.388 . S
C655 H642 0.930 . S
C655 C654 1.388 . S
C655 C656 1.390 . S
C656 C655 1.390 . S
C656 C657 1.394 . S
C656 C662 1.465 . S
C657 C652 1.399 . S
C657 C656 1.394 . S
C657 C658 1.516 . S
C658 C657 1.516 . S
C658 C659 1.502 1_455 S
C658 C660 1.561 . S
C658 C661 1.526 . S
C659 H643 0.959 . S
C659 H644 0.959 . S
C659 H645 0.961 . S
C659 C658 1.502 1_655 S
C660 H646 0.960 . S
C660 H647 0.961 . S
C660 H648 0.959 . S
C660 C658 1.561 . S
C661 C658 1.526 . S
C661 C662 1.396 . S
C661 C666 1.390 . S
C662 C656 1.465 . S
C662 C661 1.396 . S
C662 C663 1.399 . S
C663 H649 0.929 . S
C663 C662 1.399 . S
C663 C664 1.385 . S
C664 H650 0.931 . S
C664 C663 1.385 . S
C664 C665 1.389 . S
C665 C664 1.389 . S
C665 C666 1.387 . S
C666 H651 0.930 1_455 S
C666 C661 1.390 . S
C666 C665 1.387 . S
H667 C679 0.930 . S
H668 C681 0.930 . S
H669 C682 0.930 1_565 S
H670 C686 0.959 . S
H671 C686 0.959 . S
H672 C686 0.961 . S
H673 C687 0.960 . S
H674 C687 0.961 . S
H675 C687 0.959 . S
H676 C690 0.929 . S
H677 C691 0.931 . S
H678 C693 0.930 . S
C679 H667 0.930 . S
C679 C680 1.399 . S
C679 C684 1.399 . S
C680 C679 1.399 . S
C680 C681 1.376 . S
C681 H668 0.930 . S
C681 C680 1.376 . S
C681 C682 1.388 . S
C682 H669 0.930 1_545 S
C682 C681 1.388 . S
C682 C683 1.390 . S
C683 C682 1.390 . S
C683 C684 1.394 . S
C683 C689 1.465 . S
C684 C679 1.399 . S
C684 C683 1.394 . S
C684 C685 1.516 . S
C685 C684 1.516 . S
C685 C686 1.502 . S
C685 C687 1.561 . S
C685 C688 1.526 . S
C686 H670 0.959 . S
C686 H671 0.959 . S
C686 H672 0.961 . S
C686 C685 1.502 . S
C687 H673 0.960 . S
C687 H674 0.961 . S
C687 H675 0.959 . S
C687 C685 1.561 . S
C688 C685 1.526 . S
C688 C689 1.396 . S
C688 C693 1.390 . S
C689 C683 1.465 . S
C689 C688 1.396 . S
C689 C690 1.399 1_545 S
C690 H676 0.929 . S
C690 C689 1.399 1_565 S
C690 C691 1.385 . S
C691 H677 0.931 . S
C691 C690 1.385 . S
C691 C692 1.389 1_565 S
C692 C691 1.389 1_545 S
C692 C693 1.387 . S
C693 H678 0.930 . S
C693 C688 1.390 . S
C693 C692 1.387 . S
H694 C706 0.930 . S
H695 C708 0.930 . S
H696 C709 0.930 . S
H697 C713 0.959 . S
H698 C713 0.959 . S
H699 C713 0.961 . S
H700 C714 0.960 . S
H701 C714 0.961 . S
H702 C714 0.959 . S
H703 C717 0.929 . S
H704 C718 0.931 . S
H705 C720 0.930 . S
C706 H694 0.930 . S
C706 C707 1.399 . S
C706 C711 1.399 . S
C707 C706 1.399 . S
C707 C708 1.376 . S
C708 H695 0.930 . S
C708 C707 1.376 . S
C708 C709 1.388 . S
C709 H696 0.930 . S
C709 C708 1.388 . S
C709 C710 1.390 . S
C710 C709 1.390 . S
C710 C711 1.394 . S
C710 C716 1.465 . S
C711 C706 1.399 . S
C711 C710 1.394 . S
C711 C712 1.516 . S
C712 C711 1.516 . S
C712 C713 1.502 . S
C712 C714 1.561 . S
C712 C715 1.526 . S
C713 H697 0.959 . S
C713 H698 0.959 . S
C713 H699 0.961 . S
C713 C712 1.502 . S
C714 H700 0.960 . S
C714 H701 0.961 . S
C714 H702 0.959 . S
C714 C712 1.561 . S
C715 C712 1.526 . S
C715 C716 1.396 . S
C715 C720 1.390 . S
C716 C710 1.465 . S
C716 C715 1.396 . S
C716 C717 1.399 . S
C717 H703 0.929 . S
C717 C716 1.399 . S
C717 C718 1.385 . S
C718 H704 0.931 . S
C718 C717 1.385 . S
C718 C719 1.389 . S
C719 C718 1.389 . S
C719 C720 1.387 . S
C720 H705 0.930 . S
C720 C715 1.390 . S
C720 C719 1.387 . S
H721 C733 0.930 . S
H722 C735 0.930 . S
H723 C736 0.930 . S
H724 C740 0.959 . S
H725 C740 0.959 . S
H726 C740 0.961 . S
H727 C741 0.960 . S
H728 C741 0.961 . S
H729 C741 0.959 . S
H730 C744 0.929 . S
H731 C745 0.931 . S
H732 C747 0.930 . S
C733 H721 0.930 . S
C733 C734 1.399 . S
C733 C738 1.399 . S
C734 C733 1.399 . S
C734 C735 1.376 . S
C735 H722 0.930 . S
C735 C734 1.376 . S
C735 C736 1.388 . S
C736 H723 0.930 . S
C736 C735 1.388 . S
C736 C737 1.390 . S
C737 C736 1.390 . S
C737 C738 1.394 . S
C737 C743 1.465 . S
C738 C733 1.399 . S
C738 C737 1.394 . S
C738 C739 1.516 . S
C739 C738 1.516 . S
C739 C740 1.502 . S
C739 C741 1.561 . S
C739 C742 1.526 . S
C740 H724 0.959 . S
C740 H725 0.959 . S
C740 H726 0.961 . S
C740 C739 1.502 . S
C741 H727 0.960 . S
C741 H728 0.961 . S
C741 H729 0.959 . S
C741 C739 1.561 . S
C742 C739 1.526 . S
C742 C743 1.396 . S
C742 C747 1.390 . S
C743 C737 1.465 . S
C743 C742 1.396 . S
C743 C744 1.399 . S
C744 H730 0.929 . S
C744 C743 1.399 . S
C744 C745 1.385 . S
C745 H731 0.931 . S
C745 C744 1.385 . S
C745 C746 1.389 . S
C746 C745 1.389 . S
C746 C747 1.387 . S
C747 H732 0.930 . S
C747 C742 1.390 . S
C747 C746 1.387 . S
H748 C760 0.930 . S
H749 C762 0.930 . S
H750 C763 0.930 . S
H751 C767 0.959 . S
H752 C767 0.959 . S
H753 C767 0.961 . S
H754 C768 0.960 . S
H755 C768 0.961 . S
H756 C768 0.959 . S
H757 C771 0.929 . S
H758 C772 0.931 . S
H759 C774 0.930 . S
C760 H748 0.930 . S
C760 C761 1.399 . S
C760 C765 1.399 . S
C761 C760 1.399 . S
C761 C762 1.376 . S
C762 H749 0.930 . S
C762 C761 1.376 . S
C762 C763 1.388 . S
C763 H750 0.930 . S
C763 C762 1.388 . S
C763 C764 1.390 . S
C764 C763 1.390 . S
C764 C765 1.394 . S
C764 C770 1.465 . S
C765 C760 1.399 . S
C765 C764 1.394 . S
C765 C766 1.516 1_554 S
C766 C765 1.516 1_556 S
C766 C767 1.502 1_655 S
C766 C768 1.561 . S
C766 C769 1.526 . S
C767 H751 0.959 . S
C767 H752 0.959 . S
C767 H753 0.961 . S
C767 C766 1.502 1_455 S
C768 H754 0.960 . S
C768 H755 0.961 . S
C768 H756 0.959 . S
C768 C766 1.561 . S
C769 C766 1.526 . S
C769 C770 1.396 1_556 S
C769 C774 1.390 1_655 S
C770 C764 1.465 . S
C770 C769 1.396 1_554 S
C770 C771 1.399 . S
C771 H757 0.929 . S
C771 C770 1.399 . S
C771 C772 1.385 1_655 S
C772 H758 0.931 . S
C772 C771 1.385 1_455 S
C772 C773 1.389 1_554 S
C773 C772 1.389 1_556 S
C773 C774 1.387 . S
C774 H759 0.930 . S
C774 C769 1.390 1_455 S
C774 C773 1.387 . S
H775 C787 0.930 1_545 S
H776 C789 0.930 . S
H777 C790 0.930 . S
H778 C794 0.959 . S
H779 C794 0.959 . S
H780 C794 0.961 . S
H781 C795 0.960 1_554 S
H782 C795 0.961 . S
H783 C795 0.959 . S
H784 C798 0.929 . S
H785 C799 0.931 . S
H786 C801 0.930 . S
C787 H775 0.930 1_565 S
C787 C788 1.399 . S
C787 C792 1.399 . S
C788 C787 1.399 . S
C788 C789 1.376 . S
C789 H776 0.930 . S
C789 C788 1.376 . S
C789 C790 1.388 . S
C790 H777 0.930 . S
C790 C789 1.388 . S
C790 C791 1.390 . S
C791 C790 1.390 . S
C791 C792 1.393 . S
C791 C797 1.465 . S
C792 C787 1.399 . S
C792 C791 1.393 . S
C792 C793 1.516 1_565 S
C793 C792 1.516 1_545 S
C793 C794 1.502 . S
C793 C795 1.561 1_554 S
C793 C796 1.526 . S
C794 H778 0.959 . S
C794 H779 0.959 . S
C794 H780 0.961 . S
C794 C793 1.502 . S
C795 H781 0.960 1_556 S
C795 H782 0.961 . S
C795 H783 0.959 . S
C795 C793 1.561 1_556 S
C796 C793 1.526 . S
C796 C797 1.396 1_545 S
C796 C801 1.390 1_554 S
C797 C791 1.465 . S
C797 C796 1.396 1_565 S
C797 C798 1.399 1_554 S
C798 H784 0.929 . S
C798 C797 1.399 1_556 S
C798 C799 1.385 . S
C799 H785 0.931 . S
C799 C798 1.385 . S
C799 C800 1.389 1_565 S
C800 C799 1.389 1_545 S
C800 C801 1.387 . S
C801 H786 0.930 . S
C801 C796 1.390 1_556 S
C801 C800 1.387 . S
H802 C814 0.930 . S
H803 C816 0.930 . S
H804 C817 0.930 . S
H805 C821 0.959 . S
H806 C821 0.959 . S
H807 C821 0.961 . S
H808 C822 0.960 . S
H809 C822 0.961 . S
H810 C822 0.959 . S
H811 C825 0.929 . S
H812 C826 0.931 . S
H813 C828 0.930 1_554 S
C814 H802 0.930 . S
C814 C815 1.399 . S
C814 C819 1.399 . S
C815 C814 1.399 . S
C815 C816 1.376 . S
C816 H803 0.930 . S
C816 C815 1.376 . S
C816 C817 1.388 . S
C817 H804 0.930 . S
C817 C816 1.388 . S
C817 C818 1.390 . S
C818 C817 1.390 . S
C818 C819 1.394 . S
C818 C824 1.465 . S
C819 C814 1.399 . S
C819 C818 1.394 . S
C819 C820 1.516 . S
C820 C819 1.516 . S
C820 C821 1.502 . S
C820 C822 1.561 . S
C820 C823 1.526 . S
C821 H805 0.959 . S
C821 H806 0.959 . S
C821 H807 0.961 . S
C821 C820 1.502 . S
C822 H808 0.960 . S
C822 H809 0.961 . S
C822 H810 0.959 . S
C822 C820 1.561 . S
C823 C820 1.526 . S
C823 C824 1.396 . S
C823 C828 1.390 1_554 S
C824 C818 1.465 . S
C824 C823 1.396 . S
C824 C825 1.399 1_554 S
C825 H811 0.929 . S
C825 C824 1.399 1_556 S
C825 C826 1.385 . S
C826 H812 0.931 . S
C826 C825 1.385 . S
C826 C827 1.389 . S
C827 C826 1.389 . S
C827 C828 1.387 . S
C828 H813 0.930 1_556 S
C828 C823 1.390 1_556 S
C828 C827 1.387 . S
H829 C841 0.930 . S
H830 C843 0.930 . S
H831 C844 0.930 . S
H832 C848 0.959 . S
H833 C848 0.959 . S
H834 C848 0.961 . S
H835 C849 0.960 . S
H836 C849 0.961 . S
H837 C849 0.959 . S
H838 C852 0.929 . S
H839 C853 0.931 . S
H840 C855 0.930 . S
C841 H829 0.930 . S
C841 C842 1.399 . S
C841 C846 1.399 . S
C842 C841 1.399 . S
C842 C843 1.376 . S
C843 H830 0.930 . S
C843 C842 1.376 . S
C843 C844 1.388 . S
C844 H831 0.930 . S
C844 C843 1.388 . S
C844 C845 1.390 . S
C845 C844 1.390 . S
C845 C846 1.394 . S
C845 C851 1.465 . S
C846 C841 1.399 . S
C846 C845 1.394 . S
C846 C847 1.516 . S
C847 C846 1.516 . S
C847 C848 1.502 1_554 S
C847 C849 1.561 . S
C847 C850 1.526 1_554 S
C848 H832 0.959 . S
C848 H833 0.959 . S
C848 H834 0.961 . S
C848 C847 1.502 1_556 S
C849 H835 0.960 . S
C849 H836 0.961 . S
C849 H837 0.959 . S
C849 C847 1.561 . S
C850 C847 1.526 1_556 S
C850 C851 1.396 1_556 S
C850 C855 1.390 . S
C851 C845 1.465 . S
C851 C850 1.396 1_554 S
C851 C852 1.399 . S
C852 H838 0.929 . S
C852 C851 1.399 . S
C852 C853 1.385 1_554 S
C853 H839 0.931 . S
C853 C852 1.385 1_556 S
C853 C854 1.389 . S
C854 C853 1.389 . S
C854 C855 1.387 . S
C855 H840 0.930 . S
C855 C850 1.390 . S
C855 C854 1.387 . S
H856 C868 0.930 . S
H857 C870 0.930 . S
H858 C871 0.930 . S
H859 C875 0.959 . S
H860 C875 0.959 . S
H861 C875 0.961 . S
H862 C876 0.960 . S
H863 C876 0.961 . S
H864 C876 0.959 1_655 S
H865 C879 0.929 . S
H866 C880 0.931 . S
H867 C882 0.930 . S
C868 H856 0.930 . S
C868 C869 1.399 . S
C868 C873 1.399 . S
C869 C868 1.399 . S
C869 C870 1.376 . S
C870 H857 0.930 . S
C870 C869 1.376 . S
C870 C871 1.388 . S
C871 H858 0.930 . S
C871 C870 1.388 . S
C871 C872 1.390 . S
C872 C871 1.390 . S
C872 C873 1.394 . S
C872 C878 1.465 . S
C873 C868 1.399 . S
C873 C872 1.394 . S
C873 C874 1.516 . S
C874 C873 1.516 . S
C874 C875 1.502 . S
C874 C876 1.561 . S
C874 C877 1.526 . S
C875 H859 0.959 . S
C875 H860 0.959 . S
C875 H861 0.961 . S
C875 C874 1.502 . S
C876 H862 0.960 . S
C876 H863 0.961 . S
C876 H864 0.959 1_455 S
C876 C874 1.561 . S
C877 C874 1.526 . S
C877 C878 1.396 . S
C877 C882 1.390 . S
C878 C872 1.465 . S
C878 C877 1.396 . S
C878 C879 1.399 . S
C879 H865 0.929 . S
C879 C878 1.399 . S
C879 C880 1.385 . S
C880 H866 0.931 . S
C880 C879 1.385 . S
C880 C881 1.389 . S
C881 C880 1.389 . S
C881 C882 1.387 . S
C882 H867 0.930 . S
C882 C877 1.390 . S
C882 C881 1.387 . S
H883 C895 0.930 . S
H884 C897 0.930 . S
H885 C898 0.930 . S
H886 C902 0.959 . S
H887 C902 0.959 . S
H888 C902 0.961 . S
H889 C903 0.960 . S
H890 C903 0.961 . S
H891 C903 0.959 . S
H892 C906 0.929 . S
H893 C907 0.931 . S
H894 C909 0.930 . S
C895 H883 0.930 . S
C895 C896 1.399 . S
C895 C900 1.399 . S
C896 C895 1.399 . S
C896 C897 1.376 . S
C897 H884 0.930 . S
C897 C896 1.376 . S
C897 C898 1.388 . S
C898 H885 0.930 . S
C898 C897 1.388 . S
C898 C899 1.390 . S
C899 C898 1.390 . S
C899 C900 1.394 . S
C899 C905 1.465 . S
C900 C895 1.399 . S
C900 C899 1.394 . S
C900 C901 1.516 . S
C901 C900 1.516 . S
C901 C902 1.502 . S
C901 C903 1.561 1_545 S
C901 C904 1.526 . S
C902 H886 0.959 . S
C902 H887 0.959 . S
C902 H888 0.961 . S
C902 C901 1.502 . S
C903 H889 0.960 . S
C903 H890 0.961 . S
C903 H891 0.959 . S
C903 C901 1.561 1_565 S
C904 C901 1.526 . S
C904 C905 1.396 . S
C904 C909 1.390 . S
C905 C899 1.465 . S
C905 C904 1.396 . S
C905 C906 1.399 . S
C906 H892 0.929 . S
C906 C905 1.399 . S
C906 C907 1.385 . S
C907 H893 0.931 . S
C907 C906 1.385 . S
C907 C908 1.389 . S
C908 C907 1.389 . S
C908 C909 1.387 . S
C909 H894 0.930 . S
C909 C904 1.390 . S
C909 C908 1.387 . S
H910 C922 0.930 . S
H911 C924 0.930 . S
H912 C925 0.930 . S
H913 C929 0.959 . S
H914 C929 0.959 . S
H915 C929 0.961 . S
H916 C930 0.960 . S
H917 C930 0.961 . S
H918 C930 0.959 . S
H919 C933 0.929 . S
H920 C934 0.931 . S
H921 C936 0.930 . S
C922 H910 0.930 . S
C922 C923 1.399 . S
C922 C927 1.399 . S
C923 C922 1.399 . S
C923 C924 1.376 . S
C924 H911 0.930 . S
C924 C923 1.376 . S
C924 C925 1.388 . S
C925 H912 0.930 . S
C925 C924 1.388 . S
C925 C926 1.390 . S
C926 C925 1.390 . S
C926 C927 1.394 . S
C926 C932 1.465 . S
C927 C922 1.399 . S
C927 C926 1.394 . S
C927 C928 1.516 . S
C928 C927 1.516 . S
C928 C929 1.502 . S
C928 C930 1.561 . S
C928 C931 1.526 . S
C929 H913 0.959 . S
C929 H914 0.959 . S
C929 H915 0.961 . S
C929 C928 1.502 . S
C930 H916 0.960 . S
C930 H917 0.961 . S
C930 H918 0.959 . S
C930 C928 1.561 . S
C931 C928 1.526 . S
C931 C932 1.396 . S
C931 C936 1.390 . S
C932 C926 1.465 . S
C932 C931 1.396 . S
C932 C933 1.399 . S
C933 H919 0.929 . S
C933 C932 1.399 . S
C933 C934 1.385 . S
C934 H920 0.931 . S
C934 C933 1.385 . S
C934 C935 1.389 . S
C935 C934 1.389 . S
C935 C936 1.387 . S
C936 H921 0.930 . S
C936 C931 1.390 . S
C936 C935 1.387 . S
H937 C949 0.930 . S
H938 C951 0.930 . S
H939 C952 0.930 . S
H940 C956 0.959 . S
H941 C956 0.959 . S
H942 C956 0.961 . S
H943 C957 0.960 . S
H944 C957 0.961 . S
H945 C957 0.959 . S
H946 C960 0.929 . S
H947 C961 0.931 . S
H948 C963 0.930 . S
C949 H937 0.930 . S
C949 C950 1.399 . S
C949 C954 1.399 . S
C950 C949 1.399 . S
C950 C951 1.376 . S
C951 H938 0.930 . S
C951 C950 1.376 . S
C951 C952 1.388 . S
C952 H939 0.930 . S
C952 C951 1.388 . S
C952 C953 1.390 . S
C953 C952 1.390 . S
C953 C954 1.394 . S
C953 C959 1.465 . S
C954 C949 1.399 . S
C954 C953 1.394 . S
C954 C955 1.516 . S
C955 C954 1.516 . S
C955 C956 1.502 . S
C955 C957 1.561 . S
C955 C958 1.526 . S
C956 H940 0.959 . S
C956 H941 0.959 . S
C956 H942 0.961 . S
C956 C955 1.502 . S
C957 H943 0.960 . S
C957 H944 0.961 . S
C957 H945 0.959 . S
C957 C955 1.561 . S
C958 C955 1.526 . S
C958 C959 1.396 . S
C958 C963 1.390 . S
C959 C953 1.465 . S
C959 C958 1.396 . S
C959 C960 1.399 . S
C960 H946 0.929 . S
C960 C959 1.399 . S
C960 C961 1.385 . S
C961 H947 0.931 . S
C961 C960 1.385 . S
C961 C962 1.389 . S
C962 C961 1.389 . S
C962 C963 1.387 . S
C963 H948 0.930 . S
C963 C958 1.390 . S
C963 C962 1.387 . S
H964 C976 0.930 . S
H965 C978 0.930 . S
H966 C979 0.930 . S
H967 C983 0.959 . S
H968 C983 0.959 . S
H969 C983 0.961 . S
H970 C984 0.960 . S
H971 C984 0.961 . S
H972 C984 0.959 . S
H973 C987 0.929 . S
H974 C988 0.931 . S
H975 C990 0.930 . S
C976 H964 0.930 . S
C976 C977 1.399 . S
C976 C981 1.399 . S
C977 C976 1.399 . S
C977 C978 1.376 1_655 S
C978 H965 0.930 . S
C978 C977 1.376 1_455 S
C978 C979 1.388 . S
C979 H966 0.930 . S
C979 C978 1.388 . S
C979 C980 1.390 1_455 S
C980 C979 1.390 1_655 S
C980 C981 1.394 . S
C980 C986 1.465 . S
C981 C976 1.399 . S
C981 C980 1.394 . S
C981 C982 1.516 . S
C982 C981 1.516 . S
C982 C983 1.502 . S
C982 C984 1.561 . S
C982 C985 1.526 . S
C983 H967 0.959 . S
C983 H968 0.959 . S
C983 H969 0.961 . S
C983 C982 1.502 . S
C984 H970 0.960 . S
C984 H971 0.961 . S
C984 H972 0.959 . S
C984 C982 1.561 . S
C985 C982 1.526 . S
C985 C986 1.396 . S
C985 C990 1.390 . S
C986 C980 1.465 . S
C986 C985 1.396 . S
C986 C987 1.399 1_655 S
C987 H973 0.929 . S
C987 C986 1.399 1_455 S
C987 C988 1.385 . S
C988 H974 0.931 . S
C988 C987 1.385 . S
C988 C989 1.389 1_455 S
C989 C988 1.389 1_655 S
C989 C990 1.387 . S
C990 H975 0.930 . S
C990 C985 1.390 . S
C990 C989 1.387 . S
H991 C1003 0.930 . S
H992 C1005 0.930 . S
H993 C1006 0.930 . S
H994 C1010 0.959 . S
H995 C1010 0.959 . S
H996 C1010 0.961 . S
H997 C1011 0.960 . S
H998 C1011 0.961 . S
H999 C1011 0.959 . S
H1000 C1014 0.929 . S
H1001 C1015 0.931 . S
H1002 C1017 0.930 . S
C1003 H991 0.930 . S
C1003 C1004 1.399 . S
C1003 C1008 1.399 . S
C1004 C1003 1.399 . S
C1004 C1005 1.376 1_565 S
C1005 H992 0.930 . S
C1005 C1004 1.376 1_545 S
C1005 C1006 1.388 . S
C1006 H993 0.930 . S
C1006 C1005 1.388 . S
C1006 C1007 1.374 1_545 S
C1007 C1006 1.374 1_565 S
C1007 C1008 1.418 . S
C1007 C1013 1.462 1_565 S
C1008 C1003 1.399 . S
C1008 C1007 1.418 . S
C1008 C1009 1.516 . S
C1009 C1008 1.516 . S
C1009 C1010 1.502 . S
C1009 C1011 1.561 . S
C1009 C1012 1.526 . S
C1010 H994 0.959 . S
C1010 H995 0.959 . S
C1010 H996 0.961 . S
C1010 C1009 1.502 . S
C1011 H997 0.960 . S
C1011 H998 0.961 . S
C1011 H999 0.959 . S
C1011 C1009 1.561 . S
C1012 C1009 1.526 . S
C1012 C1013 1.396 1_565 S
C1012 C1017 1.390 . S
C1013 C1007 1.462 1_545 S
C1013 C1012 1.396 1_545 S
C1013 C1014 1.399 . S
C1014 H1000 0.929 . S
C1014 C1013 1.399 . S
C1014 C1015 1.385 . S
C1015 H1001 0.931 . S
C1015 C1014 1.385 . S
C1015 C1016 1.389 1_545 S
C1016 C1015 1.389 1_565 S
C1016 C1017 1.387 . S
C1017 H1002 0.930 . S
C1017 C1012 1.390 . S
C1017 C1016 1.387 . S
H1018 C1030 0.930 . S
H1019 C1032 0.930 . S
H1020 C1033 0.930 . S
H1021 C1037 0.959 . S
H1022 C1037 0.959 . S
H1023 C1037 0.961 . S
H1024 C1038 0.960 . S
H1025 C1038 0.961 . S
H1026 C1038 0.959 . S
H1027 C1041 0.929 . S
H1028 C1042 0.931 . S
H1029 C1044 0.930 . S
C1030 H1018 0.930 . S
C1030 C1031 1.399 . S
C1030 C1035 1.399 . S
C1031 C1030 1.399 . S
C1031 C1032 1.376 . S
C1032 H1019 0.930 . S
C1032 C1031 1.376 . S
C1032 C1033 1.388 . S
C1033 H1020 0.930 . S
C1033 C1032 1.388 . S
C1033 C1034 1.390 . S
C1034 C1033 1.390 . S
C1034 C1035 1.394 . S
C1034 C1040 1.465 . S
C1035 C1030 1.399 . S
C1035 C1034 1.394 . S
C1035 C1036 1.516 . S
C1036 C1035 1.516 . S
C1036 C1037 1.502 . S
C1036 C1038 1.561 . S
C1036 C1039 1.526 . S
C1037 H1021 0.959 . S
C1037 H1022 0.959 . S
C1037 H1023 0.961 . S
C1037 C1036 1.502 . S
C1038 H1024 0.960 . S
C1038 H1025 0.961 . S
C1038 H1026 0.959 . S
C1038 C1036 1.561 . S
C1039 C1036 1.526 . S
C1039 C1040 1.396 . S
C1039 C1044 1.390 . S
C1040 C1034 1.465 . S
C1040 C1039 1.396 . S
C1040 C1041 1.399 . S
C1041 H1027 0.929 . S
C1041 C1040 1.399 . S
C1041 C1042 1.385 . S
C1042 H1028 0.931 . S
C1042 C1041 1.385 . S
C1042 C1043 1.389 . S
C1043 C1042 1.389 . S
C1043 C1044 1.387 . S
C1044 H1029 0.930 . S
C1044 C1039 1.390 . S
C1044 C1043 1.387 . S
H1045 C1057 0.930 . S
H1046 C1059 0.930 . S
H1047 C1060 0.930 . S
H1048 C1064 0.959 . S
H1049 C1064 0.959 . S
H1050 C1064 0.961 . S
H1051 C1065 0.960 . S
H1052 C1065 0.961 . S
H1053 C1065 0.959 . S
H1054 C1068 0.929 . S
H1055 C1069 0.931 . S
H1056 C1071 0.930 . S
C1057 H1045 0.930 . S
C1057 C1058 1.399 . S
C1057 C1062 1.399 . S
C1058 C1057 1.399 . S
C1058 C1059 1.376 . S
C1059 H1046 0.930 . S
C1059 C1058 1.376 . S
C1059 C1060 1.388 . S
C1060 H1047 0.930 . S
C1060 C1059 1.388 . S
C1060 C1061 1.390 . S
C1061 C1060 1.390 . S
C1061 C1062 1.394 . S
C1061 C1067 1.465 . S
C1062 C1057 1.399 . S
C1062 C1061 1.394 . S
C1062 C1063 1.516 . S
C1063 C1062 1.516 . S
C1063 C1064 1.502 . S
C1063 C1065 1.561 . S
C1063 C1066 1.526 . S
C1064 H1048 0.959 . S
C1064 H1049 0.959 . S
C1064 H1050 0.961 . S
C1064 C1063 1.502 . S
C1065 H1051 0.960 . S
C1065 H1052 0.961 . S
C1065 H1053 0.959 . S
C1065 C1063 1.561 . S
C1066 C1063 1.526 . S
C1066 C1067 1.396 . S
C1066 C1071 1.390 . S
C1067 C1061 1.465 . S
C1067 C1066 1.396 . S
C1067 C1068 1.399 . S
C1068 H1054 0.929 . S
C1068 C1067 1.399 . S
C1068 C1069 1.385 . S
C1069 H1055 0.931 . S
C1069 C1068 1.385 . S
C1069 C1070 1.389 . S
C1070 C1069 1.389 . S
C1070 C1071 1.387 . S
C1071 H1056 0.930 . S
C1071 C1066 1.390 . S
C1071 C1070 1.387 . S
C437 C74 1.879 . S
C449 C151 1.929 . S
C476 C228 1.969 . S
C464 C85 1.848 . S
C503 C319 1.954 . S
C491 C52 1.829 . S
C530 C403 1.916 . S
C518 C63 1.877 . S
C557 C162 1.938 . S
C545 C30 1.794 . S
C572 C41 1.834 . S
C584 C239 1.952 . S
C599 C8 1.786 . S
C611 C330 1.930 . S
C626 C19 1.834 . S
C638 C414 1.908 1_655 S
C665 C146 0.720 1_455 S
C653 C62 0.652 . S
C692 C241 0.672 . S
C680 C73 0.653 . S
C719 C314 0.779 . S
C707 C84 0.694 . S
C734 C51 0.652 . S
C746 C398 0.588 . S
C761 C18 0.769 . S
C773 C157 0.742 . S
C800 C230 0.715 . S
C788 C29 0.742 . S
C827 C325 0.617 . S
C815 C40 0.601 . S
C842 C7 0.652 . S
C854 C409 0.624 . S
C869 C60 1.760 . S
C881 C155 2.071 . S
C896 C71 1.731 . S
C908 C246 2.108 . S
C935 C323 2.089 . S
C923 C82 1.776 . S
C962 C407 2.096 . S
C950 C49 1.722 . S
C977 C16 1.525 . S
C989 C144 2.092 . S
C1016 C235 2.093 1_565 S
C1004 C27 1.533 . S
C1043 C312 2.090 . S
C1031 C38 1.665 . S
C1058 C5 1.631 . S
C1070 C396 2.110 . S
