# Generated by pormake.
# Topology ocu, (6,8)-cn, num edge types: 1
# Building blocks:
#     Node 0, Type 0, BuildingBlock: PAMTUU_clean_sbu_0, # of connection points: 6
#     Node 1, Type 0, BuildingBlock: PAMTUU_clean_sbu_0, # of connection points: 6
#     Node 2, Type 0, BuildingBlock: PAMTUU_clean_sbu_0, # of connection points: 6
#     Node 3, Type 0, BuildingBlock: PAMTUU_clean_sbu_0, # of connection points: 6
#     Node 4, Type 0, BuildingBlock: PAMTUU_clean_sbu_0, # of connection points: 6
#     Node 5, Type 0, BuildingBlock: PAMTUU_clean_sbu_0, # of connection points: 6
#     Node 6, Type 0, BuildingBlock: PAMTUU_clean_sbu_0, # of connection points: 6
#     Node 7, Type 0, BuildingBlock: PAMTUU_clean_sbu_0, # of connection points: 6
#     Node 8, Type 1, BuildingBlock: GIZVER_clean_sbu_0, # of connection points: 8
#     Node 9, Type 1, BuildingBlock: GIZVER_clean_sbu_0, # of connection points: 8
#     Node 10, Type 1, BuildingBlock: GIZVER_clean_sbu_0, # of connection points: 8
#     Node 11, Type 1, BuildingBlock: GIZVER_clean_sbu_0, # of connection points: 8
#     Node 12, Type 1, BuildingBlock: GIZVER_clean_sbu_0, # of connection points: 8
#     Node 13, Type 1, BuildingBlock: GIZVER_clean_sbu_0, # of connection points: 8
#     Edge 14, Type (0, 1), BuildingBlock: ZUJKAS_clean_linker_0, # of connection points: 2
#     Edge 15, Type (0, 1), BuildingBlock: ZUJKAS_clean_linker_0, # of connection points: 2
#     Edge 16, Type (0, 1), BuildingBlock: ZUJKAS_clean_linker_0, # of connection points: 2
#     Edge 17, Type (0, 1), BuildingBlock: ZUJKAS_clean_linker_0, # of connection points: 2
#     Edge 18, Type (0, 1), BuildingBlock: ZUJKAS_clean_linker_0, # of connection points: 2
#     Edge 19, Type (0, 1), BuildingBlock: ZUJKAS_clean_linker_0, # of connection points: 2
#     Edge 20, Type (0, 1), BuildingBlock: ZUJKAS_clean_linker_0, # of connection points: 2
#     Edge 21, Type (0, 1), BuildingBlock: ZUJKAS_clean_linker_0, # of connection points: 2
#     Edge 22, Type (0, 1), BuildingBlock: ZUJKAS_clean_linker_0, # of connection points: 2
#     Edge 23, Type (0, 1), BuildingBlock: ZUJKAS_clean_linker_0, # of connection points: 2
#     Edge 24, Type (0, 1), BuildingBlock: ZUJKAS_clean_linker_0, # of connection points: 2
#     Edge 25, Type (0, 1), BuildingBlock: ZUJKAS_clean_linker_0, # of connection points: 2
#     Edge 26, Type (0, 1), BuildingBlock: ZUJKAS_clean_linker_0, # of connection points: 2
#     Edge 27, Type (0, 1), BuildingBlock: ZUJKAS_clean_linker_0, # of connection points: 2
#     Edge 28, Type (0, 1), BuildingBlock: ZUJKAS_clean_linker_0, # of connection points: 2
#     Edge 29, Type (0, 1), BuildingBlock: ZUJKAS_clean_linker_0, # of connection points: 2
#     Edge 30, Type (0, 1), BuildingBlock: ZUJKAS_clean_linker_0, # of connection points: 2
#     Edge 31, Type (0, 1), BuildingBlock: ZUJKAS_clean_linker_0, # of connection points: 2
#     Edge 32, Type (0, 1), BuildingBlock: ZUJKAS_clean_linker_0, # of connection points: 2
#     Edge 33, Type (0, 1), BuildingBlock: ZUJKAS_clean_linker_0, # of connection points: 2
#     Edge 34, Type (0, 1), BuildingBlock: ZUJKAS_clean_linker_0, # of connection points: 2
#     Edge 35, Type (0, 1), BuildingBlock: ZUJKAS_clean_linker_0, # of connection points: 2
#     Edge 36, Type (0, 1), BuildingBlock: ZUJKAS_clean_linker_0, # of connection points: 2
#     Edge 37, Type (0, 1), BuildingBlock: ZUJKAS_clean_linker_0, # of connection points: 2
#     Edge 38, Type (0, 1), BuildingBlock: ZUJKAS_clean_linker_0, # of connection points: 2
#     Edge 39, Type (0, 1), BuildingBlock: ZUJKAS_clean_linker_0, # of connection points: 2
#     Edge 40, Type (0, 1), BuildingBlock: ZUJKAS_clean_linker_0, # of connection points: 2
#     Edge 41, Type (0, 1), BuildingBlock: ZUJKAS_clean_linker_0, # of connection points: 2
#     Edge 42, Type (0, 1), BuildingBlock: ZUJKAS_clean_linker_0, # of connection points: 2
#     Edge 43, Type (0, 1), BuildingBlock: ZUJKAS_clean_linker_0, # of connection points: 2
#     Edge 44, Type (0, 1), BuildingBlock: ZUJKAS_clean_linker_0, # of connection points: 2
#     Edge 45, Type (0, 1), BuildingBlock: ZUJKAS_clean_linker_0, # of connection points: 2
#     Edge 46, Type (0, 1), BuildingBlock: ZUJKAS_clean_linker_0, # of connection points: 2
#     Edge 47, Type (0, 1), BuildingBlock: ZUJKAS_clean_linker_0, # of connection points: 2
#     Edge 48, Type (0, 1), BuildingBlock: ZUJKAS_clean_linker_0, # of connection points: 2
#     Edge 49, Type (0, 1), BuildingBlock: ZUJKAS_clean_linker_0, # of connection points: 2
#     Edge 50, Type (0, 1), BuildingBlock: ZUJKAS_clean_linker_0, # of connection points: 2
#     Edge 51, Type (0, 1), BuildingBlock: ZUJKAS_clean_linker_0, # of connection points: 2
#     Edge 52, Type (0, 1), BuildingBlock: ZUJKAS_clean_linker_0, # of connection points: 2
#     Edge 53, Type (0, 1), BuildingBlock: ZUJKAS_clean_linker_0, # of connection points: 2
#     Edge 54, Type (0, 1), BuildingBlock: ZUJKAS_clean_linker_0, # of connection points: 2
#     Edge 55, Type (0, 1), BuildingBlock: ZUJKAS_clean_linker_0, # of connection points: 2
#     Edge 56, Type (0, 1), BuildingBlock: ZUJKAS_clean_linker_0, # of connection points: 2
#     Edge 57, Type (0, 1), BuildingBlock: ZUJKAS_clean_linker_0, # of connection points: 2
#     Edge 58, Type (0, 1), BuildingBlock: ZUJKAS_clean_linker_0, # of connection points: 2
#     Edge 59, Type (0, 1), BuildingBlock: ZUJKAS_clean_linker_0, # of connection points: 2
#     Edge 60, Type (0, 1), BuildingBlock: ZUJKAS_clean_linker_0, # of connection points: 2
#     Edge 61, Type (0, 1), BuildingBlock: ZUJKAS_clean_linker_0, # of connection points: 2
# Relax obj value: 0.157
# Max RMSD: 0.258
# Mean RMSD: 0.185
data_MOF--net-ocu--node1-PAMTUU_clean_sbu_0--node2-GIZVER_clean_sbu_0--edge1-ZUJKAS_clean_linker_0
_symmetry_space_group_name_H-M    P1
_symmetry_Int_Tables_number       1
_symmetry_cell_setting            triclinic
loop_
_symmetry_equiv_pos_as_xyz
'x, y, z'
_cell_length_a     53.834799
_cell_length_b     59.245168
_cell_length_c     41.619612
_cell_angle_alpha  85.170643
_cell_angle_beta   95.431378
_cell_angle_gamma 108.53216
loop_
_atom_site_label
_atom_site_type_symbol
_atom_site_fract_x
_atom_site_fract_y
_atom_site_fract_z
_atom_type_partial_charge
Tb0 Tb 0.25642 0.27397 0.24563 0.0
Tb1 Tb 0.29965 0.28344 0.30554 0.0
C2 C 0.24959 0.23712 0.30611 0.0
C3 C 0.21103 0.28227 0.17678 0.0
C4 C 0.18987 0.31239 0.13516 0.0
C5 C 0.18543 0.28864 0.12778 0.0
C6 C 0.196 0.27368 0.14848 0.0
C7 C 0.2155 0.30589 0.18431 0.0
C8 C 0.20494 0.32082 0.16372 0.0
C9 C 0.2231 0.26697 0.1976 0.0
O10 O 0.24121 0.2957 0.27733 0.0
O11 O 0.27599 0.30754 0.31503 0.0
O12 O 0.31619 0.31232 0.27061 0.0
O13 O 0.28126 0.30984 0.23361 0.0
O14 O 0.3088 0.2862 0.35551 0.0
O15 O 0.33932 0.29296 0.32285 0.0
O16 O 0.31142 0.25696 0.27833 0.0
O17 O 0.28468 0.25547 0.23188 0.0
O18 O 0.24379 0.24127 0.27543 0.0
O19 O 0.26913 0.25193 0.32243 0.0
C20 C 0.25246 0.30855 0.30287 0.0
O21 O 0.24826 0.27192 0.19555 0.0
O22 O 0.21691 0.26354 0.22755 0.0
C23 C 0.30522 0.32072 0.245 0.0
C24 C 0.34543 0.27416 0.37314 0.0
C25 C 0.36985 0.24367 0.40884 0.0
C26 C 0.38017 0.26851 0.41125 0.0
C27 C 0.36799 0.28366 0.39348 0.0
C28 C 0.33482 0.24941 0.37105 0.0
C29 C 0.3469 0.23427 0.38881 0.0
C30 C 0.33371 0.29005 0.35293 0.0
C31 C 0.30433 0.24939 0.24841 0.0
H32 H 0.17401 0.2817 0.10588 0.0
H33 H 0.19263 0.25549 0.1423 0.0
H34 H 0.2272 0.31278 0.20608 0.0
H35 H 0.20825 0.33887 0.17045 0.0
H36 H 0.39774 0.2762 0.42663 0.0
H37 H 0.3764 0.30277 0.39522 0.0
H38 H 0.3175 0.24184 0.35516 0.0
H39 H 0.33876 0.21526 0.386 0.0
Tb40 Tb 0.75216 0.29983 0.27628 0.0
Tb41 Tb 0.79071 0.26874 0.26692 0.0
C42 C 0.80224 0.30391 0.32061 0.0
C43 C 0.73414 0.35319 0.27269 0.0
C44 C 0.74554 0.39625 0.23504 0.0
C45 C 0.72054 0.38588 0.24699 0.0
C46 C 0.71483 0.36434 0.26553 0.0
C47 C 0.75991 0.3649 0.26404 0.0
C48 C 0.76557 0.38629 0.24521 0.0
C49 C 0.72653 0.32774 0.28234 0.0
O50 O 0.77514 0.31817 0.23561 0.0
O51 O 0.81019 0.30374 0.24467 0.0
O52 O 0.76464 0.26667 0.2234 0.0
O53 O 0.73003 0.26974 0.24831 0.0
O54 O 0.82868 0.26579 0.27025 0.0
O55 O 0.79527 0.23715 0.25281 0.0
O56 O 0.75915 0.24467 0.294 0.0
O57 O 0.74069 0.27059 0.31311 0.0
O58 O 0.7899 0.31589 0.30113 0.0
O59 O 0.8002 0.28195 0.31515 0.0
C60 C 0.79947 0.31957 0.23101 0.0
O61 O 0.72235 0.31409 0.25808 0.0
O62 O 0.74116 0.3215 0.30598 0.0
C63 C 0.73928 0.2622 0.22473 0.0
C64 C 0.82559 0.2273 0.29189 0.0
C65 C 0.83393 0.20434 0.35195 0.0
C66 C 0.80984 0.19608 0.33381 0.0
C67 C 0.80564 0.20753 0.30406 0.0
C68 C 0.85023 0.23447 0.30917 0.0
C69 C 0.8543 0.2232 0.33904 0.0
C70 C 0.81954 0.2431 0.26511 0.0
C71 C 0.74341 0.24925 0.31306 0.0
H72 H 0.70459 0.39299 0.23922 0.0
H73 H 0.69484 0.35545 0.27183 0.0
H74 H 0.77511 0.35648 0.26939 0.0
H75 H 0.78496 0.39394 0.23637 0.0
H76 H 0.79398 0.18136 0.34319 0.0
H77 H 0.78637 0.20155 0.29142 0.0
H78 H 0.86592 0.24962 0.30038 0.0
H79 H 0.87331 0.22943 0.35228 0.0
Tb80 Tb 0.79157 0.78747 0.24592 0.0
Tb81 Tb 0.75372 0.76639 0.30091 0.0
C82 C 0.80053 0.81349 0.30962 0.0
C83 C 0.83425 0.78835 0.18358 0.0
C84 C 0.85637 0.75602 0.16168 0.0
C85 C 0.87263 0.77706 0.17531 0.0
C86 C 0.86159 0.79314 0.18622 0.0
C87 C 0.81824 0.76808 0.16791 0.0
C88 C 0.82923 0.75212 0.15702 0.0
C89 C 0.82234 0.8021 0.20153 0.0
O90 O 0.81307 0.76465 0.27753 0.0
O91 O 0.77914 0.74148 0.3061 0.0
O92 O 0.73451 0.74494 0.26073 0.0
O93 O 0.76982 0.75186 0.23092 0.0
O94 O 0.74791 0.74998 0.34746 0.0
O95 O 0.71634 0.75817 0.31865 0.0
O96 O 0.73908 0.79715 0.27797 0.0
O97 O 0.75829 0.80307 0.23023 0.0
O98 O 0.80063 0.81633 0.27818 0.0
O99 O 0.7864 0.79353 0.32341 0.0
C100 C 0.80381 0.74569 0.29804 0.0
O101 O 0.79692 0.79706 0.19687 0.0
O102 O 0.8301 0.80365 0.23215 0.0
C103 C 0.74564 0.73976 0.23702 0.0
C104 C 0.71916 0.76301 0.37422 0.0
C105 C 0.7076 0.78722 0.42318 0.0
C106 C 0.69057 0.76468 0.41496 0.0
C107 C 0.69636 0.75264 0.39064 0.0
C108 C 0.73653 0.78519 0.38292 0.0
C109 C 0.73086 0.79715 0.4073 0.0
C110 C 0.72424 0.75125 0.34714 0.0
C111 C 0.74086 0.80732 0.24778 0.0
H112 H 0.89365 0.78045 0.17908 0.0
H113 H 0.87426 0.80861 0.19833 0.0
H114 H 0.79706 0.76383 0.16542 0.0
H115 H 0.81635 0.73629 0.14588 0.0
H116 H 0.67256 0.7566 0.42691 0.0
H117 H 0.68277 0.73551 0.38416 0.0
H118 H 0.75416 0.79354 0.37032 0.0
H119 H 0.74411 0.81466 0.41268 0.0
Tb120 Tb 0.295 0.76104 0.27743 0.0
Tb121 Tb 0.25695 0.79448 0.26871 0.0
C122 C 0.25012 0.75477 0.32413 0.0
C123 C 0.33242 0.72254 0.25758 0.0
C124 C 0.34566 0.6966 0.21227 0.0
C125 C 0.35112 0.6924 0.24555 0.0
C126 C 0.34452 0.70529 0.26805 0.0
C127 C 0.32693 0.72688 0.22442 0.0
C128 C 0.33363 0.71406 0.20186 0.0
C129 C 0.32442 0.73509 0.28139 0.0
O130 O 0.26677 0.74716 0.23649 0.0
O131 O 0.2335 0.7612 0.24765 0.0
O132 O 0.27319 0.7962 0.22272 0.0
O133 O 0.3115 0.7906 0.24333 0.0
O134 O 0.22178 0.80147 0.27413 0.0
O135 O 0.25355 0.82751 0.25046 0.0
O136 O 0.29391 0.81517 0.29342 0.0
O137 O 0.30853 0.78505 0.31711 0.0
O138 O 0.26399 0.74485 0.30926 0.0
O139 O 0.24914 0.77634 0.31591 0.0
C140 C 0.24192 0.74653 0.23285 0.0
O141 O 0.33297 0.75827 0.27825 0.0
O142 O 0.29958 0.72719 0.28642 0.0
C143 C 0.29816 0.79951 0.22065 0.0
C144 C 0.2317 0.8414 0.28584 0.0
C145 C 0.23367 0.87598 0.32881 0.0
C146 C 0.22221 0.87704 0.29712 0.0
C147 C 0.22122 0.8598 0.27575 0.0
C148 C 0.24375 0.84061 0.31716 0.0
C149 C 0.24459 0.85772 0.33859 0.0
C150 C 0.23141 0.82362 0.26348 0.0
C151 C 0.3093 0.80755 0.31504 0.0
H152 H 0.36078 0.67933 0.25419 0.0
H153 H 0.34874 0.70172 0.2936 0.0
H154 H 0.3173 0.74005 0.21607 0.0
H155 H 0.32912 0.71754 0.17637 0.0
H156 H 0.21331 0.89078 0.2892 0.0
H157 H 0.21216 0.86074 0.2515 0.0
H158 H 0.25238 0.82668 0.32506 0.0
H159 H 0.2536 0.85661 0.36283 0.0
Tb160 Tb 0.2689 0.78091 0.76 0.0
Tb161 Tb 0.30909 0.75091 0.77688 0.0
C162 C 0.31872 0.79976 0.80958 0.0
C163 C 0.23881 0.82253 0.71474 0.0
C164 C 0.23823 0.85372 0.66 0.0
C165 C 0.257 0.86089 0.68599 0.0
C166 C 0.25732 0.84545 0.7131 0.0
C167 C 0.22026 0.81528 0.68851 0.0
C168 C 0.22006 0.8307 0.66129 0.0
C169 C 0.23931 0.80593 0.7431 0.0
O170 O 0.30201 0.79944 0.73206 0.0
O171 O 0.32144 0.77025 0.7317 0.0
O172 O 0.27409 0.72616 0.75269 0.0
O173 O 0.25914 0.75383 0.72299 0.0
O174 O 0.33675 0.74102 0.80899 0.0
O175 O 0.32612 0.72658 0.7619 0.0
O176 O 0.28261 0.74017 0.81571 0.0
O177 O 0.24843 0.75305 0.7936 0.0
O178 O 0.29315 0.79599 0.80406 0.0
O179 O 0.32974 0.78647 0.79566 0.0
C180 C 0.31896 0.7909 0.72101 0.0
O181 O 0.23327 0.78352 0.73728 0.0
O182 O 0.25956 0.8123 0.76388 0.0
C183 C 0.25943 0.73157 0.72804 0.0
C184 C 0.32897 0.70041 0.80619 0.0
C185 C 0.31407 0.65989 0.84825 0.0
C186 C 0.29507 0.66977 0.83392 0.0
C187 C 0.30245 0.68978 0.81258 0.0
C188 C 0.34764 0.68958 0.81874 0.0
C189 C 0.34016 0.66924 0.83952 0.0
C190 C 0.33721 0.72438 0.79067 0.0
C191 C 0.25822 0.74023 0.8152 0.0
H192 H 0.27116 0.8786 0.68555 0.0
H193 H 0.27198 0.8516 0.7328 0.0
H194 H 0.20577 0.79773 0.68914 0.0
H195 H 0.20507 0.82495 0.64179 0.0
H196 H 0.27496 0.66288 0.84065 0.0
H197 H 0.28776 0.69791 0.80278 0.0
H198 H 0.36815 0.69764 0.81411 0.0
H199 H 0.35516 0.66196 0.85085 0.0
Tb200 Tb 0.29984 0.27225 0.73987 0.0
Tb201 Tb 0.26275 0.27215 0.79872 0.0
C202 C 0.31442 0.31348 0.78752 0.0
C203 C 0.3399 0.25062 0.68671 0.0
C204 C 0.36274 0.21715 0.66692 0.0
C205 C 0.37292 0.24168 0.65808 0.0
C206 C 0.36164 0.25813 0.66782 0.0
C207 C 0.32969 0.22621 0.69586 0.0
C208 C 0.34092 0.20968 0.686 0.0
C209 C 0.32797 0.26845 0.69588 0.0
O210 O 0.30548 0.24415 0.77606 0.0
O211 O 0.29303 0.256 0.82147 0.0
O212 O 0.24734 0.2369 0.77962 0.0
O213 O 0.26064 0.24895 0.72877 0.0
O214 O 0.26021 0.28069 0.84607 0.0
O215 O 0.22516 0.26475 0.8159 0.0
O216 O 0.24589 0.28816 0.75517 0.0
O217 O 0.28068 0.30013 0.72254 0.0
O218 O 0.32309 0.29958 0.77178 0.0
O219 O 0.28965 0.30794 0.79318 0.0
C220 C 0.30555 0.24356 0.80799 0.0
O221 O 0.30249 0.2626 0.69304 0.0
O222 O 0.33737 0.27897 0.72261 0.0
C223 C 0.24519 0.23378 0.74856 0.0
C224 C 0.22245 0.29204 0.85327 0.0
C225 C 0.19892 0.32415 0.87529 0.0
C226 C 0.18624 0.29934 0.87722 0.0
C227 C 0.19788 0.28354 0.86641 0.0
C228 C 0.23513 0.3168 0.85091 0.0
C229 C 0.22354 0.33265 0.86188 0.0
C230 C 0.23463 0.27475 0.84306 0.0
C231 C 0.25724 0.30081 0.72962 0.0
H232 H 0.38941 0.2482 0.64311 0.0
H233 H 0.36983 0.2768 0.66033 0.0
H234 H 0.313 0.21992 0.71055 0.0
H235 H 0.33268 0.19107 0.6937 0.0
H236 H 0.16748 0.29202 0.88772 0.0
H237 H 0.18773 0.26455 0.86862 0.0
H238 H 0.25404 0.32392 0.84071 0.0
H239 H 0.23378 0.3516 0.85955 0.0
Tb240 Tb 0.79853 0.2585 0.78227 0.0
Tb241 Tb 0.75668 0.28663 0.75976 0.0
C242 C 0.74261 0.24215 0.8094 0.0
C243 C 0.82924 0.21139 0.78646 0.0
C244 C 0.83384 0.17289 0.75519 0.0
C245 C 0.85331 0.18421 0.77874 0.0
C246 C 0.85109 0.20349 0.79413 0.0
C247 C 0.80892 0.19906 0.76465 0.0
C248 C 0.81128 0.18004 0.74891 0.0
C249 C 0.82929 0.23425 0.79742 0.0
O250 O 0.78091 0.24517 0.7355 0.0
O251 O 0.74256 0.2546 0.7329 0.0
O252 O 0.78797 0.29943 0.72549 0.0
O253 O 0.82142 0.2923 0.75837 0.0
O254 O 0.71919 0.28996 0.76277 0.0
O255 O 0.74739 0.31515 0.73356 0.0
O256 O 0.78444 0.30916 0.79355 0.0
O257 O 0.80323 0.28264 0.8208 0.0
O258 O 0.75993 0.235 0.79636 0.0
O259 O 0.74313 0.26455 0.80412 0.0
C260 C 0.7566 0.24209 0.72375 0.0
O261 O 0.83314 0.25133 0.77484 0.0
O262 O 0.81003 0.2337 0.81452 0.0
C263 C 0.81341 0.30356 0.73284 0.0
C264 C 0.72328 0.33047 0.76596 0.0
C265 C 0.72042 0.36464 0.80772 0.0
C266 C 0.74336 0.36801 0.79191 0.0
C267 C 0.74482 0.35109 0.77134 0.0
C268 C 0.70009 0.32747 0.78097 0.0
C269 C 0.69868 0.34434 0.80169 0.0
C270 C 0.72573 0.31096 0.7478 0.0
C271 C 0.79879 0.30333 0.81797 0.0
H272 H 0.871 0.17916 0.78373 0.0
H273 H 0.86701 0.21295 0.81074 0.0
H274 H 0.79185 0.20491 0.75861 0.0
H275 H 0.79599 0.17151 0.73095 0.0
H276 H 0.7605 0.38336 0.79625 0.0
H277 H 0.76314 0.35387 0.76047 0.0
H278 H 0.68327 0.31172 0.77735 0.0
H279 H 0.68058 0.34143 0.81313 0.0
Tb280 Tb 0.77924 0.78724 0.80521 0.0
Tb281 Tb 0.78491 0.75947 0.73961 0.0
C282 C 0.8185 0.81131 0.75344 0.0
C283 C 0.75691 0.82396 0.86188 0.0
C284 C 0.72767 0.85091 0.88623 0.0
C285 C 0.75435 0.86138 0.88015 0.0
C286 C 0.76868 0.84814 0.86831 0.0
C287 C 0.73013 0.81344 0.86737 0.0
C288 C 0.71573 0.82673 0.87927 0.0
C289 C 0.77357 0.81004 0.85193 0.0
O290 O 0.75827 0.80081 0.76476 0.0
O291 O 0.7515 0.77322 0.72584 0.0
O292 O 0.76275 0.73268 0.77384 0.0
O293 O 0.7445 0.75642 0.79802 0.0
O294 O 0.80837 0.76087 0.70154 0.0
O295 O 0.77272 0.73155 0.70721 0.0
O296 O 0.81605 0.75607 0.7757 0.0
O297 O 0.80147 0.76277 0.82354 0.0
O298 O 0.81652 0.80627 0.7846 0.0
O299 O 0.80236 0.79759 0.7324 0.0
C300 C 0.74676 0.79158 0.73734 0.0
O301 O 0.76351 0.787 0.85 0.0
O302 O 0.78876 0.81947 0.82856 0.0
C303 C 0.74504 0.73524 0.79162 0.0
C304 C 0.80753 0.72457 0.68004 0.0
C305 C 0.83251 0.69524 0.6531 0.0
C306 C 0.81262 0.68539 0.67477 0.0
C307 C 0.80018 0.69984 0.68794 0.0
C308 C 0.82768 0.73437 0.65896 0.0
C309 C 0.83998 0.72003 0.6458 0.0
C310 C 0.79361 0.7405 0.69091 0.0
C311 C 0.81632 0.75415 0.80759 0.0
H312 H 0.76433 0.87996 0.8845 0.0
H313 H 0.78927 0.85681 0.86457 0.0
H314 H 0.72037 0.79483 0.863 0.0
H315 H 0.69537 0.81779 0.88382 0.0
H316 H 0.80615 0.6664 0.6809 0.0
H317 H 0.78458 0.6916 0.70386 0.0
H318 H 0.83374 0.75328 0.65215 0.0
H319 H 0.85546 0.72848 0.6298 0.0
Co320 Co 0.05911 0.98713 0.508 0.0
Co321 Co 0.06456 0.99928 0.56761 0.0
Co322 Co 0.02734 0.02399 0.52545 0.0
O323 O 0.05868 0.01396 0.52857 0.0
H324 H 0.07422 0.02737 0.525 0.0
O325 O 0.99617 0.03485 0.52183 0.0
Co326 Co 0.99687 0.06226 0.5433 0.0
Co327 Co 0.99206 0.05133 0.48242 0.0
H328 H 0.98034 0.02171 0.52512 0.0
O329 O 0.0983 1.00012 0.58148 0.0
O330 O 0.06838 0.97295 0.55083 0.0
O331 O 0.03672 0.99124 0.59595 0.0
O332 O 1.00757 0.99862 0.55798 0.0
O333 O 0.04423 0.04478 0.56135 0.0
O334 O 0.99375 0.08615 0.56366 0.0
O335 O 0.96238 0.05224 0.54956 0.0
O336 O 0.03368 0.07617 0.54079 0.0
O337 O 0.04763 0.04945 0.49353 0.0
O338 O 0.02135 0.06091 0.45559 0.0
O339 O 0.99099 0.07808 0.50115 0.0
O340 O 0.95961 0.05515 0.46785 0.0
C341 C 0.08696 0.97866 0.48667 0.0
C342 C 1.00648 0.97986 0.49411 0.0
C343 C 1.01332 0.98996 0.58593 0.0
C344 C 0.09166 0.98081 0.56571 0.0
C345 C 0.96946 0.07242 0.56358 0.0
C346 C 0.04857 0.06714 0.55934 0.0
C347 C 0.04404 0.06071 0.46678 0.0
C348 C 0.96825 0.07365 0.4852 0.0
O349 O 0.06341 0.96349 0.48787 0.0
O350 O 0.09275 0.999 0.49991 0.0
O351 O 1.01042 1.00227 0.49005 0.0
O352 O 0.02254 0.97181 0.5123 0.0
Co353 Co 0.54518 0.99094 0.03816 0.0
Co354 Co 0.54712 0.99819 0.09611 0.0
Co355 Co 0.51168 0.03555 0.05175 0.0
O356 O 0.54408 0.02037 0.05926 0.0
H357 H 0.56063 0.03293 0.05758 0.0
O358 O 0.47911 0.05121 0.04786 0.0
Co359 Co 0.47658 0.08295 0.06874 0.0
Co360 Co 0.47956 0.07317 0.01138 0.0
H361 H 0.46236 0.03876 0.04774 0.0
O362 O 0.57825 0.99208 0.12008 0.0
O363 O 0.55421 0.97036 0.08072 0.0
O364 O 0.51351 0.98946 0.11468 0.0
O365 O 0.4925 0.01401 0.08799 0.0
O366 O 0.53029 0.06202 0.08127 0.0
O367 O 0.47381 0.11054 0.08879 0.0
O368 O 0.43948 0.07963 0.07884 0.0
O369 O 0.51431 0.09298 0.06607 0.0
O370 O 0.53273 0.05757 0.01486 0.0
O371 O 0.51238 0.08289 0.99046 0.0
O372 O 0.47025 0.09966 0.02414 0.0
O373 O 0.44914 0.07401 0.9861 0.0
C374 C 0.57244 0.97947 0.01665 0.0
C375 C 0.4908 0.98603 0.02192 0.0
C376 C 0.49364 0.99705 0.10905 0.0
C377 C 0.57365 0.97305 0.10418 0.0
C378 C 0.44863 0.101 0.09071 0.0
C379 C 0.53337 0.08436 0.07426 0.0
C380 C 0.53207 0.07519 0.99434 0.0
C381 C 0.45239 0.09392 -0.00056 0.0
O382 O 0.54764 0.96728 0.01601 0.0
O383 O 0.58046 0.99973 0.03093 0.0
O384 O 0.4919 0.00845 0.02066 0.0
O385 O 0.50737 0.9784 0.0404 0.0
Co386 Co 0.03689 0.49376 -0.00448 0.0
Co387 Co 0.0434 0.51161 0.05288 0.0
Co388 Co 1.0124 0.53967 0.00265 0.0
O389 O 0.04106 0.52454 0.01065 0.0
H390 H 0.05797 0.53572 0.006 0.0
O391 O 0.98459 0.55561 0.99381 0.0
Co392 Co 0.9893 0.58584 0.01077 0.0
Co393 Co 0.98413 0.57196 0.95374 0.0
H394 H 0.96735 0.54447 -0.00288 0.0
O395 O 0.07419 0.50532 0.07074 0.0
O396 O 0.04104 0.48176 0.04036 0.0
O397 O 1.0135 0.50681 0.07746 0.0
O398 O 0.98926 0.51903 0.03738 0.0
O399 O 0.03271 0.56372 0.03464 0.0
O400 O 0.99067 0.6123 0.02769 0.0
O401 O 0.95539 0.58006 0.01786 0.0
O402 O 0.02643 0.59536 0.00742 0.0
O403 O 0.03523 0.55955 0.96825 0.0
O404 O 1.01481 0.57766 0.93036 0.0
O405 O 0.98321 0.6011 0.96651 0.0
O406 O 0.95318 0.57572 0.93416 0.0
C407 C 0.06107 0.47613 0.98015 0.0
C408 C 0.98625 0.49304 0.97843 0.0
C409 C 0.99155 0.50838 0.06521 0.0
C410 C 0.0634 0.48532 0.05697 0.0
C411 C 0.96568 0.60126 0.02883 0.0
C412 C 0.03988 0.58628 0.02846 0.0
C413 C 0.03506 0.57237 0.94197 0.0
C414 C 0.96161 0.59617 0.94733 0.0
O415 O 0.03586 0.46596 0.981 0.0
O416 O 0.07141 0.49791 0.98953 0.0
O417 O 0.99196 0.51538 0.97103 0.0
O418 O 1.00076 0.48522 -0.00081 0.0
Co419 Co 0.57038 0.48768 0.9927 0.0
Co420 Co 0.54707 0.47517 0.04269 0.0
Co421 Co 0.53266 0.52046 0.0176 0.0
O422 O 0.56067 0.50509 0.02429 0.0
H423 H 0.57577 0.51429 0.03728 0.0
O424 O 0.50431 0.53503 0.01167 0.0
Co425 Co 0.50761 0.56442 0.02851 0.0
Co426 Co 0.50172 0.54932 0.97149 0.0
H427 H 0.4875 0.52338 0.01575 0.0
O428 O 0.56773 0.46803 0.07591 0.0
O429 O 0.56419 0.45909 0.02328 0.0
O430 O 0.50978 0.46356 0.04526 0.0
O431 O 0.51154 0.5005 0.05411 0.0
O432 O 0.55395 0.54482 0.04816 0.0
O433 O 0.50775 0.59078 0.04533 0.0
O434 O 0.47389 0.55715 0.0378 0.0
O435 O 0.54409 0.57547 0.02239 0.0
O436 O 0.5544 0.54023 0.98163 0.0
O437 O 0.52978 0.55482 0.94493 0.0
O438 O 0.49882 0.57718 0.98428 0.0
O439 O 0.46989 0.549 0.95382 0.0
C440 C 0.60414 0.48263 0.98131 0.0
C441 C 0.51387 0.48025 0.97279 0.0
C442 C 0.49947 0.47798 0.05511 0.0
C443 C 0.57569 0.45942 0.05246 0.0
C444 C 0.48319 0.57862 0.04819 0.0
C445 C 0.55946 0.56722 0.04152 0.0
C446 C 0.55136 0.55137 0.95454 0.0
C447 C 0.47625 0.5692 0.96753 0.0
O448 O 0.58176 0.47291 0.96562 0.0
O449 O 0.60553 0.49667 0.00449 0.0
O450 O 0.51065 0.49727 0.98662 0.0
O451 O 0.53551 0.47582 0.9755 0.0
Co452 Co 0.09726 0.48229 0.5163 0.0
Co453 Co 0.08501 0.48644 0.4569 0.0
Co454 Co 0.04468 0.51352 0.49087 0.0
O455 O 0.06257 0.48512 0.49139 0.0
H456 H 0.04911 0.46977 0.49218 0.0
O457 O 0.02749 0.54293 0.48711 0.0
Co458 Co 0.99283 0.54946 0.46031 0.0
Co459 Co 1.0047 0.53926 0.51981 0.0
H460 H 0.04137 0.55792 0.48916 0.0
O461 O 0.08579 0.45936 0.43527 0.0
O462 O 0.11556 0.4773 0.47394 0.0
O463 O 0.09406 0.51791 0.43437 0.0
O464 O 0.06663 0.53333 0.456 0.0
O465 O 1.01545 0.49804 0.45861 0.0
O466 O 0.96179 0.55631 0.43659 0.0
O467 O 0.99544 0.58498 0.45417 0.0
O468 O 0.98214 0.51441 0.4592 0.0
O469 O 0.02152 0.49172 0.52677 0.0
O470 O 0.99218 0.50822 0.54008 0.0
O471 O 0.976 0.54803 0.50131 0.0
O472 O 1.0054 0.56518 0.54155 0.0
C473 C 0.11374 0.45513 0.54133 0.0
C474 C 0.0996 0.53303 0.5266 0.0
C475 C 0.08449 0.53479 0.43692 0.0
C476 C 0.1084 0.46134 0.4509 0.0
C477 C 0.9717 0.57927 0.43907 0.0
C478 C 0.9909 0.49657 0.45725 0.0
C479 C 1.00086 0.49063 0.54142 0.0
C480 C 0.98356 0.56336 0.52409 0.0
O481 O 0.12613 0.47791 0.54069 0.0
O482 O 0.09019 0.44867 0.52599 0.0
O483 O 0.07452 0.53024 0.52353 0.0
O484 O 0.10979 0.51825 0.51545 0.0
Co485 Co 0.59871 0.97968 0.56052 0.0
Co486 Co 0.58818 0.98656 0.49943 0.0
Co487 Co 0.55251 0.00933 0.53706 0.0
O488 O 0.5679 0.98291 0.53398 0.0
H489 H 0.55429 0.96779 0.53309 0.0
O490 O 0.53742 0.03542 0.54132 0.0
Co491 Co 0.50568 0.03754 0.51904 0.0
Co492 Co 0.52094 0.03364 0.57882 0.0
H493 H 0.5511 0.05077 0.5401 0.0
O494 O 0.58866 0.95985 0.4806 0.0
O495 O 0.61619 0.97922 0.52095 0.0
O496 O 0.59904 0.01732 0.47764 0.0
O497 O 0.57524 0.03308 0.50457 0.0
O498 O 0.52475 0.99483 0.50194 0.0
O499 O 0.47773 0.04279 0.49782 0.0
O500 O 0.51606 0.06942 0.51473 0.0
O501 O 0.49109 1.00333 0.51947 0.0
O502 O 0.52989 0.98624 0.569 0.0
O503 O 0.51255 1.00354 0.60272 0.0
O504 O 0.49026 0.03906 0.56106 0.0
O505 O 0.52077 0.06111 0.59654 0.0
C506 C 0.61139 0.95149 0.58181 0.0
C507 C 0.60414 0.02833 0.57099 0.0
C508 C 0.59197 0.03491 0.48364 0.0
C509 C 0.60882 0.96188 0.5013 0.0
C510 C 0.49238 0.06481 0.50091 0.0
C511 C 0.49994 0.99026 0.50367 0.0
C512 C 0.51644 0.98525 0.5931 0.0
C513 C 0.49824 0.05703 0.57995 0.0
O514 O 0.62553 0.97367 0.58482 0.0
O515 O 0.58859 0.94691 0.56523 0.0
O516 O 0.57941 0.02361 0.57223 0.0
O517 O 0.61373 0.01361 0.56023 0.0
H518 H 0.20463 0.20478 0.28156 0.0
H519 H 0.17345 0.17228 0.31075 0.0
H520 H 0.22383 0.1877 0.39834 0.0
H521 H 0.25501 0.22078 0.36945 0.0
H522 H 0.17595 0.13162 0.34448 0.0
H523 H 0.15565 0.19224 0.42609 0.0
H524 H 0.17423 0.20318 0.39107 0.0
H525 H 0.18948 0.19347 0.42761 0.0
C526 C 0.20928 0.20124 0.307 0.0
C527 C 0.23225 0.21568 0.32321 0.0
C528 C 0.19137 0.18257 0.32367 0.0
C529 C 0.19597 0.17783 0.35691 0.0
C530 C 0.21951 0.1914 0.37287 0.0
H531 H 0.09553 0.07414 0.49041 0.0
H532 H 0.13363 0.1009 0.46403 0.0
C533 C 0.23741 0.21023 0.35624 0.0
C534 C 0.17558 0.15926 0.37476 0.0
H535 H 0.13392 0.15107 0.43492 0.0
C536 C 0.16685 0.13588 0.36433 0.0
C537 C 0.16355 0.16481 0.40059 0.0
C538 C 0.17098 0.18981 0.41188 0.0
C539 C 0.14638 0.11801 0.37889 0.0
C540 C 0.13433 0.12367 0.40444 0.0
C541 C 0.14334 0.14684 0.41535 0.0
C542 C 0.11159 0.10607 0.4194 0.0
C543 C 0.13764 0.09318 0.36691 0.0
C544 C 0.08659 0.10009 0.40294 0.0
C545 C 0.06467 0.085 0.41803 0.0
C546 C 0.0674 0.07546 0.44981 0.0
C547 C 0.09267 0.08105 0.46588 0.0
C548 C 0.1145 0.09637 0.45089 0.0
H549 H 0.15141 0.09074 0.35024 0.0
H550 H 0.1359 0.07979 0.38761 0.0
H551 H 0.11794 0.08965 0.35386 0.0
H552 H 0.08395 0.10758 0.37868 0.0
H553 H 0.04556 0.08104 0.40493 0.0
H554 H 0.85347 0.22624 0.40806 0.0
H555 H 0.87024 0.20848 0.45729 0.0
H556 H 0.84174 0.13955 0.41646 0.0
H557 H 0.8245 0.15708 0.36768 0.0
H558 H 0.8438 0.13835 0.48736 0.0
H559 H 0.93639 0.1947 0.43357 0.0
H560 H 0.9144 0.20909 0.44595 0.0
H561 H 0.90488 0.19073 0.41185 0.0
C562 C 0.85016 0.20718 0.41012 0.0
C563 C 0.8384 0.19304 0.38394 0.0
C564 C 0.85952 0.19707 0.43826 0.0
C565 C 0.85765 0.17286 0.44011 0.0
C566 C 0.84332 0.15829 0.41544 0.0
H567 H 0.91641 0.06506 0.4658 0.0
H568 H 0.88997 0.09122 0.4694 0.0
C569 C 0.83366 0.16832 0.3875 0.0
C570 C 0.87541 0.16375 0.46281 0.0
H571 H 0.93819 0.16203 0.46694 0.0
C572 C 0.86464 0.14392 0.48381 0.0
C573 C 0.90267 0.17134 0.45851 0.0
C574 C 0.91541 0.19256 0.43623 0.0
C575 C 0.88004 0.13012 0.49817 0.0
C576 C 0.90641 0.13601 0.49036 0.0
C577 C 0.91784 0.15739 0.47257 0.0
C578 C 0.92092 0.11848 0.49428 0.0
C579 C 0.86763 0.10873 0.52018 0.0
C580 C 0.94729 0.12532 0.50635 0.0
C581 C 0.96269 0.11075 0.50326 0.0
C582 C 0.95188 0.08895 0.48841 0.0
C583 C 0.92529 0.08179 0.47724 0.0
C584 C 0.90999 0.0965 0.47999 0.0
H585 H 0.85304 0.11231 0.53453 0.0
H586 H 0.857 0.09338 0.50536 0.0
H587 H 0.88255 0.10372 0.53702 0.0
H588 H 0.95623 0.14236 0.517 0.0
H589 H 0.98316 0.11677 0.51208 0.0
H590 H 0.81047 0.81125 0.3753 0.0
H591 H 0.84318 0.84059 0.40808 0.0
H592 H 0.86368 0.88752 0.32318 0.0
H593 H 0.83118 0.85821 0.28997 0.0
H594 H 0.90124 0.85998 0.38975 0.0
H595 H 0.85114 0.928 0.39877 0.0
H596 H 0.83305 0.89704 0.39278 0.0
H597 H 0.84952 0.91576 0.36014 0.0
C598 C 0.82167 0.82792 0.36357 0.0
C599 C 0.81826 0.83232 0.32993 0.0
C600 C 0.84036 0.84464 0.38238 0.0
C601 C 0.85571 0.86618 0.36802 0.0
C602 C 0.85184 0.87103 0.33469 0.0
H603 H 0.97944 0.98907 0.43845 0.0
H604 H 0.94291 0.96106 0.40856 0.0
C605 C 0.83329 0.85423 0.31577 0.0
C606 C 0.87704 0.88285 0.38749 0.0
H607 H 0.89474 0.93666 0.42143 0.0
C608 C 0.89988 0.87672 0.39685 0.0
C609 C 0.87517 0.90471 0.39627 0.0
C610 C 0.8509 0.9119 0.38669 0.0
C611 C 0.92122 0.89213 0.41437 0.0
C612 C 0.91926 0.91392 0.42379 0.0
C613 C 0.89626 0.91995 0.41441 0.0
C614 C 0.94105 0.93095 0.44263 0.0
C615 C 0.94593 0.88519 0.42153 0.0
C616 C 0.95193 0.92356 0.47211 0.0
C617 C 0.97321 0.93943 0.48887 0.0
C618 C 0.98352 0.96319 0.47697 0.0
C619 C 0.97194 0.97085 0.4482 0.0
C620 C 0.95103 0.95485 0.43111 0.0
H621 H 0.94714 0.87222 0.4044 0.0
H622 H 0.96377 0.901 0.42021 0.0
H623 H 0.94588 0.87654 0.44623 0.0
H624 H 0.94403 0.90547 0.48215 0.0
H625 H 0.98145 0.93314 0.51128 0.0
H626 H 0.24582 0.92434 0.32071 0.0
H627 H 0.23349 0.95024 0.35473 0.0
H628 H 0.20414 0.89056 0.42279 0.0
H629 H 0.21689 0.86486 0.38931 0.0
H630 H 0.1823 0.93957 0.36019 0.0
H631 H 0.23157 0.94395 0.48334 0.0
H632 H 0.24426 0.93461 0.44981 0.0
H633 H 0.21832 0.91381 0.47162 0.0
C634 C 0.23751 0.91702 0.34348 0.0
C635 C 0.23195 0.89263 0.35228 0.0
C636 C 0.23068 0.93181 0.36297 0.0
C637 C 0.21803 0.92234 0.39135 0.0
C638 C 0.21445 0.8984 0.40144 0.0
H639 H 0.08404 0.93548 0.46561 0.0
H640 H 0.11877 0.92483 0.44284 0.0
C641 C 0.22154 0.88366 0.38214 0.0
C642 C 0.20333 0.93554 0.40601 0.0
H643 H 0.18856 0.94979 0.47803 0.0
C644 C 0.18417 0.94234 0.38586 0.0
C645 C 0.20555 0.93887 0.43955 0.0
C646 C 0.22624 0.93261 0.46223 0.0
C647 C 0.16631 0.95124 0.39855 0.0
C648 C 0.16767 0.95335 0.43216 0.0
C649 C 0.18757 0.9478 0.45225 0.0
C650 C 0.14737 0.95982 0.44678 0.0
C651 C 0.14538 0.95745 0.37619 0.0
C652 C 0.15219 0.98306 0.45599 0.0
C653 C 0.13229 0.98935 0.46838 0.0
C654 C 0.10752 0.97231 0.47216 0.0
C655 C 0.10287 0.94901 0.46287 0.0
C656 C 0.12266 0.94285 0.45009 0.0
H657 H 0.14958 0.95848 0.35038 0.0
H658 H 0.12617 0.94358 0.37956 0.0
H659 H 0.14355 0.97477 0.38204 0.0
H660 H 0.17119 0.99634 0.45326 0.0
H661 H 0.13642 0.00746 0.47533 0.0
H662 H 0.23288 0.84835 0.59454 0.0
H663 H 0.22161 0.87565 0.55215 0.0
H664 H 0.22373 0.92419 0.62505 0.0
H665 H 0.23614 0.89791 0.66634 0.0
H666 H 0.18047 0.88532 0.5425 0.0
H667 H 0.25077 0.97257 0.55748 0.0
H668 H 0.25857 0.94633 0.57437 0.0
H669 H 0.24407 0.96238 0.59831 0.0
C670 C 0.23171 0.86528 0.60107 0.0
C671 C 0.23548 0.87117 0.63358 0.0
C672 C 0.22537 0.88087 0.57691 0.0
C673 C 0.22236 0.90237 0.58507 0.0
C674 C 0.22708 0.90841 0.61754 0.0
H675 H 0.08873 0.9341 0.57368 0.0
H676 H 0.12293 0.91683 0.56535 0.0
C677 C 0.2339 0.89317 0.6414 0.0
C678 C 0.20956 0.91641 0.56188 0.0
H679 H 0.20253 0.97128 0.56008 0.0
C680 C 0.18572 0.90434 0.54521 0.0
C681 C 0.21688 0.94146 0.56262 0.0
C682 C 0.24421 0.95632 0.57383 0.0
C683 C 0.16714 0.91598 0.53508 0.0
C684 C 0.17193 0.93967 0.54395 0.0
C685 C 0.19766 0.9527 0.55492 0.0
C686 C 0.1503 0.94992 0.54672 0.0
C687 C 0.14243 0.90236 0.51609 0.0
C688 C 0.15454 0.97458 0.54143 0.0
C689 C 0.13581 0.98465 0.54895 0.0
C690 C 0.11187 0.97014 0.56024 0.0
C691 C 0.10707 0.94552 0.56474 0.0
C692 C 0.12645 0.93561 0.55909 0.0
H693 H 0.14746 0.89313 0.4967 0.0
H694 H 0.12984 0.88836 0.53221 0.0
H695 H 0.13119 0.91408 0.50481 0.0
H696 H 0.17245 0.98621 0.53173 0.0
H697 H 0.13966 1.00372 0.54486 0.0
H698 H 0.22351 0.23329 0.68743 0.0
H699 H 0.19023 0.20082 0.66132 0.0
H700 H 0.1856 0.15686 0.75004 0.0
H701 H 0.21893 0.18997 0.77696 0.0
H702 H 0.19412 0.15679 0.6526 0.0
H703 H 0.10846 0.14971 0.72271 0.0
H704 H 0.13795 0.17504 0.72453 0.0
H705 H 0.13766 0.14722 0.74549 0.0
C706 C 0.2154 0.21677 0.70157 0.0
C707 C 0.2239 0.21408 0.73422 0.0
C708 C 0.19636 0.19823 0.68655 0.0
C709 C 0.18545 0.17647 0.70371 0.0
C710 C 0.19357 0.17367 0.73651 0.0
H711 H 0.08106 0.05271 0.60497 0.0
H712 H 0.11494 0.07747 0.64182 0.0
C713 C 0.21258 0.1925 0.75181 0.0
C714 C 0.16611 0.15693 0.68627 0.0
H715 H 0.10092 0.12506 0.67894 0.0
C716 C 0.17382 0.14959 0.65861 0.0
C717 C 0.13964 0.14772 0.69414 0.0
C718 C 0.13025 0.15536 0.72318 0.0
C719 C 0.15554 0.13397 0.63795 0.0
C720 C 0.12903 0.12538 0.64532 0.0
C721 C 0.12139 0.13188 0.67354 0.0
C722 C 0.10876 0.11053 0.62301 0.0
C723 C 0.1643 0.12741 0.60765 0.0
C724 C 0.09438 0.12116 0.60024 0.0
C725 C 0.07503 0.10714 0.57908 0.0
C726 C 0.06982 0.08229 0.5805 0.0
C727 C 0.08458 0.07181 0.60323 0.0
C728 C 0.10388 0.08585 0.62436 0.0
H729 H 0.18579 0.13544 0.60556 0.0
H730 H 0.15914 0.10773 0.6074 0.0
H731 H 0.1538 0.13353 0.58612 0.0
H732 H 0.09813 0.14028 0.59892 0.0
H733 H 0.06405 0.11573 0.56184 0.0
H734 H 0.83082 0.1747 0.6897 0.0
H735 H 0.8466 0.15154 0.65541 0.0
H736 H 0.86389 0.10972 0.73949 0.0
H737 H 0.84914 0.13373 0.77409 0.0
H738 H 0.90467 0.12667 0.7072 0.0
H739 H 0.82179 0.08781 0.61903 0.0
H740 H 0.82838 0.11939 0.61924 0.0
H741 H 0.81751 0.10079 0.65501 0.0
C742 C 0.83728 0.16011 0.70074 0.0
C743 C 0.83878 0.15593 0.73448 0.0
C744 C 0.84614 0.14675 0.68107 0.0
C745 C 0.85607 0.1286 0.69474 0.0
C746 C 0.85622 0.12358 0.72838 0.0
H747 H 0.92067 0.04531 0.58109 0.0
H748 H 0.89103 0.05782 0.61174 0.0
C749 C 0.84782 0.13725 0.74812 0.0
C750 C 0.86975 0.11739 0.6747 0.0
H751 H 0.86521 0.09197 0.60276 0.0
C752 C 0.89579 0.1187 0.68466 0.0
C753 C 0.85824 0.10688 0.64531 0.0
C754 C 0.82984 0.10341 0.63424 0.0
C755 C 0.91089 0.11051 0.66571 0.0
C756 C 0.89997 0.10149 0.63536 0.0
C757 C 0.87365 0.09931 0.6258 0.0
C758 C 0.91591 0.09452 0.61336 0.0
C759 C 0.93846 0.11164 0.67847 0.0
C760 C 0.93908 0.11125 0.60307 0.0
C761 C 0.9562 0.10409 0.58628 0.0
C762 C 0.95011 0.08018 0.57871 0.0
C763 C 0.92596 0.0638 0.5869 0.0
C764 C 0.909 0.07092 0.60428 0.0
H765 H 0.94087 0.11207 0.70525 0.0
H766 H 0.94367 0.09615 0.67139 0.0
H767 H 0.95255 0.12819 0.66839 0.0
H768 H 0.94436 0.12971 0.60902 0.0
H769 H 0.97441 0.11724 0.57965 0.0
H770 H 0.82644 0.82615 0.69054 0.0
H771 H 0.85929 0.86131 0.66919 0.0
H772 H 0.88886 0.88131 0.76607 0.0
H773 H 0.85579 0.84572 0.78805 0.0
H774 H 0.86835 0.91111 0.6814 0.0
H775 H 0.95367 0.87863 0.72007 0.0
H776 H 0.92033 0.85875 0.71808 0.0
H777 H 0.93182 0.87879 0.75015 0.0
C778 C 0.83983 0.83794 0.70751 0.0
C779 C 0.83854 0.83302 0.7411 0.0
C780 C 0.85856 0.85812 0.69516 0.0
C781 C 0.87652 0.8738 0.71602 0.0
C782 C 0.87525 0.86923 0.7496 0.0
H783 H 1.0159 0.98469 0.6516 0.0
H784 H 0.98181 0.96003 0.68584 0.0
C785 C 0.85636 0.84895 0.76209 0.0
C786 C 0.89687 0.89446 0.702 0.0
H787 H 0.96176 0.91405 0.68758 0.0
C788 C 0.88888 0.91201 0.68305 0.0
C789 C 0.92355 0.89555 0.70435 0.0
C790 C 0.93302 0.87692 0.72408 0.0
C791 C 0.90684 0.9304 0.66574 0.0
C792 C 0.93333 0.9308 0.66672 0.0
C793 C 0.94145 0.91373 0.68671 0.0
C794 C 0.95279 0.94789 0.64612 0.0
C795 C 0.89714 0.94912 0.64663 0.0
C796 C 0.94778 0.94953 0.61236 0.0
C797 C 0.9671 0.96399 0.59278 0.0
C798 C 0.99201 0.97653 0.60657 0.0
C799 C 0.9969 0.9751 0.64033 0.0
C800 C 0.97743 0.96104 0.65991 0.0
H801 H 0.87999 0.95135 0.65735 0.0
H802 H 0.91277 0.96666 0.64541 0.0
H803 H 0.89067 0.94344 0.62165 0.0
H804 H 0.92926 0.939 0.601 0.0
H805 H 0.96292 0.96454 0.56679 0.0
H806 H 0.29338 0.22688 0.18844 0.0
H807 H 0.31538 0.20313 0.16332 0.0
H808 H 0.37146 0.21079 0.24546 0.0
H809 H 0.34949 0.23489 0.27051 0.0
H810 H 0.39933 0.20952 0.19947 0.0
H811 H 0.31119 0.13638 0.16458 0.0
H812 H 0.30913 0.16427 0.14628 0.0
H813 H 0.30978 0.1592 0.18967 0.0
C814 C 0.31029 0.22358 0.20172 0.0
C815 C 0.31872 0.23354 0.23253 0.0
C816 C 0.32315 0.20931 0.18702 0.0
C817 C 0.34571 0.20356 0.20171 0.0
C818 C 0.3544 0.21389 0.23233 0.0
H819 H 0.39841 0.08572 0.11974 0.0
H820 H 0.37574 0.10902 0.14551 0.0
C821 C 0.34141 0.22806 0.24716 0.0
C822 C 0.3602 0.18776 0.18543 0.0
H823 H 0.35018 0.13739 0.14133 0.0
C824 C 0.38813 0.19379 0.18686 0.0
C825 C 0.34719 0.16624 0.16881 0.0
C826 C 0.31771 0.15591 0.16747 0.0
C827 C 0.40243 0.18033 0.17274 0.0
C828 C 0.38946 0.15942 0.15467 0.0
C829 C 0.36147 0.1531 0.15392 0.0
C830 C 0.40405 0.14406 0.13744 0.0
C831 C 0.43187 0.18865 0.17896 0.0
C832 C 0.42818 0.15429 0.12219 0.0
C833 C 0.44168 0.14054 0.10772 0.0
C834 C 0.43206 0.11523 0.10587 0.0
C835 C 0.40741 0.10485 0.11985 0.0
C836 C 0.39407 0.11865 0.13504 0.0
H837 H 0.43803 0.19863 0.20132 0.0
H838 H 0.4399 0.17345 0.18155 0.0
H839 H 0.44072 0.20099 0.15859 0.0
H840 H 0.43694 0.17342 0.12077 0.0
H841 H 0.46007 0.15019 0.09736 0.0
H842 H 0.85102 0.32922 0.21873 0.0
H843 H 0.87878 0.36343 0.18835 0.0
H844 H 0.81345 0.3908 0.16684 0.0
H845 H 0.78547 0.35665 0.19787 0.0
H846 H 0.87531 0.37875 0.12512 0.0
H847 H 0.86938 0.44848 0.20276 0.0
H848 H 0.85802 0.41713 0.21489 0.0
H849 H 0.8384 0.42979 0.18609 0.0
C850 C 0.8424 0.34243 0.20757 0.0
C851 C 0.81589 0.34006 0.21096 0.0
C852 C 0.8584 0.36207 0.19011 0.0
C853 C 0.84846 0.38 0.17556 0.0
C854 C 0.82185 0.37754 0.17835 0.0
H855 H 0.9412 0.48969 0.03816 0.0
H856 H 0.90413 0.45995 0.0633 0.0
C857 C 0.80577 0.35785 0.19594 0.0
C858 C 0.86617 0.401 0.1575 0.0
H859 H 0.89464 0.46162 0.15744 0.0
C860 C 0.87932 0.39688 0.13204 0.0
C861 C 0.87164 0.42474 0.16655 0.0
C862 C 0.85883 0.43041 0.19421 0.0
C863 C 0.89789 0.41562 0.1158 0.0
C864 C 0.90351 0.43929 0.12504 0.0
C865 C 0.89017 0.44352 0.15018 0.0
C866 C 0.92466 0.45944 0.11048 0.0
C867 C 0.91215 0.4099 0.08961 0.0
C868 C 0.94825 0.46969 0.12885 0.0
C869 C 0.96949 0.48661 0.11456 0.0
C870 C 0.96755 0.49399 0.08159 0.0
C871 C 0.94336 0.48467 0.06366 0.0
C872 C 0.92219 0.46749 0.07793 0.0
H873 H 0.90834 0.39041 0.0885 0.0
H874 H 0.9056 0.41687 0.06583 0.0
H875 H 0.93365 0.41867 0.09361 0.0
H876 H 0.95065 0.46382 0.15399 0.0
H877 H 0.98777 0.49334 0.12911 0.0
H878 H 0.72987 0.82349 0.18248 0.0
H879 H 0.70296 0.84851 0.15933 0.0
H880 H 0.68329 0.856 0.25451 0.0
H881 H 0.70969 0.83053 0.27757 0.0
H882 H 0.65125 0.84909 0.15185 0.0
H883 H 0.69869 0.92533 0.22704 0.0
H884 H 0.71238 0.90133 0.22575 0.0
H885 H 0.68543 0.89782 0.25022 0.0
C886 C 0.71999 0.83028 0.19904 0.0
C887 C 0.72316 0.82396 0.23291 0.0
C888 C 0.70402 0.84508 0.1853 0.0
C889 C 0.69012 0.85571 0.20403 0.0
C890 C 0.69332 0.84941 0.23795 0.0
H891 H 0.59885 0.96605 0.1654 0.0
H892 H 0.6237 0.93929 0.18645 0.0
C893 C 0.70883 0.83417 0.25164 0.0
C894 C 0.67271 0.8726 0.1885 0.0
H895 H 0.66107 0.92703 0.1945 0.0
C896 C 0.65376 0.86613 0.16158 0.0
C897 C 0.67429 0.89551 0.19953 0.0
C898 C 0.6939 0.90566 0.227 0.0
C899 C 0.63705 0.88026 0.14722 0.0
C900 C 0.63886 0.90351 0.15786 0.0
C901 C 0.65811 0.90995 0.18471 0.0
C902 C 0.62142 0.92078 0.14293 0.0
C903 C 0.61651 0.86896 0.12125 0.0
C904 C 0.6099 0.92158 0.11015 0.0
C905 C 0.59427 0.93713 0.09782 0.0
C906 C 0.58917 0.95411 0.11668 0.0
C907 C 0.60118 0.95378 0.14894 0.0
C908 C 0.61619 0.93793 0.16142 0.0
H909 H 0.61193 0.84926 0.12252 0.0
H910 H 0.59798 0.87299 0.12331 0.0
H911 H 0.62401 0.87578 0.09722 0.0
H912 H 0.61339 0.91054 0.09289 0.0
H913 H 0.58678 0.93621 0.07273 0.0
H914 H 0.25089 0.71473 0.19383 0.0
H915 H 0.21876 0.68684 0.15819 0.0
H916 H 0.1573 0.71157 0.18634 0.0
H917 H 0.18899 0.73917 0.22203 0.0
H918 H 0.14248 0.6627 0.18722 0.0
H919 H 0.18419 0.70181 0.07064 0.0
H920 H 0.20686 0.69382 0.10038 0.0
H921 H 0.19388 0.71722 0.10764 0.0
C922 C 0.23055 0.7143 0.19239 0.0
C923 C 0.22271 0.7294 0.21086 0.0
C924 C 0.21218 0.69841 0.17178 0.0
C925 C 0.18552 0.69723 0.16909 0.0
C926 C 0.17768 0.71211 0.18776 0.0
H927 H 0.05921 0.63533 0.02446 0.0
H928 H 0.09497 0.66127 0.0581 0.0
C929 C 0.19596 0.72799 0.20821 0.0
C930 C 0.16554 0.68027 0.14754 0.0
H931 H 0.14821 0.66623 0.06858 0.0
C932 C 0.14383 0.66344 0.16129 0.0
C933 C 0.16696 0.68133 0.11357 0.0
C934 C 0.18907 0.69963 0.09702 0.0
C935 C 0.12369 0.64774 0.14224 0.0
C936 C 0.12532 0.64851 0.10833 0.0
C937 C 0.14697 0.66541 0.09453 0.0
C938 C 0.10432 0.63247 0.0868 0.0
C939 C 0.10044 0.6309 0.15857 0.0
C940 C 0.09784 0.60751 0.09104 0.0
C941 C 0.07732 0.59258 0.0718 0.0
C942 C 0.06277 0.60219 0.04765 0.0
C943 C 0.06982 0.6272 0.04282 0.0
C944 C 0.09036 0.64211 0.06208 0.0
H945 H 0.09888 0.6366 0.18286 0.0
H946 H 0.08184 0.62961 0.14372 0.0
H947 H 0.10272 0.61286 0.16171 0.0
H948 H 0.1086 0.59953 0.1094 0.0
H949 H 0.07269 0.57345 0.07615 0.0
H950 H 0.30305 0.82771 0.84928 0.0
H951 H 0.3302 0.85928 0.88408 0.0
H952 H 0.40007 0.84848 0.85522 0.0
H953 H 0.37309 0.81693 0.82056 0.0
H954 H 0.36556 0.86041 0.93707 0.0
H955 H 0.41938 0.92033 0.84006 0.0
H956 H 0.39052 0.89529 0.83161 0.0
H957 H 0.42195 0.89079 0.84132 0.0
C958 C 0.3242 0.83199 0.85017 0.0
C959 C 0.3355 0.81937 0.83155 0.0
C960 C 0.33989 0.85024 0.87034 0.0
C961 C 0.36765 0.85707 0.87246 0.0
C962 C 0.37894 0.84437 0.85402 0.0
H963 H 0.47793 0.93692 0.02649 0.0
H964 H 0.44833 0.90731 0.99153 0.0
C965 C 0.36327 0.82596 0.83413 0.0
C966 C 0.3846 0.87698 0.89411 0.0
H967 H 0.43532 0.93022 0.89403 0.0
C968 C 0.38074 0.87563 0.92742 0.0
C969 C 0.40447 0.89746 0.88228 0.0
C970 C 0.40925 0.90129 0.84683 0.0
C971 C 0.3962 0.89329 0.94875 0.0
C972 C 0.41667 0.91336 0.93712 0.0
C973 C 0.42005 0.91506 0.90365 0.0
C974 C 0.43492 0.93228 0.95926 0.0
C975 C 0.39002 0.89037 0.98375 0.0
C976 C 0.43835 0.95697 0.95341 0.0
C977 C 0.45556 0.97435 0.97387 0.0
C978 C 0.47046 0.96782 0.0008 0.0
C979 C 0.46698 0.94311 0.00642 0.0
C980 C 0.4497 0.92585 0.98625 0.0
H981 H 0.36952 0.87885 0.98692 0.0
H982 H 0.40337 0.88177 -0.00196 0.0
H983 H 0.39283 0.90788 0.99376 0.0
H984 H 0.42758 0.9629 0.93292 0.0
H985 H 0.45757 0.99298 0.96814 0.0
H986 H 0.14684 0.32189 0.86942 0.0
H987 H 0.12653 0.34879 0.88996 0.0
H988 H 0.20224 0.39133 0.92955 0.0
H989 H 0.22274 0.3645 0.90902 0.0
H990 H 0.12463 0.36023 0.9521 0.0
H991 H 0.17596 0.44191 0.87942 0.0
H992 H 0.17646 0.4127 0.87094 0.0
H993 H 0.19737 0.42833 0.90361 0.0
C994 C 0.15924 0.33691 0.88258 0.0
C995 C 0.18654 0.34096 0.88737 0.0
C996 C 0.14756 0.35237 0.89426 0.0
C997 C 0.16281 0.37239 0.91097 0.0
C998 C 0.19004 0.37641 0.91607 0.0
H999 H 0.11494 0.48566 0.98876 0.0
H1000 H 0.14073 0.46067 0.97491 0.0
C1001 C 0.20177 0.36098 0.90428 0.0
C1002 C 0.15001 0.38866 0.92343 0.0
H1003 H 0.14836 0.44619 0.91776 0.0
C1004 C 0.12986 0.37903 0.94453 0.0
C1005 C 0.15689 0.4133 0.91397 0.0
C1006 C 0.17768 0.42471 0.89053 0.0
C1007 C 0.11635 0.39316 0.95617 0.0
C1008 C 0.12276 0.41768 0.94604 0.0
C1009 C 0.14338 0.42747 0.92563 0.0
C1010 C 0.10732 0.43308 0.95474 0.0
C1011 C 0.09547 0.38149 0.97944 0.0
C1012 C 0.08002 0.42628 0.94753 0.0
C1013 C 0.06532 0.44044 0.9555 0.0
C1014 C 0.0775 0.46208 0.97044 0.0
C1015 C 0.10494 0.46923 0.97704 0.0
C1016 C 0.11969 0.45489 0.96923 0.0
H1017 H 0.10039 0.36698 0.99472 0.0
H1018 H 0.09276 0.39441 -0.00448 0.0
H1019 H 0.07654 0.37339 0.96548 0.0
H1020 H 0.06999 0.40995 0.93559 0.0
H1021 H 0.04428 0.43435 0.94985 0.0
H1022 H 0.71237 0.25115 0.8542 0.0
H1023 H 0.67965 0.22259 0.88714 0.0
H1024 H 0.69181 0.16451 0.84182 0.0
H1025 H 0.72559 0.19295 0.81052 0.0
H1026 H 0.63528 0.1936 0.87892 0.0
H1027 H 0.6934 0.13563 0.92886 0.0
H1028 H 0.70796 0.16321 0.90616 0.0
H1029 H 0.69106 0.13628 0.88564 0.0
C1030 C 0.70832 0.23228 0.85148 0.0
C1031 C 0.72213 0.22461 0.8297 0.0
C1032 C 0.68938 0.21576 0.87043 0.0
C1033 C 0.68314 0.19084 0.86816 0.0
C1034 C 0.69653 0.18328 0.84568 0.0
H1035 H 0.53157 0.09402 0.93202 0.0
H1036 H 0.56778 0.12057 0.90256 0.0
C1037 C 0.71587 0.19976 0.82727 0.0
C1038 C 0.66209 0.17311 0.88813 0.0
H1039 H 0.64695 0.11959 0.93325 0.0
C1040 C 0.63815 0.17755 0.89089 0.0
C1041 C 0.66526 0.15206 0.9049 0.0
C1042 C 0.69092 0.14665 0.90657 0.0
C1043 C 0.61769 0.16186 0.90875 0.0
C1044 C 0.62014 0.14001 0.92358 0.0
C1045 C 0.64431 0.13582 0.9216 0.0
C1046 C 0.59803 0.12156 0.94111 0.0
C1047 C 0.59397 0.16954 0.91234 0.0
C1048 C 0.60243 0.11121 0.9722 0.0
C1049 C 0.58151 0.09503 0.98887 0.0
C1050 C 0.5554 0.08871 0.97511 0.0
C1051 C 0.55125 0.09838 0.94365 0.0
C1052 C 0.57211 0.11406 0.92683 0.0
H1053 H 0.59901 0.18928 0.91044 0.0
H1054 H 0.57882 0.16249 0.89257 0.0
H1055 H 0.58545 0.16291 0.93591 0.0
H1056 H 0.622 0.11622 0.98414 0.0
H1057 H 0.58561 0.08837 0.01318 0.0
H1058 H 0.82306 0.74442 0.87366 0.0
H1059 H 0.84943 0.72082 0.90205 0.0
H1060 H 0.87375 0.70891 0.81095 0.0
H1061 H 0.84809 0.7327 0.78264 0.0
H1062 H 0.84622 0.67481 0.89974 0.0
H1063 H 0.94376 0.72903 0.86102 0.0
H1064 H 0.91561 0.73961 0.85518 0.0
H1065 H 0.92048 0.72012 0.82709 0.0
C1066 C 0.8343 0.73708 0.85965 0.0
C1067 C 0.83347 0.74085 0.8257 0.0
C1068 C 0.84937 0.72344 0.87598 0.0
C1069 C 0.8642 0.71328 0.85891 0.0
C1070 C 0.86327 0.71698 0.82504 0.0
H1071 H 0.91542 0.58984 0.9102 0.0
H1072 H 0.89275 0.61882 0.89243 0.0
C1073 C 0.84831 0.7306 0.80875 0.0
C1074 C 0.87966 0.698 0.87607 0.0
H1075 H 0.94004 0.68925 0.88245 0.0
C1076 C 0.8668 0.67818 0.89613 0.0
C1077 C 0.90676 0.70235 0.87214 0.0
C1078 C 0.92253 0.72408 0.85297 0.0
C1079 C 0.87978 0.66226 0.911 0.0
C1080 C 0.90641 0.66582 0.90543 0.0
C1081 C 0.9196 0.68618 0.88655 0.0
C1082 C 0.92038 0.64803 0.91756 0.0
C1083 C 0.86479 0.64175 0.93272 0.0
C1084 C 0.94399 0.65458 0.9374 0.0
C1085 C 0.95725 0.63784 0.94771 0.0
C1086 C 0.9474 0.61418 0.93808 0.0
C1087 C 0.92375 0.60778 0.91829 0.0
C1088 C 0.91054 0.62439 0.90818 0.0
H1089 H 0.84815 0.64556 0.94254 0.0
H1090 H 0.85658 0.62563 0.91857 0.0
H1091 H 0.87777 0.63772 0.95324 0.0
H1092 H 0.95219 0.67267 0.94496 0.0
H1093 H 0.97536 0.64352 0.96286 0.0
H1094 H 0.14026 0.30117 0.10565 0.0
H1095 H 0.11865 0.32881 0.0784 0.0
H1096 H 0.19049 0.38707 0.09179 0.0
H1097 H 0.21253 0.35944 0.11758 0.0
H1098 H 0.11336 0.36308 0.11302 0.0
H1099 H 0.1638 0.4062 0.00316 0.0
H1100 H 0.16448 0.37729 0.02019 0.0
H1101 H 0.18585 0.40408 0.0375 0.0
C1102 C 0.15172 0.31971 0.10168 0.0
C1103 C 0.178 0.32821 0.1141 0.0
C1104 C 0.13933 0.33548 0.08616 0.0
C1105 C 0.15303 0.35994 0.08279 0.0
C1106 C 0.1797 0.36821 0.09341 0.0
H1107 H 0.11471 0.49 0.07645 0.0
H1108 H 0.13632 0.45909 0.07868 0.0
C1109 C 0.19214 0.35246 0.10871 0.0
C1110 C 0.13853 0.37719 0.07396 0.0
H1111 H 0.13893 0.42706 0.02629 0.0
C1112 C 0.11859 0.37677 0.09362 0.0
C1113 C 0.14566 0.39518 0.04891 0.0
C1114 C 0.16594 0.39564 0.02601 0.0
C1115 C 0.10618 0.39435 0.08967 0.0
C1116 C 0.11378 0.41268 0.06523 0.0
C1117 C 0.13338 0.41298 0.04513 0.0
C1118 C 0.10159 0.4318 0.06084 0.0
C1119 C 0.08568 0.39371 0.11243 0.0
C1120 C 0.0751 0.42652 0.04988 0.0
C1121 C 0.06267 0.4439 0.04909 0.0
C1122 C 0.07666 0.46694 0.05884 0.0
C1123 C 0.1034 0.47233 0.06915 0.0
C1124 C 0.11582 0.45483 0.07006 0.0
H1125 H 0.0856 0.38095 0.13361 0.0
H1126 H 0.08905 0.41168 0.12129 0.0
H1127 H 0.06596 0.38815 0.09934 0.0
H1128 H 0.06393 0.4088 0.04254 0.0
H1129 H 0.04205 0.43923 0.04091 0.0
H1130 H 0.20905 0.73949 0.82723 0.0
H1131 H 0.17602 0.70727 0.85455 0.0
H1132 H 0.23253 0.66972 0.87901 0.0
H1133 H 0.2661 0.70227 0.85241 0.0
H1134 H 0.17454 0.64905 0.8346 0.0
H1135 H 0.17792 0.67766 0.95952 0.0
H1136 H 0.1829 0.69999 0.92642 0.0
H1137 H 0.20697 0.68508 0.93717 0.0
C1138 C 0.2147 0.72466 0.83898 0.0
C1139 C 0.2401 0.72323 0.83713 0.0
C1140 C 0.19579 0.70628 0.85456 0.0
C1141 C 0.2019 0.68617 0.86843 0.0
C1142 C 0.22755 0.68518 0.86831 0.0
H1143 H 0.08364 0.57003 0.96452 0.0
H1144 H 0.12602 0.5944 0.94578 0.0
C1145 C 0.24665 0.70376 0.85307 0.0
C1146 C 0.18063 0.66544 0.88015 0.0
H1147 H 0.14139 0.64522 0.94282 0.0
C1148 C 0.16748 0.64791 0.85843 0.0
C1149 C 0.17168 0.66416 0.9112 0.0
C1150 C 0.18556 0.68262 0.93517 0.0
C1151 C 0.14476 0.62952 0.8666 0.0
C1152 C 0.13499 0.6289 0.8971 0.0
C1153 C 0.14892 0.64582 0.91938 0.0
C1154 C 0.10945 0.6119 0.90567 0.0
C1155 C 0.13113 0.61117 0.84237 0.0
C1156 C 0.0861 0.61339 0.88889 0.0
C1157 C 0.06176 0.59953 0.89955 0.0
C1158 C 0.06038 0.58399 0.92727 0.0
C1159 C 0.08389 0.58176 0.94306 0.0
C1160 C 0.10818 0.59572 0.93248 0.0
H1161 H 0.14459 0.61027 0.8242 0.0
H1162 H 0.12319 0.59322 0.85459 0.0
H1163 H 0.11445 0.61608 0.82934 0.0
H1164 H 0.08671 0.62605 0.86839 0.0
H1165 H 0.0441 0.60176 0.88685 0.0
H1166 H 0.31613 0.24058 0.87537 0.0
H1167 H 0.34106 0.2175 0.90827 0.0
H1168 H 0.35298 0.1878 0.82228 0.0
H1169 H 0.32912 0.21148 0.78943 0.0
H1170 H 0.33842 0.17441 0.92586 0.0
H1171 H 0.42599 0.20339 0.85581 0.0
H1172 H 0.40008 0.21669 0.84808 0.0
H1173 H 0.3975 0.18914 0.83041 0.0
C1174 C 0.32415 0.22927 0.86325 0.0
C1175 C 0.32038 0.22848 0.82912 0.0
C1176 C 0.33861 0.21582 0.88237 0.0
C1177 C 0.35017 0.20084 0.86849 0.0
C1178 C 0.34569 0.19958 0.83445 0.0
H1179 H 0.42933 0.09333 0.93731 0.0
H1180 H 0.40607 0.11916 0.90863 0.0
C1181 C 0.33149 0.21316 0.81533 0.0
C1182 C 0.36625 0.18645 0.88931 0.0
H1183 H 0.42243 0.16952 0.89264 0.0
C1184 C 0.35692 0.17372 0.91846 0.0
C1185 C 0.39087 0.18503 0.88092 0.0
C1186 C 0.40435 0.1995 0.85233 0.0
C1187 C 0.37049 0.15958 0.93802 0.0
C1188 C 0.39459 0.15763 0.92899 0.0
C1189 C 0.40407 0.17049 0.90013 0.0
C1190 C 0.40955 0.14169 0.94806 0.0
C1191 C 0.35839 0.1461 0.96796 0.0
C1192 C 0.42025 0.14518 0.98051 0.0
C1193 C 0.43433 0.13033 -0.00273 0.0
C1194 C 0.43799 0.11101 0.98253 0.0
C1195 C 0.42717 0.10767 0.95016 0.0
C1196 C 0.41366 0.12269 0.93337 0.0
H1197 H 0.33769 0.14569 0.96877 0.0
H1198 H 0.35905 0.1275 0.96928 0.0
H1199 H 0.36982 0.15484 0.98963 0.0
H1200 H 0.41803 0.15968 0.99294 0.0
H1201 H 0.44209 0.13386 0.02194 0.0
H1202 H 0.78734 0.34408 0.82554 0.0
H1203 H 0.81321 0.37781 0.85675 0.0
H1204 H 0.86636 0.33899 0.89353 0.0
H1205 H 0.84051 0.30491 0.86224 0.0
H1206 H 0.8508 0.36751 0.94028 0.0
H1207 H 0.88755 0.41806 0.82616 0.0
H1208 H 0.85257 0.40512 0.82772 0.0
H1209 H 0.87274 0.38607 0.82852 0.0
C1210 C 0.80435 0.34252 0.84054 0.0
C1211 C 0.8121 0.32189 0.84104 0.0
C1212 C 0.8191 0.36186 0.85834 0.0
C1213 C 0.84188 0.36099 0.87692 0.0
C1214 C 0.84884 0.33996 0.87913 0.0
H1215 H 0.97467 0.44499 0.9833 0.0
H1216 H 0.93669 0.41523 0.96 0.0
C1217 C 0.83404 0.32051 0.86131 0.0
C1218 C 0.85943 0.38257 0.8922 0.0
H1219 H 0.90386 0.4369 0.87463 0.0
C1220 C 0.86226 0.38278 0.926 0.0
C1221 C 0.87403 0.40257 0.87339 0.0
C1222 C 0.87181 0.40307 0.83693 0.0
C1223 C 0.87987 0.40231 0.94157 0.0
C1224 C 0.89552 0.42179 0.92279 0.0
C1225 C 0.89183 0.42199 0.88897 0.0
C1226 C 0.91798 0.44055 0.93761 0.0
C1227 C 0.88171 0.40176 0.97803 0.0
C1228 C 0.92071 0.46493 0.93174 0.0
C1229 C 0.94289 0.48231 0.94482 0.0
C1230 C 0.96262 0.47546 0.96379 0.0
C1231 C 0.95977 0.45101 0.96918 0.0
C1232 C 0.93787 0.43384 0.95609 0.0
H1233 H 0.8628 0.39087 0.98779 0.0
H1234 H 0.89687 0.39345 0.98778 0.0
H1235 H 0.88722 0.41998 0.98693 0.0
H1236 H 0.90571 0.47047 0.9171 0.0
H1237 H 0.94455 0.50098 0.94021 0.0
H1238 H 0.6754 0.84857 0.87379 0.0
H1239 H 0.65147 0.87163 0.89665 0.0
H1240 H 0.72161 0.90863 0.9533 0.0
H1241 H 0.74558 0.8855 0.93103 0.0
H1242 H 0.64216 0.87484 0.96068 0.0
H1243 H 0.69904 0.96418 0.91061 0.0
H1244 H 0.70107 0.93694 0.89625 0.0
H1245 H 0.71853 0.94802 0.93358 0.0
C1246 C 0.68581 0.86149 0.89124 0.0
C1247 C 0.71269 0.86508 0.90018 0.0
C1248 C 0.67205 0.87483 0.90422 0.0
C1249 C 0.68471 0.89234 0.92638 0.0
C1250 C 0.71141 0.89579 0.93565 0.0
H1251 H 0.62659 0.98974 0.02809 0.0
H1252 H 0.65464 0.96911 0.00768 0.0
C1253 C 0.72517 0.88244 0.92276 0.0
C1254 C 0.6698 0.9064 0.94041 0.0
H1255 H 0.66756 0.96306 0.94729 0.0
C1256 C 0.64773 0.89413 0.95762 0.0
C1257 C 0.67707 0.93167 0.93697 0.0
C1258 C 0.70008 0.94603 0.91814 0.0
C1259 C 0.63296 0.90623 0.97145 0.0
C1260 C 0.63978 0.93147 0.96731 0.0
C1261 C 0.66212 0.9438 0.95055 0.0
C1262 C 0.62325 0.94507 0.97892 0.0
C1263 C 0.61044 0.89176 0.99104 0.0
C1264 C 0.59639 0.93916 0.96898 0.0
C1265 C 0.58041 0.9508 0.98069 0.0
C1266 C 0.59076 0.96913 0.00237 0.0
C1267 C 0.6179 0.97583 0.01137 0.0
C1268 C 0.63396 0.96394 -0.00024 0.0
H1269 H 0.61315 0.8746 0.00085 0.0
H1270 H 0.60827 0.90169 0.01151 0.0
H1271 H 0.59194 0.88752 0.97526 0.0
H1272 H 0.5876 0.92531 0.95219 0.0
H1273 H 0.55971 0.94523 0.97283 0.0
H1274 H 0.83703 0.70838 0.17631 0.0
H1275 H 0.85318 0.67704 0.16047 0.0
H1276 H 0.91635 0.73026 0.11422 0.0
H1277 H 0.90017 0.76176 0.12974 0.0
H1278 H 0.85811 0.66958 0.09513 0.0
H1279 H 0.9526 0.68664 0.16949 0.0
H1280 H 0.92668 0.69776 0.1789 0.0
H1281 H 0.94827 0.71286 0.148 0.0
C1282 C 0.85438 0.71338 0.16277 0.0
C1283 C 0.86725 0.73742 0.15387 0.0
C1284 C 0.86363 0.69551 0.15401 0.0
C1285 C 0.886 0.70147 0.13652 0.0
C1286 C 0.89929 0.72546 0.12827 0.0
H1287 H 0.97463 0.64868 0.02799 0.0
H1288 H 0.95146 0.66961 0.05577 0.0
C1289 C 0.89004 0.74337 0.13702 0.0
C1290 C 0.8943 0.68258 0.12454 0.0
H1291 H 0.9473 0.66323 0.12357 0.0
C1292 C 0.87741 0.66779 0.10169 0.0
C1293 C 0.91937 0.68035 0.13352 0.0
C1294 C 0.9377 0.69509 0.15907 0.0
C1295 C 0.88575 0.65188 0.08575 0.0
C1296 C 0.9114 0.65067 0.09343 0.0
C1297 C 0.92767 0.66441 0.11771 0.0
C1298 C 0.92302 0.63745 0.0742 0.0
C1299 C 0.86777 0.63758 0.05956 0.0
C1300 C 0.91406 0.61246 0.07469 0.0
C1301 C 0.92712 0.60041 0.05841 0.0
C1302 C 0.94944 0.61334 0.04214 0.0
C1303 C 0.95765 0.63833 0.04075 0.0
C1304 C 0.94448 0.65029 0.05657 0.0
H1305 H 0.84988 0.64307 0.05361 0.0
H1306 H 0.87824 0.63956 0.03724 0.0
H1307 H 0.86153 0.61842 0.0677 0.0
H1308 H 0.89764 0.60233 0.08849 0.0
H1309 H 0.92059 0.58109 0.05984 0.0
H1310 H 0.34962 0.81056 0.20838 0.0
H1311 H 0.37554 0.84646 0.1792 0.0
H1312 H 0.30538 0.86526 0.14952 0.0
H1313 H 0.27915 0.8294 0.17889 0.0
H1314 H 0.37326 0.86873 0.11374 0.0
H1315 H 0.35143 0.91801 0.21046 0.0
H1316 H 0.34509 0.88614 0.21424 0.0
H1317 H 0.32417 0.89866 0.1874 0.0
C1318 C 0.33956 0.82198 0.195 0.0
C1319 C 0.31244 0.81743 0.19653 0.0
C1320 C 0.3544 0.84245 0.17827 0.0
C1321 C 0.34235 0.85864 0.16286 0.0
C1322 C 0.31498 0.85306 0.16172 0.0
H1323 H 0.44379 0.99833 0.09098 0.0
H1324 H 0.40298 0.96693 0.10264 0.0
C1325 C 0.30006 0.83252 0.17842 0.0
C1326 C 0.35901 0.88249 0.15198 0.0
H1327 H 0.38438 0.9394 0.17653 0.0
C1328 C 0.37529 0.88434 0.12689 0.0
C1329 C 0.36161 0.90271 0.16946 0.0
C1330 C 0.3448 0.90145 0.19703 0.0
C1331 C 0.39501 0.90574 0.11977 0.0
C1332 C 0.39855 0.92547 0.13852 0.0
C1333 C 0.38141 0.92408 0.16236 0.0
C1334 C 0.42193 0.94653 0.13604 0.0
C1335 C 0.41287 0.90687 0.09342 0.0
C1336 C 0.44565 0.94583 0.15237 0.0
C1337 C 0.46899 0.96368 0.14594 0.0
C1338 C 0.4689 0.98245 0.12291 0.0
C1339 C 0.44464 0.98414 0.10882 0.0
C1340 C 0.42128 0.96618 0.11526 0.0
H1341 H 0.40541 0.89117 0.07832 0.0
H1342 H 0.41507 0.92333 0.07757 0.0
H1343 H 0.43266 0.90755 0.10449 0.0
H1344 H 0.44629 0.93074 0.16871 0.0
H1345 H 0.48724 0.9619 0.15742 0.0
H1346 H 0.74939 0.24878 0.16704 0.0
H1347 H 0.71844 0.22087 0.13041 0.0
H1348 H 0.65714 0.21091 0.1949 0.0
H1349 H 0.6874 0.23918 0.2307 0.0
H1350 H 0.69203 0.17469 0.13999 0.0
H1351 H 0.62029 0.22354 0.11086 0.0
H1352 H 0.65233 0.23724 0.1305 0.0
H1353 H 0.62556 0.21945 0.15379 0.0
C1354 C 0.7292 0.24087 0.17309 0.0
C1355 C 0.72074 0.24641 0.20153 0.0
C1356 C 0.71158 0.22492 0.15221 0.0
C1357 C 0.68533 0.21422 0.15954 0.0
C1358 C 0.67704 0.21955 0.18814 0.0
H1359 H 0.57168 0.08165 0.12097 0.0
H1360 H 0.61203 0.11349 0.13535 0.0
C1361 C 0.69445 0.23567 0.2087 0.0
C1362 C 0.66664 0.19657 0.13843 0.0
H1363 H 0.60366 0.18091 0.10518 0.0
C1364 C 0.67287 0.17623 0.13178 0.0
C1365 C 0.6419 0.19881 0.12698 0.0
C1366 C 0.63478 0.22109 0.13061 0.0
C1367 C 0.65434 0.15736 0.11587 0.0
C1368 C 0.62873 0.15864 0.10732 0.0
C1369 C 0.62314 0.17967 0.11212 0.0
C1370 C 0.60676 0.13802 0.09556 0.0
C1371 C 0.6624 0.13625 0.10866 0.0
C1372 C 0.59027 0.14112 0.06847 0.0
C1373 C 0.56685 0.12321 0.06087 0.0
C1374 C 0.55964 0.10176 0.07996 0.0
C1375 C 0.57687 0.09801 0.1058 0.0
C1376 C 0.60007 0.11614 0.11383 0.0
H1377 H 0.68371 0.14169 0.10492 0.0
H1378 H 0.65876 0.12303 0.1296 0.0
H1379 H 0.65119 0.12752 0.08685 0.0
H1380 H 0.59501 0.15779 0.05396 0.0
H1381 H 0.55402 0.12638 0.0405 0.0
H1382 H 0.74834 0.69 0.79843 0.0
H1383 H 0.71895 0.65505 0.82595 0.0
H1384 H 0.66986 0.69665 0.84553 0.0
H1385 H 0.69968 0.73193 0.819 0.0
H1386 H 0.67917 0.6706 0.89813 0.0
H1387 H 0.64817 0.61272 0.79407 0.0
H1388 H 0.68305 0.62308 0.80314 0.0
H1389 H 0.66593 0.6441 0.78939 0.0
C1390 C 0.73112 0.69167 0.80827 0.0
C1391 C 0.72624 0.71372 0.80634 0.0
C1392 C 0.71428 0.67161 0.82391 0.0
C1393 C 0.69194 0.67308 0.83735 0.0
C1394 C 0.68694 0.69506 0.83526 0.0
H1395 H 0.55089 0.57044 0.8927 0.0
H1396 H 0.58787 0.59736 0.86525 0.0
C1397 C 0.70396 0.71521 0.82001 0.0
C1398 C 0.67415 0.65201 0.85453 0.0
H1399 H 0.63364 0.59511 0.84488 0.0
C1400 C 0.66928 0.65406 0.88653 0.0
C1401 C 0.66122 0.63045 0.83931 0.0
C1402 C 0.66462 0.62745 0.8045 0.0
C1403 C 0.65137 0.6354 0.9035 0.0
C1404 C 0.6385 0.61381 0.88833 0.0
C1405 C 0.64382 0.61155 0.85659 0.0
C1406 C 0.61711 0.59464 0.90349 0.0
C1407 C 0.64546 0.63944 0.93692 0.0
C1408 C 0.62138 0.58325 0.93356 0.0
C1409 C 0.60013 0.56782 0.94953 0.0
C1410 C 0.57432 0.56353 0.93556 0.0
C1411 C 0.57045 0.57357 0.90437 0.0
C1412 C 0.59161 0.58895 0.88855 0.0
H1413 H 0.65295 0.65858 0.94231 0.0
H1414 H 0.62399 0.63287 0.93969 0.0
H1415 H 0.655 0.62947 0.95515 0.0
H1416 H 0.64101 0.58699 0.94519 0.0
H1417 H 0.6038 0.56029 0.97345 0.0
H1418 H 0.31378 0.61388 0.85437 0.0
H1419 H 0.32679 0.59537 0.90475 0.0
H1420 H 0.31882 0.65217 0.95725 0.0
H1421 H 0.30476 0.67021 0.90676 0.0
H1422 H 0.37026 0.65525 0.94452 0.0
H1423 H 0.32095 0.56606 -0.00128 0.0
H1424 H 0.31378 0.56717 0.95572 0.0
H1425 H 0.30314 0.58564 0.98006 0.0
C1426 C 0.31291 0.62137 0.87695 0.0
C1427 C 0.30874 0.6435 0.87696 0.0
C1428 C 0.32019 0.61075 0.90588 0.0
C1429 C 0.32414 0.62263 0.93469 0.0
C1430 C 0.31575 0.64269 0.93533 0.0
H1431 H 0.47969 0.61072 -0.00442 0.0
H1432 H 0.44325 0.62593 0.00179 0.0
C1433 C 0.30785 0.65303 0.90644 0.0
C1434 C 0.34558 0.61987 0.9578 0.0
H1435 H 0.36786 0.57464 0.98971 0.0
C1436 C 0.36982 0.63792 0.95568 0.0
C1437 C 0.34481 0.59747 0.97268 0.0
C1438 C 0.31917 0.57807 0.97724 0.0
C1439 C 0.39351 0.63282 0.96241 0.0
C1440 C 0.39264 0.60931 0.97319 0.0
C1441 C 0.36845 0.59247 0.98048 0.0
C1442 C 0.41517 0.60048 0.9711 0.0
C1443 C 0.41876 0.65188 0.95435 0.0
C1444 C 0.41156 0.58113 0.95201 0.0
C1445 C 0.43185 0.57173 0.94982 0.0
C1446 C 0.45644 0.58172 0.96625 0.0
C1447 C 0.4607 0.60218 0.9835 0.0
C1448 C 0.43997 0.61109 0.98672 0.0
H1449 H 0.41522 0.66774 0.94101 0.0
H1450 H 0.43073 0.65788 0.97706 0.0
H1451 H 0.43036 0.64484 0.93943 0.0
H1452 H 0.3928 0.57299 0.93904 0.0
H1453 H 0.42794 0.55624 0.93577 0.0
H1454 H 0.30378 0.34571 0.82298 0.0
H1455 H 0.33537 0.37887 0.85063 0.0
H1456 H 0.39905 0.36308 0.81167 0.0
H1457 H 0.36767 0.33008 0.78357 0.0
H1458 H 0.37311 0.3734 0.89707 0.0
H1459 H 0.4194 0.43533 0.79683 0.0
H1460 H 0.3886 0.41181 0.79104 0.0
H1461 H 0.41919 0.40534 0.79286 0.0
C1462 C 0.32448 0.34952 0.81978 0.0
C1463 C 0.33322 0.33517 0.80114 0.0
C1464 C 0.34248 0.36849 0.83562 0.0
C1465 C 0.36949 0.37356 0.83291 0.0
C1466 C 0.37824 0.35977 0.81352 0.0
H1467 H 0.51488 0.44696 0.93169 0.0
H1468 H 0.47824 0.42265 0.89771 0.0
C1469 C 0.36027 0.3408 0.79765 0.0
C1470 C 0.38866 0.39165 0.85283 0.0
H1471 H 0.44319 0.44055 0.84899 0.0
C1472 C 0.38818 0.38832 0.88659 0.0
C1473 C 0.40824 0.41108 0.83902 0.0
C1474 C 0.40878 0.41628 0.80294 0.0
C1475 C 0.40753 0.40331 0.90697 0.0
C1476 C 0.42768 0.42213 0.89312 0.0
C1477 C 0.42772 0.42595 0.85941 0.0
C1478 C 0.44964 0.43728 0.91331 0.0
C1479 C 0.40698 0.39837 0.94311 0.0
C1480 C 0.44553 0.45356 0.93313 0.0
C1481 C 0.4664 0.46751 0.95256 0.0
C1482 C 0.49169 0.46534 0.95248 0.0
C1483 C 0.49565 0.449 0.93246 0.0
C1484 C 0.4748 0.43517 0.91293 0.0
H1485 H 0.39225 0.38105 0.94976 0.0
H1486 H 0.42661 0.39827 0.95392 0.0
H1487 H 0.40199 0.41274 0.9539 0.0
H1488 H 0.42621 0.45547 0.93351 0.0
H1489 H 0.46268 0.47991 0.96772 0.0
H1490 H 0.73821 0.41342 0.80072 0.0
H1491 H 0.73387 0.44191 0.83748 0.0
H1492 H 0.6949 0.38362 0.90281 0.0
H1493 H 0.69993 0.35518 0.86678 0.0
H1494 H 0.68828 0.44507 0.85177 0.0
H1495 H 0.74213 0.42895 0.96617 0.0
H1496 H 0.74686 0.41846 0.92838 0.0
H1497 H 0.72014 0.40136 0.95218 0.0
C1498 C 0.72928 0.40672 0.82329 0.0
C1499 C 0.71924 0.38205 0.83076 0.0
C1500 C 0.72681 0.42301 0.84427 0.0
C1501 C 0.71451 0.41496 0.87322 0.0
C1502 C 0.70511 0.39034 0.88108 0.0
H1503 H 0.60227 0.43977 0.96318 0.0
H1504 H 0.63695 0.42845 0.94231 0.0
C1505 C 0.70755 0.37406 0.86015 0.0
C1506 C 0.70804 0.43179 0.89294 0.0
H1507 H 0.70471 0.44349 0.97117 0.0
C1508 C 0.69273 0.44541 0.87773 0.0
C1509 C 0.7139 0.43239 0.92683 0.0
C1510 C 0.73192 0.41968 0.94424 0.0
C1511 C 0.68116 0.45778 0.89577 0.0
C1512 C 0.68491 0.45641 0.92984 0.0
C1513 C 0.70193 0.44449 0.94499 0.0
C1514 C 0.66668 0.46248 0.94931 0.0
C1515 C 0.663 0.47045 0.87852 0.0
C1516 C 0.67234 0.48513 0.96148 0.0
C1517 C 0.65242 0.49161 0.97411 0.0
C1518 C 0.62675 0.47562 0.97379 0.0
C1519 C 0.6218 0.45258 0.96328 0.0
C1520 C 0.64162 0.446 0.95155 0.0
H1521 H 0.66613 0.47391 0.85232 0.0
H1522 H 0.64233 0.45921 0.88109 0.0
H1523 H 0.66585 0.48766 0.8894 0.0
H1524 H 0.69167 0.49807 0.95975 0.0
H1525 H 0.65665 0.50945 0.98216 0.0
H1526 H 0.73024 0.43629 0.22654 0.0
H1527 H 0.71716 0.45235 0.17403 0.0
H1528 H 0.75234 0.40963 0.12613 0.0
H1529 H 0.76546 0.39347 0.17844 0.0
H1530 H 0.73729 0.46937 0.10395 0.0
H1531 H 0.66806 0.37725 0.12378 0.0
H1532 H 0.68918 0.39233 0.15684 0.0
H1533 H 0.7029 0.38204 0.12553 0.0
C1534 C 0.73638 0.43129 0.20487 0.0
C1535 C 0.74823 0.41324 0.20649 0.0
C1536 C 0.72903 0.44055 0.17489 0.0
C1537 C 0.73339 0.43175 0.14638 0.0
C1538 C 0.74882 0.41655 0.14796 0.0
H1539 H 0.59159 0.42738 0.02232 0.0
H1540 H 0.63454 0.42032 0.03136 0.0
C1541 C 0.75632 0.40738 0.17796 0.0
C1542 C 0.71571 0.43302 0.11754 0.0
H1543 H 0.65299 0.40405 0.08959 0.0
C1544 C 0.71923 0.45485 0.09984 0.0
C1545 C 0.69231 0.41389 0.11198 0.0
C1546 C 0.68766 0.39 0.13045 0.0
C1547 C 0.69876 0.45873 0.07897 0.0
C1548 C 0.67419 0.44061 0.07687 0.0
C1549 C 0.67183 0.41793 0.09146 0.0
C1550 C 0.64969 0.44639 0.06764 0.0
C1551 C 0.70289 0.48274 0.06123 0.0
C1552 C 0.64389 0.46278 0.08566 0.0
C1553 C 0.61958 0.46647 0.08098 0.0
C1554 C 0.60049 0.45383 0.05813 0.0
C1555 C 0.60612 0.43734 0.04 0.0
C1556 C 0.63059 0.43348 0.04494 0.0
H1557 H 0.72347 0.4904 0.05432 0.0
H1558 H 0.68934 0.48154 0.03912 0.0
H1559 H 0.69929 0.49519 0.07737 0.0
H1560 H 0.65795 0.47229 0.10416 0.0
H1561 H 0.61587 0.47945 0.09511 0.0
H1562 H 0.7624 0.7206 0.18841 0.0
H1563 H 0.73582 0.68914 0.1534 0.0
H1564 H 0.66726 0.68384 0.20312 0.0
H1565 H 0.69361 0.71459 0.23859 0.0
H1566 H 0.67005 0.64052 0.19327 0.0
H1567 H 0.68481 0.69719 0.0789 0.0
H1568 H 0.71443 0.695 0.10075 0.0
H1569 H 0.69452 0.70942 0.11807 0.0
C1570 C 0.74167 0.71268 0.19193 0.0
C1571 C 0.73013 0.72022 0.21625 0.0
C1572 C 0.72647 0.6948 0.17175 0.0
C1573 C 0.69943 0.68439 0.17525 0.0
C1574 C 0.68806 0.69162 0.19988 0.0
H1575 H 0.57003 0.61514 0.04609 0.0
H1576 H 0.60632 0.64213 0.07738 0.0
C1577 C 0.7032 0.70928 0.22016 0.0
C1578 C 0.68259 0.66604 0.15344 0.0
H1579 H 0.65858 0.65712 0.07496 0.0
C1580 C 0.66767 0.64407 0.16735 0.0
C1581 C 0.67935 0.67078 0.11966 0.0
C1582 C 0.69392 0.69443 0.10339 0.0
C1583 C 0.64903 0.62701 0.14868 0.0
C1584 C 0.64574 0.63175 0.11488 0.0
C1585 C 0.66122 0.65344 0.10082 0.0
C1586 C 0.62486 0.61536 0.09416 0.0
C1587 C 0.63217 0.60462 0.16565 0.0
C1588 C 0.62348 0.5914 0.09248 0.0
C1589 C 0.60247 0.57579 0.07492 0.0
C1590 C 0.58273 0.58397 0.05821 0.0
C1591 C 0.58486 0.60822 0.0587 0.0
C1592 C 0.60564 0.62371 0.07658 0.0
H1593 H 0.63268 0.60648 0.19207 0.0
H1594 H 0.61143 0.59998 0.15562 0.0
H1595 H 0.63959 0.5896 0.16219 0.0
H1596 H 0.63846 0.58468 0.10508 0.0
H1597 H 0.60159 0.55728 0.07465 0.0
H1598 H 0.33814 0.64884 0.21461 0.0
H1599 H 0.3566 0.62759 0.18026 0.0
H1600 H 0.38867 0.69258 0.12248 0.0
H1601 H 0.37044 0.71409 0.15693 0.0
H1602 H 0.36526 0.64586 0.08794 0.0
H1603 H 0.44026 0.64695 0.19002 0.0
H1604 H 0.40654 0.63604 0.19998 0.0
H1605 H 0.4205 0.66672 0.18653 0.0
C1606 C 0.34887 0.65853 0.19436 0.0
C1607 C 0.35327 0.68316 0.1887 0.0
C1608 C 0.3592 0.64636 0.1747 0.0
C1609 C 0.3741 0.65866 0.14919 0.0
C1610 C 0.37711 0.68288 0.1421 0.0
H1611 H 0.49695 0.62334 0.06953 0.0
H1612 H 0.46877 0.64286 0.0903 0.0
C1613 C 0.36672 0.6951 0.16175 0.0
C1614 C 0.38914 0.64691 0.13262 0.0
H1615 H 0.44134 0.62571 0.1451 0.0
C1616 C 0.38188 0.64137 0.1003 0.0
C1617 C 0.41102 0.64157 0.14887 0.0
C1618 C 0.42029 0.64825 0.18319 0.0
C1619 C 0.3959 0.63019 0.08384 0.0
C1620 C 0.41736 0.62427 0.1004 0.0
C1621 C 0.42469 0.63009 0.13262 0.0
C1622 C 0.43336 0.61287 0.08471 0.0
C1623 C 0.38817 0.62531 0.0488 0.0
C1624 C 0.42267 0.58952 0.07459 0.0
C1625 C 0.43881 0.57818 0.06275 0.0
C1626 C 0.46584 0.59005 0.0611 0.0
C1627 C 0.47628 0.61357 0.07082 0.0
C1628 C 0.46019 0.62484 0.08251 0.0
H1629 H 0.37451 0.63496 0.03789 0.0
H1630 H 0.4059 0.63059 0.03483 0.0
H1631 H 0.37828 0.60592 0.04672 0.0
H1632 H 0.40204 0.57989 0.07658 0.0
H1633 H 0.43017 0.56014 0.0551 0.0
H1634 H 0.293 0.34037 0.18576 0.0
H1635 H 0.32242 0.3725 0.15335 0.0
H1636 H 0.38299 0.38234 0.23116 0.0
H1637 H 0.354 0.35024 0.26362 0.0
H1638 H 0.35519 0.4231 0.16483 0.0
H1639 H 0.41182 0.36083 0.15274 0.0
H1640 H 0.37904 0.35089 0.1664 0.0
H1641 H 0.40658 0.36506 0.19352 0.0
C1642 C 0.31242 0.34962 0.19623 0.0
C1643 C 0.32127 0.34241 0.22713 0.0
C1644 C 0.32916 0.36805 0.17769 0.0
C1645 C 0.35495 0.37957 0.18975 0.0
C1646 C 0.36322 0.37349 0.22132 0.0
H1647 H 0.4826 0.49444 0.10624 0.0
H1648 H 0.44484 0.47268 0.13758 0.0
C1649 C 0.3466 0.35507 0.23981 0.0
C1650 C 0.37416 0.39593 0.1683 0.0
H1651 H 0.42954 0.40024 0.13144 0.0
C1652 C 0.37145 0.41818 0.1574 0.0
C1653 C 0.39512 0.38927 0.15836 0.0
C1654 C 0.39831 0.36515 0.16807 0.0
C1655 C 0.3895 0.43412 0.13709 0.0
C1656 C 0.41081 0.42761 0.12781 0.0
C1657 C 0.41326 0.40527 0.13861 0.0
C1658 C 0.43072 0.44311 0.10629 0.0
C1659 C 0.38537 0.45752 0.12529 0.0
C1660 C 0.4351 0.43397 0.07808 0.0
C1661 C 0.45679 0.44607 0.06067 0.0
C1662 C 0.47452 0.46772 0.0709 0.0
C1663 C 0.4692 0.4778 0.09782 0.0
C1664 C 0.44756 0.46544 0.11562 0.0
H1665 H 0.36493 0.45727 0.12784 0.0
H1666 H 0.39885 0.47193 0.13982 0.0
H1667 H 0.38981 0.46189 0.09957 0.0
H1668 H 0.42235 0.41686 0.07031 0.0
H1669 H 0.4602 0.43806 0.03972 0.0
H1670 H 0.84696 0.69916 0.59065 0.0
H1671 H 0.86954 0.67595 0.56597 0.0
H1672 H 0.87005 0.63352 0.65522 0.0
H1673 H 0.84731 0.65671 0.68015 0.0
H1674 H 0.91689 0.67149 0.58024 0.0
H1675 H 0.84409 0.58163 0.59224 0.0
H1676 H 0.83654 0.60835 0.59905 0.0
H1677 H 0.85412 0.59529 0.6302 0.0
C1678 C 0.85186 0.68492 0.60519 0.0
C1679 C 0.84527 0.68001 0.63762 0.0
C1680 C 0.86473 0.67152 0.59089 0.0
C1681 C 0.87137 0.65264 0.60839 0.0
C1682 C 0.86467 0.64753 0.64073 0.0
H1683 H 0.99457 0.59584 0.57046 0.0
H1684 H 0.96675 0.617 0.58811 0.0
C1685 C 0.85167 0.66091 0.65507 0.0
C1686 C 0.88638 0.63926 0.59319 0.0
H1687 H 0.88658 0.58335 0.57761 0.0
C1688 C 0.91008 0.65222 0.57956 0.0
C1689 C 0.87753 0.61407 0.59157 0.0
C1690 C 0.85155 0.59902 0.60373 0.0
C1691 C 0.92538 0.64084 0.56541 0.0
C1692 C 0.9172 0.61561 0.56522 0.0
C1693 C 0.89311 0.60264 0.57791 0.0
C1694 C 0.93407 0.60249 0.55353 0.0
C1695 C 0.95018 0.65608 0.55052 0.0
C1696 C 0.92504 0.5867 0.52835 0.0
C1697 C 0.94107 0.57429 0.51809 0.0
C1698 C 0.96644 0.57721 0.53301 0.0
C1699 C 0.97529 0.59307 0.55814 0.0
C1700 C 0.95936 0.60539 0.56827 0.0
H1701 H 0.94946 0.67439 0.54354 0.0
H1702 H 0.96717 0.65758 0.56845 0.0
H1703 H 0.95359 0.64811 0.52879 0.0
H1704 H 0.90558 0.58402 0.51655 0.0
H1705 H 0.93348 0.56224 0.49877 0.0
H1706 H 0.321 0.83526 0.69484 0.0
H1707 H 0.35662 0.86328 0.66617 0.0
H1708 H 0.39557 0.80978 0.66801 0.0
H1709 H 0.36013 0.78158 0.69713 0.0
H1710 H 0.42631 0.85185 0.69498 0.0
H1711 H 0.38112 0.8708 0.57475 0.0
H1712 H 0.3628 0.87318 0.60746 0.0
H1713 H 0.36606 0.84475 0.60036 0.0
C1714 C 0.33682 0.82921 0.68856 0.0
C1715 C 0.33786 0.80624 0.6986 0.0
C1716 C 0.35709 0.84523 0.67194 0.0
C1717 C 0.3786 0.83851 0.66482 0.0
C1718 C 0.37904 0.81522 0.67323 0.0
H1719 H 0.5078 0.94212 0.56792 0.0
H1720 H 0.47715 0.90391 0.58555 0.0
C1721 C 0.35876 0.79915 0.68985 0.0
C1722 C 0.40198 0.8567 0.65242 0.0
H1723 H 0.4216 0.9 0.59248 0.0
C1724 C 0.42545 0.86211 0.67228 0.0
C1725 C 0.40077 0.86994 0.62278 0.0
C1726 C 0.37639 0.86424 0.59995 0.0
C1727 C 0.4474 0.88127 0.664 0.0
C1728 C 0.44567 0.89531 0.6353 0.0
C1729 C 0.42269 0.88919 0.61462 0.0
C1730 C 0.46678 0.9174 0.62729 0.0
C1731 C 0.47209 0.88675 0.68627 0.0
C1732 C 0.47134 0.93741 0.64543 0.0
C1733 C 0.48871 0.95934 0.63537 0.0
C1734 C 0.5018 0.96152 0.60707 0.0
C1735 C 0.49817 0.94106 0.58995 0.0
C1736 C 0.48059 0.91921 0.59985 0.0
H1737 H 0.4723 0.87138 0.70343 0.0
H1738 H 0.48976 0.89167 0.67218 0.0
H1739 H 0.47336 0.90214 0.70051 0.0
H1740 H 0.46059 0.9363 0.66653 0.0
H1741 H 0.49108 0.97475 0.64906 0.0
H1742 H 0.27644 0.34219 0.68899 0.0
H1743 H 0.25218 0.36691 0.65829 0.0
H1744 H 0.1795 0.31772 0.68928 0.0
H1745 H 0.20375 0.29424 0.72152 0.0
H1746 H 0.22093 0.36745 0.6108 0.0
H1747 H 0.15968 0.37166 0.70735 0.0
H1748 H 0.1858 0.35868 0.71507 0.0
H1749 H 0.15377 0.34129 0.69861 0.0
C1750 C 0.25528 0.33668 0.68956 0.0
C1751 C 0.24249 0.31598 0.70859 0.0
C1752 C 0.24114 0.35101 0.67171 0.0
C1753 C 0.21338 0.34531 0.67153 0.0
C1754 C 0.20068 0.324 0.68953 0.0
H1755 H 0.09325 0.40616 0.56118 0.0
H1756 H 0.1163 0.37997 0.59131 0.0
C1757 C 0.21481 0.31008 0.70795 0.0
C1758 C 0.19796 0.36103 0.65221 0.0
H1759 H 0.14641 0.38405 0.65442 0.0
C1760 C 0.20482 0.37104 0.62085 0.0
C1761 C 0.17654 0.36656 0.66413 0.0
C1762 C 0.16871 0.35921 0.69823 0.0
C1763 C 0.19123 0.38535 0.60173 0.0
C1764 C 0.16954 0.39031 0.61341 0.0
C1765 C 0.16257 0.38034 0.6446 0.0
C1766 C 0.15479 0.40645 0.59433 0.0
C1767 C 0.20009 0.3948 0.56856 0.0
C1768 C 0.16791 0.43059 0.58555 0.0
C1769 C 0.15458 0.44574 0.56859 0.0
C1770 C 0.12733 0.43767 0.55902 0.0
C1771 C 0.1141 0.41343 0.56759 0.0
C1772 C 0.12745 0.39828 0.58513 0.0
H1773 H 0.21203 0.38477 0.55951 0.0
H1774 H 0.18301 0.39392 0.55096 0.0
H1775 H 0.21238 0.41375 0.56969 0.0
H1776 H 0.18868 0.43803 0.59229 0.0
H1777 H 0.16593 0.46408 0.56292 0.0
H1778 H 0.70515 0.22656 0.70032 0.0
H1779 H 0.68307 0.19119 0.67018 0.0
H1780 H 0.75679 0.17742 0.6674 0.0
H1781 H 0.77909 0.21265 0.698 0.0
H1782 H 0.68951 0.17764 0.61055 0.0
H1783 H 0.71111 0.11513 0.70829 0.0
H1784 H 0.71628 0.14612 0.71445 0.0
H1785 H 0.73944 0.13766 0.69365 0.0
C1786 C 0.7168 0.2162 0.69307 0.0
C1787 C 0.7439 0.2224 0.70191 0.0
C1788 C 0.70409 0.19592 0.67584 0.0
C1789 C 0.71814 0.18136 0.66709 0.0
C1790 C 0.74541 0.18806 0.67456 0.0
H1791 H 0.65806 0.04308 0.57861 0.0
H1792 H 0.68716 0.08059 0.5995 0.0
C1793 C 0.75816 0.20833 0.69189 0.0
C1794 C 0.70395 0.15894 0.65087 0.0
H1795 H 0.68783 0.09823 0.66072 0.0
C1796 C 0.68923 0.16028 0.62146 0.0
C1797 C 0.70364 0.13627 0.66508 0.0
C1798 C 0.71826 0.13357 0.69723 0.0
C1799 C 0.67406 0.13963 0.60603 0.0
C1800 C 0.67324 0.11698 0.62064 0.0
C1801 C 0.68849 0.11562 0.64958 0.0
C1802 C 0.6557 0.09451 0.60711 0.0
C1803 C 0.65906 0.14222 0.57415 0.0
C1804 C 0.62835 0.08977 0.60476 0.0
C1805 C 0.6117 0.06835 0.59295 0.0
C1806 C 0.62199 0.05112 0.58334 0.0
C1807 C 0.64944 0.05592 0.58573 0.0
C1808 C 0.6661 0.07736 0.59769 0.0
H1809 H 0.66742 0.16011 0.56192 0.0
H1810 H 0.65909 0.12843 0.55767 0.0
H1811 H 0.63837 0.13998 0.57851 0.0
H1812 H 0.61987 0.10253 0.61247 0.0
H1813 H 0.59067 0.06531 0.59147 0.0
H1814 H 0.84498 0.2936 0.35165 0.0
H1815 H 0.87826 0.31887 0.38914 0.0
H1816 H 0.83298 0.36755 0.38568 0.0
H1817 H 0.79996 0.34262 0.34869 0.0
H1818 H 0.90522 0.36522 0.36926 0.0
H1819 H 0.85769 0.3655 0.48098 0.0
H1820 H 0.84502 0.34214 0.45289 0.0
H1821 H 0.83738 0.3697 0.44575 0.0
C1822 C 0.84186 0.30935 0.35968 0.0
C1823 C 0.82009 0.31633 0.34708 0.0
C1824 C 0.86081 0.32371 0.38106 0.0
C1825 C 0.85788 0.34489 0.3905 0.0
C1826 C 0.83535 0.35103 0.37934 0.0
H1827 H 0.93813 0.48548 0.43916 0.0
H1828 H 0.90738 0.44606 0.42778 0.0
C1829 C 0.81665 0.33689 0.35786 0.0
C1830 C 0.87987 0.36275 0.40731 0.0
H1831 H 0.89311 0.4016 0.46737 0.0
C1832 C 0.90295 0.37279 0.39123 0.0
C1833 C 0.87671 0.37261 0.43583 0.0
C1834 C 0.85293 0.36174 0.45502 0.0
C1835 C 0.92211 0.39358 0.4015 0.0
C1836 C 0.91818 0.40429 0.4289 0.0
C1837 C 0.89586 0.39344 0.44616 0.0
C1838 C 0.93625 0.42757 0.43857 0.0
C1839 C 0.94556 0.40477 0.38176 0.0
C1840 C 0.9624 0.43 0.44899 0.0
C1841 C 0.98002 0.45243 0.45516 0.0
C1842 C 0.97175 0.47286 0.45123 0.0
C1843 C 0.94521 0.47019 0.44206 0.0
C1844 C 0.9276 0.44769 0.43573 0.0
H1845 H 0.94312 0.39669 0.35806 0.0
H1846 H 0.94898 0.42424 0.37737 0.0
H1847 H 0.96333 0.40222 0.39527 0.0
H1848 H 0.96928 0.41459 0.45187 0.0
H1849 H 1.00018 0.45371 0.46293 0.0
H1850 H 0.65986 0.7934 0.42468 0.0
H1851 H 0.64897 0.82198 0.45497 0.0
H1852 H 0.72704 0.84241 0.50232 0.0
H1853 H 0.73825 0.81383 0.47161 0.0
H1854 H 0.64975 0.83015 0.52007 0.0
H1855 H 0.72284 0.90445 0.45523 0.0
H1856 H 0.71356 0.87415 0.44335 0.0
H1857 H 0.7349 0.88289 0.47906 0.0
C1858 C 0.67453 0.80351 0.44213 0.0
C1859 C 0.69997 0.80155 0.4456 0.0
C1860 C 0.66831 0.8199 0.45936 0.0
C1861 C 0.68736 0.83457 0.48043 0.0
C1862 C 0.71226 0.83157 0.48566 0.0
H1863 H 0.65683 0.96409 0.53214 0.0
H1864 H 0.67857 0.93317 0.53599 0.0
C1865 C 0.71859 0.81525 0.46818 0.0
C1866 C 0.68137 0.85428 0.4942 0.0
H1867 H 0.69289 0.91439 0.48375 0.0
C1868 C 0.65952 0.84863 0.51271 0.0
C1869 C 0.6943 0.87839 0.48478 0.0
C1870 C 0.71761 0.88548 0.46437 0.0
C1871 C 0.64904 0.86625 0.51997 0.0
C1872 C 0.66074 0.89007 0.50837 0.0
C1873 C 0.68395 0.89605 0.49241 0.0
C1874 C 0.64728 0.90823 0.50834 0.0
C1875 C 0.62487 0.85893 0.53879 0.0
C1876 C 0.62275 0.90449 0.49118 0.0
C1877 C 0.61046 0.92204 0.48875 0.0
C1878 C 0.62248 0.94374 0.50341 0.0
C1879 C 0.64711 0.94752 0.5206 0.0
C1880 C 0.65949 0.9299 0.52292 0.0
H1881 H 0.62576 0.84479 0.55777 0.0
H1882 H 0.62241 0.87417 0.55036 0.0
H1883 H 0.60731 0.85147 0.52213 0.0
H1884 H 0.61328 0.88807 0.47917 0.0
H1885 H 0.59146 0.91853 0.47545 0.0
H1886 H 0.19941 0.75245 0.32964 0.0
H1887 H 0.1657 0.71825 0.35319 0.0
H1888 H 0.22548 0.68703 0.39104 0.0
H1889 H 0.25907 0.72082 0.36711 0.0
H1890 H 0.16374 0.67077 0.33044 0.0
H1891 H 0.17194 0.67462 0.46419 0.0
H1892 H 0.1815 0.70102 0.43723 0.0
H1893 H 0.20243 0.6826 0.44509 0.0
C1894 C 0.20544 0.7388 0.34422 0.0
C1895 C 0.23176 0.73917 0.34665 0.0
C1896 C 0.18617 0.71923 0.35742 0.0
C1897 C 0.1932 0.70022 0.3738 0.0
C1898 C 0.21976 0.70168 0.37876 0.0
H1899 H 0.12792 0.54924 0.40123 0.0
H1900 H 0.15157 0.5902 0.38281 0.0
C1901 C 0.23891 0.72096 0.36513 0.0
C1902 C 0.17299 0.67727 0.38101 0.0
H1903 H 0.14868 0.637 0.44272 0.0
C1904 C 0.16007 0.66348 0.35497 0.0
C1905 C 0.16849 0.6679 0.41299 0.0
C1906 C 0.18164 0.68231 0.44159 0.0
C1907 C 0.14342 0.6401 0.36016 0.0
C1908 C 0.1397 0.63042 0.39214 0.0
C1909 C 0.1518 0.64453 0.41819 0.0
C1910 C 0.12378 0.60546 0.39922 0.0
C1911 C 0.13023 0.62573 0.33154 0.0
C1912 C 0.10012 0.60059 0.41376 0.0
C1913 C 0.08648 0.5773 0.42403 0.0
C1914 C 0.09647 0.55843 0.42039 0.0
C1915 C 0.11962 0.56327 0.40435 0.0
C1916 C 0.13318 0.58665 0.39386 0.0
H1917 H 0.13138 0.63708 0.30872 0.0
H1918 H 0.13998 0.61215 0.32874 0.0
H1919 H 0.10926 0.61617 0.33544 0.0
H1920 H 0.0926 0.61493 0.41801 0.0
H1921 H 0.06865 0.57432 0.43609 0.0
H1922 H 0.42255 0.2501 0.4133 0.0
H1923 H 0.44472 0.22108 0.43419 0.0
H1924 H 0.37082 0.17173 0.46165 0.0
H1925 H 0.34848 0.20074 0.44124 0.0
H1926 H 0.44396 0.19284 0.49894 0.0
H1927 H 0.39961 0.13998 0.39169 0.0
H1928 H 0.40169 0.17092 0.393 0.0
H1929 H 0.37746 0.14824 0.41461 0.0
C1930 C 0.41112 0.23332 0.42454 0.0
C1931 C 0.38374 0.22757 0.42539 0.0
C1932 C 0.4238 0.21678 0.43635 0.0
C1933 C 0.40928 0.19431 0.44907 0.0
C1934 C 0.38222 0.18898 0.45159 0.0
H1935 H 0.44071 0.06114 0.49104 0.0
H1936 H 0.42161 0.09342 0.48044 0.0
C1937 C 0.36952 0.20548 0.43982 0.0
C1938 C 0.42196 0.1757 0.45696 0.0
H1939 H 0.42508 0.12395 0.43033 0.0
C1940 C 0.43992 0.17772 0.48407 0.0
C1941 C 0.41659 0.15619 0.43728 0.0
C1942 C 0.39794 0.15365 0.40736 0.0
C1943 C 0.45234 0.16029 0.49249 0.0
C1944 C 0.44696 0.14072 0.47272 0.0
C1945 C 0.42911 0.13891 0.44548 0.0
C1946 C 0.459 0.12148 0.47996 0.0
C1947 C 0.47062 0.1629 0.52275 0.0
C1948 C 0.48639 0.12653 0.48285 0.0
C1949 C 0.49739 0.10807 0.48925 0.0
C1950 C 0.48113 0.08428 0.49209 0.0
C1951 C 0.45374 0.07927 0.48851 0.0
C1952 C 0.4428 0.09771 0.48261 0.0
H1953 H 0.46538 0.17333 0.54051 0.0
H1954 H 0.47044 0.14537 0.53463 0.0
H1955 H 0.49094 0.17265 0.51627 0.0
H1956 H 0.49924 0.14471 0.48006 0.0
H1957 H 0.51857 0.1124 0.4919 0.0
H1958 H 0.72747 0.82482 0.75825 0.0
H1959 H 0.70103 0.847 0.72809 0.0
H1960 H 0.69831 0.80881 0.64351 0.0
H1961 H 0.72542 0.78643 0.67376 0.0
H1962 H 0.70968 0.85737 0.62913 0.0
H1963 H 0.62321 0.82667 0.70183 0.0
H1964 H 0.65306 0.83808 0.72661 0.0
H1965 H 0.64794 0.8118 0.70476 0.0
C1966 C 0.72117 0.82082 0.7333 0.0
C1967 C 0.72871 0.80361 0.71863 0.0
C1968 C 0.70575 0.83353 0.71606 0.0
C1969 C 0.69711 0.82945 0.68353 0.0
C1970 C 0.70447 0.81224 0.66865 0.0
H1971 H 0.5865 0.90271 0.5878 0.0
H1972 H 0.60562 0.87155 0.60998 0.0
C1973 C 0.71992 0.79935 0.68604 0.0
C1974 C 0.68156 0.8441 0.66516 0.0
H1975 H 0.62816 0.86317 0.66924 0.0
C1976 C 0.69167 0.85835 0.63772 0.0
C1977 C 0.65774 0.84532 0.67576 0.0
C1978 C 0.64469 0.82946 0.70365 0.0
C1979 C 0.67951 0.87454 0.62181 0.0
C1980 C 0.65669 0.87695 0.6338 0.0
C1981 C 0.6458 0.86175 0.66016 0.0
C1982 C 0.64466 0.89582 0.62042 0.0
C1983 C 0.69153 0.88903 0.59239 0.0
C1984 C 0.65985 0.92 0.61953 0.0
C1985 C 0.64888 0.93781 0.60736 0.0
C1986 C 0.62232 0.93207 0.59555 0.0
C1987 C 0.60698 0.90786 0.59665 0.0
C1988 C 0.61793 0.89 0.60938 0.0
H1989 H 0.70085 0.87889 0.57881 0.0
H1990 H 0.67677 0.89441 0.57585 0.0
H1991 H 0.70706 0.90539 0.60023 0.0
H1992 H 0.6803 0.9252 0.62851 0.0
H1993 H 0.66144 0.95618 0.60695 0.0
H1994 H 0.70696 0.24962 0.35537 0.0
H1995 H 0.68066 0.21591 0.38875 0.0
H1996 H 0.71725 0.16965 0.35115 0.0
H1997 H 0.74379 0.20301 0.31847 0.0
H1998 H 0.64454 0.17373 0.37126 0.0
H1999 H 0.72627 0.15442 0.44684 0.0
H2000 H 0.73076 0.18169 0.42198 0.0
H2001 H 0.73055 0.1548 0.40458 0.0
C2002 C 0.7096 0.23232 0.35443 0.0
C2003 C 0.72769 0.22919 0.33425 0.0
C2004 C 0.69447 0.21302 0.3735 0.0
C2005 C 0.69724 0.19023 0.373 0.0
C2006 C 0.71516 0.1871 0.35272 0.0
H2007 H 0.62684 0.04489 0.43668 0.0
H2008 H 0.65068 0.08361 0.41215 0.0
C2009 C 0.73026 0.20629 0.33378 0.0
C2010 C 0.68089 0.16943 0.39262 0.0
H2011 H 0.68492 0.1231 0.44556 0.0
C2012 C 0.65336 0.16286 0.38789 0.0
C2013 C 0.6923 0.15524 0.41455 0.0
C2014 C 0.72158 0.16203 0.42257 0.0
C2015 C 0.63708 0.14191 0.4031 0.0
C2016 C 0.6486 0.12721 0.42384 0.0
C2017 C 0.67606 0.13424 0.42947 0.0
C2018 C 0.63279 0.10369 0.43831 0.0
C2019 C 0.60774 0.13511 0.39581 0.0
C2020 C 0.61458 0.10193 0.46124 0.0
C2021 C 0.60075 0.07962 0.47548 0.0
C2022 C 0.60492 0.0586 0.46711 0.0
C2023 C 0.62298 0.06054 0.44381 0.0
C2024 C 0.63674 0.08275 0.42973 0.0
H2025 H 0.60224 0.14612 0.37513 0.0
H2026 H 0.59956 0.11602 0.39029 0.0
H2027 H 0.59848 0.13766 0.41737 0.0
H2028 H 0.61145 0.11785 0.46864 0.0
H2029 H 0.58722 0.07891 0.4935 0.0
H2030 H 0.7903 0.69917 0.33169 0.0
H2031 H 0.81708 0.67363 0.35338 0.0
H2032 H 0.88613 0.72682 0.3206 0.0
H2033 H 0.8593 0.75207 0.29837 0.0
H2034 H 0.84743 0.64821 0.33444 0.0
H2035 H 0.92114 0.7153 0.40644 0.0
H2036 H 0.89132 0.7203 0.38859 0.0
H2037 H 0.91858 0.72446 0.36436 0.0
C2038 C 0.8112 0.70585 0.32881 0.0
C2039 C 0.82147 0.72884 0.31239 0.0
C2040 C 0.82707 0.69071 0.34165 0.0
C2041 C 0.85505 0.69718 0.34029 0.0
C2042 C 0.8653 0.72018 0.32383 0.0
H2043 H 0.9869 0.63081 0.42323 0.0
H2044 H 0.96066 0.65662 0.4005 0.0
C2045 C 0.84935 0.73511 0.3104 0.0
C2046 C 0.87268 0.68023 0.35509 0.0
H2047 H 0.92988 0.67905 0.40268 0.0
C2048 C 0.86537 0.65539 0.34946 0.0
C2049 C 0.89704 0.68784 0.37502 0.0
C2050 C 0.90752 0.71333 0.38432 0.0
C2051 C 0.88067 0.63941 0.36122 0.0
C2052 C 0.90478 0.64677 0.382 0.0
C2053 C 0.91204 0.67172 0.3876 0.0
C2054 C 0.92231 0.62965 0.3973 0.0
C2055 C 0.87086 0.61463 0.34915 0.0
C2056 C 0.9118 0.60451 0.40545 0.0
C2057 C 0.92742 0.58922 0.41815 0.0
C2058 C 0.95529 0.59733 0.42538 0.0
C2059 C 0.96596 0.62259 0.41859 0.0
C2060 C 0.9503 0.63789 0.40514 0.0
H2061 H 0.85876 0.61405 0.3259 0.0
H2062 H 0.88736 0.60797 0.34532 0.0
H2063 H 0.85816 0.60247 0.36699 0.0
H2064 H 0.89084 0.59609 0.40272 0.0
H2065 H 0.91709 0.57049 0.4229 0.0
H2066 H 0.34706 0.80017 0.36086 0.0
H2067 H 0.37949 0.82966 0.39404 0.0
H2068 H 0.348 0.88448 0.35109 0.0
H2069 H 0.31577 0.85528 0.31774 0.0
H2070 H 0.40176 0.8993 0.3531 0.0
H2071 H 0.36945 0.86027 0.4738 0.0
H2072 H 0.37674 0.83999 0.44923 0.0
H2073 H 0.34965 0.85106 0.43687 0.0
C2074 C 0.34686 0.81845 0.3586 0.0
C2075 C 0.3286 0.82517 0.33649 0.0
C2076 C 0.36542 0.83535 0.37779 0.0
C2077 C 0.36617 0.85942 0.37554 0.0
C2078 C 0.34795 0.86612 0.35349 0.0
H2079 H 0.44614 0.9732 0.50533 0.0
H2080 H 0.41482 0.94138 0.47476 0.0
C2081 C 0.32941 0.84928 0.33438 0.0
C2082 C 0.38628 0.87779 0.39531 0.0
H2083 H 0.40892 0.89277 0.47296 0.0
C2084 C 0.40331 0.8978 0.37931 0.0
C2085 C 0.38829 0.87618 0.42961 0.0
C2086 C 0.36993 0.85586 0.44849 0.0
C2087 C 0.42223 0.91593 0.39643 0.0
C2088 C 0.42461 0.91408 0.43071 0.0
C2089 C 0.40742 0.8942 0.44675 0.0
C2090 C 0.44416 0.93297 0.45024 0.0
C2091 C 0.43909 0.93728 0.3776 0.0
C2092 C 0.47135 0.93876 0.44737 0.0
C2093 C 0.48946 0.95699 0.46498 0.0
C2094 C 0.48086 0.97001 0.48598 0.0
C2095 C 0.45364 0.96378 0.48932 0.0
C2096 C 0.43559 0.94548 0.47185 0.0
H2097 H 0.4307 0.93886 0.35239 0.0
H2098 H 0.44146 0.95401 0.38949 0.0
H2099 H 0.45887 0.93543 0.37657 0.0
H2100 H 0.47865 0.92916 0.43141 0.0
H2101 H 0.51017 0.96106 0.46182 0.0
H2102 H 0.20244 0.31619 0.28756 0.0
H2103 H 0.18107 0.34087 0.31242 0.0
H2104 H 0.24767 0.36285 0.38113 0.0
H2105 H 0.26908 0.33864 0.35599 0.0
H2106 H 0.15953 0.34534 0.36304 0.0
H2107 H 0.24393 0.42719 0.37022 0.0
H2108 H 0.24473 0.40238 0.34857 0.0
H2109 H 0.2513 0.4024 0.3919 0.0
C2110 C 0.21295 0.32633 0.30782 0.0
C2111 C 0.23838 0.32469 0.31867 0.0
C2112 C 0.20033 0.34085 0.32255 0.0
C2113 C 0.21205 0.35533 0.34927 0.0
C2114 C 0.23735 0.35337 0.3603 0.0
H2115 H 0.16009 0.4558 0.47179 0.0
H2116 H 0.18371 0.43155 0.44934 0.0
C2117 C 0.24992 0.33883 0.34566 0.0
C2118 C 0.19786 0.37142 0.36547 0.0
H2119 H 0.20748 0.42637 0.39854 0.0
C2120 C 0.17046 0.3631 0.3704 0.0
C2121 C 0.21057 0.39517 0.37633 0.0
C2122 C 0.23916 0.40748 0.37126 0.0
C2123 C 0.15652 0.37646 0.38535 0.0
C2124 C 0.16915 0.40029 0.39595 0.0
C2125 C 0.19659 0.4086 0.3912 0.0
C2126 C 0.15439 0.41645 0.41093 0.0
C2127 C 0.12802 0.36393 0.39079 0.0
C2128 C 0.12942 0.41792 0.39805 0.0
C2129 C 0.11568 0.43197 0.41119 0.0
C2130 C 0.12549 0.44639 0.43837 0.0
C2131 C 0.1508 0.44547 0.4512 0.0
C2132 C 0.16469 0.4312 0.43791 0.0
H2133 H 0.12372 0.34426 0.39301 0.0
H2134 H 0.12227 0.36955 0.41298 0.0
H2135 H 0.11567 0.3681 0.3697 0.0
H2136 H 0.12021 0.40833 0.37687 0.0
H2137 H 0.09678 0.43154 0.39929 0.0
H2138 H 0.33818 0.17158 0.64673 0.0
H2139 H 0.35842 0.1432 0.62973 0.0
H2140 H 0.43506 0.19467 0.64498 0.0
H2141 H 0.41516 0.22284 0.6627 0.0
H2142 H 0.39139 0.14653 0.57893 0.0
H2143 H 0.44256 0.13558 0.69823 0.0
H2144 H 0.41664 0.14908 0.69304 0.0
H2145 H 0.44948 0.16613 0.68343 0.0
C2146 C 0.35938 0.17682 0.64682 0.0
C2147 C 0.37494 0.19962 0.65634 0.0
C2148 C 0.37093 0.16059 0.63679 0.0
C2149 C 0.39836 0.16658 0.63635 0.0
C2150 C 0.4139 0.18938 0.64549 0.0
H2151 H 0.51514 0.10194 0.60125 0.0
H2152 H 0.48938 0.12736 0.61152 0.0
C2153 C 0.4024 0.20563 0.65537 0.0
C2154 C 0.41087 0.14908 0.6267 0.0
H2155 H 0.45517 0.12006 0.65395 0.0
C2156 C 0.40525 0.14064 0.59537 0.0
C2157 C 0.42876 0.14108 0.64813 0.0
C2158 C 0.43457 0.14821 0.68269 0.0
C2159 C 0.41781 0.1253 0.58454 0.0
C2160 C 0.43638 0.11788 0.60574 0.0
C2161 C 0.44133 0.12586 0.63735 0.0
C2162 C 0.45181 0.10268 0.5959 0.0
C2163 C 0.41136 0.11778 0.55022 0.0
C2164 C 0.43964 0.08024 0.58283 0.0
C2165 C 0.45459 0.06564 0.57635 0.0
C2166 C 0.48199 0.0729 0.5835 0.0
C2167 C 0.49408 0.09553 0.59581 0.0
C2168 C 0.47929 0.11018 0.60175 0.0
H2169 H 0.40481 0.13114 0.53432 0.0
H2170 H 0.42838 0.11508 0.53998 0.0
H2171 H 0.39507 0.10068 0.54989 0.0
H2172 H 0.41849 0.07367 0.57847 0.0
H2173 H 0.44461 0.04835 0.56685 0.0
H2174 H 0.86747 0.31339 0.73685 0.0
H2175 H 0.90026 0.34291 0.70501 0.0
H2176 H 0.83871 0.3643 0.65026 0.0
H2177 H 0.80579 0.33482 0.68203 0.0
H2178 H 0.9087 0.34989 0.63863 0.0
H2179 H 0.88804 0.42829 0.67919 0.0
H2180 H 0.87599 0.399 0.699 0.0
H2181 H 0.85953 0.40651 0.66197 0.0
C2182 C 0.86075 0.32432 0.71805 0.0
C2183 C 0.83362 0.32148 0.71243 0.0
C2184 C 0.87971 0.34131 0.69965 0.0
C2185 C 0.87243 0.35643 0.67516 0.0
C2186 C 0.84531 0.35341 0.66921 0.0
H2187 H 0.94793 0.47582 0.54349 0.0
H2188 H 0.91945 0.44317 0.57509 0.0
C2189 C 0.8263 0.33629 0.68743 0.0
C2190 C 0.893 0.37531 0.65615 0.0
H2191 H 0.916 0.43548 0.63634 0.0
C2192 C 0.91033 0.36862 0.6383 0.0
C2193 C 0.89568 0.39998 0.65547 0.0
C2194 C 0.87903 0.409 0.67514 0.0
C2195 C 0.92913 0.38547 0.61915 0.0
C2196 C 0.93153 0.41015 0.61809 0.0
C2197 C 0.91452 0.41679 0.63656 0.0
C2198 C 0.95011 0.42931 0.59685 0.0
C2199 C 0.94552 0.37639 0.59921 0.0
C2200 C 0.97751 0.43289 0.59725 0.0
C2201 C 0.99425 0.45187 0.57839 0.0
C2202 C 0.98418 0.46814 0.55898 0.0
C2203 C 0.95678 0.46405 0.55823 0.0
C2204 C 0.94024 0.44518 0.57658 0.0
H2205 H 0.9366 0.35703 0.59558 0.0
H2206 H 0.94809 0.38614 0.57516 0.0
H2207 H 0.96522 0.37912 0.61196 0.0
H2208 H 0.98621 0.42148 0.61291 0.0
H2209 H 1.01514 0.45436 0.58006 0.0
H2210 H 0.2644 0.68707 0.72201 0.0
H2211 H 0.23884 0.65543 0.68691 0.0
H2212 H 0.19024 0.69856 0.64993 0.0
H2213 H 0.21686 0.73081 0.68375 0.0
H2214 H 0.19378 0.62661 0.6815 0.0
H2215 H 0.19836 0.67976 0.56558 0.0
H2216 H 0.21744 0.69211 0.6015 0.0
H2217 H 0.18347 0.69103 0.59458 0.0
C2218 C 0.24846 0.69006 0.70616 0.0
C2219 C 0.24321 0.71201 0.70586 0.0
C2220 C 0.23358 0.67167 0.68589 0.0
C2221 C 0.21245 0.67412 0.66445 0.0
C2222 C 0.20681 0.69591 0.66475 0.0
H2223 H 0.08887 0.57347 0.5421 0.0
H2224 H 0.11598 0.60657 0.5742 0.0
C2225 C 0.22205 0.71453 0.68461 0.0
C2226 C 0.19624 0.65373 0.64298 0.0
H2227 H 0.16755 0.64064 0.56611 0.0
C2228 C 0.18841 0.62993 0.6562 0.0
C2229 C 0.1887 0.65717 0.60952 0.0
C2230 C 0.19766 0.68134 0.59187 0.0
C2231 C 0.17342 0.61024 0.6378 0.0
C2232 C 0.16555 0.6138 0.60468 0.0
C2233 C 0.17322 0.63749 0.59137 0.0
C2234 C 0.14917 0.59333 0.58379 0.0
C2235 C 0.16558 0.58562 0.65434 0.0
C2236 C 0.15842 0.57446 0.57728 0.0
C2237 C 0.14291 0.5554 0.55829 0.0
C2238 C 0.11731 0.55422 0.54525 0.0
C2239 C 0.10827 0.57331 0.55153 0.0
C2240 C 0.12392 0.59249 0.57006 0.0
H2241 H 0.16802 0.58622 0.68109 0.0
H2242 H 0.14482 0.57567 0.64717 0.0
H2243 H 0.17812 0.57559 0.64689 0.0
H2244 H 0.17783 0.57445 0.58685 0.0
H2245 H 0.15087 0.5413 0.55436 0.0
loop_
_geom_bond_atom_site_label_1
_geom_bond_atom_site_label_2
_geom_bond_distance
_geom_bond_site_symmetry_2
_ccdc_geom_bond_type
Tb0 C9 2.764 . S
Tb0 O10 2.325 . S
Tb0 O13 2.303 . S
Tb0 O17 2.322 . S
Tb0 O18 2.349 . S
Tb0 O21 2.415 . S
Tb0 O22 2.399 . S
Tb1 O11 2.322 . S
Tb1 O12 2.349 . S
Tb1 O14 2.415 . S
Tb1 O15 2.399 . S
Tb1 O16 2.325 . S
Tb1 O19 2.303 . S
Tb1 C30 2.764 . S
C2 O18 1.261 . S
C2 O19 1.257 . S
C3 C6 1.358 . S
C3 C7 1.332 . S
C3 C9 1.504 . S
C4 C5 1.373 . S
C4 C8 1.308 . S
C5 C4 1.373 . S
C5 C6 1.429 . S
C5 H32 0.932 . S
C6 C3 1.358 . S
C6 C5 1.429 . S
C6 H33 0.930 . S
C7 C3 1.332 . S
C7 C8 1.394 . S
C7 H34 0.932 . S
C8 C4 1.308 . S
C8 C7 1.394 . S
C8 H35 0.929 . S
C9 Tb0 2.764 . S
C9 C3 1.504 . S
C9 O21 1.239 . S
C9 O22 1.263 . S
O10 Tb0 2.325 . S
O10 C20 1.236 . S
O11 Tb1 2.322 . S
O11 C20 1.257 . S
O12 Tb1 2.349 . S
O12 C23 1.261 . S
O13 Tb0 2.303 . S
O13 C23 1.257 . S
O14 Tb1 2.415 . S
O14 C30 1.239 . S
O15 Tb1 2.399 . S
O15 C30 1.263 . S
O16 Tb1 2.325 . S
O16 C31 1.236 . S
O17 Tb0 2.322 . S
O17 C31 1.257 . S
O18 Tb0 2.349 . S
O18 C2 1.261 . S
O19 Tb1 2.303 . S
O19 C2 1.257 . S
C20 O10 1.236 . S
C20 O11 1.257 . S
O21 Tb0 2.415 . S
O21 C9 1.239 . S
O22 Tb0 2.399 . S
O22 C9 1.263 . S
C23 O12 1.261 . S
C23 O13 1.257 . S
C24 C27 1.358 . S
C24 C28 1.332 . S
C24 C30 1.504 . S
C25 C26 1.373 . S
C25 C29 1.308 . S
C26 C25 1.373 . S
C26 C27 1.429 . S
C26 H36 0.932 . S
C27 C24 1.358 . S
C27 C26 1.429 . S
C27 H37 0.930 . S
C28 C24 1.332 . S
C28 C29 1.394 . S
C28 H38 0.932 . S
C29 C25 1.308 . S
C29 C28 1.394 . S
C29 H39 0.929 . S
C30 Tb1 2.764 . S
C30 O14 1.239 . S
C30 O15 1.263 . S
C30 C24 1.504 . S
C31 O16 1.236 . S
C31 O17 1.257 . S
H32 C5 0.932 . S
H33 C6 0.930 . S
H34 C7 0.932 . S
H35 C8 0.929 . S
H36 C26 0.932 . S
H37 C27 0.930 . S
H38 C28 0.932 . S
H39 C29 0.929 . S
Tb40 C49 2.764 . S
Tb40 O50 2.325 . S
Tb40 O53 2.303 . S
Tb40 O57 2.322 . S
Tb40 O58 2.349 . S
Tb40 O61 2.415 . S
Tb40 O62 2.399 . S
Tb41 O51 2.322 . S
Tb41 O52 2.349 . S
Tb41 O54 2.415 . S
Tb41 O55 2.399 . S
Tb41 O56 2.325 . S
Tb41 O59 2.303 . S
Tb41 C70 2.764 . S
C42 O58 1.261 . S
C42 O59 1.257 . S
C43 C46 1.358 . S
C43 C47 1.332 . S
C43 C49 1.504 . S
C44 C45 1.373 . S
C44 C48 1.308 . S
C45 C44 1.373 . S
C45 C46 1.429 . S
C45 H72 0.932 . S
C46 C43 1.358 . S
C46 C45 1.429 . S
C46 H73 0.930 . S
C47 C43 1.332 . S
C47 C48 1.394 . S
C47 H74 0.932 . S
C48 C44 1.308 . S
C48 C47 1.394 . S
C48 H75 0.929 . S
C49 Tb40 2.764 . S
C49 C43 1.504 . S
C49 O61 1.239 . S
C49 O62 1.263 . S
O50 Tb40 2.325 . S
O50 C60 1.236 . S
O51 Tb41 2.322 . S
O51 C60 1.257 . S
O52 Tb41 2.349 . S
O52 C63 1.261 . S
O53 Tb40 2.303 . S
O53 C63 1.257 . S
O54 Tb41 2.415 . S
O54 C70 1.239 . S
O55 Tb41 2.399 . S
O55 C70 1.263 . S
O56 Tb41 2.325 . S
O56 C71 1.236 . S
O57 Tb40 2.322 . S
O57 C71 1.257 . S
O58 Tb40 2.349 . S
O58 C42 1.261 . S
O59 Tb41 2.303 . S
O59 C42 1.257 . S
C60 O50 1.236 . S
C60 O51 1.257 . S
O61 Tb40 2.415 . S
O61 C49 1.239 . S
O62 Tb40 2.399 . S
O62 C49 1.263 . S
C63 O52 1.261 . S
C63 O53 1.257 . S
C64 C67 1.358 . S
C64 C68 1.332 . S
C64 C70 1.504 . S
C65 C66 1.373 . S
C65 C69 1.308 . S
C66 C65 1.373 . S
C66 C67 1.429 . S
C66 H76 0.932 . S
C67 C64 1.358 . S
C67 C66 1.429 . S
C67 H77 0.930 . S
C68 C64 1.332 . S
C68 C69 1.394 . S
C68 H78 0.932 . S
C69 C65 1.308 . S
C69 C68 1.394 . S
C69 H79 0.929 . S
C70 Tb41 2.764 . S
C70 O54 1.239 . S
C70 O55 1.263 . S
C70 C64 1.504 . S
C71 O56 1.236 . S
C71 O57 1.257 . S
H72 C45 0.932 . S
H73 C46 0.930 . S
H74 C47 0.932 . S
H75 C48 0.929 . S
H76 C66 0.932 . S
H77 C67 0.930 . S
H78 C68 0.932 . S
H79 C69 0.929 . S
Tb80 C89 2.764 . S
Tb80 O90 2.325 . S
Tb80 O93 2.303 . S
Tb80 O97 2.322 . S
Tb80 O98 2.349 . S
Tb80 O101 2.415 . S
Tb80 O102 2.399 . S
Tb81 O91 2.322 . S
Tb81 O92 2.349 . S
Tb81 O94 2.415 . S
Tb81 O95 2.399 . S
Tb81 O96 2.325 . S
Tb81 O99 2.303 . S
Tb81 C110 2.764 . S
C82 O98 1.261 . S
C82 O99 1.257 . S
C83 C86 1.358 . S
C83 C87 1.332 . S
C83 C89 1.504 . S
C84 C85 1.373 . S
C84 C88 1.308 . S
C85 C84 1.373 . S
C85 C86 1.429 . S
C85 H112 0.932 . S
C86 C83 1.358 . S
C86 C85 1.429 . S
C86 H113 0.930 . S
C87 C83 1.332 . S
C87 C88 1.394 . S
C87 H114 0.932 . S
C88 C84 1.308 . S
C88 C87 1.394 . S
C88 H115 0.929 . S
C89 Tb80 2.764 . S
C89 C83 1.504 . S
C89 O101 1.239 . S
C89 O102 1.263 . S
O90 Tb80 2.325 . S
O90 C100 1.236 . S
O91 Tb81 2.322 . S
O91 C100 1.257 . S
O92 Tb81 2.349 . S
O92 C103 1.261 . S
O93 Tb80 2.303 . S
O93 C103 1.257 . S
O94 Tb81 2.415 . S
O94 C110 1.239 . S
O95 Tb81 2.399 . S
O95 C110 1.263 . S
O96 Tb81 2.325 . S
O96 C111 1.236 . S
O97 Tb80 2.322 . S
O97 C111 1.257 . S
O98 Tb80 2.349 . S
O98 C82 1.261 . S
O99 Tb81 2.303 . S
O99 C82 1.257 . S
C100 O90 1.236 . S
C100 O91 1.257 . S
O101 Tb80 2.415 . S
O101 C89 1.239 . S
O102 Tb80 2.399 . S
O102 C89 1.263 . S
C103 O92 1.261 . S
C103 O93 1.257 . S
C104 C107 1.358 . S
C104 C108 1.332 . S
C104 C110 1.504 . S
C105 C106 1.373 . S
C105 C109 1.308 . S
C106 C105 1.373 . S
C106 C107 1.429 . S
C106 H116 0.932 . S
C107 C104 1.358 . S
C107 C106 1.429 . S
C107 H117 0.930 . S
C108 C104 1.332 . S
C108 C109 1.394 . S
C108 H118 0.932 . S
C109 C105 1.308 . S
C109 C108 1.394 . S
C109 H119 0.929 . S
C110 Tb81 2.764 . S
C110 O94 1.239 . S
C110 O95 1.263 . S
C110 C104 1.504 . S
C111 O96 1.236 . S
C111 O97 1.257 . S
H112 C85 0.932 . S
H113 C86 0.930 . S
H114 C87 0.932 . S
H115 C88 0.929 . S
H116 C106 0.932 . S
H117 C107 0.930 . S
H118 C108 0.932 . S
H119 C109 0.929 . S
Tb120 C129 2.764 . S
Tb120 O130 2.325 . S
Tb120 O133 2.303 . S
Tb120 O137 2.322 . S
Tb120 O138 2.349 . S
Tb120 O141 2.415 . S
Tb120 O142 2.399 . S
Tb121 O131 2.322 . S
Tb121 O132 2.349 . S
Tb121 O134 2.415 . S
Tb121 O135 2.399 . S
Tb121 O136 2.325 . S
Tb121 O139 2.303 . S
Tb121 C150 2.764 . S
C122 O138 1.261 . S
C122 O139 1.257 . S
C123 C126 1.358 . S
C123 C127 1.332 . S
C123 C129 1.504 . S
C124 C125 1.373 . S
C124 C128 1.308 . S
C125 C124 1.373 . S
C125 C126 1.429 . S
C125 H152 0.932 . S
C126 C123 1.358 . S
C126 C125 1.429 . S
C126 H153 0.930 . S
C127 C123 1.332 . S
C127 C128 1.394 . S
C127 H154 0.932 . S
C128 C124 1.308 . S
C128 C127 1.394 . S
C128 H155 0.929 . S
C129 Tb120 2.764 . S
C129 C123 1.504 . S
C129 O141 1.239 . S
C129 O142 1.263 . S
O130 Tb120 2.325 . S
O130 C140 1.236 . S
O131 Tb121 2.322 . S
O131 C140 1.257 . S
O132 Tb121 2.349 . S
O132 C143 1.261 . S
O133 Tb120 2.303 . S
O133 C143 1.257 . S
O134 Tb121 2.415 . S
O134 C150 1.239 . S
O135 Tb121 2.399 . S
O135 C150 1.263 . S
O136 Tb121 2.325 . S
O136 C151 1.236 . S
O137 Tb120 2.322 . S
O137 C151 1.257 . S
O138 Tb120 2.349 . S
O138 C122 1.261 . S
O139 Tb121 2.303 . S
O139 C122 1.257 . S
C140 O130 1.236 . S
C140 O131 1.257 . S
O141 Tb120 2.415 . S
O141 C129 1.239 . S
O142 Tb120 2.399 . S
O142 C129 1.263 . S
C143 O132 1.261 . S
C143 O133 1.257 . S
C144 C147 1.358 . S
C144 C148 1.332 . S
C144 C150 1.504 . S
C145 C146 1.373 . S
C145 C149 1.308 . S
C146 C145 1.373 . S
C146 C147 1.429 . S
C146 H156 0.932 . S
C147 C144 1.358 . S
C147 C146 1.429 . S
C147 H157 0.930 . S
C148 C144 1.332 . S
C148 C149 1.394 . S
C148 H158 0.932 . S
C149 C145 1.308 . S
C149 C148 1.394 . S
C149 H159 0.929 . S
C150 Tb121 2.764 . S
C150 O134 1.239 . S
C150 O135 1.263 . S
C150 C144 1.504 . S
C151 O136 1.236 . S
C151 O137 1.257 . S
H152 C125 0.932 . S
H153 C126 0.930 . S
H154 C127 0.932 . S
H155 C128 0.929 . S
H156 C146 0.932 . S
H157 C147 0.930 . S
H158 C148 0.932 . S
H159 C149 0.929 . S
Tb160 C169 2.764 . S
Tb160 O170 2.325 . S
Tb160 O173 2.303 . S
Tb160 O177 2.322 . S
Tb160 O178 2.349 . S
Tb160 O181 2.415 . S
Tb160 O182 2.399 . S
Tb161 O171 2.322 . S
Tb161 O172 2.349 . S
Tb161 O174 2.415 . S
Tb161 O175 2.399 . S
Tb161 O176 2.325 . S
Tb161 O179 2.303 . S
Tb161 C190 2.764 . S
C162 O178 1.261 . S
C162 O179 1.257 . S
C163 C166 1.358 . S
C163 C167 1.332 . S
C163 C169 1.504 . S
C164 C165 1.373 . S
C164 C168 1.308 . S
C165 C164 1.373 . S
C165 C166 1.429 . S
C165 H192 0.932 . S
C166 C163 1.358 . S
C166 C165 1.429 . S
C166 H193 0.930 . S
C167 C163 1.332 . S
C167 C168 1.394 . S
C167 H194 0.932 . S
C168 C164 1.308 . S
C168 C167 1.394 . S
C168 H195 0.929 . S
C169 Tb160 2.764 . S
C169 C163 1.504 . S
C169 O181 1.239 . S
C169 O182 1.263 . S
O170 Tb160 2.325 . S
O170 C180 1.236 . S
O171 Tb161 2.322 . S
O171 C180 1.257 . S
O172 Tb161 2.349 . S
O172 C183 1.261 . S
O173 Tb160 2.303 . S
O173 C183 1.257 . S
O174 Tb161 2.415 . S
O174 C190 1.239 . S
O175 Tb161 2.399 . S
O175 C190 1.263 . S
O176 Tb161 2.325 . S
O176 C191 1.236 . S
O177 Tb160 2.322 . S
O177 C191 1.257 . S
O178 Tb160 2.349 . S
O178 C162 1.261 . S
O179 Tb161 2.303 . S
O179 C162 1.257 . S
C180 O170 1.236 . S
C180 O171 1.257 . S
O181 Tb160 2.415 . S
O181 C169 1.239 . S
O182 Tb160 2.399 . S
O182 C169 1.263 . S
C183 O172 1.261 . S
C183 O173 1.257 . S
C184 C187 1.358 . S
C184 C188 1.332 . S
C184 C190 1.504 . S
C185 C186 1.373 . S
C185 C189 1.308 . S
C186 C185 1.373 . S
C186 C187 1.429 . S
C186 H196 0.932 . S
C187 C184 1.358 . S
C187 C186 1.429 . S
C187 H197 0.930 . S
C188 C184 1.332 . S
C188 C189 1.394 . S
C188 H198 0.932 . S
C189 C185 1.308 . S
C189 C188 1.394 . S
C189 H199 0.929 . S
C190 Tb161 2.764 . S
C190 O174 1.239 . S
C190 O175 1.263 . S
C190 C184 1.504 . S
C191 O176 1.236 . S
C191 O177 1.257 . S
H192 C165 0.932 . S
H193 C166 0.930 . S
H194 C167 0.932 . S
H195 C168 0.929 . S
H196 C186 0.932 . S
H197 C187 0.930 . S
H198 C188 0.932 . S
H199 C189 0.929 . S
Tb200 C209 2.764 . S
Tb200 O210 2.325 . S
Tb200 O213 2.303 . S
Tb200 O217 2.322 . S
Tb200 O218 2.349 . S
Tb200 O221 2.415 . S
Tb200 O222 2.399 . S
Tb201 O211 2.322 . S
Tb201 O212 2.349 . S
Tb201 O214 2.415 . S
Tb201 O215 2.399 . S
Tb201 O216 2.325 . S
Tb201 O219 2.303 . S
Tb201 C230 2.764 . S
C202 O218 1.261 . S
C202 O219 1.257 . S
C203 C206 1.358 . S
C203 C207 1.332 . S
C203 C209 1.504 . S
C204 C205 1.373 . S
C204 C208 1.308 . S
C205 C204 1.373 . S
C205 C206 1.429 . S
C205 H232 0.932 . S
C206 C203 1.358 . S
C206 C205 1.429 . S
C206 H233 0.930 . S
C207 C203 1.332 . S
C207 C208 1.394 . S
C207 H234 0.932 . S
C208 C204 1.308 . S
C208 C207 1.394 . S
C208 H235 0.929 . S
C209 Tb200 2.764 . S
C209 C203 1.504 . S
C209 O221 1.239 . S
C209 O222 1.263 . S
O210 Tb200 2.325 . S
O210 C220 1.236 . S
O211 Tb201 2.322 . S
O211 C220 1.257 . S
O212 Tb201 2.349 . S
O212 C223 1.261 . S
O213 Tb200 2.303 . S
O213 C223 1.257 . S
O214 Tb201 2.415 . S
O214 C230 1.239 . S
O215 Tb201 2.399 . S
O215 C230 1.263 . S
O216 Tb201 2.325 . S
O216 C231 1.236 . S
O217 Tb200 2.322 . S
O217 C231 1.257 . S
O218 Tb200 2.349 . S
O218 C202 1.261 . S
O219 Tb201 2.303 . S
O219 C202 1.257 . S
C220 O210 1.236 . S
C220 O211 1.257 . S
O221 Tb200 2.415 . S
O221 C209 1.239 . S
O222 Tb200 2.399 . S
O222 C209 1.263 . S
C223 O212 1.261 . S
C223 O213 1.257 . S
C224 C227 1.358 . S
C224 C228 1.332 . S
C224 C230 1.504 . S
C225 C226 1.373 . S
C225 C229 1.308 . S
C226 C225 1.373 . S
C226 C227 1.429 . S
C226 H236 0.932 . S
C227 C224 1.358 . S
C227 C226 1.429 . S
C227 H237 0.930 . S
C228 C224 1.332 . S
C228 C229 1.394 . S
C228 H238 0.932 . S
C229 C225 1.308 . S
C229 C228 1.394 . S
C229 H239 0.929 . S
C230 Tb201 2.764 . S
C230 O214 1.239 . S
C230 O215 1.263 . S
C230 C224 1.504 . S
C231 O216 1.236 . S
C231 O217 1.257 . S
H232 C205 0.932 . S
H233 C206 0.930 . S
H234 C207 0.932 . S
H235 C208 0.929 . S
H236 C226 0.932 . S
H237 C227 0.930 . S
H238 C228 0.932 . S
H239 C229 0.929 . S
Tb240 C249 2.764 . S
Tb240 O250 2.325 . S
Tb240 O253 2.303 . S
Tb240 O257 2.322 . S
Tb240 O258 2.349 . S
Tb240 O261 2.415 . S
Tb240 O262 2.399 . S
Tb241 O251 2.322 . S
Tb241 O252 2.349 . S
Tb241 O254 2.415 . S
Tb241 O255 2.399 . S
Tb241 O256 2.325 . S
Tb241 O259 2.303 . S
Tb241 C270 2.764 . S
C242 O258 1.261 . S
C242 O259 1.257 . S
C243 C246 1.358 . S
C243 C247 1.332 . S
C243 C249 1.504 . S
C244 C245 1.373 . S
C244 C248 1.308 . S
C245 C244 1.373 . S
C245 C246 1.429 . S
C245 H272 0.932 . S
C246 C243 1.358 . S
C246 C245 1.429 . S
C246 H273 0.930 . S
C247 C243 1.332 . S
C247 C248 1.394 . S
C247 H274 0.932 . S
C248 C244 1.308 . S
C248 C247 1.394 . S
C248 H275 0.929 . S
C249 Tb240 2.764 . S
C249 C243 1.504 . S
C249 O261 1.239 . S
C249 O262 1.263 . S
O250 Tb240 2.325 . S
O250 C260 1.236 . S
O251 Tb241 2.322 . S
O251 C260 1.257 . S
O252 Tb241 2.349 . S
O252 C263 1.261 . S
O253 Tb240 2.303 . S
O253 C263 1.257 . S
O254 Tb241 2.415 . S
O254 C270 1.239 . S
O255 Tb241 2.399 . S
O255 C270 1.263 . S
O256 Tb241 2.325 . S
O256 C271 1.236 . S
O257 Tb240 2.322 . S
O257 C271 1.257 . S
O258 Tb240 2.349 . S
O258 C242 1.261 . S
O259 Tb241 2.303 . S
O259 C242 1.257 . S
C260 O250 1.236 . S
C260 O251 1.257 . S
O261 Tb240 2.415 . S
O261 C249 1.239 . S
O262 Tb240 2.399 . S
O262 C249 1.263 . S
C263 O252 1.261 . S
C263 O253 1.257 . S
C264 C267 1.358 . S
C264 C268 1.332 . S
C264 C270 1.504 . S
C265 C266 1.373 . S
C265 C269 1.308 . S
C266 C265 1.373 . S
C266 C267 1.429 . S
C266 H276 0.932 . S
C267 C264 1.358 . S
C267 C266 1.429 . S
C267 H277 0.930 . S
C268 C264 1.332 . S
C268 C269 1.394 . S
C268 H278 0.932 . S
C269 C265 1.308 . S
C269 C268 1.394 . S
C269 H279 0.929 . S
C270 Tb241 2.764 . S
C270 O254 1.239 . S
C270 O255 1.263 . S
C270 C264 1.504 . S
C271 O256 1.236 . S
C271 O257 1.257 . S
H272 C245 0.932 . S
H273 C246 0.930 . S
H274 C247 0.932 . S
H275 C248 0.929 . S
H276 C266 0.932 . S
H277 C267 0.930 . S
H278 C268 0.932 . S
H279 C269 0.929 . S
Tb280 C289 2.764 . S
Tb280 O290 2.325 . S
Tb280 O293 2.303 . S
Tb280 O297 2.322 . S
Tb280 O298 2.349 . S
Tb280 O301 2.415 . S
Tb280 O302 2.399 . S
Tb281 O291 2.322 . S
Tb281 O292 2.349 . S
Tb281 O294 2.415 . S
Tb281 O295 2.399 . S
Tb281 O296 2.325 . S
Tb281 O299 2.303 . S
Tb281 C310 2.764 . S
C282 O298 1.261 . S
C282 O299 1.257 . S
C283 C286 1.358 . S
C283 C287 1.332 . S
C283 C289 1.504 . S
C284 C285 1.373 . S
C284 C288 1.308 . S
C285 C284 1.373 . S
C285 C286 1.429 . S
C285 H312 0.932 . S
C286 C283 1.358 . S
C286 C285 1.429 . S
C286 H313 0.930 . S
C287 C283 1.332 . S
C287 C288 1.394 . S
C287 H314 0.932 . S
C288 C284 1.308 . S
C288 C287 1.394 . S
C288 H315 0.929 . S
C289 Tb280 2.764 . S
C289 C283 1.504 . S
C289 O301 1.239 . S
C289 O302 1.263 . S
O290 Tb280 2.325 . S
O290 C300 1.236 . S
O291 Tb281 2.322 . S
O291 C300 1.257 . S
O292 Tb281 2.349 . S
O292 C303 1.261 . S
O293 Tb280 2.303 . S
O293 C303 1.257 . S
O294 Tb281 2.415 . S
O294 C310 1.239 . S
O295 Tb281 2.399 . S
O295 C310 1.263 . S
O296 Tb281 2.325 . S
O296 C311 1.236 . S
O297 Tb280 2.322 . S
O297 C311 1.257 . S
O298 Tb280 2.349 . S
O298 C282 1.261 . S
O299 Tb281 2.303 . S
O299 C282 1.257 . S
C300 O290 1.236 . S
C300 O291 1.257 . S
O301 Tb280 2.415 . S
O301 C289 1.239 . S
O302 Tb280 2.399 . S
O302 C289 1.263 . S
C303 O292 1.261 . S
C303 O293 1.257 . S
C304 C307 1.358 . S
C304 C308 1.332 . S
C304 C310 1.504 . S
C305 C306 1.373 . S
C305 C309 1.308 . S
C306 C305 1.373 . S
C306 C307 1.429 . S
C306 H316 0.932 . S
C307 C304 1.358 . S
C307 C306 1.429 . S
C307 H317 0.930 . S
C308 C304 1.332 . S
C308 C309 1.394 . S
C308 H318 0.932 . S
C309 C305 1.308 . S
C309 C308 1.394 . S
C309 H319 0.929 . S
C310 Tb281 2.764 . S
C310 O294 1.239 . S
C310 O295 1.263 . S
C310 C304 1.504 . S
C311 O296 1.236 . S
C311 O297 1.257 . S
H312 C285 0.932 . S
H313 C286 0.930 . S
H314 C287 0.932 . S
H315 C288 0.929 . S
H316 C306 0.932 . S
H317 C307 0.930 . S
H318 C308 0.932 . S
H319 C309 0.929 . S
Co320 O323 2.042 . S
Co320 O330 2.264 . S
Co320 O349 2.286 . S
Co320 O350 2.069 . S
Co320 O352 2.015 1_455 S
Co321 O323 2.122 . S
Co321 O329 2.073 . S
Co321 O330 2.327 . S
Co321 O331 1.976 1_455 S
Co322 O323 2.087 1_545 S
Co322 O325 2.087 1_455 S
Co322 O332 2.111 1_445 S
Co322 O333 2.143 . S
Co322 O337 2.111 . S
Co322 O351 2.143 1_445 S
O323 Co320 2.042 . S
O323 Co321 2.122 . S
O323 Co322 2.087 1_565 S
O323 H324 0.980 1_565 S
H324 O323 0.980 1_545 S
O325 Co322 2.087 1_655 S
O325 Co326 2.042 . S
O325 Co327 2.122 . S
O325 H328 0.980 . S
Co326 O325 2.042 . S
Co326 O334 2.286 . S
Co326 O335 2.069 . S
Co326 O336 2.015 1_655 S
Co326 O339 2.264 . S
Co327 O325 2.122 . S
Co327 O338 1.976 1_655 S
Co327 O339 2.327 . S
Co327 O340 2.073 . S
H328 O325 0.980 . S
O329 Co321 2.073 . S
O329 C344 1.245 . S
O330 Co320 2.264 . S
O330 Co321 2.327 . S
O330 C344 1.257 . S
O331 Co321 1.976 1_655 S
O331 C343 1.251 . S
O332 Co322 2.111 1_665 S
O332 C343 1.274 . S
O333 Co322 2.143 . S
O333 C346 1.246 . S
O334 Co326 2.286 . S
O334 C345 1.259 . S
O335 Co326 2.069 . S
O335 C345 1.289 . S
O336 Co326 2.015 1_455 S
O336 C346 1.257 . S
O337 Co322 2.111 . S
O337 C347 1.274 . S
O338 Co327 1.976 1_455 S
O338 C347 1.251 . S
O339 Co326 2.264 . S
O339 Co327 2.327 . S
O339 C348 1.257 . S
O340 Co327 2.073 . S
O340 C348 1.245 . S
C341 O349 1.259 . S
C341 O350 1.289 . S
C342 O351 1.246 . S
C342 O352 1.257 . S
C343 O331 1.251 . S
C343 O332 1.274 . S
C344 O329 1.245 . S
C344 O330 1.257 . S
C345 O334 1.259 . S
C345 O335 1.289 . S
C346 O333 1.246 . S
C346 O336 1.257 . S
C347 O337 1.274 . S
C347 O338 1.251 . S
C348 O339 1.257 . S
C348 O340 1.245 . S
O349 Co320 2.286 . S
O349 C341 1.259 . S
O350 Co320 2.069 . S
O350 C341 1.289 . S
O351 Co322 2.143 1_665 S
O351 C342 1.246 . S
O352 Co320 2.015 1_655 S
O352 C342 1.257 . S
Co353 O356 2.042 1_565 S
Co353 O363 2.264 . S
Co353 O382 2.288 1_554 S
Co353 O383 2.069 . S
Co353 O385 2.015 . S
Co354 O356 2.122 1_565 S
Co354 O362 2.073 . S
Co354 O363 2.327 . S
Co354 O364 1.976 . S
Co355 O356 2.087 . S
Co355 O358 2.087 . S
Co355 O365 2.111 . S
Co355 O366 2.143 . S
Co355 O370 2.111 . S
Co355 O384 2.143 . S
O356 Co353 2.042 1_545 S
O356 Co354 2.122 1_545 S
O356 Co355 2.087 . S
O356 H357 0.980 . S
H357 O356 0.980 . S
O358 Co355 2.087 . S
O358 Co359 2.042 . S
O358 Co360 2.122 1_554 S
O358 H361 0.980 . S
Co359 O358 2.042 . S
Co359 O367 2.286 . S
Co359 O368 2.069 . S
Co359 O369 2.015 . S
Co359 O372 2.264 . S
Co360 O358 2.122 1_556 S
Co360 O371 1.976 . S
Co360 O372 2.327 1_556 S
Co360 O373 2.073 . S
H361 O358 0.980 . S
O362 Co354 2.073 . S
O362 C377 1.245 . S
O363 Co353 2.264 . S
O363 Co354 2.327 . S
O363 C377 1.257 . S
O364 Co354 1.976 . S
O364 C376 1.251 . S
O365 Co355 2.111 . S
O365 C376 1.274 1_545 S
O366 Co355 2.143 . S
O366 C379 1.246 . S
O367 Co359 2.286 . S
O367 C378 1.259 . S
O368 Co359 2.069 . S
O368 C378 1.289 . S
O369 Co359 2.015 . S
O369 C379 1.257 . S
O370 Co355 2.111 . S
O370 C380 1.274 . S
O371 Co360 1.976 . S
O371 C380 1.251 1_556 S
O372 Co359 2.264 . S
O372 Co360 2.327 1_554 S
O372 C381 1.257 . S
O373 Co360 2.073 . S
O373 C381 1.245 1_556 S
C374 O382 1.260 1_554 S
C374 O383 1.289 . S
C375 O384 1.246 1_565 S
C375 O385 1.257 . S
C376 O364 1.251 . S
C376 O365 1.274 1_565 S
C377 O362 1.245 . S
C377 O363 1.257 . S
C378 O367 1.259 . S
C378 O368 1.289 . S
C379 O366 1.246 . S
C379 O369 1.257 . S
C380 O370 1.274 . S
C380 O371 1.251 1_554 S
C381 O372 1.257 . S
C381 O373 1.245 1_554 S
O382 Co353 2.288 1_556 S
O382 C374 1.260 1_556 S
O383 Co353 2.069 . S
O383 C374 1.289 . S
O384 Co355 2.143 . S
O384 C375 1.246 1_545 S
O385 Co353 2.015 . S
O385 C375 1.257 . S
Co386 O389 2.042 1_556 S
Co386 O396 2.264 1_556 S
Co386 O415 2.286 . S
Co386 O416 2.069 . S
Co386 O418 2.015 1_455 S
Co387 O389 2.122 . S
Co387 O395 2.073 . S
Co387 O396 2.327 . S
Co387 O397 1.976 1_455 S
Co388 O389 2.108 . S
Co388 O391 2.066 1_454 S
Co388 O398 2.098 1_455 S
Co388 O399 2.151 . S
Co388 O403 2.125 1_554 S
Co388 O417 2.136 1_454 S
O389 Co386 2.042 1_554 S
O389 Co387 2.122 . S
O389 Co388 2.108 . S
O389 H390 0.980 . S
H390 O389 0.980 . S
O391 Co388 2.066 1_656 S
O391 Co392 2.042 1_556 S
O391 Co393 2.122 . S
O391 H394 0.980 . S
Co392 O391 2.042 1_554 S
Co392 O400 2.286 . S
Co392 O401 2.069 . S
Co392 O402 2.015 1_655 S
Co392 O405 2.264 1_554 S
Co393 O391 2.122 . S
Co393 O404 1.976 1_655 S
Co393 O405 2.327 . S
Co393 O406 2.073 . S
H394 O391 0.980 . S
O395 Co387 2.073 . S
O395 C410 1.245 . S
O396 Co386 2.264 1_554 S
O396 Co387 2.327 . S
O396 C410 1.257 . S
O397 Co387 1.976 1_655 S
O397 C409 1.251 . S
O398 Co388 2.098 1_655 S
O398 C409 1.274 . S
O399 Co388 2.151 . S
O399 C412 1.246 . S
O400 Co392 2.286 . S
O400 C411 1.259 . S
O401 Co392 2.069 . S
O401 C411 1.289 . S
O402 Co392 2.015 1_455 S
O402 C412 1.257 . S
O403 Co388 2.125 1_556 S
O403 C413 1.274 . S
O404 Co393 1.976 1_455 S
O404 C413 1.251 . S
O405 Co392 2.264 1_556 S
O405 Co393 2.327 . S
O405 C414 1.257 . S
O406 Co393 2.073 . S
O406 C414 1.245 . S
C407 O415 1.259 . S
C407 O416 1.289 . S
C408 O417 1.246 . S
C408 O418 1.257 . S
C409 O397 1.251 . S
C409 O398 1.274 . S
C410 O395 1.245 . S
C410 O396 1.257 . S
C411 O400 1.259 . S
C411 O401 1.289 . S
C412 O399 1.246 . S
C412 O402 1.257 . S
C413 O403 1.274 . S
C413 O404 1.251 . S
C414 O405 1.257 . S
C414 O406 1.245 . S
O415 Co386 2.286 . S
O415 C407 1.259 . S
O416 Co386 2.069 . S
O416 C407 1.289 . S
O417 Co388 2.136 1_656 S
O417 C408 1.246 . S
O418 Co386 2.015 1_655 S
O418 C408 1.257 . S
Co419 O422 2.042 . S
Co419 O429 2.264 . S
Co419 O448 2.286 1_554 S
Co419 O449 2.069 . S
Co419 O451 2.012 1_554 S
Co420 O422 2.122 . S
Co420 O428 2.073 . S
Co420 O429 2.327 . S
Co420 O430 1.976 . S
Co421 O422 2.087 . S
Co421 O424 2.087 . S
Co421 O431 2.111 . S
Co421 O432 2.143 . S
Co421 O436 2.111 1_554 S
Co421 O450 2.143 1_554 S
O422 Co419 2.042 . S
O422 Co420 2.122 . S
O422 Co421 2.087 . S
O422 H423 0.980 . S
H423 O422 0.980 . S
O424 Co421 2.087 . S
O424 Co425 2.042 . S
O424 Co426 2.122 1_554 S
O424 H427 0.980 . S
Co425 O424 2.042 . S
Co425 O433 2.286 . S
Co425 O434 2.069 . S
Co425 O435 2.015 . S
Co425 O438 2.264 1_554 S
Co426 O424 2.122 1_556 S
Co426 O437 1.976 . S
Co426 O438 2.327 . S
Co426 O439 2.073 . S
H427 O424 0.980 . S
O428 Co420 2.073 . S
O428 C443 1.245 . S
O429 Co419 2.264 . S
O429 Co420 2.327 . S
O429 C443 1.257 . S
O430 Co420 1.976 . S
O430 C442 1.251 . S
O431 Co421 2.111 . S
O431 C442 1.274 . S
O432 Co421 2.143 . S
O432 C445 1.246 . S
O433 Co425 2.286 . S
O433 C444 1.259 . S
O434 Co425 2.069 . S
O434 C444 1.289 . S
O435 Co425 2.015 . S
O435 C445 1.257 . S
O436 Co421 2.111 1_556 S
O436 C446 1.274 . S
O437 Co426 1.976 . S
O437 C446 1.251 . S
O438 Co425 2.264 1_556 S
O438 Co426 2.327 . S
O438 C447 1.257 . S
O439 Co426 2.073 . S
O439 C447 1.245 . S
C440 O448 1.259 . S
C440 O449 1.289 1_556 S
C441 O450 1.246 . S
C441 O451 1.261 . S
C442 O430 1.251 . S
C442 O431 1.274 . S
C443 O428 1.245 . S
C443 O429 1.257 . S
C444 O433 1.259 . S
C444 O434 1.289 . S
C445 O432 1.246 . S
C445 O435 1.257 . S
C446 O436 1.274 . S
C446 O437 1.251 . S
C447 O438 1.257 . S
C447 O439 1.245 . S
O448 Co419 2.286 1_556 S
O448 C440 1.259 . S
O449 Co419 2.069 . S
O449 C440 1.289 1_554 S
O450 Co421 2.143 1_556 S
O450 C441 1.246 . S
O451 Co419 2.012 1_556 S
O451 C441 1.261 . S
Co452 O455 2.042 . S
Co452 O462 2.264 . S
Co452 O481 2.286 . S
Co452 O482 2.069 . S
Co452 O484 2.015 . S
Co453 O455 2.122 . S
Co453 O461 2.073 . S
Co453 O462 2.327 . S
Co453 O463 1.976 . S
Co454 O455 2.087 . S
Co454 O457 2.087 . S
Co454 O464 2.111 . S
Co454 O465 2.143 1_455 S
Co454 O469 2.111 . S
Co454 O483 2.143 . S
O455 Co452 2.042 . S
O455 Co453 2.122 . S
O455 Co454 2.087 . S
O455 H456 0.980 . S
H456 O455 0.980 . S
O457 Co454 2.087 . S
O457 Co458 2.042 1_455 S
O457 Co459 2.122 1_455 S
O457 H460 0.980 . S
Co458 O457 2.042 1_655 S
Co458 O466 2.286 . S
Co458 O467 2.069 . S
Co458 O468 2.015 . S
Co458 O471 2.264 . S
Co459 O457 2.122 1_655 S
Co459 O470 1.976 . S
Co459 O471 2.327 . S
Co459 O472 2.073 . S
H460 O457 0.980 . S
O461 Co453 2.073 . S
O461 C476 1.245 . S
O462 Co452 2.264 . S
O462 Co453 2.327 . S
O462 C476 1.257 . S
O463 Co453 1.976 . S
O463 C475 1.251 . S
O464 Co454 2.111 . S
O464 C475 1.274 . S
O465 Co454 2.143 1_655 S
O465 C478 1.246 . S
O466 Co458 2.286 . S
O466 C477 1.259 . S
O467 Co458 2.069 . S
O467 C477 1.289 . S
O468 Co458 2.015 . S
O468 C478 1.257 . S
O469 Co454 2.111 . S
O469 C479 1.274 1_455 S
O470 Co459 1.976 . S
O470 C479 1.251 . S
O471 Co458 2.264 . S
O471 Co459 2.327 . S
O471 C480 1.257 . S
O472 Co459 2.073 . S
O472 C480 1.245 . S
C473 O481 1.259 . S
C473 O482 1.289 . S
C474 O483 1.246 . S
C474 O484 1.257 . S
C475 O463 1.251 . S
C475 O464 1.274 . S
C476 O461 1.245 . S
C476 O462 1.257 . S
C477 O466 1.259 . S
C477 O467 1.289 . S
C478 O465 1.246 . S
C478 O468 1.257 . S
C479 O469 1.274 1_655 S
C479 O470 1.251 . S
C480 O471 1.257 . S
C480 O472 1.245 . S
O481 Co452 2.286 . S
O481 C473 1.259 . S
O482 Co452 2.069 . S
O482 C473 1.289 . S
O483 Co454 2.143 . S
O483 C474 1.246 . S
O484 Co452 2.015 . S
O484 C474 1.257 . S
Co485 O488 2.042 . S
Co485 O495 2.264 . S
Co485 O514 2.286 . S
Co485 O515 2.069 . S
Co485 O517 2.015 1_565 S
Co486 O488 2.122 . S
Co486 O494 2.073 . S
Co486 O495 2.327 . S
Co486 O496 1.976 1_565 S
Co487 O488 2.087 1_545 S
Co487 O490 2.087 . S
Co487 O497 2.111 . S
Co487 O498 2.143 1_545 S
Co487 O502 2.111 1_545 S
Co487 O516 2.143 . S
O488 Co485 2.042 . S
O488 Co486 2.122 . S
O488 Co487 2.087 1_565 S
O488 H489 0.980 . S
H489 O488 0.980 . S
O490 Co487 2.087 . S
O490 Co491 2.042 . S
O490 Co492 2.122 . S
O490 H493 0.980 . S
Co491 O490 2.042 . S
Co491 O499 2.286 . S
Co491 O500 2.069 . S
Co491 O501 2.015 1_545 S
Co491 O504 2.264 . S
Co492 O490 2.122 . S
Co492 O503 1.976 1_545 S
Co492 O504 2.327 . S
Co492 O505 2.073 . S
H493 O490 0.980 . S
O494 Co486 2.073 . S
O494 C509 1.245 . S
O495 Co485 2.264 . S
O495 Co486 2.327 . S
O495 C509 1.257 . S
O496 Co486 1.976 1_545 S
O496 C508 1.251 . S
O497 Co487 2.111 . S
O497 C508 1.274 . S
O498 Co487 2.143 1_565 S
O498 C511 1.246 . S
O499 Co491 2.286 . S
O499 C510 1.259 . S
O500 Co491 2.069 . S
O500 C510 1.289 . S
O501 Co491 2.015 1_565 S
O501 C511 1.257 . S
O502 Co487 2.111 1_565 S
O502 C512 1.274 . S
O503 Co492 1.976 1_565 S
O503 C512 1.251 . S
O504 Co491 2.264 . S
O504 Co492 2.327 . S
O504 C513 1.257 . S
O505 Co492 2.073 . S
O505 C513 1.245 . S
C506 O514 1.259 . S
C506 O515 1.289 . S
C507 O516 1.246 . S
C507 O517 1.257 . S
C508 O496 1.251 . S
C508 O497 1.274 . S
C509 O494 1.245 . S
C509 O495 1.257 . S
C510 O499 1.259 . S
C510 O500 1.289 . S
C511 O498 1.246 . S
C511 O501 1.257 . S
C512 O502 1.274 . S
C512 O503 1.251 . S
C513 O504 1.257 . S
C513 O505 1.245 . S
O514 Co485 2.286 . S
O514 C506 1.259 . S
O515 Co485 2.069 . S
O515 C506 1.289 . S
O516 Co487 2.143 . S
O516 C507 1.246 . S
O517 Co485 2.015 1_545 S
O517 C507 1.257 . S
H518 C526 0.929 . S
H519 C528 0.930 . S
H520 C530 0.930 . S
H521 C533 0.929 . S
H522 C536 0.930 . S
H523 C538 0.960 . S
H524 C538 0.960 . S
H525 C538 0.960 . S
C526 H518 0.929 . S
C526 C527 1.377 . S
C526 C528 1.384 . S
C527 C526 1.377 . S
C527 C533 1.390 . S
C528 H519 0.930 . S
C528 C526 1.384 . S
C528 C529 1.372 . S
C529 C528 1.372 . S
C529 C530 1.400 . S
C529 C534 1.490 . S
C530 H520 0.930 . S
C530 C529 1.400 . S
C530 C533 1.386 . S
H531 C547 0.930 . S
H532 C548 0.931 . S
C533 H521 0.929 . S
C533 C527 1.390 . S
C533 C530 1.386 . S
C534 C529 1.490 . S
C534 C536 1.395 . S
C534 C537 1.403 . S
H535 C541 0.930 . S
C536 H522 0.930 . S
C536 C534 1.395 . S
C536 C539 1.403 . S
C537 C534 1.403 . S
C537 C538 1.524 . S
C537 C541 1.400 . S
C538 H523 0.960 . S
C538 H524 0.960 . S
C538 H525 0.960 . S
C538 C537 1.524 . S
C539 C536 1.403 . S
C539 C540 1.392 . S
C539 C543 1.495 . S
C540 C539 1.392 . S
C540 C541 1.385 . S
C540 C542 1.478 . S
C541 H535 0.930 . S
C541 C537 1.400 . S
C541 C540 1.385 . S
C542 C540 1.478 . S
C542 C544 1.381 . S
C542 C548 1.383 . S
C543 C539 1.495 . S
C543 H549 0.959 . S
C543 H550 0.961 . S
C543 H551 0.960 . S
C544 C542 1.381 . S
C544 C545 1.394 . S
C544 H552 0.930 . S
C545 C544 1.394 . S
C545 C546 1.383 . S
C545 H553 0.929 . S
C546 C545 1.383 . S
C546 C547 1.377 . S
C547 H531 0.930 . S
C547 C546 1.377 . S
C547 C548 1.379 . S
C548 H532 0.931 . S
C548 C542 1.383 . S
C548 C547 1.379 . S
H549 C543 0.959 . S
H550 C543 0.961 . S
H551 C543 0.960 . S
H552 C544 0.930 . S
H553 C545 0.929 . S
H554 C562 0.929 . S
H555 C564 0.930 . S
H556 C566 0.930 . S
H557 C569 0.929 . S
H558 C572 0.930 . S
H559 C574 0.960 . S
H560 C574 0.960 . S
H561 C574 0.960 . S
C562 H554 0.929 . S
C562 C563 1.377 . S
C562 C564 1.384 . S
C563 C562 1.377 . S
C563 C569 1.390 . S
C564 H555 0.930 . S
C564 C562 1.384 . S
C564 C565 1.372 . S
C565 C564 1.372 . S
C565 C566 1.400 . S
C565 C570 1.490 . S
C566 H556 0.930 . S
C566 C565 1.400 . S
C566 C569 1.386 . S
H567 C583 0.930 . S
H568 C584 0.931 . S
C569 H557 0.929 . S
C569 C563 1.390 . S
C569 C566 1.386 . S
C570 C565 1.490 . S
C570 C572 1.395 . S
C570 C573 1.403 . S
H571 C577 0.930 . S
C572 H558 0.930 . S
C572 C570 1.395 . S
C572 C575 1.403 . S
C573 C570 1.403 . S
C573 C574 1.524 . S
C573 C577 1.400 . S
C574 H559 0.960 . S
C574 H560 0.960 . S
C574 H561 0.960 . S
C574 C573 1.524 . S
C575 C572 1.403 . S
C575 C576 1.392 . S
C575 C579 1.495 . S
C576 C575 1.392 . S
C576 C577 1.385 . S
C576 C578 1.478 . S
C577 H571 0.930 . S
C577 C573 1.400 . S
C577 C576 1.385 . S
C578 C576 1.478 . S
C578 C580 1.381 . S
C578 C584 1.383 . S
C579 C575 1.495 . S
C579 H585 0.959 . S
C579 H586 0.961 . S
C579 H587 0.960 . S
C580 C578 1.381 . S
C580 C581 1.394 . S
C580 H588 0.930 . S
C581 C580 1.394 . S
C581 C582 1.383 . S
C581 H589 0.929 . S
C582 C581 1.383 . S
C582 C583 1.377 . S
C583 H567 0.930 . S
C583 C582 1.377 . S
C583 C584 1.379 . S
C584 H568 0.931 . S
C584 C578 1.383 . S
C584 C583 1.379 . S
H585 C579 0.959 . S
H586 C579 0.961 . S
H587 C579 0.960 . S
H588 C580 0.930 . S
H589 C581 0.929 . S
H590 C598 0.929 . S
H591 C600 0.930 . S
H592 C602 0.930 . S
H593 C605 0.929 . S
H594 C608 0.930 . S
H595 C610 0.960 . S
H596 C610 0.960 . S
H597 C610 0.960 . S
C598 H590 0.929 . S
C598 C599 1.377 . S
C598 C600 1.384 . S
C599 C598 1.377 . S
C599 C605 1.390 . S
C600 H591 0.930 . S
C600 C598 1.384 . S
C600 C601 1.372 . S
C601 C600 1.372 . S
C601 C602 1.400 . S
C601 C606 1.490 . S
C602 H592 0.930 . S
C602 C601 1.400 . S
C602 C605 1.386 . S
H603 C619 0.930 . S
H604 C620 0.931 . S
C605 H593 0.929 . S
C605 C599 1.390 . S
C605 C602 1.386 . S
C606 C601 1.490 . S
C606 C608 1.395 . S
C606 C609 1.403 . S
H607 C613 0.930 . S
C608 H594 0.930 . S
C608 C606 1.395 . S
C608 C611 1.403 . S
C609 C606 1.403 . S
C609 C610 1.524 . S
C609 C613 1.400 . S
C610 H595 0.960 . S
C610 H596 0.960 . S
C610 H597 0.960 . S
C610 C609 1.524 . S
C611 C608 1.403 . S
C611 C612 1.392 . S
C611 C615 1.495 . S
C612 C611 1.392 . S
C612 C613 1.385 . S
C612 C614 1.478 . S
C613 H607 0.930 . S
C613 C609 1.400 . S
C613 C612 1.385 . S
C614 C612 1.478 . S
C614 C616 1.381 . S
C614 C620 1.383 . S
C615 C611 1.495 . S
C615 H621 0.959 . S
C615 H622 0.961 . S
C615 H623 0.960 . S
C616 C614 1.381 . S
C616 C617 1.394 . S
C616 H624 0.930 . S
C617 C616 1.394 . S
C617 C618 1.383 . S
C617 H625 0.929 . S
C618 C617 1.383 . S
C618 C619 1.377 . S
C619 H603 0.930 . S
C619 C618 1.377 . S
C619 C620 1.379 . S
C620 H604 0.931 . S
C620 C614 1.383 . S
C620 C619 1.379 . S
H621 C615 0.959 . S
H622 C615 0.961 . S
H623 C615 0.960 . S
H624 C616 0.930 . S
H625 C617 0.929 . S
H626 C634 0.929 . S
H627 C636 0.930 . S
H628 C638 0.930 . S
H629 C641 0.929 . S
H630 C644 0.930 . S
H631 C646 0.960 . S
H632 C646 0.960 . S
H633 C646 0.960 . S
C634 H626 0.929 . S
C634 C635 1.377 . S
C634 C636 1.384 . S
C635 C634 1.377 . S
C635 C641 1.390 . S
C636 H627 0.930 . S
C636 C634 1.384 . S
C636 C637 1.372 . S
C637 C636 1.372 . S
C637 C638 1.400 . S
C637 C642 1.490 . S
C638 H628 0.930 . S
C638 C637 1.400 . S
C638 C641 1.386 . S
H639 C655 0.930 . S
H640 C656 0.931 . S
C641 H629 0.929 . S
C641 C635 1.390 . S
C641 C638 1.386 . S
C642 C637 1.490 . S
C642 C644 1.395 . S
C642 C645 1.403 . S
H643 C649 0.930 . S
C644 H630 0.930 . S
C644 C642 1.395 . S
C644 C647 1.403 . S
C645 C642 1.403 . S
C645 C646 1.524 . S
C645 C649 1.400 . S
C646 H631 0.960 . S
C646 H632 0.960 . S
C646 H633 0.960 . S
C646 C645 1.524 . S
C647 C644 1.403 . S
C647 C648 1.392 . S
C647 C651 1.495 . S
C648 C647 1.392 . S
C648 C649 1.385 . S
C648 C650 1.478 . S
C649 H643 0.930 . S
C649 C645 1.400 . S
C649 C648 1.385 . S
C650 C648 1.478 . S
C650 C652 1.381 . S
C650 C656 1.383 . S
C651 C647 1.495 . S
C651 H657 0.959 . S
C651 H658 0.961 . S
C651 H659 0.960 . S
C652 C650 1.381 . S
C652 C653 1.394 . S
C652 H660 0.930 . S
C653 C652 1.394 . S
C653 C654 1.383 . S
C653 H661 0.929 . S
C654 C653 1.383 . S
C654 C655 1.377 . S
C655 H639 0.930 . S
C655 C654 1.377 . S
C655 C656 1.379 . S
C656 H640 0.931 . S
C656 C650 1.383 . S
C656 C655 1.379 . S
H657 C651 0.959 . S
H658 C651 0.961 . S
H659 C651 0.960 . S
H660 C652 0.930 . S
H661 C653 0.929 . S
H662 C670 0.929 . S
H663 C672 0.930 . S
H664 C674 0.930 . S
H665 C677 0.929 . S
H666 C680 0.930 . S
H667 C682 0.960 . S
H668 C682 0.960 . S
H669 C682 0.960 . S
C670 H662 0.929 . S
C670 C671 1.377 . S
C670 C672 1.384 . S
C671 C670 1.377 . S
C671 C677 1.390 . S
C672 H663 0.930 . S
C672 C670 1.384 . S
C672 C673 1.372 . S
C673 C672 1.372 . S
C673 C674 1.400 . S
C673 C678 1.490 . S
C674 H664 0.930 . S
C674 C673 1.400 . S
C674 C677 1.386 . S
H675 C691 0.930 . S
H676 C692 0.931 . S
C677 H665 0.929 . S
C677 C671 1.390 . S
C677 C674 1.386 . S
C678 C673 1.490 . S
C678 C680 1.395 . S
C678 C681 1.403 . S
H679 C685 0.930 . S
C680 H666 0.930 . S
C680 C678 1.395 . S
C680 C683 1.403 . S
C681 C678 1.403 . S
C681 C682 1.524 . S
C681 C685 1.400 . S
C682 H667 0.960 . S
C682 H668 0.960 . S
C682 H669 0.960 . S
C682 C681 1.524 . S
C683 C680 1.403 . S
C683 C684 1.392 . S
C683 C687 1.495 . S
C684 C683 1.392 . S
C684 C685 1.385 . S
C684 C686 1.478 . S
C685 H679 0.930 . S
C685 C681 1.400 . S
C685 C684 1.385 . S
C686 C684 1.478 . S
C686 C688 1.381 . S
C686 C692 1.383 . S
C687 C683 1.495 . S
C687 H693 0.959 . S
C687 H694 0.961 . S
C687 H695 0.960 . S
C688 C686 1.381 . S
C688 C689 1.394 . S
C688 H696 0.930 . S
C689 C688 1.394 . S
C689 C690 1.383 . S
C689 H697 0.929 . S
C690 C689 1.383 . S
C690 C691 1.377 . S
C691 H675 0.930 . S
C691 C690 1.377 . S
C691 C692 1.379 . S
C692 H676 0.931 . S
C692 C686 1.383 . S
C692 C691 1.379 . S
H693 C687 0.959 . S
H694 C687 0.961 . S
H695 C687 0.960 . S
H696 C688 0.930 . S
H697 C689 0.929 . S
H698 C706 0.929 . S
H699 C708 0.930 . S
H700 C710 0.930 . S
H701 C713 0.929 . S
H702 C716 0.930 . S
H703 C718 0.960 . S
H704 C718 0.960 . S
H705 C718 0.960 . S
C706 H698 0.929 . S
C706 C707 1.377 . S
C706 C708 1.384 . S
C707 C706 1.377 . S
C707 C713 1.390 . S
C708 H699 0.930 . S
C708 C706 1.384 . S
C708 C709 1.372 . S
C709 C708 1.372 . S
C709 C710 1.400 . S
C709 C714 1.490 . S
C710 H700 0.930 . S
C710 C709 1.400 . S
C710 C713 1.386 . S
H711 C727 0.930 . S
H712 C728 0.931 . S
C713 H701 0.929 . S
C713 C707 1.390 . S
C713 C710 1.386 . S
C714 C709 1.490 . S
C714 C716 1.395 . S
C714 C717 1.403 . S
H715 C721 0.930 . S
C716 H702 0.930 . S
C716 C714 1.395 . S
C716 C719 1.403 . S
C717 C714 1.403 . S
C717 C718 1.524 . S
C717 C721 1.400 . S
C718 H703 0.960 . S
C718 H704 0.960 . S
C718 H705 0.960 . S
C718 C717 1.524 . S
C719 C716 1.403 . S
C719 C720 1.392 . S
C719 C723 1.495 . S
C720 C719 1.392 . S
C720 C721 1.385 . S
C720 C722 1.478 . S
C721 H715 0.930 . S
C721 C717 1.400 . S
C721 C720 1.385 . S
C722 C720 1.478 . S
C722 C724 1.381 . S
C722 C728 1.383 . S
C723 C719 1.495 . S
C723 H729 0.959 . S
C723 H730 0.961 . S
C723 H731 0.960 . S
C724 C722 1.381 . S
C724 C725 1.394 . S
C724 H732 0.930 . S
C725 C724 1.394 . S
C725 C726 1.383 . S
C725 H733 0.929 . S
C726 C725 1.383 . S
C726 C727 1.377 . S
C727 H711 0.930 . S
C727 C726 1.377 . S
C727 C728 1.379 . S
C728 H712 0.931 . S
C728 C722 1.383 . S
C728 C727 1.379 . S
H729 C723 0.959 . S
H730 C723 0.961 . S
H731 C723 0.960 . S
H732 C724 0.930 . S
H733 C725 0.929 . S
H734 C742 0.929 . S
H735 C744 0.930 . S
H736 C746 0.930 . S
H737 C749 0.929 . S
H738 C752 0.930 . S
H739 C754 0.960 . S
H740 C754 0.960 . S
H741 C754 0.960 . S
C742 H734 0.929 . S
C742 C743 1.377 . S
C742 C744 1.384 . S
C743 C742 1.377 . S
C743 C749 1.390 . S
C744 H735 0.930 . S
C744 C742 1.384 . S
C744 C745 1.372 . S
C745 C744 1.372 . S
C745 C746 1.400 . S
C745 C750 1.490 . S
C746 H736 0.930 . S
C746 C745 1.400 . S
C746 C749 1.386 . S
H747 C763 0.930 . S
H748 C764 0.931 . S
C749 H737 0.929 . S
C749 C743 1.390 . S
C749 C746 1.386 . S
C750 C745 1.490 . S
C750 C752 1.395 . S
C750 C753 1.403 . S
H751 C757 0.930 . S
C752 H738 0.930 . S
C752 C750 1.395 . S
C752 C755 1.403 . S
C753 C750 1.403 . S
C753 C754 1.524 . S
C753 C757 1.400 . S
C754 H739 0.960 . S
C754 H740 0.960 . S
C754 H741 0.960 . S
C754 C753 1.524 . S
C755 C752 1.403 . S
C755 C756 1.392 . S
C755 C759 1.495 . S
C756 C755 1.392 . S
C756 C757 1.385 . S
C756 C758 1.478 . S
C757 H751 0.930 . S
C757 C753 1.400 . S
C757 C756 1.385 . S
C758 C756 1.478 . S
C758 C760 1.381 . S
C758 C764 1.383 . S
C759 C755 1.495 . S
C759 H765 0.959 . S
C759 H766 0.961 . S
C759 H767 0.960 . S
C760 C758 1.381 . S
C760 C761 1.394 . S
C760 H768 0.930 . S
C761 C760 1.394 . S
C761 C762 1.383 . S
C761 H769 0.929 . S
C762 C761 1.383 . S
C762 C763 1.377 . S
C763 H747 0.930 . S
C763 C762 1.377 . S
C763 C764 1.379 . S
C764 H748 0.931 . S
C764 C758 1.383 . S
C764 C763 1.379 . S
H765 C759 0.959 . S
H766 C759 0.961 . S
H767 C759 0.960 . S
H768 C760 0.930 . S
H769 C761 0.929 . S
H770 C778 0.929 . S
H771 C780 0.930 . S
H772 C782 0.930 . S
H773 C785 0.929 . S
H774 C788 0.930 . S
H775 C790 0.960 . S
H776 C790 0.960 . S
H777 C790 0.960 . S
C778 H770 0.929 . S
C778 C779 1.377 . S
C778 C780 1.384 . S
C779 C778 1.377 . S
C779 C785 1.390 . S
C780 H771 0.930 . S
C780 C778 1.384 . S
C780 C781 1.372 . S
C781 C780 1.372 . S
C781 C782 1.400 . S
C781 C786 1.490 . S
C782 H772 0.930 . S
C782 C781 1.400 . S
C782 C785 1.386 . S
H783 C799 0.930 . S
H784 C800 0.931 . S
C785 H773 0.929 . S
C785 C779 1.390 . S
C785 C782 1.386 . S
C786 C781 1.490 . S
C786 C788 1.395 . S
C786 C789 1.403 . S
H787 C793 0.930 . S
C788 H774 0.930 . S
C788 C786 1.395 . S
C788 C791 1.403 . S
C789 C786 1.403 . S
C789 C790 1.524 . S
C789 C793 1.400 . S
C790 H775 0.960 . S
C790 H776 0.960 . S
C790 H777 0.960 . S
C790 C789 1.524 . S
C791 C788 1.403 . S
C791 C792 1.392 . S
C791 C795 1.495 . S
C792 C791 1.392 . S
C792 C793 1.385 . S
C792 C794 1.478 . S
C793 H787 0.930 . S
C793 C789 1.400 . S
C793 C792 1.385 . S
C794 C792 1.478 . S
C794 C796 1.381 . S
C794 C800 1.383 . S
C795 C791 1.495 . S
C795 H801 0.959 . S
C795 H802 0.961 . S
C795 H803 0.960 . S
C796 C794 1.381 . S
C796 C797 1.394 . S
C796 H804 0.930 . S
C797 C796 1.394 . S
C797 C798 1.383 . S
C797 H805 0.929 . S
C798 C797 1.383 . S
C798 C799 1.377 . S
C799 H783 0.930 . S
C799 C798 1.377 . S
C799 C800 1.379 . S
C800 H784 0.931 . S
C800 C794 1.383 . S
C800 C799 1.379 . S
H801 C795 0.959 . S
H802 C795 0.961 . S
H803 C795 0.960 . S
H804 C796 0.930 . S
H805 C797 0.929 . S
H806 C814 0.929 . S
H807 C816 0.930 . S
H808 C818 0.930 . S
H809 C821 0.929 . S
H810 C824 0.930 . S
H811 C826 0.960 . S
H812 C826 0.960 . S
H813 C826 0.960 . S
C814 H806 0.929 . S
C814 C815 1.377 . S
C814 C816 1.384 . S
C815 C814 1.377 . S
C815 C821 1.390 . S
C816 H807 0.930 . S
C816 C814 1.384 . S
C816 C817 1.372 . S
C817 C816 1.372 . S
C817 C818 1.400 . S
C817 C822 1.490 . S
C818 H808 0.930 . S
C818 C817 1.400 . S
C818 C821 1.386 . S
H819 C835 0.930 . S
H820 C836 0.931 . S
C821 H809 0.929 . S
C821 C815 1.390 . S
C821 C818 1.386 . S
C822 C817 1.490 . S
C822 C824 1.395 . S
C822 C825 1.403 . S
H823 C829 0.930 . S
C824 H810 0.930 . S
C824 C822 1.395 . S
C824 C827 1.403 . S
C825 C822 1.403 . S
C825 C826 1.524 . S
C825 C829 1.400 . S
C826 H811 0.960 . S
C826 H812 0.960 . S
C826 H813 0.960 . S
C826 C825 1.524 . S
C827 C824 1.403 . S
C827 C828 1.392 . S
C827 C831 1.495 . S
C828 C827 1.392 . S
C828 C829 1.385 . S
C828 C830 1.478 . S
C829 H823 0.930 . S
C829 C825 1.400 . S
C829 C828 1.385 . S
C830 C828 1.478 . S
C830 C832 1.381 . S
C830 C836 1.383 . S
C831 C827 1.495 . S
C831 H837 0.959 . S
C831 H838 0.961 . S
C831 H839 0.960 . S
C832 C830 1.381 . S
C832 C833 1.394 . S
C832 H840 0.930 . S
C833 C832 1.394 . S
C833 C834 1.383 . S
C833 H841 0.929 . S
C834 C833 1.383 . S
C834 C835 1.377 . S
C835 H819 0.930 . S
C835 C834 1.377 . S
C835 C836 1.379 . S
C836 H820 0.931 . S
C836 C830 1.383 . S
C836 C835 1.379 . S
H837 C831 0.959 . S
H838 C831 0.961 . S
H839 C831 0.960 . S
H840 C832 0.930 . S
H841 C833 0.929 . S
H842 C850 0.929 . S
H843 C852 0.930 . S
H844 C854 0.930 . S
H845 C857 0.929 . S
H846 C860 0.930 . S
H847 C862 0.960 . S
H848 C862 0.960 . S
H849 C862 0.960 . S
C850 H842 0.929 . S
C850 C851 1.377 . S
C850 C852 1.384 . S
C851 C850 1.377 . S
C851 C857 1.390 . S
C852 H843 0.930 . S
C852 C850 1.384 . S
C852 C853 1.372 . S
C853 C852 1.372 . S
C853 C854 1.400 . S
C853 C858 1.490 . S
C854 H844 0.930 . S
C854 C853 1.400 . S
C854 C857 1.386 . S
H855 C871 0.930 . S
H856 C872 0.931 . S
C857 H845 0.929 . S
C857 C851 1.390 . S
C857 C854 1.386 . S
C858 C853 1.490 . S
C858 C860 1.395 . S
C858 C861 1.403 . S
H859 C865 0.930 . S
C860 H846 0.930 . S
C860 C858 1.395 . S
C860 C863 1.403 . S
C861 C858 1.403 . S
C861 C862 1.524 . S
C861 C865 1.400 . S
C862 H847 0.960 . S
C862 H848 0.960 . S
C862 H849 0.960 . S
C862 C861 1.524 . S
C863 C860 1.403 . S
C863 C864 1.392 . S
C863 C867 1.495 . S
C864 C863 1.392 . S
C864 C865 1.385 . S
C864 C866 1.478 . S
C865 H859 0.930 . S
C865 C861 1.400 . S
C865 C864 1.385 . S
C866 C864 1.478 . S
C866 C868 1.381 . S
C866 C872 1.383 . S
C867 C863 1.495 . S
C867 H873 0.959 . S
C867 H874 0.961 . S
C867 H875 0.960 . S
C868 C866 1.381 . S
C868 C869 1.394 . S
C868 H876 0.930 . S
C869 C868 1.394 . S
C869 C870 1.383 . S
C869 H877 0.929 . S
C870 C869 1.383 . S
C870 C871 1.377 . S
C871 H855 0.930 . S
C871 C870 1.377 . S
C871 C872 1.379 . S
C872 H856 0.931 . S
C872 C866 1.383 . S
C872 C871 1.379 . S
H873 C867 0.959 . S
H874 C867 0.961 . S
H875 C867 0.960 . S
H876 C868 0.930 . S
H877 C869 0.929 . S
H878 C886 0.929 . S
H879 C888 0.930 . S
H880 C890 0.930 . S
H881 C893 0.929 . S
H882 C896 0.930 . S
H883 C898 0.960 . S
H884 C898 0.960 . S
H885 C898 0.960 . S
C886 H878 0.929 . S
C886 C887 1.377 . S
C886 C888 1.384 . S
C887 C886 1.377 . S
C887 C893 1.390 . S
C888 H879 0.930 . S
C888 C886 1.384 . S
C888 C889 1.372 . S
C889 C888 1.372 . S
C889 C890 1.400 . S
C889 C894 1.490 . S
C890 H880 0.930 . S
C890 C889 1.400 . S
C890 C893 1.386 . S
H891 C907 0.930 . S
H892 C908 0.931 . S
C893 H881 0.929 . S
C893 C887 1.390 . S
C893 C890 1.386 . S
C894 C889 1.490 . S
C894 C896 1.395 . S
C894 C897 1.403 . S
H895 C901 0.930 . S
C896 H882 0.930 . S
C896 C894 1.395 . S
C896 C899 1.403 . S
C897 C894 1.403 . S
C897 C898 1.524 . S
C897 C901 1.400 . S
C898 H883 0.960 . S
C898 H884 0.960 . S
C898 H885 0.960 . S
C898 C897 1.524 . S
C899 C896 1.403 . S
C899 C900 1.392 . S
C899 C903 1.495 . S
C900 C899 1.392 . S
C900 C901 1.385 . S
C900 C902 1.478 . S
C901 H895 0.930 . S
C901 C897 1.400 . S
C901 C900 1.385 . S
C902 C900 1.478 . S
C902 C904 1.381 . S
C902 C908 1.383 . S
C903 C899 1.495 . S
C903 H909 0.959 . S
C903 H910 0.961 . S
C903 H911 0.960 . S
C904 C902 1.381 . S
C904 C905 1.394 . S
C904 H912 0.930 . S
C905 C904 1.394 . S
C905 C906 1.383 . S
C905 H913 0.929 . S
C906 C905 1.383 . S
C906 C907 1.377 . S
C907 H891 0.930 . S
C907 C906 1.377 . S
C907 C908 1.379 . S
C908 H892 0.931 . S
C908 C902 1.383 . S
C908 C907 1.379 . S
H909 C903 0.959 . S
H910 C903 0.961 . S
H911 C903 0.960 . S
H912 C904 0.930 . S
H913 C905 0.929 . S
H914 C922 0.929 . S
H915 C924 0.930 . S
H916 C926 0.930 . S
H917 C929 0.929 . S
H918 C932 0.930 . S
H919 C934 0.960 . S
H920 C934 0.960 . S
H921 C934 0.960 . S
C922 H914 0.929 . S
C922 C923 1.377 . S
C922 C924 1.384 . S
C923 C922 1.377 . S
C923 C929 1.390 . S
C924 H915 0.930 . S
C924 C922 1.384 . S
C924 C925 1.372 . S
C925 C924 1.372 . S
C925 C926 1.400 . S
C925 C930 1.490 . S
C926 H916 0.930 . S
C926 C925 1.400 . S
C926 C929 1.386 . S
H927 C943 0.930 . S
H928 C944 0.931 . S
C929 H917 0.929 . S
C929 C923 1.390 . S
C929 C926 1.386 . S
C930 C925 1.490 . S
C930 C932 1.395 . S
C930 C933 1.403 . S
H931 C937 0.930 . S
C932 H918 0.930 . S
C932 C930 1.395 . S
C932 C935 1.403 . S
C933 C930 1.403 . S
C933 C934 1.524 . S
C933 C937 1.400 . S
C934 H919 0.960 . S
C934 H920 0.960 . S
C934 H921 0.960 . S
C934 C933 1.524 . S
C935 C932 1.403 . S
C935 C936 1.392 . S
C935 C939 1.495 . S
C936 C935 1.392 . S
C936 C937 1.385 . S
C936 C938 1.478 . S
C937 H931 0.930 . S
C937 C933 1.400 . S
C937 C936 1.385 . S
C938 C936 1.478 . S
C938 C940 1.381 . S
C938 C944 1.383 . S
C939 C935 1.495 . S
C939 H945 0.959 . S
C939 H946 0.961 . S
C939 H947 0.960 . S
C940 C938 1.381 . S
C940 C941 1.394 . S
C940 H948 0.930 . S
C941 C940 1.394 . S
C941 C942 1.383 . S
C941 H949 0.929 . S
C942 C941 1.383 . S
C942 C943 1.377 . S
C943 H927 0.930 . S
C943 C942 1.377 . S
C943 C944 1.379 . S
C944 H928 0.931 . S
C944 C938 1.383 . S
C944 C943 1.379 . S
H945 C939 0.959 . S
H946 C939 0.961 . S
H947 C939 0.960 . S
H948 C940 0.930 . S
H949 C941 0.929 . S
H950 C958 0.929 . S
H951 C960 0.930 . S
H952 C962 0.930 . S
H953 C965 0.929 . S
H954 C968 0.930 . S
H955 C970 0.960 . S
H956 C970 0.960 . S
H957 C970 0.960 . S
C958 H950 0.929 . S
C958 C959 1.377 . S
C958 C960 1.384 . S
C959 C958 1.377 . S
C959 C965 1.390 . S
C960 H951 0.930 . S
C960 C958 1.384 . S
C960 C961 1.372 . S
C961 C960 1.372 . S
C961 C962 1.400 . S
C961 C966 1.490 . S
C962 H952 0.930 . S
C962 C961 1.400 . S
C962 C965 1.386 . S
H963 C979 0.930 . S
H964 C980 0.931 . S
C965 H953 0.929 . S
C965 C959 1.390 . S
C965 C962 1.386 . S
C966 C961 1.490 . S
C966 C968 1.395 . S
C966 C969 1.403 . S
H967 C973 0.930 . S
C968 H954 0.930 . S
C968 C966 1.395 . S
C968 C971 1.403 . S
C969 C966 1.403 . S
C969 C970 1.524 . S
C969 C973 1.400 . S
C970 H955 0.960 . S
C970 H956 0.960 . S
C970 H957 0.960 . S
C970 C969 1.524 . S
C971 C968 1.403 . S
C971 C972 1.392 . S
C971 C975 1.495 . S
C972 C971 1.392 . S
C972 C973 1.385 . S
C972 C974 1.478 . S
C973 H967 0.930 . S
C973 C969 1.400 . S
C973 C972 1.385 . S
C974 C972 1.478 . S
C974 C976 1.381 . S
C974 C980 1.383 . S
C975 C971 1.495 . S
C975 H981 0.959 . S
C975 H982 0.961 . S
C975 H983 0.960 . S
C976 C974 1.381 . S
C976 C977 1.394 . S
C976 H984 0.930 . S
C977 C976 1.394 . S
C977 C978 1.383 . S
C977 H985 0.929 1_556 S
C978 C977 1.383 . S
C978 C979 1.377 . S
C979 H963 0.930 . S
C979 C978 1.377 . S
C979 C980 1.379 . S
C980 H964 0.931 . S
C980 C974 1.383 . S
C980 C979 1.379 . S
H981 C975 0.959 . S
H982 C975 0.961 . S
H983 C975 0.960 . S
H984 C976 0.930 . S
H985 C977 0.929 1_554 S
H986 C994 0.929 . S
H987 C996 0.930 . S
H988 C998 0.930 . S
H989 C1001 0.929 . S
H990 C1004 0.930 . S
H991 C1006 0.960 . S
H992 C1006 0.960 . S
H993 C1006 0.960 . S
C994 H986 0.929 . S
C994 C995 1.377 . S
C994 C996 1.384 . S
C995 C994 1.377 . S
C995 C1001 1.390 . S
C996 H987 0.930 . S
C996 C994 1.384 . S
C996 C997 1.372 . S
C997 C996 1.372 . S
C997 C998 1.400 . S
C997 C1002 1.490 . S
C998 H988 0.930 . S
C998 C997 1.400 . S
C998 C1001 1.386 . S
H999 C1015 0.930 . S
H1000 C1016 0.931 . S
C1001 H989 0.929 . S
C1001 C995 1.390 . S
C1001 C998 1.386 . S
C1002 C997 1.490 . S
C1002 C1004 1.395 . S
C1002 C1005 1.403 . S
H1003 C1009 0.930 . S
C1004 H990 0.930 . S
C1004 C1002 1.395 . S
C1004 C1007 1.403 . S
C1005 C1002 1.403 . S
C1005 C1006 1.524 . S
C1005 C1009 1.400 . S
C1006 H991 0.960 . S
C1006 H992 0.960 . S
C1006 H993 0.960 . S
C1006 C1005 1.524 . S
C1007 C1004 1.403 . S
C1007 C1008 1.392 . S
C1007 C1011 1.495 . S
C1008 C1007 1.392 . S
C1008 C1009 1.385 . S
C1008 C1010 1.478 . S
C1009 H1003 0.930 . S
C1009 C1005 1.400 . S
C1009 C1008 1.385 . S
C1010 C1008 1.478 . S
C1010 C1012 1.381 . S
C1010 C1016 1.383 . S
C1011 C1007 1.495 . S
C1011 H1017 0.959 . S
C1011 H1018 0.961 . S
C1011 H1019 0.960 . S
C1012 C1010 1.381 . S
C1012 C1013 1.394 . S
C1012 H1020 0.930 . S
C1013 C1012 1.394 . S
C1013 C1014 1.383 . S
C1013 H1021 0.929 . S
C1014 C1013 1.383 . S
C1014 C1015 1.377 . S
C1015 H999 0.930 . S
C1015 C1014 1.377 . S
C1015 C1016 1.379 . S
C1016 H1000 0.931 . S
C1016 C1010 1.383 . S
C1016 C1015 1.379 . S
H1017 C1011 0.959 . S
H1018 C1011 0.961 . S
H1019 C1011 0.960 . S
H1020 C1012 0.930 . S
H1021 C1013 0.929 . S
H1022 C1030 0.929 . S
H1023 C1032 0.930 . S
H1024 C1034 0.930 . S
H1025 C1037 0.929 . S
H1026 C1040 0.930 . S
H1027 C1042 0.960 . S
H1028 C1042 0.960 . S
H1029 C1042 0.960 . S
C1030 H1022 0.929 . S
C1030 C1031 1.377 . S
C1030 C1032 1.384 . S
C1031 C1030 1.377 . S
C1031 C1037 1.390 . S
C1032 H1023 0.930 . S
C1032 C1030 1.384 . S
C1032 C1033 1.372 . S
C1033 C1032 1.372 . S
C1033 C1034 1.400 . S
C1033 C1038 1.490 . S
C1034 H1024 0.930 . S
C1034 C1033 1.400 . S
C1034 C1037 1.386 . S
H1035 C1051 0.930 . S
H1036 C1052 0.931 . S
C1037 H1025 0.929 . S
C1037 C1031 1.390 . S
C1037 C1034 1.386 . S
C1038 C1033 1.490 . S
C1038 C1040 1.395 . S
C1038 C1041 1.403 . S
H1039 C1045 0.930 . S
C1040 H1026 0.930 . S
C1040 C1038 1.395 . S
C1040 C1043 1.403 . S
C1041 C1038 1.403 . S
C1041 C1042 1.524 . S
C1041 C1045 1.400 . S
C1042 H1027 0.960 . S
C1042 H1028 0.960 . S
C1042 H1029 0.960 . S
C1042 C1041 1.524 . S
C1043 C1040 1.403 . S
C1043 C1044 1.392 . S
C1043 C1047 1.495 . S
C1044 C1043 1.392 . S
C1044 C1045 1.385 . S
C1044 C1046 1.478 . S
C1045 H1039 0.930 . S
C1045 C1041 1.400 . S
C1045 C1044 1.385 . S
C1046 C1044 1.478 . S
C1046 C1048 1.381 1_556 S
C1046 C1052 1.383 . S
C1047 C1043 1.495 . S
C1047 H1053 0.959 . S
C1047 H1054 0.961 . S
C1047 H1055 0.960 . S
C1048 C1046 1.381 1_554 S
C1048 C1049 1.394 . S
C1048 H1056 0.930 . S
C1049 C1048 1.394 . S
C1049 C1050 1.375 1_554 S
C1049 H1057 0.929 . S
C1050 C1049 1.375 1_556 S
C1050 C1051 1.393 . S
C1051 H1035 0.930 . S
C1051 C1050 1.393 . S
C1051 C1052 1.379 . S
C1052 H1036 0.931 . S
C1052 C1046 1.383 . S
C1052 C1051 1.379 . S
H1053 C1047 0.959 . S
H1054 C1047 0.961 . S
H1055 C1047 0.960 . S
H1056 C1048 0.930 . S
H1057 C1049 0.929 . S
H1058 C1066 0.929 . S
H1059 C1068 0.930 . S
H1060 C1070 0.930 . S
H1061 C1073 0.929 . S
H1062 C1076 0.930 . S
H1063 C1078 0.960 . S
H1064 C1078 0.960 . S
H1065 C1078 0.960 . S
C1066 H1058 0.929 . S
C1066 C1067 1.377 . S
C1066 C1068 1.384 . S
C1067 C1066 1.377 . S
C1067 C1073 1.390 . S
C1068 H1059 0.930 . S
C1068 C1066 1.384 . S
C1068 C1069 1.372 . S
C1069 C1068 1.372 . S
C1069 C1070 1.400 . S
C1069 C1074 1.490 . S
C1070 H1060 0.930 . S
C1070 C1069 1.400 . S
C1070 C1073 1.386 . S
H1071 C1087 0.930 . S
H1072 C1088 0.931 . S
C1073 H1061 0.929 . S
C1073 C1067 1.390 . S
C1073 C1070 1.386 . S
C1074 C1069 1.490 . S
C1074 C1076 1.395 . S
C1074 C1077 1.403 . S
H1075 C1081 0.930 . S
C1076 H1062 0.930 . S
C1076 C1074 1.395 . S
C1076 C1079 1.403 . S
C1077 C1074 1.403 . S
C1077 C1078 1.524 . S
C1077 C1081 1.400 . S
C1078 H1063 0.960 . S
C1078 H1064 0.960 . S
C1078 H1065 0.960 . S
C1078 C1077 1.524 . S
C1079 C1076 1.403 . S
C1079 C1080 1.392 . S
C1079 C1083 1.495 . S
C1080 C1079 1.392 . S
C1080 C1081 1.385 . S
C1080 C1082 1.478 . S
C1081 H1075 0.930 . S
C1081 C1077 1.400 . S
C1081 C1080 1.385 . S
C1082 C1080 1.478 . S
C1082 C1084 1.381 . S
C1082 C1088 1.383 . S
C1083 C1079 1.495 . S
C1083 H1089 0.959 . S
C1083 H1090 0.961 . S
C1083 H1091 0.960 . S
C1084 C1082 1.381 . S
C1084 C1085 1.394 . S
C1084 H1092 0.930 . S
C1085 C1084 1.394 . S
C1085 C1086 1.383 . S
C1085 H1093 0.929 . S
C1086 C1085 1.383 . S
C1086 C1087 1.377 . S
C1087 H1071 0.930 . S
C1087 C1086 1.377 . S
C1087 C1088 1.379 . S
C1088 H1072 0.931 . S
C1088 C1082 1.383 . S
C1088 C1087 1.379 . S
H1089 C1083 0.959 . S
H1090 C1083 0.961 . S
H1091 C1083 0.960 . S
H1092 C1084 0.930 . S
H1093 C1085 0.929 . S
H1094 C1102 0.929 . S
H1095 C1104 0.930 . S
H1096 C1106 0.930 . S
H1097 C1109 0.929 . S
H1098 C1112 0.930 . S
H1099 C1114 0.960 . S
H1100 C1114 0.960 . S
H1101 C1114 0.960 . S
C1102 H1094 0.929 . S
C1102 C1103 1.377 . S
C1102 C1104 1.384 . S
C1103 C1102 1.377 . S
C1103 C1109 1.390 . S
C1104 H1095 0.930 . S
C1104 C1102 1.384 . S
C1104 C1105 1.372 . S
C1105 C1104 1.372 . S
C1105 C1106 1.400 . S
C1105 C1110 1.490 . S
C1106 H1096 0.930 . S
C1106 C1105 1.400 . S
C1106 C1109 1.386 . S
H1107 C1123 0.930 . S
H1108 C1124 0.931 . S
C1109 H1097 0.929 . S
C1109 C1103 1.390 . S
C1109 C1106 1.386 . S
C1110 C1105 1.490 . S
C1110 C1112 1.395 . S
C1110 C1113 1.403 . S
H1111 C1117 0.930 . S
C1112 H1098 0.930 . S
C1112 C1110 1.395 . S
C1112 C1115 1.403 . S
C1113 C1110 1.403 . S
C1113 C1114 1.524 . S
C1113 C1117 1.400 . S
C1114 H1099 0.960 . S
C1114 H1100 0.960 . S
C1114 H1101 0.960 . S
C1114 C1113 1.524 . S
C1115 C1112 1.403 . S
C1115 C1116 1.392 . S
C1115 C1119 1.495 . S
C1116 C1115 1.392 . S
C1116 C1117 1.385 . S
C1116 C1118 1.478 . S
C1117 H1111 0.930 . S
C1117 C1113 1.400 . S
C1117 C1116 1.385 . S
C1118 C1116 1.478 . S
C1118 C1120 1.381 . S
C1118 C1124 1.383 . S
C1119 C1115 1.495 . S
C1119 H1125 0.959 . S
C1119 H1126 0.961 . S
C1119 H1127 0.960 . S
C1120 C1118 1.381 . S
C1120 C1121 1.394 . S
C1120 H1128 0.930 . S
C1121 C1120 1.394 . S
C1121 C1122 1.383 . S
C1121 H1129 0.929 . S
C1122 C1121 1.383 . S
C1122 C1123 1.377 . S
C1123 H1107 0.930 . S
C1123 C1122 1.377 . S
C1123 C1124 1.379 . S
C1124 H1108 0.931 . S
C1124 C1118 1.383 . S
C1124 C1123 1.379 . S
H1125 C1119 0.959 . S
H1126 C1119 0.961 . S
H1127 C1119 0.960 . S
H1128 C1120 0.930 . S
H1129 C1121 0.929 . S
H1130 C1138 0.929 . S
H1131 C1140 0.930 . S
H1132 C1142 0.930 . S
H1133 C1145 0.929 . S
H1134 C1148 0.930 . S
H1135 C1150 0.960 . S
H1136 C1150 0.960 . S
H1137 C1150 0.960 . S
C1138 H1130 0.929 . S
C1138 C1139 1.377 . S
C1138 C1140 1.384 . S
C1139 C1138 1.377 . S
C1139 C1145 1.390 . S
C1140 H1131 0.930 . S
C1140 C1138 1.384 . S
C1140 C1141 1.372 . S
C1141 C1140 1.372 . S
C1141 C1142 1.400 . S
C1141 C1146 1.490 . S
C1142 H1132 0.930 . S
C1142 C1141 1.400 . S
C1142 C1145 1.386 . S
H1143 C1159 0.930 . S
H1144 C1160 0.931 . S
C1145 H1133 0.929 . S
C1145 C1139 1.390 . S
C1145 C1142 1.386 . S
C1146 C1141 1.490 . S
C1146 C1148 1.395 . S
C1146 C1149 1.403 . S
H1147 C1153 0.930 . S
C1148 H1134 0.930 . S
C1148 C1146 1.395 . S
C1148 C1151 1.403 . S
C1149 C1146 1.403 . S
C1149 C1150 1.524 . S
C1149 C1153 1.400 . S
C1150 H1135 0.960 . S
C1150 H1136 0.960 . S
C1150 H1137 0.960 . S
C1150 C1149 1.524 . S
C1151 C1148 1.403 . S
C1151 C1152 1.392 . S
C1151 C1155 1.495 . S
C1152 C1151 1.392 . S
C1152 C1153 1.385 . S
C1152 C1154 1.478 . S
C1153 H1147 0.930 . S
C1153 C1149 1.400 . S
C1153 C1152 1.385 . S
C1154 C1152 1.478 . S
C1154 C1156 1.381 . S
C1154 C1160 1.383 . S
C1155 C1151 1.495 . S
C1155 H1161 0.959 . S
C1155 H1162 0.961 . S
C1155 H1163 0.960 . S
C1156 C1154 1.381 . S
C1156 C1157 1.394 . S
C1156 H1164 0.930 . S
C1157 C1156 1.394 . S
C1157 C1158 1.383 . S
C1157 H1165 0.929 . S
C1158 C1157 1.383 . S
C1158 C1159 1.377 . S
C1159 H1143 0.930 . S
C1159 C1158 1.377 . S
C1159 C1160 1.379 . S
C1160 H1144 0.931 . S
C1160 C1154 1.383 . S
C1160 C1159 1.379 . S
H1161 C1155 0.959 . S
H1162 C1155 0.961 . S
H1163 C1155 0.960 . S
H1164 C1156 0.930 . S
H1165 C1157 0.929 . S
H1166 C1174 0.929 . S
H1167 C1176 0.930 . S
H1168 C1178 0.930 . S
H1169 C1181 0.929 . S
H1170 C1184 0.930 . S
H1171 C1186 0.960 . S
H1172 C1186 0.960 . S
H1173 C1186 0.960 . S
C1174 H1166 0.929 . S
C1174 C1175 1.377 . S
C1174 C1176 1.384 . S
C1175 C1174 1.377 . S
C1175 C1181 1.390 . S
C1176 H1167 0.930 . S
C1176 C1174 1.384 . S
C1176 C1177 1.372 . S
C1177 C1176 1.372 . S
C1177 C1178 1.400 . S
C1177 C1182 1.490 . S
C1178 H1168 0.930 . S
C1178 C1177 1.400 . S
C1178 C1181 1.386 . S
H1179 C1195 0.930 . S
H1180 C1196 0.931 . S
C1181 H1169 0.929 . S
C1181 C1175 1.390 . S
C1181 C1178 1.386 . S
C1182 C1177 1.490 . S
C1182 C1184 1.395 . S
C1182 C1185 1.403 . S
H1183 C1189 0.930 . S
C1184 H1170 0.930 . S
C1184 C1182 1.395 . S
C1184 C1187 1.403 . S
C1185 C1182 1.403 . S
C1185 C1186 1.524 . S
C1185 C1189 1.400 . S
C1186 H1171 0.960 . S
C1186 H1172 0.960 . S
C1186 H1173 0.960 . S
C1186 C1185 1.524 . S
C1187 C1184 1.403 . S
C1187 C1188 1.392 . S
C1187 C1191 1.495 . S
C1188 C1187 1.392 . S
C1188 C1189 1.385 . S
C1188 C1190 1.478 . S
C1189 H1183 0.930 . S
C1189 C1185 1.400 . S
C1189 C1188 1.385 . S
C1190 C1188 1.478 . S
C1190 C1192 1.381 . S
C1190 C1196 1.383 . S
C1191 C1187 1.495 . S
C1191 H1197 0.959 . S
C1191 H1198 0.961 . S
C1191 H1199 0.960 . S
C1192 C1190 1.381 . S
C1192 C1193 1.394 . S
C1192 H1200 0.930 . S
C1193 C1192 1.394 . S
C1193 C1194 1.383 . S
C1193 H1201 0.929 1_556 S
C1194 C1193 1.383 . S
C1194 C1195 1.377 . S
C1195 H1179 0.930 . S
C1195 C1194 1.377 . S
C1195 C1196 1.379 . S
C1196 H1180 0.931 . S
C1196 C1190 1.383 . S
C1196 C1195 1.379 . S
H1197 C1191 0.959 . S
H1198 C1191 0.961 . S
H1199 C1191 0.960 . S
H1200 C1192 0.930 . S
H1201 C1193 0.929 1_554 S
H1202 C1210 0.929 . S
H1203 C1212 0.930 . S
H1204 C1214 0.930 . S
H1205 C1217 0.929 . S
H1206 C1220 0.930 . S
H1207 C1222 0.960 . S
H1208 C1222 0.960 . S
H1209 C1222 0.960 . S
C1210 H1202 0.929 . S
C1210 C1211 1.377 . S
C1210 C1212 1.384 . S
C1211 C1210 1.377 . S
C1211 C1217 1.390 . S
C1212 H1203 0.930 . S
C1212 C1210 1.384 . S
C1212 C1213 1.372 . S
C1213 C1212 1.372 . S
C1213 C1214 1.400 . S
C1213 C1218 1.490 . S
C1214 H1204 0.930 . S
C1214 C1213 1.400 . S
C1214 C1217 1.386 . S
H1215 C1231 0.930 . S
H1216 C1232 0.931 . S
C1217 H1205 0.929 . S
C1217 C1211 1.390 . S
C1217 C1214 1.386 . S
C1218 C1213 1.490 . S
C1218 C1220 1.395 . S
C1218 C1221 1.403 . S
H1219 C1225 0.930 . S
C1220 H1206 0.930 . S
C1220 C1218 1.395 . S
C1220 C1223 1.403 . S
C1221 C1218 1.403 . S
C1221 C1222 1.524 . S
C1221 C1225 1.400 . S
C1222 H1207 0.960 . S
C1222 H1208 0.960 . S
C1222 H1209 0.960 . S
C1222 C1221 1.524 . S
C1223 C1220 1.403 . S
C1223 C1224 1.392 . S
C1223 C1227 1.495 . S
C1224 C1223 1.392 . S
C1224 C1225 1.385 . S
C1224 C1226 1.478 . S
C1225 H1219 0.930 . S
C1225 C1221 1.400 . S
C1225 C1224 1.385 . S
C1226 C1224 1.478 . S
C1226 C1228 1.381 . S
C1226 C1232 1.383 . S
C1227 C1223 1.495 . S
C1227 H1233 0.959 . S
C1227 H1234 0.961 . S
C1227 H1235 0.960 . S
C1228 C1226 1.381 . S
C1228 C1229 1.394 . S
C1228 H1236 0.930 . S
C1229 C1228 1.394 . S
C1229 C1230 1.383 . S
C1229 H1237 0.929 . S
C1230 C1229 1.383 . S
C1230 C1231 1.377 . S
C1231 H1215 0.930 . S
C1231 C1230 1.377 . S
C1231 C1232 1.379 . S
C1232 H1216 0.931 . S
C1232 C1226 1.383 . S
C1232 C1231 1.379 . S
H1233 C1227 0.959 . S
H1234 C1227 0.961 . S
H1235 C1227 0.960 . S
H1236 C1228 0.930 . S
H1237 C1229 0.929 . S
H1238 C1246 0.929 . S
H1239 C1248 0.930 . S
H1240 C1250 0.930 . S
H1241 C1253 0.929 . S
H1242 C1256 0.930 . S
H1243 C1258 0.960 . S
H1244 C1258 0.960 . S
H1245 C1258 0.960 . S
C1246 H1238 0.929 . S
C1246 C1247 1.377 . S
C1246 C1248 1.384 . S
C1247 C1246 1.377 . S
C1247 C1253 1.390 . S
C1248 H1239 0.930 . S
C1248 C1246 1.384 . S
C1248 C1249 1.372 . S
C1249 C1248 1.372 . S
C1249 C1250 1.400 . S
C1249 C1254 1.490 . S
C1250 H1240 0.930 . S
C1250 C1249 1.400 . S
C1250 C1253 1.386 . S
H1251 C1267 0.930 . S
H1252 C1268 0.948 . S
C1253 H1241 0.929 . S
C1253 C1247 1.390 . S
C1253 C1250 1.386 . S
C1254 C1249 1.490 . S
C1254 C1256 1.395 . S
C1254 C1257 1.403 . S
H1255 C1261 0.930 . S
C1256 H1242 0.930 . S
C1256 C1254 1.395 . S
C1256 C1259 1.403 . S
C1257 C1254 1.403 . S
C1257 C1258 1.524 . S
C1257 C1261 1.400 . S
C1258 H1243 0.960 . S
C1258 H1244 0.960 . S
C1258 H1245 0.960 . S
C1258 C1257 1.524 . S
C1259 C1256 1.403 . S
C1259 C1260 1.392 . S
C1259 C1263 1.495 . S
C1260 C1259 1.392 . S
C1260 C1261 1.385 . S
C1260 C1262 1.478 . S
C1261 H1255 0.930 . S
C1261 C1257 1.400 . S
C1261 C1260 1.385 . S
C1262 C1260 1.478 . S
C1262 C1264 1.381 . S
C1262 C1268 1.352 1_556 S
C1263 C1259 1.495 . S
C1263 H1269 0.959 . S
C1263 H1270 0.961 . S
C1263 H1271 0.960 . S
C1264 C1262 1.381 . S
C1264 C1265 1.394 . S
C1264 H1272 0.930 . S
C1265 C1264 1.394 . S
C1265 C1266 1.383 . S
C1265 H1273 0.929 . S
C1266 C1265 1.383 . S
C1266 C1267 1.377 1_556 S
C1267 H1251 0.930 . S
C1267 C1266 1.377 1_554 S
C1267 C1268 1.394 . S
C1268 H1252 0.948 . S
C1268 C1262 1.352 1_554 S
C1268 C1267 1.394 . S
H1269 C1263 0.959 . S
H1270 C1263 0.961 . S
H1271 C1263 0.960 . S
H1272 C1264 0.930 . S
H1273 C1265 0.929 . S
H1274 C1282 0.929 . S
H1275 C1284 0.930 . S
H1276 C1286 0.930 . S
H1277 C1289 0.929 . S
H1278 C1292 0.930 . S
H1279 C1294 0.960 . S
H1280 C1294 0.960 . S
H1281 C1294 0.960 . S
C1282 H1274 0.929 . S
C1282 C1283 1.377 . S
C1282 C1284 1.384 . S
C1283 C1282 1.377 . S
C1283 C1289 1.390 . S
C1284 H1275 0.930 . S
C1284 C1282 1.384 . S
C1284 C1285 1.372 . S
C1285 C1284 1.372 . S
C1285 C1286 1.400 . S
C1285 C1290 1.490 . S
C1286 H1276 0.930 . S
C1286 C1285 1.400 . S
C1286 C1289 1.386 . S
H1287 C1303 0.930 . S
H1288 C1304 0.931 . S
C1289 H1277 0.929 . S
C1289 C1283 1.390 . S
C1289 C1286 1.386 . S
C1290 C1285 1.490 . S
C1290 C1292 1.395 . S
C1290 C1293 1.403 . S
H1291 C1297 0.930 . S
C1292 H1278 0.930 . S
C1292 C1290 1.395 . S
C1292 C1295 1.403 . S
C1293 C1290 1.403 . S
C1293 C1294 1.524 . S
C1293 C1297 1.400 . S
C1294 H1279 0.960 . S
C1294 H1280 0.960 . S
C1294 H1281 0.960 . S
C1294 C1293 1.524 . S
C1295 C1292 1.403 . S
C1295 C1296 1.392 . S
C1295 C1299 1.495 . S
C1296 C1295 1.392 . S
C1296 C1297 1.385 . S
C1296 C1298 1.478 . S
C1297 H1291 0.930 . S
C1297 C1293 1.400 . S
C1297 C1296 1.385 . S
C1298 C1296 1.478 . S
C1298 C1300 1.381 . S
C1298 C1304 1.383 . S
C1299 C1295 1.495 . S
C1299 H1305 0.959 . S
C1299 H1306 0.961 . S
C1299 H1307 0.960 . S
C1300 C1298 1.381 . S
C1300 C1301 1.394 . S
C1300 H1308 0.930 . S
C1301 C1300 1.394 . S
C1301 C1302 1.383 . S
C1301 H1309 0.929 . S
C1302 C1301 1.383 . S
C1302 C1303 1.377 . S
C1303 H1287 0.930 . S
C1303 C1302 1.377 . S
C1303 C1304 1.379 . S
C1304 H1288 0.931 . S
C1304 C1298 1.383 . S
C1304 C1303 1.379 . S
H1305 C1299 0.959 . S
H1306 C1299 0.961 . S
H1307 C1299 0.960 . S
H1308 C1300 0.930 . S
H1309 C1301 0.929 . S
H1310 C1318 0.929 . S
H1311 C1320 0.930 . S
H1312 C1322 0.930 . S
H1313 C1325 0.929 . S
H1314 C1328 0.930 . S
H1315 C1330 0.960 . S
H1316 C1330 0.960 . S
H1317 C1330 0.960 . S
C1318 H1310 0.929 . S
C1318 C1319 1.377 . S
C1318 C1320 1.384 . S
C1319 C1318 1.377 . S
C1319 C1325 1.390 . S
C1320 H1311 0.930 . S
C1320 C1318 1.384 . S
C1320 C1321 1.372 . S
C1321 C1320 1.372 . S
C1321 C1322 1.400 . S
C1321 C1326 1.490 . S
C1322 H1312 0.930 . S
C1322 C1321 1.400 . S
C1322 C1325 1.386 . S
H1323 C1339 0.930 . S
H1324 C1340 0.931 . S
C1325 H1313 0.929 . S
C1325 C1319 1.390 . S
C1325 C1322 1.386 . S
C1326 C1321 1.490 . S
C1326 C1328 1.395 . S
C1326 C1329 1.403 . S
H1327 C1333 0.930 . S
C1328 H1314 0.930 . S
C1328 C1326 1.395 . S
C1328 C1331 1.403 . S
C1329 C1326 1.403 . S
C1329 C1330 1.524 . S
C1329 C1333 1.400 . S
C1330 H1315 0.960 . S
C1330 H1316 0.960 . S
C1330 H1317 0.960 . S
C1330 C1329 1.524 . S
C1331 C1328 1.403 . S
C1331 C1332 1.392 . S
C1331 C1335 1.495 . S
C1332 C1331 1.392 . S
C1332 C1333 1.385 . S
C1332 C1334 1.478 . S
C1333 H1327 0.930 . S
C1333 C1329 1.400 . S
C1333 C1332 1.385 . S
C1334 C1332 1.478 . S
C1334 C1336 1.381 . S
C1334 C1340 1.383 . S
C1335 C1331 1.495 . S
C1335 H1341 0.959 . S
C1335 H1342 0.961 . S
C1335 H1343 0.960 . S
C1336 C1334 1.381 . S
C1336 C1337 1.394 . S
C1336 H1344 0.930 . S
C1337 C1336 1.394 . S
C1337 C1338 1.383 . S
C1337 H1345 0.929 . S
C1338 C1337 1.383 . S
C1338 C1339 1.377 . S
C1339 H1323 0.930 . S
C1339 C1338 1.377 . S
C1339 C1340 1.379 . S
C1340 H1324 0.931 . S
C1340 C1334 1.383 . S
C1340 C1339 1.379 . S
H1341 C1335 0.959 . S
H1342 C1335 0.961 . S
H1343 C1335 0.960 . S
H1344 C1336 0.930 . S
H1345 C1337 0.929 . S
H1346 C1354 0.929 . S
H1347 C1356 0.930 . S
H1348 C1358 0.930 . S
H1349 C1361 0.929 . S
H1350 C1364 0.930 . S
H1351 C1366 0.960 . S
H1352 C1366 0.960 . S
H1353 C1366 0.960 . S
C1354 H1346 0.929 . S
C1354 C1355 1.377 . S
C1354 C1356 1.384 . S
C1355 C1354 1.377 . S
C1355 C1361 1.390 . S
C1356 H1347 0.930 . S
C1356 C1354 1.384 . S
C1356 C1357 1.372 . S
C1357 C1356 1.372 . S
C1357 C1358 1.400 . S
C1357 C1362 1.490 . S
C1358 H1348 0.930 . S
C1358 C1357 1.400 . S
C1358 C1361 1.386 . S
H1359 C1375 0.930 . S
H1360 C1376 0.931 . S
C1361 H1349 0.929 . S
C1361 C1355 1.390 . S
C1361 C1358 1.386 . S
C1362 C1357 1.490 . S
C1362 C1364 1.395 . S
C1362 C1365 1.403 . S
H1363 C1369 0.930 . S
C1364 H1350 0.930 . S
C1364 C1362 1.395 . S
C1364 C1367 1.403 . S
C1365 C1362 1.403 . S
C1365 C1366 1.524 . S
C1365 C1369 1.400 . S
C1366 H1351 0.960 . S
C1366 H1352 0.960 . S
C1366 H1353 0.960 . S
C1366 C1365 1.524 . S
C1367 C1364 1.403 . S
C1367 C1368 1.392 . S
C1367 C1371 1.495 . S
C1368 C1367 1.392 . S
C1368 C1369 1.385 . S
C1368 C1370 1.478 . S
C1369 H1363 0.930 . S
C1369 C1365 1.400 . S
C1369 C1368 1.385 . S
C1370 C1368 1.478 . S
C1370 C1372 1.381 . S
C1370 C1376 1.383 . S
C1371 C1367 1.495 . S
C1371 H1377 0.959 . S
C1371 H1378 0.961 . S
C1371 H1379 0.960 . S
C1372 C1370 1.381 . S
C1372 C1373 1.394 . S
C1372 H1380 0.930 . S
C1373 C1372 1.394 . S
C1373 C1374 1.383 . S
C1373 H1381 0.929 . S
C1374 C1373 1.383 . S
C1374 C1375 1.377 . S
C1375 H1359 0.930 . S
C1375 C1374 1.377 . S
C1375 C1376 1.379 . S
C1376 H1360 0.931 . S
C1376 C1370 1.383 . S
C1376 C1375 1.379 . S
H1377 C1371 0.959 . S
H1378 C1371 0.961 . S
H1379 C1371 0.960 . S
H1380 C1372 0.930 . S
H1381 C1373 0.929 . S
H1382 C1390 0.929 . S
H1383 C1392 0.930 . S
H1384 C1394 0.930 . S
H1385 C1397 0.929 . S
H1386 C1400 0.930 . S
H1387 C1402 0.960 . S
H1388 C1402 0.960 . S
H1389 C1402 0.960 . S
C1390 H1382 0.929 . S
C1390 C1391 1.377 . S
C1390 C1392 1.384 . S
C1391 C1390 1.377 . S
C1391 C1397 1.390 . S
C1392 H1383 0.930 . S
C1392 C1390 1.384 . S
C1392 C1393 1.372 . S
C1393 C1392 1.372 . S
C1393 C1394 1.400 . S
C1393 C1398 1.490 . S
C1394 H1384 0.930 . S
C1394 C1393 1.400 . S
C1394 C1397 1.386 . S
H1395 C1411 0.930 . S
H1396 C1412 0.931 . S
C1397 H1385 0.929 . S
C1397 C1391 1.390 . S
C1397 C1394 1.386 . S
C1398 C1393 1.490 . S
C1398 C1400 1.395 . S
C1398 C1401 1.403 . S
H1399 C1405 0.930 . S
C1400 H1386 0.930 . S
C1400 C1398 1.395 . S
C1400 C1403 1.403 . S
C1401 C1398 1.403 . S
C1401 C1402 1.524 . S
C1401 C1405 1.400 . S
C1402 H1387 0.960 . S
C1402 H1388 0.960 . S
C1402 H1389 0.960 . S
C1402 C1401 1.524 . S
C1403 C1400 1.403 . S
C1403 C1404 1.392 . S
C1403 C1407 1.495 . S
C1404 C1403 1.392 . S
C1404 C1405 1.385 . S
C1404 C1406 1.478 . S
C1405 H1399 0.930 . S
C1405 C1401 1.400 . S
C1405 C1404 1.385 . S
C1406 C1404 1.478 . S
C1406 C1408 1.381 . S
C1406 C1412 1.383 . S
C1407 C1403 1.495 . S
C1407 H1413 0.959 . S
C1407 H1414 0.961 . S
C1407 H1415 0.960 . S
C1408 C1406 1.381 . S
C1408 C1409 1.394 . S
C1408 H1416 0.930 . S
C1409 C1408 1.394 . S
C1409 C1410 1.383 . S
C1409 H1417 0.929 1_556 S
C1410 C1409 1.383 . S
C1410 C1411 1.377 . S
C1411 H1395 0.930 . S
C1411 C1410 1.377 . S
C1411 C1412 1.379 . S
C1412 H1396 0.931 . S
C1412 C1406 1.383 . S
C1412 C1411 1.379 . S
H1413 C1407 0.959 . S
H1414 C1407 0.961 . S
H1415 C1407 0.960 . S
H1416 C1408 0.930 . S
H1417 C1409 0.929 1_554 S
H1418 C1426 0.929 . S
H1419 C1428 0.930 . S
H1420 C1430 0.930 . S
H1421 C1433 0.929 . S
H1422 C1436 0.930 . S
H1423 C1438 0.960 . S
H1424 C1438 0.960 . S
H1425 C1438 0.960 . S
C1426 H1418 0.929 . S
C1426 C1427 1.377 . S
C1426 C1428 1.384 . S
C1427 C1426 1.377 . S
C1427 C1433 1.390 . S
C1428 H1419 0.930 . S
C1428 C1426 1.384 . S
C1428 C1429 1.372 . S
C1429 C1428 1.372 . S
C1429 C1430 1.400 . S
C1429 C1434 1.490 . S
C1430 H1420 0.930 . S
C1430 C1429 1.400 . S
C1430 C1433 1.386 . S
H1431 C1447 0.930 . S
H1432 C1448 0.931 1_554 S
C1433 H1421 0.929 . S
C1433 C1427 1.390 . S
C1433 C1430 1.386 . S
C1434 C1429 1.490 . S
C1434 C1436 1.395 . S
C1434 C1437 1.403 . S
H1435 C1441 0.930 . S
C1436 H1422 0.930 . S
C1436 C1434 1.395 . S
C1436 C1439 1.403 . S
C1437 C1434 1.403 . S
C1437 C1438 1.524 . S
C1437 C1441 1.400 . S
C1438 H1423 0.960 . S
C1438 H1424 0.960 . S
C1438 H1425 0.960 . S
C1438 C1437 1.524 . S
C1439 C1436 1.403 . S
C1439 C1440 1.392 . S
C1439 C1443 1.495 . S
C1440 C1439 1.392 . S
C1440 C1441 1.385 . S
C1440 C1442 1.478 . S
C1441 H1435 0.930 . S
C1441 C1437 1.400 . S
C1441 C1440 1.385 . S
C1442 C1440 1.478 . S
C1442 C1444 1.381 . S
C1442 C1448 1.383 . S
C1443 C1439 1.495 . S
C1443 H1449 0.959 . S
C1443 H1450 0.961 . S
C1443 H1451 0.960 . S
C1444 C1442 1.381 . S
C1444 C1445 1.394 . S
C1444 H1452 0.930 . S
C1445 C1444 1.394 . S
C1445 C1446 1.383 . S
C1445 H1453 0.929 . S
C1446 C1445 1.383 . S
C1446 C1447 1.377 1_556 S
C1447 H1431 0.930 . S
C1447 C1446 1.377 1_554 S
C1447 C1448 1.379 1_554 S
C1448 H1432 0.931 1_556 S
C1448 C1442 1.383 . S
C1448 C1447 1.379 1_556 S
H1449 C1443 0.959 . S
H1450 C1443 0.961 . S
H1451 C1443 0.960 . S
H1452 C1444 0.930 . S
H1453 C1445 0.929 . S
H1454 C1462 0.929 . S
H1455 C1464 0.930 . S
H1456 C1466 0.930 . S
H1457 C1469 0.929 . S
H1458 C1472 0.930 . S
H1459 C1474 0.960 . S
H1460 C1474 0.960 . S
H1461 C1474 0.960 . S
C1462 H1454 0.929 . S
C1462 C1463 1.377 . S
C1462 C1464 1.384 . S
C1463 C1462 1.377 . S
C1463 C1469 1.390 . S
C1464 H1455 0.930 . S
C1464 C1462 1.384 . S
C1464 C1465 1.372 . S
C1465 C1464 1.372 . S
C1465 C1466 1.400 . S
C1465 C1470 1.490 . S
C1466 H1456 0.930 . S
C1466 C1465 1.400 . S
C1466 C1469 1.386 . S
H1467 C1483 0.930 . S
H1468 C1484 0.931 . S
C1469 H1457 0.929 . S
C1469 C1463 1.390 . S
C1469 C1466 1.386 . S
C1470 C1465 1.490 . S
C1470 C1472 1.395 . S
C1470 C1473 1.403 . S
H1471 C1477 0.930 . S
C1472 H1458 0.930 . S
C1472 C1470 1.395 . S
C1472 C1475 1.403 . S
C1473 C1470 1.403 . S
C1473 C1474 1.524 . S
C1473 C1477 1.400 . S
C1474 H1459 0.960 . S
C1474 H1460 0.960 . S
C1474 H1461 0.960 . S
C1474 C1473 1.524 . S
C1475 C1472 1.403 . S
C1475 C1476 1.392 . S
C1475 C1479 1.495 . S
C1476 C1475 1.392 . S
C1476 C1477 1.385 . S
C1476 C1478 1.478 . S
C1477 H1471 0.930 . S
C1477 C1473 1.400 . S
C1477 C1476 1.385 . S
C1478 C1476 1.478 . S
C1478 C1480 1.381 . S
C1478 C1484 1.383 . S
C1479 C1475 1.495 . S
C1479 H1485 0.959 . S
C1479 H1486 0.961 . S
C1479 H1487 0.960 . S
C1480 C1478 1.381 . S
C1480 C1481 1.394 . S
C1480 H1488 0.930 . S
C1481 C1480 1.394 . S
C1481 C1482 1.383 . S
C1481 H1489 0.929 1_556 S
C1482 C1481 1.383 . S
C1482 C1483 1.377 . S
C1483 H1467 0.930 . S
C1483 C1482 1.377 . S
C1483 C1484 1.379 . S
C1484 H1468 0.931 . S
C1484 C1478 1.383 . S
C1484 C1483 1.379 . S
H1485 C1479 0.959 . S
H1486 C1479 0.961 . S
H1487 C1479 0.960 . S
H1488 C1480 0.930 . S
H1489 C1481 0.929 1_554 S
H1490 C1498 0.929 . S
H1491 C1500 0.930 . S
H1492 C1502 0.930 . S
H1493 C1505 0.929 . S
H1494 C1508 0.930 . S
H1495 C1510 0.960 . S
H1496 C1510 0.960 . S
H1497 C1510 0.960 . S
C1498 H1490 0.929 . S
C1498 C1499 1.377 . S
C1498 C1500 1.384 . S
C1499 C1498 1.377 . S
C1499 C1505 1.390 . S
C1500 H1491 0.930 . S
C1500 C1498 1.384 . S
C1500 C1501 1.372 . S
C1501 C1500 1.372 . S
C1501 C1502 1.400 . S
C1501 C1506 1.490 . S
C1502 H1492 0.930 . S
C1502 C1501 1.400 . S
C1502 C1505 1.386 . S
H1503 C1519 0.930 1_554 S
H1504 C1520 0.931 . S
C1505 H1493 0.929 . S
C1505 C1499 1.390 . S
C1505 C1502 1.386 . S
C1506 C1501 1.490 . S
C1506 C1508 1.395 . S
C1506 C1509 1.403 . S
H1507 C1513 0.930 . S
C1508 H1494 0.930 . S
C1508 C1506 1.395 . S
C1508 C1511 1.403 . S
C1509 C1506 1.403 . S
C1509 C1510 1.524 . S
C1509 C1513 1.400 . S
C1510 H1495 0.960 . S
C1510 H1496 0.960 . S
C1510 H1497 0.960 . S
C1510 C1509 1.524 . S
C1511 C1508 1.403 . S
C1511 C1512 1.392 . S
C1511 C1515 1.495 . S
C1512 C1511 1.392 . S
C1512 C1513 1.385 . S
C1512 C1514 1.478 . S
C1513 H1507 0.930 . S
C1513 C1509 1.400 . S
C1513 C1512 1.385 . S
C1514 C1512 1.478 . S
C1514 C1516 1.381 . S
C1514 C1520 1.383 . S
C1515 C1511 1.495 . S
C1515 H1521 0.959 . S
C1515 H1522 0.961 . S
C1515 H1523 0.960 . S
C1516 C1514 1.381 . S
C1516 C1517 1.394 . S
C1516 H1524 0.930 . S
C1517 C1516 1.394 . S
C1517 C1518 1.383 . S
C1517 H1525 0.929 . S
C1518 C1517 1.383 . S
C1518 C1519 1.377 . S
C1519 H1503 0.930 1_556 S
C1519 C1518 1.377 . S
C1519 C1520 1.379 . S
C1520 H1504 0.931 . S
C1520 C1514 1.383 . S
C1520 C1519 1.379 . S
H1521 C1515 0.959 . S
H1522 C1515 0.961 . S
H1523 C1515 0.960 . S
H1524 C1516 0.930 . S
H1525 C1517 0.929 . S
H1526 C1534 0.929 . S
H1527 C1536 0.930 . S
H1528 C1538 0.930 . S
H1529 C1541 0.929 . S
H1530 C1544 0.930 . S
H1531 C1546 0.960 . S
H1532 C1546 0.960 . S
H1533 C1546 0.960 . S
C1534 H1526 0.929 . S
C1534 C1535 1.377 . S
C1534 C1536 1.384 . S
C1535 C1534 1.377 . S
C1535 C1541 1.390 . S
C1536 H1527 0.930 . S
C1536 C1534 1.384 . S
C1536 C1537 1.372 . S
C1537 C1536 1.372 . S
C1537 C1538 1.400 . S
C1537 C1542 1.490 . S
C1538 H1528 0.930 . S
C1538 C1537 1.400 . S
C1538 C1541 1.386 . S
H1539 C1555 0.930 . S
H1540 C1556 0.931 . S
C1541 H1529 0.929 . S
C1541 C1535 1.390 . S
C1541 C1538 1.386 . S
C1542 C1537 1.490 . S
C1542 C1544 1.395 . S
C1542 C1545 1.403 . S
H1543 C1549 0.930 . S
C1544 H1530 0.930 . S
C1544 C1542 1.395 . S
C1544 C1547 1.403 . S
C1545 C1542 1.403 . S
C1545 C1546 1.524 . S
C1545 C1549 1.400 . S
C1546 H1531 0.960 . S
C1546 H1532 0.960 . S
C1546 H1533 0.960 . S
C1546 C1545 1.524 . S
C1547 C1544 1.403 . S
C1547 C1548 1.392 . S
C1547 C1551 1.495 . S
C1548 C1547 1.392 . S
C1548 C1549 1.385 . S
C1548 C1550 1.478 . S
C1549 H1543 0.930 . S
C1549 C1545 1.400 . S
C1549 C1548 1.385 . S
C1550 C1548 1.478 . S
C1550 C1552 1.381 . S
C1550 C1556 1.383 . S
C1551 C1547 1.495 . S
C1551 H1557 0.959 . S
C1551 H1558 0.961 . S
C1551 H1559 0.960 . S
C1552 C1550 1.381 . S
C1552 C1553 1.394 . S
C1552 H1560 0.930 . S
C1553 C1552 1.394 . S
C1553 C1554 1.383 . S
C1553 H1561 0.929 . S
C1554 C1553 1.383 . S
C1554 C1555 1.377 . S
C1555 H1539 0.930 . S
C1555 C1554 1.377 . S
C1555 C1556 1.379 . S
C1556 H1540 0.931 . S
C1556 C1550 1.383 . S
C1556 C1555 1.379 . S
H1557 C1551 0.959 . S
H1558 C1551 0.961 . S
H1559 C1551 0.960 . S
H1560 C1552 0.930 . S
H1561 C1553 0.929 . S
H1562 C1570 0.929 . S
H1563 C1572 0.930 . S
H1564 C1574 0.930 . S
H1565 C1577 0.929 . S
H1566 C1580 0.930 . S
H1567 C1582 0.960 . S
H1568 C1582 0.960 . S
H1569 C1582 0.960 . S
C1570 H1562 0.929 . S
C1570 C1571 1.377 . S
C1570 C1572 1.384 . S
C1571 C1570 1.377 . S
C1571 C1577 1.390 . S
C1572 H1563 0.930 . S
C1572 C1570 1.384 . S
C1572 C1573 1.372 . S
C1573 C1572 1.372 . S
C1573 C1574 1.400 . S
C1573 C1578 1.490 . S
C1574 H1564 0.930 . S
C1574 C1573 1.400 . S
C1574 C1577 1.386 . S
H1575 C1591 0.930 . S
H1576 C1592 0.931 . S
C1577 H1565 0.929 . S
C1577 C1571 1.390 . S
C1577 C1574 1.386 . S
C1578 C1573 1.490 . S
C1578 C1580 1.395 . S
C1578 C1581 1.403 . S
H1579 C1585 0.930 . S
C1580 H1566 0.930 . S
C1580 C1578 1.395 . S
C1580 C1583 1.403 . S
C1581 C1578 1.403 . S
C1581 C1582 1.524 . S
C1581 C1585 1.400 . S
C1582 H1567 0.960 . S
C1582 H1568 0.960 . S
C1582 H1569 0.960 . S
C1582 C1581 1.524 . S
C1583 C1580 1.403 . S
C1583 C1584 1.392 . S
C1583 C1587 1.495 . S
C1584 C1583 1.392 . S
C1584 C1585 1.385 . S
C1584 C1586 1.478 . S
C1585 H1579 0.930 . S
C1585 C1581 1.400 . S
C1585 C1584 1.385 . S
C1586 C1584 1.478 . S
C1586 C1588 1.381 . S
C1586 C1592 1.383 . S
C1587 C1583 1.495 . S
C1587 H1593 0.959 . S
C1587 H1594 0.961 . S
C1587 H1595 0.960 . S
C1588 C1586 1.381 . S
C1588 C1589 1.394 . S
C1588 H1596 0.930 . S
C1589 C1588 1.394 . S
C1589 C1590 1.383 . S
C1589 H1597 0.929 . S
C1590 C1589 1.383 . S
C1590 C1591 1.377 . S
C1591 H1575 0.930 . S
C1591 C1590 1.377 . S
C1591 C1592 1.379 . S
C1592 H1576 0.931 . S
C1592 C1586 1.383 . S
C1592 C1591 1.379 . S
H1593 C1587 0.959 . S
H1594 C1587 0.961 . S
H1595 C1587 0.960 . S
H1596 C1588 0.930 . S
H1597 C1589 0.929 . S
H1598 C1606 0.929 . S
H1599 C1608 0.930 . S
H1600 C1610 0.930 . S
H1601 C1613 0.929 . S
H1602 C1616 0.930 . S
H1603 C1618 0.960 . S
H1604 C1618 0.960 . S
H1605 C1618 0.960 . S
C1606 H1598 0.929 . S
C1606 C1607 1.377 . S
C1606 C1608 1.384 . S
C1607 C1606 1.377 . S
C1607 C1613 1.390 . S
C1608 H1599 0.930 . S
C1608 C1606 1.384 . S
C1608 C1609 1.372 . S
C1609 C1608 1.372 . S
C1609 C1610 1.400 . S
C1609 C1614 1.490 . S
C1610 H1600 0.930 . S
C1610 C1609 1.400 . S
C1610 C1613 1.386 . S
H1611 C1627 0.930 . S
H1612 C1628 0.931 . S
C1613 H1601 0.929 . S
C1613 C1607 1.390 . S
C1613 C1610 1.386 . S
C1614 C1609 1.490 . S
C1614 C1616 1.395 . S
C1614 C1617 1.403 . S
H1615 C1621 0.930 . S
C1616 H1602 0.930 . S
C1616 C1614 1.395 . S
C1616 C1619 1.403 . S
C1617 C1614 1.403 . S
C1617 C1618 1.524 . S
C1617 C1621 1.400 . S
C1618 H1603 0.960 . S
C1618 H1604 0.960 . S
C1618 H1605 0.960 . S
C1618 C1617 1.524 . S
C1619 C1616 1.403 . S
C1619 C1620 1.392 . S
C1619 C1623 1.495 . S
C1620 C1619 1.392 . S
C1620 C1621 1.385 . S
C1620 C1622 1.478 . S
C1621 H1615 0.930 . S
C1621 C1617 1.400 . S
C1621 C1620 1.385 . S
C1622 C1620 1.478 . S
C1622 C1624 1.381 . S
C1622 C1628 1.383 . S
C1623 C1619 1.495 . S
C1623 H1629 0.959 . S
C1623 H1630 0.961 . S
C1623 H1631 0.960 . S
C1624 C1622 1.381 . S
C1624 C1625 1.394 . S
C1624 H1632 0.930 . S
C1625 C1624 1.394 . S
C1625 C1626 1.383 . S
C1625 H1633 0.929 . S
C1626 C1625 1.383 . S
C1626 C1627 1.377 . S
C1627 H1611 0.930 . S
C1627 C1626 1.377 . S
C1627 C1628 1.379 . S
C1628 H1612 0.931 . S
C1628 C1622 1.383 . S
C1628 C1627 1.379 . S
H1629 C1623 0.959 . S
H1630 C1623 0.961 . S
H1631 C1623 0.960 . S
H1632 C1624 0.930 . S
H1633 C1625 0.929 . S
H1634 C1642 0.929 . S
H1635 C1644 0.930 . S
H1636 C1646 0.930 . S
H1637 C1649 0.929 . S
H1638 C1652 0.930 . S
H1639 C1654 0.960 . S
H1640 C1654 0.960 . S
H1641 C1654 0.960 . S
C1642 H1634 0.929 . S
C1642 C1643 1.377 . S
C1642 C1644 1.384 . S
C1643 C1642 1.377 . S
C1643 C1649 1.390 . S
C1644 H1635 0.930 . S
C1644 C1642 1.384 . S
C1644 C1645 1.372 . S
C1645 C1644 1.372 . S
C1645 C1646 1.400 . S
C1645 C1650 1.490 . S
C1646 H1636 0.930 . S
C1646 C1645 1.400 . S
C1646 C1649 1.386 . S
H1647 C1663 0.930 . S
H1648 C1664 0.931 . S
C1649 H1637 0.929 . S
C1649 C1643 1.390 . S
C1649 C1646 1.386 . S
C1650 C1645 1.490 . S
C1650 C1652 1.395 . S
C1650 C1653 1.403 . S
H1651 C1657 0.930 . S
C1652 H1638 0.930 . S
C1652 C1650 1.395 . S
C1652 C1655 1.403 . S
C1653 C1650 1.403 . S
C1653 C1654 1.524 . S
C1653 C1657 1.400 . S
C1654 H1639 0.960 . S
C1654 H1640 0.960 . S
C1654 H1641 0.960 . S
C1654 C1653 1.524 . S
C1655 C1652 1.403 . S
C1655 C1656 1.392 . S
C1655 C1659 1.495 . S
C1656 C1655 1.392 . S
C1656 C1657 1.385 . S
C1656 C1658 1.478 . S
C1657 H1651 0.930 . S
C1657 C1653 1.400 . S
C1657 C1656 1.385 . S
C1658 C1656 1.478 . S
C1658 C1660 1.381 . S
C1658 C1664 1.383 . S
C1659 C1655 1.495 . S
C1659 H1665 0.959 . S
C1659 H1666 0.961 . S
C1659 H1667 0.960 . S
C1660 C1658 1.381 . S
C1660 C1661 1.394 . S
C1660 H1668 0.930 . S
C1661 C1660 1.394 . S
C1661 C1662 1.383 . S
C1661 H1669 0.929 . S
C1662 C1661 1.383 . S
C1662 C1663 1.377 . S
C1663 H1647 0.930 . S
C1663 C1662 1.377 . S
C1663 C1664 1.379 . S
C1664 H1648 0.931 . S
C1664 C1658 1.383 . S
C1664 C1663 1.379 . S
H1665 C1659 0.959 . S
H1666 C1659 0.961 . S
H1667 C1659 0.960 . S
H1668 C1660 0.930 . S
H1669 C1661 0.929 . S
H1670 C1678 0.929 . S
H1671 C1680 0.930 . S
H1672 C1682 0.930 . S
H1673 C1685 0.929 . S
H1674 C1688 0.930 . S
H1675 C1690 0.960 . S
H1676 C1690 0.960 . S
H1677 C1690 0.960 . S
C1678 H1670 0.929 . S
C1678 C1679 1.377 . S
C1678 C1680 1.384 . S
C1679 C1678 1.377 . S
C1679 C1685 1.390 . S
C1680 H1671 0.930 . S
C1680 C1678 1.384 . S
C1680 C1681 1.372 . S
C1681 C1680 1.372 . S
C1681 C1682 1.400 . S
C1681 C1686 1.490 . S
C1682 H1672 0.930 . S
C1682 C1681 1.400 . S
C1682 C1685 1.386 . S
H1683 C1699 0.930 . S
H1684 C1700 0.931 . S
C1685 H1673 0.929 . S
C1685 C1679 1.390 . S
C1685 C1682 1.386 . S
C1686 C1681 1.490 . S
C1686 C1688 1.395 . S
C1686 C1689 1.403 . S
H1687 C1693 0.930 . S
C1688 H1674 0.930 . S
C1688 C1686 1.395 . S
C1688 C1691 1.403 . S
C1689 C1686 1.403 . S
C1689 C1690 1.524 . S
C1689 C1693 1.400 . S
C1690 H1675 0.960 . S
C1690 H1676 0.960 . S
C1690 H1677 0.960 . S
C1690 C1689 1.524 . S
C1691 C1688 1.403 . S
C1691 C1692 1.392 . S
C1691 C1695 1.495 . S
C1692 C1691 1.392 . S
C1692 C1693 1.385 . S
C1692 C1694 1.478 . S
C1693 H1687 0.930 . S
C1693 C1689 1.400 . S
C1693 C1692 1.385 . S
C1694 C1692 1.478 . S
C1694 C1696 1.381 . S
C1694 C1700 1.383 . S
C1695 C1691 1.495 . S
C1695 H1701 0.959 . S
C1695 H1702 0.961 . S
C1695 H1703 0.960 . S
C1696 C1694 1.381 . S
C1696 C1697 1.394 . S
C1696 H1704 0.930 . S
C1697 C1696 1.394 . S
C1697 C1698 1.383 . S
C1697 H1705 0.929 . S
C1698 C1697 1.383 . S
C1698 C1699 1.377 . S
C1699 H1683 0.930 . S
C1699 C1698 1.377 . S
C1699 C1700 1.379 . S
C1700 H1684 0.931 . S
C1700 C1694 1.383 . S
C1700 C1699 1.379 . S
H1701 C1695 0.959 . S
H1702 C1695 0.961 . S
H1703 C1695 0.960 . S
H1704 C1696 0.930 . S
H1705 C1697 0.929 . S
H1706 C1714 0.929 . S
H1707 C1716 0.930 . S
H1708 C1718 0.930 . S
H1709 C1721 0.929 . S
H1710 C1724 0.930 . S
H1711 C1726 0.960 . S
H1712 C1726 0.960 . S
H1713 C1726 0.960 . S
C1714 H1706 0.929 . S
C1714 C1715 1.377 . S
C1714 C1716 1.384 . S
C1715 C1714 1.377 . S
C1715 C1721 1.390 . S
C1716 H1707 0.930 . S
C1716 C1714 1.384 . S
C1716 C1717 1.372 . S
C1717 C1716 1.372 . S
C1717 C1718 1.400 . S
C1717 C1722 1.490 . S
C1718 H1708 0.930 . S
C1718 C1717 1.400 . S
C1718 C1721 1.386 . S
H1719 C1735 0.930 . S
H1720 C1736 0.931 . S
C1721 H1709 0.929 . S
C1721 C1715 1.390 . S
C1721 C1718 1.386 . S
C1722 C1717 1.490 . S
C1722 C1724 1.395 . S
C1722 C1725 1.403 . S
H1723 C1729 0.930 . S
C1724 H1710 0.930 . S
C1724 C1722 1.395 . S
C1724 C1727 1.403 . S
C1725 C1722 1.403 . S
C1725 C1726 1.524 . S
C1725 C1729 1.400 . S
C1726 H1711 0.960 . S
C1726 H1712 0.960 . S
C1726 H1713 0.960 . S
C1726 C1725 1.524 . S
C1727 C1724 1.403 . S
C1727 C1728 1.392 . S
C1727 C1731 1.495 . S
C1728 C1727 1.392 . S
C1728 C1729 1.385 . S
C1728 C1730 1.478 . S
C1729 H1723 0.930 . S
C1729 C1725 1.400 . S
C1729 C1728 1.385 . S
C1730 C1728 1.478 . S
C1730 C1732 1.381 . S
C1730 C1736 1.383 . S
C1731 C1727 1.495 . S
C1731 H1737 0.959 . S
C1731 H1738 0.961 . S
C1731 H1739 0.960 . S
C1732 C1730 1.381 . S
C1732 C1733 1.394 . S
C1732 H1740 0.930 . S
C1733 C1732 1.394 . S
C1733 C1734 1.383 . S
C1733 H1741 0.929 . S
C1734 C1733 1.383 . S
C1734 C1735 1.377 . S
C1735 H1719 0.930 . S
C1735 C1734 1.377 . S
C1735 C1736 1.379 . S
C1736 H1720 0.931 . S
C1736 C1730 1.383 . S
C1736 C1735 1.379 . S
H1737 C1731 0.959 . S
H1738 C1731 0.961 . S
H1739 C1731 0.960 . S
H1740 C1732 0.930 . S
H1741 C1733 0.929 . S
H1742 C1750 0.929 . S
H1743 C1752 0.930 . S
H1744 C1754 0.930 . S
H1745 C1757 0.929 . S
H1746 C1760 0.930 . S
H1747 C1762 0.960 . S
H1748 C1762 0.960 . S
H1749 C1762 0.960 . S
C1750 H1742 0.929 . S
C1750 C1751 1.377 . S
C1750 C1752 1.384 . S
C1751 C1750 1.377 . S
C1751 C1757 1.390 . S
C1752 H1743 0.930 . S
C1752 C1750 1.384 . S
C1752 C1753 1.372 . S
C1753 C1752 1.372 . S
C1753 C1754 1.400 . S
C1753 C1758 1.490 . S
C1754 H1744 0.930 . S
C1754 C1753 1.400 . S
C1754 C1757 1.386 . S
H1755 C1771 0.930 . S
H1756 C1772 0.931 . S
C1757 H1745 0.929 . S
C1757 C1751 1.390 . S
C1757 C1754 1.386 . S
C1758 C1753 1.490 . S
C1758 C1760 1.395 . S
C1758 C1761 1.403 . S
H1759 C1765 0.930 . S
C1760 H1746 0.930 . S
C1760 C1758 1.395 . S
C1760 C1763 1.403 . S
C1761 C1758 1.403 . S
C1761 C1762 1.524 . S
C1761 C1765 1.400 . S
C1762 H1747 0.960 . S
C1762 H1748 0.960 . S
C1762 H1749 0.960 . S
C1762 C1761 1.524 . S
C1763 C1760 1.403 . S
C1763 C1764 1.392 . S
C1763 C1767 1.495 . S
C1764 C1763 1.392 . S
C1764 C1765 1.385 . S
C1764 C1766 1.478 . S
C1765 H1759 0.930 . S
C1765 C1761 1.400 . S
C1765 C1764 1.385 . S
C1766 C1764 1.478 . S
C1766 C1768 1.381 . S
C1766 C1772 1.383 . S
C1767 C1763 1.495 . S
C1767 H1773 0.959 . S
C1767 H1774 0.961 . S
C1767 H1775 0.960 . S
C1768 C1766 1.381 . S
C1768 C1769 1.394 . S
C1768 H1776 0.930 . S
C1769 C1768 1.394 . S
C1769 C1770 1.383 . S
C1769 H1777 0.929 . S
C1770 C1769 1.383 . S
C1770 C1771 1.377 . S
C1771 H1755 0.930 . S
C1771 C1770 1.377 . S
C1771 C1772 1.379 . S
C1772 H1756 0.931 . S
C1772 C1766 1.383 . S
C1772 C1771 1.379 . S
H1773 C1767 0.959 . S
H1774 C1767 0.961 . S
H1775 C1767 0.960 . S
H1776 C1768 0.930 . S
H1777 C1769 0.929 . S
H1778 C1786 0.929 . S
H1779 C1788 0.930 . S
H1780 C1790 0.930 . S
H1781 C1793 0.929 . S
H1782 C1796 0.930 . S
H1783 C1798 0.960 . S
H1784 C1798 0.960 . S
H1785 C1798 0.960 . S
C1786 H1778 0.929 . S
C1786 C1787 1.377 . S
C1786 C1788 1.384 . S
C1787 C1786 1.377 . S
C1787 C1793 1.390 . S
C1788 H1779 0.930 . S
C1788 C1786 1.384 . S
C1788 C1789 1.372 . S
C1789 C1788 1.372 . S
C1789 C1790 1.400 . S
C1789 C1794 1.490 . S
C1790 H1780 0.930 . S
C1790 C1789 1.400 . S
C1790 C1793 1.386 . S
H1791 C1807 0.930 . S
H1792 C1808 0.931 . S
C1793 H1781 0.929 . S
C1793 C1787 1.390 . S
C1793 C1790 1.386 . S
C1794 C1789 1.490 . S
C1794 C1796 1.395 . S
C1794 C1797 1.403 . S
H1795 C1801 0.930 . S
C1796 H1782 0.930 . S
C1796 C1794 1.395 . S
C1796 C1799 1.403 . S
C1797 C1794 1.403 . S
C1797 C1798 1.524 . S
C1797 C1801 1.400 . S
C1798 H1783 0.960 . S
C1798 H1784 0.960 . S
C1798 H1785 0.960 . S
C1798 C1797 1.524 . S
C1799 C1796 1.403 . S
C1799 C1800 1.392 . S
C1799 C1803 1.495 . S
C1800 C1799 1.392 . S
C1800 C1801 1.385 . S
C1800 C1802 1.478 . S
C1801 H1795 0.930 . S
C1801 C1797 1.400 . S
C1801 C1800 1.385 . S
C1802 C1800 1.478 . S
C1802 C1804 1.381 . S
C1802 C1808 1.383 . S
C1803 C1799 1.495 . S
C1803 H1809 0.959 . S
C1803 H1810 0.961 . S
C1803 H1811 0.960 . S
C1804 C1802 1.381 . S
C1804 C1805 1.394 . S
C1804 H1812 0.930 . S
C1805 C1804 1.394 . S
C1805 C1806 1.383 . S
C1805 H1813 0.929 . S
C1806 C1805 1.383 . S
C1806 C1807 1.377 . S
C1807 H1791 0.930 . S
C1807 C1806 1.377 . S
C1807 C1808 1.379 . S
C1808 H1792 0.931 . S
C1808 C1802 1.383 . S
C1808 C1807 1.379 . S
H1809 C1803 0.959 . S
H1810 C1803 0.961 . S
H1811 C1803 0.960 . S
H1812 C1804 0.930 . S
H1813 C1805 0.929 . S
H1814 C1822 0.929 . S
H1815 C1824 0.930 . S
H1816 C1826 0.930 . S
H1817 C1829 0.929 . S
H1818 C1832 0.930 . S
H1819 C1834 0.960 . S
H1820 C1834 0.960 . S
H1821 C1834 0.960 . S
C1822 H1814 0.929 . S
C1822 C1823 1.377 . S
C1822 C1824 1.384 . S
C1823 C1822 1.377 . S
C1823 C1829 1.390 . S
C1824 H1815 0.930 . S
C1824 C1822 1.384 . S
C1824 C1825 1.372 . S
C1825 C1824 1.372 . S
C1825 C1826 1.400 . S
C1825 C1830 1.490 . S
C1826 H1816 0.930 . S
C1826 C1825 1.400 . S
C1826 C1829 1.386 . S
H1827 C1843 0.930 . S
H1828 C1844 0.931 . S
C1829 H1817 0.929 . S
C1829 C1823 1.390 . S
C1829 C1826 1.386 . S
C1830 C1825 1.490 . S
C1830 C1832 1.395 . S
C1830 C1833 1.403 . S
H1831 C1837 0.930 . S
C1832 H1818 0.930 . S
C1832 C1830 1.395 . S
C1832 C1835 1.403 . S
C1833 C1830 1.403 . S
C1833 C1834 1.524 . S
C1833 C1837 1.400 . S
C1834 H1819 0.960 . S
C1834 H1820 0.960 . S
C1834 H1821 0.960 . S
C1834 C1833 1.524 . S
C1835 C1832 1.403 . S
C1835 C1836 1.392 . S
C1835 C1839 1.495 . S
C1836 C1835 1.392 . S
C1836 C1837 1.385 . S
C1836 C1838 1.478 . S
C1837 H1831 0.930 . S
C1837 C1833 1.400 . S
C1837 C1836 1.385 . S
C1838 C1836 1.478 . S
C1838 C1840 1.381 . S
C1838 C1844 1.383 . S
C1839 C1835 1.495 . S
C1839 H1845 0.959 . S
C1839 H1846 0.961 . S
C1839 H1847 0.960 . S
C1840 C1838 1.381 . S
C1840 C1841 1.394 . S
C1840 H1848 0.930 . S
C1841 C1840 1.394 . S
C1841 C1842 1.383 . S
C1841 H1849 0.929 . S
C1842 C1841 1.383 . S
C1842 C1843 1.377 . S
C1843 H1827 0.930 . S
C1843 C1842 1.377 . S
C1843 C1844 1.379 . S
C1844 H1828 0.931 . S
C1844 C1838 1.383 . S
C1844 C1843 1.379 . S
H1845 C1839 0.959 . S
H1846 C1839 0.961 . S
H1847 C1839 0.960 . S
H1848 C1840 0.930 . S
H1849 C1841 0.929 . S
H1850 C1858 0.929 . S
H1851 C1860 0.930 . S
H1852 C1862 0.930 . S
H1853 C1865 0.929 . S
H1854 C1868 0.930 . S
H1855 C1870 0.960 . S
H1856 C1870 0.960 . S
H1857 C1870 0.960 . S
C1858 H1850 0.929 . S
C1858 C1859 1.377 . S
C1858 C1860 1.384 . S
C1859 C1858 1.377 . S
C1859 C1865 1.390 . S
C1860 H1851 0.930 . S
C1860 C1858 1.384 . S
C1860 C1861 1.372 . S
C1861 C1860 1.372 . S
C1861 C1862 1.400 . S
C1861 C1866 1.490 . S
C1862 H1852 0.930 . S
C1862 C1861 1.400 . S
C1862 C1865 1.386 . S
H1863 C1879 0.930 . S
H1864 C1880 0.931 . S
C1865 H1853 0.929 . S
C1865 C1859 1.390 . S
C1865 C1862 1.386 . S
C1866 C1861 1.490 . S
C1866 C1868 1.395 . S
C1866 C1869 1.403 . S
H1867 C1873 0.930 . S
C1868 H1854 0.930 . S
C1868 C1866 1.395 . S
C1868 C1871 1.403 . S
C1869 C1866 1.403 . S
C1869 C1870 1.524 . S
C1869 C1873 1.400 . S
C1870 H1855 0.960 . S
C1870 H1856 0.960 . S
C1870 H1857 0.960 . S
C1870 C1869 1.524 . S
C1871 C1868 1.403 . S
C1871 C1872 1.392 . S
C1871 C1875 1.495 . S
C1872 C1871 1.392 . S
C1872 C1873 1.385 . S
C1872 C1874 1.478 . S
C1873 H1867 0.930 . S
C1873 C1869 1.400 . S
C1873 C1872 1.385 . S
C1874 C1872 1.478 . S
C1874 C1876 1.381 . S
C1874 C1880 1.383 . S
C1875 C1871 1.495 . S
C1875 H1881 0.959 . S
C1875 H1882 0.961 . S
C1875 H1883 0.960 . S
C1876 C1874 1.381 . S
C1876 C1877 1.394 . S
C1876 H1884 0.930 . S
C1877 C1876 1.394 . S
C1877 C1878 1.383 . S
C1877 H1885 0.929 . S
C1878 C1877 1.383 . S
C1878 C1879 1.377 . S
C1879 H1863 0.930 . S
C1879 C1878 1.377 . S
C1879 C1880 1.379 . S
C1880 H1864 0.931 . S
C1880 C1874 1.383 . S
C1880 C1879 1.379 . S
H1881 C1875 0.959 . S
H1882 C1875 0.961 . S
H1883 C1875 0.960 . S
H1884 C1876 0.930 . S
H1885 C1877 0.929 . S
H1886 C1894 0.929 . S
H1887 C1896 0.930 . S
H1888 C1898 0.930 . S
H1889 C1901 0.929 . S
H1890 C1904 0.930 . S
H1891 C1906 0.960 . S
H1892 C1906 0.960 . S
H1893 C1906 0.960 . S
C1894 H1886 0.929 . S
C1894 C1895 1.377 . S
C1894 C1896 1.384 . S
C1895 C1894 1.377 . S
C1895 C1901 1.390 . S
C1896 H1887 0.930 . S
C1896 C1894 1.384 . S
C1896 C1897 1.372 . S
C1897 C1896 1.372 . S
C1897 C1898 1.400 . S
C1897 C1902 1.490 . S
C1898 H1888 0.930 . S
C1898 C1897 1.400 . S
C1898 C1901 1.386 . S
H1899 C1915 0.930 . S
H1900 C1916 0.931 . S
C1901 H1889 0.929 . S
C1901 C1895 1.390 . S
C1901 C1898 1.386 . S
C1902 C1897 1.490 . S
C1902 C1904 1.395 . S
C1902 C1905 1.403 . S
H1903 C1909 0.930 . S
C1904 H1890 0.930 . S
C1904 C1902 1.395 . S
C1904 C1907 1.403 . S
C1905 C1902 1.403 . S
C1905 C1906 1.524 . S
C1905 C1909 1.400 . S
C1906 H1891 0.960 . S
C1906 H1892 0.960 . S
C1906 H1893 0.960 . S
C1906 C1905 1.524 . S
C1907 C1904 1.403 . S
C1907 C1908 1.392 . S
C1907 C1911 1.495 . S
C1908 C1907 1.392 . S
C1908 C1909 1.385 . S
C1908 C1910 1.478 . S
C1909 H1903 0.930 . S
C1909 C1905 1.400 . S
C1909 C1908 1.385 . S
C1910 C1908 1.478 . S
C1910 C1912 1.381 . S
C1910 C1916 1.383 . S
C1911 C1907 1.495 . S
C1911 H1917 0.959 . S
C1911 H1918 0.961 . S
C1911 H1919 0.960 . S
C1912 C1910 1.381 . S
C1912 C1913 1.394 . S
C1912 H1920 0.930 . S
C1913 C1912 1.394 . S
C1913 C1914 1.383 . S
C1913 H1921 0.929 . S
C1914 C1913 1.383 . S
C1914 C1915 1.377 . S
C1915 H1899 0.930 . S
C1915 C1914 1.377 . S
C1915 C1916 1.379 . S
C1916 H1900 0.931 . S
C1916 C1910 1.383 . S
C1916 C1915 1.379 . S
H1917 C1911 0.959 . S
H1918 C1911 0.961 . S
H1919 C1911 0.960 . S
H1920 C1912 0.930 . S
H1921 C1913 0.929 . S
H1922 C1930 0.929 . S
H1923 C1932 0.930 . S
H1924 C1934 0.930 . S
H1925 C1937 0.929 . S
H1926 C1940 0.930 . S
H1927 C1942 0.960 . S
H1928 C1942 0.960 . S
H1929 C1942 0.960 . S
C1930 H1922 0.929 . S
C1930 C1931 1.377 . S
C1930 C1932 1.384 . S
C1931 C1930 1.377 . S
C1931 C1937 1.390 . S
C1932 H1923 0.930 . S
C1932 C1930 1.384 . S
C1932 C1933 1.372 . S
C1933 C1932 1.372 . S
C1933 C1934 1.400 . S
C1933 C1938 1.490 . S
C1934 H1924 0.930 . S
C1934 C1933 1.400 . S
C1934 C1937 1.386 . S
H1935 C1951 0.930 . S
H1936 C1952 0.931 . S
C1937 H1925 0.929 . S
C1937 C1931 1.390 . S
C1937 C1934 1.386 . S
C1938 C1933 1.490 . S
C1938 C1940 1.395 . S
C1938 C1941 1.403 . S
H1939 C1945 0.930 . S
C1940 H1926 0.930 . S
C1940 C1938 1.395 . S
C1940 C1943 1.403 . S
C1941 C1938 1.403 . S
C1941 C1942 1.524 . S
C1941 C1945 1.400 . S
C1942 H1927 0.960 . S
C1942 H1928 0.960 . S
C1942 H1929 0.960 . S
C1942 C1941 1.524 . S
C1943 C1940 1.403 . S
C1943 C1944 1.392 . S
C1943 C1947 1.495 . S
C1944 C1943 1.392 . S
C1944 C1945 1.385 . S
C1944 C1946 1.478 . S
C1945 H1939 0.930 . S
C1945 C1941 1.400 . S
C1945 C1944 1.385 . S
C1946 C1944 1.478 . S
C1946 C1948 1.381 . S
C1946 C1952 1.383 . S
C1947 C1943 1.495 . S
C1947 H1953 0.959 . S
C1947 H1954 0.961 . S
C1947 H1955 0.960 . S
C1948 C1946 1.381 . S
C1948 C1949 1.394 . S
C1948 H1956 0.930 . S
C1949 C1948 1.394 . S
C1949 C1950 1.383 . S
C1949 H1957 0.929 . S
C1950 C1949 1.383 . S
C1950 C1951 1.377 . S
C1951 H1935 0.930 . S
C1951 C1950 1.377 . S
C1951 C1952 1.379 . S
C1952 H1936 0.931 . S
C1952 C1946 1.383 . S
C1952 C1951 1.379 . S
H1953 C1947 0.959 . S
H1954 C1947 0.961 . S
H1955 C1947 0.960 . S
H1956 C1948 0.930 . S
H1957 C1949 0.929 . S
H1958 C1966 0.929 . S
H1959 C1968 0.930 . S
H1960 C1970 0.930 . S
H1961 C1973 0.929 . S
H1962 C1976 0.930 . S
H1963 C1978 0.960 . S
H1964 C1978 0.960 . S
H1965 C1978 0.960 . S
C1966 H1958 0.929 . S
C1966 C1967 1.377 . S
C1966 C1968 1.384 . S
C1967 C1966 1.377 . S
C1967 C1973 1.390 . S
C1968 H1959 0.930 . S
C1968 C1966 1.384 . S
C1968 C1969 1.372 . S
C1969 C1968 1.372 . S
C1969 C1970 1.400 . S
C1969 C1974 1.490 . S
C1970 H1960 0.930 . S
C1970 C1969 1.400 . S
C1970 C1973 1.386 . S
H1971 C1987 0.930 . S
H1972 C1988 0.931 . S
C1973 H1961 0.929 . S
C1973 C1967 1.390 . S
C1973 C1970 1.386 . S
C1974 C1969 1.490 . S
C1974 C1976 1.395 . S
C1974 C1977 1.403 . S
H1975 C1981 0.930 . S
C1976 H1962 0.930 . S
C1976 C1974 1.395 . S
C1976 C1979 1.403 . S
C1977 C1974 1.403 . S
C1977 C1978 1.524 . S
C1977 C1981 1.400 . S
C1978 H1963 0.960 . S
C1978 H1964 0.960 . S
C1978 H1965 0.960 . S
C1978 C1977 1.524 . S
C1979 C1976 1.403 . S
C1979 C1980 1.392 . S
C1979 C1983 1.495 . S
C1980 C1979 1.392 . S
C1980 C1981 1.385 . S
C1980 C1982 1.478 . S
C1981 H1975 0.930 . S
C1981 C1977 1.400 . S
C1981 C1980 1.385 . S
C1982 C1980 1.478 . S
C1982 C1984 1.381 . S
C1982 C1988 1.383 . S
C1983 C1979 1.495 . S
C1983 H1989 0.959 . S
C1983 H1990 0.961 . S
C1983 H1991 0.960 . S
C1984 C1982 1.381 . S
C1984 C1985 1.394 . S
C1984 H1992 0.930 . S
C1985 C1984 1.394 . S
C1985 C1986 1.383 . S
C1985 H1993 0.929 . S
C1986 C1985 1.383 . S
C1986 C1987 1.377 . S
C1987 H1971 0.930 . S
C1987 C1986 1.377 . S
C1987 C1988 1.379 . S
C1988 H1972 0.931 . S
C1988 C1982 1.383 . S
C1988 C1987 1.379 . S
H1989 C1983 0.959 . S
H1990 C1983 0.961 . S
H1991 C1983 0.960 . S
H1992 C1984 0.930 . S
H1993 C1985 0.929 . S
H1994 C2002 0.929 . S
H1995 C2004 0.930 . S
H1996 C2006 0.930 . S
H1997 C2009 0.929 . S
H1998 C2012 0.930 . S
H1999 C2014 0.960 . S
H2000 C2014 0.960 . S
H2001 C2014 0.960 . S
C2002 H1994 0.929 . S
C2002 C2003 1.377 . S
C2002 C2004 1.384 . S
C2003 C2002 1.377 . S
C2003 C2009 1.390 . S
C2004 H1995 0.930 . S
C2004 C2002 1.384 . S
C2004 C2005 1.372 . S
C2005 C2004 1.372 . S
C2005 C2006 1.400 . S
C2005 C2010 1.490 . S
C2006 H1996 0.930 . S
C2006 C2005 1.400 . S
C2006 C2009 1.386 . S
H2007 C2023 0.930 . S
H2008 C2024 0.931 . S
C2009 H1997 0.929 . S
C2009 C2003 1.390 . S
C2009 C2006 1.386 . S
C2010 C2005 1.490 . S
C2010 C2012 1.395 . S
C2010 C2013 1.403 . S
H2011 C2017 0.930 . S
C2012 H1998 0.930 . S
C2012 C2010 1.395 . S
C2012 C2015 1.403 . S
C2013 C2010 1.403 . S
C2013 C2014 1.524 . S
C2013 C2017 1.400 . S
C2014 H1999 0.960 . S
C2014 H2000 0.960 . S
C2014 H2001 0.960 . S
C2014 C2013 1.524 . S
C2015 C2012 1.403 . S
C2015 C2016 1.392 . S
C2015 C2019 1.495 . S
C2016 C2015 1.392 . S
C2016 C2017 1.385 . S
C2016 C2018 1.478 . S
C2017 H2011 0.930 . S
C2017 C2013 1.400 . S
C2017 C2016 1.385 . S
C2018 C2016 1.478 . S
C2018 C2020 1.381 . S
C2018 C2024 1.383 . S
C2019 C2015 1.495 . S
C2019 H2025 0.959 . S
C2019 H2026 0.961 . S
C2019 H2027 0.960 . S
C2020 C2018 1.381 . S
C2020 C2021 1.394 . S
C2020 H2028 0.930 . S
C2021 C2020 1.394 . S
C2021 C2022 1.383 . S
C2021 H2029 0.929 . S
C2022 C2021 1.383 . S
C2022 C2023 1.377 . S
C2023 H2007 0.930 . S
C2023 C2022 1.377 . S
C2023 C2024 1.379 . S
C2024 H2008 0.931 . S
C2024 C2018 1.383 . S
C2024 C2023 1.379 . S
H2025 C2019 0.959 . S
H2026 C2019 0.961 . S
H2027 C2019 0.960 . S
H2028 C2020 0.930 . S
H2029 C2021 0.929 . S
H2030 C2038 0.929 . S
H2031 C2040 0.930 . S
H2032 C2042 0.930 . S
H2033 C2045 0.929 . S
H2034 C2048 0.930 . S
H2035 C2050 0.960 . S
H2036 C2050 0.960 . S
H2037 C2050 0.960 . S
C2038 H2030 0.929 . S
C2038 C2039 1.377 . S
C2038 C2040 1.384 . S
C2039 C2038 1.377 . S
C2039 C2045 1.390 . S
C2040 H2031 0.930 . S
C2040 C2038 1.384 . S
C2040 C2041 1.372 . S
C2041 C2040 1.372 . S
C2041 C2042 1.400 . S
C2041 C2046 1.490 . S
C2042 H2032 0.930 . S
C2042 C2041 1.400 . S
C2042 C2045 1.386 . S
H2043 C2059 0.930 . S
H2044 C2060 0.931 . S
C2045 H2033 0.929 . S
C2045 C2039 1.390 . S
C2045 C2042 1.386 . S
C2046 C2041 1.490 . S
C2046 C2048 1.395 . S
C2046 C2049 1.403 . S
H2047 C2053 0.930 . S
C2048 H2034 0.930 . S
C2048 C2046 1.395 . S
C2048 C2051 1.403 . S
C2049 C2046 1.403 . S
C2049 C2050 1.524 . S
C2049 C2053 1.400 . S
C2050 H2035 0.960 . S
C2050 H2036 0.960 . S
C2050 H2037 0.960 . S
C2050 C2049 1.524 . S
C2051 C2048 1.403 . S
C2051 C2052 1.392 . S
C2051 C2055 1.495 . S
C2052 C2051 1.392 . S
C2052 C2053 1.385 . S
C2052 C2054 1.478 . S
C2053 H2047 0.930 . S
C2053 C2049 1.400 . S
C2053 C2052 1.385 . S
C2054 C2052 1.478 . S
C2054 C2056 1.381 . S
C2054 C2060 1.383 . S
C2055 C2051 1.495 . S
C2055 H2061 0.959 . S
C2055 H2062 0.961 . S
C2055 H2063 0.960 . S
C2056 C2054 1.381 . S
C2056 C2057 1.394 . S
C2056 H2064 0.930 . S
C2057 C2056 1.394 . S
C2057 C2058 1.383 . S
C2057 H2065 0.929 . S
C2058 C2057 1.383 . S
C2058 C2059 1.377 . S
C2059 H2043 0.930 . S
C2059 C2058 1.377 . S
C2059 C2060 1.379 . S
C2060 H2044 0.931 . S
C2060 C2054 1.383 . S
C2060 C2059 1.379 . S
H2061 C2055 0.959 . S
H2062 C2055 0.961 . S
H2063 C2055 0.960 . S
H2064 C2056 0.930 . S
H2065 C2057 0.929 . S
H2066 C2074 0.929 . S
H2067 C2076 0.930 . S
H2068 C2078 0.930 . S
H2069 C2081 0.929 . S
H2070 C2084 0.930 . S
H2071 C2086 0.960 . S
H2072 C2086 0.960 . S
H2073 C2086 0.960 . S
C2074 H2066 0.929 . S
C2074 C2075 1.377 . S
C2074 C2076 1.384 . S
C2075 C2074 1.377 . S
C2075 C2081 1.390 . S
C2076 H2067 0.930 . S
C2076 C2074 1.384 . S
C2076 C2077 1.372 . S
C2077 C2076 1.372 . S
C2077 C2078 1.400 . S
C2077 C2082 1.490 . S
C2078 H2068 0.930 . S
C2078 C2077 1.400 . S
C2078 C2081 1.386 . S
H2079 C2095 0.930 . S
H2080 C2096 0.931 . S
C2081 H2069 0.929 . S
C2081 C2075 1.390 . S
C2081 C2078 1.386 . S
C2082 C2077 1.490 . S
C2082 C2084 1.395 . S
C2082 C2085 1.403 . S
H2083 C2089 0.930 . S
C2084 H2070 0.930 . S
C2084 C2082 1.395 . S
C2084 C2087 1.403 . S
C2085 C2082 1.403 . S
C2085 C2086 1.524 . S
C2085 C2089 1.400 . S
C2086 H2071 0.960 . S
C2086 H2072 0.960 . S
C2086 H2073 0.960 . S
C2086 C2085 1.524 . S
C2087 C2084 1.403 . S
C2087 C2088 1.392 . S
C2087 C2091 1.495 . S
C2088 C2087 1.392 . S
C2088 C2089 1.385 . S
C2088 C2090 1.478 . S
C2089 H2083 0.930 . S
C2089 C2085 1.400 . S
C2089 C2088 1.385 . S
C2090 C2088 1.478 . S
C2090 C2092 1.381 . S
C2090 C2096 1.383 . S
C2091 C2087 1.495 . S
C2091 H2097 0.959 . S
C2091 H2098 0.961 . S
C2091 H2099 0.960 . S
C2092 C2090 1.381 . S
C2092 C2093 1.394 . S
C2092 H2100 0.930 . S
C2093 C2092 1.394 . S
C2093 C2094 1.383 . S
C2093 H2101 0.929 . S
C2094 C2093 1.383 . S
C2094 C2095 1.377 . S
C2095 H2079 0.930 . S
C2095 C2094 1.377 . S
C2095 C2096 1.379 . S
C2096 H2080 0.931 . S
C2096 C2090 1.383 . S
C2096 C2095 1.379 . S
H2097 C2091 0.959 . S
H2098 C2091 0.961 . S
H2099 C2091 0.960 . S
H2100 C2092 0.930 . S
H2101 C2093 0.929 . S
H2102 C2110 0.929 . S
H2103 C2112 0.930 . S
H2104 C2114 0.930 . S
H2105 C2117 0.929 . S
H2106 C2120 0.930 . S
H2107 C2122 0.960 . S
H2108 C2122 0.960 . S
H2109 C2122 0.960 . S
C2110 H2102 0.929 . S
C2110 C2111 1.377 . S
C2110 C2112 1.384 . S
C2111 C2110 1.377 . S
C2111 C2117 1.390 . S
C2112 H2103 0.930 . S
C2112 C2110 1.384 . S
C2112 C2113 1.372 . S
C2113 C2112 1.372 . S
C2113 C2114 1.400 . S
C2113 C2118 1.490 . S
C2114 H2104 0.930 . S
C2114 C2113 1.400 . S
C2114 C2117 1.386 . S
H2115 C2131 0.930 . S
H2116 C2132 0.931 . S
C2117 H2105 0.929 . S
C2117 C2111 1.390 . S
C2117 C2114 1.386 . S
C2118 C2113 1.490 . S
C2118 C2120 1.395 . S
C2118 C2121 1.403 . S
H2119 C2125 0.930 . S
C2120 H2106 0.930 . S
C2120 C2118 1.395 . S
C2120 C2123 1.403 . S
C2121 C2118 1.403 . S
C2121 C2122 1.524 . S
C2121 C2125 1.400 . S
C2122 H2107 0.960 . S
C2122 H2108 0.960 . S
C2122 H2109 0.960 . S
C2122 C2121 1.524 . S
C2123 C2120 1.403 . S
C2123 C2124 1.392 . S
C2123 C2127 1.495 . S
C2124 C2123 1.392 . S
C2124 C2125 1.385 . S
C2124 C2126 1.478 . S
C2125 H2119 0.930 . S
C2125 C2121 1.400 . S
C2125 C2124 1.385 . S
C2126 C2124 1.478 . S
C2126 C2128 1.381 . S
C2126 C2132 1.383 . S
C2127 C2123 1.495 . S
C2127 H2133 0.959 . S
C2127 H2134 0.961 . S
C2127 H2135 0.960 . S
C2128 C2126 1.381 . S
C2128 C2129 1.394 . S
C2128 H2136 0.930 . S
C2129 C2128 1.394 . S
C2129 C2130 1.383 . S
C2129 H2137 0.929 . S
C2130 C2129 1.383 . S
C2130 C2131 1.377 . S
C2131 H2115 0.930 . S
C2131 C2130 1.377 . S
C2131 C2132 1.379 . S
C2132 H2116 0.931 . S
C2132 C2126 1.383 . S
C2132 C2131 1.379 . S
H2133 C2127 0.959 . S
H2134 C2127 0.961 . S
H2135 C2127 0.960 . S
H2136 C2128 0.930 . S
H2137 C2129 0.929 . S
H2138 C2146 0.929 . S
H2139 C2148 0.930 . S
H2140 C2150 0.930 . S
H2141 C2153 0.929 . S
H2142 C2156 0.930 . S
H2143 C2158 0.960 . S
H2144 C2158 0.960 . S
H2145 C2158 0.960 . S
C2146 H2138 0.929 . S
C2146 C2147 1.377 . S
C2146 C2148 1.384 . S
C2147 C2146 1.377 . S
C2147 C2153 1.390 . S
C2148 H2139 0.930 . S
C2148 C2146 1.384 . S
C2148 C2149 1.372 . S
C2149 C2148 1.372 . S
C2149 C2150 1.400 . S
C2149 C2154 1.490 . S
C2150 H2140 0.930 . S
C2150 C2149 1.400 . S
C2150 C2153 1.386 . S
H2151 C2167 0.930 . S
H2152 C2168 0.931 . S
C2153 H2141 0.929 . S
C2153 C2147 1.390 . S
C2153 C2150 1.386 . S
C2154 C2149 1.490 . S
C2154 C2156 1.395 . S
C2154 C2157 1.403 . S
H2155 C2161 0.930 . S
C2156 H2142 0.930 . S
C2156 C2154 1.395 . S
C2156 C2159 1.403 . S
C2157 C2154 1.403 . S
C2157 C2158 1.524 . S
C2157 C2161 1.400 . S
C2158 H2143 0.960 . S
C2158 H2144 0.960 . S
C2158 H2145 0.960 . S
C2158 C2157 1.524 . S
C2159 C2156 1.403 . S
C2159 C2160 1.392 . S
C2159 C2163 1.495 . S
C2160 C2159 1.392 . S
C2160 C2161 1.385 . S
C2160 C2162 1.478 . S
C2161 H2155 0.930 . S
C2161 C2157 1.400 . S
C2161 C2160 1.385 . S
C2162 C2160 1.478 . S
C2162 C2164 1.381 . S
C2162 C2168 1.383 . S
C2163 C2159 1.495 . S
C2163 H2169 0.959 . S
C2163 H2170 0.961 . S
C2163 H2171 0.960 . S
C2164 C2162 1.381 . S
C2164 C2165 1.394 . S
C2164 H2172 0.930 . S
C2165 C2164 1.394 . S
C2165 C2166 1.383 . S
C2165 H2173 0.929 . S
C2166 C2165 1.383 . S
C2166 C2167 1.377 . S
C2167 H2151 0.930 . S
C2167 C2166 1.377 . S
C2167 C2168 1.379 . S
C2168 H2152 0.931 . S
C2168 C2162 1.383 . S
C2168 C2167 1.379 . S
H2169 C2163 0.959 . S
H2170 C2163 0.961 . S
H2171 C2163 0.960 . S
H2172 C2164 0.930 . S
H2173 C2165 0.929 . S
H2174 C2182 0.929 . S
H2175 C2184 0.930 . S
H2176 C2186 0.930 . S
H2177 C2189 0.929 . S
H2178 C2192 0.930 . S
H2179 C2194 0.960 . S
H2180 C2194 0.960 . S
H2181 C2194 0.960 . S
C2182 H2174 0.929 . S
C2182 C2183 1.377 . S
C2182 C2184 1.384 . S
C2183 C2182 1.377 . S
C2183 C2189 1.390 . S
C2184 H2175 0.930 . S
C2184 C2182 1.384 . S
C2184 C2185 1.372 . S
C2185 C2184 1.372 . S
C2185 C2186 1.400 . S
C2185 C2190 1.490 . S
C2186 H2176 0.930 . S
C2186 C2185 1.400 . S
C2186 C2189 1.386 . S
H2187 C2203 0.930 . S
H2188 C2204 0.931 . S
C2189 H2177 0.929 . S
C2189 C2183 1.390 . S
C2189 C2186 1.386 . S
C2190 C2185 1.490 . S
C2190 C2192 1.395 . S
C2190 C2193 1.403 . S
H2191 C2197 0.930 . S
C2192 H2178 0.930 . S
C2192 C2190 1.395 . S
C2192 C2195 1.403 . S
C2193 C2190 1.403 . S
C2193 C2194 1.524 . S
C2193 C2197 1.400 . S
C2194 H2179 0.960 . S
C2194 H2180 0.960 . S
C2194 H2181 0.960 . S
C2194 C2193 1.524 . S
C2195 C2192 1.403 . S
C2195 C2196 1.392 . S
C2195 C2199 1.495 . S
C2196 C2195 1.392 . S
C2196 C2197 1.385 . S
C2196 C2198 1.478 . S
C2197 H2191 0.930 . S
C2197 C2193 1.400 . S
C2197 C2196 1.385 . S
C2198 C2196 1.478 . S
C2198 C2200 1.381 . S
C2198 C2204 1.383 . S
C2199 C2195 1.495 . S
C2199 H2205 0.959 . S
C2199 H2206 0.961 . S
C2199 H2207 0.960 . S
C2200 C2198 1.381 . S
C2200 C2201 1.394 . S
C2200 H2208 0.930 . S
C2201 C2200 1.394 . S
C2201 C2202 1.383 . S
C2201 H2209 0.929 . S
C2202 C2201 1.383 . S
C2202 C2203 1.377 . S
C2203 H2187 0.930 . S
C2203 C2202 1.377 . S
C2203 C2204 1.379 . S
C2204 H2188 0.931 . S
C2204 C2198 1.383 . S
C2204 C2203 1.379 . S
H2205 C2199 0.959 . S
H2206 C2199 0.961 . S
H2207 C2199 0.960 . S
H2208 C2200 0.930 . S
H2209 C2201 0.929 . S
H2210 C2218 0.929 . S
H2211 C2220 0.930 . S
H2212 C2222 0.930 . S
H2213 C2225 0.929 . S
H2214 C2228 0.930 . S
H2215 C2230 0.960 . S
H2216 C2230 0.960 . S
H2217 C2230 0.960 . S
C2218 H2210 0.929 . S
C2218 C2219 1.377 . S
C2218 C2220 1.384 . S
C2219 C2218 1.377 . S
C2219 C2225 1.390 . S
C2220 H2211 0.930 . S
C2220 C2218 1.384 . S
C2220 C2221 1.372 . S
C2221 C2220 1.372 . S
C2221 C2222 1.400 . S
C2221 C2226 1.490 . S
C2222 H2212 0.930 . S
C2222 C2221 1.400 . S
C2222 C2225 1.386 . S
H2223 C2239 0.930 . S
H2224 C2240 0.931 . S
C2225 H2213 0.929 . S
C2225 C2219 1.390 . S
C2225 C2222 1.386 . S
C2226 C2221 1.490 . S
C2226 C2228 1.395 . S
C2226 C2229 1.403 . S
H2227 C2233 0.930 . S
C2228 H2214 0.930 . S
C2228 C2226 1.395 . S
C2228 C2231 1.403 . S
C2229 C2226 1.403 . S
C2229 C2230 1.524 . S
C2229 C2233 1.400 . S
C2230 H2215 0.960 . S
C2230 H2216 0.960 . S
C2230 H2217 0.960 . S
C2230 C2229 1.524 . S
C2231 C2228 1.403 . S
C2231 C2232 1.392 . S
C2231 C2235 1.495 . S
C2232 C2231 1.392 . S
C2232 C2233 1.385 . S
C2232 C2234 1.478 . S
C2233 H2227 0.930 . S
C2233 C2229 1.400 . S
C2233 C2232 1.385 . S
C2234 C2232 1.478 . S
C2234 C2236 1.381 . S
C2234 C2240 1.383 . S
C2235 C2231 1.495 . S
C2235 H2241 0.959 . S
C2235 H2242 0.961 . S
C2235 H2243 0.960 . S
C2236 C2234 1.381 . S
C2236 C2237 1.394 . S
C2236 H2244 0.930 . S
C2237 C2236 1.394 . S
C2237 C2238 1.383 . S
C2237 H2245 0.929 . S
C2238 C2237 1.383 . S
C2238 C2239 1.377 . S
C2239 H2223 0.930 . S
C2239 C2238 1.377 . S
C2239 C2240 1.379 . S
C2240 H2224 0.931 . S
C2240 C2234 1.383 . S
C2240 C2239 1.379 . S
H2241 C2235 0.959 . S
H2242 C2235 0.961 . S
H2243 C2235 0.960 . S
H2244 C2236 0.930 . S
H2245 C2237 0.929 . S
C546 C347 1.132 . S
C527 C2 1.210 . S
C582 C348 0.718 . S
C563 C65 0.650 . S
C618 C342 1.113 . S
C599 C82 1.154 . S
C635 C145 0.481 . S
C654 C341 0.448 . S
C671 C164 0.462 . S
C690 C344 0.520 . S
C726 C346 1.151 . S
C707 C223 1.152 . S
C743 C244 0.791 . S
C762 C345 0.777 . S
C779 C282 1.270 . S
C798 C343 1.242 . S
C834 C378 3.329 . S
C815 C31 3.315 . S
C851 C60 1.725 . S
C870 C409 1.612 . S
C906 C377 3.432 . S
C887 C111 3.473 . S
C942 C412 1.241 . S
C923 C140 1.264 . S
C959 C162 1.618 . S
C978 C375 1.604 1_556 S
C1014 C407 1.407 . S
C995 C225 1.421 . S
C1031 C242 1.419 . S
C1050 C380 1.363 1_556 S
C1067 C311 2.409 . S
C1086 C414 2.373 . S
C1103 C4 0.950 . S
C1122 C410 0.880 . S
C1139 C191 1.151 . S
C1158 C413 1.108 . S
C1194 C381 2.767 1_556 S
C1175 C220 2.840 . S
C1230 C408 0.891 . S
C1211 C271 0.906 . S
C1247 C284 1.697 . S
C1266 C374 1.705 1_556 S
C1283 C84 0.843 . S
C1302 C411 0.878 . S
C1338 C376 0.787 . S
C1319 C143 0.813 . S
C1355 C63 1.300 . S
C1374 C379 1.324 . S
C1391 C303 1.168 . S
C1410 C446 1.121 . S
C1427 C185 0.189 . S
C1446 C447 0.410 . S
C1482 C441 1.257 . S
C1463 C202 1.310 . S
C1518 C440 1.256 . S
C1499 C265 1.273 . S
C1535 C44 0.256 . S
C1554 C443 0.503 . S
C1590 C445 1.349 . S
C1571 C103 1.378 . S
C1607 C124 1.014 . S
C1626 C444 1.026 . S
C1643 C23 1.239 . S
C1662 C442 1.183 . S
C1679 C305 1.794 . S
C1698 C480 1.755 . S
C1734 C512 0.754 . S
C1715 C180 0.738 . S
C1751 C231 2.721 . S
C1770 C473 2.723 . S
C1787 C260 1.292 . S
C1806 C507 1.330 . S
C1842 C478 1.003 . S
C1823 C42 0.999 . S
C1859 C105 1.041 . S
C1878 C509 1.031 . S
C1914 C475 1.130 . S
C1895 C122 1.177 . S
C1950 C510 0.958 . S
C1931 C25 0.941 . S
C1986 C506 2.366 . S
C1967 C300 2.310 . S
C2003 C71 1.365 . S
C2022 C508 1.323 . S
C2039 C100 3.355 . S
C2058 C477 3.363 . S
C2094 C511 1.637 . S
C2075 C151 1.671 . S
C2111 C20 3.553 . S
C2130 C476 3.466 . S
C2147 C204 1.594 . S
C2166 C513 1.612 . S
C2202 C479 1.675 . S
C2183 C263 1.715 . S
C2238 C474 1.344 . S
C2219 C183 1.317 . S
