# Generated by pormake.
# Topology eea, (3,6)-cn, num edge types: 1
# Building blocks:
#     Node 0, Type 0, BuildingBlock: OLANEW_clean_sbu_2, # of connection points: 3
#     Node 1, Type 0, BuildingBlock: OLANEW_clean_sbu_2, # of connection points: 3
#     Node 2, Type 0, BuildingBlock: OLANEW_clean_sbu_2, # of connection points: 3
#     Node 3, Type 0, BuildingBlock: OLANEW_clean_sbu_2, # of connection points: 3
#     Node 4, Type 0, BuildingBlock: OLANEW_clean_sbu_2, # of connection points: 3
#     Node 5, Type 0, BuildingBlock: OLANEW_clean_sbu_2, # of connection points: 3
#     Node 6, Type 0, BuildingBlock: OLANEW_clean_sbu_2, # of connection points: 3
#     Node 7, Type 0, BuildingBlock: OLANEW_clean_sbu_2, # of connection points: 3
#     Node 8, Type 0, BuildingBlock: OLANEW_clean_sbu_2, # of connection points: 3
#     Node 9, Type 0, BuildingBlock: OLANEW_clean_sbu_2, # of connection points: 3
#     Node 10, Type 0, BuildingBlock: OLANEW_clean_sbu_2, # of connection points: 3
#     Node 11, Type 0, BuildingBlock: OLANEW_clean_sbu_2, # of connection points: 3
#     Node 12, Type 0, BuildingBlock: OLANEW_clean_sbu_2, # of connection points: 3
#     Node 13, Type 0, BuildingBlock: OLANEW_clean_sbu_2, # of connection points: 3
#     Node 14, Type 0, BuildingBlock: OLANEW_clean_sbu_2, # of connection points: 3
#     Node 15, Type 0, BuildingBlock: OLANEW_clean_sbu_2, # of connection points: 3
#     Node 16, Type 0, BuildingBlock: OLANEW_clean_sbu_2, # of connection points: 3
#     Node 17, Type 0, BuildingBlock: OLANEW_clean_sbu_2, # of connection points: 3
#     Node 18, Type 1, BuildingBlock: LEVNOQ01_clean_sbu_1, # of connection points: 6
#     Node 19, Type 1, BuildingBlock: LEVNOQ01_clean_sbu_1, # of connection points: 6
#     Node 20, Type 1, BuildingBlock: LEVNOQ01_clean_sbu_1, # of connection points: 6
#     Node 21, Type 1, BuildingBlock: LEVNOQ01_clean_sbu_1, # of connection points: 6
#     Node 22, Type 1, BuildingBlock: LEVNOQ01_clean_sbu_1, # of connection points: 6
#     Node 23, Type 1, BuildingBlock: LEVNOQ01_clean_sbu_1, # of connection points: 6
#     Node 24, Type 1, BuildingBlock: LEVNOQ01_clean_sbu_1, # of connection points: 6
#     Node 25, Type 1, BuildingBlock: LEVNOQ01_clean_sbu_1, # of connection points: 6
#     Node 26, Type 1, BuildingBlock: LEVNOQ01_clean_sbu_1, # of connection points: 6
#     Edge 27, Type (0, 1), BuildingBlock: AJUNOK_clean_linker_0, # of connection points: 2
#     Edge 28, Type (0, 1), BuildingBlock: AJUNOK_clean_linker_0, # of connection points: 2
#     Edge 29, Type (0, 1), BuildingBlock: AJUNOK_clean_linker_0, # of connection points: 2
#     Edge 30, Type (0, 1), BuildingBlock: AJUNOK_clean_linker_0, # of connection points: 2
#     Edge 31, Type (0, 1), BuildingBlock: AJUNOK_clean_linker_0, # of connection points: 2
#     Edge 32, Type (0, 1), BuildingBlock: AJUNOK_clean_linker_0, # of connection points: 2
#     Edge 33, Type (0, 1), BuildingBlock: AJUNOK_clean_linker_0, # of connection points: 2
#     Edge 34, Type (0, 1), BuildingBlock: AJUNOK_clean_linker_0, # of connection points: 2
#     Edge 35, Type (0, 1), BuildingBlock: AJUNOK_clean_linker_0, # of connection points: 2
#     Edge 36, Type (0, 1), BuildingBlock: AJUNOK_clean_linker_0, # of connection points: 2
#     Edge 37, Type (0, 1), BuildingBlock: AJUNOK_clean_linker_0, # of connection points: 2
#     Edge 38, Type (0, 1), BuildingBlock: AJUNOK_clean_linker_0, # of connection points: 2
#     Edge 39, Type (0, 1), BuildingBlock: AJUNOK_clean_linker_0, # of connection points: 2
#     Edge 40, Type (0, 1), BuildingBlock: AJUNOK_clean_linker_0, # of connection points: 2
#     Edge 41, Type (0, 1), BuildingBlock: AJUNOK_clean_linker_0, # of connection points: 2
#     Edge 42, Type (0, 1), BuildingBlock: AJUNOK_clean_linker_0, # of connection points: 2
#     Edge 43, Type (0, 1), BuildingBlock: AJUNOK_clean_linker_0, # of connection points: 2
#     Edge 44, Type (0, 1), BuildingBlock: AJUNOK_clean_linker_0, # of connection points: 2
#     Edge 45, Type (0, 1), BuildingBlock: AJUNOK_clean_linker_0, # of connection points: 2
#     Edge 46, Type (0, 1), BuildingBlock: AJUNOK_clean_linker_0, # of connection points: 2
#     Edge 47, Type (0, 1), BuildingBlock: AJUNOK_clean_linker_0, # of connection points: 2
#     Edge 48, Type (0, 1), BuildingBlock: AJUNOK_clean_linker_0, # of connection points: 2
#     Edge 49, Type (0, 1), BuildingBlock: AJUNOK_clean_linker_0, # of connection points: 2
#     Edge 50, Type (0, 1), BuildingBlock: AJUNOK_clean_linker_0, # of connection points: 2
#     Edge 51, Type (0, 1), BuildingBlock: AJUNOK_clean_linker_0, # of connection points: 2
#     Edge 52, Type (0, 1), BuildingBlock: AJUNOK_clean_linker_0, # of connection points: 2
#     Edge 53, Type (0, 1), BuildingBlock: AJUNOK_clean_linker_0, # of connection points: 2
#     Edge 54, Type (0, 1), BuildingBlock: AJUNOK_clean_linker_0, # of connection points: 2
#     Edge 55, Type (0, 1), BuildingBlock: AJUNOK_clean_linker_0, # of connection points: 2
#     Edge 56, Type (0, 1), BuildingBlock: AJUNOK_clean_linker_0, # of connection points: 2
#     Edge 57, Type (0, 1), BuildingBlock: AJUNOK_clean_linker_0, # of connection points: 2
#     Edge 58, Type (0, 1), BuildingBlock: AJUNOK_clean_linker_0, # of connection points: 2
#     Edge 59, Type (0, 1), BuildingBlock: AJUNOK_clean_linker_0, # of connection points: 2
#     Edge 60, Type (0, 1), BuildingBlock: AJUNOK_clean_linker_0, # of connection points: 2
#     Edge 61, Type (0, 1), BuildingBlock: AJUNOK_clean_linker_0, # of connection points: 2
#     Edge 62, Type (0, 1), BuildingBlock: AJUNOK_clean_linker_0, # of connection points: 2
#     Edge 63, Type (0, 1), BuildingBlock: AJUNOK_clean_linker_0, # of connection points: 2
#     Edge 64, Type (0, 1), BuildingBlock: AJUNOK_clean_linker_0, # of connection points: 2
#     Edge 65, Type (0, 1), BuildingBlock: AJUNOK_clean_linker_0, # of connection points: 2
#     Edge 66, Type (0, 1), BuildingBlock: AJUNOK_clean_linker_0, # of connection points: 2
#     Edge 67, Type (0, 1), BuildingBlock: AJUNOK_clean_linker_0, # of connection points: 2
#     Edge 68, Type (0, 1), BuildingBlock: AJUNOK_clean_linker_0, # of connection points: 2
#     Edge 69, Type (0, 1), BuildingBlock: AJUNOK_clean_linker_0, # of connection points: 2
#     Edge 70, Type (0, 1), BuildingBlock: AJUNOK_clean_linker_0, # of connection points: 2
#     Edge 71, Type (0, 1), BuildingBlock: AJUNOK_clean_linker_0, # of connection points: 2
#     Edge 72, Type (0, 1), BuildingBlock: AJUNOK_clean_linker_0, # of connection points: 2
#     Edge 73, Type (0, 1), BuildingBlock: AJUNOK_clean_linker_0, # of connection points: 2
#     Edge 74, Type (0, 1), BuildingBlock: AJUNOK_clean_linker_0, # of connection points: 2
#     Edge 75, Type (0, 1), BuildingBlock: AJUNOK_clean_linker_0, # of connection points: 2
#     Edge 76, Type (0, 1), BuildingBlock: AJUNOK_clean_linker_0, # of connection points: 2
#     Edge 77, Type (0, 1), BuildingBlock: AJUNOK_clean_linker_0, # of connection points: 2
#     Edge 78, Type (0, 1), BuildingBlock: AJUNOK_clean_linker_0, # of connection points: 2
#     Edge 79, Type (0, 1), BuildingBlock: AJUNOK_clean_linker_0, # of connection points: 2
#     Edge 80, Type (0, 1), BuildingBlock: AJUNOK_clean_linker_0, # of connection points: 2
# Relax obj value: 0.063
# Max RMSD: 0.117
# Mean RMSD: 0.077
data_MOF--net-eea--node1-OLANEW_clean_sbu_2--node2-LEVNOQ01_clean_sbu_1--edge1-AJUNOK_clean_linker_0
_symmetry_space_group_name_H-M    P1
_symmetry_Int_Tables_number       1
_symmetry_cell_setting            triclinic
loop_
_symmetry_equiv_pos_as_xyz
'x, y, z'
_cell_length_a     47.745284
_cell_length_b     47.030724
_cell_length_c     32.830666
_cell_angle_alpha  95.203284
_cell_angle_beta   89.816033
_cell_angle_gamma 120.47308
loop_
_atom_site_label
_atom_site_type_symbol
_atom_site_fract_x
_atom_site_fract_y
_atom_site_fract_z
_atom_type_partial_charge
O0 O 0.23614 0.11268 0.42473 0.0
Cd1 Cd 0.21248 0.10918 0.35801 0.0
O2 O 0.28392 0.12584 0.40056 0.0
Cd3 Cd 0.26408 0.11459 0.33805 0.0
O4 O 0.23495 0.06288 0.31408 0.0
C5 C 0.21942 0.0432 0.34075 0.0
O6 O 0.21972 0.05572 0.37815 0.0
C7 C 0.26558 0.12044 0.43057 0.0
C8 C 0.19666 0.15808 0.36096 0.0
O9 O 0.17433 0.12784 0.3629 0.0
O10 O 0.22598 0.16481 0.35645 0.0
O11 O 0.8794 0.135 0.37885 0.0
Cd12 Cd 0.89861 0.11831 0.31679 0.0
O13 O 0.89867 0.10822 0.40719 0.0
Cd14 Cd 0.90639 0.07696 0.44518 0.0
O15 O 0.87044 0.02634 0.423 0.0
C16 C 0.84164 0.02118 0.42166 0.0
O17 O 0.83643 0.04481 0.43688 0.0
C18 C 0.88365 0.12417 0.41097 0.0
C19 C 0.96511 0.161 0.31477 0.0
O20 O 0.9453 0.16446 0.29243 0.0
O21 O 0.95354 0.13676 0.33688 0.0
O22 O 0.87925 0.74478 0.41251 0.0
Cd23 Cd 0.90066 0.76199 0.34489 0.0
O24 O 0.83869 0.69742 0.38372 0.0
Cd25 Cd 0.8409 0.71704 0.3251 0.0
O26 O 0.81505 0.74216 0.30908 0.0
C27 C 0.81586 0.76112 0.33976 0.0
O28 O 0.83338 0.76452 0.37261 0.0
C29 C 0.85502 0.71596 0.41568 0.0
C30 C 0.96388 0.77286 0.33499 0.0
O31 O 0.95917 0.79702 0.34513 0.0
O32 O 0.93886 0.74357 0.32992 0.0
O33 O 0.15511 0.26949 0.61631 0.0
Cd34 Cd 0.14832 0.24867 0.68362 0.0
O35 O 0.1363 0.30205 0.63744 0.0
Cd36 Cd 0.11696 0.28041 0.69449 0.0
O37 O 0.06584 0.25206 0.70954 0.0
C38 C 0.04839 0.23106 0.67987 0.0
O39 O 0.06314 0.22777 0.64749 0.0
C40 C 0.1485 0.29167 0.60955 0.0
C41 C 0.19216 0.22719 0.69556 0.0
O42 O 0.1634 0.20717 0.67987 0.0
O43 O 0.19986 0.25726 0.70641 0.0
O44 O 0.73137 0.86971 0.64461 0.0
Cd45 Cd 0.75505 0.86925 0.70963 0.0
O46 O 0.78044 0.88496 0.62592 0.0
Cd47 Cd 0.82279 0.90876 0.58896 0.0
O48 O 0.84633 0.96211 0.60228 0.0
C49 C 0.82875 0.97361 0.59185 0.0
O50 O 0.80153 0.95363 0.57008 0.0
C51 C 0.75149 0.87744 0.61649 0.0
C52 C 0.78158 0.82887 0.69422 0.0
O53 O 0.75119 0.817 0.69944 0.0
O54 O 0.80029 0.86046 0.69755 0.0
O55 O 0.11584 0.87428 0.60712 0.0
Cd56 Cd 0.10301 0.8763 0.67951 0.0
O57 O 0.15507 0.86436 0.62097 0.0
Cd58 Cd 0.15293 0.87377 0.68611 0.0
O59 O 0.18702 0.92645 0.69762 0.0
C60 C 0.18127 0.94715 0.68284 0.0
O61 O 0.15289 0.93699 0.66452 0.0
C62 C 0.13807 0.86861 0.59524 0.0
C63 C 0.04036 0.82549 0.69145 0.0
O64 O 0.04591 0.85421 0.68434 0.0
O65 O 0.06469 0.82112 0.69363 0.0
O66 O 0.88734 0.44709 0.77258 0.0
Cd67 Cd 0.84923 0.43068 0.7143 0.0
O68 O 0.92352 0.45374 0.72804 0.0
Cd69 Cd 0.96377 0.44934 0.70484 0.0
O70 O 0.93721 0.39762 0.68133 0.0
C71 C 0.91478 0.37747 0.70261 0.0
O72 O 0.91078 0.38794 0.73938 0.0
C73 C 0.91602 0.45377 0.76518 0.0
C74 C 0.85086 0.48631 0.69048 0.0
O75 O 0.83244 0.47038 0.71863 0.0
O76 O 0.86827 0.47555 0.67309 0.0
O77 O 0.54211 0.44309 0.72218 0.0
Cd78 Cd 0.56663 0.43891 0.65758 0.0
O79 O 0.57769 0.44202 0.76333 0.0
Cd80 Cd 0.58859 0.41759 0.712 0.0
O81 O 0.54605 0.37046 0.68968 0.0
C82 C 0.52536 0.35626 0.71637 0.0
O83 O 0.53232 0.36956 0.75457 0.0
C84 C 0.55352 0.44596 0.75827 0.0
C85 C 0.62774 0.49561 0.65355 0.0
O86 O 0.60158 0.49595 0.64633 0.0
O87 O 0.62523 0.46838 0.66203 0.0
O88 O 0.54643 0.0767 0.73777 0.0
Cd89 Cd 0.56425 0.09293 0.66878 0.0
O90 O 0.50269 0.02956 0.71503 0.0
Cd91 Cd 0.5021 0.0476 0.65628 0.0
O92 O 0.47708 0.07404 0.64314 0.0
C93 C 0.48105 0.09548 0.67255 0.0
O94 O 0.5008 0.10043 0.70364 0.0
C95 C 0.52204 0.04891 0.7446 0.0
C96 C 0.62661 0.10224 0.65656 0.0
O97 O 0.62289 0.12689 0.66779 0.0
O98 O 0.60099 0.07341 0.65089 0.0
O99 O 0.81145 0.59032 0.94739 0.0
Cd100 Cd 0.80272 0.57037 0.01551 0.0
O101 O 0.81507 0.63778 0.96901 0.0
Cd102 Cd 0.78626 0.61724 0.02214 0.0
O103 O 0.73471 0.59265 0.03663 0.0
C104 C 0.71612 0.56958 0.0094 0.0
O105 O 0.72968 0.56198 0.97873 0.0
C106 C 0.81847 0.6194 0.94095 0.0
C107 C 0.84855 0.5513 0.0281 0.0
O108 O 0.82069 0.53116 0.01011 0.0
O109 O 0.85432 0.5802 0.04215 0.0
O110 O 0.43537 0.22658 0.96756 0.0
Cd111 Cd 0.46731 0.23142 0.02856 0.0
O112 O 0.46877 0.2208 0.92602 0.0
Cd113 Cd 0.50767 0.2473 0.97269 0.0
O114 O 0.51272 0.29435 0.9956 0.0
C115 C 0.50446 0.3075 0.9695 0.0
O116 O 0.49681 0.29342 0.93166 0.0
C117 C 0.44195 0.21989 0.93166 0.0
C118 C 0.46766 0.17228 0.02973 0.0
O119 O 0.44528 0.17598 0.04652 0.0
O120 O 0.49042 0.19693 0.01361 0.0
O121 O 0.78941 0.21552 0.94323 0.0
Cd122 Cd 0.77186 0.22356 0.01201 0.0
O123 O 0.8135 0.18937 0.96303 0.0
Cd124 Cd 0.81268 0.20715 0.02566 0.0
O125 O 0.83833 0.26097 0.03173 0.0
C126 C 0.8597 0.27525 0.00581 0.0
O127 O 0.86693 0.25723 0.97989 0.0
C128 C 0.80451 0.20006 0.93455 0.0
C129 C 0.70901 0.17288 0.02624 0.0
O130 O 0.71384 0.19881 0.01036 0.0
O131 O 0.73404 0.17103 0.03571 0.0
O132 O 0.56138 0.77378 0.09393 0.0
Cd133 Cd 0.53549 0.77022 0.02777 0.0
O134 O 0.61062 0.79706 0.07013 0.0
Cd135 Cd 0.59019 0.78394 0.00781 0.0
O136 O 0.56122 0.73078 0.99053 0.0
C137 C 0.56581 0.71391 0.01504 0.0
O138 O 0.58797 0.72973 0.0451 0.0
C139 C 0.59198 0.78664 0.09979 0.0
C140 C 0.52304 0.82158 0.02241 0.0
O141 O 0.49984 0.79261 0.02846 0.0
O142 O 0.55174 0.8262 0.01888 0.0
O143 O 0.21342 0.80154 0.04561 0.0
Cd144 Cd 0.23021 0.79036 0.97849 0.0
O145 O 0.2342 0.77404 0.0684 0.0
Cd146 Cd 0.2475 0.7418 0.09663 0.0
O147 O 0.21233 0.68877 0.08799 0.0
C148 C 0.1843 0.68486 0.08179 0.0
O149 O 0.18149 0.71115 0.08106 0.0
C150 C 0.2189 0.78952 0.07568 0.0
C151 C 0.29631 0.83451 0.97385 0.0
O152 O 0.27499 0.84135 0.96217 0.0
O153 O 0.2862 0.80609 0.98665 0.0
O154 O 0.2162 0.41604 0.08427 0.0
Cd155 Cd 0.23731 0.44034 0.01987 0.0
O156 O 0.17872 0.36944 0.05064 0.0
Cd157 Cd 0.18268 0.39531 0.99708 0.0
O158 O 0.15791 0.42283 0.98889 0.0
C159 C 0.13246 0.41103 0.00931 0.0
O160 O 0.12514 0.38517 0.02898 0.0
C161 C 0.19367 0.38589 0.08427 0.0
C162 C 0.29856 0.44812 0.00646 0.0
O163 O 0.29568 0.47269 0.02096 0.0
O164 O 0.27256 0.41992 0.99811 0.0
O165 O 0.48402 0.92567 0.28033 0.0
Cd166 Cd 0.4767 0.90726 0.34898 0.0
O167 O 0.48281 0.97128 0.29841 0.0
Cd168 Cd 0.45579 0.95294 0.35336 0.0
O169 O 0.40523 0.93193 0.3712 0.0
C170 C 0.38502 0.90475 0.35071 0.0
O171 O 0.39643 0.89086 0.32436 0.0
C172 C 0.48801 0.95326 0.2718 0.0
C173 C 0.52277 0.88844 0.36146 0.0
O174 O 0.49453 0.86787 0.3447 0.0
O175 O 0.52896 0.91779 0.37377 0.0
O176 O 0.06624 0.5314 0.30581 0.0
Cd177 Cd 0.10719 0.54796 0.36105 0.0
O178 O 0.11226 0.55467 0.27651 0.0
Cd179 Cd 0.15471 0.58143 0.24002 0.0
O180 O 0.17261 0.63362 0.25982 0.0
C181 C 0.16759 0.63814 0.29725 0.0
O182 O 0.15671 0.6132 0.31969 0.0
C183 C 0.08145 0.54135 0.27353 0.0
C184 C 0.13223 0.50597 0.35453 0.0
O185 O 0.11085 0.5026 0.38037 0.0
O186 O 0.14252 0.5297 0.33176 0.0
O187 O 0.44919 0.54698 0.27162 0.0
Cd188 Cd 0.43066 0.55305 0.33996 0.0
O189 O 0.47874 0.52771 0.29509 0.0
Cd190 Cd 0.4745 0.54431 0.35715 0.0
O191 O 0.50027 0.59692 0.37799 0.0
C192 C 0.50917 0.61641 0.34998 0.0
O193 O 0.50075 0.60363 0.31176 0.0
C194 C 0.46773 0.5351 0.26509 0.0
C195 C 0.37211 0.49607 0.35147 0.0
O196 O 0.37269 0.52213 0.34173 0.0
O197 O 0.39925 0.49724 0.35689 0.0
O198 O 0.53473 -0.0043 0.90457 0.0
Mg199 Mg 0.5535 0.99089 0.95893 0.0
O200 O 0.50483 0.01245 0.93901 0.0
Mg201 Mg 0.50335 -0.00072 0.00757 0.0
O202 O 0.51903 0.9593 0.99462 0.0
O203 O 0.55397 0.94842 0.96033 0.0
O204 O 0.50406 0.98372 0.07633 0.0
O205 O 0.45174 0.95455 0.98834 0.0
Mg206 Mg 0.46842 0.00387 0.0578 0.0
O207 O 0.48543 0.03996 0.01872 0.0
O208 O 0.49496 0.01873 0.11319 0.0
O209 O 0.42895 0.95464 0.04602 0.0
O210 O 0.4452 0.02893 0.06157 0.0
C211 C 0.58534 0.05258 0.01594 0.0
C212 C 0.51615 0.00751 0.90542 0.0
C213 C 0.53026 0.9396 0.98456 0.0
C214 C 0.50393 -0.00217 0.11146 0.0
C215 C 0.42774 0.94083 0.01084 0.0
C216 C 0.46488 0.04745 0.0359 0.0
O217 O 0.59093 0.03348 0.99223 0.0
O218 O 0.55625 0.04513 0.02368 0.0
O219 O 0.01248 0.52625 0.9119 0.0
Mg220 Mg 0.01977 0.55672 0.96557 0.0
O221 O 0.98801 0.48161 0.94521 0.0
Mg222 Mg 0.00414 0.49694 0.01545 0.0
O223 O 0.04564 0.55031 0.00883 0.0
O224 O 0.06495 0.59696 0.9783 0.0
O225 O 0.02547 0.51732 0.08526 0.0
O226 O 0.0414 0.47962 0.00559 0.0
Mg227 Mg 0.98838 0.46089 0.06728 0.0
O228 O 0.95924 0.43993 0.01614 0.0
O229 O 0.98077 0.48867 0.11536 0.0
O230 O 0.03183 0.45871 0.06474 0.0
O231 O 0.95323 0.41465 0.07338 0.0
C232 C 0.96012 0.5353 0.01492 0.0
C233 C 0.99532 0.49511 0.91169 0.0
C234 C 0.06876 0.58033 0.0047 0.0
C235 C 0.00993 0.51181 0.11797 0.0
C236 C 0.04792 0.4658 0.03268 0.0
C237 C 0.9441 0.414 0.03635 0.0
O238 O 0.97869 0.55608 0.99111 0.0
O239 O 0.96531 0.51297 0.02609 0.0
O240 O 0.51002 0.48702 0.10561 0.0
Mg241 Mg 0.47635 0.4562 0.05801 0.0
O242 O 0.49837 0.5171 0.07113 0.0
Mg243 Mg 0.50394 0.49735 0.00403 0.0
O244 O 0.49544 0.44308 0.0105 0.0
O245 O 0.46855 0.41045 0.06018 0.0
O246 O 0.50931 0.47532 0.93781 0.0
O247 O 0.55843 0.51764 0.02027 0.0
Mg248 Mg 0.52737 0.53229 0.94923 0.0
O249 O 0.51319 0.55221 0.99651 0.0
O250 O 0.49485 0.50141 0.89994 0.0
O251 O 0.57233 0.53329 0.95873 0.0
O252 O 0.53695 0.57767 0.94064 0.0
C253 C 0.42662 0.4639 0.0129 0.0
C254 C 0.50645 0.51164 0.10518 0.0
C255 C 0.4845 0.41547 0.02726 0.0
C256 C 0.50107 0.47866 0.90254 0.0
C257 C 0.57967 0.52827 0.99339 0.0
C258 C 0.52417 0.5776 0.97524 0.0
O259 O 0.43179 0.45472 0.04578 0.0
O260 O 0.44952 0.47809 0.98868 0.0
O261 O 0.16796 0.3019 0.23887 0.0
Mg262 Mg 0.19625 0.31207 0.2925 0.0
O263 O 0.17211 0.34563 0.27332 0.0
Mg264 Mg 0.16738 0.33238 0.34276 0.0
O265 O 0.17582 0.28635 0.34113 0.0
O266 O 0.20408 0.27443 0.29427 0.0
O267 O 0.16313 0.32082 0.41453 0.0
O268 O 0.11443 0.2904 0.32278 0.0
Mg269 Mg 0.1331 0.3452 0.38595 0.0
O270 O 0.15841 0.37866 0.34521 0.0
O271 O 0.15582 0.35997 0.44343 0.0
O272 O 0.09237 0.29659 0.37836 0.0
O273 O 0.11533 0.37474 0.37813 0.0
C274 C 0.24542 0.37702 0.33632 0.0
C275 C 0.16753 0.32837 0.23905 0.0
C276 C 0.18725 0.26782 0.32643 0.0
C277 C 0.16129 0.33687 0.44714 0.0
C278 C 0.09044 0.27943 0.34561 0.0
C279 C 0.13948 0.39032 0.35551 0.0
O280 O 0.24085 0.35724 0.30482 0.0
O281 O 0.22165 0.37228 0.35832 0.0
O282 O 0.68486 0.83439 0.2519 0.0
Mg283 Mg 0.68442 0.87119 0.29308 0.0
O284 O 0.64479 0.80764 0.29083 0.0
Mg285 Mg 0.67247 0.82914 0.35579 0.0
O286 O 0.71327 0.88191 0.34359 0.0
O287 O 0.72533 0.91709 0.29576 0.0
O288 O 0.70311 0.85435 0.4208 0.0
O289 O 0.70727 0.81003 0.33642 0.0
Mg290 Mg 0.6652 0.79784 0.40988 0.0
O291 O 0.62822 0.77402 0.36706 0.0
O292 O 0.66248 0.82872 0.45886 0.0
O293 O 0.7096 0.79815 0.3987 0.0
O294 O 0.63347 0.75192 0.42236 0.0
C295 C 0.62715 0.86043 0.34607 0.0
C296 C 0.65687 0.81017 0.2558 0.0
C297 C 0.73248 0.91019 0.32995 0.0
C298 C 0.69119 0.85181 0.45594 0.0
C299 C 0.7201 0.80146 0.36293 0.0
C300 C 0.61724 0.74945 0.3897 0.0
O301 O 0.63944 0.86771 0.31137 0.0
O302 O 0.63793 0.84887 0.37158 0.0
O303 O 0.17735 0.82375 0.43706 0.0
Mg304 Mg 0.14596 0.79125 0.388 0.0
O305 O 0.16391 0.85054 0.39891 0.0
Mg306 Mg 0.17263 0.83061 0.33357 0.0
O307 O 0.1656 0.77698 0.34178 0.0
O308 O 0.13833 0.74571 0.39215 0.0
O309 O 0.18038 0.80843 0.26639 0.0
O310 O 0.22644 0.85203 0.35524 0.0
Mg311 Mg 0.19682 0.8634 0.28453 0.0
O312 O 0.18115 0.88576 0.32593 0.0
O313 O 0.16516 0.83621 0.23339 0.0
O314 O 0.2418 0.86411 0.29342 0.0
O315 O 0.21168 0.90965 0.27329 0.0
C316 C 0.09498 0.79539 0.34015 0.0
C317 C 0.17233 0.84725 0.43406 0.0
C318 C 0.15449 0.74977 0.35952 0.0
C319 C 0.17223 0.81387 0.23227 0.0
C320 C 0.24849 0.8613 0.32951 0.0
C321 C 0.19569 0.91089 0.30429 0.0
O322 O 0.10071 0.78764 0.37382 0.0
O323 O 0.11781 0.80955 0.31568 0.0
O324 O 0.83175 0.63927 0.5752 0.0
Mg325 Mg 0.8611 0.65368 0.62834 0.0
O326 O 0.83416 0.68222 0.60871 0.0
Mg327 Mg 0.83202 0.66559 0.67786 0.0
O328 O 0.84403 0.62066 0.67023 0.0
O329 O 0.87856 0.62325 0.62208 0.0
O330 O 0.83033 0.64979 0.74642 0.0
O331 O 0.77839 0.62375 0.66124 0.0
Mg332 Mg 0.79985 0.67929 0.73036 0.0
O333 O 0.82044 0.71006 0.68558 0.0
O334 O 0.82803 0.68912 0.78378 0.0
O335 O 0.75625 0.6332 0.71561 0.0
O336 O 0.78825 0.71449 0.73313 0.0
C337 C 0.90847 0.71657 0.67204 0.0
C338 C 0.83016 0.66498 0.57449 0.0
C339 C 0.86024 0.60849 0.65103 0.0
C340 C 0.83339 0.66554 0.78151 0.0
C341 C 0.75368 0.61556 0.68275 0.0
C342 C 0.80629 0.72536 0.7025 0.0
O343 O 0.90446 0.70031 0.63769 0.0
O344 O 0.88511 0.70713 0.69585 0.0
O345 O 0.35232 0.16828 0.58808 0.0
Mg346 Mg 0.34939 0.20167 0.63285 0.0
O347 O 0.3108 0.14153 0.62437 0.0
Mg348 Mg 0.33837 0.1634 0.68902 0.0
O349 O 0.3824 0.21807 0.68017 0.0
O350 O 0.38645 0.24772 0.62791 0.0
O351 O 0.36628 0.18672 0.75385 0.0
O352 O 0.37344 0.14482 0.67033 0.0
Mg353 Mg 0.33033 0.12915 0.74369 0.0
O354 O 0.29523 0.10787 0.69753 0.0
O355 O 0.3272 0.15895 0.79352 0.0
O356 O 0.37632 0.13297 0.73271 0.0
O357 O 0.29913 0.08139 0.74933 0.0
C358 C 0.29279 0.19406 0.68134 0.0
C359 C 0.32412 0.14412 0.59034 0.0
C360 C 0.39813 0.24491 0.66167 0.0
C361 C 0.35525 0.18313 0.78951 0.0
C362 C 0.38682 0.13695 0.69697 0.0
C363 C 0.28467 0.0812 0.71619 0.0
O364 O 0.30541 0.20148 0.64699 0.0
O365 O 0.30302 0.18172 0.70622 0.0
O366 O 0.82014 0.13383 0.77478 0.0
Mg367 Mg 0.79604 0.1011 0.72295 0.0
O368 O 0.83146 0.17541 0.73843 0.0
Mg369 Mg 0.8367 0.15918 0.66966 0.0
O370 O 0.82687 0.1068 0.67827 0.0
O371 O 0.8024 0.06136 0.71135 0.0
O372 O 0.84155 0.13818 0.59982 0.0
O373 O 0.89061 0.1776 0.68762 0.0
Mg374 Mg 0.86029 0.19258 0.62136 0.0
O375 O 0.84806 0.21606 0.66566 0.0
O376 O 0.82763 0.16858 0.57038 0.0
O377 O 0.90399 0.19025 0.62552 0.0
O378 O 0.87774 0.23957 0.6123 0.0
C379 C 0.75489 0.11818 0.66973 0.0
C380 C 0.82852 0.16379 0.77292 0.0
C381 C 0.82128 0.07734 0.68322 0.0
C382 C 0.83398 0.1457 0.56682 0.0
C383 C 0.9115 0.18606 0.66044 0.0
C384 C 0.86342 0.24155 0.64469 0.0
O385 O 0.75521 0.10042 0.69652 0.0
O386 O 0.7813 0.14011 0.65529 0.0
C387 C 0.3405 0.89322 0.97205 0.0
C388 C 0.33134 0.86013 0.97638 0.0
C389 C 0.37249 0.91907 0.9811 0.0
C390 C 0.39654 0.91274 0.99416 0.0
H391 H 0.32255 0.89955 0.96369 0.0
H392 H 0.37817 0.94437 0.97957 0.0
S393 S 0.38686 0.83066 0.00502 0.0
N394 N 0.35007 0.82233 0.99076 0.0
N395 N 0.41045 0.87141 0.00748 0.0
C396 C 0.38853 0.87986 0.99606 0.0
C397 C 0.35581 0.85337 0.98713 0.0
C398 C 0.0809 0.40798 0.02938 0.0
C399 C 0.11148 0.42588 0.01254 0.0
C400 C 0.06083 0.42138 0.03559 0.0
C401 C 0.07025 0.45315 0.02488 0.0
H402 H 0.0723 0.38333 0.0382 0.0
H403 H 0.03752 0.40653 0.0487 0.0
S404 S 0.14789 0.51083 0.98046 0.0
N405 N 0.15046 0.47758 0.98571 0.0
N406 N 0.11199 0.50249 0.99682 0.0
C407 C 0.10041 0.47132 0.0074 0.0
C408 C 0.12122 0.45776 0.00138 0.0
C409 C 0.55584 0.65989 0.03586 0.0
C410 C 0.54875 0.67726 0.00869 0.0
C411 C 0.54435 0.62593 0.02734 0.0
C412 C 0.52554 0.60838 0.99135 0.0
H413 H 0.57185 0.67288 0.06282 0.0
H414 H 0.55254 0.6141 0.04718 0.0
S415 S 0.49464 0.64018 0.91457 0.0
N416 N 0.51733 0.6728 0.94766 0.0
N417 N 0.49633 0.60904 0.93149 0.0
C418 C 0.51576 0.62456 0.966 0.0
C419 C 0.52721 0.65904 0.97471 0.0
C420 C 0.90728 0.32779 0.98643 0.0
C421 C 0.87774 0.31177 0.00629 0.0
C422 C 0.92738 0.3624 0.99186 0.0
C423 C 0.91841 0.38193 0.017 0.0
H424 H 0.91602 0.3135 0.9688 0.0
H425 H 0.95129 0.37358 0.97937 0.0
S426 S 0.84104 0.35302 0.06892 0.0
N427 N 0.8384 0.31875 0.04671 0.0
N428 N 0.87666 0.38373 0.05732 0.0
C429 C 0.88776 0.3666 0.03375 0.0
C430 C 0.86726 0.33147 0.02828 0.0
C431 C 0.66571 0.56629 0.03852 0.0
C432 C 0.68014 0.55483 0.0088 0.0
C433 C 0.63246 0.55606 0.03497 0.0
C434 C 0.61274 0.53439 0.00133 0.0
H435 H 0.6804 0.58426 0.06387 0.0
H436 H 0.62258 0.56651 0.05741 0.0
S437 S 0.63673 0.49323 0.91868 0.0
N438 N 0.67047 0.51719 0.94732 0.0
N439 N 0.60858 0.49902 0.94046 0.0
C440 C 0.62622 0.52127 0.9729 0.0
C441 C 0.65977 0.53118 0.97671 0.0
C442 C 0.44424 0.11549 0.05155 0.0
C443 C 0.46704 0.14038 0.02892 0.0
C444 C 0.44325 0.08535 0.05214 0.0
C445 C 0.46509 0.07859 0.03022 0.0
H446 H 0.42717 0.11938 0.06953 0.0
H447 H 0.42541 0.06747 0.07083 0.0
S448 S 0.52798 0.13473 0.96364 0.0
N449 N 0.51089 0.15578 0.98206 0.0
N450 N 0.50917 0.09894 0.98348 0.0
C451 C 0.48748 0.1029 0.00649 0.0
C452 C 0.48845 0.1338 0.00585 0.0
C453 C 0.67123 0.11716 0.04976 0.0
C454 C 0.67558 0.14481 0.03096 0.0
C455 C 0.64074 0.08801 0.04846 0.0
C456 C 0.61336 0.08563 0.02906 0.0
H457 H 0.69185 0.1173 0.06367 0.0
H458 H 0.63897 0.0665 0.06056 0.0
S459 S 0.61072 0.15131 0.97799 0.0
N460 N 0.64902 0.16838 0.99463 0.0
N461 N 0.59177 0.11357 0.99274 0.0
C462 C 0.6167 0.11369 0.01278 0.0
C463 C 0.64781 0.14332 0.01363 0.0
C464 C 0.90084 0.55953 0.05802 0.0
C465 C 0.87444 0.54273 0.02887 0.0
C466 C 0.92791 0.55525 0.05536 0.0
C467 C 0.92932 0.53402 0.02355 0.0
H468 H 0.9011 0.57697 0.08217 0.0
H469 H 0.94844 0.56974 0.07712 0.0
S470 S 0.86723 0.48459 0.93955 0.0
N471 N 0.85168 0.50372 0.9675 0.0
N472 N 0.90255 0.49603 0.96271 0.0
C473 C 0.9028 0.5163 0.99518 0.0
C474 C 0.87528 0.52049 0.99784 0.0
C475 C 0.50799 0.35015 0.02349 0.0
C476 C 0.50096 0.33649 0.98232 0.0
C477 C 0.50308 0.37617 0.03734 0.0
C478 C 0.49152 0.38992 0.01049 0.0
H479 H 0.51682 0.34033 0.04551 0.0
H480 H 0.50825 0.38555 0.06947 0.0
S481 S 0.46811 0.36284 0.90035 0.0
N482 N 0.48069 0.3383 0.91498 0.0
N483 N 0.47235 0.388 0.94141 0.0
C484 C 0.48469 0.37702 0.96926 0.0
C485 C 0.48917 0.35006 0.95509 0.0
C486 C 0.15618 0.62936 0.04122 0.0
C487 C 0.15532 0.65214 0.07129 0.0
C488 C 0.12718 0.60289 0.02217 0.0
C489 C 0.09688 0.59832 0.03354 0.0
H490 H 0.17919 0.63376 0.02971 0.0
H491 H 0.12854 0.58767 0.99631 0.0
S492 S 0.08191 0.64861 0.11424 0.0
N493 N 0.12192 0.66651 0.11429 0.0
N494 N 0.06761 0.61664 0.07879 0.0
C495 C 0.09584 0.61929 0.06581 0.0
C496 C 0.1251 0.64628 0.08472 0.0
C497 C 0.33528 0.42507 0.00992 0.0
C498 C 0.331 0.45162 0.00235 0.0
C499 C 0.36635 0.42893 0.01159 0.0
C500 C 0.39411 0.45909 0.00445 0.0
H501 H 0.31468 0.40164 0.01664 0.0
H502 H 0.36878 0.40838 0.01952 0.0
S503 S 0.39576 0.53514 0.97931 0.0
N504 N 0.35692 0.50851 0.98524 0.0
N505 N 0.41529 0.51528 0.98693 0.0
C506 C 0.39004 0.48522 0.99446 0.0
C507 C 0.35847 0.4816 0.99383 0.0
C508 C 0.53342 0.87811 0.04506 0.0
C509 C 0.51712 0.84896 0.01806 0.0
C510 C 0.53361 0.90697 0.03688 0.0
C511 C 0.51802 0.90764 0.00107 0.0
H512 H 0.54759 0.87911 0.07144 0.0
H513 H 0.54853 0.92966 0.05668 0.0
S514 S 0.47076 0.83731 0.92174 0.0
N515 N 0.48328 0.82175 0.95569 0.0
N516 N 0.48463 0.8764 0.93952 0.0
C517 C 0.50007 0.8781 0.97514 0.0
C518 C 0.4994 0.84858 0.98383 0.0
C519 C 0.01279 0.19992 0.36045 0.0
C520 C -0.00057 0.18741 0.3204 0.0
C521 C 0.04276 0.22925 0.36793 0.0
C522 C 0.06084 0.2467 0.3356 0.0
H523 H -0.0009 0.18811 0.38638 0.0
H524 H 0.05146 0.23875 0.39946 0.0
S525 S 0.0389 0.22069 0.22475 0.0
N526 N 0.00769 0.19226 0.24774 0.0
N527 N 0.0651 0.24695 0.26171 0.0
C528 C 0.049 0.23292 0.29518 0.0
C529 C 0.01793 0.20338 0.2876 0.0
C530 C 0.79187 0.79029 0.37963 0.0
C531 C 0.79407 0.77512 0.34179 0.0
C532 C 0.76863 0.7997 0.38525 0.0
C533 C 0.74682 0.79502 0.35328 0.0
H534 H 0.80735 0.79381 0.40594 0.0
H535 H 0.76725 0.81002 0.4154 0.0
S536 S 0.74454 0.76002 0.24661 0.0
N537 N 0.77389 0.75815 0.27051 0.0
N538 N 0.73045 0.77678 0.28116 0.0
C539 C 0.74991 0.78187 0.31441 0.0
C540 C 0.77344 0.77167 0.30869 0.0
C541 C 0.2061 0.99429 0.29147 0.0
C542 C 0.20669 0.00727 0.33186 0.0
C543 C 0.20035 0.96215 0.28287 0.0
C544 C 0.19496 0.94168 0.31425 0.0
H545 H 0.2116 0.00953 0.26641 0.0
H546 H 0.20151 0.95379 0.25138 0.0
S547 S 0.18967 0.96216 0.4246 0.0
N548 N 0.19786 -0.00412 0.40331 0.0
N549 N 0.18727 0.93526 0.38673 0.0
C550 C 0.19292 0.95326 0.35439 0.0
C551 C 0.19876 0.98617 0.36329 0.0
C552 C 0.54551 0.66434 0.40005 0.0
C553 C 0.53292 0.65219 0.35962 0.0
C554 C 0.57173 0.69645 0.40939 0.0
C555 C 0.58648 0.7179 0.37879 0.0
H556 H 0.53602 0.64853 0.42462 0.0
H557 H 0.58118 0.70408 0.4409 0.0
S558 S 0.55978 0.69993 0.26884 0.0
N559 N 0.53481 0.66541 0.28911 0.0
N560 N 0.58449 0.72602 0.30698 0.0
C561 C 0.57275 0.70705 0.33863 0.0
C562 C 0.54588 0.67411 0.32898 0.0
C563 C 0.3284 0.86361 0.32369 0.0
C564 C 0.3493 0.89132 0.35131 0.0
C565 C 0.29538 0.85315 0.31825 0.0
C566 C 0.28171 0.8694 0.34092 0.0
H567 H 0.33781 0.85065 0.30461 0.0
H568 H 0.28058 0.83273 0.29526 0.0
S569 S 0.32437 0.94115 0.4198 0.0
N570 N 0.35297 0.93357 0.40352 0.0
N571 N 0.29047 0.91302 0.39381 0.0
C572 C 0.30153 0.89576 0.37045 0.0
C573 C 0.33545 0.90692 0.37556 0.0
C574 C 0.15344 0.47457 0.38617 0.0
C575 C 0.1434 0.48201 0.35062 0.0
C576 C 0.15628 0.44642 0.38577 0.0
C577 C 0.14857 0.42449 0.35 0.0
H578 H 0.15713 0.48944 0.41505 0.0
H579 H 0.16175 0.44018 0.41454 0.0
S580 S 0.12463 0.43498 0.2479 0.0
N581 N 0.12916 0.46749 0.27766 0.0
N582 N 0.13343 0.41357 0.27736 0.0
C583 C 0.14109 0.43303 0.31347 0.0
C584 C 0.13874 0.46215 0.31369 0.0
C585 C 0.31316 0.46544 0.36655 0.0
C586 C 0.34087 0.46484 0.35302 0.0
C587 C 0.28241 0.43643 0.3635 0.0
C588 C 0.27833 0.40612 0.34577 0.0
H589 H 0.31516 0.48862 0.37876 0.0
H590 H 0.26152 0.43811 0.37311 0.0
S591 S 0.34356 0.39113 0.30786 0.0
N592 N 0.3626 0.43114 0.32358 0.0
N593 N 0.30489 0.37686 0.31694 0.0
C594 C 0.30611 0.40503 0.33363 0.0
C595 C 0.33739 0.43435 0.33749 0.0
C596 C 0.54465 0.85207 0.33664 0.0
C597 C 0.54827 0.87928 0.36287 0.0
C598 C 0.56997 0.84529 0.33275 0.0
C599 C 0.59947 0.86489 0.35572 0.0
H600 H 0.52267 0.83676 0.31742 0.0
H601 H 0.56679 0.82512 0.31074 0.0
S602 S 0.62083 0.93718 0.43104 0.0
N603 N 0.58352 0.92494 0.41379 0.0
N604 N 0.63072 0.91134 0.40699 0.0
C605 C 0.60302 0.89105 0.38353 0.0
C606 C 0.57748 0.89845 0.38702 0.0
C607 C 0.13829 0.66276 0.33357 0.0
C608 C 0.16574 0.66748 0.31253 0.0
C609 C 0.13488 0.68963 0.34799 0.0
C610 C 0.15886 0.72231 0.34211 0.0
H611 H 0.11901 0.638 0.33848 0.0
H612 H 0.11312 0.68467 0.36378 0.0
S613 S 0.23755 0.74811 0.29434 0.0
N614 N 0.21852 0.70713 0.28932 0.0
N615 N 0.21234 0.75811 0.31708 0.0
C616 C 0.18677 0.72749 0.32179 0.0
C617 C 0.19016 0.69993 0.30684 0.0
C618 C 0.7826 0.97959 0.41174 0.0
C619 C 0.81463 0.9906 0.40016 0.0
C620 C 0.75606 0.95238 0.38976 0.0
C621 C 0.76074 0.93584 0.35508 0.0
H622 H 0.77797 0.99235 0.43766 0.0
H623 H 0.73168 0.94495 0.39907 0.0
S624 S 0.83913 0.95486 0.31136 0.0
N625 N 0.84934 0.9825 0.35171 0.0
N626 N 0.79903 0.93186 0.30975 0.0
C627 C 0.7924 0.94631 0.34316 0.0
C628 C 0.81953 0.97358 0.36597 0.0
C629 C 0.00324 0.75272 0.33805 0.0
C630 C 0.99725 0.77831 0.33113 0.0
C631 C 0.03494 0.75808 0.3388 0.0
C632 C 0.06177 0.78887 0.33141 0.0
H633 H 0.98348 0.72878 0.34479 0.0
H634 H 0.03861 0.73819 0.34634 0.0
S635 S 0.05922 0.86321 0.30845 0.0
N636 N 0.02085 0.83523 0.3147 0.0
N637 N 0.08032 0.84479 0.31494 0.0
C638 C 0.05608 0.81414 0.32232 0.0
C639 C 0.02384 0.80899 0.32251 0.0
C640 C 0.16356 0.18015 0.33471 0.0
C641 C 0.18883 0.18446 0.36105 0.0
C642 C 0.16061 0.20732 0.3269 0.0
C643 C 0.18224 0.23916 0.34617 0.0
H644 H 0.14784 0.15635 0.3174 0.0
H645 H 0.14302 0.20392 0.30334 0.0
S646 S 0.2486 0.26202 0.42305 0.0
N647 N 0.23323 0.2219 0.41008 0.0
N648 N 0.22691 0.27282 0.39618 0.0
C649 C 0.20542 0.24306 0.37554 0.0
C650 C 0.20894 0.21565 0.38281 0.0
C651 C 0.66265 0.55591 0.67508 0.0
C652 C 0.65972 0.52652 0.65597 0.0
C653 C 0.69315 0.58476 0.6826 0.0
C654 C 0.72181 0.58557 0.67036 0.0
H655 H 0.64136 0.55625 0.68597 0.0
H656 H 0.6943 0.6065 0.69874 0.0
S657 S 0.72669 0.51601 0.61489 0.0
N658 N 0.68754 0.5003 0.62244 0.0
N659 N 0.74497 0.55502 0.63523 0.0
C660 C 0.71902 0.55683 0.64909 0.0
C661 C 0.68794 0.52714 0.64233 0.0
C662 C 0.43379 0.09952 0.64669 0.0
C663 C 0.46026 0.11065 0.67512 0.0
C664 C 0.41093 0.10979 0.65238 0.0
C665 C 0.4137 0.13121 0.68687 0.0
H666 H 0.42982 0.08164 0.62085 0.0
H667 H 0.39006 0.09947 0.63099 0.0
S668 S 0.48066 0.17149 0.7668 0.0
N669 N 0.48971 0.14768 0.73632 0.0
N670 N 0.44629 0.16603 0.74719 0.0
C671 C 0.44091 0.14404 0.71403 0.0
C672 C 0.46435 0.13404 0.70808 0.0
C673 C 0.88267 0.31776 0.71483 0.0
C674 C 0.89501 0.34218 0.68728 0.0
C675 C 0.86926 0.28413 0.70074 0.0
C676 C 0.86762 0.27418 0.65874 0.0
H677 H 0.88546 0.3248 0.74755 0.0
H678 H 0.86254 0.26631 0.72296 0.0
S679 S 0.88783 0.32769 0.57396 0.0
N680 N 0.89862 0.35357 0.6161 0.0
N681 N 0.87286 0.29048 0.58948 0.0
C682 C 0.87608 0.29801 0.63082 0.0
C683 C 0.89002 0.33208 0.64514 0.0
C684 C 0.20024 0.00751 0.69557 0.0
C685 C 0.20706 0.98212 0.68457 0.0
C686 C 0.22552 0.04071 0.70269 0.0
C687 C 0.25801 0.04916 0.69816 0.0
H688 H 0.17552 0.00148 0.70102 0.0
H689 H 0.21984 0.05947 0.71409 0.0
S690 S 0.28771 0.99263 0.6621 0.0
N691 N 0.24795 0.96815 0.66401 0.0
N692 N 0.29533 0.0305 0.67704 0.0
C693 C 0.26474 0.02433 0.68392 0.0
C694 C 0.23923 0.99072 0.67715 0.0
C695 C 0.99654 0.22402 0.70875 0.0
C696 C 0.01229 0.21467 0.67858 0.0
C697 C 0.96315 0.21291 0.7042 0.0
C698 C 0.9446 0.19244 0.66915 0.0
H699 H 0.01033 0.24123 0.7351 0.0
H700 H 0.95228 0.22195 0.72701 0.0
S701 S 0.9723 0.15604 0.58514 0.0
N702 N 0.00517 0.17972 0.61537 0.0
N703 N 0.94294 0.15986 0.60667 0.0
C704 C 0.95938 0.18111 0.64037 0.0
C705 C 0.9931 0.19193 0.64515 0.0
C706 C 0.77386 0.7749 0.66432 0.0
C707 C 0.79414 0.80611 0.68611 0.0
C708 C 0.78097 0.74949 0.66437 0.0
C709 C 0.80842 0.7544 0.68645 0.0
H710 H 0.75116 0.76935 0.64946 0.0
H711 H 0.76314 0.72492 0.65057 0.0
S712 S 0.8718 0.83286 0.74322 0.0
N713 N 0.84515 0.84192 0.72564 0.0
N714 N 0.85796 0.79354 0.72664 0.0
C715 C 0.83057 0.78634 0.70493 0.0
C716 C 0.82357 0.81245 0.70449 0.0
C717 C 0.98032 0.80338 0.6911 0.0
C718 C 0.00654 0.79767 0.69379 0.0
C719 C 0.94802 0.77697 0.68688 0.0
C720 C 0.94105 0.74413 0.68506 0.0
H721 H 0.98477 0.82833 0.69055 0.0
H722 H 0.9286 0.78218 0.6828 0.0
S723 S -0.00036 0.7155 0.69618 0.0
N724 N 0.02248 0.7563 0.69876 0.0
N725 N 0.96174 0.70695 0.6901 0.0
C726 C 0.96657 0.73804 0.69023 0.0
C727 C -0.00062 0.76477 0.69489 0.0
C728 C 0.24954 0.24094 0.70803 0.0
C729 C 0.21668 0.21681 0.69801 0.0
C730 C 0.27406 0.23293 0.70469 0.0
C731 C 0.26651 0.20046 0.69194 0.0
H732 H 0.25667 0.26658 0.71671 0.0
H733 H 0.2992 0.25251 0.71064 0.0
S734 S 0.18463 0.12737 0.66606 0.0
N735 N 0.17798 0.15831 0.67766 0.0
N736 N 0.22438 0.14358 0.67179 0.0
C737 C 0.23387 0.17571 0.68404 0.0
C738 C 0.20883 0.18379 0.68708 0.0
C739 C 0.8171 0.01971 0.59472 0.0
C740 C 0.83472 0.0062 0.61048 0.0
C741 C 0.81612 0.04617 0.61656 0.0
C742 C 0.83251 0.05975 0.65498 0.0
H743 H 0.80229 0.00848 0.5665 0.0
H744 H 0.80017 0.05405 0.605 0.0
S745 S 0.88534 0.03668 0.70778 0.0
N746 N 0.87196 0.01123 0.66511 0.0
N747 N 0.8692 0.06044 0.70639 0.0
C748 C 0.85215 0.04834 0.66973 0.0
C749 C 0.85357 0.0217 0.64734 0.0
C750 C 0.48547 0.31422 0.66256 0.0
C751 C 0.49309 0.32667 0.70411 0.0
C752 C 0.45472 0.28756 0.64946 0.0
C753 C 0.43049 0.27191 0.6774 0.0
H754 H 0.50321 0.32543 0.63969 0.0
H755 H 0.44987 0.27907 0.61707 0.0
S756 S 0.43717 0.29496 0.78932 0.0
N757 N 0.4732 0.32143 0.77322 0.0
N758 N 0.41552 0.27067 0.74819 0.0
C759 C 0.43762 0.2836 0.71904 0.0
C760 C 0.46889 0.31117 0.73249 0.0
C761 C 0.66355 0.07925 0.65828 0.0
C762 C 0.65951 0.10635 0.65334 0.0
C763 C 0.69456 0.08307 0.66099 0.0
C764 C 0.72289 0.11402 0.65819 0.0
H765 H 0.6427 0.05514 0.66215 0.0
H766 H 0.69638 0.06173 0.66682 0.0
S767 S 0.72551 0.19187 0.63934 0.0
N768 N 0.68636 0.16461 0.64168 0.0
N769 N 0.74476 0.17162 0.64614 0.0
C770 C 0.71919 0.14085 0.65029 0.0
C771 C 0.68749 0.13708 0.64816 0.0
C772 C 0.84456 0.53547 0.7079 0.0
C773 C 0.85253 0.51679 0.67932 0.0
C774 C 0.84679 0.56504 0.69861 0.0
C775 C 0.85705 0.57687 0.66039 0.0
H776 H 0.83707 0.5275 0.73799 0.0
H777 H 0.84095 0.57893 0.72171 0.0
S778 S 0.87746 0.53527 0.57332 0.0
N779 N 0.86908 0.51108 0.6104 0.0
N780 N 0.87294 0.56627 0.59255 0.0
C781 C 0.86427 0.5579 0.63112 0.0
C782 C 0.86214 0.52796 0.64068 0.0
C783 C 0.51404 -0.00225 0.22494 0.0
C784 C 0.49689 0.96379 0.23021 0.0
C785 C 0.51896 0.00854 0.18579 0.0
C786 C 0.50684 0.98582 0.15036 0.0
H787 H 0.52275 0.01619 0.25129 0.0
H788 H 0.53082 0.03495 0.18326 0.0
S789 S 0.46068 0.89419 0.14732 0.0
N790 N 0.46855 0.90739 0.1966 0.0
N791 N 0.47765 0.92785 0.12293 0.0
C792 C 0.49108 0.9518 0.15502 0.0
C793 C 0.48608 0.94074 0.19501 0.0
C794 C 0.0303 0.51233 0.22942 0.0
C795 C 0.06327 0.53729 0.23477 0.0
C796 C 0.01271 0.50588 0.19238 0.0
C797 C 0.02742 0.52385 0.15879 0.0
H798 H 0.01814 0.49677 0.25361 0.0
H799 H 0.98778 0.48544 0.18958 0.0
S800 S 0.11157 0.59539 0.15922 0.0
N801 N 0.10832 0.58342 0.20551 0.0
N802 N 0.07613 0.56976 0.13472 0.0
C803 C 0.05987 0.55 0.16439 0.0
C804 C 0.07757 0.55706 0.2026 0.0
C805 C 0.50539 0.52732 0.21898 0.0
C806 C 0.47897 0.53255 0.22356 0.0
C807 C 0.51618 0.52376 0.18033 0.0
C808 C 0.50101 0.52522 0.14463 0.0
H809 H 0.51754 0.52525 0.24539 0.0
H810 H 0.53559 0.51818 0.17825 0.0
S811 S 0.4325 0.54098 0.13968 0.0
N812 N 0.43925 0.54124 0.18905 0.0
N813 N 0.45958 0.53434 0.11616 0.0
C814 C 0.47582 0.53235 0.14869 0.0
C815 C 0.4647 0.53592 0.18821 0.0
C816 C 0.92545 0.44384 0.83576 0.0
C817 C 0.9385 0.45839 0.79947 0.0
C818 C 0.94504 0.45258 0.87167 0.0
C819 C 0.97836 0.47627 0.87243 0.0
H820 H 0.89952 0.42699 0.83714 0.0
H821 H 0.93343 0.44309 0.89971 0.0
S822 S 0.02569 0.51736 0.78443 0.0
N823 N 0.98768 0.4951 0.76585 0.0
N824 N 0.02465 0.50992 0.83274 0.0
C825 C 0.99234 0.48812 0.83538 0.0
C826 C 0.97236 0.4797 0.79899 0.0
C827 C 0.54577 0.44791 0.83367 0.0
C828 C 0.53767 0.45199 0.79428 0.0
C829 C 0.53175 0.45404 0.86838 0.0
C830 C 0.50934 0.46489 0.86518 0.0
H831 H 0.56348 0.44038 0.83795 0.0
H832 H 0.53983 0.45179 0.89809 0.0
S833 S 0.47763 0.47661 0.76894 0.0
N834 N 0.5039 0.4653 0.75393 0.0
N835 N 0.4778 0.47706 0.81926 0.0
C836 C 0.49988 0.46761 0.82587 0.0
C837 C 0.51401 0.46119 0.79044 0.0
C838 C 0.50115 0.00485 0.79252 0.0
C839 C 0.51652 0.0387 0.78667 0.0
C840 C 0.49872 -0.00533 0.83185 0.0
C841 C 0.51054 0.01784 0.86678 0.0
H842 H 0.49252 0.98616 0.76645 0.0
H843 H 0.48887 0.96856 0.83486 0.0
S844 S 0.55005 0.10901 0.86852 0.0
N845 N 0.54185 0.09525 0.81943 0.0
N846 N 0.53645 0.0758 0.89344 0.0
C847 C 0.52407 0.05153 0.86165 0.0
C848 C 0.52728 0.06203 0.82154 0.0
C849 C 0.17343 0.30051 0.54041 0.0
C850 C 0.15236 0.30364 0.56835 0.0
C851 C 0.17632 0.31098 0.5009 0.0
C852 C 0.15834 0.32503 0.48818 0.0
H853 H 0.18788 0.29004 0.54918 0.0
H854 H 0.19296 0.30845 0.48045 0.0
S855 S 0.09663 0.33466 0.54752 0.0
N856 N 0.11124 0.31924 0.57878 0.0
N857 N 0.11657 0.33869 0.50533 0.0
C858 C 0.13658 0.32741 0.51547 0.0
C859 C 0.13365 0.31683 0.55534 0.0
C860 C 0.71577 0.88374 0.56704 0.0
C861 C 0.74086 0.87708 0.57407 0.0
C862 C 0.70151 0.87825 0.52765 0.0
C863 C 0.71215 0.86639 0.49383 0.0
H864 H 0.70611 0.89189 0.59245 0.0
H865 H 0.68093 0.88172 0.52394 0.0
S866 S 0.77599 0.84372 0.49618 0.0
N867 N 0.77474 0.85671 0.54414 0.0
N868 N 0.74919 0.84808 0.46991 0.0
C869 C 0.73813 0.86099 0.50015 0.0
C870 C 0.75218 0.86591 0.54036 0.0
C871 C 0.12195 0.84404 0.52294 0.0
C872 C 0.14539 0.86813 0.55188 0.0
C873 C 0.13052 0.8395 0.48305 0.0
C874 C 0.16259 0.85913 0.47106 0.0
H875 H 0.09754 0.82728 0.53188 0.0
H876 H 0.1125 0.81909 0.46226 0.0
S877 S 0.23108 0.9293 0.5337 0.0
N878 N 0.20065 0.91454 0.56482 0.0
N879 N 0.21669 0.90594 0.48952 0.0
C880 C 0.18551 0.88491 0.49879 0.0
C881 C 0.17687 0.88944 0.53942 0.0
C882 C 0.5933 0.79476 0.17611 0.0
C883 C 0.60572 0.78755 0.14032 0.0
C884 C 0.60814 0.79877 0.21466 0.0
C885 C 0.63564 0.79538 0.21844 0.0
H886 H 0.57315 0.7991 0.17414 0.0
H887 H 0.59953 0.80694 0.24122 0.0
S888 S 0.6729 0.76948 0.13513 0.0
N889 N 0.64381 0.77207 0.11171 0.0
N890 N 0.67165 0.77972 0.18429 0.0
C891 C 0.64647 0.78542 0.18331 0.0
C892 C 0.63154 0.78151 0.14414 0.0
C893 C 0.19219 0.81342 0.12068 0.0
C894 C 0.20567 0.79278 0.1162 0.0
C895 C 0.1797 0.81825 0.15749 0.0
C896 C 0.1801 0.80284 0.19215 0.0
H897 H 0.19172 0.82672 0.09566 0.0
H898 H 0.1707 0.83532 0.15897 0.0
S899 S 0.20873 0.74319 0.19617 0.0
N900 N 0.21635 0.75494 0.14966 0.0
N901 N 0.19227 0.76362 0.21874 0.0
C902 C 0.19212 0.78103 0.18799 0.0
C903 C 0.20514 0.77622 0.15023 0.0
C904 C 0.19348 0.39059 0.16091 0.0
C905 C 0.18438 0.37042 0.12331 0.0
C906 C 0.18594 0.37676 0.19835 0.0
C907 C 0.1694 0.34221 0.19967 0.0
H908 H 0.20691 0.41736 0.16153 0.0
H909 H 0.19447 0.39335 0.22643 0.0
S910 S 0.13778 0.27829 0.11011 0.0
N911 N 0.15594 0.31393 0.08989 0.0
N912 N 0.1421 0.28803 0.16018 0.0
C913 C 0.15897 0.32171 0.16235 0.0
C914 C 0.16639 0.33577 0.12422 0.0
C915 C 0.81304 0.60819 0.86444 0.0
C916 C 0.82761 0.63075 0.89975 0.0
C917 C 0.81726 0.61923 0.82525 0.0
C918 C 0.83629 0.65316 0.82019 0.0
H919 H 0.79668 0.58208 0.86727 0.0
H920 H 0.80374 0.6014 0.79924 0.0
S921 S 0.88475 0.72126 0.9018 0.0
N922 N 0.86542 0.68783 0.92638 0.0
N923 N 0.87341 0.70854 0.85292 0.0
C924 C 0.85303 0.67552 0.85488 0.0
C925 C 0.84865 0.66434 0.89464 0.0
C926 C 0.43036 0.21172 0.85628 0.0
C927 C 0.41976 0.21318 0.89604 0.0
C928 C 0.41004 0.20466 0.82178 0.0
C929 C 0.37806 0.19822 0.82561 0.0
H930 H 0.45444 0.2155 0.85156 0.0
H931 H 0.41896 0.20249 0.79196 0.0
S932 S 0.33943 0.2026 0.92215 0.0
N933 N 0.37598 0.21065 0.93699 0.0
N934 N 0.33746 0.19645 0.87165 0.0
C935 C 0.36752 0.20106 0.8649 0.0
C936 C 0.38842 0.20873 0.90023 0.0
C937 C 0.83855 0.18895 0.88542 0.0
C938 C 0.81359 0.19622 0.89209 0.0
C939 C 0.84586 0.182 0.84583 0.0
C940 C 0.82878 0.18242 0.81142 0.0
H941 H 0.85182 0.18739 0.91099 0.0
H942 H 0.86366 0.17426 0.84217 0.0
S943 S 0.76357 0.20313 0.81158 0.0
N944 N 0.7736 0.20608 0.86055 0.0
N945 N 0.78761 0.19301 0.78593 0.0
C946 C 0.80552 0.19206 0.8173 0.0
C947 C 0.79783 0.19895 0.85775 0.0
C948 C 0.26681 0.13365 0.50567 0.0
C949 C 0.27796 0.12214 0.47207 0.0
C950 C 0.27983 0.13763 0.54523 0.0
C951 C 0.30423 0.13007 0.55223 0.0
H952 H 0.24908 0.14111 0.50112 0.0
H953 H 0.27239 0.14884 0.57 0.0
S954 S 0.33702 0.09318 0.47598 0.0
N955 N 0.31132 0.09878 0.44912 0.0
N956 N 0.33614 0.10684 0.52387 0.0
C957 C 0.31391 0.1164 0.51948 0.0
C958 C 0.30068 0.11231 0.47918 0.0
C959 C 0.8723 0.11504 0.48569 0.0
C960 C 0.8693 0.12826 0.45017 0.0
C961 C 0.85891 0.11876 0.52258 0.0
C962 C 0.84229 0.13636 0.52588 0.0
H963 H 0.88557 0.10219 0.48572 0.0
H964 H 0.86279 0.10884 0.54913 0.0
S965 S 0.82859 0.17739 0.4427 0.0
N966 N 0.84874 0.1605 0.42137 0.0
N967 N 0.82377 0.16756 0.49019 0.0
C968 C 0.83886 0.1496 0.49055 0.0
C969 C 0.85243 0.14572 0.45303 0.0
C970 C 0.83883 0.67082 0.46044 0.0
C971 C 0.84629 0.70326 0.45616 0.0
C972 C 0.8318 0.65827 0.4985 0.0
C973 C 0.8317 0.67754 0.53405 0.0
H974 H 0.83948 0.65531 0.43437 0.0
H975 H 0.82751 0.63347 0.50011 0.0
S976 S 0.84389 0.76216 0.53726 0.0
N977 N 0.84936 0.75324 0.4891 0.0
N978 N 0.83584 0.72952 0.56106 0.0
C979 C 0.83711 0.7094 0.52963 0.0
C980 C 0.84461 0.72234 0.49064 0.0
loop_
_geom_bond_atom_site_label_1
_geom_bond_atom_site_label_2
_geom_bond_distance
_geom_bond_site_symmetry_2
_ccdc_geom_bond_type
O0 Cd1 2.300 . S
O0 C7 1.275 . S
Cd1 O0 2.300 . S
Cd1 O9 2.381 . S
Cd1 O10 2.378 . S
O2 Cd3 2.385 . S
O2 C7 1.255 . S
Cd3 O2 2.385 . S
Cd3 O4 2.317 . S
O4 Cd3 2.317 . S
O4 C5 1.232 . S
C5 O4 1.232 . S
C5 O6 1.218 . S
O6 C5 1.218 . S
C7 O0 1.275 . S
C7 O2 1.255 . S
C8 O9 1.258 . S
C8 O10 1.256 . S
O9 Cd1 2.381 . S
O9 C8 1.258 . S
O10 Cd1 2.378 . S
O10 C8 1.256 . S
O11 Cd12 2.300 . S
O11 C18 1.275 . S
Cd12 O11 2.300 . S
Cd12 O20 2.381 . S
Cd12 O21 2.378 . S
O13 Cd14 2.385 . S
O13 C18 1.255 . S
Cd14 O13 2.385 . S
Cd14 O15 2.317 . S
O15 Cd14 2.317 . S
O15 C16 1.232 . S
C16 O15 1.232 . S
C16 O17 1.218 . S
O17 C16 1.218 . S
C18 O11 1.275 . S
C18 O13 1.255 . S
C19 O20 1.258 . S
C19 O21 1.256 . S
O20 Cd12 2.381 . S
O20 C19 1.258 . S
O21 Cd12 2.378 . S
O21 C19 1.256 . S
O22 Cd23 2.300 . S
O22 C29 1.275 . S
Cd23 O22 2.300 . S
Cd23 O31 2.381 . S
Cd23 O32 2.378 . S
O24 Cd25 2.385 . S
O24 C29 1.255 . S
Cd25 O24 2.385 . S
Cd25 O26 2.317 . S
O26 Cd25 2.317 . S
O26 C27 1.232 . S
C27 O26 1.232 . S
C27 O28 1.218 . S
O28 C27 1.218 . S
C29 O22 1.275 . S
C29 O24 1.255 . S
C30 O31 1.258 . S
C30 O32 1.256 . S
O31 Cd23 2.381 . S
O31 C30 1.258 . S
O32 Cd23 2.378 . S
O32 C30 1.256 . S
O33 Cd34 2.300 . S
O33 C40 1.275 . S
Cd34 O33 2.300 . S
Cd34 O42 2.381 . S
Cd34 O43 2.378 . S
O35 Cd36 2.385 . S
O35 C40 1.255 . S
Cd36 O35 2.385 . S
Cd36 O37 2.317 . S
O37 Cd36 2.317 . S
O37 C38 1.232 . S
C38 O37 1.232 . S
C38 O39 1.218 . S
O39 C38 1.218 . S
C40 O33 1.275 . S
C40 O35 1.255 . S
C41 O42 1.258 . S
C41 O43 1.256 . S
O42 Cd34 2.381 . S
O42 C41 1.258 . S
O43 Cd34 2.378 . S
O43 C41 1.256 . S
O44 Cd45 2.300 . S
O44 C51 1.275 . S
Cd45 O44 2.300 . S
Cd45 O53 2.381 . S
Cd45 O54 2.378 . S
O46 Cd47 2.385 . S
O46 C51 1.255 . S
Cd47 O46 2.385 . S
Cd47 O48 2.317 . S
O48 Cd47 2.317 . S
O48 C49 1.232 . S
C49 O48 1.232 . S
C49 O50 1.218 . S
O50 C49 1.218 . S
C51 O44 1.275 . S
C51 O46 1.255 . S
C52 O53 1.258 . S
C52 O54 1.256 . S
O53 Cd45 2.381 . S
O53 C52 1.258 . S
O54 Cd45 2.378 . S
O54 C52 1.256 . S
O55 Cd56 2.300 . S
O55 C62 1.275 . S
Cd56 O55 2.300 . S
Cd56 O64 2.381 . S
Cd56 O65 2.378 . S
O57 Cd58 2.385 . S
O57 C62 1.255 . S
Cd58 O57 2.385 . S
Cd58 O59 2.317 . S
O59 Cd58 2.317 . S
O59 C60 1.232 . S
C60 O59 1.232 . S
C60 O61 1.218 . S
O61 C60 1.218 . S
C62 O55 1.275 . S
C62 O57 1.255 . S
C63 O64 1.258 . S
C63 O65 1.256 . S
O64 Cd56 2.381 . S
O64 C63 1.258 . S
O65 Cd56 2.378 . S
O65 C63 1.256 . S
O66 Cd67 2.300 . S
O66 C73 1.275 . S
Cd67 O66 2.300 . S
Cd67 O75 2.381 . S
Cd67 O76 2.378 . S
O68 Cd69 2.385 . S
O68 C73 1.255 . S
Cd69 O68 2.385 . S
Cd69 O70 2.317 . S
O70 Cd69 2.317 . S
O70 C71 1.232 . S
C71 O70 1.232 . S
C71 O72 1.218 . S
O72 C71 1.218 . S
C73 O66 1.275 . S
C73 O68 1.255 . S
C74 O75 1.258 . S
C74 O76 1.256 . S
O75 Cd67 2.381 . S
O75 C74 1.258 . S
O76 Cd67 2.378 . S
O76 C74 1.256 . S
O77 Cd78 2.300 . S
O77 C84 1.275 . S
Cd78 O77 2.300 . S
Cd78 O86 2.381 . S
Cd78 O87 2.378 . S
O79 Cd80 2.385 . S
O79 C84 1.255 . S
Cd80 O79 2.385 . S
Cd80 O81 2.317 . S
O81 Cd80 2.317 . S
O81 C82 1.232 . S
C82 O81 1.232 . S
C82 O83 1.218 . S
O83 C82 1.218 . S
C84 O77 1.275 . S
C84 O79 1.255 . S
C85 O86 1.258 . S
C85 O87 1.256 . S
O86 Cd78 2.381 . S
O86 C85 1.258 . S
O87 Cd78 2.378 . S
O87 C85 1.256 . S
O88 Cd89 2.300 . S
O88 C95 1.275 . S
Cd89 O88 2.300 . S
Cd89 O97 2.381 . S
Cd89 O98 2.378 . S
O90 Cd91 2.385 . S
O90 C95 1.255 . S
Cd91 O90 2.385 . S
Cd91 O92 2.317 . S
O92 Cd91 2.317 . S
O92 C93 1.232 . S
C93 O92 1.232 . S
C93 O94 1.218 . S
O94 C93 1.218 . S
C95 O88 1.275 . S
C95 O90 1.255 . S
C96 O97 1.258 . S
C96 O98 1.256 . S
O97 Cd89 2.381 . S
O97 C96 1.258 . S
O98 Cd89 2.378 . S
O98 C96 1.256 . S
O99 Cd100 2.300 1_556 S
O99 C106 1.275 . S
Cd100 O99 2.300 1_554 S
Cd100 O108 2.377 1_554 S
Cd100 O109 2.378 . S
O101 Cd102 2.385 1_556 S
O101 C106 1.255 . S
Cd102 O101 2.385 1_554 S
Cd102 O103 2.317 . S
O103 Cd102 2.317 . S
O103 C104 1.232 . S
C104 O103 1.232 . S
C104 O105 1.218 . S
O105 C104 1.218 . S
C106 O99 1.275 . S
C106 O101 1.255 . S
C107 O108 1.232 1_554 S
C107 O109 1.256 . S
O108 Cd100 2.377 1_556 S
O108 C107 1.232 1_556 S
O109 Cd100 2.378 . S
O109 C107 1.256 . S
O110 Cd111 2.300 . S
O110 C117 1.275 . S
Cd111 O110 2.300 . S
Cd111 O119 2.381 1_556 S
Cd111 O120 2.378 1_556 S
O112 Cd113 2.385 . S
O112 C117 1.255 . S
Cd113 O112 2.385 . S
Cd113 O114 2.317 1_556 S
O114 Cd113 2.317 1_554 S
O114 C115 1.232 . S
C115 O114 1.232 . S
C115 O116 1.218 1_554 S
O116 C115 1.218 1_556 S
C117 O110 1.275 . S
C117 O112 1.255 . S
C118 O119 1.258 . S
C118 O120 1.256 . S
O119 Cd111 2.381 1_554 S
O119 C118 1.258 . S
O120 Cd111 2.378 1_554 S
O120 C118 1.256 . S
O121 Cd122 2.300 . S
O121 C128 1.275 . S
Cd122 O121 2.300 . S
Cd122 O130 2.381 . S
Cd122 O131 2.378 1_556 S
O123 Cd124 2.385 1_556 S
O123 C128 1.255 . S
Cd124 O123 2.385 1_554 S
Cd124 O125 2.317 . S
O125 Cd124 2.317 . S
O125 C126 1.232 . S
C126 O125 1.232 . S
C126 O127 1.218 . S
O127 C126 1.218 . S
C128 O121 1.275 . S
C128 O123 1.255 . S
C129 O130 1.258 1_554 S
C129 O131 1.256 . S
O130 Cd122 2.381 . S
O130 C129 1.258 1_556 S
O131 Cd122 2.378 1_554 S
O131 C129 1.256 . S
O132 Cd133 2.300 . S
O132 C139 1.275 . S
Cd133 O132 2.300 . S
Cd133 O141 2.381 . S
Cd133 O142 2.378 1_554 S
O134 Cd135 2.385 . S
O134 C139 1.255 . S
Cd135 O134 2.385 . S
Cd135 O136 2.317 1_554 S
O136 Cd135 2.317 1_556 S
O136 C137 1.231 . S
C137 O136 1.231 . S
C137 O138 1.219 1_556 S
O138 C137 1.219 1_554 S
C139 O132 1.275 . S
C139 O134 1.255 . S
C140 O141 1.258 1_556 S
C140 O142 1.256 . S
O141 Cd133 2.381 . S
O141 C140 1.258 1_554 S
O142 Cd133 2.378 1_556 S
O142 C140 1.256 . S
O143 Cd144 2.300 . S
O143 C150 1.275 . S
Cd144 O143 2.300 . S
Cd144 O152 2.381 . S
Cd144 O153 2.378 1_554 S
O145 Cd146 2.385 . S
O145 C150 1.255 . S
Cd146 O145 2.385 . S
Cd146 O147 2.317 . S
O147 Cd146 2.317 . S
O147 C148 1.232 . S
C148 O147 1.232 . S
C148 O149 1.218 . S
O149 C148 1.218 . S
C150 O143 1.275 . S
C150 O145 1.255 . S
C151 O152 1.258 1_556 S
C151 O153 1.256 . S
O152 Cd144 2.381 . S
O152 C151 1.258 1_554 S
O153 Cd144 2.378 1_556 S
O153 C151 1.256 . S
O154 Cd155 2.300 . S
O154 C161 1.275 . S
Cd155 O154 2.300 . S
Cd155 O163 2.381 . S
Cd155 O164 2.378 1_554 S
O156 Cd157 2.385 1_554 S
O156 C161 1.255 . S
Cd157 O156 2.385 1_556 S
Cd157 O158 2.317 . S
O158 Cd157 2.317 . S
O158 C159 1.232 1_556 S
C159 O158 1.232 1_554 S
C159 O160 1.218 . S
O160 C159 1.218 . S
C161 O154 1.275 . S
C161 O156 1.255 . S
C162 O163 1.258 1_556 S
C162 O164 1.256 . S
O163 Cd155 2.381 . S
O163 C162 1.258 1_554 S
O164 Cd155 2.378 1_556 S
O164 C162 1.256 . S
O165 Cd166 2.300 . S
O165 C172 1.275 . S
Cd166 O165 2.300 . S
Cd166 O174 2.381 . S
Cd166 O175 2.378 . S
O167 Cd168 2.385 . S
O167 C172 1.255 . S
Cd168 O167 2.385 . S
Cd168 O169 2.317 . S
O169 Cd168 2.317 . S
O169 C170 1.232 . S
C170 O169 1.232 . S
C170 O171 1.218 . S
O171 C170 1.218 . S
C172 O165 1.275 . S
C172 O167 1.255 . S
C173 O174 1.258 . S
C173 O175 1.256 . S
O174 Cd166 2.381 . S
O174 C173 1.258 . S
O175 Cd166 2.378 . S
O175 C173 1.256 . S
O176 Cd177 2.300 . S
O176 C183 1.275 . S
Cd177 O176 2.300 . S
Cd177 O185 2.381 . S
Cd177 O186 2.378 . S
O178 Cd179 2.385 . S
O178 C183 1.255 . S
Cd179 O178 2.385 . S
Cd179 O180 2.317 . S
O180 Cd179 2.317 . S
O180 C181 1.232 . S
C181 O180 1.232 . S
C181 O182 1.218 . S
O182 C181 1.218 . S
C183 O176 1.275 . S
C183 O178 1.255 . S
C184 O185 1.258 . S
C184 O186 1.256 . S
O185 Cd177 2.381 . S
O185 C184 1.258 . S
O186 Cd177 2.378 . S
O186 C184 1.256 . S
O187 Cd188 2.300 . S
O187 C194 1.275 . S
Cd188 O187 2.300 . S
Cd188 O196 2.381 . S
Cd188 O197 2.378 . S
O189 Cd190 2.385 . S
O189 C194 1.255 . S
Cd190 O189 2.385 . S
Cd190 O191 2.317 . S
O191 Cd190 2.317 . S
O191 C192 1.232 . S
C192 O191 1.232 . S
C192 O193 1.218 . S
O193 C192 1.218 . S
C194 O187 1.275 . S
C194 O189 1.255 . S
C195 O196 1.258 . S
C195 O197 1.256 . S
O196 Cd188 2.381 . S
O196 C195 1.258 . S
O197 Cd188 2.378 . S
O197 C195 1.256 . S
O198 Mg199 1.990 . S
O198 C212 1.253 1_565 S
Mg199 O198 1.990 . S
Mg199 O202 2.180 1_556 S
Mg199 O203 2.117 . S
Mg199 O217 2.030 1_565 S
O200 Mg201 2.072 1_556 S
O200 C212 1.260 . S
Mg201 O200 2.072 1_554 S
Mg201 O202 2.099 1_545 S
Mg201 O204 2.088 . S
Mg201 O205 2.072 1_545 S
Mg201 O207 2.099 . S
Mg201 O218 2.079 . S
O202 Mg199 2.180 1_554 S
O202 Mg201 2.099 1_565 S
O202 C213 1.279 1_554 S
O203 Mg199 2.117 . S
O203 C213 1.250 . S
O204 Mg201 2.088 . S
O204 C214 1.265 1_545 S
O205 Mg201 2.072 1_565 S
O205 C215 1.260 . S
Mg206 O207 2.180 . S
Mg206 O208 2.030 1_545 S
Mg206 O209 1.990 1_545 S
Mg206 O210 2.117 . S
O207 Mg201 2.099 . S
O207 Mg206 2.180 . S
O207 C216 1.279 . S
O208 Mg206 2.030 1_565 S
O208 C214 1.248 . S
O209 Mg206 1.990 1_565 S
O209 C215 1.253 . S
O210 Mg206 2.117 . S
O210 C216 1.250 . S
C211 O217 1.248 1_554 S
C211 O218 1.264 . S
C212 O198 1.253 1_545 S
C212 O200 1.260 . S
C213 O202 1.279 1_556 S
C213 O203 1.250 . S
C214 O204 1.265 1_565 S
C214 O208 1.248 . S
C215 O205 1.260 . S
C215 O209 1.253 . S
C216 O207 1.279 . S
C216 O210 1.250 . S
O217 Mg199 2.030 1_545 S
O217 C211 1.248 1_556 S
O218 Mg201 2.079 . S
O218 C211 1.264 . S
O219 Mg220 1.990 . S
O219 C233 1.253 1_455 S
Mg220 O219 1.990 . S
Mg220 O223 2.180 1_556 S
Mg220 O224 2.117 . S
Mg220 O238 2.030 1_455 S
O221 Mg222 2.072 1_656 S
O221 C233 1.260 . S
Mg222 O221 2.072 1_454 S
Mg222 O223 2.099 . S
Mg222 O225 2.079 . S
Mg222 O226 2.072 . S
Mg222 O228 2.099 1_455 S
Mg222 O239 2.079 1_455 S
O223 Mg220 2.180 1_554 S
O223 Mg222 2.099 . S
O223 C234 1.279 . S
O224 Mg220 2.117 . S
O224 C234 1.250 1_556 S
O225 Mg222 2.079 . S
O225 C235 1.264 . S
O226 Mg222 2.072 . S
O226 C236 1.260 . S
Mg227 O228 2.180 1_455 S
Mg227 O229 2.030 . S
Mg227 O230 1.990 . S
Mg227 O231 2.117 1_455 S
O228 Mg222 2.099 1_655 S
O228 Mg227 2.180 1_655 S
O228 C237 1.279 . S
O229 Mg227 2.030 . S
O229 C235 1.248 . S
O230 Mg227 1.990 . S
O230 C236 1.253 . S
O231 Mg227 2.117 1_655 S
O231 C237 1.250 . S
C232 O238 1.248 1_554 S
C232 O239 1.264 . S
C233 O219 1.253 1_655 S
C233 O221 1.260 . S
C234 O223 1.279 . S
C234 O224 1.250 1_554 S
C235 O225 1.264 . S
C235 O229 1.248 . S
C236 O226 1.260 . S
C236 O230 1.253 . S
C237 O228 1.279 . S
C237 O231 1.250 . S
O238 Mg220 2.030 1_655 S
O238 C232 1.248 1_556 S
O239 Mg222 2.079 1_655 S
O239 C232 1.264 . S
O240 Mg241 1.990 . S
O240 C254 1.253 . S
Mg241 O240 1.990 . S
Mg241 O244 2.180 . S
Mg241 O245 2.117 . S
Mg241 O259 2.030 . S
O242 Mg243 2.072 1_554 S
O242 C254 1.260 . S
Mg243 O242 2.072 1_556 S
Mg243 O244 2.099 1_556 S
Mg243 O246 2.079 . S
Mg243 O247 2.072 1_556 S
Mg243 O249 2.099 . S
Mg243 O260 2.079 . S
O244 Mg241 2.180 . S
O244 Mg243 2.099 1_554 S
O244 C255 1.279 . S
O245 Mg241 2.117 . S
O245 C255 1.250 . S
O246 Mg243 2.079 . S
O246 C256 1.264 . S
O247 Mg243 2.072 1_554 S
O247 C257 1.262 . S
Mg248 O249 2.180 . S
Mg248 O250 2.030 . S
Mg248 O251 1.990 . S
Mg248 O252 2.117 . S
O249 Mg243 2.099 . S
O249 Mg248 2.180 . S
O249 C258 1.279 . S
O250 Mg248 2.030 . S
O250 C256 1.248 . S
O251 Mg248 1.990 . S
O251 C257 1.250 1_556 S
O252 Mg248 2.117 . S
O252 C258 1.250 . S
C253 O259 1.248 . S
C253 O260 1.264 1_554 S
C254 O240 1.253 . S
C254 O242 1.260 . S
C255 O244 1.279 . S
C255 O245 1.250 . S
C256 O246 1.264 . S
C256 O250 1.248 . S
C257 O247 1.262 . S
C257 O251 1.250 1_554 S
C258 O249 1.279 . S
C258 O252 1.250 . S
O259 Mg241 2.030 . S
O259 C253 1.248 . S
O260 Mg243 2.079 . S
O260 C253 1.264 1_556 S
O261 Mg262 1.990 . S
O261 C275 1.253 . S
Mg262 O261 1.990 . S
Mg262 O265 2.180 . S
Mg262 O266 2.117 . S
Mg262 O280 2.030 . S
O263 Mg264 2.072 . S
O263 C275 1.260 . S
Mg264 O263 2.072 . S
Mg264 O265 2.099 . S
Mg264 O267 2.079 . S
Mg264 O268 2.072 . S
Mg264 O270 2.099 . S
Mg264 O281 2.079 . S
O265 Mg262 2.180 . S
O265 Mg264 2.099 . S
O265 C276 1.279 . S
O266 Mg262 2.117 . S
O266 C276 1.250 . S
O267 Mg264 2.079 . S
O267 C277 1.264 . S
O268 Mg264 2.072 . S
O268 C278 1.260 . S
Mg269 O270 2.180 . S
Mg269 O271 2.030 . S
Mg269 O272 1.990 . S
Mg269 O273 2.117 . S
O270 Mg264 2.099 . S
O270 Mg269 2.180 . S
O270 C279 1.279 . S
O271 Mg269 2.030 . S
O271 C277 1.248 . S
O272 Mg269 1.990 . S
O272 C278 1.253 . S
O273 Mg269 2.117 . S
O273 C279 1.250 . S
C274 O280 1.248 . S
C274 O281 1.264 . S
C275 O261 1.253 . S
C275 O263 1.260 . S
C276 O265 1.279 . S
C276 O266 1.250 . S
C277 O267 1.264 . S
C277 O271 1.248 . S
C278 O268 1.260 . S
C278 O272 1.253 . S
C279 O270 1.279 . S
C279 O273 1.250 . S
O280 Mg262 2.030 . S
O280 C274 1.248 . S
O281 Mg264 2.079 . S
O281 C274 1.264 . S
O282 Mg283 1.990 . S
O282 C296 1.253 . S
Mg283 O282 1.990 . S
Mg283 O286 2.180 . S
Mg283 O287 2.117 . S
Mg283 O301 2.030 . S
O284 Mg285 2.072 . S
O284 C296 1.260 . S
Mg285 O284 2.072 . S
Mg285 O286 2.099 . S
Mg285 O288 2.079 . S
Mg285 O289 2.072 . S
Mg285 O291 2.099 . S
Mg285 O302 2.079 . S
O286 Mg283 2.180 . S
O286 Mg285 2.099 . S
O286 C297 1.279 . S
O287 Mg283 2.117 . S
O287 C297 1.250 . S
O288 Mg285 2.079 . S
O288 C298 1.264 . S
O289 Mg285 2.072 . S
O289 C299 1.260 . S
Mg290 O291 2.180 . S
Mg290 O292 2.030 . S
Mg290 O293 1.990 . S
Mg290 O294 2.117 . S
O291 Mg285 2.099 . S
O291 Mg290 2.180 . S
O291 C300 1.279 . S
O292 Mg290 2.030 . S
O292 C298 1.248 . S
O293 Mg290 1.990 . S
O293 C299 1.253 . S
O294 Mg290 2.117 . S
O294 C300 1.250 . S
C295 O301 1.248 . S
C295 O302 1.264 . S
C296 O282 1.253 . S
C296 O284 1.260 . S
C297 O286 1.279 . S
C297 O287 1.250 . S
C298 O288 1.264 . S
C298 O292 1.248 . S
C299 O289 1.260 . S
C299 O293 1.253 . S
C300 O291 1.279 . S
C300 O294 1.250 . S
O301 Mg283 2.030 . S
O301 C295 1.248 . S
O302 Mg285 2.079 . S
O302 C295 1.264 . S
O303 Mg304 1.990 . S
O303 C317 1.253 . S
Mg304 O303 1.990 . S
Mg304 O307 2.180 . S
Mg304 O308 2.117 . S
Mg304 O322 2.030 . S
O305 Mg306 2.072 . S
O305 C317 1.260 . S
Mg306 O305 2.072 . S
Mg306 O307 2.099 . S
Mg306 O309 2.079 . S
Mg306 O310 2.072 . S
Mg306 O312 2.099 . S
Mg306 O323 2.079 . S
O307 Mg304 2.180 . S
O307 Mg306 2.099 . S
O307 C318 1.279 . S
O308 Mg304 2.117 . S
O308 C318 1.250 . S
O309 Mg306 2.079 . S
O309 C319 1.264 . S
O310 Mg306 2.072 . S
O310 C320 1.260 . S
Mg311 O312 2.180 . S
Mg311 O313 2.030 . S
Mg311 O314 1.990 . S
Mg311 O315 2.117 . S
O312 Mg306 2.099 . S
O312 Mg311 2.180 . S
O312 C321 1.279 . S
O313 Mg311 2.030 . S
O313 C319 1.248 . S
O314 Mg311 1.990 . S
O314 C320 1.253 . S
O315 Mg311 2.117 . S
O315 C321 1.250 . S
C316 O322 1.248 . S
C316 O323 1.264 . S
C317 O303 1.253 . S
C317 O305 1.260 . S
C318 O307 1.279 . S
C318 O308 1.250 . S
C319 O309 1.264 . S
C319 O313 1.248 . S
C320 O310 1.260 . S
C320 O314 1.253 . S
C321 O312 1.279 . S
C321 O315 1.250 . S
O322 Mg304 2.030 . S
O322 C316 1.248 . S
O323 Mg306 2.079 . S
O323 C316 1.264 . S
O324 Mg325 1.990 . S
O324 C338 1.253 . S
Mg325 O324 1.990 . S
Mg325 O328 2.180 . S
Mg325 O329 2.117 . S
Mg325 O343 2.030 . S
O326 Mg327 2.072 . S
O326 C338 1.260 . S
Mg327 O326 2.072 . S
Mg327 O328 2.099 . S
Mg327 O330 2.079 . S
Mg327 O331 2.072 . S
Mg327 O333 2.099 . S
Mg327 O344 2.079 . S
O328 Mg325 2.180 . S
O328 Mg327 2.099 . S
O328 C339 1.279 . S
O329 Mg325 2.117 . S
O329 C339 1.250 . S
O330 Mg327 2.079 . S
O330 C340 1.264 . S
O331 Mg327 2.072 . S
O331 C341 1.260 . S
Mg332 O333 2.180 . S
Mg332 O334 2.030 . S
Mg332 O335 1.990 . S
Mg332 O336 2.117 . S
O333 Mg327 2.099 . S
O333 Mg332 2.180 . S
O333 C342 1.279 . S
O334 Mg332 2.030 . S
O334 C340 1.248 . S
O335 Mg332 1.990 . S
O335 C341 1.253 . S
O336 Mg332 2.117 . S
O336 C342 1.250 . S
C337 O343 1.248 . S
C337 O344 1.264 . S
C338 O324 1.253 . S
C338 O326 1.260 . S
C339 O328 1.279 . S
C339 O329 1.250 . S
C340 O330 1.264 . S
C340 O334 1.248 . S
C341 O331 1.260 . S
C341 O335 1.253 . S
C342 O333 1.279 . S
C342 O336 1.250 . S
O343 Mg325 2.030 . S
O343 C337 1.248 . S
O344 Mg327 2.079 . S
O344 C337 1.264 . S
O345 Mg346 1.990 . S
O345 C359 1.253 . S
Mg346 O345 1.990 . S
Mg346 O349 2.180 . S
Mg346 O350 2.117 . S
Mg346 O364 2.030 . S
O347 Mg348 2.072 . S
O347 C359 1.260 . S
Mg348 O347 2.072 . S
Mg348 O349 2.099 . S
Mg348 O351 2.079 . S
Mg348 O352 2.072 . S
Mg348 O354 2.099 . S
Mg348 O365 2.079 . S
O349 Mg346 2.180 . S
O349 Mg348 2.099 . S
O349 C360 1.279 . S
O350 Mg346 2.117 . S
O350 C360 1.250 . S
O351 Mg348 2.079 . S
O351 C361 1.264 . S
O352 Mg348 2.072 . S
O352 C362 1.260 . S
Mg353 O354 2.180 . S
Mg353 O355 2.030 . S
Mg353 O356 1.990 . S
Mg353 O357 2.117 . S
O354 Mg348 2.099 . S
O354 Mg353 2.180 . S
O354 C363 1.279 . S
O355 Mg353 2.030 . S
O355 C361 1.248 . S
O356 Mg353 1.990 . S
O356 C362 1.253 . S
O357 Mg353 2.117 . S
O357 C363 1.250 . S
C358 O364 1.248 . S
C358 O365 1.264 . S
C359 O345 1.253 . S
C359 O347 1.260 . S
C360 O349 1.279 . S
C360 O350 1.250 . S
C361 O351 1.264 . S
C361 O355 1.248 . S
C362 O352 1.260 . S
C362 O356 1.253 . S
C363 O354 1.279 . S
C363 O357 1.250 . S
O364 Mg346 2.030 . S
O364 C358 1.248 . S
O365 Mg348 2.079 . S
O365 C358 1.264 . S
O366 Mg367 1.990 . S
O366 C380 1.253 . S
Mg367 O366 1.990 . S
Mg367 O370 2.180 . S
Mg367 O371 2.117 . S
Mg367 O385 2.030 . S
O368 Mg369 2.072 . S
O368 C380 1.260 . S
Mg369 O368 2.072 . S
Mg369 O370 2.099 . S
Mg369 O372 2.079 . S
Mg369 O373 2.072 . S
Mg369 O375 2.099 . S
Mg369 O386 2.079 . S
O370 Mg367 2.180 . S
O370 Mg369 2.099 . S
O370 C381 1.279 . S
O371 Mg367 2.117 . S
O371 C381 1.250 . S
O372 Mg369 2.079 . S
O372 C382 1.264 . S
O373 Mg369 2.072 . S
O373 C383 1.260 . S
Mg374 O375 2.180 . S
Mg374 O376 2.030 . S
Mg374 O377 1.990 . S
Mg374 O378 2.117 . S
O375 Mg369 2.099 . S
O375 Mg374 2.180 . S
O375 C384 1.279 . S
O376 Mg374 2.030 . S
O376 C382 1.248 . S
O377 Mg374 1.990 . S
O377 C383 1.253 . S
O378 Mg374 2.117 . S
O378 C384 1.250 . S
C379 O385 1.248 . S
C379 O386 1.264 . S
C380 O366 1.253 . S
C380 O368 1.260 . S
C381 O370 1.279 . S
C381 O371 1.250 . S
C382 O372 1.264 . S
C382 O376 1.248 . S
C383 O373 1.260 . S
C383 O377 1.253 . S
C384 O375 1.279 . S
C384 O378 1.250 . S
O385 Mg367 2.030 . S
O385 C379 1.248 . S
O386 Mg369 2.079 . S
O386 C379 1.264 . S
C387 C388 1.369 . S
C387 C389 1.419 1_556 S
C387 H391 0.930 . S
C388 C387 1.369 . S
C388 C397 1.429 . S
C389 C387 1.419 1_554 S
C389 C390 1.363 . S
C389 H392 0.929 . S
C390 C389 1.363 . S
C390 C396 1.427 1_554 S
H391 C387 0.930 . S
H392 C389 0.929 . S
S393 N394 1.613 . S
S393 N395 1.610 1_556 S
N394 S393 1.613 . S
N394 C397 1.350 . S
N395 S393 1.610 1_554 S
N395 C396 1.349 1_554 S
C396 C390 1.427 1_556 S
C396 N395 1.349 1_556 S
C396 C397 1.437 . S
C397 C388 1.429 . S
C397 N394 1.350 . S
C397 C396 1.437 . S
C398 C399 1.369 . S
C398 C400 1.419 . S
C398 H402 0.930 . S
C399 C398 1.369 . S
C399 C408 1.429 . S
C400 C398 1.419 . S
C400 C401 1.363 . S
C400 H403 0.929 . S
C401 C400 1.363 . S
C401 C407 1.428 . S
H402 C398 0.930 . S
H403 C400 0.929 . S
S404 N405 1.613 . S
S404 N406 1.611 . S
N405 S404 1.613 . S
N405 C408 1.350 1_556 S
N406 S404 1.611 . S
N406 C407 1.350 1_556 S
C407 C401 1.428 . S
C407 N406 1.350 1_554 S
C407 C408 1.434 . S
C408 C399 1.429 . S
C408 N405 1.350 1_554 S
C408 C407 1.434 . S
C409 C410 1.369 . S
C409 C411 1.419 . S
C409 H413 0.930 . S
C410 C409 1.369 . S
C410 C419 1.429 1_554 S
C411 C409 1.419 . S
C411 C412 1.363 . S
C411 H414 0.929 . S
C412 C411 1.363 . S
C412 C418 1.428 1_554 S
H413 C409 0.930 . S
H414 C411 0.929 . S
S415 N416 1.613 . S
S415 N417 1.610 . S
N416 S415 1.613 . S
N416 C419 1.350 . S
N417 S415 1.610 . S
N417 C418 1.351 . S
C418 C412 1.428 1_556 S
C418 N417 1.351 . S
C418 C419 1.434 . S
C419 C410 1.429 1_556 S
C419 N416 1.350 . S
C419 C418 1.434 . S
C420 C421 1.369 . S
C420 C422 1.419 . S
C420 H424 0.930 . S
C421 C420 1.369 . S
C421 C430 1.429 . S
C422 C420 1.419 . S
C422 C423 1.363 . S
C422 H425 0.929 . S
C423 C422 1.363 . S
C423 C429 1.428 . S
H424 C420 0.930 . S
H425 C422 0.929 . S
S426 N427 1.613 . S
S426 N428 1.610 . S
N427 S426 1.613 . S
N427 C430 1.350 . S
N428 S426 1.610 . S
N428 C429 1.351 . S
C429 C423 1.428 . S
C429 N428 1.351 . S
C429 C430 1.434 . S
C430 C421 1.429 . S
C430 N427 1.350 . S
C430 C429 1.434 . S
C431 C432 1.369 . S
C431 C433 1.419 . S
C431 H435 0.930 . S
C432 C431 1.369 . S
C432 C441 1.429 1_554 S
C433 C431 1.419 . S
C433 C434 1.363 . S
C433 H436 0.929 . S
C434 C433 1.363 . S
C434 C440 1.428 1_554 S
H435 C431 0.930 . S
H436 C433 0.929 . S
S437 N438 1.613 . S
S437 N439 1.610 . S
N438 S437 1.613 . S
N438 C441 1.350 . S
N439 S437 1.610 . S
N439 C440 1.351 . S
C440 C434 1.428 1_556 S
C440 N439 1.351 . S
C440 C441 1.434 . S
C441 C432 1.429 1_556 S
C441 N438 1.350 . S
C441 C440 1.434 . S
C442 C443 1.369 . S
C442 C444 1.419 . S
C442 H446 0.930 . S
C443 C442 1.369 . S
C443 C452 1.429 . S
C444 C442 1.419 . S
C444 C445 1.363 . S
C444 H447 0.929 . S
C445 C444 1.363 . S
C445 C451 1.428 1_554 S
H446 C442 0.930 . S
H447 C444 0.929 . S
S448 N449 1.613 . S
S448 N450 1.610 . S
N449 S448 1.613 . S
N449 C452 1.350 1_556 S
N450 S448 1.610 . S
N450 C451 1.351 . S
C451 C445 1.428 1_556 S
C451 N450 1.351 . S
C451 C452 1.434 1_556 S
C452 C443 1.429 . S
C452 N449 1.350 1_554 S
C452 C451 1.434 1_554 S
C453 C454 1.369 . S
C453 C455 1.419 . S
C453 H457 0.930 . S
C454 C453 1.369 . S
C454 C463 1.429 1_554 S
C455 C453 1.419 . S
C455 C456 1.363 . S
C455 H458 0.929 . S
C456 C455 1.363 . S
C456 C462 1.428 1_554 S
H457 C453 0.930 . S
H458 C455 0.929 . S
S459 N460 1.613 . S
S459 N461 1.610 . S
N460 S459 1.613 . S
N460 C463 1.350 . S
N461 S459 1.610 . S
N461 C462 1.351 . S
C462 C456 1.428 1_556 S
C462 N461 1.351 . S
C462 C463 1.434 . S
C463 C454 1.429 1_556 S
C463 N460 1.350 . S
C463 C462 1.434 . S
C464 C465 1.369 . S
C464 C466 1.419 . S
C464 H468 0.930 . S
C465 C464 1.369 . S
C465 C474 1.429 1_554 S
C466 C464 1.419 . S
C466 C467 1.363 . S
C466 H469 0.929 . S
C467 C466 1.363 . S
C467 C473 1.428 1_554 S
H468 C464 0.930 . S
H469 C466 0.929 . S
S470 N471 1.613 . S
S470 N472 1.610 . S
N471 S470 1.613 . S
N471 C474 1.350 . S
N472 S470 1.610 . S
N472 C473 1.351 . S
C473 C467 1.428 1_556 S
C473 N472 1.351 . S
C473 C474 1.434 . S
C474 C465 1.429 1_556 S
C474 N471 1.350 . S
C474 C473 1.434 . S
C475 C476 1.369 . S
C475 C477 1.419 . S
C475 H479 0.930 . S
C476 C475 1.369 . S
C476 C485 1.429 1_554 S
C477 C475 1.419 . S
C477 C478 1.363 . S
C477 H480 0.929 . S
C478 C477 1.363 . S
C478 C484 1.428 1_554 S
H479 C475 0.930 . S
H480 C477 0.929 . S
S481 N482 1.613 . S
S481 N483 1.610 . S
N482 S481 1.613 . S
N482 C485 1.350 . S
N483 S481 1.610 . S
N483 C484 1.351 . S
C484 C478 1.428 1_556 S
C484 N483 1.351 . S
C484 C485 1.434 . S
C485 C476 1.429 1_556 S
C485 N482 1.350 . S
C485 C484 1.434 . S
C486 C487 1.369 . S
C486 C488 1.419 . S
C486 H490 0.930 . S
C487 C486 1.369 . S
C487 C496 1.429 1_556 S
C488 C486 1.419 . S
C488 C489 1.363 1_556 S
C488 H491 0.929 . S
C489 C488 1.363 1_554 S
C489 C495 1.428 . S
H490 C486 0.930 . S
H491 C488 0.929 . S
S492 N493 1.613 . S
S492 N494 1.610 . S
N493 S492 1.613 . S
N493 C496 1.350 . S
N494 S492 1.610 . S
N494 C495 1.351 . S
C495 C489 1.428 . S
C495 N494 1.351 . S
C495 C496 1.434 . S
C496 C487 1.429 1_554 S
C496 N493 1.350 . S
C496 C495 1.434 . S
C497 C498 1.369 1_554 S
C497 C499 1.419 . S
C497 H501 0.930 . S
C498 C497 1.369 1_556 S
C498 C507 1.429 . S
C499 C497 1.419 . S
C499 C500 1.363 1_554 S
C499 H502 0.929 . S
C500 C499 1.363 1_556 S
C500 C506 1.428 . S
H501 C497 0.930 . S
H502 C499 0.929 . S
S503 N504 1.613 . S
S503 N505 1.610 . S
N504 S503 1.613 . S
N504 C507 1.350 . S
N505 S503 1.610 . S
N505 C506 1.351 . S
C506 C500 1.428 . S
C506 N505 1.351 . S
C506 C507 1.434 . S
C507 C498 1.429 . S
C507 N504 1.350 . S
C507 C506 1.434 . S
C508 C509 1.369 1_554 S
C508 C510 1.419 . S
C508 H512 0.930 . S
C509 C508 1.369 1_556 S
C509 C518 1.429 . S
C510 C508 1.419 . S
C510 C511 1.358 1_554 S
C510 H513 0.929 . S
C511 C510 1.358 1_556 S
C511 C517 1.434 . S
H512 C508 0.930 . S
H513 C510 0.929 . S
S514 N515 1.613 . S
S514 N516 1.610 . S
N515 S514 1.613 . S
N515 C518 1.350 . S
N516 S514 1.610 . S
N516 C517 1.351 . S
C517 C511 1.434 . S
C517 N516 1.351 . S
C517 C518 1.434 . S
C518 C509 1.429 . S
C518 N515 1.350 . S
C518 C517 1.434 . S
C519 C520 1.369 . S
C519 C521 1.419 . S
C519 H523 0.930 1_455 S
C520 C519 1.369 . S
C520 C529 1.457 . S
C521 C519 1.419 . S
C521 C522 1.363 . S
C521 H524 0.929 . S
C522 C521 1.363 . S
C522 C528 1.428 . S
H523 C519 0.930 1_655 S
H524 C521 0.929 . S
S525 N526 1.613 . S
S525 N527 1.610 . S
N526 S525 1.613 . S
N526 C529 1.350 . S
N527 S525 1.610 . S
N527 C528 1.351 . S
C528 C522 1.428 . S
C528 N527 1.351 . S
C528 C529 1.434 . S
C529 C520 1.457 . S
C529 N526 1.350 . S
C529 C528 1.434 . S
C530 C531 1.369 . S
C530 C532 1.419 . S
C530 H534 0.930 . S
C531 C530 1.369 . S
C531 C540 1.429 . S
C532 C530 1.419 . S
C532 C533 1.363 . S
C532 H535 0.929 . S
C533 C532 1.363 . S
C533 C539 1.428 . S
H534 C530 0.930 . S
H535 C532 0.929 . S
S536 N537 1.613 . S
S536 N538 1.610 . S
N537 S536 1.613 . S
N537 C540 1.350 . S
N538 S536 1.610 . S
N538 C539 1.351 . S
C539 C533 1.428 . S
C539 N538 1.351 . S
C539 C540 1.434 . S
C540 C531 1.429 . S
C540 N537 1.350 . S
C540 C539 1.434 . S
C541 C542 1.369 1_565 S
C541 C543 1.419 . S
C541 H545 0.930 . S
C542 C541 1.369 1_545 S
C542 C551 1.429 1_545 S
C543 C541 1.419 . S
C543 C544 1.363 . S
C543 H546 0.929 . S
C544 C543 1.363 . S
C544 C550 1.428 . S
H545 C541 0.930 . S
H546 C543 0.929 . S
S547 N548 1.613 1_565 S
S547 N549 1.610 . S
N548 S547 1.613 1_545 S
N548 C551 1.350 1_545 S
N549 S547 1.610 . S
N549 C550 1.351 . S
C550 C544 1.428 . S
C550 N549 1.351 . S
C550 C551 1.434 . S
C551 C542 1.429 1_565 S
C551 N548 1.350 1_565 S
C551 C550 1.434 . S
C552 C553 1.369 . S
C552 C554 1.419 . S
C552 H556 0.930 . S
C553 C552 1.369 . S
C553 C562 1.429 . S
C554 C552 1.419 . S
C554 C555 1.363 . S
C554 H557 0.929 . S
C555 C554 1.363 . S
C555 C561 1.428 . S
H556 C552 0.930 . S
H557 C554 0.929 . S
S558 N559 1.613 . S
S558 N560 1.610 . S
N559 S558 1.613 . S
N559 C562 1.350 . S
N560 S558 1.610 . S
N560 C561 1.351 . S
C561 C555 1.428 . S
C561 N560 1.351 . S
C561 C562 1.434 . S
C562 C553 1.429 . S
C562 N559 1.350 . S
C562 C561 1.434 . S
C563 C564 1.369 . S
C563 C565 1.419 . S
C563 H567 0.930 . S
C564 C563 1.369 . S
C564 C573 1.429 . S
C565 C563 1.419 . S
C565 C566 1.363 . S
C565 H568 0.929 . S
C566 C565 1.363 . S
C566 C572 1.428 . S
H567 C563 0.930 . S
H568 C565 0.929 . S
S569 N570 1.613 . S
S569 N571 1.610 . S
N570 S569 1.613 . S
N570 C573 1.350 . S
N571 S569 1.610 . S
N571 C572 1.351 . S
C572 C566 1.428 . S
C572 N571 1.351 . S
C572 C573 1.434 . S
C573 C564 1.429 . S
C573 N570 1.350 . S
C573 C572 1.434 . S
C574 C575 1.369 . S
C574 C576 1.419 . S
C574 H578 0.930 . S
C575 C574 1.369 . S
C575 C584 1.429 . S
C576 C574 1.419 . S
C576 C577 1.363 . S
C576 H579 0.929 . S
C577 C576 1.363 . S
C577 C583 1.428 . S
H578 C574 0.930 . S
H579 C576 0.929 . S
S580 N581 1.613 . S
S580 N582 1.610 . S
N581 S580 1.613 . S
N581 C584 1.350 . S
N582 S580 1.610 . S
N582 C583 1.351 . S
C583 C577 1.428 . S
C583 N582 1.351 . S
C583 C584 1.434 . S
C584 C575 1.429 . S
C584 N581 1.350 . S
C584 C583 1.434 . S
C585 C586 1.369 . S
C585 C587 1.419 . S
C585 H589 0.930 . S
C586 C585 1.369 . S
C586 C595 1.429 . S
C587 C585 1.419 . S
C587 C588 1.363 . S
C587 H590 0.929 . S
C588 C587 1.363 . S
C588 C594 1.428 . S
H589 C585 0.930 . S
H590 C587 0.929 . S
S591 N592 1.613 . S
S591 N593 1.610 . S
N592 S591 1.613 . S
N592 C595 1.350 . S
N593 S591 1.610 . S
N593 C594 1.351 . S
C594 C588 1.428 . S
C594 N593 1.351 . S
C594 C595 1.434 . S
C595 C586 1.429 . S
C595 N592 1.350 . S
C595 C594 1.434 . S
C596 C597 1.369 . S
C596 C598 1.419 . S
C596 H600 0.930 . S
C597 C596 1.369 . S
C597 C606 1.429 . S
C598 C596 1.419 . S
C598 C599 1.363 . S
C598 H601 0.929 . S
C599 C598 1.363 . S
C599 C605 1.428 . S
H600 C596 0.930 . S
H601 C598 0.929 . S
S602 N603 1.613 . S
S602 N604 1.610 . S
N603 S602 1.613 . S
N603 C606 1.350 . S
N604 S602 1.610 . S
N604 C605 1.351 . S
C605 C599 1.428 . S
C605 N604 1.351 . S
C605 C606 1.434 . S
C606 C597 1.429 . S
C606 N603 1.350 . S
C606 C605 1.434 . S
C607 C608 1.369 . S
C607 C609 1.419 . S
C607 H611 0.930 . S
C608 C607 1.369 . S
C608 C617 1.429 . S
C609 C607 1.419 . S
C609 C610 1.363 . S
C609 H612 0.929 . S
C610 C609 1.363 . S
C610 C616 1.428 . S
H611 C607 0.930 . S
H612 C609 0.929 . S
S613 N614 1.613 . S
S613 N615 1.610 . S
N614 S613 1.613 . S
N614 C617 1.350 . S
N615 S613 1.610 . S
N615 C616 1.351 . S
C616 C610 1.428 . S
C616 N615 1.351 . S
C616 C617 1.434 . S
C617 C608 1.429 . S
C617 N614 1.350 . S
C617 C616 1.434 . S
C618 C619 1.367 . S
C618 C620 1.419 . S
C618 H622 0.930 1_565 S
C619 C618 1.367 . S
C619 C628 1.465 . S
C620 C618 1.419 . S
C620 C621 1.363 . S
C620 H623 0.929 . S
C621 C620 1.363 . S
C621 C627 1.428 . S
H622 C618 0.930 1_545 S
H623 C620 0.929 . S
S624 N625 1.613 . S
S624 N626 1.610 . S
N625 S624 1.613 . S
N625 C628 1.350 . S
N626 S624 1.610 . S
N626 C627 1.351 . S
C627 C621 1.428 . S
C627 N626 1.351 . S
C627 C628 1.434 . S
C628 C619 1.465 . S
C628 N625 1.350 . S
C628 C627 1.434 . S
C629 C630 1.369 1_455 S
C629 C631 1.419 . S
C629 H633 0.930 1_455 S
C630 C629 1.369 1_655 S
C630 C639 1.429 1_655 S
C631 C629 1.419 . S
C631 C632 1.363 . S
C631 H634 0.929 . S
C632 C631 1.363 . S
C632 C638 1.428 . S
H633 C629 0.930 1_655 S
H634 C631 0.929 . S
S635 N636 1.613 . S
S635 N637 1.610 . S
N636 S635 1.613 . S
N636 C639 1.350 . S
N637 S635 1.610 . S
N637 C638 1.351 . S
C638 C632 1.428 . S
C638 N637 1.351 . S
C638 C639 1.434 . S
C639 C630 1.429 1_455 S
C639 N636 1.350 . S
C639 C638 1.434 . S
C640 C641 1.369 . S
C640 C642 1.419 . S
C640 H644 0.930 . S
C641 C640 1.369 . S
C641 C650 1.429 . S
C642 C640 1.419 . S
C642 C643 1.363 . S
C642 H645 0.929 . S
C643 C642 1.363 . S
C643 C649 1.428 . S
H644 C640 0.930 . S
H645 C642 0.929 . S
S646 N647 1.613 . S
S646 N648 1.610 . S
N647 S646 1.613 . S
N647 C650 1.350 . S
N648 S646 1.610 . S
N648 C649 1.351 . S
C649 C643 1.428 . S
C649 N648 1.351 . S
C649 C650 1.434 . S
C650 C641 1.429 . S
C650 N647 1.350 . S
C650 C649 1.434 . S
C651 C652 1.369 . S
C651 C653 1.419 . S
C651 H655 0.930 . S
C652 C651 1.369 . S
C652 C661 1.429 . S
C653 C651 1.419 . S
C653 C654 1.363 . S
C653 H656 0.929 . S
C654 C653 1.363 . S
C654 C660 1.428 . S
H655 C651 0.930 . S
H656 C653 0.929 . S
S657 N658 1.613 . S
S657 N659 1.610 . S
N658 S657 1.613 . S
N658 C661 1.350 . S
N659 S657 1.610 . S
N659 C660 1.351 . S
C660 C654 1.428 . S
C660 N659 1.351 . S
C660 C661 1.434 . S
C661 C652 1.429 . S
C661 N658 1.350 . S
C661 C660 1.434 . S
C662 C663 1.369 . S
C662 C664 1.419 . S
C662 H666 0.930 . S
C663 C662 1.369 . S
C663 C672 1.429 . S
C664 C662 1.419 . S
C664 C665 1.363 . S
C664 H667 0.929 . S
C665 C664 1.363 . S
C665 C671 1.428 . S
H666 C662 0.930 . S
H667 C664 0.929 . S
S668 N669 1.613 . S
S668 N670 1.610 . S
N669 S668 1.613 . S
N669 C672 1.350 . S
N670 S668 1.610 . S
N670 C671 1.351 . S
C671 C665 1.428 . S
C671 N670 1.351 . S
C671 C672 1.434 . S
C672 C663 1.429 . S
C672 N669 1.350 . S
C672 C671 1.434 . S
C673 C674 1.369 . S
C673 C675 1.419 . S
C673 H677 0.930 . S
C674 C673 1.369 . S
C674 C683 1.429 . S
C675 C673 1.419 . S
C675 C676 1.363 . S
C675 H678 0.929 . S
C676 C675 1.363 . S
C676 C682 1.428 . S
H677 C673 0.930 . S
H678 C675 0.929 . S
S679 N680 1.613 . S
S679 N681 1.610 . S
N680 S679 1.613 . S
N680 C683 1.350 . S
N681 S679 1.610 . S
N681 C682 1.351 . S
C682 C676 1.428 . S
C682 N681 1.351 . S
C682 C683 1.434 . S
C683 C674 1.429 . S
C683 N680 1.350 . S
C683 C682 1.434 . S
C684 C685 1.369 1_545 S
C684 C686 1.419 . S
C684 H688 0.930 . S
C685 C684 1.369 1_565 S
C685 C694 1.429 1_565 S
C686 C684 1.419 . S
C686 C687 1.363 . S
C686 H689 0.929 . S
C687 C686 1.363 . S
C687 C693 1.428 . S
H688 C684 0.930 . S
H689 C686 0.929 . S
S690 N691 1.613 1_545 S
S690 N692 1.610 . S
N691 S690 1.613 1_565 S
N691 C694 1.350 1_565 S
N692 S690 1.610 . S
N692 C693 1.351 . S
C693 C687 1.428 . S
C693 N692 1.351 . S
C693 C694 1.434 . S
C694 C685 1.429 1_545 S
C694 N691 1.350 1_545 S
C694 C693 1.434 . S
C695 C696 1.369 . S
C695 C697 1.419 1_455 S
C695 H699 0.930 . S
C696 C695 1.369 . S
C696 C705 1.429 . S
C697 C695 1.419 1_655 S
C697 C698 1.363 . S
C697 H700 0.929 . S
C698 C697 1.363 . S
C698 C704 1.428 . S
H699 C695 0.930 . S
H700 C697 0.929 . S
S701 N702 1.613 1_655 S
S701 N703 1.610 . S
N702 S701 1.613 1_455 S
N702 C705 1.350 . S
N703 S701 1.610 . S
N703 C704 1.351 . S
C704 C698 1.428 . S
C704 N703 1.351 . S
C704 C705 1.434 1_655 S
C705 C696 1.429 . S
C705 N702 1.350 . S
C705 C704 1.434 1_455 S
C706 C707 1.369 . S
C706 C708 1.419 . S
C706 H710 0.930 . S
C707 C706 1.369 . S
C707 C716 1.429 . S
C708 C706 1.419 . S
C708 C709 1.363 . S
C708 H711 0.929 . S
C709 C708 1.363 . S
C709 C715 1.428 . S
H710 C706 0.930 . S
H711 C708 0.929 . S
S712 N713 1.613 . S
S712 N714 1.610 . S
N713 S712 1.613 . S
N713 C716 1.350 . S
N714 S712 1.610 . S
N714 C715 1.351 . S
C715 C709 1.428 . S
C715 N714 1.351 . S
C715 C716 1.434 . S
C716 C707 1.429 . S
C716 N713 1.350 . S
C716 C715 1.434 . S
C717 C718 1.369 1_655 S
C717 C719 1.419 . S
C717 H721 0.930 . S
C718 C717 1.369 1_455 S
C718 C727 1.429 1_455 S
C719 C717 1.419 . S
C719 C720 1.363 . S
C719 H722 0.929 . S
C720 C719 1.363 . S
C720 C726 1.428 . S
H721 C717 0.930 . S
H722 C719 0.929 . S
S723 N724 1.613 1_655 S
S723 N725 1.610 . S
N724 S723 1.613 1_455 S
N724 C727 1.350 1_455 S
N725 S723 1.610 . S
N725 C726 1.351 . S
C726 C720 1.428 . S
C726 N725 1.351 . S
C726 C727 1.434 . S
C727 C718 1.429 1_655 S
C727 N724 1.350 1_655 S
C727 C726 1.434 . S
C728 C729 1.369 . S
C728 C730 1.419 . S
C728 H732 0.930 . S
C729 C728 1.369 . S
C729 C738 1.429 . S
C730 C728 1.419 . S
C730 C731 1.363 . S
C730 H733 0.929 . S
C731 C730 1.363 . S
C731 C737 1.428 . S
H732 C728 0.930 . S
H733 C730 0.929 . S
S734 N735 1.613 . S
S734 N736 1.610 . S
N735 S734 1.613 . S
N735 C738 1.350 . S
N736 S734 1.610 . S
N736 C737 1.351 . S
C737 C731 1.428 . S
C737 N736 1.351 . S
C737 C738 1.434 . S
C738 C729 1.429 . S
C738 N735 1.350 . S
C738 C737 1.434 . S
C739 C740 1.369 . S
C739 C741 1.419 . S
C739 H743 0.924 1_545 S
C740 C739 1.369 . S
C740 C749 1.429 . S
C741 C739 1.419 . S
C741 C742 1.363 . S
C741 H744 0.929 . S
C742 C741 1.363 . S
C742 C748 1.428 . S
H743 C739 0.924 1_565 S
H744 C741 0.929 . S
S745 N746 1.613 . S
S745 N747 1.610 . S
N746 S745 1.613 . S
N746 C749 1.350 . S
N747 S745 1.610 . S
N747 C748 1.351 . S
C748 C742 1.428 . S
C748 N747 1.351 . S
C748 C749 1.434 . S
C749 C740 1.429 . S
C749 N746 1.350 . S
C749 C748 1.434 . S
C750 C751 1.369 . S
C750 C752 1.419 . S
C750 H754 0.930 . S
C751 C750 1.369 . S
C751 C760 1.429 . S
C752 C750 1.419 . S
C752 C753 1.363 . S
C752 H755 0.929 . S
C753 C752 1.363 . S
C753 C759 1.428 . S
H754 C750 0.930 . S
H755 C752 0.929 . S
S756 N757 1.613 . S
S756 N758 1.610 . S
N757 S756 1.613 . S
N757 C760 1.350 . S
N758 S756 1.610 . S
N758 C759 1.351 . S
C759 C753 1.428 . S
C759 N758 1.351 . S
C759 C760 1.434 . S
C760 C751 1.429 . S
C760 N757 1.350 . S
C760 C759 1.434 . S
C761 C762 1.369 . S
C761 C763 1.419 . S
C761 H765 0.930 . S
C762 C761 1.369 . S
C762 C771 1.429 . S
C763 C761 1.419 . S
C763 C764 1.363 . S
C763 H766 0.929 . S
C764 C763 1.363 . S
C764 C770 1.428 . S
H765 C761 0.930 . S
H766 C763 0.929 . S
S767 N768 1.613 . S
S767 N769 1.610 . S
N768 S767 1.613 . S
N768 C771 1.350 . S
N769 S767 1.610 . S
N769 C770 1.351 . S
C770 C764 1.428 . S
C770 N769 1.351 . S
C770 C771 1.434 . S
C771 C762 1.429 . S
C771 N768 1.350 . S
C771 C770 1.434 . S
C772 C773 1.369 . S
C772 C774 1.419 . S
C772 H776 0.930 . S
C773 C772 1.369 . S
C773 C782 1.429 . S
C774 C772 1.419 . S
C774 C775 1.363 . S
C774 H777 0.929 . S
C775 C774 1.363 . S
C775 C781 1.428 . S
H776 C772 0.930 . S
H777 C774 0.929 . S
S778 N779 1.613 . S
S778 N780 1.610 . S
N779 S778 1.613 . S
N779 C782 1.350 . S
N780 S778 1.610 . S
N780 C781 1.351 . S
C781 C775 1.428 . S
C781 N780 1.351 . S
C781 C782 1.434 . S
C782 C773 1.429 . S
C782 N779 1.350 . S
C782 C781 1.434 . S
C783 C784 1.369 . S
C783 C785 1.419 1_565 S
C783 H787 0.930 1_565 S
C784 C783 1.369 . S
C784 C793 1.429 . S
C785 C783 1.419 1_545 S
C785 C786 1.363 1_545 S
C785 H788 0.929 . S
C786 C785 1.363 1_565 S
C786 C792 1.428 . S
H787 C783 0.930 1_545 S
H788 C785 0.929 . S
S789 N790 1.613 . S
S789 N791 1.610 . S
N790 S789 1.613 . S
N790 C793 1.350 . S
N791 S789 1.610 . S
N791 C792 1.351 . S
C792 C786 1.428 . S
C792 N791 1.351 . S
C792 C793 1.434 . S
C793 C784 1.429 . S
C793 N790 1.350 . S
C793 C792 1.434 . S
C794 C795 1.369 . S
C794 C796 1.419 . S
C794 H798 0.930 . S
C795 C794 1.369 . S
C795 C804 1.429 . S
C796 C794 1.419 . S
C796 C797 1.363 . S
C796 H799 0.929 . S
C797 C796 1.363 . S
C797 C803 1.428 . S
H798 C794 0.930 . S
H799 C796 0.929 . S
S800 N801 1.613 . S
S800 N802 1.610 . S
N801 S800 1.613 . S
N801 C804 1.350 . S
N802 S800 1.610 . S
N802 C803 1.351 . S
C803 C797 1.428 . S
C803 N802 1.351 . S
C803 C804 1.434 . S
C804 C795 1.429 . S
C804 N801 1.350 . S
C804 C803 1.434 . S
C805 C806 1.369 . S
C805 C807 1.419 . S
C805 H809 0.930 . S
C806 C805 1.369 . S
C806 C815 1.429 . S
C807 C805 1.419 . S
C807 C808 1.363 . S
C807 H810 0.929 . S
C808 C807 1.363 . S
C808 C814 1.428 . S
H809 C805 0.930 . S
H810 C807 0.929 . S
S811 N812 1.613 . S
S811 N813 1.610 . S
N812 S811 1.613 . S
N812 C815 1.350 . S
N813 S811 1.610 . S
N813 C814 1.351 . S
C814 C808 1.428 . S
C814 N813 1.351 . S
C814 C815 1.434 . S
C815 C806 1.429 . S
C815 N812 1.350 . S
C815 C814 1.434 . S
C816 C817 1.369 . S
C816 C818 1.419 . S
C816 H820 0.930 . S
C817 C816 1.369 . S
C817 C826 1.429 . S
C818 C816 1.419 . S
C818 C819 1.363 . S
C818 H821 0.929 . S
C819 C818 1.363 . S
C819 C825 1.428 . S
H820 C816 0.930 . S
H821 C818 0.929 . S
S822 N823 1.613 . S
S822 N824 1.610 . S
N823 S822 1.613 . S
N823 C826 1.350 1_455 S
N824 S822 1.610 . S
N824 C825 1.351 1_455 S
C825 C819 1.428 . S
C825 N824 1.351 1_655 S
C825 C826 1.434 . S
C826 C817 1.429 . S
C826 N823 1.350 1_655 S
C826 C825 1.434 . S
C827 C828 1.369 . S
C827 C829 1.419 . S
C827 H831 0.930 . S
C828 C827 1.369 . S
C828 C837 1.429 . S
C829 C827 1.419 . S
C829 C830 1.363 . S
C829 H832 0.929 . S
C830 C829 1.363 . S
C830 C836 1.428 . S
H831 C827 0.930 . S
H832 C829 0.929 . S
S833 N834 1.613 . S
S833 N835 1.610 . S
N834 S833 1.613 . S
N834 C837 1.350 . S
N835 S833 1.610 . S
N835 C836 1.351 . S
C836 C830 1.428 . S
C836 N835 1.351 . S
C836 C837 1.434 . S
C837 C828 1.429 . S
C837 N834 1.350 . S
C837 C836 1.434 . S
C838 C839 1.369 . S
C838 C840 1.419 . S
C838 H842 0.930 1_545 S
C839 C838 1.369 . S
C839 C848 1.429 . S
C840 C838 1.419 . S
C840 C841 1.363 . S
C840 H843 0.929 1_545 S
C841 C840 1.363 . S
C841 C847 1.428 . S
H842 C838 0.930 1_565 S
H843 C840 0.929 1_565 S
S844 N845 1.613 . S
S844 N846 1.610 . S
N845 S844 1.613 . S
N845 C848 1.350 . S
N846 S844 1.610 . S
N846 C847 1.351 . S
C847 C841 1.428 . S
C847 N846 1.351 . S
C847 C848 1.434 . S
C848 C839 1.429 . S
C848 N845 1.350 . S
C848 C847 1.434 . S
C849 C850 1.369 . S
C849 C851 1.419 . S
C849 H853 0.930 . S
C850 C849 1.369 . S
C850 C859 1.429 . S
C851 C849 1.419 . S
C851 C852 1.363 . S
C851 H854 0.929 . S
C852 C851 1.363 . S
C852 C858 1.428 . S
H853 C849 0.930 . S
H854 C851 0.929 . S
S855 N856 1.613 . S
S855 N857 1.610 . S
N856 S855 1.613 . S
N856 C859 1.350 . S
N857 S855 1.610 . S
N857 C858 1.351 . S
C858 C852 1.428 . S
C858 N857 1.351 . S
C858 C859 1.434 . S
C859 C850 1.429 . S
C859 N856 1.350 . S
C859 C858 1.434 . S
C860 C861 1.369 . S
C860 C862 1.419 . S
C860 H864 0.930 . S
C861 C860 1.369 . S
C861 C870 1.429 . S
C862 C860 1.419 . S
C862 C863 1.363 . S
C862 H865 0.929 . S
C863 C862 1.363 . S
C863 C869 1.428 . S
H864 C860 0.930 . S
H865 C862 0.929 . S
S866 N867 1.613 . S
S866 N868 1.610 . S
N867 S866 1.613 . S
N867 C870 1.350 . S
N868 S866 1.610 . S
N868 C869 1.351 . S
C869 C863 1.428 . S
C869 N868 1.351 . S
C869 C870 1.434 . S
C870 C861 1.429 . S
C870 N867 1.350 . S
C870 C869 1.434 . S
C871 C872 1.369 . S
C871 C873 1.419 . S
C871 H875 0.930 . S
C872 C871 1.369 . S
C872 C881 1.429 . S
C873 C871 1.419 . S
C873 C874 1.363 . S
C873 H876 0.929 . S
C874 C873 1.363 . S
C874 C880 1.428 . S
H875 C871 0.930 . S
H876 C873 0.929 . S
S877 N878 1.613 . S
S877 N879 1.610 . S
N878 S877 1.613 . S
N878 C881 1.350 . S
N879 S877 1.610 . S
N879 C880 1.351 . S
C880 C874 1.428 . S
C880 N879 1.351 . S
C880 C881 1.434 . S
C881 C872 1.429 . S
C881 N878 1.350 . S
C881 C880 1.434 . S
C882 C883 1.369 . S
C882 C884 1.419 . S
C882 H886 0.930 . S
C883 C882 1.369 . S
C883 C892 1.429 . S
C884 C882 1.419 . S
C884 C885 1.363 . S
C884 H887 0.929 . S
C885 C884 1.363 . S
C885 C891 1.428 . S
H886 C882 0.930 . S
H887 C884 0.929 . S
S888 N889 1.613 . S
S888 N890 1.610 . S
N889 S888 1.613 . S
N889 C892 1.350 . S
N890 S888 1.610 . S
N890 C891 1.351 . S
C891 C885 1.428 . S
C891 N890 1.351 . S
C891 C892 1.434 . S
C892 C883 1.429 . S
C892 N889 1.350 . S
C892 C891 1.434 . S
C893 C894 1.369 . S
C893 C895 1.419 . S
C893 H897 0.930 . S
C894 C893 1.369 . S
C894 C903 1.429 . S
C895 C893 1.419 . S
C895 C896 1.363 . S
C895 H898 0.929 . S
C896 C895 1.363 . S
C896 C902 1.428 . S
H897 C893 0.930 . S
H898 C895 0.929 . S
S899 N900 1.613 . S
S899 N901 1.610 . S
N900 S899 1.613 . S
N900 C903 1.350 . S
N901 S899 1.610 . S
N901 C902 1.351 . S
C902 C896 1.428 . S
C902 N901 1.351 . S
C902 C903 1.434 . S
C903 C894 1.429 . S
C903 N900 1.350 . S
C903 C902 1.434 . S
C904 C905 1.369 . S
C904 C906 1.419 . S
C904 H908 0.930 . S
C905 C904 1.369 . S
C905 C914 1.429 . S
C906 C904 1.419 . S
C906 C907 1.363 . S
C906 H909 0.929 . S
C907 C906 1.363 . S
C907 C913 1.428 . S
H908 C904 0.930 . S
H909 C906 0.929 . S
S910 N911 1.613 . S
S910 N912 1.610 . S
N911 S910 1.613 . S
N911 C914 1.350 . S
N912 S910 1.610 . S
N912 C913 1.351 . S
C913 C907 1.428 . S
C913 N912 1.351 . S
C913 C914 1.434 . S
C914 C905 1.429 . S
C914 N911 1.350 . S
C914 C913 1.434 . S
C915 C916 1.369 . S
C915 C917 1.419 . S
C915 H919 0.930 . S
C916 C915 1.369 . S
C916 C925 1.429 . S
C917 C915 1.419 . S
C917 C918 1.363 . S
C917 H920 0.929 . S
C918 C917 1.363 . S
C918 C924 1.428 . S
H919 C915 0.930 . S
H920 C917 0.929 . S
S921 N922 1.613 . S
S921 N923 1.610 . S
N922 S921 1.613 . S
N922 C925 1.350 . S
N923 S921 1.610 . S
N923 C924 1.351 . S
C924 C918 1.428 . S
C924 N923 1.351 . S
C924 C925 1.434 . S
C925 C916 1.429 . S
C925 N922 1.350 . S
C925 C924 1.434 . S
C926 C927 1.369 . S
C926 C928 1.419 . S
C926 H930 0.930 . S
C927 C926 1.369 . S
C927 C936 1.429 . S
C928 C926 1.419 . S
C928 C929 1.363 . S
C928 H931 0.929 . S
C929 C928 1.363 . S
C929 C935 1.428 . S
H930 C926 0.930 . S
H931 C928 0.929 . S
S932 N933 1.613 . S
S932 N934 1.610 . S
N933 S932 1.613 . S
N933 C936 1.350 . S
N934 S932 1.610 . S
N934 C935 1.351 . S
C935 C929 1.428 . S
C935 N934 1.351 . S
C935 C936 1.434 . S
C936 C927 1.429 . S
C936 N933 1.350 . S
C936 C935 1.434 . S
C937 C938 1.369 . S
C937 C939 1.419 . S
C937 H941 0.930 . S
C938 C937 1.369 . S
C938 C947 1.429 . S
C939 C937 1.419 . S
C939 C940 1.363 . S
C939 H942 0.929 . S
C940 C939 1.363 . S
C940 C946 1.428 . S
H941 C937 0.930 . S
H942 C939 0.929 . S
S943 N944 1.613 . S
S943 N945 1.610 . S
N944 S943 1.613 . S
N944 C947 1.350 . S
N945 S943 1.610 . S
N945 C946 1.351 . S
C946 C940 1.428 . S
C946 N945 1.351 . S
C946 C947 1.434 . S
C947 C938 1.429 . S
C947 N944 1.350 . S
C947 C946 1.434 . S
C948 C949 1.369 . S
C948 C950 1.419 . S
C948 H952 0.930 . S
C949 C948 1.369 . S
C949 C958 1.429 . S
C950 C948 1.419 . S
C950 C951 1.363 . S
C950 H953 0.929 . S
C951 C950 1.363 . S
C951 C957 1.428 . S
H952 C948 0.930 . S
H953 C950 0.929 . S
S954 N955 1.613 . S
S954 N956 1.610 . S
N955 S954 1.613 . S
N955 C958 1.350 . S
N956 S954 1.610 . S
N956 C957 1.351 . S
C957 C951 1.428 . S
C957 N956 1.351 . S
C957 C958 1.434 . S
C958 C949 1.429 . S
C958 N955 1.350 . S
C958 C957 1.434 . S
C959 C960 1.369 . S
C959 C961 1.419 . S
C959 H963 0.930 . S
C960 C959 1.369 . S
C960 C969 1.429 . S
C961 C959 1.419 . S
C961 C962 1.363 . S
C961 H964 0.929 . S
C962 C961 1.363 . S
C962 C968 1.428 . S
H963 C959 0.930 . S
H964 C961 0.929 . S
S965 N966 1.613 . S
S965 N967 1.610 . S
N966 S965 1.613 . S
N966 C969 1.350 . S
N967 S965 1.610 . S
N967 C968 1.351 . S
C968 C962 1.428 . S
C968 N967 1.351 . S
C968 C969 1.434 . S
C969 C960 1.429 . S
C969 N966 1.350 . S
C969 C968 1.434 . S
C970 C971 1.369 . S
C970 C972 1.419 . S
C970 H974 0.930 . S
C971 C970 1.369 . S
C971 C980 1.429 . S
C972 C970 1.419 . S
C972 C973 1.363 . S
C972 H975 0.929 . S
C973 C972 1.363 . S
C973 C979 1.428 . S
H974 C970 0.930 . S
H975 C972 0.929 . S
S976 N977 1.613 . S
S976 N978 1.610 . S
N977 S976 1.613 . S
N977 C980 1.350 . S
N978 S976 1.610 . S
N978 C979 1.351 . S
C979 C973 1.428 . S
C979 N978 1.351 . S
C979 C980 1.434 . S
C980 C971 1.429 . S
C980 N977 1.350 . S
C980 C979 1.434 . S
C388 C151 1.347 . S
C390 C215 1.410 . S
C399 C159 1.641 . S
C401 C236 1.641 . S
C410 C137 1.334 1_554 S
C412 C258 1.229 1_554 S
C421 C126 1.343 . S
C423 C237 1.214 . S
C434 C257 1.660 . S
C432 C104 1.671 . S
C443 C118 1.317 . S
C445 C216 1.197 . S
C456 C211 1.418 . S
C454 C129 1.469 . S
C467 C232 1.514 . S
C465 C107 1.551 . S
C476 C115 1.125 . S
C478 C255 1.230 . S
C487 C148 1.117 1_556 S
C489 C234 1.219 . S
C498 C162 1.543 . S
C500 C253 1.492 1_556 S
C511 C213 1.273 . S
C509 C140 1.521 . S
C522 C278 1.409 . S
C520 C19 1.331 1_455 S
C531 C27 1.638 . S
C533 C299 1.640 . S
C542 C5 1.328 . S
C544 C321 1.233 . S
C553 C192 1.338 . S
C555 C300 1.213 . S
C564 C170 1.666 . S
C566 C320 1.656 . S
C575 C184 1.319 . S
C577 C279 1.192 . S
C586 C195 1.467 . S
C588 C274 1.412 . S
C597 C173 1.554 . S
C599 C295 1.511 . S
C610 C318 1.233 . S
C608 C181 1.124 . S
C619 C16 1.115 1_565 S
C621 C297 1.216 . S
C632 C316 1.492 . S
C630 C30 1.543 . S
C641 C8 1.514 . S
C643 C276 1.275 . S
C654 C341 1.410 . S
C652 C85 1.351 . S
C663 C93 1.639 . S
C665 C362 1.639 . S
C676 C384 1.221 . S
C674 C71 1.327 . S
C687 C363 1.200 . S
C685 C60 1.330 . S
C698 C383 1.658 . S
C696 C38 1.670 . S
C707 C52 1.323 . S
C709 C342 1.194 . S
C718 C63 1.468 . S
C720 C337 1.411 . S
C729 C41 1.555 . S
C731 C358 1.517 . S
C742 C381 1.225 . S
C740 C49 1.138 1_545 S
C751 C82 1.113 . S
C753 C360 1.222 . S
C762 C96 1.544 . S
C764 C379 1.492 . S
C773 C74 1.519 . S
C775 C339 1.267 . S
C784 C172 1.558 . S
C786 C214 1.552 . S
C797 C235 1.366 . S
C795 C183 1.303 . S
C806 C194 1.526 . S
C808 C254 1.501 . S
C817 C73 1.583 . S
C819 C233 1.560 . S
C828 C84 1.334 . S
C830 C256 1.382 . S
C841 C212 1.645 . S
C839 C95 1.643 . S
C850 C40 1.562 . S
C852 C277 1.549 . S
C861 C51 1.295 . S
C863 C298 1.362 . S
C872 C62 1.531 . S
C874 C317 1.505 . S
C883 C139 1.586 . S
C885 C296 1.563 . S
C896 C319 1.384 . S
C894 C150 1.329 . S
C905 C161 1.642 . S
C907 C275 1.643 . S
C916 C106 1.556 . S
C918 C340 1.553 . S
C927 C117 1.308 . S
C929 C361 1.362 . S
C940 C380 1.501 . S
C938 C128 1.526 . S
C949 C7 1.587 . S
C951 C359 1.564 . S
C960 C18 1.328 . S
C962 C382 1.380 . S
C971 C29 1.644 . S
C973 C338 1.646 . S
