# Generated by pormake.
# Topology nia, (6,6)-cn, num edge types: 1
# Building blocks:
#     Node 0, Type 0, BuildingBlock: HISSIN_clean_sbu_0, # of connection points: 6
#     Node 1, Type 0, BuildingBlock: HISSIN_clean_sbu_0, # of connection points: 6
#     Node 2, Type 1, BuildingBlock: MIDCAF_clean_sbu_0, # of connection points: 6
#     Node 3, Type 1, BuildingBlock: MIDCAF_clean_sbu_0, # of connection points: 6
#     Edge 4, Type (0, 1), BuildingBlock: AJUNOK_clean_linker_0, # of connection points: 2
#     Edge 5, Type (0, 1), BuildingBlock: AJUNOK_clean_linker_0, # of connection points: 2
#     Edge 6, Type (0, 1), BuildingBlock: AJUNOK_clean_linker_0, # of connection points: 2
#     Edge 7, Type (0, 1), BuildingBlock: AJUNOK_clean_linker_0, # of connection points: 2
#     Edge 8, Type (0, 1), BuildingBlock: AJUNOK_clean_linker_0, # of connection points: 2
#     Edge 9, Type (0, 1), BuildingBlock: AJUNOK_clean_linker_0, # of connection points: 2
#     Edge 10, Type (0, 1), BuildingBlock: AJUNOK_clean_linker_0, # of connection points: 2
#     Edge 11, Type (0, 1), BuildingBlock: AJUNOK_clean_linker_0, # of connection points: 2
#     Edge 12, Type (0, 1), BuildingBlock: AJUNOK_clean_linker_0, # of connection points: 2
#     Edge 13, Type (0, 1), BuildingBlock: AJUNOK_clean_linker_0, # of connection points: 2
#     Edge 14, Type (0, 1), BuildingBlock: AJUNOK_clean_linker_0, # of connection points: 2
#     Edge 15, Type (0, 1), BuildingBlock: AJUNOK_clean_linker_0, # of connection points: 2
# Relax obj value: 0.422
# Max RMSD: 0.278
# Mean RMSD: 0.272
data_MOF--net-nia--node1-HISSIN_clean_sbu_0--node2-MIDCAF_clean_sbu_0--edge1-AJUNOK_clean_linker_0
_symmetry_space_group_name_H-M    P1
_symmetry_Int_Tables_number       1
_symmetry_cell_setting            triclinic
loop_
_symmetry_equiv_pos_as_xyz
'x, y, z'
_cell_length_a     19.615836
_cell_length_b     19.671969
_cell_length_c     26.003623
_cell_angle_alpha  75.769744
_cell_angle_beta   75.437522
_cell_angle_gamma 113.75621
loop_
_atom_site_label
_atom_site_type_symbol
_atom_site_fract_x
_atom_site_fract_y
_atom_site_fract_z
_atom_type_partial_charge
Eu0 Eu 0.0247 0.08306 0.05137 0.0
Eu1 Eu 0.97052 0.91972 0.03058 0.0
C2 C 0.16095 0.06871 0.9642 0.0
C3 C 0.03226 0.24911 0.1109 0.0
C4 C 0.05891 0.32808 0.07399 0.0
C5 C 0.00692 0.28553 0.19348 0.0
C6 C 0.06569 0.38668 0.09649 0.0
C7 C -0.00012 0.22672 0.17105 0.0
C8 C 0.04639 0.36656 0.15581 0.0
C9 C 0.05932 0.1993 0.08771 0.0
O10 O -0.00428 0.8858 0.10977 0.0
O11 O 0.07852 0.01573 0.09506 0.0
C12 C 0.05051 0.93804 0.12096 0.0
O13 O 0.88662 0.01234 0.09653 0.0
O14 O 0.94921 0.874 0.96547 0.0
O15 O 0.93653 0.79383 0.04616 0.0
O16 O 0.85523 0.88428 0.10271 0.0
C17 C 0.83382 0.93488 0.11603 0.0
O18 O 0.98888 0.11464 0.97714 0.0
O19 O 0.91399 -0.01575 0.98817 0.0
O20 O 0.10785 -0.00835 0.98254 0.0
O21 O 0.02746 0.12368 0.1213 0.0
O22 O 0.07588 0.21155 0.03323 0.0
O23 O 0.14001 0.11876 0.97901 0.0
C24 C 0.9703 0.76477 0.96205 0.0
C25 C 0.96442 0.69153 0.99198 0.0
C26 C 0.98412 0.735 0.87615 0.0
C27 C 0.96166 0.63766 0.96537 0.0
C28 C 0.98784 0.78929 0.90249 0.0
C29 C 0.96279 0.65624 0.90934 0.0
C30 C 0.9364 0.80286 0.99473 0.0
C31 C 0.93544 0.06082 0.96597 0.0
H32 H 0.08373 0.3469 1.02751 0.0
H33 H 0.99195 0.26923 0.23941 0.0
H34 H 0.09628 0.4493 0.06696 0.0
H35 H 0.97832 0.16604 0.20063 0.0
H36 H 0.95197 0.67159 0.0377 0.0
H37 H 0.98578 0.75074 0.8327 0.0
H38 H 0.94633 0.57721 0.99131 0.0
H39 H -0.00596 0.84614 0.87794 0.0
Eu40 Eu 0.92776 0.98056 0.52013 0.0
Eu41 Eu 0.06615 0.02211 0.56982 0.0
C42 C 0.92783 0.83843 0.61335 0.0
C43 C 0.78829 0.97617 0.43647 0.0
C44 C 0.71612 0.97672 0.46052 0.0
C45 C 0.76474 0.97839 0.34911 0.0
C46 C 0.66547 0.97111 0.43075 0.0
C47 C 0.81583 -0.01513 0.37851 0.0
C48 C 0.68633 0.96311 0.37772 0.0
C49 C 0.82158 0.94412 0.47452 0.0
O50 O 0.12194 0.00243 0.49133 0.0
O51 O 0.00389 0.93136 0.482 0.0
C52 C 0.08109 0.95617 0.46871 0.0
O53 O 0.01833 0.11205 0.46072 0.0
O54 O 0.08895 0.00062 0.64813 0.0
O55 O 0.18838 0.08807 0.56516 0.0
O56 O 0.08958 0.14508 0.51659 0.0
C57 C 0.07048 0.16657 0.47267 0.0
O58 O 0.90199 0.04954 0.57248 0.0
O59 O 0.96235 0.02078 0.6324 0.0
O60 O 0.00563 0.88726 0.59631 0.0
O61 O 0.89536 0.95853 0.45023 0.0
O62 O 0.80386 0.94404 0.5265 0.0
O63 O 0.88157 0.86669 0.59934 0.0
C64 C 0.22095 0.0292 0.64028 0.0
C65 C 0.29198 0.04011 0.60099 0.0
C66 C 0.27377 0.02138 0.7147 0.0
C67 C 0.3559 0.04735 0.61767 0.0
C68 C 0.20985 0.01362 0.69817 0.0
C69 C 0.34919 0.04483 0.67328 0.0
C70 C 0.16646 0.05113 0.62055 0.0
C71 C 0.91571 0.04822 0.61935 0.0
H72 H 0.69392 0.97104 0.50481 0.0
H73 H 0.78166 0.97259 0.30805 0.0
H74 H 0.60486 0.95964 0.45317 0.0
H75 H 0.87189 -0.0143 0.3585 0.0
H76 H 0.30118 0.0509 0.55624 0.0
H77 H 0.267 0.01946 0.75778 0.0
H78 H 0.41348 0.06436 0.58534 0.0
H79 H 0.15502 0.00445 0.72917 0.0
Zn80 Zn 0.35079 0.78378 0.17943 0.0
Zn81 Zn 0.24117 0.64952 0.39901 0.0
Zn82 Zn 0.28861 0.71021 0.28995 0.0
C83 C 0.40876 0.747 0.35258 0.0
C84 C 0.1893 0.5131 0.3775 0.0
O85 O 0.22728 0.78035 0.26495 0.0
O86 O 0.3011 0.85289 0.17152 0.0
C87 C 0.48704 0.81885 0.19499 0.0
O88 O 0.39728 0.75794 0.30545 0.0
O89 O 0.35031 0.69847 0.40042 0.0
O90 O 0.18504 0.53206 0.42067 0.0
O91 O 0.22311 0.56956 0.32621 0.0
O92 O 0.46961 0.83583 0.15187 0.0
O93 O 0.42921 0.77583 0.24609 0.0
O94 O 0.23437 0.61054 0.26801 0.0
O95 O 0.28936 0.67912 0.1731 0.0
C96 C 0.24163 0.61395 0.21694 0.0
O97 O 0.22327 0.76956 0.32496 0.0
O98 O 0.1835 0.70753 0.41903 0.0
C99 C 0.24169 0.83237 0.21645 0.0
C100 C 0.18925 0.76126 0.37714 0.0
Zn101 Zn 0.64197 0.23014 0.89997 0.0
Zn102 Zn 0.78617 0.3573 0.68306 0.0
Zn103 Zn 0.70707 0.29489 0.79162 0.0
C104 C 0.81019 0.49183 0.7014 0.0
C105 C 0.61622 0.24664 0.71704 0.0
O106 O 0.76248 0.22329 0.82475 0.0
O107 O 0.68063 0.15218 0.91666 0.0
C108 C 0.75439 0.39794 0.86107 0.0
O109 O 0.76959 0.43492 0.75282 0.0
O110 O 0.82864 0.47427 0.65841 0.0
O111 O 0.68419 0.29063 0.67479 0.0
O112 O 0.60882 0.24463 0.76785 0.0
O113 O 0.70739 0.33353 0.90562 0.0
O114 O 0.75905 0.3987 0.81085 0.0
O115 O 0.56697 0.23112 0.82573 0.0
O116 O 0.52536 0.18787 0.92067 0.0
C117 C 0.5088 0.19569 0.87654 0.0
O118 O 0.77458 0.23415 0.76223 0.0
O119 O 0.86199 0.31455 0.67249 0.0
C120 C 0.74226 0.17016 0.87439 0.0
C121 C 0.83162 0.24988 0.71584 0.0
C122 C 0.16793 0.96681 0.1507 0.0
C123 C 0.09066 0.91085 0.15657 0.0
C124 C 0.21386 0.94166 0.17554 0.0
C125 C 0.18381 0.85988 0.20846 0.0
H126 H 0.19571 0.0301 0.12358 0.0
H127 H 0.27543 -0.014 0.16595 0.0
S128 S 0.98174 0.69013 0.24324 0.0
N129 N 0.98333 0.7703 0.2026 0.0
N130 N 0.06995 0.72361 0.24944 0.0
C131 C 0.10459 0.80401 0.21834 0.0
C132 C 0.05796 0.82934 0.19241 0.0
C133 C 0.47853 0.16919 0.64302 0.0
C134 C 0.42245 0.0894 0.6827 0.0
C135 C 0.5404 0.21992 0.65509 0.0
C136 C 0.54773 0.19306 0.70747 0.0
H137 H 0.47261 0.19392 0.60337 0.0
H138 H 0.58194 0.28123 0.62357 0.0
S139 S 0.42301 -0.01332 0.82235 0.0
N140 N 0.38214 -0.01636 0.77407 0.0
N141 N 0.49948 0.07967 0.79695 0.0
C142 C 0.49405 0.11269 0.74677 0.0
C143 C 0.43113 0.06066 0.73425 0.0
C144 C 0.17701 0.45938 0.15395 0.0
C145 C 0.09262 0.42802 0.17432 0.0
C146 C 0.22481 0.51724 0.17035 0.0
C147 C 0.18938 0.5444 0.20827 0.0
H148 H 0.20628 0.43926 0.12472 0.0
H149 H 0.28995 0.54196 0.15252 0.0
S150 S 0.97177 0.4828 0.27243 0.0
N151 N 0.97544 0.42791 0.23389 0.0
N152 N 0.06612 0.53858 0.26456 0.0
C153 C 0.10506 0.51316 0.2295 0.0
C154 C 0.05622 0.45403 0.21269 0.0
C155 C 0.94108 0.14088 0.67147 0.0
C156 C 0.88714 0.08777 0.65425 0.0
C157 C 0.92097 0.19 0.69591 0.0
C158 C 0.84509 0.18503 0.70596 0.0
H159 H 0.00131 0.14848 0.66246 0.0
H160 H 0.96618 0.23457 0.70447 0.0
S161 S 0.67961 0.05044 0.67407 0.0
N162 N 0.75326 0.03023 0.65202 0.0
N163 N 0.71401 0.11958 0.70048 0.0
C164 C 0.78876 0.12839 0.69259 0.0
C165 C 0.81011 0.08041 0.66605 0.0
C166 C 0.7153 0.9576 0.12568 0.0
C167 C 0.74571 0.90697 0.14493 0.0
C168 C 0.63153 0.92942 0.14451 0.0
C169 C 0.57433 0.85015 0.18479 0.0
H170 H 0.75632 0.01817 0.09306 0.0
H171 H 0.61125 0.96943 0.1259 0.0
S172 S 0.62194 0.69597 0.2537 0.0
N173 N 0.71167 0.77494 0.20957 0.0
N174 N 0.55427 0.72328 0.24669 0.0
C175 C 0.60377 0.80045 0.20733 0.0
C176 C 0.68934 0.82845 0.18689 0.0
C177 C 0.94874 0.71853 0.63222 0.0
C178 C 0.89556 0.74959 0.64284 0.0
C179 C 0.92088 0.63524 0.65445 0.0
C180 C 0.83904 0.57879 0.69006 0.0
H181 H 0.01221 0.75865 0.60414 0.0
H182 H 0.96359 0.61455 0.64213 0.0
S183 S 0.67521 0.62738 0.73485 0.0
N184 N 0.7568 0.71639 0.69357 0.0
N185 N 0.70529 0.55976 0.73695 0.0
C186 C 0.78562 0.60867 0.70348 0.0
C187 C 0.8136 0.6939 0.67949 0.0
C188 C 0.18085 0.90847 0.4447 0.0
C189 C 0.11799 0.91957 0.4352 0.0
C190 C 0.20572 0.8601 0.42292 0.0
C191 C 0.16986 0.82202 0.38998 0.0
H192 H 0.20786 0.93325 0.47201 0.0
H193 H 0.25166 0.84999 0.43375 0.0
S194 S 0.00956 0.83888 0.34694 0.0
N195 N 0.02522 0.89395 0.38602 0.0
N196 N 0.07278 0.80305 0.34535 0.0
C197 C 0.11077 0.83653 0.37693 0.0
C198 C 0.08464 0.88531 0.39952 0.0
C199 C 0.30326 0.17795 0.89331 0.0
C200 C 0.24891 0.09732 0.93296 0.0
C201 C 0.38797 0.20826 0.86997 0.0
C202 C 0.42143 0.15949 0.88645 0.0
H203 H 0.28037 0.21865 0.8817 0.0
H204 H 0.42765 0.27155 0.84206 0.0
S205 S 0.3066 0.9447 0.98817 0.0
N206 N 0.2359 0.96907 0.98563 0.0
N207 N 0.39376 0.02673 0.94397 0.0
C208 C 0.36768 0.07843 0.92452 0.0
C209 C 0.28188 0.04715 0.94714 0.0
C210 C 0.17574 0.3112 0.44228 0.0
C211 C 0.10635 0.25529 0.43851 0.0
C212 C 0.20517 0.39474 0.41798 0.0
C213 C 0.16713 0.42718 0.38847 0.0
H214 H 0.20639 0.29027 0.46602 0.0
H215 H 0.25645 0.4344 0.42473 0.0
S216 S 0.98548 0.30854 0.36382 0.0
N217 N 0.00251 0.23958 0.39993 0.0
N218 N 0.05725 0.39665 0.35559 0.0
C219 C 0.09985 0.37275 0.38201 0.0
C220 C 0.0698 0.28701 0.40656 0.0
C221 C 0.92448 0.16307 0.89318 0.0
C222 C 0.88937 0.08429 0.9347 0.0
C223 C 0.87815 0.18854 0.86864 0.0
C224 C 0.79471 0.13659 0.88595 0.0
H225 H 0.98756 0.20613 0.88091 0.0
H226 H 0.90639 0.25085 0.83928 0.0
S227 S 0.67455 0.92324 0.99018 0.0
N228 N 0.76687 0.95306 0.98876 0.0
N229 N 0.68014 0.00185 0.94414 0.0
C230 C 0.75998 0.05678 0.92516 0.0
C231 C 0.80715 0.03036 0.94921 0.0
C232 C 0.59994 0.9346 0.32105 0.0
C233 C 0.62112 0.9077 0.36638 0.0
C234 C 0.53355 0.88036 0.31405 0.0
C235 C 0.48759 0.79838 0.35212 0.0
H236 H 0.63278 -0.00218 0.29249 0.0
H237 H 0.51544 0.90364 0.28083 0.0
S238 S 0.52824 0.6977 0.47161 0.0
N239 N 0.59839 0.79368 0.4453 0.0
N240 N 0.47356 0.69193 0.4322 0.0
C241 C 0.51206 0.77044 0.39502 0.0
C242 C 0.57909 0.82522 0.4021 0.0
C243 C 0.83279 0.53722 0.93339 0.0
C244 C 0.91399 0.59045 0.89487 0.0
C245 C 0.78078 0.47778 0.92037 0.0
C246 C 0.80777 0.46936 0.86827 0.0
H247 H 0.80874 0.54224 0.97376 0.0
H248 H 0.71898 0.43735 0.95185 0.0
S249 S 0.01517 0.59378 0.7528 0.0
N250 N 0.01918 0.63279 0.80217 0.0
N251 N 0.92138 0.51843 0.77789 0.0
C252 C 0.88861 0.52294 0.82871 0.0
C253 C 0.94177 0.58421 0.84201 0.0
loop_
_geom_bond_atom_site_label_1
_geom_bond_atom_site_label_2
_geom_bond_distance
_geom_bond_site_symmetry_2
_ccdc_geom_bond_type
Eu0 C9 2.828 . S
Eu0 O11 2.392 1_545 S
Eu0 O13 2.418 1_455 S
Eu0 O18 2.373 1_455 S
Eu0 O21 2.488 . S
Eu0 O22 2.471 . S
Eu0 O23 2.349 1_554 S
Eu1 O10 2.373 1_656 S
Eu1 O14 2.488 1_655 S
Eu1 O15 2.471 . S
Eu1 O16 2.349 1_556 S
Eu1 O19 2.392 1_565 S
Eu1 O20 2.418 1_665 S
Eu1 C30 2.828 . S
C2 O20 1.244 . S
C2 O23 1.265 . S
C3 C4 1.379 . S
C3 C7 1.373 . S
C3 C9 1.505 . S
C4 C3 1.379 . S
C4 C6 1.369 . S
C4 H32 0.930 . S
C5 C7 1.383 . S
C5 C8 1.382 . S
C5 H33 0.930 . S
C6 C4 1.369 . S
C6 C8 1.392 . S
C6 H34 0.930 . S
C7 C3 1.373 . S
C7 C5 1.383 . S
C7 H35 0.931 . S
C8 C5 1.382 . S
C8 C6 1.392 . S
C9 Eu0 2.828 . S
C9 C3 1.505 . S
C9 O21 1.249 . S
C9 O22 1.244 . S
O10 Eu1 2.373 1_454 S
O10 C12 1.258 . S
O11 Eu0 2.392 1_565 S
O11 C12 1.242 . S
C12 O10 1.258 . S
C12 O11 1.242 . S
O13 Eu0 2.418 1_655 S
O13 C17 1.244 1_545 S
O14 Eu1 2.488 1_455 S
O14 C30 1.249 1_455 S
O15 Eu1 2.471 . S
O15 C30 1.244 . S
O16 Eu1 2.349 1_554 S
O16 C17 1.265 . S
C17 O13 1.244 1_565 S
C17 O16 1.265 . S
O18 Eu0 2.373 1_655 S
O18 C31 1.258 1_554 S
O19 Eu1 2.392 1_545 S
O19 C31 1.242 . S
O20 Eu1 2.418 1_445 S
O20 C2 1.244 . S
O21 Eu0 2.488 . S
O21 C9 1.249 . S
O22 Eu0 2.471 . S
O22 C9 1.244 . S
O23 Eu0 2.349 1_556 S
O23 C2 1.265 . S
C24 C25 1.379 . S
C24 C28 1.373 . S
C24 C30 1.505 . S
C25 C24 1.379 . S
C25 C27 1.369 . S
C25 H36 0.930 1_556 S
C26 C28 1.383 . S
C26 C29 1.382 . S
C26 H37 0.930 . S
C27 C25 1.369 . S
C27 C29 1.392 . S
C27 H38 0.930 1_556 S
C28 C24 1.373 . S
C28 C26 1.383 . S
C28 H39 0.931 1_655 S
C29 C26 1.382 . S
C29 C27 1.392 . S
C30 Eu1 2.828 . S
C30 O14 1.249 1_655 S
C30 O15 1.244 . S
C30 C24 1.505 . S
C31 O18 1.258 1_556 S
C31 O19 1.242 . S
H32 C4 0.930 . S
H33 C5 0.930 . S
H34 C6 0.930 . S
H35 C7 0.931 . S
H36 C25 0.930 1_554 S
H37 C26 0.930 . S
H38 C27 0.930 1_554 S
H39 C28 0.931 1_455 S
Eu40 C49 2.828 . S
Eu40 O51 2.392 1_655 S
Eu40 O53 2.418 1_665 S
Eu40 O58 2.373 1_565 S
Eu40 O61 2.488 1_565 S
Eu40 O62 2.471 . S
Eu40 O63 2.349 . S
Eu41 O50 2.373 1_545 S
Eu41 O54 2.488 . S
Eu41 O55 2.471 . S
Eu41 O56 2.349 . S
Eu41 O59 2.392 1_455 S
Eu41 O60 2.418 1_445 S
Eu41 C70 2.828 . S
C42 O60 1.244 . S
C42 O63 1.265 . S
C43 C44 1.379 . S
C43 C47 1.373 . S
C43 C49 1.505 . S
C44 C43 1.379 . S
C44 C46 1.369 . S
C44 H72 0.930 . S
C45 C47 1.383 . S
C45 C48 1.382 . S
C45 H73 0.930 . S
C46 C44 1.369 . S
C46 C48 1.392 . S
C46 H74 0.930 . S
C47 C43 1.373 . S
C47 C45 1.383 . S
C47 H75 0.931 1_565 S
C48 C45 1.382 . S
C48 C46 1.392 . S
C49 Eu40 2.828 . S
C49 C43 1.505 . S
C49 O61 1.249 1_565 S
C49 O62 1.244 . S
O50 Eu41 2.373 1_565 S
O50 C52 1.258 . S
O51 Eu40 2.392 1_455 S
O51 C52 1.242 . S
C52 O50 1.258 . S
C52 O51 1.242 . S
O53 Eu40 2.418 1_445 S
O53 C57 1.244 . S
O54 Eu41 2.488 . S
O54 C70 1.249 . S
O55 Eu41 2.471 . S
O55 C70 1.244 . S
O56 Eu41 2.349 . S
O56 C57 1.265 . S
C57 O53 1.244 . S
C57 O56 1.265 . S
O58 Eu40 2.373 1_545 S
O58 C71 1.258 . S
O59 Eu41 2.392 1_655 S
O59 C71 1.242 . S
O60 Eu41 2.418 1_665 S
O60 C42 1.244 . S
O61 Eu40 2.488 1_545 S
O61 C49 1.249 1_545 S
O62 Eu40 2.471 . S
O62 C49 1.244 . S
O63 Eu40 2.349 . S
O63 C42 1.265 . S
C64 C65 1.379 . S
C64 C68 1.373 . S
C64 C70 1.505 . S
C65 C64 1.379 . S
C65 C67 1.369 . S
C65 H76 0.930 . S
C66 C68 1.383 . S
C66 C69 1.382 . S
C66 H77 0.930 . S
C67 C65 1.369 . S
C67 C69 1.392 . S
C67 H78 0.930 . S
C68 C64 1.373 . S
C68 C66 1.383 . S
C68 H79 0.931 . S
C69 C66 1.382 . S
C69 C67 1.392 . S
C70 Eu41 2.828 . S
C70 O54 1.249 . S
C70 O55 1.244 . S
C70 C64 1.505 . S
C71 O58 1.258 . S
C71 O59 1.242 . S
H72 C44 0.930 . S
H73 C45 0.930 . S
H74 C46 0.930 . S
H75 C47 0.931 1_545 S
H76 C65 0.930 . S
H77 C66 0.930 . S
H78 C67 0.930 . S
H79 C68 0.931 . S
Zn80 O86 1.920 . S
Zn80 O92 1.898 . S
Zn80 O95 1.905 . S
Zn81 O89 1.905 . S
Zn81 O90 1.898 . S
Zn81 O98 1.920 . S
Zn82 O85 2.080 . S
Zn82 O88 2.114 . S
Zn82 O91 2.120 . S
Zn82 O93 2.120 . S
Zn82 O94 2.114 . S
Zn82 O97 2.080 . S
C83 O88 1.166 . S
C83 O89 1.182 . S
C84 O90 1.167 . S
C84 O91 1.299 . S
O85 Zn82 2.080 . S
O85 C99 1.305 . S
O86 Zn80 1.920 . S
O86 C99 1.234 . S
C87 O92 1.167 . S
C87 O93 1.299 . S
O88 Zn82 2.114 . S
O88 C83 1.166 . S
O89 Zn81 1.905 . S
O89 C83 1.182 . S
O90 Zn81 1.898 . S
O90 C84 1.167 . S
O91 Zn82 2.120 . S
O91 C84 1.299 . S
O92 Zn80 1.898 . S
O92 C87 1.167 . S
O93 Zn82 2.120 . S
O93 C87 1.299 . S
O94 Zn82 2.114 . S
O94 C96 1.166 . S
O95 Zn80 1.905 . S
O95 C96 1.182 . S
C96 O94 1.166 . S
C96 O95 1.182 . S
O97 Zn82 2.080 . S
O97 C100 1.305 . S
O98 Zn81 1.920 . S
O98 C100 1.234 . S
C99 O85 1.305 . S
C99 O86 1.234 . S
C100 O97 1.305 . S
C100 O98 1.234 . S
Zn101 O107 1.920 . S
Zn101 O113 1.898 . S
Zn101 O116 1.905 . S
Zn102 O110 1.905 . S
Zn102 O111 1.898 . S
Zn102 O119 1.920 . S
Zn103 O106 2.080 . S
Zn103 O109 2.114 . S
Zn103 O112 2.120 . S
Zn103 O114 2.120 . S
Zn103 O115 2.114 . S
Zn103 O118 2.080 . S
C104 O109 1.166 . S
C104 O110 1.182 . S
C105 O111 1.167 . S
C105 O112 1.299 . S
O106 Zn103 2.080 . S
O106 C120 1.305 . S
O107 Zn101 1.920 . S
O107 C120 1.234 . S
C108 O113 1.167 . S
C108 O114 1.299 . S
O109 Zn103 2.114 . S
O109 C104 1.166 . S
O110 Zn102 1.905 . S
O110 C104 1.182 . S
O111 Zn102 1.898 . S
O111 C105 1.167 . S
O112 Zn103 2.120 . S
O112 C105 1.299 . S
O113 Zn101 1.898 . S
O113 C108 1.167 . S
O114 Zn103 2.120 . S
O114 C108 1.299 . S
O115 Zn103 2.114 . S
O115 C117 1.166 . S
O116 Zn101 1.905 . S
O116 C117 1.182 . S
C117 O115 1.166 . S
C117 O116 1.182 . S
O118 Zn103 2.080 . S
O118 C121 1.305 . S
O119 Zn102 1.920 . S
O119 C121 1.234 . S
C120 O106 1.305 . S
C120 O107 1.234 . S
C121 O118 1.305 . S
C121 O119 1.234 . S
C122 C123 1.369 . S
C122 C124 1.419 . S
C122 H126 0.930 . S
C123 C122 1.369 . S
C123 C132 1.429 . S
C124 C122 1.419 . S
C124 C125 1.363 . S
C124 H127 0.929 . S
C125 C124 1.363 . S
C125 C131 1.428 . S
H126 C122 0.930 . S
H127 C124 0.929 . S
S128 N129 1.613 . S
S128 N130 1.610 1_655 S
N129 S128 1.613 . S
N129 C132 1.350 1_655 S
N130 S128 1.610 1_455 S
N130 C131 1.351 . S
C131 C125 1.428 . S
C131 N130 1.351 . S
C131 C132 1.434 . S
C132 C123 1.429 . S
C132 N129 1.350 1_455 S
C132 C131 1.434 . S
C133 C134 1.369 . S
C133 C135 1.419 . S
C133 H137 0.930 . S
C134 C133 1.369 . S
C134 C143 1.429 . S
C135 C133 1.419 . S
C135 C136 1.363 . S
C135 H138 0.929 . S
C136 C135 1.363 . S
C136 C142 1.428 . S
H137 C133 0.930 . S
H138 C135 0.929 . S
S139 N140 1.613 1_565 S
S139 N141 1.610 1_565 S
N140 S139 1.613 1_545 S
N140 C143 1.350 . S
N141 S139 1.610 1_545 S
N141 C142 1.351 . S
C142 C136 1.428 . S
C142 N141 1.351 . S
C142 C143 1.434 . S
C143 C134 1.429 . S
C143 N140 1.350 . S
C143 C142 1.434 . S
C144 C145 1.369 . S
C144 C146 1.419 . S
C144 H148 0.930 . S
C145 C144 1.369 . S
C145 C154 1.429 . S
C146 C144 1.419 . S
C146 C147 1.363 . S
C146 H149 0.929 . S
C147 C146 1.363 . S
C147 C153 1.428 . S
H148 C144 0.930 . S
H149 C146 0.929 . S
S150 N151 1.613 . S
S150 N152 1.610 . S
N151 S150 1.613 . S
N151 C154 1.350 . S
N152 S150 1.610 . S
N152 C153 1.351 . S
C153 C147 1.428 . S
C153 N152 1.351 . S
C153 C154 1.434 . S
C154 C145 1.429 . S
C154 N151 1.350 . S
C154 C153 1.434 . S
C155 C156 1.369 . S
C155 C157 1.419 . S
C155 H159 0.930 . S
C156 C155 1.369 . S
C156 C165 1.429 . S
C157 C155 1.419 . S
C157 C158 1.363 . S
C157 H160 0.929 . S
C158 C157 1.363 . S
C158 C164 1.428 . S
H159 C155 0.930 . S
H160 C157 0.929 . S
S161 N162 1.613 . S
S161 N163 1.610 . S
N162 S161 1.613 . S
N162 C165 1.350 . S
N163 S161 1.610 . S
N163 C164 1.351 . S
C164 C158 1.428 . S
C164 N163 1.351 . S
C164 C165 1.434 . S
C165 C156 1.429 . S
C165 N162 1.350 . S
C165 C164 1.434 . S
C166 C167 1.369 . S
C166 C168 1.419 . S
C166 H170 0.930 1_565 S
C167 C166 1.369 . S
C167 C176 1.429 . S
C168 C166 1.419 . S
C168 C169 1.363 . S
C168 H171 0.929 1_565 S
C169 C168 1.363 . S
C169 C175 1.428 . S
H170 C166 0.930 1_545 S
H171 C168 0.929 1_545 S
S172 N173 1.613 . S
S172 N174 1.610 . S
N173 S172 1.613 . S
N173 C176 1.350 . S
N174 S172 1.610 . S
N174 C175 1.351 . S
C175 C169 1.428 . S
C175 N174 1.351 . S
C175 C176 1.434 . S
C176 C167 1.429 . S
C176 N173 1.350 . S
C176 C175 1.434 . S
C177 C178 1.369 . S
C177 C179 1.419 . S
C177 H181 0.930 . S
C178 C177 1.369 . S
C178 C187 1.429 . S
C179 C177 1.419 . S
C179 C180 1.363 . S
C179 H182 0.929 . S
C180 C179 1.363 . S
C180 C186 1.428 . S
H181 C177 0.930 . S
H182 C179 0.929 . S
S183 N184 1.613 . S
S183 N185 1.610 . S
N184 S183 1.613 . S
N184 C187 1.350 . S
N185 S183 1.610 . S
N185 C186 1.351 . S
C186 C180 1.428 . S
C186 N185 1.351 . S
C186 C187 1.434 . S
C187 C178 1.429 . S
C187 N184 1.350 . S
C187 C186 1.434 . S
C188 C189 1.369 . S
C188 C190 1.419 . S
C188 H192 0.930 . S
C189 C188 1.369 . S
C189 C198 1.429 . S
C190 C188 1.419 . S
C190 C191 1.363 . S
C190 H193 0.929 . S
C191 C190 1.363 . S
C191 C197 1.428 . S
H192 C188 0.930 . S
H193 C190 0.929 . S
S194 N195 1.613 . S
S194 N196 1.610 . S
N195 S194 1.613 . S
N195 C198 1.350 . S
N196 S194 1.610 . S
N196 C197 1.351 . S
C197 C191 1.428 . S
C197 N196 1.351 . S
C197 C198 1.434 . S
C198 C189 1.429 . S
C198 N195 1.350 . S
C198 C197 1.434 . S
C199 C200 1.369 . S
C199 C201 1.419 . S
C199 H203 0.930 . S
C200 C199 1.369 . S
C200 C209 1.429 . S
C201 C199 1.419 . S
C201 C202 1.363 . S
C201 H204 0.929 . S
C202 C201 1.363 . S
C202 C208 1.428 . S
H203 C199 0.930 . S
H204 C201 0.929 . S
S205 N206 1.613 1_554 S
S205 N207 1.610 1_554 S
N206 S205 1.613 1_556 S
N206 C209 1.350 . S
N207 S205 1.610 1_556 S
N207 C208 1.351 . S
C208 C202 1.428 . S
C208 N207 1.351 . S
C208 C209 1.434 . S
C209 C200 1.429 . S
C209 N206 1.350 . S
C209 C208 1.434 . S
C210 C211 1.369 . S
C210 C212 1.419 . S
C210 H214 0.930 . S
C211 C210 1.369 . S
C211 C220 1.429 . S
C212 C210 1.419 . S
C212 C213 1.363 . S
C212 H215 0.929 . S
C213 C212 1.363 . S
C213 C219 1.428 . S
H214 C210 0.930 . S
H215 C212 0.929 . S
S216 N217 1.613 1_655 S
S216 N218 1.610 1_655 S
N217 S216 1.613 1_455 S
N217 C220 1.350 . S
N218 S216 1.610 1_455 S
N218 C219 1.351 . S
C219 C213 1.428 . S
C219 N218 1.351 . S
C219 C220 1.434 . S
C220 C211 1.429 . S
C220 N217 1.350 . S
C220 C219 1.434 . S
C221 C222 1.369 . S
C221 C223 1.419 . S
C221 H225 0.930 . S
C222 C221 1.369 . S
C222 C231 1.429 . S
C223 C221 1.419 . S
C223 C224 1.363 . S
C223 H226 0.929 . S
C224 C223 1.363 . S
C224 C230 1.428 . S
H225 C221 0.930 . S
H226 C223 0.929 . S
S227 N228 1.613 1_554 S
S227 N229 1.610 1_554 S
N228 S227 1.613 1_556 S
N228 C231 1.350 . S
N229 S227 1.610 1_556 S
N229 C230 1.351 . S
C230 C224 1.428 . S
C230 N229 1.351 . S
C230 C231 1.434 . S
C231 C222 1.429 . S
C231 N228 1.350 . S
C231 C230 1.434 . S
C232 C233 1.369 . S
C232 C234 1.419 . S
C232 H236 0.930 . S
C233 C232 1.369 . S
C233 C242 1.429 . S
C234 C232 1.419 . S
C234 C235 1.363 . S
C234 H237 0.929 . S
C235 C234 1.363 . S
C235 C241 1.428 . S
H236 C232 0.930 . S
H237 C234 0.929 . S
S238 N239 1.613 . S
S238 N240 1.610 . S
N239 S238 1.613 . S
N239 C242 1.350 . S
N240 S238 1.610 . S
N240 C241 1.351 . S
C241 C235 1.428 . S
C241 N240 1.351 . S
C241 C242 1.434 . S
C242 C233 1.429 . S
C242 N239 1.350 . S
C242 C241 1.434 . S
C243 C244 1.369 . S
C243 C245 1.419 . S
C243 H247 0.930 . S
C244 C243 1.369 . S
C244 C253 1.429 . S
C245 C243 1.419 . S
C245 C246 1.363 . S
C245 H248 0.929 . S
C246 C245 1.363 . S
C246 C252 1.428 . S
H247 C243 0.930 . S
H248 C245 0.929 . S
S249 N250 1.613 . S
S249 N251 1.610 1_455 S
N250 S249 1.613 . S
N250 C253 1.350 1_455 S
N251 S249 1.610 1_655 S
N251 C252 1.351 . S
C252 C246 1.428 . S
C252 N251 1.351 . S
C252 C253 1.434 . S
C253 C244 1.429 . S
C253 N250 1.350 1_655 S
C253 C252 1.434 . S
C123 C12 1.648 . S
C125 C99 1.548 . S
C134 C69 1.160 . S
C136 C105 1.093 . S
C145 C8 1.321 . S
C147 C96 1.215 . S
C156 C71 2.049 . S
C158 C121 1.885 . S
C167 C17 2.393 . S
C169 C87 2.334 . S
C180 C104 2.096 . S
C178 C42 2.115 . S
C189 C52 1.642 . S
C191 C100 1.549 . S
C202 C117 2.092 . S
C200 C2 2.115 . S
C213 C84 2.340 . S
C211 C57 2.387 . S
C224 C120 1.891 . S
C222 C31 2.042 . S
C235 C83 1.220 . S
C233 C48 1.312 . S
C246 C108 1.095 . S
C244 C29 1.158 . S
