# Generated by pormake.
# Topology nia, (6,6)-cn, num edge types: 1
# Building blocks:
#     Node 0, Type 0, BuildingBlock: FUNLAD_clean_sbu_0, # of connection points: 6
#     Node 1, Type 0, BuildingBlock: FUNLAD_clean_sbu_0, # of connection points: 6
#     Node 2, Type 1, BuildingBlock: MIDCAF_clean_sbu_0, # of connection points: 6
#     Node 3, Type 1, BuildingBlock: MIDCAF_clean_sbu_0, # of connection points: 6
#     Edge 4, Type (0, 1), BuildingBlock: FUNLAD_clean_linker_0, # of connection points: 2
#     Edge 5, Type (0, 1), BuildingBlock: FUNLAD_clean_linker_0, # of connection points: 2
#     Edge 6, Type (0, 1), BuildingBlock: FUNLAD_clean_linker_0, # of connection points: 2
#     Edge 7, Type (0, 1), BuildingBlock: FUNLAD_clean_linker_0, # of connection points: 2
#     Edge 8, Type (0, 1), BuildingBlock: FUNLAD_clean_linker_0, # of connection points: 2
#     Edge 9, Type (0, 1), BuildingBlock: FUNLAD_clean_linker_0, # of connection points: 2
#     Edge 10, Type (0, 1), BuildingBlock: FUNLAD_clean_linker_0, # of connection points: 2
#     Edge 11, Type (0, 1), BuildingBlock: FUNLAD_clean_linker_0, # of connection points: 2
#     Edge 12, Type (0, 1), BuildingBlock: FUNLAD_clean_linker_0, # of connection points: 2
#     Edge 13, Type (0, 1), BuildingBlock: FUNLAD_clean_linker_0, # of connection points: 2
#     Edge 14, Type (0, 1), BuildingBlock: FUNLAD_clean_linker_0, # of connection points: 2
#     Edge 15, Type (0, 1), BuildingBlock: FUNLAD_clean_linker_0, # of connection points: 2
# Relax obj value: 0.139
# Max RMSD: 0.242
# Mean RMSD: 0.141
data_MOF--net-nia--node1-FUNLAD_clean_sbu_0--node2-MIDCAF_clean_sbu_0--edge1-FUNLAD_clean_linker_0
_symmetry_space_group_name_H-M    P1
_symmetry_Int_Tables_number       1
_symmetry_cell_setting            triclinic
loop_
_symmetry_equiv_pos_as_xyz
'x, y, z'
_cell_length_a     28.120351
_cell_length_b     27.996801
_cell_length_c     39.019043
_cell_angle_alpha  96.087193
_cell_angle_beta   96.539093
_cell_angle_gamma 118.28099
loop_
_atom_site_label
_atom_site_type_symbol
_atom_site_fract_x
_atom_site_fract_y
_atom_site_fract_z
_atom_type_partial_charge
C0 C 0.06338 0.98695 0.10398 0.0
N1 N 0.10105 0.05533 1.01336 0.0
C2 C 0.15459 0.0898 1.02861 0.0
C3 C 0.19506 0.10831 1.00795 0.0
C4 C 0.18017 0.09078 0.97136 0.0
C5 C 0.12479 0.05458 0.95645 0.0
C6 C 0.08571 0.03751 0.978 0.0
Zn7 Zn 0.04075 0.03062 0.04261 0.0
C8 C 0.95618 0.9116 1.01564 0.0
N9 N 0.90987 0.97595 0.09991 0.0
C10 C 0.92639 -0.00659 0.13527 0.0
C11 C 0.85583 0.94283 0.08523 0.0
C12 C 0.816 0.92614 0.10647 0.0
C13 C 0.83209 0.94419 0.14301 0.0
C14 C 0.88807 0.97817 0.15733 0.0
Zn15 Zn 0.96992 0.00067 0.0703 0.0
O16 O 0.08589 0.00912 0.07917 0.0
C17 C 0.05447 0.11978 0.09697 0.0
O18 O 0.01504 0.97785 0.10563 0.0
H19 H 0.84365 0.9294 0.05708 0.0
H20 H 0.16584 0.10335 0.05677 0.0
H21 H 0.96956 0.01919 0.14653 0.0
O22 O 0.07793 0.11108 0.07299 0.0
O23 O 0.00918 0.08085 0.10132 0.0
H24 H 0.04288 0.01054 0.96633 0.0
O25 O 0.92566 0.02438 1.03442 0.0
O26 O -0.00469 0.05226 1.00684 0.0
O27 O 0.93145 0.92072 0.03866 0.0
O28 O 0.00268 0.95004 1.01255 0.0
C29 C 0.94801 0.04566 1.0093 0.0
H30 H 0.23751 0.13588 1.02045 0.0
H31 H 0.1116 0.04066 0.92832 0.0
H32 H 0.77307 0.90023 0.09442 0.0
H33 H 0.90219 -0.00761 0.18539 0.0
C34 C 0.04405 0.97091 0.51226 0.0
N35 N 0.96261 0.92296 0.59732 0.0
C36 C 0.93709 0.86904 0.58142 0.0
C37 C 0.91769 0.8273 0.60142 0.0
C38 C 0.924 0.84145 0.63792 0.0
C39 C 0.95124 0.89728 0.65362 0.0
C40 C 0.9707 0.93752 0.6328 0.0
Zn41 Zn -0.01189 0.98543 0.56912 0.0
C42 C 0.1028 0.07504 0.60144 0.0
N43 N 0.04316 0.12072 0.5144 0.0
C44 C 0.03822 0.10939 0.47898 0.0
C45 C 0.06238 0.17307 0.53157 0.0
C46 C 0.0764 0.2163 0.51296 0.0
C47 C 0.07183 0.20599 0.4763 0.0
C48 C 0.0529 0.15157 0.45942 0.0
Zn49 Zn 0.01809 0.05732 0.54177 0.0
O50 O 0.01898 0.94623 0.53557 0.0
C51 C 0.90343 0.96821 0.5094 0.0
O52 O 0.04996 0.01817 0.50956 0.0
H53 H 0.06606 0.1813 0.55973 0.0
H54 H 0.93103 0.8584 0.5532 0.0
H55 H 0.02242 0.06743 0.46573 0.0
O56 O 0.9112 0.94471 0.53395 0.0
O57 O 0.94154 0.01534 0.50674 0.0
H58 H -0.00835 0.98056 0.64504 0.0
O59 O -0.01395 0.09543 0.57458 0.0
O60 O 0.95745 0.02545 0.60212 0.0
O61 O 0.09433 0.09875 0.57729 0.0
O62 O 0.06543 0.02724 0.60367 0.0
C63 C 0.96253 0.07212 0.59869 0.0
H64 H 0.89656 0.78451 0.58843 0.0
H65 H 0.95731 0.90968 0.68174 0.0
H66 H 0.08966 0.25714 0.52726 0.0
H67 H 0.04952 0.14143 0.43138 0.0
Zn68 Zn 0.30429 0.71529 0.23851 0.0
Zn69 Zn 0.32412 0.70679 0.37161 0.0
Zn70 Zn 0.31476 0.70653 0.30562 0.0
C71 C 0.42642 0.73475 0.35749 0.0
C72 C 0.24511 0.60042 0.33789 0.0
O73 O 0.2753 0.75794 0.29545 0.0
O74 O 0.26783 0.75995 0.23852 0.0
C75 C 0.41631 0.75916 0.26493 0.0
O76 O 0.4029 0.73829 0.32824 0.0
O77 O 0.39889 0.71602 0.38095 0.0
O78 O 0.26059 0.63179 0.36735 0.0
O79 O 0.2644 0.6196 0.31098 0.0
O80 O 0.38384 0.75313 0.2376 0.0
O81 O 0.39802 0.74327 0.29281 0.0
O82 O 0.26555 0.62154 0.2748 0.0
O83 O 0.25922 0.63525 0.21993 0.0
C84 C 0.24858 0.6027 0.24155 0.0
O85 O 0.28249 0.75722 0.33134 0.0
O86 O 0.314 0.77022 0.38805 0.0
C87 C 0.26031 0.77369 0.26835 0.0
C88 C 0.28895 0.78005 0.3633 0.0
Zn89 Zn 0.69725 0.344 0.87489 0.0
Zn90 Zn 0.67459 0.31105 0.74198 0.0
Zn91 Zn 0.68686 0.32711 0.80884 0.0
C92 C 0.72408 0.4236 0.76361 0.0
C93 C 0.57072 0.25532 0.7543 0.0
O94 O 0.72206 0.27707 0.82908 0.0
O95 O 0.70565 0.27957 0.88312 0.0
C96 C 0.76757 0.44356 0.86089 0.0
O97 O 0.72948 0.40869 0.79328 0.0
O98 O 0.69536 0.3878 0.73645 0.0
O99 O 0.59583 0.2542 0.72969 0.0
O100 O 0.59785 0.28351 0.78502 0.0
O101 O 0.76283 0.41858 0.88644 0.0
O102 O 0.73917 0.41685 0.83014 0.0
O103 O 0.60416 0.2972 0.82151 0.0
O104 O 0.62432 0.33779 0.87698 0.0
C105 C 0.58906 0.3096 0.8495 0.0
O106 O 0.72802 0.27931 0.79445 0.0
O107 O 0.73087 0.28815 0.73892 0.0
C108 C 0.72075 0.26015 0.85861 0.0
C109 C 0.7446 0.27284 0.76577 0.0
C110 C 0.07038 0.95469 0.16081 0.0
C111 C 0.09316 0.97292 0.1313 0.0
C112 C 0.09813 0.94128 0.18674 0.0
C113 C 0.14917 0.94523 0.18355 0.0
C114 C 0.17242 0.96472 0.15445 0.0
C115 C 0.14478 0.97838 0.12859 0.0
C116 C 0.17897 0.9282 0.20914 0.0
C117 C 0.15527 0.89445 0.23168 0.0
C118 C 0.18304 0.86837 0.25049 0.0
C119 C 0.15144 0.81338 0.25458 0.0
C120 C 0.17705 0.7833 0.26434 0.0
C121 C 0.23451 0.8083 0.27094 0.0
H122 H 0.26608 0.9377 0.25907 0.0
C123 C 0.26613 0.86472 0.27059 0.0
C124 C 0.2406 0.89478 0.26068 0.0
H125 H 0.3106 0.88448 0.27534 0.0
H126 H 0.03105 0.95092 0.164 0.0
H127 H 0.07934 0.92814 0.20915 0.0
H128 H 0.21181 0.96852 0.15134 0.0
H129 H 0.16367 -0.00728 0.10635 0.0
H130 H 0.22087 0.93937 0.20657 0.0
H131 H 0.11209 0.87891 0.2325 0.0
H132 H 0.10702 0.79229 0.24731 0.0
H133 H 0.15207 0.73954 0.26403 0.0
C134 C 0.16605 0.07456 0.65192 0.0
C135 C 0.15574 0.1023 0.62656 0.0
C136 C 0.21672 0.09929 0.67483 0.0
C137 C 0.25829 0.15233 0.6728 0.0
C138 C 0.24725 0.18082 0.64835 0.0
C139 C 0.19665 0.15599 0.62531 0.0
C140 C 0.31394 0.17855 0.69504 0.0
C141 C 0.33713 0.14915 0.70628 0.0
C142 C 0.39605 0.17514 0.72254 0.0
C143 C 0.42501 0.14743 0.71454 0.0
C144 C 0.48174 0.17295 0.72603 0.0
C145 C 0.5103 0.226 0.74661 0.0
H146 H 0.40284 0.24935 0.75165 0.0
C147 C 0.48112 0.25272 0.75633 0.0
C148 C 0.42432 0.22751 0.74434 0.0
H149 H 0.50253 0.29389 0.77199 0.0
H150 H 0.13516 0.03342 0.65391 0.0
H151 H 0.22308 0.07673 0.69407 0.0
H152 H 0.2784 0.2219 0.64643 0.0
H153 H 0.18985 0.17871 0.60631 0.0
H154 H 0.33866 0.2232 0.69888 0.0
H155 H 0.3145 0.10443 0.69935 0.0
H156 H 0.4041 0.10694 0.698 0.0
H157 H 0.50357 0.1517 0.71818 0.0
C158 C 0.11695 0.22198 0.10867 0.0
C159 C 0.07931 0.17444 0.11977 0.0
C160 C 0.13874 0.27384 0.12983 0.0
C161 C 0.12391 0.27893 0.16271 0.0
C162 C 0.08786 0.23129 0.17432 0.0
C163 C 0.06511 0.17953 0.15284 0.0
C164 C 0.14569 0.3336 0.1852 0.0
C165 C 0.15001 0.37729 0.17157 0.0
C166 C 0.17139 0.43282 0.19284 0.0
C167 C 0.15308 0.46777 0.18073 0.0
C168 C 0.17623 0.52228 0.19793 0.0
C169 C 0.21853 0.54309 0.22744 0.0
H170 H 0.22922 0.42789 0.23228 0.0
C171 C 0.23663 0.50819 0.23986 0.0
C172 C 0.21288 0.45322 0.22296 0.0
H173 H 0.27156 0.52442 0.26106 0.0
H174 H 0.1288 0.21922 0.08338 0.0
H175 H 0.16744 0.30991 0.12057 0.0
H176 H 0.07626 0.23424 0.19968 0.0
H177 H 0.0366 0.14347 0.16221 0.0
H178 H 0.1548 0.33693 0.21345 0.0
H179 H 0.13531 0.37174 0.14364 0.0
H180 H 0.12154 0.45319 0.15743 0.0
H181 H 0.16222 0.54876 0.1875 0.0
C182 C 0.9185 0.07514 0.65074 0.0
C183 C 0.94241 0.09955 0.62299 0.0
C184 C 0.9001 0.10155 0.67392 0.0
C185 C 0.90524 0.15306 0.66975 0.0
C186 C 0.92938 0.17729 0.64204 0.0
C187 C 0.94777 0.15099 0.61898 0.0
C188 C 0.885 0.18284 0.69254 0.0
C189 C 0.86201 0.16649 0.72072 0.0
C190 C 0.83814 0.19657 0.73947 0.0
C191 C 0.79021 0.16696 0.75299 0.0
C192 C 0.76139 0.19289 0.7647 0.0
C193 C 0.78062 0.24875 0.76323 0.0
H194 H 0.89816 0.27852 0.73294 0.0
C195 C 0.83096 0.27939 0.75279 0.0
C196 C 0.85995 0.2538 0.74151 0.0
H197 H 0.84655 0.32269 0.75172 0.0
H198 H 0.91397 0.03555 0.65461 0.0
H199 H 0.88169 0.08099 0.69466 0.0
H200 H 0.93392 0.21685 0.63804 0.0
H201 H 0.96615 0.17106 0.59798 0.0
H202 H 0.88734 0.21973 0.68446 0.0
H203 H 0.85612 0.12837 0.72856 0.0
H204 H 0.77309 0.12303 0.75227 0.0
H205 H 0.72239 0.1686 0.77257 0.0
C206 C 0.74812 0.87392 0.16188 0.0
C207 C 0.79091 0.92857 0.1662 0.0
C208 C 0.70883 0.85966 0.18345 0.0
C209 C 0.7115 0.89996 0.20969 0.0
C210 C 0.75445 0.95445 0.21405 0.0
C211 C 0.79401 0.96857 0.19274 0.0
C212 C 0.66693 0.88789 0.23003 0.0
C213 C 0.63379 0.83733 0.23642 0.0
C214 C 0.58183 0.82318 0.24927 0.0
C215 C 0.55833 0.77755 0.2661 0.0
C216 C 0.50536 0.75839 0.27347 0.0
C217 C 0.47511 0.78434 0.26371 0.0
H218 H 0.56776 0.88452 0.22704 0.0
C219 C 0.49919 0.83093 0.24801 0.0
C220 C 0.55202 0.85034 0.24096 0.0
H221 H 0.4762 0.85111 0.23991 0.0
H222 H 0.74494 0.84224 0.14174 0.0
H223 H 0.6754 0.81755 0.17859 0.0
H224 H 0.75695 0.9864 0.23367 0.0
H225 H 0.82623 0.01115 0.19642 0.0
H226 H 0.6603 0.92192 0.23915 0.0
H227 H 0.64348 0.80446 0.23059 0.0
H228 H 0.58019 0.75557 0.27243 0.0
H229 H 0.48703 0.72174 0.28506 0.0
C230 C 0.91139 0.75424 0.65716 0.0
C231 C 0.90059 0.79843 0.65956 0.0
C232 C 0.88845 0.71338 0.67738 0.0
C233 C 0.8537 0.71571 0.69999 0.0
C234 C 0.84283 0.7598 0.70222 0.0
C235 C 0.86659 0.80117 0.68253 0.0
C236 C 0.82406 0.66999 0.71873 0.0
C237 C 0.84531 0.63948 0.73071 0.0
C238 C 0.81183 0.5877 0.74343 0.0
C239 C 0.83739 0.5693 0.76765 0.0
C240 C 0.8079 0.51694 0.77619 0.0
C241 C 0.75272 0.48197 0.76008 0.0
H242 H 0.73505 0.56547 0.70918 0.0
C243 C 0.72674 0.501 0.73675 0.0
C244 C 0.75582 0.55339 0.72863 0.0
H245 H 0.68429 0.4745 0.72381 0.0
H246 H 0.93751 0.75132 0.63962 0.0
H247 H 0.89643 0.67908 0.67435 0.0
H248 H 0.81557 0.76204 0.71905 0.0
H249 H 0.85727 0.83463 0.68458 0.0
H250 H 0.78307 0.66092 0.72237 0.0
H251 H 0.88813 0.65181 0.73025 0.0
H252 H 0.88062 0.59477 0.77915 0.0
H253 H 0.829 0.50271 0.79382 0.0
C254 C 0.10063 0.97597 0.46622 0.0
C255 C 0.06626 0.94526 0.48835 0.0
C256 C 0.1225 0.95236 0.444 0.0
C257 C 0.11028 0.89737 0.44333 0.0
C258 C 0.07468 0.8662 0.46465 0.0
C259 C 0.05324 0.88999 0.48718 0.0
C260 C 0.13449 0.87159 0.42108 0.0
C261 C 0.1853 0.90032 0.41397 0.0
C262 C 0.2128 0.87279 0.39719 0.0
C263 C 0.26839 0.89148 0.41034 0.0
C264 C 0.29389 0.86243 0.3982 0.0
C265 C 0.26471 0.81524 0.37186 0.0
H266 H 0.1415 0.81225 0.35861 0.0
C267 C 0.21014 0.79852 0.35698 0.0
C268 C 0.18417 0.82689 0.3697 0.0
H269 H 0.18671 0.76178 0.33695 0.0
H270 H 0.11108 0.01852 0.46623 0.0
H271 H 0.14862 0.97715 0.42723 0.0
H272 H 0.06432 0.82363 0.46443 0.0
H273 H 0.02647 0.86506 0.50364 0.0
H274 H 0.11226 0.82689 0.41349 0.0
H275 H 0.21012 0.94412 0.42476 0.0
H276 H 0.29136 0.92697 0.43134 0.0
H277 H 0.33605 0.87601 0.41004 0.0
C278 C 0.26115 0.1673 0.95421 0.0
C279 C 0.22187 0.1111 0.94869 0.0
C280 C 0.30033 0.18673 0.93279 0.0
C281 C 0.301 0.15027 0.90531 0.0
C282 C 0.26198 0.09403 0.89998 0.0
C283 C 0.22243 0.07465 0.92124 0.0
C284 C 0.34494 0.16907 0.88409 0.0
C285 C 0.37081 0.22097 0.87788 0.0
C286 C 0.42338 0.24421 0.86487 0.0
C287 C 0.46161 0.30021 0.87697 0.0
C288 C 0.51498 0.32214 0.87043 0.0
C289 C 0.5307 0.28874 0.85094 0.0
H290 H 0.40912 0.1686 0.83275 0.0
C291 C 0.49155 0.23372 0.83661 0.0
C292 C 0.43811 0.21153 0.84343 0.0
H293 H 0.50297 0.20718 0.82164 0.0
H294 H 0.2615 0.19635 0.97507 0.0
H295 H 0.33093 0.23004 0.93858 0.0
H296 H 0.26225 0.06499 0.8794 0.0
H297 H 0.19292 0.03099 0.91664 0.0
H298 H 0.35823 0.13997 0.87532 0.0
H299 H 0.35677 0.24951 0.88654 0.0
H300 H 0.45116 0.32637 0.89327 0.0
H301 H 0.54457 0.36478 0.88166 0.0
C302 C 0.05777 0.24192 0.42148 0.0
C303 C 0.08619 0.25157 0.4559 0.0
C304 C 0.07083 0.28507 0.40273 0.0
C305 C 0.11187 0.33889 0.41828 0.0
C306 C 0.14001 0.34873 0.45253 0.0
C307 C 0.12797 0.30554 0.47094 0.0
C308 C 0.12503 0.38619 0.40017 0.0
C309 C 0.12688 0.38363 0.36576 0.0
C310 C 0.14875 0.4348 0.35096 0.0
C311 C 0.19258 0.44846 0.33294 0.0
C312 C 0.22212 0.50194 0.32615 0.0
C313 C 0.20684 0.54158 0.33614 0.0
H314 H 0.09729 0.46359 0.37258 0.0
C315 C 0.16022 0.52644 0.35157 0.0
C316 C 0.13134 0.47345 0.35892 0.0
H317 H 0.14821 0.55667 0.35992 0.0
H318 H 0.02454 0.20132 0.40918 0.0
H319 H 0.04774 0.27661 0.37655 0.0
H320 H 0.17194 0.38997 0.46498 0.0
H321 H 0.15177 0.31468 0.49695 0.0
H322 H 0.13882 0.42602 0.41653 0.0
H323 H 0.11944 0.34568 0.34977 0.0
H324 H 0.20698 0.41939 0.32695 0.0
H325 H 0.2597 0.51358 0.31621 0.0
C326 C 0.86757 0.05609 0.98482 0.0
C327 C 0.92055 0.06423 0.98352 0.0
C328 C 0.84314 0.07617 0.96136 0.0
C329 C 0.87124 0.10473 0.93602 0.0
C330 C 0.9239 0.1123 0.93458 0.0
C331 C 0.94816 0.09199 0.95786 0.0
C332 C 0.84916 0.1315 0.91301 0.0
C333 C 0.79513 0.11413 0.90385 0.0
C334 C 0.77373 0.14722 0.88729 0.0
C335 C 0.72468 0.14301 0.89527 0.0
C336 C 0.70651 0.17843 0.88452 0.0
C337 C 0.73632 0.21804 0.86483 0.0
H338 H 0.83927 0.18819 0.85832 0.0
C339 C 0.78341 0.22006 0.85469 0.0
C340 C 0.80213 0.1849 0.86586 0.0
H341 H 0.80725 0.2506 0.83973 0.0
H342 H 0.84534 0.03512 1.00437 0.0
H343 H 0.80323 0.07099 0.96415 0.0
H344 H 0.94668 0.13461 0.91563 0.0
H345 H -0.0109 0.09907 0.95612 0.0
H346 H 0.87898 0.16834 0.90486 0.0
H347 H 0.76548 0.07709 0.91192 0.0
H348 H 0.70173 0.11407 0.91141 0.0
H349 H 0.66982 0.1759 0.89248 0.0
C350 C 0.80892 0.8883 0.48556 0.0
C351 C 0.85033 0.94179 0.48446 0.0
C352 C 0.75819 0.8643 0.46273 0.0
C353 C 0.74781 0.8933 0.4382 0.0
C354 C 0.78929 0.94664 0.43708 0.0
C355 C 0.84011 0.9705 0.45975 0.0
C356 C 0.69293 0.87107 0.41557 0.0
C357 C 0.65713 0.81671 0.40568 0.0
C358 C 0.5988 0.79426 0.38881 0.0
C359 C 0.55988 0.74283 0.3949 0.0
C360 C 0.50389 0.72267 0.38337 0.0
C361 C 0.4856 0.75296 0.36478 0.0
H362 H 0.60953 0.86249 0.36246 0.0
C363 C 0.52437 0.80294 0.35679 0.0
C364 C 0.58066 0.82349 0.36864 0.0
H365 H 0.51112 0.82713 0.34266 0.0
H366 H 0.81536 0.86519 0.5044 0.0
H367 H 0.72675 0.82385 0.46531 0.0
H368 H 0.78222 0.97014 0.41877 0.0
H369 H 0.87106 0.01188 0.45825 0.0
H370 H 0.68126 0.90091 0.40817 0.0
H371 H 0.66935 0.78718 0.41296 0.0
H372 H 0.57264 0.71922 0.41006 0.0
H373 H 0.47469 0.68391 0.38979 0.0
C374 C 0.96021 0.84721 0.96788 0.0
C375 C 0.9309 0.85754 0.99182 0.0
C376 C 0.93646 0.79666 0.94492 0.0
C377 C 0.88278 0.7552 0.94541 0.0
C378 C 0.8531 0.76589 0.96882 0.0
C379 C 0.87698 0.81638 0.99197 0.0
C380 C 0.85671 0.70034 0.92213 0.0
C381 C 0.88569 0.67672 0.91113 0.0
C382 C 0.85862 0.6183 0.8934 0.0
C383 C 0.8813 0.58557 0.90321 0.0
C384 C 0.85286 0.52871 0.89099 0.0
C385 C 0.80212 0.50393 0.86785 0.0
H386 H 0.79149 0.61859 0.86011 0.0
C387 C 0.78133 0.53712 0.85585 0.0
C388 C 0.80924 0.59399 0.8687 0.0
H389 H 0.74203 0.51872 0.83817 0.0
H390 H 0.00162 0.87826 0.96678 0.0
H391 H 0.96006 0.79055 0.92659 0.0
H392 H 0.81155 0.73476 0.96957 0.0
H393 H 0.85311 0.82321 1.00983 0.0
H394 H 0.81207 0.67642 0.91683 0.0
H395 H 0.93006 0.69794 0.91944 0.0
H396 H 0.9195 0.6035 0.92198 0.0
H397 H 0.86953 0.50377 0.90061 0.0
loop_
_geom_bond_atom_site_label_1
_geom_bond_atom_site_label_2
_geom_bond_distance
_geom_bond_site_symmetry_2
_ccdc_geom_bond_type
C0 O16 1.251 1_565 S
C0 O18 1.254 . S
N1 C2 1.333 . S
N1 C6 1.307 . S
N1 Zn7 2.020 . S
C2 N1 1.333 . S
C2 C3 1.379 . S
C2 H20 0.952 1_556 S
C3 C2 1.379 . S
C3 C4 1.390 . S
C3 H30 0.949 . S
C4 C3 1.390 . S
C4 C5 1.357 . S
C5 C4 1.357 . S
C5 C6 1.370 . S
C5 H31 0.950 . S
C6 N1 1.307 . S
C6 C5 1.370 . S
C6 H24 0.948 . S
Zn7 N1 2.020 . S
Zn7 O16 2.039 1_556 S
Zn7 O22 2.034 1_556 S
Zn7 O26 2.025 . S
Zn7 O28 2.024 1_545 S
C8 O27 1.242 1_556 S
C8 O28 1.249 1_655 S
N9 C10 1.307 . S
N9 C11 1.333 . S
N9 Zn15 2.020 1_565 S
C10 N9 1.307 . S
C10 C14 1.370 . S
C10 H21 0.948 . S
C11 N9 1.333 . S
C11 C12 1.379 . S
C11 H19 0.952 . S
C12 C11 1.379 . S
C12 C13 1.390 . S
C12 H32 0.949 . S
C13 C12 1.390 . S
C13 C14 1.357 . S
C14 C10 1.370 . S
C14 C13 1.357 . S
C14 H33 0.950 . S
Zn15 N9 2.020 1_545 S
Zn15 O18 2.025 1_645 S
Zn15 O23 2.024 1_655 S
Zn15 O25 2.039 . S
Zn15 O27 2.037 1_545 S
O16 C0 1.251 1_545 S
O16 Zn7 2.039 1_554 S
C17 O22 1.246 . S
C17 O23 1.249 . S
O18 C0 1.254 . S
O18 Zn15 2.025 1_465 S
H19 C11 0.952 . S
H20 C2 0.952 1_554 S
H21 C10 0.948 . S
O22 Zn7 2.034 1_554 S
O22 C17 1.246 . S
O23 Zn15 2.024 1_455 S
O23 C17 1.249 . S
H24 C6 0.948 . S
O25 Zn15 2.039 . S
O25 C29 1.251 1_554 S
O26 Zn7 2.025 . S
O26 C29 1.254 1_455 S
O27 C8 1.242 1_554 S
O27 Zn15 2.037 1_565 S
O28 Zn7 2.024 1_565 S
O28 C8 1.249 1_455 S
C29 O25 1.251 1_556 S
C29 O26 1.254 1_655 S
H30 C3 0.949 . S
H31 C5 0.950 . S
H32 C12 0.949 . S
H33 C14 0.950 . S
C34 O50 1.251 . S
C34 O52 1.254 1_565 S
N35 C36 1.333 . S
N35 C40 1.307 . S
N35 Zn41 2.020 . S
C36 N35 1.333 . S
C36 C37 1.379 . S
C36 H54 0.952 . S
C37 C36 1.379 . S
C37 C38 1.390 . S
C37 H64 0.949 . S
C38 C37 1.390 . S
C38 C39 1.357 . S
C39 C38 1.357 . S
C39 C40 1.370 . S
C39 H65 0.950 . S
C40 N35 1.307 . S
C40 C39 1.370 . S
C40 H58 0.948 . S
Zn41 N35 2.020 . S
Zn41 O50 2.039 1_655 S
Zn41 O56 2.034 . S
Zn41 O60 2.025 1_565 S
Zn41 O62 2.024 1_665 S
C42 O61 1.246 . S
C42 O62 1.249 . S
N43 C44 1.307 . S
N43 C45 1.333 . S
N43 Zn49 2.020 . S
C44 N43 1.307 . S
C44 C48 1.370 . S
C44 H55 0.948 . S
C45 N43 1.333 . S
C45 C46 1.379 . S
C45 H53 0.952 . S
C46 C45 1.379 . S
C46 C47 1.390 . S
C46 H66 0.949 . S
C47 C46 1.390 . S
C47 C48 1.357 . S
C48 C44 1.370 . S
C48 C47 1.357 . S
C48 H67 0.950 . S
Zn49 N43 2.020 . S
Zn49 O52 2.025 . S
Zn49 O57 2.024 1_455 S
Zn49 O59 2.033 1_455 S
Zn49 O61 2.034 . S
O50 C34 1.251 . S
O50 Zn41 2.039 1_455 S
C51 O56 1.246 . S
C51 O57 1.249 1_565 S
O52 C34 1.254 1_545 S
O52 Zn49 2.025 . S
H53 C45 0.952 . S
H54 C36 0.952 . S
H55 C44 0.948 . S
O56 Zn41 2.034 . S
O56 C51 1.246 . S
O57 Zn49 2.024 1_655 S
O57 C51 1.249 1_545 S
H58 C40 0.948 . S
O59 Zn49 2.033 1_655 S
O59 C63 1.254 . S
O60 Zn41 2.025 1_545 S
O60 C63 1.254 . S
O61 C42 1.246 . S
O61 Zn49 2.034 . S
O62 Zn41 2.024 1_445 S
O62 C42 1.249 . S
C63 O59 1.254 . S
C63 O60 1.254 . S
H64 C37 0.949 . S
H65 C39 0.950 . S
H66 C46 0.949 . S
H67 C48 0.950 . S
Zn68 O74 1.920 . S
Zn68 O80 1.898 . S
Zn68 O83 1.905 . S
Zn69 O77 1.905 . S
Zn69 O78 1.898 . S
Zn69 O86 1.920 . S
Zn70 O73 2.080 . S
Zn70 O76 2.114 . S
Zn70 O79 2.120 . S
Zn70 O81 2.120 . S
Zn70 O82 2.114 . S
Zn70 O85 2.080 . S
C71 O76 1.166 . S
C71 O77 1.182 . S
C72 O78 1.167 . S
C72 O79 1.299 . S
O73 Zn70 2.080 . S
O73 C87 1.305 . S
O74 Zn68 1.920 . S
O74 C87 1.234 . S
C75 O80 1.167 . S
C75 O81 1.299 . S
O76 Zn70 2.114 . S
O76 C71 1.166 . S
O77 Zn69 1.905 . S
O77 C71 1.182 . S
O78 Zn69 1.898 . S
O78 C72 1.167 . S
O79 Zn70 2.120 . S
O79 C72 1.299 . S
O80 Zn68 1.898 . S
O80 C75 1.167 . S
O81 Zn70 2.120 . S
O81 C75 1.299 . S
O82 Zn70 2.114 . S
O82 C84 1.166 . S
O83 Zn68 1.905 . S
O83 C84 1.182 . S
C84 O82 1.166 . S
C84 O83 1.182 . S
O85 Zn70 2.080 . S
O85 C88 1.305 . S
O86 Zn69 1.920 . S
O86 C88 1.234 . S
C87 O73 1.305 . S
C87 O74 1.234 . S
C88 O85 1.305 . S
C88 O86 1.234 . S
Zn89 O95 1.920 . S
Zn89 O101 1.898 . S
Zn89 O104 1.905 . S
Zn90 O98 1.905 . S
Zn90 O99 1.898 . S
Zn90 O107 1.920 . S
Zn91 O94 2.080 . S
Zn91 O97 2.114 . S
Zn91 O100 2.120 . S
Zn91 O102 2.120 . S
Zn91 O103 2.114 . S
Zn91 O106 2.080 . S
C92 O97 1.166 . S
C92 O98 1.182 . S
C93 O99 1.167 . S
C93 O100 1.299 . S
O94 Zn91 2.080 . S
O94 C108 1.305 . S
O95 Zn89 1.920 . S
O95 C108 1.234 . S
C96 O101 1.167 . S
C96 O102 1.299 . S
O97 Zn91 2.114 . S
O97 C92 1.166 . S
O98 Zn90 1.905 . S
O98 C92 1.182 . S
O99 Zn90 1.898 . S
O99 C93 1.167 . S
O100 Zn91 2.120 . S
O100 C93 1.299 . S
O101 Zn89 1.898 . S
O101 C96 1.167 . S
O102 Zn91 2.120 . S
O102 C96 1.299 . S
O103 Zn91 2.114 . S
O103 C105 1.166 . S
O104 Zn89 1.905 . S
O104 C105 1.182 . S
C105 O103 1.166 . S
C105 O104 1.182 . S
O106 Zn91 2.080 . S
O106 C109 1.305 . S
O107 Zn90 1.920 . S
O107 C109 1.234 . S
C108 O94 1.305 . S
C108 O95 1.234 . S
C109 O106 1.305 . S
C109 O107 1.234 . S
C110 C111 1.386 . S
C110 C112 1.383 . S
C110 H126 0.951 . S
C111 C110 1.386 . S
C111 C115 1.383 . S
C112 C110 1.383 . S
C112 C113 1.402 . S
C112 H127 0.951 . S
C113 C112 1.402 . S
C113 C114 1.375 . S
C113 C116 1.481 . S
C114 C113 1.375 . S
C114 C115 1.367 . S
C114 H128 0.951 . S
C115 C111 1.383 . S
C115 C114 1.367 . S
C115 H129 0.950 1_565 S
C116 C113 1.481 . S
C116 C117 1.297 . S
C116 H130 0.950 . S
C117 C116 1.297 . S
C117 C118 1.479 . S
C117 H131 0.950 . S
C118 C117 1.479 . S
C118 C119 1.375 . S
C118 C124 1.404 . S
C119 C118 1.375 . S
C119 C120 1.369 . S
C119 H132 0.950 . S
C120 C119 1.369 . S
C120 C121 1.392 . S
C120 H133 0.951 . S
C121 C120 1.392 . S
C121 C123 1.384 . S
H122 C124 0.949 . S
C123 C121 1.384 . S
C123 C124 1.385 . S
C123 H125 0.950 . S
C124 C118 1.404 . S
C124 H122 0.949 . S
C124 C123 1.385 . S
H125 C123 0.950 . S
H126 C110 0.951 . S
H127 C112 0.951 . S
H128 C114 0.951 . S
H129 C115 0.950 1_545 S
H130 C116 0.950 . S
H131 C117 0.950 . S
H132 C119 0.950 . S
H133 C120 0.951 . S
C134 C135 1.386 . S
C134 C136 1.383 . S
C134 H150 0.951 . S
C135 C134 1.386 . S
C135 C139 1.383 . S
C136 C134 1.383 . S
C136 C137 1.402 . S
C136 H151 0.951 . S
C137 C136 1.402 . S
C137 C138 1.375 . S
C137 C140 1.481 . S
C138 C137 1.375 . S
C138 C139 1.367 . S
C138 H152 0.951 . S
C139 C135 1.383 . S
C139 C138 1.367 . S
C139 H153 0.950 . S
C140 C137 1.481 . S
C140 C141 1.297 . S
C140 H154 0.950 . S
C141 C140 1.297 . S
C141 C142 1.479 . S
C141 H155 0.950 . S
C142 C141 1.479 . S
C142 C143 1.375 . S
C142 C148 1.404 . S
C143 C142 1.375 . S
C143 C144 1.369 . S
C143 H156 0.950 . S
C144 C143 1.369 . S
C144 C145 1.392 . S
C144 H157 0.951 . S
C145 C144 1.392 . S
C145 C147 1.384 . S
H146 C148 0.949 . S
C147 C145 1.384 . S
C147 C148 1.385 . S
C147 H149 0.950 . S
C148 C142 1.404 . S
C148 H146 0.949 . S
C148 C147 1.385 . S
H149 C147 0.950 . S
H150 C134 0.951 . S
H151 C136 0.951 . S
H152 C138 0.951 . S
H153 C139 0.950 . S
H154 C140 0.950 . S
H155 C141 0.950 . S
H156 C143 0.950 . S
H157 C144 0.951 . S
C158 C159 1.386 . S
C158 C160 1.383 . S
C158 H174 0.951 . S
C159 C158 1.386 . S
C159 C163 1.383 . S
C160 C158 1.383 . S
C160 C161 1.402 . S
C160 H175 0.951 . S
C161 C160 1.402 . S
C161 C162 1.375 . S
C161 C164 1.481 . S
C162 C161 1.375 . S
C162 C163 1.367 . S
C162 H176 0.951 . S
C163 C159 1.383 . S
C163 C162 1.367 . S
C163 H177 0.950 . S
C164 C161 1.481 . S
C164 C165 1.297 . S
C164 H178 0.950 . S
C165 C164 1.297 . S
C165 C166 1.479 . S
C165 H179 0.950 . S
C166 C165 1.479 . S
C166 C167 1.375 . S
C166 C172 1.404 . S
C167 C166 1.375 . S
C167 C168 1.369 . S
C167 H180 0.950 . S
C168 C167 1.369 . S
C168 C169 1.392 . S
C168 H181 0.951 . S
C169 C168 1.392 . S
C169 C171 1.384 . S
H170 C172 0.949 . S
C171 C169 1.384 . S
C171 C172 1.385 . S
C171 H173 0.950 . S
C172 C166 1.404 . S
C172 H170 0.949 . S
C172 C171 1.385 . S
H173 C171 0.950 . S
H174 C158 0.951 . S
H175 C160 0.951 . S
H176 C162 0.951 . S
H177 C163 0.950 . S
H178 C164 0.950 . S
H179 C165 0.950 . S
H180 C167 0.950 . S
H181 C168 0.951 . S
C182 C183 1.386 . S
C182 C184 1.383 . S
C182 H198 0.951 . S
C183 C182 1.386 . S
C183 C187 1.383 . S
C184 C182 1.383 . S
C184 C185 1.402 . S
C184 H199 0.951 . S
C185 C184 1.402 . S
C185 C186 1.375 . S
C185 C188 1.481 . S
C186 C185 1.375 . S
C186 C187 1.367 . S
C186 H200 0.951 . S
C187 C183 1.383 . S
C187 C186 1.367 . S
C187 H201 0.950 . S
C188 C185 1.481 . S
C188 C189 1.297 . S
C188 H202 0.950 . S
C189 C188 1.297 . S
C189 C190 1.479 . S
C189 H203 0.950 . S
C190 C189 1.479 . S
C190 C191 1.375 . S
C190 C196 1.404 . S
C191 C190 1.375 . S
C191 C192 1.369 . S
C191 H204 0.950 . S
C192 C191 1.369 . S
C192 C193 1.392 . S
C192 H205 0.951 . S
C193 C192 1.392 . S
C193 C195 1.384 . S
H194 C196 0.949 . S
C195 C193 1.384 . S
C195 C196 1.385 . S
C195 H197 0.950 . S
C196 C190 1.404 . S
C196 H194 0.949 . S
C196 C195 1.385 . S
H197 C195 0.950 . S
H198 C182 0.951 . S
H199 C184 0.951 . S
H200 C186 0.951 . S
H201 C187 0.950 . S
H202 C188 0.950 . S
H203 C189 0.950 . S
H204 C191 0.950 . S
H205 C192 0.951 . S
C206 C207 1.386 . S
C206 C208 1.383 . S
C206 H222 0.951 . S
C207 C206 1.386 . S
C207 C211 1.383 . S
C208 C206 1.383 . S
C208 C209 1.402 . S
C208 H223 0.951 . S
C209 C208 1.402 . S
C209 C210 1.375 . S
C209 C212 1.481 . S
C210 C209 1.375 . S
C210 C211 1.367 . S
C210 H224 0.951 . S
C211 C207 1.383 . S
C211 C210 1.367 . S
C211 H225 0.950 1_565 S
C212 C209 1.481 . S
C212 C213 1.297 . S
C212 H226 0.950 . S
C213 C212 1.297 . S
C213 C214 1.479 . S
C213 H227 0.950 . S
C214 C213 1.479 . S
C214 C215 1.375 . S
C214 C220 1.404 . S
C215 C214 1.375 . S
C215 C216 1.369 . S
C215 H228 0.950 . S
C216 C215 1.369 . S
C216 C217 1.392 . S
C216 H229 0.951 . S
C217 C216 1.392 . S
C217 C219 1.384 . S
H218 C220 0.949 . S
C219 C217 1.384 . S
C219 C220 1.385 . S
C219 H221 0.950 . S
C220 C214 1.404 . S
C220 H218 0.949 . S
C220 C219 1.385 . S
H221 C219 0.950 . S
H222 C206 0.951 . S
H223 C208 0.951 . S
H224 C210 0.951 . S
H225 C211 0.950 1_545 S
H226 C212 0.950 . S
H227 C213 0.950 . S
H228 C215 0.950 . S
H229 C216 0.951 . S
C230 C231 1.386 . S
C230 C232 1.383 . S
C230 H246 0.951 . S
C231 C230 1.386 . S
C231 C235 1.383 . S
C232 C230 1.383 . S
C232 C233 1.402 . S
C232 H247 0.951 . S
C233 C232 1.402 . S
C233 C234 1.375 . S
C233 C236 1.481 . S
C234 C233 1.375 . S
C234 C235 1.367 . S
C234 H248 0.951 . S
C235 C231 1.383 . S
C235 C234 1.367 . S
C235 H249 0.950 . S
C236 C233 1.481 . S
C236 C237 1.297 . S
C236 H250 0.950 . S
C237 C236 1.297 . S
C237 C238 1.479 . S
C237 H251 0.950 . S
C238 C237 1.479 . S
C238 C239 1.375 . S
C238 C244 1.404 . S
C239 C238 1.375 . S
C239 C240 1.369 . S
C239 H252 0.950 . S
C240 C239 1.369 . S
C240 C241 1.392 . S
C240 H253 0.951 . S
C241 C240 1.392 . S
C241 C243 1.384 . S
H242 C244 0.949 . S
C243 C241 1.384 . S
C243 C244 1.385 . S
C243 H245 0.950 . S
C244 C238 1.404 . S
C244 H242 0.949 . S
C244 C243 1.385 . S
H245 C243 0.950 . S
H246 C230 0.951 . S
H247 C232 0.951 . S
H248 C234 0.951 . S
H249 C235 0.950 . S
H250 C236 0.950 . S
H251 C237 0.950 . S
H252 C239 0.950 . S
H253 C240 0.951 . S
C254 C255 1.386 . S
C254 C256 1.383 . S
C254 H270 0.951 1_565 S
C255 C254 1.386 . S
C255 C259 1.383 . S
C256 C254 1.383 . S
C256 C257 1.402 . S
C256 H271 0.951 . S
C257 C256 1.402 . S
C257 C258 1.375 . S
C257 C260 1.481 . S
C258 C257 1.375 . S
C258 C259 1.367 . S
C258 H272 0.951 . S
C259 C255 1.383 . S
C259 C258 1.367 . S
C259 H273 0.950 . S
C260 C257 1.481 . S
C260 C261 1.297 . S
C260 H274 0.950 . S
C261 C260 1.297 . S
C261 C262 1.479 . S
C261 H275 0.950 . S
C262 C261 1.479 . S
C262 C263 1.375 . S
C262 C268 1.404 . S
C263 C262 1.375 . S
C263 C264 1.369 . S
C263 H276 0.950 . S
C264 C263 1.369 . S
C264 C265 1.392 . S
C264 H277 0.951 . S
C265 C264 1.392 . S
C265 C267 1.384 . S
H266 C268 0.949 . S
C267 C265 1.384 . S
C267 C268 1.385 . S
C267 H269 0.950 . S
C268 C262 1.404 . S
C268 H266 0.949 . S
C268 C267 1.385 . S
H269 C267 0.950 . S
H270 C254 0.951 1_545 S
H271 C256 0.951 . S
H272 C258 0.951 . S
H273 C259 0.950 . S
H274 C260 0.950 . S
H275 C261 0.950 . S
H276 C263 0.950 . S
H277 C264 0.951 . S
C278 C279 1.386 . S
C278 C280 1.383 . S
C278 H294 0.951 . S
C279 C278 1.386 . S
C279 C283 1.383 . S
C280 C278 1.383 . S
C280 C281 1.402 . S
C280 H295 0.951 . S
C281 C280 1.402 . S
C281 C282 1.375 . S
C281 C284 1.481 . S
C282 C281 1.375 . S
C282 C283 1.367 . S
C282 H296 0.951 . S
C283 C279 1.383 . S
C283 C282 1.367 . S
C283 H297 0.950 . S
C284 C281 1.481 . S
C284 C285 1.297 . S
C284 H298 0.950 . S
C285 C284 1.297 . S
C285 C286 1.479 . S
C285 H299 0.950 . S
C286 C285 1.479 . S
C286 C287 1.375 . S
C286 C292 1.404 . S
C287 C286 1.375 . S
C287 C288 1.369 . S
C287 H300 0.950 . S
C288 C287 1.369 . S
C288 C289 1.392 . S
C288 H301 0.951 . S
C289 C288 1.392 . S
C289 C291 1.384 . S
H290 C292 0.949 . S
C291 C289 1.384 . S
C291 C292 1.385 . S
C291 H293 0.950 . S
C292 C286 1.404 . S
C292 H290 0.949 . S
C292 C291 1.385 . S
H293 C291 0.950 . S
H294 C278 0.951 . S
H295 C280 0.951 . S
H296 C282 0.951 . S
H297 C283 0.950 . S
H298 C284 0.950 . S
H299 C285 0.950 . S
H300 C287 0.950 . S
H301 C288 0.951 . S
C302 C303 1.386 . S
C302 C304 1.383 . S
C302 H318 0.951 . S
C303 C302 1.386 . S
C303 C307 1.383 . S
C304 C302 1.383 . S
C304 C305 1.402 . S
C304 H319 0.951 . S
C305 C304 1.402 . S
C305 C306 1.375 . S
C305 C308 1.481 . S
C306 C305 1.375 . S
C306 C307 1.367 . S
C306 H320 0.951 . S
C307 C303 1.383 . S
C307 C306 1.367 . S
C307 H321 0.950 . S
C308 C305 1.481 . S
C308 C309 1.297 . S
C308 H322 0.950 . S
C309 C308 1.297 . S
C309 C310 1.479 . S
C309 H323 0.950 . S
C310 C309 1.479 . S
C310 C311 1.375 . S
C310 C316 1.404 . S
C311 C310 1.375 . S
C311 C312 1.369 . S
C311 H324 0.950 . S
C312 C311 1.369 . S
C312 C313 1.392 . S
C312 H325 0.951 . S
C313 C312 1.392 . S
C313 C315 1.384 . S
H314 C316 0.949 . S
C315 C313 1.384 . S
C315 C316 1.385 . S
C315 H317 0.950 . S
C316 C310 1.404 . S
C316 H314 0.949 . S
C316 C315 1.385 . S
H317 C315 0.950 . S
H318 C302 0.951 . S
H319 C304 0.951 . S
H320 C306 0.951 . S
H321 C307 0.950 . S
H322 C308 0.950 . S
H323 C309 0.950 . S
H324 C311 0.950 . S
H325 C312 0.951 . S
C326 C327 1.386 . S
C326 C328 1.383 . S
C326 H342 0.951 . S
C327 C326 1.386 . S
C327 C331 1.383 . S
C328 C326 1.383 . S
C328 C329 1.402 . S
C328 H343 0.951 . S
C329 C328 1.402 . S
C329 C330 1.375 . S
C329 C332 1.481 . S
C330 C329 1.375 . S
C330 C331 1.367 . S
C330 H344 0.951 . S
C331 C327 1.383 . S
C331 C330 1.367 . S
C331 H345 0.950 1_655 S
C332 C329 1.481 . S
C332 C333 1.297 . S
C332 H346 0.950 . S
C333 C332 1.297 . S
C333 C334 1.479 . S
C333 H347 0.950 . S
C334 C333 1.479 . S
C334 C335 1.375 . S
C334 C340 1.404 . S
C335 C334 1.375 . S
C335 C336 1.369 . S
C335 H348 0.950 . S
C336 C335 1.369 . S
C336 C337 1.392 . S
C336 H349 0.951 . S
C337 C336 1.392 . S
C337 C339 1.384 . S
H338 C340 0.949 . S
C339 C337 1.384 . S
C339 C340 1.385 . S
C339 H341 0.950 . S
C340 C334 1.404 . S
C340 H338 0.949 . S
C340 C339 1.385 . S
H341 C339 0.950 . S
H342 C326 0.951 . S
H343 C328 0.951 . S
H344 C330 0.951 . S
H345 C331 0.950 1_455 S
H346 C332 0.950 . S
H347 C333 0.950 . S
H348 C335 0.950 . S
H349 C336 0.951 . S
C350 C351 1.386 . S
C350 C352 1.383 . S
C350 H366 0.951 . S
C351 C350 1.386 . S
C351 C355 1.383 . S
C352 C350 1.383 . S
C352 C353 1.402 . S
C352 H367 0.951 . S
C353 C352 1.402 . S
C353 C354 1.375 . S
C353 C356 1.481 . S
C354 C353 1.375 . S
C354 C355 1.367 . S
C354 H368 0.951 . S
C355 C351 1.383 . S
C355 C354 1.367 . S
C355 H369 0.950 . S
C356 C353 1.481 . S
C356 C357 1.297 . S
C356 H370 0.950 . S
C357 C356 1.297 . S
C357 C358 1.479 . S
C357 H371 0.950 . S
C358 C357 1.479 . S
C358 C359 1.375 . S
C358 C364 1.404 . S
C359 C358 1.375 . S
C359 C360 1.369 . S
C359 H372 0.950 . S
C360 C359 1.369 . S
C360 C361 1.392 . S
C360 H373 0.951 . S
C361 C360 1.392 . S
C361 C363 1.384 . S
H362 C364 0.949 . S
C363 C361 1.384 . S
C363 C364 1.385 . S
C363 H365 0.950 . S
C364 C358 1.404 . S
C364 H362 0.949 . S
C364 C363 1.385 . S
H365 C363 0.950 . S
H366 C350 0.951 . S
H367 C352 0.951 . S
H368 C354 0.951 . S
H369 C355 0.950 . S
H370 C356 0.950 . S
H371 C357 0.950 . S
H372 C359 0.950 . S
H373 C360 0.951 . S
C374 C375 1.386 . S
C374 C376 1.383 . S
C374 H390 0.951 1_655 S
C375 C374 1.386 . S
C375 C379 1.383 . S
C376 C374 1.383 . S
C376 C377 1.402 . S
C376 H391 0.951 . S
C377 C376 1.402 . S
C377 C378 1.375 . S
C377 C380 1.481 . S
C378 C377 1.375 . S
C378 C379 1.367 . S
C378 H392 0.951 . S
C379 C375 1.383 . S
C379 C378 1.367 . S
C379 H393 0.950 . S
C380 C377 1.481 . S
C380 C381 1.297 . S
C380 H394 0.950 . S
C381 C380 1.297 . S
C381 C382 1.479 . S
C381 H395 0.950 . S
C382 C381 1.479 . S
C382 C383 1.375 . S
C382 C388 1.404 . S
C383 C382 1.375 . S
C383 C384 1.369 . S
C383 H396 0.950 . S
C384 C383 1.369 . S
C384 C385 1.392 . S
C384 H397 0.951 . S
C385 C384 1.392 . S
C385 C387 1.384 . S
H386 C388 0.949 . S
C387 C385 1.384 . S
C387 C388 1.385 . S
C387 H389 0.950 . S
C388 C382 1.404 . S
C388 H386 0.949 . S
C388 C387 1.385 . S
H389 C387 0.950 . S
H390 C374 0.951 1_455 S
H391 C376 0.951 . S
H392 C378 0.951 . S
H393 C379 0.950 . S
H394 C380 0.950 . S
H395 C381 0.950 . S
H396 C383 0.950 . S
H397 C384 0.951 . S
C111 C0 1.650 . S
C121 C87 1.369 . S
C135 C42 1.765 . S
C145 C93 1.537 . S
C159 C17 1.633 . S
C169 C84 1.520 . S
C183 C63 1.490 . S
C193 C109 1.346 . S
C207 C13 1.198 . S
C217 C75 1.151 . S
C241 C92 1.186 . S
C231 C38 1.222 . S
C255 C34 1.649 . S
C265 C88 1.391 . S
C289 C105 1.029 . S
C279 C4 1.247 . S
C313 C72 1.134 . S
C303 C47 1.212 . S
C337 C108 1.246 . S
C327 C29 1.490 . S
C361 C71 1.462 . S
C351 C51 1.639 . S
C385 C96 1.547 . S
C375 C8 1.765 . S
