# Generated by pormake.
# Topology csq, (4,8)-cn, num edge types: 1
# Building blocks:
#     Node 0, Type 0, BuildingBlock: MUDLON_clean_sbu_0, # of connection points: 4
#     Node 1, Type 0, BuildingBlock: MUDLON_clean_sbu_0, # of connection points: 4
#     Node 2, Type 0, BuildingBlock: MUDLON_clean_sbu_0, # of connection points: 4
#     Node 3, Type 0, BuildingBlock: MUDLON_clean_sbu_0, # of connection points: 4
#     Node 4, Type 0, BuildingBlock: MUDLON_clean_sbu_0, # of connection points: 4
#     Node 5, Type 0, BuildingBlock: MUDLON_clean_sbu_0, # of connection points: 4
#     Node 6, Type 1, BuildingBlock: TAGTUT_clean_sbu_3, # of connection points: 8
#     Node 7, Type 1, BuildingBlock: TAGTUT_clean_sbu_3, # of connection points: 8
#     Node 8, Type 1, BuildingBlock: TAGTUT_clean_sbu_3, # of connection points: 8
#     Edge 9, Type (0, 1), BuildingBlock: EZIPEK_clean_linker_0, # of connection points: 2
#     Edge 10, Type (0, 1), BuildingBlock: EZIPEK_clean_linker_0, # of connection points: 2
#     Edge 11, Type (0, 1), BuildingBlock: EZIPEK_clean_linker_0, # of connection points: 2
#     Edge 12, Type (0, 1), BuildingBlock: EZIPEK_clean_linker_0, # of connection points: 2
#     Edge 13, Type (0, 1), BuildingBlock: EZIPEK_clean_linker_0, # of connection points: 2
#     Edge 14, Type (0, 1), BuildingBlock: EZIPEK_clean_linker_0, # of connection points: 2
#     Edge 15, Type (0, 1), BuildingBlock: EZIPEK_clean_linker_0, # of connection points: 2
#     Edge 16, Type (0, 1), BuildingBlock: EZIPEK_clean_linker_0, # of connection points: 2
#     Edge 17, Type (0, 1), BuildingBlock: EZIPEK_clean_linker_0, # of connection points: 2
#     Edge 18, Type (0, 1), BuildingBlock: EZIPEK_clean_linker_0, # of connection points: 2
#     Edge 19, Type (0, 1), BuildingBlock: EZIPEK_clean_linker_0, # of connection points: 2
#     Edge 20, Type (0, 1), BuildingBlock: EZIPEK_clean_linker_0, # of connection points: 2
#     Edge 21, Type (0, 1), BuildingBlock: EZIPEK_clean_linker_0, # of connection points: 2
#     Edge 22, Type (0, 1), BuildingBlock: EZIPEK_clean_linker_0, # of connection points: 2
#     Edge 23, Type (0, 1), BuildingBlock: EZIPEK_clean_linker_0, # of connection points: 2
#     Edge 24, Type (0, 1), BuildingBlock: EZIPEK_clean_linker_0, # of connection points: 2
#     Edge 25, Type (0, 1), BuildingBlock: EZIPEK_clean_linker_0, # of connection points: 2
#     Edge 26, Type (0, 1), BuildingBlock: EZIPEK_clean_linker_0, # of connection points: 2
#     Edge 27, Type (0, 1), BuildingBlock: EZIPEK_clean_linker_0, # of connection points: 2
#     Edge 28, Type (0, 1), BuildingBlock: EZIPEK_clean_linker_0, # of connection points: 2
#     Edge 29, Type (0, 1), BuildingBlock: EZIPEK_clean_linker_0, # of connection points: 2
#     Edge 30, Type (0, 1), BuildingBlock: EZIPEK_clean_linker_0, # of connection points: 2
#     Edge 31, Type (0, 1), BuildingBlock: EZIPEK_clean_linker_0, # of connection points: 2
#     Edge 32, Type (0, 1), BuildingBlock: EZIPEK_clean_linker_0, # of connection points: 2
# Relax obj value: 0.067
# Max RMSD: 0.124
# Mean RMSD: 0.102
data_MOF--net-csq--node1-MUDLON_clean_sbu_0--node2-TAGTUT_clean_sbu_3--edge1-EZIPEK_clean_linker_0
_symmetry_space_group_name_H-M    P1
_symmetry_Int_Tables_number       1
_symmetry_cell_setting            triclinic
loop_
_symmetry_equiv_pos_as_xyz
'x, y, z'
_cell_length_a     37.951149
_cell_length_b     37.288214
_cell_length_c     15.236548
_cell_angle_alpha  93.296228
_cell_angle_beta   93.350095
_cell_angle_gamma 120.02245
loop_
_atom_site_label
_atom_site_type_symbol
_atom_site_fract_x
_atom_site_fract_y
_atom_site_fract_z
_atom_type_partial_charge
Mg0 Mg 0.2675 0.50673 0.24286 0.0
C1 C 0.18284 0.45849 0.14024 0.0
O2 O 0.17009 0.45959 0.21779 0.0
C3 C 0.28272 0.43732 0.30544 0.0
O4 O 0.26289 0.41447 0.23107 0.0
C5 C 0.21861 0.50806 0.37928 0.0
O6 O 0.21484 0.47099 0.36975 0.0
O7 O 0.24369 0.53553 0.33364 0.0
O8 O 0.22044 0.47113 0.13399 0.0
O9 O 0.32512 0.54165 0.18455 0.0
C10 C 0.3252 0.54016 0.10092 0.0
O11 O 0.29138 0.5306 0.0523 0.0
O12 O 0.28494 0.47198 0.32407 0.0
Mg13 Mg 0.79505 0.24236 0.13303 0.0
C14 C 0.81048 0.31944 0.02278 0.0
O15 O 0.77332 0.31299 0.0272 0.0
C16 C 0.70805 0.21927 0.19282 0.0
O17 O 0.70186 0.23998 0.13289 0.0
C18 C 0.84772 0.29189 0.28503 0.0
O19 O 0.82332 0.306 0.26196 0.0
O20 O 0.84317 0.25963 0.24016 0.0
O21 O 0.82179 0.2967 0.05977 0.0
O22 O 0.77025 0.18865 0.03396 0.0
C23 C 0.74125 0.18852 0.98688 0.0
O24 O 0.73621 0.22075 0.99821 0.0
O25 O 0.74231 0.22131 0.20584 0.0
Mg26 Mg 0.51108 0.74283 0.04102 0.0
C27 C 0.53624 0.79644 0.22183 0.0
O28 O 0.56084 0.78127 0.22822 0.0
C29 C 0.54404 0.72175 0.87636 0.0
O30 O 0.56858 0.76229 0.88684 0.0
C31 C 0.53965 0.8282 0.94816 0.0
O32 O 0.56823 0.84585 0.01486 0.0
O33 O 0.51469 0.78916 0.9425 0.0
O34 O 0.51028 0.78492 0.15451 0.0
O35 O 0.5012 0.69229 0.135 0.0
C36 C 0.52646 0.67976 0.1497 0.0
O37 O 0.56099 0.6972 0.11305 0.0
O38 O 0.51631 0.70421 0.92793 0.0
Mg39 Mg 0.77189 0.50636 0.05927 0.0
C40 C 0.71719 0.51547 0.94102 0.0
O41 O 0.75097 0.55192 0.95544 0.0
C42 C 0.8049 0.44999 0.08204 0.0
O43 O 0.79856 0.44563 0.99589 0.0
C44 C 0.7388 0.51876 0.22095 0.0
O45 O 0.73332 0.48119 0.22363 0.0
O46 O 0.7595 0.54087 0.16185 0.0
O47 O 0.71624 0.48433 0.97364 0.0
O48 O 0.8227 0.53489 0.97658 0.0
C49 C 0.81542 0.52264 0.89414 0.0
O50 O 0.77739 0.5006 0.85885 0.0
O51 O 0.78717 0.46538 0.12543 0.0
Mg52 Mg 0.22673 0.81562 0.12992 0.0
C53 C 0.18059 0.76199 0.96498 0.0
O54 O 0.17744 0.79516 0.95713 0.0
C55 C 0.31202 0.83544 0.2347 0.0
O56 O 0.3093 0.80091 0.20044 0.0
C57 C 0.18049 0.76001 0.25333 0.0
O58 O 0.2075 0.75003 0.22985 0.0
O59 O 0.18102 0.79143 0.22307 0.0
O60 O 0.20346 0.76204 0.02995 0.0
O61 O 0.23875 0.86763 0.05499 0.0
C62 C 0.26504 0.87033 0.00349 0.0
O63 O 0.27613 0.84212 0.00216 0.0
O64 O 0.28441 0.84406 0.21396 0.0
Mg65 Mg 0.47148 0.24086 0.24773 0.0
C66 C 0.42566 0.23552 0.40617 0.0
O67 O 0.44493 0.21696 0.43539 0.0
C68 C 0.48731 0.19888 0.10188 0.0
O69 O 0.5186 0.23699 0.11248 0.0
C70 C 0.5115 0.31779 0.12812 0.0
O71 O 0.54773 0.32146 0.141 0.0
O72 O 0.48172 0.29146 0.16659 0.0
O73 O 0.42366 0.23899 0.32349 0.0
O74 O 0.51331 0.24223 0.35581 0.0
C75 C 0.52766 0.2179 0.34983 0.0
O76 O 0.53552 0.20841 0.27211 0.0
O77 O 0.45834 0.18901 0.15077 0.0
C78 C 0.08172 0.49526 0.55972 0.0
C79 C 0.06788 0.45764 0.88313 0.0
C80 C 0.94457 0.43498 0.84071 0.0
Mg81 Mg 0.02757 0.52044 0.42717 0.0
Mg82 Mg 0.98038 0.57036 0.49675 0.0
O83 O 0.99669 0.53184 0.51683 0.0
Mg84 Mg 0.01541 0.51846 0.62854 0.0
O85 O 0.0344 0.49979 0.73255 0.0
Mg86 Mg 0.01089 0.43947 0.69274 0.0
Mg87 Mg 0.02876 0.51178 0.84887 0.0
C88 C 0.94523 0.54396 0.68126 0.0
O89 O 0.0582 0.58724 0.69669 0.0
O90 O 0.97952 0.51416 0.316 0.0
O91 O 0.05866 0.5776 0.84241 0.0
O92 O 0.06747 0.59205 0.4165 0.0
O93 O 0.94124 0.53725 0.37809 0.0
O94 O 0.03484 0.62432 0.46629 0.0
O95 O 0.97451 0.44829 0.57715 0.0
O96 O 0.98569 0.45187 0.43533 0.0
C97 C 0.96828 0.43071 0.49838 0.0
C98 C 0.94783 0.51821 0.31438 0.0
O99 O 0.96268 0.52219 0.69326 0.0
O100 O 0.05082 0.43606 0.80872 0.0
O101 O 0.95081 0.5661 0.61634 0.0
O102 O 0.9564 0.41827 0.78202 0.0
O103 O 0.06386 0.48827 0.91089 0.0
O104 O 0.96594 0.47342 0.86935 0.0
O105 O 0.06641 0.51891 0.5515 0.0
O106 O 0.0664 0.466 0.61063 0.0
C107 C 0.06519 0.62498 0.43269 0.0
C108 C 0.06936 0.60119 0.77942 0.0
C109 C 0.50605 0.07908 0.5143 0.0
C110 C 0.61111 0.07439 0.36487 0.0
C111 C 0.55811 0.94235 0.42639 0.0
Mg112 Mg 0.44951 0.03146 0.66468 0.0
Mg113 Mg 0.48276 0.99846 0.82694 0.0
O114 O 0.47384 0.99721 0.70569 0.0
Mg115 Mg 0.51857 0.01292 0.62554 0.0
O116 O 0.5577 0.02906 0.53309 0.0
Mg117 Mg 0.51912 0.00658 0.42111 0.0
Mg118 Mg 0.60632 0.02833 0.53255 0.0
C119 C 0.52349 0.94673 0.75707 0.0
O120 O 0.57568 0.05706 0.72789 0.0
O121 O 0.39556 0.99487 0.74804 0.0
O122 O 0.62802 0.05417 0.66895 0.0
O123 O 0.48121 0.08071 0.78522 0.0
O124 O 0.42026 0.97213 0.8561 0.0
O125 O 0.51363 0.06181 0.88109 0.0
O126 O 0.46913 0.97015 0.51352 0.0
O127 O 0.41795 0.98029 0.54585 0.0
C128 C 0.43229 0.96202 0.49841 0.0
C129 C 0.39125 0.97518 0.81669 0.0
O130 O 0.52639 0.95873 0.6784 0.0
O131 O 0.57247 0.05056 0.34585 0.0
O132 O 0.5113 0.96088 0.82005 0.0
O133 O 0.53265 0.953 0.39761 0.0
O134 O 0.63062 0.07119 0.43272 0.0
O135 O 0.58797 0.96536 0.48474 0.0
O136 O 0.50683 0.06568 0.58923 0.0
O137 O 0.50893 0.06103 0.44397 0.0
C138 C 0.50435 0.08838 0.85664 0.0
C139 C 0.61332 0.0656 0.73136 0.0
C140 C 0.53489 0.58381 0.71713 0.0
C141 C 0.42738 0.49331 0.91586 0.0
C142 C 0.47392 0.40802 0.8772 0.0
Mg143 Mg 0.57437 0.56228 0.55389 0.0
Mg144 Mg 0.5191 0.47661 0.41805 0.0
O145 O 0.53773 0.4998 0.53504 0.0
Mg146 Mg 0.50132 0.48913 0.63375 0.0
O147 O 0.47001 0.48335 0.73898 0.0
Mg148 Mg 0.51487 0.50858 0.8391 0.0
Mg149 Mg 0.42337 0.43347 0.75743 0.0
C150 C 0.47031 0.39659 0.52647 0.0
O151 O 0.44236 0.4739 0.54933 0.0
O152 O 0.61745 0.55629 0.45826 0.0
O153 O 0.39448 0.42297 0.6221 0.0
O154 O 0.54141 0.57348 0.43493 0.0
O155 O 0.57878 0.49479 0.37588 0.0
O156 O 0.49734 0.51394 0.35363 0.0
O157 O 0.55422 0.50168 0.73352 0.0
O158 O 0.60684 0.54973 0.67006 0.0
C159 C 0.5925 0.5258 0.7314 0.0
C160 C 0.61331 0.52795 0.39943 0.0
O161 O 0.47756 0.41827 0.6015 0.0
O162 O 0.46675 0.51158 0.925 0.0
O163 O 0.48088 0.41278 0.45317 0.0
O164 O 0.50015 0.44671 0.88875 0.0
O165 O 0.40527 0.46322 0.85597 0.0
O166 O 0.4418 0.39354 0.82273 0.0
O167 O 0.52686 0.55949 0.64726 0.0
O168 O 0.5308 0.57076 0.79333 0.0
C169 C 0.51459 0.55356 0.36895 0.0
C170 C 0.40522 0.4451 0.55608 0.0
C171 C 0.17327 0.48572 0.50016 0.0
C172 C 0.19014 0.51373 0.43537 0.0
C173 C 0.14339 0.53889 0.47153 0.0
C174 C 0.11911 0.5024 0.51505 0.0
N175 N 0.10865 0.43331 0.53813 0.0
N176 N 0.18447 0.56422 0.34982 0.0
C177 C 0.13331 0.4735 0.5206 0.0
C178 C 0.17341 0.53969 0.41781 0.0
N179 N 0.19466 0.46979 0.54081 0.0
N180 N 0.14035 0.57375 0.4843 0.0
H181 H 0.20558 0.56616 0.30719 0.0
H182 H 0.1695 0.58009 0.33132 0.0
H183 H 0.1243 0.57816 0.53264 0.0
H184 H 0.15939 0.60112 0.45664 0.0
H185 H 0.1834 0.45045 0.59136 0.0
H186 H 0.22522 0.48017 0.53157 0.0
H187 H 0.11896 0.41209 0.53901 0.0
H188 H 0.07703 0.41904 0.53595 0.0
C189 C 0.67433 0.18843 0.32588 0.0
C190 C 0.67387 0.18554 0.23286 0.0
C191 C 0.63033 0.10947 0.22439 0.0
C192 C 0.63177 0.11239 0.31797 0.0
N193 N 0.64231 0.15528 0.45351 0.0
N194 N 0.64357 0.14557 0.09158 0.0
C195 C 0.64994 0.15209 0.36762 0.0
C196 C 0.64879 0.14673 0.1814 0.0
N197 N 0.69908 0.22588 0.37453 0.0
N198 N 0.61292 0.0712 0.17727 0.0
H199 H 0.65643 0.17222 0.05835 0.0
H200 H 0.62404 0.1188 0.04997 0.0
H201 H 0.60082 0.04349 0.20702 0.0
H202 H 0.6125 0.06652 0.10923 0.0
H203 H 0.70513 0.22908 0.44299 0.0
H204 H 0.71519 0.25361 0.34548 0.0
H205 H 0.65181 0.18361 0.49007 0.0
H206 H 0.62272 0.12973 0.48561 0.0
C207 C 0.50559 0.6434 0.28963 0.0
C208 C 0.51585 0.64329 0.20134 0.0
C209 C 0.51739 0.57867 0.21674 0.0
C210 C 0.50722 0.57882 0.30523 0.0
N211 N 0.48035 0.60417 0.41616 0.0
N212 N 0.51995 0.60476 0.07364 0.0
C213 C 0.49759 0.60893 0.33828 0.0
C214 C 0.51803 0.60893 0.1627 0.0
N215 N 0.50593 0.67743 0.32913 0.0
N216 N 0.5289 0.55136 0.18544 0.0
H217 H 0.5197 0.62576 0.03159 0.0
H218 H 0.51765 0.57847 0.04001 0.0
H219 H 0.52778 0.52774 0.22045 0.0
H220 H 0.54219 0.55372 0.12654 0.0
H221 H 0.50333 0.68131 0.39621 0.0
H222 H 0.51209 0.7035 0.29671 0.0
H223 H 0.46916 0.62279 0.44059 0.0
H224 H 0.47338 0.57869 0.45166 0.0
C225 C 0.88075 0.47737 0.09509 0.0
C226 C 0.8421 0.45256 0.12724 0.0
C227 C 0.87708 0.45881 0.27224 0.0
C228 C 0.91338 0.4924 0.24608 0.0
N229 N 0.95107 0.53292 0.13163 0.0
N230 N 0.80358 0.4134 0.24169 0.0
C231 C 0.91586 0.50111 0.15679 0.0
C232 C 0.84047 0.44086 0.2143 0.0
N233 N 0.88425 0.47731 0.00642 0.0
N234 N 0.87798 0.44379 0.35164 0.0
H235 H 0.77701 0.39748 0.19792 0.0
H236 H 0.79912 0.40728 0.30718 0.0
H237 H 0.90461 0.45585 0.39479 0.0
H238 H 0.85354 0.41707 0.37118 0.0
H239 H 0.9121 0.49326 0.9798 0.0
H240 H 0.86057 0.45613 0.96004 0.0
H241 H 0.95312 0.54384 0.06963 0.0
H242 H 0.97758 0.55025 0.17492 0.0
C243 C 0.37121 0.90752 0.27595 0.0
C244 C 0.34751 0.86594 0.29746 0.0
C245 C 0.38562 0.88654 0.44487 0.0
C246 C 0.40483 0.92894 0.42742 0.0
N247 N 0.41404 0.98061 0.32896 0.0
N248 N 0.32902 0.81621 0.40545 0.0
C249 C 0.39723 0.93967 0.34349 0.0
C250 C 0.35424 0.85534 0.38239 0.0
N251 N 0.36958 0.91598 0.19017 0.0
N252 N 0.39729 0.87609 0.52134 0.0
H253 H 0.30573 0.79247 0.36186 0.0
H254 H 0.32913 0.80804 0.46963 0.0
H255 H 0.41906 0.89812 0.5701 0.0
H256 H 0.38782 0.84551 0.53341 0.0
H257 H 0.3891 0.94475 0.16838 0.0
H258 H 0.35139 0.893 0.1389 0.0
H259 H 0.40599 0.99058 0.27277 0.0
H260 H 0.43405 0.00488 0.37612 0.0
C261 C 0.39943 0.28449 0.43734 0.0
C262 C 0.42285 0.2668 0.46701 0.0
C263 C 0.47016 0.3311 0.5592 0.0
C264 C 0.44967 0.35053 0.52225 0.0
N265 N 0.38715 0.3424 0.45318 0.0
N266 N 0.46343 0.26563 0.59378 0.0
C267 C 0.41156 0.32598 0.47013 0.0
C268 C 0.45262 0.28749 0.5407 0.0
N269 N 0.36634 0.26178 0.37649 0.0
N270 N 0.50751 0.35424 0.60676 0.0
H271 H 0.44762 0.23316 0.58752 0.0
H272 H 0.48349 0.27934 0.65119 0.0
H273 H 0.52164 0.38638 0.6218 0.0
H274 H 0.52551 0.34165 0.62611 0.0
H275 H 0.35057 0.27406 0.34368 0.0
H276 H 0.35519 0.23023 0.35826 0.0
H277 H 0.35792 0.32576 0.41984 0.0
H278 H 0.39491 0.37183 0.48113 0.0
C279 C 0.49597 0.85015 0.86146 0.0
C280 C 0.53489 0.8542 0.8828 0.0
C281 C 0.56651 0.9148 0.79677 0.0
C282 C 0.52761 0.91041 0.77653 0.0
N283 N 0.45458 0.86621 0.76232 0.0
N284 N 0.60489 0.88285 0.84958 0.0
C285 C 0.49212 0.87507 0.79904 0.0
C286 C 0.56954 0.88422 0.8437 0.0
N287 N 0.46339 0.82546 0.90611 0.0
N288 N 0.60052 0.94888 0.77404 0.0
H289 H 0.60763 0.86003 0.88066 0.0
H290 H 0.63 0.90165 0.81638 0.0
H291 H 0.59868 0.97023 0.73545 0.0
H292 H 0.63023 0.95678 0.79634 0.0
H293 H 0.43567 0.82497 0.89892 0.0
H294 H 0.46505 0.80897 0.95751 0.0
H295 H 0.42762 0.83884 0.77016 0.0
H296 H 0.45122 0.88427 0.71632 0.0
C297 C 0.66267 0.48707 0.81287 0.0
C298 C 0.6806 0.51278 0.89381 0.0
C299 C 0.63461 0.54098 0.87523 0.0
C300 C 0.62083 0.51953 0.78968 0.0
N301 N 0.62132 0.47298 0.67371 0.0
N302 N 0.68463 0.56498 0.00277 0.0
C303 C 0.63443 0.49245 0.75787 0.0
C304 C 0.66661 0.53974 0.92553 0.0
N305 N 0.67279 0.45779 0.78814 0.0
N306 N 0.61676 0.56219 0.90854 0.0
H307 H 0.70597 0.56311 0.04552 0.0
H308 H 0.67976 0.58911 0.02339 0.0
H309 H 0.59433 0.56498 0.87187 0.0
H310 H 0.6218 0.57441 0.9742 0.0
H311 H 0.6574 0.43495 0.73532 0.0
H312 H 0.69478 0.4541 0.82387 0.0
H313 H 0.63392 0.45725 0.64195 0.0
H314 H 0.59915 0.47447 0.63285 0.0
C315 C 0.16623 0.70493 0.84636 0.0
C316 C 0.15165 0.7229 0.9087 0.0
C317 C 0.08149 0.6648 0.87043 0.0
C318 C 0.09584 0.6464 0.80832 0.0
N319 N 0.15046 0.65114 0.7272 0.0
N320 N 0.09465 0.72429 0.96877 0.0
C321 C 0.13778 0.66744 0.79248 0.0
C322 C 0.10903 0.70436 0.91647 0.0
N323 N 0.20739 0.72339 0.84019 0.0
N324 N 0.04174 0.64306 0.8896 0.0
H325 H 0.1134 0.75124 0.01074 0.0
H326 H 0.06388 0.7155 0.96701 0.0
H327 H 0.02005 0.61473 0.85518 0.0
H328 H 0.03065 0.65149 0.94309 0.0
H329 H 0.22097 0.71016 0.80329 0.0
H330 H 0.22866 0.75169 0.87568 0.0
H331 H 0.17963 0.66636 0.70639 0.0
H332 H 0.1309 0.62322 0.68874 0.0
C333 C 0.49867 0.13917 0.06932 0.0
C334 C 0.48897 0.16852 0.03778 0.0
C335 C 0.50489 0.15541 0.88962 0.0
C336 C 0.51192 0.12414 0.92047 0.0
N337 N 0.53671 0.10403 0.04714 0.0
N338 N 0.47786 0.20146 0.91665 0.0
C339 C 0.5151 0.12109 0.01264 0.0
C340 C 0.49115 0.17613 0.94752 0.0
N341 N 0.49121 0.12758 0.15266 0.0
N342 N 0.51384 0.16674 0.80647 0.0
H343 H 0.46577 0.21528 0.95711 0.0
H344 H 0.47519 0.20578 0.85026 0.0
H345 H 0.52729 0.15425 0.76645 0.0
H346 H 0.51243 0.19134 0.781 0.0
H347 H 0.49421 0.10342 0.17601 0.0
H348 H 0.47743 0.1387 0.19463 0.0
H349 H 0.54264 0.104 0.11478 0.0
H350 H 0.55439 0.09628 0.00941 0.0
C351 C 0.39133 0.56121 0.03386 0.0
C352 C 0.3542 0.52974 0.06115 0.0
C353 C 0.37146 0.47699 0.01306 0.0
C354 C 0.40565 0.50746 0.97447 0.0
N355 N 0.4435 0.57788 0.93365 0.0
N356 N 0.30529 0.45651 0.0626 0.0
C357 C 0.41478 0.5496 0.98173 0.0
C358 C 0.34325 0.48729 0.0468 0.0
N359 N 0.40396 0.60209 0.0568 0.0
N360 N 0.36636 0.43825 0.01914 0.0
H361 H 0.28415 0.46228 0.09133 0.0
H362 H 0.2938 0.42518 0.04202 0.0
H363 H 0.38727 0.43004 0.99828 0.0
H364 H 0.34373 0.41565 0.05261 0.0
H365 H 0.43264 0.62636 0.04583 0.0
H366 H 0.38697 0.6114 0.09328 0.0
H367 H 0.44818 0.60769 0.92908 0.0
H368 H 0.46038 0.57066 0.89207 0.0
C369 C 0.87895 0.38283 0.02537 0.0
C370 C 0.84113 0.35394 0.97675 0.0
C371 C 0.86913 0.38302 0.83958 0.0
C372 C 0.90835 0.40792 0.88707 0.0
N373 N 0.95209 0.42552 0.02361 0.0
N374 N 0.8007 0.32328 0.83629 0.0
C375 C 0.91366 0.40652 0.97977 0.0
C376 C 0.8361 0.35342 0.88346 0.0
N377 N 0.88157 0.38763 0.1156 0.0
N378 N 0.86342 0.38809 0.75291 0.0
H379 H 0.77569 0.30145 0.86591 0.0
H380 H 0.797 0.31806 0.76763 0.0
H381 H 0.88701 0.4097 0.71971 0.0
H382 H 0.83493 0.37364 0.71625 0.0
H383 H 0.90731 0.41082 0.1547 0.0
H384 H 0.85638 0.37128 0.15089 0.0
H385 H 0.95787 0.42178 0.08911 0.0
H386 H 0.97876 0.4415 0.99266 0.0
C387 C 0.88299 0.56915 0.83583 0.0
C388 C 0.84899 0.52866 0.83986 0.0
C389 C 0.87639 0.49994 0.73204 0.0
C390 C 0.91271 0.53912 0.73708 0.0
N391 N 0.95118 0.61185 0.79134 0.0
N392 N 0.81585 0.4541 0.79879 0.0
C393 C 0.9162 0.57401 0.7884 0.0
C394 C 0.84636 0.4937 0.78987 0.0
N395 N 0.88238 0.60314 0.87274 0.0
N396 N 0.86911 0.46934 0.66736 0.0
H397 H 0.79176 0.44695 0.83672 0.0
H398 H 0.8161 0.42769 0.77349 0.0
H399 H 0.88975 0.47281 0.6217 0.0
H400 H 0.84086 0.44215 0.65281 0.0
H401 H 0.90406 0.63373 0.86465 0.0
H402 H 0.8581 0.60094 0.90543 0.0
H403 H 0.95803 0.63731 0.83564 0.0
H404 H 0.97475 0.6173 0.75246 0.0
C405 C 0.31839 0.94406 0.99148 0.0
C406 C 0.28632 0.90546 0.94986 0.0
C407 C 0.31764 0.91921 0.81071 0.0
C408 C 0.35166 0.95579 0.85463 0.0
N409 N 0.37937 0.01006 0.97514 0.0
N410 N 0.24779 0.86322 0.8162 0.0
C411 C 0.35013 0.97069 0.94127 0.0
C412 C 0.28334 0.89569 0.85766 0.0
N413 N 0.31995 0.95375 0.08 0.0
N414 N 0.31932 0.9054 0.72683 0.0
H415 H 0.22238 0.84627 0.8504 0.0
H416 H 0.24212 0.8559 0.74798 0.0
H417 H 0.34377 0.92211 0.68999 0.0
H418 H 0.29755 0.87641 0.69521 0.0
H419 H 0.34502 0.97886 0.11687 0.0
H420 H 0.29636 0.93557 0.1176 0.0
H421 H 0.37852 0.02419 0.03528 0.0
H422 H 0.40276 0.03006 0.93894 0.0
C423 C 0.48992 0.36923 0.09228 0.0
C424 C 0.50346 0.34179 0.06297 0.0
C425 C 0.49592 0.35616 0.90922 0.0
C426 C 0.4797 0.38123 0.93812 0.0
N427 N 0.45571 0.40734 0.0547 0.0
N428 N 0.51477 0.3048 0.94278 0.0
C429 C 0.47506 0.38643 0.02907 0.0
C430 C 0.50535 0.33414 0.97117 0.0
N431 N 0.49291 0.38023 0.18081 0.0
N432 N 0.50361 0.35457 0.82303 0.0
H433 H 0.52302 0.28889 0.98573 0.0
H434 H 0.51184 0.29411 0.87662 0.0
H435 H 0.4956 0.36908 0.77579 0.0
H436 H 0.52002 0.34117 0.79948 0.0
H437 H 0.48779 0.4035 0.20661 0.0
H438 H 0.5042 0.36871 0.22889 0.0
H439 H 0.44738 0.40859 0.11821 0.0
H440 H 0.44481 0.42066 0.01032 0.0
C441 C 0.16703 0.48837 0.01121 0.0
C442 C 0.15602 0.45393 0.06134 0.0
C443 C 0.0869 0.41771 0.98402 0.0
C444 C 0.09863 0.45185 0.93325 0.0
N445 N 0.15241 0.51244 0.87749 0.0
N446 N 0.10912 0.38242 0.08283 0.0
C447 C 0.13972 0.48459 0.93953 0.0
C448 C 0.11705 0.41733 0.04334 0.0
N449 N 0.20158 0.52598 0.03642 0.0
N450 N 0.04682 0.3869 0.97868 0.0
H451 H 0.13088 0.38139 0.12612 0.0
H452 H 0.08255 0.35368 0.06683 0.0
H453 H 0.0243 0.38603 0.93438 0.0
H454 H 0.03552 0.36361 0.02127 0.0
H455 H 0.20825 0.55295 0.00709 0.0
H456 H 0.22143 0.53178 0.09245 0.0
H457 H 0.18302 0.53471 0.87449 0.0
H458 H 0.13293 0.51031 0.8236 0.0
C459 C 0.68646 0.11314 0.94314 0.0
C460 C 0.71264 0.15398 0.91936 0.0
C461 C 0.66963 0.13755 0.77968 0.0
C462 C 0.64412 0.09642 0.80153 0.0
N463 N 0.62957 0.04293 0.89802 0.0
N464 N 0.73541 0.20112 0.80656 0.0
C465 C 0.65306 0.08351 0.88152 0.0
C466 C 0.70598 0.16492 0.83497 0.0
N467 N 0.69243 0.10328 0.02562 0.0
N468 N 0.65861 0.15072 0.70652 0.0
H469 H 0.76318 0.22107 0.84429 0.0
H470 H 0.73437 0.20923 0.7426 0.0
H471 H 0.63229 0.13147 0.66389 0.0
H472 H 0.67345 0.18159 0.69216 0.0
H473 H 0.67306 0.07517 0.04978 0.0
H474 H 0.71614 0.12401 0.07253 0.0
H475 H 0.63657 0.02978 0.94971 0.0
H476 H 0.60338 0.02165 0.85708 0.0
C477 C 0.58367 0.69126 0.81124 0.0
C478 C 0.54871 0.69592 0.80633 0.0
C479 C 0.51177 0.63449 0.69932 0.0
C480 C 0.54463 0.62703 0.71338 0.0
N481 N 0.6159 0.65388 0.7527 0.0
N482 N 0.48621 0.68192 0.72483 0.0
C483 C 0.5823 0.65799 0.75813 0.0
C484 C 0.51505 0.67092 0.7425 0.0
N485 N 0.61649 0.71613 0.87152 0.0
N486 N 0.47639 0.60503 0.6511 0.0
H487 H 0.48847 0.70881 0.75582 0.0
H488 H 0.46237 0.66679 0.67448 0.0
H489 H 0.47393 0.57875 0.61666 0.0
H490 H 0.44937 0.60591 0.64719 0.0
H491 H 0.64076 0.71106 0.88507 0.0
H492 H 0.61871 0.7409 0.91162 0.0
H493 H 0.6453 0.67654 0.77885 0.0
H494 H 0.6144 0.62894 0.71423 0.0
C495 C 0.47899 0.14998 0.40648 0.0
C496 C 0.51803 0.1871 0.41586 0.0
C497 C 0.54361 0.15706 0.52415 0.0
C498 C 0.50623 0.11861 0.50602 0.0
N499 N 0.4349 0.08197 0.45633 0.0
N500 N 0.58417 0.23003 0.49637 0.0
C501 C 0.47268 0.11649 0.45613 0.0
C502 C 0.54919 0.19208 0.47991 0.0
N503 N 0.44874 0.14585 0.34631 0.0
N504 N 0.57402 0.15921 0.58079 0.0
H505 H 0.58835 0.25581 0.46484 0.0
H506 H 0.60811 0.23694 0.54374 0.0
H507 H 0.56978 0.13443 0.61605 0.0
H508 H 0.60316 0.18512 0.59402 0.0
H509 H 0.42148 0.11805 0.32808 0.0
H510 H 0.4516 0.17005 0.3109 0.0
H511 H 0.408 0.07902 0.42702 0.0
H512 H 0.4302 0.0576 0.49369 0.0
C513 C 0.30281 0.42613 0.45364 0.0
C514 C 0.30891 0.42775 0.36313 0.0
C515 C 0.37594 0.43426 0.39682 0.0
C516 C 0.37222 0.4388 0.48859 0.0
N517 N 0.33527 0.44897 0.60278 0.0
N518 N 0.35304 0.43753 0.24791 0.0
C519 C 0.33628 0.43693 0.51687 0.0
C520 C 0.3457 0.43232 0.33425 0.0
N521 N 0.26503 0.4151 0.47902 0.0
N522 N 0.40798 0.43126 0.36886 0.0
H523 H 0.3311 0.4343 0.19916 0.0
H524 H 0.3816 0.4474 0.22551 0.0
H525 H 0.43169 0.43419 0.41179 0.0
H526 H 0.40941 0.42258 0.30353 0.0
H527 H 0.25771 0.40983 0.54367 0.0
H528 H 0.23998 0.40707 0.43337 0.0
H529 H 0.31123 0.45192 0.62452 0.0
H530 H 0.36034 0.46098 0.65033 0.0
C531 C 0.92165 0.33062 0.35387 0.0
C532 C 0.87941 0.31503 0.36147 0.0
C533 C 0.89649 0.36823 0.48464 0.0
C534 C 0.93865 0.38553 0.47362 0.0
N535 N 0.99136 0.37455 0.42165 0.0
N536 N 0.82822 0.30795 0.45616 0.0
C537 C 0.95106 0.36331 0.41675 0.0
C538 C 0.86755 0.32999 0.43516 0.0
N539 N 0.93399 0.3169 0.28355 0.0
N540 N 0.88344 0.38978 0.53549 0.0
H541 H 0.80673 0.27954 0.42116 0.0
H542 H 0.81844 0.3155 0.51321 0.0
H543 H 0.90328 0.41805 0.57216 0.0
H544 H 0.85272 0.38091 0.53644 0.0
H545 H 0.96425 0.33129 0.26878 0.0
H546 H 0.91394 0.29243 0.23709 0.0
H547 H 0.00223 0.35766 0.38749 0.0
H548 H 0.01309 0.39857 0.46724 0.0
C549 C 0.51498 0.82848 0.34151 0.0
C550 C 0.54411 0.83265 0.28264 0.0
C551 C 0.5859 0.90741 0.33068 0.0
C552 C 0.55486 0.90399 0.38348 0.0
N553 N 0.48957 0.86239 0.43908 0.0
N554 N 0.6058 0.87572 0.21518 0.0
C555 C 0.51932 0.86475 0.38906 0.0
C556 C 0.57951 0.87189 0.27667 0.0
N557 N 0.48389 0.7896 0.35355 0.0
N558 N 0.62127 0.94483 0.33073 0.0
H559 H 0.60315 0.85052 0.17591 0.0
H560 H 0.62889 0.90407 0.19833 0.0
H561 H 0.62583 0.97279 0.36096 0.0
H562 H 0.64733 0.94813 0.30446 0.0
H563 H 0.46361 0.78362 0.40123 0.0
H564 H 0.48013 0.76256 0.31978 0.0
H565 H 0.46076 0.83603 0.43794 0.0
H566 H 0.49307 0.88765 0.47987 0.0
C567 C 0.71785 0.54166 0.35708 0.0
C568 C 0.71029 0.52833 0.26547 0.0
C569 C 0.64509 0.52696 0.26123 0.0
C570 C 0.64927 0.53341 0.35464 0.0
N571 N 0.68809 0.54168 0.49365 0.0
N572 N 0.66152 0.49817 0.13552 0.0
C573 C 0.68552 0.53997 0.40351 0.0
C574 C 0.6726 0.51845 0.21866 0.0
N575 N 0.75572 0.55544 0.39972 0.0
N576 N 0.61507 0.52944 0.21283 0.0
H577 H 0.68 0.48975 0.10289 0.0
H578 H 0.63246 0.4864 0.10253 0.0
H579 H 0.59539 0.53736 0.24202 0.0
H580 H 0.61296 0.52843 0.14408 0.0
H581 H 0.76433 0.56922 0.46464 0.0
H582 H 0.77962 0.55638 0.36735 0.0
H583 H 0.71186 0.54185 0.53181 0.0
H584 H 0.6648 0.53929 0.53031 0.0
C585 C 0.10781 0.70688 0.27063 0.0
C586 C 0.14882 0.73226 0.30885 0.0
C587 C 0.13277 0.69149 0.4373 0.0
C588 C 0.09369 0.66307 0.39313 0.0
N589 N 0.04438 0.64099 0.26515 0.0
N590 N 0.20094 0.75022 0.4287 0.0
C591 C 0.08112 0.67029 0.30954 0.0
C592 C 0.16136 0.72514 0.39275 0.0
N593 N 0.09438 0.71748 0.19676 0.0
N594 N 0.14213 0.68645 0.52202 0.0
H595 H 0.22165 0.77691 0.40107 0.0
H596 H 0.21373 0.74412 0.48403 0.0
H597 H 0.12183 0.66171 0.55524 0.0
H598 H 0.16858 0.70795 0.5616 0.0
H599 H 0.06385 0.70273 0.17103 0.0
H600 H 0.11301 0.74352 0.16523 0.0
H601 H 0.03571 0.64156 0.19939 0.0
H602 H 0.02344 0.61408 0.29164 0.0
loop_
_geom_bond_atom_site_label_1
_geom_bond_atom_site_label_2
_geom_bond_distance
_geom_bond_site_symmetry_2
_ccdc_geom_bond_type
Mg0 O7 2.141 . S
Mg0 O8 2.048 . S
Mg0 O9 2.048 . S
Mg0 O12 2.141 . S
C1 O2 1.313 . S
C1 O8 1.195 . S
O2 C1 1.313 . S
C3 O4 1.245 . S
C3 O12 1.289 . S
O4 C3 1.245 . S
C5 O6 1.245 . S
C5 O7 1.289 . S
O6 C5 1.245 . S
O7 Mg0 2.141 . S
O7 C5 1.289 . S
O8 Mg0 2.048 . S
O8 C1 1.195 . S
O9 Mg0 2.048 . S
O9 C10 1.195 . S
C10 O9 1.195 . S
C10 O11 1.313 . S
O11 C10 1.313 . S
O12 Mg0 2.141 . S
O12 C3 1.289 . S
Mg13 O20 2.141 . S
Mg13 O21 2.048 . S
Mg13 O22 2.048 . S
Mg13 O25 2.141 . S
C14 O15 1.313 . S
C14 O21 1.195 1_556 S
O15 C14 1.313 . S
C16 O17 1.245 . S
C16 O25 1.289 . S
O17 C16 1.245 . S
C18 O19 1.245 . S
C18 O20 1.289 . S
O19 C18 1.245 . S
O20 Mg13 2.141 . S
O20 C18 1.289 . S
O21 Mg13 2.048 . S
O21 C14 1.195 1_554 S
O22 Mg13 2.048 . S
O22 C23 1.195 1_554 S
C23 O22 1.195 1_556 S
C23 O24 1.313 . S
O24 C23 1.313 . S
O25 Mg13 2.141 . S
O25 C16 1.289 . S
Mg26 O33 2.141 1_554 S
Mg26 O34 2.048 . S
Mg26 O35 2.048 . S
Mg26 O38 2.141 1_554 S
C27 O28 1.313 . S
C27 O34 1.195 . S
O28 C27 1.313 . S
C29 O30 1.245 . S
C29 O38 1.289 . S
O30 C29 1.245 . S
C31 O32 1.245 . S
C31 O33 1.289 . S
O32 C31 1.245 . S
O33 Mg26 2.141 1_556 S
O33 C31 1.289 . S
O34 Mg26 2.048 . S
O34 C27 1.195 . S
O35 Mg26 2.048 . S
O35 C36 1.195 . S
C36 O35 1.195 . S
C36 O37 1.313 . S
O37 C36 1.313 . S
O38 Mg26 2.141 1_556 S
O38 C29 1.289 . S
Mg39 O46 2.141 . S
Mg39 O47 2.048 1_554 S
Mg39 O48 2.048 1_554 S
Mg39 O51 2.141 . S
C40 O41 1.313 . S
C40 O47 1.195 . S
O41 C40 1.313 . S
C42 O43 1.245 . S
C42 O51 1.289 . S
O43 C42 1.245 . S
C44 O45 1.245 . S
C44 O46 1.289 . S
O45 C44 1.245 . S
O46 Mg39 2.141 . S
O46 C44 1.289 . S
O47 Mg39 2.048 1_556 S
O47 C40 1.195 . S
O48 Mg39 2.048 1_556 S
O48 C49 1.195 . S
C49 O48 1.195 . S
C49 O50 1.313 . S
O50 C49 1.313 . S
O51 Mg39 2.141 . S
O51 C42 1.289 . S
Mg52 O59 2.141 . S
Mg52 O60 2.048 . S
Mg52 O61 2.048 . S
Mg52 O64 2.141 . S
C53 O54 1.313 . S
C53 O60 1.195 1_556 S
O54 C53 1.313 . S
C55 O56 1.245 . S
C55 O64 1.289 . S
O56 C55 1.245 . S
C57 O58 1.245 . S
C57 O59 1.289 . S
O58 C57 1.245 . S
O59 Mg52 2.141 . S
O59 C57 1.289 . S
O60 Mg52 2.048 . S
O60 C53 1.195 1_554 S
O61 Mg52 2.048 . S
O61 C62 1.195 . S
C62 O61 1.195 . S
C62 O63 1.313 . S
O63 C62 1.313 . S
O64 Mg52 2.141 . S
O64 C55 1.289 . S
Mg65 O72 2.141 . S
Mg65 O73 2.048 . S
Mg65 O74 2.048 . S
Mg65 O77 2.141 . S
C66 O67 1.313 . S
C66 O73 1.195 . S
O67 C66 1.313 . S
C68 O69 1.245 . S
C68 O77 1.289 . S
O69 C68 1.245 . S
C70 O71 1.245 . S
C70 O72 1.289 . S
O71 C70 1.245 . S
O72 Mg65 2.141 . S
O72 C70 1.289 . S
O73 Mg65 2.048 . S
O73 C66 1.195 . S
O74 Mg65 2.048 . S
O74 C75 1.195 . S
C75 O74 1.195 . S
C75 O76 1.313 . S
O76 C75 1.313 . S
O77 Mg65 2.141 . S
O77 C68 1.289 . S
C78 O105 1.312 . S
C78 O106 1.208 . S
C79 O100 1.331 . S
C79 O103 1.244 . S
C80 O102 1.264 . S
C80 O104 1.273 . S
Mg81 O83 1.936 1_455 S
Mg81 O90 2.081 1_455 S
Mg81 O92 2.023 . S
Mg81 O96 2.031 1_455 S
Mg81 O105 2.291 . S
Mg82 O83 1.963 . S
Mg82 O93 1.942 . S
Mg82 O94 1.955 1_655 S
Mg82 O101 1.986 . S
O83 Mg81 1.936 1_655 S
O83 Mg82 1.963 . S
O83 Mg84 1.915 1_655 S
Mg84 O83 1.915 1_455 S
Mg84 O85 1.915 . S
Mg84 O89 2.013 . S
Mg84 O95 2.114 1_455 S
Mg84 O99 2.013 1_455 S
Mg84 O105 2.114 . S
O85 Mg84 1.915 . S
O85 Mg86 1.936 . S
O85 Mg87 1.963 . S
Mg86 O85 1.936 . S
Mg86 O95 2.291 1_455 S
Mg86 O100 2.081 . S
Mg86 O102 2.023 1_455 S
Mg86 O106 2.031 . S
Mg87 O85 1.963 . S
Mg87 O91 1.986 . S
Mg87 O103 1.942 . S
Mg87 O104 1.955 1_455 S
C88 O99 1.191 . S
C88 O101 1.307 . S
O89 Mg84 2.013 . S
O89 C108 1.191 . S
O90 Mg81 2.081 1_655 S
O90 C98 1.331 . S
O91 Mg87 1.986 . S
O91 C108 1.307 . S
O92 Mg81 2.023 . S
O92 C107 1.264 . S
O93 Mg82 1.942 . S
O93 C98 1.244 . S
O94 Mg82 1.955 1_455 S
O94 C107 1.273 . S
O95 Mg84 2.114 1_655 S
O95 Mg86 2.291 1_655 S
O95 C97 1.312 . S
O96 Mg81 2.031 1_655 S
O96 C97 1.208 . S
C97 O95 1.312 . S
C97 O96 1.208 . S
C98 O90 1.331 . S
C98 O93 1.244 . S
O99 Mg84 2.013 1_655 S
O99 C88 1.191 . S
O100 C79 1.331 . S
O100 Mg86 2.081 . S
O101 Mg82 1.986 . S
O101 C88 1.307 . S
O102 C80 1.264 . S
O102 Mg86 2.023 1_655 S
O103 C79 1.244 . S
O103 Mg87 1.942 . S
O104 C80 1.273 . S
O104 Mg87 1.955 1_655 S
O105 C78 1.312 . S
O105 Mg81 2.291 . S
O105 Mg84 2.114 . S
O106 C78 1.208 . S
O106 Mg86 2.031 . S
C107 O92 1.264 . S
C107 O94 1.273 . S
C108 O89 1.191 . S
C108 O91 1.307 . S
C109 O136 1.312 . S
C109 O137 1.208 . S
C110 O131 1.331 . S
C110 O134 1.244 . S
C111 O133 1.264 . S
C111 O135 1.273 . S
Mg112 O114 1.936 1_545 S
Mg112 O121 2.081 1_545 S
Mg112 O123 2.023 . S
Mg112 O127 2.031 1_545 S
Mg112 O136 2.291 . S
Mg113 O114 1.963 . S
Mg113 O124 1.942 . S
Mg113 O125 1.955 1_565 S
Mg113 O132 1.986 . S
O114 Mg112 1.936 1_565 S
O114 Mg113 1.963 . S
O114 Mg115 1.915 1_565 S
Mg115 O114 1.915 1_545 S
Mg115 O116 1.915 . S
Mg115 O120 2.013 . S
Mg115 O126 2.114 1_545 S
Mg115 O130 2.013 1_545 S
Mg115 O136 2.114 . S
O116 Mg115 1.915 . S
O116 Mg117 1.936 . S
O116 Mg118 1.963 . S
Mg117 O116 1.936 . S
Mg117 O126 2.291 1_545 S
Mg117 O131 2.081 . S
Mg117 O133 2.023 1_545 S
Mg117 O137 2.031 . S
Mg118 O116 1.963 . S
Mg118 O122 1.986 . S
Mg118 O134 1.942 . S
Mg118 O135 1.955 1_545 S
C119 O130 1.191 . S
C119 O132 1.307 . S
O120 Mg115 2.013 . S
O120 C139 1.191 . S
O121 Mg112 2.081 1_565 S
O121 C129 1.331 . S
O122 Mg118 1.986 . S
O122 C139 1.307 . S
O123 Mg112 2.023 . S
O123 C138 1.264 . S
O124 Mg113 1.942 . S
O124 C129 1.244 . S
O125 Mg113 1.955 1_545 S
O125 C138 1.273 . S
O126 Mg115 2.114 1_565 S
O126 Mg117 2.291 1_565 S
O126 C128 1.312 . S
O127 Mg112 2.031 1_565 S
O127 C128 1.208 . S
C128 O126 1.312 . S
C128 O127 1.208 . S
C129 O121 1.331 . S
C129 O124 1.244 . S
O130 Mg115 2.013 1_565 S
O130 C119 1.191 . S
O131 C110 1.331 . S
O131 Mg117 2.081 . S
O132 Mg113 1.986 . S
O132 C119 1.307 . S
O133 C111 1.264 . S
O133 Mg117 2.023 1_565 S
O134 C110 1.244 . S
O134 Mg118 1.942 . S
O135 C111 1.273 . S
O135 Mg118 1.955 1_565 S
O136 C109 1.312 . S
O136 Mg112 2.291 . S
O136 Mg115 2.114 . S
O137 C109 1.208 . S
O137 Mg117 2.031 . S
C138 O123 1.264 . S
C138 O125 1.273 . S
C139 O120 1.191 . S
C139 O122 1.307 . S
C140 O167 1.312 . S
C140 O168 1.208 . S
C141 O162 1.331 . S
C141 O165 1.244 . S
C142 O164 1.264 . S
C142 O166 1.273 . S
Mg143 O145 1.936 . S
Mg143 O152 2.081 . S
Mg143 O154 2.023 . S
Mg143 O158 2.031 . S
Mg143 O167 2.291 . S
Mg144 O145 1.963 . S
Mg144 O155 1.942 . S
Mg144 O156 1.955 . S
Mg144 O163 1.986 . S
O145 Mg143 1.936 . S
O145 Mg144 1.963 . S
O145 Mg146 1.915 . S
Mg146 O145 1.915 . S
Mg146 O147 1.915 . S
Mg146 O151 2.013 . S
Mg146 O157 2.114 . S
Mg146 O161 2.013 . S
Mg146 O167 2.114 . S
O147 Mg146 1.915 . S
O147 Mg148 1.936 . S
O147 Mg149 1.963 . S
Mg148 O147 1.936 . S
Mg148 O157 2.291 . S
Mg148 O162 2.081 . S
Mg148 O164 2.023 . S
Mg148 O168 2.031 . S
Mg149 O147 1.963 . S
Mg149 O153 1.986 . S
Mg149 O165 1.942 . S
Mg149 O166 1.955 . S
C150 O161 1.191 . S
C150 O163 1.307 . S
O151 Mg146 2.013 . S
O151 C170 1.191 . S
O152 Mg143 2.081 . S
O152 C160 1.331 . S
O153 Mg149 1.986 . S
O153 C170 1.307 . S
O154 Mg143 2.023 . S
O154 C169 1.264 . S
O155 Mg144 1.942 . S
O155 C160 1.244 . S
O156 Mg144 1.955 . S
O156 C169 1.273 . S
O157 Mg146 2.114 . S
O157 Mg148 2.291 . S
O157 C159 1.312 . S
O158 Mg143 2.031 . S
O158 C159 1.208 . S
C159 O157 1.312 . S
C159 O158 1.208 . S
C160 O152 1.331 . S
C160 O155 1.244 . S
O161 Mg146 2.013 . S
O161 C150 1.191 . S
O162 C141 1.331 . S
O162 Mg148 2.081 . S
O163 Mg144 1.986 . S
O163 C150 1.307 . S
O164 C142 1.264 . S
O164 Mg148 2.023 . S
O165 C141 1.244 . S
O165 Mg149 1.942 . S
O166 C142 1.273 . S
O166 Mg149 1.955 . S
O167 C140 1.312 . S
O167 Mg143 2.291 . S
O167 Mg146 2.114 . S
O168 C140 1.208 . S
O168 Mg148 2.031 . S
C169 O154 1.264 . S
C169 O156 1.273 . S
C170 O151 1.191 . S
C170 O153 1.307 . S
C171 C172 1.363 . S
C171 C177 1.379 . S
C171 N179 1.356 . S
C172 C171 1.363 . S
C172 C178 1.363 . S
C173 C174 1.363 . S
C173 C178 1.379 . S
C173 N180 1.356 . S
C174 C173 1.363 . S
C174 C177 1.363 . S
N175 C177 1.356 . S
N175 H187 0.984 . S
N175 H188 0.985 . S
N176 C178 1.356 . S
N176 H181 0.984 . S
N176 H182 0.985 . S
C177 C171 1.379 . S
C177 C174 1.363 . S
C177 N175 1.356 . S
C178 C172 1.363 . S
C178 C173 1.379 . S
C178 N176 1.356 . S
N179 C171 1.356 . S
N179 H185 0.984 . S
N179 H186 0.984 . S
N180 C173 1.356 . S
N180 H183 0.984 . S
N180 H184 0.985 . S
H181 N176 0.984 . S
H182 N176 0.985 . S
H183 N180 0.984 . S
H184 N180 0.985 . S
H185 N179 0.984 . S
H186 N179 0.984 . S
H187 N175 0.984 . S
H188 N175 0.985 . S
C189 C190 1.363 . S
C189 C195 1.379 . S
C189 N197 1.356 . S
C190 C189 1.363 . S
C190 C196 1.363 . S
C191 C192 1.363 . S
C191 C196 1.379 . S
C191 N198 1.356 . S
C192 C191 1.363 . S
C192 C195 1.363 . S
N193 C195 1.356 . S
N193 H205 0.984 . S
N193 H206 0.985 . S
N194 C196 1.356 . S
N194 H199 0.984 . S
N194 H200 0.985 . S
C195 C189 1.379 . S
C195 C192 1.363 . S
C195 N193 1.356 . S
C196 C190 1.363 . S
C196 C191 1.379 . S
C196 N194 1.356 . S
N197 C189 1.356 . S
N197 H203 0.984 . S
N197 H204 0.984 . S
N198 C191 1.356 . S
N198 H201 0.984 . S
N198 H202 0.985 . S
H199 N194 0.984 . S
H200 N194 0.985 . S
H201 N198 0.984 . S
H202 N198 0.985 . S
H203 N197 0.984 . S
H204 N197 0.984 . S
H205 N193 0.984 . S
H206 N193 0.985 . S
C207 C208 1.363 . S
C207 C213 1.379 . S
C207 N215 1.356 . S
C208 C207 1.363 . S
C208 C214 1.363 . S
C209 C210 1.363 . S
C209 C214 1.379 . S
C209 N216 1.356 . S
C210 C209 1.363 . S
C210 C213 1.363 . S
N211 C213 1.356 . S
N211 H223 0.984 . S
N211 H224 0.985 . S
N212 C214 1.356 . S
N212 H217 0.984 . S
N212 H218 0.985 . S
C213 C207 1.379 . S
C213 C210 1.363 . S
C213 N211 1.356 . S
C214 C208 1.363 . S
C214 C209 1.379 . S
C214 N212 1.356 . S
N215 C207 1.356 . S
N215 H221 0.984 . S
N215 H222 0.984 . S
N216 C209 1.356 . S
N216 H219 0.984 . S
N216 H220 0.985 . S
H217 N212 0.984 . S
H218 N212 0.985 . S
H219 N216 0.984 . S
H220 N216 0.985 . S
H221 N215 0.984 . S
H222 N215 0.984 . S
H223 N211 0.984 . S
H224 N211 0.985 . S
C225 C226 1.363 . S
C225 C231 1.379 . S
C225 N233 1.356 . S
C226 C225 1.363 . S
C226 C232 1.363 . S
C227 C228 1.363 . S
C227 C232 1.379 . S
C227 N234 1.356 . S
C228 C227 1.363 . S
C228 C231 1.363 . S
N229 C231 1.356 . S
N229 H241 0.984 . S
N229 H242 0.985 . S
N230 C232 1.356 . S
N230 H235 0.984 . S
N230 H236 0.985 . S
C231 C225 1.379 . S
C231 C228 1.363 . S
C231 N229 1.356 . S
C232 C226 1.363 . S
C232 C227 1.379 . S
C232 N230 1.356 . S
N233 C225 1.356 . S
N233 H239 0.984 . S
N233 H240 0.984 . S
N234 C227 1.356 . S
N234 H237 0.984 . S
N234 H238 0.985 . S
H235 N230 0.984 . S
H236 N230 0.985 . S
H237 N234 0.984 . S
H238 N234 0.985 . S
H239 N233 0.984 . S
H240 N233 0.984 . S
H241 N229 0.984 . S
H242 N229 0.985 . S
C243 C244 1.363 . S
C243 C249 1.379 . S
C243 N251 1.356 . S
C244 C243 1.363 . S
C244 C250 1.363 . S
C245 C246 1.363 . S
C245 C250 1.379 . S
C245 N252 1.356 . S
C246 C245 1.363 . S
C246 C249 1.363 . S
N247 C249 1.356 . S
N247 H259 0.984 . S
N247 H260 0.985 . S
N248 C250 1.356 . S
N248 H253 0.984 . S
N248 H254 0.985 . S
C249 C243 1.379 . S
C249 C246 1.363 . S
C249 N247 1.356 . S
C250 C244 1.363 . S
C250 C245 1.379 . S
C250 N248 1.356 . S
N251 C243 1.356 . S
N251 H257 0.984 . S
N251 H258 0.984 . S
N252 C245 1.356 . S
N252 H255 0.984 . S
N252 H256 0.985 . S
H253 N248 0.984 . S
H254 N248 0.985 . S
H255 N252 0.984 . S
H256 N252 0.985 . S
H257 N251 0.984 . S
H258 N251 0.984 . S
H259 N247 0.984 . S
H260 N247 0.985 . S
C261 C262 1.363 . S
C261 C267 1.379 . S
C261 N269 1.356 . S
C262 C261 1.363 . S
C262 C268 1.363 . S
C263 C264 1.363 . S
C263 C268 1.379 . S
C263 N270 1.356 . S
C264 C263 1.363 . S
C264 C267 1.363 . S
N265 C267 1.356 . S
N265 H277 0.984 . S
N265 H278 0.985 . S
N266 C268 1.356 . S
N266 H271 0.984 . S
N266 H272 0.985 . S
C267 C261 1.379 . S
C267 C264 1.363 . S
C267 N265 1.356 . S
C268 C262 1.363 . S
C268 C263 1.379 . S
C268 N266 1.356 . S
N269 C261 1.356 . S
N269 H275 0.984 . S
N269 H276 0.984 . S
N270 C263 1.356 . S
N270 H273 0.984 . S
N270 H274 0.985 . S
H271 N266 0.984 . S
H272 N266 0.985 . S
H273 N270 0.984 . S
H274 N270 0.985 . S
H275 N269 0.984 . S
H276 N269 0.984 . S
H277 N265 0.984 . S
H278 N265 0.985 . S
C279 C280 1.363 . S
C279 C285 1.379 . S
C279 N287 1.356 . S
C280 C279 1.363 . S
C280 C286 1.363 . S
C281 C282 1.363 . S
C281 C286 1.379 . S
C281 N288 1.356 . S
C282 C281 1.363 . S
C282 C285 1.363 . S
N283 C285 1.356 . S
N283 H295 0.984 . S
N283 H296 0.985 . S
N284 C286 1.356 . S
N284 H289 0.984 . S
N284 H290 0.985 . S
C285 C279 1.379 . S
C285 C282 1.363 . S
C285 N283 1.356 . S
C286 C280 1.363 . S
C286 C281 1.379 . S
C286 N284 1.356 . S
N287 C279 1.356 . S
N287 H293 0.984 . S
N287 H294 0.984 . S
N288 C281 1.356 . S
N288 H291 0.984 . S
N288 H292 0.985 . S
H289 N284 0.984 . S
H290 N284 0.985 . S
H291 N288 0.984 . S
H292 N288 0.985 . S
H293 N287 0.984 . S
H294 N287 0.984 . S
H295 N283 0.984 . S
H296 N283 0.985 . S
C297 C298 1.363 . S
C297 C303 1.379 . S
C297 N305 1.356 . S
C298 C297 1.363 . S
C298 C304 1.363 . S
C299 C300 1.363 . S
C299 C304 1.379 . S
C299 N306 1.356 . S
C300 C299 1.363 . S
C300 C303 1.363 . S
N301 C303 1.356 . S
N301 H313 0.984 . S
N301 H314 0.985 . S
N302 C304 1.356 . S
N302 H307 0.984 . S
N302 H308 0.985 . S
C303 C297 1.379 . S
C303 C300 1.363 . S
C303 N301 1.356 . S
C304 C298 1.363 . S
C304 C299 1.379 . S
C304 N302 1.356 . S
N305 C297 1.356 . S
N305 H311 0.984 . S
N305 H312 0.984 . S
N306 C299 1.356 . S
N306 H309 0.984 . S
N306 H310 0.985 . S
H307 N302 0.984 . S
H308 N302 0.985 . S
H309 N306 0.984 . S
H310 N306 0.985 . S
H311 N305 0.984 . S
H312 N305 0.984 . S
H313 N301 0.984 . S
H314 N301 0.985 . S
C315 C316 1.363 . S
C315 C321 1.379 . S
C315 N323 1.356 1_556 S
C316 C315 1.363 . S
C316 C322 1.363 . S
C317 C318 1.363 . S
C317 C322 1.379 . S
C317 N324 1.356 . S
C318 C317 1.363 . S
C318 C321 1.363 . S
N319 C321 1.356 . S
N319 H331 0.984 . S
N319 H332 0.985 . S
N320 C322 1.356 . S
N320 H325 0.984 . S
N320 H326 0.985 . S
C321 C315 1.379 . S
C321 C318 1.363 . S
C321 N319 1.356 . S
C322 C316 1.363 . S
C322 C317 1.379 . S
C322 N320 1.356 . S
N323 C315 1.356 1_554 S
N323 H329 0.984 . S
N323 H330 0.984 . S
N324 C317 1.356 . S
N324 H327 0.984 . S
N324 H328 0.985 . S
H325 N320 0.984 . S
H326 N320 0.985 . S
H327 N324 0.984 . S
H328 N324 0.985 . S
H329 N323 0.984 . S
H330 N323 0.984 . S
H331 N319 0.984 . S
H332 N319 0.985 . S
C333 C334 1.363 . S
C333 C339 1.379 1_554 S
C333 N341 1.356 . S
C334 C333 1.363 . S
C334 C340 1.363 1_554 S
C335 C336 1.363 . S
C335 C340 1.379 . S
C335 N342 1.356 . S
C336 C335 1.363 . S
C336 C339 1.363 . S
N337 C339 1.356 . S
N337 H349 0.984 1_556 S
N337 H350 0.985 . S
N338 C340 1.356 . S
N338 H343 0.984 . S
N338 H344 0.985 . S
C339 C333 1.379 1_556 S
C339 C336 1.363 . S
C339 N337 1.356 . S
C340 C334 1.363 1_556 S
C340 C335 1.379 . S
C340 N338 1.356 . S
N341 C333 1.356 . S
N341 H347 0.984 . S
N341 H348 0.984 . S
N342 C335 1.356 . S
N342 H345 0.984 . S
N342 H346 0.985 . S
H343 N338 0.984 . S
H344 N338 0.985 . S
H345 N342 0.984 . S
H346 N342 0.985 . S
H347 N341 0.984 . S
H348 N341 0.984 . S
H349 N337 0.984 1_554 S
H350 N337 0.985 . S
C351 C352 1.363 1_556 S
C351 C357 1.379 . S
C351 N359 1.356 . S
C352 C351 1.363 1_554 S
C352 C358 1.363 . S
C353 C354 1.363 . S
C353 C358 1.379 1_556 S
C353 N360 1.356 . S
C354 C353 1.363 . S
C354 C357 1.363 . S
N355 C357 1.356 . S
N355 H367 0.984 . S
N355 H368 0.985 . S
N356 C358 1.356 . S
N356 H361 0.984 . S
N356 H362 0.985 . S
C357 C351 1.379 . S
C357 C354 1.363 . S
C357 N355 1.356 . S
C358 C352 1.363 . S
C358 C353 1.379 1_554 S
C358 N356 1.356 . S
N359 C351 1.356 . S
N359 H365 0.984 . S
N359 H366 0.984 1_556 S
N360 C353 1.356 . S
N360 H363 0.984 . S
N360 H364 0.985 . S
H361 N356 0.984 . S
H362 N356 0.985 . S
H363 N360 0.984 . S
H364 N360 0.985 . S
H365 N359 0.984 . S
H366 N359 0.984 1_554 S
H367 N355 0.984 . S
H368 N355 0.985 . S
C369 C370 1.363 . S
C369 C375 1.379 . S
C369 N377 1.356 1_556 S
C370 C369 1.363 . S
C370 C376 1.363 . S
C371 C372 1.363 . S
C371 C376 1.379 . S
C371 N378 1.356 . S
C372 C371 1.363 . S
C372 C375 1.363 . S
N373 C375 1.356 . S
N373 H385 0.984 1_556 S
N373 H386 0.985 . S
N374 C376 1.356 . S
N374 H379 0.984 . S
N374 H380 0.985 . S
C375 C369 1.379 . S
C375 C372 1.363 . S
C375 N373 1.356 . S
C376 C370 1.363 . S
C376 C371 1.379 . S
C376 N374 1.356 . S
N377 C369 1.356 1_554 S
N377 H383 0.984 . S
N377 H384 0.984 . S
N378 C371 1.356 . S
N378 H381 0.984 . S
N378 H382 0.985 . S
H379 N374 0.984 . S
H380 N374 0.985 . S
H381 N378 0.984 . S
H382 N378 0.985 . S
H383 N377 0.984 . S
H384 N377 0.984 . S
H385 N373 0.984 1_554 S
H386 N373 0.985 . S
C387 C388 1.363 . S
C387 C393 1.379 . S
C387 N395 1.356 . S
C388 C387 1.363 . S
C388 C394 1.363 . S
C389 C390 1.363 . S
C389 C394 1.379 . S
C389 N396 1.356 . S
C390 C389 1.363 . S
C390 C393 1.363 . S
N391 C393 1.356 . S
N391 H403 0.984 . S
N391 H404 0.985 . S
N392 C394 1.356 . S
N392 H397 0.984 . S
N392 H398 0.985 . S
C393 C387 1.379 . S
C393 C390 1.363 . S
C393 N391 1.356 . S
C394 C388 1.363 . S
C394 C389 1.379 . S
C394 N392 1.356 . S
N395 C387 1.356 . S
N395 H401 0.984 . S
N395 H402 0.984 . S
N396 C389 1.356 . S
N396 H399 0.984 . S
N396 H400 0.985 . S
H397 N392 0.984 . S
H398 N392 0.985 . S
H399 N396 0.984 . S
H400 N396 0.985 . S
H401 N395 0.984 . S
H402 N395 0.984 . S
H403 N391 0.984 . S
H404 N391 0.985 . S
C405 C406 1.363 . S
C405 C411 1.379 . S
C405 N413 1.356 1_556 S
C406 C405 1.363 . S
C406 C412 1.363 . S
C407 C408 1.363 . S
C407 C412 1.379 . S
C407 N414 1.356 . S
C408 C407 1.363 . S
C408 C411 1.363 . S
N409 C411 1.356 . S
N409 H421 0.984 . S
N409 H422 0.985 . S
N410 C412 1.356 . S
N410 H415 0.984 . S
N410 H416 0.985 . S
C411 C405 1.379 . S
C411 C408 1.363 . S
C411 N409 1.356 . S
C412 C406 1.363 . S
C412 C407 1.379 . S
C412 N410 1.356 . S
N413 C405 1.356 1_554 S
N413 H419 0.984 . S
N413 H420 0.984 . S
N414 C407 1.356 . S
N414 H417 0.984 . S
N414 H418 0.985 . S
H415 N410 0.984 . S
H416 N410 0.985 . S
H417 N414 0.984 . S
H418 N414 0.985 . S
H419 N413 0.984 . S
H420 N413 0.984 . S
H421 N409 0.984 . S
H422 N409 0.985 . S
C423 C424 1.363 . S
C423 C429 1.379 . S
C423 N431 1.356 1_556 S
C424 C423 1.363 . S
C424 C430 1.363 . S
C425 C426 1.363 . S
C425 C430 1.379 . S
C425 N432 1.356 . S
C426 C425 1.363 . S
C426 C429 1.363 . S
N427 C429 1.356 . S
N427 H439 0.984 . S
N427 H440 0.985 . S
N428 C430 1.356 . S
N428 H433 0.984 1_556 S
N428 H434 0.985 . S
C429 C423 1.379 . S
C429 C426 1.363 . S
C429 N427 1.356 . S
C430 C424 1.363 . S
C430 C425 1.379 . S
C430 N428 1.356 . S
N431 C423 1.356 1_554 S
N431 H437 0.984 . S
N431 H438 0.984 . S
N432 C425 1.356 . S
N432 H435 0.984 . S
N432 H436 0.985 . S
H433 N428 0.984 1_554 S
H434 N428 0.985 . S
H435 N432 0.984 . S
H436 N432 0.985 . S
H437 N431 0.984 . S
H438 N431 0.984 . S
H439 N427 0.984 . S
H440 N427 0.985 . S
C441 C442 1.363 . S
C441 C447 1.379 1_554 S
C441 N449 1.356 . S
C442 C441 1.363 . S
C442 C448 1.363 1_554 S
C443 C444 1.363 . S
C443 C448 1.379 . S
C443 N450 1.356 . S
C444 C443 1.363 . S
C444 C447 1.363 . S
N445 C447 1.356 . S
N445 H457 0.984 1_556 S
N445 H458 0.985 . S
N446 C448 1.356 . S
N446 H451 0.984 1_556 S
N446 H452 0.985 . S
C447 C441 1.379 1_556 S
C447 C444 1.363 . S
C447 N445 1.356 . S
C448 C442 1.363 1_556 S
C448 C443 1.379 . S
C448 N446 1.356 . S
N449 C441 1.356 . S
N449 H455 0.984 . S
N449 H456 0.984 . S
N450 C443 1.356 . S
N450 H453 0.984 . S
N450 H454 0.985 . S
H451 N446 0.984 1_554 S
H452 N446 0.985 . S
H453 N450 0.984 . S
H454 N450 0.985 . S
H455 N449 0.984 . S
H456 N449 0.984 . S
H457 N445 0.984 1_554 S
H458 N445 0.985 . S
C459 C460 1.363 . S
C459 C465 1.379 . S
C459 N467 1.356 1_556 S
C460 C459 1.363 . S
C460 C466 1.363 . S
C461 C462 1.363 . S
C461 C466 1.379 . S
C461 N468 1.356 . S
C462 C461 1.363 . S
C462 C465 1.363 . S
N463 C465 1.356 . S
N463 H475 0.984 . S
N463 H476 0.985 . S
N464 C466 1.356 . S
N464 H469 0.984 . S
N464 H470 0.985 . S
C465 C459 1.379 . S
C465 C462 1.363 . S
C465 N463 1.356 . S
C466 C460 1.363 . S
C466 C461 1.379 . S
C466 N464 1.356 . S
N467 C459 1.356 1_554 S
N467 H473 0.984 . S
N467 H474 0.984 . S
N468 C461 1.356 . S
N468 H471 0.984 . S
N468 H472 0.985 . S
H469 N464 0.984 . S
H470 N464 0.985 . S
H471 N468 0.984 . S
H472 N468 0.985 . S
H473 N467 0.984 . S
H474 N467 0.984 . S
H475 N463 0.984 . S
H476 N463 0.985 . S
C477 C478 1.363 . S
C477 C483 1.379 . S
C477 N485 1.356 . S
C478 C477 1.363 . S
C478 C484 1.363 . S
C479 C480 1.363 . S
C479 C484 1.379 . S
C479 N486 1.356 . S
C480 C479 1.363 . S
C480 C483 1.363 . S
N481 C483 1.356 . S
N481 H493 0.984 . S
N481 H494 0.985 . S
N482 C484 1.356 . S
N482 H487 0.984 . S
N482 H488 0.985 . S
C483 C477 1.379 . S
C483 C480 1.363 . S
C483 N481 1.356 . S
C484 C478 1.363 . S
C484 C479 1.379 . S
C484 N482 1.356 . S
N485 C477 1.356 . S
N485 H491 0.984 1_556 S
N485 H492 0.984 . S
N486 C479 1.356 . S
N486 H489 0.984 . S
N486 H490 0.985 . S
H487 N482 0.984 . S
H488 N482 0.985 . S
H489 N486 0.984 . S
H490 N486 0.985 . S
H491 N485 0.984 1_554 S
H492 N485 0.984 . S
H493 N481 0.984 . S
H494 N481 0.985 . S
C495 C496 1.363 . S
C495 C501 1.379 . S
C495 N503 1.356 . S
C496 C495 1.363 . S
C496 C502 1.363 . S
C497 C498 1.363 . S
C497 C502 1.379 . S
C497 N504 1.356 . S
C498 C497 1.363 . S
C498 C501 1.363 . S
N499 C501 1.356 . S
N499 H511 0.984 . S
N499 H512 0.985 . S
N500 C502 1.356 . S
N500 H505 0.984 . S
N500 H506 0.985 . S
C501 C495 1.379 . S
C501 C498 1.363 . S
C501 N499 1.356 . S
C502 C496 1.363 . S
C502 C497 1.379 . S
C502 N500 1.356 . S
N503 C495 1.356 . S
N503 H509 0.984 . S
N503 H510 0.984 . S
N504 C497 1.356 . S
N504 H507 0.984 . S
N504 H508 0.985 . S
H505 N500 0.984 . S
H506 N500 0.985 . S
H507 N504 0.984 . S
H508 N504 0.985 . S
H509 N503 0.984 . S
H510 N503 0.984 . S
H511 N499 0.984 . S
H512 N499 0.985 . S
C513 C514 1.363 . S
C513 C519 1.379 . S
C513 N521 1.356 . S
C514 C513 1.363 . S
C514 C520 1.363 . S
C515 C516 1.363 . S
C515 C520 1.379 . S
C515 N522 1.356 . S
C516 C515 1.363 . S
C516 C519 1.363 . S
N517 C519 1.356 . S
N517 H529 0.984 . S
N517 H530 0.985 . S
N518 C520 1.356 . S
N518 H523 0.984 . S
N518 H524 0.985 . S
C519 C513 1.379 . S
C519 C516 1.363 . S
C519 N517 1.356 . S
C520 C514 1.363 . S
C520 C515 1.379 . S
C520 N518 1.356 . S
N521 C513 1.356 . S
N521 H527 0.984 . S
N521 H528 0.984 . S
N522 C515 1.356 . S
N522 H525 0.984 . S
N522 H526 0.985 . S
H523 N518 0.984 . S
H524 N518 0.985 . S
H525 N522 0.984 . S
H526 N522 0.985 . S
H527 N521 0.984 . S
H528 N521 0.984 . S
H529 N517 0.984 . S
H530 N517 0.985 . S
C531 C532 1.363 . S
C531 C537 1.379 . S
C531 N539 1.356 . S
C532 C531 1.363 . S
C532 C538 1.363 . S
C533 C534 1.363 . S
C533 C538 1.379 . S
C533 N540 1.356 . S
C534 C533 1.363 . S
C534 C537 1.363 . S
N535 C537 1.356 . S
N535 H547 0.984 . S
N535 H548 0.985 . S
N536 C538 1.356 . S
N536 H541 0.984 . S
N536 H542 0.985 . S
C537 C531 1.379 . S
C537 C534 1.363 . S
C537 N535 1.356 . S
C538 C532 1.363 . S
C538 C533 1.379 . S
C538 N536 1.356 . S
N539 C531 1.356 . S
N539 H545 0.984 . S
N539 H546 0.984 . S
N540 C533 1.356 . S
N540 H543 0.984 . S
N540 H544 0.985 . S
H541 N536 0.984 . S
H542 N536 0.985 . S
H543 N540 0.984 . S
H544 N540 0.985 . S
H545 N539 0.984 . S
H546 N539 0.984 . S
H547 N535 0.984 . S
H548 N535 0.985 . S
C549 C550 1.363 . S
C549 C555 1.379 . S
C549 N557 1.356 . S
C550 C549 1.363 . S
C550 C556 1.363 . S
C551 C552 1.363 . S
C551 C556 1.379 . S
C551 N558 1.356 . S
C552 C551 1.363 . S
C552 C555 1.363 . S
N553 C555 1.356 . S
N553 H565 0.984 . S
N553 H566 0.985 . S
N554 C556 1.356 . S
N554 H559 0.984 . S
N554 H560 0.985 . S
C555 C549 1.379 . S
C555 C552 1.363 . S
C555 N553 1.356 . S
C556 C550 1.363 . S
C556 C551 1.379 . S
C556 N554 1.356 . S
N557 C549 1.356 . S
N557 H563 0.984 . S
N557 H564 0.984 . S
N558 C551 1.356 . S
N558 H561 0.984 . S
N558 H562 0.985 . S
H559 N554 0.984 . S
H560 N554 0.985 . S
H561 N558 0.984 . S
H562 N558 0.985 . S
H563 N557 0.984 . S
H564 N557 0.984 . S
H565 N553 0.984 . S
H566 N553 0.985 . S
C567 C568 1.363 . S
C567 C573 1.379 . S
C567 N575 1.356 . S
C568 C567 1.363 . S
C568 C574 1.363 . S
C569 C570 1.363 . S
C569 C574 1.379 . S
C569 N576 1.356 . S
C570 C569 1.363 . S
C570 C573 1.363 . S
N571 C573 1.356 . S
N571 H583 0.984 . S
N571 H584 0.985 . S
N572 C574 1.356 . S
N572 H577 0.984 . S
N572 H578 0.985 . S
C573 C567 1.379 . S
C573 C570 1.363 . S
C573 N571 1.356 . S
C574 C568 1.363 . S
C574 C569 1.379 . S
C574 N572 1.356 . S
N575 C567 1.356 . S
N575 H581 0.984 . S
N575 H582 0.984 . S
N576 C569 1.356 . S
N576 H579 0.984 . S
N576 H580 0.985 . S
H577 N572 0.984 . S
H578 N572 0.985 . S
H579 N576 0.984 . S
H580 N576 0.985 . S
H581 N575 0.984 . S
H582 N575 0.984 . S
H583 N571 0.984 . S
H584 N571 0.985 . S
C585 C586 1.363 . S
C585 C591 1.379 . S
C585 N593 1.356 . S
C586 C585 1.363 . S
C586 C592 1.363 . S
C587 C588 1.363 . S
C587 C592 1.379 . S
C587 N594 1.356 . S
C588 C587 1.363 . S
C588 C591 1.363 . S
N589 C591 1.356 . S
N589 H601 0.984 . S
N589 H602 0.985 . S
N590 C592 1.356 . S
N590 H595 0.984 . S
N590 H596 0.985 . S
C591 C585 1.379 . S
C591 C588 1.363 . S
C591 N589 1.356 . S
C592 C586 1.363 . S
C592 C587 1.379 . S
C592 N590 1.356 . S
N593 C585 1.356 . S
N593 H599 0.984 . S
N593 H600 0.984 . S
N594 C587 1.356 . S
N594 H597 0.984 . S
N594 H598 0.985 . S
H595 N590 0.984 . S
H596 N590 0.985 . S
H597 N594 0.984 . S
H598 N594 0.985 . S
H599 N593 0.984 . S
H600 N593 0.984 . S
H601 N589 0.984 . S
H602 N589 0.985 . S
C172 C5 1.718 . S
C174 C78 1.603 . S
C190 C16 1.373 . S
C192 C110 1.385 . S
C210 C169 1.726 . S
C208 C36 1.791 . S
C228 C98 1.300 . S
C226 C42 1.303 . S
C244 C55 1.581 . S
C246 C128 1.538 . S
C264 C150 1.305 . S
C262 C66 1.282 . S
C282 C119 1.604 . S
C280 C31 1.657 . S
C298 C40 1.345 . S
C300 C159 1.319 . S
C318 C108 1.617 . S
C316 C53 1.612 . S
C334 C68 1.362 . S
C336 C138 1.352 . S
C352 C10 1.721 . S
C354 C141 1.662 . S
C372 C80 1.512 . S
C370 C14 1.508 . S
C390 C88 1.649 . S
C388 C49 1.662 . S
C408 C129 1.434 . S
C406 C62 1.444 1_556 S
C426 C142 1.690 . S
C424 C70 1.725 1_556 S
C444 C79 1.376 . S
C442 C1 1.420 . S
C462 C139 1.580 . S
C460 C23 1.596 . S
C478 C29 1.277 . S
C480 C140 1.219 . S
C498 C109 1.633 . S
C496 C75 1.672 . S
C516 C170 1.229 . S
C514 C3 1.278 . S
C534 C97 1.519 . S
C532 C18 1.558 . S
C552 C111 1.443 . S
C550 C27 1.490 . S
C568 C44 1.649 . S
C570 C160 1.615 . S
C586 C57 1.452 . S
C588 C107 1.453 . S
