# Generated by pormake.
# Topology anh, (6,3)-cn, num edge types: 1
# Building blocks:
#     Node 0, Type 0, BuildingBlock: CUKXOW_clean_sbu_0, # of connection points: 6
#     Node 1, Type 0, BuildingBlock: CUKXOW_clean_sbu_0, # of connection points: 6
#     Node 2, Type 0, BuildingBlock: CUKXOW_clean_sbu_0, # of connection points: 6
#     Node 3, Type 1, BuildingBlock: WUSLED_clean_sbu_0, # of connection points: 3
#     Node 4, Type 1, BuildingBlock: WUSLED_clean_sbu_0, # of connection points: 3
#     Node 5, Type 1, BuildingBlock: WUSLED_clean_sbu_0, # of connection points: 3
#     Node 6, Type 1, BuildingBlock: WUSLED_clean_sbu_0, # of connection points: 3
#     Node 7, Type 1, BuildingBlock: WUSLED_clean_sbu_0, # of connection points: 3
#     Node 8, Type 1, BuildingBlock: WUSLED_clean_sbu_0, # of connection points: 3
#     Edge 9, Type (0, 1), BuildingBlock: MIFKUJ_clean_linker_0, # of connection points: 2
#     Edge 10, Type (0, 1), BuildingBlock: MIFKUJ_clean_linker_0, # of connection points: 2
#     Edge 11, Type (0, 1), BuildingBlock: MIFKUJ_clean_linker_0, # of connection points: 2
#     Edge 12, Type (0, 1), BuildingBlock: MIFKUJ_clean_linker_0, # of connection points: 2
#     Edge 13, Type (0, 1), BuildingBlock: MIFKUJ_clean_linker_0, # of connection points: 2
#     Edge 14, Type (0, 1), BuildingBlock: MIFKUJ_clean_linker_0, # of connection points: 2
#     Edge 15, Type (0, 1), BuildingBlock: MIFKUJ_clean_linker_0, # of connection points: 2
#     Edge 16, Type (0, 1), BuildingBlock: MIFKUJ_clean_linker_0, # of connection points: 2
#     Edge 17, Type (0, 1), BuildingBlock: MIFKUJ_clean_linker_0, # of connection points: 2
#     Edge 18, Type (0, 1), BuildingBlock: MIFKUJ_clean_linker_0, # of connection points: 2
#     Edge 19, Type (0, 1), BuildingBlock: MIFKUJ_clean_linker_0, # of connection points: 2
#     Edge 20, Type (0, 1), BuildingBlock: MIFKUJ_clean_linker_0, # of connection points: 2
#     Edge 21, Type (0, 1), BuildingBlock: MIFKUJ_clean_linker_0, # of connection points: 2
#     Edge 22, Type (0, 1), BuildingBlock: MIFKUJ_clean_linker_0, # of connection points: 2
#     Edge 23, Type (0, 1), BuildingBlock: MIFKUJ_clean_linker_0, # of connection points: 2
#     Edge 24, Type (0, 1), BuildingBlock: MIFKUJ_clean_linker_0, # of connection points: 2
#     Edge 25, Type (0, 1), BuildingBlock: MIFKUJ_clean_linker_0, # of connection points: 2
#     Edge 26, Type (0, 1), BuildingBlock: MIFKUJ_clean_linker_0, # of connection points: 2
# Relax obj value: 0.127
# Max RMSD: 0.190
# Mean RMSD: 0.133
data_MOF--net-anh--node1-CUKXOW_clean_sbu_0--node2-WUSLED_clean_sbu_0--edge1-MIFKUJ_clean_linker_0
_symmetry_space_group_name_H-M    P1
_symmetry_Int_Tables_number       1
_symmetry_cell_setting            triclinic
loop_
_symmetry_equiv_pos_as_xyz
'x, y, z'
_cell_length_a     46.438397
_cell_length_b     44.960193
_cell_length_c     83.82416
_cell_angle_alpha  94.912975
_cell_angle_beta   90.482096
_cell_angle_gamma 116.29145
loop_
_atom_site_label
_atom_site_type_symbol
_atom_site_fract_x
_atom_site_fract_y
_atom_site_fract_z
_atom_type_partial_charge
Tb0 Tb 0.07991 0.53843 0.16824 0.0
C1 C 0.05477 0.50208 0.19938 0.0
Tb2 Tb 0.02879 0.46237 0.16479 0.0
O3 O 0.04248 0.55283 0.17639 0.0
O4 O 0.03015 0.50935 0.16145 0.0
O5 O 0.07778 0.5277 0.19314 0.0
C6 C 0.97091 0.41054 0.16529 0.0
O7 O 0.03245 0.47585 0.19058 0.0
C8 C 0.08924 0.47005 0.16603 0.0
C9 C 0.0561 0.49797 0.13376 0.0
O10 O 0.98023 0.43947 0.17336 0.0
O11 O 0.99432 0.41063 0.1568 0.0
O12 O 0.06399 0.44112 0.16446 0.0
O13 O 0.07841 0.49124 0.16757 0.0
O14 O 0.03153 0.47358 0.13998 0.0
O15 O 0.07945 0.52345 0.14264 0.0
C16 C 0.13397 0.59547 0.16944 0.0
O17 O 0.10694 0.58997 0.16217 0.0
O18 O 0.13039 0.56895 0.17593 0.0
C19 C 1.0186 0.52591 0.16968 0.0
Tb20 Tb 0.51181 0.01934 0.51104 0.0
C21 C 0.54622 0.04768 0.47985 0.0
Tb22 Tb 0.58109 0.07452 0.51495 0.0
O23 O 0.49481 0.05533 0.5045 0.0
O24 O 0.53518 0.07059 0.51998 0.0
O25 O 0.52104 0.02362 0.48575 0.0
C26 C 0.63296 0.13316 0.51411 0.0
O27 O 0.57118 0.07014 0.48902 0.0
C28 C 0.57539 0.01377 0.5143 0.0
C29 C 0.54743 0.04438 0.54545 0.0
O30 O 0.60403 0.12627 0.50905 0.0
O31 O 0.6327 0.10706 0.51978 0.0
O32 O 0.59952 0.0398 0.52139 0.0
O33 O 0.55806 0.02316 0.50648 0.0
O34 O 0.5679 0.07249 0.53985 0.0
O35 O 0.52618 0.01865 0.53593 0.0
C36 C 0.45788 0.96198 0.51019 0.0
O37 O 0.46108 0.99078 0.51644 0.0
O38 O 0.48496 0.96558 0.50451 0.0
C39 C 0.51855 0.08078 0.51223 0.0
Tb40 Tb 0.54533 0.54248 0.84398 0.0
C41 C 0.57577 0.54209 0.87718 0.0
Tb42 Tb 0.61428 0.55342 0.84502 0.0
O43 O 0.5285 0.49076 0.84956 0.0
O44 O 0.56965 0.51365 0.83677 0.0
O45 O 0.5529 0.54664 0.86977 0.0
C46 C 0.66943 0.54894 0.84673 0.0
O47 O 0.60011 0.54049 0.86947 0.0
C48 C 0.60706 0.60796 0.84433 0.0
C49 C 0.58339 0.55472 0.81215 0.0
O50 O 0.66521 0.57427 0.85261 0.0
O51 O 0.64255 0.52603 0.84017 0.0
O52 O 0.63101 0.60414 0.83833 0.0
O53 O 0.59019 0.58292 0.85159 0.0
O54 O 0.60527 0.54795 0.8191 0.0
O55 O 0.56037 0.55798 0.82021 0.0
C56 C 0.49168 0.54892 0.83988 0.0
O57 O 0.49669 0.52463 0.83323 0.0
O58 O 0.51644 0.56897 0.84906 0.0
C59 C 0.5528 0.48778 0.84341 0.0
C60 C 0.61006 0.08217 0.2012 0.0
C61 C 0.62813 0.10843 0.21289 0.0
C62 C 0.66805 0.13545 0.1935 0.0
C63 C 0.6568 0.13485 0.20907 0.0
C64 C 0.64979 0.109 0.18183 0.0
C65 C 0.62103 0.08261 0.18566 0.0
U66 U 0.55401 0.03681 0.23275 0.0
O67 O 0.50127 1.01175 0.23323 0.0
O68 O 0.52892 0.98345 0.23632 0.0
C69 C 0.50031 0.9825 0.2349 0.0
C70 C 0.58032 0.05396 0.20533 0.0
C71 C 0.47542 0.95327 0.2252 0.0
C72 C 0.43595 0.92784 0.20273 0.0
C73 C 0.46165 0.95586 0.21071 0.0
C74 C 0.4381 0.89436 0.22343 0.0
C75 C 0.42369 0.89679 0.20908 0.0
C76 C 0.46363 0.92226 0.23136 0.0
C77 C 0.57681 0.07313 0.27635 0.0
C78 C 0.54961 0.04219 0.29851 0.0
C79 C 0.58971 0.09973 0.30363 0.0
C80 C 0.59432 0.10116 0.2872 0.0
C81 C 0.56753 0.07012 0.30951 0.0
C82 C 0.55419 0.04371 0.28206 0.0
C83 C 0.58294 0.07465 0.2592 0.0
O84 O 0.58471 0.03273 0.21368 0.0
O85 O 0.5579 0.06183 0.21086 0.0
O86 O 0.5623 0.07954 0.2503 0.0
O87 O 0.59029 0.05148 0.25261 0.0
H88 H 0.62016 0.10836 0.225 0.0
H89 H 0.67046 0.15451 0.21841 0.0
H90 H 0.65758 0.10884 0.16969 0.0
H91 H 0.60741 0.0625 0.17649 0.0
H92 H 0.42558 0.93051 0.19164 0.0
H93 H 0.47034 0.97957 0.2057 0.0
H94 H 0.42898 0.8711 0.22886 0.0
H95 H 0.47368 0.91977 0.2426 0.0
H96 H 0.5326 0.01891 0.30262 0.0
H97 H 0.60352 0.12186 0.31172 0.0
H98 H 0.61177 0.12412 0.28297 0.0
H99 H 0.54042 0.0218 0.27383 0.0
C100 C 0.53742 0.62032 0.53732 0.0
C101 C 0.54299 0.6439 0.55054 0.0
C102 C 0.53902 0.68286 0.53309 0.0
C103 C 0.54382 0.67484 0.54846 0.0
C104 C 0.53309 0.65892 0.5199 0.0
C105 C 0.53235 0.62798 0.522 0.0
U106 U 0.54119 0.56016 0.5652 0.0
O107 O 0.51438 0.50563 0.56519 0.0
O108 O 0.56704 0.52921 0.56446 0.0
C109 C 0.54048 0.50114 0.56427 0.0
C110 C 0.53715 0.58796 0.5395 0.0
C111 C 0.53856 0.47152 0.55407 0.0
C112 C 0.5658 0.44025 0.54197 0.0
C113 C 0.56658 0.47039 0.54848 0.0
C114 C 0.50873 0.4119 0.54582 0.0
C115 C 0.53704 0.41042 0.54098 0.0
C116 C 0.50951 0.44201 0.55234 0.0
C117 C 0.54893 0.58712 0.61035 0.0
C118 C 0.57407 0.57249 0.63195 0.0
C119 C 0.53187 0.58902 0.6376 0.0
C120 C 0.52922 0.5932 0.62141 0.0
C121 C 0.55454 0.5789 0.64313 0.0
C122 C 0.57122 0.57643 0.61573 0.0
C123 C 0.54614 0.59271 0.59342 0.0
O124 O 0.56432 0.58979 0.54533 0.0
O125 O 0.51183 0.56676 0.54632 0.0
O126 O 0.51839 0.57335 0.58577 0.0
O127 O 0.57096 0.59725 0.58475 0.0
H128 H 0.5468 0.6384 0.56249 0.0
H129 H 0.548 0.69241 0.55891 0.0
H130 H 0.52964 0.66433 0.50788 0.0
H131 H 0.52804 0.61012 0.51165 0.0
H132 H 0.58798 0.44016 0.53814 0.0
H133 H 0.58949 0.49247 0.54979 0.0
H134 H 0.4862 0.38944 0.54542 0.0
H135 H 0.4876 0.44177 0.55681 0.0
H136 H 0.59205 0.56504 0.63577 0.0
H137 H 0.51599 0.59358 0.64577 0.0
H138 H 0.51176 0.60132 0.61752 0.0
H139 H 0.58669 0.57144 0.60744 0.0
C140 C 0.03231 0.55768 0.85719 0.0
C141 C 1.01399 0.56742 0.86766 0.0
C142 C 0.97917 0.5645 0.84523 0.0
C143 C 0.98774 0.57096 0.86172 0.0
C144 C 0.99768 0.55492 0.83473 0.0
C145 C 0.02424 0.55164 0.8407 0.0
U146 U 0.07107 0.54014 0.89226 0.0
O147 O 0.09611 0.50888 0.89391 0.0
O148 O 0.12154 0.56274 0.90124 0.0
C149 C 0.12393 0.5349 0.89774 0.0
C150 C 0.05875 0.55228 0.86367 0.0
C151 C 0.14985 0.53819 0.88716 0.0
C152 C 0.16898 0.53755 0.86032 0.0
C153 C 0.14375 0.53169 0.87046 0.0
C154 C 0.20661 0.55686 0.88348 0.0
C155 C 0.20063 0.55058 0.86676 0.0
C156 C 0.18135 0.55066 0.89362 0.0
C157 C 0.03339 0.52923 0.93208 0.0
C158 C 0.06309 0.52392 0.95471 0.0
C159 C 1.01004 0.52085 0.95806 0.0
C160 C 1.00791 0.52533 0.94186 0.0
C161 C 0.03779 0.52038 0.96466 0.0
C162 C 0.06088 0.52826 0.93854 0.0
C163 C 0.03171 0.53478 0.91522 0.0
O164 O 0.07772 0.57571 0.87463 0.0
O165 O 0.05039 0.52197 0.86761 0.0
O166 O 0.02821 0.50954 0.9049 0.0
O167 O 0.05377 0.56359 0.91144 0.0
H168 H 0.01963 0.57171 0.88047 0.0
H169 H 0.97348 0.57765 0.87013 0.0
H170 H 0.99147 0.54975 0.82197 0.0
H171 H 0.03811 0.54388 0.8325 0.0
H172 H 0.16389 0.53253 0.84747 0.0
H173 H 0.11955 0.52259 0.86525 0.0
H174 H 0.23084 0.56638 0.88872 0.0
H175 H 0.18644 0.55609 0.90646 0.0
H176 H 0.08455 0.5232 0.95941 0.0
H177 H 0.99031 0.51847 0.96548 0.0
H178 H 0.98656 0.52605 0.93701 0.0
H179 H 0.08071 0.53107 0.93109 0.0
C180 C 0.97536 0.48268 0.47759 0.0
C181 C 0.95081 0.46495 0.46569 0.0
C182 C 0.91846 0.42757 0.48489 0.0
C183 C 0.92261 0.43773 0.4693 0.0
C184 C 0.94318 0.44547 0.49678 0.0
C185 C 0.97137 0.47282 0.49315 0.0
U186 U 0.02878 0.53125 0.44609 0.0
O187 O 0.08108 0.55191 0.44354 0.0
O188 O 0.05752 0.58498 0.44449 0.0
C189 C 0.08474 0.58264 0.44371 0.0
C190 C 1.00538 0.51075 0.47363 0.0
C191 C 0.11285 0.60862 0.45318 0.0
C192 C 0.13759 0.6498 0.47616 0.0
C193 C 0.11034 0.62343 0.46822 0.0
C194 C 0.16994 0.64621 0.45425 0.0
C195 C 0.16771 0.66165 0.4692 0.0
C196 C 0.14285 0.62002 0.44638 0.0
C197 C 1.00062 0.50115 0.40231 0.0
C198 C 0.0246 0.53408 0.38021 0.0
C199 C 0.99216 0.47437 0.37512 0.0
C200 C 0.98698 0.4724 0.39148 0.0
C201 C 1.01101 0.50525 0.36926 0.0
C202 C 0.01958 0.53203 0.39659 0.0
C203 C 0.99561 0.49829 0.41952 0.0
O204 O 0.02591 0.50213 0.46635 0.0
O205 O 1.00177 0.53451 0.46706 0.0
O206 O 0.99138 0.5224 0.42752 0.0
O207 O 1.01511 0.48965 0.42715 0.0
H208 H 0.9536 0.47202 0.45355 0.0
H209 H 0.9043 0.42425 0.45981 0.0
H210 H 0.94063 0.4385 0.50893 0.0
H211 H 0.9901 0.48617 0.50248 0.0
H212 H 0.13507 0.66093 0.48771 0.0
H213 H 0.08736 0.61497 0.47369 0.0
H214 H 0.19248 0.655 0.44835 0.0
H215 H 0.14523 0.6091 0.43472 0.0
H216 H 0.03893 0.55832 0.37612 0.0
H217 H 0.98181 0.45156 0.36712 0.0
H218 H 0.97254 0.44831 0.3957 0.0
H219 H 0.03055 0.55454 0.40479 0.0
C220 C 0.57534 0.97069 0.82049 0.0
C221 C 0.56843 0.94572 0.80777 0.0
C222 C 0.57611 0.90966 0.82579 0.0
C223 C 0.56875 0.91551 0.81039 0.0
C224 C 0.58295 0.93481 0.83851 0.0
C225 C 0.58254 0.96501 0.83587 0.0
U226 U 0.57033 0.02775 0.79119 0.0
O227 O 0.5464 0.06046 0.79157 0.0
O228 O 0.59874 0.08163 0.78925 0.0
C229 C 0.57336 0.08735 0.79014 0.0
C230 C 0.57575 1.00284 0.81763 0.0
C231 C 0.57737 0.11912 0.79878 0.0
C232 C 0.56435 0.15118 0.81994 0.0
C233 C 0.5633 0.12083 0.81339 0.0
C234 C 0.59389 0.17827 0.79751 0.0
C235 C 0.57924 0.18026 0.81194 0.0
C236 C 0.59304 0.14818 0.79109 0.0
C237 C 0.55902 0.99662 0.74675 0.0
C238 C 0.57246 0.0325 0.72511 0.0
C239 C 0.5375 0.97339 0.7196 0.0
C240 C 0.54017 0.96925 0.7358 0.0
C241 C 0.55384 1.00503 0.714 0.0
C242 C 0.57488 0.02837 0.74133 0.0
C243 C 0.56209 0.99162 0.7637 0.0
O244 O 0.60064 0.02279 0.81012 0.0
O245 O 0.54838 1.00097 0.81205 0.0
O246 O 0.53812 0.98965 0.77247 0.0
O247 O 0.59045 1.01014 0.77097 0.0
H248 H 0.56303 0.94972 0.79576 0.0
H249 H 0.56384 0.897 0.80026 0.0
H250 H 0.58837 0.93107 0.85055 0.0
H251 H 0.58796 0.98399 0.84585 0.0
H252 H 0.55316 0.15173 0.83117 0.0
H253 H 0.55092 0.09867 0.81952 0.0
H254 H 0.60499 0.19966 0.79074 0.0
H255 H 0.60367 0.14735 0.7797 0.0
H256 H 0.5857 0.05715 0.72125 0.0
H257 H 0.52247 0.95177 0.71148 0.0
H258 H 0.52755 0.9446 0.73979 0.0
H259 H 0.58945 0.04992 0.74961 0.0
C260 C 0.63808 0.50846 0.14721 0.0
C261 C 0.64982 0.49723 0.13377 0.0
C262 C 0.70039 0.5105 0.14884 0.0
C263 C 0.68059 0.49823 0.13458 0.0
C264 C 0.68838 0.52186 0.16218 0.0
C265 C 0.65777 0.52087 0.16136 0.0
U266 U 0.55827 0.50254 0.12778 0.0
O267 O 0.50893 0.47218 0.13524 0.0
O268 O 0.52858 0.52673 0.13707 0.0
C269 C 0.50388 0.49831 0.13935 0.0
C270 C 0.60509 0.50623 0.14728 0.0
C271 C 0.4705 0.49498 0.13737 0.0
C272 C 0.41509 0.46881 0.14577 0.0
C273 C 0.44574 0.46998 0.14492 0.0
C274 C 0.43258 0.51716 0.13103 0.0
C275 C 0.4079 0.49257 0.13902 0.0
C276 C 0.46349 0.51848 0.1303 0.0
C277 C 0.55623 0.50082 0.08019 0.0
C278 C 0.54593 0.52784 0.05832 0.0
C279 C 0.5528 0.47782 0.05246 0.0
C280 C 0.55678 0.47624 0.06887 0.0
C281 C 0.54812 0.5041 0.0469 0.0
C282 C 0.55008 0.52632 0.07479 0.0
C283 C 0.56784 0.50224 0.0969 0.0
O284 O 0.60187 0.53246 0.14357 0.0
O285 O 0.5814 0.47803 0.14115 0.0
O286 O 0.5551 0.4749 0.10424 0.0
O287 O 0.57544 0.52965 0.1065 0.0
H288 H 0.63514 0.48749 0.1227 0.0
H289 H 0.68893 0.48958 0.12397 0.0
H290 H 0.70233 0.53089 0.17348 0.0
H291 H 0.64924 0.5294 0.17194 0.0
H292 H 0.39744 0.44986 0.15234 0.0
H293 H 0.45047 0.45194 0.1508 0.0
H294 H 0.4282 0.53569 0.12543 0.0
H295 H 0.48204 0.53834 0.12453 0.0
H296 H 0.54181 0.54813 0.05454 0.0
H297 H 0.55516 0.45933 0.04414 0.0
H298 H 0.56207 0.45666 0.07266 0.0
H299 H 0.54975 0.54581 0.08321 0.0
H300 H 0.11214 0.42405 0.16658 0.0
H301 H 0.16646 0.43066 0.16213 0.0
H302 H 0.19781 0.53462 0.15616 0.0
H303 H 0.14274 0.52738 0.15979 0.0
H304 H 0.22473 0.51124 0.13496 0.0
H305 H 0.21762 0.5062 0.19124 0.0
H306 H 0.19446 0.48418 0.21651 0.0
H307 H 0.20169 0.39362 0.20274 0.0
H308 H 0.22449 0.41491 0.17727 0.0
H309 H 0.39245 0.54576 0.14204 0.0
H310 H 0.33996 0.54469 0.14633 0.0
H311 H 0.29656 0.4377 0.14529 0.0
H312 H 0.34846 0.43825 0.14035 0.0
H313 H 0.27796 0.46677 0.17113 0.0
H314 H 0.28456 0.47389 0.11407 0.0
H315 H 0.30929 0.49874 0.08957 0.0
H316 H 0.3055 0.58982 0.10636 0.0
H317 H 0.28113 0.56566 0.13107 0.0
C318 C 0.13063 0.44843 0.16444 0.0
C319 C 0.12315 0.47545 0.16402 0.0
C320 C 0.16191 0.45227 0.16198 0.0
C321 C 0.18691 0.48339 0.15917 0.0
C322 C 0.17934 0.51038 0.15849 0.0
C323 C 0.14785 0.50643 0.16085 0.0
C324 C 0.22049 0.48728 0.1566 0.0
C325 C 0.23649 0.50198 0.14306 0.0
C326 C 0.23618 0.47498 0.16696 0.0
C327 C 0.22251 0.46205 0.18227 0.0
C328 C 0.21405 0.48149 0.19354 0.0
C329 C 0.20102 0.46915 0.20791 0.0
C330 C 0.19653 0.43749 0.21121 0.0
C331 C 0.20515 0.41813 0.20016 0.0
C332 C 0.21816 0.43033 0.18576 0.0
C333 C 0.37176 0.52184 0.14239 0.0
C334 C 0.37529 0.4921 0.14087 0.0
C335 C 0.34161 0.52133 0.14497 0.0
C336 C 0.31403 0.4911 0.14618 0.0
C337 C 0.31735 0.46142 0.14455 0.0
C338 C 0.34734 0.46185 0.1418 0.0
C339 C 0.28185 0.49025 0.14942 0.0
C340 C 0.26619 0.47615 0.16311 0.0
C341 C 0.26675 0.50356 0.13935 0.0
C342 C 0.28136 0.51809 0.1245 0.0
C343 C 0.28926 0.49932 0.1126 0.0
C344 C 0.30316 0.51326 0.09866 0.0
C345 C 0.30906 0.54587 0.09643 0.0
C346 C 0.30098 0.56459 0.10811 0.0
C347 C 0.2871 0.55077 0.12209 0.0
H348 H 0.31981 0.55662 0.08563 0.0
H349 H 0.18645 0.42798 0.22234 0.0
H350 H 0.63613 0.18695 0.50018 0.0
H351 H 0.68434 0.23801 0.49601 0.0
H352 H 0.74302 0.20156 0.52009 0.0
H353 H 0.69478 0.15042 0.52431 0.0
H354 H 0.76093 0.26816 0.52926 0.0
H355 H 0.73952 0.19643 0.48021 0.0
H356 H 0.70573 0.15998 0.45693 0.0
H357 H 0.69175 0.24133 0.44127 0.0
H358 H 0.72516 0.2782 0.4646 0.0
H359 H 0.91321 0.3775 0.50289 0.0
H360 H 0.86433 0.32873 0.50858 0.0
H361 H 0.80738 0.36211 0.48097 0.0
H362 H 0.85623 0.41089 0.47518 0.0
H363 H 0.7879 0.29736 0.47376 0.0
H364 H 0.80996 0.36961 0.52238 0.0
H365 H 0.84272 0.40604 0.54592 0.0
H366 H 0.85449 0.32425 0.56265 0.0
H367 H 0.82216 0.28743 0.53908 0.0
C368 C 0.6593 0.18994 0.50466 0.0
C369 C 0.66181 0.16473 0.5125 0.0
C370 C 0.68681 0.21905 0.50223 0.0
C371 C 0.71732 0.22343 0.50758 0.0
C372 C 0.71973 0.19867 0.51584 0.0
C373 C 0.69221 0.16947 0.51821 0.0
C374 C 0.74674 0.25346 0.50422 0.0
C375 C 0.76707 0.27437 0.51713 0.0
C376 C 0.75432 0.26194 0.48839 0.0
C377 C 0.7346 0.23999 0.47423 0.0
C378 C 0.72907 0.2065 0.47186 0.0
C379 C 0.71002 0.18577 0.45865 0.0
C380 C 0.69655 0.19831 0.44765 0.0
C381 C 0.70218 0.23165 0.44981 0.0
C382 C 0.72121 0.25249 0.46302 0.0
C383 C 0.89025 0.37467 0.49818 0.0
C384 C 0.88864 0.39819 0.48863 0.0
C385 C 0.8623 0.34673 0.50143 0.0
C386 C 0.83206 0.34188 0.49536 0.0
C387 C 0.8304 0.36525 0.48577 0.0
C388 C 0.85836 0.39311 0.48245 0.0
C389 C 0.80225 0.31221 0.49882 0.0
C390 C 0.7818 0.2913 0.48592 0.0
C391 C 0.79451 0.3038 0.51466 0.0
C392 C 0.81389 0.32585 0.52888 0.0
C393 C 0.81974 0.35946 0.53101 0.0
C394 C 0.8382 0.38017 0.54437 0.0
C395 C 0.85075 0.36749 0.55575 0.0
C396 C 0.84479 0.33405 0.55381 0.0
C397 C 0.82638 0.31324 0.54046 0.0
H398 H 0.86503 0.38356 0.56609 0.0
H399 H 0.68184 0.1822 0.43742 0.0
H400 H 0.63936 0.65888 0.82639 0.0
H401 H 0.63195 0.70877 0.82406 0.0
H402 H 0.55405 0.6738 0.85614 0.0
H403 H 0.56303 0.62479 0.85933 0.0
H404 H 0.58745 0.72004 0.81265 0.0
H405 H 0.54687 0.7389 0.87598 0.0
H406 H 0.55329 0.7268 0.9036 0.0
H407 H 0.64411 0.72803 0.89302 0.0
H408 H 0.63838 0.74051 0.86541 0.0
H409 H 0.53481 0.8462 0.81309 0.0
H410 H 0.53764 0.79417 0.81678 0.0
H411 H 0.62233 0.84838 0.84824 0.0
H412 H 0.61966 0.9005 0.84461 0.0
H413 H 0.58439 0.79228 0.86011 0.0
H414 H 0.62727 0.8223 0.80898 0.0
H415 H 0.62775 0.83779 0.78143 0.0
H416 H 0.54467 0.74505 0.76777 0.0
H417 H 0.54343 0.7292 0.79531 0.0
C418 C 0.62075 0.66189 0.83303 0.0
C419 C 0.60155 0.63772 0.84294 0.0
C420 C 0.61637 0.69038 0.8316 0.0
C421 C 0.59254 0.69541 0.83997 0.0
C422 C 0.57295 0.67094 0.84972 0.0
C423 C 0.57772 0.6426 0.85135 0.0
C424 C 0.58869 0.72639 0.83847 0.0
C425 C 0.58664 0.73569 0.82306 0.0
C426 C 0.58808 0.74732 0.85198 0.0
C427 C 0.59201 0.74029 0.8686 0.0
C428 C 0.56825 0.7367 0.87958 0.0
C429 C 0.57176 0.72975 0.89522 0.0
C430 C 0.59904 0.72654 0.90005 0.0
C431 C 0.62293 0.7304 0.88926 0.0
C432 C 0.61956 0.73738 0.87361 0.0
C433 C 0.55416 0.84712 0.82074 0.0
C434 C 0.57711 0.87767 0.82848 0.0
C435 C 0.5557 0.81728 0.82287 0.0
C436 C 0.58042 0.81727 0.83266 0.0
C437 C 0.60297 0.84763 0.84066 0.0
C438 C 0.60137 0.87746 0.83859 0.0
C439 C 0.5832 0.78582 0.83431 0.0
C440 C 0.58495 0.77643 0.84972 0.0
C441 C 0.58443 0.76526 0.82081 0.0
C442 C 0.58504 0.77474 0.80425 0.0
C443 C 0.60893 0.80534 0.80013 0.0
C444 C 0.60937 0.81416 0.78451 0.0
C445 C 0.58619 0.79246 0.77287 0.0
C446 C 0.56257 0.76186 0.77681 0.0
C447 C 0.56199 0.75293 0.79242 0.0
H448 H 0.58659 0.79933 0.76078 0.0
H449 H 0.60169 0.72112 0.91215 0.0
H450 H 0.96765 0.47653 0.15141 0.0
H451 H 0.91292 0.47089 0.14783 0.0
H452 H 0.93852 0.55961 0.18027 0.0
H453 H 0.99283 0.56462 0.18425 0.0
H454 H 0.88059 0.51626 0.18589 0.0
H455 H 0.93351 0.5583 0.13792 0.0
H456 H 0.9638 0.55773 0.11395 0.0
H457 H 0.88712 0.46364 0.09537 0.0
H458 H 0.85656 0.46342 0.11935 0.0
H459 H 0.75555 0.55784 0.16535 0.0
H460 H 0.80769 0.55757 0.16858 0.0
H461 H 0.77281 0.46513 0.13811 0.0
H462 H 0.7202 0.46491 0.13498 0.0
H463 H 0.83382 0.50696 0.1312 0.0
H464 H 0.7801 0.46649 0.17892 0.0
H465 H 0.75044 0.46734 0.20308 0.0
H466 H 0.82933 0.5593 0.22222 0.0
H467 H 0.85929 0.55925 0.19806 0.0
C468 C 0.9615 0.49462 0.15791 0.0
C469 C 0.9847 0.52106 0.16811 0.0
C470 C 0.93019 0.49157 0.15574 0.0
C471 C 0.92141 0.51517 0.16353 0.0
C472 C 0.94443 0.54107 0.17404 0.0
C473 C 0.97561 0.54398 0.17629 0.0
C474 C 0.88856 0.5133 0.16066 0.0
C475 C 0.87063 0.51463 0.17391 0.0
C476 C 0.87483 0.51034 0.14505 0.0
C477 C 0.89289 0.51069 0.1305 0.0
C478 C 0.92319 0.5374 0.12876 0.0
C479 C 0.9404 0.53723 0.11518 0.0
C480 C 0.92743 0.51062 0.10317 0.0
C481 C 0.89716 0.4842 0.10469 0.0
C482 C 0.87987 0.48423 0.11827 0.0
C483 C 0.75867 0.5372 0.15941 0.0
C484 C 0.73314 0.51119 0.15002 0.0
C485 C 0.78873 0.53714 0.16125 0.0
C486 C 0.79433 0.51107 0.15381 0.0
C487 C 0.76929 0.48557 0.14403 0.0
C488 C 0.73911 0.48556 0.1422 0.0
C489 C 0.82611 0.51035 0.15645 0.0
C490 C 0.84379 0.50851 0.14317 0.0
C491 C 0.83972 0.51297 0.17204 0.0
C492 C 0.82181 0.51302 0.18661 0.0
C493 C 0.79102 0.48703 0.18822 0.0
C494 C 0.77417 0.48734 0.20193 0.0
C495 C 0.78796 0.5134 0.21416 0.0
C496 C 0.81866 0.53915 0.21273 0.0
C497 C 0.8356 0.53898 0.19904 0.0
H498 H 0.77487 0.5136 0.22476 0.0
H499 H 0.94082 0.51051 0.09267 0.0
H500 H 0.4502 0.90101 0.49775 0.0
H501 H 0.40017 0.84958 0.49329 0.0
H502 H 0.34762 0.9005 0.51427 0.0
H503 H 0.39799 0.95205 0.51907 0.0
H504 H 0.32401 0.83956 0.52336 0.0
H505 H 0.34894 0.88565 0.47314 0.0
H506 H 0.38271 0.90932 0.45058 0.0
H507 H 0.39151 0.81864 0.44001 0.0
H508 H 0.35814 0.79458 0.46266 0.0
H509 H 0.17125 0.71936 0.48512 0.0
H510 H 0.21982 0.76952 0.49501 0.0
H511 H 0.27818 0.72058 0.48026 0.0
H512 H 0.22989 0.67019 0.47074 0.0
H513 H 0.29732 0.78155 0.46831 0.0
H514 H 0.27025 0.7358 0.51909 0.0
H515 H 0.23499 0.71346 0.54133 0.0
H516 H 0.2276 0.80527 0.55014 0.0
H517 H 0.26248 0.828 0.5278 0.0
C518 C 0.428 0.9012 0.50148 0.0
C519 C 0.42786 0.93054 0.50861 0.0
C520 C 0.39937 0.87181 0.49888 0.0
C521 C 0.36996 0.87125 0.50316 0.0
C522 C 0.36996 0.90031 0.51082 0.0
C523 C 0.3987 0.92975 0.51351 0.0
C524 C 0.33923 0.84064 0.49912 0.0
C525 C 0.31797 0.82712 0.51128 0.0
C526 C 0.33138 0.82414 0.48338 0.0
C527 C 0.35127 0.83843 0.46968 0.0
C528 C 0.35825 0.87084 0.46607 0.0
C529 C 0.3773 0.88431 0.45326 0.0
C530 C 0.38931 0.86552 0.44389 0.0
C531 C 0.38222 0.83318 0.44729 0.0
C532 C 0.36322 0.8196 0.4601 0.0
C533 C 0.19434 0.71896 0.48433 0.0
C534 C 0.19663 0.69078 0.47697 0.0
C535 C 0.2221 0.74773 0.48994 0.0
C536 C 0.25262 0.74882 0.48831 0.0
C537 C 0.25488 0.72036 0.48153 0.0
C538 C 0.22723 0.69161 0.47602 0.0
C539 C 0.28237 0.78022 0.49259 0.0
C540 C 0.30337 0.79398 0.4804 0.0
C541 C 0.28965 0.79709 0.50822 0.0
C542 C 0.2687 0.78346 0.52166 0.0
C543 C 0.26087 0.75111 0.52567 0.0
C544 C 0.241 0.7384 0.53832 0.0
C545 C 0.22898 0.7579 0.54711 0.0
C546 C 0.23688 0.79018 0.54331 0.0
C547 C 0.25672 0.80299 0.53066 0.0
H548 H 0.21361 0.74802 0.5569 0.0
H549 H 0.40405 0.876 0.43399 0.0
H550 H 0.59623 0.47513 0.82597 0.0
H551 H 0.60225 0.4238 0.82284 0.0
H552 H 0.5208 0.37675 0.85184 0.0
H553 H 0.51649 0.42924 0.85606 0.0
H554 H 0.5621 0.3561 0.85893 0.0
H555 H 0.51701 0.36389 0.80891 0.0
H556 H 0.51312 0.39031 0.78492 0.0
H557 H 0.60425 0.39716 0.7706 0.0
H558 H 0.60889 0.37117 0.79463 0.0
H559 H 0.53049 0.18873 0.82711 0.0
H560 H 0.52719 0.24095 0.83447 0.0
H561 H 0.6214 0.29633 0.81703 0.0
H562 H 0.6257 0.2446 0.81033 0.0
H563 H 0.57226 0.31124 0.80423 0.0
H564 H 0.61508 0.30154 0.85509 0.0
H565 H 0.61582 0.27306 0.87884 0.0
H566 H 0.52361 0.26642 0.8909 0.0
H567 H 0.52211 0.29445 0.86707 0.0
C568 C 0.58013 0.45415 0.83202 0.0
C569 C 0.55623 0.45644 0.84147 0.0
C570 C 0.58318 0.42448 0.82997 0.0
C571 C 0.56157 0.39592 0.83681 0.0
C572 C 0.53778 0.39828 0.84639 0.0
C573 C 0.5352 0.42825 0.84873 0.0
C574 C 0.56363 0.36364 0.83383 0.0
C575 C 0.56384 0.34613 0.84692 0.0
C576 C 0.56629 0.35051 0.8182 0.0
C577 C 0.56342 0.36584 0.80365 0.0
C578 C 0.53631 0.3712 0.80069 0.0
C579 C 0.53396 0.38609 0.78708 0.0
C580 C 0.55845 0.39548 0.77627 0.0
C581 C 0.58531 0.38991 0.77901 0.0
C582 C 0.5878 0.37507 0.79261 0.0
C583 C 0.5509 0.21198 0.82518 0.0
C584 C 0.57827 0.21216 0.81795 0.0
C585 C 0.54884 0.24186 0.82931 0.0
C586 C 0.57397 0.27252 0.8262 0.0
C587 C 0.60161 0.27293 0.8194 0.0
C588 C 0.6039 0.2432 0.81549 0.0
C589 C 0.57093 0.30408 0.82931 0.0
C590 C 0.57044 0.32131 0.81621 0.0
C591 C 0.56743 0.31656 0.84486 0.0
C592 C 0.56833 0.29976 0.8592 0.0
C593 C 0.59482 0.29372 0.86272 0.0
C594 C 0.59541 0.27773 0.87622 0.0
C595 C 0.56974 0.26785 0.88635 0.0
C596 C 0.54346 0.27404 0.88302 0.0
C597 C 0.54274 0.29 0.86953 0.0
H598 H 0.57025 0.25548 0.89679 0.0
H599 H 0.5566 0.40703 0.76574 0.0
H600 H 0.53308 0.95662 0.49622 0.0
H601 H 0.52347 0.89909 0.49924 0.0
H602 H 0.59733 0.93539 0.53735 0.0
H603 H 0.60589 0.99248 0.53487 0.0
H604 H 0.60328 0.89025 0.51399 0.0
H605 H 0.52345 0.9014 0.54621 0.0
H606 H 0.47681 0.91202 0.55223 0.0
H607 H 0.41706 0.82904 0.51867 0.0
H608 H 0.46365 0.81878 0.51191 0.0
H609 H 0.58167 0.74385 0.54771 0.0
H610 H 0.5851 0.79855 0.54389 0.0
H611 H 0.50461 0.75275 0.50931 0.0
H612 H 0.50046 0.69767 0.51338 0.0
H613 H 0.50011 0.80156 0.52949 0.0
H614 H 0.57988 0.79135 0.49677 0.0
H615 H 0.62641 0.78042 0.49077 0.0
H616 H 0.68553 0.86093 0.52566 0.0
H617 H 0.63921 0.87204 0.53203 0.0
C618 C 0.54663 0.95218 0.50549 0.0
C619 C 0.56969 0.97894 0.51554 0.0
C620 C 0.54137 0.91937 0.50711 0.0
C621 C 0.55955 0.91292 0.51861 0.0
C622 C 0.583 0.93975 0.52842 0.0
C623 C 0.58788 0.97237 0.52697 0.0
C624 C 0.55482 0.8784 0.52028 0.0
C625 C 0.58079 0.87095 0.51751 0.0
C626 C 0.52522 0.853 0.52453 0.0
C627 C 0.49727 0.85964 0.52834 0.0
C628 C 0.50054 0.88579 0.53987 0.0
C629 C 0.47407 0.89174 0.54343 0.0
C630 C 0.44403 0.87136 0.53576 0.0
C631 C 0.4404 0.84498 0.52452 0.0
C632 C 0.46687 0.83916 0.52077 0.0
C633 C 0.56443 0.74528 0.53942 0.0
C634 C 0.54082 0.71625 0.53083 0.0
C635 C 0.5666 0.77667 0.53714 0.0
C636 C 0.54535 0.77988 0.52617 0.0
C637 C 0.52135 0.75095 0.51779 0.0
C638 C 0.5192 0.71949 0.52004 0.0
C639 C 0.54866 0.81352 0.52329 0.0
C640 C 0.52248 0.82081 0.52584 0.0
C641 C 0.57804 0.83886 0.51881 0.0
C642 C 0.60599 0.83233 0.51498 0.0
C643 C 0.60274 0.80656 0.50325 0.0
C644 C 0.62908 0.80036 0.49977 0.0
C645 C 0.65889 0.81992 0.50786 0.0
C646 C 0.66242 0.84577 0.51942 0.0
C647 C 0.63613 0.85206 0.52296 0.0
H648 H 0.67926 0.81508 0.50515 0.0
H649 H 0.42353 0.87593 0.53856 0.0
H650 H 0.68145 0.5006 0.83103 0.0
H651 H 0.73406 0.50211 0.82658 0.0
H652 H 0.78006 0.59731 0.85503 0.0
H653 H 0.7275 0.59624 0.8592 0.0
H654 H 0.80937 0.59797 0.82744 0.0
H655 H 0.77141 0.52538 0.86986 0.0
H656 H 0.73287 0.4764 0.88235 0.0
H657 H 0.74053 0.41132 0.84383 0.0
H658 H 0.77883 0.45996 0.831 0.0
H659 H 0.95996 0.61272 0.85304 0.0
H660 H 0.90659 0.60894 0.84807 0.0
H661 H 0.87802 0.5149 0.81944 0.0
H662 H 0.9313 0.51812 0.82481 0.0
H663 H 0.83785 0.50972 0.84265 0.0
H664 H 0.88236 0.58319 0.80231 0.0
H665 H 0.92172 0.63263 0.79047 0.0
H666 H 0.90272 0.69661 0.82531 0.0
H667 H 0.86358 0.64759 0.83752 0.0
C668 C 0.7028 0.52166 0.83646 0.0
C669 C 0.70061 0.54828 0.84549 0.0
C670 C 0.73278 0.5225 0.8339 0.0
C671 C 0.76088 0.54978 0.84052 0.0
C672 C 0.75861 0.57612 0.84977 0.0
C673 C 0.72866 0.57538 0.85225 0.0
C674 C 0.79277 0.55118 0.83768 0.0
C675 C 0.81576 0.57883 0.83086 0.0
C676 C 0.80055 0.52555 0.84162 0.0
C677 C 0.77769 0.49631 0.84938 0.0
C678 C 0.76469 0.50063 0.86399 0.0
C679 C 0.74292 0.47293 0.87114 0.0
C680 C 0.73418 0.44077 0.86386 0.0
C681 C 0.74727 0.43624 0.84944 0.0
C682 C 0.76903 0.46386 0.84223 0.0
C683 C 0.94247 0.59156 0.84544 0.0
C684 C 0.94956 0.56555 0.83943 0.0
C685 C 0.91209 0.58956 0.84248 0.0
C686 C 0.8884 0.56168 0.83333 0.0
C687 C 0.89605 0.53664 0.8265 0.0
C688 C 0.9265 0.53862 0.82947 0.0
C689 C 0.85483 0.55696 0.83274 0.0
C690 C 0.83141 0.52863 0.83893 0.0
C691 C 0.84673 0.58203 0.82827 0.0
C692 C 0.87011 0.61165 0.82089 0.0
C693 C 0.88671 0.6078 0.80752 0.0
C694 C 0.90897 0.63576 0.80073 0.0
C695 C 0.91475 0.66774 0.80715 0.0
C696 C 0.89822 0.67182 0.82035 0.0
C697 C 0.87594 0.64394 0.82719 0.0
H698 H 0.93201 0.68936 0.80188 0.0
H699 H 0.71731 0.41936 0.86941 0.0
H700 H 0.14264 0.65649 0.16126 0.0
H701 H 0.19178 0.7094 0.16561 0.0
H702 H 0.24171 0.65809 0.18492 0.0
H703 H 0.19258 0.60565 0.18104 0.0
H704 H 0.25335 0.7114 0.20372 0.0
H705 H 0.25448 0.68755 0.14669 0.0
H706 H 0.23233 0.67471 0.11874 0.0
H707 H 0.22426 0.76652 0.12162 0.0
H708 H 0.24598 0.77971 0.14968 0.0
H709 H 0.41378 0.8318 0.2054 0.0
H710 H 0.36427 0.78247 0.19618 0.0
H711 H 0.31932 0.84496 0.18585 0.0
H712 H 0.3687 0.89463 0.19539 0.0
H713 H 0.30369 0.78897 0.16237 0.0
H714 H 0.30394 0.81278 0.21935 0.0
H715 H 0.32707 0.82547 0.24711 0.0
H716 H 0.33301 0.73253 0.24393 0.0
H717 H 0.31037 0.71953 0.21605 0.0
C718 C 0.16422 0.65659 0.16631 0.0
C719 C 0.16384 0.62708 0.17087 0.0
C720 C 0.19233 0.68678 0.16873 0.0
C721 C 0.22062 0.68779 0.17551 0.0
C722 C 0.22025 0.65806 0.17974 0.0
C723 C 0.19216 0.62807 0.17748 0.0
C724 C 0.25027 0.71983 0.17896 0.0
C725 C 0.26449 0.72807 0.19458 0.0
C726 C 0.26443 0.74224 0.16722 0.0
C727 C 0.25154 0.73444 0.15034 0.0
C728 C 0.24775 0.70488 0.1414 0.0
C729 C 0.23532 0.69756 0.12554 0.0
C730 C 0.22681 0.71974 0.11843 0.0
C731 C 0.23082 0.74934 0.12716 0.0
C732 C 0.24321 0.75676 0.14303 0.0
C733 C 0.39344 0.83514 0.20112 0.0
C734 C 0.39511 0.86721 0.20137 0.0
C735 C 0.3652 0.80691 0.19578 0.0
C736 C 0.33799 0.81005 0.19053 0.0
C737 C 0.34006 0.84201 0.18985 0.0
C738 C 0.36834 0.87037 0.19528 0.0
C739 C 0.30689 0.77984 0.18696 0.0
C740 C 0.29239 0.77216 0.17143 0.0
C741 C 0.29244 0.75775 0.19874 0.0
C742 C 0.30573 0.76533 0.21556 0.0
C743 C 0.31041 0.79517 0.22453 0.0
C744 C 0.3234 0.8024 0.24029 0.0
C745 C 0.33158 0.77985 0.24726 0.0
C746 C 0.3267 0.74998 0.2385 0.0
C747 C 0.31376 0.74266 0.22273 0.0
H748 H 0.34163 0.78549 0.25947 0.0
H749 H 0.21717 0.71402 0.10614 0.0
H750 H 0.56485 0.13522 0.52987 0.0
H751 H 0.57012 0.19197 0.53312 0.0
H752 H 0.48399 0.16059 0.50288 0.0
H753 H 0.47985 0.1042 0.49882 0.0
H754 H 0.52462 0.21906 0.49623 0.0
H755 H 0.48603 0.17213 0.54561 0.0
H756 H 0.48678 0.14425 0.5696 0.0
H757 H 0.57864 0.22456 0.58545 0.0
H758 H 0.57863 0.25272 0.56144 0.0
H759 H 0.49152 0.35628 0.52226 0.0
H760 H 0.48977 0.30122 0.51629 0.0
H761 H 0.58058 0.33506 0.54274 0.0
H762 H 0.58207 0.38976 0.54912 0.0
H763 H 0.53785 0.27579 0.55111 0.0
H764 H 0.5748 0.32319 0.50155 0.0
H765 H 0.5727 0.35038 0.47753 0.0
H766 H 0.48151 0.26842 0.46219 0.0
H767 H 0.48286 0.24094 0.48624 0.0
C768 C 0.54732 0.14054 0.52373 0.0
C769 C 0.52202 0.11529 0.51403 0.0
C770 C 0.55011 0.17296 0.52574 0.0
C771 C 0.52709 0.18063 0.51852 0.0
C772 C 0.50206 0.15545 0.50863 0.0
C773 C 0.49961 0.12315 0.50637 0.0
C774 C 0.5288 0.21465 0.52144 0.0
C775 C 0.52709 0.23123 0.50825 0.0
C776 C 0.5326 0.23103 0.5371 0.0
C777 C 0.53245 0.21437 0.55166 0.0
C778 C 0.50646 0.18375 0.55417 0.0
C779 C 0.50675 0.16791 0.56777 0.0
C780 C 0.53278 0.18258 0.57902 0.0
C781 C 0.55851 0.2132 0.57672 0.0
C782 C 0.55836 0.22913 0.56313 0.0
C783 C 0.51116 0.35204 0.52678 0.0
C784 C 0.53699 0.37761 0.53614 0.0
C785 C 0.51025 0.32058 0.52325 0.0
C786 C 0.53517 0.31397 0.52896 0.0
C787 C 0.5611 0.33952 0.53816 0.0
C788 C 0.56207 0.37096 0.54166 0.0
C789 C 0.53371 0.28013 0.5259 0.0
C790 C 0.5354 0.26359 0.53909 0.0
C791 C 0.52959 0.26371 0.51026 0.0
C792 C 0.52879 0.28017 0.49577 0.0
C793 C 0.55418 0.31109 0.49312 0.0
C794 C 0.55315 0.32653 0.47948 0.0
C795 C 0.52695 0.31118 0.46836 0.0
C796 C 0.50177 0.28031 0.47083 0.0
C797 C 0.50267 0.26477 0.48445 0.0
H798 H 0.5262 0.32318 0.45782 0.0
H799 H 0.53297 0.17026 0.58953 0.0
H800 H 0.43714 0.5078 0.8218 0.0
H801 H 0.38713 0.51362 0.81992 0.0
H802 H 0.43144 0.6061 0.85057 0.0
H803 H 0.48115 0.60029 0.8526 0.0
H804 H 0.37608 0.56027 0.86173 0.0
H805 H 0.41389 0.60654 0.81213 0.0
H806 H 0.43422 0.60685 0.78504 0.0
H807 H 0.34712 0.52022 0.76877 0.0
H808 H 0.32649 0.51898 0.79585 0.0
H809 H 0.25674 0.60706 0.86715 0.0
H810 H 0.30599 0.61233 0.85475 0.0
H811 H 0.25472 0.51318 0.83063 0.0
H812 H 0.20517 0.50786 0.84294 0.0
H813 H 0.31248 0.56198 0.81418 0.0
H814 H 0.27857 0.51098 0.86385 0.0
H815 H 0.25712 0.50908 0.89075 0.0
H816 H 0.33747 0.60268 0.90656 0.0
H817 H 0.35902 0.60545 0.87961 0.0
C818 C 0.43619 0.52951 0.82796 0.0
C819 C 0.4626 0.55336 0.83754 0.0
C820 C 0.40782 0.53294 0.82677 0.0
C821 C 0.40578 0.56033 0.83508 0.0
C822 C 0.43267 0.58483 0.84408 0.0
C823 C 0.46092 0.5814 0.84528 0.0
C824 C 0.37468 0.56157 0.83609 0.0
C825 C 0.36249 0.56116 0.85133 0.0
C826 C 0.35653 0.56155 0.82243 0.0
C827 C 0.36875 0.56248 0.80609 0.0
C828 C 0.39917 0.58737 0.80282 0.0
C829 C 0.41073 0.58775 0.78746 0.0
C830 C 0.39199 0.56355 0.7752 0.0
C831 C 0.36162 0.53894 0.77828 0.0
C832 C 0.34997 0.5384 0.79364 0.0
C833 C 0.25579 0.58686 0.85878 0.0
C834 C 0.22758 0.55677 0.85626 0.0
C835 C 0.28376 0.59003 0.85158 0.0
C836 C 0.28388 0.56296 0.84199 0.0
C837 C 0.25491 0.53434 0.83795 0.0
C838 C 0.22676 0.53124 0.84508 0.0
C839 C 0.31463 0.56147 0.83982 0.0
C840 C 0.32643 0.56137 0.82448 0.0
C841 C 0.33256 0.56066 0.85334 0.0
C842 C 0.3202 0.5586 0.86969 0.0
C843 C 0.29153 0.53126 0.87303 0.0
C844 C 0.27936 0.53002 0.88829 0.0
C845 C 0.29588 0.55578 0.90035 0.0
C846 C 0.32467 0.58278 0.8972 0.0
C847 C 0.33687 0.5842 0.88194 0.0
H848 H 0.28641 0.5548 0.91215 0.0
H849 H 0.40098 0.56388 0.76331 0.0
H850 H 0.91975 0.41091 0.18049 0.0
H851 H 0.86818 0.36346 0.18402 0.0
H852 H 0.89893 0.29789 0.15665 0.0
H853 H 0.95054 0.34571 0.15277 0.0
H854 H 0.837 0.28164 0.14898 0.0
H855 H 0.90064 0.30303 0.19779 0.0
H856 H 0.93495 0.33762 0.22134 0.0
H857 H 0.85859 0.35969 0.23784 0.0
H858 H 0.82396 0.32558 0.21426 0.0
H859 H 0.71573 0.13211 0.17545 0.0
H860 H 0.76675 0.17802 0.16953 0.0
H861 H 0.74123 0.24793 0.19675 0.0
H862 H 0.69021 0.20217 0.20271 0.0
H863 H 0.80153 0.26065 0.20431 0.0
H864 H 0.73822 0.24017 0.15533 0.0
H865 H 0.70399 0.20612 0.13165 0.0
H866 H 0.77956 0.1824 0.11549 0.0
H867 H 0.81411 0.21596 0.1392 0.0
C868 C 0.91546 0.3864 0.17516 0.0
C869 C 0.9392 0.38189 0.16647 0.0
C870 C 0.88603 0.35927 0.17723 0.0
C871 C 0.87987 0.32696 0.17088 0.0
C872 C 0.90319 0.32255 0.16174 0.0
C873 C 0.93266 0.34982 0.15955 0.0
C874 C 0.84936 0.29785 0.17408 0.0
C875 C 0.82946 0.27674 0.16108 0.0
C876 C 0.83917 0.29179 0.18987 0.0
C877 C 0.8598 0.31196 0.20418 0.0
C878 C 0.89123 0.31542 0.20639 0.0
C879 C 0.91073 0.33492 0.21975 0.0
C880 C 0.89898 0.35091 0.23106 0.0
C881 C 0.86767 0.34732 0.22906 0.0
C882 C 0.84808 0.32787 0.21571 0.0
C883 C 0.7208 0.1573 0.18002 0.0
C884 C 0.69882 0.16343 0.18955 0.0
C885 C 0.75002 0.18354 0.17663 0.0
C886 C 0.75777 0.21653 0.18257 0.0
C887 C 0.73587 0.22271 0.19207 0.0
C888 C 0.70672 0.19649 0.1955 0.0
C889 C 0.78896 0.24458 0.1792 0.0
C890 C 0.80906 0.26546 0.1922 0.0
C891 C 0.7993 0.25039 0.16342 0.0
C892 C 0.77862 0.2303 0.14912 0.0
C893 C 0.74745 0.22748 0.14679 0.0
C894 C 0.72801 0.2083 0.13335 0.0
C895 C 0.73956 0.19203 0.12209 0.0
C896 C 0.77063 0.19498 0.12423 0.0
C897 C 0.79015 0.2141 0.13766 0.0
H898 H 0.72448 0.1772 0.1117 0.0
H899 H 0.91413 0.36603 0.24139 0.0
H900 H 0.1042 0.53882 0.11591 0.0
H901 H 0.10283 0.54074 0.0869 0.0
H902 H 1.00708 0.45943 0.08275 0.0
H903 H 1.00839 0.45685 0.11167 0.0
H904 H 0.04258 0.45222 0.05903 0.0
H905 H 1.01809 0.53917 0.08239 0.0
H906 H 0.02732 0.58877 0.10075 0.0
H907 H 0.1165 0.64526 0.07924 0.0
H908 H 0.10797 0.59583 0.06087 0.0
H909 H 0.99238 0.47711 0.98284 0.0
H910 H 0.99734 0.47188 0.01146 0.0
H911 H 0.09468 0.55004 0.01395 0.0
H912 H 0.08969 0.55585 0.98545 0.0
H913 H 0.05959 0.55871 0.03838 0.0
H914 H 0.08157 0.47069 0.01394 0.0
H915 H 0.07073 0.4204 0.99575 0.0
H916 H 0.98389 0.36514 0.01932 0.0
H917 H 0.99398 0.41526 0.03751 0.0
C918 C 0.08291 0.5212 0.10883 0.0
C919 C 0.05631 0.49786 0.11613 0.0
C920 C 0.08216 0.52239 0.09226 0.0
C921 C 0.05466 0.50055 0.08272 0.0
C922 C 0.02851 0.47652 0.0899 0.0
C923 C 0.02931 0.47517 0.10645 0.0
C924 C 0.05266 0.50348 0.06535 0.0
C925 C 0.04596 0.47539 0.0545 0.0
C926 C 0.05755 0.53386 0.05947 0.0
C927 C 0.06254 0.56373 0.07036 0.0
C928 C 0.03977 0.56212 0.08165 0.0
C929 C 0.04485 0.59021 0.09204 0.0
C930 C 0.07252 0.62013 0.09119 0.0
C931 C 0.0951 0.62206 0.0799 0.0
C932 C 0.09014 0.59402 0.06948 0.0
C933 C 1.01477 0.49327 0.98952 0.0
C934 C 0.04068 0.51683 0.98192 0.0
C935 C 1.01766 0.49007 1.00581 0.0
C936 C 0.04648 0.51037 0.01475 0.0
C937 C 0.07229 0.53407 0.00722 0.0
C938 C 0.06947 0.53718 0.99094 0.0
C939 C 0.04952 0.50746 0.03205 0.0
C940 C 0.05634 0.53557 0.04289 0.0
C941 C 0.04445 0.47701 0.0379 0.0
C942 C 0.03838 0.44683 0.02699 0.0
C943 C 0.06002 0.4479 0.01516 0.0
C944 C 0.05404 0.4194 1.00486 0.0
C945 C 0.0266 0.38962 1.00635 0.0
C946 C 1.00512 0.38824 0.01816 0.0
C947 C 1.01097 0.41668 0.02848 0.0
H948 H 0.02202 0.36758 0.99837 0.0
H949 H 0.07644 0.64185 0.09926 0.0
H950 H 0.59794 0.08329 0.4626 0.0
H951 H 0.59927 0.08672 0.43374 0.0
H952 H 0.49771 0.02027 0.42838 0.0
H953 H 0.4964 0.01583 0.45728 0.0
H954 H 0.52727 1.00392 0.40553 0.0
H955 H 0.52867 0.10636 0.42712 0.0
H956 H 0.54766 0.15907 0.44463 0.0
H957 H 0.6395 0.19565 0.42354 0.0
H958 H 0.62138 0.14282 0.40619 0.0
H959 H 0.51182 0.03901 0.32521 0.0
H960 H 0.5061 0.03494 0.35404 0.0
H961 H 0.60865 0.09298 0.36239 0.0
H962 H 0.61466 0.09677 0.33363 0.0
H963 H 0.57543 0.11371 0.38354 0.0
H964 H 0.57402 1.00933 0.36309 0.0
H965 H 0.55422 0.95655 0.34557 0.0
H966 H 0.4605 0.92436 0.36434 0.0
H967 H 0.47964 0.97717 0.38183 0.0
C968 C 0.57584 0.06938 0.45531 0.0
C969 C 0.54702 0.04937 0.46228 0.0
C970 C 0.57661 0.07152 0.43879 0.0
C971 C 0.54846 0.05427 0.42888 0.0
C972 C 0.51973 0.03391 0.43577 0.0
C973 C 0.51901 0.03142 0.4523 0.0
C974 C 0.54916 0.05721 0.41133 0.0
C975 C 0.53733 0.02795 0.40074 0.0
C976 C 0.56275 0.08857 0.40503 0.0
C977 C 0.57374 0.12045 0.41545 0.0
C978 C 0.55303 0.1255 0.42632 0.0
C979 C 0.56365 0.15541 0.43623 0.0
C980 C 0.59483 0.18062 0.43526 0.0
C981 C 0.61542 0.17602 0.42434 0.0
C982 C 0.60499 0.14609 0.41447 0.0
C983 C 0.5332 0.05069 0.33316 0.0
C984 C 0.56372 0.06818 0.32707 0.0
C985 C 0.52987 0.04842 0.34965 0.0
C986 C 0.55699 0.06345 0.36036 0.0
C987 C 0.58739 0.08129 0.35435 0.0
C988 C 0.59075 0.08354 0.33789 0.0
C989 C 0.55386 0.06048 0.37783 0.0
C990 C 0.56521 0.08973 0.38838 0.0
C991 C 0.53965 0.02916 0.3841 0.0
C992 C 0.52817 0.99735 0.37364 0.0
C993 C 0.54912 0.99111 0.36339 0.0
C994 C 0.53803 0.96117 0.35348 0.0
C995 C 0.5061 0.93716 0.35381 0.0
C996 C 0.48522 0.943 0.36408 0.0
C997 C 0.49617 0.97292 0.374 0.0
H998 H 0.49757 0.91399 0.34613 0.0
H999 H 0.60301 0.20377 0.44292 0.0
H1000 H 0.56618 0.59568 0.79695 0.0
H1001 H 0.56329 0.59951 0.76817 0.0
H1002 H 0.59724 0.52466 0.7594 0.0
H1003 H 0.60186 0.5222 0.78839 0.0
H1004 H 0.62248 0.56846 0.73943 0.0
H1005 H 0.51454 0.50707 0.75492 0.0
H1006 H 0.46743 0.49648 0.77106 0.0
H1007 H 0.46363 0.58371 0.7561 0.0
H1008 H 0.51098 0.59505 0.74 0.0
H1009 H 0.56636 0.53163 0.65678 0.0
H1010 H 0.5728 0.52695 0.68532 0.0
H1011 H 0.55638 0.61317 0.69736 0.0
H1012 H 0.55084 0.6187 0.66893 0.0
H1013 H 0.52109 0.56028 0.71515 0.0
H1014 H 0.63065 0.621 0.69994 0.0
H1015 H 0.67731 0.62969 0.68374 0.0
H1016 H 0.67614 0.53961 0.69787 0.0
H1017 H 0.62916 0.53013 0.71399 0.0
C1018 C 0.57321 0.5802 0.78887 0.0
C1019 C 0.58396 0.55842 0.79484 0.0
C1020 C 0.57135 0.58222 0.77241 0.0
C1021 C 0.57909 0.56162 0.76152 0.0
C1022 C 0.59089 0.54063 0.76752 0.0
C1023 C 0.59353 0.53922 0.78407 0.0
C1024 C 0.57447 0.56183 0.74394 0.0
C1025 C 0.6001 0.56611 0.73411 0.0
C1026 C 0.54539 0.55917 0.73694 0.0
C1027 C 0.51648 0.55204 0.74634 0.0
C1028 C 0.50374 0.52407 0.75512 0.0
C1029 C 0.47699 0.51793 0.76426 0.0
C1030 C 0.46259 0.53944 0.76463 0.0
C1031 C 0.47482 0.56707 0.7558 0.0
C1032 C 0.50159 0.57334 0.74664 0.0
C1033 C 0.56448 0.54986 0.66547 0.0
C1034 C 0.55808 0.57557 0.66049 0.0
C1035 C 0.56803 0.54704 0.68179 0.0
C1036 C 0.56519 0.5698 0.69344 0.0
C1037 C 0.55851 0.59525 0.68855 0.0
C1038 C 0.55519 0.59825 0.67227 0.0
C1039 C 0.56915 0.56719 0.71077 0.0
C1040 C 0.54334 0.56239 0.72051 0.0
C1041 C 0.59784 0.5689 0.71764 0.0
C1042 C 0.62619 0.57468 0.70803 0.0
C1043 C 0.64018 0.6029 0.69949 0.0
C1044 C 0.66672 0.608 0.69034 0.0
C1045 C 0.67963 0.58517 0.68974 0.0
C1046 C 0.66608 0.55724 0.69833 0.0
C1047 C 0.63952 0.55201 0.70748 0.0
H1048 H 0.70017 0.58916 0.68266 0.0
H1049 H 0.44193 0.53468 0.77175 0.0
H1050 H 0.53719 0.98895 0.55975 0.0
H1051 H 0.5386 0.9833 0.58841 0.0
H1052 H 0.55916 0.08673 0.59889 0.0
H1053 H 0.55996 0.09292 0.57009 0.0
H1054 H 0.59259 0.07411 0.61868 0.0
H1055 H 0.48074 0.01699 0.6019 0.0
H1056 H 0.43368 0.97676 0.58489 0.0
H1057 H 0.45055 0.89598 0.59897 0.0
H1058 H 0.49793 0.93577 0.61594 0.0
H1059 H 0.55072 0.05712 0.70041 0.0
H1060 H 0.54935 0.06465 0.67192 0.0
H1061 H 0.55024 0.96996 0.65973 0.0
H1062 H 0.55263 0.9626 0.68816 0.0
H1063 H 0.50451 0.97914 0.64134 0.0
H1064 H 0.61729 0.03862 0.65808 0.0
H1065 H 0.66378 0.08013 0.675 0.0
H1066 H 0.64275 0.15851 0.66119 0.0
H1067 H 0.59584 0.11737 0.64435 0.0
C1068 C 0.54198 1.01044 0.5682 0.0
C1069 C 0.5482 0.0413 0.56278 0.0
C1070 C 0.54257 1.00716 0.58459 0.0
C1071 C 0.54808 0.03433 0.59591 0.0
C1072 C 0.55469 0.06533 0.59045 0.0
C1073 C 0.55507 0.06887 0.57401 0.0
C1074 C 0.54728 0.03045 0.6134 0.0
C1075 C 0.573 0.05364 0.62362 0.0
C1076 C 0.52203 1.00346 0.61994 0.0
C1077 C 0.49301 0.97939 0.61011 0.0
C1078 C 0.47446 0.99065 0.60134 0.0
C1079 C 0.44774 0.96793 0.5917 0.0
C1080 C 0.43918 0.93385 0.59082 0.0
C1081 C 0.45722 0.92239 0.59966 0.0
C1082 C 0.48397 0.94501 0.60931 0.0
C1083 C 0.55097 0.03801 0.6917 0.0
C1084 C 0.55191 1.00928 0.69665 0.0
C1085 C 0.55 0.0423 0.67542 0.0
C1086 C 0.54986 0.01794 0.66373 0.0
C1087 C 0.5502 0.98899 0.66857 0.0
C1088 C 0.55141 0.98478 0.68484 0.0
C1089 C 0.54973 0.02274 0.64646 0.0
C1090 C 0.52387 0.99971 0.63632 0.0
C1091 C 0.57456 0.05012 0.64004 0.0
C1092 C 0.60287 0.07488 0.65009 0.0
C1093 C 0.62242 0.06467 0.65875 0.0
C1094 C 0.64888 0.08814 0.66831 0.0
C1095 C 0.65616 0.12193 0.6692 0.0
C1096 C 0.63705 0.13232 0.6605 0.0
C1097 C 0.61054 0.10895 0.65094 0.0
H1098 H 0.67665 0.14006 0.67661 0.0
H1099 H 0.41854 0.91631 0.58332 0.0
H1100 H 0.61129 0.52251 0.89637 0.0
H1101 H 0.60598 0.51473 0.92496 0.0
H1102 H 0.53096 0.54662 0.92622 0.0
H1103 H 0.53554 0.55362 0.8977 0.0
H1104 H 0.61427 0.55411 0.95122 0.0
H1105 H 0.47585 0.50658 0.95237 0.0
H1106 H 0.42762 0.47481 0.93431 0.0
H1107 H 0.47706 0.42724 0.90771 0.0
H1108 H 0.52541 0.45835 0.92574 0.0
H1109 H 0.57424 0.56183 0.03195 0.0
H1110 H 0.57771 0.5675 1.00326 0.0
H1111 H 0.52714 0.4606 0.99316 0.0
H1112 H 0.52188 0.4548 0.02181 0.0
H1113 H 0.50744 0.48699 0.97224 0.0
H1114 H 0.6112 0.50514 0.99203 0.0
H1115 H 0.66073 0.53094 0.00956 0.0
H1116 H 0.68278 0.62644 0.99341 0.0
H1117 H 0.63313 0.60127 0.97594 0.0
C1118 C 0.59367 0.52787 0.90273 0.0
C1119 C 0.57368 0.53844 0.89466 0.0
C1120 C 0.59069 0.52348 0.91911 0.0
C1121 C 0.56771 0.52957 0.92776 0.0
C1122 C 0.54837 0.54098 0.91979 0.0
C1123 C 0.55113 0.54511 0.90344 0.0
C1124 C 0.56383 0.524 0.94507 0.0
C1125 C 0.5909 0.53944 0.9558 0.0
C1126 C 0.53348 0.50425 0.9511 0.0
C1127 C 0.50435 0.48506 0.94032 0.0
C1128 C 0.47637 0.48923 0.94271 0.0
C1129 C 0.44902 0.47136 0.93247 0.0
C1130 C 0.44931 0.4491 0.91984 0.0
C1131 C 0.47691 0.44457 0.91746 0.0
C1132 C 0.5043 0.46235 0.92768 0.0
C1133 C 0.5632 0.5395 0.02367 0.0
C1134 C 0.54792 0.5078 0.02932 0.0
C1135 C 0.56565 0.54278 0.0072 0.0
C1136 C 0.55335 0.51445 0.99597 0.0
C1137 C 0.53709 0.48288 1.00153 0.0
C1138 C 0.53435 0.47958 0.01798 0.0
C1139 C 0.5578 0.51765 0.97846 0.0
C1140 C 0.53082 0.50173 0.96768 0.0
C1141 C 0.58839 0.53616 0.97233 0.0
C1142 C 0.61829 0.55137 0.9828 0.0
C1143 C 0.62649 0.53168 0.99231 0.0
C1144 C 0.6546 0.54619 1.00222 0.0
C1145 C 0.67484 0.58032 1.00263 0.0
C1146 C 0.66705 0.60001 0.9931 0.0
C1147 C 0.63895 0.58563 0.98318 0.0
H1148 H 0.6966 0.5915 0.01031 0.0
H1149 H 0.42813 0.43531 0.91192 0.0
H1150 H 1.00597 0.46034 0.2165 0.0
H1151 H 1.00118 0.4638 0.24546 0.0
H1152 H 0.09395 0.54953 0.25144 0.0
H1153 H 0.09908 0.54638 0.22234 0.0
H1154 H 0.08428 0.50192 0.27353 0.0
H1155 H 0.03071 0.56272 0.25395 0.0
H1156 H 0.99248 0.57071 0.23631 0.0
H1157 H 0.91383 0.48761 0.25396 0.0
H1158 H 0.95166 0.4788 0.27154 0.0
H1159 H 0.06644 0.54465 0.35508 0.0
H1160 H 0.07566 0.54713 0.32649 0.0
H1161 H 0.97833 0.47169 0.31533 0.0
H1162 H 0.96835 0.4704 0.34385 0.0
H1163 H 0.99274 0.51775 0.29574 0.0
H1164 H 0.04441 0.45404 0.3139 0.0
H1165 H 0.08138 0.4428 0.33089 0.0
H1166 H 0.16187 0.52748 0.31552 0.0
H1167 H 0.1253 0.53948 0.29859 0.0
C1168 C 0.02554 0.47985 0.22392 0.0
C1169 C 0.05289 0.50318 0.21705 0.0
C1170 C 0.02266 0.48184 0.24049 0.0
C1171 C 0.04705 0.50713 0.25055 0.0
C1172 C 0.07482 0.52989 0.24384 0.0
C1173 C 0.07765 0.52809 0.22721 0.0
C1174 C 0.04308 0.50997 0.26805 0.0
C1175 C 0.06461 0.50594 0.27845 0.0
C1176 C 1.01693 0.5144 0.27436 0.0
C1177 C 0.99407 0.51994 0.26397 0.0
C1178 C 1.00529 0.54601 0.25399 0.0
C1179 C 0.98369 0.5507 0.24401 0.0
C1180 C 0.95076 0.52964 0.24399 0.0
C1181 C 0.93935 0.50389 0.25398 0.0
C1182 C 0.96086 0.49906 0.26397 0.0
C1183 C 0.04682 0.52892 0.34656 0.0
C1184 C 1.01667 0.50719 0.35182 0.0
C1185 C 0.05227 0.53008 0.33019 0.0
C1186 C 0.02787 0.50919 0.31873 0.0
C1187 C 0.9976 0.48793 0.32393 0.0
C1188 C 0.99204 0.48696 0.34028 0.0
C1189 C 0.03376 0.50933 0.30133 0.0
C1190 C 1.01258 0.51395 0.2909 0.0
C1191 C 0.06005 0.50507 0.29498 0.0
C1192 C 0.08209 0.49787 0.30512 0.0
C1193 C 0.06997 0.47042 0.31424 0.0
C1194 C 0.09085 0.46388 0.32384 0.0
C1195 C 0.12394 0.48447 0.32432 0.0
C1196 C 0.13623 0.51159 0.31516 0.0
C1197 C 0.11543 0.51826 0.30555 0.0
H1198 H 0.14008 0.47937 0.33175 0.0
H1199 H 0.93407 0.5333 0.23625 0.0
loop_
_geom_bond_atom_site_label_1
_geom_bond_atom_site_label_2
_geom_bond_distance
_geom_bond_site_symmetry_2
_ccdc_geom_bond_type
Tb0 O3 2.453 1_455 S
Tb0 O4 2.596 1_455 S
Tb0 O5 2.374 . S
Tb0 O13 2.343 . S
Tb0 O15 2.353 . S
Tb0 O17 2.427 . S
Tb0 O18 2.513 . S
C1 O5 1.251 . S
C1 O7 1.263 . S
Tb2 O4 2.343 1_455 S
Tb2 O7 2.353 . S
Tb2 O10 2.427 1_455 S
Tb2 O11 2.513 1_455 S
Tb2 O12 2.453 . S
Tb2 O13 2.596 . S
Tb2 O14 2.374 . S
O3 Tb0 2.453 1_655 S
O3 C19 1.245 . S
O4 Tb0 2.596 1_655 S
O4 Tb2 2.343 1_655 S
O4 C19 1.259 . S
O5 Tb0 2.374 . S
O5 C1 1.251 . S
C6 O10 1.275 . S
C6 O11 1.246 . S
O7 C1 1.263 . S
O7 Tb2 2.353 . S
C8 O12 1.245 . S
C8 O13 1.259 . S
C9 O14 1.250 . S
C9 O15 1.263 . S
O10 Tb2 2.427 1_655 S
O10 C6 1.275 . S
O11 Tb2 2.513 1_655 S
O11 C6 1.246 . S
O12 Tb2 2.453 . S
O12 C8 1.245 . S
O13 Tb0 2.343 . S
O13 Tb2 2.596 . S
O13 C8 1.259 . S
O14 Tb2 2.374 . S
O14 C9 1.250 . S
O15 Tb0 2.353 . S
O15 C9 1.263 . S
C16 O17 1.275 . S
C16 O18 1.246 . S
O17 Tb0 2.427 . S
O17 C16 1.275 . S
O18 Tb0 2.513 . S
O18 C16 1.246 . S
C19 O3 1.245 . S
C19 O4 1.259 . S
Tb20 O23 2.453 . S
Tb20 O24 2.596 . S
Tb20 O25 2.374 . S
Tb20 O33 2.343 1_545 S
Tb20 O35 2.353 . S
Tb20 O37 2.427 1_545 S
Tb20 O38 2.513 1_545 S
C21 O25 1.251 . S
C21 O27 1.263 . S
Tb22 O24 2.343 . S
Tb22 O27 2.353 . S
Tb22 O30 2.427 . S
Tb22 O31 2.513 . S
Tb22 O32 2.453 1_545 S
Tb22 O33 2.596 1_545 S
Tb22 O34 2.374 . S
O23 Tb20 2.453 . S
O23 C39 1.245 . S
O24 Tb20 2.596 . S
O24 Tb22 2.343 . S
O24 C39 1.259 . S
O25 Tb20 2.374 . S
O25 C21 1.251 . S
C26 O30 1.275 . S
C26 O31 1.246 . S
O27 C21 1.263 . S
O27 Tb22 2.353 . S
C28 O32 1.245 . S
C28 O33 1.259 . S
C29 O34 1.250 . S
C29 O35 1.263 . S
O30 Tb22 2.427 . S
O30 C26 1.275 . S
O31 Tb22 2.513 . S
O31 C26 1.246 . S
O32 Tb22 2.453 1_565 S
O32 C28 1.245 . S
O33 Tb20 2.343 1_565 S
O33 Tb22 2.596 1_565 S
O33 C28 1.259 . S
O34 Tb22 2.374 . S
O34 C29 1.250 . S
O35 Tb20 2.353 . S
O35 C29 1.263 . S
C36 O37 1.275 . S
C36 O38 1.246 . S
O37 Tb20 2.427 1_565 S
O37 C36 1.275 . S
O38 Tb20 2.513 1_565 S
O38 C36 1.246 . S
C39 O23 1.245 . S
C39 O24 1.259 . S
Tb40 O43 2.453 . S
Tb40 O44 2.596 . S
Tb40 O45 2.374 . S
Tb40 O53 2.343 . S
Tb40 O55 2.353 . S
Tb40 O57 2.427 . S
Tb40 O58 2.513 . S
C41 O45 1.251 . S
C41 O47 1.263 . S
Tb42 O44 2.343 . S
Tb42 O47 2.353 . S
Tb42 O50 2.427 . S
Tb42 O51 2.513 . S
Tb42 O52 2.453 . S
Tb42 O53 2.596 . S
Tb42 O54 2.374 . S
O43 Tb40 2.453 . S
O43 C59 1.245 . S
O44 Tb40 2.596 . S
O44 Tb42 2.343 . S
O44 C59 1.259 . S
O45 Tb40 2.374 . S
O45 C41 1.251 . S
C46 O50 1.275 . S
C46 O51 1.246 . S
O47 C41 1.263 . S
O47 Tb42 2.353 . S
C48 O52 1.245 . S
C48 O53 1.259 . S
C49 O54 1.250 . S
C49 O55 1.263 . S
O50 Tb42 2.427 . S
O50 C46 1.275 . S
O51 Tb42 2.513 . S
O51 C46 1.246 . S
O52 Tb42 2.453 . S
O52 C48 1.245 . S
O53 Tb40 2.343 . S
O53 Tb42 2.596 . S
O53 C48 1.259 . S
O54 Tb42 2.374 . S
O54 C49 1.250 . S
O55 Tb40 2.353 . S
O55 C49 1.263 . S
C56 O57 1.275 . S
C56 O58 1.246 . S
O57 Tb40 2.427 . S
O57 C56 1.275 . S
O58 Tb40 2.513 . S
O58 C56 1.246 . S
C59 O43 1.245 . S
C59 O44 1.259 . S
C60 C61 1.264 . S
C60 C65 1.479 . S
C60 C70 1.465 . S
C61 C60 1.264 . S
C61 C63 1.339 . S
C61 H88 0.931 . S
C62 C63 1.395 . S
C62 C64 1.320 . S
C63 C61 1.339 . S
C63 C62 1.395 . S
C63 H89 0.929 . S
C64 C62 1.320 . S
C64 C65 1.405 . S
C64 H90 0.930 . S
C65 C60 1.479 . S
C65 C64 1.405 . S
C65 H91 0.931 . S
U66 O67 2.454 . S
U66 O68 2.458 1_545 S
U66 C69 2.984 1_545 S
U66 C70 2.847 . S
U66 C83 2.882 . S
U66 O84 2.441 . S
U66 O85 2.420 . S
U66 O86 2.455 . S
U66 O87 2.449 . S
O67 U66 2.454 . S
O67 C69 1.353 1_545 S
O68 U66 2.458 1_565 S
O68 C69 1.286 . S
C69 U66 2.984 1_565 S
C69 O67 1.353 1_565 S
C69 O68 1.286 . S
C69 C71 1.363 . S
C70 C60 1.465 . S
C70 U66 2.847 . S
C70 O84 1.249 . S
C70 O85 1.202 . S
C71 C69 1.363 . S
C71 C73 1.408 . S
C71 C76 1.342 . S
C72 C73 1.310 . S
C72 C75 1.461 . S
C72 H92 0.932 . S
C73 C71 1.408 . S
C73 C72 1.310 . S
C73 H93 0.930 . S
C74 C75 1.474 . S
C74 C76 1.285 . S
C74 H94 0.929 . S
C75 C72 1.461 . S
C75 C74 1.474 . S
C76 C71 1.342 . S
C76 C74 1.285 . S
C76 H95 0.930 . S
C77 C80 1.424 . S
C77 C82 1.245 . S
C77 C83 1.428 . S
C78 C81 1.260 . S
C78 C82 1.477 . S
C78 H96 0.932 . S
C79 C80 1.384 . S
C79 C81 1.479 . S
C79 H97 0.929 . S
C80 C77 1.424 . S
C80 C79 1.384 . S
C80 H98 0.928 . S
C81 C78 1.260 . S
C81 C79 1.479 . S
C82 C77 1.245 . S
C82 C78 1.477 . S
C82 H99 0.932 . S
C83 U66 2.882 . S
C83 C77 1.428 . S
C83 O86 1.301 . S
C83 O87 1.282 . S
O84 U66 2.441 . S
O84 C70 1.249 . S
O85 U66 2.420 . S
O85 C70 1.202 . S
O86 U66 2.455 . S
O86 C83 1.301 . S
O87 U66 2.449 . S
O87 C83 1.282 . S
H88 C61 0.931 . S
H89 C63 0.929 . S
H90 C64 0.930 . S
H91 C65 0.931 . S
H92 C72 0.932 . S
H93 C73 0.930 . S
H94 C74 0.929 . S
H95 C76 0.930 . S
H96 C78 0.932 . S
H97 C79 0.929 . S
H98 C80 0.928 . S
H99 C82 0.932 . S
C100 C101 1.264 . S
C100 C105 1.479 . S
C100 C110 1.465 . S
C101 C100 1.264 . S
C101 C103 1.339 . S
C101 H128 0.931 . S
C102 C103 1.395 . S
C102 C104 1.320 . S
C103 C101 1.339 . S
C103 C102 1.395 . S
C103 H129 0.929 . S
C104 C102 1.320 . S
C104 C105 1.405 . S
C104 H130 0.930 . S
C105 C100 1.479 . S
C105 C104 1.405 . S
C105 H131 0.931 . S
U106 O107 2.454 . S
U106 O108 2.458 . S
U106 C109 2.984 . S
U106 C110 2.847 . S
U106 C123 2.882 . S
U106 O124 2.441 . S
U106 O125 2.420 . S
U106 O126 2.455 . S
U106 O127 2.449 . S
O107 U106 2.454 . S
O107 C109 1.353 . S
O108 U106 2.458 . S
O108 C109 1.286 . S
C109 U106 2.984 . S
C109 O107 1.353 . S
C109 O108 1.286 . S
C109 C111 1.363 . S
C110 C100 1.465 . S
C110 U106 2.847 . S
C110 O124 1.249 . S
C110 O125 1.202 . S
C111 C109 1.363 . S
C111 C113 1.408 . S
C111 C116 1.342 . S
C112 C113 1.310 . S
C112 C115 1.461 . S
C112 H132 0.932 . S
C113 C111 1.408 . S
C113 C112 1.310 . S
C113 H133 0.930 . S
C114 C115 1.474 . S
C114 C116 1.285 . S
C114 H134 0.929 . S
C115 C112 1.461 . S
C115 C114 1.474 . S
C116 C111 1.342 . S
C116 C114 1.285 . S
C116 H135 0.930 . S
C117 C120 1.424 . S
C117 C122 1.245 . S
C117 C123 1.428 . S
C118 C121 1.260 . S
C118 C122 1.477 . S
C118 H136 0.932 . S
C119 C120 1.384 . S
C119 C121 1.479 . S
C119 H137 0.929 . S
C120 C117 1.424 . S
C120 C119 1.384 . S
C120 H138 0.928 . S
C121 C118 1.260 . S
C121 C119 1.479 . S
C122 C117 1.245 . S
C122 C118 1.477 . S
C122 H139 0.932 . S
C123 U106 2.882 . S
C123 C117 1.428 . S
C123 O126 1.301 . S
C123 O127 1.282 . S
O124 U106 2.441 . S
O124 C110 1.249 . S
O125 U106 2.420 . S
O125 C110 1.202 . S
O126 U106 2.455 . S
O126 C123 1.301 . S
O127 U106 2.449 . S
O127 C123 1.282 . S
H128 C101 0.931 . S
H129 C103 0.929 . S
H130 C104 0.930 . S
H131 C105 0.931 . S
H132 C112 0.932 . S
H133 C113 0.930 . S
H134 C114 0.929 . S
H135 C116 0.930 . S
H136 C118 0.932 . S
H137 C119 0.929 . S
H138 C120 0.928 . S
H139 C122 0.932 . S
C140 C141 1.264 . S
C140 C145 1.479 . S
C140 C150 1.465 1_655 S
C141 C140 1.264 . S
C141 C143 1.339 . S
C141 H168 0.931 . S
C142 C143 1.395 . S
C142 C144 1.320 . S
C143 C141 1.339 . S
C143 C142 1.395 . S
C143 H169 0.929 . S
C144 C142 1.320 . S
C144 C145 1.405 . S
C144 H170 0.930 . S
C145 C140 1.479 . S
C145 C144 1.405 . S
C145 H171 0.931 1_655 S
U146 O147 2.454 . S
U146 O148 2.458 . S
U146 C149 2.984 . S
U146 C150 2.847 . S
U146 C163 2.882 . S
U146 O164 2.441 . S
U146 O165 2.420 . S
U146 O166 2.455 . S
U146 O167 2.449 . S
O147 U146 2.454 . S
O147 C149 1.353 . S
O148 U146 2.458 . S
O148 C149 1.286 . S
C149 U146 2.984 . S
C149 O147 1.353 . S
C149 O148 1.286 . S
C149 C151 1.363 . S
C150 C140 1.465 1_455 S
C150 U146 2.847 . S
C150 O164 1.249 . S
C150 O165 1.202 . S
C151 C149 1.363 . S
C151 C153 1.408 . S
C151 C156 1.342 . S
C152 C153 1.310 . S
C152 C155 1.461 . S
C152 H172 0.932 . S
C153 C151 1.408 . S
C153 C152 1.310 . S
C153 H173 0.930 . S
C154 C155 1.474 . S
C154 C156 1.285 . S
C154 H174 0.929 . S
C155 C152 1.461 . S
C155 C154 1.474 . S
C156 C151 1.342 . S
C156 C154 1.285 . S
C156 H175 0.930 . S
C157 C160 1.424 . S
C157 C162 1.245 . S
C157 C163 1.428 . S
C158 C161 1.260 . S
C158 C162 1.477 . S
C158 H176 0.932 . S
C159 C160 1.384 . S
C159 C161 1.479 . S
C159 H177 0.929 . S
C160 C157 1.424 . S
C160 C159 1.384 . S
C160 H178 0.928 . S
C161 C158 1.260 . S
C161 C159 1.479 . S
C162 C157 1.245 . S
C162 C158 1.477 . S
C162 H179 0.932 . S
C163 U146 2.882 . S
C163 C157 1.428 . S
C163 O166 1.301 . S
C163 O167 1.282 . S
O164 U146 2.441 . S
O164 C150 1.249 . S
O165 U146 2.420 . S
O165 C150 1.202 . S
O166 U146 2.455 . S
O166 C163 1.301 . S
O167 U146 2.449 . S
O167 C163 1.282 . S
H168 C141 0.931 . S
H169 C143 0.929 . S
H170 C144 0.930 . S
H171 C145 0.931 1_455 S
H172 C152 0.932 . S
H173 C153 0.930 . S
H174 C154 0.929 . S
H175 C156 0.930 . S
H176 C158 0.932 . S
H177 C159 0.929 . S
H178 C160 0.928 . S
H179 C162 0.932 . S
C180 C181 1.264 . S
C180 C185 1.479 . S
C180 C190 1.465 . S
C181 C180 1.264 . S
C181 C183 1.339 . S
C181 H208 0.931 . S
C182 C183 1.395 . S
C182 C184 1.320 . S
C183 C181 1.339 . S
C183 C182 1.395 . S
C183 H209 0.929 . S
C184 C182 1.320 . S
C184 C185 1.405 . S
C184 H210 0.930 . S
C185 C180 1.479 . S
C185 C184 1.405 . S
C185 H211 0.931 . S
U186 O187 2.454 1_655 S
U186 O188 2.458 1_655 S
U186 C189 2.984 1_655 S
U186 C190 2.847 . S
U186 C203 2.882 . S
U186 O204 2.441 . S
U186 O205 2.420 . S
U186 O206 2.455 1_655 S
U186 O207 2.449 . S
O187 U186 2.454 1_455 S
O187 C189 1.353 . S
O188 U186 2.458 1_455 S
O188 C189 1.286 . S
C189 U186 2.984 1_455 S
C189 O187 1.353 . S
C189 O188 1.286 . S
C189 C191 1.363 . S
C190 C180 1.465 . S
C190 U186 2.847 . S
C190 O204 1.249 . S
C190 O205 1.202 . S
C191 C189 1.363 . S
C191 C193 1.408 . S
C191 C196 1.342 . S
C192 C193 1.310 . S
C192 C195 1.461 . S
C192 H212 0.932 . S
C193 C191 1.408 . S
C193 C192 1.310 . S
C193 H213 0.930 . S
C194 C195 1.474 . S
C194 C196 1.285 . S
C194 H214 0.929 . S
C195 C192 1.461 . S
C195 C194 1.474 . S
C196 C191 1.342 . S
C196 C194 1.285 . S
C196 H215 0.930 . S
C197 C200 1.424 . S
C197 C202 1.245 1_655 S
C197 C203 1.428 . S
C198 C201 1.260 1_455 S
C198 C202 1.477 . S
C198 H216 0.932 . S
C199 C200 1.384 . S
C199 C201 1.479 . S
C199 H217 0.929 . S
C200 C197 1.424 . S
C200 C199 1.384 . S
C200 H218 0.928 . S
C201 C198 1.260 1_655 S
C201 C199 1.479 . S
C202 C197 1.245 1_455 S
C202 C198 1.477 . S
C202 H219 0.932 . S
C203 U186 2.882 . S
C203 C197 1.428 . S
C203 O206 1.301 1_655 S
C203 O207 1.282 . S
O204 U186 2.441 . S
O204 C190 1.249 . S
O205 U186 2.420 . S
O205 C190 1.202 . S
O206 U186 2.455 1_455 S
O206 C203 1.301 1_455 S
O207 U186 2.449 . S
O207 C203 1.282 . S
H208 C181 0.931 . S
H209 C183 0.929 . S
H210 C184 0.930 . S
H211 C185 0.931 . S
H212 C192 0.932 . S
H213 C193 0.930 . S
H214 C194 0.929 . S
H215 C196 0.930 . S
H216 C198 0.932 . S
H217 C199 0.929 . S
H218 C200 0.928 . S
H219 C202 0.932 . S
C220 C221 1.264 . S
C220 C225 1.479 . S
C220 C230 1.465 . S
C221 C220 1.264 . S
C221 C223 1.339 . S
C221 H248 0.931 . S
C222 C223 1.395 . S
C222 C224 1.320 . S
C223 C221 1.339 . S
C223 C222 1.395 . S
C223 H249 0.929 . S
C224 C222 1.320 . S
C224 C225 1.405 . S
C224 H250 0.930 . S
C225 C220 1.479 . S
C225 C224 1.405 . S
C225 H251 0.931 . S
U226 O227 2.454 . S
U226 O228 2.458 . S
U226 C229 2.984 . S
U226 C230 2.847 1_545 S
U226 C243 2.882 . S
U226 O244 2.441 1_545 S
U226 O245 2.420 1_545 S
U226 O246 2.455 . S
U226 O247 2.449 1_545 S
O227 U226 2.454 . S
O227 C229 1.353 . S
O228 U226 2.458 . S
O228 C229 1.286 . S
C229 U226 2.984 . S
C229 O227 1.353 . S
C229 O228 1.286 . S
C229 C231 1.363 . S
C230 C220 1.465 . S
C230 U226 2.847 1_565 S
C230 O244 1.249 . S
C230 O245 1.202 . S
C231 C229 1.363 . S
C231 C233 1.408 . S
C231 C236 1.342 . S
C232 C233 1.310 . S
C232 C235 1.461 . S
C232 H252 0.932 . S
C233 C231 1.408 . S
C233 C232 1.310 . S
C233 H253 0.930 . S
C234 C235 1.474 . S
C234 C236 1.285 . S
C234 H254 0.929 . S
C235 C232 1.461 . S
C235 C234 1.474 . S
C236 C231 1.342 . S
C236 C234 1.285 . S
C236 H255 0.930 . S
C237 C240 1.424 1_545 S
C237 C242 1.245 . S
C237 C243 1.428 . S
C238 C241 1.260 . S
C238 C242 1.477 . S
C238 H256 0.932 . S
C239 C240 1.384 . S
C239 C241 1.479 1_565 S
C239 H257 0.929 . S
C240 C237 1.424 1_565 S
C240 C239 1.384 . S
C240 H258 0.928 . S
C241 C238 1.260 . S
C241 C239 1.479 1_545 S
C242 C237 1.245 . S
C242 C238 1.477 . S
C242 H259 0.932 . S
C243 U226 2.882 . S
C243 C237 1.428 . S
C243 O246 1.301 . S
C243 O247 1.282 1_545 S
O244 U226 2.441 1_565 S
O244 C230 1.249 . S
O245 U226 2.420 1_565 S
O245 C230 1.202 . S
O246 U226 2.455 . S
O246 C243 1.301 . S
O247 U226 2.449 1_565 S
O247 C243 1.282 1_565 S
H248 C221 0.931 . S
H249 C223 0.929 . S
H250 C224 0.930 . S
H251 C225 0.931 . S
H252 C232 0.932 . S
H253 C233 0.930 . S
H254 C234 0.929 . S
H255 C236 0.930 . S
H256 C238 0.932 . S
H257 C239 0.929 . S
H258 C240 0.928 . S
H259 C242 0.932 . S
C260 C261 1.264 . S
C260 C265 1.479 . S
C260 C270 1.465 . S
C261 C260 1.264 . S
C261 C263 1.339 . S
C261 H288 0.931 . S
C262 C263 1.395 . S
C262 C264 1.320 . S
C263 C261 1.339 . S
C263 C262 1.395 . S
C263 H289 0.929 . S
C264 C262 1.320 . S
C264 C265 1.405 . S
C264 H290 0.930 . S
C265 C260 1.479 . S
C265 C264 1.405 . S
C265 H291 0.931 . S
U266 O267 2.454 . S
U266 O268 2.458 . S
U266 C269 2.984 . S
U266 C270 2.847 . S
U266 C283 2.882 . S
U266 O284 2.441 . S
U266 O285 2.420 . S
U266 O286 2.455 . S
U266 O287 2.449 . S
O267 U266 2.454 . S
O267 C269 1.353 . S
O268 U266 2.458 . S
O268 C269 1.286 . S
C269 U266 2.984 . S
C269 O267 1.353 . S
C269 O268 1.286 . S
C269 C271 1.363 . S
C270 C260 1.465 . S
C270 U266 2.847 . S
C270 O284 1.249 . S
C270 O285 1.202 . S
C271 C269 1.363 . S
C271 C273 1.408 . S
C271 C276 1.342 . S
C272 C273 1.310 . S
C272 C275 1.461 . S
C272 H292 0.932 . S
C273 C271 1.408 . S
C273 C272 1.310 . S
C273 H293 0.930 . S
C274 C275 1.474 . S
C274 C276 1.285 . S
C274 H294 0.929 . S
C275 C272 1.461 . S
C275 C274 1.474 . S
C276 C271 1.342 . S
C276 C274 1.285 . S
C276 H295 0.930 . S
C277 C280 1.424 . S
C277 C282 1.245 . S
C277 C283 1.428 . S
C278 C281 1.260 . S
C278 C282 1.477 . S
C278 H296 0.932 . S
C279 C280 1.384 . S
C279 C281 1.479 . S
C279 H297 0.929 . S
C280 C277 1.424 . S
C280 C279 1.384 . S
C280 H298 0.928 . S
C281 C278 1.260 . S
C281 C279 1.479 . S
C282 C277 1.245 . S
C282 C278 1.477 . S
C282 H299 0.932 . S
C283 U266 2.882 . S
C283 C277 1.428 . S
C283 O286 1.301 . S
C283 O287 1.282 . S
O284 U266 2.441 . S
O284 C270 1.249 . S
O285 U266 2.420 . S
O285 C270 1.202 . S
O286 U266 2.455 . S
O286 C283 1.301 . S
O287 U266 2.449 . S
O287 C283 1.282 . S
H288 C261 0.931 . S
H289 C263 0.929 . S
H290 C264 0.930 . S
H291 C265 0.931 . S
H292 C272 0.932 . S
H293 C273 0.930 . S
H294 C274 0.929 . S
H295 C276 0.930 . S
H296 C278 0.932 . S
H297 C279 0.929 . S
H298 C280 0.928 . S
H299 C282 0.932 . S
H300 C318 0.951 . S
H301 C320 0.951 . S
H302 C322 0.950 . S
H303 C323 0.950 . S
H304 C325 0.950 . S
H305 C328 0.950 . S
H306 C329 0.950 . S
H307 C331 0.950 . S
H308 C332 0.950 . S
H309 C333 0.951 . S
H310 C335 0.951 . S
H311 C337 0.950 . S
H312 C338 0.950 . S
H313 C340 0.950 . S
H314 C343 0.950 . S
H315 C344 0.950 . S
H316 C346 0.950 . S
H317 C347 0.950 . S
C318 H300 0.951 . S
C318 C319 1.366 . S
C318 C320 1.388 . S
C319 C318 1.366 . S
C319 C323 1.385 . S
C320 H301 0.951 . S
C320 C318 1.388 . S
C320 C321 1.366 . S
C321 C320 1.366 . S
C321 C322 1.414 . S
C321 C324 1.499 . S
C322 H302 0.950 . S
C322 C321 1.414 . S
C322 C323 1.374 . S
C323 H303 0.950 . S
C323 C319 1.385 . S
C323 C322 1.374 . S
C324 C321 1.499 . S
C324 C325 1.373 . S
C324 C326 1.389 . S
C325 H304 0.950 . S
C325 C324 1.373 . S
C325 C341 1.377 . S
C326 C324 1.389 . S
C326 C327 1.524 . S
C326 C340 1.377 . S
C327 C326 1.524 . S
C327 C328 1.397 . S
C327 C332 1.363 . S
C328 H305 0.950 . S
C328 C327 1.397 . S
C328 C329 1.334 . S
C329 H306 0.950 . S
C329 C328 1.334 . S
C329 C330 1.287 . S
C330 C329 1.287 . S
C330 C331 1.524 . S
C330 H349 0.913 . S
C331 H307 0.950 . S
C331 C330 1.524 . S
C331 C332 1.415 . S
C332 H308 0.950 . S
C332 C327 1.363 . S
C332 C331 1.415 . S
C333 H309 0.951 . S
C333 C334 1.366 . S
C333 C335 1.388 . S
C334 C333 1.366 . S
C334 C338 1.385 . S
C335 H310 0.951 . S
C335 C333 1.388 . S
C335 C336 1.366 . S
C336 C335 1.366 . S
C336 C337 1.414 . S
C336 C339 1.499 . S
C337 H311 0.950 . S
C337 C336 1.414 . S
C337 C338 1.374 . S
C338 H312 0.950 . S
C338 C334 1.385 . S
C338 C337 1.374 . S
C339 C336 1.499 . S
C339 C340 1.373 . S
C339 C341 1.389 . S
C340 H313 0.950 . S
C340 C326 1.377 . S
C340 C339 1.373 . S
C341 C325 1.377 . S
C341 C339 1.389 . S
C341 C342 1.524 . S
C342 C341 1.524 . S
C342 C343 1.397 . S
C342 C347 1.363 . S
C343 H314 0.950 . S
C343 C342 1.397 . S
C343 C344 1.334 . S
C344 H315 0.950 . S
C344 C343 1.334 . S
C344 C345 1.287 . S
C345 C344 1.287 . S
C345 C346 1.524 . S
C345 H348 0.999 . S
C346 H316 0.950 . S
C346 C345 1.524 . S
C346 C347 1.415 . S
C347 H317 0.950 . S
C347 C342 1.363 . S
C347 C346 1.415 . S
H348 C345 0.999 . S
H349 C330 0.913 . S
H350 C368 0.951 . S
H351 C370 0.951 . S
H352 C372 0.950 . S
H353 C373 0.950 . S
H354 C375 0.950 . S
H355 C378 0.950 . S
H356 C379 0.950 . S
H357 C381 0.950 . S
H358 C382 0.950 . S
H359 C383 0.951 . S
H360 C385 0.951 . S
H361 C387 0.950 . S
H362 C388 0.950 . S
H363 C390 0.950 . S
H364 C393 0.950 . S
H365 C394 0.950 . S
H366 C396 0.950 . S
H367 C397 0.950 . S
C368 H350 0.951 . S
C368 C369 1.366 . S
C368 C370 1.388 . S
C369 C368 1.366 . S
C369 C373 1.385 . S
C370 H351 0.951 . S
C370 C368 1.388 . S
C370 C371 1.366 . S
C371 C370 1.366 . S
C371 C372 1.414 . S
C371 C374 1.499 . S
C372 H352 0.950 . S
C372 C371 1.414 . S
C372 C373 1.374 . S
C373 H353 0.950 . S
C373 C369 1.385 . S
C373 C372 1.374 . S
C374 C371 1.499 . S
C374 C375 1.373 . S
C374 C376 1.389 . S
C375 H354 0.950 . S
C375 C374 1.373 . S
C375 C391 1.377 . S
C376 C374 1.389 . S
C376 C377 1.524 . S
C376 C390 1.377 . S
C377 C376 1.524 . S
C377 C378 1.397 . S
C377 C382 1.363 . S
C378 H355 0.950 . S
C378 C377 1.397 . S
C378 C379 1.334 . S
C379 H356 0.950 . S
C379 C378 1.334 . S
C379 C380 1.287 . S
C380 C379 1.287 . S
C380 C381 1.524 . S
C380 H399 0.913 . S
C381 H357 0.950 . S
C381 C380 1.524 . S
C381 C382 1.415 . S
C382 H358 0.950 . S
C382 C377 1.363 . S
C382 C381 1.415 . S
C383 H359 0.951 . S
C383 C384 1.366 . S
C383 C385 1.388 . S
C384 C383 1.366 . S
C384 C388 1.385 . S
C385 H360 0.951 . S
C385 C383 1.388 . S
C385 C386 1.366 . S
C386 C385 1.366 . S
C386 C387 1.414 . S
C386 C389 1.499 . S
C387 H361 0.950 . S
C387 C386 1.414 . S
C387 C388 1.374 . S
C388 H362 0.950 . S
C388 C384 1.385 . S
C388 C387 1.374 . S
C389 C386 1.499 . S
C389 C390 1.373 . S
C389 C391 1.389 . S
C390 H363 0.950 . S
C390 C376 1.377 . S
C390 C389 1.373 . S
C391 C375 1.377 . S
C391 C389 1.389 . S
C391 C392 1.524 . S
C392 C391 1.524 . S
C392 C393 1.397 . S
C392 C397 1.363 . S
C393 H364 0.950 . S
C393 C392 1.397 . S
C393 C394 1.334 . S
C394 H365 0.950 . S
C394 C393 1.334 . S
C394 C395 1.287 . S
C395 C394 1.287 . S
C395 C396 1.524 . S
C395 H398 0.999 . S
C396 H366 0.950 . S
C396 C395 1.524 . S
C396 C397 1.415 . S
C397 H367 0.950 . S
C397 C392 1.363 . S
C397 C396 1.415 . S
H398 C395 0.999 . S
H399 C380 0.913 . S
H400 C418 0.951 . S
H401 C420 0.951 . S
H402 C422 0.950 . S
H403 C423 0.950 . S
H404 C425 0.950 . S
H405 C428 0.950 . S
H406 C429 0.950 . S
H407 C431 0.950 . S
H408 C432 0.950 . S
H409 C433 0.951 . S
H410 C435 0.951 . S
H411 C437 0.950 . S
H412 C438 0.950 . S
H413 C440 0.950 . S
H414 C443 0.950 . S
H415 C444 0.950 . S
H416 C446 0.950 . S
H417 C447 0.950 . S
C418 H400 0.951 . S
C418 C419 1.366 . S
C418 C420 1.388 . S
C419 C418 1.366 . S
C419 C423 1.385 . S
C420 H401 0.951 . S
C420 C418 1.388 . S
C420 C421 1.366 . S
C421 C420 1.366 . S
C421 C422 1.414 . S
C421 C424 1.499 . S
C422 H402 0.950 . S
C422 C421 1.414 . S
C422 C423 1.374 . S
C423 H403 0.950 . S
C423 C419 1.385 . S
C423 C422 1.374 . S
C424 C421 1.499 . S
C424 C425 1.373 . S
C424 C426 1.389 . S
C425 H404 0.950 . S
C425 C424 1.373 . S
C425 C441 1.377 . S
C426 C424 1.389 . S
C426 C427 1.524 . S
C426 C440 1.377 . S
C427 C426 1.524 . S
C427 C428 1.397 . S
C427 C432 1.363 . S
C428 H405 0.950 . S
C428 C427 1.397 . S
C428 C429 1.334 . S
C429 H406 0.950 . S
C429 C428 1.334 . S
C429 C430 1.287 . S
C430 C429 1.287 . S
C430 C431 1.524 . S
C430 H449 0.913 . S
C431 H407 0.950 . S
C431 C430 1.524 . S
C431 C432 1.415 . S
C432 H408 0.950 . S
C432 C427 1.363 . S
C432 C431 1.415 . S
C433 H409 0.951 . S
C433 C434 1.366 . S
C433 C435 1.388 . S
C434 C433 1.366 . S
C434 C438 1.385 . S
C435 H410 0.951 . S
C435 C433 1.388 . S
C435 C436 1.366 . S
C436 C435 1.366 . S
C436 C437 1.414 . S
C436 C439 1.499 . S
C437 H411 0.950 . S
C437 C436 1.414 . S
C437 C438 1.374 . S
C438 H412 0.950 . S
C438 C434 1.385 . S
C438 C437 1.374 . S
C439 C436 1.499 . S
C439 C440 1.373 . S
C439 C441 1.389 . S
C440 H413 0.950 . S
C440 C426 1.377 . S
C440 C439 1.373 . S
C441 C425 1.377 . S
C441 C439 1.389 . S
C441 C442 1.524 . S
C442 C441 1.524 . S
C442 C443 1.397 . S
C442 C447 1.363 . S
C443 H414 0.950 . S
C443 C442 1.397 . S
C443 C444 1.334 . S
C444 H415 0.950 . S
C444 C443 1.334 . S
C444 C445 1.287 . S
C445 C444 1.287 . S
C445 C446 1.524 . S
C445 H448 0.999 . S
C446 H416 0.950 . S
C446 C445 1.524 . S
C446 C447 1.415 . S
C447 H417 0.950 . S
C447 C442 1.363 . S
C447 C446 1.415 . S
H448 C445 0.999 . S
H449 C430 0.913 . S
H450 C468 0.951 . S
H451 C470 0.951 . S
H452 C472 0.950 . S
H453 C473 0.950 . S
H454 C475 0.950 . S
H455 C478 0.950 . S
H456 C479 0.950 . S
H457 C481 0.950 . S
H458 C482 0.950 . S
H459 C483 0.951 . S
H460 C485 0.951 . S
H461 C487 0.950 . S
H462 C488 0.950 . S
H463 C490 0.950 . S
H464 C493 0.950 . S
H465 C494 0.950 . S
H466 C496 0.950 . S
H467 C497 0.950 . S
C468 H450 0.951 . S
C468 C469 1.366 . S
C468 C470 1.388 . S
C469 C468 1.366 . S
C469 C473 1.385 . S
C470 H451 0.951 . S
C470 C468 1.388 . S
C470 C471 1.366 . S
C471 C470 1.366 . S
C471 C472 1.414 . S
C471 C474 1.499 . S
C472 H452 0.950 . S
C472 C471 1.414 . S
C472 C473 1.374 . S
C473 H453 0.950 . S
C473 C469 1.385 . S
C473 C472 1.374 . S
C474 C471 1.499 . S
C474 C475 1.373 . S
C474 C476 1.389 . S
C475 H454 0.950 . S
C475 C474 1.373 . S
C475 C491 1.377 . S
C476 C474 1.389 . S
C476 C477 1.524 . S
C476 C490 1.377 . S
C477 C476 1.524 . S
C477 C478 1.397 . S
C477 C482 1.363 . S
C478 H455 0.950 . S
C478 C477 1.397 . S
C478 C479 1.334 . S
C479 H456 0.950 . S
C479 C478 1.334 . S
C479 C480 1.287 . S
C480 C479 1.287 . S
C480 C481 1.524 . S
C480 H499 0.913 . S
C481 H457 0.950 . S
C481 C480 1.524 . S
C481 C482 1.415 . S
C482 H458 0.950 . S
C482 C477 1.363 . S
C482 C481 1.415 . S
C483 H459 0.951 . S
C483 C484 1.366 . S
C483 C485 1.388 . S
C484 C483 1.366 . S
C484 C488 1.385 . S
C485 H460 0.951 . S
C485 C483 1.388 . S
C485 C486 1.366 . S
C486 C485 1.366 . S
C486 C487 1.414 . S
C486 C489 1.499 . S
C487 H461 0.950 . S
C487 C486 1.414 . S
C487 C488 1.374 . S
C488 H462 0.950 . S
C488 C484 1.385 . S
C488 C487 1.374 . S
C489 C486 1.499 . S
C489 C490 1.373 . S
C489 C491 1.389 . S
C490 H463 0.950 . S
C490 C476 1.377 . S
C490 C489 1.373 . S
C491 C475 1.377 . S
C491 C489 1.389 . S
C491 C492 1.524 . S
C492 C491 1.524 . S
C492 C493 1.397 . S
C492 C497 1.363 . S
C493 H464 0.950 . S
C493 C492 1.397 . S
C493 C494 1.334 . S
C494 H465 0.950 . S
C494 C493 1.334 . S
C494 C495 1.287 . S
C495 C494 1.287 . S
C495 C496 1.524 . S
C495 H498 0.999 . S
C496 H466 0.950 . S
C496 C495 1.524 . S
C496 C497 1.415 . S
C497 H467 0.950 . S
C497 C492 1.363 . S
C497 C496 1.415 . S
H498 C495 0.999 . S
H499 C480 0.913 . S
H500 C518 0.951 . S
H501 C520 0.951 . S
H502 C522 0.950 . S
H503 C523 0.950 . S
H504 C525 0.950 . S
H505 C528 0.950 . S
H506 C529 0.950 . S
H507 C531 0.950 . S
H508 C532 0.950 . S
H509 C533 0.951 . S
H510 C535 0.951 . S
H511 C537 0.950 . S
H512 C538 0.950 . S
H513 C540 0.950 . S
H514 C543 0.950 . S
H515 C544 0.950 . S
H516 C546 0.950 . S
H517 C547 0.950 . S
C518 H500 0.951 . S
C518 C519 1.366 . S
C518 C520 1.388 . S
C519 C518 1.366 . S
C519 C523 1.385 . S
C520 H501 0.951 . S
C520 C518 1.388 . S
C520 C521 1.366 . S
C521 C520 1.366 . S
C521 C522 1.414 . S
C521 C524 1.499 . S
C522 H502 0.950 . S
C522 C521 1.414 . S
C522 C523 1.374 . S
C523 H503 0.950 . S
C523 C519 1.385 . S
C523 C522 1.374 . S
C524 C521 1.499 . S
C524 C525 1.373 . S
C524 C526 1.389 . S
C525 H504 0.950 . S
C525 C524 1.373 . S
C525 C541 1.377 . S
C526 C524 1.389 . S
C526 C527 1.524 . S
C526 C540 1.377 . S
C527 C526 1.524 . S
C527 C528 1.397 . S
C527 C532 1.363 . S
C528 H505 0.950 . S
C528 C527 1.397 . S
C528 C529 1.334 . S
C529 H506 0.950 . S
C529 C528 1.334 . S
C529 C530 1.287 . S
C530 C529 1.287 . S
C530 C531 1.524 . S
C530 H549 0.913 . S
C531 H507 0.950 . S
C531 C530 1.524 . S
C531 C532 1.415 . S
C532 H508 0.950 . S
C532 C527 1.363 . S
C532 C531 1.415 . S
C533 H509 0.951 . S
C533 C534 1.366 . S
C533 C535 1.388 . S
C534 C533 1.366 . S
C534 C538 1.385 . S
C535 H510 0.951 . S
C535 C533 1.388 . S
C535 C536 1.366 . S
C536 C535 1.366 . S
C536 C537 1.414 . S
C536 C539 1.499 . S
C537 H511 0.950 . S
C537 C536 1.414 . S
C537 C538 1.374 . S
C538 H512 0.950 . S
C538 C534 1.385 . S
C538 C537 1.374 . S
C539 C536 1.499 . S
C539 C540 1.373 . S
C539 C541 1.389 . S
C540 H513 0.950 . S
C540 C526 1.377 . S
C540 C539 1.373 . S
C541 C525 1.377 . S
C541 C539 1.389 . S
C541 C542 1.524 . S
C542 C541 1.524 . S
C542 C543 1.397 . S
C542 C547 1.363 . S
C543 H514 0.950 . S
C543 C542 1.397 . S
C543 C544 1.334 . S
C544 H515 0.950 . S
C544 C543 1.334 . S
C544 C545 1.287 . S
C545 C544 1.287 . S
C545 C546 1.524 . S
C545 H548 0.999 . S
C546 H516 0.950 . S
C546 C545 1.524 . S
C546 C547 1.415 . S
C547 H517 0.950 . S
C547 C542 1.363 . S
C547 C546 1.415 . S
H548 C545 0.999 . S
H549 C530 0.913 . S
H550 C568 0.951 . S
H551 C570 0.951 . S
H552 C572 0.950 . S
H553 C573 0.950 . S
H554 C575 0.950 . S
H555 C578 0.950 . S
H556 C579 0.950 . S
H557 C581 0.950 . S
H558 C582 0.950 . S
H559 C583 0.951 . S
H560 C585 0.951 . S
H561 C587 0.950 . S
H562 C588 0.950 . S
H563 C590 0.950 . S
H564 C593 0.950 . S
H565 C594 0.950 . S
H566 C596 0.950 . S
H567 C597 0.950 . S
C568 H550 0.951 . S
C568 C569 1.366 . S
C568 C570 1.388 . S
C569 C568 1.366 . S
C569 C573 1.385 . S
C570 H551 0.951 . S
C570 C568 1.388 . S
C570 C571 1.366 . S
C571 C570 1.366 . S
C571 C572 1.414 . S
C571 C574 1.499 . S
C572 H552 0.950 . S
C572 C571 1.414 . S
C572 C573 1.374 . S
C573 H553 0.950 . S
C573 C569 1.385 . S
C573 C572 1.374 . S
C574 C571 1.499 . S
C574 C575 1.373 . S
C574 C576 1.389 . S
C575 H554 0.950 . S
C575 C574 1.373 . S
C575 C591 1.377 . S
C576 C574 1.389 . S
C576 C577 1.524 . S
C576 C590 1.377 . S
C577 C576 1.524 . S
C577 C578 1.397 . S
C577 C582 1.363 . S
C578 H555 0.950 . S
C578 C577 1.397 . S
C578 C579 1.334 . S
C579 H556 0.950 . S
C579 C578 1.334 . S
C579 C580 1.287 . S
C580 C579 1.287 . S
C580 C581 1.524 . S
C580 H599 0.913 . S
C581 H557 0.950 . S
C581 C580 1.524 . S
C581 C582 1.415 . S
C582 H558 0.950 . S
C582 C577 1.363 . S
C582 C581 1.415 . S
C583 H559 0.951 . S
C583 C584 1.366 . S
C583 C585 1.388 . S
C584 C583 1.366 . S
C584 C588 1.385 . S
C585 H560 0.951 . S
C585 C583 1.388 . S
C585 C586 1.366 . S
C586 C585 1.366 . S
C586 C587 1.414 . S
C586 C589 1.499 . S
C587 H561 0.950 . S
C587 C586 1.414 . S
C587 C588 1.374 . S
C588 H562 0.950 . S
C588 C584 1.385 . S
C588 C587 1.374 . S
C589 C586 1.499 . S
C589 C590 1.373 . S
C589 C591 1.389 . S
C590 H563 0.950 . S
C590 C576 1.377 . S
C590 C589 1.373 . S
C591 C575 1.377 . S
C591 C589 1.389 . S
C591 C592 1.524 . S
C592 C591 1.524 . S
C592 C593 1.397 . S
C592 C597 1.363 . S
C593 H564 0.950 . S
C593 C592 1.397 . S
C593 C594 1.334 . S
C594 H565 0.950 . S
C594 C593 1.334 . S
C594 C595 1.287 . S
C595 C594 1.287 . S
C595 C596 1.524 . S
C595 H598 0.999 . S
C596 H566 0.950 . S
C596 C595 1.524 . S
C596 C597 1.415 . S
C597 H567 0.950 . S
C597 C592 1.363 . S
C597 C596 1.415 . S
H598 C595 0.999 . S
H599 C580 0.913 . S
H600 C618 0.951 . S
H601 C620 0.951 . S
H602 C622 0.950 . S
H603 C623 0.950 . S
H604 C625 0.950 . S
H605 C628 0.950 . S
H606 C629 0.950 . S
H607 C631 0.950 . S
H608 C632 0.950 . S
H609 C633 0.951 . S
H610 C635 0.951 . S
H611 C637 0.950 . S
H612 C638 0.950 . S
H613 C640 0.950 . S
H614 C643 0.950 . S
H615 C644 0.950 . S
H616 C646 0.950 . S
H617 C647 0.950 . S
C618 H600 0.951 . S
C618 C619 1.366 . S
C618 C620 1.388 . S
C619 C618 1.366 . S
C619 C623 1.385 . S
C620 H601 0.951 . S
C620 C618 1.388 . S
C620 C621 1.366 . S
C621 C620 1.366 . S
C621 C622 1.414 . S
C621 C624 1.499 . S
C622 H602 0.950 . S
C622 C621 1.414 . S
C622 C623 1.374 . S
C623 H603 0.950 . S
C623 C619 1.385 . S
C623 C622 1.374 . S
C624 C621 1.499 . S
C624 C625 1.373 . S
C624 C626 1.389 . S
C625 H604 0.950 . S
C625 C624 1.373 . S
C625 C641 1.377 . S
C626 C624 1.389 . S
C626 C627 1.524 . S
C626 C640 1.377 . S
C627 C626 1.524 . S
C627 C628 1.397 . S
C627 C632 1.363 . S
C628 H605 0.950 . S
C628 C627 1.397 . S
C628 C629 1.334 . S
C629 H606 0.950 . S
C629 C628 1.334 . S
C629 C630 1.287 . S
C630 C629 1.287 . S
C630 C631 1.524 . S
C630 H649 0.913 . S
C631 H607 0.950 . S
C631 C630 1.524 . S
C631 C632 1.415 . S
C632 H608 0.950 . S
C632 C627 1.363 . S
C632 C631 1.415 . S
C633 H609 0.951 . S
C633 C634 1.366 . S
C633 C635 1.388 . S
C634 C633 1.366 . S
C634 C638 1.385 . S
C635 H610 0.951 . S
C635 C633 1.388 . S
C635 C636 1.366 . S
C636 C635 1.366 . S
C636 C637 1.414 . S
C636 C639 1.499 . S
C637 H611 0.950 . S
C637 C636 1.414 . S
C637 C638 1.374 . S
C638 H612 0.950 . S
C638 C634 1.385 . S
C638 C637 1.374 . S
C639 C636 1.499 . S
C639 C640 1.373 . S
C639 C641 1.389 . S
C640 H613 0.950 . S
C640 C626 1.377 . S
C640 C639 1.373 . S
C641 C625 1.377 . S
C641 C639 1.389 . S
C641 C642 1.524 . S
C642 C641 1.524 . S
C642 C643 1.397 . S
C642 C647 1.363 . S
C643 H614 0.950 . S
C643 C642 1.397 . S
C643 C644 1.334 . S
C644 H615 0.950 . S
C644 C643 1.334 . S
C644 C645 1.287 . S
C645 C644 1.287 . S
C645 C646 1.524 . S
C645 H648 0.999 . S
C646 H616 0.950 . S
C646 C645 1.524 . S
C646 C647 1.415 . S
C647 H617 0.950 . S
C647 C642 1.363 . S
C647 C646 1.415 . S
H648 C645 0.999 . S
H649 C630 0.913 . S
H650 C668 0.951 . S
H651 C670 0.951 . S
H652 C672 0.950 . S
H653 C673 0.950 . S
H654 C675 0.950 . S
H655 C678 0.950 . S
H656 C679 0.950 . S
H657 C681 0.950 . S
H658 C682 0.950 . S
H659 C683 0.951 . S
H660 C685 0.951 . S
H661 C687 0.950 . S
H662 C688 0.950 . S
H663 C690 0.950 . S
H664 C693 0.950 . S
H665 C694 0.950 . S
H666 C696 0.950 . S
H667 C697 0.950 . S
C668 H650 0.951 . S
C668 C669 1.366 . S
C668 C670 1.388 . S
C669 C668 1.366 . S
C669 C673 1.385 . S
C670 H651 0.951 . S
C670 C668 1.388 . S
C670 C671 1.366 . S
C671 C670 1.366 . S
C671 C672 1.414 . S
C671 C674 1.499 . S
C672 H652 0.950 . S
C672 C671 1.414 . S
C672 C673 1.374 . S
C673 H653 0.950 . S
C673 C669 1.385 . S
C673 C672 1.374 . S
C674 C671 1.499 . S
C674 C675 1.373 . S
C674 C676 1.389 . S
C675 H654 0.950 . S
C675 C674 1.373 . S
C675 C691 1.377 . S
C676 C674 1.389 . S
C676 C677 1.524 . S
C676 C690 1.377 . S
C677 C676 1.524 . S
C677 C678 1.397 . S
C677 C682 1.363 . S
C678 H655 0.950 . S
C678 C677 1.397 . S
C678 C679 1.334 . S
C679 H656 0.950 . S
C679 C678 1.334 . S
C679 C680 1.287 . S
C680 C679 1.287 . S
C680 C681 1.524 . S
C680 H699 0.913 . S
C681 H657 0.950 . S
C681 C680 1.524 . S
C681 C682 1.415 . S
C682 H658 0.950 . S
C682 C677 1.363 . S
C682 C681 1.415 . S
C683 H659 0.951 . S
C683 C684 1.366 . S
C683 C685 1.388 . S
C684 C683 1.366 . S
C684 C688 1.385 . S
C685 H660 0.951 . S
C685 C683 1.388 . S
C685 C686 1.366 . S
C686 C685 1.366 . S
C686 C687 1.414 . S
C686 C689 1.499 . S
C687 H661 0.950 . S
C687 C686 1.414 . S
C687 C688 1.374 . S
C688 H662 0.950 . S
C688 C684 1.385 . S
C688 C687 1.374 . S
C689 C686 1.499 . S
C689 C690 1.373 . S
C689 C691 1.389 . S
C690 H663 0.950 . S
C690 C676 1.377 . S
C690 C689 1.373 . S
C691 C675 1.377 . S
C691 C689 1.389 . S
C691 C692 1.524 . S
C692 C691 1.524 . S
C692 C693 1.397 . S
C692 C697 1.363 . S
C693 H664 0.950 . S
C693 C692 1.397 . S
C693 C694 1.334 . S
C694 H665 0.950 . S
C694 C693 1.334 . S
C694 C695 1.287 . S
C695 C694 1.287 . S
C695 C696 1.524 . S
C695 H698 0.999 . S
C696 H666 0.950 . S
C696 C695 1.524 . S
C696 C697 1.415 . S
C697 H667 0.950 . S
C697 C692 1.363 . S
C697 C696 1.415 . S
H698 C695 0.999 . S
H699 C680 0.913 . S
H700 C718 0.951 . S
H701 C720 0.951 . S
H702 C722 0.950 . S
H703 C723 0.950 . S
H704 C725 0.950 . S
H705 C728 0.950 . S
H706 C729 0.950 . S
H707 C731 0.950 . S
H708 C732 0.950 . S
H709 C733 0.951 . S
H710 C735 0.951 . S
H711 C737 0.950 . S
H712 C738 0.950 . S
H713 C740 0.950 . S
H714 C743 0.950 . S
H715 C744 0.950 . S
H716 C746 0.950 . S
H717 C747 0.950 . S
C718 H700 0.951 . S
C718 C719 1.366 . S
C718 C720 1.388 . S
C719 C718 1.366 . S
C719 C723 1.385 . S
C720 H701 0.951 . S
C720 C718 1.388 . S
C720 C721 1.366 . S
C721 C720 1.366 . S
C721 C722 1.414 . S
C721 C724 1.499 . S
C722 H702 0.950 . S
C722 C721 1.414 . S
C722 C723 1.374 . S
C723 H703 0.950 . S
C723 C719 1.385 . S
C723 C722 1.374 . S
C724 C721 1.499 . S
C724 C725 1.373 . S
C724 C726 1.389 . S
C725 H704 0.950 . S
C725 C724 1.373 . S
C725 C741 1.377 . S
C726 C724 1.389 . S
C726 C727 1.524 . S
C726 C740 1.377 . S
C727 C726 1.524 . S
C727 C728 1.397 . S
C727 C732 1.363 . S
C728 H705 0.950 . S
C728 C727 1.397 . S
C728 C729 1.334 . S
C729 H706 0.950 . S
C729 C728 1.334 . S
C729 C730 1.287 . S
C730 C729 1.287 . S
C730 C731 1.524 . S
C730 H749 0.913 . S
C731 H707 0.950 . S
C731 C730 1.524 . S
C731 C732 1.415 . S
C732 H708 0.950 . S
C732 C727 1.363 . S
C732 C731 1.415 . S
C733 H709 0.951 . S
C733 C734 1.366 . S
C733 C735 1.388 . S
C734 C733 1.366 . S
C734 C738 1.385 . S
C735 H710 0.951 . S
C735 C733 1.388 . S
C735 C736 1.366 . S
C736 C735 1.366 . S
C736 C737 1.414 . S
C736 C739 1.499 . S
C737 H711 0.950 . S
C737 C736 1.414 . S
C737 C738 1.374 . S
C738 H712 0.950 . S
C738 C734 1.385 . S
C738 C737 1.374 . S
C739 C736 1.499 . S
C739 C740 1.373 . S
C739 C741 1.389 . S
C740 H713 0.950 . S
C740 C726 1.377 . S
C740 C739 1.373 . S
C741 C725 1.377 . S
C741 C739 1.389 . S
C741 C742 1.524 . S
C742 C741 1.524 . S
C742 C743 1.397 . S
C742 C747 1.363 . S
C743 H714 0.950 . S
C743 C742 1.397 . S
C743 C744 1.334 . S
C744 H715 0.950 . S
C744 C743 1.334 . S
C744 C745 1.287 . S
C745 C744 1.287 . S
C745 C746 1.524 . S
C745 H748 0.999 . S
C746 H716 0.950 . S
C746 C745 1.524 . S
C746 C747 1.415 . S
C747 H717 0.950 . S
C747 C742 1.363 . S
C747 C746 1.415 . S
H748 C745 0.999 . S
H749 C730 0.913 . S
H750 C768 0.951 . S
H751 C770 0.951 . S
H752 C772 0.950 . S
H753 C773 0.950 . S
H754 C775 0.950 . S
H755 C778 0.950 . S
H756 C779 0.950 . S
H757 C781 0.950 . S
H758 C782 0.950 . S
H759 C783 0.951 . S
H760 C785 0.951 . S
H761 C787 0.950 . S
H762 C788 0.950 . S
H763 C790 0.950 . S
H764 C793 0.950 . S
H765 C794 0.950 . S
H766 C796 0.950 . S
H767 C797 0.950 . S
C768 H750 0.951 . S
C768 C769 1.366 . S
C768 C770 1.388 . S
C769 C768 1.366 . S
C769 C773 1.385 . S
C770 H751 0.951 . S
C770 C768 1.388 . S
C770 C771 1.366 . S
C771 C770 1.366 . S
C771 C772 1.414 . S
C771 C774 1.499 . S
C772 H752 0.950 . S
C772 C771 1.414 . S
C772 C773 1.374 . S
C773 H753 0.950 . S
C773 C769 1.385 . S
C773 C772 1.374 . S
C774 C771 1.499 . S
C774 C775 1.373 . S
C774 C776 1.389 . S
C775 H754 0.950 . S
C775 C774 1.373 . S
C775 C791 1.377 . S
C776 C774 1.389 . S
C776 C777 1.524 . S
C776 C790 1.377 . S
C777 C776 1.524 . S
C777 C778 1.397 . S
C777 C782 1.363 . S
C778 H755 0.950 . S
C778 C777 1.397 . S
C778 C779 1.334 . S
C779 H756 0.950 . S
C779 C778 1.334 . S
C779 C780 1.287 . S
C780 C779 1.287 . S
C780 C781 1.524 . S
C780 H799 0.913 . S
C781 H757 0.950 . S
C781 C780 1.524 . S
C781 C782 1.415 . S
C782 H758 0.950 . S
C782 C777 1.363 . S
C782 C781 1.415 . S
C783 H759 0.951 . S
C783 C784 1.366 . S
C783 C785 1.388 . S
C784 C783 1.366 . S
C784 C788 1.385 . S
C785 H760 0.951 . S
C785 C783 1.388 . S
C785 C786 1.366 . S
C786 C785 1.366 . S
C786 C787 1.414 . S
C786 C789 1.499 . S
C787 H761 0.950 . S
C787 C786 1.414 . S
C787 C788 1.374 . S
C788 H762 0.950 . S
C788 C784 1.385 . S
C788 C787 1.374 . S
C789 C786 1.499 . S
C789 C790 1.373 . S
C789 C791 1.389 . S
C790 H763 0.950 . S
C790 C776 1.377 . S
C790 C789 1.373 . S
C791 C775 1.377 . S
C791 C789 1.389 . S
C791 C792 1.524 . S
C792 C791 1.524 . S
C792 C793 1.397 . S
C792 C797 1.363 . S
C793 H764 0.950 . S
C793 C792 1.397 . S
C793 C794 1.334 . S
C794 H765 0.950 . S
C794 C793 1.334 . S
C794 C795 1.287 . S
C795 C794 1.287 . S
C795 C796 1.524 . S
C795 H798 0.999 . S
C796 H766 0.950 . S
C796 C795 1.524 . S
C796 C797 1.415 . S
C797 H767 0.950 . S
C797 C792 1.363 . S
C797 C796 1.415 . S
H798 C795 0.999 . S
H799 C780 0.913 . S
H800 C818 0.951 . S
H801 C820 0.951 . S
H802 C822 0.950 . S
H803 C823 0.950 . S
H804 C825 0.950 . S
H805 C828 0.950 . S
H806 C829 0.950 . S
H807 C831 0.950 . S
H808 C832 0.950 . S
H809 C833 0.951 . S
H810 C835 0.951 . S
H811 C837 0.950 . S
H812 C838 0.950 . S
H813 C840 0.950 . S
H814 C843 0.950 . S
H815 C844 0.950 . S
H816 C846 0.950 . S
H817 C847 0.950 . S
C818 H800 0.951 . S
C818 C819 1.366 . S
C818 C820 1.388 . S
C819 C818 1.366 . S
C819 C823 1.385 . S
C820 H801 0.951 . S
C820 C818 1.388 . S
C820 C821 1.366 . S
C821 C820 1.366 . S
C821 C822 1.414 . S
C821 C824 1.499 . S
C822 H802 0.950 . S
C822 C821 1.414 . S
C822 C823 1.374 . S
C823 H803 0.950 . S
C823 C819 1.385 . S
C823 C822 1.374 . S
C824 C821 1.499 . S
C824 C825 1.373 . S
C824 C826 1.389 . S
C825 H804 0.950 . S
C825 C824 1.373 . S
C825 C841 1.377 . S
C826 C824 1.389 . S
C826 C827 1.524 . S
C826 C840 1.377 . S
C827 C826 1.524 . S
C827 C828 1.397 . S
C827 C832 1.363 . S
C828 H805 0.950 . S
C828 C827 1.397 . S
C828 C829 1.334 . S
C829 H806 0.950 . S
C829 C828 1.334 . S
C829 C830 1.287 . S
C830 C829 1.287 . S
C830 C831 1.524 . S
C830 H849 0.913 . S
C831 H807 0.950 . S
C831 C830 1.524 . S
C831 C832 1.415 . S
C832 H808 0.950 . S
C832 C827 1.363 . S
C832 C831 1.415 . S
C833 H809 0.951 . S
C833 C834 1.366 . S
C833 C835 1.388 . S
C834 C833 1.366 . S
C834 C838 1.385 . S
C835 H810 0.951 . S
C835 C833 1.388 . S
C835 C836 1.366 . S
C836 C835 1.366 . S
C836 C837 1.414 . S
C836 C839 1.499 . S
C837 H811 0.950 . S
C837 C836 1.414 . S
C837 C838 1.374 . S
C838 H812 0.950 . S
C838 C834 1.385 . S
C838 C837 1.374 . S
C839 C836 1.499 . S
C839 C840 1.373 . S
C839 C841 1.389 . S
C840 H813 0.950 . S
C840 C826 1.377 . S
C840 C839 1.373 . S
C841 C825 1.377 . S
C841 C839 1.389 . S
C841 C842 1.524 . S
C842 C841 1.524 . S
C842 C843 1.397 . S
C842 C847 1.363 . S
C843 H814 0.950 . S
C843 C842 1.397 . S
C843 C844 1.334 . S
C844 H815 0.950 . S
C844 C843 1.334 . S
C844 C845 1.287 . S
C845 C844 1.287 . S
C845 C846 1.524 . S
C845 H848 0.999 . S
C846 H816 0.950 . S
C846 C845 1.524 . S
C846 C847 1.415 . S
C847 H817 0.950 . S
C847 C842 1.363 . S
C847 C846 1.415 . S
H848 C845 0.999 . S
H849 C830 0.913 . S
H850 C868 0.951 . S
H851 C870 0.951 . S
H852 C872 0.950 . S
H853 C873 0.950 . S
H854 C875 0.950 . S
H855 C878 0.950 . S
H856 C879 0.950 . S
H857 C881 0.950 . S
H858 C882 0.950 . S
H859 C883 0.951 . S
H860 C885 0.951 . S
H861 C887 0.950 . S
H862 C888 0.950 . S
H863 C890 0.950 . S
H864 C893 0.950 . S
H865 C894 0.950 . S
H866 C896 0.950 . S
H867 C897 0.950 . S
C868 H850 0.951 . S
C868 C869 1.366 . S
C868 C870 1.388 . S
C869 C868 1.366 . S
C869 C873 1.385 . S
C870 H851 0.951 . S
C870 C868 1.388 . S
C870 C871 1.366 . S
C871 C870 1.366 . S
C871 C872 1.414 . S
C871 C874 1.499 . S
C872 H852 0.950 . S
C872 C871 1.414 . S
C872 C873 1.374 . S
C873 H853 0.950 . S
C873 C869 1.385 . S
C873 C872 1.374 . S
C874 C871 1.499 . S
C874 C875 1.373 . S
C874 C876 1.389 . S
C875 H854 0.950 . S
C875 C874 1.373 . S
C875 C891 1.377 . S
C876 C874 1.389 . S
C876 C877 1.524 . S
C876 C890 1.377 . S
C877 C876 1.524 . S
C877 C878 1.397 . S
C877 C882 1.363 . S
C878 H855 0.950 . S
C878 C877 1.397 . S
C878 C879 1.334 . S
C879 H856 0.950 . S
C879 C878 1.334 . S
C879 C880 1.287 . S
C880 C879 1.287 . S
C880 C881 1.524 . S
C880 H899 0.913 . S
C881 H857 0.950 . S
C881 C880 1.524 . S
C881 C882 1.415 . S
C882 H858 0.950 . S
C882 C877 1.363 . S
C882 C881 1.415 . S
C883 H859 0.951 . S
C883 C884 1.366 . S
C883 C885 1.388 . S
C884 C883 1.366 . S
C884 C888 1.385 . S
C885 H860 0.951 . S
C885 C883 1.388 . S
C885 C886 1.366 . S
C886 C885 1.366 . S
C886 C887 1.414 . S
C886 C889 1.499 . S
C887 H861 0.950 . S
C887 C886 1.414 . S
C887 C888 1.374 . S
C888 H862 0.950 . S
C888 C884 1.385 . S
C888 C887 1.374 . S
C889 C886 1.499 . S
C889 C890 1.373 . S
C889 C891 1.389 . S
C890 H863 0.950 . S
C890 C876 1.377 . S
C890 C889 1.373 . S
C891 C875 1.377 . S
C891 C889 1.389 . S
C891 C892 1.524 . S
C892 C891 1.524 . S
C892 C893 1.397 . S
C892 C897 1.363 . S
C893 H864 0.950 . S
C893 C892 1.397 . S
C893 C894 1.334 . S
C894 H865 0.950 . S
C894 C893 1.334 . S
C894 C895 1.287 . S
C895 C894 1.287 . S
C895 C896 1.524 . S
C895 H898 0.999 . S
C896 H866 0.950 . S
C896 C895 1.524 . S
C896 C897 1.415 . S
C897 H867 0.950 . S
C897 C892 1.363 . S
C897 C896 1.415 . S
H898 C895 0.999 . S
H899 C880 0.913 . S
H900 C918 0.951 . S
H901 C920 0.951 . S
H902 C922 0.944 1_655 S
H903 C923 0.950 1_655 S
H904 C925 0.950 . S
H905 C928 0.950 . S
H906 C929 0.950 . S
H907 C931 0.950 . S
H908 C932 0.950 . S
H909 C933 0.951 . S
H910 C935 0.951 . S
H911 C937 0.950 . S
H912 C938 0.950 . S
H913 C940 0.950 . S
H914 C943 0.950 . S
H915 C944 0.950 . S
H916 C946 0.950 . S
H917 C947 0.950 . S
C918 H900 0.951 . S
C918 C919 1.366 . S
C918 C920 1.388 . S
C919 C918 1.366 . S
C919 C923 1.385 . S
C920 H901 0.951 . S
C920 C918 1.388 . S
C920 C921 1.366 . S
C921 C920 1.366 . S
C921 C922 1.414 . S
C921 C924 1.499 . S
C922 H902 0.944 1_455 S
C922 C921 1.414 . S
C922 C923 1.374 . S
C923 H903 0.950 1_455 S
C923 C919 1.385 . S
C923 C922 1.374 . S
C924 C921 1.499 . S
C924 C925 1.373 . S
C924 C926 1.389 . S
C925 H904 0.950 . S
C925 C924 1.373 . S
C925 C941 1.377 . S
C926 C924 1.389 . S
C926 C927 1.524 . S
C926 C940 1.377 . S
C927 C926 1.524 . S
C927 C928 1.397 . S
C927 C932 1.363 . S
C928 H905 0.950 . S
C928 C927 1.397 . S
C928 C929 1.334 . S
C929 H906 0.950 . S
C929 C928 1.334 . S
C929 C930 1.287 . S
C930 C929 1.287 . S
C930 C931 1.524 . S
C930 H949 0.913 . S
C931 H907 0.950 . S
C931 C930 1.524 . S
C931 C932 1.415 . S
C932 H908 0.950 . S
C932 C927 1.363 . S
C932 C931 1.415 . S
C933 H909 0.951 . S
C933 C934 1.366 . S
C933 C935 1.388 1_556 S
C934 C933 1.366 . S
C934 C938 1.385 . S
C935 H910 0.951 . S
C935 C933 1.388 1_554 S
C935 C936 1.366 . S
C936 C935 1.366 . S
C936 C937 1.414 . S
C936 C939 1.499 . S
C937 H911 0.950 . S
C937 C936 1.414 . S
C937 C938 1.374 1_554 S
C938 H912 0.950 . S
C938 C934 1.385 . S
C938 C937 1.374 1_556 S
C939 C936 1.499 . S
C939 C940 1.373 . S
C939 C941 1.389 . S
C940 H913 0.950 . S
C940 C926 1.377 . S
C940 C939 1.373 . S
C941 C925 1.377 . S
C941 C939 1.389 . S
C941 C942 1.524 . S
C942 C941 1.524 . S
C942 C943 1.397 . S
C942 C947 1.363 1_455 S
C943 H914 0.950 . S
C943 C942 1.397 . S
C943 C944 1.334 . S
C944 H915 0.950 . S
C944 C943 1.334 . S
C944 C945 1.287 . S
C945 C944 1.287 . S
C945 C946 1.524 1_455 S
C945 H948 0.999 . S
C946 H916 0.950 . S
C946 C945 1.524 1_655 S
C946 C947 1.415 . S
C947 H917 0.950 . S
C947 C942 1.363 1_655 S
C947 C946 1.415 . S
H948 C945 0.999 . S
H949 C930 0.913 . S
H950 C968 0.951 . S
H951 C970 0.951 . S
H952 C972 0.950 . S
H953 C973 0.950 . S
H954 C975 0.950 1_565 S
H955 C978 0.950 . S
H956 C979 0.950 . S
H957 C981 0.950 . S
H958 C982 0.950 . S
H959 C983 0.951 . S
H960 C985 0.951 . S
H961 C987 0.950 . S
H962 C988 0.950 . S
H963 C990 0.950 . S
H964 C993 0.948 1_545 S
H965 C994 0.950 . S
H966 C996 0.950 . S
H967 C997 0.950 . S
C968 H950 0.951 . S
C968 C969 1.366 . S
C968 C970 1.388 . S
C969 C968 1.366 . S
C969 C973 1.385 . S
C970 H951 0.951 . S
C970 C968 1.388 . S
C970 C971 1.366 . S
C971 C970 1.366 . S
C971 C972 1.414 . S
C971 C974 1.499 . S
C972 H952 0.950 . S
C972 C971 1.414 . S
C972 C973 1.374 . S
C973 H953 0.950 . S
C973 C969 1.385 . S
C973 C972 1.374 . S
C974 C971 1.499 . S
C974 C975 1.373 . S
C974 C976 1.389 . S
C975 H954 0.950 1_545 S
C975 C974 1.373 . S
C975 C991 1.377 . S
C976 C974 1.389 . S
C976 C977 1.524 . S
C976 C990 1.377 . S
C977 C976 1.524 . S
C977 C978 1.397 . S
C977 C982 1.363 . S
C978 H955 0.950 . S
C978 C977 1.397 . S
C978 C979 1.334 . S
C979 H956 0.950 . S
C979 C978 1.334 . S
C979 C980 1.287 . S
C980 C979 1.287 . S
C980 C981 1.524 . S
C980 H999 0.913 . S
C981 H957 0.950 . S
C981 C980 1.524 . S
C981 C982 1.415 . S
C982 H958 0.950 . S
C982 C977 1.363 . S
C982 C981 1.415 . S
C983 H959 0.951 . S
C983 C984 1.366 . S
C983 C985 1.388 . S
C984 C983 1.366 . S
C984 C988 1.385 . S
C985 H960 0.951 . S
C985 C983 1.388 . S
C985 C986 1.366 . S
C986 C985 1.366 . S
C986 C987 1.414 . S
C986 C989 1.499 . S
C987 H961 0.950 . S
C987 C986 1.414 . S
C987 C988 1.374 . S
C988 H962 0.950 . S
C988 C984 1.385 . S
C988 C987 1.374 . S
C989 C986 1.499 . S
C989 C990 1.373 . S
C989 C991 1.389 . S
C990 H963 0.950 . S
C990 C976 1.377 . S
C990 C989 1.373 . S
C991 C975 1.377 . S
C991 C989 1.389 . S
C991 C992 1.524 1_545 S
C992 C991 1.524 1_565 S
C992 C993 1.397 . S
C992 C997 1.363 . S
C993 H964 0.948 1_565 S
C993 C992 1.397 . S
C993 C994 1.334 . S
C994 H965 0.950 . S
C994 C993 1.334 . S
C994 C995 1.287 . S
C995 C994 1.287 . S
C995 C996 1.524 . S
C995 H998 0.999 . S
C996 H966 0.950 . S
C996 C995 1.524 . S
C996 C997 1.415 . S
C997 H967 0.950 . S
C997 C992 1.363 . S
C997 C996 1.415 . S
H998 C995 0.999 . S
H999 C980 0.913 . S
H1000 C1018 0.951 . S
H1001 C1020 0.951 . S
H1002 C1022 0.950 . S
H1003 C1023 0.950 . S
H1004 C1025 0.950 . S
H1005 C1028 0.950 . S
H1006 C1029 0.950 . S
H1007 C1031 0.950 . S
H1008 C1032 0.950 . S
H1009 C1033 0.951 . S
H1010 C1035 0.951 . S
H1011 C1037 0.950 . S
H1012 C1038 0.950 . S
H1013 C1040 0.950 . S
H1014 C1043 0.950 . S
H1015 C1044 0.950 . S
H1016 C1046 0.950 . S
H1017 C1047 0.950 . S
C1018 H1000 0.951 . S
C1018 C1019 1.366 . S
C1018 C1020 1.388 . S
C1019 C1018 1.366 . S
C1019 C1023 1.385 . S
C1020 H1001 0.951 . S
C1020 C1018 1.388 . S
C1020 C1021 1.366 . S
C1021 C1020 1.366 . S
C1021 C1022 1.414 . S
C1021 C1024 1.499 . S
C1022 H1002 0.950 . S
C1022 C1021 1.414 . S
C1022 C1023 1.374 . S
C1023 H1003 0.950 . S
C1023 C1019 1.385 . S
C1023 C1022 1.374 . S
C1024 C1021 1.499 . S
C1024 C1025 1.373 . S
C1024 C1026 1.389 . S
C1025 H1004 0.950 . S
C1025 C1024 1.373 . S
C1025 C1041 1.377 . S
C1026 C1024 1.389 . S
C1026 C1027 1.524 . S
C1026 C1040 1.377 . S
C1027 C1026 1.524 . S
C1027 C1028 1.397 . S
C1027 C1032 1.363 . S
C1028 H1005 0.950 . S
C1028 C1027 1.397 . S
C1028 C1029 1.334 . S
C1029 H1006 0.950 . S
C1029 C1028 1.334 . S
C1029 C1030 1.287 . S
C1030 C1029 1.287 . S
C1030 C1031 1.524 . S
C1030 H1049 0.913 . S
C1031 H1007 0.950 . S
C1031 C1030 1.524 . S
C1031 C1032 1.415 . S
C1032 H1008 0.950 . S
C1032 C1027 1.363 . S
C1032 C1031 1.415 . S
C1033 H1009 0.951 . S
C1033 C1034 1.366 . S
C1033 C1035 1.388 . S
C1034 C1033 1.366 . S
C1034 C1038 1.385 . S
C1035 H1010 0.951 . S
C1035 C1033 1.388 . S
C1035 C1036 1.366 . S
C1036 C1035 1.366 . S
C1036 C1037 1.414 . S
C1036 C1039 1.499 . S
C1037 H1011 0.950 . S
C1037 C1036 1.414 . S
C1037 C1038 1.374 . S
C1038 H1012 0.950 . S
C1038 C1034 1.385 . S
C1038 C1037 1.374 . S
C1039 C1036 1.499 . S
C1039 C1040 1.373 . S
C1039 C1041 1.389 . S
C1040 H1013 0.950 . S
C1040 C1026 1.377 . S
C1040 C1039 1.373 . S
C1041 C1025 1.377 . S
C1041 C1039 1.389 . S
C1041 C1042 1.524 . S
C1042 C1041 1.524 . S
C1042 C1043 1.397 . S
C1042 C1047 1.363 . S
C1043 H1014 0.950 . S
C1043 C1042 1.397 . S
C1043 C1044 1.334 . S
C1044 H1015 0.950 . S
C1044 C1043 1.334 . S
C1044 C1045 1.287 . S
C1045 C1044 1.287 . S
C1045 C1046 1.524 . S
C1045 H1048 0.999 . S
C1046 H1016 0.950 . S
C1046 C1045 1.524 . S
C1046 C1047 1.415 . S
C1047 H1017 0.950 . S
C1047 C1042 1.363 . S
C1047 C1046 1.415 . S
H1048 C1045 0.999 . S
H1049 C1030 0.913 . S
H1050 C1068 0.951 1_565 S
H1051 C1070 0.941 1_565 S
H1052 C1072 0.950 . S
H1053 C1073 0.950 . S
H1054 C1075 0.950 . S
H1055 C1078 0.950 . S
H1056 C1079 0.950 . S
H1057 C1081 0.950 . S
H1058 C1082 0.950 . S
H1059 C1083 0.951 . S
H1060 C1085 0.951 . S
H1061 C1087 0.950 . S
H1062 C1088 0.950 . S
H1063 C1090 0.950 . S
H1064 C1093 0.950 . S
H1065 C1094 0.950 . S
H1066 C1096 0.950 . S
H1067 C1097 0.950 . S
C1068 H1050 0.951 1_545 S
C1068 C1069 1.366 . S
C1068 C1070 1.390 . S
C1069 C1068 1.366 . S
C1069 C1073 1.385 . S
C1070 H1051 0.941 1_545 S
C1070 C1068 1.390 . S
C1070 C1071 1.374 . S
C1071 C1070 1.374 . S
C1071 C1072 1.414 . S
C1071 C1074 1.499 . S
C1072 H1052 0.950 . S
C1072 C1071 1.414 . S
C1072 C1073 1.374 . S
C1073 H1053 0.950 . S
C1073 C1069 1.385 . S
C1073 C1072 1.374 . S
C1074 C1071 1.499 . S
C1074 C1075 1.373 . S
C1074 C1076 1.389 1_545 S
C1075 H1054 0.950 . S
C1075 C1074 1.373 . S
C1075 C1091 1.377 . S
C1076 C1074 1.389 1_565 S
C1076 C1077 1.524 . S
C1076 C1090 1.377 . S
C1077 C1076 1.524 . S
C1077 C1078 1.397 . S
C1077 C1082 1.363 . S
C1078 H1055 0.950 . S
C1078 C1077 1.397 . S
C1078 C1079 1.334 . S
C1079 H1056 0.950 . S
C1079 C1078 1.334 . S
C1079 C1080 1.287 . S
C1080 C1079 1.287 . S
C1080 C1081 1.524 . S
C1080 H1099 0.913 . S
C1081 H1057 0.950 . S
C1081 C1080 1.524 . S
C1081 C1082 1.415 . S
C1082 H1058 0.950 . S
C1082 C1077 1.363 . S
C1082 C1081 1.415 . S
C1083 H1059 0.951 . S
C1083 C1084 1.366 . S
C1083 C1085 1.388 . S
C1084 C1083 1.366 . S
C1084 C1088 1.385 1_545 S
C1085 H1060 0.951 . S
C1085 C1083 1.388 . S
C1085 C1086 1.366 . S
C1086 C1085 1.366 . S
C1086 C1087 1.414 1_545 S
C1086 C1089 1.499 . S
C1087 H1061 0.950 . S
C1087 C1086 1.414 1_565 S
C1087 C1088 1.374 . S
C1088 H1062 0.950 . S
C1088 C1084 1.385 1_565 S
C1088 C1087 1.374 . S
C1089 C1086 1.499 . S
C1089 C1090 1.373 1_545 S
C1089 C1091 1.389 . S
C1090 H1063 0.950 . S
C1090 C1076 1.377 . S
C1090 C1089 1.373 1_565 S
C1091 C1075 1.377 . S
C1091 C1089 1.389 . S
C1091 C1092 1.524 . S
C1092 C1091 1.524 . S
C1092 C1093 1.397 . S
C1092 C1097 1.363 . S
C1093 H1064 0.950 . S
C1093 C1092 1.397 . S
C1093 C1094 1.334 . S
C1094 H1065 0.950 . S
C1094 C1093 1.334 . S
C1094 C1095 1.287 . S
C1095 C1094 1.287 . S
C1095 C1096 1.524 . S
C1095 H1098 0.999 . S
C1096 H1066 0.950 . S
C1096 C1095 1.524 . S
C1096 C1097 1.415 . S
C1097 H1067 0.950 . S
C1097 C1092 1.363 . S
C1097 C1096 1.415 . S
H1098 C1095 0.999 . S
H1099 C1080 0.913 . S
H1100 C1118 0.951 . S
H1101 C1120 0.951 . S
H1102 C1122 0.950 . S
H1103 C1123 0.950 . S
H1104 C1125 0.950 . S
H1105 C1128 0.950 . S
H1106 C1129 0.950 . S
H1107 C1131 0.950 . S
H1108 C1132 0.950 . S
H1109 C1133 0.951 . S
H1110 C1135 0.951 . S
H1111 C1137 0.950 . S
H1112 C1138 0.956 . S
H1113 C1140 0.950 . S
H1114 C1143 0.950 . S
H1115 C1144 0.950 . S
H1116 C1146 0.950 . S
H1117 C1147 0.950 . S
C1118 H1100 0.951 . S
C1118 C1119 1.366 . S
C1118 C1120 1.388 . S
C1119 C1118 1.366 . S
C1119 C1123 1.385 . S
C1120 H1101 0.951 . S
C1120 C1118 1.388 . S
C1120 C1121 1.366 . S
C1121 C1120 1.366 . S
C1121 C1122 1.414 . S
C1121 C1124 1.499 . S
C1122 H1102 0.950 . S
C1122 C1121 1.414 . S
C1122 C1123 1.374 . S
C1123 H1103 0.950 . S
C1123 C1119 1.385 . S
C1123 C1122 1.374 . S
C1124 C1121 1.499 . S
C1124 C1125 1.373 . S
C1124 C1126 1.389 . S
C1125 H1104 0.950 . S
C1125 C1124 1.373 . S
C1125 C1141 1.377 . S
C1126 C1124 1.389 . S
C1126 C1127 1.524 . S
C1126 C1140 1.377 . S
C1127 C1126 1.524 . S
C1127 C1128 1.397 . S
C1127 C1132 1.363 . S
C1128 H1105 0.950 . S
C1128 C1127 1.397 . S
C1128 C1129 1.334 . S
C1129 H1106 0.950 . S
C1129 C1128 1.334 . S
C1129 C1130 1.287 . S
C1130 C1129 1.287 . S
C1130 C1131 1.524 . S
C1130 H1149 0.913 . S
C1131 H1107 0.950 . S
C1131 C1130 1.524 . S
C1131 C1132 1.415 . S
C1132 H1108 0.950 . S
C1132 C1127 1.363 . S
C1132 C1131 1.415 . S
C1133 H1109 0.951 . S
C1133 C1134 1.366 . S
C1133 C1135 1.388 1_554 S
C1134 C1133 1.366 . S
C1134 C1138 1.394 . S
C1135 H1110 0.951 . S
C1135 C1133 1.388 1_556 S
C1135 C1136 1.366 . S
C1136 C1135 1.366 . S
C1136 C1137 1.414 . S
C1136 C1139 1.499 . S
C1137 H1111 0.950 . S
C1137 C1136 1.414 . S
C1137 C1138 1.358 1_556 S
C1138 H1112 0.956 . S
C1138 C1134 1.394 . S
C1138 C1137 1.358 1_554 S
C1139 C1136 1.499 . S
C1139 C1140 1.373 . S
C1139 C1141 1.389 . S
C1140 H1113 0.950 . S
C1140 C1126 1.377 . S
C1140 C1139 1.373 . S
C1141 C1125 1.377 . S
C1141 C1139 1.389 . S
C1141 C1142 1.524 . S
C1142 C1141 1.524 . S
C1142 C1143 1.397 . S
C1142 C1147 1.363 . S
C1143 H1114 0.950 . S
C1143 C1142 1.397 . S
C1143 C1144 1.334 . S
C1144 H1115 0.950 . S
C1144 C1143 1.334 . S
C1144 C1145 1.287 . S
C1145 C1144 1.287 . S
C1145 C1146 1.524 . S
C1145 H1148 0.999 . S
C1146 H1116 0.950 . S
C1146 C1145 1.524 . S
C1146 C1147 1.415 . S
C1147 H1117 0.950 . S
C1147 C1142 1.363 . S
C1147 C1146 1.415 . S
H1148 C1145 0.999 . S
H1149 C1130 0.913 . S
H1150 C1168 0.951 . S
H1151 C1170 0.951 . S
H1152 C1172 0.950 . S
H1153 C1173 0.950 . S
H1154 C1175 0.950 . S
H1155 C1178 0.950 1_455 S
H1156 C1179 0.950 . S
H1157 C1181 0.950 . S
H1158 C1182 0.950 . S
H1159 C1183 0.951 . S
H1160 C1185 0.951 . S
H1161 C1187 0.950 . S
H1162 C1188 0.950 . S
H1163 C1190 0.950 . S
H1164 C1193 0.950 . S
H1165 C1194 0.950 . S
H1166 C1196 0.950 . S
H1167 C1197 0.950 . S
C1168 H1150 0.951 . S
C1168 C1169 1.366 1_655 S
C1168 C1170 1.388 . S
C1169 C1168 1.366 1_455 S
C1169 C1173 1.385 . S
C1170 H1151 0.951 . S
C1170 C1168 1.388 . S
C1170 C1171 1.366 1_655 S
C1171 C1170 1.366 1_455 S
C1171 C1172 1.414 . S
C1171 C1174 1.499 . S
C1172 H1152 0.950 . S
C1172 C1171 1.414 . S
C1172 C1173 1.374 . S
C1173 H1153 0.950 . S
C1173 C1169 1.385 . S
C1173 C1172 1.374 . S
C1174 C1171 1.499 . S
C1174 C1175 1.373 . S
C1174 C1176 1.389 1_455 S
C1175 H1154 0.950 . S
C1175 C1174 1.373 . S
C1175 C1191 1.377 . S
C1176 C1174 1.389 1_655 S
C1176 C1177 1.524 . S
C1176 C1190 1.377 . S
C1177 C1176 1.524 . S
C1177 C1178 1.397 . S
C1177 C1182 1.363 . S
C1178 H1155 0.950 1_655 S
C1178 C1177 1.397 . S
C1178 C1179 1.334 . S
C1179 H1156 0.950 . S
C1179 C1178 1.334 . S
C1179 C1180 1.287 . S
C1180 C1179 1.287 . S
C1180 C1181 1.524 . S
C1180 H1199 0.913 . S
C1181 H1157 0.950 . S
C1181 C1180 1.524 . S
C1181 C1182 1.415 . S
C1182 H1158 0.950 . S
C1182 C1177 1.363 . S
C1182 C1181 1.415 . S
C1183 H1159 0.951 . S
C1183 C1184 1.366 1_455 S
C1183 C1185 1.388 . S
C1184 C1183 1.366 1_655 S
C1184 C1188 1.385 . S
C1185 H1160 0.951 . S
C1185 C1183 1.388 . S
C1185 C1186 1.366 . S
C1186 C1185 1.366 . S
C1186 C1187 1.414 1_455 S
C1186 C1189 1.499 . S
C1187 H1161 0.950 . S
C1187 C1186 1.414 1_655 S
C1187 C1188 1.374 . S
C1188 H1162 0.950 . S
C1188 C1184 1.385 . S
C1188 C1187 1.374 . S
C1189 C1186 1.499 . S
C1189 C1190 1.373 1_455 S
C1189 C1191 1.389 . S
C1190 H1163 0.950 . S
C1190 C1176 1.377 . S
C1190 C1189 1.373 1_655 S
C1191 C1175 1.377 . S
C1191 C1189 1.389 . S
C1191 C1192 1.524 . S
C1192 C1191 1.524 . S
C1192 C1193 1.397 . S
C1192 C1197 1.363 . S
C1193 H1164 0.950 . S
C1193 C1192 1.397 . S
C1193 C1194 1.334 . S
C1194 H1165 0.950 . S
C1194 C1193 1.334 . S
C1194 C1195 1.287 . S
C1195 C1194 1.287 . S
C1195 C1196 1.524 . S
C1195 H1198 0.999 . S
C1196 H1166 0.950 . S
C1196 C1195 1.524 . S
C1196 C1197 1.415 . S
C1197 H1167 0.950 . S
C1197 C1192 1.363 . S
C1197 C1196 1.415 . S
H1198 C1195 0.999 . S
H1199 C1180 0.913 . S
C319 C8 2.073 . S
C334 C275 2.129 . S
C369 C26 1.300 . S
C384 C182 1.304 . S
C419 C48 1.466 . S
C434 C222 1.506 . S
C469 C19 1.770 . S
C484 C262 1.822 . S
C534 C195 1.571 . S
C519 C36 1.566 . S
C584 C235 1.802 . S
C569 C59 1.760 . S
C619 C28 1.490 . S
C634 C102 1.535 . S
C669 C46 1.252 . S
C684 C142 1.256 . S
C719 C16 1.645 . S
C734 C75 1.652 . S
C784 C115 1.754 . S
C769 C39 1.721 . S
C834 C155 1.003 . S
C819 C56 0.997 . S
C869 C6 1.334 . S
C884 C62 1.335 . S
C934 C161 1.418 . S
C919 C9 1.404 . S
C969 C21 1.501 . S
C984 C81 1.513 . S
C1019 C49 1.487 . S
C1034 C121 1.495 . S
C1084 C241 1.470 . S
C1069 C29 1.467 . S
C1134 C281 1.589 . S
C1119 C41 1.577 . S
C1169 C1 1.506 . S
C1184 C201 1.517 . S
