# Generated by pormake.
# Topology gar, (4,6)-cn, num edge types: 1
# Building blocks:
#     Node 0, Type 0, BuildingBlock: GALJAG_clean_sbu_0, # of connection points: 4
#     Node 1, Type 0, BuildingBlock: GALJAG_clean_sbu_0, # of connection points: 4
#     Node 2, Type 0, BuildingBlock: GALJAG_clean_sbu_0, # of connection points: 4
#     Node 3, Type 0, BuildingBlock: GALJAG_clean_sbu_0, # of connection points: 4
#     Node 4, Type 0, BuildingBlock: GALJAG_clean_sbu_0, # of connection points: 4
#     Node 5, Type 0, BuildingBlock: GALJAG_clean_sbu_0, # of connection points: 4
#     Node 6, Type 0, BuildingBlock: GALJAG_clean_sbu_0, # of connection points: 4
#     Node 7, Type 0, BuildingBlock: GALJAG_clean_sbu_0, # of connection points: 4
#     Node 8, Type 0, BuildingBlock: GALJAG_clean_sbu_0, # of connection points: 4
#     Node 9, Type 0, BuildingBlock: GALJAG_clean_sbu_0, # of connection points: 4
#     Node 10, Type 0, BuildingBlock: GALJAG_clean_sbu_0, # of connection points: 4
#     Node 11, Type 0, BuildingBlock: GALJAG_clean_sbu_0, # of connection points: 4
#     Node 12, Type 0, BuildingBlock: GALJAG_clean_sbu_0, # of connection points: 4
#     Node 13, Type 0, BuildingBlock: GALJAG_clean_sbu_0, # of connection points: 4
#     Node 14, Type 0, BuildingBlock: GALJAG_clean_sbu_0, # of connection points: 4
#     Node 15, Type 0, BuildingBlock: GALJAG_clean_sbu_0, # of connection points: 4
#     Node 16, Type 0, BuildingBlock: GALJAG_clean_sbu_0, # of connection points: 4
#     Node 17, Type 0, BuildingBlock: GALJAG_clean_sbu_0, # of connection points: 4
#     Node 18, Type 0, BuildingBlock: GALJAG_clean_sbu_0, # of connection points: 4
#     Node 19, Type 0, BuildingBlock: GALJAG_clean_sbu_0, # of connection points: 4
#     Node 20, Type 0, BuildingBlock: GALJAG_clean_sbu_0, # of connection points: 4
#     Node 21, Type 0, BuildingBlock: GALJAG_clean_sbu_0, # of connection points: 4
#     Node 22, Type 0, BuildingBlock: GALJAG_clean_sbu_0, # of connection points: 4
#     Node 23, Type 0, BuildingBlock: GALJAG_clean_sbu_0, # of connection points: 4
#     Node 24, Type 1, BuildingBlock: NUHQIS_clean_sbu_0, # of connection points: 6
#     Node 25, Type 1, BuildingBlock: NUHQIS_clean_sbu_0, # of connection points: 6
#     Node 26, Type 1, BuildingBlock: NUHQIS_clean_sbu_0, # of connection points: 6
#     Node 27, Type 1, BuildingBlock: NUHQIS_clean_sbu_0, # of connection points: 6
#     Node 28, Type 1, BuildingBlock: NUHQIS_clean_sbu_0, # of connection points: 6
#     Node 29, Type 1, BuildingBlock: NUHQIS_clean_sbu_0, # of connection points: 6
#     Node 30, Type 1, BuildingBlock: NUHQIS_clean_sbu_0, # of connection points: 6
#     Node 31, Type 1, BuildingBlock: NUHQIS_clean_sbu_0, # of connection points: 6
#     Node 32, Type 1, BuildingBlock: NUHQIS_clean_sbu_0, # of connection points: 6
#     Node 33, Type 1, BuildingBlock: NUHQIS_clean_sbu_0, # of connection points: 6
#     Node 34, Type 1, BuildingBlock: NUHQIS_clean_sbu_0, # of connection points: 6
#     Node 35, Type 1, BuildingBlock: NUHQIS_clean_sbu_0, # of connection points: 6
#     Node 36, Type 1, BuildingBlock: NUHQIS_clean_sbu_0, # of connection points: 6
#     Node 37, Type 1, BuildingBlock: NUHQIS_clean_sbu_0, # of connection points: 6
#     Node 38, Type 1, BuildingBlock: NUHQIS_clean_sbu_0, # of connection points: 6
#     Node 39, Type 1, BuildingBlock: NUHQIS_clean_sbu_0, # of connection points: 6
#     Edge 40, Type (0, 1), BuildingBlock: XIVTED_clean_linker_0, # of connection points: 2
#     Edge 41, Type (0, 1), BuildingBlock: XIVTED_clean_linker_0, # of connection points: 2
#     Edge 42, Type (0, 1), BuildingBlock: XIVTED_clean_linker_0, # of connection points: 2
#     Edge 43, Type (0, 1), BuildingBlock: XIVTED_clean_linker_0, # of connection points: 2
#     Edge 44, Type (0, 1), BuildingBlock: XIVTED_clean_linker_0, # of connection points: 2
#     Edge 45, Type (0, 1), BuildingBlock: XIVTED_clean_linker_0, # of connection points: 2
#     Edge 46, Type (0, 1), BuildingBlock: XIVTED_clean_linker_0, # of connection points: 2
#     Edge 47, Type (0, 1), BuildingBlock: XIVTED_clean_linker_0, # of connection points: 2
#     Edge 48, Type (0, 1), BuildingBlock: XIVTED_clean_linker_0, # of connection points: 2
#     Edge 49, Type (0, 1), BuildingBlock: XIVTED_clean_linker_0, # of connection points: 2
#     Edge 50, Type (0, 1), BuildingBlock: XIVTED_clean_linker_0, # of connection points: 2
#     Edge 51, Type (0, 1), BuildingBlock: XIVTED_clean_linker_0, # of connection points: 2
#     Edge 52, Type (0, 1), BuildingBlock: XIVTED_clean_linker_0, # of connection points: 2
#     Edge 53, Type (0, 1), BuildingBlock: XIVTED_clean_linker_0, # of connection points: 2
#     Edge 54, Type (0, 1), BuildingBlock: XIVTED_clean_linker_0, # of connection points: 2
#     Edge 55, Type (0, 1), BuildingBlock: XIVTED_clean_linker_0, # of connection points: 2
#     Edge 56, Type (0, 1), BuildingBlock: XIVTED_clean_linker_0, # of connection points: 2
#     Edge 57, Type (0, 1), BuildingBlock: XIVTED_clean_linker_0, # of connection points: 2
#     Edge 58, Type (0, 1), BuildingBlock: XIVTED_clean_linker_0, # of connection points: 2
#     Edge 59, Type (0, 1), BuildingBlock: XIVTED_clean_linker_0, # of connection points: 2
#     Edge 60, Type (0, 1), BuildingBlock: XIVTED_clean_linker_0, # of connection points: 2
#     Edge 61, Type (0, 1), BuildingBlock: XIVTED_clean_linker_0, # of connection points: 2
#     Edge 62, Type (0, 1), BuildingBlock: XIVTED_clean_linker_0, # of connection points: 2
#     Edge 63, Type (0, 1), BuildingBlock: XIVTED_clean_linker_0, # of connection points: 2
#     Edge 64, Type (0, 1), BuildingBlock: XIVTED_clean_linker_0, # of connection points: 2
#     Edge 65, Type (0, 1), BuildingBlock: XIVTED_clean_linker_0, # of connection points: 2
#     Edge 66, Type (0, 1), BuildingBlock: XIVTED_clean_linker_0, # of connection points: 2
#     Edge 67, Type (0, 1), BuildingBlock: XIVTED_clean_linker_0, # of connection points: 2
#     Edge 68, Type (0, 1), BuildingBlock: XIVTED_clean_linker_0, # of connection points: 2
#     Edge 69, Type (0, 1), BuildingBlock: XIVTED_clean_linker_0, # of connection points: 2
#     Edge 70, Type (0, 1), BuildingBlock: XIVTED_clean_linker_0, # of connection points: 2
#     Edge 71, Type (0, 1), BuildingBlock: XIVTED_clean_linker_0, # of connection points: 2
#     Edge 72, Type (0, 1), BuildingBlock: XIVTED_clean_linker_0, # of connection points: 2
#     Edge 73, Type (0, 1), BuildingBlock: XIVTED_clean_linker_0, # of connection points: 2
#     Edge 74, Type (0, 1), BuildingBlock: XIVTED_clean_linker_0, # of connection points: 2
#     Edge 75, Type (0, 1), BuildingBlock: XIVTED_clean_linker_0, # of connection points: 2
#     Edge 76, Type (0, 1), BuildingBlock: XIVTED_clean_linker_0, # of connection points: 2
#     Edge 77, Type (0, 1), BuildingBlock: XIVTED_clean_linker_0, # of connection points: 2
#     Edge 78, Type (0, 1), BuildingBlock: XIVTED_clean_linker_0, # of connection points: 2
#     Edge 79, Type (0, 1), BuildingBlock: XIVTED_clean_linker_0, # of connection points: 2
#     Edge 80, Type (0, 1), BuildingBlock: XIVTED_clean_linker_0, # of connection points: 2
#     Edge 81, Type (0, 1), BuildingBlock: XIVTED_clean_linker_0, # of connection points: 2
#     Edge 82, Type (0, 1), BuildingBlock: XIVTED_clean_linker_0, # of connection points: 2
#     Edge 83, Type (0, 1), BuildingBlock: XIVTED_clean_linker_0, # of connection points: 2
#     Edge 84, Type (0, 1), BuildingBlock: XIVTED_clean_linker_0, # of connection points: 2
#     Edge 85, Type (0, 1), BuildingBlock: XIVTED_clean_linker_0, # of connection points: 2
#     Edge 86, Type (0, 1), BuildingBlock: XIVTED_clean_linker_0, # of connection points: 2
#     Edge 87, Type (0, 1), BuildingBlock: XIVTED_clean_linker_0, # of connection points: 2
#     Edge 88, Type (0, 1), BuildingBlock: XIVTED_clean_linker_0, # of connection points: 2
#     Edge 89, Type (0, 1), BuildingBlock: XIVTED_clean_linker_0, # of connection points: 2
#     Edge 90, Type (0, 1), BuildingBlock: XIVTED_clean_linker_0, # of connection points: 2
#     Edge 91, Type (0, 1), BuildingBlock: XIVTED_clean_linker_0, # of connection points: 2
#     Edge 92, Type (0, 1), BuildingBlock: XIVTED_clean_linker_0, # of connection points: 2
#     Edge 93, Type (0, 1), BuildingBlock: XIVTED_clean_linker_0, # of connection points: 2
#     Edge 94, Type (0, 1), BuildingBlock: XIVTED_clean_linker_0, # of connection points: 2
#     Edge 95, Type (0, 1), BuildingBlock: XIVTED_clean_linker_0, # of connection points: 2
#     Edge 96, Type (0, 1), BuildingBlock: XIVTED_clean_linker_0, # of connection points: 2
#     Edge 97, Type (0, 1), BuildingBlock: XIVTED_clean_linker_0, # of connection points: 2
#     Edge 98, Type (0, 1), BuildingBlock: XIVTED_clean_linker_0, # of connection points: 2
#     Edge 99, Type (0, 1), BuildingBlock: XIVTED_clean_linker_0, # of connection points: 2
#     Edge 100, Type (0, 1), BuildingBlock: XIVTED_clean_linker_0, # of connection points: 2
#     Edge 101, Type (0, 1), BuildingBlock: XIVTED_clean_linker_0, # of connection points: 2
#     Edge 102, Type (0, 1), BuildingBlock: XIVTED_clean_linker_0, # of connection points: 2
#     Edge 103, Type (0, 1), BuildingBlock: XIVTED_clean_linker_0, # of connection points: 2
#     Edge 104, Type (0, 1), BuildingBlock: XIVTED_clean_linker_0, # of connection points: 2
#     Edge 105, Type (0, 1), BuildingBlock: XIVTED_clean_linker_0, # of connection points: 2
#     Edge 106, Type (0, 1), BuildingBlock: XIVTED_clean_linker_0, # of connection points: 2
#     Edge 107, Type (0, 1), BuildingBlock: XIVTED_clean_linker_0, # of connection points: 2
#     Edge 108, Type (0, 1), BuildingBlock: XIVTED_clean_linker_0, # of connection points: 2
#     Edge 109, Type (0, 1), BuildingBlock: XIVTED_clean_linker_0, # of connection points: 2
#     Edge 110, Type (0, 1), BuildingBlock: XIVTED_clean_linker_0, # of connection points: 2
#     Edge 111, Type (0, 1), BuildingBlock: XIVTED_clean_linker_0, # of connection points: 2
#     Edge 112, Type (0, 1), BuildingBlock: XIVTED_clean_linker_0, # of connection points: 2
#     Edge 113, Type (0, 1), BuildingBlock: XIVTED_clean_linker_0, # of connection points: 2
#     Edge 114, Type (0, 1), BuildingBlock: XIVTED_clean_linker_0, # of connection points: 2
#     Edge 115, Type (0, 1), BuildingBlock: XIVTED_clean_linker_0, # of connection points: 2
#     Edge 116, Type (0, 1), BuildingBlock: XIVTED_clean_linker_0, # of connection points: 2
#     Edge 117, Type (0, 1), BuildingBlock: XIVTED_clean_linker_0, # of connection points: 2
#     Edge 118, Type (0, 1), BuildingBlock: XIVTED_clean_linker_0, # of connection points: 2
#     Edge 119, Type (0, 1), BuildingBlock: XIVTED_clean_linker_0, # of connection points: 2
#     Edge 120, Type (0, 1), BuildingBlock: XIVTED_clean_linker_0, # of connection points: 2
#     Edge 121, Type (0, 1), BuildingBlock: XIVTED_clean_linker_0, # of connection points: 2
#     Edge 122, Type (0, 1), BuildingBlock: XIVTED_clean_linker_0, # of connection points: 2
#     Edge 123, Type (0, 1), BuildingBlock: XIVTED_clean_linker_0, # of connection points: 2
#     Edge 124, Type (0, 1), BuildingBlock: XIVTED_clean_linker_0, # of connection points: 2
#     Edge 125, Type (0, 1), BuildingBlock: XIVTED_clean_linker_0, # of connection points: 2
#     Edge 126, Type (0, 1), BuildingBlock: XIVTED_clean_linker_0, # of connection points: 2
#     Edge 127, Type (0, 1), BuildingBlock: XIVTED_clean_linker_0, # of connection points: 2
#     Edge 128, Type (0, 1), BuildingBlock: XIVTED_clean_linker_0, # of connection points: 2
#     Edge 129, Type (0, 1), BuildingBlock: XIVTED_clean_linker_0, # of connection points: 2
#     Edge 130, Type (0, 1), BuildingBlock: XIVTED_clean_linker_0, # of connection points: 2
#     Edge 131, Type (0, 1), BuildingBlock: XIVTED_clean_linker_0, # of connection points: 2
#     Edge 132, Type (0, 1), BuildingBlock: XIVTED_clean_linker_0, # of connection points: 2
#     Edge 133, Type (0, 1), BuildingBlock: XIVTED_clean_linker_0, # of connection points: 2
#     Edge 134, Type (0, 1), BuildingBlock: XIVTED_clean_linker_0, # of connection points: 2
#     Edge 135, Type (0, 1), BuildingBlock: XIVTED_clean_linker_0, # of connection points: 2
# Relax obj value: 0.232
# Max RMSD: 0.311
# Mean RMSD: 0.159
data_MOF--net-gar--node1-GALJAG_clean_sbu_0--node2-NUHQIS_clean_sbu_0--edge1-XIVTED_clean_linker_0
_symmetry_space_group_name_H-M    P1
_symmetry_Int_Tables_number       1
_symmetry_cell_setting            triclinic
loop_
_symmetry_equiv_pos_as_xyz
'x, y, z'
_cell_length_a     56.859576
_cell_length_b     59.900136
_cell_length_c     56.666427
_cell_angle_alpha  93.083685
_cell_angle_beta   96.205654
_cell_angle_gamma 99.812998
loop_
_atom_site_label
_atom_site_type_symbol
_atom_site_fract_x
_atom_site_fract_y
_atom_site_fract_z
_atom_type_partial_charge
In0 In 0.0861 0.29998 0.42278 0.0
O1 O 0.10745 0.29391 0.38922 0.0
O2 O 0.1288 0.30885 0.42006 0.0
C3 C 0.03983 0.29735 0.39687 0.0
C4 C 0.0833 0.25668 0.44536 0.0
C5 C 0.08745 0.34534 0.4452 0.0
O6 O 0.05942 0.30257 0.38814 0.0
O7 O 0.04332 0.29272 0.41835 0.0
O8 O 0.08996 0.32803 0.45668 0.0
O9 O 0.08498 0.33998 0.42308 0.0
C10 C 0.12869 0.30184 0.39852 0.0
O11 O 0.08828 0.2762 0.4566 0.0
O12 O 0.07985 0.25891 0.42322 0.0
In13 In 0.06324 0.80665 0.65445 0.0
O14 O 0.06016 0.83066 0.62102 0.0
O15 O 0.07248 0.84764 0.65413 0.0
C16 C 0.06114 0.76178 0.63044 0.0
C17 C 0.10982 0.81118 0.68014 0.0
C18 C 1.0207 0.80308 0.67926 0.0
O19 O 0.05865 0.77949 0.61966 0.0
O20 O 0.06358 0.76643 0.65269 0.0
O21 O 0.04042 0.79769 0.68737 0.0
O22 O 1.02198 0.80991 0.6586 0.0
C23 C 0.06719 0.85006 0.63222 0.0
O24 O 0.09197 0.81689 0.68893 0.0
O25 O 0.10451 0.80397 0.65853 0.0
In26 In 0.58681 0.80027 0.9238 0.0
O27 O 0.60783 0.79389 0.89006 0.0
O28 O 0.62937 0.80931 0.92061 0.0
C29 C 0.5401 0.79772 0.89867 0.0
C30 C 0.5847 0.75702 0.94633 0.0
C31 C 0.58865 0.84565 0.9463 0.0
O32 O 0.55947 0.80297 0.88955 0.0
O33 O 0.54405 0.79303 0.92008 0.0
O34 O 0.59034 0.82819 0.95778 0.0
O35 O 0.58678 0.8404 0.92418 0.0
C36 C 0.6291 0.80204 0.89913 0.0
O37 O 0.58071 0.75923 0.92422 0.0
O38 O 0.58986 0.77655 0.95756 0.0
In39 In 0.56324 0.30651 0.15451 0.0
O40 O 0.55812 0.27861 0.1202 0.0
O41 O 0.56435 0.26654 0.15358 0.0
C42 C 0.56751 0.35014 0.13283 0.0
C43 C 0.5206 0.30331 0.179 0.0
C44 C 0.60996 0.31098 0.17953 0.0
O45 O 0.56078 0.33088 0.12126 0.0
O46 O 0.57227 0.34744 0.15474 0.0
O47 O 0.59211 0.31598 0.18892 0.0
O48 O 0.60452 0.30454 0.15773 0.0
C49 C 0.56133 0.2613 0.13142 0.0
O50 O 0.54048 0.29863 0.18768 0.0
O51 O 0.52181 0.3092 0.15798 0.0
In52 In 0.11679 0.85154 0.16325 0.0
O53 O 0.14209 0.83467 0.14291 0.0
O54 O 0.10464 0.82536 0.13192 0.0
C55 C 0.11279 0.88806 0.13935 0.0
C56 C 0.07893 0.84002 0.18674 0.0
C57 C 0.14931 0.85104 0.20093 0.0
O58 O 0.09473 0.8742 0.14356 0.0
O59 O 0.13283 0.88394 0.14801 0.0
O60 O 0.14763 0.8691 0.1908 0.0
O61 O 0.13488 0.8336 0.19185 0.0
C62 C 0.12559 0.82256 0.12884 0.0
O63 O 0.09248 0.85921 0.19066 0.0
O64 O 0.08407 0.82717 0.1704 0.0
In65 In 0.53375 0.73575 0.41092 0.0
O66 O 0.55749 0.72106 0.38626 0.0
O67 O 0.55677 0.75661 0.38765 0.0
C68 C 0.49084 0.71342 0.39017 0.0
C69 C 0.55307 0.71862 0.44945 0.0
C70 C 0.52728 0.77797 0.42324 0.0
O71 O 0.51002 0.71268 0.38116 0.0
O72 O 0.49366 0.72416 0.4103 0.0
O73 O 0.53443 0.7652 0.43836 0.0
O74 O 0.52293 0.76927 0.40216 0.0
C75 C 0.56465 0.74015 0.3785 0.0
O76 O 0.56544 0.73226 0.43751 0.0
O77 O 0.53124 0.71275 0.44124 0.0
In78 In 0.63581 0.37235 0.67767 0.0
O79 O 0.62559 0.34177 0.65087 0.0
O80 O 0.63282 0.33598 0.68748 0.0
C81 C 0.63126 0.4035 0.64669 0.0
C82 C 0.59803 0.37302 0.70147 0.0
C83 C 0.68176 0.38009 0.69682 0.0
O84 O 0.63635 0.38452 0.64064 0.0
O85 O 0.62973 0.40715 0.66853 0.0
O86 O 0.66546 0.3864 0.70756 0.0
O87 O 0.67497 0.3713 0.67599 0.0
C88 C 0.62696 0.32755 0.66637 0.0
O89 O 0.61932 0.37767 0.71173 0.0
O90 O 0.59601 0.36841 0.67928 0.0
In91 In 1.02983 0.2348 0.9217 0.0
O92 O 1.0263 0.2154 0.95486 0.0
O93 O 0.06097 0.22429 0.94362 0.0
C94 C 1.02246 0.27515 0.93931 0.0
C95 C 0.06053 0.24768 0.89046 0.0
C96 C 0.99143 0.2084 0.89637 0.0
O97 O 0.03901 0.26547 0.94811 0.0
O98 O 1.00913 0.26422 0.92173 0.0
O99 O 1.01207 0.21111 0.88969 0.0
O100 O 0.99059 0.21783 0.91663 0.0
C101 C 0.04858 0.2157 0.95905 0.0
O102 O 0.05723 0.22773 0.89722 0.0
O103 O 0.04821 0.26088 0.89929 0.0
In104 In 0.5334 0.12254 0.31976 0.0
O105 O 0.55675 0.1439 0.29601 0.0
O106 O 0.56519 0.11175 0.30462 0.0
C107 C 0.55544 0.13621 0.36385 0.0
C108 C 0.4994 0.14396 0.29981 0.0
C109 C 0.50872 0.07988 0.32101 0.0
O110 O 0.56544 0.12719 0.34799 0.0
O111 O 0.53406 0.13853 0.3575 0.0
O112 O 0.51096 0.09471 0.33811 0.0
O113 O 0.51951 0.08632 0.30363 0.0
C114 C 0.5704 0.12952 0.29389 0.0
O115 O 0.5035 0.12546 0.29099 0.0
O116 O 0.51304 0.15216 0.31845 0.0
In117 In 0.34367 0.17851 0.53482 0.0
O118 O 0.35341 0.21054 0.56361 0.0
O119 O 0.33573 0.18018 0.57506 0.0
C120 C 0.34252 0.20149 0.49126 0.0
C121 C 0.38482 0.15603 0.53741 0.0
C122 C 0.29653 0.15377 0.53384 0.0
O123 O 0.34925 0.21137 0.51179 0.0
O124 O 0.33644 0.18036 0.49254 0.0
O125 O 0.31473 0.14454 0.53174 0.0
O126 O 0.30188 0.17522 0.5358 0.0
C127 C 0.34435 0.20088 0.58075 0.0
O128 O 0.36393 0.14708 0.52798 0.0
O129 O 0.38516 0.17611 0.54573 0.0
In130 In 0.25586 0.06342 0.85219 0.0
O131 O 0.22635 0.04225 0.82588 0.0
O132 O 0.25274 0.06596 0.81216 0.0
C133 C 0.23263 0.0555 0.89009 0.0
C134 C 0.29373 0.04204 0.85669 0.0
C135 C 0.26072 0.10877 0.85725 0.0
O136 O 0.22315 0.04836 0.86929 0.0
O137 O 0.25391 0.06617 0.89168 0.0
O138 O 0.27764 0.09837 0.86339 0.0
O139 O 0.24131 0.09628 0.84841 0.0
C140 C 0.23358 0.05153 0.80789 0.0
O141 O 0.29464 0.06097 0.84783 0.0
O142 O 0.27348 0.03352 0.86237 0.0
In143 In 0.34773 0.88871 0.05356 0.0
O144 O 0.32912 0.86342 0.07713 0.0
O145 O 0.36727 0.87 0.08099 0.0
C146 C 0.33469 0.87304 1.00785 0.0
C147 C 0.31966 0.91868 0.06428 0.0
C148 C 0.39258 0.91165 0.05675 0.0
O149 O 0.34013 0.86012 0.02368 0.0
O150 O 0.33573 0.89342 1.01522 0.0
O151 O 0.37876 0.91414 0.07229 0.0
O152 O 0.3839 0.89709 0.03967 0.0
C153 C 0.34844 0.86006 0.08834 0.0
O154 O 0.34171 0.92429 0.06256 0.0
O155 O 0.31143 0.89771 0.06045 0.0
In156 In 0.30703 0.42565 0.04276 0.0
O157 O 0.29599 0.3943 0.06654 0.0
O158 O 0.31839 0.42279 0.08421 0.0
C159 C 0.3054 0.40179 0.99743 0.0
C160 C 0.26591 0.44785 0.04194 0.0
C161 C 0.35388 0.45113 0.04271 0.0
O162 O 0.30938 0.39339 0.01721 0.0
O163 O 0.3014 0.42186 1.00028 0.0
O164 O 0.34844 0.42982 0.03897 0.0
O165 O 0.33585 0.45996 0.0467 0.0
C166 C 0.30737 0.40295 0.08626 0.0
O167 O 0.28732 0.45747 0.04891 0.0
O168 O 0.26502 0.42719 0.03524 0.0
In169 In 0.82185 0.20684 0.03566 0.0
O170 O 0.83783 0.17631 0.02579 0.0
O171 O 0.86183 0.20789 0.03351 0.0
C172 C 0.77925 0.18054 0.03746 0.0
C173 C 0.82952 0.22581 0.08052 0.0
C174 C 0.81768 0.22755 0.99486 0.0
O175 O 0.79878 0.17317 0.03988 0.0
O176 O 0.78116 0.20149 0.03449 0.0
O177 O 0.82895 0.23793 1.01384 0.0
O178 O 0.80842 0.20718 0.99677 0.0
C179 C 0.85914 0.1869 0.02762 0.0
O180 O 0.8219 0.23613 0.06322 0.0
O181 O 0.8336 0.20632 0.07503 0.0
In182 In 0.1339 0.46748 0.25326 0.0
O183 O 0.17 0.4699 0.27511 0.0
O184 O 0.14938 0.43687 0.26729 0.0
C185 C 0.15244 0.51188 0.2524 0.0
C186 C 0.11638 0.44913 0.20896 0.0
C187 C 0.09572 0.46783 0.27712 0.0
O188 O 0.14349 0.50354 0.27008 0.0
O189 O 0.15173 0.49784 0.23477 0.0
O190 O 0.11049 0.45463 0.28159 0.0
O191 O 0.10024 0.48065 0.26063 0.0
C192 C 0.16829 0.44906 0.27786 0.0
O193 O 0.10392 0.4489 0.226 0.0
O194 O 0.13837 0.45731 0.21458 0.0
In195 In 0.80453 0.92607 0.5441 0.0
O196 O 0.79477 0.89478 0.56848 0.0
O197 O 0.8146 0.92462 0.58603 0.0
C198 C 0.8031 0.90175 0.49892 0.0
C199 C 0.76325 0.94807 0.54282 0.0
C200 C 0.8513 0.95166 0.54357 0.0
O201 O 0.80884 0.89423 0.5188 0.0
O202 O 0.79712 0.92105 0.5016 0.0
O203 O 0.83304 0.9606 0.54625 0.0
O204 O 0.84611 0.93026 0.54145 0.0
C205 C 0.80494 0.90437 0.58832 0.0
O206 O 0.78473 0.95795 0.549 0.0
O207 O 0.76232 0.92716 0.53715 0.0
In208 In 0.94035 0.0374 0.23958 0.0
O209 O 0.95235 0.0612 0.21187 0.0
O210 O 0.94689 0.02552 0.20294 0.0
C211 C 0.98458 0.04864 0.26374 0.0
C212 C 0.90577 0.05933 0.25181 0.0
C213 C 0.92112 0.9943 0.24444 0.0
O214 O 0.97791 0.03081 0.25018 0.0
O215 O 0.96881 0.06099 0.26532 0.0
O216 O 0.91426 1.00494 0.22714 0.0
O217 O 0.93719 1.00562 0.2596 0.0
C218 C 0.95341 0.04529 0.19671 0.0
O219 O 0.91956 0.05163 0.26703 0.0
O220 O 0.90955 0.05602 0.2305 0.0
In221 In 0.31578 0.70908 0.53815 0.0
O222 O 0.33141 0.67693 0.53577 0.0
O223 O 0.35344 0.70762 0.52869 0.0
C224 C 0.27515 0.6788 0.53523 0.0
C225 C 0.32436 0.72899 0.58245 0.0
C226 C 0.30993 0.73614 0.50243 0.0
O227 O 0.28856 0.68036 0.51882 0.0
O228 O 0.28202 0.69285 0.55309 0.0
O229 O 0.32916 0.73867 0.51643 0.0
O230 O 0.29349 0.72075 0.50717 0.0
C231 C 0.35131 0.68648 0.53024 0.0
O232 O 0.31318 0.73741 0.56566 0.0
O233 O 0.33132 0.71081 0.57676 0.0
In234 In 0.4252 0.52961 0.72785 0.0
O235 O 0.39472 0.54862 0.7186 0.0
O236 O 0.40451 0.54401 0.75515 0.0
C237 C 0.40547 0.48593 0.71785 0.0
C238 C 0.44628 0.54338 0.69007 0.0
C239 C 0.46122 0.53351 0.76355 0.0
O240 O 0.39283 0.50132 0.71823 0.0
O241 O 0.42783 0.49276 0.7221 0.0
O242 O 0.4434 0.51753 0.76114 0.0
O243 O 0.46047 0.54818 0.7485 0.0
C244 C 0.39104 0.55207 0.73994 0.0
O245 O 0.44241 0.55727 0.70609 0.0
O246 O 0.43842 0.52282 0.69263 0.0
In247 In 0.62303 0.98448 0.74925 0.0
O248 O 0.65057 0.96211 0.74546 0.0
O249 O 0.6392 0.96595 0.77973 0.0
C250 C 0.65367 0.02428 0.75109 0.0
C251 C 0.60034 0.96248 0.7084 0.0
C252 C 0.5872 0.99874 0.7694 0.0
O253 O 0.65179 1.01234 0.76866 0.0
O254 O 0.64008 1.01614 0.73241 0.0
O255 O 0.59447 0.98062 0.77484 0.0
O256 O 0.59789 1.00926 0.75384 0.0
C257 C 0.65318 0.95794 0.76703 0.0
O258 O 0.59131 0.96076 0.72774 0.0
O259 O 0.62083 0.97485 0.70988 0.0
In260 In 0.84754 0.67992 0.03624 0.0
O261 O 0.86721 0.64788 0.03102 0.0
O262 O 0.88959 0.67818 0.04441 0.0
C263 C 0.80043 0.65492 0.0359 0.0
C264 C 0.8484 0.70308 0.08194 0.0
C265 C 0.84728 0.70235 0.99232 0.0
O266 O 0.81828 0.64589 0.03173 0.0
O267 O 0.80617 0.67619 0.03987 0.0
O268 O 0.85798 0.71143 1.01219 0.0
O269 O 0.83699 0.68226 0.99445 0.0
C270 C 0.88862 0.65738 0.03818 0.0
O271 O 0.84578 0.7122 0.06238 0.0
O272 O 0.85155 0.68277 0.07867 0.0
In273 In 1.022 0.6358 0.84473 0.0
O274 O 0.98473 0.63559 0.85532 0.0
O275 O 1.0011 0.66444 0.83883 0.0
C276 C 1.00553 0.59045 0.8403 0.0
C277 C 0.04253 0.64642 0.80538 0.0
C278 C 0.0557 0.65021 0.88184 0.0
O279 O 1.01137 0.60153 0.86022 0.0
O280 O 1.00854 0.6021 0.82269 0.0
O281 O 0.05734 0.63486 0.86635 0.0
O282 O 0.03675 0.65856 0.87875 0.0
C283 C 0.98261 0.65431 0.84689 0.0
O284 O 0.05439 0.64259 0.82435 0.0
O285 O 1.02038 0.64558 0.80652 0.0
In286 In 0.846 0.39051 0.54873 0.0
O287 O 0.84678 0.36022 0.5716 0.0
O288 O 0.85603 0.39366 0.58851 0.0
C289 C 0.84012 0.36326 0.50824 0.0
C290 C 0.80849 0.41214 0.55028 0.0
C291 C 0.88474 0.42307 0.54858 0.0
O292 O 0.82293 0.36521 0.52005 0.0
O293 O 0.86028 0.37387 0.51766 0.0
O294 O 0.86387 0.42548 0.54053 0.0
O295 O 0.88629 0.40392 0.55623 0.0
C296 C 0.85353 0.37262 0.59073 0.0
O297 O 0.8232 0.41557 0.5352 0.0
O298 O 0.81208 0.39699 0.56419 0.0
In299 In 0.73221 0.55627 0.33305 0.0
O300 O 0.76984 0.55277 0.32523 0.0
O301 O 0.75163 0.52844 0.34607 0.0
C302 C 0.74398 0.6012 0.32945 0.0
C303 C 0.69951 0.53224 0.29909 0.0
C304 C 0.7111 0.5591 0.37245 0.0
O305 O 0.75218 0.59135 0.34674 0.0
O306 O 0.73034 0.58829 0.31345 0.0
O307 O 0.70176 0.56385 0.35256 0.0
O308 O 0.73117 0.55278 0.37247 0.0
C309 C 0.77062 0.53571 0.33721 0.0
O310 O 0.69709 0.5323 0.32091 0.0
O311 O 0.71914 0.54342 0.29436 0.0
Tb312 Tb 0.08646 0.06889 0.03959 0.0
Eu313 Eu 0.13361 0.07829 0.08023 0.0
C314 C 0.13694 0.06905 0.02469 0.0
C315 C 0.10816 0.02901 0.06074 0.0
C316 C 1.03076 0.07769 1.00743 0.0
C317 C 0.99081 0.08257 0.99187 0.0
C318 C 1.00943 0.07006 0.99236 0.0
C319 C 1.0336 0.09803 0.02172 0.0
C320 C 1.01506 0.11048 0.02129 0.0
C321 C 0.99338 0.10276 1.00655 0.0
C322 C 0.04954 0.06389 1.00979 0.0
O323 O 0.07509 0.0833 0.07112 0.0
O324 O 0.10023 0.0689 0.0981 0.0
O325 O 0.12057 0.11121 0.07967 0.0
O326 O 0.10335 0.10446 0.04074 0.0
C327 C 0.08013 0.07629 0.09219 0.0
O328 O 0.1518 0.06886 0.11305 0.0
O329 O 0.16962 0.09607 0.09405 0.0
O330 O 0.14619 0.08203 0.04403 0.0
O331 O 0.11471 0.05823 0.02205 0.0
O332 O 0.08831 0.03703 0.05565 0.0
O333 O 0.12902 0.04246 0.06512 0.0
C334 C 0.11176 0.11825 0.05976 0.0
O335 O 0.0707 0.07398 1.00555 0.0
O336 O 0.05062 0.05346 0.02938 0.0
C337 C 0.19107 0.06795 0.10639 0.0
C338 C 0.22064 0.0357 0.10017 0.0
C339 C 0.22193 0.04775 0.12241 0.0
C340 C 0.20698 0.06371 0.12557 0.0
C341 C 0.19064 0.05662 0.08396 0.0
C342 C 0.20524 0.0406 0.08089 0.0
C343 C 0.17225 0.08122 0.10976 0.0
H344 H 0.97435 0.07636 0.98019 0.0
H345 H 1.00703 0.05429 0.98135 0.0
H346 H 0.04995 0.10397 0.03366 0.0
H347 H 1.01744 0.12574 0.03309 0.0
H348 H 0.23372 0.04413 0.1375 0.0
H349 H 0.20721 0.07207 0.14304 0.0
H350 H 0.17827 0.0595 0.06898 0.0
H351 H 0.20419 0.03175 0.06352 0.0
Tb352 Tb 0.34678 0.82146 0.30722 0.0
Eu353 Eu 0.31637 0.77175 0.28366 0.0
C354 C 0.29183 0.81466 0.29076 0.0
C355 C 0.31933 0.786 0.33953 0.0
C356 C 0.38024 0.88212 0.31986 0.0
C357 C 0.38484 0.9226 0.3304 0.0
C358 C 0.37371 0.90032 0.3327 0.0
C359 C 0.39737 0.88663 0.30384 0.0
C360 C 0.40861 0.90892 0.30161 0.0
C361 C 0.40292 0.92711 0.31535 0.0
C362 C 0.37097 0.85877 0.32553 0.0
O363 O 0.36452 0.79438 0.31973 0.0
O364 O 0.356 0.77249 0.28518 0.0
O365 O 0.32166 0.79425 0.25416 0.0
O366 O 0.35533 0.81924 0.27054 0.0
C367 C 0.36891 0.77787 0.30578 0.0
O368 O 0.3146 0.73537 0.27737 0.0
O369 O 0.28728 0.75172 0.25901 0.0
O370 O 0.28986 0.79297 0.29433 0.0
O371 O 0.31284 0.82739 0.28949 0.0
O372 O 0.32777 0.80724 0.33582 0.0
O373 O 0.31604 0.76923 0.32289 0.0
C374 C 0.34045 0.80958 0.25198 0.0
O375 O 0.34778 0.85311 0.32555 0.0
O376 O 0.38036 0.84236 0.31637 0.0
C377 C 0.27627 0.71253 0.26497 0.0
C378 C 0.2442 0.67104 0.26416 0.0
C379 C 0.26288 0.67739 0.28293 0.0
C380 C 0.2788 0.69796 0.28333 0.0
C381 C 0.2571 0.70661 0.24674 0.0
C382 C 0.24116 0.6861 0.24637 0.0
C383 C 0.29463 0.73262 0.26295 0.0
H384 H 0.37971 0.93625 0.34088 0.0
H385 H 0.36058 0.89726 0.3452 0.0
H386 H 0.4028 0.87292 0.2937 0.0
H387 H 0.42258 0.91176 0.28999 0.0
H388 H 0.26582 0.66605 0.29678 0.0
H389 H 0.29351 0.70205 0.29757 0.0
H390 H 0.25487 0.71755 0.23235 0.0
H391 H 0.22672 0.68183 0.23189 0.0
Tb392 Tb 0.56173 0.03672 0.51831 0.0
Eu393 Eu 0.58624 0.06698 0.56585 0.0
C394 C 0.55691 1.0166 0.56793 0.0
C395 C 0.53333 0.07479 0.5425 0.0
C396 C 0.53821 0.99014 0.4723 0.0
C397 C 0.51473 0.95203 0.46693 0.0
C398 C 0.51646 0.97515 0.47291 0.0
C399 C 0.55796 0.98175 0.46463 0.0
C400 C 0.55612 0.95864 0.45835 0.0
C401 C 0.53462 0.94361 0.45984 0.0
C402 C 0.54038 1.01401 0.48117 0.0
O403 O 0.58658 0.06477 0.5073 0.0
O404 O 0.5853 0.0912 0.53717 0.0
O405 O 0.61463 0.04572 0.55559 0.0
O406 O 0.59388 1.02043 0.52554 0.0
C407 C 0.58907 0.08596 0.51546 0.0
O408 O 0.61822 0.08942 0.58335 0.0
O409 O 0.58864 0.07787 0.60346 0.0
O410 O 0.56311 0.03703 0.57852 0.0
O411 O 0.55854 1.01245 0.54533 0.0
O412 O 0.53448 0.05847 0.52602 0.0
O413 O 0.55132 0.08115 0.55961 0.0
C414 C 0.61363 0.0278 0.54048 0.0
O415 O 0.53021 1.01723 0.50031 0.0
O416 O 0.56151 0.02684 0.48218 0.0
C417 C 0.60858 0.1154 0.61101 0.0
C418 C 0.60971 0.16142 0.62372 0.0
C419 C 0.59322 0.15016 0.60482 0.0
C420 C 0.5927 0.12732 0.59849 0.0
C421 C 0.62484 0.12637 0.63007 0.0
C422 C 0.6254 0.14931 0.63644 0.0
C423 C 0.60883 0.09191 0.60313 0.0
H424 H 0.49789 0.9407 0.46789 0.0
H425 H 0.50094 0.98125 0.47861 0.0
H426 H 0.57498 0.99287 0.46396 0.0
H427 H 0.57169 0.95243 0.45298 0.0
H428 H 0.58074 0.15901 0.59492 0.0
H429 H 0.58012 0.11902 0.5836 0.0
H430 H 0.63733 0.11734 0.63971 0.0
H431 H 0.63847 0.15769 0.65091 0.0
Tb432 Tb 0.29772 0.30215 0.77895 0.0
Eu433 Eu 0.35081 0.29677 0.80045 0.0
C434 C 0.34198 0.33684 0.76868 0.0
C435 C 0.32991 0.2776 0.74593 0.0
C436 C 0.23376 0.30711 0.77174 0.0
C437 C 0.19061 0.29514 0.76792 0.0
C438 C 0.21203 0.29832 0.75768 0.0
C439 C 0.23387 0.31365 0.7959 0.0
C440 C 0.21245 0.31067 0.80609 0.0
C441 C 0.19077 0.30084 0.7923 0.0
C442 C 0.2563 0.30683 0.76178 0.0
O443 O 0.29151 0.27739 0.80521 0.0
O444 O 0.32696 0.26423 0.80514 0.0
O445 O 0.33385 0.30794 0.83293 0.0
O446 O 0.30434 0.32397 0.81333 0.0
C447 C 0.30498 0.26227 0.81056 0.0
O448 O 0.38068 0.27818 0.80237 0.0
O449 O 0.38304 0.30878 0.82525 0.0
O450 O 0.35413 0.33179 0.78794 0.0
O451 O 0.32165 0.32423 0.75967 0.0
O452 O 0.30839 0.27765 0.75284 0.0
O453 O 0.3492 0.28768 0.76016 0.0
C454 C 0.31761 0.32123 0.83342 0.0
O455 O 0.2737 0.32383 0.76886 0.0
O456 O 0.26362 0.28737 0.76208 0.0
C457 C 0.41653 0.30414 0.80697 0.0
C458 C 0.45737 0.32414 0.7873 0.0
C459 C 0.45972 0.31122 0.80718 0.0
C460 C 0.43929 0.30125 0.81703 0.0
C461 C 0.41423 0.31722 0.78739 0.0
C462 C 0.43446 0.3273 0.77776 0.0
C463 C 0.39475 0.29402 0.8165 0.0
H464 H 0.17405 0.28759 0.75699 0.0
H465 H 0.21178 0.29306 0.73905 0.0
H466 H 0.25059 0.32016 0.80708 0.0
H467 H 0.21303 0.31489 0.825 0.0
H468 H 0.47721 0.30843 0.81473 0.0
H469 H 0.44122 0.2912 0.83222 0.0
H470 H 0.39669 0.31956 0.77948 0.0
H471 H 0.43212 0.3375 0.76274 0.0
Tb472 Tb 0.07409 0.04176 0.51532 0.0
Eu473 Eu 0.0725 0.06603 0.56593 0.0
C474 C 0.12373 0.07055 0.54264 0.0
C475 C 0.0772 1.01052 0.56079 0.0
C476 C 0.08002 0.03434 0.45134 0.0
C477 C 0.09632 0.02964 0.41393 0.0
C478 C 0.09256 0.02245 0.4365 0.0
C479 C 0.07292 0.05448 0.44411 0.0
C480 C 0.07628 0.06143 0.42149 0.0
C481 C 0.08713 0.04858 0.40568 0.0
C482 C 0.07315 0.025 0.47356 0.0
O483 O 0.03829 0.02743 0.52551 0.0
O484 O 1.03294 0.05636 0.55069 0.0
O485 O 0.07035 0.09625 0.54256 0.0
O486 O 0.07149 0.07787 0.50633 0.0
C487 C 1.02399 0.0373 0.53778 0.0
O488 O 0.05534 0.06679 0.59855 0.0
O489 O 0.0864 0.09203 0.59488 0.0
O490 O 0.11248 0.07431 0.56123 0.0
O491 O 0.11224 0.05799 0.52371 0.0
O492 O 0.07768 1.0123 0.53756 0.0
O493 O 0.07637 0.02898 0.57457 0.0
C494 C 0.07113 0.09705 0.51935 0.0
O495 O 0.09064 0.02443 0.49031 0.0
O496 O 0.05489 0.03201 0.48181 0.0
C497 C 0.08445 0.07714 0.63201 0.0
C498 C 0.11492 0.06736 0.67109 0.0
C499 C 0.10107 0.04967 0.65573 0.0
C500 C 0.08604 0.05451 0.63628 0.0
C501 C 0.09736 0.09477 0.64798 0.0
C502 C 0.11252 0.08993 0.66738 0.0
C503 C 0.0722 0.08259 0.60944 0.0
H504 H 0.10535 1.01967 0.40253 0.0
H505 H 0.0986 1.00711 0.44199 0.0
H506 H 0.06358 0.06424 0.45541 0.0
H507 H 0.0687 0.07597 0.41594 0.0
H508 H 0.10272 0.03214 0.65805 0.0
H509 H 0.07648 0.0406 0.62406 0.0
H510 H 0.09649 0.11232 0.64489 0.0
H511 H 0.12281 0.10387 0.67915 0.0
Tb512 Tb 0.31459 0.78346 0.79913 0.0
Eu513 Eu 0.33407 0.8343 0.7852 0.0
C514 C 0.31706 0.8248 0.83535 0.0
C515 C 0.27769 0.81103 0.77064 0.0
C516 C 0.30568 0.7219 0.80496 0.0
C517 C 0.29892 0.68112 0.80732 0.0
C518 C 0.29345 0.70233 0.81367 0.0
C519 C 0.32378 0.72029 0.79037 0.0
C520 C 0.32908 0.69916 0.78385 0.0
C521 C 0.31645 0.67939 0.79199 0.0
C522 C 0.29836 0.74374 0.80945 0.0
O523 O 0.33395 0.77911 0.76856 0.0
O524 O 0.32694 0.81153 0.75205 0.0
O525 O 0.36848 0.8218 0.79971 0.0
O526 O 0.35248 0.78927 0.81625 0.0
C527 C 0.33236 0.79126 0.75006 0.0
O528 O 0.33036 0.86953 0.78235 0.0
O529 O 0.36068 0.85743 0.76904 0.0
O530 O 0.33352 0.83666 0.82448 0.0
O531 O 0.30334 0.80635 0.82494 0.0
O532 O 0.28429 0.79136 0.77479 0.0
O533 O 0.29295 0.83018 0.777 0.0
C534 C 0.37128 0.80472 0.81299 0.0
O535 O 0.31325 0.75853 0.82397 0.0
O536 O 0.29079 0.75275 0.79035 0.0
C537 C 0.36681 0.8945 0.78734 0.0
C538 C 0.38448 0.93355 0.81784 0.0
C539 C 0.3767 0.93537 0.79366 0.0
C540 C 0.36784 0.91593 0.77855 0.0
C541 C 0.37712 0.89248 0.81059 0.0
C542 C 0.38607 0.91193 0.82574 0.0
C543 C 0.35098 0.87506 0.77414 0.0
H544 H 0.28898 0.66606 0.81377 0.0
H545 H 0.27936 0.70342 0.82489 0.0
H546 H 0.33339 0.73533 0.78355 0.0
H547 H 0.34296 0.69825 0.77233 0.0
H548 H 0.37498 0.95166 0.78692 0.0
H549 H 0.35986 0.91769 0.76064 0.0
H550 H 0.37643 0.87593 0.8176 0.0
H551 H 0.39224 0.90999 0.84415 0.0
Tb552 Tb 0.58958 0.04908 0.06143 0.0
Eu553 Eu 0.56622 0.06125 1.01044 0.0
C554 C 0.58256 1.01054 0.01744 0.0
C555 C 0.62031 0.07824 0.02877 0.0
C556 C 0.62449 0.05753 0.12079 0.0
C557 C 0.63986 0.09599 0.13766 0.0
C558 C 0.63144 0.08074 0.11785 0.0
C559 C 0.62768 0.04947 0.14339 0.0
C560 C 0.63604 0.06468 0.1632 0.0
C561 C 0.64123 0.08822 0.16067 0.0
C562 C 0.61101 0.04224 0.10111 0.0
O563 O 0.58579 0.08575 0.06849 0.0
O564 O 0.56013 0.09088 0.03585 0.0
O565 O 0.53836 0.03502 0.02215 0.0
O566 O 0.55151 0.03655 0.06195 0.0
C567 C 0.57187 0.09856 0.05709 0.0
O568 O 0.53629 0.06863 0.98628 0.0
O569 O 0.57141 0.06698 0.97355 0.0
O570 O 0.57946 0.02689 1.00298 0.0
O571 O 0.5841 1.01524 0.04081 0.0
O572 O 0.61846 0.05979 0.04018 0.0
O573 O 0.60113 0.08484 0.0191 0.0
C574 C 0.53532 0.02941 0.04367 0.0
O575 O 0.58826 0.04326 0.09747 0.0
O576 O 0.6206 0.04219 0.0813 0.0
C577 C 0.53973 0.07502 0.94465 0.0
C578 C 0.52522 0.07128 0.89548 0.0
C579 C 0.50843 0.06462 0.91137 0.0
C580 C 0.51565 0.06654 0.93588 0.0
C581 C 0.55567 0.08428 0.92908 0.0
C582 C 0.54844 0.08255 0.90467 0.0
C583 C 0.54923 0.06999 0.9685 0.0
H584 H 0.64394 0.11397 0.13511 0.0
H585 H 0.62908 0.08721 0.10041 0.0
H586 H 0.62229 0.0316 0.1459 0.0
H587 H 0.6365 0.05807 0.18063 0.0
H588 H 0.49036 0.05612 0.90477 0.0
H589 H 0.50302 0.05938 0.94765 0.0
H590 H 0.5743 0.09108 0.93553 0.0
H591 H 0.56188 0.08782 0.89296 0.0
Tb592 Tb 0.33666 0.3252 0.30209 0.0
Eu593 Eu 0.31166 0.27804 0.27386 0.0
C594 C 0.33358 0.27904 0.33076 0.0
C595 C 0.36932 0.29916 0.26977 0.0
C596 C 0.34347 0.37552 0.34319 0.0
C597 C 0.30904 0.37377 0.36524 0.0
C598 C 0.32702 0.36343 0.35673 0.0
C599 C 0.34426 0.39889 0.34176 0.0
C600 C 0.3261 0.40913 0.34993 0.0
C601 C 0.30705 0.39604 0.35972 0.0
C602 C 0.35286 0.36329 0.32427 0.0
O603 O 0.32972 0.33477 0.26473 0.0
O604 O 0.30384 0.30369 0.24672 0.0
O605 O 0.27979 0.28863 0.29065 0.0
O606 O 0.29959 0.3203 0.31359 0.0
C607 C 0.31551 0.32456 0.24579 0.0
O608 O 0.30516 0.25584 0.24114 0.0
O609 O 0.28891 0.24456 0.27198 0.0
O610 O 0.32445 0.26688 0.31068 0.0
O611 O 0.33978 0.30139 0.33078 0.0
O612 O 0.36724 0.31716 0.28353 0.0
O613 O 0.35128 0.28167 0.2659 0.0
C614 C 0.27979 0.30492 0.30732 0.0
O615 O 0.36103 0.3448 0.3293 0.0
O616 O 0.33836 0.36029 0.30451 0.0
C617 C 0.30634 0.21821 0.25018 0.0
C618 C 0.34202 0.19113 0.25467 0.0
C619 C 0.33681 0.20076 0.23311 0.0
C620 C 0.31898 0.21416 0.23084 0.0
C621 C 0.30931 0.20593 0.27043 0.0
C622 C 0.32708 0.19254 0.27266 0.0
C623 C 0.29475 0.23844 0.2513 0.0
H624 H 0.29511 0.36355 0.37356 0.0
H625 H 0.32615 0.34535 0.35814 0.0
H626 H 0.35682 0.40848 0.33136 0.0
H627 H 0.32537 0.42639 0.34554 0.0
H628 H 0.34798 0.1998 0.2189 0.0
H629 H 0.31676 0.22312 0.21486 0.0
H630 H 0.29951 0.20824 0.28547 0.0
H631 H 0.33041 0.18477 0.28925 0.0
Tb632 Tb 0.57789 0.54221 1.01606 0.0
Eu633 Eu 0.57592 0.56644 0.0667 0.0
C634 C 0.62644 0.57304 0.04219 0.0
C635 C 0.57907 0.5105 0.06116 0.0
C636 C 0.58369 0.53193 0.95131 0.0
C637 C 0.59127 0.52019 0.9117 0.0
C638 C 0.59196 0.51675 0.93591 0.0
C639 C 0.57749 0.552 0.94287 0.0
C640 C 0.57644 0.55529 0.91863 0.0
C641 C 0.58175 0.53861 0.90258 0.0
C642 C 0.57779 0.52476 0.97462 0.0
O643 O 0.54134 0.52785 0.02452 0.0
O644 O 0.53625 0.55306 0.0543 0.0
O645 O 0.57398 0.59673 0.04339 0.0
O646 O 0.57557 0.57842 1.00716 0.0
C647 C 0.5274 0.5356 0.039 0.0
O648 O 0.5571 0.58059 0.09404 0.0
O649 O 0.59493 0.57913 0.10141 0.0
O650 O 0.61366 0.58072 0.05783 0.0
O651 O 0.61652 0.55594 0.02667 0.0
O652 O 0.5796 0.51235 0.03798 0.0
O653 O 0.57876 0.52903 0.07505 0.0
C654 C 0.57488 0.59754 0.02018 0.0
O655 O 0.59555 0.52557 0.9914 0.0
O656 O 0.55948 0.53208 0.98234 0.0
C657 C 0.57175 0.57119 0.1321 0.0
C658 C 0.57862 0.54729 0.17276 0.0
C659 C 0.58312 0.5712 0.17451 0.0
C660 C 0.57987 0.58307 0.15421 0.0
C661 C 0.56477 0.54747 0.13078 0.0
C662 C 0.56833 0.53556 0.15098 0.0
C663 C 0.57556 0.58262 0.1103 0.0
H664 H 0.59616 0.50738 0.89987 0.0
H665 H 0.59717 0.50134 0.94223 0.0
H666 H 0.57141 0.56415 0.95459 0.0
H667 H 0.56908 0.56971 0.91235 0.0
H668 H 0.59131 0.58064 0.19105 0.0
H669 H 0.58552 0.60136 0.15546 0.0
H670 H 0.55841 0.53804 0.1138 0.0
H671 H 0.56467 0.51716 0.14923 0.0
Tb672 Tb 0.81429 0.28285 0.2964 0.0
Eu673 Eu 0.83489 0.33322 0.28212 0.0
C674 C 0.82004 0.32424 0.33313 0.0
C675 C 0.7782 0.31131 0.26881 0.0
C676 C 0.80221 0.2208 0.30457 0.0
C677 C 0.82996 0.19465 0.31155 0.0
C678 C 0.8238 0.21593 0.31581 0.0
C679 C 0.78655 0.20387 0.2897 0.0
C680 C 0.79282 0.18268 0.28526 0.0
C681 C 0.81474 0.17802 0.29588 0.0
C682 C 0.79621 0.24365 0.30682 0.0
O683 O 0.8336 0.27758 0.26588 0.0
O684 O 0.82779 0.31023 0.2491 0.0
O685 O 0.86888 0.32027 0.29711 0.0
O686 O 0.8523 0.28742 0.31289 0.0
C687 C 0.83264 0.28973 0.2473 0.0
O688 O 0.83058 0.36803 0.27757 0.0
O689 O 0.86236 0.35651 0.26707 0.0
O690 O 0.83627 0.33551 0.32156 0.0
O691 O 0.80473 0.30677 0.32257 0.0
O692 O 0.78454 0.29143 0.27201 0.0
O693 O 0.79374 0.33012 0.27579 0.0
C694 C 0.87129 0.30287 0.31006 0.0
O695 O 0.81011 0.25871 0.32193 0.0
O696 O 0.79067 0.25214 0.28675 0.0
C697 C 0.86605 0.39431 0.28315 0.0
C698 C 0.878 0.43538 0.3114 0.0
C699 C 0.87307 0.43532 0.28648 0.0
C700 C 0.86704 0.41487 0.27248 0.0
C701 C 0.87407 0.39428 0.30744 0.0
C702 C 0.88021 0.41477 0.32149 0.0
C703 C 0.85166 0.37384 0.2704 0.0
H704 H 0.8471 0.19153 0.31975 0.0
H705 H 0.83624 0.2287 0.32734 0.0
H706 H 0.76975 0.20727 0.28095 0.0
H707 H 0.78073 0.17006 0.27325 0.0
H708 H 0.87105 0.45078 0.27801 0.0
H709 H 0.86083 0.4151 0.25374 0.0
H710 H 0.87341 0.37843 0.31591 0.0
H711 H 0.88436 0.41428 0.34055 0.0
Tb712 Tb 0.08652 0.54882 0.55881 0.0
Eu713 Eu 0.06514 0.56236 0.5077 0.0
C714 C 0.07955 0.51066 0.51386 0.0
C715 C 0.12031 0.57244 0.52544 0.0
C716 C 0.09735 0.55327 0.62192 0.0
C717 C 0.10772 0.56721 0.6633 0.0
C718 C 0.11182 0.55383 0.64364 0.0
C719 C 0.07881 0.56599 0.62 0.0
C720 C 0.07499 0.57953 0.63931 0.0
C721 C 0.08933 0.58033 0.66122 0.0
C722 C 0.10274 0.54191 0.60023 0.0
O723 O 0.0839 0.58572 0.56619 0.0
O724 O 0.06054 0.59277 0.53283 0.0
O725 O 0.03629 0.53752 0.52019 0.0
O726 O 0.04805 0.54543 0.55987 0.0
C727 C 0.07138 0.59949 0.55459 0.0
O728 O 0.07027 0.57008 0.47137 0.0
O729 O 0.03598 0.57185 0.48436 0.0
O730 O 0.07521 0.52674 0.49943 0.0
O731 O 0.0825 0.5155 0.53732 0.0
O732 O 0.11629 0.55474 0.53784 0.0
O733 O 0.10259 0.58145 0.51594 0.0
C734 C 1.0318 0.53666 0.54222 0.0
O735 O 0.08442 0.52864 0.58796 0.0
O736 O 0.11461 0.55564 0.58682 0.0
C737 C 0.03579 0.55843 0.44453 0.0
C738 C 1.0223 0.52905 0.40319 0.0
C739 C 1.01773 0.52133 0.42554 0.0
C740 C 1.0246 0.53589 0.4461 0.0
C741 C 0.03854 0.56672 0.42222 0.0
C742 C 1.03184 0.55216 0.40167 0.0
C743 C 0.04788 0.57218 0.46587 0.0
H744 H 0.11891 0.56731 0.68004 0.0
H745 H 0.12641 0.5443 0.64526 0.0
H746 H 0.06764 0.56598 0.60328 0.0
H747 H 0.06109 0.58979 0.63683 0.0
H748 H 1.01015 0.50373 0.42727 0.0
H749 H 1.02247 0.52919 0.46328 0.0
H750 H 0.04733 0.58404 0.42079 0.0
H751 H 0.03597 0.55865 0.38485 0.0
Tb752 Tb 0.80049 0.80648 0.27881 0.0
Eu753 Eu 0.84926 0.79314 0.30378 0.0
C754 C 0.84967 0.838 0.27526 0.0
C755 C 0.83165 0.78024 0.24674 0.0
C756 C 0.73638 0.80225 0.26533 0.0
C757 C 0.69302 0.79484 0.25676 0.0
C758 C 0.7155 0.80544 0.25144 0.0
C759 C 0.73477 0.78812 0.28421 0.0
C760 C 0.71247 0.77747 0.28943 0.0
C761 C 0.69135 0.78083 0.27589 0.0
C762 C 0.76011 0.81265 0.25995 0.0
O763 O 0.79208 0.77144 0.28752 0.0
O764 O 0.81926 0.77316 0.32015 0.0
O765 O 0.83925 0.81718 0.33224 0.0
O766 O 0.80003 0.81706 0.31739 0.0
C767 C 0.79923 0.76351 0.30755 0.0
O768 O 0.8698 0.76667 0.31322 0.0
O769 O 0.88463 0.802 0.32419 0.0
O770 O 0.86155 0.82202 0.28187 0.0
O771 O 0.82658 0.83647 0.27626 0.0
O772 O 0.81882 0.79664 0.24811 0.0
O773 O 0.84177 0.7735 0.26665 0.0
C774 C 0.81802 0.82242 0.33494 0.0
O775 O 0.77316 0.82616 0.27699 0.0
O776 O 0.77219 0.79833 0.25112 0.0
C777 C 0.91105 0.77946 0.31178 0.0
C778 C 0.95343 0.78526 0.29002 0.0
C779 C 0.95442 0.78952 0.31477 0.0
C780 C 0.9333 0.7866 0.3256 0.0
C781 C 0.91015 0.77408 0.28727 0.0
C782 C 0.93119 0.77685 0.2765 0.0
C783 C 0.88889 0.78132 0.32201 0.0
H784 H 0.67697 0.79768 0.24607 0.0
H785 H 0.71658 0.81615 0.23664 0.0
H786 H 0.75079 0.78549 0.2951 0.0
H787 H 0.71178 0.76722 0.30461 0.0
H788 H 0.9714 0.79591 0.32556 0.0
H789 H 0.93421 0.79107 0.3445 0.0
H790 H 0.89309 0.76897 0.2762 0.0
H791 H 0.92982 0.77381 0.25734 0.0
Tb792 Tb 0.86488 0.32332 0.80785 0.0
Eu793 Eu 0.83575 0.27455 0.77946 0.0
C794 C 0.81174 0.31832 0.78472 0.0
C795 C 0.83419 0.286 0.8353 0.0
C796 C 0.89688 0.38326 0.82746 0.0
C797 C 0.90215 0.42233 0.84374 0.0
C798 C 0.8918 0.39952 0.84397 0.0
C799 C 0.91169 0.3903 0.80996 0.0
C800 C 0.92215 0.41318 0.80977 0.0
C801 C 0.91798 0.42933 0.82707 0.0
C802 C 0.88814 0.35911 0.83037 0.0
O803 O 0.88152 0.29512 0.81905 0.0
O804 O 0.87551 0.2763 0.78288 0.0
O805 O 0.84541 0.29728 0.75107 0.0
O806 O 0.87478 0.32512 0.77161 0.0
C807 C 0.88667 0.27955 0.8044 0.0
O808 O 0.83518 0.23846 0.77201 0.0
O809 O 0.80776 0.25461 0.75367 0.0
O810 O 0.80845 0.29625 0.78648 0.0
O811 O 0.83317 0.3311 0.78778 0.0
O812 O 0.84172 0.30769 0.83283 0.0
O813 O 0.83346 0.27011 0.8182 0.0
C814 C 0.86285 0.31474 0.75165 0.0
O815 O 0.86494 0.35279 0.82966 0.0
O816 O 0.89812 0.34407 0.81943 0.0
C817 C 0.79717 0.21525 0.75996 0.0
C818 C 0.76356 0.17492 0.76066 0.0
C819 C 0.78811 0.17537 0.76764 0.0
C820 C 0.80474 0.19529 0.76718 0.0
C821 C 0.77255 0.21495 0.75337 0.0
C822 C 0.7559 0.19496 0.75374 0.0
C823 C 0.81526 0.23554 0.75751 0.0
H824 H 0.89817 0.43443 0.85698 0.0
H825 H 0.88035 0.39446 0.85756 0.0
H826 H 0.91582 0.37807 0.79694 0.0
H827 H 0.93432 0.41803 0.79675 0.0
H828 H 0.79459 0.16011 0.77269 0.0
H829 H 0.82363 0.19491 0.77197 0.0
H830 H 0.76617 0.23 0.74751 0.0
H831 H 0.73705 0.19513 0.74845 0.0
Tb832 Tb 0.83673 0.82444 0.80292 0.0
Eu833 Eu 0.81207 0.77724 0.77465 0.0
C834 C 0.83615 0.77818 0.83075 0.0
C835 C 0.86942 0.79855 0.77032 0.0
C836 C 0.84166 0.88303 0.82536 0.0
C837 C 0.81618 0.90468 0.8454 0.0
C838 C 0.83305 0.89018 0.84629 0.0
C839 C 0.83507 0.89248 0.804 0.0
C840 C 0.81829 0.9069 0.8031 0.0
C841 C 0.80777 0.91229 0.82354 0.0
C842 C 0.85308 0.86271 0.8249 0.0
O843 O 0.82193 0.8361 0.76825 0.0
O844 O 0.80819 0.80234 0.74606 0.0
O845 O 0.78026 0.78816 0.79143 0.0
O846 O 0.79944 0.82049 0.81349 0.0
C847 C 0.81351 0.82472 0.74741 0.0
O848 O 0.81257 0.74967 0.74806 0.0
O849 O 0.78175 0.74894 0.76706 0.0
O850 O 0.82261 0.76663 0.81218 0.0
O851 O 0.84604 0.79969 0.82911 0.0
O852 O 0.86688 0.8167 0.78356 0.0
O853 O 0.85184 0.78064 0.76715 0.0
C854 C 0.7799 0.80482 0.80756 0.0
O855 O 0.84185 0.84552 0.83463 0.0
O856 O 0.85949 0.85626 0.80466 0.0
C857 C 0.79661 0.71488 0.76115 0.0
C858 C 0.82362 0.68297 0.7782 0.0
C859 C 0.81766 0.68385 0.75356 0.0
C860 C 0.80427 0.69984 0.74507 0.0
C861 C 0.7991 0.71135 0.78554 0.0
C862 C 0.8125 0.69542 0.79402 0.0
C863 C 0.79316 0.73728 0.75364 0.0
H864 H 0.80874 0.90888 0.86153 0.0
H865 H 0.83796 0.8832 0.863 0.0
H866 H 0.84136 0.88738 0.78751 0.0
H867 H 0.81216 0.91221 0.78589 0.0
H868 H 0.82563 0.67405 0.74098 0.0
H869 H 0.80241 0.70223 0.72618 0.0
H870 H 0.79322 0.72264 0.79835 0.0
H871 H 0.81664 0.69507 0.8131 0.0
Tb872 Tb 0.5779 0.56766 0.53571 0.0
Eu873 Eu 0.6282 0.57767 0.57237 0.0
C874 C 0.62683 0.57054 0.51603 0.0
C875 C 0.60224 0.52854 0.55386 0.0
C876 C 0.51939 0.5736 0.50725 0.0
C877 C 0.47792 0.57633 0.49524 0.0
C878 C 0.49682 0.56421 0.49513 0.0
C879 C 0.52309 0.59519 0.51929 0.0
C880 C 0.50432 0.6073 0.51936 0.0
C881 C 0.48153 0.59792 0.50747 0.0
C882 C 0.53877 0.5605 0.50893 0.0
O883 O 0.56932 0.58302 0.56818 0.0
O884 O 0.59685 0.56946 0.59332 0.0
O885 O 0.61616 0.6112 0.57225 0.0
O886 O 0.59236 0.60368 0.53598 0.0
C887 C 0.57663 0.57709 0.5892 0.0
O888 O 0.64831 0.5672 0.60352 0.0
O889 O 0.66475 0.59513 0.58455 0.0
O890 O 0.63778 0.58259 0.53535 0.0
O891 O 0.60501 0.55896 0.51506 0.0
O892 O 0.58219 0.53658 0.55209 0.0
O893 O 0.623 0.54217 0.55579 0.0
C894 C 0.60404 0.61775 0.55371 0.0
O895 O 0.55899 0.57069 0.50252 0.0
O896 O 0.54195 0.55134 0.52911 0.0
C897 C 0.68715 0.56689 0.59482 0.0
C898 C 0.71592 0.53453 0.58522 0.0
C899 C 0.71545 0.54309 0.60876 0.0
C900 C 0.70107 0.55918 0.61354 0.0
C901 C 0.68816 0.55882 0.5713 0.0
C902 C 0.70243 0.54286 0.56654 0.0
C903 C 0.66833 0.57984 0.59952 0.0
H904 H 0.46052 0.56882 0.48586 0.0
H905 H 0.49375 0.54744 0.48595 0.0
H906 H 0.5404 0.60249 0.52904 0.0
H907 H 0.50747 0.62371 0.52929 0.0
H908 H 0.72581 0.53702 0.62347 0.0
H909 H 0.70008 0.56488 0.63181 0.0
H910 H 0.67697 0.56402 0.55663 0.0
H911 H 0.70199 0.53628 0.54828 0.0
Tb912 Tb 0.06554 0.5378 0.02168 0.0
Eu913 Eu 0.0903 0.56777 0.06993 0.0
C914 C 0.06467 0.51677 0.07165 0.0
C915 C 0.03769 0.57627 0.04576 0.0
C916 C 0.04204 0.48939 0.97956 0.0
C917 C 0.0517 0.45323 0.99043 0.0
C918 C 0.05411 0.47656 0.99512 0.0
C919 C 1.02794 0.47881 0.95892 0.0
C920 C 1.02567 0.45536 0.95405 0.0
C921 C 0.03738 0.44233 0.96991 0.0
C922 C 0.0432 0.51349 0.98596 0.0
O923 O 0.08817 0.56642 1.00897 0.0
O924 O 0.09346 0.59206 0.04142 0.0
O925 O 0.11831 0.546 0.06002 0.0
O926 O 0.09915 0.52339 0.02715 0.0
C927 C 0.09485 0.58708 0.01898 0.0
O928 O 0.12396 0.5856 0.08916 0.0
O929 O 0.09126 0.58293 0.10604 0.0
O930 O 0.06821 0.5371 0.08244 0.0
O931 O 0.06612 0.51364 0.04888 0.0
O932 O 0.03809 0.55912 0.03001 0.0
O933 O 0.05614 0.58304 0.06231 0.0
C934 C 0.11815 0.52958 0.04331 0.0
O935 O 1.03365 0.51765 1.00527 0.0
O936 O 0.06419 0.52625 0.98582 0.0
C937 C 0.11783 0.61839 0.10973 0.0
C938 C 0.12608 0.66528 0.10376 0.0
C939 C 0.14548 0.65361 0.10721 0.0
C940 C 0.14138 0.63038 0.1103 0.0
C941 C 0.09854 0.6303 0.1077 0.0
C942 C 0.10266 0.65354 0.1049 0.0
C943 C 0.11343 0.59345 0.10634 0.0
H944 H 0.0606 0.4437 1.00323 0.0
H945 H 0.06498 0.48451 1.01121 0.0
H946 H 1.01849 0.48858 0.9468 0.0
H947 H 1.01475 0.44746 0.93796 0.0
H948 H 0.16374 0.66215 0.10642 0.0
H949 H 0.1565 0.62149 0.11161 0.0
H950 H 0.08015 0.62155 0.10708 0.0
H951 H 0.08739 0.66219 0.10305 0.0
H952 H 1.0262 0.1971 0.99547 0.0
H953 H 0.14179 0.15282 0.04434 0.0
H954 H 0.09619 0.21762 0.97263 0.0
H955 H 0.07342 0.13533 0.07098 0.0
H956 H 0.12864 0.18594 0.0275 0.0
H957 H 0.04523 0.18262 0.03075 0.0
C958 C 0.04558 0.19865 0.99799 0.0
C959 C 0.05964 0.20789 0.98088 0.0
C960 C 0.11674 0.17537 0.03773 0.0
C961 C 0.08152 0.19171 0.02112 0.0
C962 C 0.12439 0.15666 0.0475 0.0
C963 C 0.10849 0.14161 0.05873 0.0
C964 C 0.09279 0.17823 0.03858 0.0
C965 C 0.08603 0.14679 0.06227 0.0
C966 C 0.05647 0.19063 0.01823 0.0
C967 C 0.08468 0.21004 0.98515 0.0
N968 N 0.07852 0.16445 0.05162 0.0
N969 N 0.09481 0.20168 1.00471 0.0
H970 H 0.14974 0.81722 0.23075 0.0
H971 H 0.28794 0.857 0.27651 0.0
H972 H 0.19045 0.88159 0.2162 0.0
H973 H 0.24542 0.79369 0.2918 0.0
H974 H 0.25113 0.8697 0.26086 0.0
H975 H 0.18287 0.81185 0.25957 0.0
C976 C 0.16561 0.83037 0.23388 0.0
C977 C 0.16765 0.84967 0.22084 0.0
C978 C 0.24984 0.85318 0.26799 0.0
C979 C 0.20578 0.84353 0.25353 0.0
C980 C 0.27085 0.8459 0.27692 0.0
C981 C 0.26977 0.82404 0.28496 0.0
C982 C 0.2277 0.83843 0.26705 0.0
C983 C 0.24715 0.8105 0.28535 0.0
C984 C 0.18452 0.82732 0.25036 0.0
C985 C 0.18836 0.86635 0.22578 0.0
N986 N 0.22703 0.81781 0.27618 0.0
N987 N 0.20689 0.86271 0.24149 0.0
H988 H 0.52836 0.7992 0.46736 0.0
H989 H 0.5471 0.92264 0.42049 0.0
H990 H 0.52442 0.81098 0.39265 0.0
H991 H 0.51881 0.90923 0.48695 0.0
H992 H 0.54433 0.88175 0.41171 0.0
H993 H 0.52959 0.8399 0.47668 0.0
C994 C 0.52758 0.81034 0.45296 0.0
C995 C 0.52622 0.80186 0.42923 0.0
C996 C 0.53864 0.88778 0.42816 0.0
C997 C 0.52805 0.84804 0.43971 0.0
C998 C 0.54035 0.91102 0.4332 0.0
C999 C 0.53304 0.91911 0.45436 0.0
C1000 C 0.52992 0.87267 0.44459 0.0
C1001 C 0.52436 0.90349 0.47031 0.0
C1002 C 0.52827 0.83346 0.45827 0.0
C1003 C 0.52533 0.81689 0.41118 0.0
N1004 N 0.52314 0.88091 0.46516 0.0
N1005 N 0.52648 0.83934 0.41681 0.0
H1006 H 0.55111 0.3648 0.68285 0.0
H1007 H 0.50184 0.34562 0.80829 0.0
H1008 H 0.59724 0.37601 0.74967 0.0
H1009 H 0.4607 0.32411 0.73983 0.0
H1010 H 0.53614 0.36152 0.78791 0.0
H1011 H 0.5164 0.35577 0.70445 0.0
C1012 C 0.55388 0.3656 0.70212 0.0
C1013 C 0.577 0.37085 0.71454 0.0
C1014 C 0.51952 0.35341 0.77743 0.0
C1015 C 0.53749 0.36027 0.73934 0.0
C1016 C 0.50007 0.34422 0.78902 0.0
C1017 C 0.47844 0.33364 0.77569 0.0
C1018 C 0.51717 0.35195 0.75245 0.0
C1019 C 0.47692 0.33247 0.75079 0.0
C1020 C 0.53408 0.36037 0.71444 0.0
C1021 C 0.57963 0.37186 0.73948 0.0
N1022 N 0.49604 0.3415 0.73999 0.0
N1023 N 0.56005 0.36635 0.75113 0.0
H1024 H 0.05998 0.86073 0.58417 0.0
H1025 H 0.08078 0.99931 0.60874 0.0
H1026 H 0.07836 0.89453 0.65426 0.0
H1027 H 0.07199 0.96628 0.53825 0.0
H1028 H 0.07868 0.96185 0.62535 0.0
H1029 H 0.06282 0.89824 0.56734 0.0
C1030 C 0.06461 0.87588 0.59622 0.0
C1031 C 0.06891 0.87362 0.62106 0.0
C1032 C 0.07724 0.96262 0.60622 0.0
C1033 C 0.07213 0.91812 0.60125 0.0
C1034 C 0.07848 0.98436 0.59654 0.0
C1035 C 0.07675 0.98687 0.57165 0.0
C1036 C 0.07392 0.94229 0.59128 0.0
C1037 C 0.07364 0.96599 0.55743 0.0
C1038 C 0.06627 0.89761 0.58643 0.0
C1039 C 0.07484 0.89467 0.63513 0.0
N1040 N 0.07227 0.94512 0.56726 0.0
N1041 N 0.07614 0.91548 0.62523 0.0
H1042 H 0.49518 0.7802 0.91178 0.0
H1043 H 0.41598 0.82854 0.80508 0.0
H1044 H 0.527 0.81573 0.85579 0.0
H1045 H 0.38488 0.77753 0.84889 0.0
H1046 H 0.45611 0.82636 0.82498 0.0
H1047 H 0.45499 0.78123 0.89109 0.0
C1048 C 0.49386 0.78823 0.89514 0.0
C1049 C 0.515 0.79781 0.88572 0.0
C1050 C 0.44057 0.81558 0.83027 0.0
C1051 C 0.46813 0.79939 0.86167 0.0
C1052 C 0.41741 0.81683 0.81885 0.0
C1053 C 0.39645 0.80317 0.82499 0.0
C1054 C 0.44335 0.8008 0.84856 0.0
C1055 C 0.40014 0.78841 0.84321 0.0
C1056 C 0.47071 0.78879 0.88323 0.0
C1057 C 0.51156 0.80797 0.86393 0.0
N1058 N 0.42279 0.78776 0.85428 0.0
N1059 N 0.48889 0.80861 0.85291 0.0
H1060 H 0.57472 0.22388 0.1533 0.0
H1061 H 0.55113 0.13339 0.03642 0.0
H1062 H 0.55095 0.24225 0.08352 0.0
H1063 H 0.58825 0.12023 0.10309 0.0
H1064 H 0.54866 0.17159 0.05343 0.0
H1065 H 0.57738 0.18586 0.13605 0.0
C1066 C 0.56992 0.22011 0.13431 0.0
C1067 C 0.56251 0.23712 0.12021 0.0
C1068 C 0.55734 0.16044 0.06448 0.0
C1069 C 0.56547 0.19199 0.0997 0.0
C1070 C 0.55874 0.13826 0.05469 0.0
C1071 C 0.56992 0.12267 0.06798 0.0
C1072 C 0.56688 0.16789 0.08826 0.0
C1073 C 0.57938 0.131 0.0917 0.0
C1074 C 0.57153 0.19806 0.12436 0.0
C1075 C 0.55675 0.23029 0.09554 0.0
N1076 N 0.57754 0.15251 0.10086 0.0
N1077 N 0.55823 0.20868 0.08634 0.0
H1078 H 0.17656 0.32279 0.41298 0.0
H1079 H 0.23281 0.28081 0.29527 0.0
H1080 H 0.13339 0.28317 0.35315 0.0
H1081 H 0.27385 0.32928 0.34948 0.0
H1082 H 0.19724 0.28037 0.31663 0.0
H1083 H 0.21216 0.32423 0.39128 0.0
C1084 C 0.17438 0.31431 0.39532 0.0
C1085 C 0.15131 0.30282 0.38525 0.0
C1086 C 0.21393 0.29124 0.32392 0.0
C1087 C 0.19314 0.30429 0.3597 0.0
C1088 C 0.23453 0.29155 0.31158 0.0
C1089 C 0.25698 0.30534 0.32006 0.0
C1090 C 0.21517 0.30459 0.34554 0.0
C1091 C 0.25728 0.31857 0.34169 0.0
C1092 C 0.19495 0.31518 0.38279 0.0
C1093 C 0.15038 0.2923 0.36203 0.0
N1094 N 0.2371 0.31779 0.35347 0.0
N1095 N 0.17063 0.29321 0.35036 0.0
H1096 H 0.96979 1.01408 0.16939 0.0
H1097 H 0.04516 0.10178 0.09467 0.0
H1098 H 0.9668 0.08563 0.17747 0.0
H1099 H 0.07171 0.04454 0.12406 0.0
H1100 H 1.01027 0.09387 0.11685 0.0
H1101 H 1.00005 0.02234 0.14215 0.0
C1102 C 0.97502 0.03144 0.16491 0.0
C1103 C 0.96618 0.0493 0.17588 0.0
C1104 C 1.02387 0.0832 0.11846 0.0
C1105 C 1.00062 0.05871 0.14512 0.0
C1106 C 0.04372 0.08773 0.10601 0.0
C1107 C 0.06124 0.07383 0.10781 0.0
C1108 C 1.02142 0.06436 0.13213 0.0
C1109 C 0.05866 0.05577 0.12252 0.0
C1110 C 0.99242 0.03613 0.14963 0.0
C1111 C 0.97348 0.07147 0.1695 0.0
N1112 N 0.03888 0.05137 0.13398 0.0
N1113 N 0.99057 0.07565 0.15459 0.0
H1114 H 0.34081 0.77228 0.48935 0.0
H1115 H 0.29174 0.74806 0.35332 0.0
H1116 H 0.2751 0.72551 0.46478 0.0
H1117 H 0.33619 0.81186 0.38095 0.0
H1118 H 0.28648 0.7386 0.39407 0.0
H1119 H 0.34042 0.78682 0.44975 0.0
C1120 C 0.32611 0.76537 0.47573 0.0
C1121 C 0.30802 0.74766 0.48023 0.0
C1122 C 0.29714 0.75479 0.39116 0.0
C1123 C 0.30772 0.76377 0.43503 0.0
C1124 C 0.30024 0.76013 0.36794 0.0
C1125 C 0.31446 0.78073 0.36379 0.0
C1126 C 0.3087 0.76997 0.41029 0.0
C1127 C 0.32501 0.79581 0.38337 0.0
C1128 C 0.3259 0.77364 0.45319 0.0
C1129 C 0.2894 0.73921 0.46201 0.0
N1130 N 0.32216 0.79001 0.40583 0.0
N1131 N 0.28992 0.74711 0.44006 0.0
H1132 H 0.61739 0.9507 0.66743 0.0
H1133 H 0.56662 0.9737 0.56152 0.0
H1134 H 0.55209 0.95854 0.69658 0.0
H1135 H 0.53584 1.01646 0.60881 0.0
H1136 H 0.56895 0.9469 0.59256 0.0
H1137 H 0.5971 0.95196 0.62755 0.0
C1138 C 0.59844 0.95172 0.66528 0.0
C1139 C 0.58645 0.95494 0.68516 0.0
C1140 C 0.56112 0.96187 0.59586 0.0
C1141 C 0.56322 0.95688 0.63978 0.0
C1142 C 0.55963 0.97706 0.57814 0.0
C1143 C 0.5517 0.99758 0.583 0.0
C1144 C 0.55459 0.96738 0.61836 0.0
C1145 C 0.54268 1.00108 0.60468 0.0
C1146 C 0.58676 0.95231 0.64249 0.0
C1147 C 0.56196 0.9562 0.68159 0.0
N1148 N 0.54474 0.9863 0.62176 0.0
N1149 N 0.55135 0.95807 0.65931 0.0
H1150 H 0.32147 0.36142 0.9871 0.0
H1151 H 0.2917 0.35601 0.84309 0.0
H1152 H 0.29177 0.41381 0.9515 0.0
H1153 H 0.33678 0.31446 0.87922 0.0
H1154 H 0.2884 0.37536 0.88191 0.0
H1155 H 0.32402 0.34241 0.94809 0.0
C1156 C 0.31532 0.36897 0.97116 0.0
C1157 C 0.30633 0.38949 0.97312 0.0
C1158 C 0.29901 0.362 0.8814 0.0
C1159 C 0.3091 0.36723 0.92736 0.0
C1160 C 0.30088 0.3508 0.85905 0.0
C1161 C 0.31462 0.33332 0.8573 0.0
C1162 C 0.31065 0.35571 0.90272 0.0
C1163 C 0.326 0.32771 0.87914 0.0
C1164 C 0.31687 0.35803 0.94868 0.0
C1165 C 0.29884 0.39814 0.95131 0.0
N1166 N 0.32368 0.33863 0.90055 0.0
N1167 N 0.30027 0.38706 0.92967 0.0
H1168 H 1.01948 0.0226 0.26521 0.0
H1169 H 0.0882 0.0893 0.38456 0.0
H1170 H 1.00331 0.08515 0.2954 0.0
H1171 H 0.08004 1.01696 0.36754 0.0
H1172 H 0.07061 0.09338 0.34404 0.0
H1173 H 0.05488 0.02663 0.29467 0.0
C1174 C 1.02365 0.03743 0.27775 0.0
C1175 C 1.00815 0.05328 0.27833 0.0
C1176 C 0.07336 0.07675 0.34912 0.0
C1177 C 0.04858 0.05798 0.31188 0.0
C1178 C 0.08326 0.07434 0.37227 0.0
C1179 C 0.08473 0.05261 0.37992 0.0
C1180 C 0.06535 0.05737 0.33347 0.0
C1181 C 0.07907 0.03405 0.36279 0.0
C1182 C 0.04387 0.03972 0.29449 0.0
C1183 C 1.01458 0.07233 0.29469 0.0
N1184 N 0.06919 0.03681 0.34052 0.0
N1185 N 1.03415 0.07397 0.31114 0.0
H1186 H 0.31572 0.77013 0.59855 0.0
H1187 H 0.33835 0.74802 0.73582 0.0
H1188 H 0.34121 0.71024 0.62223 0.0
H1189 H 0.33209 0.81345 0.7096 0.0
H1190 H 0.33873 0.73294 0.6947 0.0
H1191 H 0.32033 0.78557 0.63983 0.0
C1192 C 0.3224 0.76031 0.61247 0.0
C1193 C 0.32809 0.73894 0.60708 0.0
C1194 C 0.33748 0.75064 0.69812 0.0
C1195 C 0.33328 0.75632 0.65427 0.0
C1196 C 0.33729 0.75922 0.72152 0.0
C1197 C 0.33495 0.78193 0.72611 0.0
C1198 C 0.33515 0.76489 0.67939 0.0
C1199 C 0.33366 0.79576 0.70694 0.0
C1200 C 0.32509 0.76911 0.63601 0.0
C1201 C 0.33667 0.72685 0.62573 0.0
N1202 N 0.33359 0.78697 0.68446 0.0
N1203 N 0.33886 0.73565 0.64859 0.0
H1204 H 0.57382 0.03999 0.76473 0.0
H1205 H 0.50468 0.02809 0.87887 0.0
H1206 H 0.55938 0.97892 0.80174 0.0
H1207 H 0.53745 0.09215 0.8553 0.0
H1208 H 0.51105 1.00912 0.84165 0.0
H1209 H 0.54831 0.05767 0.78933 0.0
C1210 C 0.56493 0.03015 0.77775 0.0
C1211 C 0.56904 1.00811 0.78157 0.0
C1212 C 0.51625 0.02741 0.84434 0.0
C1213 C 0.5398 0.02819 0.80956 0.0
C1214 C 0.51234 0.03836 0.86549 0.0
C1215 C 0.52104 0.06172 0.87042 0.0
C1216 C 0.52898 0.0399 0.82809 0.0
C1217 C 0.53098 0.07403 0.8524 0.0
C1218 C 0.55036 0.04026 0.79173 0.0
C1219 C 0.55695 0.99608 0.7985 0.0
N1220 N 0.53518 0.06289 0.8322 0.0
N1221 N 0.54307 1.00639 0.8121 0.0
H1222 H 0.28474 0.3596 0.09566 0.0
H1223 H 0.33711 0.36809 0.23609 0.0
H1224 H 0.33138 0.41874 0.13122 0.0
H1225 H 0.28971 0.30901 0.2012 0.0
H1226 H 0.335 0.38663 0.19839 0.0
H1227 H 0.28615 0.34102 0.13349 0.0
C1228 C 0.29531 0.3688 0.11133 0.0
C1229 C 0.30794 0.39104 0.1097 0.0
C1230 C 0.32496 0.36963 0.19887 0.0
C1231 C 0.30968 0.36939 0.15407 0.0
C1232 C 0.32611 0.35891 0.22065 0.0
C1233 C 0.3135 0.33668 0.22248 0.0
C1234 C 0.31111 0.35832 0.17809 0.0
C1235 C 0.29975 0.32607 0.20122 0.0
C1236 C 0.2961 0.35807 0.13313 0.0
C1237 C 0.32126 0.4017 0.13113 0.0
N1238 N 0.29898 0.33683 0.18028 0.0
N1239 N 0.32176 0.39093 0.15204 0.0
H1240 H 0.33521 0.96333 0.07809 0.0
H1241 H 0.20426 0.99277 0.08024 0.0
H1242 H 0.27086 0.91232 0.06461 0.0
H1243 H 0.26868 0.03747 0.11249 0.0
H1244 H 0.22816 0.9635 0.07229 0.0
H1245 H 0.3109 0.99141 0.08836 0.0
C1246 C 0.31593 0.95805 0.07733 0.0
C1247 C 0.30496 0.93552 0.07053 0.0
C1248 C 0.23704 0.97964 0.08126 0.0
C1249 C 0.2771 0.96752 0.08223 0.0
C1250 C 0.22347 0.99633 0.0857 0.0
C1251 C 0.23466 1.0175 0.09692 0.0
C1252 C 0.26197 0.98431 0.08786 0.0
C1253 C 0.25946 0.02129 0.1039 0.0
C1254 C 0.3021 0.97406 0.08328 0.0
C1255 C 0.27996 0.92955 0.06982 0.0
N1256 N 0.27237 1.00487 0.09906 0.0
N1257 N 0.2668 0.94553 0.07552 0.0
H1258 H 0.7806 0.60984 0.02073 0.0
H1259 H 0.65079 0.61355 0.06565 0.0
H1260 H 0.76157 0.67017 0.05258 0.0
H1261 H 0.66227 0.55939 0.01745 0.0
H1262 H 0.69224 0.63271 0.06395 0.0
H1263 H 0.7391 0.58973 0.02203 0.0
C1264 C 0.76781 0.61893 0.02805 0.0
C1265 C 0.77498 0.64196 0.03651 0.0
C1266 C 0.6858 0.61661 0.05375 0.0
C1267 C 0.72687 0.61863 0.03834 0.0
C1268 C 0.66196 0.6055 0.05478 0.0
C1269 C 0.65252 0.58455 0.04173 0.0
C1270 C 0.70102 0.60685 0.03978 0.0
C1271 C 0.66838 0.5754 0.0279 0.0
C1272 C 0.74397 0.60737 0.02875 0.0
C1273 C 0.7572 0.65255 0.04575 0.0
N1274 N 0.69161 0.58644 0.02739 0.0
N1275 N 0.73433 0.6409 0.04652 0.0
H1276 H 0.77769 0.50156 0.36553 0.0
H1277 H 0.89194 0.48105 0.30587 0.0
H1278 H 0.81266 0.54642 0.31776 0.0
H1279 H 0.85401 0.43486 0.35065 0.0
H1280 H 0.87113 0.51073 0.31996 0.0
H1281 H 0.81228 0.48235 0.36911 0.0
C1282 C 0.79274 0.50743 0.35589 0.0
C1283 C 0.79212 0.52517 0.34083 0.0
C1284 C 0.8679 0.49427 0.3272 0.0
C1285 C 0.83177 0.50335 0.34487 0.0
C1286 C 0.87985 0.47734 0.31922 0.0
C1287 C 0.87409 0.45518 0.32639 0.0
C1288 C 0.8501 0.48888 0.34236 0.0
C1289 C 0.85884 0.45154 0.34426 0.0
C1290 C 0.81257 0.49658 0.35807 0.0
C1291 C 0.81227 0.53247 0.32918 0.0
N1292 N 0.84688 0.46803 0.35114 0.0
N1293 N 0.83116 0.52127 0.33113 0.0
H1294 H 0.88697 0.46242 0.5265 0.0
H1295 H 1.02204 0.51304 0.58097 0.0
H1296 H 0.92938 0.42583 0.57309 0.0
H1297 H 0.98937 0.53063 0.51378 0.0
H1298 H 0.98479 0.48665 0.58493 0.0
H1299 H 0.92161 0.49308 0.52806 0.0
C1300 C 0.90358 0.46088 0.53709 0.0
C1301 C 0.9055 0.44153 0.54949 0.0
C1302 C 0.98578 0.49655 0.56951 0.0
C1303 C 0.94487 0.47656 0.55161 0.0
C1304 C 1.00685 0.51169 0.56735 0.0
C1305 C 1.00867 0.52382 0.54695 0.0
C1306 C 0.96647 0.49396 0.55134 0.0
C1307 C 0.98866 0.52139 0.52968 0.0
C1308 C 0.92327 0.47836 0.53799 0.0
C1309 C 0.92733 0.44041 0.56307 0.0
N1310 N 0.96836 0.50667 0.53223 0.0
N1311 N 0.94627 0.45775 0.5638 0.0
H1312 H 0.48356 0.18086 0.31844 0.0
H1313 H 0.3632 0.16299 0.22698 0.0
H1314 H 0.46762 0.12893 0.26032 0.0
H1315 H 0.37409 0.20313 0.29409 0.0
H1316 H 0.40345 0.15349 0.23577 0.0
H1317 H 0.44574 0.19334 0.30591 0.0
C1318 C 0.47224 0.17229 0.30286 0.0
C1319 C 0.47855 0.15373 0.29052 0.0
C1320 C 0.39691 0.16428 0.24858 0.0
C1321 C 0.43522 0.16767 0.27627 0.0
C1322 C 0.374 0.16962 0.2436 0.0
C1323 C 0.36522 0.18348 0.26004 0.0
C1324 C 0.41112 0.1732 0.26994 0.0
C1325 C 0.37994 0.19189 0.28121 0.0
C1326 C 0.4506 0.17931 0.2958 0.0
C1327 C 0.46328 0.14324 0.27041 0.0
N1328 N 0.40217 0.18665 0.28552 0.0
N1329 N 0.44218 0.15025 0.26399 0.0
H1330 H 0.4311 0.17043 0.56115 0.0
H1331 H 0.48895 0.06338 0.51403 0.0
H1332 H 0.38983 0.11408 0.51601 0.0
H1333 H 0.52615 0.11367 0.56865 0.0
H1334 H 0.45372 0.08241 0.51292 0.0
H1335 H 0.46623 0.15121 0.56252 0.0
C1336 C 0.42926 0.15403 0.55146 0.0
C1337 C 0.40692 0.14414 0.53845 0.0
C1338 C 0.46954 0.08936 0.52519 0.0
C1339 C 0.44812 0.12158 0.53982 0.0
C1340 C 0.48991 0.07842 0.52583 0.0
C1341 C 0.51112 0.08658 0.54152 0.0
C1342 C 0.46987 0.10911 0.54014 0.0
C1343 C 0.51056 0.10636 0.55624 0.0
C1344 C 0.44954 0.14295 0.55229 0.0
C1345 C 0.40631 0.12266 0.52637 0.0
N1346 N 0.49064 0.11679 0.55511 0.0
N1347 N 0.42631 0.11235 0.52727 0.0
H1348 H 0.77336 0.63183 0.36158 0.0
H1349 H 0.75833 0.73721 0.28444 0.0
H1350 H 0.72683 0.62681 0.29534 0.0
H1351 H 0.81152 0.73988 0.34554 0.0
H1352 H 0.74158 0.69835 0.2921 0.0
H1353 H 0.78302 0.67287 0.35938 0.0
C1354 C 0.76516 0.6394 0.34658 0.0
C1355 C 0.74954 0.62596 0.32843 0.0
C1356 C 0.75678 0.70753 0.30394 0.0
C1357 C 0.76037 0.67282 0.32588 0.0
C1358 C 0.76632 0.72972 0.29962 0.0
C1359 C 0.78666 0.74159 0.31409 0.0
C1360 C 0.76768 0.69723 0.32284 0.0
C1361 C 0.79605 0.73122 0.33371 0.0
C1362 C 0.77061 0.66282 0.34537 0.0
C1363 C 0.73919 0.6366 0.30955 0.0
N1364 N 0.78664 0.7095 0.33735 0.0
N1365 N 0.7449 0.65945 0.30868 0.0
H1366 H 0.98926 0.56373 0.79916 0.0
H1367 H 0.93849 0.45551 0.86738 0.0
H1368 H 0.99616 0.56213 0.87562 0.0
H1369 H 0.92815 0.45706 0.79092 0.0
H1370 H 0.96063 0.49427 0.87042 0.0
H1371 H 0.96835 0.52423 0.79545 0.0
C1372 C 0.98652 0.555 0.81516 0.0
C1373 C 0.99442 0.56619 0.83774 0.0
C1374 C 0.95351 0.4862 0.85295 0.0
C1375 C 0.97043 0.52112 0.83364 0.0
C1376 C 0.94068 0.46409 0.8512 0.0
C1377 C 0.93124 0.45306 0.82886 0.0
C1378 C 0.95706 0.49748 0.83221 0.0
C1379 C 0.93522 0.46487 0.8085 0.0
C1380 C 0.97453 0.53249 0.81303 0.0
C1381 C 0.99037 0.55414 0.85787 0.0
N1382 N 0.94779 0.48648 0.81066 0.0
N1383 N 0.97859 0.53228 0.85534 0.0
H1384 H 0.07179 0.90174 0.12069 0.0
H1385 H 0.14502 1.00546 0.06216 0.0
H1386 H 0.1491 0.91647 0.12325 0.0
H1387 H 0.06901 0.99793 0.06813 0.0
H1388 H 0.14498 0.96797 0.0766 0.0
H1389 H 0.06898 0.9329 0.09493 0.0
C1390 C 0.08814 0.91155 0.1158 0.0
C1391 C 0.11072 0.90683 0.12425 0.0
C1392 C 0.12823 0.97437 0.07448 0.0
C1393 C 0.10765 0.94201 0.09473 0.0
C1394 C 0.12823 0.99574 0.0662 0.0
C1395 C 0.10709 1.00492 0.06454 0.0
C1396 C 0.107 0.96229 0.08137 0.0
C1397 C 0.08575 0.9915 0.06949 0.0
C1398 C 0.08652 0.92918 0.10103 0.0
C1399 C 0.13136 0.91979 0.1173 0.0
N1400 N 0.08632 0.97091 0.07814 0.0
N1401 N 0.12932 0.93688 0.10299 0.0
H1402 H 0.9448 0.20138 0.90566 0.0
H1403 H 0.91163 0.25089 0.7822 0.0
H1404 H 0.98853 0.20189 0.84798 0.0
H1405 H 0.88554 0.26582 0.84899 0.0
H1406 H 0.93036 0.22078 0.80046 0.0
H1407 H 0.91194 0.20966 0.87814 0.0
C1408 C 0.94716 0.20231 0.88699 0.0
C1409 C 0.96967 0.202 0.87924 0.0
C1410 C 0.9202 0.23048 0.8109 0.0
C1411 C 0.93267 0.21221 0.84803 0.0
C1412 C 0.90979 0.24773 0.80061 0.0
C1413 C 0.89781 0.26124 0.81439 0.0
C1414 C 0.91804 0.2266 0.83487 0.0
C1415 C 0.89535 0.25628 0.83797 0.0
C1416 C 0.92849 0.20726 0.87133 0.0
C1417 C 0.97162 0.20276 0.85479 0.0
N1418 N 0.9055 0.23946 0.84748 0.0
N1419 N 0.95359 0.20871 0.84011 0.0
H1420 H 0.62667 0.29402 0.69692 0.0
H1421 H 0.60802 0.19493 0.59309 0.0
H1422 H 0.61728 0.30536 0.62215 0.0
H1423 H 0.61406 0.18343 0.6679 0.0
H1424 H 0.61025 0.23536 0.60331 0.0
H1425 H 0.62093 0.25325 0.68658 0.0
C1426 C 0.62333 0.28788 0.67831 0.0
C1427 C 0.62257 0.30298 0.66033 0.0
C1428 C 0.611 0.224 0.6175 0.0
C1429 C 0.61608 0.2565 0.64838 0.0
C1430 C 0.60963 0.20092 0.61168 0.0
C1431 C 0.61086 0.18587 0.62971 0.0
C1432 C 0.61369 0.23205 0.64152 0.0
C1433 C 0.61334 0.19453 0.65348 0.0
C1434 C 0.62005 0.26463 0.67242 0.0
C1435 C 0.61807 0.29422 0.63653 0.0
N1436 N 0.61471 0.2171 0.65871 0.0
N1437 N 0.6151 0.27149 0.63122 0.0
H1438 H 0.58851 0.70931 0.35812 0.0
H1439 H 0.65326 0.80239 0.27947 0.0
H1440 H 0.57603 0.7783 0.35564 0.0
H1441 H 0.67638 0.7383 0.29025 0.0
H1442 H 0.61841 0.7898 0.29997 0.0
H1443 H 0.61543 0.71632 0.32715 0.0
C1444 C 0.59136 0.72584 0.35097 0.0
C1445 C 0.58035 0.74335 0.35957 0.0
C1446 C 0.63092 0.77833 0.29757 0.0
C1447 C 0.61056 0.75134 0.32424 0.0
C1448 C 0.65068 0.78543 0.28563 0.0
C1449 C 0.66789 0.7715 0.28353 0.0
C1450 C 0.62847 0.75723 0.30758 0.0
C1451 C 0.66374 0.74974 0.29202 0.0
C1452 C 0.6066 0.72981 0.33331 0.0
C1453 C 0.58441 0.76441 0.34969 0.0
N1454 N 0.64459 0.74337 0.30403 0.0
N1455 N 0.59926 0.76783 0.33263 0.0
H1456 H 0.0869 0.24627 0.49368 0.0
H1457 H 0.07086 0.10761 0.47106 0.0
H1458 H 0.07558 0.2121 0.42364 0.0
H1459 H 0.07452 0.14142 0.54062 0.0
H1460 H 0.07364 0.14487 0.45376 0.0
H1461 H 0.08373 0.20892 0.51089 0.0
C1462 C 0.08378 0.23107 0.48172 0.0
C1463 C 0.08155 0.23319 0.45677 0.0
C1464 C 0.0738 0.14429 0.47283 0.0
C1465 C 0.07789 0.18884 0.47705 0.0
C1466 C 0.07215 0.12268 0.48291 0.0
C1467 C 0.07222 0.12044 0.50776 0.0
C1468 C 0.07582 0.16476 0.48734 0.0
C1469 C 0.07418 0.14147 0.5215 0.0
C1470 C 0.08192 0.20942 0.49172 0.0
C1471 C 0.07747 0.21207 0.44284 0.0
N1472 N 0.07591 0.16217 0.51132 0.0
N1473 N 0.07588 0.19134 0.45297 0.0
H1474 H 0.64557 0.28779 0.16771 0.0
H1475 H 0.75084 0.34592 0.27018 0.0
H1476 H 0.63185 0.33527 0.22211 0.0
H1477 H 0.74798 0.27856 0.23806 0.0
H1478 H 0.71033 0.34615 0.24947 0.0
H1479 H 0.68549 0.28795 0.1894 0.0
C1480 C 0.65091 0.2984 0.18415 0.0
C1481 C 0.6349 0.31153 0.19288 0.0
C1482 C 0.71856 0.33131 0.24695 0.0
C1483 C 0.6816 0.31211 0.218 0.0
C1484 C 0.74186 0.33119 0.25876 0.0
C1485 C 0.75325 0.31216 0.25614 0.0
C1486 C 0.70643 0.31252 0.23167 0.0
C1487 C 0.74023 0.29363 0.24095 0.0
C1488 C 0.67384 0.2984 0.19664 0.0
C1489 C 0.64327 0.32479 0.21451 0.0
N1490 N 0.71794 0.29439 0.22927 0.0
N1491 N 0.66589 0.32491 0.22607 0.0
H1492 H 0.58403 0.88509 0.92334 0.0
H1493 H 0.58857 0.97145 0.04128 0.0
H1494 H 0.59216 0.86335 0.99441 0.0
H1495 H 0.57966 0.99228 0.96986 0.0
H1496 H 0.59025 0.93278 0.02503 0.0
H1497 H 0.58278 0.92368 0.93994 0.0
C1498 C 0.58562 0.88823 0.94249 0.0
C1499 C 0.58827 0.87012 0.95715 0.0
C1500 C 0.58794 0.94571 1.01278 0.0
C1501 C 0.58676 0.91585 0.97693 0.0
C1502 C 0.58698 0.96815 0.02215 0.0
C1503 C 0.58397 0.98604 1.00727 0.0
C1504 C 0.5859 0.94022 0.98794 0.0
C1505 C 0.58204 0.97969 0.98249 0.0
C1506 C 0.58487 0.91061 0.95207 0.0
C1507 C 0.59013 0.87618 0.98198 0.0
N1508 N 0.58302 0.9578 0.97387 0.0
N1509 N 0.58936 0.89808 0.99084 0.0
H1510 H 1.00568 0.77436 0.7143 0.0
H1511 H 0.89893 0.83537 0.7544 0.0
H1512 H 0.98382 0.82896 0.67611 0.0
H1513 H 0.893 0.76292 0.75615 0.0
H1514 H 0.93423 0.83622 0.73247 0.0
H1515 H 0.96981 0.77254 0.73575 0.0
C1516 C 0.9935 0.78608 0.71035 0.0
C1517 C 0.9983 0.80178 0.69289 0.0
C1518 C 0.92536 0.8201 0.7377 0.0
C1519 C 0.95656 0.80019 0.71856 0.0
C1520 C 0.90505 0.81957 0.7505 0.0
C1521 C 0.89236 0.79903 0.75759 0.0
C1522 C 0.93423 0.80004 0.73219 0.0
C1523 C 0.90172 0.77927 0.75136 0.0
C1524 C 0.97278 0.78496 0.7227 0.0
C1525 C 0.98128 0.8164 0.68906 0.0
N1526 N 0.92192 0.78033 0.73951 0.0
N1527 N 0.96174 0.81545 0.7018 0.0
H1528 H 0.18553 0.0368 0.89081 0.0
H1529 H 0.1855 0.08257 0.02568 0.0
H1530 H 0.24925 0.07003 0.93607 0.0
H1531 H 0.12231 0.04742 0.98079 0.0
H1532 H 0.20971 0.07625 0.99372 0.0
H1533 H 0.1625 0.03799 0.92463 0.0
C1534 C 0.1947 0.04407 0.90796 0.0
C1535 C 0.21921 0.05348 0.91072 0.0
C1536 C 0.19055 0.06987 0.99093 0.0
C1537 C 0.1931 0.05514 0.94926 0.0
C1538 C 0.17673 0.07358 1.0091 0.0
C1539 C 0.15189 0.06564 1.00579 0.0
C1540 C 0.17935 0.05824 0.96937 0.0
C1541 C 0.14143 0.05388 0.98409 0.0
C1542 C 0.18157 0.04482 0.92722 0.0
C1543 C 0.2303 0.06272 0.93323 0.0
N1544 N 0.15523 0.05061 0.96664 0.0
N1545 N 0.21709 0.06348 0.95166 0.0
H1546 H 0.8478 0.32813 0.60127 0.0
H1547 H 0.88163 0.35819 0.74167 0.0
H1548 H 0.87011 0.39659 0.63321 0.0
H1549 H 0.85476 0.29064 0.70885 0.0
H1550 H 0.88276 0.37239 0.70186 0.0
H1551 H 0.85474 0.31379 0.64053 0.0
C1552 C 0.85424 0.34011 0.61655 0.0
C1553 C 0.85822 0.36353 0.61407 0.0
C1554 C 0.8769 0.35442 0.70345 0.0
C1555 C 0.86627 0.34736 0.65898 0.0
C1556 C 0.87645 0.34632 0.72612 0.0
C1557 C 0.86786 0.32329 0.72849 0.0
C1558 C 0.86882 0.33929 0.68319 0.0
C1559 C 0.8612 0.30861 0.70781 0.0
C1560 C 0.85825 0.33196 0.63895 0.0
C1561 C 0.86666 0.37837 0.63441 0.0
N1562 N 0.86163 0.31688 0.68607 0.0
N1563 N 0.87031 0.37004 0.65605 0.0
H1564 H 0.60158 0.13395 0.38048 0.0
H1565 H 0.56892 0.12403 0.51263 0.0
H1566 H 0.53533 0.14802 0.4035 0.0
H1567 H 0.61713 0.08722 0.47963 0.0
H1568 H 0.56682 0.14683 0.47795 0.0
H1569 H 0.6173 0.13165 0.4219 0.0
C1570 C 0.59054 0.13708 0.39431 0.0
C1571 C 0.56688 0.14052 0.3886 0.0
C1572 C 0.57843 0.13423 0.4787 0.0
C1573 C 0.58471 0.13779 0.43585 0.0
C1574 C 0.57974 0.12135 0.49847 0.0
C1575 C 0.59293 0.10359 0.49863 0.0
C1576 C 0.59066 0.12938 0.45934 0.0
C1577 C 0.6065 0.10059 0.47991 0.0
C1578 C 0.59955 0.13579 0.41792 0.0
C1579 C 0.55352 0.1449 0.40719 0.0
N1580 N 0.60479 0.11319 0.46084 0.0
N1581 N 0.56245 0.14292 0.43007 0.0
H1582 H 0.85807 0.68816 0.1272 0.0
H1583 H 0.81737 0.79236 0.20119 0.0
H1584 H 0.83495 0.74477 0.09362 0.0
H1585 H 0.85284 0.7426 0.23541 0.0
H1586 H 0.82186 0.77444 0.1622 0.0
H1587 H 0.85465 0.70656 0.16635 0.0
C1588 C 0.85231 0.70449 0.12789 0.0
C1589 C 0.84694 0.71472 0.10652 0.0
C1590 C 0.82872 0.76737 0.17817 0.0
C1591 C 0.84259 0.73623 0.15231 0.0
C1592 C 0.82614 0.77767 0.2007 0.0
C1593 C 0.83469 0.76927 0.22225 0.0
C1594 C 0.83981 0.74805 0.17652 0.0
C1595 C 0.84588 0.74999 0.21971 0.0
C1596 C 0.85035 0.71507 0.15049 0.0
C1597 C 0.83947 0.73601 0.10923 0.0
N1598 N 0.84796 0.74016 0.19761 0.0
N1599 N 0.83745 0.74581 0.13135 0.0
H1600 H 0.24366 0.07239 0.76766 0.0
H1601 H 0.10973 0.03409 0.7025 0.0
H1602 H 0.18938 0.025 0.79553 0.0
H1603 H 0.16136 0.08896 0.68203 0.0
H1604 H 0.14032 0.02618 0.73326 0.0
H1605 H 0.21561 0.07355 0.73216 0.0
C1606 C 0.22598 0.0619 0.7661 0.0
C1607 C 0.21871 0.04877 0.78463 0.0
C1608 C 0.14494 0.03991 0.72198 0.0
C1609 C 0.18642 0.0503 0.7443 0.0
C1610 C 0.12753 0.04441 0.70446 0.0
C1611 C 0.13298 0.06239 0.68995 0.0
C1612 C 0.16798 0.05338 0.72484 0.0
C1613 C 0.15627 0.07525 0.69319 0.0
C1614 C 0.20992 0.06268 0.74591 0.0
C1615 C 0.19563 0.03546 0.78168 0.0
N1616 N 0.1729 0.07052 0.71032 0.0
N1617 N 0.18016 0.03676 0.76199 0.0
H1618 H 0.79827 0.34067 0.48253 0.0
H1619 H 0.85335 0.35557 0.36076 0.0
H1620 H 0.87374 0.36322 0.47764 0.0
H1621 H 0.78947 0.30579 0.36449 0.0
H1622 H 0.85788 0.36238 0.40374 0.0
H1623 H 0.79209 0.32997 0.43951 0.0
C1624 C 0.81358 0.34298 0.47251 0.0
C1625 C 0.83654 0.35293 0.48361 0.0
C1626 C 0.84285 0.34996 0.39519 0.0
C1627 C 0.82947 0.34134 0.43467 0.0
C1628 C 0.84009 0.34618 0.37057 0.0
C1629 C 0.82101 0.33 0.35894 0.0
C1630 C 0.82628 0.33771 0.40843 0.0
C1631 C 0.80445 0.3184 0.37274 0.0
C1632 C 0.81001 0.33696 0.44802 0.0
C1633 C 0.85573 0.35566 0.46982 0.0
N1634 N 0.80744 0.32251 0.39686 0.0
N1635 N 0.8517 0.35019 0.44604 0.0
H1636 H 0.57816 0.15964 0.25975 0.0
H1637 H 0.66536 0.08635 0.20513 0.0
H1638 H 0.6069 0.10557 0.29351 0.0
H1639 H 0.62126 0.12644 0.16493 0.0
H1640 H 0.65683 0.10498 0.2419 0.0
H1641 H 0.60607 0.15862 0.22981 0.0
C1642 C 0.59072 0.14792 0.26115 0.0
C1643 C 0.58988 0.13225 0.27866 0.0
C1644 C 0.6496 0.11013 0.22498 0.0
C1645 C 0.62173 0.13106 0.24477 0.0
C1646 C 0.65443 0.0995 0.204 0.0
C1647 C 0.64336 0.10428 0.18195 0.0
C1648 C 0.63356 0.12555 0.2238 0.0
C1649 C 0.62997 0.12195 0.1815 0.0
C1650 C 0.60662 0.14736 0.24411 0.0
C1651 C 0.60663 0.11757 0.27991 0.0
N1652 N 0.62496 0.13157 0.20216 0.0
N1653 N 0.62165 0.11709 0.26294 0.0
H1654 H 0.86749 0.74658 0.98266 0.0
H1655 H 0.81914 0.73359 0.8409 0.0
H1656 H 0.82541 0.68517 0.94691 0.0
H1657 H 0.86005 0.79596 0.87583 0.0
H1658 H 0.82215 0.71582 0.87894 0.0
H1659 H 0.86574 0.76465 0.94447 0.0
C1660 C 0.85787 0.73676 0.96689 0.0
C1661 C 0.84661 0.71402 0.96861 0.0
C1662 C 0.8306 0.73338 0.87843 0.0
C1663 C 0.8445 0.7351 0.92374 0.0
C1664 C 0.82895 0.74368 0.85641 0.0
C1665 C 0.83943 0.76661 0.85441 0.0
C1666 C 0.84282 0.74578 0.8994 0.0
C1667 C 0.8517 0.77832 0.87587 0.0
C1668 C 0.85687 0.7472 0.94486 0.0
C1669 C 0.83446 0.70261 0.947 0.0
N1670 N 0.85298 0.76794 0.89708 0.0
N1671 N 0.83377 0.7131 0.92589 0.0
H1672 H 0.90676 0.20549 0.02919 0.0
H1673 H 0.94595 0.08497 1.00704 0.0
H1674 H 0.85695 0.14186 1.01678 0.0
H1675 H 0.99496 0.1488 1.00885 0.0
H1676 H 0.91315 0.10574 1.01114 0.0
H1677 H 0.9397 0.18518 0.02277 0.0
C1678 C 0.90279 0.18728 0.02506 0.0
C1679 C 0.8792 0.17529 0.02349 0.0
C1680 C 0.93105 0.11522 1.01049 0.0
C1681 C 0.91653 0.15206 1.0162 0.0
C1682 C 0.94974 0.10337 1.00797 0.0
C1683 C 0.97317 0.11519 1.00754 0.0
C1684 C 0.93585 0.13907 1.0127 0.0
C1685 C 0.97717 0.13903 1.00936 0.0
C1686 C 0.92154 0.17571 0.02137 0.0
C1687 C 0.87493 0.15174 0.01813 0.0
N1688 N 0.95867 0.15022 1.01195 0.0
N1689 N 0.89344 0.14087 1.01473 0.0
H1690 H 0.37287 0.49645 0.05736 0.0
H1691 H 0.50451 0.49429 1.0159 0.0
H1692 H 0.3934 0.43628 0.02688 0.0
H1693 H 0.49029 0.54884 0.06188 0.0
H1694 H 0.46314 0.47439 1.01684 0.0
H1695 H 0.4142 0.51705 0.05648 0.0
C1696 C 0.38595 0.4875 0.05041 0.0
C1697 C 0.37924 0.46438 0.04222 0.0
C1698 C 0.46897 0.49074 0.02671 0.0
C1699 C 0.42723 0.48827 0.0409 0.0
C1700 C 0.49275 0.50227 0.02611 0.0
C1701 C 0.50139 0.52356 0.03877 0.0
C1702 C 0.45303 0.50042 0.03986 0.0
C1703 C 0.48482 0.5326 0.05176 0.0
C1704 C 0.40971 0.49934 0.04996 0.0
C1705 C 0.39741 0.45397 0.03348 0.0
N1706 N 0.4617 0.52115 0.05186 0.0
N1707 N 0.42022 0.46589 0.03295 0.0
H1708 H 0.3628 0.57402 0.71076 0.0
H1709 H 0.32456 0.64462 0.81927 0.0
H1710 H 0.38028 0.56219 0.78456 0.0
H1711 H 0.31975 0.66366 0.74678 0.0
H1712 H 0.33696 0.60926 0.806 0.0
H1713 H 0.3387 0.60168 0.72295 0.0
C1714 C 0.36128 0.57703 0.72951 0.0
C1715 C 0.3738 0.56615 0.74674 0.0
C1716 C 0.33293 0.62108 0.79298 0.0
C1717 C 0.3465 0.59774 0.76078 0.0
C1718 C 0.3258 0.64115 0.80053 0.0
C1719 C 0.32153 0.65708 0.7841 0.0
C1720 C 0.33564 0.617 0.76887 0.0
C1721 C 0.32338 0.65193 0.76003 0.0
C1722 C 0.34758 0.59283 0.73645 0.0
C1723 C 0.3711 0.57047 0.77076 0.0
N1724 N 0.33049 0.63237 0.75315 0.0
N1725 N 0.35793 0.58618 0.77712 0.0
H1726 H 0.25036 0.66359 0.57147 0.0
H1727 H 0.13757 0.597 0.49017 0.0
H1728 H 0.25069 0.65483 0.4954 0.0
H1729 H 0.15847 0.57517 0.55949 0.0
H1730 H 0.17712 0.62127 0.49197 0.0
H1731 H 0.21402 0.63439 0.5682 0.0
C1732 C 0.24273 0.65552 0.55412 0.0
C1733 C 0.25333 0.66155 0.53365 0.0
C1734 C 0.17312 0.61087 0.50659 0.0
C1735 C 0.21213 0.62853 0.52983 0.0
C1736 C 0.15066 0.5971 0.50559 0.0
C1737 C 0.14495 0.58417 0.5247 0.0
C1738 C 0.18955 0.6121 0.52713 0.0
C1739 C 0.16237 0.58483 0.54434 0.0
C1740 C 0.22223 0.6388 0.5523 0.0
C1741 C 0.24296 0.65058 0.51158 0.0
N1742 N 0.18385 0.59896 0.54526 0.0
N1743 N 0.22269 0.63471 0.51019 0.0
H1744 H 0.68896 0.94686 0.74338 0.0
H1745 H 0.76688 0.90174 0.84544 0.0
H1746 H 0.66539 0.94828 0.81331 0.0
H1747 H 0.79829 0.94614 0.79518 0.0
H1748 H 0.72799 0.91289 0.8339 0.0
H1749 H 0.7271 0.93811 0.76062 0.0
C1750 C 0.69163 0.94496 0.76234 0.0
C1751 C 0.67405 0.94846 0.77699 0.0
C1752 C 0.74357 0.92041 0.82579 0.0
C1753 C 0.71775 0.93858 0.79674 0.0
C1754 C 0.76583 0.91427 0.83247 0.0
C1755 C 0.78588 0.92276 0.82098 0.0
C1756 C 0.74138 0.93469 0.80722 0.0
C1757 C 0.78324 0.93869 0.80405 0.0
C1758 C 0.71351 0.94023 0.77216 0.0
C1759 C 0.67855 0.94574 0.80144 0.0
N1760 N 0.76128 0.94377 0.79732 0.0
N1761 N 0.70009 0.94091 0.81066 0.0
H1762 H 0.76025 0.99195 0.56004 0.0
H1763 H 0.6179 0.98654 0.5168 0.0
H1764 H 0.71505 0.93191 0.52466 0.0
H1765 H 0.66032 0.04076 0.56405 0.0
H1766 H 0.65312 0.96748 0.5173 0.0
H1767 H 0.72485 1.01072 0.55955 0.0
C1768 C 0.74296 0.98259 0.55208 0.0
C1769 C 0.74117 0.96 0.54242 0.0
C1770 C 0.65483 0.98355 0.5276 0.0
C1771 C 0.69958 0.98202 0.54159 0.0
C1772 C 0.63452 0.9946 0.52729 0.0
C1773 C 0.63554 1.01561 0.54043 0.0
C1774 C 0.67701 0.99338 0.54092 0.0
C1775 C 0.65811 0.02472 0.55361 0.0
C1776 C 0.72254 0.99344 0.55185 0.0
C1777 C 0.71779 0.94919 0.53244 0.0
N1778 N 0.67759 1.01378 0.55341 0.0
N1779 N 0.69829 0.96018 0.53221 0.0
H1780 H 0.35794 0.46637 0.71282 0.0
H1781 H 0.38846 0.35877 0.77212 0.0
H1782 H 0.42956 0.45052 0.71974 0.0
H1783 H 0.31733 0.35972 0.73712 0.0
H1784 H 0.40379 0.39247 0.75236 0.0
H1785 H 0.342 0.42698 0.71966 0.0
C1786 C 0.37022 0.45446 0.71522 0.0
C1787 C 0.3951 0.4617 0.71625 0.0
C1788 C 0.38488 0.38512 0.74876 0.0
C1789 C 0.37717 0.41708 0.72441 0.0
C1790 C 0.37611 0.36604 0.7602 0.0
C1791 C 0.35161 0.35665 0.75636 0.0
C1792 C 0.36891 0.39511 0.73384 0.0
C1793 C 0.33637 0.36656 0.74058 0.0
C1794 C 0.36114 0.43204 0.71913 0.0
C1795 C 0.41027 0.44566 0.71924 0.0
N1796 N 0.34522 0.38554 0.73013 0.0
N1797 N 0.4011 0.42415 0.72372 0.0
H1798 H 0.17096 0.53491 0.21618 0.0
H1799 H 0.22443 0.64805 0.2999 0.0
H1800 H 0.16055 0.54332 0.29024 0.0
H1801 H 0.22939 0.64201 0.22441 0.0
H1802 H 0.20083 0.60966 0.29666 0.0
H1803 H 0.19204 0.57432 0.21861 0.0
C1804 C 0.17301 0.5451 0.2329 0.0
C1805 C 0.16404 0.53589 0.25304 0.0
C1806 C 0.20695 0.61679 0.28077 0.0
C1807 C 0.18822 0.58081 0.25603 0.0
C1808 C 0.22051 0.63866 0.28264 0.0
C1809 C 0.22885 0.64826 0.2624 0.0
C1810 C 0.20179 0.60438 0.25851 0.0
C1811 C 0.22304 0.6354 0.24043 0.0
C1812 C 0.18503 0.56757 0.2343 0.0
C1813 C 0.16717 0.54979 0.27427 0.0
N1814 N 0.20995 0.61409 0.23909 0.0
N1815 N 0.1791 0.57152 0.27524 0.0
H1816 H 0.60029 0.72412 0.46785 0.0
H1817 H 0.56671 0.63708 0.5637 0.0
H1818 H 0.52854 0.69611 0.48211 0.0
H1819 H 0.6362 0.65091 0.53863 0.0
H1820 H 0.55645 0.67092 0.5459 0.0
H1821 H 0.61652 0.70846 0.50391 0.0
C1822 C 0.58798 0.71486 0.47871 0.0
C1823 C 0.56312 0.71079 0.47177 0.0
C1824 C 0.57429 0.66708 0.54501 0.0
C1825 C 0.58142 0.69335 0.51296 0.0
C1826 C 0.58019 0.64796 0.55537 0.0
C1827 C 0.6022 0.64149 0.55238 0.0
C1828 C 0.59035 0.67919 0.53111 0.0
C1829 C 0.61904 0.65563 0.5412 0.0
C1830 C 0.59722 0.70611 0.49931 0.0
C1831 C 0.54787 0.6991 0.48657 0.0
N1832 N 0.61254 0.67367 0.53036 0.0
N1833 N 0.5573 0.69056 0.50636 0.0
H1834 H 0.70157 0.39722 0.74176 0.0
H1835 H 0.77221 0.29763 0.75546 0.0
H1836 H 0.7138 0.35598 0.68092 0.0
H1837 H 0.80566 0.36229 0.79186 0.0
H1838 H 0.7423 0.31636 0.73405 0.0
H1839 H 0.73426 0.38352 0.76564 0.0
C1840 C 0.71152 0.3858 0.73331 0.0
C1841 C 0.70492 0.37752 0.70945 0.0
C1842 C 0.75611 0.32633 0.74693 0.0
C1843 C 0.74111 0.36139 0.73659 0.0
C1844 C 0.77293 0.31566 0.75932 0.0
C1845 C 0.79142 0.32855 0.77525 0.0
C1846 C 0.75759 0.34984 0.75092 0.0
C1847 C 0.7917 0.3519 0.77949 0.0
C1848 C 0.72994 0.37793 0.74693 0.0
C1849 C 0.71825 0.36269 0.69929 0.0
N1850 N 0.77492 0.36193 0.76734 0.0
N1851 N 0.73538 0.35465 0.71309 0.0
H1852 H 0.98919 0.3005 0.92304 0.0
H1853 H 0.07152 0.41565 0.97775 0.0
H1854 H 0.05343 0.30347 0.97215 0.0
H1855 H 0.99647 0.4122 0.95233 0.0
H1856 H 0.06584 0.37441 0.97295 0.0
H1857 H 0.99154 0.34144 0.93153 0.0
C1858 C 1.00355 0.30971 0.93585 0.0
C1859 C 1.02125 0.29872 0.94679 0.0
C1860 C 0.05058 0.38267 0.96852 0.0
C1861 C 1.02426 0.34525 0.95617 0.0
C1862 C 0.0538 0.40622 0.97126 0.0
C1863 C 0.03439 0.4174 0.96558 0.0
C1864 C 1.02788 0.37018 0.95973 0.0
C1865 C 1.01198 0.4043 0.95667 0.0
C1866 C 1.0049 0.33301 0.94064 0.0
C1867 C 0.03948 0.31134 0.96325 0.0
N1868 N 1.00933 0.38131 0.95395 0.0
N1869 N 0.04069 0.33402 0.96722 0.0
H1870 H 0.04783 0.79977 0.18136 0.0
H1871 H 0.98633 0.82456 0.29788 0.0
H1872 H 0.06762 0.86222 0.22621 0.0
H1873 H 0.96856 0.76165 0.25367 0.0
H1874 H 1.01774 0.83802 0.27323 0.0
H1875 H 1.01903 0.78541 0.20818 0.0
C1876 C 0.04596 0.81052 0.19679 0.0
C1877 C 0.06004 0.8322 0.20161 0.0
C1878 C 1.00712 0.82119 0.26906 0.0
C1879 C 1.02738 0.81581 0.23252 0.0
C1880 C 0.98939 0.81339 0.28328 0.0
C1881 C 0.97482 0.79198 0.27772 0.0
C1882 C 1.01019 0.80747 0.24915 0.0
C1883 C 0.97924 0.77837 0.25837 0.0
C1884 C 1.02963 0.80227 0.21217 0.0
C1885 C 0.05699 0.84542 0.22184 0.0
N1886 N 0.99644 0.78642 0.24466 0.0
N1887 N 0.04098 0.83698 0.23664 0.0
H1888 H 0.57805 0.39394 0.15594 0.0
H1889 H 0.57412 0.4669 0.03784 0.0
H1890 H 0.56154 0.36204 0.08489 0.0
H1891 H 0.58119 0.4982 0.10898 0.0
H1892 H 0.57131 0.42937 0.05433 0.0
H1893 H 0.58092 0.43146 0.13941 0.0
C1894 C 0.57502 0.39458 0.13682 0.0
C1895 C 0.56946 0.37394 0.12216 0.0
C1896 C 0.57354 0.44435 0.06648 0.0
C1897 C 0.57299 0.41845 0.10242 0.0
C1898 C 0.57524 0.46617 0.05697 0.0
C1899 C 0.57806 0.48666 0.07166 0.0
C1900 C 0.57476 0.4421 0.09133 0.0
C1901 C 0.57913 0.4835 0.09647 0.0
C1902 C 0.57667 0.41637 0.12727 0.0
C1903 C 0.56584 0.37689 0.09735 0.0
N1904 N 0.57759 0.46216 0.10524 0.0
N1905 N 0.56771 0.39825 0.08853 0.0
H1906 H 1.02809 0.31528 0.35378 0.0
H1907 H 0.88368 0.27523 0.34582 0.0
H1908 H 0.99426 0.28002 0.40887 0.0
H1909 H 0.91654 0.32647 0.30323 0.0
H1910 H 0.92371 0.27361 0.36644 0.0
H1911 H 0.98805 0.31641 0.33287 0.0
C1912 C 1.01232 0.30762 0.36152 0.0
C1913 C 1.01502 0.29751 0.38337 0.0
C1914 C 0.92224 0.2852 0.35256 0.0
C1915 C 0.96824 0.29859 0.35893 0.0
C1916 C 0.89921 0.2861 0.34059 0.0
C1917 C 0.89618 0.30103 0.32246 0.0
C1918 C 0.94301 0.29907 0.34638 0.0
C1919 C 0.91751 0.31465 0.31694 0.0
C1920 C 0.98929 0.30836 0.3495 0.0
C1921 C 0.99346 0.28804 0.39221 0.0
N1922 N 0.93968 0.31326 0.32861 0.0
N1923 N 0.9713 0.2887 0.38004 0.0
H1924 H 0.05262 0.74486 0.58203 0.0
H1925 H 0.08521 0.61856 0.60178 0.0
H1926 H 0.07211 0.72272 0.65124 0.0
H1927 H 0.05382 0.63643 0.53445 0.0
H1928 H 0.08247 0.65648 0.61951 0.0
H1929 H 0.05475 0.70672 0.56421 0.0
C1930 C 0.05734 0.73215 0.59366 0.0
C1931 C 0.06205 0.73779 0.61856 0.0
C1932 C 0.07615 0.65225 0.60083 0.0
C1933 C 0.06489 0.69276 0.59761 0.0
C1934 C 0.07775 0.63029 0.59051 0.0
C1935 C 0.06976 0.62343 0.56618 0.0
C1936 C 0.06671 0.66846 0.58702 0.0
C1937 C 0.06027 0.64022 0.55315 0.0
C1938 C 0.05857 0.71007 0.58333 0.0
C1939 C 0.06815 0.71981 0.6321 0.0
N1940 N 0.05916 0.66147 0.5635 0.0
N1941 N 0.06945 0.69867 0.62165 0.0
H1942 H 0.67662 0.82443 0.91255 0.0
H1943 H 0.73382 0.77832 0.79742 0.0
H1944 H 0.63391 0.78182 0.85446 0.0
H1945 H 0.77284 0.83197 0.84749 0.0
H1946 H 0.69828 0.77793 0.81881 0.0
H1947 H 0.71206 0.82584 0.89065 0.0
C1948 C 0.67451 0.81528 0.89524 0.0
C1949 C 0.65161 0.80298 0.88571 0.0
C1950 C 0.71452 0.7899 0.82518 0.0
C1951 C 0.69329 0.80439 0.85994 0.0
C1952 C 0.7351 0.79018 0.81281 0.0
C1953 C 0.757 0.80533 0.82015 0.0
C1954 C 0.71525 0.80464 0.84571 0.0
C1955 C 0.75675 0.82001 0.84064 0.0
C1956 C 0.69499 0.81615 0.88258 0.0
C1957 C 0.65077 0.79161 0.86291 0.0
N1958 N 0.73663 0.81918 0.85252 0.0
N1959 N 0.67095 0.7925 0.85114 0.0
H1960 H 0.462 0.58607 0.67674 0.0
H1961 H 0.57325 0.5484 0.62464 0.0
H1962 H 0.46902 0.51577 0.66499 0.0
H1963 H 0.54169 0.60238 0.59368 0.0
H1964 H 0.54033 0.54155 0.64924 0.0
H1965 H 0.4956 0.59692 0.6533 0.0
C1966 C 0.47036 0.57296 0.66891 0.0
C1967 C 0.46288 0.55004 0.6727 0.0
C1968 C 0.54088 0.55506 0.63723 0.0
C1969 C 0.50133 0.5623 0.64713 0.0
C1970 C 0.5597 0.55913 0.62345 0.0
C1971 C 0.55991 0.57581 0.60708 0.0
C1972 C 0.52255 0.56803 0.6348 0.0
C1973 C 0.54189 0.58919 0.60602 0.0
C1974 C 0.48948 0.57916 0.65577 0.0
C1975 C 0.47423 0.53363 0.66238 0.0
N1976 N 0.52374 0.58497 0.61972 0.0
N1977 N 0.49321 0.54013 0.65034 0.0
H1978 H 0.79557 0.20726 0.95231 0.0
H1979 H 0.84192 0.312 0.87765 0.0
H1980 H 0.83731 0.27058 0.98472 0.0
H1981 H 0.81258 0.24421 0.84655 0.0
H1982 H 0.83508 0.29909 0.91693 0.0
H1983 H 0.7964 0.22266 0.91346 0.0
C1984 C 0.80476 0.22451 0.95126 0.0
C1985 C 0.81653 0.23765 0.97173 0.0
C1986 C 0.82999 0.28712 0.90147 0.0
C1987 C 0.81761 0.25536 0.92724 0.0
C1988 C 0.83377 0.29447 0.87902 0.0
C1989 C 0.82793 0.27911 0.85878 0.0
C1990 C 0.82016 0.2643 0.90365 0.0
C1991 C 0.81751 0.25661 0.86166 0.0
C1992 C 0.80527 0.23327 0.92905 0.0
C1993 C 0.82809 0.25989 0.96933 0.0
N1994 N 0.81404 0.24988 0.88369 0.0
N1995 N 0.82846 0.26804 0.94741 0.0
H1996 H 0.1383 0.44968 0.16815 0.0
H1997 H 0.0827 0.47819 0.06296 0.0
H1998 H 0.06861 0.44263 0.1933 0.0
H1999 H 0.04685 0.51151 0.11423 0.0
H2000 H 0.09155 0.45114 0.09223 0.0
H2001 H 0.11993 0.45708 0.12894 0.0
C2002 C 0.11902 0.44884 0.16518 0.0
C2003 C 0.10503 0.44596 0.18407 0.0
C2004 C 0.08127 0.46407 0.09678 0.0
C2005 C 0.08404 0.45473 0.1396 0.0
C2006 C 0.07602 0.47936 0.08009 0.0
C2007 C 0.06434 0.49728 0.08642 0.0
C2008 C 0.07443 0.46662 0.11968 0.0
C2009 C 0.05618 0.49812 0.10883 0.0
C2010 C 0.10851 0.453 0.14278 0.0
C2011 C 0.08012 0.44507 0.17929 0.0
N2012 N 0.06156 0.48308 0.12477 0.0
N2013 N 0.07054 0.45025 0.15773 0.0
H2014 H 0.82625 0.86573 0.48843 0.0
H2015 H 0.78274 0.84751 0.3465 0.0
H2016 H 0.78322 0.90948 0.45325 0.0
H2017 H 0.84534 0.8243 0.37901 0.0
H2018 H 0.77873 0.86658 0.38531 0.0
H2019 H 0.82945 0.84698 0.44943 0.0
C2020 C 0.81728 0.87139 0.4726 0.0
C2021 C 0.80439 0.88945 0.47467 0.0
C2022 C 0.79334 0.85729 0.384 0.0
C2023 C 0.80781 0.86737 0.42896 0.0
C2024 C 0.79562 0.84623 0.36168 0.0
C2025 C 0.8145 0.83405 0.35891 0.0
C2026 C 0.80968 0.85596 0.40434 0.0
C2027 C 0.83051 0.83339 0.37975 0.0
C2028 C 0.81922 0.86062 0.45013 0.0
C2029 C 0.79339 0.89577 0.45298 0.0
N2030 N 0.82763 0.84386 0.40122 0.0
N2031 N 0.79519 0.88477 0.43137 0.0
H2032 H 0.47043 0.49966 0.79113 0.0
H2033 H 0.58031 0.57391 0.87323 0.0
H2034 H 0.49928 0.5683 0.7766 0.0
H2035 H 0.55977 0.50113 0.87409 0.0
H2036 H 0.55364 0.57242 0.83599 0.0
H2037 H 0.5049 0.50013 0.82064 0.0
C2038 C 0.48404 0.51488 0.79423 0.0
C2039 C 0.48193 0.53405 0.78164 0.0
C2040 C 0.55547 0.55676 0.84411 0.0
C2041 C 0.5216 0.53472 0.81537 0.0
C2042 C 0.57068 0.55758 0.86534 0.0
C2043 C 0.57202 0.53769 0.8771 0.0
C2044 C 0.54145 0.53593 0.83478 0.0
C2045 C 0.55948 0.51696 0.86582 0.0
C2046 C 0.50386 0.51508 0.81094 0.0
C2047 C 0.50022 0.55322 0.78612 0.0
N2048 N 0.54443 0.5167 0.84556 0.0
N2049 N 0.51925 0.55318 0.80286 0.0
H2050 H 0.84052 0.2045 0.12057 0.0
H2051 H 0.83591 0.31255 0.20737 0.0
H2052 H 0.82504 0.26835 0.097 0.0
H2053 H 0.83606 0.24576 0.23259 0.0
H2054 H 0.83721 0.2972 0.16725 0.0
H2055 H 0.84371 0.2199 0.16191 0.0
C2056 C 0.83794 0.22181 0.12411 0.0
C2057 C 0.8325 0.23522 0.10539 0.0
C2058 C 0.83702 0.28584 0.1815 0.0
C2059 C 0.83616 0.25285 0.15248 0.0
C2060 C 0.83632 0.29459 0.20452 0.0
C2061 C 0.83562 0.28035 0.22341 0.0
C2062 C 0.83709 0.26263 0.17714 0.0
C2063 C 0.83649 0.25731 0.21853 0.0
C2064 C 0.8397 0.23053 0.14768 0.0
C2065 C 0.82925 0.25746 0.11091 0.0
N2066 N 0.83705 0.24909 0.19576 0.0
N2067 N 0.83113 0.26557 0.13398 0.0
H2068 H 0.06157 0.49446 0.27018 0.0
H2069 H 0.03513 0.48708 0.403 0.0
H2070 H 0.08534 0.44603 0.31684 0.0
H2071 H 1.00838 0.53386 0.35593 0.0
H2072 H 0.04425 0.46538 0.36884 0.0
H2073 H 1.03388 0.50285 0.29805 0.0
C2074 C 0.06064 0.4853 0.28612 0.0
C2075 C 0.07609 0.4699 0.29153 0.0
C2076 C 0.03589 0.4801 0.36587 0.0
C2077 C 0.04464 0.47953 0.32355 0.0
C2078 C 1.03041 0.49244 0.38543 0.0
C2079 C 1.02145 0.51268 0.38241 0.0
C2080 C 1.03275 0.48823 0.34319 0.0
C2081 C 1.01596 0.51875 0.35914 0.0
C2082 C 0.04479 0.49007 0.30201 0.0
C2083 C 0.07397 0.45829 0.31221 0.0
N2084 N 1.02221 0.50686 0.34044 0.0
N2085 N 0.05884 0.46365 0.32771 0.0
H2086 H 0.8248 0.92285 0.63385 0.0
H2087 H 0.79391 0.80695 0.70169 0.0
H2088 H 0.78706 0.85961 0.59816 0.0
H2089 H 0.82715 0.87095 0.73902 0.0
H2090 H 0.79156 0.82581 0.66431 0.0
H2091 H 0.82623 0.90458 0.67183 0.0
C2092 C 0.81675 0.90511 0.63382 0.0
C2093 C 0.80574 0.89303 0.61217 0.0
C2094 C 0.79931 0.83587 0.68061 0.0
C2095 C 0.80744 0.87147 0.65669 0.0
C2096 C 0.80063 0.82502 0.70227 0.0
C2097 C 0.81065 0.83707 0.72426 0.0
C2098 C 0.80819 0.85932 0.68015 0.0
C2099 C 0.81909 0.86063 0.72299 0.0
C2100 C 0.81759 0.8946 0.65576 0.0
C2101 C 0.79575 0.86993 0.61398 0.0
N2102 N 0.81774 0.87075 0.70164 0.0
N2103 N 0.79689 0.8601 0.63548 0.0
H2104 H 0.7789 0.41273 0.58527 0.0
H2105 H 0.74311 0.53058 0.54886 0.0
H2106 H 0.79861 0.44587 0.52268 0.0
H2107 H 0.71868 0.49636 0.60921 0.0
H2108 H 0.76255 0.4988 0.53854 0.0
H2109 H 0.7548 0.44184 0.59341 0.0
C2110 C 0.77782 0.42591 0.57305 0.0
C2111 C 0.79085 0.42704 0.55338 0.0
C2112 C 0.75295 0.4982 0.55406 0.0
C2113 C 0.76379 0.46045 0.56274 0.0
C2114 C 0.74186 0.51636 0.55995 0.0
C2115 C 0.7293 0.51612 0.57994 0.0
C2116 C 0.75159 0.47966 0.56829 0.0
C2117 C 0.72849 0.49737 0.59385 0.0
C2118 C 0.7642 0.44258 0.57777 0.0
C2119 C 0.78893 0.44446 0.53812 0.0
N2120 N 0.7395 0.47985 0.58776 0.0
N2121 N 0.77583 0.4606 0.54325 0.0
H2122 H 0.27701 0.10863 0.51925 0.0
H2123 H 0.14981 0.10807 0.57036 0.0
H2124 H 0.25774 0.16886 0.55103 0.0
H2125 H 0.15781 0.05968 0.51405 0.0
H2126 H 0.19104 0.12781 0.56807 0.0
H2127 H 0.23585 0.08814 0.52138 0.0
C2128 C 0.26423 0.11761 0.52672 0.0
C2129 C 0.2712 0.14073 0.53484 0.0
C2130 C 0.18388 0.11281 0.55626 0.0
C2131 C 0.22356 0.11691 0.53784 0.0
C2132 C 0.16022 0.10134 0.55766 0.0
C2133 C 0.14988 0.0819 0.54246 0.0
C2134 C 0.19801 0.10477 0.53985 0.0
C2135 C 0.16468 0.07447 0.52623 0.0
C2136 C 0.24059 0.10584 0.52789 0.0
C2137 C 0.25346 0.15119 0.54436 0.0
N2138 N 0.18778 0.08569 0.5255 0.0
N2139 N 0.23082 0.13928 0.54576 0.0
H2140 H 0.33774 0.05462 0.84151 0.0
H2141 H 0.36639 0.93273 0.86061 0.0
H2142 H 0.29718 1.00355 0.87928 0.0
H2143 H 0.40196 0.97897 0.81435 0.0
H2144 H 0.35216 0.96412 0.87985 0.0
H2145 H 0.37023 0.03252 0.84256 0.0
C2146 C 0.33583 0.03889 0.85029 0.0
C2147 C 0.31454 0.03049 0.8597 0.0
C2148 C 0.36363 0.96757 0.86593 0.0
C2149 C 0.35154 1.00534 0.86116 0.0
C2150 C 0.3721 0.94963 0.85506 0.0
C2151 C 0.38469 0.95306 0.83516 0.0
C2152 C 0.36748 0.98893 0.8566 0.0
C2153 C 0.3915 0.97544 0.82902 0.0
C2154 C 0.35441 0.02637 0.85101 0.0
C2155 C 0.3131 1.01031 0.87127 0.0
N2156 N 0.38216 0.99247 0.83919 0.0
N2157 N 0.33121 0.99824 0.87136 0.0
H2158 H 0.41593 0.94211 0.09271 0.0
H2159 H 0.50425 1.00396 1.00871 0.0
H2160 H 0.42201 0.91524 0.02181 0.0
H2161 H 0.51848 1.01577 0.08526 0.0
H2162 H 0.47136 0.97359 1.01332 0.0
H2163 H 0.4519 0.97062 0.0908 0.0
C2164 C 0.42506 0.94202 0.07689 0.0
C2165 C 0.41598 0.92649 0.05728 0.0
C2166 C 0.48168 0.98279 0.02912 0.0
C2167 C 0.45661 0.95905 0.05492 0.0
C2168 C 0.50033 1.00033 0.02654 0.0
C2169 C 0.5141 1.01248 0.04668 0.0
C2170 C 0.47653 0.97746 0.05198 0.0
C2171 C 0.50827 1.00682 0.06929 0.0
C2172 C 0.44551 0.95827 0.07584 0.0
C2173 C 0.42841 0.92699 0.03726 0.0
N2174 N 0.48975 0.98969 0.07137 0.0
N2175 N 0.44797 0.94326 0.03647 0.0
H2176 H 0.93996 0.63495 0.86144 0.0
H2177 H 0.8664 0.68997 0.76039 0.0
H2178 H 0.97146 0.68826 0.82014 0.0
H2179 H 0.83163 0.65884 0.81755 0.0
H2180 H 0.90488 0.68421 0.77966 0.0
H2181 H 0.89988 0.64051 0.84493 0.0
C2182 C 0.93843 0.64816 0.84933 0.0
C2183 C 0.959 0.66106 0.84196 0.0
C2184 C 0.88883 0.67846 0.78793 0.0
C2185 C 0.91352 0.66696 0.82266 0.0
C2186 C 0.86674 0.6813 0.77668 0.0
C2187 C 0.84569 0.67469 0.78729 0.0
C2188 C 0.89 0.66884 0.80993 0.0
C2189 C 0.84745 0.66416 0.80881 0.0
C2190 C 0.91561 0.65119 0.83983 0.0
C2191 C 0.95608 0.67789 0.82623 0.0
N2192 N 0.86932 0.66158 0.81952 0.0
N2193 N 0.93373 0.68011 0.81681 0.0
H2194 H 0.89188 0.61387 0.0198 0.0
H2195 H 1.03213 0.61663 0.07013 0.0
H2196 H 0.93626 0.67249 0.05875 0.0
H2197 H 0.99211 0.56431 0.0191 0.0
H2198 H 0.99707 0.63592 0.06823 0.0
H2199 H 0.92706 0.59468 0.02132 0.0
C2200 C 0.90893 0.62283 0.02875 0.0
C2201 C 0.91055 0.64516 0.03911 0.0
C2202 C 0.99583 0.62021 0.05741 0.0
C2203 C 0.95188 0.62262 0.04116 0.0
C2204 C 1.01605 0.60901 0.05851 0.0
C2205 C 1.01569 0.58845 0.04478 0.0
C2206 C 0.97433 0.611 0.04264 0.0
C2207 C 0.9938 0.57996 0.0301 0.0
C2208 C 0.92923 0.61174 0.02957 0.0
C2209 C 0.93364 0.65544 0.05038 0.0
N2210 N 0.97434 0.59103 0.02955 0.0
N2211 N 0.953 0.64422 0.05118 0.0
H2212 H 0.29978 0.13883 0.87784 0.0
H2213 H 0.25807 0.2425 0.8126 0.0
H2214 H 0.22942 0.13517 0.83904 0.0
H2215 H 0.33126 0.23809 0.83852 0.0
H2216 H 0.24431 0.20731 0.83131 0.0
H2217 H 0.3081 0.17955 0.87336 0.0
C2218 C 0.28596 0.14669 0.86866 0.0
C2219 C 0.26414 0.13365 0.85827 0.0
C2220 C 0.26333 0.21429 0.83312 0.0
C2221 C 0.27359 0.18003 0.85283 0.0
C2222 C 0.27116 0.23428 0.82247 0.0
C2223 C 0.29582 0.24277 0.82358 0.0
C2224 C 0.28036 0.20309 0.84507 0.0
C2225 C 0.3121 0.23174 0.83674 0.0
C2226 C 0.2907 0.16991 0.8661 0.0
C2227 C 0.24666 0.14467 0.84694 0.0
N2228 N 0.30409 0.21236 0.84681 0.0
N2229 N 0.25193 0.16726 0.84412 0.0
H2230 H 0.48544 0.0614 0.35703 0.0
H2231 H 0.41958 0.9491 0.27743 0.0
H2232 H 0.49682 0.0473 0.28405 0.0
H2233 H 0.41889 0.95802 0.35347 0.0
H2234 H 0.44532 0.98639 0.27871 0.0
H2235 H 0.4586 0.02467 0.35538 0.0
C2236 C 0.48237 0.05051 0.3407 0.0
C2237 C 0.49343 0.05732 0.32068 0.0
C2238 C 0.43945 0.98019 0.29509 0.0
C2239 C 0.46259 1.01543 0.31856 0.0
C2240 C 0.4248 0.95889 0.29438 0.0
C2241 C 0.41705 0.95037 0.31537 0.0
C2242 C 0.4464 0.99309 0.31694 0.0
C2243 C 0.4241 0.96399 0.33677 0.0
C2244 C 0.46702 0.02957 0.33974 0.0
C2245 C 0.48875 0.04263 0.29993 0.0
N2246 N 0.4384 0.98462 0.33701 0.0
N2247 N 0.47362 0.02239 0.29939 0.0
H2248 H 0.60328 0.43514 0.65213 0.0
H2249 H 0.63723 0.50359 0.54789 0.0
H2250 H 0.64369 0.40651 0.60165 0.0
H2251 H 0.56672 0.49975 0.5708 0.0
H2252 H 0.64074 0.46782 0.56569 0.0
H2253 H 0.59099 0.46026 0.62256 0.0
C2254 C 0.60963 0.43426 0.63481 0.0
C2255 C 0.62474 0.4191 0.62926 0.0
C2256 C 0.62424 0.47451 0.56615 0.0
C2257 C 0.61065 0.44743 0.59551 0.0
C2258 C 0.62226 0.49489 0.55613 0.0
C2259 C 0.60192 0.50475 0.55849 0.0
C2260 C 0.60601 0.46452 0.579 0.0
C2261 C 0.58285 0.49279 0.56895 0.0
C2262 C 0.6023 0.44827 0.61786 0.0
C2263 C 0.63217 0.41823 0.6065 0.0
N2264 N 0.58564 0.47351 0.5795 0.0
N2265 N 0.62537 0.43259 0.59044 0.0
H2266 H 0.44699 0.71058 0.40591 0.0
H2267 H 0.39239 0.74859 0.28237 0.0
H2268 H 0.48113 0.70664 0.34179 0.0
H2269 H 0.37735 0.77016 0.35224 0.0
H2270 H 0.41662 0.72229 0.30078 0.0
H2271 H 0.41139 0.71882 0.38244 0.0
C2272 C 0.44665 0.71063 0.38676 0.0
C2273 C 0.4672 0.70865 0.37582 0.0
C2274 C 0.40772 0.73264 0.31192 0.0
C2275 C 0.42703 0.71878 0.34909 0.0
C2276 C 0.39413 0.7477 0.3015 0.0
C2277 C 0.38344 0.76189 0.3159 0.0
C2278 C 0.41004 0.73156 0.33675 0.0
C2279 C 0.38583 0.75994 0.34054 0.0
C2280 C 0.42643 0.71555 0.3734 0.0
C2281 C 0.46573 0.70852 0.35092 0.0
N2282 N 0.39892 0.74512 0.35016 0.0
N2283 N 0.44619 0.71427 0.33838 0.0
H2284 H 0.16815 0.80811 0.12566 0.0
H2285 H 0.09854 0.68663 0.0727 0.0
H2286 H 0.09308 0.79361 0.09749 0.0
H2287 H 0.16294 0.69919 0.12297 0.0
H2288 H 0.10252 0.72747 0.06868 0.0
H2289 H 0.17249 0.77039 0.11012 0.0
C2290 C 0.15275 0.79725 0.11558 0.0
C2291 C 0.13003 0.80357 0.11349 0.0
C2292 C 0.11598 0.72117 0.08023 0.0
C2293 C 0.13485 0.76062 0.09598 0.0
C2294 C 0.1136 0.69794 0.08278 0.0
C2295 C 0.13005 0.68954 0.09877 0.0
C2296 C 0.13502 0.73606 0.09363 0.0
C2297 C 0.14973 0.70488 0.1106 0.0
C2298 C 0.15523 0.77572 0.10682 0.0
C2299 C 0.11078 0.78907 0.09998 0.0
N2300 N 0.15148 0.72746 0.10804 0.0
N2301 N 0.11349 0.76797 0.09214 0.0
H2302 H 0.08341 0.22162 0.86285 0.0
H2303 H 0.17186 0.3268 0.82386 0.0
H2304 H 0.07721 0.29114 0.88097 0.0
H2305 H 0.1609 0.25991 0.78774 0.0
H2306 H 0.1383 0.31401 0.84641 0.0
H2307 H 0.1134 0.23514 0.83656 0.0
C2308 C 0.08833 0.23971 0.8612 0.0
C2309 C 0.07794 0.25533 0.87402 0.0
C2310 C 0.14305 0.30224 0.83331 0.0
C2311 C 0.1121 0.27084 0.8443 0.0
C2312 C 0.16217 0.30951 0.82054 0.0
C2313 C 0.16898 0.29437 0.80397 0.0
C2314 C 0.13103 0.2796 0.82969 0.0
C2315 C 0.15595 0.27215 0.8002 0.0
C2316 C 0.10531 0.2474 0.84616 0.0
C2317 C 0.08481 0.27857 0.8713 0.0
N2318 N 0.1377 0.26534 0.81318 0.0
N2319 N 0.10165 0.28566 0.85684 0.0
H2320 H 0.58936 0.74664 0.99462 0.0
H2321 H 0.57394 0.60808 0.97185 0.0
H2322 H 0.5768 0.71247 0.92455 0.0
H2323 H 0.57833 0.64187 0.04153 0.0
H2324 H 0.57617 0.64531 0.95456 0.0
H2325 H 0.58678 0.70931 1.01179 0.0
C2326 C 0.58608 0.73145 0.98265 0.0
C2327 C 0.58333 0.73356 0.9577 0.0
C2328 C 0.57662 0.64473 0.97366 0.0
C2329 C 0.58038 0.68924 0.97794 0.0
C2330 C 0.5753 0.62314 0.98372 0.0
C2331 C 0.57575 0.62091 1.0086 0.0
C2332 C 0.57868 0.66518 0.98821 0.0
C2333 C 0.57772 0.64192 0.02238 0.0
C2334 C 0.58457 0.70981 0.99263 0.0
C2335 C 0.57909 0.71244 0.94375 0.0
N2336 N 0.57914 0.6626 1.01221 0.0
N2337 N 0.57785 0.69172 0.95385 0.0
H2338 H 0.13114 0.83676 0.72204 0.0
H2339 H 0.24788 0.77709 0.74096 0.0
H2340 H 0.14567 0.78721 0.67025 0.0
H2341 H 0.24984 0.84541 0.76994 0.0
H2342 H 0.20806 0.77752 0.71936 0.0
H2343 H 0.17139 0.83739 0.74378 0.0
C2344 C 0.14267 0.82595 0.71518 0.0
C2345 C 0.13463 0.81198 0.69398 0.0
C2346 C 0.21712 0.79245 0.73045 0.0
C2347 C 0.18119 0.81225 0.71946 0.0
C2348 C 0.24 0.79221 0.74297 0.0
C2349 C 0.25275 0.81127 0.75752 0.0
C2350 C 0.20605 0.81169 0.73268 0.0
C2351 C 0.2411 0.83029 0.75901 0.0
C2352 C 0.16581 0.82638 0.72765 0.0
C2353 C 0.1508 0.79841 0.68629 0.0
N2354 N 0.21857 0.82992 0.74707 0.0
N2355 N 0.17288 0.79872 0.699 0.0
H2356 H 0.09272 0.36297 0.49328 0.0
H2357 H 0.0742 0.49236 0.46622 0.0
H2358 H 0.08056 0.38463 0.42255 0.0
H2359 H 0.08812 0.47181 0.53724 0.0
H2360 H 0.07631 0.45366 0.45034 0.0
H2361 H 0.09107 0.40179 0.50956 0.0
C2362 C 0.08973 0.37572 0.481 0.0
C2363 C 0.08684 0.36973 0.45616 0.0
C2364 C 0.07895 0.45748 0.46943 0.0
C2365 C 0.08478 0.41558 0.47525 0.0
C2366 C 0.07775 0.47991 0.47867 0.0
C2367 C 0.08099 0.48624 0.50347 0.0
C2368 C 0.08343 0.44034 0.48476 0.0
C2369 C 0.08547 0.46846 0.5181 0.0
C2370 C 0.08876 0.39818 0.49045 0.0
C2371 C 0.08298 0.38777 0.44171 0.0
N2372 N 0.08651 0.44684 0.50869 0.0
N2373 N 0.08206 0.40934 0.45129 0.0
H2374 H 0.4838 0.32892 0.17405 0.0
H2375 H 0.39214 0.26292 0.25663 0.0
H2376 H 0.50522 0.27591 0.21516 0.0
H2377 H 0.39951 0.33532 0.2532 0.0
H2378 H 0.42833 0.26369 0.23576 0.0
H2379 H 0.44858 0.32814 0.19624 0.0
C2380 C 0.48117 0.31695 0.18758 0.0
C2381 C 0.49812 0.30251 0.19242 0.0
C2382 C 0.42211 0.27946 0.23958 0.0
C2383 C 0.45641 0.30108 0.21806 0.0
C2384 C 0.40122 0.27905 0.2516 0.0
C2385 C 0.39232 0.29913 0.25729 0.0
C2386 C 0.43422 0.29999 0.232 0.0
C2387 C 0.4054 0.31933 0.24976 0.0
C2388 C 0.46089 0.31659 0.20042 0.0
C2389 C 0.4931 0.28752 0.21053 0.0
N2390 N 0.42509 0.31916 0.23745 0.0
N2391 N 0.47289 0.28701 0.22224 0.0
H2392 H 0.7306 0.55798 0.41838 0.0
H2393 H 0.6068 0.55799 0.47064 0.0
H2394 H 0.66493 0.56407 0.37518 0.0
H2395 H 0.67524 0.57984 0.51366 0.0
H2396 H 0.6277 0.55502 0.43562 0.0
H2397 H 0.71024 0.56102 0.45406 0.0
C2398 C 0.71191 0.55992 0.41646 0.0
C2399 C 0.69933 0.5608 0.39397 0.0
C2400 C 0.63812 0.56054 0.45272 0.0
C2401 C 0.67617 0.56414 0.43429 0.0
C2402 C 0.62625 0.56215 0.47269 0.0
C2403 C 0.6394 0.56919 0.49498 0.0
C2404 C 0.66327 0.56577 0.45515 0.0
C2405 C 0.66452 0.57448 0.4967 0.0
C2406 C 0.70039 0.56175 0.43674 0.0
C2407 C 0.67522 0.5634 0.39228 0.0
N2408 N 0.67573 0.57254 0.47696 0.0
N2409 N 0.66433 0.56487 0.41225 0.0
H2410 H 0.31144 0.83295 0.10506 0.0
H2411 H 0.37748 0.83969 0.23706 0.0
H2412 H 0.38645 0.86247 0.12267 0.0
H2413 H 0.31126 0.79387 0.21133 0.0
H2414 H 0.38123 0.84987 0.19597 0.0
H2415 H 0.31106 0.81942 0.14485 0.0
C2416 C 0.32792 0.83623 0.11722 0.0
C2417 C 0.34899 0.84873 0.11065 0.0
C2418 C 0.36603 0.83746 0.19947 0.0
C2419 C 0.34864 0.83383 0.15631 0.0
C2420 C 0.36384 0.83174 0.22286 0.0
C2421 C 0.34401 0.81599 0.22768 0.0
C2422 C 0.34815 0.82746 0.18105 0.0
C2423 C 0.32686 0.80615 0.20861 0.0
C2424 C 0.32771 0.8286 0.13995 0.0
C2425 C 0.36986 0.85271 0.12708 0.0
N2426 N 0.32928 0.81214 0.18624 0.0
N2427 N 0.36911 0.84551 0.14935 0.0
H2428 H 0.04931 0.67048 0.92456 0.0
H2429 H 0.11922 0.58538 0.98048 0.0
H2430 H 0.1004 0.63971 0.88897 0.0
H2431 H 0.08587 0.63035 0.02266 0.0
H2432 H 0.12167 0.61245 0.94993 0.0
H2433 H 0.07089 0.66498 0.96286 0.0
C2434 C 0.06558 0.66332 0.92482 0.0
C2435 C 0.0726 0.65466 0.90375 0.0
C2436 C 0.11435 0.61679 0.96609 0.0
C2437 C 0.09699 0.64792 0.94722 0.0
C2438 C 0.11287 0.60124 0.98346 0.0
C2439 C 0.10174 0.60546 1.00366 0.0
C2440 C 0.10371 0.6362 0.96858 0.0
C2441 C 0.09423 0.62639 1.00703 0.0
C2442 C 0.0779 0.66012 0.9467 0.0
C2443 C 0.09396 0.64586 0.90496 0.0
N2444 N 0.09465 0.64074 0.98926 0.0
N2445 N 0.10506 0.64213 0.92638 0.0
H2446 H 0.37059 0.24199 0.60275 0.0
H2447 H 0.29682 0.24513 0.71697 0.0
H2448 H 0.31497 0.18707 0.6153 0.0
H2449 H 0.36834 0.28346 0.71844 0.0
H2450 H 0.30068 0.22687 0.67793 0.0
H2451 H 0.3678 0.26021 0.64231 0.0
C2452 C 0.35773 0.23369 0.61368 0.0
C2453 C 0.34309 0.21268 0.60522 0.0
C2454 C 0.31559 0.23926 0.68672 0.0
C2455 C 0.33941 0.23407 0.65116 0.0
C2456 C 0.31338 0.24984 0.7092 0.0
C2457 C 0.33227 0.26603 0.72161 0.0
C2458 C 0.33669 0.24504 0.6757 0.0
C2459 C 0.35322 0.27109 0.71002 0.0
C2460 C 0.35618 0.24417 0.63646 0.0
C2461 C 0.32681 0.20308 0.62071 0.0
N2462 N 0.35473 0.26092 0.68794 0.0
N2463 N 0.32531 0.2138 0.64247 0.0
H2464 H 0.70072 0.5241 0.25137 0.0
H2465 H 0.57491 0.55171 0.22058 0.0
H2466 H 0.65208 0.52219 0.30494 0.0
H2467 H 0.6078 0.51626 0.16846 0.0
H2468 H 0.60133 0.53895 0.25221 0.0
H2469 H 0.66625 0.51885 0.22052 0.0
C2470 C 0.68275 0.52201 0.2566 0.0
C2471 C 0.6792 0.52381 0.28065 0.0
C2472 C 0.60225 0.5334 0.23387 0.0
C2473 C 0.63989 0.51843 0.24566 0.0
C2474 C 0.58722 0.5407 0.21589 0.0
C2475 C 0.58934 0.53513 0.19197 0.0
C2476 C 0.61989 0.52106 0.22774 0.0
C2477 C 0.60557 0.52087 0.18672 0.0
C2478 C 0.66309 0.51898 0.23904 0.0
C2479 C 0.65556 0.52099 0.28654 0.0
N2480 N 0.62068 0.51479 0.20445 0.0
N2481 N 0.63679 0.51903 0.26914 0.0
H2482 H 0.32898 0.89958 0.9711 0.0
H2483 H 0.3001 0.79802 0.86958 0.0
H2484 H 0.32692 0.8296 0.98685 0.0
H2485 H 0.33043 0.86706 0.85779 0.0
H2486 H 0.3017 0.80931 0.9121 0.0
H2487 H 0.32128 0.88766 0.92879 0.0
C2488 C 0.32674 0.88165 0.96564 0.0
C2489 C 0.32872 0.86553 0.98244 0.0
C2490 C 0.30777 0.82196 0.9001 0.0
C2491 C 0.31983 0.85182 0.93407 0.0
C2492 C 0.30669 0.81561 0.87588 0.0
C2493 C 0.31516 0.83168 0.86026 0.0
C2494 C 0.317 0.84456 0.90849 0.0
C2495 C 0.32381 0.85415 0.86929 0.0
C2496 C 0.32241 0.87489 0.9415 0.0
C2497 C 0.32564 0.84254 0.97439 0.0
N2498 N 0.32449 0.85993 0.89284 0.0
N2499 N 0.32135 0.83632 0.95067 0.0
H2500 H 1.01909 0.64863 0.76128 0.0
H2501 H 0.12225 0.60619 0.69555 0.0
H2502 H 0.08884 0.64482 0.79776 0.0
H2503 H 0.04593 0.58771 0.67321 0.0
H2504 H 0.11355 0.63012 0.72889 0.0
H2505 H 1.03305 0.63826 0.72366 0.0
C2506 C 0.03754 0.64621 0.76128 0.0
C2507 C 0.05267 0.64696 0.78263 0.0
C2508 C 0.09884 0.62099 0.71642 0.0
C2509 C 0.06853 0.63481 0.73992 0.0
C2510 C 0.10372 0.60714 0.69761 0.0
C2511 C 0.08479 0.59487 0.68157 0.0
C2512 C 0.07492 0.62269 0.71895 0.0
C2513 C 0.06116 0.59711 0.68483 0.0
C2514 C 0.04544 0.64016 0.73986 0.0
C2515 C 0.07649 0.64396 0.78165 0.0
N2516 N 0.05692 0.61071 0.70315 0.0
N2517 N 0.08361 0.63754 0.76061 0.0
H2518 H 0.35515 0.2476 0.48338 0.0
H2519 H 0.32275 0.23291 0.33897 0.0
H2520 H 0.32815 0.18299 0.44451 0.0
H2521 H 0.34966 0.2978 0.37743 0.0
H2522 H 0.32507 0.21466 0.37686 0.0
H2523 H 0.35366 0.26605 0.44544 0.0
C2524 C 0.34889 0.23716 0.46697 0.0
C2525 C 0.34177 0.21341 0.46773 0.0
C2526 C 0.33057 0.2329 0.37714 0.0
C2527 C 0.33999 0.23493 0.42317 0.0
C2528 C 0.3293 0.24347 0.35525 0.0
C2529 C 0.3361 0.26725 0.35433 0.0
C2530 C 0.33869 0.24587 0.39898 0.0
C2531 C 0.34427 0.27953 0.37666 0.0
C2532 C 0.34804 0.24782 0.44509 0.0
C2533 C 0.33387 0.20122 0.44534 0.0
N2534 N 0.34529 0.26886 0.39767 0.0
N2535 N 0.33321 0.21196 0.42438 0.0
H2536 H 0.39607 0.70305 0.51876 0.0
H2537 H 0.43568 0.58121 0.51582 0.0
H2538 H 0.34996 0.64105 0.53207 0.0
H2539 H 0.482 0.64305 0.50245 0.0
H2540 H 0.40347 0.60272 0.52045 0.0
H2541 H 0.42763 0.68126 0.51184 0.0
C2542 C 0.39262 0.68485 0.52018 0.0
C2543 C 0.37048 0.67377 0.52596 0.0
C2544 C 0.42064 0.61158 0.51639 0.0
C2545 C 0.40627 0.64882 0.51808 0.0
C2546 C 0.43894 0.59928 0.51357 0.0
C2547 C 0.46146 0.61041 0.50875 0.0
C2548 C 0.42495 0.63514 0.51436 0.0
C2549 C 0.46493 0.6339 0.50642 0.0
C2550 C 0.41059 0.67243 0.51623 0.0
C2551 C 0.36684 0.65021 0.52764 0.0
N2552 N 0.44685 0.64552 0.5093 0.0
N2553 N 0.3846 0.63849 0.52372 0.0
H2554 H 0.89123 0.93547 0.531 0.0
H2555 H 0.98644 0.05348 0.55734 0.0
H2556 H 0.8699 0.99797 0.55392 0.0
H2557 H 1.0014 0.99413 0.51953 0.0
H2558 H 0.94492 0.03358 0.55863 0.0
H2559 H 0.93204 0.95628 0.52924 0.0
C2560 C 0.89503 0.95359 0.53574 0.0
C2561 C 0.87665 0.96476 0.54262 0.0
C2562 C 0.95724 0.02491 0.54997 0.0
C2563 C 0.92433 0.98914 0.54079 0.0
C2564 C 0.98112 0.03633 0.54921 0.0
C2565 C 0.9979 0.02574 0.53817 0.0
C2566 C 0.94973 1.0024 0.53994 0.0
C2567 C 0.98945 1.00331 0.52813 0.0
C2568 C 0.91852 0.96556 0.53467 0.0
C2569 C 0.88317 0.98842 0.54846 0.0
N2570 N 0.96632 0.99253 0.52937 0.0
N2571 N 0.90626 0.99967 0.54753 0.0
H2572 H 0.89447 0.06899 0.29634 0.0
H2573 H 0.81289 0.15762 0.25139 0.0
H2574 H 0.87587 0.07939 0.22233 0.0
H2575 H 0.83483 0.15 0.3254 0.0
H2576 H 0.83036 0.12461 0.2404 0.0
H2577 H 0.86728 0.09422 0.30726 0.0
C2578 C 0.88447 0.07643 0.28239 0.0
C2579 C 0.88762 0.07243 0.25846 0.0
C2580 C 0.83108 0.12996 0.25907 0.0
C2581 C 0.85668 0.1013 0.27076 0.0
C2582 C 0.821 0.1487 0.26535 0.0
C2583 C 0.82262 0.15657 0.28933 0.0
C2584 C 0.84289 0.11908 0.27691 0.0
C2585 C 0.83356 0.14462 0.30669 0.0
C2586 C 0.86897 0.09081 0.28862 0.0
C2587 C 0.87411 0.08226 0.24104 0.0
N2588 N 0.84347 0.12655 0.30013 0.0
N2589 N 0.85939 0.09647 0.24756 0.0
H2590 H 0.77137 0.13613 0.0473 0.0
H2591 H 0.62986 0.11933 1.01005 0.0
H2592 H 0.7345 0.1904 0.02581 0.0
H2593 H 0.66442 0.06982 0.0464 0.0
H2594 H 0.66872 0.14426 1.01203 0.0
H2595 H 0.73275 0.11044 0.04408 0.0
C2596 C 0.7551 0.14265 0.04201 0.0
C2597 C 0.75601 0.16538 0.03685 0.0
C2598 C 0.66781 0.12792 0.01952 0.0
C2599 C 0.71195 0.13612 0.03293 0.0
C2600 C 0.64566 0.11361 0.01828 0.0
C2601 C 0.64394 0.09249 0.02813 0.0
C2602 C 0.68837 0.12101 0.03058 0.0
C2603 C 0.66497 0.08598 0.03861 0.0
C2604 C 0.7331 0.12799 0.04017 0.0
C2605 C 0.73449 0.17299 0.03004 0.0
N2606 N 0.68637 0.10025 0.0396 0.0
N2607 N 0.71327 0.15832 0.02818 0.0
H2608 H 0.16923 0.40496 0.28843 0.0
H2609 H 0.29644 0.43875 0.36855 0.0
H2610 H 0.20848 0.47346 0.30341 0.0
H2611 H 0.26329 0.36979 0.34454 0.0
H2612 H 0.25977 0.45151 0.35239 0.0
H2613 H 0.19986 0.39155 0.31523 0.0
C2614 C 0.18427 0.41713 0.29734 0.0
C2615 C 0.1865 0.44028 0.29351 0.0
C2616 C 0.2604 0.43352 0.35111 0.0
C2617 C 0.22126 0.42523 0.32435 0.0
C2618 C 0.28128 0.42623 0.36046 0.0
C2619 C 0.2832 0.40321 0.35758 0.0
C2620 C 0.24135 0.41769 0.33878 0.0
C2621 C 0.26277 0.3877 0.34728 0.0
C2622 C 0.20165 0.40953 0.31272 0.0
C2623 C 0.20618 0.45541 0.30568 0.0
N2624 N 0.24288 0.39527 0.33786 0.0
N2625 N 0.22284 0.44762 0.32046 0.0
H2626 H 0.21827 0.43213 0.02236 0.0
H2627 H 0.16405 0.5417 0.06845 0.0
H2628 H 0.26229 0.49103 0.06116 0.0
H2629 H 0.12333 0.48954 0.01764 0.0
H2630 H 0.19899 0.5225 0.06791 0.0
H2631 H 0.1832 0.45139 0.0223 0.0
C2632 C 0.22073 0.44909 0.03093 0.0
C2633 C 0.24381 0.4597 0.04176 0.0
C2634 C 0.18247 0.51517 0.05683 0.0
C2635 C 0.20272 0.48228 0.04196 0.0
C2636 C 0.16225 0.52621 0.05714 0.0
C2637 C 0.14014 0.51758 0.04302 0.0
C2638 C 0.1811 0.49482 0.04251 0.0
C2639 C 0.13965 0.49722 0.02883 0.0
C2640 C 0.20049 0.46019 0.03085 0.0
C2641 C 0.24521 0.48189 0.05249 0.0
N2642 N 0.15947 0.48668 0.02906 0.0
N2643 N 0.22525 0.49218 0.0524 0.0
H2644 H 0.88282 0.96782 0.21761 0.0
H2645 H 0.89739 0.85647 0.28513 0.0
H2646 H 0.93847 0.96618 0.2754 0.0
H2647 H 0.83091 0.86677 0.24632 0.0
H2648 H 0.91682 0.89377 0.2746 0.0
H2649 H 0.86738 0.92767 0.22146 0.0
C2650 C 0.89179 0.95896 0.23106 0.0
C2651 C 0.91173 0.97025 0.24641 0.0
C2652 C 0.89804 0.88769 0.26826 0.0
C2653 C 0.89446 0.92458 0.25069 0.0
C2654 C 0.88702 0.86645 0.27414 0.0
C2655 C 0.86249 0.85883 0.26687 0.0
C2656 C 0.8844 0.90107 0.25485 0.0
C2657 C 0.84979 0.87228 0.25263 0.0
C2658 C 0.88303 0.93612 0.23322 0.0
C2659 C 0.92286 0.95807 0.26342 0.0
N2660 N 0.86088 0.89285 0.24716 0.0
N2661 N 0.91402 0.93581 0.26516 0.0
H2662 H 0.68637 0.04354 0.78847 0.0
H2663 H 0.72717 0.15781 0.72543 0.0
H2664 H 0.65805 0.05519 0.7173 0.0
H2665 H 0.76081 0.14278 0.7933 0.0
H2666 H 0.70009 0.1212 0.72305 0.0
H2667 H 0.71267 0.08056 0.79123 0.0
C2668 C 0.68572 0.0539 0.7734 0.0
C2669 C 0.67003 0.04634 0.75262 0.0
C2670 C 0.71337 0.12592 0.73848 0.0
C2671 C 0.69995 0.08874 0.75569 0.0
C2672 C 0.72869 0.14689 0.73994 0.0
C2673 C 0.74625 0.15332 0.7596 0.0
C2674 C 0.71557 0.11132 0.75685 0.0
C2675 C 0.74768 0.13837 0.77771 0.0
C2676 C 0.70073 0.07503 0.77499 0.0
C2677 C 0.66992 0.0604 0.73363 0.0
N2678 N 0.73254 0.11806 0.7759 0.0
N2679 N 0.68463 0.08098 0.73564 0.0
loop_
_geom_bond_atom_site_label_1
_geom_bond_atom_site_label_2
_geom_bond_distance
_geom_bond_site_symmetry_2
_ccdc_geom_bond_type
In0 O1 2.294 . S
In0 O2 2.326 . S
In0 O6 2.266 . S
In0 O7 2.326 . S
In0 O8 2.266 . S
In0 O9 2.326 . S
In0 O11 2.294 . S
In0 O12 2.326 . S
O1 In0 2.294 . S
O1 C10 1.240 . S
O2 In0 2.326 . S
O2 C10 1.252 . S
C3 O6 1.252 . S
C3 O7 1.260 . S
C4 O11 1.240 . S
C4 O12 1.252 . S
C5 O8 1.252 . S
C5 O9 1.260 . S
O6 In0 2.266 . S
O6 C3 1.252 . S
O7 In0 2.326 . S
O7 C3 1.260 . S
O8 In0 2.266 . S
O8 C5 1.252 . S
O9 In0 2.326 . S
O9 C5 1.260 . S
C10 O1 1.240 . S
C10 O2 1.252 . S
O11 In0 2.294 . S
O11 C4 1.240 . S
O12 In0 2.326 . S
O12 C4 1.252 . S
In13 O14 2.294 . S
In13 O15 2.326 . S
In13 O19 2.266 . S
In13 O20 2.326 . S
In13 O21 2.266 . S
In13 O22 2.326 . S
In13 O24 2.294 . S
In13 O25 2.326 . S
O14 In13 2.294 . S
O14 C23 1.240 . S
O15 In13 2.326 . S
O15 C23 1.252 . S
C16 O19 1.252 . S
C16 O20 1.260 . S
C17 O24 1.240 . S
C17 O25 1.252 . S
C18 O21 1.252 . S
C18 O22 1.260 . S
O19 In13 2.266 . S
O19 C16 1.252 . S
O20 In13 2.326 . S
O20 C16 1.260 . S
O21 In13 2.266 . S
O21 C18 1.252 . S
O22 In13 2.326 . S
O22 C18 1.260 . S
C23 O14 1.240 . S
C23 O15 1.252 . S
O24 In13 2.294 . S
O24 C17 1.240 . S
O25 In13 2.326 . S
O25 C17 1.252 . S
In26 O27 2.294 . S
In26 O28 2.326 . S
In26 O32 2.266 . S
In26 O33 2.326 . S
In26 O34 2.266 . S
In26 O35 2.326 . S
In26 O37 2.294 . S
In26 O38 2.326 . S
O27 In26 2.294 . S
O27 C36 1.240 . S
O28 In26 2.326 . S
O28 C36 1.252 . S
C29 O32 1.252 . S
C29 O33 1.260 . S
C30 O37 1.240 . S
C30 O38 1.252 . S
C31 O34 1.252 . S
C31 O35 1.260 . S
O32 In26 2.266 . S
O32 C29 1.252 . S
O33 In26 2.326 . S
O33 C29 1.260 . S
O34 In26 2.266 . S
O34 C31 1.252 . S
O35 In26 2.326 . S
O35 C31 1.260 . S
C36 O27 1.240 . S
C36 O28 1.252 . S
O37 In26 2.294 . S
O37 C30 1.240 . S
O38 In26 2.326 . S
O38 C30 1.252 . S
In39 O40 2.294 . S
In39 O41 2.326 . S
In39 O45 2.266 . S
In39 O46 2.326 . S
In39 O47 2.266 . S
In39 O48 2.326 . S
In39 O50 2.294 . S
In39 O51 2.326 . S
O40 In39 2.294 . S
O40 C49 1.240 . S
O41 In39 2.326 . S
O41 C49 1.252 . S
C42 O45 1.252 . S
C42 O46 1.260 . S
C43 O50 1.240 . S
C43 O51 1.252 . S
C44 O47 1.252 . S
C44 O48 1.260 . S
O45 In39 2.266 . S
O45 C42 1.252 . S
O46 In39 2.326 . S
O46 C42 1.260 . S
O47 In39 2.266 . S
O47 C44 1.252 . S
O48 In39 2.326 . S
O48 C44 1.260 . S
C49 O40 1.240 . S
C49 O41 1.252 . S
O50 In39 2.294 . S
O50 C43 1.240 . S
O51 In39 2.326 . S
O51 C43 1.252 . S
In52 O53 2.294 . S
In52 O54 2.326 . S
In52 O58 2.266 . S
In52 O59 2.326 . S
In52 O60 2.266 . S
In52 O61 2.326 . S
In52 O63 2.294 . S
In52 O64 2.326 . S
O53 In52 2.294 . S
O53 C62 1.240 . S
O54 In52 2.326 . S
O54 C62 1.252 . S
C55 O58 1.252 . S
C55 O59 1.260 . S
C56 O63 1.240 . S
C56 O64 1.252 . S
C57 O60 1.252 . S
C57 O61 1.260 . S
O58 In52 2.266 . S
O58 C55 1.252 . S
O59 In52 2.326 . S
O59 C55 1.260 . S
O60 In52 2.266 . S
O60 C57 1.252 . S
O61 In52 2.326 . S
O61 C57 1.260 . S
C62 O53 1.240 . S
C62 O54 1.252 . S
O63 In52 2.294 . S
O63 C56 1.240 . S
O64 In52 2.326 . S
O64 C56 1.252 . S
In65 O66 2.294 . S
In65 O67 2.326 . S
In65 O71 2.266 . S
In65 O72 2.326 . S
In65 O73 2.266 . S
In65 O74 2.326 . S
In65 O76 2.294 . S
In65 O77 2.326 . S
O66 In65 2.294 . S
O66 C75 1.240 . S
O67 In65 2.326 . S
O67 C75 1.252 . S
C68 O71 1.252 . S
C68 O72 1.260 . S
C69 O76 1.240 . S
C69 O77 1.252 . S
C70 O73 1.252 . S
C70 O74 1.260 . S
O71 In65 2.266 . S
O71 C68 1.252 . S
O72 In65 2.326 . S
O72 C68 1.260 . S
O73 In65 2.266 . S
O73 C70 1.252 . S
O74 In65 2.326 . S
O74 C70 1.260 . S
C75 O66 1.240 . S
C75 O67 1.252 . S
O76 In65 2.294 . S
O76 C69 1.240 . S
O77 In65 2.326 . S
O77 C69 1.252 . S
In78 O79 2.294 . S
In78 O80 2.326 . S
In78 O84 2.266 . S
In78 O85 2.326 . S
In78 O86 2.266 . S
In78 O87 2.326 . S
In78 O89 2.294 . S
In78 O90 2.326 . S
O79 In78 2.294 . S
O79 C88 1.240 . S
O80 In78 2.326 . S
O80 C88 1.252 . S
C81 O84 1.252 . S
C81 O85 1.260 . S
C82 O89 1.240 . S
C82 O90 1.252 . S
C83 O86 1.252 . S
C83 O87 1.260 . S
O84 In78 2.266 . S
O84 C81 1.252 . S
O85 In78 2.326 . S
O85 C81 1.260 . S
O86 In78 2.266 . S
O86 C83 1.252 . S
O87 In78 2.326 . S
O87 C83 1.260 . S
C88 O79 1.240 . S
C88 O80 1.252 . S
O89 In78 2.294 . S
O89 C82 1.240 . S
O90 In78 2.326 . S
O90 C82 1.252 . S
In91 O92 2.294 . S
In91 O93 2.332 1_455 S
In91 O97 2.274 . S
In91 O98 2.332 . S
In91 O99 2.264 1_455 S
In91 O100 2.323 1_455 S
In91 O102 2.296 . S
In91 O103 2.329 . S
O92 In91 2.294 . S
O92 C101 1.240 . S
O93 In91 2.332 1_655 S
O93 C101 1.251 1_655 S
C94 O97 1.251 . S
C94 O98 1.255 . S
C95 O102 1.240 . S
C95 O103 1.252 . S
C96 O99 1.252 . S
C96 O100 1.260 . S
O97 In91 2.274 . S
O97 C94 1.251 . S
O98 In91 2.332 . S
O98 C94 1.255 . S
O99 In91 2.264 1_655 S
O99 C96 1.252 . S
O100 In91 2.323 1_655 S
O100 C96 1.260 . S
C101 O92 1.240 . S
C101 O93 1.251 1_455 S
O102 In91 2.296 . S
O102 C95 1.240 . S
O103 In91 2.329 . S
O103 C95 1.252 . S
In104 O105 2.294 . S
In104 O106 2.326 . S
In104 O110 2.266 . S
In104 O111 2.326 . S
In104 O112 2.266 . S
In104 O113 2.326 . S
In104 O115 2.294 . S
In104 O116 2.326 . S
O105 In104 2.294 . S
O105 C114 1.240 . S
O106 In104 2.326 . S
O106 C114 1.252 . S
C107 O110 1.252 . S
C107 O111 1.260 . S
C108 O115 1.240 . S
C108 O116 1.252 . S
C109 O112 1.252 . S
C109 O113 1.260 . S
O110 In104 2.266 . S
O110 C107 1.252 . S
O111 In104 2.326 . S
O111 C107 1.260 . S
O112 In104 2.266 . S
O112 C109 1.252 . S
O113 In104 2.326 . S
O113 C109 1.260 . S
C114 O105 1.240 . S
C114 O106 1.252 . S
O115 In104 2.294 . S
O115 C108 1.240 . S
O116 In104 2.326 . S
O116 C108 1.252 . S
In117 O118 2.294 . S
In117 O119 2.326 . S
In117 O123 2.266 . S
In117 O124 2.326 . S
In117 O125 2.266 . S
In117 O126 2.326 . S
In117 O128 2.294 . S
In117 O129 2.326 . S
O118 In117 2.294 . S
O118 C127 1.240 . S
O119 In117 2.326 . S
O119 C127 1.252 . S
C120 O123 1.252 . S
C120 O124 1.260 . S
C121 O128 1.240 . S
C121 O129 1.252 . S
C122 O125 1.252 . S
C122 O126 1.260 . S
O123 In117 2.266 . S
O123 C120 1.252 . S
O124 In117 2.326 . S
O124 C120 1.260 . S
O125 In117 2.266 . S
O125 C122 1.252 . S
O126 In117 2.326 . S
O126 C122 1.260 . S
C127 O118 1.240 . S
C127 O119 1.252 . S
O128 In117 2.294 . S
O128 C121 1.240 . S
O129 In117 2.326 . S
O129 C121 1.252 . S
In130 O131 2.294 . S
In130 O132 2.326 . S
In130 O136 2.266 . S
In130 O137 2.326 . S
In130 O138 2.266 . S
In130 O139 2.326 . S
In130 O141 2.294 . S
In130 O142 2.326 . S
O131 In130 2.294 . S
O131 C140 1.240 . S
O132 In130 2.326 . S
O132 C140 1.252 . S
C133 O136 1.252 . S
C133 O137 1.260 . S
C134 O141 1.240 . S
C134 O142 1.252 . S
C135 O138 1.252 . S
C135 O139 1.260 . S
O136 In130 2.266 . S
O136 C133 1.252 . S
O137 In130 2.326 . S
O137 C133 1.260 . S
O138 In130 2.266 . S
O138 C135 1.252 . S
O139 In130 2.326 . S
O139 C135 1.260 . S
C140 O131 1.240 . S
C140 O132 1.252 . S
O141 In130 2.294 . S
O141 C134 1.240 . S
O142 In130 2.326 . S
O142 C134 1.252 . S
In143 O144 2.294 . S
In143 O145 2.326 . S
In143 O149 2.266 . S
In143 O150 2.326 . S
In143 O151 2.266 . S
In143 O152 2.326 . S
In143 O154 2.294 . S
In143 O155 2.326 . S
O144 In143 2.294 . S
O144 C153 1.240 . S
O145 In143 2.326 . S
O145 C153 1.252 . S
C146 O149 1.252 . S
C146 O150 1.260 . S
C147 O154 1.240 . S
C147 O155 1.252 . S
C148 O151 1.252 . S
C148 O152 1.260 . S
O149 In143 2.266 . S
O149 C146 1.252 . S
O150 In143 2.326 . S
O150 C146 1.260 . S
O151 In143 2.266 . S
O151 C148 1.252 . S
O152 In143 2.326 . S
O152 C148 1.260 . S
C153 O144 1.240 . S
C153 O145 1.252 . S
O154 In143 2.294 . S
O154 C147 1.240 . S
O155 In143 2.326 . S
O155 C147 1.252 . S
In156 O157 2.294 . S
In156 O158 2.326 . S
In156 O162 2.268 1_554 S
In156 O163 2.326 1_554 S
In156 O164 2.266 . S
In156 O165 2.326 . S
In156 O167 2.294 . S
In156 O168 2.326 . S
O157 In156 2.294 . S
O157 C166 1.240 . S
O158 In156 2.326 . S
O158 C166 1.252 . S
C159 O162 1.249 . S
C159 O163 1.260 . S
C160 O167 1.240 . S
C160 O168 1.252 . S
C161 O164 1.252 . S
C161 O165 1.260 . S
O162 In156 2.268 1_556 S
O162 C159 1.249 . S
O163 In156 2.326 1_556 S
O163 C159 1.260 . S
O164 In156 2.266 . S
O164 C161 1.252 . S
O165 In156 2.326 . S
O165 C161 1.260 . S
C166 O157 1.240 . S
C166 O158 1.252 . S
O167 In156 2.294 . S
O167 C160 1.240 . S
O168 In156 2.326 . S
O168 C160 1.252 . S
In169 O170 2.298 . S
In169 O171 2.328 . S
In169 O175 2.263 1_554 S
In169 O176 2.325 1_554 S
In169 O177 2.239 1_554 S
In169 O178 2.283 1_554 S
In169 O180 2.321 . S
In169 O181 2.369 . S
O170 In169 2.298 . S
O170 C179 1.240 . S
O171 In169 2.328 . S
O171 C179 1.252 . S
C172 O175 1.252 . S
C172 O176 1.260 . S
C173 O180 1.240 . S
C173 O181 1.252 . S
C174 O177 1.252 . S
C174 O178 1.260 . S
O175 In169 2.263 1_556 S
O175 C172 1.252 . S
O176 In169 2.325 1_556 S
O176 C172 1.260 . S
O177 In169 2.239 1_556 S
O177 C174 1.252 . S
O178 In169 2.283 1_556 S
O178 C174 1.260 . S
C179 O170 1.240 . S
C179 O171 1.252 . S
O180 In169 2.321 . S
O180 C173 1.240 . S
O181 In169 2.369 . S
O181 C173 1.252 . S
In182 O183 2.294 . S
In182 O184 2.326 . S
In182 O188 2.266 . S
In182 O189 2.326 . S
In182 O190 2.266 . S
In182 O191 2.326 . S
In182 O193 2.294 . S
In182 O194 2.326 . S
O183 In182 2.294 . S
O183 C192 1.240 . S
O184 In182 2.326 . S
O184 C192 1.252 . S
C185 O188 1.252 . S
C185 O189 1.260 . S
C186 O193 1.240 . S
C186 O194 1.252 . S
C187 O190 1.252 . S
C187 O191 1.260 . S
O188 In182 2.266 . S
O188 C185 1.252 . S
O189 In182 2.326 . S
O189 C185 1.260 . S
O190 In182 2.266 . S
O190 C187 1.252 . S
O191 In182 2.326 . S
O191 C187 1.260 . S
C192 O183 1.240 . S
C192 O184 1.252 . S
O193 In182 2.294 . S
O193 C186 1.240 . S
O194 In182 2.326 . S
O194 C186 1.252 . S
In195 O196 2.294 . S
In195 O197 2.326 . S
In195 O201 2.266 . S
In195 O202 2.326 . S
In195 O203 2.266 . S
In195 O204 2.326 . S
In195 O206 2.294 . S
In195 O207 2.326 . S
O196 In195 2.294 . S
O196 C205 1.240 . S
O197 In195 2.326 . S
O197 C205 1.252 . S
C198 O201 1.252 . S
C198 O202 1.260 . S
C199 O206 1.240 . S
C199 O207 1.252 . S
C200 O203 1.252 . S
C200 O204 1.260 . S
O201 In195 2.266 . S
O201 C198 1.252 . S
O202 In195 2.326 . S
O202 C198 1.260 . S
O203 In195 2.266 . S
O203 C200 1.252 . S
O204 In195 2.326 . S
O204 C200 1.260 . S
C205 O196 1.240 . S
C205 O197 1.252 . S
O206 In195 2.294 . S
O206 C199 1.240 . S
O207 In195 2.326 . S
O207 C199 1.252 . S
In208 O209 2.295 . S
In208 O210 2.328 . S
In208 O214 2.262 . S
In208 O215 2.324 1_545 S
In208 O216 2.258 1_545 S
In208 O217 2.312 1_545 S
In208 O219 2.303 . S
In208 O220 2.340 . S
O209 In208 2.295 . S
O209 C218 1.240 . S
O210 In208 2.328 . S
O210 C218 1.252 . S
C211 O214 1.252 1_565 S
C211 O215 1.260 . S
C212 O219 1.240 . S
C212 O220 1.252 . S
C213 O216 1.252 . S
C213 O217 1.260 . S
O214 In208 2.262 . S
O214 C211 1.252 1_545 S
O215 In208 2.324 1_565 S
O215 C211 1.260 . S
O216 In208 2.258 1_565 S
O216 C213 1.252 . S
O217 In208 2.312 1_565 S
O217 C213 1.260 . S
C218 O209 1.240 . S
C218 O210 1.252 . S
O219 In208 2.303 . S
O219 C212 1.240 . S
O220 In208 2.340 . S
O220 C212 1.252 . S
In221 O222 2.294 . S
In221 O223 2.326 . S
In221 O227 2.266 . S
In221 O228 2.326 . S
In221 O229 2.266 . S
In221 O230 2.326 . S
In221 O232 2.294 . S
In221 O233 2.326 . S
O222 In221 2.294 . S
O222 C231 1.240 . S
O223 In221 2.326 . S
O223 C231 1.252 . S
C224 O227 1.252 . S
C224 O228 1.260 . S
C225 O232 1.240 . S
C225 O233 1.252 . S
C226 O229 1.252 . S
C226 O230 1.260 . S
O227 In221 2.266 . S
O227 C224 1.252 . S
O228 In221 2.326 . S
O228 C224 1.260 . S
O229 In221 2.266 . S
O229 C226 1.252 . S
O230 In221 2.326 . S
O230 C226 1.260 . S
C231 O222 1.240 . S
C231 O223 1.252 . S
O232 In221 2.294 . S
O232 C225 1.240 . S
O233 In221 2.326 . S
O233 C225 1.252 . S
In234 O235 2.294 . S
In234 O236 2.326 . S
In234 O240 2.266 . S
In234 O241 2.326 . S
In234 O242 2.266 . S
In234 O243 2.326 . S
In234 O245 2.294 . S
In234 O246 2.326 . S
O235 In234 2.294 . S
O235 C244 1.240 . S
O236 In234 2.326 . S
O236 C244 1.252 . S
C237 O240 1.252 . S
C237 O241 1.260 . S
C238 O245 1.240 . S
C238 O246 1.252 . S
C239 O242 1.252 . S
C239 O243 1.260 . S
O240 In234 2.266 . S
O240 C237 1.252 . S
O241 In234 2.326 . S
O241 C237 1.260 . S
O242 In234 2.266 . S
O242 C239 1.252 . S
O243 In234 2.326 . S
O243 C239 1.260 . S
C244 O235 1.240 . S
C244 O236 1.252 . S
O245 In234 2.294 . S
O245 C238 1.240 . S
O246 In234 2.326 . S
O246 C238 1.252 . S
In247 O248 2.294 1_545 S
In247 O249 2.326 1_545 S
In247 O253 2.266 . S
In247 O254 2.326 . S
In247 O255 2.266 . S
In247 O256 2.326 . S
In247 O258 2.294 1_545 S
In247 O259 2.326 . S
O248 In247 2.294 1_565 S
O248 C257 1.240 . S
O249 In247 2.326 1_565 S
O249 C257 1.252 . S
C250 O253 1.252 . S
C250 O254 1.260 . S
C251 O258 1.240 . S
C251 O259 1.253 1_565 S
C252 O255 1.252 . S
C252 O256 1.260 . S
O253 In247 2.266 . S
O253 C250 1.252 . S
O254 In247 2.326 . S
O254 C250 1.260 . S
O255 In247 2.266 . S
O255 C252 1.252 . S
O256 In247 2.326 . S
O256 C252 1.260 . S
C257 O248 1.240 . S
C257 O249 1.252 . S
O258 In247 2.294 1_565 S
O258 C251 1.240 . S
O259 In247 2.326 . S
O259 C251 1.253 1_545 S
In260 O261 2.294 . S
In260 O262 2.326 . S
In260 O266 2.266 . S
In260 O267 2.326 . S
In260 O268 2.266 1_554 S
In260 O269 2.326 1_554 S
In260 O271 2.294 . S
In260 O272 2.326 . S
O261 In260 2.294 . S
O261 C270 1.240 . S
O262 In260 2.326 . S
O262 C270 1.252 . S
C263 O266 1.252 . S
C263 O267 1.260 . S
C264 O271 1.240 . S
C264 O272 1.252 . S
C265 O268 1.252 . S
C265 O269 1.260 . S
O266 In260 2.266 . S
O266 C263 1.252 . S
O267 In260 2.326 . S
O267 C263 1.260 . S
O268 In260 2.266 1_556 S
O268 C265 1.252 . S
O269 In260 2.326 1_556 S
O269 C265 1.260 . S
C270 O261 1.240 . S
C270 O262 1.252 . S
O271 In260 2.294 . S
O271 C264 1.240 . S
O272 In260 2.326 . S
O272 C264 1.252 . S
In273 O274 2.294 . S
In273 O275 2.326 . S
In273 O279 2.266 . S
In273 O280 2.326 . S
In273 O281 2.266 1_655 S
In273 O282 2.326 . S
In273 O284 2.294 1_655 S
In273 O285 2.326 . S
O274 In273 2.294 . S
O274 C283 1.240 . S
O275 In273 2.326 . S
O275 C283 1.252 . S
C276 O279 1.252 . S
C276 O280 1.260 . S
C277 O284 1.240 . S
C277 O285 1.252 1_455 S
C278 O281 1.252 . S
C278 O282 1.260 1_455 S
O279 In273 2.266 . S
O279 C276 1.252 . S
O280 In273 2.326 . S
O280 C276 1.260 . S
O281 In273 2.266 1_455 S
O281 C278 1.252 . S
O282 In273 2.326 . S
O282 C278 1.260 1_655 S
C283 O274 1.240 . S
C283 O275 1.252 . S
O284 In273 2.294 1_455 S
O284 C277 1.240 . S
O285 In273 2.326 . S
O285 C277 1.252 1_655 S
In286 O287 2.294 . S
In286 O288 2.326 . S
In286 O292 2.266 . S
In286 O293 2.326 . S
In286 O294 2.266 . S
In286 O295 2.326 . S
In286 O297 2.294 . S
In286 O298 2.326 . S
O287 In286 2.294 . S
O287 C296 1.240 . S
O288 In286 2.326 . S
O288 C296 1.252 . S
C289 O292 1.252 . S
C289 O293 1.260 . S
C290 O297 1.240 . S
C290 O298 1.252 . S
C291 O294 1.252 . S
C291 O295 1.260 . S
O292 In286 2.266 . S
O292 C289 1.252 . S
O293 In286 2.326 . S
O293 C289 1.260 . S
O294 In286 2.266 . S
O294 C291 1.252 . S
O295 In286 2.326 . S
O295 C291 1.260 . S
C296 O287 1.240 . S
C296 O288 1.252 . S
O297 In286 2.294 . S
O297 C290 1.240 . S
O298 In286 2.326 . S
O298 C290 1.252 . S
In299 O300 2.294 . S
In299 O301 2.326 . S
In299 O305 2.266 . S
In299 O306 2.326 . S
In299 O307 2.266 . S
In299 O308 2.326 . S
In299 O310 2.294 . S
In299 O311 2.326 . S
O300 In299 2.294 . S
O300 C309 1.240 . S
O301 In299 2.326 . S
O301 C309 1.252 . S
C302 O305 1.252 . S
C302 O306 1.260 . S
C303 O310 1.240 . S
C303 O311 1.252 . S
C304 O307 1.252 . S
C304 O308 1.260 . S
O305 In299 2.266 . S
O305 C302 1.252 . S
O306 In299 2.326 . S
O306 C302 1.260 . S
O307 In299 2.266 . S
O307 C304 1.252 . S
O308 In299 2.326 . S
O308 C304 1.260 . S
C309 O300 1.240 . S
C309 O301 1.252 . S
O310 In299 2.294 . S
O310 C303 1.240 . S
O311 In299 2.326 . S
O311 C303 1.252 . S
Tb312 C322 2.825 1_455 S
Tb312 O323 2.347 . S
Tb312 O326 2.366 . S
Tb312 O331 2.418 1_554 S
Tb312 O332 2.384 . S
Tb312 O335 2.479 1_554 S
Tb312 O336 2.480 . S
Eu313 O324 2.418 . S
Eu313 O325 2.384 . S
Eu313 O328 2.479 . S
Eu313 O329 2.471 . S
Eu313 O330 2.347 . S
Eu313 O333 2.366 . S
Eu313 C343 2.825 . S
C314 O330 1.259 . S
C314 O331 1.265 1_554 S
C315 O332 1.255 . S
C315 O333 1.265 . S
C316 C318 1.380 1_554 S
C316 C319 1.374 . S
C316 C322 1.507 . S
C317 C318 1.384 . S
C317 C321 1.387 . S
C317 H344 0.930 . S
C318 C316 1.380 1_556 S
C318 C317 1.384 . S
C318 H345 0.931 . S
C319 C316 1.374 . S
C319 C320 1.390 . S
C319 H346 0.930 . S
C320 C319 1.390 . S
C320 C321 1.391 1_554 S
C320 H347 0.930 . S
C321 C317 1.387 . S
C321 C320 1.391 1_556 S
C322 Tb312 2.825 1_655 S
C322 C316 1.507 . S
C322 O335 1.238 1_654 S
C322 O336 1.246 1_655 S
O323 Tb312 2.347 . S
O323 C327 1.259 . S
O324 Eu313 2.418 . S
O324 C327 1.265 . S
O325 Eu313 2.384 . S
O325 C334 1.255 . S
O326 Tb312 2.366 . S
O326 C334 1.265 . S
C327 O323 1.259 . S
C327 O324 1.265 . S
O328 Eu313 2.479 . S
O328 C343 1.238 . S
O329 Eu313 2.471 . S
O329 C343 1.247 . S
O330 Eu313 2.347 . S
O330 C314 1.259 . S
O331 Tb312 2.418 1_556 S
O331 C314 1.265 1_556 S
O332 Tb312 2.384 . S
O332 C315 1.255 . S
O333 Eu313 2.366 . S
O333 C315 1.265 . S
C334 O325 1.255 . S
C334 O326 1.265 . S
O335 Tb312 2.479 1_556 S
O335 C322 1.238 1_456 S
O336 Tb312 2.480 . S
O336 C322 1.246 1_455 S
C337 C340 1.380 . S
C337 C341 1.374 . S
C337 C343 1.507 . S
C338 C339 1.387 . S
C338 C342 1.391 . S
C339 C338 1.387 . S
C339 C340 1.384 . S
C339 H348 0.930 . S
C340 C337 1.380 . S
C340 C339 1.384 . S
C340 H349 0.931 . S
C341 C337 1.374 . S
C341 C342 1.390 . S
C341 H350 0.930 . S
C342 C338 1.391 . S
C342 C341 1.390 . S
C342 H351 0.930 . S
C343 Eu313 2.825 . S
C343 O328 1.238 . S
C343 O329 1.247 . S
C343 C337 1.507 . S
H344 C317 0.930 . S
H345 C318 0.931 . S
H346 C319 0.930 . S
H347 C320 0.930 . S
H348 C339 0.930 . S
H349 C340 0.931 . S
H350 C341 0.930 . S
H351 C342 0.930 . S
Tb352 C362 2.825 . S
Tb352 O363 2.347 . S
Tb352 O366 2.366 . S
Tb352 O371 2.418 . S
Tb352 O372 2.384 . S
Tb352 O375 2.479 . S
Tb352 O376 2.471 . S
Eu353 O364 2.418 . S
Eu353 O365 2.384 . S
Eu353 O368 2.479 . S
Eu353 O369 2.471 . S
Eu353 O370 2.347 . S
Eu353 O373 2.366 . S
Eu353 C383 2.825 . S
C354 O370 1.259 . S
C354 O371 1.265 . S
C355 O372 1.255 . S
C355 O373 1.265 . S
C356 C358 1.380 . S
C356 C359 1.374 . S
C356 C362 1.507 . S
C357 C358 1.384 . S
C357 C361 1.387 . S
C357 H384 0.930 . S
C358 C356 1.380 . S
C358 C357 1.384 . S
C358 H385 0.931 . S
C359 C356 1.374 . S
C359 C360 1.390 . S
C359 H386 0.930 . S
C360 C359 1.390 . S
C360 C361 1.391 . S
C360 H387 0.930 . S
C361 C357 1.387 . S
C361 C360 1.391 . S
C362 Tb352 2.825 . S
C362 C356 1.507 . S
C362 O375 1.238 . S
C362 O376 1.247 . S
O363 Tb352 2.347 . S
O363 C367 1.259 . S
O364 Eu353 2.418 . S
O364 C367 1.265 . S
O365 Eu353 2.384 . S
O365 C374 1.255 . S
O366 Tb352 2.366 . S
O366 C374 1.265 . S
C367 O363 1.259 . S
C367 O364 1.265 . S
O368 Eu353 2.479 . S
O368 C383 1.238 . S
O369 Eu353 2.471 . S
O369 C383 1.247 . S
O370 Eu353 2.347 . S
O370 C354 1.259 . S
O371 Tb352 2.418 . S
O371 C354 1.265 . S
O372 Tb352 2.384 . S
O372 C355 1.255 . S
O373 Eu353 2.366 . S
O373 C355 1.265 . S
C374 O365 1.255 . S
C374 O366 1.265 . S
O375 Tb352 2.479 . S
O375 C362 1.238 . S
O376 Tb352 2.471 . S
O376 C362 1.247 . S
C377 C380 1.380 . S
C377 C381 1.374 . S
C377 C383 1.507 . S
C378 C379 1.387 . S
C378 C382 1.391 . S
C379 C378 1.387 . S
C379 C380 1.384 . S
C379 H388 0.930 . S
C380 C377 1.380 . S
C380 C379 1.384 . S
C380 H389 0.931 . S
C381 C377 1.374 . S
C381 C382 1.390 . S
C381 H390 0.930 . S
C382 C378 1.391 . S
C382 C381 1.390 . S
C382 H391 0.930 . S
C383 Eu353 2.825 . S
C383 O368 1.238 . S
C383 O369 1.247 . S
C383 C377 1.507 . S
H384 C357 0.930 . S
H385 C358 0.931 . S
H386 C359 0.930 . S
H387 C360 0.930 . S
H388 C379 0.930 . S
H389 C380 0.931 . S
H390 C381 0.930 . S
H391 C382 0.930 . S
Tb392 C402 2.825 . S
Tb392 O403 2.347 1_565 S
Tb392 O406 2.366 . S
Tb392 O411 2.418 . S
Tb392 O412 2.384 1_565 S
Tb392 O415 2.479 . S
Tb392 O416 2.471 . S
Eu393 O404 2.418 . S
Eu393 O405 2.384 . S
Eu393 O408 2.479 . S
Eu393 O409 2.471 . S
Eu393 O410 2.347 . S
Eu393 O413 2.366 . S
Eu393 C423 2.825 . S
C394 O410 1.259 . S
C394 O411 1.265 1_545 S
C395 O412 1.255 . S
C395 O413 1.265 . S
C396 C398 1.380 . S
C396 C399 1.374 . S
C396 C402 1.507 . S
C397 C398 1.384 . S
C397 C401 1.387 . S
C397 H424 0.930 . S
C398 C396 1.380 . S
C398 C397 1.384 . S
C398 H425 0.931 . S
C399 C396 1.374 . S
C399 C400 1.390 . S
C399 H426 0.930 . S
C400 C399 1.390 . S
C400 C401 1.391 . S
C400 H427 0.930 . S
C401 C397 1.387 . S
C401 C400 1.391 . S
C402 Tb392 2.825 . S
C402 C396 1.507 . S
C402 O415 1.238 . S
C402 O416 1.247 . S
O403 Tb392 2.347 1_545 S
O403 C407 1.259 . S
O404 Eu393 2.418 . S
O404 C407 1.265 . S
O405 Eu393 2.384 . S
O405 C414 1.255 . S
O406 Tb392 2.366 . S
O406 C414 1.265 1_565 S
C407 O403 1.259 . S
C407 O404 1.265 . S
O408 Eu393 2.479 . S
O408 C423 1.238 . S
O409 Eu393 2.471 . S
O409 C423 1.247 . S
O410 Eu393 2.347 . S
O410 C394 1.259 . S
O411 Tb392 2.418 . S
O411 C394 1.265 1_565 S
O412 Tb392 2.384 1_545 S
O412 C395 1.255 . S
O413 Eu393 2.366 . S
O413 C395 1.265 . S
C414 O405 1.255 . S
C414 O406 1.265 1_545 S
O415 Tb392 2.479 . S
O415 C402 1.238 . S
O416 Tb392 2.471 . S
O416 C402 1.247 . S
C417 C420 1.380 . S
C417 C421 1.374 . S
C417 C423 1.507 . S
C418 C419 1.387 . S
C418 C422 1.391 . S
C419 C418 1.387 . S
C419 C420 1.384 . S
C419 H428 0.930 . S
C420 C417 1.380 . S
C420 C419 1.384 . S
C420 H429 0.931 . S
C421 C417 1.374 . S
C421 C422 1.390 . S
C421 H430 0.930 . S
C422 C418 1.391 . S
C422 C421 1.390 . S
C422 H431 0.930 . S
C423 Eu393 2.825 . S
C423 O408 1.238 . S
C423 O409 1.247 . S
C423 C417 1.507 . S
H424 C397 0.930 . S
H425 C398 0.931 . S
H426 C399 0.930 . S
H427 C400 0.930 . S
H428 C419 0.930 . S
H429 C420 0.931 . S
H430 C421 0.930 . S
H431 C422 0.930 . S
Tb432 C442 2.825 . S
Tb432 O443 2.347 . S
Tb432 O446 2.366 . S
Tb432 O451 2.418 . S
Tb432 O452 2.384 . S
Tb432 O455 2.479 . S
Tb432 O456 2.471 . S
Eu433 O444 2.418 . S
Eu433 O445 2.384 . S
Eu433 O448 2.479 . S
Eu433 O449 2.471 . S
Eu433 O450 2.347 . S
Eu433 O453 2.366 . S
Eu433 C463 2.825 . S
C434 O450 1.259 . S
C434 O451 1.265 . S
C435 O452 1.255 . S
C435 O453 1.265 . S
C436 C438 1.380 . S
C436 C439 1.374 . S
C436 C442 1.507 . S
C437 C438 1.384 . S
C437 C441 1.387 . S
C437 H464 0.930 . S
C438 C436 1.380 . S
C438 C437 1.384 . S
C438 H465 0.931 . S
C439 C436 1.374 . S
C439 C440 1.390 . S
C439 H466 0.930 . S
C440 C439 1.390 . S
C440 C441 1.391 . S
C440 H467 0.930 . S
C441 C437 1.387 . S
C441 C440 1.391 . S
C442 Tb432 2.825 . S
C442 C436 1.507 . S
C442 O455 1.238 . S
C442 O456 1.247 . S
O443 Tb432 2.347 . S
O443 C447 1.259 . S
O444 Eu433 2.418 . S
O444 C447 1.265 . S
O445 Eu433 2.384 . S
O445 C454 1.255 . S
O446 Tb432 2.366 . S
O446 C454 1.265 . S
C447 O443 1.259 . S
C447 O444 1.265 . S
O448 Eu433 2.479 . S
O448 C463 1.238 . S
O449 Eu433 2.471 . S
O449 C463 1.247 . S
O450 Eu433 2.347 . S
O450 C434 1.259 . S
O451 Tb432 2.418 . S
O451 C434 1.265 . S
O452 Tb432 2.384 . S
O452 C435 1.255 . S
O453 Eu433 2.366 . S
O453 C435 1.265 . S
C454 O445 1.255 . S
C454 O446 1.265 . S
O455 Tb432 2.479 . S
O455 C442 1.238 . S
O456 Tb432 2.471 . S
O456 C442 1.247 . S
C457 C460 1.380 . S
C457 C461 1.374 . S
C457 C463 1.507 . S
C458 C459 1.387 . S
C458 C462 1.391 . S
C459 C458 1.387 . S
C459 C460 1.384 . S
C459 H468 0.930 . S
C460 C457 1.380 . S
C460 C459 1.384 . S
C460 H469 0.931 . S
C461 C457 1.374 . S
C461 C462 1.390 . S
C461 H470 0.930 . S
C462 C458 1.391 . S
C462 C461 1.390 . S
C462 H471 0.930 . S
C463 Eu433 2.825 . S
C463 O448 1.238 . S
C463 O449 1.247 . S
C463 C457 1.507 . S
H464 C437 0.930 . S
H465 C438 0.931 . S
H466 C439 0.930 . S
H467 C440 0.930 . S
H468 C459 0.930 . S
H469 C460 0.931 . S
H470 C461 0.930 . S
H471 C462 0.930 . S
Tb472 C482 2.825 . S
Tb472 O483 2.347 . S
Tb472 O486 2.366 . S
Tb472 O491 2.418 . S
Tb472 O492 2.384 1_545 S
Tb472 O495 2.479 . S
Tb472 O496 2.471 . S
Eu473 O484 2.418 . S
Eu473 O485 2.384 . S
Eu473 O488 2.479 . S
Eu473 O489 2.471 . S
Eu473 O490 2.347 . S
Eu473 O493 2.366 . S
Eu473 C503 2.825 . S
C474 O490 1.259 . S
C474 O491 1.265 . S
C475 O492 1.255 . S
C475 O493 1.265 1_565 S
C476 C478 1.380 . S
C476 C479 1.338 1_455 S
C476 C482 1.507 . S
C477 C478 1.384 . S
C477 C481 1.387 . S
C477 H504 0.930 . S
C478 C476 1.380 . S
C478 C477 1.384 . S
C478 H505 0.931 . S
C479 C476 1.338 1_655 S
C479 C480 1.402 . S
C479 H506 0.955 . S
C480 C479 1.402 . S
C480 C481 1.391 1_655 S
C480 H507 0.930 . S
C481 C477 1.387 . S
C481 C480 1.391 1_455 S
C482 Tb472 2.825 . S
C482 C476 1.507 . S
C482 O495 1.238 . S
C482 O496 1.247 . S
O483 Tb472 2.347 . S
O483 C487 1.259 . S
O484 Eu473 2.418 . S
O484 C487 1.265 . S
O485 Eu473 2.384 . S
O485 C494 1.255 . S
O486 Tb472 2.366 . S
O486 C494 1.265 . S
C487 O483 1.259 . S
C487 O484 1.265 . S
O488 Eu473 2.479 . S
O488 C503 1.238 . S
O489 Eu473 2.471 . S
O489 C503 1.247 . S
O490 Eu473 2.347 . S
O490 C474 1.259 . S
O491 Tb472 2.418 . S
O491 C474 1.265 . S
O492 Tb472 2.384 1_565 S
O492 C475 1.255 . S
O493 Eu473 2.366 . S
O493 C475 1.265 1_545 S
C494 O485 1.255 . S
C494 O486 1.265 . S
O495 Tb472 2.479 . S
O495 C482 1.238 . S
O496 Tb472 2.471 . S
O496 C482 1.247 . S
C497 C500 1.380 . S
C497 C501 1.374 . S
C497 C503 1.507 . S
C498 C499 1.387 . S
C498 C502 1.391 . S
C499 C498 1.387 . S
C499 C500 1.384 . S
C499 H508 0.930 . S
C500 C497 1.380 . S
C500 C499 1.384 . S
C500 H509 0.931 . S
C501 C497 1.374 . S
C501 C502 1.390 . S
C501 H510 0.930 . S
C502 C498 1.391 . S
C502 C501 1.390 . S
C502 H511 0.930 . S
C503 Eu473 2.825 . S
C503 O488 1.238 . S
C503 O489 1.247 . S
C503 C497 1.507 . S
H504 C477 0.930 . S
H505 C478 0.931 . S
H506 C479 0.955 . S
H507 C480 0.930 . S
H508 C499 0.930 . S
H509 C500 0.931 . S
H510 C501 0.930 . S
H511 C502 0.930 . S
Tb512 C522 2.825 . S
Tb512 O523 2.347 . S
Tb512 O526 2.366 . S
Tb512 O531 2.418 . S
Tb512 O532 2.384 . S
Tb512 O535 2.479 . S
Tb512 O536 2.471 . S
Eu513 O524 2.418 . S
Eu513 O525 2.384 . S
Eu513 O528 2.479 . S
Eu513 O529 2.471 . S
Eu513 O530 2.347 . S
Eu513 O533 2.366 . S
Eu513 C543 2.825 . S
C514 O530 1.259 . S
C514 O531 1.265 . S
C515 O532 1.255 . S
C515 O533 1.265 . S
C516 C518 1.380 . S
C516 C519 1.374 . S
C516 C522 1.507 . S
C517 C518 1.384 . S
C517 C521 1.387 . S
C517 H544 0.930 . S
C518 C516 1.380 . S
C518 C517 1.384 . S
C518 H545 0.931 . S
C519 C516 1.374 . S
C519 C520 1.390 . S
C519 H546 0.930 . S
C520 C519 1.390 . S
C520 C521 1.391 . S
C520 H547 0.930 . S
C521 C517 1.387 . S
C521 C520 1.391 . S
C522 Tb512 2.825 . S
C522 C516 1.507 . S
C522 O535 1.238 . S
C522 O536 1.247 . S
O523 Tb512 2.347 . S
O523 C527 1.259 . S
O524 Eu513 2.418 . S
O524 C527 1.265 . S
O525 Eu513 2.384 . S
O525 C534 1.255 . S
O526 Tb512 2.366 . S
O526 C534 1.265 . S
C527 O523 1.259 . S
C527 O524 1.265 . S
O528 Eu513 2.479 . S
O528 C543 1.238 . S
O529 Eu513 2.471 . S
O529 C543 1.247 . S
O530 Eu513 2.347 . S
O530 C514 1.259 . S
O531 Tb512 2.418 . S
O531 C514 1.265 . S
O532 Tb512 2.384 . S
O532 C515 1.255 . S
O533 Eu513 2.366 . S
O533 C515 1.265 . S
C534 O525 1.255 . S
C534 O526 1.265 . S
O535 Tb512 2.479 . S
O535 C522 1.238 . S
O536 Tb512 2.471 . S
O536 C522 1.247 . S
C537 C540 1.380 . S
C537 C541 1.374 . S
C537 C543 1.507 . S
C538 C539 1.387 . S
C538 C542 1.391 . S
C539 C538 1.387 . S
C539 C540 1.384 . S
C539 H548 0.930 . S
C540 C537 1.380 . S
C540 C539 1.384 . S
C540 H549 0.931 . S
C541 C537 1.374 . S
C541 C542 1.390 . S
C541 H550 0.930 . S
C542 C538 1.391 . S
C542 C541 1.390 . S
C542 H551 0.930 . S
C543 Eu513 2.825 . S
C543 O528 1.238 . S
C543 O529 1.247 . S
C543 C537 1.507 . S
H544 C517 0.930 . S
H545 C518 0.931 . S
H546 C519 0.930 . S
H547 C520 0.930 . S
H548 C539 0.930 . S
H549 C540 0.931 . S
H550 C541 0.930 . S
H551 C542 0.930 . S
Tb552 C562 2.825 . S
Tb552 O563 2.347 . S
Tb552 O566 2.366 . S
Tb552 O571 2.418 1_545 S
Tb552 O572 2.384 . S
Tb552 O575 2.479 . S
Tb552 O576 2.471 . S
Eu553 O564 2.418 . S
Eu553 O565 2.384 1_556 S
Eu553 O568 2.479 . S
Eu553 O569 2.471 . S
Eu553 O570 2.347 . S
Eu553 O573 2.366 . S
Eu553 C583 2.825 . S
C554 O570 1.262 1_554 S
C554 O571 1.264 1_545 S
C555 O572 1.255 . S
C555 O573 1.265 1_554 S
C556 C558 1.380 . S
C556 C559 1.374 . S
C556 C562 1.507 . S
C557 C558 1.384 . S
C557 C561 1.387 . S
C557 H584 0.930 1_545 S
C558 C556 1.380 . S
C558 C557 1.384 . S
C558 H585 0.931 1_545 S
C559 C556 1.374 . S
C559 C560 1.390 . S
C559 H586 0.930 . S
C560 C559 1.390 . S
C560 C561 1.391 . S
C560 H587 0.930 . S
C561 C557 1.387 . S
C561 C560 1.391 . S
C562 Tb552 2.825 . S
C562 C556 1.507 . S
C562 O575 1.238 . S
C562 O576 1.247 . S
O563 Tb552 2.347 . S
O563 C567 1.259 . S
O564 Eu553 2.418 . S
O564 C567 1.265 1_556 S
O565 Eu553 2.384 1_554 S
O565 C574 1.255 . S
O566 Tb552 2.366 . S
O566 C574 1.265 . S
C567 O563 1.259 . S
C567 O564 1.265 1_554 S
O568 Eu553 2.479 . S
O568 C583 1.238 . S
O569 Eu553 2.471 . S
O569 C583 1.247 . S
O570 Eu553 2.347 . S
O570 C554 1.262 1_556 S
O571 Tb552 2.418 1_565 S
O571 C554 1.264 1_565 S
O572 Tb552 2.384 . S
O572 C555 1.255 . S
O573 Eu553 2.366 . S
O573 C555 1.265 1_556 S
C574 O565 1.255 . S
C574 O566 1.265 . S
O575 Tb552 2.479 . S
O575 C562 1.238 . S
O576 Tb552 2.471 . S
O576 C562 1.247 . S
C577 C580 1.380 . S
C577 C581 1.374 . S
C577 C583 1.507 . S
C578 C579 1.387 . S
C578 C582 1.391 . S
C579 C578 1.387 . S
C579 C580 1.384 . S
C579 H588 0.930 . S
C580 C577 1.380 . S
C580 C579 1.384 . S
C580 H589 0.931 . S
C581 C577 1.374 . S
C581 C582 1.390 . S
C581 H590 0.930 . S
C582 C578 1.391 . S
C582 C581 1.390 . S
C582 H591 0.930 . S
C583 Eu553 2.825 . S
C583 O568 1.238 . S
C583 O569 1.247 . S
C583 C577 1.507 . S
H584 C557 0.930 1_565 S
H585 C558 0.931 1_565 S
H586 C559 0.930 . S
H587 C560 0.930 . S
H588 C579 0.930 . S
H589 C580 0.931 . S
H590 C581 0.930 . S
H591 C582 0.930 . S
Tb592 C602 2.825 . S
Tb592 O603 2.347 . S
Tb592 O606 2.366 . S
Tb592 O611 2.418 . S
Tb592 O612 2.384 . S
Tb592 O615 2.479 . S
Tb592 O616 2.471 . S
Eu593 O604 2.418 . S
Eu593 O605 2.384 . S
Eu593 O608 2.479 . S
Eu593 O609 2.471 . S
Eu593 O610 2.347 . S
Eu593 O613 2.366 . S
Eu593 C623 2.825 . S
C594 O610 1.259 . S
C594 O611 1.265 . S
C595 O612 1.255 . S
C595 O613 1.265 . S
C596 C598 1.380 . S
C596 C599 1.374 . S
C596 C602 1.507 . S
C597 C598 1.384 . S
C597 C601 1.387 . S
C597 H624 0.930 . S
C598 C596 1.380 . S
C598 C597 1.384 . S
C598 H625 0.931 . S
C599 C596 1.374 . S
C599 C600 1.390 . S
C599 H626 0.930 . S
C600 C599 1.390 . S
C600 C601 1.391 . S
C600 H627 0.930 . S
C601 C597 1.387 . S
C601 C600 1.391 . S
C602 Tb592 2.825 . S
C602 C596 1.507 . S
C602 O615 1.238 . S
C602 O616 1.247 . S
O603 Tb592 2.347 . S
O603 C607 1.259 . S
O604 Eu593 2.418 . S
O604 C607 1.265 . S
O605 Eu593 2.384 . S
O605 C614 1.255 . S
O606 Tb592 2.366 . S
O606 C614 1.265 . S
C607 O603 1.259 . S
C607 O604 1.265 . S
O608 Eu593 2.479 . S
O608 C623 1.238 . S
O609 Eu593 2.471 . S
O609 C623 1.247 . S
O610 Eu593 2.347 . S
O610 C594 1.259 . S
O611 Tb592 2.418 . S
O611 C594 1.265 . S
O612 Tb592 2.384 . S
O612 C595 1.255 . S
O613 Eu593 2.366 . S
O613 C595 1.265 . S
C614 O605 1.255 . S
C614 O606 1.265 . S
O615 Tb592 2.479 . S
O615 C602 1.238 . S
O616 Tb592 2.471 . S
O616 C602 1.247 . S
C617 C620 1.380 . S
C617 C621 1.374 . S
C617 C623 1.507 . S
C618 C619 1.387 . S
C618 C622 1.391 . S
C619 C618 1.387 . S
C619 C620 1.384 . S
C619 H628 0.930 . S
C620 C617 1.380 . S
C620 C619 1.384 . S
C620 H629 0.931 . S
C621 C617 1.374 . S
C621 C622 1.390 . S
C621 H630 0.930 . S
C622 C618 1.391 . S
C622 C621 1.390 . S
C622 H631 0.930 . S
C623 Eu593 2.825 . S
C623 O608 1.238 . S
C623 O609 1.247 . S
C623 C617 1.507 . S
H624 C597 0.930 . S
H625 C598 0.931 . S
H626 C599 0.930 . S
H627 C600 0.930 . S
H628 C619 0.930 . S
H629 C620 0.931 . S
H630 C621 0.930 . S
H631 C622 0.930 . S
Tb632 C642 2.825 . S
Tb632 O643 2.347 1_556 S
Tb632 O646 2.366 . S
Tb632 O651 2.418 . S
Tb632 O652 2.384 1_556 S
Tb632 O655 2.479 . S
Tb632 O656 2.471 . S
Eu633 O644 2.418 . S
Eu633 O645 2.384 . S
Eu633 O648 2.479 . S
Eu633 O649 2.471 . S
Eu633 O650 2.347 . S
Eu633 O653 2.366 . S
Eu633 C663 2.825 . S
C634 O650 1.259 . S
C634 O651 1.265 1_554 S
C635 O652 1.255 . S
C635 O653 1.265 . S
C636 C638 1.380 . S
C636 C639 1.374 . S
C636 C642 1.507 . S
C637 C638 1.384 . S
C637 C641 1.387 . S
C637 H664 0.930 . S
C638 C636 1.380 . S
C638 C637 1.384 . S
C638 H665 0.931 . S
C639 C636 1.374 . S
C639 C640 1.390 . S
C639 H666 0.930 . S
C640 C639 1.390 . S
C640 C641 1.391 . S
C640 H667 0.930 . S
C641 C637 1.387 . S
C641 C640 1.391 . S
C642 Tb632 2.825 . S
C642 C636 1.507 . S
C642 O655 1.238 . S
C642 O656 1.247 . S
O643 Tb632 2.347 1_554 S
O643 C647 1.259 . S
O644 Eu633 2.418 . S
O644 C647 1.265 . S
O645 Eu633 2.384 . S
O645 C654 1.255 1_554 S
O646 Tb632 2.366 . S
O646 C654 1.265 . S
C647 O643 1.259 . S
C647 O644 1.265 . S
O648 Eu633 2.479 . S
O648 C663 1.238 . S
O649 Eu633 2.471 . S
O649 C663 1.247 . S
O650 Eu633 2.347 . S
O650 C634 1.259 . S
O651 Tb632 2.418 . S
O651 C634 1.265 1_556 S
O652 Tb632 2.384 1_554 S
O652 C635 1.255 . S
O653 Eu633 2.366 . S
O653 C635 1.265 . S
C654 O645 1.255 1_556 S
C654 O646 1.265 . S
O655 Tb632 2.479 . S
O655 C642 1.238 . S
O656 Tb632 2.471 . S
O656 C642 1.247 . S
C657 C660 1.380 . S
C657 C661 1.374 . S
C657 C663 1.507 . S
C658 C659 1.387 . S
C658 C662 1.391 . S
C659 C658 1.387 . S
C659 C660 1.384 . S
C659 H668 0.930 . S
C660 C657 1.380 . S
C660 C659 1.384 . S
C660 H669 0.931 . S
C661 C657 1.374 . S
C661 C662 1.390 . S
C661 H670 0.930 . S
C662 C658 1.391 . S
C662 C661 1.390 . S
C662 H671 0.930 . S
C663 Eu633 2.825 . S
C663 O648 1.238 . S
C663 O649 1.247 . S
C663 C657 1.507 . S
H664 C637 0.930 . S
H665 C638 0.931 . S
H666 C639 0.930 . S
H667 C640 0.930 . S
H668 C659 0.930 . S
H669 C660 0.931 . S
H670 C661 0.930 . S
H671 C662 0.930 . S
Tb672 C682 2.825 . S
Tb672 O683 2.347 . S
Tb672 O686 2.366 . S
Tb672 O691 2.418 . S
Tb672 O692 2.384 . S
Tb672 O695 2.479 . S
Tb672 O696 2.471 . S
Eu673 O684 2.418 . S
Eu673 O685 2.384 . S
Eu673 O688 2.479 . S
Eu673 O689 2.471 . S
Eu673 O690 2.347 . S
Eu673 O693 2.366 . S
Eu673 C703 2.825 . S
C674 O690 1.259 . S
C674 O691 1.265 . S
C675 O692 1.255 . S
C675 O693 1.265 . S
C676 C678 1.380 . S
C676 C679 1.374 . S
C676 C682 1.507 . S
C677 C678 1.384 . S
C677 C681 1.387 . S
C677 H704 0.930 . S
C678 C676 1.380 . S
C678 C677 1.384 . S
C678 H705 0.931 . S
C679 C676 1.374 . S
C679 C680 1.390 . S
C679 H706 0.930 . S
C680 C679 1.390 . S
C680 C681 1.391 . S
C680 H707 0.930 . S
C681 C677 1.387 . S
C681 C680 1.391 . S
C682 Tb672 2.825 . S
C682 C676 1.507 . S
C682 O695 1.238 . S
C682 O696 1.247 . S
O683 Tb672 2.347 . S
O683 C687 1.259 . S
O684 Eu673 2.418 . S
O684 C687 1.265 . S
O685 Eu673 2.384 . S
O685 C694 1.255 . S
O686 Tb672 2.366 . S
O686 C694 1.265 . S
C687 O683 1.259 . S
C687 O684 1.265 . S
O688 Eu673 2.479 . S
O688 C703 1.238 . S
O689 Eu673 2.471 . S
O689 C703 1.247 . S
O690 Eu673 2.347 . S
O690 C674 1.259 . S
O691 Tb672 2.418 . S
O691 C674 1.265 . S
O692 Tb672 2.384 . S
O692 C675 1.255 . S
O693 Eu673 2.366 . S
O693 C675 1.265 . S
C694 O685 1.255 . S
C694 O686 1.265 . S
O695 Tb672 2.479 . S
O695 C682 1.238 . S
O696 Tb672 2.471 . S
O696 C682 1.247 . S
C697 C700 1.380 . S
C697 C701 1.374 . S
C697 C703 1.507 . S
C698 C699 1.387 . S
C698 C702 1.391 . S
C699 C698 1.387 . S
C699 C700 1.384 . S
C699 H708 0.930 . S
C700 C697 1.380 . S
C700 C699 1.384 . S
C700 H709 0.931 . S
C701 C697 1.374 . S
C701 C702 1.390 . S
C701 H710 0.930 . S
C702 C698 1.391 . S
C702 C701 1.390 . S
C702 H711 0.930 . S
C703 Eu673 2.825 . S
C703 O688 1.238 . S
C703 O689 1.247 . S
C703 C697 1.507 . S
H704 C677 0.930 . S
H705 C678 0.931 . S
H706 C679 0.930 . S
H707 C680 0.930 . S
H708 C699 0.930 . S
H709 C700 0.931 . S
H710 C701 0.930 . S
H711 C702 0.930 . S
Tb712 C722 2.825 . S
Tb712 O723 2.347 . S
Tb712 O726 2.366 . S
Tb712 O731 2.418 . S
Tb712 O732 2.384 . S
Tb712 O735 2.479 . S
Tb712 O736 2.471 . S
Eu713 O724 2.418 . S
Eu713 O725 2.384 1_455 S
Eu713 O728 2.479 . S
Eu713 O729 2.471 . S
Eu713 O730 2.347 . S
Eu713 O733 2.366 . S
Eu713 C743 2.825 . S
C714 O730 1.259 . S
C714 O731 1.265 . S
C715 O732 1.255 . S
C715 O733 1.265 . S
C716 C718 1.380 . S
C716 C719 1.374 . S
C716 C722 1.507 . S
C717 C718 1.384 . S
C717 C721 1.387 . S
C717 H744 0.930 . S
C718 C716 1.380 . S
C718 C717 1.384 . S
C718 H745 0.931 . S
C719 C716 1.374 . S
C719 C720 1.374 1_455 S
C719 H746 0.930 . S
C720 C719 1.374 1_655 S
C720 C721 1.381 1_655 S
C720 H747 0.957 . S
C721 C717 1.387 . S
C721 C720 1.381 1_455 S
C722 Tb712 2.825 . S
C722 C716 1.507 . S
C722 O735 1.238 . S
C722 O736 1.247 . S
O723 Tb712 2.347 . S
O723 C727 1.259 . S
O724 Eu713 2.418 . S
O724 C727 1.265 . S
O725 Eu713 2.384 1_655 S
O725 C734 1.255 . S
O726 Tb712 2.366 . S
O726 C734 1.265 1_455 S
C727 O723 1.259 . S
C727 O724 1.265 . S
O728 Eu713 2.479 . S
O728 C743 1.238 . S
O729 Eu713 2.471 . S
O729 C743 1.247 . S
O730 Eu713 2.347 . S
O730 C714 1.259 . S
O731 Tb712 2.418 . S
O731 C714 1.265 . S
O732 Tb712 2.384 . S
O732 C715 1.255 . S
O733 Eu713 2.366 . S
O733 C715 1.265 . S
C734 O725 1.255 . S
C734 O726 1.265 1_655 S
O735 Tb712 2.479 . S
O735 C722 1.238 . S
O736 Tb712 2.471 . S
O736 C722 1.247 . S
C737 C740 1.380 . S
C737 C741 1.374 . S
C737 C743 1.507 . S
C738 C739 1.387 . S
C738 C742 1.391 . S
C739 C738 1.387 . S
C739 C740 1.384 . S
C739 H748 0.930 . S
C740 C737 1.380 . S
C740 C739 1.384 . S
C740 H749 0.931 . S
C741 C737 1.374 . S
C741 C742 1.390 . S
C741 H750 0.930 . S
C742 C738 1.391 . S
C742 C741 1.390 . S
C742 H751 0.930 . S
C743 Eu713 2.825 . S
C743 O728 1.238 . S
C743 O729 1.247 . S
C743 C737 1.507 . S
H744 C717 0.930 . S
H745 C718 0.931 . S
H746 C719 0.930 . S
H747 C720 0.957 . S
H748 C739 0.930 . S
H749 C740 0.931 . S
H750 C741 0.930 . S
H751 C742 0.930 . S
Tb752 C762 2.825 . S
Tb752 O763 2.347 . S
Tb752 O766 2.366 . S
Tb752 O771 2.418 . S
Tb752 O772 2.384 . S
Tb752 O775 2.479 . S
Tb752 O776 2.471 . S
Eu753 O764 2.418 . S
Eu753 O765 2.384 . S
Eu753 O768 2.479 . S
Eu753 O769 2.471 . S
Eu753 O770 2.347 . S
Eu753 O773 2.366 . S
Eu753 C783 2.825 . S
C754 O770 1.259 . S
C754 O771 1.265 . S
C755 O772 1.255 . S
C755 O773 1.265 . S
C756 C758 1.380 . S
C756 C759 1.374 . S
C756 C762 1.507 . S
C757 C758 1.384 . S
C757 C761 1.387 . S
C757 H784 0.930 . S
C758 C756 1.380 . S
C758 C757 1.384 . S
C758 H785 0.931 . S
C759 C756 1.374 . S
C759 C760 1.390 . S
C759 H786 0.930 . S
C760 C759 1.390 . S
C760 C761 1.391 . S
C760 H787 0.930 . S
C761 C757 1.387 . S
C761 C760 1.391 . S
C762 Tb752 2.825 . S
C762 C756 1.507 . S
C762 O775 1.238 . S
C762 O776 1.247 . S
O763 Tb752 2.347 . S
O763 C767 1.259 . S
O764 Eu753 2.418 . S
O764 C767 1.265 . S
O765 Eu753 2.384 . S
O765 C774 1.255 . S
O766 Tb752 2.366 . S
O766 C774 1.265 . S
C767 O763 1.259 . S
C767 O764 1.265 . S
O768 Eu753 2.479 . S
O768 C783 1.238 . S
O769 Eu753 2.471 . S
O769 C783 1.247 . S
O770 Eu753 2.347 . S
O770 C754 1.259 . S
O771 Tb752 2.418 . S
O771 C754 1.265 . S
O772 Tb752 2.384 . S
O772 C755 1.255 . S
O773 Eu753 2.366 . S
O773 C755 1.265 . S
C774 O765 1.255 . S
C774 O766 1.265 . S
O775 Tb752 2.479 . S
O775 C762 1.238 . S
O776 Tb752 2.471 . S
O776 C762 1.247 . S
C777 C780 1.380 . S
C777 C781 1.374 . S
C777 C783 1.507 . S
C778 C779 1.387 . S
C778 C782 1.391 . S
C779 C778 1.387 . S
C779 C780 1.384 . S
C779 H788 0.930 . S
C780 C777 1.380 . S
C780 C779 1.384 . S
C780 H789 0.931 . S
C781 C777 1.374 . S
C781 C782 1.390 . S
C781 H790 0.930 . S
C782 C778 1.391 . S
C782 C781 1.390 . S
C782 H791 0.930 . S
C783 Eu753 2.825 . S
C783 O768 1.238 . S
C783 O769 1.247 . S
C783 C777 1.507 . S
H784 C757 0.930 . S
H785 C758 0.931 . S
H786 C759 0.930 . S
H787 C760 0.930 . S
H788 C779 0.930 . S
H789 C780 0.931 . S
H790 C781 0.930 . S
H791 C782 0.930 . S
Tb792 C802 2.825 . S
Tb792 O803 2.347 . S
Tb792 O806 2.366 . S
Tb792 O811 2.418 . S
Tb792 O812 2.384 . S
Tb792 O815 2.479 . S
Tb792 O816 2.471 . S
Eu793 O804 2.418 . S
Eu793 O805 2.384 . S
Eu793 O808 2.479 . S
Eu793 O809 2.471 . S
Eu793 O810 2.347 . S
Eu793 O813 2.366 . S
Eu793 C823 2.825 . S
C794 O810 1.259 . S
C794 O811 1.265 . S
C795 O812 1.255 . S
C795 O813 1.265 . S
C796 C798 1.380 . S
C796 C799 1.374 . S
C796 C802 1.507 . S
C797 C798 1.384 . S
C797 C801 1.387 . S
C797 H824 0.930 . S
C798 C796 1.380 . S
C798 C797 1.384 . S
C798 H825 0.931 . S
C799 C796 1.374 . S
C799 C800 1.390 . S
C799 H826 0.930 . S
C800 C799 1.390 . S
C800 C801 1.391 . S
C800 H827 0.930 . S
C801 C797 1.387 . S
C801 C800 1.391 . S
C802 Tb792 2.825 . S
C802 C796 1.507 . S
C802 O815 1.238 . S
C802 O816 1.247 . S
O803 Tb792 2.347 . S
O803 C807 1.259 . S
O804 Eu793 2.418 . S
O804 C807 1.265 . S
O805 Eu793 2.384 . S
O805 C814 1.255 . S
O806 Tb792 2.366 . S
O806 C814 1.265 . S
C807 O803 1.259 . S
C807 O804 1.265 . S
O808 Eu793 2.479 . S
O808 C823 1.238 . S
O809 Eu793 2.471 . S
O809 C823 1.247 . S
O810 Eu793 2.347 . S
O810 C794 1.259 . S
O811 Tb792 2.418 . S
O811 C794 1.265 . S
O812 Tb792 2.384 . S
O812 C795 1.255 . S
O813 Eu793 2.366 . S
O813 C795 1.265 . S
C814 O805 1.255 . S
C814 O806 1.265 . S
O815 Tb792 2.479 . S
O815 C802 1.238 . S
O816 Tb792 2.471 . S
O816 C802 1.247 . S
C817 C820 1.380 . S
C817 C821 1.374 . S
C817 C823 1.507 . S
C818 C819 1.387 . S
C818 C822 1.391 . S
C819 C818 1.387 . S
C819 C820 1.384 . S
C819 H828 0.930 . S
C820 C817 1.380 . S
C820 C819 1.384 . S
C820 H829 0.931 . S
C821 C817 1.374 . S
C821 C822 1.390 . S
C821 H830 0.930 . S
C822 C818 1.391 . S
C822 C821 1.390 . S
C822 H831 0.930 . S
C823 Eu793 2.825 . S
C823 O808 1.238 . S
C823 O809 1.247 . S
C823 C817 1.507 . S
H824 C797 0.930 . S
H825 C798 0.931 . S
H826 C799 0.930 . S
H827 C800 0.930 . S
H828 C819 0.930 . S
H829 C820 0.931 . S
H830 C821 0.930 . S
H831 C822 0.930 . S
Tb832 C842 2.825 . S
Tb832 O843 2.347 . S
Tb832 O846 2.366 . S
Tb832 O851 2.418 . S
Tb832 O852 2.384 . S
Tb832 O855 2.479 . S
Tb832 O856 2.471 . S
Eu833 O844 2.418 . S
Eu833 O845 2.384 . S
Eu833 O848 2.479 . S
Eu833 O849 2.471 . S
Eu833 O850 2.347 . S
Eu833 O853 2.366 . S
Eu833 C863 2.825 . S
C834 O850 1.259 . S
C834 O851 1.265 . S
C835 O852 1.255 . S
C835 O853 1.265 . S
C836 C838 1.380 . S
C836 C839 1.374 . S
C836 C842 1.507 . S
C837 C838 1.384 . S
C837 C841 1.387 . S
C837 H864 0.930 . S
C838 C836 1.380 . S
C838 C837 1.384 . S
C838 H865 0.931 . S
C839 C836 1.374 . S
C839 C840 1.390 . S
C839 H866 0.930 . S
C840 C839 1.390 . S
C840 C841 1.391 . S
C840 H867 0.930 . S
C841 C837 1.387 . S
C841 C840 1.391 . S
C842 Tb832 2.825 . S
C842 C836 1.507 . S
C842 O855 1.238 . S
C842 O856 1.247 . S
O843 Tb832 2.347 . S
O843 C847 1.259 . S
O844 Eu833 2.418 . S
O844 C847 1.265 . S
O845 Eu833 2.384 . S
O845 C854 1.255 . S
O846 Tb832 2.366 . S
O846 C854 1.265 . S
C847 O843 1.259 . S
C847 O844 1.265 . S
O848 Eu833 2.479 . S
O848 C863 1.238 . S
O849 Eu833 2.471 . S
O849 C863 1.247 . S
O850 Eu833 2.347 . S
O850 C834 1.259 . S
O851 Tb832 2.418 . S
O851 C834 1.265 . S
O852 Tb832 2.384 . S
O852 C835 1.255 . S
O853 Eu833 2.366 . S
O853 C835 1.265 . S
C854 O845 1.255 . S
C854 O846 1.265 . S
O855 Tb832 2.479 . S
O855 C842 1.238 . S
O856 Tb832 2.471 . S
O856 C842 1.247 . S
C857 C860 1.380 . S
C857 C861 1.374 . S
C857 C863 1.507 . S
C858 C859 1.387 . S
C858 C862 1.391 . S
C859 C858 1.387 . S
C859 C860 1.384 . S
C859 H868 0.930 . S
C860 C857 1.380 . S
C860 C859 1.384 . S
C860 H869 0.931 . S
C861 C857 1.374 . S
C861 C862 1.390 . S
C861 H870 0.930 . S
C862 C858 1.391 . S
C862 C861 1.390 . S
C862 H871 0.930 . S
C863 Eu833 2.825 . S
C863 O848 1.238 . S
C863 O849 1.247 . S
C863 C857 1.507 . S
H864 C837 0.930 . S
H865 C838 0.931 . S
H866 C839 0.930 . S
H867 C840 0.930 . S
H868 C859 0.930 . S
H869 C860 0.931 . S
H870 C861 0.930 . S
H871 C862 0.930 . S
Tb872 C882 2.825 . S
Tb872 O883 2.347 . S
Tb872 O886 2.366 . S
Tb872 O891 2.418 . S
Tb872 O892 2.384 . S
Tb872 O895 2.479 . S
Tb872 O896 2.471 . S
Eu873 O884 2.418 . S
Eu873 O885 2.384 . S
Eu873 O888 2.479 . S
Eu873 O889 2.471 . S
Eu873 O890 2.347 . S
Eu873 O893 2.366 . S
Eu873 C903 2.825 . S
C874 O890 1.259 . S
C874 O891 1.265 . S
C875 O892 1.255 . S
C875 O893 1.265 . S
C876 C878 1.380 . S
C876 C879 1.374 . S
C876 C882 1.507 . S
C877 C878 1.384 . S
C877 C881 1.387 . S
C877 H904 0.930 . S
C878 C876 1.380 . S
C878 C877 1.384 . S
C878 H905 0.931 . S
C879 C876 1.374 . S
C879 C880 1.390 . S
C879 H906 0.930 . S
C880 C879 1.390 . S
C880 C881 1.391 . S
C880 H907 0.930 . S
C881 C877 1.387 . S
C881 C880 1.391 . S
C882 Tb872 2.825 . S
C882 C876 1.507 . S
C882 O895 1.238 . S
C882 O896 1.247 . S
O883 Tb872 2.347 . S
O883 C887 1.259 . S
O884 Eu873 2.418 . S
O884 C887 1.265 . S
O885 Eu873 2.384 . S
O885 C894 1.255 . S
O886 Tb872 2.366 . S
O886 C894 1.265 . S
C887 O883 1.259 . S
C887 O884 1.265 . S
O888 Eu873 2.479 . S
O888 C903 1.238 . S
O889 Eu873 2.471 . S
O889 C903 1.247 . S
O890 Eu873 2.347 . S
O890 C874 1.259 . S
O891 Tb872 2.418 . S
O891 C874 1.265 . S
O892 Tb872 2.384 . S
O892 C875 1.255 . S
O893 Eu873 2.366 . S
O893 C875 1.265 . S
C894 O885 1.255 . S
C894 O886 1.265 . S
O895 Tb872 2.479 . S
O895 C882 1.238 . S
O896 Tb872 2.471 . S
O896 C882 1.247 . S
C897 C900 1.380 . S
C897 C901 1.374 . S
C897 C903 1.507 . S
C898 C899 1.387 . S
C898 C902 1.391 . S
C899 C898 1.387 . S
C899 C900 1.384 . S
C899 H908 0.930 . S
C900 C897 1.380 . S
C900 C899 1.384 . S
C900 H909 0.931 . S
C901 C897 1.374 . S
C901 C902 1.390 . S
C901 H910 0.930 . S
C902 C898 1.391 . S
C902 C901 1.390 . S
C902 H911 0.930 . S
C903 Eu873 2.825 . S
C903 O888 1.238 . S
C903 O889 1.247 . S
C903 C897 1.507 . S
H904 C877 0.930 . S
H905 C878 0.931 . S
H906 C879 0.930 . S
H907 C880 0.930 . S
H908 C899 0.930 . S
H909 C900 0.931 . S
H910 C901 0.930 . S
H911 C902 0.930 . S
Tb912 C922 2.825 . S
Tb912 O923 2.347 . S
Tb912 O926 2.366 . S
Tb912 O931 2.418 . S
Tb912 O932 2.384 1_455 S
Tb912 O935 2.479 . S
Tb912 O936 2.471 1_554 S
Eu913 O924 2.418 1_554 S
Eu913 O925 2.384 . S
Eu913 O928 2.479 . S
Eu913 O929 2.471 . S
Eu913 O930 2.347 . S
Eu913 O933 2.366 . S
Eu913 C943 2.825 . S
C914 O930 1.259 . S
C914 O931 1.265 . S
C915 O932 1.255 . S
C915 O933 1.260 1_655 S
C916 C918 1.385 . S
C916 C919 1.366 1_554 S
C916 C922 1.509 . S
C917 C918 1.384 . S
C917 C921 1.387 1_554 S
C917 H944 0.930 . S
C918 C916 1.385 . S
C918 C917 1.384 . S
C918 H945 0.931 . S
C919 C916 1.366 1_556 S
C919 C920 1.390 . S
C919 H946 0.930 . S
C920 C919 1.390 . S
C920 C921 1.391 . S
C920 H947 0.930 . S
C921 C917 1.387 1_556 S
C921 C920 1.391 . S
C922 Tb912 2.825 . S
C922 C916 1.509 . S
C922 O935 1.238 . S
C922 O936 1.247 1_554 S
O923 Tb912 2.347 . S
O923 C927 1.259 1_554 S
O924 Eu913 2.418 1_556 S
O924 C927 1.265 . S
O925 Eu913 2.384 . S
O925 C934 1.255 . S
O926 Tb912 2.366 . S
O926 C934 1.265 . S
C927 O923 1.259 1_556 S
C927 O924 1.265 . S
O928 Eu913 2.479 . S
O928 C943 1.238 . S
O929 Eu913 2.471 . S
O929 C943 1.247 . S
O930 Eu913 2.347 . S
O930 C914 1.259 . S
O931 Tb912 2.418 . S
O931 C914 1.265 . S
O932 Tb912 2.384 1_655 S
O932 C915 1.255 . S
O933 Eu913 2.366 . S
O933 C915 1.260 1_455 S
C934 O925 1.255 . S
C934 O926 1.265 . S
O935 Tb912 2.479 . S
O935 C922 1.238 . S
O936 Tb912 2.471 1_556 S
O936 C922 1.247 1_556 S
C937 C940 1.380 . S
C937 C941 1.374 . S
C937 C943 1.507 . S
C938 C939 1.387 . S
C938 C942 1.391 . S
C939 C938 1.387 . S
C939 C940 1.384 . S
C939 H948 0.930 . S
C940 C937 1.380 . S
C940 C939 1.384 . S
C940 H949 0.931 . S
C941 C937 1.374 . S
C941 C942 1.390 . S
C941 H950 0.930 . S
C942 C938 1.391 . S
C942 C941 1.390 . S
C942 H951 0.930 . S
C943 Eu913 2.825 . S
C943 O928 1.238 . S
C943 O929 1.247 . S
C943 C937 1.507 . S
H944 C917 0.930 . S
H945 C918 0.931 . S
H946 C919 0.930 . S
H947 C920 0.930 . S
H948 C939 0.930 . S
H949 C940 0.931 . S
H950 C941 0.930 . S
H951 C942 0.930 . S
H952 C958 0.930 1_655 S
H953 C962 0.930 . S
H954 C967 0.929 . S
H955 C965 0.929 . S
H956 C960 0.929 . S
H957 C966 0.929 . S
C958 H952 0.930 1_455 S
C958 C959 1.367 . S
C958 C966 1.378 . S
C959 C958 1.367 . S
C959 C967 1.433 . S
C960 H956 0.929 . S
C960 C962 1.378 . S
C960 C964 1.350 . S
C961 C964 1.463 . S
C961 C966 1.350 . S
C961 N969 1.427 . S
C962 H953 0.930 . S
C962 C960 1.378 . S
C962 C963 1.367 1_556 S
C963 C962 1.367 1_554 S
C963 C965 1.433 . S
C964 C960 1.350 . S
C964 C961 1.463 . S
C964 N968 1.427 1_556 S
C965 H955 0.929 . S
C965 C963 1.433 . S
C965 N968 1.384 . S
C966 H957 0.929 . S
C966 C958 1.378 . S
C966 C961 1.350 . S
C967 H954 0.929 . S
C967 C959 1.433 . S
C967 N969 1.384 . S
N968 C964 1.427 1_554 S
N968 C965 1.384 . S
N969 C961 1.427 . S
N969 C967 1.384 . S
H970 C976 0.930 . S
H971 C980 0.930 . S
H972 C985 0.929 . S
H973 C983 0.929 . S
H974 C978 0.929 . S
H975 C984 0.929 . S
C976 H970 0.930 . S
C976 C977 1.367 . S
C976 C984 1.378 . S
C977 C976 1.367 . S
C977 C985 1.433 . S
C978 H974 0.929 . S
C978 C980 1.378 . S
C978 C982 1.350 . S
C979 C982 1.463 . S
C979 C984 1.350 . S
C979 N987 1.427 . S
C980 H971 0.930 . S
C980 C978 1.378 . S
C980 C981 1.367 . S
C981 C980 1.367 . S
C981 C983 1.433 . S
C982 C978 1.350 . S
C982 C979 1.463 . S
C982 N986 1.427 . S
C983 H973 0.929 . S
C983 C981 1.433 . S
C983 N986 1.384 . S
C984 H975 0.929 . S
C984 C976 1.378 . S
C984 C979 1.350 . S
C985 H972 0.929 . S
C985 C977 1.433 . S
C985 N987 1.384 . S
N986 C982 1.427 . S
N986 C983 1.384 . S
N987 C979 1.427 . S
N987 C985 1.384 . S
H988 C994 0.930 . S
H989 C998 0.930 . S
H990 C1003 0.929 . S
H991 C1001 0.929 . S
H992 C996 0.929 . S
H993 C1002 0.929 . S
C994 H988 0.930 . S
C994 C995 1.367 . S
C994 C1002 1.378 . S
C995 C994 1.367 . S
C995 C1003 1.433 . S
C996 H992 0.929 . S
C996 C998 1.378 . S
C996 C1000 1.350 . S
C997 C1000 1.463 . S
C997 C1002 1.350 . S
C997 N1005 1.427 . S
C998 H989 0.930 . S
C998 C996 1.378 . S
C998 C999 1.367 . S
C999 C998 1.367 . S
C999 C1001 1.433 . S
C1000 C996 1.350 . S
C1000 C997 1.463 . S
C1000 N1004 1.427 . S
C1001 H991 0.929 . S
C1001 C999 1.433 . S
C1001 N1004 1.384 . S
C1002 H993 0.929 . S
C1002 C994 1.378 . S
C1002 C997 1.350 . S
C1003 H990 0.929 . S
C1003 C995 1.433 . S
C1003 N1005 1.384 . S
N1004 C1000 1.427 . S
N1004 C1001 1.384 . S
N1005 C997 1.427 . S
N1005 C1003 1.384 . S
H1006 C1012 0.930 . S
H1007 C1016 0.930 . S
H1008 C1021 0.929 . S
H1009 C1019 0.929 . S
H1010 C1014 0.929 . S
H1011 C1020 0.929 . S
C1012 H1006 0.930 . S
C1012 C1013 1.367 . S
C1012 C1020 1.378 . S
C1013 C1012 1.367 . S
C1013 C1021 1.433 . S
C1014 H1010 0.929 . S
C1014 C1016 1.378 . S
C1014 C1018 1.350 . S
C1015 C1018 1.463 . S
C1015 C1020 1.350 . S
C1015 N1023 1.427 . S
C1016 H1007 0.930 . S
C1016 C1014 1.378 . S
C1016 C1017 1.367 . S
C1017 C1016 1.367 . S
C1017 C1019 1.433 . S
C1018 C1014 1.350 . S
C1018 C1015 1.463 . S
C1018 N1022 1.427 . S
C1019 H1009 0.929 . S
C1019 C1017 1.433 . S
C1019 N1022 1.384 . S
C1020 H1011 0.929 . S
C1020 C1012 1.378 . S
C1020 C1015 1.350 . S
C1021 H1008 0.929 . S
C1021 C1013 1.433 . S
C1021 N1023 1.384 . S
N1022 C1018 1.427 . S
N1022 C1019 1.384 . S
N1023 C1015 1.427 . S
N1023 C1021 1.384 . S
H1024 C1030 0.930 . S
H1025 C1034 0.930 . S
H1026 C1039 0.929 . S
H1027 C1037 0.929 . S
H1028 C1032 0.929 . S
H1029 C1038 0.929 . S
C1030 H1024 0.930 . S
C1030 C1031 1.367 . S
C1030 C1038 1.378 . S
C1031 C1030 1.367 . S
C1031 C1039 1.433 . S
C1032 H1028 0.929 . S
C1032 C1034 1.378 . S
C1032 C1036 1.350 . S
C1033 C1036 1.463 . S
C1033 C1038 1.350 . S
C1033 N1041 1.427 . S
C1034 H1025 0.930 . S
C1034 C1032 1.378 . S
C1034 C1035 1.367 . S
C1035 C1034 1.367 . S
C1035 C1037 1.433 . S
C1036 C1032 1.350 . S
C1036 C1033 1.463 . S
C1036 N1040 1.427 . S
C1037 H1027 0.929 . S
C1037 C1035 1.433 . S
C1037 N1040 1.384 . S
C1038 H1029 0.929 . S
C1038 C1030 1.378 . S
C1038 C1033 1.350 . S
C1039 H1026 0.929 . S
C1039 C1031 1.433 . S
C1039 N1041 1.384 . S
N1040 C1036 1.427 . S
N1040 C1037 1.384 . S
N1041 C1033 1.427 . S
N1041 C1039 1.384 . S
H1042 C1048 0.930 . S
H1043 C1052 0.930 . S
H1044 C1057 0.929 . S
H1045 C1055 0.929 . S
H1046 C1050 0.929 . S
H1047 C1056 0.929 . S
C1048 H1042 0.930 . S
C1048 C1049 1.367 . S
C1048 C1056 1.378 . S
C1049 C1048 1.367 . S
C1049 C1057 1.433 . S
C1050 H1046 0.929 . S
C1050 C1052 1.378 . S
C1050 C1054 1.350 . S
C1051 C1054 1.463 . S
C1051 C1056 1.350 . S
C1051 N1059 1.427 . S
C1052 H1043 0.930 . S
C1052 C1050 1.378 . S
C1052 C1053 1.367 . S
C1053 C1052 1.367 . S
C1053 C1055 1.433 . S
C1054 C1050 1.350 . S
C1054 C1051 1.463 . S
C1054 N1058 1.427 . S
C1055 H1045 0.929 . S
C1055 C1053 1.433 . S
C1055 N1058 1.384 . S
C1056 H1047 0.929 . S
C1056 C1048 1.378 . S
C1056 C1051 1.350 . S
C1057 H1044 0.929 . S
C1057 C1049 1.433 . S
C1057 N1059 1.384 . S
N1058 C1054 1.427 . S
N1058 C1055 1.384 . S
N1059 C1051 1.427 . S
N1059 C1057 1.384 . S
H1060 C1066 0.930 . S
H1061 C1070 0.930 . S
H1062 C1075 0.929 . S
H1063 C1073 0.929 . S
H1064 C1068 0.929 . S
H1065 C1074 0.929 . S
C1066 H1060 0.930 . S
C1066 C1067 1.367 . S
C1066 C1074 1.378 . S
C1067 C1066 1.367 . S
C1067 C1075 1.433 . S
C1068 H1064 0.929 . S
C1068 C1070 1.378 . S
C1068 C1072 1.350 . S
C1069 C1072 1.463 . S
C1069 C1074 1.350 . S
C1069 N1077 1.427 . S
C1070 H1061 0.930 . S
C1070 C1068 1.378 . S
C1070 C1071 1.367 . S
C1071 C1070 1.367 . S
C1071 C1073 1.433 . S
C1072 C1068 1.350 . S
C1072 C1069 1.463 . S
C1072 N1076 1.427 . S
C1073 H1063 0.929 . S
C1073 C1071 1.433 . S
C1073 N1076 1.384 . S
C1074 H1065 0.929 . S
C1074 C1066 1.378 . S
C1074 C1069 1.350 . S
C1075 H1062 0.929 . S
C1075 C1067 1.433 . S
C1075 N1077 1.384 . S
N1076 C1072 1.427 . S
N1076 C1073 1.384 . S
N1077 C1069 1.427 . S
N1077 C1075 1.384 . S
H1078 C1084 0.930 . S
H1079 C1088 0.930 . S
H1080 C1093 0.929 . S
H1081 C1091 0.929 . S
H1082 C1086 0.929 . S
H1083 C1092 0.929 . S
C1084 H1078 0.930 . S
C1084 C1085 1.367 . S
C1084 C1092 1.378 . S
C1085 C1084 1.367 . S
C1085 C1093 1.433 . S
C1086 H1082 0.929 . S
C1086 C1088 1.378 . S
C1086 C1090 1.350 . S
C1087 C1090 1.463 . S
C1087 C1092 1.350 . S
C1087 N1095 1.427 . S
C1088 H1079 0.930 . S
C1088 C1086 1.378 . S
C1088 C1089 1.367 . S
C1089 C1088 1.367 . S
C1089 C1091 1.433 . S
C1090 C1086 1.350 . S
C1090 C1087 1.463 . S
C1090 N1094 1.427 . S
C1091 H1081 0.929 . S
C1091 C1089 1.433 . S
C1091 N1094 1.384 . S
C1092 H1083 0.929 . S
C1092 C1084 1.378 . S
C1092 C1087 1.350 . S
C1093 H1080 0.929 . S
C1093 C1085 1.433 . S
C1093 N1095 1.384 . S
N1094 C1090 1.427 . S
N1094 C1091 1.384 . S
N1095 C1087 1.427 . S
N1095 C1093 1.384 . S
H1096 C1102 0.930 . S
H1097 C1106 0.930 . S
H1098 C1111 0.929 . S
H1099 C1109 0.929 . S
H1100 C1104 0.929 . S
H1101 C1110 0.929 1_565 S
C1102 H1096 0.930 . S
C1102 C1103 1.367 1_565 S
C1102 C1110 1.378 1_565 S
C1103 C1102 1.367 1_545 S
C1103 C1111 1.433 . S
C1104 H1100 0.929 . S
C1104 C1106 1.378 . S
C1104 C1108 1.350 1_455 S
C1105 C1108 1.463 . S
C1105 C1110 1.350 . S
C1105 N1113 1.427 . S
C1106 H1097 0.930 . S
C1106 C1104 1.378 . S
C1106 C1107 1.367 . S
C1107 C1106 1.367 . S
C1107 C1109 1.433 . S
C1108 C1104 1.350 1_655 S
C1108 C1105 1.463 . S
C1108 N1112 1.427 1_655 S
C1109 H1099 0.929 . S
C1109 C1107 1.433 . S
C1109 N1112 1.384 . S
C1110 H1101 0.929 1_545 S
C1110 C1102 1.378 1_545 S
C1110 C1105 1.350 . S
C1111 H1098 0.929 . S
C1111 C1103 1.433 . S
C1111 N1113 1.384 . S
N1112 C1108 1.427 1_455 S
N1112 C1109 1.384 . S
N1113 C1105 1.427 . S
N1113 C1111 1.384 . S
H1114 C1120 0.930 . S
H1115 C1124 0.930 . S
H1116 C1129 0.929 . S
H1117 C1127 0.929 . S
H1118 C1122 0.929 . S
H1119 C1128 0.929 . S
C1120 H1114 0.930 . S
C1120 C1121 1.367 . S
C1120 C1128 1.378 . S
C1121 C1120 1.367 . S
C1121 C1129 1.433 . S
C1122 H1118 0.929 . S
C1122 C1124 1.378 . S
C1122 C1126 1.350 . S
C1123 C1126 1.463 . S
C1123 C1128 1.350 . S
C1123 N1131 1.427 . S
C1124 H1115 0.930 . S
C1124 C1122 1.378 . S
C1124 C1125 1.367 . S
C1125 C1124 1.367 . S
C1125 C1127 1.433 . S
C1126 C1122 1.350 . S
C1126 C1123 1.463 . S
C1126 N1130 1.427 . S
C1127 H1117 0.929 . S
C1127 C1125 1.433 . S
C1127 N1130 1.384 . S
C1128 H1119 0.929 . S
C1128 C1120 1.378 . S
C1128 C1123 1.350 . S
C1129 H1116 0.929 . S
C1129 C1121 1.433 . S
C1129 N1131 1.384 . S
N1130 C1126 1.427 . S
N1130 C1127 1.384 . S
N1131 C1123 1.427 . S
N1131 C1129 1.384 . S
H1132 C1138 0.930 . S
H1133 C1142 0.930 . S
H1134 C1147 0.929 . S
H1135 C1145 0.929 . S
H1136 C1140 0.929 . S
H1137 C1146 0.929 . S
C1138 H1132 0.930 . S
C1138 C1139 1.367 1_545 S
C1138 C1146 1.378 . S
C1139 C1138 1.367 1_565 S
C1139 C1147 1.433 . S
C1140 H1136 0.929 . S
C1140 C1142 1.378 . S
C1140 C1144 1.350 1_565 S
C1141 C1144 1.463 . S
C1141 C1146 1.350 . S
C1141 N1149 1.427 1_545 S
C1142 H1133 0.930 . S
C1142 C1140 1.378 . S
C1142 C1143 1.367 1_565 S
C1143 C1142 1.367 1_545 S
C1143 C1145 1.433 . S
C1144 C1140 1.350 1_545 S
C1144 C1141 1.463 . S
C1144 N1148 1.427 . S
C1145 H1135 0.929 . S
C1145 C1143 1.433 . S
C1145 N1148 1.384 . S
C1146 H1137 0.929 . S
C1146 C1138 1.378 . S
C1146 C1141 1.350 . S
C1147 H1134 0.929 . S
C1147 C1139 1.433 . S
C1147 N1149 1.384 . S
N1148 C1144 1.427 . S
N1148 C1145 1.384 . S
N1149 C1141 1.427 1_565 S
N1149 C1147 1.384 . S
H1150 C1156 0.930 . S
H1151 C1160 0.930 . S
H1152 C1165 0.929 . S
H1153 C1163 0.929 . S
H1154 C1158 0.929 . S
H1155 C1164 0.929 . S
C1156 H1150 0.930 . S
C1156 C1157 1.367 . S
C1156 C1164 1.378 . S
C1157 C1156 1.367 . S
C1157 C1165 1.433 . S
C1158 H1154 0.929 . S
C1158 C1160 1.378 . S
C1158 C1162 1.350 . S
C1159 C1162 1.463 . S
C1159 C1164 1.350 . S
C1159 N1167 1.427 . S
C1160 H1151 0.930 . S
C1160 C1158 1.378 . S
C1160 C1161 1.367 . S
C1161 C1160 1.367 . S
C1161 C1163 1.433 . S
C1162 C1158 1.350 . S
C1162 C1159 1.463 . S
C1162 N1166 1.427 . S
C1163 H1153 0.929 . S
C1163 C1161 1.433 . S
C1163 N1166 1.384 . S
C1164 H1155 0.929 . S
C1164 C1156 1.378 . S
C1164 C1159 1.350 . S
C1165 H1152 0.929 . S
C1165 C1157 1.433 . S
C1165 N1167 1.384 . S
N1166 C1162 1.427 . S
N1166 C1163 1.384 . S
N1167 C1159 1.427 . S
N1167 C1165 1.384 . S
H1168 C1174 0.930 . S
H1169 C1178 0.930 . S
H1170 C1183 0.929 . S
H1171 C1181 0.895 1_455 S
H1172 C1176 0.929 . S
H1173 C1182 0.929 . S
C1174 H1168 0.930 . S
C1174 C1175 1.367 . S
C1174 C1182 1.378 . S
C1175 C1174 1.367 . S
C1175 C1183 1.433 1_565 S
C1176 H1172 0.929 . S
C1176 C1178 1.378 . S
C1176 C1180 1.350 . S
C1177 C1180 1.463 . S
C1177 C1182 1.350 1_545 S
C1177 N1185 1.427 . S
C1178 H1169 0.930 . S
C1178 C1176 1.378 . S
C1178 C1179 1.367 1_655 S
C1179 C1178 1.367 1_455 S
C1179 C1181 1.442 1_445 S
C1180 C1176 1.350 . S
C1180 C1177 1.463 . S
C1180 N1184 1.427 1_545 S
C1181 H1171 0.895 1_655 S
C1181 C1179 1.442 1_665 S
C1181 N1184 1.413 . S
C1182 H1173 0.929 . S
C1182 C1174 1.378 . S
C1182 C1177 1.350 1_565 S
C1183 H1170 0.929 . S
C1183 C1175 1.433 1_545 S
C1183 N1185 1.384 . S
N1184 C1180 1.427 1_565 S
N1184 C1181 1.413 . S
N1185 C1177 1.427 . S
N1185 C1183 1.384 . S
H1186 C1192 0.930 . S
H1187 C1196 0.930 . S
H1188 C1201 0.929 . S
H1189 C1199 0.929 . S
H1190 C1194 0.929 . S
H1191 C1200 0.929 . S
C1192 H1186 0.930 . S
C1192 C1193 1.367 . S
C1192 C1200 1.378 . S
C1193 C1192 1.367 . S
C1193 C1201 1.433 . S
C1194 H1190 0.929 . S
C1194 C1196 1.378 . S
C1194 C1198 1.350 . S
C1195 C1198 1.463 . S
C1195 C1200 1.350 . S
C1195 N1203 1.427 . S
C1196 H1187 0.930 . S
C1196 C1194 1.378 . S
C1196 C1197 1.367 . S
C1197 C1196 1.367 . S
C1197 C1199 1.433 . S
C1198 C1194 1.350 . S
C1198 C1195 1.463 . S
C1198 N1202 1.427 . S
C1199 H1189 0.929 . S
C1199 C1197 1.433 . S
C1199 N1202 1.384 . S
C1200 H1191 0.929 . S
C1200 C1192 1.378 . S
C1200 C1195 1.350 . S
C1201 H1188 0.929 . S
C1201 C1193 1.433 . S
C1201 N1203 1.384 . S
N1202 C1198 1.427 . S
N1202 C1199 1.384 . S
N1203 C1195 1.427 . S
N1203 C1201 1.384 . S
H1204 C1210 0.930 1_565 S
H1205 C1214 0.930 . S
H1206 C1219 0.929 . S
H1207 C1217 0.929 . S
H1208 C1212 0.929 . S
H1209 C1218 0.929 . S
C1210 H1204 0.930 1_545 S
C1210 C1211 1.367 . S
C1210 C1218 1.378 . S
C1211 C1210 1.367 . S
C1211 C1219 1.433 . S
C1212 H1208 0.929 . S
C1212 C1214 1.378 . S
C1212 C1216 1.350 . S
C1213 C1216 1.463 . S
C1213 C1218 1.350 . S
C1213 N1221 1.427 . S
C1214 H1205 0.930 . S
C1214 C1212 1.378 . S
C1214 C1215 1.367 . S
C1215 C1214 1.367 . S
C1215 C1217 1.433 . S
C1216 C1212 1.350 . S
C1216 C1213 1.463 . S
C1216 N1220 1.427 . S
C1217 H1207 0.929 . S
C1217 C1215 1.433 . S
C1217 N1220 1.384 . S
C1218 H1209 0.929 . S
C1218 C1210 1.378 . S
C1218 C1213 1.350 . S
C1219 H1206 0.929 . S
C1219 C1211 1.433 . S
C1219 N1221 1.384 . S
N1220 C1216 1.427 . S
N1220 C1217 1.384 . S
N1221 C1213 1.427 . S
N1221 C1219 1.384 . S
H1222 C1228 0.930 . S
H1223 C1232 0.930 . S
H1224 C1237 0.929 . S
H1225 C1235 0.929 . S
H1226 C1230 0.929 . S
H1227 C1236 0.929 . S
C1228 H1222 0.930 . S
C1228 C1229 1.367 . S
C1228 C1236 1.378 . S
C1229 C1228 1.367 . S
C1229 C1237 1.433 . S
C1230 H1226 0.929 . S
C1230 C1232 1.378 . S
C1230 C1234 1.350 . S
C1231 C1234 1.463 . S
C1231 C1236 1.350 . S
C1231 N1239 1.427 . S
C1232 H1223 0.930 . S
C1232 C1230 1.378 . S
C1232 C1233 1.367 . S
C1233 C1232 1.367 . S
C1233 C1235 1.433 . S
C1234 C1230 1.350 . S
C1234 C1231 1.463 . S
C1234 N1238 1.427 . S
C1235 H1225 0.929 . S
C1235 C1233 1.433 . S
C1235 N1238 1.384 . S
C1236 H1227 0.929 . S
C1236 C1228 1.378 . S
C1236 C1231 1.350 . S
C1237 H1224 0.929 . S
C1237 C1229 1.433 . S
C1237 N1239 1.384 . S
N1238 C1234 1.427 . S
N1238 C1235 1.384 . S
N1239 C1231 1.427 . S
N1239 C1237 1.384 . S
H1240 C1246 0.930 . S
H1241 C1250 0.930 . S
H1242 C1255 0.929 . S
H1243 C1253 0.929 1_545 S
H1244 C1248 0.929 . S
H1245 C1254 0.929 . S
C1246 H1240 0.930 . S
C1246 C1247 1.367 . S
C1246 C1254 1.378 . S
C1247 C1246 1.367 . S
C1247 C1255 1.433 . S
C1248 H1244 0.929 . S
C1248 C1250 1.378 . S
C1248 C1252 1.350 . S
C1249 C1252 1.463 . S
C1249 C1254 1.350 . S
C1249 N1257 1.427 . S
C1250 H1241 0.930 . S
C1250 C1248 1.378 . S
C1250 C1251 1.367 . S
C1251 C1250 1.367 . S
C1251 C1253 1.433 . S
C1252 C1248 1.350 . S
C1252 C1249 1.463 . S
C1252 N1256 1.427 . S
C1253 H1243 0.929 1_565 S
C1253 C1251 1.433 . S
C1253 N1256 1.384 . S
C1254 H1245 0.929 . S
C1254 C1246 1.378 . S
C1254 C1249 1.350 . S
C1255 H1242 0.929 . S
C1255 C1247 1.433 . S
C1255 N1257 1.384 . S
N1256 C1252 1.427 . S
N1256 C1253 1.384 . S
N1257 C1249 1.427 . S
N1257 C1255 1.384 . S
H1258 C1264 0.930 . S
H1259 C1268 0.930 . S
H1260 C1273 0.929 . S
H1261 C1271 0.929 . S
H1262 C1266 0.929 . S
H1263 C1272 0.929 . S
C1264 H1258 0.930 . S
C1264 C1265 1.367 1_556 S
C1264 C1272 1.378 . S
C1265 C1264 1.367 1_554 S
C1265 C1273 1.433 . S
C1266 H1262 0.929 . S
C1266 C1268 1.378 . S
C1266 C1270 1.350 . S
C1267 C1270 1.463 . S
C1267 C1272 1.350 1_554 S
C1267 N1275 1.427 . S
C1268 H1259 0.930 . S
C1268 C1266 1.378 . S
C1268 C1269 1.367 . S
C1269 C1268 1.367 . S
C1269 C1271 1.433 1_554 S
C1270 C1266 1.350 . S
C1270 C1267 1.463 . S
C1270 N1274 1.427 1_554 S
C1271 H1261 0.929 . S
C1271 C1269 1.433 1_556 S
C1271 N1274 1.384 . S
C1272 H1263 0.929 . S
C1272 C1264 1.378 . S
C1272 C1267 1.350 1_556 S
C1273 H1260 0.929 . S
C1273 C1265 1.433 . S
C1273 N1275 1.384 . S
N1274 C1270 1.427 1_556 S
N1274 C1271 1.384 . S
N1275 C1267 1.427 . S
N1275 C1273 1.384 . S
H1276 C1282 0.930 . S
H1277 C1286 0.930 . S
H1278 C1291 0.929 . S
H1279 C1289 0.929 . S
H1280 C1284 0.929 . S
H1281 C1290 0.929 . S
C1282 H1276 0.930 . S
C1282 C1283 1.367 . S
C1282 C1290 1.378 . S
C1283 C1282 1.367 . S
C1283 C1291 1.433 . S
C1284 H1280 0.929 . S
C1284 C1286 1.378 . S
C1284 C1288 1.350 . S
C1285 C1288 1.463 . S
C1285 C1290 1.350 . S
C1285 N1293 1.427 . S
C1286 H1277 0.930 . S
C1286 C1284 1.378 . S
C1286 C1287 1.367 . S
C1287 C1286 1.367 . S
C1287 C1289 1.433 . S
C1288 C1284 1.350 . S
C1288 C1285 1.463 . S
C1288 N1292 1.427 . S
C1289 H1279 0.929 . S
C1289 C1287 1.433 . S
C1289 N1292 1.384 . S
C1290 H1281 0.929 . S
C1290 C1282 1.378 . S
C1290 C1285 1.350 . S
C1291 H1278 0.929 . S
C1291 C1283 1.433 . S
C1291 N1293 1.384 . S
N1292 C1288 1.427 . S
N1292 C1289 1.384 . S
N1293 C1285 1.427 . S
N1293 C1291 1.384 . S
H1294 C1300 0.930 . S
H1295 C1304 0.930 . S
H1296 C1309 0.929 . S
H1297 C1307 0.929 . S
H1298 C1302 0.929 . S
H1299 C1308 0.929 . S
C1300 H1294 0.930 . S
C1300 C1301 1.367 . S
C1300 C1308 1.378 . S
C1301 C1300 1.367 . S
C1301 C1309 1.433 . S
C1302 H1298 0.929 . S
C1302 C1304 1.378 . S
C1302 C1306 1.350 . S
C1303 C1306 1.463 . S
C1303 C1308 1.350 . S
C1303 N1311 1.427 . S
C1304 H1295 0.930 . S
C1304 C1302 1.378 . S
C1304 C1305 1.367 . S
C1305 C1304 1.367 . S
C1305 C1307 1.433 . S
C1306 C1302 1.350 . S
C1306 C1303 1.463 . S
C1306 N1310 1.427 . S
C1307 H1297 0.929 . S
C1307 C1305 1.433 . S
C1307 N1310 1.384 . S
C1308 H1299 0.929 . S
C1308 C1300 1.378 . S
C1308 C1303 1.350 . S
C1309 H1296 0.929 . S
C1309 C1301 1.433 . S
C1309 N1311 1.384 . S
N1310 C1306 1.427 . S
N1310 C1307 1.384 . S
N1311 C1303 1.427 . S
N1311 C1309 1.384 . S
H1312 C1318 0.930 . S
H1313 C1322 0.930 . S
H1314 C1327 0.929 . S
H1315 C1325 0.929 . S
H1316 C1320 0.929 . S
H1317 C1326 0.929 . S
C1318 H1312 0.930 . S
C1318 C1319 1.367 . S
C1318 C1326 1.378 . S
C1319 C1318 1.367 . S
C1319 C1327 1.433 . S
C1320 H1316 0.929 . S
C1320 C1322 1.378 . S
C1320 C1324 1.350 . S
C1321 C1324 1.463 . S
C1321 C1326 1.350 . S
C1321 N1329 1.427 . S
C1322 H1313 0.930 . S
C1322 C1320 1.378 . S
C1322 C1323 1.367 . S
C1323 C1322 1.367 . S
C1323 C1325 1.433 . S
C1324 C1320 1.350 . S
C1324 C1321 1.463 . S
C1324 N1328 1.427 . S
C1325 H1315 0.929 . S
C1325 C1323 1.433 . S
C1325 N1328 1.384 . S
C1326 H1317 0.929 . S
C1326 C1318 1.378 . S
C1326 C1321 1.350 . S
C1327 H1314 0.929 . S
C1327 C1319 1.433 . S
C1327 N1329 1.384 . S
N1328 C1324 1.427 . S
N1328 C1325 1.384 . S
N1329 C1321 1.427 . S
N1329 C1327 1.384 . S
H1330 C1336 0.930 . S
H1331 C1340 0.930 . S
H1332 C1345 0.929 . S
H1333 C1343 0.929 . S
H1334 C1338 0.929 . S
H1335 C1344 0.929 . S
C1336 H1330 0.930 . S
C1336 C1337 1.367 . S
C1336 C1344 1.378 . S
C1337 C1336 1.367 . S
C1337 C1345 1.433 . S
C1338 H1334 0.929 . S
C1338 C1340 1.378 . S
C1338 C1342 1.350 . S
C1339 C1342 1.463 . S
C1339 C1344 1.350 . S
C1339 N1347 1.427 . S
C1340 H1331 0.930 . S
C1340 C1338 1.378 . S
C1340 C1341 1.367 . S
C1341 C1340 1.367 . S
C1341 C1343 1.433 . S
C1342 C1338 1.350 . S
C1342 C1339 1.463 . S
C1342 N1346 1.427 . S
C1343 H1333 0.929 . S
C1343 C1341 1.433 . S
C1343 N1346 1.384 . S
C1344 H1335 0.929 . S
C1344 C1336 1.378 . S
C1344 C1339 1.350 . S
C1345 H1332 0.929 . S
C1345 C1337 1.433 . S
C1345 N1347 1.384 . S
N1346 C1342 1.427 . S
N1346 C1343 1.384 . S
N1347 C1339 1.427 . S
N1347 C1345 1.384 . S
H1348 C1354 0.930 . S
H1349 C1358 0.930 . S
H1350 C1363 0.929 . S
H1351 C1361 0.929 . S
H1352 C1356 0.929 . S
H1353 C1362 0.929 . S
C1354 H1348 0.930 . S
C1354 C1355 1.367 . S
C1354 C1362 1.378 . S
C1355 C1354 1.367 . S
C1355 C1363 1.433 . S
C1356 H1352 0.929 . S
C1356 C1358 1.378 . S
C1356 C1360 1.350 . S
C1357 C1360 1.463 . S
C1357 C1362 1.350 . S
C1357 N1365 1.427 . S
C1358 H1349 0.930 . S
C1358 C1356 1.378 . S
C1358 C1359 1.367 . S
C1359 C1358 1.367 . S
C1359 C1361 1.433 . S
C1360 C1356 1.350 . S
C1360 C1357 1.463 . S
C1360 N1364 1.427 . S
C1361 H1351 0.929 . S
C1361 C1359 1.433 . S
C1361 N1364 1.384 . S
C1362 H1353 0.929 . S
C1362 C1354 1.378 . S
C1362 C1357 1.350 . S
C1363 H1350 0.929 . S
C1363 C1355 1.433 . S
C1363 N1365 1.384 . S
N1364 C1360 1.427 . S
N1364 C1361 1.384 . S
N1365 C1357 1.427 . S
N1365 C1363 1.384 . S
H1366 C1372 0.930 . S
H1367 C1376 0.930 . S
H1368 C1381 0.929 . S
H1369 C1379 0.929 . S
H1370 C1374 0.929 . S
H1371 C1380 0.929 . S
C1372 H1366 0.930 . S
C1372 C1373 1.367 . S
C1372 C1380 1.378 . S
C1373 C1372 1.367 . S
C1373 C1381 1.433 . S
C1374 H1370 0.929 . S
C1374 C1376 1.378 . S
C1374 C1378 1.350 . S
C1375 C1378 1.463 . S
C1375 C1380 1.350 . S
C1375 N1383 1.427 . S
C1376 H1367 0.930 . S
C1376 C1374 1.378 . S
C1376 C1377 1.367 . S
C1377 C1376 1.367 . S
C1377 C1379 1.433 . S
C1378 C1374 1.350 . S
C1378 C1375 1.463 . S
C1378 N1382 1.427 . S
C1379 H1369 0.929 . S
C1379 C1377 1.433 . S
C1379 N1382 1.384 . S
C1380 H1371 0.929 . S
C1380 C1372 1.378 . S
C1380 C1375 1.350 . S
C1381 H1368 0.929 . S
C1381 C1373 1.433 . S
C1381 N1383 1.384 . S
N1382 C1378 1.427 . S
N1382 C1379 1.384 . S
N1383 C1375 1.427 . S
N1383 C1381 1.384 . S
H1384 C1390 0.930 . S
H1385 C1394 0.946 . S
H1386 C1399 0.929 . S
H1387 C1397 0.929 . S
H1388 C1392 0.929 . S
H1389 C1398 0.929 . S
C1390 H1384 0.930 . S
C1390 C1391 1.367 . S
C1390 C1398 1.378 . S
C1391 C1390 1.367 . S
C1391 C1399 1.433 . S
C1392 H1388 0.929 . S
C1392 C1394 1.378 . S
C1392 C1396 1.350 . S
C1393 C1396 1.463 . S
C1393 C1398 1.350 . S
C1393 N1401 1.427 . S
C1394 H1385 0.946 . S
C1394 C1392 1.378 . S
C1394 C1395 1.367 . S
C1395 C1394 1.367 . S
C1395 C1397 1.433 . S
C1396 C1392 1.350 . S
C1396 C1393 1.463 . S
C1396 N1400 1.427 . S
C1397 H1387 0.929 . S
C1397 C1395 1.433 . S
C1397 N1400 1.384 . S
C1398 H1389 0.929 . S
C1398 C1390 1.378 . S
C1398 C1393 1.350 . S
C1399 H1386 0.929 . S
C1399 C1391 1.433 . S
C1399 N1401 1.384 . S
N1400 C1396 1.427 . S
N1400 C1397 1.384 . S
N1401 C1393 1.427 . S
N1401 C1399 1.384 . S
H1402 C1408 0.930 . S
H1403 C1412 0.930 . S
H1404 C1417 0.929 . S
H1405 C1415 0.929 . S
H1406 C1410 0.929 . S
H1407 C1416 0.929 . S
C1408 H1402 0.930 . S
C1408 C1409 1.367 . S
C1408 C1416 1.378 . S
C1409 C1408 1.367 . S
C1409 C1417 1.433 . S
C1410 H1406 0.929 . S
C1410 C1412 1.378 . S
C1410 C1414 1.350 . S
C1411 C1414 1.463 . S
C1411 C1416 1.350 . S
C1411 N1419 1.427 . S
C1412 H1403 0.930 . S
C1412 C1410 1.378 . S
C1412 C1413 1.367 . S
C1413 C1412 1.367 . S
C1413 C1415 1.433 . S
C1414 C1410 1.350 . S
C1414 C1411 1.463 . S
C1414 N1418 1.427 . S
C1415 H1405 0.929 . S
C1415 C1413 1.433 . S
C1415 N1418 1.384 . S
C1416 H1407 0.929 . S
C1416 C1408 1.378 . S
C1416 C1411 1.350 . S
C1417 H1404 0.929 . S
C1417 C1409 1.433 . S
C1417 N1419 1.384 . S
N1418 C1414 1.427 . S
N1418 C1415 1.384 . S
N1419 C1411 1.427 . S
N1419 C1417 1.384 . S
H1420 C1426 0.930 . S
H1421 C1430 0.930 . S
H1422 C1435 0.929 . S
H1423 C1433 0.929 . S
H1424 C1428 0.929 . S
H1425 C1434 0.929 . S
C1426 H1420 0.930 . S
C1426 C1427 1.367 . S
C1426 C1434 1.378 . S
C1427 C1426 1.367 . S
C1427 C1435 1.433 . S
C1428 H1424 0.929 . S
C1428 C1430 1.378 . S
C1428 C1432 1.350 . S
C1429 C1432 1.463 . S
C1429 C1434 1.350 . S
C1429 N1437 1.427 . S
C1430 H1421 0.930 . S
C1430 C1428 1.378 . S
C1430 C1431 1.367 . S
C1431 C1430 1.367 . S
C1431 C1433 1.433 . S
C1432 C1428 1.350 . S
C1432 C1429 1.463 . S
C1432 N1436 1.427 . S
C1433 H1423 0.929 . S
C1433 C1431 1.433 . S
C1433 N1436 1.384 . S
C1434 H1425 0.929 . S
C1434 C1426 1.378 . S
C1434 C1429 1.350 . S
C1435 H1422 0.929 . S
C1435 C1427 1.433 . S
C1435 N1437 1.384 . S
N1436 C1432 1.427 . S
N1436 C1433 1.384 . S
N1437 C1429 1.427 . S
N1437 C1435 1.384 . S
H1438 C1444 0.930 . S
H1439 C1448 0.930 . S
H1440 C1453 0.929 . S
H1441 C1451 0.929 . S
H1442 C1446 0.929 . S
H1443 C1452 0.929 . S
C1444 H1438 0.930 . S
C1444 C1445 1.367 . S
C1444 C1452 1.378 . S
C1445 C1444 1.367 . S
C1445 C1453 1.433 . S
C1446 H1442 0.929 . S
C1446 C1448 1.378 . S
C1446 C1450 1.350 . S
C1447 C1450 1.463 . S
C1447 C1452 1.350 . S
C1447 N1455 1.427 . S
C1448 H1439 0.930 . S
C1448 C1446 1.378 . S
C1448 C1449 1.367 . S
C1449 C1448 1.367 . S
C1449 C1451 1.433 . S
C1450 C1446 1.350 . S
C1450 C1447 1.463 . S
C1450 N1454 1.427 . S
C1451 H1441 0.929 . S
C1451 C1449 1.433 . S
C1451 N1454 1.384 . S
C1452 H1443 0.929 . S
C1452 C1444 1.378 . S
C1452 C1447 1.350 . S
C1453 H1440 0.929 . S
C1453 C1445 1.433 . S
C1453 N1455 1.384 . S
N1454 C1450 1.427 . S
N1454 C1451 1.384 . S
N1455 C1447 1.427 . S
N1455 C1453 1.384 . S
H1456 C1462 0.930 . S
H1457 C1466 0.930 . S
H1458 C1471 0.929 . S
H1459 C1469 0.929 . S
H1460 C1464 0.929 . S
H1461 C1470 0.929 . S
C1462 H1456 0.930 . S
C1462 C1463 1.367 . S
C1462 C1470 1.378 . S
C1463 C1462 1.367 . S
C1463 C1471 1.433 . S
C1464 H1460 0.929 . S
C1464 C1466 1.378 . S
C1464 C1468 1.350 . S
C1465 C1468 1.463 . S
C1465 C1470 1.350 . S
C1465 N1473 1.427 . S
C1466 H1457 0.930 . S
C1466 C1464 1.378 . S
C1466 C1467 1.367 . S
C1467 C1466 1.367 . S
C1467 C1469 1.433 . S
C1468 C1464 1.350 . S
C1468 C1465 1.463 . S
C1468 N1472 1.427 . S
C1469 H1459 0.929 . S
C1469 C1467 1.433 . S
C1469 N1472 1.384 . S
C1470 H1461 0.929 . S
C1470 C1462 1.378 . S
C1470 C1465 1.350 . S
C1471 H1458 0.929 . S
C1471 C1463 1.433 . S
C1471 N1473 1.384 . S
N1472 C1468 1.427 . S
N1472 C1469 1.384 . S
N1473 C1465 1.427 . S
N1473 C1471 1.384 . S
H1474 C1480 0.930 . S
H1475 C1484 0.930 . S
H1476 C1489 0.929 . S
H1477 C1487 0.929 . S
H1478 C1482 0.929 . S
H1479 C1488 0.929 . S
C1480 H1474 0.930 . S
C1480 C1481 1.367 . S
C1480 C1488 1.378 . S
C1481 C1480 1.367 . S
C1481 C1489 1.433 . S
C1482 H1478 0.929 . S
C1482 C1484 1.378 . S
C1482 C1486 1.350 . S
C1483 C1486 1.463 . S
C1483 C1488 1.350 . S
C1483 N1491 1.427 . S
C1484 H1475 0.930 . S
C1484 C1482 1.378 . S
C1484 C1485 1.367 . S
C1485 C1484 1.367 . S
C1485 C1487 1.433 . S
C1486 C1482 1.350 . S
C1486 C1483 1.463 . S
C1486 N1490 1.427 . S
C1487 H1477 0.929 . S
C1487 C1485 1.433 . S
C1487 N1490 1.384 . S
C1488 H1479 0.929 . S
C1488 C1480 1.378 . S
C1488 C1483 1.350 . S
C1489 H1476 0.929 . S
C1489 C1481 1.433 . S
C1489 N1491 1.384 . S
N1490 C1486 1.427 . S
N1490 C1487 1.384 . S
N1491 C1483 1.427 . S
N1491 C1489 1.384 . S
H1492 C1498 0.930 . S
H1493 C1502 0.943 . S
H1494 C1507 0.929 . S
H1495 C1505 0.929 . S
H1496 C1500 0.929 . S
H1497 C1506 0.929 . S
C1498 H1492 0.930 . S
C1498 C1499 1.367 . S
C1498 C1506 1.378 . S
C1499 C1498 1.367 . S
C1499 C1507 1.433 . S
C1500 H1496 0.929 . S
C1500 C1502 1.378 . S
C1500 C1504 1.350 . S
C1501 C1504 1.463 . S
C1501 C1506 1.350 . S
C1501 N1509 1.427 . S
C1502 H1493 0.943 . S
C1502 C1500 1.378 . S
C1502 C1503 1.367 . S
C1503 C1502 1.367 . S
C1503 C1505 1.433 . S
C1504 C1500 1.350 . S
C1504 C1501 1.463 . S
C1504 N1508 1.427 . S
C1505 H1495 0.929 . S
C1505 C1503 1.433 . S
C1505 N1508 1.384 . S
C1506 H1497 0.929 . S
C1506 C1498 1.378 . S
C1506 C1501 1.350 . S
C1507 H1494 0.929 . S
C1507 C1499 1.433 . S
C1507 N1509 1.384 . S
N1508 C1504 1.427 . S
N1508 C1505 1.384 . S
N1509 C1501 1.427 . S
N1509 C1507 1.384 . S
H1510 C1516 0.930 . S
H1511 C1520 0.930 . S
H1512 C1525 0.929 . S
H1513 C1523 0.929 . S
H1514 C1518 0.929 . S
H1515 C1524 0.929 . S
C1516 H1510 0.930 . S
C1516 C1517 1.367 . S
C1516 C1524 1.378 . S
C1517 C1516 1.367 . S
C1517 C1525 1.433 . S
C1518 H1514 0.929 . S
C1518 C1520 1.378 . S
C1518 C1522 1.350 . S
C1519 C1522 1.463 . S
C1519 C1524 1.350 . S
C1519 N1527 1.427 . S
C1520 H1511 0.930 . S
C1520 C1518 1.378 . S
C1520 C1521 1.367 . S
C1521 C1520 1.367 . S
C1521 C1523 1.433 . S
C1522 C1518 1.350 . S
C1522 C1519 1.463 . S
C1522 N1526 1.427 . S
C1523 H1513 0.929 . S
C1523 C1521 1.433 . S
C1523 N1526 1.384 . S
C1524 H1515 0.929 . S
C1524 C1516 1.378 . S
C1524 C1519 1.350 . S
C1525 H1512 0.929 . S
C1525 C1517 1.433 . S
C1525 N1527 1.384 . S
N1526 C1522 1.427 . S
N1526 C1523 1.384 . S
N1527 C1519 1.427 . S
N1527 C1525 1.384 . S
H1528 C1534 0.930 . S
H1529 C1538 0.930 . S
H1530 C1543 0.929 . S
H1531 C1541 0.929 . S
H1532 C1536 0.929 . S
H1533 C1542 0.929 . S
C1534 H1528 0.930 . S
C1534 C1535 1.367 . S
C1534 C1542 1.378 . S
C1535 C1534 1.367 . S
C1535 C1543 1.433 . S
C1536 H1532 0.929 . S
C1536 C1538 1.378 . S
C1536 C1540 1.350 . S
C1537 C1540 1.463 . S
C1537 C1542 1.350 . S
C1537 N1545 1.427 . S
C1538 H1529 0.930 . S
C1538 C1536 1.378 . S
C1538 C1539 1.367 . S
C1539 C1538 1.367 . S
C1539 C1541 1.433 . S
C1540 C1536 1.350 . S
C1540 C1537 1.463 . S
C1540 N1544 1.427 . S
C1541 H1531 0.929 . S
C1541 C1539 1.433 . S
C1541 N1544 1.384 . S
C1542 H1533 0.929 . S
C1542 C1534 1.378 . S
C1542 C1537 1.350 . S
C1543 H1530 0.929 . S
C1543 C1535 1.433 . S
C1543 N1545 1.384 . S
N1544 C1540 1.427 . S
N1544 C1541 1.384 . S
N1545 C1537 1.427 . S
N1545 C1543 1.384 . S
H1546 C1552 0.930 . S
H1547 C1556 0.930 . S
H1548 C1561 0.929 . S
H1549 C1559 0.929 . S
H1550 C1554 0.929 . S
H1551 C1560 0.929 . S
C1552 H1546 0.930 . S
C1552 C1553 1.367 . S
C1552 C1560 1.378 . S
C1553 C1552 1.367 . S
C1553 C1561 1.433 . S
C1554 H1550 0.929 . S
C1554 C1556 1.378 . S
C1554 C1558 1.350 . S
C1555 C1558 1.463 . S
C1555 C1560 1.350 . S
C1555 N1563 1.427 . S
C1556 H1547 0.930 . S
C1556 C1554 1.378 . S
C1556 C1557 1.367 . S
C1557 C1556 1.367 . S
C1557 C1559 1.433 . S
C1558 C1554 1.350 . S
C1558 C1555 1.463 . S
C1558 N1562 1.427 . S
C1559 H1549 0.929 . S
C1559 C1557 1.433 . S
C1559 N1562 1.384 . S
C1560 H1551 0.929 . S
C1560 C1552 1.378 . S
C1560 C1555 1.350 . S
C1561 H1548 0.929 . S
C1561 C1553 1.433 . S
C1561 N1563 1.384 . S
N1562 C1558 1.427 . S
N1562 C1559 1.384 . S
N1563 C1555 1.427 . S
N1563 C1561 1.384 . S
H1564 C1570 0.930 . S
H1565 C1574 0.930 . S
H1566 C1579 0.929 . S
H1567 C1577 0.929 . S
H1568 C1572 0.929 . S
H1569 C1578 0.929 . S
C1570 H1564 0.930 . S
C1570 C1571 1.367 . S
C1570 C1578 1.378 . S
C1571 C1570 1.367 . S
C1571 C1579 1.433 . S
C1572 H1568 0.929 . S
C1572 C1574 1.378 . S
C1572 C1576 1.350 . S
C1573 C1576 1.463 . S
C1573 C1578 1.350 . S
C1573 N1581 1.427 . S
C1574 H1565 0.930 . S
C1574 C1572 1.378 . S
C1574 C1575 1.367 . S
C1575 C1574 1.367 . S
C1575 C1577 1.433 . S
C1576 C1572 1.350 . S
C1576 C1573 1.463 . S
C1576 N1580 1.427 . S
C1577 H1567 0.929 . S
C1577 C1575 1.433 . S
C1577 N1580 1.384 . S
C1578 H1569 0.929 . S
C1578 C1570 1.378 . S
C1578 C1573 1.350 . S
C1579 H1566 0.929 . S
C1579 C1571 1.433 . S
C1579 N1581 1.384 . S
N1580 C1576 1.427 . S
N1580 C1577 1.384 . S
N1581 C1573 1.427 . S
N1581 C1579 1.384 . S
H1582 C1588 0.930 . S
H1583 C1592 0.930 . S
H1584 C1597 0.929 . S
H1585 C1595 0.929 . S
H1586 C1590 0.929 . S
H1587 C1596 0.929 . S
C1588 H1582 0.930 . S
C1588 C1589 1.367 . S
C1588 C1596 1.378 . S
C1589 C1588 1.367 . S
C1589 C1597 1.433 . S
C1590 H1586 0.929 . S
C1590 C1592 1.378 . S
C1590 C1594 1.350 . S
C1591 C1594 1.463 . S
C1591 C1596 1.350 . S
C1591 N1599 1.427 . S
C1592 H1583 0.930 . S
C1592 C1590 1.378 . S
C1592 C1593 1.367 . S
C1593 C1592 1.367 . S
C1593 C1595 1.433 . S
C1594 C1590 1.350 . S
C1594 C1591 1.463 . S
C1594 N1598 1.427 . S
C1595 H1585 0.929 . S
C1595 C1593 1.433 . S
C1595 N1598 1.384 . S
C1596 H1587 0.929 . S
C1596 C1588 1.378 . S
C1596 C1591 1.350 . S
C1597 H1584 0.929 . S
C1597 C1589 1.433 . S
C1597 N1599 1.384 . S
N1598 C1594 1.427 . S
N1598 C1595 1.384 . S
N1599 C1591 1.427 . S
N1599 C1597 1.384 . S
H1600 C1606 0.930 . S
H1601 C1610 0.930 . S
H1602 C1615 0.929 . S
H1603 C1613 0.929 . S
H1604 C1608 0.929 . S
H1605 C1614 0.929 . S
C1606 H1600 0.930 . S
C1606 C1607 1.367 . S
C1606 C1614 1.378 . S
C1607 C1606 1.367 . S
C1607 C1615 1.433 . S
C1608 H1604 0.929 . S
C1608 C1610 1.378 . S
C1608 C1612 1.350 . S
C1609 C1612 1.463 . S
C1609 C1614 1.350 . S
C1609 N1617 1.427 . S
C1610 H1601 0.930 . S
C1610 C1608 1.378 . S
C1610 C1611 1.367 . S
C1611 C1610 1.367 . S
C1611 C1613 1.433 . S
C1612 C1608 1.350 . S
C1612 C1609 1.463 . S
C1612 N1616 1.427 . S
C1613 H1603 0.929 . S
C1613 C1611 1.433 . S
C1613 N1616 1.384 . S
C1614 H1605 0.929 . S
C1614 C1606 1.378 . S
C1614 C1609 1.350 . S
C1615 H1602 0.929 . S
C1615 C1607 1.433 . S
C1615 N1617 1.384 . S
N1616 C1612 1.427 . S
N1616 C1613 1.384 . S
N1617 C1609 1.427 . S
N1617 C1615 1.384 . S
H1618 C1624 0.930 . S
H1619 C1628 0.930 . S
H1620 C1633 0.929 . S
H1621 C1631 0.929 . S
H1622 C1626 0.929 . S
H1623 C1632 0.929 . S
C1624 H1618 0.930 . S
C1624 C1625 1.367 . S
C1624 C1632 1.378 . S
C1625 C1624 1.367 . S
C1625 C1633 1.433 . S
C1626 H1622 0.929 . S
C1626 C1628 1.378 . S
C1626 C1630 1.350 . S
C1627 C1630 1.463 . S
C1627 C1632 1.350 . S
C1627 N1635 1.427 . S
C1628 H1619 0.930 . S
C1628 C1626 1.378 . S
C1628 C1629 1.367 . S
C1629 C1628 1.367 . S
C1629 C1631 1.433 . S
C1630 C1626 1.350 . S
C1630 C1627 1.463 . S
C1630 N1634 1.427 . S
C1631 H1621 0.929 . S
C1631 C1629 1.433 . S
C1631 N1634 1.384 . S
C1632 H1623 0.929 . S
C1632 C1624 1.378 . S
C1632 C1627 1.350 . S
C1633 H1620 0.929 . S
C1633 C1625 1.433 . S
C1633 N1635 1.384 . S
N1634 C1630 1.427 . S
N1634 C1631 1.384 . S
N1635 C1627 1.427 . S
N1635 C1633 1.384 . S
H1636 C1642 0.930 . S
H1637 C1646 0.961 . S
H1638 C1651 0.929 . S
H1639 C1649 0.929 . S
H1640 C1644 0.929 . S
H1641 C1650 0.929 . S
C1642 H1636 0.930 . S
C1642 C1643 1.367 . S
C1642 C1650 1.378 . S
C1643 C1642 1.367 . S
C1643 C1651 1.433 . S
C1644 H1640 0.929 . S
C1644 C1646 1.362 1_545 S
C1644 C1648 1.350 . S
C1645 C1648 1.463 . S
C1645 C1650 1.350 . S
C1645 N1653 1.427 . S
C1646 H1637 0.961 . S
C1646 C1644 1.362 1_565 S
C1646 C1647 1.352 1_565 S
C1647 C1646 1.352 1_545 S
C1647 C1649 1.433 . S
C1648 C1644 1.350 . S
C1648 C1645 1.463 . S
C1648 N1652 1.427 . S
C1649 H1639 0.929 . S
C1649 C1647 1.433 . S
C1649 N1652 1.384 . S
C1650 H1641 0.929 . S
C1650 C1642 1.378 . S
C1650 C1645 1.350 . S
C1651 H1638 0.929 . S
C1651 C1643 1.433 . S
C1651 N1653 1.384 . S
N1652 C1648 1.427 . S
N1652 C1649 1.384 . S
N1653 C1645 1.427 . S
N1653 C1651 1.384 . S
H1654 C1660 0.930 . S
H1655 C1664 0.930 . S
H1656 C1669 0.929 . S
H1657 C1667 0.929 . S
H1658 C1662 0.929 . S
H1659 C1668 0.929 . S
C1660 H1654 0.930 . S
C1660 C1661 1.367 . S
C1660 C1668 1.378 . S
C1661 C1660 1.367 . S
C1661 C1669 1.433 . S
C1662 H1658 0.929 . S
C1662 C1664 1.378 . S
C1662 C1666 1.350 . S
C1663 C1666 1.463 . S
C1663 C1668 1.350 . S
C1663 N1671 1.427 . S
C1664 H1655 0.930 . S
C1664 C1662 1.378 . S
C1664 C1665 1.367 . S
C1665 C1664 1.367 . S
C1665 C1667 1.433 . S
C1666 C1662 1.350 . S
C1666 C1663 1.463 . S
C1666 N1670 1.427 . S
C1667 H1657 0.929 . S
C1667 C1665 1.433 . S
C1667 N1670 1.384 . S
C1668 H1659 0.929 . S
C1668 C1660 1.378 . S
C1668 C1663 1.350 . S
C1669 H1656 0.929 . S
C1669 C1661 1.433 . S
C1669 N1671 1.384 . S
N1670 C1666 1.427 . S
N1670 C1667 1.384 . S
N1671 C1663 1.427 . S
N1671 C1669 1.384 . S
H1672 C1678 0.930 . S
H1673 C1682 0.930 . S
H1674 C1687 0.929 . S
H1675 C1685 0.929 . S
H1676 C1680 0.929 . S
H1677 C1686 0.929 . S
C1678 H1672 0.930 . S
C1678 C1679 1.367 . S
C1678 C1686 1.378 . S
C1679 C1678 1.367 . S
C1679 C1687 1.433 1_554 S
C1680 H1676 0.929 . S
C1680 C1682 1.378 . S
C1680 C1684 1.350 . S
C1681 C1684 1.456 1_554 S
C1681 C1686 1.368 . S
C1681 N1689 1.415 1_554 S
C1682 H1673 0.930 . S
C1682 C1680 1.378 . S
C1682 C1683 1.367 . S
C1683 C1682 1.367 . S
C1683 C1685 1.433 1_556 S
C1684 C1680 1.350 . S
C1684 C1681 1.456 1_556 S
C1684 N1688 1.427 1_556 S
C1685 H1675 0.929 . S
C1685 C1683 1.433 1_554 S
C1685 N1688 1.384 . S
C1686 H1677 0.929 . S
C1686 C1678 1.378 . S
C1686 C1681 1.368 . S
C1687 H1674 0.929 . S
C1687 C1679 1.433 1_556 S
C1687 N1689 1.384 . S
N1688 C1684 1.427 1_554 S
N1688 C1685 1.384 . S
N1689 C1681 1.415 1_556 S
N1689 C1687 1.384 . S
H1690 C1696 0.930 . S
H1691 C1700 0.930 1_556 S
H1692 C1705 0.929 . S
H1693 C1703 0.929 . S
H1694 C1698 0.930 1_556 S
H1695 C1704 0.929 . S
C1696 H1690 0.930 . S
C1696 C1697 1.367 . S
C1696 C1704 1.378 . S
C1697 C1696 1.367 . S
C1697 C1705 1.433 . S
C1698 H1694 0.930 1_554 S
C1698 C1700 1.378 . S
C1698 C1702 1.350 . S
C1699 C1702 1.463 . S
C1699 C1704 1.350 . S
C1699 N1707 1.427 . S
C1700 H1691 0.930 1_554 S
C1700 C1698 1.378 . S
C1700 C1701 1.367 . S
C1701 C1700 1.367 . S
C1701 C1703 1.433 . S
C1702 C1698 1.350 . S
C1702 C1699 1.463 . S
C1702 N1706 1.427 . S
C1703 H1693 0.929 . S
C1703 C1701 1.433 . S
C1703 N1706 1.384 . S
C1704 H1695 0.929 . S
C1704 C1696 1.378 . S
C1704 C1699 1.350 . S
C1705 H1692 0.929 . S
C1705 C1697 1.433 . S
C1705 N1707 1.384 . S
N1706 C1702 1.427 . S
N1706 C1703 1.384 . S
N1707 C1699 1.427 . S
N1707 C1705 1.384 . S
H1708 C1714 0.930 . S
H1709 C1718 0.930 . S
H1710 C1723 0.929 . S
H1711 C1721 0.929 . S
H1712 C1716 0.929 . S
H1713 C1722 0.929 . S
C1714 H1708 0.930 . S
C1714 C1715 1.367 . S
C1714 C1722 1.378 . S
C1715 C1714 1.367 . S
C1715 C1723 1.433 . S
C1716 H1712 0.929 . S
C1716 C1718 1.378 . S
C1716 C1720 1.350 . S
C1717 C1720 1.463 . S
C1717 C1722 1.350 . S
C1717 N1725 1.427 . S
C1718 H1709 0.930 . S
C1718 C1716 1.378 . S
C1718 C1719 1.367 . S
C1719 C1718 1.367 . S
C1719 C1721 1.433 . S
C1720 C1716 1.350 . S
C1720 C1717 1.463 . S
C1720 N1724 1.427 . S
C1721 H1711 0.929 . S
C1721 C1719 1.433 . S
C1721 N1724 1.384 . S
C1722 H1713 0.929 . S
C1722 C1714 1.378 . S
C1722 C1717 1.350 . S
C1723 H1710 0.929 . S
C1723 C1715 1.433 . S
C1723 N1725 1.384 . S
N1724 C1720 1.427 . S
N1724 C1721 1.384 . S
N1725 C1717 1.427 . S
N1725 C1723 1.384 . S
H1726 C1732 0.930 . S
H1727 C1736 0.930 . S
H1728 C1741 0.929 . S
H1729 C1739 0.929 . S
H1730 C1734 0.929 . S
H1731 C1740 0.929 . S
C1732 H1726 0.930 . S
C1732 C1733 1.367 . S
C1732 C1740 1.378 . S
C1733 C1732 1.367 . S
C1733 C1741 1.433 . S
C1734 H1730 0.929 . S
C1734 C1736 1.378 . S
C1734 C1738 1.350 . S
C1735 C1738 1.463 . S
C1735 C1740 1.350 . S
C1735 N1743 1.427 . S
C1736 H1727 0.930 . S
C1736 C1734 1.378 . S
C1736 C1737 1.367 . S
C1737 C1736 1.367 . S
C1737 C1739 1.433 . S
C1738 C1734 1.350 . S
C1738 C1735 1.463 . S
C1738 N1742 1.427 . S
C1739 H1729 0.929 . S
C1739 C1737 1.433 . S
C1739 N1742 1.384 . S
C1740 H1731 0.929 . S
C1740 C1732 1.378 . S
C1740 C1735 1.350 . S
C1741 H1728 0.929 . S
C1741 C1733 1.433 . S
C1741 N1743 1.384 . S
N1742 C1738 1.427 . S
N1742 C1739 1.384 . S
N1743 C1735 1.427 . S
N1743 C1741 1.384 . S
H1744 C1750 0.930 . S
H1745 C1754 0.930 . S
H1746 C1759 0.929 . S
H1747 C1757 0.929 . S
H1748 C1752 0.929 . S
H1749 C1758 0.929 . S
C1750 H1744 0.930 . S
C1750 C1751 1.367 . S
C1750 C1758 1.378 . S
C1751 C1750 1.367 . S
C1751 C1759 1.433 . S
C1752 H1748 0.929 . S
C1752 C1754 1.378 . S
C1752 C1756 1.350 . S
C1753 C1756 1.463 . S
C1753 C1758 1.350 . S
C1753 N1761 1.427 . S
C1754 H1745 0.930 . S
C1754 C1752 1.378 . S
C1754 C1755 1.367 . S
C1755 C1754 1.367 . S
C1755 C1757 1.433 . S
C1756 C1752 1.350 . S
C1756 C1753 1.463 . S
C1756 N1760 1.427 . S
C1757 H1747 0.929 . S
C1757 C1755 1.433 . S
C1757 N1760 1.384 . S
C1758 H1749 0.929 . S
C1758 C1750 1.378 . S
C1758 C1753 1.350 . S
C1759 H1746 0.929 . S
C1759 C1751 1.433 . S
C1759 N1761 1.384 . S
N1760 C1756 1.427 . S
N1760 C1757 1.384 . S
N1761 C1753 1.427 . S
N1761 C1759 1.384 . S
H1762 C1768 0.930 . S
H1763 C1772 0.930 . S
H1764 C1777 0.929 . S
H1765 C1775 0.929 1_545 S
H1766 C1770 0.929 . S
H1767 C1776 0.929 . S
C1768 H1762 0.930 . S
C1768 C1769 1.367 . S
C1768 C1776 1.378 . S
C1769 C1768 1.367 . S
C1769 C1777 1.433 . S
C1770 H1766 0.929 . S
C1770 C1772 1.378 . S
C1770 C1774 1.350 . S
C1771 C1774 1.463 . S
C1771 C1776 1.350 . S
C1771 N1779 1.427 . S
C1772 H1763 0.930 . S
C1772 C1770 1.378 . S
C1772 C1773 1.367 . S
C1773 C1772 1.367 . S
C1773 C1775 1.433 . S
C1774 C1770 1.350 . S
C1774 C1771 1.463 . S
C1774 N1778 1.427 . S
C1775 H1765 0.929 1_565 S
C1775 C1773 1.433 . S
C1775 N1778 1.384 . S
C1776 H1767 0.929 . S
C1776 C1768 1.378 . S
C1776 C1771 1.350 . S
C1777 H1764 0.929 . S
C1777 C1769 1.433 . S
C1777 N1779 1.384 . S
N1778 C1774 1.427 . S
N1778 C1775 1.384 . S
N1779 C1771 1.427 . S
N1779 C1777 1.384 . S
H1780 C1786 0.930 . S
H1781 C1790 0.930 . S
H1782 C1795 0.929 . S
H1783 C1793 0.929 . S
H1784 C1788 0.929 . S
H1785 C1794 0.929 . S
C1786 H1780 0.930 . S
C1786 C1787 1.367 . S
C1786 C1794 1.378 . S
C1787 C1786 1.367 . S
C1787 C1795 1.433 . S
C1788 H1784 0.929 . S
C1788 C1790 1.378 . S
C1788 C1792 1.350 . S
C1789 C1792 1.463 . S
C1789 C1794 1.350 . S
C1789 N1797 1.427 . S
C1790 H1781 0.930 . S
C1790 C1788 1.378 . S
C1790 C1791 1.367 . S
C1791 C1790 1.367 . S
C1791 C1793 1.433 . S
C1792 C1788 1.350 . S
C1792 C1789 1.463 . S
C1792 N1796 1.427 . S
C1793 H1783 0.929 . S
C1793 C1791 1.433 . S
C1793 N1796 1.384 . S
C1794 H1785 0.929 . S
C1794 C1786 1.378 . S
C1794 C1789 1.350 . S
C1795 H1782 0.929 . S
C1795 C1787 1.433 . S
C1795 N1797 1.384 . S
N1796 C1792 1.427 . S
N1796 C1793 1.384 . S
N1797 C1789 1.427 . S
N1797 C1795 1.384 . S
H1798 C1804 0.930 . S
H1799 C1808 0.930 . S
H1800 C1813 0.929 . S
H1801 C1811 0.929 . S
H1802 C1806 0.929 . S
H1803 C1812 0.929 . S
C1804 H1798 0.930 . S
C1804 C1805 1.367 . S
C1804 C1812 1.378 . S
C1805 C1804 1.367 . S
C1805 C1813 1.433 . S
C1806 H1802 0.929 . S
C1806 C1808 1.378 . S
C1806 C1810 1.350 . S
C1807 C1810 1.463 . S
C1807 C1812 1.350 . S
C1807 N1815 1.427 . S
C1808 H1799 0.930 . S
C1808 C1806 1.378 . S
C1808 C1809 1.367 . S
C1809 C1808 1.367 . S
C1809 C1811 1.433 . S
C1810 C1806 1.350 . S
C1810 C1807 1.463 . S
C1810 N1814 1.427 . S
C1811 H1801 0.929 . S
C1811 C1809 1.433 . S
C1811 N1814 1.384 . S
C1812 H1803 0.929 . S
C1812 C1804 1.378 . S
C1812 C1807 1.350 . S
C1813 H1800 0.929 . S
C1813 C1805 1.433 . S
C1813 N1815 1.384 . S
N1814 C1810 1.427 . S
N1814 C1811 1.384 . S
N1815 C1807 1.427 . S
N1815 C1813 1.384 . S
H1816 C1822 0.930 . S
H1817 C1826 0.930 . S
H1818 C1831 0.929 . S
H1819 C1829 0.929 . S
H1820 C1824 0.929 . S
H1821 C1830 0.929 . S
C1822 H1816 0.930 . S
C1822 C1823 1.367 . S
C1822 C1830 1.378 . S
C1823 C1822 1.367 . S
C1823 C1831 1.433 . S
C1824 H1820 0.929 . S
C1824 C1826 1.378 . S
C1824 C1828 1.350 . S
C1825 C1828 1.463 . S
C1825 C1830 1.350 . S
C1825 N1833 1.427 . S
C1826 H1817 0.930 . S
C1826 C1824 1.378 . S
C1826 C1827 1.367 . S
C1827 C1826 1.367 . S
C1827 C1829 1.433 . S
C1828 C1824 1.350 . S
C1828 C1825 1.463 . S
C1828 N1832 1.427 . S
C1829 H1819 0.929 . S
C1829 C1827 1.433 . S
C1829 N1832 1.384 . S
C1830 H1821 0.929 . S
C1830 C1822 1.378 . S
C1830 C1825 1.350 . S
C1831 H1818 0.929 . S
C1831 C1823 1.433 . S
C1831 N1833 1.384 . S
N1832 C1828 1.427 . S
N1832 C1829 1.384 . S
N1833 C1825 1.427 . S
N1833 C1831 1.384 . S
H1834 C1840 0.930 . S
H1835 C1844 0.930 . S
H1836 C1849 0.929 . S
H1837 C1847 0.929 . S
H1838 C1842 0.929 . S
H1839 C1848 0.929 . S
C1840 H1834 0.930 . S
C1840 C1841 1.367 . S
C1840 C1848 1.378 . S
C1841 C1840 1.367 . S
C1841 C1849 1.433 . S
C1842 H1838 0.929 . S
C1842 C1844 1.378 . S
C1842 C1846 1.350 . S
C1843 C1846 1.463 . S
C1843 C1848 1.350 . S
C1843 N1851 1.427 . S
C1844 H1835 0.930 . S
C1844 C1842 1.378 . S
C1844 C1845 1.367 . S
C1845 C1844 1.367 . S
C1845 C1847 1.433 . S
C1846 C1842 1.350 . S
C1846 C1843 1.463 . S
C1846 N1850 1.427 . S
C1847 H1837 0.929 . S
C1847 C1845 1.433 . S
C1847 N1850 1.384 . S
C1848 H1839 0.929 . S
C1848 C1840 1.378 . S
C1848 C1843 1.350 . S
C1849 H1836 0.929 . S
C1849 C1841 1.433 . S
C1849 N1851 1.384 . S
N1850 C1846 1.427 . S
N1850 C1847 1.384 . S
N1851 C1843 1.427 . S
N1851 C1849 1.384 . S
H1852 C1858 0.930 . S
H1853 C1862 0.930 . S
H1854 C1867 0.929 . S
H1855 C1865 0.962 . S
H1856 C1860 0.929 . S
H1857 C1866 0.929 . S
C1858 H1852 0.930 . S
C1858 C1859 1.328 1_655 S
C1858 C1866 1.378 . S
C1859 C1858 1.328 1_455 S
C1859 C1867 1.469 . S
C1860 H1856 0.929 . S
C1860 C1862 1.378 . S
C1860 C1864 1.350 . S
C1861 C1864 1.463 . S
C1861 C1866 1.350 1_455 S
C1861 N1869 1.427 . S
C1862 H1853 0.930 . S
C1862 C1860 1.378 . S
C1862 C1863 1.367 . S
C1863 C1862 1.367 . S
C1863 C1865 1.405 1_455 S
C1864 C1860 1.350 . S
C1864 C1861 1.463 . S
C1864 N1868 1.427 1_455 S
C1865 H1855 0.962 . S
C1865 C1863 1.405 1_655 S
C1865 N1868 1.379 . S
C1866 H1857 0.929 . S
C1866 C1858 1.378 . S
C1866 C1861 1.350 1_655 S
C1867 H1854 0.929 . S
C1867 C1859 1.469 . S
C1867 N1869 1.384 . S
N1868 C1864 1.427 1_655 S
N1868 C1865 1.379 . S
N1869 C1861 1.427 . S
N1869 C1867 1.384 . S
H1870 C1876 0.930 . S
H1871 C1880 0.930 . S
H1872 C1885 0.929 . S
H1873 C1883 0.929 . S
H1874 C1878 0.929 . S
H1875 C1884 0.929 . S
C1876 H1870 0.930 . S
C1876 C1877 1.367 . S
C1876 C1884 1.378 . S
C1877 C1876 1.367 . S
C1877 C1885 1.433 . S
C1878 H1874 0.929 . S
C1878 C1880 1.378 . S
C1878 C1882 1.350 . S
C1879 C1882 1.463 1_455 S
C1879 C1884 1.350 . S
C1879 N1887 1.427 . S
C1880 H1871 0.930 . S
C1880 C1878 1.378 . S
C1880 C1881 1.367 . S
C1881 C1880 1.367 . S
C1881 C1883 1.433 . S
C1882 C1878 1.350 . S
C1882 C1879 1.463 1_655 S
C1882 N1886 1.427 . S
C1883 H1873 0.929 . S
C1883 C1881 1.433 . S
C1883 N1886 1.384 . S
C1884 H1875 0.929 . S
C1884 C1876 1.378 . S
C1884 C1879 1.350 . S
C1885 H1872 0.929 . S
C1885 C1877 1.433 . S
C1885 N1887 1.384 . S
N1886 C1882 1.427 . S
N1886 C1883 1.384 . S
N1887 C1879 1.427 . S
N1887 C1885 1.384 . S
H1888 C1894 0.930 . S
H1889 C1898 0.930 . S
H1890 C1903 0.929 . S
H1891 C1901 0.929 . S
H1892 C1896 0.929 . S
H1893 C1902 0.929 . S
C1894 H1888 0.930 . S
C1894 C1895 1.367 . S
C1894 C1902 1.378 . S
C1895 C1894 1.367 . S
C1895 C1903 1.433 . S
C1896 H1892 0.929 . S
C1896 C1898 1.378 . S
C1896 C1900 1.350 . S
C1897 C1900 1.463 . S
C1897 C1902 1.350 . S
C1897 N1905 1.427 . S
C1898 H1889 0.930 . S
C1898 C1896 1.378 . S
C1898 C1899 1.367 . S
C1899 C1898 1.367 . S
C1899 C1901 1.433 . S
C1900 C1896 1.350 . S
C1900 C1897 1.463 . S
C1900 N1904 1.427 . S
C1901 H1891 0.929 . S
C1901 C1899 1.433 . S
C1901 N1904 1.384 . S
C1902 H1893 0.929 . S
C1902 C1894 1.378 . S
C1902 C1897 1.350 . S
C1903 H1890 0.929 . S
C1903 C1895 1.433 . S
C1903 N1905 1.384 . S
N1904 C1900 1.427 . S
N1904 C1901 1.384 . S
N1905 C1897 1.427 . S
N1905 C1903 1.384 . S
H1906 C1912 0.930 . S
H1907 C1916 0.930 . S
H1908 C1921 0.929 . S
H1909 C1919 0.929 . S
H1910 C1914 0.929 . S
H1911 C1920 0.929 . S
C1912 H1906 0.930 . S
C1912 C1913 1.367 . S
C1912 C1920 1.378 . S
C1913 C1912 1.367 . S
C1913 C1921 1.433 . S
C1914 H1910 0.929 . S
C1914 C1916 1.378 . S
C1914 C1918 1.350 . S
C1915 C1918 1.463 . S
C1915 C1920 1.350 . S
C1915 N1923 1.427 . S
C1916 H1907 0.930 . S
C1916 C1914 1.378 . S
C1916 C1917 1.367 . S
C1917 C1916 1.367 . S
C1917 C1919 1.433 . S
C1918 C1914 1.350 . S
C1918 C1915 1.463 . S
C1918 N1922 1.427 . S
C1919 H1909 0.929 . S
C1919 C1917 1.433 . S
C1919 N1922 1.384 . S
C1920 H1911 0.929 . S
C1920 C1912 1.378 . S
C1920 C1915 1.350 . S
C1921 H1908 0.929 . S
C1921 C1913 1.433 . S
C1921 N1923 1.384 . S
N1922 C1918 1.427 . S
N1922 C1919 1.384 . S
N1923 C1915 1.427 . S
N1923 C1921 1.384 . S
H1924 C1930 0.930 . S
H1925 C1934 0.930 . S
H1926 C1939 0.929 . S
H1927 C1937 0.929 . S
H1928 C1932 0.929 . S
H1929 C1938 0.929 . S
C1930 H1924 0.930 . S
C1930 C1931 1.367 . S
C1930 C1938 1.378 . S
C1931 C1930 1.367 . S
C1931 C1939 1.433 . S
C1932 H1928 0.929 . S
C1932 C1934 1.378 . S
C1932 C1936 1.350 . S
C1933 C1936 1.463 . S
C1933 C1938 1.350 . S
C1933 N1941 1.427 . S
C1934 H1925 0.930 . S
C1934 C1932 1.378 . S
C1934 C1935 1.367 . S
C1935 C1934 1.367 . S
C1935 C1937 1.433 . S
C1936 C1932 1.350 . S
C1936 C1933 1.463 . S
C1936 N1940 1.427 . S
C1937 H1927 0.929 . S
C1937 C1935 1.433 . S
C1937 N1940 1.384 . S
C1938 H1929 0.929 . S
C1938 C1930 1.378 . S
C1938 C1933 1.350 . S
C1939 H1926 0.929 . S
C1939 C1931 1.433 . S
C1939 N1941 1.384 . S
N1940 C1936 1.427 . S
N1940 C1937 1.384 . S
N1941 C1933 1.427 . S
N1941 C1939 1.384 . S
H1942 C1948 0.930 . S
H1943 C1952 0.930 . S
H1944 C1957 0.929 . S
H1945 C1955 0.929 . S
H1946 C1950 0.929 . S
H1947 C1956 0.929 . S
C1948 H1942 0.930 . S
C1948 C1949 1.367 . S
C1948 C1956 1.378 . S
C1949 C1948 1.367 . S
C1949 C1957 1.433 . S
C1950 H1946 0.929 . S
C1950 C1952 1.378 . S
C1950 C1954 1.350 . S
C1951 C1954 1.463 . S
C1951 C1956 1.350 . S
C1951 N1959 1.427 . S
C1952 H1943 0.930 . S
C1952 C1950 1.378 . S
C1952 C1953 1.367 . S
C1953 C1952 1.367 . S
C1953 C1955 1.433 . S
C1954 C1950 1.350 . S
C1954 C1951 1.463 . S
C1954 N1958 1.427 . S
C1955 H1945 0.929 . S
C1955 C1953 1.433 . S
C1955 N1958 1.384 . S
C1956 H1947 0.929 . S
C1956 C1948 1.378 . S
C1956 C1951 1.350 . S
C1957 H1944 0.929 . S
C1957 C1949 1.433 . S
C1957 N1959 1.384 . S
N1958 C1954 1.427 . S
N1958 C1955 1.384 . S
N1959 C1951 1.427 . S
N1959 C1957 1.384 . S
H1960 C1966 0.930 . S
H1961 C1970 0.930 . S
H1962 C1975 0.929 . S
H1963 C1973 0.929 . S
H1964 C1968 0.929 . S
H1965 C1974 0.929 . S
C1966 H1960 0.930 . S
C1966 C1967 1.367 . S
C1966 C1974 1.378 . S
C1967 C1966 1.367 . S
C1967 C1975 1.433 . S
C1968 H1964 0.929 . S
C1968 C1970 1.378 . S
C1968 C1972 1.350 . S
C1969 C1972 1.463 . S
C1969 C1974 1.350 . S
C1969 N1977 1.427 . S
C1970 H1961 0.930 . S
C1970 C1968 1.378 . S
C1970 C1971 1.367 . S
C1971 C1970 1.367 . S
C1971 C1973 1.433 . S
C1972 C1968 1.350 . S
C1972 C1969 1.463 . S
C1972 N1976 1.427 . S
C1973 H1963 0.929 . S
C1973 C1971 1.433 . S
C1973 N1976 1.384 . S
C1974 H1965 0.929 . S
C1974 C1966 1.378 . S
C1974 C1969 1.350 . S
C1975 H1962 0.929 . S
C1975 C1967 1.433 . S
C1975 N1977 1.384 . S
N1976 C1972 1.427 . S
N1976 C1973 1.384 . S
N1977 C1969 1.427 . S
N1977 C1975 1.384 . S
H1978 C1984 0.930 . S
H1979 C1988 0.930 . S
H1980 C1993 0.929 . S
H1981 C1991 0.929 . S
H1982 C1986 0.929 . S
H1983 C1992 0.929 . S
C1984 H1978 0.930 . S
C1984 C1985 1.367 . S
C1984 C1992 1.378 . S
C1985 C1984 1.367 . S
C1985 C1993 1.433 . S
C1986 H1982 0.929 . S
C1986 C1988 1.378 . S
C1986 C1990 1.350 . S
C1987 C1990 1.463 . S
C1987 C1992 1.350 . S
C1987 N1995 1.427 . S
C1988 H1979 0.930 . S
C1988 C1986 1.378 . S
C1988 C1989 1.367 . S
C1989 C1988 1.367 . S
C1989 C1991 1.433 . S
C1990 C1986 1.350 . S
C1990 C1987 1.463 . S
C1990 N1994 1.427 . S
C1991 H1981 0.929 . S
C1991 C1989 1.433 . S
C1991 N1994 1.384 . S
C1992 H1983 0.929 . S
C1992 C1984 1.378 . S
C1992 C1987 1.350 . S
C1993 H1980 0.929 . S
C1993 C1985 1.433 . S
C1993 N1995 1.384 . S
N1994 C1990 1.427 . S
N1994 C1991 1.384 . S
N1995 C1987 1.427 . S
N1995 C1993 1.384 . S
H1996 C2002 0.930 . S
H1997 C2006 0.930 . S
H1998 C2011 0.929 . S
H1999 C2009 0.929 . S
H2000 C2004 0.929 . S
H2001 C2010 0.929 . S
C2002 H1996 0.930 . S
C2002 C2003 1.367 . S
C2002 C2010 1.378 . S
C2003 C2002 1.367 . S
C2003 C2011 1.433 . S
C2004 H2000 0.929 . S
C2004 C2006 1.378 . S
C2004 C2008 1.350 . S
C2005 C2008 1.463 . S
C2005 C2010 1.350 . S
C2005 N2013 1.427 . S
C2006 H1997 0.930 . S
C2006 C2004 1.378 . S
C2006 C2007 1.367 . S
C2007 C2006 1.367 . S
C2007 C2009 1.433 . S
C2008 C2004 1.350 . S
C2008 C2005 1.463 . S
C2008 N2012 1.427 . S
C2009 H1999 0.929 . S
C2009 C2007 1.433 . S
C2009 N2012 1.384 . S
C2010 H2001 0.929 . S
C2010 C2002 1.378 . S
C2010 C2005 1.350 . S
C2011 H1998 0.929 . S
C2011 C2003 1.433 . S
C2011 N2013 1.384 . S
N2012 C2008 1.427 . S
N2012 C2009 1.384 . S
N2013 C2005 1.427 . S
N2013 C2011 1.384 . S
H2014 C2020 0.930 . S
H2015 C2024 0.930 . S
H2016 C2029 0.929 . S
H2017 C2027 0.929 . S
H2018 C2022 0.929 . S
H2019 C2028 0.929 . S
C2020 H2014 0.930 . S
C2020 C2021 1.367 . S
C2020 C2028 1.378 . S
C2021 C2020 1.367 . S
C2021 C2029 1.433 . S
C2022 H2018 0.929 . S
C2022 C2024 1.378 . S
C2022 C2026 1.350 . S
C2023 C2026 1.463 . S
C2023 C2028 1.350 . S
C2023 N2031 1.427 . S
C2024 H2015 0.930 . S
C2024 C2022 1.378 . S
C2024 C2025 1.367 . S
C2025 C2024 1.367 . S
C2025 C2027 1.433 . S
C2026 C2022 1.350 . S
C2026 C2023 1.463 . S
C2026 N2030 1.427 . S
C2027 H2017 0.929 . S
C2027 C2025 1.433 . S
C2027 N2030 1.384 . S
C2028 H2019 0.929 . S
C2028 C2020 1.378 . S
C2028 C2023 1.350 . S
C2029 H2016 0.929 . S
C2029 C2021 1.433 . S
C2029 N2031 1.384 . S
N2030 C2026 1.427 . S
N2030 C2027 1.384 . S
N2031 C2023 1.427 . S
N2031 C2029 1.384 . S
H2032 C2038 0.930 . S
H2033 C2042 0.930 . S
H2034 C2047 0.929 . S
H2035 C2045 0.929 . S
H2036 C2040 0.929 . S
H2037 C2046 0.929 . S
C2038 H2032 0.930 . S
C2038 C2039 1.367 . S
C2038 C2046 1.378 . S
C2039 C2038 1.367 . S
C2039 C2047 1.433 . S
C2040 H2036 0.929 . S
C2040 C2042 1.378 . S
C2040 C2044 1.350 . S
C2041 C2044 1.463 . S
C2041 C2046 1.350 . S
C2041 N2049 1.427 . S
C2042 H2033 0.930 . S
C2042 C2040 1.378 . S
C2042 C2043 1.367 . S
C2043 C2042 1.367 . S
C2043 C2045 1.433 . S
C2044 C2040 1.350 . S
C2044 C2041 1.463 . S
C2044 N2048 1.427 . S
C2045 H2035 0.929 . S
C2045 C2043 1.433 . S
C2045 N2048 1.384 . S
C2046 H2037 0.929 . S
C2046 C2038 1.378 . S
C2046 C2041 1.350 . S
C2047 H2034 0.929 . S
C2047 C2039 1.433 . S
C2047 N2049 1.384 . S
N2048 C2044 1.427 . S
N2048 C2045 1.384 . S
N2049 C2041 1.427 . S
N2049 C2047 1.384 . S
H2050 C2056 0.930 . S
H2051 C2060 0.930 . S
H2052 C2065 0.929 . S
H2053 C2063 0.929 . S
H2054 C2058 0.929 . S
H2055 C2064 0.929 . S
C2056 H2050 0.930 . S
C2056 C2057 1.367 . S
C2056 C2064 1.378 . S
C2057 C2056 1.367 . S
C2057 C2065 1.433 . S
C2058 H2054 0.929 . S
C2058 C2060 1.378 . S
C2058 C2062 1.350 . S
C2059 C2062 1.463 . S
C2059 C2064 1.350 . S
C2059 N2067 1.427 . S
C2060 H2051 0.930 . S
C2060 C2058 1.378 . S
C2060 C2061 1.367 . S
C2061 C2060 1.367 . S
C2061 C2063 1.433 . S
C2062 C2058 1.350 . S
C2062 C2059 1.463 . S
C2062 N2066 1.427 . S
C2063 H2053 0.929 . S
C2063 C2061 1.433 . S
C2063 N2066 1.384 . S
C2064 H2055 0.929 . S
C2064 C2056 1.378 . S
C2064 C2059 1.350 . S
C2065 H2052 0.929 . S
C2065 C2057 1.433 . S
C2065 N2067 1.384 . S
N2066 C2062 1.427 . S
N2066 C2063 1.384 . S
N2067 C2059 1.427 . S
N2067 C2065 1.384 . S
H2068 C2074 0.930 . S
H2069 C2078 0.930 . S
H2070 C2083 0.929 . S
H2071 C2081 0.929 . S
H2072 C2076 0.929 . S
H2073 C2082 0.929 . S
C2074 H2068 0.930 . S
C2074 C2075 1.367 . S
C2074 C2082 1.378 . S
C2075 C2074 1.367 . S
C2075 C2083 1.433 . S
C2076 H2072 0.929 . S
C2076 C2078 1.378 . S
C2076 C2080 1.350 . S
C2077 C2080 1.463 . S
C2077 C2082 1.350 . S
C2077 N2085 1.427 . S
C2078 H2069 0.930 . S
C2078 C2076 1.378 . S
C2078 C2079 1.367 . S
C2079 C2078 1.367 . S
C2079 C2081 1.433 . S
C2080 C2076 1.350 . S
C2080 C2077 1.463 . S
C2080 N2084 1.427 . S
C2081 H2071 0.929 . S
C2081 C2079 1.433 . S
C2081 N2084 1.384 . S
C2082 H2073 0.929 . S
C2082 C2074 1.378 . S
C2082 C2077 1.350 . S
C2083 H2070 0.929 . S
C2083 C2075 1.433 . S
C2083 N2085 1.384 . S
N2084 C2080 1.427 . S
N2084 C2081 1.384 . S
N2085 C2077 1.427 . S
N2085 C2083 1.384 . S
H2086 C2092 0.930 . S
H2087 C2096 0.930 . S
H2088 C2101 0.929 . S
H2089 C2099 0.929 . S
H2090 C2094 0.929 . S
H2091 C2100 0.929 . S
C2092 H2086 0.930 . S
C2092 C2093 1.367 . S
C2092 C2100 1.378 . S
C2093 C2092 1.367 . S
C2093 C2101 1.433 . S
C2094 H2090 0.929 . S
C2094 C2096 1.378 . S
C2094 C2098 1.350 . S
C2095 C2098 1.463 . S
C2095 C2100 1.350 . S
C2095 N2103 1.427 . S
C2096 H2087 0.930 . S
C2096 C2094 1.378 . S
C2096 C2097 1.367 . S
C2097 C2096 1.367 . S
C2097 C2099 1.433 . S
C2098 C2094 1.350 . S
C2098 C2095 1.463 . S
C2098 N2102 1.427 . S
C2099 H2089 0.929 . S
C2099 C2097 1.433 . S
C2099 N2102 1.384 . S
C2100 H2091 0.929 . S
C2100 C2092 1.378 . S
C2100 C2095 1.350 . S
C2101 H2088 0.929 . S
C2101 C2093 1.433 . S
C2101 N2103 1.384 . S
N2102 C2098 1.427 . S
N2102 C2099 1.384 . S
N2103 C2095 1.427 . S
N2103 C2101 1.384 . S
H2104 C2110 0.930 . S
H2105 C2114 0.930 . S
H2106 C2119 0.929 . S
H2107 C2117 0.929 . S
H2108 C2112 0.929 . S
H2109 C2118 0.929 . S
C2110 H2104 0.930 . S
C2110 C2111 1.367 . S
C2110 C2118 1.378 . S
C2111 C2110 1.367 . S
C2111 C2119 1.433 . S
C2112 H2108 0.929 . S
C2112 C2114 1.378 . S
C2112 C2116 1.350 . S
C2113 C2116 1.463 . S
C2113 C2118 1.350 . S
C2113 N2121 1.427 . S
C2114 H2105 0.930 . S
C2114 C2112 1.378 . S
C2114 C2115 1.367 . S
C2115 C2114 1.367 . S
C2115 C2117 1.433 . S
C2116 C2112 1.350 . S
C2116 C2113 1.463 . S
C2116 N2120 1.427 . S
C2117 H2107 0.929 . S
C2117 C2115 1.433 . S
C2117 N2120 1.384 . S
C2118 H2109 0.929 . S
C2118 C2110 1.378 . S
C2118 C2113 1.350 . S
C2119 H2106 0.929 . S
C2119 C2111 1.433 . S
C2119 N2121 1.384 . S
N2120 C2116 1.427 . S
N2120 C2117 1.384 . S
N2121 C2113 1.427 . S
N2121 C2119 1.384 . S
H2122 C2128 0.930 . S
H2123 C2132 0.930 . S
H2124 C2137 0.929 . S
H2125 C2135 0.929 . S
H2126 C2130 0.929 . S
H2127 C2136 0.929 . S
C2128 H2122 0.930 . S
C2128 C2129 1.367 . S
C2128 C2136 1.378 . S
C2129 C2128 1.367 . S
C2129 C2137 1.433 . S
C2130 H2126 0.929 . S
C2130 C2132 1.378 . S
C2130 C2134 1.350 . S
C2131 C2134 1.463 . S
C2131 C2136 1.350 . S
C2131 N2139 1.427 . S
C2132 H2123 0.930 . S
C2132 C2130 1.378 . S
C2132 C2133 1.367 . S
C2133 C2132 1.367 . S
C2133 C2135 1.433 . S
C2134 C2130 1.350 . S
C2134 C2131 1.463 . S
C2134 N2138 1.427 . S
C2135 H2125 0.929 . S
C2135 C2133 1.433 . S
C2135 N2138 1.384 . S
C2136 H2127 0.929 . S
C2136 C2128 1.378 . S
C2136 C2131 1.350 . S
C2137 H2124 0.929 . S
C2137 C2129 1.433 . S
C2137 N2139 1.384 . S
N2138 C2134 1.427 . S
N2138 C2135 1.384 . S
N2139 C2131 1.427 . S
N2139 C2137 1.384 . S
H2140 C2146 0.930 . S
H2141 C2150 0.930 . S
H2142 C2155 0.929 . S
H2143 C2153 0.929 . S
H2144 C2148 0.929 . S
H2145 C2154 0.929 . S
C2146 H2140 0.930 . S
C2146 C2147 1.367 . S
C2146 C2154 1.378 1_545 S
C2147 C2146 1.367 . S
C2147 C2155 1.433 1_545 S
C2148 H2144 0.929 . S
C2148 C2150 1.378 . S
C2148 C2152 1.350 . S
C2149 C2152 1.463 . S
C2149 C2154 1.350 . S
C2149 N2157 1.427 . S
C2150 H2141 0.930 . S
C2150 C2148 1.378 . S
C2150 C2151 1.367 . S
C2151 C2150 1.367 . S
C2151 C2153 1.433 . S
C2152 C2148 1.350 . S
C2152 C2149 1.463 . S
C2152 N2156 1.427 . S
C2153 H2143 0.929 . S
C2153 C2151 1.433 . S
C2153 N2156 1.384 . S
C2154 H2145 0.929 . S
C2154 C2146 1.378 1_565 S
C2154 C2149 1.350 . S
C2155 H2142 0.929 . S
C2155 C2147 1.433 1_565 S
C2155 N2157 1.384 . S
N2156 C2152 1.427 . S
N2156 C2153 1.384 . S
N2157 C2149 1.427 . S
N2157 C2155 1.384 . S
H2158 C2164 0.930 . S
H2159 C2168 0.930 1_556 S
H2160 C2173 0.929 . S
H2161 C2171 0.929 . S
H2162 C2166 0.929 . S
H2163 C2172 0.929 . S
C2164 H2158 0.930 . S
C2164 C2165 1.367 . S
C2164 C2172 1.378 . S
C2165 C2164 1.367 . S
C2165 C2173 1.433 . S
C2166 H2162 0.929 . S
C2166 C2168 1.378 . S
C2166 C2170 1.350 . S
C2167 C2170 1.463 . S
C2167 C2172 1.350 . S
C2167 N2175 1.427 . S
C2168 H2159 0.930 1_554 S
C2168 C2166 1.378 . S
C2168 C2169 1.367 1_565 S
C2169 C2168 1.367 1_545 S
C2169 C2171 1.433 . S
C2170 C2166 1.350 . S
C2170 C2167 1.463 . S
C2170 N2174 1.427 . S
C2171 H2161 0.929 . S
C2171 C2169 1.433 . S
C2171 N2174 1.384 1_545 S
C2172 H2163 0.929 . S
C2172 C2164 1.378 . S
C2172 C2167 1.350 . S
C2173 H2160 0.929 . S
C2173 C2165 1.433 . S
C2173 N2175 1.384 . S
N2174 C2170 1.427 . S
N2174 C2171 1.384 1_565 S
N2175 C2167 1.427 . S
N2175 C2173 1.384 . S
H2176 C2182 0.930 . S
H2177 C2186 0.930 . S
H2178 C2191 0.929 . S
H2179 C2189 0.929 . S
H2180 C2184 0.929 . S
H2181 C2190 0.929 . S
C2182 H2176 0.930 . S
C2182 C2183 1.367 . S
C2182 C2190 1.378 . S
C2183 C2182 1.367 . S
C2183 C2191 1.433 . S
C2184 H2180 0.929 . S
C2184 C2186 1.378 . S
C2184 C2188 1.350 . S
C2185 C2188 1.463 . S
C2185 C2190 1.350 . S
C2185 N2193 1.427 . S
C2186 H2177 0.930 . S
C2186 C2184 1.378 . S
C2186 C2187 1.367 . S
C2187 C2186 1.367 . S
C2187 C2189 1.433 . S
C2188 C2184 1.350 . S
C2188 C2185 1.463 . S
C2188 N2192 1.427 . S
C2189 H2179 0.929 . S
C2189 C2187 1.433 . S
C2189 N2192 1.384 . S
C2190 H2181 0.929 . S
C2190 C2182 1.378 . S
C2190 C2185 1.350 . S
C2191 H2178 0.929 . S
C2191 C2183 1.433 . S
C2191 N2193 1.384 . S
N2192 C2188 1.427 . S
N2192 C2189 1.384 . S
N2193 C2185 1.427 . S
N2193 C2191 1.384 . S
H2194 C2200 0.930 . S
H2195 C2204 0.930 . S
H2196 C2209 0.929 1_556 S
H2197 C2207 0.929 . S
H2198 C2202 0.929 . S
H2199 C2208 0.929 . S
C2200 H2194 0.930 . S
C2200 C2201 1.367 . S
C2200 C2208 1.378 . S
C2201 C2200 1.367 . S
C2201 C2209 1.433 . S
C2202 H2198 0.929 . S
C2202 C2204 1.378 . S
C2202 C2206 1.350 . S
C2203 C2206 1.463 . S
C2203 C2208 1.350 . S
C2203 N2211 1.427 . S
C2204 H2195 0.930 . S
C2204 C2202 1.378 . S
C2204 C2205 1.367 . S
C2205 C2204 1.367 . S
C2205 C2207 1.433 . S
C2206 C2202 1.350 . S
C2206 C2203 1.463 . S
C2206 N2210 1.427 . S
C2207 H2197 0.929 . S
C2207 C2205 1.433 . S
C2207 N2210 1.384 . S
C2208 H2199 0.929 . S
C2208 C2200 1.378 . S
C2208 C2203 1.350 . S
C2209 H2196 0.929 1_554 S
C2209 C2201 1.433 . S
C2209 N2211 1.384 . S
N2210 C2206 1.427 . S
N2210 C2207 1.384 . S
N2211 C2203 1.427 . S
N2211 C2209 1.384 . S
H2212 C2218 0.930 . S
H2213 C2222 0.930 . S
H2214 C2227 0.929 . S
H2215 C2225 0.929 . S
H2216 C2220 0.929 . S
H2217 C2226 0.929 . S
C2218 H2212 0.930 . S
C2218 C2219 1.367 . S
C2218 C2226 1.378 . S
C2219 C2218 1.367 . S
C2219 C2227 1.433 . S
C2220 H2216 0.929 . S
C2220 C2222 1.378 . S
C2220 C2224 1.350 . S
C2221 C2224 1.463 . S
C2221 C2226 1.350 . S
C2221 N2229 1.427 . S
C2222 H2213 0.930 . S
C2222 C2220 1.378 . S
C2222 C2223 1.367 . S
C2223 C2222 1.367 . S
C2223 C2225 1.433 . S
C2224 C2220 1.350 . S
C2224 C2221 1.463 . S
C2224 N2228 1.427 . S
C2225 H2215 0.929 . S
C2225 C2223 1.433 . S
C2225 N2228 1.384 . S
C2226 H2217 0.929 . S
C2226 C2218 1.378 . S
C2226 C2221 1.350 . S
C2227 H2214 0.929 . S
C2227 C2219 1.433 . S
C2227 N2229 1.384 . S
N2228 C2224 1.427 . S
N2228 C2225 1.384 . S
N2229 C2221 1.427 . S
N2229 C2227 1.384 . S
H2230 C2236 0.930 . S
H2231 C2240 0.930 . S
H2232 C2245 0.929 . S
H2233 C2243 0.929 . S
H2234 C2238 0.929 . S
H2235 C2244 0.929 . S
C2236 H2230 0.930 . S
C2236 C2237 1.367 1_565 S
C2236 C2244 1.378 . S
C2237 C2236 1.367 1_545 S
C2237 C2245 1.433 . S
C2238 H2234 0.929 . S
C2238 C2240 1.378 . S
C2238 C2242 1.350 . S
C2239 C2242 1.463 . S
C2239 C2244 1.350 . S
C2239 N2247 1.427 . S
C2240 H2231 0.930 . S
C2240 C2238 1.378 . S
C2240 C2241 1.367 . S
C2241 C2240 1.367 . S
C2241 C2243 1.433 . S
C2242 C2238 1.350 . S
C2242 C2239 1.463 . S
C2242 N2246 1.427 . S
C2243 H2233 0.929 . S
C2243 C2241 1.433 . S
C2243 N2246 1.384 . S
C2244 H2235 0.929 . S
C2244 C2236 1.378 . S
C2244 C2239 1.350 . S
C2245 H2232 0.929 . S
C2245 C2237 1.433 . S
C2245 N2247 1.384 1_545 S
N2246 C2242 1.427 . S
N2246 C2243 1.384 . S
N2247 C2239 1.427 . S
N2247 C2245 1.384 1_565 S
H2248 C2254 0.930 . S
H2249 C2258 0.930 . S
H2250 C2263 0.929 . S
H2251 C2261 0.929 . S
H2252 C2256 0.929 . S
H2253 C2262 0.929 . S
C2254 H2248 0.930 . S
C2254 C2255 1.367 . S
C2254 C2262 1.378 . S
C2255 C2254 1.367 . S
C2255 C2263 1.433 . S
C2256 H2252 0.929 . S
C2256 C2258 1.378 . S
C2256 C2260 1.350 . S
C2257 C2260 1.463 . S
C2257 C2262 1.350 . S
C2257 N2265 1.427 . S
C2258 H2249 0.930 . S
C2258 C2256 1.378 . S
C2258 C2259 1.367 . S
C2259 C2258 1.367 . S
C2259 C2261 1.433 . S
C2260 C2256 1.350 . S
C2260 C2257 1.463 . S
C2260 N2264 1.427 . S
C2261 H2251 0.929 . S
C2261 C2259 1.433 . S
C2261 N2264 1.384 . S
C2262 H2253 0.929 . S
C2262 C2254 1.378 . S
C2262 C2257 1.350 . S
C2263 H2250 0.929 . S
C2263 C2255 1.433 . S
C2263 N2265 1.384 . S
N2264 C2260 1.427 . S
N2264 C2261 1.384 . S
N2265 C2257 1.427 . S
N2265 C2263 1.384 . S
H2266 C2272 0.930 . S
H2267 C2276 0.930 . S
H2268 C2281 0.929 . S
H2269 C2279 0.929 . S
H2270 C2274 0.929 . S
H2271 C2280 0.929 . S
C2272 H2266 0.930 . S
C2272 C2273 1.367 . S
C2272 C2280 1.378 . S
C2273 C2272 1.367 . S
C2273 C2281 1.433 . S
C2274 H2270 0.929 . S
C2274 C2276 1.378 . S
C2274 C2278 1.350 . S
C2275 C2278 1.463 . S
C2275 C2280 1.350 . S
C2275 N2283 1.427 . S
C2276 H2267 0.930 . S
C2276 C2274 1.378 . S
C2276 C2277 1.367 . S
C2277 C2276 1.367 . S
C2277 C2279 1.433 . S
C2278 C2274 1.350 . S
C2278 C2275 1.463 . S
C2278 N2282 1.427 . S
C2279 H2269 0.929 . S
C2279 C2277 1.433 . S
C2279 N2282 1.384 . S
C2280 H2271 0.929 . S
C2280 C2272 1.378 . S
C2280 C2275 1.350 . S
C2281 H2268 0.929 . S
C2281 C2273 1.433 . S
C2281 N2283 1.384 . S
N2282 C2278 1.427 . S
N2282 C2279 1.384 . S
N2283 C2275 1.427 . S
N2283 C2281 1.384 . S
H2284 C2290 0.930 . S
H2285 C2294 0.930 . S
H2286 C2299 0.929 . S
H2287 C2297 0.929 . S
H2288 C2292 0.929 . S
H2289 C2298 0.929 . S
C2290 H2284 0.930 . S
C2290 C2291 1.367 . S
C2290 C2298 1.378 . S
C2291 C2290 1.367 . S
C2291 C2299 1.433 . S
C2292 H2288 0.929 . S
C2292 C2294 1.378 . S
C2292 C2296 1.350 . S
C2293 C2296 1.463 . S
C2293 C2298 1.350 . S
C2293 N2301 1.427 . S
C2294 H2285 0.930 . S
C2294 C2292 1.378 . S
C2294 C2295 1.367 . S
C2295 C2294 1.367 . S
C2295 C2297 1.433 . S
C2296 C2292 1.350 . S
C2296 C2293 1.463 . S
C2296 N2300 1.427 . S
C2297 H2287 0.929 . S
C2297 C2295 1.433 . S
C2297 N2300 1.384 . S
C2298 H2289 0.929 . S
C2298 C2290 1.378 . S
C2298 C2293 1.350 . S
C2299 H2286 0.929 . S
C2299 C2291 1.433 . S
C2299 N2301 1.384 . S
N2300 C2296 1.427 . S
N2300 C2297 1.384 . S
N2301 C2293 1.427 . S
N2301 C2299 1.384 . S
H2302 C2308 0.930 . S
H2303 C2312 0.930 . S
H2304 C2317 0.929 . S
H2305 C2315 0.929 . S
H2306 C2310 0.929 . S
H2307 C2316 0.929 . S
C2308 H2302 0.930 . S
C2308 C2309 1.367 . S
C2308 C2316 1.378 . S
C2309 C2308 1.367 . S
C2309 C2317 1.433 . S
C2310 H2306 0.929 . S
C2310 C2312 1.378 . S
C2310 C2314 1.350 . S
C2311 C2314 1.463 . S
C2311 C2316 1.350 . S
C2311 N2319 1.427 . S
C2312 H2303 0.930 . S
C2312 C2310 1.378 . S
C2312 C2313 1.367 . S
C2313 C2312 1.367 . S
C2313 C2315 1.433 . S
C2314 C2310 1.350 . S
C2314 C2311 1.463 . S
C2314 N2318 1.427 . S
C2315 H2305 0.929 . S
C2315 C2313 1.433 . S
C2315 N2318 1.384 . S
C2316 H2307 0.929 . S
C2316 C2308 1.378 . S
C2316 C2311 1.350 . S
C2317 H2304 0.929 . S
C2317 C2309 1.433 . S
C2317 N2319 1.384 . S
N2318 C2314 1.427 . S
N2318 C2315 1.384 . S
N2319 C2311 1.427 . S
N2319 C2317 1.384 . S
H2320 C2326 0.930 . S
H2321 C2330 0.930 . S
H2322 C2335 0.929 . S
H2323 C2333 0.929 . S
H2324 C2328 0.929 . S
H2325 C2334 0.929 . S
C2326 H2320 0.930 . S
C2326 C2327 1.367 . S
C2326 C2334 1.378 . S
C2327 C2326 1.367 . S
C2327 C2335 1.433 . S
C2328 H2324 0.929 . S
C2328 C2330 1.378 . S
C2328 C2332 1.350 . S
C2329 C2332 1.463 . S
C2329 C2334 1.350 . S
C2329 N2337 1.427 . S
C2330 H2321 0.930 . S
C2330 C2328 1.378 . S
C2330 C2331 1.367 . S
C2331 C2330 1.367 . S
C2331 C2333 1.433 . S
C2332 C2328 1.350 . S
C2332 C2329 1.463 . S
C2332 N2336 1.427 . S
C2333 H2323 0.929 . S
C2333 C2331 1.433 . S
C2333 N2336 1.384 . S
C2334 H2325 0.929 . S
C2334 C2326 1.378 . S
C2334 C2329 1.350 . S
C2335 H2322 0.929 . S
C2335 C2327 1.433 . S
C2335 N2337 1.384 . S
N2336 C2332 1.427 . S
N2336 C2333 1.384 . S
N2337 C2329 1.427 . S
N2337 C2335 1.384 . S
H2338 C2344 0.930 . S
H2339 C2348 0.930 . S
H2340 C2353 0.929 . S
H2341 C2351 0.929 . S
H2342 C2346 0.929 . S
H2343 C2352 0.929 . S
C2344 H2338 0.930 . S
C2344 C2345 1.367 . S
C2344 C2352 1.378 . S
C2345 C2344 1.367 . S
C2345 C2353 1.433 . S
C2346 H2342 0.929 . S
C2346 C2348 1.378 . S
C2346 C2350 1.350 . S
C2347 C2350 1.463 . S
C2347 C2352 1.350 . S
C2347 N2355 1.427 . S
C2348 H2339 0.930 . S
C2348 C2346 1.378 . S
C2348 C2349 1.367 . S
C2349 C2348 1.367 . S
C2349 C2351 1.433 . S
C2350 C2346 1.350 . S
C2350 C2347 1.463 . S
C2350 N2354 1.427 . S
C2351 H2341 0.929 . S
C2351 C2349 1.433 . S
C2351 N2354 1.384 . S
C2352 H2343 0.929 . S
C2352 C2344 1.378 . S
C2352 C2347 1.350 . S
C2353 H2340 0.929 . S
C2353 C2345 1.433 . S
C2353 N2355 1.384 . S
N2354 C2350 1.427 . S
N2354 C2351 1.384 . S
N2355 C2347 1.427 . S
N2355 C2353 1.384 . S
H2356 C2362 0.930 . S
H2357 C2366 0.930 . S
H2358 C2371 0.929 . S
H2359 C2369 0.929 . S
H2360 C2364 0.929 . S
H2361 C2370 0.929 . S
C2362 H2356 0.930 . S
C2362 C2363 1.367 . S
C2362 C2370 1.378 . S
C2363 C2362 1.367 . S
C2363 C2371 1.433 . S
C2364 H2360 0.929 . S
C2364 C2366 1.378 . S
C2364 C2368 1.350 . S
C2365 C2368 1.463 . S
C2365 C2370 1.350 . S
C2365 N2373 1.427 . S
C2366 H2357 0.930 . S
C2366 C2364 1.378 . S
C2366 C2367 1.367 . S
C2367 C2366 1.367 . S
C2367 C2369 1.433 . S
C2368 C2364 1.350 . S
C2368 C2365 1.463 . S
C2368 N2372 1.427 . S
C2369 H2359 0.929 . S
C2369 C2367 1.433 . S
C2369 N2372 1.384 . S
C2370 H2361 0.929 . S
C2370 C2362 1.378 . S
C2370 C2365 1.350 . S
C2371 H2358 0.929 . S
C2371 C2363 1.433 . S
C2371 N2373 1.384 . S
N2372 C2368 1.427 . S
N2372 C2369 1.384 . S
N2373 C2365 1.427 . S
N2373 C2371 1.384 . S
H2374 C2380 0.930 . S
H2375 C2384 0.930 . S
H2376 C2389 0.929 . S
H2377 C2387 0.929 . S
H2378 C2382 0.929 . S
H2379 C2388 0.929 . S
C2380 H2374 0.930 . S
C2380 C2381 1.367 . S
C2380 C2388 1.378 . S
C2381 C2380 1.367 . S
C2381 C2389 1.433 . S
C2382 H2378 0.929 . S
C2382 C2384 1.378 . S
C2382 C2386 1.350 . S
C2383 C2386 1.463 . S
C2383 C2388 1.350 . S
C2383 N2391 1.427 . S
C2384 H2375 0.930 . S
C2384 C2382 1.378 . S
C2384 C2385 1.367 . S
C2385 C2384 1.367 . S
C2385 C2387 1.433 . S
C2386 C2382 1.350 . S
C2386 C2383 1.463 . S
C2386 N2390 1.427 . S
C2387 H2377 0.929 . S
C2387 C2385 1.433 . S
C2387 N2390 1.384 . S
C2388 H2379 0.929 . S
C2388 C2380 1.378 . S
C2388 C2383 1.350 . S
C2389 H2376 0.929 . S
C2389 C2381 1.433 . S
C2389 N2391 1.384 . S
N2390 C2386 1.427 . S
N2390 C2387 1.384 . S
N2391 C2383 1.427 . S
N2391 C2389 1.384 . S
H2392 C2398 0.930 . S
H2393 C2402 0.930 . S
H2394 C2407 0.929 . S
H2395 C2405 0.929 . S
H2396 C2400 0.929 . S
H2397 C2406 0.929 . S
C2398 H2392 0.930 . S
C2398 C2399 1.367 . S
C2398 C2406 1.378 . S
C2399 C2398 1.367 . S
C2399 C2407 1.433 . S
C2400 H2396 0.929 . S
C2400 C2402 1.378 . S
C2400 C2404 1.350 . S
C2401 C2404 1.463 . S
C2401 C2406 1.350 . S
C2401 N2409 1.427 . S
C2402 H2393 0.930 . S
C2402 C2400 1.378 . S
C2402 C2403 1.367 . S
C2403 C2402 1.367 . S
C2403 C2405 1.433 . S
C2404 C2400 1.350 . S
C2404 C2401 1.463 . S
C2404 N2408 1.427 . S
C2405 H2395 0.929 . S
C2405 C2403 1.433 . S
C2405 N2408 1.384 . S
C2406 H2397 0.929 . S
C2406 C2398 1.378 . S
C2406 C2401 1.350 . S
C2407 H2394 0.929 . S
C2407 C2399 1.433 . S
C2407 N2409 1.384 . S
N2408 C2404 1.427 . S
N2408 C2405 1.384 . S
N2409 C2401 1.427 . S
N2409 C2407 1.384 . S
H2410 C2416 0.930 . S
H2411 C2420 0.930 . S
H2412 C2425 0.929 . S
H2413 C2423 0.929 . S
H2414 C2418 0.929 . S
H2415 C2424 0.929 . S
C2416 H2410 0.930 . S
C2416 C2417 1.367 . S
C2416 C2424 1.378 . S
C2417 C2416 1.367 . S
C2417 C2425 1.433 . S
C2418 H2414 0.929 . S
C2418 C2420 1.378 . S
C2418 C2422 1.350 . S
C2419 C2422 1.463 . S
C2419 C2424 1.350 . S
C2419 N2427 1.427 . S
C2420 H2411 0.930 . S
C2420 C2418 1.378 . S
C2420 C2421 1.367 . S
C2421 C2420 1.367 . S
C2421 C2423 1.433 . S
C2422 C2418 1.350 . S
C2422 C2419 1.463 . S
C2422 N2426 1.427 . S
C2423 H2413 0.929 . S
C2423 C2421 1.433 . S
C2423 N2426 1.384 . S
C2424 H2415 0.929 . S
C2424 C2416 1.378 . S
C2424 C2419 1.350 . S
C2425 H2412 0.929 . S
C2425 C2417 1.433 . S
C2425 N2427 1.384 . S
N2426 C2422 1.427 . S
N2426 C2423 1.384 . S
N2427 C2419 1.427 . S
N2427 C2425 1.384 . S
H2428 C2434 0.930 1_655 S
H2429 C2438 0.930 . S
H2430 C2443 0.929 . S
H2431 C2441 0.929 . S
H2432 C2436 0.929 . S
H2433 C2442 0.929 1_655 S
C2434 H2428 0.930 1_455 S
C2434 C2435 1.367 . S
C2434 C2442 1.378 . S
C2435 C2434 1.367 . S
C2435 C2443 1.433 . S
C2436 H2432 0.929 . S
C2436 C2438 1.378 . S
C2436 C2440 1.350 . S
C2437 C2440 1.463 . S
C2437 C2442 1.350 . S
C2437 N2445 1.427 . S
C2438 H2429 0.930 . S
C2438 C2436 1.378 . S
C2438 C2439 1.367 . S
C2439 C2438 1.367 . S
C2439 C2441 1.433 . S
C2440 C2436 1.350 . S
C2440 C2437 1.463 . S
C2440 N2444 1.427 . S
C2441 H2431 0.929 . S
C2441 C2439 1.433 . S
C2441 N2444 1.384 . S
C2442 H2433 0.929 1_455 S
C2442 C2434 1.378 . S
C2442 C2437 1.350 . S
C2443 H2430 0.929 . S
C2443 C2435 1.433 . S
C2443 N2445 1.384 . S
N2444 C2440 1.427 . S
N2444 C2441 1.384 . S
N2445 C2437 1.427 . S
N2445 C2443 1.384 . S
H2446 C2452 0.930 . S
H2447 C2456 0.930 . S
H2448 C2461 0.929 . S
H2449 C2459 0.929 . S
H2450 C2454 0.929 . S
H2451 C2460 0.929 . S
C2452 H2446 0.930 . S
C2452 C2453 1.367 . S
C2452 C2460 1.378 . S
C2453 C2452 1.367 . S
C2453 C2461 1.433 . S
C2454 H2450 0.929 . S
C2454 C2456 1.378 . S
C2454 C2458 1.350 . S
C2455 C2458 1.463 . S
C2455 C2460 1.350 . S
C2455 N2463 1.427 . S
C2456 H2447 0.930 . S
C2456 C2454 1.378 . S
C2456 C2457 1.367 . S
C2457 C2456 1.367 . S
C2457 C2459 1.433 . S
C2458 C2454 1.350 . S
C2458 C2455 1.463 . S
C2458 N2462 1.427 . S
C2459 H2449 0.929 . S
C2459 C2457 1.433 . S
C2459 N2462 1.384 . S
C2460 H2451 0.929 . S
C2460 C2452 1.378 . S
C2460 C2455 1.350 . S
C2461 H2448 0.929 . S
C2461 C2453 1.433 . S
C2461 N2463 1.384 . S
N2462 C2458 1.427 . S
N2462 C2459 1.384 . S
N2463 C2455 1.427 . S
N2463 C2461 1.384 . S
H2464 C2470 0.930 . S
H2465 C2474 0.930 . S
H2466 C2479 0.929 . S
H2467 C2477 0.929 . S
H2468 C2472 0.929 . S
H2469 C2478 0.929 . S
C2470 H2464 0.930 . S
C2470 C2471 1.367 . S
C2470 C2478 1.378 . S
C2471 C2470 1.367 . S
C2471 C2479 1.433 . S
C2472 H2468 0.929 . S
C2472 C2474 1.378 . S
C2472 C2476 1.350 . S
C2473 C2476 1.463 . S
C2473 C2478 1.350 . S
C2473 N2481 1.427 . S
C2474 H2465 0.930 . S
C2474 C2472 1.378 . S
C2474 C2475 1.367 . S
C2475 C2474 1.367 . S
C2475 C2477 1.433 . S
C2476 C2472 1.350 . S
C2476 C2473 1.463 . S
C2476 N2480 1.427 . S
C2477 H2467 0.929 . S
C2477 C2475 1.433 . S
C2477 N2480 1.384 . S
C2478 H2469 0.929 . S
C2478 C2470 1.378 . S
C2478 C2473 1.350 . S
C2479 H2466 0.929 . S
C2479 C2471 1.433 . S
C2479 N2481 1.384 . S
N2480 C2476 1.427 . S
N2480 C2477 1.384 . S
N2481 C2473 1.427 . S
N2481 C2479 1.384 . S
H2482 C2488 0.930 . S
H2483 C2492 0.930 . S
H2484 C2497 0.929 . S
H2485 C2495 0.929 . S
H2486 C2490 0.929 . S
H2487 C2496 0.929 . S
C2488 H2482 0.930 . S
C2488 C2489 1.367 . S
C2488 C2496 1.378 . S
C2489 C2488 1.367 . S
C2489 C2497 1.433 . S
C2490 H2486 0.929 . S
C2490 C2492 1.378 . S
C2490 C2494 1.350 . S
C2491 C2494 1.463 . S
C2491 C2496 1.350 . S
C2491 N2499 1.427 . S
C2492 H2483 0.930 . S
C2492 C2490 1.378 . S
C2492 C2493 1.367 . S
C2493 C2492 1.367 . S
C2493 C2495 1.433 . S
C2494 C2490 1.350 . S
C2494 C2491 1.463 . S
C2494 N2498 1.427 . S
C2495 H2485 0.929 . S
C2495 C2493 1.433 . S
C2495 N2498 1.384 . S
C2496 H2487 0.929 . S
C2496 C2488 1.378 . S
C2496 C2491 1.350 . S
C2497 H2484 0.929 . S
C2497 C2489 1.433 . S
C2497 N2499 1.384 . S
N2498 C2494 1.427 . S
N2498 C2495 1.384 . S
N2499 C2491 1.427 . S
N2499 C2497 1.384 . S
H2500 C2506 0.930 . S
H2501 C2510 0.930 . S
H2502 C2515 0.929 . S
H2503 C2513 0.929 . S
H2504 C2508 0.929 . S
H2505 C2514 0.929 . S
C2506 H2500 0.930 . S
C2506 C2507 1.367 1_655 S
C2506 C2514 1.378 . S
C2507 C2506 1.367 1_455 S
C2507 C2515 1.433 . S
C2508 H2504 0.929 . S
C2508 C2510 1.378 . S
C2508 C2512 1.350 . S
C2509 C2512 1.463 . S
C2509 C2514 1.350 1_455 S
C2509 N2517 1.427 . S
C2510 H2501 0.930 . S
C2510 C2508 1.378 . S
C2510 C2511 1.350 1_455 S
C2511 C2510 1.350 1_655 S
C2511 C2513 1.454 . S
C2512 C2508 1.350 . S
C2512 C2509 1.463 . S
C2512 N2516 1.427 1_455 S
C2513 H2503 0.929 . S
C2513 C2511 1.454 . S
C2513 N2516 1.384 . S
C2514 H2505 0.929 . S
C2514 C2506 1.378 . S
C2514 C2509 1.350 1_655 S
C2515 H2502 0.929 . S
C2515 C2507 1.433 . S
C2515 N2517 1.384 . S
N2516 C2512 1.427 1_655 S
N2516 C2513 1.384 . S
N2517 C2509 1.427 . S
N2517 C2515 1.384 . S
H2518 C2524 0.930 . S
H2519 C2528 0.930 . S
H2520 C2533 0.929 . S
H2521 C2531 0.929 . S
H2522 C2526 0.929 . S
H2523 C2532 0.929 . S
C2524 H2518 0.930 . S
C2524 C2525 1.367 . S
C2524 C2532 1.378 . S
C2525 C2524 1.367 . S
C2525 C2533 1.433 . S
C2526 H2522 0.929 . S
C2526 C2528 1.378 . S
C2526 C2530 1.350 . S
C2527 C2530 1.463 . S
C2527 C2532 1.350 . S
C2527 N2535 1.427 . S
C2528 H2519 0.930 . S
C2528 C2526 1.378 . S
C2528 C2529 1.367 . S
C2529 C2528 1.367 . S
C2529 C2531 1.433 . S
C2530 C2526 1.350 . S
C2530 C2527 1.463 . S
C2530 N2534 1.427 . S
C2531 H2521 0.929 . S
C2531 C2529 1.433 . S
C2531 N2534 1.384 . S
C2532 H2523 0.929 . S
C2532 C2524 1.378 . S
C2532 C2527 1.350 . S
C2533 H2520 0.929 . S
C2533 C2525 1.433 . S
C2533 N2535 1.384 . S
N2534 C2530 1.427 . S
N2534 C2531 1.384 . S
N2535 C2527 1.427 . S
N2535 C2533 1.384 . S
H2536 C2542 0.930 . S
H2537 C2546 0.930 . S
H2538 C2551 0.929 . S
H2539 C2549 0.929 . S
H2540 C2544 0.929 . S
H2541 C2550 0.929 . S
C2542 H2536 0.930 . S
C2542 C2543 1.367 . S
C2542 C2550 1.378 . S
C2543 C2542 1.367 . S
C2543 C2551 1.433 . S
C2544 H2540 0.929 . S
C2544 C2546 1.378 . S
C2544 C2548 1.350 . S
C2545 C2548 1.463 . S
C2545 C2550 1.350 . S
C2545 N2553 1.427 . S
C2546 H2537 0.930 . S
C2546 C2544 1.378 . S
C2546 C2547 1.367 . S
C2547 C2546 1.367 . S
C2547 C2549 1.433 . S
C2548 C2544 1.350 . S
C2548 C2545 1.463 . S
C2548 N2552 1.427 . S
C2549 H2539 0.929 . S
C2549 C2547 1.433 . S
C2549 N2552 1.384 . S
C2550 H2541 0.929 . S
C2550 C2542 1.378 . S
C2550 C2545 1.350 . S
C2551 H2538 0.929 . S
C2551 C2543 1.433 . S
C2551 N2553 1.384 . S
N2552 C2548 1.427 . S
N2552 C2549 1.384 . S
N2553 C2545 1.427 . S
N2553 C2551 1.384 . S
H2554 C2560 0.930 . S
H2555 C2564 0.896 1_545 S
H2556 C2569 0.929 . S
H2557 C2567 0.929 . S
H2558 C2562 0.929 . S
H2559 C2568 0.929 . S
C2560 H2554 0.930 . S
C2560 C2561 1.367 . S
C2560 C2568 1.378 . S
C2561 C2560 1.367 . S
C2561 C2569 1.433 . S
C2562 H2558 0.929 . S
C2562 C2564 1.392 . S
C2562 C2566 1.350 . S
C2563 C2566 1.463 . S
C2563 C2568 1.350 . S
C2563 N2571 1.427 . S
C2564 H2555 0.896 1_565 S
C2564 C2562 1.392 . S
C2564 C2565 1.389 . S
C2565 C2564 1.389 . S
C2565 C2567 1.433 . S
C2566 C2562 1.350 . S
C2566 C2563 1.463 . S
C2566 N2570 1.427 . S
C2567 H2557 0.929 . S
C2567 C2565 1.433 . S
C2567 N2570 1.384 . S
C2568 H2559 0.929 . S
C2568 C2560 1.378 . S
C2568 C2563 1.350 . S
C2569 H2556 0.929 . S
C2569 C2561 1.433 . S
C2569 N2571 1.384 . S
N2570 C2566 1.427 . S
N2570 C2567 1.384 . S
N2571 C2563 1.427 . S
N2571 C2569 1.384 . S
H2572 C2578 0.930 . S
H2573 C2582 0.930 . S
H2574 C2587 0.929 . S
H2575 C2585 0.929 . S
H2576 C2580 0.929 . S
H2577 C2586 0.929 . S
C2578 H2572 0.930 . S
C2578 C2579 1.367 . S
C2578 C2586 1.378 . S
C2579 C2578 1.367 . S
C2579 C2587 1.433 . S
C2580 H2576 0.929 . S
C2580 C2582 1.378 . S
C2580 C2584 1.350 . S
C2581 C2584 1.463 . S
C2581 C2586 1.350 . S
C2581 N2589 1.427 . S
C2582 H2573 0.930 . S
C2582 C2580 1.378 . S
C2582 C2583 1.367 . S
C2583 C2582 1.367 . S
C2583 C2585 1.433 . S
C2584 C2580 1.350 . S
C2584 C2581 1.463 . S
C2584 N2588 1.427 . S
C2585 H2575 0.929 . S
C2585 C2583 1.433 . S
C2585 N2588 1.384 . S
C2586 H2577 0.929 . S
C2586 C2578 1.378 . S
C2586 C2581 1.350 . S
C2587 H2574 0.929 . S
C2587 C2579 1.433 . S
C2587 N2589 1.384 . S
N2588 C2584 1.427 . S
N2588 C2585 1.384 . S
N2589 C2581 1.427 . S
N2589 C2587 1.384 . S
H2590 C2596 0.930 . S
H2591 C2600 0.930 . S
H2592 C2605 0.929 . S
H2593 C2603 0.929 . S
H2594 C2598 0.929 . S
H2595 C2604 0.929 . S
C2596 H2590 0.930 . S
C2596 C2597 1.367 1_554 S
C2596 C2604 1.378 . S
C2597 C2596 1.367 1_556 S
C2597 C2605 1.433 . S
C2598 H2594 0.929 . S
C2598 C2600 1.378 . S
C2598 C2602 1.350 . S
C2599 C2602 1.463 . S
C2599 C2604 1.350 1_556 S
C2599 N2607 1.427 . S
C2600 H2591 0.930 . S
C2600 C2598 1.378 . S
C2600 C2601 1.367 . S
C2601 C2600 1.367 . S
C2601 C2603 1.433 1_556 S
C2602 C2598 1.350 . S
C2602 C2599 1.463 . S
C2602 N2606 1.427 1_556 S
C2603 H2593 0.929 . S
C2603 C2601 1.433 1_554 S
C2603 N2606 1.384 . S
C2604 H2595 0.929 . S
C2604 C2596 1.378 . S
C2604 C2599 1.350 1_554 S
C2605 H2592 0.929 . S
C2605 C2597 1.433 . S
C2605 N2607 1.384 . S
N2606 C2602 1.427 1_554 S
N2606 C2603 1.384 . S
N2607 C2599 1.427 . S
N2607 C2605 1.384 . S
H2608 C2614 0.930 . S
H2609 C2618 0.930 . S
H2610 C2623 0.929 . S
H2611 C2621 0.929 . S
H2612 C2616 0.929 . S
H2613 C2622 0.929 . S
C2614 H2608 0.930 . S
C2614 C2615 1.367 . S
C2614 C2622 1.378 . S
C2615 C2614 1.367 . S
C2615 C2623 1.433 . S
C2616 H2612 0.929 . S
C2616 C2618 1.378 . S
C2616 C2620 1.350 . S
C2617 C2620 1.463 . S
C2617 C2622 1.350 . S
C2617 N2625 1.427 . S
C2618 H2609 0.930 . S
C2618 C2616 1.378 . S
C2618 C2619 1.367 . S
C2619 C2618 1.367 . S
C2619 C2621 1.433 . S
C2620 C2616 1.350 . S
C2620 C2617 1.463 . S
C2620 N2624 1.427 . S
C2621 H2611 0.929 . S
C2621 C2619 1.433 . S
C2621 N2624 1.384 . S
C2622 H2613 0.929 . S
C2622 C2614 1.378 . S
C2622 C2617 1.350 . S
C2623 H2610 0.929 . S
C2623 C2615 1.433 . S
C2623 N2625 1.384 . S
N2624 C2620 1.427 . S
N2624 C2621 1.384 . S
N2625 C2617 1.427 . S
N2625 C2623 1.384 . S
H2626 C2632 0.930 1_556 S
H2627 C2636 0.930 . S
H2628 C2641 0.929 . S
H2629 C2639 0.929 1_556 S
H2630 C2634 0.929 . S
H2631 C2640 0.929 1_556 S
C2632 H2626 0.930 1_554 S
C2632 C2633 1.367 . S
C2632 C2640 1.378 . S
C2633 C2632 1.367 . S
C2633 C2641 1.433 . S
C2634 H2630 0.929 . S
C2634 C2636 1.378 . S
C2634 C2638 1.350 . S
C2635 C2638 1.463 . S
C2635 C2640 1.350 . S
C2635 N2643 1.427 . S
C2636 H2627 0.930 . S
C2636 C2634 1.378 . S
C2636 C2637 1.367 . S
C2637 C2636 1.367 . S
C2637 C2639 1.433 . S
C2638 C2634 1.350 . S
C2638 C2635 1.463 . S
C2638 N2642 1.427 . S
C2639 H2629 0.929 1_554 S
C2639 C2637 1.433 . S
C2639 N2642 1.384 . S
C2640 H2631 0.929 1_554 S
C2640 C2632 1.378 . S
C2640 C2635 1.350 . S
C2641 H2628 0.929 . S
C2641 C2633 1.433 . S
C2641 N2643 1.384 . S
N2642 C2638 1.427 . S
N2642 C2639 1.384 . S
N2643 C2635 1.427 . S
N2643 C2641 1.384 . S
H2644 C2650 0.930 . S
H2645 C2654 0.930 . S
H2646 C2659 0.929 . S
H2647 C2657 0.929 . S
H2648 C2652 0.929 . S
H2649 C2658 0.929 . S
C2650 H2644 0.930 . S
C2650 C2651 1.367 . S
C2650 C2658 1.378 . S
C2651 C2650 1.367 . S
C2651 C2659 1.433 . S
C2652 H2648 0.929 . S
C2652 C2654 1.378 . S
C2652 C2656 1.350 . S
C2653 C2656 1.463 . S
C2653 C2658 1.350 . S
C2653 N2661 1.427 . S
C2654 H2645 0.930 . S
C2654 C2652 1.378 . S
C2654 C2655 1.367 . S
C2655 C2654 1.367 . S
C2655 C2657 1.433 . S
C2656 C2652 1.350 . S
C2656 C2653 1.463 . S
C2656 N2660 1.427 . S
C2657 H2647 0.929 . S
C2657 C2655 1.433 . S
C2657 N2660 1.384 . S
C2658 H2649 0.929 . S
C2658 C2650 1.378 . S
C2658 C2653 1.350 . S
C2659 H2646 0.929 . S
C2659 C2651 1.433 . S
C2659 N2661 1.384 . S
N2660 C2656 1.427 . S
N2660 C2657 1.384 . S
N2661 C2653 1.427 . S
N2661 C2659 1.384 . S
H2662 C2668 0.930 . S
H2663 C2672 0.930 . S
H2664 C2677 0.929 . S
H2665 C2675 0.929 . S
H2666 C2670 0.929 . S
H2667 C2676 0.929 . S
C2668 H2662 0.930 . S
C2668 C2669 1.367 . S
C2668 C2676 1.378 . S
C2669 C2668 1.367 . S
C2669 C2677 1.433 . S
C2670 H2666 0.929 . S
C2670 C2672 1.378 . S
C2670 C2674 1.350 . S
C2671 C2674 1.463 . S
C2671 C2676 1.350 . S
C2671 N2679 1.427 . S
C2672 H2663 0.930 . S
C2672 C2670 1.378 . S
C2672 C2673 1.367 . S
C2673 C2672 1.367 . S
C2673 C2675 1.433 . S
C2674 C2670 1.350 . S
C2674 C2671 1.463 . S
C2674 N2678 1.427 . S
C2675 H2665 0.929 . S
C2675 C2673 1.433 . S
C2675 N2678 1.384 . S
C2676 H2667 0.929 . S
C2676 C2668 1.378 . S
C2676 C2671 1.350 . S
C2677 H2664 0.929 . S
C2677 C2669 1.433 . S
C2677 N2679 1.384 . S
N2678 C2674 1.427 . S
N2678 C2675 1.384 . S
N2679 C2671 1.427 . S
N2679 C2677 1.384 . S
C959 C101 1.845 . S
C963 C334 1.811 . S
C977 C57 1.156 . S
C981 C354 1.158 . S
C995 C70 0.526 . S
C999 C401 0.530 . S
C1017 C458 1.094 . S
C1013 C82 1.113 . S
C1031 C23 2.506 . S
C1035 C475 2.497 . S
C1053 C534 1.700 . S
C1049 C29 1.719 . S
C1071 C567 2.603 . S
C1067 C49 2.594 . S
C1085 C10 2.537 . S
C1089 C614 2.496 . S
C1107 C327 1.668 . S
C1103 C218 1.624 . S
C1121 C226 1.243 . S
C1125 C355 1.225 . S
C1143 C394 0.391 . S
C1139 C251 0.352 . S
C1161 C454 2.060 . S
C1157 C159 2.056 . S
C1175 C211 0.392 . S
C1179 C481 0.418 . S
C1197 C527 2.205 . S
C1193 C225 2.210 . S
C1215 C578 0.550 . S
C1211 C252 0.437 . S
C1233 C607 2.261 . S
C1229 C166 2.248 . S
C1251 C338 1.917 1_565 S
C1247 C147 1.959 . S
C1265 C263 2.201 . S
C1269 C634 2.180 . S
C1287 C698 1.317 . S
C1283 C309 1.325 . S
C1305 C734 1.374 . S
C1301 C291 1.368 . S
C1319 C108 1.499 . S
C1323 C618 1.511 . S
C1337 C121 2.515 . S
C1341 C395 2.513 . S
C1355 C302 1.304 . S
C1359 C767 1.347 . S
C1377 C801 0.303 . S
C1373 C276 0.371 . S
C1395 C315 1.935 1_565 S
C1391 C55 1.926 . S
C1413 C807 1.386 . S
C1409 C96 1.417 . S
C1427 C88 0.930 . S
C1431 C418 0.922 . S
C1445 C75 1.196 . S
C1449 C761 1.184 . S
C1467 C494 2.884 . S
C1463 C4 2.903 . S
C1481 C44 1.957 . S
C1485 C675 1.958 . S
C1503 C554 2.941 1_566 S
C1499 C31 2.955 . S
C1521 C835 2.564 . S
C1517 C18 2.585 1_655 S
C1539 C314 1.664 1_556 S
C1535 C133 1.654 . S
C1557 C814 1.854 . S
C1553 C296 1.876 . S
C1571 C107 0.692 . S
C1575 C407 0.689 . S
C1589 C264 2.356 . S
C1593 C755 2.367 . S
C1607 C140 0.616 . S
C1611 C498 0.623 . S
C1629 C674 2.541 . S
C1625 C289 2.554 . S
C1643 C114 0.573 . S
C1647 C561 0.605 . S
C1661 C265 2.541 . S
C1665 C834 2.534 . S
C1679 C179 1.718 . S
C1683 C321 1.700 . S
C1697 C161 2.369 . S
C1701 C647 2.336 . S
C1715 C244 1.435 . S
C1719 C521 1.430 . S
C1733 C224 1.562 . S
C1737 C715 1.572 . S
C1755 C841 1.326 . S
C1751 C257 1.318 . S
C1769 C199 2.805 . S
C1773 C414 2.801 1_565 S
C1791 C434 1.681 . S
C1787 C237 1.664 . S
C1809 C378 0.588 . S
C1805 C185 0.563 . S
C1823 C69 1.843 . S
C1827 C894 1.814 . S
C1845 C794 1.166 . S
C1841 C83 1.164 . S
C1859 C94 0.554 . S
C1863 C921 0.548 . S
C1877 C56 1.100 . S
C1881 C778 1.079 . S
C1895 C42 2.517 . S
C1899 C635 2.502 . S
C1917 C694 1.697 . S
C1913 C3 1.715 1_655 S
C1935 C727 2.614 . S
C1931 C16 2.598 . S
C1953 C854 2.494 . S
C1949 C36 2.536 . S
C1971 C887 1.659 . S
C1967 C238 1.613 . S
C1985 C174 1.244 . S
C1989 C795 1.231 . S
C2007 C914 0.396 . S
C2003 C186 0.349 . S
C2025 C774 2.059 . S
C2021 C198 2.056 . S
C2043 C641 0.425 . S
C2039 C239 0.399 . S
C2057 C173 2.211 . S
C2061 C687 2.203 . S
C2079 C738 0.557 . S
C2075 C187 0.444 . S
C2093 C205 2.251 . S
C2097 C847 2.263 . S
C2115 C898 1.919 . S
C2111 C290 1.962 . S
C2129 C122 2.198 . S
C2133 C474 2.176 . S
C2151 C538 1.320 . S
C2147 C134 1.323 . S
C2169 C574 1.373 . S
C2165 C148 1.372 . S
C2187 C858 1.512 . S
C2183 C283 1.493 . S
C2201 C270 2.512 . S
C2205 C915 2.516 . S
C2223 C447 1.351 . S
C2219 C135 1.316 . S
C2241 C361 0.353 . S
C2237 C109 0.420 . S
C2255 C81 1.929 . S
C2259 C875 1.940 . S
C2277 C367 1.383 . S
C2273 C68 1.409 . S
C2291 C62 0.935 . S
C2295 C938 0.930 . S
C2309 C95 1.194 . S
C2313 C441 1.178 . S
C2327 C30 2.904 . S
C2331 C654 2.883 . S
C2349 C515 1.945 . S
C2345 C17 1.955 . S
C2363 C5 2.956 . S
C2367 C714 2.947 . S
C2381 C43 2.578 . S
C2385 C595 2.559 . S
C2403 C874 1.660 . S
C2399 C304 1.651 . S
C2417 C153 1.876 . S
C2421 C374 1.855 . S
C2439 C927 0.706 . S
C2435 C278 0.694 . S
C2453 C127 2.356 . S
C2457 C435 2.366 . S
C2471 C303 0.616 . S
C2475 C658 0.626 . S
C2493 C514 2.538 . S
C2489 C146 2.553 1_556 S
C2507 C277 0.547 . S
C2511 C721 0.566 1_655 S
C2529 C594 2.533 . S
C2525 C120 2.540 . S
C2547 C881 1.694 . S
C2543 C231 1.715 . S
C2565 C487 2.330 1_665 S
C2561 C200 2.367 . S
C2579 C212 1.423 . S
C2583 C681 1.420 . S
C2601 C555 1.570 1_556 S
C2597 C172 1.559 . S
C2615 C192 1.308 . S
C2619 C601 1.311 . S
C2633 C160 2.806 . S
C2637 C934 2.800 . S
C2655 C754 1.685 . S
C2651 C213 1.671 . S
C2673 C818 0.561 . S
C2669 C250 0.544 . S
