# Generated by pormake.
# Topology pyr, (3,6)-cn, num edge types: 1
# Building blocks:
#     Node 0, Type 0, BuildingBlock: OLANEW_clean_sbu_2, # of connection points: 3
#     Node 1, Type 0, BuildingBlock: OLANEW_clean_sbu_2, # of connection points: 3
#     Node 2, Type 0, BuildingBlock: OLANEW_clean_sbu_2, # of connection points: 3
#     Node 3, Type 0, BuildingBlock: OLANEW_clean_sbu_2, # of connection points: 3
#     Node 4, Type 0, BuildingBlock: OLANEW_clean_sbu_2, # of connection points: 3
#     Node 5, Type 0, BuildingBlock: OLANEW_clean_sbu_2, # of connection points: 3
#     Node 6, Type 0, BuildingBlock: OLANEW_clean_sbu_2, # of connection points: 3
#     Node 7, Type 0, BuildingBlock: OLANEW_clean_sbu_2, # of connection points: 3
#     Node 8, Type 1, BuildingBlock: MIFKUJ_clean_sbu_0, # of connection points: 6
#     Node 9, Type 1, BuildingBlock: MIFKUJ_clean_sbu_0, # of connection points: 6
#     Node 10, Type 1, BuildingBlock: MIFKUJ_clean_sbu_0, # of connection points: 6
#     Node 11, Type 1, BuildingBlock: MIFKUJ_clean_sbu_0, # of connection points: 6
#     Edge 12, Type (0, 1), BuildingBlock: OJICUG_clean_linker_0, # of connection points: 2
#     Edge 13, Type (0, 1), BuildingBlock: OJICUG_clean_linker_0, # of connection points: 2
#     Edge 14, Type (0, 1), BuildingBlock: OJICUG_clean_linker_0, # of connection points: 2
#     Edge 15, Type (0, 1), BuildingBlock: OJICUG_clean_linker_0, # of connection points: 2
#     Edge 16, Type (0, 1), BuildingBlock: OJICUG_clean_linker_0, # of connection points: 2
#     Edge 17, Type (0, 1), BuildingBlock: OJICUG_clean_linker_0, # of connection points: 2
#     Edge 18, Type (0, 1), BuildingBlock: OJICUG_clean_linker_0, # of connection points: 2
#     Edge 19, Type (0, 1), BuildingBlock: OJICUG_clean_linker_0, # of connection points: 2
#     Edge 20, Type (0, 1), BuildingBlock: OJICUG_clean_linker_0, # of connection points: 2
#     Edge 21, Type (0, 1), BuildingBlock: OJICUG_clean_linker_0, # of connection points: 2
#     Edge 22, Type (0, 1), BuildingBlock: OJICUG_clean_linker_0, # of connection points: 2
#     Edge 23, Type (0, 1), BuildingBlock: OJICUG_clean_linker_0, # of connection points: 2
#     Edge 24, Type (0, 1), BuildingBlock: OJICUG_clean_linker_0, # of connection points: 2
#     Edge 25, Type (0, 1), BuildingBlock: OJICUG_clean_linker_0, # of connection points: 2
#     Edge 26, Type (0, 1), BuildingBlock: OJICUG_clean_linker_0, # of connection points: 2
#     Edge 27, Type (0, 1), BuildingBlock: OJICUG_clean_linker_0, # of connection points: 2
#     Edge 28, Type (0, 1), BuildingBlock: OJICUG_clean_linker_0, # of connection points: 2
#     Edge 29, Type (0, 1), BuildingBlock: OJICUG_clean_linker_0, # of connection points: 2
#     Edge 30, Type (0, 1), BuildingBlock: OJICUG_clean_linker_0, # of connection points: 2
#     Edge 31, Type (0, 1), BuildingBlock: OJICUG_clean_linker_0, # of connection points: 2
#     Edge 32, Type (0, 1), BuildingBlock: OJICUG_clean_linker_0, # of connection points: 2
#     Edge 33, Type (0, 1), BuildingBlock: OJICUG_clean_linker_0, # of connection points: 2
#     Edge 34, Type (0, 1), BuildingBlock: OJICUG_clean_linker_0, # of connection points: 2
#     Edge 35, Type (0, 1), BuildingBlock: OJICUG_clean_linker_0, # of connection points: 2
# Relax obj value: 0.081
# Max RMSD: 0.166
# Mean RMSD: 0.121
data_MOF--net-pyr--node1-OLANEW_clean_sbu_2--node2-MIFKUJ_clean_sbu_0--edge1-OJICUG_clean_linker_0
_symmetry_space_group_name_H-M    P1
_symmetry_Int_Tables_number       1
_symmetry_cell_setting            triclinic
loop_
_symmetry_equiv_pos_as_xyz
'x, y, z'
_cell_length_a     32.07769
_cell_length_b     28.970454
_cell_length_c     29.778254
_cell_angle_alpha  89.382714
_cell_angle_beta   87.613363
_cell_angle_gamma 102.58735
loop_
_atom_site_label
_atom_site_type_symbol
_atom_site_fract_x
_atom_site_fract_y
_atom_site_fract_z
_atom_type_partial_charge
O0 O 0.2784 0.19135 0.17852 0.0
Cd1 Cd 0.22375 0.2243 0.2202 0.0
O2 O 0.23377 0.12941 0.15337 0.0
Cd3 Cd 0.18163 0.14466 0.19566 0.0
O4 O 0.14732 0.13212 0.26089 0.0
C5 C 0.1608 0.10379 0.28661 0.0
O6 O 0.19303 0.08584 0.2721 0.0
C7 C 0.27163 0.15396 0.1554 0.0
C8 C 0.18429 0.28556 0.17226 0.0
O9 O 0.22164 0.29974 0.18745 0.0
O10 O 0.16566 0.24202 0.17878 0.0
O11 O 0.40496 0.93082 0.7935 0.0
Cd12 Cd 0.37861 0.90905 0.71933 0.0
O13 O 0.35177 0.88294 0.83074 0.0
Cd14 Cd 0.31107 0.87561 0.77273 0.0
O15 O 0.25737 0.887 0.73396 0.0
C16 C 0.26063 0.8994 0.69264 0.0
O17 O 0.29773 0.90417 0.67064 0.0
C18 C 0.38813 0.91134 0.8303 0.0
C19 C 0.40598 0.82808 0.69184 0.0
O20 O 0.43044 0.86924 0.68642 0.0
O21 O 0.36843 0.82518 0.70972 0.0
O22 O 0.75002 0.45026 0.88448 0.0
Cd23 Cd 0.67419 0.42104 0.86717 0.0
O24 O 0.76953 0.38262 0.87319 0.0
Cd25 Cd 0.7056 0.33803 0.86917 0.0
O26 O 0.66893 0.27111 0.89843 0.0
C27 C 0.63202 0.26617 0.91754 0.0
O28 O 0.61304 0.30204 0.91772 0.0
C29 C 0.77893 0.42626 0.88252 0.0
C30 C 0.64259 0.46181 0.79299 0.0
O31 O 0.64484 0.48172 0.83131 0.0
O32 O 0.65651 0.42369 0.78929 0.0
O33 O 0.93066 0.73738 0.34557 0.0
Cd34 Cd 0.89019 0.65959 0.3231 0.0
O35 O 0.92697 0.71744 0.41731 0.0
Cd36 Cd 0.88191 0.65085 0.40811 0.0
O37 O 0.81475 0.61696 0.4197 0.0
C38 C 0.79604 0.63215 0.45307 0.0
O39 O 0.81836 0.66486 0.47804 0.0
C40 C 0.93995 0.74784 0.38588 0.0
C41 C 0.92729 0.62115 0.25 0.0
O42 O 0.90515 0.65247 0.24446 0.0
O43 O 0.93241 0.60808 0.29028 0.0
O44 O 0.89957 0.86213 0.7692 0.0
Cd45 Cd 0.85897 0.82232 0.83483 0.0
O46 O 0.86617 0.92088 0.76764 0.0
Cd47 Cd 0.82472 0.89933 0.82784 0.0
O48 O 0.77302 0.90776 0.87525 0.0
C49 C 0.74848 0.93248 0.8597 0.0
O50 O 0.75578 0.94878 0.81809 0.0
C51 C 0.89399 0.9 0.75085 0.0
C52 C 0.906 0.76743 0.87991 0.0
O53 O 0.88623 0.75243 0.84461 0.0
O54 O 0.90354 0.80841 0.89409 0.0
O55 O 0.67805 0.13871 0.31459 0.0
Cd56 Cd 0.71299 0.16217 0.38527 0.0
O57 O 0.66227 0.20861 0.30725 0.0
Cd58 Cd 0.68135 0.23664 0.37266 0.0
O59 O 0.66545 0.28276 0.42517 0.0
C60 C 0.62862 0.2921 0.42311 0.0
O61 O 0.60358 0.27265 0.39147 0.0
C62 C 0.66218 0.16776 0.29203 0.0
C63 C 0.78609 0.12715 0.40073 0.0
O64 O 0.74902 0.10496 0.41576 0.0
O65 O 0.78849 0.16528 0.37757 0.0
O66 O 0.43989 0.76342 0.23613 0.0
Cd67 Cd 0.4021 0.69142 0.27829 0.0
O68 O 0.38 0.76899 0.20482 0.0
Cd69 Cd 0.33748 0.70268 0.22669 0.0
O70 O 0.2783 0.65434 0.20938 0.0
C71 C 0.26691 0.657 0.16917 0.0
O72 O 0.29154 0.68712 0.14081 0.0
C73 C 0.4194 0.78558 0.21084 0.0
C74 C 0.44149 0.66113 0.3525 0.0
O75 O 0.4446 0.6431 0.3137 0.0
O76 O 0.42102 0.6944 0.35599 0.0
O77 O 0.15464 0.42955 0.77904 0.0
Cd78 Cd 0.18457 0.39297 0.71486 0.0
O79 O 0.13735 0.36106 0.8154 0.0
Cd80 Cd 0.15677 0.31998 0.76055 0.0
O81 O 0.15838 0.26733 0.70908 0.0
C82 C 0.12268 0.24562 0.69499 0.0
O83 O 0.0875 0.25671 0.71124 0.0
C84 C 0.13883 0.4053 0.81401 0.0
C85 C 0.2703 0.4337 0.69325 0.0
O86 O 0.24029 0.44632 0.67241 0.0
O87 O 0.25979 0.40203 0.7245 0.0
Zn88 Zn 0.07214 -0.0055 0.54485 0.0
Zn89 Zn 0.99174 0.01738 0.50139 0.0
C90 C 0.11273 0.08508 0.57931 0.0
O91 O 0.14761 0.07284 0.56374 0.0
C92 C 0.99066 0.94234 0.43677 0.0
O93 O -0.00456 0.97693 0.4068 0.0
O94 O 0.12023 0.96735 0.56845 0.0
O95 O 0.01716 0.95257 0.56939 0.0
O96 O 0.98482 0.01201 0.56893 0.0
C97 C 0.11881 0.95627 0.61003 0.0
O98 O 0.08594 0.96194 0.63552 0.0
O99 O 0.07666 0.05762 0.57393 0.0
C100 C 0.93993 0.06635 0.44653 0.0
O101 O 0.97617 0.08281 0.42377 0.0
O102 O 0.93938 0.03859 0.48007 0.0
O103 O 0.04471 0.06005 0.47335 0.0
O104 O 0.08259 0.00536 0.47797 0.0
O105 O 0.98856 0.95164 0.47832 0.0
C106 C 0.99011 0.9739 0.5871 0.0
C107 C 0.07471 0.04145 0.45814 0.0
Zn108 Zn 0.55796 7e-05 0.0387 0.0
Zn109 Zn 0.49586 0.05256 0.08812 0.0
C110 C 0.48729 0.94627 0.98866 0.0
O111 O 0.49197 0.91012 0.01344 0.0
C112 C 0.55827 0.11359 0.13957 0.0
O113 O 0.54517 0.14615 0.11636 0.0
O114 O 0.60479 0.97269 0.00914 0.0
O115 O 0.5815 0.07059 0.03723 0.0
O116 O 0.51744 0.08339 0.02822 0.0
C117 C 0.61417 0.98707 0.96869 0.0
O118 O 0.59346 0.01694 0.95132 0.0
O119 O 0.5103 0.98705 -0.0048 0.0
C120 C 0.4116 0.07277 0.08959 0.0
O121 O 0.40616 0.04108 0.05789 0.0
O122 O 0.44736 0.08304 0.10814 0.0
O123 O 0.47417 0.98191 0.09376 0.0
O124 O 0.53786 0.96571 0.09796 0.0
O125 O 0.54203 0.07031 0.13282 0.0
C126 C 0.55762 0.09555 0.02077 0.0
C127 C 0.498 0.95576 0.10838 0.0
Zn128 Zn 0.54422 0.51629 0.55086 0.0
Zn129 Zn 0.51299 0.59669 0.60689 0.0
C130 C 0.61646 0.55793 0.49567 0.0
O131 O 0.59215 0.53346 0.46589 0.0
C132 C 0.44575 0.52989 0.65436 0.0
O133 O 0.46983 0.54352 0.68849 0.0
O134 O 0.54888 0.45454 0.52265 0.0
O135 O 0.53982 0.50305 0.61796 0.0
O136 O 0.56032 0.57643 0.64019 0.0
C137 C 0.58117 0.43796 0.53204 0.0
O138 O 0.60773 0.46005 0.56122 0.0
O139 O 0.60175 0.55863 0.53592 0.0
C140 C 0.46137 0.66164 0.63022 0.0
O141 O 0.43473 0.63116 0.60691 0.0
O142 O 0.49873 0.65481 0.63586 0.0
O143 O 0.52255 0.61488 0.54107 0.0
O144 O 0.50033 0.5424 0.51726 0.0
O145 O 0.4588 0.54592 0.61516 0.0
C146 C 0.55953 0.53256 0.64537 0.0
C147 C 0.50513 0.58685 0.51134 0.0
Zn148 Zn 0.01308 0.55537 -0.00521 0.0
Zn149 Zn 0.05016 0.48009 0.06156 0.0
C150 C 0.94987 0.49981 0.94066 0.0
O151 O 0.98189 0.50851 0.91062 0.0
C152 C 0.10902 0.53912 0.1124 0.0
O153 O 0.08305 0.51288 0.1426 0.0
O154 O 0.00828 0.61526 0.96212 0.0
O155 O 0.0137 0.56974 0.06145 0.0
O156 O -0.00025 0.49845 0.09359 0.0
C157 C 0.98132 0.63738 0.9788 0.0
O158 O 0.96109 0.62245 0.01721 0.0
O159 O 0.95625 0.51315 0.98087 0.0
C160 C 0.10421 0.41958 0.08241 0.0
O161 O 0.12704 0.4487 0.05201 0.0
O162 O 0.06646 0.42419 0.09314 0.0
O163 O 0.04575 0.46122 -0.00308 0.0
O164 O 0.0619 0.53175 0.9642 0.0
O165 O 0.10091 0.53373 0.07104 0.0
C166 C -0.00151 0.54208 0.09453 0.0
C167 C 0.06299 0.48817 0.96428 0.0
C168 C 0.10742 0.11084 0.3488 0.0
C169 C 0.13991 0.08963 0.33137 0.0
H170 H 0.06181 0.11288 0.40284 0.0
C171 C 0.15191 0.05389 0.35682 0.0
H172 H 0.09762 0.13868 0.33014 0.0
C173 C 0.13122 0.03887 0.39828 0.0
C174 C 0.09819 0.05942 0.41541 0.0
H175 H 0.1769 0.03688 0.34443 0.0
H176 H 0.14085 0.01072 0.41663 0.0
C177 C 0.0869 0.09603 0.3905 0.0
C178 C 0.4433 0.96283 0.87526 0.0
C179 C 0.41134 0.92141 0.8722 0.0
H180 H 0.49166 0.00359 0.9148 0.0
C181 C 0.40281 0.88934 0.90893 0.0
H182 H 0.45039 0.98838 0.84764 0.0
C183 C 0.42696 0.89773 0.94728 0.0
C184 C 0.45939 0.93882 0.94993 0.0
H185 H 0.37836 0.85711 0.90751 0.0
H186 H 0.42052 0.87186 0.97464 0.0
C187 C 0.46677 0.97168 0.91386 0.0
C188 C 0.61046 0.4528 0.71734 0.0
C189 C 0.62279 0.48098 0.75469 0.0
H190 H 0.58041 0.44659 0.65423 0.0
C191 C 0.61451 0.52673 0.75567 0.0
H192 H 0.61612 0.41732 0.71554 0.0
C193 C 0.59439 0.54385 0.72007 0.0
C194 C 0.58143 0.51526 0.68309 0.0
H195 H 0.62358 0.54935 0.78396 0.0
H196 H 0.58847 0.5792 0.72183 0.0
C197 C 0.58976 0.46955 0.68222 0.0
C198 C 0.9564 0.55607 0.21381 0.0
C199 C 0.94617 0.60077 0.21084 0.0
H200 H 0.98025 0.50188 0.17914 0.0
C201 C 0.95358 0.6259 0.16972 0.0
H202 H 0.95094 0.53587 0.24514 0.0
C203 C 0.97101 0.60695 0.13237 0.0
C204 C 0.98045 0.56182 0.1348 0.0
H205 H 0.94634 0.66058 0.16649 0.0
H206 H 0.97688 0.62779 0.1015 0.0
C207 C 0.97297 0.53653 0.17599 0.0
C208 C 0.35009 0.15535 0.14708 0.0
C209 C 0.308 0.13635 0.13486 0.0
H210 H 0.41568 0.14992 0.14282 0.0
C211 C 0.30069 0.09767 0.10589 0.0
H212 H 0.35686 0.185 0.16948 0.0
C213 C 0.33447 0.07771 0.09043 0.0
C214 C 0.37626 0.0956 0.10401 0.0
H215 H 0.26869 0.08217 0.0958 0.0
H216 H 0.32759 0.04748 0.06873 0.0
C217 C 0.38379 0.13502 0.13205 0.0
C218 C 0.22667 0.92537 0.62493 0.0
C219 C 0.2236 0.91134 0.67053 0.0
H220 H 0.196 0.95037 0.5699 0.0
C221 C 0.18519 0.91048 0.6954 0.0
H222 H 0.25576 0.92637 0.60477 0.0
C223 C 0.15107 0.92438 0.67548 0.0
C224 C 0.15439 0.93929 0.63015 0.0
H225 H 0.18163 0.89981 0.73057 0.0
H226 H 0.1222 0.92388 0.69587 0.0
C227 C 0.1924 0.9391 0.60492 0.0
C228 C 0.85786 0.43124 0.87623 0.0
C229 C 0.82296 0.44734 0.89539 0.0
H230 H 0.92557 0.43577 0.87527 0.0
C231 C 0.83009 0.48049 0.92987 0.0
H232 H 0.85321 0.40548 0.84978 0.0
C233 C 0.87119 0.49642 0.94558 0.0
C234 C 0.90609 0.4805 0.92622 0.0
H235 H 0.80369 0.49302 0.94563 0.0
H236 H 0.8758 0.52184 0.97233 0.0
C237 C 0.89915 0.4483 0.89097 0.0
C238 C 0.73085 0.62575 0.50393 0.0
C239 C 0.74985 0.61412 0.46343 0.0
H240 H 0.67374 0.61721 0.54592 0.0
C241 C 0.72425 0.58543 0.4329 0.0
H242 H 0.74971 0.64788 0.52813 0.0
C243 C 0.68063 0.56835 0.44288 0.0
C244 C 0.6618 0.5792 0.48378 0.0
H245 H 0.73788 0.57609 0.40129 0.0
H246 H 0.66189 0.54584 0.41886 0.0
C247 C 0.68731 0.60827 0.51412 0.0
C248 C 0.18808 0.36043 0.12835 0.0
C249 C 0.16328 0.3189 0.14854 0.0
H250 H 0.18881 0.42422 0.09128 0.0
C251 C 0.11847 0.31037 0.14679 0.0
H252 H 0.22264 0.368 0.12909 0.0
C253 C 0.0989 0.34323 0.12584 0.0
C254 C 0.12388 0.38455 0.10532 0.0
H255 H 0.09853 0.27875 0.16233 0.0
H256 H 0.06434 0.33608 0.12527 0.0
C257 C 0.16865 0.39258 0.10658 0.0
C258 C 0.56974 0.21337 0.95928 0.0
C259 C 0.61231 0.22161 0.94233 0.0
H260 H 0.51902 0.16698 -0.00285 0.0
C261 C 0.6365 0.1876 0.95078 0.0
H262 H 0.55025 0.23882 0.95337 0.0
C263 C 0.61878 0.14672 0.97629 0.0
C264 C 0.57631 0.13863 -0.00654 0.0
H265 H 0.66944 0.19289 0.93832 0.0
H266 H 0.63837 0.12141 0.98246 0.0
C267 C 0.55185 0.17218 0.98435 0.0
C268 C 0.96803 0.80871 0.44243 0.0
C269 C 0.96038 0.79699 0.39736 0.0
H270 H 0.9837 0.86368 0.49016 0.0
C271 C 0.96746 0.83353 0.36461 0.0
H272 H 0.9632 0.78149 0.46853 0.0
C273 C 0.97918 0.88088 0.3771 0.0
C274 C 0.98399 0.89256 0.42258 0.0
H275 H 0.96197 0.82575 0.32957 0.0
H276 H 0.9827 0.90829 0.35132 0.0
C277 C 0.97964 0.85593 0.45489 0.0
C278 C 0.46434 0.78593 0.67081 0.0
C279 C 0.42052 0.78518 0.67755 0.0
H280 H 0.5118 0.74702 0.65144 0.0
C281 C 0.39058 0.74309 0.67016 0.0
H282 H 0.48817 0.81783 0.6765 0.0
C283 C 0.40406 0.70295 0.6552 0.0
C284 C 0.44781 0.7037 0.64821 0.0
H285 H 0.35662 0.7414 0.67506 0.0
H286 H 0.38013 0.67125 0.64907 0.0
C287 C 0.47789 0.74538 0.65673 0.0
C288 C 0.91265 0.96074 0.68843 0.0
C289 C 0.91915 0.91929 0.70936 0.0
H290 H 0.92979 0.01039 0.63352 0.0
C291 C 0.94935 0.89606 0.68978 0.0
H292 H 0.88962 0.97952 0.70256 0.0
C293 C 0.97235 0.91374 0.65008 0.0
C294 C 0.96569 0.95507 0.62908 0.0
H295 H 0.95516 0.86404 0.70498 0.0
H296 H -0.00466 0.89495 0.63587 0.0
C297 C 0.93565 0.97843 0.64877 0.0
C298 C 0.62794 0.10589 0.23827 0.0
C299 C 0.64039 0.15369 0.24979 0.0
H300 H 0.59204 0.05555 0.19435 0.0
C301 C 0.62852 0.18817 0.22248 0.0
H302 H 0.63655 0.07847 0.25861 0.0
C303 C 0.6032 0.17514 0.18576 0.0
C304 C 0.58887 0.12726 0.17555 0.0
H305 H 0.63785 0.22537 0.23014 0.0
H306 H 0.59379 0.20265 0.16625 0.0
C307 C 0.6023 0.09277 0.20155 0.0
C308 C 0.46951 0.59796 0.39228 0.0
C309 C 0.45949 0.64289 0.39247 0.0
H310 H 0.49115 0.5447 0.42983 0.0
C311 C 0.46528 0.66943 0.43185 0.0
H312 H 0.46521 0.57651 0.36255 0.0
C313 C 0.4807 0.65149 0.47014 0.0
C314 C 0.48988 0.60617 0.47026 0.0
H315 H 0.45788 0.70414 0.43312 0.0
H316 H 0.48466 0.6728 0.49998 0.0
C317 C 0.48413 0.5796 0.43089 0.0
C318 C 0.10467 0.40034 0.89144 0.0
C319 C 0.12091 0.42762 0.85273 0.0
H320 H 0.07396 0.39792 0.95665 0.0
C321 C 0.11869 0.47557 0.85121 0.0
H322 H 0.10592 0.36334 0.89391 0.0
C323 C 0.10011 0.49555 0.88745 0.0
C324 C 0.0834 0.46794 0.92589 0.0
H325 H 0.13088 0.49757 0.82187 0.0
H326 H 0.09853 0.53246 0.88516 0.0
C327 C 0.0862 0.42021 0.9275 0.0
C328 C 0.68787 0.97325 0.86974 0.0
C329 C 0.71337 0.9446 0.88787 0.0
H330 H 0.6369 0.00892 0.88085 0.0
C331 C 0.70543 0.92891 0.93294 0.0
H332 H 0.69298 0.98593 0.83517 0.0
C333 C 0.67293 0.94217 0.95938 0.0
C334 C 0.6479 0.97143 0.94122 0.0
H335 H 0.72451 0.90675 0.94789 0.0
H336 H 0.66771 0.92991 -0.00593 0.0
C337 C 0.65563 0.98652 0.89605 0.0
C338 C 0.82323 0.07332 0.4427 0.0
C339 C 0.82512 0.11017 0.41104 0.0
H340 H 0.85789 0.03078 0.47897 0.0
C341 C 0.86494 0.13169 0.39042 0.0
H342 H 0.79308 0.05605 0.45928 0.0
C343 C 0.90206 0.11701 0.4015 0.0
C344 C 0.90031 0.08077 0.43379 0.0
H345 H 0.86753 0.16013 0.36585 0.0
H346 H 0.93224 0.13458 0.38518 0.0
C347 C 0.86042 0.05893 0.4541 0.0
C348 C 0.21562 0.62739 0.10916 0.0
C349 C 0.22625 0.62744 0.15455 0.0
H350 H 0.17021 0.59951 0.06009 0.0
C351 C 0.19751 0.59927 0.18587 0.0
H352 H 0.23707 0.64878 0.08417 0.0
C353 C 0.15914 0.57143 0.17212 0.0
C354 C 0.14871 0.57085 0.12668 0.0
H355 H 0.20459 0.59866 0.22109 0.0
H356 H 0.1379 0.5499 0.19719 0.0
C357 C 0.17728 0.59925 0.09533 0.0
C358 C 0.32766 0.48067 0.64113 0.0
C359 C 0.3157 0.45565 0.682 0.0
H360 H 0.37838 0.52288 0.59988 0.0
C361 C 0.34739 0.45272 0.71245 0.0
H362 H 0.304 0.48327 0.61687 0.0
C363 C 0.38992 0.47587 0.70296 0.0
C364 C 0.40173 0.50164 0.66246 0.0
H365 H 0.33915 0.43364 0.74419 0.0
H366 H 0.41346 0.47411 0.7276 0.0
C367 C 0.37031 0.50307 0.63127 0.0
C368 C 0.94612 0.70251 0.88192 0.0
C369 C 0.92954 0.73743 0.90444 0.0
H370 H 0.97695 0.64419 0.88786 0.0
C371 C 0.93374 0.74184 0.95103 0.0
H372 H 0.94347 0.69855 0.84595 0.0
C373 C 0.95207 0.7102 0.97505 0.0
C374 C 0.96766 0.67455 0.95271 0.0
H375 H 0.92117 0.7684 0.96921 0.0
H376 H 0.95324 0.71297 0.01126 0.0
C377 C 0.96556 0.67171 0.90579 0.0
C378 C 0.41533 0.85821 0.16697 0.0
C379 C 0.44059 0.8303 0.18695 0.0
H380 H 0.41344 0.91919 0.12697 0.0
C381 C 0.48534 0.84465 0.18189 0.0
H382 H 0.38075 0.84845 0.17032 0.0
C383 C 0.50426 0.88549 0.15645 0.0
C384 C 0.47876 0.91291 0.13601 0.0
H385 H 0.50566 0.82386 0.19675 0.0
H386 H 0.53879 0.89543 0.15264 0.0
C387 C 0.43412 0.89896 0.14203 0.0
C388 C 0.15782 0.1944 0.64533 0.0
C389 C 0.12039 0.20658 0.6629 0.0
H390 H 0.1848 0.14669 0.60485 0.0
C391 C 0.08051 0.17997 0.65076 0.0
H392 H 0.18904 0.2143 0.65389 0.0
C393 C 0.07807 0.14121 0.62275 0.0
C394 C 0.11546 0.12827 0.60611 0.0
H395 H 0.05105 0.18847 0.66359 0.0
H396 H 0.0468 0.12092 0.61478 0.0
C397 C 0.15538 0.15569 0.61715 0.0
C398 C 0.64176 0.34846 0.48698 0.0
C399 C 0.61505 0.32672 0.45351 0.0
H400 H 0.65181 0.40031 0.53831 0.0
C401 C 0.57582 0.33983 0.44803 0.0
H402 H 0.6721 0.33905 0.49219 0.0
C403 C 0.56419 0.37501 0.47439 0.0
C404 C 0.59148 0.39776 0.50694 0.0
H405 H 0.5544 0.32368 0.42265 0.0
H406 H 0.53422 0.38504 0.46858 0.0
C407 C 0.63006 0.38355 0.51347 0.0
loop_
_geom_bond_atom_site_label_1
_geom_bond_atom_site_label_2
_geom_bond_distance
_geom_bond_site_symmetry_2
_ccdc_geom_bond_type
O0 Cd1 2.300 . S
O0 C7 1.275 . S
Cd1 O0 2.300 . S
Cd1 O9 2.381 . S
Cd1 O10 2.378 . S
O2 Cd3 2.385 . S
O2 C7 1.255 . S
Cd3 O2 2.385 . S
Cd3 O4 2.317 . S
O4 Cd3 2.317 . S
O4 C5 1.232 . S
C5 O4 1.232 . S
C5 O6 1.218 . S
O6 C5 1.218 . S
C7 O0 1.275 . S
C7 O2 1.255 . S
C8 O9 1.258 . S
C8 O10 1.256 . S
O9 Cd1 2.381 . S
O9 C8 1.258 . S
O10 Cd1 2.378 . S
O10 C8 1.256 . S
O11 Cd12 2.300 . S
O11 C18 1.275 . S
Cd12 O11 2.300 . S
Cd12 O20 2.381 . S
Cd12 O21 2.378 . S
O13 Cd14 2.385 . S
O13 C18 1.255 . S
Cd14 O13 2.385 . S
Cd14 O15 2.317 . S
O15 Cd14 2.317 . S
O15 C16 1.232 . S
C16 O15 1.232 . S
C16 O17 1.218 . S
O17 C16 1.218 . S
C18 O11 1.275 . S
C18 O13 1.255 . S
C19 O20 1.258 . S
C19 O21 1.256 . S
O20 Cd12 2.381 . S
O20 C19 1.258 . S
O21 Cd12 2.378 . S
O21 C19 1.256 . S
O22 Cd23 2.300 . S
O22 C29 1.275 . S
Cd23 O22 2.300 . S
Cd23 O31 2.381 . S
Cd23 O32 2.378 . S
O24 Cd25 2.385 . S
O24 C29 1.255 . S
Cd25 O24 2.385 . S
Cd25 O26 2.317 . S
O26 Cd25 2.317 . S
O26 C27 1.232 . S
C27 O26 1.232 . S
C27 O28 1.218 . S
O28 C27 1.218 . S
C29 O22 1.275 . S
C29 O24 1.255 . S
C30 O31 1.258 . S
C30 O32 1.256 . S
O31 Cd23 2.381 . S
O31 C30 1.258 . S
O32 Cd23 2.378 . S
O32 C30 1.256 . S
O33 Cd34 2.300 . S
O33 C40 1.275 . S
Cd34 O33 2.300 . S
Cd34 O42 2.381 . S
Cd34 O43 2.378 . S
O35 Cd36 2.385 . S
O35 C40 1.255 . S
Cd36 O35 2.385 . S
Cd36 O37 2.317 . S
O37 Cd36 2.317 . S
O37 C38 1.232 . S
C38 O37 1.232 . S
C38 O39 1.218 . S
O39 C38 1.218 . S
C40 O33 1.275 . S
C40 O35 1.255 . S
C41 O42 1.258 . S
C41 O43 1.256 . S
O42 Cd34 2.381 . S
O42 C41 1.258 . S
O43 Cd34 2.378 . S
O43 C41 1.256 . S
O44 Cd45 2.300 . S
O44 C51 1.275 . S
Cd45 O44 2.300 . S
Cd45 O53 2.381 . S
Cd45 O54 2.378 . S
O46 Cd47 2.385 . S
O46 C51 1.255 . S
Cd47 O46 2.385 . S
Cd47 O48 2.317 . S
O48 Cd47 2.317 . S
O48 C49 1.232 . S
C49 O48 1.232 . S
C49 O50 1.218 . S
O50 C49 1.218 . S
C51 O44 1.275 . S
C51 O46 1.255 . S
C52 O53 1.258 . S
C52 O54 1.256 . S
O53 Cd45 2.381 . S
O53 C52 1.258 . S
O54 Cd45 2.378 . S
O54 C52 1.256 . S
O55 Cd56 2.300 . S
O55 C62 1.275 . S
Cd56 O55 2.300 . S
Cd56 O64 2.381 . S
Cd56 O65 2.378 . S
O57 Cd58 2.385 . S
O57 C62 1.255 . S
Cd58 O57 2.385 . S
Cd58 O59 2.317 . S
O59 Cd58 2.317 . S
O59 C60 1.232 . S
C60 O59 1.232 . S
C60 O61 1.218 . S
O61 C60 1.218 . S
C62 O55 1.275 . S
C62 O57 1.255 . S
C63 O64 1.258 . S
C63 O65 1.256 . S
O64 Cd56 2.381 . S
O64 C63 1.258 . S
O65 Cd56 2.378 . S
O65 C63 1.256 . S
O66 Cd67 2.300 . S
O66 C73 1.275 . S
Cd67 O66 2.300 . S
Cd67 O75 2.381 . S
Cd67 O76 2.378 . S
O68 Cd69 2.385 . S
O68 C73 1.255 . S
Cd69 O68 2.385 . S
Cd69 O70 2.317 . S
O70 Cd69 2.317 . S
O70 C71 1.232 . S
C71 O70 1.232 . S
C71 O72 1.218 . S
O72 C71 1.218 . S
C73 O66 1.275 . S
C73 O68 1.255 . S
C74 O75 1.258 . S
C74 O76 1.256 . S
O75 Cd67 2.381 . S
O75 C74 1.258 . S
O76 Cd67 2.378 . S
O76 C74 1.256 . S
O77 Cd78 2.300 . S
O77 C84 1.275 . S
Cd78 O77 2.300 . S
Cd78 O86 2.381 . S
Cd78 O87 2.378 . S
O79 Cd80 2.385 . S
O79 C84 1.255 . S
Cd80 O79 2.385 . S
Cd80 O81 2.317 . S
O81 Cd80 2.317 . S
O81 C82 1.232 . S
C82 O81 1.232 . S
C82 O83 1.218 . S
O83 C82 1.218 . S
C84 O77 1.275 . S
C84 O79 1.255 . S
C85 O86 1.258 . S
C85 O87 1.256 . S
O86 Cd78 2.381 . S
O86 C85 1.258 . S
O87 Cd78 2.378 . S
O87 C85 1.256 . S
Zn88 O94 1.969 1_545 S
Zn88 O95 1.965 1_545 S
Zn88 O99 2.024 . S
Zn88 O104 1.969 . S
Zn89 O96 1.969 . S
Zn89 O102 1.969 1_565 S
Zn89 O103 1.965 1_665 S
Zn89 O105 2.024 . S
C90 O91 1.229 . S
C90 O99 1.058 . S
O91 C90 1.229 . S
C92 O93 1.229 . S
C92 O105 1.058 . S
O93 C92 1.229 . S
O94 Zn88 1.969 1_565 S
O94 C97 1.267 . S
O95 Zn88 1.965 1_565 S
O95 C106 1.260 1_455 S
O96 Zn89 1.969 . S
O96 C106 1.258 . S
C97 O94 1.267 . S
C97 O98 1.228 . S
O98 C97 1.228 . S
O99 Zn88 2.024 . S
O99 C90 1.058 . S
C100 O101 1.228 . S
C100 O102 1.267 . S
O101 C100 1.228 . S
O102 Zn89 1.969 1_545 S
O102 C100 1.267 . S
O103 Zn89 1.965 1_445 S
O103 C107 1.260 . S
O104 Zn88 1.969 . S
O104 C107 1.258 . S
O105 Zn89 2.024 . S
O105 C92 1.058 . S
C106 O95 1.260 1_655 S
C106 O96 1.258 . S
C107 O103 1.260 . S
C107 O104 1.258 . S
Zn108 O114 1.969 1_545 S
Zn108 O115 1.965 . S
Zn108 O119 2.024 1_554 S
Zn108 O124 1.969 1_545 S
Zn109 O116 1.969 . S
Zn109 O122 1.969 . S
Zn109 O123 1.965 . S
Zn109 O125 2.024 . S
C110 O111 1.229 . S
C110 O119 1.058 1_565 S
O111 C110 1.229 . S
C112 O113 1.229 . S
C112 O125 1.058 . S
O113 C112 1.229 . S
O114 Zn108 1.969 1_565 S
O114 C117 1.267 1_554 S
O115 Zn108 1.965 . S
O115 C126 1.260 . S
O116 Zn109 1.969 . S
O116 C126 1.258 . S
C117 O114 1.267 1_556 S
C117 O118 1.228 1_565 S
O118 C117 1.228 1_545 S
O119 Zn108 2.024 1_556 S
O119 C110 1.058 1_545 S
C120 O121 1.228 . S
C120 O122 1.267 . S
O121 C120 1.228 . S
O122 Zn109 1.969 . S
O122 C120 1.267 . S
O123 Zn109 1.965 . S
O123 C127 1.260 1_545 S
O124 Zn108 1.969 1_565 S
O124 C127 1.258 . S
O125 Zn109 2.024 . S
O125 C112 1.058 . S
C126 O115 1.260 . S
C126 O116 1.258 . S
C127 O123 1.260 1_565 S
C127 O124 1.258 . S
Zn128 O134 1.969 . S
Zn128 O135 1.965 . S
Zn128 O139 2.024 . S
Zn128 O144 1.969 . S
Zn129 O136 1.969 . S
Zn129 O142 1.969 . S
Zn129 O143 1.965 . S
Zn129 O145 2.024 . S
C130 O131 1.229 . S
C130 O139 1.058 . S
O131 C130 1.229 . S
C132 O133 1.229 . S
C132 O145 1.058 . S
O133 C132 1.229 . S
O134 Zn128 1.969 . S
O134 C137 1.267 . S
O135 Zn128 1.965 . S
O135 C146 1.260 . S
O136 Zn129 1.969 . S
O136 C146 1.258 . S
C137 O134 1.267 . S
C137 O138 1.228 . S
O138 C137 1.228 . S
O139 Zn128 2.024 . S
O139 C130 1.058 . S
C140 O141 1.228 . S
C140 O142 1.267 . S
O141 C140 1.228 . S
O142 Zn129 1.969 . S
O142 C140 1.267 . S
O143 Zn129 1.965 . S
O143 C147 1.260 . S
O144 Zn128 1.969 . S
O144 C147 1.258 . S
O145 Zn129 2.024 . S
O145 C132 1.058 . S
C146 O135 1.260 . S
C146 O136 1.258 . S
C147 O143 1.260 . S
C147 O144 1.258 . S
Zn148 O154 1.969 . S
Zn148 O155 1.965 1_556 S
Zn148 O159 2.024 1_455 S
Zn148 O164 1.969 . S
Zn149 O156 1.969 . S
Zn149 O162 1.969 . S
Zn149 O163 1.965 . S
Zn149 O165 2.024 . S
C150 O151 1.229 . S
C150 O159 1.058 . S
O151 C150 1.229 . S
C152 O153 1.229 . S
C152 O165 1.058 . S
O153 C152 1.229 . S
O154 Zn148 1.969 . S
O154 C157 1.267 1_455 S
O155 Zn148 1.965 1_554 S
O155 C166 1.260 . S
O156 Zn149 1.969 . S
O156 C166 1.258 . S
C157 O154 1.267 1_655 S
C157 O158 1.228 . S
O158 C157 1.228 . S
O159 Zn148 2.024 1_655 S
O159 C150 1.058 . S
C160 O161 1.228 . S
C160 O162 1.267 . S
O161 C160 1.228 . S
O162 Zn149 1.969 . S
O162 C160 1.267 . S
O163 Zn149 1.965 . S
O163 C167 1.260 1_554 S
O164 Zn148 1.969 . S
O164 C167 1.258 . S
O165 Zn149 2.024 . S
O165 C152 1.058 . S
C166 O155 1.260 . S
C166 O156 1.258 . S
C167 O163 1.260 1_556 S
C167 O164 1.258 . S
C168 C169 1.387 . S
C168 H172 0.950 . S
C168 C177 1.390 . S
C169 C168 1.387 . S
C169 C171 1.387 . S
H170 C177 0.950 . S
C171 C169 1.387 . S
C171 C173 1.390 . S
C171 H175 0.950 . S
H172 C168 0.950 . S
C173 C171 1.390 . S
C173 C174 1.387 . S
C173 H176 0.950 . S
C174 C173 1.387 . S
C174 C177 1.387 . S
H175 C171 0.950 . S
H176 C173 0.950 . S
C177 C168 1.390 . S
C177 H170 0.950 . S
C177 C174 1.387 . S
C178 C179 1.387 . S
C178 H182 0.950 . S
C178 C187 1.390 . S
C179 C178 1.387 . S
C179 C181 1.387 . S
H180 C187 0.950 1_545 S
C181 C179 1.387 . S
C181 C183 1.390 . S
C181 H185 0.950 . S
H182 C178 0.950 . S
C183 C181 1.390 . S
C183 C184 1.387 . S
C183 H186 0.950 . S
C184 C183 1.387 . S
C184 C187 1.387 . S
H185 C181 0.950 . S
H186 C183 0.950 . S
C187 C178 1.390 . S
C187 H180 0.950 1_565 S
C187 C184 1.387 . S
C188 C189 1.387 . S
C188 H192 0.950 . S
C188 C197 1.390 . S
C189 C188 1.387 . S
C189 C191 1.387 . S
H190 C197 0.950 . S
C191 C189 1.387 . S
C191 C193 1.390 . S
C191 H195 0.950 . S
H192 C188 0.950 . S
C193 C191 1.390 . S
C193 C194 1.387 . S
C193 H196 0.950 . S
C194 C193 1.387 . S
C194 C197 1.387 . S
H195 C191 0.950 . S
H196 C193 0.950 . S
C197 C188 1.390 . S
C197 H190 0.950 . S
C197 C194 1.387 . S
C198 C199 1.387 . S
C198 H202 0.950 . S
C198 C207 1.390 . S
C199 C198 1.387 . S
C199 C201 1.387 . S
H200 C207 0.950 1_455 S
C201 C199 1.387 . S
C201 C203 1.390 . S
C201 H205 0.950 . S
H202 C198 0.950 . S
C203 C201 1.390 . S
C203 C204 1.387 . S
C203 H206 0.950 . S
C204 C203 1.387 . S
C204 C207 1.387 . S
H205 C201 0.950 . S
H206 C203 0.950 . S
C207 C198 1.390 . S
C207 H200 0.950 1_655 S
C207 C204 1.387 . S
C208 C209 1.387 . S
C208 H212 0.950 . S
C208 C217 1.390 . S
C209 C208 1.387 . S
C209 C211 1.387 . S
H210 C217 0.950 . S
C211 C209 1.387 . S
C211 C213 1.390 . S
C211 H215 0.950 . S
H212 C208 0.950 . S
C213 C211 1.390 . S
C213 C214 1.387 . S
C213 H216 0.950 . S
C214 C213 1.387 . S
C214 C217 1.387 . S
H215 C211 0.950 . S
H216 C213 0.950 . S
C217 C208 1.390 . S
C217 H210 0.950 . S
C217 C214 1.387 . S
C218 C219 1.387 . S
C218 H222 0.950 . S
C218 C227 1.390 . S
C219 C218 1.387 . S
C219 C221 1.387 . S
H220 C227 0.950 . S
C221 C219 1.387 . S
C221 C223 1.390 . S
C221 H225 0.950 . S
H222 C218 0.950 . S
C223 C221 1.390 . S
C223 C224 1.387 . S
C223 H226 0.950 . S
C224 C223 1.387 . S
C224 C227 1.387 . S
H225 C221 0.950 . S
H226 C223 0.950 . S
C227 C218 1.390 . S
C227 H220 0.950 . S
C227 C224 1.387 . S
C228 C229 1.387 . S
C228 H232 0.950 . S
C228 C237 1.390 . S
C229 C228 1.387 . S
C229 C231 1.387 . S
H230 C237 0.950 . S
C231 C229 1.387 . S
C231 C233 1.390 . S
C231 H235 0.950 . S
H232 C228 0.950 . S
C233 C231 1.390 . S
C233 C234 1.387 . S
C233 H236 0.950 . S
C234 C233 1.387 . S
C234 C237 1.387 . S
H235 C231 0.950 . S
H236 C233 0.950 . S
C237 C228 1.390 . S
C237 H230 0.950 . S
C237 C234 1.387 . S
C238 C239 1.387 . S
C238 H242 0.950 . S
C238 C247 1.390 . S
C239 C238 1.387 . S
C239 C241 1.387 . S
H240 C247 0.950 . S
C241 C239 1.387 . S
C241 C243 1.390 . S
C241 H245 0.950 . S
H242 C238 0.950 . S
C243 C241 1.390 . S
C243 C244 1.387 . S
C243 H246 0.950 . S
C244 C243 1.387 . S
C244 C247 1.387 . S
H245 C241 0.950 . S
H246 C243 0.950 . S
C247 C238 1.390 . S
C247 H240 0.950 . S
C247 C244 1.387 . S
C248 C249 1.387 . S
C248 H252 0.950 . S
C248 C257 1.390 . S
C249 C248 1.387 . S
C249 C251 1.387 . S
H250 C257 0.950 . S
C251 C249 1.387 . S
C251 C253 1.390 . S
C251 H255 0.950 . S
H252 C248 0.950 . S
C253 C251 1.390 . S
C253 C254 1.387 . S
C253 H256 0.950 . S
C254 C253 1.387 . S
C254 C257 1.387 . S
H255 C251 0.950 . S
H256 C253 0.950 . S
C257 C248 1.390 . S
C257 H250 0.950 . S
C257 C254 1.387 . S
C258 C259 1.387 . S
C258 H262 0.950 1_556 S
C258 C267 1.390 1_556 S
C259 C258 1.387 . S
C259 C261 1.387 . S
H260 C267 0.950 . S
C261 C259 1.387 . S
C261 C263 1.390 . S
C261 H265 0.950 . S
H262 C258 0.950 1_554 S
C263 C261 1.390 . S
C263 C264 1.387 . S
C263 H266 0.950 . S
C264 C263 1.387 . S
C264 C267 1.387 1_556 S
H265 C261 0.950 . S
H266 C263 0.950 . S
C267 C258 1.390 1_554 S
C267 H260 0.950 . S
C267 C264 1.387 1_554 S
C268 C269 1.387 . S
C268 H272 0.950 . S
C268 C277 1.390 . S
C269 C268 1.387 . S
C269 C271 1.387 . S
H270 C277 0.950 . S
C271 C269 1.387 . S
C271 C273 1.390 . S
C271 H275 0.950 . S
H272 C268 0.950 . S
C273 C271 1.390 . S
C273 C274 1.387 . S
C273 H276 0.950 . S
C274 C273 1.387 . S
C274 C277 1.387 . S
H275 C271 0.950 . S
H276 C273 0.950 . S
C277 C268 1.390 . S
C277 H270 0.950 . S
C277 C274 1.387 . S
C278 C279 1.387 . S
C278 H282 0.950 . S
C278 C287 1.390 . S
C279 C278 1.387 . S
C279 C281 1.387 . S
H280 C287 0.950 . S
C281 C279 1.387 . S
C281 C283 1.390 . S
C281 H285 0.950 . S
H282 C278 0.950 . S
C283 C281 1.390 . S
C283 C284 1.387 . S
C283 H286 0.950 . S
C284 C283 1.387 . S
C284 C287 1.387 . S
H285 C281 0.950 . S
H286 C283 0.950 . S
C287 C278 1.390 . S
C287 H280 0.950 . S
C287 C284 1.387 . S
C288 C289 1.387 . S
C288 H292 0.950 . S
C288 C297 1.390 . S
C289 C288 1.387 . S
C289 C291 1.387 . S
H290 C297 0.950 1_545 S
C291 C289 1.387 . S
C291 C293 1.390 . S
C291 H295 0.950 . S
H292 C288 0.950 . S
C293 C291 1.390 . S
C293 C294 1.387 . S
C293 H296 0.950 . S
C294 C293 1.387 . S
C294 C297 1.387 . S
H295 C291 0.950 . S
H296 C293 0.950 . S
C297 C288 1.390 . S
C297 H290 0.950 1_565 S
C297 C294 1.387 . S
C298 C299 1.387 . S
C298 H302 0.950 . S
C298 C307 1.390 . S
C299 C298 1.387 . S
C299 C301 1.387 . S
H300 C307 0.950 . S
C301 C299 1.387 . S
C301 C303 1.390 . S
C301 H305 0.950 . S
H302 C298 0.950 . S
C303 C301 1.390 . S
C303 C304 1.387 . S
C303 H306 0.950 . S
C304 C303 1.387 . S
C304 C307 1.387 . S
H305 C301 0.950 . S
H306 C303 0.950 . S
C307 C298 1.390 . S
C307 H300 0.950 . S
C307 C304 1.387 . S
C308 C309 1.387 . S
C308 H312 0.950 . S
C308 C317 1.390 . S
C309 C308 1.387 . S
C309 C311 1.387 . S
H310 C317 0.950 . S
C311 C309 1.387 . S
C311 C313 1.390 . S
C311 H315 0.950 . S
H312 C308 0.950 . S
C313 C311 1.390 . S
C313 C314 1.387 . S
C313 H316 0.950 . S
C314 C313 1.387 . S
C314 C317 1.387 . S
H315 C311 0.950 . S
H316 C313 0.950 . S
C317 C308 1.390 . S
C317 H310 0.950 . S
C317 C314 1.387 . S
C318 C319 1.387 . S
C318 H322 0.950 . S
C318 C327 1.390 . S
C319 C318 1.387 . S
C319 C321 1.387 . S
H320 C327 0.950 . S
C321 C319 1.387 . S
C321 C323 1.390 . S
C321 H325 0.950 . S
H322 C318 0.950 . S
C323 C321 1.390 . S
C323 C324 1.387 . S
C323 H326 0.950 . S
C324 C323 1.387 . S
C324 C327 1.387 . S
H325 C321 0.950 . S
H326 C323 0.950 . S
C327 C318 1.390 . S
C327 H320 0.950 . S
C327 C324 1.387 . S
C328 C329 1.387 . S
C328 H332 0.950 . S
C328 C337 1.390 . S
C329 C328 1.387 . S
C329 C331 1.387 . S
H330 C337 0.950 1_545 S
C331 C329 1.387 . S
C331 C333 1.390 . S
C331 H335 0.950 . S
H332 C328 0.950 . S
C333 C331 1.390 . S
C333 C334 1.387 . S
C333 H336 0.950 . S
C334 C333 1.387 . S
C334 C337 1.387 . S
H335 C331 0.950 . S
H336 C333 0.950 . S
C337 C328 1.390 . S
C337 H330 0.950 1_565 S
C337 C334 1.387 . S
C338 C339 1.387 . S
C338 H342 0.950 . S
C338 C347 1.390 . S
C339 C338 1.387 . S
C339 C341 1.387 . S
H340 C347 0.950 . S
C341 C339 1.387 . S
C341 C343 1.390 . S
C341 H345 0.950 . S
H342 C338 0.950 . S
C343 C341 1.390 . S
C343 C344 1.387 . S
C343 H346 0.950 . S
C344 C343 1.387 . S
C344 C347 1.387 . S
H345 C341 0.950 . S
H346 C343 0.950 . S
C347 C338 1.390 . S
C347 H340 0.950 . S
C347 C344 1.387 . S
C348 C349 1.387 . S
C348 H352 0.950 . S
C348 C357 1.390 . S
C349 C348 1.387 . S
C349 C351 1.387 . S
H350 C357 0.950 . S
C351 C349 1.387 . S
C351 C353 1.390 . S
C351 H355 0.950 . S
H352 C348 0.950 . S
C353 C351 1.390 . S
C353 C354 1.387 . S
C353 H356 0.950 . S
C354 C353 1.387 . S
C354 C357 1.387 . S
H355 C351 0.950 . S
H356 C353 0.950 . S
C357 C348 1.390 . S
C357 H350 0.950 . S
C357 C354 1.387 . S
C358 C359 1.387 . S
C358 H362 0.950 . S
C358 C367 1.390 . S
C359 C358 1.387 . S
C359 C361 1.387 . S
H360 C367 0.950 . S
C361 C359 1.387 . S
C361 C363 1.390 . S
C361 H365 0.950 . S
H362 C358 0.950 . S
C363 C361 1.390 . S
C363 C364 1.387 . S
C363 H366 0.950 . S
C364 C363 1.387 . S
C364 C367 1.387 . S
H365 C361 0.950 . S
H366 C363 0.950 . S
C367 C358 1.390 . S
C367 H360 0.950 . S
C367 C364 1.387 . S
C368 C369 1.387 . S
C368 H372 0.950 . S
C368 C377 1.390 . S
C369 C368 1.387 . S
C369 C371 1.387 . S
H370 C377 0.950 . S
C371 C369 1.387 . S
C371 C373 1.390 . S
C371 H375 0.950 . S
H372 C368 0.950 . S
C373 C371 1.390 . S
C373 C374 1.387 . S
C373 H376 0.950 . S
C374 C373 1.387 . S
C374 C377 1.387 . S
H375 C371 0.950 . S
H376 C373 0.950 . S
C377 C368 1.390 . S
C377 H370 0.950 . S
C377 C374 1.387 . S
C378 C379 1.387 . S
C378 H382 0.950 . S
C378 C387 1.390 . S
C379 C378 1.387 . S
C379 C381 1.387 . S
H380 C387 0.950 . S
C381 C379 1.387 . S
C381 C383 1.390 . S
C381 H385 0.950 . S
H382 C378 0.950 . S
C383 C381 1.390 . S
C383 C384 1.387 . S
C383 H386 0.950 . S
C384 C383 1.387 . S
C384 C387 1.387 . S
H385 C381 0.950 . S
H386 C383 0.950 . S
C387 C378 1.390 . S
C387 H380 0.950 . S
C387 C384 1.387 . S
C388 C389 1.387 . S
C388 H392 0.950 . S
C388 C397 1.390 . S
C389 C388 1.387 . S
C389 C391 1.387 . S
H390 C397 0.950 . S
C391 C389 1.387 . S
C391 C393 1.390 . S
C391 H395 0.950 . S
H392 C388 0.950 . S
C393 C391 1.390 . S
C393 C394 1.387 . S
C393 H396 0.950 . S
C394 C393 1.387 . S
C394 C397 1.387 . S
H395 C391 0.950 . S
H396 C393 0.950 . S
C397 C388 1.390 . S
C397 H390 0.950 . S
C397 C394 1.387 . S
C398 C399 1.387 . S
C398 H402 0.950 . S
C398 C407 1.390 . S
C399 C398 1.387 . S
C399 C401 1.387 . S
H400 C407 0.950 . S
C401 C399 1.387 . S
C401 C403 1.390 . S
C401 H405 0.950 . S
H402 C398 0.950 . S
C403 C401 1.390 . S
C403 C404 1.387 . S
C403 H406 0.950 . S
C404 C403 1.387 . S
C404 C407 1.387 . S
H405 C401 0.950 . S
H406 C403 0.950 . S
C407 C398 1.390 . S
C407 H400 0.950 . S
C407 C404 1.387 . S
C169 C5 1.491 . S
C174 C107 1.760 . S
C179 C18 1.318 . S
C184 C110 1.377 . S
C194 C146 1.643 . S
C189 C30 1.673 . S
C199 C41 1.461 . S
C204 C166 1.459 1_655 S
C214 C120 1.860 . S
C209 C7 1.781 . S
C224 C97 1.667 . S
C219 C16 1.525 . S
C234 C150 1.597 . S
C229 C29 1.669 . S
C244 C130 1.105 . S
C239 C38 0.926 . S
C249 C8 1.451 . S
C254 C160 1.416 . S
C264 C126 1.804 1_556 S
C259 C27 1.681 . S
C269 C40 1.709 . S
C274 C92 1.702 . S
C279 C19 1.153 . S
C284 C140 1.086 . S
C294 C106 1.561 . S
C289 C51 1.427 . S
C299 C62 1.440 . S
C304 C112 1.430 . S
C309 C74 1.742 . S
C314 C147 1.714 . S
C319 C84 1.524 . S
C324 C167 1.538 . S
C329 C49 1.650 . S
C334 C117 1.897 . S
C344 C100 1.462 . S
C339 C63 1.496 . S
C354 C152 1.517 . S
C349 C71 1.497 . S
C364 C132 1.244 . S
C359 C85 1.357 . S
C369 C52 1.420 . S
C374 C157 1.344 . S
C384 C127 1.879 . S
C379 C73 1.868 . S
C394 C90 1.542 . S
C389 C82 1.430 . S
C399 C60 1.286 . S
C404 C137 1.453 . S
