# Generated by pormake.
# Topology ocu, (6,8)-cn, num edge types: 1
# Building blocks:
#     Node 0, Type 0, BuildingBlock: CUWYAW_clean_sbu_0, # of connection points: 6
#     Node 1, Type 0, BuildingBlock: CUWYAW_clean_sbu_0, # of connection points: 6
#     Node 2, Type 0, BuildingBlock: CUWYAW_clean_sbu_0, # of connection points: 6
#     Node 3, Type 0, BuildingBlock: CUWYAW_clean_sbu_0, # of connection points: 6
#     Node 4, Type 0, BuildingBlock: CUWYAW_clean_sbu_0, # of connection points: 6
#     Node 5, Type 0, BuildingBlock: CUWYAW_clean_sbu_0, # of connection points: 6
#     Node 6, Type 0, BuildingBlock: CUWYAW_clean_sbu_0, # of connection points: 6
#     Node 7, Type 0, BuildingBlock: CUWYAW_clean_sbu_0, # of connection points: 6
#     Node 8, Type 1, BuildingBlock: GIZVER_clean_sbu_0, # of connection points: 8
#     Node 9, Type 1, BuildingBlock: GIZVER_clean_sbu_0, # of connection points: 8
#     Node 10, Type 1, BuildingBlock: GIZVER_clean_sbu_0, # of connection points: 8
#     Node 11, Type 1, BuildingBlock: GIZVER_clean_sbu_0, # of connection points: 8
#     Node 12, Type 1, BuildingBlock: GIZVER_clean_sbu_0, # of connection points: 8
#     Node 13, Type 1, BuildingBlock: GIZVER_clean_sbu_0, # of connection points: 8
#     Edge 14, Type (0, 1), BuildingBlock: XUDNAN_clean_linker_2, # of connection points: 2
#     Edge 15, Type (0, 1), BuildingBlock: XUDNAN_clean_linker_2, # of connection points: 2
#     Edge 16, Type (0, 1), BuildingBlock: XUDNAN_clean_linker_2, # of connection points: 2
#     Edge 17, Type (0, 1), BuildingBlock: XUDNAN_clean_linker_2, # of connection points: 2
#     Edge 18, Type (0, 1), BuildingBlock: XUDNAN_clean_linker_2, # of connection points: 2
#     Edge 19, Type (0, 1), BuildingBlock: XUDNAN_clean_linker_2, # of connection points: 2
#     Edge 20, Type (0, 1), BuildingBlock: XUDNAN_clean_linker_2, # of connection points: 2
#     Edge 21, Type (0, 1), BuildingBlock: XUDNAN_clean_linker_2, # of connection points: 2
#     Edge 22, Type (0, 1), BuildingBlock: XUDNAN_clean_linker_2, # of connection points: 2
#     Edge 23, Type (0, 1), BuildingBlock: XUDNAN_clean_linker_2, # of connection points: 2
#     Edge 24, Type (0, 1), BuildingBlock: XUDNAN_clean_linker_2, # of connection points: 2
#     Edge 25, Type (0, 1), BuildingBlock: XUDNAN_clean_linker_2, # of connection points: 2
#     Edge 26, Type (0, 1), BuildingBlock: XUDNAN_clean_linker_2, # of connection points: 2
#     Edge 27, Type (0, 1), BuildingBlock: XUDNAN_clean_linker_2, # of connection points: 2
#     Edge 28, Type (0, 1), BuildingBlock: XUDNAN_clean_linker_2, # of connection points: 2
#     Edge 29, Type (0, 1), BuildingBlock: XUDNAN_clean_linker_2, # of connection points: 2
#     Edge 30, Type (0, 1), BuildingBlock: XUDNAN_clean_linker_2, # of connection points: 2
#     Edge 31, Type (0, 1), BuildingBlock: XUDNAN_clean_linker_2, # of connection points: 2
#     Edge 32, Type (0, 1), BuildingBlock: XUDNAN_clean_linker_2, # of connection points: 2
#     Edge 33, Type (0, 1), BuildingBlock: XUDNAN_clean_linker_2, # of connection points: 2
#     Edge 34, Type (0, 1), BuildingBlock: XUDNAN_clean_linker_2, # of connection points: 2
#     Edge 35, Type (0, 1), BuildingBlock: XUDNAN_clean_linker_2, # of connection points: 2
#     Edge 36, Type (0, 1), BuildingBlock: XUDNAN_clean_linker_2, # of connection points: 2
#     Edge 37, Type (0, 1), BuildingBlock: XUDNAN_clean_linker_2, # of connection points: 2
#     Edge 38, Type (0, 1), BuildingBlock: XUDNAN_clean_linker_2, # of connection points: 2
#     Edge 39, Type (0, 1), BuildingBlock: XUDNAN_clean_linker_2, # of connection points: 2
#     Edge 40, Type (0, 1), BuildingBlock: XUDNAN_clean_linker_2, # of connection points: 2
#     Edge 41, Type (0, 1), BuildingBlock: XUDNAN_clean_linker_2, # of connection points: 2
#     Edge 42, Type (0, 1), BuildingBlock: XUDNAN_clean_linker_2, # of connection points: 2
#     Edge 43, Type (0, 1), BuildingBlock: XUDNAN_clean_linker_2, # of connection points: 2
#     Edge 44, Type (0, 1), BuildingBlock: XUDNAN_clean_linker_2, # of connection points: 2
#     Edge 45, Type (0, 1), BuildingBlock: XUDNAN_clean_linker_2, # of connection points: 2
#     Edge 46, Type (0, 1), BuildingBlock: XUDNAN_clean_linker_2, # of connection points: 2
#     Edge 47, Type (0, 1), BuildingBlock: XUDNAN_clean_linker_2, # of connection points: 2
#     Edge 48, Type (0, 1), BuildingBlock: XUDNAN_clean_linker_2, # of connection points: 2
#     Edge 49, Type (0, 1), BuildingBlock: XUDNAN_clean_linker_2, # of connection points: 2
#     Edge 50, Type (0, 1), BuildingBlock: XUDNAN_clean_linker_2, # of connection points: 2
#     Edge 51, Type (0, 1), BuildingBlock: XUDNAN_clean_linker_2, # of connection points: 2
#     Edge 52, Type (0, 1), BuildingBlock: XUDNAN_clean_linker_2, # of connection points: 2
#     Edge 53, Type (0, 1), BuildingBlock: XUDNAN_clean_linker_2, # of connection points: 2
#     Edge 54, Type (0, 1), BuildingBlock: XUDNAN_clean_linker_2, # of connection points: 2
#     Edge 55, Type (0, 1), BuildingBlock: XUDNAN_clean_linker_2, # of connection points: 2
#     Edge 56, Type (0, 1), BuildingBlock: XUDNAN_clean_linker_2, # of connection points: 2
#     Edge 57, Type (0, 1), BuildingBlock: XUDNAN_clean_linker_2, # of connection points: 2
#     Edge 58, Type (0, 1), BuildingBlock: XUDNAN_clean_linker_2, # of connection points: 2
#     Edge 59, Type (0, 1), BuildingBlock: XUDNAN_clean_linker_2, # of connection points: 2
#     Edge 60, Type (0, 1), BuildingBlock: XUDNAN_clean_linker_2, # of connection points: 2
#     Edge 61, Type (0, 1), BuildingBlock: XUDNAN_clean_linker_2, # of connection points: 2
# Relax obj value: 0.185
# Max RMSD: 0.246
# Mean RMSD: 0.164
data_MOF--net-ocu--node1-CUWYAW_clean_sbu_0--node2-GIZVER_clean_sbu_0--edge1-XUDNAN_clean_linker_2
_symmetry_space_group_name_H-M    P1
_symmetry_Int_Tables_number       1
_symmetry_cell_setting            triclinic
loop_
_symmetry_equiv_pos_as_xyz
'x, y, z'
_cell_length_a     44.46135
_cell_length_b     46.252131
_cell_length_c     32.130613
_cell_angle_alpha  83.549945
_cell_angle_beta   103.59624
_cell_angle_gamma 108.76875
loop_
_atom_site_label
_atom_site_type_symbol
_atom_site_fract_x
_atom_site_fract_y
_atom_site_fract_z
_atom_type_partial_charge
C0 C 0.33606 0.3462 0.39102 0.0
Eu1 Eu 0.31679 0.3125 0.32391 0.0
C2 C 0.31825 0.35468 0.41811 0.0
C3 C 0.33338 0.37975 0.44438 0.0
C4 C 0.31552 0.38907 0.46777 0.0
C5 C 0.28231 0.37335 0.4651 0.0
C6 C 0.26752 0.34781 0.43934 0.0
C7 C 0.28533 0.33858 0.41603 0.0
C8 C 0.34972 0.33533 0.25652 0.0
C9 C 0.2514 0.32963 0.26813 0.0
C10 C 0.26511 0.24515 0.19437 0.0
Eu11 Eu 0.28421 0.27808 0.2624 0.0
C12 C 0.28299 0.23665 0.16735 0.0
C13 C 0.26782 0.21185 0.14055 0.0
C14 C 0.28552 0.20316 0.11615 0.0
C15 C 0.31854 0.21934 0.11822 0.0
C16 C 0.33347 0.2443 0.14503 0.0
C17 C 0.31588 0.25283 0.16942 0.0
C18 C 0.25155 0.25527 0.32988 0.0
C19 C 0.349 0.26027 0.32196 0.0
O20 O 0.33388 0.31735 0.39289 0.0
O21 O 0.33212 0.35725 0.35174 0.0
O22 O 0.36288 0.32985 0.29577 0.0
O23 O 0.31883 0.32617 0.25362 0.0
O24 O 0.27157 0.33042 0.306 0.0
O25 O 0.25274 0.31102 0.24081 0.0
O26 O 0.26793 0.27409 0.19319 0.0
O27 O 0.26835 0.23364 0.23339 0.0
O28 O 0.23817 0.26068 0.29064 0.0
O29 O 0.28241 0.26439 0.33255 0.0
O30 O 0.32813 0.25709 0.28419 0.0
O31 O 0.3483 0.28087 0.34649 0.0
H32 H 0.35879 0.39243 0.44614 0.0
H33 H 0.32752 0.40877 0.48746 0.0
H34 H 0.24185 0.33562 0.43586 0.0
H35 H 0.27321 0.31928 0.39558 0.0
H36 H 0.24245 0.19906 0.13883 0.0
H37 H 0.27345 0.18385 0.09576 0.0
H38 H 0.35904 0.25678 0.1481 0.0
H39 H 0.32807 0.27185 0.19036 0.0
C40 C 0.83818 0.30022 0.18915 0.0
Eu41 Eu 0.81214 0.2928 0.25467 0.0
C42 C 0.82343 0.30167 0.14317 0.0
C43 C 0.83428 0.29005 0.11289 0.0
C44 C 0.82971 0.30176 0.07036 0.0
C45 C 0.8199 0.32838 0.06219 0.0
C46 C 0.79761 0.32993 0.08586 0.0
C47 C 0.80133 0.31839 0.12821 0.0
C48 C 0.75215 0.25092 0.25014 0.0
C49 C 0.761 0.33262 0.24828 0.0
C50 C 0.75522 0.28609 0.3976 0.0
Eu51 Eu 0.78721 0.29614 0.33726 0.0
C52 C 0.76322 0.28407 0.44446 0.0
C53 C 0.74174 0.28804 0.4671 0.0
C54 C 0.74219 0.27581 0.50882 0.0
C55 C 0.76229 0.25719 0.52628 0.0
C56 C 0.78971 0.26175 0.50847 0.0
C57 C 0.78942 0.27397 0.46661 0.0
C58 C 0.84552 0.34026 0.34133 0.0
C59 C 0.83922 0.25682 0.34369 0.0
O60 O 0.83992 0.32319 0.2113 0.0
O61 O 0.8292 0.27359 0.20906 0.0
O62 O 0.76898 0.2556 0.22113 0.0
O63 O 0.76811 0.26872 0.28012 0.0
O64 O 0.78198 0.32591 0.23037 0.0
O65 O 0.75766 0.32245 0.28788 0.0
O66 O 0.75851 0.26409 0.37818 0.0
O67 O 0.76559 0.31321 0.37958 0.0
O68 O 0.82865 0.33438 0.37061 0.0
O69 O 0.8312 0.32174 0.31138 0.0
O70 O 0.81866 0.26396 0.36209 0.0
O71 O 0.84198 0.26652 0.3037 0.0
H72 H 0.84943 0.27523 0.12287 0.0
H73 H 0.84307 0.29674 0.04937 0.0
H74 H 0.7847 0.34672 0.07711 0.0
H75 H 0.79007 0.32548 0.15001 0.0
H76 H 0.72251 0.29761 0.45121 0.0
H77 H 0.72283 0.27651 0.52327 0.0
H78 H 0.80834 0.25124 0.52327 0.0
H79 H 0.80765 0.27263 0.45032 0.0
C80 C 0.78823 0.74558 0.4076 0.0
Eu81 Eu 0.7901 0.77484 0.33335 0.0
C82 C 0.81199 0.73419 0.43953 0.0
C83 C 0.81265 0.70421 0.43816 0.0
C84 C 0.83992 0.69607 0.46001 0.0
C85 C 0.86687 0.71789 0.48311 0.0
C86 C 0.86429 0.74636 0.48949 0.0
C87 C 0.83688 0.75443 0.46797 0.0
C88 C 0.74696 0.75849 0.25816 0.0
C89 C 0.83658 0.75287 0.27916 0.0
C90 C 0.81907 0.84557 0.19315 0.0
Eu91 Eu 0.81173 0.81309 0.26377 0.0
C92 C 0.81622 0.87497 0.17461 0.0
C93 C 0.81662 0.882 0.1312 0.0
C94 C 0.80536 0.90584 0.11039 0.0
C95 C 0.79297 0.92225 0.13283 0.0
C96 C 0.79673 0.91749 0.17762 0.0
C97 C 0.80824 0.89391 0.19835 0.0
C98 C 0.85448 0.82869 0.3398 0.0
C99 C 0.76457 0.83524 0.31691 0.0
O100 O 0.79606 0.77519 0.40216 0.0
O101 O 0.77648 0.73198 0.37111 0.0
O102 O 0.73863 0.76044 0.29366 0.0
O103 O 0.77753 0.76617 0.26411 0.0
O104 O 0.82582 0.75064 0.3158 0.0
O105 O 0.83161 0.77502 0.25113 0.0
O106 O 0.79168 0.82528 0.19829 0.0
O107 O 0.84281 0.84645 0.22627 0.0
O108 O 0.86298 0.82613 0.30483 0.0
O109 O 0.82403 0.82169 0.33275 0.0
O110 O 0.77894 0.83966 0.28306 0.0
O111 O 0.76545 0.8106 0.34213 0.0
H112 H 0.79334 0.68784 0.41761 0.0
H113 H 0.84114 0.67359 0.45574 0.0
H114 H 0.88462 0.7634 0.50758 0.0
H115 H 0.83656 0.77743 0.47086 0.0
H116 H 0.82316 0.86762 0.11271 0.0
H117 H 0.80333 0.90939 0.07606 0.0
H118 H 0.78732 0.92944 0.19611 0.0
H119 H 0.80816 0.88881 0.23208 0.0
C120 C 0.25824 0.85236 0.2934 0.0
Eu121 Eu 0.28523 0.81035 0.29558 0.0
C122 C 0.23174 0.86112 0.30147 0.0
C123 C 0.2267 0.88801 0.28102 0.0
C124 C 0.21116 0.90373 0.29873 0.0
C125 C 0.20086 0.89259 0.3371 0.0
C126 C 0.20219 0.86352 0.35413 0.0
C127 C 0.21749 0.84774 0.3362 0.0
C128 C 0.26224 0.76312 0.2408 0.0
C129 C 0.2624 0.74969 0.3605 0.0
C130 C 0.35604 0.73214 0.31074 0.0
Eu131 Eu 0.32531 0.77084 0.31454 0.0
C132 C 0.35609 0.71445 0.27571 0.0
C133 C 0.35677 0.68424 0.28385 0.0
C134 C 0.35654 0.66713 0.25056 0.0
C135 C 0.3558 0.68017 0.20885 0.0
C136 C 0.354 0.71007 0.20054 0.0
C137 C 0.35391 0.72703 0.23366 0.0
C138 C 0.34747 0.81854 0.36884 0.0
C139 C 0.34303 0.82843 0.24503 0.0
O140 O 0.27807 0.84539 0.32727 0.0
O141 O 0.2527 0.83573 0.26053 0.0
O142 O 0.26228 0.79093 0.22943 0.0
O143 O 0.27428 0.76191 0.28025 0.0
O144 O 0.25965 0.77729 0.34656 0.0
O145 O 0.28564 0.7413 0.35049 0.0
O146 O 0.32871 0.72447 0.32342 0.0
O147 O 0.36891 0.7617 0.30732 0.0
O148 O 0.34811 0.79097 0.38075 0.0
O149 O 0.33668 0.81939 0.32908 0.0
O150 O 0.3406 0.79889 0.25312 0.0
O151 O 0.32639 0.8399 0.26386 0.0
H152 H 0.23756 0.8984 0.25394 0.0
H153 H 0.20961 0.92571 0.28447 0.0
H154 H 0.19446 0.85431 0.38374 0.0
H155 H 0.2212 0.82684 0.35213 0.0
H156 H 0.35792 0.67406 0.31602 0.0
H157 H 0.35838 0.64422 0.25775 0.0
H158 H 0.35341 0.72053 0.16856 0.0
H159 H 0.35261 0.75009 0.22646 0.0
C160 C 0.3303 0.78461 0.68136 0.0
Eu161 Eu 0.30684 0.78993 0.74635 0.0
C162 C 0.34041 0.80075 0.64299 0.0
C163 C 0.36298 0.79238 0.62708 0.0
C164 C 0.37864 0.81122 0.5967 0.0
C165 C 0.37186 0.83871 0.58206 0.0
C166 C 0.34622 0.84497 0.59422 0.0
C167 C 0.33081 0.82624 0.62505 0.0
C168 C 0.25138 0.74443 0.75516 0.0
C169 C 0.26323 0.83385 0.74123 0.0
C170 C 0.26668 0.78862 0.88679 0.0
Eu171 Eu 0.2931 0.79296 0.8217 0.0
C172 C 0.25781 0.76178 0.91501 0.0
C173 C 0.24983 0.76385 0.95392 0.0
C174 C 0.23769 0.73719 0.9777 0.0
C175 C 0.23343 0.70857 0.96235 0.0
C176 C 0.24352 0.70677 0.92493 0.0
C177 C 0.2558 0.73327 0.90147 0.0
C178 C 0.35053 0.83605 0.81674 0.0
C179 C 0.33895 0.75142 0.8279 0.0
O180 O 0.34832 0.79569 0.71779 0.0
O181 O 0.29938 0.77614 0.68116 0.0
O182 O 0.25378 0.76411 0.72337 0.0
O183 O 0.27739 0.75173 0.78319 0.0
O184 O 0.28317 0.82757 0.72137 0.0
O185 O 0.26136 0.82142 0.78012 0.0
O186 O 0.24999 0.78527 0.84735 0.0
O187 O 0.2978 0.80077 0.88892 0.0
O188 O 0.34529 0.81682 0.84848 0.0
O189 O 0.32526 0.83105 0.78691 0.0
O190 O 0.31724 0.75582 0.84613 0.0
O191 O 0.34157 0.76475 0.78967 0.0
H192 H 0.37032 0.77251 0.64054 0.0
H193 H 0.39833 0.80577 0.58826 0.0
H194 H 0.34016 0.86578 0.58284 0.0
H195 H 0.31307 0.83273 0.63684 0.0
H196 H 0.25152 0.78578 0.96476 0.0
H197 H 0.22937 0.73875 0.00624 0.0
H198 H 0.23988 0.6848 0.91244 0.0
H199 H 0.26193 0.73135 0.87143 0.0
C200 C 0.33885 0.25659 0.70256 0.0
Eu201 Eu 0.32205 0.28268 0.75913 0.0
C202 C 0.36039 0.24066 0.6907 0.0
C203 C 0.39451 0.25261 0.70032 0.0
C204 C 0.41405 0.239 0.68539 0.0
C205 C 0.40039 0.21282 0.6601 0.0
C206 C 0.36616 0.20104 0.65022 0.0
C207 C 0.34659 0.21468 0.66529 0.0
C208 C 0.35586 0.3345 0.80214 0.0
C209 C 0.3388 0.25381 0.85764 0.0
C210 C 0.27284 0.32065 0.88887 0.0
Eu211 Eu 0.29184 0.29624 0.83276 0.0
C212 C 0.25752 0.34184 0.90289 0.0
C213 C 0.22415 0.33925 0.88924 0.0
C214 C 0.20985 0.35698 0.90708 0.0
C215 C 0.22828 0.37788 0.9395 0.0
C216 C 0.26167 0.38028 0.95285 0.0
C217 C 0.27588 0.36276 0.93492 0.0
C218 C 0.25828 0.24452 0.78921 0.0
C219 C 0.27608 0.32538 0.73503 0.0
O220 O 0.31689 0.24182 0.72484 0.0
O221 O 0.35085 0.28563 0.71113 0.0
O222 O 0.35488 0.33166 0.76201 0.0
O223 O 0.34116 0.3094 0.81853 0.0
O224 O 0.33973 0.25458 0.81658 0.0
O225 O 0.32379 0.26951 0.87294 0.0
O226 O 0.30195 0.33115 0.88021 0.0
O227 O 0.25456 0.29669 0.86688 0.0
O228 O 0.26037 0.24682 0.82984 0.0
O229 O 0.27262 0.26985 0.77304 0.0
O230 O 0.27849 0.32744 0.77657 0.0
O231 O 0.28734 0.30655 0.71952 0.0
H232 H 0.40624 0.27284 0.71902 0.0
H233 H 0.44013 0.24945 0.69335 0.0
H234 H 0.35438 0.18095 0.63129 0.0
H235 H 0.3204 0.20505 0.65652 0.0
H236 H 0.20889 0.32316 0.86511 0.0
H237 H 0.18426 0.35429 0.89521 0.0
H238 H 0.27702 0.3952 0.97825 0.0
H239 H 0.30137 0.365 0.9472 0.0
C240 C 0.74532 0.32971 0.76669 0.0
Eu241 Eu 0.78377 0.29563 0.78387 0.0
C242 C 0.73747 0.34841 0.79425 0.0
C243 C 0.73899 0.3788 0.78166 0.0
C244 C 0.73401 0.39749 0.80904 0.0
C245 C 0.72731 0.38597 0.84935 0.0
C246 C 0.72592 0.35557 0.86191 0.0
C247 C 0.73105 0.337 0.83472 0.0
C248 C 0.77296 0.24637 0.73251 0.0
C249 C 0.75655 0.24403 0.85379 0.0
C250 C 0.85817 0.22589 0.83785 0.0
Eu251 Eu 0.82308 0.26274 0.82267 0.0
C252 C 0.8573 0.20435 0.80735 0.0
C253 C 0.86611 0.17776 0.82074 0.0
C254 C 0.86525 0.15801 0.79016 0.0
C255 C 0.85568 0.16499 0.7463 0.0
C256 C 0.8456 0.19089 0.73339 0.0
C257 C 0.8461 0.21023 0.76364 0.0
C258 C 0.83388 0.3105 0.87494 0.0
C259 C 0.85072 0.31688 0.75254 0.0
O260 O 0.77515 0.33921 0.76149 0.0
O261 O 0.73514 0.30016 0.77335 0.0
O262 O 0.77494 0.27431 0.71936 0.0
O263 O 0.77717 0.24588 0.77297 0.0
O264 O 0.75992 0.27288 0.84102 0.0
O265 O 0.77697 0.23183 0.8444 0.0
O266 O 0.83143 0.22012 0.85145 0.0
O267 O 0.86924 0.25457 0.82614 0.0
O268 O 0.83372 0.283 0.88811 0.0
O269 O 0.82924 0.31193 0.83437 0.0
O270 O 0.85094 0.28942 0.7698 0.0
O271 O 0.82704 0.32674 0.75701 0.0
H272 H 0.74431 0.38813 0.75079 0.0
H273 H 0.73488 0.42076 0.79842 0.0
H274 H 0.72111 0.3462 0.89299 0.0
H275 H 0.73024 0.31381 0.84564 0.0
H276 H 0.87426 0.1727 0.85446 0.0
H277 H 0.87367 0.13832 0.80054 0.0
H278 H 0.83847 0.19679 0.6997 0.0
H279 H 0.83834 0.23022 0.75271 0.0
C280 C 0.79763 0.8388 0.89814 0.0
Eu281 Eu 0.81139 0.81782 0.83546 0.0
C282 C 0.78561 0.86239 0.90973 0.0
C283 C 0.80149 0.89387 0.90541 0.0
C284 C 0.78866 0.91519 0.91674 0.0
C285 C 0.75969 0.90527 0.93211 0.0
C286 C 0.74428 0.87379 0.93691 0.0
C287 C 0.75715 0.85265 0.92598 0.0
C288 C 0.85415 0.84651 0.78068 0.0
C289 C 0.77048 0.82986 0.73966 0.0
C290 C 0.81484 0.75049 0.70076 0.0
Eu291 Eu 0.80186 0.77216 0.76367 0.0
C292 C 0.82593 0.72648 0.68853 0.0
C293 C 0.82211 0.72191 0.64487 0.0
C294 C 0.83962 0.70549 0.6318 0.0
C295 C 0.86145 0.69371 0.66229 0.0
C296 C 0.86328 0.69632 0.70612 0.0
C297 C 0.84563 0.7125 0.71915 0.0
C298 C 0.75789 0.74383 0.8173 0.0
C299 C 0.84667 0.76326 0.85928 0.0
O300 O 0.77644 0.81849 0.87191 0.0
O301 O 0.82722 0.84645 0.8912 0.0
O302 O 0.85282 0.85818 0.81505 0.0
O303 O 0.83362 0.81956 0.7795 0.0
O304 O 0.77779 0.83612 0.78088 0.0
O305 O 0.77767 0.80711 0.72626 0.0
O306 O 0.83643 0.76985 0.72796 0.0
O307 O 0.78524 0.74358 0.70734 0.0
O308 O 0.75919 0.73245 0.7827 0.0
O309 O 0.77897 0.77054 0.81912 0.0
O310 O 0.8364 0.75485 0.81874 0.0
O311 O 0.83997 0.78636 0.87232 0.0
H312 H 0.82355 0.90198 0.89307 0.0
H313 H 0.80097 0.93936 0.91271 0.0
H314 H 0.72227 0.86547 0.94939 0.0
H315 H 0.7447 0.8285 0.93009 0.0
H316 H 0.80729 0.73278 0.62074 0.0
H317 H 0.83787 0.70393 0.59786 0.0
H318 H 0.87968 0.68714 0.73031 0.0
H319 H 0.84904 0.71582 0.75301 0.0
Co320 Co 0.08966 0.99572 0.547 0.0
Co321 Co 0.08678 0.99945 0.62377 0.0
Co322 Co 0.05177 0.04714 0.55237 0.0
O323 O 0.0884 0.02843 0.57698 0.0
H324 H 0.10912 0.04428 0.58191 0.0
O325 O 1.01565 0.06623 0.52816 0.0
Co326 Co 1.01013 0.09633 0.5597 0.0
Co327 Co 1.0183 0.09731 0.48488 0.0
H328 H 0.99535 0.05021 0.52003 0.0
O329 O 0.12455 0.99082 0.66072 0.0
O330 O 0.09564 0.96791 0.60023 0.0
O331 O 0.04373 0.98575 0.63762 0.0
O332 O 1.01898 1.0146 0.58846 0.0
O333 O 0.06977 0.0745 0.60153 0.0
O334 O 1.00046 0.12051 0.58959 0.0
O335 O 0.96695 0.08022 0.55087 0.0
O336 O 0.05655 0.11628 0.57514 0.0
O337 O 0.08487 0.07984 0.51607 0.0
O338 O 0.0615 0.11231 0.47285 0.0
O339 O 1.00592 0.1265 0.50826 0.0
O340 O 0.98145 0.10465 0.44536 0.0
C341 C 0.12371 0.98543 0.52632 0.0
C342 C 1.02608 0.98965 0.50992 0.0
C343 C 1.01827 0.99317 0.61954 0.0
C344 C 0.11951 0.96994 0.63387 0.0
C345 C 0.97146 0.10184 0.5764 0.0
C346 C 0.07558 0.10333 0.6005 0.0
C347 C 0.08631 0.10322 0.48774 0.0
C348 C 0.98396 0.12466 0.4723 0.0
O349 O 0.09355 0.96855 0.51806 0.0
O350 O 0.13281 1.00925 0.54971 0.0
O351 O 1.03266 1.01857 0.50374 0.0
O352 O 0.04441 0.97822 0.53864 0.0
Co353 Co 0.57603 1.00608 0.02775 0.0
Co354 Co 0.56809 1.00482 0.10621 0.0
Co355 Co 0.53465 0.05143 0.04243 0.0
O356 O 0.57082 0.03407 0.06198 0.0
H357 H 0.59096 0.05018 0.07021 0.0
O358 O 0.49923 0.07009 0.02296 0.0
Co359 Co 0.5016 0.10702 0.04708 0.0
Co360 Co 0.50361 0.09268 0.97081 0.0
H361 H 0.47807 0.05506 0.02023 0.0
O362 O 0.60589 0.99882 0.14064 0.0
O363 O 0.57776 0.97762 0.07795 0.0
O364 O 0.52617 0.98673 0.11923 0.0
O365 O 0.5009 1.01561 0.07202 0.0
O366 O 0.55173 0.07593 0.09558 0.0
O367 O 0.50032 0.14019 0.0679 0.0
O368 O 0.45841 0.09985 0.0405 0.0
O369 O 0.54771 0.11878 0.06001 0.0
O370 O 0.56894 0.08571 0.01337 0.0
O371 O 0.54487 0.10431 0.95239 0.0
O372 O 0.49981 0.12765 0.9887 0.0
O373 O 0.46644 0.09793 0.93485 0.0
C374 C 0.61477 0.99988 0.01015 0.0
C375 C 0.5127 0.99962 0.98652 0.0
C376 C 0.50036 0.99301 0.10077 0.0
C377 C 0.60234 0.98105 0.1101 0.0
C378 C 0.46925 0.12683 0.05684 0.0
C379 C 0.56077 0.10516 0.09255 0.0
C380 C 0.57062 0.10213 0.97792 0.0
C381 C 0.47399 0.12169 0.95765 0.0
O382 O 0.58538 0.98204 0.9967 0.0
O383 O 0.6197 1.02118 0.03661 0.0
O384 O 0.51712 0.02812 0.9881 0.0
O385 O 0.53092 0.9869 0.01321 0.0
Co386 Co 0.0613 0.48505 0.08781 0.0
Co387 Co 0.06261 0.48966 0.16597 0.0
Co388 Co 1.0185 0.53749 0.11458 0.0
O389 O 0.05735 0.51846 0.12006 0.0
H390 H 0.07777 0.53457 0.12384 0.0
O391 O 0.98164 0.56004 0.11075 0.0
Co392 Co 0.9828 0.6004 0.14031 0.0
Co393 Co 0.98548 0.59119 0.06587 0.0
H394 H 0.95998 0.546 0.1032 0.0
O395 O 0.10289 0.48595 0.19782 0.0
O396 O 0.07204 0.45751 0.14243 0.0
O397 O 1.02287 0.47523 0.18686 0.0
O398 O 1.00988 0.51846 0.17191 0.0
O399 O 0.05133 0.57459 0.14378 0.0
O400 O 0.98047 0.63465 0.16766 0.0
O401 O 0.93786 0.59566 0.14399 0.0
O402 O 1.0302 0.61306 0.14601 0.0
O403 O 1.02786 0.5552 0.05757 0.0
O404 O 1.02715 0.60321 0.04939 0.0
O405 O 0.97708 0.62464 0.08353 0.0
O406 O 0.94954 0.59615 0.02584 0.0
C407 C 0.09789 0.47432 0.06505 0.0
C408 C 0.98755 0.4735 0.07221 0.0
C409 C 1.00248 0.49 0.1833 0.0
C410 C 0.09772 0.46271 0.17486 0.0
C411 C 0.9492 0.62205 0.1632 0.0
C412 C 0.05431 0.60246 0.15023 0.0
C413 C 0.0405 0.58312 0.04729 0.0
C414 C 0.95538 0.62042 0.04703 0.0
O415 O 0.06759 0.45758 0.05684 0.0
O416 O 0.10555 0.49858 0.0878 0.0
O417 O 0.98579 0.49923 0.08298 0.0
O418 O 1.01442 0.46698 0.07885 0.0
Co419 Co 0.58914 0.49052 0.02821 0.0
Co420 Co 0.58479 0.49332 0.10397 0.0
Co421 Co 0.55182 0.54316 0.03594 0.0
O422 O 0.58788 0.5235 0.05928 0.0
H423 H 0.60882 0.53898 0.06524 0.0
O424 O 0.51541 0.56218 0.01148 0.0
Co425 Co 0.50938 0.59315 0.04091 0.0
Co426 Co 0.5185 0.59193 0.96577 0.0
H427 H 0.49509 0.54608 1.00393 0.0
O428 O 0.62171 0.48596 0.14255 0.0
O429 O 0.5949 0.46232 0.08141 0.0
O430 O 0.54187 0.47921 0.11714 0.0
O431 O 0.51836 0.51072 0.0721 0.0
O432 O 0.571 0.57166 0.08469 0.0
O433 O 0.50023 0.61879 0.06849 0.0
O434 O 0.46565 0.57835 0.03109 0.0
O435 O 0.55485 0.6119 0.0566 0.0
O436 O 0.58522 0.57567 1.00051 0.0
O437 O 0.56206 0.60654 0.95338 0.0
O438 O 0.50695 0.62217 0.98811 0.0
O439 O 0.48163 0.59952 0.9261 0.0
C440 C 0.62406 0.47992 0.00779 0.0
C441 C 0.52535 0.48633 0.99042 0.0
C442 C 0.5169 0.48787 0.1013 0.0
C443 C 0.61779 0.46491 0.11648 0.0
C444 C 0.47079 0.60126 0.05485 0.0
C445 C 0.5754 0.60048 0.08133 0.0
C446 C 0.58696 0.5981 0.97083 0.0
C447 C 0.48471 0.62007 0.9525 0.0
O448 O 0.59381 0.46323 0.99848 0.0
O449 O 0.63252 0.50354 0.03152 0.0
O450 O 0.53325 0.51541 0.98677 0.0
O451 O 0.54277 0.47325 0.01837 0.0
Co452 Co 0.12896 0.49703 0.59093 0.0
Co453 Co 0.10638 0.50424 0.50892 0.0
Co454 Co 0.06483 0.52604 0.55986 0.0
O455 O 0.08681 0.49564 0.55636 0.0
H456 H 0.07184 0.47514 0.55528 0.0
O457 O 0.04408 0.5564 0.56477 0.0
Co458 Co 1.02393 0.5771 0.51789 0.0
Co459 Co 1.00491 0.5434 0.57698 0.0
H460 H 0.05807 0.57095 0.58585 0.0
O461 O 0.10933 0.472 0.48362 0.0
O462 O 0.14556 0.5002 0.53754 0.0
O463 O 0.11689 0.54457 0.48284 0.0
O464 O 0.09433 0.56235 0.52509 0.0
O465 O 1.03317 0.50912 0.50643 0.0
O466 O 1.00805 0.60085 0.47746 0.0
O467 O 0.04178 0.61346 0.54147 0.0
O468 O 1.00251 0.54026 0.48661 0.0
O469 O 1.03445 0.49109 0.59552 0.0
O470 O 0.98661 0.50039 0.58484 0.0
O471 O 0.98446 0.56928 0.54426 0.0
O472 O 1.00119 0.56583 0.61672 0.0
C473 C 0.15316 0.46602 0.61541 0.0
C474 C 0.12725 0.55215 0.61543 0.0
C475 C 0.11245 0.56709 0.49671 0.0
C476 C 0.13701 0.47823 0.51085 0.0
C477 C 1.02452 0.62124 0.50603 0.0
C478 C 1.00862 0.51564 0.48295 0.0
C479 C 1.00387 0.48278 0.59905 0.0
C480 C 0.9863 0.57768 0.58271 0.0
O481 O 0.16685 0.49499 0.62177 0.0
O482 O 0.12299 0.45621 0.59454 0.0
O483 O 0.09672 0.54211 0.61343 0.0
O484 O 0.14083 0.54033 0.59407 0.0
Co485 Co 0.65624 1.01255 0.50444 0.0
Co486 Co 0.62867 1.00829 0.4316 0.0
Co487 Co 0.58671 0.04422 0.4774 0.0
O488 O 0.60852 1.0093 0.47882 0.0
H489 H 0.59407 0.98924 0.48374 0.0
O490 O 0.56576 0.08064 0.4748 0.0
Co491 Co 0.52035 0.08583 0.4471 0.0
Co492 Co 0.5464 0.07735 0.52142 0.0
H493 H 0.5823 0.10016 0.47845 0.0
O494 O 0.62638 0.9779 0.39348 0.0
O495 O 0.66074 0.98598 0.45697 0.0
O496 O 0.64623 0.05218 0.416 0.0
O497 O 0.6001 0.05935 0.42107 0.0
O498 O 0.5424 1.01695 0.44746 0.0
O499 O 0.48052 0.09347 0.41987 0.0
O500 O 0.52791 0.12911 0.43894 0.0
O501 O 0.50501 0.04091 0.44981 0.0
O502 O 0.57557 0.02546 0.53384 0.0
O503 O 0.53397 0.03765 0.54539 0.0
O504 O 0.50929 0.08959 0.50446 0.0
O505 O 0.55515 0.11008 0.55351 0.0
C506 C 0.68094 0.98488 0.55185 0.0
C507 C 0.64941 0.06664 0.54358 0.0
C508 C 0.62988 0.07031 0.41726 0.0
C509 C 0.65126 0.97242 0.41957 0.0
C510 C 0.49648 0.12254 0.42234 0.0
C511 C 0.51302 1.01675 0.44689 0.0
C512 C 0.54948 1.01875 0.54787 0.0
C513 C 0.525 0.10812 0.53635 0.0
O514 O 0.697 1.00967 0.53361 0.0
O515 O 0.64957 0.97833 0.5431 0.0
O516 O 0.629 0.07156 0.51011 0.0
O517 O 0.65762 0.04178 0.54863 0.0
H518 H 0.18379 0.23098 0.32635 0.0
H519 H 0.27523 0.22446 0.40425 0.0
H520 H 0.24519 0.18502 0.45148 0.0
H521 H 0.14234 0.222 0.41523 0.0
H522 H 0.10344 0.20037 0.38505 0.0
H523 H 0.13236 0.22763 0.35781 0.0
H524 H 0.12933 0.18533 0.30944 0.0
H525 H 0.10054 0.15793 0.33671 0.0
H526 H 0.13749 0.15079 0.33366 0.0
H527 H 0.20144 0.14228 0.49174 0.0
H528 H 0.15332 0.10802 0.5187 0.0
H529 H 0.09077 0.1437 0.41598 0.0
C530 C 0.19772 0.22143 0.35341 0.0
C531 C 0.23263 0.23161 0.36067 0.0
C532 C 0.24894 0.21783 0.39709 0.0
C533 C 0.23177 0.19501 0.42438 0.0
C534 C 0.19753 0.18545 0.41609 0.0
C535 C 0.18083 0.19869 0.38139 0.0
C536 C 0.14412 0.18515 0.37949 0.0
C537 C 0.12971 0.21028 0.3847 0.0
C538 C 0.12685 0.16884 0.33731 0.0
C539 C 0.14245 0.16213 0.41803 0.0
C540 C 0.17345 0.16232 0.43889 0.0
C541 C 0.1773 0.14243 0.47516 0.0
C542 C 0.14948 0.1226 0.49045 0.0
C543 C 0.11721 0.12222 0.47024 0.0
C544 C 0.11449 0.14266 0.43312 0.0
H545 H 0.86759 0.21737 0.31644 0.0
H546 H 0.86057 0.25365 0.43124 0.0
H547 H 0.89672 0.22566 0.47522 0.0
H548 H 0.86563 0.14129 0.36487 0.0
H549 H 0.89342 0.13608 0.3357 0.0
H550 H 0.86811 0.15991 0.31284 0.0
H551 H 0.91912 0.20485 0.30404 0.0
H552 H 0.94459 0.18118 0.327 0.0
H553 H 0.95157 0.21714 0.35007 0.0
H554 H 0.93778 0.19547 0.50754 0.0
H555 H 0.97271 0.16163 0.52496 0.0
H556 H 0.94901 0.13916 0.39156 0.0
C557 C 0.87367 0.21953 0.35084 0.0
C558 C 0.86096 0.23836 0.36988 0.0
C559 C 0.86957 0.23974 0.41529 0.0
C560 C 0.89039 0.22386 0.44076 0.0
C561 C 0.9025 0.20571 0.42111 0.0
C562 C 0.89394 0.20301 0.37712 0.0
C563 C 0.9091 0.18071 0.36436 0.0
C564 C 0.88248 0.15285 0.34318 0.0
C565 C 0.93248 0.19694 0.33459 0.0
C566 C 0.92766 0.17151 0.40775 0.0
C567 C 0.92394 0.18664 0.44 0.0
C568 C 0.94013 0.18313 0.48242 0.0
C569 C 0.96002 0.16362 0.49222 0.0
C570 C 0.96344 0.14666 0.46038 0.0
C571 C 0.94683 0.15107 0.4173 0.0
H572 H 0.92086 0.84441 0.36937 0.0
H573 H 0.83517 0.8666 0.37931 0.0
H574 H 0.86978 0.91062 0.42271 0.0
H575 H 0.96467 0.86447 0.48032 0.0
H576 H 1.00372 0.87921 0.46571 0.0
H577 H 0.97206 0.84904 0.43594 0.0
H578 H 0.97763 0.88202 0.3658 0.0
H579 H 1.00897 0.91242 0.39548 0.0
H580 H 0.97333 0.91974 0.36189 0.0
H581 H 0.91393 0.95565 0.45808 0.0
H582 H 0.96442 0.99326 0.49462 0.0
H583 H 1.02113 0.93911 0.46926 0.0
C584 C 0.90946 0.8583 0.3813 0.0
C585 C 0.87537 0.85215 0.37082 0.0
C586 C 0.86124 0.87077 0.38704 0.0
C587 C 0.8807 0.89599 0.41152 0.0
C588 C 0.91427 0.90193 0.42044 0.0
C589 C 0.92854 0.88317 0.40689 0.0
C590 C 0.9652 0.89424 0.42215 0.0
C591 C 0.97711 0.87032 0.45286 0.0
C592 C 0.98227 0.9026 0.38405 0.0
C593 C 0.96924 0.92245 0.4455 0.0
C594 C 0.93959 0.92675 0.44351 0.0
C595 C 0.93726 0.95226 0.46048 0.0
C596 C 0.96598 0.97361 0.48081 0.0
C597 C 0.9964 0.96887 0.48483 0.0
C598 C 0.99801 0.94301 0.46688 0.0
H599 H 0.15405 0.87737 0.38386 0.0
H600 H 0.23345 0.95314 0.35068 0.0
H601 H 0.22703 0.98477 0.40301 0.0
H602 H 0.10484 0.91968 0.399 0.0
H603 H 0.09187 0.89561 0.44367 0.0
H604 H 0.10341 0.88008 0.40326 0.0
H605 H 0.14558 0.86243 0.46266 0.0
H606 H 0.1347 0.87888 0.50302 0.0
H607 H 0.17637 0.8902 0.49755 0.0
H608 H 0.21047 1.00823 0.45829 0.0
H609 H 0.18081 1.02244 0.50532 0.0
H610 H 0.11646 0.92923 0.50402 0.0
C611 C 0.17011 0.9006 0.38758 0.0
C612 C 0.19403 0.91286 0.36322 0.0
C613 C 0.21441 0.9435 0.36853 0.0
C614 C 0.2114 0.96145 0.39868 0.0
C615 C 0.18831 0.94814 0.42344 0.0
C616 C 0.16795 0.91846 0.41793 0.0
C617 C 0.14451 0.90953 0.4474 0.0
C618 C 0.10909 0.90075 0.42181 0.0
C619 C 0.15068 0.88373 0.47955 0.0
C620 C 0.15403 0.93919 0.46928 0.0
C621 C 0.17965 0.96118 0.45582 0.0
C622 C 0.19068 0.9911 0.4696 0.0
C623 C 0.17393 0.99893 0.49639 0.0
C624 C 0.14657 0.97684 0.50815 0.0
C625 C 0.13755 0.94651 0.49586 0.0
H626 H 0.24044 0.87534 0.77446 0.0
H627 H 0.23597 0.83664 0.65561 0.0
H628 H 0.19868 0.86521 0.61683 0.0
H629 H 0.15737 0.87816 0.75289 0.0
H630 H 0.16766 0.9148 0.77584 0.0
H631 H 0.19297 0.89045 0.79506 0.0
H632 H 0.24298 0.93391 0.77902 0.0
H633 H 0.21783 0.95842 0.75993 0.0
H634 H 0.24161 0.95155 0.72593 0.0
H635 H 0.15737 0.89567 0.5909 0.0
H636 H 0.12353 0.93023 0.57908 0.0
H637 H 0.15966 0.95625 0.71109 0.0
C638 C 0.23162 0.87285 0.74026 0.0
C639 C 0.24137 0.85311 0.71846 0.0
C640 C 0.22928 0.85127 0.67347 0.0
C641 C 0.20778 0.86746 0.65103 0.0
C642 C 0.19862 0.88649 0.67328 0.0
C643 C 0.21074 0.88981 0.71684 0.0
C644 C 0.19834 0.9132 0.73245 0.0
C645 C 0.17788 0.89826 0.76606 0.0
C646 C 0.22689 0.94091 0.7504 0.0
C647 C 0.17719 0.92224 0.69117 0.0
C648 C 0.17724 0.90603 0.65759 0.0
C649 C 0.15798 0.90891 0.61697 0.0
C650 C 0.1388 0.92896 0.61029 0.0
C651 C 0.13928 0.94726 0.6432 0.0
C652 C 0.1589 0.9434 0.68451 0.0
H653 H 0.22243 0.24662 0.70694 0.0
H654 H 0.23878 0.1853 0.81633 0.0
H655 H 0.19489 0.14277 0.77857 0.0
H656 H 0.13622 0.2167 0.68528 0.0
H657 H 0.13074 0.22082 0.62777 0.0
H658 H 0.16558 0.24605 0.66107 0.0
H659 H 0.20392 0.23079 0.62434 0.0
H660 H 0.16918 0.20569 0.59062 0.0
H661 H 0.20051 0.19099 0.62285 0.0
H662 H 0.14907 0.10763 0.73105 0.0
H663 H 0.1023 0.081 0.67673 0.0
H664 H 0.11184 0.16492 0.59806 0.0
C665 C 0.21713 0.22404 0.72243 0.0
C666 C 0.23419 0.21897 0.76432 0.0
C667 C 0.2261 0.18946 0.78417 0.0
C668 C 0.20124 0.16523 0.76297 0.0
C669 C 0.1844 0.17101 0.72212 0.0
C670 C 0.19183 0.19962 0.70195 0.0
C671 C 0.16841 0.1998 0.65898 0.0
C672 C 0.1491 0.22217 0.65826 0.0
C673 C 0.18659 0.20726 0.62201 0.0
C674 C 0.14659 0.16684 0.6584 0.0
C675 C 0.15666 0.15073 0.69506 0.0
C676 C 0.14095 0.11995 0.7022 0.0
C677 C 0.11434 0.10503 0.67101 0.0
C678 C 0.10323 0.12083 0.63306 0.0
C679 C 0.11953 0.1523 0.62686 0.0
H680 H 0.89556 0.19098 0.69317 0.0
H681 H 0.83163 0.10383 0.72856 0.0
H682 H 0.84769 0.07843 0.67678 0.0
H683 H 0.88849 0.17662 0.57811 0.0
H684 H 0.93109 0.19688 0.58224 0.0
H685 H 0.90822 0.20789 0.61368 0.0
H686 H 0.95054 0.20134 0.68246 0.0
H687 H 0.97275 0.18979 0.65095 0.0
H688 H 0.95848 0.16511 0.69443 0.0
H689 H 0.87571 0.06264 0.62682 0.0
H690 H 0.91707 0.05687 0.59106 0.0
H691 H 0.96509 0.15452 0.59588 0.0
C692 C 0.88414 0.16668 0.68888 0.0
C693 C 0.86209 0.14923 0.71385 0.0
C694 C 0.84843 0.11738 0.70907 0.0
C695 C 0.85717 0.10296 0.67959 0.0
C696 C 0.87961 0.1209 0.65577 0.0
C697 C 0.893 0.15211 0.66047 0.0
C698 C 0.9203 0.16581 0.63707 0.0
C699 C 0.91146 0.1881 0.60059 0.0
C700 C 0.95238 0.18139 0.66808 0.0
C701 C 0.92131 0.13728 0.61984 0.0
C702 C 0.89701 0.11171 0.62948 0.0
C703 C 0.89453 0.08255 0.61863 0.0
C704 C 0.91804 0.07949 0.59842 0.0
C705 C 0.944 0.10534 0.59077 0.0
C706 C 0.94521 0.1345 0.6009 0.0
H707 H 0.91463 0.89217 0.79544 0.0
H708 H 0.84152 0.84353 0.69123 0.0
H709 H 0.87206 0.87721 0.63909 0.0
H710 H 0.93385 0.96754 0.74525 0.0
H711 H 0.97698 0.97737 0.76682 0.0
H712 H 0.94902 0.95011 0.79542 0.0
H713 H 0.97835 0.91008 0.7956 0.0
H714 H 1.00668 0.93738 0.76757 0.0
H715 H 0.98393 0.90054 0.74564 0.0
H716 H 0.91188 0.92137 0.59628 0.0
H717 H 0.95758 0.96118 0.57135 0.0
H718 H 1.00805 0.97729 0.70323 0.0
C719 C 0.90505 0.88826 0.76163 0.0
C720 C 0.87503 0.86455 0.74819 0.0
C721 C 0.86413 0.86089 0.70322 0.0
C722 C 0.88148 0.88034 0.67308 0.0
C723 C 0.9107 0.9036 0.68748 0.0
C724 C 0.92272 0.90694 0.73107 0.0
C725 C 0.95554 0.93236 0.73881 0.0
C726 C 0.95373 0.95838 0.76303 0.0
C727 C 0.98274 0.91932 0.76337 0.0
C728 C 0.9602 0.94327 0.69311 0.0
C729 C 0.93379 0.92686 0.66372 0.0
C730 C 0.93252 0.93389 0.6196 0.0
C731 C 0.95871 0.95712 0.60543 0.0
C732 C 0.98693 0.97352 0.63468 0.0
C733 C 0.98705 0.96601 0.67937 0.0
H734 H 0.31902 0.16102 0.11076 0.0
H735 H 0.36327 0.25568 0.07384 0.0
H736 H 0.40336 0.24071 0.04678 0.0
H737 H 0.38787 0.1425 0.15041 0.0
H738 H 0.3745 0.10451 0.13056 0.0
H739 H 0.34526 0.12106 0.13968 0.0
H740 H 0.31371 0.11258 0.06099 0.0
H741 H 0.34252 0.09539 0.05167 0.0
H742 H 0.33492 0.12725 0.01797 0.0
H743 H 0.44456 0.21806 0.03906 0.0
H744 H 0.48065 0.1873 0.03924 0.0
H745 H 0.40841 0.10609 0.07574 0.0
C746 C 0.33634 0.17838 0.09542 0.0
C747 C 0.33823 0.20953 0.09463 0.0
C748 C 0.3617 0.23174 0.07524 0.0
C749 C 0.38442 0.22344 0.05954 0.0
C750 C 0.38294 0.19278 0.0628 0.0
C751 C 0.35907 0.17041 0.07921 0.0
C752 C 0.36463 0.1395 0.08207 0.0
C753 C 0.36829 0.12613 0.12843 0.0
C754 C 0.33731 0.11737 0.05133 0.0
C755 C 0.39639 0.1484 0.06719 0.0
C756 C 0.40635 0.17925 0.05606 0.0
C757 C 0.43661 0.19372 0.04622 0.0
C758 C 0.45709 0.17615 0.04708 0.0
C759 C 0.4471 0.1444 0.05736 0.0
C760 C 0.41625 0.13025 0.06709 0.0
H761 H 0.88469 0.33893 0.09736 0.0
H762 H 0.81558 0.38558 0.02971 0.0
H763 H 0.8527 0.43387 0.06247 0.0
H764 H 0.89233 0.37356 0.19216 0.0
H765 H 0.9333 0.3726 0.21328 0.0
H766 H 0.90545 0.34375 0.17758 0.0
H767 H 0.94423 0.35687 0.12331 0.0
H768 H 0.97266 0.3823 0.16291 0.0
H769 H 0.96206 0.39646 0.10905 0.0
H770 H 0.89698 0.47611 0.10912 0.0
H771 H 0.94773 0.50866 0.15286 0.0
H772 H 0.97859 0.42873 0.19714 0.0
C773 C 0.87725 0.35914 0.08748 0.0
C774 C 0.84647 0.35792 0.06127 0.0
C775 C 0.83887 0.38572 0.04985 0.0
C776 C 0.85942 0.41305 0.06915 0.0
C777 C 0.88723 0.41197 0.09963 0.0
C778 C 0.89615 0.38564 0.10818 0.0
C779 C 0.92426 0.3884 0.14594 0.0
C780 C 0.91314 0.36839 0.18449 0.0
C781 C 0.9524 0.38056 0.13451 0.0
C782 C 0.93249 0.42167 0.15419 0.0
C783 C 0.91043 0.43486 0.12826 0.0
C784 C 0.91445 0.46595 0.1292 0.0
C785 C 0.94333 0.48429 0.15404 0.0
C786 C 0.96789 0.47143 0.1761 0.0
C787 C 0.96072 0.43943 0.17961 0.0
H788 H 0.7826 0.97359 0.15414 0.0
H789 H 0.74627 0.90235 0.06136 0.0
H790 H 0.69374 0.9119 0.0433 0.0
H791 H 0.71662 0.95099 0.19658 0.0
H792 H 0.71526 0.98799 0.20693 0.0
H793 H 0.75334 0.9829 0.20504 0.0
H794 H 0.76276 0.02558 0.14576 0.0
H795 H 0.72546 0.03199 0.14886 0.0
H796 H 0.73147 1.02431 0.09823 0.0
H797 H 0.6422 0.91899 0.04853 0.0
H798 H 0.59714 0.93386 0.06257 0.0
H799 H 0.66581 0.99974 0.15288 0.0
C800 C 0.76407 0.96107 0.12852 0.0
C801 C 0.76852 0.93702 0.10967 0.0
C802 C 0.74374 0.92108 0.07622 0.0
C803 C 0.71348 0.92604 0.06602 0.0
C804 C 0.70871 0.94739 0.08885 0.0
C805 C 0.73356 0.9655 0.11833 0.0
C806 C 0.72103 0.98414 0.14203 0.0
C807 C 0.72692 0.976 0.19049 0.0
C808 C 0.73605 1.01854 0.13315 0.0
C809 C 0.68525 0.97325 0.12168 0.0
C810 C 0.67866 0.95176 0.09154 0.0
C811 C 0.6471 0.93647 0.07107 0.0
C812 C 0.62169 0.94481 0.07962 0.0
C813 C 0.62818 0.96828 0.10822 0.0
C814 C 0.66022 0.98194 0.13053 0.0
H815 H 0.20128 0.7603 0.1918 0.0
H816 H 0.26382 0.70476 0.24814 0.0
H817 H 0.21792 0.65801 0.22809 0.0
H818 H 0.13319 0.71418 0.22944 0.0
H819 H 0.10322 0.71891 0.18274 0.0
H820 H 0.14168 0.74832 0.19546 0.0
H821 H 0.15223 0.74529 0.12039 0.0
H822 H 0.11349 0.71621 0.10712 0.0
H823 H 0.15001 0.70893 0.10252 0.0
H824 H 0.16472 0.61752 0.20837 0.0
H825 H 0.10805 0.58529 0.18768 0.0
H826 H 0.078 0.66619 0.14495 0.0
C827 C 0.20555 0.73831 0.19844 0.0
C828 C 0.23638 0.73613 0.2207 0.0
C829 C 0.24063 0.70691 0.23042 0.0
C830 C 0.21464 0.68025 0.21932 0.0
C831 C 0.18434 0.68309 0.19866 0.0
C832 C 0.17963 0.71133 0.18795 0.0
C833 C 0.14396 0.70776 0.16854 0.0
C834 C 0.12968 0.72321 0.19567 0.0
C835 C 0.13968 0.72029 0.12186 0.0
C836 C 0.1293 0.67317 0.17086 0.0
C837 C 0.1532 0.65951 0.18803 0.0
C838 C 0.14588 0.62797 0.19446 0.0
C839 C 0.11344 0.60983 0.18261 0.0
C840 C 0.08827 0.62301 0.16436 0.0
C841 C 0.09648 0.65529 0.15879 0.0
H842 H 0.4083 0.84495 0.87122 0.0
H843 H 0.34901 0.89395 0.78509 0.0
H844 H 0.38654 0.94293 0.81582 0.0
H845 H 0.42089 0.88521 0.9599 0.0
H846 H 0.46196 0.88467 0.98153 0.0
H847 H 0.43412 0.85473 0.94776 0.0
H848 H 0.47377 0.86584 0.89614 0.0
H849 H 0.50215 0.89546 0.93028 0.0
H850 H 0.48858 0.90412 0.87424 0.0
H851 H 0.42755 0.98589 0.86438 0.0
H852 H 0.469 1.01795 0.92086 0.0
H853 H 0.49918 0.93884 0.97474 0.0
C854 C 0.40384 0.86611 0.85772 0.0
C855 C 0.37604 0.86578 0.82547 0.0
C856 C 0.37057 0.8938 0.8092 0.0
C857 C 0.39163 0.92166 0.82679 0.0
C858 C 0.41805 0.92096 0.86026 0.0
C859 C 0.42438 0.8938 0.87494 0.0
C860 C 0.45247 0.8983 0.91326 0.0
C861 C 0.44169 0.87962 0.95292 0.0
C862 C 0.48093 0.89048 0.90284 0.0
C863 C 0.46072 0.93216 0.91872 0.0
C864 C 0.44089 0.94507 0.88789 0.0
C865 C 0.44343 0.97597 0.88822 0.0
C866 C 0.46696 0.99398 0.92056 0.0
C867 C 0.48751 0.98103 0.95229 0.0
C868 C 0.48411 0.94966 0.95099 0.0
H869 H 0.1645 0.36473 0.95309 0.0
H870 H 0.25765 0.43597 0.97117 0.0
H871 H 0.23564 0.46681 0.00621 0.0
H872 H 0.11521 0.41658 0.92841 0.0
H873 H 0.08434 0.39277 0.95582 0.0
H874 H 0.10756 0.37576 0.93278 0.0
H875 H 0.1239 0.34998 1.00614 0.0
H876 H 0.10187 0.36755 0.03052 0.0
H877 H 0.1445 0.37302 0.05205 0.0
H878 H 0.20323 0.49086 0.04103 0.0
H879 H 0.16292 0.50594 0.06829 0.0
H880 H 0.08987 0.42084 0.02572 0.0
C881 C 0.18036 0.3869 0.96399 0.0
C882 C 0.21341 0.3972 0.9594 0.0
C883 C 0.23274 0.42657 0.97484 0.0
C884 C 0.22028 0.44462 0.99473 0.0
C885 C 0.188 0.43361 0.99915 0.0
C886 C 0.16819 0.40549 0.98387 0.0
C887 C 0.13415 0.39926 0.99219 0.0
C888 C 0.10881 0.39589 0.94978 0.0
C889 C 0.12559 0.37077 0.022 0.0
C890 C 0.1379 0.42821 0.01429 0.0
C891 C 0.16925 0.44769 0.01822 0.0
C892 C 0.17859 0.47572 0.03783 0.0
C893 C 0.15543 0.48417 0.05335 0.0
C894 C 0.12287 0.46493 0.0492 0.0
C895 C 0.11435 0.43642 0.02939 0.0
H896 H 0.72064 0.18121 0.8537 0.0
H897 H 0.73193 0.26585 0.91016 0.0
H898 H 0.68976 0.23822 0.95117 0.0
H899 H 0.63264 0.15337 0.84034 0.0
H900 H 0.63055 0.11377 0.85148 0.0
H901 H 0.66333 0.13953 0.82905 0.0
H902 H 0.70494 0.12504 0.89182 0.0
H903 H 0.67225 0.09941 0.91462 0.0
H904 H 0.703 0.12923 0.94616 0.0
H905 H 0.64597 0.20053 0.98827 0.0
H906 H 0.60041 0.15884 0.00948 0.0
H907 H 0.61192 0.09839 0.92491 0.0
C908 C 0.7145 0.1939 0.87504 0.0
C909 C 0.73052 0.22606 0.87886 0.0
C910 C 0.72067 0.24148 0.90651 0.0
C911 C 0.6966 0.2258 0.93021 0.0
C912 C 0.68141 0.19433 0.92581 0.0
C913 C 0.68959 0.17859 0.89825 0.0
C914 C 0.66773 0.14519 0.89722 0.0
C915 C 0.64735 0.13751 0.85182 0.0
C916 C 0.6882 0.12343 0.91341 0.0
C917 C 0.64607 0.14454 0.92841 0.0
C918 C 0.65493 0.17309 0.94515 0.0
C919 C 0.63899 0.17821 0.97508 0.0
C920 C 0.61314 0.15415 0.98739 0.0
C921 C 0.60253 0.1248 0.96994 0.0
C922 C 0.61955 0.12017 0.93983 0.0
H923 H 0.85857 0.70758 0.8534 0.0
H924 H 0.87783 0.77883 0.94195 0.0
H925 H 0.90666 0.75075 0.99834 0.0
H926 H 0.84439 0.6443 0.93124 0.0
H927 H 0.86381 0.62265 0.90927 0.0
H928 H 0.84523 0.64859 0.87502 0.0
H929 H 0.89946 0.67655 0.85152 0.0
H930 H 0.91818 0.65061 0.88556 0.0
H931 H 0.93585 0.69125 0.89165 0.0
H932 H 0.93397 0.71419 0.04709 0.0
H933 H 0.95693 0.67313 0.08196 0.0
H934 H 0.9198 0.62447 0.96364 0.0
C935 C 0.86905 0.71746 0.88452 0.0
C936 C 0.86569 0.74588 0.89251 0.0
C937 C 0.87975 0.75738 0.93425 0.0
C938 C 0.89632 0.74147 0.96685 0.0
C939 C 0.89895 0.71359 0.95807 0.0
C940 C 0.8857 0.70165 0.91785 0.0
C941 C 0.89171 0.67098 0.91719 0.0
C942 C 0.85936 0.6451 0.90761 0.0
C943 C 0.91254 0.67244 0.88454 0.0
C944 C 0.91035 0.6676 0.96309 0.0
C945 C 0.91432 0.6925 0.98615 0.0
C946 C 0.93094 0.69465 0.02911 0.0
C947 C 0.94397 0.67107 0.04884 0.0
C948 C 0.94039 0.64516 0.0261 0.0
C949 C 0.92305 0.64366 0.98248 0.0
H950 H 0.20997 0.34449 0.18885 0.0
H951 H 0.2377 0.36102 0.32496 0.0
H952 H 0.20205 0.39341 0.31466 0.0
H953 H 0.20576 0.42241 0.15416 0.0
H954 H 0.17069 0.4112 0.11109 0.0
H955 H 0.19745 0.38788 0.12666 0.0
H956 H 0.14969 0.34109 0.1386 0.0
H957 H 0.12219 0.36368 0.12285 0.0
H958 H 0.12446 0.34313 0.17399 0.0
H959 H 0.16351 0.42521 0.29143 0.0
H960 H 0.12642 0.45438 0.25769 0.0
H961 H 0.11957 0.42113 0.13361 0.0
C962 C 0.20847 0.35475 0.21664 0.0
C963 C 0.22748 0.34928 0.25836 0.0
C964 C 0.22419 0.36402 0.29288 0.0
C965 C 0.20364 0.38277 0.28726 0.0
C966 C 0.18563 0.38765 0.24648 0.0
C967 C 0.18777 0.37421 0.21145 0.0
C968 C 0.16569 0.3843 0.17107 0.0
C969 C 0.18611 0.4025 0.13881 0.0
C970 C 0.13892 0.35638 0.15038 0.0
C971 C 0.15076 0.40507 0.18904 0.0
C972 C 0.16302 0.40644 0.23279 0.0
C973 C 0.15393 0.4241 0.25721 0.0
C974 C 0.13243 0.4409 0.23726 0.0
C975 C 0.11889 0.44083 0.19235 0.0
C976 C 0.12844 0.42201 0.16796 0.0
H977 H 0.17391 0.67818 0.92132 0.0
H978 H 0.24332 0.68003 0.04145 0.0
H979 H 0.20175 0.63882 0.0717 0.0
H980 H 0.11273 0.67669 0.96571 0.0
H981 H 0.08011 0.65264 0.92795 0.0
H982 H 0.11694 0.67506 0.91161 0.0
H983 H 0.12437 0.62634 0.88837 0.0
H984 H 0.08716 0.60365 0.90415 0.0
H985 H 0.1243 0.59434 0.926 0.0
H986 H 0.15172 0.60473 0.0917 0.0
H987 H 0.09606 0.58291 0.10285 0.0
H988 H 0.05767 0.60662 0.97158 0.0
C989 C 0.18059 0.66879 0.95335 0.0
C990 C 0.21165 0.68123 0.97901 0.0
C991 C 0.21963 0.66998 0.02142 0.0
C992 C 0.1963 0.6466 0.03855 0.0
C993 C 0.16537 0.63531 0.01273 0.0
C994 C 0.15744 0.64613 0.97104 0.0
C995 C 0.12129 0.63469 0.95273 0.0
C996 C 0.10696 0.66136 0.93872 0.0
C997 C 0.11385 0.61348 0.91562 0.0
C998 C 0.10982 0.61709 0.99143 0.0
C999 C 0.13575 0.6168 0.0251 0.0
C1000 C 0.13131 0.60407 0.06528 0.0
C1001 C 0.09957 0.59167 0.07136 0.0
C1002 C 0.07287 0.59265 0.03787 0.0
C1003 C 0.07791 0.60521 0.99731 0.0
H1004 H 0.4028 0.25924 0.8703 0.0
H1005 H 0.31338 0.2049 0.90806 0.0
H1006 H 0.34011 0.16639 0.94368 0.0
H1007 H 0.42586 0.20138 0.84438 0.0
H1008 H 0.46884 0.21682 0.86576 0.0
H1009 H 0.44446 0.24209 0.84871 0.0
H1010 H 0.46357 0.26534 0.92341 0.0
H1011 H 0.48842 0.2404 0.94106 0.0
H1012 H 0.45871 0.24073 0.97053 0.0
H1013 H 0.37226 0.12916 0.95838 0.0
H1014 H 0.41183 0.10045 0.96772 0.0
H1015 H 0.48338 0.18177 0.93074 0.0
C1016 C 0.38931 0.23972 0.88744 0.0
C1017 C 0.35622 0.23488 0.88689 0.0
C1018 C 0.33891 0.20902 0.90885 0.0
C1019 C 0.35384 0.18704 0.92884 0.0
C1020 C 0.38623 0.19182 0.92731 0.0
C1021 C 0.40413 0.21807 0.90854 0.0
C1022 C 0.43817 0.21718 0.90995 0.0
C1023 C 0.44468 0.2195 0.86451 0.0
C1024 C 0.46373 0.2424 0.93792 0.0
C1025 C 0.43621 0.18576 0.93074 0.0
C1026 C 0.40582 0.17133 0.9398 0.0
C1027 C 0.39651 0.14061 0.95306 0.0
C1028 C 0.41904 0.12446 0.95805 0.0
C1029 C 0.45087 0.13933 0.95149 0.0
C1030 C 0.45957 0.17034 0.93763 0.0
H1031 H 0.89424 0.32306 0.93078 0.0
H1032 H 0.81429 0.36016 0.88223 0.0
H1033 H 0.84257 0.4043 0.92933 0.0
H1034 H 0.915 0.34548 0.03883 0.0
H1035 H 0.95842 0.35692 0.04406 0.0
H1036 H 0.93234 0.32788 0.00742 0.0
H1037 H 0.95593 0.35803 0.94417 0.0
H1038 H 0.98333 0.38687 0.98025 0.0
H1039 H 0.95697 0.3974 0.93342 0.0
H1040 H 0.88149 0.44576 0.98393 0.0
H1041 H 0.92636 0.47971 0.03498 0.0
H1042 H 0.98248 0.41722 0.04333 0.0
C1043 C 0.8826 0.34041 0.93017 0.0
C1044 C 0.85166 0.33776 0.90283 0.0
C1045 C 0.83779 0.36144 0.90271 0.0
C1046 C 0.85375 0.38665 0.9296 0.0
C1047 C 0.88423 0.3886 0.95616 0.0
C1048 C 0.89867 0.36621 0.95597 0.0
C1049 C 0.93239 0.37445 0.98529 0.0
C1050 C 0.93467 0.34973 0.02104 0.0
C1051 C 0.95871 0.37948 0.95923 0.0
C1052 C 0.93438 0.40438 1.00317 0.0
C1053 C 0.90644 0.41231 0.98604 0.0
C1054 C 0.90332 0.43946 0.99745 0.0
C1055 C 0.92905 0.4587 0.02688 0.0
C1056 C 0.95823 0.45133 0.04468 0.0
C1057 C 0.96053 0.42368 0.03175 0.0
H1058 H 0.69615 0.90352 0.90854 0.0
H1059 H 0.78968 0.95596 0.98075 0.0
H1060 H 0.7634 0.98957 1.00362 0.0
H1061 H 0.66343 0.96877 0.87508 0.0
H1062 H 0.62297 0.94581 0.87976 0.0
H1063 H 0.6499 0.9285 0.86537 0.0
H1064 H 0.64168 0.88914 0.92861 0.0
H1065 H 0.61516 0.90642 0.94382 0.0
H1066 H 0.65037 0.9022 0.98208 0.0
H1067 H 0.72576 1.01487 0.02254 0.0
H1068 H 0.68014 0.02826 0.03862 0.0
H1069 H 0.61177 0.95826 0.95424 0.0
C1070 C 0.71117 0.92232 0.92876 0.0
C1071 C 0.74493 0.92727 0.94282 0.0
C1072 C 0.76383 0.95212 0.96914 0.0
C1073 C 0.74911 0.97126 0.98226 0.0
C1074 C 0.7156 0.96541 0.96829 0.0
C1075 C 0.69694 0.94159 0.94192 0.0
C1076 C 0.66124 0.93896 0.93318 0.0
C1077 C 0.64865 0.94594 0.88552 0.0
C1078 C 0.64095 0.90733 0.94784 0.0
C1079 C 0.66246 0.96397 0.96061 0.0
C1080 C 0.69402 0.97947 0.97984 0.0
C1081 C 0.70096 1.00305 0.00744 0.0
C1082 C 0.67491 1.01052 0.01629 0.0
C1083 C 0.64239 0.99429 0.99774 0.0
C1084 C 0.63632 0.97114 0.96895 0.0
H1085 H 0.88346 0.7593 0.22664 0.0
H1086 H 0.82521 0.69083 0.30308 0.0
H1087 H 0.84481 0.65164 0.28093 0.0
H1088 H 0.8761 0.71162 0.13928 0.0
H1089 H 0.91773 0.72761 0.13378 0.0
H1090 H 0.89858 0.75033 0.15419 0.0
H1091 H 0.94427 0.76004 0.22219 0.0
H1092 H 0.9637 0.73755 0.20185 0.0
H1093 H 0.95348 0.72801 0.2538 0.0
H1094 H 0.86902 0.61677 0.2436 0.0
H1095 H 0.89986 0.59439 0.20823 0.0
H1096 H 0.94943 0.68491 0.16269 0.0
C1097 C 0.8748 0.7361 0.23911 0.0
C1098 C 0.85195 0.7291 0.26728 0.0
C1099 C 0.84232 0.6979 0.28208 0.0
C1100 C 0.85343 0.67505 0.26917 0.0
C1101 C 0.87546 0.68267 0.24146 0.0
C1102 C 0.88668 0.71285 0.22747 0.0
C1103 C 0.91187 0.71532 0.19988 0.0
C1104 C 0.90039 0.72693 0.15406 0.0
C1105 C 0.94532 0.7365 0.22065 0.0
C1106 C 0.91288 0.68208 0.19984 0.0
C1107 C 0.89106 0.66347 0.22339 0.0
C1108 C 0.88636 0.6317 0.22588 0.0
C1109 C 0.90416 0.61886 0.2051 0.0
C1110 C 0.92797 0.63703 0.182 0.0
C1111 C 0.93199 0.66955 0.17991 0.0
H1112 H 0.3711 0.89224 0.24499 0.0
H1113 H 0.3656 0.81324 0.17935 0.0
H1114 H 0.39959 0.84737 0.13142 0.0
H1115 H 0.3709 0.94597 0.1511 0.0
H1116 H 0.39968 0.97805 0.18035 0.0
H1117 H 0.3732 0.94785 0.20753 0.0
H1118 H 0.42266 0.94125 0.26158 0.0
H1119 H 0.45037 0.97016 0.23479 0.0
H1120 H 0.4543 0.93222 0.24424 0.0
H1121 H 0.43432 0.89159 0.08828 0.0
H1122 H 0.47249 0.93847 0.06325 0.0
H1123 H 0.46077 0.98947 0.16013 0.0
C1124 C 0.37681 0.88201 0.22035 0.0
C1125 C 0.36485 0.84948 0.21614 0.0
C1126 C 0.3739 0.83764 0.18369 0.0
C1127 C 0.39324 0.85709 0.15597 0.0
C1128 C 0.40428 0.88886 0.16082 0.0
C1129 C 0.39678 0.90118 0.19281 0.0
C1130 C 0.41334 0.93595 0.19278 0.0
C1131 C 0.38775 0.95296 0.18233 0.0
C1132 C 0.43662 0.94544 0.23593 0.0
C1133 C 0.43192 0.94131 0.15656 0.0
C1134 C 0.42551 0.91387 0.13773 0.0
C1135 C 0.43929 0.91298 0.10313 0.0
C1136 C 0.4608 0.94008 0.08856 0.0
C1137 C 0.46932 0.96848 0.10826 0.0
C1138 C 0.45422 0.96877 0.1429 0.0
H1139 H 0.70537 0.25208 0.18085 0.0
H1140 H 0.72479 0.20195 0.30089 0.0
H1141 H 0.67484 0.15917 0.27556 0.0
H1142 H 0.61426 0.22425 0.16201 0.0
H1143 H 0.61086 0.22322 0.10514 0.0
H1144 H 0.64451 0.2511 0.1363 0.0
H1145 H 0.68436 0.23198 0.10783 0.0
H1146 H 0.65099 0.20353 0.07756 0.0
H1147 H 0.68236 0.19224 0.11583 0.0
H1148 H 0.6277 0.11843 0.23051 0.0
H1149 H 0.58463 0.08688 0.17506 0.0
H1150 H 0.59638 0.16534 0.08585 0.0
C1151 C 0.6982 0.23268 0.2026 0.0
C1152 C 0.71832 0.23053 0.24322 0.0
C1153 C 0.70904 0.20439 0.27026 0.0
C1154 C 0.68095 0.17988 0.2558 0.0
C1155 C 0.66241 0.18215 0.21448 0.0
C1156 C 0.67036 0.20833 0.18875 0.0
C1157 C 0.64826 0.20465 0.14463 0.0
C1158 C 0.62828 0.22713 0.13656 0.0
C1159 C 0.66766 0.20831 0.10943 0.0
C1160 C 0.62697 0.17203 0.14891 0.0
C1161 C 0.63542 0.15925 0.18926 0.0
C1162 C 0.62053 0.12852 0.1992 0.0
C1163 C 0.59622 0.11069 0.16739 0.0
C1164 C 0.58685 0.12363 0.12613 0.0
C1165 C 0.60255 0.15477 0.11716 0.0
H1166 H 0.69558 0.70067 0.79995 0.0
H1167 H 0.76968 0.74427 0.90704 0.0
H1168 H 0.73728 0.71048 0.95726 0.0
H1169 H 0.62642 0.69401 0.84968 0.0
H1170 H 0.60212 0.65823 0.82559 0.0
H1171 H 0.63165 0.68529 0.79904 0.0
H1172 H 0.65832 0.64363 0.79666 0.0
H1173 H 0.62915 0.61658 0.82376 0.0
H1174 H 0.67203 0.6242 0.84577 0.0
H1175 H 0.69541 0.66637 0.99768 0.0
H1176 H 0.64827 0.62725 0.02049 0.0
H1177 H 0.59822 0.61625 0.88771 0.0
C1178 C 0.70499 0.70351 0.83401 0.0
C1179 C 0.73584 0.72591 0.84876 0.0
C1180 C 0.74644 0.72808 0.894 0.0
C1181 C 0.72803 0.70849 0.92307 0.0
C1182 C 0.69803 0.68655 0.90739 0.0
C1183 C 0.68629 0.68469 0.86357 0.0
C1184 C 0.65259 0.66051 0.85447 0.0
C1185 C 0.62666 0.67539 0.83079 0.0
C1186 C 0.65306 0.63471 0.82861 0.0
C1187 C 0.6471 0.64858 0.89962 0.0
C1188 C 0.67386 0.66341 0.92991 0.0
C1189 C 0.67451 0.65513 0.97366 0.0
C1190 C 0.64746 0.63228 0.9866 0.0
C1191 C 0.61889 0.6175 0.95652 0.0
C1192 C 0.61937 0.62628 0.91219 0.0
H1193 H 0.36499 0.7106 0.79874 0.0
H1194 H 0.36458 0.75112 0.91376 0.0
H1195 H 0.40189 0.7239 0.95646 0.0
H1196 H 0.36406 0.63571 0.85105 0.0
H1197 H 0.38962 0.62851 0.82 0.0
H1198 H 0.36428 0.65239 0.7976 0.0
H1199 H 0.41472 0.69599 0.78313 0.0
H1200 H 0.44021 0.67224 0.80558 0.0
H1201 H 0.44904 0.70927 0.82668 0.0
H1202 H 0.44305 0.69435 0.98706 0.0
H1203 H 0.47748 0.66016 1.00399 0.0
H1204 H 0.44684 0.63216 0.87259 0.0
C1205 C 0.37288 0.71388 0.83287 0.0
C1206 C 0.36172 0.73366 0.85248 0.0
C1207 C 0.37248 0.73646 0.89754 0.0
C1208 C 0.39393 0.72104 0.92224 0.0
C1209 C 0.40443 0.70187 0.90217 0.0
C1210 C 0.39377 0.69772 0.85856 0.0
C1211 C 0.40742 0.67426 0.84569 0.0
C1212 C 0.37969 0.64604 0.8275 0.0
C1213 C 0.42913 0.68881 0.81334 0.0
C1214 C 0.42753 0.66616 0.88858 0.0
C1215 C 0.42587 0.68284 0.92056 0.0
C1216 C 0.44377 0.68071 0.96232 0.0
C1217 C 0.46329 0.66093 0.97185 0.0
C1218 C 0.46453 0.64228 0.94051 0.0
C1219 C 0.44626 0.64536 0.89799 0.0
H1220 H 0.38994 0.336 0.88572 0.0
H1221 H 0.37094 0.39344 0.77269 0.0
H1222 H 0.40971 0.43879 0.8106 0.0
H1223 H 0.40283 0.39164 0.96679 0.0
H1224 H 0.43575 0.38042 1.00156 0.0
H1225 H 0.40386 0.35294 0.96746 0.0
H1226 H 0.44673 0.34186 0.93458 0.0
H1227 H 0.47873 0.36936 0.96841 0.0
H1228 H 0.4749 0.37299 0.9111 0.0
H1229 H 0.45121 0.47739 0.85931 0.0
H1230 H 0.49585 0.50694 0.914 0.0
H1231 H 0.49188 0.42444 0.99469 0.0
C1232 C 0.39354 0.35827 0.86941 0.0
C1233 C 0.3772 0.36147 0.82652 0.0
C1234 C 0.38311 0.3907 0.80563 0.0
C1235 C 0.405 0.41653 0.82694 0.0
C1236 C 0.42117 0.41265 0.86895 0.0
C1237 C 0.41597 0.38428 0.88996 0.0
C1238 C 0.43856 0.38623 0.93386 0.0
C1239 C 0.41908 0.37728 0.96952 0.0
C1240 C 0.46106 0.36644 0.93716 0.0
C1241 C 0.45745 0.42006 0.93399 0.0
C1242 C 0.44655 0.43485 0.89646 0.0
C1243 C 0.45997 0.46608 0.88884 0.0
C1244 C 0.48536 0.48268 0.92022 0.0
C1245 C 0.49759 0.46806 0.95866 0.0
C1246 C 0.48325 0.43627 0.96557 0.0
H1247 H 0.67738 0.36936 0.89095 0.0
H1248 H 0.76061 0.44558 0.87029 0.0
H1249 H 0.74653 0.47743 0.91531 0.0
H1250 H 0.62404 0.41132 0.88199 0.0
H1251 H 0.60324 0.38908 0.92237 0.0
H1252 H 0.62227 0.37178 0.89299 0.0
H1253 H 0.65605 0.35623 0.9644 0.0
H1254 H 0.63706 0.37358 0.99403 0.0
H1255 H 0.68071 0.38508 1.00215 0.0
H1256 H 0.72098 0.50146 0.96011 0.0
H1257 H 0.68421 0.51618 0.99526 0.0
H1258 H 0.6178 0.42389 0.98313 0.0
C1259 C 0.69309 0.39254 0.89669 0.0
C1260 C 0.72021 0.40499 0.87757 0.0
C1261 C 0.73965 0.43569 0.88471 0.0
C1262 C 0.732 0.45382 0.91046 0.0
C1263 C 0.70487 0.44081 0.92867 0.0
C1264 C 0.68572 0.41085 0.92193 0.0
C1265 C 0.65641 0.40282 0.94189 0.0
C1266 C 0.62463 0.39321 0.90777 0.0
C1267 C 0.65765 0.37795 0.97774 0.0
C1268 C 0.66145 0.43317 0.95988 0.0
C1269 C 0.68982 0.45472 0.95291 0.0
C1270 C 0.69882 0.48468 0.96596 0.0
C1271 C 0.67789 0.49283 0.98591 0.0
C1272 C 0.64819 0.47119 0.99167 0.0
C1273 C 0.64031 0.44098 0.97904 0.0
H1274 H 0.73394 0.37349 0.27436 0.0
H1275 H 0.73816 0.33339 0.16109 0.0
H1276 H 0.70201 0.36104 0.11631 0.0
H1277 H 0.65013 0.37429 0.2419 0.0
H1278 H 0.65794 0.41102 0.26331 0.0
H1279 H 0.68324 0.38732 0.28697 0.0
H1280 H 0.73428 0.43135 0.27549 0.0
H1281 H 0.70914 0.4552 0.25192 0.0
H1282 H 0.7361 0.4486 0.22259 0.0
H1283 H 0.66171 0.39176 0.08302 0.0
H1284 H 0.62748 0.42618 0.06467 0.0
H1285 H 0.65321 0.45158 0.19709 0.0
C1286 C 0.72724 0.37045 0.24014 0.0
C1287 C 0.73924 0.35077 0.2217 0.0
C1288 C 0.72982 0.34814 0.1765 0.0
C1289 C 0.70898 0.36378 0.1506 0.0
C1290 C 0.69766 0.38288 0.16964 0.0
C1291 C 0.70693 0.38668 0.2134 0.0
C1292 C 0.69248 0.40975 0.22544 0.0
C1293 C 0.66959 0.3947 0.25624 0.0
C1294 C 0.71962 0.4379 0.24503 0.0
C1295 C 0.67351 0.41814 0.1819 0.0
C1296 C 0.67642 0.40197 0.15019 0.0
C1297 C 0.65987 0.40479 0.10776 0.0
C1298 C 0.64036 0.42463 0.09743 0.0
C1299 C 0.63773 0.44252 0.12875 0.0
C1300 C 0.65475 0.43885 0.17179 0.0
H1301 H 0.68048 0.74296 0.22828 0.0
H1302 H 0.76617 0.7211 0.21756 0.0
H1303 H 0.73167 0.67822 0.172 0.0
H1304 H 0.6273 0.66735 0.23185 0.0
H1305 H 0.59204 0.67553 0.19853 0.0
H1306 H 0.6233 0.70508 0.22989 0.0
H1307 H 0.62978 0.73985 0.16145 0.0
H1308 H 0.59827 0.71052 0.12994 0.0
H1309 H 0.63764 0.72571 0.11632 0.0
H1310 H 0.6876 0.63435 0.13384 0.0
H1311 H 0.63728 0.59754 0.09563 0.0
H1312 H 0.58038 0.65057 0.12376 0.0
C1313 C 0.6919 0.72936 0.2158 0.0
C1314 C 0.726 0.73536 0.22657 0.0
C1315 C 0.74013 0.7171 0.2096 0.0
C1316 C 0.72071 0.69252 0.18386 0.0
C1317 C 0.68717 0.68681 0.17445 0.0
C1318 C 0.67287 0.70514 0.18894 0.0
C1319 C 0.63625 0.69442 0.17293 0.0
C1320 C 0.6187 0.68504 0.21055 0.0
C1321 C 0.62482 0.71909 0.1434 0.0
C1322 C 0.63224 0.6669 0.14806 0.0
C1323 C 0.6619 0.66266 0.14989 0.0
C1324 C 0.66427 0.63772 0.13158 0.0
C1325 C 0.63561 0.61683 0.11022 0.0
C1326 C 0.60513 0.62141 0.1065 0.0
C1327 C 0.60349 0.64679 0.1257 0.0
H1328 H 0.40234 0.70277 0.16318 0.0
H1329 H 0.32384 0.62151 0.1825 0.0
H1330 H 0.33969 0.59375 0.13366 0.0
H1331 H 0.40395 0.69089 0.04971 0.0
H1332 H 0.44772 0.70538 0.06226 0.0
H1333 H 0.42438 0.71952 0.08922 0.0
H1334 H 0.45781 0.70496 0.16205 0.0
H1335 H 0.47991 0.68988 0.13457 0.0
H1336 H 0.4581 0.66593 0.1729 0.0
H1337 H 0.36865 0.57363 0.08953 0.0
H1338 H 0.41027 0.56204 0.0603 0.0
H1339 H 0.47115 0.65613 0.07648 0.0
C1340 C 0.38768 0.67951 0.15568 0.0
C1341 C 0.36153 0.66435 0.17558 0.0
C1342 C 0.34374 0.63348 0.16688 0.0
C1343 C 0.35246 0.61769 0.13907 0.0
C1344 C 0.37906 0.63317 0.1207 0.0
C1345 C 0.39642 0.66343 0.12887 0.0
C1346 C 0.42697 0.67368 0.11135 0.0
C1347 C 0.42563 0.69884 0.07601 0.0
C1348 C 0.45747 0.6842 0.14736 0.0
C1349 C 0.42476 0.64423 0.09322 0.0
C1350 C 0.39661 0.62127 0.09768 0.0
C1351 C 0.39055 0.59157 0.08534 0.0
C1352 C 0.41424 0.58517 0.06885 0.0
C1353 C 0.44377 0.60823 0.06613 0.0
C1354 C 0.44866 0.6381 0.07781 0.0
H1355 H 0.41764 0.35984 0.26111 0.0
H1356 H 0.32663 0.36613 0.18157 0.0
H1357 H 0.35714 0.40559 0.1348 0.0
H1358 H 0.46388 0.44008 0.25418 0.0
H1359 H 0.50105 0.43303 0.25197 0.0
H1360 H 0.47195 0.40557 0.27873 0.0
H1361 H 0.46964 0.36333 0.23078 0.0
H1362 H 0.49886 0.39065 0.20406 0.0
H1363 H 0.46024 0.36895 0.17332 0.0
H1364 H 0.40144 0.44841 0.09513 0.0
H1365 H 0.44992 0.48276 0.06904 0.0
H1366 H 0.51175 0.44737 0.17312 0.0
C1367 C 0.40389 0.36934 0.23379 0.0
C1368 C 0.36894 0.35906 0.22596 0.0
C1369 C 0.35292 0.37281 0.18921 0.0
C1370 C 0.37038 0.39565 0.16217 0.0
C1371 C 0.40464 0.4053 0.17103 0.0
C1372 C 0.42108 0.39211 0.20607 0.0
C1373 C 0.45788 0.40575 0.20863 0.0
C1374 C 0.47468 0.42207 0.25089 0.0
C1375 C 0.47252 0.38068 0.20392 0.0
C1376 C 0.45992 0.42878 0.17009 0.0
C1377 C 0.42902 0.42849 0.14863 0.0
C1378 C 0.42549 0.44833 0.11221 0.0
C1379 C 0.45353 0.46823 0.09742 0.0
C1380 C 0.48573 0.46877 0.11828 0.0
C1381 C 0.48812 0.44835 0.15551 0.0
H1382 H 0.85009 0.64996 0.60333 0.0
H1383 H 0.92668 0.71224 0.69097 0.0
H1384 H 0.96737 0.69341 0.67193 0.0
H1385 H 0.88205 0.5883 0.62961 0.0
H1386 H 0.87071 0.57404 0.57638 0.0
H1387 H 0.84754 0.5949 0.59206 0.0
H1388 H 0.85748 0.6344 0.52788 0.0
H1389 H 0.87899 0.61185 0.51191 0.0
H1390 H 0.89852 0.65185 0.52061 0.0
H1391 H 0.99862 0.66454 0.65156 0.0
H1392 H 1.01958 0.62657 0.63 0.0
H1393 H 0.92458 0.58292 0.55276 0.0
C1394 C 0.87552 0.65989 0.61784 0.0
C1395 C 0.88529 0.68241 0.64887 0.0
C1396 C 0.91867 0.69468 0.66764 0.0
C1397 C 0.94198 0.68435 0.65671 0.0
C1398 C 0.93163 0.66176 0.6268 0.0
C1399 C 0.89928 0.6496 0.60745 0.0
C1400 C 0.89471 0.62346 0.5794 0.0
C1401 C 0.87244 0.5934 0.59533 0.0
C1402 C 0.8816 0.63084 0.53215 0.0
C1403 C 0.92949 0.62269 0.58661 0.0
C1404 C 0.95025 0.64516 0.61399 0.0
C1405 C 0.98283 0.6473 0.62933 0.0
C1406 C 0.99449 0.62565 0.61696 0.0
C1407 C 0.97387 0.60243 0.58899 0.0
C1408 C 0.94106 0.6012 0.57291 0.0
H1409 H 0.39545 0.89741 0.60576 0.0
H1410 H 0.40588 0.83553 0.52183 0.0
H1411 H 0.45719 0.87372 0.51006 0.0
H1412 H 0.42841 0.96887 0.54688 0.0
H1413 H 0.44719 0.98855 0.59608 0.0
H1414 H 0.41035 0.95705 0.59309 0.0
H1415 H 0.43978 0.93144 0.65914 0.0
H1416 H 0.4772 0.96207 0.66043 0.0
H1417 H 0.47622 0.92321 0.65638 0.0
H1418 H 0.50941 0.91754 0.51235 0.0
H1419 H 0.55213 0.96732 0.51631 0.0
H1420 H 0.50653 0.99872 0.59995 0.0
C1421 C 0.40762 0.89221 0.58339 0.0
C1422 C 0.39662 0.86354 0.56458 0.0
C1423 C 0.41403 0.8574 0.53667 0.0
C1424 C 0.44323 0.87881 0.53006 0.0
C1425 C 0.45436 0.9061 0.55143 0.0
C1426 C 0.4366 0.9131 0.57661 0.0
C1427 C 0.4539 0.94353 0.59696 0.0
C1428 C 0.43378 0.96581 0.58234 0.0
C1429 C 0.46226 0.93981 0.64613 0.0
C1430 C 0.48409 0.95289 0.5788 0.0
C1431 C 0.48428 0.93086 0.55322 0.0
C1432 C 0.50952 0.93493 0.53231 0.0
C1433 C 0.53404 0.96314 0.53534 0.0
C1434 C 0.53265 0.98682 0.5585 0.0
C1435 C 0.50831 0.98093 0.58227 0.0
H1436 H 0.21464 0.32701 0.72862 0.0
H1437 H 0.30103 0.36762 0.67646 0.0
H1438 H 0.27663 0.40621 0.63541 0.0
H1439 H 0.15631 0.34058 0.62736 0.0
H1440 H 0.12997 0.3474 0.6575 0.0
H1441 H 0.15291 0.32124 0.67879 0.0
H1442 H 0.17768 0.35212 0.74782 0.0
H1443 H 0.15534 0.37864 0.72647 0.0
H1444 H 0.19895 0.39239 0.74359 0.0
H1445 H 0.24859 0.4458 0.61468 0.0
H1446 H 0.21289 0.4786 0.5995 0.0
H1447 H 0.14049 0.40879 0.6558 0.0
C1448 C 0.22792 0.34362 0.7076 0.0
C1449 C 0.25959 0.34469 0.70541 0.0
C1450 C 0.27662 0.36655 0.67802 0.0
C1451 C 0.263 0.3885 0.65484 0.0
C1452 C 0.23207 0.3875 0.65868 0.0
C1453 C 0.21423 0.36503 0.68317 0.0
C1454 C 0.18176 0.36954 0.68232 0.0
C1455 C 0.15356 0.34312 0.66016 0.0
C1456 C 0.17825 0.37341 0.72775 0.0
C1457 C 0.18488 0.39901 0.65543 0.0
C1458 C 0.21431 0.40906 0.64261 0.0
C1459 C 0.22493 0.43767 0.62278 0.0
C1460 C 0.20466 0.45622 0.6148 0.0
C1461 C 0.17376 0.44581 0.62567 0.0
C1462 C 0.16362 0.41677 0.64604 0.0
H1463 H 0.78101 0.18986 0.71786 0.0
H1464 H 0.71294 0.24213 0.68375 0.0
H1465 H 0.67461 0.20091 0.63777 0.0
H1466 H 0.76529 0.16188 0.61039 0.0
H1467 H 0.76896 0.12449 0.62768 0.0
H1468 H 0.79103 0.15652 0.6611 0.0
H1469 H 0.76546 0.12827 0.7238 0.0
H1470 H 0.74334 0.09572 0.69116 0.0
H1471 H 0.72183 0.11335 0.71639 0.0
H1472 H 0.64248 0.15409 0.59639 0.0
H1473 H 0.62128 0.10859 0.55369 0.0
H1474 H 0.70953 0.08421 0.60724 0.0
C1475 C 0.7581 0.19263 0.70074 0.0
C1476 C 0.7503 0.21975 0.70512 0.0
C1477 C 0.71982 0.22201 0.68156 0.0
C1478 C 0.6977 0.19847 0.65527 0.0
C1479 C 0.70609 0.17237 0.65152 0.0
C1480 C 0.73578 0.16937 0.67296 0.0
C1481 C 0.73896 0.13935 0.66069 0.0
C1482 C 0.76776 0.14596 0.63864 0.0
C1483 C 0.74261 0.1179 0.70039 0.0
C1484 C 0.70643 0.12607 0.62918 0.0
C1485 C 0.68793 0.14561 0.62526 0.0
C1486 C 0.65702 0.13893 0.59891 0.0
C1487 C 0.64511 0.11266 0.57449 0.0
C1488 C 0.66347 0.09228 0.57573 0.0
C1489 C 0.69453 0.09893 0.60483 0.0
H1490 H 0.89694 0.34968 0.40775 0.0
H1491 H 0.8601 0.39052 0.28681 0.0
H1492 H 0.90082 0.44062 0.30772 0.0
H1493 H 0.90713 0.4076 0.47071 0.0
H1494 H 0.94412 0.40524 0.50673 0.0
H1495 H 0.91642 0.37193 0.47947 0.0
H1496 H 0.96206 0.36565 0.4473 0.0
H1497 H 0.99025 0.39852 0.47544 0.0
H1498 H 0.98505 0.39742 0.41822 0.0
H1499 H 0.93849 0.48823 0.34943 0.0
H1500 H 0.97561 0.52657 0.40171 0.0
H1501 H 0.98995 0.45341 0.49316 0.0
C1502 C 0.89865 0.36884 0.38473 0.0
C1503 C 0.87604 0.36606 0.34511 0.0
C1504 C 0.87796 0.3919 0.31658 0.0
C1505 C 0.90074 0.42054 0.32858 0.0
C1506 C 0.92171 0.4228 0.36896 0.0
C1507 C 0.92146 0.3973 0.39601 0.0
C1508 C 0.94494 0.40577 0.43864 0.0
C1509 C 0.92707 0.39712 0.47606 0.0
C1510 C 0.9722 0.39097 0.44528 0.0
C1511 C 0.95785 0.44013 0.43208 0.0
C1512 C 0.94404 0.4497 0.39189 0.0
C1513 C 0.95005 0.48081 0.38044 0.0
C1514 C 0.97098 0.50247 0.41044 0.0
C1515 C 0.98612 0.493 0.45122 0.0
C1516 C 0.9794 0.46137 0.46185 0.0
H1517 H 0.74452 0.84374 0.39379 0.0
H1518 H 0.74568 0.88137 0.26422 0.0
H1519 H 0.71917 0.91805 0.27714 0.0
H1520 H 0.66638 0.85255 0.40141 0.0
H1521 H 0.67935 0.86399 0.45622 0.0
H1522 H 0.69791 0.84001 0.43739 0.0
H1523 H 0.75438 0.87888 0.46193 0.0
H1524 H 0.73592 0.90298 0.48073 0.0
H1525 H 0.76175 0.91817 0.44275 0.0
H1526 H 0.68919 0.95116 0.30331 0.0
H1527 H 0.66332 0.97788 0.33927 0.0
H1528 H 0.68266 0.9242 0.45625 0.0
C1529 C 0.73918 0.85959 0.36783 0.0
C1530 C 0.74768 0.85842 0.32707 0.0
C1531 C 0.73999 0.8806 0.29537 0.0
C1532 C 0.72462 0.90193 0.30263 0.0
C1533 C 0.71667 0.90232 0.34252 0.0
C1534 C 0.72406 0.88184 0.37495 0.0
C1535 C 0.71349 0.88798 0.4153 0.0
C1536 C 0.68776 0.85943 0.42838 0.0
C1537 C 0.74315 0.89755 0.4524 0.0
C1538 C 0.69877 0.91474 0.40062 0.0
C1539 C 0.70079 0.92227 0.35817 0.0
C1540 C 0.68803 0.94525 0.33658 0.0
C1541 C 0.67307 0.96063 0.35779 0.0
C1542 C 0.67044 0.95452 0.40162 0.0
C1543 C 0.68411 0.93075 0.42321 0.0
H1544 H 0.24851 0.68574 0.37435 0.0
H1545 H 0.21873 0.76067 0.40194 0.0
H1546 H 0.17848 0.72425 0.44 0.0
H1547 H 0.16757 0.63103 0.3538 0.0
H1548 H 0.18101 0.59882 0.37709 0.0
H1549 H 0.2081 0.63101 0.35382 0.0
H1550 H 0.25077 0.6369 0.42512 0.0
H1551 H 0.22378 0.60472 0.44858 0.0
H1552 H 0.23947 0.64095 0.47399 0.0
H1553 H 0.13987 0.67638 0.47865 0.0
H1554 H 0.1084 0.6259 0.50625 0.0
H1555 H 0.16131 0.58224 0.44983 0.0
C1556 C 0.23378 0.69473 0.38864 0.0
C1557 C 0.23778 0.72688 0.38497 0.0
C1558 C 0.21698 0.73668 0.40395 0.0
C1559 C 0.19376 0.71587 0.4259 0.0
C1560 C 0.19051 0.68448 0.42884 0.0
C1561 C 0.20999 0.67406 0.4102 0.0
C1562 C 0.20118 0.6392 0.4163 0.0
C1563 C 0.18873 0.62413 0.37266 0.0
C1564 C 0.23055 0.6299 0.44255 0.0
C1565 C 0.17396 0.63143 0.44137 0.0
C1566 C 0.16814 0.65779 0.4488 0.0
C1567 C 0.14441 0.65583 0.47235 0.0
C1568 C 0.12639 0.62676 0.48815 0.0
C1569 C 0.13138 0.59913 0.48039 0.0
C1570 C 0.15592 0.60226 0.45647 0.0
H1571 H 0.34897 0.19903 0.30768 0.0
H1572 H 0.40915 0.28144 0.3738 0.0
H1573 H 0.45153 0.25677 0.4038 0.0
H1574 H 0.37148 0.14639 0.39553 0.0
H1575 H 0.3714 0.11818 0.36108 0.0
H1576 H 0.34583 0.14238 0.34259 0.0
H1577 H 0.37191 0.15993 0.27654 0.0
H1578 H 0.39756 0.13579 0.29494 0.0
H1579 H 0.41543 0.17604 0.28418 0.0
H1580 H 0.48991 0.22283 0.42768 0.0
H1581 H 0.51758 0.18302 0.44506 0.0
H1582 H 0.43369 0.11935 0.36935 0.0
C1583 C 0.37119 0.21211 0.32803 0.0
C1584 C 0.37503 0.2431 0.33732 0.0
C1585 C 0.40476 0.25822 0.36528 0.0
C1586 C 0.42939 0.24418 0.38278 0.0
C1587 C 0.42487 0.21402 0.37338 0.0
C1588 C 0.3963 0.19795 0.34687 0.0
C1589 C 0.39747 0.16519 0.34373 0.0
C1590 C 0.36989 0.14163 0.36179 0.0
C1591 C 0.39546 0.15885 0.29706 0.0
C1592 C 0.431 0.16551 0.37197 0.0
C1593 C 0.44642 0.19415 0.38846 0.0
C1594 C 0.47772 0.20041 0.41475 0.0
C1595 C 0.49357 0.17738 0.4245 0.0
C1596 C 0.47868 0.14736 0.40897 0.0
C1597 C 0.44647 0.14172 0.38221 0.0
H1598 H 0.72964 0.86516 0.74325 0.0
H1599 H 0.78303 0.84434 0.6597 0.0
H1600 H 0.76743 0.88192 0.60549 0.0
H1601 H 0.66182 0.87293 0.65554 0.0
H1602 H 0.65556 0.90334 0.67959 0.0
H1603 H 0.67161 0.87544 0.71301 0.0
H1604 H 0.72131 0.9188 0.74852 0.0
H1605 H 0.70552 0.94681 0.715 0.0
H1606 H 0.7458 0.94585 0.71542 0.0
H1607 H 0.74951 0.92477 0.56149 0.0
H1608 H 0.7239 0.96393 0.52658 0.0
H1609 H 0.67563 0.95428 0.6322 0.0
C1610 C 0.73787 0.86839 0.71343 0.0
C1611 C 0.75783 0.85145 0.70622 0.0
C1612 C 0.76772 0.85654 0.6664 0.0
C1613 C 0.75908 0.87814 0.63527 0.0
C1614 C 0.73969 0.89446 0.64334 0.0
C1615 C 0.72851 0.88941 0.68101 0.0
C1616 C 0.70652 0.90918 0.68021 0.0
C1617 C 0.67181 0.88902 0.68221 0.0
C1618 C 0.72063 0.93148 0.71698 0.0
C1619 C 0.70752 0.92633 0.63662 0.0
C1620 C 0.72737 0.91776 0.61639 0.0
C1621 C 0.73363 0.93131 0.57693 0.0
C1622 C 0.71908 0.95379 0.55735 0.0
C1623 C 0.69764 0.96241 0.57628 0.0
C1624 C 0.69173 0.94821 0.6166 0.0
H1625 H 0.77926 0.20319 0.53046 0.0
H1626 H 0.7085 0.23671 0.56599 0.0
H1627 H 0.66498 0.19203 0.53451 0.0
H1628 H 0.74003 0.18051 0.43608 0.0
H1629 H 0.74925 0.14533 0.43587 0.0
H1630 H 0.77668 0.17534 0.46985 0.0
H1631 H 0.773 0.13995 0.53799 0.0
H1632 H 0.74791 0.10906 0.50369 0.0
H1633 H 0.73372 0.11746 0.54748 0.0
H1634 H 0.63098 0.15835 0.47265 0.0
H1635 H 0.60526 0.11657 0.42177 0.0
H1636 H 0.69662 0.09684 0.44206 0.0
C1637 C 0.75499 0.20092 0.5338 0.0
C1638 C 0.74664 0.22597 0.54448 0.0
C1639 C 0.7151 0.21969 0.55273 0.0
C1640 C 0.69005 0.19428 0.53497 0.0
C1641 C 0.69815 0.17344 0.51514 0.0
C1642 C 0.73003 0.17488 0.51796 0.0
C1643 C 0.73213 0.15001 0.49269 0.0
C1644 C 0.75061 0.16364 0.45652 0.0
C1645 C 0.74759 0.1278 0.52224 0.0
C1646 C 0.69642 0.13506 0.47442 0.0
C1647 C 0.67747 0.14994 0.48616 0.0
C1648 C 0.64495 0.1447 0.46615 0.0
C1649 C 0.63061 0.12109 0.4373 0.0
C1650 C 0.64807 0.10167 0.43154 0.0
C1651 C 0.68203 0.11013 0.44786 0.0
H1652 H 0.89211 0.69788 0.42806 0.0
H1653 H 0.91399 0.728 0.5578 0.0
H1654 H 0.96763 0.71906 0.57052 0.0
H1655 H 0.91871 0.63615 0.45503 0.0
H1656 H 0.9334 0.63794 0.40677 0.0
H1657 H 0.90147 0.65376 0.4063 0.0
H1658 H 0.93631 0.7057 0.37809 0.0
H1659 H 0.96885 0.68995 0.38011 0.0
H1660 H 0.97651 0.72399 0.40837 0.0
H1661 H 1.0146 0.70015 0.57163 0.0
H1662 H 0.04391 0.66396 0.56734 0.0
H1663 H 0.98925 0.64424 0.43755 0.0
C1664 C 0.90836 0.70294 0.45905 0.0
C1665 C 0.89907 0.71336 0.49212 0.0
C1666 C 0.92093 0.72008 0.53209 0.0
C1667 C 0.95146 0.71539 0.53933 0.0
C1668 C 0.95965 0.70452 0.50601 0.0
C1669 C 0.93846 0.69817 0.46676 0.0
C1670 C 0.94987 0.68163 0.43875 0.0
C1671 C 0.92437 0.65055 0.42605 0.0
C1672 C 0.9584 0.70152 0.39899 0.0
C1673 C 0.97993 0.67786 0.46926 0.0
C1674 C 0.98601 0.69234 0.5072 0.0
C1675 C 1.0103 0.68903 0.54195 0.0
C1676 C 1.02687 0.66842 0.53915 0.0
C1677 C 1.01812 0.6508 0.5024 0.0
C1678 C 0.99631 0.6574 0.46602 0.0
H1679 H 0.41019 0.8486 0.36105 0.0
H1680 H 0.33596 0.85132 0.42552 0.0
H1681 H 0.37168 0.9008 0.45617 0.0
H1682 H 0.4814 0.88414 0.44658 0.0
H1683 H 0.50546 0.9053 0.40883 0.0
H1684 H 0.47534 0.86899 0.39497 0.0
H1685 H 0.44788 0.89425 0.32695 0.0
H1686 H 0.47801 0.93056 0.34041 0.0
H1687 H 0.43546 0.92679 0.33274 0.0
H1688 H 0.41285 0.95275 0.4724 0.0
H1689 H 0.45796 1.00114 0.47891 0.0
H1690 H 0.50745 0.9644 0.40662 0.0
C1691 C 0.40189 0.85934 0.38251 0.0
C1692 C 0.37047 0.84602 0.39146 0.0
C1693 C 0.36005 0.86098 0.41878 0.0
C1694 C 0.38017 0.88913 0.43615 0.0
C1695 C 0.41083 0.90197 0.42618 0.0
C1696 C 0.4219 0.88731 0.40057 0.0
C1697 C 0.45529 0.90667 0.39334 0.0
C1698 C 0.48089 0.8903 0.41206 0.0
C1699 C 0.45412 0.91503 0.34548 0.0
C1700 C 0.4611 0.93476 0.41823 0.0
C1701 C 0.43504 0.93157 0.43675 0.0
C1702 C 0.43358 0.95528 0.45862 0.0
C1703 C 0.45926 0.98285 0.46176 0.0
C1704 C 0.48638 0.98683 0.44321 0.0
C1705 C 0.48733 0.96212 0.42157 0.0
H1706 H 0.28345 0.43257 0.46768 0.0
H1707 H 0.23501 0.3398 0.50791 0.0
H1708 H 0.19499 0.35788 0.53049 0.0
H1709 H 0.26912 0.47167 0.55364 0.0
H1710 H 0.26219 0.50273 0.51757 0.0
H1711 H 0.28984 0.48357 0.50987 0.0
H1712 H 0.25788 0.47222 0.43233 0.0
H1713 H 0.22995 0.49118 0.43915 0.0
H1714 H 0.21491 0.45224 0.42254 0.0
H1715 H 0.15478 0.38371 0.53443 0.0
H1716 H 0.12104 0.41768 0.53052 0.0
H1717 H 0.19784 0.49459 0.49458 0.0
C1718 C 0.26521 0.41624 0.48279 0.0
C1719 C 0.26224 0.38478 0.48597 0.0
C1720 C 0.23747 0.36397 0.50481 0.0
C1721 C 0.21476 0.37403 0.51789 0.0
C1722 C 0.21747 0.40499 0.51243 0.0
C1723 C 0.24248 0.42595 0.49627 0.0
C1724 C 0.23842 0.45753 0.49065 0.0
C1725 C 0.26654 0.48021 0.51968 0.0
C1726 C 0.23508 0.46893 0.44337 0.0
C1727 C 0.20679 0.45087 0.50514 0.0
C1728 C 0.19495 0.42032 0.51711 0.0
C1729 C 0.16419 0.40782 0.52643 0.0
C1730 C 0.14518 0.42715 0.52389 0.0
C1731 C 0.15747 0.45863 0.51343 0.0
C1732 C 0.18859 0.4707 0.50404 0.0
H1733 H 0.39177 0.18294 0.58332 0.0
H1734 H 0.45856 0.2068 0.70577 0.0
H1735 H 0.49548 0.18389 0.68576 0.0
H1736 H 0.40464 0.10928 0.57767 0.0
H1737 H 0.40294 0.11238 0.52078 0.0
H1738 H 0.381 0.13125 0.54318 0.0
H1739 H 0.41044 0.18278 0.50886 0.0
H1740 H 0.43239 0.16394 0.48643 0.0
H1741 H 0.45424 0.1961 0.51983 0.0
H1742 H 0.52616 0.15935 0.65441 0.0
H1743 H 0.54888 0.13283 0.61447 0.0
H1744 H 0.46406 0.1211 0.51004 0.0
C1745 C 0.41412 0.18328 0.60602 0.0
C1746 C 0.42207 0.19753 0.64628 0.0
C1747 C 0.45178 0.19713 0.67451 0.0
C1748 C 0.47304 0.18384 0.66349 0.0
C1749 C 0.46475 0.17053 0.62387 0.0
C1750 C 0.43604 0.16994 0.59536 0.0
C1751 C 0.43359 0.15359 0.55493 0.0
C1752 C 0.40376 0.12492 0.54878 0.0
C1753 C 0.4326 0.1754 0.51516 0.0
C1754 C 0.46526 0.14501 0.56562 0.0
C1755 C 0.48265 0.15539 0.6056 0.0
C1756 C 0.51269 0.15108 0.62313 0.0
C1757 C 0.5255 0.13585 0.59971 0.0
C1758 C 0.50866 0.12442 0.55855 0.0
C1759 C 0.47777 0.12917 0.54134 0.0
H1760 H 0.85706 0.37486 0.71099 0.0
H1761 H 0.90632 0.30579 0.74146 0.0
H1762 H 0.95063 0.33892 0.70698 0.0
H1763 H 0.87778 0.39897 0.60664 0.0
H1764 H 0.88279 0.43865 0.61256 0.0
H1765 H 0.85535 0.40931 0.63948 0.0
H1766 H 0.88573 0.4341 0.712 0.0
H1767 H 0.9133 0.46343 0.68526 0.0
H1768 H 0.92893 0.4406 0.72894 0.0
H1769 H 0.99263 0.38331 0.66811 0.0
H1770 H 1.02272 0.42973 0.63001 0.0
H1771 H 0.94495 0.46842 0.62417 0.0
C1772 C 0.87702 0.36646 0.71037 0.0
C1773 C 0.87749 0.33708 0.72946 0.0
C1774 C 0.90466 0.32777 0.7274 0.0
C1775 C 0.93027 0.3467 0.70772 0.0
C1776 C 0.92907 0.37548 0.68948 0.0
C1777 C 0.90281 0.3851 0.69058 0.0
C1778 C 0.90689 0.41684 0.66871 0.0
C1779 C 0.87905 0.41588 0.62952 0.0
C1780 C 0.90883 0.44012 0.70063 0.0
C1781 C 0.93936 0.42377 0.65509 0.0
C1782 C 0.95213 0.39984 0.66738 0.0
C1783 C 0.98237 0.40192 0.65842 0.0
C1784 C 0.99958 0.42862 0.6366 0.0
C1785 C 0.98682 0.45346 0.62316 0.0
C1786 C 0.95603 0.45032 0.6331 0.0
H1787 H 0.19648 0.72344 0.69315 0.0
H1788 H 0.26175 0.69285 0.79843 0.0
H1789 H 0.23531 0.63963 0.77576 0.0
H1790 H 0.12392 0.65471 0.6966 0.0
H1791 H 0.11067 0.65562 0.6391 0.0
H1792 H 0.13245 0.69066 0.66647 0.0
H1793 H 0.17471 0.70307 0.61844 0.0
H1794 H 0.15344 0.66783 0.59151 0.0
H1795 H 0.19585 0.676 0.61677 0.0
H1796 H 0.20782 0.59132 0.73467 0.0
H1797 H 0.17501 0.54984 0.68494 0.0
H1798 H 0.12467 0.61069 0.60969 0.0
C1799 C 0.20454 0.70539 0.71217 0.0
C1800 C 0.23117 0.71227 0.74758 0.0
C1801 C 0.24127 0.68811 0.7714 0.0
C1802 C 0.22651 0.65782 0.75859 0.0
C1803 C 0.20125 0.65198 0.72241 0.0
C1804 C 0.18974 0.67498 0.70018 0.0
C1805 C 0.1629 0.66273 0.66163 0.0
C1806 C 0.13057 0.66613 0.66624 0.0
C1807 C 0.17231 0.67834 0.61962 0.0
C1808 C 0.16173 0.62945 0.66499 0.0
C1809 C 0.18425 0.62377 0.70006 0.0
C1810 C 0.18958 0.59533 0.70775 0.0
C1811 C 0.17107 0.57201 0.67929 0.0
C1812 C 0.14724 0.57716 0.64409 0.0
C1813 C 0.14244 0.60618 0.63693 0.0
loop_
_geom_bond_atom_site_label_1
_geom_bond_atom_site_label_2
_geom_bond_distance
_geom_bond_site_symmetry_2
_ccdc_geom_bond_type
C0 Eu1 2.835 . S
C0 C2 1.500 . S
C0 O20 1.257 . S
C0 O21 1.260 . S
Eu1 C0 2.835 . S
Eu1 O20 2.473 . S
Eu1 O21 2.480 . S
Eu1 O22 2.430 . S
Eu1 O23 2.670 . S
Eu1 O24 2.394 . S
Eu1 O29 2.355 . S
Eu1 O31 2.374 . S
C2 C0 1.500 . S
C2 C3 1.377 . S
C2 C7 1.377 . S
C3 C2 1.377 . S
C3 C4 1.395 . S
C3 H32 0.931 . S
C4 C3 1.395 . S
C4 C5 1.383 . S
C4 H33 0.931 . S
C5 C4 1.383 . S
C5 C6 1.394 . S
C6 C5 1.394 . S
C6 C7 1.378 . S
C6 H34 0.931 . S
C7 C2 1.377 . S
C7 C6 1.378 . S
C7 H35 0.931 . S
C8 O22 1.259 . S
C8 O23 1.270 . S
C9 O24 1.251 . S
C9 O25 1.251 . S
C10 Eu11 2.835 . S
C10 C12 1.500 . S
C10 O26 1.257 . S
C10 O27 1.260 . S
Eu11 C10 2.835 . S
Eu11 O23 2.355 . S
Eu11 O25 2.374 . S
Eu11 O26 2.473 . S
Eu11 O27 2.480 . S
Eu11 O28 2.430 . S
Eu11 O29 2.670 . S
Eu11 O30 2.394 . S
C12 C10 1.500 . S
C12 C13 1.377 . S
C12 C17 1.377 . S
C13 C12 1.377 . S
C13 C14 1.395 . S
C13 H36 0.931 . S
C14 C13 1.395 . S
C14 C15 1.383 . S
C14 H37 0.931 . S
C15 C14 1.383 . S
C15 C16 1.394 . S
C16 C15 1.394 . S
C16 C17 1.378 . S
C16 H38 0.931 . S
C17 C12 1.377 . S
C17 C16 1.378 . S
C17 H39 0.931 . S
C18 O28 1.259 . S
C18 O29 1.270 . S
C19 O30 1.251 . S
C19 O31 1.251 . S
O20 C0 1.257 . S
O20 Eu1 2.473 . S
O21 C0 1.260 . S
O21 Eu1 2.480 . S
O22 Eu1 2.430 . S
O22 C8 1.259 . S
O23 Eu1 2.670 . S
O23 C8 1.270 . S
O23 Eu11 2.355 . S
O24 Eu1 2.394 . S
O24 C9 1.251 . S
O25 C9 1.251 . S
O25 Eu11 2.374 . S
O26 C10 1.257 . S
O26 Eu11 2.473 . S
O27 C10 1.260 . S
O27 Eu11 2.480 . S
O28 Eu11 2.430 . S
O28 C18 1.259 . S
O29 Eu1 2.355 . S
O29 Eu11 2.670 . S
O29 C18 1.270 . S
O30 Eu11 2.394 . S
O30 C19 1.251 . S
O31 Eu1 2.374 . S
O31 C19 1.251 . S
H32 C3 0.931 . S
H33 C4 0.931 . S
H34 C6 0.931 . S
H35 C7 0.931 . S
H36 C13 0.931 . S
H37 C14 0.931 . S
H38 C16 0.931 . S
H39 C17 0.931 . S
C40 Eu41 2.835 . S
C40 C42 1.500 . S
C40 O60 1.257 . S
C40 O61 1.260 . S
Eu41 C40 2.835 . S
Eu41 O60 2.473 . S
Eu41 O61 2.480 . S
Eu41 O62 2.430 . S
Eu41 O63 2.670 . S
Eu41 O64 2.394 . S
Eu41 O69 2.355 . S
Eu41 O71 2.374 . S
C42 C40 1.500 . S
C42 C43 1.377 . S
C42 C47 1.377 . S
C43 C42 1.377 . S
C43 C44 1.395 . S
C43 H72 0.931 . S
C44 C43 1.395 . S
C44 C45 1.383 . S
C44 H73 0.931 . S
C45 C44 1.383 . S
C45 C46 1.394 . S
C46 C45 1.394 . S
C46 C47 1.378 . S
C46 H74 0.931 . S
C47 C42 1.377 . S
C47 C46 1.378 . S
C47 H75 0.931 . S
C48 O62 1.259 . S
C48 O63 1.270 . S
C49 O64 1.251 . S
C49 O65 1.251 . S
C50 Eu51 2.835 . S
C50 C52 1.500 . S
C50 O66 1.257 . S
C50 O67 1.260 . S
Eu51 C50 2.835 . S
Eu51 O63 2.355 . S
Eu51 O65 2.374 . S
Eu51 O66 2.473 . S
Eu51 O67 2.480 . S
Eu51 O68 2.430 . S
Eu51 O69 2.670 . S
Eu51 O70 2.394 . S
C52 C50 1.500 . S
C52 C53 1.377 . S
C52 C57 1.377 . S
C53 C52 1.377 . S
C53 C54 1.395 . S
C53 H76 0.931 . S
C54 C53 1.395 . S
C54 C55 1.383 . S
C54 H77 0.931 . S
C55 C54 1.383 . S
C55 C56 1.394 . S
C56 C55 1.394 . S
C56 C57 1.378 . S
C56 H78 0.931 . S
C57 C52 1.377 . S
C57 C56 1.378 . S
C57 H79 0.931 . S
C58 O68 1.259 . S
C58 O69 1.270 . S
C59 O70 1.251 . S
C59 O71 1.251 . S
O60 C40 1.257 . S
O60 Eu41 2.473 . S
O61 C40 1.260 . S
O61 Eu41 2.480 . S
O62 Eu41 2.430 . S
O62 C48 1.259 . S
O63 Eu41 2.670 . S
O63 C48 1.270 . S
O63 Eu51 2.355 . S
O64 Eu41 2.394 . S
O64 C49 1.251 . S
O65 C49 1.251 . S
O65 Eu51 2.374 . S
O66 C50 1.257 . S
O66 Eu51 2.473 . S
O67 C50 1.260 . S
O67 Eu51 2.480 . S
O68 Eu51 2.430 . S
O68 C58 1.259 . S
O69 Eu41 2.355 . S
O69 Eu51 2.670 . S
O69 C58 1.270 . S
O70 Eu51 2.394 . S
O70 C59 1.251 . S
O71 Eu41 2.374 . S
O71 C59 1.251 . S
H72 C43 0.931 . S
H73 C44 0.931 . S
H74 C46 0.931 . S
H75 C47 0.931 . S
H76 C53 0.931 . S
H77 C54 0.931 . S
H78 C56 0.931 . S
H79 C57 0.931 . S
C80 Eu81 2.835 . S
C80 C82 1.500 . S
C80 O100 1.257 . S
C80 O101 1.260 . S
Eu81 C80 2.835 . S
Eu81 O100 2.473 . S
Eu81 O101 2.480 . S
Eu81 O102 2.430 . S
Eu81 O103 2.670 . S
Eu81 O104 2.394 . S
Eu81 O109 2.355 . S
Eu81 O111 2.374 . S
C82 C80 1.500 . S
C82 C83 1.377 . S
C82 C87 1.377 . S
C83 C82 1.377 . S
C83 C84 1.395 . S
C83 H112 0.931 . S
C84 C83 1.395 . S
C84 C85 1.383 . S
C84 H113 0.931 . S
C85 C84 1.383 . S
C85 C86 1.394 . S
C86 C85 1.394 . S
C86 C87 1.378 . S
C86 H114 0.931 . S
C87 C82 1.377 . S
C87 C86 1.378 . S
C87 H115 0.931 . S
C88 O102 1.259 . S
C88 O103 1.270 . S
C89 O104 1.251 . S
C89 O105 1.251 . S
C90 Eu91 2.835 . S
C90 C92 1.500 . S
C90 O106 1.257 . S
C90 O107 1.260 . S
Eu91 C90 2.835 . S
Eu91 O103 2.355 . S
Eu91 O105 2.374 . S
Eu91 O106 2.473 . S
Eu91 O107 2.480 . S
Eu91 O108 2.430 . S
Eu91 O109 2.670 . S
Eu91 O110 2.394 . S
C92 C90 1.500 . S
C92 C93 1.377 . S
C92 C97 1.377 . S
C93 C92 1.377 . S
C93 C94 1.395 . S
C93 H116 0.931 . S
C94 C93 1.395 . S
C94 C95 1.383 . S
C94 H117 0.931 . S
C95 C94 1.383 . S
C95 C96 1.394 . S
C96 C95 1.394 . S
C96 C97 1.378 . S
C96 H118 0.931 . S
C97 C92 1.377 . S
C97 C96 1.378 . S
C97 H119 0.931 . S
C98 O108 1.259 . S
C98 O109 1.270 . S
C99 O110 1.251 . S
C99 O111 1.251 . S
O100 C80 1.257 . S
O100 Eu81 2.473 . S
O101 C80 1.260 . S
O101 Eu81 2.480 . S
O102 Eu81 2.430 . S
O102 C88 1.259 . S
O103 Eu81 2.670 . S
O103 C88 1.270 . S
O103 Eu91 2.355 . S
O104 Eu81 2.394 . S
O104 C89 1.251 . S
O105 C89 1.251 . S
O105 Eu91 2.374 . S
O106 C90 1.257 . S
O106 Eu91 2.473 . S
O107 C90 1.260 . S
O107 Eu91 2.480 . S
O108 Eu91 2.430 . S
O108 C98 1.259 . S
O109 Eu81 2.355 . S
O109 Eu91 2.670 . S
O109 C98 1.270 . S
O110 Eu91 2.394 . S
O110 C99 1.251 . S
O111 Eu81 2.374 . S
O111 C99 1.251 . S
H112 C83 0.931 . S
H113 C84 0.931 . S
H114 C86 0.931 . S
H115 C87 0.931 . S
H116 C93 0.931 . S
H117 C94 0.931 . S
H118 C96 0.931 . S
H119 C97 0.931 . S
C120 Eu121 2.835 . S
C120 C122 1.500 . S
C120 O140 1.257 . S
C120 O141 1.260 . S
Eu121 C120 2.835 . S
Eu121 O140 2.473 . S
Eu121 O141 2.480 . S
Eu121 O142 2.430 . S
Eu121 O143 2.670 . S
Eu121 O144 2.394 . S
Eu121 O149 2.355 . S
Eu121 O151 2.374 . S
C122 C120 1.500 . S
C122 C123 1.377 . S
C122 C127 1.377 . S
C123 C122 1.377 . S
C123 C124 1.395 . S
C123 H152 0.931 . S
C124 C123 1.395 . S
C124 C125 1.383 . S
C124 H153 0.931 . S
C125 C124 1.383 . S
C125 C126 1.394 . S
C126 C125 1.394 . S
C126 C127 1.378 . S
C126 H154 0.931 . S
C127 C122 1.377 . S
C127 C126 1.378 . S
C127 H155 0.931 . S
C128 O142 1.259 . S
C128 O143 1.270 . S
C129 O144 1.251 . S
C129 O145 1.251 . S
C130 Eu131 2.835 . S
C130 C132 1.500 . S
C130 O146 1.257 . S
C130 O147 1.260 . S
Eu131 C130 2.835 . S
Eu131 O143 2.355 . S
Eu131 O145 2.374 . S
Eu131 O146 2.473 . S
Eu131 O147 2.480 . S
Eu131 O148 2.430 . S
Eu131 O149 2.670 . S
Eu131 O150 2.394 . S
C132 C130 1.500 . S
C132 C133 1.377 . S
C132 C137 1.377 . S
C133 C132 1.377 . S
C133 C134 1.395 . S
C133 H156 0.931 . S
C134 C133 1.395 . S
C134 C135 1.383 . S
C134 H157 0.931 . S
C135 C134 1.383 . S
C135 C136 1.394 . S
C136 C135 1.394 . S
C136 C137 1.378 . S
C136 H158 0.931 . S
C137 C132 1.377 . S
C137 C136 1.378 . S
C137 H159 0.931 . S
C138 O148 1.259 . S
C138 O149 1.270 . S
C139 O150 1.251 . S
C139 O151 1.251 . S
O140 C120 1.257 . S
O140 Eu121 2.473 . S
O141 C120 1.260 . S
O141 Eu121 2.480 . S
O142 Eu121 2.430 . S
O142 C128 1.259 . S
O143 Eu121 2.670 . S
O143 C128 1.270 . S
O143 Eu131 2.355 . S
O144 Eu121 2.394 . S
O144 C129 1.251 . S
O145 C129 1.251 . S
O145 Eu131 2.374 . S
O146 C130 1.257 . S
O146 Eu131 2.473 . S
O147 C130 1.260 . S
O147 Eu131 2.480 . S
O148 Eu131 2.430 . S
O148 C138 1.259 . S
O149 Eu121 2.355 . S
O149 Eu131 2.670 . S
O149 C138 1.270 . S
O150 Eu131 2.394 . S
O150 C139 1.251 . S
O151 Eu121 2.374 . S
O151 C139 1.251 . S
H152 C123 0.931 . S
H153 C124 0.931 . S
H154 C126 0.931 . S
H155 C127 0.931 . S
H156 C133 0.931 . S
H157 C134 0.931 . S
H158 C136 0.931 . S
H159 C137 0.931 . S
C160 Eu161 2.835 . S
C160 C162 1.500 . S
C160 O180 1.257 . S
C160 O181 1.260 . S
Eu161 C160 2.835 . S
Eu161 O180 2.473 . S
Eu161 O181 2.480 . S
Eu161 O182 2.430 . S
Eu161 O183 2.670 . S
Eu161 O184 2.394 . S
Eu161 O189 2.355 . S
Eu161 O191 2.374 . S
C162 C160 1.500 . S
C162 C163 1.377 . S
C162 C167 1.377 . S
C163 C162 1.377 . S
C163 C164 1.395 . S
C163 H192 0.931 . S
C164 C163 1.395 . S
C164 C165 1.383 . S
C164 H193 0.931 . S
C165 C164 1.383 . S
C165 C166 1.394 . S
C166 C165 1.394 . S
C166 C167 1.378 . S
C166 H194 0.931 . S
C167 C162 1.377 . S
C167 C166 1.378 . S
C167 H195 0.931 . S
C168 O182 1.259 . S
C168 O183 1.270 . S
C169 O184 1.251 . S
C169 O185 1.251 . S
C170 Eu171 2.835 . S
C170 C172 1.500 . S
C170 O186 1.257 . S
C170 O187 1.260 . S
Eu171 C170 2.835 . S
Eu171 O183 2.355 . S
Eu171 O185 2.374 . S
Eu171 O186 2.473 . S
Eu171 O187 2.480 . S
Eu171 O188 2.430 . S
Eu171 O189 2.670 . S
Eu171 O190 2.394 . S
C172 C170 1.500 . S
C172 C173 1.377 . S
C172 C177 1.377 . S
C173 C172 1.377 . S
C173 C174 1.395 . S
C173 H196 0.931 . S
C174 C173 1.395 . S
C174 C175 1.383 . S
C174 H197 0.931 1_556 S
C175 C174 1.383 . S
C175 C176 1.394 . S
C176 C175 1.394 . S
C176 C177 1.378 . S
C176 H198 0.931 . S
C177 C172 1.377 . S
C177 C176 1.378 . S
C177 H199 0.931 . S
C178 O188 1.259 . S
C178 O189 1.270 . S
C179 O190 1.251 . S
C179 O191 1.251 . S
O180 C160 1.257 . S
O180 Eu161 2.473 . S
O181 C160 1.260 . S
O181 Eu161 2.480 . S
O182 Eu161 2.430 . S
O182 C168 1.259 . S
O183 Eu161 2.670 . S
O183 C168 1.270 . S
O183 Eu171 2.355 . S
O184 Eu161 2.394 . S
O184 C169 1.251 . S
O185 C169 1.251 . S
O185 Eu171 2.374 . S
O186 C170 1.257 . S
O186 Eu171 2.473 . S
O187 C170 1.260 . S
O187 Eu171 2.480 . S
O188 Eu171 2.430 . S
O188 C178 1.259 . S
O189 Eu161 2.355 . S
O189 Eu171 2.670 . S
O189 C178 1.270 . S
O190 Eu171 2.394 . S
O190 C179 1.251 . S
O191 Eu161 2.374 . S
O191 C179 1.251 . S
H192 C163 0.931 . S
H193 C164 0.931 . S
H194 C166 0.931 . S
H195 C167 0.931 . S
H196 C173 0.931 . S
H197 C174 0.931 1_554 S
H198 C176 0.931 . S
H199 C177 0.931 . S
C200 Eu201 2.835 . S
C200 C202 1.500 . S
C200 O220 1.257 . S
C200 O221 1.260 . S
Eu201 C200 2.835 . S
Eu201 O220 2.473 . S
Eu201 O221 2.480 . S
Eu201 O222 2.430 . S
Eu201 O223 2.670 . S
Eu201 O224 2.394 . S
Eu201 O229 2.355 . S
Eu201 O231 2.374 . S
C202 C200 1.500 . S
C202 C203 1.377 . S
C202 C207 1.377 . S
C203 C202 1.377 . S
C203 C204 1.395 . S
C203 H232 0.931 . S
C204 C203 1.395 . S
C204 C205 1.383 . S
C204 H233 0.931 . S
C205 C204 1.383 . S
C205 C206 1.394 . S
C206 C205 1.394 . S
C206 C207 1.378 . S
C206 H234 0.931 . S
C207 C202 1.377 . S
C207 C206 1.378 . S
C207 H235 0.931 . S
C208 O222 1.259 . S
C208 O223 1.270 . S
C209 O224 1.251 . S
C209 O225 1.251 . S
C210 Eu211 2.835 . S
C210 C212 1.500 . S
C210 O226 1.257 . S
C210 O227 1.260 . S
Eu211 C210 2.835 . S
Eu211 O223 2.355 . S
Eu211 O225 2.374 . S
Eu211 O226 2.473 . S
Eu211 O227 2.480 . S
Eu211 O228 2.430 . S
Eu211 O229 2.670 . S
Eu211 O230 2.394 . S
C212 C210 1.500 . S
C212 C213 1.377 . S
C212 C217 1.377 . S
C213 C212 1.377 . S
C213 C214 1.395 . S
C213 H236 0.931 . S
C214 C213 1.395 . S
C214 C215 1.383 . S
C214 H237 0.931 . S
C215 C214 1.383 . S
C215 C216 1.394 . S
C216 C215 1.394 . S
C216 C217 1.378 . S
C216 H238 0.931 . S
C217 C212 1.377 . S
C217 C216 1.378 . S
C217 H239 0.931 . S
C218 O228 1.259 . S
C218 O229 1.270 . S
C219 O230 1.251 . S
C219 O231 1.251 . S
O220 C200 1.257 . S
O220 Eu201 2.473 . S
O221 C200 1.260 . S
O221 Eu201 2.480 . S
O222 Eu201 2.430 . S
O222 C208 1.259 . S
O223 Eu201 2.670 . S
O223 C208 1.270 . S
O223 Eu211 2.355 . S
O224 Eu201 2.394 . S
O224 C209 1.251 . S
O225 C209 1.251 . S
O225 Eu211 2.374 . S
O226 C210 1.257 . S
O226 Eu211 2.473 . S
O227 C210 1.260 . S
O227 Eu211 2.480 . S
O228 Eu211 2.430 . S
O228 C218 1.259 . S
O229 Eu201 2.355 . S
O229 Eu211 2.670 . S
O229 C218 1.270 . S
O230 Eu211 2.394 . S
O230 C219 1.251 . S
O231 Eu201 2.374 . S
O231 C219 1.251 . S
H232 C203 0.931 . S
H233 C204 0.931 . S
H234 C206 0.931 . S
H235 C207 0.931 . S
H236 C213 0.931 . S
H237 C214 0.931 . S
H238 C216 0.931 . S
H239 C217 0.931 . S
C240 Eu241 2.835 . S
C240 C242 1.500 . S
C240 O260 1.257 . S
C240 O261 1.260 . S
Eu241 C240 2.835 . S
Eu241 O260 2.473 . S
Eu241 O261 2.480 . S
Eu241 O262 2.430 . S
Eu241 O263 2.670 . S
Eu241 O264 2.394 . S
Eu241 O269 2.355 . S
Eu241 O271 2.374 . S
C242 C240 1.500 . S
C242 C243 1.377 . S
C242 C247 1.377 . S
C243 C242 1.377 . S
C243 C244 1.395 . S
C243 H272 0.931 . S
C244 C243 1.395 . S
C244 C245 1.383 . S
C244 H273 0.931 . S
C245 C244 1.383 . S
C245 C246 1.394 . S
C246 C245 1.394 . S
C246 C247 1.378 . S
C246 H274 0.931 . S
C247 C242 1.377 . S
C247 C246 1.378 . S
C247 H275 0.931 . S
C248 O262 1.259 . S
C248 O263 1.270 . S
C249 O264 1.251 . S
C249 O265 1.251 . S
C250 Eu251 2.835 . S
C250 C252 1.500 . S
C250 O266 1.257 . S
C250 O267 1.260 . S
Eu251 C250 2.835 . S
Eu251 O263 2.355 . S
Eu251 O265 2.374 . S
Eu251 O266 2.473 . S
Eu251 O267 2.480 . S
Eu251 O268 2.430 . S
Eu251 O269 2.670 . S
Eu251 O270 2.394 . S
C252 C250 1.500 . S
C252 C253 1.377 . S
C252 C257 1.377 . S
C253 C252 1.377 . S
C253 C254 1.395 . S
C253 H276 0.931 . S
C254 C253 1.395 . S
C254 C255 1.383 . S
C254 H277 0.931 . S
C255 C254 1.383 . S
C255 C256 1.394 . S
C256 C255 1.394 . S
C256 C257 1.378 . S
C256 H278 0.931 . S
C257 C252 1.377 . S
C257 C256 1.378 . S
C257 H279 0.931 . S
C258 O268 1.259 . S
C258 O269 1.270 . S
C259 O270 1.251 . S
C259 O271 1.251 . S
O260 C240 1.257 . S
O260 Eu241 2.473 . S
O261 C240 1.260 . S
O261 Eu241 2.480 . S
O262 Eu241 2.430 . S
O262 C248 1.259 . S
O263 Eu241 2.670 . S
O263 C248 1.270 . S
O263 Eu251 2.355 . S
O264 Eu241 2.394 . S
O264 C249 1.251 . S
O265 C249 1.251 . S
O265 Eu251 2.374 . S
O266 C250 1.257 . S
O266 Eu251 2.473 . S
O267 C250 1.260 . S
O267 Eu251 2.480 . S
O268 Eu251 2.430 . S
O268 C258 1.259 . S
O269 Eu241 2.355 . S
O269 Eu251 2.670 . S
O269 C258 1.270 . S
O270 Eu251 2.394 . S
O270 C259 1.251 . S
O271 Eu241 2.374 . S
O271 C259 1.251 . S
H272 C243 0.931 . S
H273 C244 0.931 . S
H274 C246 0.931 . S
H275 C247 0.931 . S
H276 C253 0.931 . S
H277 C254 0.931 . S
H278 C256 0.931 . S
H279 C257 0.931 . S
C280 Eu281 2.835 . S
C280 C282 1.500 . S
C280 O300 1.257 . S
C280 O301 1.260 . S
Eu281 C280 2.835 . S
Eu281 O300 2.473 . S
Eu281 O301 2.480 . S
Eu281 O302 2.430 . S
Eu281 O303 2.670 . S
Eu281 O304 2.394 . S
Eu281 O309 2.355 . S
Eu281 O311 2.374 . S
C282 C280 1.500 . S
C282 C283 1.377 . S
C282 C287 1.377 . S
C283 C282 1.377 . S
C283 C284 1.395 . S
C283 H312 0.931 . S
C284 C283 1.395 . S
C284 C285 1.383 . S
C284 H313 0.931 . S
C285 C284 1.383 . S
C285 C286 1.394 . S
C286 C285 1.394 . S
C286 C287 1.378 . S
C286 H314 0.931 . S
C287 C282 1.377 . S
C287 C286 1.378 . S
C287 H315 0.931 . S
C288 O302 1.259 . S
C288 O303 1.270 . S
C289 O304 1.251 . S
C289 O305 1.251 . S
C290 Eu291 2.835 . S
C290 C292 1.500 . S
C290 O306 1.257 . S
C290 O307 1.260 . S
Eu291 C290 2.835 . S
Eu291 O303 2.355 . S
Eu291 O305 2.374 . S
Eu291 O306 2.473 . S
Eu291 O307 2.480 . S
Eu291 O308 2.430 . S
Eu291 O309 2.670 . S
Eu291 O310 2.394 . S
C292 C290 1.500 . S
C292 C293 1.377 . S
C292 C297 1.377 . S
C293 C292 1.377 . S
C293 C294 1.395 . S
C293 H316 0.931 . S
C294 C293 1.395 . S
C294 C295 1.383 . S
C294 H317 0.931 . S
C295 C294 1.383 . S
C295 C296 1.394 . S
C296 C295 1.394 . S
C296 C297 1.378 . S
C296 H318 0.931 . S
C297 C292 1.377 . S
C297 C296 1.378 . S
C297 H319 0.931 . S
C298 O308 1.259 . S
C298 O309 1.270 . S
C299 O310 1.251 . S
C299 O311 1.251 . S
O300 C280 1.257 . S
O300 Eu281 2.473 . S
O301 C280 1.260 . S
O301 Eu281 2.480 . S
O302 Eu281 2.430 . S
O302 C288 1.259 . S
O303 Eu281 2.670 . S
O303 C288 1.270 . S
O303 Eu291 2.355 . S
O304 Eu281 2.394 . S
O304 C289 1.251 . S
O305 C289 1.251 . S
O305 Eu291 2.374 . S
O306 C290 1.257 . S
O306 Eu291 2.473 . S
O307 C290 1.260 . S
O307 Eu291 2.480 . S
O308 Eu291 2.430 . S
O308 C298 1.259 . S
O309 Eu281 2.355 . S
O309 Eu291 2.670 . S
O309 C298 1.270 . S
O310 Eu291 2.394 . S
O310 C299 1.251 . S
O311 Eu281 2.374 . S
O311 C299 1.251 . S
H312 C283 0.931 . S
H313 C284 0.931 . S
H314 C286 0.931 . S
H315 C287 0.931 . S
H316 C293 0.931 . S
H317 C294 0.931 . S
H318 C296 0.931 . S
H319 C297 0.931 . S
Co320 O323 2.042 . S
Co320 O330 2.264 . S
Co320 O349 2.286 . S
Co320 O350 2.069 . S
Co320 O352 2.015 1_455 S
Co321 O323 2.122 . S
Co321 O329 2.073 . S
Co321 O330 2.327 . S
Co321 O331 1.976 1_455 S
Co322 O323 2.087 1_545 S
Co322 O325 2.087 1_455 S
Co322 O332 2.111 1_445 S
Co322 O333 2.143 . S
Co322 O337 2.111 . S
Co322 O351 2.143 1_445 S
O323 Co320 2.042 . S
O323 Co321 2.122 . S
O323 Co322 2.087 1_565 S
O323 H324 0.980 1_565 S
H324 O323 0.980 1_545 S
O325 Co322 2.087 1_655 S
O325 Co326 2.042 . S
O325 Co327 2.122 . S
O325 H328 0.980 . S
Co326 O325 2.042 . S
Co326 O334 2.286 . S
Co326 O335 2.069 . S
Co326 O336 2.015 1_655 S
Co326 O339 2.264 . S
Co327 O325 2.122 . S
Co327 O338 1.976 1_655 S
Co327 O339 2.327 . S
Co327 O340 2.073 . S
H328 O325 0.980 . S
O329 Co321 2.073 . S
O329 C344 1.245 . S
O330 Co320 2.264 . S
O330 Co321 2.327 . S
O330 C344 1.257 . S
O331 Co321 1.976 1_655 S
O331 C343 1.251 . S
O332 Co322 2.111 1_665 S
O332 C343 1.274 . S
O333 Co322 2.143 . S
O333 C346 1.246 . S
O334 Co326 2.286 . S
O334 C345 1.259 . S
O335 Co326 2.069 . S
O335 C345 1.289 . S
O336 Co326 2.015 1_455 S
O336 C346 1.257 . S
O337 Co322 2.111 . S
O337 C347 1.274 . S
O338 Co327 1.976 1_455 S
O338 C347 1.251 . S
O339 Co326 2.264 . S
O339 Co327 2.327 . S
O339 C348 1.257 . S
O340 Co327 2.073 . S
O340 C348 1.245 . S
C341 O349 1.259 . S
C341 O350 1.289 . S
C342 O351 1.246 . S
C342 O352 1.257 . S
C343 O331 1.251 . S
C343 O332 1.274 . S
C344 O329 1.245 . S
C344 O330 1.257 . S
C345 O334 1.259 . S
C345 O335 1.289 . S
C346 O333 1.246 . S
C346 O336 1.257 . S
C347 O337 1.274 . S
C347 O338 1.251 . S
C348 O339 1.257 . S
C348 O340 1.245 . S
O349 Co320 2.286 . S
O349 C341 1.259 . S
O350 Co320 2.069 . S
O350 C341 1.289 . S
O351 Co322 2.143 1_665 S
O351 C342 1.246 . S
O352 Co320 2.015 1_655 S
O352 C342 1.257 . S
Co353 O356 2.042 1_566 S
Co353 O363 2.264 1_556 S
Co353 O382 2.286 . S
Co353 O383 2.069 . S
Co353 O385 2.015 . S
Co354 O356 2.122 1_565 S
Co354 O362 2.073 . S
Co354 O363 2.327 . S
Co354 O364 1.976 . S
Co355 O356 2.087 . S
Co355 O358 2.087 1_554 S
Co355 O365 2.111 . S
Co355 O366 2.143 . S
Co355 O370 2.111 1_554 S
Co355 O384 2.149 1_554 S
O356 Co353 2.042 1_544 S
O356 Co354 2.122 1_545 S
O356 Co355 2.087 . S
O356 H357 0.980 . S
H357 O356 0.980 . S
O358 Co355 2.087 1_556 S
O358 Co359 2.042 1_556 S
O358 Co360 2.122 . S
O358 H361 0.980 . S
Co359 O358 2.042 1_554 S
Co359 O367 2.286 . S
Co359 O368 2.069 . S
Co359 O369 2.015 . S
Co359 O372 2.264 1_554 S
Co360 O358 2.122 . S
Co360 O371 1.976 . S
Co360 O372 2.327 . S
Co360 O373 2.073 . S
H361 O358 0.980 . S
O362 Co354 2.073 . S
O362 C377 1.245 . S
O363 Co353 2.264 1_554 S
O363 Co354 2.327 . S
O363 C377 1.257 . S
O364 Co354 1.976 . S
O364 C376 1.251 . S
O365 Co355 2.111 . S
O365 C376 1.274 1_545 S
O366 Co355 2.143 . S
O366 C379 1.246 . S
O367 Co359 2.286 . S
O367 C378 1.259 . S
O368 Co359 2.069 . S
O368 C378 1.289 . S
O369 Co359 2.015 . S
O369 C379 1.257 . S
O370 Co355 2.111 1_556 S
O370 C380 1.274 . S
O371 Co360 1.976 . S
O371 C380 1.251 . S
O372 Co359 2.264 1_556 S
O372 Co360 2.327 . S
O372 C381 1.257 . S
O373 Co360 2.073 . S
O373 C381 1.245 . S
C374 O382 1.259 . S
C374 O383 1.289 . S
C375 O384 1.236 1_565 S
C375 O385 1.257 . S
C376 O364 1.251 . S
C376 O365 1.274 1_565 S
C377 O362 1.245 . S
C377 O363 1.257 . S
C378 O367 1.259 . S
C378 O368 1.289 . S
C379 O366 1.246 . S
C379 O369 1.257 . S
C380 O370 1.274 . S
C380 O371 1.251 . S
C381 O372 1.257 . S
C381 O373 1.245 . S
O382 Co353 2.286 . S
O382 C374 1.259 . S
O383 Co353 2.069 . S
O383 C374 1.289 . S
O384 Co355 2.149 1_556 S
O384 C375 1.236 1_545 S
O385 Co353 2.015 . S
O385 C375 1.257 . S
Co386 O389 2.042 . S
Co386 O396 2.264 . S
Co386 O415 2.286 . S
Co386 O416 2.069 . S
Co386 O418 2.015 1_455 S
Co387 O389 2.122 . S
Co387 O395 2.073 . S
Co387 O396 2.327 . S
Co387 O397 1.976 1_455 S
Co388 O389 2.087 . S
Co388 O391 2.087 1_455 S
Co388 O398 2.111 1_455 S
Co388 O399 2.143 . S
Co388 O403 2.111 . S
Co388 O417 2.143 1_455 S
O389 Co386 2.042 . S
O389 Co387 2.122 . S
O389 Co388 2.087 . S
O389 H390 0.980 . S
H390 O389 0.980 . S
O391 Co388 2.087 1_655 S
O391 Co392 2.042 . S
O391 Co393 2.122 1_554 S
O391 H394 0.980 . S
Co392 O391 2.042 . S
Co392 O400 2.286 . S
Co392 O401 2.069 . S
Co392 O402 2.015 1_655 S
Co392 O405 2.264 . S
Co393 O391 2.122 1_556 S
Co393 O404 1.976 1_655 S
Co393 O405 2.327 1_556 S
Co393 O406 2.073 . S
H394 O391 0.980 . S
O395 Co387 2.073 . S
O395 C410 1.245 . S
O396 Co386 2.264 . S
O396 Co387 2.327 . S
O396 C410 1.257 . S
O397 Co387 1.976 1_655 S
O397 C409 1.251 . S
O398 Co388 2.111 1_655 S
O398 C409 1.274 . S
O399 Co388 2.143 . S
O399 C412 1.246 . S
O400 Co392 2.286 . S
O400 C411 1.259 . S
O401 Co392 2.069 . S
O401 C411 1.289 . S
O402 Co392 2.015 1_455 S
O402 C412 1.257 . S
O403 Co388 2.111 . S
O403 C413 1.274 . S
O404 Co393 1.976 1_455 S
O404 C413 1.251 1_556 S
O405 Co392 2.264 . S
O405 Co393 2.327 1_554 S
O405 C414 1.257 1_554 S
O406 Co393 2.073 . S
O406 C414 1.245 . S
C407 O415 1.259 . S
C407 O416 1.289 . S
C408 O417 1.246 . S
C408 O418 1.257 . S
C409 O397 1.251 . S
C409 O398 1.274 . S
C410 O395 1.245 . S
C410 O396 1.257 . S
C411 O400 1.259 . S
C411 O401 1.289 . S
C412 O399 1.246 . S
C412 O402 1.257 . S
C413 O403 1.274 . S
C413 O404 1.251 1_554 S
C414 O405 1.257 1_556 S
C414 O406 1.245 . S
O415 Co386 2.286 . S
O415 C407 1.259 . S
O416 Co386 2.069 . S
O416 C407 1.289 . S
O417 Co388 2.143 1_655 S
O417 C408 1.246 . S
O418 Co386 2.015 1_655 S
O418 C408 1.257 . S
Co419 O422 2.042 . S
Co419 O429 2.264 . S
Co419 O448 2.286 1_554 S
Co419 O449 2.069 . S
Co419 O451 2.015 1_554 S
Co420 O422 2.122 . S
Co420 O428 2.073 . S
Co420 O429 2.327 . S
Co420 O430 1.976 . S
Co421 O422 2.087 . S
Co421 O424 2.087 . S
Co421 O431 2.111 . S
Co421 O432 2.143 . S
Co421 O436 2.111 1_554 S
Co421 O450 2.143 1_554 S
O422 Co419 2.042 . S
O422 Co420 2.122 . S
O422 Co421 2.087 . S
O422 H423 0.980 . S
H423 O422 0.980 . S
O424 Co421 2.087 . S
O424 Co425 2.042 . S
O424 Co426 2.122 1_554 S
O424 H427 0.980 . S
Co425 O424 2.042 . S
Co425 O433 2.286 . S
Co425 O434 2.069 . S
Co425 O435 2.015 . S
Co425 O438 2.264 1_554 S
Co426 O424 2.122 1_556 S
Co426 O437 1.976 . S
Co426 O438 2.327 . S
Co426 O439 2.073 . S
H427 O424 0.980 . S
O428 Co420 2.073 . S
O428 C443 1.245 . S
O429 Co419 2.264 . S
O429 Co420 2.327 . S
O429 C443 1.257 . S
O430 Co420 1.976 . S
O430 C442 1.251 . S
O431 Co421 2.111 . S
O431 C442 1.274 . S
O432 Co421 2.143 . S
O432 C445 1.246 . S
O433 Co425 2.286 . S
O433 C444 1.259 . S
O434 Co425 2.069 . S
O434 C444 1.289 . S
O435 Co425 2.015 . S
O435 C445 1.257 . S
O436 Co421 2.111 1_556 S
O436 C446 1.274 . S
O437 Co426 1.976 . S
O437 C446 1.251 . S
O438 Co425 2.264 1_556 S
O438 Co426 2.327 . S
O438 C447 1.257 . S
O439 Co426 2.073 . S
O439 C447 1.245 . S
C440 O448 1.259 . S
C440 O449 1.289 1_556 S
C441 O450 1.246 . S
C441 O451 1.257 . S
C442 O430 1.251 . S
C442 O431 1.274 . S
C443 O428 1.245 . S
C443 O429 1.257 . S
C444 O433 1.259 . S
C444 O434 1.289 . S
C445 O432 1.246 . S
C445 O435 1.257 . S
C446 O436 1.274 . S
C446 O437 1.251 . S
C447 O438 1.257 . S
C447 O439 1.245 . S
O448 Co419 2.286 1_556 S
O448 C440 1.259 . S
O449 Co419 2.069 . S
O449 C440 1.289 1_554 S
O450 Co421 2.143 1_556 S
O450 C441 1.246 . S
O451 Co419 2.015 1_556 S
O451 C441 1.257 . S
Co452 O455 2.042 . S
Co452 O462 2.264 . S
Co452 O481 2.286 . S
Co452 O482 2.069 . S
Co452 O484 2.015 . S
Co453 O455 2.122 . S
Co453 O461 2.073 . S
Co453 O462 2.327 . S
Co453 O463 1.976 . S
Co454 O455 2.087 . S
Co454 O457 2.087 . S
Co454 O464 2.111 . S
Co454 O465 2.143 1_455 S
Co454 O469 2.111 . S
Co454 O483 2.143 . S
O455 Co452 2.042 . S
O455 Co453 2.122 . S
O455 Co454 2.087 . S
O455 H456 0.980 . S
H456 O455 0.980 . S
O457 Co454 2.087 . S
O457 Co458 2.042 1_455 S
O457 Co459 2.126 . S
O457 H460 0.980 . S
Co458 O457 2.042 1_655 S
Co458 O466 2.286 . S
Co458 O467 2.069 . S
Co458 O468 2.015 . S
Co458 O471 2.264 . S
Co459 O457 2.126 . S
Co459 O470 1.975 1_455 S
Co459 O471 2.321 1_455 S
Co459 O472 2.070 1_455 S
H460 O457 0.980 . S
O461 Co453 2.073 . S
O461 C476 1.245 . S
O462 Co452 2.264 . S
O462 Co453 2.327 . S
O462 C476 1.257 . S
O463 Co453 1.976 . S
O463 C475 1.251 . S
O464 Co454 2.111 . S
O464 C475 1.274 . S
O465 Co454 2.143 1_655 S
O465 C478 1.246 . S
O466 Co458 2.286 . S
O466 C477 1.259 . S
O467 Co458 2.069 . S
O467 C477 1.289 . S
O468 Co458 2.015 . S
O468 C478 1.257 . S
O469 Co454 2.111 . S
O469 C479 1.274 1_455 S
O470 Co459 1.975 1_655 S
O470 C479 1.251 . S
O471 Co458 2.264 . S
O471 Co459 2.321 1_655 S
O471 C480 1.257 . S
O472 Co459 2.070 1_655 S
O472 C480 1.245 . S
C473 O481 1.259 . S
C473 O482 1.289 . S
C474 O483 1.246 . S
C474 O484 1.257 . S
C475 O463 1.251 . S
C475 O464 1.274 . S
C476 O461 1.245 . S
C476 O462 1.257 . S
C477 O466 1.259 . S
C477 O467 1.289 . S
C478 O465 1.246 . S
C478 O468 1.257 . S
C479 O469 1.274 1_655 S
C479 O470 1.251 . S
C480 O471 1.257 . S
C480 O472 1.245 . S
O481 Co452 2.286 . S
O481 C473 1.259 . S
O482 Co452 2.069 . S
O482 C473 1.289 . S
O483 Co454 2.143 . S
O483 C474 1.246 . S
O484 Co452 2.015 . S
O484 C474 1.257 . S
Co485 O488 2.042 . S
Co485 O495 2.264 . S
Co485 O514 2.286 . S
Co485 O515 2.069 . S
Co485 O517 2.015 1_565 S
Co486 O488 2.122 . S
Co486 O494 2.073 . S
Co486 O495 2.327 . S
Co486 O496 1.976 1_565 S
Co487 O488 2.087 1_545 S
Co487 O490 2.087 . S
Co487 O497 2.111 . S
Co487 O498 2.143 1_545 S
Co487 O502 2.111 1_545 S
Co487 O516 2.143 . S
O488 Co485 2.042 . S
O488 Co486 2.122 . S
O488 Co487 2.087 1_565 S
O488 H489 0.980 . S
H489 O488 0.980 . S
O490 Co487 2.087 . S
O490 Co491 2.042 . S
O490 Co492 2.122 . S
O490 H493 0.980 . S
Co491 O490 2.042 . S
Co491 O499 2.286 . S
Co491 O500 2.069 . S
Co491 O501 2.015 1_545 S
Co491 O504 2.264 . S
Co492 O490 2.122 . S
Co492 O503 1.976 1_545 S
Co492 O504 2.327 . S
Co492 O505 2.073 . S
H493 O490 0.980 . S
O494 Co486 2.073 . S
O494 C509 1.245 . S
O495 Co485 2.264 . S
O495 Co486 2.327 . S
O495 C509 1.257 . S
O496 Co486 1.976 1_545 S
O496 C508 1.251 . S
O497 Co487 2.111 . S
O497 C508 1.274 . S
O498 Co487 2.143 1_565 S
O498 C511 1.246 . S
O499 Co491 2.286 . S
O499 C510 1.259 . S
O500 Co491 2.069 . S
O500 C510 1.289 . S
O501 Co491 2.015 1_565 S
O501 C511 1.257 . S
O502 Co487 2.111 1_565 S
O502 C512 1.274 . S
O503 Co492 1.976 1_565 S
O503 C512 1.251 . S
O504 Co491 2.264 . S
O504 Co492 2.327 . S
O504 C513 1.257 . S
O505 Co492 2.073 . S
O505 C513 1.245 . S
C506 O514 1.259 . S
C506 O515 1.289 . S
C507 O516 1.246 . S
C507 O517 1.257 . S
C508 O496 1.251 . S
C508 O497 1.274 . S
C509 O494 1.245 . S
C509 O495 1.257 . S
C510 O499 1.259 . S
C510 O500 1.289 . S
C511 O498 1.246 . S
C511 O501 1.257 . S
C512 O502 1.274 . S
C512 O503 1.251 . S
C513 O504 1.257 . S
C513 O505 1.245 . S
O514 Co485 2.286 . S
O514 C506 1.259 . S
O515 Co485 2.069 . S
O515 C506 1.289 . S
O516 Co487 2.143 . S
O516 C507 1.246 . S
O517 Co485 2.015 1_545 S
O517 C507 1.257 . S
H518 C530 0.930 . S
H519 C532 0.930 . S
H520 C533 0.930 . S
H521 C537 0.959 . S
H522 C537 0.959 . S
H523 C537 0.961 . S
H524 C538 0.960 . S
H525 C538 0.961 . S
H526 C538 0.959 . S
H527 C541 0.929 . S
H528 C542 0.931 . S
H529 C544 0.930 . S
C530 H518 0.930 . S
C530 C531 1.399 . S
C530 C535 1.399 . S
C531 C530 1.399 . S
C531 C532 1.376 . S
C532 H519 0.930 . S
C532 C531 1.376 . S
C532 C533 1.388 . S
C533 H520 0.930 . S
C533 C532 1.388 . S
C533 C534 1.390 . S
C534 C533 1.390 . S
C534 C535 1.394 . S
C534 C540 1.465 . S
C535 C530 1.399 . S
C535 C534 1.394 . S
C535 C536 1.516 . S
C536 C535 1.516 . S
C536 C537 1.502 . S
C536 C538 1.561 . S
C536 C539 1.526 . S
C537 H521 0.959 . S
C537 H522 0.959 . S
C537 H523 0.961 . S
C537 C536 1.502 . S
C538 H524 0.960 . S
C538 H525 0.961 . S
C538 H526 0.959 . S
C538 C536 1.561 . S
C539 C536 1.526 . S
C539 C540 1.396 . S
C539 C544 1.390 . S
C540 C534 1.465 . S
C540 C539 1.396 . S
C540 C541 1.399 . S
C541 H527 0.929 . S
C541 C540 1.399 . S
C541 C542 1.385 . S
C542 H528 0.931 . S
C542 C541 1.385 . S
C542 C543 1.389 . S
C543 C542 1.389 . S
C543 C544 1.387 . S
C544 H529 0.930 . S
C544 C539 1.390 . S
C544 C543 1.387 . S
H545 C557 0.930 . S
H546 C559 0.930 . S
H547 C560 0.930 . S
H548 C564 0.959 . S
H549 C564 0.959 . S
H550 C564 0.961 . S
H551 C565 0.960 . S
H552 C565 0.961 . S
H553 C565 0.959 . S
H554 C568 0.929 . S
H555 C569 0.931 . S
H556 C571 0.930 . S
C557 H545 0.930 . S
C557 C558 1.399 . S
C557 C562 1.399 . S
C558 C557 1.399 . S
C558 C559 1.376 . S
C559 H546 0.930 . S
C559 C558 1.376 . S
C559 C560 1.388 . S
C560 H547 0.930 . S
C560 C559 1.388 . S
C560 C561 1.390 . S
C561 C560 1.390 . S
C561 C562 1.394 . S
C561 C567 1.465 . S
C562 C557 1.399 . S
C562 C561 1.394 . S
C562 C563 1.516 . S
C563 C562 1.516 . S
C563 C564 1.502 . S
C563 C565 1.561 . S
C563 C566 1.526 . S
C564 H548 0.959 . S
C564 H549 0.959 . S
C564 H550 0.961 . S
C564 C563 1.502 . S
C565 H551 0.960 . S
C565 H552 0.961 . S
C565 H553 0.959 . S
C565 C563 1.561 . S
C566 C563 1.526 . S
C566 C567 1.396 . S
C566 C571 1.390 . S
C567 C561 1.465 . S
C567 C566 1.396 . S
C567 C568 1.399 . S
C568 H554 0.929 . S
C568 C567 1.399 . S
C568 C569 1.385 . S
C569 H555 0.931 . S
C569 C568 1.385 . S
C569 C570 1.389 . S
C570 C569 1.389 . S
C570 C571 1.387 . S
C571 H556 0.930 . S
C571 C566 1.390 . S
C571 C570 1.387 . S
H572 C584 0.930 . S
H573 C586 0.930 . S
H574 C587 0.930 . S
H575 C591 0.959 . S
H576 C591 0.959 . S
H577 C591 0.961 . S
H578 C592 0.960 . S
H579 C592 0.961 . S
H580 C592 0.959 . S
H581 C595 0.929 . S
H582 C596 0.931 . S
H583 C598 0.930 . S
C584 H572 0.930 . S
C584 C585 1.399 . S
C584 C589 1.399 . S
C585 C584 1.399 . S
C585 C586 1.376 . S
C586 H573 0.930 . S
C586 C585 1.376 . S
C586 C587 1.388 . S
C587 H574 0.930 . S
C587 C586 1.388 . S
C587 C588 1.390 . S
C588 C587 1.390 . S
C588 C589 1.394 . S
C588 C594 1.465 . S
C589 C584 1.399 . S
C589 C588 1.394 . S
C589 C590 1.516 . S
C590 C589 1.516 . S
C590 C591 1.502 . S
C590 C592 1.561 . S
C590 C593 1.526 . S
C591 H575 0.959 . S
C591 H576 0.959 . S
C591 H577 0.961 . S
C591 C590 1.502 . S
C592 H578 0.960 . S
C592 H579 0.961 . S
C592 H580 0.959 . S
C592 C590 1.561 . S
C593 C590 1.526 . S
C593 C594 1.396 . S
C593 C598 1.390 . S
C594 C588 1.465 . S
C594 C593 1.396 . S
C594 C595 1.399 . S
C595 H581 0.929 . S
C595 C594 1.399 . S
C595 C596 1.385 . S
C596 H582 0.931 . S
C596 C595 1.385 . S
C596 C597 1.389 . S
C597 C596 1.389 . S
C597 C598 1.387 . S
C598 H583 0.930 . S
C598 C593 1.390 . S
C598 C597 1.387 . S
H599 C611 0.930 . S
H600 C613 0.930 . S
H601 C614 0.930 . S
H602 C618 0.959 . S
H603 C618 0.959 . S
H604 C618 0.961 . S
H605 C619 0.960 . S
H606 C619 0.961 . S
H607 C619 0.959 . S
H608 C622 0.929 . S
H609 C623 0.931 . S
H610 C625 0.930 . S
C611 H599 0.930 . S
C611 C612 1.399 . S
C611 C616 1.399 . S
C612 C611 1.399 . S
C612 C613 1.376 . S
C613 H600 0.930 . S
C613 C612 1.376 . S
C613 C614 1.388 . S
C614 H601 0.930 . S
C614 C613 1.388 . S
C614 C615 1.390 . S
C615 C614 1.390 . S
C615 C616 1.394 . S
C615 C621 1.465 . S
C616 C611 1.399 . S
C616 C615 1.394 . S
C616 C617 1.516 . S
C617 C616 1.516 . S
C617 C618 1.502 . S
C617 C619 1.561 . S
C617 C620 1.526 . S
C618 H602 0.959 . S
C618 H603 0.959 . S
C618 H604 0.961 . S
C618 C617 1.502 . S
C619 H605 0.960 . S
C619 H606 0.961 . S
C619 H607 0.959 . S
C619 C617 1.561 . S
C620 C617 1.526 . S
C620 C621 1.396 . S
C620 C625 1.390 . S
C621 C615 1.465 . S
C621 C620 1.396 . S
C621 C622 1.399 . S
C622 H608 0.929 . S
C622 C621 1.399 . S
C622 C623 1.385 . S
C623 H609 0.931 . S
C623 C622 1.385 . S
C623 C624 1.389 . S
C624 C623 1.389 . S
C624 C625 1.387 . S
C625 H610 0.930 . S
C625 C620 1.390 . S
C625 C624 1.387 . S
H626 C638 0.930 . S
H627 C640 0.930 . S
H628 C641 0.930 . S
H629 C645 0.959 . S
H630 C645 0.959 . S
H631 C645 0.961 . S
H632 C646 0.960 . S
H633 C646 0.961 . S
H634 C646 0.959 . S
H635 C649 0.929 . S
H636 C650 0.931 . S
H637 C652 0.930 . S
C638 H626 0.930 . S
C638 C639 1.399 . S
C638 C643 1.399 . S
C639 C638 1.399 . S
C639 C640 1.376 . S
C640 H627 0.930 . S
C640 C639 1.376 . S
C640 C641 1.388 . S
C641 H628 0.930 . S
C641 C640 1.388 . S
C641 C642 1.390 . S
C642 C641 1.390 . S
C642 C643 1.394 . S
C642 C648 1.465 . S
C643 C638 1.399 . S
C643 C642 1.394 . S
C643 C644 1.516 . S
C644 C643 1.516 . S
C644 C645 1.502 . S
C644 C646 1.561 . S
C644 C647 1.526 . S
C645 H629 0.959 . S
C645 H630 0.959 . S
C645 H631 0.961 . S
C645 C644 1.502 . S
C646 H632 0.960 . S
C646 H633 0.961 . S
C646 H634 0.959 . S
C646 C644 1.561 . S
C647 C644 1.526 . S
C647 C648 1.396 . S
C647 C652 1.390 . S
C648 C642 1.465 . S
C648 C647 1.396 . S
C648 C649 1.399 . S
C649 H635 0.929 . S
C649 C648 1.399 . S
C649 C650 1.385 . S
C650 H636 0.931 . S
C650 C649 1.385 . S
C650 C651 1.389 . S
C651 C650 1.389 . S
C651 C652 1.387 . S
C652 H637 0.930 . S
C652 C647 1.390 . S
C652 C651 1.387 . S
H653 C665 0.930 . S
H654 C667 0.930 . S
H655 C668 0.930 . S
H656 C672 0.959 . S
H657 C672 0.959 . S
H658 C672 0.961 . S
H659 C673 0.960 . S
H660 C673 0.961 . S
H661 C673 0.959 . S
H662 C676 0.929 . S
H663 C677 0.931 . S
H664 C679 0.930 . S
C665 H653 0.930 . S
C665 C666 1.399 . S
C665 C670 1.399 . S
C666 C665 1.399 . S
C666 C667 1.376 . S
C667 H654 0.930 . S
C667 C666 1.376 . S
C667 C668 1.388 . S
C668 H655 0.930 . S
C668 C667 1.388 . S
C668 C669 1.390 . S
C669 C668 1.390 . S
C669 C670 1.394 . S
C669 C675 1.465 . S
C670 C665 1.399 . S
C670 C669 1.394 . S
C670 C671 1.516 . S
C671 C670 1.516 . S
C671 C672 1.502 . S
C671 C673 1.561 . S
C671 C674 1.526 . S
C672 H656 0.959 . S
C672 H657 0.959 . S
C672 H658 0.961 . S
C672 C671 1.502 . S
C673 H659 0.960 . S
C673 H660 0.961 . S
C673 H661 0.959 . S
C673 C671 1.561 . S
C674 C671 1.526 . S
C674 C675 1.396 . S
C674 C679 1.390 . S
C675 C669 1.465 . S
C675 C674 1.396 . S
C675 C676 1.399 . S
C676 H662 0.929 . S
C676 C675 1.399 . S
C676 C677 1.385 . S
C677 H663 0.931 . S
C677 C676 1.385 . S
C677 C678 1.389 . S
C678 C677 1.389 . S
C678 C679 1.387 . S
C679 H664 0.930 . S
C679 C674 1.390 . S
C679 C678 1.387 . S
H680 C692 0.930 . S
H681 C694 0.930 . S
H682 C695 0.930 . S
H683 C699 0.959 . S
H684 C699 0.959 . S
H685 C699 0.961 . S
H686 C700 0.960 . S
H687 C700 0.961 . S
H688 C700 0.959 . S
H689 C703 0.929 . S
H690 C704 0.931 . S
H691 C706 0.930 . S
C692 H680 0.930 . S
C692 C693 1.399 . S
C692 C697 1.399 . S
C693 C692 1.399 . S
C693 C694 1.376 . S
C694 H681 0.930 . S
C694 C693 1.376 . S
C694 C695 1.388 . S
C695 H682 0.930 . S
C695 C694 1.388 . S
C695 C696 1.390 . S
C696 C695 1.390 . S
C696 C697 1.394 . S
C696 C702 1.465 . S
C697 C692 1.399 . S
C697 C696 1.394 . S
C697 C698 1.516 . S
C698 C697 1.516 . S
C698 C699 1.502 . S
C698 C700 1.561 . S
C698 C701 1.526 . S
C699 H683 0.959 . S
C699 H684 0.959 . S
C699 H685 0.961 . S
C699 C698 1.502 . S
C700 H686 0.960 . S
C700 H687 0.961 . S
C700 H688 0.959 . S
C700 C698 1.561 . S
C701 C698 1.526 . S
C701 C702 1.396 . S
C701 C706 1.390 . S
C702 C696 1.465 . S
C702 C701 1.396 . S
C702 C703 1.399 . S
C703 H689 0.929 . S
C703 C702 1.399 . S
C703 C704 1.385 . S
C704 H690 0.931 . S
C704 C703 1.385 . S
C704 C705 1.389 . S
C705 C704 1.389 . S
C705 C706 1.387 . S
C706 H691 0.930 . S
C706 C701 1.390 . S
C706 C705 1.387 . S
H707 C719 0.930 . S
H708 C721 0.930 . S
H709 C722 0.930 . S
H710 C726 0.959 . S
H711 C726 0.959 . S
H712 C726 0.961 . S
H713 C727 0.960 . S
H714 C727 0.961 . S
H715 C727 0.959 . S
H716 C730 0.929 . S
H717 C731 0.931 . S
H718 C733 0.930 . S
C719 H707 0.930 . S
C719 C720 1.399 . S
C719 C724 1.399 . S
C720 C719 1.399 . S
C720 C721 1.376 . S
C721 H708 0.930 . S
C721 C720 1.376 . S
C721 C722 1.388 . S
C722 H709 0.930 . S
C722 C721 1.388 . S
C722 C723 1.390 . S
C723 C722 1.390 . S
C723 C724 1.394 . S
C723 C729 1.465 . S
C724 C719 1.399 . S
C724 C723 1.394 . S
C724 C725 1.516 . S
C725 C724 1.516 . S
C725 C726 1.502 . S
C725 C727 1.561 . S
C725 C728 1.526 . S
C726 H710 0.959 . S
C726 H711 0.959 . S
C726 H712 0.961 . S
C726 C725 1.502 . S
C727 H713 0.960 . S
C727 H714 0.961 . S
C727 H715 0.959 . S
C727 C725 1.561 . S
C728 C725 1.526 . S
C728 C729 1.396 . S
C728 C733 1.390 . S
C729 C723 1.465 . S
C729 C728 1.396 . S
C729 C730 1.399 . S
C730 H716 0.929 . S
C730 C729 1.399 . S
C730 C731 1.385 . S
C731 H717 0.931 . S
C731 C730 1.385 . S
C731 C732 1.389 . S
C732 C731 1.389 . S
C732 C733 1.387 . S
C733 H718 0.930 . S
C733 C728 1.390 . S
C733 C732 1.387 . S
H734 C746 0.930 . S
H735 C748 0.930 . S
H736 C749 0.930 . S
H737 C753 0.959 . S
H738 C753 0.959 . S
H739 C753 0.961 . S
H740 C754 0.960 . S
H741 C754 0.961 . S
H742 C754 0.959 . S
H743 C757 0.929 . S
H744 C758 0.931 . S
H745 C760 0.930 . S
C746 H734 0.930 . S
C746 C747 1.399 . S
C746 C751 1.399 . S
C747 C746 1.399 . S
C747 C748 1.376 . S
C748 H735 0.930 . S
C748 C747 1.376 . S
C748 C749 1.388 . S
C749 H736 0.930 . S
C749 C748 1.388 . S
C749 C750 1.390 . S
C750 C749 1.390 . S
C750 C751 1.394 . S
C750 C756 1.465 . S
C751 C746 1.399 . S
C751 C750 1.394 . S
C751 C752 1.516 . S
C752 C751 1.516 . S
C752 C753 1.502 . S
C752 C754 1.561 . S
C752 C755 1.526 . S
C753 H737 0.959 . S
C753 H738 0.959 . S
C753 H739 0.961 . S
C753 C752 1.502 . S
C754 H740 0.960 . S
C754 H741 0.961 . S
C754 H742 0.959 . S
C754 C752 1.561 . S
C755 C752 1.526 . S
C755 C756 1.396 . S
C755 C760 1.390 . S
C756 C750 1.465 . S
C756 C755 1.396 . S
C756 C757 1.399 . S
C757 H743 0.929 . S
C757 C756 1.399 . S
C757 C758 1.385 . S
C758 H744 0.931 . S
C758 C757 1.385 . S
C758 C759 1.389 . S
C759 C758 1.389 . S
C759 C760 1.387 . S
C760 H745 0.930 . S
C760 C755 1.390 . S
C760 C759 1.387 . S
H761 C773 0.930 . S
H762 C775 0.930 . S
H763 C776 0.930 . S
H764 C780 0.959 . S
H765 C780 0.959 . S
H766 C780 0.961 . S
H767 C781 0.960 . S
H768 C781 0.961 . S
H769 C781 0.959 . S
H770 C784 0.929 . S
H771 C785 0.931 . S
H772 C787 0.930 . S
C773 H761 0.930 . S
C773 C774 1.399 . S
C773 C778 1.399 . S
C774 C773 1.399 . S
C774 C775 1.376 . S
C775 H762 0.930 . S
C775 C774 1.376 . S
C775 C776 1.388 . S
C776 H763 0.930 . S
C776 C775 1.388 . S
C776 C777 1.390 . S
C777 C776 1.390 . S
C777 C778 1.394 . S
C777 C783 1.465 . S
C778 C773 1.399 . S
C778 C777 1.394 . S
C778 C779 1.516 . S
C779 C778 1.516 . S
C779 C780 1.502 . S
C779 C781 1.561 . S
C779 C782 1.526 . S
C780 H764 0.959 . S
C780 H765 0.959 . S
C780 H766 0.961 . S
C780 C779 1.502 . S
C781 H767 0.960 . S
C781 H768 0.961 . S
C781 H769 0.959 . S
C781 C779 1.561 . S
C782 C779 1.526 . S
C782 C783 1.396 . S
C782 C787 1.390 . S
C783 C777 1.465 . S
C783 C782 1.396 . S
C783 C784 1.399 . S
C784 H770 0.929 . S
C784 C783 1.399 . S
C784 C785 1.385 . S
C785 H771 0.931 . S
C785 C784 1.385 . S
C785 C786 1.389 . S
C786 C785 1.389 . S
C786 C787 1.387 . S
C787 H772 0.930 . S
C787 C782 1.390 . S
C787 C786 1.387 . S
H788 C800 0.930 . S
H789 C802 0.930 . S
H790 C803 0.930 . S
H791 C807 0.959 . S
H792 C807 0.959 . S
H793 C807 0.961 . S
H794 C808 0.960 . S
H795 C808 0.961 . S
H796 C808 0.959 . S
H797 C811 0.929 . S
H798 C812 0.931 1_556 S
H799 C814 0.930 . S
C800 H788 0.930 . S
C800 C801 1.399 . S
C800 C805 1.399 . S
C801 C800 1.399 . S
C801 C802 1.376 . S
C802 H789 0.930 . S
C802 C801 1.376 . S
C802 C803 1.388 . S
C803 H790 0.930 . S
C803 C802 1.388 . S
C803 C804 1.390 . S
C804 C803 1.390 . S
C804 C805 1.394 . S
C804 C810 1.465 . S
C805 C800 1.399 . S
C805 C804 1.394 . S
C805 C806 1.516 . S
C806 C805 1.516 . S
C806 C807 1.502 . S
C806 C808 1.561 . S
C806 C809 1.526 . S
C807 H791 0.959 . S
C807 H792 0.959 . S
C807 H793 0.961 . S
C807 C806 1.502 . S
C808 H794 0.960 . S
C808 H795 0.961 . S
C808 H796 0.959 . S
C808 C806 1.561 . S
C809 C806 1.526 . S
C809 C810 1.396 . S
C809 C814 1.390 . S
C810 C804 1.465 . S
C810 C809 1.396 . S
C810 C811 1.399 . S
C811 H797 0.929 . S
C811 C810 1.399 . S
C811 C812 1.385 . S
C812 H798 0.931 1_554 S
C812 C811 1.385 . S
C812 C813 1.389 . S
C813 C812 1.389 . S
C813 C814 1.387 . S
C814 H799 0.930 . S
C814 C809 1.390 . S
C814 C813 1.387 . S
H815 C827 0.930 . S
H816 C829 0.930 . S
H817 C830 0.930 . S
H818 C834 0.959 . S
H819 C834 0.959 . S
H820 C834 0.961 . S
H821 C835 0.960 . S
H822 C835 0.961 . S
H823 C835 0.959 . S
H824 C838 0.929 . S
H825 C839 0.931 . S
H826 C841 0.930 . S
C827 H815 0.930 . S
C827 C828 1.399 . S
C827 C832 1.399 . S
C828 C827 1.399 . S
C828 C829 1.376 . S
C829 H816 0.930 . S
C829 C828 1.376 . S
C829 C830 1.388 . S
C830 H817 0.930 . S
C830 C829 1.388 . S
C830 C831 1.390 . S
C831 C830 1.390 . S
C831 C832 1.394 . S
C831 C837 1.465 . S
C832 C827 1.399 . S
C832 C831 1.394 . S
C832 C833 1.516 . S
C833 C832 1.516 . S
C833 C834 1.502 . S
C833 C835 1.561 . S
C833 C836 1.526 . S
C834 H818 0.959 . S
C834 H819 0.959 . S
C834 H820 0.961 . S
C834 C833 1.502 . S
C835 H821 0.960 . S
C835 H822 0.961 . S
C835 H823 0.959 . S
C835 C833 1.561 . S
C836 C833 1.526 . S
C836 C837 1.396 . S
C836 C841 1.390 . S
C837 C831 1.465 . S
C837 C836 1.396 . S
C837 C838 1.399 . S
C838 H824 0.929 . S
C838 C837 1.399 . S
C838 C839 1.385 . S
C839 H825 0.931 . S
C839 C838 1.385 . S
C839 C840 1.389 . S
C840 C839 1.389 . S
C840 C841 1.387 . S
C841 H826 0.930 . S
C841 C836 1.390 . S
C841 C840 1.387 . S
H842 C854 0.930 . S
H843 C856 0.930 . S
H844 C857 0.930 . S
H845 C861 0.959 . S
H846 C861 0.959 . S
H847 C861 0.961 . S
H848 C862 0.960 . S
H849 C862 0.961 . S
H850 C862 0.959 . S
H851 C865 0.929 . S
H852 C866 0.931 . S
H853 C868 0.930 . S
C854 H842 0.930 . S
C854 C855 1.399 . S
C854 C859 1.399 . S
C855 C854 1.399 . S
C855 C856 1.376 . S
C856 H843 0.930 . S
C856 C855 1.376 . S
C856 C857 1.388 . S
C857 H844 0.930 . S
C857 C856 1.388 . S
C857 C858 1.390 . S
C858 C857 1.390 . S
C858 C859 1.394 . S
C858 C864 1.465 . S
C859 C854 1.399 . S
C859 C858 1.394 . S
C859 C860 1.516 . S
C860 C859 1.516 . S
C860 C861 1.502 . S
C860 C862 1.561 . S
C860 C863 1.526 . S
C861 H845 0.959 . S
C861 H846 0.959 . S
C861 H847 0.961 . S
C861 C860 1.502 . S
C862 H848 0.960 . S
C862 H849 0.961 . S
C862 H850 0.959 . S
C862 C860 1.561 . S
C863 C860 1.526 . S
C863 C864 1.396 . S
C863 C868 1.390 . S
C864 C858 1.465 . S
C864 C863 1.396 . S
C864 C865 1.399 . S
C865 H851 0.929 . S
C865 C864 1.399 . S
C865 C866 1.385 . S
C866 H852 0.931 . S
C866 C865 1.385 . S
C866 C867 1.389 . S
C867 C866 1.389 . S
C867 C868 1.387 . S
C868 H853 0.930 . S
C868 C863 1.390 . S
C868 C867 1.387 . S
H869 C881 0.930 . S
H870 C883 0.930 . S
H871 C884 0.930 . S
H872 C888 0.959 . S
H873 C888 0.959 . S
H874 C888 0.961 . S
H875 C889 0.960 . S
H876 C889 0.961 . S
H877 C889 0.959 . S
H878 C892 0.929 . S
H879 C893 0.931 . S
H880 C895 0.930 . S
C881 H869 0.930 . S
C881 C882 1.399 . S
C881 C886 1.399 . S
C882 C881 1.399 . S
C882 C883 1.376 . S
C883 H870 0.930 . S
C883 C882 1.376 . S
C883 C884 1.388 . S
C884 H871 0.930 . S
C884 C883 1.388 . S
C884 C885 1.390 . S
C885 C884 1.390 . S
C885 C886 1.394 . S
C885 C891 1.465 . S
C886 C881 1.399 . S
C886 C885 1.394 . S
C886 C887 1.516 1_556 S
C887 C886 1.516 1_554 S
C887 C888 1.502 . S
C887 C889 1.561 . S
C887 C890 1.526 1_554 S
C888 H872 0.959 . S
C888 H873 0.959 . S
C888 H874 0.961 . S
C888 C887 1.502 . S
C889 H875 0.960 . S
C889 H876 0.961 . S
C889 H877 0.959 . S
C889 C887 1.561 . S
C890 C887 1.526 1_556 S
C890 C891 1.396 . S
C890 C895 1.390 1_556 S
C891 C885 1.465 . S
C891 C890 1.396 . S
C891 C892 1.399 . S
C892 H878 0.929 . S
C892 C891 1.399 . S
C892 C893 1.385 . S
C893 H879 0.931 . S
C893 C892 1.385 . S
C893 C894 1.400 . S
C894 C893 1.400 . S
C894 C895 1.383 1_556 S
C895 H880 0.930 . S
C895 C890 1.390 1_554 S
C895 C894 1.383 1_554 S
H896 C908 0.930 . S
H897 C910 0.930 . S
H898 C911 0.930 . S
H899 C915 0.959 . S
H900 C915 0.959 . S
H901 C915 0.961 . S
H902 C916 0.960 . S
H903 C916 0.961 1_554 S
H904 C916 0.959 1_554 S
H905 C919 0.929 . S
H906 C920 0.931 . S
H907 C922 0.930 . S
C908 H896 0.930 . S
C908 C909 1.399 . S
C908 C913 1.399 . S
C909 C908 1.399 . S
C909 C910 1.376 . S
C910 H897 0.930 . S
C910 C909 1.376 . S
C910 C911 1.388 . S
C911 H898 0.930 . S
C911 C910 1.388 . S
C911 C912 1.390 . S
C912 C911 1.390 . S
C912 C913 1.394 . S
C912 C918 1.465 . S
C913 C908 1.399 . S
C913 C912 1.394 . S
C913 C914 1.516 . S
C914 C913 1.516 . S
C914 C915 1.502 . S
C914 C916 1.561 . S
C914 C917 1.526 . S
C915 H899 0.959 . S
C915 H900 0.959 . S
C915 H901 0.961 . S
C915 C914 1.502 . S
C916 H902 0.960 . S
C916 H903 0.961 1_556 S
C916 H904 0.959 1_556 S
C916 C914 1.561 . S
C917 C914 1.526 . S
C917 C918 1.396 . S
C917 C922 1.390 . S
C918 C912 1.465 . S
C918 C917 1.396 . S
C918 C919 1.399 . S
C919 H905 0.929 . S
C919 C918 1.399 . S
C919 C920 1.385 . S
C920 H906 0.931 . S
C920 C919 1.385 . S
C920 C921 1.389 . S
C921 C920 1.389 . S
C921 C922 1.387 . S
C922 H907 0.930 . S
C922 C917 1.390 . S
C922 C921 1.387 . S
H923 C935 0.930 . S
H924 C937 0.930 . S
H925 C938 0.930 . S
H926 C942 0.959 . S
H927 C942 0.959 . S
H928 C942 0.961 . S
H929 C943 0.960 . S
H930 C943 0.961 . S
H931 C943 0.959 . S
H932 C946 0.929 . S
H933 C947 0.931 1_554 S
H934 C949 0.930 . S
C935 H923 0.930 . S
C935 C936 1.399 . S
C935 C940 1.399 . S
C936 C935 1.399 . S
C936 C937 1.376 . S
C937 H924 0.930 . S
C937 C936 1.376 . S
C937 C938 1.388 . S
C938 H925 0.930 . S
C938 C937 1.388 . S
C938 C939 1.390 . S
C939 C938 1.390 . S
C939 C940 1.394 . S
C939 C945 1.465 . S
C940 C935 1.399 . S
C940 C939 1.394 . S
C940 C941 1.516 . S
C941 C940 1.516 . S
C941 C942 1.502 . S
C941 C943 1.561 . S
C941 C944 1.526 . S
C942 H926 0.959 . S
C942 H927 0.959 . S
C942 H928 0.961 . S
C942 C941 1.502 . S
C943 H929 0.960 . S
C943 H930 0.961 . S
C943 H931 0.959 . S
C943 C941 1.561 . S
C944 C941 1.526 . S
C944 C945 1.396 . S
C944 C949 1.390 . S
C945 C939 1.465 . S
C945 C944 1.396 . S
C945 C946 1.399 . S
C946 H932 0.929 . S
C946 C945 1.399 . S
C946 C947 1.385 . S
C947 H933 0.931 1_556 S
C947 C946 1.385 . S
C947 C948 1.389 . S
C948 C947 1.389 . S
C948 C949 1.387 . S
C949 H934 0.930 . S
C949 C944 1.390 . S
C949 C948 1.387 . S
H950 C962 0.930 . S
H951 C964 0.930 . S
H952 C965 0.930 . S
H953 C969 0.959 . S
H954 C969 0.959 . S
H955 C969 0.961 . S
H956 C970 0.960 . S
H957 C970 0.961 . S
H958 C970 0.959 . S
H959 C973 0.929 . S
H960 C974 0.931 . S
H961 C976 0.930 . S
C962 H950 0.930 . S
C962 C963 1.399 . S
C962 C967 1.399 . S
C963 C962 1.399 . S
C963 C964 1.376 . S
C964 H951 0.930 . S
C964 C963 1.376 . S
C964 C965 1.388 . S
C965 H952 0.930 . S
C965 C964 1.388 . S
C965 C966 1.390 . S
C966 C965 1.390 . S
C966 C967 1.394 . S
C966 C972 1.465 . S
C967 C962 1.399 . S
C967 C966 1.394 . S
C967 C968 1.516 . S
C968 C967 1.516 . S
C968 C969 1.502 . S
C968 C970 1.561 . S
C968 C971 1.526 . S
C969 H953 0.959 . S
C969 H954 0.959 . S
C969 H955 0.961 . S
C969 C968 1.502 . S
C970 H956 0.960 . S
C970 H957 0.961 . S
C970 H958 0.959 . S
C970 C968 1.561 . S
C971 C968 1.526 . S
C971 C972 1.396 . S
C971 C976 1.390 . S
C972 C966 1.465 . S
C972 C971 1.396 . S
C972 C973 1.399 . S
C973 H959 0.929 . S
C973 C972 1.399 . S
C973 C974 1.385 . S
C974 H960 0.931 . S
C974 C973 1.385 . S
C974 C975 1.389 . S
C975 C974 1.389 . S
C975 C976 1.387 . S
C976 H961 0.930 . S
C976 C971 1.390 . S
C976 C975 1.387 . S
H977 C989 0.930 . S
H978 C991 0.930 . S
H979 C992 0.930 . S
H980 C996 0.959 . S
H981 C996 0.959 . S
H982 C996 0.961 . S
H983 C997 0.960 . S
H984 C997 0.961 . S
H985 C997 0.959 . S
H986 C1000 0.929 . S
H987 C1001 0.931 . S
H988 C1003 0.930 . S
C989 H977 0.930 . S
C989 C990 1.399 . S
C989 C994 1.399 . S
C990 C989 1.399 . S
C990 C991 1.376 1_556 S
C991 H978 0.930 . S
C991 C990 1.376 1_554 S
C991 C992 1.388 . S
C992 H979 0.930 . S
C992 C991 1.388 . S
C992 C993 1.390 . S
C993 C992 1.390 . S
C993 C994 1.394 1_554 S
C993 C999 1.465 . S
C994 C989 1.399 . S
C994 C993 1.394 1_556 S
C994 C995 1.516 . S
C995 C994 1.516 . S
C995 C996 1.502 . S
C995 C997 1.561 . S
C995 C998 1.526 . S
C996 H980 0.959 . S
C996 H981 0.959 . S
C996 H982 0.961 . S
C996 C995 1.502 . S
C997 H983 0.960 . S
C997 H984 0.961 . S
C997 H985 0.959 . S
C997 C995 1.561 . S
C998 C995 1.526 . S
C998 C999 1.396 1_556 S
C998 C1003 1.390 . S
C999 C993 1.465 . S
C999 C998 1.396 1_554 S
C999 C1000 1.399 . S
C1000 H986 0.929 . S
C1000 C999 1.399 . S
C1000 C1001 1.385 . S
C1001 H987 0.931 . S
C1001 C1000 1.385 . S
C1001 C1002 1.389 . S
C1002 C1001 1.389 . S
C1002 C1003 1.387 1_554 S
C1003 H988 0.930 . S
C1003 C998 1.390 . S
C1003 C1002 1.387 1_556 S
H1004 C1016 0.930 . S
H1005 C1018 0.930 . S
H1006 C1019 0.930 . S
H1007 C1023 0.959 . S
H1008 C1023 0.959 . S
H1009 C1023 0.961 . S
H1010 C1024 0.960 . S
H1011 C1024 0.961 . S
H1012 C1024 0.959 . S
H1013 C1027 0.929 . S
H1014 C1028 0.931 . S
H1015 C1030 0.930 . S
C1016 H1004 0.930 . S
C1016 C1017 1.399 . S
C1016 C1021 1.399 . S
C1017 C1016 1.399 . S
C1017 C1018 1.376 . S
C1018 H1005 0.930 . S
C1018 C1017 1.376 . S
C1018 C1019 1.388 . S
C1019 H1006 0.930 . S
C1019 C1018 1.388 . S
C1019 C1020 1.390 . S
C1020 C1019 1.390 . S
C1020 C1021 1.394 . S
C1020 C1026 1.465 . S
C1021 C1016 1.399 . S
C1021 C1020 1.394 . S
C1021 C1022 1.516 . S
C1022 C1021 1.516 . S
C1022 C1023 1.502 . S
C1022 C1024 1.561 . S
C1022 C1025 1.526 . S
C1023 H1007 0.959 . S
C1023 H1008 0.959 . S
C1023 H1009 0.961 . S
C1023 C1022 1.502 . S
C1024 H1010 0.960 . S
C1024 H1011 0.961 . S
C1024 H1012 0.959 . S
C1024 C1022 1.561 . S
C1025 C1022 1.526 . S
C1025 C1026 1.396 . S
C1025 C1030 1.390 . S
C1026 C1020 1.465 . S
C1026 C1025 1.396 . S
C1026 C1027 1.399 . S
C1027 H1013 0.929 . S
C1027 C1026 1.399 . S
C1027 C1028 1.385 . S
C1028 H1014 0.931 . S
C1028 C1027 1.385 . S
C1028 C1029 1.389 . S
C1029 C1028 1.389 . S
C1029 C1030 1.387 . S
C1030 H1015 0.930 . S
C1030 C1025 1.390 . S
C1030 C1029 1.387 . S
H1031 C1043 0.930 . S
H1032 C1045 0.930 . S
H1033 C1046 0.930 . S
H1034 C1050 0.959 . S
H1035 C1050 0.959 . S
H1036 C1050 0.961 . S
H1037 C1051 0.960 . S
H1038 C1051 0.961 . S
H1039 C1051 0.959 1_556 S
H1040 C1054 0.929 . S
H1041 C1055 0.931 . S
H1042 C1057 0.930 . S
C1043 H1031 0.930 . S
C1043 C1044 1.399 . S
C1043 C1048 1.399 . S
C1044 C1043 1.399 . S
C1044 C1045 1.376 . S
C1045 H1032 0.930 . S
C1045 C1044 1.376 . S
C1045 C1046 1.388 . S
C1046 H1033 0.930 . S
C1046 C1045 1.388 . S
C1046 C1047 1.390 . S
C1047 C1046 1.390 . S
C1047 C1048 1.394 . S
C1047 C1053 1.465 . S
C1048 C1043 1.399 . S
C1048 C1047 1.394 . S
C1048 C1049 1.516 . S
C1049 C1048 1.516 . S
C1049 C1050 1.502 1_556 S
C1049 C1051 1.561 1_556 S
C1049 C1052 1.526 . S
C1050 H1034 0.959 . S
C1050 H1035 0.959 . S
C1050 H1036 0.961 . S
C1050 C1049 1.502 1_554 S
C1051 H1037 0.960 . S
C1051 H1038 0.961 . S
C1051 H1039 0.959 1_554 S
C1051 C1049 1.561 1_554 S
C1052 C1049 1.526 . S
C1052 C1053 1.396 . S
C1052 C1057 1.390 1_556 S
C1053 C1047 1.465 . S
C1053 C1052 1.396 . S
C1053 C1054 1.399 . S
C1054 H1040 0.929 . S
C1054 C1053 1.399 . S
C1054 C1055 1.385 . S
C1055 H1041 0.931 . S
C1055 C1054 1.385 . S
C1055 C1056 1.389 . S
C1056 C1055 1.389 . S
C1056 C1057 1.387 1_556 S
C1057 H1042 0.930 . S
C1057 C1052 1.390 1_554 S
C1057 C1056 1.387 1_554 S
H1058 C1070 0.930 . S
H1059 C1072 0.930 . S
H1060 C1073 0.930 . S
H1061 C1077 0.959 . S
H1062 C1077 0.959 . S
H1063 C1077 0.961 . S
H1064 C1078 0.960 . S
H1065 C1078 0.961 . S
H1066 C1078 0.959 . S
H1067 C1081 0.929 1_554 S
H1068 C1082 0.931 1_554 S
H1069 C1084 0.930 . S
C1070 H1058 0.930 . S
C1070 C1071 1.399 . S
C1070 C1075 1.399 . S
C1071 C1070 1.399 . S
C1071 C1072 1.376 . S
C1072 H1059 0.930 . S
C1072 C1071 1.376 . S
C1072 C1073 1.388 . S
C1073 H1060 0.930 . S
C1073 C1072 1.388 . S
C1073 C1074 1.390 . S
C1074 C1073 1.390 . S
C1074 C1075 1.394 . S
C1074 C1080 1.465 . S
C1075 C1070 1.399 . S
C1075 C1074 1.394 . S
C1075 C1076 1.516 . S
C1076 C1075 1.516 . S
C1076 C1077 1.502 . S
C1076 C1078 1.561 . S
C1076 C1079 1.526 . S
C1077 H1061 0.959 . S
C1077 H1062 0.959 . S
C1077 H1063 0.961 . S
C1077 C1076 1.502 . S
C1078 H1064 0.960 . S
C1078 H1065 0.961 . S
C1078 H1066 0.959 . S
C1078 C1076 1.561 . S
C1079 C1076 1.526 . S
C1079 C1080 1.396 . S
C1079 C1084 1.390 . S
C1080 C1074 1.465 . S
C1080 C1079 1.396 . S
C1080 C1081 1.399 . S
C1081 H1067 0.929 1_556 S
C1081 C1080 1.399 . S
C1081 C1082 1.385 . S
C1082 H1068 0.931 1_556 S
C1082 C1081 1.385 . S
C1082 C1083 1.389 . S
C1083 C1082 1.389 . S
C1083 C1084 1.387 . S
C1084 H1069 0.930 . S
C1084 C1079 1.390 . S
C1084 C1083 1.387 . S
H1085 C1097 0.930 . S
H1086 C1099 0.930 . S
H1087 C1100 0.930 . S
H1088 C1104 0.959 . S
H1089 C1104 0.959 . S
H1090 C1104 0.961 . S
H1091 C1105 0.960 . S
H1092 C1105 0.961 . S
H1093 C1105 0.959 . S
H1094 C1108 0.929 . S
H1095 C1109 0.931 . S
H1096 C1111 0.930 . S
C1097 H1085 0.930 . S
C1097 C1098 1.399 . S
C1097 C1102 1.399 . S
C1098 C1097 1.399 . S
C1098 C1099 1.376 . S
C1099 H1086 0.930 . S
C1099 C1098 1.376 . S
C1099 C1100 1.388 . S
C1100 H1087 0.930 . S
C1100 C1099 1.388 . S
C1100 C1101 1.390 . S
C1101 C1100 1.390 . S
C1101 C1102 1.394 . S
C1101 C1107 1.465 . S
C1102 C1097 1.399 . S
C1102 C1101 1.394 . S
C1102 C1103 1.516 . S
C1103 C1102 1.516 . S
C1103 C1104 1.502 . S
C1103 C1105 1.561 . S
C1103 C1106 1.526 . S
C1104 H1088 0.959 . S
C1104 H1089 0.959 . S
C1104 H1090 0.961 . S
C1104 C1103 1.502 . S
C1105 H1091 0.960 . S
C1105 H1092 0.961 . S
C1105 H1093 0.959 . S
C1105 C1103 1.561 . S
C1106 C1103 1.526 . S
C1106 C1107 1.396 . S
C1106 C1111 1.390 . S
C1107 C1101 1.465 . S
C1107 C1106 1.396 . S
C1107 C1108 1.399 . S
C1108 H1094 0.929 . S
C1108 C1107 1.399 . S
C1108 C1109 1.385 . S
C1109 H1095 0.931 . S
C1109 C1108 1.385 . S
C1109 C1110 1.389 . S
C1110 C1109 1.389 . S
C1110 C1111 1.387 . S
C1111 H1096 0.930 . S
C1111 C1106 1.390 . S
C1111 C1110 1.387 . S
H1112 C1124 0.930 . S
H1113 C1126 0.930 . S
H1114 C1127 0.930 . S
H1115 C1131 0.959 . S
H1116 C1131 0.959 . S
H1117 C1131 0.961 . S
H1118 C1132 0.960 . S
H1119 C1132 0.961 . S
H1120 C1132 0.959 . S
H1121 C1135 0.929 . S
H1122 C1136 0.931 . S
H1123 C1138 0.930 . S
C1124 H1112 0.930 . S
C1124 C1125 1.399 . S
C1124 C1129 1.399 . S
C1125 C1124 1.399 . S
C1125 C1126 1.376 . S
C1126 H1113 0.930 . S
C1126 C1125 1.376 . S
C1126 C1127 1.388 . S
C1127 H1114 0.930 . S
C1127 C1126 1.388 . S
C1127 C1128 1.390 . S
C1128 C1127 1.390 . S
C1128 C1129 1.394 . S
C1128 C1134 1.465 . S
C1129 C1124 1.399 . S
C1129 C1128 1.394 . S
C1129 C1130 1.516 . S
C1130 C1129 1.516 . S
C1130 C1131 1.502 . S
C1130 C1132 1.561 . S
C1130 C1133 1.526 . S
C1131 H1115 0.959 . S
C1131 H1116 0.959 . S
C1131 H1117 0.961 . S
C1131 C1130 1.502 . S
C1132 H1118 0.960 . S
C1132 H1119 0.961 . S
C1132 H1120 0.959 . S
C1132 C1130 1.561 . S
C1133 C1130 1.526 . S
C1133 C1134 1.396 . S
C1133 C1138 1.390 . S
C1134 C1128 1.465 . S
C1134 C1133 1.396 . S
C1134 C1135 1.399 . S
C1135 H1121 0.929 . S
C1135 C1134 1.399 . S
C1135 C1136 1.385 . S
C1136 H1122 0.931 . S
C1136 C1135 1.385 . S
C1136 C1137 1.389 . S
C1137 C1136 1.389 . S
C1137 C1138 1.387 . S
C1138 H1123 0.930 . S
C1138 C1133 1.390 . S
C1138 C1137 1.387 . S
H1139 C1151 0.930 . S
H1140 C1153 0.930 . S
H1141 C1154 0.930 . S
H1142 C1158 0.959 . S
H1143 C1158 0.959 . S
H1144 C1158 0.961 . S
H1145 C1159 0.960 . S
H1146 C1159 0.961 . S
H1147 C1159 0.959 . S
H1148 C1162 0.929 . S
H1149 C1163 0.931 . S
H1150 C1165 0.930 . S
C1151 H1139 0.930 . S
C1151 C1152 1.399 . S
C1151 C1156 1.399 . S
C1152 C1151 1.399 . S
C1152 C1153 1.376 . S
C1153 H1140 0.930 . S
C1153 C1152 1.376 . S
C1153 C1154 1.388 . S
C1154 H1141 0.930 . S
C1154 C1153 1.388 . S
C1154 C1155 1.390 . S
C1155 C1154 1.390 . S
C1155 C1156 1.394 . S
C1155 C1161 1.465 . S
C1156 C1151 1.399 . S
C1156 C1155 1.394 . S
C1156 C1157 1.516 . S
C1157 C1156 1.516 . S
C1157 C1158 1.502 . S
C1157 C1159 1.561 . S
C1157 C1160 1.526 . S
C1158 H1142 0.959 . S
C1158 H1143 0.959 . S
C1158 H1144 0.961 . S
C1158 C1157 1.502 . S
C1159 H1145 0.960 . S
C1159 H1146 0.961 . S
C1159 H1147 0.959 . S
C1159 C1157 1.561 . S
C1160 C1157 1.526 . S
C1160 C1161 1.396 . S
C1160 C1165 1.390 . S
C1161 C1155 1.465 . S
C1161 C1160 1.396 . S
C1161 C1162 1.399 . S
C1162 H1148 0.929 . S
C1162 C1161 1.399 . S
C1162 C1163 1.385 . S
C1163 H1149 0.931 . S
C1163 C1162 1.385 . S
C1163 C1164 1.389 . S
C1164 C1163 1.389 . S
C1164 C1165 1.387 . S
C1165 H1150 0.930 . S
C1165 C1160 1.390 . S
C1165 C1164 1.387 . S
H1166 C1178 0.930 . S
H1167 C1180 0.930 . S
H1168 C1181 0.930 . S
H1169 C1185 0.959 . S
H1170 C1185 0.959 . S
H1171 C1185 0.961 . S
H1172 C1186 0.960 . S
H1173 C1186 0.961 . S
H1174 C1186 0.959 . S
H1175 C1189 0.929 . S
H1176 C1190 0.931 1_554 S
H1177 C1192 0.930 . S
C1178 H1166 0.930 . S
C1178 C1179 1.399 . S
C1178 C1183 1.399 . S
C1179 C1178 1.399 . S
C1179 C1180 1.376 . S
C1180 H1167 0.930 . S
C1180 C1179 1.376 . S
C1180 C1181 1.388 . S
C1181 H1168 0.930 . S
C1181 C1180 1.388 . S
C1181 C1182 1.390 . S
C1182 C1181 1.390 . S
C1182 C1183 1.394 . S
C1182 C1188 1.465 . S
C1183 C1178 1.399 . S
C1183 C1182 1.394 . S
C1183 C1184 1.516 . S
C1184 C1183 1.516 . S
C1184 C1185 1.502 . S
C1184 C1186 1.561 . S
C1184 C1187 1.526 . S
C1185 H1169 0.959 . S
C1185 H1170 0.959 . S
C1185 H1171 0.961 . S
C1185 C1184 1.502 . S
C1186 H1172 0.960 . S
C1186 H1173 0.961 . S
C1186 H1174 0.959 . S
C1186 C1184 1.561 . S
C1187 C1184 1.526 . S
C1187 C1188 1.396 . S
C1187 C1192 1.390 . S
C1188 C1182 1.465 . S
C1188 C1187 1.396 . S
C1188 C1189 1.399 . S
C1189 H1175 0.929 . S
C1189 C1188 1.399 . S
C1189 C1190 1.385 . S
C1190 H1176 0.931 1_556 S
C1190 C1189 1.385 . S
C1190 C1191 1.389 . S
C1191 C1190 1.389 . S
C1191 C1192 1.387 . S
C1192 H1177 0.930 . S
C1192 C1187 1.390 . S
C1192 C1191 1.387 . S
H1193 C1205 0.930 . S
H1194 C1207 0.930 . S
H1195 C1208 0.930 . S
H1196 C1212 0.959 . S
H1197 C1212 0.959 . S
H1198 C1212 0.961 . S
H1199 C1213 0.960 . S
H1200 C1213 0.961 . S
H1201 C1213 0.959 . S
H1202 C1216 0.929 . S
H1203 C1217 0.931 . S
H1204 C1219 0.930 . S
C1205 H1193 0.930 . S
C1205 C1206 1.399 . S
C1205 C1210 1.399 . S
C1206 C1205 1.399 . S
C1206 C1207 1.376 . S
C1207 H1194 0.930 . S
C1207 C1206 1.376 . S
C1207 C1208 1.388 . S
C1208 H1195 0.930 . S
C1208 C1207 1.388 . S
C1208 C1209 1.390 . S
C1209 C1208 1.390 . S
C1209 C1210 1.394 . S
C1209 C1215 1.465 . S
C1210 C1205 1.399 . S
C1210 C1209 1.394 . S
C1210 C1211 1.516 . S
C1211 C1210 1.516 . S
C1211 C1212 1.502 . S
C1211 C1213 1.561 . S
C1211 C1214 1.526 . S
C1212 H1196 0.959 . S
C1212 H1197 0.959 . S
C1212 H1198 0.961 . S
C1212 C1211 1.502 . S
C1213 H1199 0.960 . S
C1213 H1200 0.961 . S
C1213 H1201 0.959 . S
C1213 C1211 1.561 . S
C1214 C1211 1.526 . S
C1214 C1215 1.396 . S
C1214 C1219 1.390 . S
C1215 C1209 1.465 . S
C1215 C1214 1.396 . S
C1215 C1216 1.399 . S
C1216 H1202 0.929 . S
C1216 C1215 1.399 . S
C1216 C1217 1.385 . S
C1217 H1203 0.931 . S
C1217 C1216 1.385 . S
C1217 C1218 1.389 . S
C1218 C1217 1.389 . S
C1218 C1219 1.387 . S
C1219 H1204 0.930 . S
C1219 C1214 1.390 . S
C1219 C1218 1.387 . S
H1220 C1232 0.930 . S
H1221 C1234 0.930 . S
H1222 C1235 0.930 . S
H1223 C1239 0.959 . S
H1224 C1239 0.959 1_554 S
H1225 C1239 0.961 . S
H1226 C1240 0.960 . S
H1227 C1240 0.961 . S
H1228 C1240 0.959 . S
H1229 C1243 0.929 . S
H1230 C1244 0.931 . S
H1231 C1246 0.946 . S
C1232 H1220 0.930 . S
C1232 C1233 1.399 . S
C1232 C1237 1.399 . S
C1233 C1232 1.399 . S
C1233 C1234 1.376 . S
C1234 H1221 0.930 . S
C1234 C1233 1.376 . S
C1234 C1235 1.388 . S
C1235 H1222 0.930 . S
C1235 C1234 1.388 . S
C1235 C1236 1.390 . S
C1236 C1235 1.390 . S
C1236 C1237 1.394 . S
C1236 C1242 1.465 . S
C1237 C1232 1.399 . S
C1237 C1236 1.394 . S
C1237 C1238 1.516 . S
C1238 C1237 1.516 . S
C1238 C1239 1.502 . S
C1238 C1240 1.561 . S
C1238 C1241 1.526 . S
C1239 H1223 0.959 . S
C1239 H1224 0.959 1_556 S
C1239 H1225 0.961 . S
C1239 C1238 1.502 . S
C1240 H1226 0.960 . S
C1240 H1227 0.961 . S
C1240 H1228 0.959 . S
C1240 C1238 1.561 . S
C1241 C1238 1.526 . S
C1241 C1242 1.396 . S
C1241 C1246 1.390 . S
C1242 C1236 1.465 . S
C1242 C1241 1.396 . S
C1242 C1243 1.399 . S
C1243 H1229 0.929 . S
C1243 C1242 1.399 . S
C1243 C1244 1.385 . S
C1244 H1230 0.931 . S
C1244 C1243 1.385 . S
C1244 C1245 1.389 . S
C1245 C1244 1.389 . S
C1245 C1246 1.387 . S
C1246 H1231 0.946 . S
C1246 C1241 1.390 . S
C1246 C1245 1.387 . S
H1247 C1259 0.930 . S
H1248 C1261 0.930 . S
H1249 C1262 0.930 . S
H1250 C1266 0.959 . S
H1251 C1266 0.959 1_554 S
H1252 C1266 0.961 . S
H1253 C1267 0.960 . S
H1254 C1267 0.961 . S
H1255 C1267 0.959 . S
H1256 C1270 0.929 . S
H1257 C1271 0.931 . S
H1258 C1273 0.930 1_554 S
C1259 H1247 0.930 . S
C1259 C1260 1.399 . S
C1259 C1264 1.399 . S
C1260 C1259 1.399 . S
C1260 C1261 1.376 . S
C1261 H1248 0.930 . S
C1261 C1260 1.376 . S
C1261 C1262 1.388 . S
C1262 H1249 0.930 . S
C1262 C1261 1.388 . S
C1262 C1263 1.390 . S
C1263 C1262 1.390 . S
C1263 C1264 1.394 . S
C1263 C1269 1.465 . S
C1264 C1259 1.399 . S
C1264 C1263 1.394 . S
C1264 C1265 1.516 . S
C1265 C1264 1.516 . S
C1265 C1266 1.502 . S
C1265 C1267 1.561 1_556 S
C1265 C1268 1.526 . S
C1266 H1250 0.959 . S
C1266 H1251 0.959 1_556 S
C1266 H1252 0.961 . S
C1266 C1265 1.502 . S
C1267 H1253 0.960 . S
C1267 H1254 0.961 . S
C1267 H1255 0.959 . S
C1267 C1265 1.561 1_554 S
C1268 C1265 1.526 . S
C1268 C1269 1.396 . S
C1268 C1273 1.390 . S
C1269 C1263 1.465 . S
C1269 C1268 1.396 . S
C1269 C1270 1.399 . S
C1270 H1256 0.929 . S
C1270 C1269 1.399 . S
C1270 C1271 1.385 . S
C1271 H1257 0.931 . S
C1271 C1270 1.385 . S
C1271 C1272 1.389 . S
C1272 C1271 1.389 . S
C1272 C1273 1.387 . S
C1273 H1258 0.930 1_556 S
C1273 C1268 1.390 . S
C1273 C1272 1.387 . S
H1274 C1286 0.930 . S
H1275 C1288 0.930 . S
H1276 C1289 0.930 . S
H1277 C1293 0.959 . S
H1278 C1293 0.959 . S
H1279 C1293 0.961 . S
H1280 C1294 0.960 . S
H1281 C1294 0.961 . S
H1282 C1294 0.959 . S
H1283 C1297 0.929 . S
H1284 C1298 0.931 . S
H1285 C1300 0.930 . S
C1286 H1274 0.930 . S
C1286 C1287 1.399 . S
C1286 C1291 1.399 . S
C1287 C1286 1.399 . S
C1287 C1288 1.376 . S
C1288 H1275 0.930 . S
C1288 C1287 1.376 . S
C1288 C1289 1.388 . S
C1289 H1276 0.930 . S
C1289 C1288 1.388 . S
C1289 C1290 1.390 . S
C1290 C1289 1.390 . S
C1290 C1291 1.394 . S
C1290 C1296 1.465 . S
C1291 C1286 1.399 . S
C1291 C1290 1.394 . S
C1291 C1292 1.516 . S
C1292 C1291 1.516 . S
C1292 C1293 1.502 . S
C1292 C1294 1.561 . S
C1292 C1295 1.526 . S
C1293 H1277 0.959 . S
C1293 H1278 0.959 . S
C1293 H1279 0.961 . S
C1293 C1292 1.502 . S
C1294 H1280 0.960 . S
C1294 H1281 0.961 . S
C1294 H1282 0.959 . S
C1294 C1292 1.561 . S
C1295 C1292 1.526 . S
C1295 C1296 1.396 . S
C1295 C1300 1.390 . S
C1296 C1290 1.465 . S
C1296 C1295 1.396 . S
C1296 C1297 1.399 . S
C1297 H1283 0.929 . S
C1297 C1296 1.399 . S
C1297 C1298 1.385 . S
C1298 H1284 0.931 . S
C1298 C1297 1.385 . S
C1298 C1299 1.389 . S
C1299 C1298 1.389 . S
C1299 C1300 1.387 . S
C1300 H1285 0.930 . S
C1300 C1295 1.390 . S
C1300 C1299 1.387 . S
H1301 C1313 0.930 . S
H1302 C1315 0.930 . S
H1303 C1316 0.930 . S
H1304 C1320 0.959 . S
H1305 C1320 0.959 . S
H1306 C1320 0.961 . S
H1307 C1321 0.960 . S
H1308 C1321 0.961 . S
H1309 C1321 0.959 . S
H1310 C1324 0.929 . S
H1311 C1325 0.931 . S
H1312 C1327 0.930 . S
C1313 H1301 0.930 . S
C1313 C1314 1.399 . S
C1313 C1318 1.399 . S
C1314 C1313 1.399 . S
C1314 C1315 1.376 . S
C1315 H1302 0.930 . S
C1315 C1314 1.376 . S
C1315 C1316 1.388 . S
C1316 H1303 0.930 . S
C1316 C1315 1.388 . S
C1316 C1317 1.390 . S
C1317 C1316 1.390 . S
C1317 C1318 1.394 . S
C1317 C1323 1.465 . S
C1318 C1313 1.399 . S
C1318 C1317 1.394 . S
C1318 C1319 1.516 . S
C1319 C1318 1.516 . S
C1319 C1320 1.502 . S
C1319 C1321 1.561 . S
C1319 C1322 1.526 . S
C1320 H1304 0.959 . S
C1320 H1305 0.959 . S
C1320 H1306 0.961 . S
C1320 C1319 1.502 . S
C1321 H1307 0.960 . S
C1321 H1308 0.961 . S
C1321 H1309 0.959 . S
C1321 C1319 1.561 . S
C1322 C1319 1.526 . S
C1322 C1323 1.396 . S
C1322 C1327 1.390 . S
C1323 C1317 1.465 . S
C1323 C1322 1.396 . S
C1323 C1324 1.399 . S
C1324 H1310 0.929 . S
C1324 C1323 1.399 . S
C1324 C1325 1.385 . S
C1325 H1311 0.931 . S
C1325 C1324 1.385 . S
C1325 C1326 1.389 . S
C1326 C1325 1.389 . S
C1326 C1327 1.387 . S
C1327 H1312 0.930 . S
C1327 C1322 1.390 . S
C1327 C1326 1.387 . S
H1328 C1340 0.930 . S
H1329 C1342 0.930 . S
H1330 C1343 0.930 . S
H1331 C1347 0.959 . S
H1332 C1347 0.959 . S
H1333 C1347 0.961 . S
H1334 C1348 0.960 . S
H1335 C1348 0.961 . S
H1336 C1348 0.959 . S
H1337 C1351 0.929 . S
H1338 C1352 0.931 . S
H1339 C1354 0.930 . S
C1340 H1328 0.930 . S
C1340 C1341 1.399 . S
C1340 C1345 1.399 . S
C1341 C1340 1.399 . S
C1341 C1342 1.376 . S
C1342 H1329 0.930 . S
C1342 C1341 1.376 . S
C1342 C1343 1.388 . S
C1343 H1330 0.930 . S
C1343 C1342 1.388 . S
C1343 C1344 1.390 . S
C1344 C1343 1.390 . S
C1344 C1345 1.394 . S
C1344 C1350 1.465 . S
C1345 C1340 1.399 . S
C1345 C1344 1.394 . S
C1345 C1346 1.516 . S
C1346 C1345 1.516 . S
C1346 C1347 1.502 . S
C1346 C1348 1.561 . S
C1346 C1349 1.526 . S
C1347 H1331 0.959 . S
C1347 H1332 0.959 . S
C1347 H1333 0.961 . S
C1347 C1346 1.502 . S
C1348 H1334 0.960 . S
C1348 H1335 0.961 . S
C1348 H1336 0.959 . S
C1348 C1346 1.561 . S
C1349 C1346 1.526 . S
C1349 C1350 1.396 . S
C1349 C1354 1.390 . S
C1350 C1344 1.465 . S
C1350 C1349 1.396 . S
C1350 C1351 1.399 . S
C1351 H1337 0.929 . S
C1351 C1350 1.399 . S
C1351 C1352 1.385 . S
C1352 H1338 0.931 . S
C1352 C1351 1.385 . S
C1352 C1353 1.389 . S
C1353 C1352 1.389 . S
C1353 C1354 1.387 . S
C1354 H1339 0.930 . S
C1354 C1349 1.390 . S
C1354 C1353 1.387 . S
H1355 C1367 0.930 . S
H1356 C1369 0.930 . S
H1357 C1370 0.930 . S
H1358 C1374 0.959 . S
H1359 C1374 0.959 . S
H1360 C1374 0.961 . S
H1361 C1375 0.960 . S
H1362 C1375 0.961 . S
H1363 C1375 0.959 . S
H1364 C1378 0.929 . S
H1365 C1379 0.931 . S
H1366 C1381 0.930 . S
C1367 H1355 0.930 . S
C1367 C1368 1.399 . S
C1367 C1372 1.399 . S
C1368 C1367 1.399 . S
C1368 C1369 1.376 . S
C1369 H1356 0.930 . S
C1369 C1368 1.376 . S
C1369 C1370 1.388 . S
C1370 H1357 0.930 . S
C1370 C1369 1.388 . S
C1370 C1371 1.390 . S
C1371 C1370 1.390 . S
C1371 C1372 1.394 . S
C1371 C1377 1.465 . S
C1372 C1367 1.399 . S
C1372 C1371 1.394 . S
C1372 C1373 1.516 . S
C1373 C1372 1.516 . S
C1373 C1374 1.502 . S
C1373 C1375 1.561 . S
C1373 C1376 1.526 . S
C1374 H1358 0.959 . S
C1374 H1359 0.959 . S
C1374 H1360 0.961 . S
C1374 C1373 1.502 . S
C1375 H1361 0.960 . S
C1375 H1362 0.961 . S
C1375 H1363 0.959 . S
C1375 C1373 1.561 . S
C1376 C1373 1.526 . S
C1376 C1377 1.396 . S
C1376 C1381 1.390 . S
C1377 C1371 1.465 . S
C1377 C1376 1.396 . S
C1377 C1378 1.399 . S
C1378 H1364 0.929 . S
C1378 C1377 1.399 . S
C1378 C1379 1.385 . S
C1379 H1365 0.931 . S
C1379 C1378 1.385 . S
C1379 C1380 1.389 . S
C1380 C1379 1.389 . S
C1380 C1381 1.387 . S
C1381 H1366 0.930 . S
C1381 C1376 1.390 . S
C1381 C1380 1.387 . S
H1382 C1394 0.930 . S
H1383 C1396 0.930 . S
H1384 C1397 0.930 . S
H1385 C1401 0.959 . S
H1386 C1401 0.959 . S
H1387 C1401 0.961 . S
H1388 C1402 0.960 . S
H1389 C1402 0.961 . S
H1390 C1402 0.959 . S
H1391 C1405 0.929 . S
H1392 C1406 0.931 . S
H1393 C1408 0.930 . S
C1394 H1382 0.930 . S
C1394 C1395 1.399 . S
C1394 C1399 1.399 . S
C1395 C1394 1.399 . S
C1395 C1396 1.376 . S
C1396 H1383 0.930 . S
C1396 C1395 1.376 . S
C1396 C1397 1.388 . S
C1397 H1384 0.930 . S
C1397 C1396 1.388 . S
C1397 C1398 1.390 . S
C1398 C1397 1.390 . S
C1398 C1399 1.394 . S
C1398 C1404 1.465 . S
C1399 C1394 1.399 . S
C1399 C1398 1.394 . S
C1399 C1400 1.516 . S
C1400 C1399 1.516 . S
C1400 C1401 1.502 . S
C1400 C1402 1.561 . S
C1400 C1403 1.526 . S
C1401 H1385 0.959 . S
C1401 H1386 0.959 . S
C1401 H1387 0.961 . S
C1401 C1400 1.502 . S
C1402 H1388 0.960 . S
C1402 H1389 0.961 . S
C1402 H1390 0.959 . S
C1402 C1400 1.561 . S
C1403 C1400 1.526 . S
C1403 C1404 1.396 . S
C1403 C1408 1.390 . S
C1404 C1398 1.465 . S
C1404 C1403 1.396 . S
C1404 C1405 1.399 . S
C1405 H1391 0.929 . S
C1405 C1404 1.399 . S
C1405 C1406 1.385 . S
C1406 H1392 0.931 . S
C1406 C1405 1.385 . S
C1406 C1407 1.389 . S
C1407 C1406 1.389 . S
C1407 C1408 1.387 . S
C1408 H1393 0.930 . S
C1408 C1403 1.390 . S
C1408 C1407 1.387 . S
H1409 C1421 0.930 . S
H1410 C1423 0.930 . S
H1411 C1424 0.930 . S
H1412 C1428 0.959 . S
H1413 C1428 0.959 . S
H1414 C1428 0.961 . S
H1415 C1429 0.960 . S
H1416 C1429 0.961 . S
H1417 C1429 0.959 . S
H1418 C1432 0.929 . S
H1419 C1433 0.931 . S
H1420 C1435 0.930 . S
C1421 H1409 0.930 . S
C1421 C1422 1.399 . S
C1421 C1426 1.399 . S
C1422 C1421 1.399 . S
C1422 C1423 1.376 . S
C1423 H1410 0.930 . S
C1423 C1422 1.376 . S
C1423 C1424 1.388 . S
C1424 H1411 0.930 . S
C1424 C1423 1.388 . S
C1424 C1425 1.390 . S
C1425 C1424 1.390 . S
C1425 C1426 1.394 . S
C1425 C1431 1.465 . S
C1426 C1421 1.399 . S
C1426 C1425 1.394 . S
C1426 C1427 1.516 . S
C1427 C1426 1.516 . S
C1427 C1428 1.502 . S
C1427 C1429 1.561 . S
C1427 C1430 1.526 . S
C1428 H1412 0.959 . S
C1428 H1413 0.959 . S
C1428 H1414 0.961 . S
C1428 C1427 1.502 . S
C1429 H1415 0.960 . S
C1429 H1416 0.961 . S
C1429 H1417 0.959 . S
C1429 C1427 1.561 . S
C1430 C1427 1.526 . S
C1430 C1431 1.396 . S
C1430 C1435 1.390 . S
C1431 C1425 1.465 . S
C1431 C1430 1.396 . S
C1431 C1432 1.399 . S
C1432 H1418 0.929 . S
C1432 C1431 1.399 . S
C1432 C1433 1.385 . S
C1433 H1419 0.931 . S
C1433 C1432 1.385 . S
C1433 C1434 1.389 . S
C1434 C1433 1.389 . S
C1434 C1435 1.387 . S
C1435 H1420 0.930 . S
C1435 C1430 1.390 . S
C1435 C1434 1.387 . S
H1436 C1448 0.930 . S
H1437 C1450 0.930 . S
H1438 C1451 0.930 . S
H1439 C1455 0.959 . S
H1440 C1455 0.959 . S
H1441 C1455 0.961 . S
H1442 C1456 0.960 . S
H1443 C1456 0.961 . S
H1444 C1456 0.959 . S
H1445 C1459 0.929 . S
H1446 C1460 0.931 . S
H1447 C1462 0.930 . S
C1448 H1436 0.930 . S
C1448 C1449 1.399 . S
C1448 C1453 1.399 . S
C1449 C1448 1.399 . S
C1449 C1450 1.376 . S
C1450 H1437 0.930 . S
C1450 C1449 1.376 . S
C1450 C1451 1.388 . S
C1451 H1438 0.930 . S
C1451 C1450 1.388 . S
C1451 C1452 1.390 . S
C1452 C1451 1.390 . S
C1452 C1453 1.394 . S
C1452 C1458 1.465 . S
C1453 C1448 1.399 . S
C1453 C1452 1.394 . S
C1453 C1454 1.516 . S
C1454 C1453 1.516 . S
C1454 C1455 1.502 . S
C1454 C1456 1.561 . S
C1454 C1457 1.526 . S
C1455 H1439 0.959 . S
C1455 H1440 0.959 . S
C1455 H1441 0.961 . S
C1455 C1454 1.502 . S
C1456 H1442 0.960 . S
C1456 H1443 0.961 . S
C1456 H1444 0.959 . S
C1456 C1454 1.561 . S
C1457 C1454 1.526 . S
C1457 C1458 1.396 . S
C1457 C1462 1.390 . S
C1458 C1452 1.465 . S
C1458 C1457 1.396 . S
C1458 C1459 1.399 . S
C1459 H1445 0.929 . S
C1459 C1458 1.399 . S
C1459 C1460 1.385 . S
C1460 H1446 0.931 . S
C1460 C1459 1.385 . S
C1460 C1461 1.389 . S
C1461 C1460 1.389 . S
C1461 C1462 1.387 . S
C1462 H1447 0.930 . S
C1462 C1457 1.390 . S
C1462 C1461 1.387 . S
H1463 C1475 0.930 . S
H1464 C1477 0.930 . S
H1465 C1478 0.930 . S
H1466 C1482 0.959 . S
H1467 C1482 0.959 . S
H1468 C1482 0.961 . S
H1469 C1483 0.960 . S
H1470 C1483 0.961 . S
H1471 C1483 0.959 . S
H1472 C1486 0.929 . S
H1473 C1487 0.931 . S
H1474 C1489 0.930 . S
C1475 H1463 0.930 . S
C1475 C1476 1.399 . S
C1475 C1480 1.399 . S
C1476 C1475 1.399 . S
C1476 C1477 1.376 . S
C1477 H1464 0.930 . S
C1477 C1476 1.376 . S
C1477 C1478 1.388 . S
C1478 H1465 0.930 . S
C1478 C1477 1.388 . S
C1478 C1479 1.390 . S
C1479 C1478 1.390 . S
C1479 C1480 1.394 . S
C1479 C1485 1.465 . S
C1480 C1475 1.399 . S
C1480 C1479 1.394 . S
C1480 C1481 1.516 . S
C1481 C1480 1.516 . S
C1481 C1482 1.502 . S
C1481 C1483 1.561 . S
C1481 C1484 1.526 . S
C1482 H1466 0.959 . S
C1482 H1467 0.959 . S
C1482 H1468 0.961 . S
C1482 C1481 1.502 . S
C1483 H1469 0.960 . S
C1483 H1470 0.961 . S
C1483 H1471 0.959 . S
C1483 C1481 1.561 . S
C1484 C1481 1.526 . S
C1484 C1485 1.396 . S
C1484 C1489 1.390 . S
C1485 C1479 1.465 . S
C1485 C1484 1.396 . S
C1485 C1486 1.399 . S
C1486 H1472 0.929 . S
C1486 C1485 1.399 . S
C1486 C1487 1.385 . S
C1487 H1473 0.931 . S
C1487 C1486 1.385 . S
C1487 C1488 1.389 . S
C1488 C1487 1.389 . S
C1488 C1489 1.387 . S
C1489 H1474 0.930 . S
C1489 C1484 1.390 . S
C1489 C1488 1.387 . S
H1490 C1502 0.930 . S
H1491 C1504 0.930 . S
H1492 C1505 0.930 . S
H1493 C1509 0.959 . S
H1494 C1509 0.959 . S
H1495 C1509 0.961 . S
H1496 C1510 0.960 . S
H1497 C1510 0.961 . S
H1498 C1510 0.959 . S
H1499 C1513 0.929 . S
H1500 C1514 0.931 . S
H1501 C1516 0.930 . S
C1502 H1490 0.930 . S
C1502 C1503 1.399 . S
C1502 C1507 1.399 . S
C1503 C1502 1.399 . S
C1503 C1504 1.376 . S
C1504 H1491 0.930 . S
C1504 C1503 1.376 . S
C1504 C1505 1.388 . S
C1505 H1492 0.930 . S
C1505 C1504 1.388 . S
C1505 C1506 1.390 . S
C1506 C1505 1.390 . S
C1506 C1507 1.394 . S
C1506 C1512 1.465 . S
C1507 C1502 1.399 . S
C1507 C1506 1.394 . S
C1507 C1508 1.516 . S
C1508 C1507 1.516 . S
C1508 C1509 1.502 . S
C1508 C1510 1.561 . S
C1508 C1511 1.526 . S
C1509 H1493 0.959 . S
C1509 H1494 0.959 . S
C1509 H1495 0.961 . S
C1509 C1508 1.502 . S
C1510 H1496 0.960 . S
C1510 H1497 0.961 . S
C1510 H1498 0.959 . S
C1510 C1508 1.561 . S
C1511 C1508 1.526 . S
C1511 C1512 1.396 . S
C1511 C1516 1.390 . S
C1512 C1506 1.465 . S
C1512 C1511 1.396 . S
C1512 C1513 1.399 . S
C1513 H1499 0.929 . S
C1513 C1512 1.399 . S
C1513 C1514 1.385 . S
C1514 H1500 0.931 . S
C1514 C1513 1.385 . S
C1514 C1515 1.389 . S
C1515 C1514 1.389 . S
C1515 C1516 1.387 . S
C1516 H1501 0.930 . S
C1516 C1511 1.390 . S
C1516 C1515 1.387 . S
H1517 C1529 0.930 . S
H1518 C1531 0.930 . S
H1519 C1532 0.930 . S
H1520 C1536 0.959 . S
H1521 C1536 0.959 . S
H1522 C1536 0.961 . S
H1523 C1537 0.960 . S
H1524 C1537 0.961 . S
H1525 C1537 0.959 . S
H1526 C1540 0.929 . S
H1527 C1541 0.931 . S
H1528 C1543 0.930 . S
C1529 H1517 0.930 . S
C1529 C1530 1.399 . S
C1529 C1534 1.399 . S
C1530 C1529 1.399 . S
C1530 C1531 1.376 . S
C1531 H1518 0.930 . S
C1531 C1530 1.376 . S
C1531 C1532 1.388 . S
C1532 H1519 0.930 . S
C1532 C1531 1.388 . S
C1532 C1533 1.390 . S
C1533 C1532 1.390 . S
C1533 C1534 1.394 . S
C1533 C1539 1.465 . S
C1534 C1529 1.399 . S
C1534 C1533 1.394 . S
C1534 C1535 1.516 . S
C1535 C1534 1.516 . S
C1535 C1536 1.502 . S
C1535 C1537 1.561 . S
C1535 C1538 1.526 . S
C1536 H1520 0.959 . S
C1536 H1521 0.959 . S
C1536 H1522 0.961 . S
C1536 C1535 1.502 . S
C1537 H1523 0.960 . S
C1537 H1524 0.961 . S
C1537 H1525 0.959 . S
C1537 C1535 1.561 . S
C1538 C1535 1.526 . S
C1538 C1539 1.396 . S
C1538 C1543 1.390 . S
C1539 C1533 1.465 . S
C1539 C1538 1.396 . S
C1539 C1540 1.399 . S
C1540 H1526 0.929 . S
C1540 C1539 1.399 . S
C1540 C1541 1.385 . S
C1541 H1527 0.931 . S
C1541 C1540 1.385 . S
C1541 C1542 1.389 . S
C1542 C1541 1.389 . S
C1542 C1543 1.387 . S
C1543 H1528 0.930 . S
C1543 C1538 1.390 . S
C1543 C1542 1.387 . S
H1544 C1556 0.930 . S
H1545 C1558 0.930 . S
H1546 C1559 0.930 . S
H1547 C1563 0.959 . S
H1548 C1563 0.959 . S
H1549 C1563 0.961 . S
H1550 C1564 0.960 . S
H1551 C1564 0.961 . S
H1552 C1564 0.959 . S
H1553 C1567 0.929 . S
H1554 C1568 0.931 . S
H1555 C1570 0.930 . S
C1556 H1544 0.930 . S
C1556 C1557 1.399 . S
C1556 C1561 1.399 . S
C1557 C1556 1.399 . S
C1557 C1558 1.376 . S
C1558 H1545 0.930 . S
C1558 C1557 1.376 . S
C1558 C1559 1.388 . S
C1559 H1546 0.930 . S
C1559 C1558 1.388 . S
C1559 C1560 1.390 . S
C1560 C1559 1.390 . S
C1560 C1561 1.394 . S
C1560 C1566 1.465 . S
C1561 C1556 1.399 . S
C1561 C1560 1.394 . S
C1561 C1562 1.516 . S
C1562 C1561 1.516 . S
C1562 C1563 1.502 . S
C1562 C1564 1.561 . S
C1562 C1565 1.526 . S
C1563 H1547 0.959 . S
C1563 H1548 0.959 . S
C1563 H1549 0.961 . S
C1563 C1562 1.502 . S
C1564 H1550 0.960 . S
C1564 H1551 0.961 . S
C1564 H1552 0.959 . S
C1564 C1562 1.561 . S
C1565 C1562 1.526 . S
C1565 C1566 1.396 . S
C1565 C1570 1.390 . S
C1566 C1560 1.465 . S
C1566 C1565 1.396 . S
C1566 C1567 1.399 . S
C1567 H1553 0.929 . S
C1567 C1566 1.399 . S
C1567 C1568 1.385 . S
C1568 H1554 0.931 . S
C1568 C1567 1.385 . S
C1568 C1569 1.389 . S
C1569 C1568 1.389 . S
C1569 C1570 1.387 . S
C1570 H1555 0.930 . S
C1570 C1565 1.390 . S
C1570 C1569 1.387 . S
H1571 C1583 0.930 . S
H1572 C1585 0.930 . S
H1573 C1586 0.930 . S
H1574 C1590 0.959 . S
H1575 C1590 0.959 . S
H1576 C1590 0.961 . S
H1577 C1591 0.960 . S
H1578 C1591 0.961 . S
H1579 C1591 0.959 . S
H1580 C1594 0.929 . S
H1581 C1595 0.931 . S
H1582 C1597 0.930 . S
C1583 H1571 0.930 . S
C1583 C1584 1.399 . S
C1583 C1588 1.399 . S
C1584 C1583 1.399 . S
C1584 C1585 1.376 . S
C1585 H1572 0.930 . S
C1585 C1584 1.376 . S
C1585 C1586 1.388 . S
C1586 H1573 0.930 . S
C1586 C1585 1.388 . S
C1586 C1587 1.390 . S
C1587 C1586 1.390 . S
C1587 C1588 1.394 . S
C1587 C1593 1.465 . S
C1588 C1583 1.399 . S
C1588 C1587 1.394 . S
C1588 C1589 1.516 . S
C1589 C1588 1.516 . S
C1589 C1590 1.502 . S
C1589 C1591 1.561 . S
C1589 C1592 1.526 . S
C1590 H1574 0.959 . S
C1590 H1575 0.959 . S
C1590 H1576 0.961 . S
C1590 C1589 1.502 . S
C1591 H1577 0.960 . S
C1591 H1578 0.961 . S
C1591 H1579 0.959 . S
C1591 C1589 1.561 . S
C1592 C1589 1.526 . S
C1592 C1593 1.396 . S
C1592 C1597 1.390 . S
C1593 C1587 1.465 . S
C1593 C1592 1.396 . S
C1593 C1594 1.399 . S
C1594 H1580 0.929 . S
C1594 C1593 1.399 . S
C1594 C1595 1.385 . S
C1595 H1581 0.931 . S
C1595 C1594 1.385 . S
C1595 C1596 1.389 . S
C1596 C1595 1.389 . S
C1596 C1597 1.387 . S
C1597 H1582 0.930 . S
C1597 C1592 1.390 . S
C1597 C1596 1.387 . S
H1598 C1610 0.930 . S
H1599 C1612 0.930 . S
H1600 C1613 0.930 . S
H1601 C1617 0.959 . S
H1602 C1617 0.959 . S
H1603 C1617 0.961 . S
H1604 C1618 0.960 . S
H1605 C1618 0.961 . S
H1606 C1618 0.959 . S
H1607 C1621 0.929 . S
H1608 C1622 0.931 . S
H1609 C1624 0.930 . S
C1610 H1598 0.930 . S
C1610 C1611 1.399 . S
C1610 C1615 1.399 . S
C1611 C1610 1.399 . S
C1611 C1612 1.376 . S
C1612 H1599 0.930 . S
C1612 C1611 1.376 . S
C1612 C1613 1.388 . S
C1613 H1600 0.930 . S
C1613 C1612 1.388 . S
C1613 C1614 1.390 . S
C1614 C1613 1.390 . S
C1614 C1615 1.394 . S
C1614 C1620 1.465 . S
C1615 C1610 1.399 . S
C1615 C1614 1.394 . S
C1615 C1616 1.516 . S
C1616 C1615 1.516 . S
C1616 C1617 1.502 . S
C1616 C1618 1.561 . S
C1616 C1619 1.526 . S
C1617 H1601 0.959 . S
C1617 H1602 0.959 . S
C1617 H1603 0.961 . S
C1617 C1616 1.502 . S
C1618 H1604 0.960 . S
C1618 H1605 0.961 . S
C1618 H1606 0.959 . S
C1618 C1616 1.561 . S
C1619 C1616 1.526 . S
C1619 C1620 1.396 . S
C1619 C1624 1.390 . S
C1620 C1614 1.465 . S
C1620 C1619 1.396 . S
C1620 C1621 1.399 . S
C1621 H1607 0.929 . S
C1621 C1620 1.399 . S
C1621 C1622 1.385 . S
C1622 H1608 0.931 . S
C1622 C1621 1.385 . S
C1622 C1623 1.389 . S
C1623 C1622 1.389 . S
C1623 C1624 1.387 . S
C1624 H1609 0.930 . S
C1624 C1619 1.390 . S
C1624 C1623 1.387 . S
H1625 C1637 0.930 . S
H1626 C1639 0.930 . S
H1627 C1640 0.930 . S
H1628 C1644 0.959 . S
H1629 C1644 0.959 . S
H1630 C1644 0.961 . S
H1631 C1645 0.960 . S
H1632 C1645 0.961 . S
H1633 C1645 0.959 . S
H1634 C1648 0.929 . S
H1635 C1649 0.931 . S
H1636 C1651 0.930 . S
C1637 H1625 0.930 . S
C1637 C1638 1.399 . S
C1637 C1642 1.399 . S
C1638 C1637 1.399 . S
C1638 C1639 1.376 . S
C1639 H1626 0.930 . S
C1639 C1638 1.376 . S
C1639 C1640 1.388 . S
C1640 H1627 0.930 . S
C1640 C1639 1.388 . S
C1640 C1641 1.390 . S
C1641 C1640 1.390 . S
C1641 C1642 1.394 . S
C1641 C1647 1.465 . S
C1642 C1637 1.399 . S
C1642 C1641 1.394 . S
C1642 C1643 1.516 . S
C1643 C1642 1.516 . S
C1643 C1644 1.502 . S
C1643 C1645 1.561 . S
C1643 C1646 1.526 . S
C1644 H1628 0.959 . S
C1644 H1629 0.959 . S
C1644 H1630 0.961 . S
C1644 C1643 1.502 . S
C1645 H1631 0.960 . S
C1645 H1632 0.961 . S
C1645 H1633 0.959 . S
C1645 C1643 1.561 . S
C1646 C1643 1.526 . S
C1646 C1647 1.396 . S
C1646 C1651 1.390 . S
C1647 C1641 1.465 . S
C1647 C1646 1.396 . S
C1647 C1648 1.399 . S
C1648 H1634 0.929 . S
C1648 C1647 1.399 . S
C1648 C1649 1.385 . S
C1649 H1635 0.931 . S
C1649 C1648 1.385 . S
C1649 C1650 1.389 . S
C1650 C1649 1.389 . S
C1650 C1651 1.387 . S
C1651 H1636 0.930 . S
C1651 C1646 1.390 . S
C1651 C1650 1.387 . S
H1652 C1664 0.930 . S
H1653 C1666 0.930 . S
H1654 C1667 0.930 . S
H1655 C1671 0.959 . S
H1656 C1671 0.959 . S
H1657 C1671 0.961 . S
H1658 C1672 0.960 . S
H1659 C1672 0.961 . S
H1660 C1672 0.959 . S
H1661 C1675 0.929 . S
H1662 C1676 0.931 . S
H1663 C1678 0.930 . S
C1664 H1652 0.930 . S
C1664 C1665 1.399 . S
C1664 C1669 1.399 . S
C1665 C1664 1.399 . S
C1665 C1666 1.376 . S
C1666 H1653 0.930 . S
C1666 C1665 1.376 . S
C1666 C1667 1.388 . S
C1667 H1654 0.930 . S
C1667 C1666 1.388 . S
C1667 C1668 1.390 . S
C1668 C1667 1.390 . S
C1668 C1669 1.394 . S
C1668 C1674 1.465 . S
C1669 C1664 1.399 . S
C1669 C1668 1.394 . S
C1669 C1670 1.516 . S
C1670 C1669 1.516 . S
C1670 C1671 1.502 . S
C1670 C1672 1.561 . S
C1670 C1673 1.526 . S
C1671 H1655 0.959 . S
C1671 H1656 0.959 . S
C1671 H1657 0.961 . S
C1671 C1670 1.502 . S
C1672 H1658 0.960 . S
C1672 H1659 0.961 . S
C1672 H1660 0.959 . S
C1672 C1670 1.561 . S
C1673 C1670 1.526 . S
C1673 C1674 1.396 . S
C1673 C1678 1.390 . S
C1674 C1668 1.465 . S
C1674 C1673 1.396 . S
C1674 C1675 1.399 . S
C1675 H1661 0.929 . S
C1675 C1674 1.399 . S
C1675 C1676 1.385 . S
C1676 H1662 0.931 . S
C1676 C1675 1.385 . S
C1676 C1677 1.389 . S
C1677 C1676 1.389 . S
C1677 C1678 1.387 . S
C1678 H1663 0.930 . S
C1678 C1673 1.390 . S
C1678 C1677 1.387 . S
H1679 C1691 0.930 . S
H1680 C1693 0.930 . S
H1681 C1694 0.930 . S
H1682 C1698 0.959 . S
H1683 C1698 0.959 . S
H1684 C1698 0.961 . S
H1685 C1699 0.960 . S
H1686 C1699 0.961 . S
H1687 C1699 0.959 . S
H1688 C1702 0.929 . S
H1689 C1703 0.931 . S
H1690 C1705 0.930 . S
C1691 H1679 0.930 . S
C1691 C1692 1.399 . S
C1691 C1696 1.399 . S
C1692 C1691 1.399 . S
C1692 C1693 1.376 . S
C1693 H1680 0.930 . S
C1693 C1692 1.376 . S
C1693 C1694 1.388 . S
C1694 H1681 0.930 . S
C1694 C1693 1.388 . S
C1694 C1695 1.390 . S
C1695 C1694 1.390 . S
C1695 C1696 1.394 . S
C1695 C1701 1.465 . S
C1696 C1691 1.399 . S
C1696 C1695 1.394 . S
C1696 C1697 1.516 . S
C1697 C1696 1.516 . S
C1697 C1698 1.502 . S
C1697 C1699 1.561 . S
C1697 C1700 1.526 . S
C1698 H1682 0.959 . S
C1698 H1683 0.959 . S
C1698 H1684 0.961 . S
C1698 C1697 1.502 . S
C1699 H1685 0.960 . S
C1699 H1686 0.961 . S
C1699 H1687 0.959 . S
C1699 C1697 1.561 . S
C1700 C1697 1.526 . S
C1700 C1701 1.396 . S
C1700 C1705 1.390 . S
C1701 C1695 1.465 . S
C1701 C1700 1.396 . S
C1701 C1702 1.399 . S
C1702 H1688 0.929 . S
C1702 C1701 1.399 . S
C1702 C1703 1.385 . S
C1703 H1689 0.931 . S
C1703 C1702 1.385 . S
C1703 C1704 1.389 . S
C1704 C1703 1.389 . S
C1704 C1705 1.387 . S
C1705 H1690 0.930 . S
C1705 C1700 1.390 . S
C1705 C1704 1.387 . S
H1706 C1718 0.930 . S
H1707 C1720 0.930 . S
H1708 C1721 0.930 . S
H1709 C1725 0.959 . S
H1710 C1725 0.959 . S
H1711 C1725 0.961 . S
H1712 C1726 0.960 . S
H1713 C1726 0.961 . S
H1714 C1726 0.959 . S
H1715 C1729 0.929 . S
H1716 C1730 0.931 . S
H1717 C1732 0.930 . S
C1718 H1706 0.930 . S
C1718 C1719 1.399 . S
C1718 C1723 1.399 . S
C1719 C1718 1.399 . S
C1719 C1720 1.376 . S
C1720 H1707 0.930 . S
C1720 C1719 1.376 . S
C1720 C1721 1.388 . S
C1721 H1708 0.930 . S
C1721 C1720 1.388 . S
C1721 C1722 1.390 . S
C1722 C1721 1.390 . S
C1722 C1723 1.394 . S
C1722 C1728 1.465 . S
C1723 C1718 1.399 . S
C1723 C1722 1.394 . S
C1723 C1724 1.516 . S
C1724 C1723 1.516 . S
C1724 C1725 1.502 . S
C1724 C1726 1.561 . S
C1724 C1727 1.526 . S
C1725 H1709 0.959 . S
C1725 H1710 0.959 . S
C1725 H1711 0.961 . S
C1725 C1724 1.502 . S
C1726 H1712 0.960 . S
C1726 H1713 0.961 . S
C1726 H1714 0.959 . S
C1726 C1724 1.561 . S
C1727 C1724 1.526 . S
C1727 C1728 1.396 . S
C1727 C1732 1.390 . S
C1728 C1722 1.465 . S
C1728 C1727 1.396 . S
C1728 C1729 1.399 . S
C1729 H1715 0.929 . S
C1729 C1728 1.399 . S
C1729 C1730 1.385 . S
C1730 H1716 0.931 . S
C1730 C1729 1.385 . S
C1730 C1731 1.389 . S
C1731 C1730 1.389 . S
C1731 C1732 1.387 . S
C1732 H1717 0.930 . S
C1732 C1727 1.390 . S
C1732 C1731 1.387 . S
H1733 C1745 0.930 . S
H1734 C1747 0.930 . S
H1735 C1748 0.930 . S
H1736 C1752 0.959 . S
H1737 C1752 0.959 . S
H1738 C1752 0.961 . S
H1739 C1753 0.960 . S
H1740 C1753 0.961 . S
H1741 C1753 0.959 . S
H1742 C1756 0.929 . S
H1743 C1757 0.931 . S
H1744 C1759 0.930 . S
C1745 H1733 0.930 . S
C1745 C1746 1.399 . S
C1745 C1750 1.399 . S
C1746 C1745 1.399 . S
C1746 C1747 1.376 . S
C1747 H1734 0.930 . S
C1747 C1746 1.376 . S
C1747 C1748 1.388 . S
C1748 H1735 0.930 . S
C1748 C1747 1.388 . S
C1748 C1749 1.390 . S
C1749 C1748 1.390 . S
C1749 C1750 1.394 . S
C1749 C1755 1.465 . S
C1750 C1745 1.399 . S
C1750 C1749 1.394 . S
C1750 C1751 1.516 . S
C1751 C1750 1.516 . S
C1751 C1752 1.502 . S
C1751 C1753 1.561 . S
C1751 C1754 1.526 . S
C1752 H1736 0.959 . S
C1752 H1737 0.959 . S
C1752 H1738 0.961 . S
C1752 C1751 1.502 . S
C1753 H1739 0.960 . S
C1753 H1740 0.961 . S
C1753 H1741 0.959 . S
C1753 C1751 1.561 . S
C1754 C1751 1.526 . S
C1754 C1755 1.396 . S
C1754 C1759 1.390 . S
C1755 C1749 1.465 . S
C1755 C1754 1.396 . S
C1755 C1756 1.399 . S
C1756 H1742 0.929 . S
C1756 C1755 1.399 . S
C1756 C1757 1.385 . S
C1757 H1743 0.931 . S
C1757 C1756 1.385 . S
C1757 C1758 1.389 . S
C1758 C1757 1.389 . S
C1758 C1759 1.387 . S
C1759 H1744 0.930 . S
C1759 C1754 1.390 . S
C1759 C1758 1.387 . S
H1760 C1772 0.930 . S
H1761 C1774 0.930 . S
H1762 C1775 0.930 . S
H1763 C1779 0.959 . S
H1764 C1779 0.959 . S
H1765 C1779 0.961 . S
H1766 C1780 0.960 . S
H1767 C1780 0.961 . S
H1768 C1780 0.959 . S
H1769 C1783 0.929 . S
H1770 C1784 0.931 . S
H1771 C1786 0.930 . S
C1772 H1760 0.930 . S
C1772 C1773 1.399 . S
C1772 C1777 1.399 . S
C1773 C1772 1.399 . S
C1773 C1774 1.376 . S
C1774 H1761 0.930 . S
C1774 C1773 1.376 . S
C1774 C1775 1.388 . S
C1775 H1762 0.930 . S
C1775 C1774 1.388 . S
C1775 C1776 1.390 . S
C1776 C1775 1.390 . S
C1776 C1777 1.394 . S
C1776 C1782 1.465 . S
C1777 C1772 1.399 . S
C1777 C1776 1.394 . S
C1777 C1778 1.516 . S
C1778 C1777 1.516 . S
C1778 C1779 1.502 . S
C1778 C1780 1.561 . S
C1778 C1781 1.526 . S
C1779 H1763 0.959 . S
C1779 H1764 0.959 . S
C1779 H1765 0.961 . S
C1779 C1778 1.502 . S
C1780 H1766 0.960 . S
C1780 H1767 0.961 . S
C1780 H1768 0.959 . S
C1780 C1778 1.561 . S
C1781 C1778 1.526 . S
C1781 C1782 1.396 . S
C1781 C1786 1.390 . S
C1782 C1776 1.465 . S
C1782 C1781 1.396 . S
C1782 C1783 1.399 . S
C1783 H1769 0.929 . S
C1783 C1782 1.399 . S
C1783 C1784 1.385 . S
C1784 H1770 0.931 . S
C1784 C1783 1.385 . S
C1784 C1785 1.389 . S
C1785 C1784 1.389 . S
C1785 C1786 1.387 . S
C1786 H1771 0.930 . S
C1786 C1781 1.390 . S
C1786 C1785 1.387 . S
H1787 C1799 0.930 . S
H1788 C1801 0.930 . S
H1789 C1802 0.930 . S
H1790 C1806 0.959 . S
H1791 C1806 0.959 . S
H1792 C1806 0.961 . S
H1793 C1807 0.960 . S
H1794 C1807 0.961 . S
H1795 C1807 0.959 . S
H1796 C1810 0.929 . S
H1797 C1811 0.931 . S
H1798 C1813 0.930 . S
C1799 H1787 0.930 . S
C1799 C1800 1.399 . S
C1799 C1804 1.399 . S
C1800 C1799 1.399 . S
C1800 C1801 1.376 . S
C1801 H1788 0.930 . S
C1801 C1800 1.376 . S
C1801 C1802 1.388 . S
C1802 H1789 0.930 . S
C1802 C1801 1.388 . S
C1802 C1803 1.390 . S
C1803 C1802 1.390 . S
C1803 C1804 1.394 . S
C1803 C1809 1.465 . S
C1804 C1799 1.399 . S
C1804 C1803 1.394 . S
C1804 C1805 1.516 . S
C1805 C1804 1.516 . S
C1805 C1806 1.502 . S
C1805 C1807 1.561 . S
C1805 C1808 1.526 . S
C1806 H1790 0.959 . S
C1806 H1791 0.959 . S
C1806 H1792 0.961 . S
C1806 C1805 1.502 . S
C1807 H1793 0.960 . S
C1807 H1794 0.961 . S
C1807 H1795 0.959 . S
C1807 C1805 1.561 . S
C1808 C1805 1.526 . S
C1808 C1809 1.396 . S
C1808 C1813 1.390 . S
C1809 C1803 1.465 . S
C1809 C1808 1.396 . S
C1809 C1810 1.399 . S
C1810 H1796 0.929 . S
C1810 C1809 1.399 . S
C1810 C1811 1.385 . S
C1811 H1797 0.931 . S
C1811 C1810 1.385 . S
C1811 C1812 1.389 . S
C1812 C1811 1.389 . S
C1812 C1813 1.387 . S
C1813 H1798 0.930 . S
C1813 C1808 1.390 . S
C1813 C1812 1.387 . S
C543 C347 2.414 . S
C531 C18 2.508 . S
C570 C348 2.710 . S
C558 C59 2.713 . S
C597 C342 1.322 . S
C585 C98 1.363 . S
C612 C125 0.554 . S
C624 C341 0.597 . S
C639 C169 2.654 . S
C651 C344 2.637 . S
C678 C346 1.197 . S
C666 C218 1.198 . S
C693 C255 0.899 . S
C705 C345 0.784 . S
C720 C288 2.476 . S
C732 C343 2.355 . S
C759 C378 0.881 . S
C747 C15 0.832 . S
C774 C45 0.763 . S
C786 C409 0.330 . S
C813 C377 0.477 . S
C801 C95 0.296 . S
C840 C412 1.013 . S
C828 C128 1.012 . S
C855 C178 1.268 . S
C867 C375 1.220 . S
C894 C407 1.508 1_556 S
C882 C215 1.512 . S
C909 C249 2.135 . S
C921 C380 2.166 . S
C936 C299 2.040 . S
C948 C414 2.025 . S
C963 C9 2.749 . S
C975 C410 2.688 . S
C990 C175 0.658 . S
C1002 C413 0.499 . S
C1029 C381 1.506 . S
C1017 C209 1.564 . S
C1056 C408 1.448 1_556 S
C1044 C258 1.525 . S
C1071 C285 1.392 . S
C1083 C374 1.396 . S
C1098 C89 3.146 . S
C1110 C411 3.152 . S
C1137 C376 2.432 . S
C1125 C139 2.489 . S
C1152 C48 1.728 . S
C1164 C379 1.742 . S
C1179 C298 2.479 . S
C1191 C446 2.382 . S
C1206 C179 2.209 . S
C1218 C447 2.163 . S
C1245 C441 1.337 . S
C1233 C208 1.323 . S
C1272 C440 1.050 . S
C1260 C245 1.033 . S
C1287 C49 2.303 . S
C1299 C443 2.310 . S
C1326 C445 1.252 . S
C1314 C88 1.205 . S
C1341 C135 0.942 . S
C1353 C444 0.912 . S
C1368 C8 2.456 . S
C1380 C442 2.304 . S
C1395 C295 1.359 . S
C1407 C480 1.367 . S
C1434 C512 0.708 . S
C1422 C165 0.611 . S
C1449 C219 1.639 . S
C1461 C473 1.638 . S
C1476 C248 1.813 . S
C1488 C507 1.843 . S
C1515 C478 1.482 . S
C1503 C58 1.540 . S
C1530 C99 3.325 . S
C1542 C509 3.259 . S
C1569 C475 2.666 . S
C1557 C129 2.703 . S
C1596 C510 2.671 . S
C1584 C19 2.623 . S
C1623 C506 1.975 . S
C1611 C289 1.905 . S
C1638 C55 0.773 . S
C1650 C508 0.763 . S
C1665 C85 0.304 . S
C1677 C477 0.231 . S
C1704 C511 1.250 . S
C1692 C138 1.300 . S
C1719 C5 0.779 . S
C1731 C476 0.883 . S
C1746 C205 1.701 . S
C1758 C513 1.605 . S
C1785 C479 2.293 . S
C1773 C259 2.327 . S
C1812 C474 1.046 . S
C1800 C168 0.983 . S
