# Generated by pormake.
# Topology gar, (4,6)-cn, num edge types: 1
# Building blocks:
#     Node 0, Type 0, BuildingBlock: UXUYUI_clean_sbu_0, # of connection points: 4
#     Node 1, Type 0, BuildingBlock: UXUYUI_clean_sbu_0, # of connection points: 4
#     Node 2, Type 0, BuildingBlock: UXUYUI_clean_sbu_0, # of connection points: 4
#     Node 3, Type 0, BuildingBlock: UXUYUI_clean_sbu_0, # of connection points: 4
#     Node 4, Type 0, BuildingBlock: UXUYUI_clean_sbu_0, # of connection points: 4
#     Node 5, Type 0, BuildingBlock: UXUYUI_clean_sbu_0, # of connection points: 4
#     Node 6, Type 0, BuildingBlock: UXUYUI_clean_sbu_0, # of connection points: 4
#     Node 7, Type 0, BuildingBlock: UXUYUI_clean_sbu_0, # of connection points: 4
#     Node 8, Type 0, BuildingBlock: UXUYUI_clean_sbu_0, # of connection points: 4
#     Node 9, Type 0, BuildingBlock: UXUYUI_clean_sbu_0, # of connection points: 4
#     Node 10, Type 0, BuildingBlock: UXUYUI_clean_sbu_0, # of connection points: 4
#     Node 11, Type 0, BuildingBlock: UXUYUI_clean_sbu_0, # of connection points: 4
#     Node 12, Type 0, BuildingBlock: UXUYUI_clean_sbu_0, # of connection points: 4
#     Node 13, Type 0, BuildingBlock: UXUYUI_clean_sbu_0, # of connection points: 4
#     Node 14, Type 0, BuildingBlock: UXUYUI_clean_sbu_0, # of connection points: 4
#     Node 15, Type 0, BuildingBlock: UXUYUI_clean_sbu_0, # of connection points: 4
#     Node 16, Type 0, BuildingBlock: UXUYUI_clean_sbu_0, # of connection points: 4
#     Node 17, Type 0, BuildingBlock: UXUYUI_clean_sbu_0, # of connection points: 4
#     Node 18, Type 0, BuildingBlock: UXUYUI_clean_sbu_0, # of connection points: 4
#     Node 19, Type 0, BuildingBlock: UXUYUI_clean_sbu_0, # of connection points: 4
#     Node 20, Type 0, BuildingBlock: UXUYUI_clean_sbu_0, # of connection points: 4
#     Node 21, Type 0, BuildingBlock: UXUYUI_clean_sbu_0, # of connection points: 4
#     Node 22, Type 0, BuildingBlock: UXUYUI_clean_sbu_0, # of connection points: 4
#     Node 23, Type 0, BuildingBlock: UXUYUI_clean_sbu_0, # of connection points: 4
#     Node 24, Type 1, BuildingBlock: INOVEN_clean_sbu_0, # of connection points: 6
#     Node 25, Type 1, BuildingBlock: INOVEN_clean_sbu_0, # of connection points: 6
#     Node 26, Type 1, BuildingBlock: INOVEN_clean_sbu_0, # of connection points: 6
#     Node 27, Type 1, BuildingBlock: INOVEN_clean_sbu_0, # of connection points: 6
#     Node 28, Type 1, BuildingBlock: INOVEN_clean_sbu_0, # of connection points: 6
#     Node 29, Type 1, BuildingBlock: INOVEN_clean_sbu_0, # of connection points: 6
#     Node 30, Type 1, BuildingBlock: INOVEN_clean_sbu_0, # of connection points: 6
#     Node 31, Type 1, BuildingBlock: INOVEN_clean_sbu_0, # of connection points: 6
#     Node 32, Type 1, BuildingBlock: INOVEN_clean_sbu_0, # of connection points: 6
#     Node 33, Type 1, BuildingBlock: INOVEN_clean_sbu_0, # of connection points: 6
#     Node 34, Type 1, BuildingBlock: INOVEN_clean_sbu_0, # of connection points: 6
#     Node 35, Type 1, BuildingBlock: INOVEN_clean_sbu_0, # of connection points: 6
#     Node 36, Type 1, BuildingBlock: INOVEN_clean_sbu_0, # of connection points: 6
#     Node 37, Type 1, BuildingBlock: INOVEN_clean_sbu_0, # of connection points: 6
#     Node 38, Type 1, BuildingBlock: INOVEN_clean_sbu_0, # of connection points: 6
#     Node 39, Type 1, BuildingBlock: INOVEN_clean_sbu_0, # of connection points: 6
#     Edge 40, Type (0, 1), BuildingBlock: ZUJKAS_clean_linker_0, # of connection points: 2
#     Edge 41, Type (0, 1), BuildingBlock: ZUJKAS_clean_linker_0, # of connection points: 2
#     Edge 42, Type (0, 1), BuildingBlock: ZUJKAS_clean_linker_0, # of connection points: 2
#     Edge 43, Type (0, 1), BuildingBlock: ZUJKAS_clean_linker_0, # of connection points: 2
#     Edge 44, Type (0, 1), BuildingBlock: ZUJKAS_clean_linker_0, # of connection points: 2
#     Edge 45, Type (0, 1), BuildingBlock: ZUJKAS_clean_linker_0, # of connection points: 2
#     Edge 46, Type (0, 1), BuildingBlock: ZUJKAS_clean_linker_0, # of connection points: 2
#     Edge 47, Type (0, 1), BuildingBlock: ZUJKAS_clean_linker_0, # of connection points: 2
#     Edge 48, Type (0, 1), BuildingBlock: ZUJKAS_clean_linker_0, # of connection points: 2
#     Edge 49, Type (0, 1), BuildingBlock: ZUJKAS_clean_linker_0, # of connection points: 2
#     Edge 50, Type (0, 1), BuildingBlock: ZUJKAS_clean_linker_0, # of connection points: 2
#     Edge 51, Type (0, 1), BuildingBlock: ZUJKAS_clean_linker_0, # of connection points: 2
#     Edge 52, Type (0, 1), BuildingBlock: ZUJKAS_clean_linker_0, # of connection points: 2
#     Edge 53, Type (0, 1), BuildingBlock: ZUJKAS_clean_linker_0, # of connection points: 2
#     Edge 54, Type (0, 1), BuildingBlock: ZUJKAS_clean_linker_0, # of connection points: 2
#     Edge 55, Type (0, 1), BuildingBlock: ZUJKAS_clean_linker_0, # of connection points: 2
#     Edge 56, Type (0, 1), BuildingBlock: ZUJKAS_clean_linker_0, # of connection points: 2
#     Edge 57, Type (0, 1), BuildingBlock: ZUJKAS_clean_linker_0, # of connection points: 2
#     Edge 58, Type (0, 1), BuildingBlock: ZUJKAS_clean_linker_0, # of connection points: 2
#     Edge 59, Type (0, 1), BuildingBlock: ZUJKAS_clean_linker_0, # of connection points: 2
#     Edge 60, Type (0, 1), BuildingBlock: ZUJKAS_clean_linker_0, # of connection points: 2
#     Edge 61, Type (0, 1), BuildingBlock: ZUJKAS_clean_linker_0, # of connection points: 2
#     Edge 62, Type (0, 1), BuildingBlock: ZUJKAS_clean_linker_0, # of connection points: 2
#     Edge 63, Type (0, 1), BuildingBlock: ZUJKAS_clean_linker_0, # of connection points: 2
#     Edge 64, Type (0, 1), BuildingBlock: ZUJKAS_clean_linker_0, # of connection points: 2
#     Edge 65, Type (0, 1), BuildingBlock: ZUJKAS_clean_linker_0, # of connection points: 2
#     Edge 66, Type (0, 1), BuildingBlock: ZUJKAS_clean_linker_0, # of connection points: 2
#     Edge 67, Type (0, 1), BuildingBlock: ZUJKAS_clean_linker_0, # of connection points: 2
#     Edge 68, Type (0, 1), BuildingBlock: ZUJKAS_clean_linker_0, # of connection points: 2
#     Edge 69, Type (0, 1), BuildingBlock: ZUJKAS_clean_linker_0, # of connection points: 2
#     Edge 70, Type (0, 1), BuildingBlock: ZUJKAS_clean_linker_0, # of connection points: 2
#     Edge 71, Type (0, 1), BuildingBlock: ZUJKAS_clean_linker_0, # of connection points: 2
#     Edge 72, Type (0, 1), BuildingBlock: ZUJKAS_clean_linker_0, # of connection points: 2
#     Edge 73, Type (0, 1), BuildingBlock: ZUJKAS_clean_linker_0, # of connection points: 2
#     Edge 74, Type (0, 1), BuildingBlock: ZUJKAS_clean_linker_0, # of connection points: 2
#     Edge 75, Type (0, 1), BuildingBlock: ZUJKAS_clean_linker_0, # of connection points: 2
#     Edge 76, Type (0, 1), BuildingBlock: ZUJKAS_clean_linker_0, # of connection points: 2
#     Edge 77, Type (0, 1), BuildingBlock: ZUJKAS_clean_linker_0, # of connection points: 2
#     Edge 78, Type (0, 1), BuildingBlock: ZUJKAS_clean_linker_0, # of connection points: 2
#     Edge 79, Type (0, 1), BuildingBlock: ZUJKAS_clean_linker_0, # of connection points: 2
#     Edge 80, Type (0, 1), BuildingBlock: ZUJKAS_clean_linker_0, # of connection points: 2
#     Edge 81, Type (0, 1), BuildingBlock: ZUJKAS_clean_linker_0, # of connection points: 2
#     Edge 82, Type (0, 1), BuildingBlock: ZUJKAS_clean_linker_0, # of connection points: 2
#     Edge 83, Type (0, 1), BuildingBlock: ZUJKAS_clean_linker_0, # of connection points: 2
#     Edge 84, Type (0, 1), BuildingBlock: ZUJKAS_clean_linker_0, # of connection points: 2
#     Edge 85, Type (0, 1), BuildingBlock: ZUJKAS_clean_linker_0, # of connection points: 2
#     Edge 86, Type (0, 1), BuildingBlock: ZUJKAS_clean_linker_0, # of connection points: 2
#     Edge 87, Type (0, 1), BuildingBlock: ZUJKAS_clean_linker_0, # of connection points: 2
#     Edge 88, Type (0, 1), BuildingBlock: ZUJKAS_clean_linker_0, # of connection points: 2
#     Edge 89, Type (0, 1), BuildingBlock: ZUJKAS_clean_linker_0, # of connection points: 2
#     Edge 90, Type (0, 1), BuildingBlock: ZUJKAS_clean_linker_0, # of connection points: 2
#     Edge 91, Type (0, 1), BuildingBlock: ZUJKAS_clean_linker_0, # of connection points: 2
#     Edge 92, Type (0, 1), BuildingBlock: ZUJKAS_clean_linker_0, # of connection points: 2
#     Edge 93, Type (0, 1), BuildingBlock: ZUJKAS_clean_linker_0, # of connection points: 2
#     Edge 94, Type (0, 1), BuildingBlock: ZUJKAS_clean_linker_0, # of connection points: 2
#     Edge 95, Type (0, 1), BuildingBlock: ZUJKAS_clean_linker_0, # of connection points: 2
#     Edge 96, Type (0, 1), BuildingBlock: ZUJKAS_clean_linker_0, # of connection points: 2
#     Edge 97, Type (0, 1), BuildingBlock: ZUJKAS_clean_linker_0, # of connection points: 2
#     Edge 98, Type (0, 1), BuildingBlock: ZUJKAS_clean_linker_0, # of connection points: 2
#     Edge 99, Type (0, 1), BuildingBlock: ZUJKAS_clean_linker_0, # of connection points: 2
#     Edge 100, Type (0, 1), BuildingBlock: ZUJKAS_clean_linker_0, # of connection points: 2
#     Edge 101, Type (0, 1), BuildingBlock: ZUJKAS_clean_linker_0, # of connection points: 2
#     Edge 102, Type (0, 1), BuildingBlock: ZUJKAS_clean_linker_0, # of connection points: 2
#     Edge 103, Type (0, 1), BuildingBlock: ZUJKAS_clean_linker_0, # of connection points: 2
#     Edge 104, Type (0, 1), BuildingBlock: ZUJKAS_clean_linker_0, # of connection points: 2
#     Edge 105, Type (0, 1), BuildingBlock: ZUJKAS_clean_linker_0, # of connection points: 2
#     Edge 106, Type (0, 1), BuildingBlock: ZUJKAS_clean_linker_0, # of connection points: 2
#     Edge 107, Type (0, 1), BuildingBlock: ZUJKAS_clean_linker_0, # of connection points: 2
#     Edge 108, Type (0, 1), BuildingBlock: ZUJKAS_clean_linker_0, # of connection points: 2
#     Edge 109, Type (0, 1), BuildingBlock: ZUJKAS_clean_linker_0, # of connection points: 2
#     Edge 110, Type (0, 1), BuildingBlock: ZUJKAS_clean_linker_0, # of connection points: 2
#     Edge 111, Type (0, 1), BuildingBlock: ZUJKAS_clean_linker_0, # of connection points: 2
#     Edge 112, Type (0, 1), BuildingBlock: ZUJKAS_clean_linker_0, # of connection points: 2
#     Edge 113, Type (0, 1), BuildingBlock: ZUJKAS_clean_linker_0, # of connection points: 2
#     Edge 114, Type (0, 1), BuildingBlock: ZUJKAS_clean_linker_0, # of connection points: 2
#     Edge 115, Type (0, 1), BuildingBlock: ZUJKAS_clean_linker_0, # of connection points: 2
#     Edge 116, Type (0, 1), BuildingBlock: ZUJKAS_clean_linker_0, # of connection points: 2
#     Edge 117, Type (0, 1), BuildingBlock: ZUJKAS_clean_linker_0, # of connection points: 2
#     Edge 118, Type (0, 1), BuildingBlock: ZUJKAS_clean_linker_0, # of connection points: 2
#     Edge 119, Type (0, 1), BuildingBlock: ZUJKAS_clean_linker_0, # of connection points: 2
#     Edge 120, Type (0, 1), BuildingBlock: ZUJKAS_clean_linker_0, # of connection points: 2
#     Edge 121, Type (0, 1), BuildingBlock: ZUJKAS_clean_linker_0, # of connection points: 2
#     Edge 122, Type (0, 1), BuildingBlock: ZUJKAS_clean_linker_0, # of connection points: 2
#     Edge 123, Type (0, 1), BuildingBlock: ZUJKAS_clean_linker_0, # of connection points: 2
#     Edge 124, Type (0, 1), BuildingBlock: ZUJKAS_clean_linker_0, # of connection points: 2
#     Edge 125, Type (0, 1), BuildingBlock: ZUJKAS_clean_linker_0, # of connection points: 2
#     Edge 126, Type (0, 1), BuildingBlock: ZUJKAS_clean_linker_0, # of connection points: 2
#     Edge 127, Type (0, 1), BuildingBlock: ZUJKAS_clean_linker_0, # of connection points: 2
#     Edge 128, Type (0, 1), BuildingBlock: ZUJKAS_clean_linker_0, # of connection points: 2
#     Edge 129, Type (0, 1), BuildingBlock: ZUJKAS_clean_linker_0, # of connection points: 2
#     Edge 130, Type (0, 1), BuildingBlock: ZUJKAS_clean_linker_0, # of connection points: 2
#     Edge 131, Type (0, 1), BuildingBlock: ZUJKAS_clean_linker_0, # of connection points: 2
#     Edge 132, Type (0, 1), BuildingBlock: ZUJKAS_clean_linker_0, # of connection points: 2
#     Edge 133, Type (0, 1), BuildingBlock: ZUJKAS_clean_linker_0, # of connection points: 2
#     Edge 134, Type (0, 1), BuildingBlock: ZUJKAS_clean_linker_0, # of connection points: 2
#     Edge 135, Type (0, 1), BuildingBlock: ZUJKAS_clean_linker_0, # of connection points: 2
# Relax obj value: 0.172
# Max RMSD: 0.272
# Mean RMSD: 0.193
data_MOF--net-gar--node1-UXUYUI_clean_sbu_0--node2-INOVEN_clean_sbu_0--edge1-ZUJKAS_clean_linker_0
_symmetry_space_group_name_H-M    P1
_symmetry_Int_Tables_number       1
_symmetry_cell_setting            triclinic
loop_
_symmetry_equiv_pos_as_xyz
'x, y, z'
_cell_length_a     90.319209
_cell_length_b     85.625999
_cell_length_c     85.799453
_cell_angle_alpha  98.39675
_cell_angle_beta   94.758748
_cell_angle_gamma 102.44133
loop_
_atom_site_label
_atom_site_type_symbol
_atom_site_fract_x
_atom_site_fract_y
_atom_site_fract_z
_atom_type_partial_charge
Li0 Li 0.06349 0.30391 0.36313 0.0
Li1 Li 0.07771 0.32057 0.38628 0.0
Li2 Li 0.09085 0.30938 0.36553 0.0
Li3 Li 0.07542 0.29171 0.38272 0.0
C4 C 0.07709 0.33482 0.35367 0.0
N5 N 0.07532 0.3551 0.33163 0.0
C6 C 0.07137 0.34868 0.35736 0.0
C7 C 0.08201 0.33136 0.33879 0.0
C8 C 0.07053 0.35875 0.34605 0.0
C9 C 0.081 0.34174 0.32781 0.0
C10 C 0.0469 0.30969 0.38896 0.0
C11 C 0.0256 0.31062 0.40398 0.0
N12 N 0.02261 0.32291 0.39676 0.0
C13 C 0.04361 0.32231 0.38168 0.0
C14 C 0.03782 0.30377 0.40019 0.0
C15 C 0.03129 0.32884 0.38577 0.0
C16 C 0.0345 0.28626 0.35109 0.0
N17 N 0.04529 0.29919 0.34881 0.0
C18 C 0.02904 0.30374 0.3274 0.0
C19 C 0.04288 0.30785 0.33717 0.0
C20 C 0.01762 0.29048 0.32954 0.0
C21 C 0.02059 0.28154 0.34145 0.0
H22 H 0.03672 0.27962 0.3605 0.0
H23 H 0.05149 0.31812 0.33555 0.0
C24 C 0.08772 0.35349 0.39791 0.0
N25 N 0.07942 0.33943 0.40128 0.0
C26 C 0.08837 0.36815 0.4077 0.0
C27 C 0.07254 0.35342 0.42467 0.0
C28 C 0.07222 0.33903 0.41454 0.0
C29 C 0.08042 0.36825 0.42108 0.0
H30 H 0.0935 0.35332 0.38736 0.0
H31 H 0.06599 0.32759 0.41708 0.0
C32 C 0.06823 0.27719 0.3466 0.0
N33 N 0.05107 0.25614 0.32074 0.0
C34 C 0.05921 0.26233 0.3486 0.0
C35 C 0.06872 0.28124 0.33142 0.0
C36 C 0.05058 0.25187 0.33538 0.0
C37 C 0.05989 0.27047 0.31851 0.0
C38 C 0.10174 0.31739 0.40315 0.0
C39 C 0.11406 0.33063 0.40389 0.0
C40 C 0.09643 0.31311 0.41714 0.0
C41 C 0.12083 0.33949 0.41869 0.0
C42 C 0.10352 0.32227 0.43171 0.0
N43 N 0.11546 0.33517 0.43217 0.0
C44 C 0.11643 0.32852 0.3561 0.0
C45 C 0.11095 0.30061 0.34474 0.0
C46 C 0.12849 0.33192 0.34707 0.0
N47 N 0.10797 0.3131 0.35468 0.0
C48 C 0.1229 0.30344 0.3355 0.0
C49 C 0.13177 0.31929 0.33653 0.0
H50 H 0.11354 0.3382 0.36398 0.0
H51 H 0.10391 0.2885 0.34386 0.0
C52 C 0.05886 0.26601 0.39458 0.0
N53 N 0.0733 0.27359 0.3928 0.0
C54 C 0.05638 0.25293 0.40271 0.0
C55 C 0.08372 0.25561 0.4068 0.0
C56 C 0.08566 0.26867 0.39857 0.0
C57 C 0.06891 0.24766 0.40905 0.0
H58 H 0.04928 0.27029 0.38982 0.0
H59 H 0.097 0.27504 0.39696 0.0
O60 O 0.0782 0.32499 0.36474 0.0
O61 O 0.05905 0.30323 0.38535 0.0
O62 O 0.07649 0.28774 0.35945 0.0
O63 O 0.09467 0.30885 0.38878 0.0
H64 H 0.06761 0.35166 0.36884 0.0
H65 H 0.08647 0.32075 0.33568 0.0
H66 H 0.0661 0.36948 0.34875 0.0
H67 H 0.08472 0.33917 0.31624 0.0
H68 H 0.0185 0.30618 0.41268 0.0
H69 H 0.05046 0.327 0.37295 0.0
H70 H 0.04026 0.29404 0.406 0.0
H71 H 0.02862 0.33862 0.38023 0.0
H72 H 0.02716 0.31121 0.31862 0.0
H73 H 0.0122 0.27113 0.34343 0.0
H74 H 0.09449 0.37931 0.40445 0.0
H75 H 0.06649 0.35299 0.43504 0.0
H76 H 0.05877 0.25896 0.36025 0.0
H77 H 0.0757 0.29263 0.32965 0.0
H78 H 0.04345 0.24038 0.33677 0.0
H79 H 0.06005 0.27352 0.30671 0.0
H80 H 0.11825 0.33411 0.39315 0.0
H81 H 0.08682 0.30297 0.41674 0.0
H82 H 0.13033 0.34982 0.41946 0.0
H83 H 0.09949 0.31917 0.44264 0.0
H84 H 0.13499 0.34431 0.34811 0.0
H85 H 0.12525 0.29332 0.32775 0.0
H86 H 0.0448 0.24729 0.40436 0.0
H87 H 0.09367 0.2518 0.41137 0.0
Li88 Li 1.00053 0.77671 0.64245 0.0
Li89 Li 0.012 0.76688 0.66447 0.0
Li90 Li 0.99789 0.74738 0.64077 0.0
Li91 Li 0.98478 0.7609 0.66023 0.0
C92 C 0.02557 0.76641 0.63014 0.0
N93 N 0.04316 0.77003 0.60545 0.0
C94 C 0.04089 0.77477 0.63319 0.0
C95 C 0.0193 0.75964 0.61455 0.0
C96 C 0.04957 0.77655 0.62054 0.0
C97 C 0.02834 0.76166 0.60223 0.0
C98 C 0.0064 0.79415 0.67803 0.0
C99 C 0.01415 0.80232 0.70616 0.0
N100 N 0.02228 0.81681 0.7035 0.0
C101 C 0.01471 0.80919 0.67559 0.0
C102 C 0.00599 0.79074 0.69346 0.0
C103 C 0.02271 0.82046 0.68861 0.0
C104 C 0.99098 0.79712 0.62247 0.0
N105 N 1.00312 0.79401 0.6309 0.0
C106 C 0.02018 0.81583 0.62267 0.0
C107 C 0.01747 0.80319 0.63135 0.0
C108 C 0.00795 0.8191 0.61351 0.0
C109 C 0.99316 0.80963 0.61355 0.0
H110 H 0.97964 0.7898 0.62259 0.0
H111 H 0.02682 0.80079 0.6386 0.0
C112 C 0.03039 0.76153 0.69032 0.0
N113 N 0.02935 0.77161 0.67965 0.0
C114 C 0.04339 0.76449 0.70124 0.0
C115 C 0.05392 0.78826 0.69004 0.0
C116 C 0.04069 0.78484 0.67936 0.0
C117 C 0.05544 0.77788 0.70103 0.0
H118 H 0.02129 0.75097 0.69011 0.0
H119 H 0.03951 0.79261 0.6707 0.0
C120 C 0.97182 0.75295 0.62306 0.0
N121 N 0.95208 0.74055 0.59549 0.0
C122 C 0.95718 0.74365 0.62367 0.0
C123 C 0.97628 0.75621 0.60842 0.0
C124 C 0.94741 0.73741 0.60961 0.0
C125 C 0.96618 0.74976 0.59462 0.0
C126 C 0.99003 0.73452 0.67157 0.0
C127 C 0.98307 0.71883 0.66374 0.0
C128 C 0.98885 0.73881 0.68771 0.0
C129 C 0.97486 0.70776 0.67213 0.0
C130 C 0.98051 0.7274 0.69567 0.0
N131 N 0.97374 0.71225 0.68778 0.0
C132 C 0.01188 0.72364 0.62888 0.0
C133 C 0.98592 0.71816 0.61802 0.0
C134 C 0.01368 0.7093 0.62014 0.0
N135 N 0.99822 0.72782 0.6276 0.0
C136 C 0.9872 0.70368 0.60901 0.0
C137 C 1.00124 0.69912 0.61002 0.0
H138 H 0.02137 0.73146 0.63683 0.0
H139 H 0.97508 0.72152 0.61747 0.0
C140 C 0.96542 0.77111 0.68134 0.0
N141 N 0.96708 0.75838 0.67073 0.0
C142 C 0.95325 0.76934 0.6904 0.0
C143 C 0.94451 0.74149 0.67711 0.0
C144 C 0.95686 0.74381 0.66833 0.0
C145 C 0.94269 0.75433 0.68841 0.0
H146 H 0.9736 0.78261 0.68286 0.0
H147 H 0.95848 0.73388 0.65984 0.0
O148 O 0.01691 0.76463 0.64242 0.0
O149 O 0.9987 0.78284 0.6654 0.0
O150 O 0.98151 0.75917 0.63677 0.0
O151 O 0.99807 0.74555 0.66352 0.0
H152 H 0.04602 0.77992 0.64519 0.0
H153 H 0.00764 0.75272 0.61198 0.0
H154 H 0.0614 0.78311 0.62274 0.0
H155 H 0.02359 0.75651 0.59011 0.0
H156 H 0.01402 0.79978 0.71814 0.0
H157 H 0.01503 0.81212 0.66377 0.0
H158 H 0.99955 0.77922 0.69558 0.0
H159 H 0.02926 0.83211 0.68688 0.0
H160 H 0.03169 0.82308 0.62328 0.0
H161 H 0.98342 0.8117 0.60659 0.0
H162 H 0.04425 0.75603 0.70931 0.0
H163 H 0.06294 0.79874 0.68956 0.0
H164 H 0.95339 0.74121 0.63486 0.0
H165 H 0.98733 0.7638 0.60769 0.0
H166 H 0.9361 0.7301 0.60993 0.0
H167 H 0.96952 0.75216 0.58322 0.0
H168 H 0.9839 0.71523 0.6513 0.0
H169 H 0.99418 0.75086 0.69399 0.0
H170 H 0.96935 0.6956 0.66619 0.0
H171 H 0.97942 0.73061 0.70812 0.0
H172 H 0.02462 0.70608 0.6215 0.0
H173 H 0.97735 0.69618 0.60131 0.0
H174 H 0.95204 0.77963 0.69875 0.0
H175 H 0.93663 0.72972 0.67528 0.0
Li176 Li 0.56233 0.80547 0.86572 0.0
Li177 Li 0.57625 0.82521 0.88866 0.0
Li178 Li 0.58974 0.81066 0.86936 0.0
Li179 Li 0.57459 0.79652 0.88824 0.0
C180 C 0.57992 0.83475 0.85384 0.0
N181 N 0.58601 0.85211 0.82944 0.0
C182 C 0.58028 0.85133 0.85605 0.0
C183 C 0.58276 0.82704 0.83925 0.0
C184 C 0.58332 0.85988 0.84355 0.0
C185 C 0.58582 0.83601 0.82707 0.0
C186 C 0.54783 0.81469 0.896 0.0
C187 C 0.53897 0.82409 0.92063 0.0
N188 N 0.52823 0.82968 0.91244 0.0
C189 C 0.53663 0.82042 0.88781 0.0
C190 C 0.54895 0.81643 0.91253 0.0
C191 C 0.52686 0.828 0.89634 0.0
C192 C 0.53325 0.78768 0.85391 0.0
N193 N 0.54455 0.79977 0.85094 0.0
C194 C 0.52931 0.80297 0.82808 0.0
C195 C 0.54289 0.80742 0.83833 0.0
C196 C 0.51737 0.79058 0.83092 0.0
C197 C 0.51954 0.78276 0.84393 0.0
H198 H 0.53485 0.78198 0.86417 0.0
H199 H 0.5519 0.81719 0.83637 0.0
C200 C 0.58718 0.85108 0.91459 0.0
N201 N 0.57676 0.84528 0.90155 0.0
C202 C 0.58677 0.86541 0.92447 0.0
C203 C 0.5652 0.86773 0.90703 0.0
C204 C 0.56613 0.85346 0.89744 0.0
C205 C 0.57552 0.87381 0.92086 0.0
H206 H 0.59578 0.84459 0.91739 0.0
H207 H 0.55821 0.84875 0.8868 0.0
C208 C 0.56654 0.7764 0.85457 0.0
N209 N 0.548 0.75114 0.83306 0.0
C210 C 0.55771 0.76313 0.85988 0.0
C211 C 0.56609 0.77668 0.83829 0.0
C212 C 0.54838 0.75051 0.84883 0.0
C213 C 0.5566 0.76384 0.82761 0.0
C214 C 0.60196 0.81357 0.90633 0.0
C215 C 0.61735 0.81337 0.90588 0.0
C216 C 0.59561 0.81285 0.92058 0.0
C217 C 0.62617 0.81254 0.91978 0.0
C218 C 0.60477 0.81194 0.9342 0.0
N219 N 0.61975 0.81184 0.93353 0.0
C220 C 0.61745 0.82715 0.86086 0.0
C221 C 0.60845 0.79983 0.84801 0.0
C222 C 0.62966 0.82921 0.85182 0.0
N223 N 0.60715 0.81267 0.85868 0.0
C224 C 0.62038 0.80138 0.83864 0.0
C225 C 0.63114 0.81625 0.84041 0.0
H226 H 0.61599 0.83715 0.86942 0.0
H227 H 0.59999 0.78851 0.8465 0.0
C228 C 0.55818 0.77543 0.90544 0.0
N229 N 0.57225 0.78001 0.90079 0.0
C230 C 0.555 0.76274 0.91399 0.0
C231 C 0.58091 0.75967 0.91287 0.0
C232 C 0.58359 0.77246 0.90426 0.0
C233 C 0.56642 0.75466 0.91779 0.0
H234 H 0.54928 0.78139 0.90216 0.0
H235 H 0.59463 0.77627 0.90023 0.0
O236 O 0.57678 0.8262 0.86593 0.0
O237 O 0.55763 0.80737 0.88788 0.0
O238 O 0.57547 0.78906 0.86525 0.0
O239 O 0.5933 0.81483 0.89292 0.0
H240 H 0.57817 0.85753 0.86727 0.0
H241 H 0.58254 0.81425 0.83733 0.0
H242 H 0.58354 0.8727 0.84507 0.0
H243 H 0.58802 0.83017 0.81572 0.0
H244 H 0.53976 0.82558 0.93344 0.0
H245 H 0.53563 0.81927 0.87502 0.0
H246 H 0.55743 0.81192 0.91906 0.0
H247 H 0.51822 0.8326 0.89016 0.0
H248 H 0.528 0.80954 0.81838 0.0
H249 H 0.51067 0.77309 0.84649 0.0
H250 H 0.59517 0.86984 0.93482 0.0
H251 H 0.55624 0.87368 0.90382 0.0
H252 H 0.55792 0.76262 0.8724 0.0
H253 H 0.57288 0.78675 0.83391 0.0
H254 H 0.54142 0.74024 0.8528 0.0
H255 H 0.55606 0.76399 0.81499 0.0
H256 H 0.62245 0.81401 0.89494 0.0
H257 H 0.58374 0.81304 0.92112 0.0
H258 H 0.63812 0.8125 0.91964 0.0
H259 H 0.6 0.81137 0.94531 0.0
H260 H 0.63782 0.84081 0.85374 0.0
H261 H 0.62092 0.79113 0.82985 0.0
H262 H 0.54359 0.75905 0.91723 0.0
H263 H 0.59006 0.75382 0.91565 0.0
Li264 Li 0.4985 0.27512 0.13851 0.0
Li265 Li 0.50945 0.26364 0.15993 0.0
Li266 Li 0.49685 0.24663 0.13584 0.0
Li267 Li 0.48227 0.25826 0.15367 0.0
C268 C 0.52203 0.26006 0.12498 0.0
N269 N 0.53429 0.25058 0.09766 0.0
C270 C 0.53541 0.25437 0.12592 0.0
C271 C 0.51492 0.26098 0.11014 0.0
C272 C 0.54141 0.24962 0.11197 0.0
C273 C 0.52129 0.25614 0.09648 0.0
C274 C 0.50425 0.29503 0.16802 0.0
C275 C 0.50571 0.32091 0.18429 0.0
N276 N 0.52029 0.32611 0.1811 0.0
C277 C 0.51926 0.30062 0.16492 0.0
C278 C 0.49742 0.30524 0.17779 0.0
C279 C 0.52717 0.31638 0.17163 0.0
C280 C 0.48955 0.30026 0.1247 0.0
N281 N 0.50144 0.29359 0.12845 0.0
C282 C 0.51863 0.31361 0.11799 0.0
C283 C 0.51579 0.30001 0.12535 0.0
C284 C 0.5066 0.32081 0.11389 0.0
C285 C 0.49189 0.31399 0.11737 0.0
H286 H 0.47828 0.29493 0.12745 0.0
H287 H 0.52507 0.29454 0.12858 0.0
C288 C 0.53622 0.25772 0.1727 0.0
N289 N 0.52585 0.26668 0.17606 0.0
C290 C 0.54948 0.2599 0.18305 0.0
C291 C 0.5406 0.27969 0.20075 0.0
C292 C 0.52751 0.27717 0.18997 0.0
C293 C 0.55193 0.27128 0.19709 0.0
H294 H 0.53423 0.249 0.16186 0.0
H295 H 0.51885 0.28379 0.19258 0.0
C296 C 0.46709 0.24652 0.12351 0.0
N297 N 0.44048 0.22451 0.10987 0.0
C298 C 0.4636 0.23103 0.12756 0.0
C299 C 0.45704 0.25082 0.11251 0.0
C300 C 0.4501 0.22008 0.12054 0.0
C301 C 0.44365 0.23952 0.10574 0.0
C302 C 0.4935 0.23847 0.17238 0.0
C303 C 0.49328 0.2226 0.17468 0.0
C304 C 0.49232 0.25008 0.18521 0.0
C305 C 0.49186 0.21859 0.18978 0.0
C306 C 0.49092 0.24559 0.20012 0.0
N307 N 0.49072 0.23007 0.20208 0.0
C308 C 0.50606 0.21803 0.12802 0.0
C309 C 0.49167 0.22451 0.10645 0.0
C310 C 0.50797 0.2041 0.11857 0.0
N311 N 0.49803 0.22785 0.12184 0.0
C312 C 0.49322 0.21064 0.09659 0.0
C313 C 0.50151 0.20028 0.10264 0.0
H314 H 0.51106 0.22113 0.14028 0.0
H315 H 0.48555 0.23271 0.10181 0.0
C316 C 0.45794 0.26821 0.16711 0.0
N317 N 0.46375 0.25509 0.16272 0.0
C318 C 0.44516 0.26668 0.17533 0.0
C319 C 0.44443 0.23809 0.17397 0.0
C320 C 0.45715 0.24015 0.1657 0.0
C321 C 0.43843 0.25151 0.17907 0.0
H322 H 0.46348 0.27991 0.16455 0.0
H323 H 0.46198 0.2299 0.16204 0.0
O324 O 0.51566 0.26431 0.13845 0.0
O325 O 0.49621 0.27967 0.1616 0.0
O326 O 0.48023 0.25752 0.13018 0.0
O327 O 0.49484 0.24244 0.15759 0.0
H328 H 0.54113 0.25361 0.13725 0.0
H329 H 0.50443 0.26513 0.10916 0.0
H330 H 0.55174 0.24515 0.11252 0.0
H331 H 0.51585 0.2567 0.08492 0.0
H332 H 0.50056 0.32893 0.19189 0.0
H333 H 0.52481 0.29285 0.15755 0.0
H334 H 0.48583 0.30108 0.18036 0.0
H335 H 0.53879 0.32085 0.16934 0.0
H336 H 0.5301 0.31827 0.11532 0.0
H337 H 0.48232 0.31927 0.1146 0.0
H338 H 0.5578 0.25289 0.18004 0.0
H339 H 0.54208 0.28849 0.21152 0.0
H340 H 0.47127 0.22743 0.13597 0.0
H341 H 0.45959 0.26277 0.10924 0.0
H342 H 0.44727 0.20804 0.12357 0.0
H343 H 0.43577 0.24269 0.09721 0.0
H344 H 0.49417 0.21347 0.16487 0.0
H345 H 0.4924 0.2624 0.1837 0.0
H346 H 0.49166 0.20635 0.19172 0.0
H347 H 0.48997 0.25445 0.21014 0.0
H348 H 0.51432 0.19634 0.12372 0.0
H349 H 0.48825 0.20819 0.0843 0.0
H350 H 0.44091 0.27734 0.17917 0.0
H351 H 0.43942 0.22617 0.17646 0.0
Li352 Li 0.06602 0.82043 0.11382 0.0
Li353 Li 0.07961 0.80617 0.1329 0.0
Li354 Li 0.06276 0.79064 0.10939 0.0
Li355 Li 0.05123 0.80255 0.13186 0.0
C356 C 0.09063 0.80687 0.09826 0.0
N357 N 0.10861 0.80499 0.07385 0.0
C358 C 0.10394 0.80117 0.10019 0.0
C359 C 0.0865 0.8117 0.08396 0.0
C360 C 0.11286 0.80029 0.08769 0.0
C361 C 0.09573 0.81063 0.07175 0.0
C362 C 0.07458 0.83595 0.14919 0.0
C363 C 0.0783 0.85001 0.1762 0.0
N364 N 0.08904 0.86206 0.17221 0.0
C365 C 0.08557 0.84852 0.14532 0.0
C366 C 0.07081 0.83673 0.16472 0.0
C367 C 0.09278 0.8616 0.15714 0.0
C368 C 0.05216 0.84312 0.10127 0.0
N369 N 0.06599 0.83957 0.10423 0.0
C370 C 0.0781 0.8626 0.09321 0.0
C371 C 0.07887 0.84902 0.10038 0.0
C372 C 0.06392 0.86654 0.08993 0.0
C373 C 0.05086 0.85654 0.09415 0.0
H374 H 0.04208 0.83547 0.10447 0.0
H375 H 0.08976 0.84597 0.10278 0.0
C376 C 0.10199 0.79106 0.14402 0.0
N377 N 0.09844 0.80583 0.1456 0.0
C378 C 0.11532 0.78898 0.15217 0.0
C379 C 0.12142 0.81743 0.16339 0.0
C380 C 0.10788 0.81895 0.15508 0.0
C381 C 0.12532 0.80226 0.16203 0.0
H382 H 0.09447 0.78083 0.13626 0.0
H383 H 0.10501 0.83062 0.15619 0.0
C384 C 0.03649 0.79479 0.09623 0.0
N385 N 0.01636 0.77708 0.07057 0.0
C386 C 0.02361 0.78341 0.09859 0.0
C387 C 0.03907 0.79729 0.08086 0.0
C388 C 0.01358 0.77454 0.08545 0.0
C389 C 0.02877 0.78818 0.06803 0.0
C390 C 0.06296 0.77893 0.14462 0.0
C391 C 0.05895 0.76206 0.14341 0.0
C392 C 0.06645 0.7887 0.15956 0.0
C393 C 0.05842 0.75524 0.15724 0.0
C394 C 0.06581 0.78142 0.17312 0.0
N395 N 0.06184 0.76498 0.17169 0.0
C396 C 0.06858 0.76818 0.08268 0.0
C397 C 0.04839 0.75839 0.09719 0.0
C398 C 0.06683 0.75269 0.07379 0.0
N399 N 0.05957 0.77071 0.09433 0.0
C400 C 0.04611 0.74278 0.08846 0.0
C401 C 0.05561 0.73968 0.07679 0.0
H402 H 0.07745 0.77795 0.08052 0.0
H403 H 0.04153 0.76058 0.10668 0.0
C404 C 0.02883 0.81405 0.14845 0.0
N405 N 0.03372 0.80042 0.14344 0.0
C406 C 0.01555 0.8131 0.15595 0.0
C407 C 0.01263 0.78409 0.15322 0.0
C408 C 0.02594 0.7856 0.1457 0.0
C409 C 0.00717 0.79795 0.15835 0.0
H410 H 0.03516 0.82568 0.14641 0.0
H411 H 0.02985 0.77488 0.14135 0.0
O412 O 0.08189 0.80802 0.11044 0.0
O413 O 0.06729 0.82313 0.13777 0.0
O414 O 0.04654 0.80344 0.10892 0.0
O415 O 0.06344 0.78577 0.13118 0.0
H416 H 0.10733 0.79748 0.11122 0.0
H417 H 0.07627 0.81617 0.08229 0.0
H418 H 0.12318 0.79589 0.089 0.0
H419 H 0.09266 0.81429 0.0606 0.0
H420 H 0.07554 0.85075 0.18828 0.0
H421 H 0.08861 0.84808 0.13337 0.0
H422 H 0.06215 0.82723 0.16785 0.0
H423 H 0.10138 0.87138 0.15435 0.0
H424 H 0.08848 0.86978 0.09006 0.0
H425 H 0.03972 0.85915 0.09215 0.0
H426 H 0.11789 0.77711 0.15051 0.0
H427 H 0.12868 0.82801 0.17094 0.0
H428 H 0.02145 0.78137 0.11043 0.0
H429 H 0.04893 0.80614 0.07886 0.0
H430 H 1.00361 0.76563 0.08709 0.0
H431 H 0.03065 0.78993 0.05605 0.0
H432 H 0.05625 0.75432 0.13191 0.0
H433 H 0.06968 0.80175 0.16067 0.0
H434 H 0.05531 0.7422 0.1565 0.0
H435 H 0.06849 0.78885 0.18477 0.0
H436 H 0.07433 0.75087 0.06482 0.0
H437 H 0.03745 0.73308 0.09131 0.0
H438 H 0.01191 0.82413 0.15984 0.0
H439 H 0.00647 0.77214 0.15461 0.0
Li440 Li 0.51107 0.78024 0.41515 0.0
Li441 Li 0.49458 0.76443 0.39199 0.0
Li442 Li 0.50846 0.75075 0.41202 0.0
Li443 Li 0.52285 0.76779 0.39388 0.0
C444 C 0.48428 0.76445 0.4276 0.0
N445 N 0.46831 0.76709 0.45361 0.0
C446 C 0.47125 0.77079 0.42688 0.0
C447 C 0.48905 0.75924 0.44147 0.0
C448 C 0.46338 0.77209 0.44018 0.0
C449 C 0.48085 0.76073 0.45451 0.0
C450 C 0.50439 0.79707 0.39052 0.0
C451 C 0.50317 0.82011 0.37771 0.0
N452 N 0.49118 0.82249 0.38562 0.0
C453 C 0.49205 0.79974 0.3985 0.0
C454 C 0.51 0.80733 0.38003 0.0
C455 C 0.48554 0.81265 0.39588 0.0
C456 C 0.52434 0.81309 0.42567 0.0
N457 N 0.5141 0.80061 0.42971 0.0
C458 C 0.50769 0.81881 0.45069 0.0
C459 C 0.50604 0.80315 0.44219 0.0
C460 C 0.51783 0.83196 0.44642 0.0
C461 C 0.52643 0.82886 0.4339 0.0
H462 H 0.53057 0.81084 0.41566 0.0
H463 H 0.49808 0.79322 0.44544 0.0
C464 C 0.46223 0.75616 0.38293 0.0
N465 N 0.47587 0.76328 0.37855 0.0
C466 C 0.4485 0.75746 0.37488 0.0
C467 C 0.46306 0.77305 0.3577 0.0
C468 C 0.47648 0.77129 0.36595 0.0
C469 C 0.4488 0.76633 0.36229 0.0
H470 H 0.462 0.74995 0.39305 0.0
H471 H 0.48741 0.77686 0.36262 0.0
C472 C 0.53735 0.77838 0.42888 0.0
N473 N 0.55646 0.8001 0.45305 0.0
C474 C 0.55006 0.78928 0.42543 0.0
C475 C 0.53443 0.77842 0.44463 0.0
C476 C 0.55957 0.80019 0.43781 0.0
C477 C 0.5442 0.78952 0.45668 0.0
C478 C 0.50869 0.73919 0.37386 0.0
C479 C 0.51221 0.72399 0.37287 0.0
C480 C 0.50795 0.74642 0.36032 0.0
C481 C 0.51496 0.71625 0.35826 0.0
C482 C 0.5108 0.73829 0.34594 0.0
N483 N 0.51422 0.72351 0.34522 0.0
C484 C 0.49628 0.71855 0.41868 0.0
C485 C 0.52071 0.73192 0.43201 0.0
C486 C 0.49668 0.70478 0.42566 0.0
N487 N 0.50822 0.73176 0.42191 0.0
C488 C 0.52155 0.71849 0.4393 0.0
C489 C 0.5095 0.70454 0.43611 0.0
H490 H 0.4865 0.71864 0.41053 0.0
H491 H 0.5301 0.7425 0.43438 0.0
C492 C 0.5465 0.78452 0.37836 0.0
N493 N 0.54043 0.76987 0.38232 0.0
C494 C 0.55969 0.78676 0.37067 0.0
C495 C 0.56015 0.75875 0.37115 0.0
C496 C 0.54703 0.7571 0.37898 0.0
C497 C 0.56673 0.77376 0.36695 0.0
H498 H 0.54123 0.79458 0.38142 0.0
H499 H 0.54225 0.74567 0.38259 0.0
O500 O 0.49206 0.76293 0.41465 0.0
O501 O 0.51094 0.78446 0.39288 0.0
O502 O 0.52768 0.76791 0.41688 0.0
O503 O 0.50622 0.74707 0.38809 0.0
H504 H 0.46723 0.77467 0.41619 0.0
H505 H 0.49897 0.75413 0.4422 0.0
H506 H 0.45333 0.77705 0.43982 0.0
H507 H 0.48446 0.75682 0.46535 0.0
H508 H 0.50738 0.82813 0.36961 0.0
H509 H 0.48759 0.79195 0.40665 0.0
H510 H 0.51948 0.80539 0.37367 0.0
H511 H 0.47599 0.81485 0.40199 0.0
H512 H 0.50097 0.82062 0.4604 0.0
H513 H 0.53427 0.83863 0.43006 0.0
H514 H 0.43779 0.75214 0.37889 0.0
H515 H 0.46385 0.77979 0.34794 0.0
H516 H 0.55247 0.78943 0.41331 0.0
H517 H 0.52464 0.77009 0.44752 0.0
H518 H 0.5694 0.80876 0.43531 0.0
H519 H 0.54202 0.78976 0.46891 0.0
H520 H 0.51286 0.71829 0.38329 0.0
H521 H 0.5054 0.75826 0.36097 0.0
H522 H 0.51773 0.70449 0.3573 0.0
H523 H 0.51034 0.74376 0.33537 0.0
H524 H 0.48717 0.69432 0.42263 0.0
H525 H 0.53157 0.71913 0.44744 0.0
H526 H 0.56429 0.79853 0.3676 0.0
H527 H 0.56529 0.74846 0.36876 0.0
Li528 Li 0.5645 0.31979 0.61193 0.0
Li529 Li 0.57962 0.30536 0.63066 0.0
Li530 Li 0.5617 0.29012 0.60749 0.0
Li531 Li 0.55141 0.30244 0.62987 0.0
C532 C 0.58534 0.30138 0.59368 0.0
N533 N 0.59364 0.28783 0.56547 0.0
C534 C 0.59692 0.29288 0.59382 0.0
C535 C 0.57803 0.30308 0.57923 0.0
C536 C 0.60094 0.2861 0.57942 0.0
C537 C 0.58239 0.29612 0.56509 0.0
C538 C 0.56379 0.3293 0.64986 0.0
C539 C 0.5614 0.32916 0.67761 0.0
N540 N 0.5539 0.34136 0.67775 0.0
C541 C 0.55611 0.34185 0.65026 0.0
C542 C 0.56651 0.32291 0.66362 0.0
C543 C 0.55119 0.34778 0.66449 0.0
C544 C 0.55099 0.34387 0.60167 0.0
N545 N 0.56427 0.33881 0.60244 0.0
C546 C 0.57603 0.36042 0.58943 0.0
C547 C 0.57669 0.34676 0.59648 0.0
C548 C 0.56245 0.36599 0.58846 0.0
C549 C 0.54982 0.35743 0.59472 0.0
H550 H 0.54124 0.33727 0.60639 0.0
H551 H 0.58712 0.34249 0.5972 0.0
C552 C 0.60294 0.29077 0.64001 0.0
N553 N 0.59845 0.305 0.64271 0.0
C554 C 0.61639 0.28898 0.64812 0.0
C555 C 0.6205 0.31658 0.66172 0.0
C556 C 0.6069 0.31783 0.65333 0.0
C557 C 0.62545 0.30198 0.65916 0.0
H558 H 0.59597 0.28072 0.63158 0.0
H559 H 0.6031 0.32904 0.65527 0.0
C560 C 0.53264 0.29434 0.5978 0.0
N561 N 0.50647 0.27728 0.57849 0.0
C562 C 0.52319 0.2811 0.60251 0.0
C563 C 0.52873 0.29903 0.58337 0.0
C564 C 0.51002 0.27259 0.59255 0.0
C565 C 0.51546 0.29022 0.57375 0.0
C566 C 0.5595 0.27256 0.63625 0.0
C567 C 0.54817 0.25919 0.62857 0.0
C568 C 0.56679 0.27218 0.65116 0.0
C569 C 0.54428 0.24565 0.636 0.0
C570 C 0.56257 0.25841 0.6582 0.0
N571 N 0.5515 0.24554 0.65053 0.0
C572 C 0.56879 0.26084 0.59736 0.0
C573 C 0.55037 0.26586 0.57862 0.0
C574 C 0.56823 0.24572 0.58843 0.0
N575 N 0.55979 0.27048 0.59252 0.0
C576 C 0.54939 0.25073 0.56928 0.0
C577 C 0.55832 0.24036 0.57424 0.0
H578 H 0.57627 0.26483 0.60838 0.0
H579 H 0.54353 0.2738 0.57478 0.0
C580 C 0.52454 0.31053 0.63976 0.0
N581 N 0.53409 0.30055 0.64207 0.0
C582 C 0.51133 0.30952 0.64739 0.0
C583 C 0.5178 0.28781 0.65952 0.0
C584 C 0.53103 0.28945 0.6519 0.0
C585 C 0.50762 0.29787 0.65732 0.0
H586 H 0.52716 0.31925 0.63187 0.0
H587 H 0.53867 0.28165 0.65373 0.0
O588 O 0.58085 0.30763 0.60761 0.0
O589 O 0.56839 0.32306 0.636 0.0
O590 O 0.54562 0.3028 0.6073 0.0
O591 O 0.56359 0.2859 0.62916 0.0
H592 H 0.60264 0.29142 0.60492 0.0
H593 H 0.56895 0.30953 0.57896 0.0
H594 H 0.60983 0.27941 0.57932 0.0
H595 H 0.57678 0.29725 0.55381 0.0
H596 H 0.56335 0.32429 0.68834 0.0
H597 H 0.55389 0.34686 0.63966 0.0
H598 H 0.57238 0.31312 0.66344 0.0
H599 H 0.54518 0.35745 0.66498 0.0
H600 H 0.58613 0.36666 0.58496 0.0
H601 H 0.53902 0.361 0.59405 0.0
H602 H 0.61951 0.2774 0.6459 0.0
H603 H 0.62714 0.327 0.66997 0.0
H604 H 0.52597 0.27745 0.61372 0.0
H605 H 0.53594 0.3093 0.57961 0.0
H606 H 0.50261 0.26228 0.596 0.0
H607 H 0.51232 0.29365 0.56251 0.0
H608 H 0.54249 0.25921 0.61698 0.0
H609 H 0.57556 0.28244 0.65727 0.0
H610 H 0.53555 0.23521 0.6302 0.0
H611 H 0.56808 0.25796 0.66975 0.0
H612 H 0.57518 0.23812 0.59287 0.0
H613 H 0.54175 0.24718 0.55832 0.0
H614 H 0.50416 0.31784 0.64549 0.0
H615 H 0.51548 0.27845 0.66679 0.0
Li616 Li 0.00943 0.2804 0.91596 0.0
Li617 Li 0.99173 0.26366 0.89198 0.0
Li618 Li 0.00679 0.25039 0.91179 0.0
Li619 Li 0.01973 0.26673 0.89389 0.0
C620 C 0.98085 0.26628 0.92597 0.0
N621 N 0.9611 0.27328 0.9475 0.0
C622 C 0.96904 0.27357 0.92165 0.0
C623 C 0.98244 0.26228 0.94115 0.0
C624 C 0.95923 0.2771 0.93273 0.0
C625 C 0.97239 0.26599 0.95189 0.0
C626 C 0.01671 0.29379 0.88528 0.0
C627 C 0.02462 0.30046 0.86043 0.0
N628 N 0.03566 0.31314 0.86849 0.0
C629 C 0.02812 0.30688 0.89332 0.0
C630 C 0.01492 0.29054 0.8687 0.0
C631 C 0.03758 0.31652 0.88461 0.0
C632 C 0.0253 0.30788 0.93941 0.0
N633 N 0.01177 0.30042 0.93049 0.0
C634 C 1.00124 0.32321 0.93889 0.0
C635 C 0.99988 0.30782 0.93003 0.0
C636 C 0.0151 0.3313 0.94809 0.0
C637 C 0.0272 0.32337 0.94837 0.0
H638 H 0.03482 0.3021 0.93914 0.0
H639 H 0.98954 0.30208 0.92224 0.0
C640 C 0.95975 0.2515 0.87953 0.0
N641 N 0.9727 0.26306 0.87939 0.0
C642 C 0.94587 0.25238 0.8714 0.0
C643 C 0.95893 0.27684 0.86297 0.0
C644 C 0.97246 0.2756 0.87137 0.0
C645 C 0.94532 0.2652 0.86295 0.0
H646 H 0.96013 0.24178 0.88621 0.0
H647 H 0.98271 0.28494 0.87181 0.0
C648 C 0.03326 0.2672 0.931 0.0
N649 N 0.04825 0.26464 0.9596 0.0
C650 C 0.04759 0.26345 0.93155 0.0
C651 C 0.02658 0.26969 0.94499 0.0
C652 C 0.05498 0.26219 0.94613 0.0
C653 C 0.03433 0.26834 0.95933 0.0
C654 C 0.00716 0.23685 0.87545 0.0
C655 C 0.01918 0.2292 0.87766 0.0
C656 C 0.99909 0.23477 0.86039 0.0
C657 C 0.02306 0.21969 0.86466 0.0
C658 C 1.00331 0.22513 0.8477 0.0
N659 N 0.01511 0.21787 0.85008 0.0
C660 C 0.99427 0.22348 0.92761 0.0
C661 C 0.01998 0.22613 0.92261 0.0
C662 C 0.99479 0.2098 0.93473 0.0
N663 N 0.0068 0.2314 0.92177 0.0
C664 C 0.02101 0.2126 0.92963 0.0
C665 C 0.0083 0.20411 0.9358 0.0
H666 H 0.98384 0.22772 0.92668 0.0
H667 H 0.02977 0.23246 0.91779 0.0
C668 C 0.05091 0.2778 0.89084 0.0
N669 N 0.03748 0.26951 0.88221 0.0
C670 C 0.06444 0.28043 0.88376 0.0
C671 C 0.05015 0.26618 0.85888 0.0
C672 C 0.03686 0.264 0.86641 0.0
C673 C 0.06429 0.27442 0.86757 0.0
H674 H 0.05111 0.28253 0.90326 0.0
H675 H 0.02606 0.25795 0.85956 0.0
O676 O 0.99046 0.26257 0.9152 0.0
O677 O 0.00765 0.28392 0.89361 0.0
O678 O 0.02575 0.26816 0.91678 0.0
O679 O 1.00314 0.24617 0.88799 0.0
H680 H 0.96755 0.27662 0.90991 0.0
H681 H 0.99125 0.25625 0.94459 0.0
H682 H 0.95012 0.28286 0.92958 0.0
H683 H 0.97353 0.26302 0.96369 0.0
H684 H 0.02344 0.29802 0.8476 0.0
H685 H 0.02976 0.30948 0.90614 0.0
H686 H 0.00634 0.28026 0.86229 0.0
H687 H 0.04649 0.32666 0.89068 0.0
H688 H 0.99173 0.329 0.93796 0.0
H689 H 0.03811 0.32918 0.95525 0.0
H690 H 0.93568 0.2431 0.87169 0.0
H691 H 0.95905 0.28709 0.8569 0.0
H692 H 0.05288 0.26136 0.92081 0.0
H693 H 0.0156 0.27278 0.94478 0.0
H694 H 0.06605 0.25923 0.94672 0.0
H695 H 0.0293 0.27026 0.97025 0.0
H696 H 0.02557 0.23076 0.88922 0.0
H697 H 0.98973 0.24059 0.85853 0.0
H698 H 0.03241 0.21378 0.86616 0.0
H699 H 0.99721 0.22345 0.83596 0.0
H700 H 0.98461 0.2036 0.93909 0.0
H701 H 0.03177 0.20894 0.93034 0.0
H702 H 0.07488 0.28727 0.89093 0.0
H703 H 0.04934 0.26122 0.84641 0.0
Li704 Li 0.42322 0.03468 0.29089 0.0
Li705 Li 0.40334 0.0211 0.27075 0.0
Li706 Li 0.42811 0.0305 0.26373 0.0
Li707 Li 0.41258 0.04955 0.27291 0.0
C708 C 0.43408 0.0076 0.28099 0.0
N709 N 0.45863 0.99484 0.28935 0.0
C710 C 0.43194 0.99103 0.28143 0.0
C711 C 0.44873 0.01769 0.28476 0.0
C712 C 0.44449 0.9848 0.2857 0.0
C713 C 0.46098 0.011 0.28897 0.0
C714 C 0.3942 0.03126 0.30001 0.0
C715 C 0.37822 0.03343 0.32103 0.0
N716 N 0.37834 0.01797 0.32295 0.0
C717 C 0.39414 0.01538 0.30219 0.0
C718 C 0.38616 0.04036 0.3095 0.0
C719 C 0.38606 0.00888 0.31384 0.0
C720 C 0.4406 0.05049 0.31943 0.0
N721 N 0.43208 0.0359 0.31182 0.0
C722 C 0.43892 0.0229 0.33317 0.0
C723 C 0.43091 0.02227 0.31843 0.0
C724 C 0.44826 0.0377 0.3411 0.0
C725 C 0.44885 0.05168 0.3342 0.0
H726 H 0.44133 0.06109 0.3138 0.0
H727 H 0.42413 0.0108 0.31207 0.0
C728 C 0.39029 0.9902 0.25645 0.0
N729 N 0.38646 1.00337 0.2644 0.0
C730 C 0.37926 0.97596 0.25119 0.0
C731 C 0.36035 0.98917 0.2621 0.0
C732 C 0.37183 1.00329 0.26712 0.0
C733 C 0.36414 0.97522 0.25429 0.0
H734 H 0.40199 0.99073 0.25436 0.0
H735 H 0.36914 0.01406 0.27336 0.0
C736 C 0.44402 0.06309 0.27364 0.0
N737 N 0.46294 0.08724 0.26169 0.0
C738 C 0.44036 0.06597 0.25833 0.0
C739 C 0.45733 0.07244 0.28284 0.0
C740 C 0.45005 0.07827 0.25252 0.0
C741 C 0.46675 0.08459 0.27659 0.0
C742 C 0.39602 0.02794 0.24278 0.0
C743 C 0.39613 0.01717 0.22891 0.0
C744 C 0.38258 0.03278 0.2459 0.0
C745 C 0.38273 0.0113 0.21843 0.0
C746 C 0.36942 0.02665 0.23511 0.0
N747 N 0.36976 0.01611 0.22172 0.0
C748 C 0.43479 0.00917 0.24056 0.0
C749 C 0.45477 0.03294 0.24664 0.0
C750 C 0.4419 1.00288 0.22817 0.0
N751 N 0.44102 0.02412 0.24914 0.0
C752 C 0.46229 0.02713 0.23426 0.0
C753 C 0.45561 0.01209 0.22461 0.0
H754 H 0.42397 1.00237 0.24306 0.0
H755 H 0.45975 0.04457 0.25395 0.0
C756 C 0.40374 0.07788 0.28416 0.0
N757 N 0.40659 0.0689 0.27083 0.0
C758 C 0.39674 0.09074 0.28301 0.0
C759 C 0.39642 0.08526 0.25449 0.0
C760 C 0.4034 0.0725 0.25619 0.0
C761 C 0.39262 0.09426 0.26799 0.0
H762 H 0.40632 0.07458 0.29561 0.0
H763 H 0.40556 0.06495 0.24578 0.0
O764 O 0.4218 0.01376 0.27686 0.0
O765 O 0.40197 0.03798 0.28867 0.0
O766 O 0.43478 0.05114 0.27969 0.0
O767 O 0.40892 0.03353 0.25339 0.0
H768 H 0.42066 0.98306 0.27854 0.0
H769 H 0.45067 0.03054 0.28448 0.0
H770 H 0.44298 0.972 0.28612 0.0
H771 H 0.47237 0.01867 0.29194 0.0
H772 H 0.37196 0.04034 0.32846 0.0
H773 H 0.40022 0.00809 0.29496 0.0
H774 H 0.38606 0.05266 0.30795 0.0
H775 H 0.38593 0.99661 0.31564 0.0
H776 H 0.43799 0.01189 0.33819 0.0
H777 H 0.45603 0.06329 0.33985 0.0
H778 H 0.38258 0.96554 0.24498 0.0
H779 H 0.34881 0.989 0.26476 0.0
H780 H 0.4303 0.05866 0.25091 0.0
H781 H 0.46039 0.07028 0.29467 0.0
H782 H 0.44737 0.08062 0.24068 0.0
H783 H 0.4771 0.0919 0.28357 0.0
H784 H 0.40643 0.01336 0.22625 0.0
H785 H 0.38225 0.04097 0.25667 0.0
H786 H 0.38263 1.0029 0.20767 0.0
H787 H 0.35892 0.03021 0.23743 0.0
H788 H 0.43631 0.9913 0.22096 0.0
H789 H 0.473 0.03448 0.232 0.0
H790 H 0.39415 0.09752 0.29371 0.0
H791 H 0.39325 0.08745 0.24268 0.0
Li792 Li 0.28004 0.19197 0.51024 0.0
Li793 Li 0.28955 0.17064 0.49608 0.0
Li794 Li 0.27916 0.1895 0.48106 0.0
Li795 Li 0.26133 0.16851 0.49458 0.0
C796 C 0.30981 0.20519 0.50473 0.0
N797 N 0.33523 0.22758 0.52059 0.0
C798 C 0.31918 0.20087 0.51636 0.0
C799 C 0.31346 0.2208 0.50098 0.0
C800 C 0.33195 0.21239 0.52431 0.0
C801 C 0.32635 0.23197 0.50918 0.0
C802 C 0.27906 0.16187 0.52535 0.0
C803 C 0.27353 0.13937 0.53954 0.0
N804 N 0.28532 0.14707 0.55086 0.0
C805 C 0.2911 0.16958 0.53713 0.0
C806 C 0.27016 0.14667 0.52657 0.0
C807 C 0.29409 0.16189 0.54993 0.0
C808 C 0.27091 0.19893 0.53978 0.0
N809 N 0.28137 0.2056 0.53068 0.0
C810 C 0.29179 0.22776 0.55196 0.0
C811 C 0.29154 0.21994 0.53634 0.0
C812 C 0.28146 0.22074 0.56181 0.0
C813 C 0.27074 0.20627 0.55535 0.0
H814 H 0.26276 0.18768 0.53497 0.0
H815 H 0.29961 0.22525 0.52891 0.0
C816 C 0.31751 0.16379 0.48789 0.0
N817 N 0.30574 0.15885 0.49631 0.0
C818 C 0.32997 0.15646 0.48791 0.0
C819 C 0.31813 0.13914 0.50537 0.0
C820 C 0.30576 0.14659 0.50478 0.0
C821 C 0.33049 0.14409 0.4969 0.0
H822 H 0.31727 0.17355 0.48124 0.0
H823 H 0.29624 0.14256 0.51115 0.0
C824 C 0.25861 0.20594 0.50151 0.0
N825 N 0.25181 0.23368 0.51697 0.0
C826 C 0.24636 0.20476 0.51055 0.0
C827 C 0.26735 0.22119 0.50025 0.0
C828 C 0.24312 0.21894 0.5183 0.0
C829 C 0.26374 0.23508 0.50818 0.0
C830 C 0.2779 0.15128 0.46971 0.0
C831 C 0.28768 0.15218 0.45792 0.0
C832 C 0.27288 0.13657 0.475 0.0
C833 C 0.29234 0.13828 0.45161 0.0
C834 C 0.27781 0.12295 0.4684 0.0
N835 N 0.28736 0.12409 0.45695 0.0
C836 C 0.29341 0.20076 0.45514 0.0
C837 C 0.26858 0.20529 0.4566 0.0
C838 C 0.29447 0.20728 0.4411 0.0
N839 N 0.28057 0.1998 0.46253 0.0
C840 C 0.26916 0.21193 0.4426 0.0
C841 C 0.2822 0.2129 0.43452 0.0
H842 H 0.30275 0.1962 0.46003 0.0
H843 H 0.25847 0.20437 0.46267 0.0
C844 C 0.23513 0.15676 0.50846 0.0
N845 N 0.24112 0.15562 0.49443 0.0
C846 C 0.22017 0.14853 0.5094 0.0
C847 C 0.21774 0.13793 0.4814 0.0
C848 C 0.23279 0.14641 0.481 0.0
C849 C 0.21118 0.13897 0.49575 0.0
H850 H 0.24196 0.16429 0.51893 0.0
H851 H 0.2378 0.14575 0.46997 0.0
O852 O 0.29728 0.19411 0.4968 0.0
O853 O 0.27581 0.16919 0.51278 0.0
O854 O 0.26233 0.19223 0.49429 0.0
O855 O 0.27367 0.16485 0.47647 0.0
H856 H 0.31666 0.18873 0.51917 0.0
H857 H 0.30638 0.22426 0.49189 0.0
H858 H 0.33928 0.20924 0.53339 0.0
H859 H 0.32929 0.24413 0.50648 0.0
H860 H 0.26677 0.12759 0.54062 0.0
H861 H 0.29797 0.18143 0.53648 0.0
H862 H 0.2608 0.14055 0.51753 0.0
H863 H 0.30335 0.16772 0.55915 0.0
H864 H 0.30025 0.23891 0.5564 0.0
H865 H 0.2623 0.2006 0.56229 0.0
H866 H 0.33927 0.16071 0.48125 0.0
H867 H 0.31796 0.12949 0.51228 0.0
H868 H 0.23953 0.19303 0.51168 0.0
H869 H 0.27692 0.22227 0.49337 0.0
H870 H 0.23373 0.21823 0.52541 0.0
H871 H 0.27045 0.24697 0.50738 0.0
H872 H 0.29173 0.16353 0.4538 0.0
H873 H 0.26542 0.13575 0.48424 0.0
H874 H 0.29997 0.1388 0.44252 0.0
H875 H 0.2741 0.1115 0.47242 0.0
H876 H 0.30468 0.20752 0.43527 0.0
H877 H 0.2595 0.21629 0.4382 0.0
H878 H 0.21562 0.14994 0.52067 0.0
H879 H 0.21134 0.13057 0.47061 0.0
Li880 Li 0.16969 0.03213 0.77138 0.0
Li881 Li 0.14785 0.01482 0.78613 0.0
Li882 Li 0.16722 0.99894 0.76916 0.0
Li883 Li 0.14764 0.01245 0.75484 0.0
C884 C 0.18264 0.0247 0.80078 0.0
N885 N 0.20572 0.03942 0.82495 0.0
C886 C 0.17999 0.03575 0.8133 0.0
C887 C 0.197 0.0211 0.80052 0.0
C888 C 0.19182 0.04308 0.82542 0.0
C889 C 0.20853 0.02868 0.81286 0.0
C890 C 0.13438 0.03644 0.76707 0.0
C891 C 0.10717 0.03371 0.76634 0.0
N892 N 0.10798 0.04527 0.75693 0.0
C893 C 0.13496 0.04842 0.75753 0.0
C894 C 0.1204 0.02912 0.77162 0.0
C895 C 0.12148 0.05266 0.75247 0.0
C896 C 0.17977 0.06255 0.75933 0.0
N897 N 0.18307 0.05507 0.77177 0.0
C898 C 0.20225 0.07953 0.78333 0.0
C899 C 0.19424 0.06337 0.78366 0.0
C900 C 0.19883 0.08767 0.77074 0.0
C901 C 0.18737 0.07866 0.75861 0.0
H902 H 0.1711 0.05601 0.7498 0.0
H903 H 0.19694 0.05761 0.79358 0.0
C904 C 0.13172 1.00236 0.81376 0.0
N905 N 0.13687 0.01587 0.80716 0.0
C906 C 0.12475 1.00322 0.82811 0.0
C907 C 0.12825 0.03184 0.82914 0.0
C908 C 0.13509 0.03045 0.81476 0.0
C909 C 0.12285 0.01815 0.83636 0.0
H910 H 0.13307 0.99073 0.80798 0.0
H911 H 0.13906 0.04126 0.80972 0.0
C912 C 0.17179 0.01198 0.73731 0.0
N913 N 0.17403 0.00708 0.70513 0.0
C914 C 0.16507 0.99693 0.72796 0.0
C915 C 0.17983 0.02447 0.73034 0.0
C916 C 0.16627 0.99471 0.7117 0.0
C917 C 0.1808 0.02177 0.71404 0.0
C918 C 0.13213 0.98185 0.76122 0.0
C919 C 0.13522 0.96904 0.75092 0.0
C920 C 0.11708 0.98177 0.76396 0.0
C921 C 0.12312 0.95648 0.74325 0.0
C922 C 0.1053 0.96897 0.75607 0.0
N923 N 0.10854 0.95671 0.74595 0.0
C924 C 0.17753 0.9699 0.78022 0.0
C925 C 0.18656 0.97541 0.75629 0.0
C926 C 0.18465 0.9565 0.77988 0.0
N927 N 0.17846 0.97929 0.76854 0.0
C928 C 0.19383 0.9621 0.7555 0.0
C929 C 0.19309 0.9521 0.76738 0.0
H930 H 0.17112 0.97267 0.78996 0.0
H931 H 0.18746 0.98264 0.74693 0.0
C932 C 0.14073 0.02449 0.72496 0.0
N933 N 0.13518 0.01211 0.73287 0.0
C934 C 0.13382 0.0256 0.70983 0.0
C935 C 0.11502 1.00144 0.71076 0.0
C936 C 0.12241 1.00068 0.72588 0.0
C937 C 0.12067 0.014 0.70222 0.0
H938 H 0.15071 0.0337 0.73038 0.0
H939 H 0.11786 0.99078 0.73191 0.0
O940 O 0.17125 0.01747 0.78879 0.0
O941 O 0.14735 0.03178 0.77189 0.0
O942 O 0.17037 0.0145 0.75318 0.0
O943 O 0.14383 0.99428 0.76878 0.0
H944 H 0.16895 0.0387 0.81361 0.0
H945 H 0.19919 0.01255 0.79087 0.0
H946 H 0.18995 0.05169 0.83519 0.0
H947 H 0.21971 0.02603 0.81283 0.0
H948 H 0.09627 0.02808 0.76972 0.0
H949 H 0.14566 0.05432 0.75399 0.0
H950 H 0.11978 0.01998 0.77915 0.0
H951 H 0.12176 0.06184 0.74499 0.0
H952 H 0.21083 0.08569 0.79312 0.0
H953 H 0.18432 0.08392 0.74842 0.0
H954 H 0.12115 0.99214 0.83282 0.0
H955 H 0.12707 0.04371 0.83443 0.0
H956 H 0.15883 0.98715 0.73317 0.0
H957 H 0.18527 0.03611 0.73744 0.0
H958 H 0.16101 0.98317 0.70429 0.0
H959 H 0.18692 0.03135 0.70847 0.0
H960 H 0.14684 0.96874 0.74896 0.0
H961 H 0.11452 0.99144 0.7721 0.0
H962 H 0.12534 0.94651 0.73519 0.0
H963 H 0.09358 0.96878 0.75801 0.0
H964 H 0.18323 0.94949 0.78939 0.0
H965 H 0.20018 0.95988 0.74558 0.0
H966 H 0.13873 0.03576 0.70427 0.0
H967 H 0.10505 0.992 0.70569 0.0
Li968 Li 0.27732 0.92834 0.00643 0.0
Li969 Li 0.2931 0.91102 0.01714 0.0
Li970 Li 0.30556 0.93634 0.00949 0.0
Li971 Li 0.29258 0.91371 0.99013 0.0
C972 C 0.29806 0.94534 0.03816 0.0
N973 N 0.31245 0.97069 0.06198 0.0
C974 C 0.30726 0.94254 0.05089 0.0
C975 C 0.29613 0.96101 0.03756 0.0
C976 C 0.31445 0.95553 0.06282 0.0
C977 C 0.30352 0.97367 0.04971 0.0
C978 C 0.2666 0.89186 0.00663 0.0
C979 C 0.26168 0.8639 0.01032 0.0
N980 N 0.25046 0.86647 0.01934 0.0
C981 C 0.25497 0.89421 0.01585 0.0
C982 C 0.26994 0.87657 0.00376 0.0
C983 C 0.24696 0.88122 0.0222 0.0
C984 C 0.24989 0.93457 0.99406 0.0
N985 N 0.25931 0.93579 0.00757 0.0
C986 C 0.2432 0.94874 0.02299 0.0
C987 C 0.25613 0.94242 0.02191 0.0
C988 C 0.23345 0.94813 0.00916 0.0
C989 C 0.23681 0.94073 0.99457 0.0
H990 H 0.25262 0.92894 0.98288 0.0
H991 H 0.26375 0.94298 0.03249 0.0
C992 C 0.30728 0.89141 0.03355 0.0
N993 N 0.2952 0.89848 0.03307 0.0
C994 C 0.31097 0.8845 0.04661 0.0
C995 C 0.2895 0.89199 0.05834 0.0
C996 C 0.28623 0.89879 0.04501 0.0
C997 C 0.30222 0.88506 0.05936 0.0
H998 H 0.31448 0.89174 0.02414 0.0
H999 H 0.27702 0.905 0.04452 0.0
C1000 C 0.29536 0.94176 0.97739 0.0
N1001 N 0.30379 0.95164 0.9495 0.0
C1002 C 0.31077 0.94569 0.97506 0.0
C1003 C 0.28424 0.94288 0.96555 0.0
C1004 C 0.3148 0.95064 0.96087 0.0
C1005 C 0.28873 0.9479 0.95152 0.0
C1006 C 0.32004 0.90763 0.99683 0.0
C1007 C 0.33368 0.91663 0.99299 0.0
C1008 C 0.31602 0.89081 0.99193 0.0
C1009 C 0.343 0.90867 0.98414 0.0
C1010 C 0.32563 0.8833 0.98308 0.0
N1011 N 0.33881 0.89231 0.97939 0.0
C1012 C 0.33359 0.94962 0.02593 0.0
C1013 C 0.32475 0.9685 0.01204 0.0
C1014 C 0.34723 0.9608 0.03154 0.0
N1015 N 0.32282 0.95354 0.01623 0.0
C1016 C 0.33842 0.98007 0.01722 0.0
C1017 C 0.34989 0.97615 0.02699 0.0
H1018 H 0.33162 0.93762 0.02907 0.0
H1019 H 0.31585 0.97131 0.00446 0.0
C1020 C 0.27986 0.88983 0.96386 0.0
N1021 N 0.29229 0.9021 0.96936 0.0
C1022 C 0.27917 0.88005 0.94921 0.0
C1023 C 0.30398 0.8959 0.94596 0.0
C1024 C 0.30416 0.9054 0.96066 0.0
C1025 C 0.29142 0.88293 0.94014 0.0
H1026 H 0.27051 0.88753 0.97093 0.0
H1027 H 0.31398 0.9151 0.96526 0.0
O1028 O 0.29121 0.93286 0.02618 0.0
O1029 O 0.27476 0.90447 1.00052 0.0
O1030 O 0.29118 0.93707 0.99128 0.0
O1031 O 0.31078 0.91521 0.00553 0.0
H1032 H 0.30898 0.93051 0.05147 0.0
H1033 H 0.28915 0.96338 0.02769 0.0
H1034 H 0.32167 0.95356 0.07271 0.0
H1035 H 0.30219 0.98588 0.04936 0.0
H1036 H 0.26418 0.85202 0.00825 0.0
H1037 H 0.25225 0.90596 0.01821 0.0
H1038 H 0.27884 0.87452 0.99657 0.0
H1039 H 0.23798 0.88289 0.02943 0.0
H1040 H 0.24112 0.95446 0.03446 0.0
H1041 H 0.22946 0.93978 0.98368 0.0
H1042 H 0.32076 0.8791 0.04689 0.0
H1043 H 0.28258 0.8928 0.06802 0.0
H1044 H 0.31952 0.94468 0.98397 0.0
H1045 H 0.27227 0.93996 0.96717 0.0
H1046 H 0.32668 0.95363 0.95889 0.0
H1047 H 0.28024 0.94884 0.94226 0.0
H1048 H 0.33703 0.92964 0.99673 0.0
H1049 H 0.30553 0.88365 0.99482 0.0
H1050 H 0.35356 0.91549 0.98104 0.0
H1051 H 0.3226 0.87031 0.97912 0.0
H1052 H 0.35589 0.9572 0.0388 0.0
H1053 H 0.34011 0.99181 0.01348 0.0
H1054 H 0.26914 0.87036 0.94503 0.0
H1055 H 0.31374 0.89844 0.93943 0.0
Li1056 Li 0.28127 0.40003 0.02856 0.0
Li1057 Li 0.29333 0.38144 0.04366 0.0
Li1058 Li 0.30948 0.40255 0.02933 0.0
Li1059 Li 0.29162 0.37866 0.01447 0.0
C1060 C 0.29545 0.41808 0.0587 0.0
N1061 N 0.29131 0.44269 0.08139 0.0
C1062 C 0.28794 0.41438 0.07176 0.0
C1063 C 0.3011 0.43429 0.05732 0.0
C1064 C 0.28589 0.427 0.08306 0.0
C1065 C 0.29883 0.44656 0.06888 0.0
C1066 C 0.26541 0.36248 0.01933 0.0
C1067 C 0.25867 0.33339 0.01168 0.0
N1068 N 0.24791 0.33481 1.00023 0.0
C1069 C 0.25427 0.36367 0.00754 0.0
C1070 C 0.26764 0.34725 0.02147 0.0
C1071 C 0.24554 0.34952 0.99799 0.0
C1072 C 0.25942 0.4146 0.01383 0.0
N1073 N 0.26463 0.41102 0.02792 0.0
C1074 C 0.24523 0.42147 0.04056 0.0
C1075 C 0.25767 0.41414 0.04112 0.0
C1076 C 0.23967 0.42546 0.02621 0.0
C1077 C 0.24699 0.42191 0.01272 0.0
H1078 H 0.26478 0.41156 1.00335 0.0
H1079 H 0.26159 0.41072 0.05207 0.0
C1080 C 0.30619 0.37128 0.071 0.0
N1081 N 0.29289 0.37168 0.06255 0.0
C1082 C 0.30603 0.3649 0.08514 0.0
C1083 C 0.27851 0.35953 0.08172 0.0
C1084 C 0.27919 0.36591 0.06758 0.0
C1085 C 0.29205 0.35898 0.0908 0.0
H1086 H 0.31694 0.376 0.06677 0.0
H1087 H 0.26877 0.36652 0.06075 0.0
C1088 C 0.29813 0.41439 0.00367 0.0
N1089 N 0.30661 0.441 0.98891 0.0
C1090 C 0.30338 0.41255 0.98879 0.0
C1091 C 0.29709 0.42974 0.01099 0.0
C1092 C 0.30765 0.42616 0.98154 0.0
C1093 C 0.30145 0.44305 1.00335 0.0
C1094 C 0.31681 0.36727 0.02524 0.0
C1095 C 0.32757 0.36929 0.01447 0.0
C1096 C 0.31351 0.35285 0.03142 0.0
C1097 C 0.33478 0.35674 0.00992 0.0
C1098 C 0.32099 0.3406 0.0266 0.0
N1099 N 0.33137 0.34278 0.01604 0.0
C1100 C 0.33731 0.42552 0.04329 0.0
C1101 C 0.3358 0.41579 0.01579 0.0
C1102 C 0.35222 0.43464 0.04334 0.0
N1103 N 0.32943 0.41635 0.02962 0.0
C1104 C 0.35058 0.42477 0.01527 0.0
C1105 C 0.35907 0.43431 0.02918 0.0
H1106 H 0.33212 0.42558 0.05421 0.0
H1107 H 0.32952 0.40807 0.00517 0.0
C1108 C 0.28176 0.37018 0.98213 0.0
N1109 N 0.28859 0.36442 0.99407 0.0
C1110 C 0.28081 0.36266 0.96638 0.0
C1111 C 0.29327 0.34282 0.9754 0.0
C1112 C 0.29375 0.3506 0.99105 0.0
C1113 C 0.28711 0.3491 0.96271 0.0
H1114 H 0.27739 0.38095 0.9848 0.0
H1115 H 0.29867 0.34581 1.00064 0.0
O1116 O 0.29758 0.40588 0.04754 0.0
O1117 O 0.27441 0.37619 0.02843 0.0
O1118 O 0.29399 0.4012 0.01098 0.0
O1119 O 0.30975 0.37946 0.02998 0.0
H1120 H 0.2836 0.4019 0.07307 0.0
H1121 H 0.30728 0.43738 0.04751 0.0
H1122 H 0.27999 0.42432 0.09316 0.0
H1123 H 0.30308 0.45916 0.06793 0.0
H1124 H 0.2603 0.32152 0.01314 0.0
H1125 H 0.2525 0.37541 0.0057 0.0
H1126 H 0.27628 0.34617 0.03052 0.0
H1127 H 0.23692 0.35025 0.98876 0.0
H1128 H 0.24008 0.42401 0.05132 0.0
H1129 H 0.24297 0.42441 1.00131 0.0
H1130 H 0.31679 0.36455 0.0915 0.0
H1131 H 0.26745 0.35541 0.08562 0.0
H1132 H 0.30431 0.40077 0.98297 0.0
H1133 H 0.29285 0.43133 0.02239 0.0
H1134 H 0.31181 0.42493 0.97006 0.0
H1135 H 0.3007 0.45499 0.00888 0.0
H1136 H 0.33025 0.38037 0.00958 0.0
H1137 H 0.30521 0.35108 0.03977 0.0
H1138 H 0.34308 0.3581 1.00154 0.0
H1139 H 0.31852 0.32935 0.03124 0.0
H1140 H 0.3583 0.44188 0.05434 0.0
H1141 H 0.35545 0.42388 0.00415 0.0
H1142 H 0.27542 0.36768 0.95716 0.0
H1143 H 0.29823 0.33238 0.9733 0.0
Li1144 Li 0.78218 0.16203 0.03219 0.0
Li1145 Li 0.79648 0.1451 0.016 0.0
Li1146 Li 0.78223 0.16332 0.00474 0.0
Li1147 Li 0.76871 0.13909 0.01296 0.0
C1148 C 0.80893 0.18159 0.01498 0.0
N1149 N 0.82573 0.20603 1.00156 0.0
C1150 C 0.82154 0.17909 0.00739 0.0
C1151 C 0.80493 0.19655 0.01584 0.0
C1152 C 0.82987 0.1916 1.00066 0.0
C1153 C 0.81354 0.20874 0.00895 0.0
C1154 C 0.77877 0.12381 0.03653 0.0
C1155 C 0.78084 0.09595 0.03431 0.0
N1156 N 0.77136 0.0937 0.0457 0.0
C1157 C 0.76906 0.12121 0.04824 0.0
C1158 C 0.78472 0.11107 0.02952 0.0
C1159 C 0.76544 0.1059 0.0527 0.0
C1160 C 0.77139 0.16912 0.06169 0.0
N1161 N 0.7822 0.17442 0.05236 0.0
C1162 C 0.79208 0.1987 0.07113 0.0
C1163 C 0.79254 0.18882 0.05682 0.0
C1164 C 0.78085 0.19367 0.08089 0.0
C1165 C 0.77045 0.17863 0.07604 0.0
H1166 H 0.76323 0.15772 0.05778 0.0
H1167 H 0.80107 0.19269 0.0492 0.0
C1168 C 0.81811 0.1312 1.00111 0.0
N1169 N 0.81395 0.1366 0.01539 0.0
C1170 C 0.83044 0.12384 1.00037 0.0
C1171 C 0.83406 0.12808 0.02908 0.0
C1172 C 0.82172 0.13544 0.02925 0.0
C1173 C 0.83843 0.122 0.01449 0.0
H1174 H 0.81167 0.13235 0.9903 0.0
H1175 H 0.81807 0.13989 0.04041 0.0
C1176 C 0.75529 0.16801 0.02539 0.0
N1177 N 0.73681 0.18262 0.04391 0.0
C1178 C 0.74297 0.15853 0.03111 0.0
C1179 C 0.75816 0.18492 0.02903 0.0
C1180 C 0.73376 0.16615 0.04044 0.0
C1181 C 0.74871 0.19208 0.03845 0.0
C1182 C 0.77548 0.12895 0.98401 0.0
C1183 C 0.76624 0.13261 0.97181 0.0
C1184 C 0.77703 0.11302 0.98366 0.0
C1185 C 0.75854 0.12021 0.95955 0.0
C1186 C 0.76914 0.10095 0.9712 0.0
N1187 N 0.76013 0.10477 0.95951 0.0
C1188 C 0.78995 0.17461 0.97664 0.0
C1189 C 0.76773 0.18089 0.98642 0.0
C1190 C 0.78624 0.1795 0.9623 0.0
N1191 N 0.78054 0.17513 0.98817 0.0
C1192 C 0.76352 0.18576 0.97227 0.0
C1193 C 0.77259 0.18461 0.95985 0.0
H1194 H 0.79974 0.16936 0.97816 0.0
H1195 H 0.76022 0.18068 0.99557 0.0
C1196 C 0.74571 0.10839 0.01024 0.0
N1197 N 0.75002 0.12338 0.00627 0.0
C1198 C 0.73095 0.09897 0.00513 0.0
C1199 C 0.72584 0.12013 0.99114 0.0
C1200 C 0.74053 0.12916 0.99666 0.0
C1201 C 0.72071 0.10502 0.99575 0.0
H1202 H 0.75346 0.10383 0.01761 0.0
H1203 H 0.74432 0.14103 0.9935 0.0
O1204 O 0.80051 0.16943 0.02146 0.0
O1205 O 0.78263 0.13881 0.03223 0.0
O1206 O 0.76458 0.16079 0.01638 0.0
O1207 O 0.78293 0.14087 0.99625 0.0
H1208 H 0.82481 0.1676 0.00663 0.0
H1209 H 0.79518 0.19867 0.02163 0.0
H1210 H 0.83962 0.18981 0.9947 0.0
H1211 H 0.81052 0.22035 0.00945 0.0
H1212 H 0.78536 0.086 0.02895 0.0
H1213 H 0.76433 0.13085 0.05382 0.0
H1214 H 0.7922 0.11275 0.02043 0.0
H1215 H 0.75791 0.10373 0.06172 0.0
H1216 H 0.80047 0.21009 0.07455 0.0
H1217 H 0.76148 0.17437 0.08309 0.0
H1218 H 0.83336 0.11917 0.98889 0.0
H1219 H 0.84005 0.12704 0.04021 0.0
H1220 H 0.74067 0.14543 0.02858 0.0
H1221 H 0.76768 0.19244 0.02477 0.0
H1222 H 0.72424 0.15896 0.04501 0.0
H1223 H 0.75085 0.20514 0.04144 0.0
H1224 H 0.76485 0.14485 0.97188 0.0
H1225 H 0.78421 0.10998 0.99293 0.0
H1226 H 0.75127 0.12286 0.9501 0.0
H1227 H 0.77019 0.08856 0.97083 0.0
H1228 H 0.79341 0.17832 0.95289 0.0
H1229 H 0.75298 0.18978 0.97081 0.0
H1230 H 0.72744 0.08739 0.00901 0.0
H1231 H 0.71847 0.12512 0.98363 0.0
Li1232 Li 0.16561 0.54723 0.25397 0.0
Li1233 Li 0.14144 0.53167 0.25945 0.0
Li1234 Li 0.161 0.51804 0.25025 0.0
Li1235 Li 0.14651 0.53082 0.23285 0.0
C1236 C 0.17179 0.54102 0.28288 0.0
N1237 N 0.19209 0.5583 0.30862 0.0
C1238 C 0.1666 0.54984 0.29547 0.0
C1239 C 0.18727 0.5409 0.28343 0.0
C1240 C 0.17705 0.55851 0.30837 0.0
C1241 C 0.19736 0.54975 0.29653 0.0
C1242 C 0.13916 0.55915 0.2385 0.0
C1243 C 0.11802 0.56436 0.2226 0.0
N1244 N 0.12763 0.57717 0.21833 0.0
C1245 C 0.14883 0.57238 0.23399 0.0
C1246 C 0.12362 0.55513 0.23283 0.0
C1247 C 0.14277 0.58134 0.22378 0.0
C1248 C 0.19418 0.56989 0.25692 0.0
N1249 N 0.17993 0.56682 0.26143 0.0
C1250 C 0.18537 0.59216 0.27896 0.0
C1251 C 0.17535 0.57757 0.27214 0.0
C1252 C 0.20017 0.59575 0.27452 0.0
C1253 C 0.20458 0.58439 0.26339 0.0
H1254 H 0.19741 0.56116 0.24825 0.0
H1255 H 0.16389 0.5747 0.27545 0.0
C1256 C 0.12734 0.52375 0.28606 0.0
N1257 N 0.1277 0.53297 0.27444 0.0
C1258 C 0.12014 0.52749 0.29941 0.0
C1259 C 0.11348 0.54977 0.28819 0.0
C1260 C 0.12071 0.54554 0.27507 0.0
C1261 C 0.11353 0.54098 0.30078 0.0
H1262 H 0.13343 0.51414 0.28541 0.0
H1263 H 0.12164 0.55298 0.26591 0.0
C1264 C 0.17894 0.52623 0.22701 0.0
N1265 N 0.19922 0.51266 0.21028 0.0
C1266 C 0.17459 0.5185 0.21128 0.0
C1267 C 0.19361 0.52709 0.23423 0.0
C1268 C 0.18502 0.51172 0.20302 0.0
C1269 C 0.20369 0.52013 0.22558 0.0
C1270 C 0.12681 0.50226 0.24837 0.0
C1271 C 0.12913 0.48944 0.25593 0.0
C1272 C 0.11226 0.50543 0.24666 0.0
C1273 C 0.11685 0.48007 0.26178 0.0
C1274 C 0.10029 0.4958 0.25269 0.0
N1275 N 0.10281 0.48343 0.26007 0.0
C1276 C 0.17407 0.49908 0.26808 0.0
C1277 C 0.17419 0.49127 0.24043 0.0
C1278 C 0.18262 0.48802 0.27138 0.0
N1279 N 0.17051 0.50089 0.25286 0.0
C1280 C 0.18296 0.48017 0.24318 0.0
C1281 C 0.18759 0.47874 0.25886 0.0
H1282 H 0.17049 0.50647 0.27771 0.0
H1283 H 0.17075 0.49255 0.22842 0.0
C1284 C 0.14388 0.54016 0.20273 0.0
N1285 N 0.1375 0.52963 0.21204 0.0
C1286 C 0.13648 0.54006 0.18778 0.0
C1287 C 0.11637 0.518 0.19223 0.0
C1288 C 0.12415 0.51854 0.20706 0.0
C1289 C 0.12247 0.52895 0.18244 0.0
H1290 H 0.15457 0.5488 0.20706 0.0
H1291 H 0.1194 0.51032 0.21474 0.0
O1292 O 0.16179 0.53266 0.27001 0.0
O1293 O 0.14488 0.55014 0.24838 0.0
O1294 O 0.16897 0.53317 0.2352 0.0
O1295 O 0.13872 0.51167 0.2427 0.0
H1296 H 0.15468 0.55016 0.29521 0.0
H1297 H 0.19147 0.53414 0.27379 0.0
H1298 H 0.17322 0.56546 0.31816 0.0
H1299 H 0.20939 0.54984 0.29707 0.0
H1300 H 0.10605 0.56132 0.21803 0.0
H1301 H 0.16088 0.57563 0.23822 0.0
H1302 H 0.116 0.54487 0.23614 0.0
H1303 H 0.15012 0.59159 0.22015 0.0
H1304 H 0.18157 0.60055 0.28757 0.0
H1305 H 0.21579 0.58687 0.2594 0.0
H1306 H 0.12027 0.52031 0.30879 0.0
H1307 H 0.10877 0.56042 0.28888 0.0
H1308 H 0.16327 0.51766 0.20551 0.0
H1309 H 0.19714 0.53291 0.24642 0.0
H1310 H 0.1818 0.50569 0.19084 0.0
H1311 H 0.21506 0.52064 0.23103 0.0
H1312 H 0.1403 0.48679 0.2573 0.0
H1313 H 0.11029 0.51537 0.24093 0.0
H1314 H 0.11849 0.47015 0.2677 0.0
H1315 H 0.089 0.49818 0.25156 0.0
H1316 H 0.1855 0.48692 0.28361 0.0
H1317 H 0.1865 0.47323 0.23317 0.0
H1318 H 0.14163 0.54858 0.18051 0.0
H1319 H 0.1055 0.50941 0.18868 0.0
Li1320 Li 0.78121 0.8996 0.52832 0.0
Li1321 Li 0.79276 0.88058 0.54333 0.0
Li1322 Li 0.8092 0.90115 0.52883 0.0
Li1323 Li 0.79092 0.87779 0.5141 0.0
C1324 C 0.79531 0.91724 0.55827 0.0
N1325 N 0.79075 0.94181 0.58074 0.0
C1326 C 0.7881 0.91354 0.57151 0.0
C1327 C 0.80042 0.93345 0.55659 0.0
C1328 C 0.78584 0.92613 0.5827 0.0
C1329 C 0.79795 0.9457 0.56805 0.0
C1330 C 0.76445 0.86237 0.51904 0.0
C1331 C 0.75634 0.8333 0.51168 0.0
N1332 N 0.7463 0.83519 0.49977 0.0
C1333 C 0.75402 0.86405 0.50678 0.0
C1334 C 0.76562 0.84691 0.52157 0.0
C1335 C 0.74495 0.85014 0.49714 0.0
C1336 C 0.75973 0.91447 0.51351 0.0
N1337 N 0.76487 0.91102 0.52769 0.0
C1338 C 0.74571 0.92204 0.54019 0.0
C1339 C 0.75801 0.91451 0.54087 0.0
C1340 C 0.74017 0.92585 0.52572 0.0
C1341 C 0.74742 0.92194 0.51227 0.0
H1342 H 0.76502 0.91115 0.50305 0.0
H1343 H 0.76187 0.91121 0.5519 0.0
C1344 C 0.80543 0.87094 0.57104 0.0
N1345 N 0.79214 0.87098 0.56235 0.0
C1346 C 0.80523 0.86478 0.58531 0.0
C1347 C 0.77769 0.85886 0.58149 0.0
C1348 C 0.77842 0.86503 0.56725 0.0
C1349 C 0.79122 0.8587 0.59084 0.0
H1350 H 0.8162 0.87579 0.56692 0.0
H1351 H 0.76801 0.86537 0.56022 0.0
C1352 C 0.79905 0.9135 0.50356 0.0
N1353 N 0.80989 0.93997 0.48933 0.0
C1354 C 0.80565 0.91147 0.48945 0.0
C1355 C 0.79786 0.92896 0.51035 0.0
C1356 C 0.8111 0.92501 0.48246 0.0
C1357 C 0.80342 0.9422 0.503 0.0
C1358 C 0.81452 0.86454 0.52472 0.0
C1359 C 0.82494 0.86493 0.51353 0.0
C1360 C 0.81005 0.85051 0.53132 0.0
C1361 C 0.8306 0.85121 0.50901 0.0
C1362 C 0.816 0.83705 0.52652 0.0
N1363 N 0.82605 0.83767 0.51554 0.0
C1364 C 0.83689 0.92522 0.54175 0.0
C1365 C 0.83622 0.91174 0.51549 0.0
C1366 C 0.85188 0.93395 0.54145 0.0
N1367 N 0.82938 0.91438 0.52885 0.0
C1368 C 0.85114 0.92015 0.51467 0.0
C1369 C 0.85926 0.93144 0.52777 0.0
H1370 H 0.83133 0.92696 0.55234 0.0
H1371 H 0.83015 0.90289 0.50548 0.0
C1372 C 0.78215 0.87002 0.48145 0.0
N1373 N 0.78744 0.86346 0.49368 0.0
C1374 C 0.78096 0.86216 0.4658 0.0
C1375 C 0.78995 0.84037 0.47546 0.0
C1376 C 0.79079 0.8486 0.491 0.0
C1377 C 0.78525 0.84731 0.46258 0.0
H1378 H 0.77922 0.88166 0.48382 0.0
H1379 H 0.7944 0.8432 0.50081 0.0
O1380 O 0.79762 0.90506 0.54721 0.0
O1381 O 0.77381 0.87581 0.52822 0.0
O1382 O 0.79375 0.90038 0.51063 0.0
O1383 O 0.80898 0.87791 0.52946 0.0
H1384 H 0.78415 0.90106 0.57304 0.0
H1385 H 0.80633 0.93656 0.54662 0.0
H1386 H 0.78017 0.92343 0.59294 0.0
H1387 H 0.8018 0.95829 0.56687 0.0
H1388 H 0.75716 0.82125 0.51345 0.0
H1389 H 0.75308 0.87596 0.50463 0.0
H1390 H 0.77368 0.84544 0.53099 0.0
H1391 H 0.73689 0.85123 0.48754 0.0
H1392 H 0.74062 0.92487 0.55093 0.0
H1393 H 0.74342 0.92428 0.50077 0.0
H1394 H 0.81598 0.86473 0.59187 0.0
H1395 H 0.76661 0.8546 0.58528 0.0
H1396 H 0.8067 0.89959 0.48403 0.0
H1397 H 0.79262 0.93073 0.52115 0.0
H1398 H 0.81631 0.92363 0.47159 0.0
H1399 H 0.80258 0.95424 0.50815 0.0
H1400 H 0.82853 0.87565 0.50829 0.0
H1401 H 0.80201 0.84996 0.53999 0.0
H1402 H 0.8386 0.85132 0.50029 0.0
H1403 H 0.8126 0.8261 0.5315 0.0
H1404 H 0.85759 0.94261 0.55181 0.0
H1405 H 0.85635 0.91752 0.50398 0.0
H1406 H 0.77728 0.86799 0.45627 0.0
H1407 H 0.79307 0.82877 0.47353 0.0
Li1408 Li 0.92489 0.05878 0.27152 0.0
Li1409 Li 0.90196 0.03904 0.25391 0.0
Li1410 Li 0.92378 0.05718 0.23987 0.0
Li1411 Li 0.90499 0.07228 0.25592 0.0
C1412 C 0.93321 0.02949 0.25688 0.0
N1413 N 0.9512 0.00832 0.26315 0.0
C1414 C 0.92886 0.0184 0.26703 0.0
C1415 C 0.94667 0.0298 0.24987 0.0
C1416 C 0.93812 0.0078 0.27006 0.0
C1417 C 0.95562 0.019 0.2532 0.0
C1418 C 0.89734 0.05578 0.28691 0.0
C1419 C 0.88738 0.06714 0.31007 0.0
N1420 N 0.88836 0.05384 0.31669 0.0
C1421 C 0.8982 0.0422 0.29391 0.0
C1422 C 0.89186 0.06834 0.29501 0.0
C1423 C 0.89362 0.04146 0.30899 0.0
C1424 C 0.93332 0.06691 0.30726 0.0
N1425 N 0.93749 0.05954 0.29359 0.0
C1426 C 0.95648 0.05064 0.30991 0.0
C1427 C 0.94916 0.05173 0.29489 0.0
C1428 C 0.95205 0.05764 0.32427 0.0
C1429 C 0.94028 0.06603 0.3225 0.0
H1430 H 0.92433 0.07339 0.3065 0.0
H1431 H 0.95279 0.04601 0.28428 0.0
C1432 C 0.89329 1.00321 0.24499 0.0
N1433 N 0.88877 0.01603 0.25304 0.0
C1434 C 0.88574 0.98697 0.24534 0.0
C1435 C 0.86857 0.99694 0.26197 0.0
C1436 C 0.87649 0.01302 0.26137 0.0
C1437 C 0.87316 0.9834 0.25403 0.0
H1438 H 0.90306 0.00553 0.23845 0.0
H1439 H 0.87297 0.02311 0.26793 0.0
C1440 C 0.94288 0.08642 0.25842 0.0
N1441 N 0.97212 0.10486 0.25915 0.0
C1442 C 0.94517 0.10266 0.25651 0.0
C1443 C 0.95541 0.07953 0.2607 0.0
C1444 C 0.96007 0.11179 0.25693 0.0
C1445 C 0.97012 0.08906 0.26103 0.0
C1446 C 0.8931 0.05661 0.22328 0.0
C1447 C 0.89965 0.06999 0.21657 0.0
C1448 C 0.87899 0.04669 0.21645 0.0
C1449 C 0.89195 0.07324 0.20305 0.0
C1450 C 0.87164 0.05036 0.20294 0.0
N1451 N 0.87822 0.06345 0.19658 0.0
C1452 C 0.93225 0.04178 0.20865 0.0
C1453 C 0.94457 0.06936 0.21513 0.0
C1454 C 0.93905 0.04035 0.19424 0.0
N1455 N 0.93496 0.05614 0.21901 0.0
C1456 C 0.95164 0.06843 0.20084 0.0
C1457 C 0.94902 0.05376 0.18982 0.0
H1458 H 0.9247 0.03121 0.2115 0.0
H1459 H 0.94677 0.08086 0.22307 0.0
C1460 C 0.90027 0.10655 0.26615 0.0
N1461 N 0.89377 0.09194 0.25667 0.0
C1462 C 0.89327 0.12005 0.26688 0.0
C1463 C 0.87271 0.10381 0.24815 0.0
C1464 C 0.88009 0.0906 0.24775 0.0
C1465 C 0.87913 0.11912 0.2578 0.0
H1466 H 0.91105 0.10788 0.27332 0.0
H1467 H 0.87476 0.07921 0.24012 0.0
O1468 O 0.92438 0.04004 0.25381 0.0
O1469 O 0.90197 0.05686 0.27227 0.0
O1470 O 0.92842 0.07725 0.25796 0.0
O1471 O 0.90037 0.05337 0.23661 0.0
H1472 H 0.91849 0.01803 0.27256 0.0
H1473 H 0.95019 0.03833 0.24198 0.0
H1474 H 0.93492 0.99917 0.27792 0.0
H1475 H 0.96609 0.01911 0.2479 0.0
H1476 H 0.88316 0.07678 0.31651 0.0
H1477 H 0.90246 0.03241 0.2878 0.0
H1478 H 0.89116 0.07894 0.28973 0.0
H1479 H 0.89427 0.03105 0.31458 0.0
H1480 H 0.96534 0.04393 0.31014 0.0
H1481 H 0.93642 0.07206 0.33284 0.0
H1482 H 0.8898 0.97729 0.23874 0.0
H1483 H 0.85914 0.99519 0.26903 0.0
H1484 H 0.93555 0.10813 0.25471 0.0
H1485 H 0.95378 0.06696 0.26218 0.0
H1486 H 0.96204 0.12438 0.25547 0.0
H1487 H 0.97994 0.0839 0.26277 0.0
H1488 H 0.91056 0.07779 0.22179 0.0
H1489 H 0.87378 0.03632 0.22157 0.0
H1490 H 0.89687 0.08356 0.19772 0.0
H1491 H 0.8607 0.04282 0.19752 0.0
H1492 H 0.93654 0.02858 0.18673 0.0
H1493 H 0.95892 0.07937 0.19839 0.0
H1494 H 0.89897 0.13113 0.27479 0.0
H1495 H 0.86206 0.10196 0.24062 0.0
Li1496 Li 0.28227 0.66227 0.53235 0.0
Li1497 Li 0.29758 0.64653 0.51513 0.0
Li1498 Li 0.28151 0.66144 0.50433 0.0
Li1499 Li 0.26994 0.6371 0.51244 0.0
C1500 C 0.30575 0.6842 0.51519 0.0
N1501 N 0.31778 0.71227 0.50391 0.0
C1502 C 0.31462 0.68366 0.50261 0.0
C1503 C 0.30309 0.699 0.52212 0.0
C1504 C 0.32057 0.698 0.49705 0.0
C1505 C 0.30926 0.71306 0.51622 0.0
C1506 C 0.28083 0.62946 0.54276 0.0
C1507 C 0.28339 0.60648 0.55522 0.0
N1508 N 0.27299 0.60976 0.56505 0.0
C1509 C 0.27027 0.63263 0.55309 0.0
C1510 C 0.28755 0.61632 0.54392 0.0
C1511 C 0.2664 0.62252 0.56423 0.0
C1512 C 0.26807 0.67515 0.55765 0.0
N1513 N 0.28174 0.67489 0.55221 0.0
C1514 C 0.29484 0.69478 0.57424 0.0
C1515 C 0.29502 0.68428 0.56023 0.0
C1516 C 0.28085 0.69544 0.58004 0.0
C1517 C 0.26736 0.68532 0.57168 0.0
H1518 H 0.25766 0.66771 0.55089 0.0
H1519 H 0.30571 0.68385 0.55554 0.0
C1520 C 0.32164 0.63763 0.50046 0.0
N1521 N 0.31595 0.63975 0.51457 0.0
C1522 C 0.33396 0.63035 0.49906 0.0
C1523 C 0.33481 0.62849 0.52699 0.0
C1524 C 0.32246 0.6358 0.52783 0.0
C1525 C 0.34043 0.62531 0.51236 0.0
H1526 H 0.31626 0.64106 0.49016 0.0
H1527 H 0.3177 0.63779 0.53891 0.0
C1528 C 0.25398 0.6663 0.51147 0.0
N1529 N 0.23359 0.6831 0.50024 0.0
C1530 C 0.2442 0.65973 0.49746 0.0
C1531 C 0.25334 0.68141 0.51979 0.0
C1532 C 0.234 0.66842 0.49196 0.0
C1533 C 0.24296 0.68971 0.51392 0.0
C1534 C 0.28448 0.6241 0.4887 0.0
C1535 C 0.28456 0.61998 0.47231 0.0
C1536 C 0.28538 0.61243 0.49832 0.0
C1537 C 0.28562 0.60435 0.4659 0.0
C1538 C 0.28652 0.59696 0.49149 0.0
N1539 N 0.2866 0.59326 0.47555 0.0
C1540 C 0.27932 0.66622 0.47302 0.0
C1541 C 0.27529 0.68852 0.49064 0.0
C1542 C 0.27506 0.67285 0.45996 0.0
N1543 N 0.2789 0.67381 0.48796 0.0
C1544 C 0.2708 0.69555 0.4779 0.0
C1545 C 0.27029 0.68745 0.46234 0.0
H1546 H 0.28244 0.65472 0.47123 0.0
H1547 H 0.27532 0.69451 0.50261 0.0
C1548 C 0.24479 0.61247 0.51799 0.0
N1549 N 0.25261 0.61953 0.50701 0.0
C1550 C 0.23021 0.60253 0.51355 0.0
C1551 C 0.23245 0.60642 0.48643 0.0
C1552 C 0.24697 0.61626 0.49139 0.0
C1553 C 0.22363 0.60002 0.4977 0.0
H1554 H 0.24931 0.61538 0.53032 0.0
H1555 H 0.25326 0.62227 0.48292 0.0
O1556 O 0.2997 0.67028 0.52068 0.0
O1557 O 0.28495 0.63942 0.53193 0.0
O1558 O 0.26401 0.65793 0.51711 0.0
O1559 O 0.28327 0.63937 0.49514 0.0
H1560 H 0.31677 0.67228 0.49714 0.0
H1561 H 0.29617 0.69959 0.53179 0.0
H1562 H 0.32739 0.69777 0.48727 0.0
H1563 H 0.30721 0.72459 0.52139 0.0
H1564 H 0.28846 0.59626 0.55619 0.0
H1565 H 0.26478 0.64252 0.55223 0.0
H1566 H 0.29591 0.6137 0.53623 0.0
H1567 H 0.25811 0.62478 0.57216 0.0
H1568 H 0.30549 0.70231 0.58046 0.0
H1569 H 0.25635 0.68562 0.57569 0.0
H1570 H 0.33814 0.62835 0.48763 0.0
H1571 H 0.33943 0.6247 0.53749 0.0
H1572 H 0.24459 0.64813 0.4908 0.0
H1573 H 0.261 0.68687 0.53047 0.0
H1574 H 0.22642 0.66351 0.4811 0.0
H1575 H 0.24242 0.70145 0.5202 0.0
H1576 H 0.28374 0.62866 0.46452 0.0
H1577 H 0.28512 0.61522 0.5109 0.0
H1578 H 0.28566 0.60104 0.45325 0.0
H1579 H 0.28727 0.58787 0.49887 0.0
H1580 H 0.27484 0.66623 0.44815 0.0
H1581 H 0.26751 0.70703 0.4802 0.0
H1582 H 0.22371 0.598 0.52267 0.0
H1583 H 0.22783 0.60468 0.47408 0.0
Li1584 Li 0.40166 0.53885 0.75316 0.0
Li1585 Li 0.42435 0.55836 0.7701 0.0
Li1586 Li 0.40506 0.57216 0.7558 0.0
Li1587 Li 0.42413 0.55666 0.73878 0.0
C1588 C 0.39881 0.55465 0.78682 0.0
N1589 N 0.39361 0.55108 0.81751 0.0
C1590 C 0.40102 0.54082 0.79268 0.0
C1591 C 0.39385 0.56661 0.79651 0.0
C1592 C 0.39836 0.53926 0.80825 0.0
C1593 C 0.3913 0.56459 0.81201 0.0
C1594 C 0.43321 0.52912 0.75504 0.0
C1595 C 0.4565 0.5204 0.75121 0.0
N1596 N 0.45202 0.50829 0.75965 0.0
C1597 C 0.4288 0.51656 0.76364 0.0
C1598 C 0.44714 0.53105 0.74873 0.0
C1599 C 0.43849 0.50617 0.76585 0.0
C1600 C 0.39195 0.50308 0.7434 0.0
N1601 N 0.38812 0.51601 0.75209 0.0
C1602 C 0.36823 0.49721 0.76177 0.0
C1603 C 0.37633 0.5132 0.7611 0.0
C1604 C 0.37215 0.48355 0.75322 0.0
C1605 C 0.38421 0.48692 0.74382 0.0
H1606 H 0.40136 0.50524 0.73637 0.0
H1607 H 0.37338 0.52338 0.76817 0.0
C1608 C 0.43475 0.56837 0.80561 0.0
N1609 N 0.43742 0.55932 0.79204 0.0
C1610 C 0.44193 0.56766 0.82082 0.0
C1611 C 0.45522 0.54887 0.80834 0.0
C1612 C 0.44785 0.54997 0.79339 0.0
C1613 C 0.45227 0.55756 0.82264 0.0
H1614 H 0.42672 0.57601 0.80481 0.0
H1615 H 0.45051 0.5431 0.78288 0.0
C1616 C 0.39045 0.55362 0.72358 0.0
N1617 N 0.36963 0.55409 0.69831 0.0
C1618 C 0.39531 0.56123 0.71096 0.0
C1619 C 0.37505 0.54621 0.72337 0.0
C1620 C 0.38459 0.56134 0.69828 0.0
C1621 C 0.36469 0.54659 0.71048 0.0
C1622 C 0.44153 0.58578 0.76575 0.0
C1623 C 0.44064 0.59772 0.77837 0.0
C1624 C 0.45563 0.5823 0.76313 0.0
C1625 C 0.45396 0.6061 0.78816 0.0
C1626 C 0.46869 0.59095 0.77319 0.0
N1627 N 0.46759 0.60257 0.78539 0.0
C1628 C 0.39506 0.60299 0.76978 0.0
C1629 C 0.38519 0.59389 0.74306 0.0
C1630 C 0.38783 0.61633 0.77039 0.0
N1631 N 0.39374 0.59182 0.75624 0.0
C1632 C 0.37784 0.6071 0.74316 0.0
C1633 C 0.37894 0.61885 0.75696 0.0
H1634 H 0.40186 0.60174 0.7803 0.0
H1635 H 0.38396 0.58529 0.73222 0.0
C1636 C 0.43053 0.54181 0.70636 0.0
N1637 N 0.435 0.55538 0.7178 0.0
C1638 C 0.43724 0.54039 0.69191 0.0
C1639 C 0.45335 0.56684 0.70072 0.0
C1640 C 0.44631 0.56779 0.71502 0.0
C1641 C 0.44896 0.55298 0.6886 0.0
H1642 H 0.42161 0.53188 0.70836 0.0
H1643 H 0.44993 0.57866 0.72386 0.0
O1644 O 0.40163 0.55651 0.77171 0.0
O1645 O 0.42392 0.53942 0.75268 0.0
O1646 O 0.40075 0.55343 0.7361 0.0
O1647 O 0.42857 0.57699 0.75644 0.0
H1648 H 0.4049 0.53149 0.78533 0.0
H1649 H 0.39204 0.57735 0.79212 0.0
H1650 H 0.40012 0.52867 0.81297 0.0
H1651 H 0.38751 0.57377 0.81967 0.0
H1652 H 0.46733 0.52176 0.74643 0.0
H1653 H 0.41807 0.51491 0.76861 0.0
H1654 H 0.45068 0.5407 0.74202 0.0
H1655 H 0.43525 0.49642 0.77252 0.0
H1656 H 0.35924 0.49562 0.76938 0.0
H1657 H 0.38773 0.47712 0.73674 0.0
H1658 H 0.43899 0.57471 0.83113 0.0
H1659 H 0.4633 0.54121 0.80858 0.0
H1660 H 0.40721 0.56704 0.71099 0.0
H1661 H 0.37115 0.54026 0.73308 0.0
H1662 H 0.38817 0.56721 0.68843 0.0
H1663 H 0.35271 0.54092 0.71014 0.0
H1664 H 0.42977 0.60038 0.78065 0.0
H1665 H 0.45645 0.57292 0.75352 0.0
H1666 H 0.45346 0.61536 0.798 0.0
H1667 H 0.47969 0.58838 0.77133 0.0
H1668 H 0.38952 0.62478 0.78141 0.0
H1669 H 0.37114 0.60787 0.73237 0.0
H1670 H 0.43329 0.52924 0.68349 0.0
H1671 H 0.46205 0.57717 0.69917 0.0
Li1672 Li 0.64178 0.03636 0.76107 0.0
Li1673 Li 0.66589 0.05148 0.7539 0.0
Li1674 Li 0.64501 0.03496 0.73411 0.0
Li1675 Li 0.65992 0.02163 0.75084 0.0
C1676 C 0.63856 0.06399 0.74057 0.0
N1677 N 0.62559 0.08238 0.72192 0.0
C1678 C 0.64765 0.07761 0.73609 0.0
C1679 C 0.62285 0.05983 0.73573 0.0
C1680 C 0.64088 0.08673 0.72663 0.0
C1681 C 0.61652 0.06923 0.72625 0.0
C1682 C 0.67544 0.03925 0.78084 0.0
C1683 C 0.70226 0.04011 0.78614 0.0
N1684 N 0.70116 0.04266 0.80198 0.0
C1685 C 0.67456 0.04188 0.79717 0.0
C1686 C 0.68938 0.03836 0.77526 0.0
C1687 C 0.6877 0.04357 0.80767 0.0
C1688 C 0.62999 0.02914 0.78875 0.0
N1689 N 0.62934 0.03838 0.77725 0.0
C1690 C 0.61684 0.05567 0.79297 0.0
C1691 C 0.62265 0.05121 0.77889 0.0
C1692 C 0.61799 0.04681 0.80535 0.0
C1693 C 0.62419 0.03308 0.80297 0.0
H1694 H 0.63592 0.01941 0.78729 0.0
H1695 H 0.62272 0.05859 0.7697 0.0
C1696 C 0.69061 0.076 0.74924 0.0
N1697 N 0.68145 0.07032 0.7599 0.0
C1698 C 0.70221 0.08998 0.75391 0.0
C1699 C 0.6946 0.09193 0.7804 0.0
C1700 C 0.68312 0.07796 0.77519 0.0
C1701 C 0.70426 0.09813 0.76967 0.0
H1702 H 0.68881 0.06976 0.7371 0.0
H1703 H 0.67544 0.07325 0.7833 0.0
C1704 C 0.62529 0.00756 0.75051 0.0
N1705 N 0.60059 0.99039 0.76262 0.0
C1706 C 0.62688 0.99476 0.75844 0.0
C1707 C 0.61109 0.01151 0.74859 0.0
C1708 C 0.61426 0.98626 0.76451 0.0
C1709 C 0.59876 1.00273 0.75484 0.0
C1710 C 0.67627 0.03132 0.72436 0.0
C1711 C 0.66969 0.02177 0.70978 0.0
C1712 C 0.69217 0.03629 0.72757 0.0
C1713 C 0.67914 0.01727 0.69869 0.0
C1714 C 0.70122 0.03153 0.71617 0.0
N1715 N 0.69458 0.0222 0.70209 0.0
C1716 C 0.63972 0.04463 0.70433 0.0
C1717 C 0.62316 0.02039 0.70837 0.0
C1718 C 0.63169 0.04366 0.68949 0.0
N1719 N 0.6351 0.03328 0.71353 0.0
C1720 C 0.61496 0.0188 0.69354 0.0
C1721 C 0.61901 0.03069 0.68398 0.0
H1722 H 0.64947 0.05457 0.70866 0.0
H1723 H 0.61996 0.01137 0.71582 0.0
C1724 C 0.6704 0.99972 0.76745 0.0
N1725 N 0.66903 1.00398 0.75283 0.0
C1726 C 0.67856 0.98814 0.77025 0.0
C1727 C 0.68289 0.98478 0.74264 0.0
C1728 C 0.67467 0.99645 0.7404 0.0
C1729 C 0.68521 0.98078 0.75782 0.0
H1730 H 0.66547 0.00563 0.77705 0.0
H1731 H 0.67301 0.99962 0.72879 0.0
O1732 O 0.64499 0.05487 0.74978 0.0
O1733 O 0.66265 0.03754 0.77043 0.0
O1734 O 0.63753 0.01611 0.74459 0.0
O1735 O 0.6672 0.03614 0.73525 0.0
H1736 H 0.65981 0.08105 0.73981 0.0
H1737 H 0.61565 0.04937 0.73916 0.0
H1738 H 0.64778 0.09726 0.72301 0.0
H1739 H 0.6044 0.06608 0.72231 0.0
H1740 H 0.71312 0.03942 0.78198 0.0
H1741 H 0.66384 0.04261 0.80167 0.0
H1742 H 0.69019 0.03623 0.76268 0.0
H1743 H 0.6872 0.0456 0.82034 0.0
H1744 H 0.61205 0.06628 0.79441 0.0
H1745 H 0.62546 0.0261 0.81236 0.0
H1746 H 0.70947 0.09438 0.7453 0.0
H1747 H 0.69564 0.09805 0.79255 0.0
H1748 H 0.63774 0.99145 0.75992 0.0
H1749 H 0.60965 0.02132 0.74241 0.0
H1750 H 0.61535 0.97637 0.77073 0.0
H1751 H 0.58773 0.00571 0.75352 0.0
H1752 H 0.65743 0.01772 0.70709 0.0
H1753 H 0.6975 0.04381 0.7387 0.0
H1754 H 0.6742 0.00985 0.68738 0.0
H1755 H 0.71353 0.03529 0.71851 0.0
H1756 H 0.63517 0.05318 0.68261 0.0
H1757 H 0.60554 0.00836 0.68962 0.0
H1758 H 0.68009 0.98542 0.78213 0.0
H1759 H 0.68751 0.97907 0.73265 0.0
Li1760 Li 0.78081 0.69325 0.01077 0.0
Li1761 Li 0.79103 0.67132 0.99757 0.0
Li1762 Li 0.77958 0.68968 0.98138 0.0
Li1763 Li 0.76335 0.66907 0.99499 0.0
C1764 C 0.80846 0.70961 1.00136 0.0
N1765 N 0.82964 0.73894 0.00895 0.0
C1766 C 0.82208 0.71087 0.01098 0.0
C1767 C 0.80567 0.72323 0.9955 0.0
C1768 C 0.83263 0.72582 0.01471 0.0
C1769 C 0.8165 0.73796 0.9995 0.0
C1770 C 0.783 0.66217 0.02473 0.0
C1771 C 0.7866 0.63688 0.03177 0.0
N1772 N 0.79523 0.64513 0.04543 0.0
C1773 C 0.79187 0.6704 0.03886 0.0
C1774 C 0.78029 0.64527 0.02116 0.0
C1775 C 0.79796 0.66156 0.04917 0.0
C1776 C 0.77106 0.7023 0.03978 0.0
N1777 N 0.782 0.7078 0.03062 0.0
C1778 C 0.79336 0.73021 0.05137 0.0
C1779 C 0.79295 0.72163 0.03605 0.0
C1780 C 0.7823 0.72463 0.06112 0.0
C1781 C 0.77092 0.71058 0.05502 0.0
H1782 H 0.76263 0.69114 0.03536 0.0
H1783 H 0.80156 0.72593 0.02872 0.0
C1784 C 0.80856 0.64859 0.98661 0.0
N1785 N 0.80735 0.66002 0.99894 0.0
C1786 C 0.82068 0.64077 0.98722 0.0
C1787 C 0.83001 0.65648 0.01324 0.0
C1788 C 0.81782 0.66409 0.01207 0.0
C1789 C 0.83164 0.64469 1.00068 0.0
H1790 H 0.8002 0.64564 0.97622 0.0
H1791 H 0.81682 0.6734 0.0216 0.0
C1792 C 0.7557 0.70315 1.00155 0.0
N1793 N 0.74132 0.72554 0.01643 0.0
C1794 C 0.7432 0.69803 0.00963 0.0
C1795 C 0.7608 0.71962 1.00091 0.0
C1796 C 0.7361 0.70955 0.01712 0.0
C1797 C 0.7534 0.73076 0.00855 0.0
C1798 C 0.76711 0.65263 0.96753 0.0
C1799 C 0.75926 0.65534 0.95382 0.0
C1800 C 0.76505 0.63692 0.97101 0.0
C1801 C 0.74932 0.64225 0.94386 0.0
C1802 C 0.75499 0.62415 0.96076 0.0
N1803 N 0.7474 0.62706 0.94751 0.0
C1804 C 0.79321 0.70016 0.95478 0.0
C1805 C 0.76854 0.70499 0.95682 0.0
C1806 C 0.794 0.70656 0.94066 0.0
N1807 N 0.7806 0.69946 0.96252 0.0
C1808 C 0.76884 0.71145 0.94272 0.0
C1809 C 0.78167 0.71225 0.93435 0.0
H1810 H 0.8026 0.69558 0.9595 0.0
H1811 H 0.75861 0.70425 0.96316 0.0
C1812 C 0.7399 0.64729 0.00633 0.0
N1813 N 0.74328 0.65521 0.99399 0.0
C1814 C 0.72507 0.63834 0.0068 0.0
C1815 C 0.71741 0.64572 0.98177 0.0
C1816 C 0.73238 0.65463 0.98185 0.0
C1817 C 0.71353 0.63754 0.99446 0.0
H1818 H 0.74863 0.64822 0.01604 0.0
H1819 H 0.7352 0.66143 0.9724 0.0
O1820 O 0.7981 0.69504 0.99743 0.0
O1821 O 0.777 0.67061 0.01443 0.0
O1822 O 0.76293 0.69208 0.99435 0.0
O1823 O 0.7767 0.66531 0.97754 0.0
H1824 H 0.82448 0.70045 0.01553 0.0
H1825 H 0.79527 0.72245 0.98793 0.0
H1826 H 0.84319 0.72698 0.02218 0.0
H1827 H 0.81447 0.7486 0.99507 0.0
H1828 H 0.78464 0.6238 0.02913 0.0
H1829 H 0.7942 0.68348 0.04177 0.0
H1830 H 0.77343 0.63872 0.0103 0.0
H1831 H 0.80489 0.66778 0.06011 0.0
H1832 H 0.80228 0.74106 0.05556 0.0
H1833 H 0.7623 0.70568 0.06218 0.0
H1834 H 0.8214 0.63169 0.9773 0.0
H1835 H 0.83828 0.66008 0.02375 0.0
H1836 H 0.7391 0.68531 0.01024 0.0
H1837 H 0.77039 0.72376 0.99461 0.0
H1838 H 0.72647 0.70578 0.02349 0.0
H1839 H 0.75727 0.74356 0.0082 0.0
H1840 H 0.76074 0.66744 0.95097 0.0
H1841 H 0.7711 0.63463 0.98154 0.0
H1842 H 0.74311 0.64417 0.93324 0.0
H1843 H 0.75323 0.61193 0.96333 0.0
H1844 H 0.80406 0.70669 0.93459 0.0
H1845 H 0.75914 0.71586 0.93849 0.0
H1846 H 0.72268 0.63215 0.01677 0.0
H1847 H 0.70886 0.64568 0.97213 0.0
Li1848 Li 0.90642 0.52522 0.77455 0.0
Li1849 Li 0.92672 0.54018 0.79414 0.0
Li1850 Li 0.91228 0.55392 0.77595 0.0
Li1851 Li 0.92977 0.53665 0.76601 0.0
C1852 C 0.89311 0.53417 0.8 0.0
N1853 N 0.86901 0.51851 0.81401 0.0
C1854 C 0.89418 0.52044 0.80663 0.0
C1855 C 0.87982 0.54002 0.80057 0.0
C1856 C 0.88185 0.51266 0.81362 0.0
C1857 C 0.86776 0.53192 0.8077 0.0
C1858 C 0.93846 0.5138 0.78368 0.0
C1859 C 0.96568 0.51707 0.78903 0.0
N1860 N 0.96338 0.50169 0.79221 0.0
C1861 C 0.93635 0.49798 0.7869 0.0
C1862 C 0.95322 0.52339 0.78466 0.0
C1863 C 0.9491 0.49209 0.79123 0.0
C1864 C 0.89608 0.49334 0.76183 0.0
N1865 N 0.89079 0.50609 0.76859 0.0
C1866 C 0.86519 0.49016 0.76399 0.0
C1867 C 0.87564 0.50493 0.76946 0.0
C1868 C 0.87043 0.47667 0.75729 0.0
C1869 C 0.88607 0.4785 0.75599 0.0
H1870 H 0.90811 0.49481 0.76069 0.0
H1871 H 0.87163 0.51543 0.77422 0.0
C1872 C 0.94498 0.55716 0.82213 0.0
N1873 N 0.93703 0.54229 0.81456 0.0
C1874 C 0.9543 0.55863 0.83633 0.0
C1875 C 0.9467 0.52949 0.83474 0.0
C1876 C 0.93733 0.52864 0.8208 0.0
C1877 C 0.95548 0.54459 0.84245 0.0
H1878 H 0.94444 0.5678 0.81688 0.0
H1879 H 0.93069 0.51701 0.81468 0.0
C1880 C 0.89771 0.5296 0.74574 0.0
N1881 N 0.87371 0.51276 0.72333 0.0
C1882 C 0.89994 0.51765 0.7338 0.0
C1883 C 0.88332 0.53307 0.74623 0.0
C1884 C 0.88765 0.50924 0.7226 0.0
C1885 C 0.87132 0.5244 0.7348 0.0
C1886 C 0.94725 0.5685 0.77871 0.0
C1887 C 0.94534 0.57896 0.76802 0.0
C1888 C 0.96173 0.56985 0.78669 0.0
C1889 C 0.95801 0.59031 0.76516 0.0
C1890 C 0.97412 0.58136 0.78352 0.0
N1891 N 0.97203 0.59125 0.77289 0.0
C1892 C 0.89897 0.58005 0.78547 0.0
C1893 C 0.9023 0.57497 0.75819 0.0
C1894 C 0.891 0.59184 0.78277 0.0
N1895 N 0.90418 0.57178 0.77318 0.0
C1896 C 0.89447 0.58668 0.75496 0.0
C1897 C 0.88842 0.59503 0.76728 0.0
H1898 H 0.90052 0.57703 0.79722 0.0
H1899 H 0.9065 0.56805 0.74867 0.0
C1900 C 0.94238 0.51676 0.74515 0.0
N1901 N 0.94136 0.5324 0.74927 0.0
C1902 C 0.94687 0.51157 0.73055 0.0
C1903 C 0.94947 0.53875 0.72472 0.0
C1904 C 0.94495 0.54344 0.7395 0.0
C1905 C 0.94998 0.52249 0.71994 0.0
H1906 H 0.93858 0.50793 0.75258 0.0
H1907 H 0.94318 0.55551 0.7426 0.0
O1908 O 0.90501 0.5419 0.79303 0.0
O1909 O 0.92603 0.51978 0.77967 0.0
O1910 O 0.90953 0.53774 0.75699 0.0
O1911 O 0.93491 0.55748 0.78185 0.0
H1912 H 0.90432 0.51568 0.80614 0.0
H1913 H 0.87881 0.55062 0.79545 0.0
H1914 H 0.88248 0.50194 0.8187 0.0
H1915 H 0.85738 0.53626 0.80818 0.0
H1916 H 0.97718 0.52439 0.78985 0.0
H1917 H 0.92498 0.49039 0.7862 0.0
H1918 H 0.95502 0.5355 0.78192 0.0
H1919 H 0.94764 0.47991 0.79384 0.0
H1920 H 0.85322 0.48928 0.76521 0.0
H1921 H 0.89057 0.46859 0.75048 0.0
H1922 H 0.96099 0.57044 0.84209 0.0
H1923 H 0.9473 0.51847 0.83932 0.0
H1924 H 0.911 0.5148 0.73325 0.0
H1925 H 0.88138 0.5422 0.75548 0.0
H1926 H 0.88918 0.49991 0.71334 0.0
H1927 H 0.86009 0.52688 0.73509 0.0
H1928 H 0.93422 0.57821 0.76186 0.0
H1929 H 0.96341 0.5622 0.79534 0.0
H1930 H 0.9567 0.59837 0.75681 0.0
H1931 H 0.9854 0.58248 0.78955 0.0
H1932 H 0.88636 0.59787 0.79256 0.0
H1933 H 0.89291 0.58893 0.74291 0.0
H1934 H 0.94719 0.49894 0.7273 0.0
H1935 H 0.95153 0.54747 0.71672 0.0
Li1936 Li 0.79052 0.40694 0.52081 0.0
Li1937 Li 0.77637 0.4249 0.50911 0.0
Li1938 Li 0.79165 0.4084 0.49332 0.0
Li1939 Li 0.8042 0.43169 0.51319 0.0
C1940 C 0.765 0.3879 0.50957 0.0
N1941 N 0.74973 0.36249 0.52285 0.0
C1942 C 0.75325 0.38997 0.51871 0.0
C1943 C 0.76895 0.3729 0.50712 0.0
C1944 C 0.74566 0.37697 0.52533 0.0
C1945 C 0.76111 0.3602 0.51396 0.0
C1946 C 0.79387 0.44189 0.54163 0.0
C1947 C 0.79569 0.46982 0.553 0.0
N1948 N 0.80283 0.46741 0.56674 0.0
C1949 C 0.80112 0.43966 0.55592 0.0
C1950 C 0.79104 0.45706 0.5402 0.0
C1951 C 0.80561 0.45273 0.56844 0.0
C1952 C 0.80213 0.38534 0.53682 0.0
N1953 N 0.79157 0.39448 0.53706 0.0
C1954 C 0.78744 0.39076 0.5635 0.0
C1955 C 0.78391 0.39695 0.54983 0.0
C1956 C 0.79886 0.38194 0.56383 0.0
C1957 C 0.8059 0.37881 0.55011 0.0
H1958 H 0.80828 0.3839 0.52669 0.0
H1959 H 0.77576 0.40454 0.54974 0.0
C1960 C 0.75239 0.43613 0.49519 0.0
N1961 N 0.75883 0.43326 0.50904 0.0
C1962 C 0.73999 0.44341 0.49513 0.0
C1963 C 0.74086 0.4441 0.5235 0.0
C1964 C 0.75326 0.43685 0.52301 0.0
C1965 C 0.73421 0.44766 0.50945 0.0
H1966 H 0.7571 0.43306 0.48427 0.0
H1967 H 0.75866 0.43436 0.53382 0.0
C1968 C 0.81921 0.4036 0.50203 0.0
N1969 N 0.84018 0.3905 0.48593 0.0
C1970 C 0.83277 0.41364 0.49917 0.0
C1971 C 0.81637 0.38687 0.49672 0.0
C1972 C 0.84322 0.40679 0.49102 0.0
C1973 C 0.82709 0.38049 0.48858 0.0
C1974 C 0.79477 0.44545 0.48741 0.0
C1975 C 0.80381 0.44603 0.47494 0.0
C1976 C 0.78959 0.45915 0.49331 0.0
C1977 C 0.80772 0.4604 0.46878 0.0
C1978 C 0.79375 0.47329 0.48683 0.0
N1979 N 0.80267 0.47363 0.47481 0.0
C1980 C 0.78062 0.38336 0.46734 0.0
C1981 C 0.80475 0.40003 0.4652 0.0
C1982 C 0.78121 0.37329 0.45319 0.0
N1983 N 0.79238 0.39628 0.47314 0.0
C1984 C 0.80592 0.39016 0.45114 0.0
C1985 C 0.7941 0.37653 0.44507 0.0
H1986 H 0.77088 0.38072 0.47384 0.0
H1987 H 0.81393 0.41038 0.47004 0.0
C1988 C 0.82981 0.44423 0.53339 0.0
N1989 N 0.82241 0.44772 0.52037 0.0
C1990 C 0.84469 0.45258 0.539 0.0
C1991 C 0.84418 0.46822 0.51776 0.0
C1992 C 0.82905 0.45982 0.51281 0.0
C1993 C 0.85237 0.46416 0.53067 0.0
H1994 H 0.82446 0.43417 0.53882 0.0
H1995 H 0.8231 0.4623 0.50238 0.0
O1996 O 0.77285 0.40061 0.50337 0.0
O1997 O 0.78937 0.42921 0.52923 0.0
O1998 O 0.80882 0.41009 0.50999 0.0
O1999 O 0.79069 0.43142 0.49346 0.0
H2000 H 0.7501 0.40153 0.52077 0.0
H2001 H 0.77808 0.37113 0.50015 0.0
H2002 H 0.73658 0.37841 0.53248 0.0
H2003 H 0.76409 0.34854 0.51223 0.0
H2004 H 0.79359 0.48163 0.55202 0.0
H2005 H 0.80345 0.42804 0.55727 0.0
H2006 H 0.78527 0.45896 0.52936 0.0
H2007 H 0.81132 0.45119 0.57952 0.0
H2008 H 0.78169 0.3933 0.57384 0.0
H2009 H 0.81488 0.37223 0.54997 0.0
H2010 H 0.73505 0.44579 0.48403 0.0
H2011 H 0.73685 0.44734 0.53481 0.0
H2012 H 0.8352 0.4266 0.50307 0.0
H2013 H 0.80586 0.37891 0.49859 0.0
H2014 H 0.85373 0.41443 0.48871 0.0
H2015 H 0.82497 0.36759 0.48431 0.0
H2016 H 0.80781 0.43554 0.47011 0.0
H2017 H 0.78234 0.45887 0.50269 0.0
H2018 H 0.81477 0.46103 0.45919 0.0
H2019 H 0.78984 0.48399 0.49133 0.0
H2020 H 0.77189 0.36284 0.44887 0.0
H2021 H 0.81596 0.39314 0.44509 0.0
H2022 H 0.85039 0.44926 0.54919 0.0
H2023 H 0.84965 0.47693 0.51084 0.0
Li2024 Li 0.6465 0.51395 0.28528 0.0
Li2025 Li 0.66837 0.53119 0.27073 0.0
Li2026 Li 0.64637 0.51164 0.25403 0.0
Li2027 Li 0.66585 0.49811 0.26841 0.0
C2028 C 0.63296 0.53556 0.26642 0.0
N2029 N 0.60639 0.5443 0.25666 0.0
C2030 C 0.63348 0.54829 0.25781 0.0
C2031 C 0.61894 0.52744 0.27023 0.0
C2032 C 0.61992 0.55248 0.25292 0.0
C2033 C 0.60563 0.532 0.26517 0.0
C2034 C 0.68126 0.52383 0.29998 0.0
C2035 C 0.70737 0.52848 0.31161 0.0
N2036 N 0.70444 0.53884 0.32396 0.0
C2037 C 0.67847 0.5345 0.31277 0.0
C2038 C 0.69579 0.52076 0.29937 0.0
C2039 C 0.69036 0.54197 0.32478 0.0
C2040 C 0.63394 0.50253 0.31488 0.0
N2041 N 0.63563 0.51494 0.30626 0.0
C2042 C 0.62361 0.52968 0.32624 0.0
C2043 C 0.63055 0.52841 0.31192 0.0
C2044 C 0.62173 0.51711 0.33548 0.0
C2045 C 0.62715 0.50337 0.32932 0.0
H2046 H 0.63794 0.49182 0.31063 0.0
H2047 H 0.63196 0.53842 0.3054 0.0
C2048 C 0.67818 0.56207 0.2596 0.0
N2049 N 0.68191 0.55403 0.27142 0.0
C2050 C 0.68595 0.57816 0.2591 0.0
C2051 C 0.70189 0.57785 0.28277 0.0
C2052 C 0.69368 0.56174 0.2829 0.0
C2053 C 0.69812 0.58659 0.27078 0.0
H2054 H 0.66899 0.55601 0.25041 0.0
H2055 H 0.69678 0.55549 0.2923 0.0
C2056 C 0.63067 0.48101 0.26044 0.0
N2057 N 0.60693 0.45591 0.24535 0.0
C2058 C 0.63355 0.46857 0.24949 0.0
C2059 C 0.61576 0.48053 0.26394 0.0
C2060 C 0.62138 0.45602 0.24193 0.0
C2061 C 0.6039 0.46778 0.25612 0.0
C2062 C 0.67053 0.51103 0.23659 0.0
C2063 C 0.66568 0.4954 0.22779 0.0
C2064 C 0.67676 0.52394 0.22908 0.0
C2065 C 0.66682 0.49298 0.21152 0.0
C2066 C 0.67771 0.52103 0.21278 0.0
N2067 N 0.67274 0.50574 0.20441 0.0
C2068 C 0.63887 0.52436 0.22474 0.0
C2069 C 0.62189 0.49932 0.22455 0.0
C2070 C 0.63192 0.52558 0.20966 0.0
N2071 N 0.63399 0.51134 0.23208 0.0
C2072 C 0.61451 0.50013 0.20944 0.0
C2073 C 0.61946 0.51338 0.20148 0.0
H2074 H 0.64834 0.534 0.23059 0.0
H2075 H 0.61787 0.48893 0.23014 0.0
C2076 C 0.66987 0.46415 0.27204 0.0
N2077 N 0.67703 0.47854 0.26797 0.0
C2078 C 0.67689 0.4507 0.27166 0.0
C2079 C 0.69885 0.46658 0.26302 0.0
C2080 C 0.69139 0.47973 0.26349 0.0
C2081 C 0.69174 0.45149 0.26709 0.0
H2082 H 0.65853 0.46295 0.27564 0.0
H2083 H 0.69722 0.49096 0.26015 0.0
O2084 O 0.64603 0.53096 0.27105 0.0
O2085 O 0.66982 0.51651 0.28807 0.0
O2086 O 0.64244 0.49343 0.26791 0.0
O2087 O 0.66914 0.51367 0.25246 0.0
H2088 H 0.64419 0.55486 0.25486 0.0
H2089 H 0.61835 0.51775 0.27707 0.0
H2090 H 0.62017 0.56224 0.24617 0.0
H2091 H 0.5947 0.52576 0.26801 0.0
H2092 H 0.7187 0.52625 0.3113 0.0
H2093 H 0.66727 0.53701 0.31336 0.0
H2094 H 0.6981 0.51255 0.28951 0.0
H2095 H 0.6884 0.55027 0.33475 0.0
H2096 H 0.62002 0.54073 0.33015 0.0
H2097 H 0.62603 0.4931 0.33549 0.0
H2098 H 0.6821 0.58395 0.24965 0.0
H2099 H 0.71123 0.58328 0.29202 0.0
H2100 H 0.64505 0.46852 0.24693 0.0
H2101 H 0.61335 0.48981 0.27267 0.0
H2102 H 0.62344 0.44635 0.23337 0.0
H2103 H 0.59229 0.4673 0.25865 0.0
H2104 H 0.66103 0.48527 0.23346 0.0
H2105 H 0.68078 0.53607 0.23573 0.0
H2106 H 0.66299 0.48095 0.20455 0.0
H2107 H 0.68241 0.53092 0.2068 0.0
H2108 H 0.63626 0.53627 0.2046 0.0
H2109 H 0.60513 0.49019 0.20394 0.0
H2110 H 0.67064 0.43977 0.2752 0.0
H2111 H 0.7101 0.46827 0.25917 0.0
Gd2112 Gd 0.02169 0.02558 0.00421 0.0
Gd2113 Gd 0.05115 0.04577 0.02245 0.0
C2114 C 0.02961 0.06443 0.00464 0.0
C2115 C 0.99309 0.01193 0.99668 0.0
C2116 C 0.9793 0.01724 1.00053 0.0
C2117 C 0.96523 0.00971 0.99161 0.0
C2118 C 0.98046 0.03103 0.01201 0.0
C2119 C 0.95371 0.03041 0.00489 0.0
C2120 C 0.96776 0.03755 0.0142 0.0
C2121 C 0.95249 0.01623 0.99379 0.0
C2122 C 0.04343 0.02522 0.98304 0.0
C2123 C 0.0433 0.00687 0.02189 0.0
C2124 C 0.0797 0.05941 0.03038 0.0
C2125 C 0.09381 0.05433 0.02723 0.0
C2126 C 0.10599 0.05788 0.03938 0.0
C2127 C 0.09446 0.04413 0.01304 0.0
C2128 C 0.11889 0.04016 0.02368 0.0
C2129 C 0.10699 0.0372 0.01123 0.0
C2130 C 0.11843 0.05081 0.03765 0.0
C2131 C 0.02941 0.04627 0.04361 0.0
O2132 O 0.01881 0.05094 1.0027 0.0
O2133 O 0.04354 0.06511 0.01106 0.0
O2134 O 1.00119 0.02065 0.98772 0.0
O2135 O 1.00141 0.00876 0.00853 0.0
O2136 O 0.02934 0.01723 0.98045 0.0
O2137 O 0.04568 0.03248 0.9975 0.0
O2138 O 0.05404 0.02043 0.02408 0.0
O2139 O 0.02941 0.00614 0.01531 0.0
O2140 O 0.07142 0.0508 0.03927 0.0
O2141 O 0.07159 0.06247 0.01829 0.0
O2142 O 0.0435 0.05422 0.04612 0.0
O2143 O 0.02711 0.03894 0.02916 0.0
H2144 H 0.96422 0.99912 0.98262 0.0
H2145 H 0.99134 0.03712 0.01885 0.0
H2146 H 0.96915 0.0486 0.02268 0.0
H2147 H 0.94177 0.01036 0.98658 0.0
H2148 H 0.10556 0.06558 0.05047 0.0
H2149 H 0.08502 0.04098 0.00365 0.0
H2150 H 0.10699 0.02889 1.00043 0.0
H2151 H 0.12753 0.05333 0.04736 0.0
Gd2152 Gd 0.29051 0.77768 0.24797 0.0
Gd2153 Gd 0.28344 0.79252 0.28097 0.0
C2154 C 0.2951 0.81686 0.25825 0.0
C2155 C 0.29704 0.77221 0.21929 0.0
C2156 C 0.30298 0.78336 0.20866 0.0
C2157 C 0.30179 0.7779 0.19232 0.0
C2158 C 0.31018 0.79958 0.21492 0.0
C2159 C 0.31442 0.80496 0.18856 0.0
C2160 C 0.31569 0.81035 0.20493 0.0
C2161 C 0.30757 0.78863 0.18231 0.0
C2162 C 0.31127 0.77886 0.27292 0.0
C2163 C 0.27445 0.75349 0.26857 0.0
C2164 C 0.28328 0.79929 0.31104 0.0
C2165 C 0.27257 0.79072 0.32056 0.0
C2166 C 0.27442 0.79484 0.3371 0.0
C2167 C 0.26137 0.77705 0.313 0.0
C2168 C 0.25517 0.77055 0.33853 0.0
C2169 C 0.25284 0.76691 0.32194 0.0
C2170 C 0.26563 0.78484 0.34607 0.0
C2171 C 0.25784 0.78679 0.25957 0.0
O2172 O 0.29254 0.80416 0.24679 0.0
O2173 O 0.29453 0.81545 0.27329 0.0
O2174 O 0.30654 0.77267 0.23176 0.0
O2175 O 0.28309 0.7719 0.22261 0.0
O2176 O 0.30661 0.76657 0.26156 0.0
O2177 O 0.3047 0.79016 0.27071 0.0
O2178 O 0.27885 0.7656 0.28064 0.0
O2179 O 0.27541 0.75556 0.25369 0.0
O2180 O 0.27737 0.80722 0.30113 0.0
O2181 O 0.29213 0.79052 0.30461 0.0
O2182 O 0.25853 0.79278 0.27442 0.0
O2183 O 0.27063 0.78393 0.25727 0.0
H2184 H 0.29637 0.76541 0.18733 0.0
H2185 H 0.31166 0.80393 0.22755 0.0
H2186 H 0.32101 0.82286 0.20999 0.0
H2187 H 0.30636 0.78429 0.16966 0.0
H2188 H 0.28306 0.8053 0.34307 0.0
H2189 H 0.25974 0.77378 0.3002 0.0
H2190 H 0.24488 0.75591 0.31594 0.0
H2191 H 0.26769 0.7877 0.3589 0.0
Gd2192 Gd 0.55397 0.03787 0.51331 0.0
Gd2193 Gd 0.51868 0.03412 0.50881 0.0
C2194 C 0.53076 1.0016 0.50363 0.0
C2195 C 0.58146 0.03561 0.52236 0.0
C2196 C 0.59175 0.0242 0.52114 0.0
C2197 C 0.59572 0.01772 0.50646 0.0
C2198 C 0.5986 0.02063 0.53508 0.0
C2199 C 0.61369 1.00489 0.51981 0.0
C2200 C 0.60939 0.01108 0.53444 0.0
C2201 C 0.60658 0.0082 0.50581 0.0
C2202 C 0.5417 0.03941 0.48429 0.0
C2203 C 0.54188 0.07035 0.51807 0.0
C2204 C 0.49112 0.03642 0.5 0.0
C2205 C 0.48073 0.04783 0.50122 0.0
C2206 C 0.47119 0.04815 0.51337 0.0
C2207 C 0.47913 0.05733 0.48939 0.0
C2208 C 0.45837 0.06675 0.50155 0.0
C2209 C 0.46814 0.06669 0.48958 0.0
C2210 C 0.46021 0.0575 0.51356 0.0
C2211 C 0.53125 0.03304 0.53805 0.0
O2212 O 0.54447 0.01057 0.50976 0.0
O2213 O 0.51914 0.00818 0.50026 0.0
O2214 O 0.57782 0.04143 0.50964 0.0
O2215 O 0.57008 0.03243 0.53082 0.0
O2216 O 0.5551 0.04799 0.49048 0.0
O2217 O 0.53595 0.02992 0.49317 0.0
O2218 O 0.5282 0.06139 0.51182 0.0
O2219 O 0.55339 0.06375 0.52183 0.0
O2220 O 0.49488 0.03076 0.51277 0.0
O2221 O 0.50238 0.03929 0.49133 0.0
O2222 O 0.51773 0.02456 0.53208 0.0
O2223 O 0.53675 0.04221 0.52882 0.0
H2224 H 0.59065 0.02021 0.49547 0.0
H2225 H 0.59585 0.02557 0.54656 0.0
H2226 H 0.61473 0.00898 0.54548 0.0
H2227 H 0.60944 1.00347 0.49433 0.0
H2228 H 0.47189 0.0408 0.52255 0.0
H2229 H 0.48615 0.05728 0.47975 0.0
H2230 H 0.46725 0.0738 0.48024 0.0
H2231 H 0.45279 0.05701 0.52285 0.0
Gd2232 Gd 0.26778 0.28672 0.76108 0.0
Gd2233 Gd 0.3035 0.28436 0.76326 0.0
C2234 C 0.28875 0.29473 0.7955 0.0
C2235 C 0.23869 0.27874 0.76283 0.0
C2236 C 0.22676 0.2824 0.77284 0.0
C2237 C 0.21604 0.2907 0.76742 0.0
C2238 C 0.22497 0.27623 0.78707 0.0
C2239 C 0.20166 0.28596 0.78988 0.0
C2240 C 0.21261 0.27799 0.79546 0.0
C2241 C 0.2037 0.29253 0.77587 0.0
C2242 C 0.28712 0.31693 0.76197 0.0
C2243 C 0.28245 0.27606 0.72886 0.0
C2244 C 0.33252 0.29279 0.76121 0.0
C2245 C 0.34486 0.29007 0.75147 0.0
C2246 C 0.35003 0.27562 0.7499 0.0
C2247 C 0.35222 0.30282 0.74424 0.0
C2248 C 0.36978 0.28692 0.73411 0.0
C2249 C 0.36446 0.30127 0.73566 0.0
C2250 C 0.36239 0.27407 0.74131 0.0
C2251 C 0.28408 0.2544 0.76314 0.0
O2252 O 0.27501 0.29172 0.78737 0.0
O2253 O 0.30137 0.29374 0.78882 0.0
O2254 O 0.24481 0.28957 0.75444 0.0
O2255 O 0.24856 0.27135 0.76879 0.0
O2256 O 0.27228 0.31412 0.76107 0.0
O2257 O 0.29045 0.30329 0.76249 0.0
O2258 O 0.2961 0.27829 0.73699 0.0
O2259 O 0.26999 0.2779 0.73543 0.0
O2260 O 0.32667 0.28185 0.76963 0.0
O2261 O 0.32235 0.29955 0.75487 0.0
O2262 O 0.29894 0.25715 0.76447 0.0
O2263 O 0.28088 0.26796 0.76194 0.0
H2264 H 0.217 0.29547 0.75644 0.0
H2265 H 0.23286 0.26958 0.79156 0.0
H2266 H 0.21137 0.27253 0.80603 0.0
H2267 H 0.19567 0.29897 0.77129 0.0
H2268 H 0.34465 0.26558 0.75539 0.0
H2269 H 0.34865 0.3142 0.74545 0.0
H2270 H 0.37002 0.31154 0.73058 0.0
H2271 H 0.36613 0.26281 0.74027 0.0
Gd2272 Gd 0.03401 0.05289 0.52137 0.0
Gd2273 Gd 0.03738 0.01728 0.50502 0.0
C2274 C 0.02221 0.03954 0.48274 0.0
C2275 C 0.03919 0.08371 0.53069 0.0
C2276 C 0.04389 0.09784 0.52303 0.0
C2277 C 0.03972 0.11228 0.52861 0.0
C2278 C 0.05109 0.09649 0.5092 0.0
C2279 C 0.04926 0.12377 0.50612 0.0
C2280 C 0.05386 0.10942 0.50085 0.0
C2281 C 0.04237 0.12518 0.5202 0.0
C2282 C 0.00995 0.029 0.5255 0.0
C2283 C 0.04905 0.03055 0.54371 0.0
C2284 C 0.03269 0.98648 0.49577 0.0
C2285 C 0.02839 0.9724 0.50359 0.0
C2286 C 0.03057 0.95737 0.49664 0.0
C2287 C 0.02361 0.97429 0.51874 0.0
C2288 C 0.02407 0.94631 0.52037 0.0
C2289 C 0.02142 0.96132 0.52707 0.0
C2290 C 0.0284 0.94437 0.50497 0.0
C2291 C 0.06117 0.04138 0.50068 0.0
O2292 O 0.0262 0.05211 0.49476 0.0
O2293 O 0.02437 0.0249 0.48442 0.0
O2294 O 0.02559 0.07471 0.52515 0.0
O2295 O 0.04946 0.07526 0.53302 0.0
O2296 O 0.01148 0.04426 0.53104 0.0
O2297 O 0.02147 0.0277 0.51857 0.0
O2298 O 0.04548 0.01812 0.53154 0.0
O2299 O 0.04654 0.04509 0.54218 0.0
O2300 O 0.04621 0.99575 0.50117 0.0
O2301 O 0.02218 0.99466 0.49355 0.0
O2302 O 0.05967 0.0262 0.49487 0.0
O2303 O 0.0498 0.04243 0.50788 0.0
H2304 H 0.03401 0.1134 0.5392 0.0
H2305 H 0.05411 0.08527 0.50457 0.0
H2306 H 0.05903 0.10796 0.48994 0.0
H2307 H 0.03884 0.13617 0.52456 0.0
H2308 H 0.03437 0.95581 0.48498 0.0
H2309 H 0.02207 0.98594 0.52433 0.0
H2310 H 0.01826 0.96323 0.53898 0.0
H2311 H 0.03034 0.93289 0.49945 0.0
Gd2312 Gd 0.30106 0.79781 0.76281 0.0
Gd2313 Gd 0.26965 0.77208 0.75621 0.0
C2314 C 0.30096 0.75811 0.7601 0.0
C2315 C 0.32829 0.81466 0.77297 0.0
C2316 C 0.34299 0.81028 0.77578 0.0
C2317 C 0.35616 0.81996 0.77163 0.0
C2318 C 0.34376 0.79576 0.78123 0.0
C2319 C 0.37071 0.80041 0.7779 0.0
C2320 C 0.35752 0.79087 0.7823 0.0
C2321 C 0.36993 0.81508 0.77269 0.0
C2322 C 0.28887 0.78793 0.73238 0.0
C2323 C 0.27016 0.81199 0.76105 0.0
C2324 C 0.24474 0.75352 0.7415 0.0
C2325 C 0.2286 0.75263 0.74332 0.0
C2326 C 0.22393 0.75604 0.75841 0.0
C2327 C 0.21797 0.74979 0.7298 0.0
C2328 C 0.19826 0.75462 0.74636 0.0
C2329 C 0.20292 0.7508 0.73129 0.0
C2330 C 0.20886 0.75692 0.75991 0.0
C2331 C 0.27592 0.78414 0.78761 0.0
O2332 O 0.30885 0.77361 0.76335 0.0
O2333 O 0.2858 0.75461 0.75648 0.0
O2334 O 0.32255 0.81208 0.75808 0.0
O2335 O 0.31812 0.81017 0.78243 0.0
O2336 O 0.29627 0.80273 0.73794 0.0
O2337 O 0.28892 0.77921 0.74296 0.0
O2338 O 0.26247 0.79665 0.75544 0.0
O2339 O 0.28505 0.81522 0.76613 0.0
O2340 O 0.25281 0.74944 0.75306 0.0
O2341 O 0.25181 0.76661 0.73649 0.0
O2342 O 0.26359 0.77335 0.78154 0.0
O2343 O 0.28378 0.7874 0.77664 0.0
H2344 H 0.35572 0.83114 0.76731 0.0
H2345 H 0.33369 0.78802 0.78437 0.0
H2346 H 0.35775 0.77945 0.78622 0.0
H2347 H 0.37999 0.82278 0.76946 0.0
H2348 H 0.232 0.75842 0.76902 0.0
H2349 H 0.22144 0.74733 0.71807 0.0
H2350 H 0.19512 0.74922 0.72059 0.0
H2351 H 0.20559 0.75969 0.77168 0.0
Gd2352 Gd 0.54312 0.0407 0.03208 0.0
Gd2353 Gd 0.52869 0.02667 0.99842 0.0
C2354 C 0.50726 0.02106 0.02469 0.0
C2355 C 0.54786 0.05353 0.06156 0.0
C2356 C 0.53911 0.04832 0.0744 0.0
C2357 C 0.54541 0.04016 0.08535 0.0
C2358 C 0.52362 0.04879 0.07412 0.0
C2359 C 0.52044 0.03104 0.09381 0.0
C2360 C 0.51435 0.04016 0.08368 0.0
C2361 C 0.53615 0.03157 0.09495 0.0
C2362 C 0.54706 0.01097 0.02101 0.0
C2363 C 0.5645 0.04654 0.00566 0.0
C2364 C 0.52373 0.01415 0.96888 0.0
C2365 C 0.5323 0.01969 0.95605 0.0
C2366 C 0.52583 0.028 0.94535 0.0
C2367 C 0.5478 0.01933 0.95612 0.0
C2368 C 0.55061 0.03723 0.93659 0.0
C2369 C 0.55689 0.02811 0.94655 0.0
C2370 C 0.53491 0.03671 0.93569 0.0
C2371 C 0.52494 0.05646 0.00962 0.0
O2372 O 0.51784 0.03245 0.03404 0.0
O2373 O 0.50988 0.01436 0.01065 0.0
O2374 O 0.55543 0.04322 0.05537 0.0
O2375 O 0.54077 0.0596 0.05081 0.0
O2376 O 0.55739 0.02209 0.03023 0.0
O2377 O 0.53496 0.01578 0.01878 0.0
O2378 O 0.55394 0.03515 0.99626 0.0
O2379 O 0.56193 0.05299 0.01982 0.0
O2380 O 0.51606 0.02424 0.97531 0.0
O2381 O 0.53103 0.00805 0.97942 0.0
O2382 O 0.51447 0.04538 1.00054 0.0
O2383 O 0.53697 0.05154 0.01167 0.0
H2384 H 0.55733 0.03969 0.08587 0.0
H2385 H 0.51841 0.05508 0.0659 0.0
H2386 H 0.50229 0.04004 0.08259 0.0
H2387 H 0.54123 0.02502 0.103 0.0
H2388 H 0.51392 0.02848 0.94507 0.0
H2389 H 0.55313 0.01291 0.96411 0.0
H2390 H 0.56888 0.02795 0.9471 0.0
H2391 H 0.52979 0.04356 0.92799 0.0
Gd2392 Gd 0.29715 0.30142 0.26864 0.0
Gd2393 Gd 0.27818 0.26869 0.25568 0.0
C2394 C 0.2602 0.29496 0.26615 0.0
C2395 C 0.30851 0.33225 0.2757 0.0
C2396 C 0.30128 0.34598 0.27542 0.0
C2397 C 0.30619 0.35989 0.28704 0.0
C2398 C 0.2884 0.34455 0.2645 0.0
C2399 C 0.28492 0.37047 0.27734 0.0
C2400 C 0.2803 0.35669 0.26545 0.0
C2401 C 0.29809 0.37213 0.28796 0.0
C2402 C 0.29479 0.28084 0.28997 0.0
C2403 C 0.31511 0.27528 0.25803 0.0
C2404 C 0.26728 0.23779 0.24901 0.0
C2405 C 0.27491 0.22454 0.25068 0.0
C2406 C 0.27165 0.21058 0.23904 0.0
C2407 C 0.28687 0.2267 0.26291 0.0
C2408 C 0.29292 0.20161 0.25126 0.0
C2409 C 0.29576 0.21533 0.26321 0.0
C2410 C 0.28056 0.19912 0.23936 0.0
C2411 C 0.2804 0.28925 0.23434 0.0
O2412 O 0.27323 0.3055 0.26615 0.0
O2413 O 0.25936 0.27926 0.26414 0.0
O2414 O 0.30422 0.32323 0.28629 0.0
O2415 O 0.30905 0.32373 0.26189 0.0
O2416 O 0.3072 0.29129 0.28877 0.0
O2417 O 0.28407 0.28207 0.28014 0.0
O2418 O 0.30217 0.26476 0.25851 0.0
O2419 O 0.3158 0.29093 0.25969 0.0
O2420 O 0.27219 0.24653 0.23841 0.0
O2421 O 0.26559 0.24659 0.26227 0.0
O2422 O 0.26808 0.27862 0.23544 0.0
O2423 O 0.29117 0.28805 0.24414 0.0
H2424 H 0.31601 0.36108 0.29566 0.0
H2425 H 0.28437 0.33386 0.25546 0.0
H2426 H 0.27033 0.35523 0.25696 0.0
H2427 H 0.30184 0.38262 0.29726 0.0
H2428 H 0.26258 0.20884 0.22942 0.0
H2429 H 0.28969 0.23746 0.27197 0.0
H2430 H 0.30506 0.21742 0.27265 0.0
H2431 H 0.27818 0.18866 0.22999 0.0
Gd2432 Gd 0.53439 0.55102 0.01937 0.0
Gd2433 Gd 0.53834 0.5197 0.00446 0.0
C2434 C 0.52336 0.53925 0.9806 0.0
C2435 C 0.53425 0.58131 0.02694 0.0
C2436 C 0.53377 0.59444 0.01787 0.0
C2437 C 0.52859 0.60796 0.02439 0.0
C2438 C 0.53847 0.59356 1.00265 0.0
C2439 C 0.53347 0.62003 1.00079 0.0
C2440 C 0.53834 0.60625 0.99419 0.0
C2441 C 0.52845 0.62069 0.01592 0.0
C2442 C 0.51193 0.52601 0.02366 0.0
C2443 C 0.54898 0.53132 0.04326 0.0
C2444 C 0.53847 0.4894 0.99715 0.0
C2445 C 0.53653 0.47575 0.00598 0.0
C2446 C 0.5471 0.46591 0.00554 0.0
C2447 C 0.52445 0.47273 0.01526 0.0
C2448 C 0.53344 0.45006 0.02338 0.0
C2449 C 0.52287 0.45993 0.0238 0.0
C2450 C 0.54562 0.45319 0.01425 0.0
C2451 C 0.56096 0.54478 1.00046 0.0
O2452 O 0.52737 0.55147 0.9928 0.0
O2453 O 0.52547 0.52478 0.9825 0.0
O2454 O 0.52188 0.56969 0.02486 0.0
O2455 O 0.54674 0.57593 0.02694 0.0
O2456 O 0.51796 0.53852 0.03448 0.0
O2457 O 0.51775 0.52754 0.01094 0.0
O2458 O 0.54445 0.51899 0.03118 0.0
O2459 O 0.54749 0.54595 0.04118 0.0
O2460 O 0.55095 0.50076 1.0015 0.0
O2461 O 0.5264 0.49517 0.9944 0.0
O2462 O 0.55501 0.53231 0.98957 0.0
O2463 O 0.55502 0.54308 0.01307 0.0
H2464 H 0.5248 0.60874 0.03607 0.0
H2465 H 0.54251 0.58318 0.99743 0.0
H2466 H 0.54248 0.60546 0.98267 0.0
H2467 H 0.52447 0.63107 0.02122 0.0
H2468 H 0.55654 0.46812 0.99852 0.0
H2469 H 0.51625 0.48029 0.01602 0.0
H2470 H 0.51351 0.4579 0.03093 0.0
H2471 H 0.55388 0.4457 0.01372 0.0
Gd2472 Gd 0.79995 0.29762 0.26418 0.0
Gd2473 Gd 0.77081 0.27344 0.26258 0.0
C2474 C 0.80086 0.2583 0.26299 0.0
C2475 C 0.82732 0.31485 0.27238 0.0
C2476 C 0.84244 0.31118 0.27233 0.0
C2477 C 0.84615 0.30141 0.25926 0.0
C2478 C 0.85283 0.31637 0.28611 0.0
C2479 C 0.87021 0.30151 0.27412 0.0
C2480 C 0.86659 0.31153 0.28703 0.0
C2481 C 0.86004 0.29672 0.26011 0.0
C2482 C 0.78659 0.28515 0.23453 0.0
C2483 C 0.76997 0.31269 0.26341 0.0
C2484 C 0.74333 0.25616 0.25508 0.0
C2485 C 0.72824 0.26003 0.25419 0.0
C2486 C 0.71629 0.25057 0.26051 0.0
C2487 C 0.7258 0.27349 0.24763 0.0
C2488 C 0.69951 0.26777 0.25342 0.0
C2489 C 0.71155 0.2773 0.24722 0.0
C2490 C 0.70202 0.25442 0.26016 0.0
C2491 C 0.78457 0.28585 0.29209 0.0
O2492 O 0.80852 0.27387 0.26596 0.0
O2493 O 0.78572 0.25489 0.25992 0.0
O2494 O 0.8197 0.31411 0.25852 0.0
O2495 O 0.81888 0.30821 0.28244 0.0
O2496 O 0.79381 0.30021 0.23885 0.0
O2497 O 0.78755 0.27741 0.24581 0.0
O2498 O 0.76233 0.29712 0.26025 0.0
O2499 O 0.78505 0.31611 0.26684 0.0
O2500 O 0.7506 0.25847 0.26935 0.0
O2501 O 0.75214 0.26119 0.24457 0.0
O2502 O 0.7778 0.27066 0.2877 0.0
O2503 O 0.78319 0.29365 0.28093 0.0
H2504 H 0.8382 0.29707 0.24856 0.0
H2505 H 0.85011 0.32383 0.29632 0.0
H2506 H 0.87438 0.3155 0.29789 0.0
H2507 H 0.86261 0.28895 0.25006 0.0
H2508 H 0.71801 0.2402 0.26571 0.0
H2509 H 0.73489 0.2811 0.24282 0.0
H2510 H 0.70997 0.28777 0.24213 0.0
H2511 H 0.69287 0.24679 0.26488 0.0
Gd2512 Gd 0.04452 0.53268 0.52643 0.0
Gd2513 Gd 0.03121 0.53471 0.49385 0.0
C2514 C 0.00931 0.51395 0.51441 0.0
C2515 C 0.05 0.53078 0.55585 0.0
C2516 C 0.03957 0.52576 0.56729 0.0
C2517 C 0.04368 0.51642 0.57829 0.0
C2518 C 0.0247 0.52822 0.56576 0.0
C2519 C 0.018 0.51177 0.58597 0.0
C2520 C 0.01401 0.52134 0.57507 0.0
C2521 C 0.03297 0.50947 0.5876 0.0
C2522 C 0.05359 0.51402 0.5028 0.0
C2523 C 0.06525 0.55424 0.5063 0.0
C2524 C 0.02188 0.5332 0.46452 0.0
C2525 C 0.02782 0.54474 0.4543 0.0
C2526 C 0.03797 0.55947 0.4612 0.0
C2527 C 0.0253 0.54031 0.4378 0.0
C2528 C 0.0441 0.56455 0.4353 0.0
C2529 C 0.03335 0.55025 0.42831 0.0
C2530 C 0.04614 0.56928 0.45177 0.0
C2531 C 0.03139 0.56047 0.5162 0.0
O2532 O 0.02047 0.51842 0.52622 0.0
O2533 O 0.01095 0.51806 0.50034 0.0
O2534 O 0.05032 0.51907 0.54434 0.0
O2535 O 0.04946 0.54451 0.55098 0.0
O2536 O 0.06256 0.52218 0.5152 0.0
O2537 O 0.04016 0.51578 0.50356 0.0
O2538 O 0.05605 0.5456 0.49382 0.0
O2539 O 0.06171 0.55359 0.52086 0.0
O2540 O 0.01477 0.53886 0.476 0.0
O2541 O 0.03172 0.52512 0.46923 0.0
O2542 O 0.03441 0.56159 0.5019 0.0
O2543 O 0.02807 0.54585 0.51789 0.0
H2544 H 0.05503 0.51411 0.57934 0.0
H2545 H 0.0212 0.5351 0.55708 0.0
H2546 H 1.00265 0.52355 0.57374 0.0
H2547 H 0.03631 0.50207 0.59586 0.0
H2548 H 0.04027 0.56297 0.47393 0.0
H2549 H 0.01774 0.52884 0.43233 0.0
H2550 H 0.03192 0.54625 0.41558 0.0
H2551 H 0.05453 0.58015 0.45733 0.0
Gd2552 Gd 0.76967 0.78608 0.26051 0.0
Gd2553 Gd 0.80263 0.78199 0.26439 0.0
C2554 C 0.78888 0.79436 0.29572 0.0
C2555 C 0.74032 0.77814 0.26074 0.0
C2556 C 0.7276 0.78033 0.27009 0.0
C2557 C 0.72447 0.79556 0.27501 0.0
C2558 C 0.71799 0.76645 0.2737 0.0
C2559 C 0.702 0.78277 0.28659 0.0
C2560 C 0.70542 0.76763 0.28186 0.0
C2561 C 0.7118 0.79677 0.28322 0.0
C2562 C 0.78882 0.81624 0.26129 0.0
C2563 C 0.7849 0.77845 0.22881 0.0
C2564 C 0.83111 0.78133 0.26286 0.0
C2565 C 0.84333 0.78273 0.2522 0.0
C2566 C 0.84907 0.76905 0.24724 0.0
C2567 C 0.85027 0.79764 0.248 0.0
C2568 C 0.86887 0.78522 0.2347 0.0
C2569 C 0.86287 0.79885 0.23931 0.0
C2570 C 0.86161 0.77025 0.23857 0.0
C2571 C 0.78073 0.75551 0.26826 0.0
O2572 O 0.77539 0.79041 0.28707 0.0
O2573 O 0.80162 0.79372 0.28937 0.0
O2574 O 0.7471 0.79 0.25385 0.0
O2575 O 0.74974 0.7702 0.26654 0.0
O2576 O 0.77399 0.81322 0.25993 0.0
O2577 O 0.79265 0.80294 0.26236 0.0
O2578 O 0.79806 0.78098 0.23789 0.0
O2579 O 0.77192 0.7785 0.23485 0.0
O2580 O 0.81987 0.76842 0.25943 0.0
O2581 O 0.82662 0.79442 0.26838 0.0
O2582 O 0.79372 0.76102 0.27711 0.0
O2583 O 0.77997 0.7645 0.25778 0.0
H2584 H 0.73168 0.80649 0.2724 0.0
H2585 H 0.72015 0.75455 0.27007 0.0
H2586 H 0.69838 0.75662 0.2845 0.0
H2587 H 0.70949 0.80862 0.2866 0.0
H2588 H 0.84405 0.75742 0.25037 0.0
H2589 H 0.84622 0.80846 0.25172 0.0
H2590 H 0.86821 0.81061 0.23668 0.0
H2591 H 0.86569 0.75942 0.23501 0.0
Gd2592 Gd 0.78708 0.27853 0.74694 0.0
Gd2593 Gd 0.78146 0.29421 0.78082 0.0
C2594 C 0.79676 0.31769 0.75875 0.0
C2595 C 0.78487 0.27114 0.71666 0.0
C2596 C 0.7923 0.28102 0.70555 0.0
C2597 C 0.80296 0.27563 0.69635 0.0
C2598 C 0.79012 0.29677 0.70544 0.0
C2599 C 0.80961 0.30187 0.68784 0.0
C2600 C 0.79871 0.30708 0.69676 0.0
C2601 C 0.8115 0.28596 0.68746 0.0
C2602 C 0.8129 0.28364 0.76783 0.0
C2603 C 0.77627 0.25476 0.77084 0.0
C2604 C 0.77751 0.30094 0.81017 0.0
C2605 C 0.77383 0.29035 0.82195 0.0
C2606 C 0.76178 0.29198 0.83091 0.0
C2607 C 0.78032 0.27691 0.82227 0.0
C2608 C 0.76178 0.26603 0.83911 0.0
C2609 C 0.77433 0.26483 0.83078 0.0
C2610 C 0.75582 0.27992 0.83951 0.0
C2611 C 0.76012 0.29316 0.75648 0.0
O2612 O 0.79231 0.30543 0.74678 0.0
O2613 O 0.79604 0.31588 0.77373 0.0
O2614 O 0.79407 0.26576 0.72608 0.0
O2615 O 0.77447 0.27678 0.72401 0.0
O2616 O 0.81192 0.27756 0.75293 0.0
O2617 O 0.80032 0.28698 0.77028 0.0
O2618 O 0.77844 0.26759 0.78219 0.0
O2619 O 0.77714 0.25588 0.75574 0.0
O2620 O 0.76659 0.29867 0.79851 0.0
O2621 O 0.79113 0.30246 0.80541 0.0
O2622 O 0.76478 0.30534 0.76798 0.0
O2623 O 0.76677 0.28191 0.75853 0.0
H2624 H 0.80492 0.26358 0.69634 0.0
H2625 H 0.78196 0.30133 0.71233 0.0
H2626 H 0.7967 0.31913 0.6969 0.0
H2627 H 0.81974 0.28164 0.68052 0.0
H2628 H 0.7565 0.30218 0.83063 0.0
H2629 H 0.78958 0.27535 0.81538 0.0
H2630 H 0.77934 0.2544 0.83064 0.0
H2631 H 0.7462 0.28113 0.84596 0.0
Gd2632 Gd 0.79527 0.80357 0.77033 0.0
Gd2633 Gd 0.77653 0.77091 0.75701 0.0
C2634 C 0.75839 0.79689 0.76787 0.0
C2635 C 0.80654 0.8344 0.77735 0.0
C2636 C 0.79924 0.84791 0.77598 0.0
C2637 C 0.80353 0.86216 0.78724 0.0
C2638 C 0.78668 0.84581 0.76448 0.0
C2639 C 0.78203 0.87155 0.77623 0.0
C2640 C 0.77814 0.85752 0.76461 0.0
C2641 C 0.79501 0.874 0.78731 0.0
C2642 C 0.79311 0.78276 0.79142 0.0
C2643 C 0.81344 0.77744 0.76002 0.0
C2644 C 0.76527 0.74011 0.74957 0.0
C2645 C 0.7724 0.72639 0.75064 0.0
C2646 C 0.76984 0.71354 0.73785 0.0
C2647 C 0.78317 0.72697 0.76361 0.0
C2648 C 0.78942 0.70249 0.75056 0.0
C2649 C 0.79152 0.71508 0.76361 0.0
C2650 C 0.77829 0.70165 0.73781 0.0
C2651 C 0.7788 0.7918 0.73592 0.0
O2652 O 0.77128 0.80752 0.76756 0.0
O2653 O 0.75779 0.78125 0.76605 0.0
O2654 O 0.80144 0.82555 0.7878 0.0
O2655 O 0.80799 0.8257 0.76394 0.0
O2656 O 0.80538 0.7935 0.79046 0.0
O2657 O 0.78234 0.78394 0.78161 0.0
O2658 O 0.80044 0.76678 0.75983 0.0
O2659 O 0.81414 0.7931 0.76199 0.0
O2660 O 0.77038 0.74913 0.73926 0.0
O2661 O 0.76375 0.74862 0.76306 0.0
O2662 O 0.76645 0.78122 0.73704 0.0
O2663 O 0.78954 0.79049 0.74571 0.0
H2664 H 0.81311 0.86386 0.79629 0.0
H2665 H 0.78314 0.83486 0.75569 0.0
H2666 H 0.76831 0.85549 0.75579 0.0
H2667 H 0.79819 0.88474 0.79638 0.0
H2668 H 0.76172 0.71304 0.72766 0.0
H2669 H 0.78549 0.73688 0.77356 0.0
H2670 H 0.79982 0.71589 0.77375 0.0
H2671 H 0.77651 0.69217 0.72753 0.0
Gd2672 Gd 0.52129 0.52581 0.50333 0.0
Gd2673 Gd 0.55157 0.54549 0.5218 0.0
C2674 C 0.52984 0.5647 0.50475 0.0
C2675 C 0.4927 0.51218 0.49588 0.0
C2676 C 0.47903 0.51761 0.49992 0.0
C2677 C 0.46506 0.51092 0.4905 0.0
C2678 C 0.48037 0.53099 0.51193 0.0
C2679 C 0.45415 0.53189 0.50418 0.0
C2680 C 0.46799 0.53803 0.51411 0.0
C2681 C 0.45264 0.51799 0.49264 0.0
C2682 C 0.54337 0.52597 0.48239 0.0
C2683 C 0.54294 0.50649 0.52032 0.0
C2684 C 0.58026 0.55876 0.52899 0.0
C2685 C 0.59386 0.55322 0.52485 0.0
C2686 C 0.60797 0.56017 0.5339 0.0
C2687 C 0.5924 0.53966 0.513 0.0
C2688 C 0.61891 0.53929 0.52007 0.0
C2689 C 0.60485 0.53277 0.51059 0.0
C2690 C 0.62045 0.55327 0.53151 0.0
C2691 C 0.5298 0.54584 0.54296 0.0
O2692 O 0.51874 0.55147 0.50305 0.0
O2693 O 0.54388 0.56496 0.51061 0.0
O2694 O 0.50075 0.52094 0.48692 0.0
O2695 O 0.50108 0.50889 0.50763 0.0
O2696 O 0.52906 0.51885 0.47908 0.0
O2697 O 0.54518 0.53253 0.497 0.0
O2698 O 0.55394 0.51985 0.52252 0.0
O2699 O 0.52902 0.50612 0.51403 0.0
O2700 O 0.5722 0.55008 0.53802 0.0
O2701 O 0.57187 0.56214 0.51732 0.0
O2702 O 0.54401 0.55345 0.54567 0.0
O2703 O 0.52752 0.53887 0.52838 0.0
H2704 H 0.46396 0.50071 0.48105 0.0
H2705 H 0.49118 0.53643 0.51916 0.0
H2706 H 0.4694 0.54859 0.52323 0.0
H2707 H 0.44216 0.51311 0.48472 0.0
H2708 H 0.6092 0.57057 0.54318 0.0
H2709 H 0.58148 0.53402 0.50607 0.0
H2710 H 0.60323 0.52188 0.50183 0.0
H2711 H 0.6312 0.55865 0.53886 0.0
Gd2712 Gd 0.05345 0.53711 0.01634 0.0
Gd2713 Gd 0.01827 0.53365 0.0107 0.0
C2714 C 0.03019 0.501 0.00647 0.0
C2715 C 0.0805 0.53479 0.0269 0.0
C2716 C 0.09098 0.52359 0.02546 0.0
C2717 C 0.09551 0.51799 0.01077 0.0
C2718 C 0.09736 0.51926 0.03923 0.0
C2719 C 0.11312 0.50454 0.0238 0.0
C2720 C 0.10825 0.50983 0.03842 0.0
C2721 C 0.10647 0.5086 0.00996 0.0
C2722 C 0.04218 0.53756 0.9865 0.0
C2723 C 0.04148 0.56984 0.01986 0.0
C2724 C 0.99077 0.53572 1.00148 0.0
C2725 C 0.97999 0.54652 0.00379 0.0
C2726 C 0.96633 0.54098 0.01008 0.0
C2727 C 0.98253 0.56173 0.99881 0.0
C2728 C 0.95768 0.56532 0.00592 0.0
C2729 C 0.97149 0.571 0.99984 0.0
C2730 C 0.95535 0.55027 0.0112 0.0
C2731 C 0.03014 0.53349 0.04046 0.0
O2732 O 0.04367 0.50986 0.01343 0.0
O2733 O 0.01902 0.5078 1.00203 0.0
O2734 O 0.07773 0.54172 0.01468 0.0
O2735 O 0.06845 0.53058 0.03421 0.0
O2736 O 0.05584 0.54541 0.99268 0.0
O2737 O 0.03587 0.52887 0.99577 0.0
O2738 O 0.02788 0.56088 0.01334 0.0
O2739 O 0.05281 0.56317 0.02413 0.0
O2740 O 0.99408 0.52853 0.01334 0.0
O2741 O 1.00251 0.54035 0.99386 0.0
O2742 O 0.01682 0.52469 0.03429 0.0
O2743 O 0.03587 0.54226 0.03104 0.0
H2744 H 0.09079 0.52106 0.99991 0.0
H2745 H 0.09416 0.52351 0.05071 0.0
H2746 H 0.11321 0.50711 0.04935 0.0
H2747 H 0.10977 0.50457 0.99848 0.0
H2748 H 0.96397 0.52923 0.01383 0.0
H2749 H 0.99293 0.56638 0.99388 0.0
H2750 H 0.97375 0.58262 0.99584 0.0
H2751 H 0.94479 0.54539 0.01574 0.0
H2752 H 0.99508 0.19433 0.96172 0.0
H2753 H 0.99711 0.17063 0.97389 0.0
H2754 H 0.02606 0.15717 0.93927 0.0
H2755 H 0.02356 0.18037 0.92662 0.0
H2756 H 0.00517 0.13103 0.9438 0.0
H2757 H 0.03335 0.16584 1.00224 0.0
H2758 H 0.0153 0.1701 0.99634 0.0
H2759 H 0.03102 0.17536 0.98506 0.0
C2760 C 1.00176 0.18627 0.95657 0.0
C2761 C 0.00925 0.18946 0.94321 0.0
C2762 C 1.00308 0.17279 0.9637 0.0
C2763 C 0.01201 0.16222 0.95773 0.0
C2764 C 0.01922 0.16518 0.94422 0.0
H2765 H 0.04955 0.09337 0.00397 0.0
H2766 H 0.04447 0.11662 0.99286 0.0
C2767 C 0.01788 0.1786 0.93707 0.0
C2768 C 0.01377 0.14799 0.96538 0.0
H2769 H 0.0263 0.13725 1.00016 0.0
C2770 C 0.00976 0.1324 0.95614 0.0
C2771 C 0.01996 0.14973 0.98144 0.0
C2772 C 0.0253 0.16616 0.99183 0.0
C2773 C 0.01175 0.11859 0.96244 0.0
C2774 C 0.01761 0.12028 0.9786 0.0
C2775 C 0.02164 0.13587 0.98784 0.0
C2776 C 0.02037 0.10617 0.98591 0.0
C2777 C 0.00799 0.10239 0.95156 0.0
C2778 C 0.00848 0.09257 0.98608 0.0
C2779 C 0.01137 0.07913 0.99239 0.0
C2780 C 0.02621 0.07905 0.99885 0.0
C2781 C 0.03798 0.09292 0.99911 0.0
C2782 C 0.03509 0.10628 0.99274 0.0
H2783 H 0.00753 0.1038 0.93887 0.0
H2784 H 0.01654 0.09523 0.95403 0.0
H2785 H 0.99663 0.0954 0.95348 0.0
H2786 H 0.99695 0.09229 0.98127 0.0
H2787 H 1.00199 0.06876 0.99208 0.0
H2788 H 0.15386 0.82284 0.16666 0.0
H2789 H 0.17735 0.81934 0.1807 0.0
H2790 H 0.15289 0.77379 0.19135 0.0
H2791 H 0.12945 0.77714 0.17722 0.0
H2792 H 0.18435 0.81757 0.21081 0.0
H2793 H 0.18932 0.76028 0.17482 0.0
H2794 H 0.17618 0.77194 0.16855 0.0
H2795 H 0.17123 0.75833 0.18242 0.0
C2796 C 0.15346 0.81208 0.172 0.0
C2797 C 0.13971 0.80025 0.17071 0.0
C2798 C 0.16695 0.81004 0.17997 0.0
C2799 C 0.16707 0.79612 0.18685 0.0
C2800 C 0.15331 0.78439 0.18575 0.0
H2801 H 0.22927 0.78851 0.26537 0.0
H2802 H 0.20802 0.79037 0.24678 0.0
C2803 C 0.13985 0.78637 0.1777 0.0
C2804 C 0.18134 0.79432 0.19592 0.0
H2805 H 0.20467 0.76814 0.20016 0.0
C2806 C 0.18884 0.8068 0.20835 0.0
C2807 C 0.18748 0.78043 0.19262 0.0
C2808 C 0.18073 0.76707 0.17876 0.0
C2809 C 0.20184 0.80555 0.21787 0.0
C2810 C 0.20741 0.79123 0.21521 0.0
C2811 C 0.20032 0.77901 0.20239 0.0
C2812 C 0.22011 0.78859 0.2261 0.0
C2813 C 0.20953 0.81966 0.23071 0.0
C2814 C 0.23383 0.7861 0.22061 0.0
C2815 C 0.24606 0.78481 0.23129 0.0
C2816 C 0.2447 0.78595 0.24761 0.0
C2817 C 0.23073 0.78772 0.25289 0.0
C2818 C 0.21858 0.7889 0.24228 0.0
H2819 H 0.20702 0.83121 0.22807 0.0
H2820 H 0.2052 0.81751 0.24212 0.0
H2821 H 0.22211 0.82106 0.23219 0.0
H2822 H 0.23527 0.78568 0.20815 0.0
H2823 H 0.2567 0.78352 0.22689 0.0
H2824 H 0.49455 0.84621 0.4546 0.0
H2825 H 0.49628 0.8747 0.46551 0.0
H2826 H 0.54531 0.88452 0.46717 0.0
H2827 H 0.54365 0.8561 0.45612 0.0
H2828 H 0.51059 0.89465 0.49303 0.0
H2829 H 0.53491 0.91735 0.44115 0.0
H2830 H 0.52686 0.89613 0.44103 0.0
H2831 H 0.54599 0.90534 0.45028 0.0
C2832 C 0.50571 0.85439 0.45746 0.0
C2833 C 0.51896 0.84891 0.45435 0.0
C2834 C 0.50668 0.8707 0.46364 0.0
C2835 C 0.5209 0.88185 0.46683 0.0
C2836 C 0.53418 0.87625 0.46438 0.0
H2837 H 0.55296 0.9843 0.50366 0.0
H2838 H 0.54991 0.95512 0.4954 0.0
C2839 C 0.53322 0.85999 0.45811 0.0
C2840 C 0.52183 0.89935 0.47245 0.0
H2841 H 0.53494 0.93721 0.46365 0.0
C2842 C 0.51583 0.90395 0.48656 0.0
C2843 C 0.52856 0.91149 0.46394 0.0
C2844 C 0.5343 0.90735 0.44818 0.0
C2845 C 0.51676 0.92037 0.49258 0.0
C2846 C 0.5238 0.93246 0.48424 0.0
C2847 C 0.52965 0.92788 0.47008 0.0
C2848 C 0.52536 0.95 0.49004 0.0
C2849 C 0.5105 0.92474 0.50797 0.0
C2850 C 0.51254 0.95679 0.48973 0.0
C2851 C 0.51423 0.97353 0.49433 0.0
C2852 C 0.52879 0.98376 0.49939 0.0
C2853 C 0.54157 0.97682 0.49989 0.0
C2854 C 0.53987 0.96013 0.49516 0.0
H2855 H 0.50764 0.91422 0.51426 0.0
H2856 H 0.51887 0.93472 0.51592 0.0
H2857 H 0.49997 0.92909 0.50549 0.0
H2858 H 0.50126 0.94919 0.48563 0.0
H2859 H 0.50415 0.97844 0.4938 0.0
H2860 H 0.50247 0.28865 0.68631 0.0
H2861 H 0.47875 0.28468 0.69838 0.0
H2862 H 0.45652 0.30032 0.65902 0.0
H2863 H 0.47978 0.30306 0.64621 0.0
H2864 H 0.4627 0.30498 0.70903 0.0
H2865 H 0.42559 0.26016 0.66077 0.0
H2866 H 0.44603 0.26595 0.66091 0.0
H2867 H 0.43407 0.27851 0.65403 0.0
C2868 C 0.49249 0.2909 0.67997 0.0
C2869 C 0.49319 0.29604 0.6651 0.0
C2870 C 0.4789 0.28878 0.68702 0.0
C2871 C 0.46565 0.29184 0.6795 0.0
C2872 C 0.46639 0.29737 0.66489 0.0
H2873 H 0.37634 0.29766 0.7063 0.0
H2874 H 0.39952 0.29809 0.69337 0.0
C2875 C 0.47989 0.29926 0.6577 0.0
C2876 C 0.45128 0.2898 0.68725 0.0
H2877 H 0.41298 0.27227 0.68104 0.0
C2878 C 0.45187 0.29768 0.70294 0.0
C2879 C 0.43707 0.28027 0.67936 0.0
C2880 C 0.43566 0.27061 0.6629 0.0
C2881 C 0.4387 0.29664 0.71077 0.0
C2882 C 0.4245 0.28736 0.70278 0.0
C2883 C 0.42387 0.2794 0.68715 0.0
C2884 C 0.4101 0.28622 0.71031 0.0
C2885 C 0.44002 0.30584 0.72742 0.0
C2886 C 0.40813 0.27904 0.72394 0.0
C2887 C 0.39487 0.27881 0.73142 0.0
C2888 C 0.38329 0.28577 0.72541 0.0
C2889 C 0.38511 0.29244 0.71142 0.0
C2890 C 0.39833 0.29261 0.70395 0.0
H2891 H 0.45096 0.31511 0.73059 0.0
H2892 H 0.43043 0.31194 0.72885 0.0
H2893 H 0.43952 0.2972 0.73593 0.0
H2894 H 0.41694 0.27378 0.72891 0.0
H2895 H 0.39391 0.27365 0.74218 0.0
H2896 H 0.9906 0.8411 0.60981 0.0
H2897 H 0.99487 0.86267 0.59377 0.0
H2898 H 0.03588 0.84904 0.58026 0.0
H2899 H 0.03143 0.82707 0.59582 0.0
H2900 H 0.02058 0.88891 0.59654 0.0
H2901 H 0.01148 0.849 0.53762 0.0
H2902 H 0.00574 0.84151 0.55533 0.0
H2903 H 0.02547 0.84537 0.55195 0.0
C2904 C 1.00042 0.84256 0.60327 0.0
C2905 C 0.01062 0.83232 0.60399 0.0
C2906 C 1.0029 0.85495 0.59422 0.0
C2907 C 0.01557 0.85727 0.58571 0.0
C2908 C 0.0259 0.84725 0.58657 0.0
H2909 H 0.04378 0.92645 0.52285 0.0
H2910 H 0.04256 0.90507 0.53908 0.0
C2911 C 0.02342 0.83483 0.59559 0.0
C2912 C 0.01797 0.8703 0.57605 0.0
H2913 H 0.0188 0.87724 0.53795 0.0
C2914 C 0.02021 0.88639 0.58373 0.0
C2915 C 0.01757 0.8669 0.55938 0.0
C2916 C 0.01482 0.84976 0.55052 0.0
C2917 C 0.02198 0.89924 0.57513 0.0
C2918 C 0.02121 0.89581 0.55843 0.0
C2919 C 0.01932 0.87976 0.55077 0.0
C2920 C 0.02189 0.90867 0.54863 0.0
C2921 C 0.02478 0.91639 0.58398 0.0
C2922 C 0.0105 0.91749 0.54846 0.0
C2923 C 0.0111 0.92962 0.53914 0.0
C2924 C 0.02305 0.93301 0.52976 0.0
C2925 C 0.03432 0.92395 0.52979 0.0
C2926 C 0.03371 0.91183 0.53912 0.0
H2927 H 0.02909 0.91727 0.59667 0.0
H2928 H 0.03314 0.92483 0.57853 0.0
H2929 H 0.0139 0.92041 0.58348 0.0
H2930 H 1.0011 0.91494 0.55547 0.0
H2931 H 1.00215 0.93625 0.53918 0.0
H2932 H 0.51161 0.78802 0.79862 0.0
H2933 H 0.48674 0.78461 0.78306 0.0
H2934 H 0.46458 0.78101 0.82545 0.0
H2935 H 0.48923 0.78466 0.84107 0.0
H2936 H 0.44936 0.75803 0.79672 0.0
H2937 H 0.46453 0.8229 0.78887 0.0
H2938 H 0.47728 0.81022 0.78296 0.0
H2939 H 0.47517 0.81524 0.80357 0.0
C2940 C 0.50141 0.78642 0.80459 0.0
C2941 C 0.50238 0.78671 0.82109 0.0
C2942 C 0.48726 0.78439 0.79568 0.0
C2943 C 0.47393 0.78267 0.80318 0.0
C2944 C 0.47478 0.78223 0.81948 0.0
H2945 H 0.38309 0.78789 0.80191 0.0
H2946 H 0.40783 0.78079 0.80431 0.0
C2947 C 0.48888 0.78427 0.82837 0.0
C2948 C 0.45916 0.78276 0.79457 0.0
H2949 H 0.43915 0.8088 0.78159 0.0
C2950 C 0.44714 0.769 0.79309 0.0
C2951 C 0.45641 0.7971 0.78981 0.0
C2952 C 0.46895 0.81228 0.7914 0.0
C2953 C 0.43219 0.76946 0.78767 0.0
C2954 C 0.42926 0.78415 0.78399 0.0
C2955 C 0.44146 0.79757 0.78447 0.0
C2956 C 0.4136 0.78658 0.78149 0.0
C2957 C 0.41964 0.75435 0.78634 0.0
C2958 C 0.40876 0.79244 0.76798 0.0
C2959 C 0.39468 0.79666 0.76666 0.0
C2960 C 0.38526 0.79515 0.77886 0.0
C2961 C 0.39001 0.78896 0.79222 0.0
C2962 C 0.4041 0.7848 0.79356 0.0
H2963 H 0.42414 0.74325 0.78396 0.0
H2964 H 0.41468 0.7543 0.79775 0.0
H2965 H 0.4104 0.75383 0.77677 0.0
H2966 H 0.41602 0.79404 0.75862 0.0
H2967 H 0.3912 0.80122 0.75614 0.0
H2968 H 0.52763 0.18939 0.10053 0.0
H2969 H 0.53089 0.16484 0.08401 0.0
H2970 H 0.48327 0.15339 0.06533 0.0
H2971 H 0.47993 0.17799 0.0818 0.0
H2972 H 0.51599 0.13282 0.08417 0.0
H2973 H 0.50482 0.15056 0.0253 0.0
H2974 H 0.50862 0.16497 0.04356 0.0
H2975 H 0.49005 0.15163 0.03793 0.0
C2976 C 0.51785 0.18162 0.09292 0.0
C2977 C 0.50353 0.18559 0.09241 0.0
C2978 C 0.51974 0.16765 0.08347 0.0
C2979 C 0.50737 0.15745 0.07332 0.0
C2980 C 0.49303 0.16132 0.07283 0.0
H2981 H 0.49802 0.06573 0.01061 0.0
H2982 H 0.49349 0.09023 0.02625 0.0
C2983 C 0.49114 0.17534 0.08224 0.0
C2984 C 0.50945 0.14256 0.06356 0.0
H2985 H 0.50762 0.12368 0.02533 0.0
C2986 C 0.5142 0.13082 0.0713 0.0
C2987 C 0.50705 0.14002 0.04679 0.0
C2988 C 0.50248 0.15251 0.03786 0.0
C2989 C 0.51654 0.11651 0.0627 0.0
C2990 C 0.51426 0.11405 0.04595 0.0
C2991 C 0.50935 0.12568 0.03819 0.0
C2992 C 0.51709 0.09953 0.03626 0.0
C2993 C 0.52124 0.10404 0.07157 0.0
C2994 C 0.53191 0.09692 0.03653 0.0
C2995 C 0.53453 0.08303 0.02758 0.0
C2996 C 0.52236 0.07157 0.01826 0.0
C2997 C 0.50759 0.07439 0.01772 0.0
C2998 C 0.50498 0.08832 0.02664 0.0
H2999 H 0.51904 0.10598 0.08418 0.0
H3000 H 0.51508 0.09157 0.0659 0.0
H3001 H 0.53365 0.10489 0.07133 0.0
H3002 H 0.54142 0.10562 0.04369 0.0
H3003 H 0.54604 0.08117 0.02807 0.0
H3004 H 0.16022 0.33872 0.34605 0.0
H3005 H 0.18237 0.34117 0.33128 0.0
H3006 H 0.15475 0.30885 0.29103 0.0
H3007 H 0.13243 0.30683 0.30549 0.0
H3008 H 0.19294 0.31431 0.32216 0.0
H3009 H 0.18112 0.34248 0.26973 0.0
H3010 H 0.17083 0.34416 0.28686 0.0
H3011 H 0.1657 0.32614 0.27202 0.0
C3012 C 0.15875 0.33256 0.33388 0.0
C3013 C 0.14465 0.32244 0.32697 0.0
C3014 C 0.17141 0.33396 0.32547 0.0
C3015 C 0.17014 0.32533 0.31003 0.0
C3016 C 0.1559 0.31588 0.30281 0.0
H3017 H 0.23118 0.27702 0.26526 0.0
H3018 H 0.2093 0.2866 0.27435 0.0
C3019 C 0.14323 0.31451 0.31119 0.0
C3020 C 0.18402 0.324 0.30252 0.0
H3021 H 0.20033 0.32671 0.26822 0.0
C3022 C 0.1947 0.31734 0.3105 0.0
C3023 C 0.18623 0.3279 0.2873 0.0
C3024 C 0.17543 0.33572 0.27854 0.0
C3025 C 0.20723 0.31383 0.30339 0.0
C3026 C 0.20901 0.31695 0.28788 0.0
C3027 C 0.19875 0.32423 0.28008 0.0
C3028 C 0.22118 0.31187 0.27953 0.0
C3029 C 0.21825 0.30633 0.31231 0.0
C3030 C 0.23486 0.32308 0.27901 0.0
C3031 C 0.24744 0.31766 0.27389 0.0
C3032 C 0.24644 0.30097 0.26929 0.0
C3033 C 0.23237 0.28993 0.26889 0.0
C3034 C 0.21983 0.29536 0.27398 0.0
H3035 H 0.21673 0.30724 0.3251 0.0
H3036 H 0.21635 0.29329 0.30713 0.0
H3037 H 0.23022 0.31228 0.31118 0.0
H3038 H 0.23604 0.33588 0.28335 0.0
H3039 H 0.2581 0.32648 0.27426 0.0
H3040 H 0.97657 0.07196 0.18216 0.0
H3041 H 0.98815 0.0699 0.15736 0.0
H3042 H 0.95085 0.03005 0.13631 0.0
H3043 H 0.93893 0.03237 0.16081 0.0
H3044 H 0.99988 0.04818 0.14062 0.0
H3045 H 0.95131 0.05407 0.10015 0.0
H3046 H 0.95157 0.05785 0.12142 0.0
H3047 H 0.94644 0.03739 0.11064 0.0
C3048 C 0.97055 0.06285 0.17228 0.0
C3049 C 0.95647 0.05245 0.17407 0.0
C3050 C 0.97738 0.06159 0.15787 0.0
C3051 C 0.9705 0.04999 0.14428 0.0
C3052 C 0.95653 0.03949 0.14606 0.0
H3053 H 1.00017 0.02627 0.04627 0.0
H3054 H 0.98585 0.02644 0.06974 0.0
C3055 C 0.94971 0.0407 0.16048 0.0
C3056 C 0.97814 0.04866 0.12869 0.0
H3057 H 0.97207 0.04678 0.08797 0.0
C3058 C 0.99367 0.04797 0.12919 0.0
C3059 C 0.97044 0.04815 0.1133 0.0
C3060 C 0.95407 0.04955 0.11129 0.0
C3061 C 1.00141 0.04664 0.11534 0.0
C3062 C 0.99382 0.04643 0.09997 0.0
C3063 C 0.97822 0.04691 0.0994 0.0
C3064 C 1.00208 0.04644 0.08477 0.0
C3065 C 0.01772 0.04498 0.11742 0.0
C3066 C 0.01589 0.05781 0.08453 0.0
C3067 C 0.02406 0.05768 0.07112 0.0
C3068 C 0.0189 0.04635 0.05692 0.0
C3069 C 0.00474 0.03526 0.05675 0.0
C3070 C 0.99649 0.03536 0.07037 0.0
H3071 H 0.02004 0.03955 0.1281 0.0
H3072 H 0.02044 0.03733 0.10694 0.0
H3073 H 0.0255 0.05718 0.11908 0.0
H3074 H 0.02052 0.06699 0.09485 0.0
H3075 H 0.03474 0.06661 0.07202 0.0
H3076 H 0.28181 0.68924 0.43404 0.0
H3077 H 0.27165 0.69983 0.41146 0.0
H3078 H 0.2349 0.7104 0.43707 0.0
H3079 H 0.24484 0.69962 0.45967 0.0
H3080 H 0.23795 0.69131 0.39407 0.0
H3081 H 0.2618 0.75454 0.42609 0.0
H3082 H 0.26926 0.73772 0.43105 0.0
H3083 H 0.25096 0.73992 0.43638 0.0
C3084 C 0.27146 0.69364 0.43478 0.0
C3085 C 0.2642 0.69379 0.44865 0.0
C3086 C 0.26566 0.6996 0.42188 0.0
C3087 C 0.25254 0.70579 0.42268 0.0
C3088 C 0.24504 0.70563 0.43633 0.0
H3089 H 0.23674 0.77398 0.36178 0.0
H3090 H 0.23021 0.75555 0.38082 0.0
C3091 C 0.25084 0.69967 0.44924 0.0
C3092 C 0.24766 0.71386 0.40983 0.0
H3093 H 0.25134 0.75132 0.39977 0.0
C3094 C 0.24061 0.70444 0.39529 0.0
C3095 C 0.25105 0.73092 0.41164 0.0
C3096 C 0.25873 0.74147 0.42708 0.0
C3097 C 0.23726 0.71176 0.38223 0.0
C3098 C 0.24152 0.72888 0.38375 0.0
C3099 C 0.24794 0.73821 0.39858 0.0
C3100 C 0.24141 0.73746 0.36996 0.0
C3101 C 0.22937 0.70104 0.36697 0.0
C3102 C 0.24922 0.73307 0.35714 0.0
C3103 C 0.25256 0.74337 0.3461 0.0
C3104 C 0.24852 0.7584 0.34798 0.0
C3105 C 0.23994 0.76241 0.3602 0.0
C3106 C 0.23623 0.7519 0.37101 0.0
H3107 H 0.22142 0.69007 0.36942 0.0
H3108 H 0.22287 0.70754 0.35963 0.0
H3109 H 0.23804 0.69684 0.36004 0.0
H3110 H 0.25379 0.72232 0.35629 0.0
H3111 H 0.25936 0.74016 0.33683 0.0
H3112 H 0.58802 0.02053 0.67689 0.0
H3113 H 0.57279 0.01883 0.65165 0.0
H3114 H 0.61354 0.03816 0.63133 0.0
H3115 H 0.62904 0.03891 0.65626 0.0
H3116 H 0.56929 0.04303 0.6364 0.0
H3117 H 0.59369 0.9996 0.59786 0.0
H3118 H 0.59747 1.003 0.61922 0.0
H3119 H 0.60782 0.01697 0.60798 0.0
C3120 C 0.59382 0.02405 0.66696 0.0
C3121 C 0.60979 0.02971 0.66858 0.0
C3122 C 0.58507 0.02321 0.65258 0.0
C3123 C 0.59206 0.0281 0.63955 0.0
C3124 C 0.60796 0.03394 0.64113 0.0
H3125 H 0.55774 0.05289 0.55281 0.0
H3126 H 0.57195 0.0508 0.57767 0.0
C3127 C 0.61677 0.03461 0.65548 0.0
C3128 C 0.58257 0.02782 0.62458 0.0
H3129 H 0.57751 0.01362 0.58475 0.0
C3130 C 0.571 0.03646 0.62514 0.0
C3131 C 0.5848 0.01919 0.60992 0.0
C3132 C 0.59652 0.00903 0.60869 0.0
C3133 C 0.5618 0.03697 0.61135 0.0
C3134 C 0.56432 0.02872 0.59672 0.0
C3135 C 0.57571 0.01991 0.5961 0.0
C3136 C 0.55564 0.02976 0.58181 0.0
C3137 C 0.5496 0.04652 0.61234 0.0
C3138 C 0.54179 0.0186 0.5761 0.0
C3139 C 0.53365 0.01972 0.56188 0.0
C3140 C 0.53936 0.032 0.55328 0.0
C3141 C 0.55316 0.04324 0.55918 0.0
C3142 C 0.56128 0.04208 0.57332 0.0
H3143 H 0.54887 0.05203 0.62473 0.0
H3144 H 0.55199 0.05634 0.60512 0.0
H3145 H 0.53834 0.03848 0.60733 0.0
H3146 H 0.53733 0.00904 0.58262 0.0
H3147 H 0.52303 0.01093 0.55754 0.0
H3148 H 0.29134 0.36532 0.93749 0.0
H3149 H 0.29224 0.35425 0.90993 0.0
H3150 H 0.28705 0.30631 0.92187 0.0
H3151 H 0.28503 0.31713 0.94939 0.0
H3152 H 0.3117 0.33961 0.89625 0.0
H3153 H 0.25462 0.29719 0.88499 0.0
H3154 H 0.26051 0.31213 0.90278 0.0
H3155 H 0.26682 0.29346 0.90094 0.0
C3156 C 0.28999 0.35235 0.93429 0.0
C3157 C 0.28783 0.34214 0.94579 0.0
C3158 C 0.29073 0.34605 0.91847 0.0
C3159 C 0.28947 0.32938 0.91367 0.0
C3160 C 0.28768 0.31916 0.92513 0.0
H3161 H 0.31221 0.29482 0.81823 0.0
H3162 H 0.31322 0.3021 0.84709 0.0
C3163 C 0.28674 0.32543 0.94098 0.0
C3164 C 0.29021 0.32295 0.89669 0.0
H3165 H 0.27032 0.29632 0.86435 0.0
C3166 C 0.30265 0.33012 0.88928 0.0
C3167 C 0.27836 0.31064 0.88751 0.0
C3168 C 0.26425 0.303 0.89439 0.0
C3169 C 0.30344 0.3256 0.87299 0.0
C3170 C 0.29167 0.31318 0.86386 0.0
C3171 C 0.27939 0.30578 0.87133 0.0
C3172 C 0.29125 0.30844 0.84635 0.0
C3173 C 0.31656 0.3347 0.86564 0.0
C3174 C 0.27841 0.3091 0.83628 0.0
C3175 C 0.27768 0.30468 0.81985 0.0
C3176 C 0.28984 0.29956 0.81301 0.0
C3177 C 0.30272 0.29888 0.82308 0.0
C3178 C 0.30335 0.30312 0.83959 0.0
H3179 H 0.32222 0.3465 0.8732 0.0
H3180 H 0.32522 0.32733 0.86422 0.0
H3181 H 0.31265 0.33703 0.85376 0.0
H3182 H 0.26891 0.31315 0.84113 0.0
H3183 H 0.26758 0.3054 0.81251 0.0
H3184 H 0.93954 0.05693 0.35307 0.0
H3185 H 0.95132 0.05467 0.37914 0.0
H3186 H 0.99323 0.05189 0.35963 0.0
H3187 H 0.98172 0.05466 0.33365 0.0
H3188 H 0.96237 0.03218 0.39134 0.0
H3189 H 0.01102 0.08519 0.39792 0.0
H3190 H 0.99537 0.08138 0.38233 0.0
H3191 H 0.01053 0.07085 0.38031 0.0
C3192 C 0.95136 0.05611 0.35421 0.0
C3193 C 0.95948 0.05616 0.34075 0.0
C3194 C 0.95814 0.05465 0.36934 0.0
C3195 C 0.97347 0.05337 0.37193 0.0
C3196 C 0.98157 0.05325 0.3585 0.0
H3197 H 0.01157 0.0167 0.45537 0.0
H3198 H 1.00019 0.02003 0.42954 0.0
C3199 C 0.97478 0.05462 0.34334 0.0
C3200 C 0.98072 0.0518 0.38842 0.0
H3201 H 0.0119 0.06752 0.41679 0.0
C3202 C 0.97321 0.03998 0.3968 0.0
C3203 C 0.99482 0.06198 0.39618 0.0
C3204 C 1.00335 0.07567 0.38882 0.0
C3205 C 0.97933 0.03788 0.41205 0.0
C3206 C 0.9937 0.04767 0.41955 0.0
C3207 C 1.00105 0.05974 0.41133 0.0
C3208 C 1.00113 0.04567 0.43579 0.0
C3209 C 0.96999 0.02534 0.42015 0.0
C3210 C 0.00624 0.05893 0.44841 0.0
C3211 C 0.01295 0.05705 0.46345 0.0
C3212 C 0.01504 0.04182 0.46656 0.0
C3213 C 0.01018 0.02865 0.45382 0.0
C3214 C 1.00345 0.03053 0.43885 0.0
H3215 H 0.95768 0.02261 0.41556 0.0
H3216 H 0.97393 0.01391 0.41781 0.0
H3217 H 0.97122 0.02942 0.43318 0.0
H3218 H 0.00486 0.07085 0.44673 0.0
H3219 H 0.0165 0.06762 0.47267 0.0
H3220 H 0.26498 0.68924 0.60501 0.0
H3221 H 0.26417 0.70814 0.62904 0.0
H3222 H 0.29435 0.74638 0.61168 0.0
H3223 H 0.29541 0.72742 0.58772 0.0
H3224 H 0.30352 0.7448 0.64169 0.0
H3225 H 0.24192 0.74411 0.63612 0.0
H3226 H 0.24518 0.72407 0.63495 0.0
H3227 H 0.25098 0.73591 0.61987 0.0
C3228 C 0.27131 0.70172 0.60626 0.0
C3229 C 0.28026 0.70689 0.59453 0.0
C3230 C 0.27075 0.71253 0.61993 0.0
C3231 C 0.27892 0.72876 0.62198 0.0
C3232 C 0.28786 0.73394 0.61027 0.0
H3233 H 0.2939 0.80365 0.70714 0.0
H3234 H 0.29024 0.79119 0.67901 0.0
C3235 C 0.28853 0.7231 0.59666 0.0
C3236 C 0.27903 0.73996 0.63688 0.0
H3237 H 0.25583 0.75418 0.66216 0.0
C3238 C 0.29312 0.7471 0.64603 0.0
C3239 C 0.26543 0.74298 0.64248 0.0
C3240 C 0.25005 0.73649 0.63275 0.0
C3241 C 0.29393 0.75653 0.66099 0.0
C3242 C 0.2803 0.75894 0.66687 0.0
C3243 C 0.26624 0.75227 0.65755 0.0
C3244 C 0.28045 0.76704 0.68328 0.0
C3245 C 0.30928 0.76325 0.67076 0.0
C3246 C 0.27569 0.75761 0.69477 0.0
C3247 C 0.27784 0.76463 0.71074 0.0
C3248 C 0.28467 0.78121 0.71542 0.0
C3249 C 0.28863 0.79083 0.70381 0.0
C3250 C 0.28657 0.78376 0.6878 0.0
H3251 H 0.31858 0.75876 0.66518 0.0
H3252 H 0.31207 0.77669 0.67219 0.0
H3253 H 0.30895 0.75994 0.68279 0.0
H3254 H 0.27097 0.74467 0.69145 0.0
H3255 H 0.27469 0.75693 0.71947 0.0
H3256 H 0.60128 0.0289 0.82422 0.0
H3257 H 0.59603 0.03805 0.85108 0.0
H3258 H 0.62078 0.08669 0.84918 0.0
H3259 H 0.62599 0.0776 0.82212 0.0
H3260 H 0.61868 0.05333 0.87775 0.0
H3261 H 0.57889 0.09209 0.86303 0.0
H3262 H 0.58325 0.07732 0.8479 0.0
H3263 H 0.59746 0.09536 0.85619 0.0
C3264 C 0.60554 0.04155 0.8295 0.0
C3265 C 0.61394 0.05257 0.82113 0.0
C3266 C 0.60258 0.04675 0.84482 0.0
C3267 C 0.60804 0.06303 0.85203 0.0
C3268 C 0.61637 0.07413 0.8437 0.0
H3269 H 0.57857 0.05789 0.9462 0.0
H3270 H 0.59591 0.0717 0.92934 0.0
C3271 C 0.61925 0.06894 0.82828 0.0
C3272 C 0.60472 0.06795 0.8683 0.0
H3273 H 0.5782 0.08328 0.8876 0.0
C3274 C 0.61017 0.0603 0.88019 0.0
C3275 C 0.59388 0.07733 0.87137 0.0
C3276 C 0.58795 0.08602 0.85901 0.0
C3277 C 0.60358 0.05995 0.89437 0.0
C3278 C 0.59142 0.06775 0.89667 0.0
C3279 C 0.58744 0.07722 0.88567 0.0
C3280 C 0.58037 0.06269 0.90773 0.0
C3281 C 0.6085 0.04973 0.90586 0.0
C3282 C 0.56566 0.0538 0.90128 0.0
C3283 C 0.55576 0.04608 0.91082 0.0
C3284 C 0.56044 0.04703 0.92698 0.0
C3285 C 0.57484 0.05673 0.93367 0.0
C3286 C 0.58471 0.06465 0.9241 0.0
H3287 H 0.6173 0.04344 0.90154 0.0
H3288 H 0.61334 0.05755 0.91741 0.0
H3289 H 0.59854 0.04043 0.90791 0.0
H3290 H 0.56212 0.05208 0.88864 0.0
H3291 H 0.54475 0.03866 0.90538 0.0
H3292 H 0.27095 0.33358 0.09825 0.0
H3293 H 0.26989 0.3234 0.12337 0.0
H3294 H 0.31147 0.35851 0.14299 0.0
H3295 H 0.31218 0.36938 0.11822 0.0
H3296 H 0.28909 0.30952 0.13876 0.0
H3297 H 0.28512 0.3659 0.1775 0.0
H3298 H 0.2828 0.36365 0.15615 0.0
H3299 H 0.30159 0.36844 0.16697 0.0
C3300 C 0.27975 0.33938 0.10797 0.0
C3301 C 0.29159 0.35244 0.10611 0.0
C3302 C 0.27919 0.33342 0.12233 0.0
C3303 C 0.29044 0.34033 0.13526 0.0
C3304 C 0.30243 0.35318 0.13339 0.0
H3305 H 0.30602 0.31022 0.22802 0.0
H3306 H 0.30913 0.32322 0.20434 0.0
C3307 C 0.30294 0.35923 0.11905 0.0
C3308 C 0.2898 0.33374 0.15047 0.0
H3309 H 0.28874 0.34403 0.19042 0.0
C3310 C 0.28899 0.3171 0.15002 0.0
C3311 C 0.28967 0.34358 0.16526 0.0
C3312 C 0.28969 0.36135 0.16654 0.0
C3313 C 0.28809 0.31007 0.16385 0.0
C3314 C 0.28795 0.31989 0.17858 0.0
C3315 C 0.28895 0.33655 0.17913 0.0
C3316 C 0.28599 0.31281 0.19333 0.0
C3317 C 0.28731 0.29216 0.16267 0.0
C3318 C 0.27189 0.30295 0.19515 0.0
C3319 C 0.27005 0.29566 0.20865 0.0
C3320 C 0.28232 0.29798 0.22063 0.0
C3321 C 0.29637 0.30817 0.21899 0.0
C3322 C 0.29816 0.31559 0.20548 0.0
H3323 H 0.29041 0.28688 0.15112 0.0
H3324 H 0.29506 0.28989 0.1724 0.0
H3325 H 0.27551 0.28576 0.16388 0.0
H3326 H 0.2623 0.30076 0.18601 0.0
H3327 H 0.25906 0.28796 0.20958 0.0
H3328 H 0.21346 0.94748 0.03151 0.0
H3329 H 0.19307 0.96218 0.0338 0.0
H3330 H 0.20335 0.98087 0.99094 0.0
H3331 H 0.22388 0.9665 0.98868 0.0
H3332 H 0.19794 0.99694 0.03577 0.0
H3333 H 0.15628 0.96279 0.98438 0.0
H3334 H 0.17112 0.95449 0.99312 0.0
H3335 H 0.17562 0.96903 0.98011 0.0
C3336 C 0.21135 0.95469 0.02255 0.0
C3337 C 0.22028 0.95584 0.00991 0.0
C3338 C 0.19967 0.96299 0.02384 0.0
C3339 C 0.19666 0.97243 0.01245 0.0
C3340 C 0.20534 0.97338 0.99968 0.0
H3341 H 0.13585 0.03595 0.99916 0.0
H3342 H 0.1552 0.01982 0.99697 0.0
C3343 C 0.21704 0.96513 0.99839 0.0
C3344 C 0.18512 0.98216 0.01443 0.0
H3345 H 0.15164 0.98751 0.99708 0.0
C3346 C 0.18775 0.99485 0.02739 0.0
C3347 C 0.17195 0.97939 1.0034 0.0
C3348 C 0.16845 0.96561 0.98952 0.0
C3349 C 0.17768 0.00516 0.02943 0.0
C3350 C 0.16448 1.00241 0.01839 0.0
C3351 C 0.1618 0.98961 0.00549 0.0
C3352 C 0.15323 0.01261 0.02001 0.0
C3353 C 0.18153 0.01915 0.04313 0.0
C3354 C 0.14571 0.01381 0.03364 0.0
C3355 C 0.13483 0.02313 0.03497 0.0
C3356 C 0.13111 0.03117 0.02257 0.0
C3357 C 0.13855 0.02986 0.00887 0.0
C3358 C 0.14956 0.02068 0.00762 0.0
H3359 H 0.1939 0.02235 0.04754 0.0
H3360 H 0.17829 0.03009 0.03969 0.0
H3361 H 0.17515 0.01568 0.05308 0.0
H3362 H 0.14805 0.00731 0.04314 0.0
H3363 H 0.12901 0.02366 0.04551 0.0
H3364 H 0.69731 0.63692 0.02012 0.0
H3365 H 0.67114 0.62194 0.02111 0.0
H3366 H 0.66707 0.60326 0.97111 0.0
H3367 H 0.69334 0.61794 0.97007 0.0
H3368 H 0.6434 0.62379 0.00369 0.0
H3369 H 0.6547 0.56222 0.99136 0.0
H3370 H 0.66979 0.58029 0.99741 0.0
H3371 H 0.66089 0.57507 0.97724 0.0
C3372 C 0.69092 0.62948 0.00936 0.0
C3373 C 0.69751 0.62854 0.99503 0.0
C3374 C 0.6759 0.62103 0.00993 0.0
C3375 C 0.66719 0.61131 0.99624 0.0
C3376 C 0.67365 0.61049 0.98188 0.0
H3377 H 0.57686 0.54717 0.97495 0.0
H3378 H 0.60217 0.56425 0.97405 0.0
C3379 C 0.68863 0.619 0.98128 0.0
C3380 C 0.65134 0.60208 0.99697 0.0
H3381 H 0.62884 0.56368 0.99157 0.0
C3382 C 0.64021 0.61064 1.0011 0.0
C3383 C 0.64719 0.58493 0.99361 0.0
C3384 C 0.65877 0.57503 0.98979 0.0
C3385 C 0.62498 0.60253 1.0016 0.0
C3386 C 0.62081 0.58536 0.99817 0.0
C3387 C 0.63199 0.57683 0.99414 0.0
C3388 C 0.60495 0.57593 0.99858 0.0
C3389 C 0.6134 0.61243 0.0054 0.0
C3390 C 0.59798 0.57686 0.01264 0.0
C3391 C 0.58346 0.56711 0.01316 0.0
C3392 C 0.57569 0.55615 0.99967 0.0
C3393 C 0.58256 0.55547 0.98555 0.0
C3394 C 0.59704 0.56522 0.98503 0.0
H3395 H 0.61738 0.62516 0.00353 0.0
H3396 H 0.60229 0.60703 0.99799 0.0
H3397 H 0.61152 0.61269 0.01804 0.0
H3398 H 0.60394 0.58479 0.02335 0.0
H3399 H 0.57849 0.56785 0.02424 0.0
H3400 H 0.723 0.45113 0.27064 0.0
H3401 H 0.73525 0.42818 0.26964 0.0
H3402 H 0.69113 0.39509 0.26208 0.0
H3403 H 0.6788 0.41787 0.26252 0.0
H3404 H 0.73687 0.40508 0.2868 0.0
H3405 H 0.70925 0.37177 0.228 0.0
H3406 H 0.70764 0.39213 0.23518 0.0
H3407 H 0.69564 0.37506 0.24146 0.0
C3408 C 0.71573 0.43903 0.26851 0.0
C3409 C 0.6996 0.43692 0.26657 0.0
C3410 C 0.7229 0.42567 0.26806 0.0
C3411 C 0.71442 0.40935 0.26544 0.0
C3412 C 0.69833 0.40721 0.26368 0.0
H3413 H 0.73853 0.31176 0.25867 0.0
H3414 H 0.72558 0.33434 0.25943 0.0
C3415 C 0.69115 0.42055 0.26419 0.0
C3416 C 0.72234 0.39487 0.26495 0.0
H3417 H 0.72335 0.35773 0.24332 0.0
C3418 C 0.73387 0.39484 0.27716 0.0
C3419 C 0.71876 0.38102 0.2526 0.0
C3420 C 0.70726 0.38 0.23849 0.0
C3421 C 0.74141 0.38176 0.27757 0.0
C3422 C 0.73792 0.36796 0.26516 0.0
C3423 C 0.72634 0.36796 0.25297 0.0
C3424 C 0.74609 0.35365 0.26456 0.0
C3425 C 0.75272 0.38273 0.29183 0.0
C3426 C 0.76221 0.35621 0.26683 0.0
C3427 C 0.76971 0.34314 0.26645 0.0
C3428 C 0.76158 0.32668 0.26358 0.0
C3429 C 0.74545 0.32405 0.26098 0.0
C3430 C 0.73793 0.33717 0.2614 0.0
H3431 H 0.75036 0.39062 0.30236 0.0
H3432 H 0.75254 0.37055 0.29492 0.0
H3433 H 0.76437 0.38811 0.28919 0.0
H3434 H 0.7692 0.36844 0.26874 0.0
H3435 H 0.78207 0.34604 0.26838 0.0
H3436 H 0.87309 0.44713 0.5394 0.0
H3437 H 0.90068 0.45525 0.54151 0.0
H3438 H 0.89778 0.50196 0.53001 0.0
H3439 H 0.86995 0.49431 0.52883 0.0
H3440 H 0.9148 0.46158 0.51627 0.0
H3441 H 0.93345 0.51423 0.56502 0.0
H3442 H 0.91471 0.50081 0.5626 0.0
H3443 H 0.91871 0.51662 0.55081 0.0
C3444 C 0.87823 0.4594 0.53796 0.0
C3445 C 0.86921 0.4701 0.534 0.0
C3446 C 0.89406 0.46395 0.53902 0.0
C3447 C 0.90127 0.47921 0.53601 0.0
C3448 C 0.89244 0.49021 0.53266 0.0
H3449 H 0.98293 0.50576 0.4941 0.0
H3450 H 0.95716 0.49578 0.50039 0.0
C3451 C 0.87652 0.48573 0.53176 0.0
C3452 C 0.91775 0.48268 0.53436 0.0
H3453 H 0.95158 0.51012 0.54678 0.0
C3454 C 0.92288 0.47208 0.5231 0.0
C3455 C 0.92828 0.49627 0.5434 0.0
C3456 C 0.92355 0.50755 0.55625 0.0
C3457 C 0.93817 0.475 0.52023 0.0
C3458 C 0.94851 0.48908 0.5286 0.0
C3459 C 0.94355 0.49938 0.5403 0.0
C3460 C 0.96424 0.4939 0.52464 0.0
C3461 C 0.94307 0.46302 0.50818 0.0
C3462 C 0.97675 0.49616 0.53623 0.0
C3463 C 0.99154 0.50193 0.53269 0.0
C3464 C 0.99402 0.50568 0.51755 0.0
C3465 C 0.98146 0.50292 0.50585 0.0
C3466 C 0.96671 0.49717 0.5094 0.0
H3467 H 0.93532 0.45077 0.50667 0.0
H3468 H 0.94266 0.46715 0.49652 0.0
H3469 H 0.95491 0.46203 0.51165 0.0
H3470 H 0.97502 0.49371 0.54806 0.0
H3471 H 1.00097 0.50388 0.54195 0.0
H3472 H 0.36816 0.09813 0.2834 0.0
H3473 H 0.35142 0.11643 0.27932 0.0
H3474 H 0.37869 0.13537 0.24437 0.0
H3475 H 0.39558 0.11706 0.24842 0.0
H3476 H 0.35838 0.14999 0.28306 0.0
H3477 H 0.33516 0.12183 0.22089 0.0
H3478 H 0.34559 0.11203 0.23381 0.0
H3479 H 0.35563 0.12791 0.22444 0.0
C3480 C 0.37074 0.10635 0.27501 0.0
C3481 C 0.3832 0.1062 0.26624 0.0
C3482 C 0.36109 0.11669 0.2726 0.0
C3483 C 0.3637 0.12702 0.26136 0.0
C3484 C 0.37632 0.1272 0.25285 0.0
H3485 H 0.32396 0.20947 0.25553 0.0
H3486 H 0.34113 0.19112 0.25716 0.0
C3487 C 0.38597 0.11681 0.25521 0.0
C3488 C 0.35326 0.13775 0.25881 0.0
H3489 H 0.32805 0.14611 0.2311 0.0
C3490 C 0.35174 0.14916 0.27171 0.0
C3491 C 0.34449 0.13641 0.24404 0.0
C3492 C 0.34515 0.12379 0.23002 0.0
C3493 C 0.34178 0.15945 0.27019 0.0
C3494 C 0.33334 0.15845 0.2553 0.0
C3495 C 0.33469 0.1469 0.24244 0.0
C3496 C 0.32302 0.16932 0.25297 0.0
C3497 C 0.34016 0.17113 0.28459 0.0
C3498 C 0.30721 0.16302 0.24948 0.0
C3499 C 0.29736 0.17348 0.24852 0.0
C3500 C 0.30323 0.19035 0.25106 0.0
C3501 C 0.31912 0.19653 0.25389 0.0
C3502 C 0.32893 0.18609 0.25479 0.0
H3503 H 0.3445 0.16766 0.29578 0.0
H3504 H 0.34686 0.18345 0.28389 0.0
H3505 H 0.32805 0.17172 0.2851 0.0
H3506 H 0.30249 0.15007 0.24797 0.0
H3507 H 0.28516 0.16842 0.24632 0.0
H3508 H 0.34486 0.13274 0.47221 0.0
H3509 H 0.36669 0.12001 0.4734 0.0
H3510 H 0.36876 0.12645 0.52441 0.0
H3511 H 0.3466 0.13859 0.52319 0.0
H3512 H 0.39527 0.13059 0.48614 0.0
H3513 H 0.36933 0.07978 0.5157 0.0
H3514 H 0.35832 0.09282 0.50804 0.0
H3515 H 0.36969 0.09917 0.5271 0.0
C3516 C 0.34995 0.13137 0.48367 0.0
C3517 C 0.34389 0.13651 0.49759 0.0
C3518 C 0.36244 0.12408 0.48435 0.0
C3519 C 0.36926 0.12187 0.49897 0.0
C3520 C 0.36345 0.12743 0.51292 0.0
H3521 H 0.44809 0.08366 0.52668 0.0
H3522 H 0.42698 0.09743 0.52603 0.0
C3523 C 0.35081 0.13447 0.51223 0.0
C3524 C 0.38259 0.11408 0.4996 0.0
H3525 H 0.39594 0.08368 0.51373 0.0
C3526 C 0.39534 0.12027 0.49211 0.0
C3527 C 0.38281 0.10058 0.50738 0.0
C3528 C 0.36924 0.0926 0.51487 0.0
C3529 C 0.40826 0.11354 0.49235 0.0
C3530 C 0.40849 0.10015 0.50021 0.0
C3531 C 0.39581 0.094 0.50777 0.0
C3532 C 0.42163 0.09214 0.5005 0.0
C3533 C 0.42169 0.12099 0.48439 0.0
C3534 C 0.42563 0.08446 0.48638 0.0
C3535 C 0.43763 0.07645 0.48671 0.0
C3536 C 0.44594 0.07588 0.50119 0.0
C3537 C 0.4419 0.08366 0.51532 0.0
C3538 C 0.42986 0.09162 0.51497 0.0
H3539 H 0.42135 0.13345 0.4824 0.0
H3540 H 0.43264 0.12148 0.49158 0.0
H3541 H 0.42146 0.11342 0.47267 0.0
H3542 H 0.41926 0.08436 0.47509 0.0
H3543 H 0.44013 0.07035 0.47561 0.0
H3544 H 0.70176 0.60318 0.24497 0.0
H3545 H 0.71458 0.63125 0.24456 0.0
H3546 H 0.72739 0.63874 0.29496 0.0
H3547 H 0.71408 0.61085 0.29572 0.0
H3548 H 0.70999 0.66157 0.26086 0.0
H3549 H 0.76856 0.65491 0.27801 0.0
H3550 H 0.75281 0.63766 0.27096 0.0
H3551 H 0.75477 0.64819 0.29099 0.0
C3552 C 0.70705 0.61067 0.25613 0.0
C3553 C 0.70659 0.60416 0.27042 0.0
C3554 C 0.71457 0.62693 0.25581 0.0
C3555 C 0.72224 0.63742 0.26967 0.0
C3556 C 0.72188 0.63106 0.28395 0.0
H3557 H 0.78071 0.73669 0.29145 0.0
H3558 H 0.76617 0.70909 0.29149 0.0
C3559 C 0.71421 0.61484 0.28433 0.0
C3560 C 0.73047 0.65488 0.26919 0.0
H3561 H 0.76574 0.68139 0.27635 0.0
C3562 C 0.7222 0.66586 0.26422 0.0
C3563 C 0.74644 0.66082 0.27358 0.0
C3564 C 0.75625 0.64981 0.27857 0.0
C3565 C 0.72922 0.68238 0.26393 0.0
C3566 C 0.74527 0.68833 0.26819 0.0
C3567 C 0.75351 0.67724 0.27305 0.0
C3568 C 0.75372 0.70591 0.26813 0.0
C3569 C 0.71911 0.69339 0.25965 0.0
C3570 C 0.75189 0.71401 0.25507 0.0
C3571 C 0.76014 0.73017 0.25517 0.0
C3572 C 0.77079 0.73874 0.2682 0.0
C3573 C 0.77264 0.73065 0.28118 0.0
C3574 C 0.76429 0.71466 0.28117 0.0
H3575 H 0.70714 0.6887 0.26187 0.0
H3576 H 0.72327 0.70584 0.26651 0.0
H3577 H 0.71898 0.69401 0.24682 0.0
H3578 H 0.74433 0.70774 0.24454 0.0
H3579 H 0.75847 0.73578 0.24484 0.0
H3580 H 0.87591 0.44741 0.76127 0.0
H3581 H 0.85865 0.42086 0.75397 0.0
H3582 H 0.82346 0.44252 0.73556 0.0
H3583 H 0.84098 0.46942 0.7424 0.0
H3584 H 0.81479 0.4217 0.75793 0.0
H3585 H 0.84209 0.39196 0.71048 0.0
H3586 H 0.85587 0.40257 0.72697 0.0
H3587 H 0.84544 0.41377 0.71575 0.0
C3588 C 0.86466 0.44658 0.75527 0.0
C3589 C 0.85987 0.46054 0.7523 0.0
C3590 C 0.85481 0.43137 0.7511 0.0
C3591 C 0.83994 0.42976 0.74393 0.0
C3592 C 0.835 0.44358 0.74091 0.0
H3593 H 0.79388 0.32703 0.72978 0.0
H3594 H 0.80082 0.35441 0.72368 0.0
C3595 C 0.84496 0.4589 0.74496 0.0
C3596 C 0.82935 0.41369 0.74132 0.0
H3597 H 0.82837 0.37423 0.72696 0.0
C3598 C 0.81742 0.41131 0.7508 0.0
C3599 C 0.83262 0.40025 0.73178 0.0
C3600 C 0.84461 0.40228 0.72054 0.0
C3601 C 0.80968 0.39564 0.75221 0.0
C3602 C 0.81428 0.38218 0.74416 0.0
C3603 C 0.8251 0.38459 0.73341 0.0
C3604 C 0.80925 0.36574 0.74793 0.0
C3605 C 0.79712 0.3937 0.76281 0.0
C3606 C 0.81199 0.36302 0.76355 0.0
C3607 C 0.80806 0.34738 0.76709 0.0
C3608 C 0.80152 0.33417 0.75502 0.0
C3609 C 0.799 0.33692 0.73934 0.0
C3610 C 0.80284 0.35257 0.73583 0.0
H3611 H 0.79134 0.40394 0.76322 0.0
H3612 H 0.78846 0.38214 0.75874 0.0
H3613 H 0.80212 0.39372 0.77507 0.0
H3614 H 0.81741 0.37298 0.77297 0.0
H3615 H 0.81023 0.34566 0.77926 0.0
H3616 H 0.08383 0.89663 0.09446 0.0
H3617 H 0.08122 0.92025 0.08235 0.0
H3618 H 0.03864 0.89285 0.05585 0.0
H3619 H 0.04122 0.86915 0.06768 0.0
H3620 H 0.07817 0.92428 0.05003 0.0
H3621 H 0.02708 0.93333 0.07864 0.0
H3622 H 0.03898 0.92052 0.08517 0.0
H3623 H 0.0252 0.91324 0.06786 0.0
C3624 C 0.07397 0.89553 0.08594 0.0
C3625 C 0.06267 0.88092 0.08221 0.0
C3626 C 0.07246 0.90911 0.07907 0.0
C3627 C 0.0596 0.90846 0.06839 0.0
C3628 C 0.0485 0.89381 0.06435 0.0
H3629 H 0.02479 0.97627 0.01762 0.0
H3630 H 0.02957 0.95266 0.0283 0.0
C3631 C 0.04999 0.88024 0.07118 0.0
C3632 C 0.05773 0.92306 0.06147 0.0
H3633 H 0.03414 0.94915 0.05882 0.0
C3634 C 0.06859 0.92978 0.05201 0.0
C3635 C 0.04523 0.93027 0.06403 0.0
C3636 C 0.03352 0.92409 0.07459 0.0
C3637 C 0.06707 0.94318 0.04473 0.0
C3638 C 0.05451 0.95035 0.04724 0.0
C3639 C 0.04374 0.94368 0.05681 0.0
C3640 C 0.05216 0.96464 0.03999 0.0
C3641 C 0.07869 0.94921 0.03403 0.0
C3642 C 0.06327 0.97937 0.0429 0.0
C3643 C 0.06061 0.99294 0.03668 0.0
C3644 C 0.04669 0.99218 0.02754 0.0
C3645 C 0.03565 0.97738 0.02456 0.0
C3646 C 0.03836 0.96382 0.03071 0.0
H3647 H 0.08484 0.93978 0.02975 0.0
H3648 H 0.07323 0.95301 0.02359 0.0
H3649 H 0.08727 0.95984 0.04075 0.0
H3650 H 0.07388 0.98051 0.05031 0.0
H3651 H 0.06933 1.00414 0.03936 0.0
H3652 H 0.94082 0.27311 0.83339 0.0
H3653 H 0.9172 0.27655 0.81958 0.0
H3654 H 0.8931 0.26422 0.85899 0.0
H3655 H 0.91676 0.26079 0.87298 0.0
H3656 H 0.88756 0.25146 0.81239 0.0
H3657 H 0.8838 0.30899 0.8499 0.0
H3658 H 0.90163 0.30277 0.84881 0.0
H3659 H 0.88742 0.29269 0.85965 0.0
C3660 C 0.93052 0.2712 0.83919 0.0
C3661 C 0.93073 0.26671 0.85434 0.0
C3662 C 0.91701 0.27313 0.83124 0.0
C3663 C 0.90341 0.27083 0.83831 0.0
C3664 C 0.90349 0.26624 0.85338 0.0
H3665 H 0.8136 0.28422 0.80016 0.0
H3666 H 0.83493 0.28097 0.81836 0.0
C3667 C 0.917 0.26414 0.86129 0.0
C3668 C 0.88913 0.27284 0.82962 0.0
H3669 H 0.86463 0.2982 0.82834 0.0
C3670 C 0.88251 0.26164 0.81592 0.0
C3671 C 0.88241 0.286 0.83434 0.0
C3672 C 0.88914 0.29841 0.84893 0.0
C3673 C 0.8695 0.26332 0.8067 0.0
C3674 C 0.86316 0.27691 0.81096 0.0
C3675 C 0.8695 0.28786 0.82497 0.0
C3676 C 0.8505 0.28027 0.80052 0.0
C3677 C 0.86261 0.25037 0.79253 0.0
C3678 C 0.85229 0.28162 0.78464 0.0
C3679 C 0.84017 0.28333 0.77431 0.0
C3680 C 0.82601 0.28412 0.77964 0.0
C3681 C 0.82441 0.28375 0.79576 0.0
C3682 C 0.83657 0.28182 0.80612 0.0
H3683 H 0.86536 0.23858 0.79396 0.0
H3684 H 0.85 0.24856 0.79059 0.0
H3685 H 0.86741 0.25404 0.78178 0.0
H3686 H 0.86303 0.28101 0.7801 0.0
H3687 H 0.84179 0.28372 0.76199 0.0
H3688 H 0.58125 0.22468 0.56844 0.0
H3689 H 0.57873 0.19637 0.5565 0.0
H3690 H 0.52994 0.19006 0.54766 0.0
H3691 H 0.53232 0.21833 0.5598 0.0
H3692 H 0.56155 0.16989 0.56828 0.0
H3693 H 0.54131 0.16905 0.50518 0.0
H3694 H 0.55046 0.18756 0.51858 0.0
H3695 H 0.5308 0.17816 0.51939 0.0
C3696 C 0.56998 0.21731 0.56388 0.0
C3697 C 0.55697 0.22377 0.56519 0.0
C3698 C 0.56857 0.20115 0.55698 0.0
C3699 C 0.55417 0.19113 0.55109 0.0
C3700 C 0.5412 0.19765 0.55187 0.0
H3701 H 0.52012 0.08813 0.51608 0.0
H3702 H 0.52348 0.11743 0.52374 0.0
C3703 C 0.54259 0.21383 0.55881 0.0
C3704 C 0.55264 0.17356 0.54539 0.0
H3705 H 0.54068 0.14351 0.51313 0.0
C3706 C 0.55708 0.16413 0.55619 0.0
C3707 C 0.54669 0.16607 0.52966 0.0
C3708 C 0.54214 0.17572 0.51746 0.0
C3709 C 0.55549 0.14735 0.5518 0.0
C3710 C 0.54964 0.13983 0.53603 0.0
C3711 C 0.5452 0.14928 0.5252 0.0
C3712 C 0.54783 0.12214 0.53066 0.0
C3713 C 0.55968 0.13777 0.56425 0.0
C3714 C 0.56045 0.11505 0.53166 0.0
C3715 C 0.55855 0.09826 0.52743 0.0
C3716 C 0.54401 0.08823 0.52189 0.0
C3717 C 0.53148 0.09545 0.52036 0.0
C3718 C 0.53337 0.11223 0.52471 0.0
H3719 H 0.55988 0.14438 0.57645 0.0
H3720 H 0.55153 0.12579 0.56287 0.0
H3721 H 0.57126 0.13569 0.56299 0.0
H3722 H 0.57178 0.12249 0.53584 0.0
H3723 H 0.56849 0.09317 0.52857 0.0
H3724 H 0.57388 0.75292 0.34282 0.0
H3725 H 0.59724 0.75636 0.32981 0.0
H3726 H 0.61497 0.8029 0.35959 0.0
H3727 H 0.59173 0.79948 0.37282 0.0
H3728 H 0.6098 0.78279 0.31344 0.0
H3729 H 0.64952 0.778 0.36472 0.0
H3730 H 0.62906 0.7709 0.36366 0.0
H3731 H 0.63766 0.79222 0.36843 0.0
C3732 C 0.5828 0.76383 0.34672 0.0
C3733 C 0.58092 0.7759 0.35892 0.0
C3734 C 0.59611 0.76582 0.3392 0.0
C3735 C 0.60793 0.77981 0.34383 0.0
C3736 C 0.60609 0.79192 0.35595 0.0
H3737 H 0.69871 0.80541 0.31166 0.0
H3738 H 0.67595 0.80609 0.32529 0.0
C3739 C 0.59273 0.79 0.3634 0.0
C3740 C 0.62203 0.7818 0.33575 0.0
H3741 H 0.66033 0.78359 0.34147 0.0
C3742 C 0.62085 0.78299 0.31957 0.0
C3743 C 0.63648 0.78222 0.34378 0.0
C3744 C 0.63835 0.78066 0.36108 0.0
C3745 C 0.6337 0.78454 0.3112 0.0
C3746 C 0.64809 0.78448 0.3191 0.0
C3747 C 0.64932 0.78362 0.33538 0.0
C3748 C 0.66182 0.78449 0.31053 0.0
C3749 C 0.63173 0.78644 0.29399 0.0
C3750 C 0.66153 0.77211 0.29776 0.0
C3751 C 0.67445 0.77176 0.2899 0.0
C3752 C 0.6881 0.78369 0.29471 0.0
C3753 C 0.68837 0.79613 0.30751 0.0
C3754 C 0.67539 0.79647 0.31538 0.0
H3755 H 0.62164 0.79146 0.29123 0.0
H3756 H 0.642 0.79452 0.29081 0.0
H3757 H 0.6299 0.77436 0.28641 0.0
H3758 H 0.65134 0.76253 0.29397 0.0
H3759 H 0.6737 0.76209 0.28 0.0
H3760 H 0.08536 0.24605 0.43667 0.0
H3761 H 0.08109 0.22436 0.45253 0.0
H3762 H 0.04242 0.19791 0.41906 0.0
H3763 H 0.04692 0.2193 0.40278 0.0
H3764 H 0.05474 0.21315 0.46651 0.0
H3765 H 0.06816 0.16434 0.42357 0.0
H3766 H 0.0733 0.18547 0.42158 0.0
H3767 H 0.05396 0.17402 0.41602 0.0
C3768 C 0.07611 0.23549 0.43253 0.0
C3769 C 0.06654 0.23432 0.41842 0.0
C3770 C 0.07361 0.2232 0.44167 0.0
C3771 C 0.06155 0.20952 0.43685 0.0
C3772 C 0.05193 0.20829 0.42282 0.0
H3773 H 0.02786 0.1401 0.4979 0.0
H3774 H 0.0302 0.16101 0.48104 0.0
C3775 C 0.05443 0.22058 0.41364 0.0
C3776 C 0.05893 0.19671 0.44676 0.0
H3777 H 0.05913 0.15701 0.44718 0.0
C3778 C 0.05568 0.20085 0.46232 0.0
C3779 C 0.06025 0.18076 0.44119 0.0
C3780 C 0.06423 0.17585 0.42472 0.0
C3781 C 0.05383 0.18945 0.47258 0.0
C3782 C 0.05505 0.17347 0.46699 0.0
C3783 C 0.05818 0.16929 0.45138 0.0
C3784 C 0.0536 0.16099 0.47729 0.0
C3785 C 0.05098 0.19472 0.48943 0.0
C3786 C 0.06589 0.15387 0.48047 0.0
C3787 C 0.06456 0.14189 0.49 0.0
C3788 C 0.05091 0.13686 0.4965 0.0
C3789 C 0.03861 0.144 0.49328 0.0
C3790 C 0.03992 0.15591 0.48367 0.0
H3791 H 0.05407 0.20814 0.49289 0.0
H3792 H 0.03867 0.19046 0.49052 0.0
H3793 H 0.05759 0.1894 0.49789 0.0
H3794 H 0.07653 0.15764 0.4756 0.0
H3795 H 0.07422 0.1366 0.49235 0.0
H3796 H 0.5565 0.27363 0.22941 0.0
H3797 H 0.58107 0.27804 0.24603 0.0
H3798 H 0.60461 0.28103 0.20444 0.0
H3799 H 0.58031 0.27678 0.18793 0.0
H3800 H 0.6019 0.25714 0.2412 0.0
H3801 H 0.62891 0.32056 0.23697 0.0
H3802 H 0.6085 0.31243 0.23317 0.0
H3803 H 0.62057 0.30868 0.21805 0.0
C3804 C 0.56697 0.27548 0.22392 0.0
C3805 C 0.56656 0.27477 0.20741 0.0
C3806 C 0.58093 0.27798 0.23338 0.0
C3807 C 0.5946 0.28011 0.22645 0.0
C3808 C 0.59419 0.27973 0.21003 0.0
H3809 H 0.68424 0.27477 0.22768 0.0
H3810 H 0.65861 0.27967 0.22514 0.0
C3811 C 0.58031 0.27711 0.2006 0.0
C3812 C 0.60932 0.28117 0.23584 0.0
H3813 H 0.64611 0.30324 0.242 0.0
C3814 C 0.61154 0.26737 0.24185 0.0
C3815 C 0.62175 0.29458 0.23664 0.0
C3816 C 0.6198 0.30997 0.231 0.0
C3817 C 0.62621 0.26601 0.24728 0.0
C3818 C 0.63883 0.27898 0.24695 0.0
C3819 C 0.6364 0.29329 0.24215 0.0
C3820 C 0.65468 0.27705 0.24927 0.0
C3821 C 0.62821 0.25027 0.25212 0.0
C3822 C 0.661 0.27414 0.26376 0.0
C3823 C 0.67566 0.27122 0.26521 0.0
C3824 C 0.68422 0.27139 0.25225 0.0
C3825 C 0.67797 0.27473 0.23791 0.0
C3826 C 0.66333 0.27752 0.23644 0.0
H3827 H 0.61751 0.24061 0.24938 0.0
H3828 H 0.63729 0.24589 0.24602 0.0
H3829 H 0.63173 0.25227 0.26509 0.0
H3830 H 0.65457 0.274 0.27386 0.0
H3831 H 0.68032 0.26888 0.27645 0.0
H3832 H 0.57961 0.87961 0.95336 0.0
H3833 H 0.576 0.90318 0.97106 0.0
H3834 H 0.56399 0.92446 0.93062 0.0
H3835 H 0.56843 0.90138 0.91283 0.0
H3836 H 0.58225 0.9467 0.95361 0.0
H3837 H 0.53451 0.91071 0.97927 0.0
H3838 H 0.55183 0.90381 0.98162 0.0
H3839 H 0.54226 0.90244 0.96205 0.0
C3840 C 0.57647 0.88942 0.94821 0.0
C3841 C 0.57417 0.88852 0.93165 0.0
C3842 C 0.57419 0.90278 0.95835 0.0
C3843 C 0.56935 0.91535 0.95214 0.0
C3844 C 0.56755 0.91478 0.93565 0.0
H3845 H 0.52681 0.98669 1.00097 0.0
H3846 H 0.53252 0.96355 0.98417 0.0
C3847 C 0.56997 0.90151 0.9255 0.0
C3848 C 0.56599 0.92905 0.96276 0.0
H3849 H 0.54373 0.93827 0.99142 0.0
C3850 C 0.57382 0.94488 0.96187 0.0
C3851 C 0.55477 0.92663 0.9733 0.0
C3852 C 0.54524 0.91 0.97404 0.0
C3853 C 0.57084 0.95838 0.97137 0.0
C3854 C 0.56006 0.9559 0.98235 0.0
C3855 C 0.55212 0.94009 0.98312 0.0
C3856 C 0.55659 0.96958 0.99289 0.0
C3857 C 0.57899 0.97515 0.96925 0.0
C3858 C 0.56816 0.98036 0.00363 0.0
C3859 C 0.56495 0.99365 0.01307 0.0
C3860 C 0.5501 0.99624 0.01204 0.0
C3861 C 0.53839 0.98505 1.00182 0.0
C3862 C 0.54163 0.97184 0.99227 0.0
H3863 H 0.58345 0.97504 0.95756 0.0
H3864 H 0.5713 0.98367 0.97027 0.0
H3865 H 0.58884 0.97983 0.97861 0.0
H3866 H 0.57969 0.97858 0.0046 0.0
H3867 H 0.57416 1.00204 0.02097 0.0
H3868 H 0.94297 0.7646 0.72012 0.0
H3869 H 0.92087 0.76384 0.73494 0.0
H3870 H 0.89099 0.73869 0.6928 0.0
H3871 H 0.91297 0.73961 0.67783 0.0
H3872 H 0.88567 0.76933 0.70775 0.0
H3873 H 0.88951 0.72646 0.75002 0.0
H3874 H 0.90692 0.74066 0.74823 0.0
H3875 H 0.898 0.72526 0.73165 0.0
C3876 C 0.9317 0.75875 0.71408 0.0
C3877 C 0.92964 0.75227 0.69781 0.0
C3878 C 0.91914 0.75814 0.72259 0.0
C3879 C 0.9044 0.75103 0.71496 0.0
C3880 C 0.90235 0.74403 0.69889 0.0
H3881 H 0.81571 0.74677 0.74787 0.0
H3882 H 0.83849 0.73892 0.73873 0.0
C3883 C 0.91489 0.74457 0.69038 0.0
C3884 C 0.89103 0.75301 0.72306 0.0
H3885 H 0.87133 0.74268 0.75373 0.0
C3886 C 0.88245 0.76341 0.71772 0.0
C3887 C 0.88697 0.74525 0.73604 0.0
C3888 C 0.89573 0.73368 0.74183 0.0
C3889 C 0.86998 0.76651 0.7252 0.0
C3890 C 0.86613 0.7591 0.73846 0.0
C3891 C 0.87448 0.7484 0.74363 0.0
C3892 C 0.85342 0.76262 0.74694 0.0
C3893 C 0.86104 0.77773 0.7189 0.0
C3894 C 0.85458 0.7783 0.75514 0.0
C3895 C 0.84164 0.78287 0.76017 0.0
C3896 C 0.82739 0.77176 0.75719 0.0
C3897 C 0.82653 0.75563 0.7502 0.0
C3898 C 0.83951 0.7511 0.74504 0.0
H3899 H 0.86345 0.77964 0.70674 0.0
H3900 H 0.84858 0.77287 0.7187 0.0
H3901 H 0.86423 0.78972 0.72679 0.0
H3902 H 0.86531 0.78727 0.75682 0.0
H3903 H 0.8427 0.7953 0.76579 0.0
H3904 H 0.10129 0.99495 0.84796 0.0
H3905 H 0.0897 0.99714 0.87274 0.0
H3906 H 0.11585 0.04633 0.8864 0.0
H3907 H 0.12737 0.0443 0.86166 0.0
H3908 H 0.0978 1.00065 0.90283 0.0
H3909 H 0.07704 0.05586 0.89725 0.0
H3910 H 0.08478 0.04544 0.88122 0.0
H3911 H 0.09731 0.05941 0.89711 0.0
C3912 C 0.10472 0.00632 0.85613 0.0
C3913 C 0.11545 0.01945 0.85214 0.0
C3914 C 0.09791 0.0076 0.87056 0.0
C3915 C 0.10132 0.02208 0.88187 0.0
C3916 C 0.11224 0.0351 0.87805 0.0
H3917 H 0.07043 0.04783 0.97881 0.0
H3918 H 0.08489 0.04753 0.95546 0.0
C3919 C 0.11902 0.03386 0.86361 0.0
C3920 C 0.09382 0.02332 0.89757 0.0
H3921 H 0.07574 0.04705 0.92222 0.0
C3922 C 0.09297 0.01085 0.90688 0.0
C3923 C 0.0873 0.0365 0.90351 0.0
C3924 C 0.08649 0.04997 0.89419 0.0
C3925 C 0.08624 0.01124 0.92142 0.0
C3926 C 0.07974 0.02439 0.92733 0.0
C3927 C 0.08069 0.03694 0.91816 0.0
C3928 C 0.0712 0.02474 0.9423 0.0
C3929 C 0.08643 0.9975 0.93055 0.0
C3930 C 0.05845 0.01223 0.94328 0.0
C3931 C 0.05015 0.01246 0.95661 0.0
C3932 C 0.05411 0.02511 0.96992 0.0
C3933 C 0.067 0.03765 0.96915 0.0
C3934 C 0.07526 0.03753 0.95557 0.0
H3935 H 0.09556 0.99116 0.92742 0.0
H3936 H 0.08814 1.00192 0.94354 0.0
H3937 H 0.07532 0.98851 0.92759 0.0
H3938 H 0.05458 1.00228 0.93344 0.0
H3939 H 0.0403 1.00259 0.95635 0.0
H3940 H 0.80551 0.40022 0.59342 0.0
H3941 H 0.81574 0.39247 0.61776 0.0
H3942 H 0.81492 0.34506 0.59188 0.0
H3943 H 0.80483 0.35276 0.56757 0.0
H3944 H 0.80218 0.36872 0.63225 0.0
H3945 H 0.85704 0.35664 0.61642 0.0
H3946 H 0.84642 0.3678 0.60523 0.0
H3947 H 0.84178 0.34593 0.60142 0.0
C3948 C 0.80747 0.38813 0.59297 0.0
C3949 C 0.80434 0.37704 0.57865 0.0
C3950 C 0.81349 0.3838 0.60681 0.0
C3951 C 0.81649 0.36836 0.60651 0.0
C3952 C 0.81322 0.35724 0.59225 0.0
H3953 H 0.81336 0.29492 0.65668 0.0
H3954 H 0.82061 0.31462 0.63917 0.0
C3955 C 0.80729 0.36158 0.57842 0.0
C3956 C 0.82142 0.3631 0.62133 0.0
H3957 H 0.8455 0.34182 0.63637 0.0
C3958 C 0.81191 0.36326 0.63342 0.0
C3959 C 0.83423 0.35616 0.62285 0.0
C3960 C 0.84553 0.35679 0.61084 0.0
C3961 C 0.81396 0.35527 0.64625 0.0
C3962 C 0.826 0.34711 0.64706 0.0
C3963 C 0.83625 0.34804 0.63564 0.0
C3964 C 0.82635 0.33543 0.65804 0.0
C3965 C 0.80248 0.35451 0.65813 0.0
C3966 C 0.82816 0.34059 0.67449 0.0
C3967 C 0.82392 0.32936 0.6845 0.0
C3968 C 0.81797 0.31287 0.67814 0.0
C3969 C 0.81789 0.30755 0.66187 0.0
C3970 C 0.82204 0.31879 0.65186 0.0
H3971 H 0.79276 0.35978 0.65459 0.0
H3972 H 0.79788 0.34175 0.65957 0.0
H3973 H 0.80816 0.36138 0.66984 0.0
H3974 H 0.83169 0.35338 0.67945 0.0
H3975 H 0.82432 0.33369 0.69708 0.0
H3976 H 0.46472 0.01595 0.34831 0.0
H3977 H 0.4809 0.01714 0.37291 0.0
H3978 H 0.47023 0.06226 0.3922 0.0
H3979 H 0.45378 0.06107 0.36766 0.0
H3980 H 0.50245 0.06156 0.39516 0.0
H3981 H 0.46561 0.00993 0.41631 0.0
H3982 H 0.46989 0.00578 0.39624 0.0
H3983 H 0.45858 0.02023 0.40135 0.0
C3984 C 0.46561 0.02601 0.35787 0.0
C3985 C 0.45787 0.03835 0.35612 0.0
C3986 C 0.4749 0.02668 0.37187 0.0
C3987 C 0.47656 0.03968 0.38436 0.0
C3988 C 0.469 0.05212 0.38265 0.0
H3989 H 0.53175 0.06521 0.47659 0.0
H3990 H 0.51607 0.06606 0.45208 0.0
C3991 C 0.45967 0.05144 0.36864 0.0
C3992 C 0.48642 0.04038 0.39912 0.0
H3993 H 0.49021 0.02067 0.43041 0.0
C3994 C 0.49979 0.05271 0.40296 0.0
C3995 C 0.48285 0.02873 0.40912 0.0
C3996 C 0.46839 0.01548 0.40567 0.0
C3997 C 0.50998 0.05346 0.41645 0.0
C3998 C 0.50642 0.04178 0.42647 0.0
C3999 C 0.49293 0.02957 0.42267 0.0
C4000 C 0.51654 0.0418 0.44091 0.0
C4001 C 0.52464 0.06643 0.41954 0.0
C4002 C 0.52164 0.02775 0.44289 0.0
C4003 C 0.53015 0.02713 0.457 0.0
C4004 C 0.53394 0.04065 0.46912 0.0
C4005 C 0.52917 0.05482 0.46712 0.0
C4006 C 0.52031 0.05531 0.45315 0.0
H4007 H 0.52756 0.07137 0.40863 0.0
H4008 H 0.52329 0.07661 0.4285 0.0
H4009 H 0.53431 0.06166 0.4242 0.0
H4010 H 0.5188 0.01718 0.43362 0.0
H4011 H 0.53368 0.01607 0.45851 0.0
H4012 H 0.75859 0.73168 0.07659 0.0
H4013 H 0.75925 0.74313 0.10457 0.0
H4014 H 0.80783 0.74702 0.11152 0.0
H4015 H 0.80728 0.73582 0.08349 0.0
H4016 H 0.76714 0.73045 0.12993 0.0
H4017 H 0.80555 0.7911 0.13358 0.0
H4018 H 0.79728 0.77838 0.11488 0.0
H4019 H 0.81387 0.77486 0.12568 0.0
C4020 C 0.76944 0.73512 0.08405 0.0
C4021 C 0.78289 0.73287 0.07779 0.0
C4022 C 0.76981 0.7417 0.10005 0.0
C4023 C 0.78362 0.74617 0.11017 0.0
C4024 C 0.7971 0.74411 0.10391 0.0
H4025 H 0.80875 0.77471 0.21189 0.0
H4026 H 0.80806 0.76735 0.18317 0.0
C4027 C 0.79676 0.73765 0.08787 0.0
C4028 C 0.78369 0.7519 0.12746 0.0
H4029 H 0.80016 0.78257 0.15819 0.0
C4030 C 0.77426 0.74192 0.13606 0.0
C4031 C 0.79303 0.76684 0.13553 0.0
C4032 C 0.80289 0.77849 0.12692 0.0
C4033 C 0.77415 0.74626 0.15249 0.0
C4034 C 0.78356 0.76114 0.16058 0.0
C4035 C 0.79295 0.77117 0.152 0.0
C4036 C 0.78399 0.76634 0.17799 0.0
C4037 C 0.76427 0.73462 0.16111 0.0
C4038 C 0.77076 0.76857 0.18466 0.0
C4039 C 0.77108 0.77271 0.20112 0.0
C4040 C 0.78469 0.77487 0.21127 0.0
C4041 C 0.79804 0.77311 0.20449 0.0
C4042 C 0.79769 0.76891 0.18804 0.0
H4043 H 0.7609 0.72215 0.15411 0.0
H4044 H 0.77026 0.73411 0.1728 0.0
H4045 H 0.75369 0.7388 0.16318 0.0
H4046 H 0.76013 0.76702 0.17714 0.0
H4047 H 0.76061 0.7741 0.20587 0.0
H4048 H 0.13413 0.02551 0.67667 0.0
H4049 H 0.12235 0.02767 0.65067 0.0
H4050 H 0.07801 0.00734 0.66337 0.0
H4051 H 0.08983 1.00481 0.6894 0.0
H4052 H 0.07742 0.99571 0.6339 0.0
H4053 H 0.10274 0.06083 0.63711 0.0
H4054 H 0.1173 0.04971 0.63887 0.0
H4055 H 0.10458 0.05075 0.65394 0.0
C4056 C 0.12183 0.02163 0.67416 0.0
C4057 C 0.11313 0.01512 0.6857 0.0
C4058 C 0.11498 0.02298 0.65905 0.0
C4059 C 0.09899 0.01817 0.65467 0.0
C4060 C 0.0903 0.01134 0.66604 0.0
H4061 H 0.05415 0.05123 0.57278 0.0
H4062 H 0.06536 0.0477 0.59863 0.0
C4063 C 0.09717 0.00984 0.68114 0.0
C4064 C 0.09147 0.01998 0.63837 0.0
H4065 H 0.09089 0.0465 0.61174 0.0
C4066 C 0.08042 0.0069 0.62919 0.0
C4067 C 0.09481 0.03456 0.6318 0.0
C4068 C 0.10537 0.04981 0.64101 0.0
C4069 C 0.07305 0.00783 0.61405 0.0
C4070 C 0.07693 0.02217 0.60715 0.0
C4071 C 0.0878 0.03533 0.61647 0.0
C4072 C 0.06965 0.02405 0.59075 0.0
C4073 C 0.06072 0.99344 0.60593 0.0
C4074 C 0.06811 0.01218 0.57697 0.0
C4075 C 0.06138 0.01412 0.56197 0.0
C4076 C 0.05613 0.02819 0.55988 0.0
C4077 C 0.05792 0.04017 0.57358 0.0
C4078 C 0.06447 0.03815 0.58858 0.0
H4079 H 0.0556 0.98607 0.6146 0.0
H4080 H 0.05147 0.99728 0.59922 0.0
H4081 H 0.06577 0.9855 0.59755 0.0
H4082 H 0.07234 1.00138 0.57765 0.0
H4083 H 0.0605 1.00459 0.55191 0.0
H4084 H 0.77257 0.36488 0.4195 0.0
H4085 H 0.7745 0.34694 0.39522 0.0
H4086 H 0.82009 0.34546 0.41343 0.0
H4087 H 0.81833 0.36379 0.43763 0.0
H4088 H 0.81905 0.34977 0.38347 0.0
H4089 H 0.77133 0.29899 0.38843 0.0
H4090 H 0.765 0.31751 0.38945 0.0
H4091 H 0.77909 0.31542 0.40469 0.0
C4092 C 0.78294 0.36061 0.41836 0.0
C4093 C 0.79527 0.36563 0.43042 0.0
C4094 C 0.78401 0.35029 0.40454 0.0
C4095 C 0.7973 0.34454 0.40268 0.0
C4096 C 0.80969 0.34965 0.41468 0.0
H4097 H 0.78854 0.27113 0.31775 0.0
H4098 H 0.79502 0.28424 0.34561 0.0
C4099 C 0.80869 0.36014 0.42844 0.0
C4100 C 0.79842 0.33382 0.38786 0.0
H4101 H 0.77864 0.30029 0.36208 0.0
C4102 C 0.81036 0.33879 0.3789 0.0
C4103 C 0.78737 0.31924 0.3821 0.0
C4104 C 0.77509 0.31239 0.39178 0.0
C4105 C 0.81095 0.33014 0.36385 0.0
C4106 C 0.79902 0.31648 0.35744 0.0
C4107 C 0.78767 0.31091 0.36686 0.0
C4108 C 0.79725 0.30865 0.3406 0.0
C4109 C 0.82427 0.33587 0.35496 0.0
C4110 C 0.7965 0.31802 0.32854 0.0
C4111 C 0.79301 0.31059 0.3127 0.0
C4112 C 0.78984 0.29362 0.30864 0.0
C4113 C 0.7909 0.28424 0.32062 0.0
C4114 C 0.79461 0.29171 0.33649 0.0
H4115 H 0.83472 0.34174 0.3633 0.0
H4116 H 0.82672 0.32572 0.34673 0.0
H4117 H 0.82161 0.34507 0.34798 0.0
H4118 H 0.79801 0.33105 0.3314 0.0
H4119 H 0.7922 0.3181 0.30368 0.0
H4120 H 0.45867 0.98152 0.21273 0.0
H4121 H 0.4665 0.97258 0.18674 0.0
H4122 H 0.47409 0.02164 0.17741 0.0
H4123 H 0.46614 0.0306 0.20302 0.0
H4124 H 0.45307 0.99084 0.15262 0.0
H4125 H 0.51298 0.98999 0.17327 0.0
H4126 H 0.49713 0.98222 0.1837 0.0
H4127 H 0.50389 1.00369 0.18491 0.0
C4128 C 0.46209 0.99037 0.20513 0.0
C4129 C 0.4619 0.00678 0.20991 0.0
C4130 C 0.46651 0.98525 0.19035 0.0
C4131 C 0.47072 0.99648 0.18027 0.0
C4132 C 0.4708 0.01284 0.18512 0.0
H4133 H 0.49754 0.03888 0.10986 0.0
H4134 H 0.48257 0.02313 0.12693 0.0
C4135 C 0.46645 0.01797 0.19982 0.0
C4136 C 0.47524 0.99168 0.16456 0.0
H4137 H 0.5079 0.99477 0.14707 0.0
C4138 C 0.46493 0.99105 0.15121 0.0
C4139 C 0.4906 0.99162 0.16282 0.0
C4140 C 0.50187 0.99184 0.17689 0.0
C4141 C 0.47007 0.99236 0.1364 0.0
C4142 C 0.48588 0.99475 0.13519 0.0
C4143 C 0.49579 0.99316 0.14807 0.0
C4144 C 0.4928 1.00246 0.1224 0.0
C4145 C 0.45872 0.99242 0.12251 0.0
C4146 C 0.5036 0.99613 0.11426 0.0
C4147 C 0.51231 0.00524 0.10457 0.0
C4148 C 0.51041 0.02085 0.10302 0.0
C4149 C 0.49916 0.02685 0.1107 0.0
C4150 C 0.49048 0.01776 0.12034 0.0
H4151 H 0.44758 0.98407 0.12311 0.0
H4152 H 0.4567 1.0048 0.12293 0.0
H4153 H 0.4629 0.98877 0.11102 0.0
H4154 H 0.50566 0.98442 0.11583 0.0
H4155 H 0.52072 1.00019 0.09854 0.0
H4156 H 0.80608 0.73126 0.92366 0.0
H4157 H 0.80684 0.74165 0.89857 0.0
H4158 H 0.75922 0.71855 0.88524 0.0
H4159 H 0.75837 0.70799 0.91023 0.0
H4160 H 0.80059 0.72468 0.86743 0.0
H4161 H 0.76076 0.76515 0.8786 0.0
H4162 H 0.76922 0.75661 0.89416 0.0
H4163 H 0.75333 0.74442 0.88058 0.0
C4164 C 0.79576 0.72829 0.91538 0.0
C4165 C 0.78214 0.71881 0.91909 0.0
C4166 C 0.79621 0.73432 0.90104 0.0
C4167 C 0.78304 0.7311 0.89008 0.0
C4168 C 0.76945 0.72153 0.89364 0.0
H4169 H 0.76712 0.76284 0.7983 0.0
H4170 H 0.76424 0.74896 0.8214 0.0
C4171 C 0.76899 0.7155 0.90798 0.0
C4172 C 0.78365 0.73752 0.87481 0.0
H4173 H 0.76915 0.76252 0.85317 0.0
C4174 C 0.79372 0.73296 0.86433 0.0
C4175 C 0.77461 0.74824 0.87066 0.0
C4176 C 0.76395 0.75404 0.88162 0.0
C4177 C 0.79497 0.73877 0.84985 0.0
C4178 C 0.78615 0.74975 0.84584 0.0
C4179 C 0.77589 0.7541 0.8562 0.0
C4180 C 0.78794 0.75747 0.83138 0.0
C4181 C 0.8056 0.73291 0.8389 0.0
C4182 C 0.80217 0.76692 0.82927 0.0
C4183 C 0.80383 0.77479 0.8161 0.0
C4184 C 0.79127 0.77354 0.80479 0.0
C4185 C 0.77702 0.764 0.8068 0.0
C4186 C 0.77536 0.7561 0.82001 0.0
H4187 H 0.80769 0.72107 0.84114 0.0
H4188 H 0.80096 0.73161 0.82626 0.0
H4189 H 0.81676 0.74185 0.84098 0.0
H4190 H 0.81198 0.76851 0.838 0.0
H4191 H 0.81495 0.78209 0.81494 0.0
H4192 H 0.84299 0.09901 0.03202 0.0
H4193 H 0.86278 0.08352 0.03056 0.0
H4194 H 0.88115 0.10889 0.99403 0.0
H4195 H 0.8615 0.12468 0.99559 0.0
H4196 H 0.86792 0.0634 1.00208 0.0
H4197 H 0.91835 0.113 0.02818 0.0
H4198 H 0.89902 0.11431 0.03095 0.0
H4199 H 0.90614 0.11715 0.0124 0.0
C4200 C 0.85138 0.10147 0.02386 0.0
C4201 C 0.85077 0.1131 0.01398 0.0
C4202 C 0.86259 0.09255 0.02296 0.0
C4203 C 0.87343 0.09519 0.01229 0.0
C4204 C 0.87294 0.10684 1.00246 0.0
H4205 H 0.93429 0.03476 0.9806 0.0
H4206 H 0.91418 0.04979 0.98237 0.0
C4207 C 0.86168 0.11574 1.00329 0.0
C4208 C 0.88496 0.08536 0.01114 0.0
H4209 H 0.92314 0.08755 0.01813 0.0
C4210 C 0.88 0.06864 0.00558 0.0
C4211 C 0.90065 0.09231 0.01584 0.0
C4212 C 0.90643 0.11016 0.02229 0.0
C4213 C 0.8904 0.05863 0.00449 0.0
C4214 C 0.90611 0.0656 0.009 0.0
C4215 C 0.91105 0.08231 0.01466 0.0
C4216 C 0.91763 0.05575 0.00799 0.0
C4217 C 0.88452 0.04065 0.99874 0.0
C4218 C 0.92619 0.05418 0.02182 0.0
C4219 C 0.93762 0.04552 0.02088 0.0
C4220 C 0.94074 0.0384 0.00605 0.0
C4221 C 0.93197 0.03983 0.99222 0.0
C4222 C 0.92053 0.04846 0.99319 0.0
H4223 H 0.87199 0.03676 0.999 0.0
H4224 H 0.88694 0.03766 0.98632 0.0
H4225 H 0.89034 0.03359 0.00608 0.0
H4226 H 0.92408 0.05976 0.03335 0.0
H4227 H 0.94409 0.04451 0.03174 0.0
H4228 H 0.38411 0.43751 0.05086 0.0
H4229 H 0.41043 0.45225 0.04999 0.0
H4230 H 0.39663 0.46634 0.00581 0.0
H4231 H 0.37028 0.45186 0.00669 0.0
H4232 H 0.42994 0.44777 0.02491 0.0
H4233 H 0.4189 0.50964 0.03527 0.0
H4234 H 0.40589 0.49213 0.03976 0.0
H4235 H 0.40644 0.49545 0.01961 0.0
C4236 C 0.38664 0.44389 0.04105 0.0
C4237 C 0.37505 0.44355 0.02889 0.0
C4238 C 0.40171 0.4522 0.0405 0.0
C4239 C 0.40548 0.46049 0.02789 0.0
C4240 C 0.39397 0.46016 0.01573 0.0
H4241 H 0.49517 0.50135 1.00079 0.0
H4242 H 0.46969 0.48448 1.00187 0.0
C4243 C 0.37892 0.45178 0.01621 0.0
C4244 C 0.42144 0.46952 0.02746 0.0
H4245 H 0.44352 0.50765 0.02902 0.0
C4246 C 0.43294 0.46086 0.02582 0.0
C4247 C 0.42533 0.48661 0.02877 0.0
C4248 C 0.41355 0.49658 0.03108 0.0
C4249 C 0.4482 0.46884 0.02526 0.0
C4250 C 0.45203 0.4859 0.02631 0.0
C4251 C 0.44055 0.49456 0.02813 0.0
C4252 C 0.46793 0.49515 0.02592 0.0
C4253 C 0.46016 0.459 0.02382 0.0
C4254 C 0.47543 0.50672 0.03907 0.0
C4255 C 0.48995 0.51633 0.03848 0.0
C4256 C 0.49721 0.51471 0.02465 0.0
C4257 C 0.48986 0.50286 0.0116 0.0
C4258 C 0.47533 0.49318 0.01223 0.0
H4259 H 0.45603 0.44662 0.02655 0.0
H4260 H 0.46316 0.45779 0.01149 0.0
H4261 H 0.47071 0.46514 0.03189 0.0
H4262 H 0.46995 0.50846 0.04974 0.0
H4263 H 0.49533 0.52532 0.04874 0.0
H4264 H 0.36855 0.63667 0.78244 0.0
H4265 H 0.35605 0.65939 0.78284 0.0
H4266 H 0.35881 0.6579 0.73286 0.0
H4267 H 0.37113 0.63513 0.73233 0.0
H4268 H 0.36197 0.68931 0.77893 0.0
H4269 H 0.31583 0.66024 0.73069 0.0
H4270 H 0.32851 0.6491 0.73885 0.0
H4271 H 0.33422 0.66131 0.72398 0.0
C4272 C 0.3666 0.64105 0.77143 0.0
C4273 C 0.37103 0.63339 0.7573 0.0
C4274 C 0.35927 0.65428 0.77167 0.0
C4275 C 0.35582 0.66068 0.75782 0.0
C4276 C 0.36052 0.65327 0.74378 0.0
H4277 H 0.33236 0.75908 0.76382 0.0
H4278 H 0.34545 0.73675 0.76322 0.0
C4279 C 0.36779 0.64 0.7435 0.0
C4280 C 0.34771 0.67505 0.75819 0.0
H4281 H 0.31878 0.68855 0.73909 0.0
C4282 C 0.35251 0.68897 0.77014 0.0
C4283 C 0.33501 0.67516 0.74711 0.0
C4284 C 0.32797 0.6606 0.73454 0.0
C4285 C 0.34548 0.70255 0.77117 0.0
C4286 C 0.33317 0.70293 0.75971 0.0
C4287 C 0.32821 0.68889 0.74791 0.0
C4288 C 0.32505 0.71729 0.75994 0.0
C4289 C 0.35113 0.71614 0.78506 0.0
C4290 C 0.30891 0.71463 0.75769 0.0
C4291 C 0.30129 0.72762 0.75779 0.0
C4292 C 0.30934 0.7441 0.76011 0.0
C4293 C 0.32548 0.74681 0.7622 0.0
C4294 C 0.33311 0.73379 0.762 0.0
H4295 H 0.35663 0.71191 0.7952 0.0
H4296 H 0.35982 0.72579 0.78144 0.0
H4297 H 0.34168 0.72147 0.78919 0.0
H4298 H 0.30202 0.70235 0.75598 0.0
H4299 H 0.28893 0.72464 0.75606 0.0
H4300 H 0.20373 0.61157 0.4795 0.0
H4301 H 0.17592 0.60397 0.47706 0.0
H4302 H 0.17803 0.56633 0.50495 0.0
H4303 H 0.206 0.5736 0.50717 0.0
H4304 H 0.15361 0.55857 0.47786 0.0
H4305 H 0.15678 0.61625 0.51886 0.0
H4306 H 0.16632 0.61802 0.5014 0.0
H4307 H 0.17317 0.60768 0.51624 0.0
C4308 C 0.19831 0.6013 0.48466 0.0
C4309 C 0.20704 0.59322 0.49362 0.0
C4310 C 0.18243 0.59709 0.48337 0.0
C4311 C 0.17505 0.58481 0.49105 0.0
C4312 C 0.18363 0.57592 0.49903 0.0
H4313 H 0.09006 0.56589 0.52859 0.0
H4314 H 0.11654 0.57482 0.52364 0.0
C4315 C 0.19954 0.58012 0.50034 0.0
C4316 C 0.15856 0.58232 0.49213 0.0
H4317 H 0.13226 0.59989 0.50963 0.0
C4318 C 0.14886 0.5676 0.48468 0.0
C4319 C 0.15259 0.59413 0.50124 0.0
C4320 C 0.16272 0.60988 0.51002 0.0
C4321 C 0.13321 0.5643 0.48622 0.0
C4322 C 0.12722 0.57617 0.49525 0.0
C4323 C 0.13693 0.59094 0.50258 0.0
C4324 C 0.11111 0.57293 0.49828 0.0
C4325 C 0.12335 0.54792 0.47867 0.0
C4326 C 0.09933 0.56968 0.48574 0.0
C4327 C 0.0842 0.56452 0.48851 0.0
C4328 C 0.08068 0.56268 0.5039 0.0
C4329 C 0.09242 0.56715 0.51661 0.0
C4330 C 0.10755 0.57221 0.5138 0.0
H4331 H 0.13028 0.53905 0.47503 0.0
H4332 H 0.1155 0.54291 0.48695 0.0
H4333 H 0.11632 0.54925 0.46792 0.0
H4334 H 0.10189 0.57058 0.47374 0.0
H4335 H 0.07535 0.56137 0.47851 0.0
H4336 H 0.68046 0.95689 0.7761 0.0
H4337 H 0.6972 0.93874 0.78136 0.0
H4338 H 0.72864 0.9609 0.75141 0.0
H4339 H 0.71225 0.97936 0.74639 0.0
H4340 H 0.71639 0.92331 0.74622 0.0
H4341 H 0.74333 0.95417 0.80686 0.0
H4342 H 0.72307 0.95177 0.80191 0.0
H4343 H 0.73623 0.96506 0.79247 0.0
C4344 C 0.69101 0.958 0.77077 0.0
C4345 C 0.69503 0.9695 0.76079 0.0
C4346 C 0.7005 0.94764 0.77376 0.0
C4347 C 0.7141 0.94865 0.76683 0.0
C4348 C 0.71814 0.96003 0.75685 0.0
H4349 H 0.79066 0.90448 0.77872 0.0
H4350 H 0.77382 0.92338 0.77746 0.0
C4351 C 0.70871 0.97044 0.7539 0.0
C4352 C 0.72391 0.93744 0.76948 0.0
H4353 H 0.75047 0.93018 0.79641 0.0
C4354 C 0.72382 0.92472 0.75719 0.0
C4355 C 0.73361 0.93957 0.78377 0.0
C4356 C 0.73422 0.9534 0.79706 0.0
C4357 C 0.73325 0.91392 0.75881 0.0
C4358 C 0.74284 0.91588 0.7732 0.0
C4359 C 0.743 0.9287 0.78547 0.0
C4360 C 0.75295 0.90482 0.77551 0.0
C4361 C 0.7331 0.90071 0.74502 0.0
C4362 C 0.74672 0.88832 0.7753 0.0
C4363 C 0.75625 0.87758 0.77593 0.0
C4364 C 0.77216 0.88322 0.77692 0.0
C4365 C 0.77843 0.89988 0.77795 0.0
C4366 C 0.76886 0.91063 0.77722 0.0
H4367 H 0.72789 0.90322 0.73373 0.0
H4368 H 0.74484 0.89925 0.74351 0.0
H4369 H 0.72627 0.88903 0.74734 0.0
H4370 H 0.73447 0.88372 0.77432 0.0
H4371 H 0.75118 0.86481 0.77545 0.0
H4372 H 0.73536 0.9489 0.5078 0.0
H4373 H 0.71348 0.96145 0.50617 0.0
H4374 H 0.69278 0.93302 0.53951 0.0
H4375 H 0.71442 0.92018 0.54102 0.0
H4376 H 0.68174 0.94672 0.49734 0.0
H4377 H 0.69303 0.97998 0.55929 0.0
H4378 H 0.70719 0.97143 0.54964 0.0
H4379 H 0.69206 0.9586 0.55735 0.0
C4380 C 0.72611 0.94518 0.51471 0.0
C4381 C 0.72679 0.93356 0.52464 0.0
C4382 C 0.71362 0.95245 0.5138 0.0
C4383 C 0.70157 0.94838 0.52289 0.0
C4384 C 0.70208 0.93663 0.53264 0.0
H4385 H 0.61844 0.98186 0.53768 0.0
H4386 H 0.63926 0.9677 0.53771 0.0
C4387 C 0.71453 0.92933 0.53352 0.0
C4388 C 0.68844 0.95634 0.52214 0.0
H4389 H 0.66981 0.98046 0.54462 0.0
C4390 C 0.67915 0.95415 0.50766 0.0
C4391 C 0.68503 0.966 0.53561 0.0
C4392 C 0.6949 0.9693 0.55134 0.0
C4393 C 0.6664 0.96109 0.50636 0.0
C4394 C 0.66302 0.97082 0.51983 0.0
C4395 C 0.67234 0.97299 0.5343 0.0
C4396 C 0.64997 0.97896 0.51922 0.0
C4397 C 0.65646 0.9576 0.49066 0.0
C4398 C 0.64901 0.99008 0.50886 0.0
C4399 C 0.6371 0.99821 0.50882 0.0
C4400 C 0.62592 0.99555 0.51926 0.0
C4401 C 0.6269 0.98435 0.52958 0.0
C4402 C 0.63878 0.97619 0.52958 0.0
H4403 H 0.65787 0.94644 0.48311 0.0
H4404 H 0.64422 0.95616 0.49238 0.0
H4405 H 0.65976 0.96787 0.48416 0.0
H4406 H 0.65769 0.99278 0.50103 0.0
H4407 H 0.63691 0.00696 0.50091 0.0
H4408 H 0.34171 0.47112 0.75714 0.0
H4409 H 0.32878 0.44329 0.75892 0.0
H4410 H 0.37057 0.42787 0.75297 0.0
H4411 H 0.38368 0.4557 0.75157 0.0
H4412 H 0.32326 0.41473 0.7379 0.0
H4413 H 0.35866 0.40739 0.79098 0.0
H4414 H 0.35945 0.4269 0.78505 0.0
H4415 H 0.36941 0.41301 0.77518 0.0
C4416 C 0.34831 0.46195 0.7564 0.0
C4417 C 0.36396 0.46611 0.75424 0.0
C4418 C 0.34078 0.44582 0.75733 0.0
C4419 C 0.34857 0.43313 0.75637 0.0
C4420 C 0.36415 0.43721 0.75412 0.0
H4421 H 0.31915 0.32736 0.76225 0.0
H4422 H 0.33397 0.35458 0.76026 0.0
C4423 C 0.37167 0.4533 0.75309 0.0
C4424 C 0.3403 0.41574 0.75728 0.0
H4425 H 0.34077 0.38385 0.7775 0.0
C4426 C 0.32712 0.40808 0.74664 0.0
C4427 C 0.34519 0.4066 0.76848 0.0
C4428 C 0.35886 0.4139 0.78067 0.0
C4429 C 0.31899 0.3919 0.74672 0.0
C4430 C 0.32364 0.38284 0.75816 0.0
C4431 C 0.33694 0.39045 0.7687 0.0
C4432 C 0.31466 0.36583 0.7596 0.0
C4433 C 0.30571 0.38456 0.73405 0.0
C4434 C 0.29878 0.36259 0.76037 0.0
C4435 C 0.29028 0.3469 0.7612 0.0
C4436 C 0.2972 0.33363 0.76164 0.0
C4437 C 0.31319 0.33691 0.76156 0.0
C4438 C 0.32176 0.3527 0.76053 0.0
H4439 H 0.30701 0.39031 0.72328 0.0
H4440 H 0.3045 0.37131 0.73053 0.0
H4441 H 0.29503 0.38666 0.7386 0.0
H4442 H 0.29283 0.37229 0.7604 0.0
H4443 H 0.27808 0.34519 0.76151 0.0
H4444 H 0.23089 0.6025 0.28423 0.0
H4445 H 0.24838 0.62937 0.29057 0.0
H4446 H 0.21029 0.65171 0.2842 0.0
H4447 H 0.1929 0.62514 0.27792 0.0
H4448 H 0.25264 0.64934 0.26969 0.0
H4449 H 0.23468 0.68154 0.3225 0.0
H4450 H 0.2291 0.65972 0.31698 0.0
H4451 H 0.21823 0.67239 0.3084 0.0
C4452 C 0.22627 0.61319 0.28446 0.0
C4453 C 0.21056 0.61175 0.28052 0.0
C4454 C 0.23624 0.62849 0.2882 0.0
C4455 C 0.2306 0.64252 0.28811 0.0
C4456 C 0.21484 0.64108 0.28484 0.0
H4457 H 0.25879 0.72598 0.24853 0.0
H4458 H 0.25085 0.6988 0.2551 0.0
C4459 C 0.20491 0.62585 0.28116 0.0
C4460 C 0.24108 0.65848 0.28882 0.0
H4461 H 0.24479 0.69849 0.30326 0.0
C4462 C 0.25125 0.66007 0.27733 0.0
C4463 C 0.23954 0.67243 0.29899 0.0
C4464 C 0.22991 0.67138 0.31252 0.0
C4465 C 0.25887 0.67538 0.2748 0.0
C4466 C 0.25584 0.68936 0.28368 0.0
C4467 C 0.24678 0.68775 0.29614 0.0
C4468 C 0.26109 0.70565 0.27959 0.0
C4469 C 0.26976 0.67635 0.26236 0.0
C4470 C 0.26893 0.7186 0.29133 0.0
C4471 C 0.27311 0.73416 0.28771 0.0
C4472 C 0.2696 0.73703 0.27224 0.0
C4473 C 0.26175 0.72407 0.26049 0.0
C4474 C 0.25736 0.70853 0.2642 0.0
H4475 H 0.27504 0.66572 0.26112 0.0
H4476 H 0.26337 0.67624 0.25071 0.0
H4477 H 0.27898 0.6876 0.26525 0.0
H4478 H 0.2718 0.71666 0.3033 0.0
H4479 H 0.27923 0.74389 0.29703 0.0
H4480 H 0.53482 0.69245 0.44257 0.0
H4481 H 0.53656 0.66904 0.45521 0.0
H4482 H 0.48826 0.65946 0.45879 0.0
H4483 H 0.48641 0.68319 0.44654 0.0
H4484 H 0.52726 0.66317 0.48642 0.0
H4485 H 0.49605 0.6154 0.43644 0.0
H4486 H 0.50437 0.63583 0.43369 0.0
H4487 H 0.48705 0.63168 0.44274 0.0
C4488 C 0.52454 0.68554 0.44617 0.0
C4489 C 0.51046 0.68988 0.44351 0.0
C4490 C 0.52557 0.67204 0.45332 0.0
C4491 C 0.51254 0.66239 0.45784 0.0
C4492 C 0.49845 0.66658 0.4552 0.0
H4493 H 0.502 0.57103 0.49578 0.0
H4494 H 0.49716 0.595 0.4856 0.0
C4495 C 0.49741 0.68016 0.44812 0.0
C4496 C 0.51385 0.64813 0.46555 0.0
H4497 H 0.50462 0.60664 0.45961 0.0
C4498 C 0.52228 0.6508 0.48058 0.0
C4499 C 0.50722 0.632 0.45802 0.0
C4500 C 0.49823 0.62842 0.44178 0.0
C4501 C 0.52429 0.63782 0.48827 0.0
C4502 C 0.51812 0.62162 0.48051 0.0
C4503 C 0.50942 0.61899 0.46559 0.0
C4504 C 0.521 0.60729 0.48737 0.0
C4505 C 0.5328 0.64168 0.50477 0.0
C4506 C 0.53599 0.60604 0.49172 0.0
C4507 C 0.53878 0.59245 0.49773 0.0
C4508 C 0.52666 0.57955 0.49928 0.0
C4509 C 0.51163 0.58073 0.49482 0.0
C4510 C 0.50884 0.59444 0.48895 0.0
H4511 H 0.53204 0.65377 0.51096 0.0
H4512 H 0.52831 0.63243 0.51206 0.0
H4513 H 0.54506 0.642 0.50396 0.0
H4514 H 0.54563 0.61545 0.49019 0.0
H4515 H 0.55052 0.59191 0.5008 0.0
H4516 H 0.63701 0.31403 0.69033 0.0
H4517 H 0.66045 0.3108 0.70466 0.0
H4518 H 0.66972 0.28209 0.66258 0.0
H4519 H 0.64662 0.28572 0.648 0.0
H4520 H 0.66867 0.28233 0.71047 0.0
H4521 H 0.70992 0.31597 0.67558 0.0
H4522 H 0.69017 0.31718 0.67449 0.0
H4523 H 0.69538 0.29974 0.6641 0.0
C4524 C 0.64413 0.30723 0.68402 0.0
C4525 C 0.63988 0.30021 0.66794 0.0
C4526 C 0.65749 0.30527 0.69229 0.0
C4527 C 0.66698 0.29635 0.68468 0.0
C4528 C 0.66275 0.28925 0.66867 0.0
H4529 H 0.74244 0.26633 0.73636 0.0
H4530 H 0.71996 0.26555 0.71762 0.0
C4531 C 0.6494 0.29119 0.66038 0.0
C4532 C 0.68116 0.29435 0.6936 0.0
H4533 H 0.72013 0.30336 0.69533 0.0
C4534 C 0.67991 0.28684 0.70709 0.0
C4535 C 0.69586 0.30027 0.68923 0.0
C4536 C 0.69801 0.30886 0.67515 0.0
C4537 C 0.69292 0.28524 0.7164 0.0
C4538 C 0.70759 0.29125 0.71208 0.0
C4539 C 0.70886 0.2986 0.69851 0.0
C4540 C 0.72174 0.29146 0.72241 0.0
C4541 C 0.69097 0.27767 0.73112 0.0
C4542 C 0.73037 0.30627 0.73101 0.0
C4543 C 0.74306 0.30672 0.74171 0.0
C4544 C 0.74752 0.29237 0.74394 0.0
C4545 C 0.73926 0.27757 0.73488 0.0
C4546 C 0.7264 0.27711 0.72424 0.0
H4547 H 0.67894 0.27529 0.73382 0.0
H4548 H 0.69455 0.26599 0.72948 0.0
H4549 H 0.69834 0.2857 0.74148 0.0
H4550 H 0.72703 0.31749 0.72977 0.0
H4551 H 0.74924 0.31832 0.74846 0.0
H4552 H 0.99509 0.34431 0.96536 0.0
H4553 H 0.99756 0.37282 0.97691 0.0
H4554 H 0.04203 0.38526 0.96114 0.0
H4555 H 0.03961 0.35686 0.94941 0.0
H4556 H 0.02211 0.39532 1.00009 0.0
H4557 H 0.0156 0.41385 0.94089 0.0
H4558 H 0.00983 0.39302 0.94374 0.0
H4559 H 0.02967 0.4022 0.94373 0.0
C4560 C 0.00542 0.35311 0.96439 0.0
C4561 C 0.01712 0.3483 0.95639 0.0
C4562 C 0.00684 0.36937 0.97107 0.0
C4563 C 0.01991 0.38116 0.96973 0.0
C4564 C 0.0318 0.37636 0.96218 0.0
H4565 H 0.05017 0.48247 0.01399 0.0
H4566 H 0.04716 0.45325 0.00595 0.0
C4567 C 0.03044 0.36009 0.9556 0.0
C4568 C 0.02087 0.39857 0.97566 0.0
H4569 H 0.02159 0.43481 0.9632 0.0
C4570 C 0.02199 0.40398 0.99206 0.0
C4571 C 0.02049 0.40977 0.96512 0.0
C4572 C 0.01871 0.40448 0.94737 0.0
C4573 C 0.02305 0.4204 0.99821 0.0
C4574 C 0.02307 0.43168 0.98767 0.0
C4575 C 0.02166 0.42618 0.97126 0.0
C4576 C 0.02456 0.44926 0.99335 0.0
C4577 C 0.02394 0.42552 0.01591 0.0
C4578 C 0.01291 0.45679 0.98882 0.0
C4579 C 0.01459 0.47352 0.99336 0.0
C4580 C 0.02805 0.48311 1.0024 0.0
C4581 C 0.03964 0.47549 0.00705 0.0
C4582 C 0.03791 0.45874 1.00255 0.0
H4583 H 0.02007 0.415 0.02196 0.0
H4584 H 0.03595 0.43134 0.02076 0.0
H4585 H 0.01689 0.43447 0.01877 0.0
H4586 H 1.00253 0.44972 0.98166 0.0
H4587 H 0.00543 0.47894 0.98953 0.0
H4588 H 0.99714 0.77886 0.18023 0.0
H4589 H 0.97336 0.77665 0.19245 0.0
H4590 H 0.96079 0.81195 0.16612 0.0
H4591 H 0.98436 0.814 0.15361 0.0
H4592 H 0.96324 0.80171 0.21104 0.0
H4593 H 0.92258 0.77417 0.15694 0.0
H4594 H 0.9427 0.77448 0.15788 0.0
H4595 H 0.93614 0.7924 0.15524 0.0
C4596 C 0.98924 0.78603 0.17689 0.0
C4597 C 0.9927 0.79659 0.16589 0.0
C4598 C 0.97568 0.78481 0.18396 0.0
C4599 C 0.96517 0.79398 0.18007 0.0
C4600 C 0.96859 0.80456 0.16914 0.0
H4601 H 0.87718 0.80318 0.21133 0.0
H4602 H 0.90057 0.80575 0.19837 0.0
C4603 C 0.98218 0.80585 0.16212 0.0
C4604 C 0.95087 0.79281 0.18778 0.0
H4605 H 0.9119 0.78231 0.18024 0.0
C4606 C 0.95202 0.79741 0.20431 0.0
C4607 C 0.93621 0.78729 0.179 0.0
C4608 C 0.93425 0.78166 0.1613 0.0
C4609 C 0.93895 0.79685 0.21226 0.0
C4610 C 0.92427 0.79118 0.20351 0.0
C4611 C 0.92312 0.78666 0.18696 0.0
C4612 C 0.91 0.78959 0.21136 0.0
C4613 C 0.941 0.80267 0.22994 0.0
C4614 C 0.90737 0.7795 0.22283 0.0
C4615 C 0.89407 0.77809 0.23033 0.0
C4616 C 0.88296 0.78664 0.22646 0.0
C4617 C 0.88554 0.79659 0.21479 0.0
C4618 C 0.89888 0.79798 0.20728 0.0
H4619 H 0.95242 0.81084 0.23404 0.0
H4620 H 0.93212 0.80921 0.23348 0.0
H4621 H 0.93999 0.79206 0.23615 0.0
H4622 H 0.91561 0.77264 0.22598 0.0
H4623 H 0.89262 0.77045 0.23935 0.0
H4624 H 0.53138 0.34665 0.11954 0.0
H4625 H 0.5368 0.36928 0.10487 0.0
H4626 H 0.49375 0.35031 0.07548 0.0
H4627 H 0.48838 0.32733 0.0897 0.0
H4628 H 0.53662 0.36515 0.06922 0.0
H4629 H 0.49588 0.39984 0.09375 0.0
H4630 H 0.50309 0.38554 0.10403 0.0
H4631 H 0.4886 0.37836 0.08737 0.0
C4632 C 0.52308 0.34722 0.1099 0.0
C4633 C 0.50945 0.33514 0.10575 0.0
C4634 C 0.52618 0.3602 0.10162 0.0
C4635 C 0.51563 0.36142 0.08921 0.0
C4636 C 0.50193 0.34959 0.08517 0.0
H4637 H 0.50765 0.42709 0.02416 0.0
H4638 H 0.50432 0.40545 0.04015 0.0
C4639 C 0.49886 0.33654 0.09336 0.0
C4640 C 0.51913 0.3748 0.08009 0.0
H4641 H 0.50803 0.4087 0.07219 0.0
C4642 C 0.53048 0.37477 0.06989 0.0
C4643 C 0.51103 0.38721 0.08108 0.0
C4644 C 0.49902 0.38791 0.09222 0.0
C4645 C 0.53362 0.38663 0.06018 0.0
C4646 C 0.52541 0.399 0.06106 0.0
C4647 C 0.51426 0.39916 0.07152 0.0
C4648 C 0.52782 0.41167 0.05092 0.0
C4649 C 0.5453 0.38546 0.04872 0.0
C4650 C 0.54216 0.42231 0.05166 0.0
C4651 C 0.54411 0.4346 0.04242 0.0
C4652 C 0.53168 0.43657 0.03253 0.0
C4653 C 0.51737 0.42589 0.03179 0.0
C4654 C 0.51547 0.41353 0.04089 0.0
H4655 H 0.5475 0.3731 0.04655 0.0
H4656 H 0.54153 0.38864 0.03718 0.0
H4657 H 0.55623 0.3941 0.05377 0.0
H4658 H 0.55175 0.42133 0.0596 0.0
H4659 H 0.5552 0.44283 0.04333 0.0
H4660 H 0.01055 0.29223 0.29816 0.0
H4661 H 0.98522 0.29079 0.28458 0.0
H4662 H 0.96481 0.27866 0.32621 0.0
H4663 H 0.98995 0.28087 0.34014 0.0
H4664 H 0.95599 0.26635 0.27869 0.0
H4665 H 0.9551 0.32268 0.31954 0.0
H4666 H 0.97233 0.31555 0.31722 0.0
H4667 H 0.9588 0.30664 0.32951 0.0
C4668 C 1.00066 0.28919 0.3044 0.0
C4669 C 1.00231 0.28693 0.32033 0.0
C4670 C 0.98622 0.2882 0.29656 0.0
C4671 C 0.97328 0.28487 0.30453 0.0
C4672 C 0.97476 0.28142 0.31997 0.0
H4673 H 0.8802 0.28705 0.29761 0.0
H4674 H 0.9053 0.28105 0.30226 0.0
C4675 C 0.98915 0.28256 0.32786 0.0
C4676 C 0.95844 0.28667 0.29752 0.0
H4677 H 0.93168 0.3087 0.3041 0.0
C4678 C 0.95067 0.27567 0.28409 0.0
C4679 C 0.95175 0.29904 0.30452 0.0
C4680 C 0.95998 0.31176 0.3184 0.0
C4681 C 0.93592 0.27626 0.27797 0.0
C4682 C 0.92901 0.28814 0.28552 0.0
C4683 C 0.93704 0.2995 0.29851 0.0
C4684 C 0.91313 0.28873 0.28084 0.0
C4685 C 0.92758 0.26393 0.26392 0.0
C4686 C 0.90922 0.29467 0.26705 0.0
C4687 C 0.89487 0.29812 0.26438 0.0
C4688 C 0.88446 0.29584 0.27559 0.0
C4689 C 0.88816 0.2891 0.28894 0.0
C4690 C 0.90239 0.28557 0.29153 0.0
H4691 H 0.93399 0.25453 0.26037 0.0
H4692 H 0.91616 0.25791 0.26668 0.0
H4693 H 0.92579 0.27017 0.25369 0.0
H4694 H 0.9175 0.29741 0.25882 0.0
H4695 H 0.89222 0.30335 0.25403 0.0
H4696 H 0.9811 0.66946 0.60483 0.0
H4697 H 0.98457 0.64391 0.59025 0.0
H4698 H 0.02869 0.66851 0.58002 0.0
H4699 H 0.02524 0.6941 0.59424 0.0
H4700 H 0.991 0.63741 0.55746 0.0
H4701 H 0.03645 0.6296 0.60134 0.0
H4702 H 0.02373 0.64277 0.60619 0.0
H4703 H 0.03968 0.64933 0.59563 0.0
C4704 C 0.99147 0.66945 0.59933 0.0
C4705 C 1.00296 0.68375 0.60077 0.0
C4706 C 0.99346 0.65486 0.59112 0.0
C4707 C 0.00698 0.65437 0.58437 0.0
C4708 C 0.01831 0.66865 0.58548 0.0
H4709 H 0.03371 0.59157 0.51172 0.0
H4710 H 0.02653 0.61333 0.52909 0.0
C4711 C 0.01633 0.68323 0.59362 0.0
C4712 C 0.00928 0.63903 0.57584 0.0
H4713 H 0.0332 0.61318 0.57572 0.0
C4714 C 1.00009 0.63196 0.56152 0.0
C4715 C 0.02102 0.63192 0.58134 0.0
C4716 C 0.03072 0.63868 0.59704 0.0
C4717 C 1.00284 0.61832 0.5521 0.0
C4718 C 0.01517 0.6118 0.55715 0.0
C4719 C 0.02387 0.61838 0.57186 0.0
C4720 C 0.0197 0.59869 0.54694 0.0
C4721 C 0.99272 0.61112 0.53672 0.0
C4722 C 0.01865 0.58349 0.55156 0.0
C4723 C 0.02277 0.57106 0.54168 0.0
C4724 C 0.0281 0.57378 0.52717 0.0
C4725 C 0.02956 0.58916 0.52282 0.0
C4726 C 0.02538 0.60154 0.53265 0.0
H4727 H 0.98165 0.61481 0.53653 0.0
H4728 H 0.99855 0.61545 0.52674 0.0
H4729 H 0.99045 0.59767 0.53471 0.0
H4730 H 0.01441 0.58118 0.56265 0.0
H4731 H 0.02157 0.55929 0.54526 0.0
H4732 H 0.64316 0.84273 0.82701 0.0
H4733 H 0.66389 0.8455 0.81011 0.0
H4734 H 0.66785 0.79684 0.81364 0.0
H4735 H 0.64769 0.79412 0.83095 0.0
H4736 H 0.69557 0.8383 0.81955 0.0
H4737 H 0.66244 0.80144 0.76403 0.0
H4738 H 0.65377 0.81197 0.7793 0.0
H4739 H 0.65869 0.79317 0.78179 0.0
C4740 C 0.64856 0.83268 0.82433 0.0
C4741 C 0.64373 0.81817 0.83029 0.0
C4742 C 0.66027 0.83426 0.81457 0.0
C4743 C 0.66713 0.82128 0.81051 0.0
C4744 C 0.66243 0.80686 0.81648 0.0
H4745 H 0.73126 0.77899 0.77353 0.0
H4746 H 0.70903 0.78867 0.781 0.0
C4747 C 0.65088 0.80533 0.82632 0.0
C4748 C 0.67975 0.82271 0.80063 0.0
H4749 H 0.68956 0.80419 0.76644 0.0
C4750 C 0.69432 0.83127 0.80774 0.0
C4751 C 0.6779 0.81356 0.78526 0.0
C4752 C 0.66234 0.8046 0.77704 0.0
C4753 C 0.70736 0.82959 0.80045 0.0
C4754 C 0.70559 0.81933 0.78556 0.0
C4755 C 0.69087 0.81199 0.77787 0.0
C4756 C 0.71862 0.81372 0.77925 0.0
C4757 C 0.7229 0.83765 0.80935 0.0
C4758 C 0.73127 0.82456 0.77543 0.0
C4759 C 0.74417 0.81907 0.77135 0.0
C4760 C 0.74446 0.80263 0.77083 0.0
C4761 C 0.73144 0.79172 0.77387 0.0
C4762 C 0.71869 0.79723 0.77809 0.0
H4763 H 0.72219 0.84328 0.82169 0.0
H4764 H 0.73013 0.82871 0.80978 0.0
H4765 H 0.72866 0.84731 0.80312 0.0
H4766 H 0.7313 0.83728 0.77595 0.0
H4767 H 0.75396 0.82772 0.76887 0.0
H4768 H 0.47825 0.56806 0.68217 0.0
H4769 H 0.48981 0.5661 0.65738 0.0
H4770 H 0.44897 0.53236 0.63386 0.0
H4771 H 0.43709 0.53473 0.65838 0.0
H4772 H 0.49855 0.54358 0.63884 0.0
H4773 H 0.45394 0.55962 0.60042 0.0
H4774 H 0.45399 0.5618 0.62165 0.0
H4775 H 0.44659 0.54228 0.6093 0.0
C4776 C 0.47146 0.56038 0.67177 0.0
C4777 C 0.4564 0.55169 0.67286 0.0
C4778 C 0.47827 0.55915 0.65735 0.0
C4779 C 0.47043 0.5493 0.6431 0.0
C4780 C 0.45547 0.54048 0.64418 0.0
H4781 H 0.49967 0.52721 0.54462 0.0
H4782 H 0.48504 0.52733 0.56786 0.0
C4783 C 0.44865 0.54167 0.65859 0.0
C4784 C 0.47804 0.54797 0.62751 0.0
H4785 H 0.4732 0.54988 0.5874 0.0
C4786 C 0.49288 0.54506 0.62768 0.0
C4787 C 0.47104 0.54968 0.61247 0.0
C4788 C 0.45559 0.55368 0.61091 0.0
C4789 C 0.50058 0.54368 0.61381 0.0
C4790 C 0.49369 0.5456 0.59882 0.0
C4791 C 0.47877 0.5483 0.59856 0.0
C4792 C 0.50213 0.54569 0.5838 0.0
C4793 C 0.51607 0.53975 0.6154 0.0
C4794 C 0.51658 0.55618 0.58422 0.0
C4795 C 0.52488 0.55617 0.57092 0.0
C4796 C 0.51927 0.54578 0.55623 0.0
C4797 C 0.50457 0.53551 0.55548 0.0
C4798 C 0.49614 0.53556 0.56896 0.0
H4799 H 0.51749 0.53329 0.62556 0.0
H4800 H 0.51795 0.53211 0.60446 0.0
H4801 H 0.52503 0.5512 0.61763 0.0
H4802 H 0.5216 0.56457 0.59499 0.0
H4803 H 0.536 0.56443 0.5723 0.0
H4804 H 0.74432 0.17291 0.94336 0.0
H4805 H 0.73528 0.17819 0.91735 0.0
H4806 H 0.77967 0.20855 0.91519 0.0
H4807 H 0.78881 0.20303 0.94097 0.0
H4808 H 0.73242 0.20579 0.90909 0.0
H4809 H 0.77168 0.18192 0.87168 0.0
H4810 H 0.76948 0.17702 0.89127 0.0
H4811 H 0.78274 0.19525 0.88867 0.0
C4812 C 0.75214 0.18066 0.93725 0.0
C4813 C 0.76725 0.18763 0.94411 0.0
C4814 C 0.747 0.18355 0.92239 0.0
C4815 C 0.7569 0.19344 0.91418 0.0
C4816 C 0.77199 0.20041 0.92107 0.0
H4817 H 0.75544 0.2687 0.86959 0.0
H4818 H 0.74833 0.24677 0.8846 0.0
C4819 C 0.77717 0.1974 0.93583 0.0
C4820 C 0.75128 0.19785 0.89915 0.0
H4821 H 0.76348 0.20572 0.86408 0.0
C4822 C 0.73892 0.20537 0.89902 0.0
C4823 C 0.75924 0.19668 0.8857 0.0
C4824 C 0.77139 0.18708 0.88428 0.0
C4825 C 0.73562 0.21355 0.88663 0.0
C4826 C 0.74527 0.21463 0.87448 0.0
C4827 C 0.75631 0.20532 0.87361 0.0
C4828 C 0.7462 0.22746 0.86454 0.0
C4829 C 0.72232 0.22157 0.88713 0.0
C4830 C 0.74744 0.22398 0.84826 0.0
C4831 C 0.75192 0.23658 0.83977 0.0
C4832 C 0.7551 0.25281 0.84743 0.0
C4833 C 0.75292 0.25629 0.86343 0.0
C4834 C 0.74867 0.24372 0.87195 0.0
H4835 H 0.71267 0.21397 0.89181 0.0
H4836 H 0.72579 0.23336 0.89534 0.0
H4837 H 0.71828 0.22373 0.87522 0.0
H4838 H 0.74567 0.21155 0.84231 0.0
H4839 H 0.75337 0.23365 0.82736 0.0
H4840 H 0.10695 0.50284 0.16059 0.0
H4841 H 0.09107 0.5031 0.13613 0.0
H4842 H 0.10287 0.5554 0.14482 0.0
H4843 H 0.11845 0.55532 0.16956 0.0
H4844 H 0.06564 0.52291 0.13606 0.0
H4845 H 0.11122 0.53763 0.097 0.0
H4846 H 0.11385 0.52763 0.11384 0.0
H4847 H 0.11401 0.54883 0.11692 0.0
C4848 C 0.10615 0.5144 0.15732 0.0
C4849 C 0.11391 0.52906 0.16701 0.0
C4850 C 0.09715 0.51451 0.14334 0.0
C4851 C 0.09592 0.52925 0.13878 0.0
C4852 C 0.10386 0.54392 0.14819 0.0
H4853 H 0.05252 0.55698 0.05798 0.0
H4854 H 0.06753 0.55554 0.08249 0.0
C4855 C 0.1128 0.54384 0.16222 0.0
C4856 C 0.08579 0.52933 0.1245 0.0
H4857 H 0.08596 0.53617 0.08642 0.0
C4858 C 0.07 0.52575 0.12515 0.0
C4859 C 0.09167 0.53313 0.11046 0.0
C4860 C 0.10861 0.53696 0.10935 0.0
C4861 C 0.05981 0.52626 0.11209 0.0
C4862 C 0.06566 0.52996 0.09793 0.0
C4863 C 0.08151 0.53333 0.09729 0.0
C4864 C 0.05568 0.53099 0.08375 0.0
C4865 C 0.04298 0.52337 0.1138 0.0
C4866 C 0.04391 0.51772 0.07643 0.0
C4867 C 0.03507 0.51868 0.06259 0.0
C4868 C 0.03821 0.53275 0.05575 0.0
C4869 C 0.04992 0.546 0.06309 0.0
C4870 C 0.05851 0.54517 0.07704 0.0
H4871 H 0.04094 0.52542 0.12646 0.0
H4872 H 0.03747 0.53142 0.10744 0.0
H4873 H 0.03737 0.51059 0.10869 0.0
H4874 H 0.04181 0.50651 0.08117 0.0
H4875 H 0.02622 0.50825 0.05694 0.0
H4876 H 0.7636 0.84362 0.43717 0.0
H4877 H 0.76507 0.83336 0.40933 0.0
H4878 H 0.80917 0.82407 0.42219 0.0
H4879 H 0.80762 0.83407 0.45009 0.0
H4880 H 0.7855 0.84567 0.39083 0.0
H4881 H 0.78878 0.78215 0.39342 0.0
H4882 H 0.78346 0.7949 0.40966 0.0
H4883 H 0.80323 0.79689 0.40671 0.0
C4884 C 0.77354 0.83924 0.43408 0.0
C4885 C 0.78548 0.83964 0.44587 0.0
C4886 C 0.77437 0.83335 0.41816 0.0
C4887 C 0.78715 0.82775 0.41361 0.0
C4888 C 0.799 0.82792 0.42538 0.0
H4889 H 0.81333 0.79963 0.31885 0.0
H4890 H 0.81373 0.80791 0.34757 0.0
C4891 C 0.79812 0.83368 0.44135 0.0
C4892 C 0.78842 0.82273 0.39646 0.0
H4893 H 0.79325 0.79147 0.36906 0.0
C4894 C 0.78715 0.83379 0.3861 0.0
C4895 C 0.79067 0.80726 0.39023 0.0
C4896 C 0.79148 0.79455 0.40054 0.0
C4897 C 0.78803 0.82983 0.36978 0.0
C4898 C 0.79015 0.81435 0.36356 0.0
C4899 C 0.79169 0.80336 0.37389 0.0
C4900 C 0.79 0.80914 0.34623 0.0
C4901 C 0.78674 0.84227 0.35928 0.0
C4902 C 0.77651 0.80694 0.33601 0.0
C4903 C 0.77621 0.80217 0.31967 0.0
C4904 C 0.78944 0.79951 0.31314 0.0
C4905 C 0.80296 0.80165 0.32344 0.0
C4906 C 0.8032 0.80633 0.33986 0.0
H4907 H 0.78865 0.85468 0.36625 0.0
H4908 H 0.79509 0.84235 0.35047 0.0
H4909 H 0.77511 0.83914 0.35267 0.0
H4910 H 0.76615 0.80887 0.34069 0.0
H4911 H 0.76557 0.80063 0.31217 0.0
H4912 H 0.46003 0.58025 0.85091 0.0
H4913 H 0.47194 0.57756 0.87679 0.0
H4914 H 0.47336 0.52846 0.85837 0.0
H4915 H 0.4616 0.53108 0.83251 0.0
H4916 H 0.4651 0.56043 0.89919 0.0
H4917 H 0.51602 0.54223 0.87834 0.0
H4918 H 0.50296 0.5493 0.86555 0.0
H4919 H 0.49878 0.5285 0.86866 0.0
C4920 C 0.4628 0.5688 0.85221 0.0
C4921 C 0.45977 0.55599 0.83904 0.0
C4922 C 0.46977 0.56727 0.86725 0.0
C4923 C 0.47415 0.55289 0.86996 0.0
C4924 C 0.47083 0.53999 0.85692 0.0
H4925 H 0.51447 0.5172 0.95244 0.0
H4926 H 0.50288 0.52088 0.92675 0.0
C4927 C 0.46394 0.54152 0.84188 0.0
C4928 C 0.48176 0.55131 0.88629 0.0
H4929 H 0.5117 0.53903 0.90479 0.0
C4930 C 0.47537 0.55585 0.90029 0.0
C4931 C 0.49527 0.54535 0.88832 0.0
C4932 C 0.50376 0.54123 0.87445 0.0
C4933 C 0.48162 0.55423 0.91567 0.0
C4934 C 0.49503 0.54812 0.91766 0.0
C4935 C 0.50146 0.54365 0.90369 0.0
C4936 C 0.5024 0.54604 0.9339 0.0
C4937 C 0.47337 0.55864 0.92965 0.0
C4938 C 0.50651 0.55888 0.94703 0.0
C4939 C 0.51328 0.55678 0.96194 0.0
C4940 C 0.51632 0.54174 0.96447 0.0
C4941 C 0.51239 0.52899 0.95128 0.0
C4942 C 0.50569 0.53111 0.93638 0.0
H4943 H 0.46125 0.55843 0.92589 0.0
H4944 H 0.4737 0.55023 0.93831 0.0
H4945 H 0.47898 0.57112 0.93573 0.0
H4946 H 0.50467 0.57073 0.94575 0.0
H4947 H 0.51613 0.56705 0.97154 0.0
H4948 H 0.78454 0.22667 0.08698 0.0
H4949 H 0.78406 0.24364 0.11244 0.0
H4950 H 0.77415 0.2009 0.13434 0.0
H4951 H 0.77519 0.18393 0.10918 0.0
H4952 H 0.76064 0.24317 0.13258 0.0
H4953 H 0.81245 0.2295 0.16172 0.0
H4954 H 0.80727 0.22501 0.1405 0.0
H4955 H 0.79806 0.21172 0.153 0.0
C4956 C 0.78242 0.22091 0.09726 0.0
C4957 C 0.78004 0.20397 0.09611 0.0
C4958 C 0.78201 0.2306 0.11173 0.0
C4959 C 0.77928 0.22351 0.12525 0.0
C4960 C 0.77651 0.2066 0.12405 0.0
H4961 H 0.77482 0.25311 0.22381 0.0
H4962 H 0.77138 0.23904 0.19641 0.0
C4963 C 0.77696 0.19692 0.10964 0.0
C4964 C 0.77961 0.23374 0.14074 0.0
H4965 H 0.79768 0.24281 0.17852 0.0
C4966 C 0.76879 0.24323 0.14262 0.0
C4967 C 0.79037 0.23384 0.15372 0.0
C4968 C 0.8028 0.2246 0.15214 0.0
C4969 C 0.76811 0.2524 0.1574 0.0
C4970 C 0.77857 0.25206 0.17045 0.0
C4971 C 0.78958 0.24287 0.16846 0.0
C4972 C 0.7783 0.26092 0.18645 0.0
C4973 C 0.75602 0.26203 0.15913 0.0
C4974 C 0.78301 0.27789 0.18979 0.0
C4975 C 0.78501 0.28597 0.20546 0.0
C4976 C 0.78241 0.27713 0.21792 0.0
C4977 C 0.77696 0.26021 0.21443 0.0
C4978 C 0.77498 0.25217 0.19881 0.0
H4979 H 0.74732 0.25898 0.14855 0.0
H4980 H 0.75022 0.25981 0.16978 0.0
H4981 H 0.76148 0.27517 0.16076 0.0
H4982 H 0.78581 0.28479 0.18038 0.0
H4983 H 0.78921 0.29903 0.20787 0.0
H4984 H 0.12611 0.54223 0.33117 0.0
H4985 H 0.11682 0.55238 0.35578 0.0
H4986 H 0.07954 0.5641 0.32864 0.0
H4987 H 0.08821 0.55321 0.30405 0.0
H4988 H 0.11138 0.58306 0.36752 0.0
H4989 H 0.05861 0.53387 0.35687 0.0
H4990 H 0.07456 0.53323 0.34567 0.0
H4991 H 0.06111 0.54502 0.34076 0.0
C4992 C 0.11577 0.5467 0.33045 0.0
C4993 C 0.10775 0.54671 0.31568 0.0
C4994 C 0.11065 0.55272 0.3445 0.0
C4995 C 0.09748 0.55886 0.34394 0.0
C4996 C 0.08966 0.55924 0.32925 0.0
H4997 H 0.03737 0.57945 0.41068 0.0
H4998 H 0.05346 0.58479 0.38958 0.0
C4999 C 0.09466 0.55308 0.31523 0.0
C5000 C 0.09133 0.56403 0.35869 0.0
H5001 H 0.05989 0.55536 0.37788 0.0
C5002 C 0.10011 0.57709 0.36984 0.0
C5003 C 0.07676 0.55598 0.36169 0.0
C5004 C 0.06727 0.54115 0.35071 0.0
C5005 C 0.09443 0.58257 0.38387 0.0
C5006 C 0.07967 0.57477 0.38658 0.0
C5007 C 0.07105 0.56162 0.37549 0.0
C5008 C 0.07307 0.5787 0.40137 0.0
C5009 C 0.10416 0.59659 0.3956 0.0
C5010 C 0.07922 0.57471 0.4154 0.0
C5011 C 0.07012 0.5719 0.42751 0.0
C5012 C 0.05476 0.57284 0.42552 0.0
C5013 C 0.04919 0.57865 0.41233 0.0
C5014 C 0.05838 0.58177 0.40038 0.0
H5015 H 0.11338 0.60382 0.39004 0.0
H5016 H 0.09711 0.60468 0.40083 0.0
H5017 H 0.10958 0.59181 0.4054 0.0
H5018 H 0.0904 0.57198 0.41627 0.0
H5019 H 0.07455 0.56732 0.43761 0.0
H5020 H 0.77037 0.83318 0.59846 0.0
H5021 H 0.76923 0.82346 0.62381 0.0
H5022 H 0.81021 0.85946 0.64346 0.0
H5023 H 0.811 0.86985 0.61844 0.0
H5024 H 0.78859 0.81034 0.63998 0.0
H5025 H 0.78319 0.86695 0.6773 0.0
H5026 H 0.78114 0.86426 0.65593 0.0
H5027 H 0.79983 0.86959 0.66703 0.0
C5028 C 0.77902 0.83926 0.60822 0.0
C5029 C 0.79072 0.85244 0.60629 0.0
C5030 C 0.77842 0.83357 0.62272 0.0
C5031 C 0.78947 0.84088 0.63573 0.0
C5032 C 0.80132 0.85383 0.63379 0.0
H5033 H 0.80454 0.81247 0.72946 0.0
H5034 H 0.80786 0.82499 0.70551 0.0
C5035 C 0.80188 0.85961 0.61932 0.0
C5036 C 0.78876 0.83462 0.65111 0.0
H5037 H 0.78702 0.84558 0.69085 0.0
C5038 C 0.78822 0.81807 0.65107 0.0
C5039 C 0.78828 0.84466 0.66568 0.0
C5040 C 0.78799 0.86231 0.66652 0.0
C5041 C 0.78726 0.81136 0.66508 0.0
C5042 C 0.78678 0.82138 0.67958 0.0
C5043 C 0.7875 0.83794 0.67973 0.0
C5044 C 0.78472 0.8146 0.69448 0.0
C5045 C 0.78676 0.79354 0.66433 0.0
C5046 C 0.77055 0.80491 0.69637 0.0
C5047 C 0.76861 0.79789 0.71002 0.0
C5048 C 0.78082 0.80032 0.72208 0.0
C5049 C 0.79494 0.81034 0.72036 0.0
C5050 C 0.79684 0.81749 0.7067 0.0
H5051 H 0.78989 0.78805 0.65288 0.0
H5052 H 0.79462 0.79166 0.67418 0.0
H5053 H 0.77503 0.78704 0.66571 0.0
H5054 H 0.76102 0.80263 0.68716 0.0
H5055 H 0.75757 0.7903 0.71099 0.0
H5056 H 0.73108 0.47276 0.49418 0.0
H5057 H 0.71124 0.48816 0.49591 0.0
H5058 H 0.68973 0.45824 0.52778 0.0
H5059 H 0.70936 0.44248 0.52583 0.0
H5060 H 0.66937 0.46404 0.50293 0.0
H5061 H 0.7084 0.52059 0.5359 0.0
H5062 H 0.71475 0.51216 0.51792 0.0
H5063 H 0.71325 0.50107 0.53418 0.0
C5064 C 0.72202 0.46931 0.50139 0.0
C5065 C 0.72178 0.45644 0.50991 0.0
C5066 C 0.71081 0.47822 0.50249 0.0
C5067 C 0.69922 0.47445 0.51216 0.0
C5068 C 0.69869 0.46137 0.52036 0.0
H5069 H 0.6374 0.53337 0.54424 0.0
H5070 H 0.65692 0.5176 0.54225 0.0
C5071 C 0.70993 0.45246 0.5193 0.0
C5072 C 0.68769 0.48424 0.51375 0.0
H5073 H 0.68345 0.52247 0.52663 0.0
C5074 C 0.6724 0.4768 0.50813 0.0
C5075 C 0.69173 0.50081 0.52076 0.0
C5076 C 0.7079 0.50914 0.52768 0.0
C5077 C 0.66102 0.48564 0.50905 0.0
C5078 C 0.66516 0.50234 0.51555 0.0
C5079 C 0.68039 0.50969 0.52147 0.0
C5080 C 0.65376 0.51236 0.5166 0.0
C5081 C 0.64466 0.47699 0.50328 0.0
C5082 C 0.64583 0.51491 0.50279 0.0
C5083 C 0.63474 0.52401 0.50388 0.0
C5084 C 0.6315 0.53077 0.51879 0.0
C5085 C 0.63979 0.52852 0.53257 0.0
C5086 C 0.65086 0.51943 0.53147 0.0
H5087 H 0.64294 0.46361 0.50218 0.0
H5088 H 0.63681 0.4811 0.51143 0.0
H5089 H 0.64149 0.47981 0.4914 0.0
H5090 H 0.64817 0.5098 0.4912 0.0
H5091 H 0.62867 0.52571 0.49305 0.0
H5092 H 0.19976 0.12348 0.51956 0.0
H5093 H 0.17347 0.10932 0.52092 0.0
H5094 H 0.15979 0.12004 0.47507 0.0
H5095 H 0.18601 0.13474 0.47383 0.0
H5096 H 0.13901 0.12455 0.4975 0.0
H5097 H 0.15358 0.06453 0.49501 0.0
H5098 H 0.16456 0.07991 0.51067 0.0
H5099 H 0.16651 0.08197 0.49034 0.0
C5100 C 0.19116 0.12301 0.50981 0.0
C5101 C 0.1951 0.13022 0.49653 0.0
C5102 C 0.17613 0.11477 0.51056 0.0
C5103 C 0.16467 0.11342 0.49801 0.0
C5104 C 0.16845 0.12085 0.48487 0.0
H5105 H 0.08005 0.04098 0.478 0.0
H5106 H 0.10429 0.05991 0.4772 0.0
C5107 C 0.1835 0.12911 0.48411 0.0
C5108 C 0.14887 0.10388 0.4984 0.0
H5109 H 0.12842 0.06569 0.49975 0.0
C5110 C 0.13666 0.11167 0.49798 0.0
C5111 C 0.14579 0.08705 0.49889 0.0
C5112 C 0.15826 0.0778 0.49861 0.0
C5113 C 0.12149 0.10308 0.49812 0.0
C5114 C 0.11848 0.0863 0.49885 0.0
C5115 C 0.13071 0.07856 0.49926 0.0
C5116 C 0.10276 0.07619 0.49849 0.0
C5117 C 0.1088 0.11195 0.4971 0.0
C5118 C 0.09356 0.07917 0.51055 0.0
C5119 C 0.07953 0.06835 0.51093 0.0
C5120 C 0.07456 0.05435 0.49935 0.0
C5121 C 0.08356 0.0517 0.48707 0.0
C5122 C 0.09745 0.0625 0.48662 0.0
H5123 H 0.1125 0.12365 0.49281 0.0
H5124 H 0.09873 0.1044 0.48906 0.0
H5125 H 0.10519 0.1146 0.50906 0.0
H5126 H 0.09752 0.08945 0.52004 0.0
H5127 H 0.07305 0.07045 0.52074 0.0
H5128 H 0.20138 0.93305 0.74121 0.0
H5129 H 0.21365 0.91015 0.7403 0.0
H5130 H 0.21541 0.91408 0.79099 0.0
H5131 H 0.20325 0.937 0.79205 0.0
H5132 H 0.24004 0.90465 0.75031 0.0
H5133 H 0.19872 0.86658 0.78107 0.0
H5134 H 0.19525 0.8848 0.7748 0.0
H5135 H 0.20722 0.88595 0.793 0.0
C5136 C 0.20437 0.92927 0.75231 0.0
C5137 C 0.2009 0.93744 0.76673 0.0
C5138 C 0.21146 0.91584 0.75174 0.0
C5139 C 0.21545 0.90959 0.7655 0.0
C5140 C 0.21221 0.91783 0.77993 0.0
H5141 H 0.28225 0.84535 0.7696 0.0
H5142 H 0.26953 0.86795 0.77057 0.0
C5143 C 0.20513 0.93127 0.78053 0.0
C5144 C 0.22315 0.89489 0.76475 0.0
H5145 H 0.22159 0.85783 0.77702 0.0
C5146 C 0.23587 0.89449 0.75621 0.0
C5147 C 0.218 0.88104 0.77206 0.0
C5148 C 0.20396 0.87947 0.78061 0.0
C5149 C 0.24349 0.88136 0.75511 0.0
C5150 C 0.23868 0.86779 0.7629 0.0
C5151 C 0.22574 0.868 0.77112 0.0
C5152 C 0.24671 0.85338 0.7625 0.0
C5153 C 0.2565 0.88207 0.74511 0.0
C5154 C 0.23855 0.83696 0.75813 0.0
C5155 C 0.24595 0.82374 0.75758 0.0
C5156 C 0.26193 0.82617 0.7616 0.0
C5157 C 0.27003 0.84258 0.76625 0.0
C5158 C 0.26265 0.85576 0.76669 0.0
H5159 H 0.25578 0.89011 0.73615 0.0
H5160 H 0.26745 0.88706 0.75288 0.0
H5161 H 0.25667 0.86982 0.73884 0.0
H5162 H 0.22631 0.83428 0.75488 0.0
H5163 H 0.23904 0.81152 0.754 0.0
H5164 H 0.36711 0.98424 0.05589 0.0
H5165 H 0.39452 0.99657 0.06106 0.0
H5166 H 0.39473 1.00422 0.01247 0.0
H5167 H 0.3674 0.99201 0.00728 0.0
H5168 H 0.41404 0.98177 0.04521 0.0
H5169 H 0.42345 0.04569 0.03616 0.0
H5170 H 0.40514 0.03423 0.03975 0.0
H5171 H 0.41104 0.03203 0.02017 0.0
C5172 C 0.37296 0.989 0.04646 0.0
C5173 C 0.36521 0.98709 0.03116 0.0
C5174 C 0.38857 0.99605 0.04943 0.0
C5175 C 0.39662 1.00135 0.03717 0.0
C5176 C 0.38868 1.00052 0.02219 0.0
H5177 H 0.48341 0.9963 0.01045 0.0
H5178 H 0.45698 0.99164 0.01639 0.0
C5179 C 0.37305 0.99352 0.01922 0.0
C5180 C 0.41348 0.00526 0.03921 0.0
H5181 H 0.44474 0.03303 0.03309 0.0
C5182 C 0.42079 0.99312 0.04288 0.0
C5183 C 0.42225 0.02007 0.03624 0.0
C5184 C 0.41507 0.03381 0.03302 0.0
C5185 C 0.43658 0.99507 0.04282 0.0
C5186 C 0.44518 0.00944 0.03882 0.0
C5187 C 0.43804 0.02195 0.03601 0.0
C5188 C 0.4614 0.01128 0.03638 0.0
C5189 C 0.44388 0.98161 0.04669 0.0
C5190 C 0.47257 0.02382 0.04572 0.0
C5191 C 0.48767 0.02652 0.04235 0.0
C5192 C 0.49179 0.01681 0.02949 0.0
C5193 C 0.48061 1.00396 0.02045 0.0
C5194 C 0.46553 1.00124 0.02387 0.0
H5195 H 0.43674 0.97363 0.05367 0.0
H5196 H 0.44524 0.97404 0.03549 0.0
H5197 H 0.45537 0.98658 0.05348 0.0
H5198 H 0.46954 0.03174 0.05537 0.0
H5199 H 0.49596 0.03662 0.04943 0.0
H5200 H 0.86647 0.59077 0.74219 0.0
H5201 H 0.84955 0.60869 0.73702 0.0
H5202 H 0.87084 0.64205 0.7795 0.0
H5203 H 0.88813 0.62441 0.78464 0.0
H5204 H 0.83329 0.62583 0.77075 0.0
H5205 H 0.86585 0.66097 0.72969 0.0
H5206 H 0.86514 0.6396 0.72872 0.0
H5207 H 0.87557 0.65379 0.7455 0.0
C5208 C 0.86777 0.60206 0.75029 0.0
C5209 C 0.87867 0.60623 0.76381 0.0
C5210 C 0.85803 0.61219 0.74735 0.0
C5211 C 0.85907 0.62659 0.75788 0.0
C5212 C 0.86998 0.63092 0.77128 0.0
H5213 H 0.82005 0.70884 0.75959 0.0
H5214 H 0.83617 0.68941 0.76029 0.0
C5215 C 0.87975 0.62082 0.77423 0.0
C5216 C 0.84833 0.63685 0.75523 0.0
H5217 H 0.84296 0.6678 0.73623 0.0
C5218 C 0.83528 0.63496 0.76315 0.0
C5219 C 0.85114 0.64867 0.74533 0.0
C5220 C 0.86518 0.65101 0.73677 0.0
C5221 C 0.82498 0.64492 0.76165 0.0
C5222 C 0.82781 0.65685 0.75177 0.0
C5223 C 0.84081 0.65856 0.7437 0.0
C5224 C 0.81799 0.66844 0.75058 0.0
C5225 C 0.8115 0.64298 0.77107 0.0
C5226 C 0.80248 0.66306 0.74462 0.0
C5227 C 0.79316 0.67412 0.74445 0.0
C5228 C 0.79927 0.69071 0.75012 0.0
C5229 C 0.81493 0.69608 0.75553 0.0
C5230 C 0.82419 0.68503 0.75578 0.0
H5231 H 0.81289 0.6358 0.78067 0.0
H5232 H 0.80982 0.65498 0.77645 0.0
H5233 H 0.80102 0.63652 0.76304 0.0
H5234 H 0.79758 0.65031 0.74027 0.0
H5235 H 0.78114 0.66963 0.7402 0.0
H5236 H 0.84371 0.63334 0.026 0.0
H5237 H 0.86565 0.6208 0.02748 0.0
H5238 H 0.87128 0.62542 0.97885 0.0
H5239 H 0.84947 0.63813 0.97731 0.0
H5240 H 0.86941 0.59189 0.00756 0.0
H5241 H 0.91433 0.64633 0.00358 0.0
H5242 H 0.89563 0.6476 0.00886 0.0
H5243 H 0.89822 0.64158 0.98852 0.0
C5244 C 0.84969 0.63181 0.01565 0.0
C5245 C 0.84483 0.63679 1.00154 0.0
C5246 C 0.86218 0.62457 0.0165 0.0
C5247 C 0.87023 0.62235 1.00335 0.0
C5248 C 0.86538 0.62721 0.98922 0.0
H5249 H 0.94804 0.58139 0.98302 0.0
H5250 H 0.92705 0.59532 0.9829 0.0
C5251 C 0.85281 0.63433 0.98831 0.0
C5252 C 0.88346 0.61459 0.00427 0.0
H5253 H 0.92192 0.6214 1.00226 0.0
C5254 C 0.88091 0.59835 0.00649 0.0
C5255 C 0.89844 0.62302 1.00281 0.0
C5256 C 0.90193 0.64064 1.00094 0.0
C5257 C 0.89287 0.59019 0.00693 0.0
C5258 C 0.9079 0.59863 0.00551 0.0
C5259 C 0.91044 0.61492 1.00336 0.0
C5260 C 0.92108 0.5907 0.00597 0.0
C5261 C 0.88917 0.57246 0.00841 0.0
C5262 C 0.92501 0.58378 0.01915 0.0
C5263 C 0.93701 0.57578 0.01924 0.0
C5264 C 0.94549 0.57468 0.00624 0.0
C5265 C 0.94185 0.5821 0.99329 0.0
C5266 C 0.92979 0.59002 0.99317 0.0
H5267 H 0.87685 0.56677 0.00489 0.0
H5268 H 0.89593 0.56563 1.00096 0.0
H5269 H 0.89197 0.57127 0.02095 0.0
H5270 H 0.91878 0.58453 0.02938 0.0
H5271 H 0.93967 0.57048 0.02954 0.0
H5272 H 0.22905 0.10404 0.78132 0.0
H5273 H 0.24198 0.13205 0.78004 0.0
H5274 H 0.20043 0.13966 0.75731 0.0
H5275 H 0.18737 0.11183 0.75878 0.0
H5276 H 0.24766 0.14807 0.75459 0.0
H5277 H 0.212 0.17971 0.79142 0.0
H5278 H 0.21141 0.15841 0.7907 0.0
H5279 H 0.20135 0.16513 0.77494 0.0
C5280 C 0.22252 0.11164 0.7762 0.0
C5281 C 0.20697 0.10526 0.7702 0.0
C5282 C 0.23003 0.12781 0.77538 0.0
C5283 C 0.22231 0.13845 0.76878 0.0
C5284 C 0.2068 0.13212 0.76278 0.0
H5285 H 0.25224 0.24234 0.7552 0.0
H5286 H 0.23708 0.21482 0.75613 0.0
C5287 C 0.19931 0.11592 0.76346 0.0
C5288 C 0.23055 0.15583 0.76775 0.0
H5289 H 0.22991 0.1961 0.77837 0.0
C5290 C 0.24374 0.15851 0.75988 0.0
C5291 C 0.22559 0.1698 0.77439 0.0
C5292 C 0.2119 0.16821 0.78346 0.0
C5293 C 0.25181 0.17431 0.75832 0.0
C5294 C 0.24709 0.18834 0.76528 0.0
C5295 C 0.23377 0.18565 0.77299 0.0
C5296 C 0.25611 0.20568 0.76513 0.0
C5297 C 0.26515 0.17567 0.74872 0.0
C5298 C 0.27191 0.21038 0.77025 0.0
C5299 C 0.28054 0.22607 0.76967 0.0
C5300 C 0.27383 0.23806 0.76426 0.0
C5301 C 0.25792 0.23366 0.75959 0.0
C5302 C 0.24921 0.21777 0.76006 0.0
H5303 H 0.26396 0.16454 0.73979 0.0
H5304 H 0.26629 0.18624 0.74243 0.0
H5305 H 0.27581 0.1771 0.75674 0.0
H5306 H 0.27769 0.20185 0.77478 0.0
H5307 H 0.29268 0.22882 0.77353 0.0
H5308 H 0.33447 0.96897 0.24028 0.0
H5309 H 0.31621 0.94238 0.23385 0.0
H5310 H 0.3503 0.91993 0.25337 0.0
H5311 H 0.36835 0.94611 0.25979 0.0
H5312 H 0.33455 0.90372 0.22283 0.0
H5313 H 0.29587 0.91742 0.26778 0.0
H5314 H 0.30024 0.93062 0.25342 0.0
H5315 H 0.31483 0.92997 0.26865 0.0
C5316 C 0.33797 0.95832 0.2432 0.0
C5317 C 0.35284 0.95953 0.2504 0.0
C5318 C 0.32759 0.9432 0.23949 0.0
C5319 C 0.33199 0.92927 0.24309 0.0
C5320 C 0.34678 0.93055 0.25032 0.0
H5321 H 0.30766 0.84569 0.27757 0.0
H5322 H 0.31295 0.87262 0.27019 0.0
C5323 C 0.35708 0.9455 0.25396 0.0
C5324 C 0.32137 0.91318 0.2401 0.0
H5325 H 0.29442 0.89011 0.25792 0.0
C5326 C 0.32544 0.90067 0.23012 0.0
C5327 C 0.30952 0.90943 0.24962 0.0
C5328 C 0.30478 0.92249 0.26053 0.0
C5329 C 0.31911 0.88435 0.23069 0.0
C5330 C 0.30815 0.88059 0.24126 0.0
C5331 C 0.30293 0.89311 0.24996 0.0
C5332 C 0.30394 0.86422 0.24547 0.0
C5333 C 0.32523 0.87142 0.22107 0.0
C5334 C 0.29706 0.85059 0.23402 0.0
C5335 C 0.29433 0.83513 0.23815 0.0
C5336 C 0.29815 0.83314 0.25387 0.0
C5337 C 0.30463 0.84685 0.26538 0.0
C5338 C 0.30756 0.86224 0.26119 0.0
H5339 H 0.33547 0.87665 0.21557 0.0
H5340 H 0.32829 0.86283 0.22861 0.0
H5341 H 0.31631 0.86444 0.2114 0.0
H5342 H 0.29389 0.85188 0.22191 0.0
H5343 H 0.28911 0.82478 0.22906 0.0
H5344 H 0.54727 0.38977 0.59773 0.0
H5345 H 0.54485 0.41303 0.58511 0.0
H5346 H 0.57331 0.39917 0.55013 0.0
H5347 H 0.57529 0.37546 0.56228 0.0
H5348 H 0.56616 0.43896 0.58044 0.0
H5349 H 0.53693 0.40452 0.52225 0.0
H5350 H 0.53924 0.39495 0.5394 0.0
H5351 H 0.55485 0.39981 0.52788 0.0
C5352 C 0.55286 0.39149 0.58721 0.0
C5353 C 0.56137 0.38055 0.58099 0.0
C5354 C 0.55156 0.40492 0.58007 0.0
C5355 C 0.55868 0.40779 0.56648 0.0
C5356 C 0.56743 0.39709 0.56039 0.0
H5357 H 0.57041 0.50135 0.53231 0.0
H5358 H 0.57498 0.47751 0.54289 0.0
C5359 C 0.56872 0.38361 0.56751 0.0
C5360 C 0.55708 0.42208 0.55891 0.0
H5361 H 0.54464 0.43308 0.52424 0.0
C5362 C 0.56147 0.43766 0.56814 0.0
C5363 C 0.55077 0.42044 0.5429 0.0
C5364 C 0.54503 0.40403 0.53255 0.0
C5365 C 0.55978 0.45157 0.56186 0.0
C5366 C 0.55381 0.44997 0.54575 0.0
C5367 C 0.54938 0.43438 0.53652 0.0
C5368 C 0.55136 0.46419 0.53847 0.0
C5369 C 0.56396 0.46779 0.57272 0.0
C5370 C 0.53669 0.46446 0.53181 0.0
C5371 C 0.53407 0.47798 0.52556 0.0
C5372 C 0.54607 0.49163 0.52579 0.0
C5373 C 0.56086 0.49115 0.53204 0.0
C5374 C 0.56348 0.47755 0.53822 0.0
H5375 H 0.56445 0.4664 0.58542 0.0
H5376 H 0.5754 0.47448 0.57069 0.0
H5377 H 0.55562 0.47523 0.57035 0.0
H5378 H 0.52714 0.45431 0.53176 0.0
H5379 H 0.52253 0.47785 0.52086 0.0
H5380 H 0.42144 0.74427 0.35262 0.0
H5381 H 0.398 0.7488 0.33939 0.0
H5382 H 0.41994 0.79917 0.34139 0.0
H5383 H 0.44347 0.7946 0.35424 0.0
H5384 H 0.37921 0.76769 0.34831 0.0
H5385 H 0.40394 0.78735 0.29537 0.0
H5386 H 0.41413 0.77856 0.30943 0.0
H5387 H 0.41351 0.79961 0.31366 0.0
C5388 C 0.42128 0.75631 0.35021 0.0
C5389 C 0.43442 0.76902 0.35433 0.0
C5390 C 0.40786 0.75889 0.34263 0.0
C5391 C 0.40721 0.77427 0.33904 0.0
C5392 C 0.42022 0.78707 0.34352 0.0
H5393 H 0.3309 0.80593 0.29089 0.0
H5394 H 0.35399 0.80642 0.30866 0.0
C5395 C 0.43368 0.78445 0.35093 0.0
C5396 C 0.3929 0.77686 0.33079 0.0
H5397 H 0.37852 0.78952 0.29786 0.0
C5398 C 0.37911 0.77249 0.3373 0.0
C5399 C 0.39266 0.78317 0.31638 0.0
C5400 C 0.40682 0.7873 0.30821 0.0
C5401 C 0.36518 0.77411 0.32979 0.0
C5402 C 0.36496 0.78026 0.31537 0.0
C5403 C 0.37874 0.78499 0.30902 0.0
C5404 C 0.3504 0.78029 0.30586 0.0
C5405 C 0.35074 0.76912 0.33725 0.0
C5406 C 0.34071 0.7655 0.29851 0.0
C5407 C 0.32773 0.76522 0.28831 0.0
C5408 C 0.32404 0.77972 0.28529 0.0
C5409 C 0.33341 0.79458 0.29309 0.0
C5410 C 0.34661 0.79486 0.30317 0.0
H5411 H 0.35318 0.76824 0.34996 0.0
H5412 H 0.34338 0.77787 0.33627 0.0
H5413 H 0.34423 0.75704 0.3309 0.0
H5414 H 0.34346 0.75413 0.30026 0.0
H5415 H 0.32072 0.75358 0.28248 0.0
H5416 H 0.07884 0.72448 0.07139 0.0
H5417 H 0.07687 0.69613 0.0597 0.0
H5418 H 0.02785 0.68825 0.0523 0.0
H5419 H 0.02973 0.71663 0.06396 0.0
H5420 H 0.05881 0.66842 0.07211 0.0
H5421 H 0.04092 0.6691 0.00865 0.0
H5422 H 0.05066 0.68723 0.02231 0.0
H5423 H 0.03081 0.67869 0.02301 0.0
C5424 C 0.06765 0.7168 0.06702 0.0
C5425 C 0.05444 0.72282 0.06857 0.0
C5426 C 0.06655 0.70059 0.06042 0.0
C5427 C 0.05223 0.69014 0.05502 0.0
C5428 C 0.03902 0.69617 0.05624 0.0
H5429 H 0.01991 0.58768 0.0166 0.0
H5430 H 0.02297 0.61687 0.02484 0.0
C5431 C 0.04011 0.71234 0.06299 0.0
C5432 C 0.05106 0.67269 0.04907 0.0
H5433 H 0.04082 0.64347 0.01596 0.0
C5434 C 0.05496 0.66296 0.05982 0.0
C5435 C 0.04593 0.66561 0.03306 0.0
C5436 C 0.04191 0.67565 0.021 0.0
C5437 C 0.0536 0.64624 0.05508 0.0
C5438 C 0.04858 0.63913 0.03902 0.0
C5439 C 0.04471 0.64891 0.02825 0.0
C5440 C 0.04702 0.62152 0.03328 0.0
C5441 C 0.05707 0.63629 0.06746 0.0
C5442 C 0.0596 0.61444 0.0349 0.0
C5443 C 0.05787 0.59771 0.0303 0.0
C5444 C 0.04355 0.58772 0.0238 0.0
C5445 C 0.0311 0.59496 0.02162 0.0
C5446 C 0.03282 0.61167 0.02632 0.0
H5447 H 0.05657 0.64252 0.07965 0.0
H5448 H 0.04895 0.62424 0.06542 0.0
H5449 H 0.06878 0.63435 0.06686 0.0
H5450 H 0.07075 0.62184 0.03985 0.0
H5451 H 0.06775 0.59261 0.032 0.0
H5452 H 0.06838 0.27936 0.83698 0.0
H5453 H 0.09182 0.28185 0.82431 0.0
H5454 H 0.11674 0.27817 0.86819 0.0
H5455 H 0.09324 0.2746 0.88067 0.0
H5456 H 0.11835 0.30388 0.82998 0.0
H5457 H 0.12952 0.24438 0.83853 0.0
H5458 H 0.11172 0.24972 0.84217 0.0
H5459 H 0.12819 0.25679 0.85685 0.0
C5460 C 0.07876 0.27877 0.84391 0.0
C5461 C 0.07875 0.27659 0.85988 0.0
C5462 C 0.09223 0.28037 0.83666 0.0
C5463 C 0.10606 0.27988 0.84516 0.0
C5464 C 0.10619 0.27816 0.8612 0.0
H5465 H 0.19961 0.28998 0.82205 0.0
H5466 H 0.17666 0.28923 0.83547 0.0
C5467 C 0.09271 0.27639 0.86842 0.0
C5468 C 0.12033 0.28132 0.83729 0.0
H5469 H 0.14942 0.26261 0.82944 0.0
C5470 C 0.12509 0.2948 0.8298 0.0
C5471 C 0.12917 0.26948 0.837 0.0
C5472 C 0.12432 0.2542 0.84393 0.0
C5473 C 0.13848 0.29685 0.82227 0.0
C5474 C 0.14734 0.2851 0.82213 0.0
C5475 C 0.14265 0.27167 0.82964 0.0
C5476 C 0.16135 0.28629 0.81396 0.0
C5477 C 0.14318 0.31171 0.8147 0.0
C5478 C 0.16039 0.28484 0.79738 0.0
C5479 C 0.17347 0.28505 0.78962 0.0
C5480 C 0.18785 0.28673 0.79826 0.0
C5481 C 0.18876 0.28842 0.81493 0.0
C5482 C 0.17565 0.2881 0.82266 0.0
H5483 H 0.13706 0.32123 0.81873 0.0
H5484 H 0.15567 0.31688 0.81743 0.0
H5485 H 0.14052 0.30826 0.80162 0.0
H5486 H 0.14944 0.28315 0.79039 0.0
H5487 H 0.17219 0.28339 0.77679 0.0
H5488 H 0.54987 0.75227 0.94294 0.0
H5489 H 0.54326 0.72907 0.95665 0.0
H5490 H 0.56856 0.7027 0.9263 0.0
H5491 H 0.57506 0.72578 0.91232 0.0
H5492 H 0.52755 0.69631 0.94293 0.0
H5493 H 0.58598 0.70098 0.97227 0.0
H5494 H 0.58064 0.71744 0.96393 0.0
H5495 H 0.5844 0.70052 0.95117 0.0
C5496 C 0.55398 0.74151 0.93913 0.0
C5497 C 0.56302 0.74087 0.92656 0.0
C5498 C 0.55022 0.72831 0.94699 0.0
C5499 C 0.55552 0.71428 0.94253 0.0
C5500 C 0.56455 0.71355 0.93003 0.0
H5501 H 0.52593 0.61943 0.96909 0.0
H5502 H 0.53029 0.6424 0.95475 0.0
C5503 C 0.56831 0.72676 0.92212 0.0
C5504 C 0.55151 0.7004 0.95096 0.0
H5505 H 0.56686 0.67828 0.97515 0.0
C5506 C 0.53611 0.69234 0.94999 0.0
C5507 C 0.56273 0.69543 0.96024 0.0
C5508 C 0.57937 0.70409 0.96213 0.0
C5509 C 0.53162 0.67926 0.95802 0.0
C5510 C 0.54289 0.67413 0.96709 0.0
C5511 C 0.55827 0.68227 0.96813 0.0
C5512 C 0.53905 0.66041 0.97578 0.0
C5513 C 0.51489 0.67124 0.95697 0.0
C5514 C 0.54259 0.66296 0.99231 0.0
C5515 C 0.54029 0.64988 1.00049 0.0
C5516 C 0.53447 0.634 0.99226 0.0
C5517 C 0.53056 0.63152 0.97573 0.0
C5518 C 0.53288 0.64463 0.96754 0.0
H5519 H 0.50752 0.67898 0.95273 0.0
H5520 H 0.51241 0.65967 0.94846 0.0
H5521 H 0.51181 0.66842 0.96868 0.0
H5522 H 0.54745 0.67507 0.99883 0.0
H5523 H 0.54361 0.65217 0.01319 0.0
H5524 H 0.05959 0.77523 0.73244 0.0
H5525 H 0.08361 0.77528 0.74805 0.0
H5526 H 0.10787 0.78482 0.70793 0.0
H5527 H 0.0841 0.78492 0.69243 0.0
H5528 H 0.10059 0.75398 0.74123 0.0
H5529 H 0.13639 0.81522 0.74318 0.0
H5530 H 0.11595 0.81051 0.73791 0.0
H5531 H 0.12841 0.80668 0.72315 0.0
C5532 C 0.07012 0.77762 0.72709 0.0
C5533 C 0.07 0.7801 0.71124 0.0
C5534 C 0.08381 0.77772 0.73602 0.0
C5535 C 0.09756 0.78033 0.72924 0.0
C5536 C 0.09749 0.7833 0.71358 0.0
H5537 H 0.17139 0.73728 0.72914 0.0
H5538 H 0.14647 0.74389 0.72914 0.0
C5539 C 0.08386 0.7833 0.7047 0.0
C5540 C 0.11166 0.77791 0.73758 0.0
H5541 H 0.15007 0.79354 0.74383 0.0
C5542 C 0.11137 0.76279 0.7422 0.0
C5543 C 0.12568 0.78951 0.73919 0.0
C5544 C 0.12658 0.80645 0.73575 0.0
C5545 C 0.1249 0.75845 0.74707 0.0
C5546 C 0.13904 0.76938 0.74692 0.0
C5547 C 0.13924 0.78502 0.74366 0.0
C5548 C 0.15369 0.76434 0.74835 0.0
C5549 C 0.1239 0.74203 0.75187 0.0
C5550 C 0.16611 0.77377 0.75898 0.0
C5551 C 0.18048 0.77026 0.75873 0.0
C5552 C 0.18269 0.75724 0.74781 0.0
C5553 C 0.17011 0.74748 0.73757 0.0
C5554 C 0.15578 0.75109 0.73775 0.0
H5555 H 0.11321 0.73812 0.75722 0.0
H5556 H 0.12368 0.73293 0.74117 0.0
H5557 H 0.13379 0.74205 0.76048 0.0
H5558 H 0.16477 0.78416 0.76714 0.0
H5559 H 0.18998 0.77818 0.76661 0.0
H5560 H 0.10328 0.39559 0.43089 0.0
H5561 H 0.10083 0.42195 0.44464 0.0
H5562 H 0.05282 0.40238 0.44576 0.0
H5563 H 0.05512 0.37615 0.43201 0.0
H5564 H 0.08158 0.44128 0.43406 0.0
H5565 H 0.06823 0.42361 0.4919 0.0
H5566 H 0.07646 0.41144 0.47757 0.0
H5567 H 0.05629 0.41048 0.47525 0.0
C5568 C 0.09223 0.39692 0.43416 0.0
C5569 C 0.07941 0.3838 0.43049 0.0
C5570 C 0.09087 0.41193 0.44201 0.0
C5571 C 0.0767 0.41398 0.44635 0.0
C5572 C 0.06392 0.4009 0.4428 0.0
H5573 H 0.03478 0.49068 0.48045 0.0
H5574 H 0.04165 0.46739 0.46495 0.0
C5575 C 0.06527 0.38592 0.43499 0.0
C5576 C 0.07499 0.42993 0.45406 0.0
H5577 H 0.0629 0.44868 0.48682 0.0
C5578 C 0.07767 0.44299 0.44567 0.0
C5579 C 0.06997 0.43206 0.46922 0.0
C5580 C 0.06771 0.4187 0.47909 0.0
C5581 C 0.07487 0.45802 0.45189 0.0
C5582 C 0.06928 0.45987 0.46673 0.0
C5583 C 0.06702 0.44701 0.4753 0.0
C5584 C 0.06568 0.47509 0.47374 0.0
C5585 C 0.07758 0.47177 0.44255 0.0
C5586 C 0.07703 0.48712 0.48343 0.0
C5587 C 0.07315 0.50031 0.49231 0.0
C5588 C 0.05785 0.50153 0.49163 0.0
C5589 C 0.04663 0.48994 0.4812 0.0
C5590 C 0.05053 0.4767 0.47236 0.0
H5591 H 0.08183 0.46832 0.43105 0.0
H5592 H 0.06679 0.47572 0.44022 0.0
H5593 H 0.08604 0.48231 0.44962 0.0
H5594 H 0.08876 0.48593 0.48463 0.0
H5595 H 0.08201 0.50919 0.50019 0.0
H5596 H 0.43487 0.23555 0.20429 0.0
H5597 H 0.41397 0.2336 0.22093 0.0
H5598 H 0.3925 0.26214 0.19265 0.0
H5599 H 0.41318 0.2639 0.17584 0.0
H5600 H 0.4053 0.26002 0.23863 0.0
H5601 H 0.35783 0.22259 0.19492 0.0
H5602 H 0.37766 0.22374 0.1923 0.0
H5603 H 0.3686 0.23944 0.18735 0.0
C5604 C 0.42555 0.24117 0.20148 0.0
C5605 C 0.42557 0.24982 0.18874 0.0
C5606 C 0.4137 0.2401 0.21102 0.0
C5607 C 0.40164 0.24751 0.20783 0.0
C5608 C 0.4016 0.25608 0.19509 0.0
H5609 H 0.3433 0.29334 0.25552 0.0
H5610 H 0.36503 0.28356 0.24665 0.0
C5611 C 0.41346 0.25722 0.18561 0.0
C5612 C 0.38947 0.24722 0.21829 0.0
H5613 H 0.35077 0.23913 0.21704 0.0
C5614 C 0.39337 0.25515 0.23406 0.0
C5615 C 0.37399 0.24052 0.21238 0.0
C5616 C 0.36926 0.23094 0.19585 0.0
C5617 C 0.38205 0.25774 0.24371 0.0
C5618 C 0.36654 0.25245 0.23726 0.0
C5619 C 0.36268 0.24333 0.22193 0.0
C5620 C 0.35429 0.25811 0.24518 0.0
C5621 C 0.38683 0.26658 0.26052 0.0
C5622 C 0.34097 0.24705 0.24724 0.0
C5623 C 0.32838 0.25262 0.25211 0.0
C5624 C 0.32891 0.26934 0.25488 0.0
C5625 C 0.3425 0.28038 0.25348 0.0
C5626 C 0.35503 0.27481 0.24858 0.0
H5627 H 0.39778 0.26423 0.26541 0.0
H5628 H 0.38866 0.27983 0.26062 0.0
H5629 H 0.37801 0.26294 0.26839 0.0
H5630 H 0.34015 0.23411 0.24452 0.0
H5631 H 0.31808 0.2438 0.25311 0.0
H5632 H 0.59937 0.53369 0.34481 0.0
H5633 H 0.58787 0.53576 0.36968 0.0
H5634 H 0.61501 0.50514 0.38736 0.0
H5635 H 0.62681 0.50328 0.36267 0.0
H5636 H 0.5702 0.51414 0.38461 0.0
H5637 H 0.62311 0.54019 0.42569 0.0
H5638 H 0.62277 0.5389 0.40447 0.0
H5639 H 0.62329 0.52132 0.41354 0.0
C5640 C 0.60317 0.5275 0.35396 0.0
C5641 C 0.61435 0.51835 0.35122 0.0
C5642 C 0.59638 0.52863 0.36839 0.0
C5643 C 0.60053 0.52091 0.38104 0.0
C5644 C 0.6116 0.51167 0.37831 0.0
H5645 H 0.57079 0.51594 0.47862 0.0
H5646 H 0.58434 0.51461 0.45478 0.0
C5647 C 0.6183 0.51041 0.36383 0.0
C5648 C 0.59301 0.52217 0.39664 0.0
H5649 H 0.60048 0.53227 0.43752 0.0
C5650 C 0.57694 0.51821 0.39612 0.0
C5651 C 0.6014 0.52726 0.41207 0.0
C5652 C 0.61859 0.53231 0.41406 0.0
C5653 C 0.56925 0.51884 0.41004 0.0
C5654 C 0.5776 0.52429 0.42551 0.0
C5655 C 0.59372 0.52816 0.42603 0.0
C5656 C 0.56989 0.5261 0.44102 0.0
C5657 C 0.55211 0.51288 0.40784 0.0
C5658 C 0.55741 0.5336 0.44223 0.0
C5659 C 0.54957 0.53422 0.45591 0.0
C5660 C 0.55408 0.52802 0.46948 0.0
C5661 C 0.56704 0.52126 0.46874 0.0
C5662 C 0.57478 0.52037 0.45486 0.0
H5663 H 0.54816 0.50393 0.39673 0.0
H5664 H 0.54797 0.50708 0.41791 0.0
H5665 H 0.54678 0.52327 0.40686 0.0
H5666 H 0.55347 0.53889 0.43244 0.0
H5667 H 0.53962 0.53939 0.45573 0.0
H5668 H 0.3309 0.88993 0.07483 0.0
H5669 H 0.33854 0.87869 0.09808 0.0
H5670 H 0.29144 0.85578 0.10012 0.0
H5671 H 0.28373 0.86663 0.07667 0.0
H5672 H 0.32891 0.88162 0.12941 0.0
H5673 H 0.3144 0.81847 0.09677 0.0
H5674 H 0.31666 0.83591 0.08687 0.0
H5675 H 0.2991 0.82868 0.09477 0.0
C5676 C 0.32219 0.8824 0.08018 0.0
C5677 C 0.30674 0.87893 0.07384 0.0
C5678 C 0.32657 0.87614 0.09351 0.0
C5679 C 0.31556 0.86628 0.10059 0.0
C5680 C 0.30009 0.86322 0.09461 0.0
H5681 H 0.30667 0.83367 0.1874 0.0
H5682 H 0.31144 0.85063 0.16702 0.0
C5683 C 0.2957 0.86949 0.08131 0.0
C5684 C 0.32017 0.85867 0.11395 0.0
H5685 H 0.31725 0.82172 0.12505 0.0
C5686 C 0.3266 0.86853 0.12848 0.0
C5687 C 0.31756 0.84164 0.11249 0.0
C5688 C 0.3117 0.83055 0.09684 0.0
C5689 C 0.32957 0.86168 0.14197 0.0
C5690 C 0.32567 0.8446 0.14082 0.0
C5691 C 0.32016 0.83482 0.126 0.0
C5692 C 0.32557 0.83646 0.15488 0.0
C5693 C 0.33663 0.8728 0.15729 0.0
C5694 C 0.33192 0.82286 0.15489 0.0
C5695 C 0.3288 0.81289 0.16625 0.0
C5696 C 0.31946 0.81652 0.17789 0.0
C5697 C 0.31397 0.83071 0.17855 0.0
C5698 C 0.31685 0.84051 0.16702 0.0
H5699 H 0.34424 0.88406 0.15496 0.0
H5700 H 0.32744 0.87644 0.16377 0.0
H5701 H 0.34331 0.86681 0.16501 0.0
H5702 H 0.33865 0.81951 0.14562 0.0
H5703 H 0.33326 0.80207 0.16567 0.0
H5704 H 0.95568 0.56009 0.87249 0.0
H5705 H 0.97301 0.55971 0.89593 0.0
H5706 H 0.99744 0.53103 0.86668 0.0
H5707 H 0.97961 0.53071 0.84346 0.0
H5708 H 0.99192 0.51846 0.89163 0.0
H5709 H 0.01561 0.58419 0.91109 0.0
H5710 H 0.99519 0.57946 0.90977 0.0
H5711 H 1.00438 0.57608 0.89212 0.0
C5712 C 0.96487 0.55387 0.87115 0.0
C5713 C 0.96644 0.54543 0.85634 0.0
C5714 C 0.97483 0.55377 0.88446 0.0
C5715 C 0.98672 0.54562 0.883 0.0
C5716 C 0.9884 0.53744 0.86807 0.0
H5717 H 0.05468 0.55488 0.96467 0.0
H5718 H 0.04256 0.55612 0.93837 0.0
C5719 C 0.97826 0.53726 0.85485 0.0
C5720 C 0.99671 0.54457 0.89719 0.0
H5721 H 0.01853 0.56712 0.93057 0.0
C5722 C 0.99791 0.52913 0.90002 0.0
C5723 C 0.00478 0.55849 0.90799 0.0
C5724 C 0.00507 0.57548 0.90499 0.0
C5725 C 0.00652 0.52718 0.91364 0.0
C5726 C 0.0136 0.54101 0.92503 0.0
C5727 C 0.0129 0.5565 0.92193 0.0
C5728 C 0.02125 0.53967 0.94053 0.0
C5729 C 0.00797 0.5103 0.91557 0.0
C5730 C 0.01326 0.53007 0.95044 0.0
C5731 C 0.02025 0.5291 0.96524 0.0
C5732 C 0.03516 0.53812 0.9706 0.0
C5733 C 0.04315 0.54783 0.96077 0.0
C5734 C 0.03624 0.54856 0.9458 0.0
H5735 H 0.00684 0.50237 0.90386 0.0
H5736 H 0.01909 0.51048 0.92224 0.0
H5737 H 0.99865 0.50479 0.92212 0.0
H5738 H 1.00154 0.52347 0.94682 0.0
H5739 H 0.01389 0.52144 0.97256 0.0
H5740 H 0.28633 0.25306 0.57504 0.0
H5741 H 0.28645 0.26457 0.60304 0.0
H5742 H 0.27761 0.21651 0.61493 0.0
H5743 H 0.27784 0.20494 0.58723 0.0
H5744 H 0.2572 0.24117 0.62594 0.0
H5745 H 0.32023 0.26119 0.642 0.0
H5746 H 0.31174 0.26423 0.62321 0.0
H5747 H 0.31178 0.24408 0.62659 0.0
C5748 C 0.28458 0.24495 0.58364 0.0
C5749 C 0.28196 0.22804 0.57881 0.0
C5750 C 0.28458 0.25155 0.59961 0.0
C5751 C 0.28198 0.24137 0.61101 0.0
C5752 C 0.27952 0.22456 0.60628 0.0
H5753 H 0.29747 0.25584 0.71273 0.0
H5754 H 0.29642 0.24815 0.68403 0.0
C5755 C 0.27958 0.21797 0.5904 0.0
C5756 C 0.28169 0.24807 0.6279 0.0
H5757 H 0.30488 0.26496 0.66237 0.0
C5758 C 0.26758 0.24651 0.63395 0.0
C5759 C 0.29527 0.25482 0.63825 0.0
C5760 C 0.31069 0.25621 0.63232 0.0
C5761 C 0.26669 0.25125 0.65019 0.0
C5762 C 0.28031 0.25803 0.66065 0.0
C5763 C 0.29442 0.25982 0.65444 0.0
C5764 C 0.28036 0.2625 0.67816 0.0
C5765 C 0.25116 0.24827 0.65599 0.0
C5766 C 0.27165 0.2731 0.6846 0.0
C5767 C 0.2719 0.27713 0.70108 0.0
C5768 C 0.28127 0.27108 0.71144 0.0
C5769 C 0.29015 0.26071 0.70502 0.0
C5770 C 0.28959 0.25635 0.6886 0.0
H5771 H 0.2426 0.23895 0.64752 0.0
H5772 H 0.2516 0.24426 0.66772 0.0
H5773 H 0.24711 0.25969 0.65718 0.0
H5774 H 0.26482 0.27847 0.67691 0.0
H5775 H 0.26515 0.28539 0.70573 0.0
H5776 H 0.63233 0.52792 0.17704 0.0
H5777 H 0.62026 0.53043 0.1512 0.0
H5778 H 0.57719 0.50364 0.16156 0.0
H5779 H 0.58908 0.50145 0.18762 0.0
H5780 H 0.6065 0.50975 0.12487 0.0
H5781 H 0.56297 0.54098 0.14713 0.0
H5782 H 0.57856 0.53813 0.16013 0.0
H5783 H 0.56196 0.52183 0.15362 0.0
C5784 C 0.62023 0.52269 0.17407 0.0
C5785 C 0.61187 0.51458 0.185 0.0
C5786 C 0.61327 0.52405 0.15899 0.0
C5787 C 0.59754 0.51754 0.15406 0.0
C5788 C 0.5892 0.50922 0.16482 0.0
H5789 H 0.55545 0.5033 0.05261 0.0
H5790 H 0.56672 0.49963 0.0785 0.0
C5791 C 0.59617 0.50777 0.17988 0.0
C5792 C 0.59008 0.51932 0.13775 0.0
H5793 H 0.56058 0.53229 0.1193 0.0
C5794 C 0.59644 0.51467 0.12378 0.0
C5795 C 0.57699 0.52596 0.1358 0.0
C5796 C 0.56978 0.53217 0.14995 0.0
C5797 C 0.59015 0.51619 0.10838 0.0
C5798 C 0.57682 0.52243 0.10638 0.0
C5799 C 0.57061 0.52732 0.12039 0.0
C5800 C 0.5695 0.52448 0.09012 0.0
C5801 C 0.59825 0.51146 0.09437 0.0
C5802 C 0.56659 0.53952 0.08748 0.0
C5803 C 0.56003 0.54164 0.07253 0.0
C5804 C 0.55584 0.52878 0.05944 0.0
C5805 C 0.55849 0.51364 0.06213 0.0
C5806 C 0.56514 0.51154 0.0771 0.0
H5807 H 0.61033 0.51146 0.09809 0.0
H5808 H 0.59243 0.49901 0.08837 0.0
H5809 H 0.59804 0.51983 0.08566 0.0
H5810 H 0.56962 0.54984 0.09702 0.0
H5811 H 0.55825 0.55352 0.07125 0.0
H5812 H 0.3007 0.89207 0.91258 0.0
H5813 H 0.2997 0.87459 0.88709 0.0
H5814 H 0.28021 0.83266 0.90729 0.0
H5815 H 0.28163 0.84994 0.93297 0.0
H5816 H 0.30367 0.8283 0.88811 0.0
H5817 H 0.25943 0.85363 0.8582 0.0
H5818 H 0.27624 0.86837 0.86765 0.0
H5819 H 0.26391 0.85701 0.87949 0.0
C5820 C 0.29636 0.87911 0.91165 0.0
C5821 C 0.29111 0.87239 0.92475 0.0
C5822 C 0.29568 0.86918 0.89706 0.0
C5823 C 0.28968 0.85241 0.89531 0.0
C5824 C 0.28479 0.84561 0.90843 0.0
H5825 H 0.25543 0.78453 0.80887 0.0
H5826 H 0.25945 0.80035 0.83566 0.0
C5827 C 0.28548 0.85551 0.92302 0.0
C5828 C 0.28815 0.84196 0.87971 0.0
H5829 H 0.26978 0.8348 0.84212 0.0
C5830 C 0.29628 0.82969 0.87803 0.0
C5831 C 0.27835 0.84375 0.8667 0.0
C5832 C 0.26886 0.8563 0.86806 0.0
C5833 C 0.29496 0.8192 0.86355 0.0
C5834 C 0.28536 0.8212 0.85048 0.0
C5835 C 0.27717 0.8334 0.8522 0.0
C5836 C 0.28341 0.81064 0.83491 0.0
C5837 C 0.30358 0.8059 0.86238 0.0
C5838 C 0.29561 0.81111 0.82575 0.0
C5839 C 0.29332 0.8021 0.81045 0.0
C5840 C 0.27882 0.79262 0.80412 0.0
C5841 C 0.26674 0.79179 0.81349 0.0
C5842 C 0.269 0.80082 0.82874 0.0
H5843 H 0.30782 0.80384 0.87426 0.0
H5844 H 0.29624 0.79435 0.85572 0.0
H5845 H 0.31357 0.80933 0.85585 0.0
H5846 H 0.30679 0.81874 0.83028 0.0
H5847 H 0.30282 0.80262 0.8036 0.0
H5848 H 0.93417 0.49495 0.70022 0.0
H5849 H 0.93831 0.4853 0.67298 0.0
H5850 H 0.97523 0.52732 0.67538 0.0
H5851 H 0.97126 0.53699 0.70262 0.0
H5852 H 0.9525 0.51916 0.64702 0.0
H5853 H 0.97645 0.46736 0.66134 0.0
H5854 H 0.95839 0.46958 0.66769 0.0
H5855 H 0.97558 0.48393 0.67661 0.0
C5856 C 0.94328 0.50203 0.69498 0.0
C5857 C 0.95253 0.51664 0.70356 0.0
C5858 C 0.94554 0.49654 0.67943 0.0
C5859 C 0.95709 0.50558 0.67231 0.0
C5860 C 0.96621 0.52024 0.68075 0.0
H5861 H 0.02288 0.51122 0.61753 0.0
H5862 H 1.00378 0.50379 0.63517 0.0
C5863 C 0.96395 0.52574 0.69627 0.0
C5864 C 0.96019 0.49983 0.65618 0.0
H5865 H 0.9806 0.47561 0.63689 0.0
C5866 C 0.95824 0.50932 0.64452 0.0
C5867 C 0.96748 0.48687 0.65308 0.0
C5868 C 0.96969 0.4763 0.66529 0.0
C5869 C 0.96483 0.50729 0.63039 0.0
C5870 C 0.97343 0.49534 0.62795 0.0
C5871 C 0.97398 0.48473 0.63888 0.0
C5872 C 0.98476 0.49641 0.61654 0.0
C5873 C 0.96386 0.51898 0.61897 0.0
C5874 C 0.98039 0.49414 0.60017 0.0
C5875 C 0.99133 0.49843 0.59002 0.0
C5876 C 0.00673 0.50495 0.59616 0.0
C5877 C 0.01114 0.50613 0.61243 0.0
C5878 C 1.00024 0.50188 0.62253 0.0
H5879 H 0.95756 0.52826 0.62327 0.0
H5880 H 0.97549 0.5253 0.61706 0.0
H5881 H 0.95789 0.5122 0.60734 0.0
H5882 H 0.96849 0.48975 0.59536 0.0
H5883 H 0.9877 0.49711 0.57745 0.0
H5884 H 0.25912 0.20899 0.41018 0.0
H5885 H 0.26046 0.21935 0.3851 0.0
H5886 H 0.30813 0.24185 0.39889 0.0
H5887 H 0.30688 0.23177 0.42409 0.0
H5888 H 0.26859 0.25131 0.37926 0.0
H5889 H 0.3083 0.21537 0.35514 0.0
H5890 H 0.29833 0.21089 0.37192 0.0
H5891 H 0.31512 0.22715 0.37448 0.0
C5892 C 0.26988 0.21627 0.40799 0.0
C5893 C 0.28291 0.21944 0.41924 0.0
C5894 C 0.27064 0.22211 0.39356 0.0
C5895 C 0.28446 0.23115 0.38994 0.0
C5896 C 0.29742 0.23457 0.40121 0.0
H5897 H 0.31645 0.28045 0.31386 0.0
H5898 H 0.31307 0.26781 0.3375 0.0
C5899 C 0.29668 0.22876 0.41565 0.0
C5900 C 0.28527 0.23724 0.37451 0.0
H5901 H 0.30359 0.23616 0.34117 0.0
C5902 C 0.27615 0.2479 0.37086 0.0
C5903 C 0.29512 0.23278 0.36351 0.0
C5904 C 0.30468 0.2208 0.36634 0.0
C5905 C 0.27699 0.25464 0.35684 0.0
C5906 C 0.28699 0.25035 0.34593 0.0
C5907 C 0.29593 0.23948 0.34948 0.0
C5908 C 0.28888 0.25752 0.33115 0.0
C5909 C 0.26754 0.26675 0.35411 0.0
C5910 C 0.27648 0.25569 0.31943 0.0
C5911 C 0.27838 0.26299 0.30586 0.0
C5912 C 0.29275 0.27216 0.30371 0.0
C5913 C 0.30521 0.27354 0.3152 0.0
C5914 C 0.3033 0.2663 0.32873 0.0
H5915 H 0.26347 0.27173 0.36523 0.0
H5916 H 0.27418 0.27699 0.34916 0.0
H5917 H 0.25738 0.26068 0.34548 0.0
H5918 H 0.26531 0.24866 0.32079 0.0
H5919 H 0.26859 0.2616 0.29716 0.0
H5920 H 0.34111 0.6007 0.48859 0.0
H5921 H 0.35985 0.58395 0.48663 0.0
H5922 H 0.38501 0.6115 0.53055 0.0
H5923 H 0.36635 0.62841 0.53257 0.0
H5924 H 0.39152 0.59314 0.48577 0.0
H5925 H 0.37709 0.56406 0.53803 0.0
H5926 H 0.3649 0.57506 0.52869 0.0
H5927 H 0.38155 0.58585 0.54203 0.0
C5928 C 0.35074 0.60334 0.49773 0.0
C5929 C 0.35228 0.61585 0.51076 0.0
C5930 C 0.36136 0.5937 0.49663 0.0
C5931 C 0.37361 0.59636 0.50858 0.0
C5932 C 0.37541 0.60907 0.5214 0.0
H5933 H 0.45715 0.56452 0.50709 0.0
H5934 H 0.43693 0.57937 0.50766 0.0
C5935 C 0.36478 0.61872 0.52252 0.0
C5936 C 0.38459 0.58587 0.50755 0.0
H5937 H 0.39935 0.55951 0.52684 0.0
C5938 C 0.3932 0.58571 0.49469 0.0
C5939 C 0.3865 0.57601 0.51908 0.0
C5940 C 0.37693 0.57508 0.53267 0.0
C5941 C 0.40406 0.57629 0.4933 0.0
C5942 C 0.40646 0.56702 0.50522 0.0
C5943 C 0.39753 0.56678 0.51782 0.0
C5944 C 0.41858 0.55792 0.5051 0.0
C5945 C 0.41286 0.57631 0.47909 0.0
C5946 C 0.4149 0.54099 0.50392 0.0
C5947 C 0.42645 0.53245 0.50378 0.0
C5948 C 0.44182 0.54078 0.50498 0.0
C5949 C 0.44542 0.55778 0.50638 0.0
C5950 C 0.4339 0.56627 0.5065 0.0
H5951 H 0.40689 0.58037 0.46912 0.0
H5952 H 0.42421 0.5848 0.48248 0.0
H5953 H 0.41468 0.56405 0.47489 0.0
H5954 H 0.4031 0.53439 0.50296 0.0
H5955 H 0.42338 0.51937 0.5028 0.0
H5956 H 0.87163 0.94357 0.50262 0.0
H5957 H 0.89803 0.95735 0.5013 0.0
H5958 H 0.90968 0.95391 0.55024 0.0
H5959 H 0.88342 0.93948 0.55148 0.0
H5960 H 0.91417 0.98576 0.51756 0.0
H5961 H 0.94359 0.93767 0.52987 0.0
H5962 H 0.92315 0.93379 0.52501 0.0
H5963 H 0.93185 0.94257 0.54488 0.0
C5964 C 0.87983 0.94548 0.51305 0.0
C5965 C 0.87533 0.94028 0.52714 0.0
C5966 C 0.89494 0.95346 0.5123 0.0
C5967 C 0.90597 0.95643 0.52557 0.0
C5968 C 0.90151 0.95143 0.53971 0.0
H5969 H 0.98823 0.03163 0.54478 0.0
H5970 H 0.96362 0.01295 0.54442 0.0
C5971 C 0.88639 0.9434 0.54047 0.0
C5972 C 0.92188 0.96554 0.52484 0.0
H5973 H 0.95949 0.96429 0.53143 0.0
C5974 C 0.92405 0.98098 0.52048 0.0
C5975 C 0.93483 0.95924 0.52838 0.0
C5976 C 0.93327 0.94234 0.53214 0.0
C5977 C 0.93873 0.99048 0.52008 0.0
C5978 C 0.95169 0.98457 0.52447 0.0
C5979 C 0.94957 0.9689 0.52828 0.0
C5980 C 0.96742 0.99487 0.52575 0.0
C5981 C 0.94022 0.00681 0.51491 0.0
C5982 C 0.97813 0.99057 0.51592 0.0
C5983 C 0.99239 1.00127 0.51622 0.0
C5984 C 0.99611 0.01635 0.52635 0.0
C5985 C 0.98566 0.02016 0.53671 0.0
C5986 C 0.97153 0.00952 0.53648 0.0
H5987 H 0.92965 0.00751 0.5077 0.0
H5988 H 0.94226 0.0164 0.52556 0.0
H5989 H 0.94997 0.00942 0.50786 0.0
H5990 H 0.97524 0.97926 0.50762 0.0
H5991 H 1.00014 0.99804 0.50808 0.0
H5992 H 0.84805 0.11964 0.25147 0.0
H5993 H 0.83591 0.14264 0.25221 0.0
H5994 H 0.87961 0.17564 0.26701 0.0
H5995 H 0.89192 0.15282 0.26572 0.0
H5996 H 0.83148 0.16584 0.27382 0.0
H5997 H 0.86637 0.19906 0.23403 0.0
H5998 H 0.86734 0.17874 0.23648 0.0
H5999 H 0.87777 0.19588 0.25087 0.0
C6000 C 0.8553 0.13172 0.25466 0.0
C6001 C 0.87131 0.13377 0.25839 0.0
C6002 C 0.84817 0.14513 0.25521 0.0
C6003 C 0.85657 0.16146 0.25936 0.0
C6004 C 0.87252 0.16354 0.26329 0.0
H6005 H 0.83221 0.25921 0.26905 0.0
H6006 H 0.84516 0.23662 0.26851 0.0
C6007 C 0.87966 0.15015 0.26278 0.0
C6008 C 0.84867 0.176 0.25992 0.0
H6009 H 0.85017 0.21314 0.24786 0.0
C6010 C 0.83563 0.17607 0.268 0.0
C6011 C 0.85372 0.18985 0.25256 0.0
C6012 C 0.86696 0.19087 0.24286 0.0
C6013 C 0.82798 0.18916 0.26919 0.0
C6014 C 0.83294 0.20296 0.26172 0.0
C6015 C 0.84602 0.20292 0.25369 0.0
C6016 C 0.82476 0.21728 0.26201 0.0
C6017 C 0.81488 0.1882 0.27908 0.0
C6018 C 0.80874 0.21474 0.2583 0.0
C6019 C 0.80123 0.22781 0.25869 0.0
C6020 C 0.80927 0.24428 0.26263 0.0
C6021 C 0.82534 0.24691 0.26604 0.0
C6022 C 0.83287 0.23379 0.26568 0.0
H6023 H 0.81581 0.18033 0.28817 0.0
H6024 H 0.81436 0.20038 0.28522 0.0
H6025 H 0.80401 0.18279 0.27129 0.0
H6026 H 0.80187 0.2025 0.25482 0.0
H6027 H 0.78895 0.22489 0.25575 0.0
H6028 H 0.69594 0.11837 0.99605 0.0
H6029 H 0.66911 0.10444 0.9918 0.0
H6030 H 0.68143 0.05829 0.98302 0.0
H6031 H 0.70857 0.07222 0.98699 0.0
H6032 H 0.65031 0.08079 0.96568 0.0
H6033 H 0.65748 0.05764 0.02268 0.0
H6034 H 0.67171 0.07371 0.01749 0.0
H6035 H 0.66967 0.05316 0.0079 0.0
C6036 C 0.69302 0.10528 0.99282 0.0
C6037 C 0.70442 0.0964 0.99187 0.0
C6038 C 0.67765 0.09734 0.99042 0.0
C6039 C 0.67335 0.08038 0.98716 0.0
C6040 C 0.6846 0.07141 0.98563 0.0
H6041 H 0.57551 0.03317 0.97939 0.0
H6042 H 0.60156 0.03998 0.97239 0.0
C6043 C 0.70006 0.07937 0.988 0.0
C6044 C 0.65715 0.07236 0.98699 0.0
H6045 H 0.63258 0.05407 0.01051 0.0
C6046 C 0.64637 0.07465 0.97527 0.0
C6047 C 0.65216 0.06452 0.99965 0.0
C6048 C 0.66329 0.06213 0.01273 0.0
C6049 C 0.63065 0.06985 0.97626 0.0
C6050 C 0.62574 0.06264 0.9893 0.0
C6051 C 0.63649 0.05967 1.00057 0.0
C6052 C 0.60964 0.0594 0.99238 0.0
C6053 C 0.61943 0.07326 0.96389 0.0
C6054 C 0.60561 0.06818 0.00584 0.0
C6055 C 0.59078 0.06435 0.00986 0.0
C6056 C 0.57973 0.05162 1.0005 0.0
C6057 C 0.58371 0.04314 0.98674 0.0
C6058 C 0.59858 0.047 0.98272 0.0
H6059 H 0.6252 0.08076 0.95564 0.0
H6060 H 0.61269 0.06162 0.95683 0.0
H6061 H 0.61131 0.07961 0.96967 0.0
H6062 H 0.61406 0.0778 0.01343 0.0
H6063 H 0.5881 0.07115 0.02051 0.0
H6064 H 0.21135 0.48511 0.28247 0.0
H6065 H 0.22887 0.46794 0.28791 0.0
H6066 H 0.2056 0.43177 0.24812 0.0
H6067 H 0.18763 0.4486 0.24283 0.0
H6068 H 0.22006 0.43306 0.29281 0.0
H6069 H 0.25291 0.44424 0.24186 0.0
H6070 H 0.24167 0.45779 0.25011 0.0
H6071 H 0.23243 0.43897 0.23756 0.0
C6072 C 0.20978 0.47339 0.27501 0.0
C6073 C 0.19805 0.46818 0.26224 0.0
C6074 C 0.21987 0.46368 0.27808 0.0
C6075 C 0.21852 0.44873 0.26834 0.0
C6076 C 0.20684 0.4434 0.25564 0.0
H6077 H 0.25402 0.36542 0.27605 0.0
H6078 H 0.23867 0.38567 0.27589 0.0
C6079 C 0.19665 0.45305 0.25262 0.0
C6080 C 0.22935 0.43866 0.27144 0.0
H6081 H 0.25817 0.42393 0.25607 0.0
C6082 C 0.22848 0.43111 0.28487 0.0
C6083 C 0.2404 0.43644 0.26114 0.0
C6084 C 0.24207 0.44486 0.2469 0.0
C6085 C 0.23812 0.42084 0.288 0.0
C6086 C 0.24874 0.41806 0.27732 0.0
C6087 C 0.24996 0.42609 0.26419 0.0
C6088 C 0.2581 0.40614 0.27896 0.0
C6089 C 0.23681 0.41299 0.30262 0.0
C6090 C 0.27409 0.411 0.28064 0.0
C6091 C 0.28289 0.39944 0.2806 0.0
C6092 C 0.27578 0.38288 0.27867 0.0
C6093 C 0.25977 0.37811 0.27737 0.0
C6094 C 0.251 0.38965 0.27746 0.0
H6095 H 0.2314 0.41977 0.31169 0.0
H6096 H 0.22959 0.40049 0.29929 0.0
H6097 H 0.2482 0.41221 0.30798 0.0
H6098 H 0.27972 0.42369 0.28168 0.0
H6099 H 0.2952 0.4034 0.28152 0.0
H6100 H 0.21383 0.41915 0.04129 0.0
H6101 H 0.19206 0.43184 0.04005 0.0
H6102 H 0.21295 0.46151 0.00771 0.0
H6103 H 0.23489 0.44907 0.00904 0.0
H6104 H 0.1919 0.4647 0.0482 0.0
H6105 H 0.16977 0.44196 0.9848 0.0
H6106 H 0.18333 0.4334 0.99539 0.0
H6107 H 0.18961 0.45217 0.98827 0.0
C6108 C 0.21389 0.42845 0.03398 0.0
C6109 C 0.22621 0.43304 0.02527 0.0
C6110 C 0.20135 0.43563 0.03321 0.0
C6111 C 0.20073 0.44748 0.02361 0.0
C6112 C 0.21298 0.45214 0.01492 0.0
H6113 H 0.13712 0.50805 0.00594 0.0
H6114 H 0.15798 0.49394 0.00586 0.0
C6115 C 0.22555 0.44499 0.01571 0.0
C6116 C 0.18752 0.45535 0.02317 0.0
H6117 H 0.15848 0.46171 0.99845 0.0
C6118 C 0.18454 0.46397 0.03734 0.0
C6119 C 0.17794 0.45447 0.00899 0.0
C6120 C 0.18019 0.44489 0.99351 0.0
C6121 C 0.17248 0.47198 0.03767 0.0
C6122 C 0.16285 0.47106 0.02349 0.0
C6123 C 0.16582 0.46242 0.00932 0.0
C6124 C 0.14975 0.47913 0.02313 0.0
C6125 C 0.17044 0.48174 0.05314 0.0
C6126 C 0.13793 0.47528 0.03257 0.0
C6127 C 0.12597 0.48334 0.03264 0.0
C6128 C 0.12544 0.49533 0.02313 0.0
C6129 C 0.13706 0.49881 0.01332 0.0
C6130 C 0.14905 0.49078 0.0133 0.0
H6131 H 0.18104 0.48492 0.06163 0.0
H6132 H 0.1671 0.49312 0.05121 0.0
H6133 H 0.16128 0.47446 0.05871 0.0
H6134 H 0.13795 0.46603 0.03993 0.0
H6135 H 0.11708 0.48012 0.04012 0.0
H6136 H 0.84249 0.97033 0.25654 0.0
H6137 H 0.82977 0.94237 0.25807 0.0
H6138 H 0.87235 0.92798 0.25453 0.0
H6139 H 0.88523 0.95594 0.25345 0.0
H6140 H 0.82513 0.91399 0.23766 0.0
H6141 H 0.85934 0.9071 0.29171 0.0
H6142 H 0.86026 0.92655 0.28562 0.0
H6143 H 0.87064 0.91276 0.27631 0.0
C6144 C 0.8493 0.96136 0.2563 0.0
C6145 C 0.86511 0.96586 0.25492 0.0
C6146 C 0.8419 0.94515 0.25708 0.0
C6147 C 0.84996 0.9327 0.25672 0.0
C6148 C 0.8657 0.93712 0.25522 0.0
H6149 H 0.82055 0.82614 0.26043 0.0
H6150 H 0.83557 0.85359 0.25897 0.0
C6151 C 0.8731 0.9533 0.25437 0.0
C6152 C 0.84182 0.9152 0.25743 0.0
H6153 H 0.84214 0.88328 0.27768 0.0
C6154 C 0.82889 0.90739 0.24649 0.0
C6155 C 0.84655 0.90611 0.26878 0.0
C6156 C 0.85986 0.91357 0.28137 0.0
C6157 C 0.82086 0.89115 0.24643 0.0
C6158 C 0.8254 0.88213 0.25796 0.0
C6159 C 0.83845 0.88986 0.26879 0.0
C6160 C 0.81642 0.8651 0.25926 0.0
C6161 C 0.80775 0.88368 0.23359 0.0
C6162 C 0.8006 0.862 0.26035 0.0
C6163 C 0.79203 0.84632 0.26112 0.0
C6164 C 0.79885 0.83294 0.26108 0.0
C6165 C 0.81478 0.83599 0.26046 0.0
C6166 C 0.82341 0.85181 0.25962 0.0
H6167 H 0.80905 0.88956 0.22291 0.0
H6168 H 0.80681 0.87048 0.23 0.0
H6169 H 0.79695 0.88546 0.23805 0.0
H6170 H 0.79475 0.8718 0.26068 0.0
H6171 H 0.77988 0.8447 0.26174 0.0
H6172 H 0.72391 0.10787 0.79724 0.0
H6173 H 0.74245 0.13405 0.80556 0.0
H6174 H 0.72913 0.14901 0.76167 0.0
H6175 H 0.71055 0.12323 0.75341 0.0
H6176 H 0.76447 0.15211 0.7746 0.0
H6177 H 0.7281 0.1806 0.81402 0.0
H6178 H 0.72961 0.15986 0.81373 0.0
H6179 H 0.71882 0.16499 0.79753 0.0
C6180 C 0.72496 0.11679 0.78941 0.0
C6181 C 0.71587 0.11352 0.77464 0.0
C6182 C 0.73555 0.13163 0.79415 0.0
C6183 C 0.73708 0.14329 0.78416 0.0
C6184 C 0.72811 0.14002 0.76943 0.0
H6185 H 0.76671 0.22556 0.75119 0.0
H6186 H 0.76145 0.19873 0.75863 0.0
C6187 C 0.71758 0.12527 0.76471 0.0
C6188 C 0.7477 0.15923 0.7888 0.0
H6189 H 0.7467 0.1982 0.80288 0.0
C6190 C 0.76094 0.1622 0.78125 0.0
C6191 C 0.74315 0.17222 0.79769 0.0
C6192 C 0.72918 0.16938 0.80631 0.0
C6193 C 0.76888 0.17809 0.78098 0.0
C6194 C 0.76311 0.19114 0.78808 0.0
C6195 C 0.75095 0.18813 0.79723 0.0
C6196 C 0.76762 0.20744 0.78384 0.0
C6197 C 0.78279 0.18071 0.77224 0.0
C6198 C 0.77237 0.22126 0.79559 0.0
C6199 C 0.77521 0.23667 0.79136 0.0
C6200 C 0.77318 0.2385 0.77534 0.0
C6201 C 0.76846 0.2246 0.76363 0.0
C6202 C 0.76561 0.20923 0.76785 0.0
H6203 H 0.78904 0.17096 0.77314 0.0
H6204 H 0.77916 0.18025 0.75947 0.0
H6205 H 0.7907 0.19264 0.77692 0.0
H6206 H 0.77378 0.22012 0.80801 0.0
H6207 H 0.77904 0.24713 0.80062 0.0
loop_
_geom_bond_atom_site_label_1
_geom_bond_atom_site_label_2
_geom_bond_distance
_geom_bond_site_symmetry_2
_ccdc_geom_bond_type
Li0 N17 1.990 . S
Li0 O60 1.956 . S
Li0 O61 1.970 . S
Li0 O62 1.961 . S
Li1 N25 1.990 . S
Li1 O60 1.970 . S
Li1 O61 1.956 . S
Li1 O63 1.961 . S
Li2 N47 1.990 . S
Li2 O60 1.961 . S
Li2 O62 1.956 . S
Li2 O63 1.970 . S
Li3 N53 1.990 . S
Li3 O61 1.961 . S
Li3 O62 1.970 . S
Li3 O63 1.956 . S
C4 C6 1.348 . S
C4 C7 1.356 . S
C4 O60 1.325 . S
N5 C8 1.314 . S
N5 C9 1.279 . S
C6 C4 1.348 . S
C6 C8 1.353 . S
C6 H64 0.929 . S
C7 C4 1.356 . S
C7 C9 1.358 . S
C7 H65 0.930 . S
C8 N5 1.314 . S
C8 C6 1.353 . S
C8 H66 0.930 . S
C9 N5 1.279 . S
C9 C7 1.358 . S
C9 H67 0.930 . S
C10 C13 1.348 . S
C10 C14 1.356 . S
C10 O61 1.325 . S
C11 N12 1.279 . S
C11 C14 1.358 . S
C11 H68 0.930 . S
N12 C11 1.279 . S
N12 C15 1.314 . S
C13 C10 1.348 . S
C13 C15 1.353 . S
C13 H69 0.929 . S
C14 C10 1.356 . S
C14 C11 1.358 . S
C14 H70 0.930 . S
C15 N12 1.314 . S
C15 C13 1.353 . S
C15 H71 0.930 . S
C16 N17 1.314 . S
C16 C21 1.353 . S
C16 H22 0.930 . S
N17 Li0 1.990 . S
N17 C16 1.314 . S
N17 C19 1.279 . S
C18 C19 1.358 . S
C18 C20 1.356 . S
C18 H72 0.930 . S
C19 N17 1.279 . S
C19 C18 1.358 . S
C19 H23 0.930 . S
C20 C18 1.356 . S
C20 C21 1.348 . S
C21 C16 1.353 . S
C21 C20 1.348 . S
C21 H73 0.926 1_455 S
H22 C16 0.930 . S
H23 C19 0.930 . S
C24 N25 1.314 . S
C24 C26 1.353 . S
C24 H30 0.930 . S
N25 Li1 1.990 . S
N25 C24 1.314 . S
N25 C28 1.279 . S
C26 C24 1.353 . S
C26 C29 1.348 . S
C26 H74 0.929 . S
C27 C28 1.358 . S
C27 C29 1.356 . S
C27 H75 0.930 . S
C28 N25 1.279 . S
C28 C27 1.358 . S
C28 H31 0.930 . S
C29 C26 1.348 . S
C29 C27 1.356 . S
H30 C24 0.930 . S
H31 C28 0.930 . S
C32 C34 1.348 . S
C32 C35 1.356 . S
C32 O62 1.325 . S
N33 C36 1.314 . S
N33 C37 1.279 . S
C34 C32 1.348 . S
C34 C36 1.353 . S
C34 H76 0.929 . S
C35 C32 1.356 . S
C35 C37 1.358 . S
C35 H77 0.930 . S
C36 N33 1.314 . S
C36 C34 1.353 . S
C36 H78 0.930 . S
C37 N33 1.279 . S
C37 C35 1.358 . S
C37 H79 0.930 . S
C38 C39 1.348 . S
C38 C40 1.356 . S
C38 O63 1.325 . S
C39 C38 1.348 . S
C39 C41 1.353 . S
C39 H80 0.929 . S
C40 C38 1.356 . S
C40 C42 1.358 . S
C40 H81 0.930 . S
C41 C39 1.353 . S
C41 N43 1.314 . S
C41 H82 0.930 . S
C42 C40 1.358 . S
C42 N43 1.279 . S
C42 H83 0.930 . S
N43 C41 1.314 . S
N43 C42 1.279 . S
C44 C46 1.353 . S
C44 N47 1.314 . S
C44 H50 0.930 . S
C45 N47 1.279 . S
C45 C48 1.358 . S
C45 H51 0.930 . S
C46 C44 1.353 . S
C46 C49 1.348 . S
C46 H84 0.929 . S
N47 Li2 1.990 . S
N47 C44 1.314 . S
N47 C45 1.279 . S
C48 C45 1.358 . S
C48 C49 1.356 . S
C48 H85 0.930 . S
C49 C46 1.348 . S
C49 C48 1.356 . S
H50 C44 0.930 . S
H51 C45 0.930 . S
C52 N53 1.314 . S
C52 C54 1.353 . S
C52 H58 0.930 . S
N53 Li3 1.990 . S
N53 C52 1.314 . S
N53 C56 1.279 . S
C54 C52 1.353 . S
C54 C57 1.348 . S
C54 H86 0.929 . S
C55 C56 1.358 . S
C55 C57 1.356 . S
C55 H87 0.930 . S
C56 N53 1.279 . S
C56 C55 1.358 . S
C56 H59 0.930 . S
C57 C54 1.348 . S
C57 C55 1.356 . S
H58 C52 0.930 . S
H59 C56 0.930 . S
O60 Li0 1.956 . S
O60 Li1 1.970 . S
O60 Li2 1.961 . S
O60 C4 1.325 . S
O61 Li0 1.970 . S
O61 Li1 1.956 . S
O61 Li3 1.961 . S
O61 C10 1.325 . S
O62 Li0 1.961 . S
O62 Li2 1.956 . S
O62 Li3 1.970 . S
O62 C32 1.325 . S
O63 Li1 1.961 . S
O63 Li2 1.970 . S
O63 Li3 1.956 . S
O63 C38 1.325 . S
H64 C6 0.929 . S
H65 C7 0.930 . S
H66 C8 0.930 . S
H67 C9 0.930 . S
H68 C11 0.930 . S
H69 C13 0.929 . S
H70 C14 0.930 . S
H71 C15 0.930 . S
H72 C18 0.930 . S
H73 C21 0.926 1_655 S
H74 C26 0.929 . S
H75 C27 0.930 . S
H76 C34 0.929 . S
H77 C35 0.930 . S
H78 C36 0.930 . S
H79 C37 0.930 . S
H80 C39 0.929 . S
H81 C40 0.930 . S
H82 C41 0.930 . S
H83 C42 0.930 . S
H84 C46 0.929 . S
H85 C48 0.930 . S
H86 C54 0.929 . S
H87 C55 0.930 . S
Li88 N105 1.990 . S
Li88 O148 1.956 . S
Li88 O149 1.970 . S
Li88 O150 1.961 1_455 S
Li89 N113 1.990 . S
Li89 O148 1.970 . S
Li89 O149 1.956 . S
Li89 O151 1.934 1_455 S
Li90 N135 1.990 . S
Li90 O148 1.961 1_655 S
Li90 O150 1.956 . S
Li90 O151 1.971 . S
Li91 N141 1.990 . S
Li91 O149 1.961 1_655 S
Li91 O150 1.970 . S
Li91 O151 1.994 . S
C92 C94 1.348 . S
C92 C95 1.356 . S
C92 O148 1.325 . S
N93 C96 1.314 . S
N93 C97 1.279 . S
C94 C92 1.348 . S
C94 C96 1.353 . S
C94 H152 0.929 . S
C95 C92 1.356 . S
C95 C97 1.358 . S
C95 H153 0.930 . S
C96 N93 1.314 . S
C96 C94 1.353 . S
C96 H154 0.930 . S
C97 N93 1.279 . S
C97 C95 1.358 . S
C97 H155 0.930 . S
C98 C101 1.348 . S
C98 C102 1.356 . S
C98 O149 1.325 . S
C99 N100 1.279 . S
C99 C102 1.358 . S
C99 H156 0.930 . S
N100 C99 1.279 . S
N100 C103 1.314 . S
C101 C98 1.348 . S
C101 C103 1.353 . S
C101 H157 0.929 . S
C102 C98 1.356 . S
C102 C99 1.358 . S
C102 H158 0.931 . S
C103 N100 1.314 . S
C103 C101 1.353 . S
C103 H159 0.930 . S
C104 N105 1.314 1_655 S
C104 C109 1.353 . S
C104 H110 0.930 . S
N105 Li88 1.990 . S
N105 C104 1.314 1_455 S
N105 C107 1.279 . S
C106 C107 1.358 . S
C106 C108 1.356 . S
C106 H160 0.930 . S
C107 N105 1.279 . S
C107 C106 1.358 . S
C107 H111 0.930 . S
C108 C106 1.356 . S
C108 C109 1.348 1_455 S
C109 C104 1.353 . S
C109 C108 1.348 1_655 S
C109 H161 0.929 . S
H110 C104 0.930 . S
H111 C107 0.930 . S
C112 N113 1.314 . S
C112 C114 1.353 . S
C112 H118 0.930 . S
N113 Li89 1.990 . S
N113 C112 1.314 . S
N113 C116 1.279 . S
C114 C112 1.353 . S
C114 C117 1.348 . S
C114 H162 0.929 . S
C115 C116 1.358 . S
C115 C117 1.356 . S
C115 H163 0.930 . S
C116 N113 1.279 . S
C116 C115 1.358 . S
C116 H119 0.930 . S
C117 C114 1.348 . S
C117 C115 1.356 . S
H118 C112 0.930 . S
H119 C116 0.930 . S
C120 C122 1.348 . S
C120 C123 1.356 . S
C120 O150 1.325 . S
N121 C124 1.314 . S
N121 C125 1.279 . S
C122 C120 1.348 . S
C122 C124 1.353 . S
C122 H164 0.929 . S
C123 C120 1.356 . S
C123 C125 1.358 . S
C123 H165 0.930 . S
C124 N121 1.314 . S
C124 C122 1.353 . S
C124 H166 0.930 . S
C125 N121 1.279 . S
C125 C123 1.358 . S
C125 H167 0.930 . S
C126 C127 1.348 . S
C126 C128 1.356 1_655 S
C126 O151 1.324 . S
C127 C126 1.348 . S
C127 C129 1.353 . S
C127 H168 0.929 . S
C128 C126 1.356 1_455 S
C128 C130 1.357 . S
C128 H169 0.930 . S
C129 C127 1.353 . S
C129 N131 1.314 . S
C129 H170 0.930 . S
C130 C128 1.357 . S
C130 N131 1.274 1_455 S
C130 H171 0.943 . S
N131 C129 1.314 . S
N131 C130 1.274 1_655 S
C132 C134 1.353 . S
C132 N135 1.314 1_455 S
C132 H138 0.930 . S
C133 N135 1.279 . S
C133 C136 1.358 . S
C133 H139 0.930 . S
C134 C132 1.353 . S
C134 C137 1.348 1_455 S
C134 H172 0.929 . S
N135 Li90 1.990 . S
N135 C132 1.314 1_655 S
N135 C133 1.279 . S
C136 C133 1.358 . S
C136 C137 1.356 . S
C136 H173 0.930 . S
C137 C134 1.348 1_655 S
C137 C136 1.356 . S
H138 C132 0.930 . S
H139 C133 0.930 . S
C140 N141 1.314 . S
C140 C142 1.353 . S
C140 H146 0.930 . S
N141 Li91 1.990 . S
N141 C140 1.314 . S
N141 C144 1.279 . S
C142 C140 1.353 . S
C142 C145 1.348 . S
C142 H174 0.929 . S
C143 C144 1.358 . S
C143 C145 1.356 . S
C143 H175 0.930 . S
C144 N141 1.279 . S
C144 C143 1.358 . S
C144 H147 0.930 . S
C145 C142 1.348 . S
C145 C143 1.356 . S
H146 C140 0.930 . S
H147 C144 0.930 . S
O148 Li88 1.956 . S
O148 Li89 1.970 . S
O148 Li90 1.961 1_455 S
O148 C92 1.325 . S
O149 Li88 1.970 . S
O149 Li89 1.956 . S
O149 Li91 1.961 1_455 S
O149 C98 1.325 . S
O150 Li88 1.961 1_655 S
O150 Li90 1.956 . S
O150 Li91 1.970 . S
O150 C120 1.325 . S
O151 Li89 1.934 1_655 S
O151 Li90 1.971 . S
O151 Li91 1.994 . S
O151 C126 1.324 . S
H152 C94 0.929 . S
H153 C95 0.930 . S
H154 C96 0.930 . S
H155 C97 0.930 . S
H156 C99 0.930 . S
H157 C101 0.929 . S
H158 C102 0.931 . S
H159 C103 0.930 . S
H160 C106 0.930 . S
H161 C109 0.929 . S
H162 C114 0.929 . S
H163 C115 0.930 . S
H164 C122 0.929 . S
H165 C123 0.930 . S
H166 C124 0.930 . S
H167 C125 0.930 . S
H168 C127 0.929 . S
H169 C128 0.930 . S
H170 C129 0.930 . S
H171 C130 0.943 . S
H172 C134 0.929 . S
H173 C136 0.930 . S
H174 C142 0.929 . S
H175 C143 0.930 . S
Li176 N193 1.990 . S
Li176 O236 1.956 . S
Li176 O237 1.970 . S
Li176 O238 1.961 . S
Li177 N201 1.990 . S
Li177 O236 1.970 . S
Li177 O237 1.956 . S
Li177 O239 1.961 . S
Li178 N223 1.990 . S
Li178 O236 1.961 . S
Li178 O238 1.956 . S
Li178 O239 1.970 . S
Li179 N229 1.990 . S
Li179 O237 1.961 . S
Li179 O238 1.970 . S
Li179 O239 1.956 . S
C180 C182 1.348 . S
C180 C183 1.356 . S
C180 O236 1.325 . S
N181 C184 1.314 . S
N181 C185 1.279 . S
C182 C180 1.348 . S
C182 C184 1.353 . S
C182 H240 0.929 . S
C183 C180 1.356 . S
C183 C185 1.358 . S
C183 H241 0.930 . S
C184 N181 1.314 . S
C184 C182 1.353 . S
C184 H242 0.930 . S
C185 N181 1.279 . S
C185 C183 1.358 . S
C185 H243 0.930 . S
C186 C189 1.348 . S
C186 C190 1.356 . S
C186 O237 1.325 . S
C187 N188 1.279 . S
C187 C190 1.358 . S
C187 H244 0.930 . S
N188 C187 1.279 . S
N188 C191 1.314 . S
C189 C186 1.348 . S
C189 C191 1.353 . S
C189 H245 0.929 . S
C190 C186 1.356 . S
C190 C187 1.358 . S
C190 H246 0.930 . S
C191 N188 1.314 . S
C191 C189 1.353 . S
C191 H247 0.930 . S
C192 N193 1.314 . S
C192 C197 1.353 . S
C192 H198 0.930 . S
N193 Li176 1.990 . S
N193 C192 1.314 . S
N193 C195 1.279 . S
C194 C195 1.358 . S
C194 C196 1.356 . S
C194 H248 0.930 . S
C195 N193 1.279 . S
C195 C194 1.358 . S
C195 H199 0.930 . S
C196 C194 1.356 . S
C196 C197 1.348 . S
C197 C192 1.353 . S
C197 C196 1.348 . S
C197 H249 0.929 . S
H198 C192 0.930 . S
H199 C195 0.930 . S
C200 N201 1.314 . S
C200 C202 1.353 . S
C200 H206 0.930 . S
N201 Li177 1.990 . S
N201 C200 1.314 . S
N201 C204 1.279 . S
C202 C200 1.353 . S
C202 C205 1.348 . S
C202 H250 0.929 . S
C203 C204 1.358 . S
C203 C205 1.356 . S
C203 H251 0.930 . S
C204 N201 1.279 . S
C204 C203 1.358 . S
C204 H207 0.930 . S
C205 C202 1.348 . S
C205 C203 1.356 . S
H206 C200 0.930 . S
H207 C204 0.930 . S
C208 C210 1.348 . S
C208 C211 1.356 . S
C208 O238 1.325 . S
N209 C212 1.314 . S
N209 C213 1.279 . S
C210 C208 1.348 . S
C210 C212 1.353 . S
C210 H252 0.929 . S
C211 C208 1.356 . S
C211 C213 1.358 . S
C211 H253 0.930 . S
C212 N209 1.314 . S
C212 C210 1.353 . S
C212 H254 0.930 . S
C213 N209 1.279 . S
C213 C211 1.358 . S
C213 H255 0.930 . S
C214 C215 1.348 . S
C214 C216 1.356 . S
C214 O239 1.325 . S
C215 C214 1.348 . S
C215 C217 1.353 . S
C215 H256 0.929 . S
C216 C214 1.356 . S
C216 C218 1.358 . S
C216 H257 0.930 . S
C217 C215 1.353 . S
C217 N219 1.314 . S
C217 H258 0.930 . S
C218 C216 1.358 . S
C218 N219 1.279 . S
C218 H259 0.930 . S
N219 C217 1.314 . S
N219 C218 1.279 . S
C220 C222 1.353 . S
C220 N223 1.314 . S
C220 H226 0.930 . S
C221 N223 1.279 . S
C221 C224 1.358 . S
C221 H227 0.930 . S
C222 C220 1.353 . S
C222 C225 1.348 . S
C222 H260 0.929 . S
N223 Li178 1.990 . S
N223 C220 1.314 . S
N223 C221 1.279 . S
C224 C221 1.358 . S
C224 C225 1.356 . S
C224 H261 0.930 . S
C225 C222 1.348 . S
C225 C224 1.356 . S
H226 C220 0.930 . S
H227 C221 0.930 . S
C228 N229 1.314 . S
C228 C230 1.353 . S
C228 H234 0.930 . S
N229 Li179 1.990 . S
N229 C228 1.314 . S
N229 C232 1.279 . S
C230 C228 1.353 . S
C230 C233 1.348 . S
C230 H262 0.929 . S
C231 C232 1.358 . S
C231 C233 1.356 . S
C231 H263 0.930 . S
C232 N229 1.279 . S
C232 C231 1.358 . S
C232 H235 0.930 . S
C233 C230 1.348 . S
C233 C231 1.356 . S
H234 C228 0.930 . S
H235 C232 0.930 . S
O236 Li176 1.956 . S
O236 Li177 1.970 . S
O236 Li178 1.961 . S
O236 C180 1.325 . S
O237 Li176 1.970 . S
O237 Li177 1.956 . S
O237 Li179 1.961 . S
O237 C186 1.325 . S
O238 Li176 1.961 . S
O238 Li178 1.956 . S
O238 Li179 1.970 . S
O238 C208 1.325 . S
O239 Li177 1.961 . S
O239 Li178 1.970 . S
O239 Li179 1.956 . S
O239 C214 1.325 . S
H240 C182 0.929 . S
H241 C183 0.930 . S
H242 C184 0.930 . S
H243 C185 0.930 . S
H244 C187 0.930 . S
H245 C189 0.929 . S
H246 C190 0.930 . S
H247 C191 0.930 . S
H248 C194 0.930 . S
H249 C197 0.929 . S
H250 C202 0.929 . S
H251 C203 0.930 . S
H252 C210 0.929 . S
H253 C211 0.930 . S
H254 C212 0.930 . S
H255 C213 0.930 . S
H256 C215 0.929 . S
H257 C216 0.930 . S
H258 C217 0.930 . S
H259 C218 0.930 . S
H260 C222 0.929 . S
H261 C224 0.930 . S
H262 C230 0.929 . S
H263 C231 0.930 . S
Li264 N281 1.990 . S
Li264 O324 1.956 . S
Li264 O325 1.970 . S
Li264 O326 1.961 . S
Li265 N289 1.990 . S
Li265 O324 1.970 . S
Li265 O325 1.956 . S
Li265 O327 1.961 . S
Li266 N311 1.990 . S
Li266 O324 1.961 . S
Li266 O326 1.956 . S
Li266 O327 1.970 . S
Li267 N317 1.990 . S
Li267 O325 1.961 . S
Li267 O326 1.970 . S
Li267 O327 1.956 . S
C268 C270 1.348 . S
C268 C271 1.356 . S
C268 O324 1.325 . S
N269 C272 1.314 . S
N269 C273 1.279 . S
C270 C268 1.348 . S
C270 C272 1.353 . S
C270 H328 0.929 . S
C271 C268 1.356 . S
C271 C273 1.358 . S
C271 H329 0.930 . S
C272 N269 1.314 . S
C272 C270 1.353 . S
C272 H330 0.930 . S
C273 N269 1.279 . S
C273 C271 1.358 . S
C273 H331 0.930 . S
C274 C277 1.348 . S
C274 C278 1.356 . S
C274 O325 1.325 . S
C275 N276 1.279 . S
C275 C278 1.358 . S
C275 H332 0.930 . S
N276 C275 1.279 . S
N276 C279 1.314 . S
C277 C274 1.348 . S
C277 C279 1.353 . S
C277 H333 0.929 . S
C278 C274 1.356 . S
C278 C275 1.358 . S
C278 H334 0.930 . S
C279 N276 1.314 . S
C279 C277 1.353 . S
C279 H335 0.930 . S
C280 N281 1.314 . S
C280 C285 1.353 . S
C280 H286 0.930 . S
N281 Li264 1.990 . S
N281 C280 1.314 . S
N281 C283 1.279 . S
C282 C283 1.358 . S
C282 C284 1.356 . S
C282 H336 0.930 . S
C283 N281 1.279 . S
C283 C282 1.358 . S
C283 H287 0.930 . S
C284 C282 1.356 . S
C284 C285 1.348 . S
C285 C280 1.353 . S
C285 C284 1.348 . S
C285 H337 0.929 . S
H286 C280 0.930 . S
H287 C283 0.930 . S
C288 N289 1.314 . S
C288 C290 1.353 . S
C288 H294 0.930 . S
N289 Li265 1.990 . S
N289 C288 1.314 . S
N289 C292 1.279 . S
C290 C288 1.353 . S
C290 C293 1.348 . S
C290 H338 0.929 . S
C291 C292 1.358 . S
C291 C293 1.356 . S
C291 H339 0.930 . S
C292 N289 1.279 . S
C292 C291 1.358 . S
C292 H295 0.930 . S
C293 C290 1.348 . S
C293 C291 1.356 . S
H294 C288 0.930 . S
H295 C292 0.930 . S
C296 C298 1.348 . S
C296 C299 1.356 . S
C296 O326 1.325 . S
N297 C300 1.314 . S
N297 C301 1.279 . S
C298 C296 1.348 . S
C298 C300 1.353 . S
C298 H340 0.929 . S
C299 C296 1.356 . S
C299 C301 1.358 . S
C299 H341 0.930 . S
C300 N297 1.314 . S
C300 C298 1.353 . S
C300 H342 0.930 . S
C301 N297 1.279 . S
C301 C299 1.358 . S
C301 H343 0.930 . S
C302 C303 1.348 . S
C302 C304 1.356 . S
C302 O327 1.325 . S
C303 C302 1.348 . S
C303 C305 1.353 . S
C303 H344 0.929 . S
C304 C302 1.356 . S
C304 C306 1.358 . S
C304 H345 0.930 . S
C305 C303 1.353 . S
C305 N307 1.314 . S
C305 H346 0.930 . S
C306 C304 1.358 . S
C306 N307 1.279 . S
C306 H347 0.930 . S
N307 C305 1.314 . S
N307 C306 1.279 . S
C308 C310 1.353 . S
C308 N311 1.314 . S
C308 H314 0.930 . S
C309 N311 1.279 . S
C309 C312 1.358 . S
C309 H315 0.930 . S
C310 C308 1.353 . S
C310 C313 1.348 . S
C310 H348 0.929 . S
N311 Li266 1.990 . S
N311 C308 1.314 . S
N311 C309 1.279 . S
C312 C309 1.358 . S
C312 C313 1.356 . S
C312 H349 0.930 . S
C313 C310 1.348 . S
C313 C312 1.356 . S
H314 C308 0.930 . S
H315 C309 0.930 . S
C316 N317 1.314 . S
C316 C318 1.353 . S
C316 H322 0.930 . S
N317 Li267 1.990 . S
N317 C316 1.314 . S
N317 C320 1.279 . S
C318 C316 1.353 . S
C318 C321 1.348 . S
C318 H350 0.929 . S
C319 C320 1.358 . S
C319 C321 1.356 . S
C319 H351 0.930 . S
C320 N317 1.279 . S
C320 C319 1.358 . S
C320 H323 0.930 . S
C321 C318 1.348 . S
C321 C319 1.356 . S
H322 C316 0.930 . S
H323 C320 0.930 . S
O324 Li264 1.956 . S
O324 Li265 1.970 . S
O324 Li266 1.961 . S
O324 C268 1.325 . S
O325 Li264 1.970 . S
O325 Li265 1.956 . S
O325 Li267 1.961 . S
O325 C274 1.325 . S
O326 Li264 1.961 . S
O326 Li266 1.956 . S
O326 Li267 1.970 . S
O326 C296 1.325 . S
O327 Li265 1.961 . S
O327 Li266 1.970 . S
O327 Li267 1.956 . S
O327 C302 1.325 . S
H328 C270 0.929 . S
H329 C271 0.930 . S
H330 C272 0.930 . S
H331 C273 0.930 . S
H332 C275 0.930 . S
H333 C277 0.929 . S
H334 C278 0.930 . S
H335 C279 0.930 . S
H336 C282 0.930 . S
H337 C285 0.929 . S
H338 C290 0.929 . S
H339 C291 0.930 . S
H340 C298 0.929 . S
H341 C299 0.930 . S
H342 C300 0.930 . S
H343 C301 0.930 . S
H344 C303 0.929 . S
H345 C304 0.930 . S
H346 C305 0.930 . S
H347 C306 0.930 . S
H348 C310 0.929 . S
H349 C312 0.930 . S
H350 C318 0.929 . S
H351 C319 0.930 . S
Li352 N369 1.990 . S
Li352 O412 1.956 . S
Li352 O413 1.970 . S
Li352 O414 1.961 . S
Li353 N377 1.990 . S
Li353 O412 1.970 . S
Li353 O413 1.956 . S
Li353 O415 1.961 . S
Li354 N399 1.990 . S
Li354 O412 1.961 . S
Li354 O414 1.956 . S
Li354 O415 1.970 . S
Li355 N405 1.990 . S
Li355 O413 1.961 . S
Li355 O414 1.970 . S
Li355 O415 1.956 . S
C356 C358 1.348 . S
C356 C359 1.356 . S
C356 O412 1.325 . S
N357 C360 1.314 . S
N357 C361 1.279 . S
C358 C356 1.348 . S
C358 C360 1.353 . S
C358 H416 0.929 . S
C359 C356 1.356 . S
C359 C361 1.358 . S
C359 H417 0.930 . S
C360 N357 1.314 . S
C360 C358 1.353 . S
C360 H418 0.930 . S
C361 N357 1.279 . S
C361 C359 1.358 . S
C361 H419 0.930 . S
C362 C365 1.348 . S
C362 C366 1.356 . S
C362 O413 1.325 . S
C363 N364 1.279 . S
C363 C366 1.358 . S
C363 H420 0.930 . S
N364 C363 1.279 . S
N364 C367 1.314 . S
C365 C362 1.348 . S
C365 C367 1.353 . S
C365 H421 0.929 . S
C366 C362 1.356 . S
C366 C363 1.358 . S
C366 H422 0.930 . S
C367 N364 1.314 . S
C367 C365 1.353 . S
C367 H423 0.930 . S
C368 N369 1.314 . S
C368 C373 1.353 . S
C368 H374 0.930 . S
N369 Li352 1.990 . S
N369 C368 1.314 . S
N369 C371 1.279 . S
C370 C371 1.358 . S
C370 C372 1.356 . S
C370 H424 0.930 . S
C371 N369 1.279 . S
C371 C370 1.358 . S
C371 H375 0.930 . S
C372 C370 1.356 . S
C372 C373 1.348 . S
C373 C368 1.353 . S
C373 C372 1.348 . S
C373 H425 0.929 . S
H374 C368 0.930 . S
H375 C371 0.930 . S
C376 N377 1.314 . S
C376 C378 1.353 . S
C376 H382 0.930 . S
N377 Li353 1.990 . S
N377 C376 1.314 . S
N377 C380 1.279 . S
C378 C376 1.353 . S
C378 C381 1.348 . S
C378 H426 0.929 . S
C379 C380 1.358 . S
C379 C381 1.356 . S
C379 H427 0.930 . S
C380 N377 1.279 . S
C380 C379 1.358 . S
C380 H383 0.930 . S
C381 C378 1.348 . S
C381 C379 1.356 . S
H382 C376 0.930 . S
H383 C380 0.930 . S
C384 C386 1.348 . S
C384 C387 1.356 . S
C384 O414 1.325 . S
N385 C388 1.314 . S
N385 C389 1.279 1_655 S
C386 C384 1.348 . S
C386 C388 1.353 1_455 S
C386 H428 0.929 . S
C387 C384 1.356 . S
C387 C389 1.358 . S
C387 H429 0.930 . S
C388 N385 1.314 . S
C388 C386 1.353 1_655 S
C388 H430 0.930 . S
C389 N385 1.279 1_455 S
C389 C387 1.358 . S
C389 H431 0.930 . S
C390 C391 1.348 . S
C390 C392 1.356 . S
C390 O415 1.325 . S
C391 C390 1.348 . S
C391 C393 1.353 . S
C391 H432 0.929 . S
C392 C390 1.356 . S
C392 C394 1.358 . S
C392 H433 0.930 . S
C393 C391 1.353 . S
C393 N395 1.314 . S
C393 H434 0.930 . S
C394 C392 1.358 . S
C394 N395 1.279 . S
C394 H435 0.930 . S
N395 C393 1.314 . S
N395 C394 1.279 . S
C396 C398 1.353 . S
C396 N399 1.314 . S
C396 H402 0.930 . S
C397 N399 1.279 . S
C397 C400 1.358 . S
C397 H403 0.930 . S
C398 C396 1.353 . S
C398 C401 1.348 . S
C398 H436 0.929 . S
N399 Li354 1.990 . S
N399 C396 1.314 . S
N399 C397 1.279 . S
C400 C397 1.358 . S
C400 C401 1.356 . S
C400 H437 0.930 . S
C401 C398 1.348 . S
C401 C400 1.356 . S
H402 C396 0.930 . S
H403 C397 0.930 . S
C404 N405 1.314 . S
C404 C406 1.353 . S
C404 H410 0.930 . S
N405 Li355 1.990 . S
N405 C404 1.314 . S
N405 C408 1.279 . S
C406 C404 1.353 . S
C406 C409 1.348 1_455 S
C406 H438 0.929 1_455 S
C407 C408 1.358 . S
C407 C409 1.356 1_455 S
C407 H439 0.925 1_455 S
C408 N405 1.279 . S
C408 C407 1.358 . S
C408 H411 0.930 . S
C409 C406 1.348 1_655 S
C409 C407 1.356 1_655 S
H410 C404 0.930 . S
H411 C408 0.930 . S
O412 Li352 1.956 . S
O412 Li353 1.970 . S
O412 Li354 1.961 . S
O412 C356 1.325 . S
O413 Li352 1.970 . S
O413 Li353 1.956 . S
O413 Li355 1.961 . S
O413 C362 1.325 . S
O414 Li352 1.961 . S
O414 Li354 1.956 . S
O414 Li355 1.970 . S
O414 C384 1.325 . S
O415 Li353 1.961 . S
O415 Li354 1.970 . S
O415 Li355 1.956 . S
O415 C390 1.325 . S
H416 C358 0.929 . S
H417 C359 0.930 . S
H418 C360 0.930 . S
H419 C361 0.930 . S
H420 C363 0.930 . S
H421 C365 0.929 . S
H422 C366 0.930 . S
H423 C367 0.930 . S
H424 C370 0.930 . S
H425 C373 0.929 . S
H426 C378 0.929 . S
H427 C379 0.930 . S
H428 C386 0.929 . S
H429 C387 0.930 . S
H430 C388 0.930 . S
H431 C389 0.930 . S
H432 C391 0.929 . S
H433 C392 0.930 . S
H434 C393 0.930 . S
H435 C394 0.930 . S
H436 C398 0.929 . S
H437 C400 0.930 . S
H438 C406 0.929 1_655 S
H439 C407 0.925 1_655 S
Li440 N457 1.990 . S
Li440 O500 1.956 . S
Li440 O501 1.970 . S
Li440 O502 1.961 . S
Li441 N465 1.990 . S
Li441 O500 1.970 . S
Li441 O501 1.956 . S
Li441 O503 1.961 . S
Li442 N487 1.990 . S
Li442 O500 1.961 . S
Li442 O502 1.956 . S
Li442 O503 1.970 . S
Li443 N493 1.990 . S
Li443 O501 1.961 . S
Li443 O502 1.970 . S
Li443 O503 1.956 . S
C444 C446 1.348 . S
C444 C447 1.356 . S
C444 O500 1.325 . S
N445 C448 1.314 . S
N445 C449 1.279 . S
C446 C444 1.348 . S
C446 C448 1.353 . S
C446 H504 0.929 . S
C447 C444 1.356 . S
C447 C449 1.358 . S
C447 H505 0.930 . S
C448 N445 1.314 . S
C448 C446 1.353 . S
C448 H506 0.930 . S
C449 N445 1.279 . S
C449 C447 1.358 . S
C449 H507 0.930 . S
C450 C453 1.348 . S
C450 C454 1.356 . S
C450 O501 1.325 . S
C451 N452 1.279 . S
C451 C454 1.358 . S
C451 H508 0.930 . S
N452 C451 1.279 . S
N452 C455 1.314 . S
C453 C450 1.348 . S
C453 C455 1.353 . S
C453 H509 0.929 . S
C454 C450 1.356 . S
C454 C451 1.358 . S
C454 H510 0.930 . S
C455 N452 1.314 . S
C455 C453 1.353 . S
C455 H511 0.930 . S
C456 N457 1.314 . S
C456 C461 1.353 . S
C456 H462 0.930 . S
N457 Li440 1.990 . S
N457 C456 1.314 . S
N457 C459 1.279 . S
C458 C459 1.358 . S
C458 C460 1.356 . S
C458 H512 0.930 . S
C459 N457 1.279 . S
C459 C458 1.358 . S
C459 H463 0.930 . S
C460 C458 1.356 . S
C460 C461 1.348 . S
C461 C456 1.353 . S
C461 C460 1.348 . S
C461 H513 0.929 . S
H462 C456 0.930 . S
H463 C459 0.930 . S
C464 N465 1.314 . S
C464 C466 1.353 . S
C464 H470 0.930 . S
N465 Li441 1.990 . S
N465 C464 1.314 . S
N465 C468 1.279 . S
C466 C464 1.353 . S
C466 C469 1.348 . S
C466 H514 0.929 . S
C467 C468 1.358 . S
C467 C469 1.356 . S
C467 H515 0.930 . S
C468 N465 1.279 . S
C468 C467 1.358 . S
C468 H471 0.930 . S
C469 C466 1.348 . S
C469 C467 1.356 . S
H470 C464 0.930 . S
H471 C468 0.930 . S
C472 C474 1.348 . S
C472 C475 1.356 . S
C472 O502 1.325 . S
N473 C476 1.314 . S
N473 C477 1.279 . S
C474 C472 1.348 . S
C474 C476 1.353 . S
C474 H516 0.929 . S
C475 C472 1.356 . S
C475 C477 1.358 . S
C475 H517 0.930 . S
C476 N473 1.314 . S
C476 C474 1.353 . S
C476 H518 0.930 . S
C477 N473 1.279 . S
C477 C475 1.358 . S
C477 H519 0.930 . S
C478 C479 1.348 . S
C478 C480 1.356 . S
C478 O503 1.325 . S
C479 C478 1.348 . S
C479 C481 1.353 . S
C479 H520 0.929 . S
C480 C478 1.356 . S
C480 C482 1.358 . S
C480 H521 0.930 . S
C481 C479 1.353 . S
C481 N483 1.314 . S
C481 H522 0.930 . S
C482 C480 1.358 . S
C482 N483 1.279 . S
C482 H523 0.930 . S
N483 C481 1.314 . S
N483 C482 1.279 . S
C484 C486 1.353 . S
C484 N487 1.314 . S
C484 H490 0.930 . S
C485 N487 1.279 . S
C485 C488 1.358 . S
C485 H491 0.930 . S
C486 C484 1.353 . S
C486 C489 1.348 . S
C486 H524 0.929 . S
N487 Li442 1.990 . S
N487 C484 1.314 . S
N487 C485 1.279 . S
C488 C485 1.358 . S
C488 C489 1.356 . S
C488 H525 0.930 . S
C489 C486 1.348 . S
C489 C488 1.356 . S
H490 C484 0.930 . S
H491 C485 0.930 . S
C492 N493 1.314 . S
C492 C494 1.353 . S
C492 H498 0.930 . S
N493 Li443 1.990 . S
N493 C492 1.314 . S
N493 C496 1.279 . S
C494 C492 1.353 . S
C494 C497 1.348 . S
C494 H526 0.929 . S
C495 C496 1.358 . S
C495 C497 1.356 . S
C495 H527 0.930 . S
C496 N493 1.279 . S
C496 C495 1.358 . S
C496 H499 0.930 . S
C497 C494 1.348 . S
C497 C495 1.356 . S
H498 C492 0.930 . S
H499 C496 0.930 . S
O500 Li440 1.956 . S
O500 Li441 1.970 . S
O500 Li442 1.961 . S
O500 C444 1.325 . S
O501 Li440 1.970 . S
O501 Li441 1.956 . S
O501 Li443 1.961 . S
O501 C450 1.325 . S
O502 Li440 1.961 . S
O502 Li442 1.956 . S
O502 Li443 1.970 . S
O502 C472 1.325 . S
O503 Li441 1.961 . S
O503 Li442 1.970 . S
O503 Li443 1.956 . S
O503 C478 1.325 . S
H504 C446 0.929 . S
H505 C447 0.930 . S
H506 C448 0.930 . S
H507 C449 0.930 . S
H508 C451 0.930 . S
H509 C453 0.929 . S
H510 C454 0.930 . S
H511 C455 0.930 . S
H512 C458 0.930 . S
H513 C461 0.929 . S
H514 C466 0.929 . S
H515 C467 0.930 . S
H516 C474 0.929 . S
H517 C475 0.930 . S
H518 C476 0.930 . S
H519 C477 0.930 . S
H520 C479 0.929 . S
H521 C480 0.930 . S
H522 C481 0.930 . S
H523 C482 0.930 . S
H524 C486 0.929 . S
H525 C488 0.930 . S
H526 C494 0.929 . S
H527 C495 0.930 . S
Li528 N545 1.990 . S
Li528 O588 1.956 . S
Li528 O589 1.970 . S
Li528 O590 1.961 . S
Li529 N553 1.990 . S
Li529 O588 1.970 . S
Li529 O589 1.956 . S
Li529 O591 1.961 . S
Li530 N575 1.990 . S
Li530 O588 1.961 . S
Li530 O590 1.956 . S
Li530 O591 1.970 . S
Li531 N581 1.990 . S
Li531 O589 1.961 . S
Li531 O590 1.970 . S
Li531 O591 1.956 . S
C532 C534 1.348 . S
C532 C535 1.356 . S
C532 O588 1.325 . S
N533 C536 1.314 . S
N533 C537 1.279 . S
C534 C532 1.348 . S
C534 C536 1.353 . S
C534 H592 0.929 . S
C535 C532 1.356 . S
C535 C537 1.358 . S
C535 H593 0.930 . S
C536 N533 1.314 . S
C536 C534 1.353 . S
C536 H594 0.930 . S
C537 N533 1.279 . S
C537 C535 1.358 . S
C537 H595 0.930 . S
C538 C541 1.348 . S
C538 C542 1.356 . S
C538 O589 1.325 . S
C539 N540 1.279 . S
C539 C542 1.358 . S
C539 H596 0.930 . S
N540 C539 1.279 . S
N540 C543 1.314 . S
C541 C538 1.348 . S
C541 C543 1.353 . S
C541 H597 0.929 . S
C542 C538 1.356 . S
C542 C539 1.358 . S
C542 H598 0.930 . S
C543 N540 1.314 . S
C543 C541 1.353 . S
C543 H599 0.930 . S
C544 N545 1.314 . S
C544 C549 1.353 . S
C544 H550 0.930 . S
N545 Li528 1.990 . S
N545 C544 1.314 . S
N545 C547 1.279 . S
C546 C547 1.358 . S
C546 C548 1.356 . S
C546 H600 0.930 . S
C547 N545 1.279 . S
C547 C546 1.358 . S
C547 H551 0.930 . S
C548 C546 1.356 . S
C548 C549 1.348 . S
C549 C544 1.353 . S
C549 C548 1.348 . S
C549 H601 0.929 . S
H550 C544 0.930 . S
H551 C547 0.930 . S
C552 N553 1.314 . S
C552 C554 1.353 . S
C552 H558 0.930 . S
N553 Li529 1.990 . S
N553 C552 1.314 . S
N553 C556 1.279 . S
C554 C552 1.353 . S
C554 C557 1.348 . S
C554 H602 0.929 . S
C555 C556 1.358 . S
C555 C557 1.356 . S
C555 H603 0.930 . S
C556 N553 1.279 . S
C556 C555 1.358 . S
C556 H559 0.930 . S
C557 C554 1.348 . S
C557 C555 1.356 . S
H558 C552 0.930 . S
H559 C556 0.930 . S
C560 C562 1.348 . S
C560 C563 1.356 . S
C560 O590 1.325 . S
N561 C564 1.314 . S
N561 C565 1.279 . S
C562 C560 1.348 . S
C562 C564 1.353 . S
C562 H604 0.929 . S
C563 C560 1.356 . S
C563 C565 1.358 . S
C563 H605 0.930 . S
C564 N561 1.314 . S
C564 C562 1.353 . S
C564 H606 0.930 . S
C565 N561 1.279 . S
C565 C563 1.358 . S
C565 H607 0.930 . S
C566 C567 1.348 . S
C566 C568 1.356 . S
C566 O591 1.325 . S
C567 C566 1.348 . S
C567 C569 1.353 . S
C567 H608 0.929 . S
C568 C566 1.356 . S
C568 C570 1.358 . S
C568 H609 0.930 . S
C569 C567 1.353 . S
C569 N571 1.314 . S
C569 H610 0.930 . S
C570 C568 1.358 . S
C570 N571 1.279 . S
C570 H611 0.930 . S
N571 C569 1.314 . S
N571 C570 1.279 . S
C572 C574 1.353 . S
C572 N575 1.314 . S
C572 H578 0.930 . S
C573 N575 1.279 . S
C573 C576 1.358 . S
C573 H579 0.930 . S
C574 C572 1.353 . S
C574 C577 1.348 . S
C574 H612 0.929 . S
N575 Li530 1.990 . S
N575 C572 1.314 . S
N575 C573 1.279 . S
C576 C573 1.358 . S
C576 C577 1.356 . S
C576 H613 0.930 . S
C577 C574 1.348 . S
C577 C576 1.356 . S
H578 C572 0.930 . S
H579 C573 0.930 . S
C580 N581 1.314 . S
C580 C582 1.353 . S
C580 H586 0.930 . S
N581 Li531 1.990 . S
N581 C580 1.314 . S
N581 C584 1.279 . S
C582 C580 1.353 . S
C582 C585 1.348 . S
C582 H614 0.929 . S
C583 C584 1.358 . S
C583 C585 1.356 . S
C583 H615 0.930 . S
C584 N581 1.279 . S
C584 C583 1.358 . S
C584 H587 0.930 . S
C585 C582 1.348 . S
C585 C583 1.356 . S
H586 C580 0.930 . S
H587 C584 0.930 . S
O588 Li528 1.956 . S
O588 Li529 1.970 . S
O588 Li530 1.961 . S
O588 C532 1.325 . S
O589 Li528 1.970 . S
O589 Li529 1.956 . S
O589 Li531 1.961 . S
O589 C538 1.325 . S
O590 Li528 1.961 . S
O590 Li530 1.956 . S
O590 Li531 1.970 . S
O590 C560 1.325 . S
O591 Li529 1.961 . S
O591 Li530 1.970 . S
O591 Li531 1.956 . S
O591 C566 1.325 . S
H592 C534 0.929 . S
H593 C535 0.930 . S
H594 C536 0.930 . S
H595 C537 0.930 . S
H596 C539 0.930 . S
H597 C541 0.929 . S
H598 C542 0.930 . S
H599 C543 0.930 . S
H600 C546 0.930 . S
H601 C549 0.929 . S
H602 C554 0.929 . S
H603 C555 0.930 . S
H604 C562 0.929 . S
H605 C563 0.930 . S
H606 C564 0.930 . S
H607 C565 0.930 . S
H608 C567 0.929 . S
H609 C568 0.930 . S
H610 C569 0.930 . S
H611 C570 0.930 . S
H612 C574 0.929 . S
H613 C576 0.930 . S
H614 C582 0.929 . S
H615 C583 0.930 . S
Li616 N633 1.990 . S
Li616 O676 1.956 1_455 S
Li616 O677 1.970 . S
Li616 O678 1.961 . S
Li617 N641 1.990 . S
Li617 O676 1.970 . S
Li617 O677 1.956 1_655 S
Li617 O679 1.961 1_655 S
Li618 N663 1.990 . S
Li618 O676 1.961 1_455 S
Li618 O678 1.956 . S
Li618 O679 1.970 . S
Li619 N669 1.990 . S
Li619 O677 1.961 . S
Li619 O678 1.970 . S
Li619 O679 1.956 . S
C620 C622 1.348 . S
C620 C623 1.356 . S
C620 O676 1.325 . S
N621 C624 1.314 . S
N621 C625 1.279 . S
C622 C620 1.348 . S
C622 C624 1.353 . S
C622 H680 0.929 . S
C623 C620 1.356 . S
C623 C625 1.358 . S
C623 H681 0.930 . S
C624 N621 1.314 . S
C624 C622 1.353 . S
C624 H682 0.930 . S
C625 N621 1.279 . S
C625 C623 1.358 . S
C625 H683 0.930 . S
C626 C629 1.348 . S
C626 C630 1.356 . S
C626 O677 1.325 . S
C627 N628 1.279 . S
C627 C630 1.358 . S
C627 H684 0.930 . S
N628 C627 1.279 . S
N628 C631 1.314 . S
C629 C626 1.348 . S
C629 C631 1.353 . S
C629 H685 0.929 . S
C630 C626 1.356 . S
C630 C627 1.358 . S
C630 H686 0.930 . S
C631 N628 1.314 . S
C631 C629 1.353 . S
C631 H687 0.930 . S
C632 N633 1.314 . S
C632 C637 1.353 . S
C632 H638 0.930 . S
N633 Li616 1.990 . S
N633 C632 1.314 . S
N633 C635 1.279 . S
C634 C635 1.358 . S
C634 C636 1.356 . S
C634 H688 0.928 1_455 S
C635 N633 1.279 . S
C635 C634 1.358 . S
C635 H639 0.930 1_455 S
C636 C634 1.356 . S
C636 C637 1.348 . S
C637 C632 1.353 . S
C637 C636 1.348 . S
C637 H689 0.929 . S
H638 C632 0.930 . S
H639 C635 0.930 1_655 S
C640 N641 1.314 . S
C640 C642 1.353 . S
C640 H646 0.930 . S
N641 Li617 1.990 . S
N641 C640 1.314 . S
N641 C644 1.279 . S
C642 C640 1.353 . S
C642 C645 1.348 . S
C642 H690 0.929 . S
C643 C644 1.358 . S
C643 C645 1.356 . S
C643 H691 0.930 . S
C644 N641 1.279 . S
C644 C643 1.358 . S
C644 H647 0.930 . S
C645 C642 1.348 . S
C645 C643 1.356 . S
H646 C640 0.930 . S
H647 C644 0.930 . S
C648 C650 1.348 . S
C648 C651 1.356 . S
C648 O678 1.325 . S
N649 C652 1.314 . S
N649 C653 1.279 . S
C650 C648 1.348 . S
C650 C652 1.353 . S
C650 H692 0.929 . S
C651 C648 1.356 . S
C651 C653 1.358 . S
C651 H693 0.930 . S
C652 N649 1.314 . S
C652 C650 1.353 . S
C652 H694 0.930 . S
C653 N649 1.279 . S
C653 C651 1.358 . S
C653 H695 0.930 . S
C654 C655 1.348 . S
C654 C656 1.356 . S
C654 O679 1.325 . S
C655 C654 1.348 . S
C655 C657 1.353 . S
C655 H696 0.929 . S
C656 C654 1.356 . S
C656 C658 1.358 . S
C656 H697 0.930 . S
C657 C655 1.353 . S
C657 N659 1.314 . S
C657 H698 0.930 . S
C658 C656 1.358 . S
C658 N659 1.279 . S
C658 H699 0.930 1_455 S
N659 C657 1.314 . S
N659 C658 1.279 . S
C660 C662 1.353 . S
C660 N663 1.314 1_655 S
C660 H666 0.930 . S
C661 N663 1.279 . S
C661 C664 1.358 . S
C661 H667 0.930 . S
C662 C660 1.353 . S
C662 C665 1.348 1_655 S
C662 H700 0.929 . S
N663 Li618 1.990 . S
N663 C660 1.314 1_455 S
N663 C661 1.279 . S
C664 C661 1.358 . S
C664 C665 1.356 . S
C664 H701 0.930 . S
C665 C662 1.348 1_455 S
C665 C664 1.356 . S
H666 C660 0.930 . S
H667 C661 0.930 . S
C668 N669 1.314 . S
C668 C670 1.353 . S
C668 H674 0.930 . S
N669 Li619 1.990 . S
N669 C668 1.314 . S
N669 C672 1.279 . S
C670 C668 1.353 . S
C670 C673 1.348 . S
C670 H702 0.929 . S
C671 C672 1.358 . S
C671 C673 1.356 . S
C671 H703 0.930 . S
C672 N669 1.279 . S
C672 C671 1.358 . S
C672 H675 0.930 . S
C673 C670 1.348 . S
C673 C671 1.356 . S
H674 C668 0.930 . S
H675 C672 0.930 . S
O676 Li616 1.956 1_655 S
O676 Li617 1.970 . S
O676 Li618 1.961 1_655 S
O676 C620 1.325 . S
O677 Li616 1.970 . S
O677 Li617 1.956 1_455 S
O677 Li619 1.961 . S
O677 C626 1.325 . S
O678 Li616 1.961 . S
O678 Li618 1.956 . S
O678 Li619 1.970 . S
O678 C648 1.325 . S
O679 Li617 1.961 1_455 S
O679 Li618 1.970 . S
O679 Li619 1.956 . S
O679 C654 1.325 . S
H680 C622 0.929 . S
H681 C623 0.930 . S
H682 C624 0.930 . S
H683 C625 0.930 . S
H684 C627 0.930 . S
H685 C629 0.929 . S
H686 C630 0.930 . S
H687 C631 0.930 . S
H688 C634 0.928 1_655 S
H689 C637 0.929 . S
H690 C642 0.929 . S
H691 C643 0.930 . S
H692 C650 0.929 . S
H693 C651 0.930 . S
H694 C652 0.930 . S
H695 C653 0.930 . S
H696 C655 0.929 . S
H697 C656 0.930 . S
H698 C657 0.930 . S
H699 C658 0.930 1_655 S
H700 C662 0.929 . S
H701 C664 0.930 . S
H702 C670 0.929 . S
H703 C671 0.930 . S
Li704 N721 1.990 . S
Li704 O764 1.956 1_545 S
Li704 O765 1.970 . S
Li704 O766 1.961 . S
Li705 N729 1.990 . S
Li705 O764 1.970 . S
Li705 O765 1.956 1_565 S
Li705 O767 1.961 1_565 S
Li706 N751 1.990 . S
Li706 O764 1.961 1_545 S
Li706 O766 1.956 . S
Li706 O767 1.970 . S
Li707 N757 1.990 . S
Li707 O765 1.961 . S
Li707 O766 1.970 . S
Li707 O767 1.956 . S
C708 C710 1.348 . S
C708 C711 1.356 . S
C708 O764 1.325 . S
N709 C712 1.314 . S
N709 C713 1.279 . S
C710 C708 1.348 . S
C710 C712 1.353 . S
C710 H768 0.929 . S
C711 C708 1.356 . S
C711 C713 1.358 . S
C711 H769 0.987 . S
C712 N709 1.314 . S
C712 C710 1.353 . S
C712 H770 0.930 . S
C713 N709 1.279 . S
C713 C711 1.358 . S
C713 H771 0.930 . S
C714 C717 1.348 . S
C714 C718 1.356 . S
C714 O765 1.325 . S
C715 N716 1.279 . S
C715 C718 1.358 . S
C715 H772 0.930 . S
N716 C715 1.279 . S
N716 C719 1.314 . S
C717 C714 1.348 . S
C717 C719 1.353 . S
C717 H773 0.929 . S
C718 C714 1.356 . S
C718 C715 1.358 . S
C718 H774 0.930 . S
C719 N716 1.314 . S
C719 C717 1.353 . S
C719 H775 0.930 . S
C720 N721 1.314 . S
C720 C725 1.353 . S
C720 H726 0.930 . S
N721 Li704 1.990 . S
N721 C720 1.314 . S
N721 C723 1.279 . S
C722 C723 1.358 . S
C722 C724 1.356 . S
C722 H776 0.930 . S
C723 N721 1.279 . S
C723 C722 1.358 . S
C723 H727 0.930 1_545 S
C724 C722 1.356 . S
C724 C725 1.348 . S
C725 C720 1.353 . S
C725 C724 1.348 . S
C725 H777 0.929 . S
H726 C720 0.930 . S
H727 C723 0.930 1_565 S
C728 N729 1.314 . S
C728 C730 1.353 . S
C728 H734 0.930 . S
N729 Li705 1.990 . S
N729 C728 1.314 . S
N729 C732 1.279 . S
C730 C728 1.353 . S
C730 C733 1.348 . S
C730 H778 0.929 . S
C731 C732 1.358 . S
C731 C733 1.356 . S
C731 H779 0.930 . S
C732 N729 1.279 . S
C732 C731 1.358 . S
C732 H735 0.930 . S
C733 C730 1.348 . S
C733 C731 1.356 . S
H734 C728 0.930 . S
H735 C732 0.930 . S
C736 C738 1.348 . S
C736 C739 1.356 . S
C736 O766 1.325 . S
N737 C740 1.314 . S
N737 C741 1.279 . S
C738 C736 1.348 . S
C738 C740 1.353 . S
C738 H780 0.929 . S
C739 C736 1.356 . S
C739 C741 1.358 . S
C739 H781 0.930 . S
C740 N737 1.314 . S
C740 C738 1.353 . S
C740 H782 0.930 . S
C741 N737 1.279 . S
C741 C739 1.358 . S
C741 H783 0.930 . S
C742 C743 1.348 . S
C742 C744 1.356 . S
C742 O767 1.325 . S
C743 C742 1.348 . S
C743 C745 1.353 . S
C743 H784 0.929 . S
C744 C742 1.356 . S
C744 C746 1.359 1_545 S
C744 H785 0.927 1_545 S
C745 C743 1.353 . S
C745 N747 1.314 . S
C745 H786 0.930 . S
C746 C744 1.359 1_565 S
C746 N747 1.278 1_565 S
C746 H787 0.931 . S
N747 C745 1.314 . S
N747 C746 1.278 1_545 S
C748 C750 1.354 . S
C748 N751 1.314 . S
C748 H754 0.930 1_545 S
C749 N751 1.279 . S
C749 C752 1.358 . S
C749 H755 0.930 . S
C750 C748 1.354 . S
C750 C753 1.363 . S
C750 H788 0.913 1_545 S
N751 Li706 1.990 . S
N751 C748 1.314 . S
N751 C749 1.279 . S
C752 C749 1.358 . S
C752 C753 1.356 . S
C752 H789 0.930 . S
C753 C750 1.363 . S
C753 C752 1.356 . S
H754 C748 0.930 1_565 S
H755 C749 0.930 . S
C756 N757 1.314 . S
C756 C758 1.353 . S
C756 H762 0.930 . S
N757 Li707 1.990 . S
N757 C756 1.314 . S
N757 C760 1.279 . S
C758 C756 1.353 . S
C758 C761 1.348 . S
C758 H790 0.929 . S
C759 C760 1.358 . S
C759 C761 1.356 . S
C759 H791 0.930 . S
C760 N757 1.279 . S
C760 C759 1.358 . S
C760 H763 0.930 . S
C761 C758 1.348 . S
C761 C759 1.356 . S
H762 C756 0.930 . S
H763 C760 0.930 . S
O764 Li704 1.956 1_565 S
O764 Li705 1.970 . S
O764 Li706 1.961 1_565 S
O764 C708 1.325 . S
O765 Li704 1.970 . S
O765 Li705 1.956 1_545 S
O765 Li707 1.961 . S
O765 C714 1.325 . S
O766 Li704 1.961 . S
O766 Li706 1.956 . S
O766 Li707 1.970 . S
O766 C736 1.325 . S
O767 Li705 1.961 1_545 S
O767 Li706 1.970 . S
O767 Li707 1.956 . S
O767 C742 1.325 . S
H768 C710 0.929 . S
H769 C711 0.987 . S
H770 C712 0.930 . S
H771 C713 0.930 . S
H772 C715 0.930 . S
H773 C717 0.929 . S
H774 C718 0.930 . S
H775 C719 0.930 . S
H776 C722 0.930 . S
H777 C725 0.929 . S
H778 C730 0.929 . S
H779 C731 0.930 . S
H780 C738 0.929 . S
H781 C739 0.930 . S
H782 C740 0.930 . S
H783 C741 0.930 . S
H784 C743 0.929 . S
H785 C744 0.927 1_565 S
H786 C745 0.930 . S
H787 C746 0.931 . S
H788 C750 0.913 1_565 S
H789 C752 0.930 . S
H790 C758 0.929 . S
H791 C759 0.930 . S
Li792 N809 1.990 . S
Li792 O852 1.956 . S
Li792 O853 1.970 . S
Li792 O854 1.961 . S
Li793 N817 1.990 . S
Li793 O852 1.970 . S
Li793 O853 1.956 . S
Li793 O855 1.961 . S
Li794 N839 1.990 . S
Li794 O852 1.961 . S
Li794 O854 1.956 . S
Li794 O855 1.970 . S
Li795 N845 1.990 . S
Li795 O853 1.961 . S
Li795 O854 1.970 . S
Li795 O855 1.956 . S
C796 C798 1.348 . S
C796 C799 1.356 . S
C796 O852 1.325 . S
N797 C800 1.314 . S
N797 C801 1.279 . S
C798 C796 1.348 . S
C798 C800 1.353 . S
C798 H856 0.929 . S
C799 C796 1.356 . S
C799 C801 1.358 . S
C799 H857 0.930 . S
C800 N797 1.314 . S
C800 C798 1.353 . S
C800 H858 0.930 . S
C801 N797 1.279 . S
C801 C799 1.358 . S
C801 H859 0.930 . S
C802 C805 1.348 . S
C802 C806 1.356 . S
C802 O853 1.325 . S
C803 N804 1.279 . S
C803 C806 1.358 . S
C803 H860 0.930 . S
N804 C803 1.279 . S
N804 C807 1.314 . S
C805 C802 1.348 . S
C805 C807 1.353 . S
C805 H861 0.929 . S
C806 C802 1.356 . S
C806 C803 1.358 . S
C806 H862 0.930 . S
C807 N804 1.314 . S
C807 C805 1.353 . S
C807 H863 0.930 . S
C808 N809 1.314 . S
C808 C813 1.353 . S
C808 H814 0.930 . S
N809 Li792 1.990 . S
N809 C808 1.314 . S
N809 C811 1.279 . S
C810 C811 1.358 . S
C810 C812 1.356 . S
C810 H864 0.930 . S
C811 N809 1.279 . S
C811 C810 1.358 . S
C811 H815 0.930 . S
C812 C810 1.356 . S
C812 C813 1.348 . S
C813 C808 1.353 . S
C813 C812 1.348 . S
C813 H865 0.929 . S
H814 C808 0.930 . S
H815 C811 0.930 . S
C816 N817 1.314 . S
C816 C818 1.353 . S
C816 H822 0.930 . S
N817 Li793 1.990 . S
N817 C816 1.314 . S
N817 C820 1.279 . S
C818 C816 1.353 . S
C818 C821 1.348 . S
C818 H866 0.929 . S
C819 C820 1.358 . S
C819 C821 1.356 . S
C819 H867 0.930 . S
C820 N817 1.279 . S
C820 C819 1.358 . S
C820 H823 0.930 . S
C821 C818 1.348 . S
C821 C819 1.356 . S
H822 C816 0.930 . S
H823 C820 0.930 . S
C824 C826 1.348 . S
C824 C827 1.356 . S
C824 O854 1.325 . S
N825 C828 1.314 . S
N825 C829 1.279 . S
C826 C824 1.348 . S
C826 C828 1.353 . S
C826 H868 0.929 . S
C827 C824 1.356 . S
C827 C829 1.358 . S
C827 H869 0.930 . S
C828 N825 1.314 . S
C828 C826 1.353 . S
C828 H870 0.930 . S
C829 N825 1.279 . S
C829 C827 1.358 . S
C829 H871 0.930 . S
C830 C831 1.348 . S
C830 C832 1.356 . S
C830 O855 1.325 . S
C831 C830 1.348 . S
C831 C833 1.353 . S
C831 H872 0.929 . S
C832 C830 1.356 . S
C832 C834 1.358 . S
C832 H873 0.930 . S
C833 C831 1.353 . S
C833 N835 1.314 . S
C833 H874 0.930 . S
C834 C832 1.358 . S
C834 N835 1.279 . S
C834 H875 0.930 . S
N835 C833 1.314 . S
N835 C834 1.279 . S
C836 C838 1.353 . S
C836 N839 1.314 . S
C836 H842 0.930 . S
C837 N839 1.279 . S
C837 C840 1.358 . S
C837 H843 0.930 . S
C838 C836 1.353 . S
C838 C841 1.348 . S
C838 H876 0.929 . S
N839 Li794 1.990 . S
N839 C836 1.314 . S
N839 C837 1.279 . S
C840 C837 1.358 . S
C840 C841 1.356 . S
C840 H877 0.930 . S
C841 C838 1.348 . S
C841 C840 1.356 . S
H842 C836 0.930 . S
H843 C837 0.930 . S
C844 N845 1.314 . S
C844 C846 1.353 . S
C844 H850 0.930 . S
N845 Li795 1.990 . S
N845 C844 1.314 . S
N845 C848 1.279 . S
C846 C844 1.353 . S
C846 C849 1.348 . S
C846 H878 0.929 . S
C847 C848 1.358 . S
C847 C849 1.356 . S
C847 H879 0.930 . S
C848 N845 1.279 . S
C848 C847 1.358 . S
C848 H851 0.930 . S
C849 C846 1.348 . S
C849 C847 1.356 . S
H850 C844 0.930 . S
H851 C848 0.930 . S
O852 Li792 1.956 . S
O852 Li793 1.970 . S
O852 Li794 1.961 . S
O852 C796 1.325 . S
O853 Li792 1.970 . S
O853 Li793 1.956 . S
O853 Li795 1.961 . S
O853 C802 1.325 . S
O854 Li792 1.961 . S
O854 Li794 1.956 . S
O854 Li795 1.970 . S
O854 C824 1.325 . S
O855 Li793 1.961 . S
O855 Li794 1.970 . S
O855 Li795 1.956 . S
O855 C830 1.325 . S
H856 C798 0.929 . S
H857 C799 0.930 . S
H858 C800 0.930 . S
H859 C801 0.930 . S
H860 C803 0.930 . S
H861 C805 0.929 . S
H862 C806 0.930 . S
H863 C807 0.930 . S
H864 C810 0.930 . S
H865 C813 0.929 . S
H866 C818 0.929 . S
H867 C819 0.930 . S
H868 C826 0.929 . S
H869 C827 0.930 . S
H870 C828 0.930 . S
H871 C829 0.930 . S
H872 C831 0.929 . S
H873 C832 0.930 . S
H874 C833 0.930 . S
H875 C834 0.930 . S
H876 C838 0.929 . S
H877 C840 0.930 . S
H878 C846 0.929 . S
H879 C847 0.930 . S
Li880 N897 1.990 . S
Li880 O940 1.956 . S
Li880 O941 1.970 . S
Li880 O942 1.997 . S
Li881 N905 1.990 1_545 S
Li881 O940 1.970 . S
Li881 O941 1.959 . S
Li881 O943 1.958 1_545 S
Li882 N927 1.990 . S
Li882 O940 1.961 1_565 S
Li882 O942 1.912 1_565 S
Li882 O943 1.970 . S
Li883 N933 1.990 . S
Li883 O941 1.961 1_565 S
Li883 O942 1.974 1_565 S
Li883 O943 1.956 . S
C884 C886 1.348 . S
C884 C887 1.356 . S
C884 O940 1.325 . S
N885 C888 1.314 . S
N885 C889 1.279 . S
C886 C884 1.348 . S
C886 C888 1.353 . S
C886 H944 0.929 . S
C887 C884 1.356 . S
C887 C889 1.358 . S
C887 H945 0.930 . S
C888 N885 1.314 . S
C888 C886 1.353 . S
C888 H946 0.930 . S
C889 N885 1.279 . S
C889 C887 1.358 . S
C889 H947 0.930 . S
C890 C893 1.348 . S
C890 C894 1.356 . S
C890 O941 1.325 . S
C891 N892 1.279 . S
C891 C894 1.358 . S
C891 H948 0.930 . S
N892 C891 1.279 . S
N892 C895 1.314 . S
C893 C890 1.348 . S
C893 C895 1.353 . S
C893 H949 0.929 . S
C894 C890 1.356 . S
C894 C891 1.358 . S
C894 H950 0.930 . S
C895 N892 1.314 . S
C895 C893 1.353 . S
C895 H951 0.930 . S
C896 N897 1.314 . S
C896 C901 1.353 . S
C896 H902 0.930 . S
N897 Li880 1.990 . S
N897 C896 1.314 . S
N897 C899 1.279 . S
C898 C899 1.358 . S
C898 C900 1.356 . S
C898 H952 0.930 . S
C899 N897 1.279 . S
C899 C898 1.358 . S
C899 H903 0.930 . S
C900 C898 1.356 . S
C900 C901 1.348 . S
C901 C896 1.353 . S
C901 C900 1.348 . S
C901 H953 0.929 . S
H902 C896 0.930 . S
H903 C899 0.930 . S
C904 N905 1.320 . S
C904 C906 1.353 . S
C904 H910 0.930 . S
N905 Li881 1.990 1_565 S
N905 C904 1.320 . S
N905 C908 1.274 1_565 S
C906 C904 1.353 . S
C906 C909 1.348 . S
C906 H954 0.929 . S
C907 C908 1.358 . S
C907 C909 1.356 1_545 S
C907 H955 0.930 . S
C908 N905 1.274 1_545 S
C908 C907 1.358 . S
C908 H911 0.930 . S
C909 C906 1.348 . S
C909 C907 1.356 1_565 S
H910 C904 0.930 . S
H911 C908 0.930 . S
C912 C914 1.338 1_545 S
C912 C915 1.362 . S
C912 O942 1.325 . S
N913 C916 1.312 1_545 S
N913 C917 1.282 . S
C914 C912 1.338 1_565 S
C914 C916 1.353 . S
C914 H956 0.929 . S
C915 C912 1.362 . S
C915 C917 1.358 . S
C915 H957 0.930 . S
C916 N913 1.312 1_565 S
C916 C914 1.353 . S
C916 H958 0.930 . S
C917 N913 1.282 . S
C917 C915 1.358 . S
C917 H959 0.930 . S
C918 C919 1.348 . S
C918 C920 1.356 . S
C918 O943 1.325 . S
C919 C918 1.348 . S
C919 C921 1.353 . S
C919 H960 0.929 . S
C920 C918 1.356 . S
C920 C922 1.358 . S
C920 H961 0.930 . S
C921 C919 1.353 . S
C921 N923 1.314 . S
C921 H962 0.930 . S
C922 C920 1.358 . S
C922 N923 1.279 . S
C922 H963 0.930 . S
N923 C921 1.314 . S
N923 C922 1.279 . S
C924 C926 1.353 . S
C924 N927 1.314 . S
C924 H930 0.930 . S
C925 N927 1.279 . S
C925 C928 1.358 . S
C925 H931 0.930 . S
C926 C924 1.353 . S
C926 C929 1.348 . S
C926 H964 0.929 . S
N927 Li882 1.990 . S
N927 C924 1.314 . S
N927 C925 1.279 . S
C928 C925 1.358 . S
C928 C929 1.356 . S
C928 H965 0.930 . S
C929 C926 1.348 . S
C929 C928 1.356 . S
H930 C924 0.930 . S
H931 C925 0.930 . S
C932 N933 1.314 1_545 S
C932 C934 1.353 . S
C932 H938 0.930 . S
N933 Li883 1.990 . S
N933 C932 1.314 1_565 S
N933 C936 1.279 . S
C934 C932 1.353 . S
C934 C937 1.348 1_545 S
C934 H966 0.929 . S
C935 C936 1.358 . S
C935 C937 1.356 . S
C935 H967 0.930 . S
C936 N933 1.279 . S
C936 C935 1.358 . S
C936 H939 0.930 . S
C937 C934 1.348 1_565 S
C937 C935 1.356 . S
H938 C932 0.930 . S
H939 C936 0.930 . S
O940 Li880 1.956 . S
O940 Li881 1.970 . S
O940 Li882 1.961 1_545 S
O940 C884 1.325 . S
O941 Li880 1.970 . S
O941 Li881 1.959 . S
O941 Li883 1.961 1_545 S
O941 C890 1.325 . S
O942 Li880 1.997 . S
O942 Li882 1.912 1_545 S
O942 Li883 1.974 1_545 S
O942 C912 1.325 . S
O943 Li881 1.958 1_565 S
O943 Li882 1.970 . S
O943 Li883 1.956 . S
O943 C918 1.325 . S
H944 C886 0.929 . S
H945 C887 0.930 . S
H946 C888 0.930 . S
H947 C889 0.930 . S
H948 C891 0.930 . S
H949 C893 0.929 . S
H950 C894 0.930 . S
H951 C895 0.930 . S
H952 C898 0.930 . S
H953 C901 0.929 . S
H954 C906 0.929 . S
H955 C907 0.930 . S
H956 C914 0.929 . S
H957 C915 0.930 . S
H958 C916 0.930 . S
H959 C917 0.930 . S
H960 C919 0.929 . S
H961 C920 0.930 . S
H962 C921 0.930 . S
H963 C922 0.930 . S
H964 C926 0.929 . S
H965 C928 0.930 . S
H966 C934 0.929 . S
H967 C935 0.930 . S
Li968 N985 1.990 . S
Li968 O1028 1.956 . S
Li968 O1029 1.970 . S
Li968 O1030 1.961 1_554 S
Li969 N993 1.990 . S
Li969 O1028 1.970 . S
Li969 O1029 1.956 . S
Li969 O1031 1.961 . S
Li970 N1015 1.990 . S
Li970 O1028 1.961 . S
Li970 O1030 1.956 1_554 S
Li970 O1031 1.970 . S
Li971 N1021 1.990 . S
Li971 O1029 1.961 1_556 S
Li971 O1030 1.970 . S
Li971 O1031 1.956 1_556 S
C972 C974 1.348 . S
C972 C975 1.356 . S
C972 O1028 1.325 . S
N973 C976 1.314 . S
N973 C977 1.279 . S
C974 C972 1.348 . S
C974 C976 1.353 . S
C974 H1032 0.929 . S
C975 C972 1.356 . S
C975 C977 1.358 . S
C975 H1033 0.930 . S
C976 N973 1.314 . S
C976 C974 1.353 . S
C976 H1034 0.930 . S
C977 N973 1.279 . S
C977 C975 1.358 . S
C977 H1035 0.930 . S
C978 C981 1.348 . S
C978 C982 1.356 . S
C978 O1029 1.325 . S
C979 N980 1.279 . S
C979 C982 1.358 . S
C979 H1036 0.936 . S
N980 C979 1.279 . S
N980 C983 1.314 . S
C981 C978 1.348 . S
C981 C983 1.353 . S
C981 H1037 0.929 . S
C982 C978 1.356 . S
C982 C979 1.358 . S
C982 H1038 0.930 . S
C983 N980 1.314 . S
C983 C981 1.353 . S
C983 H1039 0.930 . S
C984 N985 1.314 . S
C984 C989 1.353 . S
C984 H990 0.930 1_554 S
N985 Li968 1.990 . S
N985 C984 1.314 . S
N985 C987 1.279 . S
C986 C987 1.358 . S
C986 C988 1.356 . S
C986 H1040 0.930 . S
C987 N985 1.279 . S
C987 C986 1.358 . S
C987 H991 0.930 . S
C988 C986 1.356 . S
C988 C989 1.348 . S
C989 C984 1.353 . S
C989 C988 1.348 . S
C989 H1041 0.929 1_554 S
H990 C984 0.930 1_556 S
H991 C987 0.930 . S
C992 N993 1.314 . S
C992 C994 1.353 . S
C992 H998 0.930 . S
N993 Li969 1.990 . S
N993 C992 1.314 . S
N993 C996 1.279 . S
C994 C992 1.353 . S
C994 C997 1.348 . S
C994 H1042 0.929 . S
C995 C996 1.358 . S
C995 C997 1.356 . S
C995 H1043 0.930 . S
C996 N993 1.279 . S
C996 C995 1.358 . S
C996 H999 0.930 . S
C997 C994 1.348 . S
C997 C995 1.356 . S
H998 C992 0.930 . S
H999 C996 0.930 . S
C1000 C1002 1.348 . S
C1000 C1003 1.356 . S
C1000 O1030 1.325 . S
N1001 C1004 1.314 . S
N1001 C1005 1.279 . S
C1002 C1000 1.348 . S
C1002 C1004 1.353 . S
C1002 H1044 0.929 . S
C1003 C1000 1.356 . S
C1003 C1005 1.358 . S
C1003 H1045 0.995 . S
C1004 N1001 1.314 . S
C1004 C1002 1.353 . S
C1004 H1046 0.930 . S
C1005 N1001 1.279 . S
C1005 C1003 1.358 . S
C1005 H1047 0.930 . S
C1006 C1007 1.348 . S
C1006 C1008 1.356 . S
C1006 O1031 1.325 . S
C1007 C1006 1.348 . S
C1007 C1009 1.353 . S
C1007 H1048 0.929 . S
C1008 C1006 1.356 . S
C1008 C1010 1.358 . S
C1008 H1049 0.930 . S
C1009 C1007 1.353 . S
C1009 N1011 1.314 . S
C1009 H1050 0.930 . S
C1010 C1008 1.358 . S
C1010 N1011 1.279 . S
C1010 H1051 0.930 . S
N1011 C1009 1.314 . S
N1011 C1010 1.279 . S
C1012 C1014 1.353 . S
C1012 N1015 1.314 . S
C1012 H1018 0.930 . S
C1013 N1015 1.279 . S
C1013 C1016 1.358 . S
C1013 H1019 0.930 1_554 S
C1014 C1012 1.353 . S
C1014 C1017 1.348 . S
C1014 H1052 0.929 . S
N1015 Li970 1.990 . S
N1015 C1012 1.314 . S
N1015 C1013 1.279 . S
C1016 C1013 1.358 . S
C1016 C1017 1.356 . S
C1016 H1053 0.933 1_554 S
C1017 C1014 1.348 . S
C1017 C1016 1.356 . S
H1018 C1012 0.930 . S
H1019 C1013 0.930 1_556 S
C1020 N1021 1.314 . S
C1020 C1022 1.353 . S
C1020 H1026 0.930 . S
N1021 Li971 1.990 . S
N1021 C1020 1.314 . S
N1021 C1024 1.279 . S
C1022 C1020 1.353 . S
C1022 C1025 1.348 . S
C1022 H1054 0.929 . S
C1023 C1024 1.358 . S
C1023 C1025 1.356 . S
C1023 H1055 0.930 . S
C1024 N1021 1.279 . S
C1024 C1023 1.358 . S
C1024 H1027 0.930 . S
C1025 C1022 1.348 . S
C1025 C1023 1.356 . S
H1026 C1020 0.930 . S
H1027 C1024 0.930 . S
O1028 Li968 1.956 . S
O1028 Li969 1.970 . S
O1028 Li970 1.961 . S
O1028 C972 1.325 . S
O1029 Li968 1.970 . S
O1029 Li969 1.956 . S
O1029 Li971 1.961 1_554 S
O1029 C978 1.325 . S
O1030 Li968 1.961 1_556 S
O1030 Li970 1.956 1_556 S
O1030 Li971 1.970 . S
O1030 C1000 1.325 . S
O1031 Li969 1.961 . S
O1031 Li970 1.970 . S
O1031 Li971 1.956 1_554 S
O1031 C1006 1.325 . S
H1032 C974 0.929 . S
H1033 C975 0.930 . S
H1034 C976 0.930 . S
H1035 C977 0.930 . S
H1036 C979 0.936 . S
H1037 C981 0.929 . S
H1038 C982 0.930 . S
H1039 C983 0.930 . S
H1040 C986 0.930 . S
H1041 C989 0.929 1_556 S
H1042 C994 0.929 . S
H1043 C995 0.930 . S
H1044 C1002 0.929 . S
H1045 C1003 0.995 . S
H1046 C1004 0.930 . S
H1047 C1005 0.930 . S
H1048 C1007 0.929 . S
H1049 C1008 0.930 . S
H1050 C1009 0.930 . S
H1051 C1010 0.930 . S
H1052 C1014 0.929 . S
H1053 C1016 0.933 1_556 S
H1054 C1022 0.929 . S
H1055 C1023 0.930 . S
Li1056 N1073 1.990 . S
Li1056 O1116 1.956 . S
Li1056 O1117 1.970 . S
Li1056 O1118 1.961 1_554 S
Li1057 N1081 1.990 . S
Li1057 O1116 1.970 . S
Li1057 O1117 1.956 . S
Li1057 O1119 1.961 . S
Li1058 N1103 1.990 . S
Li1058 O1116 1.961 . S
Li1058 O1118 1.956 1_554 S
Li1058 O1119 1.970 . S
Li1059 N1109 1.990 . S
Li1059 O1117 1.961 1_556 S
Li1059 O1118 1.970 . S
Li1059 O1119 1.956 1_556 S
C1060 C1062 1.348 . S
C1060 C1063 1.356 . S
C1060 O1116 1.325 . S
N1061 C1064 1.314 . S
N1061 C1065 1.279 . S
C1062 C1060 1.348 . S
C1062 C1064 1.353 . S
C1062 H1120 0.929 . S
C1063 C1060 1.356 . S
C1063 C1065 1.358 . S
C1063 H1121 0.930 . S
C1064 N1061 1.314 . S
C1064 C1062 1.353 . S
C1064 H1122 0.930 . S
C1065 N1061 1.279 . S
C1065 C1063 1.358 . S
C1065 H1123 0.930 . S
C1066 C1069 1.348 . S
C1066 C1070 1.356 . S
C1066 O1117 1.325 . S
C1067 N1068 1.279 . S
C1067 C1070 1.358 . S
C1067 H1124 0.942 . S
N1068 C1067 1.279 . S
N1068 C1071 1.314 . S
C1069 C1066 1.348 . S
C1069 C1071 1.353 . S
C1069 H1125 0.929 . S
C1070 C1066 1.356 . S
C1070 C1067 1.358 . S
C1070 H1126 0.930 . S
C1071 N1068 1.314 . S
C1071 C1069 1.353 . S
C1071 H1127 0.930 . S
C1072 N1073 1.314 . S
C1072 C1077 1.353 . S
C1072 H1078 0.930 1_554 S
N1073 Li1056 1.990 . S
N1073 C1072 1.314 . S
N1073 C1075 1.279 . S
C1074 C1075 1.358 . S
C1074 C1076 1.356 . S
C1074 H1128 0.930 . S
C1075 N1073 1.279 . S
C1075 C1074 1.358 . S
C1075 H1079 0.930 . S
C1076 C1074 1.356 . S
C1076 C1077 1.348 . S
C1077 C1072 1.353 . S
C1077 C1076 1.348 . S
C1077 H1129 0.929 1_554 S
H1078 C1072 0.930 1_556 S
H1079 C1075 0.930 . S
C1080 N1081 1.314 . S
C1080 C1082 1.353 . S
C1080 H1086 0.930 . S
N1081 Li1057 1.990 . S
N1081 C1080 1.314 . S
N1081 C1084 1.279 . S
C1082 C1080 1.353 . S
C1082 C1085 1.348 . S
C1082 H1130 0.929 . S
C1083 C1084 1.358 . S
C1083 C1085 1.356 . S
C1083 H1131 0.930 . S
C1084 N1081 1.279 . S
C1084 C1083 1.358 . S
C1084 H1087 0.930 . S
C1085 C1082 1.348 . S
C1085 C1083 1.356 . S
H1086 C1080 0.930 . S
H1087 C1084 0.930 . S
C1088 C1090 1.348 . S
C1088 C1091 1.356 . S
C1088 O1118 1.325 . S
N1089 C1092 1.314 . S
N1089 C1093 1.279 . S
C1090 C1088 1.348 . S
C1090 C1092 1.353 . S
C1090 H1132 0.929 . S
C1091 C1088 1.356 . S
C1091 C1093 1.358 . S
C1091 H1133 0.975 . S
C1092 N1089 1.314 . S
C1092 C1090 1.353 . S
C1092 H1134 0.930 . S
C1093 N1089 1.279 . S
C1093 C1091 1.358 . S
C1093 H1135 0.930 . S
C1094 C1095 1.348 . S
C1094 C1096 1.356 . S
C1094 O1119 1.325 . S
C1095 C1094 1.348 . S
C1095 C1097 1.353 . S
C1095 H1136 0.929 . S
C1096 C1094 1.356 . S
C1096 C1098 1.358 . S
C1096 H1137 0.930 . S
C1097 C1095 1.353 . S
C1097 N1099 1.314 . S
C1097 H1138 0.930 . S
C1098 C1096 1.358 . S
C1098 N1099 1.279 . S
C1098 H1139 0.930 . S
N1099 C1097 1.314 . S
N1099 C1098 1.279 . S
C1100 C1102 1.353 . S
C1100 N1103 1.314 . S
C1100 H1106 0.930 . S
C1101 N1103 1.279 . S
C1101 C1104 1.358 . S
C1101 H1107 0.930 1_554 S
C1102 C1100 1.353 . S
C1102 C1105 1.348 . S
C1102 H1140 0.929 . S
N1103 Li1058 1.990 . S
N1103 C1100 1.314 . S
N1103 C1101 1.279 . S
C1104 C1101 1.358 . S
C1104 C1105 1.356 . S
C1104 H1141 0.937 . S
C1105 C1102 1.348 . S
C1105 C1104 1.356 . S
H1106 C1100 0.930 . S
H1107 C1101 0.930 1_556 S
C1108 N1109 1.314 . S
C1108 C1110 1.353 . S
C1108 H1114 0.930 . S
N1109 Li1059 1.990 . S
N1109 C1108 1.314 . S
N1109 C1112 1.279 . S
C1110 C1108 1.353 . S
C1110 C1113 1.348 . S
C1110 H1142 0.929 . S
C1111 C1112 1.358 . S
C1111 C1113 1.356 . S
C1111 H1143 0.930 . S
C1112 N1109 1.279 . S
C1112 C1111 1.358 . S
C1112 H1115 0.930 . S
C1113 C1110 1.348 . S
C1113 C1111 1.356 . S
H1114 C1108 0.930 . S
H1115 C1112 0.930 . S
O1116 Li1056 1.956 . S
O1116 Li1057 1.970 . S
O1116 Li1058 1.961 . S
O1116 C1060 1.325 . S
O1117 Li1056 1.970 . S
O1117 Li1057 1.956 . S
O1117 Li1059 1.961 1_554 S
O1117 C1066 1.325 . S
O1118 Li1056 1.961 1_556 S
O1118 Li1058 1.956 1_556 S
O1118 Li1059 1.970 . S
O1118 C1088 1.325 . S
O1119 Li1057 1.961 . S
O1119 Li1058 1.970 . S
O1119 Li1059 1.956 1_554 S
O1119 C1094 1.325 . S
H1120 C1062 0.929 . S
H1121 C1063 0.930 . S
H1122 C1064 0.930 . S
H1123 C1065 0.930 . S
H1124 C1067 0.942 . S
H1125 C1069 0.929 . S
H1126 C1070 0.930 . S
H1127 C1071 0.930 . S
H1128 C1074 0.930 . S
H1129 C1077 0.929 1_556 S
H1130 C1082 0.929 . S
H1131 C1083 0.930 . S
H1132 C1090 0.929 . S
H1133 C1091 0.975 . S
H1134 C1092 0.930 . S
H1135 C1093 0.930 . S
H1136 C1095 0.929 . S
H1137 C1096 0.930 . S
H1138 C1097 0.930 . S
H1139 C1098 0.930 . S
H1140 C1102 0.929 . S
H1141 C1104 0.937 . S
H1142 C1110 0.929 . S
H1143 C1111 0.930 . S
Li1144 N1161 1.990 . S
Li1144 O1204 1.956 . S
Li1144 O1205 1.970 . S
Li1144 O1206 1.961 . S
Li1145 N1169 1.990 . S
Li1145 O1204 1.970 . S
Li1145 O1205 1.956 . S
Li1145 O1207 1.961 1_554 S
Li1146 N1191 1.990 . S
Li1146 O1204 1.961 1_556 S
Li1146 O1206 1.956 1_556 S
Li1146 O1207 1.970 . S
Li1147 N1197 1.990 1_554 S
Li1147 O1205 1.961 . S
Li1147 O1206 1.970 . S
Li1147 O1207 1.956 1_554 S
C1148 C1150 1.348 . S
C1148 C1151 1.356 . S
C1148 O1204 1.325 . S
N1149 C1152 1.314 . S
N1149 C1153 1.279 . S
C1150 C1148 1.348 . S
C1150 C1152 1.353 . S
C1150 H1208 0.929 . S
C1151 C1148 1.356 . S
C1151 C1153 1.358 . S
C1151 H1209 0.930 . S
C1152 N1149 1.314 . S
C1152 C1150 1.353 . S
C1152 H1210 0.930 . S
C1153 N1149 1.279 . S
C1153 C1151 1.358 . S
C1153 H1211 0.930 . S
C1154 C1157 1.348 . S
C1154 C1158 1.356 . S
C1154 O1205 1.325 . S
C1155 N1156 1.279 . S
C1155 C1158 1.358 . S
C1155 H1212 0.930 . S
N1156 C1155 1.279 . S
N1156 C1159 1.314 . S
C1157 C1154 1.348 . S
C1157 C1159 1.353 . S
C1157 H1213 0.929 . S
C1158 C1154 1.356 . S
C1158 C1155 1.358 . S
C1158 H1214 0.930 . S
C1159 N1156 1.314 . S
C1159 C1157 1.353 . S
C1159 H1215 0.930 . S
C1160 N1161 1.314 . S
C1160 C1165 1.353 . S
C1160 H1166 0.930 . S
N1161 Li1144 1.990 . S
N1161 C1160 1.314 . S
N1161 C1163 1.279 . S
C1162 C1163 1.358 . S
C1162 C1164 1.356 . S
C1162 H1216 0.930 . S
C1163 N1161 1.279 . S
C1163 C1162 1.358 . S
C1163 H1167 0.930 . S
C1164 C1162 1.356 . S
C1164 C1165 1.348 . S
C1165 C1160 1.353 . S
C1165 C1164 1.348 . S
C1165 H1217 0.929 . S
H1166 C1160 0.930 . S
H1167 C1163 0.930 . S
C1168 N1169 1.314 1_556 S
C1168 C1170 1.353 . S
C1168 H1174 0.930 . S
N1169 Li1145 1.990 . S
N1169 C1168 1.314 1_554 S
N1169 C1172 1.279 . S
C1170 C1168 1.353 . S
C1170 C1173 1.348 1_556 S
C1170 H1218 0.929 . S
C1171 C1172 1.358 . S
C1171 C1173 1.356 . S
C1171 H1219 0.930 . S
C1172 N1169 1.279 . S
C1172 C1171 1.358 . S
C1172 H1175 0.930 . S
C1173 C1170 1.348 1_554 S
C1173 C1171 1.356 . S
H1174 C1168 0.930 . S
H1175 C1172 0.930 . S
C1176 C1178 1.335 1_554 S
C1176 C1179 1.356 . S
C1176 O1206 1.325 . S
N1177 C1180 1.311 1_554 S
N1177 C1181 1.279 . S
C1178 C1176 1.335 1_556 S
C1178 C1180 1.354 . S
C1178 H1220 0.945 . S
C1179 C1176 1.356 . S
C1179 C1181 1.358 . S
C1179 H1221 0.930 . S
C1180 N1177 1.311 1_556 S
C1180 C1178 1.354 . S
C1180 H1222 0.934 . S
C1181 N1177 1.279 . S
C1181 C1179 1.358 . S
C1181 H1223 0.930 . S
C1182 C1183 1.348 . S
C1182 C1184 1.356 . S
C1182 O1207 1.325 . S
C1183 C1182 1.348 . S
C1183 C1185 1.353 . S
C1183 H1224 0.929 . S
C1184 C1182 1.356 . S
C1184 C1186 1.358 . S
C1184 H1225 0.930 . S
C1185 C1183 1.353 . S
C1185 N1187 1.314 . S
C1185 H1226 0.930 . S
C1186 C1184 1.358 . S
C1186 N1187 1.279 . S
C1186 H1227 0.930 . S
N1187 C1185 1.314 . S
N1187 C1186 1.279 . S
C1188 C1190 1.353 . S
C1188 N1191 1.314 . S
C1188 H1194 0.930 . S
C1189 N1191 1.279 . S
C1189 C1192 1.358 . S
C1189 H1195 0.930 . S
C1190 C1188 1.353 . S
C1190 C1193 1.348 . S
C1190 H1228 0.929 . S
N1191 Li1146 1.990 . S
N1191 C1188 1.314 . S
N1191 C1189 1.279 . S
C1192 C1189 1.358 . S
C1192 C1193 1.356 . S
C1192 H1229 0.930 . S
C1193 C1190 1.348 . S
C1193 C1192 1.356 . S
H1194 C1188 0.930 . S
H1195 C1189 0.930 . S
C1196 N1197 1.314 1_554 S
C1196 C1198 1.353 . S
C1196 H1202 0.930 . S
N1197 Li1147 1.990 1_556 S
N1197 C1196 1.314 1_556 S
N1197 C1200 1.279 . S
C1198 C1196 1.353 . S
C1198 C1201 1.348 1_554 S
C1198 H1230 0.929 . S
C1199 C1200 1.358 . S
C1199 C1201 1.356 . S
C1199 H1231 0.930 . S
C1200 N1197 1.279 . S
C1200 C1199 1.358 . S
C1200 H1203 0.930 . S
C1201 C1198 1.348 1_556 S
C1201 C1199 1.356 . S
H1202 C1196 0.930 . S
H1203 C1200 0.930 . S
O1204 Li1144 1.956 . S
O1204 Li1145 1.970 . S
O1204 Li1146 1.961 1_554 S
O1204 C1148 1.325 . S
O1205 Li1144 1.970 . S
O1205 Li1145 1.956 . S
O1205 Li1147 1.961 . S
O1205 C1154 1.325 . S
O1206 Li1144 1.961 . S
O1206 Li1146 1.956 1_554 S
O1206 Li1147 1.970 . S
O1206 C1176 1.325 . S
O1207 Li1145 1.961 1_556 S
O1207 Li1146 1.970 . S
O1207 Li1147 1.956 1_556 S
O1207 C1182 1.325 . S
H1208 C1150 0.929 . S
H1209 C1151 0.930 . S
H1210 C1152 0.930 . S
H1211 C1153 0.930 . S
H1212 C1155 0.930 . S
H1213 C1157 0.929 . S
H1214 C1158 0.930 . S
H1215 C1159 0.930 . S
H1216 C1162 0.930 . S
H1217 C1165 0.929 . S
H1218 C1170 0.929 . S
H1219 C1171 0.930 . S
H1220 C1178 0.945 . S
H1221 C1179 0.930 . S
H1222 C1180 0.934 . S
H1223 C1181 0.930 . S
H1224 C1183 0.929 . S
H1225 C1184 0.930 . S
H1226 C1185 0.930 . S
H1227 C1186 0.930 . S
H1228 C1190 0.929 . S
H1229 C1192 0.930 . S
H1230 C1198 0.929 . S
H1231 C1199 0.930 . S
Li1232 N1249 1.990 . S
Li1232 O1292 1.956 . S
Li1232 O1293 1.970 . S
Li1232 O1294 1.961 . S
Li1233 N1257 1.990 . S
Li1233 O1292 1.970 . S
Li1233 O1293 1.956 . S
Li1233 O1295 1.961 . S
Li1234 N1279 1.990 . S
Li1234 O1292 1.961 . S
Li1234 O1294 1.956 . S
Li1234 O1295 1.970 . S
Li1235 N1285 1.990 . S
Li1235 O1293 1.961 . S
Li1235 O1294 1.970 . S
Li1235 O1295 1.956 . S
C1236 C1238 1.348 . S
C1236 C1239 1.356 . S
C1236 O1292 1.325 . S
N1237 C1240 1.314 . S
N1237 C1241 1.279 . S
C1238 C1236 1.348 . S
C1238 C1240 1.353 . S
C1238 H1296 0.929 . S
C1239 C1236 1.356 . S
C1239 C1241 1.358 . S
C1239 H1297 0.930 . S
C1240 N1237 1.314 . S
C1240 C1238 1.353 . S
C1240 H1298 0.930 . S
C1241 N1237 1.279 . S
C1241 C1239 1.358 . S
C1241 H1299 0.930 . S
C1242 C1245 1.348 . S
C1242 C1246 1.356 . S
C1242 O1293 1.325 . S
C1243 N1244 1.279 . S
C1243 C1246 1.358 . S
C1243 H1300 0.930 . S
N1244 C1243 1.279 . S
N1244 C1247 1.314 . S
C1245 C1242 1.348 . S
C1245 C1247 1.353 . S
C1245 H1301 0.929 . S
C1246 C1242 1.356 . S
C1246 C1243 1.358 . S
C1246 H1302 0.930 . S
C1247 N1244 1.314 . S
C1247 C1245 1.353 . S
C1247 H1303 0.930 . S
C1248 N1249 1.314 . S
C1248 C1253 1.353 . S
C1248 H1254 0.930 . S
N1249 Li1232 1.990 . S
N1249 C1248 1.314 . S
N1249 C1251 1.279 . S
C1250 C1251 1.358 . S
C1250 C1252 1.356 . S
C1250 H1304 0.930 . S
C1251 N1249 1.279 . S
C1251 C1250 1.358 . S
C1251 H1255 0.930 . S
C1252 C1250 1.356 . S
C1252 C1253 1.348 . S
C1253 C1248 1.353 . S
C1253 C1252 1.348 . S
C1253 H1305 0.929 . S
H1254 C1248 0.930 . S
H1255 C1251 0.930 . S
C1256 N1257 1.314 . S
C1256 C1258 1.353 . S
C1256 H1262 0.930 . S
N1257 Li1233 1.990 . S
N1257 C1256 1.314 . S
N1257 C1260 1.279 . S
C1258 C1256 1.353 . S
C1258 C1261 1.348 . S
C1258 H1306 0.929 . S
C1259 C1260 1.358 . S
C1259 C1261 1.356 . S
C1259 H1307 0.930 . S
C1260 N1257 1.279 . S
C1260 C1259 1.358 . S
C1260 H1263 0.930 . S
C1261 C1258 1.348 . S
C1261 C1259 1.356 . S
H1262 C1256 0.930 . S
H1263 C1260 0.930 . S
C1264 C1266 1.348 . S
C1264 C1267 1.356 . S
C1264 O1294 1.325 . S
N1265 C1268 1.314 . S
N1265 C1269 1.279 . S
C1266 C1264 1.348 . S
C1266 C1268 1.353 . S
C1266 H1308 0.929 . S
C1267 C1264 1.356 . S
C1267 C1269 1.358 . S
C1267 H1309 0.930 . S
C1268 N1265 1.314 . S
C1268 C1266 1.353 . S
C1268 H1310 0.930 . S
C1269 N1265 1.279 . S
C1269 C1267 1.358 . S
C1269 H1311 0.930 . S
C1270 C1271 1.348 . S
C1270 C1272 1.356 . S
C1270 O1295 1.325 . S
C1271 C1270 1.348 . S
C1271 C1273 1.353 . S
C1271 H1312 0.929 . S
C1272 C1270 1.356 . S
C1272 C1274 1.358 . S
C1272 H1313 0.930 . S
C1273 C1271 1.353 . S
C1273 N1275 1.314 . S
C1273 H1314 0.930 . S
C1274 C1272 1.358 . S
C1274 N1275 1.279 . S
C1274 H1315 0.930 . S
N1275 C1273 1.314 . S
N1275 C1274 1.279 . S
C1276 C1278 1.353 . S
C1276 N1279 1.314 . S
C1276 H1282 0.930 . S
C1277 N1279 1.279 . S
C1277 C1280 1.358 . S
C1277 H1283 0.930 . S
C1278 C1276 1.353 . S
C1278 C1281 1.348 . S
C1278 H1316 0.929 . S
N1279 Li1234 1.990 . S
N1279 C1276 1.314 . S
N1279 C1277 1.279 . S
C1280 C1277 1.358 . S
C1280 C1281 1.356 . S
C1280 H1317 0.930 . S
C1281 C1278 1.348 . S
C1281 C1280 1.356 . S
H1282 C1276 0.930 . S
H1283 C1277 0.930 . S
C1284 N1285 1.314 . S
C1284 C1286 1.353 . S
C1284 H1290 0.930 . S
N1285 Li1235 1.990 . S
N1285 C1284 1.314 . S
N1285 C1288 1.279 . S
C1286 C1284 1.353 . S
C1286 C1289 1.348 . S
C1286 H1318 0.929 . S
C1287 C1288 1.358 . S
C1287 C1289 1.356 . S
C1287 H1319 0.930 . S
C1288 N1285 1.279 . S
C1288 C1287 1.358 . S
C1288 H1291 0.930 . S
C1289 C1286 1.348 . S
C1289 C1287 1.356 . S
H1290 C1284 0.930 . S
H1291 C1288 0.930 . S
O1292 Li1232 1.956 . S
O1292 Li1233 1.970 . S
O1292 Li1234 1.961 . S
O1292 C1236 1.325 . S
O1293 Li1232 1.970 . S
O1293 Li1233 1.956 . S
O1293 Li1235 1.961 . S
O1293 C1242 1.325 . S
O1294 Li1232 1.961 . S
O1294 Li1234 1.956 . S
O1294 Li1235 1.970 . S
O1294 C1264 1.325 . S
O1295 Li1233 1.961 . S
O1295 Li1234 1.970 . S
O1295 Li1235 1.956 . S
O1295 C1270 1.325 . S
H1296 C1238 0.929 . S
H1297 C1239 0.930 . S
H1298 C1240 0.930 . S
H1299 C1241 0.930 . S
H1300 C1243 0.930 . S
H1301 C1245 0.929 . S
H1302 C1246 0.930 . S
H1303 C1247 0.930 . S
H1304 C1250 0.930 . S
H1305 C1253 0.929 . S
H1306 C1258 0.929 . S
H1307 C1259 0.930 . S
H1308 C1266 0.929 . S
H1309 C1267 0.930 . S
H1310 C1268 0.930 . S
H1311 C1269 0.930 . S
H1312 C1271 0.929 . S
H1313 C1272 0.930 . S
H1314 C1273 0.930 . S
H1315 C1274 0.930 . S
H1316 C1278 0.929 . S
H1317 C1280 0.930 . S
H1318 C1286 0.929 . S
H1319 C1287 0.930 . S
Li1320 N1337 1.990 . S
Li1320 O1380 1.956 . S
Li1320 O1381 1.970 . S
Li1320 O1382 1.961 . S
Li1321 N1345 1.990 . S
Li1321 O1380 1.970 . S
Li1321 O1381 1.956 . S
Li1321 O1383 1.961 . S
Li1322 N1367 1.990 . S
Li1322 O1380 1.961 . S
Li1322 O1382 1.956 . S
Li1322 O1383 1.970 . S
Li1323 N1373 1.990 . S
Li1323 O1381 1.961 . S
Li1323 O1382 1.970 . S
Li1323 O1383 1.956 . S
C1324 C1326 1.348 . S
C1324 C1327 1.356 . S
C1324 O1380 1.325 . S
N1325 C1328 1.314 . S
N1325 C1329 1.279 . S
C1326 C1324 1.348 . S
C1326 C1328 1.353 . S
C1326 H1384 0.929 . S
C1327 C1324 1.356 . S
C1327 C1329 1.358 . S
C1327 H1385 0.930 . S
C1328 N1325 1.314 . S
C1328 C1326 1.353 . S
C1328 H1386 0.930 . S
C1329 N1325 1.279 . S
C1329 C1327 1.358 . S
C1329 H1387 0.930 . S
C1330 C1333 1.348 . S
C1330 C1334 1.356 . S
C1330 O1381 1.325 . S
C1331 N1332 1.279 . S
C1331 C1334 1.358 . S
C1331 H1388 0.930 . S
N1332 C1331 1.279 . S
N1332 C1335 1.314 . S
C1333 C1330 1.348 . S
C1333 C1335 1.353 . S
C1333 H1389 0.929 . S
C1334 C1330 1.356 . S
C1334 C1331 1.358 . S
C1334 H1390 0.930 . S
C1335 N1332 1.314 . S
C1335 C1333 1.353 . S
C1335 H1391 0.930 . S
C1336 N1337 1.314 . S
C1336 C1341 1.353 . S
C1336 H1342 0.930 . S
N1337 Li1320 1.990 . S
N1337 C1336 1.314 . S
N1337 C1339 1.279 . S
C1338 C1339 1.358 . S
C1338 C1340 1.356 . S
C1338 H1392 0.930 . S
C1339 N1337 1.279 . S
C1339 C1338 1.358 . S
C1339 H1343 0.930 . S
C1340 C1338 1.356 . S
C1340 C1341 1.348 . S
C1341 C1336 1.353 . S
C1341 C1340 1.348 . S
C1341 H1393 0.929 . S
H1342 C1336 0.930 . S
H1343 C1339 0.930 . S
C1344 N1345 1.314 . S
C1344 C1346 1.353 . S
C1344 H1350 0.930 . S
N1345 Li1321 1.990 . S
N1345 C1344 1.314 . S
N1345 C1348 1.279 . S
C1346 C1344 1.353 . S
C1346 C1349 1.348 . S
C1346 H1394 0.929 . S
C1347 C1348 1.358 . S
C1347 C1349 1.356 . S
C1347 H1395 0.930 . S
C1348 N1345 1.279 . S
C1348 C1347 1.358 . S
C1348 H1351 0.930 . S
C1349 C1346 1.348 . S
C1349 C1347 1.356 . S
H1350 C1344 0.930 . S
H1351 C1348 0.930 . S
C1352 C1354 1.348 . S
C1352 C1355 1.356 . S
C1352 O1382 1.325 . S
N1353 C1356 1.314 . S
N1353 C1357 1.279 . S
C1354 C1352 1.348 . S
C1354 C1356 1.353 . S
C1354 H1396 0.929 . S
C1355 C1352 1.356 . S
C1355 C1357 1.358 . S
C1355 H1397 0.930 . S
C1356 N1353 1.314 . S
C1356 C1354 1.353 . S
C1356 H1398 0.930 . S
C1357 N1353 1.279 . S
C1357 C1355 1.358 . S
C1357 H1399 0.930 . S
C1358 C1359 1.348 . S
C1358 C1360 1.356 . S
C1358 O1383 1.325 . S
C1359 C1358 1.348 . S
C1359 C1361 1.353 . S
C1359 H1400 0.929 . S
C1360 C1358 1.356 . S
C1360 C1362 1.358 . S
C1360 H1401 0.930 . S
C1361 C1359 1.353 . S
C1361 N1363 1.314 . S
C1361 H1402 0.930 . S
C1362 C1360 1.358 . S
C1362 N1363 1.279 . S
C1362 H1403 0.930 . S
N1363 C1361 1.314 . S
N1363 C1362 1.279 . S
C1364 C1366 1.353 . S
C1364 N1367 1.314 . S
C1364 H1370 0.930 . S
C1365 N1367 1.279 . S
C1365 C1368 1.358 . S
C1365 H1371 0.930 . S
C1366 C1364 1.353 . S
C1366 C1369 1.348 . S
C1366 H1404 0.929 . S
N1367 Li1322 1.990 . S
N1367 C1364 1.314 . S
N1367 C1365 1.279 . S
C1368 C1365 1.358 . S
C1368 C1369 1.356 . S
C1368 H1405 0.930 . S
C1369 C1366 1.348 . S
C1369 C1368 1.356 . S
H1370 C1364 0.930 . S
H1371 C1365 0.930 . S
C1372 N1373 1.314 . S
C1372 C1374 1.353 . S
C1372 H1378 0.930 . S
N1373 Li1323 1.990 . S
N1373 C1372 1.314 . S
N1373 C1376 1.279 . S
C1374 C1372 1.353 . S
C1374 C1377 1.348 . S
C1374 H1406 0.929 . S
C1375 C1376 1.358 . S
C1375 C1377 1.356 . S
C1375 H1407 0.930 . S
C1376 N1373 1.279 . S
C1376 C1375 1.358 . S
C1376 H1379 0.930 . S
C1377 C1374 1.348 . S
C1377 C1375 1.356 . S
H1378 C1372 0.930 . S
H1379 C1376 0.930 . S
O1380 Li1320 1.956 . S
O1380 Li1321 1.970 . S
O1380 Li1322 1.961 . S
O1380 C1324 1.325 . S
O1381 Li1320 1.970 . S
O1381 Li1321 1.956 . S
O1381 Li1323 1.961 . S
O1381 C1330 1.325 . S
O1382 Li1320 1.961 . S
O1382 Li1322 1.956 . S
O1382 Li1323 1.970 . S
O1382 C1352 1.325 . S
O1383 Li1321 1.961 . S
O1383 Li1322 1.970 . S
O1383 Li1323 1.956 . S
O1383 C1358 1.325 . S
H1384 C1326 0.929 . S
H1385 C1327 0.930 . S
H1386 C1328 0.930 . S
H1387 C1329 0.930 . S
H1388 C1331 0.930 . S
H1389 C1333 0.929 . S
H1390 C1334 0.930 . S
H1391 C1335 0.930 . S
H1392 C1338 0.930 . S
H1393 C1341 0.929 . S
H1394 C1346 0.929 . S
H1395 C1347 0.930 . S
H1396 C1354 0.929 . S
H1397 C1355 0.930 . S
H1398 C1356 0.930 . S
H1399 C1357 0.930 . S
H1400 C1359 0.929 . S
H1401 C1360 0.930 . S
H1402 C1361 0.930 . S
H1403 C1362 0.930 . S
H1404 C1366 0.929 . S
H1405 C1368 0.930 . S
H1406 C1374 0.929 . S
H1407 C1375 0.930 . S
Li1408 N1425 1.990 . S
Li1408 O1468 1.956 . S
Li1408 O1469 1.970 . S
Li1408 O1470 1.961 . S
Li1409 N1433 1.990 . S
Li1409 O1468 1.970 . S
Li1409 O1469 1.956 . S
Li1409 O1471 1.961 . S
Li1410 N1455 1.990 . S
Li1410 O1468 1.961 . S
Li1410 O1470 1.956 . S
Li1410 O1471 1.970 . S
Li1411 N1461 1.990 . S
Li1411 O1469 1.961 . S
Li1411 O1470 1.970 . S
Li1411 O1471 1.956 . S
C1412 C1414 1.348 . S
C1412 C1415 1.356 . S
C1412 O1468 1.325 . S
N1413 C1416 1.314 . S
N1413 C1417 1.279 . S
C1414 C1412 1.348 . S
C1414 C1416 1.353 . S
C1414 H1472 0.929 . S
C1415 C1412 1.356 . S
C1415 C1417 1.358 . S
C1415 H1473 0.930 . S
C1416 N1413 1.314 . S
C1416 C1414 1.353 . S
C1416 H1474 0.930 1_545 S
C1417 N1413 1.279 . S
C1417 C1415 1.358 . S
C1417 H1475 0.930 . S
C1418 C1421 1.348 . S
C1418 C1422 1.356 . S
C1418 O1469 1.325 . S
C1419 N1420 1.279 . S
C1419 C1422 1.358 . S
C1419 H1476 0.930 . S
N1420 C1419 1.279 . S
N1420 C1423 1.314 . S
C1421 C1418 1.348 . S
C1421 C1423 1.353 . S
C1421 H1477 0.929 . S
C1422 C1418 1.356 . S
C1422 C1419 1.358 . S
C1422 H1478 0.930 . S
C1423 N1420 1.314 . S
C1423 C1421 1.353 . S
C1423 H1479 0.930 . S
C1424 N1425 1.314 . S
C1424 C1429 1.353 . S
C1424 H1430 0.930 . S
N1425 Li1408 1.990 . S
N1425 C1424 1.314 . S
N1425 C1427 1.279 . S
C1426 C1427 1.358 . S
C1426 C1428 1.356 . S
C1426 H1480 0.930 . S
C1427 N1425 1.279 . S
C1427 C1426 1.358 . S
C1427 H1431 0.930 . S
C1428 C1426 1.356 . S
C1428 C1429 1.348 . S
C1429 C1424 1.353 . S
C1429 C1428 1.348 . S
C1429 H1481 0.929 . S
H1430 C1424 0.930 . S
H1431 C1427 0.930 . S
C1432 N1433 1.314 . S
C1432 C1434 1.353 1_545 S
C1432 H1438 0.930 . S
N1433 Li1409 1.990 . S
N1433 C1432 1.314 . S
N1433 C1436 1.279 . S
C1434 C1432 1.353 1_565 S
C1434 C1437 1.348 . S
C1434 H1482 0.929 . S
C1435 C1436 1.358 . S
C1435 C1437 1.356 1_545 S
C1435 H1483 0.921 1_545 S
C1436 N1433 1.279 . S
C1436 C1435 1.358 . S
C1436 H1439 0.930 . S
C1437 C1434 1.348 . S
C1437 C1435 1.356 1_565 S
H1438 C1432 0.930 . S
H1439 C1436 0.930 . S
C1440 C1442 1.348 . S
C1440 C1443 1.356 . S
C1440 O1470 1.325 . S
N1441 C1444 1.314 . S
N1441 C1445 1.279 . S
C1442 C1440 1.348 . S
C1442 C1444 1.353 . S
C1442 H1484 0.929 . S
C1443 C1440 1.356 . S
C1443 C1445 1.358 . S
C1443 H1485 0.930 . S
C1444 N1441 1.314 . S
C1444 C1442 1.353 . S
C1444 H1486 0.930 . S
C1445 N1441 1.279 . S
C1445 C1443 1.358 . S
C1445 H1487 0.930 . S
C1446 C1447 1.348 . S
C1446 C1448 1.356 . S
C1446 O1471 1.325 . S
C1447 C1446 1.348 . S
C1447 C1449 1.353 . S
C1447 H1488 0.929 . S
C1448 C1446 1.356 . S
C1448 C1450 1.358 . S
C1448 H1489 0.930 . S
C1449 C1447 1.353 . S
C1449 N1451 1.314 . S
C1449 H1490 0.930 . S
C1450 C1448 1.358 . S
C1450 N1451 1.279 . S
C1450 H1491 0.930 . S
N1451 C1449 1.314 . S
N1451 C1450 1.279 . S
C1452 C1454 1.353 . S
C1452 N1455 1.314 . S
C1452 H1458 0.930 . S
C1453 N1455 1.279 . S
C1453 C1456 1.358 . S
C1453 H1459 0.930 . S
C1454 C1452 1.353 . S
C1454 C1457 1.348 . S
C1454 H1492 0.929 . S
N1455 Li1410 1.990 . S
N1455 C1452 1.314 . S
N1455 C1453 1.279 . S
C1456 C1453 1.358 . S
C1456 C1457 1.356 . S
C1456 H1493 0.930 . S
C1457 C1454 1.348 . S
C1457 C1456 1.356 . S
H1458 C1452 0.930 . S
H1459 C1453 0.930 . S
C1460 N1461 1.314 . S
C1460 C1462 1.353 . S
C1460 H1466 0.930 . S
N1461 Li1411 1.990 . S
N1461 C1460 1.314 . S
N1461 C1464 1.279 . S
C1462 C1460 1.353 . S
C1462 C1465 1.348 . S
C1462 H1494 0.929 . S
C1463 C1464 1.358 . S
C1463 C1465 1.356 . S
C1463 H1495 0.930 . S
C1464 N1461 1.279 . S
C1464 C1463 1.358 . S
C1464 H1467 0.930 . S
C1465 C1462 1.348 . S
C1465 C1463 1.356 . S
H1466 C1460 0.930 . S
H1467 C1464 0.930 . S
O1468 Li1408 1.956 . S
O1468 Li1409 1.970 . S
O1468 Li1410 1.961 . S
O1468 C1412 1.325 . S
O1469 Li1408 1.970 . S
O1469 Li1409 1.956 . S
O1469 Li1411 1.961 . S
O1469 C1418 1.325 . S
O1470 Li1408 1.961 . S
O1470 Li1410 1.956 . S
O1470 Li1411 1.970 . S
O1470 C1440 1.325 . S
O1471 Li1409 1.961 . S
O1471 Li1410 1.970 . S
O1471 Li1411 1.956 . S
O1471 C1446 1.325 . S
H1472 C1414 0.929 . S
H1473 C1415 0.930 . S
H1474 C1416 0.930 1_565 S
H1475 C1417 0.930 . S
H1476 C1419 0.930 . S
H1477 C1421 0.929 . S
H1478 C1422 0.930 . S
H1479 C1423 0.930 . S
H1480 C1426 0.930 . S
H1481 C1429 0.929 . S
H1482 C1434 0.929 . S
H1483 C1435 0.921 1_565 S
H1484 C1442 0.929 . S
H1485 C1443 0.930 . S
H1486 C1444 0.930 . S
H1487 C1445 0.930 . S
H1488 C1447 0.929 . S
H1489 C1448 0.930 . S
H1490 C1449 0.930 . S
H1491 C1450 0.930 . S
H1492 C1454 0.929 . S
H1493 C1456 0.930 . S
H1494 C1462 0.929 . S
H1495 C1463 0.930 . S
Li1496 N1513 1.990 . S
Li1496 O1556 1.956 . S
Li1496 O1557 1.970 . S
Li1496 O1558 1.961 . S
Li1497 N1521 1.990 . S
Li1497 O1556 1.970 . S
Li1497 O1557 1.956 . S
Li1497 O1559 1.961 . S
Li1498 N1543 1.990 . S
Li1498 O1556 1.961 . S
Li1498 O1558 1.956 . S
Li1498 O1559 1.970 . S
Li1499 N1549 1.990 . S
Li1499 O1557 1.961 . S
Li1499 O1558 1.970 . S
Li1499 O1559 1.956 . S
C1500 C1502 1.348 . S
C1500 C1503 1.356 . S
C1500 O1556 1.325 . S
N1501 C1504 1.314 . S
N1501 C1505 1.279 . S
C1502 C1500 1.348 . S
C1502 C1504 1.353 . S
C1502 H1560 0.929 . S
C1503 C1500 1.356 . S
C1503 C1505 1.358 . S
C1503 H1561 0.930 . S
C1504 N1501 1.314 . S
C1504 C1502 1.353 . S
C1504 H1562 0.930 . S
C1505 N1501 1.279 . S
C1505 C1503 1.358 . S
C1505 H1563 0.930 . S
C1506 C1509 1.348 . S
C1506 C1510 1.356 . S
C1506 O1557 1.325 . S
C1507 N1508 1.279 . S
C1507 C1510 1.358 . S
C1507 H1564 0.930 . S
N1508 C1507 1.279 . S
N1508 C1511 1.314 . S
C1509 C1506 1.348 . S
C1509 C1511 1.353 . S
C1509 H1565 0.929 . S
C1510 C1506 1.356 . S
C1510 C1507 1.358 . S
C1510 H1566 0.930 . S
C1511 N1508 1.314 . S
C1511 C1509 1.353 . S
C1511 H1567 0.930 . S
C1512 N1513 1.314 . S
C1512 C1517 1.353 . S
C1512 H1518 0.930 . S
N1513 Li1496 1.990 . S
N1513 C1512 1.314 . S
N1513 C1515 1.279 . S
C1514 C1515 1.358 . S
C1514 C1516 1.356 . S
C1514 H1568 0.930 . S
C1515 N1513 1.279 . S
C1515 C1514 1.358 . S
C1515 H1519 0.930 . S
C1516 C1514 1.356 . S
C1516 C1517 1.348 . S
C1517 C1512 1.353 . S
C1517 C1516 1.348 . S
C1517 H1569 0.929 . S
H1518 C1512 0.930 . S
H1519 C1515 0.930 . S
C1520 N1521 1.314 . S
C1520 C1522 1.353 . S
C1520 H1526 0.930 . S
N1521 Li1497 1.990 . S
N1521 C1520 1.314 . S
N1521 C1524 1.279 . S
C1522 C1520 1.353 . S
C1522 C1525 1.348 . S
C1522 H1570 0.929 . S
C1523 C1524 1.358 . S
C1523 C1525 1.356 . S
C1523 H1571 0.930 . S
C1524 N1521 1.279 . S
C1524 C1523 1.358 . S
C1524 H1527 0.930 . S
C1525 C1522 1.348 . S
C1525 C1523 1.356 . S
H1526 C1520 0.930 . S
H1527 C1524 0.930 . S
C1528 C1530 1.348 . S
C1528 C1531 1.356 . S
C1528 O1558 1.325 . S
N1529 C1532 1.314 . S
N1529 C1533 1.279 . S
C1530 C1528 1.348 . S
C1530 C1532 1.353 . S
C1530 H1572 0.929 . S
C1531 C1528 1.356 . S
C1531 C1533 1.358 . S
C1531 H1573 0.930 . S
C1532 N1529 1.314 . S
C1532 C1530 1.353 . S
C1532 H1574 0.930 . S
C1533 N1529 1.279 . S
C1533 C1531 1.358 . S
C1533 H1575 0.930 . S
C1534 C1535 1.348 . S
C1534 C1536 1.356 . S
C1534 O1559 1.325 . S
C1535 C1534 1.348 . S
C1535 C1537 1.353 . S
C1535 H1576 0.929 . S
C1536 C1534 1.356 . S
C1536 C1538 1.358 . S
C1536 H1577 0.930 . S
C1537 C1535 1.353 . S
C1537 N1539 1.314 . S
C1537 H1578 0.930 . S
C1538 C1536 1.358 . S
C1538 N1539 1.279 . S
C1538 H1579 0.930 . S
N1539 C1537 1.314 . S
N1539 C1538 1.279 . S
C1540 C1542 1.353 . S
C1540 N1543 1.314 . S
C1540 H1546 0.930 . S
C1541 N1543 1.279 . S
C1541 C1544 1.358 . S
C1541 H1547 0.930 . S
C1542 C1540 1.353 . S
C1542 C1545 1.348 . S
C1542 H1580 0.929 . S
N1543 Li1498 1.990 . S
N1543 C1540 1.314 . S
N1543 C1541 1.279 . S
C1544 C1541 1.358 . S
C1544 C1545 1.356 . S
C1544 H1581 0.930 . S
C1545 C1542 1.348 . S
C1545 C1544 1.356 . S
H1546 C1540 0.930 . S
H1547 C1541 0.930 . S
C1548 N1549 1.314 . S
C1548 C1550 1.353 . S
C1548 H1554 0.930 . S
N1549 Li1499 1.990 . S
N1549 C1548 1.314 . S
N1549 C1552 1.279 . S
C1550 C1548 1.353 . S
C1550 C1553 1.348 . S
C1550 H1582 0.929 . S
C1551 C1552 1.358 . S
C1551 C1553 1.356 . S
C1551 H1583 0.930 . S
C1552 N1549 1.279 . S
C1552 C1551 1.358 . S
C1552 H1555 0.930 . S
C1553 C1550 1.348 . S
C1553 C1551 1.356 . S
H1554 C1548 0.930 . S
H1555 C1552 0.930 . S
O1556 Li1496 1.956 . S
O1556 Li1497 1.970 . S
O1556 Li1498 1.961 . S
O1556 C1500 1.325 . S
O1557 Li1496 1.970 . S
O1557 Li1497 1.956 . S
O1557 Li1499 1.961 . S
O1557 C1506 1.325 . S
O1558 Li1496 1.961 . S
O1558 Li1498 1.956 . S
O1558 Li1499 1.970 . S
O1558 C1528 1.325 . S
O1559 Li1497 1.961 . S
O1559 Li1498 1.970 . S
O1559 Li1499 1.956 . S
O1559 C1534 1.325 . S
H1560 C1502 0.929 . S
H1561 C1503 0.930 . S
H1562 C1504 0.930 . S
H1563 C1505 0.930 . S
H1564 C1507 0.930 . S
H1565 C1509 0.929 . S
H1566 C1510 0.930 . S
H1567 C1511 0.930 . S
H1568 C1514 0.930 . S
H1569 C1517 0.929 . S
H1570 C1522 0.929 . S
H1571 C1523 0.930 . S
H1572 C1530 0.929 . S
H1573 C1531 0.930 . S
H1574 C1532 0.930 . S
H1575 C1533 0.930 . S
H1576 C1535 0.929 . S
H1577 C1536 0.930 . S
H1578 C1537 0.930 . S
H1579 C1538 0.930 . S
H1580 C1542 0.929 . S
H1581 C1544 0.930 . S
H1582 C1550 0.929 . S
H1583 C1551 0.930 . S
Li1584 N1601 1.990 . S
Li1584 O1644 1.956 . S
Li1584 O1645 1.970 . S
Li1584 O1646 1.961 . S
Li1585 N1609 1.990 . S
Li1585 O1644 1.970 . S
Li1585 O1645 1.956 . S
Li1585 O1647 1.961 . S
Li1586 N1631 1.990 . S
Li1586 O1644 1.961 . S
Li1586 O1646 1.956 . S
Li1586 O1647 1.970 . S
Li1587 N1637 1.990 . S
Li1587 O1645 1.961 . S
Li1587 O1646 1.970 . S
Li1587 O1647 1.956 . S
C1588 C1590 1.348 . S
C1588 C1591 1.356 . S
C1588 O1644 1.325 . S
N1589 C1592 1.314 . S
N1589 C1593 1.279 . S
C1590 C1588 1.348 . S
C1590 C1592 1.353 . S
C1590 H1648 0.929 . S
C1591 C1588 1.356 . S
C1591 C1593 1.358 . S
C1591 H1649 0.930 . S
C1592 N1589 1.314 . S
C1592 C1590 1.353 . S
C1592 H1650 0.930 . S
C1593 N1589 1.279 . S
C1593 C1591 1.358 . S
C1593 H1651 0.930 . S
C1594 C1597 1.348 . S
C1594 C1598 1.356 . S
C1594 O1645 1.325 . S
C1595 N1596 1.279 . S
C1595 C1598 1.358 . S
C1595 H1652 0.930 . S
N1596 C1595 1.279 . S
N1596 C1599 1.314 . S
C1597 C1594 1.348 . S
C1597 C1599 1.353 . S
C1597 H1653 0.929 . S
C1598 C1594 1.356 . S
C1598 C1595 1.358 . S
C1598 H1654 0.930 . S
C1599 N1596 1.314 . S
C1599 C1597 1.353 . S
C1599 H1655 0.930 . S
C1600 N1601 1.314 . S
C1600 C1605 1.353 . S
C1600 H1606 0.930 . S
N1601 Li1584 1.990 . S
N1601 C1600 1.314 . S
N1601 C1603 1.279 . S
C1602 C1603 1.358 . S
C1602 C1604 1.356 . S
C1602 H1656 0.930 . S
C1603 N1601 1.279 . S
C1603 C1602 1.358 . S
C1603 H1607 0.930 . S
C1604 C1602 1.356 . S
C1604 C1605 1.348 . S
C1605 C1600 1.353 . S
C1605 C1604 1.348 . S
C1605 H1657 0.929 . S
H1606 C1600 0.930 . S
H1607 C1603 0.930 . S
C1608 N1609 1.314 . S
C1608 C1610 1.353 . S
C1608 H1614 0.930 . S
N1609 Li1585 1.990 . S
N1609 C1608 1.314 . S
N1609 C1612 1.279 . S
C1610 C1608 1.353 . S
C1610 C1613 1.348 . S
C1610 H1658 0.929 . S
C1611 C1612 1.358 . S
C1611 C1613 1.356 . S
C1611 H1659 0.930 . S
C1612 N1609 1.279 . S
C1612 C1611 1.358 . S
C1612 H1615 0.930 . S
C1613 C1610 1.348 . S
C1613 C1611 1.356 . S
H1614 C1608 0.930 . S
H1615 C1612 0.930 . S
C1616 C1618 1.348 . S
C1616 C1619 1.356 . S
C1616 O1646 1.325 . S
N1617 C1620 1.314 . S
N1617 C1621 1.279 . S
C1618 C1616 1.348 . S
C1618 C1620 1.353 . S
C1618 H1660 0.929 . S
C1619 C1616 1.356 . S
C1619 C1621 1.358 . S
C1619 H1661 0.930 . S
C1620 N1617 1.314 . S
C1620 C1618 1.353 . S
C1620 H1662 0.930 . S
C1621 N1617 1.279 . S
C1621 C1619 1.358 . S
C1621 H1663 0.930 . S
C1622 C1623 1.348 . S
C1622 C1624 1.356 . S
C1622 O1647 1.325 . S
C1623 C1622 1.348 . S
C1623 C1625 1.353 . S
C1623 H1664 0.929 . S
C1624 C1622 1.356 . S
C1624 C1626 1.358 . S
C1624 H1665 0.930 . S
C1625 C1623 1.353 . S
C1625 N1627 1.314 . S
C1625 H1666 0.930 . S
C1626 C1624 1.358 . S
C1626 N1627 1.279 . S
C1626 H1667 0.930 . S
N1627 C1625 1.314 . S
N1627 C1626 1.279 . S
C1628 C1630 1.353 . S
C1628 N1631 1.314 . S
C1628 H1634 0.930 . S
C1629 N1631 1.279 . S
C1629 C1632 1.358 . S
C1629 H1635 0.930 . S
C1630 C1628 1.353 . S
C1630 C1633 1.348 . S
C1630 H1668 0.929 . S
N1631 Li1586 1.990 . S
N1631 C1628 1.314 . S
N1631 C1629 1.279 . S
C1632 C1629 1.358 . S
C1632 C1633 1.356 . S
C1632 H1669 0.930 . S
C1633 C1630 1.348 . S
C1633 C1632 1.356 . S
H1634 C1628 0.930 . S
H1635 C1629 0.930 . S
C1636 N1637 1.314 . S
C1636 C1638 1.353 . S
C1636 H1642 0.930 . S
N1637 Li1587 1.990 . S
N1637 C1636 1.314 . S
N1637 C1640 1.279 . S
C1638 C1636 1.353 . S
C1638 C1641 1.348 . S
C1638 H1670 0.929 . S
C1639 C1640 1.358 . S
C1639 C1641 1.356 . S
C1639 H1671 0.930 . S
C1640 N1637 1.279 . S
C1640 C1639 1.358 . S
C1640 H1643 0.930 . S
C1641 C1638 1.348 . S
C1641 C1639 1.356 . S
H1642 C1636 0.930 . S
H1643 C1640 0.930 . S
O1644 Li1584 1.956 . S
O1644 Li1585 1.970 . S
O1644 Li1586 1.961 . S
O1644 C1588 1.325 . S
O1645 Li1584 1.970 . S
O1645 Li1585 1.956 . S
O1645 Li1587 1.961 . S
O1645 C1594 1.325 . S
O1646 Li1584 1.961 . S
O1646 Li1586 1.956 . S
O1646 Li1587 1.970 . S
O1646 C1616 1.325 . S
O1647 Li1585 1.961 . S
O1647 Li1586 1.970 . S
O1647 Li1587 1.956 . S
O1647 C1622 1.325 . S
H1648 C1590 0.929 . S
H1649 C1591 0.930 . S
H1650 C1592 0.930 . S
H1651 C1593 0.930 . S
H1652 C1595 0.930 . S
H1653 C1597 0.929 . S
H1654 C1598 0.930 . S
H1655 C1599 0.930 . S
H1656 C1602 0.930 . S
H1657 C1605 0.929 . S
H1658 C1610 0.929 . S
H1659 C1611 0.930 . S
H1660 C1618 0.929 . S
H1661 C1619 0.930 . S
H1662 C1620 0.930 . S
H1663 C1621 0.930 . S
H1664 C1623 0.929 . S
H1665 C1624 0.930 . S
H1666 C1625 0.930 . S
H1667 C1626 0.930 . S
H1668 C1630 0.929 . S
H1669 C1632 0.930 . S
H1670 C1638 0.929 . S
H1671 C1639 0.930 . S
Li1672 N1689 1.990 . S
Li1672 O1732 1.956 . S
Li1672 O1733 1.970 . S
Li1672 O1734 1.961 . S
Li1673 N1697 1.990 . S
Li1673 O1732 1.970 . S
Li1673 O1733 1.956 . S
Li1673 O1735 1.961 . S
Li1674 N1719 1.990 . S
Li1674 O1732 1.961 . S
Li1674 O1734 1.956 . S
Li1674 O1735 1.970 . S
Li1675 N1725 1.990 . S
Li1675 O1733 1.961 . S
Li1675 O1734 1.970 . S
Li1675 O1735 1.956 . S
C1676 C1678 1.348 . S
C1676 C1679 1.356 . S
C1676 O1732 1.325 . S
N1677 C1680 1.314 . S
N1677 C1681 1.279 . S
C1678 C1676 1.348 . S
C1678 C1680 1.353 . S
C1678 H1736 0.929 . S
C1679 C1676 1.356 . S
C1679 C1681 1.358 . S
C1679 H1737 0.930 . S
C1680 N1677 1.314 . S
C1680 C1678 1.353 . S
C1680 H1738 0.930 . S
C1681 N1677 1.279 . S
C1681 C1679 1.358 . S
C1681 H1739 0.930 . S
C1682 C1685 1.348 . S
C1682 C1686 1.356 . S
C1682 O1733 1.325 . S
C1683 N1684 1.279 . S
C1683 C1686 1.358 . S
C1683 H1740 0.930 . S
N1684 C1683 1.279 . S
N1684 C1687 1.314 . S
C1685 C1682 1.348 . S
C1685 C1687 1.353 . S
C1685 H1741 0.929 . S
C1686 C1682 1.356 . S
C1686 C1683 1.358 . S
C1686 H1742 0.930 . S
C1687 N1684 1.314 . S
C1687 C1685 1.353 . S
C1687 H1743 0.930 . S
C1688 N1689 1.314 . S
C1688 C1693 1.353 . S
C1688 H1694 0.930 . S
N1689 Li1672 1.990 . S
N1689 C1688 1.314 . S
N1689 C1691 1.279 . S
C1690 C1691 1.358 . S
C1690 C1692 1.356 . S
C1690 H1744 0.930 . S
C1691 N1689 1.279 . S
C1691 C1690 1.358 . S
C1691 H1695 0.930 . S
C1692 C1690 1.356 . S
C1692 C1693 1.348 . S
C1693 C1688 1.353 . S
C1693 C1692 1.348 . S
C1693 H1745 0.929 . S
H1694 C1688 0.930 . S
H1695 C1691 0.930 . S
C1696 N1697 1.314 . S
C1696 C1698 1.353 . S
C1696 H1702 0.930 . S
N1697 Li1673 1.990 . S
N1697 C1696 1.314 . S
N1697 C1700 1.279 . S
C1698 C1696 1.353 . S
C1698 C1701 1.348 . S
C1698 H1746 0.929 . S
C1699 C1700 1.358 . S
C1699 C1701 1.356 . S
C1699 H1747 0.930 . S
C1700 N1697 1.279 . S
C1700 C1699 1.358 . S
C1700 H1703 0.930 . S
C1701 C1698 1.348 . S
C1701 C1699 1.356 . S
H1702 C1696 0.930 . S
H1703 C1700 0.930 . S
C1704 C1706 1.389 . S
C1704 C1707 1.356 . S
C1704 O1734 1.325 . S
N1705 C1708 1.314 . S
N1705 C1709 1.279 . S
C1706 C1704 1.389 . S
C1706 C1708 1.321 1_545 S
C1706 H1748 0.926 . S
C1707 C1704 1.356 . S
C1707 C1709 1.358 1_545 S
C1707 H1749 0.930 . S
C1708 N1705 1.314 . S
C1708 C1706 1.321 1_565 S
C1708 H1750 0.930 . S
C1709 N1705 1.279 . S
C1709 C1707 1.358 1_565 S
C1709 H1751 0.930 . S
C1710 C1711 1.348 . S
C1710 C1712 1.356 . S
C1710 O1735 1.325 . S
C1711 C1710 1.348 . S
C1711 C1713 1.353 . S
C1711 H1752 0.929 . S
C1712 C1710 1.356 . S
C1712 C1714 1.358 . S
C1712 H1753 0.930 . S
C1713 C1711 1.353 . S
C1713 N1715 1.314 . S
C1713 H1754 0.930 . S
C1714 C1712 1.358 . S
C1714 N1715 1.279 . S
C1714 H1755 0.930 . S
N1715 C1713 1.314 . S
N1715 C1714 1.279 . S
C1716 C1718 1.353 . S
C1716 N1719 1.314 . S
C1716 H1722 0.930 . S
C1717 N1719 1.279 . S
C1717 C1720 1.358 . S
C1717 H1723 0.930 . S
C1718 C1716 1.353 . S
C1718 C1721 1.348 . S
C1718 H1756 0.929 . S
N1719 Li1674 1.990 . S
N1719 C1716 1.314 . S
N1719 C1717 1.279 . S
C1720 C1717 1.358 . S
C1720 C1721 1.356 . S
C1720 H1757 0.930 . S
C1721 C1718 1.348 . S
C1721 C1720 1.356 . S
H1722 C1716 0.930 . S
H1723 C1717 0.930 . S
C1724 N1725 1.314 . S
C1724 C1726 1.353 1_545 S
C1724 H1730 0.930 . S
N1725 Li1675 1.990 . S
N1725 C1724 1.314 . S
N1725 C1728 1.279 . S
C1726 C1724 1.353 1_565 S
C1726 C1729 1.348 . S
C1726 H1758 0.929 . S
C1727 C1728 1.357 1_565 S
C1727 C1729 1.357 . S
C1727 H1759 0.930 . S
C1728 N1725 1.279 . S
C1728 C1727 1.357 1_545 S
C1728 H1731 0.930 . S
C1729 C1726 1.348 . S
C1729 C1727 1.357 . S
H1730 C1724 0.930 . S
H1731 C1728 0.930 . S
O1732 Li1672 1.956 . S
O1732 Li1673 1.970 . S
O1732 Li1674 1.961 . S
O1732 C1676 1.325 . S
O1733 Li1672 1.970 . S
O1733 Li1673 1.956 . S
O1733 Li1675 1.961 . S
O1733 C1682 1.325 . S
O1734 Li1672 1.961 . S
O1734 Li1674 1.956 . S
O1734 Li1675 1.970 . S
O1734 C1704 1.325 . S
O1735 Li1673 1.961 . S
O1735 Li1674 1.970 . S
O1735 Li1675 1.956 . S
O1735 C1710 1.325 . S
H1736 C1678 0.929 . S
H1737 C1679 0.930 . S
H1738 C1680 0.930 . S
H1739 C1681 0.930 . S
H1740 C1683 0.930 . S
H1741 C1685 0.929 . S
H1742 C1686 0.930 . S
H1743 C1687 0.930 . S
H1744 C1690 0.930 . S
H1745 C1693 0.929 . S
H1746 C1698 0.929 . S
H1747 C1699 0.930 . S
H1748 C1706 0.926 . S
H1749 C1707 0.930 . S
H1750 C1708 0.930 . S
H1751 C1709 0.930 . S
H1752 C1711 0.929 . S
H1753 C1712 0.930 . S
H1754 C1713 0.930 . S
H1755 C1714 0.930 . S
H1756 C1718 0.929 . S
H1757 C1720 0.930 . S
H1758 C1726 0.929 . S
H1759 C1727 0.930 . S
Li1760 N1777 1.990 . S
Li1760 O1820 1.956 . S
Li1760 O1821 1.970 . S
Li1760 O1822 1.961 . S
Li1761 N1785 1.990 . S
Li1761 O1820 1.970 . S
Li1761 O1821 1.956 . S
Li1761 O1823 1.961 1_554 S
Li1762 N1807 1.990 . S
Li1762 O1820 1.961 1_556 S
Li1762 O1822 1.956 1_556 S
Li1762 O1823 1.970 . S
Li1763 N1813 1.990 1_554 S
Li1763 O1821 1.961 . S
Li1763 O1822 1.970 . S
Li1763 O1823 1.956 1_554 S
C1764 C1766 1.348 . S
C1764 C1767 1.356 . S
C1764 O1820 1.325 . S
N1765 C1768 1.314 . S
N1765 C1769 1.279 . S
C1766 C1764 1.348 . S
C1766 C1768 1.353 . S
C1766 H1824 0.929 . S
C1767 C1764 1.356 . S
C1767 C1769 1.358 . S
C1767 H1825 0.930 . S
C1768 N1765 1.314 . S
C1768 C1766 1.353 . S
C1768 H1826 0.930 . S
C1769 N1765 1.279 . S
C1769 C1767 1.358 . S
C1769 H1827 0.930 . S
C1770 C1773 1.348 . S
C1770 C1774 1.356 . S
C1770 O1821 1.325 . S
C1771 N1772 1.279 . S
C1771 C1774 1.358 . S
C1771 H1828 0.930 . S
N1772 C1771 1.279 . S
N1772 C1775 1.314 . S
C1773 C1770 1.348 . S
C1773 C1775 1.353 . S
C1773 H1829 0.929 . S
C1774 C1770 1.356 . S
C1774 C1771 1.358 . S
C1774 H1830 0.930 . S
C1775 N1772 1.314 . S
C1775 C1773 1.353 . S
C1775 H1831 0.930 . S
C1776 N1777 1.314 . S
C1776 C1781 1.353 . S
C1776 H1782 0.930 . S
N1777 Li1760 1.990 . S
N1777 C1776 1.314 . S
N1777 C1779 1.279 . S
C1778 C1779 1.358 . S
C1778 C1780 1.356 . S
C1778 H1832 0.930 . S
C1779 N1777 1.279 . S
C1779 C1778 1.358 . S
C1779 H1783 0.930 . S
C1780 C1778 1.356 . S
C1780 C1781 1.348 . S
C1781 C1776 1.353 . S
C1781 C1780 1.348 . S
C1781 H1833 0.929 . S
H1782 C1776 0.930 . S
H1783 C1779 0.930 . S
C1784 N1785 1.314 1_556 S
C1784 C1786 1.353 . S
C1784 H1790 0.930 . S
N1785 Li1761 1.990 . S
N1785 C1784 1.314 1_554 S
N1785 C1788 1.279 . S
C1786 C1784 1.353 . S
C1786 C1789 1.348 1_556 S
C1786 H1834 0.929 . S
C1787 C1788 1.358 . S
C1787 C1789 1.356 . S
C1787 H1835 0.930 . S
C1788 N1785 1.279 . S
C1788 C1787 1.358 . S
C1788 H1791 0.930 . S
C1789 C1786 1.348 1_554 S
C1789 C1787 1.356 . S
H1790 C1784 0.930 . S
H1791 C1788 0.930 . S
C1792 C1794 1.348 1_554 S
C1792 C1795 1.356 . S
C1792 O1822 1.325 . S
N1793 C1796 1.308 1_554 S
N1793 C1797 1.279 . S
C1794 C1792 1.348 1_556 S
C1794 C1796 1.354 . S
C1794 H1836 0.929 . S
C1795 C1792 1.356 . S
C1795 C1797 1.358 . S
C1795 H1837 0.930 . S
C1796 N1793 1.308 1_556 S
C1796 C1794 1.354 . S
C1796 H1838 0.939 . S
C1797 N1793 1.279 . S
C1797 C1795 1.358 . S
C1797 H1839 0.930 . S
C1798 C1799 1.348 . S
C1798 C1800 1.356 . S
C1798 O1823 1.325 . S
C1799 C1798 1.348 . S
C1799 C1801 1.353 . S
C1799 H1840 0.929 . S
C1800 C1798 1.356 . S
C1800 C1802 1.358 . S
C1800 H1841 0.930 . S
C1801 C1799 1.353 . S
C1801 N1803 1.314 . S
C1801 H1842 0.930 . S
C1802 C1800 1.358 . S
C1802 N1803 1.279 . S
C1802 H1843 0.930 . S
N1803 C1801 1.314 . S
N1803 C1802 1.279 . S
C1804 C1806 1.353 . S
C1804 N1807 1.314 . S
C1804 H1810 0.930 . S
C1805 N1807 1.279 . S
C1805 C1808 1.358 . S
C1805 H1811 0.930 . S
C1806 C1804 1.353 . S
C1806 C1809 1.348 . S
C1806 H1844 0.929 . S
N1807 Li1762 1.990 . S
N1807 C1804 1.314 . S
N1807 C1805 1.279 . S
C1808 C1805 1.358 . S
C1808 C1809 1.356 . S
C1808 H1845 0.930 . S
C1809 C1806 1.348 . S
C1809 C1808 1.356 . S
H1810 C1804 0.930 . S
H1811 C1805 0.930 . S
C1812 N1813 1.314 1_554 S
C1812 C1814 1.353 . S
C1812 H1818 0.930 . S
N1813 Li1763 1.990 1_556 S
N1813 C1812 1.314 1_556 S
N1813 C1816 1.279 . S
C1814 C1812 1.353 . S
C1814 C1817 1.348 1_554 S
C1814 H1846 0.929 . S
C1815 C1816 1.358 . S
C1815 C1817 1.356 . S
C1815 H1847 0.930 . S
C1816 N1813 1.279 . S
C1816 C1815 1.358 . S
C1816 H1819 0.930 . S
C1817 C1814 1.348 1_556 S
C1817 C1815 1.356 . S
H1818 C1812 0.930 . S
H1819 C1816 0.930 . S
O1820 Li1760 1.956 . S
O1820 Li1761 1.970 . S
O1820 Li1762 1.961 1_554 S
O1820 C1764 1.325 . S
O1821 Li1760 1.970 . S
O1821 Li1761 1.956 . S
O1821 Li1763 1.961 . S
O1821 C1770 1.325 . S
O1822 Li1760 1.961 . S
O1822 Li1762 1.956 1_554 S
O1822 Li1763 1.970 . S
O1822 C1792 1.325 . S
O1823 Li1761 1.961 1_556 S
O1823 Li1762 1.970 . S
O1823 Li1763 1.956 1_556 S
O1823 C1798 1.325 . S
H1824 C1766 0.929 . S
H1825 C1767 0.930 . S
H1826 C1768 0.930 . S
H1827 C1769 0.930 . S
H1828 C1771 0.930 . S
H1829 C1773 0.929 . S
H1830 C1774 0.930 . S
H1831 C1775 0.930 . S
H1832 C1778 0.930 . S
H1833 C1781 0.929 . S
H1834 C1786 0.929 . S
H1835 C1787 0.930 . S
H1836 C1794 0.929 . S
H1837 C1795 0.930 . S
H1838 C1796 0.939 . S
H1839 C1797 0.930 . S
H1840 C1799 0.929 . S
H1841 C1800 0.930 . S
H1842 C1801 0.930 . S
H1843 C1802 0.930 . S
H1844 C1806 0.929 . S
H1845 C1808 0.930 . S
H1846 C1814 0.929 . S
H1847 C1815 0.930 . S
Li1848 N1865 1.990 . S
Li1848 O1908 1.956 . S
Li1848 O1909 1.970 . S
Li1848 O1910 1.961 . S
Li1849 N1873 1.990 . S
Li1849 O1908 1.970 . S
Li1849 O1909 1.956 . S
Li1849 O1911 1.961 . S
Li1850 N1895 1.990 . S
Li1850 O1908 1.961 . S
Li1850 O1910 1.956 . S
Li1850 O1911 1.970 . S
Li1851 N1901 1.990 . S
Li1851 O1909 1.961 . S
Li1851 O1910 1.970 . S
Li1851 O1911 1.956 . S
C1852 C1854 1.348 . S
C1852 C1855 1.356 . S
C1852 O1908 1.325 . S
N1853 C1856 1.314 . S
N1853 C1857 1.279 . S
C1854 C1852 1.348 . S
C1854 C1856 1.353 . S
C1854 H1912 0.929 . S
C1855 C1852 1.356 . S
C1855 C1857 1.358 . S
C1855 H1913 0.930 . S
C1856 N1853 1.314 . S
C1856 C1854 1.353 . S
C1856 H1914 0.930 . S
C1857 N1853 1.279 . S
C1857 C1855 1.358 . S
C1857 H1915 0.930 . S
C1858 C1861 1.348 . S
C1858 C1862 1.356 . S
C1858 O1909 1.325 . S
C1859 N1860 1.279 . S
C1859 C1862 1.358 . S
C1859 H1916 0.930 . S
N1860 C1859 1.279 . S
N1860 C1863 1.314 . S
C1861 C1858 1.348 . S
C1861 C1863 1.353 . S
C1861 H1917 0.929 . S
C1862 C1858 1.356 . S
C1862 C1859 1.358 . S
C1862 H1918 0.930 . S
C1863 N1860 1.314 . S
C1863 C1861 1.353 . S
C1863 H1919 0.930 . S
C1864 N1865 1.314 . S
C1864 C1869 1.353 . S
C1864 H1870 0.930 . S
N1865 Li1848 1.990 . S
N1865 C1864 1.314 . S
N1865 C1867 1.279 . S
C1866 C1867 1.358 . S
C1866 C1868 1.356 . S
C1866 H1920 0.930 . S
C1867 N1865 1.279 . S
C1867 C1866 1.358 . S
C1867 H1871 0.930 . S
C1868 C1866 1.356 . S
C1868 C1869 1.348 . S
C1869 C1864 1.353 . S
C1869 C1868 1.348 . S
C1869 H1921 0.929 . S
H1870 C1864 0.930 . S
H1871 C1867 0.930 . S
C1872 N1873 1.314 . S
C1872 C1874 1.353 . S
C1872 H1878 0.930 . S
N1873 Li1849 1.990 . S
N1873 C1872 1.314 . S
N1873 C1876 1.279 . S
C1874 C1872 1.353 . S
C1874 C1877 1.348 . S
C1874 H1922 0.929 . S
C1875 C1876 1.358 . S
C1875 C1877 1.356 . S
C1875 H1923 0.930 . S
C1876 N1873 1.279 . S
C1876 C1875 1.358 . S
C1876 H1879 0.930 . S
C1877 C1874 1.348 . S
C1877 C1875 1.356 . S
H1878 C1872 0.930 . S
H1879 C1876 0.930 . S
C1880 C1882 1.348 . S
C1880 C1883 1.356 . S
C1880 O1910 1.325 . S
N1881 C1884 1.314 . S
N1881 C1885 1.279 . S
C1882 C1880 1.348 . S
C1882 C1884 1.353 . S
C1882 H1924 0.929 . S
C1883 C1880 1.356 . S
C1883 C1885 1.358 . S
C1883 H1925 0.930 . S
C1884 N1881 1.314 . S
C1884 C1882 1.353 . S
C1884 H1926 0.930 . S
C1885 N1881 1.279 . S
C1885 C1883 1.358 . S
C1885 H1927 0.930 . S
C1886 C1887 1.348 . S
C1886 C1888 1.356 . S
C1886 O1911 1.325 . S
C1887 C1886 1.348 . S
C1887 C1889 1.353 . S
C1887 H1928 0.929 . S
C1888 C1886 1.356 . S
C1888 C1890 1.358 . S
C1888 H1929 0.930 . S
C1889 C1887 1.353 . S
C1889 N1891 1.314 . S
C1889 H1930 0.930 . S
C1890 C1888 1.358 . S
C1890 N1891 1.279 . S
C1890 H1931 0.930 . S
N1891 C1889 1.314 . S
N1891 C1890 1.279 . S
C1892 C1894 1.353 . S
C1892 N1895 1.314 . S
C1892 H1898 0.930 . S
C1893 N1895 1.279 . S
C1893 C1896 1.358 . S
C1893 H1899 0.930 . S
C1894 C1892 1.353 . S
C1894 C1897 1.348 . S
C1894 H1932 0.929 . S
N1895 Li1850 1.990 . S
N1895 C1892 1.314 . S
N1895 C1893 1.279 . S
C1896 C1893 1.358 . S
C1896 C1897 1.356 . S
C1896 H1933 0.930 . S
C1897 C1894 1.348 . S
C1897 C1896 1.356 . S
H1898 C1892 0.930 . S
H1899 C1893 0.930 . S
C1900 N1901 1.314 . S
C1900 C1902 1.353 . S
C1900 H1906 0.930 . S
N1901 Li1851 1.990 . S
N1901 C1900 1.314 . S
N1901 C1904 1.279 . S
C1902 C1900 1.353 . S
C1902 C1905 1.348 . S
C1902 H1934 0.929 . S
C1903 C1904 1.358 . S
C1903 C1905 1.356 . S
C1903 H1935 0.930 . S
C1904 N1901 1.279 . S
C1904 C1903 1.358 . S
C1904 H1907 0.930 . S
C1905 C1902 1.348 . S
C1905 C1903 1.356 . S
H1906 C1900 0.930 . S
H1907 C1904 0.930 . S
O1908 Li1848 1.956 . S
O1908 Li1849 1.970 . S
O1908 Li1850 1.961 . S
O1908 C1852 1.325 . S
O1909 Li1848 1.970 . S
O1909 Li1849 1.956 . S
O1909 Li1851 1.961 . S
O1909 C1858 1.325 . S
O1910 Li1848 1.961 . S
O1910 Li1850 1.956 . S
O1910 Li1851 1.970 . S
O1910 C1880 1.325 . S
O1911 Li1849 1.961 . S
O1911 Li1850 1.970 . S
O1911 Li1851 1.956 . S
O1911 C1886 1.325 . S
H1912 C1854 0.929 . S
H1913 C1855 0.930 . S
H1914 C1856 0.930 . S
H1915 C1857 0.930 . S
H1916 C1859 0.930 . S
H1917 C1861 0.929 . S
H1918 C1862 0.930 . S
H1919 C1863 0.930 . S
H1920 C1866 0.930 . S
H1921 C1869 0.929 . S
H1922 C1874 0.929 . S
H1923 C1875 0.930 . S
H1924 C1882 0.929 . S
H1925 C1883 0.930 . S
H1926 C1884 0.930 . S
H1927 C1885 0.930 . S
H1928 C1887 0.929 . S
H1929 C1888 0.930 . S
H1930 C1889 0.930 . S
H1931 C1890 0.930 . S
H1932 C1894 0.929 . S
H1933 C1896 0.930 . S
H1934 C1902 0.929 . S
H1935 C1903 0.930 . S
Li1936 N1953 1.990 . S
Li1936 O1996 1.956 . S
Li1936 O1997 1.970 . S
Li1936 O1998 1.961 . S
Li1937 N1961 1.990 . S
Li1937 O1996 1.970 . S
Li1937 O1997 1.956 . S
Li1937 O1999 1.961 . S
Li1938 N1983 1.990 . S
Li1938 O1996 1.961 . S
Li1938 O1998 1.956 . S
Li1938 O1999 1.970 . S
Li1939 N1989 1.990 . S
Li1939 O1997 1.961 . S
Li1939 O1998 1.970 . S
Li1939 O1999 1.956 . S
C1940 C1942 1.348 . S
C1940 C1943 1.356 . S
C1940 O1996 1.325 . S
N1941 C1944 1.314 . S
N1941 C1945 1.279 . S
C1942 C1940 1.348 . S
C1942 C1944 1.353 . S
C1942 H2000 0.929 . S
C1943 C1940 1.356 . S
C1943 C1945 1.358 . S
C1943 H2001 0.930 . S
C1944 N1941 1.314 . S
C1944 C1942 1.353 . S
C1944 H2002 0.930 . S
C1945 N1941 1.279 . S
C1945 C1943 1.358 . S
C1945 H2003 0.930 . S
C1946 C1949 1.348 . S
C1946 C1950 1.356 . S
C1946 O1997 1.325 . S
C1947 N1948 1.279 . S
C1947 C1950 1.358 . S
C1947 H2004 0.930 . S
N1948 C1947 1.279 . S
N1948 C1951 1.314 . S
C1949 C1946 1.348 . S
C1949 C1951 1.353 . S
C1949 H2005 0.929 . S
C1950 C1946 1.356 . S
C1950 C1947 1.358 . S
C1950 H2006 0.930 . S
C1951 N1948 1.314 . S
C1951 C1949 1.353 . S
C1951 H2007 0.930 . S
C1952 N1953 1.314 . S
C1952 C1957 1.353 . S
C1952 H1958 0.930 . S
N1953 Li1936 1.990 . S
N1953 C1952 1.314 . S
N1953 C1955 1.279 . S
C1954 C1955 1.358 . S
C1954 C1956 1.356 . S
C1954 H2008 0.930 . S
C1955 N1953 1.279 . S
C1955 C1954 1.358 . S
C1955 H1959 0.930 . S
C1956 C1954 1.356 . S
C1956 C1957 1.348 . S
C1957 C1952 1.353 . S
C1957 C1956 1.348 . S
C1957 H2009 0.929 . S
H1958 C1952 0.930 . S
H1959 C1955 0.930 . S
C1960 N1961 1.314 . S
C1960 C1962 1.353 . S
C1960 H1966 0.930 . S
N1961 Li1937 1.990 . S
N1961 C1960 1.314 . S
N1961 C1964 1.279 . S
C1962 C1960 1.353 . S
C1962 C1965 1.348 . S
C1962 H2010 0.929 . S
C1963 C1964 1.358 . S
C1963 C1965 1.356 . S
C1963 H2011 0.930 . S
C1964 N1961 1.279 . S
C1964 C1963 1.358 . S
C1964 H1967 0.930 . S
C1965 C1962 1.348 . S
C1965 C1963 1.356 . S
H1966 C1960 0.930 . S
H1967 C1964 0.930 . S
C1968 C1970 1.348 . S
C1968 C1971 1.356 . S
C1968 O1998 1.325 . S
N1969 C1972 1.314 . S
N1969 C1973 1.279 . S
C1970 C1968 1.348 . S
C1970 C1972 1.353 . S
C1970 H2012 0.929 . S
C1971 C1968 1.356 . S
C1971 C1973 1.358 . S
C1971 H2013 0.930 . S
C1972 N1969 1.314 . S
C1972 C1970 1.353 . S
C1972 H2014 0.930 . S
C1973 N1969 1.279 . S
C1973 C1971 1.358 . S
C1973 H2015 0.930 . S
C1974 C1975 1.348 . S
C1974 C1976 1.356 . S
C1974 O1999 1.325 . S
C1975 C1974 1.348 . S
C1975 C1977 1.353 . S
C1975 H2016 0.929 . S
C1976 C1974 1.356 . S
C1976 C1978 1.358 . S
C1976 H2017 0.930 . S
C1977 C1975 1.353 . S
C1977 N1979 1.314 . S
C1977 H2018 0.930 . S
C1978 C1976 1.358 . S
C1978 N1979 1.279 . S
C1978 H2019 0.930 . S
N1979 C1977 1.314 . S
N1979 C1978 1.279 . S
C1980 C1982 1.353 . S
C1980 N1983 1.314 . S
C1980 H1986 0.930 . S
C1981 N1983 1.279 . S
C1981 C1984 1.358 . S
C1981 H1987 0.930 . S
C1982 C1980 1.353 . S
C1982 C1985 1.348 . S
C1982 H2020 0.929 . S
N1983 Li1938 1.990 . S
N1983 C1980 1.314 . S
N1983 C1981 1.279 . S
C1984 C1981 1.358 . S
C1984 C1985 1.356 . S
C1984 H2021 0.930 . S
C1985 C1982 1.348 . S
C1985 C1984 1.356 . S
H1986 C1980 0.930 . S
H1987 C1981 0.930 . S
C1988 N1989 1.314 . S
C1988 C1990 1.353 . S
C1988 H1994 0.930 . S
N1989 Li1939 1.990 . S
N1989 C1988 1.314 . S
N1989 C1992 1.279 . S
C1990 C1988 1.353 . S
C1990 C1993 1.348 . S
C1990 H2022 0.929 . S
C1991 C1992 1.358 . S
C1991 C1993 1.356 . S
C1991 H2023 0.930 . S
C1992 N1989 1.279 . S
C1992 C1991 1.358 . S
C1992 H1995 0.930 . S
C1993 C1990 1.348 . S
C1993 C1991 1.356 . S
H1994 C1988 0.930 . S
H1995 C1992 0.930 . S
O1996 Li1936 1.956 . S
O1996 Li1937 1.970 . S
O1996 Li1938 1.961 . S
O1996 C1940 1.325 . S
O1997 Li1936 1.970 . S
O1997 Li1937 1.956 . S
O1997 Li1939 1.961 . S
O1997 C1946 1.325 . S
O1998 Li1936 1.961 . S
O1998 Li1938 1.956 . S
O1998 Li1939 1.970 . S
O1998 C1968 1.325 . S
O1999 Li1937 1.961 . S
O1999 Li1938 1.970 . S
O1999 Li1939 1.956 . S
O1999 C1974 1.325 . S
H2000 C1942 0.929 . S
H2001 C1943 0.930 . S
H2002 C1944 0.930 . S
H2003 C1945 0.930 . S
H2004 C1947 0.930 . S
H2005 C1949 0.929 . S
H2006 C1950 0.930 . S
H2007 C1951 0.930 . S
H2008 C1954 0.930 . S
H2009 C1957 0.929 . S
H2010 C1962 0.929 . S
H2011 C1963 0.930 . S
H2012 C1970 0.929 . S
H2013 C1971 0.930 . S
H2014 C1972 0.930 . S
H2015 C1973 0.930 . S
H2016 C1975 0.929 . S
H2017 C1976 0.930 . S
H2018 C1977 0.930 . S
H2019 C1978 0.930 . S
H2020 C1982 0.929 . S
H2021 C1984 0.930 . S
H2022 C1990 0.929 . S
H2023 C1991 0.930 . S
Li2024 N2041 1.990 . S
Li2024 O2084 1.956 . S
Li2024 O2085 1.970 . S
Li2024 O2086 1.961 . S
Li2025 N2049 1.990 . S
Li2025 O2084 1.970 . S
Li2025 O2085 1.956 . S
Li2025 O2087 1.961 . S
Li2026 N2071 1.990 . S
Li2026 O2084 1.961 . S
Li2026 O2086 1.956 . S
Li2026 O2087 1.970 . S
Li2027 N2077 1.990 . S
Li2027 O2085 1.961 . S
Li2027 O2086 1.970 . S
Li2027 O2087 1.956 . S
C2028 C2030 1.348 . S
C2028 C2031 1.356 . S
C2028 O2084 1.325 . S
N2029 C2032 1.314 . S
N2029 C2033 1.279 . S
C2030 C2028 1.348 . S
C2030 C2032 1.353 . S
C2030 H2088 0.929 . S
C2031 C2028 1.356 . S
C2031 C2033 1.358 . S
C2031 H2089 0.930 . S
C2032 N2029 1.314 . S
C2032 C2030 1.353 . S
C2032 H2090 0.930 . S
C2033 N2029 1.279 . S
C2033 C2031 1.358 . S
C2033 H2091 0.930 . S
C2034 C2037 1.348 . S
C2034 C2038 1.356 . S
C2034 O2085 1.325 . S
C2035 N2036 1.279 . S
C2035 C2038 1.358 . S
C2035 H2092 0.930 . S
N2036 C2035 1.279 . S
N2036 C2039 1.314 . S
C2037 C2034 1.348 . S
C2037 C2039 1.353 . S
C2037 H2093 0.929 . S
C2038 C2034 1.356 . S
C2038 C2035 1.358 . S
C2038 H2094 0.930 . S
C2039 N2036 1.314 . S
C2039 C2037 1.353 . S
C2039 H2095 0.930 . S
C2040 N2041 1.314 . S
C2040 C2045 1.353 . S
C2040 H2046 0.930 . S
N2041 Li2024 1.990 . S
N2041 C2040 1.314 . S
N2041 C2043 1.279 . S
C2042 C2043 1.358 . S
C2042 C2044 1.356 . S
C2042 H2096 0.930 . S
C2043 N2041 1.279 . S
C2043 C2042 1.358 . S
C2043 H2047 0.930 . S
C2044 C2042 1.356 . S
C2044 C2045 1.348 . S
C2045 C2040 1.353 . S
C2045 C2044 1.348 . S
C2045 H2097 0.929 . S
H2046 C2040 0.930 . S
H2047 C2043 0.930 . S
C2048 N2049 1.314 . S
C2048 C2050 1.353 . S
C2048 H2054 0.930 . S
N2049 Li2025 1.990 . S
N2049 C2048 1.314 . S
N2049 C2052 1.279 . S
C2050 C2048 1.353 . S
C2050 C2053 1.348 . S
C2050 H2098 0.929 . S
C2051 C2052 1.358 . S
C2051 C2053 1.356 . S
C2051 H2099 0.930 . S
C2052 N2049 1.279 . S
C2052 C2051 1.358 . S
C2052 H2055 0.930 . S
C2053 C2050 1.348 . S
C2053 C2051 1.356 . S
H2054 C2048 0.930 . S
H2055 C2052 0.930 . S
C2056 C2058 1.348 . S
C2056 C2059 1.356 . S
C2056 O2086 1.325 . S
N2057 C2060 1.314 . S
N2057 C2061 1.279 . S
C2058 C2056 1.348 . S
C2058 C2060 1.353 . S
C2058 H2100 0.929 . S
C2059 C2056 1.356 . S
C2059 C2061 1.358 . S
C2059 H2101 0.930 . S
C2060 N2057 1.314 . S
C2060 C2058 1.353 . S
C2060 H2102 0.930 . S
C2061 N2057 1.279 . S
C2061 C2059 1.358 . S
C2061 H2103 0.930 . S
C2062 C2063 1.348 . S
C2062 C2064 1.356 . S
C2062 O2087 1.325 . S
C2063 C2062 1.348 . S
C2063 C2065 1.353 . S
C2063 H2104 0.929 . S
C2064 C2062 1.356 . S
C2064 C2066 1.358 . S
C2064 H2105 0.930 . S
C2065 C2063 1.353 . S
C2065 N2067 1.314 . S
C2065 H2106 0.930 . S
C2066 C2064 1.358 . S
C2066 N2067 1.279 . S
C2066 H2107 0.930 . S
N2067 C2065 1.314 . S
N2067 C2066 1.279 . S
C2068 C2070 1.353 . S
C2068 N2071 1.314 . S
C2068 H2074 0.930 . S
C2069 N2071 1.279 . S
C2069 C2072 1.358 . S
C2069 H2075 0.930 . S
C2070 C2068 1.353 . S
C2070 C2073 1.348 . S
C2070 H2108 0.929 . S
N2071 Li2026 1.990 . S
N2071 C2068 1.314 . S
N2071 C2069 1.279 . S
C2072 C2069 1.358 . S
C2072 C2073 1.356 . S
C2072 H2109 0.930 . S
C2073 C2070 1.348 . S
C2073 C2072 1.356 . S
H2074 C2068 0.930 . S
H2075 C2069 0.930 . S
C2076 N2077 1.314 . S
C2076 C2078 1.353 . S
C2076 H2082 0.930 . S
N2077 Li2027 1.990 . S
N2077 C2076 1.314 . S
N2077 C2080 1.279 . S
C2078 C2076 1.353 . S
C2078 C2081 1.348 . S
C2078 H2110 0.929 . S
C2079 C2080 1.358 . S
C2079 C2081 1.356 . S
C2079 H2111 0.930 . S
C2080 N2077 1.279 . S
C2080 C2079 1.358 . S
C2080 H2083 0.930 . S
C2081 C2078 1.348 . S
C2081 C2079 1.356 . S
H2082 C2076 0.930 . S
H2083 C2080 0.930 . S
O2084 Li2024 1.956 . S
O2084 Li2025 1.970 . S
O2084 Li2026 1.961 . S
O2084 C2028 1.325 . S
O2085 Li2024 1.970 . S
O2085 Li2025 1.956 . S
O2085 Li2027 1.961 . S
O2085 C2034 1.325 . S
O2086 Li2024 1.961 . S
O2086 Li2026 1.956 . S
O2086 Li2027 1.970 . S
O2086 C2056 1.325 . S
O2087 Li2025 1.961 . S
O2087 Li2026 1.970 . S
O2087 Li2027 1.956 . S
O2087 C2062 1.325 . S
H2088 C2030 0.929 . S
H2089 C2031 0.930 . S
H2090 C2032 0.930 . S
H2091 C2033 0.930 . S
H2092 C2035 0.930 . S
H2093 C2037 0.929 . S
H2094 C2038 0.930 . S
H2095 C2039 0.930 . S
H2096 C2042 0.930 . S
H2097 C2045 0.929 . S
H2098 C2050 0.929 . S
H2099 C2051 0.930 . S
H2100 C2058 0.929 . S
H2101 C2059 0.930 . S
H2102 C2060 0.930 . S
H2103 C2061 0.930 . S
H2104 C2063 0.929 . S
H2105 C2064 0.930 . S
H2106 C2065 0.930 . S
H2107 C2066 0.930 . S
H2108 C2070 0.929 . S
H2109 C2072 0.930 . S
H2110 C2078 0.929 . S
H2111 C2079 0.930 . S
Gd2112 C2115 2.817 1_454 S
Gd2112 O2132 2.375 1_554 S
Gd2112 O2134 2.444 1_454 S
Gd2112 O2135 2.508 1_455 S
Gd2112 O2136 2.429 1_554 S
Gd2112 O2137 2.715 1_554 S
Gd2112 O2139 2.434 . S
Gd2112 O2143 2.332 . S
Gd2113 C2124 2.818 . S
Gd2113 O2133 2.395 . S
Gd2113 O2137 2.327 1_554 S
Gd2113 O2138 2.377 . S
Gd2113 O2140 2.448 . S
Gd2113 O2141 2.506 . S
Gd2113 O2142 2.435 . S
Gd2113 O2143 2.717 . S
C2114 O2132 1.240 1_554 S
C2114 O2133 1.240 . S
C2115 Gd2112 2.817 1_656 S
C2115 C2116 1.510 . S
C2115 O2134 1.249 . S
C2115 O2135 1.252 1_556 S
C2116 C2115 1.510 . S
C2116 C2117 1.404 . S
C2116 C2118 1.352 1_556 S
C2117 C2116 1.404 . S
C2117 C2121 1.389 . S
C2117 H2144 0.930 . S
C2118 C2116 1.352 1_554 S
C2118 C2120 1.363 1_554 S
C2118 H2145 0.931 . S
C2119 C2120 1.413 . S
C2119 C2121 1.364 . S
C2120 C2118 1.363 1_556 S
C2120 C2119 1.413 . S
C2120 H2146 0.891 1_556 S
C2121 C2117 1.389 . S
C2121 C2119 1.364 . S
C2121 H2147 0.931 . S
C2122 O2136 1.256 . S
C2122 O2137 1.257 . S
C2123 O2138 1.238 . S
C2123 O2139 1.227 . S
C2124 Gd2113 2.818 . S
C2124 C2125 1.510 . S
C2124 O2140 1.249 . S
C2124 O2141 1.252 . S
C2125 C2124 1.510 . S
C2125 C2126 1.404 . S
C2125 C2127 1.352 . S
C2126 C2125 1.404 . S
C2126 C2130 1.389 . S
C2126 H2148 0.930 . S
C2127 C2125 1.352 . S
C2127 C2129 1.352 1_545 S
C2127 H2149 0.931 . S
C2128 C2129 1.359 1_545 S
C2128 C2130 1.364 . S
C2129 C2127 1.352 1_565 S
C2129 C2128 1.359 1_565 S
C2129 H2150 0.953 . S
C2130 C2126 1.389 . S
C2130 C2128 1.364 . S
C2130 H2151 0.931 . S
C2131 O2142 1.256 . S
C2131 O2143 1.257 . S
O2132 Gd2112 2.375 1_556 S
O2132 C2114 1.240 1_556 S
O2133 Gd2113 2.395 . S
O2133 C2114 1.240 . S
O2134 Gd2112 2.444 1_656 S
O2134 C2115 1.249 . S
O2135 Gd2112 2.508 1_655 S
O2135 C2115 1.252 1_554 S
O2136 Gd2112 2.429 1_556 S
O2136 C2122 1.256 . S
O2137 Gd2112 2.715 1_556 S
O2137 Gd2113 2.327 1_556 S
O2137 C2122 1.257 . S
O2138 Gd2113 2.377 . S
O2138 C2123 1.238 . S
O2139 Gd2112 2.434 . S
O2139 C2123 1.227 . S
O2140 Gd2113 2.448 . S
O2140 C2124 1.249 . S
O2141 Gd2113 2.506 . S
O2141 C2124 1.252 . S
O2142 Gd2113 2.435 . S
O2142 C2131 1.256 . S
O2143 Gd2112 2.332 . S
O2143 Gd2113 2.717 . S
O2143 C2131 1.257 . S
H2144 C2117 0.930 . S
H2145 C2118 0.931 . S
H2146 C2120 0.891 1_554 S
H2147 C2121 0.931 . S
H2148 C2126 0.930 . S
H2149 C2127 0.931 . S
H2150 C2129 0.953 . S
H2151 C2130 0.931 . S
Gd2152 C2155 2.818 . S
Gd2152 O2172 2.377 . S
Gd2152 O2174 2.448 . S
Gd2152 O2175 2.506 . S
Gd2152 O2176 2.435 . S
Gd2152 O2177 2.717 . S
Gd2152 O2179 2.395 . S
Gd2152 O2183 2.327 . S
Gd2153 C2164 2.818 . S
Gd2153 O2173 2.395 . S
Gd2153 O2177 2.327 . S
Gd2153 O2178 2.377 . S
Gd2153 O2180 2.448 . S
Gd2153 O2181 2.506 . S
Gd2153 O2182 2.435 . S
Gd2153 O2183 2.717 . S
C2154 O2172 1.240 . S
C2154 O2173 1.240 . S
C2155 Gd2152 2.818 . S
C2155 C2156 1.510 . S
C2155 O2174 1.249 . S
C2155 O2175 1.252 . S
C2156 C2155 1.510 . S
C2156 C2157 1.404 . S
C2156 C2158 1.352 . S
C2157 C2156 1.404 . S
C2157 C2161 1.389 . S
C2157 H2184 0.930 . S
C2158 C2156 1.352 . S
C2158 C2160 1.374 . S
C2158 H2185 0.931 . S
C2159 C2160 1.359 . S
C2159 C2161 1.364 . S
C2160 C2158 1.374 . S
C2160 C2159 1.359 . S
C2160 H2186 0.931 . S
C2161 C2157 1.389 . S
C2161 C2159 1.364 . S
C2161 H2187 0.931 . S
C2162 O2176 1.256 . S
C2162 O2177 1.257 . S
C2163 O2178 1.240 . S
C2163 O2179 1.240 . S
C2164 Gd2153 2.818 . S
C2164 C2165 1.510 . S
C2164 O2180 1.249 . S
C2164 O2181 1.252 . S
C2165 C2164 1.510 . S
C2165 C2166 1.404 . S
C2165 C2167 1.352 . S
C2166 C2165 1.404 . S
C2166 C2170 1.389 . S
C2166 H2188 0.930 . S
C2167 C2165 1.352 . S
C2167 C2169 1.374 . S
C2167 H2189 0.931 . S
C2168 C2169 1.359 . S
C2168 C2170 1.364 . S
C2169 C2167 1.374 . S
C2169 C2168 1.359 . S
C2169 H2190 0.931 . S
C2170 C2166 1.389 . S
C2170 C2168 1.364 . S
C2170 H2191 0.931 . S
C2171 O2182 1.256 . S
C2171 O2183 1.257 . S
O2172 Gd2152 2.377 . S
O2172 C2154 1.240 . S
O2173 Gd2153 2.395 . S
O2173 C2154 1.240 . S
O2174 Gd2152 2.448 . S
O2174 C2155 1.249 . S
O2175 Gd2152 2.506 . S
O2175 C2155 1.252 . S
O2176 Gd2152 2.435 . S
O2176 C2162 1.256 . S
O2177 Gd2152 2.717 . S
O2177 Gd2153 2.327 . S
O2177 C2162 1.257 . S
O2178 Gd2153 2.377 . S
O2178 C2163 1.240 . S
O2179 Gd2152 2.395 . S
O2179 C2163 1.240 . S
O2180 Gd2153 2.448 . S
O2180 C2164 1.249 . S
O2181 Gd2153 2.506 . S
O2181 C2164 1.252 . S
O2182 Gd2153 2.435 . S
O2182 C2171 1.256 . S
O2183 Gd2152 2.327 . S
O2183 Gd2153 2.717 . S
O2183 C2171 1.257 . S
H2184 C2157 0.930 . S
H2185 C2158 0.931 . S
H2186 C2160 0.931 . S
H2187 C2161 0.931 . S
H2188 C2166 0.930 . S
H2189 C2167 0.931 . S
H2190 C2169 0.931 . S
H2191 C2170 0.931 . S
Gd2192 C2195 2.818 . S
Gd2192 O2212 2.377 . S
Gd2192 O2214 2.448 . S
Gd2192 O2215 2.506 . S
Gd2192 O2216 2.435 . S
Gd2192 O2217 2.717 . S
Gd2192 O2219 2.395 . S
Gd2192 O2223 2.327 . S
Gd2193 C2204 2.818 . S
Gd2193 O2213 2.395 . S
Gd2193 O2217 2.327 . S
Gd2193 O2218 2.377 . S
Gd2193 O2220 2.448 . S
Gd2193 O2221 2.506 . S
Gd2193 O2222 2.435 . S
Gd2193 O2223 2.717 . S
C2194 O2212 1.240 1_565 S
C2194 O2213 1.240 1_565 S
C2195 Gd2192 2.818 . S
C2195 C2196 1.510 . S
C2195 O2214 1.249 . S
C2195 O2215 1.252 . S
C2196 C2195 1.510 . S
C2196 C2197 1.404 . S
C2196 C2198 1.352 1_545 S
C2197 C2196 1.404 . S
C2197 C2201 1.389 1_545 S
C2197 H2224 0.930 . S
C2198 C2196 1.352 1_565 S
C2198 C2200 1.374 . S
C2198 H2225 0.931 . S
C2199 C2200 1.359 . S
C2199 C2201 1.364 . S
C2200 C2198 1.374 . S
C2200 C2199 1.359 . S
C2200 H2226 0.931 . S
C2201 C2197 1.389 1_565 S
C2201 C2199 1.364 . S
C2201 H2227 0.931 . S
C2202 O2216 1.256 . S
C2202 O2217 1.257 . S
C2203 O2218 1.240 . S
C2203 O2219 1.240 . S
C2204 Gd2193 2.818 . S
C2204 C2205 1.510 . S
C2204 O2220 1.249 . S
C2204 O2221 1.252 . S
C2205 C2204 1.510 . S
C2205 C2206 1.404 . S
C2205 C2207 1.352 . S
C2206 C2205 1.404 . S
C2206 C2210 1.389 . S
C2206 H2228 0.930 . S
C2207 C2205 1.352 . S
C2207 C2209 1.374 . S
C2207 H2229 0.931 . S
C2208 C2209 1.359 . S
C2208 C2210 1.364 . S
C2209 C2207 1.374 . S
C2209 C2208 1.359 . S
C2209 H2230 0.931 . S
C2210 C2206 1.389 . S
C2210 C2208 1.364 . S
C2210 H2231 0.931 . S
C2211 O2222 1.256 . S
C2211 O2223 1.257 . S
O2212 Gd2192 2.377 . S
O2212 C2194 1.240 1_545 S
O2213 Gd2193 2.395 . S
O2213 C2194 1.240 1_545 S
O2214 Gd2192 2.448 . S
O2214 C2195 1.249 . S
O2215 Gd2192 2.506 . S
O2215 C2195 1.252 . S
O2216 Gd2192 2.435 . S
O2216 C2202 1.256 . S
O2217 Gd2192 2.717 . S
O2217 Gd2193 2.327 . S
O2217 C2202 1.257 . S
O2218 Gd2193 2.377 . S
O2218 C2203 1.240 . S
O2219 Gd2192 2.395 . S
O2219 C2203 1.240 . S
O2220 Gd2193 2.448 . S
O2220 C2204 1.249 . S
O2221 Gd2193 2.506 . S
O2221 C2204 1.252 . S
O2222 Gd2193 2.435 . S
O2222 C2211 1.256 . S
O2223 Gd2192 2.327 . S
O2223 Gd2193 2.717 . S
O2223 C2211 1.257 . S
H2224 C2197 0.930 . S
H2225 C2198 0.931 . S
H2226 C2200 0.931 . S
H2227 C2201 0.931 . S
H2228 C2206 0.930 . S
H2229 C2207 0.931 . S
H2230 C2209 0.931 . S
H2231 C2210 0.931 . S
Gd2232 C2235 2.818 . S
Gd2232 O2252 2.377 . S
Gd2232 O2254 2.448 . S
Gd2232 O2255 2.506 . S
Gd2232 O2256 2.435 . S
Gd2232 O2257 2.717 . S
Gd2232 O2259 2.395 . S
Gd2232 O2263 2.327 . S
Gd2233 C2244 2.818 . S
Gd2233 O2253 2.395 . S
Gd2233 O2257 2.327 . S
Gd2233 O2258 2.377 . S
Gd2233 O2260 2.448 . S
Gd2233 O2261 2.506 . S
Gd2233 O2262 2.435 . S
Gd2233 O2263 2.717 . S
C2234 O2252 1.240 . S
C2234 O2253 1.240 . S
C2235 Gd2232 2.818 . S
C2235 C2236 1.510 . S
C2235 O2254 1.249 . S
C2235 O2255 1.252 . S
C2236 C2235 1.510 . S
C2236 C2237 1.404 . S
C2236 C2238 1.352 . S
C2237 C2236 1.404 . S
C2237 C2241 1.389 . S
C2237 H2264 0.930 . S
C2238 C2236 1.352 . S
C2238 C2240 1.374 . S
C2238 H2265 0.931 . S
C2239 C2240 1.359 . S
C2239 C2241 1.364 . S
C2240 C2238 1.374 . S
C2240 C2239 1.359 . S
C2240 H2266 0.931 . S
C2241 C2237 1.389 . S
C2241 C2239 1.364 . S
C2241 H2267 0.931 . S
C2242 O2256 1.256 . S
C2242 O2257 1.257 . S
C2243 O2258 1.240 . S
C2243 O2259 1.240 . S
C2244 Gd2233 2.818 . S
C2244 C2245 1.510 . S
C2244 O2260 1.249 . S
C2244 O2261 1.252 . S
C2245 C2244 1.510 . S
C2245 C2246 1.404 . S
C2245 C2247 1.352 . S
C2246 C2245 1.404 . S
C2246 C2250 1.389 . S
C2246 H2268 0.930 . S
C2247 C2245 1.352 . S
C2247 C2249 1.374 . S
C2247 H2269 0.931 . S
C2248 C2249 1.359 . S
C2248 C2250 1.364 . S
C2249 C2247 1.374 . S
C2249 C2248 1.359 . S
C2249 H2270 0.931 . S
C2250 C2246 1.389 . S
C2250 C2248 1.364 . S
C2250 H2271 0.931 . S
C2251 O2262 1.256 . S
C2251 O2263 1.257 . S
O2252 Gd2232 2.377 . S
O2252 C2234 1.240 . S
O2253 Gd2233 2.395 . S
O2253 C2234 1.240 . S
O2254 Gd2232 2.448 . S
O2254 C2235 1.249 . S
O2255 Gd2232 2.506 . S
O2255 C2235 1.252 . S
O2256 Gd2232 2.435 . S
O2256 C2242 1.256 . S
O2257 Gd2232 2.717 . S
O2257 Gd2233 2.327 . S
O2257 C2242 1.257 . S
O2258 Gd2233 2.377 . S
O2258 C2243 1.240 . S
O2259 Gd2232 2.395 . S
O2259 C2243 1.240 . S
O2260 Gd2233 2.448 . S
O2260 C2244 1.249 . S
O2261 Gd2233 2.506 . S
O2261 C2244 1.252 . S
O2262 Gd2233 2.435 . S
O2262 C2251 1.256 . S
O2263 Gd2232 2.327 . S
O2263 Gd2233 2.717 . S
O2263 C2251 1.257 . S
H2264 C2237 0.930 . S
H2265 C2238 0.931 . S
H2266 C2240 0.931 . S
H2267 C2241 0.931 . S
H2268 C2246 0.930 . S
H2269 C2247 0.931 . S
H2270 C2249 0.931 . S
H2271 C2250 0.931 . S
Gd2272 C2275 2.818 . S
Gd2272 O2292 2.377 . S
Gd2272 O2294 2.448 . S
Gd2272 O2295 2.506 . S
Gd2272 O2296 2.435 . S
Gd2272 O2297 2.717 . S
Gd2272 O2299 2.395 . S
Gd2272 O2303 2.327 . S
Gd2273 C2284 2.818 1_545 S
Gd2273 O2293 2.395 . S
Gd2273 O2297 2.327 . S
Gd2273 O2298 2.377 . S
Gd2273 O2300 2.448 1_545 S
Gd2273 O2301 2.506 1_545 S
Gd2273 O2302 2.435 . S
Gd2273 O2303 2.717 . S
C2274 O2292 1.240 . S
C2274 O2293 1.240 . S
C2275 Gd2272 2.818 . S
C2275 C2276 1.510 . S
C2275 O2294 1.249 . S
C2275 O2295 1.252 . S
C2276 C2275 1.510 . S
C2276 C2277 1.404 . S
C2276 C2278 1.352 . S
C2277 C2276 1.404 . S
C2277 C2281 1.389 . S
C2277 H2304 0.930 . S
C2278 C2276 1.352 . S
C2278 C2280 1.374 . S
C2278 H2305 0.931 . S
C2279 C2280 1.359 . S
C2279 C2281 1.364 . S
C2280 C2278 1.374 . S
C2280 C2279 1.359 . S
C2280 H2306 0.931 . S
C2281 C2277 1.389 . S
C2281 C2279 1.364 . S
C2281 H2307 0.930 1_455 S
C2282 O2296 1.256 . S
C2282 O2297 1.257 . S
C2283 O2298 1.240 . S
C2283 O2299 1.240 . S
C2284 Gd2273 2.818 1_565 S
C2284 C2285 1.510 . S
C2284 O2300 1.249 . S
C2284 O2301 1.252 . S
C2285 C2284 1.510 . S
C2285 C2286 1.404 . S
C2285 C2287 1.352 . S
C2286 C2285 1.404 . S
C2286 C2290 1.389 . S
C2286 H2308 0.930 . S
C2287 C2285 1.352 . S
C2287 C2289 1.374 . S
C2287 H2309 0.931 . S
C2288 C2289 1.359 . S
C2288 C2290 1.364 . S
C2289 C2287 1.374 . S
C2289 C2288 1.359 . S
C2289 H2310 0.931 . S
C2290 C2286 1.389 . S
C2290 C2288 1.364 . S
C2290 H2311 0.931 . S
C2291 O2302 1.256 . S
C2291 O2303 1.257 . S
O2292 Gd2272 2.377 . S
O2292 C2274 1.240 . S
O2293 Gd2273 2.395 . S
O2293 C2274 1.240 . S
O2294 Gd2272 2.448 . S
O2294 C2275 1.249 . S
O2295 Gd2272 2.506 . S
O2295 C2275 1.252 . S
O2296 Gd2272 2.435 . S
O2296 C2282 1.256 . S
O2297 Gd2272 2.717 . S
O2297 Gd2273 2.327 . S
O2297 C2282 1.257 . S
O2298 Gd2273 2.377 . S
O2298 C2283 1.240 . S
O2299 Gd2272 2.395 . S
O2299 C2283 1.240 . S
O2300 Gd2273 2.448 1_565 S
O2300 C2284 1.249 . S
O2301 Gd2273 2.506 1_565 S
O2301 C2284 1.252 . S
O2302 Gd2273 2.435 . S
O2302 C2291 1.256 . S
O2303 Gd2272 2.327 . S
O2303 Gd2273 2.717 . S
O2303 C2291 1.257 . S
H2304 C2277 0.930 . S
H2305 C2278 0.931 . S
H2306 C2280 0.931 . S
H2307 C2281 0.930 1_655 S
H2308 C2286 0.930 . S
H2309 C2287 0.931 . S
H2310 C2289 0.931 . S
H2311 C2290 0.931 . S
Gd2312 C2315 2.818 . S
Gd2312 O2332 2.377 . S
Gd2312 O2334 2.448 . S
Gd2312 O2335 2.506 . S
Gd2312 O2336 2.435 . S
Gd2312 O2337 2.717 . S
Gd2312 O2339 2.395 . S
Gd2312 O2343 2.327 . S
Gd2313 C2324 2.818 . S
Gd2313 O2333 2.395 . S
Gd2313 O2337 2.327 . S
Gd2313 O2338 2.377 . S
Gd2313 O2340 2.448 . S
Gd2313 O2341 2.506 . S
Gd2313 O2342 2.435 . S
Gd2313 O2343 2.717 . S
C2314 O2332 1.240 . S
C2314 O2333 1.240 . S
C2315 Gd2312 2.818 . S
C2315 C2316 1.510 . S
C2315 O2334 1.249 . S
C2315 O2335 1.252 . S
C2316 C2315 1.510 . S
C2316 C2317 1.404 . S
C2316 C2318 1.352 . S
C2317 C2316 1.404 . S
C2317 C2321 1.389 . S
C2317 H2344 0.930 . S
C2318 C2316 1.352 . S
C2318 C2320 1.374 . S
C2318 H2345 0.931 . S
C2319 C2320 1.359 . S
C2319 C2321 1.364 . S
C2320 C2318 1.374 . S
C2320 C2319 1.359 . S
C2320 H2346 0.931 . S
C2321 C2317 1.389 . S
C2321 C2319 1.364 . S
C2321 H2347 0.931 . S
C2322 O2336 1.256 . S
C2322 O2337 1.257 . S
C2323 O2338 1.240 . S
C2323 O2339 1.240 . S
C2324 Gd2313 2.818 . S
C2324 C2325 1.510 . S
C2324 O2340 1.249 . S
C2324 O2341 1.252 . S
C2325 C2324 1.510 . S
C2325 C2326 1.404 . S
C2325 C2327 1.352 . S
C2326 C2325 1.404 . S
C2326 C2330 1.389 . S
C2326 H2348 0.930 . S
C2327 C2325 1.352 . S
C2327 C2329 1.374 . S
C2327 H2349 0.931 . S
C2328 C2329 1.359 . S
C2328 C2330 1.364 . S
C2329 C2327 1.374 . S
C2329 C2328 1.359 . S
C2329 H2350 0.931 . S
C2330 C2326 1.389 . S
C2330 C2328 1.364 . S
C2330 H2351 0.931 . S
C2331 O2342 1.256 . S
C2331 O2343 1.257 . S
O2332 Gd2312 2.377 . S
O2332 C2314 1.240 . S
O2333 Gd2313 2.395 . S
O2333 C2314 1.240 . S
O2334 Gd2312 2.448 . S
O2334 C2315 1.249 . S
O2335 Gd2312 2.506 . S
O2335 C2315 1.252 . S
O2336 Gd2312 2.435 . S
O2336 C2322 1.256 . S
O2337 Gd2312 2.717 . S
O2337 Gd2313 2.327 . S
O2337 C2322 1.257 . S
O2338 Gd2313 2.377 . S
O2338 C2323 1.240 . S
O2339 Gd2312 2.395 . S
O2339 C2323 1.240 . S
O2340 Gd2313 2.448 . S
O2340 C2324 1.249 . S
O2341 Gd2313 2.506 . S
O2341 C2324 1.252 . S
O2342 Gd2313 2.435 . S
O2342 C2331 1.256 . S
O2343 Gd2312 2.327 . S
O2343 Gd2313 2.717 . S
O2343 C2331 1.257 . S
H2344 C2317 0.930 . S
H2345 C2318 0.931 . S
H2346 C2320 0.931 . S
H2347 C2321 0.931 . S
H2348 C2326 0.930 . S
H2349 C2327 0.931 . S
H2350 C2329 0.931 . S
H2351 C2330 0.931 . S
Gd2352 C2355 2.818 . S
Gd2352 O2372 2.377 . S
Gd2352 O2374 2.448 . S
Gd2352 O2375 2.506 . S
Gd2352 O2376 2.435 1_545 S
Gd2352 O2377 2.717 1_554 S
Gd2352 O2379 2.395 . S
Gd2352 O2383 2.327 . S
Gd2353 C2364 2.818 . S
Gd2353 O2373 2.395 . S
Gd2353 O2377 2.327 . S
Gd2353 O2378 2.388 . S
Gd2353 O2380 2.448 . S
Gd2353 O2381 2.506 . S
Gd2353 O2382 2.435 1_556 S
Gd2353 O2383 2.717 1_556 S
C2354 O2372 1.240 . S
C2354 O2373 1.240 1_554 S
C2355 Gd2352 2.818 . S
C2355 C2356 1.510 . S
C2355 O2374 1.249 . S
C2355 O2375 1.252 . S
C2356 C2355 1.510 . S
C2356 C2357 1.404 1_545 S
C2356 C2358 1.352 . S
C2357 C2356 1.404 1_565 S
C2357 C2361 1.389 . S
C2357 H2384 0.930 . S
C2358 C2356 1.352 . S
C2358 C2360 1.374 . S
C2358 H2385 0.931 . S
C2359 C2360 1.359 . S
C2359 C2361 1.364 1_545 S
C2360 C2358 1.374 . S
C2360 C2359 1.359 . S
C2360 H2386 0.931 . S
C2361 C2357 1.389 . S
C2361 C2359 1.364 1_565 S
C2361 H2387 0.931 . S
C2362 O2376 1.256 1_545 S
C2362 O2377 1.257 1_554 S
C2363 O2378 1.217 1_554 S
C2363 O2379 1.240 . S
C2364 Gd2353 2.818 . S
C2364 C2365 1.510 . S
C2364 O2380 1.249 . S
C2364 O2381 1.252 . S
C2365 C2364 1.510 . S
C2365 C2366 1.404 . S
C2365 C2367 1.352 . S
C2366 C2365 1.404 . S
C2366 C2370 1.389 . S
C2366 H2388 0.930 . S
C2367 C2365 1.352 . S
C2367 C2369 1.374 . S
C2367 H2389 0.931 . S
C2368 C2369 1.359 . S
C2368 C2370 1.364 . S
C2369 C2367 1.374 . S
C2369 C2368 1.359 . S
C2369 H2390 0.931 . S
C2370 C2366 1.389 . S
C2370 C2368 1.364 . S
C2370 H2391 0.931 . S
C2371 O2382 1.256 . S
C2371 O2383 1.257 . S
O2372 Gd2352 2.377 . S
O2372 C2354 1.240 . S
O2373 Gd2353 2.395 . S
O2373 C2354 1.240 1_556 S
O2374 Gd2352 2.448 . S
O2374 C2355 1.249 . S
O2375 Gd2352 2.506 . S
O2375 C2355 1.252 . S
O2376 Gd2352 2.435 1_565 S
O2376 C2362 1.256 1_565 S
O2377 Gd2352 2.717 1_556 S
O2377 Gd2353 2.327 . S
O2377 C2362 1.257 1_556 S
O2378 Gd2353 2.388 . S
O2378 C2363 1.217 1_556 S
O2379 Gd2352 2.395 . S
O2379 C2363 1.240 . S
O2380 Gd2353 2.448 . S
O2380 C2364 1.249 . S
O2381 Gd2353 2.506 . S
O2381 C2364 1.252 . S
O2382 Gd2353 2.435 1_554 S
O2382 C2371 1.256 . S
O2383 Gd2352 2.327 . S
O2383 Gd2353 2.717 1_554 S
O2383 C2371 1.257 . S
H2384 C2357 0.930 . S
H2385 C2358 0.931 . S
H2386 C2360 0.931 . S
H2387 C2361 0.931 . S
H2388 C2366 0.930 . S
H2389 C2367 0.931 . S
H2390 C2369 0.931 . S
H2391 C2370 0.931 . S
Gd2392 C2395 2.818 . S
Gd2392 O2412 2.377 . S
Gd2392 O2414 2.448 . S
Gd2392 O2415 2.506 . S
Gd2392 O2416 2.435 . S
Gd2392 O2417 2.717 . S
Gd2392 O2419 2.395 . S
Gd2392 O2423 2.327 . S
Gd2393 C2404 2.818 . S
Gd2393 O2413 2.395 . S
Gd2393 O2417 2.327 . S
Gd2393 O2418 2.377 . S
Gd2393 O2420 2.448 . S
Gd2393 O2421 2.506 . S
Gd2393 O2422 2.435 . S
Gd2393 O2423 2.717 . S
C2394 O2412 1.240 . S
C2394 O2413 1.240 . S
C2395 Gd2392 2.818 . S
C2395 C2396 1.510 . S
C2395 O2414 1.249 . S
C2395 O2415 1.252 . S
C2396 C2395 1.510 . S
C2396 C2397 1.404 . S
C2396 C2398 1.352 . S
C2397 C2396 1.404 . S
C2397 C2401 1.389 . S
C2397 H2424 0.930 . S
C2398 C2396 1.352 . S
C2398 C2400 1.374 . S
C2398 H2425 0.931 . S
C2399 C2400 1.359 . S
C2399 C2401 1.364 . S
C2400 C2398 1.374 . S
C2400 C2399 1.359 . S
C2400 H2426 0.931 . S
C2401 C2397 1.389 . S
C2401 C2399 1.364 . S
C2401 H2427 0.931 . S
C2402 O2416 1.256 . S
C2402 O2417 1.257 . S
C2403 O2418 1.240 . S
C2403 O2419 1.240 . S
C2404 Gd2393 2.818 . S
C2404 C2405 1.510 . S
C2404 O2420 1.249 . S
C2404 O2421 1.252 . S
C2405 C2404 1.510 . S
C2405 C2406 1.404 . S
C2405 C2407 1.352 . S
C2406 C2405 1.404 . S
C2406 C2410 1.389 . S
C2406 H2428 0.930 . S
C2407 C2405 1.352 . S
C2407 C2409 1.374 . S
C2407 H2429 0.931 . S
C2408 C2409 1.359 . S
C2408 C2410 1.364 . S
C2409 C2407 1.374 . S
C2409 C2408 1.359 . S
C2409 H2430 0.931 . S
C2410 C2406 1.389 . S
C2410 C2408 1.364 . S
C2410 H2431 0.931 . S
C2411 O2422 1.256 . S
C2411 O2423 1.257 . S
O2412 Gd2392 2.377 . S
O2412 C2394 1.240 . S
O2413 Gd2393 2.395 . S
O2413 C2394 1.240 . S
O2414 Gd2392 2.448 . S
O2414 C2395 1.249 . S
O2415 Gd2392 2.506 . S
O2415 C2395 1.252 . S
O2416 Gd2392 2.435 . S
O2416 C2402 1.256 . S
O2417 Gd2392 2.717 . S
O2417 Gd2393 2.327 . S
O2417 C2402 1.257 . S
O2418 Gd2393 2.377 . S
O2418 C2403 1.240 . S
O2419 Gd2392 2.395 . S
O2419 C2403 1.240 . S
O2420 Gd2393 2.448 . S
O2420 C2404 1.249 . S
O2421 Gd2393 2.506 . S
O2421 C2404 1.252 . S
O2422 Gd2393 2.435 . S
O2422 C2411 1.256 . S
O2423 Gd2392 2.327 . S
O2423 Gd2393 2.717 . S
O2423 C2411 1.257 . S
H2424 C2397 0.930 . S
H2425 C2398 0.931 . S
H2426 C2400 0.931 . S
H2427 C2401 0.931 . S
H2428 C2406 0.930 . S
H2429 C2407 0.931 . S
H2430 C2409 0.931 . S
H2431 C2410 0.931 . S
Gd2432 C2435 2.852 . S
Gd2432 O2452 2.377 1_554 S
Gd2432 O2454 2.448 . S
Gd2432 O2455 2.532 . S
Gd2432 O2456 2.435 . S
Gd2432 O2457 2.717 . S
Gd2432 O2459 2.395 . S
Gd2432 O2463 2.327 . S
Gd2433 C2444 2.818 . S
Gd2433 O2453 2.395 1_554 S
Gd2433 O2457 2.327 . S
Gd2433 O2458 2.377 . S
Gd2433 O2460 2.448 . S
Gd2433 O2461 2.506 . S
Gd2433 O2462 2.435 . S
Gd2433 O2463 2.717 . S
C2434 O2452 1.240 . S
C2434 O2453 1.240 . S
C2435 Gd2432 2.852 . S
C2435 C2436 1.476 1_554 S
C2435 O2454 1.285 . S
C2435 O2455 1.251 . S
C2436 C2435 1.476 1_556 S
C2436 C2437 1.404 . S
C2436 C2438 1.352 . S
C2437 C2436 1.404 . S
C2437 C2441 1.389 . S
C2437 H2464 0.902 1_556 S
C2438 C2436 1.352 . S
C2438 C2440 1.374 . S
C2438 H2465 0.931 . S
C2439 C2440 1.359 . S
C2439 C2441 1.364 . S
C2440 C2438 1.374 . S
C2440 C2439 1.359 . S
C2440 H2466 0.931 . S
C2441 C2437 1.389 . S
C2441 C2439 1.364 . S
C2441 H2467 0.931 . S
C2442 O2456 1.256 . S
C2442 O2457 1.257 . S
C2443 O2458 1.240 . S
C2443 O2459 1.240 . S
C2444 Gd2433 2.818 . S
C2444 C2445 1.510 . S
C2444 O2460 1.249 . S
C2444 O2461 1.252 . S
C2445 C2444 1.510 . S
C2445 C2446 1.404 . S
C2445 C2447 1.352 . S
C2446 C2445 1.404 . S
C2446 C2450 1.389 . S
C2446 H2468 0.930 . S
C2447 C2445 1.352 . S
C2447 C2449 1.374 . S
C2447 H2469 0.931 . S
C2448 C2449 1.359 . S
C2448 C2450 1.364 . S
C2449 C2447 1.374 . S
C2449 C2448 1.359 . S
C2449 H2470 0.931 . S
C2450 C2446 1.389 . S
C2450 C2448 1.364 . S
C2450 H2471 0.931 . S
C2451 O2462 1.256 . S
C2451 O2463 1.257 . S
O2452 Gd2432 2.377 1_556 S
O2452 C2434 1.240 . S
O2453 Gd2433 2.395 1_556 S
O2453 C2434 1.240 . S
O2454 Gd2432 2.448 . S
O2454 C2435 1.285 . S
O2455 Gd2432 2.532 . S
O2455 C2435 1.251 . S
O2456 Gd2432 2.435 . S
O2456 C2442 1.256 . S
O2457 Gd2432 2.717 . S
O2457 Gd2433 2.327 . S
O2457 C2442 1.257 . S
O2458 Gd2433 2.377 . S
O2458 C2443 1.240 . S
O2459 Gd2432 2.395 . S
O2459 C2443 1.240 . S
O2460 Gd2433 2.448 . S
O2460 C2444 1.249 . S
O2461 Gd2433 2.506 . S
O2461 C2444 1.252 . S
O2462 Gd2433 2.435 . S
O2462 C2451 1.256 . S
O2463 Gd2432 2.327 . S
O2463 Gd2433 2.717 . S
O2463 C2451 1.257 . S
H2464 C2437 0.902 1_554 S
H2465 C2438 0.931 . S
H2466 C2440 0.931 . S
H2467 C2441 0.931 . S
H2468 C2446 0.930 . S
H2469 C2447 0.931 . S
H2470 C2449 0.931 . S
H2471 C2450 0.931 . S
Gd2472 C2475 2.818 . S
Gd2472 O2492 2.377 . S
Gd2472 O2494 2.448 . S
Gd2472 O2495 2.506 . S
Gd2472 O2496 2.435 . S
Gd2472 O2497 2.717 . S
Gd2472 O2499 2.395 . S
Gd2472 O2503 2.327 . S
Gd2473 C2484 2.818 . S
Gd2473 O2493 2.395 . S
Gd2473 O2497 2.327 . S
Gd2473 O2498 2.377 . S
Gd2473 O2500 2.448 . S
Gd2473 O2501 2.506 . S
Gd2473 O2502 2.435 . S
Gd2473 O2503 2.717 . S
C2474 O2492 1.240 . S
C2474 O2493 1.240 . S
C2475 Gd2472 2.818 . S
C2475 C2476 1.510 . S
C2475 O2494 1.249 . S
C2475 O2495 1.252 . S
C2476 C2475 1.510 . S
C2476 C2477 1.404 . S
C2476 C2478 1.352 . S
C2477 C2476 1.404 . S
C2477 C2481 1.389 . S
C2477 H2504 0.930 . S
C2478 C2476 1.352 . S
C2478 C2480 1.374 . S
C2478 H2505 0.931 . S
C2479 C2480 1.359 . S
C2479 C2481 1.364 . S
C2480 C2478 1.374 . S
C2480 C2479 1.359 . S
C2480 H2506 0.931 . S
C2481 C2477 1.389 . S
C2481 C2479 1.364 . S
C2481 H2507 0.931 . S
C2482 O2496 1.256 . S
C2482 O2497 1.257 . S
C2483 O2498 1.240 . S
C2483 O2499 1.240 . S
C2484 Gd2473 2.818 . S
C2484 C2485 1.510 . S
C2484 O2500 1.249 . S
C2484 O2501 1.252 . S
C2485 C2484 1.510 . S
C2485 C2486 1.404 . S
C2485 C2487 1.352 . S
C2486 C2485 1.404 . S
C2486 C2490 1.389 . S
C2486 H2508 0.930 . S
C2487 C2485 1.352 . S
C2487 C2489 1.374 . S
C2487 H2509 0.931 . S
C2488 C2489 1.359 . S
C2488 C2490 1.364 . S
C2489 C2487 1.374 . S
C2489 C2488 1.359 . S
C2489 H2510 0.931 . S
C2490 C2486 1.389 . S
C2490 C2488 1.364 . S
C2490 H2511 0.931 . S
C2491 O2502 1.256 . S
C2491 O2503 1.257 . S
O2492 Gd2472 2.377 . S
O2492 C2474 1.240 . S
O2493 Gd2473 2.395 . S
O2493 C2474 1.240 . S
O2494 Gd2472 2.448 . S
O2494 C2475 1.249 . S
O2495 Gd2472 2.506 . S
O2495 C2475 1.252 . S
O2496 Gd2472 2.435 . S
O2496 C2482 1.256 . S
O2497 Gd2472 2.717 . S
O2497 Gd2473 2.327 . S
O2497 C2482 1.257 . S
O2498 Gd2473 2.377 . S
O2498 C2483 1.240 . S
O2499 Gd2472 2.395 . S
O2499 C2483 1.240 . S
O2500 Gd2473 2.448 . S
O2500 C2484 1.249 . S
O2501 Gd2473 2.506 . S
O2501 C2484 1.252 . S
O2502 Gd2473 2.435 . S
O2502 C2491 1.256 . S
O2503 Gd2472 2.327 . S
O2503 Gd2473 2.717 . S
O2503 C2491 1.257 . S
H2504 C2477 0.930 . S
H2505 C2478 0.931 . S
H2506 C2480 0.931 . S
H2507 C2481 0.931 . S
H2508 C2486 0.930 . S
H2509 C2487 0.931 . S
H2510 C2489 0.931 . S
H2511 C2490 0.931 . S
Gd2512 C2515 2.818 . S
Gd2512 O2532 2.377 . S
Gd2512 O2534 2.448 . S
Gd2512 O2535 2.506 . S
Gd2512 O2536 2.435 . S
Gd2512 O2537 2.717 . S
Gd2512 O2539 2.395 . S
Gd2512 O2543 2.327 . S
Gd2513 C2524 2.818 . S
Gd2513 O2533 2.395 . S
Gd2513 O2537 2.327 . S
Gd2513 O2538 2.377 . S
Gd2513 O2540 2.448 . S
Gd2513 O2541 2.506 . S
Gd2513 O2542 2.435 . S
Gd2513 O2543 2.717 . S
C2514 O2532 1.240 . S
C2514 O2533 1.240 . S
C2515 Gd2512 2.818 . S
C2515 C2516 1.510 . S
C2515 O2534 1.249 . S
C2515 O2535 1.252 . S
C2516 C2515 1.510 . S
C2516 C2517 1.404 . S
C2516 C2518 1.357 1_455 S
C2517 C2516 1.404 . S
C2517 C2521 1.389 . S
C2517 H2544 0.930 . S
C2518 C2516 1.357 1_655 S
C2518 C2520 1.370 . S
C2518 H2545 0.918 . S
C2519 C2520 1.359 . S
C2519 C2521 1.364 1_655 S
C2520 C2518 1.370 . S
C2520 C2519 1.359 . S
C2520 H2546 0.931 . S
C2521 C2517 1.389 . S
C2521 C2519 1.364 1_455 S
C2521 H2547 0.931 . S
C2522 O2536 1.256 . S
C2522 O2537 1.257 . S
C2523 O2538 1.240 . S
C2523 O2539 1.240 . S
C2524 Gd2513 2.818 . S
C2524 C2525 1.510 . S
C2524 O2540 1.249 . S
C2524 O2541 1.252 . S
C2525 C2524 1.510 . S
C2525 C2526 1.404 . S
C2525 C2527 1.352 . S
C2526 C2525 1.404 . S
C2526 C2530 1.389 . S
C2526 H2548 0.930 . S
C2527 C2525 1.352 . S
C2527 C2529 1.374 . S
C2527 H2549 0.931 . S
C2528 C2529 1.359 . S
C2528 C2530 1.364 . S
C2529 C2527 1.374 . S
C2529 C2528 1.359 . S
C2529 H2550 0.931 . S
C2530 C2526 1.389 . S
C2530 C2528 1.364 . S
C2530 H2551 0.931 . S
C2531 O2542 1.256 . S
C2531 O2543 1.257 . S
O2532 Gd2512 2.377 . S
O2532 C2514 1.240 . S
O2533 Gd2513 2.395 . S
O2533 C2514 1.240 . S
O2534 Gd2512 2.448 . S
O2534 C2515 1.249 . S
O2535 Gd2512 2.506 . S
O2535 C2515 1.252 . S
O2536 Gd2512 2.435 . S
O2536 C2522 1.256 . S
O2537 Gd2512 2.717 . S
O2537 Gd2513 2.327 . S
O2537 C2522 1.257 . S
O2538 Gd2513 2.377 . S
O2538 C2523 1.240 . S
O2539 Gd2512 2.395 . S
O2539 C2523 1.240 . S
O2540 Gd2513 2.448 . S
O2540 C2524 1.249 . S
O2541 Gd2513 2.506 . S
O2541 C2524 1.252 . S
O2542 Gd2513 2.435 . S
O2542 C2531 1.256 . S
O2543 Gd2512 2.327 . S
O2543 Gd2513 2.717 . S
O2543 C2531 1.257 . S
H2544 C2517 0.930 . S
H2545 C2518 0.918 . S
H2546 C2520 0.931 . S
H2547 C2521 0.931 . S
H2548 C2526 0.930 . S
H2549 C2527 0.931 . S
H2550 C2529 0.931 . S
H2551 C2530 0.931 . S
Gd2552 C2555 2.818 . S
Gd2552 O2572 2.377 . S
Gd2552 O2574 2.448 . S
Gd2552 O2575 2.506 . S
Gd2552 O2576 2.435 . S
Gd2552 O2577 2.717 . S
Gd2552 O2579 2.395 . S
Gd2552 O2583 2.327 . S
Gd2553 C2564 2.818 . S
Gd2553 O2573 2.395 . S
Gd2553 O2577 2.327 . S
Gd2553 O2578 2.377 . S
Gd2553 O2580 2.448 . S
Gd2553 O2581 2.506 . S
Gd2553 O2582 2.435 . S
Gd2553 O2583 2.717 . S
C2554 O2572 1.240 . S
C2554 O2573 1.240 . S
C2555 Gd2552 2.818 . S
C2555 C2556 1.510 . S
C2555 O2574 1.249 . S
C2555 O2575 1.252 . S
C2556 C2555 1.510 . S
C2556 C2557 1.404 . S
C2556 C2558 1.352 . S
C2557 C2556 1.404 . S
C2557 C2561 1.389 . S
C2557 H2584 0.930 . S
C2558 C2556 1.352 . S
C2558 C2560 1.374 . S
C2558 H2585 0.931 . S
C2559 C2560 1.359 . S
C2559 C2561 1.364 . S
C2560 C2558 1.374 . S
C2560 C2559 1.359 . S
C2560 H2586 0.931 . S
C2561 C2557 1.389 . S
C2561 C2559 1.364 . S
C2561 H2587 0.931 . S
C2562 O2576 1.256 . S
C2562 O2577 1.257 . S
C2563 O2578 1.240 . S
C2563 O2579 1.240 . S
C2564 Gd2553 2.818 . S
C2564 C2565 1.510 . S
C2564 O2580 1.249 . S
C2564 O2581 1.252 . S
C2565 C2564 1.510 . S
C2565 C2566 1.404 . S
C2565 C2567 1.352 . S
C2566 C2565 1.404 . S
C2566 C2570 1.389 . S
C2566 H2588 0.930 . S
C2567 C2565 1.352 . S
C2567 C2569 1.374 . S
C2567 H2589 0.931 . S
C2568 C2569 1.359 . S
C2568 C2570 1.364 . S
C2569 C2567 1.374 . S
C2569 C2568 1.359 . S
C2569 H2590 0.931 . S
C2570 C2566 1.389 . S
C2570 C2568 1.364 . S
C2570 H2591 0.931 . S
C2571 O2582 1.256 . S
C2571 O2583 1.257 . S
O2572 Gd2552 2.377 . S
O2572 C2554 1.240 . S
O2573 Gd2553 2.395 . S
O2573 C2554 1.240 . S
O2574 Gd2552 2.448 . S
O2574 C2555 1.249 . S
O2575 Gd2552 2.506 . S
O2575 C2555 1.252 . S
O2576 Gd2552 2.435 . S
O2576 C2562 1.256 . S
O2577 Gd2552 2.717 . S
O2577 Gd2553 2.327 . S
O2577 C2562 1.257 . S
O2578 Gd2553 2.377 . S
O2578 C2563 1.240 . S
O2579 Gd2552 2.395 . S
O2579 C2563 1.240 . S
O2580 Gd2553 2.448 . S
O2580 C2564 1.249 . S
O2581 Gd2553 2.506 . S
O2581 C2564 1.252 . S
O2582 Gd2553 2.435 . S
O2582 C2571 1.256 . S
O2583 Gd2552 2.327 . S
O2583 Gd2553 2.717 . S
O2583 C2571 1.257 . S
H2584 C2557 0.930 . S
H2585 C2558 0.931 . S
H2586 C2560 0.931 . S
H2587 C2561 0.931 . S
H2588 C2566 0.930 . S
H2589 C2567 0.931 . S
H2590 C2569 0.931 . S
H2591 C2570 0.931 . S
Gd2592 C2595 2.818 . S
Gd2592 O2612 2.377 . S
Gd2592 O2614 2.448 . S
Gd2592 O2615 2.506 . S
Gd2592 O2616 2.435 . S
Gd2592 O2617 2.717 . S
Gd2592 O2619 2.395 . S
Gd2592 O2623 2.327 . S
Gd2593 C2604 2.818 . S
Gd2593 O2613 2.395 . S
Gd2593 O2617 2.327 . S
Gd2593 O2618 2.377 . S
Gd2593 O2620 2.448 . S
Gd2593 O2621 2.506 . S
Gd2593 O2622 2.435 . S
Gd2593 O2623 2.717 . S
C2594 O2612 1.240 . S
C2594 O2613 1.240 . S
C2595 Gd2592 2.818 . S
C2595 C2596 1.510 . S
C2595 O2614 1.249 . S
C2595 O2615 1.252 . S
C2596 C2595 1.510 . S
C2596 C2597 1.404 . S
C2596 C2598 1.352 . S
C2597 C2596 1.404 . S
C2597 C2601 1.389 . S
C2597 H2624 0.930 . S
C2598 C2596 1.352 . S
C2598 C2600 1.374 . S
C2598 H2625 0.931 . S
C2599 C2600 1.359 . S
C2599 C2601 1.364 . S
C2600 C2598 1.374 . S
C2600 C2599 1.359 . S
C2600 H2626 0.931 . S
C2601 C2597 1.389 . S
C2601 C2599 1.364 . S
C2601 H2627 0.931 . S
C2602 O2616 1.256 . S
C2602 O2617 1.257 . S
C2603 O2618 1.240 . S
C2603 O2619 1.240 . S
C2604 Gd2593 2.818 . S
C2604 C2605 1.510 . S
C2604 O2620 1.249 . S
C2604 O2621 1.252 . S
C2605 C2604 1.510 . S
C2605 C2606 1.404 . S
C2605 C2607 1.352 . S
C2606 C2605 1.404 . S
C2606 C2610 1.389 . S
C2606 H2628 0.930 . S
C2607 C2605 1.352 . S
C2607 C2609 1.374 . S
C2607 H2629 0.931 . S
C2608 C2609 1.359 . S
C2608 C2610 1.364 . S
C2609 C2607 1.374 . S
C2609 C2608 1.359 . S
C2609 H2630 0.931 . S
C2610 C2606 1.389 . S
C2610 C2608 1.364 . S
C2610 H2631 0.931 . S
C2611 O2622 1.256 . S
C2611 O2623 1.257 . S
O2612 Gd2592 2.377 . S
O2612 C2594 1.240 . S
O2613 Gd2593 2.395 . S
O2613 C2594 1.240 . S
O2614 Gd2592 2.448 . S
O2614 C2595 1.249 . S
O2615 Gd2592 2.506 . S
O2615 C2595 1.252 . S
O2616 Gd2592 2.435 . S
O2616 C2602 1.256 . S
O2617 Gd2592 2.717 . S
O2617 Gd2593 2.327 . S
O2617 C2602 1.257 . S
O2618 Gd2593 2.377 . S
O2618 C2603 1.240 . S
O2619 Gd2592 2.395 . S
O2619 C2603 1.240 . S
O2620 Gd2593 2.448 . S
O2620 C2604 1.249 . S
O2621 Gd2593 2.506 . S
O2621 C2604 1.252 . S
O2622 Gd2593 2.435 . S
O2622 C2611 1.256 . S
O2623 Gd2592 2.327 . S
O2623 Gd2593 2.717 . S
O2623 C2611 1.257 . S
H2624 C2597 0.930 . S
H2625 C2598 0.931 . S
H2626 C2600 0.931 . S
H2627 C2601 0.931 . S
H2628 C2606 0.930 . S
H2629 C2607 0.931 . S
H2630 C2609 0.931 . S
H2631 C2610 0.931 . S
Gd2632 C2635 2.818 . S
Gd2632 O2652 2.377 . S
Gd2632 O2654 2.448 . S
Gd2632 O2655 2.506 . S
Gd2632 O2656 2.435 . S
Gd2632 O2657 2.717 . S
Gd2632 O2659 2.395 . S
Gd2632 O2663 2.327 . S
Gd2633 C2644 2.818 . S
Gd2633 O2653 2.395 . S
Gd2633 O2657 2.327 . S
Gd2633 O2658 2.377 . S
Gd2633 O2660 2.448 . S
Gd2633 O2661 2.506 . S
Gd2633 O2662 2.435 . S
Gd2633 O2663 2.717 . S
C2634 O2652 1.240 . S
C2634 O2653 1.240 . S
C2635 Gd2632 2.818 . S
C2635 C2636 1.510 . S
C2635 O2654 1.249 . S
C2635 O2655 1.252 . S
C2636 C2635 1.510 . S
C2636 C2637 1.404 . S
C2636 C2638 1.352 . S
C2637 C2636 1.404 . S
C2637 C2641 1.389 . S
C2637 H2664 0.930 . S
C2638 C2636 1.352 . S
C2638 C2640 1.374 . S
C2638 H2665 0.931 . S
C2639 C2640 1.359 . S
C2639 C2641 1.364 . S
C2640 C2638 1.374 . S
C2640 C2639 1.359 . S
C2640 H2666 0.931 . S
C2641 C2637 1.389 . S
C2641 C2639 1.364 . S
C2641 H2667 0.931 . S
C2642 O2656 1.256 . S
C2642 O2657 1.257 . S
C2643 O2658 1.240 . S
C2643 O2659 1.240 . S
C2644 Gd2633 2.818 . S
C2644 C2645 1.510 . S
C2644 O2660 1.249 . S
C2644 O2661 1.252 . S
C2645 C2644 1.510 . S
C2645 C2646 1.404 . S
C2645 C2647 1.352 . S
C2646 C2645 1.404 . S
C2646 C2650 1.389 . S
C2646 H2668 0.930 . S
C2647 C2645 1.352 . S
C2647 C2649 1.374 . S
C2647 H2669 0.931 . S
C2648 C2649 1.359 . S
C2648 C2650 1.364 . S
C2649 C2647 1.374 . S
C2649 C2648 1.359 . S
C2649 H2670 0.931 . S
C2650 C2646 1.389 . S
C2650 C2648 1.364 . S
C2650 H2671 0.931 . S
C2651 O2662 1.256 . S
C2651 O2663 1.257 . S
O2652 Gd2632 2.377 . S
O2652 C2634 1.240 . S
O2653 Gd2633 2.395 . S
O2653 C2634 1.240 . S
O2654 Gd2632 2.448 . S
O2654 C2635 1.249 . S
O2655 Gd2632 2.506 . S
O2655 C2635 1.252 . S
O2656 Gd2632 2.435 . S
O2656 C2642 1.256 . S
O2657 Gd2632 2.717 . S
O2657 Gd2633 2.327 . S
O2657 C2642 1.257 . S
O2658 Gd2633 2.377 . S
O2658 C2643 1.240 . S
O2659 Gd2632 2.395 . S
O2659 C2643 1.240 . S
O2660 Gd2633 2.448 . S
O2660 C2644 1.249 . S
O2661 Gd2633 2.506 . S
O2661 C2644 1.252 . S
O2662 Gd2633 2.435 . S
O2662 C2651 1.256 . S
O2663 Gd2632 2.327 . S
O2663 Gd2633 2.717 . S
O2663 C2651 1.257 . S
H2664 C2637 0.930 . S
H2665 C2638 0.931 . S
H2666 C2640 0.931 . S
H2667 C2641 0.931 . S
H2668 C2646 0.930 . S
H2669 C2647 0.931 . S
H2670 C2649 0.931 . S
H2671 C2650 0.931 . S
Gd2672 C2675 2.818 . S
Gd2672 O2692 2.377 . S
Gd2672 O2694 2.448 . S
Gd2672 O2695 2.506 . S
Gd2672 O2696 2.435 . S
Gd2672 O2697 2.717 . S
Gd2672 O2699 2.395 . S
Gd2672 O2703 2.327 . S
Gd2673 C2684 2.818 . S
Gd2673 O2693 2.395 . S
Gd2673 O2697 2.327 . S
Gd2673 O2698 2.377 . S
Gd2673 O2700 2.448 . S
Gd2673 O2701 2.506 . S
Gd2673 O2702 2.435 . S
Gd2673 O2703 2.717 . S
C2674 O2692 1.240 . S
C2674 O2693 1.240 . S
C2675 Gd2672 2.818 . S
C2675 C2676 1.510 . S
C2675 O2694 1.249 . S
C2675 O2695 1.252 . S
C2676 C2675 1.510 . S
C2676 C2677 1.404 . S
C2676 C2678 1.352 . S
C2677 C2676 1.404 . S
C2677 C2681 1.389 . S
C2677 H2704 0.930 . S
C2678 C2676 1.352 . S
C2678 C2680 1.374 . S
C2678 H2705 0.931 . S
C2679 C2680 1.359 . S
C2679 C2681 1.364 . S
C2680 C2678 1.374 . S
C2680 C2679 1.359 . S
C2680 H2706 0.931 . S
C2681 C2677 1.389 . S
C2681 C2679 1.364 . S
C2681 H2707 0.931 . S
C2682 O2696 1.256 . S
C2682 O2697 1.257 . S
C2683 O2698 1.240 . S
C2683 O2699 1.240 . S
C2684 Gd2673 2.818 . S
C2684 C2685 1.510 . S
C2684 O2700 1.249 . S
C2684 O2701 1.252 . S
C2685 C2684 1.510 . S
C2685 C2686 1.404 . S
C2685 C2687 1.352 . S
C2686 C2685 1.404 . S
C2686 C2690 1.389 . S
C2686 H2708 0.930 . S
C2687 C2685 1.352 . S
C2687 C2689 1.374 . S
C2687 H2709 0.931 . S
C2688 C2689 1.359 . S
C2688 C2690 1.364 . S
C2689 C2687 1.374 . S
C2689 C2688 1.359 . S
C2689 H2710 0.931 . S
C2690 C2686 1.389 . S
C2690 C2688 1.364 . S
C2690 H2711 0.931 . S
C2691 O2702 1.256 . S
C2691 O2703 1.257 . S
O2692 Gd2672 2.377 . S
O2692 C2674 1.240 . S
O2693 Gd2673 2.395 . S
O2693 C2674 1.240 . S
O2694 Gd2672 2.448 . S
O2694 C2675 1.249 . S
O2695 Gd2672 2.506 . S
O2695 C2675 1.252 . S
O2696 Gd2672 2.435 . S
O2696 C2682 1.256 . S
O2697 Gd2672 2.717 . S
O2697 Gd2673 2.327 . S
O2697 C2682 1.257 . S
O2698 Gd2673 2.377 . S
O2698 C2683 1.240 . S
O2699 Gd2672 2.395 . S
O2699 C2683 1.240 . S
O2700 Gd2673 2.448 . S
O2700 C2684 1.249 . S
O2701 Gd2673 2.506 . S
O2701 C2684 1.252 . S
O2702 Gd2673 2.435 . S
O2702 C2691 1.256 . S
O2703 Gd2672 2.327 . S
O2703 Gd2673 2.717 . S
O2703 C2691 1.257 . S
H2704 C2677 0.930 . S
H2705 C2678 0.931 . S
H2706 C2680 0.931 . S
H2707 C2681 0.931 . S
H2708 C2686 0.930 . S
H2709 C2687 0.931 . S
H2710 C2689 0.931 . S
H2711 C2690 0.931 . S
Gd2712 C2715 2.818 1_554 S
Gd2712 O2732 2.377 1_554 S
Gd2712 O2734 2.448 1_554 S
Gd2712 O2735 2.506 . S
Gd2712 O2736 2.435 1_554 S
Gd2712 O2737 2.717 1_554 S
Gd2712 O2739 2.395 . S
Gd2712 O2743 2.327 . S
Gd2713 C2724 2.818 1_455 S
Gd2713 O2733 2.395 . S
Gd2713 O2737 2.327 1_554 S
Gd2713 O2738 2.377 . S
Gd2713 O2740 2.448 1_455 S
Gd2713 O2741 2.506 1_455 S
Gd2713 O2742 2.435 . S
Gd2713 O2743 2.717 . S
C2714 O2732 1.240 1_554 S
C2714 O2733 1.240 . S
C2715 Gd2712 2.818 1_556 S
C2715 C2716 1.510 . S
C2715 O2734 1.249 . S
C2715 O2735 1.252 1_556 S
C2716 C2715 1.510 . S
C2716 C2717 1.404 . S
C2716 C2718 1.352 1_556 S
C2717 C2716 1.404 . S
C2717 C2721 1.389 . S
C2717 H2744 0.930 . S
C2718 C2716 1.352 1_554 S
C2718 C2720 1.374 . S
C2718 H2745 0.931 . S
C2719 C2720 1.359 1_556 S
C2719 C2721 1.364 . S
C2720 C2718 1.374 . S
C2720 C2719 1.359 1_554 S
C2720 H2746 0.931 . S
C2721 C2717 1.389 . S
C2721 C2719 1.364 . S
C2721 H2747 0.931 . S
C2722 O2736 1.256 . S
C2722 O2737 1.257 . S
C2723 O2738 1.240 . S
C2723 O2739 1.240 . S
C2724 Gd2713 2.818 1_655 S
C2724 C2725 1.510 . S
C2724 O2740 1.249 . S
C2724 O2741 1.252 . S
C2725 C2724 1.510 . S
C2725 C2726 1.404 . S
C2725 C2727 1.352 . S
C2726 C2725 1.404 . S
C2726 C2730 1.389 . S
C2726 H2748 0.930 . S
C2727 C2725 1.352 . S
C2727 C2729 1.374 . S
C2727 H2749 0.931 . S
C2728 C2729 1.359 . S
C2728 C2730 1.364 . S
C2729 C2727 1.374 . S
C2729 C2728 1.359 . S
C2729 H2750 0.931 . S
C2730 C2726 1.389 . S
C2730 C2728 1.364 . S
C2730 H2751 0.931 . S
C2731 O2742 1.256 . S
C2731 O2743 1.257 . S
O2732 Gd2712 2.377 1_556 S
O2732 C2714 1.240 1_556 S
O2733 Gd2713 2.395 . S
O2733 C2714 1.240 . S
O2734 Gd2712 2.448 1_556 S
O2734 C2715 1.249 . S
O2735 Gd2712 2.506 . S
O2735 C2715 1.252 1_554 S
O2736 Gd2712 2.435 1_556 S
O2736 C2722 1.256 . S
O2737 Gd2712 2.717 1_556 S
O2737 Gd2713 2.327 1_556 S
O2737 C2722 1.257 . S
O2738 Gd2713 2.377 . S
O2738 C2723 1.240 . S
O2739 Gd2712 2.395 . S
O2739 C2723 1.240 . S
O2740 Gd2713 2.448 1_655 S
O2740 C2724 1.249 . S
O2741 Gd2713 2.506 1_655 S
O2741 C2724 1.252 . S
O2742 Gd2713 2.435 . S
O2742 C2731 1.256 . S
O2743 Gd2712 2.327 . S
O2743 Gd2713 2.717 . S
O2743 C2731 1.257 . S
H2744 C2717 0.930 . S
H2745 C2718 0.931 . S
H2746 C2720 0.931 . S
H2747 C2721 0.931 . S
H2748 C2726 0.930 . S
H2749 C2727 0.931 . S
H2750 C2729 0.931 . S
H2751 C2730 0.931 . S
H2752 C2760 0.929 . S
H2753 C2762 0.930 . S
H2754 C2764 0.930 . S
H2755 C2767 0.929 . S
H2756 C2770 0.930 1_655 S
H2757 C2772 0.960 1_554 S
H2758 C2772 0.960 1_554 S
H2759 C2772 0.960 . S
C2760 H2752 0.929 . S
C2760 C2761 1.377 1_655 S
C2760 C2762 1.384 . S
C2761 C2760 1.377 1_455 S
C2761 C2767 1.390 . S
C2762 H2753 0.930 . S
C2762 C2760 1.384 . S
C2762 C2763 1.372 1_655 S
C2763 C2762 1.372 1_455 S
C2763 C2764 1.400 . S
C2763 C2768 1.490 . S
C2764 H2754 0.930 . S
C2764 C2763 1.400 . S
C2764 C2767 1.386 . S
H2765 C2781 0.930 . S
H2766 C2782 0.931 . S
C2767 H2755 0.929 . S
C2767 C2761 1.390 . S
C2767 C2764 1.386 . S
C2768 C2763 1.490 . S
C2768 C2770 1.395 . S
C2768 C2771 1.403 . S
H2769 C2775 0.930 . S
C2770 H2756 0.930 1_455 S
C2770 C2768 1.395 . S
C2770 C2773 1.403 . S
C2771 C2768 1.403 . S
C2771 C2772 1.524 . S
C2771 C2775 1.400 . S
C2772 H2757 0.960 1_556 S
C2772 H2758 0.960 1_556 S
C2772 H2759 0.960 . S
C2772 C2771 1.524 . S
C2773 C2770 1.403 . S
C2773 C2774 1.392 . S
C2773 C2777 1.495 1_455 S
C2774 C2773 1.392 . S
C2774 C2775 1.385 . S
C2774 C2776 1.478 . S
C2775 H2769 0.930 . S
C2775 C2771 1.400 . S
C2775 C2774 1.385 . S
C2776 C2774 1.478 . S
C2776 C2778 1.381 . S
C2776 C2782 1.383 . S
C2777 C2773 1.495 1_655 S
C2777 H2783 0.959 . S
C2777 H2784 0.961 . S
C2777 H2785 0.960 . S
C2778 C2776 1.381 . S
C2778 C2779 1.394 1_556 S
C2778 H2786 0.930 1_556 S
C2779 C2778 1.394 1_554 S
C2779 C2780 1.371 1_554 S
C2779 H2787 0.929 . S
C2780 C2779 1.371 1_556 S
C2780 C2781 1.407 . S
C2781 H2765 0.930 . S
C2781 C2780 1.407 . S
C2781 C2782 1.379 . S
C2782 H2766 0.931 . S
C2782 C2776 1.383 . S
C2782 C2781 1.379 . S
H2783 C2777 0.959 . S
H2784 C2777 0.961 . S
H2785 C2777 0.960 . S
H2786 C2778 0.930 1_554 S
H2787 C2779 0.929 . S
H2788 C2796 0.929 . S
H2789 C2798 0.930 . S
H2790 C2800 0.930 . S
H2791 C2803 0.929 . S
H2792 C2806 0.930 . S
H2793 C2808 0.960 . S
H2794 C2808 0.960 . S
H2795 C2808 0.960 . S
C2796 H2788 0.929 . S
C2796 C2797 1.377 . S
C2796 C2798 1.384 . S
C2797 C2796 1.377 . S
C2797 C2803 1.390 . S
C2798 H2789 0.930 . S
C2798 C2796 1.384 . S
C2798 C2799 1.372 . S
C2799 C2798 1.372 . S
C2799 C2800 1.400 . S
C2799 C2804 1.490 . S
C2800 H2790 0.930 . S
C2800 C2799 1.400 . S
C2800 C2803 1.386 . S
H2801 C2817 0.930 . S
H2802 C2818 0.931 . S
C2803 H2791 0.929 . S
C2803 C2797 1.390 . S
C2803 C2800 1.386 . S
C2804 C2799 1.490 . S
C2804 C2806 1.395 . S
C2804 C2807 1.403 . S
H2805 C2811 0.930 . S
C2806 H2792 0.930 . S
C2806 C2804 1.395 . S
C2806 C2809 1.403 . S
C2807 C2804 1.403 . S
C2807 C2808 1.524 . S
C2807 C2811 1.400 . S
C2808 H2793 0.960 . S
C2808 H2794 0.960 . S
C2808 H2795 0.960 . S
C2808 C2807 1.524 . S
C2809 C2806 1.403 . S
C2809 C2810 1.392 . S
C2809 C2813 1.495 . S
C2810 C2809 1.392 . S
C2810 C2811 1.385 . S
C2810 C2812 1.478 . S
C2811 H2805 0.930 . S
C2811 C2807 1.400 . S
C2811 C2810 1.385 . S
C2812 C2810 1.478 . S
C2812 C2814 1.381 . S
C2812 C2818 1.383 . S
C2813 C2809 1.495 . S
C2813 H2819 0.959 . S
C2813 H2820 0.961 . S
C2813 H2821 0.960 . S
C2814 C2812 1.381 . S
C2814 C2815 1.394 . S
C2814 H2822 0.930 . S
C2815 C2814 1.394 . S
C2815 C2816 1.383 . S
C2815 H2823 0.929 . S
C2816 C2815 1.383 . S
C2816 C2817 1.377 . S
C2817 H2801 0.930 . S
C2817 C2816 1.377 . S
C2817 C2818 1.379 . S
C2818 H2802 0.931 . S
C2818 C2812 1.383 . S
C2818 C2817 1.379 . S
H2819 C2813 0.959 . S
H2820 C2813 0.961 . S
H2821 C2813 0.960 . S
H2822 C2814 0.930 . S
H2823 C2815 0.929 . S
H2824 C2832 0.929 . S
H2825 C2834 0.930 . S
H2826 C2836 0.930 . S
H2827 C2839 0.929 . S
H2828 C2842 0.930 . S
H2829 C2844 0.960 . S
H2830 C2844 0.960 . S
H2831 C2844 0.960 . S
C2832 H2824 0.929 . S
C2832 C2833 1.377 . S
C2832 C2834 1.384 . S
C2833 C2832 1.377 . S
C2833 C2839 1.390 . S
C2834 H2825 0.930 . S
C2834 C2832 1.384 . S
C2834 C2835 1.372 . S
C2835 C2834 1.372 . S
C2835 C2836 1.400 . S
C2835 C2840 1.490 . S
C2836 H2826 0.930 . S
C2836 C2835 1.400 . S
C2836 C2839 1.386 . S
H2837 C2853 0.930 . S
H2838 C2854 0.931 . S
C2839 H2827 0.929 . S
C2839 C2833 1.390 . S
C2839 C2836 1.386 . S
C2840 C2835 1.490 . S
C2840 C2842 1.395 . S
C2840 C2843 1.403 . S
H2841 C2847 0.930 . S
C2842 H2828 0.930 . S
C2842 C2840 1.395 . S
C2842 C2845 1.403 . S
C2843 C2840 1.403 . S
C2843 C2844 1.524 . S
C2843 C2847 1.400 . S
C2844 H2829 0.960 . S
C2844 H2830 0.960 . S
C2844 H2831 0.960 . S
C2844 C2843 1.524 . S
C2845 C2842 1.403 . S
C2845 C2846 1.392 . S
C2845 C2849 1.495 . S
C2846 C2845 1.392 . S
C2846 C2847 1.385 . S
C2846 C2848 1.478 . S
C2847 H2841 0.930 . S
C2847 C2843 1.400 . S
C2847 C2846 1.385 . S
C2848 C2846 1.478 . S
C2848 C2850 1.381 . S
C2848 C2854 1.383 . S
C2849 C2845 1.495 . S
C2849 H2855 0.959 . S
C2849 H2856 0.961 . S
C2849 H2857 0.960 . S
C2850 C2848 1.381 . S
C2850 C2851 1.394 . S
C2850 H2858 0.930 . S
C2851 C2850 1.394 . S
C2851 C2852 1.383 . S
C2851 H2859 0.929 . S
C2852 C2851 1.383 . S
C2852 C2853 1.377 . S
C2853 H2837 0.930 . S
C2853 C2852 1.377 . S
C2853 C2854 1.379 . S
C2854 H2838 0.931 . S
C2854 C2848 1.383 . S
C2854 C2853 1.379 . S
H2855 C2849 0.959 . S
H2856 C2849 0.961 . S
H2857 C2849 0.960 . S
H2858 C2850 0.930 . S
H2859 C2851 0.929 . S
H2860 C2868 0.929 . S
H2861 C2870 0.930 . S
H2862 C2872 0.930 . S
H2863 C2875 0.929 . S
H2864 C2878 0.930 . S
H2865 C2880 0.960 . S
H2866 C2880 0.960 . S
H2867 C2880 0.960 . S
C2868 H2860 0.929 . S
C2868 C2869 1.377 . S
C2868 C2870 1.384 . S
C2869 C2868 1.377 . S
C2869 C2875 1.390 . S
C2870 H2861 0.930 . S
C2870 C2868 1.384 . S
C2870 C2871 1.372 . S
C2871 C2870 1.372 . S
C2871 C2872 1.400 . S
C2871 C2876 1.490 . S
C2872 H2862 0.930 . S
C2872 C2871 1.400 . S
C2872 C2875 1.386 . S
H2873 C2889 0.930 . S
H2874 C2890 0.931 . S
C2875 H2863 0.929 . S
C2875 C2869 1.390 . S
C2875 C2872 1.386 . S
C2876 C2871 1.490 . S
C2876 C2878 1.395 . S
C2876 C2879 1.403 . S
H2877 C2883 0.930 . S
C2878 H2864 0.930 . S
C2878 C2876 1.395 . S
C2878 C2881 1.403 . S
C2879 C2876 1.403 . S
C2879 C2880 1.524 . S
C2879 C2883 1.400 . S
C2880 H2865 0.960 . S
C2880 H2866 0.960 . S
C2880 H2867 0.960 . S
C2880 C2879 1.524 . S
C2881 C2878 1.403 . S
C2881 C2882 1.392 . S
C2881 C2885 1.495 . S
C2882 C2881 1.392 . S
C2882 C2883 1.385 . S
C2882 C2884 1.478 . S
C2883 H2877 0.930 . S
C2883 C2879 1.400 . S
C2883 C2882 1.385 . S
C2884 C2882 1.478 . S
C2884 C2886 1.381 . S
C2884 C2890 1.383 . S
C2885 C2881 1.495 . S
C2885 H2891 0.959 . S
C2885 H2892 0.961 . S
C2885 H2893 0.960 . S
C2886 C2884 1.381 . S
C2886 C2887 1.394 . S
C2886 H2894 0.930 . S
C2887 C2886 1.394 . S
C2887 C2888 1.383 . S
C2887 H2895 0.929 . S
C2888 C2887 1.383 . S
C2888 C2889 1.377 . S
C2889 H2873 0.930 . S
C2889 C2888 1.377 . S
C2889 C2890 1.379 . S
C2890 H2874 0.931 . S
C2890 C2884 1.383 . S
C2890 C2889 1.379 . S
H2891 C2885 0.959 . S
H2892 C2885 0.961 . S
H2893 C2885 0.960 . S
H2894 C2886 0.930 . S
H2895 C2887 0.929 . S
H2896 C2904 0.929 . S
H2897 C2906 0.930 1_655 S
H2898 C2908 0.930 . S
H2899 C2911 0.929 . S
H2900 C2914 0.930 . S
H2901 C2916 0.960 . S
H2902 C2916 0.960 . S
H2903 C2916 0.960 . S
C2904 H2896 0.929 . S
C2904 C2905 1.377 1_655 S
C2904 C2906 1.384 1_655 S
C2905 C2904 1.377 1_455 S
C2905 C2911 1.390 . S
C2906 H2897 0.930 1_455 S
C2906 C2904 1.384 1_455 S
C2906 C2907 1.372 . S
C2907 C2906 1.372 . S
C2907 C2908 1.400 . S
C2907 C2912 1.490 . S
C2908 H2898 0.930 . S
C2908 C2907 1.400 . S
C2908 C2911 1.386 . S
H2909 C2925 0.930 . S
H2910 C2926 0.931 . S
C2911 H2899 0.929 . S
C2911 C2905 1.390 . S
C2911 C2908 1.386 . S
C2912 C2907 1.490 . S
C2912 C2914 1.395 . S
C2912 C2915 1.403 . S
H2913 C2919 0.930 . S
C2914 H2900 0.930 . S
C2914 C2912 1.395 . S
C2914 C2917 1.403 . S
C2915 C2912 1.403 . S
C2915 C2916 1.524 . S
C2915 C2919 1.400 . S
C2916 H2901 0.960 . S
C2916 H2902 0.960 . S
C2916 H2903 0.960 . S
C2916 C2915 1.524 . S
C2917 C2914 1.403 . S
C2917 C2918 1.392 . S
C2917 C2921 1.495 . S
C2918 C2917 1.392 . S
C2918 C2919 1.385 . S
C2918 C2920 1.478 . S
C2919 H2913 0.930 . S
C2919 C2915 1.400 . S
C2919 C2918 1.385 . S
C2920 C2918 1.478 . S
C2920 C2922 1.381 . S
C2920 C2926 1.383 . S
C2921 C2917 1.495 . S
C2921 H2927 0.959 . S
C2921 H2928 0.961 . S
C2921 H2929 0.960 . S
C2922 C2920 1.381 . S
C2922 C2923 1.394 . S
C2922 H2930 0.930 . S
C2923 C2922 1.394 . S
C2923 C2924 1.383 . S
C2923 H2931 0.929 . S
C2924 C2923 1.383 . S
C2924 C2925 1.377 . S
C2925 H2909 0.930 . S
C2925 C2924 1.377 . S
C2925 C2926 1.379 . S
C2926 H2910 0.931 . S
C2926 C2920 1.383 . S
C2926 C2925 1.379 . S
H2927 C2921 0.959 . S
H2928 C2921 0.961 . S
H2929 C2921 0.960 . S
H2930 C2922 0.930 . S
H2931 C2923 0.929 . S
H2932 C2940 0.929 . S
H2933 C2942 0.930 . S
H2934 C2944 0.930 . S
H2935 C2947 0.929 . S
H2936 C2950 0.930 . S
H2937 C2952 0.960 . S
H2938 C2952 0.960 . S
H2939 C2952 0.960 . S
C2940 H2932 0.929 . S
C2940 C2941 1.377 . S
C2940 C2942 1.384 . S
C2941 C2940 1.377 . S
C2941 C2947 1.390 . S
C2942 H2933 0.930 . S
C2942 C2940 1.384 . S
C2942 C2943 1.372 . S
C2943 C2942 1.372 . S
C2943 C2944 1.400 . S
C2943 C2948 1.490 . S
C2944 H2934 0.930 . S
C2944 C2943 1.400 . S
C2944 C2947 1.386 . S
H2945 C2961 0.930 . S
H2946 C2962 0.931 . S
C2947 H2935 0.929 . S
C2947 C2941 1.390 . S
C2947 C2944 1.386 . S
C2948 C2943 1.490 . S
C2948 C2950 1.395 . S
C2948 C2951 1.403 . S
H2949 C2955 0.930 . S
C2950 H2936 0.930 . S
C2950 C2948 1.395 . S
C2950 C2953 1.403 . S
C2951 C2948 1.403 . S
C2951 C2952 1.524 . S
C2951 C2955 1.400 . S
C2952 H2937 0.960 . S
C2952 H2938 0.960 . S
C2952 H2939 0.960 . S
C2952 C2951 1.524 . S
C2953 C2950 1.403 . S
C2953 C2954 1.392 . S
C2953 C2957 1.495 . S
C2954 C2953 1.392 . S
C2954 C2955 1.385 . S
C2954 C2956 1.478 . S
C2955 H2949 0.930 . S
C2955 C2951 1.400 . S
C2955 C2954 1.385 . S
C2956 C2954 1.478 . S
C2956 C2958 1.381 . S
C2956 C2962 1.383 . S
C2957 C2953 1.495 . S
C2957 H2963 0.959 . S
C2957 H2964 0.961 . S
C2957 H2965 0.960 . S
C2958 C2956 1.381 . S
C2958 C2959 1.394 . S
C2958 H2966 0.930 . S
C2959 C2958 1.394 . S
C2959 C2960 1.383 . S
C2959 H2967 0.929 . S
C2960 C2959 1.383 . S
C2960 C2961 1.377 . S
C2961 H2945 0.930 . S
C2961 C2960 1.377 . S
C2961 C2962 1.379 . S
C2962 H2946 0.931 . S
C2962 C2956 1.383 . S
C2962 C2961 1.379 . S
H2963 C2957 0.959 . S
H2964 C2957 0.961 . S
H2965 C2957 0.960 . S
H2966 C2958 0.930 . S
H2967 C2959 0.929 . S
H2968 C2976 0.929 . S
H2969 C2978 0.930 . S
H2970 C2980 0.930 . S
H2971 C2983 0.929 . S
H2972 C2986 0.930 . S
H2973 C2988 0.960 . S
H2974 C2988 0.960 . S
H2975 C2988 0.960 . S
C2976 H2968 0.929 . S
C2976 C2977 1.377 . S
C2976 C2978 1.384 . S
C2977 C2976 1.377 . S
C2977 C2983 1.390 . S
C2978 H2969 0.930 . S
C2978 C2976 1.384 . S
C2978 C2979 1.372 . S
C2979 C2978 1.372 . S
C2979 C2980 1.400 . S
C2979 C2984 1.490 . S
C2980 H2970 0.930 . S
C2980 C2979 1.400 . S
C2980 C2983 1.386 . S
H2981 C2997 0.930 . S
H2982 C2998 0.931 . S
C2983 H2971 0.929 . S
C2983 C2977 1.390 . S
C2983 C2980 1.386 . S
C2984 C2979 1.490 . S
C2984 C2986 1.395 . S
C2984 C2987 1.403 . S
H2985 C2991 0.930 . S
C2986 H2972 0.930 . S
C2986 C2984 1.395 . S
C2986 C2989 1.403 . S
C2987 C2984 1.403 . S
C2987 C2988 1.524 . S
C2987 C2991 1.400 . S
C2988 H2973 0.960 . S
C2988 H2974 0.960 . S
C2988 H2975 0.960 . S
C2988 C2987 1.524 . S
C2989 C2986 1.403 . S
C2989 C2990 1.392 . S
C2989 C2993 1.495 . S
C2990 C2989 1.392 . S
C2990 C2991 1.385 . S
C2990 C2992 1.478 . S
C2991 H2985 0.930 . S
C2991 C2987 1.400 . S
C2991 C2990 1.385 . S
C2992 C2990 1.478 . S
C2992 C2994 1.381 . S
C2992 C2998 1.383 . S
C2993 C2989 1.495 . S
C2993 H2999 0.959 . S
C2993 H3000 0.961 . S
C2993 H3001 0.960 . S
C2994 C2992 1.381 . S
C2994 C2995 1.394 . S
C2994 H3002 0.930 . S
C2995 C2994 1.394 . S
C2995 C2996 1.383 . S
C2995 H3003 0.929 . S
C2996 C2995 1.383 . S
C2996 C2997 1.377 . S
C2997 H2981 0.930 . S
C2997 C2996 1.377 . S
C2997 C2998 1.379 . S
C2998 H2982 0.931 . S
C2998 C2992 1.383 . S
C2998 C2997 1.379 . S
H2999 C2993 0.959 . S
H3000 C2993 0.961 . S
H3001 C2993 0.960 . S
H3002 C2994 0.930 . S
H3003 C2995 0.929 . S
H3004 C3012 0.929 . S
H3005 C3014 0.930 . S
H3006 C3016 0.930 . S
H3007 C3019 0.929 . S
H3008 C3022 0.930 . S
H3009 C3024 0.960 . S
H3010 C3024 0.960 . S
H3011 C3024 0.960 . S
C3012 H3004 0.929 . S
C3012 C3013 1.377 . S
C3012 C3014 1.384 . S
C3013 C3012 1.377 . S
C3013 C3019 1.390 . S
C3014 H3005 0.930 . S
C3014 C3012 1.384 . S
C3014 C3015 1.372 . S
C3015 C3014 1.372 . S
C3015 C3016 1.400 . S
C3015 C3020 1.490 . S
C3016 H3006 0.930 . S
C3016 C3015 1.400 . S
C3016 C3019 1.386 . S
H3017 C3033 0.930 . S
H3018 C3034 0.931 . S
C3019 H3007 0.929 . S
C3019 C3013 1.390 . S
C3019 C3016 1.386 . S
C3020 C3015 1.490 . S
C3020 C3022 1.395 . S
C3020 C3023 1.403 . S
H3021 C3027 0.930 . S
C3022 H3008 0.930 . S
C3022 C3020 1.395 . S
C3022 C3025 1.403 . S
C3023 C3020 1.403 . S
C3023 C3024 1.524 . S
C3023 C3027 1.400 . S
C3024 H3009 0.960 . S
C3024 H3010 0.960 . S
C3024 H3011 0.960 . S
C3024 C3023 1.524 . S
C3025 C3022 1.403 . S
C3025 C3026 1.392 . S
C3025 C3029 1.495 . S
C3026 C3025 1.392 . S
C3026 C3027 1.385 . S
C3026 C3028 1.478 . S
C3027 H3021 0.930 . S
C3027 C3023 1.400 . S
C3027 C3026 1.385 . S
C3028 C3026 1.478 . S
C3028 C3030 1.381 . S
C3028 C3034 1.383 . S
C3029 C3025 1.495 . S
C3029 H3035 0.959 . S
C3029 H3036 0.961 . S
C3029 H3037 0.960 . S
C3030 C3028 1.381 . S
C3030 C3031 1.394 . S
C3030 H3038 0.930 . S
C3031 C3030 1.394 . S
C3031 C3032 1.383 . S
C3031 H3039 0.929 . S
C3032 C3031 1.383 . S
C3032 C3033 1.377 . S
C3033 H3017 0.930 . S
C3033 C3032 1.377 . S
C3033 C3034 1.379 . S
C3034 H3018 0.931 . S
C3034 C3028 1.383 . S
C3034 C3033 1.379 . S
H3035 C3029 0.959 . S
H3036 C3029 0.961 . S
H3037 C3029 0.960 . S
H3038 C3030 0.930 . S
H3039 C3031 0.929 . S
H3040 C3048 0.929 . S
H3041 C3050 0.930 . S
H3042 C3052 0.930 . S
H3043 C3055 0.929 . S
H3044 C3058 0.930 . S
H3045 C3060 0.960 . S
H3046 C3060 0.960 . S
H3047 C3060 0.960 . S
C3048 H3040 0.929 . S
C3048 C3049 1.377 . S
C3048 C3050 1.384 . S
C3049 C3048 1.377 . S
C3049 C3055 1.390 . S
C3050 H3041 0.930 . S
C3050 C3048 1.384 . S
C3050 C3051 1.372 . S
C3051 C3050 1.372 . S
C3051 C3052 1.400 . S
C3051 C3056 1.490 . S
C3052 H3042 0.930 . S
C3052 C3051 1.400 . S
C3052 C3055 1.386 . S
H3053 C3069 0.930 . S
H3054 C3070 0.931 . S
C3055 H3043 0.929 . S
C3055 C3049 1.390 . S
C3055 C3052 1.386 . S
C3056 C3051 1.490 . S
C3056 C3058 1.395 1_655 S
C3056 C3059 1.403 . S
H3057 C3063 0.930 . S
C3058 H3044 0.930 . S
C3058 C3056 1.395 1_455 S
C3058 C3061 1.403 . S
C3059 C3056 1.403 . S
C3059 C3060 1.524 . S
C3059 C3063 1.400 . S
C3060 H3045 0.960 . S
C3060 H3046 0.960 . S
C3060 H3047 0.960 . S
C3060 C3059 1.524 . S
C3061 C3058 1.403 . S
C3061 C3062 1.392 . S
C3061 C3065 1.495 . S
C3062 C3061 1.392 . S
C3062 C3063 1.385 1_455 S
C3062 C3064 1.478 . S
C3063 H3057 0.930 . S
C3063 C3059 1.400 . S
C3063 C3062 1.385 1_655 S
C3064 C3062 1.478 . S
C3064 C3066 1.381 . S
C3064 C3070 1.383 . S
C3065 C3061 1.495 . S
C3065 H3071 0.959 . S
C3065 H3072 0.961 . S
C3065 H3073 0.960 . S
C3066 C3064 1.381 . S
C3066 C3067 1.394 . S
C3066 H3074 0.930 . S
C3067 C3066 1.394 . S
C3067 C3068 1.383 . S
C3067 H3075 0.929 . S
C3068 C3067 1.383 . S
C3068 C3069 1.377 . S
C3069 H3053 0.930 . S
C3069 C3068 1.377 . S
C3069 C3070 1.379 . S
C3070 H3054 0.931 . S
C3070 C3064 1.383 . S
C3070 C3069 1.379 . S
H3071 C3065 0.959 . S
H3072 C3065 0.961 . S
H3073 C3065 0.960 . S
H3074 C3066 0.930 . S
H3075 C3067 0.929 . S
H3076 C3084 0.929 . S
H3077 C3086 0.930 . S
H3078 C3088 0.930 . S
H3079 C3091 0.929 . S
H3080 C3094 0.930 . S
H3081 C3096 0.960 . S
H3082 C3096 0.960 . S
H3083 C3096 0.960 . S
C3084 H3076 0.929 . S
C3084 C3085 1.377 . S
C3084 C3086 1.384 . S
C3085 C3084 1.377 . S
C3085 C3091 1.390 . S
C3086 H3077 0.930 . S
C3086 C3084 1.384 . S
C3086 C3087 1.372 . S
C3087 C3086 1.372 . S
C3087 C3088 1.400 . S
C3087 C3092 1.490 . S
C3088 H3078 0.930 . S
C3088 C3087 1.400 . S
C3088 C3091 1.386 . S
H3089 C3105 0.930 . S
H3090 C3106 0.931 . S
C3091 H3079 0.929 . S
C3091 C3085 1.390 . S
C3091 C3088 1.386 . S
C3092 C3087 1.490 . S
C3092 C3094 1.395 . S
C3092 C3095 1.403 . S
H3093 C3099 0.930 . S
C3094 H3080 0.930 . S
C3094 C3092 1.395 . S
C3094 C3097 1.403 . S
C3095 C3092 1.403 . S
C3095 C3096 1.524 . S
C3095 C3099 1.400 . S
C3096 H3081 0.960 . S
C3096 H3082 0.960 . S
C3096 H3083 0.960 . S
C3096 C3095 1.524 . S
C3097 C3094 1.403 . S
C3097 C3098 1.392 . S
C3097 C3101 1.495 . S
C3098 C3097 1.392 . S
C3098 C3099 1.385 . S
C3098 C3100 1.478 . S
C3099 H3093 0.930 . S
C3099 C3095 1.400 . S
C3099 C3098 1.385 . S
C3100 C3098 1.478 . S
C3100 C3102 1.381 . S
C3100 C3106 1.383 . S
C3101 C3097 1.495 . S
C3101 H3107 0.959 . S
C3101 H3108 0.961 . S
C3101 H3109 0.960 . S
C3102 C3100 1.381 . S
C3102 C3103 1.394 . S
C3102 H3110 0.930 . S
C3103 C3102 1.394 . S
C3103 C3104 1.383 . S
C3103 H3111 0.929 . S
C3104 C3103 1.383 . S
C3104 C3105 1.377 . S
C3105 H3089 0.930 . S
C3105 C3104 1.377 . S
C3105 C3106 1.379 . S
C3106 H3090 0.931 . S
C3106 C3100 1.383 . S
C3106 C3105 1.379 . S
H3107 C3101 0.959 . S
H3108 C3101 0.961 . S
H3109 C3101 0.960 . S
H3110 C3102 0.930 . S
H3111 C3103 0.929 . S
H3112 C3120 0.929 . S
H3113 C3122 0.930 . S
H3114 C3124 0.930 . S
H3115 C3127 0.929 . S
H3116 C3130 0.930 . S
H3117 C3132 0.960 . S
H3118 C3132 0.960 . S
H3119 C3132 0.960 . S
C3120 H3112 0.929 . S
C3120 C3121 1.377 . S
C3120 C3122 1.384 . S
C3121 C3120 1.377 . S
C3121 C3127 1.390 . S
C3122 H3113 0.930 . S
C3122 C3120 1.384 . S
C3122 C3123 1.372 . S
C3123 C3122 1.372 . S
C3123 C3124 1.400 . S
C3123 C3128 1.490 . S
C3124 H3114 0.930 . S
C3124 C3123 1.400 . S
C3124 C3127 1.386 . S
H3125 C3141 0.930 . S
H3126 C3142 0.931 . S
C3127 H3115 0.929 . S
C3127 C3121 1.390 . S
C3127 C3124 1.386 . S
C3128 C3123 1.490 . S
C3128 C3130 1.395 . S
C3128 C3131 1.403 . S
H3129 C3135 0.930 . S
C3130 H3116 0.930 . S
C3130 C3128 1.395 . S
C3130 C3133 1.403 . S
C3131 C3128 1.403 . S
C3131 C3132 1.524 . S
C3131 C3135 1.400 . S
C3132 H3117 0.960 . S
C3132 H3118 0.960 . S
C3132 H3119 0.960 . S
C3132 C3131 1.524 . S
C3133 C3130 1.403 . S
C3133 C3134 1.392 . S
C3133 C3137 1.495 . S
C3134 C3133 1.392 . S
C3134 C3135 1.385 . S
C3134 C3136 1.478 . S
C3135 H3129 0.930 . S
C3135 C3131 1.400 . S
C3135 C3134 1.385 . S
C3136 C3134 1.478 . S
C3136 C3138 1.381 . S
C3136 C3142 1.383 . S
C3137 C3133 1.495 . S
C3137 H3143 0.959 . S
C3137 H3144 0.961 . S
C3137 H3145 0.960 . S
C3138 C3136 1.381 . S
C3138 C3139 1.394 . S
C3138 H3146 0.930 . S
C3139 C3138 1.394 . S
C3139 C3140 1.383 . S
C3139 H3147 0.929 . S
C3140 C3139 1.383 . S
C3140 C3141 1.377 . S
C3141 H3125 0.930 . S
C3141 C3140 1.377 . S
C3141 C3142 1.379 . S
C3142 H3126 0.931 . S
C3142 C3136 1.383 . S
C3142 C3141 1.379 . S
H3143 C3137 0.959 . S
H3144 C3137 0.961 . S
H3145 C3137 0.960 . S
H3146 C3138 0.930 . S
H3147 C3139 0.929 . S
H3148 C3156 0.929 . S
H3149 C3158 0.930 . S
H3150 C3160 0.930 . S
H3151 C3163 0.929 . S
H3152 C3166 0.930 . S
H3153 C3168 0.960 . S
H3154 C3168 0.960 . S
H3155 C3168 0.960 . S
C3156 H3148 0.929 . S
C3156 C3157 1.377 . S
C3156 C3158 1.384 . S
C3157 C3156 1.377 . S
C3157 C3163 1.390 . S
C3158 H3149 0.930 . S
C3158 C3156 1.384 . S
C3158 C3159 1.372 . S
C3159 C3158 1.372 . S
C3159 C3160 1.400 . S
C3159 C3164 1.490 . S
C3160 H3150 0.930 . S
C3160 C3159 1.400 . S
C3160 C3163 1.386 . S
H3161 C3177 0.930 . S
H3162 C3178 0.931 . S
C3163 H3151 0.929 . S
C3163 C3157 1.390 . S
C3163 C3160 1.386 . S
C3164 C3159 1.490 . S
C3164 C3166 1.395 . S
C3164 C3167 1.403 . S
H3165 C3171 0.930 . S
C3166 H3152 0.930 . S
C3166 C3164 1.395 . S
C3166 C3169 1.403 . S
C3167 C3164 1.403 . S
C3167 C3168 1.524 . S
C3167 C3171 1.400 . S
C3168 H3153 0.960 . S
C3168 H3154 0.960 . S
C3168 H3155 0.960 . S
C3168 C3167 1.524 . S
C3169 C3166 1.403 . S
C3169 C3170 1.392 . S
C3169 C3173 1.495 . S
C3170 C3169 1.392 . S
C3170 C3171 1.385 . S
C3170 C3172 1.478 . S
C3171 H3165 0.930 . S
C3171 C3167 1.400 . S
C3171 C3170 1.385 . S
C3172 C3170 1.478 . S
C3172 C3174 1.381 . S
C3172 C3178 1.383 . S
C3173 C3169 1.495 . S
C3173 H3179 0.959 . S
C3173 H3180 0.961 . S
C3173 H3181 0.960 . S
C3174 C3172 1.381 . S
C3174 C3175 1.394 . S
C3174 H3182 0.930 . S
C3175 C3174 1.394 . S
C3175 C3176 1.383 . S
C3175 H3183 0.929 . S
C3176 C3175 1.383 . S
C3176 C3177 1.377 . S
C3177 H3161 0.930 . S
C3177 C3176 1.377 . S
C3177 C3178 1.379 . S
C3178 H3162 0.931 . S
C3178 C3172 1.383 . S
C3178 C3177 1.379 . S
H3179 C3173 0.959 . S
H3180 C3173 0.961 . S
H3181 C3173 0.960 . S
H3182 C3174 0.930 . S
H3183 C3175 0.929 . S
H3184 C3192 0.929 . S
H3185 C3194 0.930 . S
H3186 C3196 0.930 1_455 S
H3187 C3199 0.905 1_455 S
H3188 C3202 0.930 . S
H3189 C3204 0.960 . S
H3190 C3204 0.960 . S
H3191 C3204 0.960 . S
C3192 H3184 0.929 . S
C3192 C3193 1.377 . S
C3192 C3194 1.384 . S
C3193 C3192 1.377 . S
C3193 C3199 1.390 . S
C3194 H3185 0.930 . S
C3194 C3192 1.384 . S
C3194 C3195 1.372 . S
C3195 C3194 1.372 . S
C3195 C3196 1.400 . S
C3195 C3200 1.490 . S
C3196 H3186 0.930 1_655 S
C3196 C3195 1.400 . S
C3196 C3199 1.386 . S
H3197 C3213 0.930 . S
H3198 C3214 0.931 . S
C3199 H3187 0.905 1_655 S
C3199 C3193 1.390 . S
C3199 C3196 1.386 . S
C3200 C3195 1.490 . S
C3200 C3202 1.395 . S
C3200 C3203 1.403 1_655 S
H3201 C3207 0.930 . S
C3202 H3188 0.930 . S
C3202 C3200 1.395 . S
C3202 C3205 1.403 . S
C3203 C3200 1.403 1_455 S
C3203 C3204 1.524 . S
C3203 C3207 1.400 . S
C3204 H3189 0.960 . S
C3204 H3190 0.960 . S
C3204 H3191 0.960 . S
C3204 C3203 1.524 . S
C3205 C3202 1.403 . S
C3205 C3206 1.392 1_655 S
C3205 C3209 1.495 . S
C3206 C3205 1.392 1_455 S
C3206 C3207 1.385 . S
C3206 C3208 1.478 . S
C3207 H3201 0.930 . S
C3207 C3203 1.400 . S
C3207 C3206 1.385 . S
C3208 C3206 1.478 . S
C3208 C3210 1.381 1_455 S
C3208 C3214 1.383 . S
C3209 C3205 1.495 . S
C3209 H3215 0.959 . S
C3209 H3216 0.961 . S
C3209 H3217 0.960 . S
C3210 C3208 1.381 1_655 S
C3210 C3211 1.394 1_655 S
C3210 H3218 0.930 . S
C3211 C3210 1.394 1_455 S
C3211 C3212 1.383 . S
C3211 H3219 0.929 1_455 S
C3212 C3211 1.383 . S
C3212 C3213 1.377 . S
C3213 H3197 0.930 . S
C3213 C3212 1.377 . S
C3213 C3214 1.379 . S
C3214 H3198 0.931 . S
C3214 C3208 1.383 . S
C3214 C3213 1.379 . S
H3215 C3209 0.959 . S
H3216 C3209 0.961 . S
H3217 C3209 0.960 . S
H3218 C3210 0.930 . S
H3219 C3211 0.929 1_655 S
H3220 C3228 0.929 . S
H3221 C3230 0.930 . S
H3222 C3232 0.930 . S
H3223 C3235 0.929 . S
H3224 C3238 0.930 . S
H3225 C3240 0.960 . S
H3226 C3240 0.960 . S
H3227 C3240 0.960 . S
C3228 H3220 0.929 . S
C3228 C3229 1.377 . S
C3228 C3230 1.384 . S
C3229 C3228 1.377 . S
C3229 C3235 1.390 . S
C3230 H3221 0.930 . S
C3230 C3228 1.384 . S
C3230 C3231 1.372 . S
C3231 C3230 1.372 . S
C3231 C3232 1.400 . S
C3231 C3236 1.490 . S
C3232 H3222 0.930 . S
C3232 C3231 1.400 . S
C3232 C3235 1.386 . S
H3233 C3249 0.930 . S
H3234 C3250 0.931 . S
C3235 H3223 0.929 . S
C3235 C3229 1.390 . S
C3235 C3232 1.386 . S
C3236 C3231 1.490 . S
C3236 C3238 1.395 . S
C3236 C3239 1.403 . S
H3237 C3243 0.930 . S
C3238 H3224 0.930 . S
C3238 C3236 1.395 . S
C3238 C3241 1.403 . S
C3239 C3236 1.403 . S
C3239 C3240 1.524 . S
C3239 C3243 1.400 . S
C3240 H3225 0.960 . S
C3240 H3226 0.960 . S
C3240 H3227 0.960 . S
C3240 C3239 1.524 . S
C3241 C3238 1.403 . S
C3241 C3242 1.392 . S
C3241 C3245 1.495 . S
C3242 C3241 1.392 . S
C3242 C3243 1.385 . S
C3242 C3244 1.478 . S
C3243 H3237 0.930 . S
C3243 C3239 1.400 . S
C3243 C3242 1.385 . S
C3244 C3242 1.478 . S
C3244 C3246 1.381 . S
C3244 C3250 1.383 . S
C3245 C3241 1.495 . S
C3245 H3251 0.959 . S
C3245 H3252 0.961 . S
C3245 H3253 0.960 . S
C3246 C3244 1.381 . S
C3246 C3247 1.394 . S
C3246 H3254 0.930 . S
C3247 C3246 1.394 . S
C3247 C3248 1.383 . S
C3247 H3255 0.929 . S
C3248 C3247 1.383 . S
C3248 C3249 1.377 . S
C3249 H3233 0.930 . S
C3249 C3248 1.377 . S
C3249 C3250 1.379 . S
C3250 H3234 0.931 . S
C3250 C3244 1.383 . S
C3250 C3249 1.379 . S
H3251 C3245 0.959 . S
H3252 C3245 0.961 . S
H3253 C3245 0.960 . S
H3254 C3246 0.930 . S
H3255 C3247 0.929 . S
H3256 C3264 0.929 . S
H3257 C3266 0.930 . S
H3258 C3268 0.930 . S
H3259 C3271 0.929 . S
H3260 C3274 0.930 . S
H3261 C3276 0.960 . S
H3262 C3276 0.960 . S
H3263 C3276 0.960 . S
C3264 H3256 0.929 . S
C3264 C3265 1.377 . S
C3264 C3266 1.384 . S
C3265 C3264 1.377 . S
C3265 C3271 1.390 . S
C3266 H3257 0.930 . S
C3266 C3264 1.384 . S
C3266 C3267 1.372 . S
C3267 C3266 1.372 . S
C3267 C3268 1.400 . S
C3267 C3272 1.490 . S
C3268 H3258 0.930 . S
C3268 C3267 1.400 . S
C3268 C3271 1.386 . S
H3269 C3285 0.930 . S
H3270 C3286 0.931 . S
C3271 H3259 0.929 . S
C3271 C3265 1.390 . S
C3271 C3268 1.386 . S
C3272 C3267 1.490 . S
C3272 C3274 1.395 . S
C3272 C3275 1.403 . S
H3273 C3279 0.930 . S
C3274 H3260 0.930 . S
C3274 C3272 1.395 . S
C3274 C3277 1.403 . S
C3275 C3272 1.403 . S
C3275 C3276 1.524 . S
C3275 C3279 1.400 . S
C3276 H3261 0.960 . S
C3276 H3262 0.960 . S
C3276 H3263 0.960 . S
C3276 C3275 1.524 . S
C3277 C3274 1.403 . S
C3277 C3278 1.392 . S
C3277 C3281 1.495 . S
C3278 C3277 1.392 . S
C3278 C3279 1.385 . S
C3278 C3280 1.478 . S
C3279 H3273 0.930 . S
C3279 C3275 1.400 . S
C3279 C3278 1.385 . S
C3280 C3278 1.478 . S
C3280 C3282 1.381 . S
C3280 C3286 1.383 . S
C3281 C3277 1.495 . S
C3281 H3287 0.959 . S
C3281 H3288 0.961 . S
C3281 H3289 0.960 . S
C3282 C3280 1.381 . S
C3282 C3283 1.394 . S
C3282 H3290 0.930 . S
C3283 C3282 1.394 . S
C3283 C3284 1.383 . S
C3283 H3291 0.929 . S
C3284 C3283 1.383 . S
C3284 C3285 1.377 . S
C3285 H3269 0.930 . S
C3285 C3284 1.377 . S
C3285 C3286 1.379 . S
C3286 H3270 0.931 . S
C3286 C3280 1.383 . S
C3286 C3285 1.379 . S
H3287 C3281 0.959 . S
H3288 C3281 0.961 . S
H3289 C3281 0.960 . S
H3290 C3282 0.930 . S
H3291 C3283 0.929 . S
H3292 C3300 0.929 . S
H3293 C3302 0.930 . S
H3294 C3304 0.930 . S
H3295 C3307 0.929 . S
H3296 C3310 0.930 . S
H3297 C3312 0.960 . S
H3298 C3312 0.960 . S
H3299 C3312 0.960 . S
C3300 H3292 0.929 . S
C3300 C3301 1.377 . S
C3300 C3302 1.384 . S
C3301 C3300 1.377 . S
C3301 C3307 1.390 . S
C3302 H3293 0.930 . S
C3302 C3300 1.384 . S
C3302 C3303 1.372 . S
C3303 C3302 1.372 . S
C3303 C3304 1.400 . S
C3303 C3308 1.490 . S
C3304 H3294 0.930 . S
C3304 C3303 1.400 . S
C3304 C3307 1.386 . S
H3305 C3321 0.930 . S
H3306 C3322 0.931 . S
C3307 H3295 0.929 . S
C3307 C3301 1.390 . S
C3307 C3304 1.386 . S
C3308 C3303 1.490 . S
C3308 C3310 1.395 . S
C3308 C3311 1.403 . S
H3309 C3315 0.930 . S
C3310 H3296 0.930 . S
C3310 C3308 1.395 . S
C3310 C3313 1.403 . S
C3311 C3308 1.403 . S
C3311 C3312 1.524 . S
C3311 C3315 1.400 . S
C3312 H3297 0.960 . S
C3312 H3298 0.960 . S
C3312 H3299 0.960 . S
C3312 C3311 1.524 . S
C3313 C3310 1.403 . S
C3313 C3314 1.392 . S
C3313 C3317 1.495 . S
C3314 C3313 1.392 . S
C3314 C3315 1.385 . S
C3314 C3316 1.478 . S
C3315 H3309 0.930 . S
C3315 C3311 1.400 . S
C3315 C3314 1.385 . S
C3316 C3314 1.478 . S
C3316 C3318 1.381 . S
C3316 C3322 1.383 . S
C3317 C3313 1.495 . S
C3317 H3323 0.959 . S
C3317 H3324 0.961 . S
C3317 H3325 0.960 . S
C3318 C3316 1.381 . S
C3318 C3319 1.394 . S
C3318 H3326 0.930 . S
C3319 C3318 1.394 . S
C3319 C3320 1.383 . S
C3319 H3327 0.929 . S
C3320 C3319 1.383 . S
C3320 C3321 1.377 . S
C3321 H3305 0.930 . S
C3321 C3320 1.377 . S
C3321 C3322 1.379 . S
C3322 H3306 0.931 . S
C3322 C3316 1.383 . S
C3322 C3321 1.379 . S
H3323 C3317 0.959 . S
H3324 C3317 0.961 . S
H3325 C3317 0.960 . S
H3326 C3318 0.930 . S
H3327 C3319 0.929 . S
H3328 C3336 0.929 . S
H3329 C3338 0.930 . S
H3330 C3340 0.930 . S
H3331 C3343 0.929 . S
H3332 C3346 0.930 . S
H3333 C3348 0.960 . S
H3334 C3348 0.960 . S
H3335 C3348 0.960 . S
C3336 H3328 0.929 . S
C3336 C3337 1.377 . S
C3336 C3338 1.384 . S
C3337 C3336 1.377 . S
C3337 C3343 1.390 . S
C3338 H3329 0.930 . S
C3338 C3336 1.384 . S
C3338 C3339 1.372 . S
C3339 C3338 1.372 . S
C3339 C3340 1.400 . S
C3339 C3344 1.490 . S
C3340 H3330 0.930 . S
C3340 C3339 1.400 . S
C3340 C3343 1.386 . S
H3341 C3357 0.930 . S
H3342 C3358 0.931 . S
C3343 H3331 0.929 . S
C3343 C3337 1.390 . S
C3343 C3340 1.386 . S
C3344 C3339 1.490 . S
C3344 C3346 1.395 . S
C3344 C3347 1.403 . S
H3345 C3351 0.930 . S
C3346 H3332 0.930 . S
C3346 C3344 1.395 . S
C3346 C3349 1.403 . S
C3347 C3344 1.403 . S
C3347 C3348 1.524 1_554 S
C3347 C3351 1.400 . S
C3348 H3333 0.960 . S
C3348 H3334 0.960 . S
C3348 H3335 0.960 . S
C3348 C3347 1.524 1_556 S
C3349 C3346 1.403 . S
C3349 C3350 1.392 . S
C3349 C3353 1.495 . S
C3350 C3349 1.392 . S
C3350 C3351 1.385 . S
C3350 C3352 1.478 . S
C3351 H3345 0.930 . S
C3351 C3347 1.400 . S
C3351 C3350 1.385 . S
C3352 C3350 1.478 . S
C3352 C3354 1.381 . S
C3352 C3358 1.383 1_565 S
C3353 C3349 1.495 . S
C3353 H3359 0.959 . S
C3353 H3360 0.961 1_565 S
C3353 H3361 0.960 . S
C3354 C3352 1.381 . S
C3354 C3355 1.394 . S
C3354 H3362 0.930 . S
C3355 C3354 1.394 . S
C3355 C3356 1.455 . S
C3355 H3363 0.929 . S
C3356 C3355 1.455 . S
C3356 C3357 1.344 1_565 S
C3357 H3341 0.930 . S
C3357 C3356 1.344 1_545 S
C3357 C3358 1.379 . S
C3358 H3342 0.931 . S
C3358 C3352 1.383 1_545 S
C3358 C3357 1.379 . S
H3359 C3353 0.959 . S
H3360 C3353 0.961 1_545 S
H3361 C3353 0.960 . S
H3362 C3354 0.930 . S
H3363 C3355 0.929 . S
H3364 C3372 0.929 . S
H3365 C3374 0.930 . S
H3366 C3376 0.930 . S
H3367 C3379 0.929 . S
H3368 C3382 0.930 . S
H3369 C3384 0.960 . S
H3370 C3384 0.965 . S
H3371 C3384 0.960 . S
C3372 H3364 0.929 . S
C3372 C3373 1.377 1_554 S
C3372 C3374 1.384 . S
C3373 C3372 1.377 1_556 S
C3373 C3379 1.390 . S
C3374 H3365 0.930 . S
C3374 C3372 1.384 . S
C3374 C3375 1.372 1_554 S
C3375 C3374 1.372 1_556 S
C3375 C3376 1.400 . S
C3375 C3380 1.493 . S
C3376 H3366 0.930 . S
C3376 C3375 1.400 . S
C3376 C3379 1.386 . S
H3377 C3393 0.930 . S
H3378 C3394 0.931 . S
C3379 H3367 0.929 . S
C3379 C3373 1.390 . S
C3379 C3376 1.386 . S
C3380 C3375 1.493 . S
C3380 C3382 1.391 1_556 S
C3380 C3383 1.403 . S
H3381 C3387 0.930 . S
C3382 H3368 0.930 . S
C3382 C3380 1.391 1_554 S
C3382 C3385 1.403 . S
C3383 C3380 1.403 . S
C3383 C3384 1.524 . S
C3383 C3387 1.400 . S
C3384 H3369 0.960 . S
C3384 H3370 0.965 . S
C3384 H3371 0.960 . S
C3384 C3383 1.524 . S
C3385 C3382 1.403 . S
C3385 C3386 1.392 . S
C3385 C3389 1.495 . S
C3386 C3385 1.392 . S
C3386 C3387 1.385 1_554 S
C3386 C3388 1.478 . S
C3387 H3381 0.930 . S
C3387 C3383 1.400 . S
C3387 C3386 1.385 1_556 S
C3388 C3386 1.478 . S
C3388 C3390 1.381 . S
C3388 C3394 1.383 1_554 S
C3389 C3385 1.495 . S
C3389 H3395 0.959 . S
C3389 H3396 0.961 . S
C3389 H3397 0.960 . S
C3390 C3388 1.381 . S
C3390 C3391 1.394 . S
C3390 H3398 0.930 . S
C3391 C3390 1.394 . S
C3391 C3392 1.383 . S
C3391 H3399 0.929 . S
C3392 C3391 1.383 . S
C3392 C3393 1.377 1_554 S
C3393 H3377 0.930 . S
C3393 C3392 1.377 1_556 S
C3393 C3394 1.379 . S
C3394 H3378 0.931 . S
C3394 C3388 1.383 1_556 S
C3394 C3393 1.379 . S
H3395 C3389 0.959 . S
H3396 C3389 0.961 . S
H3397 C3389 0.960 . S
H3398 C3390 0.930 . S
H3399 C3391 0.929 . S
H3400 C3408 0.929 . S
H3401 C3410 0.930 . S
H3402 C3412 0.930 . S
H3403 C3415 0.929 . S
H3404 C3418 0.930 . S
H3405 C3420 0.960 . S
H3406 C3420 0.960 . S
H3407 C3420 0.960 . S
C3408 H3400 0.929 . S
C3408 C3409 1.377 . S
C3408 C3410 1.384 . S
C3409 C3408 1.377 . S
C3409 C3415 1.390 . S
C3410 H3401 0.930 . S
C3410 C3408 1.384 . S
C3410 C3411 1.372 . S
C3411 C3410 1.372 . S
C3411 C3412 1.400 . S
C3411 C3416 1.490 . S
C3412 H3402 0.930 . S
C3412 C3411 1.400 . S
C3412 C3415 1.386 . S
H3413 C3429 0.930 . S
H3414 C3430 0.931 . S
C3415 H3403 0.929 . S
C3415 C3409 1.390 . S
C3415 C3412 1.386 . S
C3416 C3411 1.490 . S
C3416 C3418 1.395 . S
C3416 C3419 1.403 . S
H3417 C3423 0.930 . S
C3418 H3404 0.930 . S
C3418 C3416 1.395 . S
C3418 C3421 1.403 . S
C3419 C3416 1.403 . S
C3419 C3420 1.524 . S
C3419 C3423 1.400 . S
C3420 H3405 0.960 . S
C3420 H3406 0.960 . S
C3420 H3407 0.960 . S
C3420 C3419 1.524 . S
C3421 C3418 1.403 . S
C3421 C3422 1.392 . S
C3421 C3425 1.495 . S
C3422 C3421 1.392 . S
C3422 C3423 1.385 . S
C3422 C3424 1.478 . S
C3423 H3417 0.930 . S
C3423 C3419 1.400 . S
C3423 C3422 1.385 . S
C3424 C3422 1.478 . S
C3424 C3426 1.381 . S
C3424 C3430 1.383 . S
C3425 C3421 1.495 . S
C3425 H3431 0.959 . S
C3425 H3432 0.961 . S
C3425 H3433 0.960 . S
C3426 C3424 1.381 . S
C3426 C3427 1.394 . S
C3426 H3434 0.930 . S
C3427 C3426 1.394 . S
C3427 C3428 1.383 . S
C3427 H3435 0.929 . S
C3428 C3427 1.383 . S
C3428 C3429 1.377 . S
C3429 H3413 0.930 . S
C3429 C3428 1.377 . S
C3429 C3430 1.379 . S
C3430 H3414 0.931 . S
C3430 C3424 1.383 . S
C3430 C3429 1.379 . S
H3431 C3425 0.959 . S
H3432 C3425 0.961 . S
H3433 C3425 0.960 . S
H3434 C3426 0.930 . S
H3435 C3427 0.929 . S
H3436 C3444 0.929 . S
H3437 C3446 0.930 . S
H3438 C3448 0.930 . S
H3439 C3451 0.929 . S
H3440 C3454 0.930 . S
H3441 C3456 0.960 . S
H3442 C3456 0.960 . S
H3443 C3456 0.960 . S
C3444 H3436 0.929 . S
C3444 C3445 1.377 . S
C3444 C3446 1.384 . S
C3445 C3444 1.377 . S
C3445 C3451 1.390 . S
C3446 H3437 0.930 . S
C3446 C3444 1.384 . S
C3446 C3447 1.372 . S
C3447 C3446 1.372 . S
C3447 C3448 1.400 . S
C3447 C3452 1.490 . S
C3448 H3438 0.930 . S
C3448 C3447 1.400 . S
C3448 C3451 1.386 . S
H3449 C3465 0.930 . S
H3450 C3466 0.931 . S
C3451 H3439 0.929 . S
C3451 C3445 1.390 . S
C3451 C3448 1.386 . S
C3452 C3447 1.490 . S
C3452 C3454 1.395 . S
C3452 C3455 1.403 . S
H3453 C3459 0.930 . S
C3454 H3440 0.930 . S
C3454 C3452 1.395 . S
C3454 C3457 1.403 . S
C3455 C3452 1.403 . S
C3455 C3456 1.524 . S
C3455 C3459 1.400 . S
C3456 H3441 0.960 . S
C3456 H3442 0.960 . S
C3456 H3443 0.960 . S
C3456 C3455 1.524 . S
C3457 C3454 1.403 . S
C3457 C3458 1.392 . S
C3457 C3461 1.495 . S
C3458 C3457 1.392 . S
C3458 C3459 1.385 . S
C3458 C3460 1.478 . S
C3459 H3453 0.930 . S
C3459 C3455 1.400 . S
C3459 C3458 1.385 . S
C3460 C3458 1.478 . S
C3460 C3462 1.381 . S
C3460 C3466 1.383 . S
C3461 C3457 1.495 . S
C3461 H3467 0.959 . S
C3461 H3468 0.961 . S
C3461 H3469 0.960 . S
C3462 C3460 1.381 . S
C3462 C3463 1.394 . S
C3462 H3470 0.930 . S
C3463 C3462 1.394 . S
C3463 C3464 1.383 . S
C3463 H3471 0.929 1_655 S
C3464 C3463 1.383 . S
C3464 C3465 1.377 . S
C3465 H3449 0.930 . S
C3465 C3464 1.377 . S
C3465 C3466 1.379 . S
C3466 H3450 0.931 . S
C3466 C3460 1.383 . S
C3466 C3465 1.379 . S
H3467 C3461 0.959 . S
H3468 C3461 0.961 . S
H3469 C3461 0.960 . S
H3470 C3462 0.930 . S
H3471 C3463 0.929 1_455 S
H3472 C3480 0.929 . S
H3473 C3482 0.930 . S
H3474 C3484 0.930 . S
H3475 C3487 0.929 . S
H3476 C3490 0.930 . S
H3477 C3492 0.960 . S
H3478 C3492 0.960 . S
H3479 C3492 0.960 . S
C3480 H3472 0.929 . S
C3480 C3481 1.377 . S
C3480 C3482 1.384 . S
C3481 C3480 1.377 . S
C3481 C3487 1.390 . S
C3482 H3473 0.930 . S
C3482 C3480 1.384 . S
C3482 C3483 1.372 . S
C3483 C3482 1.372 . S
C3483 C3484 1.400 . S
C3483 C3488 1.490 . S
C3484 H3474 0.930 . S
C3484 C3483 1.400 . S
C3484 C3487 1.386 . S
H3485 C3501 0.930 . S
H3486 C3502 0.931 . S
C3487 H3475 0.929 . S
C3487 C3481 1.390 . S
C3487 C3484 1.386 . S
C3488 C3483 1.490 . S
C3488 C3490 1.395 . S
C3488 C3491 1.403 . S
H3489 C3495 0.930 . S
C3490 H3476 0.930 . S
C3490 C3488 1.395 . S
C3490 C3493 1.403 . S
C3491 C3488 1.403 . S
C3491 C3492 1.524 . S
C3491 C3495 1.400 . S
C3492 H3477 0.960 . S
C3492 H3478 0.960 . S
C3492 H3479 0.960 . S
C3492 C3491 1.524 . S
C3493 C3490 1.403 . S
C3493 C3494 1.392 . S
C3493 C3497 1.495 . S
C3494 C3493 1.392 . S
C3494 C3495 1.385 . S
C3494 C3496 1.478 . S
C3495 H3489 0.930 . S
C3495 C3491 1.400 . S
C3495 C3494 1.385 . S
C3496 C3494 1.478 . S
C3496 C3498 1.381 . S
C3496 C3502 1.383 . S
C3497 C3493 1.495 . S
C3497 H3503 0.959 . S
C3497 H3504 0.961 . S
C3497 H3505 0.960 . S
C3498 C3496 1.381 . S
C3498 C3499 1.394 . S
C3498 H3506 0.930 . S
C3499 C3498 1.394 . S
C3499 C3500 1.383 . S
C3499 H3507 0.929 . S
C3500 C3499 1.383 . S
C3500 C3501 1.377 . S
C3501 H3485 0.930 . S
C3501 C3500 1.377 . S
C3501 C3502 1.379 . S
C3502 H3486 0.931 . S
C3502 C3496 1.383 . S
C3502 C3501 1.379 . S
H3503 C3497 0.959 . S
H3504 C3497 0.961 . S
H3505 C3497 0.960 . S
H3506 C3498 0.930 . S
H3507 C3499 0.929 . S
H3508 C3516 0.929 . S
H3509 C3518 0.930 . S
H3510 C3520 0.930 . S
H3511 C3523 0.929 . S
H3512 C3526 0.930 . S
H3513 C3528 0.960 . S
H3514 C3528 0.960 . S
H3515 C3528 0.960 . S
C3516 H3508 0.929 . S
C3516 C3517 1.377 . S
C3516 C3518 1.384 . S
C3517 C3516 1.377 . S
C3517 C3523 1.390 . S
C3518 H3509 0.930 . S
C3518 C3516 1.384 . S
C3518 C3519 1.372 . S
C3519 C3518 1.372 . S
C3519 C3520 1.400 . S
C3519 C3524 1.490 . S
C3520 H3510 0.930 . S
C3520 C3519 1.400 . S
C3520 C3523 1.386 . S
H3521 C3537 0.930 . S
H3522 C3538 0.931 . S
C3523 H3511 0.929 . S
C3523 C3517 1.390 . S
C3523 C3520 1.386 . S
C3524 C3519 1.490 . S
C3524 C3526 1.395 . S
C3524 C3527 1.403 . S
H3525 C3531 0.930 . S
C3526 H3512 0.930 . S
C3526 C3524 1.395 . S
C3526 C3529 1.403 . S
C3527 C3524 1.403 . S
C3527 C3528 1.524 . S
C3527 C3531 1.400 . S
C3528 H3513 0.960 . S
C3528 H3514 0.960 . S
C3528 H3515 0.960 . S
C3528 C3527 1.524 . S
C3529 C3526 1.403 . S
C3529 C3530 1.392 . S
C3529 C3533 1.495 . S
C3530 C3529 1.392 . S
C3530 C3531 1.385 . S
C3530 C3532 1.478 . S
C3531 H3525 0.930 . S
C3531 C3527 1.400 . S
C3531 C3530 1.385 . S
C3532 C3530 1.478 . S
C3532 C3534 1.381 . S
C3532 C3538 1.383 . S
C3533 C3529 1.495 . S
C3533 H3539 0.959 . S
C3533 H3540 0.961 . S
C3533 H3541 0.960 . S
C3534 C3532 1.381 . S
C3534 C3535 1.394 . S
C3534 H3542 0.930 . S
C3535 C3534 1.394 . S
C3535 C3536 1.383 . S
C3535 H3543 0.929 . S
C3536 C3535 1.383 . S
C3536 C3537 1.377 . S
C3537 H3521 0.930 . S
C3537 C3536 1.377 . S
C3537 C3538 1.379 . S
C3538 H3522 0.931 . S
C3538 C3532 1.383 . S
C3538 C3537 1.379 . S
H3539 C3533 0.959 . S
H3540 C3533 0.961 . S
H3541 C3533 0.960 . S
H3542 C3534 0.930 . S
H3543 C3535 0.929 . S
H3544 C3552 0.929 . S
H3545 C3554 0.930 . S
H3546 C3556 0.930 . S
H3547 C3559 0.929 . S
H3548 C3562 0.930 . S
H3549 C3564 0.960 . S
H3550 C3564 0.960 . S
H3551 C3564 0.960 . S
C3552 H3544 0.929 . S
C3552 C3553 1.377 . S
C3552 C3554 1.384 . S
C3553 C3552 1.377 . S
C3553 C3559 1.390 . S
C3554 H3545 0.930 . S
C3554 C3552 1.384 . S
C3554 C3555 1.372 . S
C3555 C3554 1.372 . S
C3555 C3556 1.400 . S
C3555 C3560 1.490 . S
C3556 H3546 0.930 . S
C3556 C3555 1.400 . S
C3556 C3559 1.386 . S
H3557 C3573 0.930 . S
H3558 C3574 0.931 . S
C3559 H3547 0.929 . S
C3559 C3553 1.390 . S
C3559 C3556 1.386 . S
C3560 C3555 1.490 . S
C3560 C3562 1.395 . S
C3560 C3563 1.403 . S
H3561 C3567 0.930 . S
C3562 H3548 0.930 . S
C3562 C3560 1.395 . S
C3562 C3565 1.403 . S
C3563 C3560 1.403 . S
C3563 C3564 1.524 . S
C3563 C3567 1.400 . S
C3564 H3549 0.960 . S
C3564 H3550 0.960 . S
C3564 H3551 0.960 . S
C3564 C3563 1.524 . S
C3565 C3562 1.403 . S
C3565 C3566 1.392 . S
C3565 C3569 1.495 . S
C3566 C3565 1.392 . S
C3566 C3567 1.385 . S
C3566 C3568 1.478 . S
C3567 H3561 0.930 . S
C3567 C3563 1.400 . S
C3567 C3566 1.385 . S
C3568 C3566 1.478 . S
C3568 C3570 1.381 . S
C3568 C3574 1.383 . S
C3569 C3565 1.495 . S
C3569 H3575 0.959 . S
C3569 H3576 0.961 . S
C3569 H3577 0.960 . S
C3570 C3568 1.381 . S
C3570 C3571 1.394 . S
C3570 H3578 0.930 . S
C3571 C3570 1.394 . S
C3571 C3572 1.383 . S
C3571 H3579 0.929 . S
C3572 C3571 1.383 . S
C3572 C3573 1.377 . S
C3573 H3557 0.930 . S
C3573 C3572 1.377 . S
C3573 C3574 1.379 . S
C3574 H3558 0.931 . S
C3574 C3568 1.383 . S
C3574 C3573 1.379 . S
H3575 C3569 0.959 . S
H3576 C3569 0.961 . S
H3577 C3569 0.960 . S
H3578 C3570 0.930 . S
H3579 C3571 0.929 . S
H3580 C3588 0.929 . S
H3581 C3590 0.930 . S
H3582 C3592 0.930 . S
H3583 C3595 0.929 . S
H3584 C3598 0.930 . S
H3585 C3600 0.960 . S
H3586 C3600 0.960 . S
H3587 C3600 0.960 . S
C3588 H3580 0.929 . S
C3588 C3589 1.377 . S
C3588 C3590 1.384 . S
C3589 C3588 1.377 . S
C3589 C3595 1.390 . S
C3590 H3581 0.930 . S
C3590 C3588 1.384 . S
C3590 C3591 1.372 . S
C3591 C3590 1.372 . S
C3591 C3592 1.400 . S
C3591 C3596 1.490 . S
C3592 H3582 0.930 . S
C3592 C3591 1.400 . S
C3592 C3595 1.386 . S
H3593 C3609 0.930 . S
H3594 C3610 0.931 . S
C3595 H3583 0.929 . S
C3595 C3589 1.390 . S
C3595 C3592 1.386 . S
C3596 C3591 1.490 . S
C3596 C3598 1.395 . S
C3596 C3599 1.403 . S
H3597 C3603 0.930 . S
C3598 H3584 0.930 . S
C3598 C3596 1.395 . S
C3598 C3601 1.403 . S
C3599 C3596 1.403 . S
C3599 C3600 1.524 . S
C3599 C3603 1.400 . S
C3600 H3585 0.960 . S
C3600 H3586 0.960 . S
C3600 H3587 0.960 . S
C3600 C3599 1.524 . S
C3601 C3598 1.403 . S
C3601 C3602 1.392 . S
C3601 C3605 1.495 . S
C3602 C3601 1.392 . S
C3602 C3603 1.385 . S
C3602 C3604 1.478 . S
C3603 H3597 0.930 . S
C3603 C3599 1.400 . S
C3603 C3602 1.385 . S
C3604 C3602 1.478 . S
C3604 C3606 1.381 . S
C3604 C3610 1.383 . S
C3605 C3601 1.495 . S
C3605 H3611 0.959 . S
C3605 H3612 0.961 . S
C3605 H3613 0.960 . S
C3606 C3604 1.381 . S
C3606 C3607 1.394 . S
C3606 H3614 0.930 . S
C3607 C3606 1.394 . S
C3607 C3608 1.383 . S
C3607 H3615 0.929 . S
C3608 C3607 1.383 . S
C3608 C3609 1.377 . S
C3609 H3593 0.930 . S
C3609 C3608 1.377 . S
C3609 C3610 1.379 . S
C3610 H3594 0.931 . S
C3610 C3604 1.383 . S
C3610 C3609 1.379 . S
H3611 C3605 0.959 . S
H3612 C3605 0.961 . S
H3613 C3605 0.960 . S
H3614 C3606 0.930 . S
H3615 C3607 0.929 . S
H3616 C3624 0.929 . S
H3617 C3626 0.930 . S
H3618 C3628 0.930 . S
H3619 C3631 0.929 . S
H3620 C3634 0.930 . S
H3621 C3636 0.960 . S
H3622 C3636 0.960 . S
H3623 C3636 0.960 . S
C3624 H3616 0.929 . S
C3624 C3625 1.377 . S
C3624 C3626 1.384 . S
C3625 C3624 1.377 . S
C3625 C3631 1.390 . S
C3626 H3617 0.930 . S
C3626 C3624 1.384 . S
C3626 C3627 1.372 . S
C3627 C3626 1.372 . S
C3627 C3628 1.400 . S
C3627 C3632 1.490 . S
C3628 H3618 0.930 . S
C3628 C3627 1.400 . S
C3628 C3631 1.386 . S
H3629 C3645 0.880 1_556 S
H3630 C3646 0.931 . S
C3631 H3619 0.929 . S
C3631 C3625 1.390 . S
C3631 C3628 1.386 . S
C3632 C3627 1.490 . S
C3632 C3634 1.395 . S
C3632 C3635 1.403 . S
H3633 C3639 0.930 . S
C3634 H3620 0.930 . S
C3634 C3632 1.395 . S
C3634 C3637 1.403 . S
C3635 C3632 1.403 . S
C3635 C3636 1.524 . S
C3635 C3639 1.400 . S
C3636 H3621 0.960 . S
C3636 H3622 0.960 . S
C3636 H3623 0.960 . S
C3636 C3635 1.524 . S
C3637 C3634 1.403 . S
C3637 C3638 1.392 . S
C3637 C3641 1.495 . S
C3638 C3637 1.392 . S
C3638 C3639 1.385 . S
C3638 C3640 1.478 . S
C3639 H3633 0.930 . S
C3639 C3635 1.400 . S
C3639 C3638 1.385 . S
C3640 C3638 1.478 . S
C3640 C3642 1.381 . S
C3640 C3646 1.383 . S
C3641 C3637 1.495 . S
C3641 H3647 0.959 . S
C3641 H3648 0.961 . S
C3641 H3649 0.960 . S
C3642 C3640 1.381 . S
C3642 C3643 1.394 . S
C3642 H3650 0.930 . S
C3643 C3642 1.394 . S
C3643 C3644 1.383 . S
C3643 H3651 0.929 . S
C3644 C3643 1.383 . S
C3644 C3645 1.377 . S
C3645 H3629 0.880 1_554 S
C3645 C3644 1.377 . S
C3645 C3646 1.379 . S
C3646 H3630 0.931 . S
C3646 C3640 1.383 . S
C3646 C3645 1.379 . S
H3647 C3641 0.959 . S
H3648 C3641 0.961 . S
H3649 C3641 0.960 . S
H3650 C3642 0.930 . S
H3651 C3643 0.929 . S
H3652 C3660 0.929 . S
H3653 C3662 0.930 . S
H3654 C3664 0.930 . S
H3655 C3667 0.929 . S
H3656 C3670 0.930 . S
H3657 C3672 0.960 . S
H3658 C3672 0.960 . S
H3659 C3672 0.960 . S
C3660 H3652 0.929 . S
C3660 C3661 1.377 . S
C3660 C3662 1.384 . S
C3661 C3660 1.377 . S
C3661 C3667 1.390 . S
C3662 H3653 0.930 . S
C3662 C3660 1.384 . S
C3662 C3663 1.372 . S
C3663 C3662 1.372 . S
C3663 C3664 1.400 . S
C3663 C3668 1.490 . S
C3664 H3654 0.930 . S
C3664 C3663 1.400 . S
C3664 C3667 1.386 . S
H3665 C3681 0.930 . S
H3666 C3682 0.931 . S
C3667 H3655 0.929 . S
C3667 C3661 1.390 . S
C3667 C3664 1.386 . S
C3668 C3663 1.490 . S
C3668 C3670 1.395 . S
C3668 C3671 1.403 . S
H3669 C3675 0.930 . S
C3670 H3656 0.930 . S
C3670 C3668 1.395 . S
C3670 C3673 1.403 . S
C3671 C3668 1.403 . S
C3671 C3672 1.524 . S
C3671 C3675 1.400 . S
C3672 H3657 0.960 . S
C3672 H3658 0.960 . S
C3672 H3659 0.960 . S
C3672 C3671 1.524 . S
C3673 C3670 1.403 . S
C3673 C3674 1.392 . S
C3673 C3677 1.495 . S
C3674 C3673 1.392 . S
C3674 C3675 1.385 . S
C3674 C3676 1.478 . S
C3675 H3669 0.930 . S
C3675 C3671 1.400 . S
C3675 C3674 1.385 . S
C3676 C3674 1.478 . S
C3676 C3678 1.381 . S
C3676 C3682 1.383 . S
C3677 C3673 1.495 . S
C3677 H3683 0.959 . S
C3677 H3684 0.961 . S
C3677 H3685 0.960 . S
C3678 C3676 1.381 . S
C3678 C3679 1.394 . S
C3678 H3686 0.930 . S
C3679 C3678 1.394 . S
C3679 C3680 1.383 . S
C3679 H3687 0.929 . S
C3680 C3679 1.383 . S
C3680 C3681 1.377 . S
C3681 H3665 0.930 . S
C3681 C3680 1.377 . S
C3681 C3682 1.379 . S
C3682 H3666 0.931 . S
C3682 C3676 1.383 . S
C3682 C3681 1.379 . S
H3683 C3677 0.959 . S
H3684 C3677 0.961 . S
H3685 C3677 0.960 . S
H3686 C3678 0.930 . S
H3687 C3679 0.929 . S
H3688 C3696 0.929 . S
H3689 C3698 0.930 . S
H3690 C3700 0.930 . S
H3691 C3703 0.929 . S
H3692 C3706 0.930 . S
H3693 C3708 0.960 . S
H3694 C3708 0.960 . S
H3695 C3708 0.960 . S
C3696 H3688 0.929 . S
C3696 C3697 1.377 . S
C3696 C3698 1.384 . S
C3697 C3696 1.377 . S
C3697 C3703 1.390 . S
C3698 H3689 0.930 . S
C3698 C3696 1.384 . S
C3698 C3699 1.372 . S
C3699 C3698 1.372 . S
C3699 C3700 1.400 . S
C3699 C3704 1.490 . S
C3700 H3690 0.930 . S
C3700 C3699 1.400 . S
C3700 C3703 1.386 . S
H3701 C3717 0.930 . S
H3702 C3718 0.931 . S
C3703 H3691 0.929 . S
C3703 C3697 1.390 . S
C3703 C3700 1.386 . S
C3704 C3699 1.490 . S
C3704 C3706 1.395 . S
C3704 C3707 1.403 . S
H3705 C3711 0.930 . S
C3706 H3692 0.930 . S
C3706 C3704 1.395 . S
C3706 C3709 1.403 . S
C3707 C3704 1.403 . S
C3707 C3708 1.524 . S
C3707 C3711 1.400 . S
C3708 H3693 0.960 . S
C3708 H3694 0.960 . S
C3708 H3695 0.960 . S
C3708 C3707 1.524 . S
C3709 C3706 1.403 . S
C3709 C3710 1.392 . S
C3709 C3713 1.495 . S
C3710 C3709 1.392 . S
C3710 C3711 1.385 . S
C3710 C3712 1.478 . S
C3711 H3705 0.930 . S
C3711 C3707 1.400 . S
C3711 C3710 1.385 . S
C3712 C3710 1.478 . S
C3712 C3714 1.381 . S
C3712 C3718 1.383 . S
C3713 C3709 1.495 . S
C3713 H3719 0.959 . S
C3713 H3720 0.961 . S
C3713 H3721 0.960 . S
C3714 C3712 1.381 . S
C3714 C3715 1.394 . S
C3714 H3722 0.930 . S
C3715 C3714 1.394 . S
C3715 C3716 1.383 . S
C3715 H3723 0.929 . S
C3716 C3715 1.383 . S
C3716 C3717 1.377 . S
C3717 H3701 0.930 . S
C3717 C3716 1.377 . S
C3717 C3718 1.379 . S
C3718 H3702 0.931 . S
C3718 C3712 1.383 . S
C3718 C3717 1.379 . S
H3719 C3713 0.959 . S
H3720 C3713 0.961 . S
H3721 C3713 0.960 . S
H3722 C3714 0.930 . S
H3723 C3715 0.929 . S
H3724 C3732 0.929 . S
H3725 C3734 0.930 . S
H3726 C3736 0.930 . S
H3727 C3739 0.929 . S
H3728 C3742 0.930 . S
H3729 C3744 0.960 . S
H3730 C3744 0.960 . S
H3731 C3744 0.960 . S
C3732 H3724 0.929 . S
C3732 C3733 1.377 . S
C3732 C3734 1.384 . S
C3733 C3732 1.377 . S
C3733 C3739 1.390 . S
C3734 H3725 0.930 . S
C3734 C3732 1.384 . S
C3734 C3735 1.372 . S
C3735 C3734 1.372 . S
C3735 C3736 1.400 . S
C3735 C3740 1.490 . S
C3736 H3726 0.930 . S
C3736 C3735 1.400 . S
C3736 C3739 1.386 . S
H3737 C3753 0.930 . S
H3738 C3754 0.931 . S
C3739 H3727 0.929 . S
C3739 C3733 1.390 . S
C3739 C3736 1.386 . S
C3740 C3735 1.490 . S
C3740 C3742 1.395 . S
C3740 C3743 1.403 . S
H3741 C3747 0.930 . S
C3742 H3728 0.930 . S
C3742 C3740 1.395 . S
C3742 C3745 1.403 . S
C3743 C3740 1.403 . S
C3743 C3744 1.524 . S
C3743 C3747 1.400 . S
C3744 H3729 0.960 . S
C3744 H3730 0.960 . S
C3744 H3731 0.960 . S
C3744 C3743 1.524 . S
C3745 C3742 1.403 . S
C3745 C3746 1.392 . S
C3745 C3749 1.495 . S
C3746 C3745 1.392 . S
C3746 C3747 1.385 . S
C3746 C3748 1.478 . S
C3747 H3741 0.930 . S
C3747 C3743 1.400 . S
C3747 C3746 1.385 . S
C3748 C3746 1.478 . S
C3748 C3750 1.381 . S
C3748 C3754 1.383 . S
C3749 C3745 1.495 . S
C3749 H3755 0.959 . S
C3749 H3756 0.961 . S
C3749 H3757 0.960 . S
C3750 C3748 1.381 . S
C3750 C3751 1.394 . S
C3750 H3758 0.930 . S
C3751 C3750 1.394 . S
C3751 C3752 1.383 . S
C3751 H3759 0.929 . S
C3752 C3751 1.383 . S
C3752 C3753 1.377 . S
C3753 H3737 0.930 . S
C3753 C3752 1.377 . S
C3753 C3754 1.379 . S
C3754 H3738 0.931 . S
C3754 C3748 1.383 . S
C3754 C3753 1.379 . S
H3755 C3749 0.959 . S
H3756 C3749 0.961 . S
H3757 C3749 0.960 . S
H3758 C3750 0.930 . S
H3759 C3751 0.929 . S
H3760 C3768 0.929 . S
H3761 C3770 0.930 . S
H3762 C3772 0.930 . S
H3763 C3775 0.929 . S
H3764 C3778 0.930 . S
H3765 C3780 0.960 . S
H3766 C3780 0.960 . S
H3767 C3780 0.960 . S
C3768 H3760 0.929 . S
C3768 C3769 1.377 . S
C3768 C3770 1.384 . S
C3769 C3768 1.377 . S
C3769 C3775 1.390 . S
C3770 H3761 0.930 . S
C3770 C3768 1.384 . S
C3770 C3771 1.372 . S
C3771 C3770 1.372 . S
C3771 C3772 1.400 . S
C3771 C3776 1.490 . S
C3772 H3762 0.930 . S
C3772 C3771 1.400 . S
C3772 C3775 1.386 . S
H3773 C3789 0.930 1_655 S
H3774 C3790 0.931 . S
C3775 H3763 0.929 . S
C3775 C3769 1.390 . S
C3775 C3772 1.386 . S
C3776 C3771 1.490 . S
C3776 C3778 1.395 . S
C3776 C3779 1.403 . S
H3777 C3783 0.930 . S
C3778 H3764 0.930 . S
C3778 C3776 1.395 . S
C3778 C3781 1.403 . S
C3779 C3776 1.403 . S
C3779 C3780 1.524 . S
C3779 C3783 1.400 . S
C3780 H3765 0.960 . S
C3780 H3766 0.960 . S
C3780 H3767 0.960 . S
C3780 C3779 1.524 . S
C3781 C3778 1.403 . S
C3781 C3782 1.392 . S
C3781 C3785 1.495 . S
C3782 C3781 1.392 . S
C3782 C3783 1.385 . S
C3782 C3784 1.478 . S
C3783 H3777 0.930 . S
C3783 C3779 1.400 . S
C3783 C3782 1.385 . S
C3784 C3782 1.478 . S
C3784 C3786 1.381 . S
C3784 C3790 1.383 . S
C3785 C3781 1.495 . S
C3785 H3791 0.959 . S
C3785 H3792 0.961 . S
C3785 H3793 0.960 . S
C3786 C3784 1.381 . S
C3786 C3787 1.394 . S
C3786 H3794 0.930 . S
C3787 C3786 1.394 . S
C3787 C3788 1.383 . S
C3787 H3795 0.929 . S
C3788 C3787 1.383 . S
C3788 C3789 1.377 . S
C3789 H3773 0.930 1_455 S
C3789 C3788 1.377 . S
C3789 C3790 1.379 . S
C3790 H3774 0.931 . S
C3790 C3784 1.383 . S
C3790 C3789 1.379 . S
H3791 C3785 0.959 . S
H3792 C3785 0.961 . S
H3793 C3785 0.960 . S
H3794 C3786 0.930 . S
H3795 C3787 0.929 . S
H3796 C3804 0.929 . S
H3797 C3806 0.930 . S
H3798 C3808 0.930 . S
H3799 C3811 0.929 . S
H3800 C3814 0.930 . S
H3801 C3816 0.960 . S
H3802 C3816 0.960 . S
H3803 C3816 0.960 . S
C3804 H3796 0.929 . S
C3804 C3805 1.377 . S
C3804 C3806 1.384 . S
C3805 C3804 1.377 . S
C3805 C3811 1.390 . S
C3806 H3797 0.930 . S
C3806 C3804 1.384 . S
C3806 C3807 1.372 . S
C3807 C3806 1.372 . S
C3807 C3808 1.400 . S
C3807 C3812 1.490 . S
C3808 H3798 0.930 . S
C3808 C3807 1.400 . S
C3808 C3811 1.386 . S
H3809 C3825 0.930 . S
H3810 C3826 0.931 . S
C3811 H3799 0.929 . S
C3811 C3805 1.390 . S
C3811 C3808 1.386 . S
C3812 C3807 1.490 . S
C3812 C3814 1.395 . S
C3812 C3815 1.403 . S
H3813 C3819 0.930 . S
C3814 H3800 0.930 . S
C3814 C3812 1.395 . S
C3814 C3817 1.403 . S
C3815 C3812 1.403 . S
C3815 C3816 1.524 . S
C3815 C3819 1.400 . S
C3816 H3801 0.960 . S
C3816 H3802 0.960 . S
C3816 H3803 0.960 . S
C3816 C3815 1.524 . S
C3817 C3814 1.403 . S
C3817 C3818 1.392 . S
C3817 C3821 1.495 . S
C3818 C3817 1.392 . S
C3818 C3819 1.385 . S
C3818 C3820 1.478 . S
C3819 H3813 0.930 . S
C3819 C3815 1.400 . S
C3819 C3818 1.385 . S
C3820 C3818 1.478 . S
C3820 C3822 1.381 . S
C3820 C3826 1.383 . S
C3821 C3817 1.495 . S
C3821 H3827 0.959 . S
C3821 H3828 0.961 . S
C3821 H3829 0.960 . S
C3822 C3820 1.381 . S
C3822 C3823 1.394 . S
C3822 H3830 0.930 . S
C3823 C3822 1.394 . S
C3823 C3824 1.383 . S
C3823 H3831 0.929 . S
C3824 C3823 1.383 . S
C3824 C3825 1.377 . S
C3825 H3809 0.930 . S
C3825 C3824 1.377 . S
C3825 C3826 1.379 . S
C3826 H3810 0.931 . S
C3826 C3820 1.383 . S
C3826 C3825 1.379 . S
H3827 C3821 0.959 . S
H3828 C3821 0.961 . S
H3829 C3821 0.960 . S
H3830 C3822 0.930 . S
H3831 C3823 0.929 . S
H3832 C3840 0.929 . S
H3833 C3842 0.930 . S
H3834 C3844 0.930 . S
H3835 C3847 0.929 . S
H3836 C3850 0.930 . S
H3837 C3852 0.960 . S
H3838 C3852 0.960 . S
H3839 C3852 0.960 . S
C3840 H3832 0.929 . S
C3840 C3841 1.377 . S
C3840 C3842 1.384 . S
C3841 C3840 1.377 . S
C3841 C3847 1.390 . S
C3842 H3833 0.930 . S
C3842 C3840 1.384 . S
C3842 C3843 1.372 . S
C3843 C3842 1.372 . S
C3843 C3844 1.400 . S
C3843 C3848 1.490 . S
C3844 H3834 0.930 . S
C3844 C3843 1.400 . S
C3844 C3847 1.386 . S
H3845 C3861 0.930 . S
H3846 C3862 0.931 . S
C3847 H3835 0.929 . S
C3847 C3841 1.390 . S
C3847 C3844 1.386 . S
C3848 C3843 1.490 . S
C3848 C3850 1.395 . S
C3848 C3851 1.403 . S
H3849 C3855 0.930 . S
C3850 H3836 0.930 . S
C3850 C3848 1.395 . S
C3850 C3853 1.403 . S
C3851 C3848 1.403 . S
C3851 C3852 1.524 . S
C3851 C3855 1.400 . S
C3852 H3837 0.960 . S
C3852 H3838 0.960 . S
C3852 H3839 0.960 . S
C3852 C3851 1.524 . S
C3853 C3850 1.403 . S
C3853 C3854 1.392 . S
C3853 C3857 1.495 . S
C3854 C3853 1.392 . S
C3854 C3855 1.385 . S
C3854 C3856 1.478 . S
C3855 H3849 0.930 . S
C3855 C3851 1.400 . S
C3855 C3854 1.385 . S
C3856 C3854 1.478 . S
C3856 C3858 1.381 . S
C3856 C3862 1.383 . S
C3857 C3853 1.495 . S
C3857 H3863 0.959 . S
C3857 H3864 0.961 . S
C3857 H3865 0.960 . S
C3858 C3856 1.381 . S
C3858 C3859 1.394 1_556 S
C3858 H3866 0.925 1_556 S
C3859 C3858 1.394 1_554 S
C3859 C3860 1.383 1_554 S
C3859 H3867 0.929 . S
C3860 C3859 1.383 1_556 S
C3860 C3861 1.377 . S
C3861 H3845 0.930 . S
C3861 C3860 1.377 . S
C3861 C3862 1.379 . S
C3862 H3846 0.931 . S
C3862 C3856 1.383 . S
C3862 C3861 1.379 . S
H3863 C3857 0.959 . S
H3864 C3857 0.961 . S
H3865 C3857 0.960 . S
H3866 C3858 0.925 1_554 S
H3867 C3859 0.929 . S
H3868 C3876 0.929 . S
H3869 C3878 0.930 . S
H3870 C3880 0.930 . S
H3871 C3883 0.929 . S
H3872 C3886 0.930 . S
H3873 C3888 0.960 . S
H3874 C3888 0.960 . S
H3875 C3888 0.960 . S
C3876 H3868 0.929 . S
C3876 C3877 1.377 . S
C3876 C3878 1.384 . S
C3877 C3876 1.377 . S
C3877 C3883 1.390 . S
C3878 H3869 0.930 . S
C3878 C3876 1.384 . S
C3878 C3879 1.372 . S
C3879 C3878 1.372 . S
C3879 C3880 1.400 . S
C3879 C3884 1.490 . S
C3880 H3870 0.930 . S
C3880 C3879 1.400 . S
C3880 C3883 1.386 . S
H3881 C3897 0.930 . S
H3882 C3898 0.931 . S
C3883 H3871 0.929 . S
C3883 C3877 1.390 . S
C3883 C3880 1.386 . S
C3884 C3879 1.490 . S
C3884 C3886 1.395 . S
C3884 C3887 1.403 . S
H3885 C3891 0.930 . S
C3886 H3872 0.930 . S
C3886 C3884 1.395 . S
C3886 C3889 1.403 . S
C3887 C3884 1.403 . S
C3887 C3888 1.524 . S
C3887 C3891 1.400 . S
C3888 H3873 0.960 . S
C3888 H3874 0.960 . S
C3888 H3875 0.960 . S
C3888 C3887 1.524 . S
C3889 C3886 1.403 . S
C3889 C3890 1.392 . S
C3889 C3893 1.495 . S
C3890 C3889 1.392 . S
C3890 C3891 1.385 . S
C3890 C3892 1.478 . S
C3891 H3885 0.930 . S
C3891 C3887 1.400 . S
C3891 C3890 1.385 . S
C3892 C3890 1.478 . S
C3892 C3894 1.381 . S
C3892 C3898 1.383 . S
C3893 C3889 1.495 . S
C3893 H3899 0.959 . S
C3893 H3900 0.961 . S
C3893 H3901 0.960 . S
C3894 C3892 1.381 . S
C3894 C3895 1.394 . S
C3894 H3902 0.930 . S
C3895 C3894 1.394 . S
C3895 C3896 1.383 . S
C3895 H3903 0.929 . S
C3896 C3895 1.383 . S
C3896 C3897 1.377 . S
C3897 H3881 0.930 . S
C3897 C3896 1.377 . S
C3897 C3898 1.379 . S
C3898 H3882 0.931 . S
C3898 C3892 1.383 . S
C3898 C3897 1.379 . S
H3899 C3893 0.959 . S
H3900 C3893 0.961 . S
H3901 C3893 0.960 . S
H3902 C3894 0.930 . S
H3903 C3895 0.929 . S
H3904 C3912 0.929 . S
H3905 C3914 0.930 . S
H3906 C3916 0.930 . S
H3907 C3919 0.929 . S
H3908 C3922 0.930 1_565 S
H3909 C3924 0.960 . S
H3910 C3924 0.960 . S
H3911 C3924 0.960 . S
C3912 H3904 0.929 . S
C3912 C3913 1.325 1_565 S
C3912 C3914 1.384 . S
C3913 C3912 1.325 1_545 S
C3913 C3919 1.447 . S
C3914 H3905 0.930 . S
C3914 C3912 1.384 . S
C3914 C3915 1.372 1_565 S
C3915 C3914 1.372 1_545 S
C3915 C3916 1.400 . S
C3915 C3920 1.490 . S
C3916 H3906 0.930 . S
C3916 C3915 1.400 . S
C3916 C3919 1.386 . S
H3917 C3933 0.930 . S
H3918 C3934 0.931 . S
C3919 H3907 0.929 . S
C3919 C3913 1.447 . S
C3919 C3916 1.386 . S
C3920 C3915 1.490 . S
C3920 C3922 1.395 . S
C3920 C3923 1.403 . S
H3921 C3927 0.930 . S
C3922 H3908 0.930 1_545 S
C3922 C3920 1.395 . S
C3922 C3925 1.403 . S
C3923 C3920 1.403 . S
C3923 C3924 1.524 . S
C3923 C3927 1.400 . S
C3924 H3909 0.960 . S
C3924 H3910 0.960 . S
C3924 H3911 0.960 . S
C3924 C3923 1.524 . S
C3925 C3922 1.403 . S
C3925 C3926 1.392 . S
C3925 C3929 1.470 1_545 S
C3926 C3925 1.392 . S
C3926 C3927 1.385 . S
C3926 C3928 1.478 . S
C3927 H3921 0.930 . S
C3927 C3923 1.400 . S
C3927 C3926 1.385 . S
C3928 C3926 1.478 . S
C3928 C3930 1.370 1_545 S
C3928 C3934 1.383 . S
C3929 C3925 1.470 1_565 S
C3929 H3935 0.984 . S
C3929 H3936 0.929 1_565 S
C3929 H3937 0.994 . S
C3930 C3928 1.370 1_565 S
C3930 C3931 1.393 1_565 S
C3930 H3938 0.943 . S
C3931 C3930 1.393 1_545 S
C3931 C3932 1.383 . S
C3931 H3939 0.929 1_545 S
C3932 C3931 1.383 . S
C3932 C3933 1.377 . S
C3933 H3917 0.930 . S
C3933 C3932 1.377 . S
C3933 C3934 1.379 . S
C3934 H3918 0.931 . S
C3934 C3928 1.383 . S
C3934 C3933 1.379 . S
H3935 C3929 0.984 . S
H3936 C3929 0.929 1_545 S
H3937 C3929 0.994 . S
H3938 C3930 0.943 . S
H3939 C3931 0.929 1_565 S
H3940 C3948 0.929 . S
H3941 C3950 0.930 . S
H3942 C3952 0.930 . S
H3943 C3955 0.929 . S
H3944 C3958 0.930 . S
H3945 C3960 0.960 . S
H3946 C3960 0.960 . S
H3947 C3960 0.960 . S
C3948 H3940 0.929 . S
C3948 C3949 1.377 . S
C3948 C3950 1.384 . S
C3949 C3948 1.377 . S
C3949 C3955 1.390 . S
C3950 H3941 0.930 . S
C3950 C3948 1.384 . S
C3950 C3951 1.372 . S
C3951 C3950 1.372 . S
C3951 C3952 1.400 . S
C3951 C3956 1.490 . S
C3952 H3942 0.930 . S
C3952 C3951 1.400 . S
C3952 C3955 1.386 . S
H3953 C3969 0.930 . S
H3954 C3970 0.931 . S
C3955 H3943 0.929 . S
C3955 C3949 1.390 . S
C3955 C3952 1.386 . S
C3956 C3951 1.490 . S
C3956 C3958 1.395 . S
C3956 C3959 1.403 . S
H3957 C3963 0.930 . S
C3958 H3944 0.930 . S
C3958 C3956 1.395 . S
C3958 C3961 1.403 . S
C3959 C3956 1.403 . S
C3959 C3960 1.524 . S
C3959 C3963 1.400 . S
C3960 H3945 0.960 . S
C3960 H3946 0.960 . S
C3960 H3947 0.960 . S
C3960 C3959 1.524 . S
C3961 C3958 1.403 . S
C3961 C3962 1.392 . S
C3961 C3965 1.495 . S
C3962 C3961 1.392 . S
C3962 C3963 1.385 . S
C3962 C3964 1.478 . S
C3963 H3957 0.930 . S
C3963 C3959 1.400 . S
C3963 C3962 1.385 . S
C3964 C3962 1.478 . S
C3964 C3966 1.381 . S
C3964 C3970 1.383 . S
C3965 C3961 1.495 . S
C3965 H3971 0.959 . S
C3965 H3972 0.961 . S
C3965 H3973 0.960 . S
C3966 C3964 1.381 . S
C3966 C3967 1.394 . S
C3966 H3974 0.930 . S
C3967 C3966 1.394 . S
C3967 C3968 1.383 . S
C3967 H3975 0.929 . S
C3968 C3967 1.383 . S
C3968 C3969 1.377 . S
C3969 H3953 0.930 . S
C3969 C3968 1.377 . S
C3969 C3970 1.379 . S
C3970 H3954 0.931 . S
C3970 C3964 1.383 . S
C3970 C3969 1.379 . S
H3971 C3965 0.959 . S
H3972 C3965 0.961 . S
H3973 C3965 0.960 . S
H3974 C3966 0.930 . S
H3975 C3967 0.929 . S
H3976 C3984 0.929 . S
H3977 C3986 0.930 . S
H3978 C3988 0.930 . S
H3979 C3991 0.929 . S
H3980 C3994 0.930 . S
H3981 C3996 0.932 1_565 S
H3982 C3996 0.960 1_565 S
H3983 C3996 0.960 . S
C3984 H3976 0.929 . S
C3984 C3985 1.377 . S
C3984 C3986 1.384 . S
C3985 C3984 1.377 . S
C3985 C3991 1.390 . S
C3986 H3977 0.930 . S
C3986 C3984 1.384 . S
C3986 C3987 1.372 . S
C3987 C3986 1.372 . S
C3987 C3988 1.400 . S
C3987 C3992 1.490 . S
C3988 H3978 0.930 . S
C3988 C3987 1.400 . S
C3988 C3991 1.386 . S
H3989 C4005 0.930 . S
H3990 C4006 0.931 . S
C3991 H3979 0.929 . S
C3991 C3985 1.390 . S
C3991 C3988 1.386 . S
C3992 C3987 1.490 . S
C3992 C3994 1.395 . S
C3992 C3995 1.403 . S
H3993 C3999 0.930 . S
C3994 H3980 0.930 . S
C3994 C3992 1.395 . S
C3994 C3997 1.403 . S
C3995 C3992 1.403 . S
C3995 C3996 1.524 . S
C3995 C3999 1.400 . S
C3996 H3981 0.932 1_545 S
C3996 H3982 0.960 1_545 S
C3996 H3983 0.960 . S
C3996 C3995 1.524 . S
C3997 C3994 1.403 . S
C3997 C3998 1.392 . S
C3997 C4001 1.495 . S
C3998 C3997 1.392 . S
C3998 C3999 1.385 . S
C3998 C4000 1.478 . S
C3999 H3993 0.930 . S
C3999 C3995 1.400 . S
C3999 C3998 1.385 . S
C4000 C3998 1.478 . S
C4000 C4002 1.381 . S
C4000 C4006 1.383 . S
C4001 C3997 1.495 . S
C4001 H4007 0.959 . S
C4001 H4008 0.961 . S
C4001 H4009 0.960 . S
C4002 C4000 1.381 . S
C4002 C4003 1.394 . S
C4002 H4010 0.930 . S
C4003 C4002 1.394 . S
C4003 C4004 1.383 . S
C4003 H4011 0.929 . S
C4004 C4003 1.383 . S
C4004 C4005 1.377 . S
C4005 H3989 0.930 . S
C4005 C4004 1.377 . S
C4005 C4006 1.379 . S
C4006 H3990 0.931 . S
C4006 C4000 1.383 . S
C4006 C4005 1.379 . S
H4007 C4001 0.959 . S
H4008 C4001 0.961 . S
H4009 C4001 0.960 . S
H4010 C4002 0.930 . S
H4011 C4003 0.929 . S
H4012 C4020 0.929 . S
H4013 C4022 0.930 . S
H4014 C4024 0.930 . S
H4015 C4027 0.929 . S
H4016 C4030 0.930 . S
H4017 C4032 0.960 . S
H4018 C4032 0.960 . S
H4019 C4032 0.960 . S
C4020 H4012 0.929 . S
C4020 C4021 1.377 . S
C4020 C4022 1.384 . S
C4021 C4020 1.377 . S
C4021 C4027 1.390 . S
C4022 H4013 0.930 . S
C4022 C4020 1.384 . S
C4022 C4023 1.372 . S
C4023 C4022 1.372 . S
C4023 C4024 1.400 . S
C4023 C4028 1.490 . S
C4024 H4014 0.930 . S
C4024 C4023 1.400 . S
C4024 C4027 1.386 . S
H4025 C4041 0.930 . S
H4026 C4042 0.931 . S
C4027 H4015 0.929 . S
C4027 C4021 1.390 . S
C4027 C4024 1.386 . S
C4028 C4023 1.490 . S
C4028 C4030 1.395 . S
C4028 C4031 1.403 . S
H4029 C4035 0.930 . S
C4030 H4016 0.930 . S
C4030 C4028 1.395 . S
C4030 C4033 1.403 . S
C4031 C4028 1.403 . S
C4031 C4032 1.524 . S
C4031 C4035 1.400 . S
C4032 H4017 0.960 . S
C4032 H4018 0.960 . S
C4032 H4019 0.960 . S
C4032 C4031 1.524 . S
C4033 C4030 1.403 . S
C4033 C4034 1.392 . S
C4033 C4037 1.495 . S
C4034 C4033 1.392 . S
C4034 C4035 1.385 . S
C4034 C4036 1.478 . S
C4035 H4029 0.930 . S
C4035 C4031 1.400 . S
C4035 C4034 1.385 . S
C4036 C4034 1.478 . S
C4036 C4038 1.381 . S
C4036 C4042 1.383 . S
C4037 C4033 1.495 . S
C4037 H4043 0.959 . S
C4037 H4044 0.961 . S
C4037 H4045 0.960 . S
C4038 C4036 1.381 . S
C4038 C4039 1.394 . S
C4038 H4046 0.930 . S
C4039 C4038 1.394 . S
C4039 C4040 1.383 . S
C4039 H4047 0.929 . S
C4040 C4039 1.383 . S
C4040 C4041 1.377 . S
C4041 H4025 0.930 . S
C4041 C4040 1.377 . S
C4041 C4042 1.379 . S
C4042 H4026 0.931 . S
C4042 C4036 1.383 . S
C4042 C4041 1.379 . S
H4043 C4037 0.959 . S
H4044 C4037 0.961 . S
H4045 C4037 0.960 . S
H4046 C4038 0.930 . S
H4047 C4039 0.929 . S
H4048 C4056 0.929 . S
H4049 C4058 0.930 . S
H4050 C4060 0.930 . S
H4051 C4063 0.929 . S
H4052 C4066 0.930 . S
H4053 C4068 0.960 . S
H4054 C4068 0.960 . S
H4055 C4068 0.960 . S
C4056 H4048 0.929 . S
C4056 C4057 1.377 . S
C4056 C4058 1.384 . S
C4057 C4056 1.377 . S
C4057 C4063 1.390 . S
C4058 H4049 0.930 . S
C4058 C4056 1.384 . S
C4058 C4059 1.372 . S
C4059 C4058 1.372 . S
C4059 C4060 1.400 . S
C4059 C4064 1.490 1_565 S
C4060 H4050 0.930 . S
C4060 C4059 1.400 . S
C4060 C4063 1.386 . S
H4061 C4077 0.930 . S
H4062 C4078 0.931 . S
C4063 H4051 0.929 . S
C4063 C4057 1.390 . S
C4063 C4060 1.386 . S
C4064 C4059 1.490 1_545 S
C4064 C4066 1.395 1_545 S
C4064 C4067 1.403 . S
H4065 C4071 0.930 . S
C4066 H4052 0.930 . S
C4066 C4064 1.395 1_565 S
C4066 C4069 1.403 . S
C4067 C4064 1.403 . S
C4067 C4068 1.524 . S
C4067 C4071 1.400 . S
C4068 H4053 0.960 . S
C4068 H4054 0.960 . S
C4068 H4055 0.960 . S
C4068 C4067 1.524 . S
C4069 C4066 1.403 . S
C4069 C4070 1.392 1_565 S
C4069 C4073 1.495 . S
C4070 C4069 1.392 1_545 S
C4070 C4071 1.385 . S
C4070 C4072 1.478 . S
C4071 H4065 0.930 . S
C4071 C4067 1.400 . S
C4071 C4070 1.385 . S
C4072 C4070 1.478 . S
C4072 C4074 1.381 . S
C4072 C4078 1.383 . S
C4073 C4069 1.495 . S
C4073 H4079 0.959 . S
C4073 H4080 0.961 . S
C4073 H4081 0.960 . S
C4074 C4072 1.381 . S
C4074 C4075 1.394 . S
C4074 H4082 0.930 . S
C4075 C4074 1.394 . S
C4075 C4076 1.383 . S
C4075 H4083 0.929 . S
C4076 C4075 1.383 . S
C4076 C4077 1.377 . S
C4077 H4061 0.930 . S
C4077 C4076 1.377 . S
C4077 C4078 1.379 . S
C4078 H4062 0.931 . S
C4078 C4072 1.383 . S
C4078 C4077 1.379 . S
H4079 C4073 0.959 . S
H4080 C4073 0.961 . S
H4081 C4073 0.960 . S
H4082 C4074 0.930 . S
H4083 C4075 0.929 . S
H4084 C4092 0.929 . S
H4085 C4094 0.930 . S
H4086 C4096 0.930 . S
H4087 C4099 0.929 . S
H4088 C4102 0.930 . S
H4089 C4104 0.960 . S
H4090 C4104 0.960 . S
H4091 C4104 0.960 . S
C4092 H4084 0.929 . S
C4092 C4093 1.377 . S
C4092 C4094 1.384 . S
C4093 C4092 1.377 . S
C4093 C4099 1.390 . S
C4094 H4085 0.930 . S
C4094 C4092 1.384 . S
C4094 C4095 1.372 . S
C4095 C4094 1.372 . S
C4095 C4096 1.400 . S
C4095 C4100 1.490 . S
C4096 H4086 0.930 . S
C4096 C4095 1.400 . S
C4096 C4099 1.386 . S
H4097 C4113 0.930 . S
H4098 C4114 0.931 . S
C4099 H4087 0.929 . S
C4099 C4093 1.390 . S
C4099 C4096 1.386 . S
C4100 C4095 1.490 . S
C4100 C4102 1.395 . S
C4100 C4103 1.403 . S
H4101 C4107 0.930 . S
C4102 H4088 0.930 . S
C4102 C4100 1.395 . S
C4102 C4105 1.403 . S
C4103 C4100 1.403 . S
C4103 C4104 1.524 . S
C4103 C4107 1.400 . S
C4104 H4089 0.960 . S
C4104 H4090 0.960 . S
C4104 H4091 0.960 . S
C4104 C4103 1.524 . S
C4105 C4102 1.403 . S
C4105 C4106 1.392 . S
C4105 C4109 1.495 . S
C4106 C4105 1.392 . S
C4106 C4107 1.385 . S
C4106 C4108 1.478 . S
C4107 H4101 0.930 . S
C4107 C4103 1.400 . S
C4107 C4106 1.385 . S
C4108 C4106 1.478 . S
C4108 C4110 1.381 . S
C4108 C4114 1.383 . S
C4109 C4105 1.495 . S
C4109 H4115 0.959 . S
C4109 H4116 0.961 . S
C4109 H4117 0.960 . S
C4110 C4108 1.381 . S
C4110 C4111 1.394 . S
C4110 H4118 0.930 . S
C4111 C4110 1.394 . S
C4111 C4112 1.383 . S
C4111 H4119 0.929 . S
C4112 C4111 1.383 . S
C4112 C4113 1.377 . S
C4113 H4097 0.930 . S
C4113 C4112 1.377 . S
C4113 C4114 1.379 . S
C4114 H4098 0.931 . S
C4114 C4108 1.383 . S
C4114 C4113 1.379 . S
H4115 C4109 0.959 . S
H4116 C4109 0.961 . S
H4117 C4109 0.960 . S
H4118 C4110 0.930 . S
H4119 C4111 0.929 . S
H4120 C4128 0.923 . S
H4121 C4130 0.930 . S
H4122 C4132 0.930 . S
H4123 C4135 0.929 . S
H4124 C4138 0.930 . S
H4125 C4140 0.960 . S
H4126 C4140 0.960 . S
H4127 C4140 0.960 . S
C4128 H4120 0.923 . S
C4128 C4129 1.384 1_565 S
C4128 C4130 1.383 . S
C4129 C4128 1.384 1_545 S
C4129 C4135 1.390 . S
C4130 H4121 0.930 . S
C4130 C4128 1.383 . S
C4130 C4131 1.372 1_565 S
C4131 C4130 1.372 1_545 S
C4131 C4132 1.400 . S
C4131 C4136 1.490 . S
C4132 H4122 0.930 . S
C4132 C4131 1.400 . S
C4132 C4135 1.386 . S
H4133 C4149 0.930 . S
H4134 C4150 0.931 . S
C4135 H4123 0.929 . S
C4135 C4129 1.390 . S
C4135 C4132 1.386 . S
C4136 C4131 1.490 . S
C4136 C4138 1.395 1_545 S
C4136 C4139 1.403 . S
H4137 C4143 0.930 . S
C4138 H4124 0.930 . S
C4138 C4136 1.395 1_565 S
C4138 C4141 1.403 . S
C4139 C4136 1.403 . S
C4139 C4140 1.524 . S
C4139 C4143 1.400 . S
C4140 H4125 0.960 . S
C4140 H4126 0.960 . S
C4140 H4127 0.960 . S
C4140 C4139 1.524 . S
C4141 C4138 1.403 . S
C4141 C4142 1.392 1_565 S
C4141 C4145 1.495 . S
C4142 C4141 1.392 1_545 S
C4142 C4143 1.385 . S
C4142 C4144 1.478 . S
C4143 H4137 0.930 . S
C4143 C4139 1.400 . S
C4143 C4142 1.385 . S
C4144 C4142 1.478 . S
C4144 C4146 1.381 1_545 S
C4144 C4150 1.383 . S
C4145 C4141 1.495 . S
C4145 H4151 0.959 . S
C4145 H4152 0.961 . S
C4145 H4153 0.960 . S
C4146 C4144 1.381 1_565 S
C4146 C4147 1.394 . S
C4146 H4154 0.930 . S
C4147 C4146 1.394 . S
C4147 C4148 1.383 . S
C4147 H4155 0.929 . S
C4148 C4147 1.383 . S
C4148 C4149 1.377 1_565 S
C4149 H4133 0.930 . S
C4149 C4148 1.377 1_545 S
C4149 C4150 1.379 . S
C4150 H4134 0.931 . S
C4150 C4144 1.383 . S
C4150 C4149 1.379 . S
H4151 C4145 0.959 . S
H4152 C4145 0.961 . S
H4153 C4145 0.960 . S
H4154 C4146 0.930 . S
H4155 C4147 0.929 . S
H4156 C4164 0.929 . S
H4157 C4166 0.930 . S
H4158 C4168 0.930 . S
H4159 C4171 0.929 . S
H4160 C4174 0.930 . S
H4161 C4176 0.960 . S
H4162 C4176 0.960 . S
H4163 C4176 0.960 . S
C4164 H4156 0.929 . S
C4164 C4165 1.377 . S
C4164 C4166 1.384 . S
C4165 C4164 1.377 . S
C4165 C4171 1.390 . S
C4166 H4157 0.930 . S
C4166 C4164 1.384 . S
C4166 C4167 1.372 . S
C4167 C4166 1.372 . S
C4167 C4168 1.400 . S
C4167 C4172 1.490 . S
C4168 H4158 0.930 . S
C4168 C4167 1.400 . S
C4168 C4171 1.386 . S
H4169 C4185 0.930 . S
H4170 C4186 0.931 . S
C4171 H4159 0.929 . S
C4171 C4165 1.390 . S
C4171 C4168 1.386 . S
C4172 C4167 1.490 . S
C4172 C4174 1.395 . S
C4172 C4175 1.403 . S
H4173 C4179 0.930 . S
C4174 H4160 0.930 . S
C4174 C4172 1.395 . S
C4174 C4177 1.403 . S
C4175 C4172 1.403 . S
C4175 C4176 1.524 . S
C4175 C4179 1.400 . S
C4176 H4161 0.960 . S
C4176 H4162 0.960 . S
C4176 H4163 0.960 . S
C4176 C4175 1.524 . S
C4177 C4174 1.403 . S
C4177 C4178 1.392 . S
C4177 C4181 1.495 . S
C4178 C4177 1.392 . S
C4178 C4179 1.385 . S
C4178 C4180 1.478 . S
C4179 H4173 0.930 . S
C4179 C4175 1.400 . S
C4179 C4178 1.385 . S
C4180 C4178 1.478 . S
C4180 C4182 1.381 . S
C4180 C4186 1.383 . S
C4181 C4177 1.495 . S
C4181 H4187 0.959 . S
C4181 H4188 0.961 . S
C4181 H4189 0.960 . S
C4182 C4180 1.381 . S
C4182 C4183 1.394 . S
C4182 H4190 0.930 . S
C4183 C4182 1.394 . S
C4183 C4184 1.383 . S
C4183 H4191 0.929 . S
C4184 C4183 1.383 . S
C4184 C4185 1.377 . S
C4185 H4169 0.930 . S
C4185 C4184 1.377 . S
C4185 C4186 1.379 . S
C4186 H4170 0.931 . S
C4186 C4180 1.383 . S
C4186 C4185 1.379 . S
H4187 C4181 0.959 . S
H4188 C4181 0.961 . S
H4189 C4181 0.960 . S
H4190 C4182 0.930 . S
H4191 C4183 0.929 . S
H4192 C4200 0.929 . S
H4193 C4202 0.930 . S
H4194 C4204 0.930 . S
H4195 C4207 0.929 . S
H4196 C4210 0.930 . S
H4197 C4212 0.960 . S
H4198 C4212 0.960 1_554 S
H4199 C4212 0.960 . S
C4200 H4192 0.929 . S
C4200 C4201 1.377 . S
C4200 C4202 1.384 . S
C4201 C4200 1.377 . S
C4201 C4207 1.390 1_554 S
C4202 H4193 0.930 . S
C4202 C4200 1.384 . S
C4202 C4203 1.372 1_554 S
C4203 C4202 1.372 1_556 S
C4203 C4204 1.400 . S
C4203 C4208 1.490 . S
C4204 H4194 0.930 . S
C4204 C4203 1.400 . S
C4204 C4207 1.386 . S
H4205 C4221 0.930 . S
H4206 C4222 0.931 . S
C4207 H4195 0.929 . S
C4207 C4201 1.390 1_556 S
C4207 C4204 1.386 . S
C4208 C4203 1.490 . S
C4208 C4210 1.395 . S
C4208 C4211 1.403 . S
H4209 C4215 0.930 . S
C4210 H4196 0.930 . S
C4210 C4208 1.395 . S
C4210 C4213 1.403 . S
C4211 C4208 1.403 . S
C4211 C4212 1.524 . S
C4211 C4215 1.400 . S
C4212 H4197 0.960 . S
C4212 H4198 0.960 1_556 S
C4212 H4199 0.960 . S
C4212 C4211 1.524 . S
C4213 C4210 1.403 . S
C4213 C4214 1.392 . S
C4213 C4217 1.495 . S
C4214 C4213 1.392 . S
C4214 C4215 1.385 . S
C4214 C4216 1.478 . S
C4215 H4209 0.930 . S
C4215 C4211 1.400 . S
C4215 C4214 1.385 . S
C4216 C4214 1.478 . S
C4216 C4218 1.377 . S
C4216 C4222 1.383 . S
C4217 C4213 1.495 . S
C4217 H4223 0.959 . S
C4217 H4224 0.961 . S
C4217 H4225 0.960 1_556 S
C4218 C4216 1.377 . S
C4218 C4219 1.393 . S
C4218 H4226 0.935 1_556 S
C4219 C4218 1.393 . S
C4219 C4220 1.383 . S
C4219 H4227 0.929 1_556 S
C4220 C4219 1.383 . S
C4220 C4221 1.377 . S
C4221 H4205 0.930 . S
C4221 C4220 1.377 . S
C4221 C4222 1.379 . S
C4222 H4206 0.931 . S
C4222 C4216 1.383 . S
C4222 C4221 1.379 . S
H4223 C4217 0.959 . S
H4224 C4217 0.961 . S
H4225 C4217 0.960 1_554 S
H4226 C4218 0.935 1_554 S
H4227 C4219 0.929 1_554 S
H4228 C4236 0.929 . S
H4229 C4238 0.930 . S
H4230 C4240 0.930 . S
H4231 C4243 0.929 . S
H4232 C4246 0.930 . S
H4233 C4248 0.960 . S
H4234 C4248 0.960 . S
H4235 C4248 0.960 . S
C4236 H4228 0.929 . S
C4236 C4237 1.377 . S
C4236 C4238 1.384 . S
C4237 C4236 1.377 . S
C4237 C4243 1.390 . S
C4238 H4229 0.930 . S
C4238 C4236 1.384 . S
C4238 C4239 1.372 . S
C4239 C4238 1.372 . S
C4239 C4240 1.400 . S
C4239 C4244 1.490 . S
C4240 H4230 0.930 . S
C4240 C4239 1.400 . S
C4240 C4243 1.386 . S
H4241 C4257 0.930 1_556 S
H4242 C4258 0.931 1_556 S
C4243 H4231 0.929 . S
C4243 C4237 1.390 . S
C4243 C4240 1.386 . S
C4244 C4239 1.490 . S
C4244 C4246 1.395 . S
C4244 C4247 1.403 . S
H4245 C4251 0.930 . S
C4246 H4232 0.930 . S
C4246 C4244 1.395 . S
C4246 C4249 1.403 . S
C4247 C4244 1.403 . S
C4247 C4248 1.524 . S
C4247 C4251 1.400 . S
C4248 H4233 0.960 . S
C4248 H4234 0.960 . S
C4248 H4235 0.960 . S
C4248 C4247 1.524 . S
C4249 C4246 1.403 . S
C4249 C4250 1.392 . S
C4249 C4253 1.495 . S
C4250 C4249 1.392 . S
C4250 C4251 1.385 . S
C4250 C4252 1.478 . S
C4251 H4245 0.930 . S
C4251 C4247 1.400 . S
C4251 C4250 1.385 . S
C4252 C4250 1.478 . S
C4252 C4254 1.381 . S
C4252 C4258 1.383 . S
C4253 C4249 1.495 . S
C4253 H4259 0.959 . S
C4253 H4260 0.961 . S
C4253 H4261 0.960 . S
C4254 C4252 1.381 . S
C4254 C4255 1.394 . S
C4254 H4262 0.930 . S
C4255 C4254 1.394 . S
C4255 C4256 1.383 . S
C4255 H4263 0.929 . S
C4256 C4255 1.383 . S
C4256 C4257 1.377 . S
C4257 H4241 0.930 1_554 S
C4257 C4256 1.377 . S
C4257 C4258 1.379 . S
C4258 H4242 0.931 1_554 S
C4258 C4252 1.383 . S
C4258 C4257 1.379 . S
H4259 C4253 0.959 . S
H4260 C4253 0.961 . S
H4261 C4253 0.960 . S
H4262 C4254 0.930 . S
H4263 C4255 0.929 . S
H4264 C4272 0.929 . S
H4265 C4274 0.930 . S
H4266 C4276 0.930 . S
H4267 C4279 0.929 . S
H4268 C4282 0.930 . S
H4269 C4284 0.960 . S
H4270 C4284 0.960 . S
H4271 C4284 0.960 . S
C4272 H4264 0.929 . S
C4272 C4273 1.377 . S
C4272 C4274 1.384 . S
C4273 C4272 1.377 . S
C4273 C4279 1.390 . S
C4274 H4265 0.930 . S
C4274 C4272 1.384 . S
C4274 C4275 1.372 . S
C4275 C4274 1.372 . S
C4275 C4276 1.400 . S
C4275 C4280 1.490 . S
C4276 H4266 0.930 . S
C4276 C4275 1.400 . S
C4276 C4279 1.386 . S
H4277 C4293 0.930 . S
H4278 C4294 0.931 . S
C4279 H4267 0.929 . S
C4279 C4273 1.390 . S
C4279 C4276 1.386 . S
C4280 C4275 1.490 . S
C4280 C4282 1.395 . S
C4280 C4283 1.403 . S
H4281 C4287 0.930 . S
C4282 H4268 0.930 . S
C4282 C4280 1.395 . S
C4282 C4285 1.403 . S
C4283 C4280 1.403 . S
C4283 C4284 1.524 . S
C4283 C4287 1.400 . S
C4284 H4269 0.960 . S
C4284 H4270 0.960 . S
C4284 H4271 0.960 . S
C4284 C4283 1.524 . S
C4285 C4282 1.403 . S
C4285 C4286 1.392 . S
C4285 C4289 1.495 . S
C4286 C4285 1.392 . S
C4286 C4287 1.385 . S
C4286 C4288 1.478 . S
C4287 H4281 0.930 . S
C4287 C4283 1.400 . S
C4287 C4286 1.385 . S
C4288 C4286 1.478 . S
C4288 C4290 1.381 . S
C4288 C4294 1.383 . S
C4289 C4285 1.495 . S
C4289 H4295 0.959 . S
C4289 H4296 0.961 . S
C4289 H4297 0.960 . S
C4290 C4288 1.381 . S
C4290 C4291 1.394 . S
C4290 H4298 0.930 . S
C4291 C4290 1.394 . S
C4291 C4292 1.383 . S
C4291 H4299 0.929 . S
C4292 C4291 1.383 . S
C4292 C4293 1.377 . S
C4293 H4277 0.930 . S
C4293 C4292 1.377 . S
C4293 C4294 1.379 . S
C4294 H4278 0.931 . S
C4294 C4288 1.383 . S
C4294 C4293 1.379 . S
H4295 C4289 0.959 . S
H4296 C4289 0.961 . S
H4297 C4289 0.960 . S
H4298 C4290 0.930 . S
H4299 C4291 0.929 . S
H4300 C4308 0.929 . S
H4301 C4310 0.930 . S
H4302 C4312 0.930 . S
H4303 C4315 0.929 . S
H4304 C4318 0.930 . S
H4305 C4320 0.960 . S
H4306 C4320 0.960 . S
H4307 C4320 0.960 . S
C4308 H4300 0.929 . S
C4308 C4309 1.377 . S
C4308 C4310 1.384 . S
C4309 C4308 1.377 . S
C4309 C4315 1.390 . S
C4310 H4301 0.930 . S
C4310 C4308 1.384 . S
C4310 C4311 1.372 . S
C4311 C4310 1.372 . S
C4311 C4312 1.400 . S
C4311 C4316 1.490 . S
C4312 H4302 0.930 . S
C4312 C4311 1.400 . S
C4312 C4315 1.386 . S
H4313 C4329 0.930 . S
H4314 C4330 0.931 . S
C4315 H4303 0.929 . S
C4315 C4309 1.390 . S
C4315 C4312 1.386 . S
C4316 C4311 1.490 . S
C4316 C4318 1.395 . S
C4316 C4319 1.403 . S
H4317 C4323 0.930 . S
C4318 H4304 0.930 . S
C4318 C4316 1.395 . S
C4318 C4321 1.403 . S
C4319 C4316 1.403 . S
C4319 C4320 1.524 . S
C4319 C4323 1.400 . S
C4320 H4305 0.960 . S
C4320 H4306 0.960 . S
C4320 H4307 0.960 . S
C4320 C4319 1.524 . S
C4321 C4318 1.403 . S
C4321 C4322 1.392 . S
C4321 C4325 1.495 . S
C4322 C4321 1.392 . S
C4322 C4323 1.385 . S
C4322 C4324 1.478 . S
C4323 H4317 0.930 . S
C4323 C4319 1.400 . S
C4323 C4322 1.385 . S
C4324 C4322 1.478 . S
C4324 C4326 1.381 . S
C4324 C4330 1.383 . S
C4325 C4321 1.495 . S
C4325 H4331 0.959 . S
C4325 H4332 0.961 . S
C4325 H4333 0.960 . S
C4326 C4324 1.381 . S
C4326 C4327 1.394 . S
C4326 H4334 0.930 . S
C4327 C4326 1.394 . S
C4327 C4328 1.383 . S
C4327 H4335 0.929 . S
C4328 C4327 1.383 . S
C4328 C4329 1.377 . S
C4329 H4313 0.930 . S
C4329 C4328 1.377 . S
C4329 C4330 1.379 . S
C4330 H4314 0.931 . S
C4330 C4324 1.383 . S
C4330 C4329 1.379 . S
H4331 C4325 0.959 . S
H4332 C4325 0.961 . S
H4333 C4325 0.960 . S
H4334 C4326 0.930 . S
H4335 C4327 0.929 . S
H4336 C4344 0.929 . S
H4337 C4346 0.930 . S
H4338 C4348 0.930 . S
H4339 C4351 0.929 . S
H4340 C4354 0.930 . S
H4341 C4356 0.960 . S
H4342 C4356 0.960 . S
H4343 C4356 0.960 . S
C4344 H4336 0.929 . S
C4344 C4345 1.377 . S
C4344 C4346 1.384 . S
C4345 C4344 1.377 . S
C4345 C4351 1.390 . S
C4346 H4337 0.930 . S
C4346 C4344 1.384 . S
C4346 C4347 1.372 . S
C4347 C4346 1.372 . S
C4347 C4348 1.400 . S
C4347 C4352 1.490 . S
C4348 H4338 0.930 . S
C4348 C4347 1.400 . S
C4348 C4351 1.386 . S
H4349 C4365 0.930 . S
H4350 C4366 0.931 . S
C4351 H4339 0.929 . S
C4351 C4345 1.390 . S
C4351 C4348 1.386 . S
C4352 C4347 1.490 . S
C4352 C4354 1.395 . S
C4352 C4355 1.403 . S
H4353 C4359 0.930 . S
C4354 H4340 0.930 . S
C4354 C4352 1.395 . S
C4354 C4357 1.403 . S
C4355 C4352 1.403 . S
C4355 C4356 1.524 . S
C4355 C4359 1.400 . S
C4356 H4341 0.960 . S
C4356 H4342 0.960 . S
C4356 H4343 0.960 . S
C4356 C4355 1.524 . S
C4357 C4354 1.403 . S
C4357 C4358 1.392 . S
C4357 C4361 1.495 . S
C4358 C4357 1.392 . S
C4358 C4359 1.385 . S
C4358 C4360 1.478 . S
C4359 H4353 0.930 . S
C4359 C4355 1.400 . S
C4359 C4358 1.385 . S
C4360 C4358 1.478 . S
C4360 C4362 1.381 . S
C4360 C4366 1.383 . S
C4361 C4357 1.495 . S
C4361 H4367 0.959 . S
C4361 H4368 0.961 . S
C4361 H4369 0.960 . S
C4362 C4360 1.381 . S
C4362 C4363 1.394 . S
C4362 H4370 0.930 . S
C4363 C4362 1.394 . S
C4363 C4364 1.383 . S
C4363 H4371 0.929 . S
C4364 C4363 1.383 . S
C4364 C4365 1.377 . S
C4365 H4349 0.930 . S
C4365 C4364 1.377 . S
C4365 C4366 1.379 . S
C4366 H4350 0.931 . S
C4366 C4360 1.383 . S
C4366 C4365 1.379 . S
H4367 C4361 0.959 . S
H4368 C4361 0.961 . S
H4369 C4361 0.960 . S
H4370 C4362 0.930 . S
H4371 C4363 0.929 . S
H4372 C4380 0.929 . S
H4373 C4382 0.930 . S
H4374 C4384 0.930 . S
H4375 C4387 0.929 . S
H4376 C4390 0.930 . S
H4377 C4392 0.960 . S
H4378 C4392 0.960 . S
H4379 C4392 0.960 . S
C4380 H4372 0.929 . S
C4380 C4381 1.377 . S
C4380 C4382 1.384 . S
C4381 C4380 1.377 . S
C4381 C4387 1.390 . S
C4382 H4373 0.930 . S
C4382 C4380 1.384 . S
C4382 C4383 1.372 . S
C4383 C4382 1.372 . S
C4383 C4384 1.400 . S
C4383 C4388 1.490 . S
C4384 H4374 0.930 . S
C4384 C4383 1.400 . S
C4384 C4387 1.386 . S
H4385 C4401 0.930 . S
H4386 C4402 0.931 . S
C4387 H4375 0.929 . S
C4387 C4381 1.390 . S
C4387 C4384 1.386 . S
C4388 C4383 1.490 . S
C4388 C4390 1.395 . S
C4388 C4391 1.403 . S
H4389 C4395 0.930 . S
C4390 H4376 0.930 . S
C4390 C4388 1.395 . S
C4390 C4393 1.403 . S
C4391 C4388 1.403 . S
C4391 C4392 1.524 . S
C4391 C4395 1.400 . S
C4392 H4377 0.960 . S
C4392 H4378 0.960 . S
C4392 H4379 0.960 . S
C4392 C4391 1.524 . S
C4393 C4390 1.403 . S
C4393 C4394 1.392 . S
C4393 C4397 1.495 . S
C4394 C4393 1.392 . S
C4394 C4395 1.385 . S
C4394 C4396 1.478 . S
C4395 H4389 0.930 . S
C4395 C4391 1.400 . S
C4395 C4394 1.385 . S
C4396 C4394 1.478 . S
C4396 C4398 1.381 . S
C4396 C4402 1.383 . S
C4397 C4393 1.495 . S
C4397 H4403 0.959 . S
C4397 H4404 0.961 . S
C4397 H4405 0.960 . S
C4398 C4396 1.381 . S
C4398 C4399 1.394 . S
C4398 H4406 0.930 . S
C4399 C4398 1.394 . S
C4399 C4400 1.383 . S
C4399 H4407 0.929 . S
C4400 C4399 1.383 . S
C4400 C4401 1.377 . S
C4401 H4385 0.930 . S
C4401 C4400 1.377 . S
C4401 C4402 1.379 . S
C4402 H4386 0.931 . S
C4402 C4396 1.383 . S
C4402 C4401 1.379 . S
H4403 C4397 0.959 . S
H4404 C4397 0.961 . S
H4405 C4397 0.960 . S
H4406 C4398 0.930 . S
H4407 C4399 0.929 . S
H4408 C4416 0.929 . S
H4409 C4418 0.930 . S
H4410 C4420 0.930 . S
H4411 C4423 0.929 . S
H4412 C4426 0.930 . S
H4413 C4428 0.960 . S
H4414 C4428 0.960 . S
H4415 C4428 0.960 . S
C4416 H4408 0.929 . S
C4416 C4417 1.377 . S
C4416 C4418 1.384 . S
C4417 C4416 1.377 . S
C4417 C4423 1.390 . S
C4418 H4409 0.930 . S
C4418 C4416 1.384 . S
C4418 C4419 1.372 . S
C4419 C4418 1.372 . S
C4419 C4420 1.400 . S
C4419 C4424 1.490 . S
C4420 H4410 0.930 . S
C4420 C4419 1.400 . S
C4420 C4423 1.386 . S
H4421 C4437 0.930 . S
H4422 C4438 0.931 . S
C4423 H4411 0.929 . S
C4423 C4417 1.390 . S
C4423 C4420 1.386 . S
C4424 C4419 1.490 . S
C4424 C4426 1.395 . S
C4424 C4427 1.403 . S
H4425 C4431 0.930 . S
C4426 H4412 0.930 . S
C4426 C4424 1.395 . S
C4426 C4429 1.403 . S
C4427 C4424 1.403 . S
C4427 C4428 1.524 . S
C4427 C4431 1.400 . S
C4428 H4413 0.960 . S
C4428 H4414 0.960 . S
C4428 H4415 0.960 . S
C4428 C4427 1.524 . S
C4429 C4426 1.403 . S
C4429 C4430 1.392 . S
C4429 C4433 1.495 . S
C4430 C4429 1.392 . S
C4430 C4431 1.385 . S
C4430 C4432 1.478 . S
C4431 H4425 0.930 . S
C4431 C4427 1.400 . S
C4431 C4430 1.385 . S
C4432 C4430 1.478 . S
C4432 C4434 1.381 . S
C4432 C4438 1.383 . S
C4433 C4429 1.495 . S
C4433 H4439 0.959 . S
C4433 H4440 0.961 . S
C4433 H4441 0.960 . S
C4434 C4432 1.381 . S
C4434 C4435 1.394 . S
C4434 H4442 0.930 . S
C4435 C4434 1.394 . S
C4435 C4436 1.383 . S
C4435 H4443 0.929 . S
C4436 C4435 1.383 . S
C4436 C4437 1.377 . S
C4437 H4421 0.930 . S
C4437 C4436 1.377 . S
C4437 C4438 1.379 . S
C4438 H4422 0.931 . S
C4438 C4432 1.383 . S
C4438 C4437 1.379 . S
H4439 C4433 0.959 . S
H4440 C4433 0.961 . S
H4441 C4433 0.960 . S
H4442 C4434 0.930 . S
H4443 C4435 0.929 . S
H4444 C4452 0.929 . S
H4445 C4454 0.930 . S
H4446 C4456 0.930 . S
H4447 C4459 0.929 . S
H4448 C4462 0.930 . S
H4449 C4464 0.960 . S
H4450 C4464 0.960 . S
H4451 C4464 0.960 . S
C4452 H4444 0.929 . S
C4452 C4453 1.377 . S
C4452 C4454 1.384 . S
C4453 C4452 1.377 . S
C4453 C4459 1.390 . S
C4454 H4445 0.930 . S
C4454 C4452 1.384 . S
C4454 C4455 1.372 . S
C4455 C4454 1.372 . S
C4455 C4456 1.400 . S
C4455 C4460 1.490 . S
C4456 H4446 0.930 . S
C4456 C4455 1.400 . S
C4456 C4459 1.386 . S
H4457 C4473 0.930 . S
H4458 C4474 0.931 . S
C4459 H4447 0.929 . S
C4459 C4453 1.390 . S
C4459 C4456 1.386 . S
C4460 C4455 1.490 . S
C4460 C4462 1.395 . S
C4460 C4463 1.403 . S
H4461 C4467 0.930 . S
C4462 H4448 0.930 . S
C4462 C4460 1.395 . S
C4462 C4465 1.403 . S
C4463 C4460 1.403 . S
C4463 C4464 1.524 . S
C4463 C4467 1.400 . S
C4464 H4449 0.960 . S
C4464 H4450 0.960 . S
C4464 H4451 0.960 . S
C4464 C4463 1.524 . S
C4465 C4462 1.403 . S
C4465 C4466 1.392 . S
C4465 C4469 1.495 . S
C4466 C4465 1.392 . S
C4466 C4467 1.385 . S
C4466 C4468 1.478 . S
C4467 H4461 0.930 . S
C4467 C4463 1.400 . S
C4467 C4466 1.385 . S
C4468 C4466 1.478 . S
C4468 C4470 1.381 . S
C4468 C4474 1.383 . S
C4469 C4465 1.495 . S
C4469 H4475 0.959 . S
C4469 H4476 0.961 . S
C4469 H4477 0.960 . S
C4470 C4468 1.381 . S
C4470 C4471 1.394 . S
C4470 H4478 0.930 . S
C4471 C4470 1.394 . S
C4471 C4472 1.383 . S
C4471 H4479 0.929 . S
C4472 C4471 1.383 . S
C4472 C4473 1.377 . S
C4473 H4457 0.930 . S
C4473 C4472 1.377 . S
C4473 C4474 1.379 . S
C4474 H4458 0.931 . S
C4474 C4468 1.383 . S
C4474 C4473 1.379 . S
H4475 C4469 0.959 . S
H4476 C4469 0.961 . S
H4477 C4469 0.960 . S
H4478 C4470 0.930 . S
H4479 C4471 0.929 . S
H4480 C4488 0.929 . S
H4481 C4490 0.930 . S
H4482 C4492 0.930 . S
H4483 C4495 0.929 . S
H4484 C4498 0.930 . S
H4485 C4500 0.960 . S
H4486 C4500 0.960 . S
H4487 C4500 0.960 . S
C4488 H4480 0.929 . S
C4488 C4489 1.377 . S
C4488 C4490 1.384 . S
C4489 C4488 1.377 . S
C4489 C4495 1.390 . S
C4490 H4481 0.930 . S
C4490 C4488 1.384 . S
C4490 C4491 1.372 . S
C4491 C4490 1.372 . S
C4491 C4492 1.400 . S
C4491 C4496 1.490 . S
C4492 H4482 0.930 . S
C4492 C4491 1.400 . S
C4492 C4495 1.386 . S
H4493 C4509 0.930 . S
H4494 C4510 0.931 . S
C4495 H4483 0.929 . S
C4495 C4489 1.390 . S
C4495 C4492 1.386 . S
C4496 C4491 1.490 . S
C4496 C4498 1.395 . S
C4496 C4499 1.403 . S
H4497 C4503 0.930 . S
C4498 H4484 0.930 . S
C4498 C4496 1.395 . S
C4498 C4501 1.403 . S
C4499 C4496 1.403 . S
C4499 C4500 1.524 . S
C4499 C4503 1.400 . S
C4500 H4485 0.960 . S
C4500 H4486 0.960 . S
C4500 H4487 0.960 . S
C4500 C4499 1.524 . S
C4501 C4498 1.403 . S
C4501 C4502 1.392 . S
C4501 C4505 1.495 . S
C4502 C4501 1.392 . S
C4502 C4503 1.385 . S
C4502 C4504 1.478 . S
C4503 H4497 0.930 . S
C4503 C4499 1.400 . S
C4503 C4502 1.385 . S
C4504 C4502 1.478 . S
C4504 C4506 1.381 . S
C4504 C4510 1.383 . S
C4505 C4501 1.495 . S
C4505 H4511 0.959 . S
C4505 H4512 0.961 . S
C4505 H4513 0.960 . S
C4506 C4504 1.381 . S
C4506 C4507 1.394 . S
C4506 H4514 0.930 . S
C4507 C4506 1.394 . S
C4507 C4508 1.383 . S
C4507 H4515 0.929 . S
C4508 C4507 1.383 . S
C4508 C4509 1.377 . S
C4509 H4493 0.930 . S
C4509 C4508 1.377 . S
C4509 C4510 1.379 . S
C4510 H4494 0.931 . S
C4510 C4504 1.383 . S
C4510 C4509 1.379 . S
H4511 C4505 0.959 . S
H4512 C4505 0.961 . S
H4513 C4505 0.960 . S
H4514 C4506 0.930 . S
H4515 C4507 0.929 . S
H4516 C4524 0.929 . S
H4517 C4526 0.930 . S
H4518 C4528 0.930 . S
H4519 C4531 0.929 . S
H4520 C4534 0.930 . S
H4521 C4536 0.960 . S
H4522 C4536 0.960 . S
H4523 C4536 0.960 . S
C4524 H4516 0.929 . S
C4524 C4525 1.377 . S
C4524 C4526 1.384 . S
C4525 C4524 1.377 . S
C4525 C4531 1.390 . S
C4526 H4517 0.930 . S
C4526 C4524 1.384 . S
C4526 C4527 1.372 . S
C4527 C4526 1.372 . S
C4527 C4528 1.400 . S
C4527 C4532 1.490 . S
C4528 H4518 0.930 . S
C4528 C4527 1.400 . S
C4528 C4531 1.386 . S
H4529 C4545 0.930 . S
H4530 C4546 0.931 . S
C4531 H4519 0.929 . S
C4531 C4525 1.390 . S
C4531 C4528 1.386 . S
C4532 C4527 1.490 . S
C4532 C4534 1.395 . S
C4532 C4535 1.403 . S
H4533 C4539 0.930 . S
C4534 H4520 0.930 . S
C4534 C4532 1.395 . S
C4534 C4537 1.403 . S
C4535 C4532 1.403 . S
C4535 C4536 1.524 . S
C4535 C4539 1.400 . S
C4536 H4521 0.960 . S
C4536 H4522 0.960 . S
C4536 H4523 0.960 . S
C4536 C4535 1.524 . S
C4537 C4534 1.403 . S
C4537 C4538 1.392 . S
C4537 C4541 1.495 . S
C4538 C4537 1.392 . S
C4538 C4539 1.385 . S
C4538 C4540 1.478 . S
C4539 H4533 0.930 . S
C4539 C4535 1.400 . S
C4539 C4538 1.385 . S
C4540 C4538 1.478 . S
C4540 C4542 1.381 . S
C4540 C4546 1.383 . S
C4541 C4537 1.495 . S
C4541 H4547 0.959 . S
C4541 H4548 0.961 . S
C4541 H4549 0.960 . S
C4542 C4540 1.381 . S
C4542 C4543 1.394 . S
C4542 H4550 0.930 . S
C4543 C4542 1.394 . S
C4543 C4544 1.383 . S
C4543 H4551 0.929 . S
C4544 C4543 1.383 . S
C4544 C4545 1.377 . S
C4545 H4529 0.930 . S
C4545 C4544 1.377 . S
C4545 C4546 1.379 . S
C4546 H4530 0.931 . S
C4546 C4540 1.383 . S
C4546 C4545 1.379 . S
H4547 C4541 0.959 . S
H4548 C4541 0.961 . S
H4549 C4541 0.960 . S
H4550 C4542 0.930 . S
H4551 C4543 0.929 . S
H4552 C4560 0.929 . S
H4553 C4562 0.930 . S
H4554 C4564 0.930 . S
H4555 C4567 0.929 . S
H4556 C4570 0.930 1_554 S
H4557 C4572 0.960 . S
H4558 C4572 0.960 . S
H4559 C4572 0.960 . S
C4560 H4552 0.929 . S
C4560 C4561 1.377 . S
C4560 C4562 1.384 . S
C4561 C4560 1.377 . S
C4561 C4567 1.390 . S
C4562 H4553 0.930 . S
C4562 C4560 1.384 . S
C4562 C4563 1.372 . S
C4563 C4562 1.372 . S
C4563 C4564 1.400 . S
C4563 C4568 1.490 . S
C4564 H4554 0.930 . S
C4564 C4563 1.400 . S
C4564 C4567 1.386 . S
H4565 C4581 0.928 . S
H4566 C4582 0.931 . S
C4567 H4555 0.929 . S
C4567 C4561 1.390 . S
C4567 C4564 1.386 . S
C4568 C4563 1.490 . S
C4568 C4570 1.395 . S
C4568 C4571 1.403 . S
H4569 C4575 0.930 . S
C4570 H4556 0.930 1_556 S
C4570 C4568 1.395 . S
C4570 C4573 1.403 1_556 S
C4571 C4568 1.403 . S
C4571 C4572 1.524 . S
C4571 C4575 1.400 . S
C4572 H4557 0.960 . S
C4572 H4558 0.960 . S
C4572 H4559 0.960 . S
C4572 C4571 1.524 . S
C4573 C4570 1.403 1_554 S
C4573 C4574 1.392 1_554 S
C4573 C4577 1.495 . S
C4574 C4573 1.392 1_556 S
C4574 C4575 1.385 . S
C4574 C4576 1.478 . S
C4575 H4569 0.930 . S
C4575 C4571 1.400 . S
C4575 C4574 1.385 . S
C4576 C4574 1.478 . S
C4576 C4578 1.384 . S
C4576 C4582 1.383 . S
C4577 C4573 1.495 . S
C4577 H4583 0.959 . S
C4577 H4584 0.961 . S
C4577 H4585 0.960 . S
C4578 C4576 1.384 . S
C4578 C4579 1.394 1_556 S
C4578 H4586 0.928 . S
C4579 C4578 1.394 1_554 S
C4579 C4580 1.383 . S
C4579 H4587 0.929 . S
C4580 C4579 1.383 . S
C4580 C4581 1.372 1_554 S
C4581 H4565 0.928 . S
C4581 C4580 1.372 1_556 S
C4581 C4582 1.380 . S
C4582 H4566 0.931 . S
C4582 C4576 1.383 . S
C4582 C4581 1.380 . S
H4583 C4577 0.959 . S
H4584 C4577 0.961 . S
H4585 C4577 0.960 . S
H4586 C4578 0.928 . S
H4587 C4579 0.929 . S
H4588 C4596 0.929 . S
H4589 C4598 0.930 . S
H4590 C4600 0.930 . S
H4591 C4603 0.929 . S
H4592 C4606 0.930 . S
H4593 C4608 0.960 . S
H4594 C4608 0.960 . S
H4595 C4608 0.960 . S
C4596 H4588 0.929 . S
C4596 C4597 1.377 . S
C4596 C4598 1.384 . S
C4597 C4596 1.377 . S
C4597 C4603 1.390 . S
C4598 H4589 0.930 . S
C4598 C4596 1.384 . S
C4598 C4599 1.372 . S
C4599 C4598 1.372 . S
C4599 C4600 1.400 . S
C4599 C4604 1.490 . S
C4600 H4590 0.930 . S
C4600 C4599 1.400 . S
C4600 C4603 1.386 . S
H4601 C4617 0.930 . S
H4602 C4618 0.931 . S
C4603 H4591 0.929 . S
C4603 C4597 1.390 . S
C4603 C4600 1.386 . S
C4604 C4599 1.490 . S
C4604 C4606 1.395 . S
C4604 C4607 1.403 . S
H4605 C4611 0.930 . S
C4606 H4592 0.930 . S
C4606 C4604 1.395 . S
C4606 C4609 1.403 . S
C4607 C4604 1.403 . S
C4607 C4608 1.524 . S
C4607 C4611 1.400 . S
C4608 H4593 0.960 . S
C4608 H4594 0.960 . S
C4608 H4595 0.960 . S
C4608 C4607 1.524 . S
C4609 C4606 1.403 . S
C4609 C4610 1.392 . S
C4609 C4613 1.495 . S
C4610 C4609 1.392 . S
C4610 C4611 1.385 . S
C4610 C4612 1.478 . S
C4611 H4605 0.930 . S
C4611 C4607 1.400 . S
C4611 C4610 1.385 . S
C4612 C4610 1.478 . S
C4612 C4614 1.381 . S
C4612 C4618 1.383 . S
C4613 C4609 1.495 . S
C4613 H4619 0.959 . S
C4613 H4620 0.961 . S
C4613 H4621 0.960 . S
C4614 C4612 1.381 . S
C4614 C4615 1.394 . S
C4614 H4622 0.930 . S
C4615 C4614 1.394 . S
C4615 C4616 1.383 . S
C4615 H4623 0.929 . S
C4616 C4615 1.383 . S
C4616 C4617 1.377 . S
C4617 H4601 0.930 . S
C4617 C4616 1.377 . S
C4617 C4618 1.379 . S
C4618 H4602 0.931 . S
C4618 C4612 1.383 . S
C4618 C4617 1.379 . S
H4619 C4613 0.959 . S
H4620 C4613 0.961 . S
H4621 C4613 0.960 . S
H4622 C4614 0.930 . S
H4623 C4615 0.929 . S
H4624 C4632 0.929 . S
H4625 C4634 0.930 . S
H4626 C4636 0.930 . S
H4627 C4639 0.929 . S
H4628 C4642 0.930 . S
H4629 C4644 0.960 . S
H4630 C4644 0.960 . S
H4631 C4644 0.960 . S
C4632 H4624 0.929 . S
C4632 C4633 1.377 . S
C4632 C4634 1.384 . S
C4633 C4632 1.377 . S
C4633 C4639 1.390 . S
C4634 H4625 0.930 . S
C4634 C4632 1.384 . S
C4634 C4635 1.372 . S
C4635 C4634 1.372 . S
C4635 C4636 1.400 . S
C4635 C4640 1.490 . S
C4636 H4626 0.930 . S
C4636 C4635 1.400 . S
C4636 C4639 1.386 . S
H4637 C4653 0.930 . S
H4638 C4654 0.931 . S
C4639 H4627 0.929 . S
C4639 C4633 1.390 . S
C4639 C4636 1.386 . S
C4640 C4635 1.490 . S
C4640 C4642 1.395 . S
C4640 C4643 1.403 . S
H4641 C4647 0.930 . S
C4642 H4628 0.930 . S
C4642 C4640 1.395 . S
C4642 C4645 1.403 . S
C4643 C4640 1.403 . S
C4643 C4644 1.524 . S
C4643 C4647 1.400 . S
C4644 H4629 0.960 . S
C4644 H4630 0.960 . S
C4644 H4631 0.960 . S
C4644 C4643 1.524 . S
C4645 C4642 1.403 . S
C4645 C4646 1.392 . S
C4645 C4649 1.495 . S
C4646 C4645 1.392 . S
C4646 C4647 1.385 . S
C4646 C4648 1.478 . S
C4647 H4641 0.930 . S
C4647 C4643 1.400 . S
C4647 C4646 1.385 . S
C4648 C4646 1.478 . S
C4648 C4650 1.381 . S
C4648 C4654 1.383 . S
C4649 C4645 1.495 . S
C4649 H4655 0.959 . S
C4649 H4656 0.961 . S
C4649 H4657 0.960 . S
C4650 C4648 1.381 . S
C4650 C4651 1.394 . S
C4650 H4658 0.930 . S
C4651 C4650 1.394 . S
C4651 C4652 1.383 . S
C4651 H4659 0.929 . S
C4652 C4651 1.383 . S
C4652 C4653 1.377 . S
C4653 H4637 0.930 . S
C4653 C4652 1.377 . S
C4653 C4654 1.379 . S
C4654 H4638 0.931 . S
C4654 C4648 1.383 . S
C4654 C4653 1.379 . S
H4655 C4649 0.959 . S
H4656 C4649 0.961 . S
H4657 C4649 0.960 . S
H4658 C4650 0.930 . S
H4659 C4651 0.929 . S
H4660 C4668 0.929 1_455 S
H4661 C4670 0.930 . S
H4662 C4672 0.930 . S
H4663 C4675 0.929 . S
H4664 C4678 0.930 . S
H4665 C4680 0.960 . S
H4666 C4680 0.960 . S
H4667 C4680 0.960 . S
C4668 H4660 0.929 1_655 S
C4668 C4669 1.377 1_655 S
C4668 C4670 1.384 . S
C4669 C4668 1.377 1_455 S
C4669 C4675 1.390 1_455 S
C4670 H4661 0.930 . S
C4670 C4668 1.384 . S
C4670 C4671 1.372 . S
C4671 C4670 1.372 . S
C4671 C4672 1.400 . S
C4671 C4676 1.490 . S
C4672 H4662 0.930 . S
C4672 C4671 1.400 . S
C4672 C4675 1.386 . S
H4673 C4689 0.930 . S
H4674 C4690 0.931 . S
C4675 H4663 0.929 . S
C4675 C4669 1.390 1_655 S
C4675 C4672 1.386 . S
C4676 C4671 1.490 . S
C4676 C4678 1.395 . S
C4676 C4679 1.403 . S
H4677 C4683 0.930 . S
C4678 H4664 0.930 . S
C4678 C4676 1.395 . S
C4678 C4681 1.403 . S
C4679 C4676 1.403 . S
C4679 C4680 1.524 . S
C4679 C4683 1.400 . S
C4680 H4665 0.960 . S
C4680 H4666 0.960 . S
C4680 H4667 0.960 . S
C4680 C4679 1.524 . S
C4681 C4678 1.403 . S
C4681 C4682 1.392 . S
C4681 C4685 1.495 . S
C4682 C4681 1.392 . S
C4682 C4683 1.385 . S
C4682 C4684 1.478 . S
C4683 H4677 0.930 . S
C4683 C4679 1.400 . S
C4683 C4682 1.385 . S
C4684 C4682 1.478 . S
C4684 C4686 1.381 . S
C4684 C4690 1.383 . S
C4685 C4681 1.495 . S
C4685 H4691 0.959 . S
C4685 H4692 0.961 . S
C4685 H4693 0.960 . S
C4686 C4684 1.381 . S
C4686 C4687 1.394 . S
C4686 H4694 0.930 . S
C4687 C4686 1.394 . S
C4687 C4688 1.383 . S
C4687 H4695 0.929 . S
C4688 C4687 1.383 . S
C4688 C4689 1.377 . S
C4689 H4673 0.930 . S
C4689 C4688 1.377 . S
C4689 C4690 1.379 . S
C4690 H4674 0.931 . S
C4690 C4684 1.383 . S
C4690 C4689 1.379 . S
H4691 C4685 0.959 . S
H4692 C4685 0.961 . S
H4693 C4685 0.960 . S
H4694 C4686 0.930 . S
H4695 C4687 0.929 . S
H4696 C4704 0.929 . S
H4697 C4706 0.930 . S
H4698 C4708 0.930 . S
H4699 C4711 0.929 . S
H4700 C4714 0.930 . S
H4701 C4716 0.960 . S
H4702 C4716 0.960 . S
H4703 C4716 0.960 . S
C4704 H4696 0.929 . S
C4704 C4705 1.377 . S
C4704 C4706 1.384 . S
C4705 C4704 1.377 . S
C4705 C4711 1.390 1_655 S
C4706 H4697 0.930 . S
C4706 C4704 1.384 . S
C4706 C4707 1.372 . S
C4707 C4706 1.372 . S
C4707 C4708 1.400 1_655 S
C4707 C4712 1.490 1_655 S
C4708 H4698 0.930 . S
C4708 C4707 1.400 1_455 S
C4708 C4711 1.386 . S
H4709 C4725 0.930 . S
H4710 C4726 0.931 . S
C4711 H4699 0.929 . S
C4711 C4705 1.390 1_455 S
C4711 C4708 1.386 . S
C4712 C4707 1.490 1_455 S
C4712 C4714 1.395 1_455 S
C4712 C4715 1.403 . S
H4713 C4719 0.930 . S
C4714 H4700 0.930 . S
C4714 C4712 1.395 1_655 S
C4714 C4717 1.403 . S
C4715 C4712 1.403 . S
C4715 C4716 1.524 . S
C4715 C4719 1.400 . S
C4716 H4701 0.960 . S
C4716 H4702 0.960 . S
C4716 H4703 0.960 . S
C4716 C4715 1.524 . S
C4717 C4714 1.403 . S
C4717 C4718 1.392 1_655 S
C4717 C4721 1.495 . S
C4718 C4717 1.392 1_455 S
C4718 C4719 1.385 . S
C4718 C4720 1.478 . S
C4719 H4713 0.930 . S
C4719 C4715 1.400 . S
C4719 C4718 1.385 . S
C4720 C4718 1.478 . S
C4720 C4722 1.381 . S
C4720 C4726 1.383 . S
C4721 C4717 1.495 . S
C4721 H4727 0.959 . S
C4721 H4728 0.961 . S
C4721 H4729 0.960 . S
C4722 C4720 1.381 . S
C4722 C4723 1.394 . S
C4722 H4730 0.930 1_455 S
C4723 C4722 1.394 . S
C4723 C4724 1.383 . S
C4723 H4731 0.929 . S
C4724 C4723 1.383 . S
C4724 C4725 1.377 . S
C4725 H4709 0.930 . S
C4725 C4724 1.377 . S
C4725 C4726 1.379 . S
C4726 H4710 0.931 . S
C4726 C4720 1.383 . S
C4726 C4725 1.379 . S
H4727 C4721 0.959 . S
H4728 C4721 0.961 . S
H4729 C4721 0.960 . S
H4730 C4722 0.930 1_655 S
H4731 C4723 0.929 . S
H4732 C4740 0.929 . S
H4733 C4742 0.930 . S
H4734 C4744 0.930 . S
H4735 C4747 0.929 . S
H4736 C4750 0.930 . S
H4737 C4752 0.960 . S
H4738 C4752 0.960 . S
H4739 C4752 0.960 . S
C4740 H4732 0.929 . S
C4740 C4741 1.377 . S
C4740 C4742 1.384 . S
C4741 C4740 1.377 . S
C4741 C4747 1.390 . S
C4742 H4733 0.930 . S
C4742 C4740 1.384 . S
C4742 C4743 1.372 . S
C4743 C4742 1.372 . S
C4743 C4744 1.400 . S
C4743 C4748 1.490 . S
C4744 H4734 0.930 . S
C4744 C4743 1.400 . S
C4744 C4747 1.386 . S
H4745 C4761 0.930 . S
H4746 C4762 0.931 . S
C4747 H4735 0.929 . S
C4747 C4741 1.390 . S
C4747 C4744 1.386 . S
C4748 C4743 1.490 . S
C4748 C4750 1.395 . S
C4748 C4751 1.403 . S
H4749 C4755 0.930 . S
C4750 H4736 0.930 . S
C4750 C4748 1.395 . S
C4750 C4753 1.403 . S
C4751 C4748 1.403 . S
C4751 C4752 1.524 . S
C4751 C4755 1.400 . S
C4752 H4737 0.960 . S
C4752 H4738 0.960 . S
C4752 H4739 0.960 . S
C4752 C4751 1.524 . S
C4753 C4750 1.403 . S
C4753 C4754 1.392 . S
C4753 C4757 1.495 . S
C4754 C4753 1.392 . S
C4754 C4755 1.385 . S
C4754 C4756 1.478 . S
C4755 H4749 0.930 . S
C4755 C4751 1.400 . S
C4755 C4754 1.385 . S
C4756 C4754 1.478 . S
C4756 C4758 1.381 . S
C4756 C4762 1.383 . S
C4757 C4753 1.495 . S
C4757 H4763 0.959 . S
C4757 H4764 0.961 . S
C4757 H4765 0.960 . S
C4758 C4756 1.381 . S
C4758 C4759 1.394 . S
C4758 H4766 0.930 . S
C4759 C4758 1.394 . S
C4759 C4760 1.383 . S
C4759 H4767 0.929 . S
C4760 C4759 1.383 . S
C4760 C4761 1.377 . S
C4761 H4745 0.930 . S
C4761 C4760 1.377 . S
C4761 C4762 1.379 . S
C4762 H4746 0.931 . S
C4762 C4756 1.383 . S
C4762 C4761 1.379 . S
H4763 C4757 0.959 . S
H4764 C4757 0.961 . S
H4765 C4757 0.960 . S
H4766 C4758 0.930 . S
H4767 C4759 0.929 . S
H4768 C4776 0.929 . S
H4769 C4778 0.930 . S
H4770 C4780 0.930 . S
H4771 C4783 0.929 . S
H4772 C4786 0.930 . S
H4773 C4788 0.960 . S
H4774 C4788 0.960 . S
H4775 C4788 0.960 . S
C4776 H4768 0.929 . S
C4776 C4777 1.377 . S
C4776 C4778 1.384 . S
C4777 C4776 1.377 . S
C4777 C4783 1.390 . S
C4778 H4769 0.930 . S
C4778 C4776 1.384 . S
C4778 C4779 1.372 . S
C4779 C4778 1.372 . S
C4779 C4780 1.400 . S
C4779 C4784 1.490 . S
C4780 H4770 0.930 . S
C4780 C4779 1.400 . S
C4780 C4783 1.386 . S
H4781 C4797 0.930 . S
H4782 C4798 0.931 . S
C4783 H4771 0.929 . S
C4783 C4777 1.390 . S
C4783 C4780 1.386 . S
C4784 C4779 1.490 . S
C4784 C4786 1.395 . S
C4784 C4787 1.403 . S
H4785 C4791 0.930 . S
C4786 H4772 0.930 . S
C4786 C4784 1.395 . S
C4786 C4789 1.403 . S
C4787 C4784 1.403 . S
C4787 C4788 1.524 . S
C4787 C4791 1.400 . S
C4788 H4773 0.960 . S
C4788 H4774 0.960 . S
C4788 H4775 0.960 . S
C4788 C4787 1.524 . S
C4789 C4786 1.403 . S
C4789 C4790 1.392 . S
C4789 C4793 1.495 . S
C4790 C4789 1.392 . S
C4790 C4791 1.385 . S
C4790 C4792 1.478 . S
C4791 H4785 0.930 . S
C4791 C4787 1.400 . S
C4791 C4790 1.385 . S
C4792 C4790 1.478 . S
C4792 C4794 1.381 . S
C4792 C4798 1.383 . S
C4793 C4789 1.495 . S
C4793 H4799 0.959 . S
C4793 H4800 0.961 . S
C4793 H4801 0.960 . S
C4794 C4792 1.381 . S
C4794 C4795 1.394 . S
C4794 H4802 0.930 . S
C4795 C4794 1.394 . S
C4795 C4796 1.383 . S
C4795 H4803 0.929 . S
C4796 C4795 1.383 . S
C4796 C4797 1.377 . S
C4797 H4781 0.930 . S
C4797 C4796 1.377 . S
C4797 C4798 1.379 . S
C4798 H4782 0.931 . S
C4798 C4792 1.383 . S
C4798 C4797 1.379 . S
H4799 C4793 0.959 . S
H4800 C4793 0.961 . S
H4801 C4793 0.960 . S
H4802 C4794 0.930 . S
H4803 C4795 0.929 . S
H4804 C4812 0.929 . S
H4805 C4814 0.930 . S
H4806 C4816 0.930 . S
H4807 C4819 0.929 . S
H4808 C4822 0.930 . S
H4809 C4824 0.960 . S
H4810 C4824 0.960 . S
H4811 C4824 0.960 . S
C4812 H4804 0.929 . S
C4812 C4813 1.377 . S
C4812 C4814 1.384 . S
C4813 C4812 1.377 . S
C4813 C4819 1.390 . S
C4814 H4805 0.930 . S
C4814 C4812 1.384 . S
C4814 C4815 1.372 . S
C4815 C4814 1.372 . S
C4815 C4816 1.400 . S
C4815 C4820 1.490 . S
C4816 H4806 0.930 . S
C4816 C4815 1.400 . S
C4816 C4819 1.386 . S
H4817 C4833 0.930 . S
H4818 C4834 0.931 . S
C4819 H4807 0.929 . S
C4819 C4813 1.390 . S
C4819 C4816 1.386 . S
C4820 C4815 1.490 . S
C4820 C4822 1.395 . S
C4820 C4823 1.403 . S
H4821 C4827 0.930 . S
C4822 H4808 0.930 . S
C4822 C4820 1.395 . S
C4822 C4825 1.403 . S
C4823 C4820 1.403 . S
C4823 C4824 1.524 . S
C4823 C4827 1.400 . S
C4824 H4809 0.960 . S
C4824 H4810 0.960 . S
C4824 H4811 0.960 . S
C4824 C4823 1.524 . S
C4825 C4822 1.403 . S
C4825 C4826 1.392 . S
C4825 C4829 1.495 . S
C4826 C4825 1.392 . S
C4826 C4827 1.385 . S
C4826 C4828 1.478 . S
C4827 H4821 0.930 . S
C4827 C4823 1.400 . S
C4827 C4826 1.385 . S
C4828 C4826 1.478 . S
C4828 C4830 1.381 . S
C4828 C4834 1.383 . S
C4829 C4825 1.495 . S
C4829 H4835 0.959 . S
C4829 H4836 0.961 . S
C4829 H4837 0.960 . S
C4830 C4828 1.381 . S
C4830 C4831 1.394 . S
C4830 H4838 0.930 . S
C4831 C4830 1.394 . S
C4831 C4832 1.383 . S
C4831 H4839 0.929 . S
C4832 C4831 1.383 . S
C4832 C4833 1.377 . S
C4833 H4817 0.930 . S
C4833 C4832 1.377 . S
C4833 C4834 1.379 . S
C4834 H4818 0.931 . S
C4834 C4828 1.383 . S
C4834 C4833 1.379 . S
H4835 C4829 0.959 . S
H4836 C4829 0.961 . S
H4837 C4829 0.960 . S
H4838 C4830 0.930 . S
H4839 C4831 0.929 . S
H4840 C4848 0.929 . S
H4841 C4850 0.930 . S
H4842 C4852 0.930 . S
H4843 C4855 0.929 . S
H4844 C4858 0.930 . S
H4845 C4860 0.960 . S
H4846 C4860 0.960 . S
H4847 C4860 0.960 . S
C4848 H4840 0.929 . S
C4848 C4849 1.377 . S
C4848 C4850 1.384 . S
C4849 C4848 1.377 . S
C4849 C4855 1.390 . S
C4850 H4841 0.930 . S
C4850 C4848 1.384 . S
C4850 C4851 1.372 . S
C4851 C4850 1.372 . S
C4851 C4852 1.400 . S
C4851 C4856 1.490 . S
C4852 H4842 0.930 . S
C4852 C4851 1.400 . S
C4852 C4855 1.386 . S
H4853 C4869 0.930 . S
H4854 C4870 0.931 . S
C4855 H4843 0.929 . S
C4855 C4849 1.390 . S
C4855 C4852 1.386 . S
C4856 C4851 1.490 . S
C4856 C4858 1.395 . S
C4856 C4859 1.403 . S
H4857 C4863 0.930 . S
C4858 H4844 0.930 . S
C4858 C4856 1.395 . S
C4858 C4861 1.403 . S
C4859 C4856 1.403 . S
C4859 C4860 1.524 . S
C4859 C4863 1.400 . S
C4860 H4845 0.960 . S
C4860 H4846 0.960 . S
C4860 H4847 0.960 . S
C4860 C4859 1.524 . S
C4861 C4858 1.403 . S
C4861 C4862 1.392 . S
C4861 C4865 1.495 . S
C4862 C4861 1.392 . S
C4862 C4863 1.385 . S
C4862 C4864 1.478 . S
C4863 H4857 0.930 . S
C4863 C4859 1.400 . S
C4863 C4862 1.385 . S
C4864 C4862 1.478 . S
C4864 C4866 1.381 . S
C4864 C4870 1.383 . S
C4865 C4861 1.495 . S
C4865 H4871 0.959 . S
C4865 H4872 0.961 . S
C4865 H4873 0.960 . S
C4866 C4864 1.381 . S
C4866 C4867 1.394 . S
C4866 H4874 0.930 . S
C4867 C4866 1.394 . S
C4867 C4868 1.383 . S
C4867 H4875 0.929 . S
C4868 C4867 1.383 . S
C4868 C4869 1.377 . S
C4869 H4853 0.930 . S
C4869 C4868 1.377 . S
C4869 C4870 1.379 . S
C4870 H4854 0.931 . S
C4870 C4864 1.383 . S
C4870 C4869 1.379 . S
H4871 C4865 0.959 . S
H4872 C4865 0.961 . S
H4873 C4865 0.960 . S
H4874 C4866 0.930 . S
H4875 C4867 0.929 . S
H4876 C4884 0.929 . S
H4877 C4886 0.930 . S
H4878 C4888 0.930 . S
H4879 C4891 0.929 . S
H4880 C4894 0.930 . S
H4881 C4896 0.960 . S
H4882 C4896 0.960 . S
H4883 C4896 0.960 . S
C4884 H4876 0.929 . S
C4884 C4885 1.377 . S
C4884 C4886 1.384 . S
C4885 C4884 1.377 . S
C4885 C4891 1.390 . S
C4886 H4877 0.930 . S
C4886 C4884 1.384 . S
C4886 C4887 1.372 . S
C4887 C4886 1.372 . S
C4887 C4888 1.400 . S
C4887 C4892 1.490 . S
C4888 H4878 0.930 . S
C4888 C4887 1.400 . S
C4888 C4891 1.386 . S
H4889 C4905 0.930 . S
H4890 C4906 0.931 . S
C4891 H4879 0.929 . S
C4891 C4885 1.390 . S
C4891 C4888 1.386 . S
C4892 C4887 1.490 . S
C4892 C4894 1.395 . S
C4892 C4895 1.403 . S
H4893 C4899 0.930 . S
C4894 H4880 0.930 . S
C4894 C4892 1.395 . S
C4894 C4897 1.403 . S
C4895 C4892 1.403 . S
C4895 C4896 1.524 . S
C4895 C4899 1.400 . S
C4896 H4881 0.960 . S
C4896 H4882 0.960 . S
C4896 H4883 0.960 . S
C4896 C4895 1.524 . S
C4897 C4894 1.403 . S
C4897 C4898 1.392 . S
C4897 C4901 1.495 . S
C4898 C4897 1.392 . S
C4898 C4899 1.385 . S
C4898 C4900 1.478 . S
C4899 H4893 0.930 . S
C4899 C4895 1.400 . S
C4899 C4898 1.385 . S
C4900 C4898 1.478 . S
C4900 C4902 1.381 . S
C4900 C4906 1.383 . S
C4901 C4897 1.495 . S
C4901 H4907 0.959 . S
C4901 H4908 0.961 . S
C4901 H4909 0.960 . S
C4902 C4900 1.381 . S
C4902 C4903 1.394 . S
C4902 H4910 0.930 . S
C4903 C4902 1.394 . S
C4903 C4904 1.383 . S
C4903 H4911 0.929 . S
C4904 C4903 1.383 . S
C4904 C4905 1.377 . S
C4905 H4889 0.930 . S
C4905 C4904 1.377 . S
C4905 C4906 1.379 . S
C4906 H4890 0.931 . S
C4906 C4900 1.383 . S
C4906 C4905 1.379 . S
H4907 C4901 0.959 . S
H4908 C4901 0.961 . S
H4909 C4901 0.960 . S
H4910 C4902 0.930 . S
H4911 C4903 0.929 . S
H4912 C4920 0.929 . S
H4913 C4922 0.930 . S
H4914 C4924 0.930 . S
H4915 C4927 0.929 . S
H4916 C4930 0.930 . S
H4917 C4932 0.960 . S
H4918 C4932 0.960 . S
H4919 C4932 0.960 . S
C4920 H4912 0.929 . S
C4920 C4921 1.377 . S
C4920 C4922 1.384 . S
C4921 C4920 1.377 . S
C4921 C4927 1.390 . S
C4922 H4913 0.930 . S
C4922 C4920 1.384 . S
C4922 C4923 1.372 . S
C4923 C4922 1.372 . S
C4923 C4924 1.400 . S
C4923 C4928 1.490 . S
C4924 H4914 0.930 . S
C4924 C4923 1.400 . S
C4924 C4927 1.386 . S
H4925 C4941 0.930 . S
H4926 C4942 0.931 . S
C4927 H4915 0.929 . S
C4927 C4921 1.390 . S
C4927 C4924 1.386 . S
C4928 C4923 1.490 . S
C4928 C4930 1.395 . S
C4928 C4931 1.403 . S
H4929 C4935 0.930 . S
C4930 H4916 0.930 . S
C4930 C4928 1.395 . S
C4930 C4933 1.403 . S
C4931 C4928 1.403 . S
C4931 C4932 1.524 . S
C4931 C4935 1.400 . S
C4932 H4917 0.960 . S
C4932 H4918 0.960 . S
C4932 H4919 0.960 . S
C4932 C4931 1.524 . S
C4933 C4930 1.403 . S
C4933 C4934 1.392 . S
C4933 C4937 1.495 . S
C4934 C4933 1.392 . S
C4934 C4935 1.385 . S
C4934 C4936 1.478 . S
C4935 H4929 0.930 . S
C4935 C4931 1.400 . S
C4935 C4934 1.385 . S
C4936 C4934 1.478 . S
C4936 C4938 1.381 . S
C4936 C4942 1.383 . S
C4937 C4933 1.495 . S
C4937 H4943 0.959 . S
C4937 H4944 0.961 . S
C4937 H4945 0.960 . S
C4938 C4936 1.381 . S
C4938 C4939 1.394 . S
C4938 H4946 0.930 . S
C4939 C4938 1.394 . S
C4939 C4940 1.383 . S
C4939 H4947 0.929 . S
C4940 C4939 1.383 . S
C4940 C4941 1.377 . S
C4941 H4925 0.930 . S
C4941 C4940 1.377 . S
C4941 C4942 1.379 . S
C4942 H4926 0.931 . S
C4942 C4936 1.383 . S
C4942 C4941 1.379 . S
H4943 C4937 0.959 . S
H4944 C4937 0.961 . S
H4945 C4937 0.960 . S
H4946 C4938 0.930 . S
H4947 C4939 0.929 . S
H4948 C4956 0.929 . S
H4949 C4958 0.930 . S
H4950 C4960 0.930 . S
H4951 C4963 0.929 . S
H4952 C4966 0.930 . S
H4953 C4968 0.960 . S
H4954 C4968 0.960 . S
H4955 C4968 0.960 . S
C4956 H4948 0.929 . S
C4956 C4957 1.377 . S
C4956 C4958 1.384 . S
C4957 C4956 1.377 . S
C4957 C4963 1.390 . S
C4958 H4949 0.930 . S
C4958 C4956 1.384 . S
C4958 C4959 1.372 . S
C4959 C4958 1.372 . S
C4959 C4960 1.400 . S
C4959 C4964 1.490 . S
C4960 H4950 0.930 . S
C4960 C4959 1.400 . S
C4960 C4963 1.386 . S
H4961 C4977 0.930 . S
H4962 C4978 0.931 . S
C4963 H4951 0.929 . S
C4963 C4957 1.390 . S
C4963 C4960 1.386 . S
C4964 C4959 1.490 . S
C4964 C4966 1.395 . S
C4964 C4967 1.403 . S
H4965 C4971 0.930 . S
C4966 H4952 0.930 . S
C4966 C4964 1.395 . S
C4966 C4969 1.403 . S
C4967 C4964 1.403 . S
C4967 C4968 1.524 . S
C4967 C4971 1.400 . S
C4968 H4953 0.960 . S
C4968 H4954 0.960 . S
C4968 H4955 0.960 . S
C4968 C4967 1.524 . S
C4969 C4966 1.403 . S
C4969 C4970 1.392 . S
C4969 C4973 1.495 . S
C4970 C4969 1.392 . S
C4970 C4971 1.385 . S
C4970 C4972 1.478 . S
C4971 H4965 0.930 . S
C4971 C4967 1.400 . S
C4971 C4970 1.385 . S
C4972 C4970 1.478 . S
C4972 C4974 1.381 . S
C4972 C4978 1.383 . S
C4973 C4969 1.495 . S
C4973 H4979 0.959 . S
C4973 H4980 0.961 . S
C4973 H4981 0.960 . S
C4974 C4972 1.381 . S
C4974 C4975 1.394 . S
C4974 H4982 0.930 . S
C4975 C4974 1.394 . S
C4975 C4976 1.383 . S
C4975 H4983 0.929 . S
C4976 C4975 1.383 . S
C4976 C4977 1.377 . S
C4977 H4961 0.930 . S
C4977 C4976 1.377 . S
C4977 C4978 1.379 . S
C4978 H4962 0.931 . S
C4978 C4972 1.383 . S
C4978 C4977 1.379 . S
H4979 C4973 0.959 . S
H4980 C4973 0.961 . S
H4981 C4973 0.960 . S
H4982 C4974 0.930 . S
H4983 C4975 0.929 . S
H4984 C4992 0.929 . S
H4985 C4994 0.930 . S
H4986 C4996 0.930 . S
H4987 C4999 0.929 . S
H4988 C5002 0.930 . S
H4989 C5004 0.960 . S
H4990 C5004 0.960 . S
H4991 C5004 0.960 . S
C4992 H4984 0.929 . S
C4992 C4993 1.377 . S
C4992 C4994 1.384 . S
C4993 C4992 1.377 . S
C4993 C4999 1.390 . S
C4994 H4985 0.930 . S
C4994 C4992 1.384 . S
C4994 C4995 1.372 . S
C4995 C4994 1.372 . S
C4995 C4996 1.400 . S
C4995 C5000 1.490 . S
C4996 H4986 0.930 . S
C4996 C4995 1.400 . S
C4996 C4999 1.386 . S
H4997 C5013 0.930 . S
H4998 C5014 0.931 . S
C4999 H4987 0.929 . S
C4999 C4993 1.390 . S
C4999 C4996 1.386 . S
C5000 C4995 1.490 . S
C5000 C5002 1.395 . S
C5000 C5003 1.403 . S
H5001 C5007 0.930 . S
C5002 H4988 0.930 . S
C5002 C5000 1.395 . S
C5002 C5005 1.403 . S
C5003 C5000 1.403 . S
C5003 C5004 1.524 . S
C5003 C5007 1.400 . S
C5004 H4989 0.960 . S
C5004 H4990 0.960 . S
C5004 H4991 0.960 . S
C5004 C5003 1.524 . S
C5005 C5002 1.403 . S
C5005 C5006 1.392 . S
C5005 C5009 1.495 . S
C5006 C5005 1.392 . S
C5006 C5007 1.385 . S
C5006 C5008 1.478 . S
C5007 H5001 0.930 . S
C5007 C5003 1.400 . S
C5007 C5006 1.385 . S
C5008 C5006 1.478 . S
C5008 C5010 1.381 . S
C5008 C5014 1.383 . S
C5009 C5005 1.495 . S
C5009 H5015 0.959 . S
C5009 H5016 0.961 . S
C5009 H5017 0.960 . S
C5010 C5008 1.381 . S
C5010 C5011 1.394 . S
C5010 H5018 0.930 . S
C5011 C5010 1.394 . S
C5011 C5012 1.383 . S
C5011 H5019 0.929 . S
C5012 C5011 1.383 . S
C5012 C5013 1.377 . S
C5013 H4997 0.930 . S
C5013 C5012 1.377 . S
C5013 C5014 1.379 . S
C5014 H4998 0.931 . S
C5014 C5008 1.383 . S
C5014 C5013 1.379 . S
H5015 C5009 0.959 . S
H5016 C5009 0.961 . S
H5017 C5009 0.960 . S
H5018 C5010 0.930 . S
H5019 C5011 0.929 . S
H5020 C5028 0.929 . S
H5021 C5030 0.930 . S
H5022 C5032 0.930 . S
H5023 C5035 0.929 . S
H5024 C5038 0.930 . S
H5025 C5040 0.960 . S
H5026 C5040 0.960 . S
H5027 C5040 0.960 . S
C5028 H5020 0.929 . S
C5028 C5029 1.377 . S
C5028 C5030 1.384 . S
C5029 C5028 1.377 . S
C5029 C5035 1.390 . S
C5030 H5021 0.930 . S
C5030 C5028 1.384 . S
C5030 C5031 1.372 . S
C5031 C5030 1.372 . S
C5031 C5032 1.400 . S
C5031 C5036 1.490 . S
C5032 H5022 0.930 . S
C5032 C5031 1.400 . S
C5032 C5035 1.386 . S
H5033 C5049 0.930 . S
H5034 C5050 0.931 . S
C5035 H5023 0.929 . S
C5035 C5029 1.390 . S
C5035 C5032 1.386 . S
C5036 C5031 1.490 . S
C5036 C5038 1.395 . S
C5036 C5039 1.403 . S
H5037 C5043 0.930 . S
C5038 H5024 0.930 . S
C5038 C5036 1.395 . S
C5038 C5041 1.403 . S
C5039 C5036 1.403 . S
C5039 C5040 1.524 . S
C5039 C5043 1.400 . S
C5040 H5025 0.960 . S
C5040 H5026 0.960 . S
C5040 H5027 0.960 . S
C5040 C5039 1.524 . S
C5041 C5038 1.403 . S
C5041 C5042 1.392 . S
C5041 C5045 1.495 . S
C5042 C5041 1.392 . S
C5042 C5043 1.385 . S
C5042 C5044 1.478 . S
C5043 H5037 0.930 . S
C5043 C5039 1.400 . S
C5043 C5042 1.385 . S
C5044 C5042 1.478 . S
C5044 C5046 1.381 . S
C5044 C5050 1.383 . S
C5045 C5041 1.495 . S
C5045 H5051 0.959 . S
C5045 H5052 0.961 . S
C5045 H5053 0.960 . S
C5046 C5044 1.381 . S
C5046 C5047 1.394 . S
C5046 H5054 0.930 . S
C5047 C5046 1.394 . S
C5047 C5048 1.383 . S
C5047 H5055 0.929 . S
C5048 C5047 1.383 . S
C5048 C5049 1.377 . S
C5049 H5033 0.930 . S
C5049 C5048 1.377 . S
C5049 C5050 1.379 . S
C5050 H5034 0.931 . S
C5050 C5044 1.383 . S
C5050 C5049 1.379 . S
H5051 C5045 0.959 . S
H5052 C5045 0.961 . S
H5053 C5045 0.960 . S
H5054 C5046 0.930 . S
H5055 C5047 0.929 . S
H5056 C5064 0.929 . S
H5057 C5066 0.930 . S
H5058 C5068 0.930 . S
H5059 C5071 0.929 . S
H5060 C5074 0.930 . S
H5061 C5076 0.960 . S
H5062 C5076 0.960 . S
H5063 C5076 0.960 . S
C5064 H5056 0.929 . S
C5064 C5065 1.377 . S
C5064 C5066 1.384 . S
C5065 C5064 1.377 . S
C5065 C5071 1.390 . S
C5066 H5057 0.930 . S
C5066 C5064 1.384 . S
C5066 C5067 1.372 . S
C5067 C5066 1.372 . S
C5067 C5068 1.400 . S
C5067 C5072 1.490 . S
C5068 H5058 0.930 . S
C5068 C5067 1.400 . S
C5068 C5071 1.386 . S
H5069 C5085 0.930 . S
H5070 C5086 0.931 . S
C5071 H5059 0.929 . S
C5071 C5065 1.390 . S
C5071 C5068 1.386 . S
C5072 C5067 1.490 . S
C5072 C5074 1.395 . S
C5072 C5075 1.403 . S
H5073 C5079 0.930 . S
C5074 H5060 0.930 . S
C5074 C5072 1.395 . S
C5074 C5077 1.403 . S
C5075 C5072 1.403 . S
C5075 C5076 1.524 . S
C5075 C5079 1.400 . S
C5076 H5061 0.960 . S
C5076 H5062 0.960 . S
C5076 H5063 0.960 . S
C5076 C5075 1.524 . S
C5077 C5074 1.403 . S
C5077 C5078 1.392 . S
C5077 C5081 1.495 . S
C5078 C5077 1.392 . S
C5078 C5079 1.385 . S
C5078 C5080 1.478 . S
C5079 H5073 0.930 . S
C5079 C5075 1.400 . S
C5079 C5078 1.385 . S
C5080 C5078 1.478 . S
C5080 C5082 1.381 . S
C5080 C5086 1.383 . S
C5081 C5077 1.495 . S
C5081 H5087 0.959 . S
C5081 H5088 0.961 . S
C5081 H5089 0.960 . S
C5082 C5080 1.381 . S
C5082 C5083 1.394 . S
C5082 H5090 0.930 . S
C5083 C5082 1.394 . S
C5083 C5084 1.383 . S
C5083 H5091 0.929 . S
C5084 C5083 1.383 . S
C5084 C5085 1.377 . S
C5085 H5069 0.930 . S
C5085 C5084 1.377 . S
C5085 C5086 1.379 . S
C5086 H5070 0.931 . S
C5086 C5080 1.383 . S
C5086 C5085 1.379 . S
H5087 C5081 0.959 . S
H5088 C5081 0.961 . S
H5089 C5081 0.960 . S
H5090 C5082 0.930 . S
H5091 C5083 0.929 . S
H5092 C5100 0.929 . S
H5093 C5102 0.930 . S
H5094 C5104 0.930 . S
H5095 C5107 0.929 . S
H5096 C5110 0.930 . S
H5097 C5112 0.960 . S
H5098 C5112 0.960 . S
H5099 C5112 0.960 . S
C5100 H5092 0.929 . S
C5100 C5101 1.377 . S
C5100 C5102 1.384 . S
C5101 C5100 1.377 . S
C5101 C5107 1.390 . S
C5102 H5093 0.930 . S
C5102 C5100 1.384 . S
C5102 C5103 1.372 . S
C5103 C5102 1.372 . S
C5103 C5104 1.400 . S
C5103 C5108 1.490 . S
C5104 H5094 0.930 . S
C5104 C5103 1.400 . S
C5104 C5107 1.386 . S
H5105 C5121 0.930 . S
H5106 C5122 0.931 . S
C5107 H5095 0.929 . S
C5107 C5101 1.390 . S
C5107 C5104 1.386 . S
C5108 C5103 1.490 . S
C5108 C5110 1.395 . S
C5108 C5111 1.403 . S
H5109 C5115 0.930 . S
C5110 H5096 0.930 . S
C5110 C5108 1.395 . S
C5110 C5113 1.403 . S
C5111 C5108 1.403 . S
C5111 C5112 1.524 . S
C5111 C5115 1.400 . S
C5112 H5097 0.960 . S
C5112 H5098 0.960 . S
C5112 H5099 0.960 . S
C5112 C5111 1.524 . S
C5113 C5110 1.403 . S
C5113 C5114 1.392 . S
C5113 C5117 1.495 . S
C5114 C5113 1.392 . S
C5114 C5115 1.385 . S
C5114 C5116 1.478 . S
C5115 H5109 0.930 . S
C5115 C5111 1.400 . S
C5115 C5114 1.385 . S
C5116 C5114 1.478 . S
C5116 C5118 1.381 . S
C5116 C5122 1.383 . S
C5117 C5113 1.495 . S
C5117 H5123 0.959 . S
C5117 H5124 0.961 . S
C5117 H5125 0.960 . S
C5118 C5116 1.381 . S
C5118 C5119 1.394 . S
C5118 H5126 0.930 . S
C5119 C5118 1.394 . S
C5119 C5120 1.383 . S
C5119 H5127 0.929 . S
C5120 C5119 1.383 . S
C5120 C5121 1.377 . S
C5121 H5105 0.930 . S
C5121 C5120 1.377 . S
C5121 C5122 1.379 . S
C5122 H5106 0.931 . S
C5122 C5116 1.383 . S
C5122 C5121 1.379 . S
H5123 C5117 0.959 . S
H5124 C5117 0.961 . S
H5125 C5117 0.960 . S
H5126 C5118 0.930 . S
H5127 C5119 0.929 . S
H5128 C5136 0.929 . S
H5129 C5138 0.930 . S
H5130 C5140 0.930 . S
H5131 C5143 0.929 . S
H5132 C5146 0.930 . S
H5133 C5148 0.960 . S
H5134 C5148 0.960 . S
H5135 C5148 0.960 . S
C5136 H5128 0.929 . S
C5136 C5137 1.377 . S
C5136 C5138 1.384 . S
C5137 C5136 1.377 . S
C5137 C5143 1.390 . S
C5138 H5129 0.930 . S
C5138 C5136 1.384 . S
C5138 C5139 1.372 . S
C5139 C5138 1.372 . S
C5139 C5140 1.400 . S
C5139 C5144 1.490 . S
C5140 H5130 0.930 . S
C5140 C5139 1.400 . S
C5140 C5143 1.386 . S
H5141 C5157 0.930 . S
H5142 C5158 0.931 . S
C5143 H5131 0.929 . S
C5143 C5137 1.390 . S
C5143 C5140 1.386 . S
C5144 C5139 1.490 . S
C5144 C5146 1.395 . S
C5144 C5147 1.403 . S
H5145 C5151 0.930 . S
C5146 H5132 0.930 . S
C5146 C5144 1.395 . S
C5146 C5149 1.403 . S
C5147 C5144 1.403 . S
C5147 C5148 1.524 . S
C5147 C5151 1.400 . S
C5148 H5133 0.960 . S
C5148 H5134 0.960 . S
C5148 H5135 0.960 . S
C5148 C5147 1.524 . S
C5149 C5146 1.403 . S
C5149 C5150 1.392 . S
C5149 C5153 1.495 . S
C5150 C5149 1.392 . S
C5150 C5151 1.385 . S
C5150 C5152 1.478 . S
C5151 H5145 0.930 . S
C5151 C5147 1.400 . S
C5151 C5150 1.385 . S
C5152 C5150 1.478 . S
C5152 C5154 1.381 . S
C5152 C5158 1.383 . S
C5153 C5149 1.495 . S
C5153 H5159 0.959 . S
C5153 H5160 0.961 . S
C5153 H5161 0.960 . S
C5154 C5152 1.381 . S
C5154 C5155 1.394 . S
C5154 H5162 0.930 . S
C5155 C5154 1.394 . S
C5155 C5156 1.383 . S
C5155 H5163 0.929 . S
C5156 C5155 1.383 . S
C5156 C5157 1.377 . S
C5157 H5141 0.930 . S
C5157 C5156 1.377 . S
C5157 C5158 1.379 . S
C5158 H5142 0.931 . S
C5158 C5152 1.383 . S
C5158 C5157 1.379 . S
H5159 C5153 0.959 . S
H5160 C5153 0.961 . S
H5161 C5153 0.960 . S
H5162 C5154 0.930 . S
H5163 C5155 0.929 . S
H5164 C5172 0.929 . S
H5165 C5174 0.930 . S
H5166 C5176 0.930 1_556 S
H5167 C5179 0.935 1_556 S
H5168 C5182 0.930 . S
H5169 C5184 0.960 1_556 S
H5170 C5184 0.960 . S
H5171 C5184 0.960 1_566 S
C5172 H5164 0.929 . S
C5172 C5173 1.377 . S
C5172 C5174 1.384 . S
C5173 C5172 1.377 . S
C5173 C5179 1.390 . S
C5174 H5165 0.930 . S
C5174 C5172 1.384 . S
C5174 C5175 1.372 . S
C5175 C5174 1.372 . S
C5175 C5176 1.400 . S
C5175 C5180 1.490 . S
C5176 H5166 0.930 1_554 S
C5176 C5175 1.400 . S
C5176 C5179 1.386 . S
H5177 C5193 0.964 . S
H5178 C5194 0.929 1_566 S
C5179 H5167 0.935 1_554 S
C5179 C5173 1.390 . S
C5179 C5176 1.386 . S
C5180 C5175 1.490 . S
C5180 C5182 1.395 . S
C5180 C5183 1.459 . S
H5181 C5187 0.930 . S
C5182 H5168 0.930 . S
C5182 C5180 1.395 . S
C5182 C5185 1.403 . S
C5183 C5180 1.459 . S
C5183 C5184 1.474 1_565 S
C5183 C5187 1.397 1_565 S
C5184 H5169 0.960 1_554 S
C5184 H5170 0.960 . S
C5184 H5171 0.960 1_544 S
C5184 C5183 1.474 1_545 S
C5185 C5182 1.403 . S
C5185 C5186 1.392 . S
C5185 C5189 1.495 . S
C5186 C5185 1.392 . S
C5186 C5187 1.385 1_565 S
C5186 C5188 1.478 1_565 S
C5187 H5181 0.930 . S
C5187 C5183 1.397 1_545 S
C5187 C5186 1.385 1_545 S
C5188 C5186 1.478 1_545 S
C5188 C5190 1.381 . S
C5188 C5194 1.383 . S
C5189 C5185 1.495 . S
C5189 H5195 0.959 . S
C5189 H5196 0.961 . S
C5189 H5197 0.960 . S
C5190 C5188 1.381 . S
C5190 C5191 1.394 . S
C5190 H5198 0.930 . S
C5191 C5190 1.394 . S
C5191 C5192 1.383 . S
C5191 H5199 0.929 . S
C5192 C5191 1.383 . S
C5192 C5193 1.354 1_554 S
C5193 H5177 0.964 . S
C5193 C5192 1.354 1_556 S
C5193 C5194 1.370 1_556 S
C5194 H5178 0.929 1_544 S
C5194 C5188 1.383 . S
C5194 C5193 1.370 1_554 S
H5195 C5189 0.959 . S
H5196 C5189 0.961 . S
H5197 C5189 0.960 . S
H5198 C5190 0.930 . S
H5199 C5191 0.929 . S
H5200 C5208 0.929 . S
H5201 C5210 0.930 . S
H5202 C5212 0.930 . S
H5203 C5215 0.929 . S
H5204 C5218 0.930 . S
H5205 C5220 0.960 . S
H5206 C5220 0.960 . S
H5207 C5220 0.960 . S
C5208 H5200 0.929 . S
C5208 C5209 1.377 . S
C5208 C5210 1.384 . S
C5209 C5208 1.377 . S
C5209 C5215 1.390 . S
C5210 H5201 0.930 . S
C5210 C5208 1.384 . S
C5210 C5211 1.372 . S
C5211 C5210 1.372 . S
C5211 C5212 1.400 . S
C5211 C5216 1.490 . S
C5212 H5202 0.930 . S
C5212 C5211 1.400 . S
C5212 C5215 1.386 . S
H5213 C5229 0.930 . S
H5214 C5230 0.931 . S
C5215 H5203 0.929 . S
C5215 C5209 1.390 . S
C5215 C5212 1.386 . S
C5216 C5211 1.490 . S
C5216 C5218 1.395 . S
C5216 C5219 1.403 . S
H5217 C5223 0.930 . S
C5218 H5204 0.930 . S
C5218 C5216 1.395 . S
C5218 C5221 1.403 . S
C5219 C5216 1.403 . S
C5219 C5220 1.524 . S
C5219 C5223 1.400 . S
C5220 H5205 0.960 . S
C5220 H5206 0.960 . S
C5220 H5207 0.960 . S
C5220 C5219 1.524 . S
C5221 C5218 1.403 . S
C5221 C5222 1.392 . S
C5221 C5225 1.495 . S
C5222 C5221 1.392 . S
C5222 C5223 1.385 . S
C5222 C5224 1.478 . S
C5223 H5217 0.930 . S
C5223 C5219 1.400 . S
C5223 C5222 1.385 . S
C5224 C5222 1.478 . S
C5224 C5226 1.381 . S
C5224 C5230 1.383 . S
C5225 C5221 1.495 . S
C5225 H5231 0.959 . S
C5225 H5232 0.961 . S
C5225 H5233 0.960 . S
C5226 C5224 1.381 . S
C5226 C5227 1.394 . S
C5226 H5234 0.930 . S
C5227 C5226 1.394 . S
C5227 C5228 1.383 . S
C5227 H5235 0.929 . S
C5228 C5227 1.383 . S
C5228 C5229 1.377 . S
C5229 H5213 0.930 . S
C5229 C5228 1.377 . S
C5229 C5230 1.379 . S
C5230 H5214 0.931 . S
C5230 C5224 1.383 . S
C5230 C5229 1.379 . S
H5231 C5225 0.959 . S
H5232 C5225 0.961 . S
H5233 C5225 0.960 . S
H5234 C5226 0.930 . S
H5235 C5227 0.929 . S
H5236 C5244 0.929 . S
H5237 C5246 0.930 . S
H5238 C5248 0.930 . S
H5239 C5251 0.929 . S
H5240 C5254 0.930 . S
H5241 C5256 0.960 . S
H5242 C5256 0.960 . S
H5243 C5256 0.960 . S
C5244 H5236 0.929 . S
C5244 C5245 1.377 . S
C5244 C5246 1.384 . S
C5245 C5244 1.377 . S
C5245 C5251 1.390 1_554 S
C5246 H5237 0.930 . S
C5246 C5244 1.384 . S
C5246 C5247 1.372 . S
C5247 C5246 1.372 . S
C5247 C5248 1.400 1_554 S
C5247 C5252 1.490 . S
C5248 H5238 0.930 . S
C5248 C5247 1.400 1_556 S
C5248 C5251 1.386 . S
H5249 C5265 0.930 . S
H5250 C5266 0.931 . S
C5251 H5239 0.929 . S
C5251 C5245 1.390 1_556 S
C5251 C5248 1.386 . S
C5252 C5247 1.490 . S
C5252 C5254 1.395 . S
C5252 C5255 1.403 . S
H5253 C5259 0.930 . S
C5254 H5240 0.930 . S
C5254 C5252 1.395 . S
C5254 C5257 1.403 . S
C5255 C5252 1.403 . S
C5255 C5256 1.524 . S
C5255 C5259 1.400 . S
C5256 H5241 0.960 . S
C5256 H5242 0.960 . S
C5256 H5243 0.960 . S
C5256 C5255 1.524 . S
C5257 C5254 1.403 . S
C5257 C5258 1.392 . S
C5257 C5261 1.495 . S
C5258 C5257 1.392 . S
C5258 C5259 1.385 . S
C5258 C5260 1.478 . S
C5259 H5253 0.930 . S
C5259 C5255 1.400 . S
C5259 C5258 1.385 . S
C5260 C5258 1.478 . S
C5260 C5262 1.381 . S
C5260 C5266 1.383 . S
C5261 C5257 1.495 . S
C5261 H5267 0.959 . S
C5261 H5268 0.961 . S
C5261 H5269 0.960 . S
C5262 C5260 1.381 . S
C5262 C5263 1.394 . S
C5262 H5270 0.930 . S
C5263 C5262 1.394 . S
C5263 C5264 1.383 . S
C5263 H5271 0.929 . S
C5264 C5263 1.383 . S
C5264 C5265 1.377 . S
C5265 H5249 0.930 . S
C5265 C5264 1.377 . S
C5265 C5266 1.379 . S
C5266 H5250 0.931 . S
C5266 C5260 1.383 . S
C5266 C5265 1.379 . S
H5267 C5261 0.959 . S
H5268 C5261 0.961 . S
H5269 C5261 0.960 . S
H5270 C5262 0.930 . S
H5271 C5263 0.929 . S
H5272 C5280 0.929 . S
H5273 C5282 0.930 . S
H5274 C5284 0.930 . S
H5275 C5287 0.929 . S
H5276 C5290 0.930 . S
H5277 C5292 0.960 . S
H5278 C5292 0.960 . S
H5279 C5292 0.960 . S
C5280 H5272 0.929 . S
C5280 C5281 1.377 . S
C5280 C5282 1.384 . S
C5281 C5280 1.377 . S
C5281 C5287 1.390 . S
C5282 H5273 0.930 . S
C5282 C5280 1.384 . S
C5282 C5283 1.372 . S
C5283 C5282 1.372 . S
C5283 C5284 1.400 . S
C5283 C5288 1.490 . S
C5284 H5274 0.930 . S
C5284 C5283 1.400 . S
C5284 C5287 1.386 . S
H5285 C5301 0.930 . S
H5286 C5302 0.931 . S
C5287 H5275 0.929 . S
C5287 C5281 1.390 . S
C5287 C5284 1.386 . S
C5288 C5283 1.490 . S
C5288 C5290 1.395 . S
C5288 C5291 1.403 . S
H5289 C5295 0.930 . S
C5290 H5276 0.930 . S
C5290 C5288 1.395 . S
C5290 C5293 1.403 . S
C5291 C5288 1.403 . S
C5291 C5292 1.524 . S
C5291 C5295 1.400 . S
C5292 H5277 0.960 . S
C5292 H5278 0.960 . S
C5292 H5279 0.960 . S
C5292 C5291 1.524 . S
C5293 C5290 1.403 . S
C5293 C5294 1.392 . S
C5293 C5297 1.495 . S
C5294 C5293 1.392 . S
C5294 C5295 1.385 . S
C5294 C5296 1.478 . S
C5295 H5289 0.930 . S
C5295 C5291 1.400 . S
C5295 C5294 1.385 . S
C5296 C5294 1.478 . S
C5296 C5298 1.381 . S
C5296 C5302 1.383 . S
C5297 C5293 1.495 . S
C5297 H5303 0.959 . S
C5297 H5304 0.961 . S
C5297 H5305 0.960 . S
C5298 C5296 1.381 . S
C5298 C5299 1.394 . S
C5298 H5306 0.930 . S
C5299 C5298 1.394 . S
C5299 C5300 1.383 . S
C5299 H5307 0.929 . S
C5300 C5299 1.383 . S
C5300 C5301 1.377 . S
C5301 H5285 0.930 . S
C5301 C5300 1.377 . S
C5301 C5302 1.379 . S
C5302 H5286 0.931 . S
C5302 C5296 1.383 . S
C5302 C5301 1.379 . S
H5303 C5297 0.959 . S
H5304 C5297 0.961 . S
H5305 C5297 0.960 . S
H5306 C5298 0.930 . S
H5307 C5299 0.929 . S
H5308 C5316 0.929 . S
H5309 C5318 0.930 . S
H5310 C5320 0.930 . S
H5311 C5323 0.929 . S
H5312 C5326 0.930 . S
H5313 C5328 0.960 . S
H5314 C5328 0.960 . S
H5315 C5328 0.960 . S
C5316 H5308 0.929 . S
C5316 C5317 1.377 . S
C5316 C5318 1.384 . S
C5317 C5316 1.377 . S
C5317 C5323 1.390 . S
C5318 H5309 0.930 . S
C5318 C5316 1.384 . S
C5318 C5319 1.372 . S
C5319 C5318 1.372 . S
C5319 C5320 1.400 . S
C5319 C5324 1.490 . S
C5320 H5310 0.930 . S
C5320 C5319 1.400 . S
C5320 C5323 1.386 . S
H5321 C5337 0.930 . S
H5322 C5338 0.931 . S
C5323 H5311 0.929 . S
C5323 C5317 1.390 . S
C5323 C5320 1.386 . S
C5324 C5319 1.490 . S
C5324 C5326 1.395 . S
C5324 C5327 1.403 . S
H5325 C5331 0.930 . S
C5326 H5312 0.930 . S
C5326 C5324 1.395 . S
C5326 C5329 1.403 . S
C5327 C5324 1.403 . S
C5327 C5328 1.524 . S
C5327 C5331 1.400 . S
C5328 H5313 0.960 . S
C5328 H5314 0.960 . S
C5328 H5315 0.960 . S
C5328 C5327 1.524 . S
C5329 C5326 1.403 . S
C5329 C5330 1.392 . S
C5329 C5333 1.495 . S
C5330 C5329 1.392 . S
C5330 C5331 1.385 . S
C5330 C5332 1.478 . S
C5331 H5325 0.930 . S
C5331 C5327 1.400 . S
C5331 C5330 1.385 . S
C5332 C5330 1.478 . S
C5332 C5334 1.381 . S
C5332 C5338 1.383 . S
C5333 C5329 1.495 . S
C5333 H5339 0.959 . S
C5333 H5340 0.961 . S
C5333 H5341 0.960 . S
C5334 C5332 1.381 . S
C5334 C5335 1.394 . S
C5334 H5342 0.930 . S
C5335 C5334 1.394 . S
C5335 C5336 1.383 . S
C5335 H5343 0.929 . S
C5336 C5335 1.383 . S
C5336 C5337 1.377 . S
C5337 H5321 0.930 . S
C5337 C5336 1.377 . S
C5337 C5338 1.379 . S
C5338 H5322 0.931 . S
C5338 C5332 1.383 . S
C5338 C5337 1.379 . S
H5339 C5333 0.959 . S
H5340 C5333 0.961 . S
H5341 C5333 0.960 . S
H5342 C5334 0.930 . S
H5343 C5335 0.929 . S
H5344 C5352 0.929 . S
H5345 C5354 0.930 . S
H5346 C5356 0.930 . S
H5347 C5359 0.929 . S
H5348 C5362 0.930 . S
H5349 C5364 0.960 . S
H5350 C5364 0.960 . S
H5351 C5364 0.960 . S
C5352 H5344 0.929 . S
C5352 C5353 1.377 . S
C5352 C5354 1.384 . S
C5353 C5352 1.377 . S
C5353 C5359 1.390 . S
C5354 H5345 0.930 . S
C5354 C5352 1.384 . S
C5354 C5355 1.372 . S
C5355 C5354 1.372 . S
C5355 C5356 1.400 . S
C5355 C5360 1.490 . S
C5356 H5346 0.930 . S
C5356 C5355 1.400 . S
C5356 C5359 1.386 . S
H5357 C5373 0.930 . S
H5358 C5374 0.931 . S
C5359 H5347 0.929 . S
C5359 C5353 1.390 . S
C5359 C5356 1.386 . S
C5360 C5355 1.490 . S
C5360 C5362 1.395 . S
C5360 C5363 1.403 . S
H5361 C5367 0.930 . S
C5362 H5348 0.930 . S
C5362 C5360 1.395 . S
C5362 C5365 1.403 . S
C5363 C5360 1.403 . S
C5363 C5364 1.524 . S
C5363 C5367 1.400 . S
C5364 H5349 0.960 . S
C5364 H5350 0.960 . S
C5364 H5351 0.960 . S
C5364 C5363 1.524 . S
C5365 C5362 1.403 . S
C5365 C5366 1.392 . S
C5365 C5369 1.495 . S
C5366 C5365 1.392 . S
C5366 C5367 1.385 . S
C5366 C5368 1.478 . S
C5367 H5361 0.930 . S
C5367 C5363 1.400 . S
C5367 C5366 1.385 . S
C5368 C5366 1.478 . S
C5368 C5370 1.381 . S
C5368 C5374 1.383 . S
C5369 C5365 1.495 . S
C5369 H5375 0.959 . S
C5369 H5376 0.961 . S
C5369 H5377 0.960 . S
C5370 C5368 1.381 . S
C5370 C5371 1.394 . S
C5370 H5378 0.930 . S
C5371 C5370 1.394 . S
C5371 C5372 1.383 . S
C5371 H5379 0.929 . S
C5372 C5371 1.383 . S
C5372 C5373 1.377 . S
C5373 H5357 0.930 . S
C5373 C5372 1.377 . S
C5373 C5374 1.379 . S
C5374 H5358 0.931 . S
C5374 C5368 1.383 . S
C5374 C5373 1.379 . S
H5375 C5369 0.959 . S
H5376 C5369 0.961 . S
H5377 C5369 0.960 . S
H5378 C5370 0.930 . S
H5379 C5371 0.929 . S
H5380 C5388 0.929 . S
H5381 C5390 0.930 . S
H5382 C5392 0.930 . S
H5383 C5395 0.929 . S
H5384 C5398 0.930 . S
H5385 C5400 0.960 . S
H5386 C5400 0.960 . S
H5387 C5400 0.960 . S
C5388 H5380 0.929 . S
C5388 C5389 1.377 . S
C5388 C5390 1.384 . S
C5389 C5388 1.377 . S
C5389 C5395 1.390 . S
C5390 H5381 0.930 . S
C5390 C5388 1.384 . S
C5390 C5391 1.372 . S
C5391 C5390 1.372 . S
C5391 C5392 1.400 . S
C5391 C5396 1.490 . S
C5392 H5382 0.930 . S
C5392 C5391 1.400 . S
C5392 C5395 1.386 . S
H5393 C5409 0.930 . S
H5394 C5410 0.931 . S
C5395 H5383 0.929 . S
C5395 C5389 1.390 . S
C5395 C5392 1.386 . S
C5396 C5391 1.490 . S
C5396 C5398 1.395 . S
C5396 C5399 1.403 . S
H5397 C5403 0.930 . S
C5398 H5384 0.930 . S
C5398 C5396 1.395 . S
C5398 C5401 1.403 . S
C5399 C5396 1.403 . S
C5399 C5400 1.524 . S
C5399 C5403 1.400 . S
C5400 H5385 0.960 . S
C5400 H5386 0.960 . S
C5400 H5387 0.960 . S
C5400 C5399 1.524 . S
C5401 C5398 1.403 . S
C5401 C5402 1.392 . S
C5401 C5405 1.495 . S
C5402 C5401 1.392 . S
C5402 C5403 1.385 . S
C5402 C5404 1.478 . S
C5403 H5397 0.930 . S
C5403 C5399 1.400 . S
C5403 C5402 1.385 . S
C5404 C5402 1.478 . S
C5404 C5406 1.381 . S
C5404 C5410 1.383 . S
C5405 C5401 1.495 . S
C5405 H5411 0.959 . S
C5405 H5412 0.961 . S
C5405 H5413 0.960 . S
C5406 C5404 1.381 . S
C5406 C5407 1.394 . S
C5406 H5414 0.930 . S
C5407 C5406 1.394 . S
C5407 C5408 1.383 . S
C5407 H5415 0.929 . S
C5408 C5407 1.383 . S
C5408 C5409 1.377 . S
C5409 H5393 0.930 . S
C5409 C5408 1.377 . S
C5409 C5410 1.379 . S
C5410 H5394 0.931 . S
C5410 C5404 1.383 . S
C5410 C5409 1.379 . S
H5411 C5405 0.959 . S
H5412 C5405 0.961 . S
H5413 C5405 0.960 . S
H5414 C5406 0.930 . S
H5415 C5407 0.929 . S
H5416 C5424 0.929 . S
H5417 C5426 0.930 . S
H5418 C5428 0.930 . S
H5419 C5431 0.929 . S
H5420 C5434 0.930 . S
H5421 C5436 0.960 1_556 S
H5422 C5436 0.960 . S
H5423 C5436 0.960 . S
C5424 H5416 0.929 . S
C5424 C5425 1.377 . S
C5424 C5426 1.384 . S
C5425 C5424 1.377 . S
C5425 C5431 1.390 . S
C5426 H5417 0.930 . S
C5426 C5424 1.384 . S
C5426 C5427 1.372 . S
C5427 C5426 1.372 . S
C5427 C5428 1.400 . S
C5427 C5432 1.490 . S
C5428 H5418 0.930 . S
C5428 C5427 1.400 . S
C5428 C5431 1.386 . S
H5429 C5445 0.930 . S
H5430 C5446 0.931 . S
C5431 H5419 0.929 . S
C5431 C5425 1.390 . S
C5431 C5428 1.386 . S
C5432 C5427 1.490 . S
C5432 C5434 1.395 . S
C5432 C5435 1.403 . S
H5433 C5439 0.930 . S
C5434 H5420 0.930 . S
C5434 C5432 1.395 . S
C5434 C5437 1.403 . S
C5435 C5432 1.403 . S
C5435 C5436 1.524 . S
C5435 C5439 1.400 . S
C5436 H5421 0.960 1_554 S
C5436 H5422 0.960 . S
C5436 H5423 0.960 . S
C5436 C5435 1.524 . S
C5437 C5434 1.403 . S
C5437 C5438 1.392 . S
C5437 C5441 1.495 . S
C5438 C5437 1.392 . S
C5438 C5439 1.385 . S
C5438 C5440 1.478 . S
C5439 H5433 0.930 . S
C5439 C5435 1.400 . S
C5439 C5438 1.385 . S
C5440 C5438 1.478 . S
C5440 C5442 1.381 . S
C5440 C5446 1.383 . S
C5441 C5437 1.495 . S
C5441 H5447 0.959 . S
C5441 H5448 0.961 . S
C5441 H5449 0.960 . S
C5442 C5440 1.381 . S
C5442 C5443 1.394 . S
C5442 H5450 0.930 . S
C5443 C5442 1.394 . S
C5443 C5444 1.383 . S
C5443 H5451 0.929 . S
C5444 C5443 1.383 . S
C5444 C5445 1.377 . S
C5445 H5429 0.930 . S
C5445 C5444 1.377 . S
C5445 C5446 1.379 . S
C5446 H5430 0.931 . S
C5446 C5440 1.383 . S
C5446 C5445 1.379 . S
H5447 C5441 0.959 . S
H5448 C5441 0.961 . S
H5449 C5441 0.960 . S
H5450 C5442 0.930 . S
H5451 C5443 0.929 . S
H5452 C5460 0.929 . S
H5453 C5462 0.930 . S
H5454 C5464 0.930 . S
H5455 C5467 0.929 . S
H5456 C5470 0.930 . S
H5457 C5472 0.960 . S
H5458 C5472 0.960 . S
H5459 C5472 0.960 . S
C5460 H5452 0.929 . S
C5460 C5461 1.377 . S
C5460 C5462 1.384 . S
C5461 C5460 1.377 . S
C5461 C5467 1.390 . S
C5462 H5453 0.930 . S
C5462 C5460 1.384 . S
C5462 C5463 1.372 . S
C5463 C5462 1.372 . S
C5463 C5464 1.400 . S
C5463 C5468 1.490 . S
C5464 H5454 0.930 . S
C5464 C5463 1.400 . S
C5464 C5467 1.386 . S
H5465 C5481 0.930 . S
H5466 C5482 0.931 . S
C5467 H5455 0.929 . S
C5467 C5461 1.390 . S
C5467 C5464 1.386 . S
C5468 C5463 1.490 . S
C5468 C5470 1.395 . S
C5468 C5471 1.403 . S
H5469 C5475 0.930 . S
C5470 H5456 0.930 . S
C5470 C5468 1.395 . S
C5470 C5473 1.403 . S
C5471 C5468 1.403 . S
C5471 C5472 1.524 . S
C5471 C5475 1.400 . S
C5472 H5457 0.960 . S
C5472 H5458 0.960 . S
C5472 H5459 0.960 . S
C5472 C5471 1.524 . S
C5473 C5470 1.403 . S
C5473 C5474 1.392 . S
C5473 C5477 1.495 . S
C5474 C5473 1.392 . S
C5474 C5475 1.385 . S
C5474 C5476 1.478 . S
C5475 H5469 0.930 . S
C5475 C5471 1.400 . S
C5475 C5474 1.385 . S
C5476 C5474 1.478 . S
C5476 C5478 1.381 . S
C5476 C5482 1.383 . S
C5477 C5473 1.495 . S
C5477 H5483 0.959 . S
C5477 H5484 0.961 . S
C5477 H5485 0.960 . S
C5478 C5476 1.381 . S
C5478 C5479 1.394 . S
C5478 H5486 0.930 . S
C5479 C5478 1.394 . S
C5479 C5480 1.383 . S
C5479 H5487 0.929 . S
C5480 C5479 1.383 . S
C5480 C5481 1.377 . S
C5481 H5465 0.930 . S
C5481 C5480 1.377 . S
C5481 C5482 1.379 . S
C5482 H5466 0.931 . S
C5482 C5476 1.383 . S
C5482 C5481 1.379 . S
H5483 C5477 0.959 . S
H5484 C5477 0.961 . S
H5485 C5477 0.960 . S
H5486 C5478 0.930 . S
H5487 C5479 0.929 . S
H5488 C5496 0.929 . S
H5489 C5498 0.930 . S
H5490 C5500 0.930 . S
H5491 C5503 0.929 . S
H5492 C5506 0.930 . S
H5493 C5508 0.960 . S
H5494 C5508 0.960 . S
H5495 C5508 0.960 . S
C5496 H5488 0.929 . S
C5496 C5497 1.377 . S
C5496 C5498 1.384 . S
C5497 C5496 1.377 . S
C5497 C5503 1.390 . S
C5498 H5489 0.930 . S
C5498 C5496 1.384 . S
C5498 C5499 1.372 . S
C5499 C5498 1.372 . S
C5499 C5500 1.400 . S
C5499 C5504 1.490 . S
C5500 H5490 0.930 . S
C5500 C5499 1.400 . S
C5500 C5503 1.386 . S
H5501 C5517 0.930 . S
H5502 C5518 0.931 . S
C5503 H5491 0.929 . S
C5503 C5497 1.390 . S
C5503 C5500 1.386 . S
C5504 C5499 1.490 . S
C5504 C5506 1.395 . S
C5504 C5507 1.403 . S
H5505 C5511 0.930 . S
C5506 H5492 0.930 . S
C5506 C5504 1.395 . S
C5506 C5509 1.403 . S
C5507 C5504 1.403 . S
C5507 C5508 1.524 . S
C5507 C5511 1.400 . S
C5508 H5493 0.960 . S
C5508 H5494 0.960 . S
C5508 H5495 0.960 . S
C5508 C5507 1.524 . S
C5509 C5506 1.403 . S
C5509 C5510 1.392 . S
C5509 C5513 1.495 . S
C5510 C5509 1.392 . S
C5510 C5511 1.385 . S
C5510 C5512 1.478 . S
C5511 H5505 0.930 . S
C5511 C5507 1.400 . S
C5511 C5510 1.385 . S
C5512 C5510 1.478 . S
C5512 C5514 1.381 . S
C5512 C5518 1.383 . S
C5513 C5509 1.495 . S
C5513 H5519 0.959 . S
C5513 H5520 0.961 . S
C5513 H5521 0.960 . S
C5514 C5512 1.381 . S
C5514 C5515 1.394 . S
C5514 H5522 0.930 . S
C5515 C5514 1.394 . S
C5515 C5516 1.383 . S
C5515 H5523 0.929 . S
C5516 C5515 1.383 . S
C5516 C5517 1.377 . S
C5517 H5501 0.930 . S
C5517 C5516 1.377 . S
C5517 C5518 1.379 . S
C5518 H5502 0.931 . S
C5518 C5512 1.383 . S
C5518 C5517 1.379 . S
H5519 C5513 0.959 . S
H5520 C5513 0.961 . S
H5521 C5513 0.960 . S
H5522 C5514 0.930 . S
H5523 C5515 0.929 . S
H5524 C5532 0.929 . S
H5525 C5534 0.930 . S
H5526 C5536 0.930 . S
H5527 C5539 0.929 . S
H5528 C5542 0.930 . S
H5529 C5544 0.960 . S
H5530 C5544 0.960 . S
H5531 C5544 0.960 . S
C5532 H5524 0.929 . S
C5532 C5533 1.377 . S
C5532 C5534 1.384 . S
C5533 C5532 1.377 . S
C5533 C5539 1.390 . S
C5534 H5525 0.930 . S
C5534 C5532 1.384 . S
C5534 C5535 1.372 . S
C5535 C5534 1.372 . S
C5535 C5536 1.400 . S
C5535 C5540 1.490 . S
C5536 H5526 0.930 . S
C5536 C5535 1.400 . S
C5536 C5539 1.386 . S
H5537 C5553 0.930 . S
H5538 C5554 0.931 . S
C5539 H5527 0.929 . S
C5539 C5533 1.390 . S
C5539 C5536 1.386 . S
C5540 C5535 1.490 . S
C5540 C5542 1.395 . S
C5540 C5543 1.403 . S
H5541 C5547 0.930 . S
C5542 H5528 0.930 . S
C5542 C5540 1.395 . S
C5542 C5545 1.403 . S
C5543 C5540 1.403 . S
C5543 C5544 1.524 . S
C5543 C5547 1.400 . S
C5544 H5529 0.960 . S
C5544 H5530 0.960 . S
C5544 H5531 0.960 . S
C5544 C5543 1.524 . S
C5545 C5542 1.403 . S
C5545 C5546 1.392 . S
C5545 C5549 1.495 . S
C5546 C5545 1.392 . S
C5546 C5547 1.385 . S
C5546 C5548 1.478 . S
C5547 H5541 0.930 . S
C5547 C5543 1.400 . S
C5547 C5546 1.385 . S
C5548 C5546 1.478 . S
C5548 C5550 1.381 . S
C5548 C5554 1.383 . S
C5549 C5545 1.495 . S
C5549 H5555 0.959 . S
C5549 H5556 0.961 . S
C5549 H5557 0.960 . S
C5550 C5548 1.381 . S
C5550 C5551 1.394 . S
C5550 H5558 0.930 . S
C5551 C5550 1.394 . S
C5551 C5552 1.383 . S
C5551 H5559 0.929 . S
C5552 C5551 1.383 . S
C5552 C5553 1.377 . S
C5553 H5537 0.930 . S
C5553 C5552 1.377 . S
C5553 C5554 1.379 . S
C5554 H5538 0.931 . S
C5554 C5548 1.383 . S
C5554 C5553 1.379 . S
H5555 C5549 0.959 . S
H5556 C5549 0.961 . S
H5557 C5549 0.960 . S
H5558 C5550 0.930 . S
H5559 C5551 0.929 . S
H5560 C5568 0.929 . S
H5561 C5570 0.930 . S
H5562 C5572 0.930 . S
H5563 C5575 0.929 . S
H5564 C5578 0.930 . S
H5565 C5580 0.960 . S
H5566 C5580 0.960 . S
H5567 C5580 0.960 . S
C5568 H5560 0.929 . S
C5568 C5569 1.377 . S
C5568 C5570 1.384 . S
C5569 C5568 1.377 . S
C5569 C5575 1.390 . S
C5570 H5561 0.930 . S
C5570 C5568 1.384 . S
C5570 C5571 1.372 . S
C5571 C5570 1.372 . S
C5571 C5572 1.400 . S
C5571 C5576 1.490 . S
C5572 H5562 0.930 . S
C5572 C5571 1.400 . S
C5572 C5575 1.386 . S
H5573 C5589 0.930 . S
H5574 C5590 0.931 . S
C5575 H5563 0.929 . S
C5575 C5569 1.390 . S
C5575 C5572 1.386 . S
C5576 C5571 1.490 . S
C5576 C5578 1.395 . S
C5576 C5579 1.403 . S
H5577 C5583 0.930 . S
C5578 H5564 0.930 . S
C5578 C5576 1.395 . S
C5578 C5581 1.403 . S
C5579 C5576 1.403 . S
C5579 C5580 1.524 . S
C5579 C5583 1.400 . S
C5580 H5565 0.960 . S
C5580 H5566 0.960 . S
C5580 H5567 0.960 . S
C5580 C5579 1.524 . S
C5581 C5578 1.403 . S
C5581 C5582 1.392 . S
C5581 C5585 1.495 . S
C5582 C5581 1.392 . S
C5582 C5583 1.385 . S
C5582 C5584 1.478 . S
C5583 H5577 0.930 . S
C5583 C5579 1.400 . S
C5583 C5582 1.385 . S
C5584 C5582 1.478 . S
C5584 C5586 1.381 . S
C5584 C5590 1.383 . S
C5585 C5581 1.495 . S
C5585 H5591 0.959 . S
C5585 H5592 0.961 . S
C5585 H5593 0.960 . S
C5586 C5584 1.381 . S
C5586 C5587 1.394 . S
C5586 H5594 0.930 . S
C5587 C5586 1.394 . S
C5587 C5588 1.383 . S
C5587 H5595 0.929 . S
C5588 C5587 1.383 . S
C5588 C5589 1.377 . S
C5589 H5573 0.930 . S
C5589 C5588 1.377 . S
C5589 C5590 1.379 . S
C5590 H5574 0.931 . S
C5590 C5584 1.383 . S
C5590 C5589 1.379 . S
H5591 C5585 0.959 . S
H5592 C5585 0.961 . S
H5593 C5585 0.960 . S
H5594 C5586 0.930 . S
H5595 C5587 0.929 . S
H5596 C5604 0.929 . S
H5597 C5606 0.930 . S
H5598 C5608 0.930 . S
H5599 C5611 0.929 . S
H5600 C5614 0.930 . S
H5601 C5616 0.960 . S
H5602 C5616 0.960 . S
H5603 C5616 0.960 . S
C5604 H5596 0.929 . S
C5604 C5605 1.377 . S
C5604 C5606 1.384 . S
C5605 C5604 1.377 . S
C5605 C5611 1.390 . S
C5606 H5597 0.930 . S
C5606 C5604 1.384 . S
C5606 C5607 1.372 . S
C5607 C5606 1.372 . S
C5607 C5608 1.400 . S
C5607 C5612 1.490 . S
C5608 H5598 0.930 . S
C5608 C5607 1.400 . S
C5608 C5611 1.386 . S
H5609 C5625 0.930 . S
H5610 C5626 0.931 . S
C5611 H5599 0.929 . S
C5611 C5605 1.390 . S
C5611 C5608 1.386 . S
C5612 C5607 1.490 . S
C5612 C5614 1.395 . S
C5612 C5615 1.403 . S
H5613 C5619 0.930 . S
C5614 H5600 0.930 . S
C5614 C5612 1.395 . S
C5614 C5617 1.403 . S
C5615 C5612 1.403 . S
C5615 C5616 1.524 . S
C5615 C5619 1.400 . S
C5616 H5601 0.960 . S
C5616 H5602 0.960 . S
C5616 H5603 0.960 . S
C5616 C5615 1.524 . S
C5617 C5614 1.403 . S
C5617 C5618 1.392 . S
C5617 C5621 1.495 . S
C5618 C5617 1.392 . S
C5618 C5619 1.385 . S
C5618 C5620 1.478 . S
C5619 H5613 0.930 . S
C5619 C5615 1.400 . S
C5619 C5618 1.385 . S
C5620 C5618 1.478 . S
C5620 C5622 1.381 . S
C5620 C5626 1.383 . S
C5621 C5617 1.495 . S
C5621 H5627 0.959 . S
C5621 H5628 0.961 . S
C5621 H5629 0.960 . S
C5622 C5620 1.381 . S
C5622 C5623 1.394 . S
C5622 H5630 0.930 . S
C5623 C5622 1.394 . S
C5623 C5624 1.383 . S
C5623 H5631 0.929 . S
C5624 C5623 1.383 . S
C5624 C5625 1.377 . S
C5625 H5609 0.930 . S
C5625 C5624 1.377 . S
C5625 C5626 1.379 . S
C5626 H5610 0.931 . S
C5626 C5620 1.383 . S
C5626 C5625 1.379 . S
H5627 C5621 0.959 . S
H5628 C5621 0.961 . S
H5629 C5621 0.960 . S
H5630 C5622 0.930 . S
H5631 C5623 0.929 . S
H5632 C5640 0.929 . S
H5633 C5642 0.930 . S
H5634 C5644 0.930 . S
H5635 C5647 0.929 . S
H5636 C5650 0.930 . S
H5637 C5652 0.960 . S
H5638 C5652 0.960 . S
H5639 C5652 0.960 . S
C5640 H5632 0.929 . S
C5640 C5641 1.377 . S
C5640 C5642 1.384 . S
C5641 C5640 1.377 . S
C5641 C5647 1.390 . S
C5642 H5633 0.930 . S
C5642 C5640 1.384 . S
C5642 C5643 1.372 . S
C5643 C5642 1.372 . S
C5643 C5644 1.400 . S
C5643 C5648 1.490 . S
C5644 H5634 0.930 . S
C5644 C5643 1.400 . S
C5644 C5647 1.386 . S
H5645 C5661 0.930 . S
H5646 C5662 0.931 . S
C5647 H5635 0.929 . S
C5647 C5641 1.390 . S
C5647 C5644 1.386 . S
C5648 C5643 1.490 . S
C5648 C5650 1.395 . S
C5648 C5651 1.403 . S
H5649 C5655 0.930 . S
C5650 H5636 0.930 . S
C5650 C5648 1.395 . S
C5650 C5653 1.403 . S
C5651 C5648 1.403 . S
C5651 C5652 1.524 . S
C5651 C5655 1.400 . S
C5652 H5637 0.960 . S
C5652 H5638 0.960 . S
C5652 H5639 0.960 . S
C5652 C5651 1.524 . S
C5653 C5650 1.403 . S
C5653 C5654 1.392 . S
C5653 C5657 1.495 . S
C5654 C5653 1.392 . S
C5654 C5655 1.385 . S
C5654 C5656 1.478 . S
C5655 H5649 0.930 . S
C5655 C5651 1.400 . S
C5655 C5654 1.385 . S
C5656 C5654 1.478 . S
C5656 C5658 1.381 . S
C5656 C5662 1.383 . S
C5657 C5653 1.495 . S
C5657 H5663 0.959 . S
C5657 H5664 0.961 . S
C5657 H5665 0.960 . S
C5658 C5656 1.381 . S
C5658 C5659 1.394 . S
C5658 H5666 0.930 . S
C5659 C5658 1.394 . S
C5659 C5660 1.383 . S
C5659 H5667 0.929 . S
C5660 C5659 1.383 . S
C5660 C5661 1.377 . S
C5661 H5645 0.930 . S
C5661 C5660 1.377 . S
C5661 C5662 1.379 . S
C5662 H5646 0.931 . S
C5662 C5656 1.383 . S
C5662 C5661 1.379 . S
H5663 C5657 0.959 . S
H5664 C5657 0.961 . S
H5665 C5657 0.960 . S
H5666 C5658 0.930 . S
H5667 C5659 0.929 . S
H5668 C5676 0.929 . S
H5669 C5678 0.930 . S
H5670 C5680 0.930 . S
H5671 C5683 0.929 . S
H5672 C5686 0.930 . S
H5673 C5688 0.960 . S
H5674 C5688 0.960 . S
H5675 C5688 0.960 . S
C5676 H5668 0.929 . S
C5676 C5677 1.377 . S
C5676 C5678 1.384 . S
C5677 C5676 1.377 . S
C5677 C5683 1.390 . S
C5678 H5669 0.930 . S
C5678 C5676 1.384 . S
C5678 C5679 1.372 . S
C5679 C5678 1.372 . S
C5679 C5680 1.400 . S
C5679 C5684 1.490 . S
C5680 H5670 0.930 . S
C5680 C5679 1.400 . S
C5680 C5683 1.386 . S
H5681 C5697 0.930 . S
H5682 C5698 0.931 . S
C5683 H5671 0.929 . S
C5683 C5677 1.390 . S
C5683 C5680 1.386 . S
C5684 C5679 1.490 . S
C5684 C5686 1.395 . S
C5684 C5687 1.403 . S
H5685 C5691 0.930 . S
C5686 H5672 0.930 . S
C5686 C5684 1.395 . S
C5686 C5689 1.403 . S
C5687 C5684 1.403 . S
C5687 C5688 1.524 . S
C5687 C5691 1.400 . S
C5688 H5673 0.960 . S
C5688 H5674 0.960 . S
C5688 H5675 0.960 . S
C5688 C5687 1.524 . S
C5689 C5686 1.403 . S
C5689 C5690 1.392 . S
C5689 C5693 1.495 . S
C5690 C5689 1.392 . S
C5690 C5691 1.385 . S
C5690 C5692 1.478 . S
C5691 H5685 0.930 . S
C5691 C5687 1.400 . S
C5691 C5690 1.385 . S
C5692 C5690 1.478 . S
C5692 C5694 1.381 . S
C5692 C5698 1.383 . S
C5693 C5689 1.495 . S
C5693 H5699 0.959 . S
C5693 H5700 0.961 . S
C5693 H5701 0.960 . S
C5694 C5692 1.381 . S
C5694 C5695 1.394 . S
C5694 H5702 0.930 . S
C5695 C5694 1.394 . S
C5695 C5696 1.383 . S
C5695 H5703 0.929 . S
C5696 C5695 1.383 . S
C5696 C5697 1.377 . S
C5697 H5681 0.930 . S
C5697 C5696 1.377 . S
C5697 C5698 1.379 . S
C5698 H5682 0.931 . S
C5698 C5692 1.383 . S
C5698 C5697 1.379 . S
H5699 C5693 0.959 . S
H5700 C5693 0.961 . S
H5701 C5693 0.960 . S
H5702 C5694 0.930 . S
H5703 C5695 0.929 . S
H5704 C5712 0.929 . S
H5705 C5714 0.930 . S
H5706 C5716 0.930 . S
H5707 C5719 0.929 . S
H5708 C5722 0.930 . S
H5709 C5724 0.960 1_455 S
H5710 C5724 0.960 . S
H5711 C5724 0.960 1_455 S
C5712 H5704 0.929 . S
C5712 C5713 1.377 . S
C5712 C5714 1.384 . S
C5713 C5712 1.377 . S
C5713 C5719 1.390 . S
C5714 H5705 0.930 . S
C5714 C5712 1.384 . S
C5714 C5715 1.372 . S
C5715 C5714 1.372 . S
C5715 C5716 1.400 . S
C5715 C5720 1.490 . S
C5716 H5706 0.930 . S
C5716 C5715 1.400 . S
C5716 C5719 1.386 . S
H5717 C5733 0.930 . S
H5718 C5734 0.931 . S
C5719 H5707 0.929 . S
C5719 C5713 1.390 . S
C5719 C5716 1.386 . S
C5720 C5715 1.490 . S
C5720 C5722 1.395 . S
C5720 C5723 1.403 . S
H5721 C5727 0.930 1_455 S
C5722 H5708 0.930 . S
C5722 C5720 1.395 . S
C5722 C5725 1.403 . S
C5723 C5720 1.403 . S
C5723 C5724 1.524 . S
C5723 C5727 1.400 . S
C5724 H5709 0.960 1_655 S
C5724 H5710 0.960 . S
C5724 H5711 0.960 1_655 S
C5724 C5723 1.524 . S
C5725 C5722 1.403 . S
C5725 C5726 1.392 . S
C5725 C5729 1.495 . S
C5726 C5725 1.392 . S
C5726 C5727 1.385 . S
C5726 C5728 1.478 1_655 S
C5727 H5721 0.930 1_655 S
C5727 C5723 1.400 . S
C5727 C5726 1.385 . S
C5728 C5726 1.478 1_455 S
C5728 C5730 1.381 1_455 S
C5728 C5734 1.383 . S
C5729 C5725 1.495 . S
C5729 H5735 0.959 . S
C5729 H5736 0.961 . S
C5729 H5737 0.960 . S
C5730 C5728 1.381 1_655 S
C5730 C5731 1.394 1_655 S
C5730 H5738 0.930 . S
C5731 C5730 1.394 1_455 S
C5731 C5732 1.383 . S
C5731 H5739 0.929 1_455 S
C5732 C5731 1.383 . S
C5732 C5733 1.377 . S
C5733 H5717 0.930 . S
C5733 C5732 1.377 . S
C5733 C5734 1.379 . S
C5734 H5718 0.931 . S
C5734 C5728 1.383 . S
C5734 C5733 1.379 . S
H5735 C5729 0.959 . S
H5736 C5729 0.961 . S
H5737 C5729 0.960 . S
H5738 C5730 0.930 . S
H5739 C5731 0.929 1_655 S
H5740 C5748 0.929 . S
H5741 C5750 0.930 . S
H5742 C5752 0.930 . S
H5743 C5755 0.929 . S
H5744 C5758 0.930 . S
H5745 C5760 0.960 . S
H5746 C5760 0.960 . S
H5747 C5760 0.960 . S
C5748 H5740 0.929 . S
C5748 C5749 1.377 . S
C5748 C5750 1.384 . S
C5749 C5748 1.377 . S
C5749 C5755 1.390 . S
C5750 H5741 0.930 . S
C5750 C5748 1.384 . S
C5750 C5751 1.372 . S
C5751 C5750 1.372 . S
C5751 C5752 1.400 . S
C5751 C5756 1.490 . S
C5752 H5742 0.930 . S
C5752 C5751 1.400 . S
C5752 C5755 1.386 . S
H5753 C5769 0.930 . S
H5754 C5770 0.931 . S
C5755 H5743 0.929 . S
C5755 C5749 1.390 . S
C5755 C5752 1.386 . S
C5756 C5751 1.490 . S
C5756 C5758 1.395 . S
C5756 C5759 1.403 . S
H5757 C5763 0.930 . S
C5758 H5744 0.930 . S
C5758 C5756 1.395 . S
C5758 C5761 1.403 . S
C5759 C5756 1.403 . S
C5759 C5760 1.524 . S
C5759 C5763 1.400 . S
C5760 H5745 0.960 . S
C5760 H5746 0.960 . S
C5760 H5747 0.960 . S
C5760 C5759 1.524 . S
C5761 C5758 1.403 . S
C5761 C5762 1.392 . S
C5761 C5765 1.495 . S
C5762 C5761 1.392 . S
C5762 C5763 1.385 . S
C5762 C5764 1.478 . S
C5763 H5757 0.930 . S
C5763 C5759 1.400 . S
C5763 C5762 1.385 . S
C5764 C5762 1.478 . S
C5764 C5766 1.381 . S
C5764 C5770 1.383 . S
C5765 C5761 1.495 . S
C5765 H5771 0.959 . S
C5765 H5772 0.961 . S
C5765 H5773 0.960 . S
C5766 C5764 1.381 . S
C5766 C5767 1.394 . S
C5766 H5774 0.930 . S
C5767 C5766 1.394 . S
C5767 C5768 1.383 . S
C5767 H5775 0.929 . S
C5768 C5767 1.383 . S
C5768 C5769 1.377 . S
C5769 H5753 0.930 . S
C5769 C5768 1.377 . S
C5769 C5770 1.379 . S
C5770 H5754 0.931 . S
C5770 C5764 1.383 . S
C5770 C5769 1.379 . S
H5771 C5765 0.959 . S
H5772 C5765 0.961 . S
H5773 C5765 0.960 . S
H5774 C5766 0.930 . S
H5775 C5767 0.929 . S
H5776 C5784 0.929 . S
H5777 C5786 0.930 . S
H5778 C5788 0.930 . S
H5779 C5791 0.929 . S
H5780 C5794 0.930 . S
H5781 C5796 0.960 . S
H5782 C5796 0.960 . S
H5783 C5796 0.960 . S
C5784 H5776 0.929 . S
C5784 C5785 1.377 . S
C5784 C5786 1.384 . S
C5785 C5784 1.377 . S
C5785 C5791 1.390 . S
C5786 H5777 0.930 . S
C5786 C5784 1.384 . S
C5786 C5787 1.372 . S
C5787 C5786 1.372 . S
C5787 C5788 1.400 . S
C5787 C5792 1.490 . S
C5788 H5778 0.930 . S
C5788 C5787 1.400 . S
C5788 C5791 1.386 . S
H5789 C5805 0.930 . S
H5790 C5806 0.931 . S
C5791 H5779 0.929 . S
C5791 C5785 1.390 . S
C5791 C5788 1.386 . S
C5792 C5787 1.490 . S
C5792 C5794 1.395 . S
C5792 C5795 1.403 . S
H5793 C5799 0.930 . S
C5794 H5780 0.930 . S
C5794 C5792 1.395 . S
C5794 C5797 1.403 . S
C5795 C5792 1.403 . S
C5795 C5796 1.524 . S
C5795 C5799 1.400 . S
C5796 H5781 0.960 . S
C5796 H5782 0.960 . S
C5796 H5783 0.960 . S
C5796 C5795 1.524 . S
C5797 C5794 1.403 . S
C5797 C5798 1.392 . S
C5797 C5801 1.495 . S
C5798 C5797 1.392 . S
C5798 C5799 1.385 . S
C5798 C5800 1.478 . S
C5799 H5793 0.930 . S
C5799 C5795 1.400 . S
C5799 C5798 1.385 . S
C5800 C5798 1.478 . S
C5800 C5802 1.381 . S
C5800 C5806 1.383 . S
C5801 C5797 1.495 . S
C5801 H5807 0.959 . S
C5801 H5808 0.961 . S
C5801 H5809 0.960 . S
C5802 C5800 1.381 . S
C5802 C5803 1.394 . S
C5802 H5810 0.930 . S
C5803 C5802 1.394 . S
C5803 C5804 1.383 . S
C5803 H5811 0.929 . S
C5804 C5803 1.383 . S
C5804 C5805 1.377 . S
C5805 H5789 0.930 . S
C5805 C5804 1.377 . S
C5805 C5806 1.379 . S
C5806 H5790 0.931 . S
C5806 C5800 1.383 . S
C5806 C5805 1.379 . S
H5807 C5801 0.959 . S
H5808 C5801 0.961 . S
H5809 C5801 0.960 . S
H5810 C5802 0.930 . S
H5811 C5803 0.929 . S
H5812 C5820 0.929 . S
H5813 C5822 0.930 . S
H5814 C5824 0.930 . S
H5815 C5827 0.929 . S
H5816 C5830 0.930 . S
H5817 C5832 0.960 . S
H5818 C5832 0.960 . S
H5819 C5832 0.960 . S
C5820 H5812 0.929 . S
C5820 C5821 1.377 . S
C5820 C5822 1.384 . S
C5821 C5820 1.377 . S
C5821 C5827 1.390 . S
C5822 H5813 0.930 . S
C5822 C5820 1.384 . S
C5822 C5823 1.372 . S
C5823 C5822 1.372 . S
C5823 C5824 1.400 . S
C5823 C5828 1.490 . S
C5824 H5814 0.930 . S
C5824 C5823 1.400 . S
C5824 C5827 1.386 . S
H5825 C5841 0.930 . S
H5826 C5842 0.931 . S
C5827 H5815 0.929 . S
C5827 C5821 1.390 . S
C5827 C5824 1.386 . S
C5828 C5823 1.490 . S
C5828 C5830 1.395 . S
C5828 C5831 1.403 . S
H5829 C5835 0.930 . S
C5830 H5816 0.930 . S
C5830 C5828 1.395 . S
C5830 C5833 1.403 . S
C5831 C5828 1.403 . S
C5831 C5832 1.524 . S
C5831 C5835 1.400 . S
C5832 H5817 0.960 . S
C5832 H5818 0.960 . S
C5832 H5819 0.960 . S
C5832 C5831 1.524 . S
C5833 C5830 1.403 . S
C5833 C5834 1.392 . S
C5833 C5837 1.495 . S
C5834 C5833 1.392 . S
C5834 C5835 1.385 . S
C5834 C5836 1.478 . S
C5835 H5829 0.930 . S
C5835 C5831 1.400 . S
C5835 C5834 1.385 . S
C5836 C5834 1.478 . S
C5836 C5838 1.381 . S
C5836 C5842 1.383 . S
C5837 C5833 1.495 . S
C5837 H5843 0.959 . S
C5837 H5844 0.961 . S
C5837 H5845 0.960 . S
C5838 C5836 1.381 . S
C5838 C5839 1.394 . S
C5838 H5846 0.930 . S
C5839 C5838 1.394 . S
C5839 C5840 1.383 . S
C5839 H5847 0.929 . S
C5840 C5839 1.383 . S
C5840 C5841 1.377 . S
C5841 H5825 0.930 . S
C5841 C5840 1.377 . S
C5841 C5842 1.379 . S
C5842 H5826 0.931 . S
C5842 C5836 1.383 . S
C5842 C5841 1.379 . S
H5843 C5837 0.959 . S
H5844 C5837 0.961 . S
H5845 C5837 0.960 . S
H5846 C5838 0.930 . S
H5847 C5839 0.929 . S
H5848 C5856 0.929 . S
H5849 C5858 0.930 . S
H5850 C5860 0.930 . S
H5851 C5863 0.929 . S
H5852 C5866 0.930 . S
H5853 C5868 0.960 . S
H5854 C5868 0.960 . S
H5855 C5868 0.960 . S
C5856 H5848 0.929 . S
C5856 C5857 1.377 . S
C5856 C5858 1.384 . S
C5857 C5856 1.377 . S
C5857 C5863 1.390 . S
C5858 H5849 0.930 . S
C5858 C5856 1.384 . S
C5858 C5859 1.372 . S
C5859 C5858 1.372 . S
C5859 C5860 1.400 . S
C5859 C5864 1.490 . S
C5860 H5850 0.930 . S
C5860 C5859 1.400 . S
C5860 C5863 1.386 . S
H5861 C5877 0.909 1_455 S
H5862 C5878 0.956 . S
C5863 H5851 0.929 . S
C5863 C5857 1.390 . S
C5863 C5860 1.386 . S
C5864 C5859 1.490 . S
C5864 C5866 1.395 . S
C5864 C5867 1.403 . S
H5865 C5871 0.930 . S
C5866 H5852 0.930 . S
C5866 C5864 1.395 . S
C5866 C5869 1.403 . S
C5867 C5864 1.403 . S
C5867 C5868 1.524 . S
C5867 C5871 1.400 . S
C5868 H5853 0.960 . S
C5868 H5854 0.960 . S
C5868 H5855 0.960 . S
C5868 C5867 1.524 . S
C5869 C5866 1.403 . S
C5869 C5870 1.392 . S
C5869 C5873 1.495 . S
C5870 C5869 1.392 . S
C5870 C5871 1.385 . S
C5870 C5872 1.478 . S
C5871 H5865 0.930 . S
C5871 C5867 1.400 . S
C5871 C5870 1.385 . S
C5872 C5870 1.478 . S
C5872 C5874 1.381 . S
C5872 C5878 1.383 . S
C5873 C5869 1.495 . S
C5873 H5879 0.959 . S
C5873 H5880 0.961 . S
C5873 H5881 0.960 . S
C5874 C5872 1.381 . S
C5874 C5875 1.394 . S
C5874 H5882 0.930 . S
C5875 C5874 1.394 . S
C5875 C5876 1.383 . S
C5875 H5883 0.929 . S
C5876 C5875 1.383 . S
C5876 C5877 1.385 . S
C5877 H5861 0.909 1_655 S
C5877 C5876 1.385 . S
C5877 C5878 1.392 . S
C5878 H5862 0.956 . S
C5878 C5872 1.383 . S
C5878 C5877 1.392 . S
H5879 C5873 0.959 . S
H5880 C5873 0.961 . S
H5881 C5873 0.960 . S
H5882 C5874 0.930 . S
H5883 C5875 0.929 . S
H5884 C5892 0.929 . S
H5885 C5894 0.930 . S
H5886 C5896 0.930 . S
H5887 C5899 0.929 . S
H5888 C5902 0.930 . S
H5889 C5904 0.960 . S
H5890 C5904 0.960 . S
H5891 C5904 0.960 . S
C5892 H5884 0.929 . S
C5892 C5893 1.377 . S
C5892 C5894 1.384 . S
C5893 C5892 1.377 . S
C5893 C5899 1.390 . S
C5894 H5885 0.930 . S
C5894 C5892 1.384 . S
C5894 C5895 1.372 . S
C5895 C5894 1.372 . S
C5895 C5896 1.400 . S
C5895 C5900 1.490 . S
C5896 H5886 0.930 . S
C5896 C5895 1.400 . S
C5896 C5899 1.386 . S
H5897 C5913 0.930 . S
H5898 C5914 0.931 . S
C5899 H5887 0.929 . S
C5899 C5893 1.390 . S
C5899 C5896 1.386 . S
C5900 C5895 1.490 . S
C5900 C5902 1.395 . S
C5900 C5903 1.403 . S
H5901 C5907 0.930 . S
C5902 H5888 0.930 . S
C5902 C5900 1.395 . S
C5902 C5905 1.403 . S
C5903 C5900 1.403 . S
C5903 C5904 1.524 . S
C5903 C5907 1.400 . S
C5904 H5889 0.960 . S
C5904 H5890 0.960 . S
C5904 H5891 0.960 . S
C5904 C5903 1.524 . S
C5905 C5902 1.403 . S
C5905 C5906 1.392 . S
C5905 C5909 1.495 . S
C5906 C5905 1.392 . S
C5906 C5907 1.385 . S
C5906 C5908 1.478 . S
C5907 H5901 0.930 . S
C5907 C5903 1.400 . S
C5907 C5906 1.385 . S
C5908 C5906 1.478 . S
C5908 C5910 1.381 . S
C5908 C5914 1.383 . S
C5909 C5905 1.495 . S
C5909 H5915 0.959 . S
C5909 H5916 0.961 . S
C5909 H5917 0.960 . S
C5910 C5908 1.381 . S
C5910 C5911 1.394 . S
C5910 H5918 0.930 . S
C5911 C5910 1.394 . S
C5911 C5912 1.383 . S
C5911 H5919 0.929 . S
C5912 C5911 1.383 . S
C5912 C5913 1.377 . S
C5913 H5897 0.930 . S
C5913 C5912 1.377 . S
C5913 C5914 1.379 . S
C5914 H5898 0.931 . S
C5914 C5908 1.383 . S
C5914 C5913 1.379 . S
H5915 C5909 0.959 . S
H5916 C5909 0.961 . S
H5917 C5909 0.960 . S
H5918 C5910 0.930 . S
H5919 C5911 0.929 . S
H5920 C5928 0.929 . S
H5921 C5930 0.930 . S
H5922 C5932 0.930 . S
H5923 C5935 0.929 . S
H5924 C5938 0.930 . S
H5925 C5940 0.960 . S
H5926 C5940 0.960 . S
H5927 C5940 0.960 . S
C5928 H5920 0.929 . S
C5928 C5929 1.377 . S
C5928 C5930 1.384 . S
C5929 C5928 1.377 . S
C5929 C5935 1.390 . S
C5930 H5921 0.930 . S
C5930 C5928 1.384 . S
C5930 C5931 1.372 . S
C5931 C5930 1.372 . S
C5931 C5932 1.400 . S
C5931 C5936 1.490 . S
C5932 H5922 0.930 . S
C5932 C5931 1.400 . S
C5932 C5935 1.386 . S
H5933 C5949 0.930 . S
H5934 C5950 0.931 . S
C5935 H5923 0.929 . S
C5935 C5929 1.390 . S
C5935 C5932 1.386 . S
C5936 C5931 1.490 . S
C5936 C5938 1.395 . S
C5936 C5939 1.403 . S
H5937 C5943 0.930 . S
C5938 H5924 0.930 . S
C5938 C5936 1.395 . S
C5938 C5941 1.403 . S
C5939 C5936 1.403 . S
C5939 C5940 1.524 . S
C5939 C5943 1.400 . S
C5940 H5925 0.960 . S
C5940 H5926 0.960 . S
C5940 H5927 0.960 . S
C5940 C5939 1.524 . S
C5941 C5938 1.403 . S
C5941 C5942 1.392 . S
C5941 C5945 1.495 . S
C5942 C5941 1.392 . S
C5942 C5943 1.385 . S
C5942 C5944 1.478 . S
C5943 H5937 0.930 . S
C5943 C5939 1.400 . S
C5943 C5942 1.385 . S
C5944 C5942 1.478 . S
C5944 C5946 1.381 . S
C5944 C5950 1.383 . S
C5945 C5941 1.495 . S
C5945 H5951 0.959 . S
C5945 H5952 0.961 . S
C5945 H5953 0.960 . S
C5946 C5944 1.381 . S
C5946 C5947 1.394 . S
C5946 H5954 0.930 . S
C5947 C5946 1.394 . S
C5947 C5948 1.383 . S
C5947 H5955 0.929 . S
C5948 C5947 1.383 . S
C5948 C5949 1.377 . S
C5949 H5933 0.930 . S
C5949 C5948 1.377 . S
C5949 C5950 1.379 . S
C5950 H5934 0.931 . S
C5950 C5944 1.383 . S
C5950 C5949 1.379 . S
H5951 C5945 0.959 . S
H5952 C5945 0.961 . S
H5953 C5945 0.960 . S
H5954 C5946 0.930 . S
H5955 C5947 0.929 . S
H5956 C5964 0.929 . S
H5957 C5966 0.930 . S
H5958 C5968 0.930 . S
H5959 C5971 0.929 . S
H5960 C5974 0.930 . S
H5961 C5976 0.960 . S
H5962 C5976 0.960 . S
H5963 C5976 0.960 . S
C5964 H5956 0.929 . S
C5964 C5965 1.377 . S
C5964 C5966 1.384 . S
C5965 C5964 1.377 . S
C5965 C5971 1.390 . S
C5966 H5957 0.930 . S
C5966 C5964 1.384 . S
C5966 C5967 1.372 . S
C5967 C5966 1.372 . S
C5967 C5968 1.400 . S
C5967 C5972 1.490 . S
C5968 H5958 0.930 . S
C5968 C5967 1.400 . S
C5968 C5971 1.386 . S
H5969 C5985 0.930 . S
H5970 C5986 0.931 . S
C5971 H5959 0.929 . S
C5971 C5965 1.390 . S
C5971 C5968 1.386 . S
C5972 C5967 1.490 . S
C5972 C5974 1.395 . S
C5972 C5975 1.403 . S
H5973 C5979 0.930 . S
C5974 H5960 0.930 . S
C5974 C5972 1.395 . S
C5974 C5977 1.403 . S
C5975 C5972 1.403 . S
C5975 C5976 1.524 . S
C5975 C5979 1.400 . S
C5976 H5961 0.960 . S
C5976 H5962 0.960 . S
C5976 H5963 0.960 . S
C5976 C5975 1.524 . S
C5977 C5974 1.403 . S
C5977 C5978 1.392 . S
C5977 C5981 1.495 1_565 S
C5978 C5977 1.392 . S
C5978 C5979 1.385 . S
C5978 C5980 1.478 . S
C5979 H5973 0.930 . S
C5979 C5975 1.400 . S
C5979 C5978 1.385 . S
C5980 C5978 1.478 . S
C5980 C5982 1.381 . S
C5980 C5986 1.383 . S
C5981 C5977 1.495 1_545 S
C5981 H5987 0.959 . S
C5981 H5988 0.961 . S
C5981 H5989 0.960 . S
C5982 C5980 1.381 . S
C5982 C5983 1.394 1_565 S
C5982 H5990 0.930 . S
C5983 C5982 1.394 1_545 S
C5983 C5984 1.383 . S
C5983 H5991 0.929 . S
C5984 C5983 1.383 . S
C5984 C5985 1.377 . S
C5985 H5969 0.930 . S
C5985 C5984 1.377 . S
C5985 C5986 1.379 1_545 S
C5986 H5970 0.931 . S
C5986 C5980 1.383 . S
C5986 C5985 1.379 1_565 S
H5987 C5981 0.959 . S
H5988 C5981 0.961 . S
H5989 C5981 0.960 . S
H5990 C5982 0.930 . S
H5991 C5983 0.929 . S
H5992 C6000 0.929 . S
H5993 C6002 0.930 . S
H5994 C6004 0.930 . S
H5995 C6007 0.929 . S
H5996 C6010 0.930 . S
H5997 C6012 0.960 . S
H5998 C6012 0.960 . S
H5999 C6012 0.960 . S
C6000 H5992 0.929 . S
C6000 C6001 1.377 . S
C6000 C6002 1.384 . S
C6001 C6000 1.377 . S
C6001 C6007 1.390 . S
C6002 H5993 0.930 . S
C6002 C6000 1.384 . S
C6002 C6003 1.372 . S
C6003 C6002 1.372 . S
C6003 C6004 1.400 . S
C6003 C6008 1.490 . S
C6004 H5994 0.930 . S
C6004 C6003 1.400 . S
C6004 C6007 1.386 . S
H6005 C6021 0.930 . S
H6006 C6022 0.931 . S
C6007 H5995 0.929 . S
C6007 C6001 1.390 . S
C6007 C6004 1.386 . S
C6008 C6003 1.490 . S
C6008 C6010 1.395 . S
C6008 C6011 1.403 . S
H6009 C6015 0.930 . S
C6010 H5996 0.930 . S
C6010 C6008 1.395 . S
C6010 C6013 1.403 . S
C6011 C6008 1.403 . S
C6011 C6012 1.524 . S
C6011 C6015 1.400 . S
C6012 H5997 0.960 . S
C6012 H5998 0.960 . S
C6012 H5999 0.960 . S
C6012 C6011 1.524 . S
C6013 C6010 1.403 . S
C6013 C6014 1.392 . S
C6013 C6017 1.495 . S
C6014 C6013 1.392 . S
C6014 C6015 1.385 . S
C6014 C6016 1.478 . S
C6015 H6009 0.930 . S
C6015 C6011 1.400 . S
C6015 C6014 1.385 . S
C6016 C6014 1.478 . S
C6016 C6018 1.381 . S
C6016 C6022 1.383 . S
C6017 C6013 1.495 . S
C6017 H6023 0.959 . S
C6017 H6024 0.961 . S
C6017 H6025 0.960 . S
C6018 C6016 1.381 . S
C6018 C6019 1.394 . S
C6018 H6026 0.930 . S
C6019 C6018 1.394 . S
C6019 C6020 1.383 . S
C6019 H6027 0.929 . S
C6020 C6019 1.383 . S
C6020 C6021 1.377 . S
C6021 H6005 0.930 . S
C6021 C6020 1.377 . S
C6021 C6022 1.379 . S
C6022 H6006 0.931 . S
C6022 C6016 1.383 . S
C6022 C6021 1.379 . S
H6023 C6017 0.959 . S
H6024 C6017 0.961 . S
H6025 C6017 0.960 . S
H6026 C6018 0.930 . S
H6027 C6019 0.929 . S
H6028 C6036 0.929 . S
H6029 C6038 0.930 . S
H6030 C6040 0.930 . S
H6031 C6043 0.929 . S
H6032 C6046 0.930 . S
H6033 C6048 0.960 . S
H6034 C6048 0.960 . S
H6035 C6048 0.960 . S
C6036 H6028 0.929 . S
C6036 C6037 1.380 1_554 S
C6036 C6038 1.382 . S
C6037 C6036 1.380 1_556 S
C6037 C6043 1.390 . S
C6038 H6029 0.930 . S
C6038 C6036 1.382 . S
C6038 C6039 1.372 1_554 S
C6039 C6038 1.372 1_556 S
C6039 C6040 1.400 . S
C6039 C6044 1.495 . S
C6040 H6030 0.930 . S
C6040 C6039 1.400 . S
C6040 C6043 1.386 . S
H6041 C6057 0.930 . S
H6042 C6058 0.931 . S
C6043 H6031 0.929 . S
C6043 C6037 1.390 . S
C6043 C6040 1.386 . S
C6044 C6039 1.495 . S
C6044 C6046 1.409 . S
C6044 C6047 1.383 1_556 S
H6045 C6051 0.930 . S
C6046 H6032 0.930 . S
C6046 C6044 1.409 . S
C6046 C6049 1.403 . S
C6047 C6044 1.383 1_554 S
C6047 C6048 1.524 . S
C6047 C6051 1.400 . S
C6048 H6033 0.960 . S
C6048 H6034 0.960 . S
C6048 H6035 0.960 . S
C6048 C6047 1.524 . S
C6049 C6046 1.403 . S
C6049 C6050 1.346 1_556 S
C6049 C6053 1.495 . S
C6050 C6049 1.346 1_554 S
C6050 C6051 1.421 . S
C6050 C6052 1.492 . S
C6051 H6045 0.930 . S
C6051 C6047 1.400 . S
C6051 C6050 1.421 . S
C6052 C6050 1.492 . S
C6052 C6054 1.381 . S
C6052 C6058 1.383 1_554 S
C6053 C6049 1.495 . S
C6053 H6059 0.959 . S
C6053 H6060 0.961 . S
C6053 H6061 0.960 . S
C6054 C6052 1.381 . S
C6054 C6055 1.394 . S
C6054 H6062 0.930 . S
C6055 C6054 1.394 . S
C6055 C6056 1.383 . S
C6055 H6063 0.929 . S
C6056 C6055 1.383 . S
C6056 C6057 1.376 1_554 S
C6057 H6041 0.930 . S
C6057 C6056 1.376 1_556 S
C6057 C6058 1.380 . S
C6058 H6042 0.931 . S
C6058 C6052 1.383 1_556 S
C6058 C6057 1.380 . S
H6059 C6053 0.959 . S
H6060 C6053 0.961 . S
H6061 C6053 0.960 . S
H6062 C6054 0.930 . S
H6063 C6055 0.929 . S
H6064 C6072 0.929 . S
H6065 C6074 0.930 . S
H6066 C6076 0.930 . S
H6067 C6079 0.929 . S
H6068 C6082 0.930 . S
H6069 C6084 0.960 . S
H6070 C6084 0.960 . S
H6071 C6084 0.960 . S
C6072 H6064 0.929 . S
C6072 C6073 1.377 . S
C6072 C6074 1.384 . S
C6073 C6072 1.377 . S
C6073 C6079 1.390 . S
C6074 H6065 0.930 . S
C6074 C6072 1.384 . S
C6074 C6075 1.372 . S
C6075 C6074 1.372 . S
C6075 C6076 1.400 . S
C6075 C6080 1.490 . S
C6076 H6066 0.930 . S
C6076 C6075 1.400 . S
C6076 C6079 1.386 . S
H6077 C6093 0.930 . S
H6078 C6094 0.931 . S
C6079 H6067 0.929 . S
C6079 C6073 1.390 . S
C6079 C6076 1.386 . S
C6080 C6075 1.490 . S
C6080 C6082 1.395 . S
C6080 C6083 1.403 . S
H6081 C6087 0.930 . S
C6082 H6068 0.930 . S
C6082 C6080 1.395 . S
C6082 C6085 1.403 . S
C6083 C6080 1.403 . S
C6083 C6084 1.524 . S
C6083 C6087 1.400 . S
C6084 H6069 0.960 . S
C6084 H6070 0.960 . S
C6084 H6071 0.960 . S
C6084 C6083 1.524 . S
C6085 C6082 1.403 . S
C6085 C6086 1.392 . S
C6085 C6089 1.495 . S
C6086 C6085 1.392 . S
C6086 C6087 1.385 . S
C6086 C6088 1.478 . S
C6087 H6081 0.930 . S
C6087 C6083 1.400 . S
C6087 C6086 1.385 . S
C6088 C6086 1.478 . S
C6088 C6090 1.381 . S
C6088 C6094 1.383 . S
C6089 C6085 1.495 . S
C6089 H6095 0.959 . S
C6089 H6096 0.961 . S
C6089 H6097 0.960 . S
C6090 C6088 1.381 . S
C6090 C6091 1.394 . S
C6090 H6098 0.930 . S
C6091 C6090 1.394 . S
C6091 C6092 1.383 . S
C6091 H6099 0.929 . S
C6092 C6091 1.383 . S
C6092 C6093 1.377 . S
C6093 H6077 0.930 . S
C6093 C6092 1.377 . S
C6093 C6094 1.379 . S
C6094 H6078 0.931 . S
C6094 C6088 1.383 . S
C6094 C6093 1.379 . S
H6095 C6089 0.959 . S
H6096 C6089 0.961 . S
H6097 C6089 0.960 . S
H6098 C6090 0.930 . S
H6099 C6091 0.929 . S
H6100 C6108 0.929 . S
H6101 C6110 0.930 . S
H6102 C6112 0.937 . S
H6103 C6115 0.929 1_556 S
H6104 C6118 0.930 . S
H6105 C6120 0.960 . S
H6106 C6120 0.960 . S
H6107 C6120 0.960 . S
C6108 H6100 0.929 . S
C6108 C6109 1.377 . S
C6108 C6110 1.384 . S
C6109 C6108 1.377 . S
C6109 C6115 1.390 . S
C6110 H6101 0.930 . S
C6110 C6108 1.384 . S
C6110 C6111 1.372 . S
C6111 C6110 1.372 . S
C6111 C6112 1.394 1_554 S
C6111 C6116 1.490 . S
C6112 H6102 0.937 . S
C6112 C6111 1.394 1_556 S
C6112 C6115 1.384 1_556 S
H6113 C6129 0.930 . S
H6114 C6130 0.931 . S
C6115 H6103 0.929 1_554 S
C6115 C6109 1.390 . S
C6115 C6112 1.384 1_554 S
C6116 C6111 1.490 . S
C6116 C6118 1.395 . S
C6116 C6119 1.403 1_554 S
H6117 C6123 0.930 . S
C6118 H6104 0.930 . S
C6118 C6116 1.395 . S
C6118 C6121 1.403 . S
C6119 C6116 1.403 1_556 S
C6119 C6120 1.524 . S
C6119 C6123 1.400 . S
C6120 H6105 0.960 . S
C6120 H6106 0.960 . S
C6120 H6107 0.960 . S
C6120 C6119 1.524 . S
C6121 C6118 1.403 . S
C6121 C6122 1.392 . S
C6121 C6125 1.495 . S
C6122 C6121 1.392 . S
C6122 C6123 1.385 1_554 S
C6122 C6124 1.478 1_554 S
C6123 H6117 0.930 . S
C6123 C6119 1.400 . S
C6123 C6122 1.385 1_556 S
C6124 C6122 1.478 1_556 S
C6124 C6126 1.381 1_556 S
C6124 C6130 1.383 . S
C6125 C6121 1.495 . S
C6125 H6131 0.959 . S
C6125 H6132 0.961 . S
C6125 H6133 0.960 . S
C6126 C6124 1.381 1_554 S
C6126 C6127 1.410 . S
C6126 H6134 0.930 . S
C6127 C6126 1.410 . S
C6127 C6128 1.338 1_554 S
C6127 H6135 0.961 . S
C6128 C6127 1.338 1_556 S
C6128 C6129 1.377 . S
C6129 H6113 0.930 . S
C6129 C6128 1.377 . S
C6129 C6130 1.379 . S
C6130 H6114 0.931 . S
C6130 C6124 1.383 . S
C6130 C6129 1.379 . S
H6131 C6125 0.959 . S
H6132 C6125 0.961 . S
H6133 C6125 0.960 . S
H6134 C6126 0.930 . S
H6135 C6127 0.961 . S
H6136 C6144 0.929 . S
H6137 C6146 0.930 . S
H6138 C6148 0.930 . S
H6139 C6151 0.929 . S
H6140 C6154 0.930 . S
H6141 C6156 0.960 . S
H6142 C6156 0.960 . S
H6143 C6156 0.960 . S
C6144 H6136 0.929 . S
C6144 C6145 1.377 . S
C6144 C6146 1.384 . S
C6145 C6144 1.377 . S
C6145 C6151 1.390 . S
C6146 H6137 0.930 . S
C6146 C6144 1.384 . S
C6146 C6147 1.372 . S
C6147 C6146 1.372 . S
C6147 C6148 1.400 . S
C6147 C6152 1.490 . S
C6148 H6138 0.930 . S
C6148 C6147 1.400 . S
C6148 C6151 1.386 . S
H6149 C6165 0.930 . S
H6150 C6166 0.931 . S
C6151 H6139 0.929 . S
C6151 C6145 1.390 . S
C6151 C6148 1.386 . S
C6152 C6147 1.490 . S
C6152 C6154 1.395 . S
C6152 C6155 1.403 . S
H6153 C6159 0.930 . S
C6154 H6140 0.930 . S
C6154 C6152 1.395 . S
C6154 C6157 1.403 . S
C6155 C6152 1.403 . S
C6155 C6156 1.524 . S
C6155 C6159 1.400 . S
C6156 H6141 0.960 . S
C6156 H6142 0.960 . S
C6156 H6143 0.960 . S
C6156 C6155 1.524 . S
C6157 C6154 1.403 . S
C6157 C6158 1.392 . S
C6157 C6161 1.495 . S
C6158 C6157 1.392 . S
C6158 C6159 1.385 . S
C6158 C6160 1.478 . S
C6159 H6153 0.930 . S
C6159 C6155 1.400 . S
C6159 C6158 1.385 . S
C6160 C6158 1.478 . S
C6160 C6162 1.381 . S
C6160 C6166 1.383 . S
C6161 C6157 1.495 . S
C6161 H6167 0.959 . S
C6161 H6168 0.961 . S
C6161 H6169 0.960 . S
C6162 C6160 1.381 . S
C6162 C6163 1.394 . S
C6162 H6170 0.930 . S
C6163 C6162 1.394 . S
C6163 C6164 1.383 . S
C6163 H6171 0.929 . S
C6164 C6163 1.383 . S
C6164 C6165 1.377 . S
C6165 H6149 0.930 . S
C6165 C6164 1.377 . S
C6165 C6166 1.379 . S
C6166 H6150 0.931 . S
C6166 C6160 1.383 . S
C6166 C6165 1.379 . S
H6167 C6161 0.959 . S
H6168 C6161 0.961 . S
H6169 C6161 0.960 . S
H6170 C6162 0.930 . S
H6171 C6163 0.929 . S
H6172 C6180 0.929 . S
H6173 C6182 0.930 . S
H6174 C6184 0.930 . S
H6175 C6187 0.929 . S
H6176 C6190 0.930 . S
H6177 C6192 0.960 . S
H6178 C6192 0.960 . S
H6179 C6192 0.960 . S
C6180 H6172 0.929 . S
C6180 C6181 1.377 . S
C6180 C6182 1.384 . S
C6181 C6180 1.377 . S
C6181 C6187 1.390 . S
C6182 H6173 0.930 . S
C6182 C6180 1.384 . S
C6182 C6183 1.372 . S
C6183 C6182 1.372 . S
C6183 C6184 1.400 . S
C6183 C6188 1.490 . S
C6184 H6174 0.930 . S
C6184 C6183 1.400 . S
C6184 C6187 1.386 . S
H6185 C6201 0.930 . S
H6186 C6202 0.931 . S
C6187 H6175 0.929 . S
C6187 C6181 1.390 . S
C6187 C6184 1.386 . S
C6188 C6183 1.490 . S
C6188 C6190 1.395 . S
C6188 C6191 1.403 . S
H6189 C6195 0.930 . S
C6190 H6176 0.930 . S
C6190 C6188 1.395 . S
C6190 C6193 1.403 . S
C6191 C6188 1.403 . S
C6191 C6192 1.524 . S
C6191 C6195 1.400 . S
C6192 H6177 0.960 . S
C6192 H6178 0.960 . S
C6192 H6179 0.960 . S
C6192 C6191 1.524 . S
C6193 C6190 1.403 . S
C6193 C6194 1.392 . S
C6193 C6197 1.495 . S
C6194 C6193 1.392 . S
C6194 C6195 1.385 . S
C6194 C6196 1.478 . S
C6195 H6189 0.930 . S
C6195 C6191 1.400 . S
C6195 C6194 1.385 . S
C6196 C6194 1.478 . S
C6196 C6198 1.381 . S
C6196 C6202 1.383 . S
C6197 C6193 1.495 . S
C6197 H6203 0.959 . S
C6197 H6204 0.961 . S
C6197 H6205 0.960 . S
C6198 C6196 1.381 . S
C6198 C6199 1.394 . S
C6198 H6206 0.930 . S
C6199 C6198 1.394 . S
C6199 C6200 1.383 . S
C6199 H6207 0.929 . S
C6200 C6199 1.383 . S
C6200 C6201 1.377 . S
C6201 H6185 0.930 . S
C6201 C6200 1.377 . S
C6201 C6202 1.379 . S
C6202 H6186 0.931 . S
C6202 C6196 1.383 . S
C6202 C6201 1.379 . S
H6203 C6197 0.959 . S
H6204 C6197 0.961 . S
H6205 C6197 0.960 . S
H6206 C6198 0.930 . S
H6207 C6199 0.929 . S
C2761 C665 2.059 . S
C2780 C2114 2.043 1_556 S
C2797 C381 1.997 . S
C2816 C2171 1.984 . S
C2833 C460 0.898 . S
C2852 C2194 0.924 . S
C2888 C2248 1.406 . S
C2869 C585 1.432 . S
C2905 C108 1.168 . S
C2924 C2288 1.139 . S
C2960 C2319 0.158 . S
C2941 C196 0.246 . S
C2996 C2371 1.070 . S
C2977 C313 1.040 . S
C3013 C49 1.560 . S
C3032 C2394 1.524 . S
C3068 C2131 2.316 . S
C3049 C1457 2.353 . S
C3085 C1545 0.166 . S
C3104 C2168 0.359 . S
C3140 C2211 1.343 . S
C3121 C1721 1.382 . S
C3176 C2234 1.186 . S
C3157 C1113 1.167 . S
C3193 C1428 1.690 . S
C3212 C2274 1.711 . S
C3248 C2322 1.420 . S
C3229 C1516 1.470 . S
C3284 C2368 0.309 . S
C3265 C1692 0.215 . S
C3320 C2411 1.834 . S
C3301 C1085 1.878 . S
C3356 C2128 1.381 1_565 S
C3337 C988 1.419 . S
C3373 C1817 2.003 . S
C3392 C2451 1.997 . S
C3428 C2483 2.449 . S
C3409 C2081 2.509 . S
C3464 C2514 0.333 1_655 S
C3445 C1993 0.403 . S
C3481 C761 1.160 . S
C3500 C2408 1.105 . S
C3517 C821 1.437 . S
C3536 C2208 1.394 . S
C3553 C2053 2.347 . S
C3572 C2571 2.324 . S
C3608 C2594 0.361 . S
C3589 C1868 0.229 . S
C3644 C2123 2.065 1_565 S
C3625 C372 2.054 . S
C3680 C2602 1.979 . S
C3661 C645 1.988 . S
C3697 C577 0.904 . S
C3716 C2203 0.887 . S
C3733 C497 1.431 . S
C3752 C2559 1.415 . S
C3788 C2279 1.135 . S
C3769 C57 1.165 . S
C3805 C293 0.244 . S
C3824 C2488 0.203 . S
C3860 C2362 1.027 1_566 S
C3841 C205 1.033 . S
C3896 C2643 1.516 . S
C3877 C145 1.565 . S
C3932 C2122 2.334 . S
C3913 C909 2.349 1_545 S
C3968 C2599 0.286 . S
C3949 C1956 0.112 . S
C3985 C724 1.376 . S
C4004 C2202 1.349 . S
C4021 C1780 1.169 . S
C4040 C2563 1.180 . S
C4057 C937 1.684 . S
C4076 C2283 1.697 . S
C4112 C2491 1.441 . S
C4093 C1985 1.470 . S
C4129 C753 0.203 . S
C4148 C2359 0.436 1_565 S
C4165 C1809 1.877 . S
C4184 C2642 1.860 . S
C4201 C1173 1.420 . S
C4220 C2119 1.389 . S
C4237 C1105 2.000 . S
C4256 C2442 1.993 . S
C4273 C1633 2.505 . S
C4292 C2314 2.464 . S
C4309 C1553 0.370 . S
C4328 C2523 0.365 . S
C4364 C2639 1.104 . S
C4345 C1729 1.157 . S
C4381 C1340 1.435 . S
C4400 C2199 1.424 . S
C4436 C2242 2.299 . S
C4417 C1604 2.340 . S
C4472 C2163 0.349 . S
C4453 C1252 0.237 . S
C4489 C489 2.054 . S
C4508 C2674 2.065 . S
C4544 C2611 1.978 . S
C4525 C557 1.999 . S
C4561 C636 0.899 . S
C4580 C2714 0.925 . S
C4597 C409 1.433 . S
C4616 C2568 1.404 . S
C4633 C284 1.163 . S
C4652 C2448 1.166 . S
C4688 C2479 0.202 . S
C4669 C20 0.228 . S
C4724 C2531 1.023 . S
C4705 C137 1.042 . S
C4760 C2634 1.519 . S
C4741 C225 1.561 . S
C4796 C2691 2.316 . S
C4777 C1641 2.354 . S
C4813 C1193 0.134 . S
C4832 C2608 0.448 . S
C4868 C2731 1.361 . S
C4849 C1289 1.380 . S
C4904 C2554 1.185 . S
C4885 C1377 1.174 . S
C4940 C2434 1.702 . S
C4921 C1613 1.693 . S
C4957 C1164 1.473 . S
C4976 C2482 1.455 . S
C5012 C2528 0.440 . S
C4993 C1261 0.212 . S
C5029 C1349 1.878 . S
C5048 C2651 1.834 . S
C5084 C2688 1.394 . S
C5065 C1965 1.424 . S
C5101 C849 2.004 . S
C5120 C2291 1.996 . S
C5156 C2323 2.470 . S
C5137 C929 2.517 . S
C5192 C2354 0.353 . S
C5173 C1017 0.408 . S
C5228 C2648 1.128 . S
C5209 C1897 1.157 . S
C5245 C1789 1.434 . S
C5264 C2728 1.409 . S
C5300 C2251 2.300 . S
C5281 C900 2.339 . S
C5336 C2154 0.324 . S
C5317 C733 0.245 . S
C5353 C548 2.054 . S
C5372 C2683 2.050 . S
C5408 C2162 1.994 . S
C5389 C469 1.992 . S
C5425 C401 0.901 . S
C5444 C2723 0.888 . S
C5461 C673 1.432 . S
C5480 C2239 1.427 . S
C5497 C233 1.165 . S
C5516 C2439 1.166 . S
C5552 C2328 0.180 . S
C5533 C117 0.252 . S
C5569 C29 1.040 . S
C5588 C2522 1.055 . S
C5605 C321 1.560 . S
C5624 C2403 1.542 . S
C5660 C2682 2.312 . S
C5641 C2044 2.348 . S
C5677 C997 0.124 . S
C5696 C2159 0.414 . S
C5732 C2722 1.363 . S
C5713 C1877 1.377 . S
C5749 C812 1.168 . S
C5768 C2243 1.186 . S
C5785 C2073 1.684 . S
C5804 C2443 1.700 . S
C5840 C2331 1.440 . S
C5821 C1025 1.466 . S
C5857 C1905 0.188 . S
C5876 C2519 0.352 . S
C5912 C2402 1.830 . S
C5893 C841 1.873 . S
C5948 C2679 1.418 . S
C5929 C1525 1.423 . S
C5984 C2282 1.972 1_655 S
C5965 C1369 1.997 . S
C6001 C1465 2.505 . S
C6020 C2474 2.464 . S
C6056 C2363 0.351 . S
C6037 C1201 0.372 . S
C6073 C1281 1.162 . S
C6092 C2399 1.162 . S
C6109 C1076 1.435 . S
C6128 C2719 1.386 . S
C6164 C2562 2.299 . S
C6145 C1437 2.341 . S
C6200 C2603 0.348 . S
C6181 C1701 0.237 . S
