# Generated by pormake.
# Topology gar, (4,6)-cn, num edge types: 1
# Building blocks:
#     Node 0, Type 0, BuildingBlock: QUQFOY_clean_sbu_3, # of connection points: 4
#     Node 1, Type 0, BuildingBlock: QUQFOY_clean_sbu_3, # of connection points: 4
#     Node 2, Type 0, BuildingBlock: QUQFOY_clean_sbu_3, # of connection points: 4
#     Node 3, Type 0, BuildingBlock: QUQFOY_clean_sbu_3, # of connection points: 4
#     Node 4, Type 0, BuildingBlock: QUQFOY_clean_sbu_3, # of connection points: 4
#     Node 5, Type 0, BuildingBlock: QUQFOY_clean_sbu_3, # of connection points: 4
#     Node 6, Type 0, BuildingBlock: QUQFOY_clean_sbu_3, # of connection points: 4
#     Node 7, Type 0, BuildingBlock: QUQFOY_clean_sbu_3, # of connection points: 4
#     Node 8, Type 0, BuildingBlock: QUQFOY_clean_sbu_3, # of connection points: 4
#     Node 9, Type 0, BuildingBlock: QUQFOY_clean_sbu_3, # of connection points: 4
#     Node 10, Type 0, BuildingBlock: QUQFOY_clean_sbu_3, # of connection points: 4
#     Node 11, Type 0, BuildingBlock: QUQFOY_clean_sbu_3, # of connection points: 4
#     Node 12, Type 0, BuildingBlock: QUQFOY_clean_sbu_3, # of connection points: 4
#     Node 13, Type 0, BuildingBlock: QUQFOY_clean_sbu_3, # of connection points: 4
#     Node 14, Type 0, BuildingBlock: QUQFOY_clean_sbu_3, # of connection points: 4
#     Node 15, Type 0, BuildingBlock: QUQFOY_clean_sbu_3, # of connection points: 4
#     Node 16, Type 0, BuildingBlock: QUQFOY_clean_sbu_3, # of connection points: 4
#     Node 17, Type 0, BuildingBlock: QUQFOY_clean_sbu_3, # of connection points: 4
#     Node 18, Type 0, BuildingBlock: QUQFOY_clean_sbu_3, # of connection points: 4
#     Node 19, Type 0, BuildingBlock: QUQFOY_clean_sbu_3, # of connection points: 4
#     Node 20, Type 0, BuildingBlock: QUQFOY_clean_sbu_3, # of connection points: 4
#     Node 21, Type 0, BuildingBlock: QUQFOY_clean_sbu_3, # of connection points: 4
#     Node 22, Type 0, BuildingBlock: QUQFOY_clean_sbu_3, # of connection points: 4
#     Node 23, Type 0, BuildingBlock: QUQFOY_clean_sbu_3, # of connection points: 4
#     Node 24, Type 1, BuildingBlock: KUMBUR_clean_sbu_1, # of connection points: 6
#     Node 25, Type 1, BuildingBlock: KUMBUR_clean_sbu_1, # of connection points: 6
#     Node 26, Type 1, BuildingBlock: KUMBUR_clean_sbu_1, # of connection points: 6
#     Node 27, Type 1, BuildingBlock: KUMBUR_clean_sbu_1, # of connection points: 6
#     Node 28, Type 1, BuildingBlock: KUMBUR_clean_sbu_1, # of connection points: 6
#     Node 29, Type 1, BuildingBlock: KUMBUR_clean_sbu_1, # of connection points: 6
#     Node 30, Type 1, BuildingBlock: KUMBUR_clean_sbu_1, # of connection points: 6
#     Node 31, Type 1, BuildingBlock: KUMBUR_clean_sbu_1, # of connection points: 6
#     Node 32, Type 1, BuildingBlock: KUMBUR_clean_sbu_1, # of connection points: 6
#     Node 33, Type 1, BuildingBlock: KUMBUR_clean_sbu_1, # of connection points: 6
#     Node 34, Type 1, BuildingBlock: KUMBUR_clean_sbu_1, # of connection points: 6
#     Node 35, Type 1, BuildingBlock: KUMBUR_clean_sbu_1, # of connection points: 6
#     Node 36, Type 1, BuildingBlock: KUMBUR_clean_sbu_1, # of connection points: 6
#     Node 37, Type 1, BuildingBlock: KUMBUR_clean_sbu_1, # of connection points: 6
#     Node 38, Type 1, BuildingBlock: KUMBUR_clean_sbu_1, # of connection points: 6
#     Node 39, Type 1, BuildingBlock: KUMBUR_clean_sbu_1, # of connection points: 6
#     Edge 40, Type (0, 1), BuildingBlock: XUDNAN_clean_linker_2, # of connection points: 2
#     Edge 41, Type (0, 1), BuildingBlock: XUDNAN_clean_linker_2, # of connection points: 2
#     Edge 42, Type (0, 1), BuildingBlock: XUDNAN_clean_linker_2, # of connection points: 2
#     Edge 43, Type (0, 1), BuildingBlock: XUDNAN_clean_linker_2, # of connection points: 2
#     Edge 44, Type (0, 1), BuildingBlock: XUDNAN_clean_linker_2, # of connection points: 2
#     Edge 45, Type (0, 1), BuildingBlock: XUDNAN_clean_linker_2, # of connection points: 2
#     Edge 46, Type (0, 1), BuildingBlock: XUDNAN_clean_linker_2, # of connection points: 2
#     Edge 47, Type (0, 1), BuildingBlock: XUDNAN_clean_linker_2, # of connection points: 2
#     Edge 48, Type (0, 1), BuildingBlock: XUDNAN_clean_linker_2, # of connection points: 2
#     Edge 49, Type (0, 1), BuildingBlock: XUDNAN_clean_linker_2, # of connection points: 2
#     Edge 50, Type (0, 1), BuildingBlock: XUDNAN_clean_linker_2, # of connection points: 2
#     Edge 51, Type (0, 1), BuildingBlock: XUDNAN_clean_linker_2, # of connection points: 2
#     Edge 52, Type (0, 1), BuildingBlock: XUDNAN_clean_linker_2, # of connection points: 2
#     Edge 53, Type (0, 1), BuildingBlock: XUDNAN_clean_linker_2, # of connection points: 2
#     Edge 54, Type (0, 1), BuildingBlock: XUDNAN_clean_linker_2, # of connection points: 2
#     Edge 55, Type (0, 1), BuildingBlock: XUDNAN_clean_linker_2, # of connection points: 2
#     Edge 56, Type (0, 1), BuildingBlock: XUDNAN_clean_linker_2, # of connection points: 2
#     Edge 57, Type (0, 1), BuildingBlock: XUDNAN_clean_linker_2, # of connection points: 2
#     Edge 58, Type (0, 1), BuildingBlock: XUDNAN_clean_linker_2, # of connection points: 2
#     Edge 59, Type (0, 1), BuildingBlock: XUDNAN_clean_linker_2, # of connection points: 2
#     Edge 60, Type (0, 1), BuildingBlock: XUDNAN_clean_linker_2, # of connection points: 2
#     Edge 61, Type (0, 1), BuildingBlock: XUDNAN_clean_linker_2, # of connection points: 2
#     Edge 62, Type (0, 1), BuildingBlock: XUDNAN_clean_linker_2, # of connection points: 2
#     Edge 63, Type (0, 1), BuildingBlock: XUDNAN_clean_linker_2, # of connection points: 2
#     Edge 64, Type (0, 1), BuildingBlock: XUDNAN_clean_linker_2, # of connection points: 2
#     Edge 65, Type (0, 1), BuildingBlock: XUDNAN_clean_linker_2, # of connection points: 2
#     Edge 66, Type (0, 1), BuildingBlock: XUDNAN_clean_linker_2, # of connection points: 2
#     Edge 67, Type (0, 1), BuildingBlock: XUDNAN_clean_linker_2, # of connection points: 2
#     Edge 68, Type (0, 1), BuildingBlock: XUDNAN_clean_linker_2, # of connection points: 2
#     Edge 69, Type (0, 1), BuildingBlock: XUDNAN_clean_linker_2, # of connection points: 2
#     Edge 70, Type (0, 1), BuildingBlock: XUDNAN_clean_linker_2, # of connection points: 2
#     Edge 71, Type (0, 1), BuildingBlock: XUDNAN_clean_linker_2, # of connection points: 2
#     Edge 72, Type (0, 1), BuildingBlock: XUDNAN_clean_linker_2, # of connection points: 2
#     Edge 73, Type (0, 1), BuildingBlock: XUDNAN_clean_linker_2, # of connection points: 2
#     Edge 74, Type (0, 1), BuildingBlock: XUDNAN_clean_linker_2, # of connection points: 2
#     Edge 75, Type (0, 1), BuildingBlock: XUDNAN_clean_linker_2, # of connection points: 2
#     Edge 76, Type (0, 1), BuildingBlock: XUDNAN_clean_linker_2, # of connection points: 2
#     Edge 77, Type (0, 1), BuildingBlock: XUDNAN_clean_linker_2, # of connection points: 2
#     Edge 78, Type (0, 1), BuildingBlock: XUDNAN_clean_linker_2, # of connection points: 2
#     Edge 79, Type (0, 1), BuildingBlock: XUDNAN_clean_linker_2, # of connection points: 2
#     Edge 80, Type (0, 1), BuildingBlock: XUDNAN_clean_linker_2, # of connection points: 2
#     Edge 81, Type (0, 1), BuildingBlock: XUDNAN_clean_linker_2, # of connection points: 2
#     Edge 82, Type (0, 1), BuildingBlock: XUDNAN_clean_linker_2, # of connection points: 2
#     Edge 83, Type (0, 1), BuildingBlock: XUDNAN_clean_linker_2, # of connection points: 2
#     Edge 84, Type (0, 1), BuildingBlock: XUDNAN_clean_linker_2, # of connection points: 2
#     Edge 85, Type (0, 1), BuildingBlock: XUDNAN_clean_linker_2, # of connection points: 2
#     Edge 86, Type (0, 1), BuildingBlock: XUDNAN_clean_linker_2, # of connection points: 2
#     Edge 87, Type (0, 1), BuildingBlock: XUDNAN_clean_linker_2, # of connection points: 2
#     Edge 88, Type (0, 1), BuildingBlock: XUDNAN_clean_linker_2, # of connection points: 2
#     Edge 89, Type (0, 1), BuildingBlock: XUDNAN_clean_linker_2, # of connection points: 2
#     Edge 90, Type (0, 1), BuildingBlock: XUDNAN_clean_linker_2, # of connection points: 2
#     Edge 91, Type (0, 1), BuildingBlock: XUDNAN_clean_linker_2, # of connection points: 2
#     Edge 92, Type (0, 1), BuildingBlock: XUDNAN_clean_linker_2, # of connection points: 2
#     Edge 93, Type (0, 1), BuildingBlock: XUDNAN_clean_linker_2, # of connection points: 2
#     Edge 94, Type (0, 1), BuildingBlock: XUDNAN_clean_linker_2, # of connection points: 2
#     Edge 95, Type (0, 1), BuildingBlock: XUDNAN_clean_linker_2, # of connection points: 2
#     Edge 96, Type (0, 1), BuildingBlock: XUDNAN_clean_linker_2, # of connection points: 2
#     Edge 97, Type (0, 1), BuildingBlock: XUDNAN_clean_linker_2, # of connection points: 2
#     Edge 98, Type (0, 1), BuildingBlock: XUDNAN_clean_linker_2, # of connection points: 2
#     Edge 99, Type (0, 1), BuildingBlock: XUDNAN_clean_linker_2, # of connection points: 2
#     Edge 100, Type (0, 1), BuildingBlock: XUDNAN_clean_linker_2, # of connection points: 2
#     Edge 101, Type (0, 1), BuildingBlock: XUDNAN_clean_linker_2, # of connection points: 2
#     Edge 102, Type (0, 1), BuildingBlock: XUDNAN_clean_linker_2, # of connection points: 2
#     Edge 103, Type (0, 1), BuildingBlock: XUDNAN_clean_linker_2, # of connection points: 2
#     Edge 104, Type (0, 1), BuildingBlock: XUDNAN_clean_linker_2, # of connection points: 2
#     Edge 105, Type (0, 1), BuildingBlock: XUDNAN_clean_linker_2, # of connection points: 2
#     Edge 106, Type (0, 1), BuildingBlock: XUDNAN_clean_linker_2, # of connection points: 2
#     Edge 107, Type (0, 1), BuildingBlock: XUDNAN_clean_linker_2, # of connection points: 2
#     Edge 108, Type (0, 1), BuildingBlock: XUDNAN_clean_linker_2, # of connection points: 2
#     Edge 109, Type (0, 1), BuildingBlock: XUDNAN_clean_linker_2, # of connection points: 2
#     Edge 110, Type (0, 1), BuildingBlock: XUDNAN_clean_linker_2, # of connection points: 2
#     Edge 111, Type (0, 1), BuildingBlock: XUDNAN_clean_linker_2, # of connection points: 2
#     Edge 112, Type (0, 1), BuildingBlock: XUDNAN_clean_linker_2, # of connection points: 2
#     Edge 113, Type (0, 1), BuildingBlock: XUDNAN_clean_linker_2, # of connection points: 2
#     Edge 114, Type (0, 1), BuildingBlock: XUDNAN_clean_linker_2, # of connection points: 2
#     Edge 115, Type (0, 1), BuildingBlock: XUDNAN_clean_linker_2, # of connection points: 2
#     Edge 116, Type (0, 1), BuildingBlock: XUDNAN_clean_linker_2, # of connection points: 2
#     Edge 117, Type (0, 1), BuildingBlock: XUDNAN_clean_linker_2, # of connection points: 2
#     Edge 118, Type (0, 1), BuildingBlock: XUDNAN_clean_linker_2, # of connection points: 2
#     Edge 119, Type (0, 1), BuildingBlock: XUDNAN_clean_linker_2, # of connection points: 2
#     Edge 120, Type (0, 1), BuildingBlock: XUDNAN_clean_linker_2, # of connection points: 2
#     Edge 121, Type (0, 1), BuildingBlock: XUDNAN_clean_linker_2, # of connection points: 2
#     Edge 122, Type (0, 1), BuildingBlock: XUDNAN_clean_linker_2, # of connection points: 2
#     Edge 123, Type (0, 1), BuildingBlock: XUDNAN_clean_linker_2, # of connection points: 2
#     Edge 124, Type (0, 1), BuildingBlock: XUDNAN_clean_linker_2, # of connection points: 2
#     Edge 125, Type (0, 1), BuildingBlock: XUDNAN_clean_linker_2, # of connection points: 2
#     Edge 126, Type (0, 1), BuildingBlock: XUDNAN_clean_linker_2, # of connection points: 2
#     Edge 127, Type (0, 1), BuildingBlock: XUDNAN_clean_linker_2, # of connection points: 2
#     Edge 128, Type (0, 1), BuildingBlock: XUDNAN_clean_linker_2, # of connection points: 2
#     Edge 129, Type (0, 1), BuildingBlock: XUDNAN_clean_linker_2, # of connection points: 2
#     Edge 130, Type (0, 1), BuildingBlock: XUDNAN_clean_linker_2, # of connection points: 2
#     Edge 131, Type (0, 1), BuildingBlock: XUDNAN_clean_linker_2, # of connection points: 2
#     Edge 132, Type (0, 1), BuildingBlock: XUDNAN_clean_linker_2, # of connection points: 2
#     Edge 133, Type (0, 1), BuildingBlock: XUDNAN_clean_linker_2, # of connection points: 2
#     Edge 134, Type (0, 1), BuildingBlock: XUDNAN_clean_linker_2, # of connection points: 2
#     Edge 135, Type (0, 1), BuildingBlock: XUDNAN_clean_linker_2, # of connection points: 2
# Relax obj value: 0.067
# Max RMSD: 0.182
# Mean RMSD: 0.107
data_MOF--net-gar--node1-QUQFOY_clean_sbu_3--node2-KUMBUR_clean_sbu_1--edge1-XUDNAN_clean_linker_2
_symmetry_space_group_name_H-M    P1
_symmetry_Int_Tables_number       1
_symmetry_cell_setting            triclinic
loop_
_symmetry_equiv_pos_as_xyz
'x, y, z'
_cell_length_a     60.485608
_cell_length_b     61.598511
_cell_length_c     56.922834
_cell_angle_alpha  97.033899
_cell_angle_beta   96.165435
_cell_angle_gamma 101.3398
loop_
_atom_site_label
_atom_site_type_symbol
_atom_site_fract_x
_atom_site_fract_y
_atom_site_fract_z
_atom_type_partial_charge
C0 C 0.99801 0.31351 0.33121 0.0
O1 O 0.00887 0.33042 0.32361 0.0
Cd2 Cd 0.05025 0.33949 0.33728 0.0
O3 O 0.00938 0.30312 0.34467 0.0
Cd4 Cd 0.05221 0.30976 0.36469 0.0
C5 C 0.05308 0.36499 0.39146 0.0
O6 O 0.07494 0.31144 0.32883 0.0
O7 O 0.09519 0.3157 0.36309 0.0
O8 O 0.03882 0.26925 0.36438 0.0
C9 C 0.09448 0.31227 0.34054 0.0
O10 O 0.05669 0.37021 0.3711 0.0
C11 C 0.04646 0.26833 0.38582 0.0
O12 O 0.05013 0.34431 0.39411 0.0
O13 O 0.05728 0.28678 0.398 0.0
C14 C 0.97614 0.753 0.72684 0.0
O15 O 0.98594 0.73909 0.73614 0.0
Cd16 Cd 0.01839 0.73554 0.71398 0.0
O17 O 0.98599 0.76299 0.71109 0.0
Cd18 Cd 0.02523 0.75918 0.69474 0.0
C19 C 0.01682 0.70367 0.66791 0.0
O20 O 0.05778 0.755 0.7293 0.0
O21 O 0.06679 0.76827 0.69759 0.0
O22 O 0.02767 0.79915 0.68747 0.0
C23 C 0.07355 0.76328 0.71763 0.0
O24 O 0.01611 0.69944 0.68909 0.0
C25 C 0.02723 0.79455 0.66498 0.0
O26 O 0.01858 0.72398 0.6645 0.0
O27 O 0.02544 0.77405 0.65684 0.0
C28 C 0.49775 0.81091 0.83128 0.0
O29 O 0.50873 0.82802 0.82421 0.0
Cd30 Cd 0.54642 0.83228 0.84701 0.0
O31 O 0.50903 0.80078 0.84509 0.0
Cd32 Cd 0.55229 0.80962 0.86464 0.0
C33 C 0.55446 0.86469 0.8933 0.0
O34 O 0.5787 0.81954 0.831 0.0
O35 O 0.5916 0.80345 0.85942 0.0
O36 O 0.5435 0.76859 0.86447 0.0
C37 C 0.59458 0.81067 0.83985 0.0
O38 O 0.55283 0.8683 0.87186 0.0
C39 C 0.54783 0.76902 0.88689 0.0
O40 O 0.55491 0.84471 0.89722 0.0
O41 O 0.55387 0.78834 0.89938 0.0
C42 C 0.47603 0.25178 0.2241 0.0
O43 O 0.48806 0.24002 0.23427 0.0
Cd44 Cd 0.52029 0.24078 0.21116 0.0
O45 O 0.48422 0.26075 0.20678 0.0
Cd46 Cd 0.5252 0.25807 0.19069 0.0
C47 C 0.5218 0.20335 0.16912 0.0
O48 O 0.55722 0.26407 0.22806 0.0
O49 O 0.56729 0.25569 0.19386 0.0
O50 O 0.52864 0.29849 0.18385 0.0
C51 C 0.57347 0.26164 0.21607 0.0
O52 O 0.52487 0.20447 0.19168 0.0
C53 C 0.52846 0.29425 0.16142 0.0
O54 O 0.51807 0.22085 0.16092 0.0
O55 O 0.5268 0.27384 0.15312 0.0
C56 C 0.02516 0.78615 0.14314 0.0
O57 O 0.03696 0.77775 0.15796 0.0
Cd58 Cd 0.07437 0.77122 0.15507 0.0
O59 O 0.03341 0.79375 0.12524 0.0
Cd60 Cd 0.07092 0.80199 0.1076 0.0
C61 C 0.06581 0.74157 0.09655 0.0
O62 O 0.09628 0.80475 0.14662 0.0
O63 O 0.11387 0.80569 0.11604 0.0
O64 O 0.06577 0.8421 0.11194 0.0
C65 C 0.11504 0.80517 0.13843 0.0
O66 O 0.06958 0.74374 0.11928 0.0
C67 C 0.06457 0.84625 0.09054 0.0
O68 O 0.06452 0.75898 0.08614 0.0
O69 O 0.06668 0.82989 0.0754 0.0
C70 C 0.46123 0.77283 0.40778 0.0
O71 O 0.47582 0.7853 0.39815 0.0
Cd72 Cd 0.51556 0.79715 0.40896 0.0
O73 O 0.46768 0.76405 0.42619 0.0
Cd74 Cd 0.50752 0.76492 0.45299 0.0
C75 C 0.51574 0.82555 0.46626 0.0
O76 O 0.52791 0.76464 0.41764 0.0
O77 O 0.54981 0.77056 0.45098 0.0
O78 O 0.49741 0.72271 0.45043 0.0
C79 C 0.54787 0.76725 0.42838 0.0
O80 O 0.51843 0.82422 0.44429 0.0
C81 C 0.50569 0.7199 0.47108 0.0
O82 O 0.51107 0.80734 0.4757 0.0
O83 O 0.51326 0.73813 0.48541 0.0
C84 C 0.53021 0.29235 0.64874 0.0
O85 O 0.54237 0.28317 0.66235 0.0
Cd86 Cd 0.57829 0.27507 0.65694 0.0
O87 O 0.53713 0.29926 0.62989 0.0
Cd88 Cd 0.57239 0.30253 0.60743 0.0
C89 C 0.56693 0.24252 0.59913 0.0
O90 O 0.59817 0.30792 0.64562 0.0
O91 O 0.61557 0.30437 0.61503 0.0
O92 O 0.57043 0.34451 0.60788 0.0
C93 C 0.61666 0.30663 0.63765 0.0
O94 O 0.57142 0.24728 0.62177 0.0
C95 C 0.56732 0.34496 0.58554 0.0
O96 O 0.56471 0.25853 0.58685 0.0
O97 O 0.56706 0.32624 0.57288 0.0
C98 C 0.95994 0.27227 0.90627 0.0
O99 O 0.97461 0.28531 0.89732 0.0
Cd100 Cd 0.01434 0.2958 0.90899 0.0
O101 O 0.96639 0.2628 0.92413 0.0
Cd102 Cd 0.0071 0.26518 0.95012 0.0
C103 C 0.0146 0.32644 0.96391 0.0
O104 O 0.02723 0.26218 0.91469 0.0
O105 O 0.04918 0.27614 0.94734 0.0
O106 O 1.00109 0.22205 0.95172 0.0
C107 C 0.04729 0.26776 0.92555 0.0
O108 O 0.01867 0.32594 0.9424 0.0
C109 C 0.00894 0.22282 0.97352 0.0
O110 O 0.00914 0.30764 0.97216 0.0
O111 O 0.01418 0.24264 0.98513 0.0
C112 C 0.40967 0.01749 0.36032 0.0
O113 O 0.41982 0.03488 0.35318 0.0
Cd114 Cd 0.41442 0.01547 0.31278 0.0
O115 O 0.39543 1.00339 0.34552 0.0
Cd116 Cd 0.38425 0.0227 0.31263 0.0
C117 C 0.36611 0.97473 0.30082 0.0
O118 O 0.41001 0.03968 0.28531 0.0
O119 O 0.38124 0.01362 0.26934 0.0
O120 O 0.3852 0.059 0.3336 0.0
C121 C 0.39772 0.0289 0.26656 0.0
O122 O 0.38776 0.97805 0.30349 0.0
C123 C 0.36392 0.05694 0.32814 0.0
O124 O 0.35632 0.99101 0.30294 0.0
O125 O 0.35249 0.03817 0.31744 0.0
C126 C 0.30551 0.15192 0.52246 0.0
O127 O 0.29258 0.13726 0.53143 0.0
Cd128 Cd 0.25541 0.13964 0.5396 0.0
O129 O 0.29846 0.16839 0.51497 0.0
Cd130 Cd 0.26212 0.18225 0.50714 0.0
C131 C 0.26732 0.1955 0.5682 0.0
O132 O 0.23686 0.1455 0.50309 0.0
O133 O 0.21941 0.1725 0.50491 0.0
O134 O 0.27697 0.18542 0.46888 0.0
C135 C 0.21808 0.15157 0.50341 0.0
O136 O 0.26161 0.17439 0.56791 0.0
C137 C 0.27084 0.20337 0.46509 0.0
O138 O 0.26954 0.20383 0.54882 0.0
O139 O 0.26021 0.21189 0.4807 0.0
C140 C 0.10557 0.0517 0.83609 0.0
O141 O 0.09611 0.06589 0.82696 0.0
Cd142 Cd 0.10411 0.07511 0.78808 0.0
O143 O 0.12031 0.04355 0.82553 0.0
Cd144 Cd 0.14014 0.04931 0.78911 0.0
C145 C 0.15867 0.10538 0.79542 0.0
O146 O 0.10596 0.04423 0.75825 0.0
O147 O 0.13908 0.05383 0.74685 0.0
O148 O 0.14433 0.01074 0.77944 0.0
C149 C 0.11765 0.04815 0.74134 0.0
O150 O 0.13741 0.10472 0.7919 0.0
C151 C 0.16431 0.01377 0.79037 0.0
O152 O 0.16582 0.0874 0.79677 0.0
O153 O 0.17352 0.03348 0.80044 0.0
C154 C 0.34648 0.96508 0.99916 0.0
O155 O 0.33785 0.97859 0.98786 0.0
Cd156 Cd 0.29992 0.97268 0.96989 0.0
O157 O 0.33468 0.94721 0.00367 0.0
Cd158 Cd 0.2965 0.92842 0.9974 0.0
C159 C 0.3023 0.92168 0.94034 0.0
O160 O 0.27721 0.95753 0.99709 0.0
O161 O 0.25779 0.92487 0.97985 0.0
O162 O 0.29763 0.92339 0.03864 0.0
C163 C 0.25857 0.94544 0.98646 0.0
O164 O 0.2992 0.94144 0.93942 0.0
C165 C 0.29359 0.90217 0.03398 0.0
O166 O 0.30393 0.9138 0.95989 0.0
O167 O 0.29061 0.89339 0.01216 0.0
C168 C 0.35007 0.42508 0.04562 0.0
O169 O 0.33838 0.43739 0.03601 0.0
Cd170 Cd 0.29984 0.42635 0.02156 0.0
O171 O 0.34072 0.40566 0.04989 0.0
Cd172 Cd 0.30017 0.38287 0.04774 0.0
C173 C 0.29569 0.37325 0.98763 0.0
O174 O 0.28305 0.41502 0.05444 0.0
O175 O 0.25934 0.38511 0.0385 0.0
O176 O 0.30707 0.37886 0.09049 0.0
C177 C 0.26257 0.40553 0.04742 0.0
O178 O 0.29514 0.39398 0.99076 0.0
C179 C 0.29696 0.35845 0.08789 0.0
O180 O 0.299 0.36321 0.00565 0.0
O181 O 0.28991 0.34898 0.06653 0.0
C182 C 0.80452 0.10039 0.07661 0.0
O183 O 0.79134 0.08846 0.08813 0.0
Cd184 Cd 0.75354 0.09614 0.08599 0.0
O185 O 0.79708 0.11316 0.06356 0.0
Cd186 Cd 0.7676 0.12799 0.04894 0.0
C187 C 0.77338 0.15199 0.10293 0.0
O188 O 0.73551 0.09892 0.04669 0.0
O189 O 0.73201 0.13377 0.0551 0.0
O190 O 0.77345 0.12675 0.00748 0.0
C191 C 0.7231 0.11335 0.04795 0.0
O192 O 0.76216 0.13371 0.10784 0.0
C193 C 0.77522 0.14779 0.00862 0.0
O194 O 0.77964 0.15357 0.08266 0.0
O195 O 0.77401 0.15887 0.02855 0.0
C196 C 0.1533 0.54795 0.28338 0.0
O197 O 0.14107 0.5583 0.27131 0.0
Cd198 Cd 0.14712 0.56723 0.2333 0.0
O199 O 0.17025 0.54152 0.27586 0.0
Cd200 Cd 0.18833 0.54383 0.24058 0.0
C201 C 0.20078 0.59702 0.25535 0.0
O202 O 0.15547 0.53402 0.2151 0.0
O203 O 0.18457 0.55007 0.19939 0.0
O204 O 0.18786 0.50583 0.23803 0.0
C205 C 0.16512 0.53699 0.19683 0.0
O206 O 0.18084 0.59615 0.24502 0.0
C207 C 0.2089 0.50831 0.23657 0.0
O208 O 0.20839 0.5797 0.25812 0.0
O209 O 0.22092 0.52798 0.23844 0.0
C210 C 0.84914 0.92535 0.54542 0.0
O211 O 0.8369 0.9385 0.53861 0.0
Cd212 Cd 0.79799 0.92563 0.52237 0.0
O213 O 0.84026 0.90515 0.54738 0.0
Cd214 Cd 0.80082 0.8823 0.54793 0.0
C215 C 0.79643 0.87268 0.48801 0.0
O216 O 0.7791 0.91224 0.55309 0.0
O217 O 0.76013 0.87941 0.53757 0.0
O218 O 0.80912 0.88519 0.59063 0.0
C219 C 0.75993 0.8996 0.54513 0.0
O220 O 0.79527 0.89327 0.4916 0.0
C221 C 0.80237 0.86472 0.59247 0.0
O222 O 0.79993 0.86237 0.50582 0.0
O223 O 0.79631 0.8512 0.57299 0.0
C224 C 0.96396 0.01488 0.31447 0.0
O225 O 0.97388 1.00206 0.30228 0.0
Cd226 Cd 0.9628 0.99044 0.26001 0.0
O227 O 0.9481 0.02271 0.30413 0.0
Cd228 Cd 0.92997 0.01969 0.26085 0.0
C229 C 0.90819 0.96329 0.25754 0.0
O230 O 0.96351 0.02208 0.23788 0.0
O231 O 0.93027 0.01465 0.21705 0.0
O232 O 0.92486 0.05917 0.26606 0.0
C233 C 0.95168 0.01941 0.21747 0.0
O234 O 0.92828 0.96066 0.25573 0.0
C235 C 0.90329 0.05347 0.26393 0.0
O236 O 0.904 0.98282 0.25993 0.0
O237 O 0.89464 0.03267 0.26003 0.0
C238 C 0.30872 0.60724 0.57925 0.0
O239 O 0.2948 0.59412 0.58895 0.0
Cd240 Cd 0.25506 0.59446 0.5856 0.0
O241 O 0.30238 0.62128 0.56698 0.0
Cd242 Cd 0.27139 0.63639 0.55471 0.0
C243 C 0.26383 0.64802 0.61116 0.0
O244 O 0.24356 0.60337 0.54728 0.0
O245 O 0.23191 0.6347 0.55094 0.0
O246 O 0.27716 0.64225 0.51416 0.0
C247 C 0.22728 0.61357 0.54653 0.0
O248 O 0.2538 0.62787 0.61129 0.0
C249 C 0.27643 0.66281 0.51901 0.0
O250 O 0.27377 0.65443 0.59392 0.0
O251 O 0.2765 0.67077 0.54068 0.0
C252 C 0.46706 0.5158 0.8143 0.0
O253 O 0.47315 0.49949 0.8028 0.0
Cd254 Cd 0.46174 0.489 0.75972 0.0
O255 O 0.45386 0.5262 0.80342 0.0
Cd256 Cd 0.43208 0.51853 0.76192 0.0
C257 C 0.4096 0.46265 0.76101 0.0
O258 O 0.46313 0.51942 0.73551 0.0
O259 O 0.4283 0.50995 0.7186 0.0
O260 O 0.42793 0.558 0.76716 0.0
C261 C 0.44917 0.5158 0.71636 0.0
O262 O 0.42764 0.4591 0.75322 0.0
C263 C 0.40633 0.55298 0.76424 0.0
O264 O 0.40781 0.48258 0.76801 0.0
O265 O 0.397 0.53234 0.76009 0.0
C266 C 0.65382 0.05157 0.78835 0.0
O267 O 0.63862 0.05752 0.77497 0.0
Cd268 Cd 0.64133 0.06262 0.73454 0.0
O269 O 0.67111 0.04615 0.78072 0.0
Cd270 Cd 0.68624 0.04248 0.74419 0.0
C271 C 0.69492 0.09581 0.74883 0.0
O272 O 0.65405 0.03208 0.71568 0.0
O273 O 0.6849 0.04829 0.70335 0.0
O274 O 0.69298 0.00672 0.74611 0.0
C275 C 0.66401 0.03881 0.69862 0.0
O276 O 0.67449 0.093 0.73879 0.0
C277 C 0.71426 0.01311 0.74599 0.0
O278 O 0.70322 0.08 0.75568 0.0
O279 O 0.72243 0.03369 0.74576 0.0
C280 C 0.80189 0.64965 0.0194 0.0
O281 O 0.78796 0.63569 0.0281 0.0
Cd282 Cd 0.75144 0.64028 0.03478 0.0
O283 O 0.79667 0.66736 0.01309 0.0
Cd284 Cd 0.76215 0.68467 0.00931 0.0
C285 C 0.76418 0.69393 0.06954 0.0
O286 O 0.73556 0.64864 0.99824 0.0
O287 O 0.71968 0.67563 0.00945 0.0
O288 O 0.77571 0.68601 0.97093 0.0
C289 C 0.71738 0.65514 0.00109 0.0
O290 O 0.75745 0.67271 0.06548 0.0
C291 C 0.77157 0.70464 0.96676 0.0
O292 O 0.76952 0.70476 0.05242 0.0
O293 O 0.76271 0.71507 0.98274 0.0
C294 C 0.91927 0.50847 0.8533 0.0
O295 O 0.93086 0.5005 0.83844 0.0
Cd296 Cd 0.92508 0.49839 0.79631 0.0
O297 O 0.90324 0.51781 0.84721 0.0
Cd298 Cd 0.88451 0.52458 0.8117 0.0
C299 C 0.87031 0.47038 0.79617 0.0
O300 O 0.91388 0.53129 0.78754 0.0
O301 O 0.87948 0.52344 0.76902 0.0
O302 O 0.88624 0.56169 0.82865 0.0
C303 C 0.90069 0.5282 0.76799 0.0
O304 O 0.88999 0.47092 0.78998 0.0
C305 C 0.86478 0.55956 0.82594 0.0
O306 O 0.86427 0.48739 0.80618 0.0
O307 O 0.85248 0.54037 0.81769 0.0
C308 C 0.8503 0.4687 0.49409 0.0
O309 O 0.84072 0.47665 0.4772 0.0
Cd310 Cd 0.80076 0.47225 0.46653 0.0
O311 O 0.83929 0.45527 0.50592 0.0
Cd312 Cd 0.80182 0.43482 0.50267 0.0
C313 C 0.79748 0.41883 0.4449 0.0
O314 O 0.78247 0.46454 0.49999 0.0
O315 O 0.76254 0.43044 0.49018 0.0
O316 O 0.80468 0.43009 0.54442 0.0
C317 C 0.76339 0.45129 0.49324 0.0
O318 O 0.79123 0.43677 0.44114 0.0
C319 C 0.79829 0.4089 0.53995 0.0
O320 O 0.80565 0.41566 0.46535 0.0
O321 O 0.79452 0.4 0.51818 0.0
C322 C 0.60572 0.55307 0.3365 0.0
O323 O 0.59874 0.56932 0.32876 0.0
Cd324 Cd 0.60709 0.57889 0.28992 0.0
O325 O 0.61892 0.54336 0.32505 0.0
Cd326 Cd 0.63975 0.54999 0.2895 0.0
C327 C 0.66134 0.60661 0.29663 0.0
O328 O 0.60576 0.54705 0.25935 0.0
O329 O 0.63878 0.55433 0.24716 0.0
O330 O 0.6443 0.51145 0.27862 0.0
C331 C 0.61729 0.54981 0.2421 0.0
O332 O 0.64078 0.60855 0.29324 0.0
C333 C 0.6639 0.51418 0.29039 0.0
O334 O 0.66612 0.5875 0.29782 0.0
O335 O 0.67265 0.53363 0.30148 0.0
Tb336 Tb 0.06575 0.04584 0.04893 0.0
C337 C 0.98782 0.97329 0.98647 0.0
N338 N 1.00075 0.99258 0.98174 0.0
C339 C 0.99964 0.97588 0.94113 0.0
C340 C 0.98037 0.95447 0.9686 0.0
C341 C 0.00659 0.99415 0.95936 0.0
C342 C 0.98649 0.95596 0.94575 0.0
C343 C 0.96755 0.9531 0.0145 0.0
C344 C 0.98139 0.97265 0.00914 0.0
C345 C 0.96036 0.93426 0.99683 0.0
C346 C 0.96666 0.93497 0.97393 0.0
Tb347 Tb 0.00728 0.02208 0.01191 0.0
N348 N 0.98812 0.99141 0.02567 0.0
C349 C 0.96073 0.95331 0.03723 0.0
C350 C 0.97998 0.9921 0.04715 0.0
C351 C 0.9668 0.97299 0.05354 0.0
H352 H 0.01553 0.0098 0.95508 0.0
H353 H 0.96065 0.9737 0.07073 0.0
H354 H 0.05556 0.05765 0.10541 0.0
H355 H 0.11711 0.09397 0.99395 0.0
H356 H 0.98234 0.0075 0.05893 0.0
H357 H 0.95008 0.93866 0.04203 0.0
H358 H 0.09359 0.06022 0.00431 0.0
H359 H 1.00404 0.97735 0.92337 0.0
H360 H 0.94959 0.91917 0.00059 0.0
H361 H 0.96066 0.92041 0.96037 0.0
H362 H 0.06516 0.09008 0.13701 0.0
H363 H 0.98087 0.94196 0.93147 0.0
H364 H 0.12565 0.12923 0.02219 0.0
N365 N 0.07105 0.07518 0.07924 0.0
C366 C 0.08404 0.09464 0.07505 0.0
C367 C 0.07028 0.09169 0.11955 0.0
C368 C 0.09056 0.11346 0.09302 0.0
C369 C 0.06437 0.07341 0.10128 0.0
C370 C 0.08339 0.11182 0.11541 0.0
N371 N 0.08557 0.07668 0.03626 0.0
C372 C 0.09536 0.0758 0.01577 0.0
C373 C 0.10589 0.11497 0.04825 0.0
C374 C 0.09153 0.09542 0.05287 0.0
C375 C 0.1144 0.11463 0.02635 0.0
C376 C 0.10941 0.09483 0.01022 0.0
H377 H 0.08824 0.12584 0.12975 0.0
H378 H 0.10976 0.14768 0.10192 0.0
H379 H 0.1232 0.14898 0.06275 0.0
O380 O 0.09552 0.03512 0.04195 0.0
O381 O 0.04615 0.07182 0.04056 0.0
O382 O 0.02185 0.05693 0.00589 0.0
O383 O 0.09029 0.04699 0.07839 0.0
O384 O 0.0644 0.02857 0.01198 0.0
O385 O 0.03305 0.03601 0.99102 0.0
O386 O 0.97749 0.0316 0.01948 0.0
O387 O 0.02675 0.9954 0.02101 0.0
O388 O 0.04984 0.01234 0.05569 0.0
O389 O 0.98255 0.02193 0.98242 0.0
O390 O 0.00863 0.04035 0.04834 0.0
O391 O 0.0394 0.03219 0.06949 0.0
C392 C 0.03297 0.07447 0.02144 0.0
C393 C 0.12596 0.03638 0.07372 0.0
C394 C 0.16105 0.02604 0.06513 0.0
C395 C 0.1707 0.03412 0.089 0.0
C396 C 0.13541 0.04401 0.09761 0.0
C397 C 0.15775 0.04275 0.10522 0.0
C398 C 0.13856 0.02694 0.05783 0.0
C399 C 0.05352 0.03215 0.992 0.0
C400 C 0.10377 0.03985 0.06454 0.0
C401 C 0.10448 0.1331 0.08829 0.0
C402 C 0.1121 0.13386 0.06596 0.0
C403 C 0.03983 0.99403 0.04088 0.0
C404 C 0.94731 0.03339 0.98922 0.0
C405 C 0.91616 0.0499 1e-05 0.0
C406 C 0.90525 0.04395 0.97635 0.0
C407 C 0.93656 0.02731 0.96557 0.0
C408 C 0.93723 0.04493 0.00607 0.0
C409 C 0.91554 0.03271 0.95916 0.0
C410 C 0.01946 0.03739 0.06861 0.0
C411 C 0.96943 0.02886 0.99689 0.0
H412 H 0.18818 0.03383 0.09517 0.0
H413 H 0.12576 0.05136 0.11019 0.0
H414 H 0.16516 0.04878 0.12358 0.0
H415 H 0.13075 0.02023 0.03968 0.0
H416 H 0.88878 0.04768 0.97126 0.0
H417 H 0.94438 0.01856 0.95218 0.0
H418 H 0.94599 0.05039 0.02412 0.0
H419 H 0.90717 0.02809 0.94094 0.0
Tb420 Tb 0.26405 0.78825 0.3095 0.0
C421 C 0.31928 0.73973 0.2252 0.0
N422 N 0.32655 0.75652 0.24396 0.0
C423 C 0.36167 0.74433 0.25116 0.0
C424 C 0.33282 0.72428 0.21899 0.0
C425 C 0.34756 0.75914 0.25681 0.0
C426 C 0.35425 0.72678 0.23225 0.0
C427 C 0.28964 0.72032 0.19313 0.0
C428 C 0.29809 0.73791 0.21225 0.0
C429 C 0.303 0.70482 0.18701 0.0
C430 C 0.32458 0.70685 0.19984 0.0
Tb431 Tb 0.30247 0.78021 0.25082 0.0
N432 N 0.28539 0.75293 0.21908 0.0
C433 C 0.26795 0.7187 0.18085 0.0
C434 C 0.26449 0.7518 0.20641 0.0
C435 C 0.25539 0.73458 0.18747 0.0
H436 H 0.35383 0.77301 0.27102 0.0
H437 H 0.23867 0.73364 0.17792 0.0
H438 H 0.21279 0.79629 0.29374 0.0
H439 H 0.33602 0.83767 0.37209 0.0
H440 H 0.25441 0.76383 0.21057 0.0
H441 H 0.2608 0.70535 0.16619 0.0
H442 H 0.31677 0.80616 0.34232 0.0
H443 H 0.37835 0.74656 0.26132 0.0
H444 H 0.29679 0.6912 0.17241 0.0
H445 H 0.33473 0.69479 0.19486 0.0
H446 H 0.19008 0.82412 0.3048 0.0
H447 H 0.36522 0.71533 0.22796 0.0
H448 H 0.3159 0.8672 0.38541 0.0
N449 N 0.24279 0.8142 0.31634 0.0
C450 C 0.25218 0.83181 0.33358 0.0
C451 C 0.20762 0.82664 0.31283 0.0
C452 C 0.23971 0.84794 0.34079 0.0
C453 C 0.22067 0.81107 0.30631 0.0
C454 C 0.2172 0.84521 0.33008 0.0
N455 N 0.28557 0.81728 0.337 0.0
C456 C 0.3075 0.8187 0.34703 0.0
C457 C 0.28478 0.85186 0.36182 0.0
C458 C 0.27433 0.83353 0.34414 0.0
C459 C 0.30724 0.85335 0.37184 0.0
C460 C 0.31865 0.83674 0.36435 0.0
H461 H 0.20699 0.85716 0.33524 0.0
H462 H 0.24062 0.87855 0.36445 0.0
H463 H 0.28018 0.88213 0.38269 0.0
O464 O 0.25717 0.779 0.34233 0.0
O465 O 0.27464 0.81811 0.29431 0.0
O466 O 0.30415 0.80455 0.2824 0.0
O467 O 0.23384 0.76448 0.31023 0.0
O468 O 0.29553 0.774 0.31658 0.0
O469 O 0.32094 0.78208 0.28786 0.0
O470 O 0.29977 0.80293 0.22678 0.0
O471 O 0.28311 0.74771 0.25427 0.0
O472 O 0.27619 0.76979 0.28274 0.0
O473 O 0.33278 0.79568 0.23868 0.0
O474 O 0.26853 0.78942 0.24465 0.0
O475 O 0.24313 0.78452 0.27365 0.0
C476 C 0.29197 0.81981 0.2824 0.0
C477 C 0.23156 0.74503 0.34406 0.0
C478 C 0.23629 0.7247 0.37749 0.0
C479 C 0.2145 0.71127 0.37013 0.0
C480 C 0.20978 0.73146 0.33682 0.0
C481 C 0.20138 0.71454 0.34974 0.0
C482 C 0.24498 0.74133 0.36432 0.0
C483 C 0.31588 0.7751 0.30851 0.0
C484 C 0.238 0.76542 0.33332 0.0
C485 C 0.24996 0.86603 0.35859 0.0
C486 C 0.27247 0.86804 0.36901 0.0
C487 C 0.2719 0.74962 0.27194 0.0
C488 C 0.33182 0.82188 0.21003 0.0
C489 C 0.32763 0.84125 0.17587 0.0
C490 C 0.35127 0.84921 0.17863 0.0
C491 C 0.35551 0.82962 0.2126 0.0
C492 C 0.31794 0.82782 0.19166 0.0
C493 C 0.36516 0.84337 0.19698 0.0
C494 C 0.24813 0.78873 0.25203 0.0
C495 C 0.32146 0.80654 0.22535 0.0
H496 H 0.20733 0.69888 0.38075 0.0
H497 H 0.19887 0.73457 0.32178 0.0
H498 H 0.18433 0.70455 0.34451 0.0
H499 H 0.26144 0.75221 0.37084 0.0
H500 H 0.35897 0.85924 0.16609 0.0
H501 H 0.36653 0.82488 0.22647 0.0
H502 H 0.29967 0.82136 0.18901 0.0
H503 H 0.38343 0.84914 0.19879 0.0
Tb504 Tb 0.50372 0.03117 0.54149 0.0
C505 C 0.58905 0.07663 0.49304 0.0
N506 N 0.57354 0.05685 0.48709 0.0
C507 C 0.56615 0.06519 0.4471 0.0
C508 C 0.59261 0.09195 0.47657 0.0
C509 C 0.56337 0.05042 0.46384 0.0
C510 C 0.58041 0.08625 0.45364 0.0
C511 C 0.61991 0.10055 0.52117 0.0
C512 C 0.60268 0.08094 0.51511 0.0
C513 C 0.62253 0.11633 0.50533 0.0
C514 C 0.60891 0.11205 0.4831 0.0
Tb515 Tb 0.57014 0.03574 0.51779 0.0
N516 N 0.59967 0.06549 0.53024 0.0
C517 C 0.63448 0.10339 0.54266 0.0
C518 C 0.61496 0.06733 0.55022 0.0
C519 C 0.63227 0.08648 0.557 0.0
H520 H 0.55345 0.0338 0.45744 0.0
H521 H 0.64391 0.08816 0.57327 0.0
H522 H 0.51603 0.03595 0.60242 0.0
H523 H 0.43972 0.97147 0.47967 0.0
H524 H 0.6136 0.05427 0.56135 0.0
H525 H 0.64794 0.1182 0.54793 0.0
H526 H 0.46775 0.00665 0.49282 0.0
H527 H 0.55761 0.06012 0.42898 0.0
H528 H 0.63551 0.1316 0.50981 0.0
H529 H 0.61165 0.12407 0.47076 0.0
H530 H 0.50898 0.0115 0.63259 0.0
H531 H 0.58272 0.09753 0.44049 0.0
H532 H 0.43135 0.94457 0.50808 0.0
N533 N 0.49783 0.01153 0.57303 0.0
C534 C 0.4826 0.99152 0.56708 0.0
C535 C 0.50176 0.00551 0.61415 0.0
C536 C 0.4773 0.97736 0.58433 0.0
C537 C 0.50621 0.01918 0.59659 0.0
C538 C 0.48757 0.98437 0.60794 0.0
N539 N 0.47667 0.99945 0.5275 0.0
C540 C 0.46498 0.99487 0.50498 0.0
C541 C 0.45516 0.9652 0.53723 0.0
C542 C 0.47142 0.9855 0.5438 0.0
C543 C 0.44397 0.95997 0.51378 0.0
C544 C 0.44872 0.97502 0.49767 0.0
H545 H 0.48398 0.97395 0.62167 0.0
H546 H 0.4574 0.94582 0.59071 0.0
H547 H 0.43813 0.93516 0.54947 0.0
O548 O 0.47479 0.04159 0.52575 0.0
O549 O 0.51112 0.9976 0.52722 0.0
O550 O 0.54871 1.00283 0.51884 0.0
O551 O 0.48713 0.05 0.5636 0.0
O552 O 0.51927 0.04125 0.51098 0.0
O553 O 0.54135 0.02256 0.4912 0.0
O554 O 0.59725 0.02184 0.5318 0.0
O555 O 0.56246 0.06855 0.53344 0.0
O556 O 0.52412 0.06557 0.54062 0.0
O557 O 0.58587 0.01767 0.49385 0.0
O558 O 0.55669 0.02695 0.54999 0.0
O559 O 0.5323 0.04353 0.56896 0.0
C560 C 0.52905 0.98976 0.52099 0.0
C561 C 0.44954 0.05311 0.55237 0.0
C562 C 0.42123 0.07601 0.55583 0.0
C563 C 0.41218 0.06352 0.57292 0.0
C564 C 0.44016 0.04052 0.56924 0.0
C565 C 0.42143 0.04568 0.57935 0.0
C566 C 0.43965 0.07048 0.54525 0.0
C567 C 0.52166 0.02742 0.49283 0.0
C568 C 0.47227 0.05218 0.54624 0.0
C569 C 0.46151 0.95691 0.5777 0.0
C570 C 0.45047 0.95086 0.55423 0.0
C571 C 0.54473 0.07743 0.53873 0.0
C572 C 0.62315 0.01317 0.50489 0.0
C573 C 0.65365 0.99273 0.50332 0.0
C574 C 0.66233 0.00543 0.48622 0.0
C575 C 0.63227 0.02604 0.4881 0.0
C576 C 0.63418 0.99681 0.51286 0.0
C577 C 0.65182 0.02215 0.47886 0.0
C578 C 0.55296 0.04124 0.56714 0.0
C579 C 0.60009 0.01326 0.51054 0.0
H580 H 0.39811 0.06776 0.58148 0.0
H581 H 0.44795 0.02747 0.5754 0.0
H582 H 0.41454 0.03631 0.59276 0.0
H583 H 0.44731 0.08074 0.53284 0.0
H584 H 0.67701 1.00208 0.47822 0.0
H585 H 0.62373 0.03837 0.48135 0.0
H586 H 0.62674 0.98625 0.52513 0.0
H587 H 0.65841 0.03162 0.46539 0.0
Tb588 Tb 0.31511 0.27187 0.78281 0.0
C589 C 0.23345 0.30694 0.72855 0.0
N590 N 0.24925 0.31694 0.74757 0.0
C591 C 0.25351 0.3518 0.73198 0.0
C592 C 0.22728 0.31897 0.71026 0.0
C593 C 0.25887 0.33926 0.74982 0.0
C594 C 0.23777 0.34159 0.71203 0.0
C595 C 0.20546 0.27405 0.70914 0.0
C596 C 0.22287 0.28468 0.72782 0.0
C597 C 0.19963 0.28581 0.69059 0.0
C598 C 0.21056 0.30819 0.69111 0.0
Tb599 Tb 0.25588 0.29454 0.77551 0.0
N600 N 0.22939 0.27362 0.74574 0.0
C601 C 0.19409 0.2521 0.71001 0.0
C602 C 0.21761 0.2527 0.74734 0.0
C603 C 0.19992 0.24153 0.72944 0.0
H604 H 0.27024 0.34774 0.76562 0.0
H605 H 0.19089 0.22477 0.73059 0.0
H606 H 0.30262 0.21871 0.79262 0.0
H607 H 0.37843 0.34254 0.82889 0.0
H608 H 0.22171 0.24466 0.76235 0.0
H609 H 0.18054 0.24336 0.69607 0.0
H610 H 0.35102 0.32065 0.79487 0.0
H611 H 0.26127 0.36943 0.73381 0.0
H612 H 0.18643 0.27786 0.67595 0.0
H613 H 0.20565 0.31715 0.67684 0.0
H614 H 0.31052 0.19743 0.82528 0.0
H615 H 0.23347 0.35143 0.69836 0.0
H616 H 0.38631 0.3254 0.86521 0.0
N617 N 0.32183 0.24988 0.81131 0.0
C618 C 0.33656 0.26033 0.831 0.0
C619 C 0.31772 0.2152 0.82727 0.0
C620 C 0.34208 0.24872 0.84989 0.0
C621 C 0.31287 0.22743 0.80895 0.0
C622 C 0.33223 0.22592 0.84794 0.0
N623 N 0.34108 0.2931 0.81301 0.0
C624 C 0.35315 0.3138 0.81123 0.0
C625 C 0.36279 0.294 0.85135 0.0
C626 C 0.34668 0.28267 0.8318 0.0
C627 C 0.37373 0.3161 0.85061 0.0
C628 C 0.36921 0.32589 0.83022 0.0
H629 H 0.3361 0.21636 0.86202 0.0
H630 H 0.36195 0.2515 0.88459 0.0
H631 H 0.38014 0.29115 0.88584 0.0
O632 O 0.34237 0.28137 0.76255 0.0
O633 O 0.30297 0.28475 0.81691 0.0
O634 O 0.28347 0.30991 0.80368 0.0
O635 O 0.33462 0.2484 0.77347 0.0
O636 O 0.31504 0.3027 0.7659 0.0
O637 O 0.28753 0.31991 0.78075 0.0
O638 O 0.2289 0.28451 0.79632 0.0
O639 O 0.26677 0.28053 0.74207 0.0
O640 O 0.29156 0.25711 0.75027 0.0
O641 O 0.2371 0.31786 0.78653 0.0
O642 O 0.26034 0.2666 0.79438 0.0
O643 O 0.28326 0.24574 0.77702 0.0
C644 C 0.29158 0.30073 0.82126 0.0
C645 C 0.36612 0.25461 0.75018 0.0
C646 C 0.3976 0.26087 0.72611 0.0
C647 C 0.39903 0.23835 0.7259 0.0
C648 C 0.36823 0.23222 0.74958 0.0
C649 C 0.38454 0.22424 0.7376 0.0
C650 C 0.38114 0.2691 0.73856 0.0
C651 C 0.30613 0.32049 0.77042 0.0
C652 C 0.34747 0.26176 0.76212 0.0
C653 C 0.35756 0.26011 0.86984 0.0
C654 C 0.3679 0.28271 0.87057 0.0
C655 C 0.27946 0.26633 0.73527 0.0
C656 C 0.2045 0.31132 0.80786 0.0
C657 C 0.1724 0.3063 0.83151 0.0
C658 C 0.16719 0.32614 0.8247 0.0
C659 C 0.19877 0.33124 0.80209 0.0
C660 C 0.1911 0.29866 0.82262 0.0
C661 C 0.18029 0.33847 0.81035 0.0
C662 C 0.26446 0.24714 0.7864 0.0
C663 C 0.22367 0.30405 0.79691 0.0
H664 H 0.41171 0.23168 0.71693 0.0
H665 H 0.35706 0.22067 0.75824 0.0
H666 H 0.38594 0.20697 0.73733 0.0
H667 H 0.37982 0.28641 0.73883 0.0
H668 H 0.15261 0.33214 0.83024 0.0
H669 H 0.20836 0.34121 0.79068 0.0
H670 H 0.19522 0.28323 0.8272 0.0
H671 H 0.17596 0.35368 0.80539 0.0
Tb672 Tb 0.0494 1.00027 0.52047 0.0
C673 C 0.01532 0.08659 0.57728 0.0
N674 N 0.00538 0.07247 0.55706 0.0
C675 C 0.96872 0.07104 0.57018 0.0
C676 C 1.00248 0.09284 0.59524 0.0
C677 C 0.9822 0.06548 0.55281 0.0
C678 C 0.97894 0.08451 0.59165 0.0
C679 C 0.04939 0.11095 0.59965 0.0
C680 C 0.03834 0.09553 0.57948 0.0
C681 C 0.03693 0.11655 0.6181 0.0
C682 C 0.0135 0.1075 0.6159 0.0
Tb683 Tb 0.02978 0.06216 0.53163 0.0
N684 N 0.04987 0.08925 0.56154 0.0
C685 C 0.07253 0.12041 0.60045 0.0
C686 C 0.072 0.09949 0.56148 0.0
C687 C 0.08379 0.11494 0.58106 0.0
H688 H 0.97407 0.05524 0.53616 0.0
H689 H 0.10148 0.1227 0.58113 0.0
H690 H 0.10432 0.01868 0.51296 0.0
H691 H 0.98539 0.93204 0.47086 0.0
H692 H 0.08048 0.09588 0.54627 0.0
H693 H 0.08168 0.13234 0.61562 0.0
H694 H 1.00383 0.9592 0.50623 0.0
H695 H 0.95046 0.06494 0.56698 0.0
H696 H 0.04515 0.12814 0.63392 0.0
H697 H 1.004 0.11228 0.63005 0.0
H698 H 0.12752 0.01545 0.48058 0.0
H699 H 0.96846 0.08882 0.60505 0.0
H700 H 1.00433 0.92959 0.43448 0.0
N701 N 0.07384 0.99856 0.49258 0.0
C702 C 0.06484 0.98445 0.47194 0.0
C703 C 0.10981 0.0069 0.4778 0.0
C704 C 0.07791 0.98149 0.45319 0.0
C705 C 0.09631 0.00907 0.49604 0.0
C706 C 0.10052 0.99325 0.45619 0.0
N707 N 0.03111 0.97435 0.48898 0.0
C708 C 0.01149 0.95934 0.48999 0.0
C709 C 0.03344 0.95596 0.44979 0.0
C710 C 0.0428 0.97192 0.47013 0.0
C711 C 0.01209 0.9421 0.44973 0.0
C712 C 1.0013 0.94348 0.47017 0.0
H713 H 0.11116 0.99137 0.44224 0.0
H714 H 0.07805 0.96392 0.41781 0.0
H715 H 0.03915 0.94153 0.4149 0.0
O716 O 0.03788 0.97307 0.53856 0.0
O717 O 0.03842 0.01525 0.48894 0.0
O718 O 0.01326 0.03665 0.50136 0.0
O719 O 0.07103 0.97817 0.52729 0.0
O720 O 0.01392 0.99921 0.5242 0.0
O721 O 1.00394 0.0332 0.53768 0.0
O722 O 0.04296 0.08866 0.51287 0.0
O723 O 0.0482 0.0547 0.56465 0.0
O724 O 0.05231 0.0177 0.55661 0.0
O725 O 0.00702 0.07723 0.51239 0.0
O726 O 0.05914 0.05421 0.51539 0.0
O727 O 0.07624 0.02996 0.53398 0.0
C728 C 0.02261 0.0268 0.48445 0.0
C729 C 0.06516 0.95655 0.55924 0.0
C730 C 0.06108 0.92724 0.58515 0.0
C731 C 0.08287 0.93706 0.59729 0.0
C732 C 0.08702 0.96579 0.57158 0.0
C733 C 0.09572 0.95612 0.59049 0.0
C734 C 0.05226 0.93707 0.56604 0.0
C735 C 0.99983 0.01108 0.53262 0.0
C736 C 0.05648 0.96559 0.5379 0.0
C737 C 0.06827 0.96636 0.43241 0.0
C738 C 0.04609 0.95362 0.43072 0.0
C739 C 0.05277 0.03605 0.57144 0.0
C740 C 0.01882 0.11428 0.50405 0.0
C741 C 0.02031 0.14688 0.48278 0.0
C742 C 0.00587 0.1549 0.49783 0.0
C743 C 1.0045 0.1229 0.51891 0.0
C744 C 0.02668 0.1264 0.48585 0.0
C745 C 0.99804 0.143 0.5157 0.0
C746 C 0.07712 0.04973 0.52719 0.0
C747 C 0.02278 0.09134 0.50503 0.0
H748 H 0.0903 0.92946 0.61151 0.0
H749 H 0.09751 0.98037 0.56647 0.0
H750 H 0.11271 0.96319 0.59965 0.0
H751 H 0.03569 0.92928 0.55614 0.0
H752 H 1.00018 0.17019 0.49532 0.0
H753 H 0.99773 0.11377 0.53257 0.0
H754 H 0.03709 0.11961 0.47371 0.0
H755 H 0.98653 0.14917 0.52685 0.0
Tb756 Tb 0.29248 0.81561 0.76352 0.0
C757 C 0.23446 0.73065 0.81416 0.0
N758 N 0.25574 0.74337 0.82188 0.0
C759 C 0.24833 0.74386 0.86262 0.0
C760 C 0.21896 0.72506 0.83044 0.0
C761 C 0.26334 0.7483 0.84594 0.0
C762 C 0.22589 0.73261 0.85481 0.0
C763 C 0.20808 0.70592 0.78213 0.0
C764 C 0.22893 0.72118 0.79018 0.0
C765 C 0.19214 0.70148 0.79805 0.0
C766 C 0.19754 0.71108 0.82211 0.0
Tb767 Tb 0.27724 0.7499 0.79145 0.0
N768 N 0.24462 0.72571 0.77505 0.0
C769 C 0.20429 0.69489 0.75856 0.0
C770 C 0.2421 0.71325 0.75308 0.0
C771 C 0.2216 0.6982 0.74414 0.0
H772 H 0.28099 0.75596 0.8524 0.0
H773 H 0.21936 0.68882 0.72638 0.0
H774 H 0.28454 0.81168 0.70333 0.0
H775 H 0.35604 0.87024 0.82995 0.0
H776 H 0.25612 0.7146 0.7428 0.0
H777 H 0.18851 0.683 0.75172 0.0
H778 H 0.3197 0.84304 0.81568 0.0
H779 H 0.2542 0.74872 0.88153 0.0
H780 H 0.17591 0.69002 0.79211 0.0
H781 H 0.18538 0.70681 0.83435 0.0
H782 H 0.30831 0.82232 0.67227 0.0
H783 H 0.21444 0.72877 0.86784 0.0
H784 H 0.38232 0.88197 0.80119 0.0
N785 N 0.31126 0.82486 0.73221 0.0
C786 C 0.33224 0.8384 0.73897 0.0
C787 C 0.31536 0.82667 0.69095 0.0
C788 C 0.34607 0.84559 0.72177 0.0
C789 C 0.30207 0.8204 0.70861 0.0
C790 C 0.33763 0.83893 0.69754 0.0
N791 N 0.32537 0.83996 0.77936 0.0
C792 C 0.33102 0.84831 0.80308 0.0
C793 C 0.36038 0.86156 0.77056 0.0
C794 C 0.33936 0.84638 0.76317 0.0
C795 C 0.36637 0.87018 0.79486 0.0
C796 C 0.35156 0.86362 0.81116 0.0
H797 H 0.34779 0.84401 0.68381 0.0
H798 H 0.37838 0.86541 0.71624 0.0
H799 H 0.39085 0.87942 0.75888 0.0
O800 O 0.2882 0.84783 0.77761 0.0
O801 O 0.32213 0.80352 0.78095 0.0
O802 O 0.31341 0.76977 0.79854 0.0
O803 O 0.266 0.82767 0.74722 0.0
O804 O 0.2841 0.79692 0.79166 0.0
O805 O 0.28083 0.77764 0.82061 0.0
O806 O 0.29438 0.72691 0.77407 0.0
O807 O 0.24702 0.75922 0.7719 0.0
O808 O 0.25692 0.79612 0.76254 0.0
O809 O 0.28369 0.72328 0.80843 0.0
O810 O 0.28693 0.76826 0.76287 0.0
O811 O 0.29007 0.78885 0.73433 0.0
C812 C 0.32787 0.78733 0.79266 0.0
C813 C 0.26722 0.86607 0.75116 0.0
C814 C 0.2478 0.89716 0.75094 0.0
C815 C 0.25404 0.90002 0.72818 0.0
C816 C 0.27331 0.86915 0.72853 0.0
C817 C 0.26669 0.88608 0.71711 0.0
C818 C 0.25455 0.88006 0.76228 0.0
C819 C 0.28159 0.79706 0.81384 0.0
C820 C 0.27046 0.84635 0.76187 0.0
C821 C 0.36746 0.85991 0.72921 0.0
C822 C 0.37454 0.86795 0.7535 0.0
C823 C 0.24174 0.77764 0.7646 0.0
C824 C 0.31578 0.70944 0.80105 0.0
C825 C 0.33912 0.68153 0.80269 0.0
C826 C 0.35335 0.69519 0.82229 0.0
C827 C 0.32962 0.72236 0.82139 0.0
C828 C 0.32058 0.68892 0.79172 0.0
C829 C 0.34865 0.71554 0.8315 0.0
C830 C 0.28636 0.76889 0.74013 0.0
C831 C 0.29447 0.71552 0.79194 0.0
H832 H 0.24938 0.91318 0.71899 0.0
H833 H 0.28259 0.85813 0.71944 0.0
H834 H 0.27119 0.88829 0.69953 0.0
H835 H 0.24916 0.87697 0.77936 0.0
H836 H 0.36764 0.68966 0.83102 0.0
H837 H 0.32574 0.73782 0.82941 0.0
H838 H 0.30917 0.67815 0.77703 0.0
H839 H 0.3594 0.72573 0.84695 0.0
Tb840 Tb 0.53336 0.05168 0.99764 0.0
C841 C 0.58002 1.002 0.0829 0.0
N842 N 0.56316 0.99453 0.06409 0.0
C843 C 0.57888 0.96222 0.05417 0.0
C844 C 0.59769 0.99055 0.08721 0.0
C845 C 0.56193 0.97441 0.05033 0.0
C846 C 0.59703 0.97049 0.07242 0.0
C847 C 0.59662 0.0299 0.11741 0.0
C848 C 0.57941 0.02125 0.09795 0.0
C849 C 0.61481 0.01909 0.12119 0.0
C850 C 0.61526 0.99937 0.10621 0.0
Tb851 Tb 0.53707 0.01671 0.05926 0.0
N852 N 0.56187 0.03157 0.09328 0.0
C853 C 0.59479 0.04892 0.13263 0.0
C854 C 0.55879 0.04861 0.10944 0.0
C855 C 0.57549 0.05798 0.12896 0.0
H856 H 0.54769 0.96723 0.03672 0.0
H857 H 0.57341 0.07212 0.14118 0.0
H858 H 0.52404 0.10164 0.01413 0.0
H859 H 0.4902 0.98512 0.92572 0.0
H860 H 0.54357 0.05523 0.10731 0.0
H861 H 0.60775 0.05623 0.14769 0.0
H862 H 0.52 1.00303 0.95808 0.0
H863 H 0.57785 0.94637 0.04309 0.0
H864 H 0.62836 0.0256 0.13589 0.0
H865 H 0.62915 0.99095 0.10963 0.0
H866 H 0.49622 0.12418 0.00299 0.0
H867 H 0.61017 0.96103 0.07526 0.0
H868 H 0.46038 0.00481 0.9123 0.0
N869 N 0.50852 0.07357 0.98794 0.0
C870 C 0.49215 0.06528 0.9691 0.0
C871 C 0.49475 0.10756 0.99339 0.0
C872 C 0.47585 0.07756 0.96203 0.0
C873 C 0.51037 0.09462 0.99983 0.0
C874 C 0.47729 0.09893 0.9745 0.0
N875 N 0.5069 0.03265 0.96565 0.0
C876 C 0.50694 0.01191 0.95377 0.0
C877 C 0.47407 0.03449 0.93819 0.0
C878 C 0.49145 0.04418 0.95734 0.0
C879 C 0.47346 0.01286 0.927 0.0
C880 C 0.49012 1.00165 0.93468 0.0
H881 H 0.46511 0.10892 0.96963 0.0
H882 H 0.44582 0.07715 0.93735 0.0
H883 H 0.44418 0.03931 0.91651 0.0
O884 O 0.55463 0.05012 0.97175 0.0
O885 O 0.50329 0.04656 0.01537 0.0
O886 O 0.51188 0.01603 0.02875 0.0
O887 O 0.555 0.08191 0.99285 0.0
O888 O 0.54279 0.01794 0.99327 0.0
O889 O 0.53126 0.99577 0.02294 0.0
O890 O 0.51295 0.01874 0.08303 0.0
O891 O 0.57085 0.03272 0.05474 0.0
O892 O 0.54966 0.03883 0.02524 0.0
O893 O 0.5228 0.98708 0.0716 0.0
O894 O 0.53342 0.05275 0.06453 0.0
O895 O 0.54106 0.07398 0.03268 0.0
C896 C 0.49786 0.02958 0.02701 0.0
C897 C 0.56517 0.08094 0.95331 0.0
C898 C 0.58378 0.08044 0.918 0.0
C899 C 0.57096 0.09504 0.90917 0.0
C900 C 0.55197 0.09535 0.94468 0.0
C901 C 0.55499 0.10243 0.92253 0.0
C902 C 0.58083 0.0735 0.93987 0.0
C903 C 0.53872 0.99844 0.00193 0.0
C904 C 0.56271 0.07154 0.97524 0.0
C905 C 0.45859 0.06806 0.94296 0.0
C906 C 0.45768 0.04653 0.93108 0.0
C907 C 0.5701 0.04209 0.03608 0.0
C908 C 0.49556 0.98617 0.09955 0.0
C909 C 0.47448 0.98777 0.13335 0.0
C910 C 0.46582 0.96449 0.12756 0.0
C911 C 0.48754 0.96293 0.09453 0.0
C912 C 0.48935 0.99848 0.1191 0.0
C913 C 0.47257 0.95217 0.10846 0.0
C914 C 0.53702 0.07193 0.05507 0.0
C915 C 0.51087 0.99757 0.08479 0.0
H916 H 0.57346 0.1008 0.89223 0.0
H917 H 0.53946 0.10093 0.95482 0.0
H918 H 0.54503 0.11368 0.91575 0.0
H919 H 0.59094 0.06221 0.94654 0.0
H920 H 0.4536 0.95572 0.13757 0.0
H921 H 0.49242 0.95318 0.07956 0.0
H922 H 0.49643 0.0163 0.1234 0.0
H923 H 0.46595 0.9343 0.10427 0.0
Tb924 Tb 0.27282 0.25389 0.25955 0.0
C925 C 0.34677 0.32985 0.32316 0.0
N926 N 0.32652 0.31777 0.32727 0.0
C927 C 0.3413 0.31994 0.36858 0.0
C928 C 0.36493 0.33788 0.34182 0.0
C929 C 0.32362 0.31259 0.34962 0.0
C930 C 0.36195 0.33281 0.36473 0.0
C931 C 0.37002 0.34664 0.29513 0.0
C932 C 0.34923 0.3344 0.3001 0.0
C933 C 0.38791 0.3552 0.31382 0.0
C934 C 0.38535 0.35088 0.3371 0.0
Tb935 Tb 0.29798 0.31319 0.29618 0.0
N936 N 0.33139 0.32631 0.28249 0.0
C937 C 0.37221 0.34985 0.27149 0.0
C938 C 0.33362 0.32895 0.25936 0.0
C939 C 0.35405 0.34064 0.25349 0.0
H940 H 0.30726 0.3043 0.35341 0.0
H941 H 0.35574 0.34262 0.23509 0.0
H942 H 0.26142 0.25212 0.20042 0.0
H943 H 0.22542 0.2085 0.32 0.0
H944 H 0.31999 0.32163 0.24535 0.0
H945 H 0.38793 0.35911 0.26692 0.0
H946 H 0.25944 0.22889 0.3063 0.0
H947 H 0.33873 0.31625 0.38632 0.0
H948 H 0.40386 0.36503 0.31043 0.0
H949 H 0.39935 0.35753 0.35131 0.0
H950 H 0.22858 0.238 0.16907 0.0
H951 H 0.37544 0.33884 0.37958 0.0
H952 H 0.18894 0.19828 0.29308 0.0
N953 N 0.24319 0.24248 0.22881 0.0
C954 C 0.22339 0.23107 0.23461 0.0
C955 C 0.22676 0.23622 0.18748 0.0
C956 C 0.20424 0.22245 0.21716 0.0
C957 C 0.24525 0.24448 0.2054 0.0
C958 C 0.20606 0.22541 0.19342 0.0
N959 N 0.24208 0.23417 0.27374 0.0
C960 C 0.24342 0.22661 0.2953 0.0
C961 C 0.20301 0.21391 0.26434 0.0
C962 C 0.2228 0.22677 0.25784 0.0
C963 C 0.20372 0.20825 0.28742 0.0
C964 C 0.2242 0.21419 0.30276 0.0
H965 H 0.19181 0.21885 0.17947 0.0
H966 H 0.16929 0.20378 0.21063 0.0
H967 H 0.16818 0.19639 0.25202 0.0
O968 O 0.28642 0.22632 0.26904 0.0
O969 O 0.24549 0.27097 0.27045 0.0
O970 O 0.26087 0.30257 0.29875 0.0
O971 O 0.27579 0.22974 0.23204 0.0
O972 O 0.29051 0.2584 0.2965 0.0
O973 O 0.28127 0.28891 0.31672 0.0
O974 O 0.29576 0.34564 0.2899 0.0
O975 O 0.32205 0.29062 0.28788 0.0
O976 O 0.306 0.2715 0.25122 0.0
O977 O 0.30013 0.33773 0.32557 0.0
O978 O 0.28118 0.3144 0.26011 0.0
O979 O 0.27938 0.28004 0.23708 0.0
C980 C 0.24318 0.28777 0.28635 0.0
C981 C 0.28838 0.19633 0.23733 0.0
C982 C 0.30033 0.1627 0.24601 0.0
C983 C 0.29149 0.15236 0.22246 0.0
C984 C 0.28007 0.18617 0.21374 0.0
C985 C 0.28188 0.16428 0.2063 0.0
C986 C 0.29929 0.18497 0.25295 0.0
C987 C 0.28475 0.26861 0.31587 0.0
C988 C 0.28334 0.21759 0.24654 0.0
C989 C 0.18419 0.21042 0.22376 0.0
C990 C 0.18356 0.20622 0.24733 0.0
C991 C 0.32409 0.27913 0.26725 0.0
C992 C 0.27951 0.36529 0.31954 0.0
C993 C 0.2551 0.39057 0.31013 0.0
C994 C 0.24933 0.39196 0.33342 0.0
C995 C 0.27373 0.36673 0.34291 0.0
C996 C 0.27005 0.3772 0.30325 0.0
C997 C 0.25857 0.37995 0.34971 0.0
C998 C 0.27717 0.30103 0.23949 0.0
C999 C 0.29659 0.3528 0.31258 0.0
H1000 H 0.29151 0.13499 0.21655 0.0
H1001 H 0.27154 0.19483 0.20132 0.0
H1002 H 0.27515 0.1563 0.18825 0.0
H1003 H 0.30642 0.19342 0.27077 0.0
H1004 H 0.23797 0.40257 0.33904 0.0
H1005 H 0.28114 0.35796 0.35602 0.0
H1006 H 0.27509 0.3769 0.28549 0.0
H1007 H 0.2543 0.38118 0.36774 0.0
Tb1008 Tb 0.55077 0.50256 0.02085 0.0
C1009 C 0.51317 0.58312 0.08117 0.0
N1010 N 0.50338 0.56898 0.0609 0.0
C1011 C 0.46683 0.56621 0.07456 0.0
C1012 C 0.50036 0.58866 0.09943 0.0
C1013 C 0.4803 0.56153 0.05686 0.0
C1014 C 0.47697 0.57951 0.09615 0.0
C1015 C 0.54641 0.60961 0.10238 0.0
C1016 C 0.53576 0.59344 0.08268 0.0
C1017 C 0.53413 0.61436 0.12126 0.0
C1018 C 0.51112 0.60387 0.1198 0.0
Tb1019 Tb 0.52723 0.56201 0.03341 0.0
N1020 N 0.54702 0.58828 0.06409 0.0
C1021 C 0.56879 0.621 0.102 0.0
C1022 C 0.56786 0.60081 0.06256 0.0
C1023 C 0.57938 0.61693 0.08173 0.0
H1024 H 0.47218 0.55242 0.03967 0.0
H1025 H 0.59618 0.6265 0.0807 0.0
H1026 H 0.60588 0.51606 0.01391 0.0
H1027 H 0.47658 0.45216 0.96451 0.0
H1028 H 0.57508 0.59877 0.0462 0.0
H1029 H 0.57762 0.63361 0.11675 0.0
H1030 H 0.49655 0.48006 0.99884 0.0
H1031 H 0.4486 0.55989 0.07137 0.0
H1032 H 0.54205 0.62656 0.13672 0.0
H1033 H 0.50162 0.6082 0.13414 0.0
H1034 H 0.62972 0.50525 0.98393 0.0
H1035 H 0.46648 0.58337 0.1097 0.0
H1036 H 0.49833 0.43798 0.93378 0.0
N1037 N 0.57483 0.49729 0.99371 0.0
C1038 C 0.56489 0.48242 0.97394 0.0
C1039 C 0.6115 0.49888 0.9808 0.0
C1040 C 0.57805 0.47517 0.95678 0.0
C1041 C 0.59785 0.50532 0.99756 0.0
C1042 C 0.60157 0.48373 0.96034 0.0
N1043 N 0.52911 0.48158 0.9878 0.0
C1044 C 0.50615 0.47394 0.98569 0.0
C1045 C 0.53075 0.4582 0.95111 0.0
C1046 C 0.54143 0.47404 0.97108 0.0
C1047 C 0.50717 0.45017 0.94888 0.0
C1048 C 0.49482 0.45815 0.96619 0.0
H1049 H 0.61227 0.47852 0.94759 0.0
H1050 H 0.57728 0.45347 0.92359 0.0
H1051 H 0.53596 0.43863 0.91864 0.0
O1052 O 0.53956 0.47061 0.03122 0.0
O1053 O 0.53968 0.51804 0.9897 0.0
O1054 O 0.51254 0.53534 0.00376 0.0
O1055 O 0.57487 0.48374 0.0301 0.0
O1056 O 0.52126 0.50214 0.0397 0.0
O1057 O 0.50158 0.53026 0.03209 0.0
O1058 O 0.53735 0.58778 0.01167 0.0
O1059 O 0.54609 0.55421 0.06589 0.0
O1060 O 0.55719 0.52008 0.05696 0.0
O1061 O 0.5038 0.5806 0.02253 0.0
O1062 O 0.55821 0.55977 0.01687 0.0
O1063 O 0.57695 0.53351 0.03086 0.0
C1064 C 0.52346 0.52927 0.98624 0.0
C1065 C 0.56673 0.45694 0.05672 0.0
C1066 C 0.56023 0.42677 0.08163 0.0
C1067 C 0.58247 0.43459 0.09346 0.0
C1068 C 0.58897 0.4641 0.06904 0.0
C1069 C 0.5967 0.45299 0.08713 0.0
C1070 C 0.55238 0.43793 0.06303 0.0
C1071 C 0.50285 0.51051 0.0388 0.0
C1072 C 0.56011 0.46722 0.03524 0.0
C1073 C 0.56741 0.45935 0.93687 0.0
C1074 C 0.54387 0.45086 0.93408 0.0
C1075 C 0.55504 0.53737 0.0719 0.0
C1076 C 0.50962 0.61093 0.99904 0.0
C1077 C 0.5149 0.64294 0.9765 0.0
C1078 C 0.49237 0.64468 0.97863 0.0
C1079 C 0.48713 0.61339 0.00052 0.0
C1080 C 0.52355 0.62571 0.98656 0.0
C1081 C 0.47866 0.63 0.9904 0.0
C1082 C 0.57697 0.55353 0.02477 0.0
C1083 C 0.51752 0.59311 0.0113 0.0
H1084 H 0.58919 0.42584 0.10704 0.0
H1085 H 0.60079 0.47796 0.06427 0.0
H1086 H 0.61405 0.45836 0.09593 0.0
H1087 H 0.53556 0.43147 0.05312 0.0
H1088 H 0.48519 0.65738 0.97082 0.0
H1089 H 0.47587 0.60245 0.00971 0.0
H1090 H 0.54088 0.62413 0.98505 0.0
H1091 H 0.4613 0.63156 0.99174 0.0
Tb1092 Tb 0.78821 0.31276 0.26522 0.0
C1093 C 0.73667 0.23574 0.31826 0.0
N1094 N 0.7571 0.2505 0.32395 0.0
C1095 C 0.75102 0.25581 0.36507 0.0
C1096 C 0.72254 0.23066 0.33586 0.0
C1097 C 0.76469 0.26001 0.34716 0.0
C1098 C 0.72984 0.24114 0.35941 0.0
C1099 C 0.70939 0.20931 0.2884 0.0
C1100 C 0.7301 0.22513 0.29475 0.0
C1101 C 0.69531 0.20431 0.30592 0.0
C1102 C 0.70184 0.21496 0.32955 0.0
Tb1103 Tb 0.7783 0.25285 0.29315 0.0
N1104 N 0.74395 0.23052 0.27809 0.0
C1105 C 0.70354 0.19888 0.26464 0.0
C1106 C 0.73836 0.22045 0.25489 0.0
C1107 C 0.7181 0.20448 0.24782 0.0
H1108 H 0.78159 0.27016 0.35233 0.0
H1109 H 0.71366 0.19659 0.2294 0.0
H1110 H 0.77882 0.30503 0.20565 0.0
H1111 H 0.84826 0.37774 0.3255 0.0
H1112 H 0.74936 0.22472 0.24177 0.0
H1113 H 0.68779 0.18659 0.25907 0.0
H1114 H 0.81269 0.34857 0.31367 0.0
H1115 H 0.75708 0.26348 0.38337 0.0
H1116 H 0.67935 0.19215 0.30139 0.0
H1117 H 0.69084 0.21079 0.34288 0.0
H1118 H 0.80071 0.31496 0.17271 0.0
H1119 H 0.71948 0.23765 0.37345 0.0
H1120 H 0.87527 0.38551 0.29665 0.0
N1121 N 0.80543 0.32232 0.23298 0.0
C1122 C 0.82618 0.33633 0.23821 0.0
C1123 C 0.80812 0.321 0.19108 0.0
C1124 C 0.83932 0.34233 0.22009 0.0
C1125 C 0.79576 0.31549 0.20974 0.0
C1126 C 0.83021 0.33405 0.1963 0.0
N1127 N 0.81975 0.34047 0.27834 0.0
C1128 C 0.82446 0.35199 0.30098 0.0
C1129 C 0.85416 0.36184 0.26779 0.0
C1130 C 0.83352 0.3459 0.26169 0.0
C1131 C 0.85972 0.3729 0.29128 0.0
C1132 C 0.84452 0.36839 0.30774 0.0
H1133 H 0.83978 0.33822 0.18183 0.0
H1134 H 0.87124 0.36153 0.21266 0.0
H1135 H 0.88421 0.37871 0.25452 0.0
O1136 O 0.77661 0.34122 0.27989 0.0
O1137 O 0.82084 0.30674 0.28309 0.0
O1138 O 0.81412 0.26965 0.29142 0.0
O1139 O 0.76447 0.32464 0.24383 0.0
O1140 O 0.7758 0.3031 0.2973 0.0
O1141 O 0.79493 0.28237 0.31773 0.0
O1142 O 0.78698 0.22231 0.2806 0.0
O1143 O 0.74727 0.2661 0.28224 0.0
O1144 O 0.75752 0.28588 0.25183 0.0
O1145 O 0.78744 0.23265 0.31803 0.0
O1146 O 0.78496 0.25221 0.25688 0.0
O1147 O 0.795 0.28575 0.24117 0.0
C1148 C 0.82797 0.28866 0.28875 0.0
C1149 C 0.76294 0.36275 0.25131 0.0
C1150 C 0.7459 0.3956 0.25257 0.0
C1151 C 0.75394 0.39982 0.23092 0.0
C1152 C 0.77102 0.36743 0.22984 0.0
C1153 C 0.76648 0.38586 0.21973 0.0
C1154 C 0.7506 0.37702 0.26273 0.0
C1155 C 0.78915 0.3014 0.3161 0.0
C1156 C 0.7639 0.34134 0.25993 0.0
C1157 C 0.86068 0.35702 0.22626 0.0
C1158 C 0.86808 0.3668 0.2501 0.0
C1159 C 0.74177 0.2767 0.26426 0.0
C1160 C 0.81368 0.21065 0.30721 0.0
C1161 C 0.8363 0.18218 0.30149 0.0
C1162 C 0.85319 0.19479 0.3195 0.0
C1163 C 0.83088 0.2231 0.32516 0.0
C1164 C 0.81651 0.19013 0.29537 0.0
C1165 C 0.85046 0.21513 0.33126 0.0
C1166 C 0.79253 0.26404 0.24062 0.0
C1167 C 0.79205 0.2179 0.30202 0.0
H1168 H 0.75073 0.41406 0.22271 0.0
H1169 H 0.78024 0.35652 0.22048 0.0
H1170 H 0.77245 0.38919 0.20301 0.0
H1171 H 0.74382 0.3731 0.27895 0.0
H1172 H 0.86817 0.18852 0.32498 0.0
H1173 H 0.82904 0.2388 0.33479 0.0
H1174 H 0.80312 0.18009 0.28195 0.0
H1175 H 0.86338 0.22455 0.34546 0.0
Tb1176 Tb 0.03295 0.55108 0.4971 0.0
C1177 C 0.07515 0.50536 0.58973 0.0
N1178 N 0.05741 0.49604 0.57263 0.0
C1179 C 0.07075 0.46169 0.56872 0.0
C1180 C 0.09193 0.49351 0.59657 0.0
C1181 C 0.05479 0.47431 0.5624 0.0
C1182 C 0.08957 0.4714 0.58574 0.0
C1183 C 0.09473 0.53753 0.61807 0.0
C1184 C 0.07653 0.52695 0.60008 0.0
C1185 C 0.11194 0.52618 0.62452 0.0
C1186 C 0.1105 0.50414 0.61383 0.0
Tb1187 Tb 0.03336 0.51815 0.56044 0.0
N1188 N 0.05951 0.5372 0.59315 0.0
C1189 C 0.09477 0.55892 0.62945 0.0
C1190 C 0.05847 0.55713 0.60621 0.0
C1191 C 0.07625 0.56853 0.62388 0.0
H1192 H 0.0403 0.46659 0.54946 0.0
H1193 H 0.07538 0.58456 0.63352 0.0
H1194 H 0.02399 0.60264 0.51299 0.0
H1195 H 0.99478 0.49016 0.41929 0.0
H1196 H 0.04386 0.5643 0.604 0.0
H1197 H 0.10844 0.56768 0.64328 0.0
H1198 H 0.02474 0.50876 0.45206 0.0
H1199 H 0.06855 0.4445 0.56038 0.0
H1200 H 0.12615 0.53412 0.6381 0.0
H1201 H 0.1237 0.49542 0.61916 0.0
H1202 H 0.99446 0.62378 0.50451 0.0
H1203 H 0.10204 0.46168 0.59049 0.0
H1204 H 0.96145 0.50689 0.41006 0.0
N1205 N 0.00745 0.57347 0.48893 0.0
C1206 C 0.99045 0.56507 0.47052 0.0
C1207 C 0.99281 0.60703 0.49515 0.0
C1208 C 0.97311 0.57662 0.46476 0.0
C1209 C 0.00936 0.59472 0.50039 0.0
C1210 C 0.97431 0.59775 0.4776 0.0
N1211 N 0.0081 0.53477 0.46305 0.0
C1212 C 0.01014 0.51588 0.44894 0.0
C1213 C 0.97339 0.53531 0.438 0.0
C1214 C 0.99081 0.54503 0.45701 0.0
C1215 C 0.97456 0.51502 0.4247 0.0
C1216 C 0.99327 0.50548 0.42994 0.0
H1217 H 0.96147 0.60729 0.47362 0.0
H1218 H 0.94176 0.57535 0.44173 0.0
H1219 H 0.94178 0.53887 0.41854 0.0
O1220 O 0.05803 0.54923 0.47477 0.0
O1221 O 0.99948 0.5319 0.49887 0.0
O1222 O 0.01797 0.53094 0.53233 0.0
O1223 O 0.04986 0.58084 0.48718 0.0
O1224 O 0.03944 0.51606 0.49313 0.0
O1225 O 0.02979 0.49621 0.52537 0.0
O1226 O 0.00799 0.51937 0.58222 0.0
O1227 O 0.06351 0.5214 0.54372 0.0
O1228 O 0.05757 0.55237 0.52883 0.0
O1229 O 0.01079 0.48797 0.56298 0.0
O1230 O 0.02832 0.55349 0.56524 0.0
O1231 O 0.03425 0.57273 0.53198 0.0
C1232 C 0.99908 0.52374 0.51835 0.0
C1233 C 0.06047 0.57607 0.44882 0.0
C1234 C 0.07505 0.57185 0.41124 0.0
C1235 C 0.06403 0.58827 0.40352 0.0
C1236 C 0.0492 0.59243 0.44119 0.0
C1237 C 0.05095 0.59841 0.41847 0.0
C1238 C 0.07304 0.56569 0.43366 0.0
C1239 C 0.03506 0.49732 0.50316 0.0
C1240 C 0.06091 0.57043 0.47291 0.0
C1241 C 0.95541 0.56688 0.44616 0.0
C1242 C 0.95546 0.54617 0.4329 0.0
C1243 C 0.07039 0.53779 0.53193 0.0
C1244 C 0.99924 0.48845 0.60145 0.0
C1245 C 0.98451 0.49066 0.63924 0.0
C1246 C 0.99651 0.47469 0.64624 0.0
C1247 C 0.01105 0.47223 0.60817 0.0
C1248 C 0.98594 0.49742 0.61693 0.0
C1249 C 0.00961 0.46537 0.63059 0.0
C1250 C 0.03076 0.57196 0.55472 0.0
C1251 C 1.00122 0.49778 0.5793 0.0
H1252 H 0.06583 0.59342 0.38617 0.0
H1253 H 0.03943 0.60081 0.45279 0.0
H1254 H 0.04258 0.61119 0.41264 0.0
H1255 H 0.08227 0.55353 0.43979 0.0
H1256 H 0.99527 0.46908 0.66344 0.0
H1257 H 0.02147 0.46507 0.59636 0.0
H1258 H 0.97681 0.50997 0.61169 0.0
H1259 H 0.01862 0.45282 0.63583 0.0
Tb1260 Tb 0.81473 0.77309 0.28187 0.0
C1261 C 0.73091 0.80531 0.22865 0.0
N1262 N 0.74585 0.81647 0.24785 0.0
C1263 C 0.74828 0.85068 0.23125 0.0
C1264 C 0.72412 0.81644 0.20982 0.0
C1265 C 0.75449 0.83892 0.24951 0.0
C1266 C 0.73305 0.8394 0.21129 0.0
C1267 C 0.70712 0.77029 0.2082 0.0
C1268 C 0.72269 0.7825 0.22776 0.0
C1269 C 0.70026 0.78129 0.18935 0.0
C1270 C 0.70877 0.8043 0.19014 0.0
Tb1271 Tb 0.75522 0.79533 0.27597 0.0
N1272 N 0.73033 0.77229 0.24596 0.0
C1273 C 0.6988 0.74744 0.20829 0.0
C1274 C 0.72131 0.75034 0.24677 0.0
C1275 C 0.70567 0.7375 0.22783 0.0
H1276 H 0.7659 0.84792 0.26507 0.0
H1277 H 0.6989 0.71997 0.22836 0.0
H1278 H 0.80256 0.71957 0.28929 0.0
H1279 H 0.87355 0.845 0.33279 0.0
H1280 H 0.72586 0.74262 0.26197 0.0
H1281 H 0.68678 0.73743 0.19361 0.0
H1282 H 0.84625 0.82427 0.29815 0.0
H1283 H 0.75518 0.86846 0.23263 0.0
H1284 H 0.68834 0.77218 0.17412 0.0
H1285 H 0.70334 0.81255 0.17547 0.0
H1286 H 0.8119 0.69687 0.32029 0.0
H1287 H 0.72828 0.84858 0.19718 0.0
H1288 H 0.88449 0.82547 0.3662 0.0
N1289 N 0.82346 0.74991 0.30816 0.0
C1290 C 0.83847 0.75979 0.32782 0.0
C1291 C 0.81945 0.71458 0.32265 0.0
C1292 C 0.84442 0.74746 0.34589 0.0
C1293 C 0.81406 0.72754 0.3052 0.0
C1294 C 0.83463 0.72458 0.34313 0.0
N1295 N 0.8407 0.79381 0.31246 0.0
C1296 C 0.85033 0.81581 0.3129 0.0
C1297 C 0.86323 0.79349 0.34999 0.0
C1298 C 0.84761 0.78247 0.32993 0.0
C1299 C 0.87236 0.81636 0.35113 0.0
C1300 C 0.86609 0.82749 0.33234 0.0
H1301 H 0.83871 0.7145 0.35664 0.0
H1302 H 0.86452 0.74921 0.38026 0.0
H1303 H 0.88109 0.78953 0.38379 0.0
O1304 O 0.83894 0.78304 0.25889 0.0
O1305 O 0.80341 0.78445 0.31684 0.0
O1306 O 0.78415 0.80901 0.30313 0.0
O1307 O 0.83273 0.74968 0.26799 0.0
O1308 O 0.81495 0.80455 0.26644 0.0
O1309 O 0.78679 0.82142 0.2807 0.0
O1310 O 0.7293 0.78578 0.29821 0.0
O1311 O 0.76786 0.78508 0.24194 0.0
O1312 O 0.78689 0.75901 0.25313 0.0
O1313 O 0.73702 0.81894 0.28783 0.0
O1314 O 0.75658 0.76574 0.29371 0.0
O1315 O 0.78244 0.74809 0.27635 0.0
C1316 C 0.79096 0.79947 0.32093 0.0
C1317 C 0.86828 0.76243 0.25423 0.0
C1318 C 0.90008 0.76513 0.23058 0.0
C1319 C 0.91168 0.755 0.24737 0.0
C1320 C 0.88038 0.75249 0.27083 0.0
C1321 C 0.90192 0.7488 0.26734 0.0
C1322 C 0.8783 0.76885 0.23407 0.0
C1323 C 0.80483 0.82168 0.26932 0.0
C1324 C 0.84424 0.76348 0.25591 0.0
C1325 C 0.85979 0.75838 0.36612 0.0
C1326 C 0.86921 0.78134 0.36814 0.0
C1327 C 0.77948 0.76967 0.23644 0.0
C1328 C 0.70805 0.81401 0.31408 0.0
C1329 C 0.67566 0.80927 0.33751 0.0
C1330 C 0.67964 0.8328 0.34285 0.0
C1331 C 0.71062 0.83731 0.31941 0.0
C1332 C 0.69042 0.79984 0.32323 0.0
C1333 C 0.69664 0.84653 0.33368 0.0
C1334 C 0.7656 0.74815 0.28926 0.0
C1335 C 0.72468 0.80564 0.29968 0.0
H1336 H 0.92815 0.75143 0.2447 0.0
H1337 H 0.87296 0.747 0.28616 0.0
H1338 H 0.9109 0.74066 0.27992 0.0
H1339 H 0.86887 0.77591 0.22074 0.0
H1340 H 0.66979 0.84091 0.35459 0.0
H1341 H 0.72387 0.84864 0.31289 0.0
H1342 H 0.68812 0.78184 0.3191 0.0
H1343 H 0.69917 0.86454 0.33792 0.0
Tb1344 Tb 0.76373 0.28774 0.80953 0.0
C1345 C 0.81566 0.24336 0.72444 0.0
N1346 N 0.82427 0.26024 0.74264 0.0
C1347 C 0.85667 0.24412 0.75137 0.0
C1348 C 0.82683 0.22564 0.71941 0.0
C1349 C 0.84466 0.26108 0.75594 0.0
C1350 C 0.8476 0.22619 0.73317 0.0
C1351 C 0.78585 0.22674 0.69176 0.0
C1352 C 0.79562 0.24402 0.71082 0.0
C1353 C 0.79638 0.20854 0.68716 0.0
C1354 C 0.81692 0.20806 0.70087 0.0
Tb1355 Tb 0.80245 0.28574 0.75062 0.0
N1356 N 0.78585 0.26177 0.71612 0.0
C1357 C 0.76592 0.22836 0.67783 0.0
C1358 C 0.76754 0.26433 0.70112 0.0
C1359 C 0.75699 0.24745 0.68226 0.0
H1360 H 0.85175 0.27481 0.77011 0.0
H1361 H 0.74204 0.24929 0.67103 0.0
H1362 H 0.71302 0.29779 0.7922 0.0
H1363 H 0.83413 0.33472 0.8756 0.0
H1364 H 0.76082 0.27929 0.70317 0.0
H1365 H 0.75771 0.21532 0.66322 0.0
H1366 H 0.81508 0.3039 0.84489 0.0
H1367 H 0.87282 0.24482 0.76198 0.0
H1368 H 0.78898 0.19497 0.67281 0.0
H1369 H 0.82507 0.19413 0.69689 0.0
H1370 H 0.69057 0.32567 0.80383 0.0
H1371 H 0.85683 0.21297 0.72979 0.0
H1372 H 0.81374 0.36367 0.89001 0.0
N1373 N 0.74135 0.31254 0.81872 0.0
C1374 C 0.75011 0.32907 0.83747 0.0
C1375 C 0.70734 0.32687 0.81336 0.0
C1376 C 0.73793 0.3455 0.8445 0.0
C1377 C 0.72022 0.31119 0.80669 0.0
C1378 C 0.71622 0.34411 0.83231 0.0
N1379 N 0.78403 0.31529 0.83965 0.0
C1380 C 0.80582 0.31638 0.84991 0.0
C1381 C 0.78254 0.34848 0.86646 0.0
C1382 C 0.77216 0.33049 0.84838 0.0
C1383 C 0.80512 0.35004 0.87619 0.0
C1384 C 0.81674 0.33385 0.86796 0.0
H1385 H 0.7063 0.35639 0.83721 0.0
H1386 H 0.73895 0.37596 0.86849 0.0
H1387 H 0.77803 0.37861 0.88762 0.0
O1388 O 0.76596 0.26881 0.83729 0.0
O1389 O 0.77648 0.32133 0.80326 0.0
O1390 O 0.78918 0.29977 0.77909 0.0
O1391 O 0.73284 0.27233 0.82051 0.0
O1392 O 0.79651 0.27557 0.8131 0.0
O1393 O 0.8215 0.29116 0.78748 0.0
O1394 O 0.80289 0.31211 0.73145 0.0
O1395 O 0.7916 0.25435 0.76335 0.0
O1396 O 0.75988 0.26211 0.77818 0.0
O1397 O 0.83445 0.30522 0.74626 0.0
O1398 O 0.7675 0.29251 0.74324 0.0
O1399 O 0.74349 0.28512 0.77324 0.0
C1400 C 0.78835 0.32014 0.78643 0.0
C1401 C 0.73316 0.25086 0.8535 0.0
C1402 C 0.73755 0.22957 0.88592 0.0
C1403 C 0.71505 0.22953 0.88989 0.0
C1404 C 0.7105 0.25049 0.85709 0.0
C1405 C 0.70148 0.23977 0.87527 0.0
C1406 C 0.74645 0.24 0.86766 0.0
C1407 C 0.81703 0.28012 0.80583 0.0
C1408 C 0.74401 0.26457 0.83714 0.0
C1409 C 0.74804 0.36314 0.8629 0.0
C1410 C 0.7703 0.36465 0.8738 0.0
C1411 C 0.77341 0.24837 0.77366 0.0
C1412 C 0.83336 0.32165 0.71024 0.0
C1413 C 0.82736 0.33464 0.67196 0.0
C1414 C 0.8499 0.33425 0.66867 0.0
C1415 C 0.85593 0.32119 0.70682 0.0
C1416 C 0.81913 0.32833 0.69256 0.0
C1417 C 0.86409 0.3274 0.68601 0.0
C1418 C 0.74742 0.29026 0.75158 0.0
C1419 C 0.82485 0.31732 0.73282 0.0
H1420 H 0.70799 0.22139 0.90407 0.0
H1421 H 0.70004 0.25901 0.84638 0.0
H1422 H 0.68409 0.23967 0.87825 0.0
H1423 H 0.76401 0.24021 0.86507 0.0
H1424 H 0.8565 0.33937 0.65279 0.0
H1425 H 0.86732 0.31643 0.72033 0.0
H1426 H 0.8018 0.32932 0.69502 0.0
H1427 H 0.88153 0.32722 0.68347 0.0
Tb1428 Tb 0.77183 0.7539 0.75941 0.0
C1429 C 0.84598 0.83001 0.8233 0.0
N1430 N 0.82584 0.81791 0.82763 0.0
C1431 C 0.84106 0.82001 0.86878 0.0
C1432 C 0.86438 0.83787 0.84175 0.0
C1433 C 0.82316 0.81282 0.85004 0.0
C1434 C 0.8617 0.8327 0.86467 0.0
C1435 C 0.86873 0.8474 0.79523 0.0
C1436 C 0.84811 0.83477 0.80026 0.0
C1437 C 0.88689 0.85559 0.81368 0.0
C1438 C 0.88472 0.85085 0.83686 0.0
Tb1439 Tb 0.79701 0.81235 0.79675 0.0
N1440 N 0.83003 0.82696 0.78285 0.0
C1441 C 0.87041 0.85164 0.77184 0.0
C1442 C 0.83161 0.83136 0.7601 0.0
C1443 C 0.8518 0.84345 0.75418 0.0
H1444 H 0.8069 0.80445 0.85398 0.0
H1445 H 0.85282 0.84683 0.73606 0.0
H1446 H 0.75868 0.7597 0.70243 0.0
H1447 H 0.72276 0.71032 0.82018 0.0
H1448 H 0.81746 0.82614 0.74647 0.0
H1449 H 0.88592 0.86132 0.76726 0.0
H1450 H 0.75709 0.73054 0.80723 0.0
H1451 H 0.83871 0.81627 0.88655 0.0
H1452 H 0.90272 0.8656 0.81019 0.0
H1453 H 0.89891 0.85731 0.8509 0.0
H1454 H 0.72565 0.74776 0.67125 0.0
H1455 H 0.87538 0.83858 0.87935 0.0
H1456 H 0.68696 0.69935 0.79218 0.0
N1457 N 0.74148 0.74637 0.72973 0.0
C1458 C 0.72192 0.73397 0.73501 0.0
C1459 C 0.72423 0.74407 0.6892 0.0
C1460 C 0.70268 0.72619 0.7175 0.0
C1461 C 0.74285 0.75137 0.70713 0.0
C1462 C 0.70404 0.73144 0.6944 0.0
N1463 N 0.74066 0.73539 0.77396 0.0
C1464 C 0.74143 0.72809 0.79569 0.0
C1465 C 0.70157 0.71523 0.76387 0.0
C1466 C 0.72144 0.72842 0.75786 0.0
C1467 C 0.70188 0.7094 0.78685 0.0
C1468 C 0.72198 0.71569 0.80275 0.0
H1469 H 0.68973 0.72553 0.68039 0.0
H1470 H 0.66803 0.70681 0.71016 0.0
H1471 H 0.66699 0.6974 0.75083 0.0
O1472 O 0.78256 0.72482 0.76692 0.0
O1473 O 0.74525 0.77289 0.76921 0.0
O1474 O 0.76117 0.80006 0.80191 0.0
O1475 O 0.77215 0.72957 0.73018 0.0
O1476 O 0.78978 0.75662 0.79595 0.0
O1477 O 0.78197 0.78747 0.81744 0.0
O1478 O 0.79403 0.84411 0.78929 0.0
O1479 O 0.82151 0.79065 0.789 0.0
O1480 O 0.80671 0.7693 0.75277 0.0
O1481 O 0.79733 0.83705 0.82557 0.0
O1482 O 0.77745 0.81057 0.76133 0.0
O1483 O 0.78395 0.77987 0.73839 0.0
C1484 C 0.74332 0.78753 0.78764 0.0
C1485 C 0.78368 0.69497 0.73539 0.0
C1486 C 0.79651 0.66171 0.74397 0.0
C1487 C 0.79175 0.65287 0.71956 0.0
C1488 C 0.77891 0.68619 0.71101 0.0
C1489 C 0.78304 0.66517 0.70315 0.0
C1490 C 0.79267 0.68282 0.75165 0.0
C1491 C 0.7863 0.76746 0.81618 0.0
C1492 C 0.77931 0.7167 0.74426 0.0
C1493 C 0.6829 0.71306 0.72342 0.0
C1494 C 0.68231 0.70771 0.74658 0.0
C1495 C 0.82434 0.77864 0.76908 0.0
C1496 C 0.77646 0.86412 0.81687 0.0
C1497 C 0.7587 0.89431 0.80782 0.0
C1498 C 0.74802 0.89343 0.82842 0.0
C1499 C 0.7658 0.86302 0.83763 0.0
C1500 C 0.77244 0.87951 0.80188 0.0
C1501 C 0.75143 0.87757 0.84321 0.0
C1502 C 0.77928 0.79981 0.74044 0.0
C1503 C 0.79389 0.85158 0.81171 0.0
H1504 H 0.79455 0.63645 0.71322 0.0
H1505 H 0.77198 0.69547 0.69812 0.0
H1506 H 0.77936 0.65835 0.68437 0.0
H1507 H 0.79694 0.68992 0.77038 0.0
H1508 H 0.7378 0.90543 0.83339 0.0
H1509 H 0.76899 0.85144 0.8498 0.0
H1510 H 0.78117 0.881 0.78625 0.0
H1511 H 0.74357 0.87706 0.8594 0.0
Tb1512 Tb 0.56478 0.54591 0.5491 0.0
C1513 C 0.48882 0.46976 0.48535 0.0
N1514 N 0.50093 0.48953 0.4808 0.0
C1515 C 0.49763 0.47448 0.4393 0.0
C1516 C 0.48012 0.45175 0.46679 0.0
C1517 C 0.50551 0.49207 0.45812 0.0
C1518 C 0.48471 0.45431 0.44359 0.0
C1519 C 0.47156 0.44769 0.51379 0.0
C1520 C 0.48451 0.4678 0.50863 0.0
C1521 C 0.46247 0.42993 0.49523 0.0
C1522 C 0.46672 0.43196 0.47181 0.0
Tb1523 Tb 0.50619 0.51805 0.51184 0.0
N1524 N 0.49289 0.48558 0.52613 0.0
C1525 C 0.46784 0.4461 0.5374 0.0
C1526 C 0.48936 0.48396 0.54919 0.0
C1527 C 0.47703 0.46424 0.55521 0.0
H1528 H 0.5137 0.50809 0.45403 0.0
H1529 H 0.47427 0.4632 0.57355 0.0
H1530 H 0.55815 0.55746 0.60636 0.0
H1531 H 0.61634 0.59419 0.49431 0.0
H1532 H 0.49571 0.49763 0.56308 0.0
H1533 H 0.45791 0.43098 0.54207 0.0
H1534 H 0.59343 0.56028 0.50506 0.0
H1535 H 0.50087 0.47675 0.42133 0.0
H1536 H 0.45211 0.41454 0.49881 0.0
H1537 H 0.45953 0.41811 0.45769 0.0
H1538 H 0.56742 0.58981 0.6381 0.0
H1539 H 0.47814 0.44092 0.42883 0.0
H1540 H 0.62381 0.62981 0.52175 0.0
N1541 N 0.57063 0.57548 0.57948 0.0
C1542 C 0.58284 0.59519 0.57497 0.0
C1543 C 0.57139 0.59174 0.62028 0.0
C1544 C 0.58948 0.61407 0.59291 0.0
C1545 C 0.56537 0.57348 0.60198 0.0
C1546 C 0.58334 0.6122 0.61568 0.0
N1547 N 0.58476 0.57692 0.53658 0.0
C1548 C 0.5948 0.57596 0.51625 0.0
C1549 C 0.60419 0.6156 0.54793 0.0
C1550 C 0.59017 0.59593 0.5528 0.0
C1551 C 0.61283 0.61514 0.52611 0.0
C1552 C 0.60846 0.5951 0.51043 0.0
H1553 H 0.5884 0.62621 0.63002 0.0
H1554 H 0.60816 0.64851 0.60146 0.0
H1555 H 0.62094 0.64988 0.56199 0.0
O1556 O 0.59392 0.53419 0.54138 0.0
O1557 O 0.54574 0.57166 0.53715 0.0
O1558 O 0.51758 0.55311 0.50614 0.0
O1559 O 0.5902 0.54751 0.57786 0.0
O1560 O 0.56358 0.5296 0.51171 0.0
O1561 O 0.53057 0.53329 0.49005 0.0
O1562 O 0.47366 0.5211 0.51971 0.0
O1563 O 0.52989 0.49554 0.51934 0.0
O1564 O 0.55032 0.51123 0.55575 0.0
O1565 O 0.48035 0.51482 0.4835 0.0
O1566 O 0.50685 0.53809 0.54688 0.0
O1567 O 0.53823 0.53351 0.57023 0.0
C1568 C 0.5301 0.57181 0.51887 0.0
C1569 C 0.62501 0.53527 0.57247 0.0
C1570 C 0.65895 0.52274 0.5638 0.0
C1571 C 0.66659 0.52511 0.58833 0.0
C1572 C 0.6327 0.53796 0.59705 0.0
C1573 C 0.65353 0.53293 0.60491 0.0
C1574 C 0.63835 0.528 0.55597 0.0
C1575 C 0.55216 0.5326 0.49169 0.0
C1576 C 0.60282 0.53917 0.56377 0.0
C1577 C 0.60285 0.63389 0.58788 0.0
C1578 C 0.61012 0.63467 0.56541 0.0
C1579 C 0.54199 0.49345 0.53941 0.0
C1580 C 0.453 0.53584 0.49012 0.0
C1581 C 0.42821 0.56093 0.50017 0.0
C1582 C 0.42838 0.5675 0.47734 0.0
C1583 C 0.45284 0.54223 0.4672 0.0
C1584 C 0.44031 0.54489 0.50625 0.0
C1585 C 0.44051 0.55799 0.46089 0.0
C1586 C 0.5175 0.537 0.56794 0.0
C1587 C 0.46561 0.51919 0.49717 0.0
H1588 H 0.68251 0.52079 0.59456 0.0
H1589 H 0.62252 0.54361 0.61012 0.0
H1590 H 0.65937 0.53477 0.62384 0.0
H1591 H 0.63236 0.52559 0.53697 0.0
H1592 H 0.41915 0.57992 0.47216 0.0
H1593 H 0.46215 0.53506 0.45414 0.0
H1594 H 0.43952 0.53906 0.52343 0.0
H1595 H 0.44038 0.56287 0.44326 0.0
Tb1596 Tb 0.00762 0.53599 0.04003 0.0
C1597 C 0.08339 0.57816 0.99025 0.0
N1598 N 0.06998 0.55715 0.98499 0.0
C1599 C 0.06304 0.56252 0.94382 0.0
C1600 C 0.08626 0.5924 0.97264 0.0
C1601 C 0.06121 0.5488 0.96162 0.0
C1602 C 0.07527 0.58454 0.94942 0.0
C1603 C 0.11194 0.60539 0.01803 0.0
C1604 C 0.09626 0.58467 0.01267 0.0
C1605 C 0.11383 0.62 0.00096 0.0
C1606 C 0.10104 0.61352 0.97832 0.0
Tb1607 Tb 0.07017 0.5366 0.01629 0.0
N1608 N 0.09444 0.57008 0.02877 0.0
C1609 C 0.12607 0.61035 0.03997 0.0
C1610 C 0.10941 0.574 0.04934 0.0
C1611 C 0.12513 0.59442 0.05548 0.0
H1612 H 0.05341 0.53136 0.95601 0.0
H1613 H 0.13667 0.59792 0.07198 0.0
H1614 H 0.01922 0.54119 0.10019 0.0
H1615 H 0.93883 0.48053 0.97971 0.0
H1616 H 0.10875 0.56139 0.061 0.0
H1617 H 0.13838 0.62607 0.04471 0.0
H1618 H 0.96778 0.51547 0.99323 0.0
H1619 H 0.05562 0.55584 0.92558 0.0
H1620 H 0.12575 0.63601 0.00478 0.0
H1621 H 0.10337 0.62462 0.965 0.0
H1622 H 0.01136 0.51693 0.1309 0.0
H1623 H 0.07716 0.59492 0.9354 0.0
H1624 H 0.93193 0.45207 0.00673 0.0
N1625 N 1.00042 0.51682 0.0714 0.0
C1626 C 0.98496 0.49703 0.06541 0.0
C1627 C 1.0041 0.51099 0.11247 0.0
C1628 C 0.97969 0.48278 0.08253 0.0
C1629 C 0.00878 0.52457 0.09486 0.0
C1630 C 0.98993 0.48978 0.10619 0.0
N1631 N 0.97866 0.50583 0.02622 0.0
C1632 C 0.96565 0.50267 0.00454 0.0
C1633 C 0.95696 0.47147 0.03557 0.0
C1634 C 0.97357 0.49147 0.04221 0.0
C1635 C 0.9449 0.4672 0.01251 0.0
C1636 C 0.94886 0.48315 0.99714 0.0
H1637 H 0.98633 0.47932 0.11988 0.0
H1638 H 0.95993 0.45103 0.08852 0.0
H1639 H 0.9401 0.44111 0.04739 0.0
O1640 O 0.9782 0.54739 0.02901 0.0
O1641 O 0.01518 0.50174 0.02963 0.0
O1642 O 0.04911 0.50184 0.01242 0.0
O1643 O 0.99689 0.55849 0.06465 0.0
O1644 O 0.02025 0.54373 0.00741 0.0
O1645 O 0.04095 0.52137 0.99046 0.0
O1646 O 0.09734 0.52326 0.03061 0.0
O1647 O 0.06377 0.56644 0.03925 0.0
O1648 O 0.02622 0.56728 0.02911 0.0
O1649 O 0.09454 0.53012 0.99451 0.0
O1650 O 0.06366 0.52495 0.04982 0.0
O1651 O 0.03815 0.54457 0.06516 0.0
C1652 C 0.03013 0.4913 0.01974 0.0
C1653 C 0.95788 0.5604 0.05911 0.0
C1654 C 0.92352 0.57549 0.0572 0.0
C1655 C 0.91868 0.56703 0.0784 0.0
C1656 C 0.95286 0.55203 0.08021 0.0
C1657 C 0.93326 0.55536 0.08976 0.0
C1658 C 0.94312 0.5719 0.04763 0.0
C1659 C 0.02203 0.52817 0.99075 0.0
C1660 C 0.97932 0.55957 0.04969 0.0
C1661 C 0.96392 0.46234 0.07568 0.0
C1662 C 0.9526 0.45669 0.05226 0.0
C1663 C 0.04735 0.57784 0.03731 0.0
C1664 C 0.11197 0.50064 0.00255 0.0
C1665 C 0.14054 0.4781 0.00315 0.0
C1666 C 0.12729 0.463 0.98396 0.0
C1667 C 0.09853 0.48522 0.98366 0.0
C1668 C 0.13278 0.49681 0.01256 0.0
C1669 C 0.10626 0.46647 0.97442 0.0
C1670 C 0.05256 0.53148 0.06704 0.0
C1671 C 0.10571 0.52177 0.01059 0.0
H1672 H 0.9036 0.56938 0.0862 0.0
H1673 H 0.96421 0.54333 0.08947 0.0
H1674 H 0.92947 0.54909 0.10615 0.0
H1675 H 0.94748 0.57887 0.03172 0.0
H1676 H 0.13342 0.44874 0.97617 0.0
H1677 H 0.08242 0.48799 0.97568 0.0
H1678 H 0.14338 0.50887 0.02686 0.0
H1679 H 0.0962 0.45489 0.9595 0.0
H1680 H 0.99976 0.17676 0.9532 0.0
H1681 H 0.02821 0.22123 0.01918 0.0
H1682 H 0.03725 0.18918 0.03752 0.0
H1683 H 0.97435 0.1288 0.9813 0.0
H1684 H 0.9808 0.10803 0.95944 0.0
H1685 H 0.97637 0.13433 0.95114 0.0
H1686 H 0.01574 0.1412 0.9363 0.0
H1687 H 0.02029 0.11496 0.94467 0.0
H1688 H 0.0407 0.14052 0.95635 0.0
H1689 H 0.04456 0.15192 0.04909 0.0
H1690 H 0.0474 0.11329 0.05342 0.0
H1691 H 0.01368 0.09075 0.98086 0.0
C1692 C 0.00775 0.17981 0.97158 0.0
C1693 C 0.01309 0.20211 0.98458 0.0
C1694 C 0.0237 0.20477 0.00858 0.0
C1695 C 0.02903 0.18647 0.01924 0.0
C1696 C 0.0237 0.16497 0.00601 0.0
C1697 C 0.01313 0.16146 0.9827 0.0
C1698 C 0.0092 0.13643 0.97263 0.0
C1699 C 0.98366 0.1263 0.96571 0.0
C1700 C 0.02225 0.13308 0.95121 0.0
C1701 C 0.0191 0.12647 0.99386 0.0
C1702 C 0.02753 0.14339 0.01284 0.0
C1703 C 0.03786 0.13866 0.03427 0.0
C1704 C 0.0395 0.11638 0.03654 0.0
C1705 C 0.03086 0.09833 0.01765 0.0
C1706 C 0.02045 0.10377 0.99589 0.0
H1707 H 0.12206 0.79063 0.18336 0.0
H1708 H 0.15811 0.81706 0.12761 0.0
H1709 H 0.19459 0.81613 0.15085 0.0
H1710 H 0.16351 0.81926 0.23432 0.0
H1711 H 0.16097 0.79584 0.25071 0.0
H1712 H 0.13716 0.79871 0.23027 0.0
H1713 H 0.13513 0.75914 0.20769 0.0
H1714 H 0.15883 0.75612 0.2282 0.0
H1715 H 0.16016 0.75251 0.19652 0.0
H1716 H 0.22745 0.81401 0.18014 0.0
H1717 H 0.25497 0.80793 0.21199 0.0
H1718 H 0.19973 0.78024 0.24978 0.0
C1719 C 0.13767 0.79636 0.17614 0.0
C1720 C 0.13697 0.80425 0.15351 0.0
C1721 C 0.15791 0.8111 0.14473 0.0
C1722 C 0.17885 0.81066 0.1579 0.0
C1723 C 0.17898 0.80298 0.17999 0.0
C1724 C 0.159 0.79565 0.18904 0.0
C1725 C 0.16438 0.78741 0.21298 0.0
C1726 C 0.156 0.80112 0.23327 0.0
C1727 C 0.15401 0.7623 0.21124 0.0
C1728 C 0.19045 0.79175 0.21611 0.0
C1729 C 0.19828 0.80081 0.19673 0.0
C1730 C 0.22145 0.8067 0.19524 0.0
C1731 C 0.23708 0.80308 0.21367 0.0
C1732 C 0.22996 0.79326 0.23372 0.0
C1733 C 0.20606 0.78773 0.23492 0.0
H1734 H 0.49196 0.85063 0.49806 0.0
H1735 H 0.55311 0.85553 0.4636 0.0
H1736 H 0.56108 0.8962 0.47354 0.0
H1737 H 0.47474 0.89937 0.48316 0.0
H1738 H 0.46769 0.90996 0.51174 0.0
H1739 H 0.46626 0.88041 0.50391 0.0
H1740 H 0.4937 0.88068 0.54203 0.0
H1741 H 0.49489 0.91019 0.55011 0.0
H1742 H 0.52076 0.90022 0.54774 0.0
H1743 H 0.5604 0.93533 0.48049 0.0
H1744 H 0.55673 0.97325 0.49263 0.0
H1745 H 0.49898 0.9488 0.52891 0.0
C1746 C 0.50745 0.86023 0.49344 0.0
C1747 C 0.52194 0.84929 0.47984 0.0
C1748 C 0.54171 0.86297 0.47392 0.0
C1749 C 0.54638 0.88633 0.47937 0.0
C1750 C 0.53158 0.89656 0.49162 0.0
C1751 C 0.51297 0.88423 0.49957 0.0
C1752 C 0.50085 0.90065 0.51336 0.0
C1753 C 0.47589 0.89739 0.50238 0.0
C1754 C 0.50264 0.89776 0.53989 0.0
C1755 C 0.51477 0.92377 0.5103 0.0
C1756 C 0.53232 0.92043 0.49761 0.0
C1757 C 0.54717 0.93819 0.49112 0.0
C1758 C 0.54484 0.96003 0.49835 0.0
C1759 C 0.52797 0.96492 0.51261 0.0
C1760 C 0.51229 0.94615 0.51833 0.0
H1761 H 0.48581 0.27033 0.63376 0.0
H1762 H 0.52833 0.32376 0.68519 0.0
H1763 H 0.49579 0.32629 0.70737 0.0
H1764 H 0.43041 0.29179 0.63768 0.0
H1765 H 0.41385 0.26364 0.6347 0.0
H1766 H 0.43882 0.26931 0.61986 0.0
H1767 H 0.45537 0.23975 0.6406 0.0
H1768 H 0.43058 0.23396 0.65542 0.0
H1769 H 0.45843 0.24209 0.67274 0.0
H1770 H 0.46098 0.31844 0.72792 0.0
H1771 H 0.42721 0.30041 0.74495 0.0
H1772 H 0.40672 0.25234 0.68031 0.0
C1773 C 0.48782 0.28331 0.64896 0.0
C1774 C 0.50932 0.2974 0.65737 0.0
C1775 C 0.51177 0.31336 0.67809 0.0
C1776 C 0.49338 0.31486 0.69084 0.0
C1777 C 0.47249 0.30033 0.68259 0.0
C1778 C 0.46949 0.28504 0.66191 0.0
C1779 C 0.44609 0.26968 0.65844 0.0
C1780 C 0.43142 0.27385 0.63636 0.0
C1781 C 0.44774 0.24492 0.65672 0.0
C1782 C 0.43717 0.27757 0.68123 0.0
C1783 C 0.45235 0.29569 0.69461 0.0
C1784 C 0.44868 0.30462 0.71731 0.0
C1785 C 0.42939 0.29437 0.72684 0.0
C1786 C 0.41421 0.27517 0.71386 0.0
C1787 C 0.41787 0.26722 0.69047 0.0
H1788 H 0.02586 0.83982 0.67462 0.0
H1789 H 0.03399 0.78877 0.61841 0.0
H1790 H 0.03842 0.81654 0.5908 0.0
H1791 H 0.99429 0.86973 0.63328 0.0
H1792 H 0.00716 0.89701 0.64968 0.0
H1793 H 1.00256 0.87294 0.66508 0.0
H1794 H 0.0453 0.88132 0.68205 0.0
H1795 H 0.04988 0.90563 0.66717 0.0
H1796 H 0.06635 0.88453 0.66184 0.0
H1797 H 0.04353 0.84961 0.5693 0.0
H1798 H 0.0538 0.88705 0.55704 0.0
H1799 H 0.04398 0.91777 0.6267 0.0
C1800 C 0.02835 0.83448 0.65644 0.0
C1801 C 0.02935 0.81192 0.64871 0.0
C1802 C 0.03283 0.80575 0.62478 0.0
C1803 C 0.03531 0.82144 0.60885 0.0
C1804 C 0.03406 0.84338 0.61687 0.0
C1805 C 0.03075 0.85002 0.6401 0.0
C1806 C 0.0311 0.875 0.64418 0.0
C1807 C 0.00738 0.87891 0.6483 0.0
C1808 C 0.04926 0.88733 0.66504 0.0
C1809 C 0.03701 0.88154 0.62028 0.0
C1810 C 0.03763 0.86282 0.6045 0.0
C1811 C 0.04294 0.8644 0.58143 0.0
C1812 C 0.04862 0.88571 0.57454 0.0
C1813 C 0.04947 0.90522 0.5908 0.0
C1814 C 0.04314 0.90306 0.61382 0.0
H1815 H 0.4657 0.83591 0.81783 0.0
H1816 H 0.47148 0.76901 0.83012 0.0
H1817 H 0.42972 0.75635 0.82074 0.0
H1818 H 0.4145 0.83602 0.84522 0.0
H1819 H 0.40202 0.85152 0.82445 0.0
H1820 H 0.43251 0.85541 0.83046 0.0
H1821 H 0.43456 0.84561 0.78541 0.0
H1822 H 0.40409 0.84174 0.77921 0.0
H1823 H 0.41784 0.81955 0.76919 0.0
H1824 H 0.38734 0.75024 0.80838 0.0
H1825 H 0.34738 0.75183 0.79729 0.0
H1826 H 0.36663 0.82311 0.79745 0.0
C1827 C 0.4582 0.81852 0.81829 0.0
C1828 C 0.47223 0.80339 0.82454 0.0
C1829 C 0.46143 0.78094 0.82535 0.0
C1830 C 0.4376 0.77357 0.81998 0.0
C1831 C 0.42435 0.78884 0.81412 0.0
C1832 C 0.43418 0.81093 0.81341 0.0
C1833 C 0.41566 0.824 0.80762 0.0
C1834 C 0.41621 0.84286 0.82816 0.0
C1835 C 0.4182 0.83327 0.78395 0.0
C1836 C 0.39394 0.80582 0.80528 0.0
C1837 C 0.39956 0.78566 0.80883 0.0
C1838 C 0.38282 0.76615 0.80646 0.0
C1839 C 0.35989 0.76725 0.80082 0.0
C1840 C 0.35311 0.78769 0.7984 0.0
C1841 C 0.37074 0.80725 0.80011 0.0
H1842 H 0.50429 0.18489 0.12079 0.0
H1843 H 0.54925 0.17604 0.18206 0.0
H1844 H 0.5595 0.14449 0.15822 0.0
H1845 H 0.48281 0.12524 0.1001 0.0
H1846 H 0.48154 0.12743 0.06871 0.0
H1847 H 0.47852 0.15076 0.08959 0.0
H1848 H 0.51169 0.17602 0.07429 0.0
H1849 H 0.51494 0.15259 0.0536 0.0
H1850 H 0.53883 0.16805 0.07473 0.0
H1851 H 0.56876 0.1168 0.12729 0.0
H1852 H 0.56852 0.08718 0.09393 0.0
H1853 H 0.51216 0.1063 0.05414 0.0
C1854 C 0.51628 0.17628 0.12912 0.0
C1855 C 0.5261 0.18334 0.15352 0.0
C1856 C 0.54146 0.17126 0.16362 0.0
C1857 C 0.5476 0.15331 0.15011 0.0
C1858 C 0.53798 0.14694 0.12632 0.0
C1859 C 0.52215 0.15752 0.11592 0.0
C1860 C 0.5134 0.1457 0.0903 0.0
C1861 C 0.48752 0.13674 0.087 0.0
C1862 C 0.5201 0.16154 0.07216 0.0
C1863 C 0.52626 0.12657 0.08851 0.0
C1864 C 0.54107 0.12847 0.10924 0.0
C1865 C 0.55644 0.11446 0.11145 0.0
C1866 C 0.55589 0.0973 0.09262 0.0
C1867 C 0.53925 0.09308 0.07227 0.0
C1868 C 0.5247 0.10854 0.06978 0.0
H1869 H 0.14179 0.32605 0.35638 0.0
H1870 H 0.09372 0.2861 0.2976 0.0
H1871 H 0.1256 0.27531 0.27851 0.0
H1872 H 0.185 0.34663 0.31855 0.0
H1873 H 0.20887 0.34651 0.34034 0.0
H1874 H 0.18241 0.35079 0.34996 0.0
H1875 H 0.18126 0.31749 0.37375 0.0
H1876 H 0.20769 0.31313 0.36412 0.0
H1877 H 0.18296 0.29051 0.35861 0.0
H1878 H 0.16325 0.26752 0.26592 0.0
H1879 H 0.20252 0.26613 0.25929 0.0
H1880 H 0.22807 0.31283 0.32444 0.0
C1881 C 0.13794 0.31507 0.33945 0.0
C1882 C 0.11476 0.30695 0.32867 0.0
C1883 C 0.11094 0.29275 0.30636 0.0
C1884 C 0.12911 0.28642 0.29536 0.0
C1885 C 0.15157 0.29464 0.30637 0.0
C1886 C 0.15611 0.30899 0.32778 0.0
C1887 C 0.182 0.31613 0.33522 0.0
C1888 C 0.19004 0.34153 0.33608 0.0
C1889 C 0.18888 0.30888 0.35936 0.0
C1890 C 0.19124 0.30329 0.31496 0.0
C1891 C 0.17328 0.29088 0.29862 0.0
C1892 C 0.17731 0.27736 0.27862 0.0
C1893 C 0.19996 0.27659 0.27503 0.0
C1894 C 0.219 0.2893 0.29114 0.0
C1895 C 0.21425 0.3029 0.31149 0.0
H1896 H 0.97291 0.99516 0.18607 0.0
H1897 H 0.95281 0.05868 0.20055 0.0
H1898 H 0.96825 0.07044 0.16443 0.0
H1899 H 0.02544 0.01533 0.1635 0.0
H1900 H 0.02189 0.99188 0.14011 0.0
H1901 H 0.00932 0.98827 0.16704 0.0
H1902 H 0.96964 0.9729 0.14201 0.0
H1903 H 0.98232 0.97628 0.11509 0.0
H1904 H 0.95891 0.9893 0.12106 0.0
H1905 H 0.98419 0.07468 0.12552 0.0
H1906 H 1.00147 0.07173 0.08794 0.0
H1907 H 0.01323 0.00647 0.09939 0.0
C1908 C 0.97198 0.0116 0.18165 0.0
C1909 C 0.96184 0.02617 0.19615 0.0
C1910 C 0.96059 0.04738 0.18969 0.0
C1911 C 0.96927 0.05416 0.16919 0.0
C1912 C 0.97906 0.03946 0.15513 0.0
C1913 C 0.9805 0.0186 0.16105 0.0
C1914 C 0.99152 0.00593 0.14255 0.0
C1915 C 0.01335 1.00002 0.15399 0.0
C1916 C 0.97459 0.98485 0.12941 0.0
C1917 C 0.99672 0.02319 0.12585 0.0
C1918 C 0.98892 0.04222 0.13313 0.0
C1919 C 0.9905 0.05991 0.11976 0.0
C1920 C 1.00024 0.0581 0.09841 0.0
C1921 C 0.00876 0.039 0.09091 0.0
C1922 C 0.00715 0.02144 0.10497 0.0
H1923 H 0.2874 0.65903 0.47296 0.0
H1924 H 0.25297 0.69539 0.52256 0.0
H1925 H 0.24434 0.71884 0.49253 0.0
H1926 H 0.31175 0.70762 0.44588 0.0
H1927 H 0.30769 0.6927 0.41593 0.0
H1928 H 0.31243 0.67831 0.44116 0.0
H1929 H 0.27484 0.64882 0.42734 0.0
H1930 H 0.27088 0.66223 0.40134 0.0
H1931 H 0.24881 0.65822 0.42027 0.0
H1932 H 0.23965 0.73858 0.45888 0.0
H1933 H 0.23031 0.74768 0.41851 0.0
H1934 H 0.26641 0.69876 0.38918 0.0
C1935 C 0.27841 0.67221 0.47747 0.0
C1936 C 0.27183 0.67625 0.50037 0.0
C1937 C 0.25922 0.6929 0.5055 0.0
C1938 C 0.25418 0.70628 0.48859 0.0
C1939 C 0.26199 0.70287 0.46668 0.0
C1940 C 0.27328 0.68595 0.46071 0.0
C1941 C 0.27826 0.68518 0.43513 0.0
C1942 C 0.30406 0.69132 0.43447 0.0
C1943 C 0.26754 0.66225 0.42016 0.0
C1944 C 0.26675 0.70342 0.42746 0.0
C1945 C 0.25837 0.71394 0.44636 0.0
C1946 C 0.24614 0.73061 0.44386 0.0
C1947 C 0.241 0.73572 0.421 0.0
C1948 C 0.24772 0.72384 0.40117 0.0
C1949 C 0.26148 0.70816 0.40437 0.0
H1950 H 0.62177 0.01623 0.68058 0.0
H1951 H 0.67537 0.07135 0.67083 0.0
H1952 H 0.64925 0.08186 0.6399 0.0
H1953 H 0.60016 0.99916 0.62104 0.0
H1954 H 0.57084 0.9923 0.62612 0.0
H1955 H 0.59308 0.99107 0.64917 0.0
H1956 H 0.57733 0.01835 0.67832 0.0
H1957 H 0.55538 0.02004 0.65493 0.0
H1958 H 0.57442 0.04519 0.67038 0.0
H1959 H 0.61784 0.08622 0.61078 0.0
H1960 H 0.58642 0.07839 0.57761 0.0
H1961 H 0.555 0.01883 0.6045 0.0
C1962 C 0.62798 0.03049 0.67187 0.0
C1963 C 0.65033 0.04304 0.67788 0.0
C1964 C 0.65819 0.06147 0.66617 0.0
C1965 C 0.64342 0.06783 0.64904 0.0
C1966 C 0.62113 0.05553 0.64416 0.0
C1967 C 0.61359 0.03696 0.65481 0.0
C1968 C 0.58965 0.02515 0.64459 0.0
C1969 C 0.58839 1.00047 0.63462 0.0
C1970 C 0.57323 0.02732 0.66316 0.0
C1971 C 0.58563 0.03893 0.62515 0.0
C1972 C 0.60344 0.05712 0.62616 0.0
C1973 C 0.60385 0.07202 0.60973 0.0
C1974 C 0.58612 0.06738 0.59094 0.0
C1975 C 0.56916 0.04774 0.58847 0.0
C1976 C 0.56822 0.03382 0.60615 0.0
H1977 H 0.30778 0.33352 0.96675 0.0
H1978 H 0.27296 0.38658 0.95093 0.0
H1979 H 0.26767 0.3721 0.90861 0.0
H1980 H 0.33767 0.33182 0.91662 0.0
H1981 H 0.33335 0.30183 0.90938 0.0
H1982 H 0.33323 0.31439 0.93967 0.0
H1983 H 0.29327 0.29004 0.94016 0.0
H1984 H 0.29339 0.27723 0.90992 0.0
H1985 H 0.27046 0.29047 0.91721 0.0
H1986 H 0.26828 0.35585 0.8691 0.0
H1987 H 0.27254 0.33617 0.83119 0.0
H1988 H 0.30662 0.2909 0.86738 0.0
C1989 C 0.29876 0.34178 0.95432 0.0
C1990 C 0.2911 0.36153 0.96243 0.0
C1991 C 0.27938 0.37178 0.94548 0.0
C1992 C 0.27613 0.36359 0.92123 0.0
C1993 C 0.2844 0.34482 0.91373 0.0
C1994 C 0.29519 0.33364 0.92945 0.0
C1995 C 0.30242 0.31387 0.91543 0.0
C1996 C 0.32821 0.3156 0.92059 0.0
C1997 C 0.28911 0.29158 0.92102 0.0
C1998 C 0.29528 0.31692 0.88958 0.0
C1999 C 0.28454 0.33473 0.88959 0.0
C2000 C 0.27644 0.3417 0.86876 0.0
C2001 C 0.27913 0.33023 0.84708 0.0
C2002 C 0.29002 0.31174 0.84581 0.0
C2003 C 0.29825 0.30491 0.86756 0.0
H2004 H 0.98877 0.04899 0.34993 0.0
H2005 H 0.94702 0.98183 0.33799 0.0
H2006 H 0.9557 0.97881 0.38063 0.0
H2007 H 0.03237 0.03917 0.39003 0.0
H2008 H 0.03714 0.06522 0.40999 0.0
H2009 H 0.02574 0.06376 0.37916 0.0
H2010 H 0.99101 0.07856 0.39204 0.0
H2011 H 1.00249 0.08029 0.42295 0.0
H2012 H 0.97414 0.06438 0.41208 0.0
H2013 H 0.9724 0.9806 0.4225 0.0
H2014 H 0.99355 0.98878 0.46315 0.0
H2015 H 0.02393 0.0553 0.45047 0.0
C2016 C 0.98103 0.03397 0.35657 0.0
C2017 C 0.96703 0.01564 0.34077 0.0
C2018 C 0.9576 0.99604 0.34987 0.0
C2019 C 0.96246 0.99417 0.37405 0.0
C2020 C 0.97675 0.01213 0.38911 0.0
C2021 C 0.98564 0.03186 0.38097 0.0
C2022 C 1.00132 0.04812 0.40111 0.0
C2023 C 0.02558 0.05443 0.39468 0.0
C2024 C 0.99166 0.06908 0.40741 0.0
C2025 C 1.00054 0.03401 0.42133 0.0
C2026 C 0.98612 0.01337 0.4139 0.0
C2027 C 0.98342 0.99684 0.42866 0.0
C2028 C 0.99562 1.00154 0.45169 0.0
C2029 C 0.01028 0.02254 0.4599 0.0
C2030 C 0.01267 0.03911 0.44459 0.0
H2031 H 0.29891 0.67885 0.63563 0.0
H2032 H 0.22579 0.65499 0.62882 0.0
H2033 H 0.22322 0.68665 0.65899 0.0
H2034 H 0.30756 0.6925 0.69766 0.0
H2035 H 0.32974 0.71699 0.69846 0.0
H2036 H 0.32527 0.69439 0.67411 0.0
H2037 H 0.32068 0.72234 0.64422 0.0
H2038 H 0.32469 0.74495 0.66861 0.0
H2039 H 0.29949 0.73905 0.64692 0.0
H2040 H 0.22863 0.7207 0.68855 0.0
H2041 H 0.24241 0.75101 0.72262 0.0
H2042 H 0.31215 0.74868 0.71384 0.0
C2043 C 0.28243 0.68046 0.64058 0.0
C2044 C 0.26252 0.66493 0.63037 0.0
C2045 C 0.24113 0.66695 0.63699 0.0
C2046 C 0.2395 0.68492 0.65365 0.0
C2047 C 0.25948 0.70019 0.66338 0.0
C2048 C 0.2806 0.69791 0.6575 0.0
C2049 C 0.29965 0.7151 0.67251 0.0
C2050 C 0.31653 0.70406 0.68652 0.0
C2051 C 0.31183 0.73132 0.65715 0.0
C2052 C 0.28595 0.72645 0.68871 0.0
C2053 C 0.2628 0.71837 0.68234 0.0
C2054 C 0.24669 0.72683 0.69416 0.0
C2055 C 0.25459 0.74363 0.71362 0.0
C2056 C 0.27812 0.75026 0.72168 0.0
C2057 C 0.29402 0.74238 0.70868 0.0
H2058 H 0.62384 0.02472 0.80891 0.0
H2059 H 0.68065 0.08145 0.82323 0.0
H2060 H 0.67524 0.0868 0.86567 0.0
H2061 H 0.58806 0.04361 0.83461 0.0
H2062 H 0.57542 0.0207 0.84917 0.0
H2063 H 0.58949 0.01518 0.82377 0.0
H2064 H 0.61606 0.99543 0.84802 0.0
H2065 H 0.60164 1.00052 0.87365 0.0
H2066 H 0.63211 0.0096 0.87604 0.0
H2067 H 0.65713 0.0938 0.89991 0.0
H2068 H 0.62687 0.10323 0.92238 0.0
H2069 H 0.58082 0.0422 0.88756 0.0
C2070 C 0.63557 0.03756 0.8215 0.0
C2071 C 0.65255 0.05264 0.81354 0.0
C2072 C 0.66769 0.06966 0.8296 0.0
C2073 C 0.66492 0.07257 0.85368 0.0
C2074 C 0.64725 0.05799 0.86118 0.0
C2075 C 0.63306 0.04045 0.84562 0.0
C2076 C 0.61271 0.03015 0.85673 0.0
C2077 C 0.59012 0.02733 0.84008 0.0
C2078 C 0.61581 0.0076 0.86407 0.0
C2079 C 0.61504 0.0477 0.87842 0.0
C2080 C 0.63606 0.06243 0.88172 0.0
C2081 C 0.64091 0.08214 0.89796 0.0
C2082 C 0.6236 0.08764 0.91022 0.0
C2083 C 0.60179 0.07365 0.90582 0.0
C2084 C 0.59761 0.05302 0.89074 0.0
H2085 H 0.3122 0.37325 0.13596 0.0
H2086 H 0.2691 0.31771 0.087 0.0
H2087 H 0.25656 0.29993 0.12117 0.0
H2088 H 0.33095 0.34042 0.17922 0.0
H2089 H 0.33058 0.36072 0.20476 0.0
H2090 H 0.33545 0.36979 0.17652 0.0
H2091 H 0.30164 0.38987 0.17822 0.0
H2092 H 0.29652 0.38042 0.2063 0.0
H2093 H 0.27399 0.37408 0.18149 0.0
H2094 H 0.24516 0.29046 0.16034 0.0
H2095 H 0.24391 0.28416 0.20214 0.0
H2096 H 0.29864 0.34162 0.22607 0.0
C2097 C 0.30024 0.35727 0.13245 0.0
C2098 C 0.29155 0.34693 0.1087 0.0
C2099 C 0.27599 0.326 0.10492 0.0
C2100 C 0.26858 0.31585 0.12425 0.0
C2101 C 0.27702 0.32671 0.14733 0.0
C2102 C 0.29291 0.34666 0.15162 0.0
C2103 C 0.30005 0.35403 0.17836 0.0
C2104 C 0.32579 0.35636 0.1851 0.0
C2105 C 0.29262 0.37591 0.18657 0.0
C2106 C 0.28642 0.3346 0.18827 0.0
C2107 C 0.27255 0.3196 0.17001 0.0
C2108 C 0.25693 0.30137 0.1746 0.0
C2109 C 0.25677 0.29742 0.19827 0.0
C2110 C 0.27307 0.31043 0.21687 0.0
C2111 C 0.28701 0.3303 0.21206 0.0
H2112 H 0.24428 0.94958 0.02791 0.0
H2113 H 0.22974 0.9601 0.95456 0.0
H2114 H 0.20095 0.98185 0.96625 0.0
H2115 H 0.18952 0.94614 0.04712 0.0
H2116 H 0.20138 0.96254 0.07577 0.0
H2117 H 0.21785 0.94556 0.06029 0.0
H2118 H 0.25045 0.98054 0.06268 0.0
H2119 H 0.23402 0.99782 0.07782 0.0
H2120 H 0.24445 0.0048 0.05063 0.0
H2121 H 0.17765 0.00601 0.98803 0.0
H2122 H 0.15944 0.0278 0.01662 0.0
H2123 H 0.19095 0.99994 0.0749 0.0
C2124 C 0.23425 0.95568 0.0142 0.0
C2125 C 0.23819 0.9529 0.99044 0.0
C2126 C 0.22598 0.96177 0.97279 0.0
C2127 C 0.20997 0.97423 0.97933 0.0
C2128 C 0.20714 0.97757 0.00344 0.0
C2129 C 0.21898 0.96844 0.02048 0.0
C2130 C 0.21526 0.97624 0.04541 0.0
C2131 C 0.20538 0.95644 0.05787 0.0
C2132 C 0.23735 0.99069 0.05998 0.0
C2133 C 0.19838 0.9903 0.0399 0.0
C2134 C 0.19426 0.99143 0.01575 0.0
C2135 C 0.18041 0.00491 0.00691 0.0
C2136 C 0.17015 0.01713 0.0233 0.0
C2137 C 0.17364 0.01536 0.04804 0.0
C2138 C 0.18808 1.0019 0.05625 0.0
H2139 H 0.68591 0.65339 0.03268 0.0
H2140 H 0.70126 0.61873 0.96745 0.0
H2141 H 0.66676 0.58911 0.96614 0.0
H2142 H 0.66795 0.60458 0.05922 0.0
H2143 H 0.64558 0.61467 0.0728 0.0
H2144 H 0.67012 0.63423 0.06732 0.0
H2145 H 0.64374 0.65433 0.04311 0.0
H2146 H 0.61909 0.63464 0.04821 0.0
H2147 H 0.62378 0.63855 0.01817 0.0
H2148 H 0.62887 0.56498 0.97035 0.0
H2149 H 0.59356 0.54496 0.98308 0.0
H2150 H 0.6084 0.5897 0.05035 0.0
C2151 C 0.6817 0.63976 0.01792 0.0
C2152 C 0.69582 0.63857 0.99975 0.0
C2153 C 0.69034 0.6201 0.98121 0.0
C2154 C 0.67083 0.60323 0.98035 0.0
C2155 C 0.65727 0.60479 0.99852 0.0
C2156 C 0.66266 0.62234 0.01722 0.0
C2157 C 0.646 0.61915 0.03528 0.0
C2158 C 0.65816 0.61808 0.06012 0.0
C2159 C 0.63235 0.63778 0.03625 0.0
C2160 C 0.63091 0.59675 0.02417 0.0
C2161 C 0.63712 0.58927 0.00248 0.0
C2162 C 0.62423 0.57032 0.98763 0.0
C2163 C 0.60441 0.55885 0.99512 0.0
C2164 C 0.59841 0.56549 0.01782 0.0
C2165 C 0.61216 0.58445 0.0327 0.0
H2166 H 0.66455 0.48229 0.25327 0.0
H2167 H 0.69107 0.5049 0.3279 0.0
H2168 H 0.71182 0.47391 0.32774 0.0
H2169 H 0.65884 0.42244 0.25247 0.0
H2170 H 0.66902 0.41848 0.22396 0.0
H2171 H 0.65439 0.44078 0.23085 0.0
H2172 H 0.68875 0.46974 0.22204 0.0
H2173 H 0.70334 0.44749 0.21489 0.0
H2174 H 0.7167 0.47091 0.23745 0.0
H2175 H 0.731 0.44116 0.31848 0.0
H2176 H 0.75003 0.41252 0.30015 0.0
H2177 H 0.71188 0.41288 0.23122 0.0
C2178 C 0.67444 0.48045 0.26966 0.0
C2179 C 0.67607 0.49569 0.29066 0.0
C2180 C 0.68964 0.49327 0.31164 0.0
C2181 C 0.70133 0.47567 0.31174 0.0
C2182 C 0.69951 0.46095 0.29059 0.0
C2183 C 0.68663 0.46342 0.26987 0.0
C2184 C 0.68938 0.44707 0.24887 0.0
C2185 C 0.66655 0.43125 0.23844 0.0
C2186 C 0.70018 0.45955 0.22969 0.0
C2187 C 0.70562 0.43481 0.26098 0.0
C2188 C 0.71114 0.44285 0.28508 0.0
C2189 C 0.72671 0.43469 0.29964 0.0
C2190 C 0.73736 0.41837 0.28911 0.0
C2191 C 0.73258 0.41063 0.26424 0.0
C2192 C 0.71607 0.41863 0.25024 0.0
H2193 H 0.87896 0.48293 0.53486 0.0
H2194 H 0.87498 0.45773 0.45982 0.0
H2195 H 0.9151 0.45481 0.46588 0.0
H2196 H 0.92485 0.52036 0.53898 0.0
H2197 H 0.93811 0.51784 0.56823 0.0
H2198 H 0.90798 0.50901 0.56068 0.0
H2199 H 0.91083 0.46996 0.57167 0.0
H2200 H 0.94138 0.47881 0.5784 0.0
H2201 H 0.92893 0.45419 0.55707 0.0
H2202 H 0.95443 0.46019 0.47685 0.0
H2203 H 0.98998 0.48783 0.4848 0.0
H2204 H 0.97083 0.51576 0.55102 0.0
C2205 C 0.88677 0.47656 0.51996 0.0
C2206 C 0.87452 0.47062 0.49699 0.0
C2207 C 0.88462 0.46259 0.47751 0.0
C2208 C 0.90706 0.46015 0.48101 0.0
C2209 C 0.91899 0.46599 0.50404 0.0
C2210 C 0.90939 0.47478 0.52309 0.0
C2211 C 0.92724 0.48597 0.54388 0.0
C2212 C 0.92438 0.50971 0.55342 0.0
C2213 C 0.92707 0.47136 0.56393 0.0
C2214 C 0.94824 0.48593 0.53175 0.0
C2215 C 0.94322 0.47167 0.5101 0.0
C2216 C 0.95878 0.47092 0.49394 0.0
C2217 C 0.97896 0.48677 0.49858 0.0
C2218 C 0.98313 0.50317 0.51902 0.0
C2219 C 0.96827 0.50231 0.53622 0.0
H2220 H 0.35774 0.06695 0.28513 0.0
H2221 H 0.35227 0.08985 0.35893 0.0
H2222 H 0.33639 0.12169 0.34611 0.0
H2223 H 0.37449 0.12045 0.26644 0.0
H2224 H 0.35798 0.11147 0.23733 0.0
H2225 H 0.36943 0.09156 0.25291 0.0
H2226 H 0.32896 0.06656 0.24905 0.0
H2227 H 0.31729 0.08642 0.23363 0.0
H2228 H 0.3064 0.07829 0.26021 0.0
H2229 H 0.31684 0.14725 0.32366 0.0
H2230 H 0.29928 0.16756 0.29486 0.0
H2231 H 0.32328 0.12941 0.23701 0.0
C2232 C 0.3533 0.07882 0.2986 0.0
C2233 C 0.35568 0.07631 0.32279 0.0
C2234 C 0.35014 0.09186 0.34024 0.0
C2235 C 0.34124 0.10977 0.33311 0.0
C2236 C 0.3386 0.11151 0.30876 0.0
C2237 C 0.34478 0.09655 0.29189 0.0
C2238 C 0.33987 0.10135 0.26686 0.0
C2239 C 0.36176 0.10654 0.25522 0.0
C2240 C 0.32208 0.08201 0.25156 0.0
C2241 C 0.33015 0.12169 0.27215 0.0
C2242 C 0.32903 0.12706 0.29625 0.0
C2243 C 0.31827 0.14371 0.30485 0.0
C2244 C 0.30852 0.15524 0.28829 0.0
C2245 C 0.31026 0.1504 0.26354 0.0
C2246 C 0.32145 0.13354 0.25563 0.0
H2247 H 0.32772 0.12745 0.49336 0.0
H2248 H 0.33669 0.17379 0.5589 0.0
H2249 H 0.374 0.16507 0.57062 0.0
H2250 H 0.34524 0.08629 0.51219 0.0
H2251 H 0.36218 0.07863 0.48957 0.0
H2252 H 0.34018 0.0934 0.48252 0.0
H2253 H 0.36933 0.12446 0.46902 0.0
H2254 H 0.39158 0.10963 0.47593 0.0
H2255 H 0.39462 0.13837 0.48906 0.0
H2256 H 0.40292 0.14403 0.58049 0.0
H2257 H 0.42334 0.11377 0.5865 0.0
H2258 H 0.39838 0.08195 0.51386 0.0
C2259 C 0.3383 0.13666 0.50943 0.0
C2260 C 0.32982 0.15165 0.52506 0.0
C2261 C 0.34336 0.16277 0.54649 0.0
C2262 C 0.36456 0.15791 0.55325 0.0
C2263 C 0.37219 0.14231 0.53805 0.0
C2264 C 0.35988 0.13234 0.51614 0.0
C2265 C 0.37076 0.11426 0.50459 0.0
C2266 C 0.35355 0.09183 0.49681 0.0
C2267 C 0.38225 0.12214 0.4834 0.0
C2268 C 0.38853 0.11311 0.52507 0.0
C2269 C 0.38982 0.13021 0.54371 0.0
C2270 C 0.40271 0.13107 0.56576 0.0
C2271 C 0.41408 0.11375 0.56911 0.0
C2272 C 0.41241 0.09581 0.55056 0.0
C2273 C 0.40018 0.09586 0.52804 0.0
H2274 H 0.68935 0.62341 0.26511 0.0
H2275 H 0.67283 0.63634 0.337 0.0
H2276 H 0.70024 0.67275 0.34368 0.0
H2277 H 0.75032 0.65051 0.2777 0.0
H2278 H 0.75038 0.66236 0.25027 0.0
H2279 H 0.7309 0.63646 0.25156 0.0
H2280 H 0.69708 0.65363 0.23686 0.0
H2281 H 0.71648 0.67955 0.23556 0.0
H2282 H 0.6933 0.67942 0.25299 0.0
H2283 H 0.7264 0.70856 0.34173 0.0
H2284 H 0.75068 0.74227 0.33143 0.0
H2285 H 0.7518 0.70687 0.26104 0.0
C2286 C 0.69201 0.63377 0.28239 0.0
C2287 C 0.67946 0.62704 0.30083 0.0
C2288 C 0.68266 0.64117 0.32293 0.0
C2289 C 0.69813 0.66184 0.32683 0.0
C2290 C 0.71018 0.66817 0.30836 0.0
C2291 C 0.70738 0.65464 0.28654 0.0
C2292 C 0.72152 0.66627 0.26931 0.0
C2293 C 0.73934 0.65311 0.26177 0.0
C2294 C 0.70618 0.66993 0.24739 0.0
C2295 C 0.73267 0.68837 0.28493 0.0
C2296 C 0.72574 0.68904 0.30733 0.0
C2297 C 0.73227 0.70813 0.32442 0.0
C2298 C 0.74605 0.72717 0.31845 0.0
C2299 C 0.75342 0.72695 0.29571 0.0
C2300 C 0.74693 0.70719 0.27882 0.0
H2301 H 0.86618 0.43838 0.82427 0.0
H2302 H 0.83929 0.45613 0.75728 0.0
H2303 H 0.81456 0.41823 0.74662 0.0
H2304 H 0.87118 0.38553 0.80422 0.0
H2305 H 0.86151 0.37248 0.82901 0.0
H2306 H 0.87447 0.40182 0.83345 0.0
H2307 H 0.83883 0.41158 0.85033 0.0
H2308 H 0.82616 0.38215 0.84655 0.0
H2309 H 0.81112 0.40102 0.83317 0.0
H2310 H 0.79478 0.37854 0.74265 0.0
H2311 H 0.77956 0.33909 0.74653 0.0
H2312 H 0.82259 0.34707 0.81419 0.0
C2313 C 0.85463 0.43425 0.80766 0.0
C2314 C 0.85413 0.44952 0.79141 0.0
C2315 C 0.83935 0.44415 0.76972 0.0
C2316 C 0.82538 0.42289 0.76363 0.0
C2317 C 0.82665 0.40773 0.77966 0.0
C2318 C 0.84059 0.4132 0.80141 0.0
C2319 C 0.83955 0.39352 0.81484 0.0
C2320 C 0.86309 0.38804 0.82069 0.0
C2321 C 0.82823 0.3973 0.83755 0.0
C2322 C 0.82436 0.37583 0.79635 0.0
C2323 C 0.81649 0.38445 0.77657 0.0
C2324 C 0.80106 0.37144 0.75784 0.0
C2325 C 0.79287 0.34905 0.75992 0.0
C2326 C 0.80116 0.34009 0.77989 0.0
C2327 C 0.81719 0.35348 0.7981 0.0
H2328 H 0.05463 0.86294 0.04572 0.0
H2329 H 0.06639 0.88304 0.12266 0.0
H2330 H 0.0602 0.92026 0.11726 0.0
H2331 H 0.08211 0.91786 0.03065 0.0
H2332 H 0.06177 0.9172 0.00486 0.0
H2333 H 0.06715 0.8914 0.01374 0.0
H2334 H 0.02427 0.87786 0.01568 0.0
H2335 H 0.01884 0.90372 0.00697 0.0
H2336 H 0.00986 0.89491 0.03411 0.0
H2337 H 0.05262 0.95551 0.10525 0.0
H2338 H 0.04575 0.98786 0.0871 0.0
H2339 H 0.03806 0.9492 0.01643 0.0
C2340 C 0.05598 0.87518 0.06143 0.0
C2341 C 0.06109 0.86933 0.08488 0.0
C2342 C 0.0625 0.88634 0.1046 0.0
C2343 C 0.05897 0.90784 0.10171 0.0
C2344 C 0.05381 0.91294 0.07883 0.0
C2345 C 0.05234 0.89729 0.05885 0.0
C2346 C 0.04652 0.90804 0.03639 0.0
C2347 C 0.06552 0.90865 0.02046 0.0
C2348 C 0.02351 0.89537 0.02245 0.0
C2349 C 0.04512 0.93198 0.04704 0.0
C2350 C 0.04938 0.93403 0.07164 0.0
C2351 C 0.04935 0.95404 0.08599 0.0
C2352 C 0.04537 0.97257 0.0753 0.0
C2353 C 0.04132 0.9718 0.05009 0.0
C2354 C 0.04088 0.95076 0.03572 0.0
H2355 H 0.9416 0.30085 0.88094 0.0
H2356 H 0.92278 0.23652 0.9051 0.0
H2357 H 0.88418 0.23108 0.882 0.0
H2358 H 0.88611 0.31593 0.88267 0.0
H2359 H 0.88873 0.33018 0.85697 0.0
H2360 H 0.91384 0.32897 0.87649 0.0
H2361 H 0.9303 0.31146 0.84031 0.0
H2362 H 0.90516 0.31228 0.8207 0.0
H2363 H 0.91405 0.28615 0.82212 0.0
H2364 H 0.84686 0.23321 0.8544 0.0
H2365 H 0.81631 0.24246 0.82719 0.0
H2366 H 0.86111 0.30476 0.82019 0.0
C2367 C 0.92941 0.28558 0.88161 0.0
C2368 C 0.93551 0.26907 0.89499 0.0
C2369 C 0.91869 0.24953 0.8953 0.0
C2370 C 0.8967 0.24629 0.88204 0.0
C2371 C 0.89157 0.26281 0.86865 0.0
C2372 C 0.90756 0.28217 0.86865 0.0
C2373 C 0.89829 0.29754 0.85296 0.0
C2374 C 0.89665 0.31945 0.86817 0.0
C2375 C 0.91282 0.30211 0.83283 0.0
C2376 C 0.87478 0.2836 0.84317 0.0
C2377 C 0.87095 0.26376 0.85272 0.0
C2378 C 0.84996 0.24867 0.8469 0.0
C2379 C 0.83264 0.25408 0.83134 0.0
C2380 C 0.83628 0.27421 0.82115 0.0
C2381 C 0.85783 0.28901 0.82715 0.0
H2382 H 0.54812 0.21386 0.55295 0.0
H2383 H 0.58495 0.21392 0.62315 0.0
H2384 H 0.58165 0.17409 0.61463 0.0
H2385 H 0.5103 0.15866 0.54867 0.0
H2386 H 0.51213 0.14893 0.51792 0.0
H2387 H 0.51601 0.17849 0.52812 0.0
H2388 H 0.55516 0.18558 0.51291 0.0
H2389 H 0.55123 0.15604 0.50255 0.0
H2390 H 0.57621 0.17042 0.52282 0.0
H2391 H 0.56953 0.13409 0.60352 0.0
H2392 H 0.55821 0.09504 0.58472 0.0
H2393 H 0.53731 0.11569 0.51737 0.0
C2394 C 0.55568 0.20554 0.5664 0.0
C2395 C 0.56617 0.21791 0.58934 0.0
C2396 C 0.57602 0.2057 0.60587 0.0
C2397 C 0.57436 0.18264 0.60124 0.0
C2398 C 0.56336 0.17101 0.57943 0.0
C2399 C 0.55479 0.18178 0.56173 0.0
C2400 C 0.54501 0.16404 0.53945 0.0
C2401 C 0.51934 0.16245 0.53316 0.0
C2402 C 0.55766 0.16935 0.51817 0.0
C2403 C 0.5496 0.14222 0.54789 0.0
C2404 C 0.55957 0.14704 0.57137 0.0
C2405 C 0.56309 0.1302 0.58468 0.0
C2406 C 0.55723 0.10788 0.57363 0.0
C2407 C 0.54936 0.10204 0.54897 0.0
C2408 C 0.54472 0.11957 0.53596 0.0
H2409 H 0.56321 0.79844 0.40047 0.0
H2410 H 0.57763 0.73901 0.42673 0.0
H2411 H 0.61035 0.74053 0.40349 0.0
H2412 H 0.57726 0.78892 0.34171 0.0
H2413 H 0.59116 0.8176 0.34151 0.0
H2414 H 0.56888 0.8113 0.35977 0.0
H2415 H 0.59593 0.83285 0.39744 0.0
H2416 H 0.61821 0.83956 0.37925 0.0
H2417 H 0.62301 0.82554 0.40471 0.0
H2418 H 0.64319 0.75025 0.37737 0.0
H2419 H 0.67267 0.76814 0.35443 0.0
H2420 H 0.63438 0.8197 0.34432 0.0
C2421 C 0.57322 0.7857 0.40119 0.0
C2422 C 0.56789 0.76853 0.41521 0.0
C2423 C 0.58155 0.75235 0.4161 0.0
C2424 C 0.60009 0.75305 0.40287 0.0
C2425 C 0.60496 0.77026 0.3891 0.0
C2426 C 0.59197 0.78643 0.38852 0.0
C2427 C 0.60137 0.80403 0.37377 0.0
C2428 C 0.5836 0.80553 0.35295 0.0
C2429 C 0.61013 0.82684 0.38974 0.0
C2430 C 0.62096 0.7948 0.36508 0.0
C2431 C 0.62322 0.77556 0.37436 0.0
C2432 C 0.6414 0.76528 0.36999 0.0
C2433 C 0.65803 0.77547 0.3567 0.0
C2434 C 0.65635 0.79569 0.34773 0.0
C2435 C 0.63684 0.80464 0.35127 0.0
H2436 H 0.0665 0.25805 0.42834 0.0
H2437 H 0.01643 0.22976 0.36619 0.0
H2438 H 0.00794 0.19413 0.38223 0.0
H2439 H 0.08584 0.20455 0.43391 0.0
H2440 H 0.09033 0.20986 0.46608 0.0
H2441 H 0.09411 0.23291 0.44914 0.0
H2442 H 0.06512 0.25031 0.47132 0.0
H2443 H 0.0616 0.22758 0.48856 0.0
H2444 H 0.03712 0.23363 0.47172 0.0
H2445 H 1.00303 0.16204 0.40573 0.0
H2446 H 1.00001 0.13715 0.43677 0.0
H2447 H 0.05262 0.18549 0.48421 0.0
C2448 C 0.05389 0.24428 0.41804 0.0
C2449 C 0.04221 0.24679 0.39587 0.0
C2450 C 0.02579 0.22831 0.38304 0.0
C2451 C 0.02087 0.20791 0.392 0.0
C2452 C 0.03267 0.20591 0.41376 0.0
C2453 C 0.04888 0.22356 0.42665 0.0
C2454 C 0.05851 0.21704 0.44997 0.0
C2455 C 0.08369 0.21604 0.44976 0.0
C2456 C 0.05537 0.2331 0.47167 0.0
C2457 C 0.04393 0.1937 0.44894 0.0
C2458 C 0.02972 0.18733 0.42748 0.0
C2459 C 0.01427 0.16675 0.42248 0.0
C2460 C 0.01275 0.15263 0.44014 0.0
C2461 C 0.02635 0.15922 0.46266 0.0
C2462 C 0.0424 0.17986 0.46693 0.0
H2463 H 0.60388 0.23376 0.22648 0.0
H2464 H 0.60046 0.30346 0.22781 0.0
H2465 H 0.64216 0.31453 0.23992 0.0
H2466 H 0.64848 0.24361 0.27946 0.0
H2467 H 0.66229 0.22215 0.26751 0.0
H2468 H 0.63216 0.21954 0.25934 0.0
H2469 H 0.63771 0.21528 0.21469 0.0
H2470 H 0.66787 0.21809 0.22285 0.0
H2471 H 0.65757 0.23661 0.2042 0.0
H2472 H 0.68528 0.31815 0.24942 0.0
H2473 H 0.72478 0.31427 0.25938 0.0
H2474 H 0.70163 0.24279 0.25521 0.0
C2475 C 0.61188 0.25138 0.22971 0.0
C2476 C 0.59852 0.26779 0.22635 0.0
C2477 C 0.60996 0.29059 0.23052 0.0
C2478 C 0.6338 0.29703 0.2373 0.0
C2479 C 0.64644 0.28058 0.2403 0.0
C2480 C 0.63584 0.25819 0.23709 0.0
C2481 C 0.65358 0.24399 0.24196 0.0
C2482 C 0.64884 0.23158 0.26334 0.0
C2483 C 0.65421 0.22751 0.21959 0.0
C2484 C 0.67575 0.2618 0.24797 0.0
C2485 C 0.67118 0.28275 0.24664 0.0
C2486 C 0.68886 0.30174 0.25054 0.0
C2487 C 0.71155 0.29936 0.25597 0.0
C2488 C 0.71702 0.27823 0.25782 0.0
C2489 C 0.69851 0.25923 0.25397 0.0
H2490 H 0.51981 0.88385 0.9086 0.0
H2491 H 0.59269 0.88925 0.9215 0.0
H2492 H 0.59631 0.92348 0.95078 0.0
H2493 H 0.52023 0.94218 0.91251 0.0
H2494 H 0.49566 0.94126 0.92798 0.0
H2495 H 0.49858 0.91683 0.90866 0.0
H2496 H 0.49455 0.89356 0.94345 0.0
H2497 H 0.49148 0.91792 0.96282 0.0
H2498 H 0.51329 0.90308 0.97119 0.0
H2499 H 0.59236 0.95874 0.97681 0.0
H2500 H 0.58092 0.99065 0.99967 0.0
H2501 H 0.51022 0.96199 0.97231 0.0
C2502 C 0.53646 0.89205 0.91796 0.0
C2503 C 0.55601 0.88364 0.91301 0.0
C2504 C 0.57751 0.8951 0.92528 0.0
C2505 C 0.5797 0.91466 0.94186 0.0
C2506 C 0.56019 0.92261 0.94628 0.0
C2507 C 0.5389 0.91149 0.93492 0.0
C2508 C 0.52068 0.92363 0.94301 0.0
C2509 C 0.50805 0.93144 0.92177 0.0
C2510 C 0.50401 0.90865 0.95588 0.0
C2511 C 0.53507 0.9435 0.96033 0.0
C2512 C 0.55784 0.94258 0.96182 0.0
C2513 C 0.57456 0.95942 0.97592 0.0
C2514 C 0.56793 0.97754 0.98884 0.0
C2515 C 0.54475 0.97874 0.98797 0.0
C2516 C 0.52808 0.96139 0.97354 0.0
H2517 H 0.93182 0.74981 0.70259 0.0
H2518 H 0.97203 0.76845 0.77251 0.0
H2519 H 0.93848 0.77726 0.78974 0.0
H2520 H 0.89553 0.79066 0.70838 0.0
H2521 H 0.8698 0.77167 0.69379 0.0
H2522 H 0.89704 0.76762 0.68623 0.0
H2523 H 0.88794 0.72725 0.69615 0.0
H2524 H 0.86067 0.73121 0.70371 0.0
H2525 H 0.88014 0.7226 0.7251 0.0
H2526 H 0.901 0.78511 0.79984 0.0
H2527 H 0.8617 0.78859 0.80304 0.0
H2528 H 0.8425 0.76272 0.7276 0.0
C2529 C 0.93359 0.75601 0.72147 0.0
C2530 C 0.95504 0.75886 0.7361 0.0
C2531 C 0.95616 0.76637 0.76083 0.0
C2532 C 0.93707 0.77142 0.77081 0.0
C2533 C 0.91633 0.76849 0.75611 0.0
C2534 C 0.91426 0.76066 0.73199 0.0
C2535 C 0.88941 0.75796 0.72072 0.0
C2536 C 0.88786 0.77287 0.70111 0.0
C2537 C 0.87892 0.73329 0.71083 0.0
C2538 C 0.87807 0.76594 0.74213 0.0
C2539 C 0.89414 0.77201 0.76226 0.0
C2540 C 0.88832 0.78024 0.78417 0.0
C2541 C 0.8657 0.78223 0.78578 0.0
C2542 C 0.84843 0.77595 0.76572 0.0
C2543 C 0.85495 0.7676 0.74346 0.0
H2544 H 0.10098 0.07778 0.87722 0.0
H2545 H 0.09534 0.00885 0.84596 0.0
H2546 H 0.08251 0.99613 0.88291 0.0
H2547 H 0.12264 0.06836 0.93859 0.0
H2548 H 0.10898 0.08934 0.95198 0.0
H2549 H 0.11874 0.09165 0.92345 0.0
H2550 H 0.07767 0.09426 0.90671 0.0
H2551 H 0.06813 0.09068 0.93512 0.0
H2552 H 0.05412 0.07177 0.90865 0.0
H2553 H 0.06968 0.99107 0.92367 0.0
H2554 H 0.05757 0.99421 0.96406 0.0
H2555 H 0.07027 0.06631 0.96788 0.0
C2556 C 0.09708 0.06002 0.87823 0.0
C2557 C 0.09904 0.04425 0.85873 0.0
C2558 C 0.09409 0.02118 0.86078 0.0
C2559 C 0.08677 0.01383 0.88169 0.0
C2560 C 0.08501 0.02979 0.90066 0.0
C2561 C 0.09028 0.05244 0.8992 0.0
C2562 C 0.08753 0.0662 0.92229 0.0
C2563 C 0.11086 0.07967 0.93481 0.0
C2564 C 0.07085 0.08162 0.91791 0.0
C2565 C 0.07815 0.04779 0.93627 0.0
C2566 C 0.07756 0.0269 0.92385 0.0
C2567 C 0.07029 0.00738 0.93359 0.0
C2568 C 0.06356 0.00928 0.95656 0.0
C2569 C 0.06351 0.03048 0.96929 0.0
C2570 C 0.07064 0.04991 0.95879 0.0
H2571 H 0.81219 0.42166 0.58768 0.0
H2572 H 0.77696 0.36499 0.53514 0.0
H2573 H 0.77226 0.34145 0.567 0.0
H2574 H 0.845 0.39402 0.61883 0.0
H2575 H 0.84417 0.40877 0.648 0.0
H2576 H 0.83985 0.42204 0.62207 0.0
H2577 H 0.80136 0.42857 0.63454 0.0
H2578 H 0.80537 0.41455 0.6602 0.0
H2579 H 0.77997 0.40508 0.63887 0.0
H2580 H 0.77674 0.32276 0.60239 0.0
H2581 H 0.79491 0.30942 0.63736 0.0
H2582 H 0.8279 0.37762 0.66689 0.0
C2583 C 0.80294 0.40446 0.58303 0.0
C2584 C 0.79475 0.39515 0.55909 0.0
C2585 C 0.78327 0.37244 0.55346 0.0
C2586 C 0.78024 0.35903 0.57146 0.0
C2587 C 0.78871 0.36861 0.59495 0.0
C2588 C 0.79996 0.3908 0.60076 0.0
C2589 C 0.81063 0.39611 0.62661 0.0
C2590 C 0.83643 0.40577 0.62898 0.0
C2591 C 0.79861 0.41202 0.6409 0.0
C2592 C 0.80555 0.37297 0.63371 0.0
C2593 C 0.79189 0.35755 0.61559 0.0
C2594 C 0.78707 0.33467 0.61689 0.0
C2595 C 0.79749 0.32723 0.63664 0.0
C2596 C 0.81275 0.34266 0.65431 0.0
C2597 C 0.81606 0.36575 0.65344 0.0
H2598 H 0.41744 0.03994 0.40504 0.0
H2599 H 0.4266 0.98073 0.36094 0.0
H2600 H 0.45503 0.97492 0.39255 0.0
H2601 H 0.46973 0.06242 0.42581 0.0
H2602 H 0.46729 0.07148 0.45659 0.0
H2603 H 0.4432 0.06803 0.43409 0.0
H2604 H 0.41859 0.04013 0.45652 0.0
H2605 H 0.44242 0.04424 0.47976 0.0
H2606 H 0.42908 0.01641 0.46513 0.0
H2607 H 0.48673 0.97975 0.42426 0.0
H2608 H 0.51723 0.99188 0.45848 0.0
H2609 H 0.48825 0.04899 0.48075 0.0
C2610 C 0.42458 0.02512 0.40284 0.0
C2611 C 0.41994 0.01053 0.38122 0.0
C2612 C 0.42977 0.99159 0.37798 0.0
C2613 C 0.44592 0.98824 0.39569 0.0
C2614 C 0.45118 1.00362 0.4165 0.0
C2615 C 0.44028 0.02125 0.42059 0.0
C2616 C 0.45065 0.03648 0.44352 0.0
C2617 C 0.45817 0.06103 0.43973 0.0
C2618 C 0.43421 0.03418 0.46235 0.0
C2619 C 0.47061 0.02617 0.44997 0.0
C2620 C 0.47011 0.00678 0.4347 0.0
C2621 C 0.48698 0.99448 0.43685 0.0
C2622 C 0.50427 1.00161 0.45604 0.0
C2623 C 0.50445 0.02095 0.47225 0.0
C2624 C 0.48805 0.03389 0.4687 0.0
H2625 H 0.78963 0.73536 0.09585 0.0
H2626 H 0.73678 0.67728 0.0999 0.0
H2627 H 0.73541 0.69112 0.14149 0.0
H2628 H 0.81845 0.73894 0.15622 0.0
H2629 H 0.82479 0.76906 0.16274 0.0
H2630 H 0.82216 0.7555 0.13236 0.0
H2631 H 0.79141 0.77714 0.11972 0.0
H2632 H 0.794 0.7908 0.15006 0.0
H2633 H 0.76662 0.77552 0.13497 0.0
H2634 H 0.74089 0.70781 0.18272 0.0
H2635 H 0.75092 0.72994 0.22271 0.0
H2636 H 0.79763 0.78035 0.19509 0.0
C2637 C 0.77762 0.72579 0.10548 0.0
C2638 C 0.76342 0.70498 0.09432 0.0
C2639 C 0.74809 0.693 0.10778 0.0
C2640 C 0.74708 0.70074 0.13158 0.0
C2641 C 0.76139 0.72076 0.14218 0.0
C2642 C 0.77628 0.73342 0.1298 0.0
C2643 C 0.7897 0.75438 0.14647 0.0
C2644 C 0.81529 0.75447 0.14963 0.0
C2645 C 0.78515 0.77573 0.13725 0.0
C2646 C 0.77969 0.75128 0.16975 0.0
C2647 C 0.76365 0.73149 0.16661 0.0
C2648 C 0.75297 0.72367 0.18535 0.0
C2649 C 0.7586 0.73645 0.208 0.0
C2650 C 0.77417 0.75725 0.2118 0.0
C2651 C 0.78505 0.7648 0.19243 0.0
H2652 H 0.09733 0.07454 0.71355 0.0
H2653 H 0.11594 0.00997 0.71195 0.0
H2654 H 0.10098 1.00061 0.66898 0.0
H2655 H 0.04486 0.05588 0.67141 0.0
H2656 H 0.04894 0.08063 0.65707 0.0
H2657 H 0.06045 0.08226 0.68795 0.0
H2658 H 0.10055 0.09915 0.67828 0.0
H2659 H 0.08912 0.0975 0.64737 0.0
H2660 H 0.11241 0.08427 0.65517 0.0
H2661 H 0.08443 0.99785 0.62747 0.0
H2662 H 0.06763 1.00121 0.5879 0.0
H2663 H 0.05989 0.06855 0.61312 0.0
C2664 C 0.09796 0.05837 0.70406 0.0
C2665 C 0.10745 0.04273 0.71599 0.0
C2666 C 0.10847 0.02194 0.70312 0.0
C2667 C 0.10007 0.01655 0.67874 0.0
C2668 C 0.09084 0.03223 0.66742 0.0
C2669 C 0.08972 0.05275 0.67947 0.0
C2670 C 0.07929 0.06652 0.66243 0.0
C2671 C 0.05706 0.07162 0.67018 0.0
C2672 C 0.09636 0.08815 0.66071 0.0
C2673 C 0.07472 0.05044 0.63898 0.0
C2674 C 0.08154 0.03082 0.64264 0.0
C2675 C 0.07909 0.01315 0.62436 0.0
C2676 C 0.06943 0.01537 0.60168 0.0
C2677 C 0.06234 0.03526 0.59677 0.0
C2678 C 0.06508 0.05314 0.61594 0.0
H2679 H 0.82738 0.40027 0.42205 0.0
H2680 H 0.75569 0.39493 0.42764 0.0
H2681 H 0.74634 0.35976 0.39904 0.0
H2682 H 0.82022 0.38184 0.3589 0.0
H2683 H 0.84398 0.36814 0.36216 0.0
H2684 H 0.84295 0.39187 0.38336 0.0
H2685 H 0.84836 0.36606 0.41596 0.0
H2686 H 0.84698 0.34241 0.39341 0.0
H2687 H 0.82743 0.34061 0.41523 0.0
H2688 H 0.74451 0.32857 0.36798 0.0
H2689 H 0.74979 0.30341 0.33286 0.0
H2690 H 0.82287 0.32778 0.34802 0.0
C2691 C 0.80978 0.39157 0.41704 0.0
C2692 C 0.79209 0.39991 0.42634 0.0
C2693 C 0.76921 0.38857 0.41996 0.0
C2694 C 0.76385 0.36858 0.40416 0.0
C2695 C 0.7817 0.36058 0.39521 0.0
C2696 C 0.80415 0.37178 0.40113 0.0
C2697 C 0.81981 0.36066 0.38731 0.0
C2698 C 0.83243 0.37661 0.37199 0.0
C2699 C 0.83662 0.3519 0.40399 0.0
C2700 C 0.8025 0.34178 0.37214 0.0
C2701 C 0.78067 0.34193 0.37731 0.0
C2702 C 0.76146 0.32793 0.36394 0.0
C2703 C 0.76458 0.31391 0.34408 0.0
C2704 C 0.78668 0.31405 0.33826 0.0
C2705 C 0.80593 0.32739 0.35275 0.0
H2706 H 0.41222 0.99394 0.24672 0.0
H2707 H 0.40679 0.06174 0.23852 0.0
H2708 H 0.42911 0.06035 0.20426 0.0
H2709 H 0.46975 1.0012 0.2375 0.0
H2710 H 0.46713 0.97328 0.22203 0.0
H2711 H 0.44868 0.97842 0.24394 0.0
H2712 H 0.41264 0.96169 0.21308 0.0
H2713 H 0.43093 0.95528 0.19149 0.0
H2714 H 0.4102 0.97175 0.18467 0.0
H2715 H 0.44973 0.04954 0.16927 0.0
H2716 H 0.46717 0.03098 0.13745 0.0
H2717 H 0.46563 0.97384 0.17554 0.0
C2718 C 0.41531 0.00827 0.23728 0.0
C2719 C 0.40748 0.02771 0.2444 0.0
C2720 C 0.41242 0.04658 0.23261 0.0
C2721 C 0.42516 0.04596 0.21343 0.0
C2722 C 0.43326 0.02663 0.20719 0.0
C2723 C 0.4286 0.00822 0.21892 0.0
C2724 C 0.44007 0.9899 0.20985 0.0
C2725 C 0.45744 0.98546 0.2295 0.0
C2726 C 0.4224 0.9684 0.19915 0.0
C2727 C 0.45157 1.0006 0.19074 0.0
C2728 C 0.44728 0.02164 0.18915 0.0
C2729 C 0.45364 0.03329 0.17064 0.0
C2730 C 0.46367 0.02263 0.15272 0.0
C2731 C 0.4675 1.00073 0.15382 0.0
C2732 C 0.4625 0.99032 0.17382 0.0
H2733 H 0.75561 0.73755 0.94428 0.0
H2734 H 0.80035 0.69057 0.93792 0.0
H2735 H 0.80965 0.70245 0.89987 0.0
H2736 H 0.73387 0.72866 0.88103 0.0
H2737 H 0.73226 0.75743 0.88004 0.0
H2738 H 0.72932 0.74579 0.90736 0.0
H2739 H 0.76241 0.77749 0.92957 0.0
H2740 H 0.76547 0.78907 0.90222 0.0
H2741 H 0.78955 0.78181 0.91852 0.0
H2742 H 0.81353 0.71803 0.86199 0.0
H2743 H 0.81158 0.73685 0.82617 0.0
H2744 H 0.76483 0.7743 0.85594 0.0
C2745 C 0.76754 0.72998 0.93498 0.0
C2746 C 0.77734 0.71318 0.94429 0.0
C2747 C 0.79259 0.70345 0.93129 0.0
C2748 C 0.79805 0.7101 0.9096 0.0
C2749 C 0.78807 0.72649 0.90083 0.0
C2750 C 0.77307 0.73632 0.91297 0.0
C2751 C 0.76429 0.75306 0.89887 0.0
C2752 C 0.7384 0.7458 0.89139 0.0
C2753 C 0.77083 0.77677 0.91315 0.0
C2754 C 0.77697 0.75127 0.87728 0.0
C2755 C 0.79046 0.7357 0.87877 0.0
C2756 C 0.80314 0.73037 0.86066 0.0
C2757 C 0.80192 0.74112 0.84037 0.0
C2758 C 0.78827 0.75717 0.83837 0.0
C2759 C 0.77574 0.76238 0.85718 0.0
H2760 H 0.83063 0.11668 0.04511 0.0
H2761 H 0.83121 0.08016 0.10566 0.0
H2762 H 0.86852 0.07228 0.09782 0.0
H2763 H 0.84121 0.07641 0.00982 0.0
H2764 H 0.85742 0.09274 0.99085 0.0
H2765 H 0.83709 0.10411 0.00633 0.0
H2766 H 0.8681 0.13851 0.02638 0.0
H2767 H 0.88871 0.12762 0.01045 0.0
H2768 H 0.894 0.1346 0.04255 0.0
H2769 H 0.89698 0.05866 0.07691 0.0
H2770 H 0.9149 0.04055 0.04551 0.0
H2771 H 0.89454 0.08427 0.99692 0.0
C2772 C 0.83896 0.10779 0.05745 0.0
C2773 C 0.82813 0.09878 0.07588 0.0
C2774 C 0.83933 0.08698 0.09132 0.0
C2775 C 0.86056 0.08272 0.08712 0.0
C2776 C 0.86986 0.09025 0.06738 0.0
C2777 C 0.85936 0.10267 0.05282 0.0
C2778 C 0.8687 0.10357 0.02934 0.0
C2779 C 0.85 0.09361 0.00788 0.0
C2780 C 0.88061 0.12751 0.02708 0.0
C2781 C 0.88539 0.08871 0.03236 0.0
C2782 C 0.88627 0.08167 0.05461 0.0
C2783 C 0.89719 0.06468 0.05984 0.0
C2784 C 0.90712 0.05439 0.04182 0.0
C2785 C 0.90606 0.06122 0.0189 0.0
C2786 C 0.89559 0.07891 0.01436 0.0
H2787 H 0.3727 0.46849 0.05736 0.0
H2788 H 0.38317 0.40074 0.04266 0.0
H2789 H 0.42429 0.41577 0.04284 0.0
H2790 H 0.40766 0.49324 0.02091 0.0
H2791 H 0.41936 0.51915 0.04063 0.0
H2792 H 0.39164 0.50332 0.04328 0.0
H2793 H 0.40444 0.50191 0.08786 0.0
H2794 H 0.4322 0.51804 0.08542 0.0
H2795 H 0.42952 0.49142 0.0961 0.0
H2796 H 0.46292 0.43793 0.04104 0.0
H2797 H 0.49687 0.46517 0.0369 0.0
H2798 H 0.46114 0.519 0.05097 0.0
C2799 C 0.3838 0.45682 0.05484 0.0
C2800 C 0.37492 0.43343 0.05021 0.0
C2801 C 0.38978 0.41864 0.04673 0.0
C2802 C 0.41309 0.42705 0.0467 0.0
C2803 C 0.42118 0.45022 0.05065 0.0
C2804 C 0.40708 0.46492 0.05501 0.0
C2805 C 0.4199 0.48908 0.05744 0.0
C2806 C 0.40899 0.50193 0.03947 0.0
C2807 C 0.42162 0.50081 0.08323 0.0
C2808 C 0.44298 0.48561 0.05173 0.0
C2809 C 0.44346 0.46311 0.04874 0.0
C2810 C 0.46276 0.4556 0.04347 0.0
C2811 C 0.48206 0.47143 0.04107 0.0
C2812 C 0.48198 0.49468 0.04308 0.0
C2813 C 0.46205 0.5017 0.04879 0.0
H2814 H 0.39616 0.58731 0.74035 0.0
H2815 H 0.3866 0.55587 0.8037 0.0
H2816 H 0.36377 0.5828 0.81718 0.0
H2817 H 0.40242 0.64322 0.76627 0.0
H2818 H 0.38588 0.65182 0.74219 0.0
H2819 H 0.39985 0.62892 0.73617 0.0
H2820 H 0.36125 0.60369 0.71664 0.0
H2821 H 0.34709 0.62648 0.72308 0.0
H2822 H 0.33754 0.6002 0.73349 0.0
H2823 H 0.34458 0.61328 0.82545 0.0
H2824 H 0.33261 0.64933 0.83039 0.0
H2825 H 0.3533 0.66242 0.762 0.0
C2826 C 0.38901 0.58613 0.75691 0.0
C2827 C 0.39287 0.56955 0.77108 0.0
C2828 C 0.3835 0.56837 0.79264 0.0
C2829 C 0.37045 0.58348 0.80033 0.0
C2830 C 0.36657 0.59945 0.78601 0.0
C2831 C 0.3755 0.60103 0.76476 0.0
C2832 C 0.36932 0.62066 0.75361 0.0
C2833 C 0.39065 0.63713 0.74934 0.0
C2834 C 0.35283 0.61226 0.73032 0.0
C2835 C 0.35734 0.63081 0.77301 0.0
C2836 C 0.35527 0.61766 0.791 0.0
C2837 C 0.34584 0.62365 0.81142 0.0
C2838 C 0.33911 0.64411 0.81409 0.0
C2839 C 0.34206 0.65842 0.79658 0.0
C2840 C 0.35064 0.65149 0.77541 0.0
H2841 H 0.18942 0.61219 0.51631 0.0
H2842 H 0.21507 0.59025 0.58153 0.0
H2843 H 0.17698 0.56846 0.58392 0.0
H2844 H 0.13332 0.61696 0.53256 0.0
H2845 H 0.1189 0.60603 0.50281 0.0
H2846 H 0.14804 0.62119 0.50702 0.0
H2847 H 0.15897 0.58735 0.48268 0.0
H2848 H 0.12993 0.57193 0.47899 0.0
H2849 H 0.1525 0.56021 0.49216 0.0
H2850 H 0.14064 0.54374 0.57468 0.0
H2851 H 0.10154 0.52459 0.56196 0.0
H2852 H 0.0955 0.5669 0.50698 0.0
C2853 C 0.18672 0.60286 0.53108 0.0
C2854 C 0.20479 0.60193 0.54832 0.0
C2855 C 0.20129 0.59012 0.56773 0.0
C2856 C 0.17982 0.57795 0.56933 0.0
C2857 C 0.16247 0.57814 0.55138 0.0
C2858 C 0.16531 0.59061 0.53295 0.0
C2859 C 0.14358 0.58715 0.51585 0.0
C2860 C 0.13548 0.60915 0.51452 0.0
C2861 C 0.14642 0.576 0.49095 0.0
C2862 C 0.12812 0.57114 0.52808 0.0
C2863 C 0.13986 0.56562 0.54788 0.0
C2864 C 0.13075 0.54875 0.56009 0.0
C2865 C 0.10838 0.53804 0.55275 0.0
C2866 C 0.09496 0.54541 0.53465 0.0
C2867 C 0.10512 0.56164 0.52152 0.0
H2868 H 0.70219 0.96871 0.73197 0.0
H2869 H 0.75862 0.02244 0.76492 0.0
H2870 H 0.7808 0.99485 0.77565 0.0
H2871 H 0.70112 0.93795 0.77288 0.0
H2872 H 0.69537 0.91057 0.75523 0.0
H2873 H 0.68723 0.93343 0.74247 0.0
H2874 H 0.71055 0.9267 0.7078 0.0
H2875 H 0.71883 0.90353 0.72039 0.0
H2876 H 0.74024 0.92611 0.71414 0.0
H2877 H 0.79126 0.96447 0.7931 0.0
H2878 H 0.79055 0.93213 0.8148 0.0
H2879 H 0.72788 0.89708 0.77077 0.0
C2880 C 0.71963 0.97448 0.74048 0.0
C2881 C 0.72896 0.99737 0.74762 0.0
C2882 C 0.75152 0.0048 0.75904 0.0
C2883 C 0.76423 0.98927 0.76504 0.0
C2884 C 0.75416 0.96662 0.75893 0.0
C2885 C 0.73249 0.95917 0.74644 0.0
C2886 C 0.72401 0.93434 0.74581 0.0
C2887 C 0.70058 0.92881 0.75466 0.0
C2888 C 0.72339 0.92192 0.72054 0.0
C2889 C 0.74277 0.92977 0.76295 0.0
C2890 C 0.7605 0.94835 0.76931 0.0
C2891 C 0.778 0.94955 0.7877 0.0
C2892 C 0.77725 0.93143 0.80019 0.0
C2893 C 0.75895 0.91279 0.79437 0.0
C2894 C 0.74189 0.91148 0.77522 0.0
H2895 H 0.74404 0.9342 0.56888 0.0
H2896 H 0.73224 0.88688 0.50342 0.0
H2897 H 0.70062 0.90318 0.48816 0.0
H2898 H 0.68168 0.93332 0.57044 0.0
H2899 H 0.68666 0.96256 0.58253 0.0
H2900 H 0.70761 0.94641 0.58989 0.0
H2901 H 0.73846 0.97451 0.57457 0.0
H2902 H 0.71779 0.99094 0.56768 0.0
H2903 H 0.7334 0.9812 0.54475 0.0
H2904 H 0.67303 0.92555 0.47818 0.0
H2905 H 0.65142 0.95505 0.47304 0.0
H2906 H 0.67871 0.98788 0.54497 0.0
C2907 C 0.73446 0.92713 0.55153 0.0
C2908 C 0.74025 0.90903 0.53742 0.0
C2909 C 0.72767 0.90034 0.5147 0.0
C2910 C 0.7097 0.90949 0.50587 0.0
C2911 C 0.70414 0.92705 0.52018 0.0
C2912 C 0.71595 0.9358 0.54258 0.0
C2913 C 0.70656 0.95524 0.55371 0.0
C2914 C 0.69494 0.94901 0.57543 0.0
C2915 C 0.72517 0.97674 0.56055 0.0
C2916 C 0.68909 0.95711 0.53316 0.0
C2917 C 0.6876 0.94016 0.51436 0.0
C2918 C 0.67375 0.93875 0.49283 0.0
C2919 C 0.66159 0.95553 0.49004 0.0
C2920 C 0.66348 0.97351 0.5086 0.0
C2921 C 0.67686 0.97404 0.53069 0.0
H2922 H 0.37782 0.43074 0.72974 0.0
H2923 H 0.40479 0.45148 0.80455 0.0
H2924 H 0.37983 0.41815 0.8149 0.0
H2925 H 0.31826 0.4073 0.74273 0.0
H2926 H 0.31305 0.38507 0.71784 0.0
H2927 H 0.33135 0.41162 0.71623 0.0
H2928 H 0.36369 0.39139 0.70653 0.0
H2929 H 0.34556 0.36486 0.70818 0.0
H2930 H 0.37288 0.37337 0.72655 0.0
H2931 H 0.35213 0.38331 0.81741 0.0
H2932 H 0.32564 0.34656 0.81163 0.0
H2933 H 0.31846 0.34567 0.73495 0.0
C2934 C 0.37811 0.4283 0.74828 0.0
C2935 C 0.393 0.44363 0.76648 0.0
C2936 C 0.39319 0.44002 0.79052 0.0
C2937 C 0.3791 0.42118 0.79654 0.0
C2938 C 0.36463 0.4063 0.7783 0.0
C2939 C 0.36381 0.40963 0.75466 0.0
C2940 C 0.34684 0.39063 0.73868 0.0
C2941 C 0.32616 0.39916 0.72824 0.0
C2942 C 0.35793 0.3794 0.71882 0.0
C2943 C 0.34007 0.37514 0.75672 0.0
C2944 C 0.34972 0.38514 0.77958 0.0
C2945 C 0.34481 0.37514 0.79957 0.0
C2946 C 0.3299 0.35422 0.79611 0.0
C2947 C 0.3212 0.34283 0.77282 0.0
C2948 C 0.32589 0.35362 0.75285 0.0
H2949 H 0.21462 0.62748 0.2282 0.0
H2950 H 0.21691 0.61492 0.30151 0.0
H2951 H 0.23315 0.65533 0.31574 0.0
H2952 H 0.26754 0.67239 0.23892 0.0
H2953 H 0.25571 0.68675 0.21659 0.0
H2954 H 0.24804 0.65671 0.2136 0.0
H2955 H 0.20548 0.65951 0.2101 0.0
H2956 H 0.21318 0.68956 0.21446 0.0
H2957 H 0.19564 0.67546 0.23406 0.0
H2958 H 0.24979 0.69731 0.32072 0.0
H2959 H 0.26694 0.73612 0.31553 0.0
H2960 H 0.24493 0.71988 0.23941 0.0
C2961 C 0.21918 0.63325 0.2472 0.0
C2962 C 0.21496 0.61872 0.26392 0.0
C2963 C 0.22067 0.62628 0.28868 0.0
C2964 C 0.22961 0.64903 0.29682 0.0
C2965 C 0.23251 0.66335 0.27974 0.0
C2966 C 0.22785 0.65561 0.25547 0.0
C2967 C 0.23172 0.67408 0.2406 0.0
C2968 C 0.25195 0.67238 0.22662 0.0
C2969 C 0.2102 0.67467 0.22384 0.0
C2970 C 0.23769 0.69362 0.26023 0.0
C2971 C 0.23903 0.6873 0.28275 0.0
C2972 C 0.24813 0.70258 0.30328 0.0
C2973 C 0.25732 0.72464 0.30032 0.0
C2974 C 0.25611 0.73081 0.27723 0.0
C2975 C 0.24506 0.71553 0.25732 0.0
H2976 H 0.51982 0.70384 0.51484 0.0
H2977 H 0.49711 0.68187 0.4391 0.0
H2978 H 0.50213 0.64412 0.44386 0.0
H2979 H 0.56221 0.66966 0.52198 0.0
H2980 H 0.55566 0.66179 0.55033 0.0
H2981 H 0.55039 0.68785 0.54209 0.0
H2982 H 0.50833 0.67632 0.54854 0.0
H2983 H 0.51356 0.65032 0.55701 0.0
H2984 H 0.49134 0.65004 0.53313 0.0
H2985 H 0.51004 0.6086 0.45512 0.0
H2986 H 0.51804 0.57629 0.47287 0.0
H2987 H 0.53553 0.61718 0.54273 0.0
C2988 C 0.51579 0.69106 0.49928 0.0
C2989 C 0.50796 0.69648 0.47637 0.0
C2990 C 0.50297 0.6788 0.4568 0.0
C2991 C 0.50587 0.65703 0.4593 0.0
C2992 C 0.51366 0.65233 0.48168 0.0
C2993 C 0.51833 0.66863 0.50154 0.0
C2994 C 0.52585 0.65812 0.52356 0.0
C2995 C 0.54997 0.67008 0.53518 0.0
C2996 C 0.50876 0.65875 0.54164 0.0
C2997 C 0.52527 0.63375 0.5127 0.0
C2998 C 0.51801 0.6311 0.48846 0.0
C2999 C 0.5156 0.61052 0.47412 0.0
C3000 C 0.52022 0.59205 0.48454 0.0
C3001 C 0.52739 0.59355 0.50941 0.0
C3002 C 0.53025 0.6151 0.52367 0.0
H3003 H 0.63357 0.27168 0.65477 0.0
H3004 H 0.6475 0.34384 0.65854 0.0
H3005 H 0.68146 0.34697 0.68818 0.0
H3006 H 0.65109 0.27067 0.71756 0.0
H3007 H 0.66408 0.24685 0.71272 0.0
H3008 H 0.64091 0.24984 0.69152 0.0
H3009 H 0.66582 0.24716 0.65752 0.0
H3010 H 0.68902 0.24404 0.67861 0.0
H3011 H 0.69316 0.26603 0.66034 0.0
H3012 H 0.7128 0.34285 0.71868 0.0
H3013 H 0.74144 0.33165 0.74612 0.0
H3014 H 0.71 0.26181 0.72236 0.0
C3015 C 0.644 0.28809 0.66167 0.0
C3016 C 0.63802 0.30762 0.65408 0.0
C3017 C 0.65185 0.32874 0.66384 0.0
C3018 C 0.67114 0.33065 0.68079 0.0
C3019 C 0.67656 0.31125 0.68801 0.0
C3020 C 0.66356 0.29029 0.67868 0.0
C3021 C 0.67348 0.27222 0.68969 0.0
C3022 C 0.65637 0.25912 0.7037 0.0
C3023 C 0.6808 0.25643 0.67039 0.0
C3024 C 0.69407 0.28632 0.70652 0.0
C3025 C 0.69525 0.3088 0.70531 0.0
C3026 C 0.71221 0.32528 0.71946 0.0
C3027 C 0.7286 0.31876 0.73492 0.0
C3028 C 0.7284 0.29594 0.73609 0.0
C3029 C 0.71068 0.27943 0.72181 0.0
H3030 H 0.02349 0.36761 0.94801 0.0
H3031 H 0.00775 0.33893 0.01164 0.0
H3032 H 0.00884 0.37718 0.0326 0.0
H3033 H 0.06258 0.41754 0.97581 0.0
H3034 H 0.05267 0.43469 0.95522 0.0
H3035 H 0.05005 0.40521 0.94576 0.0
H3036 H 0.00674 0.40095 0.93347 0.0
H3037 H 0.00928 0.43043 0.94308 0.0
H3038 H 0.98965 0.41015 0.95516 0.0
H3039 H 0.01046 0.42085 0.04613 0.0
H3040 H 0.01584 0.4623 0.05116 0.0
H3041 H 0.03322 0.46192 0.97935 0.0
C3042 C 0.02032 0.36911 0.96643 0.0
C3043 C 0.01555 0.34963 0.97795 0.0
C3044 C 0.01143 0.3531 0.00211 0.0
C3045 C 0.01199 0.37497 0.01419 0.0
C3046 C 0.01664 0.39364 0.00211 0.0
C3047 C 0.02085 0.39073 0.97868 0.0
C3048 C 0.02549 0.41318 0.96932 0.0
C3049 C 0.04911 0.41792 0.96105 0.0
C3050 C 0.00668 0.41371 0.94905 0.0
C3051 C 0.02434 0.42955 0.99131 0.0
C3052 C 0.01851 0.418 0.00993 0.0
C3053 C 0.01524 0.42975 0.03157 0.0
C3054 C 0.01824 0.45346 0.03429 0.0
C3055 C 0.02513 0.46577 0.0158 0.0
C3056 C 0.02817 0.45332 0.99402 0.0
H3057 H 0.00562 0.81505 0.17053 0.0
H3058 H 0.99078 0.75179 0.1235 0.0
H3059 H 0.95221 0.7432 0.13522 0.0
H3060 H 0.98296 0.79946 0.21721 0.0
H3061 H 0.96949 0.8225 0.22504 0.0
H3062 H 0.99321 0.82645 0.20848 0.0
H3063 H 0.96909 0.8401 0.17528 0.0
H3064 H 0.94514 0.83621 0.19185 0.0
H3065 H 0.94221 0.82273 0.16142 0.0
H3066 H 0.91911 0.73794 0.15768 0.0
H3067 H 0.89466 0.73601 0.18979 0.0
H3068 H 0.93009 0.8025 0.22293 0.0
C3069 C 0.99374 0.79995 0.16189 0.0
C3070 C 1.00082 0.7843 0.14562 0.0
C3071 C 0.98534 0.76424 0.1354 0.0
C3072 C 0.96341 0.75924 0.14199 0.0
C3073 C 0.95702 0.77466 0.15859 0.0
C3074 C 0.97156 0.79486 0.1681 0.0
C3075 C 0.96129 0.80737 0.18741 0.0
C3076 C 0.97772 0.81431 0.21092 0.0
C3077 C 0.95401 0.82782 0.17847 0.0
C3078 C 0.94051 0.78969 0.18966 0.0
C3079 C 0.93769 0.77149 0.17193 0.0
C3080 C 0.92078 0.75232 0.17124 0.0
C3081 C 0.90692 0.75135 0.18951 0.0
C3082 C 0.91023 0.76926 0.20848 0.0
C3083 C 0.92684 0.78889 0.20821 0.0
H3084 H 0.52774 0.3397 0.17185 0.0
H3085 H 0.53365 0.28872 0.11442 0.0
H3086 H 0.5366 0.31651 0.0868 0.0
H3087 H 0.49451 0.3699 0.13264 0.0
H3088 H 0.5081 0.39716 0.14862 0.0
H3089 H 0.50441 0.37312 0.16412 0.0
H3090 H 0.54762 0.38127 0.17868 0.0
H3091 H 0.55134 0.40557 0.16376 0.0
H3092 H 0.56743 0.38437 0.15717 0.0
H3093 H 0.54004 0.34943 0.06517 0.0
H3094 H 0.55 0.38681 0.05275 0.0
H3095 H 0.54383 0.41773 0.12362 0.0
C3096 C 0.52947 0.33439 0.15342 0.0
C3097 C 0.53022 0.31181 0.14534 0.0
C3098 C 0.53272 0.3057 0.12109 0.0
C3099 C 0.53431 0.3214 0.10515 0.0
C3100 C 0.53323 0.34332 0.11347 0.0
C3101 C 0.53107 0.34997 0.13707 0.0
C3102 C 0.53157 0.37499 0.1414 0.0
C3103 C 0.50827 0.37903 0.14704 0.0
C3104 C 0.55064 0.38726 0.16143 0.0
C3105 C 0.53615 0.38149 0.11709 0.0
C3106 C 0.53599 0.36273 0.10101 0.0
C3107 C 0.54006 0.36425 0.07753 0.0
C3108 C 0.54548 0.38555 0.07052 0.0
C3109 C 0.54733 0.40513 0.08704 0.0
C3110 C 0.54205 0.40299 0.11048 0.0
H3111 H 0.96482 0.33927 0.32663 0.0
H3112 H 0.9728 0.27049 0.32028 0.0
H3113 H 0.9313 0.25745 0.30784 0.0
H3114 H 0.91063 0.32731 0.35185 0.0
H3115 H 0.89879 0.34783 0.33763 0.0
H3116 H 0.92917 0.3519 0.34536 0.0
H3117 H 0.93451 0.35582 0.30148 0.0
H3118 H 0.90415 0.35161 0.29364 0.0
H3119 H 0.9198 0.33379 0.27794 0.0
H3120 H 0.88866 0.25157 0.29561 0.0
H3121 H 0.84835 0.25287 0.28667 0.0
H3122 H 0.8658 0.32542 0.30219 0.0
C3123 C 0.95783 0.32145 0.32252 0.0
C3124 C 0.97243 0.3059 0.32429 0.0
C3125 C 0.96229 0.28277 0.31916 0.0
C3126 C 0.93861 0.2752 0.31198 0.0
C3127 C 0.92478 0.29086 0.31042 0.0
C3128 C 0.93394 0.31354 0.31589 0.0
C3129 C 0.91489 0.32669 0.31402 0.0
C3130 C 0.91328 0.33918 0.33867 0.0
C3131 C 0.91856 0.34294 0.29567 0.0
C3132 C 0.89375 0.30797 0.30561 0.0
C3133 C 0.89999 0.28745 0.30391 0.0
C3134 C 0.88371 0.26758 0.29702 0.0
C3135 C 0.86062 0.26854 0.292 0.0
C3136 C 0.85335 0.2892 0.29368 0.0
C3137 C 0.87046 0.30928 0.30047 0.0
H3138 H 0.00895 0.65714 0.66621 0.0
H3139 H 0.02759 0.71013 0.62366 0.0
H3140 H 0.0334 0.68245 0.59122 0.0
H3141 H 0.04856 0.62401 0.64663 0.0
H3142 H 0.02955 0.59732 0.64552 0.0
H3143 H 0.0269 0.62105 0.66613 0.0
H3144 H 0.98468 0.61618 0.64839 0.0
H3145 H 0.98711 0.59224 0.628 0.0
H3146 H 0.9774 0.61532 0.61667 0.0
H3147 H 0.04331 0.65025 0.56624 0.0
H3148 H 0.0478 0.61431 0.54575 0.0
H3149 H 0.01372 0.58001 0.59838 0.0
C3150 C 0.01402 0.66287 0.64997 0.0
C3151 C 0.01794 0.68602 0.64771 0.0
C3152 C 0.02451 0.69267 0.62605 0.0
C3153 C 0.028 0.67704 0.60747 0.0
C3154 C 0.0245 0.65456 0.61044 0.0
C3155 C 0.01707 0.6473 0.63082 0.0
C3156 C 0.01403 0.62192 0.62883 0.0
C3157 C 0.03074 0.61571 0.64792 0.0
C3158 C 0.98932 0.61076 0.63056 0.0
C3159 C 0.02033 0.61615 0.60393 0.0
C3160 C 0.02725 0.63542 0.59423 0.0
C3161 C 0.03683 0.63494 0.57307 0.0
C3162 C 0.03885 0.61423 0.56118 0.0
C3163 C 0.02994 0.59383 0.56933 0.0
C3164 C 0.02062 0.59502 0.59127 0.0
H3165 H 0.62414 0.78097 0.84458 0.0
H3166 H 0.61417 0.83714 0.80873 0.0
H3167 H 0.64988 0.83663 0.7913 0.0
H3168 H 0.68492 0.79546 0.85835 0.0
H3169 H 0.68925 0.76736 0.85159 0.0
H3170 H 0.66288 0.7719 0.8612 0.0
H3171 H 0.6405 0.74645 0.82314 0.0
H3172 H 0.66683 0.74187 0.81339 0.0
H3173 H 0.64716 0.75257 0.79423 0.0
H3174 H 0.68857 0.8315 0.77931 0.0
H3175 H 0.72481 0.82069 0.77185 0.0
H3176 H 0.70976 0.76612 0.81285 0.0
C3177 C 0.62941 0.79315 0.833 0.0
C3178 C 0.61601 0.80927 0.82828 0.0
C3179 C 0.62374 0.82462 0.81275 0.0
C3180 C 0.64419 0.82447 0.80275 0.0
C3181 C 0.65696 0.80854 0.80784 0.0
C3182 C 0.64967 0.79288 0.82232 0.0
C3183 C 0.66633 0.77712 0.82428 0.0
C3184 C 0.67644 0.77802 0.85041 0.0
C3185 C 0.6545 0.75307 0.81311 0.0
C3186 C 0.68456 0.78687 0.80948 0.0
C3187 C 0.67869 0.80497 0.80009 0.0
C3188 C 0.69302 0.81716 0.78636 0.0
C3189 C 0.71367 0.81086 0.78212 0.0
C3190 C 0.72019 0.79233 0.79128 0.0
C3191 C 0.70524 0.78016 0.80518 0.0
H3192 H 0.4928 0.52374 0.70292 0.0
H3193 H 0.42135 0.51575 0.67561 0.0
H3194 H 0.43163 0.52268 0.63619 0.0
H3195 H 0.51413 0.56747 0.66732 0.0
H3196 H 0.53914 0.55695 0.66181 0.0
H3197 H 0.52686 0.55285 0.68886 0.0
H3198 H 0.52329 0.51003 0.67907 0.0
H3199 H 0.53601 0.51413 0.65235 0.0
H3200 H 0.50869 0.49544 0.6505 0.0
H3201 H 0.44918 0.53255 0.60028 0.0
H3202 H 0.47247 0.53798 0.56782 0.0
H3203 H 0.53177 0.53276 0.61543 0.0
C3204 C 0.47936 0.52353 0.68865 0.0
C3205 C 0.45622 0.51942 0.69257 0.0
C3206 C 0.43917 0.51901 0.67326 0.0
C3207 C 0.44483 0.52305 0.65075 0.0
C3208 C 0.46766 0.52732 0.64752 0.0
C3209 C 0.4847 0.52718 0.66572 0.0
C3210 C 0.50779 0.53107 0.65676 0.0
C3211 C 0.52287 0.5534 0.66945 0.0
C3212 C 0.51962 0.51148 0.65984 0.0
C3213 C 0.50077 0.53237 0.63053 0.0
C3214 C 0.47769 0.53118 0.62597 0.0
C3215 C 0.46729 0.53331 0.60356 0.0
C3216 C 0.48076 0.53643 0.58518 0.0
C3217 C 0.50434 0.53649 0.58884 0.0
C3218 C 0.51427 0.53411 0.61194 0.0
H3219 H 0.77265 0.1907 0.00608 0.0
H3220 H 0.78087 0.12994 0.96374 0.0
H3221 H 0.78075 0.14884 0.92789 0.0
H3222 H 0.73249 0.20221 0.96674 0.0
H3223 H 0.74202 0.23221 0.97283 0.0
H3224 H 0.74803 0.21549 0.99538 0.0
H3225 H 0.79092 0.23351 0.99818 0.0
H3226 H 0.78504 0.24976 0.97488 0.0
H3227 H 0.80499 0.23169 0.97189 0.0
H3228 H 0.77432 0.17177 0.8965 0.0
H3229 H 0.75621 0.19477 0.87088 0.0
H3230 H 0.75042 0.2397 0.93358 0.0
C3231 C 0.77523 0.18158 0.98943 0.0
C3232 C 0.77731 0.15909 0.98763 0.0
C3233 C 0.77973 0.14738 0.96545 0.0
C3234 C 0.77987 0.15802 0.94511 0.0
C3235 C 0.77764 0.18026 0.94747 0.0
C3236 C 0.77512 0.19182 0.96906 0.0
C3237 C 0.76915 0.21411 0.96631 0.0
C3238 C 0.74659 0.21607 0.97586 0.0
C3239 C 0.7887 0.23341 0.97852 0.0
C3240 C 0.7669 0.2125 0.93948 0.0
C3241 C 0.7729 0.19334 0.92904 0.0
C3242 C 0.76993 0.18699 0.90439 0.0
C3243 C 0.75955 0.19997 0.89004 0.0
C3244 C 0.75182 0.21854 0.90063 0.0
C3245 C 0.7563 0.22543 0.92541 0.0
H3246 H 0.15885 0.56285 0.16306 0.0
H3247 H 0.1387 0.49648 0.18215 0.0
H3248 H 0.10402 0.48906 0.15285 0.0
H3249 H 0.10628 0.57611 0.15818 0.0
H3250 H 0.10922 0.59008 0.13229 0.0
H3251 H 0.13409 0.58944 0.15239 0.0
H3252 H 0.15258 0.56999 0.11812 0.0
H3253 H 0.12881 0.57411 0.0989 0.0
H3254 H 0.13499 0.54657 0.09796 0.0
H3255 H 0.07136 0.48971 0.12395 0.0
H3256 H 0.045 0.49599 0.09034 0.0
H3257 H 0.08474 0.56319 0.09343 0.0
C3258 C 0.14766 0.54642 0.16011 0.0
C3259 C 0.15113 0.53005 0.17421 0.0
C3260 C 0.13607 0.50892 0.17082 0.0
C3261 C 0.11628 0.50474 0.15468 0.0
C3262 C 0.11225 0.52194 0.14236 0.0
C3263 C 0.12771 0.54209 0.14436 0.0
C3264 C 0.11926 0.5577 0.12906 0.0
C3265 C 0.11708 0.57961 0.14391 0.0
C3266 C 0.13484 0.56229 0.10983 0.0
C3267 C 0.09633 0.54338 0.11865 0.0
C3268 C 0.09266 0.52279 0.12657 0.0
C3269 C 0.07372 0.50582 0.11774 0.0
C3270 C 0.05881 0.50954 0.09904 0.0
C3271 C 0.06294 0.53019 0.09036 0.0
C3272 C 0.08117 0.54762 0.10075 0.0
H3273 H 0.80716 0.83228 0.46667 0.0
H3274 H 0.77593 0.88771 0.45093 0.0
H3275 H 0.77062 0.87348 0.40857 0.0
H3276 H 0.83747 0.82931 0.4165 0.0
H3277 H 0.83173 0.79924 0.40923 0.0
H3278 H 0.83202 0.81204 0.43951 0.0
H3279 H 0.79128 0.78942 0.43993 0.0
H3280 H 0.79092 0.77637 0.40969 0.0
H3281 H 0.76888 0.7909 0.41698 0.0
H3282 H 0.76975 0.85625 0.36875 0.0
H3283 H 0.77288 0.83564 0.33074 0.0
H3284 H 0.8051 0.78935 0.36717 0.0
C3285 C 0.799 0.8412 0.45425 0.0
C3286 C 0.79228 0.86146 0.46251 0.0
C3287 C 0.78163 0.87248 0.44549 0.0
C3288 C 0.77836 0.86445 0.42116 0.0
C3289 C 0.78557 0.84506 0.41357 0.0
C3290 C 0.79548 0.83327 0.4293 0.0
C3291 C 0.8017 0.81292 0.41522 0.0
C3292 C 0.82726 0.81342 0.42043 0.0
C3293 C 0.78736 0.7911 0.42079 0.0
C3294 C 0.79495 0.81621 0.38935 0.0
C3295 C 0.78521 0.83468 0.38934 0.0
C3296 C 0.77729 0.8417 0.36843 0.0
C3297 C 0.77928 0.82969 0.34671 0.0
C3298 C 0.78945 0.81073 0.34548 0.0
C3299 C 0.79736 0.80378 0.36731 0.0
H3300 H 0.47715 0.48873 0.84716 0.0
H3301 H 0.47405 0.5575 0.84069 0.0
H3302 H 0.48768 0.56851 0.88396 0.0
H3303 H 0.45725 0.49097 0.90664 0.0
H3304 H 0.4745 0.47225 0.91657 0.0
H3305 H 0.4638 0.46979 0.88534 0.0
H3306 H 0.50494 0.47385 0.87486 0.0
H3307 H 0.51568 0.47642 0.90601 0.0
H3308 H 0.52644 0.49794 0.88885 0.0
H3309 H 0.50255 0.57203 0.92833 0.0
H3310 H 0.51685 0.56749 0.96936 0.0
H3311 H 0.51088 0.49683 0.94658 0.0
C3312 C 0.47943 0.50612 0.85484 0.0
C3313 C 0.47484 0.52233 0.84043 0.0
C3314 C 0.47752 0.54482 0.85132 0.0
C3315 C 0.48525 0.55122 0.8759 0.0
C3316 C 0.48978 0.53486 0.88955 0.0
C3317 C 0.48668 0.51271 0.87944 0.0
C3318 C 0.49227 0.49831 0.89815 0.0
C3319 C 0.47068 0.48185 0.90189 0.0
C3320 C 0.51096 0.48591 0.89156 0.0
C3321 C 0.50052 0.516 0.91997 0.0
C3322 C 0.49834 0.53689 0.91484 0.0
C3323 C 0.50418 0.55568 0.93245 0.0
C3324 C 0.51225 0.55296 0.95581 0.0
C3325 C 0.51489 0.53178 0.96141 0.0
C3326 C 0.50912 0.51319 0.94305 0.0
H3327 H 0.76716 0.15429 0.14949 0.0
H3328 H 0.79318 0.1942 0.09652 0.0
H3329 H 0.80447 0.22747 0.12733 0.0
H3330 H 0.74386 0.19644 0.1803 0.0
H3331 H 0.75083 0.18827 0.20905 0.0
H3332 H 0.74533 0.16781 0.18259 0.0
H3333 H 0.78479 0.15816 0.19387 0.0
H3334 H 0.79047 0.17911 0.22 0.0
H3335 H 0.81013 0.18006 0.1983 0.0
H3336 H 0.81211 0.25629 0.16361 0.0
H3337 H 0.81272 0.27901 0.20263 0.0
H3338 H 0.78294 0.21887 0.23031 0.0
C3339 C 0.77531 0.16997 0.14436 0.0
C3340 C 0.77953 0.17175 0.12088 0.0
C3341 C 0.79003 0.19256 0.11466 0.0
C3342 C 0.79656 0.21149 0.13193 0.0
C3343 C 0.79249 0.20906 0.15508 0.0
C3344 C 0.78199 0.18889 0.16126 0.0
C3345 C 0.77866 0.19087 0.18708 0.0
C3346 C 0.75317 0.18555 0.18989 0.0
C3347 C 0.79181 0.17618 0.2006 0.0
C3348 C 0.78902 0.21528 0.19438 0.0
C3349 C 0.79685 0.2256 0.17582 0.0
C3350 C 0.80585 0.24847 0.17832 0.0
C3351 C 0.80582 0.26126 0.20033 0.0
C3352 C 0.7965 0.25097 0.21897 0.0
C3353 C 0.78933 0.22757 0.21624 0.0
H3354 H 0.15823 0.58142 0.31877 0.0
H3355 H 0.13832 0.50946 0.30066 0.0
H3356 H 0.12361 0.50698 0.3394 0.0
H3357 H 0.16955 0.58336 0.38781 0.0
H3358 H 0.15759 0.60793 0.39197 0.0
H3359 H 0.17357 0.6036 0.36746 0.0
H3360 H 0.1395 0.60737 0.33763 0.0
H3361 H 0.12347 0.61171 0.36177 0.0
H3362 H 0.11203 0.58937 0.3374 0.0
H3363 H 0.1012 0.51333 0.37177 0.0
H3364 H 0.07503 0.52789 0.39711 0.0
H3365 H 0.11053 0.59573 0.39505 0.0
C3366 C 0.15174 0.56516 0.32372 0.0
C3367 C 0.14925 0.54561 0.30746 0.0
C3368 C 0.14039 0.52446 0.3135 0.0
C3369 C 0.13223 0.52297 0.33542 0.0
C3370 C 0.13367 0.54278 0.35084 0.0
C3371 C 0.14374 0.56351 0.34547 0.0
C3372 C 0.13932 0.58251 0.36237 0.0
C3373 C 0.16132 0.59508 0.37836 0.0
C3374 C 0.1279 0.59864 0.34897 0.0
C3375 C 0.12324 0.56936 0.37641 0.0
C3376 C 0.12069 0.54646 0.3701 0.0
C3377 C 0.10366 0.53114 0.37759 0.0
C3378 C 0.08872 0.53948 0.39158 0.0
C3379 C 0.09087 0.56283 0.39735 0.0
C3380 C 0.10869 0.57781 0.39047 0.0
H3381 H 0.79772 0.82239 0.60658 0.0
H3382 H 0.79956 0.89216 0.63242 0.0
H3383 H 0.79107 0.88229 0.67144 0.0
H3384 H 0.75285 0.79823 0.63935 0.0
H3385 H 0.76576 0.77549 0.64664 0.0
H3386 H 0.77081 0.78727 0.61973 0.0
H3387 H 0.81437 0.79531 0.63285 0.0
H3388 H 0.80941 0.78307 0.65945 0.0
H3389 H 0.82607 0.81113 0.66181 0.0
H3390 H 0.77965 0.86513 0.70664 0.0
H3391 H 0.77411 0.84278 0.73929 0.0
H3392 H 0.78614 0.78529 0.69396 0.0
C3393 C 0.79638 0.83554 0.6205 0.0
C3394 C 0.79914 0.85805 0.61629 0.0
C3395 C 0.79752 0.87481 0.63509 0.0
C3396 C 0.79249 0.86937 0.65733 0.0
C3397 C 0.78948 0.84711 0.66082 0.0
C3398 C 0.79194 0.83049 0.64325 0.0
C3399 C 0.78935 0.80816 0.65259 0.0
C3400 C 0.76846 0.79129 0.63875 0.0
C3401 C 0.8111 0.79888 0.65163 0.0
C3402 C 0.78554 0.81509 0.67818 0.0
C3403 C 0.78482 0.83746 0.68215 0.0
C3404 C 0.78043 0.84761 0.70389 0.0
C3405 C 0.77723 0.8347 0.72234 0.0
C3406 C 0.77927 0.81202 0.71935 0.0
C3407 C 0.78354 0.80221 0.69684 0.0
H3408 H 0.72935 0.43778 0.5169 0.0
H3409 H 0.75343 0.4847 0.46992 0.0
H3410 H 0.72214 0.50423 0.47694 0.0
H3411 H 0.66707 0.43896 0.51065 0.0
H3412 H 0.66724 0.4399 0.54247 0.0
H3413 H 0.68574 0.42508 0.52728 0.0
H3414 H 0.7205 0.44858 0.5563 0.0
H3415 H 0.70243 0.46375 0.57141 0.0
H3416 H 0.72603 0.47868 0.55898 0.0
H3417 H 0.69432 0.52265 0.49526 0.0
H3418 H 0.67329 0.53993 0.5248 0.0
H3419 H 0.67113 0.48309 0.5631 0.0
C3420 C 0.72705 0.45136 0.50708 0.0
C3421 C 0.74283 0.45959 0.49241 0.0
C3422 C 0.74078 0.47816 0.48082 0.0
C3423 C 0.72311 0.48917 0.48463 0.0
C3424 C 0.70836 0.48148 0.50047 0.0
C3425 C 0.71033 0.46306 0.51167 0.0
C3426 C 0.69681 0.46153 0.53231 0.0
C3427 C 0.67808 0.4401 0.52789 0.0
C3428 C 0.71237 0.46324 0.55612 0.0
C3429 C 0.68715 0.48212 0.53127 0.0
C3430 C 0.69357 0.49317 0.51254 0.0
C3431 C 0.68876 0.51395 0.50969 0.0
C3432 C 0.67714 0.52371 0.52659 0.0
C3433 C 0.67115 0.51279 0.54615 0.0
C3434 C 0.67583 0.49168 0.54829 0.0
H3435 H 0.17705 0.13006 0.47662 0.0
H3436 H 0.21488 0.14054 0.5476 0.0
H3437 H 0.18313 0.11555 0.56126 0.0
H3438 H 0.12129 0.12855 0.49467 0.0
H3439 H 0.10679 0.10659 0.47098 0.0
H3440 H 0.1325 0.1252 0.46665 0.0
H3441 H 0.1506 0.09115 0.45574 0.0
H3442 H 0.12493 0.07248 0.46012 0.0
H3443 H 0.15182 0.07126 0.47633 0.0
H3444 H 0.14814 0.08806 0.56686 0.0
H3445 H 0.11085 0.06206 0.56473 0.0
H3446 H 0.09426 0.07067 0.49094 0.0
C3447 C 0.1785 0.12709 0.49502 0.0
C3448 C 0.19844 0.13704 0.51108 0.0
C3449 C 0.19985 0.13282 0.53501 0.0
C3450 C 0.18188 0.1187 0.54292 0.0
C3451 C 0.16254 0.10886 0.52667 0.0
C3452 C 0.16062 0.11292 0.50324 0.0
C3453 C 0.13793 0.10007 0.4895 0.0
C3454 C 0.12379 0.11607 0.47989 0.0
C3455 C 0.14154 0.08272 0.46922 0.0
C3456 C 0.12725 0.08865 0.509 0.0
C3457 C 0.14195 0.09362 0.53017 0.0
C3458 C 0.13643 0.08417 0.55042 0.0
C3459 C 0.11532 0.06934 0.54904 0.0
C3460 C 0.09973 0.06453 0.52778 0.0
C3461 C 0.10579 0.07434 0.50752 0.0
H3462 H 0.16525 0.98258 0.75293 0.0
H3463 H 0.19099 1.00398 0.82791 0.0
H3464 H 0.21187 0.97304 0.82733 0.0
H3465 H 0.15986 0.92251 0.75066 0.0
H3466 H 0.17048 0.91941 0.7223 0.0
H3467 H 0.1555 0.94136 0.72957 0.0
H3468 H 0.18986 0.97099 0.72186 0.0
H3469 H 0.2048 0.9491 0.71439 0.0
H3470 H 0.21768 0.97215 0.73754 0.0
H3471 H 0.23195 0.94135 0.81741 0.0
H3472 H 0.25198 0.91398 0.79867 0.0
H3473 H 0.21318 0.91408 0.72992 0.0
C3474 C 0.17497 0.98045 0.76931 0.0
C3475 C 0.17643 0.99533 0.79051 0.0
C3476 C 0.18977 0.9926 0.8115 0.0
C3477 C 0.2015 0.97504 0.81135 0.0
C3478 C 0.19992 0.96072 0.78997 0.0
C3479 C 0.18719 0.96346 0.76928 0.0
C3480 C 0.19032 0.94765 0.74802 0.0
C3481 C 0.16769 0.93178 0.737 0.0
C3482 C 0.20131 0.96076 0.72936 0.0
C3483 C 0.20659 0.93535 0.75994 0.0
C3484 C 0.21188 0.943 0.78415 0.0
C3485 C 0.22778 0.93511 0.79851 0.0
C3486 C 0.239 0.91947 0.78769 0.0
C3487 C 0.23432 0.91197 0.76273 0.0
C3488 C 0.21743 0.91967 0.74895 0.0
H3489 H 0.37801 0.96461 0.03702 0.0
H3490 H 0.36712 0.96519 0.96065 0.0
H3491 H 0.4079 0.97009 0.95912 0.0
H3492 H 0.41589 0.00513 0.05326 0.0
H3493 H 0.43646 0.99693 0.07382 0.0
H3494 H 0.40755 0.98158 0.06878 0.0
H3495 H 0.42034 0.94469 0.0564 0.0
H3496 H 0.44948 0.95994 0.06215 0.0
H3497 H 0.43871 0.94318 0.03355 0.0
H3498 H 0.43852 0.9996 0.96989 0.0
H3499 H 0.46869 0.03045 0.9881 0.0
H3500 H 0.47163 1.00423 0.05481 0.0
C3501 C 0.38459 0.96505 0.02008 0.0
C3502 C 0.37028 0.96573 0.99915 0.0
C3503 C 0.37842 0.96578 0.97695 0.0
C3504 C 0.40138 0.96795 0.97586 0.0
C3505 C 0.41572 0.97029 0.99718 0.0
C3506 C 0.40785 0.96744 0.01884 0.0
C3507 C 0.42716 0.97481 0.03936 0.0
C3508 C 0.42139 0.99056 0.05998 0.0
C3509 C 0.43434 0.95441 0.04837 0.0
C3510 C 0.44518 0.98691 0.02638 0.0
C3511 C 0.43791 0.98406 0.00206 0.0
C3512 C 0.44623 0.99984 0.988 0.0
C3513 C 0.4634 0.0176 0.99847 0.0
C3514 C 0.47422 0.0181 0.02166 0.0
C3515 C 0.46459 1.00306 0.0363 0.0
H3516 H 0.87067 0.58 0.78884 0.0
H3517 H 0.83743 0.58033 0.85252 0.0
H3518 H 0.8187 0.6105 0.84012 0.0
H3519 H 0.87886 0.63863 0.78183 0.0
H3520 H 0.87123 0.63234 0.74986 0.0
H3521 H 0.88447 0.61365 0.76571 0.0
H3522 H 0.85093 0.58057 0.74791 0.0
H3523 H 0.83758 0.59902 0.73188 0.0
H3524 H 0.82228 0.583 0.75173 0.0
H3525 H 0.80108 0.63714 0.81829 0.0
H3526 H 0.78468 0.65768 0.78864 0.0
H3527 H 0.82963 0.63822 0.73915 0.0
C3528 C 0.86008 0.5871 0.80056 0.0
C3529 C 0.85583 0.5789 0.82188 0.0
C3530 C 0.84108 0.58725 0.83641 0.0
C3531 C 0.83049 0.60419 0.82949 0.0
C3532 C 0.83478 0.6118 0.80794 0.0
C3533 C 0.8491 0.60334 0.79365 0.0
C3534 C 0.84862 0.61175 0.76993 0.0
C3535 C 0.8722 0.62489 0.76666 0.0
C3536 C 0.8393 0.59244 0.74916 0.0
C3537 C 0.83202 0.62668 0.77314 0.0
C3538 C 0.82417 0.62652 0.79509 0.0
C3539 C 0.80731 0.63769 0.80119 0.0
C3540 C 0.79814 0.64924 0.78426 0.0
C3541 C 0.80596 0.64939 0.76164 0.0
C3542 C 0.82323 0.63818 0.75621 0.0
H3543 H 0.83342 0.65204 0.05668 0.0
H3544 H 0.81986 0.63501 0.9798 0.0
H3545 H 0.85351 0.61743 0.98016 0.0
H3546 H 0.89732 0.66133 0.06317 0.0
H3547 H 0.89773 0.64857 0.09004 0.0
H3548 H 0.87598 0.66376 0.08257 0.0
H3549 H 0.84504 0.62872 0.08537 0.0
H3550 H 0.86659 0.61329 0.09229 0.0
H3551 H 0.84481 0.60259 0.06709 0.0
H3552 H 0.88427 0.59576 0.99046 0.0
H3553 H 0.91021 0.57434 0.00908 0.0
H3554 H 0.90331 0.60675 0.0792 0.0
C3555 C 0.8383 0.64561 0.03987 0.0
C3556 C 0.8247 0.64533 0.01821 0.0
C3557 C 0.8307 0.63592 0.99649 0.0
C3558 C 0.84964 0.62581 0.99659 0.0
C3559 C 0.86227 0.62551 0.01855 0.0
C3560 C 0.857 0.63555 0.03974 0.0
C3561 C 0.87112 0.63074 0.0612 0.0
C3562 C 0.88646 0.65239 0.07506 0.0
C3563 C 0.85599 0.61809 0.07742 0.0
C3564 C 0.88482 0.61591 0.049 0.0
C3565 C 0.87967 0.61308 0.02441 0.0
C3566 C 0.8888 0.59832 0.00967 0.0
C3567 C 0.9035 0.58621 0.02041 0.0
C3568 C 0.90874 0.58884 0.04564 0.0
C3569 C 0.8995 0.60419 0.05991 0.0
H3570 H 0.20419 0.11683 0.78681 0.0
H3571 H 0.14815 0.14461 0.81041 0.0
H3572 H 0.17092 0.18237 0.81307 0.0
H3573 H 0.24994 0.16287 0.82475 0.0
H3574 H 0.26906 0.16359 0.80255 0.0
H3575 H 0.24999 0.1377 0.80498 0.0
H3576 H 0.23369 0.13383 0.76038 0.0
H3577 H 0.25275 0.1596 0.75784 0.0
H3578 H 0.22252 0.1564 0.7496 0.0
H3579 H 0.19827 0.21633 0.81502 0.0
H3580 H 0.22751 0.24731 0.80931 0.0
H3581 H 0.26574 0.20093 0.77778 0.0
C3582 C 0.19701 0.13092 0.79298 0.0
C3583 C 0.17434 0.12766 0.79861 0.0
C3584 C 0.16538 0.14653 0.80612 0.0
C3585 C 0.17825 0.16815 0.80784 0.0
C3586 C 0.20024 0.17089 0.80205 0.0
C3587 C 0.20973 0.15305 0.79458 0.0
C3588 C 0.23352 0.16166 0.78818 0.0
C3589 C 0.25171 0.15611 0.80616 0.0
C3590 C 0.23572 0.15232 0.76245 0.0
C3591 C 0.23471 0.18688 0.79134 0.0
C3592 C 0.21573 0.19145 0.80067 0.0
C3593 C 0.21305 0.21305 0.80722 0.0
C3594 C 0.22994 0.23067 0.80368 0.0
C3595 C 0.24888 0.22699 0.79218 0.0
C3596 C 0.25148 0.20457 0.78628 0.0
H3597 H 0.37343 0.93769 0.31906 0.0
H3598 H 0.32765 0.96219 0.26975 0.0
H3599 H 0.3042 0.92401 0.25827 0.0
H3600 H 0.37352 0.88637 0.28609 0.0
H3601 H 0.37185 0.87028 0.3105 0.0
H3602 H 0.38476 0.89967 0.31619 0.0
H3603 H 0.35688 0.90667 0.34659 0.0
H3604 H 0.34459 0.87712 0.34151 0.0
H3605 H 0.32669 0.89692 0.33759 0.0
H3606 H 0.28674 0.88411 0.25125 0.0
H3607 H 0.27363 0.8435 0.25194 0.0
H3608 H 0.3309 0.8451 0.30533 0.0
C3609 C 0.35851 0.93483 0.30579 0.0
C3610 C 0.35234 0.95235 0.29477 0.0
C3611 C 0.33248 0.9486 0.27806 0.0
C3612 C 0.31916 0.92714 0.27148 0.0
C3613 C 0.32586 0.91002 0.28225 0.0
C3614 C 0.3447 0.91361 0.29946 0.0
C3615 C 0.34755 0.89229 0.30876 0.0
C3616 C 0.3708 0.88684 0.30514 0.0
C3617 C 0.34369 0.89333 0.33516 0.0
C3618 C 0.32837 0.87607 0.29277 0.0
C3619 C 0.31581 0.88671 0.27797 0.0
C3620 C 0.29645 0.87543 0.26254 0.0
C3621 C 0.28929 0.85257 0.26283 0.0
C3622 C 0.30189 0.84171 0.27807 0.0
C3623 C 0.32177 0.85329 0.29287 0.0
H3624 H 0.57305 0.39013 0.60756 0.0
H3625 H 0.55209 0.34783 0.53892 0.0
H3626 H 0.54372 0.38028 0.52086 0.0
H3627 H 0.53159 0.42526 0.60169 0.0
H3628 H 0.5508 0.45096 0.61548 0.0
H3629 H 0.55529 0.42459 0.6235 0.0
H3630 H 0.59614 0.43333 0.61245 0.0
H3631 H 0.59174 0.45975 0.60447 0.0
H3632 H 0.60043 0.44009 0.58311 0.0
H3633 H 0.53599 0.41731 0.50986 0.0
H3634 H 0.53199 0.45567 0.50615 0.0
H3635 H 0.55916 0.47672 0.581 0.0
C3636 C 0.56675 0.38765 0.58869 0.0
C3637 C 0.56325 0.36583 0.57483 0.0
C3638 C 0.55506 0.3639 0.55017 0.0
C3639 C 0.55016 0.38242 0.53967 0.0
C3640 C 0.55366 0.40343 0.55372 0.0
C3641 C 0.56203 0.40628 0.5777 0.0
C3642 C 0.56464 0.431 0.58848 0.0
C3643 C 0.54969 0.43307 0.60848 0.0
C3644 C 0.58973 0.44167 0.59768 0.0
C3645 C 0.55614 0.44146 0.56698 0.0
C3646 C 0.54983 0.42507 0.54718 0.0
C3647 C 0.54107 0.43018 0.5253 0.0
C3648 C 0.53879 0.45232 0.52339 0.0
C3649 C 0.54524 0.4699 0.54311 0.0
C3650 C 0.55412 0.46409 0.56534 0.0
H3651 H 0.44352 0.79732 0.37634 0.0
H3652 H 0.42314 0.74053 0.4132 0.0
H3653 H 0.38377 0.7347 0.39194 0.0
H3654 H 0.39101 0.81755 0.37728 0.0
H3655 H 0.39234 0.82657 0.34843 0.0
H3656 H 0.41819 0.82632 0.36725 0.0
H3657 H 0.43012 0.8012 0.33307 0.0
H3658 H 0.40422 0.80118 0.31425 0.0
H3659 H 0.41128 0.77504 0.31998 0.0
H3660 H 0.34573 0.73568 0.36574 0.0
H3661 H 0.31432 0.74278 0.3379 0.0
H3662 H 0.36085 0.79788 0.31724 0.0
C3663 C 0.43088 0.78359 0.38013 0.0
C3664 C 0.43673 0.76933 0.39662 0.0
C3665 C 0.41931 0.75179 0.4009 0.0
C3666 C 0.39685 0.74833 0.38877 0.0
C3667 C 0.3919 0.76261 0.37245 0.0
C3668 C 0.40856 0.77997 0.36828 0.0
C3669 C 0.39924 0.79311 0.34999 0.0
C3670 C 0.40026 0.81732 0.36142 0.0
C3671 C 0.41197 0.79258 0.32802 0.0
C3672 C 0.37478 0.78012 0.3438 0.0
C3673 C 0.37068 0.76281 0.35721 0.0
C3674 C 0.34896 0.74914 0.35518 0.0
C3675 C 0.33115 0.7533 0.3393 0.0
C3676 C 0.33505 0.7707 0.32511 0.0
C3677 C 0.3573 0.78417 0.32745 0.0
H3678 H 0.03489 0.70948 0.06036 0.0
H3679 H 0.09975 0.72084 0.1057 0.0
H3680 H 0.10128 0.68145 0.09539 0.0
H3681 H 0.01174 0.65495 0.07178 0.0
H3682 H 0.99966 0.64258 0.04164 0.0
H3683 H 1.00341 0.67231 0.05056 0.0
H3684 H 0.02719 0.67992 0.01618 0.0
H3685 H 0.02319 0.65016 0.00702 0.0
H3686 H 0.0515 0.66736 0.01352 0.0
H3687 H 0.09469 0.64053 0.0851 0.0
H3688 H 0.08281 0.60042 0.07027 0.0
H3689 H 0.02372 0.61213 0.02744 0.0
C3690 C 0.04978 0.70384 0.06739 0.0
C3691 C 0.06744 0.71884 0.08385 0.0
C3692 C 0.08615 0.71018 0.093 0.0
C3693 C 0.08714 0.68761 0.08734 0.0
C3694 C 0.06944 0.67323 0.07193 0.0
C3695 C 0.05133 0.6809 0.06143 0.0
C3696 C 0.03493 0.66112 0.04516 0.0
C3697 C 0.01101 0.65754 0.05276 0.0
C3698 C 0.03414 0.66487 0.01891 0.0
C3699 C 0.0462 0.64132 0.04933 0.0
C3700 C 0.06615 0.64903 0.06483 0.0
C3701 C 0.07942 0.63442 0.07239 0.0
C3702 C 0.07261 0.61146 0.06358 0.0
C3703 C 0.05281 0.60272 0.04685 0.0
C3704 C 0.03918 0.61805 0.03992 0.0
H3705 H 0.08149 0.30347 0.92297 0.0
H3706 H 0.05725 0.23275 0.89738 0.0
H3707 H 0.08946 0.2333 0.87366 0.0
H3708 H 0.09565 0.31626 0.86598 0.0
H3709 H 0.11946 0.33867 0.87848 0.0
H3710 H 0.0959 0.33182 0.895 0.0
H3711 H 0.12365 0.32646 0.9308 0.0
H3712 H 0.1473 0.33311 0.91433 0.0
H3713 H 0.14212 0.30706 0.92629 0.0
H3714 H 0.12412 0.2428 0.85053 0.0
H3715 H 0.1546 0.26067 0.82872 0.0
H3716 H 0.15548 0.32491 0.87001 0.0
C3717 C 0.08329 0.28803 0.91277 0.0
C3718 C 0.06722 0.26796 0.91236 0.0
C3719 C 0.06958 0.24825 0.89808 0.0
C3720 C 0.08786 0.24842 0.8846 0.0
C3721 C 0.10344 0.26857 0.88522 0.0
C3722 C 0.10108 0.28805 0.89877 0.0
C3723 C 0.11851 0.30797 0.89458 0.0
C3724 C 0.10668 0.32466 0.88283 0.0
C3725 C 0.13381 0.31931 0.9179 0.0
C3726 C 0.13162 0.29668 0.8773 0.0
C3727 C 0.1227 0.27397 0.87185 0.0
C3728 C 0.13128 0.26057 0.85489 0.0
C3729 C 0.14878 0.27082 0.84269 0.0
C3730 C 0.15749 0.29427 0.84744 0.0
C3731 C 0.14919 0.30698 0.86569 0.0
H3732 H 0.54 0.76206 0.93259 0.0
H3733 H 0.55214 0.72813 0.8654 0.0
H3734 H 0.55018 0.69305 0.88286 0.0
H3735 H 0.57046 0.73292 0.97275 0.0
H3736 H 0.54949 0.73107 0.99306 0.0
H3737 H 0.55368 0.754 0.97602 0.0
H3738 H 0.51093 0.74409 0.95865 0.0
H3739 H 0.50655 0.72146 0.97601 0.0
H3740 H 0.49837 0.71601 0.94411 0.0
H3741 H 0.54571 0.66088 0.90775 0.0
H3742 H 0.53395 0.63408 0.93561 0.0
H3743 H 0.52332 0.68859 0.9858 0.0
C3744 C 0.54253 0.74732 0.92166 0.0
C3745 C 0.54651 0.74797 0.89768 0.0
C3746 C 0.54915 0.72811 0.88382 0.0
C3747 C 0.54821 0.7081 0.89365 0.0
C3748 C 0.54433 0.70801 0.91738 0.0
C3749 C 0.54117 0.72705 0.93106 0.0
C3750 C 0.53518 0.72204 0.95534 0.0
C3751 C 0.55329 0.73583 0.97548 0.0
C3752 C 0.51135 0.72614 0.95872 0.0
C3753 C 0.53551 0.69729 0.95325 0.0
C3754 C 0.54112 0.6895 0.93135 0.0
C3755 C 0.54147 0.66689 0.92502 0.0
C3756 C 0.53503 0.65177 0.94106 0.0
C3757 C 0.52808 0.65925 0.96305 0.0
C3758 C 0.529 0.68244 0.96934 0.0
H3759 H 0.10162 0.7395 0.74387 0.0
H3760 H 0.10358 0.79937 0.71036 0.0
H3761 H 0.14521 0.80865 0.71918 0.0
H3762 H 0.15075 0.76355 0.79148 0.0
H3763 H 0.16223 0.73861 0.78986 0.0
H3764 H 0.13205 0.73645 0.78251 0.0
H3765 H 0.13298 0.71417 0.7412 0.0
H3766 H 0.16313 0.7163 0.74859 0.0
H3767 H 0.1524 0.72599 0.7219 0.0
H3768 H 0.18623 0.81175 0.7296 0.0
H3769 H 0.22522 0.80896 0.74176 0.0
H3770 H 0.20074 0.74723 0.76934 0.0
C3771 C 0.11083 0.75481 0.73891 0.0
C3772 C 0.09887 0.7689 0.7266 0.0
C3773 C 0.11192 0.78836 0.71988 0.0
C3774 C 0.13576 0.79381 0.7248 0.0
C3775 C 0.14699 0.77965 0.73644 0.0
C3776 C 0.13517 0.76053 0.74355 0.0
C3777 C 0.15228 0.74812 0.75508 0.0
C3778 C 0.14914 0.74659 0.78129 0.0
C3779 C 0.15005 0.72475 0.74084 0.0
C3780 C 0.17525 0.76336 0.75324 0.0
C3781 C 0.17145 0.78137 0.74238 0.0
C3782 C 0.1894 0.79775 0.73823 0.0
C3783 C 0.21182 0.79596 0.74538 0.0
C3784 C 0.21687 0.7779 0.75679 0.0
C3785 C 0.19797 0.76126 0.76065 0.0
H3786 H 0.05681 0.41106 0.39178 0.0
H3787 H 0.04336 0.35902 0.43655 0.0
H3788 H 0.03648 0.38674 0.46853 0.0
H3789 H 0.08675 0.45583 0.43757 0.0
H3790 H 0.07397 0.47709 0.42591 0.0
H3791 H 0.07703 0.4531 0.40604 0.0
H3792 H 0.0338 0.44449 0.39126 0.0
H3793 H 0.03066 0.46837 0.41137 0.0
H3794 H 0.01392 0.44101 0.41262 0.0
H3795 H 0.02615 0.41911 0.49376 0.0
H3796 H 0.02114 0.4549 0.51394 0.0
H3797 H 0.04999 0.48849 0.45801 0.0
C3798 C 0.05263 0.40549 0.40838 0.0
C3799 C 0.05064 0.38256 0.41141 0.0
C3800 C 0.04498 0.37624 0.43352 0.0
C3801 C 0.0409 0.39192 0.45184 0.0
C3802 C 0.04263 0.41415 0.44812 0.0
C3803 C 0.04875 0.42109 0.42713 0.0
C3804 C 0.04973 0.44619 0.42812 0.0
C3805 C 0.07329 0.45879 0.4242 0.0
C3806 C 0.03093 0.45026 0.40975 0.0
C3807 C 0.04468 0.45244 0.45349 0.0
C3808 C 0.03942 0.43342 0.46409 0.0
C3809 C 0.03125 0.43423 0.48606 0.0
C3810 C 0.02893 0.45495 0.49777 0.0
C3811 C 0.03614 0.47526 0.48862 0.0
C3812 C 0.0441 0.4737 0.46589 0.0
H3813 H 0.44172 0.2749 0.20712 0.0
H3814 H 0.45772 0.23447 0.26134 0.0
H3815 H 0.42205 0.23721 0.27716 0.0
H3816 H 0.41453 0.31173 0.24551 0.0
H3817 H 0.39254 0.31353 0.2223 0.0
H3818 H 0.41966 0.30902 0.21478 0.0
H3819 H 0.39939 0.27329 0.18577 0.0
H3820 H 0.37224 0.27778 0.19318 0.0
H3821 H 0.38032 0.25157 0.19663 0.0
H3822 H 0.38478 0.24505 0.28902 0.0
H3823 H 0.348 0.25566 0.29399 0.0
H3824 H 0.35246 0.28939 0.23166 0.0
C3825 C 0.43777 0.26662 0.22233 0.0
C3826 C 0.45328 0.25443 0.23281 0.0
C3827 C 0.4468 0.24396 0.25271 0.0
C3828 C 0.42631 0.24543 0.26199 0.0
C3829 C 0.41164 0.25745 0.25146 0.0
C3830 C 0.41694 0.26783 0.23197 0.0
C3831 C 0.39765 0.27952 0.22416 0.0
C3832 C 0.40663 0.30496 0.22683 0.0
C3833 C 0.38676 0.26997 0.1984 0.0
C3834 C 0.38074 0.27377 0.24201 0.0
C3835 C 0.3895 0.26128 0.25781 0.0
C3836 C 0.37778 0.25467 0.27656 0.0
C3837 C 0.35676 0.26082 0.27931 0.0
C3838 C 0.34684 0.27315 0.26322 0.0
C3839 C 0.35919 0.27965 0.24417 0.0
H3840 H 0.60343 0.57871 0.37877 0.0
H3841 H 0.59146 0.50994 0.3444 0.0
H3842 H 0.57788 0.49693 0.38093 0.0
H3843 H 0.62391 0.56466 0.43849 0.0
H3844 H 0.61309 0.58703 0.45348 0.0
H3845 H 0.6226 0.58937 0.42487 0.0
H3846 H 0.58293 0.59683 0.4098 0.0
H3847 H 0.5735 0.59327 0.43826 0.0
H3848 H 0.55761 0.57625 0.41142 0.0
H3849 H 0.56546 0.49163 0.42187 0.0
H3850 H 0.5539 0.49465 0.46247 0.0
H3851 H 0.57178 0.56693 0.46891 0.0
C3852 C 0.59791 0.56092 0.37897 0.0
C3853 C 0.59835 0.54531 0.35872 0.0
C3854 C 0.59138 0.52215 0.35978 0.0
C3855 C 0.58364 0.51463 0.38045 0.0
C3856 C 0.58347 0.53046 0.40019 0.0
C3857 C 0.59062 0.55312 0.39965 0.0
C3858 C 0.58949 0.56666 0.42346 0.0
C3859 C 0.6137 0.57756 0.43581 0.0
C3860 C 0.57499 0.58428 0.42054 0.0
C3861 C 0.57846 0.54833 0.4367 0.0
C3862 C 0.57605 0.52747 0.42339 0.0
C3863 C 0.56732 0.50791 0.43239 0.0
C3864 C 0.56079 0.50976 0.45546 0.0
C3865 C 0.56218 0.53097 0.46895 0.0
C3866 C 0.57099 0.55047 0.45927 0.0
H3867 H 0.29584 0.91592 0.08189 0.0
H3868 H 0.29057 0.85722 0.02917 0.0
H3869 H 0.29058 0.83379 0.06117 0.0
H3870 H 0.33454 0.90395 0.12395 0.0
H3871 H 0.32225 0.91395 0.14957 0.0
H3872 H 0.3179 0.92516 0.12221 0.0
H3873 H 0.27434 0.91431 0.12306 0.0
H3874 H 0.27872 0.90213 0.14998 0.0
H3875 H 0.26104 0.8856 0.12389 0.0
H3876 H 0.29521 0.81749 0.09775 0.0
H3877 H 0.31076 0.81038 0.1373 0.0
H3878 H 0.31429 0.87937 0.16676 0.0
C3879 C 0.29415 0.89805 0.07709 0.0
C3880 C 0.29272 0.88823 0.05309 0.0
C3881 C 0.29115 0.86494 0.04744 0.0
C3882 C 0.29096 0.85148 0.06545 0.0
C3883 C 0.29211 0.86156 0.08892 0.0
C3884 C 0.2939 0.88434 0.09487 0.0
C3885 C 0.29769 0.89129 0.12167 0.0
C3886 C 0.31939 0.90965 0.12979 0.0
C3887 C 0.2767 0.89877 0.13016 0.0
C3888 C 0.3001 0.86925 0.12968 0.0
C3889 C 0.29557 0.85211 0.11054 0.0
C3890 C 0.29844 0.83059 0.11298 0.0
C3891 C 0.30729 0.82671 0.13536 0.0
C3892 C 0.31358 0.84443 0.15461 0.0
C3893 C 0.30924 0.86568 0.1521 0.0
H3894 H 0.934 0.54306 0.88815 0.0
H3895 H 0.91697 0.47076 0.8728 0.0
H3896 H 0.93617 0.46833 0.91248 0.0
H3897 H 0.98573 0.54686 0.906 0.0
H3898 H 0.99156 0.5698 0.93021 0.0
H3899 H 0.96852 0.56771 0.90689 0.0
H3900 H 0.93947 0.56769 0.93715 0.0
H3901 H 0.96268 0.57122 0.96091 0.0
H3902 H 0.93839 0.54847 0.95871 0.0
H3903 H 0.96897 0.47312 0.94152 0.0
H3904 H 1.00449 0.48552 0.96983 0.0
H3905 H 1.00041 0.55473 0.96777 0.0
C3906 C 0.93332 0.52688 0.89401 0.0
C3907 C 0.92456 0.50707 0.87812 0.0
C3908 C 0.92405 0.48595 0.88523 0.0
C3909 C 0.93468 0.48448 0.90765 0.0
C3910 C 0.94567 0.50432 0.92215 0.0
C3911 C 0.94436 0.52528 0.91618 0.0
C3912 C 0.96151 0.54373 0.93222 0.0
C3913 C 0.97776 0.55782 0.91796 0.0
C3914 C 0.94979 0.55863 0.94821 0.0
C3915 C 0.97376 0.52968 0.94648 0.0
C3916 C 0.9645 0.50706 0.94037 0.0
C3917 C 0.97569 0.49076 0.94759 0.0
C3918 C 0.99602 0.49785 0.96307 0.0
C3919 C 1.00424 0.52086 0.97109 0.0
C3920 C 0.99356 0.53697 0.96229 0.0
H3921 H 0.30255 0.22299 0.60123 0.0
H3922 H 0.22941 0.1985 0.58668 0.0
H3923 H 0.22539 0.21538 0.62698 0.0
H3924 H 0.30998 0.21365 0.66082 0.0
H3925 H 0.33053 0.23905 0.67281 0.0
H3926 H 0.32839 0.22752 0.6418 0.0
H3927 H 0.32196 0.26496 0.62925 0.0
H3928 H 0.32435 0.27668 0.66027 0.0
H3929 H 0.29944 0.27703 0.63999 0.0
H3930 H 0.22875 0.22941 0.66895 0.0
H3931 H 0.23912 0.24443 0.71124 0.0
H3932 H 0.3098 0.26341 0.7016 0.0
C3933 C 0.28571 0.22194 0.60641 0.0
C3934 C 0.26612 0.20979 0.59071 0.0
C3935 C 0.24446 0.20805 0.59828 0.0
C3936 C 0.24203 0.2175 0.62117 0.0
C3937 C 0.26147 0.22883 0.63646 0.0
C3938 C 0.28292 0.23157 0.62952 0.0
C3939 C 0.30077 0.24414 0.65038 0.0
C3940 C 0.31846 0.23024 0.65682 0.0
C3941 C 0.31231 0.26706 0.64463 0.0
C3942 C 0.28594 0.24683 0.67021 0.0
C3943 C 0.26336 0.23796 0.66138 0.0
C3944 C 0.24627 0.23709 0.6759 0.0
C3945 C 0.25221 0.24596 0.7 0.0
C3946 C 0.27485 0.25601 0.70969 0.0
C3947 C 0.29217 0.25615 0.69462 0.0
H3948 H 0.60399 0.5782 0.21209 0.0
H3949 H 0.60728 0.50897 0.21543 0.0
H3950 H 0.5911 0.49891 0.17279 0.0
H3951 H 0.55035 0.56648 0.17144 0.0
H3952 H 0.55903 0.58937 0.15522 0.0
H3953 H 0.57042 0.59129 0.18617 0.0
H3954 H 0.61137 0.59926 0.175 0.0
H3955 H 0.59999 0.59738 0.14406 0.0
H3956 H 0.61923 0.5799 0.15264 0.0
H3957 H 0.57534 0.49616 0.13077 0.0
H3958 H 0.56082 0.50008 0.09033 0.0
H3959 H 0.56727 0.57156 0.11178 0.0
C3960 C 0.60103 0.56093 0.20376 0.0
C3961 C 0.60656 0.5442 0.21695 0.0
C3962 C 0.60285 0.52185 0.2056 0.0
C3963 C 0.59374 0.51605 0.18143 0.0
C3964 C 0.58838 0.53281 0.16886 0.0
C3965 C 0.59181 0.5548 0.17949 0.0
C3966 C 0.5847 0.5694 0.16146 0.0
C3967 C 0.56495 0.57975 0.16903 0.0
C3968 C 0.60504 0.58756 0.15809 0.0
C3969 C 0.57696 0.55217 0.13903 0.0
C3970 C 0.57926 0.53123 0.14401 0.0
C3971 C 0.57352 0.51247 0.12665 0.0
C3972 C 0.56535 0.51502 0.10352 0.0
C3973 C 0.56303 0.53626 0.09744 0.0
C3974 C 0.56873 0.55512 0.11567 0.0
H3975 H 0.3044 0.87773 0.93629 0.0
H3976 H 0.29616 0.93102 0.89465 0.0
H3977 H 0.28674 0.90339 0.8579 0.0
H3978 H 0.33085 0.84649 0.897 0.0
H3979 H 0.31546 0.81961 0.90201 0.0
H3980 H 0.32036 0.84331 0.92516 0.0
H3981 H 0.27698 0.83714 0.92711 0.0
H3982 H 0.2719 0.8135 0.90371 0.0
H3983 H 0.2578 0.83633 0.90037 0.0
H3984 H 0.27062 0.86908 0.8279 0.0
H3985 H 0.26362 0.83169 0.80316 0.0
H3986 H 0.29222 0.8041 0.86222 0.0
C3987 C 0.30092 0.88374 0.91946 0.0
C3988 C 0.30069 0.90642 0.91824 0.0
C3989 C 0.29615 0.91362 0.89589 0.0
C3990 C 0.29054 0.8981 0.87505 0.0
C3991 C 0.28974 0.87572 0.87712 0.0
C3992 C 0.29541 0.8686 0.89859 0.0
C3993 C 0.29401 0.84368 0.89574 0.0
C3994 C 0.31653 0.83796 0.90553 0.0
C3995 C 0.274 0.83198 0.90743 0.0
C3996 C 0.28891 0.83838 0.86896 0.0
C3997 C 0.28474 0.85674 0.85887 0.0
C3998 C 0.27569 0.85507 0.83511 0.0
C3999 C 0.27264 0.83434 0.82097 0.0
C4000 C 0.2809 0.81682 0.83001 0.0
C4001 C 0.2877 0.81816 0.85459 0.0
H4002 H 0.94508 0.53343 0.76096 0.0
H4003 H 0.876 0.5145 0.72377 0.0
H4004 H 0.89096 0.50726 0.68562 0.0
H4005 H 0.97087 0.56006 0.71343 0.0
H4006 H 0.99662 0.54977 0.71864 0.0
H4007 H 0.98092 0.55554 0.74303 0.0
H4008 H 0.9775 0.51496 0.75262 0.0
H4009 H 0.99408 0.50954 0.72904 0.0
H4010 H 0.96655 0.4918 0.72897 0.0
H4011 H 0.91273 0.50055 0.65239 0.0
H4012 H 0.93996 0.48946 0.62644 0.0
H4013 H 0.99479 0.51156 0.68534 0.0
C4014 C 0.93312 0.52822 0.74472 0.0
C4015 C 0.90946 0.52507 0.74513 0.0
C4016 C 0.89425 0.51757 0.72368 0.0
C4017 C 0.90255 0.51346 0.70197 0.0
C4018 C 0.92601 0.51705 0.70216 0.0
C4019 C 0.94108 0.52397 0.72297 0.0
C4020 C 0.96538 0.52475 0.71854 0.0
C4021 C 0.97927 0.54897 0.7237 0.0
C4022 C 0.9765 0.50933 0.73316 0.0
C4023 C 0.96145 0.51595 0.69215 0.0
C4024 C 0.93869 0.51235 0.68295 0.0
C4025 C 0.9306 0.50333 0.65928 0.0
C4026 C 0.9461 0.49703 0.64477 0.0
C4027 C 0.96916 0.49937 0.65426 0.0
C4028 C 0.9771 0.50944 0.67798 0.0
H4029 H 0.24377 0.22063 0.43292 0.0
H4030 H 0.31208 0.20996 0.44962 0.0
H4031 H 0.32335 0.22658 0.41417 0.0
H4032 H 0.24202 0.20574 0.36814 0.0
H4033 H 0.22464 0.22543 0.36142 0.0
H4034 H 0.22284 0.21308 0.38841 0.0
H4035 H 0.23158 0.25329 0.41235 0.0
H4036 H 0.23421 0.26522 0.38518 0.0
H4037 H 0.25736 0.27264 0.40942 0.0
H4038 H 0.32688 0.24255 0.37583 0.0
H4039 H 0.32246 0.25758 0.33754 0.0
H4040 H 0.25225 0.25886 0.34541 0.0
C4041 C 0.26115 0.22209 0.4292 0.0
C4042 C 0.27717 0.21423 0.44414 0.0
C4043 C 0.29959 0.2159 0.43841 0.0
C4044 C 0.30614 0.22533 0.41832 0.0
C4045 C 0.28995 0.23267 0.40375 0.0
C4046 C 0.26787 0.23105 0.40879 0.0
C4047 C 0.25356 0.2391 0.38938 0.0
C4048 C 0.23465 0.21968 0.37605 0.0
C4049 C 0.2436 0.25874 0.39971 0.0
C4050 C 0.27129 0.2464 0.37328 0.0
C4051 C 0.29206 0.2421 0.38168 0.0
C4052 C 0.31072 0.24607 0.36914 0.0
C4053 C 0.30807 0.25451 0.3474 0.0
C4054 C 0.28711 0.25939 0.33867 0.0
C4055 C 0.26856 0.2555 0.35192 0.0
H4056 H 0.31862 0.59767 0.5363 0.0
H4057 H 0.3454 0.60343 0.61107 0.0
H4058 H 0.38129 0.59377 0.59912 0.0
H4059 H 0.33808 0.55063 0.517 0.0
H4060 H 0.34372 0.55892 0.48855 0.0
H4061 H 0.32187 0.5685 0.50334 0.0
H4062 H 0.34089 0.60991 0.50236 0.0
H4063 H 0.36252 0.60059 0.48686 0.0
H4064 H 0.37049 0.62007 0.51421 0.0
H4065 H 0.4138 0.58378 0.57743 0.0
H4066 H 0.43873 0.57153 0.54912 0.0
H4067 H 0.38636 0.56951 0.48984 0.0
C4068 C 0.33217 0.59716 0.55023 0.0
C4069 C 0.32984 0.60139 0.57443 0.0
C4070 C 0.34735 0.60015 0.59236 0.0
C4071 C 0.36761 0.59489 0.58572 0.0
C4072 C 0.36935 0.59086 0.56134 0.0
C4073 C 0.35191 0.59183 0.54401 0.0
C4074 C 0.35663 0.58542 0.51911 0.0
C4075 C 0.33906 0.56463 0.50626 0.0
C4076 C 0.3577 0.60518 0.50482 0.0
C4077 C 0.37964 0.5804 0.52487 0.0
C4078 C 0.38701 0.58397 0.54918 0.0
C4079 C 0.40817 0.58082 0.55839 0.0
C4080 C 0.42208 0.57378 0.5422 0.0
C4081 C 0.41444 0.5697 0.51726 0.0
C4082 C 0.39294 0.573 0.50868 0.0
H4083 H 0.87767 0.96274 0.57177 0.0
H4084 H 0.87549 0.90489 0.51913 0.0
H4085 H 0.91358 0.92195 0.51034 0.0
H4086 H 0.90488 1.00372 0.54277 0.0
H4087 H 0.92376 0.02054 0.56792 0.0
H4088 H 0.8972 1.00349 0.57249 0.0
H4089 H 0.91823 0.98325 0.60218 0.0
H4090 H 0.94478 1.00089 0.59844 0.0
H4091 H 0.94125 0.97087 0.59328 0.0
H4092 H 0.94419 0.94963 0.49895 0.0
H4093 H 0.97719 0.97923 0.49707 0.0
H4094 H 0.96737 0.01529 0.56394 0.0
C4095 C 0.88573 0.95336 0.55915 0.0
C4096 C 0.87384 0.93252 0.54606 0.0
C4097 C 0.88453 0.92071 0.52944 0.0
C4098 C 0.90598 0.93038 0.52417 0.0
C4099 C 0.91674 0.95145 0.53637 0.0
C4100 C 0.90773 0.96233 0.55447 0.0
C4101 C 0.92351 0.98471 0.56493 0.0
C4102 C 0.91162 1.00427 0.56184 0.0
C4103 C 0.93248 0.98493 0.59127 0.0
C4104 C 0.94236 0.98487 0.54929 0.0
C4105 C 0.93735 0.96583 0.53239 0.0
C4106 C 0.94944 0.96364 0.51323 0.0
C4107 C 0.96838 0.98037 0.51248 0.0
C4108 C 0.97632 0.99809 0.53163 0.0
C4109 C 0.96245 1.00117 0.54974 0.0
H4110 H 0.90565 0.09496 0.24883 0.0
H4111 H 0.86837 0.04861 0.28954 0.0
H4112 H 0.84371 0.07502 0.29876 0.0
H4113 H 0.90629 0.14522 0.28434 0.0
H4114 H 0.90045 0.16078 0.26038 0.0
H4115 H 0.91403 0.13749 0.25521 0.0
H4116 H 0.88234 0.11955 0.22003 0.0
H4117 H 0.86838 0.14265 0.22552 0.0
H4118 H 0.85301 0.11439 0.22516 0.0
H4119 H 0.82495 0.10658 0.30619 0.0
H4120 H 0.8151 0.1436 0.3142 0.0
H4121 H 0.86349 0.17026 0.26868 0.0
C4122 C 0.89214 0.09043 0.2595 0.0
C4123 C 0.88876 0.06975 0.26845 0.0
C4124 C 0.87097 0.06425 0.28229 0.0
C4125 C 0.85683 0.07909 0.28755 0.0
C4126 C 0.86029 0.09918 0.2783 0.0
C4127 C 0.87738 0.10493 0.26446 0.0
C4128 C 0.87753 0.12798 0.25742 0.0
C4129 C 0.90097 0.14379 0.26482 0.0
C4130 C 0.86987 0.12603 0.23044 0.0
C4131 C 0.85959 0.13507 0.27163 0.0
C4132 C 0.84919 0.11773 0.28262 0.0
C4133 C 0.83266 0.12021 0.29741 0.0
C4134 C 0.8271 0.1412 0.3018 0.0
C4135 C 0.83836 0.15947 0.29181 0.0
C4136 C 0.85443 0.15631 0.27612 0.0
H4137 H 0.69294 0.10318 0.07791 0.0
H4138 H 0.70061 0.11018 0.00424 0.0
H4139 H 0.65881 0.09899 0.99306 0.0
H4140 H 0.65059 0.05432 0.06267 0.0
H4141 H 0.63558 0.05994 0.08761 0.0
H4142 H 0.66566 0.07101 0.09001 0.0
H4143 H 0.65889 0.11106 0.10158 0.0
H4144 H 0.62873 0.09999 0.09892 0.0
H4145 H 0.63946 0.12182 0.08208 0.0
H4146 H 0.62203 0.07302 0.98929 0.0
H4147 H 0.5881 0.04564 0.9948 0.0
H4148 H 0.59898 0.06894 0.07029 0.0
C4149 C 0.68555 0.10271 0.05958 0.0
C4150 C 0.69914 0.10694 0.04164 0.0
C4151 C 0.68977 0.10633 0.0178 0.0
C4152 C 0.66631 0.10034 0.01146 0.0
C4153 C 0.65307 0.09562 0.02945 0.0
C4154 C 0.66225 0.09715 0.0531 0.0
C4155 C 0.64464 0.08863 0.06832 0.0
C4156 C 0.6494 0.06724 0.0777 0.0
C4157 C 0.64282 0.10648 0.08892 0.0
C4158 C 0.62399 0.08315 0.04971 0.0
C4159 C 0.62948 0.08574 0.02707 0.0
C4160 C 0.61614 0.07322 0.0066 0.0
C4161 C 0.59652 0.05827 0.00955 0.0
C4162 C 0.58928 0.05827 0.03213 0.0
C4163 C 0.60312 0.07081 0.05247 0.0
H4164 H 0.23643 0.50503 0.27412 0.0
H4165 H 0.20112 0.46925 0.20605 0.0
H4166 H 0.212 0.43431 0.21621 0.0
H4167 H 0.2819 0.47602 0.28369 0.0
H4168 H 0.27891 0.47553 0.31483 0.0
H4169 H 0.27168 0.49803 0.30025 0.0
H4170 H 0.23114 0.48983 0.31252 0.0
H4171 H 0.23815 0.46748 0.32743 0.0
H4172 H 0.21376 0.46198 0.30474 0.0
H4173 H 0.2246 0.40341 0.23568 0.0
H4174 H 0.2357 0.37821 0.26351 0.0
H4175 H 0.25886 0.43504 0.3197 0.0
C4176 C 0.23213 0.49006 0.26092 0.0
C4177 C 0.21928 0.4896 0.23892 0.0
C4178 C 0.21203 0.46964 0.22256 0.0
C4179 C 0.21792 0.44989 0.22827 0.0
C4180 C 0.23028 0.45072 0.25061 0.0
C4181 C 0.23693 0.47026 0.26675 0.0
C4182 C 0.24666 0.46637 0.29086 0.0
C4183 C 0.27126 0.47976 0.29781 0.0
C4184 C 0.23152 0.47174 0.30999 0.0
C4185 C 0.24536 0.44165 0.28562 0.0
C4186 C 0.23584 0.43283 0.26238 0.0
C4187 C 0.2321 0.41008 0.2539 0.0
C4188 C 0.2383 0.39598 0.26975 0.0
C4189 C 0.24764 0.40487 0.29366 0.0
C4190 C 0.25133 0.42791 0.30158 0.0
H4191 H 0.2267 0.41656 0.06885 0.0
H4192 H 0.26225 0.4243 0.00721 0.0
H4193 H 0.2398 0.45113 0.99523 0.0
H4194 H 0.17273 0.41391 0.03718 0.0
H4195 H 0.16189 0.42856 0.06129 0.0
H4196 H 0.18372 0.41331 0.06777 0.0
H4197 H 0.20885 0.44938 0.09289 0.0
H4198 H 0.18721 0.46485 0.08586 0.0
H4199 H 0.2157 0.47436 0.0793 0.0
H4200 H 0.21309 0.47474 0.98801 0.0
H4201 H 0.17698 0.48711 0.9802 0.0
H4202 H 0.15489 0.46205 0.04358 0.0
C4203 C 0.22975 0.42415 0.05299 0.0
C4204 C 0.24681 0.41921 0.03943 0.0
C4205 C 0.25003 0.42875 0.01841 0.0
C4206 C 0.23735 0.44402 0.01146 0.0
C4207 C 0.22109 0.44916 0.02544 0.0
C4208 C 0.21666 0.43907 0.04535 0.0
C4209 C 0.19579 0.44507 0.05484 0.0
C4210 C 0.17745 0.42396 0.05527 0.0
C4211 C 0.20228 0.45927 0.0797 0.0
C4212 C 0.18854 0.45889 0.03621 0.0
C4213 C 0.20411 0.46185 0.02017 0.0
C4214 C 0.20077 0.4727 0.00045 0.0
C4215 C 0.18031 0.47963 0.99613 0.0
C4216 C 0.16349 0.47537 0.01129 0.0
C4217 C 0.16785 0.46566 0.03204 0.0
H4218 H 0.89467 0.93914 0.29295 0.0
H4219 H 0.87985 0.94273 0.21755 0.0
H4220 H 0.85023 0.90784 0.21281 0.0
H4221 H 0.88822 0.8802 0.28811 0.0
H4222 H 0.87488 0.87776 0.31477 0.0
H4223 H 0.89402 0.90338 0.31214 0.0
H4224 H 0.86233 0.92503 0.32054 0.0
H4225 H 0.84322 0.89918 0.32283 0.0
H4226 H 0.8351 0.91694 0.30198 0.0
H4227 H 0.82523 0.87067 0.21539 0.0
H4228 H 0.80424 0.83512 0.22583 0.0
H4229 H 0.8322 0.85699 0.30021 0.0
C4230 C 0.88491 0.93265 0.27556 0.0
C4231 C 0.88944 0.94346 0.25552 0.0
C4232 C 0.87653 0.93459 0.23302 0.0
C4233 C 0.85971 0.91483 0.2302 0.0
C4234 C 0.85582 0.90429 0.25016 0.0
C4235 C 0.86777 0.91305 0.27252 0.0
C4236 C 0.86044 0.89815 0.29092 0.0
C4237 C 0.8806 0.88935 0.30212 0.0
C4238 C 0.84962 0.91057 0.3102 0.0
C4239 C 0.84289 0.87944 0.2753 0.0
C4240 C 0.84061 0.88327 0.25183 0.0
C4241 C 0.82663 0.86764 0.23376 0.0
C4242 C 0.81483 0.84751 0.23978 0.0
C4243 C 0.81676 0.84335 0.26367 0.0
C4244 C 0.83058 0.85972 0.28173 0.0
H4245 H 0.71826 0.12443 0.7875 0.0
H4246 H 0.70596 0.11306 0.71007 0.0
H4247 H 0.73042 0.14977 0.7089 0.0
H4248 H 0.7121 0.17777 0.79413 0.0
H4249 H 0.73407 0.18938 0.81896 0.0
H4250 H 0.72089 0.16011 0.81478 0.0
H4251 H 0.76013 0.1494 0.81395 0.0
H4252 H 0.77348 0.17874 0.81889 0.0
H4253 H 0.77877 0.16066 0.79367 0.0
H4254 H 0.74448 0.18871 0.71533 0.0
H4255 H 0.75664 0.2289 0.72945 0.0
H4256 H 0.76465 0.21668 0.80279 0.0
C4257 C 0.72138 0.1297 0.77046 0.0
C4258 C 0.71036 0.11668 0.74883 0.0
C4259 C 0.7142 0.12346 0.72666 0.0
C4260 C 0.72821 0.14398 0.72587 0.0
C4261 C 0.73799 0.15718 0.74744 0.0
C4262 C 0.73523 0.15036 0.76942 0.0
C4263 C 0.74516 0.16922 0.78975 0.0
C4264 C 0.72696 0.17442 0.8053 0.0
C4265 C 0.76561 0.16419 0.80494 0.0
C4266 C 0.75251 0.18786 0.77551 0.0
C4267 C 0.74817 0.18034 0.75119 0.0
C4268 C 0.74945 0.19469 0.73421 0.0
C4269 C 0.75639 0.21737 0.74226 0.0
C4270 C 0.76288 0.22518 0.76679 0.0
C4271 C 0.76054 0.21057 0.78383 0.0
loop_
_geom_bond_atom_site_label_1
_geom_bond_atom_site_label_2
_geom_bond_distance
_geom_bond_site_symmetry_2
_ccdc_geom_bond_type
C0 O1 1.305 1_655 S
C0 O3 1.159 1_655 S
O1 C0 1.305 1_455 S
O1 Cd2 2.228 . S
Cd2 O1 2.228 . S
Cd2 O6 2.273 . S
Cd2 O10 2.277 . S
O3 C0 1.159 1_455 S
O3 Cd4 2.203 . S
Cd4 O3 2.203 . S
Cd4 O6 2.411 . S
Cd4 O7 2.333 . S
Cd4 O8 2.352 . S
Cd4 O12 2.277 . S
Cd4 O13 2.356 . S
C5 O10 1.209 . S
C5 O12 1.226 . S
O6 Cd2 2.273 . S
O6 Cd4 2.411 . S
O6 C9 1.320 . S
O7 Cd4 2.333 . S
O7 C9 1.214 . S
O8 Cd4 2.352 . S
O8 C11 1.258 . S
C9 O6 1.320 . S
C9 O7 1.214 . S
O10 Cd2 2.277 . S
O10 C5 1.209 . S
C11 O8 1.258 . S
C11 O13 1.282 . S
O12 Cd4 2.277 . S
O12 C5 1.226 . S
O13 Cd4 2.356 . S
O13 C11 1.282 . S
C14 O15 1.306 . S
C14 O17 1.160 . S
O15 C14 1.306 . S
O15 Cd16 2.228 1_655 S
Cd16 O15 2.228 1_455 S
Cd16 O20 2.273 . S
Cd16 O24 2.277 . S
O17 C14 1.160 . S
O17 Cd18 2.203 1_655 S
Cd18 O17 2.203 1_455 S
Cd18 O20 2.411 . S
Cd18 O21 2.333 . S
Cd18 O22 2.352 . S
Cd18 O26 2.277 . S
Cd18 O27 2.356 . S
C19 O24 1.209 . S
C19 O26 1.226 . S
O20 Cd16 2.273 . S
O20 Cd18 2.411 . S
O20 C23 1.320 . S
O21 Cd18 2.333 . S
O21 C23 1.214 . S
O22 Cd18 2.352 . S
O22 C25 1.258 . S
C23 O20 1.320 . S
C23 O21 1.214 . S
O24 Cd16 2.277 . S
O24 C19 1.209 . S
C25 O22 1.258 . S
C25 O27 1.282 . S
O26 Cd18 2.277 . S
O26 C19 1.226 . S
O27 Cd18 2.356 . S
O27 C25 1.282 . S
C28 O29 1.306 . S
C28 O31 1.160 . S
O29 C28 1.306 . S
O29 Cd30 2.228 . S
Cd30 O29 2.228 . S
Cd30 O34 2.273 . S
Cd30 O38 2.277 . S
O31 C28 1.160 . S
O31 Cd32 2.203 . S
Cd32 O31 2.203 . S
Cd32 O34 2.411 . S
Cd32 O35 2.333 . S
Cd32 O36 2.352 . S
Cd32 O40 2.277 . S
Cd32 O41 2.356 . S
C33 O38 1.209 . S
C33 O40 1.226 . S
O34 Cd30 2.273 . S
O34 Cd32 2.411 . S
O34 C37 1.320 . S
O35 Cd32 2.333 . S
O35 C37 1.214 . S
O36 Cd32 2.352 . S
O36 C39 1.258 . S
C37 O34 1.320 . S
C37 O35 1.214 . S
O38 Cd30 2.277 . S
O38 C33 1.209 . S
C39 O36 1.258 . S
C39 O41 1.282 . S
O40 Cd32 2.277 . S
O40 C33 1.226 . S
O41 Cd32 2.356 . S
O41 C39 1.282 . S
C42 O43 1.306 . S
C42 O45 1.160 . S
O43 C42 1.306 . S
O43 Cd44 2.228 . S
Cd44 O43 2.228 . S
Cd44 O48 2.273 . S
Cd44 O52 2.277 . S
O45 C42 1.160 . S
O45 Cd46 2.203 . S
Cd46 O45 2.203 . S
Cd46 O48 2.411 . S
Cd46 O49 2.333 . S
Cd46 O50 2.352 . S
Cd46 O54 2.277 . S
Cd46 O55 2.356 . S
C47 O52 1.209 . S
C47 O54 1.226 . S
O48 Cd44 2.273 . S
O48 Cd46 2.411 . S
O48 C51 1.320 . S
O49 Cd46 2.333 . S
O49 C51 1.214 . S
O50 Cd46 2.352 . S
O50 C53 1.258 . S
C51 O48 1.320 . S
C51 O49 1.214 . S
O52 Cd44 2.277 . S
O52 C47 1.209 . S
C53 O50 1.258 . S
C53 O55 1.282 . S
O54 Cd46 2.277 . S
O54 C47 1.226 . S
O55 Cd46 2.356 . S
O55 C53 1.282 . S
C56 O57 1.306 . S
C56 O59 1.160 . S
O57 C56 1.306 . S
O57 Cd58 2.228 . S
Cd58 O57 2.228 . S
Cd58 O62 2.273 . S
Cd58 O66 2.277 . S
O59 C56 1.160 . S
O59 Cd60 2.203 . S
Cd60 O59 2.203 . S
Cd60 O62 2.411 . S
Cd60 O63 2.333 . S
Cd60 O64 2.352 . S
Cd60 O68 2.277 . S
Cd60 O69 2.356 . S
C61 O66 1.209 . S
C61 O68 1.226 . S
O62 Cd58 2.273 . S
O62 Cd60 2.411 . S
O62 C65 1.320 . S
O63 Cd60 2.333 . S
O63 C65 1.214 . S
O64 Cd60 2.352 . S
O64 C67 1.258 . S
C65 O62 1.320 . S
C65 O63 1.214 . S
O66 Cd58 2.277 . S
O66 C61 1.209 . S
C67 O64 1.258 . S
C67 O69 1.282 . S
O68 Cd60 2.277 . S
O68 C61 1.226 . S
O69 Cd60 2.356 . S
O69 C67 1.282 . S
C70 O71 1.306 . S
C70 O73 1.160 . S
O71 C70 1.306 . S
O71 Cd72 2.228 . S
Cd72 O71 2.228 . S
Cd72 O76 2.273 . S
Cd72 O80 2.277 . S
O73 C70 1.160 . S
O73 Cd74 2.203 . S
Cd74 O73 2.203 . S
Cd74 O76 2.411 . S
Cd74 O77 2.333 . S
Cd74 O78 2.352 . S
Cd74 O82 2.277 . S
Cd74 O83 2.356 . S
C75 O80 1.209 . S
C75 O82 1.226 . S
O76 Cd72 2.273 . S
O76 Cd74 2.411 . S
O76 C79 1.320 . S
O77 Cd74 2.333 . S
O77 C79 1.214 . S
O78 Cd74 2.352 . S
O78 C81 1.258 . S
C79 O76 1.320 . S
C79 O77 1.214 . S
O80 Cd72 2.277 . S
O80 C75 1.209 . S
C81 O78 1.258 . S
C81 O83 1.282 . S
O82 Cd74 2.277 . S
O82 C75 1.226 . S
O83 Cd74 2.356 . S
O83 C81 1.282 . S
C84 O85 1.306 . S
C84 O87 1.160 . S
O85 C84 1.306 . S
O85 Cd86 2.228 . S
Cd86 O85 2.228 . S
Cd86 O90 2.273 . S
Cd86 O94 2.277 . S
O87 C84 1.160 . S
O87 Cd88 2.203 . S
Cd88 O87 2.203 . S
Cd88 O90 2.411 . S
Cd88 O91 2.333 . S
Cd88 O92 2.352 . S
Cd88 O96 2.277 . S
Cd88 O97 2.356 . S
C89 O94 1.209 . S
C89 O96 1.226 . S
O90 Cd86 2.273 . S
O90 Cd88 2.411 . S
O90 C93 1.320 . S
O91 Cd88 2.333 . S
O91 C93 1.214 . S
O92 Cd88 2.352 . S
O92 C95 1.258 . S
C93 O90 1.320 . S
C93 O91 1.214 . S
O94 Cd86 2.277 . S
O94 C89 1.209 . S
C95 O92 1.258 . S
C95 O97 1.282 . S
O96 Cd88 2.277 . S
O96 C89 1.226 . S
O97 Cd88 2.356 . S
O97 C95 1.282 . S
C98 O99 1.306 . S
C98 O101 1.160 . S
O99 C98 1.306 . S
O99 Cd100 2.228 1_655 S
Cd100 O99 2.228 1_455 S
Cd100 O104 2.273 . S
Cd100 O108 2.277 . S
O101 C98 1.160 . S
O101 Cd102 2.203 1_655 S
Cd102 O101 2.203 1_455 S
Cd102 O104 2.411 . S
Cd102 O105 2.333 . S
Cd102 O106 2.352 1_455 S
Cd102 O110 2.277 . S
Cd102 O111 2.356 . S
C103 O108 1.209 . S
C103 O110 1.226 . S
O104 Cd100 2.273 . S
O104 Cd102 2.411 . S
O104 C107 1.320 . S
O105 Cd102 2.333 . S
O105 C107 1.214 . S
O106 Cd102 2.352 1_655 S
O106 C109 1.261 . S
C107 O104 1.320 . S
C107 O105 1.214 . S
O108 Cd100 2.277 . S
O108 C103 1.209 . S
C109 O106 1.261 . S
C109 O111 1.281 1_655 S
O110 Cd102 2.277 . S
O110 C103 1.226 . S
O111 Cd102 2.356 . S
O111 C109 1.281 1_455 S
C112 O113 1.319 . S
C112 O115 1.160 . S
O113 C112 1.319 . S
O113 Cd114 2.213 1_545 S
Cd114 O113 2.213 1_565 S
Cd114 O118 2.273 1_565 S
Cd114 O122 2.277 . S
O115 C112 1.160 . S
O115 Cd116 2.203 . S
Cd116 O115 2.203 . S
Cd116 O118 2.411 . S
Cd116 O119 2.333 . S
Cd116 O120 2.352 . S
Cd116 O124 2.277 1_545 S
Cd116 O125 2.356 . S
C117 O122 1.209 . S
C117 O124 1.226 . S
O118 Cd114 2.273 1_545 S
O118 Cd116 2.411 . S
O118 C121 1.320 . S
O119 Cd116 2.333 . S
O119 C121 1.214 . S
O120 Cd116 2.352 . S
O120 C123 1.258 . S
C121 O118 1.320 . S
C121 O119 1.214 . S
O122 Cd114 2.277 . S
O122 C117 1.209 . S
C123 O120 1.258 . S
C123 O125 1.282 . S
O124 Cd116 2.277 1_565 S
O124 C117 1.226 . S
O125 Cd116 2.356 . S
O125 C123 1.282 . S
C126 O127 1.306 . S
C126 O129 1.160 . S
O127 C126 1.306 . S
O127 Cd128 2.228 . S
Cd128 O127 2.228 . S
Cd128 O132 2.273 . S
Cd128 O136 2.277 . S
O129 C126 1.160 . S
O129 Cd130 2.203 . S
Cd130 O129 2.203 . S
Cd130 O132 2.411 . S
Cd130 O133 2.333 . S
Cd130 O134 2.352 . S
Cd130 O138 2.277 . S
Cd130 O139 2.356 . S
C131 O136 1.209 . S
C131 O138 1.226 . S
O132 Cd128 2.273 . S
O132 Cd130 2.411 . S
O132 C135 1.320 . S
O133 Cd130 2.333 . S
O133 C135 1.214 . S
O134 Cd130 2.352 . S
O134 C137 1.258 . S
C135 O132 1.320 . S
C135 O133 1.214 . S
O136 Cd128 2.277 . S
O136 C131 1.209 . S
C137 O134 1.258 . S
C137 O139 1.282 . S
O138 Cd130 2.277 . S
O138 C131 1.226 . S
O139 Cd130 2.356 . S
O139 C137 1.282 . S
C140 O141 1.306 . S
C140 O143 1.160 . S
O141 C140 1.306 . S
O141 Cd142 2.228 . S
Cd142 O141 2.228 . S
Cd142 O146 2.273 . S
Cd142 O150 2.277 . S
O143 C140 1.160 . S
O143 Cd144 2.203 . S
Cd144 O143 2.203 . S
Cd144 O146 2.411 . S
Cd144 O147 2.333 . S
Cd144 O148 2.352 . S
Cd144 O152 2.277 . S
Cd144 O153 2.356 . S
C145 O150 1.209 . S
C145 O152 1.226 . S
O146 Cd142 2.273 . S
O146 Cd144 2.411 . S
O146 C149 1.320 . S
O147 Cd144 2.333 . S
O147 C149 1.214 . S
O148 Cd144 2.352 . S
O148 C151 1.258 . S
C149 O146 1.320 . S
C149 O147 1.214 . S
O150 Cd142 2.277 . S
O150 C145 1.209 . S
C151 O148 1.258 . S
C151 O153 1.282 . S
O152 Cd144 2.277 . S
O152 C145 1.226 . S
O153 Cd144 2.356 . S
O153 C151 1.282 . S
C154 O155 1.286 1_554 S
C154 O157 1.178 . S
O155 C154 1.286 1_556 S
O155 Cd156 2.228 . S
Cd156 O155 2.228 . S
Cd156 O160 2.278 . S
Cd156 O164 2.277 . S
O157 C154 1.178 . S
O157 Cd158 2.203 . S
Cd158 O157 2.203 . S
Cd158 O160 2.410 1_554 S
Cd158 O161 2.331 . S
Cd158 O162 2.352 . S
Cd158 O166 2.277 1_554 S
Cd158 O167 2.356 . S
C159 O164 1.209 . S
C159 O166 1.226 . S
O160 Cd156 2.278 . S
O160 Cd158 2.410 1_556 S
O160 C163 1.323 . S
O161 Cd158 2.331 . S
O161 C163 1.203 1_554 S
O162 Cd158 2.352 . S
O162 C165 1.258 . S
C163 O160 1.323 . S
C163 O161 1.203 1_556 S
O164 Cd156 2.277 . S
O164 C159 1.209 . S
C165 O162 1.258 . S
C165 O167 1.282 . S
O166 Cd158 2.277 1_556 S
O166 C159 1.226 . S
O167 Cd158 2.356 . S
O167 C165 1.282 . S
C168 O169 1.306 . S
C168 O171 1.160 . S
O169 C168 1.306 . S
O169 Cd170 2.228 . S
Cd170 O169 2.228 . S
Cd170 O174 2.273 . S
Cd170 O178 2.280 . S
O171 C168 1.160 . S
O171 Cd172 2.203 . S
Cd172 O171 2.203 . S
Cd172 O174 2.411 . S
Cd172 O175 2.333 . S
Cd172 O176 2.352 . S
Cd172 O180 2.277 . S
Cd172 O181 2.356 . S
C173 O178 1.209 1_556 S
C173 O180 1.226 1_556 S
O174 Cd170 2.273 . S
O174 Cd172 2.411 . S
O174 C177 1.320 . S
O175 Cd172 2.333 . S
O175 C177 1.214 . S
O176 Cd172 2.352 . S
O176 C179 1.258 . S
C177 O174 1.320 . S
C177 O175 1.214 . S
O178 Cd170 2.280 . S
O178 C173 1.209 1_554 S
C179 O176 1.258 . S
C179 O181 1.282 . S
O180 Cd172 2.277 . S
O180 C173 1.226 1_554 S
O181 Cd172 2.356 . S
O181 C179 1.282 . S
C182 O183 1.306 . S
C182 O185 1.160 . S
O183 C182 1.306 . S
O183 Cd184 2.228 . S
Cd184 O183 2.228 . S
Cd184 O188 2.273 . S
Cd184 O192 2.277 . S
O185 C182 1.160 . S
O185 Cd186 2.203 . S
Cd186 O185 2.203 . S
Cd186 O188 2.411 . S
Cd186 O189 2.333 . S
Cd186 O190 2.352 . S
Cd186 O194 2.277 . S
Cd186 O195 2.356 . S
C187 O192 1.209 . S
C187 O194 1.226 . S
O188 Cd184 2.273 . S
O188 Cd186 2.411 . S
O188 C191 1.320 . S
O189 Cd186 2.333 . S
O189 C191 1.214 . S
O190 Cd186 2.352 . S
O190 C193 1.258 . S
C191 O188 1.320 . S
C191 O189 1.214 . S
O192 Cd184 2.277 . S
O192 C187 1.209 . S
C193 O190 1.258 . S
C193 O195 1.282 . S
O194 Cd186 2.277 . S
O194 C187 1.226 . S
O195 Cd186 2.356 . S
O195 C193 1.282 . S
C196 O197 1.306 . S
C196 O199 1.160 . S
O197 C196 1.306 . S
O197 Cd198 2.228 . S
Cd198 O197 2.228 . S
Cd198 O202 2.273 . S
Cd198 O206 2.277 . S
O199 C196 1.160 . S
O199 Cd200 2.203 . S
Cd200 O199 2.203 . S
Cd200 O202 2.411 . S
Cd200 O203 2.333 . S
Cd200 O204 2.352 . S
Cd200 O208 2.277 . S
Cd200 O209 2.356 . S
C201 O206 1.209 . S
C201 O208 1.226 . S
O202 Cd198 2.273 . S
O202 Cd200 2.411 . S
O202 C205 1.320 . S
O203 Cd200 2.333 . S
O203 C205 1.214 . S
O204 Cd200 2.352 . S
O204 C207 1.258 . S
C205 O202 1.320 . S
C205 O203 1.214 . S
O206 Cd198 2.277 . S
O206 C201 1.209 . S
C207 O204 1.258 . S
C207 O209 1.282 . S
O208 Cd200 2.277 . S
O208 C201 1.226 . S
O209 Cd200 2.356 . S
O209 C207 1.282 . S
C210 O211 1.306 . S
C210 O213 1.160 . S
O211 C210 1.306 . S
O211 Cd212 2.228 . S
Cd212 O211 2.228 . S
Cd212 O216 2.273 . S
Cd212 O220 2.277 . S
O213 C210 1.160 . S
O213 Cd214 2.203 . S
Cd214 O213 2.203 . S
Cd214 O216 2.411 . S
Cd214 O217 2.333 . S
Cd214 O218 2.352 . S
Cd214 O222 2.277 . S
Cd214 O223 2.356 . S
C215 O220 1.209 . S
C215 O222 1.226 . S
O216 Cd212 2.273 . S
O216 Cd214 2.411 . S
O216 C219 1.320 . S
O217 Cd214 2.333 . S
O217 C219 1.214 . S
O218 Cd214 2.352 . S
O218 C221 1.258 . S
C219 O216 1.320 . S
C219 O217 1.214 . S
O220 Cd212 2.277 . S
O220 C215 1.209 . S
C221 O218 1.258 . S
C221 O223 1.282 . S
O222 Cd214 2.277 . S
O222 C215 1.226 . S
O223 Cd214 2.356 . S
O223 C221 1.282 . S
C224 O225 1.306 . S
C224 O227 1.160 . S
O225 C224 1.306 . S
O225 Cd226 2.228 1_545 S
Cd226 O225 2.228 1_565 S
Cd226 O230 2.273 1_565 S
Cd226 O234 2.277 . S
O227 C224 1.160 . S
O227 Cd228 2.203 . S
Cd228 O227 2.203 . S
Cd228 O230 2.411 . S
Cd228 O231 2.333 . S
Cd228 O232 2.352 . S
Cd228 O236 2.277 1_545 S
Cd228 O237 2.356 . S
C229 O234 1.209 . S
C229 O236 1.226 . S
O230 Cd226 2.273 1_545 S
O230 Cd228 2.411 . S
O230 C233 1.320 . S
O231 Cd228 2.333 . S
O231 C233 1.214 . S
O232 Cd228 2.352 . S
O232 C235 1.258 . S
C233 O230 1.320 . S
C233 O231 1.214 . S
O234 Cd226 2.277 . S
O234 C229 1.209 . S
C235 O232 1.258 . S
C235 O237 1.282 . S
O236 Cd228 2.277 1_565 S
O236 C229 1.226 . S
O237 Cd228 2.356 . S
O237 C235 1.282 . S
C238 O239 1.306 . S
C238 O241 1.160 . S
O239 C238 1.306 . S
O239 Cd240 2.228 . S
Cd240 O239 2.228 . S
Cd240 O244 2.273 . S
Cd240 O248 2.277 . S
O241 C238 1.160 . S
O241 Cd242 2.203 . S
Cd242 O241 2.203 . S
Cd242 O244 2.411 . S
Cd242 O245 2.333 . S
Cd242 O246 2.352 . S
Cd242 O250 2.277 . S
Cd242 O251 2.356 . S
C243 O248 1.209 . S
C243 O250 1.226 . S
O244 Cd240 2.273 . S
O244 Cd242 2.411 . S
O244 C247 1.320 . S
O245 Cd242 2.333 . S
O245 C247 1.214 . S
O246 Cd242 2.352 . S
O246 C249 1.258 . S
C247 O244 1.320 . S
C247 O245 1.214 . S
O248 Cd240 2.277 . S
O248 C243 1.209 . S
C249 O246 1.258 . S
C249 O251 1.282 . S
O250 Cd242 2.277 . S
O250 C243 1.226 . S
O251 Cd242 2.356 . S
O251 C249 1.282 . S
C252 O253 1.306 . S
C252 O255 1.160 . S
O253 C252 1.306 . S
O253 Cd254 2.228 . S
Cd254 O253 2.228 . S
Cd254 O258 2.273 . S
Cd254 O262 2.277 . S
O255 C252 1.160 . S
O255 Cd256 2.203 . S
Cd256 O255 2.203 . S
Cd256 O258 2.411 . S
Cd256 O259 2.333 . S
Cd256 O260 2.352 . S
Cd256 O264 2.277 . S
Cd256 O265 2.356 . S
C257 O262 1.209 . S
C257 O264 1.226 . S
O258 Cd254 2.273 . S
O258 Cd256 2.411 . S
O258 C261 1.320 . S
O259 Cd256 2.333 . S
O259 C261 1.214 . S
O260 Cd256 2.352 . S
O260 C263 1.258 . S
C261 O258 1.320 . S
C261 O259 1.214 . S
O262 Cd254 2.277 . S
O262 C257 1.209 . S
C263 O260 1.258 . S
C263 O265 1.282 . S
O264 Cd256 2.277 . S
O264 C257 1.226 . S
O265 Cd256 2.356 . S
O265 C263 1.282 . S
C266 O267 1.306 . S
C266 O269 1.160 . S
O267 C266 1.306 . S
O267 Cd268 2.228 . S
Cd268 O267 2.228 . S
Cd268 O272 2.273 . S
Cd268 O276 2.277 . S
O269 C266 1.160 . S
O269 Cd270 2.203 . S
Cd270 O269 2.203 . S
Cd270 O272 2.411 . S
Cd270 O273 2.333 . S
Cd270 O274 2.352 . S
Cd270 O278 2.277 . S
Cd270 O279 2.356 . S
C271 O276 1.209 . S
C271 O278 1.226 . S
O272 Cd268 2.273 . S
O272 Cd270 2.411 . S
O272 C275 1.320 . S
O273 Cd270 2.333 . S
O273 C275 1.214 . S
O274 Cd270 2.352 . S
O274 C277 1.258 . S
C275 O272 1.320 . S
C275 O273 1.214 . S
O276 Cd268 2.277 . S
O276 C271 1.209 . S
C277 O274 1.258 . S
C277 O279 1.282 . S
O278 Cd270 2.277 . S
O278 C271 1.226 . S
O279 Cd270 2.356 . S
O279 C277 1.282 . S
C280 O281 1.306 . S
C280 O283 1.160 . S
O281 C280 1.306 . S
O281 Cd282 2.228 . S
Cd282 O281 2.228 . S
Cd282 O286 2.273 . S
Cd282 O290 2.277 . S
O283 C280 1.160 . S
O283 Cd284 2.203 . S
Cd284 O283 2.203 . S
Cd284 O286 2.411 . S
Cd284 O287 2.333 . S
Cd284 O288 2.352 1_554 S
Cd284 O292 2.277 . S
Cd284 O293 2.356 1_554 S
C285 O290 1.209 . S
C285 O292 1.226 . S
O286 Cd282 2.273 . S
O286 Cd284 2.411 . S
O286 C289 1.320 . S
O287 Cd284 2.333 . S
O287 C289 1.214 . S
O288 Cd284 2.352 1_556 S
O288 C291 1.258 . S
C289 O286 1.320 . S
C289 O287 1.214 . S
O290 Cd282 2.277 . S
O290 C285 1.209 . S
C291 O288 1.258 . S
C291 O293 1.282 . S
O292 Cd284 2.277 . S
O292 C285 1.226 . S
O293 Cd284 2.356 1_556 S
O293 C291 1.282 . S
C294 O295 1.306 . S
C294 O297 1.160 . S
O295 C294 1.306 . S
O295 Cd296 2.228 . S
Cd296 O295 2.228 . S
Cd296 O300 2.273 . S
Cd296 O304 2.277 . S
O297 C294 1.160 . S
O297 Cd298 2.203 . S
Cd298 O297 2.203 . S
Cd298 O300 2.411 . S
Cd298 O301 2.333 . S
Cd298 O302 2.352 . S
Cd298 O306 2.277 . S
Cd298 O307 2.356 . S
C299 O304 1.209 . S
C299 O306 1.226 . S
O300 Cd296 2.273 . S
O300 Cd298 2.411 . S
O300 C303 1.320 . S
O301 Cd298 2.333 . S
O301 C303 1.214 . S
O302 Cd298 2.352 . S
O302 C305 1.258 . S
C303 O300 1.320 . S
C303 O301 1.214 . S
O304 Cd296 2.277 . S
O304 C299 1.209 . S
C305 O302 1.258 . S
C305 O307 1.282 . S
O306 Cd298 2.277 . S
O306 C299 1.226 . S
O307 Cd298 2.356 . S
O307 C305 1.282 . S
C308 O309 1.306 . S
C308 O311 1.160 . S
O309 C308 1.306 . S
O309 Cd310 2.228 . S
Cd310 O309 2.228 . S
Cd310 O314 2.273 . S
Cd310 O318 2.277 . S
O311 C308 1.160 . S
O311 Cd312 2.203 . S
Cd312 O311 2.203 . S
Cd312 O314 2.411 . S
Cd312 O315 2.333 . S
Cd312 O316 2.352 . S
Cd312 O320 2.277 . S
Cd312 O321 2.356 . S
C313 O318 1.209 . S
C313 O320 1.226 . S
O314 Cd310 2.273 . S
O314 Cd312 2.411 . S
O314 C317 1.320 . S
O315 Cd312 2.333 . S
O315 C317 1.214 . S
O316 Cd312 2.352 . S
O316 C319 1.258 . S
C317 O314 1.320 . S
C317 O315 1.214 . S
O318 Cd310 2.277 . S
O318 C313 1.209 . S
C319 O316 1.258 . S
C319 O321 1.282 . S
O320 Cd312 2.277 . S
O320 C313 1.226 . S
O321 Cd312 2.356 . S
O321 C319 1.282 . S
C322 O323 1.306 . S
C322 O325 1.160 . S
O323 C322 1.306 . S
O323 Cd324 2.228 . S
Cd324 O323 2.228 . S
Cd324 O328 2.273 . S
Cd324 O332 2.277 . S
O325 C322 1.160 . S
O325 Cd326 2.203 . S
Cd326 O325 2.203 . S
Cd326 O328 2.411 . S
Cd326 O329 2.333 . S
Cd326 O330 2.352 . S
Cd326 O334 2.277 . S
Cd326 O335 2.356 . S
C327 O332 1.209 . S
C327 O334 1.226 . S
O328 Cd324 2.273 . S
O328 Cd326 2.411 . S
O328 C331 1.320 . S
O329 Cd326 2.333 . S
O329 C331 1.214 . S
O330 Cd326 2.352 . S
O330 C333 1.258 . S
C331 O328 1.320 . S
C331 O329 1.214 . S
O332 Cd324 2.277 . S
O332 C327 1.209 . S
C333 O330 1.258 . S
C333 O335 1.282 . S
O334 Cd326 2.277 . S
O334 C327 1.226 . S
O335 Cd326 2.356 . S
O335 C333 1.282 . S
Tb336 N365 2.617 . S
Tb336 N371 2.572 . S
Tb336 O380 2.465 . S
Tb336 O381 2.387 . S
Tb336 O383 2.428 . S
Tb336 O384 2.308 . S
Tb336 O388 2.349 . S
Tb336 O391 2.393 . S
Tb336 C400 2.802 . S
C337 N338 1.379 . S
C337 C340 1.416 . S
C337 C344 1.424 1_556 S
N338 C337 1.379 . S
N338 C341 1.334 . S
N338 Tb347 2.617 1_566 S
C339 C341 1.390 . S
C339 C342 1.339 . S
C339 H359 0.930 . S
C340 C337 1.416 . S
C340 C342 1.416 . S
C340 C346 1.448 . S
C341 N338 1.334 . S
C341 C339 1.390 . S
C341 H352 0.960 . S
C342 C339 1.339 . S
C342 C340 1.416 . S
C342 H363 0.930 . S
C343 C344 1.413 . S
C343 C345 1.427 1_554 S
C343 C349 1.416 . S
C344 C337 1.424 1_554 S
C344 C343 1.413 . S
C344 N348 1.361 . S
C345 C343 1.427 1_556 S
C345 C346 1.328 . S
C345 H360 0.929 . S
C346 C340 1.448 . S
C346 C345 1.328 . S
C346 H361 0.930 . S
Tb347 N338 2.617 1_544 S
Tb347 N348 2.572 1_545 S
Tb347 O382 2.349 1_655 S
Tb347 O385 2.393 1_654 S
Tb347 O386 2.465 . S
Tb347 O387 2.387 1_645 S
Tb347 O389 2.428 1_554 S
Tb347 O390 2.308 1_655 S
Tb347 C411 2.802 . S
N348 C344 1.361 . S
N348 Tb347 2.572 1_565 S
N348 C350 1.340 . S
C349 C343 1.416 . S
C349 C351 1.332 . S
C349 H357 0.931 . S
C350 N348 1.340 . S
C350 C351 1.407 . S
C350 H356 0.930 . S
C351 C349 1.332 . S
C351 C350 1.407 . S
C351 H353 0.929 . S
H352 C341 0.960 . S
H353 C351 0.929 . S
H354 C369 0.930 . S
H355 C376 0.929 1_556 S
H356 C350 0.930 . S
H357 C349 0.931 . S
H358 C372 0.930 . S
H359 C339 0.930 . S
H360 C345 0.929 . S
H361 C346 0.930 . S
H362 C367 0.930 . S
H363 C342 0.930 . S
H364 C375 0.931 . S
N365 Tb336 2.617 . S
N365 C366 1.379 . S
N365 C369 1.334 . S
C366 N365 1.379 . S
C366 C368 1.416 . S
C366 C374 1.424 . S
C367 H362 0.930 . S
C367 C369 1.390 . S
C367 C370 1.339 . S
C368 C366 1.416 . S
C368 C370 1.416 . S
C368 C401 1.448 . S
C369 H354 0.930 . S
C369 N365 1.334 . S
C369 C367 1.390 . S
C370 C367 1.339 . S
C370 C368 1.416 . S
C370 H377 0.930 . S
N371 Tb336 2.572 . S
N371 C372 1.340 . S
N371 C374 1.361 . S
C372 H358 0.930 . S
C372 N371 1.340 . S
C372 C376 1.407 . S
C373 C374 1.413 . S
C373 C375 1.416 . S
C373 C402 1.427 . S
C374 C366 1.424 . S
C374 N371 1.361 . S
C374 C373 1.413 . S
C375 H364 0.931 . S
C375 C373 1.416 . S
C375 C376 1.332 . S
C376 H355 0.929 1_554 S
C376 C372 1.407 . S
C376 C375 1.332 . S
H377 C370 0.930 . S
H378 C401 0.930 . S
H379 C402 0.929 . S
O380 Tb336 2.465 . S
O380 C400 1.264 . S
O381 Tb336 2.387 . S
O381 C392 1.264 . S
O382 Tb347 2.349 1_455 S
O382 C392 1.243 . S
O383 Tb336 2.428 . S
O383 C400 1.256 . S
O384 Tb336 2.308 . S
O384 C399 1.266 1_554 S
O385 Tb347 2.393 1_456 S
O385 C399 1.248 . S
O386 Tb347 2.465 . S
O386 C411 1.264 . S
O387 Tb347 2.387 1_465 S
O387 C403 1.264 . S
O388 Tb336 2.349 . S
O388 C403 1.243 1_545 S
O389 Tb347 2.428 1_556 S
O389 C411 1.256 1_556 S
O390 Tb347 2.308 1_455 S
O390 C410 1.266 . S
O391 Tb336 2.393 . S
O391 C410 1.248 . S
C392 O381 1.264 . S
C392 O382 1.243 . S
C393 C396 1.399 . S
C393 C398 1.383 . S
C393 C400 1.496 . S
C394 C395 1.399 . S
C394 C398 1.389 . S
C395 C394 1.399 . S
C395 C397 1.380 . S
C395 H412 0.929 . S
C396 C393 1.399 . S
C396 C397 1.392 . S
C396 H413 0.929 . S
C397 C395 1.380 . S
C397 C396 1.392 . S
C397 H414 0.929 . S
C398 C393 1.383 . S
C398 C394 1.389 . S
C398 H415 0.931 . S
C399 O384 1.266 1_556 S
C399 O385 1.248 . S
C400 Tb336 2.802 . S
C400 O380 1.264 . S
C400 O383 1.256 . S
C400 C393 1.496 . S
C401 C368 1.448 . S
C401 H378 0.930 . S
C401 C402 1.328 . S
C402 C373 1.427 . S
C402 H379 0.929 . S
C402 C401 1.328 . S
C403 O387 1.264 . S
C403 O388 1.243 1_565 S
C404 C407 1.399 1_554 S
C404 C408 1.383 . S
C404 C411 1.496 . S
C405 C406 1.399 1_554 S
C405 C408 1.389 . S
C406 C405 1.399 1_556 S
C406 C409 1.380 . S
C406 H416 0.929 . S
C407 C404 1.399 1_556 S
C407 C409 1.392 . S
C407 H417 0.929 . S
C408 C404 1.383 . S
C408 C405 1.389 . S
C408 H418 0.931 . S
C409 C406 1.380 . S
C409 C407 1.392 . S
C409 H419 0.929 . S
C410 O390 1.266 . S
C410 O391 1.248 . S
C411 Tb347 2.802 . S
C411 O386 1.264 . S
C411 O389 1.256 1_554 S
C411 C404 1.496 . S
H412 C395 0.929 . S
H413 C396 0.929 . S
H414 C397 0.929 . S
H415 C398 0.931 . S
H416 C406 0.929 . S
H417 C407 0.929 . S
H418 C408 0.931 . S
H419 C409 0.929 . S
Tb420 N449 2.617 . S
Tb420 N455 2.572 . S
Tb420 O464 2.465 . S
Tb420 O465 2.387 . S
Tb420 O467 2.428 . S
Tb420 O468 2.308 . S
Tb420 O472 2.349 . S
Tb420 O475 2.393 . S
Tb420 C484 2.802 . S
C421 N422 1.379 . S
C421 C424 1.416 . S
C421 C428 1.424 . S
N422 C421 1.379 . S
N422 C425 1.334 . S
N422 Tb431 2.617 . S
C423 C425 1.390 . S
C423 C426 1.339 . S
C423 H443 0.930 . S
C424 C421 1.416 . S
C424 C426 1.416 . S
C424 C430 1.448 . S
C425 N422 1.334 . S
C425 C423 1.390 . S
C425 H436 0.930 . S
C426 C423 1.339 . S
C426 C424 1.416 . S
C426 H447 0.930 . S
C427 C428 1.413 . S
C427 C429 1.427 . S
C427 C433 1.416 . S
C428 C421 1.424 . S
C428 C427 1.413 . S
C428 N432 1.361 . S
C429 C427 1.427 . S
C429 C430 1.328 . S
C429 H444 0.929 . S
C430 C424 1.448 . S
C430 C429 1.328 . S
C430 H445 0.930 . S
Tb431 N422 2.617 . S
Tb431 N432 2.572 . S
Tb431 O466 2.349 . S
Tb431 O469 2.393 . S
Tb431 O470 2.465 . S
Tb431 O471 2.387 . S
Tb431 O473 2.428 . S
Tb431 O474 2.308 . S
Tb431 C495 2.802 . S
N432 C428 1.361 . S
N432 Tb431 2.572 . S
N432 C434 1.340 . S
C433 C427 1.416 . S
C433 C435 1.332 . S
C433 H441 0.931 . S
C434 N432 1.340 . S
C434 C435 1.407 . S
C434 H440 0.930 . S
C435 C433 1.332 . S
C435 C434 1.407 . S
C435 H437 0.929 . S
H436 C425 0.930 . S
H437 C435 0.929 . S
H438 C453 0.930 . S
H439 C460 0.929 . S
H440 C434 0.930 . S
H441 C433 0.931 . S
H442 C456 0.930 . S
H443 C423 0.930 . S
H444 C429 0.929 . S
H445 C430 0.930 . S
H446 C451 0.930 . S
H447 C426 0.930 . S
H448 C459 0.931 . S
N449 Tb420 2.617 . S
N449 C450 1.379 . S
N449 C453 1.334 . S
C450 N449 1.379 . S
C450 C452 1.416 . S
C450 C458 1.424 . S
C451 H446 0.930 . S
C451 C453 1.390 . S
C451 C454 1.339 . S
C452 C450 1.416 . S
C452 C454 1.416 . S
C452 C485 1.448 . S
C453 H438 0.930 . S
C453 N449 1.334 . S
C453 C451 1.390 . S
C454 C451 1.339 . S
C454 C452 1.416 . S
C454 H461 0.930 . S
N455 Tb420 2.572 . S
N455 C456 1.340 . S
N455 C458 1.361 . S
C456 H442 0.930 . S
C456 N455 1.340 . S
C456 C460 1.407 . S
C457 C458 1.413 . S
C457 C459 1.416 . S
C457 C486 1.427 . S
C458 C450 1.424 . S
C458 N455 1.361 . S
C458 C457 1.413 . S
C459 H448 0.931 . S
C459 C457 1.416 . S
C459 C460 1.332 . S
C460 H439 0.929 . S
C460 C456 1.407 . S
C460 C459 1.332 . S
H461 C454 0.930 . S
H462 C485 0.930 . S
H463 C486 0.929 . S
O464 Tb420 2.465 . S
O464 C484 1.264 . S
O465 Tb420 2.387 . S
O465 C476 1.264 . S
O466 Tb431 2.349 . S
O466 C476 1.243 . S
O467 Tb420 2.428 . S
O467 C484 1.256 . S
O468 Tb420 2.308 . S
O468 C483 1.266 . S
O469 Tb431 2.393 . S
O469 C483 1.248 . S
O470 Tb431 2.465 . S
O470 C495 1.264 . S
O471 Tb431 2.387 . S
O471 C487 1.264 . S
O472 Tb420 2.349 . S
O472 C487 1.243 . S
O473 Tb431 2.428 . S
O473 C495 1.256 . S
O474 Tb431 2.308 . S
O474 C494 1.266 . S
O475 Tb420 2.393 . S
O475 C494 1.248 . S
C476 O465 1.264 . S
C476 O466 1.243 . S
C477 C480 1.399 . S
C477 C482 1.383 . S
C477 C484 1.496 . S
C478 C479 1.399 . S
C478 C482 1.389 . S
C479 C478 1.399 . S
C479 C481 1.380 . S
C479 H496 0.929 . S
C480 C477 1.399 . S
C480 C481 1.392 . S
C480 H497 0.929 . S
C481 C479 1.380 . S
C481 C480 1.392 . S
C481 H498 0.929 . S
C482 C477 1.383 . S
C482 C478 1.389 . S
C482 H499 0.931 . S
C483 O468 1.266 . S
C483 O469 1.248 . S
C484 Tb420 2.802 . S
C484 O464 1.264 . S
C484 O467 1.256 . S
C484 C477 1.496 . S
C485 C452 1.448 . S
C485 H462 0.930 . S
C485 C486 1.328 . S
C486 C457 1.427 . S
C486 H463 0.929 . S
C486 C485 1.328 . S
C487 O471 1.264 . S
C487 O472 1.243 . S
C488 C491 1.399 . S
C488 C492 1.383 . S
C488 C495 1.496 . S
C489 C490 1.399 . S
C489 C492 1.389 . S
C490 C489 1.399 . S
C490 C493 1.380 . S
C490 H500 0.929 . S
C491 C488 1.399 . S
C491 C493 1.392 . S
C491 H501 0.929 . S
C492 C488 1.383 . S
C492 C489 1.389 . S
C492 H502 0.931 . S
C493 C490 1.380 . S
C493 C491 1.392 . S
C493 H503 0.929 . S
C494 O474 1.266 . S
C494 O475 1.248 . S
C495 Tb431 2.802 . S
C495 O470 1.264 . S
C495 O473 1.256 . S
C495 C488 1.496 . S
H496 C479 0.929 . S
H497 C480 0.929 . S
H498 C481 0.929 . S
H499 C482 0.931 . S
H500 C490 0.929 . S
H501 C491 0.929 . S
H502 C492 0.931 . S
H503 C493 0.929 . S
Tb504 N533 2.634 . S
Tb504 N539 2.572 1_545 S
Tb504 O548 2.465 . S
Tb504 O549 2.387 1_545 S
Tb504 O551 2.428 . S
Tb504 O552 2.308 . S
Tb504 O556 2.349 . S
Tb504 O559 2.393 . S
Tb504 C568 2.802 . S
C505 N506 1.379 . S
C505 C508 1.416 . S
C505 C512 1.424 . S
N506 C505 1.379 . S
N506 C509 1.334 . S
N506 Tb515 2.617 . S
C507 C509 1.390 . S
C507 C510 1.339 . S
C507 H527 0.930 . S
C508 C505 1.416 . S
C508 C510 1.416 . S
C508 C514 1.448 . S
C509 N506 1.334 . S
C509 C507 1.390 . S
C509 H520 0.930 . S
C510 C507 1.339 . S
C510 C508 1.416 . S
C510 H531 0.930 . S
C511 C512 1.413 . S
C511 C513 1.427 . S
C511 C517 1.416 . S
C512 C505 1.424 . S
C512 C511 1.413 . S
C512 N516 1.361 . S
C513 C511 1.427 . S
C513 C514 1.328 . S
C513 H528 0.929 . S
C514 C508 1.448 . S
C514 C513 1.328 . S
C514 H529 0.930 . S
Tb515 N506 2.617 . S
Tb515 N516 2.572 . S
Tb515 O550 2.349 1_545 S
Tb515 O553 2.393 . S
Tb515 O554 2.465 . S
Tb515 O555 2.387 . S
Tb515 O557 2.428 . S
Tb515 O558 2.308 . S
Tb515 C579 2.802 . S
N516 C512 1.361 . S
N516 Tb515 2.572 . S
N516 C518 1.340 . S
C517 C511 1.416 . S
C517 C519 1.332 . S
C517 H525 0.931 . S
C518 N516 1.340 . S
C518 C519 1.407 . S
C518 H524 0.930 . S
C519 C517 1.332 . S
C519 C518 1.407 . S
C519 H521 0.929 . S
H520 C509 0.930 . S
H521 C519 0.929 . S
H522 C537 0.930 . S
H523 C544 0.929 . S
H524 C518 0.930 . S
H525 C517 0.931 . S
H526 C540 0.930 . S
H527 C507 0.930 . S
H528 C513 0.929 . S
H529 C514 0.930 . S
H530 C535 0.930 . S
H531 C510 0.930 . S
H532 C543 0.931 . S
N533 Tb504 2.634 . S
N533 C534 1.361 1_545 S
N533 C537 1.334 . S
C534 N533 1.361 1_565 S
C534 C536 1.416 . S
C534 C542 1.424 . S
C535 H530 0.930 . S
C535 C537 1.390 1_565 S
C535 C538 1.339 . S
C536 C534 1.416 . S
C536 C538 1.416 . S
C536 C569 1.448 . S
C537 H522 0.930 . S
C537 N533 1.334 . S
C537 C535 1.390 1_545 S
C538 C535 1.339 . S
C538 C536 1.416 . S
C538 H545 0.930 . S
N539 Tb504 2.572 1_565 S
N539 C540 1.340 . S
N539 C542 1.361 . S
C540 H526 0.930 . S
C540 N539 1.340 . S
C540 C544 1.407 . S
C541 C542 1.413 . S
C541 C543 1.416 . S
C541 C570 1.427 . S
C542 C534 1.424 . S
C542 N539 1.361 . S
C542 C541 1.413 . S
C543 H532 0.931 . S
C543 C541 1.416 . S
C543 C544 1.332 . S
C544 H523 0.929 . S
C544 C540 1.407 . S
C544 C543 1.332 . S
H545 C538 0.930 . S
H546 C569 0.930 . S
H547 C570 0.929 . S
O548 Tb504 2.465 . S
O548 C568 1.264 . S
O549 Tb504 2.387 1_565 S
O549 C560 1.264 . S
O550 Tb515 2.349 1_565 S
O550 C560 1.243 . S
O551 Tb504 2.428 . S
O551 C568 1.256 . S
O552 Tb504 2.308 . S
O552 C567 1.266 . S
O553 Tb515 2.393 . S
O553 C567 1.248 . S
O554 Tb515 2.465 . S
O554 C579 1.264 . S
O555 Tb515 2.387 . S
O555 C571 1.264 . S
O556 Tb504 2.349 . S
O556 C571 1.243 . S
O557 Tb515 2.428 . S
O557 C579 1.256 . S
O558 Tb515 2.308 . S
O558 C578 1.266 . S
O559 Tb504 2.393 . S
O559 C578 1.248 . S
C560 O549 1.264 . S
C560 O550 1.243 . S
C561 C564 1.399 . S
C561 C566 1.383 . S
C561 C568 1.496 . S
C562 C563 1.399 . S
C562 C566 1.389 . S
C563 C562 1.399 . S
C563 C565 1.380 . S
C563 H580 0.929 . S
C564 C561 1.399 . S
C564 C565 1.392 . S
C564 H581 0.929 . S
C565 C563 1.380 . S
C565 C564 1.392 . S
C565 H582 0.929 . S
C566 C561 1.383 . S
C566 C562 1.389 . S
C566 H583 0.931 . S
C567 O552 1.266 . S
C567 O553 1.248 . S
C568 Tb504 2.802 . S
C568 O548 1.264 . S
C568 O551 1.256 . S
C568 C561 1.496 . S
C569 C536 1.448 . S
C569 H546 0.930 . S
C569 C570 1.328 . S
C570 C541 1.427 . S
C570 H547 0.929 . S
C570 C569 1.328 . S
C571 O555 1.264 . S
C571 O556 1.243 . S
C572 C575 1.399 . S
C572 C576 1.383 . S
C572 C579 1.496 1_565 S
C573 C574 1.399 . S
C573 C576 1.389 . S
C574 C573 1.399 . S
C574 C577 1.380 . S
C574 H584 0.929 . S
C575 C572 1.399 . S
C575 C577 1.392 . S
C575 H585 0.929 . S
C576 C572 1.383 . S
C576 C573 1.389 . S
C576 H586 0.931 . S
C577 C574 1.380 . S
C577 C575 1.392 . S
C577 H587 0.929 . S
C578 O558 1.266 . S
C578 O559 1.248 . S
C579 Tb515 2.802 . S
C579 O554 1.264 . S
C579 O557 1.256 . S
C579 C572 1.496 1_545 S
H580 C563 0.929 . S
H581 C564 0.929 . S
H582 C565 0.929 . S
H583 C566 0.931 . S
H584 C574 0.929 . S
H585 C575 0.929 . S
H586 C576 0.931 . S
H587 C577 0.929 . S
Tb588 N617 2.617 . S
Tb588 N623 2.572 . S
Tb588 O632 2.465 . S
Tb588 O633 2.387 . S
Tb588 O635 2.428 . S
Tb588 O636 2.308 . S
Tb588 O640 2.349 . S
Tb588 O643 2.393 . S
Tb588 C652 2.802 . S
C589 N590 1.379 . S
C589 C592 1.416 . S
C589 C596 1.424 . S
N590 C589 1.379 . S
N590 C593 1.334 . S
N590 Tb599 2.617 . S
C591 C593 1.390 . S
C591 C594 1.339 . S
C591 H611 0.930 . S
C592 C589 1.416 . S
C592 C594 1.416 . S
C592 C598 1.448 . S
C593 N590 1.334 . S
C593 C591 1.390 . S
C593 H604 0.930 . S
C594 C591 1.339 . S
C594 C592 1.416 . S
C594 H615 0.930 . S
C595 C596 1.413 . S
C595 C597 1.427 . S
C595 C601 1.416 . S
C596 C589 1.424 . S
C596 C595 1.413 . S
C596 N600 1.361 . S
C597 C595 1.427 . S
C597 C598 1.328 . S
C597 H612 0.929 . S
C598 C592 1.448 . S
C598 C597 1.328 . S
C598 H613 0.930 . S
Tb599 N590 2.617 . S
Tb599 N600 2.572 . S
Tb599 O634 2.349 . S
Tb599 O637 2.393 . S
Tb599 O638 2.465 . S
Tb599 O639 2.387 . S
Tb599 O641 2.428 . S
Tb599 O642 2.308 . S
Tb599 C663 2.802 . S
N600 C596 1.361 . S
N600 Tb599 2.572 . S
N600 C602 1.340 . S
C601 C595 1.416 . S
C601 C603 1.332 . S
C601 H609 0.931 . S
C602 N600 1.340 . S
C602 C603 1.407 . S
C602 H608 0.930 . S
C603 C601 1.332 . S
C603 C602 1.407 . S
C603 H605 0.929 . S
H604 C593 0.930 . S
H605 C603 0.929 . S
H606 C621 0.930 . S
H607 C628 0.929 . S
H608 C602 0.930 . S
H609 C601 0.931 . S
H610 C624 0.930 . S
H611 C591 0.930 . S
H612 C597 0.929 . S
H613 C598 0.930 . S
H614 C619 0.930 . S
H615 C594 0.930 . S
H616 C627 0.931 . S
N617 Tb588 2.617 . S
N617 C618 1.379 . S
N617 C621 1.334 . S
C618 N617 1.379 . S
C618 C620 1.416 . S
C618 C626 1.424 . S
C619 H614 0.930 . S
C619 C621 1.390 . S
C619 C622 1.339 . S
C620 C618 1.416 . S
C620 C622 1.416 . S
C620 C653 1.448 . S
C621 H606 0.930 . S
C621 N617 1.334 . S
C621 C619 1.390 . S
C622 C619 1.339 . S
C622 C620 1.416 . S
C622 H629 0.930 . S
N623 Tb588 2.572 . S
N623 C624 1.340 . S
N623 C626 1.361 . S
C624 H610 0.930 . S
C624 N623 1.340 . S
C624 C628 1.407 . S
C625 C626 1.413 . S
C625 C627 1.416 . S
C625 C654 1.427 . S
C626 C618 1.424 . S
C626 N623 1.361 . S
C626 C625 1.413 . S
C627 H616 0.931 . S
C627 C625 1.416 . S
C627 C628 1.332 . S
C628 H607 0.929 . S
C628 C624 1.407 . S
C628 C627 1.332 . S
H629 C622 0.930 . S
H630 C653 0.930 . S
H631 C654 0.929 . S
O632 Tb588 2.465 . S
O632 C652 1.264 . S
O633 Tb588 2.387 . S
O633 C644 1.264 . S
O634 Tb599 2.349 . S
O634 C644 1.243 . S
O635 Tb588 2.428 . S
O635 C652 1.256 . S
O636 Tb588 2.308 . S
O636 C651 1.266 . S
O637 Tb599 2.393 . S
O637 C651 1.248 . S
O638 Tb599 2.465 . S
O638 C663 1.264 . S
O639 Tb599 2.387 . S
O639 C655 1.264 . S
O640 Tb588 2.349 . S
O640 C655 1.243 . S
O641 Tb599 2.428 . S
O641 C663 1.256 . S
O642 Tb599 2.308 . S
O642 C662 1.266 . S
O643 Tb588 2.393 . S
O643 C662 1.248 . S
C644 O633 1.264 . S
C644 O634 1.243 . S
C645 C648 1.399 . S
C645 C650 1.383 . S
C645 C652 1.496 . S
C646 C647 1.399 . S
C646 C650 1.389 . S
C647 C646 1.399 . S
C647 C649 1.380 . S
C647 H664 0.929 . S
C648 C645 1.399 . S
C648 C649 1.392 . S
C648 H665 0.929 . S
C649 C647 1.380 . S
C649 C648 1.392 . S
C649 H666 0.929 . S
C650 C645 1.383 . S
C650 C646 1.389 . S
C650 H667 0.931 . S
C651 O636 1.266 . S
C651 O637 1.248 . S
C652 Tb588 2.802 . S
C652 O632 1.264 . S
C652 O635 1.256 . S
C652 C645 1.496 . S
C653 C620 1.448 . S
C653 H630 0.930 . S
C653 C654 1.328 . S
C654 C625 1.427 . S
C654 H631 0.929 . S
C654 C653 1.328 . S
C655 O639 1.264 . S
C655 O640 1.243 . S
C656 C659 1.399 . S
C656 C660 1.383 . S
C656 C663 1.496 . S
C657 C658 1.399 . S
C657 C660 1.389 . S
C658 C657 1.399 . S
C658 C661 1.380 . S
C658 H668 0.929 . S
C659 C656 1.399 . S
C659 C661 1.392 . S
C659 H669 0.929 . S
C660 C656 1.383 . S
C660 C657 1.389 . S
C660 H670 0.931 . S
C661 C658 1.380 . S
C661 C659 1.392 . S
C661 H671 0.929 . S
C662 O642 1.266 . S
C662 O643 1.248 . S
C663 Tb599 2.802 . S
C663 O638 1.264 . S
C663 O641 1.256 . S
C663 C656 1.496 . S
H664 C647 0.929 . S
H665 C648 0.929 . S
H666 C649 0.929 . S
H667 C650 0.931 . S
H668 C658 0.929 . S
H669 C659 0.929 . S
H670 C660 0.931 . S
H671 C661 0.929 . S
Tb672 N701 2.636 . S
Tb672 N707 2.606 . S
Tb672 O716 2.509 . S
Tb672 O717 2.357 1_565 S
Tb672 O719 2.469 . S
Tb672 O720 2.293 1_565 S
Tb672 O724 2.333 1_565 S
Tb672 O727 2.359 1_565 S
Tb672 C736 2.850 . S
C673 N674 1.379 1_455 S
C673 C676 1.416 1_455 S
C673 C680 1.424 . S
N674 C673 1.379 1_655 S
N674 C677 1.334 . S
N674 Tb683 2.617 1_655 S
C675 C677 1.390 . S
C675 C678 1.339 . S
C675 H695 0.930 . S
C676 C673 1.416 1_655 S
C676 C678 1.416 . S
C676 C682 1.448 1_655 S
C677 N674 1.334 . S
C677 C675 1.390 . S
C677 H688 0.930 . S
C678 C675 1.339 . S
C678 C676 1.416 . S
C678 H699 0.930 . S
C679 C680 1.413 . S
C679 C681 1.427 . S
C679 C685 1.416 . S
C680 C673 1.424 . S
C680 C679 1.413 . S
C680 N684 1.361 . S
C681 C679 1.427 . S
C681 C682 1.328 . S
C681 H696 0.929 . S
C682 C676 1.448 1_455 S
C682 C681 1.328 . S
C682 H697 0.916 1_455 S
Tb683 N674 2.617 1_455 S
Tb683 N684 2.572 . S
Tb683 O718 2.349 . S
Tb683 O721 2.393 1_455 S
Tb683 O722 2.465 . S
Tb683 O723 2.387 . S
Tb683 O725 2.428 1_455 S
Tb683 O726 2.308 . S
Tb683 C747 2.802 . S
N684 C680 1.361 . S
N684 Tb683 2.572 . S
N684 C686 1.340 . S
C685 C679 1.416 . S
C685 C687 1.332 . S
C685 H693 0.931 . S
C686 N684 1.340 . S
C686 C687 1.407 . S
C686 H692 0.930 . S
C687 C685 1.332 . S
C687 C686 1.407 . S
C687 H689 0.929 . S
H688 C677 0.930 . S
H689 C687 0.929 . S
H690 C705 0.930 1_545 S
H691 C712 0.929 . S
H692 C686 0.930 . S
H693 C685 0.931 . S
H694 C708 0.930 1_655 S
H695 C675 0.930 . S
H696 C681 0.929 . S
H697 C682 0.916 1_655 S
H698 C703 0.930 . S
H699 C678 0.930 . S
H700 C711 0.931 1_655 S
N701 Tb672 2.636 . S
N701 C702 1.379 . S
N701 C705 1.334 . S
C702 N701 1.379 . S
C702 C704 1.416 . S
C702 C710 1.424 . S
C703 H698 0.930 . S
C703 C705 1.390 . S
C703 C706 1.339 . S
C704 C702 1.416 . S
C704 C706 1.416 . S
C704 C737 1.448 . S
C705 H690 0.930 1_565 S
C705 N701 1.334 . S
C705 C703 1.390 . S
C706 C703 1.339 . S
C706 C704 1.416 . S
C706 H713 0.930 . S
N707 Tb672 2.606 . S
N707 C708 1.340 . S
N707 C710 1.361 . S
C708 H694 0.930 1_455 S
C708 N707 1.340 . S
C708 C712 1.407 1_455 S
C709 C710 1.413 . S
C709 C711 1.416 . S
C709 C738 1.427 . S
C710 C702 1.424 . S
C710 N707 1.361 . S
C710 C709 1.413 . S
C711 H700 0.931 1_455 S
C711 C709 1.416 . S
C711 C712 1.332 1_455 S
C712 H691 0.929 . S
C712 C708 1.407 1_655 S
C712 C711 1.332 1_655 S
H713 C706 0.930 . S
H714 C737 0.930 . S
H715 C738 0.929 . S
O716 Tb672 2.509 . S
O716 C736 1.264 . S
O717 Tb672 2.357 1_545 S
O717 C728 1.264 . S
O718 Tb683 2.349 . S
O718 C728 1.243 . S
O719 Tb672 2.469 . S
O719 C736 1.256 . S
O720 Tb672 2.293 1_545 S
O720 C735 1.266 1_455 S
O721 Tb683 2.393 1_655 S
O721 C735 1.248 . S
O722 Tb683 2.465 . S
O722 C747 1.264 . S
O723 Tb683 2.387 . S
O723 C739 1.264 . S
O724 Tb672 2.333 1_545 S
O724 C739 1.243 . S
O725 Tb683 2.428 1_655 S
O725 C747 1.256 1_655 S
O726 Tb683 2.308 . S
O726 C746 1.266 . S
O727 Tb672 2.359 1_545 S
O727 C746 1.248 . S
C728 O717 1.264 . S
C728 O718 1.243 . S
C729 C732 1.399 . S
C729 C734 1.383 . S
C729 C736 1.496 . S
C730 C731 1.399 . S
C730 C734 1.389 . S
C731 C730 1.399 . S
C731 C733 1.380 . S
C731 H748 0.929 . S
C732 C729 1.399 . S
C732 C733 1.392 . S
C732 H749 0.929 . S
C733 C731 1.380 . S
C733 C732 1.392 . S
C733 H750 0.929 . S
C734 C729 1.383 . S
C734 C730 1.389 . S
C734 H751 0.931 . S
C735 O720 1.266 1_655 S
C735 O721 1.248 . S
C736 Tb672 2.850 . S
C736 O716 1.264 . S
C736 O719 1.256 . S
C736 C729 1.496 . S
C737 C704 1.448 . S
C737 H714 0.930 . S
C737 C738 1.328 . S
C738 C709 1.427 . S
C738 H715 0.929 . S
C738 C737 1.328 . S
C739 O723 1.264 . S
C739 O724 1.243 . S
C740 C743 1.399 1_455 S
C740 C744 1.383 . S
C740 C747 1.496 . S
C741 C742 1.394 . S
C741 C744 1.389 . S
C742 C741 1.394 . S
C742 C745 1.383 1_455 S
C742 H752 0.931 1_455 S
C743 C740 1.399 1_655 S
C743 C745 1.392 . S
C743 H753 0.929 . S
C744 C740 1.383 . S
C744 C741 1.389 . S
C744 H754 0.931 . S
C745 C742 1.383 1_655 S
C745 C743 1.392 . S
C745 H755 0.929 . S
C746 O726 1.266 . S
C746 O727 1.248 . S
C747 Tb683 2.802 . S
C747 O722 1.264 . S
C747 O725 1.256 1_455 S
C747 C740 1.496 . S
H748 C731 0.929 . S
H749 C732 0.929 . S
H750 C733 0.929 . S
H751 C734 0.931 . S
H752 C742 0.931 1_655 S
H753 C743 0.929 . S
H754 C744 0.931 . S
H755 C745 0.929 . S
Tb756 N785 2.617 . S
Tb756 N791 2.572 . S
Tb756 O800 2.465 . S
Tb756 O801 2.387 . S
Tb756 O803 2.428 . S
Tb756 O804 2.308 . S
Tb756 O808 2.349 . S
Tb756 O811 2.393 . S
Tb756 C820 2.802 . S
C757 N758 1.379 . S
C757 C760 1.416 . S
C757 C764 1.424 . S
N758 C757 1.379 . S
N758 C761 1.334 . S
N758 Tb767 2.617 . S
C759 C761 1.390 . S
C759 C762 1.339 . S
C759 H779 0.930 . S
C760 C757 1.416 . S
C760 C762 1.416 . S
C760 C766 1.448 . S
C761 N758 1.334 . S
C761 C759 1.390 . S
C761 H772 0.930 . S
C762 C759 1.339 . S
C762 C760 1.416 . S
C762 H783 0.930 . S
C763 C764 1.413 . S
C763 C765 1.427 . S
C763 C769 1.416 . S
C764 C757 1.424 . S
C764 C763 1.413 . S
C764 N768 1.361 . S
C765 C763 1.427 . S
C765 C766 1.328 . S
C765 H780 0.929 . S
C766 C760 1.448 . S
C766 C765 1.328 . S
C766 H781 0.930 . S
Tb767 N758 2.617 . S
Tb767 N768 2.572 . S
Tb767 O802 2.349 . S
Tb767 O805 2.393 . S
Tb767 O806 2.465 . S
Tb767 O807 2.387 . S
Tb767 O809 2.428 . S
Tb767 O810 2.308 . S
Tb767 C831 2.802 . S
N768 C764 1.361 . S
N768 Tb767 2.572 . S
N768 C770 1.340 . S
C769 C763 1.416 . S
C769 C771 1.332 . S
C769 H777 0.931 . S
C770 N768 1.340 . S
C770 C771 1.407 . S
C770 H776 0.930 . S
C771 C769 1.332 . S
C771 C770 1.407 . S
C771 H773 0.929 . S
H772 C761 0.930 . S
H773 C771 0.929 . S
H774 C789 0.930 . S
H775 C796 0.929 . S
H776 C770 0.930 . S
H777 C769 0.931 . S
H778 C792 0.930 . S
H779 C759 0.930 . S
H780 C765 0.929 . S
H781 C766 0.930 . S
H782 C787 0.930 . S
H783 C762 0.930 . S
H784 C795 0.931 . S
N785 Tb756 2.617 . S
N785 C786 1.379 . S
N785 C789 1.334 . S
C786 N785 1.379 . S
C786 C788 1.416 . S
C786 C794 1.424 . S
C787 H782 0.930 . S
C787 C789 1.390 . S
C787 C790 1.339 . S
C788 C786 1.416 . S
C788 C790 1.416 . S
C788 C821 1.448 . S
C789 H774 0.930 . S
C789 N785 1.334 . S
C789 C787 1.390 . S
C790 C787 1.339 . S
C790 C788 1.416 . S
C790 H797 0.930 . S
N791 Tb756 2.572 . S
N791 C792 1.340 . S
N791 C794 1.361 . S
C792 H778 0.930 . S
C792 N791 1.340 . S
C792 C796 1.407 . S
C793 C794 1.413 . S
C793 C795 1.416 . S
C793 C822 1.427 . S
C794 C786 1.424 . S
C794 N791 1.361 . S
C794 C793 1.413 . S
C795 H784 0.931 . S
C795 C793 1.416 . S
C795 C796 1.332 . S
C796 H775 0.929 . S
C796 C792 1.407 . S
C796 C795 1.332 . S
H797 C790 0.930 . S
H798 C821 0.930 . S
H799 C822 0.929 . S
O800 Tb756 2.465 . S
O800 C820 1.264 . S
O801 Tb756 2.387 . S
O801 C812 1.264 . S
O802 Tb767 2.349 . S
O802 C812 1.243 . S
O803 Tb756 2.428 . S
O803 C820 1.256 . S
O804 Tb756 2.308 . S
O804 C819 1.266 . S
O805 Tb767 2.393 . S
O805 C819 1.248 . S
O806 Tb767 2.465 . S
O806 C831 1.264 . S
O807 Tb767 2.387 . S
O807 C823 1.264 . S
O808 Tb756 2.349 . S
O808 C823 1.243 . S
O809 Tb767 2.428 . S
O809 C831 1.256 . S
O810 Tb767 2.308 . S
O810 C830 1.266 . S
O811 Tb756 2.393 . S
O811 C830 1.248 . S
C812 O801 1.264 . S
C812 O802 1.243 . S
C813 C816 1.399 . S
C813 C818 1.383 . S
C813 C820 1.496 . S
C814 C815 1.399 . S
C814 C818 1.389 . S
C815 C814 1.399 . S
C815 C817 1.380 . S
C815 H832 0.929 . S
C816 C813 1.399 . S
C816 C817 1.392 . S
C816 H833 0.929 . S
C817 C815 1.380 . S
C817 C816 1.392 . S
C817 H834 0.929 . S
C818 C813 1.383 . S
C818 C814 1.389 . S
C818 H835 0.931 . S
C819 O804 1.266 . S
C819 O805 1.248 . S
C820 Tb756 2.802 . S
C820 O800 1.264 . S
C820 O803 1.256 . S
C820 C813 1.496 . S
C821 C788 1.448 . S
C821 H798 0.930 . S
C821 C822 1.328 . S
C822 C793 1.427 . S
C822 H799 0.929 . S
C822 C821 1.328 . S
C823 O807 1.264 . S
C823 O808 1.243 . S
C824 C827 1.399 . S
C824 C828 1.383 . S
C824 C831 1.496 . S
C825 C826 1.399 . S
C825 C828 1.389 . S
C826 C825 1.399 . S
C826 C829 1.380 . S
C826 H836 0.929 . S
C827 C824 1.399 . S
C827 C829 1.392 . S
C827 H837 0.929 . S
C828 C824 1.383 . S
C828 C825 1.389 . S
C828 H838 0.931 . S
C829 C826 1.380 . S
C829 C827 1.392 . S
C829 H839 0.929 . S
C830 O810 1.266 . S
C830 O811 1.248 . S
C831 Tb767 2.802 . S
C831 O806 1.264 . S
C831 O809 1.256 . S
C831 C824 1.496 . S
H832 C815 0.929 . S
H833 C816 0.929 . S
H834 C817 0.929 . S
H835 C818 0.931 . S
H836 C826 0.929 . S
H837 C827 0.929 . S
H838 C828 0.931 . S
H839 C829 0.929 . S
Tb840 N869 2.617 . S
Tb840 N875 2.572 . S
Tb840 O884 2.465 . S
Tb840 O885 2.387 1_556 S
Tb840 O887 2.428 . S
Tb840 O888 2.312 . S
Tb840 O892 2.349 1_556 S
Tb840 O895 2.393 1_556 S
Tb840 C904 2.802 . S
C841 N842 1.379 1_545 S
C841 C844 1.416 1_545 S
C841 C848 1.424 . S
N842 C841 1.379 1_565 S
N842 C845 1.334 . S
N842 Tb851 2.617 1_565 S
C843 C845 1.390 . S
C843 C846 1.339 . S
C843 H863 0.930 . S
C844 C841 1.416 1_565 S
C844 C846 1.416 . S
C844 C850 1.448 1_565 S
C845 N842 1.334 . S
C845 C843 1.390 . S
C845 H856 0.930 . S
C846 C843 1.339 . S
C846 C844 1.416 . S
C846 H867 0.930 . S
C847 C848 1.413 . S
C847 C849 1.427 . S
C847 C853 1.416 . S
C848 C841 1.424 . S
C848 C847 1.413 . S
C848 N852 1.361 . S
C849 C847 1.427 . S
C849 C850 1.328 . S
C849 H864 0.929 . S
C850 C844 1.448 1_545 S
C850 C849 1.328 . S
C850 H865 0.930 1_545 S
Tb851 N842 2.617 1_545 S
Tb851 N852 2.572 . S
Tb851 O886 2.349 . S
Tb851 O889 2.393 1_545 S
Tb851 O890 2.465 . S
Tb851 O891 2.387 . S
Tb851 O893 2.428 1_545 S
Tb851 O894 2.308 . S
Tb851 C915 2.802 . S
N852 C848 1.361 . S
N852 Tb851 2.572 . S
N852 C854 1.340 . S
C853 C847 1.416 . S
C853 C855 1.332 . S
C853 H861 0.931 . S
C854 N852 1.340 . S
C854 C855 1.407 . S
C854 H860 0.930 . S
C855 C853 1.332 . S
C855 C854 1.407 . S
C855 H857 0.929 . S
H856 C845 0.930 . S
H857 C855 0.929 . S
H858 C873 0.930 1_554 S
H859 C880 0.929 . S
H860 C854 0.930 . S
H861 C853 0.931 . S
H862 C876 0.933 . S
H863 C843 0.930 . S
H864 C849 0.929 . S
H865 C850 0.930 1_565 S
H866 C871 0.930 . S
H867 C846 0.930 . S
H868 C879 0.931 1_565 S
N869 Tb840 2.617 . S
N869 C870 1.379 . S
N869 C873 1.334 . S
C870 N869 1.379 . S
C870 C872 1.416 . S
C870 C878 1.424 . S
C871 H866 0.930 . S
C871 C873 1.390 . S
C871 C874 1.339 . S
C872 C870 1.416 . S
C872 C874 1.416 . S
C872 C905 1.448 . S
C873 H858 0.930 1_556 S
C873 N869 1.334 . S
C873 C871 1.390 . S
C874 C871 1.339 . S
C874 C872 1.416 . S
C874 H881 0.930 . S
N875 Tb840 2.572 . S
N875 C876 1.340 . S
N875 C878 1.361 . S
C876 H862 0.933 . S
C876 N875 1.340 . S
C876 C880 1.407 1_545 S
C877 C878 1.413 . S
C877 C879 1.416 . S
C877 C906 1.427 . S
C878 C870 1.424 . S
C878 N875 1.361 . S
C878 C877 1.413 . S
C879 H868 0.931 1_545 S
C879 C877 1.416 . S
C879 C880 1.332 1_545 S
C880 H859 0.929 . S
C880 C876 1.407 1_565 S
C880 C879 1.332 1_565 S
H881 C874 0.930 . S
H882 C905 0.930 . S
H883 C906 0.929 . S
O884 Tb840 2.465 . S
O884 C904 1.264 . S
O885 Tb840 2.387 1_554 S
O885 C896 1.264 . S
O886 Tb851 2.349 . S
O886 C896 1.243 . S
O887 Tb840 2.428 . S
O887 C904 1.256 . S
O888 Tb840 2.312 . S
O888 C903 1.258 1_546 S
O889 Tb851 2.393 1_565 S
O889 C903 1.248 . S
O890 Tb851 2.465 . S
O890 C915 1.264 . S
O891 Tb851 2.387 . S
O891 C907 1.264 . S
O892 Tb840 2.349 1_554 S
O892 C907 1.243 . S
O893 Tb851 2.428 1_565 S
O893 C915 1.256 1_565 S
O894 Tb851 2.308 . S
O894 C914 1.266 . S
O895 Tb840 2.393 1_554 S
O895 C914 1.248 . S
C896 O885 1.264 . S
C896 O886 1.243 . S
C897 C900 1.399 . S
C897 C902 1.383 . S
C897 C904 1.496 . S
C898 C899 1.399 . S
C898 C902 1.389 . S
C899 C898 1.399 . S
C899 C901 1.380 . S
C899 H916 0.929 . S
C900 C897 1.399 . S
C900 C901 1.392 . S
C900 H917 0.929 . S
C901 C899 1.380 . S
C901 C900 1.392 . S
C901 H918 0.929 . S
C902 C897 1.383 . S
C902 C898 1.389 . S
C902 H919 0.931 . S
C903 O888 1.258 1_564 S
C903 O889 1.248 . S
C904 Tb840 2.802 . S
C904 O884 1.264 . S
C904 O887 1.256 . S
C904 C897 1.496 . S
C905 C872 1.448 . S
C905 H882 0.930 . S
C905 C906 1.328 . S
C906 C877 1.427 . S
C906 H883 0.929 . S
C906 C905 1.328 . S
C907 O891 1.264 . S
C907 O892 1.243 . S
C908 C911 1.399 . S
C908 C912 1.383 1_565 S
C908 C915 1.496 1_565 S
C909 C910 1.399 1_545 S
C909 C912 1.389 . S
C910 C909 1.399 1_565 S
C910 C913 1.380 . S
C910 H920 0.929 . S
C911 C908 1.399 . S
C911 C913 1.392 . S
C911 H921 0.929 . S
C912 C908 1.383 1_545 S
C912 C909 1.389 . S
C912 H922 0.931 . S
C913 C910 1.380 . S
C913 C911 1.392 . S
C913 H923 0.929 . S
C914 O894 1.266 . S
C914 O895 1.248 . S
C915 Tb851 2.802 . S
C915 O890 1.264 . S
C915 O893 1.256 1_545 S
C915 C908 1.496 1_545 S
H916 C899 0.929 . S
H917 C900 0.929 . S
H918 C901 0.929 . S
H919 C902 0.931 . S
H920 C910 0.929 . S
H921 C911 0.929 . S
H922 C912 0.931 . S
H923 C913 0.929 . S
Tb924 N953 2.617 . S
Tb924 N959 2.572 . S
Tb924 O968 2.465 . S
Tb924 O969 2.387 . S
Tb924 O971 2.428 . S
Tb924 O972 2.308 . S
Tb924 O976 2.349 . S
Tb924 O979 2.393 . S
Tb924 C988 2.802 . S
C925 N926 1.379 . S
C925 C928 1.416 . S
C925 C932 1.424 . S
N926 C925 1.379 . S
N926 C929 1.334 . S
N926 Tb935 2.617 . S
C927 C929 1.390 . S
C927 C930 1.339 . S
C927 H947 0.930 . S
C928 C925 1.416 . S
C928 C930 1.416 . S
C928 C934 1.448 . S
C929 N926 1.334 . S
C929 C927 1.390 . S
C929 H940 0.930 . S
C930 C927 1.339 . S
C930 C928 1.416 . S
C930 H951 0.930 . S
C931 C932 1.413 . S
C931 C933 1.427 . S
C931 C937 1.416 . S
C932 C925 1.424 . S
C932 C931 1.413 . S
C932 N936 1.361 . S
C933 C931 1.427 . S
C933 C934 1.328 . S
C933 H948 0.929 . S
C934 C928 1.448 . S
C934 C933 1.328 . S
C934 H949 0.930 . S
Tb935 N926 2.617 . S
Tb935 N936 2.572 . S
Tb935 O970 2.349 . S
Tb935 O973 2.393 . S
Tb935 O974 2.465 . S
Tb935 O975 2.387 . S
Tb935 O977 2.428 . S
Tb935 O978 2.308 . S
Tb935 C999 2.802 . S
N936 C932 1.361 . S
N936 Tb935 2.572 . S
N936 C938 1.340 . S
C937 C931 1.416 . S
C937 C939 1.332 . S
C937 H945 0.931 . S
C938 N936 1.340 . S
C938 C939 1.407 . S
C938 H944 0.930 . S
C939 C937 1.332 . S
C939 C938 1.407 . S
C939 H941 0.929 . S
H940 C929 0.930 . S
H941 C939 0.929 . S
H942 C957 0.930 . S
H943 C964 0.929 . S
H944 C938 0.930 . S
H945 C937 0.931 . S
H946 C960 0.930 . S
H947 C927 0.930 . S
H948 C933 0.929 . S
H949 C934 0.930 . S
H950 C955 0.930 . S
H951 C930 0.930 . S
H952 C963 0.931 . S
N953 Tb924 2.617 . S
N953 C954 1.379 . S
N953 C957 1.334 . S
C954 N953 1.379 . S
C954 C956 1.416 . S
C954 C962 1.424 . S
C955 H950 0.930 . S
C955 C957 1.390 . S
C955 C958 1.339 . S
C956 C954 1.416 . S
C956 C958 1.416 . S
C956 C989 1.448 . S
C957 H942 0.930 . S
C957 N953 1.334 . S
C957 C955 1.390 . S
C958 C955 1.339 . S
C958 C956 1.416 . S
C958 H965 0.930 . S
N959 Tb924 2.572 . S
N959 C960 1.340 . S
N959 C962 1.361 . S
C960 H946 0.930 . S
C960 N959 1.340 . S
C960 C964 1.407 . S
C961 C962 1.413 . S
C961 C963 1.416 . S
C961 C990 1.427 . S
C962 C954 1.424 . S
C962 N959 1.361 . S
C962 C961 1.413 . S
C963 H952 0.931 . S
C963 C961 1.416 . S
C963 C964 1.332 . S
C964 H943 0.929 . S
C964 C960 1.407 . S
C964 C963 1.332 . S
H965 C958 0.930 . S
H966 C989 0.930 . S
H967 C990 0.929 . S
O968 Tb924 2.465 . S
O968 C988 1.264 . S
O969 Tb924 2.387 . S
O969 C980 1.264 . S
O970 Tb935 2.349 . S
O970 C980 1.243 . S
O971 Tb924 2.428 . S
O971 C988 1.256 . S
O972 Tb924 2.308 . S
O972 C987 1.266 . S
O973 Tb935 2.393 . S
O973 C987 1.248 . S
O974 Tb935 2.465 . S
O974 C999 1.264 . S
O975 Tb935 2.387 . S
O975 C991 1.264 . S
O976 Tb924 2.349 . S
O976 C991 1.243 . S
O977 Tb935 2.428 . S
O977 C999 1.256 . S
O978 Tb935 2.308 . S
O978 C998 1.266 . S
O979 Tb924 2.393 . S
O979 C998 1.248 . S
C980 O969 1.264 . S
C980 O970 1.243 . S
C981 C984 1.399 . S
C981 C986 1.383 . S
C981 C988 1.496 . S
C982 C983 1.399 . S
C982 C986 1.389 . S
C983 C982 1.399 . S
C983 C985 1.380 . S
C983 H1000 0.929 . S
C984 C981 1.399 . S
C984 C985 1.392 . S
C984 H1001 0.929 . S
C985 C983 1.380 . S
C985 C984 1.392 . S
C985 H1002 0.929 . S
C986 C981 1.383 . S
C986 C982 1.389 . S
C986 H1003 0.931 . S
C987 O972 1.266 . S
C987 O973 1.248 . S
C988 Tb924 2.802 . S
C988 O968 1.264 . S
C988 O971 1.256 . S
C988 C981 1.496 . S
C989 C956 1.448 . S
C989 H966 0.930 . S
C989 C990 1.328 . S
C990 C961 1.427 . S
C990 H967 0.929 . S
C990 C989 1.328 . S
C991 O975 1.264 . S
C991 O976 1.243 . S
C992 C995 1.399 . S
C992 C996 1.383 . S
C992 C999 1.496 . S
C993 C994 1.399 . S
C993 C996 1.389 . S
C994 C993 1.399 . S
C994 C997 1.380 . S
C994 H1004 0.929 . S
C995 C992 1.399 . S
C995 C997 1.392 . S
C995 H1005 0.929 . S
C996 C992 1.383 . S
C996 C993 1.389 . S
C996 H1006 0.931 . S
C997 C994 1.380 . S
C997 C995 1.392 . S
C997 H1007 0.929 . S
C998 O978 1.266 . S
C998 O979 1.248 . S
C999 Tb935 2.802 . S
C999 O974 1.264 . S
C999 O977 1.256 . S
C999 C992 1.496 . S
H1000 C983 0.929 . S
H1001 C984 0.929 . S
H1002 C985 0.929 . S
H1003 C986 0.931 . S
H1004 C994 0.929 . S
H1005 C995 0.929 . S
H1006 C996 0.931 . S
H1007 C997 0.929 . S
Tb1008 N1037 2.617 1_554 S
Tb1008 N1043 2.572 1_554 S
Tb1008 O1052 2.465 . S
Tb1008 O1053 2.387 1_554 S
Tb1008 O1055 2.428 . S
Tb1008 O1056 2.308 . S
Tb1008 O1060 2.349 . S
Tb1008 O1063 2.393 . S
Tb1008 C1072 2.802 . S
C1009 N1010 1.379 . S
C1009 C1012 1.416 . S
C1009 C1016 1.424 . S
N1010 C1009 1.379 . S
N1010 C1013 1.334 . S
N1010 Tb1019 2.617 . S
C1011 C1013 1.390 . S
C1011 C1014 1.339 . S
C1011 H1031 0.930 . S
C1012 C1009 1.416 . S
C1012 C1014 1.416 . S
C1012 C1018 1.448 . S
C1013 N1010 1.334 . S
C1013 C1011 1.390 . S
C1013 H1024 0.930 . S
C1014 C1011 1.339 . S
C1014 C1012 1.416 . S
C1014 H1035 0.930 . S
C1015 C1016 1.413 . S
C1015 C1017 1.427 . S
C1015 C1021 1.416 . S
C1016 C1009 1.424 . S
C1016 C1015 1.413 . S
C1016 N1020 1.361 . S
C1017 C1015 1.427 . S
C1017 C1018 1.328 . S
C1017 H1032 0.929 . S
C1018 C1012 1.448 . S
C1018 C1017 1.328 . S
C1018 H1033 0.930 . S
Tb1019 N1010 2.617 . S
Tb1019 N1020 2.572 . S
Tb1019 O1054 2.349 1_554 S
Tb1019 O1057 2.393 . S
Tb1019 O1058 2.465 . S
Tb1019 O1059 2.387 . S
Tb1019 O1061 2.428 . S
Tb1019 O1062 2.308 . S
Tb1019 C1083 2.802 . S
N1020 C1016 1.361 . S
N1020 Tb1019 2.572 . S
N1020 C1022 1.340 . S
C1021 C1015 1.416 . S
C1021 C1023 1.332 . S
C1021 H1029 0.931 . S
C1022 N1020 1.340 . S
C1022 C1023 1.407 . S
C1022 H1028 0.930 . S
C1023 C1021 1.332 . S
C1023 C1022 1.407 . S
C1023 H1025 0.929 . S
H1024 C1013 0.930 . S
H1025 C1023 0.929 . S
H1026 C1041 0.930 1_554 S
H1027 C1048 0.929 . S
H1028 C1022 0.930 . S
H1029 C1021 0.931 . S
H1030 C1044 0.930 1_554 S
H1031 C1011 0.930 . S
H1032 C1017 0.929 . S
H1033 C1018 0.930 . S
H1034 C1039 0.930 . S
H1035 C1014 0.930 . S
H1036 C1047 0.931 . S
N1037 Tb1008 2.617 1_556 S
N1037 C1038 1.379 . S
N1037 C1041 1.334 . S
C1038 N1037 1.379 . S
C1038 C1040 1.416 . S
C1038 C1046 1.424 . S
C1039 H1034 0.930 . S
C1039 C1041 1.390 . S
C1039 C1042 1.339 . S
C1040 C1038 1.416 . S
C1040 C1042 1.416 . S
C1040 C1073 1.448 . S
C1041 H1026 0.930 1_556 S
C1041 N1037 1.334 . S
C1041 C1039 1.390 . S
C1042 C1039 1.339 . S
C1042 C1040 1.416 . S
C1042 H1049 0.930 . S
N1043 Tb1008 2.572 1_556 S
N1043 C1044 1.340 . S
N1043 C1046 1.361 . S
C1044 H1030 0.930 1_556 S
C1044 N1043 1.340 . S
C1044 C1048 1.407 . S
C1045 C1046 1.413 . S
C1045 C1047 1.416 . S
C1045 C1074 1.427 . S
C1046 C1038 1.424 . S
C1046 N1043 1.361 . S
C1046 C1045 1.413 . S
C1047 H1036 0.931 . S
C1047 C1045 1.416 . S
C1047 C1048 1.332 . S
C1048 H1027 0.929 . S
C1048 C1044 1.407 . S
C1048 C1047 1.332 . S
H1049 C1042 0.930 . S
H1050 C1073 0.930 . S
H1051 C1074 0.929 . S
O1052 Tb1008 2.465 . S
O1052 C1072 1.264 . S
O1053 Tb1008 2.387 1_556 S
O1053 C1064 1.264 . S
O1054 Tb1019 2.349 1_556 S
O1054 C1064 1.243 . S
O1055 Tb1008 2.428 . S
O1055 C1072 1.256 . S
O1056 Tb1008 2.308 . S
O1056 C1071 1.266 . S
O1057 Tb1019 2.393 . S
O1057 C1071 1.248 . S
O1058 Tb1019 2.465 . S
O1058 C1083 1.264 . S
O1059 Tb1019 2.387 . S
O1059 C1075 1.264 . S
O1060 Tb1008 2.349 . S
O1060 C1075 1.243 . S
O1061 Tb1019 2.428 . S
O1061 C1083 1.256 . S
O1062 Tb1019 2.308 . S
O1062 C1082 1.266 . S
O1063 Tb1008 2.393 . S
O1063 C1082 1.248 . S
C1064 O1053 1.264 . S
C1064 O1054 1.243 . S
C1065 C1068 1.399 . S
C1065 C1070 1.383 . S
C1065 C1072 1.496 . S
C1066 C1067 1.399 . S
C1066 C1070 1.389 . S
C1067 C1066 1.399 . S
C1067 C1069 1.380 . S
C1067 H1084 0.929 . S
C1068 C1065 1.399 . S
C1068 C1069 1.392 . S
C1068 H1085 0.929 . S
C1069 C1067 1.380 . S
C1069 C1068 1.392 . S
C1069 H1086 0.929 . S
C1070 C1065 1.383 . S
C1070 C1066 1.389 . S
C1070 H1087 0.931 . S
C1071 O1056 1.266 . S
C1071 O1057 1.248 . S
C1072 Tb1008 2.802 . S
C1072 O1052 1.264 . S
C1072 O1055 1.256 . S
C1072 C1065 1.496 . S
C1073 C1040 1.448 . S
C1073 H1050 0.930 . S
C1073 C1074 1.328 . S
C1074 C1045 1.427 . S
C1074 H1051 0.929 . S
C1074 C1073 1.328 . S
C1075 O1059 1.264 . S
C1075 O1060 1.243 . S
C1076 C1079 1.399 . S
C1076 C1080 1.383 . S
C1076 C1083 1.496 1_556 S
C1077 C1078 1.399 . S
C1077 C1080 1.389 . S
C1078 C1077 1.399 . S
C1078 C1081 1.380 . S
C1078 H1088 0.929 . S
C1079 C1076 1.399 . S
C1079 C1081 1.392 . S
C1079 H1089 0.929 . S
C1080 C1076 1.383 . S
C1080 C1077 1.389 . S
C1080 H1090 0.931 . S
C1081 C1078 1.380 . S
C1081 C1079 1.392 . S
C1081 H1091 0.929 . S
C1082 O1062 1.266 . S
C1082 O1063 1.248 . S
C1083 Tb1019 2.802 . S
C1083 O1058 1.264 . S
C1083 O1061 1.256 . S
C1083 C1076 1.496 1_554 S
H1084 C1067 0.929 . S
H1085 C1068 0.929 . S
H1086 C1069 0.929 . S
H1087 C1070 0.931 . S
H1088 C1078 0.929 . S
H1089 C1079 0.929 . S
H1090 C1080 0.931 . S
H1091 C1081 0.929 . S
Tb1092 N1121 2.617 . S
Tb1092 N1127 2.572 . S
Tb1092 O1136 2.465 . S
Tb1092 O1137 2.387 . S
Tb1092 O1139 2.428 . S
Tb1092 O1140 2.308 . S
Tb1092 O1144 2.349 . S
Tb1092 O1147 2.393 . S
Tb1092 C1156 2.802 . S
C1093 N1094 1.379 . S
C1093 C1096 1.416 . S
C1093 C1100 1.424 . S
N1094 C1093 1.379 . S
N1094 C1097 1.334 . S
N1094 Tb1103 2.617 . S
C1095 C1097 1.390 . S
C1095 C1098 1.339 . S
C1095 H1115 0.930 . S
C1096 C1093 1.416 . S
C1096 C1098 1.416 . S
C1096 C1102 1.448 . S
C1097 N1094 1.334 . S
C1097 C1095 1.390 . S
C1097 H1108 0.930 . S
C1098 C1095 1.339 . S
C1098 C1096 1.416 . S
C1098 H1119 0.930 . S
C1099 C1100 1.413 . S
C1099 C1101 1.427 . S
C1099 C1105 1.416 . S
C1100 C1093 1.424 . S
C1100 C1099 1.413 . S
C1100 N1104 1.361 . S
C1101 C1099 1.427 . S
C1101 C1102 1.328 . S
C1101 H1116 0.929 . S
C1102 C1096 1.448 . S
C1102 C1101 1.328 . S
C1102 H1117 0.930 . S
Tb1103 N1094 2.617 . S
Tb1103 N1104 2.572 . S
Tb1103 O1138 2.349 . S
Tb1103 O1141 2.393 . S
Tb1103 O1142 2.465 . S
Tb1103 O1143 2.387 . S
Tb1103 O1145 2.428 . S
Tb1103 O1146 2.308 . S
Tb1103 C1167 2.802 . S
N1104 C1100 1.361 . S
N1104 Tb1103 2.572 . S
N1104 C1106 1.340 . S
C1105 C1099 1.416 . S
C1105 C1107 1.332 . S
C1105 H1113 0.931 . S
C1106 N1104 1.340 . S
C1106 C1107 1.407 . S
C1106 H1112 0.930 . S
C1107 C1105 1.332 . S
C1107 C1106 1.407 . S
C1107 H1109 0.929 . S
H1108 C1097 0.930 . S
H1109 C1107 0.929 . S
H1110 C1125 0.930 . S
H1111 C1132 0.929 . S
H1112 C1106 0.930 . S
H1113 C1105 0.931 . S
H1114 C1128 0.930 . S
H1115 C1095 0.930 . S
H1116 C1101 0.929 . S
H1117 C1102 0.930 . S
H1118 C1123 0.930 . S
H1119 C1098 0.930 . S
H1120 C1131 0.931 . S
N1121 Tb1092 2.617 . S
N1121 C1122 1.379 . S
N1121 C1125 1.334 . S
C1122 N1121 1.379 . S
C1122 C1124 1.416 . S
C1122 C1130 1.424 . S
C1123 H1118 0.930 . S
C1123 C1125 1.390 . S
C1123 C1126 1.339 . S
C1124 C1122 1.416 . S
C1124 C1126 1.416 . S
C1124 C1157 1.448 . S
C1125 H1110 0.930 . S
C1125 N1121 1.334 . S
C1125 C1123 1.390 . S
C1126 C1123 1.339 . S
C1126 C1124 1.416 . S
C1126 H1133 0.930 . S
N1127 Tb1092 2.572 . S
N1127 C1128 1.340 . S
N1127 C1130 1.361 . S
C1128 H1114 0.930 . S
C1128 N1127 1.340 . S
C1128 C1132 1.407 . S
C1129 C1130 1.413 . S
C1129 C1131 1.416 . S
C1129 C1158 1.427 . S
C1130 C1122 1.424 . S
C1130 N1127 1.361 . S
C1130 C1129 1.413 . S
C1131 H1120 0.931 . S
C1131 C1129 1.416 . S
C1131 C1132 1.332 . S
C1132 H1111 0.929 . S
C1132 C1128 1.407 . S
C1132 C1131 1.332 . S
H1133 C1126 0.930 . S
H1134 C1157 0.930 . S
H1135 C1158 0.929 . S
O1136 Tb1092 2.465 . S
O1136 C1156 1.264 . S
O1137 Tb1092 2.387 . S
O1137 C1148 1.264 . S
O1138 Tb1103 2.349 . S
O1138 C1148 1.243 . S
O1139 Tb1092 2.428 . S
O1139 C1156 1.256 . S
O1140 Tb1092 2.308 . S
O1140 C1155 1.266 . S
O1141 Tb1103 2.393 . S
O1141 C1155 1.248 . S
O1142 Tb1103 2.465 . S
O1142 C1167 1.264 . S
O1143 Tb1103 2.387 . S
O1143 C1159 1.264 . S
O1144 Tb1092 2.349 . S
O1144 C1159 1.243 . S
O1145 Tb1103 2.428 . S
O1145 C1167 1.256 . S
O1146 Tb1103 2.308 . S
O1146 C1166 1.266 . S
O1147 Tb1092 2.393 . S
O1147 C1166 1.248 . S
C1148 O1137 1.264 . S
C1148 O1138 1.243 . S
C1149 C1152 1.399 . S
C1149 C1154 1.383 . S
C1149 C1156 1.496 . S
C1150 C1151 1.399 . S
C1150 C1154 1.389 . S
C1151 C1150 1.399 . S
C1151 C1153 1.380 . S
C1151 H1168 0.929 . S
C1152 C1149 1.399 . S
C1152 C1153 1.392 . S
C1152 H1169 0.929 . S
C1153 C1151 1.380 . S
C1153 C1152 1.392 . S
C1153 H1170 0.929 . S
C1154 C1149 1.383 . S
C1154 C1150 1.389 . S
C1154 H1171 0.931 . S
C1155 O1140 1.266 . S
C1155 O1141 1.248 . S
C1156 Tb1092 2.802 . S
C1156 O1136 1.264 . S
C1156 O1139 1.256 . S
C1156 C1149 1.496 . S
C1157 C1124 1.448 . S
C1157 H1134 0.930 . S
C1157 C1158 1.328 . S
C1158 C1129 1.427 . S
C1158 H1135 0.929 . S
C1158 C1157 1.328 . S
C1159 O1143 1.264 . S
C1159 O1144 1.243 . S
C1160 C1163 1.399 . S
C1160 C1164 1.383 . S
C1160 C1167 1.496 . S
C1161 C1162 1.399 . S
C1161 C1164 1.389 . S
C1162 C1161 1.399 . S
C1162 C1165 1.380 . S
C1162 H1172 0.929 . S
C1163 C1160 1.399 . S
C1163 C1165 1.392 . S
C1163 H1173 0.929 . S
C1164 C1160 1.383 . S
C1164 C1161 1.389 . S
C1164 H1174 0.931 . S
C1165 C1162 1.380 . S
C1165 C1163 1.392 . S
C1165 H1175 0.929 . S
C1166 O1146 1.266 . S
C1166 O1147 1.248 . S
C1167 Tb1103 2.802 . S
C1167 O1142 1.264 . S
C1167 O1145 1.256 . S
C1167 C1160 1.496 . S
H1168 C1151 0.929 . S
H1169 C1152 0.929 . S
H1170 C1153 0.929 . S
H1171 C1154 0.931 . S
H1172 C1162 0.929 . S
H1173 C1163 0.929 . S
H1174 C1164 0.931 . S
H1175 C1165 0.929 . S
Tb1176 N1205 2.617 1_455 S
Tb1176 N1211 2.572 1_455 S
Tb1176 O1220 2.465 . S
Tb1176 O1221 2.387 1_455 S
Tb1176 O1223 2.428 . S
Tb1176 O1224 2.308 . S
Tb1176 O1228 2.349 . S
Tb1176 O1231 2.393 . S
Tb1176 C1240 2.802 . S
C1177 N1178 1.379 . S
C1177 C1180 1.416 . S
C1177 C1184 1.424 . S
N1178 C1177 1.379 . S
N1178 C1181 1.334 . S
N1178 Tb1187 2.617 . S
C1179 C1181 1.390 . S
C1179 C1182 1.339 . S
C1179 H1199 0.930 . S
C1180 C1177 1.416 . S
C1180 C1182 1.416 . S
C1180 C1186 1.448 . S
C1181 N1178 1.334 . S
C1181 C1179 1.390 . S
C1181 H1192 0.930 . S
C1182 C1179 1.339 . S
C1182 C1180 1.416 . S
C1182 H1203 0.930 . S
C1183 C1184 1.413 . S
C1183 C1185 1.427 . S
C1183 C1189 1.416 . S
C1184 C1177 1.424 . S
C1184 C1183 1.413 . S
C1184 N1188 1.361 . S
C1185 C1183 1.427 . S
C1185 C1186 1.328 . S
C1185 H1200 0.929 . S
C1186 C1180 1.448 . S
C1186 C1185 1.328 . S
C1186 H1201 0.930 . S
Tb1187 N1178 2.617 . S
Tb1187 N1188 2.572 . S
Tb1187 O1222 2.349 1_455 S
Tb1187 O1225 2.393 . S
Tb1187 O1226 2.465 . S
Tb1187 O1227 2.387 . S
Tb1187 O1229 2.428 . S
Tb1187 O1230 2.308 . S
Tb1187 C1251 2.802 . S
N1188 C1184 1.361 . S
N1188 Tb1187 2.572 . S
N1188 C1190 1.340 . S
C1189 C1183 1.416 . S
C1189 C1191 1.332 . S
C1189 H1197 0.931 . S
C1190 N1188 1.340 . S
C1190 C1191 1.407 . S
C1190 H1196 0.930 . S
C1191 C1189 1.332 . S
C1191 C1190 1.407 . S
C1191 H1193 0.929 . S
H1192 C1181 0.930 . S
H1193 C1191 0.929 . S
H1194 C1209 0.912 1_455 S
H1195 C1216 0.929 . S
H1196 C1190 0.930 . S
H1197 C1189 0.931 . S
H1198 C1212 0.930 1_455 S
H1199 C1179 0.930 . S
H1200 C1185 0.929 . S
H1201 C1186 0.930 . S
H1202 C1207 0.930 . S
H1203 C1182 0.930 . S
H1204 C1215 0.931 . S
N1205 Tb1176 2.617 1_655 S
N1205 C1206 1.379 . S
N1205 C1209 1.329 . S
C1206 N1205 1.379 . S
C1206 C1208 1.416 . S
C1206 C1214 1.424 . S
C1207 H1202 0.930 . S
C1207 C1209 1.413 . S
C1207 C1210 1.339 . S
C1208 C1206 1.416 . S
C1208 C1210 1.416 . S
C1208 C1241 1.448 . S
C1209 H1194 0.912 1_655 S
C1209 N1205 1.329 . S
C1209 C1207 1.413 . S
C1210 C1207 1.339 . S
C1210 C1208 1.416 . S
C1210 H1217 0.930 . S
N1211 Tb1176 2.572 1_655 S
N1211 C1212 1.340 . S
N1211 C1214 1.361 . S
C1212 H1198 0.930 1_655 S
C1212 N1211 1.340 . S
C1212 C1216 1.407 . S
C1213 C1214 1.413 . S
C1213 C1215 1.416 . S
C1213 C1242 1.427 . S
C1214 C1206 1.424 . S
C1214 N1211 1.361 . S
C1214 C1213 1.413 . S
C1215 H1204 0.931 . S
C1215 C1213 1.416 . S
C1215 C1216 1.332 . S
C1216 H1195 0.929 . S
C1216 C1212 1.407 . S
C1216 C1215 1.332 . S
H1217 C1210 0.930 . S
H1218 C1241 0.930 . S
H1219 C1242 0.929 . S
O1220 Tb1176 2.465 . S
O1220 C1240 1.264 . S
O1221 Tb1176 2.387 1_655 S
O1221 C1232 1.264 . S
O1222 Tb1187 2.349 1_655 S
O1222 C1232 1.243 . S
O1223 Tb1176 2.428 . S
O1223 C1240 1.256 . S
O1224 Tb1176 2.308 . S
O1224 C1239 1.266 . S
O1225 Tb1187 2.393 . S
O1225 C1239 1.248 . S
O1226 Tb1187 2.465 . S
O1226 C1251 1.264 . S
O1227 Tb1187 2.387 . S
O1227 C1243 1.264 . S
O1228 Tb1176 2.349 . S
O1228 C1243 1.243 . S
O1229 Tb1187 2.428 . S
O1229 C1251 1.256 . S
O1230 Tb1187 2.308 . S
O1230 C1250 1.266 . S
O1231 Tb1176 2.393 . S
O1231 C1250 1.248 . S
C1232 O1221 1.264 . S
C1232 O1222 1.243 . S
C1233 C1236 1.399 . S
C1233 C1238 1.383 . S
C1233 C1240 1.496 . S
C1234 C1235 1.399 . S
C1234 C1238 1.389 . S
C1235 C1234 1.399 . S
C1235 C1237 1.380 . S
C1235 H1252 0.929 . S
C1236 C1233 1.399 . S
C1236 C1237 1.392 . S
C1236 H1253 0.929 . S
C1237 C1235 1.380 . S
C1237 C1236 1.392 . S
C1237 H1254 0.929 . S
C1238 C1233 1.383 . S
C1238 C1234 1.389 . S
C1238 H1255 0.931 . S
C1239 O1224 1.266 . S
C1239 O1225 1.248 . S
C1240 Tb1176 2.802 . S
C1240 O1220 1.264 . S
C1240 O1223 1.256 . S
C1240 C1233 1.496 . S
C1241 C1208 1.448 . S
C1241 H1218 0.930 . S
C1241 C1242 1.328 . S
C1242 C1213 1.427 . S
C1242 H1219 0.929 . S
C1242 C1241 1.328 . S
C1243 O1227 1.264 . S
C1243 O1228 1.243 . S
C1244 C1247 1.399 . S
C1244 C1248 1.383 . S
C1244 C1251 1.496 1_655 S
C1245 C1246 1.399 . S
C1245 C1248 1.389 . S
C1246 C1245 1.399 . S
C1246 C1249 1.380 . S
C1246 H1256 0.929 . S
C1247 C1244 1.399 . S
C1247 C1249 1.392 . S
C1247 H1257 0.929 . S
C1248 C1244 1.383 . S
C1248 C1245 1.389 . S
C1248 H1258 0.931 . S
C1249 C1246 1.380 . S
C1249 C1247 1.392 . S
C1249 H1259 0.929 . S
C1250 O1230 1.266 . S
C1250 O1231 1.248 . S
C1251 Tb1187 2.802 . S
C1251 O1226 1.264 . S
C1251 O1229 1.256 . S
C1251 C1244 1.496 1_455 S
H1252 C1235 0.929 . S
H1253 C1236 0.929 . S
H1254 C1237 0.929 . S
H1255 C1238 0.931 . S
H1256 C1246 0.929 . S
H1257 C1247 0.929 . S
H1258 C1248 0.931 . S
H1259 C1249 0.929 . S
Tb1260 N1289 2.617 . S
Tb1260 N1295 2.572 . S
Tb1260 O1304 2.465 . S
Tb1260 O1305 2.387 . S
Tb1260 O1307 2.428 . S
Tb1260 O1308 2.308 . S
Tb1260 O1312 2.349 . S
Tb1260 O1315 2.393 . S
Tb1260 C1324 2.802 . S
C1261 N1262 1.379 . S
C1261 C1264 1.416 . S
C1261 C1268 1.424 . S
N1262 C1261 1.379 . S
N1262 C1265 1.334 . S
N1262 Tb1271 2.617 . S
C1263 C1265 1.390 . S
C1263 C1266 1.339 . S
C1263 H1283 0.930 . S
C1264 C1261 1.416 . S
C1264 C1266 1.416 . S
C1264 C1270 1.448 . S
C1265 N1262 1.334 . S
C1265 C1263 1.390 . S
C1265 H1276 0.930 . S
C1266 C1263 1.339 . S
C1266 C1264 1.416 . S
C1266 H1287 0.930 . S
C1267 C1268 1.413 . S
C1267 C1269 1.427 . S
C1267 C1273 1.416 . S
C1268 C1261 1.424 . S
C1268 C1267 1.413 . S
C1268 N1272 1.361 . S
C1269 C1267 1.427 . S
C1269 C1270 1.328 . S
C1269 H1284 0.929 . S
C1270 C1264 1.448 . S
C1270 C1269 1.328 . S
C1270 H1285 0.930 . S
Tb1271 N1262 2.617 . S
Tb1271 N1272 2.572 . S
Tb1271 O1306 2.349 . S
Tb1271 O1309 2.393 . S
Tb1271 O1310 2.465 . S
Tb1271 O1311 2.387 . S
Tb1271 O1313 2.428 . S
Tb1271 O1314 2.308 . S
Tb1271 C1335 2.802 . S
N1272 C1268 1.361 . S
N1272 Tb1271 2.572 . S
N1272 C1274 1.340 . S
C1273 C1267 1.416 . S
C1273 C1275 1.332 . S
C1273 H1281 0.931 . S
C1274 N1272 1.340 . S
C1274 C1275 1.407 . S
C1274 H1280 0.930 . S
C1275 C1273 1.332 . S
C1275 C1274 1.407 . S
C1275 H1277 0.929 . S
H1276 C1265 0.930 . S
H1277 C1275 0.929 . S
H1278 C1293 0.930 . S
H1279 C1300 0.929 . S
H1280 C1274 0.930 . S
H1281 C1273 0.931 . S
H1282 C1296 0.930 . S
H1283 C1263 0.930 . S
H1284 C1269 0.929 . S
H1285 C1270 0.930 . S
H1286 C1291 0.930 . S
H1287 C1266 0.930 . S
H1288 C1299 0.931 . S
N1289 Tb1260 2.617 . S
N1289 C1290 1.379 . S
N1289 C1293 1.334 . S
C1290 N1289 1.379 . S
C1290 C1292 1.416 . S
C1290 C1298 1.424 . S
C1291 H1286 0.930 . S
C1291 C1293 1.390 . S
C1291 C1294 1.339 . S
C1292 C1290 1.416 . S
C1292 C1294 1.416 . S
C1292 C1325 1.448 . S
C1293 H1278 0.930 . S
C1293 N1289 1.334 . S
C1293 C1291 1.390 . S
C1294 C1291 1.339 . S
C1294 C1292 1.416 . S
C1294 H1301 0.930 . S
N1295 Tb1260 2.572 . S
N1295 C1296 1.340 . S
N1295 C1298 1.361 . S
C1296 H1282 0.930 . S
C1296 N1295 1.340 . S
C1296 C1300 1.407 . S
C1297 C1298 1.413 . S
C1297 C1299 1.416 . S
C1297 C1326 1.427 . S
C1298 C1290 1.424 . S
C1298 N1295 1.361 . S
C1298 C1297 1.413 . S
C1299 H1288 0.931 . S
C1299 C1297 1.416 . S
C1299 C1300 1.332 . S
C1300 H1279 0.929 . S
C1300 C1296 1.407 . S
C1300 C1299 1.332 . S
H1301 C1294 0.930 . S
H1302 C1325 0.930 . S
H1303 C1326 0.929 . S
O1304 Tb1260 2.465 . S
O1304 C1324 1.264 . S
O1305 Tb1260 2.387 . S
O1305 C1316 1.264 . S
O1306 Tb1271 2.349 . S
O1306 C1316 1.243 . S
O1307 Tb1260 2.428 . S
O1307 C1324 1.256 . S
O1308 Tb1260 2.308 . S
O1308 C1323 1.266 . S
O1309 Tb1271 2.393 . S
O1309 C1323 1.248 . S
O1310 Tb1271 2.465 . S
O1310 C1335 1.264 . S
O1311 Tb1271 2.387 . S
O1311 C1327 1.264 . S
O1312 Tb1260 2.349 . S
O1312 C1327 1.243 . S
O1313 Tb1271 2.428 . S
O1313 C1335 1.256 . S
O1314 Tb1271 2.308 . S
O1314 C1334 1.266 . S
O1315 Tb1260 2.393 . S
O1315 C1334 1.248 . S
C1316 O1305 1.264 . S
C1316 O1306 1.243 . S
C1317 C1320 1.399 . S
C1317 C1322 1.383 . S
C1317 C1324 1.496 . S
C1318 C1319 1.399 . S
C1318 C1322 1.389 . S
C1319 C1318 1.399 . S
C1319 C1321 1.380 . S
C1319 H1336 0.929 . S
C1320 C1317 1.399 . S
C1320 C1321 1.392 . S
C1320 H1337 0.929 . S
C1321 C1319 1.380 . S
C1321 C1320 1.392 . S
C1321 H1338 0.929 . S
C1322 C1317 1.383 . S
C1322 C1318 1.389 . S
C1322 H1339 0.931 . S
C1323 O1308 1.266 . S
C1323 O1309 1.248 . S
C1324 Tb1260 2.802 . S
C1324 O1304 1.264 . S
C1324 O1307 1.256 . S
C1324 C1317 1.496 . S
C1325 C1292 1.448 . S
C1325 H1302 0.930 . S
C1325 C1326 1.328 . S
C1326 C1297 1.427 . S
C1326 H1303 0.929 . S
C1326 C1325 1.328 . S
C1327 O1311 1.264 . S
C1327 O1312 1.243 . S
C1328 C1331 1.399 . S
C1328 C1332 1.383 . S
C1328 C1335 1.496 . S
C1329 C1330 1.399 . S
C1329 C1332 1.389 . S
C1330 C1329 1.399 . S
C1330 C1333 1.380 . S
C1330 H1340 0.929 . S
C1331 C1328 1.399 . S
C1331 C1333 1.392 . S
C1331 H1341 0.929 . S
C1332 C1328 1.383 . S
C1332 C1329 1.389 . S
C1332 H1342 0.931 . S
C1333 C1330 1.380 . S
C1333 C1331 1.392 . S
C1333 H1343 0.929 . S
C1334 O1314 1.266 . S
C1334 O1315 1.248 . S
C1335 Tb1271 2.802 . S
C1335 O1310 1.264 . S
C1335 O1313 1.256 . S
C1335 C1328 1.496 . S
H1336 C1319 0.929 . S
H1337 C1320 0.929 . S
H1338 C1321 0.929 . S
H1339 C1322 0.931 . S
H1340 C1330 0.929 . S
H1341 C1331 0.929 . S
H1342 C1332 0.931 . S
H1343 C1333 0.929 . S
Tb1344 N1373 2.617 . S
Tb1344 N1379 2.572 . S
Tb1344 O1388 2.465 . S
Tb1344 O1389 2.387 . S
Tb1344 O1391 2.428 . S
Tb1344 O1392 2.308 . S
Tb1344 O1396 2.349 . S
Tb1344 O1399 2.393 . S
Tb1344 C1408 2.802 . S
C1345 N1346 1.379 . S
C1345 C1348 1.416 . S
C1345 C1352 1.424 . S
N1346 C1345 1.379 . S
N1346 C1349 1.334 . S
N1346 Tb1355 2.617 . S
C1347 C1349 1.390 . S
C1347 C1350 1.339 . S
C1347 H1367 0.930 . S
C1348 C1345 1.416 . S
C1348 C1350 1.416 . S
C1348 C1354 1.448 . S
C1349 N1346 1.334 . S
C1349 C1347 1.390 . S
C1349 H1360 0.930 . S
C1350 C1347 1.339 . S
C1350 C1348 1.416 . S
C1350 H1371 0.930 . S
C1351 C1352 1.413 . S
C1351 C1353 1.427 . S
C1351 C1357 1.416 . S
C1352 C1345 1.424 . S
C1352 C1351 1.413 . S
C1352 N1356 1.361 . S
C1353 C1351 1.427 . S
C1353 C1354 1.328 . S
C1353 H1368 0.929 . S
C1354 C1348 1.448 . S
C1354 C1353 1.328 . S
C1354 H1369 0.930 . S
Tb1355 N1346 2.617 . S
Tb1355 N1356 2.572 . S
Tb1355 O1390 2.349 . S
Tb1355 O1393 2.393 . S
Tb1355 O1394 2.465 . S
Tb1355 O1395 2.387 . S
Tb1355 O1397 2.428 . S
Tb1355 O1398 2.308 . S
Tb1355 C1419 2.802 . S
N1356 C1352 1.361 . S
N1356 Tb1355 2.572 . S
N1356 C1358 1.340 . S
C1357 C1351 1.416 . S
C1357 C1359 1.332 . S
C1357 H1365 0.931 . S
C1358 N1356 1.340 . S
C1358 C1359 1.407 . S
C1358 H1364 0.930 . S
C1359 C1357 1.332 . S
C1359 C1358 1.407 . S
C1359 H1361 0.929 . S
H1360 C1349 0.930 . S
H1361 C1359 0.929 . S
H1362 C1377 0.930 . S
H1363 C1384 0.929 . S
H1364 C1358 0.930 . S
H1365 C1357 0.931 . S
H1366 C1380 0.930 . S
H1367 C1347 0.930 . S
H1368 C1353 0.929 . S
H1369 C1354 0.930 . S
H1370 C1375 0.930 . S
H1371 C1350 0.930 . S
H1372 C1383 0.931 . S
N1373 Tb1344 2.617 . S
N1373 C1374 1.379 . S
N1373 C1377 1.334 . S
C1374 N1373 1.379 . S
C1374 C1376 1.416 . S
C1374 C1382 1.424 . S
C1375 H1370 0.930 . S
C1375 C1377 1.390 . S
C1375 C1378 1.339 . S
C1376 C1374 1.416 . S
C1376 C1378 1.416 . S
C1376 C1409 1.448 . S
C1377 H1362 0.930 . S
C1377 N1373 1.334 . S
C1377 C1375 1.390 . S
C1378 C1375 1.339 . S
C1378 C1376 1.416 . S
C1378 H1385 0.930 . S
N1379 Tb1344 2.572 . S
N1379 C1380 1.340 . S
N1379 C1382 1.361 . S
C1380 H1366 0.930 . S
C1380 N1379 1.340 . S
C1380 C1384 1.407 . S
C1381 C1382 1.413 . S
C1381 C1383 1.416 . S
C1381 C1410 1.427 . S
C1382 C1374 1.424 . S
C1382 N1379 1.361 . S
C1382 C1381 1.413 . S
C1383 H1372 0.931 . S
C1383 C1381 1.416 . S
C1383 C1384 1.332 . S
C1384 H1363 0.929 . S
C1384 C1380 1.407 . S
C1384 C1383 1.332 . S
H1385 C1378 0.930 . S
H1386 C1409 0.930 . S
H1387 C1410 0.929 . S
O1388 Tb1344 2.465 . S
O1388 C1408 1.264 . S
O1389 Tb1344 2.387 . S
O1389 C1400 1.264 . S
O1390 Tb1355 2.349 . S
O1390 C1400 1.243 . S
O1391 Tb1344 2.428 . S
O1391 C1408 1.256 . S
O1392 Tb1344 2.308 . S
O1392 C1407 1.266 . S
O1393 Tb1355 2.393 . S
O1393 C1407 1.248 . S
O1394 Tb1355 2.465 . S
O1394 C1419 1.264 . S
O1395 Tb1355 2.387 . S
O1395 C1411 1.264 . S
O1396 Tb1344 2.349 . S
O1396 C1411 1.243 . S
O1397 Tb1355 2.428 . S
O1397 C1419 1.256 . S
O1398 Tb1355 2.308 . S
O1398 C1418 1.266 . S
O1399 Tb1344 2.393 . S
O1399 C1418 1.248 . S
C1400 O1389 1.264 . S
C1400 O1390 1.243 . S
C1401 C1404 1.399 . S
C1401 C1406 1.383 . S
C1401 C1408 1.496 . S
C1402 C1403 1.399 . S
C1402 C1406 1.389 . S
C1403 C1402 1.399 . S
C1403 C1405 1.380 . S
C1403 H1420 0.929 . S
C1404 C1401 1.399 . S
C1404 C1405 1.392 . S
C1404 H1421 0.929 . S
C1405 C1403 1.380 . S
C1405 C1404 1.392 . S
C1405 H1422 0.929 . S
C1406 C1401 1.383 . S
C1406 C1402 1.389 . S
C1406 H1423 0.931 . S
C1407 O1392 1.266 . S
C1407 O1393 1.248 . S
C1408 Tb1344 2.802 . S
C1408 O1388 1.264 . S
C1408 O1391 1.256 . S
C1408 C1401 1.496 . S
C1409 C1376 1.448 . S
C1409 H1386 0.930 . S
C1409 C1410 1.328 . S
C1410 C1381 1.427 . S
C1410 H1387 0.929 . S
C1410 C1409 1.328 . S
C1411 O1395 1.264 . S
C1411 O1396 1.243 . S
C1412 C1415 1.399 . S
C1412 C1416 1.383 . S
C1412 C1419 1.496 . S
C1413 C1414 1.399 . S
C1413 C1416 1.389 . S
C1414 C1413 1.399 . S
C1414 C1417 1.380 . S
C1414 H1424 0.929 . S
C1415 C1412 1.399 . S
C1415 C1417 1.392 . S
C1415 H1425 0.929 . S
C1416 C1412 1.383 . S
C1416 C1413 1.389 . S
C1416 H1426 0.931 . S
C1417 C1414 1.380 . S
C1417 C1415 1.392 . S
C1417 H1427 0.929 . S
C1418 O1398 1.266 . S
C1418 O1399 1.248 . S
C1419 Tb1355 2.802 . S
C1419 O1394 1.264 . S
C1419 O1397 1.256 . S
C1419 C1412 1.496 . S
H1420 C1403 0.929 . S
H1421 C1404 0.929 . S
H1422 C1405 0.929 . S
H1423 C1406 0.931 . S
H1424 C1414 0.929 . S
H1425 C1415 0.929 . S
H1426 C1416 0.931 . S
H1427 C1417 0.929 . S
Tb1428 N1457 2.617 . S
Tb1428 N1463 2.572 . S
Tb1428 O1472 2.465 . S
Tb1428 O1473 2.387 . S
Tb1428 O1475 2.428 . S
Tb1428 O1476 2.308 . S
Tb1428 O1480 2.349 . S
Tb1428 O1483 2.393 . S
Tb1428 C1492 2.802 . S
C1429 N1430 1.379 . S
C1429 C1432 1.416 . S
C1429 C1436 1.424 . S
N1430 C1429 1.379 . S
N1430 C1433 1.334 . S
N1430 Tb1439 2.617 . S
C1431 C1433 1.390 . S
C1431 C1434 1.339 . S
C1431 H1451 0.930 . S
C1432 C1429 1.416 . S
C1432 C1434 1.416 . S
C1432 C1438 1.448 . S
C1433 N1430 1.334 . S
C1433 C1431 1.390 . S
C1433 H1444 0.930 . S
C1434 C1431 1.339 . S
C1434 C1432 1.416 . S
C1434 H1455 0.930 . S
C1435 C1436 1.413 . S
C1435 C1437 1.427 . S
C1435 C1441 1.416 . S
C1436 C1429 1.424 . S
C1436 C1435 1.413 . S
C1436 N1440 1.361 . S
C1437 C1435 1.427 . S
C1437 C1438 1.328 . S
C1437 H1452 0.929 . S
C1438 C1432 1.448 . S
C1438 C1437 1.328 . S
C1438 H1453 0.930 . S
Tb1439 N1430 2.617 . S
Tb1439 N1440 2.572 . S
Tb1439 O1474 2.349 . S
Tb1439 O1477 2.393 . S
Tb1439 O1478 2.465 . S
Tb1439 O1479 2.387 . S
Tb1439 O1481 2.428 . S
Tb1439 O1482 2.308 . S
Tb1439 C1503 2.802 . S
N1440 C1436 1.361 . S
N1440 Tb1439 2.572 . S
N1440 C1442 1.340 . S
C1441 C1435 1.416 . S
C1441 C1443 1.332 . S
C1441 H1449 0.931 . S
C1442 N1440 1.340 . S
C1442 C1443 1.407 . S
C1442 H1448 0.930 . S
C1443 C1441 1.332 . S
C1443 C1442 1.407 . S
C1443 H1445 0.929 . S
H1444 C1433 0.930 . S
H1445 C1443 0.929 . S
H1446 C1461 0.930 . S
H1447 C1468 0.929 . S
H1448 C1442 0.930 . S
H1449 C1441 0.931 . S
H1450 C1464 0.930 . S
H1451 C1431 0.930 . S
H1452 C1437 0.929 . S
H1453 C1438 0.930 . S
H1454 C1459 0.930 . S
H1455 C1434 0.930 . S
H1456 C1467 0.931 . S
N1457 Tb1428 2.617 . S
N1457 C1458 1.379 . S
N1457 C1461 1.334 . S
C1458 N1457 1.379 . S
C1458 C1460 1.416 . S
C1458 C1466 1.424 . S
C1459 H1454 0.930 . S
C1459 C1461 1.390 . S
C1459 C1462 1.339 . S
C1460 C1458 1.416 . S
C1460 C1462 1.416 . S
C1460 C1493 1.448 . S
C1461 H1446 0.930 . S
C1461 N1457 1.334 . S
C1461 C1459 1.390 . S
C1462 C1459 1.339 . S
C1462 C1460 1.416 . S
C1462 H1469 0.930 . S
N1463 Tb1428 2.572 . S
N1463 C1464 1.340 . S
N1463 C1466 1.361 . S
C1464 H1450 0.930 . S
C1464 N1463 1.340 . S
C1464 C1468 1.407 . S
C1465 C1466 1.413 . S
C1465 C1467 1.416 . S
C1465 C1494 1.427 . S
C1466 C1458 1.424 . S
C1466 N1463 1.361 . S
C1466 C1465 1.413 . S
C1467 H1456 0.931 . S
C1467 C1465 1.416 . S
C1467 C1468 1.332 . S
C1468 H1447 0.929 . S
C1468 C1464 1.407 . S
C1468 C1467 1.332 . S
H1469 C1462 0.930 . S
H1470 C1493 0.930 . S
H1471 C1494 0.929 . S
O1472 Tb1428 2.465 . S
O1472 C1492 1.264 . S
O1473 Tb1428 2.387 . S
O1473 C1484 1.264 . S
O1474 Tb1439 2.349 . S
O1474 C1484 1.243 . S
O1475 Tb1428 2.428 . S
O1475 C1492 1.256 . S
O1476 Tb1428 2.308 . S
O1476 C1491 1.266 . S
O1477 Tb1439 2.393 . S
O1477 C1491 1.248 . S
O1478 Tb1439 2.465 . S
O1478 C1503 1.264 . S
O1479 Tb1439 2.387 . S
O1479 C1495 1.264 . S
O1480 Tb1428 2.349 . S
O1480 C1495 1.243 . S
O1481 Tb1439 2.428 . S
O1481 C1503 1.256 . S
O1482 Tb1439 2.308 . S
O1482 C1502 1.266 . S
O1483 Tb1428 2.393 . S
O1483 C1502 1.248 . S
C1484 O1473 1.264 . S
C1484 O1474 1.243 . S
C1485 C1488 1.399 . S
C1485 C1490 1.383 . S
C1485 C1492 1.496 . S
C1486 C1487 1.399 . S
C1486 C1490 1.389 . S
C1487 C1486 1.399 . S
C1487 C1489 1.380 . S
C1487 H1504 0.929 . S
C1488 C1485 1.399 . S
C1488 C1489 1.392 . S
C1488 H1505 0.929 . S
C1489 C1487 1.380 . S
C1489 C1488 1.392 . S
C1489 H1506 0.929 . S
C1490 C1485 1.383 . S
C1490 C1486 1.389 . S
C1490 H1507 0.931 . S
C1491 O1476 1.266 . S
C1491 O1477 1.248 . S
C1492 Tb1428 2.802 . S
C1492 O1472 1.264 . S
C1492 O1475 1.256 . S
C1492 C1485 1.496 . S
C1493 C1460 1.448 . S
C1493 H1470 0.930 . S
C1493 C1494 1.328 . S
C1494 C1465 1.427 . S
C1494 H1471 0.929 . S
C1494 C1493 1.328 . S
C1495 O1479 1.264 . S
C1495 O1480 1.243 . S
C1496 C1499 1.399 . S
C1496 C1500 1.383 . S
C1496 C1503 1.496 . S
C1497 C1498 1.399 . S
C1497 C1500 1.389 . S
C1498 C1497 1.399 . S
C1498 C1501 1.380 . S
C1498 H1508 0.929 . S
C1499 C1496 1.399 . S
C1499 C1501 1.392 . S
C1499 H1509 0.929 . S
C1500 C1496 1.383 . S
C1500 C1497 1.389 . S
C1500 H1510 0.931 . S
C1501 C1498 1.380 . S
C1501 C1499 1.392 . S
C1501 H1511 0.929 . S
C1502 O1482 1.266 . S
C1502 O1483 1.248 . S
C1503 Tb1439 2.802 . S
C1503 O1478 1.264 . S
C1503 O1481 1.256 . S
C1503 C1496 1.496 . S
H1504 C1487 0.929 . S
H1505 C1488 0.929 . S
H1506 C1489 0.929 . S
H1507 C1490 0.931 . S
H1508 C1498 0.929 . S
H1509 C1499 0.929 . S
H1510 C1500 0.931 . S
H1511 C1501 0.929 . S
Tb1512 N1541 2.617 . S
Tb1512 N1547 2.572 . S
Tb1512 O1556 2.465 . S
Tb1512 O1557 2.387 . S
Tb1512 O1559 2.428 . S
Tb1512 O1560 2.308 . S
Tb1512 O1564 2.349 . S
Tb1512 O1567 2.393 . S
Tb1512 C1576 2.802 . S
C1513 N1514 1.379 . S
C1513 C1516 1.416 . S
C1513 C1520 1.424 . S
N1514 C1513 1.379 . S
N1514 C1517 1.334 . S
N1514 Tb1523 2.617 . S
C1515 C1517 1.390 . S
C1515 C1518 1.339 . S
C1515 H1535 0.930 . S
C1516 C1513 1.416 . S
C1516 C1518 1.416 . S
C1516 C1522 1.448 . S
C1517 N1514 1.334 . S
C1517 C1515 1.390 . S
C1517 H1528 0.930 . S
C1518 C1515 1.339 . S
C1518 C1516 1.416 . S
C1518 H1539 0.930 . S
C1519 C1520 1.413 . S
C1519 C1521 1.427 . S
C1519 C1525 1.416 . S
C1520 C1513 1.424 . S
C1520 C1519 1.413 . S
C1520 N1524 1.361 . S
C1521 C1519 1.427 . S
C1521 C1522 1.328 . S
C1521 H1536 0.929 . S
C1522 C1516 1.448 . S
C1522 C1521 1.328 . S
C1522 H1537 0.930 . S
Tb1523 N1514 2.617 . S
Tb1523 N1524 2.572 . S
Tb1523 O1558 2.349 . S
Tb1523 O1561 2.393 . S
Tb1523 O1562 2.465 . S
Tb1523 O1563 2.387 . S
Tb1523 O1565 2.428 . S
Tb1523 O1566 2.308 . S
Tb1523 C1587 2.802 . S
N1524 C1520 1.361 . S
N1524 Tb1523 2.572 . S
N1524 C1526 1.340 . S
C1525 C1519 1.416 . S
C1525 C1527 1.332 . S
C1525 H1533 0.931 . S
C1526 N1524 1.340 . S
C1526 C1527 1.407 . S
C1526 H1532 0.930 . S
C1527 C1525 1.332 . S
C1527 C1526 1.407 . S
C1527 H1529 0.929 . S
H1528 C1517 0.930 . S
H1529 C1527 0.929 . S
H1530 C1545 0.930 . S
H1531 C1552 0.929 . S
H1532 C1526 0.930 . S
H1533 C1525 0.931 . S
H1534 C1548 0.930 . S
H1535 C1515 0.930 . S
H1536 C1521 0.929 . S
H1537 C1522 0.930 . S
H1538 C1543 0.930 . S
H1539 C1518 0.930 . S
H1540 C1551 0.931 . S
N1541 Tb1512 2.617 . S
N1541 C1542 1.379 . S
N1541 C1545 1.334 . S
C1542 N1541 1.379 . S
C1542 C1544 1.416 . S
C1542 C1550 1.424 . S
C1543 H1538 0.930 . S
C1543 C1545 1.390 . S
C1543 C1546 1.339 . S
C1544 C1542 1.416 . S
C1544 C1546 1.416 . S
C1544 C1577 1.448 . S
C1545 H1530 0.930 . S
C1545 N1541 1.334 . S
C1545 C1543 1.390 . S
C1546 C1543 1.339 . S
C1546 C1544 1.416 . S
C1546 H1553 0.930 . S
N1547 Tb1512 2.572 . S
N1547 C1548 1.340 . S
N1547 C1550 1.361 . S
C1548 H1534 0.930 . S
C1548 N1547 1.340 . S
C1548 C1552 1.407 . S
C1549 C1550 1.413 . S
C1549 C1551 1.416 . S
C1549 C1578 1.427 . S
C1550 C1542 1.424 . S
C1550 N1547 1.361 . S
C1550 C1549 1.413 . S
C1551 H1540 0.931 . S
C1551 C1549 1.416 . S
C1551 C1552 1.332 . S
C1552 H1531 0.929 . S
C1552 C1548 1.407 . S
C1552 C1551 1.332 . S
H1553 C1546 0.930 . S
H1554 C1577 0.930 . S
H1555 C1578 0.929 . S
O1556 Tb1512 2.465 . S
O1556 C1576 1.264 . S
O1557 Tb1512 2.387 . S
O1557 C1568 1.264 . S
O1558 Tb1523 2.349 . S
O1558 C1568 1.243 . S
O1559 Tb1512 2.428 . S
O1559 C1576 1.256 . S
O1560 Tb1512 2.308 . S
O1560 C1575 1.266 . S
O1561 Tb1523 2.393 . S
O1561 C1575 1.248 . S
O1562 Tb1523 2.465 . S
O1562 C1587 1.264 . S
O1563 Tb1523 2.387 . S
O1563 C1579 1.264 . S
O1564 Tb1512 2.349 . S
O1564 C1579 1.243 . S
O1565 Tb1523 2.428 . S
O1565 C1587 1.256 . S
O1566 Tb1523 2.308 . S
O1566 C1586 1.266 . S
O1567 Tb1512 2.393 . S
O1567 C1586 1.248 . S
C1568 O1557 1.264 . S
C1568 O1558 1.243 . S
C1569 C1572 1.399 . S
C1569 C1574 1.383 . S
C1569 C1576 1.496 . S
C1570 C1571 1.399 . S
C1570 C1574 1.389 . S
C1571 C1570 1.399 . S
C1571 C1573 1.380 . S
C1571 H1588 0.929 . S
C1572 C1569 1.399 . S
C1572 C1573 1.392 . S
C1572 H1589 0.929 . S
C1573 C1571 1.380 . S
C1573 C1572 1.392 . S
C1573 H1590 0.929 . S
C1574 C1569 1.383 . S
C1574 C1570 1.389 . S
C1574 H1591 0.931 . S
C1575 O1560 1.266 . S
C1575 O1561 1.248 . S
C1576 Tb1512 2.802 . S
C1576 O1556 1.264 . S
C1576 O1559 1.256 . S
C1576 C1569 1.496 . S
C1577 C1544 1.448 . S
C1577 H1554 0.930 . S
C1577 C1578 1.328 . S
C1578 C1549 1.427 . S
C1578 H1555 0.929 . S
C1578 C1577 1.328 . S
C1579 O1563 1.264 . S
C1579 O1564 1.243 . S
C1580 C1583 1.399 . S
C1580 C1584 1.383 . S
C1580 C1587 1.496 . S
C1581 C1582 1.399 . S
C1581 C1584 1.389 . S
C1582 C1581 1.399 . S
C1582 C1585 1.380 . S
C1582 H1592 0.929 . S
C1583 C1580 1.399 . S
C1583 C1585 1.392 . S
C1583 H1593 0.929 . S
C1584 C1580 1.383 . S
C1584 C1581 1.389 . S
C1584 H1594 0.931 . S
C1585 C1582 1.380 . S
C1585 C1583 1.392 . S
C1585 H1595 0.929 . S
C1586 O1566 1.266 . S
C1586 O1567 1.248 . S
C1587 Tb1523 2.802 . S
C1587 O1562 1.264 . S
C1587 O1565 1.256 . S
C1587 C1580 1.496 . S
H1588 C1571 0.929 . S
H1589 C1572 0.929 . S
H1590 C1573 0.929 . S
H1591 C1574 0.931 . S
H1592 C1582 0.929 . S
H1593 C1583 0.929 . S
H1594 C1584 0.931 . S
H1595 C1585 0.929 . S
Tb1596 N1625 2.617 1_455 S
Tb1596 N1631 2.572 1_455 S
Tb1596 O1640 2.465 1_455 S
Tb1596 O1641 2.387 . S
Tb1596 O1643 2.428 1_455 S
Tb1596 O1644 2.308 . S
Tb1596 O1648 2.349 . S
Tb1596 O1651 2.393 . S
Tb1596 C1660 2.802 1_455 S
C1597 N1598 1.379 . S
C1597 C1600 1.416 . S
C1597 C1604 1.424 1_556 S
N1598 C1597 1.379 . S
N1598 C1601 1.334 . S
N1598 Tb1607 2.617 1_556 S
C1599 C1601 1.390 . S
C1599 C1602 1.339 . S
C1599 H1619 0.930 . S
C1600 C1597 1.416 . S
C1600 C1602 1.416 . S
C1600 C1606 1.448 . S
C1601 N1598 1.334 . S
C1601 C1599 1.390 . S
C1601 H1612 0.930 . S
C1602 C1599 1.339 . S
C1602 C1600 1.416 . S
C1602 H1623 0.930 . S
C1603 C1604 1.413 . S
C1603 C1605 1.427 . S
C1603 C1609 1.416 . S
C1604 C1597 1.424 1_554 S
C1604 C1603 1.413 . S
C1604 N1608 1.361 . S
C1605 C1603 1.427 . S
C1605 C1606 1.328 1_554 S
C1605 H1620 0.929 . S
C1606 C1600 1.448 . S
C1606 C1605 1.328 1_556 S
C1606 H1621 0.930 . S
Tb1607 N1598 2.617 1_554 S
Tb1607 N1608 2.572 . S
Tb1607 O1642 2.349 . S
Tb1607 O1645 2.393 1_554 S
Tb1607 O1646 2.465 . S
Tb1607 O1647 2.387 . S
Tb1607 O1649 2.428 1_554 S
Tb1607 O1650 2.308 . S
Tb1607 C1671 2.802 . S
N1608 C1604 1.361 . S
N1608 Tb1607 2.572 . S
N1608 C1610 1.340 . S
C1609 C1603 1.416 . S
C1609 C1611 1.332 . S
C1609 H1617 0.931 . S
C1610 N1608 1.340 . S
C1610 C1611 1.407 . S
C1610 H1616 0.930 . S
C1611 C1609 1.332 . S
C1611 C1610 1.407 . S
C1611 H1613 0.929 . S
H1612 C1601 0.930 . S
H1613 C1611 0.929 . S
H1614 C1629 0.930 1_455 S
H1615 C1636 0.929 1_556 S
H1616 C1610 0.930 . S
H1617 C1609 0.931 . S
H1618 C1632 0.930 . S
H1619 C1599 0.930 . S
H1620 C1605 0.929 . S
H1621 C1606 0.930 . S
H1622 C1627 0.923 1_455 S
H1623 C1602 0.930 . S
H1624 C1635 0.931 . S
N1625 Tb1596 2.617 1_655 S
N1625 C1626 1.379 . S
N1625 C1629 1.334 . S
C1626 N1625 1.379 . S
C1626 C1628 1.416 . S
C1626 C1634 1.424 . S
C1627 H1622 0.923 1_655 S
C1627 C1629 1.390 . S
C1627 C1630 1.339 . S
C1628 C1626 1.416 . S
C1628 C1630 1.416 . S
C1628 C1661 1.448 . S
C1629 H1614 0.930 1_655 S
C1629 N1625 1.334 . S
C1629 C1627 1.390 . S
C1630 C1627 1.339 . S
C1630 C1628 1.416 . S
C1630 H1637 0.930 . S
N1631 Tb1596 2.572 1_655 S
N1631 C1632 1.340 . S
N1631 C1634 1.361 . S
C1632 H1618 0.930 . S
C1632 N1631 1.340 . S
C1632 C1636 1.407 . S
C1633 C1634 1.413 . S
C1633 C1635 1.416 . S
C1633 C1662 1.427 . S
C1634 C1626 1.424 . S
C1634 N1631 1.361 . S
C1634 C1633 1.413 . S
C1635 H1624 0.931 . S
C1635 C1633 1.416 . S
C1635 C1636 1.332 . S
C1636 H1615 0.929 1_554 S
C1636 C1632 1.407 . S
C1636 C1635 1.332 . S
H1637 C1630 0.930 . S
H1638 C1661 0.930 . S
H1639 C1662 0.929 . S
O1640 Tb1596 2.465 1_655 S
O1640 C1660 1.264 . S
O1641 Tb1596 2.387 . S
O1641 C1652 1.264 . S
O1642 Tb1607 2.349 . S
O1642 C1652 1.243 . S
O1643 Tb1596 2.428 1_655 S
O1643 C1660 1.256 . S
O1644 Tb1596 2.308 . S
O1644 C1659 1.266 1_554 S
O1645 Tb1607 2.393 1_556 S
O1645 C1659 1.248 . S
O1646 Tb1607 2.465 . S
O1646 C1671 1.264 . S
O1647 Tb1607 2.387 . S
O1647 C1663 1.264 . S
O1648 Tb1596 2.349 . S
O1648 C1663 1.243 . S
O1649 Tb1607 2.428 1_556 S
O1649 C1671 1.256 1_556 S
O1650 Tb1607 2.308 . S
O1650 C1670 1.266 . S
O1651 Tb1596 2.393 . S
O1651 C1670 1.248 . S
C1652 O1641 1.264 . S
C1652 O1642 1.243 . S
C1653 C1656 1.399 . S
C1653 C1658 1.383 . S
C1653 C1660 1.496 . S
C1654 C1655 1.399 . S
C1654 C1658 1.389 . S
C1655 C1654 1.399 . S
C1655 C1657 1.380 . S
C1655 H1672 0.929 . S
C1656 C1653 1.399 . S
C1656 C1657 1.392 . S
C1656 H1673 0.929 . S
C1657 C1655 1.380 . S
C1657 C1656 1.392 . S
C1657 H1674 0.929 . S
C1658 C1653 1.383 . S
C1658 C1654 1.389 . S
C1658 H1675 0.931 . S
C1659 O1644 1.266 1_556 S
C1659 O1645 1.248 . S
C1660 Tb1596 2.802 1_655 S
C1660 O1640 1.264 . S
C1660 O1643 1.256 . S
C1660 C1653 1.496 . S
C1661 C1628 1.448 . S
C1661 H1638 0.930 . S
C1661 C1662 1.328 . S
C1662 C1633 1.427 . S
C1662 H1639 0.929 . S
C1662 C1661 1.328 . S
C1663 O1647 1.264 . S
C1663 O1648 1.243 . S
C1664 C1667 1.397 . S
C1664 C1668 1.385 1_556 S
C1664 C1671 1.496 1_556 S
C1665 C1666 1.399 1_554 S
C1665 C1668 1.389 . S
C1666 C1665 1.399 1_556 S
C1666 C1669 1.380 . S
C1666 H1676 0.929 . S
C1667 C1664 1.397 . S
C1667 C1669 1.392 . S
C1667 H1677 0.929 . S
C1668 C1664 1.385 1_554 S
C1668 C1665 1.389 . S
C1668 H1678 0.931 . S
C1669 C1666 1.380 . S
C1669 C1667 1.392 . S
C1669 H1679 0.929 . S
C1670 O1650 1.266 . S
C1670 O1651 1.248 . S
C1671 Tb1607 2.802 . S
C1671 O1646 1.264 . S
C1671 O1649 1.256 1_554 S
C1671 C1664 1.496 1_554 S
H1672 C1655 0.929 . S
H1673 C1656 0.929 . S
H1674 C1657 0.929 . S
H1675 C1658 0.931 . S
H1676 C1666 0.929 . S
H1677 C1667 0.929 . S
H1678 C1668 0.931 . S
H1679 C1669 0.929 . S
H1680 C1692 0.930 . S
H1681 C1694 0.930 . S
H1682 C1695 0.930 . S
H1683 C1699 0.959 . S
H1684 C1699 0.959 . S
H1685 C1699 0.961 . S
H1686 C1700 0.960 . S
H1687 C1700 0.961 . S
H1688 C1700 0.959 . S
H1689 C1703 0.929 . S
H1690 C1704 0.931 . S
H1691 C1706 0.930 . S
C1692 H1680 0.930 . S
C1692 C1693 1.399 1_655 S
C1692 C1697 1.399 1_655 S
C1693 C1692 1.399 1_455 S
C1693 C1694 1.376 1_556 S
C1694 H1681 0.930 . S
C1694 C1693 1.376 1_554 S
C1694 C1695 1.388 . S
C1695 H1682 0.930 . S
C1695 C1694 1.388 . S
C1695 C1696 1.390 . S
C1696 C1695 1.390 . S
C1696 C1697 1.394 1_554 S
C1696 C1702 1.465 . S
C1697 C1692 1.399 1_455 S
C1697 C1696 1.394 1_556 S
C1697 C1698 1.516 . S
C1698 C1697 1.516 . S
C1698 C1699 1.502 1_455 S
C1698 C1700 1.561 . S
C1698 C1701 1.526 . S
C1699 H1683 0.959 . S
C1699 H1684 0.959 . S
C1699 H1685 0.961 . S
C1699 C1698 1.502 1_655 S
C1700 H1686 0.960 . S
C1700 H1687 0.961 . S
C1700 H1688 0.959 . S
C1700 C1698 1.561 . S
C1701 C1698 1.526 . S
C1701 C1702 1.396 1_556 S
C1701 C1706 1.390 . S
C1702 C1696 1.465 . S
C1702 C1701 1.396 1_554 S
C1702 C1703 1.399 . S
C1703 H1689 0.929 . S
C1703 C1702 1.399 . S
C1703 C1704 1.385 . S
C1704 H1690 0.931 . S
C1704 C1703 1.385 . S
C1704 C1705 1.389 . S
C1705 C1704 1.389 . S
C1705 C1706 1.387 1_554 S
C1706 H1691 0.930 . S
C1706 C1701 1.390 . S
C1706 C1705 1.387 1_556 S
H1707 C1719 0.930 . S
H1708 C1721 0.930 . S
H1709 C1722 0.930 . S
H1710 C1726 0.959 . S
H1711 C1726 0.959 . S
H1712 C1726 0.961 . S
H1713 C1727 0.960 . S
H1714 C1727 0.961 . S
H1715 C1727 0.959 . S
H1716 C1730 0.929 . S
H1717 C1731 0.931 . S
H1718 C1733 0.930 . S
C1719 H1707 0.930 . S
C1719 C1720 1.399 . S
C1719 C1724 1.399 . S
C1720 C1719 1.399 . S
C1720 C1721 1.376 . S
C1721 H1708 0.930 . S
C1721 C1720 1.376 . S
C1721 C1722 1.388 . S
C1722 H1709 0.930 . S
C1722 C1721 1.388 . S
C1722 C1723 1.390 . S
C1723 C1722 1.390 . S
C1723 C1724 1.394 . S
C1723 C1729 1.465 . S
C1724 C1719 1.399 . S
C1724 C1723 1.394 . S
C1724 C1725 1.516 . S
C1725 C1724 1.516 . S
C1725 C1726 1.502 . S
C1725 C1727 1.561 . S
C1725 C1728 1.526 . S
C1726 H1710 0.959 . S
C1726 H1711 0.959 . S
C1726 H1712 0.961 . S
C1726 C1725 1.502 . S
C1727 H1713 0.960 . S
C1727 H1714 0.961 . S
C1727 H1715 0.959 . S
C1727 C1725 1.561 . S
C1728 C1725 1.526 . S
C1728 C1729 1.396 . S
C1728 C1733 1.390 . S
C1729 C1723 1.465 . S
C1729 C1728 1.396 . S
C1729 C1730 1.399 . S
C1730 H1716 0.929 . S
C1730 C1729 1.399 . S
C1730 C1731 1.385 . S
C1731 H1717 0.931 . S
C1731 C1730 1.385 . S
C1731 C1732 1.389 . S
C1732 C1731 1.389 . S
C1732 C1733 1.387 . S
C1733 H1718 0.930 . S
C1733 C1728 1.390 . S
C1733 C1732 1.387 . S
H1734 C1746 0.930 . S
H1735 C1748 0.930 . S
H1736 C1749 0.930 . S
H1737 C1753 0.959 . S
H1738 C1753 0.959 . S
H1739 C1753 0.961 . S
H1740 C1754 0.960 . S
H1741 C1754 0.961 . S
H1742 C1754 0.959 . S
H1743 C1757 0.929 . S
H1744 C1758 0.931 . S
H1745 C1760 0.930 . S
C1746 H1734 0.930 . S
C1746 C1747 1.399 . S
C1746 C1751 1.399 . S
C1747 C1746 1.399 . S
C1747 C1748 1.376 . S
C1748 H1735 0.930 . S
C1748 C1747 1.376 . S
C1748 C1749 1.388 . S
C1749 H1736 0.930 . S
C1749 C1748 1.388 . S
C1749 C1750 1.390 . S
C1750 C1749 1.390 . S
C1750 C1751 1.394 . S
C1750 C1756 1.465 . S
C1751 C1746 1.399 . S
C1751 C1750 1.394 . S
C1751 C1752 1.516 . S
C1752 C1751 1.516 . S
C1752 C1753 1.502 . S
C1752 C1754 1.561 . S
C1752 C1755 1.526 . S
C1753 H1737 0.959 . S
C1753 H1738 0.959 . S
C1753 H1739 0.961 . S
C1753 C1752 1.502 . S
C1754 H1740 0.960 . S
C1754 H1741 0.961 . S
C1754 H1742 0.959 . S
C1754 C1752 1.561 . S
C1755 C1752 1.526 . S
C1755 C1756 1.396 . S
C1755 C1760 1.390 . S
C1756 C1750 1.465 . S
C1756 C1755 1.396 . S
C1756 C1757 1.399 . S
C1757 H1743 0.929 . S
C1757 C1756 1.399 . S
C1757 C1758 1.385 . S
C1758 H1744 0.931 . S
C1758 C1757 1.385 . S
C1758 C1759 1.389 . S
C1759 C1758 1.389 . S
C1759 C1760 1.387 . S
C1760 H1745 0.930 . S
C1760 C1755 1.390 . S
C1760 C1759 1.387 . S
H1761 C1773 0.930 . S
H1762 C1775 0.930 . S
H1763 C1776 0.930 . S
H1764 C1780 0.959 . S
H1765 C1780 0.959 . S
H1766 C1780 0.961 . S
H1767 C1781 0.960 . S
H1768 C1781 0.961 . S
H1769 C1781 0.959 . S
H1770 C1784 0.929 . S
H1771 C1785 0.931 . S
H1772 C1787 0.930 . S
C1773 H1761 0.930 . S
C1773 C1774 1.399 . S
C1773 C1778 1.399 . S
C1774 C1773 1.399 . S
C1774 C1775 1.376 . S
C1775 H1762 0.930 . S
C1775 C1774 1.376 . S
C1775 C1776 1.388 . S
C1776 H1763 0.930 . S
C1776 C1775 1.388 . S
C1776 C1777 1.390 . S
C1777 C1776 1.390 . S
C1777 C1778 1.394 . S
C1777 C1783 1.465 . S
C1778 C1773 1.399 . S
C1778 C1777 1.394 . S
C1778 C1779 1.516 . S
C1779 C1778 1.516 . S
C1779 C1780 1.502 . S
C1779 C1781 1.561 . S
C1779 C1782 1.526 . S
C1780 H1764 0.959 . S
C1780 H1765 0.959 . S
C1780 H1766 0.961 . S
C1780 C1779 1.502 . S
C1781 H1767 0.960 . S
C1781 H1768 0.961 . S
C1781 H1769 0.959 . S
C1781 C1779 1.561 . S
C1782 C1779 1.526 . S
C1782 C1783 1.396 . S
C1782 C1787 1.390 . S
C1783 C1777 1.465 . S
C1783 C1782 1.396 . S
C1783 C1784 1.399 . S
C1784 H1770 0.929 . S
C1784 C1783 1.399 . S
C1784 C1785 1.385 . S
C1785 H1771 0.931 . S
C1785 C1784 1.385 . S
C1785 C1786 1.389 . S
C1786 C1785 1.389 . S
C1786 C1787 1.387 . S
C1787 H1772 0.930 . S
C1787 C1782 1.390 . S
C1787 C1786 1.387 . S
H1788 C1800 0.930 . S
H1789 C1802 0.930 . S
H1790 C1803 0.930 . S
H1791 C1807 0.959 . S
H1792 C1807 0.959 . S
H1793 C1807 0.961 . S
H1794 C1808 0.960 . S
H1795 C1808 0.961 . S
H1796 C1808 0.959 . S
H1797 C1811 0.929 . S
H1798 C1812 0.931 . S
H1799 C1814 0.930 . S
C1800 H1788 0.930 . S
C1800 C1801 1.399 . S
C1800 C1805 1.399 . S
C1801 C1800 1.399 . S
C1801 C1802 1.376 . S
C1802 H1789 0.930 . S
C1802 C1801 1.376 . S
C1802 C1803 1.388 . S
C1803 H1790 0.930 . S
C1803 C1802 1.388 . S
C1803 C1804 1.390 . S
C1804 C1803 1.390 . S
C1804 C1805 1.394 . S
C1804 C1810 1.465 . S
C1805 C1800 1.399 . S
C1805 C1804 1.394 . S
C1805 C1806 1.516 . S
C1806 C1805 1.516 . S
C1806 C1807 1.502 1_455 S
C1806 C1808 1.561 . S
C1806 C1809 1.526 . S
C1807 H1791 0.959 . S
C1807 H1792 0.959 . S
C1807 H1793 0.961 . S
C1807 C1806 1.502 1_655 S
C1808 H1794 0.960 . S
C1808 H1795 0.961 . S
C1808 H1796 0.959 . S
C1808 C1806 1.561 . S
C1809 C1806 1.526 . S
C1809 C1810 1.396 . S
C1809 C1814 1.390 . S
C1810 C1804 1.465 . S
C1810 C1809 1.396 . S
C1810 C1811 1.399 . S
C1811 H1797 0.929 . S
C1811 C1810 1.399 . S
C1811 C1812 1.385 . S
C1812 H1798 0.931 . S
C1812 C1811 1.385 . S
C1812 C1813 1.389 . S
C1813 C1812 1.389 . S
C1813 C1814 1.387 . S
C1814 H1799 0.930 . S
C1814 C1809 1.390 . S
C1814 C1813 1.387 . S
H1815 C1827 0.930 . S
H1816 C1829 0.930 . S
H1817 C1830 0.930 . S
H1818 C1834 0.959 . S
H1819 C1834 0.959 . S
H1820 C1834 0.961 . S
H1821 C1835 0.960 . S
H1822 C1835 0.961 . S
H1823 C1835 0.959 . S
H1824 C1838 0.929 . S
H1825 C1839 0.931 . S
H1826 C1841 0.930 . S
C1827 H1815 0.930 . S
C1827 C1828 1.399 . S
C1827 C1832 1.399 . S
C1828 C1827 1.399 . S
C1828 C1829 1.376 . S
C1829 H1816 0.930 . S
C1829 C1828 1.376 . S
C1829 C1830 1.388 . S
C1830 H1817 0.930 . S
C1830 C1829 1.388 . S
C1830 C1831 1.390 . S
C1831 C1830 1.390 . S
C1831 C1832 1.394 . S
C1831 C1837 1.465 . S
C1832 C1827 1.399 . S
C1832 C1831 1.394 . S
C1832 C1833 1.516 . S
C1833 C1832 1.516 . S
C1833 C1834 1.502 . S
C1833 C1835 1.561 . S
C1833 C1836 1.526 . S
C1834 H1818 0.959 . S
C1834 H1819 0.959 . S
C1834 H1820 0.961 . S
C1834 C1833 1.502 . S
C1835 H1821 0.960 . S
C1835 H1822 0.961 . S
C1835 H1823 0.959 . S
C1835 C1833 1.561 . S
C1836 C1833 1.526 . S
C1836 C1837 1.396 . S
C1836 C1841 1.390 . S
C1837 C1831 1.465 . S
C1837 C1836 1.396 . S
C1837 C1838 1.399 . S
C1838 H1824 0.929 . S
C1838 C1837 1.399 . S
C1838 C1839 1.385 . S
C1839 H1825 0.931 . S
C1839 C1838 1.385 . S
C1839 C1840 1.389 . S
C1840 C1839 1.389 . S
C1840 C1841 1.387 . S
C1841 H1826 0.930 . S
C1841 C1836 1.390 . S
C1841 C1840 1.387 . S
H1842 C1854 0.930 . S
H1843 C1856 0.930 . S
H1844 C1857 0.930 . S
H1845 C1861 0.959 . S
H1846 C1861 0.959 . S
H1847 C1861 0.961 . S
H1848 C1862 0.960 . S
H1849 C1862 0.961 . S
H1850 C1862 0.959 . S
H1851 C1865 0.929 . S
H1852 C1866 0.931 . S
H1853 C1868 0.930 . S
C1854 H1842 0.930 . S
C1854 C1855 1.399 . S
C1854 C1859 1.399 . S
C1855 C1854 1.399 . S
C1855 C1856 1.376 . S
C1856 H1843 0.930 . S
C1856 C1855 1.376 . S
C1856 C1857 1.388 . S
C1857 H1844 0.930 . S
C1857 C1856 1.388 . S
C1857 C1858 1.390 . S
C1858 C1857 1.390 . S
C1858 C1859 1.394 . S
C1858 C1864 1.465 . S
C1859 C1854 1.399 . S
C1859 C1858 1.394 . S
C1859 C1860 1.516 . S
C1860 C1859 1.516 . S
C1860 C1861 1.502 . S
C1860 C1862 1.561 . S
C1860 C1863 1.526 . S
C1861 H1845 0.959 . S
C1861 H1846 0.959 . S
C1861 H1847 0.961 . S
C1861 C1860 1.502 . S
C1862 H1848 0.960 . S
C1862 H1849 0.961 . S
C1862 H1850 0.959 . S
C1862 C1860 1.561 . S
C1863 C1860 1.526 . S
C1863 C1864 1.396 . S
C1863 C1868 1.390 . S
C1864 C1858 1.465 . S
C1864 C1863 1.396 . S
C1864 C1865 1.399 . S
C1865 H1851 0.929 . S
C1865 C1864 1.399 . S
C1865 C1866 1.385 . S
C1866 H1852 0.931 . S
C1866 C1865 1.385 . S
C1866 C1867 1.389 . S
C1867 C1866 1.389 . S
C1867 C1868 1.387 . S
C1868 H1853 0.930 . S
C1868 C1863 1.390 . S
C1868 C1867 1.387 . S
H1869 C1881 0.930 . S
H1870 C1883 0.930 . S
H1871 C1884 0.930 . S
H1872 C1888 0.959 . S
H1873 C1888 0.959 . S
H1874 C1888 0.961 . S
H1875 C1889 0.960 . S
H1876 C1889 0.961 . S
H1877 C1889 0.959 . S
H1878 C1892 0.929 . S
H1879 C1893 0.931 . S
H1880 C1895 0.930 . S
C1881 H1869 0.930 . S
C1881 C1882 1.399 . S
C1881 C1886 1.399 . S
C1882 C1881 1.399 . S
C1882 C1883 1.376 . S
C1883 H1870 0.930 . S
C1883 C1882 1.376 . S
C1883 C1884 1.388 . S
C1884 H1871 0.930 . S
C1884 C1883 1.388 . S
C1884 C1885 1.390 . S
C1885 C1884 1.390 . S
C1885 C1886 1.394 . S
C1885 C1891 1.465 . S
C1886 C1881 1.399 . S
C1886 C1885 1.394 . S
C1886 C1887 1.516 . S
C1887 C1886 1.516 . S
C1887 C1888 1.502 . S
C1887 C1889 1.561 . S
C1887 C1890 1.526 . S
C1888 H1872 0.959 . S
C1888 H1873 0.959 . S
C1888 H1874 0.961 . S
C1888 C1887 1.502 . S
C1889 H1875 0.960 . S
C1889 H1876 0.961 . S
C1889 H1877 0.959 . S
C1889 C1887 1.561 . S
C1890 C1887 1.526 . S
C1890 C1891 1.396 . S
C1890 C1895 1.390 . S
C1891 C1885 1.465 . S
C1891 C1890 1.396 . S
C1891 C1892 1.399 . S
C1892 H1878 0.929 . S
C1892 C1891 1.399 . S
C1892 C1893 1.385 . S
C1893 H1879 0.931 . S
C1893 C1892 1.385 . S
C1893 C1894 1.389 . S
C1894 C1893 1.389 . S
C1894 C1895 1.387 . S
C1895 H1880 0.930 . S
C1895 C1890 1.390 . S
C1895 C1894 1.387 . S
H1896 C1908 0.930 1_565 S
H1897 C1910 0.930 . S
H1898 C1911 0.930 . S
H1899 C1915 0.959 1_545 S
H1900 C1915 0.959 . S
H1901 C1915 0.961 1_655 S
H1902 C1916 0.960 . S
H1903 C1916 0.961 . S
H1904 C1916 0.959 . S
H1905 C1919 0.929 . S
H1906 C1920 0.929 1_455 S
H1907 C1922 0.930 . S
C1908 H1896 0.930 1_545 S
C1908 C1909 1.399 . S
C1908 C1913 1.399 . S
C1909 C1908 1.399 . S
C1909 C1910 1.376 . S
C1910 H1897 0.930 . S
C1910 C1909 1.376 . S
C1910 C1911 1.388 . S
C1911 H1898 0.930 . S
C1911 C1910 1.388 . S
C1911 C1912 1.390 . S
C1912 C1911 1.390 . S
C1912 C1913 1.394 . S
C1912 C1918 1.465 . S
C1913 C1908 1.399 . S
C1913 C1912 1.394 . S
C1913 C1914 1.516 1_545 S
C1914 C1913 1.516 1_565 S
C1914 C1915 1.502 1_655 S
C1914 C1916 1.561 . S
C1914 C1917 1.526 1_565 S
C1915 H1899 0.959 1_565 S
C1915 H1900 0.959 . S
C1915 H1901 0.961 1_455 S
C1915 C1914 1.502 1_455 S
C1916 H1902 0.960 . S
C1916 H1903 0.961 . S
C1916 H1904 0.959 . S
C1916 C1914 1.561 . S
C1917 C1914 1.526 1_545 S
C1917 C1918 1.396 . S
C1917 C1922 1.390 1_655 S
C1918 C1912 1.465 . S
C1918 C1917 1.396 . S
C1918 C1919 1.399 . S
C1919 H1905 0.929 . S
C1919 C1918 1.399 . S
C1919 C1920 1.385 . S
C1920 H1906 0.929 1_655 S
C1920 C1919 1.385 . S
C1920 C1921 1.389 1_655 S
C1921 C1920 1.389 1_455 S
C1921 C1922 1.387 . S
C1922 H1907 0.930 . S
C1922 C1917 1.390 1_455 S
C1922 C1921 1.387 . S
H1923 C1935 0.930 . S
H1924 C1937 0.930 . S
H1925 C1938 0.930 . S
H1926 C1942 0.959 . S
H1927 C1942 0.959 . S
H1928 C1942 0.961 . S
H1929 C1943 0.960 . S
H1930 C1943 0.961 . S
H1931 C1943 0.959 . S
H1932 C1946 0.929 . S
H1933 C1947 0.931 . S
H1934 C1949 0.930 . S
C1935 H1923 0.930 . S
C1935 C1936 1.399 . S
C1935 C1940 1.399 . S
C1936 C1935 1.399 . S
C1936 C1937 1.376 . S
C1937 H1924 0.930 . S
C1937 C1936 1.376 . S
C1937 C1938 1.388 . S
C1938 H1925 0.930 . S
C1938 C1937 1.388 . S
C1938 C1939 1.390 . S
C1939 C1938 1.390 . S
C1939 C1940 1.394 . S
C1939 C1945 1.465 . S
C1940 C1935 1.399 . S
C1940 C1939 1.394 . S
C1940 C1941 1.516 . S
C1941 C1940 1.516 . S
C1941 C1942 1.502 . S
C1941 C1943 1.561 . S
C1941 C1944 1.526 . S
C1942 H1926 0.959 . S
C1942 H1927 0.959 . S
C1942 H1928 0.961 . S
C1942 C1941 1.502 . S
C1943 H1929 0.960 . S
C1943 H1930 0.961 . S
C1943 H1931 0.959 . S
C1943 C1941 1.561 . S
C1944 C1941 1.526 . S
C1944 C1945 1.396 . S
C1944 C1949 1.390 . S
C1945 C1939 1.465 . S
C1945 C1944 1.396 . S
C1945 C1946 1.399 . S
C1946 H1932 0.929 . S
C1946 C1945 1.399 . S
C1946 C1947 1.385 . S
C1947 H1933 0.931 . S
C1947 C1946 1.385 . S
C1947 C1948 1.389 . S
C1948 C1947 1.389 . S
C1948 C1949 1.387 . S
C1949 H1934 0.930 . S
C1949 C1944 1.390 . S
C1949 C1948 1.387 . S
H1950 C1962 0.930 . S
H1951 C1964 0.930 . S
H1952 C1965 0.930 . S
H1953 C1969 0.959 . S
H1954 C1969 0.959 . S
H1955 C1969 0.961 . S
H1956 C1970 0.960 . S
H1957 C1970 0.961 . S
H1958 C1970 0.959 . S
H1959 C1973 0.929 . S
H1960 C1974 0.931 . S
H1961 C1976 0.930 . S
C1962 H1950 0.930 . S
C1962 C1963 1.399 . S
C1962 C1967 1.399 . S
C1963 C1962 1.399 . S
C1963 C1964 1.376 . S
C1964 H1951 0.930 . S
C1964 C1963 1.376 . S
C1964 C1965 1.388 . S
C1965 H1952 0.930 . S
C1965 C1964 1.388 . S
C1965 C1966 1.390 . S
C1966 C1965 1.390 . S
C1966 C1967 1.394 . S
C1966 C1972 1.465 . S
C1967 C1962 1.399 . S
C1967 C1966 1.394 . S
C1967 C1968 1.516 . S
C1968 C1967 1.516 . S
C1968 C1969 1.502 1_545 S
C1968 C1970 1.561 . S
C1968 C1971 1.526 . S
C1969 H1953 0.959 . S
C1969 H1954 0.959 . S
C1969 H1955 0.961 . S
C1969 C1968 1.502 1_565 S
C1970 H1956 0.960 . S
C1970 H1957 0.961 . S
C1970 H1958 0.959 . S
C1970 C1968 1.561 . S
C1971 C1968 1.526 . S
C1971 C1972 1.396 . S
C1971 C1976 1.390 . S
C1972 C1966 1.465 . S
C1972 C1971 1.396 . S
C1972 C1973 1.399 . S
C1973 H1959 0.929 . S
C1973 C1972 1.399 . S
C1973 C1974 1.385 . S
C1974 H1960 0.931 . S
C1974 C1973 1.385 . S
C1974 C1975 1.389 . S
C1975 C1974 1.389 . S
C1975 C1976 1.387 . S
C1976 H1961 0.930 . S
C1976 C1971 1.390 . S
C1976 C1975 1.387 . S
H1977 C1989 0.930 . S
H1978 C1991 0.930 . S
H1979 C1992 0.930 . S
H1980 C1996 0.959 . S
H1981 C1996 0.959 . S
H1982 C1996 0.961 . S
H1983 C1997 0.960 . S
H1984 C1997 0.961 . S
H1985 C1997 0.959 . S
H1986 C2000 0.929 . S
H1987 C2001 0.931 . S
H1988 C2003 0.930 . S
C1989 H1977 0.930 . S
C1989 C1990 1.399 . S
C1989 C1994 1.399 . S
C1990 C1989 1.399 . S
C1990 C1991 1.376 . S
C1991 H1978 0.930 . S
C1991 C1990 1.376 . S
C1991 C1992 1.388 . S
C1992 H1979 0.930 . S
C1992 C1991 1.388 . S
C1992 C1993 1.390 . S
C1993 C1992 1.390 . S
C1993 C1994 1.394 . S
C1993 C1999 1.465 . S
C1994 C1989 1.399 . S
C1994 C1993 1.394 . S
C1994 C1995 1.516 . S
C1995 C1994 1.516 . S
C1995 C1996 1.502 . S
C1995 C1997 1.561 . S
C1995 C1998 1.526 . S
C1996 H1980 0.959 . S
C1996 H1981 0.959 . S
C1996 H1982 0.961 . S
C1996 C1995 1.502 . S
C1997 H1983 0.960 . S
C1997 H1984 0.961 . S
C1997 H1985 0.959 . S
C1997 C1995 1.561 . S
C1998 C1995 1.526 . S
C1998 C1999 1.396 . S
C1998 C2003 1.390 . S
C1999 C1993 1.465 . S
C1999 C1998 1.396 . S
C1999 C2000 1.399 . S
C2000 H1986 0.929 . S
C2000 C1999 1.399 . S
C2000 C2001 1.385 . S
C2001 H1987 0.931 . S
C2001 C2000 1.385 . S
C2001 C2002 1.389 . S
C2002 C2001 1.389 . S
C2002 C2003 1.387 . S
C2003 H1988 0.930 . S
C2003 C1998 1.390 . S
C2003 C2002 1.387 . S
H2004 C2016 0.930 . S
H2005 C2018 0.930 . S
H2006 C2019 0.930 . S
H2007 C2023 0.959 . S
H2008 C2023 0.959 . S
H2009 C2023 0.961 . S
H2010 C2024 0.960 . S
H2011 C2024 0.961 . S
H2012 C2024 0.959 . S
H2013 C2027 0.929 . S
H2014 C2028 0.890 1_565 S
H2015 C2030 0.930 . S
C2016 H2004 0.930 . S
C2016 C2017 1.399 . S
C2016 C2021 1.399 . S
C2017 C2016 1.399 . S
C2017 C2018 1.376 1_545 S
C2018 H2005 0.930 . S
C2018 C2017 1.376 1_565 S
C2018 C2019 1.388 . S
C2019 H2006 0.930 . S
C2019 C2018 1.388 . S
C2019 C2020 1.390 1_565 S
C2020 C2019 1.390 1_545 S
C2020 C2021 1.394 . S
C2020 C2026 1.465 . S
C2021 C2016 1.399 . S
C2021 C2020 1.394 . S
C2021 C2022 1.516 . S
C2022 C2021 1.516 . S
C2022 C2023 1.502 1_655 S
C2022 C2024 1.561 . S
C2022 C2025 1.526 . S
C2023 H2007 0.959 . S
C2023 H2008 0.959 . S
C2023 H2009 0.961 . S
C2023 C2022 1.502 1_455 S
C2024 H2010 0.960 . S
C2024 H2011 0.961 . S
C2024 H2012 0.959 . S
C2024 C2022 1.561 . S
C2025 C2022 1.526 . S
C2025 C2026 1.396 . S
C2025 C2030 1.390 1_655 S
C2026 C2020 1.465 . S
C2026 C2025 1.396 . S
C2026 C2027 1.399 1_545 S
C2027 H2013 0.929 . S
C2027 C2026 1.399 1_565 S
C2027 C2028 1.387 1_565 S
C2028 H2014 0.890 1_545 S
C2028 C2027 1.387 1_545 S
C2028 C2029 1.430 1_655 S
C2029 C2028 1.430 1_455 S
C2029 C2030 1.387 . S
C2030 H2015 0.930 . S
C2030 C2025 1.390 1_455 S
C2030 C2029 1.387 . S
H2031 C2043 0.930 . S
H2032 C2045 0.930 . S
H2033 C2046 0.930 . S
H2034 C2050 0.959 . S
H2035 C2050 0.959 . S
H2036 C2050 0.961 . S
H2037 C2051 0.960 . S
H2038 C2051 0.961 . S
H2039 C2051 0.959 . S
H2040 C2054 0.929 . S
H2041 C2055 0.931 . S
H2042 C2057 0.930 . S
C2043 H2031 0.930 . S
C2043 C2044 1.399 . S
C2043 C2048 1.399 . S
C2044 C2043 1.399 . S
C2044 C2045 1.376 . S
C2045 H2032 0.930 . S
C2045 C2044 1.376 . S
C2045 C2046 1.388 . S
C2046 H2033 0.930 . S
C2046 C2045 1.388 . S
C2046 C2047 1.390 . S
C2047 C2046 1.390 . S
C2047 C2048 1.394 . S
C2047 C2053 1.465 . S
C2048 C2043 1.399 . S
C2048 C2047 1.394 . S
C2048 C2049 1.516 . S
C2049 C2048 1.516 . S
C2049 C2050 1.502 . S
C2049 C2051 1.561 . S
C2049 C2052 1.526 . S
C2050 H2034 0.959 . S
C2050 H2035 0.959 . S
C2050 H2036 0.961 . S
C2050 C2049 1.502 . S
C2051 H2037 0.960 . S
C2051 H2038 0.961 . S
C2051 H2039 0.959 . S
C2051 C2049 1.561 . S
C2052 C2049 1.526 . S
C2052 C2053 1.396 . S
C2052 C2057 1.390 . S
C2053 C2047 1.465 . S
C2053 C2052 1.396 . S
C2053 C2054 1.399 . S
C2054 H2040 0.929 . S
C2054 C2053 1.399 . S
C2054 C2055 1.385 . S
C2055 H2041 0.931 . S
C2055 C2054 1.385 . S
C2055 C2056 1.389 . S
C2056 C2055 1.389 . S
C2056 C2057 1.387 . S
C2057 H2042 0.930 . S
C2057 C2052 1.390 . S
C2057 C2056 1.387 . S
H2058 C2070 0.930 . S
H2059 C2072 0.930 . S
H2060 C2073 0.930 . S
H2061 C2077 0.959 . S
H2062 C2077 0.959 . S
H2063 C2077 0.961 . S
H2064 C2078 0.960 1_565 S
H2065 C2078 0.961 1_565 S
H2066 C2078 0.959 . S
H2067 C2081 0.929 . S
H2068 C2082 0.931 . S
H2069 C2084 0.930 . S
C2070 H2058 0.930 . S
C2070 C2071 1.399 . S
C2070 C2075 1.399 . S
C2071 C2070 1.399 . S
C2071 C2072 1.376 . S
C2072 H2059 0.930 . S
C2072 C2071 1.376 . S
C2072 C2073 1.388 . S
C2073 H2060 0.930 . S
C2073 C2072 1.388 . S
C2073 C2074 1.390 . S
C2074 C2073 1.390 . S
C2074 C2075 1.394 . S
C2074 C2080 1.465 . S
C2075 C2070 1.399 . S
C2075 C2074 1.394 . S
C2075 C2076 1.516 . S
C2076 C2075 1.516 . S
C2076 C2077 1.502 . S
C2076 C2078 1.561 . S
C2076 C2079 1.526 . S
C2077 H2061 0.959 . S
C2077 H2062 0.959 . S
C2077 H2063 0.961 . S
C2077 C2076 1.502 . S
C2078 H2064 0.960 1_545 S
C2078 H2065 0.961 1_545 S
C2078 H2066 0.959 . S
C2078 C2076 1.561 . S
C2079 C2076 1.526 . S
C2079 C2080 1.396 . S
C2079 C2084 1.390 . S
C2080 C2074 1.465 . S
C2080 C2079 1.396 . S
C2080 C2081 1.399 . S
C2081 H2067 0.929 . S
C2081 C2080 1.399 . S
C2081 C2082 1.385 . S
C2082 H2068 0.931 . S
C2082 C2081 1.385 . S
C2082 C2083 1.389 . S
C2083 C2082 1.389 . S
C2083 C2084 1.387 . S
C2084 H2069 0.930 . S
C2084 C2079 1.390 . S
C2084 C2083 1.387 . S
H2085 C2097 0.930 . S
H2086 C2099 0.930 . S
H2087 C2100 0.930 . S
H2088 C2104 0.959 . S
H2089 C2104 0.959 . S
H2090 C2104 0.961 . S
H2091 C2105 0.960 . S
H2092 C2105 0.961 . S
H2093 C2105 0.959 . S
H2094 C2108 0.929 . S
H2095 C2109 0.931 . S
H2096 C2111 0.930 . S
C2097 H2085 0.930 . S
C2097 C2098 1.399 . S
C2097 C2102 1.399 . S
C2098 C2097 1.399 . S
C2098 C2099 1.376 . S
C2099 H2086 0.930 . S
C2099 C2098 1.376 . S
C2099 C2100 1.388 . S
C2100 H2087 0.930 . S
C2100 C2099 1.388 . S
C2100 C2101 1.390 . S
C2101 C2100 1.390 . S
C2101 C2102 1.394 . S
C2101 C2107 1.465 . S
C2102 C2097 1.399 . S
C2102 C2101 1.394 . S
C2102 C2103 1.516 . S
C2103 C2102 1.516 . S
C2103 C2104 1.502 . S
C2103 C2105 1.561 . S
C2103 C2106 1.526 . S
C2104 H2088 0.959 . S
C2104 H2089 0.959 . S
C2104 H2090 0.961 . S
C2104 C2103 1.502 . S
C2105 H2091 0.960 . S
C2105 H2092 0.961 . S
C2105 H2093 0.959 . S
C2105 C2103 1.561 . S
C2106 C2103 1.526 . S
C2106 C2107 1.396 . S
C2106 C2111 1.390 . S
C2107 C2101 1.465 . S
C2107 C2106 1.396 . S
C2107 C2108 1.399 . S
C2108 H2094 0.929 . S
C2108 C2107 1.399 . S
C2108 C2109 1.385 . S
C2109 H2095 0.931 . S
C2109 C2108 1.385 . S
C2109 C2110 1.389 . S
C2110 C2109 1.389 . S
C2110 C2111 1.387 . S
C2111 H2096 0.930 . S
C2111 C2106 1.390 . S
C2111 C2110 1.387 . S
H2112 C2124 0.930 . S
H2113 C2126 0.930 . S
H2114 C2127 0.930 . S
H2115 C2131 0.959 . S
H2116 C2131 0.959 . S
H2117 C2131 0.961 . S
H2118 C2132 0.960 . S
H2119 C2132 0.959 1_545 S
H2120 C2132 0.959 1_545 S
H2121 C2135 0.929 . S
H2122 C2136 0.931 1_546 S
H2123 C2138 0.930 . S
C2124 H2112 0.930 . S
C2124 C2125 1.399 1_554 S
C2124 C2129 1.399 . S
C2125 C2124 1.399 1_556 S
C2125 C2126 1.376 . S
C2126 H2113 0.930 . S
C2126 C2125 1.376 . S
C2126 C2127 1.388 . S
C2127 H2114 0.930 . S
C2127 C2126 1.388 . S
C2127 C2128 1.390 1_556 S
C2128 C2127 1.390 1_554 S
C2128 C2129 1.394 . S
C2128 C2134 1.465 . S
C2129 C2124 1.399 . S
C2129 C2128 1.394 . S
C2129 C2130 1.516 . S
C2130 C2129 1.516 . S
C2130 C2131 1.502 . S
C2130 C2132 1.561 . S
C2130 C2133 1.526 . S
C2131 H2115 0.959 . S
C2131 H2116 0.959 . S
C2131 H2117 0.961 . S
C2131 C2130 1.502 . S
C2132 H2118 0.960 . S
C2132 H2119 0.959 1_565 S
C2132 H2120 0.959 1_565 S
C2132 C2130 1.561 . S
C2133 C2130 1.526 . S
C2133 C2134 1.396 . S
C2133 C2138 1.390 . S
C2134 C2128 1.465 . S
C2134 C2133 1.396 . S
C2134 C2135 1.399 1_554 S
C2135 H2121 0.929 . S
C2135 C2134 1.399 1_556 S
C2135 C2136 1.385 1_556 S
C2136 H2122 0.931 1_564 S
C2136 C2135 1.385 1_554 S
C2136 C2137 1.389 . S
C2137 C2136 1.389 . S
C2137 C2138 1.392 . S
C2138 H2123 0.930 . S
C2138 C2133 1.390 . S
C2138 C2137 1.392 . S
H2139 C2151 0.930 . S
H2140 C2153 0.930 . S
H2141 C2154 0.930 . S
H2142 C2158 0.959 . S
H2143 C2158 0.959 . S
H2144 C2158 0.961 . S
H2145 C2159 0.960 . S
H2146 C2159 0.961 . S
H2147 C2159 0.959 . S
H2148 C2162 0.929 . S
H2149 C2163 0.931 . S
H2150 C2165 0.930 . S
C2151 H2139 0.930 . S
C2151 C2152 1.399 . S
C2151 C2156 1.399 . S
C2152 C2151 1.399 . S
C2152 C2153 1.376 1_554 S
C2153 H2140 0.930 . S
C2153 C2152 1.376 1_556 S
C2153 C2154 1.388 . S
C2154 H2141 0.930 . S
C2154 C2153 1.388 . S
C2154 C2155 1.390 1_556 S
C2155 C2154 1.390 1_554 S
C2155 C2156 1.394 . S
C2155 C2161 1.465 . S
C2156 C2151 1.399 . S
C2156 C2155 1.394 . S
C2156 C2157 1.516 . S
C2157 C2156 1.516 . S
C2157 C2158 1.502 . S
C2157 C2159 1.561 . S
C2157 C2160 1.526 . S
C2158 H2142 0.959 . S
C2158 H2143 0.959 . S
C2158 H2144 0.961 . S
C2158 C2157 1.502 . S
C2159 H2145 0.960 . S
C2159 H2146 0.961 . S
C2159 H2147 0.959 . S
C2159 C2157 1.561 . S
C2160 C2157 1.526 . S
C2160 C2161 1.396 . S
C2160 C2165 1.390 . S
C2161 C2155 1.465 . S
C2161 C2160 1.396 . S
C2161 C2162 1.399 1_554 S
C2162 H2148 0.929 . S
C2162 C2161 1.399 1_556 S
C2162 C2163 1.385 . S
C2163 H2149 0.931 . S
C2163 C2162 1.385 . S
C2163 C2164 1.389 1_556 S
C2164 C2163 1.389 1_554 S
C2164 C2165 1.387 . S
C2165 H2150 0.930 . S
C2165 C2160 1.390 . S
C2165 C2164 1.387 . S
H2166 C2178 0.930 . S
H2167 C2180 0.930 . S
H2168 C2181 0.930 . S
H2169 C2185 0.959 . S
H2170 C2185 0.959 . S
H2171 C2185 0.961 . S
H2172 C2186 0.960 . S
H2173 C2186 0.961 . S
H2174 C2186 0.959 . S
H2175 C2189 0.929 . S
H2176 C2190 0.931 . S
H2177 C2192 0.930 . S
C2178 H2166 0.930 . S
C2178 C2179 1.399 . S
C2178 C2183 1.399 . S
C2179 C2178 1.399 . S
C2179 C2180 1.376 . S
C2180 H2167 0.930 . S
C2180 C2179 1.376 . S
C2180 C2181 1.388 . S
C2181 H2168 0.930 . S
C2181 C2180 1.388 . S
C2181 C2182 1.390 . S
C2182 C2181 1.390 . S
C2182 C2183 1.394 . S
C2182 C2188 1.465 . S
C2183 C2178 1.399 . S
C2183 C2182 1.394 . S
C2183 C2184 1.516 . S
C2184 C2183 1.516 . S
C2184 C2185 1.502 . S
C2184 C2186 1.561 . S
C2184 C2187 1.526 . S
C2185 H2169 0.959 . S
C2185 H2170 0.959 . S
C2185 H2171 0.961 . S
C2185 C2184 1.502 . S
C2186 H2172 0.960 . S
C2186 H2173 0.961 . S
C2186 H2174 0.959 . S
C2186 C2184 1.561 . S
C2187 C2184 1.526 . S
C2187 C2188 1.396 . S
C2187 C2192 1.390 . S
C2188 C2182 1.465 . S
C2188 C2187 1.396 . S
C2188 C2189 1.399 . S
C2189 H2175 0.929 . S
C2189 C2188 1.399 . S
C2189 C2190 1.385 . S
C2190 H2176 0.931 . S
C2190 C2189 1.385 . S
C2190 C2191 1.389 . S
C2191 C2190 1.389 . S
C2191 C2192 1.387 . S
C2192 H2177 0.930 . S
C2192 C2187 1.390 . S
C2192 C2191 1.387 . S
H2193 C2205 0.930 . S
H2194 C2207 0.930 . S
H2195 C2208 0.930 . S
H2196 C2212 0.959 . S
H2197 C2212 0.959 . S
H2198 C2212 0.961 . S
H2199 C2213 0.960 . S
H2200 C2213 0.961 . S
H2201 C2213 0.959 . S
H2202 C2216 0.929 . S
H2203 C2217 0.931 . S
H2204 C2219 0.930 . S
C2205 H2193 0.930 . S
C2205 C2206 1.399 . S
C2205 C2210 1.399 . S
C2206 C2205 1.399 . S
C2206 C2207 1.376 . S
C2207 H2194 0.930 . S
C2207 C2206 1.376 . S
C2207 C2208 1.388 . S
C2208 H2195 0.930 . S
C2208 C2207 1.388 . S
C2208 C2209 1.390 . S
C2209 C2208 1.390 . S
C2209 C2210 1.394 . S
C2209 C2215 1.465 . S
C2210 C2205 1.399 . S
C2210 C2209 1.394 . S
C2210 C2211 1.516 . S
C2211 C2210 1.516 . S
C2211 C2212 1.502 . S
C2211 C2213 1.561 . S
C2211 C2214 1.526 . S
C2212 H2196 0.959 . S
C2212 H2197 0.959 . S
C2212 H2198 0.961 . S
C2212 C2211 1.502 . S
C2213 H2199 0.960 . S
C2213 H2200 0.961 . S
C2213 H2201 0.959 . S
C2213 C2211 1.561 . S
C2214 C2211 1.526 . S
C2214 C2215 1.396 . S
C2214 C2219 1.390 . S
C2215 C2209 1.465 . S
C2215 C2214 1.396 . S
C2215 C2216 1.399 . S
C2216 H2202 0.929 . S
C2216 C2215 1.399 . S
C2216 C2217 1.385 . S
C2217 H2203 0.931 . S
C2217 C2216 1.385 . S
C2217 C2218 1.389 . S
C2218 C2217 1.389 . S
C2218 C2219 1.387 . S
C2219 H2204 0.930 . S
C2219 C2214 1.390 . S
C2219 C2218 1.387 . S
H2220 C2232 0.930 . S
H2221 C2234 0.930 . S
H2222 C2235 0.930 . S
H2223 C2239 0.959 . S
H2224 C2239 0.959 . S
H2225 C2239 0.961 . S
H2226 C2240 0.960 . S
H2227 C2240 0.961 . S
H2228 C2240 0.959 . S
H2229 C2243 0.929 . S
H2230 C2244 0.931 . S
H2231 C2246 0.930 . S
C2232 H2220 0.930 . S
C2232 C2233 1.399 . S
C2232 C2237 1.399 . S
C2233 C2232 1.399 . S
C2233 C2234 1.376 . S
C2234 H2221 0.930 . S
C2234 C2233 1.376 . S
C2234 C2235 1.388 . S
C2235 H2222 0.930 . S
C2235 C2234 1.388 . S
C2235 C2236 1.390 . S
C2236 C2235 1.390 . S
C2236 C2237 1.394 . S
C2236 C2242 1.465 . S
C2237 C2232 1.399 . S
C2237 C2236 1.394 . S
C2237 C2238 1.516 . S
C2238 C2237 1.516 . S
C2238 C2239 1.502 . S
C2238 C2240 1.561 . S
C2238 C2241 1.526 . S
C2239 H2223 0.959 . S
C2239 H2224 0.959 . S
C2239 H2225 0.961 . S
C2239 C2238 1.502 . S
C2240 H2226 0.960 . S
C2240 H2227 0.961 . S
C2240 H2228 0.959 . S
C2240 C2238 1.561 . S
C2241 C2238 1.526 . S
C2241 C2242 1.396 . S
C2241 C2246 1.390 . S
C2242 C2236 1.465 . S
C2242 C2241 1.396 . S
C2242 C2243 1.399 . S
C2243 H2229 0.929 . S
C2243 C2242 1.399 . S
C2243 C2244 1.385 . S
C2244 H2230 0.931 . S
C2244 C2243 1.385 . S
C2244 C2245 1.389 . S
C2245 C2244 1.389 . S
C2245 C2246 1.387 . S
C2246 H2231 0.930 . S
C2246 C2241 1.390 . S
C2246 C2245 1.387 . S
H2247 C2259 0.930 . S
H2248 C2261 0.930 . S
H2249 C2262 0.930 . S
H2250 C2266 0.959 . S
H2251 C2266 0.959 . S
H2252 C2266 0.961 . S
H2253 C2267 0.960 . S
H2254 C2267 0.961 . S
H2255 C2267 0.959 . S
H2256 C2270 0.929 . S
H2257 C2271 0.931 . S
H2258 C2273 0.930 . S
C2259 H2247 0.930 . S
C2259 C2260 1.399 . S
C2259 C2264 1.399 . S
C2260 C2259 1.399 . S
C2260 C2261 1.376 . S
C2261 H2248 0.930 . S
C2261 C2260 1.376 . S
C2261 C2262 1.388 . S
C2262 H2249 0.930 . S
C2262 C2261 1.388 . S
C2262 C2263 1.390 . S
C2263 C2262 1.390 . S
C2263 C2264 1.394 . S
C2263 C2269 1.465 . S
C2264 C2259 1.399 . S
C2264 C2263 1.394 . S
C2264 C2265 1.516 . S
C2265 C2264 1.516 . S
C2265 C2266 1.502 . S
C2265 C2267 1.561 . S
C2265 C2268 1.526 . S
C2266 H2250 0.959 . S
C2266 H2251 0.959 . S
C2266 H2252 0.961 . S
C2266 C2265 1.502 . S
C2267 H2253 0.960 . S
C2267 H2254 0.961 . S
C2267 H2255 0.959 . S
C2267 C2265 1.561 . S
C2268 C2265 1.526 . S
C2268 C2269 1.396 . S
C2268 C2273 1.390 . S
C2269 C2263 1.465 . S
C2269 C2268 1.396 . S
C2269 C2270 1.399 . S
C2270 H2256 0.929 . S
C2270 C2269 1.399 . S
C2270 C2271 1.385 . S
C2271 H2257 0.931 . S
C2271 C2270 1.385 . S
C2271 C2272 1.389 . S
C2272 C2271 1.389 . S
C2272 C2273 1.387 . S
C2273 H2258 0.930 . S
C2273 C2268 1.390 . S
C2273 C2272 1.387 . S
H2274 C2286 0.930 . S
H2275 C2288 0.930 . S
H2276 C2289 0.930 . S
H2277 C2293 0.959 . S
H2278 C2293 0.959 . S
H2279 C2293 0.961 . S
H2280 C2294 0.960 . S
H2281 C2294 0.961 . S
H2282 C2294 0.959 . S
H2283 C2297 0.929 . S
H2284 C2298 0.931 . S
H2285 C2300 0.930 . S
C2286 H2274 0.930 . S
C2286 C2287 1.399 . S
C2286 C2291 1.399 . S
C2287 C2286 1.399 . S
C2287 C2288 1.376 . S
C2288 H2275 0.930 . S
C2288 C2287 1.376 . S
C2288 C2289 1.388 . S
C2289 H2276 0.930 . S
C2289 C2288 1.388 . S
C2289 C2290 1.390 . S
C2290 C2289 1.390 . S
C2290 C2291 1.394 . S
C2290 C2296 1.465 . S
C2291 C2286 1.399 . S
C2291 C2290 1.394 . S
C2291 C2292 1.516 . S
C2292 C2291 1.516 . S
C2292 C2293 1.502 . S
C2292 C2294 1.561 . S
C2292 C2295 1.526 . S
C2293 H2277 0.959 . S
C2293 H2278 0.959 . S
C2293 H2279 0.961 . S
C2293 C2292 1.502 . S
C2294 H2280 0.960 . S
C2294 H2281 0.961 . S
C2294 H2282 0.959 . S
C2294 C2292 1.561 . S
C2295 C2292 1.526 . S
C2295 C2296 1.396 . S
C2295 C2300 1.390 . S
C2296 C2290 1.465 . S
C2296 C2295 1.396 . S
C2296 C2297 1.399 . S
C2297 H2283 0.929 . S
C2297 C2296 1.399 . S
C2297 C2298 1.385 . S
C2298 H2284 0.931 . S
C2298 C2297 1.385 . S
C2298 C2299 1.389 . S
C2299 C2298 1.389 . S
C2299 C2300 1.387 . S
C2300 H2285 0.930 . S
C2300 C2295 1.390 . S
C2300 C2299 1.387 . S
H2301 C2313 0.930 . S
H2302 C2315 0.930 . S
H2303 C2316 0.930 . S
H2304 C2320 0.959 . S
H2305 C2320 0.959 . S
H2306 C2320 0.961 . S
H2307 C2321 0.960 . S
H2308 C2321 0.961 . S
H2309 C2321 0.959 . S
H2310 C2324 0.929 . S
H2311 C2325 0.931 . S
H2312 C2327 0.930 . S
C2313 H2301 0.930 . S
C2313 C2314 1.399 . S
C2313 C2318 1.399 . S
C2314 C2313 1.399 . S
C2314 C2315 1.376 . S
C2315 H2302 0.930 . S
C2315 C2314 1.376 . S
C2315 C2316 1.388 . S
C2316 H2303 0.930 . S
C2316 C2315 1.388 . S
C2316 C2317 1.390 . S
C2317 C2316 1.390 . S
C2317 C2318 1.394 . S
C2317 C2323 1.465 . S
C2318 C2313 1.399 . S
C2318 C2317 1.394 . S
C2318 C2319 1.516 . S
C2319 C2318 1.516 . S
C2319 C2320 1.502 . S
C2319 C2321 1.561 . S
C2319 C2322 1.526 . S
C2320 H2304 0.959 . S
C2320 H2305 0.959 . S
C2320 H2306 0.961 . S
C2320 C2319 1.502 . S
C2321 H2307 0.960 . S
C2321 H2308 0.961 . S
C2321 H2309 0.959 . S
C2321 C2319 1.561 . S
C2322 C2319 1.526 . S
C2322 C2323 1.396 . S
C2322 C2327 1.390 . S
C2323 C2317 1.465 . S
C2323 C2322 1.396 . S
C2323 C2324 1.399 . S
C2324 H2310 0.929 . S
C2324 C2323 1.399 . S
C2324 C2325 1.385 . S
C2325 H2311 0.931 . S
C2325 C2324 1.385 . S
C2325 C2326 1.389 . S
C2326 C2325 1.389 . S
C2326 C2327 1.387 . S
C2327 H2312 0.930 . S
C2327 C2322 1.390 . S
C2327 C2326 1.387 . S
H2328 C2340 0.930 . S
H2329 C2342 0.930 . S
H2330 C2343 0.930 . S
H2331 C2347 0.959 . S
H2332 C2347 0.959 . S
H2333 C2347 0.961 . S
H2334 C2348 0.960 . S
H2335 C2348 0.961 . S
H2336 C2348 0.959 . S
H2337 C2351 0.929 . S
H2338 C2352 0.931 . S
H2339 C2354 0.930 . S
C2340 H2328 0.930 . S
C2340 C2341 1.399 . S
C2340 C2345 1.399 . S
C2341 C2340 1.399 . S
C2341 C2342 1.376 . S
C2342 H2329 0.930 . S
C2342 C2341 1.376 . S
C2342 C2343 1.388 . S
C2343 H2330 0.930 . S
C2343 C2342 1.388 . S
C2343 C2344 1.390 . S
C2344 C2343 1.390 . S
C2344 C2345 1.394 . S
C2344 C2350 1.465 . S
C2345 C2340 1.399 . S
C2345 C2344 1.394 . S
C2345 C2346 1.516 . S
C2346 C2345 1.516 . S
C2346 C2347 1.502 . S
C2346 C2348 1.561 . S
C2346 C2349 1.526 . S
C2347 H2331 0.959 . S
C2347 H2332 0.959 . S
C2347 H2333 0.961 . S
C2347 C2346 1.502 . S
C2348 H2334 0.960 . S
C2348 H2335 0.961 . S
C2348 H2336 0.959 . S
C2348 C2346 1.561 . S
C2349 C2346 1.526 . S
C2349 C2350 1.396 . S
C2349 C2354 1.390 . S
C2350 C2344 1.465 . S
C2350 C2349 1.396 . S
C2350 C2351 1.399 . S
C2351 H2337 0.929 . S
C2351 C2350 1.399 . S
C2351 C2352 1.385 . S
C2352 H2338 0.931 . S
C2352 C2351 1.385 . S
C2352 C2353 1.389 . S
C2353 C2352 1.389 . S
C2353 C2354 1.387 . S
C2354 H2339 0.930 . S
C2354 C2349 1.390 . S
C2354 C2353 1.387 . S
H2355 C2367 0.930 . S
H2356 C2369 0.930 . S
H2357 C2370 0.930 . S
H2358 C2374 0.959 . S
H2359 C2374 0.959 . S
H2360 C2374 0.961 . S
H2361 C2375 0.960 . S
H2362 C2375 0.961 . S
H2363 C2375 0.959 . S
H2364 C2378 0.929 . S
H2365 C2379 0.931 . S
H2366 C2381 0.930 . S
C2367 H2355 0.930 . S
C2367 C2368 1.399 . S
C2367 C2372 1.399 . S
C2368 C2367 1.399 . S
C2368 C2369 1.376 . S
C2369 H2356 0.930 . S
C2369 C2368 1.376 . S
C2369 C2370 1.388 . S
C2370 H2357 0.930 . S
C2370 C2369 1.388 . S
C2370 C2371 1.390 . S
C2371 C2370 1.390 . S
C2371 C2372 1.394 . S
C2371 C2377 1.465 . S
C2372 C2367 1.399 . S
C2372 C2371 1.394 . S
C2372 C2373 1.516 . S
C2373 C2372 1.516 . S
C2373 C2374 1.502 . S
C2373 C2375 1.561 . S
C2373 C2376 1.526 . S
C2374 H2358 0.959 . S
C2374 H2359 0.959 . S
C2374 H2360 0.961 . S
C2374 C2373 1.502 . S
C2375 H2361 0.960 . S
C2375 H2362 0.961 . S
C2375 H2363 0.959 . S
C2375 C2373 1.561 . S
C2376 C2373 1.526 . S
C2376 C2377 1.396 . S
C2376 C2381 1.390 . S
C2377 C2371 1.465 . S
C2377 C2376 1.396 . S
C2377 C2378 1.399 . S
C2378 H2364 0.929 . S
C2378 C2377 1.399 . S
C2378 C2379 1.385 . S
C2379 H2365 0.931 . S
C2379 C2378 1.385 . S
C2379 C2380 1.389 . S
C2380 C2379 1.389 . S
C2380 C2381 1.387 . S
C2381 H2366 0.930 . S
C2381 C2376 1.390 . S
C2381 C2380 1.387 . S
H2382 C2394 0.930 . S
H2383 C2396 0.930 . S
H2384 C2397 0.930 . S
H2385 C2401 0.959 . S
H2386 C2401 0.959 . S
H2387 C2401 0.961 . S
H2388 C2402 0.960 . S
H2389 C2402 0.961 . S
H2390 C2402 0.959 . S
H2391 C2405 0.929 . S
H2392 C2406 0.931 . S
H2393 C2408 0.930 . S
C2394 H2382 0.930 . S
C2394 C2395 1.399 . S
C2394 C2399 1.399 . S
C2395 C2394 1.399 . S
C2395 C2396 1.376 . S
C2396 H2383 0.930 . S
C2396 C2395 1.376 . S
C2396 C2397 1.388 . S
C2397 H2384 0.930 . S
C2397 C2396 1.388 . S
C2397 C2398 1.390 . S
C2398 C2397 1.390 . S
C2398 C2399 1.394 . S
C2398 C2404 1.465 . S
C2399 C2394 1.399 . S
C2399 C2398 1.394 . S
C2399 C2400 1.516 . S
C2400 C2399 1.516 . S
C2400 C2401 1.502 . S
C2400 C2402 1.561 . S
C2400 C2403 1.526 . S
C2401 H2385 0.959 . S
C2401 H2386 0.959 . S
C2401 H2387 0.961 . S
C2401 C2400 1.502 . S
C2402 H2388 0.960 . S
C2402 H2389 0.961 . S
C2402 H2390 0.959 . S
C2402 C2400 1.561 . S
C2403 C2400 1.526 . S
C2403 C2404 1.396 . S
C2403 C2408 1.390 . S
C2404 C2398 1.465 . S
C2404 C2403 1.396 . S
C2404 C2405 1.399 . S
C2405 H2391 0.929 . S
C2405 C2404 1.399 . S
C2405 C2406 1.385 . S
C2406 H2392 0.931 . S
C2406 C2405 1.385 . S
C2406 C2407 1.389 . S
C2407 C2406 1.389 . S
C2407 C2408 1.387 . S
C2408 H2393 0.930 . S
C2408 C2403 1.390 . S
C2408 C2407 1.387 . S
H2409 C2421 0.930 . S
H2410 C2423 0.930 . S
H2411 C2424 0.930 . S
H2412 C2428 0.959 . S
H2413 C2428 0.959 . S
H2414 C2428 0.961 . S
H2415 C2429 0.960 . S
H2416 C2429 0.961 . S
H2417 C2429 0.959 . S
H2418 C2432 0.929 . S
H2419 C2433 0.931 . S
H2420 C2435 0.930 . S
C2421 H2409 0.930 . S
C2421 C2422 1.399 . S
C2421 C2426 1.399 . S
C2422 C2421 1.399 . S
C2422 C2423 1.376 . S
C2423 H2410 0.930 . S
C2423 C2422 1.376 . S
C2423 C2424 1.388 . S
C2424 H2411 0.930 . S
C2424 C2423 1.388 . S
C2424 C2425 1.390 . S
C2425 C2424 1.390 . S
C2425 C2426 1.394 . S
C2425 C2431 1.465 . S
C2426 C2421 1.399 . S
C2426 C2425 1.394 . S
C2426 C2427 1.516 . S
C2427 C2426 1.516 . S
C2427 C2428 1.502 . S
C2427 C2429 1.561 . S
C2427 C2430 1.526 . S
C2428 H2412 0.959 . S
C2428 H2413 0.959 . S
C2428 H2414 0.961 . S
C2428 C2427 1.502 . S
C2429 H2415 0.960 . S
C2429 H2416 0.961 . S
C2429 H2417 0.959 . S
C2429 C2427 1.561 . S
C2430 C2427 1.526 . S
C2430 C2431 1.396 . S
C2430 C2435 1.390 . S
C2431 C2425 1.465 . S
C2431 C2430 1.396 . S
C2431 C2432 1.399 . S
C2432 H2418 0.929 . S
C2432 C2431 1.399 . S
C2432 C2433 1.385 . S
C2433 H2419 0.931 . S
C2433 C2432 1.385 . S
C2433 C2434 1.389 . S
C2434 C2433 1.389 . S
C2434 C2435 1.387 . S
C2435 H2420 0.930 . S
C2435 C2430 1.390 . S
C2435 C2434 1.387 . S
H2436 C2448 0.930 . S
H2437 C2450 0.930 . S
H2438 C2451 0.930 1_655 S
H2439 C2455 0.959 . S
H2440 C2455 0.959 . S
H2441 C2455 0.961 . S
H2442 C2456 0.960 . S
H2443 C2456 0.961 . S
H2444 C2456 0.959 . S
H2445 C2459 0.929 1_655 S
H2446 C2460 0.931 1_655 S
H2447 C2462 0.930 . S
C2448 H2436 0.930 . S
C2448 C2449 1.399 . S
C2448 C2453 1.399 . S
C2449 C2448 1.399 . S
C2449 C2450 1.376 . S
C2450 H2437 0.930 . S
C2450 C2449 1.376 . S
C2450 C2451 1.388 . S
C2451 H2438 0.930 1_455 S
C2451 C2450 1.388 . S
C2451 C2452 1.390 . S
C2452 C2451 1.390 . S
C2452 C2453 1.394 . S
C2452 C2458 1.465 . S
C2453 C2448 1.399 . S
C2453 C2452 1.394 . S
C2453 C2454 1.516 . S
C2454 C2453 1.516 . S
C2454 C2455 1.502 . S
C2454 C2456 1.561 . S
C2454 C2457 1.526 . S
C2455 H2439 0.959 . S
C2455 H2440 0.959 . S
C2455 H2441 0.961 . S
C2455 C2454 1.502 . S
C2456 H2442 0.960 . S
C2456 H2443 0.961 . S
C2456 H2444 0.959 . S
C2456 C2454 1.561 . S
C2457 C2454 1.526 . S
C2457 C2458 1.396 . S
C2457 C2462 1.390 . S
C2458 C2452 1.465 . S
C2458 C2457 1.396 . S
C2458 C2459 1.399 . S
C2459 H2445 0.929 1_455 S
C2459 C2458 1.399 . S
C2459 C2460 1.385 . S
C2460 H2446 0.931 1_455 S
C2460 C2459 1.385 . S
C2460 C2461 1.389 . S
C2461 C2460 1.389 . S
C2461 C2462 1.387 . S
C2462 H2447 0.930 . S
C2462 C2457 1.390 . S
C2462 C2461 1.387 . S
H2463 C2475 0.930 . S
H2464 C2477 0.930 . S
H2465 C2478 0.930 . S
H2466 C2482 0.959 . S
H2467 C2482 0.959 . S
H2468 C2482 0.961 . S
H2469 C2483 0.960 . S
H2470 C2483 0.961 . S
H2471 C2483 0.959 . S
H2472 C2486 0.929 . S
H2473 C2487 0.931 . S
H2474 C2489 0.930 . S
C2475 H2463 0.930 . S
C2475 C2476 1.399 . S
C2475 C2480 1.399 . S
C2476 C2475 1.399 . S
C2476 C2477 1.376 . S
C2477 H2464 0.930 . S
C2477 C2476 1.376 . S
C2477 C2478 1.388 . S
C2478 H2465 0.930 . S
C2478 C2477 1.388 . S
C2478 C2479 1.390 . S
C2479 C2478 1.390 . S
C2479 C2480 1.394 . S
C2479 C2485 1.465 . S
C2480 C2475 1.399 . S
C2480 C2479 1.394 . S
C2480 C2481 1.516 . S
C2481 C2480 1.516 . S
C2481 C2482 1.502 . S
C2481 C2483 1.561 . S
C2481 C2484 1.526 . S
C2482 H2466 0.959 . S
C2482 H2467 0.959 . S
C2482 H2468 0.961 . S
C2482 C2481 1.502 . S
C2483 H2469 0.960 . S
C2483 H2470 0.961 . S
C2483 H2471 0.959 . S
C2483 C2481 1.561 . S
C2484 C2481 1.526 . S
C2484 C2485 1.396 . S
C2484 C2489 1.390 . S
C2485 C2479 1.465 . S
C2485 C2484 1.396 . S
C2485 C2486 1.399 . S
C2486 H2472 0.929 . S
C2486 C2485 1.399 . S
C2486 C2487 1.385 . S
C2487 H2473 0.931 . S
C2487 C2486 1.385 . S
C2487 C2488 1.389 . S
C2488 C2487 1.389 . S
C2488 C2489 1.387 . S
C2489 H2474 0.930 . S
C2489 C2484 1.390 . S
C2489 C2488 1.387 . S
H2490 C2502 0.930 . S
H2491 C2504 0.930 . S
H2492 C2505 0.930 . S
H2493 C2509 0.959 . S
H2494 C2509 0.959 . S
H2495 C2509 0.961 . S
H2496 C2510 0.960 . S
H2497 C2510 0.961 . S
H2498 C2510 0.959 . S
H2499 C2513 0.929 . S
H2500 C2514 0.931 . S
H2501 C2516 0.930 . S
C2502 H2490 0.930 . S
C2502 C2503 1.399 . S
C2502 C2507 1.399 . S
C2503 C2502 1.399 . S
C2503 C2504 1.376 . S
C2504 H2491 0.930 . S
C2504 C2503 1.376 . S
C2504 C2505 1.388 . S
C2505 H2492 0.930 . S
C2505 C2504 1.388 . S
C2505 C2506 1.390 . S
C2506 C2505 1.390 . S
C2506 C2507 1.394 . S
C2506 C2512 1.465 . S
C2507 C2502 1.399 . S
C2507 C2506 1.394 . S
C2507 C2508 1.516 . S
C2508 C2507 1.516 . S
C2508 C2509 1.502 . S
C2508 C2510 1.561 . S
C2508 C2511 1.526 . S
C2509 H2493 0.959 . S
C2509 H2494 0.959 . S
C2509 H2495 0.961 . S
C2509 C2508 1.502 . S
C2510 H2496 0.960 . S
C2510 H2497 0.961 . S
C2510 H2498 0.959 . S
C2510 C2508 1.561 . S
C2511 C2508 1.526 . S
C2511 C2512 1.396 . S
C2511 C2516 1.390 . S
C2512 C2506 1.465 . S
C2512 C2511 1.396 . S
C2512 C2513 1.399 . S
C2513 H2499 0.929 . S
C2513 C2512 1.399 . S
C2513 C2514 1.385 . S
C2514 H2500 0.931 . S
C2514 C2513 1.385 . S
C2514 C2515 1.389 . S
C2515 C2514 1.389 . S
C2515 C2516 1.387 . S
C2516 H2501 0.930 . S
C2516 C2511 1.390 . S
C2516 C2515 1.387 . S
H2517 C2529 0.930 . S
H2518 C2531 0.930 . S
H2519 C2532 0.930 . S
H2520 C2536 0.959 . S
H2521 C2536 0.959 . S
H2522 C2536 0.961 . S
H2523 C2537 0.960 . S
H2524 C2537 0.961 . S
H2525 C2537 0.959 . S
H2526 C2540 0.929 . S
H2527 C2541 0.931 . S
H2528 C2543 0.930 . S
C2529 H2517 0.930 . S
C2529 C2530 1.399 . S
C2529 C2534 1.399 . S
C2530 C2529 1.399 . S
C2530 C2531 1.376 . S
C2531 H2518 0.930 . S
C2531 C2530 1.376 . S
C2531 C2532 1.388 . S
C2532 H2519 0.930 . S
C2532 C2531 1.388 . S
C2532 C2533 1.390 . S
C2533 C2532 1.390 . S
C2533 C2534 1.394 . S
C2533 C2539 1.465 . S
C2534 C2529 1.399 . S
C2534 C2533 1.394 . S
C2534 C2535 1.516 . S
C2535 C2534 1.516 . S
C2535 C2536 1.502 . S
C2535 C2537 1.561 . S
C2535 C2538 1.526 . S
C2536 H2520 0.959 . S
C2536 H2521 0.959 . S
C2536 H2522 0.961 . S
C2536 C2535 1.502 . S
C2537 H2523 0.960 . S
C2537 H2524 0.961 . S
C2537 H2525 0.959 . S
C2537 C2535 1.561 . S
C2538 C2535 1.526 . S
C2538 C2539 1.396 . S
C2538 C2543 1.390 . S
C2539 C2533 1.465 . S
C2539 C2538 1.396 . S
C2539 C2540 1.399 . S
C2540 H2526 0.929 . S
C2540 C2539 1.399 . S
C2540 C2541 1.385 . S
C2541 H2527 0.931 . S
C2541 C2540 1.385 . S
C2541 C2542 1.389 . S
C2542 C2541 1.389 . S
C2542 C2543 1.387 . S
C2543 H2528 0.930 . S
C2543 C2538 1.390 . S
C2543 C2542 1.387 . S
H2544 C2556 0.930 . S
H2545 C2558 0.930 . S
H2546 C2559 0.930 1_565 S
H2547 C2563 0.959 . S
H2548 C2563 0.959 . S
H2549 C2563 0.961 . S
H2550 C2564 0.960 . S
H2551 C2564 0.961 . S
H2552 C2564 0.959 . S
H2553 C2567 0.929 1_565 S
H2554 C2568 0.931 1_565 S
H2555 C2570 0.930 . S
C2556 H2544 0.930 . S
C2556 C2557 1.399 . S
C2556 C2561 1.399 . S
C2557 C2556 1.399 . S
C2557 C2558 1.376 . S
C2558 H2545 0.930 . S
C2558 C2557 1.376 . S
C2558 C2559 1.388 . S
C2559 H2546 0.930 1_545 S
C2559 C2558 1.388 . S
C2559 C2560 1.390 . S
C2560 C2559 1.390 . S
C2560 C2561 1.394 . S
C2560 C2566 1.465 . S
C2561 C2556 1.399 . S
C2561 C2560 1.394 . S
C2561 C2562 1.516 . S
C2562 C2561 1.516 . S
C2562 C2563 1.502 . S
C2562 C2564 1.561 . S
C2562 C2565 1.526 . S
C2563 H2547 0.959 . S
C2563 H2548 0.959 . S
C2563 H2549 0.961 . S
C2563 C2562 1.502 . S
C2564 H2550 0.960 . S
C2564 H2551 0.961 . S
C2564 H2552 0.959 . S
C2564 C2562 1.561 . S
C2565 C2562 1.526 . S
C2565 C2566 1.396 . S
C2565 C2570 1.390 . S
C2566 C2560 1.465 . S
C2566 C2565 1.396 . S
C2566 C2567 1.399 . S
C2567 H2553 0.929 1_545 S
C2567 C2566 1.399 . S
C2567 C2568 1.385 . S
C2568 H2554 0.931 1_545 S
C2568 C2567 1.385 . S
C2568 C2569 1.389 . S
C2569 C2568 1.389 . S
C2569 C2570 1.387 . S
C2570 H2555 0.930 . S
C2570 C2565 1.390 . S
C2570 C2569 1.387 . S
H2571 C2583 0.930 . S
H2572 C2585 0.930 . S
H2573 C2586 0.930 . S
H2574 C2590 0.959 . S
H2575 C2590 0.959 . S
H2576 C2590 0.961 . S
H2577 C2591 0.960 . S
H2578 C2591 0.961 . S
H2579 C2591 0.959 . S
H2580 C2594 0.929 . S
H2581 C2595 0.931 . S
H2582 C2597 0.930 . S
C2583 H2571 0.930 . S
C2583 C2584 1.399 . S
C2583 C2588 1.399 . S
C2584 C2583 1.399 . S
C2584 C2585 1.376 . S
C2585 H2572 0.930 . S
C2585 C2584 1.376 . S
C2585 C2586 1.388 . S
C2586 H2573 0.930 . S
C2586 C2585 1.388 . S
C2586 C2587 1.390 . S
C2587 C2586 1.390 . S
C2587 C2588 1.394 . S
C2587 C2593 1.465 . S
C2588 C2583 1.399 . S
C2588 C2587 1.394 . S
C2588 C2589 1.516 . S
C2589 C2588 1.516 . S
C2589 C2590 1.502 . S
C2589 C2591 1.561 . S
C2589 C2592 1.526 . S
C2590 H2574 0.959 . S
C2590 H2575 0.959 . S
C2590 H2576 0.961 . S
C2590 C2589 1.502 . S
C2591 H2577 0.960 . S
C2591 H2578 0.961 . S
C2591 H2579 0.959 . S
C2591 C2589 1.561 . S
C2592 C2589 1.526 . S
C2592 C2593 1.396 . S
C2592 C2597 1.390 . S
C2593 C2587 1.465 . S
C2593 C2592 1.396 . S
C2593 C2594 1.399 . S
C2594 H2580 0.929 . S
C2594 C2593 1.399 . S
C2594 C2595 1.385 . S
C2595 H2581 0.931 . S
C2595 C2594 1.385 . S
C2595 C2596 1.389 . S
C2596 C2595 1.389 . S
C2596 C2597 1.387 . S
C2597 H2582 0.930 . S
C2597 C2592 1.390 . S
C2597 C2596 1.387 . S
H2598 C2610 0.930 . S
H2599 C2612 0.930 . S
H2600 C2613 0.930 . S
H2601 C2617 0.959 . S
H2602 C2617 0.959 . S
H2603 C2617 0.961 . S
H2604 C2618 0.960 . S
H2605 C2618 0.961 . S
H2606 C2618 0.959 . S
H2607 C2621 0.929 1_565 S
H2608 C2622 0.931 . S
H2609 C2624 0.930 . S
C2610 H2598 0.930 . S
C2610 C2611 1.399 . S
C2610 C2615 1.399 . S
C2611 C2610 1.399 . S
C2611 C2612 1.376 1_545 S
C2612 H2599 0.930 . S
C2612 C2611 1.376 1_565 S
C2612 C2613 1.388 . S
C2613 H2600 0.930 . S
C2613 C2612 1.388 . S
C2613 C2614 1.390 1_565 S
C2614 C2613 1.390 1_545 S
C2614 C2615 1.394 . S
C2614 C2620 1.465 . S
C2615 C2610 1.399 . S
C2615 C2614 1.394 . S
C2615 C2616 1.516 . S
C2616 C2615 1.516 . S
C2616 C2617 1.502 . S
C2616 C2618 1.561 . S
C2616 C2619 1.526 . S
C2617 H2601 0.959 . S
C2617 H2602 0.959 . S
C2617 H2603 0.961 . S
C2617 C2616 1.502 . S
C2618 H2604 0.960 . S
C2618 H2605 0.961 . S
C2618 H2606 0.959 . S
C2618 C2616 1.561 . S
C2619 C2616 1.526 . S
C2619 C2620 1.396 . S
C2619 C2624 1.390 . S
C2620 C2614 1.465 . S
C2620 C2619 1.396 . S
C2620 C2621 1.399 . S
C2621 H2607 0.929 1_545 S
C2621 C2620 1.399 . S
C2621 C2622 1.385 . S
C2622 H2608 0.931 . S
C2622 C2621 1.385 . S
C2622 C2623 1.389 . S
C2623 C2622 1.389 . S
C2623 C2624 1.387 . S
C2624 H2609 0.930 . S
C2624 C2619 1.390 . S
C2624 C2623 1.387 . S
H2625 C2637 0.930 . S
H2626 C2639 0.930 . S
H2627 C2640 0.930 . S
H2628 C2644 0.959 . S
H2629 C2644 0.959 . S
H2630 C2644 0.961 . S
H2631 C2645 0.960 . S
H2632 C2645 0.961 . S
H2633 C2645 0.959 . S
H2634 C2648 0.929 . S
H2635 C2649 0.931 . S
H2636 C2651 0.930 . S
C2637 H2625 0.930 . S
C2637 C2638 1.399 . S
C2637 C2642 1.399 . S
C2638 C2637 1.399 . S
C2638 C2639 1.376 . S
C2639 H2626 0.930 . S
C2639 C2638 1.376 . S
C2639 C2640 1.388 . S
C2640 H2627 0.930 . S
C2640 C2639 1.388 . S
C2640 C2641 1.390 . S
C2641 C2640 1.390 . S
C2641 C2642 1.394 . S
C2641 C2647 1.465 . S
C2642 C2637 1.399 . S
C2642 C2641 1.394 . S
C2642 C2643 1.516 . S
C2643 C2642 1.516 . S
C2643 C2644 1.502 . S
C2643 C2645 1.561 . S
C2643 C2646 1.526 . S
C2644 H2628 0.959 . S
C2644 H2629 0.959 . S
C2644 H2630 0.961 . S
C2644 C2643 1.502 . S
C2645 H2631 0.960 . S
C2645 H2632 0.961 . S
C2645 H2633 0.959 . S
C2645 C2643 1.561 . S
C2646 C2643 1.526 . S
C2646 C2647 1.396 . S
C2646 C2651 1.390 . S
C2647 C2641 1.465 . S
C2647 C2646 1.396 . S
C2647 C2648 1.399 . S
C2648 H2634 0.929 . S
C2648 C2647 1.399 . S
C2648 C2649 1.385 . S
C2649 H2635 0.931 . S
C2649 C2648 1.385 . S
C2649 C2650 1.389 . S
C2650 C2649 1.389 . S
C2650 C2651 1.387 . S
C2651 H2636 0.930 . S
C2651 C2646 1.390 . S
C2651 C2650 1.387 . S
H2652 C2664 0.930 . S
H2653 C2666 0.930 . S
H2654 C2667 0.952 . S
H2655 C2671 0.959 . S
H2656 C2671 0.959 . S
H2657 C2671 0.961 . S
H2658 C2672 0.960 . S
H2659 C2672 0.961 . S
H2660 C2672 0.959 . S
H2661 C2675 0.929 1_565 S
H2662 C2676 0.931 . S
H2663 C2678 0.930 . S
C2664 H2652 0.930 . S
C2664 C2665 1.399 . S
C2664 C2669 1.399 . S
C2665 C2664 1.399 . S
C2665 C2666 1.376 . S
C2666 H2653 0.930 . S
C2666 C2665 1.376 . S
C2666 C2667 1.388 . S
C2667 H2654 0.952 . S
C2667 C2666 1.388 . S
C2667 C2668 1.390 . S
C2668 C2667 1.390 . S
C2668 C2669 1.394 . S
C2668 C2674 1.465 . S
C2669 C2664 1.399 . S
C2669 C2668 1.394 . S
C2669 C2670 1.516 . S
C2670 C2669 1.516 . S
C2670 C2671 1.502 . S
C2670 C2672 1.561 . S
C2670 C2673 1.526 . S
C2671 H2655 0.959 . S
C2671 H2656 0.959 . S
C2671 H2657 0.961 . S
C2671 C2670 1.502 . S
C2672 H2658 0.960 . S
C2672 H2659 0.961 . S
C2672 H2660 0.959 . S
C2672 C2670 1.561 . S
C2673 C2670 1.526 . S
C2673 C2674 1.396 . S
C2673 C2678 1.390 . S
C2674 C2668 1.465 . S
C2674 C2673 1.396 . S
C2674 C2675 1.399 . S
C2675 H2661 0.929 1_545 S
C2675 C2674 1.399 . S
C2675 C2676 1.385 . S
C2676 H2662 0.931 . S
C2676 C2675 1.385 . S
C2676 C2677 1.389 . S
C2677 C2676 1.389 . S
C2677 C2678 1.387 . S
C2678 H2663 0.930 . S
C2678 C2673 1.390 . S
C2678 C2677 1.387 . S
H2679 C2691 0.930 . S
H2680 C2693 0.930 . S
H2681 C2694 0.930 . S
H2682 C2698 0.959 . S
H2683 C2698 0.959 . S
H2684 C2698 0.961 . S
H2685 C2699 0.960 . S
H2686 C2699 0.961 . S
H2687 C2699 0.959 . S
H2688 C2702 0.929 . S
H2689 C2703 0.931 . S
H2690 C2705 0.930 . S
C2691 H2679 0.930 . S
C2691 C2692 1.399 . S
C2691 C2696 1.399 . S
C2692 C2691 1.399 . S
C2692 C2693 1.376 . S
C2693 H2680 0.930 . S
C2693 C2692 1.376 . S
C2693 C2694 1.388 . S
C2694 H2681 0.930 . S
C2694 C2693 1.388 . S
C2694 C2695 1.390 . S
C2695 C2694 1.390 . S
C2695 C2696 1.394 . S
C2695 C2701 1.465 . S
C2696 C2691 1.399 . S
C2696 C2695 1.394 . S
C2696 C2697 1.516 . S
C2697 C2696 1.516 . S
C2697 C2698 1.502 . S
C2697 C2699 1.561 . S
C2697 C2700 1.526 . S
C2698 H2682 0.959 . S
C2698 H2683 0.959 . S
C2698 H2684 0.961 . S
C2698 C2697 1.502 . S
C2699 H2685 0.960 . S
C2699 H2686 0.961 . S
C2699 H2687 0.959 . S
C2699 C2697 1.561 . S
C2700 C2697 1.526 . S
C2700 C2701 1.396 . S
C2700 C2705 1.390 . S
C2701 C2695 1.465 . S
C2701 C2700 1.396 . S
C2701 C2702 1.399 . S
C2702 H2688 0.929 . S
C2702 C2701 1.399 . S
C2702 C2703 1.385 . S
C2703 H2689 0.931 . S
C2703 C2702 1.385 . S
C2703 C2704 1.389 . S
C2704 C2703 1.389 . S
C2704 C2705 1.387 . S
C2705 H2690 0.930 . S
C2705 C2700 1.390 . S
C2705 C2704 1.387 . S
H2706 C2718 0.930 . S
H2707 C2720 0.930 . S
H2708 C2721 0.930 . S
H2709 C2725 0.959 . S
H2710 C2725 0.959 . S
H2711 C2725 0.961 . S
H2712 C2726 0.960 . S
H2713 C2726 0.961 . S
H2714 C2726 0.959 . S
H2715 C2729 0.929 . S
H2716 C2730 0.931 . S
H2717 C2732 0.930 . S
C2718 H2706 0.930 . S
C2718 C2719 1.399 1_565 S
C2718 C2723 1.399 . S
C2719 C2718 1.399 1_545 S
C2719 C2720 1.376 . S
C2720 H2707 0.930 . S
C2720 C2719 1.376 . S
C2720 C2721 1.388 . S
C2721 H2708 0.930 . S
C2721 C2720 1.388 . S
C2721 C2722 1.390 . S
C2722 C2721 1.390 . S
C2722 C2723 1.394 1_545 S
C2722 C2728 1.465 . S
C2723 C2718 1.399 . S
C2723 C2722 1.394 1_565 S
C2723 C2724 1.516 . S
C2724 C2723 1.516 . S
C2724 C2725 1.502 . S
C2724 C2726 1.561 . S
C2724 C2727 1.526 . S
C2725 H2709 0.959 . S
C2725 H2710 0.959 . S
C2725 H2711 0.961 . S
C2725 C2724 1.502 . S
C2726 H2712 0.960 . S
C2726 H2713 0.961 . S
C2726 H2714 0.959 . S
C2726 C2724 1.561 . S
C2727 C2724 1.526 . S
C2727 C2728 1.396 1_565 S
C2727 C2732 1.389 . S
C2728 C2722 1.465 . S
C2728 C2727 1.396 1_545 S
C2728 C2729 1.399 . S
C2729 H2715 0.929 . S
C2729 C2728 1.399 . S
C2729 C2730 1.385 . S
C2730 H2716 0.931 . S
C2730 C2729 1.385 . S
C2730 C2731 1.389 . S
C2731 C2730 1.389 . S
C2731 C2732 1.387 1_545 S
C2732 H2717 0.930 . S
C2732 C2727 1.389 . S
C2732 C2731 1.387 1_565 S
H2733 C2745 0.930 . S
H2734 C2747 0.930 . S
H2735 C2748 0.930 . S
H2736 C2752 0.959 . S
H2737 C2752 0.959 . S
H2738 C2752 0.961 . S
H2739 C2753 0.960 . S
H2740 C2753 0.961 . S
H2741 C2753 0.959 . S
H2742 C2756 0.929 . S
H2743 C2757 0.931 . S
H2744 C2759 0.930 . S
C2745 H2733 0.930 . S
C2745 C2746 1.399 . S
C2745 C2750 1.399 . S
C2746 C2745 1.399 . S
C2746 C2747 1.376 . S
C2747 H2734 0.930 . S
C2747 C2746 1.376 . S
C2747 C2748 1.388 . S
C2748 H2735 0.930 . S
C2748 C2747 1.388 . S
C2748 C2749 1.390 . S
C2749 C2748 1.390 . S
C2749 C2750 1.394 . S
C2749 C2755 1.465 . S
C2750 C2745 1.399 . S
C2750 C2749 1.394 . S
C2750 C2751 1.516 . S
C2751 C2750 1.516 . S
C2751 C2752 1.502 . S
C2751 C2753 1.561 . S
C2751 C2754 1.526 . S
C2752 H2736 0.959 . S
C2752 H2737 0.959 . S
C2752 H2738 0.961 . S
C2752 C2751 1.502 . S
C2753 H2739 0.960 . S
C2753 H2740 0.961 . S
C2753 H2741 0.959 . S
C2753 C2751 1.561 . S
C2754 C2751 1.526 . S
C2754 C2755 1.396 . S
C2754 C2759 1.390 . S
C2755 C2749 1.465 . S
C2755 C2754 1.396 . S
C2755 C2756 1.399 . S
C2756 H2742 0.929 . S
C2756 C2755 1.399 . S
C2756 C2757 1.385 . S
C2757 H2743 0.931 . S
C2757 C2756 1.385 . S
C2757 C2758 1.389 . S
C2758 C2757 1.389 . S
C2758 C2759 1.387 . S
C2759 H2744 0.930 . S
C2759 C2754 1.390 . S
C2759 C2758 1.387 . S
H2760 C2772 0.930 . S
H2761 C2774 0.930 . S
H2762 C2775 0.930 . S
H2763 C2779 0.959 . S
H2764 C2779 0.959 . S
H2765 C2779 0.961 . S
H2766 C2780 0.960 . S
H2767 C2780 0.961 . S
H2768 C2780 0.959 . S
H2769 C2783 0.929 . S
H2770 C2784 0.931 . S
H2771 C2786 0.930 . S
C2772 H2760 0.930 . S
C2772 C2773 1.399 . S
C2772 C2777 1.399 . S
C2773 C2772 1.399 . S
C2773 C2774 1.376 . S
C2774 H2761 0.930 . S
C2774 C2773 1.376 . S
C2774 C2775 1.388 . S
C2775 H2762 0.930 . S
C2775 C2774 1.388 . S
C2775 C2776 1.390 . S
C2776 C2775 1.390 . S
C2776 C2777 1.394 . S
C2776 C2782 1.465 . S
C2777 C2772 1.399 . S
C2777 C2776 1.394 . S
C2777 C2778 1.516 . S
C2778 C2777 1.516 . S
C2778 C2779 1.502 1_554 S
C2778 C2780 1.561 . S
C2778 C2781 1.526 . S
C2779 H2763 0.959 . S
C2779 H2764 0.959 . S
C2779 H2765 0.961 . S
C2779 C2778 1.502 1_556 S
C2780 H2766 0.960 . S
C2780 H2767 0.961 . S
C2780 H2768 0.959 . S
C2780 C2778 1.561 . S
C2781 C2778 1.526 . S
C2781 C2782 1.396 . S
C2781 C2786 1.390 . S
C2782 C2776 1.465 . S
C2782 C2781 1.396 . S
C2782 C2783 1.399 . S
C2783 H2769 0.929 . S
C2783 C2782 1.399 . S
C2783 C2784 1.385 . S
C2784 H2770 0.931 . S
C2784 C2783 1.385 . S
C2784 C2785 1.389 . S
C2785 C2784 1.389 . S
C2785 C2786 1.387 . S
C2786 H2771 0.930 . S
C2786 C2781 1.390 . S
C2786 C2785 1.387 . S
H2787 C2799 0.930 . S
H2788 C2801 0.930 . S
H2789 C2802 0.930 . S
H2790 C2806 0.959 . S
H2791 C2806 0.959 . S
H2792 C2806 0.961 . S
H2793 C2807 0.960 . S
H2794 C2807 0.961 . S
H2795 C2807 0.959 . S
H2796 C2810 0.929 . S
H2797 C2811 0.931 . S
H2798 C2813 0.930 . S
C2799 H2787 0.930 . S
C2799 C2800 1.399 . S
C2799 C2804 1.399 . S
C2800 C2799 1.399 . S
C2800 C2801 1.376 . S
C2801 H2788 0.930 . S
C2801 C2800 1.376 . S
C2801 C2802 1.388 . S
C2802 H2789 0.930 . S
C2802 C2801 1.388 . S
C2802 C2803 1.390 . S
C2803 C2802 1.390 . S
C2803 C2804 1.394 . S
C2803 C2809 1.465 . S
C2804 C2799 1.399 . S
C2804 C2803 1.394 . S
C2804 C2805 1.516 . S
C2805 C2804 1.516 . S
C2805 C2806 1.502 . S
C2805 C2807 1.561 . S
C2805 C2808 1.526 . S
C2806 H2790 0.959 . S
C2806 H2791 0.959 . S
C2806 H2792 0.961 . S
C2806 C2805 1.502 . S
C2807 H2793 0.960 . S
C2807 H2794 0.961 . S
C2807 H2795 0.959 . S
C2807 C2805 1.561 . S
C2808 C2805 1.526 . S
C2808 C2809 1.396 . S
C2808 C2813 1.390 . S
C2809 C2803 1.465 . S
C2809 C2808 1.396 . S
C2809 C2810 1.399 . S
C2810 H2796 0.929 . S
C2810 C2809 1.399 . S
C2810 C2811 1.385 . S
C2811 H2797 0.931 . S
C2811 C2810 1.385 . S
C2811 C2812 1.389 . S
C2812 C2811 1.389 . S
C2812 C2813 1.387 . S
C2813 H2798 0.930 . S
C2813 C2808 1.390 . S
C2813 C2812 1.387 . S
H2814 C2826 0.930 . S
H2815 C2828 0.930 . S
H2816 C2829 0.930 . S
H2817 C2833 0.959 . S
H2818 C2833 0.959 . S
H2819 C2833 0.961 . S
H2820 C2834 0.960 . S
H2821 C2834 0.961 . S
H2822 C2834 0.959 . S
H2823 C2837 0.929 . S
H2824 C2838 0.931 . S
H2825 C2840 0.930 . S
C2826 H2814 0.930 . S
C2826 C2827 1.399 . S
C2826 C2831 1.399 . S
C2827 C2826 1.399 . S
C2827 C2828 1.376 . S
C2828 H2815 0.930 . S
C2828 C2827 1.376 . S
C2828 C2829 1.388 . S
C2829 H2816 0.930 . S
C2829 C2828 1.388 . S
C2829 C2830 1.390 . S
C2830 C2829 1.390 . S
C2830 C2831 1.394 . S
C2830 C2836 1.465 . S
C2831 C2826 1.399 . S
C2831 C2830 1.394 . S
C2831 C2832 1.516 . S
C2832 C2831 1.516 . S
C2832 C2833 1.502 . S
C2832 C2834 1.561 . S
C2832 C2835 1.526 . S
C2833 H2817 0.959 . S
C2833 H2818 0.959 . S
C2833 H2819 0.961 . S
C2833 C2832 1.502 . S
C2834 H2820 0.960 . S
C2834 H2821 0.961 . S
C2834 H2822 0.959 . S
C2834 C2832 1.561 . S
C2835 C2832 1.526 . S
C2835 C2836 1.396 . S
C2835 C2840 1.390 . S
C2836 C2830 1.465 . S
C2836 C2835 1.396 . S
C2836 C2837 1.399 . S
C2837 H2823 0.929 . S
C2837 C2836 1.399 . S
C2837 C2838 1.385 . S
C2838 H2824 0.931 . S
C2838 C2837 1.385 . S
C2838 C2839 1.389 . S
C2839 C2838 1.389 . S
C2839 C2840 1.387 . S
C2840 H2825 0.930 . S
C2840 C2835 1.390 . S
C2840 C2839 1.387 . S
H2841 C2853 0.930 . S
H2842 C2855 0.930 . S
H2843 C2856 0.930 . S
H2844 C2860 0.959 . S
H2845 C2860 0.959 . S
H2846 C2860 0.961 . S
H2847 C2861 0.960 . S
H2848 C2861 0.961 . S
H2849 C2861 0.959 . S
H2850 C2864 0.929 . S
H2851 C2865 0.931 . S
H2852 C2867 0.930 . S
C2853 H2841 0.930 . S
C2853 C2854 1.399 . S
C2853 C2858 1.399 . S
C2854 C2853 1.399 . S
C2854 C2855 1.376 . S
C2855 H2842 0.930 . S
C2855 C2854 1.376 . S
C2855 C2856 1.388 . S
C2856 H2843 0.930 . S
C2856 C2855 1.388 . S
C2856 C2857 1.390 . S
C2857 C2856 1.390 . S
C2857 C2858 1.394 . S
C2857 C2863 1.465 . S
C2858 C2853 1.399 . S
C2858 C2857 1.394 . S
C2858 C2859 1.516 . S
C2859 C2858 1.516 . S
C2859 C2860 1.502 . S
C2859 C2861 1.561 . S
C2859 C2862 1.526 . S
C2860 H2844 0.959 . S
C2860 H2845 0.959 . S
C2860 H2846 0.961 . S
C2860 C2859 1.502 . S
C2861 H2847 0.960 . S
C2861 H2848 0.961 . S
C2861 H2849 0.959 . S
C2861 C2859 1.561 . S
C2862 C2859 1.526 . S
C2862 C2863 1.396 . S
C2862 C2867 1.390 . S
C2863 C2857 1.465 . S
C2863 C2862 1.396 . S
C2863 C2864 1.399 . S
C2864 H2850 0.929 . S
C2864 C2863 1.399 . S
C2864 C2865 1.385 . S
C2865 H2851 0.931 . S
C2865 C2864 1.385 . S
C2865 C2866 1.389 . S
C2866 C2865 1.389 . S
C2866 C2867 1.387 . S
C2867 H2852 0.930 . S
C2867 C2862 1.390 . S
C2867 C2866 1.387 . S
H2868 C2880 0.930 . S
H2869 C2882 0.930 . S
H2870 C2883 0.937 . S
H2871 C2887 0.959 . S
H2872 C2887 0.959 . S
H2873 C2887 0.961 . S
H2874 C2888 0.960 . S
H2875 C2888 0.961 . S
H2876 C2888 0.959 . S
H2877 C2891 0.929 . S
H2878 C2892 0.931 . S
H2879 C2894 0.930 . S
C2880 H2868 0.930 . S
C2880 C2881 1.399 . S
C2880 C2885 1.399 . S
C2881 C2880 1.399 . S
C2881 C2882 1.376 1_565 S
C2882 H2869 0.930 . S
C2882 C2881 1.376 1_545 S
C2882 C2883 1.388 1_545 S
C2883 H2870 0.937 . S
C2883 C2882 1.388 1_565 S
C2883 C2884 1.390 . S
C2884 C2883 1.390 . S
C2884 C2885 1.394 . S
C2884 C2890 1.465 . S
C2885 C2880 1.399 . S
C2885 C2884 1.394 . S
C2885 C2886 1.516 . S
C2886 C2885 1.516 . S
C2886 C2887 1.502 . S
C2886 C2888 1.561 . S
C2886 C2889 1.526 . S
C2887 H2871 0.959 . S
C2887 H2872 0.959 . S
C2887 H2873 0.961 . S
C2887 C2886 1.502 . S
C2888 H2874 0.960 . S
C2888 H2875 0.961 . S
C2888 H2876 0.959 . S
C2888 C2886 1.561 . S
C2889 C2886 1.526 . S
C2889 C2890 1.396 . S
C2889 C2894 1.390 . S
C2890 C2884 1.465 . S
C2890 C2889 1.396 . S
C2890 C2891 1.399 . S
C2891 H2877 0.929 . S
C2891 C2890 1.399 . S
C2891 C2892 1.385 . S
C2892 H2878 0.931 . S
C2892 C2891 1.385 . S
C2892 C2893 1.389 . S
C2893 C2892 1.389 . S
C2893 C2894 1.387 . S
C2894 H2879 0.930 . S
C2894 C2889 1.390 . S
C2894 C2893 1.387 . S
H2895 C2907 0.930 . S
H2896 C2909 0.930 . S
H2897 C2910 0.930 . S
H2898 C2914 0.959 . S
H2899 C2914 0.959 . S
H2900 C2914 0.961 . S
H2901 C2915 0.960 . S
H2902 C2915 0.961 . S
H2903 C2915 0.959 . S
H2904 C2918 0.929 . S
H2905 C2919 0.931 . S
H2906 C2921 0.930 . S
C2907 H2895 0.930 . S
C2907 C2908 1.399 . S
C2907 C2912 1.399 . S
C2908 C2907 1.399 . S
C2908 C2909 1.376 . S
C2909 H2896 0.930 . S
C2909 C2908 1.376 . S
C2909 C2910 1.388 . S
C2910 H2897 0.930 . S
C2910 C2909 1.388 . S
C2910 C2911 1.390 . S
C2911 C2910 1.390 . S
C2911 C2912 1.394 . S
C2911 C2917 1.465 . S
C2912 C2907 1.399 . S
C2912 C2911 1.394 . S
C2912 C2913 1.516 . S
C2913 C2912 1.516 . S
C2913 C2914 1.502 . S
C2913 C2915 1.561 . S
C2913 C2916 1.526 . S
C2914 H2898 0.959 . S
C2914 H2899 0.959 . S
C2914 H2900 0.961 . S
C2914 C2913 1.502 . S
C2915 H2901 0.960 . S
C2915 H2902 0.961 . S
C2915 H2903 0.959 . S
C2915 C2913 1.561 . S
C2916 C2913 1.526 . S
C2916 C2917 1.396 . S
C2916 C2921 1.390 . S
C2917 C2911 1.465 . S
C2917 C2916 1.396 . S
C2917 C2918 1.399 . S
C2918 H2904 0.929 . S
C2918 C2917 1.399 . S
C2918 C2919 1.385 . S
C2919 H2905 0.931 . S
C2919 C2918 1.385 . S
C2919 C2920 1.389 . S
C2920 C2919 1.389 . S
C2920 C2921 1.387 . S
C2921 H2906 0.930 . S
C2921 C2916 1.390 . S
C2921 C2920 1.387 . S
H2922 C2934 0.930 . S
H2923 C2936 0.930 . S
H2924 C2937 0.930 . S
H2925 C2941 0.959 . S
H2926 C2941 0.959 . S
H2927 C2941 0.961 . S
H2928 C2942 0.960 . S
H2929 C2942 0.961 . S
H2930 C2942 0.959 . S
H2931 C2945 0.929 . S
H2932 C2946 0.931 . S
H2933 C2948 0.930 . S
C2934 H2922 0.930 . S
C2934 C2935 1.399 . S
C2934 C2939 1.399 . S
C2935 C2934 1.399 . S
C2935 C2936 1.376 . S
C2936 H2923 0.930 . S
C2936 C2935 1.376 . S
C2936 C2937 1.388 . S
C2937 H2924 0.930 . S
C2937 C2936 1.388 . S
C2937 C2938 1.390 . S
C2938 C2937 1.390 . S
C2938 C2939 1.394 . S
C2938 C2944 1.465 . S
C2939 C2934 1.399 . S
C2939 C2938 1.394 . S
C2939 C2940 1.516 . S
C2940 C2939 1.516 . S
C2940 C2941 1.502 . S
C2940 C2942 1.561 . S
C2940 C2943 1.526 . S
C2941 H2925 0.959 . S
C2941 H2926 0.959 . S
C2941 H2927 0.961 . S
C2941 C2940 1.502 . S
C2942 H2928 0.960 . S
C2942 H2929 0.961 . S
C2942 H2930 0.959 . S
C2942 C2940 1.561 . S
C2943 C2940 1.526 . S
C2943 C2944 1.396 . S
C2943 C2948 1.390 . S
C2944 C2938 1.465 . S
C2944 C2943 1.396 . S
C2944 C2945 1.399 . S
C2945 H2931 0.929 . S
C2945 C2944 1.399 . S
C2945 C2946 1.385 . S
C2946 H2932 0.931 . S
C2946 C2945 1.385 . S
C2946 C2947 1.389 . S
C2947 C2946 1.389 . S
C2947 C2948 1.387 . S
C2948 H2933 0.930 . S
C2948 C2943 1.390 . S
C2948 C2947 1.387 . S
H2949 C2961 0.930 . S
H2950 C2963 0.930 . S
H2951 C2964 0.930 . S
H2952 C2968 0.959 . S
H2953 C2968 0.959 . S
H2954 C2968 0.961 . S
H2955 C2969 0.960 . S
H2956 C2969 0.961 . S
H2957 C2969 0.959 . S
H2958 C2972 0.929 . S
H2959 C2973 0.931 . S
H2960 C2975 0.930 . S
C2961 H2949 0.930 . S
C2961 C2962 1.399 . S
C2961 C2966 1.399 . S
C2962 C2961 1.399 . S
C2962 C2963 1.376 . S
C2963 H2950 0.930 . S
C2963 C2962 1.376 . S
C2963 C2964 1.388 . S
C2964 H2951 0.930 . S
C2964 C2963 1.388 . S
C2964 C2965 1.390 . S
C2965 C2964 1.390 . S
C2965 C2966 1.394 . S
C2965 C2971 1.465 . S
C2966 C2961 1.399 . S
C2966 C2965 1.394 . S
C2966 C2967 1.516 . S
C2967 C2966 1.516 . S
C2967 C2968 1.502 . S
C2967 C2969 1.561 . S
C2967 C2970 1.526 . S
C2968 H2952 0.959 . S
C2968 H2953 0.959 . S
C2968 H2954 0.961 . S
C2968 C2967 1.502 . S
C2969 H2955 0.960 . S
C2969 H2956 0.961 . S
C2969 H2957 0.959 . S
C2969 C2967 1.561 . S
C2970 C2967 1.526 . S
C2970 C2971 1.396 . S
C2970 C2975 1.390 . S
C2971 C2965 1.465 . S
C2971 C2970 1.396 . S
C2971 C2972 1.399 . S
C2972 H2958 0.929 . S
C2972 C2971 1.399 . S
C2972 C2973 1.385 . S
C2973 H2959 0.931 . S
C2973 C2972 1.385 . S
C2973 C2974 1.389 . S
C2974 C2973 1.389 . S
C2974 C2975 1.387 . S
C2975 H2960 0.930 . S
C2975 C2970 1.390 . S
C2975 C2974 1.387 . S
H2976 C2988 0.930 . S
H2977 C2990 0.930 . S
H2978 C2991 0.930 . S
H2979 C2995 0.959 . S
H2980 C2995 0.959 . S
H2981 C2995 0.961 . S
H2982 C2996 0.960 . S
H2983 C2996 0.961 . S
H2984 C2996 0.959 . S
H2985 C2999 0.929 . S
H2986 C3000 0.931 . S
H2987 C3002 0.930 . S
C2988 H2976 0.930 . S
C2988 C2989 1.399 . S
C2988 C2993 1.399 . S
C2989 C2988 1.399 . S
C2989 C2990 1.376 . S
C2990 H2977 0.930 . S
C2990 C2989 1.376 . S
C2990 C2991 1.388 . S
C2991 H2978 0.930 . S
C2991 C2990 1.388 . S
C2991 C2992 1.390 . S
C2992 C2991 1.390 . S
C2992 C2993 1.394 . S
C2992 C2998 1.465 . S
C2993 C2988 1.399 . S
C2993 C2992 1.394 . S
C2993 C2994 1.516 . S
C2994 C2993 1.516 . S
C2994 C2995 1.502 . S
C2994 C2996 1.561 . S
C2994 C2997 1.526 . S
C2995 H2979 0.959 . S
C2995 H2980 0.959 . S
C2995 H2981 0.961 . S
C2995 C2994 1.502 . S
C2996 H2982 0.960 . S
C2996 H2983 0.961 . S
C2996 H2984 0.959 . S
C2996 C2994 1.561 . S
C2997 C2994 1.526 . S
C2997 C2998 1.396 . S
C2997 C3002 1.390 . S
C2998 C2992 1.465 . S
C2998 C2997 1.396 . S
C2998 C2999 1.399 . S
C2999 H2985 0.929 . S
C2999 C2998 1.399 . S
C2999 C3000 1.385 . S
C3000 H2986 0.931 . S
C3000 C2999 1.385 . S
C3000 C3001 1.389 . S
C3001 C3000 1.389 . S
C3001 C3002 1.387 . S
C3002 H2987 0.930 . S
C3002 C2997 1.390 . S
C3002 C3001 1.387 . S
H3003 C3015 0.930 . S
H3004 C3017 0.930 . S
H3005 C3018 0.930 . S
H3006 C3022 0.959 . S
H3007 C3022 0.959 . S
H3008 C3022 0.961 . S
H3009 C3023 0.960 . S
H3010 C3023 0.961 . S
H3011 C3023 0.959 . S
H3012 C3026 0.929 . S
H3013 C3027 0.931 . S
H3014 C3029 0.930 . S
C3015 H3003 0.930 . S
C3015 C3016 1.399 . S
C3015 C3020 1.399 . S
C3016 C3015 1.399 . S
C3016 C3017 1.376 . S
C3017 H3004 0.930 . S
C3017 C3016 1.376 . S
C3017 C3018 1.388 . S
C3018 H3005 0.930 . S
C3018 C3017 1.388 . S
C3018 C3019 1.390 . S
C3019 C3018 1.390 . S
C3019 C3020 1.394 . S
C3019 C3025 1.465 . S
C3020 C3015 1.399 . S
C3020 C3019 1.394 . S
C3020 C3021 1.516 . S
C3021 C3020 1.516 . S
C3021 C3022 1.502 . S
C3021 C3023 1.561 . S
C3021 C3024 1.526 . S
C3022 H3006 0.959 . S
C3022 H3007 0.959 . S
C3022 H3008 0.961 . S
C3022 C3021 1.502 . S
C3023 H3009 0.960 . S
C3023 H3010 0.961 . S
C3023 H3011 0.959 . S
C3023 C3021 1.561 . S
C3024 C3021 1.526 . S
C3024 C3025 1.396 . S
C3024 C3029 1.390 . S
C3025 C3019 1.465 . S
C3025 C3024 1.396 . S
C3025 C3026 1.399 . S
C3026 H3012 0.929 . S
C3026 C3025 1.399 . S
C3026 C3027 1.385 . S
C3027 H3013 0.931 . S
C3027 C3026 1.385 . S
C3027 C3028 1.389 . S
C3028 C3027 1.389 . S
C3028 C3029 1.387 . S
C3029 H3014 0.930 . S
C3029 C3024 1.390 . S
C3029 C3028 1.387 . S
H3030 C3042 0.930 . S
H3031 C3044 0.930 . S
H3032 C3045 0.930 . S
H3033 C3049 0.959 . S
H3034 C3049 0.959 . S
H3035 C3049 0.961 . S
H3036 C3050 0.960 . S
H3037 C3050 0.961 . S
H3038 C3050 0.959 . S
H3039 C3053 0.929 . S
H3040 C3054 0.931 . S
H3041 C3056 0.930 . S
C3042 H3030 0.930 . S
C3042 C3043 1.399 . S
C3042 C3047 1.399 . S
C3043 C3042 1.399 . S
C3043 C3044 1.376 1_556 S
C3044 H3031 0.930 . S
C3044 C3043 1.376 1_554 S
C3044 C3045 1.388 . S
C3045 H3032 0.930 . S
C3045 C3044 1.388 . S
C3045 C3046 1.390 . S
C3046 C3045 1.390 . S
C3046 C3047 1.394 1_554 S
C3046 C3052 1.465 . S
C3047 C3042 1.399 . S
C3047 C3046 1.394 1_556 S
C3047 C3048 1.516 . S
C3048 C3047 1.516 . S
C3048 C3049 1.502 . S
C3048 C3050 1.561 1_455 S
C3048 C3051 1.526 . S
C3049 H3033 0.959 . S
C3049 H3034 0.959 . S
C3049 H3035 0.961 . S
C3049 C3048 1.502 . S
C3050 H3036 0.960 . S
C3050 H3037 0.961 . S
C3050 H3038 0.959 . S
C3050 C3048 1.561 1_655 S
C3051 C3048 1.526 . S
C3051 C3052 1.396 1_556 S
C3051 C3056 1.390 . S
C3052 C3046 1.465 . S
C3052 C3051 1.396 1_554 S
C3052 C3053 1.399 . S
C3053 H3039 0.929 . S
C3053 C3052 1.399 . S
C3053 C3054 1.385 . S
C3054 H3040 0.931 . S
C3054 C3053 1.385 . S
C3054 C3055 1.389 . S
C3055 C3054 1.389 . S
C3055 C3056 1.387 1_554 S
C3056 H3041 0.930 . S
C3056 C3051 1.390 . S
C3056 C3055 1.387 1_556 S
H3057 C3069 0.928 1_455 S
H3058 C3071 0.930 . S
H3059 C3072 0.930 . S
H3060 C3076 0.959 . S
H3061 C3076 0.959 . S
H3062 C3076 0.961 . S
H3063 C3077 0.960 . S
H3064 C3077 0.961 . S
H3065 C3077 0.959 . S
H3066 C3080 0.929 . S
H3067 C3081 0.931 . S
H3068 C3083 0.930 . S
C3069 H3057 0.928 1_655 S
C3069 C3070 1.399 1_655 S
C3069 C3074 1.399 . S
C3070 C3069 1.399 1_455 S
C3070 C3071 1.377 1_455 S
C3071 H3058 0.930 . S
C3071 C3070 1.377 1_655 S
C3071 C3072 1.388 . S
C3072 H3059 0.930 . S
C3072 C3071 1.388 . S
C3072 C3073 1.390 . S
C3073 C3072 1.390 . S
C3073 C3074 1.394 . S
C3073 C3079 1.465 . S
C3074 C3069 1.399 . S
C3074 C3073 1.394 . S
C3074 C3075 1.516 . S
C3075 C3074 1.516 . S
C3075 C3076 1.502 . S
C3075 C3077 1.561 . S
C3075 C3078 1.526 . S
C3076 H3060 0.959 . S
C3076 H3061 0.959 . S
C3076 H3062 0.961 . S
C3076 C3075 1.502 . S
C3077 H3063 0.960 . S
C3077 H3064 0.961 . S
C3077 H3065 0.959 . S
C3077 C3075 1.561 . S
C3078 C3075 1.526 . S
C3078 C3079 1.396 . S
C3078 C3083 1.390 . S
C3079 C3073 1.465 . S
C3079 C3078 1.396 . S
C3079 C3080 1.399 . S
C3080 H3066 0.929 . S
C3080 C3079 1.399 . S
C3080 C3081 1.385 . S
C3081 H3067 0.931 . S
C3081 C3080 1.385 . S
C3081 C3082 1.389 . S
C3082 C3081 1.389 . S
C3082 C3083 1.387 . S
C3083 H3068 0.930 . S
C3083 C3078 1.390 . S
C3083 C3082 1.387 . S
H3084 C3096 0.930 . S
H3085 C3098 0.930 . S
H3086 C3099 0.930 . S
H3087 C3103 0.959 . S
H3088 C3103 0.959 . S
H3089 C3103 0.961 . S
H3090 C3104 0.960 . S
H3091 C3104 0.961 . S
H3092 C3104 0.959 . S
H3093 C3107 0.929 . S
H3094 C3108 0.931 . S
H3095 C3110 0.930 . S
C3096 H3084 0.930 . S
C3096 C3097 1.399 . S
C3096 C3101 1.399 . S
C3097 C3096 1.399 . S
C3097 C3098 1.376 . S
C3098 H3085 0.930 . S
C3098 C3097 1.376 . S
C3098 C3099 1.388 . S
C3099 H3086 0.930 . S
C3099 C3098 1.388 . S
C3099 C3100 1.390 . S
C3100 C3099 1.390 . S
C3100 C3101 1.394 . S
C3100 C3106 1.465 . S
C3101 C3096 1.399 . S
C3101 C3100 1.394 . S
C3101 C3102 1.516 . S
C3102 C3101 1.516 . S
C3102 C3103 1.502 . S
C3102 C3104 1.561 . S
C3102 C3105 1.526 . S
C3103 H3087 0.959 . S
C3103 H3088 0.959 . S
C3103 H3089 0.961 . S
C3103 C3102 1.502 . S
C3104 H3090 0.960 . S
C3104 H3091 0.961 . S
C3104 H3092 0.959 . S
C3104 C3102 1.561 . S
C3105 C3102 1.526 . S
C3105 C3106 1.396 . S
C3105 C3110 1.390 . S
C3106 C3100 1.465 . S
C3106 C3105 1.396 . S
C3106 C3107 1.399 . S
C3107 H3093 0.929 . S
C3107 C3106 1.399 . S
C3107 C3108 1.385 . S
C3108 H3094 0.931 . S
C3108 C3107 1.385 . S
C3108 C3109 1.389 . S
C3109 C3108 1.389 . S
C3109 C3110 1.387 . S
C3110 H3095 0.930 . S
C3110 C3105 1.390 . S
C3110 C3109 1.387 . S
H3111 C3123 0.930 . S
H3112 C3125 0.930 . S
H3113 C3126 0.930 . S
H3114 C3130 0.959 . S
H3115 C3130 0.959 . S
H3116 C3130 0.961 . S
H3117 C3131 0.960 . S
H3118 C3131 0.961 . S
H3119 C3131 0.959 . S
H3120 C3134 0.929 . S
H3121 C3135 0.931 . S
H3122 C3137 0.930 . S
C3123 H3111 0.930 . S
C3123 C3124 1.399 . S
C3123 C3128 1.399 . S
C3124 C3123 1.399 . S
C3124 C3125 1.376 . S
C3125 H3112 0.930 . S
C3125 C3124 1.376 . S
C3125 C3126 1.388 . S
C3126 H3113 0.930 . S
C3126 C3125 1.388 . S
C3126 C3127 1.390 . S
C3127 C3126 1.390 . S
C3127 C3128 1.394 . S
C3127 C3133 1.465 . S
C3128 C3123 1.399 . S
C3128 C3127 1.394 . S
C3128 C3129 1.516 . S
C3129 C3128 1.516 . S
C3129 C3130 1.502 . S
C3129 C3131 1.561 . S
C3129 C3132 1.526 . S
C3130 H3114 0.959 . S
C3130 H3115 0.959 . S
C3130 H3116 0.961 . S
C3130 C3129 1.502 . S
C3131 H3117 0.960 . S
C3131 H3118 0.961 . S
C3131 H3119 0.959 . S
C3131 C3129 1.561 . S
C3132 C3129 1.526 . S
C3132 C3133 1.396 . S
C3132 C3137 1.390 . S
C3133 C3127 1.465 . S
C3133 C3132 1.396 . S
C3133 C3134 1.399 . S
C3134 H3120 0.929 . S
C3134 C3133 1.399 . S
C3134 C3135 1.385 . S
C3135 H3121 0.931 . S
C3135 C3134 1.385 . S
C3135 C3136 1.389 . S
C3136 C3135 1.389 . S
C3136 C3137 1.387 . S
C3137 H3122 0.930 . S
C3137 C3132 1.390 . S
C3137 C3136 1.387 . S
H3138 C3150 0.930 . S
H3139 C3152 0.930 . S
H3140 C3153 0.930 . S
H3141 C3157 0.959 . S
H3142 C3157 0.959 . S
H3143 C3157 0.961 . S
H3144 C3158 0.960 . S
H3145 C3158 0.961 . S
H3146 C3158 0.959 . S
H3147 C3161 0.929 . S
H3148 C3162 0.931 . S
H3149 C3164 0.930 . S
C3150 H3138 0.930 . S
C3150 C3151 1.399 . S
C3150 C3155 1.399 . S
C3151 C3150 1.399 . S
C3151 C3152 1.376 . S
C3152 H3139 0.930 . S
C3152 C3151 1.376 . S
C3152 C3153 1.388 . S
C3153 H3140 0.930 . S
C3153 C3152 1.388 . S
C3153 C3154 1.390 . S
C3154 C3153 1.390 . S
C3154 C3155 1.394 . S
C3154 C3160 1.465 . S
C3155 C3150 1.399 . S
C3155 C3154 1.394 . S
C3155 C3156 1.516 . S
C3156 C3155 1.516 . S
C3156 C3157 1.502 . S
C3156 C3158 1.561 1_455 S
C3156 C3159 1.526 . S
C3157 H3141 0.959 . S
C3157 H3142 0.959 . S
C3157 H3143 0.961 . S
C3157 C3156 1.502 . S
C3158 H3144 0.960 . S
C3158 H3145 0.961 . S
C3158 H3146 0.959 . S
C3158 C3156 1.561 1_655 S
C3159 C3156 1.526 . S
C3159 C3160 1.396 . S
C3159 C3164 1.390 . S
C3160 C3154 1.465 . S
C3160 C3159 1.396 . S
C3160 C3161 1.399 . S
C3161 H3147 0.929 . S
C3161 C3160 1.399 . S
C3161 C3162 1.385 . S
C3162 H3148 0.931 . S
C3162 C3161 1.385 . S
C3162 C3163 1.389 . S
C3163 C3162 1.389 . S
C3163 C3164 1.387 . S
C3164 H3149 0.930 . S
C3164 C3159 1.390 . S
C3164 C3163 1.387 . S
H3165 C3177 0.930 . S
H3166 C3179 0.930 . S
H3167 C3180 0.930 . S
H3168 C3184 0.959 . S
H3169 C3184 0.959 . S
H3170 C3184 0.961 . S
H3171 C3185 0.960 . S
H3172 C3185 0.961 . S
H3173 C3185 0.959 . S
H3174 C3188 0.929 . S
H3175 C3189 0.931 . S
H3176 C3191 0.930 . S
C3177 H3165 0.930 . S
C3177 C3178 1.399 . S
C3177 C3182 1.399 . S
C3178 C3177 1.399 . S
C3178 C3179 1.376 . S
C3179 H3166 0.930 . S
C3179 C3178 1.376 . S
C3179 C3180 1.388 . S
C3180 H3167 0.930 . S
C3180 C3179 1.388 . S
C3180 C3181 1.390 . S
C3181 C3180 1.390 . S
C3181 C3182 1.394 . S
C3181 C3187 1.465 . S
C3182 C3177 1.399 . S
C3182 C3181 1.394 . S
C3182 C3183 1.516 . S
C3183 C3182 1.516 . S
C3183 C3184 1.502 . S
C3183 C3185 1.561 . S
C3183 C3186 1.526 . S
C3184 H3168 0.959 . S
C3184 H3169 0.959 . S
C3184 H3170 0.961 . S
C3184 C3183 1.502 . S
C3185 H3171 0.960 . S
C3185 H3172 0.961 . S
C3185 H3173 0.959 . S
C3185 C3183 1.561 . S
C3186 C3183 1.526 . S
C3186 C3187 1.396 . S
C3186 C3191 1.390 . S
C3187 C3181 1.465 . S
C3187 C3186 1.396 . S
C3187 C3188 1.399 . S
C3188 H3174 0.929 . S
C3188 C3187 1.399 . S
C3188 C3189 1.385 . S
C3189 H3175 0.931 . S
C3189 C3188 1.385 . S
C3189 C3190 1.389 . S
C3190 C3189 1.389 . S
C3190 C3191 1.387 . S
C3191 H3176 0.930 . S
C3191 C3186 1.390 . S
C3191 C3190 1.387 . S
H3192 C3204 0.930 . S
H3193 C3206 0.930 . S
H3194 C3207 0.930 . S
H3195 C3211 0.959 . S
H3196 C3211 0.959 . S
H3197 C3211 0.961 . S
H3198 C3212 0.960 . S
H3199 C3212 0.961 . S
H3200 C3212 0.959 . S
H3201 C3215 0.929 . S
H3202 C3216 0.931 . S
H3203 C3218 0.930 . S
C3204 H3192 0.930 . S
C3204 C3205 1.399 . S
C3204 C3209 1.399 . S
C3205 C3204 1.399 . S
C3205 C3206 1.376 . S
C3206 H3193 0.930 . S
C3206 C3205 1.376 . S
C3206 C3207 1.388 . S
C3207 H3194 0.930 . S
C3207 C3206 1.388 . S
C3207 C3208 1.390 . S
C3208 C3207 1.390 . S
C3208 C3209 1.394 . S
C3208 C3214 1.465 . S
C3209 C3204 1.399 . S
C3209 C3208 1.394 . S
C3209 C3210 1.516 . S
C3210 C3209 1.516 . S
C3210 C3211 1.502 . S
C3210 C3212 1.561 . S
C3210 C3213 1.526 . S
C3211 H3195 0.959 . S
C3211 H3196 0.959 . S
C3211 H3197 0.961 . S
C3211 C3210 1.502 . S
C3212 H3198 0.960 . S
C3212 H3199 0.961 . S
C3212 H3200 0.959 . S
C3212 C3210 1.561 . S
C3213 C3210 1.526 . S
C3213 C3214 1.396 . S
C3213 C3218 1.390 . S
C3214 C3208 1.465 . S
C3214 C3213 1.396 . S
C3214 C3215 1.399 . S
C3215 H3201 0.929 . S
C3215 C3214 1.399 . S
C3215 C3216 1.385 . S
C3216 H3202 0.931 . S
C3216 C3215 1.385 . S
C3216 C3217 1.389 . S
C3217 C3216 1.389 . S
C3217 C3218 1.387 . S
C3218 H3203 0.930 . S
C3218 C3213 1.390 . S
C3218 C3217 1.387 . S
H3219 C3231 0.930 1_554 S
H3220 C3233 0.930 . S
H3221 C3234 0.930 . S
H3222 C3238 0.959 . S
H3223 C3238 0.959 . S
H3224 C3238 0.961 . S
H3225 C3239 0.960 1_554 S
H3226 C3239 0.961 . S
H3227 C3239 0.959 . S
H3228 C3242 0.929 . S
H3229 C3243 0.931 . S
H3230 C3245 0.930 . S
C3231 H3219 0.930 1_556 S
C3231 C3232 1.399 . S
C3231 C3236 1.399 . S
C3232 C3231 1.399 . S
C3232 C3233 1.376 . S
C3233 H3220 0.930 . S
C3233 C3232 1.376 . S
C3233 C3234 1.388 . S
C3234 H3221 0.930 . S
C3234 C3233 1.388 . S
C3234 C3235 1.390 . S
C3235 C3234 1.390 . S
C3235 C3236 1.394 . S
C3235 C3241 1.465 . S
C3236 C3231 1.399 . S
C3236 C3235 1.394 . S
C3236 C3237 1.516 . S
C3237 C3236 1.516 . S
C3237 C3238 1.502 . S
C3237 C3239 1.561 . S
C3237 C3240 1.526 . S
C3238 H3222 0.959 . S
C3238 H3223 0.959 . S
C3238 H3224 0.961 . S
C3238 C3237 1.502 . S
C3239 H3225 0.960 1_556 S
C3239 H3226 0.961 . S
C3239 H3227 0.959 . S
C3239 C3237 1.561 . S
C3240 C3237 1.526 . S
C3240 C3241 1.396 . S
C3240 C3245 1.390 . S
C3241 C3235 1.465 . S
C3241 C3240 1.396 . S
C3241 C3242 1.399 . S
C3242 H3228 0.929 . S
C3242 C3241 1.399 . S
C3242 C3243 1.385 . S
C3243 H3229 0.931 . S
C3243 C3242 1.385 . S
C3243 C3244 1.389 . S
C3244 C3243 1.389 . S
C3244 C3245 1.387 . S
C3245 H3230 0.930 . S
C3245 C3240 1.390 . S
C3245 C3244 1.387 . S
H3246 C3258 0.930 . S
H3247 C3260 0.930 . S
H3248 C3261 0.930 . S
H3249 C3265 0.959 . S
H3250 C3265 0.959 . S
H3251 C3265 0.961 . S
H3252 C3266 0.960 . S
H3253 C3266 0.961 . S
H3254 C3266 0.959 . S
H3255 C3269 0.929 . S
H3256 C3270 0.931 . S
H3257 C3272 0.930 . S
C3258 H3246 0.930 . S
C3258 C3259 1.399 . S
C3258 C3263 1.399 . S
C3259 C3258 1.399 . S
C3259 C3260 1.376 . S
C3260 H3247 0.930 . S
C3260 C3259 1.376 . S
C3260 C3261 1.388 . S
C3261 H3248 0.930 . S
C3261 C3260 1.388 . S
C3261 C3262 1.390 . S
C3262 C3261 1.390 . S
C3262 C3263 1.394 . S
C3262 C3268 1.465 . S
C3263 C3258 1.399 . S
C3263 C3262 1.394 . S
C3263 C3264 1.516 . S
C3264 C3263 1.516 . S
C3264 C3265 1.502 . S
C3264 C3266 1.561 . S
C3264 C3267 1.526 . S
C3265 H3249 0.959 . S
C3265 H3250 0.959 . S
C3265 H3251 0.961 . S
C3265 C3264 1.502 . S
C3266 H3252 0.960 . S
C3266 H3253 0.961 . S
C3266 H3254 0.959 . S
C3266 C3264 1.561 . S
C3267 C3264 1.526 . S
C3267 C3268 1.396 . S
C3267 C3272 1.390 . S
C3268 C3262 1.465 . S
C3268 C3267 1.396 . S
C3268 C3269 1.399 . S
C3269 H3255 0.929 . S
C3269 C3268 1.399 . S
C3269 C3270 1.385 . S
C3270 H3256 0.931 . S
C3270 C3269 1.385 . S
C3270 C3271 1.389 . S
C3271 C3270 1.389 . S
C3271 C3272 1.387 . S
C3272 H3257 0.930 . S
C3272 C3267 1.390 . S
C3272 C3271 1.387 . S
H3273 C3285 0.930 . S
H3274 C3287 0.930 . S
H3275 C3288 0.930 . S
H3276 C3292 0.959 . S
H3277 C3292 0.959 . S
H3278 C3292 0.961 . S
H3279 C3293 0.960 . S
H3280 C3293 0.961 . S
H3281 C3293 0.959 . S
H3282 C3296 0.929 . S
H3283 C3297 0.931 . S
H3284 C3299 0.930 . S
C3285 H3273 0.930 . S
C3285 C3286 1.399 . S
C3285 C3290 1.399 . S
C3286 C3285 1.399 . S
C3286 C3287 1.376 . S
C3287 H3274 0.930 . S
C3287 C3286 1.376 . S
C3287 C3288 1.388 . S
C3288 H3275 0.930 . S
C3288 C3287 1.388 . S
C3288 C3289 1.390 . S
C3289 C3288 1.390 . S
C3289 C3290 1.394 . S
C3289 C3295 1.465 . S
C3290 C3285 1.399 . S
C3290 C3289 1.394 . S
C3290 C3291 1.516 . S
C3291 C3290 1.516 . S
C3291 C3292 1.502 . S
C3291 C3293 1.561 . S
C3291 C3294 1.526 . S
C3292 H3276 0.959 . S
C3292 H3277 0.959 . S
C3292 H3278 0.961 . S
C3292 C3291 1.502 . S
C3293 H3279 0.960 . S
C3293 H3280 0.961 . S
C3293 H3281 0.959 . S
C3293 C3291 1.561 . S
C3294 C3291 1.526 . S
C3294 C3295 1.396 . S
C3294 C3299 1.390 . S
C3295 C3289 1.465 . S
C3295 C3294 1.396 . S
C3295 C3296 1.399 . S
C3296 H3282 0.929 . S
C3296 C3295 1.399 . S
C3296 C3297 1.385 . S
C3297 H3283 0.931 . S
C3297 C3296 1.385 . S
C3297 C3298 1.389 . S
C3298 C3297 1.389 . S
C3298 C3299 1.387 . S
C3299 H3284 0.930 . S
C3299 C3294 1.390 . S
C3299 C3298 1.387 . S
H3300 C3312 0.930 . S
H3301 C3314 0.930 . S
H3302 C3315 0.930 . S
H3303 C3319 0.959 . S
H3304 C3319 0.959 . S
H3305 C3319 0.961 . S
H3306 C3320 0.960 . S
H3307 C3320 0.961 . S
H3308 C3320 0.959 . S
H3309 C3323 0.929 . S
H3310 C3324 0.931 . S
H3311 C3326 0.930 . S
C3312 H3300 0.930 . S
C3312 C3313 1.399 . S
C3312 C3317 1.399 . S
C3313 C3312 1.399 . S
C3313 C3314 1.376 . S
C3314 H3301 0.930 . S
C3314 C3313 1.376 . S
C3314 C3315 1.388 . S
C3315 H3302 0.930 . S
C3315 C3314 1.388 . S
C3315 C3316 1.390 . S
C3316 C3315 1.390 . S
C3316 C3317 1.394 . S
C3316 C3322 1.465 . S
C3317 C3312 1.399 . S
C3317 C3316 1.394 . S
C3317 C3318 1.516 . S
C3318 C3317 1.516 . S
C3318 C3319 1.502 . S
C3318 C3320 1.561 . S
C3318 C3321 1.526 . S
C3319 H3303 0.959 . S
C3319 H3304 0.959 . S
C3319 H3305 0.961 . S
C3319 C3318 1.502 . S
C3320 H3306 0.960 . S
C3320 H3307 0.961 . S
C3320 H3308 0.959 . S
C3320 C3318 1.561 . S
C3321 C3318 1.526 . S
C3321 C3322 1.396 . S
C3321 C3326 1.390 . S
C3322 C3316 1.465 . S
C3322 C3321 1.396 . S
C3322 C3323 1.399 . S
C3323 H3309 0.929 . S
C3323 C3322 1.399 . S
C3323 C3324 1.385 . S
C3324 H3310 0.931 . S
C3324 C3323 1.385 . S
C3324 C3325 1.389 . S
C3325 C3324 1.389 . S
C3325 C3326 1.387 . S
C3326 H3311 0.930 . S
C3326 C3321 1.390 . S
C3326 C3325 1.387 . S
H3327 C3339 0.930 . S
H3328 C3341 0.930 . S
H3329 C3342 0.930 . S
H3330 C3346 0.959 . S
H3331 C3346 0.959 . S
H3332 C3346 0.961 . S
H3333 C3347 0.960 . S
H3334 C3347 0.961 . S
H3335 C3347 0.959 . S
H3336 C3350 0.929 . S
H3337 C3351 0.931 . S
H3338 C3353 0.930 . S
C3339 H3327 0.930 . S
C3339 C3340 1.399 . S
C3339 C3344 1.399 . S
C3340 C3339 1.399 . S
C3340 C3341 1.376 . S
C3341 H3328 0.930 . S
C3341 C3340 1.376 . S
C3341 C3342 1.388 . S
C3342 H3329 0.930 . S
C3342 C3341 1.388 . S
C3342 C3343 1.390 . S
C3343 C3342 1.390 . S
C3343 C3344 1.394 . S
C3343 C3349 1.465 . S
C3344 C3339 1.399 . S
C3344 C3343 1.394 . S
C3344 C3345 1.516 . S
C3345 C3344 1.516 . S
C3345 C3346 1.502 . S
C3345 C3347 1.561 . S
C3345 C3348 1.526 . S
C3346 H3330 0.959 . S
C3346 H3331 0.959 . S
C3346 H3332 0.961 . S
C3346 C3345 1.502 . S
C3347 H3333 0.960 . S
C3347 H3334 0.961 . S
C3347 H3335 0.959 . S
C3347 C3345 1.561 . S
C3348 C3345 1.526 . S
C3348 C3349 1.396 . S
C3348 C3353 1.390 . S
C3349 C3343 1.465 . S
C3349 C3348 1.396 . S
C3349 C3350 1.399 . S
C3350 H3336 0.929 . S
C3350 C3349 1.399 . S
C3350 C3351 1.385 . S
C3351 H3337 0.931 . S
C3351 C3350 1.385 . S
C3351 C3352 1.389 . S
C3352 C3351 1.389 . S
C3352 C3353 1.387 . S
C3353 H3338 0.930 . S
C3353 C3348 1.390 . S
C3353 C3352 1.387 . S
H3354 C3366 0.930 . S
H3355 C3368 0.930 . S
H3356 C3369 0.930 . S
H3357 C3373 0.959 . S
H3358 C3373 0.959 . S
H3359 C3373 0.961 . S
H3360 C3374 0.960 . S
H3361 C3374 0.961 . S
H3362 C3374 0.959 . S
H3363 C3377 0.929 . S
H3364 C3378 0.931 . S
H3365 C3380 0.930 . S
C3366 H3354 0.930 . S
C3366 C3367 1.399 . S
C3366 C3371 1.399 . S
C3367 C3366 1.399 . S
C3367 C3368 1.376 . S
C3368 H3355 0.930 . S
C3368 C3367 1.376 . S
C3368 C3369 1.388 . S
C3369 H3356 0.930 . S
C3369 C3368 1.388 . S
C3369 C3370 1.390 . S
C3370 C3369 1.390 . S
C3370 C3371 1.394 . S
C3370 C3376 1.465 . S
C3371 C3366 1.399 . S
C3371 C3370 1.394 . S
C3371 C3372 1.516 . S
C3372 C3371 1.516 . S
C3372 C3373 1.502 . S
C3372 C3374 1.561 . S
C3372 C3375 1.526 . S
C3373 H3357 0.959 . S
C3373 H3358 0.959 . S
C3373 H3359 0.961 . S
C3373 C3372 1.502 . S
C3374 H3360 0.960 . S
C3374 H3361 0.961 . S
C3374 H3362 0.959 . S
C3374 C3372 1.561 . S
C3375 C3372 1.526 . S
C3375 C3376 1.396 . S
C3375 C3380 1.390 . S
C3376 C3370 1.465 . S
C3376 C3375 1.396 . S
C3376 C3377 1.399 . S
C3377 H3363 0.929 . S
C3377 C3376 1.399 . S
C3377 C3378 1.385 . S
C3378 H3364 0.931 . S
C3378 C3377 1.385 . S
C3378 C3379 1.389 . S
C3379 C3378 1.389 . S
C3379 C3380 1.387 . S
C3380 H3365 0.930 . S
C3380 C3375 1.390 . S
C3380 C3379 1.387 . S
H3381 C3393 0.930 . S
H3382 C3395 0.930 . S
H3383 C3396 0.930 . S
H3384 C3400 0.959 . S
H3385 C3400 0.959 . S
H3386 C3400 0.961 . S
H3387 C3401 0.960 . S
H3388 C3401 0.961 . S
H3389 C3401 0.959 . S
H3390 C3404 0.929 . S
H3391 C3405 0.931 . S
H3392 C3407 0.930 . S
C3393 H3381 0.930 . S
C3393 C3394 1.399 . S
C3393 C3398 1.399 . S
C3394 C3393 1.399 . S
C3394 C3395 1.376 . S
C3395 H3382 0.930 . S
C3395 C3394 1.376 . S
C3395 C3396 1.388 . S
C3396 H3383 0.930 . S
C3396 C3395 1.388 . S
C3396 C3397 1.390 . S
C3397 C3396 1.390 . S
C3397 C3398 1.394 . S
C3397 C3403 1.465 . S
C3398 C3393 1.399 . S
C3398 C3397 1.394 . S
C3398 C3399 1.516 . S
C3399 C3398 1.516 . S
C3399 C3400 1.502 . S
C3399 C3401 1.561 . S
C3399 C3402 1.526 . S
C3400 H3384 0.959 . S
C3400 H3385 0.959 . S
C3400 H3386 0.961 . S
C3400 C3399 1.502 . S
C3401 H3387 0.960 . S
C3401 H3388 0.961 . S
C3401 H3389 0.959 . S
C3401 C3399 1.561 . S
C3402 C3399 1.526 . S
C3402 C3403 1.396 . S
C3402 C3407 1.390 . S
C3403 C3397 1.465 . S
C3403 C3402 1.396 . S
C3403 C3404 1.399 . S
C3404 H3390 0.929 . S
C3404 C3403 1.399 . S
C3404 C3405 1.385 . S
C3405 H3391 0.931 . S
C3405 C3404 1.385 . S
C3405 C3406 1.389 . S
C3406 C3405 1.389 . S
C3406 C3407 1.387 . S
C3407 H3392 0.930 . S
C3407 C3402 1.390 . S
C3407 C3406 1.387 . S
H3408 C3420 0.930 . S
H3409 C3422 0.930 . S
H3410 C3423 0.930 . S
H3411 C3427 0.959 . S
H3412 C3427 0.959 . S
H3413 C3427 0.961 . S
H3414 C3428 0.960 . S
H3415 C3428 0.961 . S
H3416 C3428 0.959 . S
H3417 C3431 0.929 . S
H3418 C3432 0.931 . S
H3419 C3434 0.930 . S
C3420 H3408 0.930 . S
C3420 C3421 1.399 . S
C3420 C3425 1.399 . S
C3421 C3420 1.399 . S
C3421 C3422 1.376 . S
C3422 H3409 0.930 . S
C3422 C3421 1.376 . S
C3422 C3423 1.388 . S
C3423 H3410 0.930 . S
C3423 C3422 1.388 . S
C3423 C3424 1.390 . S
C3424 C3423 1.390 . S
C3424 C3425 1.394 . S
C3424 C3430 1.465 . S
C3425 C3420 1.399 . S
C3425 C3424 1.394 . S
C3425 C3426 1.516 . S
C3426 C3425 1.516 . S
C3426 C3427 1.502 . S
C3426 C3428 1.561 . S
C3426 C3429 1.526 . S
C3427 H3411 0.959 . S
C3427 H3412 0.959 . S
C3427 H3413 0.961 . S
C3427 C3426 1.502 . S
C3428 H3414 0.960 . S
C3428 H3415 0.961 . S
C3428 H3416 0.959 . S
C3428 C3426 1.561 . S
C3429 C3426 1.526 . S
C3429 C3430 1.396 . S
C3429 C3434 1.390 . S
C3430 C3424 1.465 . S
C3430 C3429 1.396 . S
C3430 C3431 1.399 . S
C3431 H3417 0.929 . S
C3431 C3430 1.399 . S
C3431 C3432 1.385 . S
C3432 H3418 0.931 . S
C3432 C3431 1.385 . S
C3432 C3433 1.389 . S
C3433 C3432 1.389 . S
C3433 C3434 1.387 . S
C3434 H3419 0.930 . S
C3434 C3429 1.390 . S
C3434 C3433 1.387 . S
H3435 C3447 0.930 . S
H3436 C3449 0.930 . S
H3437 C3450 0.930 . S
H3438 C3454 0.959 . S
H3439 C3454 0.959 . S
H3440 C3454 0.961 . S
H3441 C3455 0.960 . S
H3442 C3455 0.961 . S
H3443 C3455 0.959 . S
H3444 C3458 0.929 . S
H3445 C3459 0.931 . S
H3446 C3461 0.930 . S
C3447 H3435 0.930 . S
C3447 C3448 1.399 . S
C3447 C3452 1.399 . S
C3448 C3447 1.399 . S
C3448 C3449 1.376 . S
C3449 H3436 0.930 . S
C3449 C3448 1.376 . S
C3449 C3450 1.388 . S
C3450 H3437 0.930 . S
C3450 C3449 1.388 . S
C3450 C3451 1.390 . S
C3451 C3450 1.390 . S
C3451 C3452 1.394 . S
C3451 C3457 1.465 . S
C3452 C3447 1.399 . S
C3452 C3451 1.394 . S
C3452 C3453 1.516 . S
C3453 C3452 1.516 . S
C3453 C3454 1.502 . S
C3453 C3455 1.561 . S
C3453 C3456 1.526 . S
C3454 H3438 0.959 . S
C3454 H3439 0.959 . S
C3454 H3440 0.961 . S
C3454 C3453 1.502 . S
C3455 H3441 0.960 . S
C3455 H3442 0.961 . S
C3455 H3443 0.959 . S
C3455 C3453 1.561 . S
C3456 C3453 1.526 . S
C3456 C3457 1.396 . S
C3456 C3461 1.390 . S
C3457 C3451 1.465 . S
C3457 C3456 1.396 . S
C3457 C3458 1.399 . S
C3458 H3444 0.929 . S
C3458 C3457 1.399 . S
C3458 C3459 1.385 . S
C3459 H3445 0.931 . S
C3459 C3458 1.385 . S
C3459 C3460 1.389 . S
C3460 C3459 1.389 . S
C3460 C3461 1.387 . S
C3461 H3446 0.930 . S
C3461 C3456 1.390 . S
C3461 C3460 1.387 . S
H3462 C3474 0.930 . S
H3463 C3476 0.930 . S
H3464 C3477 0.930 . S
H3465 C3481 0.959 . S
H3466 C3481 0.959 . S
H3467 C3481 0.961 . S
H3468 C3482 0.960 . S
H3469 C3482 0.961 . S
H3470 C3482 0.959 . S
H3471 C3485 0.929 . S
H3472 C3486 0.931 . S
H3473 C3488 0.930 . S
C3474 H3462 0.930 . S
C3474 C3475 1.399 . S
C3474 C3479 1.399 . S
C3475 C3474 1.399 . S
C3475 C3476 1.376 . S
C3476 H3463 0.930 . S
C3476 C3475 1.376 . S
C3476 C3477 1.388 . S
C3477 H3464 0.930 . S
C3477 C3476 1.388 . S
C3477 C3478 1.390 . S
C3478 C3477 1.390 . S
C3478 C3479 1.394 . S
C3478 C3484 1.465 . S
C3479 C3474 1.399 . S
C3479 C3478 1.394 . S
C3479 C3480 1.516 . S
C3480 C3479 1.516 . S
C3480 C3481 1.502 . S
C3480 C3482 1.561 . S
C3480 C3483 1.526 . S
C3481 H3465 0.959 . S
C3481 H3466 0.959 . S
C3481 H3467 0.961 . S
C3481 C3480 1.502 . S
C3482 H3468 0.960 . S
C3482 H3469 0.961 . S
C3482 H3470 0.959 . S
C3482 C3480 1.561 . S
C3483 C3480 1.526 . S
C3483 C3484 1.396 . S
C3483 C3488 1.390 . S
C3484 C3478 1.465 . S
C3484 C3483 1.396 . S
C3484 C3485 1.399 . S
C3485 H3471 0.929 . S
C3485 C3484 1.399 . S
C3485 C3486 1.385 . S
C3486 H3472 0.931 . S
C3486 C3485 1.385 . S
C3486 C3487 1.389 . S
C3487 C3486 1.389 . S
C3487 C3488 1.387 . S
C3488 H3473 0.930 . S
C3488 C3483 1.390 . S
C3488 C3487 1.387 . S
H3489 C3501 0.930 . S
H3490 C3503 0.930 . S
H3491 C3504 0.930 . S
H3492 C3508 0.959 1_545 S
H3493 C3508 0.959 . S
H3494 C3508 0.961 . S
H3495 C3509 0.960 . S
H3496 C3509 0.961 . S
H3497 C3509 0.959 . S
H3498 C3512 0.935 . S
H3499 C3513 0.931 . S
H3500 C3515 0.931 . S
C3501 H3489 0.930 . S
C3501 C3502 1.399 . S
C3501 C3506 1.399 . S
C3502 C3501 1.399 . S
C3502 C3503 1.376 1_554 S
C3503 H3490 0.930 . S
C3503 C3502 1.376 1_556 S
C3503 C3504 1.388 . S
C3504 H3491 0.930 . S
C3504 C3503 1.388 . S
C3504 C3505 1.390 . S
C3505 C3504 1.390 . S
C3505 C3506 1.394 1_556 S
C3505 C3511 1.465 1_556 S
C3506 C3501 1.399 . S
C3506 C3505 1.394 1_554 S
C3506 C3507 1.516 . S
C3507 C3506 1.516 . S
C3507 C3508 1.502 . S
C3507 C3509 1.561 . S
C3507 C3510 1.526 . S
C3508 H3492 0.959 1_565 S
C3508 H3493 0.959 . S
C3508 H3494 0.961 . S
C3508 C3507 1.502 . S
C3509 H3495 0.960 . S
C3509 H3496 0.961 . S
C3509 H3497 0.959 . S
C3509 C3507 1.561 . S
C3510 C3507 1.526 . S
C3510 C3511 1.396 . S
C3510 C3515 1.387 1_565 S
C3511 C3505 1.465 1_554 S
C3511 C3510 1.396 . S
C3511 C3512 1.408 1_554 S
C3512 H3498 0.935 . S
C3512 C3511 1.408 1_556 S
C3512 C3513 1.380 1_565 S
C3513 H3499 0.931 . S
C3513 C3512 1.380 1_545 S
C3513 C3514 1.389 1_556 S
C3514 C3513 1.389 1_554 S
C3514 C3515 1.392 . S
C3515 H3500 0.931 . S
C3515 C3510 1.387 1_545 S
C3515 C3514 1.392 . S
H3516 C3528 0.930 . S
H3517 C3530 0.930 . S
H3518 C3531 0.930 . S
H3519 C3535 0.959 . S
H3520 C3535 0.959 . S
H3521 C3535 0.961 . S
H3522 C3536 0.960 . S
H3523 C3536 0.961 . S
H3524 C3536 0.959 . S
H3525 C3539 0.929 . S
H3526 C3540 0.931 . S
H3527 C3542 0.930 . S
C3528 H3516 0.930 . S
C3528 C3529 1.399 . S
C3528 C3533 1.399 . S
C3529 C3528 1.399 . S
C3529 C3530 1.376 . S
C3530 H3517 0.930 . S
C3530 C3529 1.376 . S
C3530 C3531 1.388 . S
C3531 H3518 0.930 . S
C3531 C3530 1.388 . S
C3531 C3532 1.390 . S
C3532 C3531 1.390 . S
C3532 C3533 1.394 . S
C3532 C3538 1.465 . S
C3533 C3528 1.399 . S
C3533 C3532 1.394 . S
C3533 C3534 1.516 . S
C3534 C3533 1.516 . S
C3534 C3535 1.502 . S
C3534 C3536 1.561 . S
C3534 C3537 1.526 . S
C3535 H3519 0.959 . S
C3535 H3520 0.959 . S
C3535 H3521 0.961 . S
C3535 C3534 1.502 . S
C3536 H3522 0.960 . S
C3536 H3523 0.961 . S
C3536 H3524 0.959 . S
C3536 C3534 1.561 . S
C3537 C3534 1.526 . S
C3537 C3538 1.396 . S
C3537 C3542 1.390 . S
C3538 C3532 1.465 . S
C3538 C3537 1.396 . S
C3538 C3539 1.399 . S
C3539 H3525 0.929 . S
C3539 C3538 1.399 . S
C3539 C3540 1.385 . S
C3540 H3526 0.931 . S
C3540 C3539 1.385 . S
C3540 C3541 1.389 . S
C3541 C3540 1.389 . S
C3541 C3542 1.387 . S
C3542 H3527 0.930 . S
C3542 C3537 1.390 . S
C3542 C3541 1.387 . S
H3543 C3555 0.930 . S
H3544 C3557 0.930 . S
H3545 C3558 0.930 . S
H3546 C3562 0.959 . S
H3547 C3562 0.959 . S
H3548 C3562 0.961 . S
H3549 C3563 0.960 . S
H3550 C3563 0.961 . S
H3551 C3563 0.959 . S
H3552 C3566 0.891 1_556 S
H3553 C3567 0.931 1_556 S
H3554 C3569 0.930 . S
C3555 H3543 0.930 . S
C3555 C3556 1.399 . S
C3555 C3560 1.399 . S
C3556 C3555 1.399 . S
C3556 C3557 1.376 1_554 S
C3557 H3544 0.930 . S
C3557 C3556 1.376 1_556 S
C3557 C3558 1.388 . S
C3558 H3545 0.930 . S
C3558 C3557 1.388 . S
C3558 C3559 1.390 1_556 S
C3559 C3558 1.390 1_554 S
C3559 C3560 1.394 . S
C3559 C3565 1.465 . S
C3560 C3555 1.399 . S
C3560 C3559 1.394 . S
C3560 C3561 1.516 . S
C3561 C3560 1.516 . S
C3561 C3562 1.502 . S
C3561 C3563 1.561 . S
C3561 C3564 1.526 . S
C3562 H3546 0.959 . S
C3562 H3547 0.959 . S
C3562 H3548 0.961 . S
C3562 C3561 1.502 . S
C3563 H3549 0.960 . S
C3563 H3550 0.961 . S
C3563 H3551 0.959 . S
C3563 C3561 1.561 . S
C3564 C3561 1.526 . S
C3564 C3565 1.396 . S
C3564 C3569 1.390 . S
C3565 C3559 1.465 . S
C3565 C3564 1.396 . S
C3565 C3566 1.425 . S
C3566 H3552 0.891 1_554 S
C3566 C3565 1.425 . S
C3566 C3567 1.399 . S
C3567 H3553 0.931 1_554 S
C3567 C3566 1.399 . S
C3567 C3568 1.389 . S
C3568 C3567 1.389 . S
C3568 C3569 1.387 . S
C3569 H3554 0.930 . S
C3569 C3564 1.390 . S
C3569 C3568 1.387 . S
H3570 C3582 0.930 . S
H3571 C3584 0.930 . S
H3572 C3585 0.930 . S
H3573 C3589 0.959 . S
H3574 C3589 0.959 . S
H3575 C3589 0.961 . S
H3576 C3590 0.960 . S
H3577 C3590 0.961 . S
H3578 C3590 0.959 . S
H3579 C3593 0.929 . S
H3580 C3594 0.931 . S
H3581 C3596 0.930 . S
C3582 H3570 0.930 . S
C3582 C3583 1.399 . S
C3582 C3587 1.399 . S
C3583 C3582 1.399 . S
C3583 C3584 1.376 . S
C3584 H3571 0.930 . S
C3584 C3583 1.376 . S
C3584 C3585 1.388 . S
C3585 H3572 0.930 . S
C3585 C3584 1.388 . S
C3585 C3586 1.390 . S
C3586 C3585 1.390 . S
C3586 C3587 1.394 . S
C3586 C3592 1.465 . S
C3587 C3582 1.399 . S
C3587 C3586 1.394 . S
C3587 C3588 1.516 . S
C3588 C3587 1.516 . S
C3588 C3589 1.502 . S
C3588 C3590 1.561 . S
C3588 C3591 1.526 . S
C3589 H3573 0.959 . S
C3589 H3574 0.959 . S
C3589 H3575 0.961 . S
C3589 C3588 1.502 . S
C3590 H3576 0.960 . S
C3590 H3577 0.961 . S
C3590 H3578 0.959 . S
C3590 C3588 1.561 . S
C3591 C3588 1.526 . S
C3591 C3592 1.396 . S
C3591 C3596 1.390 . S
C3592 C3586 1.465 . S
C3592 C3591 1.396 . S
C3592 C3593 1.399 . S
C3593 H3579 0.929 . S
C3593 C3592 1.399 . S
C3593 C3594 1.385 . S
C3594 H3580 0.931 . S
C3594 C3593 1.385 . S
C3594 C3595 1.389 . S
C3595 C3594 1.389 . S
C3595 C3596 1.387 . S
C3596 H3581 0.930 . S
C3596 C3591 1.390 . S
C3596 C3595 1.387 . S
H3597 C3609 0.930 . S
H3598 C3611 0.930 . S
H3599 C3612 0.930 . S
H3600 C3616 0.959 . S
H3601 C3616 0.959 . S
H3602 C3616 0.961 . S
H3603 C3617 0.960 . S
H3604 C3617 0.961 . S
H3605 C3617 0.959 . S
H3606 C3620 0.929 . S
H3607 C3621 0.931 . S
H3608 C3623 0.930 . S
C3609 H3597 0.930 . S
C3609 C3610 1.399 . S
C3609 C3614 1.399 . S
C3610 C3609 1.399 . S
C3610 C3611 1.376 . S
C3611 H3598 0.930 . S
C3611 C3610 1.376 . S
C3611 C3612 1.388 . S
C3612 H3599 0.930 . S
C3612 C3611 1.388 . S
C3612 C3613 1.390 . S
C3613 C3612 1.390 . S
C3613 C3614 1.394 . S
C3613 C3619 1.465 . S
C3614 C3609 1.399 . S
C3614 C3613 1.394 . S
C3614 C3615 1.516 . S
C3615 C3614 1.516 . S
C3615 C3616 1.502 . S
C3615 C3617 1.561 . S
C3615 C3618 1.526 . S
C3616 H3600 0.959 . S
C3616 H3601 0.959 . S
C3616 H3602 0.961 . S
C3616 C3615 1.502 . S
C3617 H3603 0.960 . S
C3617 H3604 0.961 . S
C3617 H3605 0.959 . S
C3617 C3615 1.561 . S
C3618 C3615 1.526 . S
C3618 C3619 1.396 . S
C3618 C3623 1.390 . S
C3619 C3613 1.465 . S
C3619 C3618 1.396 . S
C3619 C3620 1.399 . S
C3620 H3606 0.929 . S
C3620 C3619 1.399 . S
C3620 C3621 1.385 . S
C3621 H3607 0.931 . S
C3621 C3620 1.385 . S
C3621 C3622 1.389 . S
C3622 C3621 1.389 . S
C3622 C3623 1.387 . S
C3623 H3608 0.930 . S
C3623 C3618 1.390 . S
C3623 C3622 1.387 . S
H3624 C3636 0.930 . S
H3625 C3638 0.930 . S
H3626 C3639 0.930 . S
H3627 C3643 0.959 . S
H3628 C3643 0.959 . S
H3629 C3643 0.961 . S
H3630 C3644 0.960 . S
H3631 C3644 0.961 . S
H3632 C3644 0.959 . S
H3633 C3647 0.929 . S
H3634 C3648 0.931 . S
H3635 C3650 0.930 . S
C3636 H3624 0.930 . S
C3636 C3637 1.399 . S
C3636 C3641 1.399 . S
C3637 C3636 1.399 . S
C3637 C3638 1.376 . S
C3638 H3625 0.930 . S
C3638 C3637 1.376 . S
C3638 C3639 1.388 . S
C3639 H3626 0.930 . S
C3639 C3638 1.388 . S
C3639 C3640 1.390 . S
C3640 C3639 1.390 . S
C3640 C3641 1.394 . S
C3640 C3646 1.465 . S
C3641 C3636 1.399 . S
C3641 C3640 1.394 . S
C3641 C3642 1.516 . S
C3642 C3641 1.516 . S
C3642 C3643 1.502 . S
C3642 C3644 1.561 . S
C3642 C3645 1.526 . S
C3643 H3627 0.959 . S
C3643 H3628 0.959 . S
C3643 H3629 0.961 . S
C3643 C3642 1.502 . S
C3644 H3630 0.960 . S
C3644 H3631 0.961 . S
C3644 H3632 0.959 . S
C3644 C3642 1.561 . S
C3645 C3642 1.526 . S
C3645 C3646 1.396 . S
C3645 C3650 1.390 . S
C3646 C3640 1.465 . S
C3646 C3645 1.396 . S
C3646 C3647 1.399 . S
C3647 H3633 0.929 . S
C3647 C3646 1.399 . S
C3647 C3648 1.385 . S
C3648 H3634 0.931 . S
C3648 C3647 1.385 . S
C3648 C3649 1.389 . S
C3649 C3648 1.389 . S
C3649 C3650 1.387 . S
C3650 H3635 0.930 . S
C3650 C3645 1.390 . S
C3650 C3649 1.387 . S
H3651 C3663 0.930 . S
H3652 C3665 0.930 . S
H3653 C3666 0.930 . S
H3654 C3670 0.959 . S
H3655 C3670 0.959 . S
H3656 C3670 0.961 . S
H3657 C3671 0.960 . S
H3658 C3671 0.961 . S
H3659 C3671 0.959 . S
H3660 C3674 0.929 . S
H3661 C3675 0.931 . S
H3662 C3677 0.930 . S
C3663 H3651 0.930 . S
C3663 C3664 1.399 . S
C3663 C3668 1.399 . S
C3664 C3663 1.399 . S
C3664 C3665 1.376 . S
C3665 H3652 0.930 . S
C3665 C3664 1.376 . S
C3665 C3666 1.388 . S
C3666 H3653 0.930 . S
C3666 C3665 1.388 . S
C3666 C3667 1.390 . S
C3667 C3666 1.390 . S
C3667 C3668 1.394 . S
C3667 C3673 1.465 . S
C3668 C3663 1.399 . S
C3668 C3667 1.394 . S
C3668 C3669 1.516 . S
C3669 C3668 1.516 . S
C3669 C3670 1.502 . S
C3669 C3671 1.561 . S
C3669 C3672 1.526 . S
C3670 H3654 0.959 . S
C3670 H3655 0.959 . S
C3670 H3656 0.961 . S
C3670 C3669 1.502 . S
C3671 H3657 0.960 . S
C3671 H3658 0.961 . S
C3671 H3659 0.959 . S
C3671 C3669 1.561 . S
C3672 C3669 1.526 . S
C3672 C3673 1.396 . S
C3672 C3677 1.390 . S
C3673 C3667 1.465 . S
C3673 C3672 1.396 . S
C3673 C3674 1.399 . S
C3674 H3660 0.929 . S
C3674 C3673 1.399 . S
C3674 C3675 1.385 . S
C3675 H3661 0.931 . S
C3675 C3674 1.385 . S
C3675 C3676 1.389 . S
C3676 C3675 1.389 . S
C3676 C3677 1.387 . S
C3677 H3662 0.930 . S
C3677 C3672 1.390 . S
C3677 C3676 1.387 . S
H3678 C3690 0.930 . S
H3679 C3692 0.930 . S
H3680 C3693 0.930 . S
H3681 C3697 0.951 1_655 S
H3682 C3697 0.948 1_655 S
H3683 C3697 0.939 1_655 S
H3684 C3698 0.960 . S
H3685 C3698 0.961 . S
H3686 C3698 0.959 . S
H3687 C3701 0.929 . S
H3688 C3702 0.931 . S
H3689 C3704 0.930 . S
C3690 H3678 0.930 . S
C3690 C3691 1.399 . S
C3690 C3695 1.399 . S
C3691 C3690 1.399 . S
C3691 C3692 1.376 . S
C3692 H3679 0.930 . S
C3692 C3691 1.376 . S
C3692 C3693 1.388 . S
C3693 H3680 0.930 . S
C3693 C3692 1.388 . S
C3693 C3694 1.390 . S
C3694 C3693 1.390 . S
C3694 C3695 1.394 . S
C3694 C3700 1.465 . S
C3695 C3690 1.399 . S
C3695 C3694 1.394 . S
C3695 C3696 1.516 . S
C3696 C3695 1.516 . S
C3696 C3697 1.546 . S
C3696 C3698 1.561 . S
C3696 C3699 1.526 . S
C3697 H3681 0.951 1_455 S
C3697 H3682 0.948 1_455 S
C3697 H3683 0.939 1_455 S
C3697 C3696 1.546 . S
C3698 H3684 0.960 . S
C3698 H3685 0.961 . S
C3698 H3686 0.959 . S
C3698 C3696 1.561 . S
C3699 C3696 1.526 . S
C3699 C3700 1.396 . S
C3699 C3704 1.390 . S
C3700 C3694 1.465 . S
C3700 C3699 1.396 . S
C3700 C3701 1.399 . S
C3701 H3687 0.929 . S
C3701 C3700 1.399 . S
C3701 C3702 1.385 . S
C3702 H3688 0.931 . S
C3702 C3701 1.385 . S
C3702 C3703 1.389 . S
C3703 C3702 1.389 . S
C3703 C3704 1.387 . S
C3704 H3689 0.930 . S
C3704 C3699 1.390 . S
C3704 C3703 1.387 . S
H3705 C3717 0.930 . S
H3706 C3719 0.930 . S
H3707 C3720 0.930 . S
H3708 C3724 0.959 . S
H3709 C3724 0.959 . S
H3710 C3724 0.961 . S
H3711 C3725 0.960 . S
H3712 C3725 0.961 . S
H3713 C3725 0.959 . S
H3714 C3728 0.929 . S
H3715 C3729 0.931 . S
H3716 C3731 0.930 . S
C3717 H3705 0.930 . S
C3717 C3718 1.399 . S
C3717 C3722 1.399 . S
C3718 C3717 1.399 . S
C3718 C3719 1.376 . S
C3719 H3706 0.930 . S
C3719 C3718 1.376 . S
C3719 C3720 1.388 . S
C3720 H3707 0.930 . S
C3720 C3719 1.388 . S
C3720 C3721 1.390 . S
C3721 C3720 1.390 . S
C3721 C3722 1.394 . S
C3721 C3727 1.465 . S
C3722 C3717 1.399 . S
C3722 C3721 1.394 . S
C3722 C3723 1.516 . S
C3723 C3722 1.516 . S
C3723 C3724 1.502 . S
C3723 C3725 1.561 . S
C3723 C3726 1.526 . S
C3724 H3708 0.959 . S
C3724 H3709 0.959 . S
C3724 H3710 0.961 . S
C3724 C3723 1.502 . S
C3725 H3711 0.960 . S
C3725 H3712 0.961 . S
C3725 H3713 0.959 . S
C3725 C3723 1.561 . S
C3726 C3723 1.526 . S
C3726 C3727 1.396 . S
C3726 C3731 1.390 . S
C3727 C3721 1.465 . S
C3727 C3726 1.396 . S
C3727 C3728 1.399 . S
C3728 H3714 0.929 . S
C3728 C3727 1.399 . S
C3728 C3729 1.385 . S
C3729 H3715 0.931 . S
C3729 C3728 1.385 . S
C3729 C3730 1.389 . S
C3730 C3729 1.389 . S
C3730 C3731 1.387 . S
C3731 H3716 0.930 . S
C3731 C3726 1.390 . S
C3731 C3730 1.387 . S
H3732 C3744 0.930 . S
H3733 C3746 0.930 . S
H3734 C3747 0.930 . S
H3735 C3751 0.959 . S
H3736 C3751 0.959 . S
H3737 C3751 0.961 . S
H3738 C3752 0.960 . S
H3739 C3752 0.961 . S
H3740 C3752 0.959 . S
H3741 C3755 0.929 . S
H3742 C3756 0.931 . S
H3743 C3758 0.930 . S
C3744 H3732 0.930 . S
C3744 C3745 1.399 . S
C3744 C3749 1.399 . S
C3745 C3744 1.399 . S
C3745 C3746 1.376 . S
C3746 H3733 0.930 . S
C3746 C3745 1.376 . S
C3746 C3747 1.388 . S
C3747 H3734 0.930 . S
C3747 C3746 1.388 . S
C3747 C3748 1.390 . S
C3748 C3747 1.390 . S
C3748 C3749 1.394 . S
C3748 C3754 1.465 . S
C3749 C3744 1.399 . S
C3749 C3748 1.394 . S
C3749 C3750 1.516 . S
C3750 C3749 1.516 . S
C3750 C3751 1.502 . S
C3750 C3752 1.561 . S
C3750 C3753 1.526 . S
C3751 H3735 0.959 . S
C3751 H3736 0.959 . S
C3751 H3737 0.961 . S
C3751 C3750 1.502 . S
C3752 H3738 0.960 . S
C3752 H3739 0.961 . S
C3752 H3740 0.959 . S
C3752 C3750 1.561 . S
C3753 C3750 1.526 . S
C3753 C3754 1.396 . S
C3753 C3758 1.390 . S
C3754 C3748 1.465 . S
C3754 C3753 1.396 . S
C3754 C3755 1.399 . S
C3755 H3741 0.929 . S
C3755 C3754 1.399 . S
C3755 C3756 1.385 . S
C3756 H3742 0.931 . S
C3756 C3755 1.385 . S
C3756 C3757 1.389 . S
C3757 C3756 1.389 . S
C3757 C3758 1.387 . S
C3758 H3743 0.930 . S
C3758 C3753 1.390 . S
C3758 C3757 1.387 . S
H3759 C3771 0.930 . S
H3760 C3773 0.930 . S
H3761 C3774 0.930 . S
H3762 C3778 0.959 . S
H3763 C3778 0.959 . S
H3764 C3778 0.961 . S
H3765 C3779 0.960 . S
H3766 C3779 0.961 . S
H3767 C3779 0.959 . S
H3768 C3782 0.929 . S
H3769 C3783 0.931 . S
H3770 C3785 0.930 . S
C3771 H3759 0.930 . S
C3771 C3772 1.399 . S
C3771 C3776 1.399 . S
C3772 C3771 1.399 . S
C3772 C3773 1.376 . S
C3773 H3760 0.930 . S
C3773 C3772 1.376 . S
C3773 C3774 1.388 . S
C3774 H3761 0.930 . S
C3774 C3773 1.388 . S
C3774 C3775 1.390 . S
C3775 C3774 1.390 . S
C3775 C3776 1.394 . S
C3775 C3781 1.465 . S
C3776 C3771 1.399 . S
C3776 C3775 1.394 . S
C3776 C3777 1.516 . S
C3777 C3776 1.516 . S
C3777 C3778 1.502 . S
C3777 C3779 1.561 . S
C3777 C3780 1.526 . S
C3778 H3762 0.959 . S
C3778 H3763 0.959 . S
C3778 H3764 0.961 . S
C3778 C3777 1.502 . S
C3779 H3765 0.960 . S
C3779 H3766 0.961 . S
C3779 H3767 0.959 . S
C3779 C3777 1.561 . S
C3780 C3777 1.526 . S
C3780 C3781 1.396 . S
C3780 C3785 1.390 . S
C3781 C3775 1.465 . S
C3781 C3780 1.396 . S
C3781 C3782 1.399 . S
C3782 H3768 0.929 . S
C3782 C3781 1.399 . S
C3782 C3783 1.385 . S
C3783 H3769 0.931 . S
C3783 C3782 1.385 . S
C3783 C3784 1.389 . S
C3784 C3783 1.389 . S
C3784 C3785 1.387 . S
C3785 H3770 0.930 . S
C3785 C3780 1.390 . S
C3785 C3784 1.387 . S
H3786 C3798 0.930 . S
H3787 C3800 0.930 . S
H3788 C3801 0.930 . S
H3789 C3805 0.959 . S
H3790 C3805 0.959 . S
H3791 C3805 0.961 . S
H3792 C3806 0.960 . S
H3793 C3806 0.961 . S
H3794 C3806 0.959 . S
H3795 C3809 0.929 . S
H3796 C3810 0.931 . S
H3797 C3812 0.930 . S
C3798 H3786 0.930 . S
C3798 C3799 1.399 . S
C3798 C3803 1.399 . S
C3799 C3798 1.399 . S
C3799 C3800 1.376 . S
C3800 H3787 0.930 . S
C3800 C3799 1.376 . S
C3800 C3801 1.388 . S
C3801 H3788 0.930 . S
C3801 C3800 1.388 . S
C3801 C3802 1.390 . S
C3802 C3801 1.390 . S
C3802 C3803 1.394 . S
C3802 C3808 1.465 . S
C3803 C3798 1.399 . S
C3803 C3802 1.394 . S
C3803 C3804 1.516 . S
C3804 C3803 1.516 . S
C3804 C3805 1.502 . S
C3804 C3806 1.561 . S
C3804 C3807 1.526 . S
C3805 H3789 0.959 . S
C3805 H3790 0.959 . S
C3805 H3791 0.961 . S
C3805 C3804 1.502 . S
C3806 H3792 0.960 . S
C3806 H3793 0.961 . S
C3806 H3794 0.959 . S
C3806 C3804 1.561 . S
C3807 C3804 1.526 . S
C3807 C3808 1.396 . S
C3807 C3812 1.390 . S
C3808 C3802 1.465 . S
C3808 C3807 1.396 . S
C3808 C3809 1.399 . S
C3809 H3795 0.929 . S
C3809 C3808 1.399 . S
C3809 C3810 1.385 . S
C3810 H3796 0.931 . S
C3810 C3809 1.385 . S
C3810 C3811 1.389 . S
C3811 C3810 1.389 . S
C3811 C3812 1.387 . S
C3812 H3797 0.930 . S
C3812 C3807 1.390 . S
C3812 C3811 1.387 . S
H3813 C3825 0.930 . S
H3814 C3827 0.930 . S
H3815 C3828 0.930 . S
H3816 C3832 0.959 . S
H3817 C3832 0.959 . S
H3818 C3832 0.961 . S
H3819 C3833 0.960 . S
H3820 C3833 0.961 . S
H3821 C3833 0.959 . S
H3822 C3836 0.929 . S
H3823 C3837 0.931 . S
H3824 C3839 0.930 . S
C3825 H3813 0.930 . S
C3825 C3826 1.399 . S
C3825 C3830 1.399 . S
C3826 C3825 1.399 . S
C3826 C3827 1.376 . S
C3827 H3814 0.930 . S
C3827 C3826 1.376 . S
C3827 C3828 1.388 . S
C3828 H3815 0.930 . S
C3828 C3827 1.388 . S
C3828 C3829 1.390 . S
C3829 C3828 1.390 . S
C3829 C3830 1.394 . S
C3829 C3835 1.465 . S
C3830 C3825 1.399 . S
C3830 C3829 1.394 . S
C3830 C3831 1.516 . S
C3831 C3830 1.516 . S
C3831 C3832 1.502 . S
C3831 C3833 1.561 . S
C3831 C3834 1.526 . S
C3832 H3816 0.959 . S
C3832 H3817 0.959 . S
C3832 H3818 0.961 . S
C3832 C3831 1.502 . S
C3833 H3819 0.960 . S
C3833 H3820 0.961 . S
C3833 H3821 0.959 . S
C3833 C3831 1.561 . S
C3834 C3831 1.526 . S
C3834 C3835 1.396 . S
C3834 C3839 1.390 . S
C3835 C3829 1.465 . S
C3835 C3834 1.396 . S
C3835 C3836 1.399 . S
C3836 H3822 0.929 . S
C3836 C3835 1.399 . S
C3836 C3837 1.385 . S
C3837 H3823 0.931 . S
C3837 C3836 1.385 . S
C3837 C3838 1.389 . S
C3838 C3837 1.389 . S
C3838 C3839 1.387 . S
C3839 H3824 0.930 . S
C3839 C3834 1.390 . S
C3839 C3838 1.387 . S
H3840 C3852 0.930 . S
H3841 C3854 0.930 . S
H3842 C3855 0.930 . S
H3843 C3859 0.959 . S
H3844 C3859 0.959 . S
H3845 C3859 0.961 . S
H3846 C3860 0.960 . S
H3847 C3860 0.961 . S
H3848 C3860 0.959 . S
H3849 C3863 0.929 . S
H3850 C3864 0.931 . S
H3851 C3866 0.930 . S
C3852 H3840 0.930 . S
C3852 C3853 1.399 . S
C3852 C3857 1.399 . S
C3853 C3852 1.399 . S
C3853 C3854 1.376 . S
C3854 H3841 0.930 . S
C3854 C3853 1.376 . S
C3854 C3855 1.388 . S
C3855 H3842 0.930 . S
C3855 C3854 1.388 . S
C3855 C3856 1.390 . S
C3856 C3855 1.390 . S
C3856 C3857 1.394 . S
C3856 C3862 1.465 . S
C3857 C3852 1.399 . S
C3857 C3856 1.394 . S
C3857 C3858 1.516 . S
C3858 C3857 1.516 . S
C3858 C3859 1.502 . S
C3858 C3860 1.561 . S
C3858 C3861 1.526 . S
C3859 H3843 0.959 . S
C3859 H3844 0.959 . S
C3859 H3845 0.961 . S
C3859 C3858 1.502 . S
C3860 H3846 0.960 . S
C3860 H3847 0.961 . S
C3860 H3848 0.959 . S
C3860 C3858 1.561 . S
C3861 C3858 1.526 . S
C3861 C3862 1.396 . S
C3861 C3866 1.390 . S
C3862 C3856 1.465 . S
C3862 C3861 1.396 . S
C3862 C3863 1.399 . S
C3863 H3849 0.929 . S
C3863 C3862 1.399 . S
C3863 C3864 1.385 . S
C3864 H3850 0.931 . S
C3864 C3863 1.385 . S
C3864 C3865 1.389 . S
C3865 C3864 1.389 . S
C3865 C3866 1.387 . S
C3866 H3851 0.930 . S
C3866 C3861 1.390 . S
C3866 C3865 1.387 . S
H3867 C3879 0.930 . S
H3868 C3881 0.930 . S
H3869 C3882 0.930 . S
H3870 C3886 0.959 . S
H3871 C3886 0.959 . S
H3872 C3886 0.961 . S
H3873 C3887 0.960 . S
H3874 C3887 0.961 . S
H3875 C3887 0.959 . S
H3876 C3890 0.929 . S
H3877 C3891 0.931 . S
H3878 C3893 0.930 . S
C3879 H3867 0.930 . S
C3879 C3880 1.399 . S
C3879 C3884 1.399 . S
C3880 C3879 1.399 . S
C3880 C3881 1.376 . S
C3881 H3868 0.930 . S
C3881 C3880 1.376 . S
C3881 C3882 1.388 . S
C3882 H3869 0.930 . S
C3882 C3881 1.388 . S
C3882 C3883 1.390 . S
C3883 C3882 1.390 . S
C3883 C3884 1.394 . S
C3883 C3889 1.465 . S
C3884 C3879 1.399 . S
C3884 C3883 1.394 . S
C3884 C3885 1.516 . S
C3885 C3884 1.516 . S
C3885 C3886 1.502 . S
C3885 C3887 1.561 . S
C3885 C3888 1.526 . S
C3886 H3870 0.959 . S
C3886 H3871 0.959 . S
C3886 H3872 0.961 . S
C3886 C3885 1.502 . S
C3887 H3873 0.960 . S
C3887 H3874 0.961 . S
C3887 H3875 0.959 . S
C3887 C3885 1.561 . S
C3888 C3885 1.526 . S
C3888 C3889 1.396 . S
C3888 C3893 1.390 . S
C3889 C3883 1.465 . S
C3889 C3888 1.396 . S
C3889 C3890 1.399 . S
C3890 H3876 0.929 . S
C3890 C3889 1.399 . S
C3890 C3891 1.385 . S
C3891 H3877 0.931 . S
C3891 C3890 1.385 . S
C3891 C3892 1.389 . S
C3892 C3891 1.389 . S
C3892 C3893 1.387 . S
C3893 H3878 0.930 . S
C3893 C3888 1.390 . S
C3893 C3892 1.387 . S
H3894 C3906 0.930 . S
H3895 C3908 0.930 . S
H3896 C3909 0.930 . S
H3897 C3913 0.959 . S
H3898 C3913 0.959 . S
H3899 C3913 0.961 . S
H3900 C3914 0.960 . S
H3901 C3914 0.961 . S
H3902 C3914 0.959 . S
H3903 C3917 0.929 . S
H3904 C3918 0.931 . S
H3905 C3920 0.930 . S
C3906 H3894 0.930 . S
C3906 C3907 1.399 . S
C3906 C3911 1.399 . S
C3907 C3906 1.399 . S
C3907 C3908 1.376 . S
C3908 H3895 0.930 . S
C3908 C3907 1.376 . S
C3908 C3909 1.388 . S
C3909 H3896 0.930 . S
C3909 C3908 1.388 . S
C3909 C3910 1.390 . S
C3910 C3909 1.390 . S
C3910 C3911 1.394 . S
C3910 C3916 1.465 . S
C3911 C3906 1.399 . S
C3911 C3910 1.394 . S
C3911 C3912 1.516 . S
C3912 C3911 1.516 . S
C3912 C3913 1.502 . S
C3912 C3914 1.561 . S
C3912 C3915 1.526 . S
C3913 H3897 0.959 . S
C3913 H3898 0.959 . S
C3913 H3899 0.961 . S
C3913 C3912 1.502 . S
C3914 H3900 0.960 . S
C3914 H3901 0.961 . S
C3914 H3902 0.959 . S
C3914 C3912 1.561 . S
C3915 C3912 1.526 . S
C3915 C3916 1.396 . S
C3915 C3920 1.390 . S
C3916 C3910 1.465 . S
C3916 C3915 1.396 . S
C3916 C3917 1.399 . S
C3917 H3903 0.929 . S
C3917 C3916 1.399 . S
C3917 C3918 1.385 . S
C3918 H3904 0.931 . S
C3918 C3917 1.385 . S
C3918 C3919 1.389 . S
C3919 C3918 1.389 . S
C3919 C3920 1.387 . S
C3920 H3905 0.930 . S
C3920 C3915 1.390 . S
C3920 C3919 1.387 . S
H3921 C3933 0.930 . S
H3922 C3935 0.930 . S
H3923 C3936 0.930 . S
H3924 C3940 0.959 . S
H3925 C3940 0.959 . S
H3926 C3940 0.961 . S
H3927 C3941 0.960 . S
H3928 C3941 0.961 . S
H3929 C3941 0.959 . S
H3930 C3944 0.929 . S
H3931 C3945 0.931 . S
H3932 C3947 0.930 . S
C3933 H3921 0.930 . S
C3933 C3934 1.399 . S
C3933 C3938 1.399 . S
C3934 C3933 1.399 . S
C3934 C3935 1.376 . S
C3935 H3922 0.930 . S
C3935 C3934 1.376 . S
C3935 C3936 1.388 . S
C3936 H3923 0.930 . S
C3936 C3935 1.388 . S
C3936 C3937 1.390 . S
C3937 C3936 1.390 . S
C3937 C3938 1.394 . S
C3937 C3943 1.465 . S
C3938 C3933 1.399 . S
C3938 C3937 1.394 . S
C3938 C3939 1.516 . S
C3939 C3938 1.516 . S
C3939 C3940 1.502 . S
C3939 C3941 1.561 . S
C3939 C3942 1.526 . S
C3940 H3924 0.959 . S
C3940 H3925 0.959 . S
C3940 H3926 0.961 . S
C3940 C3939 1.502 . S
C3941 H3927 0.960 . S
C3941 H3928 0.961 . S
C3941 H3929 0.959 . S
C3941 C3939 1.561 . S
C3942 C3939 1.526 . S
C3942 C3943 1.396 . S
C3942 C3947 1.390 . S
C3943 C3937 1.465 . S
C3943 C3942 1.396 . S
C3943 C3944 1.399 . S
C3944 H3930 0.929 . S
C3944 C3943 1.399 . S
C3944 C3945 1.385 . S
C3945 H3931 0.931 . S
C3945 C3944 1.385 . S
C3945 C3946 1.389 . S
C3946 C3945 1.389 . S
C3946 C3947 1.387 . S
C3947 H3932 0.930 . S
C3947 C3942 1.390 . S
C3947 C3946 1.387 . S
H3948 C3960 0.930 . S
H3949 C3962 0.930 . S
H3950 C3963 0.930 . S
H3951 C3967 0.959 . S
H3952 C3967 0.959 . S
H3953 C3967 0.961 . S
H3954 C3968 0.960 . S
H3955 C3968 0.961 . S
H3956 C3968 0.959 . S
H3957 C3971 0.929 . S
H3958 C3972 0.931 . S
H3959 C3974 0.930 . S
C3960 H3948 0.930 . S
C3960 C3961 1.399 . S
C3960 C3965 1.399 . S
C3961 C3960 1.399 . S
C3961 C3962 1.376 . S
C3962 H3949 0.930 . S
C3962 C3961 1.376 . S
C3962 C3963 1.388 . S
C3963 H3950 0.930 . S
C3963 C3962 1.388 . S
C3963 C3964 1.390 . S
C3964 C3963 1.390 . S
C3964 C3965 1.394 . S
C3964 C3970 1.465 . S
C3965 C3960 1.399 . S
C3965 C3964 1.394 . S
C3965 C3966 1.516 . S
C3966 C3965 1.516 . S
C3966 C3967 1.502 . S
C3966 C3968 1.561 . S
C3966 C3969 1.526 . S
C3967 H3951 0.959 . S
C3967 H3952 0.959 . S
C3967 H3953 0.961 . S
C3967 C3966 1.502 . S
C3968 H3954 0.960 . S
C3968 H3955 0.961 . S
C3968 H3956 0.959 . S
C3968 C3966 1.561 . S
C3969 C3966 1.526 . S
C3969 C3970 1.396 . S
C3969 C3974 1.390 . S
C3970 C3964 1.465 . S
C3970 C3969 1.396 . S
C3970 C3971 1.399 . S
C3971 H3957 0.929 . S
C3971 C3970 1.399 . S
C3971 C3972 1.385 . S
C3972 H3958 0.931 . S
C3972 C3971 1.385 . S
C3972 C3973 1.389 . S
C3973 C3972 1.389 . S
C3973 C3974 1.387 . S
C3974 H3959 0.930 . S
C3974 C3969 1.390 . S
C3974 C3973 1.387 . S
H3975 C3987 0.930 . S
H3976 C3989 0.930 . S
H3977 C3990 0.930 . S
H3978 C3994 0.959 . S
H3979 C3994 0.959 . S
H3980 C3994 0.961 . S
H3981 C3995 0.960 . S
H3982 C3995 0.961 . S
H3983 C3995 0.959 . S
H3984 C3998 0.929 . S
H3985 C3999 0.931 . S
H3986 C4001 0.930 . S
C3987 H3975 0.930 . S
C3987 C3988 1.399 . S
C3987 C3992 1.399 . S
C3988 C3987 1.399 . S
C3988 C3989 1.376 . S
C3989 H3976 0.930 . S
C3989 C3988 1.376 . S
C3989 C3990 1.388 . S
C3990 H3977 0.930 . S
C3990 C3989 1.388 . S
C3990 C3991 1.390 . S
C3991 C3990 1.390 . S
C3991 C3992 1.394 . S
C3991 C3997 1.465 . S
C3992 C3987 1.399 . S
C3992 C3991 1.394 . S
C3992 C3993 1.516 . S
C3993 C3992 1.516 . S
C3993 C3994 1.502 . S
C3993 C3995 1.561 . S
C3993 C3996 1.526 . S
C3994 H3978 0.959 . S
C3994 H3979 0.959 . S
C3994 H3980 0.961 . S
C3994 C3993 1.502 . S
C3995 H3981 0.960 . S
C3995 H3982 0.961 . S
C3995 H3983 0.959 . S
C3995 C3993 1.561 . S
C3996 C3993 1.526 . S
C3996 C3997 1.396 . S
C3996 C4001 1.390 . S
C3997 C3991 1.465 . S
C3997 C3996 1.396 . S
C3997 C3998 1.399 . S
C3998 H3984 0.929 . S
C3998 C3997 1.399 . S
C3998 C3999 1.385 . S
C3999 H3985 0.931 . S
C3999 C3998 1.385 . S
C3999 C4000 1.389 . S
C4000 C3999 1.389 . S
C4000 C4001 1.387 . S
C4001 H3986 0.930 . S
C4001 C3996 1.390 . S
C4001 C4000 1.387 . S
H4002 C4014 0.930 . S
H4003 C4016 0.930 . S
H4004 C4017 0.930 . S
H4005 C4021 0.959 . S
H4006 C4021 0.959 . S
H4007 C4021 0.961 . S
H4008 C4022 0.960 . S
H4009 C4022 0.961 . S
H4010 C4022 0.959 . S
H4011 C4025 0.929 . S
H4012 C4026 0.931 . S
H4013 C4028 0.930 . S
C4014 H4002 0.930 . S
C4014 C4015 1.399 . S
C4014 C4019 1.399 . S
C4015 C4014 1.399 . S
C4015 C4016 1.376 . S
C4016 H4003 0.930 . S
C4016 C4015 1.376 . S
C4016 C4017 1.388 . S
C4017 H4004 0.930 . S
C4017 C4016 1.388 . S
C4017 C4018 1.390 . S
C4018 C4017 1.390 . S
C4018 C4019 1.394 . S
C4018 C4024 1.465 . S
C4019 C4014 1.399 . S
C4019 C4018 1.394 . S
C4019 C4020 1.516 . S
C4020 C4019 1.516 . S
C4020 C4021 1.502 . S
C4020 C4022 1.561 . S
C4020 C4023 1.526 . S
C4021 H4005 0.959 . S
C4021 H4006 0.959 . S
C4021 H4007 0.961 . S
C4021 C4020 1.502 . S
C4022 H4008 0.960 . S
C4022 H4009 0.961 . S
C4022 H4010 0.959 . S
C4022 C4020 1.561 . S
C4023 C4020 1.526 . S
C4023 C4024 1.396 . S
C4023 C4028 1.390 . S
C4024 C4018 1.465 . S
C4024 C4023 1.396 . S
C4024 C4025 1.399 . S
C4025 H4011 0.929 . S
C4025 C4024 1.399 . S
C4025 C4026 1.385 . S
C4026 H4012 0.931 . S
C4026 C4025 1.385 . S
C4026 C4027 1.389 . S
C4027 C4026 1.389 . S
C4027 C4028 1.387 . S
C4028 H4013 0.930 . S
C4028 C4023 1.390 . S
C4028 C4027 1.387 . S
H4029 C4041 0.930 . S
H4030 C4043 0.930 . S
H4031 C4044 0.930 . S
H4032 C4048 0.959 . S
H4033 C4048 0.959 . S
H4034 C4048 0.961 . S
H4035 C4049 0.960 . S
H4036 C4049 0.961 . S
H4037 C4049 0.959 . S
H4038 C4052 0.929 . S
H4039 C4053 0.931 . S
H4040 C4055 0.930 . S
C4041 H4029 0.930 . S
C4041 C4042 1.399 . S
C4041 C4046 1.399 . S
C4042 C4041 1.399 . S
C4042 C4043 1.376 . S
C4043 H4030 0.930 . S
C4043 C4042 1.376 . S
C4043 C4044 1.388 . S
C4044 H4031 0.930 . S
C4044 C4043 1.388 . S
C4044 C4045 1.390 . S
C4045 C4044 1.390 . S
C4045 C4046 1.394 . S
C4045 C4051 1.465 . S
C4046 C4041 1.399 . S
C4046 C4045 1.394 . S
C4046 C4047 1.516 . S
C4047 C4046 1.516 . S
C4047 C4048 1.502 . S
C4047 C4049 1.561 . S
C4047 C4050 1.526 . S
C4048 H4032 0.959 . S
C4048 H4033 0.959 . S
C4048 H4034 0.961 . S
C4048 C4047 1.502 . S
C4049 H4035 0.960 . S
C4049 H4036 0.961 . S
C4049 H4037 0.959 . S
C4049 C4047 1.561 . S
C4050 C4047 1.526 . S
C4050 C4051 1.396 . S
C4050 C4055 1.390 . S
C4051 C4045 1.465 . S
C4051 C4050 1.396 . S
C4051 C4052 1.399 . S
C4052 H4038 0.929 . S
C4052 C4051 1.399 . S
C4052 C4053 1.385 . S
C4053 H4039 0.931 . S
C4053 C4052 1.385 . S
C4053 C4054 1.389 . S
C4054 C4053 1.389 . S
C4054 C4055 1.387 . S
C4055 H4040 0.930 . S
C4055 C4050 1.390 . S
C4055 C4054 1.387 . S
H4056 C4068 0.930 . S
H4057 C4070 0.930 . S
H4058 C4071 0.930 . S
H4059 C4075 0.959 . S
H4060 C4075 0.959 . S
H4061 C4075 0.961 . S
H4062 C4076 0.960 . S
H4063 C4076 0.961 . S
H4064 C4076 0.959 . S
H4065 C4079 0.929 . S
H4066 C4080 0.931 . S
H4067 C4082 0.930 . S
C4068 H4056 0.930 . S
C4068 C4069 1.399 . S
C4068 C4073 1.399 . S
C4069 C4068 1.399 . S
C4069 C4070 1.376 . S
C4070 H4057 0.930 . S
C4070 C4069 1.376 . S
C4070 C4071 1.388 . S
C4071 H4058 0.930 . S
C4071 C4070 1.388 . S
C4071 C4072 1.390 . S
C4072 C4071 1.390 . S
C4072 C4073 1.394 . S
C4072 C4078 1.465 . S
C4073 C4068 1.399 . S
C4073 C4072 1.394 . S
C4073 C4074 1.516 . S
C4074 C4073 1.516 . S
C4074 C4075 1.502 . S
C4074 C4076 1.561 . S
C4074 C4077 1.526 . S
C4075 H4059 0.959 . S
C4075 H4060 0.959 . S
C4075 H4061 0.961 . S
C4075 C4074 1.502 . S
C4076 H4062 0.960 . S
C4076 H4063 0.961 . S
C4076 H4064 0.959 . S
C4076 C4074 1.561 . S
C4077 C4074 1.526 . S
C4077 C4078 1.396 . S
C4077 C4082 1.390 . S
C4078 C4072 1.465 . S
C4078 C4077 1.396 . S
C4078 C4079 1.399 . S
C4079 H4065 0.929 . S
C4079 C4078 1.399 . S
C4079 C4080 1.385 . S
C4080 H4066 0.931 . S
C4080 C4079 1.385 . S
C4080 C4081 1.389 . S
C4081 C4080 1.389 . S
C4081 C4082 1.387 . S
C4082 H4067 0.930 . S
C4082 C4077 1.390 . S
C4082 C4081 1.387 . S
H4083 C4095 0.930 . S
H4084 C4097 0.930 . S
H4085 C4098 0.930 . S
H4086 C4102 0.959 . S
H4087 C4102 0.959 1_545 S
H4088 C4102 0.961 . S
H4089 C4103 0.960 . S
H4090 C4103 0.961 . S
H4091 C4103 0.959 . S
H4092 C4106 0.929 . S
H4093 C4107 0.931 . S
H4094 C4109 0.930 1_545 S
C4095 H4083 0.930 . S
C4095 C4096 1.399 . S
C4095 C4100 1.399 . S
C4096 C4095 1.399 . S
C4096 C4097 1.376 . S
C4097 H4084 0.930 . S
C4097 C4096 1.376 . S
C4097 C4098 1.388 . S
C4098 H4085 0.930 . S
C4098 C4097 1.388 . S
C4098 C4099 1.390 . S
C4099 C4098 1.390 . S
C4099 C4100 1.394 . S
C4099 C4105 1.465 . S
C4100 C4095 1.399 . S
C4100 C4099 1.394 . S
C4100 C4101 1.516 . S
C4101 C4100 1.516 . S
C4101 C4102 1.502 . S
C4101 C4103 1.561 . S
C4101 C4104 1.526 . S
C4102 H4086 0.959 . S
C4102 H4087 0.959 1_565 S
C4102 H4088 0.961 . S
C4102 C4101 1.502 . S
C4103 H4089 0.960 . S
C4103 H4090 0.961 . S
C4103 H4091 0.959 . S
C4103 C4101 1.561 . S
C4104 C4101 1.526 . S
C4104 C4105 1.396 . S
C4104 C4109 1.390 . S
C4105 C4099 1.465 . S
C4105 C4104 1.396 . S
C4105 C4106 1.399 . S
C4106 H4092 0.929 . S
C4106 C4105 1.399 . S
C4106 C4107 1.385 . S
C4107 H4093 0.931 . S
C4107 C4106 1.385 . S
C4107 C4108 1.389 . S
C4108 C4107 1.389 . S
C4108 C4109 1.387 . S
C4109 H4094 0.930 1_565 S
C4109 C4104 1.390 . S
C4109 C4108 1.387 . S
H4110 C4122 0.930 . S
H4111 C4124 0.930 . S
H4112 C4125 0.930 . S
H4113 C4129 0.959 . S
H4114 C4129 0.959 . S
H4115 C4129 0.961 . S
H4116 C4130 0.960 . S
H4117 C4130 0.961 . S
H4118 C4130 0.959 . S
H4119 C4133 0.929 . S
H4120 C4134 0.931 . S
H4121 C4136 0.930 . S
C4122 H4110 0.930 . S
C4122 C4123 1.399 . S
C4122 C4127 1.399 . S
C4123 C4122 1.399 . S
C4123 C4124 1.376 . S
C4124 H4111 0.930 . S
C4124 C4123 1.376 . S
C4124 C4125 1.388 . S
C4125 H4112 0.930 . S
C4125 C4124 1.388 . S
C4125 C4126 1.390 . S
C4126 C4125 1.390 . S
C4126 C4127 1.394 . S
C4126 C4132 1.465 . S
C4127 C4122 1.399 . S
C4127 C4126 1.394 . S
C4127 C4128 1.516 . S
C4128 C4127 1.516 . S
C4128 C4129 1.502 . S
C4128 C4130 1.561 . S
C4128 C4131 1.526 . S
C4129 H4113 0.959 . S
C4129 H4114 0.959 . S
C4129 H4115 0.961 . S
C4129 C4128 1.502 . S
C4130 H4116 0.960 . S
C4130 H4117 0.961 . S
C4130 H4118 0.959 . S
C4130 C4128 1.561 . S
C4131 C4128 1.526 . S
C4131 C4132 1.396 . S
C4131 C4136 1.390 . S
C4132 C4126 1.465 . S
C4132 C4131 1.396 . S
C4132 C4133 1.399 . S
C4133 H4119 0.929 . S
C4133 C4132 1.399 . S
C4133 C4134 1.385 . S
C4134 H4120 0.931 . S
C4134 C4133 1.385 . S
C4134 C4135 1.389 . S
C4135 C4134 1.389 . S
C4135 C4136 1.387 . S
C4136 H4121 0.930 . S
C4136 C4131 1.390 . S
C4136 C4135 1.387 . S
H4137 C4149 0.930 . S
H4138 C4151 0.930 . S
H4139 C4152 0.930 . S
H4140 C4156 0.959 . S
H4141 C4156 0.959 . S
H4142 C4156 0.961 . S
H4143 C4157 0.960 . S
H4144 C4157 0.961 . S
H4145 C4157 0.959 . S
H4146 C4160 0.909 1_556 S
H4147 C4161 0.949 . S
H4148 C4163 0.930 . S
C4149 H4137 0.930 . S
C4149 C4150 1.399 . S
C4149 C4154 1.399 . S
C4150 C4149 1.399 . S
C4150 C4151 1.376 . S
C4151 H4138 0.930 . S
C4151 C4150 1.376 . S
C4151 C4152 1.388 . S
C4152 H4139 0.930 . S
C4152 C4151 1.388 . S
C4152 C4153 1.390 . S
C4153 C4152 1.390 . S
C4153 C4154 1.394 . S
C4153 C4159 1.465 . S
C4154 C4149 1.399 . S
C4154 C4153 1.394 . S
C4154 C4155 1.516 . S
C4155 C4154 1.516 . S
C4155 C4156 1.502 . S
C4155 C4157 1.561 . S
C4155 C4158 1.526 . S
C4156 H4140 0.959 . S
C4156 H4141 0.959 . S
C4156 H4142 0.961 . S
C4156 C4155 1.502 . S
C4157 H4143 0.960 . S
C4157 H4144 0.961 . S
C4157 H4145 0.959 . S
C4157 C4155 1.561 . S
C4158 C4155 1.526 . S
C4158 C4159 1.396 . S
C4158 C4163 1.390 . S
C4159 C4153 1.465 . S
C4159 C4158 1.396 . S
C4159 C4160 1.399 . S
C4160 H4146 0.909 1_554 S
C4160 C4159 1.399 . S
C4160 C4161 1.385 . S
C4161 H4147 0.949 . S
C4161 C4160 1.385 . S
C4161 C4162 1.389 . S
C4162 C4161 1.389 . S
C4162 C4163 1.387 . S
C4163 H4148 0.930 . S
C4163 C4158 1.390 . S
C4163 C4162 1.387 . S
H4164 C4176 0.930 . S
H4165 C4178 0.930 . S
H4166 C4179 0.930 . S
H4167 C4183 0.959 . S
H4168 C4183 0.959 . S
H4169 C4183 0.961 . S
H4170 C4184 0.960 . S
H4171 C4184 0.961 . S
H4172 C4184 0.959 . S
H4173 C4187 0.929 . S
H4174 C4188 0.931 . S
H4175 C4190 0.930 . S
C4176 H4164 0.930 . S
C4176 C4177 1.399 . S
C4176 C4181 1.399 . S
C4177 C4176 1.399 . S
C4177 C4178 1.376 . S
C4178 H4165 0.930 . S
C4178 C4177 1.376 . S
C4178 C4179 1.388 . S
C4179 H4166 0.930 . S
C4179 C4178 1.388 . S
C4179 C4180 1.390 . S
C4180 C4179 1.390 . S
C4180 C4181 1.394 . S
C4180 C4186 1.465 . S
C4181 C4176 1.399 . S
C4181 C4180 1.394 . S
C4181 C4182 1.516 . S
C4182 C4181 1.516 . S
C4182 C4183 1.502 . S
C4182 C4184 1.561 . S
C4182 C4185 1.526 . S
C4183 H4167 0.959 . S
C4183 H4168 0.959 . S
C4183 H4169 0.961 . S
C4183 C4182 1.502 . S
C4184 H4170 0.960 . S
C4184 H4171 0.961 . S
C4184 H4172 0.959 . S
C4184 C4182 1.561 . S
C4185 C4182 1.526 . S
C4185 C4186 1.396 . S
C4185 C4190 1.390 . S
C4186 C4180 1.465 . S
C4186 C4185 1.396 . S
C4186 C4187 1.399 . S
C4187 H4173 0.929 . S
C4187 C4186 1.399 . S
C4187 C4188 1.385 . S
C4188 H4174 0.931 . S
C4188 C4187 1.385 . S
C4188 C4189 1.389 . S
C4189 C4188 1.389 . S
C4189 C4190 1.387 . S
C4190 H4175 0.930 . S
C4190 C4185 1.390 . S
C4190 C4189 1.387 . S
H4191 C4203 0.930 . S
H4192 C4205 0.930 . S
H4193 C4206 0.930 1_556 S
H4194 C4210 0.959 . S
H4195 C4210 0.959 . S
H4196 C4210 0.961 . S
H4197 C4211 0.960 . S
H4198 C4211 0.961 . S
H4199 C4211 0.959 . S
H4200 C4214 0.929 1_556 S
H4201 C4215 0.931 1_556 S
H4202 C4217 0.930 . S
C4203 H4191 0.930 . S
C4203 C4204 1.399 . S
C4203 C4208 1.399 . S
C4204 C4203 1.399 . S
C4204 C4205 1.376 . S
C4205 H4192 0.930 . S
C4205 C4204 1.376 . S
C4205 C4206 1.388 . S
C4206 H4193 0.930 1_554 S
C4206 C4205 1.388 . S
C4206 C4207 1.390 . S
C4207 C4206 1.390 . S
C4207 C4208 1.394 . S
C4207 C4213 1.465 . S
C4208 C4203 1.399 . S
C4208 C4207 1.394 . S
C4208 C4209 1.516 . S
C4209 C4208 1.516 . S
C4209 C4210 1.502 . S
C4209 C4211 1.561 . S
C4209 C4212 1.526 . S
C4210 H4194 0.959 . S
C4210 H4195 0.959 . S
C4210 H4196 0.961 . S
C4210 C4209 1.502 . S
C4211 H4197 0.960 . S
C4211 H4198 0.961 . S
C4211 H4199 0.959 . S
C4211 C4209 1.561 . S
C4212 C4209 1.526 . S
C4212 C4213 1.396 . S
C4212 C4217 1.390 . S
C4213 C4207 1.465 . S
C4213 C4212 1.396 . S
C4213 C4214 1.399 . S
C4214 H4200 0.929 1_554 S
C4214 C4213 1.399 . S
C4214 C4215 1.385 . S
C4215 H4201 0.931 1_554 S
C4215 C4214 1.385 . S
C4215 C4216 1.389 . S
C4216 C4215 1.389 . S
C4216 C4217 1.387 . S
C4217 H4202 0.930 . S
C4217 C4212 1.390 . S
C4217 C4216 1.387 . S
H4218 C4230 0.930 . S
H4219 C4232 0.930 . S
H4220 C4233 0.930 . S
H4221 C4237 0.959 . S
H4222 C4237 0.959 . S
H4223 C4237 0.961 . S
H4224 C4238 0.960 . S
H4225 C4238 0.961 . S
H4226 C4238 0.959 . S
H4227 C4241 0.929 . S
H4228 C4242 0.931 . S
H4229 C4244 0.930 . S
C4230 H4218 0.930 . S
C4230 C4231 1.399 . S
C4230 C4235 1.399 . S
C4231 C4230 1.399 . S
C4231 C4232 1.376 . S
C4232 H4219 0.930 . S
C4232 C4231 1.376 . S
C4232 C4233 1.388 . S
C4233 H4220 0.930 . S
C4233 C4232 1.388 . S
C4233 C4234 1.390 . S
C4234 C4233 1.390 . S
C4234 C4235 1.394 . S
C4234 C4240 1.465 . S
C4235 C4230 1.399 . S
C4235 C4234 1.394 . S
C4235 C4236 1.516 . S
C4236 C4235 1.516 . S
C4236 C4237 1.502 . S
C4236 C4238 1.561 . S
C4236 C4239 1.526 . S
C4237 H4221 0.959 . S
C4237 H4222 0.959 . S
C4237 H4223 0.961 . S
C4237 C4236 1.502 . S
C4238 H4224 0.960 . S
C4238 H4225 0.961 . S
C4238 H4226 0.959 . S
C4238 C4236 1.561 . S
C4239 C4236 1.526 . S
C4239 C4240 1.396 . S
C4239 C4244 1.390 . S
C4240 C4234 1.465 . S
C4240 C4239 1.396 . S
C4240 C4241 1.399 . S
C4241 H4227 0.929 . S
C4241 C4240 1.399 . S
C4241 C4242 1.385 . S
C4242 H4228 0.931 . S
C4242 C4241 1.385 . S
C4242 C4243 1.389 . S
C4243 C4242 1.389 . S
C4243 C4244 1.387 . S
C4244 H4229 0.930 . S
C4244 C4239 1.390 . S
C4244 C4243 1.387 . S
H4245 C4257 0.930 . S
H4246 C4259 0.930 . S
H4247 C4260 0.930 . S
H4248 C4264 0.959 . S
H4249 C4264 0.959 . S
H4250 C4264 0.961 . S
H4251 C4265 0.960 . S
H4252 C4265 0.961 . S
H4253 C4265 0.959 . S
H4254 C4268 0.929 . S
H4255 C4269 0.931 . S
H4256 C4271 0.930 . S
C4257 H4245 0.930 . S
C4257 C4258 1.399 . S
C4257 C4262 1.399 . S
C4258 C4257 1.399 . S
C4258 C4259 1.376 . S
C4259 H4246 0.930 . S
C4259 C4258 1.376 . S
C4259 C4260 1.388 . S
C4260 H4247 0.930 . S
C4260 C4259 1.388 . S
C4260 C4261 1.390 . S
C4261 C4260 1.390 . S
C4261 C4262 1.394 . S
C4261 C4267 1.465 . S
C4262 C4257 1.399 . S
C4262 C4261 1.394 . S
C4262 C4263 1.516 . S
C4263 C4262 1.516 . S
C4263 C4264 1.502 . S
C4263 C4265 1.561 . S
C4263 C4266 1.526 . S
C4264 H4248 0.959 . S
C4264 H4249 0.959 . S
C4264 H4250 0.961 . S
C4264 C4263 1.502 . S
C4265 H4251 0.960 . S
C4265 H4252 0.961 . S
C4265 H4253 0.959 . S
C4265 C4263 1.561 . S
C4266 C4263 1.526 . S
C4266 C4267 1.396 . S
C4266 C4271 1.390 . S
C4267 C4261 1.465 . S
C4267 C4266 1.396 . S
C4267 C4268 1.399 . S
C4268 H4254 0.929 . S
C4268 C4267 1.399 . S
C4268 C4269 1.385 . S
C4269 H4255 0.931 . S
C4269 C4268 1.385 . S
C4269 C4270 1.389 . S
C4270 C4269 1.389 . S
C4270 C4271 1.387 . S
C4271 H4256 0.930 . S
C4271 C4266 1.390 . S
C4271 C4270 1.387 . S
C1693 C109 2.059 1_455 S
C1705 C392 2.100 . S
C1720 C65 1.884 . S
C1732 C494 1.876 . S
C1747 C75 1.861 . S
C1759 C560 1.862 . S
C1786 C646 1.423 . S
C1774 C84 1.479 . S
C1801 C25 1.462 . S
C1813 C730 1.361 . S
C1840 C812 1.810 . S
C1828 C28 1.824 . S
C1867 C914 1.884 . S
C1855 C47 1.879 . S
C1882 C9 2.058 . S
C1894 C980 2.110 . S
C1921 C410 1.781 . S
C1909 C233 1.770 . S
C1936 C249 0.880 . S
C1948 C478 0.798 . S
C1975 C578 1.148 . S
C1963 C275 1.195 . S
C2002 C644 1.622 . S
C1990 C173 1.633 . S
C2017 C224 1.665 . S
C2029 C728 1.684 . S
C2056 C830 1.147 . S
C2044 C243 1.170 . S
C2083 C898 0.821 . S
C2071 C266 0.945 . S
C2110 C998 1.630 . S
C2098 C179 1.630 . S
C2137 C394 1.076 1_565 S
C2125 C163 1.084 . S
C2152 C289 1.669 . S
C2164 C1082 1.658 . S
C2191 C1150 1.334 . S
C2179 C333 1.334 . S
C2218 C1232 0.789 . S
C2206 C308 0.776 . S
C2233 C123 1.043 . S
C2245 C982 1.056 . S
C2260 C126 1.398 . S
C2272 C562 1.296 . S
C2287 C327 1.709 . S
C2299 C1334 1.705 . S
C2326 C1400 0.884 . S
C2314 C299 0.893 . S
C2353 C403 2.106 . S
C2341 C67 2.102 . S
C2380 C1407 1.917 . S
C2368 C98 1.884 . S
C2395 C89 1.883 . S
C2407 C571 1.907 . S
C2422 C79 1.551 . S
C2434 C1329 1.486 . S
C2461 C741 1.361 . S
C2449 C11 1.508 . S
C2476 C51 1.821 . S
C2488 C1159 1.852 . S
C2515 C903 1.951 1_556 S
C2503 C33 1.938 . S
C2542 C1495 2.109 . S
C2530 C14 2.111 . S
C2569 C399 1.764 . S
C2557 C140 1.789 . S
C2596 C1413 0.919 . S
C2584 C319 0.877 . S
C2611 C112 1.161 . S
C2623 C567 1.160 . S
C2638 C285 1.645 . S
C2650 C1327 1.658 . S
C2665 C149 1.701 . S
C2677 C739 1.709 . S
C2704 C1155 1.244 . S
C2692 C313 1.206 . S
C2719 C121 0.974 . S
C2731 C909 1.012 . S
C2746 C291 1.689 . S
C2758 C1491 1.686 . S
C2773 C182 1.059 . S
C2785 C405 1.067 . S
C2800 C168 1.677 . S
C2812 C1071 1.674 . S
C2827 C263 1.351 . S
C2839 C825 1.256 . S
C2854 C247 0.860 . S
C2866 C1243 0.836 . S
C2893 C1497 0.965 . S
C2881 C277 0.996 1_565 S
C2908 C219 1.441 . S
C2920 C573 1.308 . S
C2947 C651 1.718 . S
C2935 C257 1.738 . S
C2974 C487 0.894 . S
C2962 C201 0.897 . S
C2989 C81 2.088 . S
C3001 C1568 2.084 . S
C3028 C1418 1.883 . S
C3016 C93 1.886 . S
C3043 C103 1.871 . S
C3055 C1652 1.870 . S
C3070 C56 1.502 . S
C3082 C1318 1.351 . S
C3097 C53 1.462 . S
C3109 C1066 1.362 . S
C3136 C1148 1.811 . S
C3124 C0 1.826 . S
C3163 C1250 1.882 . S
C3151 C19 1.872 . S
C3190 C1484 2.097 . S
C3178 C37 2.089 . S
C3217 C1586 1.754 . S
C3205 C261 1.791 . S
C3232 C193 0.929 1_556 S
C3244 C1402 0.892 . S
C3271 C1670 1.197 . S
C3259 C205 1.171 . S
C3298 C1316 1.622 . S
C3286 C215 1.632 . S
C3325 C1064 1.668 . S
C3313 C252 1.681 . S
C3340 C187 1.163 . S
C3352 C1166 1.194 . S
C3379 C1234 0.969 . S
C3367 C196 0.918 . S
C3394 C221 1.664 . S
C3406 C1502 1.624 . S
C3433 C1570 1.061 . S
C3421 C317 1.062 . S
C3448 C135 1.661 . S
C3460 C746 1.627 . S
C3487 C814 1.334 . S
C3475 C151 1.335 1_565 S
C3514 C896 0.789 . S
C3502 C154 0.768 . S
C3541 C1486 1.051 . S
C3529 C305 1.028 . S
C3556 C280 1.408 . S
C3568 C1654 1.397 . S
C3595 C662 1.693 . S
C3583 C145 1.698 . S
C3622 C476 0.888 . S
C3610 C117 0.896 . S
C3637 C95 2.109 . S
C3649 C1579 2.113 . S
C3676 C483 1.918 . S
C3664 C70 1.887 . S
C3691 C61 1.887 . S
C3703 C1663 1.908 . S
C3718 C107 1.548 . S
C3730 C657 1.491 . S
C3745 C39 1.524 . S
C3757 C1077 1.416 . S
C3784 C823 1.854 . S
C3772 C23 1.816 . S
C3799 C5 1.918 . S
C3811 C1239 1.929 . S
C3826 C42 2.115 . S
C3838 C991 2.101 . S
C3865 C1575 1.761 . S
C3853 C322 1.788 . S
C3880 C165 0.870 . S
C3892 C489 0.874 . S
C3919 C1659 1.160 1_655 S
C3907 C294 1.192 . S
C3934 C131 1.647 . S
C3946 C655 1.660 . S
C3961 C331 1.702 . S
C3973 C1075 1.708 . S
C4000 C819 1.226 . S
C3988 C159 1.254 . S
C4015 C303 1.000 . S
C4027 C1245 0.899 . S
C4054 C987 1.681 . S
C4042 C137 1.682 . S
C4081 C1581 1.064 . S
C4069 C238 1.062 . S
C4108 C735 1.668 1_565 S
C4096 C210 1.671 . S
C4123 C235 1.346 . S
C4135 C1161 1.272 . S
C4162 C907 0.826 . S
C4150 C191 0.797 . S
C4177 C207 1.044 . S
C4189 C993 1.039 . S
C4204 C177 1.440 . S
C4216 C1665 1.320 . S
C4243 C1323 1.739 . S
C4231 C229 1.741 . S
C4270 C1411 0.914 . S
C4258 C271 0.910 . S
