# Generated by pormake.
# Topology gar, (4,6)-cn, num edge types: 1
# Building blocks:
#     Node 0, Type 0, BuildingBlock: QUQFOY_clean_sbu_3, # of connection points: 4
#     Node 1, Type 0, BuildingBlock: QUQFOY_clean_sbu_3, # of connection points: 4
#     Node 2, Type 0, BuildingBlock: QUQFOY_clean_sbu_3, # of connection points: 4
#     Node 3, Type 0, BuildingBlock: QUQFOY_clean_sbu_3, # of connection points: 4
#     Node 4, Type 0, BuildingBlock: QUQFOY_clean_sbu_3, # of connection points: 4
#     Node 5, Type 0, BuildingBlock: QUQFOY_clean_sbu_3, # of connection points: 4
#     Node 6, Type 0, BuildingBlock: QUQFOY_clean_sbu_3, # of connection points: 4
#     Node 7, Type 0, BuildingBlock: QUQFOY_clean_sbu_3, # of connection points: 4
#     Node 8, Type 0, BuildingBlock: QUQFOY_clean_sbu_3, # of connection points: 4
#     Node 9, Type 0, BuildingBlock: QUQFOY_clean_sbu_3, # of connection points: 4
#     Node 10, Type 0, BuildingBlock: QUQFOY_clean_sbu_3, # of connection points: 4
#     Node 11, Type 0, BuildingBlock: QUQFOY_clean_sbu_3, # of connection points: 4
#     Node 12, Type 0, BuildingBlock: QUQFOY_clean_sbu_3, # of connection points: 4
#     Node 13, Type 0, BuildingBlock: QUQFOY_clean_sbu_3, # of connection points: 4
#     Node 14, Type 0, BuildingBlock: QUQFOY_clean_sbu_3, # of connection points: 4
#     Node 15, Type 0, BuildingBlock: QUQFOY_clean_sbu_3, # of connection points: 4
#     Node 16, Type 0, BuildingBlock: QUQFOY_clean_sbu_3, # of connection points: 4
#     Node 17, Type 0, BuildingBlock: QUQFOY_clean_sbu_3, # of connection points: 4
#     Node 18, Type 0, BuildingBlock: QUQFOY_clean_sbu_3, # of connection points: 4
#     Node 19, Type 0, BuildingBlock: QUQFOY_clean_sbu_3, # of connection points: 4
#     Node 20, Type 0, BuildingBlock: QUQFOY_clean_sbu_3, # of connection points: 4
#     Node 21, Type 0, BuildingBlock: QUQFOY_clean_sbu_3, # of connection points: 4
#     Node 22, Type 0, BuildingBlock: QUQFOY_clean_sbu_3, # of connection points: 4
#     Node 23, Type 0, BuildingBlock: QUQFOY_clean_sbu_3, # of connection points: 4
#     Node 24, Type 1, BuildingBlock: BETFEN_clean_sbu_0, # of connection points: 6
#     Node 25, Type 1, BuildingBlock: BETFEN_clean_sbu_0, # of connection points: 6
#     Node 26, Type 1, BuildingBlock: BETFEN_clean_sbu_0, # of connection points: 6
#     Node 27, Type 1, BuildingBlock: BETFEN_clean_sbu_0, # of connection points: 6
#     Node 28, Type 1, BuildingBlock: BETFEN_clean_sbu_0, # of connection points: 6
#     Node 29, Type 1, BuildingBlock: BETFEN_clean_sbu_0, # of connection points: 6
#     Node 30, Type 1, BuildingBlock: BETFEN_clean_sbu_0, # of connection points: 6
#     Node 31, Type 1, BuildingBlock: BETFEN_clean_sbu_0, # of connection points: 6
#     Node 32, Type 1, BuildingBlock: BETFEN_clean_sbu_0, # of connection points: 6
#     Node 33, Type 1, BuildingBlock: BETFEN_clean_sbu_0, # of connection points: 6
#     Node 34, Type 1, BuildingBlock: BETFEN_clean_sbu_0, # of connection points: 6
#     Node 35, Type 1, BuildingBlock: BETFEN_clean_sbu_0, # of connection points: 6
#     Node 36, Type 1, BuildingBlock: BETFEN_clean_sbu_0, # of connection points: 6
#     Node 37, Type 1, BuildingBlock: BETFEN_clean_sbu_0, # of connection points: 6
#     Node 38, Type 1, BuildingBlock: BETFEN_clean_sbu_0, # of connection points: 6
#     Node 39, Type 1, BuildingBlock: BETFEN_clean_sbu_0, # of connection points: 6
#     Edge 40, Type (0, 1), None
#     Edge 41, Type (0, 1), None
#     Edge 42, Type (0, 1), None
#     Edge 43, Type (0, 1), None
#     Edge 44, Type (0, 1), None
#     Edge 45, Type (0, 1), None
#     Edge 46, Type (0, 1), None
#     Edge 47, Type (0, 1), None
#     Edge 48, Type (0, 1), None
#     Edge 49, Type (0, 1), None
#     Edge 50, Type (0, 1), None
#     Edge 51, Type (0, 1), None
#     Edge 52, Type (0, 1), None
#     Edge 53, Type (0, 1), None
#     Edge 54, Type (0, 1), None
#     Edge 55, Type (0, 1), None
#     Edge 56, Type (0, 1), None
#     Edge 57, Type (0, 1), None
#     Edge 58, Type (0, 1), None
#     Edge 59, Type (0, 1), None
#     Edge 60, Type (0, 1), None
#     Edge 61, Type (0, 1), None
#     Edge 62, Type (0, 1), None
#     Edge 63, Type (0, 1), None
#     Edge 64, Type (0, 1), None
#     Edge 65, Type (0, 1), None
#     Edge 66, Type (0, 1), None
#     Edge 67, Type (0, 1), None
#     Edge 68, Type (0, 1), None
#     Edge 69, Type (0, 1), None
#     Edge 70, Type (0, 1), None
#     Edge 71, Type (0, 1), None
#     Edge 72, Type (0, 1), None
#     Edge 73, Type (0, 1), None
#     Edge 74, Type (0, 1), None
#     Edge 75, Type (0, 1), None
#     Edge 76, Type (0, 1), None
#     Edge 77, Type (0, 1), None
#     Edge 78, Type (0, 1), None
#     Edge 79, Type (0, 1), None
#     Edge 80, Type (0, 1), None
#     Edge 81, Type (0, 1), None
#     Edge 82, Type (0, 1), None
#     Edge 83, Type (0, 1), None
#     Edge 84, Type (0, 1), None
#     Edge 85, Type (0, 1), None
#     Edge 86, Type (0, 1), None
#     Edge 87, Type (0, 1), None
#     Edge 88, Type (0, 1), None
#     Edge 89, Type (0, 1), None
#     Edge 90, Type (0, 1), None
#     Edge 91, Type (0, 1), None
#     Edge 92, Type (0, 1), None
#     Edge 93, Type (0, 1), None
#     Edge 94, Type (0, 1), None
#     Edge 95, Type (0, 1), None
#     Edge 96, Type (0, 1), None
#     Edge 97, Type (0, 1), None
#     Edge 98, Type (0, 1), None
#     Edge 99, Type (0, 1), None
#     Edge 100, Type (0, 1), None
#     Edge 101, Type (0, 1), None
#     Edge 102, Type (0, 1), None
#     Edge 103, Type (0, 1), None
#     Edge 104, Type (0, 1), None
#     Edge 105, Type (0, 1), None
#     Edge 106, Type (0, 1), None
#     Edge 107, Type (0, 1), None
#     Edge 108, Type (0, 1), None
#     Edge 109, Type (0, 1), None
#     Edge 110, Type (0, 1), None
#     Edge 111, Type (0, 1), None
#     Edge 112, Type (0, 1), None
#     Edge 113, Type (0, 1), None
#     Edge 114, Type (0, 1), None
#     Edge 115, Type (0, 1), None
#     Edge 116, Type (0, 1), None
#     Edge 117, Type (0, 1), None
#     Edge 118, Type (0, 1), None
#     Edge 119, Type (0, 1), None
#     Edge 120, Type (0, 1), None
#     Edge 121, Type (0, 1), None
#     Edge 122, Type (0, 1), None
#     Edge 123, Type (0, 1), None
#     Edge 124, Type (0, 1), None
#     Edge 125, Type (0, 1), None
#     Edge 126, Type (0, 1), None
#     Edge 127, Type (0, 1), None
#     Edge 128, Type (0, 1), None
#     Edge 129, Type (0, 1), None
#     Edge 130, Type (0, 1), None
#     Edge 131, Type (0, 1), None
#     Edge 132, Type (0, 1), None
#     Edge 133, Type (0, 1), None
#     Edge 134, Type (0, 1), None
#     Edge 135, Type (0, 1), None
# Relax obj value: 0.390
# Max RMSD: 0.420
# Mean RMSD: 0.209
data_MOF--net-gar--node1-QUQFOY_clean_sbu_3--node2-BETFEN_clean_sbu_0--edge1-none
_symmetry_space_group_name_H-M    P1
_symmetry_Int_Tables_number       1
_symmetry_cell_setting            triclinic
loop_
_symmetry_equiv_pos_as_xyz
'x, y, z'
_cell_length_a     34.159044
_cell_length_b     28.200252
_cell_length_c     27.851169
_cell_angle_alpha  93.108689
_cell_angle_beta   101.58867
_cell_angle_gamma 104.48722
loop_
_atom_site_label
_atom_site_type_symbol
_atom_site_fract_x
_atom_site_fract_y
_atom_site_fract_z
_atom_type_partial_charge
C0 C 0.96028 0.41307 0.34106 0.0
O1 O 0.98702 0.44552 0.32667 0.0
Cd2 Cd 0.05847 0.4577 0.35744 0.0
O3 O 0.97244 0.3859 0.37368 0.0
Cd4 Cd 0.04879 0.38404 0.42161 0.0
C5 C 0.07956 0.5174 0.46851 0.0
O6 O 0.07608 0.38028 0.34381 0.0
O7 O 0.12081 0.38666 0.41146 0.0
O8 O 0.02873 0.28887 0.42352 0.0
C9 C 0.11145 0.37643 0.36499 0.0
O10 O 0.0797 0.52489 0.42426 0.0
C11 C 0.04544 0.28887 0.46858 0.0
O12 O 0.07011 0.47225 0.47883 0.0
O13 O 0.05977 0.33154 0.49268 0.0
C14 C 0.0529 0.92094 0.72511 0.0
O15 O 0.05968 0.88074 0.73833 0.0
Cd16 Cd 0.11205 0.84764 0.70993 0.0
O17 O 0.07116 0.94214 0.69313 0.0
Cd18 Cd 0.1237 0.93102 0.64231 0.0
C19 C 0.09004 0.79753 0.59118 0.0
O20 O 0.17192 0.91793 0.72104 0.0
O21 O 0.20022 0.93369 0.65941 0.0
O22 O 0.13765 0.02627 0.64129 0.0
C23 C 0.20408 0.92269 0.70356 0.0
O24 O 0.09512 0.78731 0.63554 0.0
C25 C 0.11948 0.02608 0.59673 0.0
O26 O 0.09556 0.84337 0.58305 0.0
O27 O 0.10612 0.98349 0.57238 0.0
C28 C 0.4603 0.91313 0.84108 0.0
O29 O 0.48703 0.9456 0.82671 0.0
Cd30 Cd 0.55848 0.95779 0.85749 0.0
O31 O 0.47245 0.88596 0.8737 0.0
Cd32 Cd 0.54881 0.88413 0.92165 0.0
C33 C 0.57957 1.0175 0.96855 0.0
O34 O 0.57609 0.88037 0.84384 0.0
O35 O 0.62082 0.88673 0.91149 0.0
O36 O 0.52873 0.78896 0.92357 0.0
C37 C 0.61146 0.87651 0.86501 0.0
O38 O 0.57971 0.02499 0.9243 0.0
C39 C 0.54545 0.78896 0.96862 0.0
O40 O 0.57012 0.97234 0.97887 0.0
O41 O 0.5598 0.83163 0.99272 0.0
C42 C 0.55291 0.4211 0.22511 0.0
O43 O 0.55967 0.38089 0.23832 0.0
Cd44 Cd 0.61202 0.34779 0.20989 0.0
O45 O 0.57117 0.44231 0.19314 0.0
Cd46 Cd 0.62371 0.43111 0.14233 0.0
C47 C 0.59003 0.29762 0.09119 0.0
O48 O 0.67194 0.41802 0.22107 0.0
O49 O 0.70022 0.43375 0.15942 0.0
O50 O 0.63768 0.52636 0.14129 0.0
C51 C 0.7041 0.42276 0.20357 0.0
O52 O 0.59511 0.28741 0.13554 0.0
C53 C 0.61949 0.52616 0.09674 0.0
O54 O 0.59556 0.34346 0.08305 0.0
O55 O 0.60612 0.48357 0.07239 0.0
C56 C 0.06938 0.88395 0.22907 0.0
O57 O 0.09713 0.86684 0.2539 0.0
Cd58 Cd 0.16516 0.87145 0.24802 0.0
O59 O 0.07635 0.90994 0.19385 0.0
Cd60 Cd 0.1343 0.9394 0.14977 0.0
C61 C 0.13124 0.81233 0.12939 0.0
O62 O 0.18542 0.95211 0.229 0.0
O63 O 0.21292 0.94631 0.16731 0.0
O64 O 0.12883 0.02809 0.13901 0.0
C65 C 0.2176 0.95062 0.21407 0.0
O66 O 0.15021 0.81451 0.17406 0.0
C67 C 0.11 0.02299 0.09389 0.0
O68 O 0.11988 0.84943 0.11197 0.0
O69 O 0.10331 0.97982 0.07218 0.0
C70 C 0.4453 0.90309 0.3351 0.0
O71 O 0.47027 0.93018 0.31341 0.0
Cd72 Cd 0.5431 0.95963 0.33644 0.0
O73 O 0.45869 0.88517 0.37534 0.0
Cd74 Cd 0.53312 0.88714 0.43423 0.0
C75 C 0.5553 0.01853 0.45389 0.0
O76 O 0.56152 0.88895 0.36201 0.0
O77 O 0.60714 0.91183 0.42952 0.0
O78 O 0.51959 0.79481 0.44834 0.0
C79 C 0.59938 0.90318 0.38307 0.0
O80 O 0.55826 0.01942 0.40907 0.0
C81 C 0.5453 0.79913 0.48951 0.0
O82 O 0.5447 0.97741 0.47235 0.0
O83 O 0.56233 0.84352 0.50821 0.0
C84 C 0.56933 0.38388 0.729 0.0
O85 O 0.59708 0.36677 0.75383 0.0
Cd86 Cd 0.66512 0.3714 0.74797 0.0
O87 O 0.57631 0.40989 0.69379 0.0
Cd88 Cd 0.63425 0.43934 0.64972 0.0
C89 C 0.63123 0.31227 0.62936 0.0
O90 O 0.68536 0.45205 0.72896 0.0
O91 O 0.71288 0.44628 0.66728 0.0
O92 O 0.6288 0.52803 0.63896 0.0
C93 C 0.71755 0.45058 0.71403 0.0
O94 O 0.6502 0.31446 0.67402 0.0
C95 C 0.60997 0.52293 0.59384 0.0
O96 O 0.61987 0.34936 0.61194 0.0
O97 O 0.60326 0.47976 0.57213 0.0
C98 C 0.94531 0.40318 0.83517 0.0
O99 O 0.97028 0.43026 0.81347 0.0
Cd100 Cd 0.04311 0.45969 0.83651 0.0
O101 O 0.9587 0.38525 0.8754 0.0
Cd102 Cd 0.03312 0.3872 0.93429 0.0
C103 C 0.05527 0.51857 0.95395 0.0
O104 O 0.06152 0.389 0.86206 0.0
O105 O 0.10714 0.4119 0.92957 0.0
O106 O 1.0196 0.29486 0.94839 0.0
C107 C 0.09938 0.40324 0.88313 0.0
O108 O 0.05825 0.51947 0.90914 0.0
C109 C 0.0453 0.29918 0.98955 0.0
O110 O 0.04468 0.47745 0.97241 0.0
O111 O 0.06234 0.34357 1.00825 0.0
C112 C 0.56636 0.26795 0.44826 0.0
O113 O 0.59136 0.30166 0.43267 0.0
Cd114 Cd 0.59743 0.26841 0.35544 0.0
O115 O 0.52843 0.25377 0.42471 0.0
Cd116 Cd 0.49431 0.27787 0.34049 0.0
C117 C 0.51763 0.16834 0.35845 0.0
O118 O 0.55108 0.30056 0.30167 0.0
O119 O 0.49397 0.25547 0.25578 0.0
O120 O 0.45807 0.34192 0.34404 0.0
C121 C 0.53301 0.27192 0.26245 0.0
O122 O 0.55626 0.18459 0.35981 0.0
C123 C 0.42218 0.31646 0.32047 0.0
O124 O 0.49214 0.19493 0.35136 0.0
O125 O 0.41798 0.2707 0.30979 0.0
C126 C 0.346 0.23628 0.55722 0.0
O127 O 0.31863 0.21173 0.5777 0.0
Cd128 Cd 0.25096 0.21518 0.57789 0.0
O129 O 0.33906 0.27028 0.53052 0.0
Cd130 Cd 0.28045 0.31182 0.50501 0.0
C131 C 0.28674 0.33434 0.63514 0.0
O132 O 0.22999 0.22978 0.49601 0.0
O133 O 0.2 0.28741 0.49503 0.0
O134 O 0.30176 0.32564 0.42106 0.0
C135 C 0.19648 0.24133 0.49413 0.0
O136 O 0.2676 0.28936 0.63478 0.0
C137 C 0.30597 0.37187 0.42145 0.0
O138 O 0.29703 0.35141 0.59607 0.0
O139 O 0.29725 0.39127 0.45905 0.0
C140 C 0.14642 0.17642 0.9408 0.0
O141 O 0.13953 0.20071 0.90454 0.0
Cd142 Cd 0.20597 0.2199 0.88563 0.0
O143 O 0.18338 0.17305 0.95703 0.0
Cd144 Cd 0.24618 0.1991 0.91523 0.0
C145 C 0.26268 0.30504 0.85871 0.0
O146 O 0.20246 0.14447 0.84225 0.0
O147 O 0.26242 0.18372 0.83552 0.0
O148 O 0.27453 0.135 0.94874 0.0
C149 C 0.22789 0.15455 0.81481 0.0
O150 O 0.22722 0.28297 0.83263 0.0
C151 C 0.31093 0.15711 0.94527 0.0
O152 O 0.27528 0.28831 0.89912 0.0
O153 O 0.31894 0.20368 0.94787 0.0
C154 C 0.45326 0.09696 0.03024 0.0
O155 O 0.42708 0.10311 0.9939 0.0
Cd156 Cd 0.36449 0.0505 1.00239 0.0
O157 O 0.43989 0.06792 0.06078 0.0
Cd158 Cd 0.35981 0.0222 0.0534 0.0
C159 C 0.33054 0.97006 0.92327 0.0
O160 O 0.33441 0.10258 0.04424 0.0
O161 O 0.29477 0.04198 0.06901 0.0
O162 O 0.38141 1.01764 0.14678 0.0
C163 C 0.30297 0.08717 0.06233 0.0
O164 O 0.33569 1.01507 0.91771 0.0
C165 C 0.3617 0.97302 0.14685 0.0
O166 O 0.33701 0.95892 0.96804 0.0
O167 O 0.34336 0.95034 0.10438 0.0
C168 C 0.46861 0.59987 0.05469 0.0
O169 O 0.44386 0.62183 0.03135 0.0
Cd170 Cd 0.37124 0.59998 1.00749 0.0
O171 O 0.45481 0.55856 0.07218 0.0
Cd172 Cd 0.37794 0.49883 0.07176 0.0
C173 C 0.35683 0.48759 0.9397 0.0
O174 O 0.35273 0.56966 0.07846 0.0
O175 O 0.30467 0.50485 0.04636 0.0
O176 O 0.3737 0.48289 0.16157 0.0
C177 C 0.31455 0.55021 0.0621 0.0
O178 O 0.35428 0.53188 0.9425 0.0
C179 C 0.35884 0.4363 0.1554 0.0
O180 O 0.36672 0.4668 0.97887 0.0
O181 O 0.35657 0.41677 0.11215 0.0
C182 C 0.85983 0.22297 0.02604 0.0
O183 O 0.85331 0.22059 0.06907 0.0
Cd184 Cd 0.81488 0.28029 0.07279 0.0
O185 O 0.84528 0.25299 0.99975 0.0
Cd186 Cd 0.79624 0.30522 0.01852 0.0
C187 C 0.83056 0.36354 0.14689 0.0
O188 O 0.74553 0.23292 0.0507 0.0
O189 O 0.71901 0.27544 0.9977 0.0
O190 O 0.78758 0.30535 0.92479 0.0
C191 C 0.71349 0.23949 0.02334 0.0
O192 O 0.82672 0.31927 0.15546 0.0
C193 C 0.79525 0.35151 0.92266 0.0
O194 O 0.82436 0.3722 0.10123 0.0
O195 O 0.80264 0.37716 0.96421 0.0
C196 C 0.08185 0.49712 0.27441 0.0
O197 O 0.05906 0.4797 0.23244 0.0
Cd198 Cd 0.06256 0.54759 0.18641 0.0
O199 O 0.11904 0.49391 0.28194 0.0
Cd200 Cd 0.16714 0.53401 0.22978 0.0
C201 C 0.14756 0.63411 0.26712 0.0
O202 O 0.11654 0.53292 0.15197 0.0
O203 O 0.17115 0.59366 0.16394 0.0
O204 O 0.20386 0.46859 0.23226 0.0
C205 C 0.13464 0.57354 0.13884 0.0
O206 O 0.11311 0.62139 0.23511 0.0
C207 C 0.23967 0.49412 0.25572 0.0
O208 O 0.16645 0.6024 0.28276 0.0
O209 O 0.24381 0.54012 0.26443 0.0
C210 C 0.9686 0.09977 0.55466 0.0
O211 O 0.94385 0.12174 0.53133 0.0
Cd212 Cd 0.87123 0.0999 0.50749 0.0
O213 O 0.95481 0.05846 0.57215 0.0
Cd214 Cd 0.87794 0.99873 0.57173 0.0
C215 C 0.85682 0.98752 0.43968 0.0
O216 O 0.85274 0.06957 0.57846 0.0
O217 O 0.80468 1.00477 0.54633 0.0
O218 O 0.87369 0.98279 0.66155 0.0
C219 C 0.81456 0.05013 0.5621 0.0
O220 O 0.85427 0.03181 0.4425 0.0
C221 C 0.85882 0.93621 0.65537 0.0
O222 O 0.86672 0.96672 0.47884 0.0
O223 O 0.85654 0.91667 0.61211 0.0
C224 C 0.0296 0.06078 0.22204 0.0
O225 O 1.02198 0.03404 0.18154 0.0
Cd226 Cd 0.95486 0.04228 0.15164 0.0
O227 O 1.00319 0.08246 0.23242 0.0
Cd228 Cd 0.94502 0.10032 0.17583 0.0
C229 C 0.88885 1.01258 0.20687 0.0
O230 O 0.97785 0.1128 0.10517 0.0
O231 O 1.00346 0.16829 0.16841 0.0
O232 O 0.92754 0.14609 0.24124 0.0
C233 C 1.00567 0.15186 0.12609 0.0
O234 O 0.92637 0.0255 0.22923 0.0
C235 C 0.89987 0.16034 0.21234 0.0
O236 O 0.88138 0.02544 0.16374 0.0
O237 O 0.89568 0.14972 0.16626 0.0
C238 C 0.35983 0.72297 0.52602 0.0
O239 O 0.35331 0.72059 0.56905 0.0
Cd240 Cd 0.31488 0.78029 0.57277 0.0
O241 O 0.34528 0.75299 0.49974 0.0
Cd242 Cd 0.29622 0.8052 0.5185 0.0
C243 C 0.33056 0.86353 0.64687 0.0
O244 O 0.24553 0.73289 0.5507 0.0
O245 O 0.219 0.77537 0.49766 0.0
O246 O 0.28767 0.80532 0.42479 0.0
C247 C 0.21349 0.73943 0.52332 0.0
O248 O 0.32671 0.81926 0.65545 0.0
C249 C 0.2952 0.85147 0.42263 0.0
O250 O 0.32436 0.8722 0.60122 0.0
O251 O 0.30249 0.87712 0.46416 0.0
C252 C 0.5296 0.56074 0.72206 0.0
O253 O 0.52198 0.53399 0.68156 0.0
Cd254 Cd 0.45486 0.54224 0.65164 0.0
O255 O 0.50318 0.58243 0.73242 0.0
Cd256 Cd 0.44502 0.60029 0.67582 0.0
C257 C 0.38884 0.51258 0.70688 0.0
O258 O 0.47784 0.61275 0.60515 0.0
O259 O 0.50345 0.66826 0.66838 0.0
O260 O 0.42756 0.64607 0.74123 0.0
C261 C 0.50566 0.65182 0.62606 0.0
O262 O 0.42636 0.52549 0.72924 0.0
C263 C 0.39989 0.66032 0.71234 0.0
O264 O 0.38137 0.52543 0.66374 0.0
O265 O 0.39569 0.6497 0.66626 0.0
C266 C 0.5819 0.9972 0.77447 0.0
O267 O 0.55911 0.97976 0.7325 0.0
Cd268 Cd 0.56257 0.04761 0.68642 0.0
O269 O 0.61909 0.994 0.78201 0.0
Cd270 Cd 0.66714 0.03399 0.72975 0.0
C271 C 0.64758 0.13413 0.76707 0.0
O272 O 0.61651 0.03288 0.65195 0.0
O273 O 0.67113 0.09361 0.66387 0.0
O274 O 0.70385 0.96856 0.73225 0.0
C275 C 0.63462 0.07349 0.6388 0.0
O276 O 0.61313 0.12141 0.73507 0.0
C277 C 0.73967 0.99408 0.75568 0.0
O278 O 0.66648 0.10243 0.7827 0.0
O279 O 0.74382 0.0401 0.76437 0.0
C280 C 0.84597 0.73624 0.05723 0.0
O281 O 0.81859 0.71169 0.07769 0.0
Cd282 Cd 0.75091 0.71516 0.07785 0.0
O283 O 0.83906 0.77024 0.03053 0.0
Cd284 Cd 0.78046 0.8118 1.00499 0.0
C285 C 0.78673 0.83432 0.13511 0.0
O286 O 0.72996 0.72978 0.99597 0.0
O287 O 0.70001 0.78743 0.99504 0.0
O288 O 0.80175 0.82559 0.92103 0.0
C289 C 0.69646 0.74135 0.99411 0.0
O290 O 0.76757 0.78934 0.13474 0.0
C291 C 0.80596 0.87182 0.92143 0.0
O292 O 0.79704 0.85138 0.09605 0.0
O293 O 0.79726 0.89124 0.95903 0.0
C294 C 0.06629 0.76796 0.94829 0.0
O295 O 0.09128 0.80161 0.9326 0.0
Cd296 Cd 0.09729 0.76813 0.85544 0.0
O297 O 0.02835 0.75379 0.92479 0.0
Cd298 Cd 0.9942 0.77768 0.8405 0.0
C299 C 1.01752 0.66819 0.85886 0.0
O300 O 0.05093 0.80024 0.80161 0.0
O301 O 0.99383 0.75501 0.75583 0.0
O302 O 0.95801 0.84179 0.84394 0.0
C303 C 0.03286 0.77152 0.76244 0.0
O304 O 0.05613 0.68437 0.8601 0.0
C305 C 0.92211 0.81634 0.82042 0.0
O306 O 0.99204 0.6948 0.85169 0.0
O307 O 0.91787 0.77055 0.80981 0.0
C308 C 0.95327 0.59693 0.53025 0.0
O309 O 0.92709 0.60309 0.49391 0.0
Cd310 Cd 0.8645 0.55049 0.50241 0.0
O311 O 0.9399 0.56788 0.56078 0.0
Cd312 Cd 0.85982 0.52219 0.55342 0.0
C313 C 0.83055 0.47006 0.42328 0.0
O314 O 0.83443 0.60258 0.54427 0.0
O315 O 0.79476 0.54196 0.56898 0.0
O316 O 0.88143 0.51767 0.6468 0.0
C317 C 0.80297 0.58716 0.56233 0.0
O318 O 0.83569 0.51507 0.41773 0.0
C319 C 0.86171 0.47305 0.64689 0.0
O320 O 0.83701 0.45891 0.46806 0.0
O321 O 0.84337 0.45036 0.60442 0.0
C322 C 0.64639 0.67637 0.44076 0.0
O323 O 0.6395 0.70065 0.40448 0.0
Cd324 Cd 0.70594 0.71986 0.38558 0.0
O325 O 0.68336 0.67301 0.45699 0.0
Cd326 Cd 0.74617 0.69907 0.4152 0.0
C327 C 0.76267 0.805 0.35866 0.0
O328 O 0.70246 0.64443 0.34222 0.0
O329 O 0.76243 0.68367 0.3355 0.0
O330 O 0.77452 0.63498 0.44874 0.0
C331 C 0.72789 0.65452 0.31478 0.0
O332 O 0.72721 0.78294 0.33259 0.0
C333 C 0.81092 0.65709 0.44527 0.0
O334 O 0.77527 0.78827 0.39908 0.0
O335 O 0.81893 0.70366 0.44786 0.0
Pr336 Pr 0.03952 0.12644 0.9983 0.0
Pr337 Pr 0.1177 0.19389 0.07559 0.0
C338 C 0.95751 0.1 0.96185 0.0
C339 C 0.92759 0.12777 0.97249 0.0
C340 C 0.92396 0.17058 0.94999 0.0
C341 C 0.90128 0.20103 0.96645 0.0
C342 C 0.88231 0.18993 1.00639 0.0
C343 C 0.8847 0.1463 0.02761 0.0
C344 C 0.9065 0.1154 0.0105 0.0
C345 C 0.11226 0.15416 0.96448 0.0
C346 C 0.05742 0.25491 0.01139 0.0
C347 C 0.20076 0.2155 0.10616 0.0
C348 C 0.22958 0.18412 0.10075 0.0
C349 C 0.22145 0.135 0.1122 0.0
C350 C 0.24507 0.10367 0.09979 0.0
C351 C 0.27795 0.12063 0.07613 0.0
C352 C 0.2871 0.17034 0.06656 0.0
C353 C 0.26306 0.20139 0.07823 0.0
C354 C 0.04368 0.17068 0.10725 0.0
C355 C 0.09773 0.0661 0.06934 0.0
O356 O 0.97501 0.08059 0.99921 0.0
O357 O 0.98372 0.11985 0.93532 0.0
O358 O 0.09916 0.18007 0.99238 0.0
O359 O 0.08392 0.11274 0.9468 0.0
O360 O 0.0933 0.2608 0.04387 0.0
O361 O 0.03328 0.20989 0.99349 0.0
O362 O 0.18242 0.22812 0.06479 0.0
O363 O 0.1758 0.20415 0.13658 0.0
O364 O 0.05655 0.14292 0.08077 0.0
O365 O 0.07323 0.21114 0.12579 0.0
O366 O 0.06439 0.05985 0.03261 0.0
O367 O 0.12012 0.11114 0.08866 0.0
H368 H 0.93974 0.18151 0.92068 0.0
H369 H 0.89976 0.2341 0.94897 0.0
H370 H 0.86981 0.13603 0.05779 0.0
H371 H 0.90815 0.08261 0.02845 0.0
H372 H 0.1963 0.12029 0.12994 0.0
H373 H 0.23735 0.06596 0.10853 0.0
H374 H 0.31257 0.18522 0.04931 0.0
H375 H 0.27012 0.23883 0.06861 0.0
Pr376 Pr 0.33499 0.95692 0.30648 0.0
Pr377 Pr 0.31692 0.86938 0.26057 0.0
C378 C 0.37689 0.04497 0.35346 0.0
C379 C 0.42166 0.0638 0.36548 0.0
C380 C 0.4412 0.09515 0.40862 0.0
C381 C 0.48192 0.12253 0.41361 0.0
C382 C 0.5014 0.12068 0.37386 0.0
C383 C 0.48535 0.08158 0.33651 0.0
C384 C 0.44507 0.05289 0.33223 0.0
C385 C 0.2542 0.9417 0.24874 0.0
C386 C 0.35534 0.95024 0.19349 0.0
C387 C 0.27521 0.77836 0.221 0.0
C388 C 0.24137 0.74533 0.2375 0.0
C389 C 0.24734 0.72808 0.28407 0.0
C390 C 0.21404 0.69727 0.29862 0.0
C391 C 0.17461 0.6833 0.2666 0.0
C392 C 0.1679 0.70624 0.22332 0.0
C393 C 0.2013 0.7357 0.20833 0.0
C394 C 0.40065 0.89147 0.30953 0.0
C395 C 0.30026 0.87407 0.37535 0.0
O396 O 0.3625 1.00835 0.37693 0.0
O397 O 0.35951 0.03887 0.3066 0.0
O398 O 0.28365 0.92969 0.23484 0.0
O399 O 0.26454 0.95727 0.29543 0.0
O400 O 0.33302 0.90459 0.19027 0.0
O401 O 0.36651 0.97674 0.23718 0.0
O402 O 0.26605 0.8173 0.20406 0.0
O403 O 0.31233 0.78781 0.24922 0.0
O404 O 0.37186 0.89941 0.3284 0.0
O405 O 0.38735 0.87633 0.26274 0.0
O406 O 0.3187 0.92088 0.37684 0.0
O407 O 0.29088 0.84667 0.33256 0.0
H408 H 0.42398 0.10216 0.43571 0.0
H409 H 0.49425 0.15243 0.44309 0.0
H410 H 0.50049 0.07895 0.30616 0.0
H411 H 0.43099 0.02619 0.30019 0.0
H412 H 0.27779 0.73683 0.30844 0.0
H413 H 0.21996 0.68052 0.33252 0.0
H414 H 0.13787 0.69699 0.19799 0.0
H415 H 0.19618 0.75021 0.17324 0.0
Pr416 Pr 0.63313 0.17713 0.5302 0.0
Pr417 Pr 0.5567 0.15444 0.5552 0.0
C418 C 0.70786 0.17748 0.51311 0.0
C419 C 0.73467 0.14399 0.52164 0.0
C420 C 0.77675 0.16402 0.54315 0.0
C421 C 0.8023 0.13328 0.55677 0.0
C422 C 0.78634 0.08171 0.54875 0.0
C423 C 0.74416 0.06152 0.52666 0.0
C424 C 0.71839 0.09249 0.51348 0.0
C425 C 0.58562 0.23634 0.4816 0.0
C426 C 0.56663 0.06692 0.48436 0.0
C427 C 0.48311 0.15108 0.57745 0.0
C428 C 0.45284 0.18038 0.57474 0.0
C429 C 0.43097 0.17939 0.61215 0.0
C430 C 0.39786 0.20052 0.6074 0.0
C431 C 0.38585 0.22306 0.565 0.0
C432 C 0.40956 0.2271 0.52892 0.0
C433 C 0.44287 0.20568 0.53369 0.0
C434 C 0.60967 0.10131 0.6069 0.0
C435 C 0.61986 0.26388 0.59945 0.0
O436 O 0.70292 0.19927 0.55313 0.0
O437 O 0.67366 0.16256 0.47894 0.0
O438 O 0.57094 0.19065 0.48511 0.0
O439 O 0.62517 0.24969 0.49916 0.0
O440 O 0.53798 0.08562 0.49638 0.0
O441 O 0.60568 0.09318 0.49585 0.0
O442 O 0.48703 0.13194 0.53551 0.0
O443 O 0.51823 0.16727 0.60996 0.0
O444 O 0.62043 0.14672 0.60174 0.0
O445 O 0.57055 0.08348 0.58826 0.0
O446 O 0.64874 0.24298 0.59191 0.0
O447 O 0.58066 0.23962 0.58385 0.0
H448 H 0.78972 0.2036 0.55038 0.0
H449 H 0.83468 0.1501 0.57358 0.0
H450 H 0.73106 0.02197 0.51996 0.0
H451 H 0.68575 0.07619 0.49767 0.0
H452 H 0.43836 0.16039 0.64417 0.0
H453 H 0.38055 0.19745 0.63623 0.0
H454 H 0.40099 0.24423 0.49595 0.0
H455 H 0.45968 0.20714 0.50446 0.0
Pr456 Pr 0.29091 0.43449 0.77302 0.0
Pr457 Pr 0.35661 0.39478 0.79736 0.0
C458 C 0.22263 0.4661 0.77007 0.0
C459 C 0.19128 0.45606 0.80006 0.0
C460 C 0.14931 0.43925 0.7764 0.0
C461 C 0.11948 0.42194 0.80348 0.0
C462 C 0.13114 0.42144 0.8548 0.0
C463 C 0.17309 0.43951 0.87867 0.0
C464 C 0.20297 0.45646 0.85149 0.0
C465 C 0.35567 0.48418 0.72973 0.0
C466 C 0.34724 0.46121 0.88924 0.0
C467 C 0.42264 0.35821 0.80377 0.0
C468 C 0.45613 0.35917 0.77847 0.0
C469 C 0.48554 0.33442 0.79684 0.0
C470 C 0.52152 0.34122 0.77912 0.0
C471 C 0.52872 0.37306 0.74268 0.0
C472 C 0.49775 0.39538 0.72195 0.0
C473 C 0.46169 0.38883 0.74018 0.0
C474 C 0.2918 0.34445 0.84016 0.0
C475 C 0.29884 0.36506 0.68348 0.0
O476 O 0.22319 0.4279 0.74194 0.0
O477 O 0.25972 0.4929 0.79196 0.0
O478 O 0.36077 0.47276 0.77358 0.0
O479 O 0.31681 0.47247 0.70836 0.0
O480 O 0.37562 0.44629 0.87187 0.0
O481 O 0.31083 0.45705 0.85984 0.0
O482 O 0.42399 0.4004 0.82663 0.0
O483 O 0.38534 0.33333 0.78053 0.0
O484 O 0.2868 0.35587 0.79626 0.0
O485 O 0.3305 0.35801 0.86178 0.0
O486 O 0.27032 0.37583 0.70395 0.0
O487 O 0.33708 0.37455 0.70993 0.0
H488 H 0.13976 0.43802 0.73672 0.0
H489 H 0.08732 0.40857 0.78407 0.0
H490 H 0.18293 0.43979 0.9182 0.0
H491 H 0.23525 0.46857 0.87062 0.0
H492 H 0.48152 0.31145 0.8264 0.0
H493 H 0.5443 0.3226 0.79532 0.0
H494 H 0.50221 0.41961 0.69351 0.0
H495 H 0.43901 0.40832 0.72586 0.0
Pr496 Pr 0.07938 0.13626 0.49194 0.0
Pr497 Pr 0.09598 0.18339 0.57309 0.0
C498 C 0.06065 0.07711 0.40778 0.0
C499 C 0.07112 0.07286 0.3604 0.0
C500 C 0.06342 0.02573 0.33583 0.0
C501 C 0.06206 0.02069 0.28561 0.0
C502 C 0.06543 0.06269 0.2607 0.0
C503 C 0.08415 0.1093 0.28738 0.0
C504 C 0.08568 0.1147 0.33767 0.0
C505 C 0.15876 0.20439 0.50227 0.0
C506 C 0.05369 0.2434 0.4909 0.0
C507 C 0.13889 0.22703 0.66119 0.0
C508 C 0.16307 0.20405 0.6972 0.0
C509 C 0.14518 0.15762 0.71071 0.0
C510 C 0.16913 0.13512 0.74348 0.0
C511 C 0.21095 0.15924 0.76341 0.0
C512 C 0.23003 0.20154 0.74359 0.0
C513 C 0.20591 0.22464 0.71186 0.0
C514 C 1.0134 0.12711 0.56262 0.0
C515 C 0.11066 0.07162 0.57493 0.0
O516 O 0.03937 0.10851 0.41558 0.0
O517 O 0.09033 0.07646 0.44483 0.0
O518 O 0.12662 0.21422 0.50999 0.0
O519 O 0.15255 0.15708 0.4966 0.0
O520 O 0.07571 0.24902 0.53622 0.0
O521 O 0.04553 0.19963 0.4649 0.0
O522 O 0.15354 0.23371 0.62164 0.0
O523 O 0.09857 0.20968 0.65212 0.0
O524 O 0.04194 0.11022 0.55163 0.0
O525 O 0.02616 0.17452 0.57431 0.0
O526 O 0.08247 0.06687 0.53455 0.0
O527 O 0.12755 0.11718 0.59596 0.0
H528 H 0.05421 0.99306 0.35407 0.0
H529 H 0.04971 0.9844 0.26549 0.0
H530 H 0.08869 0.1421 0.26833 0.0
H531 H 0.09378 0.15129 0.35728 0.0
H532 H 0.11251 0.1394 0.69731 0.0
H533 H 0.15394 0.10193 0.75749 0.0
H534 H 0.26252 0.22048 0.75738 0.0
H535 H 0.2205 0.25924 0.69979 0.0
Pr536 Pr 0.31181 0.86207 0.79749 0.0
Pr537 Pr 0.34833 0.9741 0.76968 0.0
C538 C 0.2944 0.76372 0.78693 0.0
C539 C 0.31821 0.73223 0.76823 0.0
C540 C 0.31219 0.71908 0.7173 0.0
C541 C 0.33893 0.69614 0.69915 0.0
C542 C 0.3721 0.68547 0.73151 0.0
C543 C 0.37719 0.69686 0.78249 0.0
C544 C 0.35052 0.7199 0.80065 0.0
C545 C 0.3191 0.93231 0.87854 0.0
C546 C 0.41588 0.91237 0.8217 0.0
C547 C 0.37302 0.07138 0.79399 0.0
C548 C 0.35797 0.09641 0.83152 0.0
C549 C 0.38481 0.13425 0.86672 0.0
C550 C 0.37055 0.1528 0.90588 0.0
C551 C 0.32972 0.13263 0.91108 0.0
C552 C 0.30344 0.0943 0.87594 0.0
C553 C 0.31727 0.07672 0.83671 0.0
C554 C 0.34112 0.90323 0.68959 0.0
C555 C 0.24535 0.92187 0.73464 0.0
O556 O 0.27621 0.7881 0.75472 0.0
O557 O 0.31221 0.79017 0.82944 0.0
O558 O 0.32646 0.93965 0.83611 0.0
O559 O 0.30427 0.88503 0.87889 0.0
O560 O 0.40951 0.95344 0.80468 0.0
O561 O 0.38506 0.87244 0.82027 0.0
O562 O 0.39567 0.04245 0.81163 0.0
O563 O 0.34532 0.05114 0.75345 0.0
O564 O 0.33446 0.897 0.73237 0.0
O565 O 0.35462 0.95068 0.6875 0.0
O566 O 0.25026 0.88047 0.75329 0.0
O567 O 0.27639 0.96228 0.73991 0.0
H568 H 0.28748 0.72768 0.69124 0.0
H569 H 0.33368 0.68697 0.6597 0.0
H570 H 0.40204 0.68842 0.80845 0.0
H571 H 0.35599 0.72925 0.84011 0.0
H572 H 0.41666 0.14919 0.86404 0.0
H573 H 0.39116 0.18318 0.93166 0.0
H574 H 0.27148 0.07846 0.87769 0.0
H575 H 0.29614 0.04661 0.81104 0.0
Pr576 Pr 0.60041 0.14161 0.07941 0.0
Pr577 Pr 0.57016 0.1772 0.97475 0.0
C578 C 0.61855 0.15022 0.17709 0.0
C579 C 0.59769 0.17736 0.20575 0.0
C580 C 0.62015 0.22169 0.23489 0.0
C581 C 0.59931 0.25357 0.25217 0.0
C582 C 0.55573 0.24177 0.24019 0.0
C583 C 0.53348 0.19705 0.21164 0.0
C584 C 0.55412 0.1651 0.19509 0.0
C585 C 0.59019 0.06184 1.007 0.0
C586 C 0.4979 0.11993 0.03209 0.0
C587 C 0.55131 0.16412 0.87634 0.0
C588 C 0.56042 0.12491 0.84661 0.0
C589 C 0.53064 0.09691 0.80624 0.0
C590 C 0.53747 0.0554 0.78274 0.0
C591 C 0.57431 0.0412 0.79914 0.0
C592 C 0.60366 0.0691 0.84003 0.0
C593 C 0.597 0.11061 0.86316 0.0
C594 C 0.57928 0.2554 0.04985 0.0
C595 C 0.67139 0.20821 0.02312 0.0
O596 O 0.64266 0.17774 0.15251 0.0
O597 O 0.59513 0.10915 0.15108 0.0
O598 O 0.58459 0.10446 0.99997 0.0
O599 O 0.60408 0.06089 0.05391 0.0
O600 O 0.50649 0.13804 0.99153 0.0
O601 O 0.52718 0.12081 0.07165 0.0
O602 O 0.52354 0.14859 0.90225 0.0
O603 O 0.58363 0.19828 0.9013 0.0
O604 O 0.58478 0.21259 0.05431 0.0
O605 O 0.56637 0.25826 1.00286 0.0
O606 O 0.66437 0.18553 0.06237 0.0
O607 O 0.6417 0.20666 0.9843 0.0
H608 H 0.65374 0.23253 0.24267 0.0
H609 H 0.61733 0.28751 0.27465 0.0
H610 H 0.49989 0.1862 0.20233 0.0
H611 H 0.53564 0.13159 0.17222 0.0
H612 H 0.5017 0.10637 0.79371 0.0
H613 H 0.51369 0.0342 0.752 0.0
H614 H 0.63179 0.05866 0.85462 0.0
H615 H 0.61999 0.13047 0.89527 0.0
Pr616 Pr 0.29814 0.35941 0.26386 0.0
Pr617 Pr 0.3642 0.4513 0.31218 0.0
C618 C 0.22121 0.30351 0.2599 0.0
C619 C 0.19075 0.31799 0.28617 0.0
C620 C 0.15617 0.33185 0.26027 0.0
C621 C 0.13048 0.35076 0.28558 0.0
C622 C 0.13883 0.35687 0.33759 0.0
C623 C 0.17306 0.34245 0.36337 0.0
C624 C 0.19837 0.32313 0.33816 0.0
C625 C 0.34208 0.40758 0.19544 0.0
C626 C 0.27365 0.4696 0.27169 0.0
C627 C 0.4414 0.50656 0.31549 0.0
C628 C 0.47427 0.48945 0.29609 0.0
C629 C 0.49143 0.45301 0.31758 0.0
C630 C 0.51641 0.43077 0.29438 0.0
C631 C 0.52588 0.44489 0.24935 0.0
C632 C 0.51034 0.48296 0.22897 0.0
C633 C 0.4847 0.50459 0.25176 0.0
C634 C 0.32143 0.40113 0.38092 0.0
C635 C 0.38834 0.34099 0.30539 0.0
O636 O 0.25402 0.29509 0.28759 0.0
O637 O 0.23038 0.32821 0.22337 0.0
O638 O 0.33101 0.42744 0.23081 0.0
O639 O 0.32637 0.3596 0.19149 0.0
O640 O 0.31289 0.49418 0.28981 0.0
O641 O 0.26254 0.42106 0.26551 0.0
O642 O 0.40942 0.50921 0.28203 0.0
O643 O 0.43043 0.48851 0.35472 0.0
O644 O 0.33258 0.3822 0.34513 0.0
O645 O 0.33519 0.4494 0.38418 0.0
O646 O 0.34934 0.31653 0.28587 0.0
O647 O 0.39942 0.38941 0.31317 0.0
H648 H 0.14939 0.32888 0.22035 0.0
H649 H 0.10431 0.36119 0.26435 0.0
H650 H 0.18035 0.34595 0.40331 0.0
H651 H 0.22448 0.31301 0.35976 0.0
H652 H 0.48459 0.44051 0.35179 0.0
H653 H 0.52837 0.40235 0.3119 0.0
H654 H 0.5172 0.49536 0.1947 0.0
H655 H 0.47204 0.53236 0.23386 0.0
Pr656 Pr 0.57935 0.63633 0.99195 0.0
Pr657 Pr 0.59599 0.68347 0.07312 0.0
C658 C 0.56057 0.57716 0.90779 0.0
C659 C 0.57105 0.57287 0.86042 0.0
C660 C 0.56334 0.52573 0.83588 0.0
C661 C 0.56201 0.52066 0.78567 0.0
C662 C 0.56542 0.56264 0.76073 0.0
C663 C 0.58414 0.60927 0.78739 0.0
C664 C 0.58563 0.61469 0.83768 0.0
C665 C 0.65875 0.70442 1.00225 0.0
C666 C 0.5537 0.74349 0.99094 0.0
C667 C 0.63891 0.72709 0.16121 0.0
C668 C 0.66309 0.7041 0.19721 0.0
C669 C 0.64518 0.65766 0.2107 0.0
C670 C 0.66912 0.63513 0.24346 0.0
C671 C 0.71095 0.65923 0.26339 0.0
C672 C 0.73004 0.70155 0.24358 0.0
C673 C 0.70593 0.72467 0.21188 0.0
C674 C 0.5134 0.6272 0.06266 0.0
C675 C 0.61067 0.5717 0.07494 0.0
O676 O 0.53933 0.60861 0.91559 0.0
O677 O 0.59023 0.57646 0.94485 0.0
O678 O 0.62661 0.71427 0.01 0.0
O679 O 0.65251 0.65711 0.99656 0.0
O680 O 0.57574 0.74911 0.03625 0.0
O681 O 0.54552 0.69972 0.96494 0.0
O682 O 0.65356 0.73378 0.12166 0.0
O683 O 0.59859 0.70976 0.15215 0.0
O684 O 0.54194 0.61031 0.05167 0.0
O685 O 0.52617 0.67461 0.07435 0.0
O686 O 0.58246 0.56694 0.03457 0.0
O687 O 0.62757 0.61726 0.09596 0.0
H688 H 0.5541 0.49308 0.85413 0.0
H689 H 0.54966 0.48437 0.76556 0.0
H690 H 0.58871 0.64205 0.76833 0.0
H691 H 0.59374 0.65129 0.85726 0.0
H692 H 0.61251 0.63945 0.1973 0.0
H693 H 0.65393 0.60194 0.25744 0.0
H694 H 0.76253 0.72047 0.25738 0.0
H695 H 0.72053 0.75927 0.19982 0.0
Pr696 Pr 0.81179 0.36207 0.29749 0.0
Pr697 Pr 0.84834 0.47411 0.2697 0.0
C698 C 0.79437 0.26372 0.28691 0.0
C699 C 0.81818 0.23224 0.26822 0.0
C700 C 0.81216 0.21907 0.21729 0.0
C701 C 0.83891 0.19614 0.19914 0.0
C702 C 0.87207 0.18548 0.23151 0.0
C703 C 0.87716 0.19688 0.28249 0.0
C704 C 0.85049 0.21991 0.30064 0.0
C705 C 0.8191 0.43231 0.37855 0.0
C706 C 0.91587 0.41233 0.32169 0.0
C707 C 0.87306 0.57138 0.29403 0.0
C708 C 0.85801 0.59642 0.33155 0.0
C709 C 0.88483 0.63425 0.36676 0.0
C710 C 0.87057 0.65279 0.40592 0.0
C711 C 0.82972 0.63262 0.41109 0.0
C712 C 0.80345 0.5943 0.37594 0.0
C713 C 0.8173 0.57673 0.33673 0.0
C714 C 0.84112 0.40324 0.18961 0.0
C715 C 0.74536 0.42192 0.23465 0.0
O716 O 0.77619 0.28812 0.2547 0.0
O717 O 0.81216 0.29016 0.32943 0.0
O718 O 0.82647 0.43965 0.33612 0.0
O719 O 0.80426 0.38503 0.37889 0.0
O720 O 0.90952 0.45341 0.30468 0.0
O721 O 0.88504 0.37241 0.32027 0.0
O722 O 0.89569 0.54244 0.31168 0.0
O723 O 0.84538 0.55117 0.25348 0.0
O724 O 0.83446 0.39701 0.23238 0.0
O725 O 0.85464 0.45068 0.18751 0.0
O726 O 0.75025 0.38051 0.25329 0.0
O727 O 0.77641 0.46232 0.23992 0.0
H728 H 0.78744 0.22767 0.19123 0.0
H729 H 0.83365 0.18697 0.15969 0.0
H730 H 0.90202 0.18845 0.30845 0.0
H731 H 0.85596 0.22928 0.3401 0.0
H732 H 0.91669 0.64918 0.3641 0.0
H733 H 0.89116 0.68316 0.4317 0.0
H734 H 0.77149 0.57845 0.37768 0.0
H735 H 0.79617 0.54661 0.31104 0.0
Pr736 Pr 0.10042 0.64151 0.57937 0.0
Pr737 Pr 0.07017 0.67711 0.47473 0.0
C738 C 0.11855 0.65004 0.67705 0.0
C739 C 0.09765 0.67711 0.70573 0.0
C740 C 0.12007 0.72148 0.73485 0.0
C741 C 0.09919 0.75329 0.75213 0.0
C742 C 0.0556 0.74141 0.74018 0.0
C743 C 0.03339 0.69666 0.71167 0.0
C744 C 0.05408 0.66476 0.6951 0.0
C745 C 0.09019 0.56174 0.50695 0.0
C746 C 0.99791 0.61988 0.53208 0.0
C747 C 0.0513 0.66405 0.37632 0.0
C748 C 0.0604 0.62483 0.34658 0.0
C749 C 0.03063 0.59686 0.3062 0.0
C750 C 0.03744 0.55534 0.28269 0.0
C751 C 0.07428 0.54113 0.29909 0.0
C752 C 0.10361 0.569 0.34 0.0
C753 C 0.09697 0.61051 0.36314 0.0
C754 C 0.07929 0.75531 0.54984 0.0
C755 C 0.17139 0.70814 0.52309 0.0
O756 O 0.14264 0.67762 0.65249 0.0
O757 O 0.09515 0.60898 0.65101 0.0
O758 O 0.08459 0.60437 0.49992 0.0
O759 O 0.10409 0.5608 0.55386 0.0
O760 O 1.0065 0.63798 0.49152 0.0
O761 O 0.0272 0.62074 0.57163 0.0
O762 O 1.02353 0.64852 0.40224 0.0
O763 O 0.08362 0.6982 0.40128 0.0
O764 O 0.0848 0.7125 0.5543 0.0
O765 O 0.06638 0.75818 0.50285 0.0
O766 O 0.16438 0.68545 0.56234 0.0
O767 O 0.1417 0.70658 0.48427 0.0
H768 H 0.15366 0.73238 0.7426 0.0
H769 H 0.11717 0.78725 0.7746 0.0
H770 H 0.9998 0.68575 0.70238 0.0
H771 H 0.03563 0.63122 0.67226 0.0
H772 H 1.0017 0.60634 0.29366 0.0
H773 H 1.01366 0.53416 0.25194 0.0
H774 H 0.13174 0.55853 0.3546 0.0
H775 H 0.11995 0.63034 0.39526 0.0
Pr776 Pr 0.79092 0.93446 0.27299 0.0
Pr777 Pr 0.8566 0.89474 0.29733 0.0
C778 C 0.72264 0.96609 0.27005 0.0
C779 C 0.69129 0.95603 0.30003 0.0
C780 C 0.64932 0.93922 0.27636 0.0
C781 C 0.61949 0.9219 0.30343 0.0
C782 C 0.63114 0.92139 0.35475 0.0
C783 C 0.67309 0.93946 0.37863 0.0
C784 C 0.70298 0.95642 0.35146 0.0
C785 C 0.85568 0.98417 0.22971 0.0
C786 C 0.84723 0.96115 0.38922 0.0
C787 C 0.92263 0.85817 0.30374 0.0
C788 C 0.95614 0.85916 0.27846 0.0
C789 C 0.98558 0.83446 0.29687 0.0
C790 C 1.02158 0.84128 0.27918 0.0
C791 C 0.02876 0.87311 0.24273 0.0
C792 C 0.99778 0.89539 0.22197 0.0
C793 C 0.96171 0.88881 0.24017 0.0
C794 C 0.7918 0.84441 0.34012 0.0
C795 C 0.79884 0.86503 0.18346 0.0
O796 O 0.7232 0.92789 0.2419 0.0
O797 O 0.75974 0.99288 0.29195 0.0
O798 O 0.86078 0.97273 0.27357 0.0
O799 O 0.81682 0.97245 0.20834 0.0
O800 O 0.87561 0.94625 0.37184 0.0
O801 O 0.81083 0.957 0.35982 0.0
O802 O 0.92398 0.90035 0.32663 0.0
O803 O 0.88534 0.83331 0.28047 0.0
O804 O 0.78679 0.85583 0.29622 0.0
O805 O 0.83049 0.85796 0.36174 0.0
O806 O 0.77032 0.87579 0.20393 0.0
O807 O 0.83708 0.87453 0.20989 0.0
H808 H 0.63977 0.938 0.23668 0.0
H809 H 0.58733 0.90853 0.28402 0.0
H810 H 0.68293 0.93973 0.41815 0.0
H811 H 0.73526 0.96853 0.37059 0.0
H812 H 0.98156 0.81149 0.32645 0.0
H813 H 0.04437 0.82269 0.29541 0.0
H814 H 1.00223 0.91961 0.19351 0.0
H815 H 0.939 0.90828 0.22582 0.0
Pr816 Pr 0.83494 0.45697 0.80647 0.0
Pr817 Pr 0.81692 0.36944 0.76062 0.0
C818 C 0.87672 0.54506 0.85344 0.0
C819 C 0.9215 0.56377 0.86578 0.0
C820 C 0.9409 0.59524 0.90887 0.0
C821 C 0.98165 0.62258 0.91402 0.0
C822 C 1.00129 0.6206 0.87442 0.0
C823 C 0.98539 0.58136 0.83721 0.0
C824 C 0.94507 0.55269 0.8328 0.0
C825 C 0.75415 0.44167 0.74872 0.0
C826 C 0.85534 0.45029 0.69353 0.0
C827 C 0.7753 0.27838 0.72109 0.0
C828 C 0.74143 0.24535 0.73754 0.0
C829 C 0.74736 0.22813 0.78413 0.0
C830 C 0.71404 0.19732 0.79863 0.0
C831 C 0.67463 0.18332 0.76656 0.0
C832 C 0.66797 0.20625 0.72326 0.0
C833 C 0.70138 0.23571 0.70831 0.0
C834 C 0.90066 0.39158 0.80959 0.0
C835 C 0.80031 0.37411 0.87539 0.0
O836 O 0.86208 0.50854 0.87689 0.0
O837 O 0.85961 0.53888 0.8065 0.0
O838 O 0.78361 0.42969 0.73483 0.0
O839 O 0.76448 0.45724 0.7954 0.0
O840 O 0.833 0.40465 0.69032 0.0
O841 O 0.86653 0.47679 0.73723 0.0
O842 O 0.76615 0.3173 0.70406 0.0
O843 O 0.8124 0.28788 0.74939 0.0
O844 O 0.87187 0.39952 0.82846 0.0
O845 O 0.88736 0.37642 0.76281 0.0
O846 O 0.81891 0.42088 0.87691 0.0
O847 O 0.79077 0.34677 0.83256 0.0
H848 H 0.92355 0.60238 0.93577 0.0
H849 H 0.99389 0.65257 0.94342 0.0
H850 H 1.00066 0.5786 0.80701 0.0
H851 H 0.93111 0.52588 0.80081 0.0
H852 H 0.77778 0.23689 0.80854 0.0
H853 H 0.71992 0.18058 0.83254 0.0
H854 H 0.63795 0.19698 0.69789 0.0
H855 H 0.69629 0.25021 0.67322 0.0
Pr856 Pr 0.7981 0.85934 0.76383 0.0
Pr857 Pr 0.86419 0.95123 0.81213 0.0
C858 C 0.72116 0.80349 0.75989 0.0
C859 C 0.69071 0.818 0.78617 0.0
C860 C 0.65614 0.83187 0.76027 0.0
C861 C 0.63046 0.85081 0.7856 0.0
C862 C 0.63883 0.85693 0.8376 0.0
C863 C 0.67305 0.8425 0.86338 0.0
C864 C 0.69834 0.82315 0.83817 0.0
C865 C 0.84205 0.9075 0.6954 0.0
C866 C 0.77364 0.96956 0.77165 0.0
C867 C 0.9414 1.00645 0.81545 0.0
C868 C 0.97426 0.98932 0.79605 0.0
C869 C 0.99142 0.95287 0.81756 0.0
C870 C 1.0164 0.93062 0.79437 0.0
C871 C 0.02587 0.94473 0.74934 0.0
C872 C 1.01032 0.9828 0.72894 0.0
C873 C 0.98469 1.00444 0.75172 0.0
C874 C 0.82142 0.90108 0.88088 0.0
C875 C 0.88828 0.84088 0.80533 0.0
O876 O 0.75396 0.79505 0.78758 0.0
O877 O 0.73032 0.82818 0.72335 0.0
O878 O 0.83099 0.92736 0.73078 0.0
O879 O 0.82632 0.85951 0.69146 0.0
O880 O 0.81289 0.99413 0.78975 0.0
O881 O 0.76252 0.92102 0.7655 0.0
O882 O 0.90942 1.00911 0.78199 0.0
O883 O 0.93042 0.98841 0.85468 0.0
O884 O 0.83255 0.88214 0.84509 0.0
O885 O 0.83519 0.94935 0.88415 0.0
O886 O 0.84927 0.81644 0.78585 0.0
O887 O 0.89938 0.88931 0.81308 0.0
H888 H 0.64935 0.82891 0.72036 0.0
H889 H 0.6043 0.86125 0.76437 0.0
H890 H 0.68035 0.846 0.90332 0.0
H891 H 0.72445 0.81302 0.85976 0.0
H892 H 0.98458 0.9404 0.85177 0.0
H893 H 0.02836 0.90221 0.81189 0.0
H894 H 1.01718 0.99518 0.69466 0.0
H895 H 0.97204 0.0322 0.73381 0.0
Pr896 Pr 0.5395 0.6264 0.49825 0.0
Pr897 Pr 0.61769 0.69384 0.57555 0.0
C898 C 0.45748 0.59997 0.46182 0.0
C899 C 0.42757 0.62776 0.47246 0.0
C900 C 0.42395 0.67056 0.44996 0.0
C901 C 0.40128 0.70102 0.46643 0.0
C902 C 0.38231 0.68993 0.50637 0.0
C903 C 0.3847 0.64631 0.5276 0.0
C904 C 0.4065 0.6154 0.51048 0.0
C905 C 0.61224 0.65411 0.46444 0.0
C906 C 0.55741 0.75487 0.51135 0.0
C907 C 0.70074 0.71546 0.60613 0.0
C908 C 0.72957 0.68409 0.60073 0.0
C909 C 0.72144 0.63497 0.61217 0.0
C910 C 0.74506 0.60365 0.59977 0.0
C911 C 0.77795 0.62062 0.57613 0.0
C912 C 0.7871 0.67033 0.56657 0.0
C913 C 0.76305 0.70138 0.57823 0.0
C914 C 0.54367 0.67063 0.60721 0.0
C915 C 0.5977 0.56604 0.56929 0.0
O916 O 0.47499 0.58056 0.49917 0.0
O917 O 0.4837 0.61982 0.43529 0.0
O918 O 0.59915 0.68002 0.49234 0.0
O919 O 0.58389 0.6127 0.44675 0.0
O920 O 0.59329 0.76076 0.54383 0.0
O921 O 0.53327 0.70985 0.49345 0.0
O922 O 0.68241 0.72807 0.56475 0.0
O923 O 0.67578 0.70411 0.63654 0.0
O924 O 0.55653 0.64288 0.58073 0.0
O925 O 0.57322 0.71109 0.62575 0.0
O926 O 0.56436 0.5598 0.53256 0.0
O927 O 0.6201 0.61109 0.58861 0.0
H928 H 0.43972 0.68149 0.42065 0.0
H929 H 0.39975 0.73409 0.44895 0.0
H930 H 0.36982 0.63604 0.55778 0.0
H931 H 0.40814 0.5826 0.52844 0.0
H932 H 0.69628 0.62025 0.6299 0.0
H933 H 0.73734 0.56593 0.6085 0.0
H934 H 0.81258 0.68521 0.54932 0.0
H935 H 0.77012 0.73882 0.56862 0.0
Pr936 Pr 0.1331 0.67718 0.03023 0.0
Pr937 Pr 0.0567 0.65448 0.05529 0.0
C938 C 0.20781 0.67752 0.01308 0.0
C939 C 0.23463 0.64404 0.02162 0.0
C940 C 0.27671 0.66408 0.0431 0.0
C941 C 0.30227 0.63335 0.05673 0.0
C942 C 0.28632 0.58178 0.04874 0.0
C943 C 0.24414 0.56158 0.02667 0.0
C944 C 0.21836 0.59253 0.01349 0.0
C945 C 0.08556 0.73637 0.98164 0.0
C946 C 0.0666 0.56697 0.98442 0.0
C947 C 0.98314 0.65112 0.07763 0.0
C948 C 0.95284 0.68038 0.07488 0.0
C949 C 0.93093 0.67935 0.11225 0.0
C950 C 0.8978 0.70045 0.10744 0.0
C951 C 0.88583 0.72301 0.06505 0.0
C952 C 0.90958 0.7271 0.02903 0.0
C953 C 0.94291 0.70571 0.03384 0.0
C954 C 0.10969 0.60136 0.10696 0.0
C955 C 0.11986 0.76394 0.09949 0.0
O956 O 0.20289 0.69934 0.05311 0.0
O957 O 0.17359 0.66258 0.97894 0.0
O958 O 0.07089 0.69068 0.98517 0.0
O959 O 0.12512 0.74973 0.99917 0.0
O960 O 0.03796 0.58566 0.99646 0.0
O961 O 0.10565 0.59322 0.99589 0.0
O962 O 0.98703 0.6319 0.0357 0.0
O963 O 1.01828 0.66739 0.11008 0.0
O964 O 0.12045 0.64677 0.10179 0.0
O965 O 0.07057 0.58353 0.08833 0.0
O966 O 0.14874 0.74304 0.09192 0.0
O967 O 0.08065 0.73967 0.08391 0.0
H968 H 0.28968 0.70366 0.0503 0.0
H969 H 0.33466 0.65018 0.07352 0.0
H970 H 0.23104 0.52202 0.02 0.0
H971 H 0.18571 0.57623 0.9977 0.0
H972 H 0.93828 0.66032 0.14425 0.0
H973 H 0.88045 0.69735 0.13624 0.0
H974 H 0.90104 0.74425 0.99606 0.0
H975 H 0.95976 0.70721 1.00464 0.0
loop_
_geom_bond_atom_site_label_1
_geom_bond_atom_site_label_2
_geom_bond_distance
_geom_bond_site_symmetry_2
_ccdc_geom_bond_type
C0 O1 1.306 . S
C0 O3 1.160 . S
O1 C0 1.306 . S
O1 Cd2 2.228 1_655 S
Cd2 O1 2.228 1_455 S
Cd2 O6 2.273 . S
Cd2 O10 2.277 . S
O3 C0 1.160 . S
O3 Cd4 2.203 1_655 S
Cd4 O3 2.203 1_455 S
Cd4 O6 2.411 . S
Cd4 O7 2.333 . S
Cd4 O8 2.352 1_455 S
Cd4 O12 2.277 . S
Cd4 O13 2.356 . S
C5 O10 1.209 . S
C5 O12 1.226 . S
O6 Cd2 2.273 . S
O6 Cd4 2.411 . S
O6 C9 1.320 . S
O7 Cd4 2.333 . S
O7 C9 1.214 . S
O8 Cd4 2.352 1_655 S
O8 C11 1.258 . S
C9 O6 1.320 . S
C9 O7 1.214 . S
O10 Cd2 2.277 . S
O10 C5 1.209 . S
C11 O8 1.258 . S
C11 O13 1.282 1_655 S
O12 Cd4 2.277 . S
O12 C5 1.226 . S
O13 Cd4 2.356 . S
O13 C11 1.282 1_455 S
C14 O15 1.306 . S
C14 O17 1.160 . S
O15 C14 1.306 . S
O15 Cd16 2.228 . S
Cd16 O15 2.228 . S
Cd16 O20 2.273 . S
Cd16 O24 2.277 . S
O17 C14 1.160 . S
O17 Cd18 2.203 . S
Cd18 O17 2.203 . S
Cd18 O20 2.411 . S
Cd18 O21 2.333 . S
Cd18 O22 2.352 . S
Cd18 O26 2.277 . S
Cd18 O27 2.356 . S
C19 O24 1.209 . S
C19 O26 1.226 . S
O20 Cd16 2.273 . S
O20 Cd18 2.411 . S
O20 C23 1.320 . S
O21 Cd18 2.333 . S
O21 C23 1.214 . S
O22 Cd18 2.352 . S
O22 C25 1.258 . S
C23 O20 1.320 . S
C23 O21 1.214 . S
O24 Cd16 2.277 . S
O24 C19 1.209 . S
C25 O22 1.258 . S
C25 O27 1.282 . S
O26 Cd18 2.277 . S
O26 C19 1.226 . S
O27 Cd18 2.356 . S
O27 C25 1.282 . S
C28 O29 1.306 . S
C28 O31 1.160 . S
O29 C28 1.306 . S
O29 Cd30 2.228 . S
Cd30 O29 2.228 . S
Cd30 O34 2.273 . S
Cd30 O38 2.277 . S
O31 C28 1.160 . S
O31 Cd32 2.203 . S
Cd32 O31 2.203 . S
Cd32 O34 2.411 . S
Cd32 O35 2.333 . S
Cd32 O36 2.352 . S
Cd32 O40 2.277 . S
Cd32 O41 2.356 . S
C33 O38 1.209 . S
C33 O40 1.226 . S
O34 Cd30 2.273 . S
O34 Cd32 2.411 . S
O34 C37 1.320 . S
O35 Cd32 2.333 . S
O35 C37 1.214 . S
O36 Cd32 2.352 . S
O36 C39 1.258 . S
C37 O34 1.320 . S
C37 O35 1.214 . S
O38 Cd30 2.277 . S
O38 C33 1.209 . S
C39 O36 1.258 . S
C39 O41 1.282 . S
O40 Cd32 2.277 . S
O40 C33 1.226 . S
O41 Cd32 2.356 . S
O41 C39 1.282 . S
C42 O43 1.306 . S
C42 O45 1.160 . S
O43 C42 1.306 . S
O43 Cd44 2.228 . S
Cd44 O43 2.228 . S
Cd44 O48 2.273 . S
Cd44 O52 2.277 . S
O45 C42 1.160 . S
O45 Cd46 2.203 . S
Cd46 O45 2.203 . S
Cd46 O48 2.411 . S
Cd46 O49 2.333 . S
Cd46 O50 2.352 . S
Cd46 O54 2.277 . S
Cd46 O55 2.356 . S
C47 O52 1.209 . S
C47 O54 1.226 . S
O48 Cd44 2.273 . S
O48 Cd46 2.411 . S
O48 C51 1.320 . S
O49 Cd46 2.333 . S
O49 C51 1.214 . S
O50 Cd46 2.352 . S
O50 C53 1.258 . S
C51 O48 1.320 . S
C51 O49 1.214 . S
O52 Cd44 2.277 . S
O52 C47 1.209 . S
C53 O50 1.258 . S
C53 O55 1.282 . S
O54 Cd46 2.277 . S
O54 C47 1.226 . S
O55 Cd46 2.356 . S
O55 C53 1.282 . S
C56 O57 1.306 . S
C56 O59 1.160 . S
O57 C56 1.306 . S
O57 Cd58 2.228 . S
Cd58 O57 2.228 . S
Cd58 O62 2.273 . S
Cd58 O66 2.277 . S
O59 C56 1.160 . S
O59 Cd60 2.203 . S
Cd60 O59 2.203 . S
Cd60 O62 2.411 . S
Cd60 O63 2.333 . S
Cd60 O64 2.352 . S
Cd60 O68 2.277 . S
Cd60 O69 2.356 . S
C61 O66 1.209 . S
C61 O68 1.226 . S
O62 Cd58 2.273 . S
O62 Cd60 2.411 . S
O62 C65 1.320 . S
O63 Cd60 2.333 . S
O63 C65 1.214 . S
O64 Cd60 2.352 . S
O64 C67 1.258 . S
C65 O62 1.320 . S
C65 O63 1.214 . S
O66 Cd58 2.277 . S
O66 C61 1.209 . S
C67 O64 1.258 . S
C67 O69 1.282 . S
O68 Cd60 2.277 . S
O68 C61 1.226 . S
O69 Cd60 2.356 . S
O69 C67 1.282 . S
C70 O71 1.306 . S
C70 O73 1.160 . S
O71 C70 1.306 . S
O71 Cd72 2.228 . S
Cd72 O71 2.228 . S
Cd72 O76 2.273 . S
Cd72 O80 2.277 . S
O73 C70 1.160 . S
O73 Cd74 2.203 . S
Cd74 O73 2.203 . S
Cd74 O76 2.411 . S
Cd74 O77 2.333 . S
Cd74 O78 2.352 . S
Cd74 O82 2.277 . S
Cd74 O83 2.356 . S
C75 O80 1.209 . S
C75 O82 1.226 . S
O76 Cd72 2.273 . S
O76 Cd74 2.411 . S
O76 C79 1.320 . S
O77 Cd74 2.333 . S
O77 C79 1.214 . S
O78 Cd74 2.352 . S
O78 C81 1.258 . S
C79 O76 1.320 . S
C79 O77 1.214 . S
O80 Cd72 2.277 . S
O80 C75 1.209 . S
C81 O78 1.258 . S
C81 O83 1.282 . S
O82 Cd74 2.277 . S
O82 C75 1.226 . S
O83 Cd74 2.356 . S
O83 C81 1.282 . S
C84 O85 1.306 . S
C84 O87 1.160 . S
O85 C84 1.306 . S
O85 Cd86 2.228 . S
Cd86 O85 2.228 . S
Cd86 O90 2.273 . S
Cd86 O94 2.277 . S
O87 C84 1.160 . S
O87 Cd88 2.203 . S
Cd88 O87 2.203 . S
Cd88 O90 2.411 . S
Cd88 O91 2.333 . S
Cd88 O92 2.352 . S
Cd88 O96 2.277 . S
Cd88 O97 2.356 . S
C89 O94 1.209 . S
C89 O96 1.226 . S
O90 Cd86 2.273 . S
O90 Cd88 2.411 . S
O90 C93 1.320 . S
O91 Cd88 2.333 . S
O91 C93 1.214 . S
O92 Cd88 2.352 . S
O92 C95 1.258 . S
C93 O90 1.320 . S
C93 O91 1.214 . S
O94 Cd86 2.277 . S
O94 C89 1.209 . S
C95 O92 1.258 . S
C95 O97 1.282 . S
O96 Cd88 2.277 . S
O96 C89 1.226 . S
O97 Cd88 2.356 . S
O97 C95 1.282 . S
C98 O99 1.306 . S
C98 O101 1.160 . S
O99 C98 1.306 . S
O99 Cd100 2.228 1_655 S
Cd100 O99 2.228 1_455 S
Cd100 O104 2.273 . S
Cd100 O108 2.277 . S
O101 C98 1.160 . S
O101 Cd102 2.203 1_655 S
Cd102 O101 2.203 1_455 S
Cd102 O104 2.411 . S
Cd102 O105 2.333 . S
Cd102 O106 2.352 1_455 S
Cd102 O110 2.277 . S
Cd102 O111 2.356 . S
C103 O108 1.209 . S
C103 O110 1.226 . S
O104 Cd100 2.273 . S
O104 Cd102 2.411 . S
O104 C107 1.320 . S
O105 Cd102 2.333 . S
O105 C107 1.214 . S
O106 Cd102 2.352 1_655 S
O106 C109 1.258 1_655 S
C107 O104 1.320 . S
C107 O105 1.214 . S
O108 Cd100 2.277 . S
O108 C103 1.209 . S
C109 O106 1.258 1_455 S
C109 O111 1.282 . S
O110 Cd102 2.277 . S
O110 C103 1.226 . S
O111 Cd102 2.356 . S
O111 C109 1.282 . S
C112 O113 1.306 . S
C112 O115 1.160 . S
O113 C112 1.306 . S
O113 Cd114 2.228 . S
Cd114 O113 2.228 . S
Cd114 O118 2.273 . S
Cd114 O122 2.277 . S
O115 C112 1.160 . S
O115 Cd116 2.203 . S
Cd116 O115 2.203 . S
Cd116 O118 2.411 . S
Cd116 O119 2.333 . S
Cd116 O120 2.352 . S
Cd116 O124 2.277 . S
Cd116 O125 2.356 . S
C117 O122 1.209 . S
C117 O124 1.226 . S
O118 Cd114 2.273 . S
O118 Cd116 2.411 . S
O118 C121 1.320 . S
O119 Cd116 2.333 . S
O119 C121 1.214 . S
O120 Cd116 2.352 . S
O120 C123 1.258 . S
C121 O118 1.320 . S
C121 O119 1.214 . S
O122 Cd114 2.277 . S
O122 C117 1.209 . S
C123 O120 1.258 . S
C123 O125 1.282 . S
O124 Cd116 2.277 . S
O124 C117 1.226 . S
O125 Cd116 2.356 . S
O125 C123 1.282 . S
C126 O127 1.306 . S
C126 O129 1.160 . S
O127 C126 1.306 . S
O127 Cd128 2.228 . S
Cd128 O127 2.228 . S
Cd128 O132 2.273 . S
Cd128 O136 2.277 . S
O129 C126 1.160 . S
O129 Cd130 2.203 . S
Cd130 O129 2.203 . S
Cd130 O132 2.411 . S
Cd130 O133 2.333 . S
Cd130 O134 2.352 . S
Cd130 O138 2.277 . S
Cd130 O139 2.356 . S
C131 O136 1.209 . S
C131 O138 1.226 . S
O132 Cd128 2.273 . S
O132 Cd130 2.411 . S
O132 C135 1.320 . S
O133 Cd130 2.333 . S
O133 C135 1.214 . S
O134 Cd130 2.352 . S
O134 C137 1.258 . S
C135 O132 1.320 . S
C135 O133 1.214 . S
O136 Cd128 2.277 . S
O136 C131 1.209 . S
C137 O134 1.258 . S
C137 O139 1.282 . S
O138 Cd130 2.277 . S
O138 C131 1.226 . S
O139 Cd130 2.356 . S
O139 C137 1.282 . S
C140 O141 1.306 . S
C140 O143 1.160 . S
O141 C140 1.306 . S
O141 Cd142 2.228 . S
Cd142 O141 2.228 . S
Cd142 O146 2.273 . S
Cd142 O150 2.277 . S
O143 C140 1.160 . S
O143 Cd144 2.203 . S
Cd144 O143 2.203 . S
Cd144 O146 2.411 . S
Cd144 O147 2.333 . S
Cd144 O148 2.352 . S
Cd144 O152 2.277 . S
Cd144 O153 2.356 . S
C145 O150 1.209 . S
C145 O152 1.226 . S
O146 Cd142 2.273 . S
O146 Cd144 2.411 . S
O146 C149 1.320 . S
O147 Cd144 2.333 . S
O147 C149 1.214 . S
O148 Cd144 2.352 . S
O148 C151 1.258 . S
C149 O146 1.320 . S
C149 O147 1.214 . S
O150 Cd142 2.277 . S
O150 C145 1.209 . S
C151 O148 1.258 . S
C151 O153 1.282 . S
O152 Cd144 2.277 . S
O152 C145 1.226 . S
O153 Cd144 2.356 . S
O153 C151 1.282 . S
C154 O155 1.306 . S
C154 O157 1.160 . S
O155 C154 1.306 . S
O155 Cd156 2.228 1_554 S
Cd156 O155 2.228 1_556 S
Cd156 O160 2.273 1_556 S
Cd156 O164 2.277 1_545 S
O157 C154 1.160 . S
O157 Cd158 2.203 1_545 S
Cd158 O157 2.203 1_565 S
Cd158 O160 2.411 1_565 S
Cd158 O161 2.333 . S
Cd158 O162 2.352 . S
Cd158 O166 2.277 1_554 S
Cd158 O167 2.356 . S
C159 O164 1.209 . S
C159 O166 1.226 . S
O160 Cd156 2.273 1_554 S
O160 Cd158 2.411 1_545 S
O160 C163 1.320 . S
O161 Cd158 2.333 . S
O161 C163 1.214 1_565 S
O162 Cd158 2.352 . S
O162 C165 1.258 . S
C163 O160 1.320 . S
C163 O161 1.214 1_545 S
O164 Cd156 2.277 1_565 S
O164 C159 1.209 . S
C165 O162 1.258 . S
C165 O167 1.282 . S
O166 Cd158 2.277 1_556 S
O166 C159 1.226 . S
O167 Cd158 2.356 . S
O167 C165 1.282 . S
C168 O169 1.306 . S
C168 O171 1.160 . S
O169 C168 1.306 . S
O169 Cd170 2.228 1_554 S
Cd170 O169 2.228 1_556 S
Cd170 O174 2.273 1_556 S
Cd170 O178 2.277 . S
O171 C168 1.160 . S
O171 Cd172 2.203 . S
Cd172 O171 2.203 . S
Cd172 O174 2.411 . S
Cd172 O175 2.333 . S
Cd172 O176 2.352 . S
Cd172 O180 2.277 1_554 S
Cd172 O181 2.356 . S
C173 O178 1.209 . S
C173 O180 1.226 . S
O174 Cd170 2.273 1_554 S
O174 Cd172 2.411 . S
O174 C177 1.320 . S
O175 Cd172 2.333 . S
O175 C177 1.214 . S
O176 Cd172 2.352 . S
O176 C179 1.258 . S
C177 O174 1.320 . S
C177 O175 1.214 . S
O178 Cd170 2.277 . S
O178 C173 1.209 . S
C179 O176 1.258 . S
C179 O181 1.282 . S
O180 Cd172 2.277 1_556 S
O180 C173 1.226 . S
O181 Cd172 2.356 . S
O181 C179 1.282 . S
C182 O183 1.306 . S
C182 O185 1.160 . S
O183 C182 1.306 . S
O183 Cd184 2.228 . S
Cd184 O183 2.228 . S
Cd184 O188 2.273 1_554 S
Cd184 O192 2.277 . S
O185 C182 1.160 . S
O185 Cd186 2.203 1_554 S
Cd186 O185 2.203 1_556 S
Cd186 O188 2.411 . S
Cd186 O189 2.333 . S
Cd186 O190 2.352 . S
Cd186 O194 2.277 1_556 S
Cd186 O195 2.356 . S
C187 O192 1.209 . S
C187 O194 1.226 . S
O188 Cd184 2.273 1_556 S
O188 Cd186 2.411 . S
O188 C191 1.320 . S
O189 Cd186 2.333 . S
O189 C191 1.214 . S
O190 Cd186 2.352 . S
O190 C193 1.258 . S
C191 O188 1.320 . S
C191 O189 1.214 . S
O192 Cd184 2.277 . S
O192 C187 1.209 . S
C193 O190 1.258 . S
C193 O195 1.282 . S
O194 Cd186 2.277 1_554 S
O194 C187 1.226 . S
O195 Cd186 2.356 . S
O195 C193 1.282 . S
C196 O197 1.306 . S
C196 O199 1.160 . S
O197 C196 1.306 . S
O197 Cd198 2.228 . S
Cd198 O197 2.228 . S
Cd198 O202 2.273 . S
Cd198 O206 2.277 . S
O199 C196 1.160 . S
O199 Cd200 2.203 . S
Cd200 O199 2.203 . S
Cd200 O202 2.411 . S
Cd200 O203 2.333 . S
Cd200 O204 2.352 . S
Cd200 O208 2.277 . S
Cd200 O209 2.356 . S
C201 O206 1.209 . S
C201 O208 1.226 . S
O202 Cd198 2.273 . S
O202 Cd200 2.411 . S
O202 C205 1.320 . S
O203 Cd200 2.333 . S
O203 C205 1.214 . S
O204 Cd200 2.352 . S
O204 C207 1.258 . S
C205 O202 1.320 . S
C205 O203 1.214 . S
O206 Cd198 2.277 . S
O206 C201 1.209 . S
C207 O204 1.258 . S
C207 O209 1.282 . S
O208 Cd200 2.277 . S
O208 C201 1.226 . S
O209 Cd200 2.356 . S
O209 C207 1.282 . S
C210 O211 1.306 . S
C210 O213 1.160 . S
O211 C210 1.306 . S
O211 Cd212 2.228 . S
Cd212 O211 2.228 . S
Cd212 O216 2.273 . S
Cd212 O220 2.277 1_545 S
O213 C210 1.160 . S
O213 Cd214 2.203 1_545 S
Cd214 O213 2.203 1_565 S
Cd214 O216 2.411 1_565 S
Cd214 O217 2.333 . S
Cd214 O218 2.352 . S
Cd214 O222 2.277 . S
Cd214 O223 2.356 . S
C215 O220 1.209 . S
C215 O222 1.226 . S
O216 Cd212 2.273 . S
O216 Cd214 2.411 1_545 S
O216 C219 1.320 . S
O217 Cd214 2.333 . S
O217 C219 1.214 1_565 S
O218 Cd214 2.352 . S
O218 C221 1.258 . S
C219 O216 1.320 . S
C219 O217 1.214 1_545 S
O220 Cd212 2.277 1_565 S
O220 C215 1.209 . S
C221 O218 1.258 . S
C221 O223 1.282 . S
O222 Cd214 2.277 . S
O222 C215 1.226 . S
O223 Cd214 2.356 . S
O223 C221 1.282 . S
C224 O225 1.306 . S
C224 O227 1.160 . S
O225 C224 1.306 . S
O225 Cd226 2.228 1_545 S
Cd226 O225 2.228 1_565 S
Cd226 O230 2.273 1_565 S
Cd226 O234 2.277 . S
O227 C224 1.160 . S
O227 Cd228 2.203 . S
Cd228 O227 2.203 . S
Cd228 O230 2.411 . S
Cd228 O231 2.333 . S
Cd228 O232 2.352 . S
Cd228 O236 2.277 1_545 S
Cd228 O237 2.356 . S
C229 O234 1.209 . S
C229 O236 1.226 . S
O230 Cd226 2.273 1_545 S
O230 Cd228 2.411 . S
O230 C233 1.320 . S
O231 Cd228 2.333 . S
O231 C233 1.214 . S
O232 Cd228 2.352 . S
O232 C235 1.258 . S
C233 O230 1.320 . S
C233 O231 1.214 . S
O234 Cd226 2.277 . S
O234 C229 1.209 . S
C235 O232 1.258 . S
C235 O237 1.282 . S
O236 Cd228 2.277 1_565 S
O236 C229 1.226 . S
O237 Cd228 2.356 . S
O237 C235 1.282 . S
C238 O239 1.306 . S
C238 O241 1.160 . S
O239 C238 1.306 . S
O239 Cd240 2.228 . S
Cd240 O239 2.228 . S
Cd240 O244 2.273 . S
Cd240 O248 2.277 . S
O241 C238 1.160 . S
O241 Cd242 2.203 . S
Cd242 O241 2.203 . S
Cd242 O244 2.411 . S
Cd242 O245 2.333 . S
Cd242 O246 2.352 . S
Cd242 O250 2.277 . S
Cd242 O251 2.356 . S
C243 O248 1.209 . S
C243 O250 1.226 . S
O244 Cd240 2.273 . S
O244 Cd242 2.411 . S
O244 C247 1.320 . S
O245 Cd242 2.333 . S
O245 C247 1.214 . S
O246 Cd242 2.352 . S
O246 C249 1.258 . S
C247 O244 1.320 . S
C247 O245 1.214 . S
O248 Cd240 2.277 . S
O248 C243 1.209 . S
C249 O246 1.258 . S
C249 O251 1.282 . S
O250 Cd242 2.277 . S
O250 C243 1.226 . S
O251 Cd242 2.356 . S
O251 C249 1.282 . S
C252 O253 1.306 . S
C252 O255 1.160 . S
O253 C252 1.306 . S
O253 Cd254 2.228 . S
Cd254 O253 2.228 . S
Cd254 O258 2.273 . S
Cd254 O262 2.277 . S
O255 C252 1.160 . S
O255 Cd256 2.203 . S
Cd256 O255 2.203 . S
Cd256 O258 2.411 . S
Cd256 O259 2.333 . S
Cd256 O260 2.352 . S
Cd256 O264 2.277 . S
Cd256 O265 2.356 . S
C257 O262 1.209 . S
C257 O264 1.226 . S
O258 Cd254 2.273 . S
O258 Cd256 2.411 . S
O258 C261 1.320 . S
O259 Cd256 2.333 . S
O259 C261 1.214 . S
O260 Cd256 2.352 . S
O260 C263 1.258 . S
C261 O258 1.320 . S
C261 O259 1.214 . S
O262 Cd254 2.277 . S
O262 C257 1.209 . S
C263 O260 1.258 . S
C263 O265 1.282 . S
O264 Cd256 2.277 . S
O264 C257 1.226 . S
O265 Cd256 2.356 . S
O265 C263 1.282 . S
C266 O267 1.306 . S
C266 O269 1.160 . S
O267 C266 1.306 . S
O267 Cd268 2.228 . S
Cd268 O267 2.228 . S
Cd268 O272 2.273 1_545 S
Cd268 O276 2.277 . S
O269 C266 1.160 . S
O269 Cd270 2.203 1_545 S
Cd270 O269 2.203 1_565 S
Cd270 O272 2.411 . S
Cd270 O273 2.333 . S
Cd270 O274 2.352 . S
Cd270 O278 2.277 1_565 S
Cd270 O279 2.356 . S
C271 O276 1.209 . S
C271 O278 1.226 . S
O272 Cd268 2.273 1_565 S
O272 Cd270 2.411 . S
O272 C275 1.320 . S
O273 Cd270 2.333 . S
O273 C275 1.214 . S
O274 Cd270 2.352 . S
O274 C277 1.258 . S
C275 O272 1.320 . S
C275 O273 1.214 . S
O276 Cd268 2.277 . S
O276 C271 1.209 . S
C277 O274 1.258 . S
C277 O279 1.282 . S
O278 Cd270 2.277 1_545 S
O278 C271 1.226 . S
O279 Cd270 2.356 . S
O279 C277 1.282 . S
C280 O281 1.306 . S
C280 O283 1.160 . S
O281 C280 1.306 . S
O281 Cd282 2.228 . S
Cd282 O281 2.228 . S
Cd282 O286 2.273 . S
Cd282 O290 2.277 . S
O283 C280 1.160 . S
O283 Cd284 2.203 . S
Cd284 O283 2.203 . S
Cd284 O286 2.411 . S
Cd284 O287 2.333 1_554 S
Cd284 O288 2.352 1_554 S
Cd284 O292 2.277 . S
Cd284 O293 2.356 1_554 S
C285 O290 1.209 . S
C285 O292 1.226 . S
O286 Cd282 2.273 . S
O286 Cd284 2.411 . S
O286 C289 1.320 1_554 S
O287 Cd284 2.333 1_556 S
O287 C289 1.214 . S
O288 Cd284 2.352 1_556 S
O288 C291 1.258 . S
C289 O286 1.320 1_556 S
C289 O287 1.214 . S
O290 Cd282 2.277 . S
O290 C285 1.209 . S
C291 O288 1.258 . S
C291 O293 1.282 . S
O292 Cd284 2.277 . S
O292 C285 1.226 . S
O293 Cd284 2.356 1_556 S
O293 C291 1.282 . S
C294 O295 1.306 . S
C294 O297 1.160 . S
O295 C294 1.306 . S
O295 Cd296 2.228 . S
Cd296 O295 2.228 . S
Cd296 O300 2.273 . S
Cd296 O304 2.277 1_455 S
O297 C294 1.160 . S
O297 Cd298 2.203 1_455 S
Cd298 O297 2.203 1_655 S
Cd298 O300 2.411 1_655 S
Cd298 O301 2.333 . S
Cd298 O302 2.352 1_655 S
Cd298 O306 2.277 . S
Cd298 O307 2.356 . S
C299 O304 1.209 . S
C299 O306 1.226 . S
O300 Cd296 2.273 . S
O300 Cd298 2.411 1_455 S
O300 C303 1.320 . S
O301 Cd298 2.333 . S
O301 C303 1.214 1_655 S
O302 Cd298 2.352 1_455 S
O302 C305 1.258 1_455 S
C303 O300 1.320 . S
C303 O301 1.214 1_455 S
O304 Cd296 2.277 1_655 S
O304 C299 1.209 . S
C305 O302 1.258 1_655 S
C305 O307 1.282 . S
O306 Cd298 2.277 . S
O306 C299 1.226 . S
O307 Cd298 2.356 . S
O307 C305 1.282 . S
C308 O309 1.306 . S
C308 O311 1.160 . S
O309 C308 1.306 . S
O309 Cd310 2.228 . S
Cd310 O309 2.228 . S
Cd310 O314 2.273 . S
Cd310 O318 2.277 . S
O311 C308 1.160 . S
O311 Cd312 2.203 . S
Cd312 O311 2.203 . S
Cd312 O314 2.411 . S
Cd312 O315 2.333 . S
Cd312 O316 2.352 . S
Cd312 O320 2.277 . S
Cd312 O321 2.356 . S
C313 O318 1.209 . S
C313 O320 1.226 . S
O314 Cd310 2.273 . S
O314 Cd312 2.411 . S
O314 C317 1.320 . S
O315 Cd312 2.333 . S
O315 C317 1.214 . S
O316 Cd312 2.352 . S
O316 C319 1.258 . S
C317 O314 1.320 . S
C317 O315 1.214 . S
O318 Cd310 2.277 . S
O318 C313 1.209 . S
C319 O316 1.258 . S
C319 O321 1.282 . S
O320 Cd312 2.277 . S
O320 C313 1.226 . S
O321 Cd312 2.356 . S
O321 C319 1.282 . S
C322 O323 1.306 . S
C322 O325 1.160 . S
O323 C322 1.306 . S
O323 Cd324 2.228 . S
Cd324 O323 2.228 . S
Cd324 O328 2.273 . S
Cd324 O332 2.277 . S
O325 C322 1.160 . S
O325 Cd326 2.203 . S
Cd326 O325 2.203 . S
Cd326 O328 2.411 . S
Cd326 O329 2.333 . S
Cd326 O330 2.352 . S
Cd326 O334 2.277 . S
Cd326 O335 2.356 . S
C327 O332 1.209 . S
C327 O334 1.226 . S
O328 Cd324 2.273 . S
O328 Cd326 2.411 . S
O328 C331 1.320 . S
O329 Cd326 2.333 . S
O329 C331 1.214 . S
O330 Cd326 2.352 . S
O330 C333 1.258 . S
C331 O328 1.320 . S
C331 O329 1.214 . S
O332 Cd324 2.277 . S
O332 C327 1.209 . S
C333 O330 1.258 . S
C333 O335 1.282 . S
O334 Cd326 2.277 . S
O334 C327 1.226 . S
O335 Cd326 2.356 . S
O335 C333 1.282 . S
Pr336 C338 2.880 1_455 S
Pr336 O356 2.562 1_455 S
Pr336 O357 2.490 1_455 S
Pr336 O358 2.695 . S
Pr336 O359 2.512 . S
Pr336 O361 2.437 . S
Pr336 O364 2.436 1_556 S
Pr336 O366 2.438 . S
Pr337 C347 2.880 . S
Pr337 O358 2.436 1_554 S
Pr337 O360 2.438 . S
Pr337 O362 2.562 . S
Pr337 O363 2.490 . S
Pr337 O364 2.695 . S
Pr337 O365 2.512 . S
Pr337 O367 2.437 . S
C338 Pr336 2.880 1_655 S
C338 C339 1.491 . S
C338 O356 1.254 . S
C338 O357 1.225 . S
C339 C338 1.491 . S
C339 C340 1.392 . S
C339 C344 1.356 . S
C340 C339 1.392 . S
C340 C341 1.368 . S
C340 H368 0.929 . S
C341 C340 1.368 . S
C341 C342 1.386 . S
C341 H369 0.929 . S
C342 C341 1.386 . S
C342 C343 1.373 . S
C343 C342 1.373 . S
C343 C344 1.409 . S
C343 H370 0.931 . S
C344 C339 1.356 . S
C344 C343 1.409 . S
C344 H371 0.930 . S
C345 O358 1.270 . S
C345 O359 1.248 . S
C346 O360 1.267 . S
C346 O361 1.278 1_554 S
C347 Pr337 2.880 . S
C347 C348 1.491 . S
C347 O362 1.254 . S
C347 O363 1.225 . S
C348 C347 1.491 . S
C348 C349 1.392 . S
C348 C353 1.356 . S
C349 C348 1.392 . S
C349 C350 1.368 . S
C349 H372 0.929 . S
C350 C349 1.368 . S
C350 C351 1.386 . S
C350 H373 0.929 . S
C351 C350 1.386 . S
C351 C352 1.373 . S
C352 C351 1.373 . S
C352 C353 1.409 . S
C352 H374 0.931 . S
C353 C348 1.356 . S
C353 C352 1.409 . S
C353 H375 0.930 . S
C354 O364 1.270 . S
C354 O365 1.248 . S
C355 O366 1.267 1_554 S
C355 O367 1.278 . S
O356 Pr336 2.562 1_655 S
O356 C338 1.254 . S
O357 Pr336 2.490 1_655 S
O357 C338 1.225 . S
O358 Pr336 2.695 . S
O358 Pr337 2.436 1_556 S
O358 C345 1.270 . S
O359 Pr336 2.512 . S
O359 C345 1.248 . S
O360 Pr337 2.438 . S
O360 C346 1.267 . S
O361 Pr336 2.437 . S
O361 C346 1.278 1_556 S
O362 Pr337 2.562 . S
O362 C347 1.254 . S
O363 Pr337 2.490 . S
O363 C347 1.225 . S
O364 Pr336 2.436 1_554 S
O364 Pr337 2.695 . S
O364 C354 1.270 . S
O365 Pr337 2.512 . S
O365 C354 1.248 . S
O366 Pr336 2.438 . S
O366 C355 1.267 1_556 S
O367 Pr337 2.437 . S
O367 C355 1.278 . S
H368 C340 0.929 . S
H369 C341 0.929 . S
H370 C343 0.931 . S
H371 C344 0.930 . S
H372 C349 0.929 . S
H373 C350 0.929 . S
H374 C352 0.931 . S
H375 C353 0.930 . S
Pr376 C378 2.880 1_565 S
Pr376 O396 2.562 1_565 S
Pr376 O397 2.490 1_565 S
Pr376 O398 2.695 . S
Pr376 O399 2.512 . S
Pr376 O401 2.437 . S
Pr376 O404 2.436 . S
Pr376 O406 2.438 . S
Pr377 C387 2.880 . S
Pr377 O398 2.436 . S
Pr377 O400 2.438 . S
Pr377 O402 2.562 . S
Pr377 O403 2.490 . S
Pr377 O404 2.695 . S
Pr377 O405 2.512 . S
Pr377 O407 2.437 . S
C378 Pr376 2.880 1_545 S
C378 C379 1.491 . S
C378 O396 1.254 . S
C378 O397 1.225 . S
C379 C378 1.491 . S
C379 C380 1.392 . S
C379 C384 1.356 . S
C380 C379 1.392 . S
C380 C381 1.368 . S
C380 H408 0.929 . S
C381 C380 1.368 . S
C381 C382 1.386 . S
C381 H409 0.929 . S
C382 C381 1.386 . S
C382 C383 1.373 . S
C383 C382 1.373 . S
C383 C384 1.409 . S
C383 H410 0.931 . S
C384 C379 1.356 . S
C384 C383 1.409 . S
C384 H411 0.930 . S
C385 O398 1.270 . S
C385 O399 1.248 . S
C386 O400 1.267 . S
C386 O401 1.278 . S
C387 Pr377 2.880 . S
C387 C388 1.491 . S
C387 O402 1.254 . S
C387 O403 1.225 . S
C388 C387 1.491 . S
C388 C389 1.392 . S
C388 C393 1.356 . S
C389 C388 1.392 . S
C389 C390 1.368 . S
C389 H412 0.929 . S
C390 C389 1.368 . S
C390 C391 1.386 . S
C390 H413 0.929 . S
C391 C390 1.386 . S
C391 C392 1.373 . S
C392 C391 1.373 . S
C392 C393 1.409 . S
C392 H414 0.931 . S
C393 C388 1.356 . S
C393 C392 1.409 . S
C393 H415 0.930 . S
C394 O404 1.270 . S
C394 O405 1.248 . S
C395 O406 1.267 . S
C395 O407 1.278 . S
O396 Pr376 2.562 1_545 S
O396 C378 1.254 . S
O397 Pr376 2.490 1_545 S
O397 C378 1.225 . S
O398 Pr376 2.695 . S
O398 Pr377 2.436 . S
O398 C385 1.270 . S
O399 Pr376 2.512 . S
O399 C385 1.248 . S
O400 Pr377 2.438 . S
O400 C386 1.267 . S
O401 Pr376 2.437 . S
O401 C386 1.278 . S
O402 Pr377 2.562 . S
O402 C387 1.254 . S
O403 Pr377 2.490 . S
O403 C387 1.225 . S
O404 Pr376 2.436 . S
O404 Pr377 2.695 . S
O404 C394 1.270 . S
O405 Pr377 2.512 . S
O405 C394 1.248 . S
O406 Pr376 2.438 . S
O406 C395 1.267 . S
O407 Pr377 2.437 . S
O407 C395 1.278 . S
H408 C380 0.929 . S
H409 C381 0.929 . S
H410 C383 0.931 . S
H411 C384 0.930 . S
H412 C389 0.929 . S
H413 C390 0.929 . S
H414 C392 0.931 . S
H415 C393 0.930 . S
Pr416 C418 2.880 . S
Pr416 O436 2.562 . S
Pr416 O437 2.490 . S
Pr416 O438 2.695 . S
Pr416 O439 2.512 . S
Pr416 O441 2.437 . S
Pr416 O444 2.436 . S
Pr416 O446 2.438 . S
Pr417 C427 2.880 . S
Pr417 O438 2.436 . S
Pr417 O440 2.438 . S
Pr417 O442 2.562 . S
Pr417 O443 2.490 . S
Pr417 O444 2.695 . S
Pr417 O445 2.512 . S
Pr417 O447 2.437 . S
C418 Pr416 2.880 . S
C418 C419 1.491 . S
C418 O436 1.254 . S
C418 O437 1.225 . S
C419 C418 1.491 . S
C419 C420 1.392 . S
C419 C424 1.356 . S
C420 C419 1.392 . S
C420 C421 1.368 . S
C420 H448 0.929 . S
C421 C420 1.368 . S
C421 C422 1.386 . S
C421 H449 0.929 . S
C422 C421 1.386 . S
C422 C423 1.373 . S
C423 C422 1.373 . S
C423 C424 1.409 . S
C423 H450 0.931 1_545 S
C424 C419 1.356 . S
C424 C423 1.409 . S
C424 H451 0.930 . S
C425 O438 1.270 . S
C425 O439 1.248 . S
C426 O440 1.267 . S
C426 O441 1.278 . S
C427 Pr417 2.880 . S
C427 C428 1.491 . S
C427 O442 1.254 . S
C427 O443 1.225 . S
C428 C427 1.491 . S
C428 C429 1.392 . S
C428 C433 1.356 . S
C429 C428 1.392 . S
C429 C430 1.368 . S
C429 H452 0.929 . S
C430 C429 1.368 . S
C430 C431 1.386 . S
C430 H453 0.929 . S
C431 C430 1.386 . S
C431 C432 1.373 . S
C432 C431 1.373 . S
C432 C433 1.409 . S
C432 H454 0.931 . S
C433 C428 1.356 . S
C433 C432 1.409 . S
C433 H455 0.930 . S
C434 O444 1.270 . S
C434 O445 1.248 . S
C435 O446 1.267 . S
C435 O447 1.278 . S
O436 Pr416 2.562 . S
O436 C418 1.254 . S
O437 Pr416 2.490 . S
O437 C418 1.225 . S
O438 Pr416 2.695 . S
O438 Pr417 2.436 . S
O438 C425 1.270 . S
O439 Pr416 2.512 . S
O439 C425 1.248 . S
O440 Pr417 2.438 . S
O440 C426 1.267 . S
O441 Pr416 2.437 . S
O441 C426 1.278 . S
O442 Pr417 2.562 . S
O442 C427 1.254 . S
O443 Pr417 2.490 . S
O443 C427 1.225 . S
O444 Pr416 2.436 . S
O444 Pr417 2.695 . S
O444 C434 1.270 . S
O445 Pr417 2.512 . S
O445 C434 1.248 . S
O446 Pr416 2.438 . S
O446 C435 1.267 . S
O447 Pr417 2.437 . S
O447 C435 1.278 . S
H448 C420 0.929 . S
H449 C421 0.929 . S
H450 C423 0.931 1_565 S
H451 C424 0.930 . S
H452 C429 0.929 . S
H453 C430 0.929 . S
H454 C432 0.931 . S
H455 C433 0.930 . S
Pr456 C458 2.880 . S
Pr456 O476 2.562 . S
Pr456 O477 2.490 . S
Pr456 O478 2.695 . S
Pr456 O479 2.512 . S
Pr456 O481 2.437 . S
Pr456 O484 2.436 . S
Pr456 O486 2.438 . S
Pr457 C467 2.880 . S
Pr457 O478 2.436 . S
Pr457 O480 2.438 . S
Pr457 O482 2.562 . S
Pr457 O483 2.490 . S
Pr457 O484 2.695 . S
Pr457 O485 2.512 . S
Pr457 O487 2.437 . S
C458 Pr456 2.880 . S
C458 C459 1.491 . S
C458 O476 1.254 . S
C458 O477 1.225 . S
C459 C458 1.491 . S
C459 C460 1.392 . S
C459 C464 1.356 . S
C460 C459 1.392 . S
C460 C461 1.368 . S
C460 H488 0.929 . S
C461 C460 1.368 . S
C461 C462 1.386 . S
C461 H489 0.929 . S
C462 C461 1.386 . S
C462 C463 1.373 . S
C463 C462 1.373 . S
C463 C464 1.409 . S
C463 H490 0.931 . S
C464 C459 1.356 . S
C464 C463 1.409 . S
C464 H491 0.930 . S
C465 O478 1.270 . S
C465 O479 1.248 . S
C466 O480 1.267 . S
C466 O481 1.278 . S
C467 Pr457 2.880 . S
C467 C468 1.491 . S
C467 O482 1.254 . S
C467 O483 1.225 . S
C468 C467 1.491 . S
C468 C469 1.392 . S
C468 C473 1.356 . S
C469 C468 1.392 . S
C469 C470 1.368 . S
C469 H492 0.929 . S
C470 C469 1.368 . S
C470 C471 1.386 . S
C470 H493 0.929 . S
C471 C470 1.386 . S
C471 C472 1.373 . S
C472 C471 1.373 . S
C472 C473 1.409 . S
C472 H494 0.931 . S
C473 C468 1.356 . S
C473 C472 1.409 . S
C473 H495 0.930 . S
C474 O484 1.270 . S
C474 O485 1.248 . S
C475 O486 1.267 . S
C475 O487 1.278 . S
O476 Pr456 2.562 . S
O476 C458 1.254 . S
O477 Pr456 2.490 . S
O477 C458 1.225 . S
O478 Pr456 2.695 . S
O478 Pr457 2.436 . S
O478 C465 1.270 . S
O479 Pr456 2.512 . S
O479 C465 1.248 . S
O480 Pr457 2.438 . S
O480 C466 1.267 . S
O481 Pr456 2.437 . S
O481 C466 1.278 . S
O482 Pr457 2.562 . S
O482 C467 1.254 . S
O483 Pr457 2.490 . S
O483 C467 1.225 . S
O484 Pr456 2.436 . S
O484 Pr457 2.695 . S
O484 C474 1.270 . S
O485 Pr457 2.512 . S
O485 C474 1.248 . S
O486 Pr456 2.438 . S
O486 C475 1.267 . S
O487 Pr457 2.437 . S
O487 C475 1.278 . S
H488 C460 0.929 . S
H489 C461 0.929 . S
H490 C463 0.931 . S
H491 C464 0.930 . S
H492 C469 0.929 . S
H493 C470 0.929 . S
H494 C472 0.931 . S
H495 C473 0.930 . S
Pr496 C498 2.880 . S
Pr496 O516 2.562 1_455 S
Pr496 O517 2.490 . S
Pr496 O518 2.695 . S
Pr496 O519 2.512 . S
Pr496 O521 2.437 . S
Pr496 O524 2.436 . S
Pr496 O526 2.438 . S
Pr497 C507 2.880 . S
Pr497 O518 2.436 . S
Pr497 O520 2.438 . S
Pr497 O522 2.562 . S
Pr497 O523 2.490 . S
Pr497 O524 2.695 . S
Pr497 O525 2.512 . S
Pr497 O527 2.437 . S
C498 Pr496 2.880 . S
C498 C499 1.491 1_455 S
C498 O516 1.254 1_455 S
C498 O517 1.225 . S
C499 C498 1.491 1_655 S
C499 C500 1.392 1_655 S
C499 C504 1.356 . S
C500 C499 1.392 1_455 S
C500 C501 1.368 1_455 S
C500 H528 0.929 . S
C501 C500 1.368 1_655 S
C501 C502 1.386 . S
C501 H529 0.929 . S
C502 C501 1.386 . S
C502 C503 1.373 . S
C503 C502 1.373 . S
C503 C504 1.409 . S
C503 H530 0.931 . S
C504 C499 1.356 . S
C504 C503 1.409 . S
C504 H531 0.930 . S
C505 O518 1.270 . S
C505 O519 1.248 . S
C506 O520 1.267 . S
C506 O521 1.278 . S
C507 Pr497 2.880 . S
C507 C508 1.491 . S
C507 O522 1.254 . S
C507 O523 1.225 . S
C508 C507 1.491 . S
C508 C509 1.392 . S
C508 C513 1.356 . S
C509 C508 1.392 . S
C509 C510 1.368 . S
C509 H532 0.929 . S
C510 C509 1.368 . S
C510 C511 1.386 . S
C510 H533 0.929 . S
C511 C510 1.386 . S
C511 C512 1.373 . S
C512 C511 1.373 . S
C512 C513 1.409 . S
C512 H534 0.931 . S
C513 C508 1.356 . S
C513 C512 1.409 . S
C513 H535 0.930 . S
C514 O524 1.270 1_655 S
C514 O525 1.248 1_655 S
C515 O526 1.267 . S
C515 O527 1.278 . S
O516 Pr496 2.562 1_655 S
O516 C498 1.254 1_655 S
O517 Pr496 2.490 . S
O517 C498 1.225 . S
O518 Pr496 2.695 . S
O518 Pr497 2.436 . S
O518 C505 1.270 . S
O519 Pr496 2.512 . S
O519 C505 1.248 . S
O520 Pr497 2.438 . S
O520 C506 1.267 . S
O521 Pr496 2.437 . S
O521 C506 1.278 . S
O522 Pr497 2.562 . S
O522 C507 1.254 . S
O523 Pr497 2.490 . S
O523 C507 1.225 . S
O524 Pr496 2.436 . S
O524 Pr497 2.695 . S
O524 C514 1.270 1_455 S
O525 Pr497 2.512 . S
O525 C514 1.248 1_455 S
O526 Pr496 2.438 . S
O526 C515 1.267 . S
O527 Pr497 2.437 . S
O527 C515 1.278 . S
H528 C500 0.929 . S
H529 C501 0.929 . S
H530 C503 0.931 . S
H531 C504 0.930 . S
H532 C509 0.929 . S
H533 C510 0.929 . S
H534 C512 0.931 . S
H535 C513 0.930 . S
Pr536 C538 2.880 . S
Pr536 O556 2.562 . S
Pr536 O557 2.490 . S
Pr536 O558 2.695 . S
Pr536 O559 2.512 . S
Pr536 O561 2.437 . S
Pr536 O564 2.436 . S
Pr536 O566 2.438 . S
Pr537 C547 2.880 1_565 S
Pr537 O558 2.436 . S
Pr537 O560 2.438 . S
Pr537 O562 2.562 1_565 S
Pr537 O563 2.490 1_565 S
Pr537 O564 2.695 . S
Pr537 O565 2.512 . S
Pr537 O567 2.437 . S
C538 Pr536 2.880 . S
C538 C539 1.491 . S
C538 O556 1.254 . S
C538 O557 1.225 . S
C539 C538 1.491 . S
C539 C540 1.392 . S
C539 C544 1.356 . S
C540 C539 1.392 . S
C540 C541 1.368 . S
C540 H568 0.929 . S
C541 C540 1.368 . S
C541 C542 1.386 . S
C541 H569 0.929 . S
C542 C541 1.386 . S
C542 C543 1.373 . S
C543 C542 1.373 . S
C543 C544 1.409 . S
C543 H570 0.931 . S
C544 C539 1.356 . S
C544 C543 1.409 . S
C544 H571 0.930 . S
C545 O558 1.270 . S
C545 O559 1.248 . S
C546 O560 1.267 . S
C546 O561 1.278 . S
C547 Pr537 2.880 1_545 S
C547 C548 1.491 . S
C547 O562 1.254 . S
C547 O563 1.225 . S
C548 C547 1.491 . S
C548 C549 1.392 . S
C548 C553 1.356 . S
C549 C548 1.392 . S
C549 C550 1.368 . S
C549 H572 0.929 . S
C550 C549 1.368 . S
C550 C551 1.386 . S
C550 H573 0.929 . S
C551 C550 1.386 . S
C551 C552 1.373 . S
C552 C551 1.373 . S
C552 C553 1.409 . S
C552 H574 0.931 . S
C553 C548 1.356 . S
C553 C552 1.409 . S
C553 H575 0.930 . S
C554 O564 1.270 . S
C554 O565 1.248 . S
C555 O566 1.267 . S
C555 O567 1.278 . S
O556 Pr536 2.562 . S
O556 C538 1.254 . S
O557 Pr536 2.490 . S
O557 C538 1.225 . S
O558 Pr536 2.695 . S
O558 Pr537 2.436 . S
O558 C545 1.270 . S
O559 Pr536 2.512 . S
O559 C545 1.248 . S
O560 Pr537 2.438 . S
O560 C546 1.267 . S
O561 Pr536 2.437 . S
O561 C546 1.278 . S
O562 Pr537 2.562 1_545 S
O562 C547 1.254 . S
O563 Pr537 2.490 1_545 S
O563 C547 1.225 . S
O564 Pr536 2.436 . S
O564 Pr537 2.695 . S
O564 C554 1.270 . S
O565 Pr537 2.512 . S
O565 C554 1.248 . S
O566 Pr536 2.438 . S
O566 C555 1.267 . S
O567 Pr537 2.437 . S
O567 C555 1.278 . S
H568 C540 0.929 . S
H569 C541 0.929 . S
H570 C543 0.931 . S
H571 C544 0.930 . S
H572 C549 0.929 . S
H573 C550 0.929 . S
H574 C552 0.931 . S
H575 C553 0.930 . S
Pr576 C578 2.880 . S
Pr576 O596 2.562 . S
Pr576 O597 2.490 . S
Pr576 O598 2.695 . S
Pr576 O599 2.512 . S
Pr576 O601 2.437 . S
Pr576 O604 2.436 . S
Pr576 O606 2.438 . S
Pr577 C587 2.880 . S
Pr577 O598 2.436 1_556 S
Pr577 O600 2.438 . S
Pr577 O602 2.562 . S
Pr577 O603 2.490 . S
Pr577 O604 2.695 1_556 S
Pr577 O605 2.512 . S
Pr577 O607 2.437 . S
C578 Pr576 2.880 . S
C578 C579 1.491 . S
C578 O596 1.254 . S
C578 O597 1.225 . S
C579 C578 1.491 . S
C579 C580 1.392 . S
C579 C584 1.356 . S
C580 C579 1.392 . S
C580 C581 1.368 . S
C580 H608 0.929 . S
C581 C580 1.368 . S
C581 C582 1.386 . S
C581 H609 0.929 . S
C582 C581 1.386 . S
C582 C583 1.373 . S
C583 C582 1.373 . S
C583 C584 1.409 . S
C583 H610 0.931 . S
C584 C579 1.356 . S
C584 C583 1.409 . S
C584 H611 0.930 . S
C585 O598 1.270 . S
C585 O599 1.248 . S
C586 O600 1.267 1_554 S
C586 O601 1.278 . S
C587 Pr577 2.880 . S
C587 C588 1.491 . S
C587 O602 1.254 . S
C587 O603 1.225 . S
C588 C587 1.491 . S
C588 C589 1.392 . S
C588 C593 1.356 . S
C589 C588 1.392 . S
C589 C590 1.368 . S
C589 H612 0.929 . S
C590 C589 1.368 . S
C590 C591 1.386 . S
C590 H613 0.929 . S
C591 C590 1.386 . S
C591 C592 1.373 . S
C592 C591 1.373 . S
C592 C593 1.409 . S
C592 H614 0.931 . S
C593 C588 1.356 . S
C593 C592 1.409 . S
C593 H615 0.930 . S
C594 O604 1.270 . S
C594 O605 1.248 1_554 S
C595 O606 1.267 . S
C595 O607 1.278 1_554 S
O596 Pr576 2.562 . S
O596 C578 1.254 . S
O597 Pr576 2.490 . S
O597 C578 1.225 . S
O598 Pr576 2.695 . S
O598 Pr577 2.436 1_554 S
O598 C585 1.270 . S
O599 Pr576 2.512 . S
O599 C585 1.248 . S
O600 Pr577 2.438 . S
O600 C586 1.267 1_556 S
O601 Pr576 2.437 . S
O601 C586 1.278 . S
O602 Pr577 2.562 . S
O602 C587 1.254 . S
O603 Pr577 2.490 . S
O603 C587 1.225 . S
O604 Pr576 2.436 . S
O604 Pr577 2.695 1_554 S
O604 C594 1.270 . S
O605 Pr577 2.512 . S
O605 C594 1.248 1_556 S
O606 Pr576 2.438 . S
O606 C595 1.267 . S
O607 Pr577 2.437 . S
O607 C595 1.278 1_556 S
H608 C580 0.929 . S
H609 C581 0.929 . S
H610 C583 0.931 . S
H611 C584 0.930 . S
H612 C589 0.929 . S
H613 C590 0.929 . S
H614 C592 0.931 . S
H615 C593 0.930 . S
Pr616 C618 2.880 . S
Pr616 O636 2.562 . S
Pr616 O637 2.490 . S
Pr616 O638 2.695 . S
Pr616 O639 2.512 . S
Pr616 O641 2.437 . S
Pr616 O644 2.436 . S
Pr616 O646 2.438 . S
Pr617 C627 2.880 . S
Pr617 O638 2.436 . S
Pr617 O640 2.438 . S
Pr617 O642 2.562 . S
Pr617 O643 2.490 . S
Pr617 O644 2.695 . S
Pr617 O645 2.512 . S
Pr617 O647 2.437 . S
C618 Pr616 2.880 . S
C618 C619 1.491 . S
C618 O636 1.254 . S
C618 O637 1.225 . S
C619 C618 1.491 . S
C619 C620 1.392 . S
C619 C624 1.356 . S
C620 C619 1.392 . S
C620 C621 1.368 . S
C620 H648 0.929 . S
C621 C620 1.368 . S
C621 C622 1.386 . S
C621 H649 0.929 . S
C622 C621 1.386 . S
C622 C623 1.373 . S
C623 C622 1.373 . S
C623 C624 1.409 . S
C623 H650 0.931 . S
C624 C619 1.356 . S
C624 C623 1.409 . S
C624 H651 0.930 . S
C625 O638 1.270 . S
C625 O639 1.248 . S
C626 O640 1.267 . S
C626 O641 1.278 . S
C627 Pr617 2.880 . S
C627 C628 1.491 . S
C627 O642 1.254 . S
C627 O643 1.225 . S
C628 C627 1.491 . S
C628 C629 1.392 . S
C628 C633 1.356 . S
C629 C628 1.392 . S
C629 C630 1.368 . S
C629 H652 0.929 . S
C630 C629 1.368 . S
C630 C631 1.386 . S
C630 H653 0.929 . S
C631 C630 1.386 . S
C631 C632 1.373 . S
C632 C631 1.373 . S
C632 C633 1.409 . S
C632 H654 0.931 . S
C633 C628 1.356 . S
C633 C632 1.409 . S
C633 H655 0.930 . S
C634 O644 1.270 . S
C634 O645 1.248 . S
C635 O646 1.267 . S
C635 O647 1.278 . S
O636 Pr616 2.562 . S
O636 C618 1.254 . S
O637 Pr616 2.490 . S
O637 C618 1.225 . S
O638 Pr616 2.695 . S
O638 Pr617 2.436 . S
O638 C625 1.270 . S
O639 Pr616 2.512 . S
O639 C625 1.248 . S
O640 Pr617 2.438 . S
O640 C626 1.267 . S
O641 Pr616 2.437 . S
O641 C626 1.278 . S
O642 Pr617 2.562 . S
O642 C627 1.254 . S
O643 Pr617 2.490 . S
O643 C627 1.225 . S
O644 Pr616 2.436 . S
O644 Pr617 2.695 . S
O644 C634 1.270 . S
O645 Pr617 2.512 . S
O645 C634 1.248 . S
O646 Pr616 2.438 . S
O646 C635 1.267 . S
O647 Pr617 2.437 . S
O647 C635 1.278 . S
H648 C620 0.929 . S
H649 C621 0.929 . S
H650 C623 0.931 . S
H651 C624 0.930 . S
H652 C629 0.929 . S
H653 C630 0.929 . S
H654 C632 0.931 . S
H655 C633 0.930 . S
Pr656 C658 2.880 . S
Pr656 O676 2.562 . S
Pr656 O677 2.490 . S
Pr656 O678 2.695 1_556 S
Pr656 O679 2.512 . S
Pr656 O681 2.437 . S
Pr656 O684 2.436 1_556 S
Pr656 O686 2.438 1_556 S
Pr657 C667 2.880 . S
Pr657 O678 2.436 . S
Pr657 O680 2.438 . S
Pr657 O682 2.562 . S
Pr657 O683 2.490 . S
Pr657 O684 2.695 . S
Pr657 O685 2.512 . S
Pr657 O687 2.437 . S
C658 Pr656 2.880 . S
C658 C659 1.491 . S
C658 O676 1.254 . S
C658 O677 1.225 . S
C659 C658 1.491 . S
C659 C660 1.392 . S
C659 C664 1.356 . S
C660 C659 1.392 . S
C660 C661 1.368 . S
C660 H688 0.929 . S
C661 C660 1.368 . S
C661 C662 1.386 . S
C661 H689 0.929 . S
C662 C661 1.386 . S
C662 C663 1.373 . S
C663 C662 1.373 . S
C663 C664 1.409 . S
C663 H690 0.931 . S
C664 C659 1.356 . S
C664 C663 1.409 . S
C664 H691 0.930 . S
C665 O678 1.270 . S
C665 O679 1.248 1_554 S
C666 O680 1.267 1_556 S
C666 O681 1.278 . S
C667 Pr657 2.880 . S
C667 C668 1.491 . S
C667 O682 1.254 . S
C667 O683 1.225 . S
C668 C667 1.491 . S
C668 C669 1.392 . S
C668 C673 1.356 . S
C669 C668 1.392 . S
C669 C670 1.368 . S
C669 H692 0.929 . S
C670 C669 1.368 . S
C670 C671 1.386 . S
C670 H693 0.929 . S
C671 C670 1.386 . S
C671 C672 1.373 . S
C672 C671 1.373 . S
C672 C673 1.409 . S
C672 H694 0.931 . S
C673 C668 1.356 . S
C673 C672 1.409 . S
C673 H695 0.930 . S
C674 O684 1.270 . S
C674 O685 1.248 . S
C675 O686 1.267 . S
C675 O687 1.278 . S
O676 Pr656 2.562 . S
O676 C658 1.254 . S
O677 Pr656 2.490 . S
O677 C658 1.225 . S
O678 Pr656 2.695 1_554 S
O678 Pr657 2.436 . S
O678 C665 1.270 . S
O679 Pr656 2.512 . S
O679 C665 1.248 1_556 S
O680 Pr657 2.438 . S
O680 C666 1.267 1_554 S
O681 Pr656 2.437 . S
O681 C666 1.278 . S
O682 Pr657 2.562 . S
O682 C667 1.254 . S
O683 Pr657 2.490 . S
O683 C667 1.225 . S
O684 Pr656 2.436 1_554 S
O684 Pr657 2.695 . S
O684 C674 1.270 . S
O685 Pr657 2.512 . S
O685 C674 1.248 . S
O686 Pr656 2.438 1_554 S
O686 C675 1.267 . S
O687 Pr657 2.437 . S
O687 C675 1.278 . S
H688 C660 0.929 . S
H689 C661 0.929 . S
H690 C663 0.931 . S
H691 C664 0.930 . S
H692 C669 0.929 . S
H693 C670 0.929 . S
H694 C672 0.931 . S
H695 C673 0.930 . S
Pr696 C698 2.880 . S
Pr696 O716 2.562 . S
Pr696 O717 2.490 . S
Pr696 O718 2.695 . S
Pr696 O719 2.512 . S
Pr696 O721 2.437 . S
Pr696 O724 2.436 . S
Pr696 O726 2.438 . S
Pr697 C707 2.880 . S
Pr697 O718 2.436 . S
Pr697 O720 2.438 . S
Pr697 O722 2.562 . S
Pr697 O723 2.490 . S
Pr697 O724 2.695 . S
Pr697 O725 2.512 . S
Pr697 O727 2.437 . S
C698 Pr696 2.880 . S
C698 C699 1.491 . S
C698 O716 1.254 . S
C698 O717 1.225 . S
C699 C698 1.491 . S
C699 C700 1.392 . S
C699 C704 1.356 . S
C700 C699 1.392 . S
C700 C701 1.368 . S
C700 H728 0.929 . S
C701 C700 1.368 . S
C701 C702 1.386 . S
C701 H729 0.929 . S
C702 C701 1.386 . S
C702 C703 1.373 . S
C703 C702 1.373 . S
C703 C704 1.409 . S
C703 H730 0.931 . S
C704 C699 1.356 . S
C704 C703 1.409 . S
C704 H731 0.930 . S
C705 O718 1.270 . S
C705 O719 1.248 . S
C706 O720 1.267 . S
C706 O721 1.278 . S
C707 Pr697 2.880 . S
C707 C708 1.491 . S
C707 O722 1.254 . S
C707 O723 1.225 . S
C708 C707 1.491 . S
C708 C709 1.392 . S
C708 C713 1.356 . S
C709 C708 1.392 . S
C709 C710 1.368 . S
C709 H732 0.929 . S
C710 C709 1.368 . S
C710 C711 1.386 . S
C710 H733 0.929 . S
C711 C710 1.386 . S
C711 C712 1.373 . S
C712 C711 1.373 . S
C712 C713 1.409 . S
C712 H734 0.931 . S
C713 C708 1.356 . S
C713 C712 1.409 . S
C713 H735 0.930 . S
C714 O724 1.270 . S
C714 O725 1.248 . S
C715 O726 1.267 . S
C715 O727 1.278 . S
O716 Pr696 2.562 . S
O716 C698 1.254 . S
O717 Pr696 2.490 . S
O717 C698 1.225 . S
O718 Pr696 2.695 . S
O718 Pr697 2.436 . S
O718 C705 1.270 . S
O719 Pr696 2.512 . S
O719 C705 1.248 . S
O720 Pr697 2.438 . S
O720 C706 1.267 . S
O721 Pr696 2.437 . S
O721 C706 1.278 . S
O722 Pr697 2.562 . S
O722 C707 1.254 . S
O723 Pr697 2.490 . S
O723 C707 1.225 . S
O724 Pr696 2.436 . S
O724 Pr697 2.695 . S
O724 C714 1.270 . S
O725 Pr697 2.512 . S
O725 C714 1.248 . S
O726 Pr696 2.438 . S
O726 C715 1.267 . S
O727 Pr697 2.437 . S
O727 C715 1.278 . S
H728 C700 0.929 . S
H729 C701 0.929 . S
H730 C703 0.931 . S
H731 C704 0.930 . S
H732 C709 0.929 . S
H733 C710 0.929 . S
H734 C712 0.931 . S
H735 C713 0.930 . S
Pr736 C738 2.880 . S
Pr736 O756 2.562 . S
Pr736 O757 2.490 . S
Pr736 O758 2.695 . S
Pr736 O759 2.512 . S
Pr736 O761 2.437 . S
Pr736 O764 2.436 . S
Pr736 O766 2.438 . S
Pr737 C747 2.880 . S
Pr737 O758 2.436 . S
Pr737 O760 2.438 1_455 S
Pr737 O762 2.562 . S
Pr737 O763 2.490 . S
Pr737 O764 2.695 . S
Pr737 O765 2.512 . S
Pr737 O767 2.437 . S
C738 Pr736 2.880 . S
C738 C739 1.491 . S
C738 O756 1.254 . S
C738 O757 1.225 . S
C739 C738 1.491 . S
C739 C740 1.392 . S
C739 C744 1.356 . S
C740 C739 1.392 . S
C740 C741 1.368 . S
C740 H768 0.929 . S
C741 C740 1.368 . S
C741 C742 1.386 . S
C741 H769 0.929 . S
C742 C741 1.386 . S
C742 C743 1.373 . S
C743 C742 1.373 . S
C743 C744 1.409 . S
C743 H770 0.931 1_455 S
C744 C739 1.356 . S
C744 C743 1.409 . S
C744 H771 0.930 . S
C745 O758 1.270 . S
C745 O759 1.248 . S
C746 O760 1.267 . S
C746 O761 1.278 1_655 S
C747 Pr737 2.880 . S
C747 C748 1.491 . S
C747 O762 1.254 . S
C747 O763 1.225 . S
C748 C747 1.491 . S
C748 C749 1.392 . S
C748 C753 1.356 . S
C749 C748 1.392 . S
C749 C750 1.368 . S
C749 H772 0.929 . S
C750 C749 1.368 . S
C750 C751 1.386 . S
C750 H773 0.929 . S
C751 C750 1.386 . S
C751 C752 1.373 . S
C752 C751 1.373 . S
C752 C753 1.409 . S
C752 H774 0.931 . S
C753 C748 1.356 . S
C753 C752 1.409 . S
C753 H775 0.930 . S
C754 O764 1.270 . S
C754 O765 1.248 . S
C755 O766 1.267 . S
C755 O767 1.278 . S
O756 Pr736 2.562 . S
O756 C738 1.254 . S
O757 Pr736 2.490 . S
O757 C738 1.225 . S
O758 Pr736 2.695 . S
O758 Pr737 2.436 . S
O758 C745 1.270 . S
O759 Pr736 2.512 . S
O759 C745 1.248 . S
O760 Pr737 2.438 1_655 S
O760 C746 1.267 . S
O761 Pr736 2.437 . S
O761 C746 1.278 1_455 S
O762 Pr737 2.562 . S
O762 C747 1.254 . S
O763 Pr737 2.490 . S
O763 C747 1.225 . S
O764 Pr736 2.436 . S
O764 Pr737 2.695 . S
O764 C754 1.270 . S
O765 Pr737 2.512 . S
O765 C754 1.248 . S
O766 Pr736 2.438 . S
O766 C755 1.267 . S
O767 Pr737 2.437 . S
O767 C755 1.278 . S
H768 C740 0.929 . S
H769 C741 0.929 . S
H770 C743 0.931 1_655 S
H771 C744 0.930 . S
H772 C749 0.929 . S
H773 C750 0.929 . S
H774 C752 0.931 . S
H775 C753 0.930 . S
Pr776 C778 2.880 . S
Pr776 O796 2.562 . S
Pr776 O797 2.490 . S
Pr776 O798 2.695 . S
Pr776 O799 2.512 . S
Pr776 O801 2.437 . S
Pr776 O804 2.436 . S
Pr776 O806 2.438 . S
Pr777 C787 2.880 . S
Pr777 O798 2.436 . S
Pr777 O800 2.438 . S
Pr777 O802 2.562 . S
Pr777 O803 2.490 . S
Pr777 O804 2.695 . S
Pr777 O805 2.512 . S
Pr777 O807 2.437 . S
C778 Pr776 2.880 . S
C778 C779 1.491 . S
C778 O796 1.254 . S
C778 O797 1.225 . S
C779 C778 1.491 . S
C779 C780 1.392 . S
C779 C784 1.356 . S
C780 C779 1.392 . S
C780 C781 1.368 . S
C780 H808 0.929 . S
C781 C780 1.368 . S
C781 C782 1.386 . S
C781 H809 0.929 1_565 S
C782 C781 1.386 . S
C782 C783 1.373 . S
C783 C782 1.373 . S
C783 C784 1.409 . S
C783 H810 0.931 . S
C784 C779 1.356 . S
C784 C783 1.409 . S
C784 H811 0.930 . S
C785 O798 1.270 . S
C785 O799 1.248 . S
C786 O800 1.267 . S
C786 O801 1.278 . S
C787 Pr777 2.880 . S
C787 C788 1.491 . S
C787 O802 1.254 . S
C787 O803 1.225 . S
C788 C787 1.491 . S
C788 C789 1.392 . S
C788 C793 1.356 . S
C789 C788 1.392 . S
C789 C790 1.368 . S
C789 H812 0.929 . S
C790 C789 1.368 . S
C790 C791 1.385 1_655 S
C790 H813 0.929 1_655 S
C791 C790 1.385 1_455 S
C791 C792 1.371 1_455 S
C792 C791 1.371 1_655 S
C792 C793 1.409 . S
C792 H814 0.931 . S
C793 C788 1.356 . S
C793 C792 1.409 . S
C793 H815 0.930 . S
C794 O804 1.270 . S
C794 O805 1.248 . S
C795 O806 1.267 . S
C795 O807 1.278 . S
O796 Pr776 2.562 . S
O796 C778 1.254 . S
O797 Pr776 2.490 . S
O797 C778 1.225 . S
O798 Pr776 2.695 . S
O798 Pr777 2.436 . S
O798 C785 1.270 . S
O799 Pr776 2.512 . S
O799 C785 1.248 . S
O800 Pr777 2.438 . S
O800 C786 1.267 . S
O801 Pr776 2.437 . S
O801 C786 1.278 . S
O802 Pr777 2.562 . S
O802 C787 1.254 . S
O803 Pr777 2.490 . S
O803 C787 1.225 . S
O804 Pr776 2.436 . S
O804 Pr777 2.695 . S
O804 C794 1.270 . S
O805 Pr777 2.512 . S
O805 C794 1.248 . S
O806 Pr776 2.438 . S
O806 C795 1.267 . S
O807 Pr777 2.437 . S
O807 C795 1.278 . S
H808 C780 0.929 . S
H809 C781 0.929 1_545 S
H810 C783 0.931 . S
H811 C784 0.930 . S
H812 C789 0.929 . S
H813 C790 0.929 1_455 S
H814 C792 0.931 . S
H815 C793 0.930 . S
Pr816 C818 2.880 . S
Pr816 O836 2.562 . S
Pr816 O837 2.490 . S
Pr816 O838 2.695 . S
Pr816 O839 2.512 . S
Pr816 O841 2.437 . S
Pr816 O844 2.436 . S
Pr816 O846 2.438 . S
Pr817 C827 2.880 . S
Pr817 O838 2.436 . S
Pr817 O840 2.438 . S
Pr817 O842 2.562 . S
Pr817 O843 2.490 . S
Pr817 O844 2.695 . S
Pr817 O845 2.512 . S
Pr817 O847 2.437 . S
C818 Pr816 2.880 . S
C818 C819 1.491 . S
C818 O836 1.254 . S
C818 O837 1.225 . S
C819 C818 1.491 . S
C819 C820 1.392 . S
C819 C824 1.356 . S
C820 C819 1.392 . S
C820 C821 1.368 . S
C820 H848 0.929 . S
C821 C820 1.368 . S
C821 C822 1.386 . S
C821 H849 0.929 . S
C822 C821 1.386 . S
C822 C823 1.373 . S
C823 C822 1.373 . S
C823 C824 1.409 . S
C823 H850 0.931 . S
C824 C819 1.356 . S
C824 C823 1.409 . S
C824 H851 0.930 . S
C825 O838 1.270 . S
C825 O839 1.248 . S
C826 O840 1.267 . S
C826 O841 1.278 . S
C827 Pr817 2.880 . S
C827 C828 1.491 . S
C827 O842 1.254 . S
C827 O843 1.225 . S
C828 C827 1.491 . S
C828 C829 1.392 . S
C828 C833 1.356 . S
C829 C828 1.392 . S
C829 C830 1.368 . S
C829 H852 0.929 . S
C830 C829 1.368 . S
C830 C831 1.386 . S
C830 H853 0.929 . S
C831 C830 1.386 . S
C831 C832 1.373 . S
C832 C831 1.373 . S
C832 C833 1.409 . S
C832 H854 0.931 . S
C833 C828 1.356 . S
C833 C832 1.409 . S
C833 H855 0.930 . S
C834 O844 1.270 . S
C834 O845 1.248 . S
C835 O846 1.267 . S
C835 O847 1.278 . S
O836 Pr816 2.562 . S
O836 C818 1.254 . S
O837 Pr816 2.490 . S
O837 C818 1.225 . S
O838 Pr816 2.695 . S
O838 Pr817 2.436 . S
O838 C825 1.270 . S
O839 Pr816 2.512 . S
O839 C825 1.248 . S
O840 Pr817 2.438 . S
O840 C826 1.267 . S
O841 Pr816 2.437 . S
O841 C826 1.278 . S
O842 Pr817 2.562 . S
O842 C827 1.254 . S
O843 Pr817 2.490 . S
O843 C827 1.225 . S
O844 Pr816 2.436 . S
O844 Pr817 2.695 . S
O844 C834 1.270 . S
O845 Pr817 2.512 . S
O845 C834 1.248 . S
O846 Pr816 2.438 . S
O846 C835 1.267 . S
O847 Pr817 2.437 . S
O847 C835 1.278 . S
H848 C820 0.929 . S
H849 C821 0.929 . S
H850 C823 0.931 . S
H851 C824 0.930 . S
H852 C829 0.929 . S
H853 C830 0.929 . S
H854 C832 0.931 . S
H855 C833 0.930 . S
Pr856 C858 2.880 . S
Pr856 O876 2.562 . S
Pr856 O877 2.490 . S
Pr856 O878 2.695 . S
Pr856 O879 2.512 . S
Pr856 O881 2.437 . S
Pr856 O884 2.436 . S
Pr856 O886 2.438 . S
Pr857 C867 2.880 . S
Pr857 O878 2.436 . S
Pr857 O880 2.438 . S
Pr857 O882 2.562 . S
Pr857 O883 2.490 . S
Pr857 O884 2.695 . S
Pr857 O885 2.512 . S
Pr857 O887 2.437 . S
C858 Pr856 2.880 . S
C858 C859 1.491 . S
C858 O876 1.254 . S
C858 O877 1.225 . S
C859 C858 1.491 . S
C859 C860 1.392 . S
C859 C864 1.356 . S
C860 C859 1.392 . S
C860 C861 1.368 . S
C860 H888 0.929 . S
C861 C860 1.368 . S
C861 C862 1.386 . S
C861 H889 0.929 . S
C862 C861 1.386 . S
C862 C863 1.373 . S
C863 C862 1.373 . S
C863 C864 1.409 . S
C863 H890 0.931 . S
C864 C859 1.356 . S
C864 C863 1.409 . S
C864 H891 0.930 . S
C865 O878 1.270 . S
C865 O879 1.248 . S
C866 O880 1.267 . S
C866 O881 1.278 . S
C867 Pr857 2.880 . S
C867 C868 1.491 . S
C867 O882 1.254 . S
C867 O883 1.225 . S
C868 C867 1.491 . S
C868 C869 1.392 1_655 S
C868 C873 1.356 1_655 S
C869 C868 1.392 1_455 S
C869 C870 1.368 . S
C869 H892 0.929 . S
C870 C869 1.368 . S
C870 C871 1.386 . S
C870 H893 0.929 1_565 S
C871 C870 1.386 . S
C871 C872 1.373 . S
C872 C871 1.373 . S
C872 C873 1.409 . S
C872 H894 0.931 . S
C873 C868 1.356 1_455 S
C873 C872 1.409 . S
C873 H895 0.930 1_455 S
C874 O884 1.270 . S
C874 O885 1.248 . S
C875 O886 1.267 . S
C875 O887 1.278 . S
O876 Pr856 2.562 . S
O876 C858 1.254 . S
O877 Pr856 2.490 . S
O877 C858 1.225 . S
O878 Pr856 2.695 . S
O878 Pr857 2.436 . S
O878 C865 1.270 . S
O879 Pr856 2.512 . S
O879 C865 1.248 . S
O880 Pr857 2.438 . S
O880 C866 1.267 . S
O881 Pr856 2.437 . S
O881 C866 1.278 . S
O882 Pr857 2.562 . S
O882 C867 1.254 . S
O883 Pr857 2.490 . S
O883 C867 1.225 . S
O884 Pr856 2.436 . S
O884 Pr857 2.695 . S
O884 C874 1.270 . S
O885 Pr857 2.512 . S
O885 C874 1.248 . S
O886 Pr856 2.438 . S
O886 C875 1.267 . S
O887 Pr857 2.437 . S
O887 C875 1.278 . S
H888 C860 0.929 . S
H889 C861 0.929 . S
H890 C863 0.931 . S
H891 C864 0.930 . S
H892 C869 0.929 . S
H893 C870 0.929 1_545 S
H894 C872 0.931 . S
H895 C873 0.930 1_655 S
Pr896 C898 2.880 . S
Pr896 O916 2.562 . S
Pr896 O917 2.490 . S
Pr896 O918 2.695 . S
Pr896 O919 2.512 . S
Pr896 O921 2.437 . S
Pr896 O924 2.436 . S
Pr896 O926 2.438 . S
Pr897 C907 2.880 . S
Pr897 O918 2.436 . S
Pr897 O920 2.438 . S
Pr897 O922 2.562 . S
Pr897 O923 2.490 . S
Pr897 O924 2.695 . S
Pr897 O925 2.512 . S
Pr897 O927 2.437 . S
C898 Pr896 2.880 . S
C898 C899 1.491 . S
C898 O916 1.254 . S
C898 O917 1.225 . S
C899 C898 1.491 . S
C899 C900 1.392 . S
C899 C904 1.356 . S
C900 C899 1.392 . S
C900 C901 1.368 . S
C900 H928 0.929 . S
C901 C900 1.368 . S
C901 C902 1.386 . S
C901 H929 0.929 . S
C902 C901 1.386 . S
C902 C903 1.373 . S
C903 C902 1.373 . S
C903 C904 1.409 . S
C903 H930 0.931 . S
C904 C899 1.356 . S
C904 C903 1.409 . S
C904 H931 0.930 . S
C905 O918 1.270 . S
C905 O919 1.248 . S
C906 O920 1.267 . S
C906 O921 1.278 . S
C907 Pr897 2.880 . S
C907 C908 1.491 . S
C907 O922 1.254 . S
C907 O923 1.225 . S
C908 C907 1.491 . S
C908 C909 1.392 . S
C908 C913 1.356 . S
C909 C908 1.392 . S
C909 C910 1.368 . S
C909 H932 0.929 . S
C910 C909 1.368 . S
C910 C911 1.386 . S
C910 H933 0.929 . S
C911 C910 1.386 . S
C911 C912 1.373 . S
C912 C911 1.373 . S
C912 C913 1.409 . S
C912 H934 0.931 . S
C913 C908 1.356 . S
C913 C912 1.409 . S
C913 H935 0.930 . S
C914 O924 1.270 . S
C914 O925 1.248 . S
C915 O926 1.267 . S
C915 O927 1.278 . S
O916 Pr896 2.562 . S
O916 C898 1.254 . S
O917 Pr896 2.490 . S
O917 C898 1.225 . S
O918 Pr896 2.695 . S
O918 Pr897 2.436 . S
O918 C905 1.270 . S
O919 Pr896 2.512 . S
O919 C905 1.248 . S
O920 Pr897 2.438 . S
O920 C906 1.267 . S
O921 Pr896 2.437 . S
O921 C906 1.278 . S
O922 Pr897 2.562 . S
O922 C907 1.254 . S
O923 Pr897 2.490 . S
O923 C907 1.225 . S
O924 Pr896 2.436 . S
O924 Pr897 2.695 . S
O924 C914 1.270 . S
O925 Pr897 2.512 . S
O925 C914 1.248 . S
O926 Pr896 2.438 . S
O926 C915 1.267 . S
O927 Pr897 2.437 . S
O927 C915 1.278 . S
H928 C900 0.929 . S
H929 C901 0.929 . S
H930 C903 0.931 . S
H931 C904 0.930 . S
H932 C909 0.929 . S
H933 C910 0.929 . S
H934 C912 0.931 . S
H935 C913 0.930 . S
Pr936 C938 2.884 . S
Pr936 O956 2.562 . S
Pr936 O957 2.490 1_554 S
Pr936 O958 2.695 1_554 S
Pr936 O959 2.512 1_554 S
Pr936 O961 2.437 1_554 S
Pr936 O964 2.436 . S
Pr936 O966 2.438 . S
Pr937 C947 2.880 1_455 S
Pr937 O958 2.436 1_554 S
Pr937 O960 2.438 1_554 S
Pr937 O962 2.562 1_455 S
Pr937 O963 2.490 1_455 S
Pr937 O964 2.695 . S
Pr937 O965 2.512 . S
Pr937 O967 2.437 . S
C938 Pr936 2.884 . S
C938 C939 1.486 1_554 S
C938 O956 1.265 . S
C938 O957 1.218 1_554 S
C939 C938 1.486 1_556 S
C939 C940 1.392 . S
C939 C944 1.356 1_556 S
C940 C939 1.392 . S
C940 C941 1.368 . S
C940 H968 0.929 . S
C941 C940 1.368 . S
C941 C942 1.386 . S
C941 H969 0.929 . S
C942 C941 1.386 . S
C942 C943 1.373 . S
C943 C942 1.373 . S
C943 C944 1.409 1_556 S
C943 H970 0.931 1_556 S
C944 C939 1.356 1_554 S
C944 C943 1.409 1_554 S
C944 H971 0.930 . S
C945 O958 1.270 . S
C945 O959 1.248 . S
C946 O960 1.267 . S
C946 O961 1.278 . S
C947 Pr937 2.880 1_655 S
C947 C948 1.491 . S
C947 O962 1.254 . S
C947 O963 1.225 . S
C948 C947 1.491 . S
C948 C949 1.392 . S
C948 C953 1.356 . S
C949 C948 1.392 . S
C949 C950 1.368 . S
C949 H972 0.929 . S
C950 C949 1.368 . S
C950 C951 1.386 . S
C950 H973 0.929 . S
C951 C950 1.386 . S
C951 C952 1.373 . S
C952 C951 1.373 . S
C952 C953 1.409 . S
C952 H974 0.931 . S
C953 C948 1.356 . S
C953 C952 1.409 . S
C953 H975 0.930 . S
C954 O964 1.270 . S
C954 O965 1.248 . S
C955 O966 1.267 . S
C955 O967 1.278 . S
O956 Pr936 2.562 . S
O956 C938 1.265 . S
O957 Pr936 2.490 1_556 S
O957 C938 1.218 1_556 S
O958 Pr936 2.695 1_556 S
O958 Pr937 2.436 1_556 S
O958 C945 1.270 . S
O959 Pr936 2.512 1_556 S
O959 C945 1.248 . S
O960 Pr937 2.438 1_556 S
O960 C946 1.267 . S
O961 Pr936 2.437 1_556 S
O961 C946 1.278 . S
O962 Pr937 2.562 1_655 S
O962 C947 1.254 . S
O963 Pr937 2.490 1_655 S
O963 C947 1.225 . S
O964 Pr936 2.436 . S
O964 Pr937 2.695 . S
O964 C954 1.270 . S
O965 Pr937 2.512 . S
O965 C954 1.248 . S
O966 Pr936 2.438 . S
O966 C955 1.267 . S
O967 Pr937 2.437 . S
O967 C955 1.278 . S
H968 C940 0.929 . S
H969 C941 0.929 . S
H970 C943 0.931 1_554 S
H971 C944 0.930 . S
H972 C949 0.929 . S
H973 C950 0.929 . S
H974 C952 0.931 . S
H975 C953 0.930 . S
C109 C346 3.120 1_556 S
C65 C385 2.584 . S
C75 C426 2.271 1_565 S
C471 C84 2.462 . S
C25 C515 2.920 1_565 S
C546 C28 2.278 . S
C594 C47 2.871 . S
C9 C622 4.565 . S
C354 C233 3.917 1_455 S
C249 C395 2.119 . S
C434 C275 3.675 1_545 S
C466 C173 2.299 . S
C224 C502 1.579 . S
C554 C243 2.887 . S
C591 C266 3.904 . S
C625 C179 2.936 . S
C351 C163 4.580 . S
C289 C665 2.633 1_556 S
C711 C333 3.740 . S
C746 C308 2.357 . S
C123 C635 4.103 . S
C126 C431 2.508 . S
C327 C794 3.594 . S
C822 C299 1.570 . S
C355 C67 3.174 1_545 S
C834 C98 2.478 . S
C89 C435 2.331 . S
C79 C782 2.616 . S
C506 C11 2.939 1_455 S
C51 C715 2.389 . S
C585 C33 2.882 1_544 S
C871 C14 4.413 . S
C345 C140 3.803 . S
C826 C319 2.107 . S
C112 C425 3.421 . S
C285 C795 2.344 . S
C149 C511 1.448 . S
C705 C313 2.918 . S
C121 C582 4.046 . S
C291 C874 2.993 . S
C182 C342 4.612 1_554 S
C168 C674 2.544 . S
C263 C542 3.795 . S
C247 C755 2.569 . S
C866 C277 4.135 . S
C219 C422 2.653 . S
C465 C257 3.615 . S
C391 C201 1.540 . S
C81 C906 3.120 . S
C825 C93 2.584 . S
C103 C946 2.271 . S
C56 C791 2.464 . S
C53 C675 2.920 . S
C706 C0 2.277 . S
C754 C19 2.871 . S
C862 C37 4.566 . S
C914 C261 3.918 . S
C193 C835 2.123 . S
C954 C205 3.676 . S
C786 C215 2.300 . S
C662 C252 1.578 . S
C187 C714 2.884 . S
C751 C196 3.904 . S
C221 C865 2.936 . S
C911 C317 4.580 . S
C135 C505 2.633 . S
C551 C151 3.741 . S
C586 C154 2.357 . S
C875 C305 4.104 . S
C280 C951 2.509 . S
C474 C145 3.595 . S
C382 C117 1.570 . S
C95 C915 3.175 . S
C394 C70 2.478 . S
C61 C955 2.331 . S
C107 C462 2.616 . S
C39 C666 2.939 . S
C555 C23 2.388 . S
C5 C745 2.882 . S
C42 C631 4.413 . S
C905 C322 3.803 . S
C165 C386 2.107 . S
C945 C294 3.421 . S
C131 C475 2.343 . S
C331 C671 1.449 . S
C545 C159 2.918 . S
C303 C742 4.045 . S
C634 C137 2.993 . S
C902 C238 4.609 . S
C514 C210 2.544 . S
C235 C702 3.795 . S
C595 C191 2.567 1_554 S
C207 C626 4.135 . S
C177 C942 2.652 1_554 S
C785 C229 3.614 . S
C831 C271 1.540 . S
