# Generated by pormake.
# Topology ibd, (4,6)-cn, num edge types: 1
# Building blocks:
#     Node 0, Type 0, BuildingBlock: CEKHIL_clean_sbu_0, # of connection points: 4
#     Node 1, Type 0, BuildingBlock: CEKHIL_clean_sbu_0, # of connection points: 4
#     Node 2, Type 0, BuildingBlock: CEKHIL_clean_sbu_0, # of connection points: 4
#     Node 3, Type 0, BuildingBlock: CEKHIL_clean_sbu_0, # of connection points: 4
#     Node 4, Type 0, BuildingBlock: CEKHIL_clean_sbu_0, # of connection points: 4
#     Node 5, Type 0, BuildingBlock: CEKHIL_clean_sbu_0, # of connection points: 4
#     Node 6, Type 0, BuildingBlock: CEKHIL_clean_sbu_0, # of connection points: 4
#     Node 7, Type 0, BuildingBlock: CEKHIL_clean_sbu_0, # of connection points: 4
#     Node 8, Type 0, BuildingBlock: CEKHIL_clean_sbu_0, # of connection points: 4
#     Node 9, Type 0, BuildingBlock: CEKHIL_clean_sbu_0, # of connection points: 4
#     Node 10, Type 0, BuildingBlock: CEKHIL_clean_sbu_0, # of connection points: 4
#     Node 11, Type 0, BuildingBlock: CEKHIL_clean_sbu_0, # of connection points: 4
#     Node 12, Type 0, BuildingBlock: CEKHIL_clean_sbu_0, # of connection points: 4
#     Node 13, Type 0, BuildingBlock: CEKHIL_clean_sbu_0, # of connection points: 4
#     Node 14, Type 0, BuildingBlock: CEKHIL_clean_sbu_0, # of connection points: 4
#     Node 15, Type 0, BuildingBlock: CEKHIL_clean_sbu_0, # of connection points: 4
#     Node 16, Type 0, BuildingBlock: CEKHIL_clean_sbu_0, # of connection points: 4
#     Node 17, Type 0, BuildingBlock: CEKHIL_clean_sbu_0, # of connection points: 4
#     Node 18, Type 0, BuildingBlock: CEKHIL_clean_sbu_0, # of connection points: 4
#     Node 19, Type 0, BuildingBlock: CEKHIL_clean_sbu_0, # of connection points: 4
#     Node 20, Type 0, BuildingBlock: CEKHIL_clean_sbu_0, # of connection points: 4
#     Node 21, Type 0, BuildingBlock: CEKHIL_clean_sbu_0, # of connection points: 4
#     Node 22, Type 0, BuildingBlock: CEKHIL_clean_sbu_0, # of connection points: 4
#     Node 23, Type 0, BuildingBlock: CEKHIL_clean_sbu_0, # of connection points: 4
#     Node 24, Type 1, BuildingBlock: CIFDUS_clean_sbu_1, # of connection points: 6
#     Node 25, Type 1, BuildingBlock: CIFDUS_clean_sbu_1, # of connection points: 6
#     Node 26, Type 1, BuildingBlock: CIFDUS_clean_sbu_1, # of connection points: 6
#     Node 27, Type 1, BuildingBlock: CIFDUS_clean_sbu_1, # of connection points: 6
#     Node 28, Type 1, BuildingBlock: CIFDUS_clean_sbu_1, # of connection points: 6
#     Node 29, Type 1, BuildingBlock: CIFDUS_clean_sbu_1, # of connection points: 6
#     Node 30, Type 1, BuildingBlock: CIFDUS_clean_sbu_1, # of connection points: 6
#     Node 31, Type 1, BuildingBlock: CIFDUS_clean_sbu_1, # of connection points: 6
#     Node 32, Type 1, BuildingBlock: CIFDUS_clean_sbu_1, # of connection points: 6
#     Node 33, Type 1, BuildingBlock: CIFDUS_clean_sbu_1, # of connection points: 6
#     Node 34, Type 1, BuildingBlock: CIFDUS_clean_sbu_1, # of connection points: 6
#     Node 35, Type 1, BuildingBlock: CIFDUS_clean_sbu_1, # of connection points: 6
#     Node 36, Type 1, BuildingBlock: CIFDUS_clean_sbu_1, # of connection points: 6
#     Node 37, Type 1, BuildingBlock: CIFDUS_clean_sbu_1, # of connection points: 6
#     Node 38, Type 1, BuildingBlock: CIFDUS_clean_sbu_1, # of connection points: 6
#     Node 39, Type 1, BuildingBlock: CIFDUS_clean_sbu_1, # of connection points: 6
#     Edge 40, Type (0, 1), BuildingBlock: UVAHIK_clean_linker_0, # of connection points: 2
#     Edge 41, Type (0, 1), BuildingBlock: UVAHIK_clean_linker_0, # of connection points: 2
#     Edge 42, Type (0, 1), BuildingBlock: UVAHIK_clean_linker_0, # of connection points: 2
#     Edge 43, Type (0, 1), BuildingBlock: UVAHIK_clean_linker_0, # of connection points: 2
#     Edge 44, Type (0, 1), BuildingBlock: UVAHIK_clean_linker_0, # of connection points: 2
#     Edge 45, Type (0, 1), BuildingBlock: UVAHIK_clean_linker_0, # of connection points: 2
#     Edge 46, Type (0, 1), BuildingBlock: UVAHIK_clean_linker_0, # of connection points: 2
#     Edge 47, Type (0, 1), BuildingBlock: UVAHIK_clean_linker_0, # of connection points: 2
#     Edge 48, Type (0, 1), BuildingBlock: UVAHIK_clean_linker_0, # of connection points: 2
#     Edge 49, Type (0, 1), BuildingBlock: UVAHIK_clean_linker_0, # of connection points: 2
#     Edge 50, Type (0, 1), BuildingBlock: UVAHIK_clean_linker_0, # of connection points: 2
#     Edge 51, Type (0, 1), BuildingBlock: UVAHIK_clean_linker_0, # of connection points: 2
#     Edge 52, Type (0, 1), BuildingBlock: UVAHIK_clean_linker_0, # of connection points: 2
#     Edge 53, Type (0, 1), BuildingBlock: UVAHIK_clean_linker_0, # of connection points: 2
#     Edge 54, Type (0, 1), BuildingBlock: UVAHIK_clean_linker_0, # of connection points: 2
#     Edge 55, Type (0, 1), BuildingBlock: UVAHIK_clean_linker_0, # of connection points: 2
#     Edge 56, Type (0, 1), BuildingBlock: UVAHIK_clean_linker_0, # of connection points: 2
#     Edge 57, Type (0, 1), BuildingBlock: UVAHIK_clean_linker_0, # of connection points: 2
#     Edge 58, Type (0, 1), BuildingBlock: UVAHIK_clean_linker_0, # of connection points: 2
#     Edge 59, Type (0, 1), BuildingBlock: UVAHIK_clean_linker_0, # of connection points: 2
#     Edge 60, Type (0, 1), BuildingBlock: UVAHIK_clean_linker_0, # of connection points: 2
#     Edge 61, Type (0, 1), BuildingBlock: UVAHIK_clean_linker_0, # of connection points: 2
#     Edge 62, Type (0, 1), BuildingBlock: UVAHIK_clean_linker_0, # of connection points: 2
#     Edge 63, Type (0, 1), BuildingBlock: UVAHIK_clean_linker_0, # of connection points: 2
#     Edge 64, Type (0, 1), BuildingBlock: UVAHIK_clean_linker_0, # of connection points: 2
#     Edge 65, Type (0, 1), BuildingBlock: UVAHIK_clean_linker_0, # of connection points: 2
#     Edge 66, Type (0, 1), BuildingBlock: UVAHIK_clean_linker_0, # of connection points: 2
#     Edge 67, Type (0, 1), BuildingBlock: UVAHIK_clean_linker_0, # of connection points: 2
#     Edge 68, Type (0, 1), BuildingBlock: UVAHIK_clean_linker_0, # of connection points: 2
#     Edge 69, Type (0, 1), BuildingBlock: UVAHIK_clean_linker_0, # of connection points: 2
#     Edge 70, Type (0, 1), BuildingBlock: UVAHIK_clean_linker_0, # of connection points: 2
#     Edge 71, Type (0, 1), BuildingBlock: UVAHIK_clean_linker_0, # of connection points: 2
#     Edge 72, Type (0, 1), BuildingBlock: UVAHIK_clean_linker_0, # of connection points: 2
#     Edge 73, Type (0, 1), BuildingBlock: UVAHIK_clean_linker_0, # of connection points: 2
#     Edge 74, Type (0, 1), BuildingBlock: UVAHIK_clean_linker_0, # of connection points: 2
#     Edge 75, Type (0, 1), BuildingBlock: UVAHIK_clean_linker_0, # of connection points: 2
#     Edge 76, Type (0, 1), BuildingBlock: UVAHIK_clean_linker_0, # of connection points: 2
#     Edge 77, Type (0, 1), BuildingBlock: UVAHIK_clean_linker_0, # of connection points: 2
#     Edge 78, Type (0, 1), BuildingBlock: UVAHIK_clean_linker_0, # of connection points: 2
#     Edge 79, Type (0, 1), BuildingBlock: UVAHIK_clean_linker_0, # of connection points: 2
#     Edge 80, Type (0, 1), BuildingBlock: UVAHIK_clean_linker_0, # of connection points: 2
#     Edge 81, Type (0, 1), BuildingBlock: UVAHIK_clean_linker_0, # of connection points: 2
#     Edge 82, Type (0, 1), BuildingBlock: UVAHIK_clean_linker_0, # of connection points: 2
#     Edge 83, Type (0, 1), BuildingBlock: UVAHIK_clean_linker_0, # of connection points: 2
#     Edge 84, Type (0, 1), BuildingBlock: UVAHIK_clean_linker_0, # of connection points: 2
#     Edge 85, Type (0, 1), BuildingBlock: UVAHIK_clean_linker_0, # of connection points: 2
#     Edge 86, Type (0, 1), BuildingBlock: UVAHIK_clean_linker_0, # of connection points: 2
#     Edge 87, Type (0, 1), BuildingBlock: UVAHIK_clean_linker_0, # of connection points: 2
#     Edge 88, Type (0, 1), BuildingBlock: UVAHIK_clean_linker_0, # of connection points: 2
#     Edge 89, Type (0, 1), BuildingBlock: UVAHIK_clean_linker_0, # of connection points: 2
#     Edge 90, Type (0, 1), BuildingBlock: UVAHIK_clean_linker_0, # of connection points: 2
#     Edge 91, Type (0, 1), BuildingBlock: UVAHIK_clean_linker_0, # of connection points: 2
#     Edge 92, Type (0, 1), BuildingBlock: UVAHIK_clean_linker_0, # of connection points: 2
#     Edge 93, Type (0, 1), BuildingBlock: UVAHIK_clean_linker_0, # of connection points: 2
#     Edge 94, Type (0, 1), BuildingBlock: UVAHIK_clean_linker_0, # of connection points: 2
#     Edge 95, Type (0, 1), BuildingBlock: UVAHIK_clean_linker_0, # of connection points: 2
#     Edge 96, Type (0, 1), BuildingBlock: UVAHIK_clean_linker_0, # of connection points: 2
#     Edge 97, Type (0, 1), BuildingBlock: UVAHIK_clean_linker_0, # of connection points: 2
#     Edge 98, Type (0, 1), BuildingBlock: UVAHIK_clean_linker_0, # of connection points: 2
#     Edge 99, Type (0, 1), BuildingBlock: UVAHIK_clean_linker_0, # of connection points: 2
#     Edge 100, Type (0, 1), BuildingBlock: UVAHIK_clean_linker_0, # of connection points: 2
#     Edge 101, Type (0, 1), BuildingBlock: UVAHIK_clean_linker_0, # of connection points: 2
#     Edge 102, Type (0, 1), BuildingBlock: UVAHIK_clean_linker_0, # of connection points: 2
#     Edge 103, Type (0, 1), BuildingBlock: UVAHIK_clean_linker_0, # of connection points: 2
#     Edge 104, Type (0, 1), BuildingBlock: UVAHIK_clean_linker_0, # of connection points: 2
#     Edge 105, Type (0, 1), BuildingBlock: UVAHIK_clean_linker_0, # of connection points: 2
#     Edge 106, Type (0, 1), BuildingBlock: UVAHIK_clean_linker_0, # of connection points: 2
#     Edge 107, Type (0, 1), BuildingBlock: UVAHIK_clean_linker_0, # of connection points: 2
#     Edge 108, Type (0, 1), BuildingBlock: UVAHIK_clean_linker_0, # of connection points: 2
#     Edge 109, Type (0, 1), BuildingBlock: UVAHIK_clean_linker_0, # of connection points: 2
#     Edge 110, Type (0, 1), BuildingBlock: UVAHIK_clean_linker_0, # of connection points: 2
#     Edge 111, Type (0, 1), BuildingBlock: UVAHIK_clean_linker_0, # of connection points: 2
#     Edge 112, Type (0, 1), BuildingBlock: UVAHIK_clean_linker_0, # of connection points: 2
#     Edge 113, Type (0, 1), BuildingBlock: UVAHIK_clean_linker_0, # of connection points: 2
#     Edge 114, Type (0, 1), BuildingBlock: UVAHIK_clean_linker_0, # of connection points: 2
#     Edge 115, Type (0, 1), BuildingBlock: UVAHIK_clean_linker_0, # of connection points: 2
#     Edge 116, Type (0, 1), BuildingBlock: UVAHIK_clean_linker_0, # of connection points: 2
#     Edge 117, Type (0, 1), BuildingBlock: UVAHIK_clean_linker_0, # of connection points: 2
#     Edge 118, Type (0, 1), BuildingBlock: UVAHIK_clean_linker_0, # of connection points: 2
#     Edge 119, Type (0, 1), BuildingBlock: UVAHIK_clean_linker_0, # of connection points: 2
#     Edge 120, Type (0, 1), BuildingBlock: UVAHIK_clean_linker_0, # of connection points: 2
#     Edge 121, Type (0, 1), BuildingBlock: UVAHIK_clean_linker_0, # of connection points: 2
#     Edge 122, Type (0, 1), BuildingBlock: UVAHIK_clean_linker_0, # of connection points: 2
#     Edge 123, Type (0, 1), BuildingBlock: UVAHIK_clean_linker_0, # of connection points: 2
#     Edge 124, Type (0, 1), BuildingBlock: UVAHIK_clean_linker_0, # of connection points: 2
#     Edge 125, Type (0, 1), BuildingBlock: UVAHIK_clean_linker_0, # of connection points: 2
#     Edge 126, Type (0, 1), BuildingBlock: UVAHIK_clean_linker_0, # of connection points: 2
#     Edge 127, Type (0, 1), BuildingBlock: UVAHIK_clean_linker_0, # of connection points: 2
#     Edge 128, Type (0, 1), BuildingBlock: UVAHIK_clean_linker_0, # of connection points: 2
#     Edge 129, Type (0, 1), BuildingBlock: UVAHIK_clean_linker_0, # of connection points: 2
#     Edge 130, Type (0, 1), BuildingBlock: UVAHIK_clean_linker_0, # of connection points: 2
#     Edge 131, Type (0, 1), BuildingBlock: UVAHIK_clean_linker_0, # of connection points: 2
#     Edge 132, Type (0, 1), BuildingBlock: UVAHIK_clean_linker_0, # of connection points: 2
#     Edge 133, Type (0, 1), BuildingBlock: UVAHIK_clean_linker_0, # of connection points: 2
#     Edge 134, Type (0, 1), BuildingBlock: UVAHIK_clean_linker_0, # of connection points: 2
#     Edge 135, Type (0, 1), BuildingBlock: UVAHIK_clean_linker_0, # of connection points: 2
# Relax obj value: 0.350
# Max RMSD: 0.306
# Mean RMSD: 0.277
data_MOF--net-ibd--node1-CEKHIL_clean_sbu_0--node2-CIFDUS_clean_sbu_1--edge1-UVAHIK_clean_linker_0
_symmetry_space_group_name_H-M    P1
_symmetry_Int_Tables_number       1
_symmetry_cell_setting            triclinic
loop_
_symmetry_equiv_pos_as_xyz
'x, y, z'
_cell_length_a     59.620522
_cell_length_b     61.266906
_cell_length_c     62.12013
_cell_angle_alpha  91.042471
_cell_angle_beta   89.566802
_cell_angle_gamma 94.073621
loop_
_atom_site_label
_atom_site_type_symbol
_atom_site_fract_x
_atom_site_fract_y
_atom_site_fract_z
_atom_type_partial_charge
Co0 Co 0.03566 0.31308 0.36103 0.0
O1 O 0.04437 0.32805 0.33481 0.0
O2 O 0.00998 0.32531 0.34876 0.0
C3 C 0.06391 0.32658 0.38228 0.0
O4 O 0.02035 0.3003 0.38798 0.0
Co5 Co 0.06515 0.27864 0.38019 0.0
O6 O 0.0456 0.28201 0.40579 0.0
C7 C 0.03924 0.26756 0.34105 0.0
C8 C 0.02343 0.3325 0.3335 0.0
C9 C 0.0268 0.29061 0.40485 0.0
O10 O 0.02892 0.28513 0.34386 0.0
O11 O 0.0556 0.26275 0.35289 0.0
O12 O 0.04701 0.33815 0.37835 0.0
O13 O 0.06467 0.30872 0.37091 0.0
Co14 Co 0.97518 0.78002 0.65185 0.0
O15 O 0.95853 0.79107 0.6757 0.0
O16 O 0.99383 0.80189 0.66762 0.0
C17 C 0.9491 0.78094 0.62612 0.0
O18 O 0.99724 0.77273 0.62794 0.0
Co19 Co 0.95958 0.73498 0.63146 0.0
O20 O 0.98 0.74563 0.60784 0.0
C21 C 0.97904 0.73671 0.67448 0.0
C22 C 0.97671 0.80299 0.68063 0.0
C23 C 0.99547 0.76088 0.61058 0.0
O24 O 0.98568 0.75677 0.67108 0.0
O25 O 0.96664 0.72517 0.66122 0.0
O26 O 0.96101 0.79873 0.63171 0.0
O27 O 0.95103 0.76438 0.63845 0.0
Co28 Co 0.53091 0.81679 0.8599 0.0
O29 O 0.53957 0.83365 0.83476 0.0
O30 O 0.50484 0.82817 0.8475 0.0
C31 C 0.55726 0.83014 0.88321 0.0
O32 O 0.51549 0.80176 0.88576 0.0
Co33 Co 0.56183 0.78301 0.87801 0.0
O34 O 0.54169 0.78453 0.90341 0.0
C35 C 0.53762 0.77274 0.83781 0.0
C36 C 0.51834 0.83686 0.83298 0.0
C37 C 0.52237 0.79212 0.90251 0.0
O38 O 0.52641 0.78968 0.84106 0.0
O39 O 0.55375 0.76799 0.84995 0.0
O40 O 0.54008 0.84123 0.87891 0.0
O41 O 0.55986 0.81348 0.87052 0.0
Co42 Co 0.49007 0.28014 0.15128 0.0
O43 O 0.4708 0.28848 0.17436 0.0
O44 O 0.50474 0.30421 0.16779 0.0
C45 C 0.46476 0.2775 0.1247 0.0
O46 O 0.514 0.27601 0.12814 0.0
Co47 Co 0.48157 0.23363 0.13129 0.0
O48 O 0.50313 0.24547 0.10912 0.0
C49 C 0.49856 0.2386 0.17509 0.0
C50 C 0.48689 0.30275 0.18005 0.0
C51 C 0.51579 0.26299 0.11173 0.0
O52 O 0.50332 0.2589 0.17107 0.0
O53 O 0.48777 0.22557 0.16186 0.0
O54 O 0.47395 0.29654 0.13058 0.0
O55 O 0.46868 0.26147 0.13712 0.0
Co56 Co 0.0096 0.80248 0.12374 0.0
O57 O 0.00517 0.82292 0.10147 0.0
O58 O 0.98284 0.79314 0.10765 0.0
C59 C 0.01706 0.82595 0.15115 0.0
O60 O 0.00872 0.77833 0.14601 0.0
Co61 Co 0.05716 0.80075 0.14284 0.0
O62 O 0.04045 0.78355 0.1654 0.0
C63 C 0.04903 0.78468 0.09898 0.0
C64 C 0.98777 0.81019 0.09587 0.0
C65 C 0.02065 0.77465 0.16263 0.0
O66 O 0.02795 0.78558 0.10293 0.0
O67 O 0.06424 0.79144 0.11242 0.0
O68 O 0.99639 0.82104 0.14527 0.0
O69 O 0.03239 0.81928 0.13818 0.0
Co70 Co 0.50788 0.76517 0.39774 0.0
O71 O 0.4881 0.76311 0.42244 0.0
O72 O 0.51061 0.79215 0.41412 0.0
C73 C 0.48413 0.75139 0.37234 0.0
O74 O 0.52932 0.77387 0.37307 0.0
Co75 Co 0.52239 0.7231 0.3748 0.0
O76 O 0.53242 0.74389 0.3521 0.0
C77 C 0.54239 0.73588 0.41632 0.0
C78 C 0.49584 0.78296 0.42723 0.0
C79 C 0.53531 0.76448 0.35541 0.0
O80 O 0.53254 0.7538 0.41549 0.0
O81 O 0.53969 0.72055 0.40212 0.0
O82 O 0.48325 0.77146 0.37928 0.0
O83 O 0.49676 0.73939 0.38341 0.0
Co84 Co 0.50876 0.30695 0.62389 0.0
O85 O 0.50205 0.32599 0.60102 0.0
O86 O 0.48508 0.29307 0.60619 0.0
C87 C 0.50983 0.33092 0.65158 0.0
O88 O 0.51086 0.28337 0.6464 0.0
Co89 Co 0.55504 0.31372 0.64588 0.0
O90 O 0.5402 0.29401 0.66762 0.0
C91 C 0.55297 0.29653 0.60188 0.0
C92 C 0.4876 0.31047 0.59446 0.0
C93 C 0.52232 0.28191 0.66379 0.0
O94 O 0.53159 0.29377 0.60454 0.0
O95 O 0.56593 0.30594 0.61609 0.0
O96 O 0.49066 0.32255 0.64427 0.0
O97 O 0.52722 0.32734 0.63968 0.0
Co98 Co 0.00243 0.27329 0.89425 0.0
O99 O 0.98525 0.27082 0.92058 0.0
O100 O 0.00554 0.30056 0.91019 0.0
C101 C 0.97714 0.25814 0.87099 0.0
O102 O 0.02092 0.28222 0.86763 0.0
Co103 Co 0.01663 0.23121 0.87107 0.0
O104 O 0.02421 0.2517 0.8474 0.0
C105 C 0.03821 0.245 0.91152 0.0
C106 C 0.99264 0.29092 0.92466 0.0
C107 C 0.02597 0.27245 0.84986 0.0
O108 O 0.02929 0.26336 0.90987 0.0
O109 O 0.03394 0.22893 0.89841 0.0
O110 O 0.97575 0.27814 0.87795 0.0
O111 O 0.99119 0.24693 0.88123 0.0
Co112 Co 0.37178 0.02077 0.23111 0.0
O113 O 0.3937 0.01316 0.20981 0.0
O114 O 0.3837 0.99339 0.23831 0.0
C115 C 0.34526 0.03102 0.20867 0.0
O116 O 0.34905 0.02227 0.25567 0.0
Co117 Co 0.35832 0.06823 0.23754 0.0
O118 O 0.33315 0.05442 0.25483 0.0
C119 C 0.40305 0.05714 0.25094 0.0
C120 C 0.39645 0.99608 0.22135 0.0
C121 C 0.33372 0.03495 0.2616 0.0
O122 O 0.39664 0.03681 0.24817 0.0
O123 O 0.39072 0.07266 0.24637 0.0
O124 O 0.34701 0.01036 0.21235 0.0
O125 O 0.36097 0.04433 0.21667 0.0
Co126 Co 0.2333 0.15318 0.54112 0.0
O127 O 0.22351 0.13189 0.56235 0.0
O128 O 0.25893 0.13998 0.55248 0.0
C129 C 0.21343 0.18121 0.55155 0.0
O130 O 0.24977 0.17451 0.52062 0.0
Co131 Co 0.19922 0.16703 0.50753 0.0
O132 O 0.22419 0.18835 0.49913 0.0
C133 C 0.21604 0.12355 0.5037 0.0
C134 C 0.2446 0.12812 0.56401 0.0
C135 C 0.2442 0.18777 0.50606 0.0
O136 O 0.23044 0.12945 0.5183 0.0
O137 O 0.20046 0.13558 0.49811 0.0
O138 O 0.23173 0.17724 0.56156 0.0
O139 O 0.20576 0.16606 0.53815 0.0
Co140 Co 0.12728 0.07613 0.7369 0.0
O141 O 0.15205 0.07918 0.71693 0.0
O142 O 0.13737 0.04773 0.72976 0.0
C143 C 0.10385 0.09812 0.72168 0.0
O144 O 0.10122 0.06683 0.75695 0.0
Co145 Co 0.11631 0.11605 0.76514 0.0
O146 O 0.08789 0.09791 0.77007 0.0
C147 C 0.15541 0.09248 0.77592 0.0
C148 C 0.15265 0.05808 0.71795 0.0
C149 C 0.08605 0.07726 0.7668 0.0
O150 O 0.14902 0.07827 0.76144 0.0
O151 O 0.14555 0.11015 0.7792 0.0
O152 O 0.10573 0.0784 0.71414 0.0
O153 O 0.11893 0.1051 0.73561 0.0
Co154 Co 0.26514 0.91353 0.01676 0.0
O155 O 0.2797 0.89108 0.0311 0.0
O156 O 0.28706 0.90161 0.99757 0.0
C157 C 0.26669 0.93851 0.04359 0.0
O158 O 0.25455 0.93731 0.99748 0.0
Co159 Co 0.2189 0.92694 0.03267 0.0
O160 O 0.22813 0.95381 0.01641 0.0
C161 C 0.22115 0.88512 0.00976 0.0
C162 C 0.29104 0.88884 0.01339 0.0
C163 C 0.24279 0.95382 0.00135 0.0
O164 O 0.2418 0.89093 0.0054 0.0
O165 O 0.2089 0.89665 0.0218 0.0
O166 O 0.28419 0.93603 0.03141 0.0
O167 O 0.25006 0.92388 0.041 0.0
Co168 Co 0.28919 0.4149 0.02279 0.0
O169 O 0.30985 0.39256 0.02707 0.0
O170 O 0.29442 0.39994 0.99592 0.0
C171 C 0.30722 0.44293 0.04077 0.0
O172 O 0.26831 0.43739 0.01195 0.0
Co173 Co 0.2631 0.43321 0.06168 0.0
O174 O 0.25743 0.45641 0.04107 0.0
C175 C 0.24873 0.38988 0.04423 0.0
C176 C 0.30753 0.38806 0.00665 0.0
C177 C 0.25953 0.45403 0.02076 0.0
O178 O 0.26323 0.3929 0.02898 0.0
O179 O 0.24663 0.40358 0.05977 0.0
O180 O 0.31372 0.43737 0.02154 0.0
O181 O 0.2928 0.42905 0.04977 0.0
Co182 Co 0.74736 0.17005 0.01049 0.0
O183 O 0.76776 0.14846 0.00308 0.0
O184 O 0.73504 0.15165 0.98704 0.0
C185 C 0.7723 0.19905 0.01289 0.0
O186 O 0.72267 0.19118 0.01421 0.0
Co187 Co 0.75164 0.19055 0.05619 0.0
O188 O 0.73008 0.21079 0.04469 0.0
C189 C 0.73729 0.14444 0.05074 0.0
C190 C 0.7529 0.14081 0.98925 0.0
C191 C 0.71907 0.20718 0.02728 0.0
O192 O 0.7324 0.14907 0.03138 0.0
O193 O 0.7474 0.15847 0.06349 0.0
O194 O 0.76464 0.19233 0.99419 0.0
O195 O 0.76703 0.18628 0.02881 0.0
Co196 Co 0.13568 0.53868 0.28045 0.0
O197 O 0.1558 0.51886 0.29185 0.0
O198 O 0.15206 0.55255 0.30446 0.0
C199 C 0.10546 0.51488 0.27737 0.0
O200 O 0.11536 0.56301 0.27356 0.0
Co201 Co 0.1176 0.53145 0.23416 0.0
O202 O 0.09533 0.55206 0.2443 0.0
C203 C 0.16443 0.54794 0.24015 0.0
C204 C 0.16188 0.5343 0.3056 0.0
C205 C 0.09871 0.56466 0.2607 0.0
O206 O 0.16006 0.55048 0.2603 0.0
O207 O 0.15012 0.53897 0.22686 0.0
O208 O 0.11047 0.52415 0.29588 0.0
O209 O 0.12027 0.51824 0.26223 0.0
Co210 Co 0.79375 0.91493 0.51964 0.0
O211 O 0.81706 0.89501 0.52315 0.0
O212 O 0.79847 0.89954 0.49295 0.0
C213 C 0.80986 0.94513 0.53552 0.0
O214 O 0.76975 0.93446 0.50952 0.0
Co215 Co 0.76849 0.93209 0.55966 0.0
O216 O 0.75589 0.95168 0.53854 0.0
C217 C 0.75909 0.88667 0.54544 0.0
C218 C 0.81351 0.88939 0.50311 0.0
C219 C 0.75771 0.94891 0.51823 0.0
O220 O 0.7706 0.891 0.52828 0.0
O221 O 0.75757 0.90045 0.56101 0.0
O222 O 0.81571 0.93954 0.51609 0.0
O223 O 0.79768 0.93035 0.54583 0.0
Co224 Co 0.88029 0.02371 0.27642 0.0
O225 O 0.90307 0.00418 0.26855 0.0
O226 O 0.89497 0.01438 0.30194 0.0
C227 C 0.8524 0.0093 0.25542 0.0
O228 O 0.85694 0.0424 0.29061 0.0
Co229 Co 0.86316 0.05478 0.24225 0.0
O230 O 0.8388 0.05772 0.26374 0.0
C231 C 0.90854 0.06329 0.2595 0.0
C232 C 0.90739 0.00338 0.28896 0.0
C233 C 0.84036 0.05258 0.28345 0.0
O234 O 0.90352 0.04923 0.2742 0.0
O235 O 0.89526 0.06679 0.24406 0.0
O236 O 0.85671 0.00022 0.27356 0.0
O237 O 0.86706 0.02453 0.24929 0.0
Co238 Co 0.26634 0.66957 0.50841 0.0
O239 O 0.28587 0.6501 0.49417 0.0
O240 O 0.24935 0.65112 0.48801 0.0
C241 C 0.28875 0.70049 0.50668 0.0
O242 O 0.24104 0.68789 0.51881 0.0
Co243 Co 0.27833 0.69143 0.55235 0.0
O244 O 0.25546 0.71169 0.5438 0.0
C245 C 0.26426 0.64478 0.55082 0.0
C246 C 0.26801 0.64191 0.48423 0.0
C247 C 0.24029 0.70559 0.53021 0.0
O248 O 0.25957 0.64686 0.53088 0.0
O249 O 0.27287 0.66048 0.56263 0.0
O250 O 0.27689 0.69363 0.49006 0.0
O251 O 0.28865 0.6872 0.52268 0.0
Co252 Co 0.37881 0.51805 0.77752 0.0
O253 O 0.39841 0.49802 0.76404 0.0
O254 O 0.39582 0.50446 0.79919 0.0
C255 C 0.347 0.50844 0.75957 0.0
O256 O 0.35992 0.53662 0.79724 0.0
Co257 Co 0.35988 0.55464 0.75042 0.0
O258 O 0.34194 0.55978 0.77673 0.0
C259 C 0.40792 0.55648 0.76022 0.0
C260 C 0.40541 0.49444 0.78333 0.0
C261 C 0.34551 0.55107 0.79475 0.0
O262 O 0.40367 0.542 0.77469 0.0
O263 O 0.39293 0.56244 0.74737 0.0
O264 O 0.35301 0.49678 0.77557 0.0
O265 O 0.36191 0.5233 0.75314 0.0
Co266 Co 0.63285 0.03368 0.78036 0.0
O267 O 0.65372 0.01477 0.79201 0.0
O268 O 0.64914 0.04864 0.80378 0.0
C269 C 0.60321 0.00912 0.77809 0.0
O270 O 0.61181 0.05723 0.77305 0.0
Co271 Co 0.61455 0.02488 0.73438 0.0
O272 O 0.59193 0.04538 0.744 0.0
C273 C 0.66085 0.0432 0.73958 0.0
C274 C 0.6596 0.03079 0.80519 0.0
C275 C 0.59517 0.05841 0.7601 0.0
O276 O 0.65664 0.0457 0.75976 0.0
O277 O 0.64672 0.03358 0.72652 0.0
O278 O 0.6082 0.01893 0.79636 0.0
O279 O 0.6178 0.01245 0.76274 0.0
Co280 Co 0.73674 0.65519 0.02509 0.0
O281 O 0.73023 0.63234 0.04562 0.0
O282 O 0.7642 0.64295 0.03331 0.0
C283 C 0.71626 0.68138 0.03905 0.0
O284 O 0.74994 0.67869 0.00488 0.0
Co285 Co 0.69874 0.66873 0.99554 0.0
O286 O 0.72062 0.69396 0.99008 0.0
C287 C 0.71806 0.62696 0.98714 0.0
C288 C 0.7517 0.62986 0.04541 0.0
C289 C 0.74153 0.69401 0.99426 0.0
O290 O 0.73327 0.6328 0.00101 0.0
O291 O 0.70131 0.6383 0.98356 0.0
O292 O 0.73553 0.6776 0.04733 0.0
O293 O 0.70828 0.66665 0.02532 0.0
Co294 Co 0.86936 0.4976 0.73334 0.0
O295 O 0.88937 0.48205 0.71528 0.0
O296 O 0.881 0.47412 0.74924 0.0
C297 C 0.84136 0.50079 0.70997 0.0
O298 O 0.84845 0.50914 0.75641 0.0
Co299 Co 0.85953 0.5451 0.72314 0.0
O300 O 0.83343 0.53839 0.74258 0.0
C301 C 0.90335 0.53708 0.74064 0.0
C302 C 0.89275 0.47033 0.73202 0.0
C303 C 0.83321 0.52306 0.7562 0.0
O304 O 0.89584 0.51719 0.74356 0.0
O305 O 0.89187 0.55118 0.73162 0.0
O306 O 0.84298 0.48253 0.72007 0.0
O307 O 0.85841 0.51501 0.71196 0.0
Co308 Co 0.7673 0.41124 0.52048 0.0
O309 O 0.78387 0.38836 0.53154 0.0
O310 O 0.78371 0.39805 0.49722 0.0
C311 C 0.77615 0.43635 0.54623 0.0
O312 O 0.75357 0.43532 0.50374 0.0
Co313 Co 0.72678 0.42759 0.54578 0.0
O314 O 0.73323 0.45369 0.5276 0.0
C315 C 0.72211 0.3846 0.52448 0.0
C316 C 0.79082 0.38541 0.51193 0.0
C317 C 0.74401 0.45265 0.50984 0.0
O318 O 0.74095 0.38944 0.51489 0.0
O319 O 0.71383 0.39715 0.5387 0.0
O320 O 0.7902 0.43312 0.53056 0.0
O321 O 0.75871 0.42252 0.54715 0.0
Co322 Co 0.62173 0.55937 0.24158 0.0
O323 O 0.64438 0.55931 0.21945 0.0
O324 O 0.63038 0.52995 0.23672 0.0
C325 C 0.59783 0.58049 0.22583 0.0
O326 O 0.59738 0.55328 0.26436 0.0
Co327 Co 0.61398 0.60246 0.26628 0.0
O328 O 0.58521 0.58604 0.27388 0.0
C329 C 0.65363 0.57926 0.27641 0.0
C330 C 0.64452 0.53843 0.22257 0.0
C331 C 0.58273 0.5652 0.27311 0.0
O332 O 0.64587 0.56362 0.26397 0.0
O333 O 0.64416 0.59727 0.27871 0.0
O334 O 0.59812 0.55991 0.22045 0.0
O335 O 0.61424 0.58831 0.23791 0.0
O336 O 0.13913 0.17439 0.1072 0.0
Mn337 Mn 0.12882 0.15113 0.13012 0.0
O338 O 0.15696 0.20246 0.12592 0.0
Mn339 Mn 0.15355 0.19148 0.1535 0.0
O340 O 0.11746 0.12899 0.1538 0.0
O341 O 0.10505 0.13895 0.11025 0.0
Mn342 Mn 0.10079 0.11032 0.11084 0.0
O343 O 0.15089 0.1295 0.11709 0.0
O344 O 0.09029 0.10634 0.13868 0.0
O345 O 0.10607 0.17197 0.14381 0.0
O346 O 0.12591 0.19535 0.16616 0.0
O347 O 0.08492 0.11999 0.08742 0.0
O348 O 0.129 0.10031 0.10508 0.0
C349 C 0.17155 0.16276 0.16014 0.0
C350 C 0.14976 0.19339 0.10839 0.0
C351 C 0.10063 0.11468 0.15515 0.0
C352 C 0.09405 0.13909 0.09267 0.0
C353 C 0.14827 0.11039 0.10816 0.0
C354 C 0.1073 0.18674 0.15883 0.0
O355 O 0.15303 0.16299 0.14981 0.0
O356 O 0.1784 0.18187 0.16768 0.0
O357 O 0.10424 0.87552 0.37326 0.0
Mn358 Mn 0.12496 0.89 0.39713 0.0
O359 O 0.12546 0.85402 0.3528 0.0
Mn360 Mn 0.15315 0.86193 0.36537 0.0
O361 O 0.14626 0.90571 0.42009 0.0
O362 O 0.10203 0.91174 0.40244 0.0
Mn363 Mn 0.09759 0.91664 0.43015 0.0
O364 O 0.10972 0.86952 0.42029 0.0
O365 O 0.12532 0.92832 0.43955 0.0
O366 O 0.14174 0.91018 0.37418 0.0
O367 O 0.16601 0.88886 0.3569 0.0
O368 O 0.07747 0.93265 0.41545 0.0
O369 O 0.08809 0.88971 0.44155 0.0
C370 C 0.15708 0.85131 0.39825 0.0
C371 C 0.10678 0.86202 0.35748 0.0
C372 C 0.14418 0.92106 0.43424 0.0
C373 C 0.08597 0.92394 0.39841 0.0
C374 C 0.09579 0.87156 0.43592 0.0
C375 C 0.15821 0.90746 0.36097 0.0
O376 O 0.14686 0.86775 0.39228 0.0
O377 O 0.1667 0.84165 0.38241 0.0
O378 O 0.40263 0.93864 0.65597 0.0
Mn379 Mn 0.38135 0.92452 0.63234 0.0
O380 O 0.4276 0.9617 0.63879 0.0
Mn381 Mn 0.41698 0.9571 0.6109 0.0
O382 O 0.36079 0.90984 0.60803 0.0
O383 O 0.37486 0.89891 0.65128 0.0
Mn384 Mn 0.3464 0.88927 0.65084 0.0
O385 O 0.35453 0.93995 0.6462 0.0
O386 O 0.34197 0.88036 0.62257 0.0
O387 O 0.40751 0.90837 0.61765 0.0
O388 O 0.42671 0.93285 0.59658 0.0
O389 O 0.36047 0.87353 0.67153 0.0
O390 O 0.33083 0.91311 0.65949 0.0
C391 C 0.38415 0.96892 0.60554 0.0
C392 C 0.41963 0.95279 0.65592 0.0
C393 C 0.34811 0.89198 0.60644 0.0
C394 C 0.37813 0.88608 0.66688 0.0
C395 C 0.33634 0.93329 0.65609 0.0
C396 C 0.42203 0.91329 0.60274 0.0
O397 O 0.38795 0.95057 0.61398 0.0
O398 O 0.40223 0.97933 0.59837 0.0
O399 O 0.40098 0.1895 0.90681 0.0
Mn400 Mn 0.38704 0.16633 0.88473 0.0
O401 O 0.42515 0.17218 0.92729 0.0
Mn402 Mn 0.41836 0.14402 0.91648 0.0
O403 O 0.37219 0.14203 0.86403 0.0
O404 O 0.36199 0.18545 0.88029 0.0
Mn405 Mn 0.35188 0.18478 0.85391 0.0
O406 O 0.40438 0.18148 0.85898 0.0
O407 O 0.3414 0.15598 0.85034 0.0
O408 O 0.36857 0.15044 0.90935 0.0
O409 O 0.39208 0.13004 0.92711 0.0
O410 O 0.337 0.20603 0.86918 0.0
O411 O 0.37715 0.19256 0.83731 0.0
C412 C 0.4292 0.13625 0.88414 0.0
C413 C 0.41542 0.18923 0.9221 0.0
C414 C 0.35341 0.14002 0.85386 0.0
C415 C 0.34977 0.20127 0.88488 0.0
C416 C 0.39777 0.18997 0.84148 0.0
C417 C 0.37236 0.1357 0.92309 0.0
O418 O 0.41273 0.14779 0.88911 0.0
O419 O 0.43909 0.12886 0.90066 0.0
O420 O 0.59552 0.37849 0.86964 0.0
Mn421 Mn 0.61952 0.39419 0.89027 0.0
O422 O 0.61511 0.35797 0.84663 0.0
Mn423 Mn 0.64394 0.36491 0.8569 0.0
O424 O 0.64446 0.41023 0.90966 0.0
O425 O 0.59837 0.41785 0.89642 0.0
Mn426 Mn 0.59875 0.42401 0.92435 0.0
O427 O 0.60642 0.37571 0.91615 0.0
O428 O 0.62766 0.43477 0.93046 0.0
O429 O 0.63401 0.41272 0.865 0.0
O430 O 0.65751 0.39111 0.84734 0.0
O431 O 0.57868 0.44179 0.91256 0.0
O432 O 0.58953 0.39869 0.93861 0.0
C433 C 0.64925 0.35322 0.88911 0.0
C434 C 0.59665 0.36495 0.85359 0.0
C435 C 0.64517 0.42624 0.92336 0.0
C436 C 0.58385 0.43242 0.89451 0.0
C437 C 0.59552 0.3797 0.93356 0.0
C438 C 0.64995 0.40978 0.85132 0.0
O439 O 0.64002 0.37071 0.8843 0.0
O440 O 0.65741 0.34357 0.87242 0.0
O441 O 0.90344 0.43776 0.1591 0.0
Mn442 Mn 0.88363 0.4217 0.13534 0.0
O443 O 0.9261 0.46321 0.14224 0.0
Mn444 Mn 0.91713 0.45665 0.11415 0.0
O445 O 0.8645 0.40522 0.11113 0.0
O446 O 0.8789 0.39611 0.1546 0.0
Mn447 Mn 0.85108 0.38464 0.15461 0.0
O448 O 0.85495 0.43506 0.14815 0.0
O449 O 0.84667 0.37551 0.12635 0.0
O450 O 0.91142 0.40751 0.12151 0.0
O451 O 0.92988 0.43312 0.10117 0.0
O452 O 0.86662 0.37 0.1751 0.0
O453 O 0.834 0.40728 0.16354 0.0
C454 C 0.88347 0.46457 0.10627 0.0
C455 C 0.91885 0.45357 0.15927 0.0
C456 C 0.85236 0.38701 0.11 0.0
C457 C 0.88336 0.3836 0.17012 0.0
C458 C 0.83759 0.42741 0.15878 0.0
C459 C 0.92636 0.4134 0.10729 0.0
O460 O 0.88859 0.44769 0.1166 0.0
O461 O 0.90081 0.47635 0.09942 0.0
O462 O 0.89852 0.68647 0.40797 0.0
Mn463 Mn 0.88487 0.6633 0.38569 0.0
O464 O 0.92276 0.66925 0.42848 0.0
Mn465 Mn 0.91662 0.64118 0.41714 0.0
O466 O 0.87038 0.63889 0.36483 0.0
O467 O 0.85937 0.68202 0.38151 0.0
Mn468 Mn 0.84891 0.68095 0.35528 0.0
O469 O 0.90174 0.67896 0.35993 0.0
O470 O 0.83877 0.65204 0.35204 0.0
O471 O 0.86674 0.64689 0.41027 0.0
O472 O 0.89063 0.6265 0.42754 0.0
O473 O 0.83407 0.70229 0.37039 0.0
O474 O 0.87389 0.68895 0.33837 0.0
C475 C 0.92789 0.63423 0.38477 0.0
C476 C 0.91281 0.68621 0.42342 0.0
C477 C 0.85134 0.63642 0.35513 0.0
C478 C 0.84725 0.698 0.38593 0.0
C479 C 0.89469 0.68708 0.34241 0.0
C480 C 0.8708 0.63199 0.42375 0.0
O481 O 0.911 0.64522 0.38981 0.0
O482 O 0.93786 0.62681 0.40124 0.0
O483 O 0.86315 0.89735 0.90637 0.0
Mn484 Mn 0.87836 0.92493 0.89172 0.0
O485 O 0.84538 0.87656 0.88042 0.0
Mn486 Mn 0.85572 0.89295 0.85701 0.0
O487 O 0.89432 0.9521 0.87677 0.0
O488 O 0.89839 0.92942 0.91718 0.0
Mn489 Mn 0.90196 0.95689 0.92575 0.0
O490 O 0.85505 0.9445 0.90636 0.0
O491 O 0.91489 0.97099 0.90212 0.0
O492 O 0.9022 0.90614 0.8765 0.0
O493 O 0.88476 0.88845 0.84833 0.0
O494 O 0.9185 0.94082 0.94431 0.0
O495 O 0.87309 0.96415 0.93295 0.0
C496 C 0.84187 0.92446 0.85395 0.0
C497 C 0.8508 0.88048 0.90001 0.0
C498 C 0.90894 0.96749 0.88258 0.0
C499 C 0.91065 0.9242 0.93288 0.0
C500 C 0.85536 0.9582 0.92235 0.0
C501 C 0.90233 0.89412 0.85927 0.0
O502 O 0.85789 0.9202 0.86656 0.0
O503 O 0.8353 0.90807 0.84162 0.0
O504 O 0.89948 0.20461 0.6442 0.0
Mn505 Mn 0.88066 0.1894 0.61918 0.0
O506 O 0.87678 0.22685 0.66204 0.0
Mn507 Mn 0.85005 0.21763 0.64843 0.0
O508 O 0.86138 0.17294 0.59511 0.0
O509 O 0.90375 0.16788 0.61599 0.0
Mn510 Mn 0.91084 0.1617 0.58919 0.0
O511 O 0.8977 0.20944 0.59663 0.0
O512 O 0.88382 0.14949 0.57852 0.0
O513 O 0.86263 0.16947 0.64139 0.0
O514 O 0.83758 0.19074 0.65757 0.0
O515 O 0.93019 0.14757 0.6069 0.0
O516 O 0.92082 0.18845 0.57775 0.0
C517 C 0.84738 0.22687 0.61494 0.0
C518 C 0.89576 0.21878 0.6591 0.0
C519 C 0.8646 0.15698 0.58193 0.0
C520 C 0.91999 0.15718 0.62243 0.0
C521 C 0.91296 0.20682 0.58227 0.0
C522 C 0.84582 0.17225 0.6541 0.0
O523 O 0.85798 0.21118 0.62205 0.0
O524 O 0.83673 0.23679 0.62995 0.0
O525 O 0.63391 0.17743 0.4186 0.0
Mn526 Mn 0.62167 0.15191 0.39835 0.0
O527 O 0.65239 0.20209 0.39713 0.0
Mn528 Mn 0.65033 0.18613 0.37137 0.0
O529 O 0.60821 0.12694 0.37751 0.0
O530 O 0.59633 0.14632 0.41883 0.0
Mn531 Mn 0.58856 0.11858 0.42258 0.0
O532 O 0.64053 0.12999 0.41461 0.0
O533 O 0.57868 0.11036 0.39533 0.0
O534 O 0.60185 0.17258 0.3812 0.0
O535 O 0.6243 0.18933 0.35627 0.0
O536 O 0.57361 0.13457 0.44345 0.0
O537 O 0.6149 0.10673 0.4309 0.0
C538 C 0.66674 0.1557 0.36947 0.0
C539 C 0.64465 0.19604 0.41547 0.0
C540 C 0.59009 0.11408 0.37811 0.0
C541 C 0.58521 0.15129 0.43572 0.0
C542 C 0.63519 0.11336 0.42645 0.0
C543 C 0.60488 0.18383 0.36398 0.0
O544 O 0.64767 0.15835 0.37853 0.0
O545 O 0.67531 0.17316 0.36027 0.0
O546 O 0.61495 0.8804 0.1053 0.0
Mn547 Mn 0.62973 0.90078 0.12961 0.0
O548 O 0.59206 0.90123 0.0871 0.0
Mn549 Mn 0.59969 0.92772 0.10093 0.0
O550 O 0.64421 0.92192 0.15327 0.0
O551 O 0.65556 0.88108 0.1313 0.0
Mn552 Mn 0.66034 0.87621 0.1588 0.0
O553 O 0.61076 0.88278 0.1527 0.0
O554 O 0.6682 0.9029 0.17189 0.0
O555 O 0.64903 0.91962 0.10753 0.0
O556 O 0.6262 0.94248 0.09217 0.0
O557 O 0.68133 0.86142 0.14393 0.0
O558 O 0.6345 0.86151 0.16901 0.0
C559 C 0.58767 0.93116 0.13348 0.0
C560 C 0.60025 0.88291 0.0906 0.0
C561 C 0.6592 0.92059 0.16783 0.0
C562 C 0.67191 0.86873 0.12704 0.0
C563 C 0.61485 0.86757 0.1658 0.0
C564 C 0.64569 0.93611 0.09575 0.0
O565 O 0.60447 0.92038 0.12764 0.0
O566 O 0.57865 0.94103 0.11787 0.0
O567 O 0.40502 0.70348 0.14491 0.0
Mn568 Mn 0.38597 0.68834 0.11997 0.0
O569 O 0.38167 0.7236 0.16448 0.0
Mn570 Mn 0.3549 0.7139 0.15121 0.0
O571 O 0.36655 0.67187 0.09601 0.0
O572 O 0.41 0.66804 0.1152 0.0
Mn573 Mn 0.41637 0.66315 0.08797 0.0
O574 O 0.40132 0.70987 0.09762 0.0
O575 O 0.38946 0.64996 0.07794 0.0
O576 O 0.36964 0.66688 0.14199 0.0
O577 O 0.34384 0.68627 0.1595 0.0
O578 O 0.43709 0.6493 0.1044 0.0
O579 O 0.42465 0.69058 0.07715 0.0
C580 C 0.35096 0.72466 0.11839 0.0
C581 C 0.40104 0.71672 0.16057 0.0
C582 C 0.36996 0.65634 0.08237 0.0
C583 C 0.42687 0.65768 0.12063 0.0
C584 C 0.41617 0.7084 0.08264 0.0
C585 C 0.35299 0.66841 0.1552 0.0
O586 O 0.36231 0.70897 0.12437 0.0
O587 O 0.34025 0.73334 0.13414 0.0
O588 O 0.13284 0.67266 0.89995 0.0
Mn589 Mn 0.11926 0.64406 0.88463 0.0
O590 O 0.14905 0.69308 0.87324 0.0
Mn591 Mn 0.14372 0.67383 0.84998 0.0
O592 O 0.10487 0.61643 0.86816 0.0
O593 O 0.09682 0.64009 0.90816 0.0
Mn594 Mn 0.09068 0.61272 0.91529 0.0
O595 O 0.14068 0.62517 0.90129 0.0
O596 O 0.07852 0.60055 0.89013 0.0
O597 O 0.09678 0.66177 0.86741 0.0
O598 O 0.1155 0.67493 0.83816 0.0
O599 O 0.07494 0.63026 0.93424 0.0
O600 O 0.11856 0.60336 0.92297 0.0
C601 C 0.15978 0.64312 0.85095 0.0
C602 C 0.14323 0.69034 0.89296 0.0
C603 C 0.08761 0.60305 0.87157 0.0
C604 C 0.08475 0.64636 0.92386 0.0
C605 C 0.13775 0.61014 0.91539 0.0
C606 C 0.09738 0.67069 0.8488 0.0
O607 O 0.14238 0.64798 0.8617 0.0
O608 O 0.16678 0.65829 0.83784 0.0
O609 O 0.11702 0.39292 0.60755 0.0
Mn610 Mn 0.12535 0.41107 0.63553 0.0
O611 O 0.09216 0.41095 0.589 0.0
Mn612 Mn 0.09715 0.43686 0.60466 0.0
O613 O 0.13519 0.42985 0.6629 0.0
O614 O 0.151 0.39241 0.63898 0.0
Mn615 Mn 0.15563 0.38537 0.66569 0.0
O616 O 0.10497 0.38898 0.65378 0.0
O617 O 0.16216 0.4121 0.67918 0.0
O618 O 0.14623 0.43325 0.618 0.0
O619 O 0.12371 0.45312 0.59849 0.0
O620 O 0.17558 0.37062 0.6485 0.0
O621 O 0.1287 0.37064 0.67376 0.0
C622 C 0.08201 0.44103 0.63587 0.0
C623 C 0.10362 0.39445 0.59165 0.0
C624 C 0.15086 0.42883 0.67695 0.0
C625 C 0.16531 0.37894 0.63271 0.0
C626 C 0.10894 0.37421 0.66747 0.0
C627 C 0.1431 0.449 0.60521 0.0
O628 O 0.09918 0.42976 0.63201 0.0
O629 O 0.07421 0.44979 0.61891 0.0
O630 O 0.66137 0.67097 0.6225 0.0
Mn631 Mn 0.64536 0.64579 0.64044 0.0
O632 O 0.68334 0.69176 0.64539 0.0
Mn633 Mn 0.671 0.6801 0.67053 0.0
O634 O 0.62834 0.62145 0.65883 0.0
O635 O 0.62443 0.63915 0.61605 0.0
Mn636 Mn 0.61872 0.6109 0.61142 0.0
O637 O 0.66734 0.62432 0.62707 0.0
O638 O 0.60488 0.60146 0.63666 0.0
O639 O 0.62309 0.66715 0.65372 0.0
O640 O 0.64269 0.68884 0.67773 0.0
O641 O 0.60441 0.62541 0.58991 0.0
O642 O 0.64679 0.60065 0.6056 0.0
C643 C 0.68055 0.64815 0.68 0.0
C644 C 0.67618 0.68678 0.62649 0.0
C645 C 0.61202 0.60693 0.65545 0.0
C646 C 0.61371 0.64294 0.59888 0.0
C647 C 0.66554 0.60814 0.61361 0.0
C648 C 0.62434 0.68217 0.66846 0.0
O649 O 0.66665 0.65186 0.66494 0.0
O650 O 0.6884 0.66585 0.68979 0.0
O651 O 0.35603 0.38798 0.4072 0.0
Mn652 Mn 0.37117 0.41669 0.39428 0.0
O653 O 0.33934 0.36895 0.37954 0.0
Mn654 Mn 0.3476 0.38826 0.35769 0.0
O655 O 0.38662 0.44484 0.38064 0.0
O656 O 0.39294 0.41885 0.41875 0.0
Mn657 Mn 0.39664 0.44579 0.42905 0.0
O658 O 0.3488 0.43519 0.41178 0.0
O659 O 0.40804 0.46219 0.40624 0.0
O660 O 0.39417 0.39909 0.37639 0.0
O661 O 0.37613 0.38555 0.34671 0.0
O662 O 0.41515 0.42921 0.44492 0.0
O663 O 0.3684 0.45231 0.43883 0.0
C664 C 0.33266 0.41942 0.35859 0.0
C665 C 0.34451 0.37112 0.39943 0.0
C666 C 0.40131 0.45998 0.38682 0.0
C667 C 0.40709 0.41319 0.4328 0.0
C668 C 0.35002 0.44752 0.42883 0.0
C669 C 0.39395 0.38961 0.35771 0.0
O670 O 0.3493 0.41436 0.37007 0.0
O671 O 0.32595 0.40413 0.34502 0.0
C672 C 0.01567 0.25805 0.30835 0.0
C673 C 0.03298 0.25306 0.32232 0.0
C674 C 0.01218 0.24639 0.28894 0.0
C675 C 0.02453 0.23459 0.24313 0.0
H676 H 0.04412 0.1762 0.23356 0.0
C677 C 0.08586 0.21434 0.17816 0.0
C678 C 0.08658 0.19308 0.1696 0.0
C679 C 0.06908 0.21933 0.19277 0.0
C680 C 0.03797 0.19231 0.23576 0.0
H681 H 0.05899 0.2307 0.32758 0.0
H682 H 0.05341 0.21094 0.29375 0.0
H683 H 0.03229 0.18738 0.26944 0.0
H684 H 0.06935 0.16074 0.16812 0.0
H685 H 0.04006 0.16935 0.19426 0.0
H686 H 0.03099 0.23976 0.20963 0.0
C687 C 0.04222 0.2236 0.29776 0.0
C688 C 0.03149 0.19884 0.25644 0.0
C689 C 0.04561 0.23515 0.31717 0.0
C690 C 0.06914 0.17728 0.17454 0.0
C691 C 0.05247 0.18218 0.18955 0.0
C692 C 0.0308 0.228 0.22245 0.0
C693 C 0.026 0.22956 0.28303 0.0
C694 C 0.02609 0.22051 0.26062 0.0
C695 C 0.05277 0.20307 0.19939 0.0
C696 C 0.039 0.20729 0.21885 0.0
H697 H 0.00539 0.27156 0.31192 0.0
H698 H 0.99928 0.25117 0.27817 0.0
H699 H 0.0204 0.25138 0.24561 0.0
H700 H 0.09907 0.22683 0.17452 0.0
H701 H 0.07005 0.23551 0.20016 0.0
C702 C 0.00241 0.76314 0.57111 0.0
C703 C 0.01051 0.76642 0.59218 0.0
C704 C 0.01546 0.77017 0.5535 0.0
C705 C 0.0639 0.80908 0.53979 0.0
H706 H 0.05424 0.78276 0.48304 0.0
C707 C 0.10633 0.84552 0.46352 0.0
C708 C 0.09005 0.85275 0.44964 0.0
C709 C 0.10012 0.83069 0.4797 0.0
C710 C 0.05725 0.7901 0.49884 0.0
H711 H 0.03893 0.77888 0.61134 0.0
H712 H 0.06235 0.79017 0.58051 0.0
H713 H 0.03778 0.76439 0.51457 0.0
H714 H 0.05489 0.84987 0.44103 0.0
H715 H 0.04404 0.82325 0.46895 0.0
H716 H 0.08358 0.83466 0.52384 0.0
C717 C 0.04558 0.78284 0.57755 0.0
C718 C 0.04765 0.77975 0.51693 0.0
C719 C 0.03226 0.77623 0.59526 0.0
C720 C 0.06771 0.84419 0.45141 0.0
C721 C 0.06156 0.82902 0.46731 0.0
C722 C 0.07391 0.81912 0.52176 0.0
C723 C 0.03719 0.7803 0.55642 0.0
C724 C 0.05019 0.78948 0.5376 0.0
C725 C 0.07759 0.82269 0.482 0.0
C726 C 0.07013 0.81004 0.5011 0.0
H727 H 0.98552 0.75599 0.56824 0.0
H728 H 0.00802 0.76839 0.53767 0.0
H729 H 0.06606 0.81735 0.55525 0.0
H730 H 0.12358 0.85233 0.46262 0.0
H731 H 0.11273 0.82607 0.4909 0.0
C732 C 0.52309 0.85464 0.79689 0.0
C733 C 0.50958 0.84905 0.81491 0.0
C734 C 0.514 0.86481 0.77922 0.0
C735 C 0.46469 0.89449 0.76317 0.0
H736 H 0.47178 0.86672 0.70716 0.0
C737 C 0.41986 0.89241 0.67379 0.0
C738 C 0.39774 0.88793 0.68128 0.0
C739 C 0.43796 0.89292 0.68824 0.0
C740 C 0.47003 0.87504 0.72256 0.0
H741 H 0.47622 0.85029 0.82881 0.0
H742 H 0.46046 0.86782 0.79827 0.0
H743 H 0.49617 0.85795 0.73687 0.0
H744 H 0.37709 0.88099 0.70954 0.0
H745 H 0.40819 0.88229 0.73448 0.0
H746 H 0.43734 0.91002 0.74955 0.0
C747 C 0.47809 0.86462 0.79772 0.0
C748 C 0.48399 0.87003 0.73958 0.0
C749 C 0.48708 0.85437 0.81519 0.0
C750 C 0.39397 0.88445 0.7033 0.0
C751 C 0.41179 0.88539 0.71764 0.0
C752 C 0.45063 0.89924 0.74633 0.0
C753 C 0.49133 0.86979 0.77943 0.0
C754 C 0.48069 0.87892 0.76032 0.0
C755 C 0.43399 0.88951 0.71035 0.0
C756 C 0.4525 0.88886 0.7261 0.0
H757 H 0.54051 0.8507 0.79621 0.0
H758 H 0.52461 0.86862 0.76538 0.0
H759 H 0.4621 0.90203 0.77882 0.0
H760 H 0.42316 0.89505 0.65684 0.0
H761 H 0.45495 0.89608 0.68222 0.0
C762 C 0.44547 0.25296 0.09694 0.0
C763 C 0.45438 0.27388 0.10331 0.0
C764 C 0.43784 0.24901 0.07593 0.0
C765 C 0.44724 0.26889 0.02126 0.0
H766 H 0.39609 0.22822 0.0085 0.0
C767 C 0.43981 0.21477 0.94492 0.0
C768 C 0.41842 0.2082 0.9369 0.0
C769 C 0.4421 0.22875 0.96292 0.0
C770 C 0.41017 0.23997 0.01165 0.0
H771 H 0.46159 0.30728 0.09291 0.0
H772 H 0.44823 0.30035 0.05617 0.0
H773 H 0.40273 0.24085 0.0454 0.0
H774 H 0.38273 0.21103 0.94124 0.0
H775 H 0.38664 0.23633 0.97196 0.0
H776 H 0.45498 0.26757 0.98754 0.0
C777 C 0.44729 0.28698 0.0674 0.0
C778 C 0.41412 0.24697 0.03288 0.0
C779 C 0.45481 0.29096 0.08846 0.0
C780 C 0.39944 0.21668 0.94648 0.0
C781 C 0.40169 0.23075 0.9644 0.0
C782 C 0.44331 0.26183 -0.0 0.0
C783 C 0.43903 0.26589 0.06082 0.0
C784 C 0.43305 0.26101 0.038 0.0
C785 C 0.42298 0.23622 0.97336 0.0
C786 C 0.42508 0.24681 0.99504 0.0
H787 H 0.44497 0.23947 0.10801 0.0
H788 H 0.43183 0.23251 0.0713 0.0
H789 H 0.46203 0.27965 0.0247 0.0
H790 H 0.45465 0.20805 0.93805 0.0
H791 H 0.45872 0.23237 0.96955 0.0
C792 C 0.00505 0.83319 0.18899 0.0
C793 C 0.0222 0.83373 0.1733 0.0
C794 C 0.0101 0.838 0.21053 0.0
C795 C 0.05169 0.86574 0.24639 0.0
H796 H 0.03204 0.82156 0.28779 0.0
C797 C 0.08559 0.83768 0.33096 0.0
C798 C 0.08843 0.85793 0.34189 0.0
C799 C 0.07214 0.83538 0.31264 0.0
C800 C 0.03741 0.83413 0.27644 0.0
H801 H 0.0579 0.84042 0.16767 0.0
H802 H 0.06669 0.84938 0.20539 0.0
H803 H 0.01993 0.81741 0.25026 0.0
H804 H 0.07903 0.89139 0.3427 0.0
H805 H 0.05528 0.88737 0.3108 0.0
H806 H 0.06963 0.88219 0.27236 0.0
C807 C 0.04937 0.84512 0.20095 0.0
C808 C 0.03045 0.8318 0.25503 0.0
C809 C 0.04437 0.83997 0.17942 0.0
C810 C 0.07654 0.87546 0.33497 0.0
C811 C 0.06327 0.87325 0.31651 0.0
C812 C 0.05838 0.86822 0.26783 0.0
C813 C 0.03232 0.84379 0.21674 0.0
C814 C 0.03793 0.84736 0.23974 0.0
C815 C 0.06162 0.8534 0.30476 0.0
C816 C 0.05168 0.85222 0.28296 0.0
H817 H 0.9878 0.82831 0.18478 0.0
H818 H 0.99666 0.83697 0.22239 0.0
H819 H 0.05756 0.878 0.23491 0.0
H820 H 0.09476 0.82398 0.3359 0.0
H821 H 0.0713 0.81994 0.30379 0.0
C822 C 0.47133 0.78508 0.46008 0.0
C823 C 0.48862 0.79442 0.44695 0.0
C824 C 0.46453 0.79611 0.47868 0.0
C825 C 0.46608 0.85172 0.50287 0.0
H826 H 0.45086 0.82174 0.55607 0.0
C827 C 0.4529 0.90065 0.57961 0.0
C828 C 0.43258 0.89571 0.59063 0.0
C829 C 0.46065 0.88609 0.56427 0.0
C830 C 0.45495 0.83025 0.54126 0.0
H831 H 0.51273 0.82232 0.44326 0.0
H832 H 0.5012 0.84133 0.47575 0.0
H833 H 0.46233 0.80075 0.52435 0.0
H834 H 0.4053 0.87092 0.5955 0.0
H835 H 0.41887 0.84535 0.56834 0.0
H836 H 0.45891 0.88116 0.51964 0.0
C837 C 0.4925 0.82575 0.47151 0.0
C838 C 0.46145 0.81827 0.5231 0.0
C839 C 0.49919 0.8148 0.45292 0.0
C840 C 0.42106 0.87511 0.58726 0.0
C841 C 0.42879 0.86051 0.57171 0.0
C842 C 0.45977 0.86363 0.52095 0.0
C843 C 0.47494 0.81666 0.48451 0.0
C844 C 0.46731 0.82895 0.50376 0.0
C845 C 0.44818 0.86632 0.55948 0.0
C846 C 0.45439 0.8531 0.54041 0.0
H847 H 0.4629 0.76935 0.4559 0.0
H848 H 0.45082 0.78874 0.48822 0.0
H849 H 0.46986 0.86041 0.4881 0.0
H850 H 0.46231 0.91627 0.58209 0.0
H851 H 0.47594 0.89074 0.55544 0.0
C852 C 0.4926 0.25504 0.67855 0.0
C853 C 0.51325 0.26733 0.6811 0.0
C854 C 0.48239 0.24411 0.696 0.0
C855 C 0.49108 0.22489 0.75146 0.0
H856 H 0.42778 0.23451 0.75756 0.0
C857 C 0.43612 0.20457 0.82836 0.0
C858 C 0.41411 0.19585 0.82417 0.0
C859 C 0.45027 0.21169 0.81131 0.0
C860 C 0.4454 0.23144 0.75601 0.0
H861 H 0.53991 0.2767 0.70384 0.0
H862 H 0.52196 0.25775 0.73419 0.0
H863 H 0.44855 0.24876 0.72652 0.0
H864 H 0.39029 0.18619 0.79891 0.0
H865 H 0.41478 0.19821 0.76954 0.0
H866 H 0.4877 0.20756 0.78123 0.0
C867 C 0.51376 0.25647 0.71868 0.0
C868 C 0.45729 0.23956 0.73815 0.0
C869 C 0.524 0.2674 0.70123 0.0
C870 C 0.40697 0.19334 0.80272 0.0
C871 C 0.421 0.20026 0.78585 0.0
C872 C 0.47909 0.21666 0.76943 0.0
C873 C 0.49254 0.24523 0.71641 0.0
C874 C 0.4802 0.23621 0.73551 0.0
C875 C 0.44255 0.21011 0.78991 0.0
C876 C 0.45603 0.21964 0.77171 0.0
H877 H 0.48388 0.25451 0.6633 0.0
H878 H 0.4662 0.23523 0.69366 0.0
H879 H 0.50875 0.22207 0.74987 0.0
H880 H 0.44204 0.20663 0.84476 0.0
H881 H 0.46685 0.21919 0.8149 0.0
C882 C 0.05312 0.25697 0.94782 0.0
C883 C 0.0527 0.24195 0.93036 0.0
C884 C 0.06405 0.25255 0.96691 0.0
C885 C 0.10354 0.21616 0.99148 0.0
H886 H 0.06307 0.21697 0.04063 0.0
C887 C 0.10078 0.15174 0.05563 0.0
C888 C 0.09599 0.15691 0.07716 0.0
C889 C 0.10126 0.16776 0.04003 0.0
C890 C 0.0749 0.21717 0.02731 0.0
H891 H 0.0648 0.21126 0.91882 0.0
H892 H 0.08387 0.20359 0.95207 0.0
H893 H 0.05382 0.23549 0.00783 0.0
H894 H 0.08831 0.18279 0.0996 0.0
H895 H 0.08805 0.21101 0.07183 0.0
H896 H 0.12405 0.19691 0.01063 0.0
C897 C 0.07577 0.2188 0.95098 0.0
C898 C 0.06958 0.22776 0.00846 0.0
C899 C 0.06467 0.22311 0.93197 0.0
C900 C 0.09208 0.17853 0.08303 0.0
C901 C 0.09195 0.19457 0.0672 0.0
C902 C 0.10891 0.20568 0.01034 0.0
C903 C 0.07501 0.23315 0.96887 0.0
C904 C 0.08332 0.22647 0.99004 0.0
C905 C 0.09651 0.18929 0.04552 0.0
C906 C 0.09406 0.20514 0.02806 0.0
H907 H 0.04412 0.2717 0.94715 0.0
H908 H 0.06335 0.26397 0.98037 0.0
H909 H 0.11466 0.21528 0.97766 0.0
H910 H 0.10389 0.13513 0.05078 0.0
H911 H 0.10432 0.16298 0.02345 0.0
C912 C 0.30542 0.02581 0.1956 0.0
C913 C 0.32543 0.03917 0.19814 0.0
C914 C 0.28626 0.03433 0.18703 0.0
C915 C 0.26812 0.08032 0.15525 0.0
H916 H 0.2137 0.07582 0.18998 0.0
C917 C 0.20932 0.14867 0.16047 0.0
C918 C 0.18594 0.14418 0.16057 0.0
C919 C 0.22369 0.13177 0.16098 0.0
C920 C 0.22855 0.07682 0.1798 0.0
H921 H 0.34129 0.07164 0.19322 0.0
H922 H 0.30813 0.08638 0.17812 0.0
H923 H 0.24454 0.05297 0.19804 0.0
H924 H 0.15911 0.11847 0.16169 0.0
H925 H 0.18452 0.08852 0.1631 0.0
H926 H 0.25282 0.10502 0.13783 0.0
C927 C 0.30716 0.06934 0.18264 0.0
C928 C 0.24621 0.06376 0.18442 0.0
C929 C 0.32613 0.06095 0.19144 0.0
C930 C 0.17709 0.12233 0.16142 0.0
C931 C 0.1916 0.10526 0.16232 0.0
C932 C 0.25057 0.09334 0.15069 0.0
C933 C 0.28695 0.05622 0.18052 0.0
C934 C 0.26655 0.06613 0.17278 0.0
C935 C 0.21507 0.10988 0.16191 0.0
C936 C 0.23101 0.09245 0.16351 0.0
H937 H 0.3044 0.00897 0.20076 0.0
H938 H 0.27089 0.02387 0.18559 0.0
H939 H 0.28342 0.08216 0.14573 0.0
H940 H 0.21661 0.16536 0.15987 0.0
H941 H 0.24165 0.13593 0.16112 0.0
C942 C 0.23401 0.08788 0.49996 0.0
C943 C 0.21738 0.10158 0.49353 0.0
C944 C 0.23435 0.06654 0.49172 0.0
C945 C 0.21088 0.02869 0.44881 0.0
H946 H 0.21442 0.98444 0.49228 0.0
C947 C 0.16373 0.94242 0.46365 0.0
C948 C 0.16439 0.93331 0.4428 0.0
C949 C 0.17896 0.95972 0.46967 0.0
C950 C 0.21373 0.99658 0.47988 0.0
H951 H 0.1886 0.10375 0.47271 0.0
H952 H 0.189 0.06645 0.45859 0.0
H953 H 0.22329 0.02282 0.50181 0.0
H954 H 0.18273 0.93353 0.41256 0.0
H955 H 0.20943 0.96403 0.42306 0.0
H956 H 0.19977 0.0026 0.42728 0.0
C957 C 0.20197 0.07232 0.46981 0.0
C958 C 0.21892 0.01858 0.48529 0.0
C959 C 0.20161 0.09368 0.47806 0.0
C960 C 0.18198 0.94022 0.42879 0.0
C961 C 0.19709 0.9578 0.43473 0.0
C962 C 0.2057 0.00669 0.44339 0.0
C963 C 0.2181 0.05838 0.47683 0.0
C964 C 0.21667 0.03495 0.47003 0.0
C965 C 0.19497 0.96843 0.45484 0.0
C966 C 0.20616 0.99049 0.45911 0.0
H967 H 0.24655 0.09342 0.51175 0.0
H968 H 0.24714 0.05631 0.49727 0.0
H969 H 0.20938 0.04089 0.4366 0.0
H970 H 0.1503 0.93734 0.47471 0.0
H971 H 0.17673 0.96755 0.48524 0.0
C972 C 0.18897 0.05872 0.69743 0.0
C973 C 0.17145 0.0468 0.7083 0.0
C974 C 0.20833 0.04865 0.69104 0.0
C975 C 0.24059 0.0027 0.7063 0.0
H976 H 0.27013 0.00955 0.65073 0.0
C977 C 0.29988 0.94175 0.67308 0.0
C978 C 0.3203 0.94933 0.6634 0.0
C979 C 0.28397 0.95625 0.6791 0.0
C980 C 0.2623 0.00791 0.66646 0.0
H981 H 0.15992 0.01476 0.71995 0.0
H982 H 0.19352 0.99716 0.7086 0.0
H983 H 0.23683 0.02958 0.65898 0.0
H984 H 0.34026 0.97837 0.65323 0.0
H985 H 0.31186 0.00385 0.66343 0.0
H986 H 0.2656 0.98069 0.71363 0.0
C987 C 0.1925 0.01438 0.70538 0.0
C988 C 0.24321 0.01923 0.67114 0.0
C989 C 0.17317 0.02441 0.71172 0.0
C990 C 0.32457 0.97195 0.66031 0.0
C991 C 0.30837 0.98653 0.66613 0.0
C992 C 0.25958 0.99147 0.70165 0.0
C993 C 0.21052 0.02652 0.6955 0.0
C994 C 0.23182 0.01621 0.69089 0.0
C995 C 0.28794 0.97872 0.67556 0.0
C996 C 0.27026 0.9935 0.6815 0.0
H997 H 0.18812 0.07602 0.69456 0.0
H998 H 0.22195 0.05839 0.68345 0.0
H999 H 0.23255 0.00053 0.72188 0.0
H1000 H 0.2959 0.9245 0.6758 0.0
H1001 H 0.26825 0.94976 0.68613 0.0
C1002 C 0.24098 0.99434 0.99828 0.0
C1003 C 0.24842 0.97457 0.98992 0.0
C1004 C 0.24931 0.0144 0.99006 0.0
C1005 C 0.28463 0.05173 0.9822 0.0
H1006 H 0.29686 0.06253 0.92177 0.0
C1007 C 0.35659 0.11043 0.95142 0.0
C1008 C 0.3531 0.12311 0.93328 0.0
C1009 C 0.33964 0.09555 0.95892 0.0
C1010 C 0.29325 0.05991 0.93868 0.0
H1011 H 0.26952 0.96044 0.96554 0.0
H1012 H 0.28389 0.99553 0.95106 0.0
H1013 H 0.27417 0.02951 0.93224 0.0
H1014 H 0.32854 0.13108 0.90959 0.0
H1015 H 0.29902 0.10454 0.92244 0.0
H1016 H 0.30439 0.08168 0.9887 0.0
C1017 C 0.27158 0.99544 0.96398 0.0
C1018 C 0.28046 0.04093 0.94467 0.0
C1019 C 0.26341 0.97533 0.97233 0.0
C1020 C 0.3318 0.12147 0.92355 0.0
C1021 C 0.31494 0.10622 0.93082 0.0
C1022 C 0.2976 0.07057 0.97623 0.0
C1023 C 0.26511 0.0152 0.97317 0.0
C1024 C 0.27638 0.03644 0.96651 0.0
C1025 C 0.3189 0.09279 0.94829 0.0
C1026 C 0.30243 0.07463 0.95444 0.0
H1027 H 0.22955 0.99445 0.01191 0.0
H1028 H 0.24387 0.02935 0.99736 0.0
H1029 H 0.28195 0.04865 0.99918 0.0
H1030 H 0.37274 0.11139 0.95938 0.0
H1031 H 0.34324 0.08534 0.97234 0.0
C1032 C 0.30977 0.0032 0.27582 0.0
C1033 C 0.31492 0.02594 0.27529 0.0
C1034 C 0.29034 0.99465 0.28622 0.0
C1035 C 0.25105 0.99859 0.32822 0.0
H1036 H 0.20688 0.97014 0.28951 0.0
C1037 C 0.17274 0.9471 0.3603 0.0
C1038 C 0.16965 0.92646 0.35008 0.0
C1039 C 0.18721 0.96361 0.35122 0.0
C1040 C 0.219 0.97799 0.30058 0.0
H1041 H 0.30422 0.05745 0.28618 0.0
H1042 H 0.27045 0.04221 0.30504 0.0
H1043 H 0.24032 0.98998 0.27483 0.0
H1044 H 0.17801 0.9074 0.32177 0.0
H1045 H 0.20297 0.93571 0.30616 0.0
H1046 H 0.23058 0.98536 0.35404 0.0
C1047 C 0.28144 0.03121 0.29708 0.0
C1048 C 0.23806 0.98941 0.29214 0.0
C1049 C 0.30071 0.03986 0.28629 0.0
C1050 C 0.18012 0.9231 0.33009 0.0
C1051 C 0.19434 0.93948 0.32103 0.0
C1052 C 0.23208 0.98684 0.33674 0.0
C1053 C 0.2759 0.00858 0.29667 0.0
C1054 C 0.25448 0.9993 0.30587 0.0
C1055 C 0.19855 0.95978 0.33166 0.0
C1056 C 0.2162 0.97578 0.32298 0.0
H1057 H 0.32021 0.99202 0.26738 0.0
H1058 H 0.28632 0.97711 0.28577 0.0
H1059 H 0.26359 0.00613 0.33906 0.0
H1060 H 0.16496 0.95009 0.37579 0.0
H1061 H 0.18994 0.97913 0.35974 0.0
C1062 C 0.27408 0.11 0.58389 0.0
C1063 C 0.25186 0.10975 0.57663 0.0
C1064 C 0.28185 0.0916 0.59355 0.0
C1065 C 0.27628 0.03338 0.58981 0.0
H1066 H 0.31549 0.03754 0.63941 0.0
C1067 C 0.34179 0.96952 0.60581 0.0
C1068 C 0.36328 0.98017 0.60833 0.0
C1069 C 0.3226 0.98162 0.60714 0.0
C1070 C 0.30438 0.03596 0.62567 0.0
H1071 H 0.22013 0.09028 0.57407 0.0
H1072 H 0.23407 0.05767 0.59039 0.0
H1073 H 0.29139 0.06711 0.6323 0.0
H1074 H 0.38167 0.01132 0.61502 0.0
H1075 H 0.34878 0.03208 0.61752 0.0
H1076 H 0.29067 0.00307 0.58217 0.0
C1077 C 0.24526 0.0723 0.58896 0.0
C1078 C 0.29059 0.05287 0.62165 0.0
C1079 C 0.23731 0.09095 0.57973 0.0
C1080 C 0.36529 0.00271 0.61291 0.0
C1081 C 0.34636 0.01458 0.61461 0.0
C1082 C 0.29027 0.01648 0.59374 0.0
C1083 C 0.26767 0.07242 0.59573 0.0
C1084 C 0.27728 0.05224 0.6031 0.0
C1085 C 0.32479 0.00433 0.61154 0.0
C1086 C 0.30537 0.01822 0.61106 0.0
H1087 H 0.28564 0.12425 0.58165 0.0
H1088 H 0.2993 0.09203 0.59839 0.0
H1089 H 0.26615 0.03254 0.57537 0.0
H1090 H 0.33988 0.95212 0.60225 0.0
H1091 H 0.30616 0.97331 0.60467 0.0
C1092 C 0.18533 0.06795 0.78602 0.0
C1093 C 0.17541 0.08803 0.78874 0.0
C1094 C 0.20523 0.06415 0.79654 0.0
C1095 C 0.24419 0.08536 0.83964 0.0
H1096 H 0.29043 0.0656 0.80116 0.0
C1097 C 0.33707 0.11551 0.82552 0.0
C1098 C 0.34373 0.1184 0.84701 0.0
C1099 C 0.31911 0.10066 0.82016 0.0
C1100 C 0.27764 0.07072 0.81227 0.0
H1101 H 0.17822 0.11945 0.80549 0.0
H1102 H 0.2132 0.11296 0.82362 0.0
H1103 H 0.25139 0.06314 0.78954 0.0
H1104 H 0.3393 0.10619 0.87929 0.0
H1105 H 0.3075 0.08029 0.87007 0.0
H1106 H 0.27064 0.09456 0.86168 0.0
C1107 C 0.20537 0.10003 0.81352 0.0
C1108 C 0.25523 0.06927 0.80565 0.0
C1109 C 0.1854 0.10385 0.80299 0.0
C1110 C 0.33436 0.10415 0.8626 0.0
C1111 C 0.31607 0.08948 0.85734 0.0
C1112 C 0.26659 0.08679 0.84626 0.0
C1113 C 0.21574 0.0803 0.81006 0.0
C1114 C 0.23844 0.07756 0.81887 0.0
C1115 C 0.3073 0.08878 0.83634 0.0
C1116 C 0.2837 0.08052 0.8322 0.0
H1117 H 0.17802 0.05523 0.77535 0.0
H1118 H 0.21264 0.0487 0.79375 0.0
H1119 H 0.23156 0.09146 0.85035 0.0
H1120 H 0.34401 0.1265 0.8133 0.0
H1121 H 0.31284 0.1006 0.80384 0.0
C1122 C 0.2775 0.9782 0.04975 0.0
C1123 C 0.26396 0.95936 0.05523 0.0
C1124 C 0.27268 0.99869 0.05806 0.0
C1125 C 0.24231 0.0369 0.06178 0.0
H1126 H 0.2237 0.04896 0.12055 0.0
C1127 C 0.16529 0.07958 0.08882 0.0
C1128 C 0.16825 0.09891 0.10136 0.0
C1129 C 0.18348 0.06742 0.08372 0.0
C1130 C 0.22939 0.04605 0.1042 0.0
H1131 H 0.23572 0.9469 0.07462 0.0
H1132 H 0.2276 0.98272 0.08958 0.0
H1133 H 0.24445 0.01656 0.11244 0.0
H1134 H 0.19304 0.12136 0.11704 0.0
H1135 H 0.22495 0.09921 0.1088 0.0
H1136 H 0.22531 0.06516 0.05327 0.0
C1137 C 0.24188 0.98162 0.07882 0.0
C1138 C 0.24105 0.02751 0.09955 0.0
C1139 C 0.24642 0.96117 0.07019 0.0
C1140 C 0.19011 0.10628 0.10784 0.0
C1141 C 0.20835 0.09374 0.10309 0.0
C1142 C 0.23032 0.05518 0.06639 0.0
C1143 C 0.25456 0.00062 0.07234 0.0
C1144 C 0.24686 0.02237 0.07818 0.0
C1145 C 0.205 0.07414 0.09119 0.0
C1146 C 0.22312 0.05942 0.08749 0.0
H1147 H 0.29105 0.97732 0.03812 0.0
H1148 H 0.28262 0.01312 0.05277 0.0
H1149 H 0.24641 0.03319 0.04515 0.0
H1150 H 0.14881 0.07352 0.08321 0.0
H1151 H 0.18061 0.05229 0.07451 0.0
C1152 C 0.21261 0.36869 0.05332 0.0
C1153 C 0.23415 0.36936 0.044 0.0
C1154 C 0.19927 0.34903 0.05403 0.0
C1155 C 0.1957 0.29033 0.03461 0.0
H1156 H 0.16179 0.28212 0.08766 0.0
C1157 C 0.17249 0.20866 0.07787 0.0
C1158 C 0.1521 0.20708 0.08932 0.0
C1159 C 0.17833 0.22716 0.06556 0.0
C1160 C 0.17078 0.28423 0.07253 0.0
H1161 H 0.25849 0.35012 0.02771 0.0
H1162 H 0.23584 0.31558 0.03004 0.0
H1163 H 0.18049 0.31749 0.08032 0.0
H1164 H 0.12133 0.22259 0.09612 0.0
H1165 H 0.13112 0.25452 0.07416 0.0
H1166 H 0.18704 0.25622 0.02787 0.0
C1167 C 0.22878 0.33029 0.03613 0.0
C1168 C 0.18152 0.30464 0.06824 0.0
C1169 C 0.24189 0.35008 0.03495 0.0
C1170 C 0.13682 0.22318 0.08685 0.0
C1171 C 0.14257 0.24157 0.07454 0.0
C1172 C 0.18521 0.26969 0.03913 0.0
C1173 C 0.20739 0.3294 0.04599 0.0
C1174 C 0.19437 0.30799 0.04935 0.0
C1175 C 0.16394 0.24435 0.06487 0.0
C1176 C 0.17281 0.26645 0.05824 0.0
H1177 H 0.20607 0.38339 0.06008 0.0
H1178 H 0.18267 0.34923 0.06118 0.0
H1179 H 0.2051 0.29231 0.01972 0.0
H1180 H 0.18474 0.19665 0.08005 0.0
H1181 H 0.19498 0.22895 0.05841 0.0
C1182 C 0.70173 0.24306 0.0327 0.0
C1183 C 0.70271 0.22313 0.02117 0.0
C1184 C 0.68871 0.25944 0.02528 0.0
C1185 C 0.67775 0.29501 0.99412 0.0
H1186 H 0.62166 0.28329 0.96351 0.0
C1187 C 0.64287 0.31951 0.91002 0.0
C1188 C 0.64701 0.34231 0.91 0.0
C1189 C 0.64255 0.30815 0.92921 0.0
C1190 C 0.63717 0.28695 0.97224 0.0
H1191 H 0.68953 0.20434 0.99355 0.0
H1192 H 0.66687 0.23287 0.98064 0.0
H1193 H 0.63462 0.25589 0.9877 0.0
H1194 H 0.65324 0.37138 0.92997 0.0
H1195 H 0.65336 0.35127 0.96397 0.0
H1196 H 0.68115 0.32536 0.9775 0.0
C1197 C 0.67612 0.23581 0.99547 0.0
C1198 C 0.64461 0.27123 0.98601 0.0
C1199 C 0.68928 0.21949 0.00278 0.0
C1200 C 0.65002 0.35377 0.92965 0.0
C1201 C 0.65011 0.34228 0.94901 0.0
C1202 C 0.67035 0.31069 0.98027 0.0
C1203 C 0.6762 0.25619 0.00629 0.0
C1204 C 0.66555 0.27465 0.99622 0.0
C1205 C 0.64675 0.31928 0.94888 0.0
C1206 C 0.65062 0.30628 0.96827 0.0
H1207 H 0.71177 0.24645 0.04699 0.0
H1208 H 0.68897 0.27491 0.03403 0.0
H1209 H 0.69398 0.29814 0.00172 0.0
H1210 H 0.64032 0.31032 0.89506 0.0
H1211 H 0.64028 0.29045 0.92843 0.0
C1212 C 0.06472 0.5082 0.28667 0.0
C1213 C 0.08296 0.50422 0.27304 0.0
C1214 C 0.04294 0.50008 0.28124 0.0
C1215 C 0.00064 0.49768 0.25313 0.0
H1216 H 0.98644 0.43986 0.22822 0.0
C1217 C 0.94435 0.47951 0.18075 0.0
C1218 C 0.93007 0.46024 0.17977 0.0
C1219 C 0.95794 0.48423 0.1986 0.0
C1220 C 0.98992 0.4559 0.23558 0.0
H1221 H 0.09302 0.48783 0.24369 0.0
H1222 H 0.05504 0.47332 0.2344 0.0
H1223 H 0.02165 0.4475 0.24784 0.0
H1224 H 0.91722 0.43201 0.19777 0.0
H1225 H 0.94175 0.43997 0.2288 0.0
H1226 H 0.96973 0.50654 0.23949 0.0
C1227 C 0.05755 0.48271 0.24924 0.0
C1228 C 0.01012 0.46031 0.24662 0.0
C1229 C 0.07924 0.49114 0.25446 0.0
C1230 C 0.92845 0.44666 0.19779 0.0
C1231 C 0.94242 0.4512 0.21556 0.0
C1232 C 0.98061 0.49337 0.24183 0.0
C1233 C 0.03914 0.48751 0.26232 0.0
C1234 C 0.01601 0.48145 0.2548 0.0
C1235 C 0.95772 0.4697 0.21581 0.0
C1236 C 0.97551 0.47268 0.23227 0.0
H1237 H 0.06712 0.51832 0.30105 0.0
H1238 H 0.02901 0.50404 0.29154 0.0
H1239 H 0.00482 0.51415 0.2592 0.0
H1240 H 0.94576 0.49057 0.16732 0.0
H1241 H 0.96966 0.49857 0.19832 0.0
C1242 C 0.82115 0.86619 0.47082 0.0
C1243 C 0.82463 0.87109 0.49276 0.0
C1244 C 0.82965 0.84764 0.46138 0.0
C1245 C 0.845 0.7929 0.47499 0.0
H1246 H 0.86543 0.79232 0.41559 0.0
C1247 C 0.83549 0.71684 0.41935 0.0
C1248 C 0.8518 0.71394 0.40343 0.0
C1249 C 0.83733 0.73521 0.43307 0.0
C1250 C 0.86017 0.79217 0.43232 0.0
H1251 H 0.84041 0.8608 0.52187 0.0
H1252 H 0.85532 0.82827 0.50529 0.0
H1253 H 0.86022 0.82708 0.43384 0.0
H1254 H 0.88269 0.7276 0.389 0.0
H1255 H 0.88608 0.75977 0.41302 0.0
H1256 H 0.84457 0.75791 0.47328 0.0
C1257 C 0.84588 0.83876 0.49547 0.0
C1258 C 0.85694 0.8121 0.44269 0.0
C1259 C 0.83745 0.85744 0.50491 0.0
C1260 C 0.87022 0.72935 0.40158 0.0
C1261 C 0.87196 0.74786 0.4151 0.0
C1262 C 0.84822 0.77292 0.46458 0.0
C1263 C 0.84179 0.8335 0.47366 0.0
C1264 C 0.84866 0.81267 0.46391 0.0
C1265 C 0.85527 0.75124 0.43071 0.0
C1266 C 0.85522 0.77231 0.44293 0.0
H1267 H 0.81133 0.87637 0.46103 0.0
H1268 H 0.82592 0.84391 0.44462 0.0
H1269 H 0.83854 0.79277 0.49133 0.0
H1270 H 0.82082 0.70541 0.42054 0.0
H1271 H 0.82398 0.7375 0.44462 0.0
C1272 C 0.93748 0.09025 0.24381 0.0
C1273 C 0.93142 0.07455 0.25942 0.0
C1274 C 0.95986 0.09819 0.2413 0.0
C1275 C 0.01572 0.07889 0.24809 0.0
H1276 H 0.03374 0.13506 0.2232 0.0
C1277 C 0.09076 0.12555 0.19287 0.0
C1278 C 0.09084 0.10941 0.17649 0.0
C1279 C 0.07633 0.12269 0.21064 0.0
C1280 C 0.02928 0.11947 0.23062 0.0
H1281 H 0.94401 0.05619 0.28579 0.0
H1282 H 0.98307 0.07019 0.28145 0.0
H1283 H 0.9974 0.12977 0.24128 0.0
H1284 H 0.07781 0.07681 0.16691 0.0
H1285 H 0.05311 0.07161 0.1979 0.0
H1286 H 0.04722 0.06835 0.23669 0.0
C1287 C 0.9705 0.0761 0.27094 0.0
C1288 C 0.0083 0.11636 0.24075 0.0
C1289 C 0.94807 0.06815 0.27348 0.0
C1290 C 0.07801 0.08955 0.17924 0.0
C1291 C 0.06393 0.08655 0.19711 0.0
C1292 C 0.0367 0.08203 0.23802 0.0
C1293 C 0.97677 0.09065 0.25436 0.0
C1294 C 0.00083 0.09571 0.24864 0.0
C1295 C 0.06215 0.10346 0.21251 0.0
C1296 C 0.04322 0.102 0.22823 0.0
H1297 H 0.92512 0.09568 0.23279 0.0
H1298 H 0.96405 0.1092 0.2282 0.0
H1299 H 0.01056 0.06275 0.25393 0.0
H1300 H 0.10045 0.14107 0.19111 0.0
H1301 H 0.07542 0.13595 0.22233 0.0
C1302 C 0.29361 0.73899 0.49354 0.0
C1303 C 0.29879 0.72319 0.50852 0.0
C1304 C 0.30145 0.76091 0.4965 0.0
C1305 C 0.34262 0.7974 0.5272 0.0
H1306 H 0.29648 0.83889 0.52631 0.0
C1307 C 0.35813 0.88057 0.56905 0.0
C1308 C 0.34172 0.88286 0.5851 0.0
C1309 C 0.35396 0.86574 0.55186 0.0
C1310 C 0.30966 0.8276 0.52631 0.0
H1311 H 0.31681 0.71778 0.53788 0.0
H1312 H 0.33051 0.7559 0.54304 0.0
H1313 H 0.28844 0.80196 0.51166 0.0
H1314 H 0.30746 0.87356 0.59471 0.0
H1315 H 0.29996 0.84822 0.56469 0.0
H1316 H 0.36331 0.82249 0.54321 0.0
C1317 C 0.32057 0.7514 0.52891 0.0
C1318 C 0.30511 0.80647 0.51782 0.0
C1319 C 0.31258 0.72957 0.52606 0.0
C1320 C 0.32036 0.87205 0.58249 0.0
C1321 C 0.31607 0.85757 0.56521 0.0
C1322 C 0.34719 0.81853 0.53563 0.0
C1323 C 0.31481 0.76739 0.51436 0.0
C1324 C 0.32121 0.79087 0.51905 0.0
C1325 C 0.33319 0.85334 0.55035 0.0
C1326 C 0.33042 0.83355 0.53617 0.0
H1327 H 0.28295 0.73455 0.47988 0.0
H1328 H 0.2968 0.77285 0.48499 0.0
H1329 H 0.35548 0.78582 0.52805 0.0
H1330 H 0.37479 0.88866 0.57081 0.0
H1331 H 0.36742 0.86295 0.54054 0.0
C1332 C 0.08175 0.59119 0.28632 0.0
C1333 C 0.08141 0.58016 0.26627 0.0
C1334 C 0.06335 0.60251 0.29319 0.0
C1335 C 0.0024 0.59976 0.28578 0.0
H1336 H 0.00638 0.64959 0.32526 0.0
C1337 C 0.94579 0.64981 0.35165 0.0
C1338 C 0.93697 0.63153 0.36295 0.0
C1339 C 0.96004 0.64716 0.3339 0.0
C1340 C 0.00482 0.63596 0.3139 0.0
H1341 H 0.06211 0.57392 0.23701 0.0
H1342 H 0.03022 0.59382 0.24893 0.0
H1343 H 0.03972 0.63992 0.30527 0.0
H1344 H 0.93517 0.59623 0.36442 0.0
H1345 H 0.95972 0.59142 0.33344 0.0
H1346 H 0.9677 0.59536 0.29494 0.0
C1347 C 0.04453 0.59335 0.25952 0.0
C1348 C 0.02403 0.63025 0.30265 0.0
C1349 C 0.0629 0.58202 0.25265 0.0
C1350 C 0.94145 0.61053 0.35561 0.0
C1351 C 0.9555 0.60782 0.33784 0.0
C1352 C 0.98323 0.60545 0.29704 0.0
C1353 C 0.0442 0.6031 0.28015 0.0
C1354 C 0.02322 0.61163 0.28904 0.0
C1355 C 0.96569 0.62613 0.3273 0.0
C1356 C 0.98441 0.62312 0.31183 0.0
H1357 H 0.09569 0.59012 0.29725 0.0
H1358 H 0.06362 0.60966 0.30927 0.0
H1359 H 0.00114 0.58524 0.27554 0.0
H1360 H 0.94326 0.66613 0.35764 0.0
H1361 H 0.9676 0.66158 0.32611 0.0
C1362 C 0.42832 0.47244 0.80715 0.0
C1363 C 0.42498 0.48152 0.78696 0.0
C1364 C 0.44816 0.46251 0.81143 0.0
C1365 C 0.50679 0.46901 0.79971 0.0
H1366 H 0.50943 0.41572 0.83207 0.0
C1367 C 0.57632 0.42706 0.85459 0.0
C1368 C 0.57246 0.43773 0.87436 0.0
C1369 C 0.56242 0.43014 0.83686 0.0
C1370 C 0.5091 0.43027 0.82247 0.0
H1371 H 0.43948 0.48698 0.75522 0.0
H1372 H 0.47462 0.47025 0.76304 0.0
H1373 H 0.4744 0.42346 0.81425 0.0
H1374 H 0.55288 0.46202 0.89024 0.0
H1375 H 0.52941 0.4677 0.85943 0.0
H1376 H 0.54077 0.47687 0.80996 0.0
C1377 C 0.46165 0.47044 0.77534 0.0
C1378 C 0.48906 0.4348 0.81248 0.0
C1379 C 0.44155 0.47992 0.77088 0.0
C1380 C 0.55606 0.45312 0.87543 0.0
C1381 C 0.54263 0.4565 0.85777 0.0
C1382 C 0.52672 0.46465 0.81004 0.0
C1383 C 0.46524 0.4619 0.79575 0.0
C1384 C 0.48748 0.45461 0.80175 0.0
C1385 C 0.54515 0.44451 0.83864 0.0
C1386 C 0.52774 0.44561 0.82209 0.0
H1387 H 0.41584 0.47349 0.81982 0.0
H1388 H 0.45063 0.4563 0.82739 0.0
H1389 H 0.50594 0.48449 0.7917 0.0
H1390 H 0.58932 0.4157 0.85307 0.0
H1391 H 0.56466 0.42084 0.8221 0.0
C1392 C 0.99462 0.83266 0.7048 0.0
C1393 C 0.97836 0.81519 0.70134 0.0
C1394 C 0.99607 0.84353 0.72489 0.0
C1395 C 0.98377 0.836 0.78191 0.0
H1396 H 0.96473 0.89515 0.78487 0.0
C1397 C 0.92454 0.86441 0.84546 0.0
C1398 C 0.92356 0.88663 0.85078 0.0
C1399 C 0.94114 0.85755 0.83151 0.0
C1400 C 0.97083 0.87892 0.78451 0.0
H1401 H 0.95137 0.79502 0.71622 0.0
H1402 H 0.95429 0.81356 0.75115 0.0
H1403 H 0.97545 0.87947 0.75022 0.0
H1404 H 0.93988 0.91904 0.84715 0.0
H1405 H 0.96919 0.90706 0.82251 0.0
H1406 H 0.97813 0.83491 0.81593 0.0
C1407 C 0.96573 0.81901 0.73838 0.0
C1408 C 0.97688 0.86994 0.76461 0.0
C1409 C 0.96391 0.80857 0.71831 0.0
C1410 C 0.94055 0.90175 0.84342 0.0
C1411 C 0.95713 0.89491 0.82917 0.0
C1412 C 0.97802 0.84504 0.80182 0.0
C1413 C 0.98175 0.83658 0.74187 0.0
C1414 C 0.98217 0.84802 0.76303 0.0
C1415 C 0.95696 0.87285 0.82231 0.0
C1416 C 0.97011 0.86612 0.80315 0.0
H1417 H 0.006 0.83802 0.69197 0.0
H1418 H 0.00843 0.85718 0.72723 0.0
H1419 H 0.98802 0.8191 0.78106 0.0
H1420 H 0.91144 0.85253 0.85082 0.0
H1421 H 0.94021 0.8405 0.82647 0.0
C1422 C 0.02128 0.28442 0.44417 0.0
C1423 C 0.01215 0.28944 0.42421 0.0
C1424 C 0.00772 0.28257 0.4625 0.0
C1425 C 0.94994 0.26821 0.47878 0.0
H1426 H 0.97316 0.28518 0.53528 0.0
C1427 C 0.90627 0.23519 0.55552 0.0
C1428 C 0.92111 0.22539 0.5691 0.0
C1429 C 0.91456 0.24936 0.53946 0.0
C1430 C 0.96637 0.28045 0.51962 0.0
H1431 H 0.98168 0.29714 0.408 0.0
H1432 H 0.95777 0.29361 0.44022 0.0
H1433 H 0.99306 0.29856 0.50311 0.0
H1434 H 0.956 0.22303 0.57737 0.0
H1435 H 0.97061 0.24813 0.54974 0.0
H1436 H 0.92387 0.24925 0.49523 0.0
C1437 C 0.9755 0.29109 0.44153 0.0
C1438 C 0.97776 0.28808 0.50121 0.0
C1439 C 0.98918 0.29313 0.42313 0.0
C1440 C 0.94427 0.23076 0.56724 0.0
C1441 C 0.95257 0.24517 0.55146 0.0
C1442 C 0.93854 0.26056 0.49721 0.0
C1443 C 0.98463 0.28562 0.46138 0.0
C1444 C 0.97016 0.28133 0.48061 0.0
C1445 C 0.93785 0.25411 0.53694 0.0
C1446 C 0.94713 0.26591 0.51781 0.0
H1447 H 0.03896 0.28172 0.44567 0.0
H1448 H 0.01524 0.27802 0.47743 0.0
H1449 H 0.94373 0.2626 0.46315 0.0
H1450 H 0.88845 0.23061 0.55629 0.0
H1451 H 0.90285 0.25576 0.52839 0.0
C1452 C 0.49847 0.20925 0.2031 0.0
C1453 C 0.50529 0.23051 0.19631 0.0
C1454 C 0.50368 0.2025 0.22382 0.0
C1455 C 0.52114 0.22524 0.27753 0.0
H1456 H 0.54544 0.16897 0.28578 0.0
C1457 C 0.58643 0.20956 0.34062 0.0
C1458 C 0.58536 0.18961 0.35144 0.0
C1459 C 0.57054 0.21346 0.32509 0.0
C1460 C 0.5382 0.18454 0.28385 0.0
H1461 H 0.52336 0.26114 0.20597 0.0
H1462 H 0.53274 0.24928 0.24152 0.0
H1463 H 0.52995 0.17743 0.25082 0.0
H1464 H 0.56628 0.15851 0.35539 0.0
H1465 H 0.53871 0.16505 0.32741 0.0
H1466 H 0.53063 0.23281 0.31014 0.0
C1467 C 0.5229 0.23795 0.23114 0.0
C1468 C 0.52936 0.18941 0.26381 0.0
C1469 C 0.51772 0.24468 0.21058 0.0
C1470 C 0.56737 0.17406 0.34729 0.0
C1471 C 0.55172 0.17774 0.33126 0.0
C1472 C 0.53011 0.22044 0.29743 0.0
C1473 C 0.51575 0.2169 0.23815 0.0
C1474 C 0.52155 0.21015 0.2602 0.0
C1475 C 0.55349 0.19732 0.31971 0.0
C1476 C 0.53946 0.20036 0.30055 0.0
H1477 H 0.48879 0.19795 0.19258 0.0
H1478 H 0.49792 0.18617 0.22873 0.0
H1479 H 0.51466 0.24113 0.27547 0.0
H1480 H 0.60018 0.22177 0.34351 0.0
H1481 H 0.57246 0.22861 0.31631 0.0
C1482 C 0.58354 0.81745 0.9111 0.0
C1483 C 0.56682 0.83126 0.90514 0.0
C1484 C 0.58883 0.81511 0.93286 0.0
C1485 C 0.60227 0.82717 0.98115 0.0
H1486 H 0.54955 0.81843 0.01787 0.0
C1487 C 0.57475 0.86663 0.06217 0.0
C1488 C 0.59348 0.86469 0.07542 0.0
C1489 C 0.57112 0.85299 0.04422 0.0
C1490 C 0.5645 0.82042 0.00787 0.0
H1491 H 0.54367 0.85448 0.91721 0.0
H1492 H 0.55284 0.8503 0.95485 0.0
H1493 H 0.54568 0.81468 0.97888 0.0
H1494 H 0.62066 0.84431 0.08234 0.0
H1495 H 0.61533 0.82126 0.04975 0.0
H1496 H 0.62078 0.83476 0.0101 0.0
C1497 C 0.5616 0.84108 0.94279 0.0
C1498 C 0.56227 0.81836 0.98559 0.0
C1499 C 0.55656 0.84365 0.92118 0.0
C1500 C 0.60691 0.84702 0.07175 0.0
C1501 C 0.60368 0.83365 0.05329 0.0
C1502 C 0.6045 0.82937 0.00353 0.0
C1503 C 0.57727 0.82634 0.94887 0.0
C1504 C 0.58091 0.82289 0.97203 0.0
C1505 C 0.58623 0.83715 0.03892 0.0
C1506 C 0.58538 0.82727 0.01697 0.0
H1507 H 0.59172 0.8077 0.89907 0.0
H1508 H 0.60118 0.80384 0.93723 0.0
H1509 H 0.61687 0.83066 0.97097 0.0
H1510 H 0.56357 0.87963 0.06484 0.0
H1511 H 0.5575 0.85613 0.03352 0.0
C1512 C 0.95743 0.2667 0.83738 0.0
C1513 C 0.96846 0.25156 0.84942 0.0
C1514 C 0.95177 0.26221 0.81598 0.0
C1515 C 0.96558 0.22798 0.76876 0.0
H1516 H 0.90997 0.2485 0.74753 0.0
C1517 C 0.9234 0.20682 0.68552 0.0
C1518 C 0.91279 0.22386 0.67585 0.0
C1519 C 0.93429 0.21028 0.70529 0.0
C1520 C 0.92571 0.24293 0.75315 0.0
H1521 H 0.98167 0.2195 0.84859 0.0
H1522 H 0.9711 0.21128 0.81109 0.0
H1523 H 0.91872 0.25254 0.78551 0.0
H1524 H 0.90662 0.2582 0.6783 0.0
H1525 H 0.92574 0.26435 0.71274 0.0
H1526 H 0.97202 0.21779 0.73611 0.0
C1527 C 0.96728 0.22686 0.8182 0.0
C1528 C 0.93072 0.2452 0.77495 0.0
C1529 C 0.97309 0.23145 0.83973 0.0
C1530 C 0.91475 0.24482 0.6854 0.0
C1531 C 0.92555 0.24828 0.70514 0.0
C1532 C 0.96039 0.22545 0.74683 0.0
C1533 C 0.95671 0.24231 0.80604 0.0
C1534 C 0.95087 0.23812 0.78302 0.0
C1535 C 0.93443 0.2308 0.71577 0.0
C1536 C 0.94056 0.23327 0.7388 0.0
H1537 H 0.9538 0.28246 0.84424 0.0
H1538 H 0.94404 0.27467 0.80706 0.0
H1539 H 0.98132 0.22248 0.77443 0.0
H1540 H 0.92136 0.19036 0.67892 0.0
H1541 H 0.94086 0.19648 0.71319 0.0
C1542 C 0.5479 0.28046 0.56481 0.0
C1543 C 0.5625 0.2884 0.58131 0.0
C1544 C 0.55629 0.27211 0.5456 0.0
C1545 C 0.57681 0.26079 0.50291 0.0
H1546 H 0.62062 0.21794 0.51072 0.0
C1547 C 0.59036 0.19243 0.43913 0.0
C1548 C 0.5892 0.17168 0.44847 0.0
C1549 C 0.59297 0.21139 0.45221 0.0
C1550 C 0.60853 0.23001 0.50817 0.0
H1551 H 0.59757 0.29453 0.59003 0.0
H1552 H 0.61231 0.27976 0.55627 0.0
H1553 H 0.61369 0.24383 0.53972 0.0
H1554 H 0.59043 0.15431 0.47844 0.0
H1555 H 0.59508 0.18693 0.50103 0.0
H1556 H 0.57041 0.24575 0.47198 0.0
C1557 C 0.59428 0.27991 0.55842 0.0
C1558 C 0.60471 0.24503 0.52475 0.0
C1559 C 0.58584 0.28838 0.57776 0.0
C1560 C 0.59124 0.17014 0.47084 0.0
C1561 C 0.59421 0.18888 0.48377 0.0
C1562 C 0.58057 0.24568 0.48635 0.0
C1563 C 0.57956 0.27144 0.5422 0.0
C1564 C 0.58788 0.25978 0.52278 0.0
C1565 C 0.59491 0.20977 0.47472 0.0
C1566 C 0.59556 0.22933 0.4893 0.0
H1567 H 0.52982 0.28037 0.56678 0.0
H1568 H 0.54438 0.26535 0.53375 0.0
H1569 H 0.56416 0.27237 0.50064 0.0
H1570 H 0.58876 0.19397 0.42188 0.0
H1571 H 0.59344 0.22726 0.44477 0.0
C1572 C 0.54065 0.80025 0.33612 0.0
C1573 C 0.54443 0.77791 0.33737 0.0
C1574 C 0.54666 0.81193 0.31749 0.0
C1575 C 0.58244 0.80952 0.2687 0.0
H1576 H 0.53955 0.84585 0.2429 0.0
C1577 C 0.59559 0.83533 0.18283 0.0
C1578 C 0.59708 0.85802 0.17994 0.0
C1579 C 0.58526 0.82641 0.20117 0.0
C1580 C 0.55167 0.83582 0.25001 0.0
H1581 H 0.55819 0.75055 0.32039 0.0
H1582 H 0.56855 0.77072 0.28825 0.0
H1583 H 0.5314 0.82973 0.27827 0.0
H1584 H 0.58758 0.88909 0.1929 0.0
H1585 H 0.5692 0.87341 0.2251 0.0
H1586 H 0.60255 0.8152 0.24054 0.0
C1587 C 0.56109 0.77935 0.30156 0.0
C1588 C 0.54711 0.82673 0.27028 0.0
C1589 C 0.55504 0.76773 0.32 0.0
C1590 C 0.58614 0.87148 0.19458 0.0
C1591 C 0.57584 0.86253 0.21308 0.0
C1592 C 0.58687 0.8184 0.24853 0.0
C1593 C 0.55674 0.80149 0.29994 0.0
C1594 C 0.56231 0.81315 0.27963 0.0
C1595 C 0.5765 0.84007 0.21708 0.0
C1596 C 0.57138 0.83128 0.23877 0.0
H1597 H 0.53234 0.80851 0.34916 0.0
H1598 H 0.54328 0.82903 0.31676 0.0
H1599 H 0.59474 0.79958 0.27567 0.0
H1600 H 0.60404 0.82469 0.17178 0.0
H1601 H 0.58559 0.80898 0.20366 0.0
C1602 C 0.95359 0.80518 0.07231 0.0
C1603 C 0.97567 0.81407 0.07584 0.0
C1604 C 0.94254 0.80927 0.05309 0.0
C1605 C 0.95275 0.82583 0.99705 0.0
H1606 H 0.89997 0.85891 0.00301 0.0
C1607 C 0.93567 0.8955 0.94225 0.0
C1608 C 0.91379 0.90182 0.93951 0.0
C1609 C 0.93947 0.87716 0.95431 0.0
C1610 C 0.91427 0.84913 0.0008 0.0
H1611 H 0.00381 0.83339 0.06183 0.0
H1612 H 0.98477 0.84014 0.02839 0.0
H1613 H 0.91369 0.84023 0.03403 0.0
H1614 H 0.87863 0.89398 0.94669 0.0
H1615 H 0.88513 0.86154 0.96755 0.0
H1616 H 0.95396 0.8354 0.9641 0.0
C1617 C 0.97591 0.83018 0.04041 0.0
C1618 C 0.92215 0.83848 0.01866 0.0
C1619 C 0.9867 0.82653 0.05968 0.0
C1620 C 0.8956 0.88893 0.94801 0.0
C1621 C 0.89938 0.87059 0.96025 0.0
C1622 C 0.94475 0.83626 0.97915 0.0
C1623 C 0.9537 0.82175 0.03697 0.0
C1624 C 0.9421 0.8277 0.01717 0.0
C1625 C 0.92144 0.86498 0.96421 0.0
C1626 C 0.92613 0.84903 0.98111 0.0
H1627 H 0.94477 0.79545 0.08452 0.0
H1628 H 0.92535 0.80273 0.05081 0.0
H1629 H 0.96803 0.81734 0.99547 0.0
H1630 H 0.94994 0.90559 0.93624 0.0
H1631 H 0.95672 0.87368 0.9573 0.0
C1632 C 0.68093 0.0089 0.82983 0.0
C1633 C 0.67858 0.02888 0.81977 0.0
C1634 C 0.70084 0.0051 0.84025 0.0
C1635 C 0.75972 0.01644 0.83333 0.0
H1636 H 0.76227 0.98269 0.8853 0.0
C1637 C 0.83478 0.96411 0.85057 0.0
C1638 C 0.82775 0.94289 0.85702 0.0
C1639 C 0.8194 0.98046 0.85062 0.0
C1640 C 0.76201 0.99224 0.87082 0.0
H1641 H 0.69463 0.06089 0.81315 0.0
H1642 H 0.73013 0.05392 0.83091 0.0
H1643 H 0.72907 0.0022 0.8781 0.0
H1644 H 0.79981 0.92187 0.86872 0.0
H1645 H 0.77316 0.94998 0.86892 0.0
H1646 H 0.79194 0.00519 0.82522 0.0
C1647 C 0.71632 0.04144 0.8311 0.0
C1648 C 0.74301 0.0035 0.86679 0.0
C1649 C 0.69605 0.04546 0.8211 0.0
C1650 C 0.80558 0.93828 0.864 0.0
C1651 C 0.79037 0.95447 0.8642 0.0
C1652 C 0.77877 0.00509 0.83733 0.0
C1653 C 0.719 0.02103 0.84035 0.0
C1654 C 0.74124 0.01481 0.84753 0.0
C1655 C 0.79693 0.97573 0.85729 0.0
C1656 C 0.77963 0.99197 0.85561 0.0
H1657 H 0.66769 0.99587 0.82885 0.0
H1658 H 0.70255 0.98912 0.84698 0.0
H1659 H 0.75869 0.02493 0.81827 0.0
H1660 H 0.85181 0.96782 0.84485 0.0
H1661 H 0.825 0.99668 0.84526 0.0
C1662 C 0.80028 0.97531 0.56113 0.0
C1663 C 0.81086 0.96848 0.54211 0.0
C1664 C 0.79825 0.99759 0.56547 0.0
C1665 C 0.8004 0.05105 0.53798 0.0
H1666 H 0.81576 0.07569 0.59428 0.0
C1667 C 0.84756 0.13286 0.55314 0.0
C1668 C 0.84511 0.14394 0.57288 0.0
C1669 C 0.83365 0.11424 0.54813 0.0
C1670 C 0.81074 0.06908 0.57862 0.0
H1671 H 0.82853 0.97971 0.51326 0.0
H1672 H 0.82554 0.01836 0.52108 0.0
H1673 H 0.81217 0.03612 0.58908 0.0
H1674 H 0.82435 0.1463 0.60146 0.0
H1675 H 0.80032 0.1132 0.593 0.0
H1676 H 0.80045 0.08408 0.52723 0.0
C1677 C 0.81817 0.00656 0.53234 0.0
C1678 C 0.80881 0.04636 0.57561 0.0
C1679 C 0.82018 0.98438 0.52801 0.0
C1680 C 0.82668 0.13786 0.58623 0.0
C1681 C 0.81302 0.11889 0.58144 0.0
C1682 C 0.80243 0.07375 0.54096 0.0
C1683 C 0.80679 0.01343 0.55088 0.0
C1684 C 0.80464 0.03714 0.55504 0.0
C1685 C 0.8173 0.10622 0.56295 0.0
C1686 C 0.80859 0.08299 0.56109 0.0
H1687 H 0.79292 0.96344 0.57231 0.0
H1688 H 0.78949 0.00237 0.57995 0.0
H1689 H 0.79652 0.0444 0.52206 0.0
H1690 H 0.86158 0.13734 0.54253 0.0
H1691 H 0.83741 0.10488 0.53375 0.0
C1692 C 0.81966 0.0498 0.31915 0.0
C1693 C 0.82147 0.0577 0.29802 0.0
C1694 C 0.80064 0.05345 0.33187 0.0
C1695 C 0.74154 0.06875 0.32695 0.0
H1696 H 0.74926 0.09299 0.38465 0.0
C1697 C 0.67148 0.11551 0.36507 0.0
C1698 C 0.67992 0.1365 0.37165 0.0
C1699 C 0.6862 0.09875 0.3622 0.0
C1700 C 0.74674 0.08602 0.36863 0.0
H1701 H 0.80476 0.07604 0.27398 0.0
H1702 H 0.77229 0.08254 0.29599 0.0
H1703 H 0.78101 0.07772 0.36613 0.0
H1704 H 0.70953 0.15617 0.38211 0.0
H1705 H 0.73497 0.12737 0.37729 0.0
H1706 H 0.70795 0.07862 0.32859 0.0
C1707 C 0.78517 0.07309 0.30267 0.0
C1708 C 0.76492 0.07711 0.35808 0.0
C1709 C 0.80403 0.06955 0.2901 0.0
C1710 C 0.70268 0.14005 0.37703 0.0
C1711 C 0.71724 0.12341 0.37441 0.0
C1712 C 0.72346 0.07776 0.3374 0.0
C1713 C 0.78304 0.0649 0.32361 0.0
C1714 C 0.76282 0.06944 0.33669 0.0
C1715 C 0.70945 0.10282 0.36602 0.0
C1716 C 0.72616 0.08758 0.35793 0.0
H1717 H 0.8327 0.0405 0.32573 0.0
H1718 H 0.79954 0.04702 0.348 0.0
H1719 H 0.73921 0.0624 0.31067 0.0
H1720 H 0.65395 0.11248 0.36076 0.0
H1721 H 0.6796 0.083 0.35594 0.0
C1722 C 0.71944 0.10694 0.04374 0.0
C1723 C 0.73191 0.12157 0.05757 0.0
C1724 C 0.71626 0.08482 0.04846 0.0
C1725 C 0.71564 0.04543 0.09215 0.0
H1726 H 0.71564 0.0041 0.04404 0.0
C1727 C 0.68351 0.95534 0.10194 0.0
C1728 C 0.66506 0.95039 0.08831 0.0
C1729 C 0.69842 0.97356 0.098 0.0
C1730 C 0.71583 0.0154 0.05767 0.0
H1731 H 0.75038 0.12429 0.08755 0.0
H1732 H 0.74459 0.08531 0.09593 0.0
H1733 H 0.72832 0.04235 0.03859 0.0
H1734 H 0.64906 0.95902 0.05877 0.0
H1735 H 0.67544 0.99019 0.05145 0.0
H1736 H 0.70241 0.0185 0.11103 0.0
C1737 C 0.73734 0.09119 0.08138 0.0
C1738 C 0.72293 0.03732 0.05455 0.0
C1739 C 0.74058 0.11351 0.07663 0.0
C1740 C 0.66313 0.96251 0.06954 0.0
C1741 C 0.67828 0.98034 0.06535 0.0
C1742 C 0.70866 0.02341 0.0953 0.0
C1743 C 0.72546 0.07655 0.06711 0.0
C1744 C 0.72199 0.05277 0.07153 0.0
C1745 C 0.69544 0.98667 0.08004 0.0
C1746 C 0.70784 0.00838 0.07789 0.0
H1747 H 0.71236 0.11247 0.02896 0.0
H1748 H 0.70646 0.07415 0.03742 0.0
H1749 H 0.71469 0.0569 0.10554 0.0
H1750 H 0.68534 0.94626 0.11655 0.0
H1751 H 0.71161 0.97801 0.1095 0.0
C1752 C 0.68927 0.04949 0.70964 0.0
C1753 C 0.68283 0.05253 0.73128 0.0
C1754 C 0.70965 0.05927 0.70189 0.0
C1755 C 0.75997 0.07461 0.69417 0.0
H1756 H 0.76846 0.13656 0.70802 0.0
C1757 C 0.82769 0.15562 0.68644 0.0
C1758 C 0.83441 0.15333 0.6649 0.0
C1759 C 0.81235 0.14022 0.69562 0.0
C1760 C 0.76675 0.11918 0.70435 0.0
H1761 H 0.69328 0.06764 0.76187 0.0
H1762 H 0.72841 0.08478 0.74825 0.0
H1763 H 0.73567 0.11551 0.72167 0.0
H1764 H 0.83189 0.13238 0.63649 0.0
H1765 H 0.80402 0.10588 0.65211 0.0
H1766 H 0.79129 0.07832 0.67693 0.0
C1767 C 0.71768 0.07492 0.73729 0.0
C1768 C 0.74779 0.10715 0.71209 0.0
C1769 C 0.69751 0.06505 0.74507 0.0
C1770 C 0.82684 0.1345 0.65312 0.0
C1771 C 0.81093 0.11931 0.66214 0.0
C1772 C 0.77922 0.08664 0.68658 0.0
C1773 C 0.72381 0.07242 0.71557 0.0
C1774 C 0.74418 0.08477 0.70713 0.0
C1775 C 0.80276 0.12254 0.68323 0.0
C1776 C 0.78288 0.10911 0.69166 0.0
H1777 H 0.67846 0.03984 0.69861 0.0
H1778 H 0.71395 0.05717 0.68504 0.0
H1779 H 0.75757 0.05732 0.69017 0.0
H1780 H 0.83356 0.16989 0.69592 0.0
H1781 H 0.80718 0.14281 0.71216 0.0
C1782 C 0.72667 0.97305 0.512 0.0
C1783 C 0.74612 0.96378 0.50436 0.0
C1784 C 0.71661 0.98861 0.5 0.0
C1785 C 0.7279 0.03188 0.46202 0.0
H1786 H 0.66307 0.02688 0.45582 0.0
C1787 C 0.67285 0.0972 0.42358 0.0
C1788 C 0.65281 0.10018 0.435 0.0
C1789 C 0.68688 0.08095 0.4297 0.0
C1790 C 0.68119 0.02854 0.45744 0.0
H1791 H 0.7704 0.96351 0.4782 0.0
H1792 H 0.75278 0.99124 0.45719 0.0
H1793 H 0.68204 0.99626 0.46973 0.0
H1794 H 0.6331 0.09036 0.46314 0.0
H1795 H 0.65759 0.06269 0.47402 0.0
H1796 H 0.72677 0.06465 0.45044 0.0
C1797 C 0.74532 0.98618 0.47242 0.0
C1798 C 0.69202 0.01099 0.46531 0.0
C1799 C 0.75523 0.97023 0.48432 0.0
C1800 C 0.64813 0.0881 0.45369 0.0
C1801 C 0.6621 0.07214 0.45986 0.0
C1802 C 0.71697 0.04962 0.45417 0.0
C1803 C 0.72593 0.99549 0.48022 0.0
C1804 C 0.71536 0.01272 0.46834 0.0
C1805 C 0.68103 0.06769 0.44742 0.0
C1806 C 0.69341 0.04833 0.45257 0.0
H1807 H 0.71932 0.96845 0.52741 0.0
H1808 H 0.70179 0.99571 0.50648 0.0
H1809 H 0.74594 0.03358 0.46428 0.0
H1810 H 0.67699 0.10649 0.4093 0.0
H1811 H 0.70155 0.07801 0.41997 0.0
C1812 C 0.81294 0.99279 0.2554 0.0
C1813 C 0.83001 0.00599 0.24538 0.0
C1814 C 0.79123 0.99099 0.24705 0.0
C1815 C 0.75991 0.99528 0.19727 0.0
H1816 H 0.70883 0.99064 0.23639 0.0
C1817 C 0.67484 0.95943 0.16722 0.0
C1818 C 0.66868 0.94053 0.17893 0.0
C1819 C 0.69034 0.97545 0.17582 0.0
C1820 C 0.72287 0.99219 0.22522 0.0
H1821 H 0.83782 0.02752 0.21861 0.0
H1822 H 0.79977 0.02413 0.2038 0.0
H1823 H 0.74603 0.00262 0.25013 0.0
H1824 H 0.67145 0.92469 0.20956 0.0
H1825 H 0.69784 0.95269 0.22477 0.0
H1826 H 0.73702 0.98369 0.17259 0.0
C1827 C 0.80324 0.01525 0.21818 0.0
C1828 C 0.74418 0.9989 0.2331 0.0
C1829 C 0.825 0.01714 0.22662 0.0
C1830 C 0.67604 0.93911 0.20021 0.0
C1831 C 0.69112 0.95523 0.20893 0.0
C1832 C 0.73858 0.98856 0.18939 0.0
C1833 C 0.78608 0.0023 0.22844 0.0
C1834 C 0.76307 0.99953 0.21938 0.0
C1835 C 0.69941 0.97294 0.1964 0.0
C1836 C 0.72005 0.98597 0.20348 0.0
H1837 H 0.81624 0.98403 0.2699 0.0
H1838 H 0.77851 0.98049 0.25506 0.0
H1839 H 0.77413 0.99559 0.1863 0.0
H1840 H 0.66934 0.96088 0.15076 0.0
H1841 H 0.69629 0.98905 0.16589 0.0
C1842 C 0.74612 0.113 0.95912 0.0
C1843 C 0.75505 0.119 0.97941 0.0
C1844 C 0.74923 0.09215 0.95028 0.0
C1845 C 0.7633 0.0366 0.96511 0.0
H1846 H 0.79781 0.03594 0.91203 0.0
C1847 C 0.83046 0.9764 0.9486 0.0
C1848 C 0.83505 0.96975 0.92739 0.0
C1849 C 0.81376 0.99082 0.95283 0.0
C1850 C 0.78769 0.03559 0.92659 0.0
H1851 H 0.77294 0.10771 0.0069 0.0
H1852 H 0.77796 0.07163 0.99179 0.0
H1853 H 0.77982 0.06892 0.92296 0.0
H1854 H 0.82586 0.97265 0.89422 0.0
H1855 H 0.79693 0.99815 0.90135 0.0
H1856 H 0.77199 0.00367 0.96933 0.0
C1857 C 0.76883 0.08287 0.98253 0.0
C1858 C 0.77736 0.05452 0.93281 0.0
C1859 C 0.76621 0.10366 0.99105 0.0
C1860 C 0.8221 0.97708 0.91064 0.0
C1861 C 0.8057 0.9918 0.91476 0.0
C1862 C 0.77352 0.01766 0.95887 0.0
C1863 C 0.76064 0.07693 0.96199 0.0
C1864 C 0.76599 0.05551 0.95262 0.0
C1865 C 0.8016 0.99918 0.93586 0.0
C1866 C 0.78673 0.01729 0.94006 0.0
H1867 H 0.73732 0.12455 0.94993 0.0
H1868 H 0.74285 0.08794 0.93435 0.0
H1869 H 0.75434 0.03689 0.98035 0.0
H1870 H 0.84039 0.97112 0.96183 0.0
H1871 H 0.81138 0.99642 0.96927 0.0
C1872 C 0.77969 0.71395 0.98979 0.0
C1873 C 0.75617 0.71332 0.98774 0.0
C1874 C 0.79304 0.73285 0.98445 0.0
C1875 C 0.78969 0.79225 0.97702 0.0
H1876 H 0.84012 0.78768 0.93784 0.0
C1877 C 0.81991 0.86063 0.92011 0.0
C1878 C 0.84294 0.86422 0.91582 0.0
C1879 C 0.81207 0.84348 0.93326 0.0
C1880 C 0.82639 0.78925 0.94915 0.0
H1881 H 0.72829 0.73218 0.97863 0.0
H1882 H 0.75144 0.7647 0.96926 0.0
H1883 H 0.82143 0.75453 0.9528 0.0
H1884 H 0.87591 0.85288 0.92123 0.0
H1885 H 0.86229 0.82287 0.94463 0.0
H1886 H 0.79409 0.82686 0.97278 0.0
C1887 C 0.7596 0.75076 0.97516 0.0
C1888 C 0.81569 0.77026 0.9577 0.0
C1889 C 0.74634 0.73195 0.98029 0.0
C1890 C 0.85812 0.85065 0.92494 0.0
C1891 C 0.8503 0.83339 0.93804 0.0
C1892 C 0.80036 0.81119 0.9685 0.0
C1893 C 0.78305 0.75148 0.97725 0.0
C1894 C 0.79677 0.77155 0.97113 0.0
C1895 C 0.82715 0.82946 0.94209 0.0
C1896 C 0.81835 0.80984 0.95392 0.0
H1897 H 0.78776 0.69991 0.99557 0.0
H1898 H 0.81111 0.73299 0.9862 0.0
H1899 H 0.77541 0.79374 0.98771 0.0
H1900 H 0.80796 0.87077 0.91286 0.0
H1901 H 0.79411 0.84062 0.93573 0.0
C1902 C 0.30376 0.85521 0.99533 0.0
C1903 C 0.3067 0.87153 0.01141 0.0
C1904 C 0.31507 0.836 0.99666 0.0
C1905 C 0.3602 0.80996 0.02517 0.0
H1906 H 0.31481 0.76308 0.03671 0.0
C1907 C 0.36401 0.7567 0.09734 0.0
C1908 C 0.35382 0.73544 0.09763 0.0
C1909 C 0.36384 0.76896 0.07872 0.0
C1910 C 0.32793 0.77558 0.03294 0.0
H1911 H 0.32459 0.88164 0.04046 0.0
H1912 H 0.345 0.84866 0.04239 0.0
H1913 H 0.30491 0.79457 0.01644 0.0
H1914 H 0.33618 0.70968 0.07884 0.0
H1915 H 0.33546 0.7314 0.04589 0.0
H1916 H 0.38285 0.79174 0.04292 0.0
C1917 C 0.33401 0.85046 0.02882 0.0
C1918 C 0.32223 0.79367 0.02129 0.0
C1919 C 0.32228 0.86928 0.02781 0.0
C1920 C 0.34423 0.7261 0.07878 0.0
C1921 C 0.34373 0.73854 0.06007 0.0
C1922 C 0.36596 0.79182 0.03664 0.0
C1923 C 0.32986 0.83327 0.01377 0.0
C1924 C 0.33794 0.81162 0.01856 0.0
C1925 C 0.35318 0.7603 0.06 0.0
C1926 C 0.34947 0.77517 0.04193 0.0
H1927 H 0.29149 0.85657 0.98272 0.0
H1928 H 0.31147 0.82289 0.98499 0.0
H1929 H 0.37267 0.82351 0.02304 0.0
H1930 H 0.37137 0.76417 0.11184 0.0
H1931 H 0.37088 0.78575 0.07949 0.0
C1932 C 0.93226 0.56496 0.75558 0.0
C1933 C 0.92635 0.54356 0.74818 0.0
C1934 C 0.95352 0.57029 0.76444 0.0
C1935 C 0.00043 0.54319 0.7895 0.0
H1936 H 0.02818 0.60235 0.7906 0.0
C1937 C 0.05933 0.57484 0.85681 0.0
C1938 C 0.07603 0.59172 0.85307 0.0
C1939 C 0.04501 0.56704 0.84035 0.0
C1940 C 0.02098 0.58562 0.79012 0.0
H1941 H 0.93848 0.51136 0.74281 0.0
H1942 H 0.97575 0.52083 0.75718 0.0
H1943 H 0.99589 0.5933 0.76757 0.0
H1944 H 0.09174 0.61264 0.82861 0.0
H1945 H 0.06688 0.59866 0.79961 0.0
H1946 H 0.02572 0.5354 0.8117 0.0
C1947 C 0.96381 0.53334 0.75714 0.0
C1948 C 0.00215 0.5805 0.77718 0.0
C1949 C 0.94244 0.52791 0.74876 0.0
C1950 C 0.07908 0.59958 0.83203 0.0
C1951 C 0.06465 0.59175 0.81547 0.0
C1952 C 0.0194 0.54822 0.80216 0.0
C1953 C 0.96947 0.55444 0.76567 0.0
C1954 C 0.99119 0.55937 0.77719 0.0
C1955 C 0.04702 0.57583 0.81961 0.0
C1956 C 0.02947 0.56966 0.80322 0.0
H1957 H 0.92015 0.57732 0.75535 0.0
H1958 H 0.95704 0.58662 0.77107 0.0
H1959 H 0.99249 0.52678 0.79021 0.0
H1960 H 0.05656 0.56833 0.87279 0.0
H1961 H 0.03152 0.55498 0.8443 0.0
C1962 C 0.22299 0.22108 0.55003 0.0
C1963 C 0.20639 0.20375 0.55109 0.0
C1964 C 0.2172 0.24268 0.55104 0.0
C1965 C 0.16904 0.27888 0.55239 0.0
H1966 H 0.21067 0.3146 0.58818 0.0
C1967 C 0.14791 0.35194 0.60698 0.0
C1968 C 0.16522 0.36805 0.61154 0.0
C1969 C 0.15133 0.33519 0.59198 0.0
C1970 C 0.19907 0.30515 0.57769 0.0
H1971 H 0.17064 0.19516 0.553 0.0
H1972 H 0.16036 0.23321 0.55634 0.0
H1973 H 0.21965 0.27825 0.5776 0.0
H1974 H 0.19887 0.3805 0.60307 0.0
H1975 H 0.20468 0.35171 0.57625 0.0
H1976 H 0.1478 0.30584 0.55397 0.0
C1977 C 0.17788 0.23014 0.55403 0.0
C1978 C 0.20424 0.28413 0.57157 0.0
C1979 C 0.18371 0.20835 0.55232 0.0
C1980 C 0.18516 0.36846 0.59946 0.0
C1981 C 0.18852 0.35185 0.58432 0.0
C1982 C 0.16372 0.30001 0.55879 0.0
C1983 C 0.19467 0.24758 0.55399 0.0
C1984 C 0.18928 0.27056 0.55899 0.0
C1985 C 0.17222 0.33427 0.58148 0.0
C1986 C 0.17864 0.31328 0.57169 0.0
H1987 H 0.24059 0.21792 0.54858 0.0
H1988 H 0.23056 0.25557 0.5501 0.0
H1989 H 0.1572 0.26901 0.54253 0.0
H1990 H 0.1326 0.35103 0.61655 0.0
H1991 H 0.13848 0.32187 0.59027 0.0
C1992 C 0.06437 0.04337 0.77979 0.0
C1993 C 0.06494 0.06532 0.77364 0.0
C1994 C 0.04432 0.0328 0.78732 0.0
C1995 C 0.98975 0.04636 0.81118 0.0
H1996 H 0.97646 0.9836 0.80673 0.0
C1997 C 0.93399 -0.0001 0.87217 0.0
C1998 C 0.9209 0.9809 0.86596 0.0
C1999 C 0.94808 0.01095 0.85741 0.0
C2000 C 0.97965 0.00121 0.80777 0.0
H2001 H 0.0448 0.09295 0.76898 0.0
H2002 H 0.00982 0.07434 0.78099 0.0
H2003 H 0.00797 0.00066 0.78642 0.0
H2004 H 0.91147 0.95921 0.83902 0.0
H2005 H 0.93602 0.97887 0.81299 0.0
H2006 H 0.96134 0.04701 0.83223 0.0
C2007 C 0.02489 0.06547 0.78107 0.0
C2008 C 0.99796 0.01095 0.79641 0.0
C2009 C 0.04496 0.07615 0.77409 0.0
C2010 C 0.92134 0.97384 0.8443 0.0
C2011 C 0.93554 0.98496 0.82945 0.0
C2012 C 0.97135 0.03668 0.82227 0.0
C2013 C 0.02439 0.04386 0.78837 0.0
C2014 C 0.00359 0.03359 0.79842 0.0
C2015 C 0.94942 0.00338 0.83599 0.0
C2016 C 0.9665 0.01392 0.82126 0.0
H2017 H 0.07956 0.03465 0.77952 0.0
H2018 H 0.04469 0.01623 0.79302 0.0
H2019 H 0.99359 0.06378 0.81341 0.0
H2020 H 0.934 0.00587 0.88869 0.0
H2021 H 0.95873 0.02487 0.86314 0.0
C2022 C 0.6879 0.35798 0.52648 0.0
C2023 C 0.71003 0.36318 0.5192 0.0
C2024 C 0.67693 0.3375 0.52164 0.0
C2025 C 0.65466 0.29953 0.49442 0.0
H2026 H 0.68902 0.24806 0.49208 0.0
C2027 C 0.64486 0.23437 0.42889 0.0
C2028 C 0.64677 0.21221 0.43333 0.0
C2029 C 0.64734 0.25022 0.44518 0.0
C2030 C 0.67896 0.26208 0.49311 0.0
H2031 H 0.73803 0.35066 0.50142 0.0
H2032 H 0.71896 0.31531 0.49295 0.0
H2033 H 0.70444 0.28122 0.51055 0.0
H2034 H 0.65195 0.18903 0.45842 0.0
H2035 H 0.65757 0.21719 0.48706 0.0
H2036 H 0.62966 0.28063 0.47606 0.0
C2037 C 0.71012 0.32691 0.50258 0.0
C2038 C 0.68789 0.28116 0.50345 0.0
C2039 C 0.72097 0.34735 0.50721 0.0
C2040 C 0.65064 0.20607 0.45459 0.0
C2041 C 0.65374 0.22211 0.47091 0.0
C2042 C 0.64576 0.28045 0.48401 0.0
C2043 C 0.68799 0.32172 0.5097 0.0
C2044 C 0.67634 0.30039 0.50328 0.0
C2045 C 0.65224 0.24436 0.46628 0.0
C2046 C 0.65834 0.26192 0.48233 0.0
H2047 H 0.679 0.36977 0.53581 0.0
H2048 H 0.65985 0.33397 0.52731 0.0
H2049 H 0.6453 0.31403 0.4941 0.0
H2050 H 0.64152 0.23951 0.41269 0.0
H2051 H 0.64643 0.26722 0.44102 0.0
C2052 C 0.91981 0.44718 0.71336 0.0
C2053 C 0.91225 0.45683 0.73247 0.0
C2054 C 0.94123 0.43936 0.71221 0.0
C2055 C 0.99548 0.45696 0.73061 0.0
H2056 H 0.01372 0.407 0.6973 0.0
C2057 C 0.07504 0.43045 0.67465 0.0
C2058 C 0.0708 0.44355 0.65702 0.0
C2059 C 0.06041 0.42978 0.69252 0.0
C2060 C 0.00909 0.42073 0.70722 0.0
H2061 H 0.92054 0.46487 0.76572 0.0
H2062 H 0.95845 0.45188 0.76345 0.0
H2063 H 0.97567 0.40638 0.71258 0.0
H2064 H 0.05019 0.4688 0.64573 0.0
H2065 H 0.02565 0.46837 0.67703 0.0
H2066 H 0.02795 0.47231 0.72301 0.0
C2067 C 0.94757 0.44989 0.74956 0.0
C2068 C 0.98731 0.42043 0.71581 0.0
C2069 C 0.92587 0.4572 0.75086 0.0
C2070 C 0.05361 0.45805 0.65878 0.0
C2071 C 0.03959 0.45794 0.67678 0.0
C2072 C 0.01708 0.45742 0.72165 0.0
C2073 C 0.95569 0.44157 0.73001 0.0
C2074 C 0.98 0.43896 0.7267 0.0
C2075 C 0.04218 0.4431 0.69331 0.0
C2076 C 0.02366 0.4397 0.70905 0.0
H2077 H 0.90967 0.44685 0.69893 0.0
H2078 H 0.94716 0.43327 0.69686 0.0
H2079 H 0.99022 0.47155 0.73876 0.0
H2080 H 0.08876 0.4199 0.67415 0.0
H2081 H 0.06279 0.41833 0.70525 0.0
C2082 C 0.55628 0.57988 0.22598 0.0
C2083 C 0.57707 0.59178 0.22346 0.0
C2084 C 0.53629 0.58999 0.2236 0.0
C2085 C 0.51246 0.64416 0.21381 0.0
H2086 H 0.46781 0.60681 0.18304 0.0
C2087 C 0.4578 0.66897 0.14522 0.0
C2088 C 0.43653 0.65818 0.14217 0.0
C2089 C 0.47029 0.66498 0.16341 0.0
C2090 C 0.47972 0.6174 0.19216 0.0
H2091 H 0.59352 0.62364 0.21726 0.0
H2092 H 0.55853 0.6411 0.21107 0.0
H2093 H 0.4998 0.59098 0.19826 0.0
H2094 H 0.41068 0.63607 0.15599 0.0
H2095 H 0.43288 0.62849 0.18784 0.0
H2096 H 0.49291 0.67091 0.20556 0.0
C2097 C 0.55751 0.62415 0.21583 0.0
C2098 C 0.49825 0.60831 0.20097 0.0
C2099 C 0.57761 0.61415 0.21906 0.0
C2100 C 0.42704 0.64465 0.15825 0.0
C2101 C 0.43972 0.64034 0.17637 0.0
C2102 C 0.49402 0.65334 0.20459 0.0
C2103 C 0.53655 0.61206 0.21767 0.0
C2104 C 0.51527 0.6216 0.21136 0.0
C2105 C 0.46187 0.64969 0.17854 0.0
C2106 C 0.47787 0.64008 0.19311 0.0
H2107 H 0.55545 0.5627 0.23 0.0
H2108 H 0.52062 0.58028 0.22602 0.0
H2109 H 0.52488 0.65487 0.22214 0.0
H2110 H 0.46536 0.67938 0.13282 0.0
H2111 H 0.48736 0.67223 0.16451 0.0
C2112 C 0.54375 0.73967 0.81489 0.0
C2113 C 0.53277 0.75899 0.8183 0.0
C2114 C 0.54219 0.72854 0.79512 0.0
C2115 C 0.53633 0.74176 0.73881 0.0
H2116 H 0.54801 0.68058 0.73194 0.0
C2117 C 0.58348 0.67796 0.67833 0.0
C2118 C 0.60357 0.69127 0.67646 0.0
C2119 C 0.56539 0.68532 0.69029 0.0
C2120 C 0.54417 0.69757 0.73328 0.0
H2121 H 0.50993 0.78072 0.80414 0.0
H2122 H 0.50718 0.76116 0.76958 0.0
H2123 H 0.53156 0.69345 0.7654 0.0
H2124 H 0.61982 0.72328 0.6837 0.0
H2125 H 0.58853 0.73612 0.7043 0.0
H2126 H 0.54985 0.74606 0.70705 0.0
C2127 C 0.51726 0.75483 0.78216 0.0
C2128 C 0.53499 0.705 0.7526 0.0
C2129 C 0.5188 0.76599 0.80201 0.0
C2130 C 0.60457 0.71264 0.68504 0.0
C2131 C 0.58649 0.72007 0.69668 0.0
C2132 C 0.54537 0.73431 0.71946 0.0
C2133 C 0.52958 0.73642 0.77824 0.0
C2134 C 0.53233 0.72742 0.75606 0.0
C2135 C 0.56705 0.7062 0.70022 0.0
C2136 C 0.55074 0.71243 0.71704 0.0
H2137 H 0.55447 0.73366 0.82713 0.0
H2138 H 0.55214 0.71458 0.79266 0.0
H2139 H 0.53445 0.75913 0.74083 0.0
H2140 H 0.58233 0.66136 0.6719 0.0
H2141 H 0.55058 0.67431 0.69266 0.0
C2142 C 0.54333 0.29014 0.09401 0.0
C2143 C 0.53179 0.26933 0.09409 0.0
C2144 C 0.55572 0.2972 0.07589 0.0
C2145 C 0.55645 0.28829 0.01731 0.0
H2146 H 0.60871 0.32956 0.02072 0.0
C2147 C 0.59133 0.34005 0.94462 0.0
C2148 C 0.59189 0.3625 0.94992 0.0
C2149 C 0.58841 0.32437 0.96084 0.0
C2150 C 0.59428 0.31784 0.01948 0.0
H2151 H 0.52549 0.2391 0.07557 0.0
H2152 H 0.5472 0.2514 0.04419 0.0
H2153 H 0.5959 0.30968 0.05277 0.0
H2154 H 0.59069 0.38604 0.97642 0.0
H2155 H 0.58588 0.35901 0.00427 0.0
H2156 H 0.55434 0.29725 0.9842 0.0
C2157 C 0.54636 0.26239 0.05798 0.0
C2158 C 0.58685 0.30657 0.03785 0.0
C2159 C 0.53398 0.25533 0.07607 0.0
C2160 C 0.59 0.36891 0.97167 0.0
C2161 C 0.58757 0.3534 0.98773 0.0
C2162 C 0.56394 0.29954 0.99891 0.0
C2163 C 0.5569 0.28361 0.05745 0.0
C2164 C 0.5673 0.29235 0.03721 0.0
C2165 C 0.58667 0.331 0.98256 0.0
C2166 C 0.58233 0.31512 8e-05 0.0
H2167 H 0.54201 0.30138 0.10754 0.0
H2168 H 0.56341 0.31375 0.07598 0.0
H2169 H 0.54126 0.27754 0.01624 0.0
H2170 H 0.59296 0.33464 0.92802 0.0
H2171 H 0.58765 0.30715 0.95645 0.0
C2172 C 0.02839 0.34924 0.29696 0.0
C2173 C 0.01499 0.34473 0.3153 0.0
C2174 C 0.01968 0.35983 0.27937 0.0
C2175 C 0.9726 0.39282 0.26402 0.0
H2176 H 0.97621 0.36373 0.20826 0.0
C2177 C 0.90002 0.38433 0.20629 0.0
C2178 C 0.90324 0.38663 0.18405 0.0
C2179 C 0.91824 0.38562 0.22017 0.0
C2180 C 0.97551 0.37244 0.22355 0.0
H2181 H 0.98222 0.3482 0.3298 0.0
H2182 H 0.9671 0.36647 0.29937 0.0
H2183 H 0.00052 0.35366 0.2375 0.0
H2184 H 0.928 0.39231 0.15873 0.0
H2185 H 0.9605 0.39385 0.18329 0.0
H2186 H 0.94624 0.4101 0.25081 0.0
C2187 C 0.98438 0.36212 0.29853 0.0
C2188 C 0.9894 0.36667 0.24032 0.0
C2189 C 0.99298 0.35144 0.31593 0.0
C2190 C 0.92515 0.3906 0.17586 0.0
C2191 C 0.94364 0.39141 0.18985 0.0
C2192 C 0.95861 0.39838 0.24741 0.0
C2193 C 0.99753 0.36631 0.27997 0.0
C2194 C 0.98724 0.37604 0.26101 0.0
C2195 C 0.94027 0.38885 0.21215 0.0
C2196 C 0.95919 0.38755 0.22731 0.0
H2197 H 0.04543 0.34423 0.29601 0.0
H2198 H 0.0302 0.36284 0.2653 0.0
H2199 H 0.97093 0.40071 0.27964 0.0
H2200 H 0.88328 0.38132 0.21301 0.0
H2201 H 0.9151 0.38321 0.23719 0.0
C2202 C 0.94426 0.79389 0.58854 0.0
C2203 C 0.93944 0.77806 0.60433 0.0
C2204 C 0.93845 0.78947 0.56704 0.0
C2205 C 0.90418 0.75074 0.53159 0.0
H2206 H 0.95185 0.76354 0.48993 0.0
C2207 C 0.89623 0.71446 0.4465 0.0
C2208 C 0.91542 0.70512 0.43842 0.0
C2209 C 0.89773 0.72917 0.46395 0.0
C2210 C 0.93835 0.75985 0.50134 0.0
H2211 H 0.92374 0.74572 0.61024 0.0
H2212 H 0.91369 0.73797 0.57289 0.0
H2213 H 0.95595 0.77768 0.52673 0.0
H2214 H 0.95134 0.70375 0.44216 0.0
H2215 H 0.95405 0.7288 0.47313 0.0
H2216 H 0.88724 0.73166 0.50686 0.0
C2217 C 0.92179 0.75386 0.57701 0.0
C2218 C 0.94057 0.76821 0.52238 0.0
C2219 C 0.92763 0.75825 0.59844 0.0
C2220 C 0.93634 0.71113 0.4478 0.0
C2221 C 0.93785 0.7256 0.4655 0.0
C2222 C 0.90203 0.74226 0.51065 0.0
C2223 C 0.92758 0.76921 0.56096 0.0
C2224 C 0.92377 0.76323 0.53791 0.0
C2225 C 0.91843 0.73429 0.47422 0.0
C2226 C 0.91935 0.7462 0.49537 0.0
H2227 H 0.95341 0.8093 0.59258 0.0
H2228 H 0.94291 0.80173 0.55511 0.0
H2229 H 0.89077 0.74689 0.54306 0.0
H2230 H 0.87978 0.70914 0.44039 0.0
H2231 H 0.88244 0.73563 0.47004 0.0
C2232 C 0.53216 0.34879 0.68197 0.0
C2233 C 0.51186 0.33874 0.67418 0.0
C2234 C 0.53469 0.35372 0.70394 0.0
C2235 C 0.53041 0.37055 0.75087 0.0
H2236 H 0.52077 0.31949 0.78673 0.0
C2237 C 0.55861 0.37237 0.83922 0.0
C2238 C 0.57641 0.35863 0.84055 0.0
C2239 C 0.54357 0.37007 0.82194 0.0
C2240 C 0.52305 0.334 0.77702 0.0
H2241 H 0.47809 0.32645 0.6832 0.0
H2242 H 0.48278 0.3346 0.72156 0.0
H2243 H 0.50921 0.31736 0.74899 0.0
H2244 H 0.58992 0.32927 0.82718 0.0
H2245 H 0.56317 0.32463 0.79792 0.0
H2246 H 0.54507 0.38692 0.77871 0.0
C2247 C 0.49659 0.33887 0.71065 0.0
C2248 C 0.51647 0.3328 0.75546 0.0
C2249 C 0.49393 0.33431 0.68867 0.0
C2250 C 0.57676 0.34054 0.8263 0.0
C2251 C 0.56137 0.3378 0.80955 0.0
C2252 C 0.53661 0.37188 0.77255 0.0
C2253 C 0.51708 0.34834 0.71853 0.0
C2254 C 0.52081 0.35084 0.74202 0.0
C2255 C 0.54547 0.35325 0.80649 0.0
C2256 C 0.53371 0.35337 0.7856 0.0
H2257 H 0.54627 0.35229 0.67118 0.0
H2258 H 0.55075 0.36083 0.70968 0.0
H2259 H 0.5338 0.38471 0.74084 0.0
H2260 H 0.55725 0.38577 0.85056 0.0
H2261 H 0.53117 0.38198 0.82008 0.0
C2262 C 0.99864 0.32214 0.95089 0.0
C2263 C 0.98742 0.30196 0.94524 0.0
C2264 C 0.99412 0.3324 0.97054 0.0
C2265 C 0.96816 0.32277 0.02451 0.0
H2266 H 0.96519 0.38576 0.02435 0.0
C2267 C 0.95848 0.40279 0.08453 0.0
C2268 C 0.93836 0.3966 0.09543 0.0
C2269 C 0.96703 0.38903 0.06888 0.0
C2270 C 0.96629 0.3682 0.02477 0.0
H2271 H 0.96274 0.27661 0.95576 0.0
H2272 H 0.95432 0.29484 0.98982 0.0
H2273 H 0.97426 0.36657 0.99128 0.0
H2274 H 0.91259 0.37027 0.09998 0.0
H2275 H 0.92746 0.3462 0.07228 0.0
H2276 H 0.95944 0.3246 0.05809 0.0
C2277 C 0.96696 0.30254 0.97928 0.0
C2278 C 0.97151 0.35717 0.00578 0.0
C2279 C 0.97164 0.29219 0.95967 0.0
C2280 C 0.92812 0.37548 0.09181 0.0
C2281 C 0.93662 0.36171 0.07594 0.0
C2282 C 0.96274 0.33385 0.04358 0.0
C2283 C 0.97809 0.32283 0.98492 0.0
C2284 C 0.9726 0.33434 0.00538 0.0
C2285 C 0.95557 0.36884 0.06365 0.0
C2286 C 0.96189 0.35671 0.04389 0.0
H2287 H 0.0111 0.32995 0.94023 0.0
H2288 H 0.00332 0.3478 0.97452 0.0
H2289 H 0.96906 0.30519 0.02482 0.0
H2290 H 0.96695 0.41884 0.08723 0.0
H2291 H 0.98199 0.39471 0.06003 0.0
C2292 C 0.02184 0.7597 0.1999 0.0
C2293 C 0.01041 0.76123 0.18028 0.0
C2294 C 0.01115 0.74972 0.21764 0.0
C2295 C 0.9542 0.7379 0.23927 0.0
H2296 H 0.98313 0.70232 0.28042 0.0
C2297 C 0.90315 0.69186 0.30359 0.0
C2298 C 0.91073 0.69349 0.32497 0.0
C2299 C 0.91703 0.69895 0.28668 0.0
C2300 C 0.97498 0.71244 0.26917 0.0
H2301 H 0.97912 0.7523 0.16368 0.0
H2302 H 0.96064 0.73455 0.1945 0.0
H2303 H 0.00405 0.7158 0.24859 0.0
H2304 H 0.93919 0.70325 0.3453 0.0
H2305 H 0.96385 0.71574 0.31531 0.0
H2306 H 0.92519 0.73459 0.25962 0.0
C2307 C 0.97774 0.74152 0.19628 0.0
C2308 C 0.98689 0.7201 0.25094 0.0
C2309 C 0.9884 0.75156 0.17854 0.0
C2310 C 0.93295 0.70169 0.32898 0.0
C2311 C 0.94701 0.70884 0.31186 0.0
C2312 C 0.94237 0.73026 0.25736 0.0
C2313 C 0.98879 0.741 0.21619 0.0
C2314 C 0.9765 0.73271 0.23565 0.0
C2315 C 0.93892 0.70797 0.2906 0.0
C2316 C 0.95248 0.7172 0.27236 0.0
H2317 H 0.0388 0.76699 0.2019 0.0
H2318 H 0.0201 0.74974 0.23276 0.0
H2319 H 0.94589 0.74809 0.2282 0.0
H2320 H 0.88628 0.68519 0.29986 0.0
H2321 H 0.9105 0.69756 0.27045 0.0
C2322 C 0.55143 0.74201 0.45521 0.0
C2323 C 0.55663 0.73256 0.43518 0.0
C2324 C 0.56356 0.73751 0.47356 0.0
C2325 C 0.60033 0.69586 0.4936 0.0
H2326 H 0.60255 0.73379 0.54436 0.0
C2327 C 0.63387 0.66519 0.57148 0.0
C2328 C 0.61652 0.66323 0.58682 0.0
C2329 C 0.6326 0.67952 0.55439 0.0
C2330 C 0.60227 0.72318 0.53021 0.0
H2331 H 0.57946 0.71217 0.41831 0.0
H2332 H 0.60153 0.70527 0.45002 0.0
H2333 H 0.58946 0.74746 0.51025 0.0
H2334 H 0.58507 0.67541 0.59744 0.0
H2335 H 0.58303 0.70102 0.56775 0.0
H2336 H 0.61317 0.67168 0.51358 0.0
C2337 C 0.58743 0.71535 0.4519 0.0
C2338 C 0.59455 0.73086 0.51069 0.0
C2339 C 0.57489 0.71939 0.43364 0.0
C2340 C 0.59887 0.67712 0.58601 0.0
C2341 C 0.59771 0.69168 0.56902 0.0
C2342 C 0.60849 0.68842 0.51291 0.0
C2343 C 0.58155 0.72384 0.47227 0.0
C2344 C 0.59281 0.71705 0.49225 0.0
C2345 C 0.61393 0.69207 0.55245 0.0
C2346 C 0.60899 0.70178 0.53152 0.0
H2347 H 0.53734 0.75216 0.45689 0.0
H2348 H 0.55811 0.74408 0.48886 0.0
H2349 H 0.59889 0.68446 0.4801 0.0
H2350 H 0.64741 0.65429 0.57167 0.0
H2351 H 0.64532 0.67959 0.54184 0.0
C2352 C 0.81858 0.52497 0.68848 0.0
C2353 C 0.81943 0.50751 0.70267 0.0
C2354 C 0.79823 0.53414 0.6846 0.0
C2355 C 0.74725 0.54545 0.71274 0.0
H2356 H 0.72909 0.56629 0.65738 0.0
C2357 C 0.68152 0.60731 0.67371 0.0
C2358 C 0.68889 0.62658 0.68493 0.0
C2359 C 0.69238 0.58799 0.6764 0.0
C2360 C 0.73367 0.56023 0.67288 0.0
H2361 H 0.79963 0.48547 0.7235 0.0
H2362 H 0.76409 0.5019 0.7171 0.0
H2363 H 0.75852 0.54038 0.65909 0.0
H2364 H 0.71188 0.64002 0.70952 0.0
H2365 H 0.73019 0.60638 0.71466 0.0
H2366 H 0.72351 0.56641 0.72665 0.0
C2367 C 0.77911 0.50822 0.70872 0.0
C2368 C 0.75056 0.54556 0.67386 0.0
C2369 C 0.7994 0.49874 0.71223 0.0
C2370 C 0.70593 0.62559 0.70033 0.0
C2371 C 0.71639 0.60625 0.70339 0.0
C2372 C 0.73063 0.56038 0.71178 0.0
C2373 C 0.77844 0.52629 0.6952 0.0
C2374 C 0.75794 0.53853 0.69383 0.0
C2375 C 0.71024 0.58745 0.69098 0.0
C2376 C 0.72416 0.56839 0.69187 0.0
H2377 H 0.83381 0.53211 0.68104 0.0
H2378 H 0.79825 0.54821 0.67429 0.0
H2379 H 0.75273 0.54041 0.72836 0.0
H2380 H 0.6679 0.60722 0.66243 0.0
H2381 H 0.68716 0.57362 0.66679 0.0
C2382 C 0.70262 0.59718 0.96183 0.0
C2383 C 0.71978 0.60569 0.97563 0.0
C2384 C 0.70329 0.57616 0.95281 0.0
C2385 C 0.72546 0.52356 0.96476 0.0
H2386 H 0.69854 0.5068 0.90976 0.0
C2387 C 0.66933 0.44669 0.95012 0.0
C2388 C 0.66685 0.43763 0.92931 0.0
C2389 C 0.6853 0.46398 0.95417 0.0
C2390 C 0.70667 0.51113 0.92494 0.0
H2391 H 0.75182 0.59909 0.98974 0.0
H2392 H 0.75296 0.56258 0.9739 0.0
H2393 H 0.70774 0.54536 0.91827 0.0
H2394 H 0.68075 0.43757 0.89702 0.0
H2395 H 0.70856 0.46826 0.90397 0.0
H2396 H 0.7235 0.48938 0.97177 0.0
C2397 C 0.73883 0.57204 0.97032 0.0
C2398 C 0.71162 0.53328 0.92994 0.0
C2399 C 0.73816 0.59304 0.97935 0.0
C2400 C 0.68233 0.44437 0.91319 0.0
C2401 C 0.69811 0.46202 0.91714 0.0
C2402 C 0.72049 0.50142 0.95977 0.0
C2403 C 0.72117 0.56316 0.95733 0.0
C2404 C 0.72016 0.53978 0.95026 0.0
C2405 C 0.69887 0.47274 0.93739 0.0
C2406 C 0.71009 0.49503 0.9402 0.0
H2407 H 0.68824 0.60644 0.95857 0.0
H2408 H 0.68925 0.56972 0.94309 0.0
H2409 H 0.732 0.52796 0.98058 0.0
H2410 H 0.65757 0.44172 0.9628 0.0
H2411 H 0.68532 0.47185 0.96993 0.0
C2412 C 0.66742 0.50588 0.22112 0.0
C2413 C 0.6617 0.52558 0.21217 0.0
C2414 C 0.68586 0.49534 0.21319 0.0
C2415 C 0.73884 0.50693 0.18246 0.0
H2416 H 0.74111 0.44395 0.18478 0.0
C2417 C 0.8125 0.45702 0.15032 0.0
C2418 C 0.81989 0.44192 0.16493 0.0
C2419 C 0.79352 0.46847 0.15502 0.0
C2420 C 0.74069 0.46157 0.18412 0.0
H2421 H 0.66992 0.5491 0.18717 0.0
H2422 H 0.70152 0.53025 0.1727 0.0
H2423 H 0.70606 0.46042 0.19333 0.0
H2424 H 0.81346 0.42689 0.19588 0.0
H2425 H 0.78011 0.4466 0.20397 0.0
H2426 H 0.77354 0.5078 0.1728 0.0
C2427 C 0.6923 0.52328 0.18632 0.0
C2428 C 0.72065 0.47104 0.18909 0.0
C2429 C 0.67406 0.53398 0.19447 0.0
C2430 C 0.80819 0.43861 0.18443 0.0
C2431 C 0.7891 0.44977 0.189 0.0
C2432 C 0.75882 0.49739 0.17715 0.0
C2433 C 0.69879 0.50411 0.19591 0.0
C2434 C 0.71956 0.49388 0.18873 0.0
C2435 C 0.78137 0.4645 0.17418 0.0
C2436 C 0.75999 0.47467 0.17836 0.0
H2437 H 0.65831 0.49914 0.23492 0.0
H2438 H 0.69049 0.4808 0.22123 0.0
H2439 H 0.73878 0.5246 0.18229 0.0
H2440 H 0.82048 0.45887 0.13474 0.0
H2441 H 0.78769 0.47955 0.14322 0.0
C2442 C 0.7614 0.47337 0.4786 0.0
C2443 C 0.74823 0.47307 0.49748 0.0
C2444 C 0.76904 0.49325 0.46941 0.0
C2445 C 0.77804 0.53828 0.44934 0.0
H2446 H 0.80484 0.57942 0.49161 0.0
C2447 C 0.83031 0.61744 0.42484 0.0
C2448 C 0.85178 0.61928 0.43421 0.0
C2449 C 0.81352 0.60245 0.43275 0.0
C2450 C 0.79727 0.56819 0.47962 0.0
H2451 H 0.73163 0.49359 0.52069 0.0
H2452 H 0.74486 0.52805 0.50461 0.0
H2453 H 0.78242 0.54703 0.50359 0.0
H2454 H 0.87193 0.60801 0.46017 0.0
H2455 H 0.84266 0.58235 0.47415 0.0
H2456 H 0.79379 0.55908 0.4254 0.0
C2457 C 0.74947 0.51293 0.49704 0.0
C2458 C 0.78427 0.54971 0.48646 0.0
C2459 C 0.74175 0.49309 0.50616 0.0
C2460 C 0.85562 0.60691 0.45248 0.0
C2461 C 0.83879 0.59226 0.46058 0.0
C2462 C 0.79094 0.55688 0.44249 0.0
C2463 C 0.76377 0.51327 0.47896 0.0
C2464 C 0.77496 0.53425 0.47142 0.0
C2465 C 0.81776 0.58943 0.45047 0.0
C2466 C 0.80119 0.57172 0.45758 0.0
H2467 H 0.76676 0.45831 0.4715 0.0
H2468 H 0.78016 0.49294 0.45556 0.0
H2469 H 0.77092 0.52677 0.43738 0.0
H2470 H 0.8268 0.62677 0.41076 0.0
H2471 H 0.7974 0.60071 0.42474 0.0
C2472 C 0.79359 0.53024 0.76612 0.0
C2473 C 0.81322 0.51963 0.77042 0.0
C2474 C 0.77348 0.52438 0.77691 0.0
C2475 C 0.74839 0.49425 0.82338 0.0
H2476 H 0.69918 0.47867 0.78426 0.0
C2477 C 0.6719 0.42611 0.82064 0.0
C2478 C 0.6616 0.42887 0.84082 0.0
C2479 C 0.68679 0.44249 0.8124 0.0
C2480 C 0.71265 0.48324 0.79542 0.0
H2481 H 0.82733 0.49544 0.7904 0.0
H2482 H 0.79223 0.48536 0.80938 0.0
H2483 H 0.73356 0.49784 0.7707 0.0
H2484 H 0.65768 0.45146 0.86761 0.0
H2485 H 0.68447 0.48003 0.85341 0.0
H2486 H 0.72775 0.47874 0.8479 0.0
C2487 C 0.79245 0.49824 0.79764 0.0
C2488 C 0.73229 0.4943 0.78771 0.0
C2489 C 0.81256 0.50394 0.78669 0.0
C2490 C 0.66542 0.44891 0.85202 0.0
C2491 C 0.6808 0.46518 0.84397 0.0
C2492 C 0.72862 0.48339 0.83116 0.0
C2493 C 0.77256 0.50794 0.79241 0.0
C2494 C 0.75064 0.49933 0.80146 0.0
C2495 C 0.69201 0.46186 0.82431 0.0
C2496 C 0.71084 0.47716 0.81709 0.0
H2497 H 0.79339 0.54232 0.75362 0.0
H2498 H 0.75846 0.53225 0.77265 0.0
H2499 H 0.76219 0.49809 0.83437 0.0
H2500 H 0.66919 0.41085 0.81163 0.0
H2501 H 0.69528 0.4394 0.79728 0.0
C2502 C 0.78473 0.611 0.05832 0.0
C2503 C 0.76133 0.61208 0.05726 0.0
C2504 C 0.79392 0.59345 0.06823 0.0
C2505 C 0.78153 0.53585 0.08079 0.0
H2506 H 0.8357 0.54513 0.11484 0.0
C2507 C 0.85604 0.48703 0.12417 0.0
C2508 C 0.86136 0.47345 0.10675 0.0
C2509 C 0.8389 0.50127 0.12238 0.0
C2510 C 0.82032 0.54215 0.10574 0.0
H2511 H 0.72916 0.59576 0.06603 0.0
H2512 H 0.7453 0.56492 0.08327 0.0
H2513 H 0.81576 0.5764 0.10412 0.0
H2514 H 0.85294 0.46344 0.07411 0.0
H2515 H 0.82276 0.48818 0.07088 0.0
H2516 H 0.78651 0.50156 0.08197 0.0
C2517 C 0.75648 0.5777 0.0764 0.0
C2518 C 0.80907 0.56013 0.09937 0.0
C2519 C 0.74728 0.5954 0.06665 0.0
C2520 C 0.84858 0.47336 0.08793 0.0
C2521 C 0.83136 0.48756 0.08613 0.0
C2522 C 0.79287 0.51781 0.08711 0.0
C2523 C 0.77991 0.57648 0.07717 0.0
C2524 C 0.78991 0.55723 0.08634 0.0
C2525 C 0.82699 0.50235 0.10301 0.0
C2526 C 0.81272 0.52081 0.09921 0.0
H2527 H 0.796 0.62357 0.05121 0.0
H2528 H 0.81203 0.59283 0.0683 0.0
H2529 H 0.76683 0.53312 0.07069 0.0
H2530 H 0.86607 0.48761 0.13868 0.0
H2531 H 0.83573 0.51222 0.13578 0.0
C2532 C 0.68407 0.59234 0.30234 0.0
C2533 C 0.67471 0.57612 0.28814 0.0
C2534 C 0.70457 0.5897 0.3124 0.0
C2535 C 0.75659 0.56248 0.30404 0.0
H2536 H 0.7698 0.58684 0.36092 0.0
C2537 C 0.83315 0.59993 0.363 0.0
C2538 C 0.84235 0.61472 0.3478 0.0
C2539 C 0.81559 0.58464 0.35714 0.0
C2540 C 0.76643 0.57934 0.34524 0.0
H2541 H 0.67936 0.54403 0.27394 0.0
H2542 H 0.71505 0.53956 0.29148 0.0
H2543 H 0.73097 0.58166 0.34911 0.0
H2544 H 0.84296 0.62343 0.31425 0.0
H2545 H 0.81297 0.5966 0.30379 0.0
H2546 H 0.79216 0.56111 0.29982 0.0
C2547 C 0.70659 0.55435 0.29471 0.0
C2548 C 0.74415 0.57673 0.33835 0.0
C2549 C 0.68607 0.55695 0.2847 0.0
C2550 C 0.83618 0.612 0.32616 0.0
C2551 C 0.81891 0.5966 0.32022 0.0
C2552 C 0.7789 0.56511 0.31092 0.0
C2553 C 0.71621 0.57081 0.30846 0.0
C2554 C 0.73909 0.56925 0.31733 0.0
C2555 C 0.80728 0.58394 0.33596 0.0
C2556 C 0.78414 0.57459 0.33121 0.0
H2557 H 0.6758 0.60728 0.30539 0.0
H2558 H 0.71171 0.60285 0.32265 0.0
H2559 H 0.75327 0.55662 0.28774 0.0
H2560 H 0.83765 0.60186 0.37982 0.0
H2561 H 0.80718 0.57486 0.36955 0.0
C2562 C 0.79019 0.4755 0.55083 0.0
C2563 C 0.77691 0.45729 0.5583 0.0
C2564 C 0.78743 0.49634 0.5595 0.0
C2565 C 0.76004 0.53594 0.56564 0.0
H2566 H 0.74187 0.54746 0.62454 0.0
C2567 C 0.68542 0.58365 0.58862 0.0
C2568 C 0.68595 0.59732 0.60704 0.0
C2569 C 0.70386 0.57199 0.58305 0.0
C2570 C 0.74751 0.54485 0.60817 0.0
H2571 H 0.75179 0.44617 0.58177 0.0
H2572 H 0.74702 0.48243 0.59698 0.0
H2573 H 0.763 0.51564 0.61625 0.0
H2574 H 0.70681 0.61046 0.63338 0.0
H2575 H 0.73899 0.58934 0.62391 0.0
H2576 H 0.74336 0.56444 0.55745 0.0
C2577 C 0.75959 0.48073 0.5845 0.0
C2578 C 0.75937 0.52652 0.60337 0.0
C2579 C 0.76219 0.45996 0.5757 0.0
C2580 C 0.70577 0.59982 0.61926 0.0
C2581 C 0.72419 0.58783 0.61384 0.0
C2582 C 0.74816 0.55424 0.57047 0.0
C2583 C 0.77155 0.49923 0.57595 0.0
C2584 C 0.76477 0.52132 0.58192 0.0
C2585 C 0.72322 0.57356 0.59586 0.0
C2586 C 0.74088 0.55825 0.59163 0.0
H2587 H 0.80166 0.47391 0.53738 0.0
H2588 H 0.79693 0.51031 0.55268 0.0
H2589 H 0.76383 0.53232 0.54893 0.0
H2590 H 0.67054 0.58156 0.57868 0.0
H2591 H 0.70251 0.56089 0.56927 0.0
C2592 C 0.75121 0.84796 0.53212 0.0
C2593 C 0.74745 0.86459 0.54738 0.0
C2594 C 0.7413 0.82678 0.53467 0.0
C2595 C 0.69636 0.79467 0.56433 0.0
H2596 H 0.73659 0.74775 0.55972 0.0
C2597 C 0.66885 0.70885 0.59425 0.0
C2598 C 0.68412 0.70134 0.60901 0.0
C2599 C 0.67548 0.726 0.5805 0.0
C2600 C 0.72508 0.76064 0.56087 0.0
H2601 H 0.7297 0.87206 0.57695 0.0
H2602 H 0.71261 0.83518 0.58145 0.0
H2603 H 0.74941 0.78438 0.54808 0.0
H2604 H 0.71846 0.70487 0.62033 0.0
H2605 H 0.73009 0.73472 0.59646 0.0
H2606 H 0.67249 0.77126 0.57827 0.0
C2607 C 0.72305 0.83856 0.56739 0.0
C2608 C 0.73236 0.78159 0.55406 0.0
C2609 C 0.73303 0.85968 0.56491 0.0
C2610 C 0.70642 0.71033 0.60898 0.0
C2611 C 0.71309 0.72733 0.5952 0.0
C2612 C 0.68906 0.77372 0.57108 0.0
C2613 C 0.7273 0.8218 0.55246 0.0
C2614 C 0.71833 0.79899 0.55639 0.0
C2615 C 0.69751 0.73586 0.58132 0.0
C2616 C 0.70362 0.75665 0.57011 0.0
H2617 H 0.7622 0.85114 0.51839 0.0
H2618 H 0.74475 0.81425 0.52282 0.0
H2619 H 0.68505 0.80769 0.56602 0.0
H2620 H 0.65142 0.70261 0.59444 0.0
H2621 H 0.66312 0.73217 0.56992 0.0
C2622 C 0.20262 0.71264 0.51525 0.0
C2623 C 0.22247 0.72046 0.5257 0.0
C2624 C 0.18768 0.72724 0.50759 0.0
C2625 C 0.17676 0.78694 0.50537 0.0
H2626 H 0.15923 0.77065 0.447 0.0
C2627 C 0.16961 0.84701 0.43591 0.0
C2628 C 0.15438 0.84122 0.41937 0.0
C2629 C 0.17078 0.83355 0.45379 0.0
C2630 C 0.16345 0.77538 0.46344 0.0
H2631 H 0.24158 0.74965 0.53745 0.0
H2632 H 0.21616 0.77506 0.52341 0.0
H2633 H 0.17439 0.74381 0.4697 0.0
H2634 H 0.1274 0.81815 0.40885 0.0
H2635 H 0.12913 0.79476 0.44019 0.0
H2636 H 0.16705 0.8191 0.49823 0.0
C2637 C 0.21165 0.7577 0.52155 0.0
C2638 C 0.17216 0.75988 0.47658 0.0
C2639 C 0.22636 0.74308 0.52954 0.0
C2640 C 0.13922 0.82285 0.42156 0.0
C2641 C 0.14034 0.80944 0.43938 0.0
C2642 C 0.16819 0.80256 0.49208 0.0
C2643 C 0.19252 0.75001 0.50978 0.0
C2644 C 0.17957 0.76557 0.49751 0.0
C2645 C 0.15684 0.81407 0.45518 0.0
C2646 C 0.16203 0.79707 0.47077 0.0
H2647 H 0.19901 0.69527 0.5123 0.0
H2648 H 0.17281 0.72067 0.49914 0.0
H2649 H 0.18186 0.79181 0.52154 0.0
H2650 H 0.1816 0.86103 0.4343 0.0
H2651 H 0.1838 0.83749 0.46558 0.0
C2652 C 0.56249 0.00265 0.78747 0.0
C2653 C 0.58079 0.99818 0.77409 0.0
C2654 C 0.5407 0.99465 0.78201 0.0
C2655 C 0.50734 0.95527 0.74734 0.0
H2656 H 0.47012 0.0034 0.73697 0.0
C2657 C 0.44861 0.97554 0.67675 0.0
C2658 C 0.43139 0.95861 0.67637 0.0
C2659 C 0.46165 0.97962 0.69506 0.0
C2660 C 0.48004 0.98971 0.7403 0.0
H2661 H 0.59094 0.98084 0.74534 0.0
H2662 H 0.55292 0.96652 0.736 0.0
H2663 H 0.50425 0.00975 0.75838 0.0
H2664 H 0.41312 0.93404 0.6957 0.0
H2665 H 0.43677 0.94078 0.7276 0.0
H2666 H 0.48372 0.93558 0.7281 0.0
C2667 C 0.5554 0.97622 0.75066 0.0
C2668 C 0.49951 0.99331 0.75255 0.0
C2669 C 0.57712 0.98455 0.75589 0.0
C2670 C 0.42665 0.94676 0.69525 0.0
C2671 C 0.44007 0.9506 0.71351 0.0
C2672 C 0.48763 0.9516 0.73537 0.0
C2673 C 0.53693 0.98169 0.76334 0.0
C2674 C 0.51387 0.97637 0.7553 0.0
C2675 C 0.45794 0.96678 0.71335 0.0
C2676 C 0.47444 0.96905 0.73094 0.0
H2677 H 0.56486 0.01321 0.80157 0.0
H2678 H 0.52671 0.99915 0.79198 0.0
H2679 H 0.51811 0.94195 0.74934 0.0
H2680 H 0.45255 0.98529 0.66266 0.0
H2681 H 0.47542 0.99215 0.69453 0.0
C2682 C 0.33045 0.35539 0.00859 0.0
C2683 C 0.31829 0.36952 0.99632 0.0
C2684 C 0.33925 0.33698 0.99899 0.0
C2685 C 0.3406 0.29192 0.97717 0.0
H2686 H 0.36385 0.29398 0.91874 0.0
C2687 C 0.33643 0.21783 0.91888 0.0
C2688 C 0.35335 0.21626 0.90331 0.0
C2689 C 0.33719 0.23552 0.93345 0.0
C2690 C 0.35782 0.2931 0.93521 0.0
H2691 H 0.3063 0.37573 0.9643 0.0
H2692 H 0.32146 0.34366 0.94761 0.0
H2693 H 0.35641 0.32784 0.93763 0.0
H2694 H 0.3844 0.23143 0.89057 0.0
H2695 H 0.38591 0.26241 0.91609 0.0
H2696 H 0.34174 0.25708 0.97457 0.0
C2697 C 0.32445 0.34687 0.96459 0.0
C2698 C 0.35327 0.31252 0.94594 0.0
C2699 C 0.31562 0.36519 0.97418 0.0
C2700 C 0.37142 0.23218 0.90281 0.0
C2701 C 0.3721 0.25001 0.91721 0.0
C2702 C 0.34517 0.27245 0.96643 0.0
C2703 C 0.33617 0.33241 0.97691 0.0
C2704 C 0.34399 0.31212 0.96679 0.0
C2705 C 0.35467 0.25218 0.93233 0.0
C2706 C 0.35323 0.27278 0.9451 0.0
H2707 H 0.33282 0.35831 0.0257 0.0
H2708 H 0.34836 0.32625 0.00886 0.0
H2709 H 0.33341 0.29104 0.99322 0.0
H2710 H 0.32205 0.20597 0.91907 0.0
H2711 H 0.3233 0.23686 0.94462 0.0
C2712 C 0.43651 0.58164 0.74177 0.0
C2713 C 0.43152 0.56516 0.75688 0.0
C2714 C 0.45867 0.58704 0.73549 0.0
C2715 C 0.51855 0.58282 0.74671 0.0
H2716 H 0.52301 0.57769 0.68452 0.0
C2717 C 0.59529 0.61125 0.69222 0.0
C2718 C 0.59877 0.59806 0.67389 0.0
C2719 C 0.57774 0.60551 0.70663 0.0
C2720 C 0.52211 0.57899 0.70192 0.0
H2721 H 0.44619 0.54269 0.77852 0.0
H2722 H 0.48504 0.55229 0.76743 0.0
H2723 H 0.48637 0.57348 0.70185 0.0
H2724 H 0.58858 0.56739 0.65766 0.0
H2725 H 0.55833 0.55725 0.68292 0.0
H2726 H 0.55458 0.58866 0.7465 0.0
C2727 C 0.47167 0.56094 0.76052 0.0
C2728 C 0.50109 0.57686 0.71181 0.0
C2729 C 0.44941 0.55543 0.7668 0.0
C2730 C 0.58608 0.57798 0.6715 0.0
C2731 C 0.56873 0.57222 0.68591 0.0
C2732 C 0.53974 0.5853 0.7367 0.0
C2733 C 0.47638 0.57617 0.74419 0.0
C2734 C 0.49904 0.57882 0.73426 0.0
C2735 C 0.5636 0.5865 0.7029 0.0
C2736 C 0.54167 0.58325 0.71419 0.0
H2737 H 0.42322 0.58968 0.734 0.0
H2738 H 0.46192 0.59909 0.72308 0.0
H2739 H 0.51736 0.58436 0.76407 0.0
H2740 H 0.60476 0.62688 0.6944 0.0
H2741 H 0.57412 0.61682 0.71959 0.0
C2742 C 0.78493 0.23612 0.99942 0.0
C2743 C 0.78454 0.22065 0.01588 0.0
C2744 C 0.79539 0.25706 0.00265 0.0
C2745 C 0.80255 0.30322 0.02285 0.0
H2746 H 0.85926 0.3121 0.05303 0.0
C2747 C 0.8233 0.36918 0.08616 0.0
C2748 C 0.84556 0.37768 0.08893 0.0
C2749 C 0.81779 0.35449 0.06932 0.0
C2750 C 0.84369 0.31002 0.04411 0.0
H2751 H 0.79527 0.21466 0.04836 0.0
H2752 H 0.8138 0.25115 0.05393 0.0
H2753 H 0.84686 0.27565 0.03942 0.0
H2754 H 0.87924 0.37907 0.07555 0.0
H2755 H 0.86973 0.35271 0.04622 0.0
H2756 H 0.79871 0.33733 0.02879 0.0
C2757 C 0.80606 0.24707 0.03852 0.0
C2758 C 0.83648 0.28911 0.03657 0.0
C2759 C 0.79532 0.22626 0.03541 0.0
C2760 C 0.86192 0.37279 0.07356 0.0
C2761 C 0.85651 0.35766 0.05691 0.0
C2762 C 0.80964 0.32411 0.03062 0.0
C2763 C 0.80596 0.26275 0.02228 0.0
C2764 C 0.81548 0.28537 0.02658 0.0
C2765 C 0.83458 0.34767 0.05525 0.0
C2766 C 0.82988 0.32753 0.04203 0.0
H2767 H 0.77669 0.23225 0.9842 0.0
H2768 H 0.79509 0.26885 0.98989 0.0
H2769 H 0.78626 0.30077 0.01523 0.0
H2770 H 0.81049 0.37267 0.09795 0.0
H2771 H 0.80082 0.34694 0.0686 0.0
C2772 C 0.57881 0.08639 0.78448 0.0
C2773 C 0.57791 0.07408 0.76515 0.0
C2774 C 0.56071 0.09831 0.79094 0.0
C2775 C 0.49963 0.09601 0.78474 0.0
H2776 H 0.50553 0.14797 0.82136 0.0
C2777 C 0.44624 0.15015 0.84989 0.0
C2778 C 0.43764 0.13251 0.86224 0.0
C2779 C 0.4597 0.14648 0.83178 0.0
C2780 C 0.50342 0.13374 0.81077 0.0
H2781 H 0.55783 0.06604 0.73668 0.0
H2782 H 0.52644 0.08701 0.74789 0.0
H2783 H 0.53804 0.1367 0.80109 0.0
H2784 H 0.43536 0.09733 0.8652 0.0
H2785 H 0.45858 0.09076 0.83367 0.0
H2786 H 0.4652 0.09266 0.79495 0.0
C2787 C 0.54098 0.0871 0.75824 0.0
C2788 C 0.52216 0.12713 0.79938 0.0
C2789 C 0.55907 0.07516 0.75178 0.0
C2790 C 0.44151 0.11113 0.85562 0.0
C2791 C 0.45477 0.10742 0.83751 0.0
C2792 C 0.48091 0.10263 0.79612 0.0
C2793 C 0.54129 0.09826 0.7782 0.0
C2794 C 0.52069 0.10771 0.78689 0.0
C2795 C 0.46476 0.12508 0.82587 0.0
C2796 C 0.48281 0.12107 0.80995 0.0
H2797 H 0.59302 0.08597 0.79519 0.0
H2798 H 0.56146 0.10653 0.80653 0.0
H2799 H 0.49786 0.08092 0.77536 0.0
H2800 H 0.4442 0.16678 0.85525 0.0
H2801 H 0.46711 0.16042 0.82312 0.0
C2802 C 0.93432 0.99523 0.31797 0.0
C2803 C 0.92669 0.99188 0.29676 0.0
C2804 C 0.95378 0.98598 0.32476 0.0
C2805 C 0.9912 0.94205 0.31381 0.0
H2806 H 0.03378 0.97973 0.34676 0.0
C2807 C 0.05463 0.9126 0.37424 0.0
C2808 C 0.07488 0.92522 0.37758 0.0
C2809 C 0.03956 0.91841 0.35858 0.0
C2810 C 0.02233 0.96905 0.33724 0.0
H2811 H 0.93307 0.97565 0.26621 0.0
H2812 H 0.96691 0.95921 0.27826 0.0
H2813 H 0.00058 0.99473 0.33201 0.0
H2814 H 0.09601 0.95305 0.36677 0.0
H2815 H 0.06973 0.96326 0.33913 0.0
H2816 H 0.01276 0.91618 0.31966 0.0
C2817 C 0.95788 0.96908 0.28955 0.0
C2818 C 0.00312 0.97759 0.32906 0.0
C2819 C 0.93854 0.97854 0.28267 0.0
C2820 C 0.08065 0.94284 0.36409 0.0
C2821 C 0.06551 0.94878 0.34849 0.0
C2822 C 0.01039 0.93341 0.3222 0.0
C2823 C 0.96591 0.97302 0.31056 0.0
C2824 C 0.98711 0.96411 0.31767 0.0
C2825 C 0.04433 0.93726 0.34632 0.0
C2826 C 0.02596 0.94675 0.33434 0.0
H2827 H 0.92559 0.00543 0.3292 0.0
H2828 H 0.95939 0.98904 0.34115 0.0
H2829 H 0.97915 0.93128 0.30506 0.0
H2830 H 0.0497 0.89921 0.38483 0.0
H2831 H 0.02336 0.90928 0.35747 0.0
C2832 C 0.47041 0.30665 0.2166 0.0
C2833 C 0.48554 0.31484 0.20078 0.0
C2834 C 0.4693 0.317 0.23667 0.0
C2835 C 0.47406 0.36868 0.26376 0.0
H2836 H 0.4716 0.33296 0.31478 0.0
C2837 C 0.43212 0.39802 0.34183 0.0
C2838 C 0.41488 0.38259 0.34809 0.0
C2839 C 0.44906 0.39185 0.32763 0.0
C2840 C 0.47249 0.34327 0.30077 0.0
H2841 H 0.51133 0.34042 0.19351 0.0
H2842 H 0.50862 0.35928 0.22876 0.0
H2843 H 0.48571 0.31822 0.28092 0.0
H2844 H 0.40236 0.34865 0.34582 0.0
H2845 H 0.43192 0.33773 0.32163 0.0
H2846 H 0.45907 0.39307 0.28314 0.0
C2847 C 0.49799 0.34453 0.22551 0.0
C2848 C 0.48061 0.33485 0.28143 0.0
C2849 C 0.49948 0.33381 0.20542 0.0
C2850 C 0.41568 0.36072 0.34136 0.0
C2851 C 0.43268 0.35451 0.32754 0.0
C2852 C 0.46574 0.37708 0.28313 0.0
C2853 C 0.48301 0.33602 0.24136 0.0
C2854 C 0.48043 0.34708 0.26254 0.0
C2855 C 0.44909 0.37013 0.31982 0.0
C2856 C 0.46378 0.364 0.30155 0.0
H2857 H 0.45957 0.29197 0.21363 0.0
H2858 H 0.45736 0.3103 0.24848 0.0
H2859 H 0.4737 0.37839 0.24938 0.0
H2860 H 0.43157 0.41507 0.34663 0.0
H2861 H 0.46151 0.40423 0.32201 0.0
C2862 C 0.51776 0.78627 0.94195 0.0
C2863 C 0.50802 0.79054 0.92206 0.0
C2864 C 0.50469 0.78465 0.96061 0.0
C2865 C 0.44752 0.76997 0.97872 0.0
H2866 H 0.4723 0.78883 0.03412 0.0
C2867 C 0.40742 0.73711 0.05692 0.0
C2868 C 0.42311 0.72766 0.06987 0.0
C2869 C 0.41465 0.7517 0.0408 0.0
C2870 C 0.46506 0.78359 0.01878 0.0
H2871 H 0.47694 0.79712 0.90631 0.0
H2872 H 0.45387 0.79395 0.93912 0.0
H2873 H 0.49097 0.80155 0.00108 0.0
H2874 H 0.45842 0.72644 0.07699 0.0
H2875 H 0.4712 0.75208 0.04917 0.0
H2876 H 0.42227 0.75115 0.99636 0.0
C2877 C 0.47171 0.79182 0.94012 0.0
C2878 C 0.47575 0.79084 -0.00013 0.0
C2879 C 0.48489 0.79364 0.92136 0.0
C2880 C 0.44603 0.73388 0.06738 0.0
C2881 C 0.45328 0.74861 0.05148 0.0
C2882 C 0.43681 0.76273 0.99765 0.0
C2883 C 0.48149 0.78721 0.95993 0.0
C2884 C 0.46763 0.78336 0.97965 0.0
C2885 C 0.43774 0.75708 0.03748 0.0
C2886 C 0.44599 0.76874 0.01788 0.0
H2887 H 0.53559 0.78414 0.94319 0.0
H2888 H 0.51273 0.78075 0.9755 0.0
H2889 H 0.4409 0.76382 0.96342 0.0
H2890 H 0.38979 0.73185 0.05813 0.0
H2891 H 0.40228 0.75786 0.03024 0.0
C2892 C 0.99769 0.74016 0.71039 0.0
C2893 C 0.98557 0.72705 0.69504 0.0
C2894 C 0.00322 0.73169 0.73015 0.0
C2895 C 0.01285 0.68058 0.75697 0.0
H2896 H 0.01464 0.71895 0.80741 0.0
C2897 C 0.05908 0.65985 0.83465 0.0
C2898 C 0.07638 0.67614 0.83869 0.0
C2899 C 0.04151 0.66395 0.82074 0.0
C2900 C 0.01393 0.70793 0.79356 0.0
H2901 H 0.96974 0.6946 0.68859 0.0
H2902 H 0.9796 0.67973 0.72331 0.0
H2903 H 0.9959 0.72977 0.77491 0.0
H2904 H 0.08844 0.70964 0.83279 0.0
H2905 H 0.05745 0.71713 0.8093 0.0
H2906 H 0.0317 0.65915 0.7755 0.0
C2907 C 0.9848 0.69661 0.71987 0.0
C2908 C 0.00337 0.71416 0.77491 0.0
C2909 C 0.97917 0.70514 0.69999 0.0
C2910 C 0.07513 0.69694 0.82997 0.0
C2911 C 0.05738 0.7012 0.8166 0.0
C2912 C 0.02331 0.67426 0.77574 0.0
C2913 C 0.99678 0.70987 0.73521 0.0
C2914 C 0.00367 0.70106 0.75609 0.0
C2915 C 0.04081 0.68457 0.81127 0.0
C2916 C 0.02481 0.68836 0.79385 0.0
H2917 H 0.00291 0.75711 0.70724 0.0
H2918 H 0.01293 0.74223 0.74137 0.0
H2919 H 0.01339 0.67013 0.74276 0.0
H2920 H 0.05993 0.64361 0.84106 0.0
H2921 H 0.02896 0.65086 0.81681 0.0
C2922 C 0.07672 0.35118 0.41279 0.0
C2923 C 0.07735 0.33089 0.40199 0.0
C2924 C 0.08577 0.35423 0.43336 0.0
C2925 C 0.09009 0.32558 0.48186 0.0
H2926 H 0.1286 0.37579 0.50092 0.0
C2927 C 0.08405 0.37075 0.56356 0.0
C2928 C 0.10406 0.37842 0.57376 0.0
C2929 C 0.08473 0.35941 0.54386 0.0
C2930 C 0.11816 0.36145 0.49585 0.0
H2931 H 0.0895 0.29841 0.40363 0.0
H2932 H 0.10436 0.30349 0.44018 0.0
H2933 H 0.12421 0.36783 0.4624 0.0
H2934 H 0.14041 0.38022 0.57163 0.0
H2935 H 0.14163 0.36036 0.53718 0.0
H2936 H 0.08273 0.32017 0.5153 0.0
C2937 C 0.09698 0.317 0.43252 0.0
C2938 C 0.1156 0.35699 0.47385 0.0
C2939 C 0.08848 0.31414 0.41164 0.0
C2940 C 0.12476 0.37382 0.56442 0.0
C2941 C 0.12546 0.36273 0.5446 0.0
C2942 C 0.09231 0.3303 0.50389 0.0
C2943 C 0.09526 0.33694 0.44368 0.0
C2944 C 0.10117 0.33932 0.46668 0.0
C2945 C 0.10545 0.35602 0.53384 0.0
C2946 C 0.10598 0.34858 0.51104 0.0
H2947 H 0.0684 0.36445 0.40571 0.0
H2948 H 0.08419 0.36974 0.44171 0.0
H2949 H 0.07868 0.31199 0.47665 0.0
H2950 H 0.06792 0.37442 0.57033 0.0
H2951 H 0.06906 0.35466 0.53576 0.0
C2952 C 0.48091 0.72535 0.34045 0.0
C2953 C 0.47569 0.74506 0.35062 0.0
C2954 C 0.47492 0.72101 0.31891 0.0
C2955 C 0.43646 0.73845 0.27695 0.0
H2956 H 0.47887 0.7155 0.23621 0.0
C2957 C 0.41885 0.74216 0.18805 0.0
C2958 C 0.41836 0.72193 0.17706 0.0
C2959 C 0.42974 0.745 0.20779 0.0
C2960 C 0.4669 0.72187 0.24746 0.0
H2961 H 0.45973 0.77542 0.34634 0.0
H2962 H 0.44952 0.76799 0.30918 0.0
H2963 H 0.48858 0.7189 0.27455 0.0
H2964 H 0.43011 0.68937 0.17731 0.0
H2965 H 0.44949 0.69434 0.2118 0.0
H2966 H 0.41491 0.74172 0.25012 0.0
C2967 C 0.45797 0.75571 0.31771 0.0
C2968 C 0.47235 0.72367 0.26939 0.0
C2969 C 0.46391 0.76001 0.33907 0.0
C2970 C 0.43073 0.70526 0.18519 0.0
C2971 C 0.44162 0.70806 0.20505 0.0
C2972 C 0.43115 0.73684 0.25518 0.0
C2973 C 0.46347 0.73624 0.30728 0.0
C2974 C 0.45729 0.73232 0.28432 0.0
C2975 C 0.44016 0.72758 0.21705 0.0
C2976 C 0.44641 0.7289 0.24013 0.0
H2977 H 0.49007 0.71355 0.34894 0.0
H2978 H 0.47923 0.70577 0.31138 0.0
H2979 H 0.42422 0.74463 0.28805 0.0
H2980 H 0.40947 0.7553 0.18211 0.0
H2981 H 0.42877 0.76039 0.2165 0.0
C2982 C 0.03959 0.77434 0.06097 0.0
C2983 C 0.05544 0.77571 0.07768 0.0
C2984 C 0.04474 0.76517 0.04103 0.0
C2985 C 0.05297 0.72995 0.00853 0.0
H2986 H 0.11044 0.73707 0.97894 0.0
C2987 C 0.06585 0.68011 0.9325 0.0
C2988 C 0.08538 0.66875 0.93251 0.0
C2989 C 0.06405 0.69828 0.94615 0.0
C2990 C 0.0943 0.73497 0.98703 0.0
H2991 H 0.08954 0.76938 0.08617 0.0
H2992 H 0.09841 0.75269 0.05122 0.0
H2993 H 0.104 0.75864 0.01178 0.0
H2994 H 0.11862 0.66749 0.94582 0.0
H2995 H 0.11553 0.69904 0.96997 0.0
H2996 H 0.04337 0.70589 0.98457 0.0
C2997 C 0.08206 0.75901 0.05362 0.0
C2998 C 0.09065 0.74724 0.00585 0.0
C2999 C 0.07693 0.76841 0.07367 0.0
C3000 C 0.10365 0.67651 0.94523 0.0
C3001 C 0.1018 0.69452 0.95909 0.0
C3002 C 0.0566 0.71775 0.98988 0.0
C3003 C 0.06581 0.7569 0.03725 0.0
C3004 C 0.06994 0.74474 0.01685 0.0
C3005 C 0.08153 0.70492 0.96049 0.0
C3006 C 0.07733 0.71995 0.97892 0.0
H3007 H 0.02303 0.78028 0.06328 0.0
H3008 H 0.03203 0.76427 0.02861 0.0
H3009 H 0.037 0.72723 0.01684 0.0
H3010 H 0.05149 0.67414 0.92296 0.0
H3011 H 0.04839 0.70622 0.94649 0.0
C3012 C 0.02301 0.30592 0.82767 0.0
C3013 C 0.03171 0.28544 0.83054 0.0
C3014 C 0.02502 0.31618 0.8077 0.0
C3015 C 0.04262 0.33889 0.76661 0.0
H3016 H 0.04138 0.30081 0.71595 0.0
C3017 C 0.06986 0.37082 0.68314 0.0
C3018 C 0.09016 0.36148 0.67813 0.0
C3019 C 0.05523 0.36132 0.69865 0.0
C3020 C 0.04132 0.31168 0.72991 0.0
H3021 H 0.05037 0.26026 0.8152 0.0
H3022 H 0.05461 0.2784 0.78087 0.0
H3023 H 0.03118 0.2856 0.751 0.0
H3024 H 0.10929 0.33312 0.6827 0.0
H3025 H 0.08335 0.31605 0.70874 0.0
H3026 H 0.05346 0.36483 0.74541 0.0
C3027 C 0.0455 0.28623 0.79366 0.0
C3028 C 0.03579 0.30298 0.75001 0.0
C3029 C 0.04336 0.27596 0.81345 0.0
C3030 C 0.09401 0.34097 0.68658 0.0
C3031 C 0.0791 0.33113 0.70144 0.0
C3032 C 0.04791 0.34765 0.74641 0.0
C3033 C 0.03584 0.30616 0.79032 0.0
C3034 C 0.03748 0.31627 0.76874 0.0
C3035 C 0.06023 0.34177 0.70845 0.0
C3036 C 0.04828 0.33391 0.72807 0.0
H3037 H 0.01368 0.31347 0.84048 0.0
H3038 H 0.01744 0.33155 0.80567 0.0
H3039 H 0.04406 0.34958 0.78068 0.0
H3040 H 0.06605 0.38614 0.67625 0.0
H3041 H 0.0406 0.36968 0.70366 0.0
C3042 C 0.4567 0.29892 0.56839 0.0
C3043 C 0.47642 0.31189 0.57348 0.0
C3044 C 0.44661 0.30055 0.5482 0.0
C3045 C 0.42363 0.32485 0.51139 0.0
H3046 H 0.46103 0.32859 0.46003 0.0
C3047 C 0.43555 0.3872 0.44073 0.0
C3048 C 0.41307 0.39074 0.43655 0.0
C3049 C 0.44104 0.36833 0.4511 0.0
C3050 C 0.45023 0.32736 0.47411 0.0
H3051 H 0.50146 0.33607 0.5613 0.0
H3052 H 0.48417 0.3386 0.52622 0.0
H3053 H 0.47523 0.31279 0.4926 0.0
H3054 H 0.37892 0.37714 0.43885 0.0
H3055 H 0.38824 0.34364 0.45653 0.0
H3056 H 0.39946 0.34125 0.49373 0.0
C3057 C 0.47641 0.32728 0.53774 0.0
C3058 C 0.45834 0.31827 0.49272 0.0
C3059 C 0.48615 0.32604 0.55794 0.0
C3060 C 0.39632 0.37431 0.44123 0.0
C3061 C 0.40172 0.35537 0.45174 0.0
C3062 C 0.41558 0.33417 0.49284 0.0
C3063 C 0.45652 0.31468 0.53268 0.0
C3064 C 0.44558 0.31803 0.51182 0.0
C3065 C 0.42406 0.35273 0.45779 0.0
C3066 C 0.42934 0.33669 0.47439 0.0
H3067 H 0.44894 0.28782 0.58009 0.0
H3068 H 0.43116 0.29081 0.54469 0.0
H3069 H 0.41349 0.32488 0.52593 0.0
H3070 H 0.44874 0.39984 0.43749 0.0
H3071 H 0.45839 0.3671 0.45566 0.0
C3072 C 0.1966 0.54765 0.32581 0.0
C3073 C 0.1798 0.53102 0.3211 0.0
C3074 C 0.21558 0.54295 0.33765 0.0
C3075 C 0.23739 0.50151 0.3731 0.0
H3076 H 0.29246 0.50808 0.33949 0.0
C3077 C 0.29567 0.43413 0.36359 0.0
C3078 C 0.31908 0.43815 0.36284 0.0
C3079 C 0.28176 0.45132 0.3655 0.0
C3080 C 0.27748 0.50664 0.34948 0.0
H3081 H 0.1688 0.49703 0.32594 0.0
H3082 H 0.20129 0.489 0.347 0.0
H3083 H 0.26063 0.52918 0.33037 0.0
H3084 H 0.34657 0.46321 0.36369 0.0
H3085 H 0.32183 0.4939 0.3664 0.0
H3086 H 0.25319 0.47741 0.39078 0.0
C3087 C 0.20008 0.50558 0.34158 0.0
C3088 C 0.25925 0.51874 0.34427 0.0
C3089 C 0.18153 0.51011 0.32941 0.0
C3090 C 0.32851 0.45979 0.36441 0.0
C3091 C 0.31441 0.47725 0.36587 0.0
C3092 C 0.25545 0.48936 0.37818 0.0
C3093 C 0.21758 0.52175 0.34539 0.0
C3094 C 0.23861 0.51523 0.35522 0.0
C3095 C 0.29086 0.47309 0.36632 0.0
C3096 C 0.27522 0.49085 0.36563 0.0
H3097 H 0.19569 0.56385 0.31932 0.0
H3098 H 0.22892 0.55565 0.34028 0.0
H3099 H 0.22177 0.49874 0.38199 0.0
H3100 H 0.28803 0.41757 0.36236 0.0
H3101 H 0.26373 0.44755 0.36538 0.0
C3102 C 0.32104 0.48154 0.03423 0.0
C3103 C 0.31003 0.46615 0.04789 0.0
C3104 C 0.32023 0.50388 0.03842 0.0
C3105 C 0.31171 0.545 0.08035 0.0
H3106 H 0.30506 0.58168 0.03083 0.0
C3107 C 0.33217 0.63701 0.0877 0.0
C3108 C 0.35061 0.64241 0.07411 0.0
C3109 C 0.31844 0.61786 0.08382 0.0
C3110 C 0.3066 0.57166 0.04486 0.0
H3111 H 0.29071 0.46215 0.07744 0.0
H3112 H 0.28957 0.50149 0.08496 0.0
H3113 H 0.2995 0.54195 0.02679 0.0
H3114 H 0.36701 0.63419 0.04412 0.0
H3115 H 0.3427 0.60143 0.03689 0.0
H3116 H 0.31986 0.57469 0.09819 0.0
C3117 C 0.29856 0.49612 0.07084 0.0
C3118 C 0.30361 0.54894 0.04254 0.0
C3119 C 0.29932 0.47363 0.06659 0.0
C3120 C 0.35304 0.63026 0.05497 0.0
C3121 C 0.33906 0.61147 0.05083 0.0
C3122 C 0.31464 0.56778 0.08269 0.0
C3123 C 0.3085 0.51145 0.05643 0.0
C3124 C 0.30721 0.53535 0.06002 0.0
C3125 C 0.32258 0.60432 0.06592 0.0
C3126 C 0.31313 0.58127 0.06474 0.0
H3127 H 0.3296 0.47639 0.01976 0.0
H3128 H 0.32867 0.51527 0.02737 0.0
H3129 H 0.31455 0.53497 0.09411 0.0
H3130 H 0.32975 0.6463 0.10242 0.0
H3131 H 0.30565 0.61286 0.09556 0.0
C3132 C 0.31994 0.54035 0.82544 0.0
C3133 C 0.3308 0.55679 0.81286 0.0
C3134 C 0.30182 0.54513 0.83881 0.0
C3135 C 0.27103 0.5907 0.86231 0.0
H3136 H 0.21726 0.55586 0.84462 0.0
C3137 C 0.17845 0.61024 0.83866 0.0
C3138 C 0.17333 0.62467 0.85543 0.0
C3139 C 0.19575 0.59624 0.84095 0.0
C3140 C 0.23212 0.56557 0.85 0.0
H3141 H 0.3326 0.59128 0.80554 0.0
H3142 H 0.30156 0.59977 0.82918 0.0
H3143 H 0.25421 0.54306 0.83604 0.0
H3144 H 0.18187 0.63582 0.88778 0.0
H3145 H 0.21198 0.61113 0.89199 0.0
H3146 H 0.2491 0.61401 0.8748 0.0
C3147 C 0.3068 0.5832 0.82877 0.0
C3148 C 0.25329 0.55815 0.84527 0.0
C3149 C 0.32453 0.57835 0.81516 0.0
C3150 C 0.18504 0.62426 0.8749 0.0
C3151 C 0.20249 0.61038 0.87716 0.0
C3152 C 0.24989 0.59807 0.86711 0.0
C3153 C 0.29467 0.56651 0.8401 0.0
C3154 C 0.27294 0.57119 0.85042 0.0
C3155 C 0.20857 0.59678 0.85991 0.0
C3156 C 0.23022 0.58612 0.86005 0.0
H3157 H 0.32432 0.52354 0.82372 0.0
H3158 H 0.29277 0.53198 0.84738 0.0
H3159 H 0.2859 0.60098 0.86666 0.0
H3160 H 0.16993 0.6107 0.82334 0.0
H3161 H 0.2002 0.58629 0.82719 0.0
C3162 C 0.266 0.60459 0.54768 0.0
C3163 C 0.25997 0.62281 0.55983 0.0
C3164 C 0.25965 0.58344 0.55437 0.0
C3165 C 0.2318 0.55093 0.59908 0.0
H3166 H 0.21167 0.51309 0.55129 0.0
C3167 C 0.18166 0.46726 0.61181 0.0
C3168 C 0.16233 0.46422 0.59894 0.0
C3169 C 0.19813 0.48412 0.6074 0.0
C3170 C 0.21722 0.52341 0.56485 0.0
H3171 H 0.24345 0.63343 0.58889 0.0
H3172 H 0.23109 0.5964 0.60013 0.0
H3173 H 0.2317 0.5479 0.54416 0.0
H3174 H 0.14571 0.4757 0.57078 0.0
H3175 H 0.17405 0.50483 0.56322 0.0
H3176 H 0.21561 0.52681 0.61966 0.0
C3177 C 0.24139 0.59832 0.58577 0.0
C3178 C 0.22906 0.54335 0.56079 0.0
C3179 C 0.24833 0.61957 0.57933 0.0
C3180 C 0.16035 0.47762 0.58105 0.0
C3181 C 0.17675 0.49427 0.57661 0.0
C3182 C 0.21965 0.53098 0.60314 0.0
C3183 C 0.24643 0.57998 0.57302 0.0
C3184 C 0.23613 0.55765 0.5778 0.0
C3185 C 0.19565 0.49802 0.58991 0.0
C3186 C 0.21168 0.5173 0.58602 0.0
H3187 H 0.27528 0.60673 0.53271 0.0
H3188 H 0.26455 0.56982 0.54448 0.0
H3189 H 0.2373 0.56128 0.61261 0.0
H3190 H 0.18359 0.45727 0.6258 0.0
H3191 H 0.21258 0.48649 0.61785 0.0
C3192 C 0.19309 0.55355 0.21036 0.0
C3193 C 0.18694 0.55613 0.23213 0.0
C3194 C 0.21413 0.56199 0.20291 0.0
C3195 C 0.2648 0.57343 0.1946 0.0
H3196 H 0.28034 0.63345 0.21259 0.0
C3197 C 0.33845 0.64964 0.18785 0.0
C3198 C 0.34279 0.64876 0.16566 0.0
C3199 C 0.32313 0.63436 0.19724 0.0
C3200 C 0.27667 0.61651 0.20775 0.0
H3201 H 0.19855 0.56898 0.26326 0.0
H3202 H 0.23495 0.58371 0.25022 0.0
H3203 H 0.24626 0.61461 0.22619 0.0
H3204 H 0.33627 0.63023 0.13616 0.0
H3205 H 0.30851 0.60399 0.15226 0.0
H3206 H 0.29534 0.57548 0.176 0.0
C3207 C 0.22344 0.57533 0.23888 0.0
C3208 C 0.25697 0.60576 0.2155 0.0
C3209 C 0.20254 0.56684 0.24634 0.0
C3210 C 0.33309 0.63122 0.1533 0.0
C3211 C 0.31722 0.61618 0.1626 0.0
C3212 C 0.28476 0.58418 0.18695 0.0
C3213 C 0.22936 0.57327 0.21705 0.0
C3214 C 0.25075 0.58414 0.20899 0.0
C3215 C 0.31122 0.61829 0.18448 0.0
C3216 C 0.29092 0.60591 0.19343 0.0
H3217 H 0.18157 0.54528 0.19898 0.0
H3218 H 0.2182 0.56029 0.18596 0.0
H3219 H 0.26045 0.5567 0.1894 0.0
H3220 H 0.34591 0.66298 0.19771 0.0
H3221 H 0.3196 0.63599 0.21429 0.0
C3222 C 0.24943 0.49242 0.0167 0.0
C3223 C 0.25196 0.4717 0.00725 0.0
C3224 C 0.241 0.50904 0.00488 0.0
C3225 C 0.22911 0.52844 0.95082 0.0
H3226 H 0.1811 0.55604 0.98091 0.0
C3227 C 0.16594 0.58261 0.91025 0.0
C3228 C 0.15724 0.59926 0.92287 0.0
C3229 C 0.18126 0.56904 0.91905 0.0
C3230 C 0.19478 0.5489 0.97237 0.0
H3231 H 0.24892 0.4526 0.97757 0.0
H3232 H 0.2337 0.48187 0.95678 0.0
H3233 H 0.20059 0.5281 0.99862 0.0
H3234 H 0.15827 0.61587 0.95386 0.0
H3235 H 0.18565 0.59276 0.96914 0.0
H3236 H 0.22307 0.54935 0.92443 0.0
C3237 C 0.23836 0.48508 0.97342 0.0
C3238 C 0.20587 0.53275 0.98252 0.0
C3239 C 0.24693 0.46833 0.98532 0.0
C3240 C 0.16493 0.6031 0.9439 0.0
C3241 C 0.18039 0.58973 0.95264 0.0
C3242 C 0.21803 0.5448 0.94062 0.0
C3243 C 0.2348 0.5054 0.9833 0.0
C3244 C 0.2232 0.52239 0.97194 0.0
C3245 C 0.188 0.57195 0.94063 0.0
C3246 C 0.20076 0.55527 0.95136 0.0
H3247 H 0.25375 0.49581 0.0334 0.0
H3248 H 0.23895 0.52469 0.01278 0.0
H3249 H 0.24248 0.52075 0.94233 0.0
H3250 H 0.15993 0.57933 0.89401 0.0
H3251 H 0.18668 0.55548 0.90937 0.0
C3252 C 0.30697 0.49361 0.76212 0.0
C3253 C 0.32355 0.50724 0.75188 0.0
C3254 C 0.28462 0.49297 0.75544 0.0
C3255 C 0.2505 0.5015 0.70824 0.0
H3256 H 0.20141 0.49373 0.74934 0.0
C3257 C 0.1658 0.44607 0.71064 0.0
C3258 C 0.15874 0.44849 0.68939 0.0
C3259 C 0.18102 0.46163 0.72011 0.0
C3260 C 0.21489 0.4961 0.73764 0.0
H3261 H 0.32971 0.53107 0.72675 0.0
H3262 H 0.29059 0.52974 0.71487 0.0
H3263 H 0.23939 0.50414 0.7621 0.0
H3264 H 0.15991 0.47009 0.66215 0.0
H3265 H 0.18659 0.49751 0.67875 0.0
H3266 H 0.22641 0.49221 0.68389 0.0
C3267 C 0.29493 0.51956 0.72807 0.0
C3268 C 0.23664 0.50196 0.74495 0.0
C3269 C 0.31731 0.5203 0.73485 0.0
C3270 C 0.16501 0.46796 0.67864 0.0
C3271 C 0.1805 0.4835 0.68805 0.0
C3272 C 0.22877 0.49557 0.70093 0.0
C3273 C 0.27834 0.50588 0.7383 0.0
C3274 C 0.25482 0.50382 0.73039 0.0
C3275 C 0.18966 0.4798 0.70839 0.0
C3276 C 0.21088 0.49187 0.71563 0.0
H3277 H 0.31122 0.48344 0.77535 0.0
H3278 H 0.27234 0.48195 0.7634 0.0
H3279 H 0.26414 0.50273 0.69661 0.0
H3280 H 0.16121 0.43113 0.71919 0.0
H3281 H 0.18771 0.45813 0.73573 0.0
C3282 C 0.24921 0.60621 0.47198 0.0
C3283 C 0.26831 0.62105 0.47206 0.0
C3284 C 0.25068 0.58474 0.46432 0.0
C3285 C 0.27032 0.53915 0.46742 0.0
H3286 H 0.29763 0.52274 0.41316 0.0
C3287 C 0.33102 0.47175 0.45502 0.0
C3288 C 0.3303 0.45944 0.43564 0.0
C3289 C 0.31572 0.48759 0.45893 0.0
C3290 C 0.28956 0.52696 0.42822 0.0
H3291 H 0.30345 0.62564 0.46299 0.0
H3292 H 0.30577 0.58835 0.44877 0.0
H3293 H 0.28598 0.55999 0.41861 0.0
H3294 H 0.311 0.45202 0.40675 0.0
H3295 H 0.28486 0.48049 0.41322 0.0
H3296 H 0.27564 0.50668 0.4777 0.0
C3297 C 0.28978 0.59326 0.45486 0.0
C3298 C 0.28303 0.54826 0.43133 0.0
C3299 C 0.28848 0.61454 0.46303 0.0
C3300 C 0.31243 0.46168 0.42144 0.0
C3301 C 0.29741 0.47789 0.42515 0.0
C3302 C 0.2773 0.51799 0.46448 0.0
C3303 C 0.2711 0.57801 0.45608 0.0
C3304 C 0.27394 0.55467 0.45117 0.0
C3305 C 0.29953 0.49157 0.44348 0.0
C3306 C 0.28759 0.51192 0.44508 0.0
H3307 H 0.23352 0.61075 0.47909 0.0
H3308 H 0.23611 0.5732 0.46548 0.0
H3309 H 0.26349 0.5438 0.48291 0.0
H3310 H 0.34432 0.47019 0.46655 0.0
H3311 H 0.31773 0.49789 0.47324 0.0
C3312 C 0.26059 0.20976 0.47582 0.0
C3313 C 0.26128 0.20395 0.49754 0.0
C3314 C 0.27479 0.22696 0.4681 0.0
C3315 C 0.29742 0.2795 0.48174 0.0
H3316 H 0.33767 0.27367 0.43299 0.0
C3317 C 0.3369 0.35499 0.43611 0.0
C3318 C 0.33782 0.35253 0.41359 0.0
C3319 C 0.33154 0.33685 0.44909 0.0
C3320 C 0.3264 0.27564 0.44654 0.0
H3321 H 0.27748 0.21122 0.5282 0.0
H3322 H 0.30187 0.24218 0.51473 0.0
H3323 H 0.32137 0.24096 0.45066 0.0
H3324 H 0.33304 0.32915 0.38703 0.0
H3325 H 0.32271 0.29811 0.40931 0.0
H3326 H 0.30092 0.31403 0.47668 0.0
C3327 C 0.29062 0.23299 0.50372 0.0
C3328 C 0.31732 0.2569 0.45675 0.0
C3329 C 0.27681 0.21531 0.51134 0.0
C3330 C 0.33264 0.3317 0.40433 0.0
C3331 C 0.32705 0.31373 0.41719 0.0
C3332 C 0.30619 0.29828 0.47127 0.0
C3333 C 0.28952 0.239 0.48208 0.0
C3334 C 0.30235 0.25869 0.47406 0.0
C3335 C 0.32667 0.31595 0.43974 0.0
C3336 C 0.3202 0.29652 0.45307 0.0
H3337 H 0.24873 0.20125 0.46489 0.0
H3338 H 0.2736 0.23146 0.45138 0.0
H3339 H 0.28571 0.28116 0.49499 0.0
H3340 H 0.34022 0.37092 0.44372 0.0
H3341 H 0.33135 0.33919 0.4664 0.0
C3342 C 0.82393 0.36536 0.52028 0.0
C3343 C 0.80544 0.36773 0.50703 0.0
C3344 C 0.83495 0.34608 0.5196 0.0
C3345 C 0.81862 0.2893 0.51466 0.0
H3346 H 0.88015 0.28611 0.5333 0.0
C3347 C 0.84116 0.22494 0.57519 0.0
C3348 C 0.85047 0.2359 0.59339 0.0
C3349 C 0.84081 0.23574 0.55549 0.0
C3350 C 0.86304 0.28637 0.52764 0.0
H3351 H 0.78448 0.35267 0.4818 0.0
H3352 H 0.80343 0.31829 0.48101 0.0
H3353 H 0.87024 0.31688 0.51195 0.0
H3354 H 0.86786 0.26573 0.60545 0.0
H3355 H 0.86776 0.28441 0.57127 0.0
H3356 H 0.81103 0.25979 0.53193 0.0
C3357 C 0.80971 0.33155 0.49159 0.0
C3358 C 0.85737 0.30403 0.51544 0.0
C3359 C 0.79895 0.35117 0.49197 0.0
C3360 C 0.86067 0.25705 0.59149 0.0
C3361 C 0.86074 0.26763 0.57186 0.0
C3362 C 0.82434 0.27153 0.52677 0.0
C3363 C 0.8273 0.32856 0.50598 0.0
C3364 C 0.8348 0.30651 0.5103 0.0
C3365 C 0.85021 0.25739 0.55378 0.0
C3366 C 0.84627 0.27078 0.5347 0.0
H3367 H 0.82906 0.37794 0.53209 0.0
H3368 H 0.84817 0.34425 0.53115 0.0
H3369 H 0.80107 0.29072 0.51095 0.0
H3370 H 0.83311 0.2086 0.57649 0.0
H3371 H 0.83255 0.22749 0.54183 0.0
C3372 C 0.43137 0.08251 0.27027 0.0
C3373 C 0.42603 0.0627 0.25915 0.0
C3374 C 0.45312 0.08752 0.27811 0.0
C3375 C 0.50502 0.06052 0.29189 0.0
H3376 H 0.52813 0.12062 0.3015 0.0
C3377 C 0.56611 0.08521 0.35913 0.0
C3378 C 0.58037 0.10439 0.358 0.0
C3379 C 0.55202 0.07873 0.34207 0.0
C3380 C 0.52226 0.10371 0.29852 0.0
H3381 H 0.43951 0.03305 0.24659 0.0
H3382 H 0.47752 0.04211 0.25936 0.0
H3383 H 0.49394 0.11297 0.28078 0.0
H3384 H 0.5926 0.13081 0.33734 0.0
H3385 H 0.56794 0.11937 0.30717 0.0
H3386 H 0.53352 0.05125 0.30926 0.0
C3387 C 0.46484 0.05348 0.26288 0.0
C3388 C 0.50233 0.09931 0.28697 0.0
C3389 C 0.44301 0.04828 0.25547 0.0
C3390 C 0.58174 0.11595 0.33865 0.0
C3391 C 0.56743 0.10952 0.32149 0.0
C3392 C 0.52509 0.0649 0.3031 0.0
C3393 C 0.47017 0.07303 0.2746 0.0
C3394 C 0.49297 0.07769 0.28419 0.0
C3395 C 0.55179 0.09127 0.32335 0.0
C3396 C 0.53349 0.08656 0.30736 0.0
H3397 H 0.41862 0.09394 0.27336 0.0
H3398 H 0.45631 0.10252 0.2874 0.0
H3399 H 0.49848 0.04365 0.29027 0.0
H3400 H 0.56479 0.07588 0.3738 0.0
H3401 H 0.54015 0.06474 0.34432 0.0
C3402 C 0.72122 0.71997 0.05215 0.0
C3403 C 0.70821 0.70369 0.04071 0.0
C3404 C 0.71588 0.7417 0.0519 0.0
C3405 C 0.70946 0.78762 0.0384 0.0
H3406 H 0.65197 0.80243 0.06184 0.0
C3407 C 0.66462 0.86145 0.08744 0.0
C3408 C 0.67872 0.86102 0.10538 0.0
C3409 C 0.6678 0.8475 0.06963 0.0
C3410 C 0.66785 0.79874 0.05453 0.0
H3411 H 0.67887 0.69744 0.02053 0.0
H3412 H 0.66899 0.73583 0.02073 0.0
H3413 H 0.65701 0.76483 0.04989 0.0
H3414 H 0.70985 0.84923 0.11696 0.0
H3415 H 0.71584 0.82587 0.086 0.0
H3416 H 0.72092 0.82099 0.04487 0.0
C3417 C 0.68361 0.73154 0.02954 0.0
C3418 C 0.67075 0.77716 0.04779 0.0
C3419 C 0.68917 0.70962 0.02955 0.0
C3420 C 0.69817 0.84941 0.10369 0.0
C3421 C 0.70172 0.83606 0.08581 0.0
C3422 C 0.70658 0.8091 0.04517 0.0
C3423 C 0.69724 0.74783 0.04038 0.0
C3424 C 0.69201 0.77117 0.04096 0.0
C3425 C 0.68578 0.83383 0.06928 0.0
C3426 C 0.68618 0.81453 0.05456 0.0
H3427 H 0.73597 0.71607 0.06098 0.0
H3428 H 0.72636 0.75376 0.0609 0.0
H3429 H 0.72591 0.78351 0.03277 0.0
H3430 H 0.65033 0.87126 0.08781 0.0
H3431 H 0.65561 0.84647 0.05675 0.0
C3432 C 0.55988 0.53294 0.28817 0.0
C3433 C 0.56141 0.55469 0.28132 0.0
C3434 C 0.53946 0.5234 0.29597 0.0
C3435 C 0.48505 0.53902 0.31867 0.0
H3436 H 0.46917 0.47675 0.31299 0.0
C3437 C 0.42581 0.4931 0.37742 0.0
C3438 C 0.41281 0.47425 0.37062 0.0
C3439 C 0.44026 0.5044 0.36312 0.0
C3440 C 0.47307 0.49425 0.31437 0.0
H3441 H 0.54254 0.58312 0.27605 0.0
H3442 H 0.50697 0.56635 0.28881 0.0
H3443 H 0.50198 0.49278 0.29391 0.0
H3444 H 0.40361 0.45333 0.34307 0.0
H3445 H 0.42872 0.47341 0.31786 0.0
H3446 H 0.45603 0.54057 0.33886 0.0
C3447 C 0.52159 0.55684 0.28908 0.0
C3448 C 0.49214 0.50339 0.30373 0.0
C3449 C 0.54202 0.56647 0.28172 0.0
C3450 C 0.41341 0.46781 0.3488 0.0
C3451 C 0.42797 0.47917 0.33442 0.0
C3452 C 0.46588 0.52994 0.32907 0.0
C3453 C 0.52009 0.53531 0.29666 0.0
C3454 C 0.49869 0.5258 0.30619 0.0
C3455 C 0.44204 0.4972 0.3416 0.0
C3456 C 0.46003 0.50735 0.32758 0.0
H3457 H 0.57456 0.52347 0.28795 0.0
H3458 H 0.53904 0.50688 0.30194 0.0
H3459 H 0.48958 0.5563 0.32116 0.0
H3460 H 0.42564 0.49858 0.3941 0.0
H3461 H 0.45099 0.51804 0.36933 0.0
C3462 C 0.22546 0.8506 0.98845 0.0
C3463 C 0.21152 0.86408 0.00028 0.0
C3464 C 0.21674 0.83103 0.979 0.0
C3465 C 0.19141 0.80033 0.94808 0.0
H3466 H 0.14927 0.75845 0.97585 0.0
C3467 C 0.1478 0.7305 0.89943 0.0
C3468 C 0.14777 0.70932 0.90775 0.0
C3469 C 0.15339 0.74881 0.91238 0.0
C3470 C 0.16111 0.76998 0.96797 0.0
H3471 H 0.17745 0.86703 0.01196 0.0
H3472 H 0.16211 0.83273 0.99511 0.0
H3473 H 0.16371 0.79153 0.99568 0.0
H3474 H 0.15285 0.69079 0.93644 0.0
H3475 H 0.16285 0.72315 0.95934 0.0
H3476 H 0.1892 0.77899 0.92056 0.0
C3477 C 0.17988 0.83741 0.99334 0.0
C3478 C 0.16921 0.78898 0.97922 0.0
C3479 C 0.18865 0.85713 0.00286 0.0
C3480 C 0.15262 0.70692 0.92965 0.0
C3481 C 0.15833 0.72542 0.94272 0.0
C3482 C 0.18331 0.78155 0.93689 0.0
C3483 C 0.19381 0.82433 0.98104 0.0
C3484 C 0.18455 0.8043 0.96938 0.0
C3485 C 0.15932 0.74653 0.93401 0.0
C3486 C 0.168 0.76617 0.94661 0.0
H3487 H 0.24322 0.85516 0.98632 0.0
H3488 H 0.22801 0.82113 0.96998 0.0
H3489 H 0.20298 0.8119 0.93991 0.0
H3490 H 0.14367 0.73295 0.88274 0.0
H3491 H 0.15344 0.76485 0.9053 0.0
C3492 C 0.42431 0.97014 0.23321 0.0
C3493 C 0.41488 0.9818 0.21664 0.0
C3494 C 0.44365 0.95893 0.22939 0.0
C3495 C 0.4774 0.9345 0.1871 0.0
H3496 H 0.52976 0.95417 0.22082 0.0
C3497 C 0.57298 0.9496 0.16563 0.0
C3498 C 0.57654 0.92999 0.15457 0.0
C3499 C 0.55517 0.9506 0.18026 0.0
C3500 C 0.5152 0.94819 0.21155 0.0
H3501 H 0.41769 0.99018 0.18295 0.0
H3502 H 0.45102 0.97001 0.1761 0.0
H3503 H 0.49261 0.96573 0.23129 0.0
H3504 H 0.56554 0.89572 0.15106 0.0
H3505 H 0.53424 0.89741 0.17666 0.0
H3506 H 0.49994 0.91779 0.16678 0.0
C3507 C 0.44357 0.96969 0.19206 0.0
C3508 C 0.49398 0.95475 0.21754 0.0
C3509 C 0.42456 0.98128 0.19599 0.0
C3510 C 0.5634 0.91091 0.1598 0.0
C3511 C 0.54534 0.91195 0.17423 0.0
C3512 C 0.4985 0.92765 0.18132 0.0
C3513 C 0.45355 0.95877 0.20881 0.0
C3514 C 0.47505 0.9486 0.20489 0.0
C3515 C 0.54033 0.9321 0.18365 0.0
C3516 C 0.51775 0.93505 0.19303 0.0
H3517 H 0.41731 0.97044 0.24935 0.0
H3518 H 0.45106 0.95064 0.24254 0.0
H3519 H 0.46303 0.92948 0.17715 0.0
H3520 H 0.58264 0.96459 0.16144 0.0
H3521 H 0.55165 0.9664 0.18711 0.0
C3522 C 0.06239 0.09416 0.72156 0.0
C3523 C 0.08213 0.10788 0.71994 0.0
C3524 C 0.04146 0.10248 0.7195 0.0
C3525 C 0.01196 0.15395 0.71143 0.0
H3526 H 0.97107 0.11306 0.68012 0.0
C3527 C 0.94937 0.17352 0.64643 0.0
C3528 C 0.92992 0.1595 0.64381 0.0
C3529 C 0.96355 0.17109 0.66386 0.0
C3530 C 0.98193 0.12458 0.68938 0.0
H3531 H 0.09569 0.14116 0.71547 0.0
H3532 H 0.05893 0.15561 0.70954 0.0
H3533 H 0.00549 0.10079 0.69373 0.0
H3534 H 0.90882 0.13324 0.65775 0.0
H3535 H 0.93372 0.12884 0.68839 0.0
H3536 H 0.98869 0.17824 0.70488 0.0
C3537 C 0.05951 0.13854 0.71352 0.0
C3538 C 0.00186 0.11753 0.69729 0.0
C3539 C 0.08061 0.13029 0.71662 0.0
C3540 C 0.92366 0.14434 0.65973 0.0
C3541 C 0.9379 0.14184 0.67715 0.0
C3542 C 0.99205 0.16116 0.70304 0.0
C3543 C 0.03965 0.12456 0.71445 0.0
C3544 C 0.01741 0.13212 0.70815 0.0
C3545 C 0.95861 0.15433 0.67863 0.0
C3546 C 0.97707 0.14655 0.69161 0.0
H3547 H 0.0631 0.07686 0.72458 0.0
H3548 H 0.02669 0.09132 0.72136 0.0
H3549 H 0.02328 0.16562 0.71999 0.0
H3550 H 0.95451 0.18515 0.63409 0.0
H3551 H 0.97944 0.18082 0.66446 0.0
loop_
_geom_bond_atom_site_label_1
_geom_bond_atom_site_label_2
_geom_bond_distance
_geom_bond_site_symmetry_2
_ccdc_geom_bond_type
Co0 O1 2.216 . S
Co0 O2 2.091 1_455 S
Co0 O4 2.004 1_455 S
Co0 O10 2.021 . S
Co0 O12 2.137 . S
Co0 O13 2.244 . S
O1 Co0 2.216 . S
O1 C8 1.247 . S
O2 Co0 2.091 1_655 S
O2 C8 1.261 1_655 S
C3 O12 1.247 . S
C3 O13 1.272 . S
O4 Co0 2.004 1_655 S
O4 C9 1.259 1_655 S
Co5 O6 2.061 . S
Co5 O11 2.052 . S
Co5 O13 2.135 . S
O6 Co5 2.061 . S
O6 C9 1.235 . S
C7 O10 1.238 . S
C7 O11 1.241 . S
C8 O1 1.247 . S
C8 O2 1.261 1_455 S
C9 O4 1.259 1_455 S
C9 O6 1.235 . S
O10 Co0 2.021 . S
O10 C7 1.238 . S
O11 Co5 2.052 . S
O11 C7 1.241 . S
O12 Co0 2.137 . S
O12 C3 1.247 . S
O13 Co0 2.244 . S
O13 C3 1.272 . S
O13 Co5 2.135 . S
Co14 O15 2.216 . S
Co14 O16 2.091 . S
Co14 O18 2.004 1_655 S
Co14 O24 2.021 1_655 S
Co14 O26 2.137 . S
Co14 O27 2.244 . S
O15 Co14 2.216 . S
O15 C22 1.247 . S
O16 Co14 2.091 . S
O16 C22 1.261 . S
C17 O26 1.247 . S
C17 O27 1.272 . S
O18 Co14 2.004 1_455 S
O18 C23 1.259 . S
Co19 O20 2.061 . S
Co19 O25 2.052 . S
Co19 O27 2.135 1_455 S
O20 Co19 2.061 . S
O20 C23 1.235 . S
C21 O24 1.238 . S
C21 O25 1.241 . S
C22 O15 1.247 . S
C22 O16 1.261 . S
C23 O18 1.259 . S
C23 O20 1.235 . S
O24 Co14 2.021 1_455 S
O24 C21 1.238 . S
O25 Co19 2.052 . S
O25 C21 1.241 . S
O26 Co14 2.137 . S
O26 C17 1.247 . S
O27 Co14 2.244 . S
O27 C17 1.272 . S
O27 Co19 2.135 1_655 S
Co28 O29 2.216 . S
Co28 O30 2.091 . S
Co28 O32 2.004 . S
Co28 O38 2.021 . S
Co28 O40 2.137 . S
Co28 O41 2.244 . S
O29 Co28 2.216 . S
O29 C36 1.247 . S
O30 Co28 2.091 . S
O30 C36 1.261 . S
C31 O40 1.247 . S
C31 O41 1.272 . S
O32 Co28 2.004 . S
O32 C37 1.259 . S
Co33 O34 2.061 . S
Co33 O39 2.052 . S
Co33 O41 2.135 . S
O34 Co33 2.061 . S
O34 C37 1.235 . S
C35 O38 1.238 . S
C35 O39 1.241 . S
C36 O29 1.247 . S
C36 O30 1.261 . S
C37 O32 1.259 . S
C37 O34 1.235 . S
O38 Co28 2.021 . S
O38 C35 1.238 . S
O39 Co33 2.052 . S
O39 C35 1.241 . S
O40 Co28 2.137 . S
O40 C31 1.247 . S
O41 Co28 2.244 . S
O41 C31 1.272 . S
O41 Co33 2.135 . S
Co42 O43 2.216 . S
Co42 O44 2.091 . S
Co42 O46 2.004 . S
Co42 O52 2.021 . S
Co42 O54 2.137 . S
Co42 O55 2.244 . S
O43 Co42 2.216 . S
O43 C50 1.247 . S
O44 Co42 2.091 . S
O44 C50 1.261 . S
C45 O54 1.247 . S
C45 O55 1.272 . S
O46 Co42 2.004 . S
O46 C51 1.259 . S
Co47 O48 2.061 . S
Co47 O53 2.052 . S
Co47 O55 2.135 . S
O48 Co47 2.061 . S
O48 C51 1.235 . S
C49 O52 1.238 . S
C49 O53 1.241 . S
C50 O43 1.247 . S
C50 O44 1.261 . S
C51 O46 1.259 . S
C51 O48 1.235 . S
O52 Co42 2.021 . S
O52 C49 1.238 . S
O53 Co47 2.052 . S
O53 C49 1.241 . S
O54 Co42 2.137 . S
O54 C45 1.247 . S
O55 Co42 2.244 . S
O55 C45 1.272 . S
O55 Co47 2.135 . S
Co56 O57 2.216 1_655 S
Co56 O58 2.091 . S
Co56 O60 2.004 . S
Co56 O66 2.021 1_655 S
Co56 O68 2.142 . S
Co56 O69 2.244 1_655 S
O57 Co56 2.216 1_455 S
O57 C64 1.247 1_455 S
O58 Co56 2.091 . S
O58 C64 1.261 . S
C59 O68 1.209 1_455 S
C59 O69 1.272 . S
O60 Co56 2.004 . S
O60 C65 1.259 . S
Co61 O62 2.061 . S
Co61 O67 2.052 . S
Co61 O69 2.135 . S
O62 Co61 2.061 . S
O62 C65 1.235 1_455 S
C63 O66 1.238 . S
C63 O67 1.241 . S
C64 O57 1.247 1_655 S
C64 O58 1.261 . S
C65 O60 1.259 . S
C65 O62 1.235 1_655 S
O66 Co56 2.021 1_455 S
O66 C63 1.238 . S
O67 Co61 2.052 . S
O67 C63 1.241 . S
O68 Co56 2.142 . S
O68 C59 1.209 1_655 S
O69 Co56 2.244 1_455 S
O69 C59 1.272 . S
O69 Co61 2.135 . S
Co70 O71 2.216 . S
Co70 O72 2.091 . S
Co70 O74 2.004 . S
Co70 O80 2.021 . S
Co70 O82 2.137 . S
Co70 O83 2.244 . S
O71 Co70 2.216 . S
O71 C78 1.247 . S
O72 Co70 2.091 . S
O72 C78 1.261 . S
C73 O82 1.247 . S
C73 O83 1.272 . S
O74 Co70 2.004 . S
O74 C79 1.259 . S
Co75 O76 2.061 . S
Co75 O81 2.052 . S
Co75 O83 2.135 . S
O76 Co75 2.061 . S
O76 C79 1.235 . S
C77 O80 1.238 . S
C77 O81 1.241 . S
C78 O71 1.247 . S
C78 O72 1.261 . S
C79 O74 1.259 . S
C79 O76 1.235 . S
O80 Co70 2.021 . S
O80 C77 1.238 . S
O81 Co75 2.052 . S
O81 C77 1.241 . S
O82 Co70 2.137 . S
O82 C73 1.247 . S
O83 Co70 2.244 . S
O83 C73 1.272 . S
O83 Co75 2.135 . S
Co84 O85 2.216 . S
Co84 O86 2.091 . S
Co84 O88 2.004 . S
Co84 O94 2.021 . S
Co84 O96 2.137 . S
Co84 O97 2.244 . S
O85 Co84 2.216 . S
O85 C92 1.247 . S
O86 Co84 2.091 . S
O86 C92 1.261 . S
C87 O96 1.247 . S
C87 O97 1.272 . S
O88 Co84 2.004 . S
O88 C93 1.259 . S
Co89 O90 2.061 . S
Co89 O95 2.052 . S
Co89 O97 2.135 . S
O90 Co89 2.061 . S
O90 C93 1.235 . S
C91 O94 1.238 . S
C91 O95 1.241 . S
C92 O85 1.247 . S
C92 O86 1.261 . S
C93 O88 1.259 . S
C93 O90 1.235 . S
O94 Co84 2.021 . S
O94 C91 1.238 . S
O95 Co89 2.052 . S
O95 C91 1.241 . S
O96 Co84 2.137 . S
O96 C87 1.247 . S
O97 Co84 2.244 . S
O97 C87 1.272 . S
O97 Co89 2.135 . S
Co98 O99 2.216 . S
Co98 O100 2.091 . S
Co98 O102 2.004 . S
Co98 O108 2.021 . S
Co98 O110 2.137 . S
Co98 O111 2.244 . S
O99 Co98 2.216 . S
O99 C106 1.247 . S
O100 Co98 2.091 . S
O100 C106 1.261 . S
C101 O110 1.247 . S
C101 O111 1.272 . S
O102 Co98 2.004 . S
O102 C107 1.259 . S
Co103 O104 2.061 . S
Co103 O109 2.052 . S
Co103 O111 2.135 . S
O104 Co103 2.061 . S
O104 C107 1.235 . S
C105 O108 1.238 . S
C105 O109 1.241 . S
C106 O99 1.247 . S
C106 O100 1.261 . S
C107 O102 1.259 . S
C107 O104 1.235 . S
O108 Co98 2.021 . S
O108 C105 1.238 . S
O109 Co103 2.052 . S
O109 C105 1.241 . S
O110 Co98 2.137 . S
O110 C101 1.247 . S
O111 Co98 2.244 . S
O111 C101 1.272 . S
O111 Co103 2.135 . S
Co112 O113 2.216 1_565 S
Co112 O114 2.091 . S
Co112 O116 2.004 . S
Co112 O122 2.021 1_565 S
Co112 O124 2.137 . S
Co112 O125 2.244 1_565 S
O113 Co112 2.216 1_545 S
O113 C120 1.247 1_545 S
O114 Co112 2.091 . S
O114 C120 1.261 . S
C115 O124 1.247 1_545 S
C115 O125 1.272 . S
O116 Co112 2.004 . S
O116 C121 1.259 . S
Co117 O118 2.061 . S
Co117 O123 2.052 . S
Co117 O125 2.135 . S
O118 Co117 2.061 . S
O118 C121 1.235 1_545 S
C119 O122 1.238 . S
C119 O123 1.241 . S
C120 O113 1.247 1_565 S
C120 O114 1.261 . S
C121 O116 1.259 . S
C121 O118 1.235 1_565 S
O122 Co112 2.021 1_545 S
O122 C119 1.238 . S
O123 Co117 2.052 . S
O123 C119 1.241 . S
O124 Co112 2.137 . S
O124 C115 1.247 1_565 S
O125 Co112 2.244 1_545 S
O125 C115 1.272 . S
O125 Co117 2.135 . S
Co126 O127 2.216 . S
Co126 O128 2.091 . S
Co126 O130 2.004 . S
Co126 O136 2.021 . S
Co126 O138 2.137 . S
Co126 O139 2.244 . S
O127 Co126 2.216 . S
O127 C134 1.247 . S
O128 Co126 2.091 . S
O128 C134 1.261 . S
C129 O138 1.247 . S
C129 O139 1.272 . S
O130 Co126 2.004 . S
O130 C135 1.259 . S
Co131 O132 2.061 . S
Co131 O137 2.052 . S
Co131 O139 2.135 . S
O132 Co131 2.061 . S
O132 C135 1.235 . S
C133 O136 1.238 . S
C133 O137 1.241 . S
C134 O127 1.247 . S
C134 O128 1.261 . S
C135 O130 1.259 . S
C135 O132 1.235 . S
O136 Co126 2.021 . S
O136 C133 1.238 . S
O137 Co131 2.052 . S
O137 C133 1.241 . S
O138 Co126 2.137 . S
O138 C129 1.247 . S
O139 Co126 2.244 . S
O139 C129 1.272 . S
O139 Co131 2.135 . S
Co140 O141 2.216 . S
Co140 O142 2.091 . S
Co140 O144 2.004 . S
Co140 O150 2.021 . S
Co140 O152 2.137 . S
Co140 O153 2.244 . S
O141 Co140 2.216 . S
O141 C148 1.247 . S
O142 Co140 2.091 . S
O142 C148 1.261 . S
C143 O152 1.247 . S
C143 O153 1.272 . S
O144 Co140 2.004 . S
O144 C149 1.259 . S
Co145 O146 2.061 . S
Co145 O151 2.052 . S
Co145 O153 2.135 . S
O146 Co145 2.061 . S
O146 C149 1.235 . S
C147 O150 1.238 . S
C147 O151 1.241 . S
C148 O141 1.247 . S
C148 O142 1.261 . S
C149 O144 1.259 . S
C149 O146 1.235 . S
O150 Co140 2.021 . S
O150 C147 1.238 . S
O151 Co145 2.052 . S
O151 C147 1.241 . S
O152 Co140 2.137 . S
O152 C143 1.247 . S
O153 Co140 2.244 . S
O153 C143 1.272 . S
O153 Co145 2.135 . S
Co154 O155 2.216 . S
Co154 O156 2.091 . S
Co154 O158 2.004 . S
Co154 O164 2.021 . S
Co154 O166 2.137 . S
Co154 O167 2.244 . S
O155 Co154 2.216 . S
O155 C162 1.247 . S
O156 Co154 2.091 . S
O156 C162 1.261 . S
C157 O166 1.247 . S
C157 O167 1.272 . S
O158 Co154 2.004 . S
O158 C163 1.259 1_554 S
Co159 O160 2.061 1_554 S
Co159 O165 2.052 1_554 S
Co159 O167 2.135 . S
O160 Co159 2.061 1_556 S
O160 C163 1.235 . S
C161 O164 1.238 1_556 S
C161 O165 1.241 . S
C162 O155 1.247 . S
C162 O156 1.261 . S
C163 O158 1.259 1_556 S
C163 O160 1.235 . S
O164 Co154 2.021 . S
O164 C161 1.238 1_554 S
O165 Co159 2.052 1_556 S
O165 C161 1.241 . S
O166 Co154 2.137 . S
O166 C157 1.247 . S
O167 Co154 2.244 . S
O167 C157 1.272 . S
O167 Co159 2.135 . S
Co168 O169 2.215 1_556 S
Co168 O170 2.096 . S
Co168 O172 2.008 . S
Co168 O178 2.019 1_556 S
Co168 O180 2.137 1_556 S
Co168 O181 2.239 1_556 S
O169 Co168 2.215 1_554 S
O169 C176 1.247 1_554 S
O170 Co168 2.096 . S
O170 C176 1.261 . S
C171 O180 1.247 . S
C171 O181 1.272 . S
O172 Co168 2.008 . S
O172 C177 1.259 . S
Co173 O174 2.061 . S
Co173 O179 2.052 . S
Co173 O181 2.135 . S
O174 Co173 2.061 . S
O174 C177 1.235 1_554 S
C175 O178 1.238 . S
C175 O179 1.241 . S
C176 O169 1.247 1_556 S
C176 O170 1.261 . S
C177 O172 1.259 . S
C177 O174 1.235 1_556 S
O178 Co168 2.019 1_554 S
O178 C175 1.238 . S
O179 Co173 2.052 . S
O179 C175 1.241 . S
O180 Co168 2.137 1_554 S
O180 C171 1.247 . S
O181 Co168 2.239 1_554 S
O181 C171 1.272 . S
O181 Co173 2.135 . S
Co182 O183 2.216 1_556 S
Co182 O184 2.091 . S
Co182 O186 2.004 . S
Co182 O192 2.021 1_556 S
Co182 O194 2.137 . S
Co182 O195 2.244 1_556 S
O183 Co182 2.216 1_554 S
O183 C190 1.247 1_554 S
O184 Co182 2.091 . S
O184 C190 1.261 . S
C185 O194 1.247 1_554 S
C185 O195 1.272 . S
O186 Co182 2.004 . S
O186 C191 1.259 . S
Co187 O188 2.061 . S
Co187 O193 2.052 . S
Co187 O195 2.135 . S
O188 Co187 2.061 . S
O188 C191 1.235 1_554 S
C189 O192 1.238 . S
C189 O193 1.241 . S
C190 O183 1.247 1_556 S
C190 O184 1.261 . S
C191 O186 1.259 . S
C191 O188 1.235 1_556 S
O192 Co182 2.021 1_554 S
O192 C189 1.238 . S
O193 Co187 2.052 . S
O193 C189 1.241 . S
O194 Co182 2.137 . S
O194 C185 1.247 1_556 S
O195 Co182 2.244 1_554 S
O195 C185 1.272 . S
O195 Co187 2.135 . S
Co196 O197 2.216 . S
Co196 O198 2.091 . S
Co196 O200 2.004 . S
Co196 O206 2.021 . S
Co196 O208 2.137 . S
Co196 O209 2.244 . S
O197 Co196 2.216 . S
O197 C204 1.247 . S
O198 Co196 2.091 . S
O198 C204 1.261 . S
C199 O208 1.247 . S
C199 O209 1.272 . S
O200 Co196 2.004 . S
O200 C205 1.259 . S
Co201 O202 2.061 . S
Co201 O207 2.052 . S
Co201 O209 2.135 . S
O202 Co201 2.061 . S
O202 C205 1.235 . S
C203 O206 1.238 . S
C203 O207 1.241 . S
C204 O197 1.247 . S
C204 O198 1.261 . S
C205 O200 1.259 . S
C205 O202 1.235 . S
O206 Co196 2.021 . S
O206 C203 1.238 . S
O207 Co201 2.052 . S
O207 C203 1.241 . S
O208 Co196 2.137 . S
O208 C199 1.247 . S
O209 Co196 2.244 . S
O209 C199 1.272 . S
O209 Co201 2.135 . S
Co210 O211 2.216 . S
Co210 O212 2.091 . S
Co210 O214 2.004 . S
Co210 O220 2.021 . S
Co210 O222 2.137 . S
Co210 O223 2.244 . S
O211 Co210 2.216 . S
O211 C218 1.247 . S
O212 Co210 2.091 . S
O212 C218 1.261 . S
C213 O222 1.247 . S
C213 O223 1.272 . S
O214 Co210 2.004 . S
O214 C219 1.259 . S
Co215 O216 2.061 . S
Co215 O221 2.052 . S
Co215 O223 2.135 . S
O216 Co215 2.061 . S
O216 C219 1.235 . S
C217 O220 1.238 . S
C217 O221 1.241 . S
C218 O211 1.247 . S
C218 O212 1.261 . S
C219 O214 1.259 . S
C219 O216 1.235 . S
O220 Co210 2.021 . S
O220 C217 1.238 . S
O221 Co215 2.052 . S
O221 C217 1.241 . S
O222 Co210 2.137 . S
O222 C213 1.247 . S
O223 Co210 2.244 . S
O223 C213 1.272 . S
O223 Co215 2.135 . S
Co224 O225 2.216 1_545 S
Co224 O226 2.091 1_545 S
Co224 O228 2.004 . S
Co224 O234 2.021 . S
Co224 O236 2.137 1_545 S
Co224 O237 2.244 1_545 S
O225 Co224 2.216 1_565 S
O225 C232 1.247 . S
O226 Co224 2.091 1_565 S
O226 C232 1.261 . S
C227 O236 1.247 . S
C227 O237 1.272 . S
O228 Co224 2.004 . S
O228 C233 1.259 . S
Co229 O230 2.061 . S
Co229 O235 2.052 . S
Co229 O237 2.135 1_545 S
O230 Co229 2.061 . S
O230 C233 1.235 . S
C231 O234 1.238 . S
C231 O235 1.241 . S
C232 O225 1.247 . S
C232 O226 1.261 . S
C233 O228 1.259 . S
C233 O230 1.235 . S
O234 Co224 2.021 . S
O234 C231 1.238 . S
O235 Co229 2.052 . S
O235 C231 1.241 . S
O236 Co224 2.137 1_565 S
O236 C227 1.247 . S
O237 Co224 2.244 1_565 S
O237 C227 1.272 . S
O237 Co229 2.135 1_565 S
Co238 O239 2.216 . S
Co238 O240 2.091 . S
Co238 O242 2.004 . S
Co238 O248 2.021 . S
Co238 O250 2.137 . S
Co238 O251 2.244 . S
O239 Co238 2.216 . S
O239 C246 1.247 . S
O240 Co238 2.091 . S
O240 C246 1.261 . S
C241 O250 1.247 . S
C241 O251 1.272 . S
O242 Co238 2.004 . S
O242 C247 1.259 . S
Co243 O244 2.061 . S
Co243 O249 2.052 . S
Co243 O251 2.135 . S
O244 Co243 2.061 . S
O244 C247 1.235 . S
C245 O248 1.238 . S
C245 O249 1.241 . S
C246 O239 1.247 . S
C246 O240 1.261 . S
C247 O242 1.259 . S
C247 O244 1.235 . S
O248 Co238 2.021 . S
O248 C245 1.238 . S
O249 Co243 2.052 . S
O249 C245 1.241 . S
O250 Co238 2.137 . S
O250 C241 1.247 . S
O251 Co238 2.244 . S
O251 C241 1.272 . S
O251 Co243 2.135 . S
Co252 O253 2.216 . S
Co252 O254 2.091 . S
Co252 O256 2.004 . S
Co252 O262 2.021 . S
Co252 O264 2.137 . S
Co252 O265 2.244 . S
O253 Co252 2.216 . S
O253 C260 1.247 . S
O254 Co252 2.091 . S
O254 C260 1.261 . S
C255 O264 1.247 . S
C255 O265 1.272 . S
O256 Co252 2.004 . S
O256 C261 1.259 . S
Co257 O258 2.061 . S
Co257 O263 2.052 . S
Co257 O265 2.135 . S
O258 Co257 2.061 . S
O258 C261 1.235 . S
C259 O262 1.238 . S
C259 O263 1.241 . S
C260 O253 1.247 . S
C260 O254 1.261 . S
C261 O256 1.259 . S
C261 O258 1.235 . S
O262 Co252 2.021 . S
O262 C259 1.238 . S
O263 Co257 2.052 . S
O263 C259 1.241 . S
O264 Co252 2.137 . S
O264 C255 1.247 . S
O265 Co252 2.244 . S
O265 C255 1.272 . S
O265 Co257 2.135 . S
Co266 O267 2.216 . S
Co266 O268 2.091 . S
Co266 O270 2.004 . S
Co266 O276 2.021 . S
Co266 O278 2.137 . S
Co266 O279 2.244 . S
O267 Co266 2.216 . S
O267 C274 1.247 . S
O268 Co266 2.091 . S
O268 C274 1.261 . S
C269 O278 1.247 . S
C269 O279 1.272 . S
O270 Co266 2.004 . S
O270 C275 1.259 . S
Co271 O272 2.061 . S
Co271 O277 2.052 . S
Co271 O279 2.135 . S
O272 Co271 2.061 . S
O272 C275 1.235 . S
C273 O276 1.238 . S
C273 O277 1.241 . S
C274 O267 1.247 . S
C274 O268 1.261 . S
C275 O270 1.259 . S
C275 O272 1.235 . S
O276 Co266 2.021 . S
O276 C273 1.238 . S
O277 Co271 2.052 . S
O277 C273 1.241 . S
O278 Co266 2.137 . S
O278 C269 1.247 . S
O279 Co266 2.244 . S
O279 C269 1.272 . S
O279 Co271 2.135 . S
Co280 O281 2.216 . S
Co280 O282 2.091 . S
Co280 O284 2.004 1_554 S
Co280 O290 2.021 1_554 S
Co280 O292 2.137 . S
Co280 O293 2.244 . S
O281 Co280 2.216 . S
O281 C288 1.247 . S
O282 Co280 2.091 . S
O282 C288 1.261 . S
C283 O292 1.247 . S
C283 O293 1.272 . S
O284 Co280 2.004 1_556 S
O284 C289 1.259 . S
Co285 O286 2.061 . S
Co285 O291 2.052 . S
Co285 O293 2.135 1_556 S
O286 Co285 2.061 . S
O286 C289 1.235 . S
C287 O290 1.238 . S
C287 O291 1.241 . S
C288 O281 1.247 . S
C288 O282 1.261 . S
C289 O284 1.259 . S
C289 O286 1.235 . S
O290 Co280 2.021 1_556 S
O290 C287 1.238 . S
O291 Co285 2.052 . S
O291 C287 1.241 . S
O292 Co280 2.137 . S
O292 C283 1.247 . S
O293 Co280 2.244 . S
O293 C283 1.272 . S
O293 Co285 2.135 1_554 S
Co294 O295 2.216 . S
Co294 O296 2.091 . S
Co294 O298 2.004 . S
Co294 O304 2.021 . S
Co294 O306 2.137 . S
Co294 O307 2.244 . S
O295 Co294 2.216 . S
O295 C302 1.247 . S
O296 Co294 2.091 . S
O296 C302 1.261 . S
C297 O306 1.247 . S
C297 O307 1.272 . S
O298 Co294 2.004 . S
O298 C303 1.259 . S
Co299 O300 2.061 . S
Co299 O305 2.052 . S
Co299 O307 2.135 . S
O300 Co299 2.061 . S
O300 C303 1.235 . S
C301 O304 1.238 . S
C301 O305 1.241 . S
C302 O295 1.247 . S
C302 O296 1.261 . S
C303 O298 1.259 . S
C303 O300 1.235 . S
O304 Co294 2.021 . S
O304 C301 1.238 . S
O305 Co299 2.052 . S
O305 C301 1.241 . S
O306 Co294 2.137 . S
O306 C297 1.247 . S
O307 Co294 2.244 . S
O307 C297 1.272 . S
O307 Co299 2.135 . S
Co308 O309 2.216 . S
Co308 O310 2.091 . S
Co308 O312 2.004 . S
Co308 O318 2.021 . S
Co308 O320 2.137 . S
Co308 O321 2.244 . S
O309 Co308 2.216 . S
O309 C316 1.247 . S
O310 Co308 2.091 . S
O310 C316 1.261 . S
C311 O320 1.247 . S
C311 O321 1.272 . S
O312 Co308 2.004 . S
O312 C317 1.259 . S
Co313 O314 2.061 . S
Co313 O319 2.052 . S
Co313 O321 2.135 . S
O314 Co313 2.061 . S
O314 C317 1.235 . S
C315 O318 1.238 . S
C315 O319 1.241 . S
C316 O309 1.247 . S
C316 O310 1.261 . S
C317 O312 1.259 . S
C317 O314 1.235 . S
O318 Co308 2.021 . S
O318 C315 1.238 . S
O319 Co313 2.052 . S
O319 C315 1.241 . S
O320 Co308 2.137 . S
O320 C311 1.247 . S
O321 Co308 2.244 . S
O321 C311 1.272 . S
O321 Co313 2.135 . S
Co322 O323 2.216 . S
Co322 O324 2.091 . S
Co322 O326 2.004 . S
Co322 O332 2.021 . S
Co322 O334 2.137 . S
Co322 O335 2.244 . S
O323 Co322 2.216 . S
O323 C330 1.247 . S
O324 Co322 2.091 . S
O324 C330 1.261 . S
C325 O334 1.247 . S
C325 O335 1.272 . S
O326 Co322 2.004 . S
O326 C331 1.259 . S
Co327 O328 2.061 . S
Co327 O333 2.052 . S
Co327 O335 2.135 . S
O328 Co327 2.061 . S
O328 C331 1.235 . S
C329 O332 1.238 . S
C329 O333 1.241 . S
C330 O323 1.247 . S
C330 O324 1.261 . S
C331 O326 1.259 . S
C331 O328 1.235 . S
O332 Co322 2.021 . S
O332 C329 1.238 . S
O333 Co327 2.052 . S
O333 C329 1.241 . S
O334 Co322 2.137 . S
O334 C325 1.247 . S
O335 Co322 2.244 . S
O335 C325 1.272 . S
O335 Co327 2.135 . S
O336 Mn337 2.163 . S
O336 C350 1.244 . S
Mn337 O336 2.163 . S
Mn337 O340 2.160 . S
Mn337 O341 2.221 . S
Mn337 O343 2.163 . S
Mn337 O345 2.160 . S
Mn337 O355 2.221 . S
O338 Mn339 2.087 . S
O338 C350 1.256 . S
Mn339 O338 2.087 . S
Mn339 O346 2.089 . S
Mn339 O355 2.290 . S
Mn339 O356 2.251 . S
O340 Mn337 2.160 . S
O340 C351 1.239 . S
O341 Mn337 2.221 . S
O341 Mn342 2.290 . S
O341 C352 1.278 . S
Mn342 O341 2.290 . S
Mn342 O344 2.089 . S
Mn342 O347 2.251 . S
Mn342 O348 2.087 . S
O343 Mn337 2.163 . S
O343 C353 1.244 . S
O344 Mn342 2.089 . S
O344 C351 1.256 . S
O345 Mn337 2.160 . S
O345 C354 1.239 . S
O346 Mn339 2.089 . S
O346 C354 1.256 . S
O347 Mn342 2.251 . S
O347 C352 1.241 . S
O348 Mn342 2.087 . S
O348 C353 1.256 . S
C349 O355 1.278 . S
C349 O356 1.241 . S
C350 O336 1.244 . S
C350 O338 1.256 . S
C351 O340 1.239 . S
C351 O344 1.256 . S
C352 O341 1.278 . S
C352 O347 1.241 . S
C353 O343 1.244 . S
C353 O348 1.256 . S
C354 O345 1.239 . S
C354 O346 1.256 . S
O355 Mn337 2.221 . S
O355 Mn339 2.290 . S
O355 C349 1.278 . S
O356 Mn339 2.251 . S
O356 C349 1.241 . S
O357 Mn358 2.163 . S
O357 C371 1.244 . S
Mn358 O357 2.163 . S
Mn358 O361 2.160 . S
Mn358 O362 2.221 . S
Mn358 O364 2.163 . S
Mn358 O366 2.160 . S
Mn358 O376 2.221 . S
O359 Mn360 2.087 . S
O359 C371 1.256 . S
Mn360 O359 2.087 . S
Mn360 O367 2.089 . S
Mn360 O376 2.290 . S
Mn360 O377 2.251 . S
O361 Mn358 2.160 . S
O361 C372 1.239 . S
O362 Mn358 2.221 . S
O362 Mn363 2.290 . S
O362 C373 1.278 . S
Mn363 O362 2.290 . S
Mn363 O365 2.089 . S
Mn363 O368 2.251 . S
Mn363 O369 2.087 . S
O364 Mn358 2.163 . S
O364 C374 1.244 . S
O365 Mn363 2.089 . S
O365 C372 1.256 . S
O366 Mn358 2.160 . S
O366 C375 1.239 . S
O367 Mn360 2.089 . S
O367 C375 1.256 . S
O368 Mn363 2.251 . S
O368 C373 1.241 . S
O369 Mn363 2.087 . S
O369 C374 1.256 . S
C370 O376 1.278 . S
C370 O377 1.241 . S
C371 O357 1.244 . S
C371 O359 1.256 . S
C372 O361 1.239 . S
C372 O365 1.256 . S
C373 O362 1.278 . S
C373 O368 1.241 . S
C374 O364 1.244 . S
C374 O369 1.256 . S
C375 O366 1.239 . S
C375 O367 1.256 . S
O376 Mn358 2.221 . S
O376 Mn360 2.290 . S
O376 C370 1.278 . S
O377 Mn360 2.251 . S
O377 C370 1.241 . S
O378 Mn379 2.163 . S
O378 C392 1.244 . S
Mn379 O378 2.163 . S
Mn379 O382 2.160 . S
Mn379 O383 2.221 . S
Mn379 O385 2.163 . S
Mn379 O387 2.160 . S
Mn379 O397 2.221 . S
O380 Mn381 2.087 . S
O380 C392 1.256 . S
Mn381 O380 2.087 . S
Mn381 O388 2.089 . S
Mn381 O397 2.290 . S
Mn381 O398 2.251 . S
O382 Mn379 2.160 . S
O382 C393 1.239 . S
O383 Mn379 2.221 . S
O383 Mn384 2.290 . S
O383 C394 1.278 . S
Mn384 O383 2.290 . S
Mn384 O386 2.089 . S
Mn384 O389 2.251 . S
Mn384 O390 2.087 . S
O385 Mn379 2.163 . S
O385 C395 1.244 . S
O386 Mn384 2.089 . S
O386 C393 1.256 . S
O387 Mn379 2.160 . S
O387 C396 1.239 . S
O388 Mn381 2.089 . S
O388 C396 1.256 . S
O389 Mn384 2.251 . S
O389 C394 1.241 . S
O390 Mn384 2.087 . S
O390 C395 1.256 . S
C391 O397 1.278 . S
C391 O398 1.241 . S
C392 O378 1.244 . S
C392 O380 1.256 . S
C393 O382 1.239 . S
C393 O386 1.256 . S
C394 O383 1.278 . S
C394 O389 1.241 . S
C395 O385 1.244 . S
C395 O390 1.256 . S
C396 O387 1.239 . S
C396 O388 1.256 . S
O397 Mn379 2.221 . S
O397 Mn381 2.290 . S
O397 C391 1.278 . S
O398 Mn381 2.251 . S
O398 C391 1.241 . S
O399 Mn400 2.163 . S
O399 C413 1.244 . S
Mn400 O399 2.163 . S
Mn400 O403 2.160 . S
Mn400 O404 2.221 . S
Mn400 O406 2.163 . S
Mn400 O408 2.160 . S
Mn400 O418 2.221 . S
O401 Mn402 2.087 . S
O401 C413 1.256 . S
Mn402 O401 2.087 . S
Mn402 O409 2.089 . S
Mn402 O418 2.290 . S
Mn402 O419 2.251 . S
O403 Mn400 2.160 . S
O403 C414 1.239 . S
O404 Mn400 2.221 . S
O404 Mn405 2.290 . S
O404 C415 1.278 . S
Mn405 O404 2.290 . S
Mn405 O407 2.089 . S
Mn405 O410 2.251 . S
Mn405 O411 2.087 . S
O406 Mn400 2.163 . S
O406 C416 1.244 . S
O407 Mn405 2.089 . S
O407 C414 1.256 . S
O408 Mn400 2.160 . S
O408 C417 1.239 . S
O409 Mn402 2.089 . S
O409 C417 1.256 . S
O410 Mn405 2.251 . S
O410 C415 1.241 . S
O411 Mn405 2.087 . S
O411 C416 1.256 . S
C412 O418 1.278 . S
C412 O419 1.241 . S
C413 O399 1.244 . S
C413 O401 1.256 . S
C414 O403 1.239 . S
C414 O407 1.256 . S
C415 O404 1.278 . S
C415 O410 1.241 . S
C416 O406 1.244 . S
C416 O411 1.256 . S
C417 O408 1.239 . S
C417 O409 1.256 . S
O418 Mn400 2.221 . S
O418 Mn402 2.290 . S
O418 C412 1.278 . S
O419 Mn402 2.251 . S
O419 C412 1.241 . S
O420 Mn421 2.163 . S
O420 C434 1.244 . S
Mn421 O420 2.163 . S
Mn421 O424 2.160 . S
Mn421 O425 2.221 . S
Mn421 O427 2.163 . S
Mn421 O429 2.160 . S
Mn421 O439 2.221 . S
O422 Mn423 2.087 . S
O422 C434 1.256 . S
Mn423 O422 2.087 . S
Mn423 O430 2.089 . S
Mn423 O439 2.290 . S
Mn423 O440 2.251 . S
O424 Mn421 2.160 . S
O424 C435 1.239 . S
O425 Mn421 2.221 . S
O425 Mn426 2.290 . S
O425 C436 1.278 . S
Mn426 O425 2.290 . S
Mn426 O428 2.089 . S
Mn426 O431 2.251 . S
Mn426 O432 2.087 . S
O427 Mn421 2.163 . S
O427 C437 1.244 . S
O428 Mn426 2.089 . S
O428 C435 1.256 . S
O429 Mn421 2.160 . S
O429 C438 1.239 . S
O430 Mn423 2.089 . S
O430 C438 1.256 . S
O431 Mn426 2.251 . S
O431 C436 1.241 . S
O432 Mn426 2.087 . S
O432 C437 1.256 . S
C433 O439 1.278 . S
C433 O440 1.241 . S
C434 O420 1.244 . S
C434 O422 1.256 . S
C435 O424 1.239 . S
C435 O428 1.256 . S
C436 O425 1.278 . S
C436 O431 1.241 . S
C437 O427 1.244 . S
C437 O432 1.256 . S
C438 O429 1.239 . S
C438 O430 1.256 . S
O439 Mn421 2.221 . S
O439 Mn423 2.290 . S
O439 C433 1.278 . S
O440 Mn423 2.251 . S
O440 C433 1.241 . S
O441 Mn442 2.163 . S
O441 C455 1.244 . S
Mn442 O441 2.163 . S
Mn442 O445 2.160 . S
Mn442 O446 2.221 . S
Mn442 O448 2.163 . S
Mn442 O450 2.160 . S
Mn442 O460 2.221 . S
O443 Mn444 2.087 . S
O443 C455 1.256 . S
Mn444 O443 2.087 . S
Mn444 O451 2.089 . S
Mn444 O460 2.290 . S
Mn444 O461 2.251 . S
O445 Mn442 2.160 . S
O445 C456 1.239 . S
O446 Mn442 2.221 . S
O446 Mn447 2.290 . S
O446 C457 1.278 . S
Mn447 O446 2.290 . S
Mn447 O449 2.089 . S
Mn447 O452 2.251 . S
Mn447 O453 2.087 . S
O448 Mn442 2.163 . S
O448 C458 1.244 . S
O449 Mn447 2.089 . S
O449 C456 1.256 . S
O450 Mn442 2.160 . S
O450 C459 1.239 . S
O451 Mn444 2.089 . S
O451 C459 1.256 . S
O452 Mn447 2.251 . S
O452 C457 1.241 . S
O453 Mn447 2.087 . S
O453 C458 1.256 . S
C454 O460 1.278 . S
C454 O461 1.241 . S
C455 O441 1.244 . S
C455 O443 1.256 . S
C456 O445 1.239 . S
C456 O449 1.256 . S
C457 O446 1.278 . S
C457 O452 1.241 . S
C458 O448 1.244 . S
C458 O453 1.256 . S
C459 O450 1.239 . S
C459 O451 1.256 . S
O460 Mn442 2.221 . S
O460 Mn444 2.290 . S
O460 C454 1.278 . S
O461 Mn444 2.251 . S
O461 C454 1.241 . S
O462 Mn463 2.163 . S
O462 C476 1.244 . S
Mn463 O462 2.163 . S
Mn463 O466 2.160 . S
Mn463 O467 2.221 . S
Mn463 O469 2.163 . S
Mn463 O471 2.160 . S
Mn463 O481 2.221 . S
O464 Mn465 2.087 . S
O464 C476 1.256 . S
Mn465 O464 2.087 . S
Mn465 O472 2.089 . S
Mn465 O481 2.290 . S
Mn465 O482 2.251 . S
O466 Mn463 2.160 . S
O466 C477 1.239 . S
O467 Mn463 2.221 . S
O467 Mn468 2.290 . S
O467 C478 1.278 . S
Mn468 O467 2.290 . S
Mn468 O470 2.089 . S
Mn468 O473 2.251 . S
Mn468 O474 2.087 . S
O469 Mn463 2.163 . S
O469 C479 1.244 . S
O470 Mn468 2.089 . S
O470 C477 1.256 . S
O471 Mn463 2.160 . S
O471 C480 1.239 . S
O472 Mn465 2.089 . S
O472 C480 1.256 . S
O473 Mn468 2.251 . S
O473 C478 1.241 . S
O474 Mn468 2.087 . S
O474 C479 1.256 . S
C475 O481 1.278 . S
C475 O482 1.241 . S
C476 O462 1.244 . S
C476 O464 1.256 . S
C477 O466 1.239 . S
C477 O470 1.256 . S
C478 O467 1.278 . S
C478 O473 1.241 . S
C479 O469 1.244 . S
C479 O474 1.256 . S
C480 O471 1.239 . S
C480 O472 1.256 . S
O481 Mn463 2.221 . S
O481 Mn465 2.290 . S
O481 C475 1.278 . S
O482 Mn465 2.251 . S
O482 C475 1.241 . S
O483 Mn484 2.163 . S
O483 C497 1.244 . S
Mn484 O483 2.163 . S
Mn484 O487 2.160 . S
Mn484 O488 2.221 . S
Mn484 O490 2.163 . S
Mn484 O492 2.160 . S
Mn484 O502 2.221 . S
O485 Mn486 2.087 . S
O485 C497 1.256 . S
Mn486 O485 2.087 . S
Mn486 O493 2.089 . S
Mn486 O502 2.290 . S
Mn486 O503 2.251 . S
O487 Mn484 2.160 . S
O487 C498 1.239 . S
O488 Mn484 2.221 . S
O488 Mn489 2.290 . S
O488 C499 1.278 . S
Mn489 O488 2.290 . S
Mn489 O491 2.089 . S
Mn489 O494 2.251 . S
Mn489 O495 2.087 . S
O490 Mn484 2.163 . S
O490 C500 1.244 . S
O491 Mn489 2.089 . S
O491 C498 1.256 . S
O492 Mn484 2.160 . S
O492 C501 1.239 . S
O493 Mn486 2.089 . S
O493 C501 1.256 . S
O494 Mn489 2.251 . S
O494 C499 1.241 . S
O495 Mn489 2.087 . S
O495 C500 1.256 . S
C496 O502 1.278 . S
C496 O503 1.241 . S
C497 O483 1.244 . S
C497 O485 1.256 . S
C498 O487 1.239 . S
C498 O491 1.256 . S
C499 O488 1.278 . S
C499 O494 1.241 . S
C500 O490 1.244 . S
C500 O495 1.256 . S
C501 O492 1.239 . S
C501 O493 1.256 . S
O502 Mn484 2.221 . S
O502 Mn486 2.290 . S
O502 C496 1.278 . S
O503 Mn486 2.251 . S
O503 C496 1.241 . S
O504 Mn505 2.163 . S
O504 C518 1.244 . S
Mn505 O504 2.163 . S
Mn505 O508 2.160 . S
Mn505 O509 2.221 . S
Mn505 O511 2.163 . S
Mn505 O513 2.160 . S
Mn505 O523 2.221 . S
O506 Mn507 2.087 . S
O506 C518 1.256 . S
Mn507 O506 2.087 . S
Mn507 O514 2.089 . S
Mn507 O523 2.290 . S
Mn507 O524 2.251 . S
O508 Mn505 2.160 . S
O508 C519 1.239 . S
O509 Mn505 2.221 . S
O509 Mn510 2.290 . S
O509 C520 1.278 . S
Mn510 O509 2.290 . S
Mn510 O512 2.089 . S
Mn510 O515 2.251 . S
Mn510 O516 2.087 . S
O511 Mn505 2.163 . S
O511 C521 1.244 . S
O512 Mn510 2.089 . S
O512 C519 1.256 . S
O513 Mn505 2.160 . S
O513 C522 1.239 . S
O514 Mn507 2.089 . S
O514 C522 1.256 . S
O515 Mn510 2.251 . S
O515 C520 1.241 . S
O516 Mn510 2.087 . S
O516 C521 1.256 . S
C517 O523 1.278 . S
C517 O524 1.241 . S
C518 O504 1.244 . S
C518 O506 1.256 . S
C519 O508 1.239 . S
C519 O512 1.256 . S
C520 O509 1.278 . S
C520 O515 1.241 . S
C521 O511 1.244 . S
C521 O516 1.256 . S
C522 O513 1.239 . S
C522 O514 1.256 . S
O523 Mn505 2.221 . S
O523 Mn507 2.290 . S
O523 C517 1.278 . S
O524 Mn507 2.251 . S
O524 C517 1.241 . S
O525 Mn526 2.163 . S
O525 C539 1.244 . S
Mn526 O525 2.163 . S
Mn526 O529 2.160 . S
Mn526 O530 2.221 . S
Mn526 O532 2.163 . S
Mn526 O534 2.160 . S
Mn526 O544 2.221 . S
O527 Mn528 2.087 . S
O527 C539 1.256 . S
Mn528 O527 2.087 . S
Mn528 O535 2.089 . S
Mn528 O544 2.290 . S
Mn528 O545 2.251 . S
O529 Mn526 2.160 . S
O529 C540 1.239 . S
O530 Mn526 2.221 . S
O530 Mn531 2.290 . S
O530 C541 1.278 . S
Mn531 O530 2.290 . S
Mn531 O533 2.089 . S
Mn531 O536 2.251 . S
Mn531 O537 2.087 . S
O532 Mn526 2.163 . S
O532 C542 1.244 . S
O533 Mn531 2.089 . S
O533 C540 1.256 . S
O534 Mn526 2.160 . S
O534 C543 1.239 . S
O535 Mn528 2.089 . S
O535 C543 1.256 . S
O536 Mn531 2.251 . S
O536 C541 1.241 . S
O537 Mn531 2.087 . S
O537 C542 1.256 . S
C538 O544 1.278 . S
C538 O545 1.241 . S
C539 O525 1.244 . S
C539 O527 1.256 . S
C540 O529 1.239 . S
C540 O533 1.256 . S
C541 O530 1.278 . S
C541 O536 1.241 . S
C542 O532 1.244 . S
C542 O537 1.256 . S
C543 O534 1.239 . S
C543 O535 1.256 . S
O544 Mn526 2.221 . S
O544 Mn528 2.290 . S
O544 C538 1.278 . S
O545 Mn528 2.251 . S
O545 C538 1.241 . S
O546 Mn547 2.163 . S
O546 C560 1.244 . S
Mn547 O546 2.163 . S
Mn547 O550 2.160 . S
Mn547 O551 2.221 . S
Mn547 O553 2.163 . S
Mn547 O555 2.160 . S
Mn547 O565 2.221 . S
O548 Mn549 2.087 . S
O548 C560 1.256 . S
Mn549 O548 2.087 . S
Mn549 O556 2.089 . S
Mn549 O565 2.290 . S
Mn549 O566 2.251 . S
O550 Mn547 2.160 . S
O550 C561 1.239 . S
O551 Mn547 2.221 . S
O551 Mn552 2.290 . S
O551 C562 1.278 . S
Mn552 O551 2.290 . S
Mn552 O554 2.089 . S
Mn552 O557 2.251 . S
Mn552 O558 2.087 . S
O553 Mn547 2.163 . S
O553 C563 1.244 . S
O554 Mn552 2.089 . S
O554 C561 1.256 . S
O555 Mn547 2.160 . S
O555 C564 1.239 . S
O556 Mn549 2.089 . S
O556 C564 1.256 . S
O557 Mn552 2.251 . S
O557 C562 1.241 . S
O558 Mn552 2.087 . S
O558 C563 1.256 . S
C559 O565 1.278 . S
C559 O566 1.241 . S
C560 O546 1.244 . S
C560 O548 1.256 . S
C561 O550 1.239 . S
C561 O554 1.256 . S
C562 O551 1.278 . S
C562 O557 1.241 . S
C563 O553 1.244 . S
C563 O558 1.256 . S
C564 O555 1.239 . S
C564 O556 1.256 . S
O565 Mn547 2.221 . S
O565 Mn549 2.290 . S
O565 C559 1.278 . S
O566 Mn549 2.251 . S
O566 C559 1.241 . S
O567 Mn568 2.163 . S
O567 C581 1.244 . S
Mn568 O567 2.163 . S
Mn568 O571 2.160 . S
Mn568 O572 2.221 . S
Mn568 O574 2.163 . S
Mn568 O576 2.160 . S
Mn568 O586 2.221 . S
O569 Mn570 2.087 . S
O569 C581 1.256 . S
Mn570 O569 2.087 . S
Mn570 O577 2.089 . S
Mn570 O586 2.290 . S
Mn570 O587 2.251 . S
O571 Mn568 2.160 . S
O571 C582 1.239 . S
O572 Mn568 2.221 . S
O572 Mn573 2.290 . S
O572 C583 1.278 . S
Mn573 O572 2.290 . S
Mn573 O575 2.089 . S
Mn573 O578 2.251 . S
Mn573 O579 2.087 . S
O574 Mn568 2.163 . S
O574 C584 1.244 . S
O575 Mn573 2.089 . S
O575 C582 1.256 . S
O576 Mn568 2.160 . S
O576 C585 1.239 . S
O577 Mn570 2.089 . S
O577 C585 1.256 . S
O578 Mn573 2.251 . S
O578 C583 1.241 . S
O579 Mn573 2.087 . S
O579 C584 1.256 . S
C580 O586 1.278 . S
C580 O587 1.241 . S
C581 O567 1.244 . S
C581 O569 1.256 . S
C582 O571 1.239 . S
C582 O575 1.256 . S
C583 O572 1.278 . S
C583 O578 1.241 . S
C584 O574 1.244 . S
C584 O579 1.256 . S
C585 O576 1.239 . S
C585 O577 1.256 . S
O586 Mn568 2.221 . S
O586 Mn570 2.290 . S
O586 C580 1.278 . S
O587 Mn570 2.251 . S
O587 C580 1.241 . S
O588 Mn589 2.163 . S
O588 C602 1.244 . S
Mn589 O588 2.163 . S
Mn589 O592 2.160 . S
Mn589 O593 2.221 . S
Mn589 O595 2.163 . S
Mn589 O597 2.160 . S
Mn589 O607 2.221 . S
O590 Mn591 2.087 . S
O590 C602 1.256 . S
Mn591 O590 2.087 . S
Mn591 O598 2.089 . S
Mn591 O607 2.290 . S
Mn591 O608 2.251 . S
O592 Mn589 2.160 . S
O592 C603 1.239 . S
O593 Mn589 2.221 . S
O593 Mn594 2.290 . S
O593 C604 1.278 . S
Mn594 O593 2.290 . S
Mn594 O596 2.089 . S
Mn594 O599 2.251 . S
Mn594 O600 2.087 . S
O595 Mn589 2.163 . S
O595 C605 1.244 . S
O596 Mn594 2.089 . S
O596 C603 1.256 . S
O597 Mn589 2.160 . S
O597 C606 1.239 . S
O598 Mn591 2.089 . S
O598 C606 1.256 . S
O599 Mn594 2.251 . S
O599 C604 1.241 . S
O600 Mn594 2.087 . S
O600 C605 1.256 . S
C601 O607 1.278 . S
C601 O608 1.241 . S
C602 O588 1.244 . S
C602 O590 1.256 . S
C603 O592 1.239 . S
C603 O596 1.256 . S
C604 O593 1.278 . S
C604 O599 1.241 . S
C605 O595 1.244 . S
C605 O600 1.256 . S
C606 O597 1.239 . S
C606 O598 1.256 . S
O607 Mn589 2.221 . S
O607 Mn591 2.290 . S
O607 C601 1.278 . S
O608 Mn591 2.251 . S
O608 C601 1.241 . S
O609 Mn610 2.163 . S
O609 C623 1.244 . S
Mn610 O609 2.163 . S
Mn610 O613 2.160 . S
Mn610 O614 2.221 . S
Mn610 O616 2.163 . S
Mn610 O618 2.160 . S
Mn610 O628 2.221 . S
O611 Mn612 2.087 . S
O611 C623 1.256 . S
Mn612 O611 2.087 . S
Mn612 O619 2.089 . S
Mn612 O628 2.290 . S
Mn612 O629 2.251 . S
O613 Mn610 2.160 . S
O613 C624 1.239 . S
O614 Mn610 2.221 . S
O614 Mn615 2.290 . S
O614 C625 1.278 . S
Mn615 O614 2.290 . S
Mn615 O617 2.089 . S
Mn615 O620 2.251 . S
Mn615 O621 2.087 . S
O616 Mn610 2.163 . S
O616 C626 1.244 . S
O617 Mn615 2.089 . S
O617 C624 1.256 . S
O618 Mn610 2.160 . S
O618 C627 1.239 . S
O619 Mn612 2.089 . S
O619 C627 1.256 . S
O620 Mn615 2.251 . S
O620 C625 1.241 . S
O621 Mn615 2.087 . S
O621 C626 1.256 . S
C622 O628 1.278 . S
C622 O629 1.241 . S
C623 O609 1.244 . S
C623 O611 1.256 . S
C624 O613 1.239 . S
C624 O617 1.256 . S
C625 O614 1.278 . S
C625 O620 1.241 . S
C626 O616 1.244 . S
C626 O621 1.256 . S
C627 O618 1.239 . S
C627 O619 1.256 . S
O628 Mn610 2.221 . S
O628 Mn612 2.290 . S
O628 C622 1.278 . S
O629 Mn612 2.251 . S
O629 C622 1.241 . S
O630 Mn631 2.163 . S
O630 C644 1.244 . S
Mn631 O630 2.163 . S
Mn631 O634 2.160 . S
Mn631 O635 2.221 . S
Mn631 O637 2.163 . S
Mn631 O639 2.160 . S
Mn631 O649 2.221 . S
O632 Mn633 2.087 . S
O632 C644 1.256 . S
Mn633 O632 2.087 . S
Mn633 O640 2.089 . S
Mn633 O649 2.290 . S
Mn633 O650 2.251 . S
O634 Mn631 2.160 . S
O634 C645 1.239 . S
O635 Mn631 2.221 . S
O635 Mn636 2.290 . S
O635 C646 1.278 . S
Mn636 O635 2.290 . S
Mn636 O638 2.089 . S
Mn636 O641 2.251 . S
Mn636 O642 2.087 . S
O637 Mn631 2.163 . S
O637 C647 1.244 . S
O638 Mn636 2.089 . S
O638 C645 1.256 . S
O639 Mn631 2.160 . S
O639 C648 1.239 . S
O640 Mn633 2.089 . S
O640 C648 1.256 . S
O641 Mn636 2.251 . S
O641 C646 1.241 . S
O642 Mn636 2.087 . S
O642 C647 1.256 . S
C643 O649 1.278 . S
C643 O650 1.241 . S
C644 O630 1.244 . S
C644 O632 1.256 . S
C645 O634 1.239 . S
C645 O638 1.256 . S
C646 O635 1.278 . S
C646 O641 1.241 . S
C647 O637 1.244 . S
C647 O642 1.256 . S
C648 O639 1.239 . S
C648 O640 1.256 . S
O649 Mn631 2.221 . S
O649 Mn633 2.290 . S
O649 C643 1.278 . S
O650 Mn633 2.251 . S
O650 C643 1.241 . S
O651 Mn652 2.163 . S
O651 C665 1.244 . S
Mn652 O651 2.163 . S
Mn652 O655 2.160 . S
Mn652 O656 2.221 . S
Mn652 O658 2.163 . S
Mn652 O660 2.160 . S
Mn652 O670 2.221 . S
O653 Mn654 2.087 . S
O653 C665 1.256 . S
Mn654 O653 2.087 . S
Mn654 O661 2.089 . S
Mn654 O670 2.290 . S
Mn654 O671 2.251 . S
O655 Mn652 2.160 . S
O655 C666 1.239 . S
O656 Mn652 2.221 . S
O656 Mn657 2.290 . S
O656 C667 1.278 . S
Mn657 O656 2.290 . S
Mn657 O659 2.089 . S
Mn657 O662 2.251 . S
Mn657 O663 2.087 . S
O658 Mn652 2.163 . S
O658 C668 1.244 . S
O659 Mn657 2.089 . S
O659 C666 1.256 . S
O660 Mn652 2.160 . S
O660 C669 1.239 . S
O661 Mn654 2.089 . S
O661 C669 1.256 . S
O662 Mn657 2.251 . S
O662 C667 1.241 . S
O663 Mn657 2.087 . S
O663 C668 1.256 . S
C664 O670 1.278 . S
C664 O671 1.241 . S
C665 O651 1.244 . S
C665 O653 1.256 . S
C666 O655 1.239 . S
C666 O659 1.256 . S
C667 O656 1.278 . S
C667 O662 1.241 . S
C668 O658 1.244 . S
C668 O663 1.256 . S
C669 O660 1.239 . S
C669 O661 1.256 . S
O670 Mn652 2.221 . S
O670 Mn654 2.290 . S
O670 C664 1.278 . S
O671 Mn654 2.251 . S
O671 C664 1.241 . S
C672 C673 1.349 . S
C672 C674 1.327 . S
C672 H697 0.950 . S
C673 C672 1.349 . S
C673 C689 1.349 . S
C674 C672 1.327 . S
C674 C693 1.429 . S
C674 H698 0.950 . S
C675 C692 1.574 . S
C675 C694 1.368 . S
C675 H699 0.949 . S
H676 C680 0.949 . S
C677 C678 1.349 . S
C677 C679 1.327 . S
C677 H700 0.950 . S
C678 C677 1.349 . S
C678 C690 1.349 . S
C679 C677 1.327 . S
C679 C695 1.429 . S
C679 H701 0.950 . S
C680 H676 0.949 . S
C680 C688 1.574 . S
C680 C696 1.368 . S
H681 C689 0.950 . S
H682 C687 0.950 . S
H683 C688 0.949 . S
H684 C690 0.950 . S
H685 C691 0.950 . S
H686 C692 0.949 . S
C687 H682 0.950 . S
C687 C689 1.327 . S
C687 C693 1.429 . S
C688 C680 1.574 . S
C688 H683 0.949 . S
C688 C694 1.368 . S
C689 C673 1.349 . S
C689 H681 0.950 . S
C689 C687 1.327 . S
C690 C678 1.349 . S
C690 H684 0.950 . S
C690 C691 1.327 . S
C691 H685 0.950 . S
C691 C690 1.327 . S
C691 C695 1.429 . S
C692 C675 1.574 . S
C692 H686 0.949 . S
C692 C696 1.368 . S
C693 C674 1.429 . S
C693 C687 1.429 . S
C693 C694 1.523 . S
C694 C675 1.368 . S
C694 C688 1.368 . S
C694 C693 1.523 . S
C695 C679 1.429 . S
C695 C691 1.429 . S
C695 C696 1.523 . S
C696 C680 1.368 . S
C696 C692 1.368 . S
C696 C695 1.523 . S
H697 C672 0.950 . S
H698 C674 0.950 . S
H699 C675 0.949 . S
H700 C677 0.950 . S
H701 C679 0.950 . S
C702 C703 1.349 . S
C702 C704 1.327 . S
C702 H727 0.950 . S
C703 C702 1.349 . S
C703 C719 1.349 . S
C704 C702 1.327 . S
C704 C723 1.429 . S
C704 H728 0.950 . S
C705 C722 1.574 . S
C705 C724 1.368 . S
C705 H729 0.949 . S
H706 C710 0.949 . S
C707 C708 1.349 . S
C707 C709 1.327 . S
C707 H730 0.950 . S
C708 C707 1.349 . S
C708 C720 1.349 . S
C709 C707 1.327 . S
C709 C725 1.429 . S
C709 H731 0.950 . S
C710 H706 0.949 . S
C710 C718 1.574 . S
C710 C726 1.368 . S
H711 C719 0.950 . S
H712 C717 0.950 . S
H713 C718 0.949 . S
H714 C720 0.950 . S
H715 C721 0.950 . S
H716 C722 0.949 . S
C717 H712 0.950 . S
C717 C719 1.327 . S
C717 C723 1.429 . S
C718 C710 1.574 . S
C718 H713 0.949 . S
C718 C724 1.368 . S
C719 C703 1.349 . S
C719 H711 0.950 . S
C719 C717 1.327 . S
C720 C708 1.349 . S
C720 H714 0.950 . S
C720 C721 1.327 . S
C721 H715 0.950 . S
C721 C720 1.327 . S
C721 C725 1.429 . S
C722 C705 1.574 . S
C722 H716 0.949 . S
C722 C726 1.368 . S
C723 C704 1.429 . S
C723 C717 1.429 . S
C723 C724 1.523 . S
C724 C705 1.368 . S
C724 C718 1.368 . S
C724 C723 1.523 . S
C725 C709 1.429 . S
C725 C721 1.429 . S
C725 C726 1.523 . S
C726 C710 1.368 . S
C726 C722 1.368 . S
C726 C725 1.523 . S
H727 C702 0.950 . S
H728 C704 0.950 . S
H729 C705 0.949 . S
H730 C707 0.950 . S
H731 C709 0.950 . S
C732 C733 1.349 . S
C732 C734 1.327 . S
C732 H757 0.950 . S
C733 C732 1.349 . S
C733 C749 1.349 . S
C734 C732 1.327 . S
C734 C753 1.429 . S
C734 H758 0.950 . S
C735 C752 1.574 . S
C735 C754 1.368 . S
C735 H759 0.949 . S
H736 C740 0.949 . S
C737 C738 1.349 . S
C737 C739 1.327 . S
C737 H760 0.950 . S
C738 C737 1.349 . S
C738 C750 1.349 . S
C739 C737 1.327 . S
C739 C755 1.429 . S
C739 H761 0.950 . S
C740 H736 0.949 . S
C740 C748 1.574 . S
C740 C756 1.368 . S
H741 C749 0.950 . S
H742 C747 0.950 . S
H743 C748 0.949 . S
H744 C750 0.950 . S
H745 C751 0.950 . S
H746 C752 0.949 . S
C747 H742 0.950 . S
C747 C749 1.327 . S
C747 C753 1.429 . S
C748 C740 1.574 . S
C748 H743 0.949 . S
C748 C754 1.368 . S
C749 C733 1.349 . S
C749 H741 0.950 . S
C749 C747 1.327 . S
C750 C738 1.349 . S
C750 H744 0.950 . S
C750 C751 1.327 . S
C751 H745 0.950 . S
C751 C750 1.327 . S
C751 C755 1.429 . S
C752 C735 1.574 . S
C752 H746 0.949 . S
C752 C756 1.368 . S
C753 C734 1.429 . S
C753 C747 1.429 . S
C753 C754 1.523 . S
C754 C735 1.368 . S
C754 C748 1.368 . S
C754 C753 1.523 . S
C755 C739 1.429 . S
C755 C751 1.429 . S
C755 C756 1.523 . S
C756 C740 1.368 . S
C756 C752 1.368 . S
C756 C755 1.523 . S
H757 C732 0.950 . S
H758 C734 0.950 . S
H759 C735 0.949 . S
H760 C737 0.950 . S
H761 C739 0.950 . S
C762 C763 1.349 . S
C762 C764 1.327 . S
C762 H787 0.950 . S
C763 C762 1.349 . S
C763 C779 1.349 . S
C764 C762 1.327 . S
C764 C783 1.429 . S
C764 H788 0.950 . S
C765 C782 1.574 . S
C765 C784 1.368 . S
C765 H789 0.949 . S
H766 C770 0.949 . S
C767 C768 1.349 . S
C767 C769 1.327 . S
C767 H790 0.950 . S
C768 C767 1.349 . S
C768 C780 1.349 . S
C769 C767 1.327 . S
C769 C785 1.429 . S
C769 H791 0.950 . S
C770 H766 0.949 . S
C770 C778 1.574 . S
C770 C786 1.368 . S
H771 C779 0.950 . S
H772 C777 0.950 . S
H773 C778 0.949 . S
H774 C780 0.950 . S
H775 C781 0.950 . S
H776 C782 0.949 1_556 S
C777 H772 0.950 . S
C777 C779 1.327 . S
C777 C783 1.429 . S
C778 C770 1.574 . S
C778 H773 0.949 . S
C778 C784 1.368 . S
C779 C763 1.349 . S
C779 H771 0.950 . S
C779 C777 1.327 . S
C780 C768 1.349 . S
C780 H774 0.950 . S
C780 C781 1.327 . S
C781 H775 0.950 . S
C781 C780 1.327 . S
C781 C785 1.429 . S
C782 C765 1.574 . S
C782 H776 0.949 1_554 S
C782 C786 1.368 . S
C783 C764 1.429 . S
C783 C777 1.429 . S
C783 C784 1.523 . S
C784 C765 1.368 . S
C784 C778 1.368 . S
C784 C783 1.523 . S
C785 C769 1.429 . S
C785 C781 1.429 . S
C785 C786 1.523 1_556 S
C786 C770 1.368 . S
C786 C782 1.368 . S
C786 C785 1.523 1_554 S
H787 C762 0.950 . S
H788 C764 0.950 . S
H789 C765 0.949 . S
H790 C767 0.950 . S
H791 C769 0.950 . S
C792 C793 1.349 . S
C792 C794 1.327 . S
C792 H817 0.950 . S
C793 C792 1.349 . S
C793 C809 1.349 . S
C794 C792 1.327 . S
C794 C813 1.429 . S
C794 H818 0.950 . S
C795 C812 1.574 . S
C795 C814 1.368 . S
C795 H819 0.949 . S
H796 C800 0.949 . S
C797 C798 1.349 . S
C797 C799 1.327 . S
C797 H820 0.950 . S
C798 C797 1.349 . S
C798 C810 1.349 . S
C799 C797 1.327 . S
C799 C815 1.429 . S
C799 H821 0.950 . S
C800 H796 0.949 . S
C800 C808 1.574 . S
C800 C816 1.368 . S
H801 C809 0.950 . S
H802 C807 0.950 . S
H803 C808 0.949 . S
H804 C810 0.950 . S
H805 C811 0.950 . S
H806 C812 0.949 . S
C807 H802 0.950 . S
C807 C809 1.327 . S
C807 C813 1.429 . S
C808 C800 1.574 . S
C808 H803 0.949 . S
C808 C814 1.368 . S
C809 C793 1.349 . S
C809 H801 0.950 . S
C809 C807 1.327 . S
C810 C798 1.349 . S
C810 H804 0.950 . S
C810 C811 1.327 . S
C811 H805 0.950 . S
C811 C810 1.327 . S
C811 C815 1.429 . S
C812 C795 1.574 . S
C812 H806 0.949 . S
C812 C816 1.368 . S
C813 C794 1.429 . S
C813 C807 1.429 . S
C813 C814 1.523 . S
C814 C795 1.368 . S
C814 C808 1.368 . S
C814 C813 1.523 . S
C815 C799 1.429 . S
C815 C811 1.429 . S
C815 C816 1.523 . S
C816 C800 1.368 . S
C816 C812 1.368 . S
C816 C815 1.523 . S
H817 C792 0.950 . S
H818 C794 0.950 . S
H819 C795 0.949 . S
H820 C797 0.950 . S
H821 C799 0.950 . S
C822 C823 1.349 . S
C822 C824 1.327 . S
C822 H847 0.950 . S
C823 C822 1.349 . S
C823 C839 1.349 . S
C824 C822 1.327 . S
C824 C843 1.429 . S
C824 H848 0.950 . S
C825 C842 1.574 . S
C825 C844 1.368 . S
C825 H849 0.949 . S
H826 C830 0.949 . S
C827 C828 1.349 . S
C827 C829 1.327 . S
C827 H850 0.950 . S
C828 C827 1.349 . S
C828 C840 1.349 . S
C829 C827 1.327 . S
C829 C845 1.429 . S
C829 H851 0.950 . S
C830 H826 0.949 . S
C830 C838 1.574 . S
C830 C846 1.368 . S
H831 C839 0.950 . S
H832 C837 0.950 . S
H833 C838 0.949 . S
H834 C840 0.950 . S
H835 C841 0.950 . S
H836 C842 0.949 . S
C837 H832 0.950 . S
C837 C839 1.327 . S
C837 C843 1.429 . S
C838 C830 1.574 . S
C838 H833 0.949 . S
C838 C844 1.368 . S
C839 C823 1.349 . S
C839 H831 0.950 . S
C839 C837 1.327 . S
C840 C828 1.349 . S
C840 H834 0.950 . S
C840 C841 1.327 . S
C841 H835 0.950 . S
C841 C840 1.327 . S
C841 C845 1.429 . S
C842 C825 1.574 . S
C842 H836 0.949 . S
C842 C846 1.368 . S
C843 C824 1.429 . S
C843 C837 1.429 . S
C843 C844 1.523 . S
C844 C825 1.368 . S
C844 C838 1.368 . S
C844 C843 1.523 . S
C845 C829 1.429 . S
C845 C841 1.429 . S
C845 C846 1.523 . S
C846 C830 1.368 . S
C846 C842 1.368 . S
C846 C845 1.523 . S
H847 C822 0.950 . S
H848 C824 0.950 . S
H849 C825 0.949 . S
H850 C827 0.950 . S
H851 C829 0.950 . S
C852 C853 1.349 . S
C852 C854 1.327 . S
C852 H877 0.950 . S
C853 C852 1.349 . S
C853 C869 1.349 . S
C854 C852 1.327 . S
C854 C873 1.429 . S
C854 H878 0.950 . S
C855 C872 1.574 . S
C855 C874 1.368 . S
C855 H879 0.949 . S
H856 C860 0.949 . S
C857 C858 1.349 . S
C857 C859 1.327 . S
C857 H880 0.950 . S
C858 C857 1.349 . S
C858 C870 1.349 . S
C859 C857 1.327 . S
C859 C875 1.429 . S
C859 H881 0.950 . S
C860 H856 0.949 . S
C860 C868 1.574 . S
C860 C876 1.368 . S
H861 C869 0.950 . S
H862 C867 0.950 . S
H863 C868 0.949 . S
H864 C870 0.950 . S
H865 C871 0.950 . S
H866 C872 0.949 . S
C867 H862 0.950 . S
C867 C869 1.327 . S
C867 C873 1.429 . S
C868 C860 1.574 . S
C868 H863 0.949 . S
C868 C874 1.368 . S
C869 C853 1.349 . S
C869 H861 0.950 . S
C869 C867 1.327 . S
C870 C858 1.349 . S
C870 H864 0.950 . S
C870 C871 1.327 . S
C871 H865 0.950 . S
C871 C870 1.327 . S
C871 C875 1.429 . S
C872 C855 1.574 . S
C872 H866 0.949 . S
C872 C876 1.368 . S
C873 C854 1.429 . S
C873 C867 1.429 . S
C873 C874 1.523 . S
C874 C855 1.368 . S
C874 C868 1.368 . S
C874 C873 1.523 . S
C875 C859 1.429 . S
C875 C871 1.429 . S
C875 C876 1.523 . S
C876 C860 1.368 . S
C876 C872 1.368 . S
C876 C875 1.523 . S
H877 C852 0.950 . S
H878 C854 0.950 . S
H879 C855 0.949 . S
H880 C857 0.950 . S
H881 C859 0.950 . S
C882 C883 1.349 . S
C882 C884 1.327 . S
C882 H907 0.950 . S
C883 C882 1.349 . S
C883 C899 1.349 . S
C884 C882 1.327 . S
C884 C903 1.429 . S
C884 H908 0.950 . S
C885 C902 1.574 1_556 S
C885 C904 1.368 . S
C885 H909 0.949 . S
H886 C890 0.949 . S
C887 C888 1.349 . S
C887 C889 1.327 . S
C887 H910 0.950 . S
C888 C887 1.349 . S
C888 C900 1.349 . S
C889 C887 1.327 . S
C889 C905 1.429 . S
C889 H911 0.950 . S
C890 H886 0.949 . S
C890 C898 1.574 . S
C890 C906 1.368 . S
H891 C899 0.950 . S
H892 C897 0.950 . S
H893 C898 0.949 . S
H894 C900 0.950 . S
H895 C901 0.950 . S
H896 C902 0.949 . S
C897 H892 0.950 . S
C897 C899 1.327 . S
C897 C903 1.429 . S
C898 C890 1.574 . S
C898 H893 0.949 . S
C898 C904 1.368 1_554 S
C899 C883 1.349 . S
C899 H891 0.950 . S
C899 C897 1.327 . S
C900 C888 1.349 . S
C900 H894 0.950 . S
C900 C901 1.327 . S
C901 H895 0.950 . S
C901 C900 1.327 . S
C901 C905 1.429 . S
C902 C885 1.574 1_554 S
C902 H896 0.949 . S
C902 C906 1.368 . S
C903 C884 1.429 . S
C903 C897 1.429 . S
C903 C904 1.523 . S
C904 C885 1.368 . S
C904 C898 1.368 1_556 S
C904 C903 1.523 . S
C905 C889 1.429 . S
C905 C901 1.429 . S
C905 C906 1.523 . S
C906 C890 1.368 . S
C906 C902 1.368 . S
C906 C905 1.523 . S
H907 C882 0.950 . S
H908 C884 0.950 . S
H909 C885 0.949 . S
H910 C887 0.950 . S
H911 C889 0.950 . S
C912 C913 1.349 . S
C912 C914 1.327 . S
C912 H937 0.950 . S
C913 C912 1.349 . S
C913 C929 1.349 . S
C914 C912 1.327 . S
C914 C933 1.429 . S
C914 H938 0.950 . S
C915 C932 1.574 . S
C915 C934 1.368 . S
C915 H939 0.949 . S
H916 C920 0.949 . S
C917 C918 1.349 . S
C917 C919 1.327 . S
C917 H940 0.950 . S
C918 C917 1.349 . S
C918 C930 1.349 . S
C919 C917 1.327 . S
C919 C935 1.429 . S
C919 H941 0.950 . S
C920 H916 0.949 . S
C920 C928 1.574 . S
C920 C936 1.368 . S
H921 C929 0.950 . S
H922 C927 0.950 . S
H923 C928 0.949 . S
H924 C930 0.950 . S
H925 C931 0.950 . S
H926 C932 0.949 . S
C927 H922 0.950 . S
C927 C929 1.327 . S
C927 C933 1.429 . S
C928 C920 1.574 . S
C928 H923 0.949 . S
C928 C934 1.368 . S
C929 C913 1.349 . S
C929 H921 0.950 . S
C929 C927 1.327 . S
C930 C918 1.349 . S
C930 H924 0.950 . S
C930 C931 1.327 . S
C931 H925 0.950 . S
C931 C930 1.327 . S
C931 C935 1.429 . S
C932 C915 1.574 . S
C932 H926 0.949 . S
C932 C936 1.368 . S
C933 C914 1.429 . S
C933 C927 1.429 . S
C933 C934 1.523 . S
C934 C915 1.368 . S
C934 C928 1.368 . S
C934 C933 1.523 . S
C935 C919 1.429 . S
C935 C931 1.429 . S
C935 C936 1.523 . S
C936 C920 1.368 . S
C936 C932 1.368 . S
C936 C935 1.523 . S
H937 C912 0.950 . S
H938 C914 0.950 . S
H939 C915 0.949 . S
H940 C917 0.950 . S
H941 C919 0.950 . S
C942 C943 1.349 . S
C942 C944 1.327 . S
C942 H967 0.950 . S
C943 C942 1.349 . S
C943 C959 1.349 . S
C944 C942 1.327 . S
C944 C963 1.429 . S
C944 H968 0.950 . S
C945 C962 1.574 . S
C945 C964 1.368 . S
C945 H969 0.949 . S
H946 C950 0.949 . S
C947 C948 1.349 . S
C947 C949 1.327 . S
C947 H970 0.950 . S
C948 C947 1.349 . S
C948 C960 1.349 . S
C949 C947 1.327 . S
C949 C965 1.429 . S
C949 H971 0.950 . S
C950 H946 0.949 . S
C950 C958 1.574 . S
C950 C966 1.368 . S
H951 C959 0.950 . S
H952 C957 0.950 . S
H953 C958 0.949 . S
H954 C960 0.950 . S
H955 C961 0.950 . S
H956 C962 0.949 . S
C957 H952 0.950 . S
C957 C959 1.327 . S
C957 C963 1.429 . S
C958 C950 1.574 . S
C958 H953 0.949 . S
C958 C964 1.368 . S
C959 C943 1.349 . S
C959 H951 0.950 . S
C959 C957 1.327 . S
C960 C948 1.349 . S
C960 H954 0.950 . S
C960 C961 1.327 . S
C961 H955 0.950 . S
C961 C960 1.327 . S
C961 C965 1.429 . S
C962 C945 1.574 . S
C962 H956 0.949 . S
C962 C966 1.368 . S
C963 C944 1.429 . S
C963 C957 1.429 . S
C963 C964 1.523 . S
C964 C945 1.368 . S
C964 C958 1.368 . S
C964 C963 1.523 . S
C965 C949 1.429 . S
C965 C961 1.429 . S
C965 C966 1.523 1_565 S
C966 C950 1.368 . S
C966 C962 1.368 . S
C966 C965 1.523 1_545 S
H967 C942 0.950 . S
H968 C944 0.950 . S
H969 C945 0.949 . S
H970 C947 0.950 . S
H971 C949 0.950 . S
C972 C973 1.349 . S
C972 C974 1.327 . S
C972 H997 0.950 . S
C973 C972 1.349 . S
C973 C989 1.349 . S
C974 C972 1.327 . S
C974 C993 1.429 . S
C974 H998 0.950 . S
C975 C992 1.574 . S
C975 C994 1.373 1_565 S
C975 H999 0.949 . S
H976 C980 0.949 1_545 S
C977 C978 1.349 . S
C977 C979 1.327 . S
C977 H1000 0.950 . S
C978 C977 1.349 . S
C978 C990 1.349 . S
C979 C977 1.327 . S
C979 C995 1.429 . S
C979 H1001 0.950 . S
C980 H976 0.949 1_565 S
C980 C988 1.574 1_565 S
C980 C996 1.368 . S
H981 C989 0.950 . S
H982 C987 0.950 1_565 S
H983 C988 0.949 . S
H984 C990 0.950 . S
H985 C991 0.950 . S
H986 C992 0.949 . S
C987 H982 0.950 1_545 S
C987 C989 1.327 . S
C987 C993 1.429 . S
C988 C980 1.574 1_545 S
C988 H983 0.949 . S
C988 C994 1.366 . S
C989 C973 1.349 . S
C989 H981 0.950 . S
C989 C987 1.327 . S
C990 C978 1.349 . S
C990 H984 0.950 . S
C990 C991 1.327 . S
C991 H985 0.950 . S
C991 C990 1.327 . S
C991 C995 1.429 . S
C992 C975 1.574 . S
C992 H986 0.949 . S
C992 C996 1.368 . S
C993 C974 1.429 . S
C993 C987 1.429 . S
C993 C994 1.520 . S
C994 C975 1.373 1_545 S
C994 C988 1.366 . S
C994 C993 1.520 . S
C995 C979 1.429 . S
C995 C991 1.429 . S
C995 C996 1.523 . S
C996 C980 1.368 . S
C996 C992 1.368 . S
C996 C995 1.523 . S
H997 C972 0.950 . S
H998 C974 0.950 . S
H999 C975 0.949 . S
H1000 C977 0.950 . S
H1001 C979 0.950 . S
C1002 C1003 1.349 . S
C1002 C1004 1.327 . S
C1002 H1027 0.950 . S
C1003 C1002 1.349 . S
C1003 C1019 1.349 1_556 S
C1004 C1002 1.327 . S
C1004 C1023 1.410 1_565 S
C1004 H1028 0.950 . S
C1005 C1022 1.574 . S
C1005 C1024 1.368 . S
C1005 H1029 0.949 . S
H1006 C1010 0.949 . S
C1007 C1008 1.349 . S
C1007 C1009 1.327 . S
C1007 H1030 0.950 . S
C1008 C1007 1.349 . S
C1008 C1020 1.349 . S
C1009 C1007 1.327 . S
C1009 C1025 1.429 . S
C1009 H1031 0.950 . S
C1010 H1006 0.949 . S
C1010 C1018 1.574 . S
C1010 C1026 1.368 . S
H1011 C1019 0.950 . S
H1012 C1017 0.946 1_544 S
H1013 C1018 0.949 . S
H1014 C1020 0.950 . S
H1015 C1021 0.950 . S
H1016 C1022 0.949 . S
C1017 H1012 0.946 1_566 S
C1017 C1019 1.327 1_556 S
C1017 C1023 1.415 1_565 S
C1018 C1010 1.574 . S
C1018 H1013 0.949 . S
C1018 C1024 1.368 . S
C1019 C1003 1.349 1_554 S
C1019 H1011 0.950 . S
C1019 C1017 1.327 1_554 S
C1020 C1008 1.349 . S
C1020 H1014 0.950 . S
C1020 C1021 1.327 . S
C1021 H1015 0.950 . S
C1021 C1020 1.327 . S
C1021 C1025 1.429 . S
C1022 C1005 1.574 . S
C1022 H1016 0.949 . S
C1022 C1026 1.368 . S
C1023 C1004 1.410 1_545 S
C1023 C1017 1.415 1_545 S
C1023 C1024 1.553 . S
C1024 C1005 1.368 . S
C1024 C1018 1.368 . S
C1024 C1023 1.553 . S
C1025 C1009 1.429 . S
C1025 C1021 1.429 . S
C1025 C1026 1.523 . S
C1026 C1010 1.368 . S
C1026 C1022 1.368 . S
C1026 C1025 1.523 . S
H1027 C1002 0.950 . S
H1028 C1004 0.950 . S
H1029 C1005 0.949 . S
H1030 C1007 0.950 . S
H1031 C1009 0.950 . S
C1032 C1033 1.349 . S
C1032 C1034 1.327 . S
C1032 H1057 0.950 . S
C1033 C1032 1.349 . S
C1033 C1049 1.349 . S
C1034 C1032 1.327 . S
C1034 C1053 1.429 . S
C1034 H1058 0.950 . S
C1035 C1052 1.574 . S
C1035 C1054 1.368 . S
C1035 H1059 0.949 . S
H1036 C1040 0.949 . S
C1037 C1038 1.349 . S
C1037 C1039 1.327 . S
C1037 H1060 0.950 . S
C1038 C1037 1.349 . S
C1038 C1050 1.349 . S
C1039 C1037 1.327 . S
C1039 C1055 1.429 . S
C1039 H1061 0.950 . S
C1040 H1036 0.949 . S
C1040 C1048 1.574 . S
C1040 C1056 1.368 . S
H1041 C1049 0.950 . S
H1042 C1047 0.950 . S
H1043 C1048 0.949 . S
H1044 C1050 0.950 . S
H1045 C1051 0.950 . S
H1046 C1052 0.949 . S
C1047 H1042 0.950 . S
C1047 C1049 1.327 . S
C1047 C1053 1.429 . S
C1048 C1040 1.574 . S
C1048 H1043 0.949 . S
C1048 C1054 1.368 . S
C1049 C1033 1.349 . S
C1049 H1041 0.950 . S
C1049 C1047 1.327 . S
C1050 C1038 1.349 . S
C1050 H1044 0.950 . S
C1050 C1051 1.327 . S
C1051 H1045 0.950 . S
C1051 C1050 1.327 . S
C1051 C1055 1.429 . S
C1052 C1035 1.574 . S
C1052 H1046 0.949 . S
C1052 C1056 1.368 . S
C1053 C1034 1.429 . S
C1053 C1047 1.429 . S
C1053 C1054 1.523 . S
C1054 C1035 1.368 . S
C1054 C1048 1.368 . S
C1054 C1053 1.523 . S
C1055 C1039 1.429 . S
C1055 C1051 1.429 . S
C1055 C1056 1.523 . S
C1056 C1040 1.368 . S
C1056 C1052 1.368 . S
C1056 C1055 1.523 . S
H1057 C1032 0.950 . S
H1058 C1034 0.950 . S
H1059 C1035 0.949 . S
H1060 C1037 0.950 . S
H1061 C1039 0.950 . S
C1062 C1063 1.349 . S
C1062 C1064 1.327 . S
C1062 H1087 0.950 . S
C1063 C1062 1.349 . S
C1063 C1079 1.349 . S
C1064 C1062 1.327 . S
C1064 C1083 1.429 . S
C1064 H1088 0.950 . S
C1065 C1082 1.574 . S
C1065 C1084 1.368 . S
C1065 H1089 0.949 . S
H1066 C1070 0.949 . S
C1067 C1068 1.349 . S
C1067 C1069 1.327 . S
C1067 H1090 0.950 . S
C1068 C1067 1.349 . S
C1068 C1080 1.349 . S
C1069 C1067 1.327 . S
C1069 C1085 1.429 1_565 S
C1069 H1091 0.950 . S
C1070 H1066 0.949 . S
C1070 C1078 1.574 . S
C1070 C1086 1.368 . S
H1071 C1079 0.950 . S
H1072 C1077 0.950 . S
H1073 C1078 0.949 . S
H1074 C1080 0.950 . S
H1075 C1081 0.950 . S
H1076 C1082 0.949 . S
C1077 H1072 0.950 . S
C1077 C1079 1.327 . S
C1077 C1083 1.429 . S
C1078 C1070 1.574 . S
C1078 H1073 0.949 . S
C1078 C1084 1.368 . S
C1079 C1063 1.349 . S
C1079 H1071 0.950 . S
C1079 C1077 1.327 . S
C1080 C1068 1.349 . S
C1080 H1074 0.950 . S
C1080 C1081 1.327 1_565 S
C1081 H1075 0.950 . S
C1081 C1080 1.327 1_545 S
C1081 C1085 1.429 . S
C1082 C1065 1.574 . S
C1082 H1076 0.949 . S
C1082 C1086 1.368 . S
C1083 C1064 1.429 . S
C1083 C1077 1.429 . S
C1083 C1084 1.523 . S
C1084 C1065 1.368 . S
C1084 C1078 1.368 . S
C1084 C1083 1.523 . S
C1085 C1069 1.429 1_545 S
C1085 C1081 1.429 . S
C1085 C1086 1.523 . S
C1086 C1070 1.368 . S
C1086 C1082 1.368 . S
C1086 C1085 1.523 . S
H1087 C1062 0.950 . S
H1088 C1064 0.950 . S
H1089 C1065 0.949 . S
H1090 C1067 0.950 . S
H1091 C1069 0.950 . S
C1092 C1093 1.349 . S
C1092 C1094 1.327 . S
C1092 H1117 0.950 . S
C1093 C1092 1.349 . S
C1093 C1109 1.349 . S
C1094 C1092 1.327 . S
C1094 C1113 1.429 . S
C1094 H1118 0.950 . S
C1095 C1112 1.574 . S
C1095 C1114 1.368 . S
C1095 H1119 0.949 . S
H1096 C1100 0.949 . S
C1097 C1098 1.349 . S
C1097 C1099 1.327 . S
C1097 H1120 0.950 . S
C1098 C1097 1.349 . S
C1098 C1110 1.349 . S
C1099 C1097 1.327 . S
C1099 C1115 1.429 . S
C1099 H1121 0.950 . S
C1100 H1096 0.949 . S
C1100 C1108 1.574 . S
C1100 C1116 1.368 . S
H1101 C1109 0.950 . S
H1102 C1107 0.950 . S
H1103 C1108 0.949 . S
H1104 C1110 0.950 . S
H1105 C1111 0.950 . S
H1106 C1112 0.949 . S
C1107 H1102 0.950 . S
C1107 C1109 1.327 . S
C1107 C1113 1.429 . S
C1108 C1100 1.574 . S
C1108 H1103 0.949 . S
C1108 C1114 1.368 . S
C1109 C1093 1.349 . S
C1109 H1101 0.950 . S
C1109 C1107 1.327 . S
C1110 C1098 1.349 . S
C1110 H1104 0.950 . S
C1110 C1111 1.327 . S
C1111 H1105 0.950 . S
C1111 C1110 1.327 . S
C1111 C1115 1.429 . S
C1112 C1095 1.574 . S
C1112 H1106 0.949 . S
C1112 C1116 1.368 . S
C1113 C1094 1.429 . S
C1113 C1107 1.429 . S
C1113 C1114 1.523 . S
C1114 C1095 1.368 . S
C1114 C1108 1.368 . S
C1114 C1113 1.523 . S
C1115 C1099 1.429 . S
C1115 C1111 1.429 . S
C1115 C1116 1.523 . S
C1116 C1100 1.368 . S
C1116 C1112 1.368 . S
C1116 C1115 1.523 . S
H1117 C1092 0.950 . S
H1118 C1094 0.950 . S
H1119 C1095 0.949 . S
H1120 C1097 0.950 . S
H1121 C1099 0.950 . S
C1122 C1123 1.349 . S
C1122 C1124 1.327 . S
C1122 H1147 0.950 . S
C1123 C1122 1.349 . S
C1123 C1139 1.349 . S
C1124 C1122 1.327 . S
C1124 C1143 1.429 . S
C1124 H1148 0.950 . S
C1125 C1142 1.574 . S
C1125 C1144 1.368 . S
C1125 H1149 0.949 . S
H1126 C1130 0.949 . S
C1127 C1128 1.349 . S
C1127 C1129 1.327 . S
C1127 H1150 0.950 . S
C1128 C1127 1.349 . S
C1128 C1140 1.349 . S
C1129 C1127 1.327 . S
C1129 C1145 1.429 . S
C1129 H1151 0.950 . S
C1130 H1126 0.949 . S
C1130 C1138 1.574 . S
C1130 C1146 1.368 . S
H1131 C1139 0.950 . S
H1132 C1137 0.950 . S
H1133 C1138 0.949 . S
H1134 C1140 0.950 . S
H1135 C1141 0.950 . S
H1136 C1142 0.949 . S
C1137 H1132 0.950 . S
C1137 C1139 1.327 . S
C1137 C1143 1.429 . S
C1138 C1130 1.574 . S
C1138 H1133 0.949 . S
C1138 C1144 1.368 . S
C1139 C1123 1.349 . S
C1139 H1131 0.950 . S
C1139 C1137 1.327 . S
C1140 C1128 1.349 . S
C1140 H1134 0.950 . S
C1140 C1141 1.327 . S
C1141 H1135 0.950 . S
C1141 C1140 1.327 . S
C1141 C1145 1.429 . S
C1142 C1125 1.574 . S
C1142 H1136 0.949 . S
C1142 C1146 1.368 . S
C1143 C1124 1.429 . S
C1143 C1137 1.429 . S
C1143 C1144 1.523 1_565 S
C1144 C1125 1.368 . S
C1144 C1138 1.368 . S
C1144 C1143 1.523 1_545 S
C1145 C1129 1.429 . S
C1145 C1141 1.429 . S
C1145 C1146 1.523 . S
C1146 C1130 1.368 . S
C1146 C1142 1.368 . S
C1146 C1145 1.523 . S
H1147 C1122 0.950 . S
H1148 C1124 0.950 . S
H1149 C1125 0.949 . S
H1150 C1127 0.950 . S
H1151 C1129 0.950 . S
C1152 C1153 1.349 . S
C1152 C1154 1.327 . S
C1152 H1177 0.950 . S
C1153 C1152 1.349 . S
C1153 C1169 1.349 . S
C1154 C1152 1.327 . S
C1154 C1173 1.429 . S
C1154 H1178 0.950 . S
C1155 C1172 1.574 . S
C1155 C1174 1.368 . S
C1155 H1179 0.949 . S
H1156 C1160 0.949 . S
C1157 C1158 1.349 . S
C1157 C1159 1.327 . S
C1157 H1180 0.950 . S
C1158 C1157 1.349 . S
C1158 C1170 1.349 . S
C1159 C1157 1.327 . S
C1159 C1175 1.429 . S
C1159 H1181 0.950 . S
C1160 H1156 0.949 . S
C1160 C1168 1.574 . S
C1160 C1176 1.368 . S
H1161 C1169 0.950 . S
H1162 C1167 0.950 . S
H1163 C1168 0.949 . S
H1164 C1170 0.950 . S
H1165 C1171 0.950 . S
H1166 C1172 0.949 . S
C1167 H1162 0.950 . S
C1167 C1169 1.327 . S
C1167 C1173 1.429 . S
C1168 C1160 1.574 . S
C1168 H1163 0.949 . S
C1168 C1174 1.368 . S
C1169 C1153 1.349 . S
C1169 H1161 0.950 . S
C1169 C1167 1.327 . S
C1170 C1158 1.349 . S
C1170 H1164 0.950 . S
C1170 C1171 1.327 . S
C1171 H1165 0.950 . S
C1171 C1170 1.327 . S
C1171 C1175 1.429 . S
C1172 C1155 1.574 . S
C1172 H1166 0.949 . S
C1172 C1176 1.368 . S
C1173 C1154 1.429 . S
C1173 C1167 1.429 . S
C1173 C1174 1.523 . S
C1174 C1155 1.368 . S
C1174 C1168 1.368 . S
C1174 C1173 1.523 . S
C1175 C1159 1.429 . S
C1175 C1171 1.429 . S
C1175 C1176 1.523 . S
C1176 C1160 1.368 . S
C1176 C1172 1.368 . S
C1176 C1175 1.523 . S
H1177 C1152 0.950 . S
H1178 C1154 0.950 . S
H1179 C1155 0.949 . S
H1180 C1157 0.950 . S
H1181 C1159 0.950 . S
C1182 C1183 1.349 . S
C1182 C1184 1.327 . S
C1182 H1207 0.950 . S
C1183 C1182 1.349 . S
C1183 C1199 1.349 . S
C1184 C1182 1.327 . S
C1184 C1203 1.429 . S
C1184 H1208 0.950 . S
C1185 C1202 1.574 . S
C1185 C1204 1.368 . S
C1185 H1209 0.949 . S
H1186 C1190 0.949 . S
C1187 C1188 1.349 . S
C1187 C1189 1.327 . S
C1187 H1210 0.950 . S
C1188 C1187 1.349 . S
C1188 C1200 1.349 . S
C1189 C1187 1.327 . S
C1189 C1205 1.429 . S
C1189 H1211 0.950 . S
C1190 H1186 0.949 . S
C1190 C1198 1.574 . S
C1190 C1206 1.368 . S
H1191 C1199 0.950 . S
H1192 C1197 0.950 . S
H1193 C1198 0.949 . S
H1194 C1200 0.950 . S
H1195 C1201 0.950 . S
H1196 C1202 0.949 . S
C1197 H1192 0.950 . S
C1197 C1199 1.327 . S
C1197 C1203 1.429 . S
C1198 C1190 1.574 . S
C1198 H1193 0.949 . S
C1198 C1204 1.368 . S
C1199 C1183 1.349 . S
C1199 H1191 0.950 . S
C1199 C1197 1.327 . S
C1200 C1188 1.349 . S
C1200 H1194 0.950 . S
C1200 C1201 1.327 . S
C1201 H1195 0.950 . S
C1201 C1200 1.327 . S
C1201 C1205 1.429 . S
C1202 C1185 1.574 . S
C1202 H1196 0.949 . S
C1202 C1206 1.368 . S
C1203 C1184 1.429 . S
C1203 C1197 1.429 . S
C1203 C1204 1.523 . S
C1204 C1185 1.368 . S
C1204 C1198 1.368 . S
C1204 C1203 1.523 . S
C1205 C1189 1.429 . S
C1205 C1201 1.429 . S
C1205 C1206 1.523 . S
C1206 C1190 1.368 . S
C1206 C1202 1.368 . S
C1206 C1205 1.523 . S
H1207 C1182 0.950 . S
H1208 C1184 0.950 . S
H1209 C1185 0.949 . S
H1210 C1187 0.950 . S
H1211 C1189 0.950 . S
C1212 C1213 1.349 . S
C1212 C1214 1.327 . S
C1212 H1237 0.950 . S
C1213 C1212 1.349 . S
C1213 C1229 1.349 . S
C1214 C1212 1.327 . S
C1214 C1233 1.429 . S
C1214 H1238 0.950 . S
C1215 C1232 1.574 . S
C1215 C1234 1.368 . S
C1215 H1239 0.949 . S
H1216 C1220 0.949 1_655 S
C1217 C1218 1.349 . S
C1217 C1219 1.327 . S
C1217 H1240 0.950 . S
C1218 C1217 1.349 . S
C1218 C1230 1.349 . S
C1219 C1217 1.327 . S
C1219 C1235 1.429 . S
C1219 H1241 0.950 . S
C1220 H1216 0.949 1_455 S
C1220 C1228 1.574 . S
C1220 C1236 1.368 . S
H1221 C1229 0.950 . S
H1222 C1227 0.950 . S
H1223 C1228 0.949 . S
H1224 C1230 0.950 . S
H1225 C1231 0.950 . S
H1226 C1232 0.949 . S
C1227 H1222 0.950 . S
C1227 C1229 1.327 . S
C1227 C1233 1.429 . S
C1228 C1220 1.574 . S
C1228 H1223 0.949 . S
C1228 C1234 1.368 . S
C1229 C1213 1.349 . S
C1229 H1221 0.950 . S
C1229 C1227 1.327 . S
C1230 C1218 1.349 . S
C1230 H1224 0.950 . S
C1230 C1231 1.327 . S
C1231 H1225 0.950 . S
C1231 C1230 1.327 . S
C1231 C1235 1.429 . S
C1232 C1215 1.574 . S
C1232 H1226 0.949 . S
C1232 C1236 1.368 . S
C1233 C1214 1.429 . S
C1233 C1227 1.429 . S
C1233 C1234 1.523 . S
C1234 C1215 1.368 . S
C1234 C1228 1.368 . S
C1234 C1233 1.523 . S
C1235 C1219 1.429 . S
C1235 C1231 1.429 . S
C1235 C1236 1.523 1_655 S
C1236 C1220 1.368 . S
C1236 C1232 1.368 . S
C1236 C1235 1.523 1_455 S
H1237 C1212 0.950 . S
H1238 C1214 0.950 . S
H1239 C1215 0.949 . S
H1240 C1217 0.950 . S
H1241 C1219 0.950 . S
C1242 C1243 1.349 . S
C1242 C1244 1.327 . S
C1242 H1267 0.950 . S
C1243 C1242 1.349 . S
C1243 C1259 1.349 . S
C1244 C1242 1.327 . S
C1244 C1263 1.429 . S
C1244 H1268 0.950 . S
C1245 C1262 1.574 . S
C1245 C1264 1.368 . S
C1245 H1269 0.949 . S
H1246 C1250 0.949 . S
C1247 C1248 1.349 . S
C1247 C1249 1.327 . S
C1247 H1270 0.950 . S
C1248 C1247 1.349 . S
C1248 C1260 1.349 . S
C1249 C1247 1.327 . S
C1249 C1265 1.429 . S
C1249 H1271 0.950 . S
C1250 H1246 0.949 . S
C1250 C1258 1.574 . S
C1250 C1266 1.368 . S
H1251 C1259 0.950 . S
H1252 C1257 0.950 . S
H1253 C1258 0.949 . S
H1254 C1260 0.950 . S
H1255 C1261 0.950 . S
H1256 C1262 0.949 . S
C1257 H1252 0.950 . S
C1257 C1259 1.327 . S
C1257 C1263 1.429 . S
C1258 C1250 1.574 . S
C1258 H1253 0.949 . S
C1258 C1264 1.368 . S
C1259 C1243 1.349 . S
C1259 H1251 0.950 . S
C1259 C1257 1.327 . S
C1260 C1248 1.349 . S
C1260 H1254 0.950 . S
C1260 C1261 1.327 . S
C1261 H1255 0.950 . S
C1261 C1260 1.327 . S
C1261 C1265 1.429 . S
C1262 C1245 1.574 . S
C1262 H1256 0.949 . S
C1262 C1266 1.368 . S
C1263 C1244 1.429 . S
C1263 C1257 1.429 . S
C1263 C1264 1.523 . S
C1264 C1245 1.368 . S
C1264 C1258 1.368 . S
C1264 C1263 1.523 . S
C1265 C1249 1.429 . S
C1265 C1261 1.429 . S
C1265 C1266 1.523 . S
C1266 C1250 1.368 . S
C1266 C1262 1.368 . S
C1266 C1265 1.523 . S
H1267 C1242 0.950 . S
H1268 C1244 0.950 . S
H1269 C1245 0.949 . S
H1270 C1247 0.950 . S
H1271 C1249 0.950 . S
C1272 C1273 1.349 . S
C1272 C1274 1.327 . S
C1272 H1297 0.950 . S
C1273 C1272 1.349 . S
C1273 C1289 1.349 . S
C1274 C1272 1.327 . S
C1274 C1293 1.429 . S
C1274 H1298 0.950 . S
C1275 C1292 1.574 1_655 S
C1275 C1294 1.368 . S
C1275 H1299 0.949 . S
H1276 C1280 0.949 . S
C1277 C1278 1.349 . S
C1277 C1279 1.327 . S
C1277 H1300 0.950 . S
C1278 C1277 1.349 . S
C1278 C1290 1.349 . S
C1279 C1277 1.327 . S
C1279 C1295 1.429 . S
C1279 H1301 0.950 . S
C1280 H1276 0.949 . S
C1280 C1288 1.574 1_455 S
C1280 C1296 1.368 . S
H1281 C1289 0.950 . S
H1282 C1287 0.950 . S
H1283 C1288 0.949 . S
H1284 C1290 0.950 . S
H1285 C1291 0.950 . S
H1286 C1292 0.949 . S
C1287 H1282 0.950 . S
C1287 C1289 1.327 . S
C1287 C1293 1.429 . S
C1288 C1280 1.574 1_655 S
C1288 H1283 0.949 . S
C1288 C1294 1.368 . S
C1289 C1273 1.349 . S
C1289 H1281 0.950 . S
C1289 C1287 1.327 . S
C1290 C1278 1.349 . S
C1290 H1284 0.950 . S
C1290 C1291 1.327 . S
C1291 H1285 0.950 . S
C1291 C1290 1.327 . S
C1291 C1295 1.429 . S
C1292 C1275 1.574 1_455 S
C1292 H1286 0.949 . S
C1292 C1296 1.368 . S
C1293 C1274 1.429 . S
C1293 C1287 1.429 . S
C1293 C1294 1.523 . S
C1294 C1275 1.368 . S
C1294 C1288 1.368 . S
C1294 C1293 1.523 . S
C1295 C1279 1.429 . S
C1295 C1291 1.429 . S
C1295 C1296 1.523 . S
C1296 C1280 1.368 . S
C1296 C1292 1.368 . S
C1296 C1295 1.523 . S
H1297 C1272 0.950 . S
H1298 C1274 0.950 . S
H1299 C1275 0.949 . S
H1300 C1277 0.950 . S
H1301 C1279 0.950 . S
C1302 C1303 1.349 . S
C1302 C1304 1.327 . S
C1302 H1327 0.950 . S
C1303 C1302 1.349 . S
C1303 C1319 1.349 . S
C1304 C1302 1.327 . S
C1304 C1323 1.429 . S
C1304 H1328 0.950 . S
C1305 C1322 1.574 . S
C1305 C1324 1.368 . S
C1305 H1329 0.949 . S
H1306 C1310 0.949 . S
C1307 C1308 1.349 . S
C1307 C1309 1.327 . S
C1307 H1330 0.950 . S
C1308 C1307 1.349 . S
C1308 C1320 1.349 . S
C1309 C1307 1.327 . S
C1309 C1325 1.429 . S
C1309 H1331 0.950 . S
C1310 H1306 0.949 . S
C1310 C1318 1.574 . S
C1310 C1326 1.368 . S
H1311 C1319 0.950 . S
H1312 C1317 0.950 . S
H1313 C1318 0.949 . S
H1314 C1320 0.950 . S
H1315 C1321 0.950 . S
H1316 C1322 0.949 . S
C1317 H1312 0.950 . S
C1317 C1319 1.327 . S
C1317 C1323 1.429 . S
C1318 C1310 1.574 . S
C1318 H1313 0.949 . S
C1318 C1324 1.368 . S
C1319 C1303 1.349 . S
C1319 H1311 0.950 . S
C1319 C1317 1.327 . S
C1320 C1308 1.349 . S
C1320 H1314 0.950 . S
C1320 C1321 1.327 . S
C1321 H1315 0.950 . S
C1321 C1320 1.327 . S
C1321 C1325 1.429 . S
C1322 C1305 1.574 . S
C1322 H1316 0.949 . S
C1322 C1326 1.368 . S
C1323 C1304 1.429 . S
C1323 C1317 1.429 . S
C1323 C1324 1.523 . S
C1324 C1305 1.368 . S
C1324 C1318 1.368 . S
C1324 C1323 1.523 . S
C1325 C1309 1.429 . S
C1325 C1321 1.429 . S
C1325 C1326 1.523 . S
C1326 C1310 1.368 . S
C1326 C1322 1.368 . S
C1326 C1325 1.523 . S
H1327 C1302 0.950 . S
H1328 C1304 0.950 . S
H1329 C1305 0.949 . S
H1330 C1307 0.950 . S
H1331 C1309 0.950 . S
C1332 C1333 1.349 . S
C1332 C1334 1.327 . S
C1332 H1357 0.950 . S
C1333 C1332 1.349 . S
C1333 C1349 1.349 . S
C1334 C1332 1.327 . S
C1334 C1353 1.429 . S
C1334 H1358 0.950 . S
C1335 C1352 1.574 . S
C1335 C1354 1.368 . S
C1335 H1359 0.949 . S
H1336 C1340 0.949 1_655 S
C1337 C1338 1.349 . S
C1337 C1339 1.327 . S
C1337 H1360 0.950 . S
C1338 C1337 1.349 . S
C1338 C1350 1.349 . S
C1339 C1337 1.327 . S
C1339 C1355 1.429 . S
C1339 H1361 0.950 . S
C1340 H1336 0.949 1_455 S
C1340 C1348 1.574 . S
C1340 C1356 1.368 1_455 S
H1341 C1349 0.950 . S
H1342 C1347 0.950 . S
H1343 C1348 0.949 . S
H1344 C1350 0.950 . S
H1345 C1351 0.950 . S
H1346 C1352 0.949 1_655 S
C1347 H1342 0.950 . S
C1347 C1349 1.327 . S
C1347 C1353 1.429 . S
C1348 C1340 1.574 . S
C1348 H1343 0.949 . S
C1348 C1354 1.368 . S
C1349 C1333 1.349 . S
C1349 H1341 0.950 . S
C1349 C1347 1.327 . S
C1350 C1338 1.349 . S
C1350 H1344 0.950 . S
C1350 C1351 1.327 . S
C1351 H1345 0.950 . S
C1351 C1350 1.327 . S
C1351 C1355 1.429 . S
C1352 C1335 1.574 . S
C1352 H1346 0.949 1_455 S
C1352 C1356 1.368 1_455 S
C1353 C1334 1.429 . S
C1353 C1347 1.429 . S
C1353 C1354 1.523 . S
C1354 C1335 1.368 . S
C1354 C1348 1.368 . S
C1354 C1353 1.523 . S
C1355 C1339 1.429 . S
C1355 C1351 1.429 . S
C1355 C1356 1.523 . S
C1356 C1340 1.368 1_655 S
C1356 C1352 1.368 1_655 S
C1356 C1355 1.523 . S
H1357 C1332 0.950 . S
H1358 C1334 0.950 . S
H1359 C1335 0.949 . S
H1360 C1337 0.950 . S
H1361 C1339 0.950 . S
C1362 C1363 1.349 . S
C1362 C1364 1.327 . S
C1362 H1387 0.950 . S
C1363 C1362 1.349 . S
C1363 C1379 1.349 . S
C1364 C1362 1.327 . S
C1364 C1383 1.429 . S
C1364 H1388 0.950 . S
C1365 C1382 1.574 . S
C1365 C1384 1.368 . S
C1365 H1389 0.949 . S
H1366 C1370 0.949 . S
C1367 C1368 1.349 . S
C1367 C1369 1.327 . S
C1367 H1390 0.950 . S
C1368 C1367 1.349 . S
C1368 C1380 1.349 . S
C1369 C1367 1.327 . S
C1369 C1385 1.429 . S
C1369 H1391 0.950 . S
C1370 H1366 0.949 . S
C1370 C1378 1.574 . S
C1370 C1386 1.368 . S
H1371 C1379 0.950 . S
H1372 C1377 0.950 . S
H1373 C1378 0.949 . S
H1374 C1380 0.950 . S
H1375 C1381 0.950 . S
H1376 C1382 0.949 . S
C1377 H1372 0.950 . S
C1377 C1379 1.327 . S
C1377 C1383 1.429 . S
C1378 C1370 1.574 . S
C1378 H1373 0.949 . S
C1378 C1384 1.368 . S
C1379 C1363 1.349 . S
C1379 H1371 0.950 . S
C1379 C1377 1.327 . S
C1380 C1368 1.349 . S
C1380 H1374 0.950 . S
C1380 C1381 1.327 . S
C1381 H1375 0.950 . S
C1381 C1380 1.327 . S
C1381 C1385 1.429 . S
C1382 C1365 1.574 . S
C1382 H1376 0.949 . S
C1382 C1386 1.368 . S
C1383 C1364 1.429 . S
C1383 C1377 1.429 . S
C1383 C1384 1.523 . S
C1384 C1365 1.368 . S
C1384 C1378 1.368 . S
C1384 C1383 1.523 . S
C1385 C1369 1.429 . S
C1385 C1381 1.429 . S
C1385 C1386 1.523 . S
C1386 C1370 1.368 . S
C1386 C1382 1.368 . S
C1386 C1385 1.523 . S
H1387 C1362 0.950 . S
H1388 C1364 0.950 . S
H1389 C1365 0.949 . S
H1390 C1367 0.950 . S
H1391 C1369 0.950 . S
C1392 C1393 1.349 . S
C1392 C1394 1.327 . S
C1392 H1417 0.950 . S
C1393 C1392 1.349 . S
C1393 C1409 1.349 . S
C1394 C1392 1.327 . S
C1394 C1413 1.429 . S
C1394 H1418 0.950 . S
C1395 C1412 1.574 . S
C1395 C1414 1.368 . S
C1395 H1419 0.949 . S
H1396 C1400 0.949 . S
C1397 C1398 1.349 . S
C1397 C1399 1.327 . S
C1397 H1420 0.950 . S
C1398 C1397 1.349 . S
C1398 C1410 1.349 . S
C1399 C1397 1.327 . S
C1399 C1415 1.429 . S
C1399 H1421 0.950 . S
C1400 H1396 0.949 . S
C1400 C1408 1.574 . S
C1400 C1416 1.368 . S
H1401 C1409 0.950 . S
H1402 C1407 0.950 . S
H1403 C1408 0.949 . S
H1404 C1410 0.950 . S
H1405 C1411 0.950 . S
H1406 C1412 0.949 . S
C1407 H1402 0.950 . S
C1407 C1409 1.327 . S
C1407 C1413 1.429 . S
C1408 C1400 1.574 . S
C1408 H1403 0.949 . S
C1408 C1414 1.368 . S
C1409 C1393 1.349 . S
C1409 H1401 0.950 . S
C1409 C1407 1.327 . S
C1410 C1398 1.349 . S
C1410 H1404 0.950 . S
C1410 C1411 1.327 . S
C1411 H1405 0.950 . S
C1411 C1410 1.327 . S
C1411 C1415 1.429 . S
C1412 C1395 1.574 . S
C1412 H1406 0.949 . S
C1412 C1416 1.368 . S
C1413 C1394 1.429 . S
C1413 C1407 1.429 . S
C1413 C1414 1.523 . S
C1414 C1395 1.368 . S
C1414 C1408 1.368 . S
C1414 C1413 1.523 . S
C1415 C1399 1.429 . S
C1415 C1411 1.429 . S
C1415 C1416 1.523 . S
C1416 C1400 1.368 . S
C1416 C1412 1.368 . S
C1416 C1415 1.523 . S
H1417 C1392 0.950 . S
H1418 C1394 0.950 . S
H1419 C1395 0.949 . S
H1420 C1397 0.950 . S
H1421 C1399 0.950 . S
C1422 C1423 1.349 . S
C1422 C1424 1.327 . S
C1422 H1447 0.950 1_655 S
C1423 C1422 1.349 . S
C1423 C1439 1.349 . S
C1424 C1422 1.327 . S
C1424 C1443 1.429 . S
C1424 H1448 0.950 . S
C1425 C1442 1.574 . S
C1425 C1444 1.368 . S
C1425 H1449 0.949 . S
H1426 C1430 0.949 . S
C1427 C1428 1.349 . S
C1427 C1429 1.327 . S
C1427 H1450 0.950 . S
C1428 C1427 1.349 . S
C1428 C1440 1.349 . S
C1429 C1427 1.327 . S
C1429 C1445 1.429 . S
C1429 H1451 0.950 . S
C1430 H1426 0.949 . S
C1430 C1438 1.574 . S
C1430 C1446 1.368 . S
H1431 C1439 0.950 . S
H1432 C1437 0.950 . S
H1433 C1438 0.949 . S
H1434 C1440 0.950 . S
H1435 C1441 0.950 . S
H1436 C1442 0.949 . S
C1437 H1432 0.950 . S
C1437 C1439 1.327 . S
C1437 C1443 1.429 . S
C1438 C1430 1.574 . S
C1438 H1433 0.949 . S
C1438 C1444 1.368 . S
C1439 C1423 1.349 . S
C1439 H1431 0.950 . S
C1439 C1437 1.327 . S
C1440 C1428 1.349 . S
C1440 H1434 0.950 . S
C1440 C1441 1.327 . S
C1441 H1435 0.950 . S
C1441 C1440 1.327 . S
C1441 C1445 1.429 . S
C1442 C1425 1.574 . S
C1442 H1436 0.949 . S
C1442 C1446 1.368 . S
C1443 C1424 1.429 . S
C1443 C1437 1.429 . S
C1443 C1444 1.523 . S
C1444 C1425 1.368 . S
C1444 C1438 1.368 . S
C1444 C1443 1.523 . S
C1445 C1429 1.429 . S
C1445 C1441 1.429 . S
C1445 C1446 1.523 . S
C1446 C1430 1.368 . S
C1446 C1442 1.368 . S
C1446 C1445 1.523 . S
H1447 C1422 0.950 1_455 S
H1448 C1424 0.950 . S
H1449 C1425 0.949 . S
H1450 C1427 0.950 . S
H1451 C1429 0.950 . S
C1452 C1453 1.349 . S
C1452 C1454 1.327 . S
C1452 H1477 0.950 . S
C1453 C1452 1.349 . S
C1453 C1469 1.349 . S
C1454 C1452 1.327 . S
C1454 C1473 1.429 . S
C1454 H1478 0.950 . S
C1455 C1472 1.574 . S
C1455 C1474 1.368 . S
C1455 H1479 0.949 . S
H1456 C1460 0.949 . S
C1457 C1458 1.349 . S
C1457 C1459 1.327 . S
C1457 H1480 0.950 . S
C1458 C1457 1.349 . S
C1458 C1470 1.349 . S
C1459 C1457 1.327 . S
C1459 C1475 1.429 . S
C1459 H1481 0.950 . S
C1460 H1456 0.949 . S
C1460 C1468 1.574 . S
C1460 C1476 1.368 . S
H1461 C1469 0.950 . S
H1462 C1467 0.950 . S
H1463 C1468 0.949 . S
H1464 C1470 0.950 . S
H1465 C1471 0.950 . S
H1466 C1472 0.949 . S
C1467 H1462 0.950 . S
C1467 C1469 1.327 . S
C1467 C1473 1.429 . S
C1468 C1460 1.574 . S
C1468 H1463 0.949 . S
C1468 C1474 1.368 . S
C1469 C1453 1.349 . S
C1469 H1461 0.950 . S
C1469 C1467 1.327 . S
C1470 C1458 1.349 . S
C1470 H1464 0.950 . S
C1470 C1471 1.327 . S
C1471 H1465 0.950 . S
C1471 C1470 1.327 . S
C1471 C1475 1.429 . S
C1472 C1455 1.574 . S
C1472 H1466 0.949 . S
C1472 C1476 1.368 . S
C1473 C1454 1.429 . S
C1473 C1467 1.429 . S
C1473 C1474 1.523 . S
C1474 C1455 1.368 . S
C1474 C1468 1.368 . S
C1474 C1473 1.523 . S
C1475 C1459 1.429 . S
C1475 C1471 1.429 . S
C1475 C1476 1.523 . S
C1476 C1460 1.368 . S
C1476 C1472 1.368 . S
C1476 C1475 1.523 . S
H1477 C1452 0.950 . S
H1478 C1454 0.950 . S
H1479 C1455 0.949 . S
H1480 C1457 0.950 . S
H1481 C1459 0.950 . S
C1482 C1483 1.349 . S
C1482 C1484 1.327 . S
C1482 H1507 0.950 . S
C1483 C1482 1.349 . S
C1483 C1499 1.349 . S
C1484 C1482 1.327 . S
C1484 C1503 1.429 . S
C1484 H1508 0.950 . S
C1485 C1502 1.574 1_556 S
C1485 C1504 1.368 . S
C1485 H1509 0.949 . S
H1486 C1490 0.949 . S
C1487 C1488 1.349 . S
C1487 C1489 1.327 . S
C1487 H1510 0.950 . S
C1488 C1487 1.349 . S
C1488 C1500 1.349 . S
C1489 C1487 1.327 . S
C1489 C1505 1.429 . S
C1489 H1511 0.950 . S
C1490 H1486 0.949 . S
C1490 C1498 1.574 1_554 S
C1490 C1506 1.368 . S
H1491 C1499 0.950 . S
H1492 C1497 0.950 . S
H1493 C1498 0.949 . S
H1494 C1500 0.950 . S
H1495 C1501 0.950 . S
H1496 C1502 0.949 . S
C1497 H1492 0.950 . S
C1497 C1499 1.327 . S
C1497 C1503 1.429 . S
C1498 C1490 1.574 1_556 S
C1498 H1493 0.949 . S
C1498 C1504 1.368 . S
C1499 C1483 1.349 . S
C1499 H1491 0.950 . S
C1499 C1497 1.327 . S
C1500 C1488 1.349 . S
C1500 H1494 0.950 . S
C1500 C1501 1.327 . S
C1501 H1495 0.950 . S
C1501 C1500 1.327 . S
C1501 C1505 1.429 . S
C1502 C1485 1.574 1_554 S
C1502 H1496 0.949 . S
C1502 C1506 1.368 . S
C1503 C1484 1.429 . S
C1503 C1497 1.429 . S
C1503 C1504 1.523 . S
C1504 C1485 1.368 . S
C1504 C1498 1.368 . S
C1504 C1503 1.523 . S
C1505 C1489 1.429 . S
C1505 C1501 1.429 . S
C1505 C1506 1.523 . S
C1506 C1490 1.368 . S
C1506 C1502 1.368 . S
C1506 C1505 1.523 . S
H1507 C1482 0.950 . S
H1508 C1484 0.950 . S
H1509 C1485 0.949 . S
H1510 C1487 0.950 . S
H1511 C1489 0.950 . S
C1512 C1513 1.349 . S
C1512 C1514 1.327 . S
C1512 H1537 0.950 . S
C1513 C1512 1.349 . S
C1513 C1529 1.349 . S
C1514 C1512 1.327 . S
C1514 C1533 1.429 . S
C1514 H1538 0.950 . S
C1515 C1532 1.574 . S
C1515 C1534 1.368 . S
C1515 H1539 0.949 . S
H1516 C1520 0.949 . S
C1517 C1518 1.349 . S
C1517 C1519 1.327 . S
C1517 H1540 0.950 . S
C1518 C1517 1.349 . S
C1518 C1530 1.349 . S
C1519 C1517 1.327 . S
C1519 C1535 1.429 . S
C1519 H1541 0.950 . S
C1520 H1516 0.949 . S
C1520 C1528 1.574 . S
C1520 C1536 1.368 . S
H1521 C1529 0.950 . S
H1522 C1527 0.950 . S
H1523 C1528 0.949 . S
H1524 C1530 0.950 . S
H1525 C1531 0.950 . S
H1526 C1532 0.949 . S
C1527 H1522 0.950 . S
C1527 C1529 1.327 . S
C1527 C1533 1.429 . S
C1528 C1520 1.574 . S
C1528 H1523 0.949 . S
C1528 C1534 1.368 . S
C1529 C1513 1.349 . S
C1529 H1521 0.950 . S
C1529 C1527 1.327 . S
C1530 C1518 1.349 . S
C1530 H1524 0.950 . S
C1530 C1531 1.327 . S
C1531 H1525 0.950 . S
C1531 C1530 1.327 . S
C1531 C1535 1.429 . S
C1532 C1515 1.574 . S
C1532 H1526 0.949 . S
C1532 C1536 1.368 . S
C1533 C1514 1.429 . S
C1533 C1527 1.429 . S
C1533 C1534 1.523 . S
C1534 C1515 1.368 . S
C1534 C1528 1.368 . S
C1534 C1533 1.523 . S
C1535 C1519 1.429 . S
C1535 C1531 1.429 . S
C1535 C1536 1.523 . S
C1536 C1520 1.368 . S
C1536 C1532 1.368 . S
C1536 C1535 1.523 . S
H1537 C1512 0.950 . S
H1538 C1514 0.950 . S
H1539 C1515 0.949 . S
H1540 C1517 0.950 . S
H1541 C1519 0.950 . S
C1542 C1543 1.349 . S
C1542 C1544 1.327 . S
C1542 H1567 0.950 . S
C1543 C1542 1.349 . S
C1543 C1559 1.349 . S
C1544 C1542 1.327 . S
C1544 C1563 1.429 . S
C1544 H1568 0.950 . S
C1545 C1562 1.574 . S
C1545 C1564 1.368 . S
C1545 H1569 0.949 . S
H1546 C1550 0.949 . S
C1547 C1548 1.349 . S
C1547 C1549 1.327 . S
C1547 H1570 0.950 . S
C1548 C1547 1.349 . S
C1548 C1560 1.349 . S
C1549 C1547 1.327 . S
C1549 C1565 1.429 . S
C1549 H1571 0.950 . S
C1550 H1546 0.949 . S
C1550 C1558 1.574 . S
C1550 C1566 1.368 . S
H1551 C1559 0.950 . S
H1552 C1557 0.950 . S
H1553 C1558 0.949 . S
H1554 C1560 0.950 . S
H1555 C1561 0.950 . S
H1556 C1562 0.949 . S
C1557 H1552 0.950 . S
C1557 C1559 1.327 . S
C1557 C1563 1.429 . S
C1558 C1550 1.574 . S
C1558 H1553 0.949 . S
C1558 C1564 1.368 . S
C1559 C1543 1.349 . S
C1559 H1551 0.950 . S
C1559 C1557 1.327 . S
C1560 C1548 1.349 . S
C1560 H1554 0.950 . S
C1560 C1561 1.327 . S
C1561 H1555 0.950 . S
C1561 C1560 1.327 . S
C1561 C1565 1.429 . S
C1562 C1545 1.574 . S
C1562 H1556 0.949 . S
C1562 C1566 1.368 . S
C1563 C1544 1.429 . S
C1563 C1557 1.429 . S
C1563 C1564 1.523 . S
C1564 C1545 1.368 . S
C1564 C1558 1.368 . S
C1564 C1563 1.523 . S
C1565 C1549 1.429 . S
C1565 C1561 1.429 . S
C1565 C1566 1.523 . S
C1566 C1550 1.368 . S
C1566 C1562 1.368 . S
C1566 C1565 1.523 . S
H1567 C1542 0.950 . S
H1568 C1544 0.950 . S
H1569 C1545 0.949 . S
H1570 C1547 0.950 . S
H1571 C1549 0.950 . S
C1572 C1573 1.349 . S
C1572 C1574 1.327 . S
C1572 H1597 0.950 . S
C1573 C1572 1.349 . S
C1573 C1589 1.349 . S
C1574 C1572 1.327 . S
C1574 C1593 1.429 . S
C1574 H1598 0.950 . S
C1575 C1592 1.574 . S
C1575 C1594 1.368 . S
C1575 H1599 0.949 . S
H1576 C1580 0.949 . S
C1577 C1578 1.349 . S
C1577 C1579 1.327 . S
C1577 H1600 0.950 . S
C1578 C1577 1.349 . S
C1578 C1590 1.349 . S
C1579 C1577 1.327 . S
C1579 C1595 1.429 . S
C1579 H1601 0.950 . S
C1580 H1576 0.949 . S
C1580 C1588 1.574 . S
C1580 C1596 1.368 . S
H1581 C1589 0.950 . S
H1582 C1587 0.950 . S
H1583 C1588 0.949 . S
H1584 C1590 0.950 . S
H1585 C1591 0.950 . S
H1586 C1592 0.949 . S
C1587 H1582 0.950 . S
C1587 C1589 1.327 . S
C1587 C1593 1.429 . S
C1588 C1580 1.574 . S
C1588 H1583 0.949 . S
C1588 C1594 1.368 . S
C1589 C1573 1.349 . S
C1589 H1581 0.950 . S
C1589 C1587 1.327 . S
C1590 C1578 1.349 . S
C1590 H1584 0.950 . S
C1590 C1591 1.327 . S
C1591 H1585 0.950 . S
C1591 C1590 1.327 . S
C1591 C1595 1.429 . S
C1592 C1575 1.574 . S
C1592 H1586 0.949 . S
C1592 C1596 1.368 . S
C1593 C1574 1.429 . S
C1593 C1587 1.429 . S
C1593 C1594 1.523 . S
C1594 C1575 1.368 . S
C1594 C1588 1.368 . S
C1594 C1593 1.523 . S
C1595 C1579 1.429 . S
C1595 C1591 1.429 . S
C1595 C1596 1.523 . S
C1596 C1580 1.368 . S
C1596 C1592 1.368 . S
C1596 C1595 1.523 . S
H1597 C1572 0.950 . S
H1598 C1574 0.950 . S
H1599 C1575 0.949 . S
H1600 C1577 0.950 . S
H1601 C1579 0.950 . S
C1602 C1603 1.349 . S
C1602 C1604 1.327 . S
C1602 H1627 0.950 . S
C1603 C1602 1.349 . S
C1603 C1619 1.349 . S
C1604 C1602 1.327 . S
C1604 C1623 1.429 . S
C1604 H1628 0.950 . S
C1605 C1622 1.574 1_554 S
C1605 C1624 1.368 . S
C1605 H1629 0.949 . S
H1606 C1610 0.949 . S
C1607 C1608 1.349 . S
C1607 C1609 1.327 . S
C1607 H1630 0.950 . S
C1608 C1607 1.349 . S
C1608 C1620 1.349 . S
C1609 C1607 1.327 . S
C1609 C1625 1.429 . S
C1609 H1631 0.950 . S
C1610 H1606 0.949 . S
C1610 C1618 1.574 . S
C1610 C1626 1.368 1_554 S
H1611 C1619 0.950 . S
H1612 C1617 0.950 . S
H1613 C1618 0.949 . S
H1614 C1620 0.950 . S
H1615 C1621 0.950 . S
H1616 C1622 0.949 . S
C1617 H1612 0.950 . S
C1617 C1619 1.327 . S
C1617 C1623 1.429 . S
C1618 C1610 1.574 . S
C1618 H1613 0.949 . S
C1618 C1624 1.368 . S
C1619 C1603 1.349 . S
C1619 H1611 0.950 . S
C1619 C1617 1.327 . S
C1620 C1608 1.349 . S
C1620 H1614 0.950 . S
C1620 C1621 1.327 . S
C1621 H1615 0.950 . S
C1621 C1620 1.327 . S
C1621 C1625 1.429 . S
C1622 C1605 1.574 1_556 S
C1622 H1616 0.949 . S
C1622 C1626 1.368 . S
C1623 C1604 1.429 . S
C1623 C1617 1.429 . S
C1623 C1624 1.523 . S
C1624 C1605 1.368 . S
C1624 C1618 1.368 . S
C1624 C1623 1.523 . S
C1625 C1609 1.429 . S
C1625 C1621 1.429 . S
C1625 C1626 1.523 . S
C1626 C1610 1.368 1_556 S
C1626 C1622 1.368 . S
C1626 C1625 1.523 . S
H1627 C1602 0.950 . S
H1628 C1604 0.950 . S
H1629 C1605 0.949 . S
H1630 C1607 0.950 . S
H1631 C1609 0.950 . S
C1632 C1633 1.349 . S
C1632 C1634 1.327 1_545 S
C1632 H1657 0.950 . S
C1633 C1632 1.349 . S
C1633 C1649 1.349 . S
C1634 C1632 1.327 1_565 S
C1634 C1653 1.429 . S
C1634 H1658 0.950 . S
C1635 C1652 1.574 . S
C1635 C1654 1.368 . S
C1635 H1659 0.949 . S
H1636 C1640 0.949 . S
C1637 C1638 1.349 . S
C1637 C1639 1.327 . S
C1637 H1660 0.950 . S
C1638 C1637 1.349 . S
C1638 C1650 1.349 . S
C1639 C1637 1.327 . S
C1639 C1655 1.429 . S
C1639 H1661 0.950 . S
C1640 H1636 0.949 . S
C1640 C1648 1.574 . S
C1640 C1656 1.368 . S
H1641 C1649 0.950 . S
H1642 C1647 0.950 . S
H1643 C1648 0.949 . S
H1644 C1650 0.950 . S
H1645 C1651 0.950 . S
H1646 C1652 0.949 . S
C1647 H1642 0.950 . S
C1647 C1649 1.327 . S
C1647 C1653 1.429 1_545 S
C1648 C1640 1.574 . S
C1648 H1643 0.949 . S
C1648 C1654 1.368 . S
C1649 C1633 1.349 . S
C1649 H1641 0.950 . S
C1649 C1647 1.327 . S
C1650 C1638 1.349 . S
C1650 H1644 0.950 . S
C1650 C1651 1.327 . S
C1651 H1645 0.950 . S
C1651 C1650 1.327 . S
C1651 C1655 1.429 . S
C1652 C1635 1.574 . S
C1652 H1646 0.949 . S
C1652 C1656 1.368 . S
C1653 C1634 1.429 . S
C1653 C1647 1.429 1_565 S
C1653 C1654 1.523 . S
C1654 C1635 1.368 . S
C1654 C1648 1.368 . S
C1654 C1653 1.523 . S
C1655 C1639 1.429 . S
C1655 C1651 1.429 . S
C1655 C1656 1.523 . S
C1656 C1640 1.368 . S
C1656 C1652 1.368 . S
C1656 C1655 1.523 . S
H1657 C1632 0.950 . S
H1658 C1634 0.950 . S
H1659 C1635 0.949 . S
H1660 C1637 0.950 . S
H1661 C1639 0.950 . S
C1662 C1663 1.349 . S
C1662 C1664 1.327 . S
C1662 H1687 0.950 . S
C1663 C1662 1.349 . S
C1663 C1679 1.349 . S
C1664 C1662 1.327 . S
C1664 C1683 1.429 1_565 S
C1664 H1688 0.950 . S
C1665 C1682 1.574 . S
C1665 C1684 1.368 . S
C1665 H1689 0.949 . S
H1666 C1670 0.949 . S
C1667 C1668 1.349 . S
C1667 C1669 1.327 . S
C1667 H1690 0.950 . S
C1668 C1667 1.349 . S
C1668 C1680 1.349 . S
C1669 C1667 1.327 . S
C1669 C1685 1.429 . S
C1669 H1691 0.950 . S
C1670 H1666 0.949 . S
C1670 C1678 1.574 . S
C1670 C1686 1.368 . S
H1671 C1679 0.950 . S
H1672 C1677 0.950 . S
H1673 C1678 0.949 . S
H1674 C1680 0.950 . S
H1675 C1681 0.950 . S
H1676 C1682 0.949 . S
C1677 H1672 0.950 . S
C1677 C1679 1.327 1_545 S
C1677 C1683 1.429 . S
C1678 C1670 1.574 . S
C1678 H1673 0.949 . S
C1678 C1684 1.368 . S
C1679 C1663 1.349 . S
C1679 H1671 0.950 . S
C1679 C1677 1.327 1_565 S
C1680 C1668 1.349 . S
C1680 H1674 0.950 . S
C1680 C1681 1.327 . S
C1681 H1675 0.950 . S
C1681 C1680 1.327 . S
C1681 C1685 1.429 . S
C1682 C1665 1.574 . S
C1682 H1676 0.949 . S
C1682 C1686 1.368 . S
C1683 C1664 1.429 1_545 S
C1683 C1677 1.429 . S
C1683 C1684 1.523 . S
C1684 C1665 1.368 . S
C1684 C1678 1.368 . S
C1684 C1683 1.523 . S
C1685 C1669 1.429 . S
C1685 C1681 1.429 . S
C1685 C1686 1.523 . S
C1686 C1670 1.368 . S
C1686 C1682 1.368 . S
C1686 C1685 1.523 . S
H1687 C1662 0.950 . S
H1688 C1664 0.950 . S
H1689 C1665 0.949 . S
H1690 C1667 0.950 . S
H1691 C1669 0.950 . S
C1692 C1693 1.349 . S
C1692 C1694 1.327 . S
C1692 H1717 0.950 . S
C1693 C1692 1.349 . S
C1693 C1709 1.349 . S
C1694 C1692 1.327 . S
C1694 C1713 1.429 . S
C1694 H1718 0.950 . S
C1695 C1712 1.574 . S
C1695 C1714 1.368 . S
C1695 H1719 0.949 . S
H1696 C1700 0.949 . S
C1697 C1698 1.349 . S
C1697 C1699 1.327 . S
C1697 H1720 0.950 . S
C1698 C1697 1.349 . S
C1698 C1710 1.349 . S
C1699 C1697 1.327 . S
C1699 C1715 1.429 . S
C1699 H1721 0.950 . S
C1700 H1696 0.949 . S
C1700 C1708 1.574 . S
C1700 C1716 1.368 . S
H1701 C1709 0.950 . S
H1702 C1707 0.950 . S
H1703 C1708 0.949 . S
H1704 C1710 0.950 . S
H1705 C1711 0.950 . S
H1706 C1712 0.949 . S
C1707 H1702 0.950 . S
C1707 C1709 1.327 . S
C1707 C1713 1.429 . S
C1708 C1700 1.574 . S
C1708 H1703 0.949 . S
C1708 C1714 1.368 . S
C1709 C1693 1.349 . S
C1709 H1701 0.950 . S
C1709 C1707 1.327 . S
C1710 C1698 1.349 . S
C1710 H1704 0.950 . S
C1710 C1711 1.327 . S
C1711 H1705 0.950 . S
C1711 C1710 1.327 . S
C1711 C1715 1.429 . S
C1712 C1695 1.574 . S
C1712 H1706 0.949 . S
C1712 C1716 1.368 . S
C1713 C1694 1.429 . S
C1713 C1707 1.429 . S
C1713 C1714 1.523 . S
C1714 C1695 1.368 . S
C1714 C1708 1.368 . S
C1714 C1713 1.523 . S
C1715 C1699 1.429 . S
C1715 C1711 1.429 . S
C1715 C1716 1.523 . S
C1716 C1700 1.368 . S
C1716 C1712 1.368 . S
C1716 C1715 1.523 . S
H1717 C1692 0.950 . S
H1718 C1694 0.950 . S
H1719 C1695 0.949 . S
H1720 C1697 0.950 . S
H1721 C1699 0.950 . S
C1722 C1723 1.349 . S
C1722 C1724 1.327 . S
C1722 H1747 0.950 . S
C1723 C1722 1.349 . S
C1723 C1739 1.349 . S
C1724 C1722 1.327 . S
C1724 C1743 1.429 . S
C1724 H1748 0.950 . S
C1725 C1742 1.574 . S
C1725 C1744 1.368 . S
C1725 H1749 0.949 . S
H1726 C1730 0.949 . S
C1727 C1728 1.349 . S
C1727 C1729 1.327 . S
C1727 H1750 0.950 . S
C1728 C1727 1.349 . S
C1728 C1740 1.349 . S
C1729 C1727 1.327 . S
C1729 C1745 1.429 . S
C1729 H1751 0.950 1_565 S
C1730 H1726 0.949 . S
C1730 C1738 1.574 . S
C1730 C1746 1.368 . S
H1731 C1739 0.950 . S
H1732 C1737 0.950 . S
H1733 C1738 0.949 . S
H1734 C1740 0.950 . S
H1735 C1741 0.950 . S
H1736 C1742 0.949 . S
C1737 H1732 0.950 . S
C1737 C1739 1.327 . S
C1737 C1743 1.429 . S
C1738 C1730 1.574 . S
C1738 H1733 0.949 . S
C1738 C1744 1.368 . S
C1739 C1723 1.349 . S
C1739 H1731 0.950 . S
C1739 C1737 1.327 . S
C1740 C1728 1.349 . S
C1740 H1734 0.950 . S
C1740 C1741 1.327 . S
C1741 H1735 0.950 . S
C1741 C1740 1.327 . S
C1741 C1745 1.429 . S
C1742 C1725 1.574 . S
C1742 H1736 0.949 . S
C1742 C1746 1.368 . S
C1743 C1724 1.429 . S
C1743 C1737 1.429 . S
C1743 C1744 1.523 . S
C1744 C1725 1.368 . S
C1744 C1738 1.368 . S
C1744 C1743 1.523 . S
C1745 C1729 1.429 . S
C1745 C1741 1.429 . S
C1745 C1746 1.523 1_565 S
C1746 C1730 1.368 . S
C1746 C1742 1.368 . S
C1746 C1745 1.523 1_545 S
H1747 C1722 0.950 . S
H1748 C1724 0.950 . S
H1749 C1725 0.949 . S
H1750 C1727 0.950 . S
H1751 C1729 0.950 1_545 S
C1752 C1753 1.349 . S
C1752 C1754 1.327 . S
C1752 H1777 0.950 . S
C1753 C1752 1.349 . S
C1753 C1769 1.349 . S
C1754 C1752 1.327 . S
C1754 C1773 1.429 . S
C1754 H1778 0.950 . S
C1755 C1772 1.574 . S
C1755 C1774 1.368 . S
C1755 H1779 0.949 . S
H1756 C1760 0.949 . S
C1757 C1758 1.349 . S
C1757 C1759 1.327 . S
C1757 H1780 0.950 . S
C1758 C1757 1.349 . S
C1758 C1770 1.349 . S
C1759 C1757 1.327 . S
C1759 C1775 1.429 . S
C1759 H1781 0.950 . S
C1760 H1756 0.949 . S
C1760 C1768 1.574 . S
C1760 C1776 1.368 . S
H1761 C1769 0.950 . S
H1762 C1767 0.950 . S
H1763 C1768 0.949 . S
H1764 C1770 0.950 . S
H1765 C1771 0.950 . S
H1766 C1772 0.949 . S
C1767 H1762 0.950 . S
C1767 C1769 1.327 . S
C1767 C1773 1.429 . S
C1768 C1760 1.574 . S
C1768 H1763 0.949 . S
C1768 C1774 1.368 . S
C1769 C1753 1.349 . S
C1769 H1761 0.950 . S
C1769 C1767 1.327 . S
C1770 C1758 1.349 . S
C1770 H1764 0.950 . S
C1770 C1771 1.327 . S
C1771 H1765 0.950 . S
C1771 C1770 1.327 . S
C1771 C1775 1.429 . S
C1772 C1755 1.574 . S
C1772 H1766 0.949 . S
C1772 C1776 1.368 . S
C1773 C1754 1.429 . S
C1773 C1767 1.429 . S
C1773 C1774 1.523 . S
C1774 C1755 1.368 . S
C1774 C1768 1.368 . S
C1774 C1773 1.523 . S
C1775 C1759 1.429 . S
C1775 C1771 1.429 . S
C1775 C1776 1.523 . S
C1776 C1760 1.368 . S
C1776 C1772 1.368 . S
C1776 C1775 1.523 . S
H1777 C1752 0.950 . S
H1778 C1754 0.950 . S
H1779 C1755 0.949 . S
H1780 C1757 0.950 . S
H1781 C1759 0.950 . S
C1782 C1783 1.349 . S
C1782 C1784 1.327 . S
C1782 H1807 0.950 . S
C1783 C1782 1.349 . S
C1783 C1799 1.349 . S
C1784 C1782 1.327 . S
C1784 C1803 1.429 . S
C1784 H1808 0.950 1_565 S
C1785 C1802 1.574 . S
C1785 C1804 1.368 . S
C1785 H1809 0.949 1_545 S
H1786 C1790 0.949 . S
C1787 C1788 1.349 . S
C1787 C1789 1.327 . S
C1787 H1810 0.950 . S
C1788 C1787 1.349 . S
C1788 C1800 1.349 . S
C1789 C1787 1.327 . S
C1789 C1805 1.429 . S
C1789 H1811 0.950 . S
C1790 H1786 0.949 . S
C1790 C1798 1.574 . S
C1790 C1806 1.368 . S
H1791 C1799 0.950 . S
H1792 C1797 0.950 . S
H1793 C1798 0.949 . S
H1794 C1800 0.950 . S
H1795 C1801 0.950 . S
H1796 C1802 0.949 . S
C1797 H1792 0.950 . S
C1797 C1799 1.327 . S
C1797 C1803 1.429 . S
C1798 C1790 1.574 . S
C1798 H1793 0.949 . S
C1798 C1804 1.368 . S
C1799 C1783 1.349 . S
C1799 H1791 0.950 . S
C1799 C1797 1.327 . S
C1800 C1788 1.349 . S
C1800 H1794 0.950 . S
C1800 C1801 1.327 . S
C1801 H1795 0.950 . S
C1801 C1800 1.327 . S
C1801 C1805 1.429 . S
C1802 C1785 1.574 . S
C1802 H1796 0.949 . S
C1802 C1806 1.368 . S
C1803 C1784 1.429 . S
C1803 C1797 1.429 . S
C1803 C1804 1.523 1_565 S
C1804 C1785 1.368 . S
C1804 C1798 1.368 . S
C1804 C1803 1.523 1_545 S
C1805 C1789 1.429 . S
C1805 C1801 1.429 . S
C1805 C1806 1.523 . S
C1806 C1790 1.368 . S
C1806 C1802 1.368 . S
C1806 C1805 1.523 . S
H1807 C1782 0.950 . S
H1808 C1784 0.950 1_545 S
H1809 C1785 0.949 1_565 S
H1810 C1787 0.950 . S
H1811 C1789 0.950 . S
C1812 C1813 1.349 . S
C1812 C1814 1.327 . S
C1812 H1837 0.950 . S
C1813 C1812 1.349 . S
C1813 C1829 1.349 . S
C1814 C1812 1.327 . S
C1814 C1833 1.429 . S
C1814 H1838 0.950 . S
C1815 C1832 1.574 . S
C1815 C1834 1.368 . S
C1815 H1839 0.949 . S
H1816 C1820 0.949 . S
C1817 C1818 1.349 . S
C1817 C1819 1.327 . S
C1817 H1840 0.950 . S
C1818 C1817 1.349 . S
C1818 C1830 1.349 . S
C1819 C1817 1.327 . S
C1819 C1835 1.429 . S
C1819 H1841 0.950 . S
C1820 H1816 0.949 . S
C1820 C1828 1.574 . S
C1820 C1836 1.368 . S
H1821 C1829 0.950 . S
H1822 C1827 0.950 . S
H1823 C1828 0.949 . S
H1824 C1830 0.950 . S
H1825 C1831 0.950 . S
H1826 C1832 0.949 . S
C1827 H1822 0.950 . S
C1827 C1829 1.327 . S
C1827 C1833 1.429 . S
C1828 C1820 1.574 . S
C1828 H1823 0.949 . S
C1828 C1834 1.368 . S
C1829 C1813 1.349 . S
C1829 H1821 0.950 . S
C1829 C1827 1.327 . S
C1830 C1818 1.349 . S
C1830 H1824 0.950 . S
C1830 C1831 1.327 . S
C1831 H1825 0.950 . S
C1831 C1830 1.327 . S
C1831 C1835 1.429 . S
C1832 C1815 1.574 . S
C1832 H1826 0.949 . S
C1832 C1836 1.368 . S
C1833 C1814 1.429 . S
C1833 C1827 1.429 . S
C1833 C1834 1.523 . S
C1834 C1815 1.368 . S
C1834 C1828 1.368 . S
C1834 C1833 1.523 . S
C1835 C1819 1.429 . S
C1835 C1831 1.429 . S
C1835 C1836 1.523 . S
C1836 C1820 1.368 . S
C1836 C1832 1.368 . S
C1836 C1835 1.523 . S
H1837 C1812 0.950 . S
H1838 C1814 0.950 . S
H1839 C1815 0.949 . S
H1840 C1817 0.950 . S
H1841 C1819 0.950 . S
C1842 C1843 1.349 . S
C1842 C1844 1.327 . S
C1842 H1867 0.950 . S
C1843 C1842 1.349 . S
C1843 C1859 1.349 . S
C1844 C1842 1.327 . S
C1844 C1863 1.429 . S
C1844 H1868 0.950 . S
C1845 C1862 1.574 . S
C1845 C1864 1.368 . S
C1845 H1869 0.949 . S
H1846 C1850 0.949 . S
C1847 C1848 1.349 . S
C1847 C1849 1.327 . S
C1847 H1870 0.950 . S
C1848 C1847 1.349 . S
C1848 C1860 1.349 . S
C1849 C1847 1.327 . S
C1849 C1865 1.429 1_565 S
C1849 H1871 0.950 . S
C1850 H1846 0.949 . S
C1850 C1858 1.574 . S
C1850 C1866 1.368 . S
H1851 C1859 0.982 . S
H1852 C1857 0.950 . S
H1853 C1858 0.949 . S
H1854 C1860 0.950 . S
H1855 C1861 0.950 . S
H1856 C1862 0.949 . S
C1857 H1852 0.950 . S
C1857 C1859 1.327 . S
C1857 C1863 1.429 . S
C1858 C1850 1.574 . S
C1858 H1853 0.949 . S
C1858 C1864 1.368 . S
C1859 C1843 1.349 . S
C1859 H1851 0.982 . S
C1859 C1857 1.327 . S
C1860 C1848 1.349 . S
C1860 H1854 0.950 . S
C1860 C1861 1.327 1_565 S
C1861 H1855 0.950 . S
C1861 C1860 1.327 1_545 S
C1861 C1865 1.429 . S
C1862 C1845 1.574 . S
C1862 H1856 0.949 . S
C1862 C1866 1.368 . S
C1863 C1844 1.429 . S
C1863 C1857 1.429 . S
C1863 C1864 1.523 . S
C1864 C1845 1.368 . S
C1864 C1858 1.368 . S
C1864 C1863 1.523 . S
C1865 C1849 1.429 1_545 S
C1865 C1861 1.429 . S
C1865 C1866 1.523 . S
C1866 C1850 1.368 . S
C1866 C1862 1.368 . S
C1866 C1865 1.523 . S
H1867 C1842 0.950 . S
H1868 C1844 0.950 . S
H1869 C1845 0.949 . S
H1870 C1847 0.950 . S
H1871 C1849 0.950 . S
C1872 C1873 1.349 . S
C1872 C1874 1.327 . S
C1872 H1897 0.950 . S
C1873 C1872 1.349 . S
C1873 C1889 1.349 . S
C1874 C1872 1.327 . S
C1874 C1893 1.429 . S
C1874 H1898 0.950 . S
C1875 C1892 1.574 . S
C1875 C1894 1.368 . S
C1875 H1899 0.949 . S
H1876 C1880 0.949 . S
C1877 C1878 1.349 . S
C1877 C1879 1.327 . S
C1877 H1900 0.950 . S
C1878 C1877 1.349 . S
C1878 C1890 1.349 . S
C1879 C1877 1.327 . S
C1879 C1895 1.429 . S
C1879 H1901 0.950 . S
C1880 H1876 0.949 . S
C1880 C1888 1.574 . S
C1880 C1896 1.368 . S
H1881 C1889 0.950 . S
H1882 C1887 0.950 . S
H1883 C1888 0.949 . S
H1884 C1890 0.950 . S
H1885 C1891 0.950 . S
H1886 C1892 0.949 . S
C1887 H1882 0.950 . S
C1887 C1889 1.327 . S
C1887 C1893 1.429 . S
C1888 C1880 1.574 . S
C1888 H1883 0.949 . S
C1888 C1894 1.368 . S
C1889 C1873 1.349 . S
C1889 H1881 0.950 . S
C1889 C1887 1.327 . S
C1890 C1878 1.349 . S
C1890 H1884 0.950 . S
C1890 C1891 1.327 . S
C1891 H1885 0.950 . S
C1891 C1890 1.327 . S
C1891 C1895 1.429 . S
C1892 C1875 1.574 . S
C1892 H1886 0.949 . S
C1892 C1896 1.368 . S
C1893 C1874 1.429 . S
C1893 C1887 1.429 . S
C1893 C1894 1.523 . S
C1894 C1875 1.368 . S
C1894 C1888 1.368 . S
C1894 C1893 1.523 . S
C1895 C1879 1.429 . S
C1895 C1891 1.429 . S
C1895 C1896 1.523 . S
C1896 C1880 1.368 . S
C1896 C1892 1.368 . S
C1896 C1895 1.523 . S
H1897 C1872 0.950 . S
H1898 C1874 0.950 . S
H1899 C1875 0.949 . S
H1900 C1877 0.950 . S
H1901 C1879 0.950 . S
C1902 C1903 1.349 . S
C1902 C1904 1.327 . S
C1902 H1927 0.950 . S
C1903 C1902 1.349 . S
C1903 C1919 1.349 . S
C1904 C1902 1.327 . S
C1904 C1923 1.429 . S
C1904 H1928 0.950 . S
C1905 C1922 1.574 . S
C1905 C1924 1.368 . S
C1905 H1929 0.949 . S
H1906 C1910 0.949 . S
C1907 C1908 1.349 . S
C1907 C1909 1.327 . S
C1907 H1930 0.950 . S
C1908 C1907 1.349 . S
C1908 C1920 1.349 . S
C1909 C1907 1.327 . S
C1909 C1925 1.429 . S
C1909 H1931 0.950 . S
C1910 H1906 0.949 . S
C1910 C1918 1.574 . S
C1910 C1926 1.368 . S
H1911 C1919 0.950 . S
H1912 C1917 0.950 . S
H1913 C1918 0.949 . S
H1914 C1920 0.950 . S
H1915 C1921 0.950 . S
H1916 C1922 0.949 . S
C1917 H1912 0.950 . S
C1917 C1919 1.327 . S
C1917 C1923 1.429 . S
C1918 C1910 1.574 . S
C1918 H1913 0.949 . S
C1918 C1924 1.368 . S
C1919 C1903 1.349 . S
C1919 H1911 0.950 . S
C1919 C1917 1.327 . S
C1920 C1908 1.349 . S
C1920 H1914 0.950 . S
C1920 C1921 1.327 . S
C1921 H1915 0.950 . S
C1921 C1920 1.327 . S
C1921 C1925 1.429 . S
C1922 C1905 1.574 . S
C1922 H1916 0.949 . S
C1922 C1926 1.368 . S
C1923 C1904 1.429 . S
C1923 C1917 1.429 . S
C1923 C1924 1.523 . S
C1924 C1905 1.368 . S
C1924 C1918 1.368 . S
C1924 C1923 1.523 . S
C1925 C1909 1.429 . S
C1925 C1921 1.429 . S
C1925 C1926 1.523 . S
C1926 C1910 1.368 . S
C1926 C1922 1.368 . S
C1926 C1925 1.523 . S
H1927 C1902 0.950 . S
H1928 C1904 0.950 . S
H1929 C1905 0.949 . S
H1930 C1907 0.950 . S
H1931 C1909 0.950 . S
C1932 C1933 1.349 . S
C1932 C1934 1.327 . S
C1932 H1957 0.950 . S
C1933 C1932 1.349 . S
C1933 C1949 1.349 . S
C1934 C1932 1.327 . S
C1934 C1953 1.429 . S
C1934 H1958 0.950 . S
C1935 C1952 1.574 1_655 S
C1935 C1954 1.368 . S
C1935 H1959 0.949 . S
H1936 C1940 0.951 . S
C1937 C1938 1.349 . S
C1937 C1939 1.327 . S
C1937 H1960 0.950 . S
C1938 C1937 1.349 . S
C1938 C1950 1.349 . S
C1939 C1937 1.327 . S
C1939 C1955 1.429 . S
C1939 H1961 0.950 . S
C1940 H1936 0.951 . S
C1940 C1948 1.574 . S
C1940 C1956 1.368 1_655 S
H1941 C1949 0.950 . S
H1942 C1947 0.950 . S
H1943 C1948 0.949 . S
H1944 C1950 0.950 . S
H1945 C1951 0.950 . S
H1946 C1952 0.949 . S
C1947 H1942 0.950 . S
C1947 C1949 1.327 . S
C1947 C1953 1.429 . S
C1948 C1940 1.574 . S
C1948 H1943 0.949 . S
C1948 C1954 1.368 . S
C1949 C1933 1.349 . S
C1949 H1941 0.950 . S
C1949 C1947 1.327 . S
C1950 C1938 1.349 . S
C1950 H1944 0.950 . S
C1950 C1951 1.327 . S
C1951 H1945 0.950 . S
C1951 C1950 1.327 . S
C1951 C1955 1.429 . S
C1952 C1935 1.574 1_455 S
C1952 H1946 0.949 . S
C1952 C1956 1.368 . S
C1953 C1934 1.429 . S
C1953 C1947 1.429 . S
C1953 C1954 1.523 . S
C1954 C1935 1.368 . S
C1954 C1948 1.368 . S
C1954 C1953 1.523 . S
C1955 C1939 1.429 . S
C1955 C1951 1.429 . S
C1955 C1956 1.523 . S
C1956 C1940 1.368 1_455 S
C1956 C1952 1.368 . S
C1956 C1955 1.523 . S
H1957 C1932 0.950 . S
H1958 C1934 0.950 . S
H1959 C1935 0.949 . S
H1960 C1937 0.950 . S
H1961 C1939 0.950 . S
C1962 C1963 1.349 . S
C1962 C1964 1.327 . S
C1962 H1987 0.950 . S
C1963 C1962 1.349 . S
C1963 C1979 1.349 . S
C1964 C1962 1.327 . S
C1964 C1983 1.429 . S
C1964 H1988 0.950 . S
C1965 C1982 1.574 . S
C1965 C1984 1.368 . S
C1965 H1989 0.949 . S
H1966 C1970 0.949 . S
C1967 C1968 1.349 . S
C1967 C1969 1.327 . S
C1967 H1990 0.950 . S
C1968 C1967 1.349 . S
C1968 C1980 1.349 . S
C1969 C1967 1.327 . S
C1969 C1985 1.429 . S
C1969 H1991 0.950 . S
C1970 H1966 0.949 . S
C1970 C1978 1.574 . S
C1970 C1986 1.368 . S
H1971 C1979 0.950 . S
H1972 C1977 0.950 . S
H1973 C1978 0.949 . S
H1974 C1980 0.950 . S
H1975 C1981 0.950 . S
H1976 C1982 0.949 . S
C1977 H1972 0.950 . S
C1977 C1979 1.327 . S
C1977 C1983 1.429 . S
C1978 C1970 1.574 . S
C1978 H1973 0.949 . S
C1978 C1984 1.368 . S
C1979 C1963 1.349 . S
C1979 H1971 0.950 . S
C1979 C1977 1.327 . S
C1980 C1968 1.349 . S
C1980 H1974 0.950 . S
C1980 C1981 1.327 . S
C1981 H1975 0.950 . S
C1981 C1980 1.327 . S
C1981 C1985 1.429 . S
C1982 C1965 1.574 . S
C1982 H1976 0.949 . S
C1982 C1986 1.368 . S
C1983 C1964 1.429 . S
C1983 C1977 1.429 . S
C1983 C1984 1.523 . S
C1984 C1965 1.368 . S
C1984 C1978 1.368 . S
C1984 C1983 1.523 . S
C1985 C1969 1.429 . S
C1985 C1981 1.429 . S
C1985 C1986 1.523 . S
C1986 C1970 1.368 . S
C1986 C1982 1.368 . S
C1986 C1985 1.523 . S
H1987 C1962 0.950 . S
H1988 C1964 0.950 . S
H1989 C1965 0.949 . S
H1990 C1967 0.950 . S
H1991 C1969 0.950 . S
C1992 C1993 1.349 . S
C1992 C1994 1.327 . S
C1992 H2017 0.950 . S
C1993 C1992 1.349 . S
C1993 C2009 1.349 . S
C1994 C1992 1.327 . S
C1994 C2013 1.429 . S
C1994 H2018 0.950 1_545 S
C1995 C2012 1.574 1_455 S
C1995 C2014 1.368 . S
C1995 H2019 0.949 . S
H1996 C2000 0.949 . S
C1997 C1998 1.349 . S
C1997 C1999 1.327 . S
C1997 H2020 0.950 . S
C1998 C1997 1.349 . S
C1998 C2010 1.349 . S
C1999 C1997 1.327 . S
C1999 C2015 1.429 . S
C1999 H2021 0.950 1_565 S
C2000 H1996 0.949 . S
C2000 C2008 1.574 . S
C2000 C2016 1.368 1_455 S
H2001 C2009 0.950 . S
H2002 C2007 0.950 . S
H2003 C2008 0.949 . S
H2004 C2010 0.950 . S
H2005 C2011 0.950 . S
H2006 C2012 0.949 . S
C2007 H2002 0.950 . S
C2007 C2009 1.327 . S
C2007 C2013 1.429 . S
C2008 C2000 1.574 . S
C2008 H2003 0.949 . S
C2008 C2014 1.368 1_565 S
C2009 C1993 1.349 . S
C2009 H2001 0.950 . S
C2009 C2007 1.327 . S
C2010 C1998 1.349 . S
C2010 H2004 0.950 . S
C2010 C2011 1.327 . S
C2011 H2005 0.950 . S
C2011 C2010 1.327 . S
C2011 C2015 1.429 . S
C2012 C1995 1.574 1_655 S
C2012 H2006 0.949 . S
C2012 C2016 1.368 1_545 S
C2013 C1994 1.429 . S
C2013 C2007 1.429 . S
C2013 C2014 1.523 . S
C2014 C1995 1.368 . S
C2014 C2008 1.368 1_545 S
C2014 C2013 1.523 . S
C2015 C1999 1.429 . S
C2015 C2011 1.429 . S
C2015 C2016 1.523 . S
C2016 C2000 1.368 1_655 S
C2016 C2012 1.368 1_565 S
C2016 C2015 1.523 . S
H2017 C1992 0.950 . S
H2018 C1994 0.950 1_565 S
H2019 C1995 0.949 . S
H2020 C1997 0.950 . S
H2021 C1999 0.950 1_545 S
C2022 C2023 1.349 . S
C2022 C2024 1.327 . S
C2022 H2047 0.950 . S
C2023 C2022 1.349 . S
C2023 C2039 1.349 . S
C2024 C2022 1.327 . S
C2024 C2043 1.429 . S
C2024 H2048 0.950 . S
C2025 C2042 1.574 . S
C2025 C2044 1.368 . S
C2025 H2049 0.949 . S
H2026 C2030 0.949 . S
C2027 C2028 1.349 . S
C2027 C2029 1.327 . S
C2027 H2050 0.950 . S
C2028 C2027 1.349 . S
C2028 C2040 1.349 . S
C2029 C2027 1.327 . S
C2029 C2045 1.429 . S
C2029 H2051 0.950 . S
C2030 H2026 0.949 . S
C2030 C2038 1.574 . S
C2030 C2046 1.368 . S
H2031 C2039 0.950 . S
H2032 C2037 0.950 . S
H2033 C2038 0.949 . S
H2034 C2040 0.950 . S
H2035 C2041 0.950 . S
H2036 C2042 0.949 . S
C2037 H2032 0.950 . S
C2037 C2039 1.327 . S
C2037 C2043 1.429 . S
C2038 C2030 1.574 . S
C2038 H2033 0.949 . S
C2038 C2044 1.368 . S
C2039 C2023 1.349 . S
C2039 H2031 0.950 . S
C2039 C2037 1.327 . S
C2040 C2028 1.349 . S
C2040 H2034 0.950 . S
C2040 C2041 1.327 . S
C2041 H2035 0.950 . S
C2041 C2040 1.327 . S
C2041 C2045 1.429 . S
C2042 C2025 1.574 . S
C2042 H2036 0.949 . S
C2042 C2046 1.368 . S
C2043 C2024 1.429 . S
C2043 C2037 1.429 . S
C2043 C2044 1.523 . S
C2044 C2025 1.368 . S
C2044 C2038 1.368 . S
C2044 C2043 1.523 . S
C2045 C2029 1.429 . S
C2045 C2041 1.429 . S
C2045 C2046 1.523 . S
C2046 C2030 1.368 . S
C2046 C2042 1.368 . S
C2046 C2045 1.523 . S
H2047 C2022 0.950 . S
H2048 C2024 0.950 . S
H2049 C2025 0.949 . S
H2050 C2027 0.950 . S
H2051 C2029 0.950 . S
C2052 C2053 1.349 . S
C2052 C2054 1.327 . S
C2052 H2077 0.950 . S
C2053 C2052 1.349 . S
C2053 C2069 1.349 . S
C2054 C2052 1.327 . S
C2054 C2073 1.429 . S
C2054 H2078 0.950 . S
C2055 C2072 1.574 1_655 S
C2055 C2074 1.368 . S
C2055 H2079 0.949 . S
H2056 C2060 0.949 . S
C2057 C2058 1.349 . S
C2057 C2059 1.327 . S
C2057 H2080 0.950 . S
C2058 C2057 1.349 . S
C2058 C2070 1.349 . S
C2059 C2057 1.327 . S
C2059 C2075 1.429 . S
C2059 H2081 0.950 . S
C2060 H2056 0.949 . S
C2060 C2068 1.574 1_455 S
C2060 C2076 1.368 . S
H2061 C2069 0.950 . S
H2062 C2067 0.950 . S
H2063 C2068 0.949 . S
H2064 C2070 0.950 . S
H2065 C2071 0.950 . S
H2066 C2072 0.949 . S
C2067 H2062 0.950 . S
C2067 C2069 1.327 . S
C2067 C2073 1.429 . S
C2068 C2060 1.574 1_655 S
C2068 H2063 0.949 . S
C2068 C2074 1.368 . S
C2069 C2053 1.349 . S
C2069 H2061 0.950 . S
C2069 C2067 1.327 . S
C2070 C2058 1.349 . S
C2070 H2064 0.950 . S
C2070 C2071 1.327 . S
C2071 H2065 0.950 . S
C2071 C2070 1.327 . S
C2071 C2075 1.429 . S
C2072 C2055 1.574 1_455 S
C2072 H2066 0.949 . S
C2072 C2076 1.368 . S
C2073 C2054 1.429 . S
C2073 C2067 1.429 . S
C2073 C2074 1.523 . S
C2074 C2055 1.368 . S
C2074 C2068 1.368 . S
C2074 C2073 1.523 . S
C2075 C2059 1.429 . S
C2075 C2071 1.429 . S
C2075 C2076 1.523 . S
C2076 C2060 1.368 . S
C2076 C2072 1.368 . S
C2076 C2075 1.523 . S
H2077 C2052 0.950 . S
H2078 C2054 0.950 . S
H2079 C2055 0.949 . S
H2080 C2057 0.950 . S
H2081 C2059 0.950 . S
C2082 C2083 1.349 . S
C2082 C2084 1.327 . S
C2082 H2107 0.950 . S
C2083 C2082 1.349 . S
C2083 C2099 1.349 . S
C2084 C2082 1.327 . S
C2084 C2103 1.429 . S
C2084 H2108 0.950 . S
C2085 C2102 1.574 . S
C2085 C2104 1.368 . S
C2085 H2109 0.949 . S
H2086 C2090 0.949 . S
C2087 C2088 1.349 . S
C2087 C2089 1.327 . S
C2087 H2110 0.950 . S
C2088 C2087 1.349 . S
C2088 C2100 1.349 . S
C2089 C2087 1.327 . S
C2089 C2105 1.429 . S
C2089 H2111 0.950 . S
C2090 H2086 0.949 . S
C2090 C2098 1.574 . S
C2090 C2106 1.368 . S
H2091 C2099 0.950 . S
H2092 C2097 0.950 . S
H2093 C2098 0.949 . S
H2094 C2100 0.950 . S
H2095 C2101 0.950 . S
H2096 C2102 0.949 . S
C2097 H2092 0.950 . S
C2097 C2099 1.327 . S
C2097 C2103 1.429 . S
C2098 C2090 1.574 . S
C2098 H2093 0.949 . S
C2098 C2104 1.368 . S
C2099 C2083 1.349 . S
C2099 H2091 0.950 . S
C2099 C2097 1.327 . S
C2100 C2088 1.349 . S
C2100 H2094 0.950 . S
C2100 C2101 1.327 . S
C2101 H2095 0.950 . S
C2101 C2100 1.327 . S
C2101 C2105 1.429 . S
C2102 C2085 1.574 . S
C2102 H2096 0.949 . S
C2102 C2106 1.368 . S
C2103 C2084 1.429 . S
C2103 C2097 1.429 . S
C2103 C2104 1.523 . S
C2104 C2085 1.368 . S
C2104 C2098 1.368 . S
C2104 C2103 1.523 . S
C2105 C2089 1.429 . S
C2105 C2101 1.429 . S
C2105 C2106 1.523 . S
C2106 C2090 1.368 . S
C2106 C2102 1.368 . S
C2106 C2105 1.523 . S
H2107 C2082 0.950 . S
H2108 C2084 0.950 . S
H2109 C2085 0.949 . S
H2110 C2087 0.950 . S
H2111 C2089 0.950 . S
C2112 C2113 1.349 . S
C2112 C2114 1.327 . S
C2112 H2137 0.950 . S
C2113 C2112 1.349 . S
C2113 C2129 1.349 . S
C2114 C2112 1.327 . S
C2114 C2133 1.429 . S
C2114 H2138 0.950 . S
C2115 C2132 1.574 . S
C2115 C2134 1.368 . S
C2115 H2139 0.949 . S
H2116 C2120 0.949 . S
C2117 C2118 1.349 . S
C2117 C2119 1.327 . S
C2117 H2140 0.950 . S
C2118 C2117 1.349 . S
C2118 C2130 1.349 . S
C2119 C2117 1.327 . S
C2119 C2135 1.429 . S
C2119 H2141 0.950 . S
C2120 H2116 0.949 . S
C2120 C2128 1.574 . S
C2120 C2136 1.368 . S
H2121 C2129 0.950 . S
H2122 C2127 0.950 . S
H2123 C2128 0.949 . S
H2124 C2130 0.950 . S
H2125 C2131 0.950 . S
H2126 C2132 0.949 . S
C2127 H2122 0.950 . S
C2127 C2129 1.327 . S
C2127 C2133 1.429 . S
C2128 C2120 1.574 . S
C2128 H2123 0.949 . S
C2128 C2134 1.368 . S
C2129 C2113 1.349 . S
C2129 H2121 0.950 . S
C2129 C2127 1.327 . S
C2130 C2118 1.349 . S
C2130 H2124 0.950 . S
C2130 C2131 1.327 . S
C2131 H2125 0.950 . S
C2131 C2130 1.327 . S
C2131 C2135 1.429 . S
C2132 C2115 1.574 . S
C2132 H2126 0.949 . S
C2132 C2136 1.368 . S
C2133 C2114 1.429 . S
C2133 C2127 1.429 . S
C2133 C2134 1.523 . S
C2134 C2115 1.368 . S
C2134 C2128 1.368 . S
C2134 C2133 1.523 . S
C2135 C2119 1.429 . S
C2135 C2131 1.429 . S
C2135 C2136 1.523 . S
C2136 C2120 1.368 . S
C2136 C2132 1.368 . S
C2136 C2135 1.523 . S
H2137 C2112 0.950 . S
H2138 C2114 0.950 . S
H2139 C2115 0.949 . S
H2140 C2117 0.950 . S
H2141 C2119 0.950 . S
C2142 C2143 1.349 . S
C2142 C2144 1.327 . S
C2142 H2167 0.950 . S
C2143 C2142 1.349 . S
C2143 C2159 1.349 . S
C2144 C2142 1.327 . S
C2144 C2163 1.429 . S
C2144 H2168 0.950 . S
C2145 C2162 1.574 . S
C2145 C2164 1.368 . S
C2145 H2169 0.949 . S
H2146 C2150 0.949 . S
C2147 C2148 1.349 . S
C2147 C2149 1.327 . S
C2147 H2170 0.950 . S
C2148 C2147 1.349 . S
C2148 C2160 1.349 . S
C2149 C2147 1.327 . S
C2149 C2165 1.429 . S
C2149 H2171 0.950 . S
C2150 H2146 0.949 . S
C2150 C2158 1.574 . S
C2150 C2166 1.368 . S
H2151 C2159 0.950 . S
H2152 C2157 0.950 . S
H2153 C2158 0.949 . S
H2154 C2160 0.950 . S
H2155 C2161 0.950 . S
H2156 C2162 0.949 1_556 S
C2157 H2152 0.950 . S
C2157 C2159 1.327 . S
C2157 C2163 1.429 . S
C2158 C2150 1.574 . S
C2158 H2153 0.949 . S
C2158 C2164 1.368 . S
C2159 C2143 1.349 . S
C2159 H2151 0.950 . S
C2159 C2157 1.327 . S
C2160 C2148 1.349 . S
C2160 H2154 0.950 . S
C2160 C2161 1.327 . S
C2161 H2155 0.950 . S
C2161 C2160 1.327 . S
C2161 C2165 1.429 . S
C2162 C2145 1.574 . S
C2162 H2156 0.949 1_554 S
C2162 C2166 1.368 . S
C2163 C2144 1.429 . S
C2163 C2157 1.429 . S
C2163 C2164 1.523 . S
C2164 C2145 1.368 . S
C2164 C2158 1.368 . S
C2164 C2163 1.523 . S
C2165 C2149 1.429 . S
C2165 C2161 1.429 . S
C2165 C2166 1.523 1_556 S
C2166 C2150 1.368 . S
C2166 C2162 1.368 . S
C2166 C2165 1.523 1_554 S
H2167 C2142 0.950 . S
H2168 C2144 0.950 . S
H2169 C2145 0.949 . S
H2170 C2147 0.950 . S
H2171 C2149 0.950 . S
C2172 C2173 1.349 . S
C2172 C2174 1.327 . S
C2172 H2197 0.950 . S
C2173 C2172 1.349 . S
C2173 C2189 1.349 . S
C2174 C2172 1.327 . S
C2174 C2193 1.429 . S
C2174 H2198 0.950 . S
C2175 C2192 1.574 . S
C2175 C2194 1.368 . S
C2175 H2199 0.949 . S
H2176 C2180 0.949 . S
C2177 C2178 1.349 . S
C2177 C2179 1.327 . S
C2177 H2200 0.950 . S
C2178 C2177 1.349 . S
C2178 C2190 1.349 . S
C2179 C2177 1.327 . S
C2179 C2195 1.429 . S
C2179 H2201 0.950 . S
C2180 H2176 0.949 . S
C2180 C2188 1.574 . S
C2180 C2196 1.368 . S
H2181 C2189 0.950 . S
H2182 C2187 0.950 . S
H2183 C2188 0.949 . S
H2184 C2190 0.950 . S
H2185 C2191 0.950 . S
H2186 C2192 0.949 . S
C2187 H2182 0.950 . S
C2187 C2189 1.327 . S
C2187 C2193 1.429 . S
C2188 C2180 1.574 . S
C2188 H2183 0.949 . S
C2188 C2194 1.368 . S
C2189 C2173 1.349 . S
C2189 H2181 0.950 . S
C2189 C2187 1.327 . S
C2190 C2178 1.349 . S
C2190 H2184 0.950 . S
C2190 C2191 1.327 . S
C2191 H2185 0.950 . S
C2191 C2190 1.327 . S
C2191 C2195 1.429 . S
C2192 C2175 1.574 . S
C2192 H2186 0.949 . S
C2192 C2196 1.368 . S
C2193 C2174 1.429 . S
C2193 C2187 1.429 . S
C2193 C2194 1.523 . S
C2194 C2175 1.368 . S
C2194 C2188 1.368 . S
C2194 C2193 1.523 . S
C2195 C2179 1.429 . S
C2195 C2191 1.429 . S
C2195 C2196 1.523 . S
C2196 C2180 1.368 . S
C2196 C2192 1.368 . S
C2196 C2195 1.523 . S
H2197 C2172 0.950 . S
H2198 C2174 0.950 . S
H2199 C2175 0.949 . S
H2200 C2177 0.950 . S
H2201 C2179 0.950 . S
C2202 C2203 1.349 . S
C2202 C2204 1.327 . S
C2202 H2227 0.950 . S
C2203 C2202 1.349 . S
C2203 C2219 1.349 . S
C2204 C2202 1.327 . S
C2204 C2223 1.429 . S
C2204 H2228 0.950 . S
C2205 C2222 1.574 . S
C2205 C2224 1.368 . S
C2205 H2229 0.949 . S
H2206 C2210 0.949 . S
C2207 C2208 1.349 . S
C2207 C2209 1.327 . S
C2207 H2230 0.950 . S
C2208 C2207 1.349 . S
C2208 C2220 1.349 . S
C2209 C2207 1.327 . S
C2209 C2225 1.429 . S
C2209 H2231 0.950 . S
C2210 H2206 0.949 . S
C2210 C2218 1.574 . S
C2210 C2226 1.368 . S
H2211 C2219 0.950 . S
H2212 C2217 0.950 . S
H2213 C2218 0.949 . S
H2214 C2220 0.950 . S
H2215 C2221 0.950 . S
H2216 C2222 0.949 . S
C2217 H2212 0.950 . S
C2217 C2219 1.327 . S
C2217 C2223 1.429 . S
C2218 C2210 1.574 . S
C2218 H2213 0.949 . S
C2218 C2224 1.368 . S
C2219 C2203 1.349 . S
C2219 H2211 0.950 . S
C2219 C2217 1.327 . S
C2220 C2208 1.349 . S
C2220 H2214 0.950 . S
C2220 C2221 1.327 . S
C2221 H2215 0.950 . S
C2221 C2220 1.327 . S
C2221 C2225 1.429 . S
C2222 C2205 1.574 . S
C2222 H2216 0.949 . S
C2222 C2226 1.368 . S
C2223 C2204 1.429 . S
C2223 C2217 1.429 . S
C2223 C2224 1.523 . S
C2224 C2205 1.368 . S
C2224 C2218 1.368 . S
C2224 C2223 1.523 . S
C2225 C2209 1.429 . S
C2225 C2221 1.429 . S
C2225 C2226 1.523 . S
C2226 C2210 1.368 . S
C2226 C2222 1.368 . S
C2226 C2225 1.523 . S
H2227 C2202 0.950 . S
H2228 C2204 0.950 . S
H2229 C2205 0.949 . S
H2230 C2207 0.950 . S
H2231 C2209 0.950 . S
C2232 C2233 1.349 . S
C2232 C2234 1.327 . S
C2232 H2257 0.950 . S
C2233 C2232 1.349 . S
C2233 C2249 1.349 . S
C2234 C2232 1.327 . S
C2234 C2253 1.429 . S
C2234 H2258 0.950 . S
C2235 C2252 1.574 . S
C2235 C2254 1.368 . S
C2235 H2259 0.949 . S
H2236 C2240 0.949 . S
C2237 C2238 1.349 . S
C2237 C2239 1.327 . S
C2237 H2260 0.950 . S
C2238 C2237 1.349 . S
C2238 C2250 1.349 . S
C2239 C2237 1.327 . S
C2239 C2255 1.429 . S
C2239 H2261 0.950 . S
C2240 H2236 0.949 . S
C2240 C2248 1.574 . S
C2240 C2256 1.368 . S
H2241 C2249 0.950 . S
H2242 C2247 0.950 . S
H2243 C2248 0.949 . S
H2244 C2250 0.950 . S
H2245 C2251 0.950 . S
H2246 C2252 0.949 . S
C2247 H2242 0.950 . S
C2247 C2249 1.327 . S
C2247 C2253 1.429 . S
C2248 C2240 1.574 . S
C2248 H2243 0.949 . S
C2248 C2254 1.368 . S
C2249 C2233 1.349 . S
C2249 H2241 0.950 . S
C2249 C2247 1.327 . S
C2250 C2238 1.349 . S
C2250 H2244 0.950 . S
C2250 C2251 1.327 . S
C2251 H2245 0.950 . S
C2251 C2250 1.327 . S
C2251 C2255 1.429 . S
C2252 C2235 1.574 . S
C2252 H2246 0.949 . S
C2252 C2256 1.368 . S
C2253 C2234 1.429 . S
C2253 C2247 1.429 . S
C2253 C2254 1.523 . S
C2254 C2235 1.368 . S
C2254 C2248 1.368 . S
C2254 C2253 1.523 . S
C2255 C2239 1.429 . S
C2255 C2251 1.429 . S
C2255 C2256 1.523 . S
C2256 C2240 1.368 . S
C2256 C2252 1.368 . S
C2256 C2255 1.523 . S
H2257 C2232 0.950 . S
H2258 C2234 0.950 . S
H2259 C2235 0.949 . S
H2260 C2237 0.950 . S
H2261 C2239 0.950 . S
C2262 C2263 1.349 . S
C2262 C2264 1.327 . S
C2262 H2287 0.950 . S
C2263 C2262 1.349 . S
C2263 C2279 1.349 1_655 S
C2264 C2262 1.327 . S
C2264 C2283 1.429 . S
C2264 H2288 0.950 . S
C2265 C2282 1.574 . S
C2265 C2284 1.344 1_554 S
C2265 H2289 0.949 . S
H2266 C2270 0.949 . S
C2267 C2268 1.349 . S
C2267 C2269 1.327 . S
C2267 H2290 0.950 . S
C2268 C2267 1.349 . S
C2268 C2280 1.349 . S
C2269 C2267 1.327 . S
C2269 C2285 1.429 . S
C2269 H2291 0.950 . S
C2270 H2266 0.949 . S
C2270 C2278 1.574 1_554 S
C2270 C2286 1.368 . S
H2271 C2279 0.949 . S
H2272 C2277 0.950 . S
H2273 C2278 0.949 . S
H2274 C2280 0.950 . S
H2275 C2281 0.950 . S
H2276 C2282 0.949 . S
C2277 H2272 0.950 . S
C2277 C2279 1.328 1_655 S
C2277 C2283 1.429 . S
C2278 C2270 1.574 1_556 S
C2278 H2273 0.949 . S
C2278 C2284 1.374 . S
C2279 C2263 1.349 1_455 S
C2279 H2271 0.949 . S
C2279 C2277 1.328 1_455 S
C2280 C2268 1.349 . S
C2280 H2274 0.950 . S
C2280 C2281 1.327 . S
C2281 H2275 0.950 . S
C2281 C2280 1.327 . S
C2281 C2285 1.429 . S
C2282 C2265 1.574 . S
C2282 H2276 0.949 . S
C2282 C2286 1.368 . S
C2283 C2264 1.429 . S
C2283 C2277 1.429 . S
C2283 C2284 1.549 . S
C2284 C2265 1.344 1_556 S
C2284 C2278 1.374 . S
C2284 C2283 1.549 . S
C2285 C2269 1.429 . S
C2285 C2281 1.429 . S
C2285 C2286 1.523 . S
C2286 C2270 1.368 . S
C2286 C2282 1.368 . S
C2286 C2285 1.523 . S
H2287 C2262 0.950 . S
H2288 C2264 0.950 . S
H2289 C2265 0.949 . S
H2290 C2267 0.950 . S
H2291 C2269 0.950 . S
C2292 C2293 1.349 . S
C2292 C2294 1.327 . S
C2292 H2317 0.950 . S
C2293 C2292 1.349 . S
C2293 C2309 1.349 . S
C2294 C2292 1.327 . S
C2294 C2313 1.429 . S
C2294 H2318 0.950 . S
C2295 C2312 1.574 . S
C2295 C2314 1.368 . S
C2295 H2319 0.949 . S
H2296 C2300 0.949 . S
C2297 C2298 1.349 . S
C2297 C2299 1.327 . S
C2297 H2320 0.950 . S
C2298 C2297 1.349 . S
C2298 C2310 1.349 . S
C2299 C2297 1.327 . S
C2299 C2315 1.429 . S
C2299 H2321 0.950 . S
C2300 H2296 0.949 . S
C2300 C2308 1.574 . S
C2300 C2316 1.368 . S
H2301 C2309 0.950 . S
H2302 C2307 0.950 . S
H2303 C2308 0.949 . S
H2304 C2310 0.950 . S
H2305 C2311 0.950 . S
H2306 C2312 0.949 . S
C2307 H2302 0.950 . S
C2307 C2309 1.327 . S
C2307 C2313 1.429 . S
C2308 C2300 1.574 . S
C2308 H2303 0.949 . S
C2308 C2314 1.368 . S
C2309 C2293 1.349 . S
C2309 H2301 0.950 . S
C2309 C2307 1.327 . S
C2310 C2298 1.349 . S
C2310 H2304 0.950 . S
C2310 C2311 1.327 . S
C2311 H2305 0.950 . S
C2311 C2310 1.327 . S
C2311 C2315 1.429 . S
C2312 C2295 1.574 . S
C2312 H2306 0.949 . S
C2312 C2316 1.368 . S
C2313 C2294 1.429 . S
C2313 C2307 1.429 . S
C2313 C2314 1.523 . S
C2314 C2295 1.368 . S
C2314 C2308 1.368 . S
C2314 C2313 1.523 . S
C2315 C2299 1.429 . S
C2315 C2311 1.429 . S
C2315 C2316 1.523 . S
C2316 C2300 1.368 . S
C2316 C2312 1.368 . S
C2316 C2315 1.523 . S
H2317 C2292 0.950 . S
H2318 C2294 0.950 . S
H2319 C2295 0.949 . S
H2320 C2297 0.950 . S
H2321 C2299 0.950 . S
C2322 C2323 1.349 . S
C2322 C2324 1.327 . S
C2322 H2347 0.950 . S
C2323 C2322 1.349 . S
C2323 C2339 1.349 . S
C2324 C2322 1.327 . S
C2324 C2343 1.429 . S
C2324 H2348 0.950 . S
C2325 C2342 1.574 . S
C2325 C2344 1.368 . S
C2325 H2349 0.949 . S
H2326 C2330 0.949 . S
C2327 C2328 1.349 . S
C2327 C2329 1.327 . S
C2327 H2350 0.950 . S
C2328 C2327 1.349 . S
C2328 C2340 1.349 . S
C2329 C2327 1.327 . S
C2329 C2345 1.429 . S
C2329 H2351 0.950 . S
C2330 H2326 0.949 . S
C2330 C2338 1.574 . S
C2330 C2346 1.368 . S
H2331 C2339 0.950 . S
H2332 C2337 0.950 . S
H2333 C2338 0.949 . S
H2334 C2340 0.950 . S
H2335 C2341 0.950 . S
H2336 C2342 0.949 . S
C2337 H2332 0.950 . S
C2337 C2339 1.327 . S
C2337 C2343 1.429 . S
C2338 C2330 1.574 . S
C2338 H2333 0.949 . S
C2338 C2344 1.368 . S
C2339 C2323 1.349 . S
C2339 H2331 0.950 . S
C2339 C2337 1.327 . S
C2340 C2328 1.349 . S
C2340 H2334 0.950 . S
C2340 C2341 1.327 . S
C2341 H2335 0.950 . S
C2341 C2340 1.327 . S
C2341 C2345 1.429 . S
C2342 C2325 1.574 . S
C2342 H2336 0.949 . S
C2342 C2346 1.368 . S
C2343 C2324 1.429 . S
C2343 C2337 1.429 . S
C2343 C2344 1.523 . S
C2344 C2325 1.368 . S
C2344 C2338 1.368 . S
C2344 C2343 1.523 . S
C2345 C2329 1.429 . S
C2345 C2341 1.429 . S
C2345 C2346 1.523 . S
C2346 C2330 1.368 . S
C2346 C2342 1.368 . S
C2346 C2345 1.523 . S
H2347 C2322 0.950 . S
H2348 C2324 0.950 . S
H2349 C2325 0.949 . S
H2350 C2327 0.950 . S
H2351 C2329 0.950 . S
C2352 C2353 1.349 . S
C2352 C2354 1.327 . S
C2352 H2377 0.950 . S
C2353 C2352 1.349 . S
C2353 C2369 1.349 . S
C2354 C2352 1.327 . S
C2354 C2373 1.429 . S
C2354 H2378 0.950 . S
C2355 C2372 1.574 . S
C2355 C2374 1.368 . S
C2355 H2379 0.949 . S
H2356 C2360 0.949 . S
C2357 C2358 1.349 . S
C2357 C2359 1.327 . S
C2357 H2380 0.950 . S
C2358 C2357 1.349 . S
C2358 C2370 1.349 . S
C2359 C2357 1.327 . S
C2359 C2375 1.429 . S
C2359 H2381 0.950 . S
C2360 H2356 0.949 . S
C2360 C2368 1.574 . S
C2360 C2376 1.368 . S
H2361 C2369 0.950 . S
H2362 C2367 0.950 . S
H2363 C2368 0.949 . S
H2364 C2370 0.950 . S
H2365 C2371 0.950 . S
H2366 C2372 0.949 . S
C2367 H2362 0.950 . S
C2367 C2369 1.327 . S
C2367 C2373 1.429 . S
C2368 C2360 1.574 . S
C2368 H2363 0.949 . S
C2368 C2374 1.368 . S
C2369 C2353 1.349 . S
C2369 H2361 0.950 . S
C2369 C2367 1.327 . S
C2370 C2358 1.349 . S
C2370 H2364 0.950 . S
C2370 C2371 1.327 . S
C2371 H2365 0.950 . S
C2371 C2370 1.327 . S
C2371 C2375 1.429 . S
C2372 C2355 1.574 . S
C2372 H2366 0.949 . S
C2372 C2376 1.368 . S
C2373 C2354 1.429 . S
C2373 C2367 1.429 . S
C2373 C2374 1.523 . S
C2374 C2355 1.368 . S
C2374 C2368 1.368 . S
C2374 C2373 1.523 . S
C2375 C2359 1.429 . S
C2375 C2371 1.429 . S
C2375 C2376 1.523 . S
C2376 C2360 1.368 . S
C2376 C2372 1.368 . S
C2376 C2375 1.523 . S
H2377 C2352 0.950 . S
H2378 C2354 0.950 . S
H2379 C2355 0.949 . S
H2380 C2357 0.950 . S
H2381 C2359 0.950 . S
C2382 C2383 1.349 . S
C2382 C2384 1.327 . S
C2382 H2407 0.950 . S
C2383 C2382 1.349 . S
C2383 C2399 1.349 . S
C2384 C2382 1.327 . S
C2384 C2403 1.429 . S
C2384 H2408 0.950 . S
C2385 C2402 1.574 . S
C2385 C2404 1.368 . S
C2385 H2409 0.949 . S
H2386 C2390 0.949 . S
C2387 C2388 1.349 . S
C2387 C2389 1.327 . S
C2387 H2410 0.950 . S
C2388 C2387 1.349 . S
C2388 C2400 1.349 . S
C2389 C2387 1.327 . S
C2389 C2405 1.429 . S
C2389 H2411 0.950 . S
C2390 H2386 0.949 . S
C2390 C2398 1.574 . S
C2390 C2406 1.368 . S
H2391 C2399 0.950 1_554 S
H2392 C2397 0.934 1_554 S
H2393 C2398 0.949 . S
H2394 C2400 0.950 . S
H2395 C2401 0.950 . S
H2396 C2402 0.949 . S
C2397 H2392 0.934 1_556 S
C2397 C2399 1.327 . S
C2397 C2403 1.429 . S
C2398 C2390 1.574 . S
C2398 H2393 0.949 . S
C2398 C2404 1.368 . S
C2399 C2383 1.349 . S
C2399 H2391 0.950 1_556 S
C2399 C2397 1.327 . S
C2400 C2388 1.349 . S
C2400 H2394 0.950 . S
C2400 C2401 1.327 . S
C2401 H2395 0.950 . S
C2401 C2400 1.327 . S
C2401 C2405 1.429 . S
C2402 C2385 1.574 . S
C2402 H2396 0.949 . S
C2402 C2406 1.368 . S
C2403 C2384 1.429 . S
C2403 C2397 1.429 . S
C2403 C2404 1.523 . S
C2404 C2385 1.368 . S
C2404 C2398 1.368 . S
C2404 C2403 1.523 . S
C2405 C2389 1.429 . S
C2405 C2401 1.429 . S
C2405 C2406 1.523 . S
C2406 C2390 1.368 . S
C2406 C2402 1.368 . S
C2406 C2405 1.523 . S
H2407 C2382 0.950 . S
H2408 C2384 0.950 . S
H2409 C2385 0.949 . S
H2410 C2387 0.950 . S
H2411 C2389 0.950 . S
C2412 C2413 1.349 . S
C2412 C2414 1.327 . S
C2412 H2437 0.950 . S
C2413 C2412 1.349 . S
C2413 C2429 1.349 . S
C2414 C2412 1.327 . S
C2414 C2433 1.429 . S
C2414 H2438 0.950 . S
C2415 C2432 1.574 . S
C2415 C2434 1.368 . S
C2415 H2439 0.949 . S
H2416 C2420 0.949 . S
C2417 C2418 1.349 . S
C2417 C2419 1.327 . S
C2417 H2440 0.950 . S
C2418 C2417 1.349 . S
C2418 C2430 1.349 . S
C2419 C2417 1.327 . S
C2419 C2435 1.429 . S
C2419 H2441 0.950 . S
C2420 H2416 0.949 . S
C2420 C2428 1.574 . S
C2420 C2436 1.368 . S
H2421 C2429 0.950 . S
H2422 C2427 0.950 . S
H2423 C2428 0.949 . S
H2424 C2430 0.950 . S
H2425 C2431 0.950 . S
H2426 C2432 0.949 . S
C2427 H2422 0.950 . S
C2427 C2429 1.327 . S
C2427 C2433 1.429 . S
C2428 C2420 1.574 . S
C2428 H2423 0.949 . S
C2428 C2434 1.368 . S
C2429 C2413 1.349 . S
C2429 H2421 0.950 . S
C2429 C2427 1.327 . S
C2430 C2418 1.349 . S
C2430 H2424 0.950 . S
C2430 C2431 1.327 . S
C2431 H2425 0.950 . S
C2431 C2430 1.327 . S
C2431 C2435 1.429 . S
C2432 C2415 1.574 . S
C2432 H2426 0.949 . S
C2432 C2436 1.368 . S
C2433 C2414 1.429 . S
C2433 C2427 1.429 . S
C2433 C2434 1.523 . S
C2434 C2415 1.368 . S
C2434 C2428 1.368 . S
C2434 C2433 1.523 . S
C2435 C2419 1.429 . S
C2435 C2431 1.429 . S
C2435 C2436 1.523 . S
C2436 C2420 1.368 . S
C2436 C2432 1.368 . S
C2436 C2435 1.523 . S
H2437 C2412 0.950 . S
H2438 C2414 0.950 . S
H2439 C2415 0.949 . S
H2440 C2417 0.950 . S
H2441 C2419 0.950 . S
C2442 C2443 1.349 . S
C2442 C2444 1.327 . S
C2442 H2467 0.950 . S
C2443 C2442 1.349 . S
C2443 C2459 1.349 . S
C2444 C2442 1.327 . S
C2444 C2463 1.429 . S
C2444 H2468 0.950 . S
C2445 C2462 1.574 . S
C2445 C2464 1.368 . S
C2445 H2469 0.949 . S
H2446 C2450 0.949 . S
C2447 C2448 1.349 . S
C2447 C2449 1.327 . S
C2447 H2470 0.950 . S
C2448 C2447 1.349 . S
C2448 C2460 1.349 . S
C2449 C2447 1.327 . S
C2449 C2465 1.429 . S
C2449 H2471 0.950 . S
C2450 H2446 0.949 . S
C2450 C2458 1.574 . S
C2450 C2466 1.368 . S
H2451 C2459 0.950 . S
H2452 C2457 0.950 . S
H2453 C2458 0.949 . S
H2454 C2460 0.950 . S
H2455 C2461 0.950 . S
H2456 C2462 0.949 . S
C2457 H2452 0.950 . S
C2457 C2459 1.327 . S
C2457 C2463 1.429 . S
C2458 C2450 1.574 . S
C2458 H2453 0.949 . S
C2458 C2464 1.368 . S
C2459 C2443 1.349 . S
C2459 H2451 0.950 . S
C2459 C2457 1.327 . S
C2460 C2448 1.349 . S
C2460 H2454 0.950 . S
C2460 C2461 1.327 . S
C2461 H2455 0.950 . S
C2461 C2460 1.327 . S
C2461 C2465 1.429 . S
C2462 C2445 1.574 . S
C2462 H2456 0.949 . S
C2462 C2466 1.368 . S
C2463 C2444 1.429 . S
C2463 C2457 1.429 . S
C2463 C2464 1.523 . S
C2464 C2445 1.368 . S
C2464 C2458 1.368 . S
C2464 C2463 1.523 . S
C2465 C2449 1.429 . S
C2465 C2461 1.429 . S
C2465 C2466 1.523 . S
C2466 C2450 1.368 . S
C2466 C2462 1.368 . S
C2466 C2465 1.523 . S
H2467 C2442 0.950 . S
H2468 C2444 0.950 . S
H2469 C2445 0.949 . S
H2470 C2447 0.950 . S
H2471 C2449 0.950 . S
C2472 C2473 1.349 . S
C2472 C2474 1.327 . S
C2472 H2497 0.950 . S
C2473 C2472 1.349 . S
C2473 C2489 1.349 . S
C2474 C2472 1.327 . S
C2474 C2493 1.429 . S
C2474 H2498 0.950 . S
C2475 C2492 1.574 . S
C2475 C2494 1.368 . S
C2475 H2499 0.949 . S
H2476 C2480 0.949 . S
C2477 C2478 1.349 . S
C2477 C2479 1.327 . S
C2477 H2500 0.950 . S
C2478 C2477 1.349 . S
C2478 C2490 1.349 . S
C2479 C2477 1.327 . S
C2479 C2495 1.429 . S
C2479 H2501 0.950 . S
C2480 H2476 0.949 . S
C2480 C2488 1.574 . S
C2480 C2496 1.368 . S
H2481 C2489 0.950 . S
H2482 C2487 0.950 . S
H2483 C2488 0.949 . S
H2484 C2490 0.950 . S
H2485 C2491 0.950 . S
H2486 C2492 0.949 . S
C2487 H2482 0.950 . S
C2487 C2489 1.327 . S
C2487 C2493 1.429 . S
C2488 C2480 1.574 . S
C2488 H2483 0.949 . S
C2488 C2494 1.368 . S
C2489 C2473 1.349 . S
C2489 H2481 0.950 . S
C2489 C2487 1.327 . S
C2490 C2478 1.349 . S
C2490 H2484 0.950 . S
C2490 C2491 1.327 . S
C2491 H2485 0.950 . S
C2491 C2490 1.327 . S
C2491 C2495 1.429 . S
C2492 C2475 1.574 . S
C2492 H2486 0.949 . S
C2492 C2496 1.368 . S
C2493 C2474 1.429 . S
C2493 C2487 1.429 . S
C2493 C2494 1.523 . S
C2494 C2475 1.368 . S
C2494 C2488 1.368 . S
C2494 C2493 1.523 . S
C2495 C2479 1.429 . S
C2495 C2491 1.429 . S
C2495 C2496 1.523 . S
C2496 C2480 1.368 . S
C2496 C2492 1.368 . S
C2496 C2495 1.523 . S
H2497 C2472 0.950 . S
H2498 C2474 0.950 . S
H2499 C2475 0.949 . S
H2500 C2477 0.950 . S
H2501 C2479 0.950 . S
C2502 C2503 1.349 . S
C2502 C2504 1.327 . S
C2502 H2527 0.950 . S
C2503 C2502 1.349 . S
C2503 C2519 1.349 . S
C2504 C2502 1.327 . S
C2504 C2523 1.429 . S
C2504 H2528 0.950 . S
C2505 C2522 1.574 . S
C2505 C2524 1.368 . S
C2505 H2529 0.949 . S
H2506 C2510 0.949 . S
C2507 C2508 1.349 . S
C2507 C2509 1.327 . S
C2507 H2530 0.950 . S
C2508 C2507 1.349 . S
C2508 C2520 1.349 . S
C2509 C2507 1.327 . S
C2509 C2525 1.429 . S
C2509 H2531 0.950 . S
C2510 H2506 0.949 . S
C2510 C2518 1.574 . S
C2510 C2526 1.368 . S
H2511 C2519 0.950 . S
H2512 C2517 0.950 . S
H2513 C2518 0.949 . S
H2514 C2520 0.950 . S
H2515 C2521 0.950 . S
H2516 C2522 0.949 . S
C2517 H2512 0.950 . S
C2517 C2519 1.327 . S
C2517 C2523 1.429 . S
C2518 C2510 1.574 . S
C2518 H2513 0.949 . S
C2518 C2524 1.368 . S
C2519 C2503 1.349 . S
C2519 H2511 0.950 . S
C2519 C2517 1.327 . S
C2520 C2508 1.349 . S
C2520 H2514 0.950 . S
C2520 C2521 1.327 . S
C2521 H2515 0.950 . S
C2521 C2520 1.327 . S
C2521 C2525 1.429 . S
C2522 C2505 1.574 . S
C2522 H2516 0.949 . S
C2522 C2526 1.368 . S
C2523 C2504 1.429 . S
C2523 C2517 1.429 . S
C2523 C2524 1.523 . S
C2524 C2505 1.368 . S
C2524 C2518 1.368 . S
C2524 C2523 1.523 . S
C2525 C2509 1.429 . S
C2525 C2521 1.429 . S
C2525 C2526 1.523 . S
C2526 C2510 1.368 . S
C2526 C2522 1.368 . S
C2526 C2525 1.523 . S
H2527 C2502 0.950 . S
H2528 C2504 0.950 . S
H2529 C2505 0.949 . S
H2530 C2507 0.950 . S
H2531 C2509 0.950 . S
C2532 C2533 1.349 . S
C2532 C2534 1.327 . S
C2532 H2557 0.950 . S
C2533 C2532 1.349 . S
C2533 C2549 1.349 . S
C2534 C2532 1.327 . S
C2534 C2553 1.429 . S
C2534 H2558 0.950 . S
C2535 C2552 1.574 . S
C2535 C2554 1.368 . S
C2535 H2559 0.949 . S
H2536 C2540 0.949 . S
C2537 C2538 1.349 . S
C2537 C2539 1.327 . S
C2537 H2560 0.950 . S
C2538 C2537 1.349 . S
C2538 C2550 1.349 . S
C2539 C2537 1.327 . S
C2539 C2555 1.429 . S
C2539 H2561 0.950 . S
C2540 H2536 0.949 . S
C2540 C2548 1.574 . S
C2540 C2556 1.368 . S
H2541 C2549 0.950 . S
H2542 C2547 0.950 . S
H2543 C2548 0.949 . S
H2544 C2550 0.950 . S
H2545 C2551 0.950 . S
H2546 C2552 0.949 . S
C2547 H2542 0.950 . S
C2547 C2549 1.327 . S
C2547 C2553 1.429 . S
C2548 C2540 1.574 . S
C2548 H2543 0.949 . S
C2548 C2554 1.368 . S
C2549 C2533 1.349 . S
C2549 H2541 0.950 . S
C2549 C2547 1.327 . S
C2550 C2538 1.349 . S
C2550 H2544 0.950 . S
C2550 C2551 1.327 . S
C2551 H2545 0.950 . S
C2551 C2550 1.327 . S
C2551 C2555 1.429 . S
C2552 C2535 1.574 . S
C2552 H2546 0.949 . S
C2552 C2556 1.368 . S
C2553 C2534 1.429 . S
C2553 C2547 1.429 . S
C2553 C2554 1.523 . S
C2554 C2535 1.368 . S
C2554 C2548 1.368 . S
C2554 C2553 1.523 . S
C2555 C2539 1.429 . S
C2555 C2551 1.429 . S
C2555 C2556 1.523 . S
C2556 C2540 1.368 . S
C2556 C2552 1.368 . S
C2556 C2555 1.523 . S
H2557 C2532 0.950 . S
H2558 C2534 0.950 . S
H2559 C2535 0.949 . S
H2560 C2537 0.950 . S
H2561 C2539 0.950 . S
C2562 C2563 1.349 . S
C2562 C2564 1.327 . S
C2562 H2587 0.950 . S
C2563 C2562 1.349 . S
C2563 C2579 1.349 . S
C2564 C2562 1.327 . S
C2564 C2583 1.429 . S
C2564 H2588 0.950 . S
C2565 C2582 1.574 . S
C2565 C2584 1.368 . S
C2565 H2589 0.949 . S
H2566 C2570 0.949 . S
C2567 C2568 1.349 . S
C2567 C2569 1.327 . S
C2567 H2590 0.950 . S
C2568 C2567 1.349 . S
C2568 C2580 1.349 . S
C2569 C2567 1.327 . S
C2569 C2585 1.429 . S
C2569 H2591 0.950 . S
C2570 H2566 0.949 . S
C2570 C2578 1.574 . S
C2570 C2586 1.368 . S
H2571 C2579 0.950 . S
H2572 C2577 0.950 . S
H2573 C2578 0.949 . S
H2574 C2580 0.950 . S
H2575 C2581 0.950 . S
H2576 C2582 0.949 . S
C2577 H2572 0.950 . S
C2577 C2579 1.327 . S
C2577 C2583 1.429 . S
C2578 C2570 1.574 . S
C2578 H2573 0.949 . S
C2578 C2584 1.368 . S
C2579 C2563 1.349 . S
C2579 H2571 0.950 . S
C2579 C2577 1.327 . S
C2580 C2568 1.349 . S
C2580 H2574 0.950 . S
C2580 C2581 1.327 . S
C2581 H2575 0.950 . S
C2581 C2580 1.327 . S
C2581 C2585 1.429 . S
C2582 C2565 1.574 . S
C2582 H2576 0.949 . S
C2582 C2586 1.368 . S
C2583 C2564 1.429 . S
C2583 C2577 1.429 . S
C2583 C2584 1.523 . S
C2584 C2565 1.368 . S
C2584 C2578 1.368 . S
C2584 C2583 1.523 . S
C2585 C2569 1.429 . S
C2585 C2581 1.429 . S
C2585 C2586 1.523 . S
C2586 C2570 1.368 . S
C2586 C2582 1.368 . S
C2586 C2585 1.523 . S
H2587 C2562 0.950 . S
H2588 C2564 0.950 . S
H2589 C2565 0.949 . S
H2590 C2567 0.950 . S
H2591 C2569 0.950 . S
C2592 C2593 1.349 . S
C2592 C2594 1.327 . S
C2592 H2617 0.950 . S
C2593 C2592 1.349 . S
C2593 C2609 1.349 . S
C2594 C2592 1.327 . S
C2594 C2613 1.429 . S
C2594 H2618 0.950 . S
C2595 C2612 1.574 . S
C2595 C2614 1.368 . S
C2595 H2619 0.949 . S
H2596 C2600 0.949 . S
C2597 C2598 1.349 . S
C2597 C2599 1.327 . S
C2597 H2620 0.950 . S
C2598 C2597 1.349 . S
C2598 C2610 1.349 . S
C2599 C2597 1.327 . S
C2599 C2615 1.429 . S
C2599 H2621 0.950 . S
C2600 H2596 0.949 . S
C2600 C2608 1.574 . S
C2600 C2616 1.368 . S
H2601 C2609 0.950 . S
H2602 C2607 0.950 . S
H2603 C2608 0.949 . S
H2604 C2610 0.950 . S
H2605 C2611 0.950 . S
H2606 C2612 0.949 . S
C2607 H2602 0.950 . S
C2607 C2609 1.327 . S
C2607 C2613 1.429 . S
C2608 C2600 1.574 . S
C2608 H2603 0.949 . S
C2608 C2614 1.368 . S
C2609 C2593 1.349 . S
C2609 H2601 0.950 . S
C2609 C2607 1.327 . S
C2610 C2598 1.349 . S
C2610 H2604 0.950 . S
C2610 C2611 1.327 . S
C2611 H2605 0.950 . S
C2611 C2610 1.327 . S
C2611 C2615 1.429 . S
C2612 C2595 1.574 . S
C2612 H2606 0.949 . S
C2612 C2616 1.368 . S
C2613 C2594 1.429 . S
C2613 C2607 1.429 . S
C2613 C2614 1.523 . S
C2614 C2595 1.368 . S
C2614 C2608 1.368 . S
C2614 C2613 1.523 . S
C2615 C2599 1.429 . S
C2615 C2611 1.429 . S
C2615 C2616 1.523 . S
C2616 C2600 1.368 . S
C2616 C2612 1.368 . S
C2616 C2615 1.523 . S
H2617 C2592 0.950 . S
H2618 C2594 0.950 . S
H2619 C2595 0.949 . S
H2620 C2597 0.950 . S
H2621 C2599 0.950 . S
C2622 C2623 1.349 . S
C2622 C2624 1.327 . S
C2622 H2647 0.950 . S
C2623 C2622 1.349 . S
C2623 C2639 1.349 . S
C2624 C2622 1.327 . S
C2624 C2643 1.429 . S
C2624 H2648 0.950 . S
C2625 C2642 1.574 . S
C2625 C2644 1.368 . S
C2625 H2649 0.949 . S
H2626 C2630 0.949 . S
C2627 C2628 1.349 . S
C2627 C2629 1.327 . S
C2627 H2650 0.950 . S
C2628 C2627 1.349 . S
C2628 C2640 1.349 . S
C2629 C2627 1.327 . S
C2629 C2645 1.429 . S
C2629 H2651 0.950 . S
C2630 H2626 0.949 . S
C2630 C2638 1.574 . S
C2630 C2646 1.368 . S
H2631 C2639 0.950 . S
H2632 C2637 0.950 . S
H2633 C2638 0.949 . S
H2634 C2640 0.950 . S
H2635 C2641 0.950 . S
H2636 C2642 0.949 . S
C2637 H2632 0.950 . S
C2637 C2639 1.327 . S
C2637 C2643 1.429 . S
C2638 C2630 1.574 . S
C2638 H2633 0.949 . S
C2638 C2644 1.368 . S
C2639 C2623 1.349 . S
C2639 H2631 0.950 . S
C2639 C2637 1.327 . S
C2640 C2628 1.349 . S
C2640 H2634 0.950 . S
C2640 C2641 1.327 . S
C2641 H2635 0.950 . S
C2641 C2640 1.327 . S
C2641 C2645 1.429 . S
C2642 C2625 1.574 . S
C2642 H2636 0.949 . S
C2642 C2646 1.368 . S
C2643 C2624 1.429 . S
C2643 C2637 1.429 . S
C2643 C2644 1.523 . S
C2644 C2625 1.368 . S
C2644 C2638 1.368 . S
C2644 C2643 1.523 . S
C2645 C2629 1.429 . S
C2645 C2641 1.429 . S
C2645 C2646 1.523 . S
C2646 C2630 1.368 . S
C2646 C2642 1.368 . S
C2646 C2645 1.523 . S
H2647 C2622 0.950 . S
H2648 C2624 0.950 . S
H2649 C2625 0.949 . S
H2650 C2627 0.950 . S
H2651 C2629 0.950 . S
C2652 C2653 1.349 . S
C2652 C2654 1.327 1_545 S
C2652 H2677 0.950 . S
C2653 C2652 1.349 . S
C2653 C2669 1.349 . S
C2654 C2652 1.327 1_565 S
C2654 C2673 1.429 1_565 S
C2654 H2678 0.950 . S
C2655 C2672 1.574 1_545 S
C2655 C2674 1.368 1_545 S
C2655 H2679 0.949 . S
H2656 C2660 0.949 . S
C2657 C2658 1.349 . S
C2657 C2659 1.327 . S
C2657 H2680 0.950 . S
C2658 C2657 1.349 . S
C2658 C2670 1.349 . S
C2659 C2657 1.327 . S
C2659 C2675 1.429 . S
C2659 H2681 0.950 . S
C2660 H2656 0.949 . S
C2660 C2668 1.574 . S
C2660 C2676 1.368 . S
H2661 C2669 0.950 . S
H2662 C2667 0.950 . S
H2663 C2668 0.949 . S
H2664 C2670 0.950 . S
H2665 C2671 0.950 . S
H2666 C2672 0.949 . S
C2667 H2662 0.950 . S
C2667 C2669 1.327 . S
C2667 C2673 1.429 . S
C2668 C2660 1.574 . S
C2668 H2663 0.949 . S
C2668 C2674 1.368 . S
C2669 C2653 1.349 . S
C2669 H2661 0.950 . S
C2669 C2667 1.327 . S
C2670 C2658 1.349 . S
C2670 H2664 0.950 . S
C2670 C2671 1.327 . S
C2671 H2665 0.950 . S
C2671 C2670 1.327 . S
C2671 C2675 1.429 . S
C2672 C2655 1.574 1_565 S
C2672 H2666 0.949 . S
C2672 C2676 1.368 . S
C2673 C2654 1.429 1_545 S
C2673 C2667 1.429 . S
C2673 C2674 1.523 1_545 S
C2674 C2655 1.368 1_565 S
C2674 C2668 1.368 . S
C2674 C2673 1.523 1_565 S
C2675 C2659 1.429 . S
C2675 C2671 1.429 . S
C2675 C2676 1.523 . S
C2676 C2660 1.368 . S
C2676 C2672 1.368 . S
C2676 C2675 1.523 . S
H2677 C2652 0.950 . S
H2678 C2654 0.950 . S
H2679 C2655 0.949 . S
H2680 C2657 0.950 . S
H2681 C2659 0.950 . S
C2682 C2683 1.349 . S
C2682 C2684 1.327 . S
C2682 H2707 0.950 . S
C2683 C2682 1.349 . S
C2683 C2699 1.349 . S
C2684 C2682 1.327 . S
C2684 C2703 1.429 . S
C2684 H2708 0.950 . S
C2685 C2702 1.574 . S
C2685 C2704 1.368 . S
C2685 H2709 0.949 . S
H2686 C2690 0.949 . S
C2687 C2688 1.349 . S
C2687 C2689 1.327 . S
C2687 H2710 0.950 . S
C2688 C2687 1.349 . S
C2688 C2700 1.349 . S
C2689 C2687 1.327 . S
C2689 C2705 1.429 . S
C2689 H2711 0.950 . S
C2690 H2686 0.949 . S
C2690 C2698 1.574 . S
C2690 C2706 1.368 . S
H2691 C2699 0.950 . S
H2692 C2697 0.950 . S
H2693 C2698 0.949 . S
H2694 C2700 0.950 . S
H2695 C2701 0.950 . S
H2696 C2702 0.949 . S
C2697 H2692 0.950 . S
C2697 C2699 1.327 . S
C2697 C2703 1.429 . S
C2698 C2690 1.574 . S
C2698 H2693 0.949 . S
C2698 C2704 1.368 . S
C2699 C2683 1.349 . S
C2699 H2691 0.950 . S
C2699 C2697 1.327 . S
C2700 C2688 1.349 . S
C2700 H2694 0.950 . S
C2700 C2701 1.327 . S
C2701 H2695 0.950 . S
C2701 C2700 1.327 . S
C2701 C2705 1.429 . S
C2702 C2685 1.574 . S
C2702 H2696 0.949 . S
C2702 C2706 1.368 . S
C2703 C2684 1.429 . S
C2703 C2697 1.429 . S
C2703 C2704 1.523 . S
C2704 C2685 1.368 . S
C2704 C2698 1.368 . S
C2704 C2703 1.523 . S
C2705 C2689 1.429 . S
C2705 C2701 1.429 . S
C2705 C2706 1.523 . S
C2706 C2690 1.368 . S
C2706 C2702 1.368 . S
C2706 C2705 1.523 . S
H2707 C2682 0.950 . S
H2708 C2684 0.950 . S
H2709 C2685 0.949 . S
H2710 C2687 0.950 . S
H2711 C2689 0.950 . S
C2712 C2713 1.349 . S
C2712 C2714 1.327 . S
C2712 H2737 0.950 . S
C2713 C2712 1.349 . S
C2713 C2729 1.349 . S
C2714 C2712 1.327 . S
C2714 C2733 1.429 . S
C2714 H2738 0.950 . S
C2715 C2732 1.574 . S
C2715 C2734 1.368 . S
C2715 H2739 0.949 . S
H2716 C2720 0.949 . S
C2717 C2718 1.349 . S
C2717 C2719 1.327 . S
C2717 H2740 0.950 . S
C2718 C2717 1.349 . S
C2718 C2730 1.349 . S
C2719 C2717 1.327 . S
C2719 C2735 1.429 . S
C2719 H2741 0.950 . S
C2720 H2716 0.949 . S
C2720 C2728 1.574 . S
C2720 C2736 1.368 . S
H2721 C2729 0.950 . S
H2722 C2727 0.950 . S
H2723 C2728 0.949 . S
H2724 C2730 0.950 . S
H2725 C2731 0.950 . S
H2726 C2732 0.949 . S
C2727 H2722 0.950 . S
C2727 C2729 1.327 . S
C2727 C2733 1.429 . S
C2728 C2720 1.574 . S
C2728 H2723 0.949 . S
C2728 C2734 1.368 . S
C2729 C2713 1.349 . S
C2729 H2721 0.950 . S
C2729 C2727 1.327 . S
C2730 C2718 1.349 . S
C2730 H2724 0.950 . S
C2730 C2731 1.327 . S
C2731 H2725 0.950 . S
C2731 C2730 1.327 . S
C2731 C2735 1.429 . S
C2732 C2715 1.574 . S
C2732 H2726 0.949 . S
C2732 C2736 1.368 . S
C2733 C2714 1.429 . S
C2733 C2727 1.429 . S
C2733 C2734 1.523 . S
C2734 C2715 1.368 . S
C2734 C2728 1.368 . S
C2734 C2733 1.523 . S
C2735 C2719 1.429 . S
C2735 C2731 1.429 . S
C2735 C2736 1.523 . S
C2736 C2720 1.368 . S
C2736 C2732 1.368 . S
C2736 C2735 1.523 . S
H2737 C2712 0.950 . S
H2738 C2714 0.950 . S
H2739 C2715 0.949 . S
H2740 C2717 0.950 . S
H2741 C2719 0.950 . S
C2742 C2743 1.349 . S
C2742 C2744 1.327 . S
C2742 H2767 0.950 . S
C2743 C2742 1.349 . S
C2743 C2759 1.349 . S
C2744 C2742 1.327 . S
C2744 C2763 1.429 . S
C2744 H2768 0.950 . S
C2745 C2762 1.574 . S
C2745 C2764 1.368 . S
C2745 H2769 0.949 . S
H2746 C2750 0.949 . S
C2747 C2748 1.349 . S
C2747 C2749 1.327 . S
C2747 H2770 0.950 . S
C2748 C2747 1.349 . S
C2748 C2760 1.349 . S
C2749 C2747 1.327 . S
C2749 C2765 1.429 . S
C2749 H2771 0.950 . S
C2750 H2746 0.949 . S
C2750 C2758 1.574 . S
C2750 C2766 1.368 . S
H2751 C2759 0.950 . S
H2752 C2757 0.950 . S
H2753 C2758 0.949 . S
H2754 C2760 0.950 . S
H2755 C2761 0.950 . S
H2756 C2762 0.949 . S
C2757 H2752 0.950 . S
C2757 C2759 1.327 . S
C2757 C2763 1.429 . S
C2758 C2750 1.574 . S
C2758 H2753 0.949 . S
C2758 C2764 1.368 . S
C2759 C2743 1.349 . S
C2759 H2751 0.950 . S
C2759 C2757 1.327 . S
C2760 C2748 1.349 . S
C2760 H2754 0.950 . S
C2760 C2761 1.327 . S
C2761 H2755 0.950 . S
C2761 C2760 1.327 . S
C2761 C2765 1.429 . S
C2762 C2745 1.574 . S
C2762 H2756 0.949 . S
C2762 C2766 1.368 . S
C2763 C2744 1.429 . S
C2763 C2757 1.429 . S
C2763 C2764 1.523 . S
C2764 C2745 1.368 . S
C2764 C2758 1.368 . S
C2764 C2763 1.523 . S
C2765 C2749 1.429 . S
C2765 C2761 1.429 . S
C2765 C2766 1.523 . S
C2766 C2750 1.368 . S
C2766 C2762 1.368 . S
C2766 C2765 1.523 . S
H2767 C2742 0.950 . S
H2768 C2744 0.950 . S
H2769 C2745 0.949 . S
H2770 C2747 0.950 . S
H2771 C2749 0.950 . S
C2772 C2773 1.349 . S
C2772 C2774 1.327 . S
C2772 H2797 0.950 . S
C2773 C2772 1.349 . S
C2773 C2789 1.349 . S
C2774 C2772 1.327 . S
C2774 C2793 1.429 . S
C2774 H2798 0.950 . S
C2775 C2792 1.574 . S
C2775 C2794 1.368 . S
C2775 H2799 0.949 . S
H2776 C2780 0.949 . S
C2777 C2778 1.349 . S
C2777 C2779 1.327 . S
C2777 H2800 0.950 . S
C2778 C2777 1.349 . S
C2778 C2790 1.349 . S
C2779 C2777 1.327 . S
C2779 C2795 1.429 . S
C2779 H2801 0.950 . S
C2780 H2776 0.949 . S
C2780 C2788 1.574 . S
C2780 C2796 1.368 . S
H2781 C2789 0.950 . S
H2782 C2787 0.950 . S
H2783 C2788 0.949 . S
H2784 C2790 0.950 . S
H2785 C2791 0.950 . S
H2786 C2792 0.949 . S
C2787 H2782 0.950 . S
C2787 C2789 1.327 . S
C2787 C2793 1.429 . S
C2788 C2780 1.574 . S
C2788 H2783 0.949 . S
C2788 C2794 1.368 . S
C2789 C2773 1.349 . S
C2789 H2781 0.950 . S
C2789 C2787 1.327 . S
C2790 C2778 1.349 . S
C2790 H2784 0.950 . S
C2790 C2791 1.327 . S
C2791 H2785 0.950 . S
C2791 C2790 1.327 . S
C2791 C2795 1.429 . S
C2792 C2775 1.574 . S
C2792 H2786 0.949 . S
C2792 C2796 1.368 . S
C2793 C2774 1.429 . S
C2793 C2787 1.429 . S
C2793 C2794 1.523 . S
C2794 C2775 1.368 . S
C2794 C2788 1.368 . S
C2794 C2793 1.523 . S
C2795 C2779 1.429 . S
C2795 C2791 1.429 . S
C2795 C2796 1.523 . S
C2796 C2780 1.368 . S
C2796 C2792 1.368 . S
C2796 C2795 1.523 . S
H2797 C2772 0.950 . S
H2798 C2774 0.950 . S
H2799 C2775 0.949 . S
H2800 C2777 0.950 . S
H2801 C2779 0.950 . S
C2802 C2803 1.349 . S
C2802 C2804 1.327 . S
C2802 H2827 0.950 . S
C2803 C2802 1.349 . S
C2803 C2819 1.349 . S
C2804 C2802 1.327 . S
C2804 C2823 1.429 . S
C2804 H2828 0.950 . S
C2805 C2822 1.574 1_655 S
C2805 C2824 1.368 . S
C2805 H2829 0.949 . S
H2806 C2810 0.949 . S
C2807 C2808 1.349 . S
C2807 C2809 1.327 . S
C2807 H2830 0.950 . S
C2808 C2807 1.349 . S
C2808 C2820 1.349 . S
C2809 C2807 1.327 . S
C2809 C2825 1.429 . S
C2809 H2831 0.950 . S
C2810 H2806 0.949 . S
C2810 C2818 1.574 1_455 S
C2810 C2826 1.368 . S
H2811 C2819 0.950 . S
H2812 C2817 0.950 . S
H2813 C2818 0.949 . S
H2814 C2820 0.950 . S
H2815 C2821 0.950 . S
H2816 C2822 0.949 . S
C2817 H2812 0.950 . S
C2817 C2819 1.327 . S
C2817 C2823 1.429 . S
C2818 C2810 1.574 1_655 S
C2818 H2813 0.949 . S
C2818 C2824 1.368 . S
C2819 C2803 1.349 . S
C2819 H2811 0.950 . S
C2819 C2817 1.327 . S
C2820 C2808 1.349 . S
C2820 H2814 0.950 . S
C2820 C2821 1.327 . S
C2821 H2815 0.950 . S
C2821 C2820 1.327 . S
C2821 C2825 1.429 . S
C2822 C2805 1.574 1_455 S
C2822 H2816 0.949 . S
C2822 C2826 1.368 . S
C2823 C2804 1.429 . S
C2823 C2817 1.429 . S
C2823 C2824 1.523 . S
C2824 C2805 1.368 . S
C2824 C2818 1.368 . S
C2824 C2823 1.523 . S
C2825 C2809 1.429 . S
C2825 C2821 1.429 . S
C2825 C2826 1.523 . S
C2826 C2810 1.368 . S
C2826 C2822 1.368 . S
C2826 C2825 1.523 . S
H2827 C2802 0.950 . S
H2828 C2804 0.950 . S
H2829 C2805 0.949 . S
H2830 C2807 0.950 . S
H2831 C2809 0.950 . S
C2832 C2833 1.349 . S
C2832 C2834 1.327 . S
C2832 H2857 0.950 . S
C2833 C2832 1.349 . S
C2833 C2849 1.349 . S
C2834 C2832 1.327 . S
C2834 C2853 1.429 . S
C2834 H2858 0.950 . S
C2835 C2852 1.574 . S
C2835 C2854 1.368 . S
C2835 H2859 0.949 . S
H2836 C2840 0.949 . S
C2837 C2838 1.349 . S
C2837 C2839 1.327 . S
C2837 H2860 0.950 . S
C2838 C2837 1.349 . S
C2838 C2850 1.349 . S
C2839 C2837 1.327 . S
C2839 C2855 1.429 . S
C2839 H2861 0.950 . S
C2840 H2836 0.949 . S
C2840 C2848 1.574 . S
C2840 C2856 1.368 . S
H2841 C2849 0.950 . S
H2842 C2847 0.950 . S
H2843 C2848 0.949 . S
H2844 C2850 0.950 . S
H2845 C2851 0.950 . S
H2846 C2852 0.949 . S
C2847 H2842 0.950 . S
C2847 C2849 1.327 . S
C2847 C2853 1.429 . S
C2848 C2840 1.574 . S
C2848 H2843 0.949 . S
C2848 C2854 1.368 . S
C2849 C2833 1.349 . S
C2849 H2841 0.950 . S
C2849 C2847 1.327 . S
C2850 C2838 1.349 . S
C2850 H2844 0.950 . S
C2850 C2851 1.327 . S
C2851 H2845 0.950 . S
C2851 C2850 1.327 . S
C2851 C2855 1.429 . S
C2852 C2835 1.574 . S
C2852 H2846 0.949 . S
C2852 C2856 1.368 . S
C2853 C2834 1.429 . S
C2853 C2847 1.429 . S
C2853 C2854 1.523 . S
C2854 C2835 1.368 . S
C2854 C2848 1.368 . S
C2854 C2853 1.523 . S
C2855 C2839 1.429 . S
C2855 C2851 1.429 . S
C2855 C2856 1.523 . S
C2856 C2840 1.368 . S
C2856 C2852 1.368 . S
C2856 C2855 1.523 . S
H2857 C2832 0.950 . S
H2858 C2834 0.950 . S
H2859 C2835 0.949 . S
H2860 C2837 0.950 . S
H2861 C2839 0.950 . S
C2862 C2863 1.349 . S
C2862 C2864 1.327 . S
C2862 H2887 0.950 . S
C2863 C2862 1.349 . S
C2863 C2879 1.349 . S
C2864 C2862 1.327 . S
C2864 C2883 1.429 . S
C2864 H2888 0.950 . S
C2865 C2882 1.574 1_556 S
C2865 C2884 1.368 . S
C2865 H2889 0.949 . S
H2866 C2870 0.949 . S
C2867 C2868 1.349 . S
C2867 C2869 1.327 . S
C2867 H2890 0.950 . S
C2868 C2867 1.349 . S
C2868 C2880 1.349 . S
C2869 C2867 1.327 . S
C2869 C2885 1.429 . S
C2869 H2891 0.950 . S
C2870 H2866 0.949 . S
C2870 C2878 1.574 1_554 S
C2870 C2886 1.368 . S
H2871 C2879 0.950 . S
H2872 C2877 0.950 . S
H2873 C2878 0.949 . S
H2874 C2880 0.950 . S
H2875 C2881 0.950 . S
H2876 C2882 0.949 . S
C2877 H2872 0.950 . S
C2877 C2879 1.327 . S
C2877 C2883 1.429 . S
C2878 C2870 1.574 1_556 S
C2878 H2873 0.949 . S
C2878 C2884 1.368 . S
C2879 C2863 1.349 . S
C2879 H2871 0.950 . S
C2879 C2877 1.327 . S
C2880 C2868 1.349 . S
C2880 H2874 0.950 . S
C2880 C2881 1.327 . S
C2881 H2875 0.950 . S
C2881 C2880 1.327 . S
C2881 C2885 1.429 . S
C2882 C2865 1.574 1_554 S
C2882 H2876 0.949 . S
C2882 C2886 1.368 . S
C2883 C2864 1.429 . S
C2883 C2877 1.429 . S
C2883 C2884 1.523 . S
C2884 C2865 1.368 . S
C2884 C2878 1.368 . S
C2884 C2883 1.523 . S
C2885 C2869 1.429 . S
C2885 C2881 1.429 . S
C2885 C2886 1.523 . S
C2886 C2870 1.368 . S
C2886 C2882 1.368 . S
C2886 C2885 1.523 . S
H2887 C2862 0.950 . S
H2888 C2864 0.950 . S
H2889 C2865 0.949 . S
H2890 C2867 0.950 . S
H2891 C2869 0.950 . S
C2892 C2893 1.349 . S
C2892 C2894 1.327 . S
C2892 H2917 0.950 . S
C2893 C2892 1.349 . S
C2893 C2909 1.349 . S
C2894 C2892 1.327 . S
C2894 C2913 1.429 . S
C2894 H2918 0.950 . S
C2895 C2912 1.574 . S
C2895 C2914 1.368 . S
C2895 H2919 0.949 . S
H2896 C2900 0.949 . S
C2897 C2898 1.349 . S
C2897 C2899 1.327 . S
C2897 H2920 0.950 . S
C2898 C2897 1.349 . S
C2898 C2910 1.349 . S
C2899 C2897 1.327 . S
C2899 C2915 1.429 . S
C2899 H2921 0.950 . S
C2900 H2896 0.949 . S
C2900 C2908 1.574 . S
C2900 C2916 1.368 . S
H2901 C2909 0.950 . S
H2902 C2907 0.950 . S
H2903 C2908 0.949 . S
H2904 C2910 0.950 . S
H2905 C2911 0.950 . S
H2906 C2912 0.949 . S
C2907 H2902 0.950 . S
C2907 C2909 1.327 . S
C2907 C2913 1.429 . S
C2908 C2900 1.574 . S
C2908 H2903 0.949 . S
C2908 C2914 1.368 . S
C2909 C2893 1.349 . S
C2909 H2901 0.950 . S
C2909 C2907 1.327 . S
C2910 C2898 1.349 . S
C2910 H2904 0.950 . S
C2910 C2911 1.327 . S
C2911 H2905 0.950 . S
C2911 C2910 1.327 . S
C2911 C2915 1.429 . S
C2912 C2895 1.574 . S
C2912 H2906 0.949 . S
C2912 C2916 1.368 . S
C2913 C2894 1.429 . S
C2913 C2907 1.429 . S
C2913 C2914 1.523 . S
C2914 C2895 1.368 . S
C2914 C2908 1.368 . S
C2914 C2913 1.523 . S
C2915 C2899 1.429 . S
C2915 C2911 1.429 . S
C2915 C2916 1.523 . S
C2916 C2900 1.368 . S
C2916 C2912 1.368 . S
C2916 C2915 1.523 . S
H2917 C2892 0.950 . S
H2918 C2894 0.950 . S
H2919 C2895 0.949 . S
H2920 C2897 0.950 . S
H2921 C2899 0.950 . S
C2922 C2923 1.349 . S
C2922 C2924 1.327 . S
C2922 H2947 0.950 . S
C2923 C2922 1.349 . S
C2923 C2939 1.349 . S
C2924 C2922 1.327 . S
C2924 C2943 1.429 . S
C2924 H2948 0.950 . S
C2925 C2942 1.574 . S
C2925 C2944 1.368 . S
C2925 H2949 0.949 . S
H2926 C2930 0.949 . S
C2927 C2928 1.349 . S
C2927 C2929 1.327 . S
C2927 H2950 0.950 . S
C2928 C2927 1.349 . S
C2928 C2940 1.349 . S
C2929 C2927 1.327 . S
C2929 C2945 1.429 . S
C2929 H2951 0.950 . S
C2930 H2926 0.949 . S
C2930 C2938 1.574 . S
C2930 C2946 1.368 . S
H2931 C2939 0.950 . S
H2932 C2937 0.950 . S
H2933 C2938 0.949 . S
H2934 C2940 0.950 . S
H2935 C2941 0.950 . S
H2936 C2942 0.949 . S
C2937 H2932 0.950 . S
C2937 C2939 1.327 . S
C2937 C2943 1.429 . S
C2938 C2930 1.574 . S
C2938 H2933 0.949 . S
C2938 C2944 1.368 . S
C2939 C2923 1.349 . S
C2939 H2931 0.950 . S
C2939 C2937 1.327 . S
C2940 C2928 1.349 . S
C2940 H2934 0.950 . S
C2940 C2941 1.327 . S
C2941 H2935 0.950 . S
C2941 C2940 1.327 . S
C2941 C2945 1.429 . S
C2942 C2925 1.574 . S
C2942 H2936 0.949 . S
C2942 C2946 1.368 . S
C2943 C2924 1.429 . S
C2943 C2937 1.429 . S
C2943 C2944 1.523 . S
C2944 C2925 1.368 . S
C2944 C2938 1.368 . S
C2944 C2943 1.523 . S
C2945 C2929 1.429 . S
C2945 C2941 1.429 . S
C2945 C2946 1.523 . S
C2946 C2930 1.368 . S
C2946 C2942 1.368 . S
C2946 C2945 1.523 . S
H2947 C2922 0.950 . S
H2948 C2924 0.950 . S
H2949 C2925 0.949 . S
H2950 C2927 0.950 . S
H2951 C2929 0.950 . S
C2952 C2953 1.349 . S
C2952 C2954 1.327 . S
C2952 H2977 0.950 . S
C2953 C2952 1.349 . S
C2953 C2969 1.349 . S
C2954 C2952 1.327 . S
C2954 C2973 1.429 . S
C2954 H2978 0.950 . S
C2955 C2972 1.574 . S
C2955 C2974 1.368 . S
C2955 H2979 0.949 . S
H2956 C2960 0.949 . S
C2957 C2958 1.349 . S
C2957 C2959 1.327 . S
C2957 H2980 0.950 . S
C2958 C2957 1.349 . S
C2958 C2970 1.349 . S
C2959 C2957 1.327 . S
C2959 C2975 1.429 . S
C2959 H2981 0.950 . S
C2960 H2956 0.949 . S
C2960 C2968 1.574 . S
C2960 C2976 1.368 . S
H2961 C2969 0.950 . S
H2962 C2967 0.950 . S
H2963 C2968 0.949 . S
H2964 C2970 0.950 . S
H2965 C2971 0.950 . S
H2966 C2972 0.949 . S
C2967 H2962 0.950 . S
C2967 C2969 1.327 . S
C2967 C2973 1.429 . S
C2968 C2960 1.574 . S
C2968 H2963 0.949 . S
C2968 C2974 1.368 . S
C2969 C2953 1.349 . S
C2969 H2961 0.950 . S
C2969 C2967 1.327 . S
C2970 C2958 1.349 . S
C2970 H2964 0.950 . S
C2970 C2971 1.327 . S
C2971 H2965 0.950 . S
C2971 C2970 1.327 . S
C2971 C2975 1.429 . S
C2972 C2955 1.574 . S
C2972 H2966 0.949 . S
C2972 C2976 1.368 . S
C2973 C2954 1.429 . S
C2973 C2967 1.429 . S
C2973 C2974 1.523 . S
C2974 C2955 1.368 . S
C2974 C2968 1.368 . S
C2974 C2973 1.523 . S
C2975 C2959 1.429 . S
C2975 C2971 1.429 . S
C2975 C2976 1.523 . S
C2976 C2960 1.368 . S
C2976 C2972 1.368 . S
C2976 C2975 1.523 . S
H2977 C2952 0.950 . S
H2978 C2954 0.950 . S
H2979 C2955 0.949 . S
H2980 C2957 0.950 . S
H2981 C2959 0.950 . S
C2982 C2983 1.349 . S
C2982 C2984 1.327 . S
C2982 H3007 0.950 . S
C2983 C2982 1.349 . S
C2983 C2999 1.349 . S
C2984 C2982 1.327 . S
C2984 C3003 1.429 . S
C2984 H3008 0.950 . S
C2985 C3002 1.574 . S
C2985 C3004 1.368 . S
C2985 H3009 0.949 . S
H2986 C2990 0.949 . S
C2987 C2988 1.349 . S
C2987 C2989 1.327 . S
C2987 H3010 0.950 . S
C2988 C2987 1.349 . S
C2988 C3000 1.349 . S
C2989 C2987 1.327 . S
C2989 C3005 1.429 . S
C2989 H3011 0.950 . S
C2990 H2986 0.949 . S
C2990 C2998 1.574 1_556 S
C2990 C3006 1.368 . S
H2991 C2999 0.950 . S
H2992 C2997 0.950 . S
H2993 C2998 0.949 . S
H2994 C3000 0.950 . S
H2995 C3001 0.950 . S
H2996 C3002 0.961 . S
C2997 H2992 0.950 . S
C2997 C2999 1.327 . S
C2997 C3003 1.429 . S
C2998 C2990 1.574 1_554 S
C2998 H2993 0.949 . S
C2998 C3004 1.368 . S
C2999 C2983 1.349 . S
C2999 H2991 0.950 . S
C2999 C2997 1.327 . S
C3000 C2988 1.349 . S
C3000 H2994 0.950 . S
C3000 C3001 1.327 . S
C3001 H2995 0.950 . S
C3001 C3000 1.327 . S
C3001 C3005 1.429 . S
C3002 C2985 1.574 . S
C3002 H2996 0.961 . S
C3002 C3006 1.368 1_554 S
C3003 C2984 1.429 . S
C3003 C2997 1.429 . S
C3003 C3004 1.523 . S
C3004 C2985 1.368 . S
C3004 C2998 1.368 . S
C3004 C3003 1.523 . S
C3005 C2989 1.429 . S
C3005 C3001 1.429 . S
C3005 C3006 1.523 . S
C3006 C2990 1.368 . S
C3006 C3002 1.368 1_556 S
C3006 C3005 1.523 . S
H3007 C2982 0.950 . S
H3008 C2984 0.950 . S
H3009 C2985 0.949 . S
H3010 C2987 0.950 . S
H3011 C2989 0.950 . S
C3012 C3013 1.349 . S
C3012 C3014 1.327 . S
C3012 H3037 0.950 . S
C3013 C3012 1.349 . S
C3013 C3029 1.349 . S
C3014 C3012 1.327 . S
C3014 C3033 1.429 . S
C3014 H3038 0.950 . S
C3015 C3032 1.574 . S
C3015 C3034 1.368 . S
C3015 H3039 0.949 . S
H3016 C3020 0.949 . S
C3017 C3018 1.349 . S
C3017 C3019 1.327 . S
C3017 H3040 0.950 . S
C3018 C3017 1.349 . S
C3018 C3030 1.349 . S
C3019 C3017 1.327 . S
C3019 C3035 1.429 . S
C3019 H3041 0.950 . S
C3020 H3016 0.949 . S
C3020 C3028 1.574 . S
C3020 C3036 1.368 . S
H3021 C3029 0.950 . S
H3022 C3027 0.950 . S
H3023 C3028 0.949 . S
H3024 C3030 0.950 . S
H3025 C3031 0.950 . S
H3026 C3032 0.949 . S
C3027 H3022 0.950 . S
C3027 C3029 1.327 . S
C3027 C3033 1.429 . S
C3028 C3020 1.574 . S
C3028 H3023 0.949 . S
C3028 C3034 1.368 . S
C3029 C3013 1.349 . S
C3029 H3021 0.950 . S
C3029 C3027 1.327 . S
C3030 C3018 1.349 . S
C3030 H3024 0.950 . S
C3030 C3031 1.327 . S
C3031 H3025 0.950 . S
C3031 C3030 1.327 . S
C3031 C3035 1.429 . S
C3032 C3015 1.574 . S
C3032 H3026 0.949 . S
C3032 C3036 1.368 . S
C3033 C3014 1.429 . S
C3033 C3027 1.429 . S
C3033 C3034 1.523 . S
C3034 C3015 1.368 . S
C3034 C3028 1.368 . S
C3034 C3033 1.523 . S
C3035 C3019 1.429 . S
C3035 C3031 1.429 . S
C3035 C3036 1.523 . S
C3036 C3020 1.368 . S
C3036 C3032 1.368 . S
C3036 C3035 1.523 . S
H3037 C3012 0.950 . S
H3038 C3014 0.950 . S
H3039 C3015 0.949 . S
H3040 C3017 0.950 . S
H3041 C3019 0.950 . S
C3042 C3043 1.349 . S
C3042 C3044 1.327 . S
C3042 H3067 0.950 . S
C3043 C3042 1.349 . S
C3043 C3059 1.349 . S
C3044 C3042 1.327 . S
C3044 C3063 1.429 . S
C3044 H3068 0.950 . S
C3045 C3062 1.574 . S
C3045 C3064 1.368 . S
C3045 H3069 0.949 . S
H3046 C3050 0.949 . S
C3047 C3048 1.349 . S
C3047 C3049 1.327 . S
C3047 H3070 0.950 . S
C3048 C3047 1.349 . S
C3048 C3060 1.349 . S
C3049 C3047 1.327 . S
C3049 C3065 1.429 . S
C3049 H3071 0.950 . S
C3050 H3046 0.949 . S
C3050 C3058 1.574 . S
C3050 C3066 1.368 . S
H3051 C3059 0.950 . S
H3052 C3057 0.950 . S
H3053 C3058 0.949 . S
H3054 C3060 0.950 . S
H3055 C3061 0.950 . S
H3056 C3062 0.949 . S
C3057 H3052 0.950 . S
C3057 C3059 1.327 . S
C3057 C3063 1.429 . S
C3058 C3050 1.574 . S
C3058 H3053 0.949 . S
C3058 C3064 1.368 . S
C3059 C3043 1.349 . S
C3059 H3051 0.950 . S
C3059 C3057 1.327 . S
C3060 C3048 1.349 . S
C3060 H3054 0.950 . S
C3060 C3061 1.327 . S
C3061 H3055 0.950 . S
C3061 C3060 1.327 . S
C3061 C3065 1.429 . S
C3062 C3045 1.574 . S
C3062 H3056 0.949 . S
C3062 C3066 1.368 . S
C3063 C3044 1.429 . S
C3063 C3057 1.429 . S
C3063 C3064 1.523 . S
C3064 C3045 1.368 . S
C3064 C3058 1.368 . S
C3064 C3063 1.523 . S
C3065 C3049 1.429 . S
C3065 C3061 1.429 . S
C3065 C3066 1.523 . S
C3066 C3050 1.368 . S
C3066 C3062 1.368 . S
C3066 C3065 1.523 . S
H3067 C3042 0.950 . S
H3068 C3044 0.950 . S
H3069 C3045 0.949 . S
H3070 C3047 0.950 . S
H3071 C3049 0.950 . S
C3072 C3073 1.349 . S
C3072 C3074 1.327 . S
C3072 H3097 0.950 . S
C3073 C3072 1.349 . S
C3073 C3089 1.349 . S
C3074 C3072 1.327 . S
C3074 C3093 1.429 . S
C3074 H3098 0.950 . S
C3075 C3092 1.574 . S
C3075 C3094 1.368 . S
C3075 H3099 0.949 . S
H3076 C3080 0.949 . S
C3077 C3078 1.349 . S
C3077 C3079 1.327 . S
C3077 H3100 0.950 . S
C3078 C3077 1.349 . S
C3078 C3090 1.349 . S
C3079 C3077 1.327 . S
C3079 C3095 1.429 . S
C3079 H3101 0.950 . S
C3080 H3076 0.949 . S
C3080 C3088 1.574 . S
C3080 C3096 1.368 . S
H3081 C3089 0.950 . S
H3082 C3087 0.950 . S
H3083 C3088 0.949 . S
H3084 C3090 0.950 . S
H3085 C3091 0.950 . S
H3086 C3092 0.949 . S
C3087 H3082 0.950 . S
C3087 C3089 1.327 . S
C3087 C3093 1.429 . S
C3088 C3080 1.574 . S
C3088 H3083 0.949 . S
C3088 C3094 1.368 . S
C3089 C3073 1.349 . S
C3089 H3081 0.950 . S
C3089 C3087 1.327 . S
C3090 C3078 1.349 . S
C3090 H3084 0.950 . S
C3090 C3091 1.327 . S
C3091 H3085 0.950 . S
C3091 C3090 1.327 . S
C3091 C3095 1.429 . S
C3092 C3075 1.574 . S
C3092 H3086 0.949 . S
C3092 C3096 1.368 . S
C3093 C3074 1.429 . S
C3093 C3087 1.429 . S
C3093 C3094 1.523 . S
C3094 C3075 1.368 . S
C3094 C3088 1.368 . S
C3094 C3093 1.523 . S
C3095 C3079 1.429 . S
C3095 C3091 1.429 . S
C3095 C3096 1.523 . S
C3096 C3080 1.368 . S
C3096 C3092 1.368 . S
C3096 C3095 1.523 . S
H3097 C3072 0.950 . S
H3098 C3074 0.950 . S
H3099 C3075 0.949 . S
H3100 C3077 0.950 . S
H3101 C3079 0.950 . S
C3102 C3103 1.349 . S
C3102 C3104 1.327 . S
C3102 H3127 0.950 . S
C3103 C3102 1.349 . S
C3103 C3119 1.349 . S
C3104 C3102 1.327 . S
C3104 C3123 1.429 . S
C3104 H3128 0.950 . S
C3105 C3122 1.574 . S
C3105 C3124 1.368 . S
C3105 H3129 0.949 . S
H3106 C3110 0.949 . S
C3107 C3108 1.349 . S
C3107 C3109 1.327 . S
C3107 H3130 0.950 . S
C3108 C3107 1.349 . S
C3108 C3120 1.349 . S
C3109 C3107 1.327 . S
C3109 C3125 1.429 . S
C3109 H3131 0.950 . S
C3110 H3106 0.949 . S
C3110 C3118 1.574 . S
C3110 C3126 1.368 . S
H3111 C3119 0.950 . S
H3112 C3117 0.950 . S
H3113 C3118 0.949 . S
H3114 C3120 0.950 . S
H3115 C3121 0.950 . S
H3116 C3122 0.949 . S
C3117 H3112 0.950 . S
C3117 C3119 1.327 . S
C3117 C3123 1.429 . S
C3118 C3110 1.574 . S
C3118 H3113 0.949 . S
C3118 C3124 1.368 . S
C3119 C3103 1.349 . S
C3119 H3111 0.950 . S
C3119 C3117 1.327 . S
C3120 C3108 1.349 . S
C3120 H3114 0.950 . S
C3120 C3121 1.327 . S
C3121 H3115 0.950 . S
C3121 C3120 1.327 . S
C3121 C3125 1.429 . S
C3122 C3105 1.574 . S
C3122 H3116 0.949 . S
C3122 C3126 1.368 . S
C3123 C3104 1.429 . S
C3123 C3117 1.429 . S
C3123 C3124 1.523 . S
C3124 C3105 1.368 . S
C3124 C3118 1.368 . S
C3124 C3123 1.523 . S
C3125 C3109 1.429 . S
C3125 C3121 1.429 . S
C3125 C3126 1.523 . S
C3126 C3110 1.368 . S
C3126 C3122 1.368 . S
C3126 C3125 1.523 . S
H3127 C3102 0.950 . S
H3128 C3104 0.950 . S
H3129 C3105 0.949 . S
H3130 C3107 0.950 . S
H3131 C3109 0.950 . S
C3132 C3133 1.349 . S
C3132 C3134 1.327 . S
C3132 H3157 0.950 . S
C3133 C3132 1.349 . S
C3133 C3149 1.349 . S
C3134 C3132 1.327 . S
C3134 C3153 1.429 . S
C3134 H3158 0.950 . S
C3135 C3152 1.574 . S
C3135 C3154 1.368 . S
C3135 H3159 0.949 . S
H3136 C3140 0.949 . S
C3137 C3138 1.349 . S
C3137 C3139 1.327 . S
C3137 H3160 0.950 . S
C3138 C3137 1.349 . S
C3138 C3150 1.349 . S
C3139 C3137 1.327 . S
C3139 C3155 1.429 . S
C3139 H3161 0.950 . S
C3140 H3136 0.949 . S
C3140 C3148 1.574 . S
C3140 C3156 1.368 . S
H3141 C3149 0.950 . S
H3142 C3147 0.950 . S
H3143 C3148 0.949 . S
H3144 C3150 0.950 . S
H3145 C3151 0.950 . S
H3146 C3152 0.949 . S
C3147 H3142 0.950 . S
C3147 C3149 1.327 . S
C3147 C3153 1.429 . S
C3148 C3140 1.574 . S
C3148 H3143 0.949 . S
C3148 C3154 1.368 . S
C3149 C3133 1.349 . S
C3149 H3141 0.950 . S
C3149 C3147 1.327 . S
C3150 C3138 1.349 . S
C3150 H3144 0.950 . S
C3150 C3151 1.327 . S
C3151 H3145 0.950 . S
C3151 C3150 1.327 . S
C3151 C3155 1.429 . S
C3152 C3135 1.574 . S
C3152 H3146 0.949 . S
C3152 C3156 1.368 . S
C3153 C3134 1.429 . S
C3153 C3147 1.429 . S
C3153 C3154 1.523 . S
C3154 C3135 1.368 . S
C3154 C3148 1.368 . S
C3154 C3153 1.523 . S
C3155 C3139 1.429 . S
C3155 C3151 1.429 . S
C3155 C3156 1.523 . S
C3156 C3140 1.368 . S
C3156 C3152 1.368 . S
C3156 C3155 1.523 . S
H3157 C3132 0.950 . S
H3158 C3134 0.950 . S
H3159 C3135 0.949 . S
H3160 C3137 0.950 . S
H3161 C3139 0.950 . S
C3162 C3163 1.349 . S
C3162 C3164 1.327 . S
C3162 H3187 0.950 . S
C3163 C3162 1.349 . S
C3163 C3179 1.349 . S
C3164 C3162 1.327 . S
C3164 C3183 1.429 . S
C3164 H3188 0.950 . S
C3165 C3182 1.574 . S
C3165 C3184 1.368 . S
C3165 H3189 0.949 . S
H3166 C3170 0.949 . S
C3167 C3168 1.349 . S
C3167 C3169 1.327 . S
C3167 H3190 0.950 . S
C3168 C3167 1.349 . S
C3168 C3180 1.349 . S
C3169 C3167 1.327 . S
C3169 C3185 1.429 . S
C3169 H3191 0.950 . S
C3170 H3166 0.949 . S
C3170 C3178 1.574 . S
C3170 C3186 1.368 . S
H3171 C3179 0.950 . S
H3172 C3177 0.950 . S
H3173 C3178 0.949 . S
H3174 C3180 0.950 . S
H3175 C3181 0.950 . S
H3176 C3182 0.949 . S
C3177 H3172 0.950 . S
C3177 C3179 1.327 . S
C3177 C3183 1.429 . S
C3178 C3170 1.574 . S
C3178 H3173 0.949 . S
C3178 C3184 1.368 . S
C3179 C3163 1.349 . S
C3179 H3171 0.950 . S
C3179 C3177 1.327 . S
C3180 C3168 1.349 . S
C3180 H3174 0.950 . S
C3180 C3181 1.327 . S
C3181 H3175 0.950 . S
C3181 C3180 1.327 . S
C3181 C3185 1.429 . S
C3182 C3165 1.574 . S
C3182 H3176 0.949 . S
C3182 C3186 1.368 . S
C3183 C3164 1.429 . S
C3183 C3177 1.429 . S
C3183 C3184 1.523 . S
C3184 C3165 1.368 . S
C3184 C3178 1.368 . S
C3184 C3183 1.523 . S
C3185 C3169 1.429 . S
C3185 C3181 1.429 . S
C3185 C3186 1.523 . S
C3186 C3170 1.368 . S
C3186 C3182 1.368 . S
C3186 C3185 1.523 . S
H3187 C3162 0.950 . S
H3188 C3164 0.950 . S
H3189 C3165 0.949 . S
H3190 C3167 0.950 . S
H3191 C3169 0.950 . S
C3192 C3193 1.349 . S
C3192 C3194 1.327 . S
C3192 H3217 0.950 . S
C3193 C3192 1.349 . S
C3193 C3209 1.349 . S
C3194 C3192 1.327 . S
C3194 C3213 1.429 . S
C3194 H3218 0.950 . S
C3195 C3212 1.574 . S
C3195 C3214 1.368 . S
C3195 H3219 0.949 . S
H3196 C3200 0.949 . S
C3197 C3198 1.349 . S
C3197 C3199 1.327 . S
C3197 H3220 0.950 . S
C3198 C3197 1.349 . S
C3198 C3210 1.349 . S
C3199 C3197 1.327 . S
C3199 C3215 1.429 . S
C3199 H3221 0.950 . S
C3200 H3196 0.949 . S
C3200 C3208 1.574 . S
C3200 C3216 1.368 . S
H3201 C3209 0.950 . S
H3202 C3207 0.950 . S
H3203 C3208 0.949 . S
H3204 C3210 0.950 . S
H3205 C3211 0.950 . S
H3206 C3212 0.949 . S
C3207 H3202 0.950 . S
C3207 C3209 1.327 . S
C3207 C3213 1.429 . S
C3208 C3200 1.574 . S
C3208 H3203 0.949 . S
C3208 C3214 1.368 . S
C3209 C3193 1.349 . S
C3209 H3201 0.950 . S
C3209 C3207 1.327 . S
C3210 C3198 1.349 . S
C3210 H3204 0.950 . S
C3210 C3211 1.327 . S
C3211 H3205 0.950 . S
C3211 C3210 1.327 . S
C3211 C3215 1.429 . S
C3212 C3195 1.574 . S
C3212 H3206 0.949 . S
C3212 C3216 1.368 . S
C3213 C3194 1.429 . S
C3213 C3207 1.429 . S
C3213 C3214 1.523 . S
C3214 C3195 1.368 . S
C3214 C3208 1.368 . S
C3214 C3213 1.523 . S
C3215 C3199 1.429 . S
C3215 C3211 1.429 . S
C3215 C3216 1.523 . S
C3216 C3200 1.368 . S
C3216 C3212 1.368 . S
C3216 C3215 1.523 . S
H3217 C3192 0.950 . S
H3218 C3194 0.950 . S
H3219 C3195 0.949 . S
H3220 C3197 0.950 . S
H3221 C3199 0.950 . S
C3222 C3223 1.349 . S
C3222 C3224 1.327 . S
C3222 H3247 0.950 1_556 S
C3223 C3222 1.349 . S
C3223 C3239 1.349 . S
C3224 C3222 1.327 . S
C3224 C3243 1.429 . S
C3224 H3248 0.950 . S
C3225 C3242 1.574 . S
C3225 C3244 1.368 . S
C3225 H3249 0.949 . S
H3226 C3230 0.949 . S
C3227 C3228 1.349 . S
C3227 C3229 1.327 . S
C3227 H3250 0.950 . S
C3228 C3227 1.349 . S
C3228 C3240 1.349 . S
C3229 C3227 1.327 . S
C3229 C3245 1.429 . S
C3229 H3251 0.950 . S
C3230 H3226 0.949 . S
C3230 C3238 1.574 . S
C3230 C3246 1.368 . S
H3231 C3239 0.950 . S
H3232 C3237 0.950 . S
H3233 C3238 0.949 . S
H3234 C3240 0.950 . S
H3235 C3241 0.950 . S
H3236 C3242 0.949 . S
C3237 H3232 0.950 . S
C3237 C3239 1.327 . S
C3237 C3243 1.429 . S
C3238 C3230 1.574 . S
C3238 H3233 0.949 . S
C3238 C3244 1.368 . S
C3239 C3223 1.349 . S
C3239 H3231 0.950 . S
C3239 C3237 1.327 . S
C3240 C3228 1.349 . S
C3240 H3234 0.950 . S
C3240 C3241 1.327 . S
C3241 H3235 0.950 . S
C3241 C3240 1.327 . S
C3241 C3245 1.429 . S
C3242 C3225 1.574 . S
C3242 H3236 0.949 . S
C3242 C3246 1.368 . S
C3243 C3224 1.429 . S
C3243 C3237 1.429 . S
C3243 C3244 1.523 . S
C3244 C3225 1.368 . S
C3244 C3238 1.368 . S
C3244 C3243 1.523 . S
C3245 C3229 1.429 . S
C3245 C3241 1.429 . S
C3245 C3246 1.523 . S
C3246 C3230 1.368 . S
C3246 C3242 1.368 . S
C3246 C3245 1.523 . S
H3247 C3222 0.950 1_554 S
H3248 C3224 0.950 . S
H3249 C3225 0.949 . S
H3250 C3227 0.950 . S
H3251 C3229 0.950 . S
C3252 C3253 1.349 . S
C3252 C3254 1.327 . S
C3252 H3277 0.950 . S
C3253 C3252 1.349 . S
C3253 C3269 1.349 . S
C3254 C3252 1.327 . S
C3254 C3273 1.429 . S
C3254 H3278 0.950 . S
C3255 C3272 1.574 . S
C3255 C3274 1.368 . S
C3255 H3279 0.949 . S
H3256 C3260 0.949 . S
C3257 C3258 1.349 . S
C3257 C3259 1.327 . S
C3257 H3280 0.950 . S
C3258 C3257 1.349 . S
C3258 C3270 1.349 . S
C3259 C3257 1.327 . S
C3259 C3275 1.429 . S
C3259 H3281 0.950 . S
C3260 H3256 0.949 . S
C3260 C3268 1.574 . S
C3260 C3276 1.368 . S
H3261 C3269 0.950 . S
H3262 C3267 0.950 . S
H3263 C3268 0.949 . S
H3264 C3270 0.950 . S
H3265 C3271 0.950 . S
H3266 C3272 0.949 . S
C3267 H3262 0.950 . S
C3267 C3269 1.327 . S
C3267 C3273 1.429 . S
C3268 C3260 1.574 . S
C3268 H3263 0.949 . S
C3268 C3274 1.368 . S
C3269 C3253 1.349 . S
C3269 H3261 0.950 . S
C3269 C3267 1.327 . S
C3270 C3258 1.349 . S
C3270 H3264 0.950 . S
C3270 C3271 1.327 . S
C3271 H3265 0.950 . S
C3271 C3270 1.327 . S
C3271 C3275 1.429 . S
C3272 C3255 1.574 . S
C3272 H3266 0.949 . S
C3272 C3276 1.368 . S
C3273 C3254 1.429 . S
C3273 C3267 1.429 . S
C3273 C3274 1.523 . S
C3274 C3255 1.368 . S
C3274 C3268 1.368 . S
C3274 C3273 1.523 . S
C3275 C3259 1.429 . S
C3275 C3271 1.429 . S
C3275 C3276 1.523 . S
C3276 C3260 1.368 . S
C3276 C3272 1.368 . S
C3276 C3275 1.523 . S
H3277 C3252 0.950 . S
H3278 C3254 0.950 . S
H3279 C3255 0.949 . S
H3280 C3257 0.950 . S
H3281 C3259 0.950 . S
C3282 C3283 1.349 . S
C3282 C3284 1.327 . S
C3282 H3307 0.950 . S
C3283 C3282 1.349 . S
C3283 C3299 1.349 . S
C3284 C3282 1.327 . S
C3284 C3303 1.429 . S
C3284 H3308 0.950 . S
C3285 C3302 1.574 . S
C3285 C3304 1.368 . S
C3285 H3309 0.949 . S
H3286 C3290 0.949 . S
C3287 C3288 1.349 . S
C3287 C3289 1.327 . S
C3287 H3310 0.950 . S
C3288 C3287 1.349 . S
C3288 C3300 1.349 . S
C3289 C3287 1.327 . S
C3289 C3305 1.429 . S
C3289 H3311 0.950 . S
C3290 H3286 0.949 . S
C3290 C3298 1.574 . S
C3290 C3306 1.368 . S
H3291 C3299 0.950 . S
H3292 C3297 0.950 . S
H3293 C3298 0.949 . S
H3294 C3300 0.950 . S
H3295 C3301 0.950 . S
H3296 C3302 0.949 . S
C3297 H3292 0.950 . S
C3297 C3299 1.327 . S
C3297 C3303 1.429 . S
C3298 C3290 1.574 . S
C3298 H3293 0.949 . S
C3298 C3304 1.368 . S
C3299 C3283 1.349 . S
C3299 H3291 0.950 . S
C3299 C3297 1.327 . S
C3300 C3288 1.349 . S
C3300 H3294 0.950 . S
C3300 C3301 1.327 . S
C3301 H3295 0.950 . S
C3301 C3300 1.327 . S
C3301 C3305 1.429 . S
C3302 C3285 1.574 . S
C3302 H3296 0.949 . S
C3302 C3306 1.368 . S
C3303 C3284 1.429 . S
C3303 C3297 1.429 . S
C3303 C3304 1.523 . S
C3304 C3285 1.368 . S
C3304 C3298 1.368 . S
C3304 C3303 1.523 . S
C3305 C3289 1.429 . S
C3305 C3301 1.429 . S
C3305 C3306 1.523 . S
C3306 C3290 1.368 . S
C3306 C3302 1.368 . S
C3306 C3305 1.523 . S
H3307 C3282 0.950 . S
H3308 C3284 0.950 . S
H3309 C3285 0.949 . S
H3310 C3287 0.950 . S
H3311 C3289 0.950 . S
C3312 C3313 1.349 . S
C3312 C3314 1.327 . S
C3312 H3337 0.950 . S
C3313 C3312 1.349 . S
C3313 C3329 1.349 . S
C3314 C3312 1.327 . S
C3314 C3333 1.429 . S
C3314 H3338 0.950 . S
C3315 C3332 1.574 . S
C3315 C3334 1.368 . S
C3315 H3339 0.949 . S
H3316 C3320 0.949 . S
C3317 C3318 1.349 . S
C3317 C3319 1.327 . S
C3317 H3340 0.950 . S
C3318 C3317 1.349 . S
C3318 C3330 1.349 . S
C3319 C3317 1.327 . S
C3319 C3335 1.429 . S
C3319 H3341 0.950 . S
C3320 H3316 0.949 . S
C3320 C3328 1.574 . S
C3320 C3336 1.368 . S
H3321 C3329 0.950 . S
H3322 C3327 0.950 . S
H3323 C3328 0.949 . S
H3324 C3330 0.950 . S
H3325 C3331 0.950 . S
H3326 C3332 0.949 . S
C3327 H3322 0.950 . S
C3327 C3329 1.327 . S
C3327 C3333 1.429 . S
C3328 C3320 1.574 . S
C3328 H3323 0.949 . S
C3328 C3334 1.368 . S
C3329 C3313 1.349 . S
C3329 H3321 0.950 . S
C3329 C3327 1.327 . S
C3330 C3318 1.349 . S
C3330 H3324 0.950 . S
C3330 C3331 1.327 . S
C3331 H3325 0.950 . S
C3331 C3330 1.327 . S
C3331 C3335 1.429 . S
C3332 C3315 1.574 . S
C3332 H3326 0.949 . S
C3332 C3336 1.368 . S
C3333 C3314 1.429 . S
C3333 C3327 1.429 . S
C3333 C3334 1.523 . S
C3334 C3315 1.368 . S
C3334 C3328 1.368 . S
C3334 C3333 1.523 . S
C3335 C3319 1.429 . S
C3335 C3331 1.429 . S
C3335 C3336 1.523 . S
C3336 C3320 1.368 . S
C3336 C3332 1.368 . S
C3336 C3335 1.523 . S
H3337 C3312 0.950 . S
H3338 C3314 0.950 . S
H3339 C3315 0.949 . S
H3340 C3317 0.950 . S
H3341 C3319 0.950 . S
C3342 C3343 1.349 . S
C3342 C3344 1.327 . S
C3342 H3367 0.950 . S
C3343 C3342 1.349 . S
C3343 C3359 1.349 . S
C3344 C3342 1.327 . S
C3344 C3363 1.429 . S
C3344 H3368 0.950 . S
C3345 C3362 1.574 . S
C3345 C3364 1.368 . S
C3345 H3369 0.949 . S
H3346 C3350 0.949 . S
C3347 C3348 1.349 . S
C3347 C3349 1.327 . S
C3347 H3370 0.950 . S
C3348 C3347 1.349 . S
C3348 C3360 1.349 . S
C3349 C3347 1.327 . S
C3349 C3365 1.429 . S
C3349 H3371 0.950 . S
C3350 H3346 0.949 . S
C3350 C3358 1.574 . S
C3350 C3366 1.368 . S
H3351 C3359 0.950 . S
H3352 C3357 0.950 . S
H3353 C3358 0.949 . S
H3354 C3360 0.950 . S
H3355 C3361 0.950 . S
H3356 C3362 0.949 . S
C3357 H3352 0.950 . S
C3357 C3359 1.327 . S
C3357 C3363 1.429 . S
C3358 C3350 1.574 . S
C3358 H3353 0.949 . S
C3358 C3364 1.368 . S
C3359 C3343 1.349 . S
C3359 H3351 0.950 . S
C3359 C3357 1.327 . S
C3360 C3348 1.349 . S
C3360 H3354 0.950 . S
C3360 C3361 1.327 . S
C3361 H3355 0.950 . S
C3361 C3360 1.327 . S
C3361 C3365 1.429 . S
C3362 C3345 1.574 . S
C3362 H3356 0.949 . S
C3362 C3366 1.368 . S
C3363 C3344 1.429 . S
C3363 C3357 1.429 . S
C3363 C3364 1.523 . S
C3364 C3345 1.368 . S
C3364 C3358 1.368 . S
C3364 C3363 1.523 . S
C3365 C3349 1.429 . S
C3365 C3361 1.429 . S
C3365 C3366 1.523 . S
C3366 C3350 1.368 . S
C3366 C3362 1.368 . S
C3366 C3365 1.523 . S
H3367 C3342 0.950 . S
H3368 C3344 0.950 . S
H3369 C3345 0.949 . S
H3370 C3347 0.950 . S
H3371 C3349 0.950 . S
C3372 C3373 1.349 . S
C3372 C3374 1.327 . S
C3372 H3397 0.950 . S
C3373 C3372 1.349 . S
C3373 C3389 1.349 . S
C3374 C3372 1.327 . S
C3374 C3393 1.429 . S
C3374 H3398 0.950 . S
C3375 C3392 1.574 . S
C3375 C3394 1.368 . S
C3375 H3399 0.949 . S
H3376 C3380 0.949 . S
C3377 C3378 1.349 . S
C3377 C3379 1.327 . S
C3377 H3400 0.950 . S
C3378 C3377 1.349 . S
C3378 C3390 1.349 . S
C3379 C3377 1.327 . S
C3379 C3395 1.429 . S
C3379 H3401 0.950 . S
C3380 H3376 0.949 . S
C3380 C3388 1.574 . S
C3380 C3396 1.368 . S
H3381 C3389 0.970 . S
H3382 C3387 0.950 . S
H3383 C3388 0.949 . S
H3384 C3390 0.950 . S
H3385 C3391 0.950 . S
H3386 C3392 0.949 . S
C3387 H3382 0.950 . S
C3387 C3389 1.327 . S
C3387 C3393 1.429 . S
C3388 C3380 1.574 . S
C3388 H3383 0.949 . S
C3388 C3394 1.368 . S
C3389 C3373 1.349 . S
C3389 H3381 0.970 . S
C3389 C3387 1.327 . S
C3390 C3378 1.349 . S
C3390 H3384 0.950 . S
C3390 C3391 1.327 . S
C3391 H3385 0.950 . S
C3391 C3390 1.327 . S
C3391 C3395 1.429 . S
C3392 C3375 1.574 . S
C3392 H3386 0.949 . S
C3392 C3396 1.368 . S
C3393 C3374 1.429 . S
C3393 C3387 1.429 . S
C3393 C3394 1.523 . S
C3394 C3375 1.368 . S
C3394 C3388 1.368 . S
C3394 C3393 1.523 . S
C3395 C3379 1.429 . S
C3395 C3391 1.429 . S
C3395 C3396 1.523 . S
C3396 C3380 1.368 . S
C3396 C3392 1.368 . S
C3396 C3395 1.523 . S
H3397 C3372 0.950 . S
H3398 C3374 0.950 . S
H3399 C3375 0.949 . S
H3400 C3377 0.950 . S
H3401 C3379 0.950 . S
C3402 C3403 1.349 . S
C3402 C3404 1.327 . S
C3402 H3427 0.950 . S
C3403 C3402 1.349 . S
C3403 C3419 1.349 . S
C3404 C3402 1.327 . S
C3404 C3423 1.429 . S
C3404 H3428 0.950 . S
C3405 C3422 1.574 . S
C3405 C3424 1.368 . S
C3405 H3429 0.949 . S
H3406 C3410 0.949 . S
C3407 C3408 1.349 . S
C3407 C3409 1.327 . S
C3407 H3430 0.950 . S
C3408 C3407 1.349 . S
C3408 C3420 1.349 . S
C3409 C3407 1.327 . S
C3409 C3425 1.429 . S
C3409 H3431 0.950 . S
C3410 H3406 0.949 . S
C3410 C3418 1.574 . S
C3410 C3426 1.368 . S
H3411 C3419 0.950 . S
H3412 C3417 0.950 . S
H3413 C3418 0.949 . S
H3414 C3420 0.950 . S
H3415 C3421 0.950 . S
H3416 C3422 0.949 . S
C3417 H3412 0.950 . S
C3417 C3419 1.327 . S
C3417 C3423 1.429 . S
C3418 C3410 1.574 . S
C3418 H3413 0.949 . S
C3418 C3424 1.368 . S
C3419 C3403 1.349 . S
C3419 H3411 0.950 . S
C3419 C3417 1.327 . S
C3420 C3408 1.349 . S
C3420 H3414 0.950 . S
C3420 C3421 1.327 . S
C3421 H3415 0.950 . S
C3421 C3420 1.327 . S
C3421 C3425 1.429 . S
C3422 C3405 1.574 . S
C3422 H3416 0.949 . S
C3422 C3426 1.368 . S
C3423 C3404 1.429 . S
C3423 C3417 1.429 . S
C3423 C3424 1.523 . S
C3424 C3405 1.368 . S
C3424 C3418 1.368 . S
C3424 C3423 1.523 . S
C3425 C3409 1.429 . S
C3425 C3421 1.429 . S
C3425 C3426 1.523 . S
C3426 C3410 1.368 . S
C3426 C3422 1.368 . S
C3426 C3425 1.523 . S
H3427 C3402 0.950 . S
H3428 C3404 0.950 . S
H3429 C3405 0.949 . S
H3430 C3407 0.950 . S
H3431 C3409 0.950 . S
C3432 C3433 1.349 . S
C3432 C3434 1.327 . S
C3432 H3457 0.950 . S
C3433 C3432 1.349 . S
C3433 C3449 1.349 . S
C3434 C3432 1.327 . S
C3434 C3453 1.429 . S
C3434 H3458 0.950 . S
C3435 C3452 1.574 . S
C3435 C3454 1.368 . S
C3435 H3459 0.949 . S
H3436 C3440 0.949 . S
C3437 C3438 1.349 . S
C3437 C3439 1.327 . S
C3437 H3460 0.950 . S
C3438 C3437 1.349 . S
C3438 C3450 1.349 . S
C3439 C3437 1.327 . S
C3439 C3455 1.429 . S
C3439 H3461 0.950 . S
C3440 H3436 0.949 . S
C3440 C3448 1.574 . S
C3440 C3456 1.368 . S
H3441 C3449 0.950 . S
H3442 C3447 0.950 . S
H3443 C3448 0.949 . S
H3444 C3450 0.950 . S
H3445 C3451 0.950 . S
H3446 C3452 0.949 . S
C3447 H3442 0.950 . S
C3447 C3449 1.327 . S
C3447 C3453 1.429 . S
C3448 C3440 1.574 . S
C3448 H3443 0.949 . S
C3448 C3454 1.368 . S
C3449 C3433 1.349 . S
C3449 H3441 0.950 . S
C3449 C3447 1.327 . S
C3450 C3438 1.349 . S
C3450 H3444 0.950 . S
C3450 C3451 1.327 . S
C3451 H3445 0.950 . S
C3451 C3450 1.327 . S
C3451 C3455 1.429 . S
C3452 C3435 1.574 . S
C3452 H3446 0.949 . S
C3452 C3456 1.368 . S
C3453 C3434 1.429 . S
C3453 C3447 1.429 . S
C3453 C3454 1.523 . S
C3454 C3435 1.368 . S
C3454 C3448 1.368 . S
C3454 C3453 1.523 . S
C3455 C3439 1.429 . S
C3455 C3451 1.429 . S
C3455 C3456 1.523 . S
C3456 C3440 1.368 . S
C3456 C3452 1.368 . S
C3456 C3455 1.523 . S
H3457 C3432 0.950 . S
H3458 C3434 0.950 . S
H3459 C3435 0.949 . S
H3460 C3437 0.950 . S
H3461 C3439 0.950 . S
C3462 C3463 1.349 1_554 S
C3462 C3464 1.327 1_554 S
C3462 H3487 0.950 . S
C3463 C3462 1.349 1_556 S
C3463 C3479 1.349 . S
C3464 C3462 1.327 1_556 S
C3464 C3483 1.429 . S
C3464 H3488 0.950 1_556 S
C3465 C3482 1.574 . S
C3465 C3484 1.368 . S
C3465 H3489 0.949 . S
H3466 C3470 0.949 . S
C3467 C3468 1.349 . S
C3467 C3469 1.327 . S
C3467 H3490 0.950 . S
C3468 C3467 1.349 . S
C3468 C3480 1.349 . S
C3469 C3467 1.327 . S
C3469 C3485 1.429 . S
C3469 H3491 0.950 . S
C3470 H3466 0.949 . S
C3470 C3478 1.574 . S
C3470 C3486 1.368 . S
H3471 C3479 0.950 . S
H3472 C3477 0.950 . S
H3473 C3478 0.949 . S
H3474 C3480 0.950 . S
H3475 C3481 0.950 . S
H3476 C3482 0.949 . S
C3477 H3472 0.950 . S
C3477 C3479 1.327 . S
C3477 C3483 1.429 . S
C3478 C3470 1.574 . S
C3478 H3473 0.949 . S
C3478 C3484 1.368 . S
C3479 C3463 1.349 . S
C3479 H3471 0.950 . S
C3479 C3477 1.327 . S
C3480 C3468 1.349 . S
C3480 H3474 0.950 . S
C3480 C3481 1.327 . S
C3481 H3475 0.950 . S
C3481 C3480 1.327 . S
C3481 C3485 1.429 . S
C3482 C3465 1.574 . S
C3482 H3476 0.949 . S
C3482 C3486 1.368 . S
C3483 C3464 1.429 . S
C3483 C3477 1.429 . S
C3483 C3484 1.523 . S
C3484 C3465 1.368 . S
C3484 C3478 1.368 . S
C3484 C3483 1.523 . S
C3485 C3469 1.429 . S
C3485 C3481 1.429 . S
C3485 C3486 1.523 . S
C3486 C3470 1.368 . S
C3486 C3482 1.368 . S
C3486 C3485 1.523 . S
H3487 C3462 0.950 . S
H3488 C3464 0.950 1_554 S
H3489 C3465 0.949 . S
H3490 C3467 0.950 . S
H3491 C3469 0.950 . S
C3492 C3493 1.349 . S
C3492 C3494 1.327 . S
C3492 H3517 0.950 . S
C3493 C3492 1.349 . S
C3493 C3509 1.349 . S
C3494 C3492 1.327 . S
C3494 C3513 1.429 . S
C3494 H3518 0.950 . S
C3495 C3512 1.574 . S
C3495 C3514 1.368 . S
C3495 H3519 0.949 . S
H3496 C3500 0.949 . S
C3497 C3498 1.349 . S
C3497 C3499 1.327 . S
C3497 H3520 0.950 . S
C3498 C3497 1.349 . S
C3498 C3510 1.349 . S
C3499 C3497 1.327 . S
C3499 C3515 1.429 . S
C3499 H3521 0.950 . S
C3500 H3496 0.949 . S
C3500 C3508 1.574 . S
C3500 C3516 1.368 . S
H3501 C3509 0.950 1_545 S
H3502 C3507 0.932 1_545 S
H3503 C3508 0.949 . S
H3504 C3510 0.950 . S
H3505 C3511 0.950 . S
H3506 C3512 0.949 . S
C3507 H3502 0.932 1_565 S
C3507 C3509 1.327 . S
C3507 C3513 1.429 . S
C3508 C3500 1.574 . S
C3508 H3503 0.949 . S
C3508 C3514 1.368 . S
C3509 C3493 1.349 . S
C3509 H3501 0.950 1_565 S
C3509 C3507 1.327 . S
C3510 C3498 1.349 . S
C3510 H3504 0.950 . S
C3510 C3511 1.327 . S
C3511 H3505 0.950 . S
C3511 C3510 1.327 . S
C3511 C3515 1.429 . S
C3512 C3495 1.574 . S
C3512 H3506 0.949 . S
C3512 C3516 1.368 . S
C3513 C3494 1.429 . S
C3513 C3507 1.429 . S
C3513 C3514 1.523 . S
C3514 C3495 1.368 . S
C3514 C3508 1.368 . S
C3514 C3513 1.523 . S
C3515 C3499 1.429 . S
C3515 C3511 1.429 . S
C3515 C3516 1.523 . S
C3516 C3500 1.368 . S
C3516 C3512 1.368 . S
C3516 C3515 1.523 . S
H3517 C3492 0.950 . S
H3518 C3494 0.950 . S
H3519 C3495 0.949 . S
H3520 C3497 0.950 . S
H3521 C3499 0.950 . S
C3522 C3523 1.349 . S
C3522 C3524 1.327 . S
C3522 H3547 0.950 . S
C3523 C3522 1.349 . S
C3523 C3539 1.349 . S
C3524 C3522 1.327 . S
C3524 C3543 1.429 . S
C3524 H3548 0.950 . S
C3525 C3542 1.574 . S
C3525 C3544 1.368 . S
C3525 H3549 0.949 . S
H3526 C3530 0.949 . S
C3527 C3528 1.349 . S
C3527 C3529 1.327 . S
C3527 H3550 0.950 . S
C3528 C3527 1.349 . S
C3528 C3540 1.349 . S
C3529 C3527 1.327 . S
C3529 C3545 1.429 . S
C3529 H3551 0.950 . S
C3530 H3526 0.949 . S
C3530 C3538 1.574 1_655 S
C3530 C3546 1.368 . S
H3531 C3539 0.950 . S
H3532 C3537 0.950 . S
H3533 C3538 0.949 . S
H3534 C3540 0.950 . S
H3535 C3541 0.950 . S
H3536 C3542 0.949 . S
C3537 H3532 0.950 . S
C3537 C3539 1.327 . S
C3537 C3543 1.429 . S
C3538 C3530 1.574 1_455 S
C3538 H3533 0.949 . S
C3538 C3544 1.368 . S
C3539 C3523 1.349 . S
C3539 H3531 0.950 . S
C3539 C3537 1.327 . S
C3540 C3528 1.349 . S
C3540 H3534 0.950 . S
C3540 C3541 1.327 . S
C3541 H3535 0.950 . S
C3541 C3540 1.327 . S
C3541 C3545 1.429 . S
C3542 C3525 1.574 . S
C3542 H3536 0.949 . S
C3542 C3546 1.368 1_455 S
C3543 C3524 1.429 . S
C3543 C3537 1.429 . S
C3543 C3544 1.523 . S
C3544 C3525 1.368 . S
C3544 C3538 1.368 . S
C3544 C3543 1.523 . S
C3545 C3529 1.429 . S
C3545 C3541 1.429 . S
C3545 C3546 1.523 . S
C3546 C3530 1.368 . S
C3546 C3542 1.368 1_655 S
C3546 C3545 1.523 . S
H3547 C3522 0.950 . S
H3548 C3524 0.950 . S
H3549 C3525 0.949 . S
H3550 C3527 0.950 . S
H3551 C3529 0.950 . S
C678 C354 0.983 . S
C673 C7 1.021 . S
C703 C23 1.362 . S
C708 C374 1.407 . S
C738 C394 0.903 . S
C733 C36 0.969 . S
C768 C413 1.377 . S
C763 C45 1.364 . S
C798 C371 1.270 . S
C793 C59 1.257 . S
C823 C78 0.966 . S
C828 C396 0.933 . S
C858 C416 1.228 . S
C853 C93 1.199 . S
C883 C105 1.181 . S
C888 C352 1.069 . S
C913 C115 1.499 . S
C918 C349 1.368 . S
C948 C372 1.067 . S
C943 C133 1.133 . S
C978 C395 1.242 . S
C973 C148 1.217 . S
C1008 C417 1.217 . S
C1003 C163 1.256 . S
C1038 C375 0.769 . S
C1033 C121 0.773 . S
C1068 C391 0.869 . S
C1063 C134 0.928 . S
C1093 C147 0.982 . S
C1098 C414 0.932 . S
C1128 C353 0.852 . S
C1123 C157 0.847 . S
C1153 C175 1.313 . S
C1158 C350 1.319 . S
C1183 C191 0.715 . S
C1188 C433 0.732 . S
C1218 C455 1.219 . S
C1213 C199 1.212 . S
C1248 C478 0.951 . S
C1243 C218 1.078 . S
C1273 C231 1.351 . S
C1278 C351 1.302 . S
C1303 C241 1.336 . S
C1308 C393 1.277 . S
C1338 C475 1.095 . S
C1333 C205 1.224 . S
C1368 C436 0.767 . S
C1363 C260 0.781 . S
C1398 C501 0.741 . S
C1393 C22 0.738 . S
C1428 C521 1.543 . S
C1423 C9 1.521 1_655 S
C1453 C49 0.981 . S
C1458 C543 0.942 . S
C1483 C31 0.975 . S
C1488 C560 0.977 . S
C1513 C101 1.574 1_655 S
C1518 C518 1.574 . S
C1543 C91 1.100 . S
C1548 C541 0.971 . S
C1578 C563 1.185 . S
C1573 C79 1.155 . S
C1603 C64 1.057 . S
C1608 C499 0.949 . S
C1633 C274 0.811 . S
C1638 C496 0.785 . S
C1668 C519 1.305 . S
C1663 C213 1.379 . S
C1698 C538 1.197 . S
C1693 C233 1.321 . S
C1728 C564 1.169 . S
C1723 C189 1.264 . S
C1758 C522 0.872 . S
C1753 C273 0.907 . S
C1788 C542 0.888 . S
C1783 C219 0.879 . S
C1818 C561 0.684 . S
C1813 C227 0.661 . S
C1843 C190 1.101 . S
C1848 C500 1.099 . S
C1878 C497 1.215 . S
C1873 C289 1.197 . S
C1903 C162 1.115 . S
C1908 C580 0.972 . S
C1938 C603 1.201 . S
C1933 C301 1.260 . S
C1963 C129 1.189 . S
C1968 C625 1.016 . S
C1998 C498 1.153 . S
C1993 C149 1.183 . S
C2028 C539 1.269 . S
C2023 C315 1.284 . S
C2058 C622 0.822 . S
C2053 C302 0.900 . S
C2083 C325 0.755 . S
C2088 C583 0.752 . S
C2113 C35 1.021 . S
C2118 C648 0.983 . S
C2143 C51 1.362 . S
C2148 C437 1.407 . S
C2178 C457 0.903 . S
C2173 C8 0.969 1_655 S
C2203 C17 1.364 . S
C2208 C476 1.378 . S
C2233 C87 1.260 . S
C2238 C434 1.270 . S
C2263 C106 0.966 1_655 S
C2268 C459 0.933 . S
C2298 C479 1.228 . S
C2293 C65 1.202 . S
C2328 C646 1.069 . S
C2323 C77 1.181 . S
C2358 C643 1.367 . S
C2353 C297 1.499 . S
C2388 C435 1.068 . S
C2383 C287 1.133 . S
C2418 C458 1.242 . S
C2413 C330 1.217 . S
C2443 C317 1.257 . S
C2448 C480 1.217 . S
C2478 C438 0.769 . S
C2473 C303 0.773 . S
C2503 C288 0.928 . S
C2508 C454 0.869 . S
C2538 C477 0.932 . S
C2533 C329 0.982 . S
C2563 C311 0.847 . S
C2568 C647 0.852 . S
C2598 C644 1.319 . S
C2593 C217 1.313 . S
C2623 C247 0.715 . S
C2628 C370 0.732 . S
C2658 C392 1.219 . S
C2653 C269 1.212 . S
C2683 C176 1.078 . S
C2688 C415 0.951 . S
C2718 C645 1.302 . S
C2713 C259 1.351 . S
C2748 C456 1.277 . S
C2743 C185 1.336 . S
C2778 C412 1.095 . S
C2773 C275 1.224 . S
C2808 C373 0.767 . S
C2803 C232 0.780 . S
C2833 C50 0.738 . S
C2838 C669 0.741 . S
C2863 C37 1.521 . S
C2868 C584 1.543 . S
C2893 C21 0.981 . S
C2898 C606 0.942 . S
C2928 C623 0.977 . S
C2923 C3 0.975 . S
C2958 C581 1.574 . S
C2953 C73 1.574 . S
C2983 C63 1.100 . S
C2988 C604 0.970 . S
C3018 C626 1.185 . S
C3013 C107 1.155 . S
C3043 C92 1.057 . S
C3048 C667 0.948 . S
C3078 C664 0.785 . S
C3073 C204 0.811 . S
C3103 C171 1.379 . S
C3108 C582 1.305 . S
C3133 C261 1.321 . S
C3138 C601 1.197 . S
C3168 C627 1.170 . S
C3163 C245 1.264 . S
C3198 C585 0.872 . S
C3193 C203 0.906 . S
C3223 C177 0.879 . S
C3228 C605 0.888 . S
C3258 C624 0.684 . S
C3253 C255 0.660 . S
C3288 C668 1.099 . S
C3283 C246 1.101 . S
C3318 C665 1.215 . S
C3313 C135 1.197 . S
C3348 C517 0.972 . S
C3343 C316 1.115 . S
C3373 C119 1.260 . S
C3378 C540 1.201 . S
C3403 C283 1.189 . S
C3408 C562 1.016 . S
C3438 C666 1.153 . S
C3433 C331 1.183 . S
C3468 C602 1.269 . S
C3463 C161 1.284 . S
C3498 C559 0.822 . S
C3493 C120 0.900 . S
C3528 C520 0.752 . S
C3523 C143 0.755 . S
