# Generated by pormake.
# Topology gar, (4,6)-cn, num edge types: 1
# Building blocks:
#     Node 0, Type 0, BuildingBlock: GALJAG_clean_sbu_0, # of connection points: 4
#     Node 1, Type 0, BuildingBlock: GALJAG_clean_sbu_0, # of connection points: 4
#     Node 2, Type 0, BuildingBlock: GALJAG_clean_sbu_0, # of connection points: 4
#     Node 3, Type 0, BuildingBlock: GALJAG_clean_sbu_0, # of connection points: 4
#     Node 4, Type 0, BuildingBlock: GALJAG_clean_sbu_0, # of connection points: 4
#     Node 5, Type 0, BuildingBlock: GALJAG_clean_sbu_0, # of connection points: 4
#     Node 6, Type 0, BuildingBlock: GALJAG_clean_sbu_0, # of connection points: 4
#     Node 7, Type 0, BuildingBlock: GALJAG_clean_sbu_0, # of connection points: 4
#     Node 8, Type 0, BuildingBlock: GALJAG_clean_sbu_0, # of connection points: 4
#     Node 9, Type 0, BuildingBlock: GALJAG_clean_sbu_0, # of connection points: 4
#     Node 10, Type 0, BuildingBlock: GALJAG_clean_sbu_0, # of connection points: 4
#     Node 11, Type 0, BuildingBlock: GALJAG_clean_sbu_0, # of connection points: 4
#     Node 12, Type 0, BuildingBlock: GALJAG_clean_sbu_0, # of connection points: 4
#     Node 13, Type 0, BuildingBlock: GALJAG_clean_sbu_0, # of connection points: 4
#     Node 14, Type 0, BuildingBlock: GALJAG_clean_sbu_0, # of connection points: 4
#     Node 15, Type 0, BuildingBlock: GALJAG_clean_sbu_0, # of connection points: 4
#     Node 16, Type 0, BuildingBlock: GALJAG_clean_sbu_0, # of connection points: 4
#     Node 17, Type 0, BuildingBlock: GALJAG_clean_sbu_0, # of connection points: 4
#     Node 18, Type 0, BuildingBlock: GALJAG_clean_sbu_0, # of connection points: 4
#     Node 19, Type 0, BuildingBlock: GALJAG_clean_sbu_0, # of connection points: 4
#     Node 20, Type 0, BuildingBlock: GALJAG_clean_sbu_0, # of connection points: 4
#     Node 21, Type 0, BuildingBlock: GALJAG_clean_sbu_0, # of connection points: 4
#     Node 22, Type 0, BuildingBlock: GALJAG_clean_sbu_0, # of connection points: 4
#     Node 23, Type 0, BuildingBlock: GALJAG_clean_sbu_0, # of connection points: 4
#     Node 24, Type 1, BuildingBlock: BETDIP_clean_sbu_0, # of connection points: 6
#     Node 25, Type 1, BuildingBlock: BETDIP_clean_sbu_0, # of connection points: 6
#     Node 26, Type 1, BuildingBlock: BETDIP_clean_sbu_0, # of connection points: 6
#     Node 27, Type 1, BuildingBlock: BETDIP_clean_sbu_0, # of connection points: 6
#     Node 28, Type 1, BuildingBlock: BETDIP_clean_sbu_0, # of connection points: 6
#     Node 29, Type 1, BuildingBlock: BETDIP_clean_sbu_0, # of connection points: 6
#     Node 30, Type 1, BuildingBlock: BETDIP_clean_sbu_0, # of connection points: 6
#     Node 31, Type 1, BuildingBlock: BETDIP_clean_sbu_0, # of connection points: 6
#     Node 32, Type 1, BuildingBlock: BETDIP_clean_sbu_0, # of connection points: 6
#     Node 33, Type 1, BuildingBlock: BETDIP_clean_sbu_0, # of connection points: 6
#     Node 34, Type 1, BuildingBlock: BETDIP_clean_sbu_0, # of connection points: 6
#     Node 35, Type 1, BuildingBlock: BETDIP_clean_sbu_0, # of connection points: 6
#     Node 36, Type 1, BuildingBlock: BETDIP_clean_sbu_0, # of connection points: 6
#     Node 37, Type 1, BuildingBlock: BETDIP_clean_sbu_0, # of connection points: 6
#     Node 38, Type 1, BuildingBlock: BETDIP_clean_sbu_0, # of connection points: 6
#     Node 39, Type 1, BuildingBlock: BETDIP_clean_sbu_0, # of connection points: 6
#     Edge 40, Type (0, 1), BuildingBlock: EZIPEK_clean_linker_0, # of connection points: 2
#     Edge 41, Type (0, 1), BuildingBlock: EZIPEK_clean_linker_0, # of connection points: 2
#     Edge 42, Type (0, 1), BuildingBlock: EZIPEK_clean_linker_0, # of connection points: 2
#     Edge 43, Type (0, 1), BuildingBlock: EZIPEK_clean_linker_0, # of connection points: 2
#     Edge 44, Type (0, 1), BuildingBlock: EZIPEK_clean_linker_0, # of connection points: 2
#     Edge 45, Type (0, 1), BuildingBlock: EZIPEK_clean_linker_0, # of connection points: 2
#     Edge 46, Type (0, 1), BuildingBlock: EZIPEK_clean_linker_0, # of connection points: 2
#     Edge 47, Type (0, 1), BuildingBlock: EZIPEK_clean_linker_0, # of connection points: 2
#     Edge 48, Type (0, 1), BuildingBlock: EZIPEK_clean_linker_0, # of connection points: 2
#     Edge 49, Type (0, 1), BuildingBlock: EZIPEK_clean_linker_0, # of connection points: 2
#     Edge 50, Type (0, 1), BuildingBlock: EZIPEK_clean_linker_0, # of connection points: 2
#     Edge 51, Type (0, 1), BuildingBlock: EZIPEK_clean_linker_0, # of connection points: 2
#     Edge 52, Type (0, 1), BuildingBlock: EZIPEK_clean_linker_0, # of connection points: 2
#     Edge 53, Type (0, 1), BuildingBlock: EZIPEK_clean_linker_0, # of connection points: 2
#     Edge 54, Type (0, 1), BuildingBlock: EZIPEK_clean_linker_0, # of connection points: 2
#     Edge 55, Type (0, 1), BuildingBlock: EZIPEK_clean_linker_0, # of connection points: 2
#     Edge 56, Type (0, 1), BuildingBlock: EZIPEK_clean_linker_0, # of connection points: 2
#     Edge 57, Type (0, 1), BuildingBlock: EZIPEK_clean_linker_0, # of connection points: 2
#     Edge 58, Type (0, 1), BuildingBlock: EZIPEK_clean_linker_0, # of connection points: 2
#     Edge 59, Type (0, 1), BuildingBlock: EZIPEK_clean_linker_0, # of connection points: 2
#     Edge 60, Type (0, 1), BuildingBlock: EZIPEK_clean_linker_0, # of connection points: 2
#     Edge 61, Type (0, 1), BuildingBlock: EZIPEK_clean_linker_0, # of connection points: 2
#     Edge 62, Type (0, 1), BuildingBlock: EZIPEK_clean_linker_0, # of connection points: 2
#     Edge 63, Type (0, 1), BuildingBlock: EZIPEK_clean_linker_0, # of connection points: 2
#     Edge 64, Type (0, 1), BuildingBlock: EZIPEK_clean_linker_0, # of connection points: 2
#     Edge 65, Type (0, 1), BuildingBlock: EZIPEK_clean_linker_0, # of connection points: 2
#     Edge 66, Type (0, 1), BuildingBlock: EZIPEK_clean_linker_0, # of connection points: 2
#     Edge 67, Type (0, 1), BuildingBlock: EZIPEK_clean_linker_0, # of connection points: 2
#     Edge 68, Type (0, 1), BuildingBlock: EZIPEK_clean_linker_0, # of connection points: 2
#     Edge 69, Type (0, 1), BuildingBlock: EZIPEK_clean_linker_0, # of connection points: 2
#     Edge 70, Type (0, 1), BuildingBlock: EZIPEK_clean_linker_0, # of connection points: 2
#     Edge 71, Type (0, 1), BuildingBlock: EZIPEK_clean_linker_0, # of connection points: 2
#     Edge 72, Type (0, 1), BuildingBlock: EZIPEK_clean_linker_0, # of connection points: 2
#     Edge 73, Type (0, 1), BuildingBlock: EZIPEK_clean_linker_0, # of connection points: 2
#     Edge 74, Type (0, 1), BuildingBlock: EZIPEK_clean_linker_0, # of connection points: 2
#     Edge 75, Type (0, 1), BuildingBlock: EZIPEK_clean_linker_0, # of connection points: 2
#     Edge 76, Type (0, 1), BuildingBlock: EZIPEK_clean_linker_0, # of connection points: 2
#     Edge 77, Type (0, 1), BuildingBlock: EZIPEK_clean_linker_0, # of connection points: 2
#     Edge 78, Type (0, 1), BuildingBlock: EZIPEK_clean_linker_0, # of connection points: 2
#     Edge 79, Type (0, 1), BuildingBlock: EZIPEK_clean_linker_0, # of connection points: 2
#     Edge 80, Type (0, 1), BuildingBlock: EZIPEK_clean_linker_0, # of connection points: 2
#     Edge 81, Type (0, 1), BuildingBlock: EZIPEK_clean_linker_0, # of connection points: 2
#     Edge 82, Type (0, 1), BuildingBlock: EZIPEK_clean_linker_0, # of connection points: 2
#     Edge 83, Type (0, 1), BuildingBlock: EZIPEK_clean_linker_0, # of connection points: 2
#     Edge 84, Type (0, 1), BuildingBlock: EZIPEK_clean_linker_0, # of connection points: 2
#     Edge 85, Type (0, 1), BuildingBlock: EZIPEK_clean_linker_0, # of connection points: 2
#     Edge 86, Type (0, 1), BuildingBlock: EZIPEK_clean_linker_0, # of connection points: 2
#     Edge 87, Type (0, 1), BuildingBlock: EZIPEK_clean_linker_0, # of connection points: 2
#     Edge 88, Type (0, 1), BuildingBlock: EZIPEK_clean_linker_0, # of connection points: 2
#     Edge 89, Type (0, 1), BuildingBlock: EZIPEK_clean_linker_0, # of connection points: 2
#     Edge 90, Type (0, 1), BuildingBlock: EZIPEK_clean_linker_0, # of connection points: 2
#     Edge 91, Type (0, 1), BuildingBlock: EZIPEK_clean_linker_0, # of connection points: 2
#     Edge 92, Type (0, 1), BuildingBlock: EZIPEK_clean_linker_0, # of connection points: 2
#     Edge 93, Type (0, 1), BuildingBlock: EZIPEK_clean_linker_0, # of connection points: 2
#     Edge 94, Type (0, 1), BuildingBlock: EZIPEK_clean_linker_0, # of connection points: 2
#     Edge 95, Type (0, 1), BuildingBlock: EZIPEK_clean_linker_0, # of connection points: 2
#     Edge 96, Type (0, 1), BuildingBlock: EZIPEK_clean_linker_0, # of connection points: 2
#     Edge 97, Type (0, 1), BuildingBlock: EZIPEK_clean_linker_0, # of connection points: 2
#     Edge 98, Type (0, 1), BuildingBlock: EZIPEK_clean_linker_0, # of connection points: 2
#     Edge 99, Type (0, 1), BuildingBlock: EZIPEK_clean_linker_0, # of connection points: 2
#     Edge 100, Type (0, 1), BuildingBlock: EZIPEK_clean_linker_0, # of connection points: 2
#     Edge 101, Type (0, 1), BuildingBlock: EZIPEK_clean_linker_0, # of connection points: 2
#     Edge 102, Type (0, 1), BuildingBlock: EZIPEK_clean_linker_0, # of connection points: 2
#     Edge 103, Type (0, 1), BuildingBlock: EZIPEK_clean_linker_0, # of connection points: 2
#     Edge 104, Type (0, 1), BuildingBlock: EZIPEK_clean_linker_0, # of connection points: 2
#     Edge 105, Type (0, 1), BuildingBlock: EZIPEK_clean_linker_0, # of connection points: 2
#     Edge 106, Type (0, 1), BuildingBlock: EZIPEK_clean_linker_0, # of connection points: 2
#     Edge 107, Type (0, 1), BuildingBlock: EZIPEK_clean_linker_0, # of connection points: 2
#     Edge 108, Type (0, 1), BuildingBlock: EZIPEK_clean_linker_0, # of connection points: 2
#     Edge 109, Type (0, 1), BuildingBlock: EZIPEK_clean_linker_0, # of connection points: 2
#     Edge 110, Type (0, 1), BuildingBlock: EZIPEK_clean_linker_0, # of connection points: 2
#     Edge 111, Type (0, 1), BuildingBlock: EZIPEK_clean_linker_0, # of connection points: 2
#     Edge 112, Type (0, 1), BuildingBlock: EZIPEK_clean_linker_0, # of connection points: 2
#     Edge 113, Type (0, 1), BuildingBlock: EZIPEK_clean_linker_0, # of connection points: 2
#     Edge 114, Type (0, 1), BuildingBlock: EZIPEK_clean_linker_0, # of connection points: 2
#     Edge 115, Type (0, 1), BuildingBlock: EZIPEK_clean_linker_0, # of connection points: 2
#     Edge 116, Type (0, 1), BuildingBlock: EZIPEK_clean_linker_0, # of connection points: 2
#     Edge 117, Type (0, 1), BuildingBlock: EZIPEK_clean_linker_0, # of connection points: 2
#     Edge 118, Type (0, 1), BuildingBlock: EZIPEK_clean_linker_0, # of connection points: 2
#     Edge 119, Type (0, 1), BuildingBlock: EZIPEK_clean_linker_0, # of connection points: 2
#     Edge 120, Type (0, 1), BuildingBlock: EZIPEK_clean_linker_0, # of connection points: 2
#     Edge 121, Type (0, 1), BuildingBlock: EZIPEK_clean_linker_0, # of connection points: 2
#     Edge 122, Type (0, 1), BuildingBlock: EZIPEK_clean_linker_0, # of connection points: 2
#     Edge 123, Type (0, 1), BuildingBlock: EZIPEK_clean_linker_0, # of connection points: 2
#     Edge 124, Type (0, 1), BuildingBlock: EZIPEK_clean_linker_0, # of connection points: 2
#     Edge 125, Type (0, 1), BuildingBlock: EZIPEK_clean_linker_0, # of connection points: 2
#     Edge 126, Type (0, 1), BuildingBlock: EZIPEK_clean_linker_0, # of connection points: 2
#     Edge 127, Type (0, 1), BuildingBlock: EZIPEK_clean_linker_0, # of connection points: 2
#     Edge 128, Type (0, 1), BuildingBlock: EZIPEK_clean_linker_0, # of connection points: 2
#     Edge 129, Type (0, 1), BuildingBlock: EZIPEK_clean_linker_0, # of connection points: 2
#     Edge 130, Type (0, 1), BuildingBlock: EZIPEK_clean_linker_0, # of connection points: 2
#     Edge 131, Type (0, 1), BuildingBlock: EZIPEK_clean_linker_0, # of connection points: 2
#     Edge 132, Type (0, 1), BuildingBlock: EZIPEK_clean_linker_0, # of connection points: 2
#     Edge 133, Type (0, 1), BuildingBlock: EZIPEK_clean_linker_0, # of connection points: 2
#     Edge 134, Type (0, 1), BuildingBlock: EZIPEK_clean_linker_0, # of connection points: 2
#     Edge 135, Type (0, 1), BuildingBlock: EZIPEK_clean_linker_0, # of connection points: 2
# Relax obj value: 0.254
# Max RMSD: 0.361
# Mean RMSD: 0.181
data_MOF--net-gar--node1-GALJAG_clean_sbu_0--node2-BETDIP_clean_sbu_0--edge1-EZIPEK_clean_linker_0
_symmetry_space_group_name_H-M    P1
_symmetry_Int_Tables_number       1
_symmetry_cell_setting            triclinic
loop_
_symmetry_equiv_pos_as_xyz
'x, y, z'
_cell_length_a     48.989842
_cell_length_b     42.253144
_cell_length_c     40.03846
_cell_angle_alpha  96.986382
_cell_angle_beta   99.999836
_cell_angle_gamma 101.2398
loop_
_atom_site_label
_atom_site_type_symbol
_atom_site_fract_x
_atom_site_fract_y
_atom_site_fract_z
_atom_type_partial_charge
In0 In 0.05289 0.36342 0.41533 0.0
O1 O 0.06866 0.3451 0.36858 0.0
O2 O 0.09858 0.37818 0.40871 0.0
C3 C 1.00091 0.36408 0.38487 0.0
C4 C 0.04721 0.30832 0.44153 0.0
C5 C 0.06572 0.41197 0.46763 0.0
O6 O 1.022 0.38266 0.37794 0.0
O7 O 1.00624 0.34541 0.40604 0.0
O8 O 0.07503 0.3863 0.46906 0.0
O9 O 0.05178 0.41455 0.43877 0.0
C10 C 0.09418 0.35929 0.3805 0.0
O11 O 0.04694 0.33531 0.45851 0.0
O12 O 0.04979 0.30873 0.41081 0.0
In13 In 0.0953 0.77031 0.764 0.0
O14 O 0.09634 0.8098 0.73202 0.0
O15 O 0.11997 0.82252 0.78382 0.0
C16 C 0.06868 0.72234 0.71186 0.0
C17 C 0.14679 0.75713 0.77927 0.0
C18 C 0.05852 0.78074 0.80401 0.0
O19 O 0.07638 0.75158 0.7079 0.0
O20 O 0.07405 0.71782 0.74275 0.0
O21 O 0.08006 0.76985 0.81489 0.0
O22 O 0.05516 0.78502 0.77315 0.0
C23 C 0.11261 0.83137 0.75531 0.0
O24 O 0.12899 0.75189 0.79847 0.0
O25 O 0.13803 0.76727 0.75202 0.0
In26 In 0.55147 0.85656 0.91627 0.0
O27 O 0.5669 0.83919 0.86861 0.0
O28 O 0.59728 0.87039 0.90966 0.0
C29 C 0.49935 0.85958 0.88733 0.0
C30 C 0.54683 0.80219 0.94327 0.0
C31 C 0.56374 0.90557 0.96863 0.0
O32 O 0.52077 0.87939 0.88281 0.0
O33 O 0.50449 0.83763 0.90451 0.0
O34 O 0.57322 0.88008 0.97099 0.0
O35 O 0.55056 0.90742 0.93911 0.0
C36 C 0.59261 0.85236 0.88088 0.0
O37 O 0.54615 0.82918 0.95986 0.0
O38 O 0.54837 0.80201 0.91217 0.0
In39 In 0.60019 0.27678 0.27653 0.0
O40 O 0.59729 0.25804 0.22035 0.0
O41 O 0.57226 0.22841 0.24759 0.0
C42 C 0.62098 0.33245 0.25607 0.0
C43 C 0.5617 0.2861 0.31447 0.0
C44 C 0.64778 0.26322 0.31039 0.0
O45 O 0.59646 0.31533 0.24296 0.0
O46 O 0.63487 0.32222 0.28039 0.0
O47 O 0.63621 0.28507 0.32226 0.0
O48 O 0.63375 0.24656 0.28219 0.0
C49 C 0.57961 0.23181 0.2193 0.0
O50 O 0.57416 0.26279 0.31674 0.0
O51 O 0.56819 0.30397 0.29284 0.0
In52 In 0.12146 0.83212 0.19892 0.0
O53 O 0.11587 0.79355 0.15029 0.0
O54 O 0.10998 0.77678 0.19695 0.0
C55 C 0.11956 0.88857 0.17056 0.0
C56 C 0.0756 0.82698 0.23034 0.0
C57 C 0.1763 0.834 0.23141 0.0
O58 O 0.11056 0.86015 0.15337 0.0
O59 O 0.13059 0.88863 0.20156 0.0
O60 O 0.15763 0.84149 0.24717 0.0
O61 O 0.16793 0.82757 0.19917 0.0
C62 C 0.11033 0.76932 0.16563 0.0
O63 O 0.10074 0.83003 0.24663 0.0
O64 O 0.07374 0.82739 0.19859 0.0
In65 In 0.53726 0.79158 0.49989 0.0
O66 O 0.55917 0.79139 0.45308 0.0
O67 O 0.58552 0.80165 0.50272 0.0
C68 C 0.48159 0.78634 0.46701 0.0
C69 C 0.5421 0.73679 0.53077 0.0
C70 C 0.54756 0.85601 0.52821 0.0
O71 O 0.5002 0.77766 0.45179 0.0
O72 O 0.49034 0.79477 0.49905 0.0
O73 O 0.55098 0.83398 0.5464 0.0
O74 O 0.53939 0.84542 0.49653 0.0
C75 C 0.58428 0.7983 0.4707 0.0
O76 O 0.53665 0.76216 0.5461 0.0
O77 O 0.54332 0.73856 0.49981 0.0
In78 In 0.62166 0.32984 0.6999 0.0
O79 O 0.61952 0.29353 0.65073 0.0
O80 O 0.61263 0.2744 0.69604 0.0
C81 C 0.61584 0.38309 0.66705 0.0
C82 C 0.57634 0.32497 0.7318 0.0
C83 C 0.67514 0.33209 0.73745 0.0
O84 O 0.60267 0.35417 0.65475 0.0
O85 O 0.63273 0.38524 0.69533 0.0
O86 O 0.65378 0.33334 0.75086 0.0
O87 O 0.67006 0.33124 0.70525 0.0
C88 C 0.61394 0.26844 0.66482 0.0
O89 O 0.60035 0.34322 0.74543 0.0
O90 O 0.57521 0.30969 0.7024 0.0
In91 In 0.0395 0.293 0.99744 0.0
O92 O 0.03786 0.26258 0.04244 0.0
O93 O 0.04668 0.24039 0.99653 0.0
C94 C 0.04803 0.35594 0.03048 0.0
C95 C 0.08553 0.29764 0.96706 0.0
C96 C 0.98514 0.28818 0.96062 0.0
O97 O 0.05189 0.33282 0.0469 0.0
O98 O 0.03995 0.34703 0.99858 0.0
O99 O 1.00758 0.29961 0.95077 0.0
O100 O 0.98992 0.27677 0.9883 0.0
C101 C 0.04396 0.23769 0.02692 0.0
O102 O 0.0607 0.28321 0.9513 0.0
O103 O 0.08721 0.30952 0.99804 0.0
In104 In 0.44715 0.08225 0.32971 0.0
O105 O 0.48869 0.09003 0.3018 0.0
O106 O 0.45004 0.07256 0.26836 0.0
C107 C 0.48534 0.08227 0.39518 0.0
C108 C 0.41626 0.13838 0.32984 0.0
C109 C 0.41297 1.01703 0.32944 0.0
O110 O 0.48368 0.06436 0.36689 0.0
O111 O 0.46896 0.10188 0.39056 0.0
O112 O 0.41491 0.04213 0.35129 0.0
O113 O 0.42626 1.02509 0.30625 0.0
C114 C 0.47679 0.08004 0.27038 0.0
O115 O 0.40484 0.10789 0.32426 0.0
O116 O 0.44307 0.14087 0.33457 0.0
In117 In 0.28975 0.19714 0.56986 0.0
O118 O 0.29169 0.24192 0.61 0.0
O119 O 0.30132 0.19929 0.62785 0.0
C120 C 0.29492 0.22638 0.51291 0.0
C121 C 0.33706 0.1715 0.57577 0.0
C122 C 0.23475 0.16407 0.56657 0.0
O123 O 0.29757 0.24229 0.54251 0.0
O124 O 0.28881 0.19572 0.51156 0.0
O125 O 0.25538 0.15012 0.56749 0.0
O126 O 0.24137 0.19414 0.56502 0.0
C127 C 0.29853 0.22812 0.63552 0.0
O128 O 0.31225 0.15405 0.56453 0.0
O129 O 0.33799 0.20167 0.58305 0.0
In130 In 0.1769 0.11526 0.88017 0.0
O131 O 0.13319 0.10542 0.84206 0.0
O132 O 0.17111 0.11495 0.82281 0.0
C133 C 0.1567 0.10363 0.93788 0.0
C134 C 0.19935 0.06523 0.86182 0.0
C135 C 0.21673 0.17153 0.89047 0.0
O136 O 0.14932 0.12488 0.92064 0.0
O137 O 0.17437 0.08953 0.92662 0.0
O138 O 0.22132 0.14606 0.90162 0.0
O139 O 0.19111 0.16994 0.87679 0.0
C140 C 0.14446 0.10744 0.81601 0.0
O141 O 0.21448 0.09335 0.87371 0.0
O142 O 0.17309 0.06173 0.86103 0.0
In143 In 0.26805 0.90636 0.03782 0.0
O144 O 0.25669 0.86478 0.06694 0.0
O145 O 0.29973 0.87954 0.06054 0.0
C146 C 0.24933 0.87629 0.97288 0.0
C147 C 0.2444 0.94226 0.07847 0.0
C148 C 0.31425 0.94769 0.03086 0.0
O149 O 0.24695 0.86181 0.99828 0.0
O150 O 0.25665 0.90688 0.98094 0.0
O151 O 0.28965 0.95237 0.02122 0.0
O152 O 0.31556 0.92202 0.04359 0.0
C153 C 0.28201 0.86109 0.07294 0.0
O154 O 0.26993 0.94039 0.0856 0.0
O155 O 0.22996 0.92542 0.05051 0.0
In156 In 0.36693 0.42646 0.12447 0.0
O157 O 0.36887 0.38118 0.1512 0.0
O158 O 0.35786 0.42125 0.17836 0.0
C159 C 0.3597 0.39924 0.05785 0.0
C160 C 0.32091 0.45458 0.11787 0.0
C161 C 0.42262 0.45846 0.13333 0.0
O162 O 0.3509 0.38317 0.07998 0.0
O163 O 0.37206 0.42852 0.06941 0.0
O164 O 0.4027 0.47338 0.13448 0.0
O165 O 0.41488 0.42783 0.13074 0.0
C166 C 0.36124 0.39236 0.17793 0.0
O167 O 0.34582 0.47065 0.13151 0.0
O168 O 0.31932 0.42464 0.10798 0.0
In169 In 0.87722 0.2248 0.13201 0.0
O170 O 0.92003 0.21132 0.14331 0.0
O171 O 0.89705 0.20196 0.09165 0.0
C172 C 0.83332 0.18239 0.14465 0.0
C173 C 0.88993 0.2653 0.19045 0.0
C174 C 0.84831 0.251 0.0854 0.0
O175 O 0.85277 0.1729 0.13221 0.0
O176 O 0.83644 0.21279 0.15143 0.0
O177 O 0.87011 0.26813 0.10618 0.0
O178 O 0.84352 0.22072 0.08576 0.0
C179 C 0.91765 0.19782 0.11285 0.0
O180 O 0.88923 0.27553 0.16197 0.0
O181 O 0.89022 0.2354 0.18911 0.0
In182 In 0.20443 0.54242 0.36034 0.0
O183 O 0.24435 0.5136 0.37362 0.0
O184 O 0.20743 0.48362 0.3463 0.0
C185 C 0.23765 0.6088 0.36303 0.0
C186 C 0.16987 0.54108 0.29229 0.0
C187 C 0.17505 0.54738 0.42016 0.0
O188 O 0.24787 0.5834 0.36318 0.0
O189 O 0.21133 0.60107 0.36267 0.0
O190 O 0.16365 0.53363 0.38953 0.0
O191 O 0.20148 0.55739 0.42128 0.0
C192 C 0.23318 0.48413 0.35954 0.0
O193 O 0.16024 0.53695 0.31925 0.0
O194 O 0.19661 0.54433 0.29883 0.0
In195 In 0.87025 0.92855 0.62517 0.0
O196 O 0.87576 0.8859 0.65535 0.0
O197 O 0.85844 0.92284 0.67822 0.0
C198 C 0.86047 0.8934 0.56088 0.0
C199 C 0.8241 0.95618 0.61986 0.0
C200 C 0.92456 0.96504 0.63105 0.0
O201 O 0.85861 0.88015 0.58722 0.0
O202 O 0.86705 0.92418 0.56667 0.0
O203 O 0.90277 0.9768 0.62535 0.0
O204 O 0.91926 0.9357 0.63571 0.0
C205 C 0.86522 0.89571 0.68021 0.0
O206 O 0.84797 0.9706 0.63845 0.0
O207 O 0.82348 0.92806 0.6045 0.0
In208 In 0.97577 1.01831 0.31819 0.0
O209 O 1.01373 1.02216 0.29095 0.0
O210 O 0.97469 0.02722 0.26226 0.0
C211 C 1.00468 1.02404 0.38346 0.0
C212 C 0.95725 0.07366 0.32599 0.0
C213 C 0.93752 0.96037 0.31098 0.0
O214 O 1.01616 1.01908 0.35795 0.0
O215 O 0.97886 1.02502 0.37601 0.0
O216 O 0.93114 0.98781 0.31358 0.0
O217 O 0.96336 0.96145 0.31016 0.0
C218 C 1.00062 0.02789 0.26311 0.0
O219 O 0.94168 0.0471 0.3095 0.0
O220 O 0.98257 0.07275 0.33807 0.0
In221 In 0.38678 0.7292 0.65336 0.0
O222 O 0.3872 0.69457 0.60674 0.0
O223 O 0.42711 0.71686 0.63991 0.0
C224 C 0.34505 0.68294 0.66435 0.0
C225 C 0.41343 0.76842 0.71181 0.0
C226 C 0.35817 0.76693 0.62077 0.0
O227 O 0.37072 0.68152 0.67302 0.0
O228 O 0.34083 0.70779 0.6519 0.0
O229 O 0.3548 0.76052 0.64986 0.0
O230 O 0.3771 0.75556 0.60859 0.0
C231 C 0.41359 0.69689 0.61345 0.0
O232 O 0.41279 0.77779 0.68297 0.0
O233 O 0.40553 0.7378 0.70962 0.0
In234 In 0.48369 0.5174 0.8136 0.0
O235 O 0.44783 0.54191 0.79671 0.0
O236 O 0.48605 0.57116 0.82907 0.0
C237 C 0.44326 0.46344 0.81295 0.0
C238 C 0.51152 0.52696 0.76126 0.0
C239 C 0.51093 0.52312 0.87917 0.0
O240 O 0.43807 0.49101 0.80949 0.0
O241 O 0.46905 0.46208 0.81471 0.0
O242 O 0.51757 0.50582 0.85503 0.0
O243 O 0.4911 0.53716 0.87014 0.0
C244 C 0.46122 0.56961 0.81294 0.0
O245 O 0.52257 0.53819 0.79224 0.0
O246 O 0.48732 0.50815 0.75659 0.0
In247 In 0.70484 0.04446 0.86275 0.0
O248 O 0.74531 1.01606 0.87558 0.0
O249 O 0.7087 0.98599 0.84766 0.0
C250 C 0.73839 0.11097 0.86727 0.0
C251 C 0.67123 0.04215 0.79396 0.0
C252 C 0.67434 0.05085 0.92148 0.0
O253 O 0.74807 0.08518 0.86419 0.0
O254 O 0.71255 0.10343 0.86943 0.0
O255 O 0.66332 0.0471 0.88975 0.0
O256 O 0.70044 0.05008 0.92415 0.0
C257 C 0.73445 0.98661 0.86104 0.0
O258 O 0.66333 1.02482 0.81584 0.0
O259 O 0.69613 0.05906 0.80577 0.0
In260 In 0.78395 0.6971 0.06824 0.0
O261 O 0.80548 0.65387 0.05744 0.0
O262 O 0.83192 0.69905 0.08334 0.0
C263 C 0.73047 0.66074 0.06855 0.0
C264 C 0.7943 0.7309 0.13323 0.0
C265 C 0.78799 0.72754 0.01119 0.0
O266 O 0.75182 0.64845 0.06723 0.0
O267 O 0.73547 0.69112 0.06803 0.0
O268 O 0.79459 0.74262 0.04161 0.0
O269 O 0.77803 0.69729 1.00907 0.0
C270 C 0.83035 0.66955 0.07154 0.0
O271 O 0.78638 0.74334 0.10705 0.0
O272 O 0.79664 0.70172 0.12672 0.0
In273 In 0.94842 0.58344 0.82987 0.0
O274 O 0.90674 0.61045 0.82776 0.0
O275 O 0.94492 0.64267 0.83656 0.0
C276 C 0.91667 0.51638 0.82741 0.0
C277 C 0.978 0.57723 0.77008 0.0
C278 C 0.9834 0.58615 0.89815 0.0
O279 O 0.90658 0.53775 0.81248 0.0
O280 O 0.94215 0.5284 0.84239 0.0
O281 O 0.99273 0.59636 0.87279 0.0
O282 O 0.95659 0.57663 0.88999 0.0
C283 C 0.91826 0.64082 0.83289 0.0
O284 O 0.98972 0.58894 0.80112 0.0
O285 O 0.95135 0.56926 0.76851 0.0
In286 In 0.76788 0.39731 0.52548 0.0
O287 O 0.80482 0.37281 0.53667 0.0
O288 O 0.77187 0.36501 0.56569 0.0
C289 C 0.74471 0.36061 0.46372 0.0
C290 C 0.74287 0.43069 0.56757 0.0
C291 C 0.81167 0.44213 0.51826 0.0
O292 O 0.74988 0.34854 0.49067 0.0
O293 O 0.74499 0.3906 0.46973 0.0
O294 O 0.78891 0.43439 0.49599 0.0
O295 O 0.81233 0.42736 0.54373 0.0
C296 C 0.79539 0.35977 0.56034 0.0
O297 O 0.75605 0.44347 0.54663 0.0
O298 O 0.73926 0.40008 0.56457 0.0
In299 In 0.67636 0.60755 0.37554 0.0
O300 O 0.71266 0.58599 0.3628 0.0
O301 O 0.67245 0.55383 0.35839 0.0
C302 C 0.71745 0.66233 0.38354 0.0
C303 C 0.64158 0.59767 0.3129 0.0
C304 C 0.65734 0.59916 0.43429 0.0
O305 O 0.7224 0.63508 0.38922 0.0
O306 O 0.69133 0.66293 0.37603 0.0
O307 O 0.64659 0.61565 0.41329 0.0
O308 O 0.67854 0.58941 0.42692 0.0
C309 C 0.69769 0.55736 0.35436 0.0
O310 O 0.63654 0.58038 0.33551 0.0
O311 O 0.66222 0.62185 0.32293 0.0
Tb312 Tb 0.05769 0.04376 0.07707 0.0
Tb313 Tb 0.10543 0.08602 0.12963 0.0
C314 C 1.00729 1.01872 0.04863 0.0
C315 C 0.98365 0.03324 0.05555 0.0
C316 C 0.98417 0.04653 0.08963 0.0
C317 C 0.97042 0.07153 0.09646 0.0
C318 C 0.95568 0.08339 0.06936 0.0
C319 C 0.95261 0.06819 0.03539 0.0
C320 C 0.96667 0.04312 0.02848 0.0
C321 C 0.10047 0.05984 0.04512 0.0
C322 C 0.06654 0.12169 0.08634 0.0
C323 C 0.15369 0.10916 0.16568 0.0
C324 C 0.17776 0.09491 0.16011 0.0
C325 C 0.17871 0.0831 0.12607 0.0
C326 C 0.19366 0.05936 0.11926 0.0
C327 C 0.2085 0.04744 0.14627 0.0
C328 C 0.20991 0.06112 0.18041 0.0
C329 C 0.19418 0.08459 0.18735 0.0
C330 C 0.0578 0.0698 0.15357 0.0
C331 C 0.09948 1.00722 0.1157 0.0
O332 O 1.02082 1.00743 0.07402 0.0
O333 O 1.02475 0.0372 0.03412 0.0
O334 O 0.10037 0.06824 0.07654 0.0
O335 O 0.0769 0.03899 0.032 0.0
O336 O 0.04797 0.09317 0.08033 0.0
O337 O 0.09237 0.12458 0.10401 0.0
O338 O 0.14285 0.12287 0.14051 0.0
O339 O 0.13412 0.0894 0.1761 0.0
O340 O 0.06771 0.05265 0.13271 0.0
O341 O 0.07385 0.09895 0.15847 0.0
O342 O 0.11571 0.03682 0.12874 0.0
O343 O 0.075 1.00336 0.09396 0.0
H344 H 0.99745 0.04004 0.11102 0.0
H345 H 0.97271 0.08297 0.12284 0.0
H346 H 0.94094 0.0771 0.01433 0.0
H347 H 0.96645 0.03367 1.00202 0.0
H348 H 0.16589 0.08994 0.10441 0.0
H349 H 0.19264 0.04923 0.09274 0.0
H350 H 0.22174 0.05232 0.20143 0.0
H351 H 0.19319 0.09286 0.21371 0.0
Tb352 Tb 0.34051 0.79809 0.326 0.0
Tb353 Tb 0.31754 0.82576 0.37177 0.0
C354 C 0.36021 0.77941 0.27475 0.0
C355 C 0.34972 0.77761 0.23812 0.0
C356 C 0.32032 0.7711 0.22517 0.0
C357 C 0.31016 0.77818 0.19303 0.0
C358 C 0.32928 0.79211 0.17388 0.0
C359 C 0.3586 0.79585 0.1853 0.0
C360 C 0.36882 0.78859 0.21752 0.0
C361 C 0.3715 0.79648 0.38794 0.0
C362 C 0.35677 0.87726 0.34173 0.0
C363 C 0.29635 0.84539 0.42138 0.0
C364 C 0.29862 0.83988 0.45673 0.0
C365 C 0.32466 0.83676 0.4754 0.0
C366 C 0.32609 0.82777 0.50761 0.0
C367 C 0.30149 0.82132 0.52122 0.0
C368 C 0.27564 0.82571 0.5034 0.0
C369 C 0.27423 0.83503 0.47102 0.0
C370 C 0.28707 0.8263 0.30892 0.0
C371 C 0.29983 0.74761 0.35508 0.0
O372 O 0.34477 0.75973 0.29017 0.0
O373 O 0.36764 0.80898 0.29185 0.0
O374 O 0.36119 0.8202 0.37901 0.0
O375 O 0.36375 0.77338 0.3622 0.0
O376 O 0.35249 0.85098 0.31772 0.0
O377 O 0.34718 0.87204 0.3698 0.0
O378 O 0.31945 0.8612 0.41385 0.0
O379 O 0.284 0.81989 0.39836 0.0
O380 O 0.29702 0.8029 0.31907 0.0
O381 O 0.29535 0.85021 0.33393 0.0
O382 O 0.30707 0.77302 0.3806 0.0
O383 O 0.30704 0.7541 0.3259 0.0
H384 H 0.30523 0.76315 0.24094 0.0
H385 H 0.28749 0.77574 0.18453 0.0
H386 H 0.37346 0.80719 0.17082 0.0
H387 H 0.39154 0.79415 0.2275 0.0
H388 H 0.34365 0.83996 0.46461 0.0
H389 H 0.34609 0.82404 0.52117 0.0
H390 H 0.25652 0.82029 0.5137 0.0
H391 H 0.25398 0.83711 0.45656 0.0
Tb392 Tb 0.6053 0.06404 0.5822 0.0
Tb393 Tb 0.5534 0.06044 0.60976 0.0
C394 C 0.65487 0.06083 0.57409 0.0
C395 C 0.67917 0.046 0.58575 0.0
C396 C 0.67587 1.01684 0.59976 0.0
C397 C 0.69893 1.00169 0.60684 0.0
C398 C 0.72554 1.01539 0.59986 0.0
C399 C 0.72889 0.045 0.58685 0.0
C400 C 0.70596 0.06009 0.57986 0.0
C401 C 0.5634 0.06919 0.52808 0.0
C402 C 0.56584 0.99561 0.5791 0.0
C403 C 0.5055 0.06527 0.62324 0.0
C404 C 0.48249 0.08311 0.61554 0.0
C405 C 0.4864 0.11223 0.60152 0.0
C406 C 0.46363 0.12774 0.59382 0.0
C407 C 0.4368 0.11459 0.60053 0.0
C408 C 0.43312 0.08576 0.6149 0.0
C409 C 0.45568 0.07014 0.62217 0.0
C410 C 0.59681 0.04733 0.65598 0.0
C411 C 0.59269 0.13032 0.61005 0.0
O412 O 0.64955 0.08368 0.59553 0.0
O413 O 0.63162 0.04095 0.55641 0.0
O414 O 0.56145 0.06593 0.55916 0.0
O415 O 0.59021 0.07167 0.52869 0.0
O416 O 0.59233 1.01221 0.58522 0.0
O417 O 0.54511 1.01069 0.58216 0.0
O418 O 0.50887 0.0448 0.59791 0.0
O419 O 0.52986 0.08167 0.642 0.0
O420 O 0.5983 0.06818 0.63517 0.0
O421 O 0.56989 0.03446 0.65133 0.0
O422 O 0.56743 0.11347 0.61209 0.0
O423 O 0.61207 0.11597 0.59988 0.0
H424 H 0.65537 1.00541 0.60441 0.0
H425 H 0.69584 0.97888 0.6169 0.0
H426 H 0.74916 0.05608 0.58136 0.0
H427 H 0.70897 0.08244 0.56891 0.0
H428 H 0.50693 0.12292 0.59648 0.0
H429 H 0.46696 0.15005 0.58287 0.0
H430 H 0.41269 0.07527 0.62038 0.0
H431 H 0.45217 0.04778 0.63303 0.0
Tb432 Tb 0.30146 0.32476 0.8426 0.0
Tb433 Tb 0.35883 0.29833 0.85324 0.0
C434 C 0.25086 0.32799 0.84392 0.0
C435 C 0.22959 0.32241 0.86631 0.0
C436 C 0.21567 0.29069 0.86933 0.0
C437 C 0.19329 0.28608 0.88718 0.0
C438 C 0.18437 0.31304 0.90237 0.0
C439 C 0.19885 0.34468 0.90039 0.0
C440 C 0.22112 0.3493 0.88249 0.0
C441 C 0.34666 0.36623 0.83007 0.0
C442 C 0.34327 0.33927 0.91517 0.0
C443 C 0.40861 0.29213 0.85066 0.0
C444 C 0.4306 0.29707 0.82918 0.0
C445 C 0.44597 0.32868 0.82794 0.0
C446 C 0.4688 0.333 0.81095 0.0
C447 C 0.47716 0.30588 0.79537 0.0
C448 C 0.46178 0.27433 0.79616 0.0
C449 C 0.43871 0.26997 0.81287 0.0
C450 C 0.31536 0.26506 0.8749 0.0
C451 C 0.31649 0.28686 0.77842 0.0
O452 O 0.25805 0.30236 0.82883 0.0
O453 O 0.27259 0.35294 0.85475 0.0
O454 O 0.34428 0.33879 0.83927 0.0
O455 O 0.32109 0.37161 0.82653 0.0
O456 O 0.31659 0.3327 0.8981 0.0
O457 O 0.36431 0.33183 0.90119 0.0
O458 O 0.40244 0.31847 0.8656 0.0
O459 O 0.38609 0.2681 0.83965 0.0
O460 O 0.31461 0.28025 0.84973 0.0
O461 O 0.34177 0.26409 0.88591 0.0
O462 O 0.34052 0.28341 0.79769 0.0
O463 O 0.29765 0.30136 0.7903 0.0
H464 H 0.22152 0.26937 0.85716 0.0
H465 H 0.18246 0.26145 0.88843 0.0
H466 H 0.19237 0.36582 0.91192 0.0
H467 H 0.23121 0.374 0.88047 0.0
H468 H 0.44076 0.35018 0.84064 0.0
H469 H 0.4804 0.35754 0.81064 0.0
H470 H 0.46794 0.25309 0.78432 0.0
H471 H 0.4277 0.24536 0.81386 0.0
Tb472 Tb 0.06781 0.09379 0.60182 0.0
Tb473 Tb 0.08937 0.03668 0.59574 0.0
C474 C 0.05203 0.14598 0.5962 0.0
C475 C 0.04814 0.16388 0.56774 0.0
C476 C 0.06413 0.16136 0.54202 0.0
C477 C 0.06156 0.18023 0.51606 0.0
C478 C 0.04297 0.20149 0.51582 0.0
C479 C 1.02572 0.2025 0.54022 0.0
C480 C 1.02833 0.18365 0.56623 0.0
C481 C 0.03431 0.04284 0.61944 0.0
C482 C 0.05786 0.05247 0.52828 0.0
C483 C 0.106 0.98439 0.60099 0.0
C484 C 0.11611 0.96855 0.62945 0.0
C485 C 0.11936 0.98395 0.66336 0.0
C486 C 0.12639 0.96773 0.69059 0.0
C487 C 0.12933 0.93551 0.68386 0.0
C488 C 0.12797 0.92069 0.65013 0.0
C489 C 0.12145 0.93731 0.62288 0.0
C490 C 0.12384 0.086 0.57797 0.0
C491 C 0.0988 0.08129 0.6693 0.0
O492 O 0.07828 0.14476 0.60836 0.0
O493 O 0.03442 0.1177 0.59188 0.0
O494 O 0.04677 0.04241 0.59422 0.0
O495 O 0.04011 0.07286 0.63443 0.0
O496 O 0.06152 0.08186 0.54599 0.0
O497 O 0.06411 0.02822 0.54379 0.0
O498 O 0.07939 0.98627 0.59682 0.0
O499 O 0.12253 1.01194 0.59914 0.0
O500 O 0.1107 0.08773 0.60273 0.0
O501 O 0.11711 0.05596 0.56303 0.0
O502 O 0.09533 0.05156 0.65197 0.0
O503 O 0.09298 0.10497 0.65311 0.0
H504 H 0.07938 0.14591 0.54283 0.0
H505 H 0.07516 0.17971 0.49744 0.0
H506 H 1.01156 0.21926 0.54027 0.0
H507 H 1.01567 0.18534 0.58577 0.0
H508 H 0.11497 1.00768 0.66883 0.0
H509 H 0.12691 0.97908 0.71653 0.0
H510 H 0.12997 0.89557 0.64481 0.0
H511 H 0.11917 0.92525 0.59675 0.0
Tb512 Tb 0.33034 0.78533 0.84125 0.0
Tb513 Tb 0.32038 0.85023 0.82836 0.0
C514 C 0.34691 0.73442 0.85265 0.0
C515 C 0.36666 0.71478 0.84294 0.0
C516 C 0.35758 0.68904 0.81497 0.0
C517 C 0.37538 0.66826 0.80803 0.0
C518 C 0.40209 0.6726 0.8294 0.0
C519 C 0.41164 0.69871 0.85665 0.0
C520 C 0.39401 0.71977 0.86339 0.0
C521 C 0.31392 0.81747 0.89193 0.0
C522 C 0.38121 0.84504 0.85245 0.0
C523 C 0.30526 0.90331 0.83143 0.0
C524 C 0.28561 0.92079 0.81418 0.0
C525 C 0.25607 0.90884 0.80892 0.0
C526 C 0.23812 0.93061 0.8064 0.0
C527 C 0.24983 0.96403 0.80907 0.0
C528 C 0.2786 0.97493 0.80859 0.0
C529 C 0.29653 0.95326 0.81121 0.0
C530 C 0.33787 0.82036 0.77681 0.0
C531 C 0.26838 0.78867 0.80991 0.0
O532 O 0.32477 0.73454 0.82921 0.0
O533 O 0.35807 0.76322 0.87116 0.0
O534 O 0.33053 0.82971 0.87388 0.0
O535 O 0.30612 0.78661 0.88128 0.0
O536 O 0.37229 0.81365 0.83978 0.0
O537 O 0.36331 0.86363 0.85782 0.0
O538 O 0.29417 0.87883 0.84549 0.0
O539 O 0.32619 0.89795 0.81688 0.0
O540 O 0.3224 0.80689 0.79577 0.0
O541 O 0.34048 0.85154 0.78437 0.0
O542 O 0.27747 0.82057 0.81251 0.0
O543 O 0.28575 0.7689 0.8165 0.0
H544 H 0.33653 0.68448 0.79896 0.0
H545 H 0.36782 0.64783 0.78712 0.0
H546 H 0.43219 0.70191 0.87346 0.0
H547 H 0.4014 0.73919 0.88532 0.0
H548 H 0.24719 0.88367 0.81069 0.0
H549 H 0.21581 0.92207 0.80662 0.0
H550 H 0.28772 1.00077 0.81048 0.0
H551 H 0.31926 0.96272 0.815 0.0
Tb552 Tb 0.55199 0.07678 0.07057 0.0
Tb553 Tb 0.59799 0.06174 0.1196 0.0
C554 C 0.50467 0.06684 0.03063 0.0
C555 C 0.47477 0.06542 0.03125 0.0
C556 C 0.4649 0.06135 0.06167 0.0
C557 C 0.43652 0.04697 0.06006 0.0
C558 C 0.4178 0.0372 0.02812 0.0
C559 C 0.42686 0.04507 0.99821 0.0
C560 C 0.45542 0.05892 0.99977 0.0
C561 C 0.5829 0.12863 0.11411 0.0
C562 C 0.54044 0.06522 0.1492 0.0
C563 C 0.64465 0.07125 0.16059 0.0
C564 C 0.67447 0.07197 0.16087 0.0
C565 C 0.69409 0.08731 0.19096 0.0
C566 C 0.72228 0.09957 0.18953 0.0
C567 C 0.7309 0.09644 0.15797 0.0
C568 C 0.71198 0.07805 0.12852 0.0
C569 C 0.68369 0.06588 0.12994 0.0
C570 C 0.56617 1.01029 0.07602 0.0
C571 C 0.60999 0.07216 0.04121 0.0
O572 O 0.51464 0.0443 0.04542 0.0
O573 O 0.52253 0.09541 0.03784 0.0
O574 O 0.5755 0.09976 0.11943 0.0
O575 O 0.57136 0.12901 0.08228 0.0
O576 O 0.53027 0.06954 0.11682 0.0
O577 O 0.56728 0.06134 0.15599 0.0
O578 O 0.63545 0.09388 0.14511 0.0
O579 O 0.62654 0.04284 0.15301 0.0
O580 O 0.57425 0.03899 0.07089 0.0
O581 O 0.57824 1.00938 0.10749 0.0
O582 O 0.62011 0.06817 0.07371 0.0
O583 O 0.58326 0.07671 0.03442 0.0
H584 H 0.47952 0.06619 0.08619 0.0
H585 H 0.42968 0.04121 0.08337 0.0
H586 H 0.41247 0.03777 0.97344 0.0
H587 H 0.46279 0.06163 0.97606 0.0
H588 H 0.68706 0.09264 0.21483 0.0
H589 H 0.73667 0.11401 0.2123 0.0
H590 H 0.71843 0.07581 0.10395 0.0
H591 H 0.66863 0.05448 0.10643 0.0
Tb592 Tb 0.29736 0.28783 0.32437 0.0
Tb593 Tb 0.35209 0.33379 0.36326 0.0
C594 C 0.24674 0.25738 0.31024 0.0
C595 C 0.2225 0.26935 0.31928 0.0
C596 C 0.22663 0.29152 0.34978 0.0
C597 C 0.20507 0.30648 0.35697 0.0
C598 C 0.17896 0.29932 0.3339 0.0
C599 C 0.17444 0.27693 0.30352 0.0
C600 C 0.19631 0.2621 0.2961 0.0
C601 C 0.32935 0.31809 0.28564 0.0
C602 C 0.29574 0.36606 0.35339 0.0
C603 C 0.40079 0.36739 0.3671 0.0
C604 C 0.42894 0.35953 0.37178 0.0
C605 C 0.44407 0.36374 0.34539 0.0
C606 C 0.46751 0.35 0.34426 0.0
C607 C 0.47662 0.33243 0.36992 0.0
C608 C 0.46275 0.32991 0.39766 0.0
C609 C 0.43861 0.34291 0.39829 0.0
C610 C 0.32916 0.29969 0.40689 0.0
C611 C 0.35284 0.255 0.33676 0.0
O612 O 0.26524 0.25319 0.3363 0.0
O613 O 0.25885 0.27296 0.28848 0.0
O614 O 0.32497 0.32925 0.31452 0.0
O615 O 0.31375 0.28851 0.27694 0.0
O616 O 0.28196 0.33527 0.33818 0.0
O617 O 0.32392 0.37097 0.36612 0.0
O618 O 0.38408 0.35183 0.33827 0.0
O619 O 0.38775 0.36788 0.3932 0.0
O620 O 0.3201 0.2986 0.37518 0.0
O621 O 0.35258 0.32199 0.41565 0.0
O622 O 0.36711 0.28602 0.35021 0.0
O623 O 0.32453 0.2499 0.32564 0.0
H624 H 0.24675 0.29777 0.36783 0.0
H625 H 0.20866 0.32352 0.38066 0.0
H626 H 0.15412 0.27102 0.28576 0.0
H627 H 0.19297 0.24544 0.27222 0.0
H628 H 0.43675 0.3761 0.3245 0.0
H629 H 0.47822 0.35244 0.32288 0.0
H630 H 0.46987 0.31676 0.41788 0.0
H631 H 0.427 0.33888 0.41863 0.0
Tb632 Tb 0.56553 0.58675 0.09962 0.0
Tb633 Tb 0.58799 0.52616 0.09367 0.0
C634 C 0.56017 0.64422 0.10233 0.0
C635 C 0.56034 0.66576 0.07698 0.0
C636 C 0.57655 0.6628 0.05156 0.0
C637 C 0.57395 0.68102 0.02502 0.0
C638 C 0.55496 0.70184 0.02384 0.0
C639 C 0.5383 0.70417 0.0487 0.0
C640 C 0.54102 0.68613 0.0753 0.0
C641 C 0.52753 0.53877 0.11537 0.0
C642 C 0.55465 0.54527 0.02604 0.0
C643 C 0.59749 0.46991 0.08707 0.0
C644 C 0.61011 0.4517 0.1122 0.0
C645 C 0.59309 0.42337 0.11877 0.0
C646 C 0.60298 0.40807 0.14572 0.0
C647 C 0.63012 0.42067 0.16615 0.0
C648 C 0.64777 0.44816 0.15893 0.0
C649 C 0.63769 0.46388 0.13221 0.0
C650 C 0.62652 0.58011 0.09468 0.0
C651 C 0.59626 0.56741 0.16612 0.0
O652 O 0.58439 0.63656 0.11393 0.0
O653 O 0.5387 0.61903 0.09391 0.0
O654 O 0.55092 0.53751 0.10676 0.0
O655 O 0.52548 0.56873 0.11636 0.0
O656 O 0.55279 0.57276 0.04417 0.0
O657 O 0.5665 0.52329 0.04032 0.0
O658 O 0.57307 0.47595 0.09141 0.0
O659 O 0.61438 0.49527 0.08036 0.0
O660 O 0.60061 0.5736 0.0789 0.0
O661 O 0.63081 0.55607 0.11061 0.0
O662 O 0.5915 0.53723 0.14928 0.0
O663 O 0.59262 0.59184 0.1497 0.0
H664 H 0.59106 0.64643 0.05222 0.0
H665 H 0.58711 0.67955 1.00599 0.0
H666 H 0.52384 0.72062 0.04798 0.0
H667 H 0.52788 0.68779 0.09434 0.0
H668 H 0.57175 0.41374 0.10378 0.0
H669 H 0.58929 0.38661 0.15101 0.0
H670 H 0.66887 0.45784 0.17447 0.0
H671 H 0.65118 0.48591 0.12788 0.0
Tb672 Tb 0.82326 0.28278 0.32398 0.0
Tb673 Tb 0.82249 0.35404 0.33444 0.0
C674 C 0.83231 0.22801 0.30349 0.0
C675 C 0.85299 0.20856 0.31308 0.0
C676 C 0.85351 0.1813 0.2898 0.0
C677 C 0.87401 0.16324 0.29732 0.0
C678 C 0.89406 0.17222 0.32827 0.0
C679 C 0.89364 0.19953 0.35172 0.0
C680 C 0.8732 0.21786 0.34401 0.0
C681 C 0.8135 0.30444 0.38467 0.0
C682 C 0.88083 0.33618 0.35206 0.0
C683 C 0.81456 0.40996 0.35119 0.0
C684 C 0.80053 0.43275 0.33472 0.0
C685 C 0.8037 0.46379 0.35334 0.0
C686 C 0.78442 0.48264 0.34363 0.0
C687 C 0.76191 0.47032 0.31542 0.0
C688 C 0.76074 0.44096 0.29428 0.0
C689 C 0.78013 0.42199 0.30406 0.0
C690 C 0.82849 0.33175 0.27199 0.0
C691 C 0.76467 0.3007 0.31093 0.0
O692 O 0.84265 0.25504 0.29308 0.0
O693 O 0.81517 0.23217 0.3245 0.0
O694 O 0.82988 0.31981 0.36794 0.0
O695 O 0.80495 0.27472 0.36856 0.0
O696 O 0.86839 0.30546 0.33914 0.0
O697 O 0.86618 0.35846 0.35816 0.0
O698 O 0.79748 0.38302 0.35396 0.0
O699 O 0.83751 0.40491 0.34125 0.0
O700 O 0.81411 0.31683 0.29072 0.0
O701 O 0.83777 0.36142 0.28737 0.0
O702 O 0.77815 0.32971 0.32826 0.0
O703 O 0.77915 0.27921 0.30103 0.0
H704 H 0.83816 0.1741 0.26573 0.0
H705 H 0.8741 0.14205 0.27916 0.0
H706 H 0.90902 0.2065 0.37576 0.0
H707 H 0.87315 0.23921 0.36197 0.0
H708 H 0.81943 0.47219 0.37701 0.0
H709 H 0.78547 0.50547 0.35996 0.0
H710 H 0.74337 0.43139 0.27245 0.0
H711 H 0.77765 0.39786 0.28955 0.0
Tb712 Tb 0.05309 0.56838 0.57023 0.0
Tb713 Tb 0.10169 0.5611 0.62122 0.0
C714 C 1.0065 0.556 0.52871 0.0
C715 C 0.97633 0.55078 0.52938 0.0
C716 C 0.96596 0.53758 0.55643 0.0
C717 C 0.93699 0.52514 0.55291 0.0
C718 C 0.9183 0.52609 0.52253 0.0
C719 C 0.92829 0.54195 0.49683 0.0
C720 C 0.95736 0.55415 0.50022 0.0
C721 C 0.08171 0.62386 0.61032 0.0
C722 C 0.04312 0.56127 0.65011 0.0
C723 C 0.15026 0.57654 0.65858 0.0
C724 C 0.17981 0.57715 0.65621 0.0
C725 C 0.18967 0.58488 0.62661 0.0
C726 C 0.21865 0.59573 0.62816 0.0
C727 C 0.23796 0.59829 0.6591 0.0
C728 C 0.22837 0.58695 0.68745 0.0
C729 C 0.19931 0.5767 0.68609 0.0
C730 C 0.07212 0.50596 0.5847 0.0
C731 C 0.11014 0.56536 0.53986 0.0
O732 O 1.01902 0.53362 0.54022 0.0
O733 O 1.02188 0.58573 0.53913 0.0
O734 O 0.07615 0.59561 0.61759 0.0
O735 O 0.07033 0.62125 0.5779 0.0
O736 O 1.03166 0.56063 0.61661 0.0
O737 O 0.07114 0.56217 0.65793 0.0
O738 O 0.13862 0.59647 0.64104 0.0
O739 O 0.13308 0.54805 0.6566 0.0
O740 O 0.07808 0.5332 0.57513 0.0
O741 O 0.08434 0.50878 0.61684 0.0
O742 O 0.12144 0.56376 0.57279 0.0
O743 O 0.08292 0.56768 0.53301 0.0
H744 H 0.98032 0.53475 0.57911 0.0
H745 H 0.92936 0.51292 0.57289 0.0
H746 H 0.91388 0.54269 0.47327 0.0
H747 H 0.96516 0.56424 0.47916 0.0
H748 H 0.17497 0.58524 0.60324 0.0
H749 H 0.22578 0.6044 0.60607 0.0
H750 H 0.24317 0.58885 0.71148 0.0
H751 H 0.19203 0.57096 0.70915 0.0
Tb752 Tb 0.79956 0.82123 0.34344 0.0
Tb753 Tb 0.85718 0.79984 0.35314 0.0
C754 C 0.74915 0.82454 0.34634 0.0
C755 C 0.72833 0.8215 0.36935 0.0
C756 C 0.72338 0.79475 0.38705 0.0
C757 C 0.70111 0.79065 0.40515 0.0
C758 C 0.68337 0.81313 0.40578 0.0
C759 C 0.68891 0.84029 0.38901 0.0
C760 C 0.71113 0.8444 0.371 0.0
C761 C 0.84297 0.86296 0.33075 0.0
C762 C 0.83824 0.82883 0.41928 0.0
C763 C 0.90792 0.79736 0.3506 0.0
C764 C 0.92905 0.80019 0.32778 0.0
C765 C 0.93783 0.82935 0.31499 0.0
C766 C 0.96078 0.83323 0.29802 0.0
C767 C 0.97545 0.80807 0.29338 0.0
C768 C 0.96613 0.77858 0.30508 0.0
C769 C 0.94324 0.77473 0.32214 0.0
C770 C 0.81422 0.75924 0.36768 0.0
C771 C 0.81692 0.7897 0.27756 0.0
O772 O 0.75658 0.7978 0.33461 0.0
O773 O 0.77052 0.85006 0.35403 0.0
O774 O 0.84335 0.84409 0.35276 0.0
O775 O 0.81647 0.86176 0.3177 0.0
O776 O 0.8134 0.82794 0.39935 0.0
O777 O 0.86002 0.82278 0.40592 0.0
O778 O 0.89986 0.82398 0.36115 0.0
O779 O 0.88696 0.77141 0.34394 0.0
O780 O 0.81331 0.77652 0.34411 0.0
O781 O 0.84074 0.76122 0.38145 0.0
O782 O 0.84193 0.7896 0.29686 0.0
O783 O 0.79643 0.79991 0.29045 0.0
H784 H 0.73625 0.77666 0.38625 0.0
H785 H 0.69736 0.76962 0.4181 0.0
H786 H 0.67564 0.858 0.38928 0.0
H787 H 0.71438 0.8651 0.35749 0.0
H788 H 0.9275 0.84953 0.31889 0.0
H789 H 0.96751 0.85616 0.28915 0.0
H790 H 0.97704 0.75881 0.30176 0.0
H791 H 0.9372 0.75214 0.33194 0.0
Tb792 Tb 0.84026 0.29807 0.8233 0.0
Tb793 Tb 0.82316 0.32886 0.88062 0.0
C794 C 0.85135 0.27526 0.76766 0.0
C795 C 0.84738 0.28404 0.7337 0.0
C796 C 0.83109 0.30706 0.72642 0.0
C797 C 0.82601 0.31452 0.69351 0.0
C798 C 0.83736 0.29919 0.66786 0.0
C799 C 0.85397 0.27648 0.67514 0.0
C800 C 0.8589 0.26878 0.7082 0.0
C801 C 0.87368 0.29569 0.88298 0.0
C802 C 0.85771 0.37739 0.8389 0.0
C803 C 0.82384 0.35652 0.93984 0.0
C804 C 0.80591 0.35365 0.96505 0.0
C805 C 0.8195 0.36268 0.99948 0.0
C806 C 0.80867 0.34619 0.02386 0.0
C807 C 0.78426 0.32062 0.01357 0.0
C808 C 0.76704 0.31813 0.98104 0.0
C809 C 0.77842 0.33372 0.95614 0.0
C810 C 0.77993 0.32452 0.82855 0.0
C811 C 0.80074 0.25009 0.86005 0.0
O812 O 0.82768 0.26485 0.77763 0.0
O813 O 0.8697 0.29671 0.79123 0.0
O814 O 0.86397 0.31984 0.87416 0.0
O815 O 0.86404 0.27213 0.85761 0.0
O816 O 0.85401 0.35063 0.81555 0.0
O817 O 0.84862 0.37367 0.86776 0.0
O818 O 0.83466 0.33097 0.93347 0.0
O819 O 0.81421 0.36742 0.91202 0.0
O820 O 0.80249 0.31459 0.82649 0.0
O821 O 0.78047 0.33496 0.86024 0.0
O822 O 0.80646 0.27588 0.88525 0.0
O823 O 0.809 0.25505 0.83088 0.0
H824 H 0.82212 0.31895 0.7461 0.0
H825 H 0.81334 0.33234 0.688 0.0
H826 H 0.86296 0.26485 0.65536 0.0
H827 H 0.87149 0.25095 0.71384 0.0
H828 H 0.84055 0.37854 1.00669 0.0
H829 H 0.82207 0.34961 0.04916 0.0
H830 H 0.74686 0.30071 0.97347 0.0
H831 H 0.76737 0.32715 0.92954 0.0
Tb832 Tb 0.79813 0.78983 0.8248 0.0
Tb833 Tb 0.85428 0.83658 0.86879 0.0
C834 C 0.74872 0.75608 0.81203 0.0
C835 C 0.72387 0.76648 0.82126 0.0
C836 C 0.72762 0.78965 0.85088 0.0
C837 C 0.70544 0.80384 0.8575 0.0
C838 C 0.67919 0.79509 0.83456 0.0
C839 C 0.67514 0.77179 0.80502 0.0
C840 C 0.69755 0.75763 0.79827 0.0
C841 C 0.82895 0.82055 0.78448 0.0
C842 C 0.79731 0.8684 0.85446 0.0
C843 C 0.90385 0.87013 0.88146 0.0
C844 C 0.92966 0.86035 0.87382 0.0
C845 C 0.93092 0.84791 0.84002 0.0
C846 C 0.95375 0.83462 0.83362 0.0
C847 C 0.97549 0.83331 0.86085 0.0
C848 C 0.9746 0.84599 0.89453 0.0
C849 C 0.9518 0.85949 0.90098 0.0
C850 C 0.82364 0.80485 0.90862 0.0
C851 C 0.85477 0.75796 0.83928 0.0
O852 O 0.76821 0.75316 0.83781 0.0
O853 O 0.75951 0.77222 0.78976 0.0
O854 O 0.83398 0.82215 0.81679 0.0
O855 O 0.80557 0.79851 0.77339 0.0
O856 O 0.78339 0.83773 0.83864 0.0
O857 O 0.82539 0.87327 0.8684 0.0
O858 O 0.88464 0.87225 0.85507 0.0
O859 O 0.89266 0.85503 0.90417 0.0
O860 O 0.81835 0.80461 0.87658 0.0
O861 O 0.84759 0.82584 0.92007 0.0
O862 O 0.86899 0.78876 0.85434 0.0
O863 O 0.82655 0.75292 0.82646 0.0
H864 H 0.74794 0.79737 0.86851 0.0
H865 H 0.70868 0.82158 0.88058 0.0
H866 H 0.65475 0.76463 0.78738 0.0
H867 H 0.69455 0.74036 0.7749 0.0
H868 H 0.91398 0.84767 0.81856 0.0
H869 H 0.95436 0.82506 0.80745 0.0
H870 H 0.99141 0.84523 0.91572 0.0
H871 H 0.95106 0.86847 0.92725 0.0
Tb872 Tb 0.56024 0.54429 0.57533 0.0
Tb873 Tb 0.611 0.58189 0.62374 0.0
C874 C 0.5099 0.52494 0.54392 0.0
C875 C 0.4881 0.54314 0.54914 0.0
C876 C 0.491 0.56116 0.58184 0.0
C877 C 0.47609 0.58533 0.58647 0.0
C878 C 0.45705 0.59119 0.55889 0.0
C879 C 0.45265 0.57207 0.52638 0.0
C880 C 0.46863 0.5484 0.52136 0.0
C881 C 0.60615 0.55757 0.54737 0.0
C882 C 0.5701 0.62251 0.59021 0.0
C883 C 0.66274 0.60088 0.65076 0.0
C884 C 0.68449 0.58102 0.65263 0.0
C885 C 0.69586 0.57374 0.62341 0.0
C886 C 0.70974 0.54817 0.62074 0.0
C887 C 0.71327 0.52995 0.64751 0.0
C888 C 0.70501 0.53944 0.67835 0.0
C889 C 0.69031 0.56464 0.68076 0.0
C890 C 0.56649 0.57279 0.65293 0.0
C891 C 0.59636 0.50161 0.61173 0.0
O892 O 0.5204 0.51299 0.57073 0.0
O893 O 0.5298 0.54037 0.53019 0.0
O894 O 0.59827 0.57554 0.56944 0.0
O895 O 0.58691 0.53047 0.53964 0.0
O896 O 0.55157 0.59399 0.58182 0.0
O897 O 0.59629 0.62427 0.60686 0.0
O898 O 0.65186 0.60474 0.61976 0.0
O899 O 0.64307 0.59381 0.66863 0.0
O900 O 0.57244 0.55249 0.63072 0.0
O901 O 0.58652 0.59922 0.65958 0.0
O902 O 0.61528 0.52979 0.62379 0.0
O903 O 0.57178 0.50105 0.59203 0.0
H904 H 0.50615 0.55793 0.60357 0.0
H905 H 0.4795 0.59982 0.61167 0.0
H906 H 0.43765 0.57619 0.50497 0.0
H907 H 0.46658 0.53516 0.49581 0.0
H908 H 0.69227 0.58618 0.60147 0.0
H909 H 0.71655 0.54156 0.59699 0.0
H910 H 0.70833 0.52607 0.69959 0.0
H911 H 0.68209 0.56996 0.70374 0.0
Tb912 Tb 0.10505 0.56583 0.08073 0.0
Tb913 Tb 0.04919 0.56064 0.10901 0.0
C914 C 0.15554 0.56584 0.07483 0.0
C915 C 0.17899 0.54923 0.0846 0.0
C916 C 0.17633 0.52347 0.10381 0.0
C917 C 0.19878 0.50746 0.1112 0.0
C918 C 0.22409 0.51695 0.0993 0.0
C919 C 0.22666 0.5428 0.08031 0.0
C920 C 0.20436 0.55878 0.07309 0.0
C921 C 0.06191 0.57423 0.03016 0.0
C922 C 0.06565 0.49587 0.07923 0.0
C923 C 0.99857 0.56169 0.11362 0.0
C924 C 0.97618 0.58053 0.10527 0.0
C925 C 0.96225 0.58014 0.07127 0.0
C926 C 0.93924 0.59543 0.0647 0.0
C927 C 0.92971 0.61135 0.09192 0.0
C928 C 0.94404 0.61244 0.12573 0.0
C929 C 0.96692 0.59716 0.13231 0.0
C930 C 0.09241 0.55331 0.15999 0.0
C931 C 0.08971 0.63039 0.1126 0.0
O932 O 0.14887 0.58462 0.0993 0.0
O933 O 0.13309 0.54839 0.05292 0.0
O934 O 0.06159 0.56886 0.06102 0.0
O935 O 0.08821 0.57545 0.02809 0.0
O936 O 0.0913 0.5133 0.07955 0.0
O937 O 0.04485 0.50937 0.08718 0.0
O938 O 1.00539 0.54395 0.08843 0.0
O939 O 1.02078 0.57631 0.13751 0.0
O940 O 0.09274 0.55776 0.12883 0.0
O941 O 0.06607 0.55206 0.162 0.0
O942 O 0.06384 0.61348 0.11222 0.0
O943 O 0.11001 0.61658 0.10378 0.0
H944 H 0.15684 0.51551 0.11264 0.0
H945 H 0.19629 0.48742 0.1257 0.0
H946 H 0.24588 0.55036 0.07072 0.0
H947 H 0.2068 0.57843 0.05805 0.0
H948 H 0.96869 0.56748 0.0498 0.0
H949 H 0.92849 0.59429 0.0384 0.0
H950 H 0.9371 0.62454 0.14713 0.0
H951 H 0.977 0.59768 0.15876 0.0
C952 C 0.0635 0.21088 0.07748 0.0
C953 C 0.04847 0.20781 0.04295 0.0
C954 C 0.04748 0.14853 0.03611 0.0
C955 C 0.0589 0.15099 0.07177 0.0
N956 N 0.07249 0.18462 0.12769 0.0
N957 N 1.02 0.17109 0.99253 0.0
C958 C 0.0653 0.18222 0.09281 0.0
C959 C 0.03887 0.1759 0.02307 0.0
N960 N 0.0777 0.24095 0.09521 0.0
N961 N 0.04586 0.12055 0.01409 0.0
H962 H 1.0114 0.18972 0.98308 0.0
H963 H 1.01016 0.14791 0.97882 0.0
H964 H 0.05291 0.1004 0.02195 0.0
H965 H 0.04037 0.11875 0.98747 0.0
H966 H 0.09131 0.24414 0.11904 0.0
H967 H 0.07867 0.26236 0.08461 0.0
H968 H 0.07474 0.20627 0.14448 0.0
H969 H 0.07318 0.1643 0.13996 0.0
C970 C 0.23035 0.84387 0.23978 0.0
C971 C 0.2047 0.82959 0.24951 0.0
C972 C 0.23291 0.8091 0.29615 0.0
C973 C 0.25848 0.82252 0.2857 0.0
N974 N 0.2803 0.84433 0.24178 0.0
N975 N 0.18163 0.79044 0.28065 0.0
C976 C 0.25675 0.83731 0.25569 0.0
C977 C 0.20601 0.80989 0.27594 0.0
N978 N 0.22983 0.86502 0.21655 0.0
N979 N 0.23415 0.79619 0.32588 0.0
H980 H 0.1617 0.78896 0.26551 0.0
H981 H 0.1815 0.77306 0.29701 0.0
H982 H 0.25295 0.7929 0.34014 0.0
H983 H 0.21668 0.79033 0.33734 0.0
H984 H 0.24812 0.87884 0.21116 0.0
H985 H 0.21122 0.87115 0.20499 0.0
H986 H 0.2798 0.85221 0.21811 0.0
H987 H 0.29946 0.83857 0.25209 0.0
C988 C 0.54094 0.90243 0.57081 0.0
C989 C 0.55246 0.89171 0.54223 0.0
C990 C 0.56791 0.94911 0.53501 0.0
C991 C 0.55971 0.9598 0.56597 0.0
N992 N 0.54181 0.94661 0.61613 0.0
N993 N 0.58162 0.90601 0.50093 0.0
C994 C 0.54714 0.93645 0.58467 0.0
C995 C 0.56721 0.91539 0.52536 0.0
N996 N 0.52273 0.88049 0.58359 0.0
N997 N 0.57535 0.97106 0.51394 0.0
H998 H 0.58204 0.8818 0.49292 0.0
H999 H 0.59547 0.92254 0.49094 0.0
H1000 H 0.57551 0.99585 0.51963 0.0
H1001 H 0.57843 0.96418 0.48922 0.0
H1002 H 0.51141 0.8874 0.60194 0.0
H1003 H 0.51658 0.85568 0.57346 0.0
H1004 H 0.53582 0.93063 0.63275 0.0
H1005 H 0.5456 0.9712 0.62681 0.0
C1006 C 0.55348 0.31229 0.78213 0.0
C1007 C 0.55126 0.32115 0.74876 0.0
C1008 C 0.49981 0.31643 0.74469 0.0
C1009 C 0.50262 0.31066 0.77915 0.0
N1010 N 0.53273 0.3079 0.83265 0.0
N1011 N 0.52323 0.33768 0.7009 0.0
C1012 C 0.52967 0.31008 0.79847 0.0
C1013 C 0.52462 0.32475 0.73069 0.0
N1014 N 0.57777 0.30415 0.7975 0.0
N1015 N 0.47336 0.31341 0.72511 0.0
H1016 H 0.54101 0.34533 0.69047 0.0
H1017 H 0.50504 0.34392 0.68836 0.0
H1018 H 0.45478 0.30808 0.73471 0.0
H1019 H 0.46965 0.31352 0.69872 0.0
H1020 H 0.57953 0.29411 0.82006 0.0
H1021 H 0.5954 0.30444 0.78614 0.0
H1022 H 0.5524 0.31122 0.84905 0.0
H1023 H 0.5157 0.30529 0.8453 0.0
C1024 C 0.09701 0.87966 0.73951 0.0
C1025 C 0.11996 0.86502 0.74947 0.0
C1026 C 0.15146 0.90536 0.72693 0.0
C1027 C 0.12709 0.91498 0.71055 0.0
N1028 N 0.07607 0.91024 0.69907 0.0
N1029 N 0.16955 0.86391 0.75544 0.0
C1030 C 0.09971 0.90244 0.7168 0.0
C1031 C 0.14762 0.87835 0.7448 0.0
N1032 N 0.07242 0.87087 0.75114 0.0
N1033 N 0.1779 0.9217 0.72475 0.0
H1034 H 0.16735 0.84466 0.76948 0.0
H1035 H 0.18954 0.87018 0.74945 0.0
H1036 H 0.18096 0.9415 0.71151 0.0
H1037 H 0.19668 0.91739 0.73807 0.0
H1038 H 0.05564 0.8827 0.74709 0.0
H1039 H 0.07012 0.85384 0.76784 0.0
H1040 H 0.05542 0.89846 0.6996 0.0
H1041 H 0.07675 0.92665 0.68165 0.0
C1042 C 0.45524 0.86702 0.90598 0.0
C1043 C 0.47041 0.86461 0.87896 0.0
C1044 C 0.42786 0.86445 0.83748 0.0
C1045 C 0.41178 0.8585 0.86301 0.0
N1046 N 0.40939 0.85555 0.92222 0.0
N1047 N 0.47149 0.86071 0.81854 0.0
C1048 C 0.42524 0.86076 0.89766 0.0
C1049 C 0.45702 0.86388 0.84455 0.0
N1050 N 0.46961 0.8757 0.93936 0.0
N1051 N 0.41535 0.8715 0.80698 0.0
H1052 H 0.49301 0.86024 0.82277 0.0
H1053 H 0.46161 0.85629 0.79266 0.0
H1054 H 0.39427 0.87376 0.8023 0.0
H1055 H 0.42668 0.879 0.78853 0.0
H1056 H 0.45978 0.8805 0.95991 0.0
H1057 H 0.49176 0.88146 0.94614 0.0
H1058 H 0.418 0.85301 0.94717 0.0
H1059 H 0.38731 0.8521 0.91713 0.0
C1060 C 0.57857 0.21259 0.15711 0.0
C1061 C 0.57366 0.20498 0.1895 0.0
C1062 C 0.58244 0.15106 0.17526 0.0
C1063 C 0.58572 0.15706 0.14185 0.0
N1064 N 0.59503 0.19695 0.10482 0.0
N1065 N 0.55808 0.16197 0.22104 0.0
C1066 C 0.58583 0.18885 0.13363 0.0
C1067 C 0.57138 0.17264 0.19591 0.0
N1068 N 0.57477 0.24195 0.14841 0.0
N1069 N 0.5922 0.1264 0.18879 0.0
H1070 H 0.54601 0.17547 0.23342 0.0
H1071 H 0.55516 0.13782 0.22543 0.0
H1072 H 0.60426 0.11306 0.17657 0.0
H1073 H 0.59211 0.12276 0.21408 0.0
H1074 H 0.57601 0.24866 0.12449 0.0
H1075 H 0.56732 0.25838 0.16427 0.0
H1076 H 0.5974 0.22019 0.0981 0.0
H1077 H 0.60347 0.18116 0.08951 0.0
C1078 C 0.12581 0.32024 0.38509 0.0
C1079 C 0.11698 0.34576 0.369 0.0
C1080 C 0.14913 0.34113 0.32931 0.0
C1081 C 0.1559 0.31377 0.34351 0.0
N1082 N 0.14674 0.27305 0.37986 0.0
N1083 N 0.11688 0.37797 0.32338 0.0
C1084 C 0.143 0.30203 0.36989 0.0
C1085 C 0.12759 0.35545 0.34027 0.0
N1086 N 0.1183 0.31382 0.41532 0.0
N1087 N 0.16397 0.35406 0.30638 0.0
H1088 H 0.10185 0.38977 0.33171 0.0
H1089 H 0.12156 0.38346 0.30006 0.0
H1090 H 0.17964 0.34387 0.29747 0.0
H1091 H 0.16217 0.3761 0.29803 0.0
H1092 H 0.12665 0.29792 0.43001 0.0
H1093 H 0.10583 0.32668 0.42761 0.0
H1094 H 0.13539 0.26148 0.39636 0.0
H1095 H 0.1592 0.25886 0.36911 0.0
C1096 C 1.008 1.01834 0.20204 0.0
C1097 C 1.01528 0.03777 0.23506 0.0
C1098 C 0.05407 0.07353 0.21698 0.0
C1099 C 0.04511 0.0563 0.18256 0.0
N1100 N 1.02281 1.00289 0.14925 0.0
N1101 N 0.04167 0.08761 0.27197 0.0
C1102 C 1.02447 0.02612 0.17677 0.0
C1103 C 0.03732 0.06636 0.24193 0.0
N1104 N 0.98521 0.99234 0.19463 0.0
N1105 N 0.08047 0.09368 0.22736 0.0
H1106 H 1.02978 0.08363 0.29089 0.0
H1107 H 0.05507 0.11077 0.27651 0.0
H1108 H 0.09587 0.09481 0.2124 0.0
H1109 H 0.08895 0.10467 0.25275 0.0
H1110 H 0.97618 0.98019 0.16976 0.0
H1111 H 0.97389 0.98435 0.21292 0.0
H1112 H 1.00992 0.9795 0.14508 0.0
H1113 H 0.03751 1.00473 0.13354 0.0
C1114 C 0.31793 0.75812 0.57163 0.0
C1115 C 0.33703 0.77975 0.59948 0.0
C1116 C 0.31696 0.82535 0.58337 0.0
C1117 C 0.30326 0.80546 0.55174 0.0
N1118 N 0.287 0.75266 0.5161 0.0
N1119 N 0.35327 0.83276 0.63505 0.0
C1120 C 0.3018 0.77144 0.54648 0.0
C1121 C 0.33562 0.81295 0.60689 0.0
N1122 N 0.31534 0.72506 0.56933 0.0
N1123 N 0.31281 0.85636 0.58969 0.0
H1124 H 0.36718 0.82416 0.65271 0.0
H1125 H 0.35508 0.85789 0.6403 0.0
H1126 H 0.29909 0.86526 0.57204 0.0
H1127 H 0.32086 0.87202 0.61297 0.0
H1128 H 0.29987 0.70795 0.55141 0.0
H1129 H 0.32722 0.71441 0.58715 0.0
H1130 H 0.28833 0.72868 0.50836 0.0
H1131 H 0.27391 0.76168 0.49791 0.0
C1132 C 0.64216 1.01546 0.73187 0.0
C1133 C 0.65264 0.0437 0.75807 0.0
C1134 C 0.62791 0.07513 0.71692 0.0
C1135 C 0.61797 0.04711 0.69038 0.0
N1136 N 0.61364 0.98933 0.67505 0.0
N1137 N 0.65785 0.10187 0.7725 0.0
C1138 C 0.6247 1.01703 0.69878 0.0
C1139 C 0.64627 0.07386 0.74942 0.0
N1140 N 0.65032 0.98719 0.73792 0.0
N1141 N 0.61776 0.10256 0.71244 0.0
H1142 H 0.66895 0.10201 0.79721 0.0
H1143 H 0.65793 0.1252 0.76659 0.0
H1144 H 0.60371 0.1042 0.69032 0.0
H1145 H 0.621 0.12264 0.73163 0.0
H1146 H 0.64649 0.96633 0.71963 0.0
H1147 H 0.66283 0.98513 0.7611 0.0
H1148 H 0.61403 0.96579 0.67988 0.0
H1149 H 0.60269 0.98965 0.65036 0.0
C1150 C 0.34424 0.4001 0.99454 0.0
C1151 C 0.35655 0.38474 0.02124 0.0
C1152 C 0.36184 0.3406 0.97844 0.0
C1153 C 0.34933 0.35568 0.95164 0.0
N1154 N 0.32697 0.39868 0.93373 0.0
N1155 N 0.38394 0.34568 0.03845 0.0
C1156 C 0.34027 0.38526 0.95963 0.0
C1157 C 0.36716 0.35639 0.01316 0.0
N1158 N 0.33708 0.42944 1.00245 0.0
N1159 N 0.36705 0.31015 0.97104 0.0
H1160 H 0.38917 0.35705 0.06403 0.0
H1161 H 0.39515 0.32763 0.03366 0.0
H1162 H 0.36357 0.29753 0.94617 0.0
H1163 H 0.37244 0.29603 0.98968 0.0
H1164 H 0.33168 0.44429 0.98464 0.0
H1165 H 0.33794 0.44046 0.02736 0.0
H1166 H 0.31595 0.41708 0.93733 0.0
H1167 H 0.32567 0.39044 0.90787 0.0
C1168 C 1.01053 1.00985 0.44266 0.0
C1169 C 1.02024 0.03031 0.4197 0.0
C1170 C 0.0554 0.06581 0.46767 0.0
C1171 C 0.0445 0.04612 0.49093 0.0
N1172 N 1.0056 1.00641 0.50111 0.0
N1173 N 0.04828 0.08104 0.41078 0.0
C1174 C 1.02048 1.0199 0.47855 0.0
C1175 C 0.04184 0.0591 0.43225 0.0
N1176 N 0.99189 0.98056 0.43015 0.0
N1177 N 0.0788 0.09077 0.47916 0.0
H1178 H 0.03904 0.07708 0.38471 0.0
H1179 H 0.06111 0.10436 0.41919 0.0
H1180 H 0.0881 0.09849 0.50498 0.0
H1181 H 0.0901 0.1028 0.4629 0.0
H1182 H 0.98627 0.9631 0.44547 0.0
H1183 H 0.98416 0.97245 0.40395 0.0
H1184 H 0.98643 0.98917 0.49352 0.0
H1185 H 1.0104 1.01579 0.52723 0.0
C1186 C 0.39384 0.77329 0.76369 0.0
C1187 C 0.40743 0.78983 0.74068 0.0
C1188 C 0.37492 0.82691 0.74018 0.0
C1189 C 0.35869 0.80693 0.75929 0.0
N1190 N 0.34861 0.75335 0.77551 0.0
N1191 N 0.41941 0.84042 0.72018 0.0
C1192 C 0.36707 0.7783 0.76781 0.0
C1193 C 0.40087 0.81967 0.73364 0.0
N1194 N 0.40487 0.74977 0.77798 0.0
N1195 N 0.36433 0.85087 0.72584 0.0
H1196 H 0.43858 0.83487 0.71614 0.0
H1197 H 0.41725 0.86383 0.71644 0.0
H1198 H 0.34371 0.85376 0.7261 0.0
H1199 H 0.37445 0.86517 0.71025 0.0
H1200 H 0.39487 0.73621 0.79416 0.0
H1201 H 0.42479 0.74592 0.77491 0.0
H1202 H 0.32689 0.75255 0.7725 0.0
H1203 H 0.32689 0.75255 0.7725 0.0
C1204 C 0.65531 0.03445 0.977 0.0
C1205 C 0.65817 0.05655 0.95259 0.0
C1206 C 0.62896 0.08838 0.98518 0.0
C1207 C 0.62733 0.06725 1.01087 0.0
N1208 N 0.64106 1.01944 0.02971 0.0
N1209 N 0.6497 0.10751 0.93751 0.0
C1210 C 0.64141 0.04039 1.00629 0.0
C1211 C 0.64519 0.08405 0.95783 0.0
N1212 N 0.66436 1.00608 0.97092 0.0
N1213 N 0.61493 0.11328 0.98679 0.0
H1214 H 0.66103 0.10548 0.91786 0.0
H1215 H 0.64436 0.13012 0.94162 0.0
H1216 H 0.60603 0.11994 1.00765 0.0
H1217 H 0.61102 0.12654 0.9669 0.0
H1218 H 0.66002 0.98645 0.98397 0.0
H1219 H 0.6744 1.00096 0.9506 0.0
H1220 H 0.65426 1.00297 0.03208 0.0
H1221 H 0.62807 1.01895 0.04768 0.0
C1222 C 0.34416 0.33894 0.19949 0.0
C1223 C 0.35604 0.37311 0.20636 0.0
C1224 C 0.35167 0.37281 0.26667 0.0
C1225 C 0.34212 0.33783 0.26043 0.0
N1226 N 0.34283 0.28873 0.22258 0.0
N1227 N 0.38047 0.41926 0.24997 0.0
C1228 C 0.34259 0.32121 0.22739 0.0
C1229 C 0.36258 0.38907 0.24096 0.0
N1230 N 0.33302 0.32323 0.16666 0.0
N1231 N 0.35024 0.39133 0.29639 0.0
H1232 H 0.39069 0.43106 0.23266 0.0
H1233 H 0.38807 0.43056 0.27545 0.0
H1234 H 0.34533 0.38214 0.3178 0.0
H1235 H 0.35297 0.41669 0.29913 0.0
H1236 H 0.32213 0.29879 0.16121 0.0
H1237 H 0.33142 0.33525 0.14543 0.0
H1238 H 0.34476 0.27634 0.19923 0.0
H1239 H 0.34566 0.27567 0.24292 0.0
C1240 C 0.24636 1.00081 0.09373 0.0
C1241 C 0.23493 0.96831 0.09744 0.0
C1242 C 0.20933 0.98782 0.13987 0.0
C1243 C 0.22206 1.02039 0.13709 0.0
N1244 N 0.25892 0.05757 0.11997 0.0
N1245 N 0.2101 0.93019 0.12798 0.0
C1246 C 0.24294 0.02666 0.11708 0.0
C1247 C 0.21791 0.96151 0.12195 0.0
N1248 N 0.25905 1.00703 0.06668 0.0
N1249 N 0.18827 0.98206 0.15813 0.0
H1250 H 0.21536 0.91039 0.11424 0.0
H1251 H 0.2001 0.92409 0.14796 0.0
H1252 H 0.18123 1.00068 0.17132 0.0
H1253 H 0.17691 0.95882 0.15914 0.0
H1254 H 0.2655 0.03047 0.06115 0.0
H1255 H 0.26032 0.98858 0.0476 0.0
H1256 H 0.2761 0.06303 0.10793 0.0
H1257 H 0.25674 0.07703 0.13732 0.0
C1258 C 0.70138 0.63377 0.10812 0.0
C1259 C 0.70297 0.64178 0.07494 0.0
C1260 C 0.65428 0.60851 0.05334 0.0
C1261 C 0.65136 0.60391 0.08738 0.0
N1262 N 0.67119 0.61856 0.14817 0.0
N1263 N 0.67873 0.64138 0.01713 0.0
C1264 C 0.67466 0.61853 0.11502 0.0
C1265 C 0.67858 0.63094 0.04806 0.0
N1266 N 0.72551 0.63987 0.13302 0.0
N1267 N 0.63555 0.5893 0.02575 0.0
H1268 H 0.69642 0.65671 0.01196 0.0
H1269 H 0.66056 0.63696 0.99779 0.0
H1270 H 0.61929 0.57031 0.0281 0.0
H1271 H 0.63819 0.5896 1.00051 0.0
H1272 H 0.72617 0.63125 0.15639 0.0
H1273 H 0.74543 0.65106 0.12928 0.0
H1274 H 0.6865 0.63152 0.16931 0.0
H1275 H 0.6519 0.60853 0.15443 0.0
C1276 C 0.72181 0.5364 0.30955 0.0
C1277 C 0.70818 0.53079 0.33751 0.0
C1278 C 0.71809 0.47644 0.33465 0.0
C1279 C 0.73742 0.48558 0.31322 0.0
N1280 N 0.75721 0.5227 0.27833 0.0
N1281 N 0.69379 0.49579 0.37785 0.0
C1282 C 0.73871 0.51486 0.29947 0.0
C1283 C 0.70569 0.50054 0.34986 0.0
N1284 N 0.71828 0.56194 0.29253 0.0
N1285 N 0.71274 0.44521 0.3416 0.0
H1286 H 0.68533 0.51323 0.3908 0.0
H1287 H 0.69444 0.47555 0.39019 0.0
H1288 H 0.72207 0.42719 0.33121 0.0
H1289 H 0.697 0.43637 0.35469 0.0
H1290 H 0.72589 0.56553 0.27024 0.0
H1291 H 0.70523 0.57765 0.29862 0.0
H1292 H 0.76185 0.54561 0.27091 0.0
H1293 H 0.76882 0.50636 0.26942 0.0
C1294 C 0.8578 0.45204 0.50015 0.0
C1295 C 0.83679 0.46492 0.51395 0.0
C1296 C 0.86784 0.5195 0.52876 0.0
C1297 C 0.88917 0.50631 0.51605 0.0
N1298 N 0.90362 0.46251 0.48379 0.0
N1299 N 0.82065 0.50933 0.54219 0.0
C1300 C 0.88382 0.47332 0.49977 0.0
C1301 C 0.84129 0.49839 0.52803 0.0
N1302 N 0.85348 0.41908 0.48953 0.0
N1303 N 0.87311 0.55222 0.54109 0.0
H1304 H 0.8007 0.49453 0.5411 0.0
H1305 H 0.8232 0.53258 0.55589 0.0
H1306 H 0.89248 0.56811 0.54183 0.0
H1307 H 0.85817 0.56425 0.54896 0.0
H1308 H 0.86926 0.40741 0.48353 0.0
H1309 H 0.83422 0.40278 0.48826 0.0
H1310 H 0.89972 0.43997 0.46802 0.0
H1311 H 0.92353 0.47698 0.48415 0.0
C1312 C 0.37621 0.1688 0.34846 0.0
C1313 C 0.3998 0.16839 0.33129 0.0
C1314 C 0.39385 0.22544 0.31943 0.0
C1315 C 0.3691 0.22487 0.33467 0.0
N1316 N 0.33545 0.19104 0.35999 0.0
N1317 N 0.42675 0.19666 0.29491 0.0
C1318 C 0.36001 0.19494 0.34775 0.0
C1319 C 0.40742 0.19709 0.31566 0.0
N1320 N 0.37006 0.14491 0.36784 0.0
N1321 N 0.40458 0.25334 0.30772 0.0
H1322 H 0.43648 0.17709 0.29084 0.0
H1323 H 0.43133 0.21412 0.27929 0.0
H1324 H 0.39447 0.27284 0.30685 0.0
H1325 H 0.42419 0.258 0.30049 0.0
H1326 H 0.35604 0.14524 0.38459 0.0
H1327 H 0.38115 0.12633 0.36995 0.0
H1328 H 0.32496 0.16878 0.36505 0.0
H1329 H 0.32449 0.2096 0.36323 0.0
C1330 C 0.36927 0.13684 0.55448 0.0
C1331 C 0.36313 0.15766 0.58154 0.0
C1332 C 0.40791 0.15446 0.6188 0.0
C1333 C 0.41236 0.1309 0.59306 0.0
N1334 N 0.39578 0.09669 0.53768 0.0
N1335 N 0.37434 0.1817 0.6416 0.0
C1336 C 0.39257 0.12124 0.56126 0.0
C1337 C 0.38196 0.16546 0.61423 0.0
N1338 N 0.35369 0.13318 0.52189 0.0
N1339 N 0.4286 0.16648 0.64764 0.0
H1340 H 0.35515 0.18912 0.63995 0.0
H1341 H 0.38567 0.185 0.66676 0.0
H1342 H 0.44748 0.15835 0.65235 0.0
H1343 H 0.42814 0.18639 0.66547 0.0
H1344 H 0.35892 0.12114 0.50042 0.0
H1345 H 0.33701 0.14484 0.51567 0.0
H1346 H 0.38031 0.08572 0.5159 0.0
H1347 H 0.41316 0.08569 0.54104 0.0
C1348 C 0.75058 0.68641 0.34748 0.0
C1349 C 0.74066 0.68883 0.37883 0.0
C1350 C 0.78032 0.73552 0.40396 0.0
C1351 C 0.78973 0.734 0.37223 0.0
N1352 N 0.78831 0.70331 0.31698 0.0
N1353 N 0.74274 0.71831 0.43473 0.0
C1354 C 0.77588 0.70834 0.34466 0.0
C1355 C 0.75457 0.71419 0.40644 0.0
N1356 N 0.73529 0.66355 0.32007 0.0
N1357 N 0.79692 0.75594 0.43232 0.0
H1358 H 0.72412 0.70279 0.43734 0.0
H1359 H 0.74982 0.73852 0.45414 0.0
H1360 H 0.81671 0.77013 0.43199 0.0
H1361 H 0.79267 0.75641 0.45693 0.0
H1362 H 0.73923 0.6627 0.29531 0.0
H1363 H 0.71706 0.64664 0.32135 0.0
H1364 H 0.78123 0.68314 0.29755 0.0
H1365 H 0.80741 0.71801 0.31465 0.0
C1366 C 0.88315 0.45843 0.79992 0.0
C1367 C 0.90028 0.48081 0.82935 0.0
C1368 C 0.89285 0.43402 0.86254 0.0
C1369 C 0.87321 0.41254 0.83429 0.0
N1370 N 0.84671 0.40843 0.77667 0.0
N1371 N 0.91365 0.4899 0.89108 0.0
C1372 C 0.86768 0.42598 0.80314 0.0
C1373 C 0.90289 0.46842 0.86121 0.0
N1374 N 0.88237 0.46751 0.76827 0.0
N1375 N 0.90339 0.42138 0.89059 0.0
H1376 H 0.91915 0.5151 0.89168 0.0
H1377 H 0.91369 0.48316 0.91528 0.0
H1378 H 0.8985 0.39652 0.89207 0.0
H1379 H 0.91973 0.43487 0.91041 0.0
H1380 H 0.8732 0.45149 0.74543 0.0
H1381 H 0.89314 0.49029 0.76473 0.0
H1382 H 0.83916 0.41797 0.75499 0.0
H1383 H 0.83504 0.38529 0.77767 0.0
C1384 C 0.12259 0.92556 0.12449 0.0
C1385 C 0.11522 0.91928 0.15637 0.0
C1386 C 0.10172 0.97281 0.16334 0.0
C1387 C 0.10665 0.97775 0.13014 0.0
N1388 N 0.11867 0.95687 0.07732 0.0
N1389 N 0.09102 0.93395 0.20163 0.0
C1390 C 0.11605 0.95342 0.11015 0.0
C1391 C 0.10313 0.94222 0.17468 0.0
N1392 N 0.13735 0.90598 0.10878 0.0
N1393 N 0.09547 0.99731 0.18427 0.0
H1394 H 0.08999 0.9113 0.20974 0.0
H1395 H 0.07909 0.948 0.21354 0.0
H1396 H 0.09311 1.01956 0.17684 0.0
H1397 H 0.09496 0.99668 0.21008 0.0
H1398 H 0.14608 0.91115 0.08762 0.0
H1399 H 0.14338 0.8862 0.1189 0.0
H1400 H 0.12217 0.93845 0.05987 0.0
H1401 H 0.11554 0.9776 0.06683 0.0
C1402 C 0.95085 0.28906 0.90535 0.0
C1403 C 0.95598 0.28996 0.94163 0.0
C1404 C 0.90605 0.29417 0.93984 0.0
C1405 C 0.9026 0.298 0.90472 0.0
N1406 N 0.92528 0.30771 0.857 0.0
N1407 N 0.93912 0.30256 0.99421 0.0
C1408 C 0.9262 0.2983 0.88851 0.0
C1409 C 0.93377 0.29508 0.95921 0.0
N1410 N 0.96849 0.27749 0.88634 0.0
N1411 N 0.88285 0.28869 0.95465 0.0
H1412 H 0.95925 0.30615 1.00958 0.0
H1413 H 0.92414 0.30915 1.00766 0.0
H1414 H 0.86232 0.28702 0.94105 0.0
H1415 H 0.8838 0.28265 0.97925 0.0
H1416 H 0.96423 0.27397 0.85956 0.0
H1417 H 0.98509 0.26726 0.89679 0.0
H1418 H 0.94279 0.31085 0.84523 0.0
H1419 H 0.90821 0.31622 0.84483 0.0
C1420 C 0.62975 0.21549 0.65981 0.0
C1421 C 0.61043 0.23432 0.64716 0.0
C1422 C 0.58273 0.18623 0.60557 0.0
C1423 C 0.5999 0.16649 0.62134 0.0
N1424 N 0.63804 0.16179 0.66646 0.0
N1425 N 0.56699 0.23738 0.61005 0.0
C1426 C 0.62312 0.18101 0.64908 0.0
C1427 C 0.58661 0.21972 0.62035 0.0
N1428 N 0.65488 0.23078 0.68155 0.0
N1429 N 0.56326 0.17317 0.57587 0.0
H1430 H 0.5693 0.26199 0.61988 0.0
H1431 H 0.54751 0.22715 0.59358 0.0
H1432 H 0.56025 0.14899 0.56408 0.0
H1433 H 0.55198 0.18694 0.56122 0.0
H1434 H 0.67119 0.219 0.68903 0.0
H1435 H 0.66065 0.25604 0.68945 0.0
H1436 H 0.65259 0.17048 0.68955 0.0
H1437 H 0.63437 0.13654 0.65949 0.0
C1438 C 0.61116 0.77785 0.42685 0.0
C1439 C 0.61032 0.80141 0.45507 0.0
C1440 C 0.65946 0.82915 0.45429 0.0
C1441 C 0.65862 0.80821 0.42345 0.0
N1442 N 0.63175 0.76566 0.37722 0.0
N1443 N 0.63308 0.85254 0.4928 0.0
C1444 C 0.63392 0.7834 0.40885 0.0
C1445 C 0.63438 0.8278 0.46816 0.0
N1446 N 0.59111 0.74917 0.41832 0.0
N1447 N 0.68451 0.84983 0.47093 0.0
H1448 H 0.61566 0.85276 0.50429 0.0
H1449 H 0.64843 0.8743 0.4999 0.0
H1450 H 0.70327 0.85147 0.46163 0.0
H1451 H 0.68737 0.86307 0.49546 0.0
H1452 H 0.5923 0.7298 0.40027 0.0
H1453 H 0.57505 0.74312 0.43195 0.0
H1454 H 0.613 0.74987 0.36358 0.0
H1455 H 0.64789 0.76883 0.36323 0.0
C1456 C 1.0261 0.25048 0.44539 0.0
C1457 C 0.04755 0.27936 0.45791 0.0
C1458 C 0.06622 0.25653 0.50768 0.0
C1459 C 0.04554 0.2272 0.49454 0.0
N1460 N 1.00931 0.19325 0.44883 0.0
N1461 N 0.09197 0.30727 0.49589 0.0
C1462 C 1.02661 0.22315 0.46258 0.0
C1463 C 0.06882 0.28162 0.48754 0.0
N1464 N 1.00448 0.24983 0.41845 0.0
N1465 N 0.08268 0.26087 0.53995 0.0
H1466 H 0.09485 0.32643 0.48185 0.0
H1467 H 0.10968 0.30812 0.51488 0.0
H1468 H 0.08224 0.2427 0.55541 0.0
H1469 H 0.09533 0.28334 0.55252 0.0
H1470 H 0.98666 0.23067 0.41057 0.0
H1471 H 1.00321 0.26957 0.40541 0.0
H1472 H 0.99702 0.18789 0.42404 0.0
H1473 H 1.00895 0.17292 0.46133 0.0
C1474 C 0.69525 0.29579 0.33919 0.0
C1475 C 0.67884 0.26573 0.32059 0.0
C1476 C 0.71801 0.25849 0.29204 0.0
C1477 C 0.73326 0.2905 0.30827 0.0
N1478 N 0.72812 0.34375 0.33344 0.0
N1479 N 0.67829 0.21313 0.29022 0.0
C1480 C 0.71977 0.31044 0.32827 0.0
C1481 C 0.69157 0.24526 0.30056 0.0
N1482 N 0.68702 0.31065 0.36675 0.0
N1483 N 0.727 0.24242 0.26575 0.0
H1484 H 0.65953 0.20322 0.29784 0.0
H1485 H 0.68723 0.1959 0.27773 0.0
H1486 H 0.74323 0.25376 0.25464 0.0
H1487 H 0.71589 0.21992 0.25155 0.0
H1488 H 0.69921 0.33219 0.38211 0.0
H1489 H 0.66998 0.299 0.37647 0.0
H1490 H 0.71783 0.35902 0.34666 0.0
H1491 H 0.74155 0.35599 0.31934 0.0
C1492 C 0.57234 0.96365 0.99296 0.0
C1493 C 0.56601 0.93098 0.99825 0.0
C1494 C 0.55568 0.94912 0.05458 0.0
C1495 C 0.56025 0.98172 0.04765 0.0
N1496 N 0.55698 1.0135 1.00116 0.0
N1497 N 0.54513 0.89149 0.03096 0.0
C1498 C 0.56402 0.9873 0.01424 0.0
C1499 C 0.55608 0.92321 0.02835 0.0
N1500 N 0.58577 0.97216 0.9671 0.0
N1501 N 0.54986 0.94267 0.0855 0.0
H1502 H 0.54414 0.87177 0.01219 0.0
H1503 H 0.53474 0.8848 0.05046 0.0
H1504 H 0.54435 0.9597 0.10274 0.0
H1505 H 0.55066 0.92046 0.09402 0.0
H1506 H 0.59193 0.99637 0.96355 0.0
H1507 H 0.59335 0.95549 0.9517 0.0
H1508 H 0.5577 1.0171 0.97598 0.0
H1509 H 0.54608 0.02834 0.01342 0.0
C1510 C 0.04609 0.82713 0.83734 0.0
C1511 C 0.04093 0.79295 0.82657 0.0
C1512 C 0.9969 0.78517 0.84832 0.0
C1513 C 0.99968 0.81957 0.85342 0.0
N1514 N 1.02613 0.87378 0.85218 0.0
N1515 N 1.01227 0.73879 0.82148 0.0
C1516 C 1.02427 0.84077 0.84825 0.0
C1517 C 1.01675 0.77165 0.83244 0.0
N1518 N 0.07195 0.84641 0.83724 0.0
N1519 N 0.97539 0.76566 0.85883 0.0
H1520 H 1.02706 0.72823 0.81092 0.0
H1521 H 0.99351 0.72221 0.82142 0.0
H1522 H 0.96046 0.775 0.87035 0.0
H1523 H 0.97362 0.74069 0.85872 0.0
H1524 H 0.07799 0.87117 0.84749 0.0
H1525 H 0.08846 0.83688 0.82976 0.0
H1526 H 0.04181 0.89014 0.84463 0.0
H1527 H 1.01092 0.88481 0.86114 0.0
C1528 C 0.14743 0.11552 0.99805 0.0
C1529 C 0.14409 0.09329 0.96728 0.0
C1530 C 0.12316 0.04857 0.99519 0.0
C1531 C 0.12178 0.07128 0.02368 0.0
N1532 N 0.13488 0.12677 0.05349 0.0
N1533 N 0.12475 0.03909 0.93487 0.0
C1534 C 0.1348 0.10488 0.02561 0.0
C1535 C 0.13104 0.05988 0.96549 0.0
N1536 N 0.1637 0.1464 1.00152 0.0
N1537 N 0.11752 1.01591 0.99691 0.0
H1538 H 0.12912 0.04649 0.91207 0.0
H1539 H 0.11251 1.01537 0.9313 0.0
H1540 H 0.11311 1.00702 0.01903 0.0
H1541 H 0.12058 0.99823 0.97825 0.0
H1542 H 0.1696 0.16279 0.02449 0.0
H1543 H 0.17317 0.15494 0.98197 0.0
H1544 H 0.13935 0.152 0.05428 0.0
H1545 H 0.13082 0.11924 0.07612 0.0
C1546 C 0.8372 0.35548 0.60382 0.0
C1547 C 0.81084 0.34043 0.58133 0.0
C1548 C 0.80761 0.29231 0.60954 0.0
C1549 C 0.83237 0.30875 0.63388 0.0
N1550 N 0.87354 0.35329 0.65166 0.0
N1551 N 0.77316 0.29242 0.55899 0.0
C1552 C 0.84832 0.33907 0.62962 0.0
C1553 C 0.79702 0.30805 0.58275 0.0
N1554 N 0.85149 0.38632 0.60295 0.0
N1555 N 0.793 0.26209 0.61208 0.0
H1556 H 0.76506 0.30268 0.53803 0.0
H1557 H 0.76217 0.26881 0.5598 0.0
H1558 H 0.79936 0.24865 0.63109 0.0
H1559 H 0.79936 0.24865 0.63109 0.0
H1560 H 0.8449 0.40114 0.58562 0.0
H1561 H 0.8449 0.40114 0.58562 0.0
H1562 H 0.88556 0.37609 0.64989 0.0
H1563 H 0.8827 0.34176 0.67092 0.0
C1564 C 0.53199 0.07215 0.43105 0.0
C1565 C 0.50473 0.07977 0.43026 0.0
C1566 C 0.51525 0.0819 0.49495 0.0
C1567 C 0.54115 0.07081 0.49484 0.0
N1568 N 0.56697 0.04456 0.45752 0.0
N1569 N 0.4686 0.08488 0.46332 0.0
C1570 C 0.54735 0.06294 0.46136 0.0
C1571 C 0.49597 0.08279 0.46284 0.0
N1572 N 0.54428 0.07487 0.40313 0.0
N1573 N 0.50904 0.09249 0.52568 0.0
H1574 H 0.45378 0.08459 0.44116 0.0
H1575 H 0.45982 0.08349 0.48515 0.0
H1576 H 0.52182 0.09181 0.5491 0.0
H1577 H 0.49253 0.10438 0.52779 0.0
H1578 H 0.56519 0.07285 0.40341 0.0
H1579 H 0.53503 0.08317 0.38138 0.0
H1580 H 0.57057 0.03576 0.43357 0.0
H1581 H 0.57649 0.03399 0.47731 0.0
C1582 C 0.77992 0.73733 0.19037 0.0
C1583 C 0.79905 0.74818 0.16922 0.0
C1584 C 0.82951 0.78747 0.21839 0.0
C1585 C 0.81083 0.77575 0.24005 0.0
N1586 N 0.77078 0.73557 0.24768 0.0
N1587 N 0.83927 0.78682 0.1607 0.0
C1588 C 0.78657 0.7498 0.22623 0.0
C1589 C 0.82307 0.7742 0.18258 0.0
N1590 N 0.75457 0.7162 0.17566 0.0
N1591 N 0.85395 0.8105 0.23223 0.0
H1592 H 0.83583 0.77695 0.13476 0.0
H1593 H 0.85494 0.80828 0.16734 0.0
H1594 H 0.85898 0.82212 0.25765 0.0
H1595 H 0.87025 0.8172 0.21923 0.0
H1596 H 0.73823 0.70952 0.18863 0.0
H1597 H 0.74855 0.7078 0.14929 0.0
H1598 H 0.75527 0.714 0.24009 0.0
H1599 H 0.77465 0.74347 0.27404 0.0
C1600 C 0.10887 0.11539 0.76536 0.0
C1601 C 0.12878 0.09809 0.77971 0.0
C1602 C 0.13141 0.07384 0.7221 0.0
C1603 C 0.10909 0.08783 0.7074 0.0
N1604 N 0.07225 0.11691 0.71695 0.0
N1605 N 0.15043 0.05193 0.77149 0.0
C1606 C 0.0965 0.10724 0.72953 0.0
C1607 C 0.13735 0.07451 0.75799 0.0
N1608 N 0.10243 0.14027 0.78547 0.0
N1609 N 0.14834 0.06181 0.70237 0.0
H1610 H 0.15331 0.05033 0.79756 0.0
H1611 H 0.15511 0.03266 0.75624 0.0
H1612 H 0.14642 0.06335 0.67629 0.0
H1613 H 0.16625 0.05369 0.71286 0.0
H1614 H 0.09059 0.15621 0.77551 0.0
H1615 H 0.1107 0.14647 0.8118 0.0
H1616 H 0.0609 0.12822 0.73267 0.0
H1617 H 0.06174 0.11076 0.6914 0.0
C1618 C 0.77711 0.36664 0.42268 0.0
C1619 C 0.75461 0.34651 0.43333 0.0
C1620 C 0.77331 0.2985 0.41691 0.0
C1621 C 0.79646 0.31905 0.40746 0.0
N1622 N 0.82605 0.37311 0.41659 0.0
N1623 N 0.72687 0.29303 0.43222 0.0
C1624 C 0.80011 0.35334 0.41487 0.0
C1625 C 0.75124 0.31222 0.42734 0.0
N1626 N 0.77622 0.39825 0.41955 0.0
N1627 N 0.77411 0.26678 0.41974 0.0
H1628 H 0.7107 0.3032 0.43989 0.0
H1629 H 0.7215 0.2677 0.42541 0.0
H1630 H 0.79216 0.25755 0.41807 0.0
H1631 H 0.75884 0.25102 0.42857 0.0
H1632 H 0.79214 0.41439 0.41216 0.0
H1633 H 0.75776 0.40695 0.42005 0.0
H1634 H 0.83027 0.39844 0.4231 0.0
H1635 H 0.84409 0.36375 0.41548 0.0
C1636 C 0.51274 0.0553 0.23739 0.0
C1637 C 0.49281 0.07611 0.23889 0.0
C1638 C 0.50504 0.09146 0.18278 0.0
C1639 C 0.52292 0.06825 0.17953 0.0
N1640 N 0.53757 1.02301 0.20306 0.0
N1641 N 0.46762 0.1104 0.20778 0.0
C1642 C 0.5251 0.04908 0.20692 0.0
C1643 C 0.48819 0.09271 0.20979 0.0
N1644 N 0.52002 0.04082 0.26529 0.0
N1645 N 0.50559 0.11453 0.16166 0.0
H1646 H 0.45635 0.11379 0.22726 0.0
H1647 H 0.46031 0.11962 0.18576 0.0
H1648 H 0.51846 0.1164 0.14357 0.0
H1649 H 0.496 0.13432 0.16486 0.0
H1650 H 0.53689 0.02907 0.26836 0.0
H1651 H 0.5105 0.04257 0.28659 0.0
H1652 H 0.53743 1.00582 0.21962 0.0
H1653 H 0.5451 1.01623 0.18108 0.0
C1654 C 0.77924 0.76824 0.97076 0.0
C1655 C 0.79395 0.74394 0.98096 0.0
C1656 C 0.82465 0.75592 0.93913 0.0
C1657 C 0.81052 0.7809 0.92948 0.0
N1658 N 0.7761 0.81297 0.93799 0.0
N1659 N 0.82703 0.71033 0.97033 0.0
C1660 C 0.78795 0.78727 0.94548 0.0
C1661 C 0.8154 0.73637 0.96356 0.0
N1662 N 0.75629 0.77231 0.98461 0.0
N1663 N 0.84839 0.75242 0.92675 0.0
H1664 H 0.82222 0.69654 0.98925 0.0
H1665 H 0.83994 0.70072 0.95563 0.0
H1666 H 0.85562 0.76567 0.90855 0.0
H1667 H 0.8621 0.73805 0.93591 0.0
H1668 H 0.74276 0.78725 0.97654 0.0
H1669 H 0.74943 0.75875 1.00288 0.0
H1670 H 0.7617 0.82162 0.95091 0.0
H1671 H 0.78175 0.82693 0.91946 0.0
C1672 C 0.95 0.1721 0.08266 0.0
C1673 C 0.93045 0.17013 0.10479 0.0
C1674 C 0.92304 0.11072 0.09649 0.0
C1675 C 0.94485 0.11286 0.07751 0.0
N1676 N 0.98296 0.14592 0.05772 0.0
N1677 N 0.9033 0.13839 0.13943 0.0
C1678 C 0.95938 0.14362 0.07182 0.0
C1679 C 0.91849 0.13971 0.11384 0.0
N1680 N 0.95946 0.20103 0.07192 0.0
N1681 N 0.90644 0.08095 0.09748 0.0
H1682 H 0.90041 0.15901 0.15418 0.0
H1683 H 0.89632 0.11695 0.14881 0.0
H1684 H 0.90912 0.05913 0.08454 0.0
H1685 H 0.88831 0.0782 0.10808 0.0
H1686 H 0.97119 0.203 0.05262 0.0
H1687 H 0.95414 0.22278 0.08103 0.0
H1688 H 0.99624 0.16828 0.05751 0.0
H1689 H 0.99054 0.12568 0.04906 0.0
C1690 C 0.46831 0.50038 0.15862 0.0
C1691 C 0.4522 0.47535 0.13159 0.0
C1692 C 0.49159 0.48433 0.10022 0.0
C1693 C 0.50553 0.51269 0.12442 0.0
N1694 N 0.50905 0.54592 0.1788 0.0
N1695 N 0.44767 0.44474 0.07505 0.0
C1696 C 0.4944 0.51999 0.15435 0.0
C1697 C 0.46384 0.46723 0.10224 0.0
N1698 N 0.45904 0.50464 0.18882 0.0
N1699 N 0.50481 0.47371 0.07518 0.0
H1700 H 0.42734 0.43165 0.07502 0.0
H1701 H 0.4534 0.44081 0.0513 0.0
H1702 H 0.5248 0.48591 0.07294 0.0
H1703 H 0.49737 0.45134 0.0589 0.0
H1704 H 0.47071 0.52042 0.21084 0.0
H1705 H 0.44034 0.49038 0.19285 0.0
H1706 H 0.50083 0.55601 0.19883 0.0
H1707 H 0.5298 0.55755 0.17867 0.0
C1708 C 0.45338 0.62386 0.80081 0.0
C1709 C 0.4471 0.59669 0.81785 0.0
C1710 C 0.41156 0.61943 0.84243 0.0
C1711 C 0.41834 0.6471 0.82616 0.0
N1712 N 0.44781 0.67875 0.79427 0.0
N1713 N 0.42489 0.57078 0.85987 0.0
C1714 C 0.43995 0.65029 0.80665 0.0
C1715 C 0.42748 0.59503 0.84007 0.0
N1716 N 0.47149 0.62384 0.77839 0.0
N1717 N 0.38955 0.61625 0.85958 0.0
H1718 H 0.43609 0.55219 0.85876 0.0
H1719 H 0.41343 0.57038 0.87947 0.0
H1720 H 0.37828 0.63443 0.86362 0.0
H1721 H 0.38121 0.59481 0.8681 0.0
H1722 H 0.47464 0.64115 0.76225 0.0
H1723 H 0.48233 0.60521 0.77441 0.0
H1724 H 0.46528 0.68401 0.78276 0.0
H1725 H 0.43787 0.69826 0.79756 0.0
C1726 C 0.30293 0.66746 0.68938 0.0
C1727 C 0.321 0.6579 0.6681 0.0
C1728 C 0.28668 0.60621 0.64547 0.0
C1729 C 0.26715 0.61786 0.66343 0.0
N1730 N 0.25461 0.66267 0.69678 0.0
N1731 N 0.3295 0.62018 0.62281 0.0
C1732 C 0.27473 0.64924 0.68411 0.0
C1733 C 0.31293 0.62762 0.6455 0.0
N1734 N 0.31282 0.6941 0.71463 0.0
N1735 N 0.28015 0.57473 0.62861 0.0
H1736 H 0.34915 0.63499 0.6226 0.0
H1737 H 0.32301 0.60043 0.60282 0.0
H1738 H 0.26098 0.55853 0.62804 0.0
H1739 H 0.29455 0.56392 0.61764 0.0
H1740 H 0.30142 0.70028 0.73317 0.0
H1741 H 0.33363 0.70786 0.71908 0.0
H1742 H 0.25854 0.68692 0.70864 0.0
H1743 H 0.23325 0.65088 0.69248 0.0
C1744 C 0.74656 0.9321 0.82878 0.0
C1745 C 0.75036 0.95582 0.85953 0.0
C1746 C 0.78427 0.92206 0.88701 0.0
C1747 C 0.78088 0.8987 0.85617 0.0
N1748 N 0.75519 0.88215 0.79773 0.0
N1749 N 0.7771 0.97303 0.91746 0.0
C1750 C 0.76086 0.90411 0.82737 0.0
C1751 C 0.77055 0.95048 0.8882 0.0
N1752 N 0.73088 0.9378 0.7993 0.0
N1753 N 0.79897 0.91564 0.91675 0.0
H1754 H 0.76595 0.99128 0.92144 0.0
H1755 H 0.79453 0.97482 0.93716 0.0
H1756 H 0.80799 0.89532 0.91774 0.0
H1757 H 0.79984 0.92825 0.94103 0.0
H1758 H 0.72939 0.92496 0.77497 0.0
H1759 H 0.7211 0.95754 0.79844 0.0
H1760 H 0.73775 0.87979 0.77791 0.0
H1761 H 0.76744 0.86512 0.79331 0.0
C1762 C 0.78616 0.97523 0.58146 0.0
C1763 C 0.79884 0.97137 0.61506 0.0
C1764 C 0.7635 0.99676 0.63845 0.0
C1765 C 0.74983 0.99845 0.60484 0.0
N1766 N 0.74439 0.98312 0.54374 0.0
N1767 N 0.79671 0.97323 0.67498 0.0
C1768 C 0.76007 0.98585 0.57613 0.0
C1769 C 0.78677 0.9808 0.64355 0.0
N1770 N 0.79973 0.97024 0.55483 0.0
N1771 N 0.75419 1.01172 0.66499 0.0
H1772 H 0.81354 0.9615 0.67949 0.0
H1773 H 0.78684 0.97589 0.69583 0.0
H1774 H 0.76377 1.01428 0.69083 0.0
H1775 H 0.76377 1.01428 0.69083 0.0
H1776 H 0.79306 0.97584 0.53054 0.0
H1777 H 0.8193 0.96355 0.5578 0.0
H1778 H 0.74914 0.97099 0.52197 0.0
H1779 H 0.72502 0.9902 0.53897 0.0
C1780 C 0.40606 0.44379 0.84575 0.0
C1781 C 0.42112 0.43673 0.81958 0.0
C1782 C 0.39164 0.38099 0.80565 0.0
C1783 C 0.37341 0.3898 0.82775 0.0
N1784 N 0.36246 0.43207 0.86655 0.0
N1785 N 0.42675 0.39951 0.7721 0.0
C1786 C 0.38036 0.42195 0.84704 0.0
C1787 C 0.41367 0.40547 0.79899 0.0
N1788 N 0.417 0.47082 0.87046 0.0
N1789 N 0.38811 0.3493 0.791 0.0
H1790 H 0.44302 0.41671 0.7666 0.0
H1791 H 0.41999 0.37856 0.75357 0.0
H1792 H 0.37279 0.33086 0.79572 0.0
H1793 H 0.40189 0.34081 0.77684 0.0
H1794 H 0.40859 0.47545 0.89226 0.0
H1795 H 0.43642 0.48668 0.87134 0.0
H1796 H 0.36481 0.45635 0.87751 0.0
H1797 H 0.34406 0.41695 0.86981 0.0
C1798 C 0.27514 0.65079 0.34113 0.0
C1799 C 0.25452 0.64446 0.36228 0.0
C1800 C 0.26192 0.70579 0.37715 0.0
C1801 C 0.28462 0.71201 0.35881 0.0
N1802 N 0.31686 0.68718 0.33082 0.0
N1803 N 0.23394 0.66843 0.40684 0.0
C1804 C 0.29223 0.68351 0.34292 0.0
C1805 C 0.24958 0.67276 0.382 0.0
N1806 N 0.27775 0.62583 0.31769 0.0
N1807 N 0.2508 0.73122 0.38877 0.0
H1808 H 0.22552 0.64543 0.41222 0.0
H1809 H 0.23206 0.68765 0.42461 0.0
H1810 H 0.25806 0.75508 0.38495 0.0
H1811 H 0.23243 0.72808 0.39889 0.0
H1812 H 0.2899 0.62943 0.29898 0.0
H1813 H 0.26541 0.6022 0.31436 0.0
H1814 H 0.32512 0.66748 0.32218 0.0
H1815 H 0.33086 0.70971 0.33338 0.0
C1816 C 0.56378 0.71136 0.58182 0.0
C1817 C 0.54786 0.70754 0.54749 0.0
C1818 C 0.5501 0.64917 0.54053 0.0
C1819 C 0.56222 0.65198 0.57607 0.0
N1820 N 0.57606 0.68566 0.63185 0.0
N1821 N 0.52037 0.66963 0.49729 0.0
C1822 C 0.56768 0.68306 0.5971 0.0
C1823 C 0.5394 0.6755 0.52784 0.0
N1824 N 0.57697 0.74184 0.59932 0.0
N1825 N 0.55027 0.62212 0.51812 0.0
H1826 H 0.51025 0.68727 0.48803 0.0
H1827 H 0.51173 0.64621 0.48349 0.0
H1828 H 0.55966 0.60327 0.52547 0.0
H1829 H 0.54433 0.62033 0.49155 0.0
H1830 H 0.59111 0.74572 0.62285 0.0
H1831 H 0.57656 0.76313 0.58883 0.0
H1832 H 0.57763 0.70699 0.64883 0.0
H1833 H 0.57868 0.66561 0.64392 0.0
C1834 C 0.72811 0.35384 0.76177 0.0
C1835 C 0.70319 0.32872 0.75764 0.0
C1836 C 0.73124 0.29726 0.79291 0.0
C1837 C 0.75523 0.32388 0.80004 0.0
N1838 N 0.77625 0.37854 0.7934 0.0
N1839 N 0.68069 0.27641 0.76958 0.0
C1840 C 0.75365 0.35231 0.78471 0.0
C1841 C 0.70474 0.30034 0.77324 0.0
N1842 N 0.72732 0.37937 0.74394 0.0
N1843 N 0.73402 0.26878 0.80469 0.0
H1844 H 0.66151 0.27647 0.75357 0.0
H1845 H 0.67919 0.25707 0.78344 0.0
H1846 H 0.75298 0.26601 0.8192 0.0
H1847 H 0.71854 0.24715 0.79803 0.0
H1848 H 0.74527 0.39659 0.74259 0.0
H1849 H 0.7088 0.3823 0.72854 0.0
H1850 H 0.77568 0.40146 0.78669 0.0
H1851 H 0.79541 0.37789 0.80914 0.0
C1852 C 0.04287 0.4025 0.07449 0.0
C1853 C 0.05416 0.39139 0.04591 0.0
C1854 C 0.06848 0.44822 0.03682 0.0
C1855 C 0.06025 0.45973 0.06755 0.0
N1856 N 0.0446 0.44745 0.1194 0.0
N1857 N 0.08509 0.40518 1.00647 0.0
C1858 C 0.04881 0.43677 0.0875 0.0
C1859 C 0.06917 0.41473 0.02907 0.0
N1860 N 1.02548 0.3807 0.08834 0.0
N1861 N 0.07443 0.46891 0.01403 0.0
H1862 H 0.08762 0.38122 1.00151 0.0
H1863 H 0.09847 0.42174 0.99592 0.0
H1864 H 0.07257 0.49321 0.01756 0.0
H1865 H 0.07794 0.46091 0.98979 0.0
H1866 H 1.01424 0.38782 0.1067 0.0
H1867 H 1.02029 0.35563 0.07939 0.0
H1868 H 0.03904 0.43172 0.13644 0.0
H1869 H 0.04928 0.47212 0.13013 0.0
C1870 C 1.02527 0.79757 0.23075 0.0
C1871 C 0.05006 0.82201 0.2468 0.0
C1872 C 1.02697 0.83424 0.29539 0.0
C1873 C 1.00113 0.81291 0.27725 0.0
N1874 N 0.97437 0.77851 0.22476 0.0
N1875 N 0.07196 0.86815 0.29168 0.0
C1876 C 0.9999 0.79585 0.24404 0.0
C1877 C 0.05027 0.84153 0.27847 0.0
N1878 N 1.02626 0.7747 0.20399 0.0
N1879 N 1.02962 0.8469 0.32916 0.0
H1880 H 0.08869 0.87548 0.27944 0.0
H1881 H 0.07177 0.88501 0.31286 0.0
H1882 H 1.01316 0.84211 0.34249 0.0
H1883 H 0.0489 0.85959 0.34474 0.0
H1884 H 1.00966 0.75457 0.19356 0.0
H1885 H 0.04471 0.77355 0.19472 0.0
H1886 H 0.97167 0.76855 0.19897 0.0
H1887 H 0.95538 0.77664 0.23357 0.0
C1888 C 0.64535 0.35167 0.21102 0.0
C1889 C 0.63376 0.35941 0.24016 0.0
C1890 C 0.63376 0.41435 0.2275 0.0
C1891 C 0.6394 0.40404 0.19485 0.0
N1892 N 0.65392 0.36552 0.1561 0.0
N1893 N 0.62031 0.39814 0.27968 0.0
C1894 C 0.64698 0.37373 0.18716 0.0
C1895 C 0.62964 0.39113 0.24996 0.0
N1896 N 0.6541 0.32294 0.20609 0.0
N1897 N 0.6315 0.44588 0.2362 0.0
H1898 H 0.61824 0.38165 0.29699 0.0
H1899 H 0.61409 0.41968 0.28699 0.0
H1900 H 0.63402 0.46305 0.21972 0.0
H1901 H 0.6292 0.45577 0.26037 0.0
H1902 H 0.6644 0.31652 0.18651 0.0
H1903 H 0.65304 0.30643 0.22346 0.0
H1904 H 0.65635 0.34237 0.14682 0.0
H1905 H 0.65654 0.38209 0.13896 0.0
C1906 C 0.95686 0.33906 0.34264 0.0
C1907 C 0.97155 0.36373 0.37034 0.0
C1908 C 0.92736 0.36967 0.3874 0.0
C1909 C 0.91213 0.34616 0.35834 0.0
N1910 N 0.91277 0.31636 0.30267 0.0
N1911 N 0.97149 0.40856 0.41339 0.0
C1912 C 0.92695 0.33314 0.3342 0.0
C1913 C 0.9569 0.38138 0.39049 0.0
N1914 N 0.97144 0.32062 0.32507 0.0
N1915 N 0.91435 0.37877 0.41342 0.0
H1916 H 0.99334 0.41732 0.41609 0.0
H1917 H 0.96156 0.42405 0.42686 0.0
H1918 H 0.89353 0.36805 0.41431 0.0
H1919 H 0.92521 0.39392 0.43626 0.0
H1920 H 0.96155 0.29931 0.30779 0.0
H1921 H 0.9936 0.32562 0.32938 0.0
H1922 H 0.92305 0.30848 0.2836 0.0
H1923 H 0.89107 0.31358 0.29392 0.0
C1924 C 0.06593 0.66462 0.69059 0.0
C1925 C 0.06242 0.6951 0.68261 0.0
C1926 C 0.07398 0.68114 0.62608 0.0
C1927 C 0.08086 0.65212 0.63633 0.0
N1928 N 0.09537 0.62653 0.68544 0.0
N1929 N 0.05217 0.72724 0.6385 0.0
C1930 C 0.08019 0.64666 0.6706 0.0
C1931 C 0.06316 0.70192 0.6489 0.0
N1932 N 0.05584 0.65286 0.7174 0.0
N1933 N 0.08001 0.69011 0.59608 0.0
H1934 H 0.04202 0.74062 0.65413 0.0
H1935 H 0.05009 0.73251 0.61359 0.0
H1936 H 0.09117 0.67745 0.58123 0.0
H1937 H 0.07724 0.71197 0.58802 0.0
H1938 H 0.05714 0.62974 0.72327 0.0
H1939 H 0.04296 0.66452 0.73054 0.0
H1940 H 0.09715 0.62396 0.71127 0.0
H1941 H 0.10909 0.61608 0.67316 0.0
C1942 C 0.62429 0.81307 0.88439 0.0
C1943 C 0.61516 0.83867 0.86868 0.0
C1944 C 0.64796 0.83555 0.82947 0.0
C1945 C 0.65543 0.8085 0.8437 0.0
N1946 N 0.64674 0.76706 0.87934 0.0
N1947 N 0.6148 0.87139 0.82348 0.0
C1948 C 0.64233 0.79588 0.86952 0.0
C1949 C 0.62588 0.84901 0.84024 0.0
N1950 N 0.61631 0.80563 0.91406 0.0
N1951 N 0.66263 0.84897 0.80665 0.0
H1952 H 0.5993 0.88247 0.83161 0.0
H1953 H 0.6196 0.87741 0.8004 0.0
H1954 H 0.67856 0.83928 0.79778 0.0
H1955 H 0.66034 0.87085 0.79824 0.0
H1956 H 0.62494 0.78991 0.92877 0.0
H1957 H 0.60294 0.81738 0.92583 0.0
H1958 H 0.63528 0.75473 0.89527 0.0
H1959 H 0.65998 0.75372 0.86901 0.0
C1960 C 0.51202 0.55657 0.71016 0.0
C1961 C 0.52511 0.53788 0.73286 0.0
C1962 C 0.56689 0.54585 0.706 0.0
C1963 C 0.55272 0.56195 0.68135 0.0
N1964 N 0.51731 0.59304 0.6681 0.0
N1965 N 0.56378 0.51231 0.75096 0.0
C1966 C 0.52672 0.57012 0.68558 0.0
C1967 C 0.55238 0.53222 0.73065 0.0
N1968 N 0.48544 0.56129 0.7119 0.0
N1969 N 0.59474 0.54489 0.70686 0.0
H1970 H 0.55354 0.5013 0.76873 0.0
H1971 H 0.58225 0.50439 0.74846 0.0
H1972 H 0.60588 0.55358 0.68877 0.0
H1973 H 0.60747 0.5374 0.72663 0.0
H1974 H 0.47327 0.5709 0.69339 0.0
H1975 H 0.47465 0.55397 0.73088 0.0
H1976 H 0.50056 0.60345 0.67308 0.0
H1977 H 0.52807 0.60414 0.65076 0.0
C1978 C 0.81038 0.28267 0.08567 0.0
C1979 C 0.8265 0.26518 0.06695 0.0
C1980 C 0.7946 0.26624 0.01377 0.0
C1981 C 0.78459 0.29163 0.03099 0.0
N1982 N 0.77801 0.31967 0.08351 0.0
N1983 N 0.83448 0.24064 0.01287 0.0
C1984 C 0.79018 0.29749 0.06727 0.0
C1985 C 0.8186 0.25671 0.03088 0.0
N1986 N 0.81419 0.28484 0.12059 0.0
N1987 N 0.78124 0.2513 0.98134 0.0
H1988 H 0.85258 0.23357 0.02464 0.0
H1989 H 0.83115 0.23701 0.98612 0.0
H1990 H 0.76193 0.2555 0.96951 0.0
H1991 H 0.78701 0.23147 0.96845 0.0
H1992 H 0.80138 0.29493 0.13509 0.0
H1993 H 0.82887 0.27439 0.135 0.0
H1994 H 0.78367 0.32864 0.10973 0.0
H1995 H 0.76271 0.32988 0.06972 0.0
C1996 C 0.14946 0.52383 0.22553 0.0
C1997 C 0.15169 0.54517 0.25716 0.0
C1998 C 0.11966 0.57513 0.22305 0.0
C1999 C 0.11627 0.55288 0.19171 0.0
N2000 N 0.12626 0.5036 0.16515 0.0
N2001 N 0.14275 0.59535 0.28336 0.0
C2002 C 0.13116 0.5269 0.19358 0.0
C2003 C 0.13758 0.57178 0.25501 0.0
N2004 N 0.16518 0.50047 0.22589 0.0
N2005 N 0.10504 0.59959 0.22247 0.0
H2006 H 0.15557 0.59413 0.30664 0.0
H2007 H 0.13634 0.6174 0.2835 0.0
H2008 H 0.09435 0.60505 0.19975 0.0
H2009 H 0.10253 0.61387 0.2443 0.0
H2010 H 0.16773 0.48647 0.20388 0.0
H2011 H 0.17726 0.49635 0.24842 0.0
H2012 H 0.13317 0.48182 0.16482 0.0
H2013 H 0.1137 0.5053 0.1419 0.0
C2014 C 0.87441 0.85819 0.51412 0.0
C2015 C 0.85409 0.87428 0.52566 0.0
C2016 C 0.82003 0.85023 0.47189 0.0
C2017 C 0.84183 0.83877 0.45782 0.0
N2018 N 0.88355 0.81692 0.47252 0.0
N2019 N 0.80829 0.88821 0.51446 0.0
C2020 C 0.8675 0.83862 0.48082 0.0
C2021 C 0.82717 0.87111 0.50419 0.0
N2022 N 0.90068 0.86242 0.53462 0.0
N2023 N 0.79206 0.83809 0.4568 0.0
H2024 H 0.81201 0.90253 0.53856 0.0
H2025 H 0.78993 0.89017 0.49799 0.0
H2026 H 0.78525 0.81764 0.43766 0.0
H2027 H 0.77533 0.84412 0.46722 0.0
H2028 H 0.91773 0.85502 0.52618 0.0
H2029 H 0.90607 0.87548 0.55955 0.0
H2030 H 0.90143 0.8139 0.489 0.0
H2031 H 0.8765 0.79823 0.45144 0.0
C2032 C 0.54132 0.55876 0.93224 0.0
C2033 C 0.52511 0.52749 0.91568 0.0
C2034 C 0.52618 0.50889 0.97137 0.0
C2035 C 0.54426 0.53937 0.98797 0.0
N2036 N 0.57308 0.59146 0.983 0.0
N2037 N 0.50547 0.47116 0.91826 0.0
C2038 C 0.5529 0.56386 0.96809 0.0
C2039 C 0.5189 0.50194 0.93486 0.0
N2040 N 0.54536 0.58384 0.91373 0.0
N2041 N 0.51412 0.48755 0.99048 0.0
H2042 H 0.4986 0.46546 0.89165 0.0
H2043 H 0.50317 0.45073 0.93054 0.0
H2044 H 0.51728 0.49279 0.01706 0.0
H2045 H 0.49853 0.46649 0.98001 0.0
H2046 H 0.55334 0.60821 0.92497 0.0
H2047 H 0.5392 0.58059 0.88703 0.0
H2048 H 0.58266 0.60817 0.96912 0.0
H2049 H 0.58226 0.59657 1.00902 0.0
C2050 C 0.85167 0.26497 0.22394 0.0
C2051 C 0.87737 0.28216 0.21643 0.0
C2052 C 0.86529 0.33418 0.23504 0.0
C2053 C 0.84088 0.31651 0.24455 0.0
N2054 N 0.804 0.2678 0.23083 0.0
N2055 N 0.91055 0.33274 0.21858 0.0
C2056 C 0.83175 0.28273 0.23309 0.0
C2057 C 0.8846 0.31679 0.22282 0.0
N2058 N 0.84686 0.23208 0.22457 0.0
N2059 N 0.86871 0.36704 0.23514 0.0
H2060 H 0.92537 0.32019 0.21095 0.0
H2061 H 0.91849 0.35781 0.22581 0.0
H2062 H 0.85276 0.37934 0.23914 0.0
H2063 H 0.8852 0.3812 0.22665 0.0
H2064 H 0.82821 0.21857 0.22941 0.0
H2065 H 0.86289 0.21909 0.226 0.0
H2066 H 0.79545 0.24338 0.22009 0.0
H2067 H 0.78888 0.28117 0.23555 0.0
C2068 C 0.13409 0.5283 0.45468 0.0
C2069 C 0.15871 0.55191 0.4515 0.0
C2070 C 0.15315 0.58284 0.50807 0.0
C2071 C 0.12712 0.56081 0.50937 0.0
N2072 N 0.09114 0.51438 0.47816 0.0
N2073 N 0.18695 0.60617 0.47437 0.0
C2074 C 0.11717 0.53436 0.48078 0.0
C2075 C 0.16697 0.58019 0.47828 0.0
N2076 N 0.1275 0.49856 0.43399 0.0
N2077 N 0.16484 0.60718 0.53538 0.0
H2078 H 0.19641 0.60654 0.45303 0.0
H2079 H 0.19189 0.62878 0.49025 0.0
H2080 H 0.15467 0.6117 0.55571 0.0
H2081 H 0.18536 0.62139 0.53898 0.0
H2082 H 0.11199 0.47895 0.43683 0.0
H2083 H 0.13964 0.49208 0.41647 0.0
H2084 H 0.08065 0.49772 0.45618 0.0
H2085 H 0.0791 0.51576 0.4971 0.0
C2086 C 0.86403 0.89208 0.743 0.0
C2087 C 0.85966 0.87618 0.70848 0.0
C2088 C 0.84511 0.82369 0.72847 0.0
C2089 C 0.84415 0.84012 0.76125 0.0
N2090 N 0.84798 0.89195 0.79663 0.0
N2091 N 0.83949 0.82624 0.66779 0.0
C2092 C 0.85264 0.87488 0.76789 0.0
C2093 C 0.84865 0.84174 0.70103 0.0
N2094 N 0.87957 0.92346 0.75245 0.0
N2095 N 0.84278 0.79063 0.72343 0.0
H2096 H 0.83937 0.83838 0.64667 0.0
H2097 H 0.82876 0.80178 0.66134 0.0
H2098 H 0.84135 0.77682 0.74322 0.0
H2099 H 0.84569 0.77778 0.70086 0.0
H2100 H 0.88545 0.9351 0.77794 0.0
H2101 H 0.88935 0.93641 0.73555 0.0
H2102 H 0.85085 0.91732 0.80085 0.0
H2103 H 0.83857 0.88046 0.81447 0.0
C2104 C 0.71006 0.4462 0.6053 0.0
C2105 C 0.73729 0.45106 0.59707 0.0
C2106 C 0.75236 0.50341 0.63568 0.0
C2107 C 0.72425 0.50009 0.64099 0.0
N2108 N 0.68051 0.46352 0.6432 0.0
N2109 N 0.78716 0.47677 0.61504 0.0
C2110 C 0.70455 0.46973 0.63015 0.0
C2111 C 0.75947 0.47728 0.61584 0.0
N2112 N 0.68883 0.42076 0.58759 0.0
N2113 N 0.77171 0.53216 0.64827 0.0
H2114 H 0.793 0.45705 0.60196 0.0
H2115 H 0.80435 0.49405 0.63016 0.0
H2116 H 0.76724 0.55091 0.66451 0.0
H2117 H 0.79153 0.53779 0.64164 0.0
H2118 H 0.66787 0.41841 0.59018 0.0
H2119 H 0.69161 0.40318 0.56864 0.0
H2120 H 0.66828 0.43997 0.64056 0.0
H2121 H 0.67501 0.48069 0.66023 0.0
C2122 C 0.18985 0.1206 0.54186 0.0
C2123 C 0.20528 0.1465 0.56822 0.0
C2124 C 0.16888 0.13218 0.60276 0.0
C2125 C 0.15146 0.10838 0.57481 0.0
N2126 N 0.14448 0.08591 0.51413 0.0
N2127 N 0.20541 0.18209 0.62021 0.0
C2128 C 0.16172 0.10434 0.54336 0.0
C2129 C 0.19331 0.15413 0.59727 0.0
N2130 N 0.20195 0.11134 0.51501 0.0
N2131 N 0.1641 0.13249 0.63541 0.0
H2132 H 0.22344 0.1986 0.6177 0.0
H2133 H 0.19585 0.19046 0.63983 0.0
H2134 H 0.14903 0.11516 0.64248 0.0
H2135 H 0.17796 0.14733 0.65674 0.0
H2136 H 0.19356 0.08972 0.49765 0.0
H2137 H 0.22137 0.12412 0.51126 0.0
H2138 H 0.14967 0.08576 0.48996 0.0
H2139 H 0.12387 0.07317 0.51273 0.0
C2140 C 0.21871 1.01606 0.86926 0.0
C2141 C 0.2114 0.03873 0.84806 0.0
C2142 C 0.22458 1.00877 0.79952 0.0
C2143 C 0.23453 0.98805 0.82159 0.0
N2144 N 0.24705 0.97615 0.8793 0.0
N2145 N 0.21312 0.06141 0.79568 0.0
C2146 C 0.23316 0.99267 0.85701 0.0
C2147 C 0.21591 0.03648 0.81387 0.0
N2148 N 0.21204 1.01702 0.9011 0.0
N2149 N 0.22328 1.00181 0.76497 0.0
H2150 H 0.2073 0.08248 0.8056 0.0
H2151 H 0.21879 0.06237 0.77186 0.0
H2152 H 0.22982 0.98167 0.75382 0.0
H2153 H 0.2134 1.01423 0.7472 0.0
H2154 H 0.2142 0.99884 0.91614 0.0
H2155 H 0.20235 0.03471 0.91148 0.0
H2156 H 0.2495 0.98148 0.90589 0.0
H2157 H 0.25843 0.9591 0.8717 0.0
C2158 C 0.34534 1.00364 0.04551 0.0
C2159 C 0.33985 0.97102 0.02827 0.0
C2160 C 0.38591 0.98141 0.01161 0.0
C2161 C 0.39012 1.01493 0.02587 0.0
N2162 N 0.37181 0.05928 0.05061 0.0
N2163 N 0.35197 0.9302 0.98934 0.0
C2164 C 0.3691 0.02649 0.04092 0.0
C2165 C 0.35923 0.96028 1.00955 0.0
N2166 N 0.32898 1.01227 0.06798 0.0
N2167 N 0.40776 0.96936 1.00175 0.0
H2168 H 0.33238 0.91414 0.98685 0.0
H2169 H 0.36429 0.92244 0.97261 0.0
H2170 H 0.428 0.98371 1.00359 0.0
H2171 H 0.40662 0.9445 0.99474 0.0
H2172 H 0.33374 0.03494 0.08374 0.0
H2173 H 0.31239 0.99563 0.07363 0.0
H2174 H 0.35576 0.06925 0.05873 0.0
H2175 H 0.38905 0.07673 0.04748 0.0
C2176 C 0.87778 0.6713 0.85065 0.0
C2177 C 0.902 0.67117 0.8345 0.0
C2178 C 0.89648 0.72867 0.8233 0.0
C2179 C 0.87109 0.72775 0.83734 0.0
N2180 N 0.83635 0.69308 0.86043 0.0
N2181 N 0.93043 0.70058 0.80016 0.0
C2182 C 0.86152 0.69743 0.84952 0.0
C2183 C 0.91024 0.70039 0.81979 0.0
N2184 N 0.87103 0.64716 0.86952 0.0
N2185 N 0.90761 0.75686 0.8124 0.0
H2186 H 0.94023 0.68108 0.79611 0.0
H2187 H 0.93572 0.7185 0.78529 0.0
H2188 H 0.8974 0.77626 0.81128 0.0
H2189 H 0.92754 0.7618 0.80602 0.0
H2190 H 0.85646 0.64724 0.88558 0.0
H2191 H 0.8822 0.6287 0.87211 0.0
H2192 H 0.82566 0.67064 0.86484 0.0
H2193 H 0.82507 0.71142 0.86296 0.0
C2194 C 0.88054 0.66821 0.06443 0.0
C2195 C 0.85559 0.6542 0.07575 0.0
C2196 C 0.87821 0.61012 0.09368 0.0
C2197 C 0.904 0.62581 0.0854 0.0
N2198 N 0.93119 0.67263 0.06799 0.0
N2199 N 0.83307 0.61563 0.10789 0.0
C2200 C 0.90556 0.65565 0.07214 0.0
C2201 C 0.85502 0.62609 0.0921 0.0
N2202 N 0.88007 0.69275 0.04518 0.0
N2203 N 0.87558 0.57952 0.10235 0.0
H2204 H 0.81611 0.62711 0.10839 0.0
H2205 H 0.83307 0.5976 0.12346 0.0
H2206 H 0.89201 0.56699 0.10379 0.0
H2207 H 0.85638 0.56537 0.10502 0.0
H2208 H 0.89646 0.7015 0.03298 0.0
H2209 H 0.86222 0.70246 0.03876 0.0
H2210 H 0.93441 0.69627 0.0622 0.0
H2211 H 0.94987 0.66416 0.07313 0.0
C2212 C 0.25594 0.18839 0.85932 0.0
C2213 C 0.24066 0.19663 0.88512 0.0
C2214 C 0.27615 0.2478 0.90656 0.0
C2215 C 0.29065 0.24059 0.87976 0.0
N2216 N 0.29612 0.20374 0.8318 0.0
N2217 N 0.23318 0.23565 0.92958 0.0
C2218 C 0.28098 0.21074 0.8564 0.0
C2219 C 0.24982 0.22687 0.90755 0.0
N2220 N 0.24627 0.15912 0.83762 0.0
N2221 N 0.28843 0.27359 0.93222 0.0
H2222 H 0.21403 0.22055 0.93119 0.0
H2223 H 0.23702 0.25882 0.94409 0.0
H2224 H 0.30868 0.28758 0.93363 0.0
H2225 H 0.28022 0.27888 0.95401 0.0
H2226 H 0.25687 0.14992 0.81967 0.0
H2227 H 0.22702 0.14335 0.83736 0.0
H2228 H 0.29 0.18348 0.81251 0.0
H2229 H 0.3153 0.2187 0.83016 0.0
C2230 C 0.40451 0.96748 0.36322 0.0
C2231 C 0.39838 0.98097 0.33221 0.0
C2232 C 0.3641 0.92689 0.30749 0.0
C2233 C 0.37173 0.91273 0.33761 0.0
N2234 N 0.40438 0.91945 0.39164 0.0
N2235 N 0.37398 0.97003 0.27291 0.0
C2236 C 0.39316 0.93325 0.36481 0.0
C2237 C 0.37888 0.95942 0.30382 0.0
N2238 N 0.42176 0.98723 0.39166 0.0
N2239 N 0.34123 0.91011 0.2829 0.0
H2240 H 0.3818 0.99394 0.2696 0.0
H2241 H 0.36354 0.95462 0.25008 0.0
H2242 H 0.32941 0.88743 0.28505 0.0
H2243 H 0.33219 0.91987 0.26216 0.0
H2244 H 0.42354 0.98105 0.41622 0.0
H2245 H 0.43331 1.01058 0.39128 0.0
H2246 H 0.42213 0.93134 0.41038 0.0
H2247 H 0.39794 0.89479 0.39333 0.0
C2248 C 0.61291 0.41618 0.61744 0.0
C2249 C 0.60963 0.41247 0.65156 0.0
C2250 C 0.59114 0.46273 0.65488 0.0
C2251 C 0.60065 0.47039 0.62469 0.0
N2252 N 0.61958 0.45321 0.57584 0.0
N2253 N 0.59506 0.43334 0.70305 0.0
C2254 C 0.61109 0.44659 0.60543 0.0
C2255 C 0.59891 0.4363 0.67048 0.0
N2256 N 0.61783 0.39081 0.59647 0.0
N2257 N 0.57218 0.47855 0.66684 0.0
H2258 H 0.59753 0.41294 0.71451 0.0
H2259 H 0.59061 0.45208 0.71925 0.0
H2260 H 0.56401 0.49591 0.65431 0.0
H2261 H 0.5618 0.47137 0.6862 0.0
H2262 H 0.61681 0.39041 0.57022 0.0
H2263 H 0.62139 0.36929 0.60483 0.0
H2264 H 0.62953 0.43831 0.56171 0.0
H2265 H 0.61799 0.47484 0.56643 0.0
C2266 C 0.42735 0.77656 0.4578 0.0
C2267 C 0.45319 0.79088 0.44838 0.0
C2268 C 0.42554 0.81528 0.40415 0.0
C2269 C 0.3996 0.79906 0.41202 0.0
N2270 N 0.37545 0.76428 0.44593 0.0
N2271 N 0.47727 0.82597 0.41429 0.0
C2272 C 0.40053 0.78002 0.43904 0.0
C2273 C 0.45231 0.81093 0.42209 0.0
N2274 N 0.42843 0.75937 0.48465 0.0
N2275 N 0.42458 0.83512 0.37956 0.0
H2276 H 0.49717 0.82718 0.42932 0.0
H2277 H 0.47878 0.83715 0.39276 0.0
H2278 H 0.40579 0.83774 0.36464 0.0
H2279 H 0.44218 0.85045 0.37449 0.0
H2280 H 0.41123 0.75146 0.49586 0.0
H2281 H 0.44704 0.75374 0.49688 0.0
H2282 H 0.37371 0.74698 0.46226 0.0
H2283 H 0.35575 0.76789 0.43431 0.0
C2284 C 0.12516 0.71558 0.16348 0.0
C2285 C 0.1065 0.7346 0.14937 0.0
C2286 C 0.07965 0.68629 0.1075 0.0
C2287 C 0.09626 0.66652 0.12431 0.0
N2288 N 0.13201 0.66169 0.17208 0.0
N2289 N 0.06382 0.73738 0.11061 0.0
C2290 C 0.1184 0.68102 0.1532 0.0
C2291 C 0.08326 0.71984 0.12189 0.0
N2292 N 0.14987 0.73071 0.18611 0.0
N2293 N 0.06092 0.67323 0.07723 0.0
H2294 H 0.06576 0.76193 0.12036 0.0
H2295 H 0.04466 0.72702 0.09353 0.0
H2296 H 0.0576 0.64885 0.06598 0.0
H2297 H 0.0505 0.68712 0.06176 0.0
H2298 H 0.16576 0.71865 0.19454 0.0
H2299 H 0.15583 0.75598 0.19387 0.0
H2300 H 0.14587 0.67054 0.19566 0.0
H2301 H 0.12756 0.63628 0.16595 0.0
C2302 C 0.13537 0.29049 0.965 0.0
C2303 C 0.11075 0.30103 0.95033 0.0
C2304 C 0.1333 0.31568 0.90235 0.0
C2305 C 0.15891 0.30832 0.9188 0.0
N2306 N 0.18585 0.29365 0.96859 0.0
N2307 N 0.08865 0.32986 0.90862 0.0
C2308 C 0.16037 0.29708 0.95094 0.0
C2309 C 0.11032 0.31524 0.91991 0.0
N2310 N 0.13452 0.27295 0.99147 0.0
N2311 N 0.13057 0.3222 0.86947 0.0
H2312 H 0.07183 0.33098 0.92116 0.0
H2313 H 0.08879 0.34372 0.88882 0.0
H2314 H 0.14677 0.32256 0.85561 0.0
H2315 H 0.11142 0.32424 0.85482 0.0
H2316 H 0.15071 0.26166 1.00084 0.0
H2317 H 0.11651 0.26695 1.00197 0.0
H2318 H 0.18898 0.289 0.99377 0.0
H2319 H 0.20455 0.29825 0.95915 0.0
C2320 C 0.53097 0.74417 0.95058 0.0
C2321 C 0.55064 0.77467 0.96083 0.0
C2322 C 0.57474 0.75589 1.01052 0.0
C2323 C 0.55551 0.72521 0.99996 0.0
N2324 N 0.51914 0.68719 0.95765 0.0
N2325 N 0.5953 0.80717 0.995 0.0
C2326 C 0.53488 0.71832 0.96905 0.0
C2327 C 0.5738 0.77981 0.98909 0.0
N2328 N 0.50784 0.74056 0.92465 0.0
N2329 N 0.59303 0.76267 0.0418 0.0
H2330 H 0.59554 0.82586 0.9803 0.0
H2331 H 0.61428 0.81006 0.01263 0.0
H2332 H 0.59532 0.74539 0.05798 0.0
H2333 H 0.60459 0.7861 0.05288 0.0
H2334 H 0.49118 0.71999 0.91845 0.0
H2335 H 0.50418 0.75916 0.91073 0.0
H2336 H 0.50555 0.6799 0.93371 0.0
H2337 H 0.52146 0.6679 0.97111 0.0
C2338 C 0.19217 0.74082 0.77275 0.0
C2339 C 0.17741 0.76015 0.7913 0.0
C2340 C 0.22221 0.79222 0.82616 0.0
C2341 C 0.23725 0.77622 0.80458 0.0
N2342 N 0.23668 0.73664 0.75554 0.0
N2343 N 0.17843 0.80769 0.83233 0.0
C2344 C 0.22233 0.75047 0.77761 0.0
C2345 C 0.19238 0.78655 0.81733 0.0
N2346 N 0.17722 0.71329 0.75059 0.0
N2347 N 0.23641 0.81245 0.85584 0.0
H2348 H 0.15643 0.80419 0.82823 0.0
H2349 H 0.18882 0.83025 0.84707 0.0
H2350 H 0.25827 0.81709 0.86365 0.0
H2351 H 0.2263 0.82191 0.8743 0.0
H2352 H 0.18672 0.69642 0.73846 0.0
H2353 H 0.15514 0.7059 0.74666 0.0
H2354 H 0.22666 0.72024 0.73324 0.0
H2355 H 0.25867 0.74338 0.75809 0.0
C2356 C 0.09429 0.45271 0.5174 0.0
C2357 C 0.0674 0.43464 0.49899 0.0
C2358 C 0.04376 0.45897 0.54128 0.0
C2359 C 0.07067 0.47686 0.55988 0.0
N2360 N 0.12202 0.48687 0.56982 0.0
N2361 N 1.01721 0.41465 0.49622 0.0
C2362 C 0.09612 0.47227 0.54938 0.0
C2363 C 0.04225 0.43603 0.5117 0.0
N2364 N 0.11781 0.45261 0.50329 0.0
N2365 N 1.01968 0.46462 0.55151 0.0
H2366 H 1.01524 0.39718 0.47467 0.0
H2367 H 0.99879 0.41234 0.50618 0.0
H2368 H 1.02026 0.47964 0.57446 0.0
H2369 H 0.99931 0.45581 0.53664 0.0
H2370 H 0.13743 0.46852 0.51315 0.0
H2371 H 0.11724 0.43846 0.47983 0.0
H2372 H 0.14113 0.48183 0.56527 0.0
H2373 H 0.12455 0.50216 0.59308 0.0
C2374 C 0.5498 0.32527 0.35791 0.0
C2375 C 0.54255 0.29405 0.33713 0.0
C2376 C 0.49573 0.28373 0.35216 0.0
C2377 C 0.50096 0.3172 0.3667 0.0
N2378 N 0.53305 0.3697 0.38611 0.0
N2379 N 0.50916 0.2428 0.31428 0.0
C2380 C 0.52827 0.33779 0.37095 0.0
C2381 C 0.51593 0.27264 0.3349 0.0
N2382 N 0.57735 0.34268 0.36523 0.0
N2383 N 0.47132 0.26279 0.35438 0.0
H2384 H 0.52348 0.2337 0.30143 0.0
H2385 H 0.48886 0.22779 0.3082 0.0
H2386 H 0.45563 0.27035 0.3658 0.0
H2387 H 0.46787 0.23753 0.34785 0.0
H2388 H 0.58458 0.3645 0.38242 0.0
H2389 H 0.59365 0.3337 0.35642 0.0
H2390 H 0.55115 0.38727 0.38598 0.0
H2391 H 0.51816 0.37892 0.39785 0.0
C2392 C 0.64357 0.61354 0.49106 0.0
C2393 C 0.64507 0.5895 0.46403 0.0
C2394 C 0.63003 0.54656 0.49749 0.0
C2395 C 0.62395 0.56988 0.52218 0.0
N2396 N 0.62795 0.62725 0.54353 0.0
N2397 N 0.63542 0.53254 0.43895 0.0
C2398 C 0.6316 0.60384 0.51928 0.0
C2399 C 0.63719 0.55585 0.46659 0.0
N2400 N 0.65527 0.64569 0.49092 0.0
N2401 N 0.63039 0.51575 0.50432 0.0
H2402 H 0.63969 0.53818 0.41546 0.0
H2403 H 0.62689 0.5078 0.43818 0.0
H2404 H 0.62782 0.50908 0.52796 0.0
H2405 H 0.63702 0.49845 0.48864 0.0
H2406 H 0.65805 0.66417 0.51174 0.0
H2407 H 0.66437 0.65377 0.47092 0.0
H2408 H 0.62635 0.65067 0.53905 0.0
H2409 H 0.62858 0.62386 0.56873 0.0
C2410 C 0.29982 0.81206 0.08697 0.0
C2411 C 0.2918 0.84145 0.09804 0.0
C2412 C 0.31358 0.841 0.15727 0.0
C2413 C 0.31873 0.8098 0.14693 0.0
N2414 N 0.31574 0.76409 0.10321 0.0
N2415 N 0.28681 0.88162 0.14374 0.0
C2416 C 0.31162 0.79483 0.11206 0.0
C2417 C 0.2973 0.85518 0.13322 0.0
N2418 N 0.2965 0.80106 0.05264 0.0
N2419 N 0.32515 0.85759 0.18978 0.0
H2420 H 0.27518 0.89337 0.12688 0.0
H2421 H 0.28752 0.8902 0.16946 0.0
H2422 H 0.33713 0.84799 0.20854 0.0
H2423 H 0.32489 0.88199 0.19737 0.0
H2424 H 0.30474 0.7818 0.04288 0.0
H2425 H 0.28666 0.8124 0.03367 0.0
H2426 H 0.30839 0.75044 0.07871 0.0
H2427 H 0.32531 0.75145 0.12104 0.0
C2428 C 0.99835 0.55503 0.94953 0.0
C2429 C 1.00225 0.58405 0.93381 0.0
C2430 C 0.04389 0.60746 0.98305 0.0
C2431 C 0.03879 0.57932 0.99989 0.0
N2432 N 1.00724 0.52824 1.0001 0.0
N2433 N 1.02641 0.64049 0.94151 0.0
C2434 C 1.0146 0.55399 0.9835 0.0
C2435 C 1.02448 0.61085 0.95231 0.0
N2436 N 0.98062 0.5272 0.9308 0.0
N2437 N 0.06779 0.63137 0.99628 0.0
H2438 H 1.01268 0.64426 0.92011 0.0
H2439 H 0.03966 0.66202 0.95556 0.0
H2440 H 0.08115 0.63159 0.01965 0.0
H2441 H 0.07521 0.65008 0.98323 0.0
H2442 H 0.97863 0.5044 0.93864 0.0
H2443 H 0.97028 0.5261 0.90556 0.0
H2444 H 0.9883 0.51069 0.99202 0.0
H2445 H 1.01899 0.52608 0.02372 0.0
C2446 C 0.28725 0.22735 0.69451 0.0
C2447 C 0.30214 0.24387 0.67183 0.0
C2448 C 0.32192 0.29097 0.71785 0.0
C2449 C 0.31005 0.27285 0.74139 0.0
N2450 N 0.28203 0.2236 0.75317 0.0
N2451 N 0.33753 0.28921 0.66365 0.0
C2452 C 0.29285 0.24097 0.72997 0.0
C2453 C 0.32043 0.2752 0.6839 0.0
N2454 N 0.26681 0.19939 0.68196 0.0
N2455 N 0.33378 0.32357 0.72762 0.0
H2456 H 0.33785 0.2781 0.63905 0.0
H2457 H 0.35342 0.31035 0.6725 0.0
H2458 H 0.33399 0.33606 0.75182 0.0
H2459 H 0.34054 0.33884 0.71071 0.0
H2460 H 0.25294 0.18838 0.69628 0.0
H2461 H 0.26188 0.18843 0.6563 0.0
H2462 H 0.27266 0.19873 0.74768 0.0
H2463 H 0.28368 0.23386 0.77866 0.0
C2464 C 0.63429 0.56192 0.25585 0.0
C2465 C 0.62733 0.58799 0.27621 0.0
C2466 C 0.59675 0.59785 0.2251 0.0
C2467 C 0.60683 0.57462 0.20409 0.0
N2468 N 0.64224 0.54232 0.20007 0.0
N2469 N 0.60501 0.6339 0.27959 0.0
C2470 C 0.62748 0.55868 0.21959 0.0
C2471 C 0.6096 0.60701 0.26059 0.0
N2472 N 0.64744 0.5401 0.27088 0.0
N2473 N 0.57414 0.61023 0.21187 0.0
H2474 H 0.61265 0.64022 0.30606 0.0
H2475 H 0.59525 0.65109 0.26871 0.0
H2476 H 0.56331 0.60413 0.18645 0.0
H2477 H 0.56417 0.62422 0.22704 0.0
H2478 H 0.65077 0.51914 0.25706 0.0
H2479 H 0.65218 0.5409 0.29725 0.0
H2480 H 0.65941 0.53302 0.21063 0.0
H2481 H 0.64002 0.54167 0.17365 0.0
C2482 C 0.25813 0.82632 0.94221 0.0
C2483 C 0.25781 0.85969 0.94281 0.0
C2484 C 0.29986 0.86782 0.91717 0.0
C2485 C 0.3002 0.83448 0.91666 0.0
N2486 N 0.28717 0.78635 0.94221 0.0
N2487 N 0.27073 0.90787 0.91757 0.0
C2488 C 0.28142 0.81482 0.93303 0.0
C2489 C 0.27626 0.87911 0.92592 0.0
N2490 N 0.23581 0.8057 0.94991 0.0
N2491 N 0.32297 0.88914 0.91221 0.0
H2492 H 0.25217 0.91514 0.92143 0.0
H2493 H 0.28256 0.92201 0.90324 0.0
H2494 H 0.34188 0.88202 0.91008 0.0
H2495 H 0.3245 0.9143 0.91467 0.0
H2496 H 0.23373 0.78045 0.94729 0.0
H2497 H 0.21792 0.81384 0.95507 0.0
H2498 H 0.27533 0.7723 0.95659 0.0
H2499 H 0.30607 0.77934 0.93956 0.0
C2500 C 0.98803 0.58644 0.70784 0.0
C2501 C 0.99418 0.5726 0.7387 0.0
C2502 C 1.0293 0.54786 0.70949 0.0
C2503 C 1.02522 0.56431 0.6801 0.0
N2504 N 1.00335 0.60572 0.65736 0.0
N2505 N 1.02472 0.54249 0.7687 0.0
C2506 C 1.00502 0.58501 0.68093 0.0
C2507 C 1.01616 0.55431 0.73931 0.0
N2508 N 0.9658 0.60165 0.70398 0.0
N2509 N 0.04453 0.52405 0.70827 0.0
H2510 H 1.01473 0.5441 0.78959 0.0
H2511 H 0.04289 0.53305 0.77325 0.0
H2512 H 0.05305 0.51735 0.68708 0.0
H2513 H 0.04601 0.50842 0.72637 0.0
H2514 H 0.95747 0.6085 0.68089 0.0
H2515 H 0.95433 0.60532 0.72319 0.0
H2516 H 0.99205 0.62415 0.65856 0.0
H2517 H 1.01592 0.60722 0.63891 0.0
C2518 C 0.28436 0.26263 0.46843 0.0
C2519 C 0.30178 0.24254 0.48308 0.0
C2520 C 0.33369 0.25522 0.44283 0.0
C2521 C 0.31778 0.27767 0.43038 0.0
N2522 N 0.27996 0.30587 0.43416 0.0
N2523 N 0.34491 0.22254 0.48709 0.0
C2524 C 0.29346 0.28199 0.44372 0.0
C2525 C 0.32679 0.23931 0.47077 0.0
N2526 N 0.25881 0.2627 0.4777 0.0
N2527 N 0.35542 0.24888 0.4277 0.0
H2528 H 0.34077 0.2105 0.50751 0.0
H2529 H 0.36512 0.22253 0.48231 0.0
H2530 H 0.36183 0.26087 0.4082 0.0
H2531 H 0.36564 0.22997 0.43238 0.0
H2532 H 0.24369 0.27404 0.46559 0.0
H2533 H 0.25168 0.24905 0.49578 0.0
H2534 H 0.26409 0.31292 0.44559 0.0
H2535 H 0.28601 0.32034 0.41621 0.0
C2536 C 0.43755 0.67386 0.56906 0.0
C2537 C 0.42536 0.6708 0.59832 0.0
C2538 C 0.42496 0.61283 0.59174 0.0
C2539 C 0.44136 0.61676 0.56617 0.0
N2540 N 0.46624 0.65194 0.53268 0.0
N2541 N 0.4134 0.63942 0.64238 0.0
C2542 C 0.44827 0.64746 0.55502 0.0
C2543 C 0.42066 0.64083 0.61105 0.0
N2544 N 0.43884 0.70178 0.55482 0.0
N2545 N 0.4141 0.58228 0.59794 0.0
H2546 H 0.412 0.66006 0.65848 0.0
H2547 H 0.41218 0.61862 0.6541 0.0
H2548 H 0.41679 0.56112 0.58369 0.0
H2549 H 0.40011 0.57793 0.61458 0.0
H2550 H 0.44482 0.70401 0.53134 0.0
H2551 H 0.43205 0.72195 0.56546 0.0
H2552 H 0.47438 0.6748 0.52682 0.0
H2553 H 0.47445 0.63316 0.52171 0.0
C2554 C 0.96703 0.97208 0.60215 0.0
C2555 C 0.9537 0.98303 0.62894 0.0
C2556 C 0.99731 1.02474 0.6542 0.0
C2557 C 1.00898 1.01789 0.62461 0.0
N2558 N 1.00774 0.97924 0.57442 0.0
N2559 N 0.95535 1.02174 0.67907 0.0
C2560 C 0.99471 0.98968 0.59978 0.0
C2561 C 0.96858 1.01001 0.65443 0.0
N2562 N 0.95299 0.94488 0.57879 0.0
N2563 N 1.01449 0.04332 0.68338 0.0
H2564 H 0.9349 1.01073 0.6813 0.0
H2565 H 0.96392 0.04378 0.69568 0.0
H2566 H 0.03643 0.05067 0.68579 0.0
H2567 H 1.00791 0.04724 0.70662 0.0
H2568 H 0.96174 0.9332 0.56031 0.0
H2569 H 0.93206 0.93315 0.57799 0.0
H2570 H 0.99791 0.9616 0.5531 0.0
H2571 H 1.02916 0.98767 0.57494 0.0
C2572 C 0.95495 0.13164 0.32083 0.0
C2573 C 0.94544 0.10248 0.33362 0.0
C2574 C 0.90562 0.12286 0.35028 0.0
C2575 C 0.9144 0.15141 0.33621 0.0
N2576 N 0.95054 0.18736 0.31654 0.0
N2577 N 0.91762 0.07419 0.3695 0.0
C2578 C 0.9403 0.15733 0.3245 0.0
C2579 C 0.92262 0.09936 0.3513 0.0
N2580 N 0.97668 0.1339 0.30333 0.0
N2581 N 0.88041 0.11762 0.36121 0.0
H2582 H 0.93017 0.0569 0.3713 0.0
H2583 H 0.90292 0.07218 0.38547 0.0
H2584 H 0.86808 0.13511 0.3624 0.0
H2585 H 0.87099 0.09543 0.36747 0.0
H2586 H 0.98249 0.15299 0.29002 0.0
H2587 H 0.98799 0.1156 0.3003 0.0
H2588 H 0.97057 0.19431 0.31083 0.0
H2589 H 0.9399 0.20641 0.31859 0.0
C2590 C 0.80925 0.13433 0.16749 0.0
C2591 C 0.80741 0.15997 0.14802 0.0
C2592 C 0.75571 0.1461 0.13901 0.0
C2593 C 0.75742 0.11793 0.15452 0.0
N2594 N 0.78523 0.08279 0.18035 0.0
N2595 N 0.77885 0.18643 0.10943 0.0
C2596 C 0.78406 0.11128 0.16787 0.0
C2597 C 0.78065 0.16488 0.13217 0.0
N2598 N 0.83474 0.13292 0.18688 0.0
N2599 N 0.73047 0.15566 0.13193 0.0
H2600 H 0.79648 0.20022 0.10268 0.0
H2601 H 0.75971 0.18818 0.09448 0.0
H2602 H 0.71153 0.14286 0.13689 0.0
H2603 H 0.72889 0.17806 0.12431 0.0
H2604 H 0.83679 0.11682 0.20442 0.0
H2605 H 0.85356 0.14989 0.18788 0.0
H2606 H 0.80408 0.0751 0.18725 0.0
H2607 H 0.76707 0.06555 0.18126 0.0
C2608 C 0.26953 0.44846 0.38674 0.0
C2609 C 0.24887 0.45327 0.35826 0.0
C2610 C 0.25862 0.40097 0.3266 0.0
C2611 C 0.27927 0.39621 0.35511 0.0
N2612 N 0.29881 0.41438 0.41522 0.0
N2613 N 0.22847 0.43431 0.29837 0.0
C2614 C 0.28333 0.42013 0.38564 0.0
C2615 C 0.2445 0.42905 0.32783 0.0
N2616 N 0.27644 0.47142 0.41571 0.0
N2617 N 0.25215 0.37832 0.29742 0.0
H2618 H 0.2188 0.45411 0.29728 0.0
H2619 H 0.22669 0.42104 0.27416 0.0
H2620 H 0.26421 0.36115 0.29278 0.0
H2621 H 0.23416 0.37555 0.27824 0.0
H2622 H 0.29416 0.47361 0.4351 0.0
H2623 H 0.26518 0.48955 0.41977 0.0
H2624 H 0.3003 0.42748 0.43945 0.0
H2625 H 0.30797 0.39416 0.41627 0.0
C2626 C 0.28979 0.48911 0.14214 0.0
C2627 C 0.29536 0.46952 0.11366 0.0
C2628 C 0.25116 0.47644 0.07802 0.0
C2629 C 0.24767 0.49919 0.1052 0.0
N2630 N 0.26534 0.53026 0.16205 0.0
N2631 N 0.28293 0.44817 0.05283 0.0
C2632 C 0.26745 0.50635 0.13699 0.0
C2633 C 0.27634 0.46397 0.08119 0.0
N2634 N 0.30486 0.48994 0.17447 0.0
N2635 N 0.23005 0.46622 0.04929 0.0
H2636 H 0.30093 0.43851 0.05372 0.0
H2637 H 0.27187 0.44706 0.02788 0.0
H2638 H 0.21142 0.47498 0.04593 0.0
H2639 H 0.22977 0.44697 0.03025 0.0
H2640 H 0.29983 0.50098 0.19661 0.0
H2641 H 0.32059 0.47675 0.17958 0.0
H2642 H 0.28096 0.53933 0.18417 0.0
H2643 H 0.24893 0.54281 0.15956 0.0
C2644 C 0.89046 0.92121 0.28681 0.0
C2645 C 0.91611 0.93023 0.31183 0.0
C2646 C 0.89343 0.89745 0.34999 0.0
C2647 C 0.86834 0.88581 0.32392 0.0
N2648 N 0.84639 0.88151 0.26385 0.0
N2649 N 0.94431 0.91844 0.36245 0.0
C2650 C 0.86781 0.89618 0.29122 0.0
C2651 C 0.91842 0.91525 0.34162 0.0
N2652 N 0.88763 0.93671 0.25878 0.0
N2653 N 0.89304 0.89435 0.38349 0.0
H2654 H 0.96313 0.93065 0.35676 0.0
H2655 H 0.94733 0.9056 0.38295 0.0
H2656 H 0.87458 0.88574 0.39213 0.0
H2657 H 0.9103 0.90478 0.40355 0.0
H2658 H 0.86826 0.93448 0.24208 0.0
H2659 H 0.90446 0.95318 0.25327 0.0
H2660 H 0.84659 0.88601 0.23888 0.0
H2661 H 0.8301 0.862 0.26487 0.0
C2662 C 0.77528 0.15341 0.84507 0.0
C2663 C 0.75511 0.14679 0.8667 0.0
C2664 C 0.76266 0.20816 0.88211 0.0
C2665 C 0.78537 0.21453 0.8638 0.0
N2666 N 0.81764 0.18927 0.83605 0.0
N2667 N 0.73549 0.17066 0.91238 0.0
C2668 C 0.79279 0.18596 0.84764 0.0
C2669 C 0.75054 0.17505 0.88701 0.0
N2670 N 0.77708 0.12902 0.82042 0.0
N2671 N 0.75131 0.23342 0.89363 0.0
H2672 H 0.72744 0.14766 0.91802 0.0
H2673 H 0.7339 0.18991 0.93032 0.0
H2674 H 0.75816 0.25727 0.88948 0.0
H2675 H 0.73303 0.23003 0.90394 0.0
H2676 H 0.78907 0.13315 0.80163 0.0
H2677 H 0.7641 0.10565 0.81606 0.0
H2678 H 0.82543 0.16932 0.82701 0.0
H2679 H 0.8323 0.21145 0.83973 0.0
loop_
_geom_bond_atom_site_label_1
_geom_bond_atom_site_label_2
_geom_bond_distance
_geom_bond_site_symmetry_2
_ccdc_geom_bond_type
In0 O1 2.294 . S
In0 O2 2.326 . S
In0 O6 2.266 1_455 S
In0 O7 2.326 1_455 S
In0 O8 2.266 . S
In0 O9 2.326 . S
In0 O11 2.294 . S
In0 O12 2.326 . S
O1 In0 2.294 . S
O1 C10 1.240 . S
O2 In0 2.326 . S
O2 C10 1.252 . S
C3 O6 1.252 . S
C3 O7 1.260 . S
C4 O11 1.240 . S
C4 O12 1.252 . S
C5 O8 1.252 . S
C5 O9 1.260 . S
O6 In0 2.266 1_655 S
O6 C3 1.252 . S
O7 In0 2.326 1_655 S
O7 C3 1.260 . S
O8 In0 2.266 . S
O8 C5 1.252 . S
O9 In0 2.326 . S
O9 C5 1.260 . S
C10 O1 1.240 . S
C10 O2 1.252 . S
O11 In0 2.294 . S
O11 C4 1.240 . S
O12 In0 2.326 . S
O12 C4 1.252 . S
In13 O14 2.294 . S
In13 O15 2.326 . S
In13 O19 2.266 . S
In13 O20 2.326 . S
In13 O21 2.266 . S
In13 O22 2.326 . S
In13 O24 2.294 . S
In13 O25 2.326 . S
O14 In13 2.294 . S
O14 C23 1.240 . S
O15 In13 2.326 . S
O15 C23 1.252 . S
C16 O19 1.252 . S
C16 O20 1.260 . S
C17 O24 1.240 . S
C17 O25 1.252 . S
C18 O21 1.252 . S
C18 O22 1.260 . S
O19 In13 2.266 . S
O19 C16 1.252 . S
O20 In13 2.326 . S
O20 C16 1.260 . S
O21 In13 2.266 . S
O21 C18 1.252 . S
O22 In13 2.326 . S
O22 C18 1.260 . S
C23 O14 1.240 . S
C23 O15 1.252 . S
O24 In13 2.294 . S
O24 C17 1.240 . S
O25 In13 2.326 . S
O25 C17 1.252 . S
In26 O27 2.294 . S
In26 O28 2.326 . S
In26 O32 2.266 . S
In26 O33 2.326 . S
In26 O34 2.266 . S
In26 O35 2.326 . S
In26 O37 2.294 . S
In26 O38 2.326 . S
O27 In26 2.294 . S
O27 C36 1.240 . S
O28 In26 2.326 . S
O28 C36 1.252 . S
C29 O32 1.252 . S
C29 O33 1.260 . S
C30 O37 1.240 . S
C30 O38 1.252 . S
C31 O34 1.252 . S
C31 O35 1.260 . S
O32 In26 2.266 . S
O32 C29 1.252 . S
O33 In26 2.326 . S
O33 C29 1.260 . S
O34 In26 2.266 . S
O34 C31 1.252 . S
O35 In26 2.326 . S
O35 C31 1.260 . S
C36 O27 1.240 . S
C36 O28 1.252 . S
O37 In26 2.294 . S
O37 C30 1.240 . S
O38 In26 2.326 . S
O38 C30 1.252 . S
In39 O40 2.294 . S
In39 O41 2.326 . S
In39 O45 2.266 . S
In39 O46 2.326 . S
In39 O47 2.266 . S
In39 O48 2.326 . S
In39 O50 2.294 . S
In39 O51 2.326 . S
O40 In39 2.294 . S
O40 C49 1.240 . S
O41 In39 2.326 . S
O41 C49 1.252 . S
C42 O45 1.252 . S
C42 O46 1.260 . S
C43 O50 1.240 . S
C43 O51 1.252 . S
C44 O47 1.252 . S
C44 O48 1.260 . S
O45 In39 2.266 . S
O45 C42 1.252 . S
O46 In39 2.326 . S
O46 C42 1.260 . S
O47 In39 2.266 . S
O47 C44 1.252 . S
O48 In39 2.326 . S
O48 C44 1.260 . S
C49 O40 1.240 . S
C49 O41 1.252 . S
O50 In39 2.294 . S
O50 C43 1.240 . S
O51 In39 2.326 . S
O51 C43 1.252 . S
In52 O53 2.294 . S
In52 O54 2.326 . S
In52 O58 2.266 . S
In52 O59 2.326 . S
In52 O60 2.266 . S
In52 O61 2.326 . S
In52 O63 2.294 . S
In52 O64 2.326 . S
O53 In52 2.294 . S
O53 C62 1.240 . S
O54 In52 2.326 . S
O54 C62 1.252 . S
C55 O58 1.252 . S
C55 O59 1.260 . S
C56 O63 1.240 . S
C56 O64 1.252 . S
C57 O60 1.252 . S
C57 O61 1.260 . S
O58 In52 2.266 . S
O58 C55 1.252 . S
O59 In52 2.326 . S
O59 C55 1.260 . S
O60 In52 2.266 . S
O60 C57 1.252 . S
O61 In52 2.326 . S
O61 C57 1.260 . S
C62 O53 1.240 . S
C62 O54 1.252 . S
O63 In52 2.294 . S
O63 C56 1.240 . S
O64 In52 2.326 . S
O64 C56 1.252 . S
In65 O66 2.294 . S
In65 O67 2.326 . S
In65 O71 2.266 . S
In65 O72 2.326 . S
In65 O73 2.266 . S
In65 O74 2.326 . S
In65 O76 2.294 . S
In65 O77 2.326 . S
O66 In65 2.294 . S
O66 C75 1.240 . S
O67 In65 2.326 . S
O67 C75 1.252 . S
C68 O71 1.252 . S
C68 O72 1.260 . S
C69 O76 1.240 . S
C69 O77 1.252 . S
C70 O73 1.252 . S
C70 O74 1.260 . S
O71 In65 2.266 . S
O71 C68 1.252 . S
O72 In65 2.326 . S
O72 C68 1.260 . S
O73 In65 2.266 . S
O73 C70 1.252 . S
O74 In65 2.326 . S
O74 C70 1.260 . S
C75 O66 1.240 . S
C75 O67 1.252 . S
O76 In65 2.294 . S
O76 C69 1.240 . S
O77 In65 2.326 . S
O77 C69 1.252 . S
In78 O79 2.294 . S
In78 O80 2.326 . S
In78 O84 2.266 . S
In78 O85 2.326 . S
In78 O86 2.266 . S
In78 O87 2.326 . S
In78 O89 2.294 . S
In78 O90 2.326 . S
O79 In78 2.294 . S
O79 C88 1.240 . S
O80 In78 2.326 . S
O80 C88 1.252 . S
C81 O84 1.252 . S
C81 O85 1.260 . S
C82 O89 1.240 . S
C82 O90 1.252 . S
C83 O86 1.252 . S
C83 O87 1.260 . S
O84 In78 2.266 . S
O84 C81 1.252 . S
O85 In78 2.326 . S
O85 C81 1.260 . S
O86 In78 2.266 . S
O86 C83 1.252 . S
O87 In78 2.326 . S
O87 C83 1.260 . S
C88 O79 1.240 . S
C88 O80 1.252 . S
O89 In78 2.294 . S
O89 C82 1.240 . S
O90 In78 2.326 . S
O90 C82 1.252 . S
In91 O92 2.294 1_556 S
In91 O93 2.326 . S
In91 O97 2.266 1_556 S
In91 O98 2.326 . S
In91 O99 2.266 1_455 S
In91 O100 2.326 1_455 S
In91 O102 2.294 . S
In91 O103 2.326 . S
O92 In91 2.294 1_554 S
O92 C101 1.240 . S
O93 In91 2.326 . S
O93 C101 1.252 1_556 S
C94 O97 1.252 . S
C94 O98 1.260 1_554 S
C95 O102 1.240 . S
C95 O103 1.252 . S
C96 O99 1.252 . S
C96 O100 1.260 . S
O97 In91 2.266 1_554 S
O97 C94 1.252 . S
O98 In91 2.326 . S
O98 C94 1.260 1_556 S
O99 In91 2.266 1_655 S
O99 C96 1.252 . S
O100 In91 2.326 1_655 S
O100 C96 1.260 . S
C101 O92 1.240 . S
C101 O93 1.252 1_554 S
O102 In91 2.294 . S
O102 C95 1.240 . S
O103 In91 2.326 . S
O103 C95 1.252 . S
In104 O105 2.294 . S
In104 O106 2.326 . S
In104 O110 2.266 . S
In104 O111 2.326 . S
In104 O112 2.266 1_545 S
In104 O113 2.326 1_545 S
In104 O115 2.294 . S
In104 O116 2.326 . S
O105 In104 2.294 . S
O105 C114 1.240 . S
O106 In104 2.326 . S
O106 C114 1.252 . S
C107 O110 1.252 . S
C107 O111 1.260 . S
C108 O115 1.240 . S
C108 O116 1.252 . S
C109 O112 1.252 . S
C109 O113 1.260 . S
O110 In104 2.266 . S
O110 C107 1.252 . S
O111 In104 2.326 . S
O111 C107 1.260 . S
O112 In104 2.266 1_565 S
O112 C109 1.252 . S
O113 In104 2.326 1_565 S
O113 C109 1.260 . S
C114 O105 1.240 . S
C114 O106 1.252 . S
O115 In104 2.294 . S
O115 C108 1.240 . S
O116 In104 2.326 . S
O116 C108 1.252 . S
In117 O118 2.294 . S
In117 O119 2.326 . S
In117 O123 2.266 . S
In117 O124 2.326 . S
In117 O125 2.266 . S
In117 O126 2.326 . S
In117 O128 2.294 . S
In117 O129 2.326 . S
O118 In117 2.294 . S
O118 C127 1.240 . S
O119 In117 2.326 . S
O119 C127 1.252 . S
C120 O123 1.252 . S
C120 O124 1.260 . S
C121 O128 1.240 . S
C121 O129 1.252 . S
C122 O125 1.252 . S
C122 O126 1.260 . S
O123 In117 2.266 . S
O123 C120 1.252 . S
O124 In117 2.326 . S
O124 C120 1.260 . S
O125 In117 2.266 . S
O125 C122 1.252 . S
O126 In117 2.326 . S
O126 C122 1.260 . S
C127 O118 1.240 . S
C127 O119 1.252 . S
O128 In117 2.294 . S
O128 C121 1.240 . S
O129 In117 2.326 . S
O129 C121 1.252 . S
In130 O131 2.294 . S
In130 O132 2.326 . S
In130 O136 2.266 . S
In130 O137 2.326 . S
In130 O138 2.266 . S
In130 O139 2.326 . S
In130 O141 2.294 . S
In130 O142 2.326 . S
O131 In130 2.294 . S
O131 C140 1.240 . S
O132 In130 2.326 . S
O132 C140 1.252 . S
C133 O136 1.252 . S
C133 O137 1.260 . S
C134 O141 1.240 . S
C134 O142 1.252 . S
C135 O138 1.252 . S
C135 O139 1.260 . S
O136 In130 2.266 . S
O136 C133 1.252 . S
O137 In130 2.326 . S
O137 C133 1.260 . S
O138 In130 2.266 . S
O138 C135 1.252 . S
O139 In130 2.326 . S
O139 C135 1.260 . S
C140 O131 1.240 . S
C140 O132 1.252 . S
O141 In130 2.294 . S
O141 C134 1.240 . S
O142 In130 2.326 . S
O142 C134 1.252 . S
In143 O144 2.298 . S
In143 O145 2.332 . S
In143 O149 2.263 1_554 S
In143 O150 2.320 1_554 S
In143 O151 2.265 . S
In143 O152 2.331 . S
In143 O154 2.295 . S
In143 O155 2.335 1_554 S
O144 In143 2.298 . S
O144 C153 1.240 . S
O145 In143 2.332 . S
O145 C153 1.252 . S
C146 O149 1.252 . S
C146 O150 1.260 . S
C147 O154 1.240 . S
C147 O155 1.252 1_554 S
C148 O151 1.252 . S
C148 O152 1.254 . S
O149 In143 2.263 1_556 S
O149 C146 1.252 . S
O150 In143 2.320 1_556 S
O150 C146 1.260 . S
O151 In143 2.265 . S
O151 C148 1.252 . S
O152 In143 2.331 . S
O152 C148 1.254 . S
C153 O144 1.240 . S
C153 O145 1.252 . S
O154 In143 2.295 . S
O154 C147 1.240 . S
O155 In143 2.335 1_556 S
O155 C147 1.252 1_556 S
In156 O157 2.294 . S
In156 O158 2.326 . S
In156 O162 2.266 . S
In156 O163 2.326 . S
In156 O164 2.266 . S
In156 O165 2.326 . S
In156 O167 2.294 . S
In156 O168 2.326 . S
O157 In156 2.294 . S
O157 C166 1.240 . S
O158 In156 2.326 . S
O158 C166 1.252 . S
C159 O162 1.252 . S
C159 O163 1.260 . S
C160 O167 1.240 . S
C160 O168 1.252 . S
C161 O164 1.252 . S
C161 O165 1.260 . S
O162 In156 2.266 . S
O162 C159 1.252 . S
O163 In156 2.326 . S
O163 C159 1.260 . S
O164 In156 2.266 . S
O164 C161 1.252 . S
O165 In156 2.326 . S
O165 C161 1.260 . S
C166 O157 1.240 . S
C166 O158 1.252 . S
O167 In156 2.294 . S
O167 C160 1.240 . S
O168 In156 2.326 . S
O168 C160 1.252 . S
In169 O170 2.294 . S
In169 O171 2.326 . S
In169 O175 2.266 . S
In169 O176 2.326 . S
In169 O177 2.266 . S
In169 O178 2.326 . S
In169 O180 2.294 . S
In169 O181 2.326 . S
O170 In169 2.294 . S
O170 C179 1.240 . S
O171 In169 2.326 . S
O171 C179 1.252 . S
C172 O175 1.252 . S
C172 O176 1.260 . S
C173 O180 1.240 . S
C173 O181 1.252 . S
C174 O177 1.252 . S
C174 O178 1.260 . S
O175 In169 2.266 . S
O175 C172 1.252 . S
O176 In169 2.326 . S
O176 C172 1.260 . S
O177 In169 2.266 . S
O177 C174 1.252 . S
O178 In169 2.326 . S
O178 C174 1.260 . S
C179 O170 1.240 . S
C179 O171 1.252 . S
O180 In169 2.294 . S
O180 C173 1.240 . S
O181 In169 2.326 . S
O181 C173 1.252 . S
In182 O183 2.294 . S
In182 O184 2.326 . S
In182 O188 2.266 . S
In182 O189 2.326 . S
In182 O190 2.266 . S
In182 O191 2.326 . S
In182 O193 2.294 . S
In182 O194 2.326 . S
O183 In182 2.294 . S
O183 C192 1.240 . S
O184 In182 2.326 . S
O184 C192 1.252 . S
C185 O188 1.252 . S
C185 O189 1.260 . S
C186 O193 1.240 . S
C186 O194 1.252 . S
C187 O190 1.252 . S
C187 O191 1.260 . S
O188 In182 2.266 . S
O188 C185 1.252 . S
O189 In182 2.326 . S
O189 C185 1.260 . S
O190 In182 2.266 . S
O190 C187 1.252 . S
O191 In182 2.326 . S
O191 C187 1.260 . S
C192 O183 1.240 . S
C192 O184 1.252 . S
O193 In182 2.294 . S
O193 C186 1.240 . S
O194 In182 2.326 . S
O194 C186 1.252 . S
In195 O196 2.294 . S
In195 O197 2.326 . S
In195 O201 2.266 . S
In195 O202 2.326 . S
In195 O203 2.266 . S
In195 O204 2.326 . S
In195 O206 2.294 . S
In195 O207 2.326 . S
O196 In195 2.294 . S
O196 C205 1.240 . S
O197 In195 2.326 . S
O197 C205 1.252 . S
C198 O201 1.252 . S
C198 O202 1.260 . S
C199 O206 1.240 . S
C199 O207 1.252 . S
C200 O203 1.252 . S
C200 O204 1.260 . S
O201 In195 2.266 . S
O201 C198 1.252 . S
O202 In195 2.326 . S
O202 C198 1.260 . S
O203 In195 2.266 . S
O203 C200 1.252 . S
O204 In195 2.326 . S
O204 C200 1.260 . S
C205 O196 1.240 . S
C205 O197 1.252 . S
O206 In195 2.294 . S
O206 C199 1.240 . S
O207 In195 2.326 . S
O207 C199 1.252 . S
In208 O209 2.297 . S
In208 O210 2.332 1_545 S
In208 O214 2.258 . S
In208 O215 2.322 . S
In208 O216 2.248 1_545 S
In208 O217 2.294 1_545 S
In208 O219 2.317 . S
In208 O220 2.358 . S
O209 In208 2.297 . S
O209 C218 1.240 . S
O210 In208 2.332 1_565 S
O210 C218 1.252 1_565 S
C211 O214 1.252 . S
C211 O215 1.260 . S
C212 O219 1.240 . S
C212 O220 1.252 . S
C213 O216 1.252 . S
C213 O217 1.260 . S
O214 In208 2.258 . S
O214 C211 1.252 . S
O215 In208 2.322 . S
O215 C211 1.260 . S
O216 In208 2.248 1_565 S
O216 C213 1.252 . S
O217 In208 2.294 1_565 S
O217 C213 1.260 . S
C218 O209 1.240 . S
C218 O210 1.252 1_545 S
O219 In208 2.317 . S
O219 C212 1.240 . S
O220 In208 2.358 . S
O220 C212 1.252 . S
In221 O222 2.294 . S
In221 O223 2.326 . S
In221 O227 2.266 . S
In221 O228 2.326 . S
In221 O229 2.266 . S
In221 O230 2.326 . S
In221 O232 2.294 . S
In221 O233 2.326 . S
O222 In221 2.294 . S
O222 C231 1.240 . S
O223 In221 2.326 . S
O223 C231 1.252 . S
C224 O227 1.252 . S
C224 O228 1.260 . S
C225 O232 1.240 . S
C225 O233 1.252 . S
C226 O229 1.252 . S
C226 O230 1.260 . S
O227 In221 2.266 . S
O227 C224 1.252 . S
O228 In221 2.326 . S
O228 C224 1.260 . S
O229 In221 2.266 . S
O229 C226 1.252 . S
O230 In221 2.326 . S
O230 C226 1.260 . S
C231 O222 1.240 . S
C231 O223 1.252 . S
O232 In221 2.294 . S
O232 C225 1.240 . S
O233 In221 2.326 . S
O233 C225 1.252 . S
In234 O235 2.294 . S
In234 O236 2.326 . S
In234 O240 2.266 . S
In234 O241 2.326 . S
In234 O242 2.266 . S
In234 O243 2.326 . S
In234 O245 2.294 . S
In234 O246 2.326 . S
O235 In234 2.294 . S
O235 C244 1.240 . S
O236 In234 2.326 . S
O236 C244 1.252 . S
C237 O240 1.252 . S
C237 O241 1.260 . S
C238 O245 1.240 . S
C238 O246 1.252 . S
C239 O242 1.252 . S
C239 O243 1.260 . S
O240 In234 2.266 . S
O240 C237 1.252 . S
O241 In234 2.326 . S
O241 C237 1.260 . S
O242 In234 2.266 . S
O242 C239 1.252 . S
O243 In234 2.326 . S
O243 C239 1.260 . S
C244 O235 1.240 . S
C244 O236 1.252 . S
O245 In234 2.294 . S
O245 C238 1.240 . S
O246 In234 2.326 . S
O246 C238 1.252 . S
In247 O248 2.294 . S
In247 O249 2.326 1_545 S
In247 O253 2.266 . S
In247 O254 2.326 . S
In247 O255 2.266 . S
In247 O256 2.326 . S
In247 O258 2.294 . S
In247 O259 2.326 . S
O248 In247 2.294 . S
O248 C257 1.240 1_545 S
O249 In247 2.326 1_565 S
O249 C257 1.252 . S
C250 O253 1.252 . S
C250 O254 1.260 . S
C251 O258 1.240 . S
C251 O259 1.252 . S
C252 O255 1.252 . S
C252 O256 1.260 . S
O253 In247 2.266 . S
O253 C250 1.252 . S
O254 In247 2.326 . S
O254 C250 1.260 . S
O255 In247 2.266 . S
O255 C252 1.252 . S
O256 In247 2.326 . S
O256 C252 1.260 . S
C257 O248 1.240 1_565 S
C257 O249 1.252 . S
O258 In247 2.294 . S
O258 C251 1.240 . S
O259 In247 2.326 . S
O259 C251 1.252 . S
In260 O261 2.294 . S
In260 O262 2.326 . S
In260 O266 2.266 . S
In260 O267 2.326 . S
In260 O268 2.266 . S
In260 O269 2.326 . S
In260 O271 2.294 . S
In260 O272 2.326 . S
O261 In260 2.294 . S
O261 C270 1.240 . S
O262 In260 2.326 . S
O262 C270 1.252 . S
C263 O266 1.252 . S
C263 O267 1.260 . S
C264 O271 1.240 . S
C264 O272 1.252 . S
C265 O268 1.252 . S
C265 O269 1.260 . S
O266 In260 2.266 . S
O266 C263 1.252 . S
O267 In260 2.326 . S
O267 C263 1.260 . S
O268 In260 2.266 . S
O268 C265 1.252 . S
O269 In260 2.326 . S
O269 C265 1.260 . S
C270 O261 1.240 . S
C270 O262 1.252 . S
O271 In260 2.294 . S
O271 C264 1.240 . S
O272 In260 2.326 . S
O272 C264 1.252 . S
In273 O274 2.294 . S
In273 O275 2.326 . S
In273 O279 2.266 . S
In273 O280 2.326 . S
In273 O281 2.266 . S
In273 O282 2.326 . S
In273 O284 2.294 . S
In273 O285 2.326 . S
O274 In273 2.294 . S
O274 C283 1.240 . S
O275 In273 2.326 . S
O275 C283 1.252 . S
C276 O279 1.252 . S
C276 O280 1.260 . S
C277 O284 1.240 . S
C277 O285 1.252 . S
C278 O281 1.252 . S
C278 O282 1.260 . S
O279 In273 2.266 . S
O279 C276 1.252 . S
O280 In273 2.326 . S
O280 C276 1.260 . S
O281 In273 2.266 . S
O281 C278 1.252 . S
O282 In273 2.326 . S
O282 C278 1.260 . S
C283 O274 1.240 . S
C283 O275 1.252 . S
O284 In273 2.294 . S
O284 C277 1.240 . S
O285 In273 2.326 . S
O285 C277 1.252 . S
In286 O287 2.294 . S
In286 O288 2.326 . S
In286 O292 2.266 . S
In286 O293 2.326 . S
In286 O294 2.266 . S
In286 O295 2.326 . S
In286 O297 2.294 . S
In286 O298 2.326 . S
O287 In286 2.294 . S
O287 C296 1.240 . S
O288 In286 2.326 . S
O288 C296 1.252 . S
C289 O292 1.252 . S
C289 O293 1.260 . S
C290 O297 1.240 . S
C290 O298 1.252 . S
C291 O294 1.252 . S
C291 O295 1.260 . S
O292 In286 2.266 . S
O292 C289 1.252 . S
O293 In286 2.326 . S
O293 C289 1.260 . S
O294 In286 2.266 . S
O294 C291 1.252 . S
O295 In286 2.326 . S
O295 C291 1.260 . S
C296 O287 1.240 . S
C296 O288 1.252 . S
O297 In286 2.294 . S
O297 C290 1.240 . S
O298 In286 2.326 . S
O298 C290 1.252 . S
In299 O300 2.294 . S
In299 O301 2.326 . S
In299 O305 2.266 . S
In299 O306 2.326 . S
In299 O307 2.266 . S
In299 O308 2.326 . S
In299 O310 2.294 . S
In299 O311 2.326 . S
O300 In299 2.294 . S
O300 C309 1.240 . S
O301 In299 2.326 . S
O301 C309 1.252 . S
C302 O305 1.252 . S
C302 O306 1.260 . S
C303 O310 1.240 . S
C303 O311 1.252 . S
C304 O307 1.252 . S
C304 O308 1.260 . S
O305 In299 2.266 . S
O305 C302 1.252 . S
O306 In299 2.326 . S
O306 C302 1.260 . S
O307 In299 2.266 . S
O307 C304 1.252 . S
O308 In299 2.326 . S
O308 C304 1.260 . S
C309 O300 1.240 . S
C309 O301 1.252 . S
O310 In299 2.294 . S
O310 C303 1.240 . S
O311 In299 2.326 . S
O311 C303 1.252 . S
Tb312 C314 2.809 1_455 S
Tb312 O332 2.484 1_455 S
Tb312 O333 2.440 1_455 S
Tb312 O334 2.658 . S
Tb312 O335 2.409 . S
Tb312 O336 2.378 . S
Tb312 O340 2.325 . S
Tb312 O343 2.341 1_545 S
Tb313 C323 2.809 . S
Tb313 O334 2.325 . S
Tb313 O337 2.341 . S
Tb313 O338 2.484 . S
Tb313 O339 2.440 . S
Tb313 O340 2.658 . S
Tb313 O341 2.409 . S
Tb313 O342 2.378 . S
C314 Tb312 2.809 1_655 S
C314 C315 1.514 . S
C314 O332 1.248 . S
C314 O333 1.266 . S
C315 C314 1.514 . S
C315 C316 1.359 . S
C315 C320 1.348 . S
C316 C315 1.359 . S
C316 C317 1.380 . S
C316 H344 0.929 . S
C317 C316 1.380 . S
C317 C318 1.347 . S
C317 H345 0.931 . S
C318 C317 1.347 . S
C318 C319 1.369 . S
C319 C318 1.369 . S
C319 C320 1.408 . S
C319 H346 0.930 . S
C320 C315 1.348 . S
C320 C319 1.408 . S
C320 H347 0.930 . S
C321 O334 1.281 . S
C321 O335 1.254 . S
C322 O336 1.236 . S
C322 O337 1.266 . S
C323 Tb313 2.809 . S
C323 C324 1.514 . S
C323 O338 1.248 . S
C323 O339 1.266 . S
C324 C323 1.514 . S
C324 C325 1.359 1_545 S
C324 C329 1.348 . S
C325 C324 1.359 1_565 S
C325 C326 1.380 . S
C325 H348 0.929 . S
C326 C325 1.380 . S
C326 C327 1.347 . S
C326 H349 0.931 . S
C327 C326 1.347 . S
C327 C328 1.369 . S
C328 C327 1.369 . S
C328 C329 1.408 1_565 S
C328 H350 0.930 . S
C329 C324 1.348 . S
C329 C328 1.408 1_545 S
C329 H351 0.930 . S
C330 O340 1.281 . S
C330 O341 1.254 . S
C331 O342 1.236 1_565 S
C331 O343 1.266 . S
O332 Tb312 2.484 1_655 S
O332 C314 1.248 . S
O333 Tb312 2.440 1_655 S
O333 C314 1.266 . S
O334 Tb312 2.658 . S
O334 Tb313 2.325 . S
O334 C321 1.281 . S
O335 Tb312 2.409 . S
O335 C321 1.254 . S
O336 Tb312 2.378 . S
O336 C322 1.236 . S
O337 Tb313 2.341 . S
O337 C322 1.266 . S
O338 Tb313 2.484 . S
O338 C323 1.248 . S
O339 Tb313 2.440 . S
O339 C323 1.266 . S
O340 Tb312 2.325 . S
O340 Tb313 2.658 . S
O340 C330 1.281 . S
O341 Tb313 2.409 . S
O341 C330 1.254 . S
O342 Tb313 2.378 . S
O342 C331 1.236 1_545 S
O343 Tb312 2.341 1_565 S
O343 C331 1.266 . S
H344 C316 0.929 . S
H345 C317 0.931 . S
H346 C319 0.930 . S
H347 C320 0.930 . S
H348 C325 0.929 . S
H349 C326 0.931 . S
H350 C328 0.930 . S
H351 C329 0.930 . S
Tb352 C354 2.809 . S
Tb352 O372 2.484 . S
Tb352 O373 2.440 . S
Tb352 O374 2.658 . S
Tb352 O375 2.409 . S
Tb352 O376 2.378 . S
Tb352 O380 2.325 . S
Tb352 O383 2.341 . S
Tb353 C363 2.809 . S
Tb353 O374 2.325 . S
Tb353 O377 2.341 . S
Tb353 O378 2.484 . S
Tb353 O379 2.440 . S
Tb353 O380 2.658 . S
Tb353 O381 2.409 . S
Tb353 O382 2.378 . S
C354 Tb352 2.809 . S
C354 C355 1.514 . S
C354 O372 1.248 . S
C354 O373 1.266 . S
C355 C354 1.514 . S
C355 C356 1.359 . S
C355 C360 1.348 . S
C356 C355 1.359 . S
C356 C357 1.380 . S
C356 H384 0.929 . S
C357 C356 1.380 . S
C357 C358 1.347 . S
C357 H385 0.931 . S
C358 C357 1.347 . S
C358 C359 1.369 . S
C359 C358 1.369 . S
C359 C360 1.408 . S
C359 H386 0.930 . S
C360 C355 1.348 . S
C360 C359 1.408 . S
C360 H387 0.930 . S
C361 O374 1.281 . S
C361 O375 1.254 . S
C362 O376 1.236 . S
C362 O377 1.266 . S
C363 Tb353 2.809 . S
C363 C364 1.514 . S
C363 O378 1.248 . S
C363 O379 1.266 . S
C364 C363 1.514 . S
C364 C365 1.359 . S
C364 C369 1.348 . S
C365 C364 1.359 . S
C365 C366 1.380 . S
C365 H388 0.929 . S
C366 C365 1.380 . S
C366 C367 1.347 . S
C366 H389 0.931 . S
C367 C366 1.347 . S
C367 C368 1.369 . S
C368 C367 1.369 . S
C368 C369 1.408 . S
C368 H390 0.930 . S
C369 C364 1.348 . S
C369 C368 1.408 . S
C369 H391 0.930 . S
C370 O380 1.281 . S
C370 O381 1.254 . S
C371 O382 1.236 . S
C371 O383 1.266 . S
O372 Tb352 2.484 . S
O372 C354 1.248 . S
O373 Tb352 2.440 . S
O373 C354 1.266 . S
O374 Tb352 2.658 . S
O374 Tb353 2.325 . S
O374 C361 1.281 . S
O375 Tb352 2.409 . S
O375 C361 1.254 . S
O376 Tb352 2.378 . S
O376 C362 1.236 . S
O377 Tb353 2.341 . S
O377 C362 1.266 . S
O378 Tb353 2.484 . S
O378 C363 1.248 . S
O379 Tb353 2.440 . S
O379 C363 1.266 . S
O380 Tb352 2.325 . S
O380 Tb353 2.658 . S
O380 C370 1.281 . S
O381 Tb353 2.409 . S
O381 C370 1.254 . S
O382 Tb353 2.378 . S
O382 C371 1.236 . S
O383 Tb352 2.341 . S
O383 C371 1.266 . S
H384 C356 0.929 . S
H385 C357 0.931 . S
H386 C359 0.930 . S
H387 C360 0.930 . S
H388 C365 0.929 . S
H389 C366 0.931 . S
H390 C368 0.930 . S
H391 C369 0.930 . S
Tb392 C394 2.809 . S
Tb392 O412 2.484 . S
Tb392 O413 2.440 . S
Tb392 O414 2.658 . S
Tb392 O415 2.409 . S
Tb392 O416 2.378 1_545 S
Tb392 O420 2.325 . S
Tb392 O423 2.341 . S
Tb393 C403 2.809 . S
Tb393 O414 2.325 . S
Tb393 O417 2.341 1_545 S
Tb393 O418 2.484 . S
Tb393 O419 2.440 . S
Tb393 O420 2.658 . S
Tb393 O421 2.409 . S
Tb393 O422 2.378 . S
C394 Tb392 2.809 . S
C394 C395 1.514 1_545 S
C394 O412 1.248 . S
C394 O413 1.266 . S
C395 C394 1.514 1_565 S
C395 C396 1.359 . S
C395 C400 1.348 . S
C396 C395 1.359 . S
C396 C397 1.380 . S
C396 H424 0.929 . S
C397 C396 1.380 . S
C397 C398 1.347 . S
C397 H425 0.931 . S
C398 C397 1.347 . S
C398 C399 1.369 . S
C399 C398 1.369 . S
C399 C400 1.408 . S
C399 H426 0.930 . S
C400 C395 1.348 . S
C400 C399 1.408 . S
C400 H427 0.930 . S
C401 O414 1.281 . S
C401 O415 1.254 . S
C402 O416 1.236 . S
C402 O417 1.266 . S
C403 Tb393 2.809 . S
C403 C404 1.514 . S
C403 O418 1.248 . S
C403 O419 1.266 . S
C404 C403 1.514 . S
C404 C405 1.359 . S
C404 C409 1.348 . S
C405 C404 1.359 . S
C405 C406 1.380 . S
C405 H428 0.929 . S
C406 C405 1.380 . S
C406 C407 1.347 . S
C406 H429 0.931 . S
C407 C406 1.347 . S
C407 C408 1.369 . S
C408 C407 1.369 . S
C408 C409 1.408 . S
C408 H430 0.930 . S
C409 C404 1.348 . S
C409 C408 1.408 . S
C409 H431 0.930 . S
C410 O420 1.281 . S
C410 O421 1.254 . S
C411 O422 1.236 . S
C411 O423 1.266 . S
O412 Tb392 2.484 . S
O412 C394 1.248 . S
O413 Tb392 2.440 . S
O413 C394 1.266 . S
O414 Tb392 2.658 . S
O414 Tb393 2.325 . S
O414 C401 1.281 . S
O415 Tb392 2.409 . S
O415 C401 1.254 . S
O416 Tb392 2.378 1_565 S
O416 C402 1.236 . S
O417 Tb393 2.341 1_565 S
O417 C402 1.266 . S
O418 Tb393 2.484 . S
O418 C403 1.248 . S
O419 Tb393 2.440 . S
O419 C403 1.266 . S
O420 Tb392 2.325 . S
O420 Tb393 2.658 . S
O420 C410 1.281 . S
O421 Tb393 2.409 . S
O421 C410 1.254 . S
O422 Tb393 2.378 . S
O422 C411 1.236 . S
O423 Tb392 2.341 . S
O423 C411 1.266 . S
H424 C396 0.929 . S
H425 C397 0.931 . S
H426 C399 0.930 . S
H427 C400 0.930 . S
H428 C405 0.929 . S
H429 C406 0.931 . S
H430 C408 0.930 . S
H431 C409 0.930 . S
Tb432 C434 2.809 . S
Tb432 O452 2.484 . S
Tb432 O453 2.440 . S
Tb432 O454 2.658 . S
Tb432 O455 2.409 . S
Tb432 O456 2.378 . S
Tb432 O460 2.325 . S
Tb432 O463 2.341 . S
Tb433 C443 2.809 . S
Tb433 O454 2.325 . S
Tb433 O457 2.341 . S
Tb433 O458 2.484 . S
Tb433 O459 2.440 . S
Tb433 O460 2.658 . S
Tb433 O461 2.409 . S
Tb433 O462 2.378 . S
C434 Tb432 2.809 . S
C434 C435 1.514 . S
C434 O452 1.248 . S
C434 O453 1.266 . S
C435 C434 1.514 . S
C435 C436 1.359 . S
C435 C440 1.348 . S
C436 C435 1.359 . S
C436 C437 1.380 . S
C436 H464 0.929 . S
C437 C436 1.380 . S
C437 C438 1.347 . S
C437 H465 0.931 . S
C438 C437 1.347 . S
C438 C439 1.369 . S
C439 C438 1.369 . S
C439 C440 1.408 . S
C439 H466 0.930 . S
C440 C435 1.348 . S
C440 C439 1.408 . S
C440 H467 0.930 . S
C441 O454 1.281 . S
C441 O455 1.254 . S
C442 O456 1.236 . S
C442 O457 1.266 . S
C443 Tb433 2.809 . S
C443 C444 1.514 . S
C443 O458 1.248 . S
C443 O459 1.266 . S
C444 C443 1.514 . S
C444 C445 1.359 . S
C444 C449 1.348 . S
C445 C444 1.359 . S
C445 C446 1.380 . S
C445 H468 0.929 . S
C446 C445 1.380 . S
C446 C447 1.347 . S
C446 H469 0.931 . S
C447 C446 1.347 . S
C447 C448 1.369 . S
C448 C447 1.369 . S
C448 C449 1.408 . S
C448 H470 0.930 . S
C449 C444 1.348 . S
C449 C448 1.408 . S
C449 H471 0.930 . S
C450 O460 1.281 . S
C450 O461 1.254 . S
C451 O462 1.236 . S
C451 O463 1.266 . S
O452 Tb432 2.484 . S
O452 C434 1.248 . S
O453 Tb432 2.440 . S
O453 C434 1.266 . S
O454 Tb432 2.658 . S
O454 Tb433 2.325 . S
O454 C441 1.281 . S
O455 Tb432 2.409 . S
O455 C441 1.254 . S
O456 Tb432 2.378 . S
O456 C442 1.236 . S
O457 Tb433 2.341 . S
O457 C442 1.266 . S
O458 Tb433 2.484 . S
O458 C443 1.248 . S
O459 Tb433 2.440 . S
O459 C443 1.266 . S
O460 Tb432 2.325 . S
O460 Tb433 2.658 . S
O460 C450 1.281 . S
O461 Tb433 2.409 . S
O461 C450 1.254 . S
O462 Tb433 2.378 . S
O462 C451 1.236 . S
O463 Tb432 2.341 . S
O463 C451 1.266 . S
H464 C436 0.929 . S
H465 C437 0.931 . S
H466 C439 0.930 . S
H467 C440 0.930 . S
H468 C445 0.929 . S
H469 C446 0.931 . S
H470 C448 0.930 . S
H471 C449 0.930 . S
Tb472 C474 2.809 . S
Tb472 O492 2.484 . S
Tb472 O493 2.440 . S
Tb472 O494 2.658 . S
Tb472 O495 2.409 . S
Tb472 O496 2.378 . S
Tb472 O500 2.325 . S
Tb472 O503 2.341 . S
Tb473 C483 2.809 . S
Tb473 O494 2.325 1_565 S
Tb473 O497 2.341 1_565 S
Tb473 O498 2.484 . S
Tb473 O499 2.440 . S
Tb473 O500 2.658 1_565 S
Tb473 O501 2.409 1_565 S
Tb473 O502 2.378 1_565 S
C474 Tb472 2.809 . S
C474 C475 1.514 . S
C474 O492 1.248 . S
C474 O493 1.266 . S
C475 C474 1.514 . S
C475 C476 1.359 . S
C475 C480 1.386 . S
C476 C475 1.359 . S
C476 C477 1.380 . S
C476 H504 0.929 . S
C477 C476 1.380 . S
C477 C478 1.347 . S
C477 H505 0.931 . S
C478 C477 1.347 . S
C478 C479 1.369 1_455 S
C479 C478 1.369 1_655 S
C479 C480 1.398 1_655 S
C479 H506 0.930 . S
C480 C475 1.386 . S
C480 C479 1.398 1_455 S
C480 H507 0.904 1_455 S
C481 O494 1.281 . S
C481 O495 1.254 . S
C482 O496 1.236 . S
C482 O497 1.266 . S
C483 Tb473 2.809 . S
C483 C484 1.514 . S
C483 O498 1.248 . S
C483 O499 1.266 . S
C484 C483 1.514 . S
C484 C485 1.359 . S
C484 C489 1.348 . S
C485 C484 1.359 . S
C485 C486 1.380 . S
C485 H508 0.929 . S
C486 C485 1.380 . S
C486 C487 1.347 . S
C486 H509 0.931 . S
C487 C486 1.347 . S
C487 C488 1.369 . S
C488 C487 1.369 . S
C488 C489 1.408 . S
C488 H510 0.930 . S
C489 C484 1.348 . S
C489 C488 1.408 . S
C489 H511 0.930 . S
C490 O500 1.281 . S
C490 O501 1.254 . S
C491 O502 1.236 . S
C491 O503 1.266 . S
O492 Tb472 2.484 . S
O492 C474 1.248 . S
O493 Tb472 2.440 . S
O493 C474 1.266 . S
O494 Tb472 2.658 . S
O494 Tb473 2.325 1_545 S
O494 C481 1.281 . S
O495 Tb472 2.409 . S
O495 C481 1.254 . S
O496 Tb472 2.378 . S
O496 C482 1.236 . S
O497 Tb473 2.341 1_545 S
O497 C482 1.266 . S
O498 Tb473 2.484 . S
O498 C483 1.248 . S
O499 Tb473 2.440 . S
O499 C483 1.266 . S
O500 Tb472 2.325 . S
O500 Tb473 2.658 1_545 S
O500 C490 1.281 . S
O501 Tb473 2.409 1_545 S
O501 C490 1.254 . S
O502 Tb473 2.378 1_545 S
O502 C491 1.236 . S
O503 Tb472 2.341 . S
O503 C491 1.266 . S
H504 C476 0.929 . S
H505 C477 0.931 . S
H506 C479 0.930 . S
H507 C480 0.904 1_655 S
H508 C485 0.929 . S
H509 C486 0.931 . S
H510 C488 0.930 . S
H511 C489 0.930 . S
Tb512 C514 2.809 . S
Tb512 O532 2.484 . S
Tb512 O533 2.440 . S
Tb512 O534 2.658 . S
Tb512 O535 2.409 . S
Tb512 O536 2.378 . S
Tb512 O540 2.325 . S
Tb512 O543 2.341 . S
Tb513 C523 2.809 . S
Tb513 O534 2.325 . S
Tb513 O537 2.341 . S
Tb513 O538 2.484 . S
Tb513 O539 2.440 . S
Tb513 O540 2.658 . S
Tb513 O541 2.409 . S
Tb513 O542 2.378 . S
C514 Tb512 2.809 . S
C514 C515 1.514 . S
C514 O532 1.248 . S
C514 O533 1.266 . S
C515 C514 1.514 . S
C515 C516 1.359 . S
C515 C520 1.348 . S
C516 C515 1.359 . S
C516 C517 1.380 . S
C516 H544 0.929 . S
C517 C516 1.380 . S
C517 C518 1.347 . S
C517 H545 0.931 . S
C518 C517 1.347 . S
C518 C519 1.369 . S
C519 C518 1.369 . S
C519 C520 1.408 . S
C519 H546 0.930 . S
C520 C515 1.348 . S
C520 C519 1.408 . S
C520 H547 0.930 . S
C521 O534 1.281 . S
C521 O535 1.254 . S
C522 O536 1.236 . S
C522 O537 1.266 . S
C523 Tb513 2.809 . S
C523 C524 1.514 . S
C523 O538 1.248 . S
C523 O539 1.266 . S
C524 C523 1.514 . S
C524 C525 1.359 . S
C524 C529 1.348 . S
C525 C524 1.359 . S
C525 C526 1.380 . S
C525 H548 0.929 . S
C526 C525 1.380 . S
C526 C527 1.347 . S
C526 H549 0.931 . S
C527 C526 1.347 . S
C527 C528 1.369 . S
C528 C527 1.369 . S
C528 C529 1.408 . S
C528 H550 0.930 . S
C529 C524 1.348 . S
C529 C528 1.408 . S
C529 H551 0.930 . S
C530 O540 1.281 . S
C530 O541 1.254 . S
C531 O542 1.236 . S
C531 O543 1.266 . S
O532 Tb512 2.484 . S
O532 C514 1.248 . S
O533 Tb512 2.440 . S
O533 C514 1.266 . S
O534 Tb512 2.658 . S
O534 Tb513 2.325 . S
O534 C521 1.281 . S
O535 Tb512 2.409 . S
O535 C521 1.254 . S
O536 Tb512 2.378 . S
O536 C522 1.236 . S
O537 Tb513 2.341 . S
O537 C522 1.266 . S
O538 Tb513 2.484 . S
O538 C523 1.248 . S
O539 Tb513 2.440 . S
O539 C523 1.266 . S
O540 Tb512 2.325 . S
O540 Tb513 2.658 . S
O540 C530 1.281 . S
O541 Tb513 2.409 . S
O541 C530 1.254 . S
O542 Tb513 2.378 . S
O542 C531 1.236 . S
O543 Tb512 2.341 . S
O543 C531 1.266 . S
H544 C516 0.929 . S
H545 C517 0.931 . S
H546 C519 0.930 . S
H547 C520 0.930 . S
H548 C525 0.929 . S
H549 C526 0.931 . S
H550 C528 0.930 . S
H551 C529 0.930 . S
Tb552 C554 2.809 . S
Tb552 O572 2.484 . S
Tb552 O573 2.440 . S
Tb552 O574 2.658 . S
Tb552 O575 2.409 . S
Tb552 O576 2.378 . S
Tb552 O580 2.325 . S
Tb552 O583 2.341 . S
Tb553 C563 2.809 . S
Tb553 O574 2.325 . S
Tb553 O577 2.341 . S
Tb553 O578 2.484 . S
Tb553 O579 2.440 . S
Tb553 O580 2.658 . S
Tb553 O581 2.409 1_545 S
Tb553 O582 2.378 . S
C554 Tb552 2.809 . S
C554 C555 1.514 . S
C554 O572 1.248 . S
C554 O573 1.266 . S
C555 C554 1.514 . S
C555 C556 1.359 1_545 S
C555 C560 1.348 . S
C556 C555 1.359 1_565 S
C556 C557 1.380 . S
C556 H584 0.929 . S
C557 C556 1.380 . S
C557 C558 1.347 . S
C557 H585 0.931 . S
C558 C557 1.347 . S
C558 C559 1.369 1_565 S
C559 C558 1.369 1_545 S
C559 C560 1.408 . S
C559 H586 0.930 . S
C560 C555 1.348 . S
C560 C559 1.408 . S
C560 H587 0.930 . S
C561 O574 1.281 . S
C561 O575 1.254 . S
C562 O576 1.236 . S
C562 O577 1.266 . S
C563 Tb553 2.809 . S
C563 C564 1.514 . S
C563 O578 1.248 . S
C563 O579 1.266 . S
C564 C563 1.514 . S
C564 C565 1.359 . S
C564 C569 1.348 . S
C565 C564 1.359 . S
C565 C566 1.380 . S
C565 H588 0.929 . S
C566 C565 1.380 . S
C566 C567 1.347 . S
C566 H589 0.931 . S
C567 C566 1.347 . S
C567 C568 1.369 . S
C568 C567 1.369 . S
C568 C569 1.408 . S
C568 H590 0.930 . S
C569 C564 1.348 . S
C569 C568 1.408 . S
C569 H591 0.930 . S
C570 O580 1.281 1_565 S
C570 O581 1.254 . S
C571 O582 1.236 . S
C571 O583 1.266 . S
O572 Tb552 2.484 . S
O572 C554 1.248 . S
O573 Tb552 2.440 . S
O573 C554 1.266 . S
O574 Tb552 2.658 . S
O574 Tb553 2.325 . S
O574 C561 1.281 . S
O575 Tb552 2.409 . S
O575 C561 1.254 . S
O576 Tb552 2.378 . S
O576 C562 1.236 . S
O577 Tb553 2.341 . S
O577 C562 1.266 . S
O578 Tb553 2.484 . S
O578 C563 1.248 . S
O579 Tb553 2.440 . S
O579 C563 1.266 . S
O580 Tb552 2.325 . S
O580 Tb553 2.658 . S
O580 C570 1.281 1_545 S
O581 Tb553 2.409 1_565 S
O581 C570 1.254 . S
O582 Tb553 2.378 . S
O582 C571 1.236 . S
O583 Tb552 2.341 . S
O583 C571 1.266 . S
H584 C556 0.929 . S
H585 C557 0.931 . S
H586 C559 0.930 . S
H587 C560 0.930 . S
H588 C565 0.929 . S
H589 C566 0.931 . S
H590 C568 0.930 . S
H591 C569 0.930 . S
Tb592 C594 2.809 . S
Tb592 O612 2.484 . S
Tb592 O613 2.440 . S
Tb592 O614 2.658 . S
Tb592 O615 2.409 . S
Tb592 O616 2.378 . S
Tb592 O620 2.325 . S
Tb592 O623 2.341 . S
Tb593 C603 2.809 . S
Tb593 O614 2.325 . S
Tb593 O617 2.341 . S
Tb593 O618 2.484 . S
Tb593 O619 2.440 . S
Tb593 O620 2.658 . S
Tb593 O621 2.409 . S
Tb593 O622 2.378 . S
C594 Tb592 2.809 . S
C594 C595 1.514 . S
C594 O612 1.248 . S
C594 O613 1.266 . S
C595 C594 1.514 . S
C595 C596 1.359 . S
C595 C600 1.348 . S
C596 C595 1.359 . S
C596 C597 1.380 . S
C596 H624 0.929 . S
C597 C596 1.380 . S
C597 C598 1.347 . S
C597 H625 0.931 . S
C598 C597 1.347 . S
C598 C599 1.369 . S
C599 C598 1.369 . S
C599 C600 1.408 . S
C599 H626 0.930 . S
C600 C595 1.348 . S
C600 C599 1.408 . S
C600 H627 0.930 . S
C601 O614 1.281 . S
C601 O615 1.254 . S
C602 O616 1.236 . S
C602 O617 1.266 . S
C603 Tb593 2.809 . S
C603 C604 1.514 . S
C603 O618 1.248 . S
C603 O619 1.266 . S
C604 C603 1.514 . S
C604 C605 1.359 . S
C604 C609 1.348 . S
C605 C604 1.359 . S
C605 C606 1.380 . S
C605 H628 0.929 . S
C606 C605 1.380 . S
C606 C607 1.347 . S
C606 H629 0.931 . S
C607 C606 1.347 . S
C607 C608 1.369 . S
C608 C607 1.369 . S
C608 C609 1.408 . S
C608 H630 0.930 . S
C609 C604 1.348 . S
C609 C608 1.408 . S
C609 H631 0.930 . S
C610 O620 1.281 . S
C610 O621 1.254 . S
C611 O622 1.236 . S
C611 O623 1.266 . S
O612 Tb592 2.484 . S
O612 C594 1.248 . S
O613 Tb592 2.440 . S
O613 C594 1.266 . S
O614 Tb592 2.658 . S
O614 Tb593 2.325 . S
O614 C601 1.281 . S
O615 Tb592 2.409 . S
O615 C601 1.254 . S
O616 Tb592 2.378 . S
O616 C602 1.236 . S
O617 Tb593 2.341 . S
O617 C602 1.266 . S
O618 Tb593 2.484 . S
O618 C603 1.248 . S
O619 Tb593 2.440 . S
O619 C603 1.266 . S
O620 Tb592 2.325 . S
O620 Tb593 2.658 . S
O620 C610 1.281 . S
O621 Tb593 2.409 . S
O621 C610 1.254 . S
O622 Tb593 2.378 . S
O622 C611 1.236 . S
O623 Tb592 2.341 . S
O623 C611 1.266 . S
H624 C596 0.929 . S
H625 C597 0.931 . S
H626 C599 0.930 . S
H627 C600 0.930 . S
H628 C605 0.929 . S
H629 C606 0.931 . S
H630 C608 0.930 . S
H631 C609 0.930 . S
Tb632 C634 2.809 . S
Tb632 O652 2.484 . S
Tb632 O653 2.440 . S
Tb632 O654 2.658 . S
Tb632 O655 2.409 . S
Tb632 O656 2.378 . S
Tb632 O660 2.325 . S
Tb632 O663 2.341 . S
Tb633 C643 2.809 . S
Tb633 O654 2.325 . S
Tb633 O657 2.341 . S
Tb633 O658 2.484 . S
Tb633 O659 2.440 . S
Tb633 O660 2.658 . S
Tb633 O661 2.409 . S
Tb633 O662 2.378 . S
C634 Tb632 2.809 . S
C634 C635 1.514 . S
C634 O652 1.248 . S
C634 O653 1.266 . S
C635 C634 1.514 . S
C635 C636 1.359 . S
C635 C640 1.348 . S
C636 C635 1.359 . S
C636 C637 1.380 1_554 S
C636 H664 0.929 . S
C637 C636 1.380 1_556 S
C637 C638 1.347 . S
C637 H665 0.931 . S
C638 C637 1.347 . S
C638 C639 1.369 1_556 S
C639 C638 1.369 1_554 S
C639 C640 1.408 . S
C639 H666 0.928 . S
C640 C635 1.348 . S
C640 C639 1.408 . S
C640 H667 0.930 . S
C641 O654 1.281 . S
C641 O655 1.254 . S
C642 O656 1.236 . S
C642 O657 1.266 . S
C643 Tb633 2.809 . S
C643 C644 1.514 . S
C643 O658 1.248 . S
C643 O659 1.266 . S
C644 C643 1.514 . S
C644 C645 1.359 . S
C644 C649 1.348 . S
C645 C644 1.359 . S
C645 C646 1.380 . S
C645 H668 0.929 . S
C646 C645 1.380 . S
C646 C647 1.347 . S
C646 H669 0.931 . S
C647 C646 1.347 . S
C647 C648 1.369 . S
C648 C647 1.369 . S
C648 C649 1.408 . S
C648 H670 0.930 . S
C649 C644 1.348 . S
C649 C648 1.408 . S
C649 H671 0.930 . S
C650 O660 1.281 . S
C650 O661 1.254 . S
C651 O662 1.236 . S
C651 O663 1.266 . S
O652 Tb632 2.484 . S
O652 C634 1.248 . S
O653 Tb632 2.440 . S
O653 C634 1.266 . S
O654 Tb632 2.658 . S
O654 Tb633 2.325 . S
O654 C641 1.281 . S
O655 Tb632 2.409 . S
O655 C641 1.254 . S
O656 Tb632 2.378 . S
O656 C642 1.236 . S
O657 Tb633 2.341 . S
O657 C642 1.266 . S
O658 Tb633 2.484 . S
O658 C643 1.248 . S
O659 Tb633 2.440 . S
O659 C643 1.266 . S
O660 Tb632 2.325 . S
O660 Tb633 2.658 . S
O660 C650 1.281 . S
O661 Tb633 2.409 . S
O661 C650 1.254 . S
O662 Tb633 2.378 . S
O662 C651 1.236 . S
O663 Tb632 2.341 . S
O663 C651 1.266 . S
H664 C636 0.929 . S
H665 C637 0.931 . S
H666 C639 0.928 . S
H667 C640 0.930 . S
H668 C645 0.929 . S
H669 C646 0.931 . S
H670 C648 0.930 . S
H671 C649 0.930 . S
Tb672 C674 2.809 . S
Tb672 O692 2.484 . S
Tb672 O693 2.440 . S
Tb672 O694 2.658 . S
Tb672 O695 2.409 . S
Tb672 O696 2.378 . S
Tb672 O700 2.325 . S
Tb672 O703 2.341 . S
Tb673 C683 2.809 . S
Tb673 O694 2.325 . S
Tb673 O697 2.341 . S
Tb673 O698 2.484 . S
Tb673 O699 2.440 . S
Tb673 O700 2.658 . S
Tb673 O701 2.409 . S
Tb673 O702 2.378 . S
C674 Tb672 2.809 . S
C674 C675 1.514 . S
C674 O692 1.248 . S
C674 O693 1.266 . S
C675 C674 1.514 . S
C675 C676 1.359 . S
C675 C680 1.348 . S
C676 C675 1.359 . S
C676 C677 1.380 . S
C676 H704 0.929 . S
C677 C676 1.380 . S
C677 C678 1.347 . S
C677 H705 0.931 . S
C678 C677 1.347 . S
C678 C679 1.369 . S
C679 C678 1.369 . S
C679 C680 1.408 . S
C679 H706 0.930 . S
C680 C675 1.348 . S
C680 C679 1.408 . S
C680 H707 0.930 . S
C681 O694 1.281 . S
C681 O695 1.254 . S
C682 O696 1.236 . S
C682 O697 1.266 . S
C683 Tb673 2.809 . S
C683 C684 1.514 . S
C683 O698 1.248 . S
C683 O699 1.266 . S
C684 C683 1.514 . S
C684 C685 1.359 . S
C684 C689 1.348 . S
C685 C684 1.359 . S
C685 C686 1.380 . S
C685 H708 0.929 . S
C686 C685 1.380 . S
C686 C687 1.347 . S
C686 H709 0.931 . S
C687 C686 1.347 . S
C687 C688 1.369 . S
C688 C687 1.369 . S
C688 C689 1.408 . S
C688 H710 0.930 . S
C689 C684 1.348 . S
C689 C688 1.408 . S
C689 H711 0.930 . S
C690 O700 1.281 . S
C690 O701 1.254 . S
C691 O702 1.236 . S
C691 O703 1.266 . S
O692 Tb672 2.484 . S
O692 C674 1.248 . S
O693 Tb672 2.440 . S
O693 C674 1.266 . S
O694 Tb672 2.658 . S
O694 Tb673 2.325 . S
O694 C681 1.281 . S
O695 Tb672 2.409 . S
O695 C681 1.254 . S
O696 Tb672 2.378 . S
O696 C682 1.236 . S
O697 Tb673 2.341 . S
O697 C682 1.266 . S
O698 Tb673 2.484 . S
O698 C683 1.248 . S
O699 Tb673 2.440 . S
O699 C683 1.266 . S
O700 Tb672 2.325 . S
O700 Tb673 2.658 . S
O700 C690 1.281 . S
O701 Tb673 2.409 . S
O701 C690 1.254 . S
O702 Tb673 2.378 . S
O702 C691 1.236 . S
O703 Tb672 2.341 . S
O703 C691 1.266 . S
H704 C676 0.929 . S
H705 C677 0.931 . S
H706 C679 0.930 . S
H707 C680 0.930 . S
H708 C685 0.929 . S
H709 C686 0.931 . S
H710 C688 0.930 . S
H711 C689 0.930 . S
Tb712 C714 2.809 . S
Tb712 O732 2.484 . S
Tb712 O733 2.440 . S
Tb712 O734 2.658 1_655 S
Tb712 O735 2.409 1_655 S
Tb712 O736 2.378 . S
Tb712 O740 2.325 1_655 S
Tb712 O743 2.341 1_655 S
Tb713 C723 2.809 . S
Tb713 O734 2.325 . S
Tb713 O737 2.341 . S
Tb713 O738 2.484 . S
Tb713 O739 2.440 . S
Tb713 O740 2.658 . S
Tb713 O741 2.409 . S
Tb713 O742 2.378 . S
C714 Tb712 2.809 . S
C714 C715 1.514 . S
C714 O732 1.248 . S
C714 O733 1.266 . S
C715 C714 1.514 . S
C715 C716 1.359 . S
C715 C720 1.348 . S
C716 C715 1.359 . S
C716 C717 1.380 . S
C716 H744 0.929 . S
C717 C716 1.380 . S
C717 C718 1.347 . S
C717 H745 0.931 . S
C718 C717 1.347 . S
C718 C719 1.369 . S
C719 C718 1.369 . S
C719 C720 1.408 . S
C719 H746 0.930 . S
C720 C715 1.348 . S
C720 C719 1.408 . S
C720 H747 0.930 . S
C721 O734 1.281 . S
C721 O735 1.254 . S
C722 O736 1.236 1_455 S
C722 O737 1.266 . S
C723 Tb713 2.809 . S
C723 C724 1.514 . S
C723 O738 1.248 . S
C723 O739 1.266 . S
C724 C723 1.514 . S
C724 C725 1.359 . S
C724 C729 1.348 . S
C725 C724 1.359 . S
C725 C726 1.380 . S
C725 H748 0.929 . S
C726 C725 1.380 . S
C726 C727 1.347 . S
C726 H749 0.931 . S
C727 C726 1.347 . S
C727 C728 1.369 . S
C728 C727 1.369 . S
C728 C729 1.408 . S
C728 H750 0.930 . S
C729 C724 1.348 . S
C729 C728 1.408 . S
C729 H751 0.930 . S
C730 O740 1.281 . S
C730 O741 1.254 . S
C731 O742 1.236 . S
C731 O743 1.266 . S
O732 Tb712 2.484 . S
O732 C714 1.248 . S
O733 Tb712 2.440 . S
O733 C714 1.266 . S
O734 Tb712 2.658 1_455 S
O734 Tb713 2.325 . S
O734 C721 1.281 . S
O735 Tb712 2.409 1_455 S
O735 C721 1.254 . S
O736 Tb712 2.378 . S
O736 C722 1.236 1_655 S
O737 Tb713 2.341 . S
O737 C722 1.266 . S
O738 Tb713 2.484 . S
O738 C723 1.248 . S
O739 Tb713 2.440 . S
O739 C723 1.266 . S
O740 Tb712 2.325 1_455 S
O740 Tb713 2.658 . S
O740 C730 1.281 . S
O741 Tb713 2.409 . S
O741 C730 1.254 . S
O742 Tb713 2.378 . S
O742 C731 1.236 . S
O743 Tb712 2.341 1_455 S
O743 C731 1.266 . S
H744 C716 0.929 . S
H745 C717 0.931 . S
H746 C719 0.930 . S
H747 C720 0.930 . S
H748 C725 0.929 . S
H749 C726 0.931 . S
H750 C728 0.930 . S
H751 C729 0.930 . S
Tb752 C754 2.809 . S
Tb752 O772 2.484 . S
Tb752 O773 2.440 . S
Tb752 O774 2.658 . S
Tb752 O775 2.409 . S
Tb752 O776 2.378 . S
Tb752 O780 2.325 . S
Tb752 O783 2.341 . S
Tb753 C763 2.809 . S
Tb753 O774 2.325 . S
Tb753 O777 2.341 . S
Tb753 O778 2.484 . S
Tb753 O779 2.440 . S
Tb753 O780 2.658 . S
Tb753 O781 2.409 . S
Tb753 O782 2.378 . S
C754 Tb752 2.809 . S
C754 C755 1.514 . S
C754 O772 1.248 . S
C754 O773 1.266 . S
C755 C754 1.514 . S
C755 C756 1.359 . S
C755 C760 1.348 . S
C756 C755 1.359 . S
C756 C757 1.380 . S
C756 H784 0.929 . S
C757 C756 1.380 . S
C757 C758 1.347 . S
C757 H785 0.931 . S
C758 C757 1.347 . S
C758 C759 1.369 . S
C759 C758 1.369 . S
C759 C760 1.408 . S
C759 H786 0.930 . S
C760 C755 1.348 . S
C760 C759 1.408 . S
C760 H787 0.930 . S
C761 O774 1.281 . S
C761 O775 1.254 . S
C762 O776 1.236 . S
C762 O777 1.266 . S
C763 Tb753 2.809 . S
C763 C764 1.514 . S
C763 O778 1.248 . S
C763 O779 1.266 . S
C764 C763 1.514 . S
C764 C765 1.359 . S
C764 C769 1.348 . S
C765 C764 1.359 . S
C765 C766 1.380 . S
C765 H788 0.929 . S
C766 C765 1.380 . S
C766 C767 1.347 . S
C766 H789 0.931 . S
C767 C766 1.347 . S
C767 C768 1.369 . S
C768 C767 1.369 . S
C768 C769 1.408 . S
C768 H790 0.930 . S
C769 C764 1.348 . S
C769 C768 1.408 . S
C769 H791 0.930 . S
C770 O780 1.281 . S
C770 O781 1.254 . S
C771 O782 1.236 . S
C771 O783 1.266 . S
O772 Tb752 2.484 . S
O772 C754 1.248 . S
O773 Tb752 2.440 . S
O773 C754 1.266 . S
O774 Tb752 2.658 . S
O774 Tb753 2.325 . S
O774 C761 1.281 . S
O775 Tb752 2.409 . S
O775 C761 1.254 . S
O776 Tb752 2.378 . S
O776 C762 1.236 . S
O777 Tb753 2.341 . S
O777 C762 1.266 . S
O778 Tb753 2.484 . S
O778 C763 1.248 . S
O779 Tb753 2.440 . S
O779 C763 1.266 . S
O780 Tb752 2.325 . S
O780 Tb753 2.658 . S
O780 C770 1.281 . S
O781 Tb753 2.409 . S
O781 C770 1.254 . S
O782 Tb753 2.378 . S
O782 C771 1.236 . S
O783 Tb752 2.341 . S
O783 C771 1.266 . S
H784 C756 0.929 . S
H785 C757 0.931 . S
H786 C759 0.930 . S
H787 C760 0.930 . S
H788 C765 0.929 . S
H789 C766 0.931 . S
H790 C768 0.930 . S
H791 C769 0.930 . S
Tb792 C794 2.809 . S
Tb792 O812 2.484 . S
Tb792 O813 2.440 . S
Tb792 O814 2.658 . S
Tb792 O815 2.409 . S
Tb792 O816 2.378 . S
Tb792 O820 2.325 . S
Tb792 O823 2.341 . S
Tb793 C803 2.809 . S
Tb793 O814 2.325 . S
Tb793 O817 2.341 . S
Tb793 O818 2.484 . S
Tb793 O819 2.440 . S
Tb793 O820 2.658 . S
Tb793 O821 2.409 . S
Tb793 O822 2.378 . S
C794 Tb792 2.809 . S
C794 C795 1.514 . S
C794 O812 1.248 . S
C794 O813 1.266 . S
C795 C794 1.514 . S
C795 C796 1.359 . S
C795 C800 1.348 . S
C796 C795 1.359 . S
C796 C797 1.380 . S
C796 H824 0.929 . S
C797 C796 1.380 . S
C797 C798 1.347 . S
C797 H825 0.931 . S
C798 C797 1.347 . S
C798 C799 1.369 . S
C799 C798 1.369 . S
C799 C800 1.408 . S
C799 H826 0.930 . S
C800 C795 1.348 . S
C800 C799 1.408 . S
C800 H827 0.930 . S
C801 O814 1.281 . S
C801 O815 1.254 . S
C802 O816 1.236 . S
C802 O817 1.266 . S
C803 Tb793 2.809 . S
C803 C804 1.514 . S
C803 O818 1.248 . S
C803 O819 1.266 . S
C804 C803 1.514 . S
C804 C805 1.359 . S
C804 C809 1.348 . S
C805 C804 1.359 . S
C805 C806 1.380 1_556 S
C805 H828 0.929 . S
C806 C805 1.380 1_554 S
C806 C807 1.347 . S
C806 H829 0.931 . S
C807 C806 1.347 . S
C807 C808 1.369 . S
C808 C807 1.369 . S
C808 C809 1.408 1_554 S
C808 H830 0.930 . S
C809 C804 1.348 . S
C809 C808 1.408 1_556 S
C809 H831 0.930 . S
C810 O820 1.281 . S
C810 O821 1.254 . S
C811 O822 1.236 . S
C811 O823 1.266 . S
O812 Tb792 2.484 . S
O812 C794 1.248 . S
O813 Tb792 2.440 . S
O813 C794 1.266 . S
O814 Tb792 2.658 . S
O814 Tb793 2.325 . S
O814 C801 1.281 . S
O815 Tb792 2.409 . S
O815 C801 1.254 . S
O816 Tb792 2.378 . S
O816 C802 1.236 . S
O817 Tb793 2.341 . S
O817 C802 1.266 . S
O818 Tb793 2.484 . S
O818 C803 1.248 . S
O819 Tb793 2.440 . S
O819 C803 1.266 . S
O820 Tb792 2.325 . S
O820 Tb793 2.658 . S
O820 C810 1.281 . S
O821 Tb793 2.409 . S
O821 C810 1.254 . S
O822 Tb793 2.378 . S
O822 C811 1.236 . S
O823 Tb792 2.341 . S
O823 C811 1.266 . S
H824 C796 0.929 . S
H825 C797 0.931 . S
H826 C799 0.930 . S
H827 C800 0.930 . S
H828 C805 0.929 . S
H829 C806 0.931 . S
H830 C808 0.930 . S
H831 C809 0.930 . S
Tb832 C834 2.809 . S
Tb832 O852 2.484 . S
Tb832 O853 2.440 . S
Tb832 O854 2.658 . S
Tb832 O855 2.409 . S
Tb832 O856 2.378 . S
Tb832 O860 2.325 . S
Tb832 O863 2.341 . S
Tb833 C843 2.809 . S
Tb833 O854 2.325 . S
Tb833 O857 2.341 . S
Tb833 O858 2.484 . S
Tb833 O859 2.440 . S
Tb833 O860 2.658 . S
Tb833 O861 2.409 . S
Tb833 O862 2.378 . S
C834 Tb832 2.809 . S
C834 C835 1.514 . S
C834 O852 1.248 . S
C834 O853 1.266 . S
C835 C834 1.514 . S
C835 C836 1.359 . S
C835 C840 1.348 . S
C836 C835 1.359 . S
C836 C837 1.380 . S
C836 H864 0.929 . S
C837 C836 1.380 . S
C837 C838 1.347 . S
C837 H865 0.931 . S
C838 C837 1.347 . S
C838 C839 1.369 . S
C839 C838 1.369 . S
C839 C840 1.408 . S
C839 H866 0.930 . S
C840 C835 1.348 . S
C840 C839 1.408 . S
C840 H867 0.930 . S
C841 O854 1.281 . S
C841 O855 1.254 . S
C842 O856 1.236 . S
C842 O857 1.266 . S
C843 Tb833 2.809 . S
C843 C844 1.514 . S
C843 O858 1.248 . S
C843 O859 1.266 . S
C844 C843 1.514 . S
C844 C845 1.359 . S
C844 C849 1.348 . S
C845 C844 1.359 . S
C845 C846 1.380 . S
C845 H868 0.929 . S
C846 C845 1.380 . S
C846 C847 1.347 . S
C846 H869 0.931 . S
C847 C846 1.347 . S
C847 C848 1.369 . S
C848 C847 1.369 . S
C848 C849 1.408 . S
C848 H870 0.930 . S
C849 C844 1.348 . S
C849 C848 1.408 . S
C849 H871 0.930 . S
C850 O860 1.281 . S
C850 O861 1.254 . S
C851 O862 1.236 . S
C851 O863 1.266 . S
O852 Tb832 2.484 . S
O852 C834 1.248 . S
O853 Tb832 2.440 . S
O853 C834 1.266 . S
O854 Tb832 2.658 . S
O854 Tb833 2.325 . S
O854 C841 1.281 . S
O855 Tb832 2.409 . S
O855 C841 1.254 . S
O856 Tb832 2.378 . S
O856 C842 1.236 . S
O857 Tb833 2.341 . S
O857 C842 1.266 . S
O858 Tb833 2.484 . S
O858 C843 1.248 . S
O859 Tb833 2.440 . S
O859 C843 1.266 . S
O860 Tb832 2.325 . S
O860 Tb833 2.658 . S
O860 C850 1.281 . S
O861 Tb833 2.409 . S
O861 C850 1.254 . S
O862 Tb833 2.378 . S
O862 C851 1.236 . S
O863 Tb832 2.341 . S
O863 C851 1.266 . S
H864 C836 0.929 . S
H865 C837 0.931 . S
H866 C839 0.930 . S
H867 C840 0.930 . S
H868 C845 0.929 . S
H869 C846 0.931 . S
H870 C848 0.930 . S
H871 C849 0.930 . S
Tb872 C874 2.809 . S
Tb872 O892 2.484 . S
Tb872 O893 2.440 . S
Tb872 O894 2.658 . S
Tb872 O895 2.409 . S
Tb872 O896 2.378 . S
Tb872 O900 2.325 . S
Tb872 O903 2.341 . S
Tb873 C883 2.809 . S
Tb873 O894 2.325 . S
Tb873 O897 2.341 . S
Tb873 O898 2.484 . S
Tb873 O899 2.440 . S
Tb873 O900 2.658 . S
Tb873 O901 2.409 . S
Tb873 O902 2.378 . S
C874 Tb872 2.809 . S
C874 C875 1.514 . S
C874 O892 1.248 . S
C874 O893 1.266 . S
C875 C874 1.514 . S
C875 C876 1.359 . S
C875 C880 1.348 . S
C876 C875 1.359 . S
C876 C877 1.380 . S
C876 H904 0.929 . S
C877 C876 1.380 . S
C877 C878 1.347 . S
C877 H905 0.931 . S
C878 C877 1.347 . S
C878 C879 1.369 . S
C879 C878 1.369 . S
C879 C880 1.408 . S
C879 H906 0.930 . S
C880 C875 1.348 . S
C880 C879 1.408 . S
C880 H907 0.930 . S
C881 O894 1.281 . S
C881 O895 1.254 . S
C882 O896 1.236 . S
C882 O897 1.266 . S
C883 Tb873 2.809 . S
C883 C884 1.514 . S
C883 O898 1.248 . S
C883 O899 1.266 . S
C884 C883 1.514 . S
C884 C885 1.359 . S
C884 C889 1.348 . S
C885 C884 1.359 . S
C885 C886 1.380 . S
C885 H908 0.929 . S
C886 C885 1.380 . S
C886 C887 1.347 . S
C886 H909 0.931 . S
C887 C886 1.347 . S
C887 C888 1.369 . S
C888 C887 1.369 . S
C888 C889 1.408 . S
C888 H910 0.930 . S
C889 C884 1.348 . S
C889 C888 1.408 . S
C889 H911 0.930 . S
C890 O900 1.281 . S
C890 O901 1.254 . S
C891 O902 1.236 . S
C891 O903 1.266 . S
O892 Tb872 2.484 . S
O892 C874 1.248 . S
O893 Tb872 2.440 . S
O893 C874 1.266 . S
O894 Tb872 2.658 . S
O894 Tb873 2.325 . S
O894 C881 1.281 . S
O895 Tb872 2.409 . S
O895 C881 1.254 . S
O896 Tb872 2.378 . S
O896 C882 1.236 . S
O897 Tb873 2.341 . S
O897 C882 1.266 . S
O898 Tb873 2.484 . S
O898 C883 1.248 . S
O899 Tb873 2.440 . S
O899 C883 1.266 . S
O900 Tb872 2.325 . S
O900 Tb873 2.658 . S
O900 C890 1.281 . S
O901 Tb873 2.409 . S
O901 C890 1.254 . S
O902 Tb873 2.378 . S
O902 C891 1.236 . S
O903 Tb872 2.341 . S
O903 C891 1.266 . S
H904 C876 0.929 . S
H905 C877 0.931 . S
H906 C879 0.930 . S
H907 C880 0.930 . S
H908 C885 0.929 . S
H909 C886 0.931 . S
H910 C888 0.930 . S
H911 C889 0.930 . S
Tb912 C914 2.809 . S
Tb912 O932 2.484 . S
Tb912 O933 2.440 . S
Tb912 O934 2.658 . S
Tb912 O935 2.409 . S
Tb912 O936 2.378 . S
Tb912 O940 2.325 . S
Tb912 O943 2.341 . S
Tb913 C923 2.809 1_455 S
Tb913 O934 2.325 . S
Tb913 O937 2.341 . S
Tb913 O938 2.484 1_455 S
Tb913 O939 2.440 1_455 S
Tb913 O940 2.658 . S
Tb913 O941 2.409 . S
Tb913 O942 2.378 . S
C914 Tb912 2.809 . S
C914 C915 1.514 . S
C914 O932 1.248 . S
C914 O933 1.266 . S
C915 C914 1.514 . S
C915 C916 1.359 . S
C915 C920 1.348 . S
C916 C915 1.359 . S
C916 C917 1.380 . S
C916 H944 0.929 . S
C917 C916 1.380 . S
C917 C918 1.347 . S
C917 H945 0.931 . S
C918 C917 1.347 . S
C918 C919 1.369 . S
C919 C918 1.369 . S
C919 C920 1.408 . S
C919 H946 0.930 . S
C920 C915 1.348 . S
C920 C919 1.408 . S
C920 H947 0.930 . S
C921 O934 1.281 . S
C921 O935 1.254 . S
C922 O936 1.236 . S
C922 O937 1.266 . S
C923 Tb913 2.809 1_655 S
C923 C924 1.514 . S
C923 O938 1.248 . S
C923 O939 1.266 . S
C924 C923 1.514 . S
C924 C925 1.359 . S
C924 C929 1.348 . S
C925 C924 1.359 . S
C925 C926 1.380 . S
C925 H948 0.929 . S
C926 C925 1.380 . S
C926 C927 1.347 . S
C926 H949 0.931 . S
C927 C926 1.347 . S
C927 C928 1.369 . S
C928 C927 1.369 . S
C928 C929 1.408 . S
C928 H950 0.930 . S
C929 C924 1.348 . S
C929 C928 1.408 . S
C929 H951 0.930 . S
C930 O940 1.281 . S
C930 O941 1.254 . S
C931 O942 1.236 . S
C931 O943 1.266 . S
O932 Tb912 2.484 . S
O932 C914 1.248 . S
O933 Tb912 2.440 . S
O933 C914 1.266 . S
O934 Tb912 2.658 . S
O934 Tb913 2.325 . S
O934 C921 1.281 . S
O935 Tb912 2.409 . S
O935 C921 1.254 . S
O936 Tb912 2.378 . S
O936 C922 1.236 . S
O937 Tb913 2.341 . S
O937 C922 1.266 . S
O938 Tb913 2.484 1_655 S
O938 C923 1.248 . S
O939 Tb913 2.440 1_655 S
O939 C923 1.266 . S
O940 Tb912 2.325 . S
O940 Tb913 2.658 . S
O940 C930 1.281 . S
O941 Tb913 2.409 . S
O941 C930 1.254 . S
O942 Tb913 2.378 . S
O942 C931 1.236 . S
O943 Tb912 2.341 . S
O943 C931 1.266 . S
H944 C916 0.929 . S
H945 C917 0.931 . S
H946 C919 0.930 . S
H947 C920 0.930 . S
H948 C925 0.929 . S
H949 C926 0.931 . S
H950 C928 0.930 . S
H951 C929 0.930 . S
C952 C953 1.363 . S
C952 C958 1.379 . S
C952 N960 1.356 . S
C953 C952 1.363 . S
C953 C959 1.363 . S
C954 C955 1.363 . S
C954 C959 1.379 . S
C954 N961 1.356 . S
C955 C954 1.363 . S
C955 C958 1.363 . S
N956 C958 1.356 . S
N956 H968 0.984 . S
N956 H969 0.985 . S
N957 C959 1.356 1_655 S
N957 H962 1.004 . S
N957 H963 0.985 . S
C958 C952 1.379 . S
C958 C955 1.363 . S
C958 N956 1.356 . S
C959 C953 1.363 . S
C959 C954 1.379 . S
C959 N957 1.356 1_455 S
N960 C952 1.356 . S
N960 H966 0.984 . S
N960 H967 0.984 . S
N961 C954 1.356 . S
N961 H964 0.984 . S
N961 H965 0.985 . S
H962 N957 1.004 . S
H963 N957 0.985 . S
H964 N961 0.984 . S
H965 N961 0.985 . S
H966 N960 0.984 . S
H967 N960 0.984 . S
H968 N956 0.984 . S
H969 N956 0.985 . S
C970 C971 1.363 . S
C970 C976 1.379 . S
C970 N978 1.356 . S
C971 C970 1.363 . S
C971 C977 1.363 . S
C972 C973 1.363 . S
C972 C977 1.379 . S
C972 N979 1.356 . S
C973 C972 1.363 . S
C973 C976 1.363 . S
N974 C976 1.356 . S
N974 H986 0.984 . S
N974 H987 0.985 . S
N975 C977 1.356 . S
N975 H980 0.984 . S
N975 H981 0.985 . S
C976 C970 1.379 . S
C976 C973 1.363 . S
C976 N974 1.356 . S
C977 C971 1.363 . S
C977 C972 1.379 . S
C977 N975 1.356 . S
N978 C970 1.356 . S
N978 H984 0.984 . S
N978 H985 0.984 . S
N979 C972 1.356 . S
N979 H982 0.984 . S
N979 H983 0.985 . S
H980 N975 0.984 . S
H981 N975 0.985 . S
H982 N979 0.984 . S
H983 N979 0.985 . S
H984 N978 0.984 . S
H985 N978 0.984 . S
H986 N974 0.984 . S
H987 N974 0.985 . S
C988 C989 1.363 . S
C988 C994 1.379 . S
C988 N996 1.356 . S
C989 C988 1.363 . S
C989 C995 1.363 . S
C990 C991 1.363 . S
C990 C995 1.379 . S
C990 N997 1.356 . S
C991 C990 1.363 . S
C991 C994 1.363 . S
N992 C994 1.356 . S
N992 H1004 0.984 . S
N992 H1005 0.985 . S
N993 C995 1.356 . S
N993 H998 0.984 . S
N993 H999 0.985 . S
C994 C988 1.379 . S
C994 C991 1.363 . S
C994 N992 1.356 . S
C995 C989 1.363 . S
C995 C990 1.379 . S
C995 N993 1.356 . S
N996 C988 1.356 . S
N996 H1002 0.984 . S
N996 H1003 0.984 . S
N997 C990 1.356 . S
N997 H1000 0.984 . S
N997 H1001 0.985 . S
H998 N993 0.984 . S
H999 N993 0.985 . S
H1000 N997 0.984 . S
H1001 N997 0.985 . S
H1002 N996 0.984 . S
H1003 N996 0.984 . S
H1004 N992 0.984 . S
H1005 N992 0.985 . S
C1006 C1007 1.363 . S
C1006 C1012 1.379 . S
C1006 N1014 1.356 . S
C1007 C1006 1.363 . S
C1007 C1013 1.363 . S
C1008 C1009 1.363 . S
C1008 C1013 1.379 . S
C1008 N1015 1.356 . S
C1009 C1008 1.363 . S
C1009 C1012 1.363 . S
N1010 C1012 1.356 . S
N1010 H1022 0.984 . S
N1010 H1023 0.985 . S
N1011 C1013 1.356 . S
N1011 H1016 0.984 . S
N1011 H1017 0.985 . S
C1012 C1006 1.379 . S
C1012 C1009 1.363 . S
C1012 N1010 1.356 . S
C1013 C1007 1.363 . S
C1013 C1008 1.379 . S
C1013 N1011 1.356 . S
N1014 C1006 1.356 . S
N1014 H1020 0.984 . S
N1014 H1021 0.984 . S
N1015 C1008 1.356 . S
N1015 H1018 0.984 . S
N1015 H1019 0.985 . S
H1016 N1011 0.984 . S
H1017 N1011 0.985 . S
H1018 N1015 0.984 . S
H1019 N1015 0.985 . S
H1020 N1014 0.984 . S
H1021 N1014 0.984 . S
H1022 N1010 0.984 . S
H1023 N1010 0.985 . S
C1024 C1025 1.363 . S
C1024 C1030 1.379 . S
C1024 N1032 1.356 . S
C1025 C1024 1.363 . S
C1025 C1031 1.363 . S
C1026 C1027 1.363 . S
C1026 C1031 1.379 . S
C1026 N1033 1.356 . S
C1027 C1026 1.363 . S
C1027 C1030 1.363 . S
N1028 C1030 1.356 . S
N1028 H1040 0.984 . S
N1028 H1041 0.985 . S
N1029 C1031 1.356 . S
N1029 H1034 0.984 . S
N1029 H1035 0.985 . S
C1030 C1024 1.379 . S
C1030 C1027 1.363 . S
C1030 N1028 1.356 . S
C1031 C1025 1.363 . S
C1031 C1026 1.379 . S
C1031 N1029 1.356 . S
N1032 C1024 1.356 . S
N1032 H1038 0.984 . S
N1032 H1039 0.984 . S
N1033 C1026 1.356 . S
N1033 H1036 0.984 . S
N1033 H1037 0.985 . S
H1034 N1029 0.984 . S
H1035 N1029 0.985 . S
H1036 N1033 0.984 . S
H1037 N1033 0.985 . S
H1038 N1032 0.984 . S
H1039 N1032 0.984 . S
H1040 N1028 0.984 . S
H1041 N1028 0.985 . S
C1042 C1043 1.363 . S
C1042 C1048 1.379 . S
C1042 N1050 1.356 . S
C1043 C1042 1.363 . S
C1043 C1049 1.363 . S
C1044 C1045 1.363 . S
C1044 C1049 1.379 . S
C1044 N1051 1.356 . S
C1045 C1044 1.363 . S
C1045 C1048 1.363 . S
N1046 C1048 1.356 . S
N1046 H1058 0.984 . S
N1046 H1059 0.985 . S
N1047 C1049 1.356 . S
N1047 H1052 0.984 . S
N1047 H1053 0.985 . S
C1048 C1042 1.379 . S
C1048 C1045 1.363 . S
C1048 N1046 1.356 . S
C1049 C1043 1.363 . S
C1049 C1044 1.379 . S
C1049 N1047 1.356 . S
N1050 C1042 1.356 . S
N1050 H1056 0.984 . S
N1050 H1057 0.984 . S
N1051 C1044 1.356 . S
N1051 H1054 0.984 . S
N1051 H1055 0.985 . S
H1052 N1047 0.984 . S
H1053 N1047 0.985 . S
H1054 N1051 0.984 . S
H1055 N1051 0.985 . S
H1056 N1050 0.984 . S
H1057 N1050 0.984 . S
H1058 N1046 0.984 . S
H1059 N1046 0.985 . S
C1060 C1061 1.363 . S
C1060 C1066 1.379 . S
C1060 N1068 1.356 . S
C1061 C1060 1.363 . S
C1061 C1067 1.363 . S
C1062 C1063 1.363 . S
C1062 C1067 1.379 . S
C1062 N1069 1.356 . S
C1063 C1062 1.363 . S
C1063 C1066 1.363 . S
N1064 C1066 1.356 . S
N1064 H1076 0.984 . S
N1064 H1077 0.985 . S
N1065 C1067 1.356 . S
N1065 H1070 0.984 . S
N1065 H1071 0.985 . S
C1066 C1060 1.379 . S
C1066 C1063 1.363 . S
C1066 N1064 1.356 . S
C1067 C1061 1.363 . S
C1067 C1062 1.379 . S
C1067 N1065 1.356 . S
N1068 C1060 1.356 . S
N1068 H1074 0.984 . S
N1068 H1075 0.984 . S
N1069 C1062 1.356 . S
N1069 H1072 0.984 . S
N1069 H1073 0.985 . S
H1070 N1065 0.984 . S
H1071 N1065 0.985 . S
H1072 N1069 0.984 . S
H1073 N1069 0.985 . S
H1074 N1068 0.984 . S
H1075 N1068 0.984 . S
H1076 N1064 0.984 . S
H1077 N1064 0.985 . S
C1078 C1079 1.363 . S
C1078 C1084 1.379 . S
C1078 N1086 1.356 . S
C1079 C1078 1.363 . S
C1079 C1085 1.363 . S
C1080 C1081 1.363 . S
C1080 C1085 1.379 . S
C1080 N1087 1.356 . S
C1081 C1080 1.363 . S
C1081 C1084 1.363 . S
N1082 C1084 1.356 . S
N1082 H1094 0.984 . S
N1082 H1095 0.985 . S
N1083 C1085 1.356 . S
N1083 H1088 0.984 . S
N1083 H1089 0.985 . S
C1084 C1078 1.379 . S
C1084 C1081 1.363 . S
C1084 N1082 1.356 . S
C1085 C1079 1.363 . S
C1085 C1080 1.379 . S
C1085 N1083 1.356 . S
N1086 C1078 1.356 . S
N1086 H1092 0.984 . S
N1086 H1093 0.984 . S
N1087 C1080 1.356 . S
N1087 H1090 0.984 . S
N1087 H1091 0.985 . S
H1088 N1083 0.984 . S
H1089 N1083 0.985 . S
H1090 N1087 0.984 . S
H1091 N1087 0.985 . S
H1092 N1086 0.984 . S
H1093 N1086 0.984 . S
H1094 N1082 0.984 . S
H1095 N1082 0.985 . S
C1096 C1097 1.363 . S
C1096 C1102 1.379 1_655 S
C1096 N1104 1.356 1_545 S
C1097 C1096 1.363 . S
C1097 C1103 1.363 1_655 S
C1098 C1099 1.363 . S
C1098 C1103 1.379 . S
C1098 N1105 1.356 . S
C1099 C1098 1.363 . S
C1099 C1102 1.363 . S
N1100 C1102 1.356 . S
N1100 H1112 0.984 1_455 S
N1100 H1113 0.985 . S
N1101 C1103 1.356 . S
N1101 H1106 0.984 1_455 S
N1101 H1107 0.985 . S
C1102 C1096 1.379 1_455 S
C1102 C1099 1.363 . S
C1102 N1100 1.356 . S
C1103 C1097 1.363 1_455 S
C1103 C1098 1.379 . S
C1103 N1101 1.356 . S
N1104 C1096 1.356 1_565 S
N1104 H1110 0.984 . S
N1104 H1111 0.984 . S
N1105 C1098 1.356 . S
N1105 H1108 0.984 . S
N1105 H1109 0.985 . S
H1106 N1101 0.984 1_655 S
H1107 N1101 0.985 . S
H1108 N1105 0.984 . S
H1109 N1105 0.985 . S
H1110 N1104 0.984 . S
H1111 N1104 0.984 . S
H1112 N1100 0.984 1_655 S
H1113 N1100 0.985 . S
C1114 C1115 1.363 . S
C1114 C1120 1.379 . S
C1114 N1122 1.356 . S
C1115 C1114 1.363 . S
C1115 C1121 1.363 . S
C1116 C1117 1.363 . S
C1116 C1121 1.379 . S
C1116 N1123 1.356 . S
C1117 C1116 1.363 . S
C1117 C1120 1.363 . S
N1118 C1120 1.356 . S
N1118 H1130 0.984 . S
N1118 H1131 0.985 . S
N1119 C1121 1.356 . S
N1119 H1124 0.984 . S
N1119 H1125 0.985 . S
C1120 C1114 1.379 . S
C1120 C1117 1.363 . S
C1120 N1118 1.356 . S
C1121 C1115 1.363 . S
C1121 C1116 1.379 . S
C1121 N1119 1.356 . S
N1122 C1114 1.356 . S
N1122 H1128 0.984 . S
N1122 H1129 0.984 . S
N1123 C1116 1.356 . S
N1123 H1126 0.984 . S
N1123 H1127 0.985 . S
H1124 N1119 0.984 . S
H1125 N1119 0.985 . S
H1126 N1123 0.984 . S
H1127 N1123 0.985 . S
H1128 N1122 0.984 . S
H1129 N1122 0.984 . S
H1130 N1118 0.984 . S
H1131 N1118 0.985 . S
C1132 C1133 1.363 1_565 S
C1132 C1138 1.379 . S
C1132 N1140 1.356 . S
C1133 C1132 1.363 1_545 S
C1133 C1139 1.363 . S
C1134 C1135 1.363 . S
C1134 C1139 1.379 . S
C1134 N1141 1.356 . S
C1135 C1134 1.363 . S
C1135 C1138 1.363 1_545 S
N1136 C1138 1.356 . S
N1136 H1148 0.984 . S
N1136 H1149 0.985 . S
N1137 C1139 1.356 . S
N1137 H1142 0.984 . S
N1137 H1143 0.985 . S
C1138 C1132 1.379 . S
C1138 C1135 1.363 1_565 S
C1138 N1136 1.356 . S
C1139 C1133 1.363 . S
C1139 C1134 1.379 . S
C1139 N1137 1.356 . S
N1140 C1132 1.356 . S
N1140 H1146 0.984 . S
N1140 H1147 0.984 . S
N1141 C1134 1.356 . S
N1141 H1144 0.984 . S
N1141 H1145 0.985 . S
H1142 N1137 0.984 . S
H1143 N1137 0.985 . S
H1144 N1141 0.984 . S
H1145 N1141 0.985 . S
H1146 N1140 0.984 . S
H1147 N1140 0.984 . S
H1148 N1136 0.984 . S
H1149 N1136 0.985 . S
C1150 C1151 1.363 1_556 S
C1150 C1156 1.379 . S
C1150 N1158 1.356 . S
C1151 C1150 1.363 1_554 S
C1151 C1157 1.362 . S
C1152 C1153 1.363 . S
C1152 C1157 1.355 1_556 S
C1152 N1159 1.356 . S
C1153 C1152 1.363 . S
C1153 C1156 1.363 . S
N1154 C1156 1.356 . S
N1154 H1166 0.984 . S
N1154 H1167 0.985 . S
N1155 C1157 1.385 . S
N1155 H1160 0.984 . S
N1155 H1161 0.985 . S
C1156 C1150 1.379 . S
C1156 C1153 1.363 . S
C1156 N1154 1.356 . S
C1157 C1151 1.362 . S
C1157 C1152 1.355 1_554 S
C1157 N1155 1.385 . S
N1158 C1150 1.356 . S
N1158 H1164 0.984 . S
N1158 H1165 0.984 1_556 S
N1159 C1152 1.356 . S
N1159 H1162 0.984 . S
N1159 H1163 0.985 . S
H1160 N1155 0.984 . S
H1161 N1155 0.985 . S
H1162 N1159 0.984 . S
H1163 N1159 0.985 . S
H1164 N1158 0.984 . S
H1165 N1158 0.984 1_554 S
H1166 N1154 0.984 . S
H1167 N1154 0.985 . S
C1168 C1169 1.363 1_565 S
C1168 C1174 1.380 1_655 S
C1168 N1176 1.356 . S
C1169 C1168 1.363 1_545 S
C1169 C1175 1.363 1_655 S
C1170 C1171 1.363 . S
C1170 C1175 1.379 . S
C1170 N1177 1.356 . S
C1171 C1170 1.363 . S
C1171 C1174 1.361 1_545 S
N1172 C1174 1.356 . S
N1172 H1184 0.984 1_455 S
N1172 H1185 0.985 . S
N1173 C1175 1.356 . S
N1173 H1178 0.984 1_455 S
N1173 H1179 0.985 . S
C1174 C1168 1.380 1_455 S
C1174 C1171 1.361 1_565 S
C1174 N1172 1.356 . S
C1175 C1169 1.363 1_455 S
C1175 C1170 1.379 . S
C1175 N1173 1.356 . S
N1176 C1168 1.356 . S
N1176 H1182 0.984 . S
N1176 H1183 0.984 . S
N1177 C1170 1.356 . S
N1177 H1180 0.984 . S
N1177 H1181 0.985 . S
H1178 N1173 0.984 1_655 S
H1179 N1173 0.985 . S
H1180 N1177 0.984 . S
H1181 N1177 0.985 . S
H1182 N1176 0.984 . S
H1183 N1176 0.984 . S
H1184 N1172 0.984 1_655 S
H1185 N1172 0.985 . S
C1186 C1187 1.363 . S
C1186 C1192 1.379 . S
C1186 N1194 1.356 . S
C1187 C1186 1.363 . S
C1187 C1193 1.363 . S
C1188 C1189 1.363 . S
C1188 C1193 1.379 . S
C1188 N1195 1.356 . S
C1189 C1188 1.363 . S
C1189 C1192 1.363 . S
N1190 C1192 1.356 . S
N1190 H1202 0.984 . S
N1190 H1203 0.985 . S
N1191 C1193 1.356 . S
N1191 H1196 0.984 . S
N1191 H1197 0.985 . S
C1192 C1186 1.379 . S
C1192 C1189 1.363 . S
C1192 N1190 1.356 . S
C1193 C1187 1.363 . S
C1193 C1188 1.379 . S
C1193 N1191 1.356 . S
N1194 C1186 1.356 . S
N1194 H1200 0.984 . S
N1194 H1201 0.984 . S
N1195 C1188 1.356 . S
N1195 H1198 0.984 . S
N1195 H1199 0.985 . S
H1196 N1191 0.984 . S
H1197 N1191 0.985 . S
H1198 N1195 0.984 . S
H1199 N1195 0.985 . S
H1200 N1194 0.984 . S
H1201 N1194 0.984 . S
H1202 N1190 0.984 . S
H1203 N1190 0.985 . S
C1204 C1205 1.363 . S
C1204 C1210 1.379 . S
C1204 N1212 1.356 . S
C1205 C1204 1.363 . S
C1205 C1211 1.363 . S
C1206 C1207 1.363 . S
C1206 C1211 1.379 . S
C1206 N1213 1.356 . S
C1207 C1206 1.363 . S
C1207 C1210 1.363 . S
N1208 C1210 1.348 1_554 S
N1208 H1220 0.971 1_545 S
N1208 H1221 0.990 . S
N1209 C1211 1.356 . S
N1209 H1214 0.984 . S
N1209 H1215 0.985 . S
C1210 C1204 1.379 . S
C1210 C1207 1.363 . S
C1210 N1208 1.348 1_556 S
C1211 C1205 1.363 . S
C1211 C1206 1.379 . S
C1211 N1209 1.356 . S
N1212 C1204 1.356 . S
N1212 H1218 0.984 1_545 S
N1212 H1219 0.984 . S
N1213 C1206 1.356 . S
N1213 H1216 0.984 . S
N1213 H1217 0.985 . S
H1214 N1209 0.984 . S
H1215 N1209 0.985 . S
H1216 N1213 0.984 . S
H1217 N1213 0.985 . S
H1218 N1212 0.984 1_565 S
H1219 N1212 0.984 . S
H1220 N1208 0.971 1_565 S
H1221 N1208 0.990 . S
C1222 C1223 1.363 . S
C1222 C1228 1.379 . S
C1222 N1230 1.356 . S
C1223 C1222 1.363 . S
C1223 C1229 1.363 . S
C1224 C1225 1.363 . S
C1224 C1229 1.379 . S
C1224 N1231 1.356 . S
C1225 C1224 1.363 . S
C1225 C1228 1.363 . S
N1226 C1228 1.356 . S
N1226 H1238 0.984 . S
N1226 H1239 0.985 . S
N1227 C1229 1.356 . S
N1227 H1232 0.984 . S
N1227 H1233 0.985 . S
C1228 C1222 1.379 . S
C1228 C1225 1.363 . S
C1228 N1226 1.356 . S
C1229 C1223 1.363 . S
C1229 C1224 1.379 . S
C1229 N1227 1.356 . S
N1230 C1222 1.356 . S
N1230 H1236 0.984 . S
N1230 H1237 0.984 . S
N1231 C1224 1.356 . S
N1231 H1234 0.984 . S
N1231 H1235 0.985 . S
H1232 N1227 0.984 . S
H1233 N1227 0.985 . S
H1234 N1231 0.984 . S
H1235 N1231 0.985 . S
H1236 N1230 0.984 . S
H1237 N1230 0.984 . S
H1238 N1226 0.984 . S
H1239 N1226 0.985 . S
C1240 C1241 1.363 . S
C1240 C1246 1.379 . S
C1240 N1248 1.356 . S
C1241 C1240 1.363 . S
C1241 C1247 1.363 . S
C1242 C1243 1.363 . S
C1242 C1247 1.379 . S
C1242 N1249 1.356 . S
C1243 C1242 1.363 . S
C1243 C1246 1.363 . S
N1244 C1246 1.356 . S
N1244 H1256 0.984 . S
N1244 H1257 0.985 . S
N1245 C1247 1.356 . S
N1245 H1250 0.984 . S
N1245 H1251 0.985 . S
C1246 C1240 1.379 . S
C1246 C1243 1.363 . S
C1246 N1244 1.356 . S
C1247 C1241 1.363 . S
C1247 C1242 1.379 . S
C1247 N1245 1.356 . S
N1248 C1240 1.356 . S
N1248 H1254 0.984 . S
N1248 H1255 0.984 . S
N1249 C1242 1.356 . S
N1249 H1252 0.984 . S
N1249 H1253 0.985 . S
H1250 N1245 0.984 . S
H1251 N1245 0.985 . S
H1252 N1249 0.984 . S
H1253 N1249 0.985 . S
H1254 N1248 0.984 . S
H1255 N1248 0.984 . S
H1256 N1244 0.984 . S
H1257 N1244 0.985 . S
C1258 C1259 1.363 . S
C1258 C1264 1.379 . S
C1258 N1266 1.356 . S
C1259 C1258 1.363 . S
C1259 C1265 1.363 . S
C1260 C1261 1.363 . S
C1260 C1265 1.379 . S
C1260 N1267 1.356 . S
C1261 C1260 1.363 . S
C1261 C1264 1.363 . S
N1262 C1264 1.356 . S
N1262 H1274 0.984 . S
N1262 H1275 0.985 . S
N1263 C1265 1.356 . S
N1263 H1268 0.984 . S
N1263 H1269 0.990 . S
C1264 C1258 1.379 . S
C1264 C1261 1.363 . S
C1264 N1262 1.356 . S
C1265 C1259 1.363 . S
C1265 C1260 1.379 . S
C1265 N1263 1.356 . S
N1266 C1258 1.356 . S
N1266 H1272 0.984 . S
N1266 H1273 0.984 . S
N1267 C1260 1.356 . S
N1267 H1270 0.984 . S
N1267 H1271 0.985 . S
H1268 N1263 0.984 . S
H1269 N1263 0.990 . S
H1270 N1267 0.984 . S
H1271 N1267 0.985 . S
H1272 N1266 0.984 . S
H1273 N1266 0.984 . S
H1274 N1262 0.984 . S
H1275 N1262 0.985 . S
C1276 C1277 1.363 . S
C1276 C1282 1.379 . S
C1276 N1284 1.356 . S
C1277 C1276 1.363 . S
C1277 C1283 1.363 . S
C1278 C1279 1.363 . S
C1278 C1283 1.379 . S
C1278 N1285 1.356 . S
C1279 C1278 1.363 . S
C1279 C1282 1.363 . S
N1280 C1282 1.356 . S
N1280 H1292 0.984 . S
N1280 H1293 0.985 . S
N1281 C1283 1.356 . S
N1281 H1286 0.984 . S
N1281 H1287 0.985 . S
C1282 C1276 1.379 . S
C1282 C1279 1.363 . S
C1282 N1280 1.356 . S
C1283 C1277 1.363 . S
C1283 C1278 1.379 . S
C1283 N1281 1.356 . S
N1284 C1276 1.356 . S
N1284 H1290 0.984 . S
N1284 H1291 0.984 . S
N1285 C1278 1.356 . S
N1285 H1288 0.984 . S
N1285 H1289 0.985 . S
H1286 N1281 0.984 . S
H1287 N1281 0.985 . S
H1288 N1285 0.984 . S
H1289 N1285 0.985 . S
H1290 N1284 0.984 . S
H1291 N1284 0.984 . S
H1292 N1280 0.984 . S
H1293 N1280 0.985 . S
C1294 C1295 1.363 . S
C1294 C1300 1.379 . S
C1294 N1302 1.356 . S
C1295 C1294 1.363 . S
C1295 C1301 1.363 . S
C1296 C1297 1.363 . S
C1296 C1301 1.379 . S
C1296 N1303 1.356 . S
C1297 C1296 1.363 . S
C1297 C1300 1.363 . S
N1298 C1300 1.356 . S
N1298 H1310 0.984 . S
N1298 H1311 0.985 . S
N1299 C1301 1.356 . S
N1299 H1304 0.984 . S
N1299 H1305 0.985 . S
C1300 C1294 1.379 . S
C1300 C1297 1.363 . S
C1300 N1298 1.356 . S
C1301 C1295 1.363 . S
C1301 C1296 1.379 . S
C1301 N1299 1.356 . S
N1302 C1294 1.356 . S
N1302 H1308 0.984 . S
N1302 H1309 0.984 . S
N1303 C1296 1.356 . S
N1303 H1306 0.984 . S
N1303 H1307 0.985 . S
H1304 N1299 0.984 . S
H1305 N1299 0.985 . S
H1306 N1303 0.984 . S
H1307 N1303 0.985 . S
H1308 N1302 0.984 . S
H1309 N1302 0.984 . S
H1310 N1298 0.984 . S
H1311 N1298 0.985 . S
C1312 C1313 1.363 . S
C1312 C1318 1.379 . S
C1312 N1320 1.356 . S
C1313 C1312 1.363 . S
C1313 C1319 1.363 . S
C1314 C1315 1.363 . S
C1314 C1319 1.379 . S
C1314 N1321 1.356 . S
C1315 C1314 1.363 . S
C1315 C1318 1.363 . S
N1316 C1318 1.356 . S
N1316 H1328 0.984 . S
N1316 H1329 0.985 . S
N1317 C1319 1.356 . S
N1317 H1322 0.984 . S
N1317 H1323 0.985 . S
C1318 C1312 1.379 . S
C1318 C1315 1.363 . S
C1318 N1316 1.356 . S
C1319 C1313 1.363 . S
C1319 C1314 1.379 . S
C1319 N1317 1.356 . S
N1320 C1312 1.356 . S
N1320 H1326 0.984 . S
N1320 H1327 0.984 . S
N1321 C1314 1.356 . S
N1321 H1324 0.984 . S
N1321 H1325 0.985 . S
H1322 N1317 0.984 . S
H1323 N1317 0.985 . S
H1324 N1321 0.984 . S
H1325 N1321 0.985 . S
H1326 N1320 0.984 . S
H1327 N1320 0.984 . S
H1328 N1316 0.984 . S
H1329 N1316 0.985 . S
C1330 C1331 1.363 . S
C1330 C1336 1.379 . S
C1330 N1338 1.356 . S
C1331 C1330 1.363 . S
C1331 C1337 1.363 . S
C1332 C1333 1.363 . S
C1332 C1337 1.379 . S
C1332 N1339 1.356 . S
C1333 C1332 1.363 . S
C1333 C1336 1.363 . S
N1334 C1336 1.356 . S
N1334 H1346 0.984 . S
N1334 H1347 0.985 . S
N1335 C1337 1.356 . S
N1335 H1340 0.984 . S
N1335 H1341 0.985 . S
C1336 C1330 1.379 . S
C1336 C1333 1.363 . S
C1336 N1334 1.356 . S
C1337 C1331 1.363 . S
C1337 C1332 1.379 . S
C1337 N1335 1.356 . S
N1338 C1330 1.356 . S
N1338 H1344 0.984 . S
N1338 H1345 0.984 . S
N1339 C1332 1.356 . S
N1339 H1342 0.984 . S
N1339 H1343 0.985 . S
H1340 N1335 0.984 . S
H1341 N1335 0.985 . S
H1342 N1339 0.984 . S
H1343 N1339 0.985 . S
H1344 N1338 0.984 . S
H1345 N1338 0.984 . S
H1346 N1334 0.984 . S
H1347 N1334 0.985 . S
C1348 C1349 1.363 . S
C1348 C1354 1.379 . S
C1348 N1356 1.356 . S
C1349 C1348 1.363 . S
C1349 C1355 1.363 . S
C1350 C1351 1.363 . S
C1350 C1355 1.379 . S
C1350 N1357 1.356 . S
C1351 C1350 1.363 . S
C1351 C1354 1.363 . S
N1352 C1354 1.356 . S
N1352 H1364 0.984 . S
N1352 H1365 0.985 . S
N1353 C1355 1.356 . S
N1353 H1358 0.984 . S
N1353 H1359 0.985 . S
C1354 C1348 1.379 . S
C1354 C1351 1.363 . S
C1354 N1352 1.356 . S
C1355 C1349 1.363 . S
C1355 C1350 1.379 . S
C1355 N1353 1.356 . S
N1356 C1348 1.356 . S
N1356 H1362 0.984 . S
N1356 H1363 0.984 . S
N1357 C1350 1.356 . S
N1357 H1360 0.984 . S
N1357 H1361 0.985 . S
H1358 N1353 0.984 . S
H1359 N1353 0.985 . S
H1360 N1357 0.984 . S
H1361 N1357 0.985 . S
H1362 N1356 0.984 . S
H1363 N1356 0.984 . S
H1364 N1352 0.984 . S
H1365 N1352 0.985 . S
C1366 C1367 1.363 . S
C1366 C1372 1.379 . S
C1366 N1374 1.356 . S
C1367 C1366 1.363 . S
C1367 C1373 1.363 . S
C1368 C1369 1.363 . S
C1368 C1373 1.379 . S
C1368 N1375 1.356 . S
C1369 C1368 1.363 . S
C1369 C1372 1.363 . S
N1370 C1372 1.356 . S
N1370 H1382 0.984 . S
N1370 H1383 0.985 . S
N1371 C1373 1.356 . S
N1371 H1376 0.984 . S
N1371 H1377 0.985 . S
C1372 C1366 1.379 . S
C1372 C1369 1.363 . S
C1372 N1370 1.356 . S
C1373 C1367 1.363 . S
C1373 C1368 1.379 . S
C1373 N1371 1.356 . S
N1374 C1366 1.356 . S
N1374 H1380 0.984 . S
N1374 H1381 0.984 . S
N1375 C1368 1.356 . S
N1375 H1378 0.984 . S
N1375 H1379 0.985 . S
H1376 N1371 0.984 . S
H1377 N1371 0.985 . S
H1378 N1375 0.984 . S
H1379 N1375 0.985 . S
H1380 N1374 0.984 . S
H1381 N1374 0.984 . S
H1382 N1370 0.984 . S
H1383 N1370 0.985 . S
C1384 C1385 1.363 . S
C1384 C1390 1.379 . S
C1384 N1392 1.356 . S
C1385 C1384 1.363 . S
C1385 C1391 1.363 . S
C1386 C1387 1.363 . S
C1386 C1391 1.379 . S
C1386 N1393 1.356 . S
C1387 C1386 1.363 . S
C1387 C1390 1.363 . S
N1388 C1390 1.356 . S
N1388 H1400 0.984 . S
N1388 H1401 0.985 . S
N1389 C1391 1.356 . S
N1389 H1394 0.984 . S
N1389 H1395 0.985 . S
C1390 C1384 1.379 . S
C1390 C1387 1.363 . S
C1390 N1388 1.356 . S
C1391 C1385 1.363 . S
C1391 C1386 1.379 . S
C1391 N1389 1.356 . S
N1392 C1384 1.356 . S
N1392 H1398 0.984 . S
N1392 H1399 0.984 . S
N1393 C1386 1.356 . S
N1393 H1396 0.984 . S
N1393 H1397 0.985 . S
H1394 N1389 0.984 . S
H1395 N1389 0.985 . S
H1396 N1393 0.984 . S
H1397 N1393 0.985 . S
H1398 N1392 0.984 . S
H1399 N1392 0.984 . S
H1400 N1388 0.984 . S
H1401 N1388 0.985 . S
C1402 C1403 1.363 . S
C1402 C1408 1.379 . S
C1402 N1410 1.356 . S
C1403 C1402 1.363 . S
C1403 C1409 1.363 . S
C1404 C1405 1.363 . S
C1404 C1409 1.379 . S
C1404 N1411 1.356 . S
C1405 C1404 1.363 . S
C1405 C1408 1.363 . S
N1406 C1408 1.356 . S
N1406 H1418 0.984 . S
N1406 H1419 0.985 . S
N1407 C1409 1.356 . S
N1407 H1412 0.984 . S
N1407 H1413 0.985 . S
C1408 C1402 1.379 . S
C1408 C1405 1.363 . S
C1408 N1406 1.356 . S
C1409 C1403 1.363 . S
C1409 C1404 1.379 . S
C1409 N1407 1.356 . S
N1410 C1402 1.356 . S
N1410 H1416 0.984 . S
N1410 H1417 0.984 . S
N1411 C1404 1.356 . S
N1411 H1414 0.984 . S
N1411 H1415 0.985 . S
H1412 N1407 0.984 . S
H1413 N1407 0.985 . S
H1414 N1411 0.984 . S
H1415 N1411 0.985 . S
H1416 N1410 0.984 . S
H1417 N1410 0.984 . S
H1418 N1406 0.984 . S
H1419 N1406 0.985 . S
C1420 C1421 1.363 . S
C1420 C1426 1.379 . S
C1420 N1428 1.356 . S
C1421 C1420 1.363 . S
C1421 C1427 1.363 . S
C1422 C1423 1.363 . S
C1422 C1427 1.379 . S
C1422 N1429 1.356 . S
C1423 C1422 1.363 . S
C1423 C1426 1.363 . S
N1424 C1426 1.356 . S
N1424 H1436 0.984 . S
N1424 H1437 0.985 . S
N1425 C1427 1.356 . S
N1425 H1430 0.984 . S
N1425 H1431 0.985 . S
C1426 C1420 1.379 . S
C1426 C1423 1.363 . S
C1426 N1424 1.356 . S
C1427 C1421 1.363 . S
C1427 C1422 1.379 . S
C1427 N1425 1.356 . S
N1428 C1420 1.356 . S
N1428 H1434 0.984 . S
N1428 H1435 0.984 . S
N1429 C1422 1.356 . S
N1429 H1432 0.984 . S
N1429 H1433 0.985 . S
H1430 N1425 0.984 . S
H1431 N1425 0.985 . S
H1432 N1429 0.984 . S
H1433 N1429 0.985 . S
H1434 N1428 0.984 . S
H1435 N1428 0.984 . S
H1436 N1424 0.984 . S
H1437 N1424 0.985 . S
C1438 C1439 1.363 . S
C1438 C1444 1.379 . S
C1438 N1446 1.356 . S
C1439 C1438 1.363 . S
C1439 C1445 1.363 . S
C1440 C1441 1.363 . S
C1440 C1445 1.379 . S
C1440 N1447 1.356 . S
C1441 C1440 1.363 . S
C1441 C1444 1.363 . S
N1442 C1444 1.356 . S
N1442 H1454 0.984 . S
N1442 H1455 0.985 . S
N1443 C1445 1.356 . S
N1443 H1448 0.984 . S
N1443 H1449 0.985 . S
C1444 C1438 1.379 . S
C1444 C1441 1.363 . S
C1444 N1442 1.356 . S
C1445 C1439 1.363 . S
C1445 C1440 1.379 . S
C1445 N1443 1.356 . S
N1446 C1438 1.356 . S
N1446 H1452 0.984 . S
N1446 H1453 0.984 . S
N1447 C1440 1.356 . S
N1447 H1450 0.984 . S
N1447 H1451 0.985 . S
H1448 N1443 0.984 . S
H1449 N1443 0.985 . S
H1450 N1447 0.984 . S
H1451 N1447 0.985 . S
H1452 N1446 0.984 . S
H1453 N1446 0.984 . S
H1454 N1442 0.984 . S
H1455 N1442 0.985 . S
C1456 C1457 1.363 1_655 S
C1456 C1462 1.379 . S
C1456 N1464 1.356 . S
C1457 C1456 1.363 1_455 S
C1457 C1463 1.363 . S
C1458 C1459 1.363 . S
C1458 C1463 1.379 . S
C1458 N1465 1.356 . S
C1459 C1458 1.363 . S
C1459 C1462 1.363 1_455 S
N1460 C1462 1.356 . S
N1460 H1472 0.984 . S
N1460 H1473 0.985 . S
N1461 C1463 1.356 . S
N1461 H1466 0.984 . S
N1461 H1467 0.985 . S
C1462 C1456 1.379 . S
C1462 C1459 1.363 1_655 S
C1462 N1460 1.356 . S
C1463 C1457 1.363 . S
C1463 C1458 1.379 . S
C1463 N1461 1.356 . S
N1464 C1456 1.356 . S
N1464 H1470 0.984 . S
N1464 H1471 0.984 . S
N1465 C1458 1.356 . S
N1465 H1468 0.984 . S
N1465 H1469 0.985 . S
H1466 N1461 0.984 . S
H1467 N1461 0.985 . S
H1468 N1465 0.984 . S
H1469 N1465 0.985 . S
H1470 N1464 0.984 . S
H1471 N1464 0.984 . S
H1472 N1460 0.984 . S
H1473 N1460 0.985 . S
C1474 C1475 1.363 . S
C1474 C1480 1.379 . S
C1474 N1482 1.356 . S
C1475 C1474 1.363 . S
C1475 C1481 1.363 . S
C1476 C1477 1.363 . S
C1476 C1481 1.379 . S
C1476 N1483 1.356 . S
C1477 C1476 1.363 . S
C1477 C1480 1.363 . S
N1478 C1480 1.356 . S
N1478 H1490 0.984 . S
N1478 H1491 0.985 . S
N1479 C1481 1.356 . S
N1479 H1484 0.984 . S
N1479 H1485 0.985 . S
C1480 C1474 1.379 . S
C1480 C1477 1.363 . S
C1480 N1478 1.356 . S
C1481 C1475 1.363 . S
C1481 C1476 1.379 . S
C1481 N1479 1.356 . S
N1482 C1474 1.356 . S
N1482 H1488 0.984 . S
N1482 H1489 0.984 . S
N1483 C1476 1.356 . S
N1483 H1486 0.984 . S
N1483 H1487 0.985 . S
H1484 N1479 0.984 . S
H1485 N1479 0.985 . S
H1486 N1483 0.984 . S
H1487 N1483 0.985 . S
H1488 N1482 0.984 . S
H1489 N1482 0.984 . S
H1490 N1478 0.984 . S
H1491 N1478 0.985 . S
C1492 C1493 1.363 . S
C1492 C1498 1.379 . S
C1492 N1500 1.356 . S
C1493 C1492 1.363 . S
C1493 C1499 1.363 . S
C1494 C1495 1.363 . S
C1494 C1499 1.379 1_554 S
C1494 N1501 1.356 . S
C1495 C1494 1.363 . S
C1495 C1498 1.363 1_554 S
N1496 C1498 1.356 1_545 S
N1496 H1508 0.984 . S
N1496 H1509 0.985 1_556 S
N1497 C1499 1.356 . S
N1497 H1502 0.984 . S
N1497 H1503 0.985 1_556 S
C1498 C1492 1.379 . S
C1498 C1495 1.363 1_556 S
C1498 N1496 1.356 1_565 S
C1499 C1493 1.363 . S
C1499 C1494 1.379 1_556 S
C1499 N1497 1.356 . S
N1500 C1492 1.356 . S
N1500 H1506 0.984 . S
N1500 H1507 0.984 . S
N1501 C1494 1.356 . S
N1501 H1504 0.984 . S
N1501 H1505 0.985 . S
H1502 N1497 0.984 . S
H1503 N1497 0.985 1_554 S
H1504 N1501 0.984 . S
H1505 N1501 0.985 . S
H1506 N1500 0.984 . S
H1507 N1500 0.984 . S
H1508 N1496 0.984 . S
H1509 N1496 0.985 1_554 S
C1510 C1511 1.363 . S
C1510 C1516 1.379 1_455 S
C1510 N1518 1.356 . S
C1511 C1510 1.363 . S
C1511 C1517 1.363 1_455 S
C1512 C1513 1.363 . S
C1512 C1517 1.379 . S
C1512 N1519 1.356 . S
C1513 C1512 1.363 . S
C1513 C1516 1.363 . S
N1514 C1516 1.356 . S
N1514 H1526 0.984 . S
N1514 H1527 0.985 . S
N1515 C1517 1.356 1_455 S
N1515 H1520 0.984 . S
N1515 H1521 0.985 1_455 S
C1516 C1510 1.379 1_655 S
C1516 C1513 1.363 . S
C1516 N1514 1.356 . S
C1517 C1511 1.363 1_655 S
C1517 C1512 1.379 . S
C1517 N1515 1.356 1_655 S
N1518 C1510 1.356 . S
N1518 H1524 0.984 . S
N1518 H1525 0.984 . S
N1519 C1512 1.356 . S
N1519 H1522 0.984 . S
N1519 H1523 0.985 . S
H1520 N1515 0.984 . S
H1521 N1515 0.985 1_655 S
H1522 N1519 0.984 . S
H1523 N1519 0.985 . S
H1524 N1518 0.984 . S
H1525 N1518 0.984 . S
H1526 N1514 0.984 . S
H1527 N1514 0.985 . S
C1528 C1529 1.363 . S
C1528 C1534 1.379 1_556 S
C1528 N1536 1.356 . S
C1529 C1528 1.363 . S
C1529 C1535 1.363 . S
C1530 C1531 1.363 1_556 S
C1530 C1535 1.379 . S
C1530 N1537 1.356 . S
C1531 C1530 1.363 1_554 S
C1531 C1534 1.363 . S
N1532 C1534 1.356 . S
N1532 H1544 0.984 . S
N1532 H1545 0.985 . S
N1533 C1535 1.356 . S
N1533 H1538 0.984 . S
N1533 H1539 0.985 . S
C1534 C1528 1.379 1_554 S
C1534 C1531 1.363 . S
C1534 N1532 1.356 . S
C1535 C1529 1.363 . S
C1535 C1530 1.379 . S
C1535 N1533 1.356 . S
N1536 C1528 1.356 . S
N1536 H1542 0.984 1_556 S
N1536 H1543 0.984 . S
N1537 C1530 1.356 . S
N1537 H1540 0.984 . S
N1537 H1541 0.985 . S
H1538 N1533 0.984 . S
H1539 N1533 0.985 . S
H1540 N1537 0.984 . S
H1541 N1537 0.985 . S
H1542 N1536 0.984 1_554 S
H1543 N1536 0.984 . S
H1544 N1532 0.984 . S
H1545 N1532 0.985 . S
C1546 C1547 1.363 . S
C1546 C1552 1.379 . S
C1546 N1554 1.356 . S
C1547 C1546 1.363 . S
C1547 C1553 1.363 . S
C1548 C1549 1.363 . S
C1548 C1553 1.379 . S
C1548 N1555 1.356 . S
C1549 C1548 1.363 . S
C1549 C1552 1.363 . S
N1550 C1552 1.356 . S
N1550 H1562 0.984 . S
N1550 H1563 0.985 . S
N1551 C1553 1.356 . S
N1551 H1556 0.984 . S
N1551 H1557 0.985 . S
C1552 C1546 1.379 . S
C1552 C1549 1.363 . S
C1552 N1550 1.356 . S
C1553 C1547 1.363 . S
C1553 C1548 1.379 . S
C1553 N1551 1.356 . S
N1554 C1546 1.356 . S
N1554 H1560 0.984 . S
N1554 H1561 0.984 . S
N1555 C1548 1.356 . S
N1555 H1558 0.984 . S
N1555 H1559 0.985 . S
H1556 N1551 0.984 . S
H1557 N1551 0.985 . S
H1558 N1555 0.984 . S
H1559 N1555 0.985 . S
H1560 N1554 0.984 . S
H1561 N1554 0.984 . S
H1562 N1550 0.984 . S
H1563 N1550 0.985 . S
C1564 C1565 1.363 . S
C1564 C1570 1.379 . S
C1564 N1572 1.356 . S
C1565 C1564 1.363 . S
C1565 C1571 1.363 . S
C1566 C1567 1.363 . S
C1566 C1571 1.379 . S
C1566 N1573 1.356 . S
C1567 C1566 1.363 . S
C1567 C1570 1.363 . S
N1568 C1570 1.356 . S
N1568 H1580 0.984 . S
N1568 H1581 0.985 . S
N1569 C1571 1.356 . S
N1569 H1574 0.984 . S
N1569 H1575 0.985 . S
C1570 C1564 1.379 . S
C1570 C1567 1.363 . S
C1570 N1568 1.356 . S
C1571 C1565 1.363 . S
C1571 C1566 1.379 . S
C1571 N1569 1.356 . S
N1572 C1564 1.356 . S
N1572 H1578 0.984 . S
N1572 H1579 0.984 . S
N1573 C1566 1.356 . S
N1573 H1576 0.984 . S
N1573 H1577 0.985 . S
H1574 N1569 0.984 . S
H1575 N1569 0.985 . S
H1576 N1573 0.984 . S
H1577 N1573 0.985 . S
H1578 N1572 0.984 . S
H1579 N1572 0.984 . S
H1580 N1568 0.984 . S
H1581 N1568 0.985 . S
C1582 C1583 1.363 . S
C1582 C1588 1.379 . S
C1582 N1590 1.356 . S
C1583 C1582 1.363 . S
C1583 C1589 1.363 . S
C1584 C1585 1.363 . S
C1584 C1589 1.379 . S
C1584 N1591 1.356 . S
C1585 C1584 1.363 . S
C1585 C1588 1.363 . S
N1586 C1588 1.356 . S
N1586 H1598 0.984 . S
N1586 H1599 0.985 . S
N1587 C1589 1.356 . S
N1587 H1592 0.984 . S
N1587 H1593 0.985 . S
C1588 C1582 1.379 . S
C1588 C1585 1.363 . S
C1588 N1586 1.356 . S
C1589 C1583 1.363 . S
C1589 C1584 1.379 . S
C1589 N1587 1.356 . S
N1590 C1582 1.356 . S
N1590 H1596 0.984 . S
N1590 H1597 0.984 . S
N1591 C1584 1.356 . S
N1591 H1594 0.984 . S
N1591 H1595 0.985 . S
H1592 N1587 0.984 . S
H1593 N1587 0.985 . S
H1594 N1591 0.984 . S
H1595 N1591 0.985 . S
H1596 N1590 0.984 . S
H1597 N1590 0.984 . S
H1598 N1586 0.984 . S
H1599 N1586 0.985 . S
C1600 C1601 1.363 . S
C1600 C1606 1.379 . S
C1600 N1608 1.356 . S
C1601 C1600 1.363 . S
C1601 C1607 1.363 . S
C1602 C1603 1.363 . S
C1602 C1607 1.379 . S
C1602 N1609 1.356 . S
C1603 C1602 1.363 . S
C1603 C1606 1.363 . S
N1604 C1606 1.356 . S
N1604 H1616 0.984 . S
N1604 H1617 0.985 . S
N1605 C1607 1.356 . S
N1605 H1610 0.984 . S
N1605 H1611 0.985 1_545 S
C1606 C1600 1.379 . S
C1606 C1603 1.363 . S
C1606 N1604 1.356 . S
C1607 C1601 1.363 . S
C1607 C1602 1.379 . S
C1607 N1605 1.356 . S
N1608 C1600 1.356 . S
N1608 H1614 0.984 . S
N1608 H1615 0.984 . S
N1609 C1602 1.356 . S
N1609 H1612 0.984 . S
N1609 H1613 0.985 1_545 S
H1610 N1605 0.984 . S
H1611 N1605 0.985 1_565 S
H1612 N1609 0.984 . S
H1613 N1609 0.985 1_565 S
H1614 N1608 0.984 . S
H1615 N1608 0.984 . S
H1616 N1604 0.984 . S
H1617 N1604 0.985 . S
C1618 C1619 1.363 . S
C1618 C1624 1.379 . S
C1618 N1626 1.356 . S
C1619 C1618 1.363 . S
C1619 C1625 1.363 . S
C1620 C1621 1.363 . S
C1620 C1625 1.379 . S
C1620 N1627 1.356 . S
C1621 C1620 1.363 . S
C1621 C1624 1.363 . S
N1622 C1624 1.356 . S
N1622 H1634 0.984 . S
N1622 H1635 0.985 . S
N1623 C1625 1.356 . S
N1623 H1628 0.984 . S
N1623 H1629 0.985 . S
C1624 C1618 1.379 . S
C1624 C1621 1.363 . S
C1624 N1622 1.356 . S
C1625 C1619 1.363 . S
C1625 C1620 1.379 . S
C1625 N1623 1.356 . S
N1626 C1618 1.356 . S
N1626 H1632 0.984 . S
N1626 H1633 0.984 . S
N1627 C1620 1.356 . S
N1627 H1630 0.984 . S
N1627 H1631 0.985 . S
H1628 N1623 0.984 . S
H1629 N1623 0.985 . S
H1630 N1627 0.984 . S
H1631 N1627 0.985 . S
H1632 N1626 0.984 . S
H1633 N1626 0.984 . S
H1634 N1622 0.984 . S
H1635 N1622 0.985 . S
C1636 C1637 1.363 . S
C1636 C1642 1.379 . S
C1636 N1644 1.356 . S
C1637 C1636 1.363 . S
C1637 C1643 1.363 . S
C1638 C1639 1.363 . S
C1638 C1643 1.379 . S
C1638 N1645 1.356 . S
C1639 C1638 1.363 . S
C1639 C1642 1.363 . S
N1640 C1642 1.336 1_565 S
N1640 H1652 1.009 . S
N1640 H1653 0.978 1_565 S
N1641 C1643 1.356 . S
N1641 H1646 0.984 . S
N1641 H1647 0.985 . S
C1642 C1636 1.379 . S
C1642 C1639 1.363 . S
C1642 N1640 1.336 1_545 S
C1643 C1637 1.363 . S
C1643 C1638 1.379 . S
C1643 N1641 1.356 . S
N1644 C1636 1.356 . S
N1644 H1650 0.984 1_545 S
N1644 H1651 0.984 . S
N1645 C1638 1.356 . S
N1645 H1648 0.984 . S
N1645 H1649 0.985 . S
H1646 N1641 0.984 . S
H1647 N1641 0.985 . S
H1648 N1645 0.984 . S
H1649 N1645 0.985 . S
H1650 N1644 0.984 1_565 S
H1651 N1644 0.984 . S
H1652 N1640 1.009 . S
H1653 N1640 0.978 1_545 S
C1654 C1655 1.363 . S
C1654 C1660 1.379 . S
C1654 N1662 1.356 . S
C1655 C1654 1.363 . S
C1655 C1661 1.363 . S
C1656 C1657 1.363 . S
C1656 C1661 1.379 . S
C1656 N1663 1.356 . S
C1657 C1656 1.363 . S
C1657 C1660 1.363 . S
N1658 C1660 1.356 . S
N1658 H1670 0.984 . S
N1658 H1671 0.985 . S
N1659 C1661 1.356 . S
N1659 H1664 0.984 . S
N1659 H1665 0.985 . S
C1660 C1654 1.379 . S
C1660 C1657 1.363 . S
C1660 N1658 1.356 . S
C1661 C1655 1.363 . S
C1661 C1656 1.379 . S
C1661 N1659 1.356 . S
N1662 C1654 1.356 . S
N1662 H1668 0.984 . S
N1662 H1669 0.984 1_556 S
N1663 C1656 1.356 . S
N1663 H1666 0.984 . S
N1663 H1667 0.985 . S
H1664 N1659 0.984 . S
H1665 N1659 0.985 . S
H1666 N1663 0.984 . S
H1667 N1663 0.985 . S
H1668 N1662 0.984 . S
H1669 N1662 0.984 1_554 S
H1670 N1658 0.984 . S
H1671 N1658 0.985 . S
C1672 C1673 1.363 . S
C1672 C1678 1.379 . S
C1672 N1680 1.356 . S
C1673 C1672 1.363 . S
C1673 C1679 1.363 . S
C1674 C1675 1.363 . S
C1674 C1679 1.379 . S
C1674 N1681 1.356 . S
C1675 C1674 1.363 . S
C1675 C1678 1.363 . S
N1676 C1678 1.356 . S
N1676 H1688 0.984 . S
N1676 H1689 0.985 . S
N1677 C1679 1.356 . S
N1677 H1682 0.984 . S
N1677 H1683 0.985 . S
C1678 C1672 1.379 . S
C1678 C1675 1.363 . S
C1678 N1676 1.356 . S
C1679 C1673 1.363 . S
C1679 C1674 1.379 . S
C1679 N1677 1.356 . S
N1680 C1672 1.356 . S
N1680 H1686 0.984 . S
N1680 H1687 0.984 . S
N1681 C1674 1.356 . S
N1681 H1684 0.984 . S
N1681 H1685 0.985 . S
H1682 N1677 0.984 . S
H1683 N1677 0.985 . S
H1684 N1681 0.984 . S
H1685 N1681 0.985 . S
H1686 N1680 0.984 . S
H1687 N1680 0.984 . S
H1688 N1676 0.984 . S
H1689 N1676 0.985 . S
C1690 C1691 1.363 . S
C1690 C1696 1.379 . S
C1690 N1698 1.356 . S
C1691 C1690 1.363 . S
C1691 C1697 1.363 . S
C1692 C1693 1.363 . S
C1692 C1697 1.379 . S
C1692 N1699 1.356 . S
C1693 C1692 1.363 . S
C1693 C1696 1.363 . S
N1694 C1696 1.356 . S
N1694 H1706 0.984 . S
N1694 H1707 0.985 . S
N1695 C1697 1.356 . S
N1695 H1700 0.984 . S
N1695 H1701 0.985 . S
C1696 C1690 1.379 . S
C1696 C1693 1.363 . S
C1696 N1694 1.356 . S
C1697 C1691 1.363 . S
C1697 C1692 1.379 . S
C1697 N1695 1.356 . S
N1698 C1690 1.356 . S
N1698 H1704 0.984 . S
N1698 H1705 0.984 . S
N1699 C1692 1.356 . S
N1699 H1702 0.984 . S
N1699 H1703 0.985 . S
H1700 N1695 0.984 . S
H1701 N1695 0.985 . S
H1702 N1699 0.984 . S
H1703 N1699 0.985 . S
H1704 N1698 0.984 . S
H1705 N1698 0.984 . S
H1706 N1694 0.984 . S
H1707 N1694 0.985 . S
C1708 C1709 1.363 . S
C1708 C1714 1.379 . S
C1708 N1716 1.356 . S
C1709 C1708 1.363 . S
C1709 C1715 1.363 . S
C1710 C1711 1.363 . S
C1710 C1715 1.379 . S
C1710 N1717 1.356 . S
C1711 C1710 1.363 . S
C1711 C1714 1.363 . S
N1712 C1714 1.356 . S
N1712 H1724 0.984 . S
N1712 H1725 0.985 . S
N1713 C1715 1.356 . S
N1713 H1718 0.984 . S
N1713 H1719 0.985 . S
C1714 C1708 1.379 . S
C1714 C1711 1.363 . S
C1714 N1712 1.356 . S
C1715 C1709 1.363 . S
C1715 C1710 1.379 . S
C1715 N1713 1.356 . S
N1716 C1708 1.356 . S
N1716 H1722 0.984 . S
N1716 H1723 0.984 . S
N1717 C1710 1.356 . S
N1717 H1720 0.984 . S
N1717 H1721 0.985 . S
H1718 N1713 0.984 . S
H1719 N1713 0.985 . S
H1720 N1717 0.984 . S
H1721 N1717 0.985 . S
H1722 N1716 0.984 . S
H1723 N1716 0.984 . S
H1724 N1712 0.984 . S
H1725 N1712 0.985 . S
C1726 C1727 1.363 . S
C1726 C1732 1.379 . S
C1726 N1734 1.356 . S
C1727 C1726 1.363 . S
C1727 C1733 1.363 . S
C1728 C1729 1.363 . S
C1728 C1733 1.379 . S
C1728 N1735 1.356 . S
C1729 C1728 1.363 . S
C1729 C1732 1.363 . S
N1730 C1732 1.356 . S
N1730 H1742 0.984 . S
N1730 H1743 0.985 . S
N1731 C1733 1.356 . S
N1731 H1736 0.984 . S
N1731 H1737 0.985 . S
C1732 C1726 1.379 . S
C1732 C1729 1.363 . S
C1732 N1730 1.356 . S
C1733 C1727 1.363 . S
C1733 C1728 1.379 . S
C1733 N1731 1.356 . S
N1734 C1726 1.356 . S
N1734 H1740 0.984 . S
N1734 H1741 0.984 . S
N1735 C1728 1.356 . S
N1735 H1738 0.984 . S
N1735 H1739 0.985 . S
H1736 N1731 0.984 . S
H1737 N1731 0.985 . S
H1738 N1735 0.984 . S
H1739 N1735 0.985 . S
H1740 N1734 0.984 . S
H1741 N1734 0.984 . S
H1742 N1730 0.984 . S
H1743 N1730 0.985 . S
C1744 C1745 1.363 . S
C1744 C1750 1.379 . S
C1744 N1752 1.356 . S
C1745 C1744 1.363 . S
C1745 C1751 1.363 . S
C1746 C1747 1.363 . S
C1746 C1751 1.379 . S
C1746 N1753 1.356 . S
C1747 C1746 1.363 . S
C1747 C1750 1.363 . S
N1748 C1750 1.356 . S
N1748 H1760 0.984 . S
N1748 H1761 0.985 . S
N1749 C1751 1.356 . S
N1749 H1754 0.984 . S
N1749 H1755 0.985 . S
C1750 C1744 1.379 . S
C1750 C1747 1.363 . S
C1750 N1748 1.356 . S
C1751 C1745 1.363 . S
C1751 C1746 1.379 . S
C1751 N1749 1.356 . S
N1752 C1744 1.356 . S
N1752 H1758 0.984 . S
N1752 H1759 0.984 . S
N1753 C1746 1.356 . S
N1753 H1756 0.984 . S
N1753 H1757 0.985 . S
H1754 N1749 0.984 . S
H1755 N1749 0.985 . S
H1756 N1753 0.984 . S
H1757 N1753 0.985 . S
H1758 N1752 0.984 . S
H1759 N1752 0.984 . S
H1760 N1748 0.984 . S
H1761 N1748 0.985 . S
C1762 C1763 1.363 . S
C1762 C1768 1.379 . S
C1762 N1770 1.356 . S
C1763 C1762 1.363 . S
C1763 C1769 1.363 . S
C1764 C1765 1.363 . S
C1764 C1769 1.379 . S
C1764 N1771 1.356 . S
C1765 C1764 1.363 . S
C1765 C1768 1.363 . S
N1766 C1768 1.356 . S
N1766 H1778 0.984 . S
N1766 H1779 0.985 . S
N1767 C1769 1.356 . S
N1767 H1772 0.984 . S
N1767 H1773 0.985 . S
C1768 C1762 1.379 . S
C1768 C1765 1.363 . S
C1768 N1766 1.356 . S
C1769 C1763 1.363 . S
C1769 C1764 1.379 . S
C1769 N1767 1.356 . S
N1770 C1762 1.356 . S
N1770 H1776 0.984 . S
N1770 H1777 0.984 . S
N1771 C1764 1.356 . S
N1771 H1774 0.984 . S
N1771 H1775 0.985 . S
H1772 N1767 0.984 . S
H1773 N1767 0.985 . S
H1774 N1771 0.984 . S
H1775 N1771 0.985 . S
H1776 N1770 0.984 . S
H1777 N1770 0.984 . S
H1778 N1766 0.984 . S
H1779 N1766 0.985 . S
C1780 C1781 1.363 . S
C1780 C1786 1.379 . S
C1780 N1788 1.356 . S
C1781 C1780 1.363 . S
C1781 C1787 1.363 . S
C1782 C1783 1.363 . S
C1782 C1787 1.379 . S
C1782 N1789 1.356 . S
C1783 C1782 1.363 . S
C1783 C1786 1.363 . S
N1784 C1786 1.356 . S
N1784 H1796 0.984 . S
N1784 H1797 0.985 . S
N1785 C1787 1.356 . S
N1785 H1790 0.984 . S
N1785 H1791 0.985 . S
C1786 C1780 1.379 . S
C1786 C1783 1.363 . S
C1786 N1784 1.356 . S
C1787 C1781 1.363 . S
C1787 C1782 1.379 . S
C1787 N1785 1.356 . S
N1788 C1780 1.356 . S
N1788 H1794 0.984 . S
N1788 H1795 0.984 . S
N1789 C1782 1.356 . S
N1789 H1792 0.984 . S
N1789 H1793 0.985 . S
H1790 N1785 0.984 . S
H1791 N1785 0.985 . S
H1792 N1789 0.984 . S
H1793 N1789 0.985 . S
H1794 N1788 0.984 . S
H1795 N1788 0.984 . S
H1796 N1784 0.984 . S
H1797 N1784 0.985 . S
C1798 C1799 1.363 . S
C1798 C1804 1.379 . S
C1798 N1806 1.356 . S
C1799 C1798 1.363 . S
C1799 C1805 1.363 . S
C1800 C1801 1.363 . S
C1800 C1805 1.379 . S
C1800 N1807 1.356 . S
C1801 C1800 1.363 . S
C1801 C1804 1.363 . S
N1802 C1804 1.356 . S
N1802 H1814 0.984 . S
N1802 H1815 0.985 . S
N1803 C1805 1.356 . S
N1803 H1808 0.984 . S
N1803 H1809 0.985 . S
C1804 C1798 1.379 . S
C1804 C1801 1.363 . S
C1804 N1802 1.356 . S
C1805 C1799 1.363 . S
C1805 C1800 1.379 . S
C1805 N1803 1.356 . S
N1806 C1798 1.356 . S
N1806 H1812 0.984 . S
N1806 H1813 0.984 . S
N1807 C1800 1.356 . S
N1807 H1810 0.984 . S
N1807 H1811 0.985 . S
H1808 N1803 0.984 . S
H1809 N1803 0.985 . S
H1810 N1807 0.984 . S
H1811 N1807 0.985 . S
H1812 N1806 0.984 . S
H1813 N1806 0.984 . S
H1814 N1802 0.984 . S
H1815 N1802 0.985 . S
C1816 C1817 1.363 . S
C1816 C1822 1.379 . S
C1816 N1824 1.356 . S
C1817 C1816 1.363 . S
C1817 C1823 1.363 . S
C1818 C1819 1.363 . S
C1818 C1823 1.379 . S
C1818 N1825 1.356 . S
C1819 C1818 1.363 . S
C1819 C1822 1.363 . S
N1820 C1822 1.356 . S
N1820 H1832 0.984 . S
N1820 H1833 0.985 . S
N1821 C1823 1.356 . S
N1821 H1826 0.984 . S
N1821 H1827 0.985 . S
C1822 C1816 1.379 . S
C1822 C1819 1.363 . S
C1822 N1820 1.356 . S
C1823 C1817 1.363 . S
C1823 C1818 1.379 . S
C1823 N1821 1.356 . S
N1824 C1816 1.356 . S
N1824 H1830 0.984 . S
N1824 H1831 0.984 . S
N1825 C1818 1.356 . S
N1825 H1828 0.984 . S
N1825 H1829 0.985 . S
H1826 N1821 0.984 . S
H1827 N1821 0.985 . S
H1828 N1825 0.984 . S
H1829 N1825 0.985 . S
H1830 N1824 0.984 . S
H1831 N1824 0.984 . S
H1832 N1820 0.984 . S
H1833 N1820 0.985 . S
C1834 C1835 1.363 . S
C1834 C1840 1.379 . S
C1834 N1842 1.356 . S
C1835 C1834 1.363 . S
C1835 C1841 1.363 . S
C1836 C1837 1.363 . S
C1836 C1841 1.379 . S
C1836 N1843 1.356 . S
C1837 C1836 1.363 . S
C1837 C1840 1.363 . S
N1838 C1840 1.356 . S
N1838 H1850 0.984 . S
N1838 H1851 0.985 . S
N1839 C1841 1.356 . S
N1839 H1844 0.984 . S
N1839 H1845 0.985 . S
C1840 C1834 1.379 . S
C1840 C1837 1.363 . S
C1840 N1838 1.356 . S
C1841 C1835 1.363 . S
C1841 C1836 1.379 . S
C1841 N1839 1.356 . S
N1842 C1834 1.356 . S
N1842 H1848 0.984 . S
N1842 H1849 0.984 . S
N1843 C1836 1.356 . S
N1843 H1846 0.984 . S
N1843 H1847 0.985 . S
H1844 N1839 0.984 . S
H1845 N1839 0.985 . S
H1846 N1843 0.984 . S
H1847 N1843 0.985 . S
H1848 N1842 0.984 . S
H1849 N1842 0.984 . S
H1850 N1838 0.984 . S
H1851 N1838 0.985 . S
C1852 C1853 1.363 . S
C1852 C1858 1.379 . S
C1852 N1860 1.356 . S
C1853 C1852 1.363 . S
C1853 C1859 1.363 . S
C1854 C1855 1.363 . S
C1854 C1859 1.379 . S
C1854 N1861 1.356 . S
C1855 C1854 1.363 . S
C1855 C1858 1.363 . S
N1856 C1858 1.356 . S
N1856 H1868 0.984 . S
N1856 H1869 0.985 . S
N1857 C1859 1.356 1_556 S
N1857 H1862 0.984 . S
N1857 H1863 0.985 . S
C1858 C1852 1.379 . S
C1858 C1855 1.363 . S
C1858 N1856 1.356 . S
C1859 C1853 1.363 . S
C1859 C1854 1.379 . S
C1859 N1857 1.356 1_554 S
N1860 C1852 1.356 . S
N1860 H1866 0.984 1_455 S
N1860 H1867 0.984 . S
N1861 C1854 1.356 . S
N1861 H1864 0.984 . S
N1861 H1865 0.985 . S
H1862 N1857 0.984 . S
H1863 N1857 0.985 . S
H1864 N1861 0.984 . S
H1865 N1861 0.985 . S
H1866 N1860 0.984 1_655 S
H1867 N1860 0.984 . S
H1868 N1856 0.984 . S
H1869 N1856 0.985 . S
C1870 C1871 1.364 1_655 S
C1870 C1876 1.379 . S
C1870 N1878 1.356 . S
C1871 C1870 1.364 1_455 S
C1871 C1877 1.363 . S
C1872 C1873 1.363 . S
C1872 C1877 1.379 1_655 S
C1872 N1879 1.356 . S
C1873 C1872 1.363 . S
C1873 C1876 1.363 . S
N1874 C1876 1.356 . S
N1874 H1886 0.984 . S
N1874 H1887 0.985 . S
N1875 C1877 1.356 . S
N1875 H1880 0.984 . S
N1875 H1881 0.985 . S
C1876 C1870 1.379 . S
C1876 C1873 1.363 . S
C1876 N1874 1.356 . S
C1877 C1871 1.363 . S
C1877 C1872 1.379 1_455 S
C1877 N1875 1.356 . S
N1878 C1870 1.356 . S
N1878 H1884 0.984 . S
N1878 H1885 0.984 . S
N1879 C1872 1.356 . S
N1879 H1882 0.984 . S
N1879 H1883 0.985 . S
H1880 N1875 0.984 . S
H1881 N1875 0.985 . S
H1882 N1879 0.984 . S
H1883 N1879 0.985 . S
H1884 N1878 0.984 . S
H1885 N1878 0.984 . S
H1886 N1874 0.984 . S
H1887 N1874 0.985 . S
C1888 C1889 1.363 . S
C1888 C1894 1.379 . S
C1888 N1896 1.356 . S
C1889 C1888 1.363 . S
C1889 C1895 1.363 . S
C1890 C1891 1.363 . S
C1890 C1895 1.379 . S
C1890 N1897 1.356 . S
C1891 C1890 1.363 . S
C1891 C1894 1.363 . S
N1892 C1894 1.356 . S
N1892 H1904 0.984 . S
N1892 H1905 0.985 . S
N1893 C1895 1.356 . S
N1893 H1898 0.984 . S
N1893 H1899 0.985 . S
C1894 C1888 1.379 . S
C1894 C1891 1.363 . S
C1894 N1892 1.356 . S
C1895 C1889 1.363 . S
C1895 C1890 1.379 . S
C1895 N1893 1.356 . S
N1896 C1888 1.356 . S
N1896 H1902 0.984 . S
N1896 H1903 0.984 . S
N1897 C1890 1.356 . S
N1897 H1900 0.984 . S
N1897 H1901 0.985 . S
H1898 N1893 0.984 . S
H1899 N1893 0.985 . S
H1900 N1897 0.984 . S
H1901 N1897 0.985 . S
H1902 N1896 0.984 . S
H1903 N1896 0.984 . S
H1904 N1892 0.984 . S
H1905 N1892 0.985 . S
C1906 C1907 1.363 . S
C1906 C1912 1.379 . S
C1906 N1914 1.356 . S
C1907 C1906 1.363 . S
C1907 C1913 1.363 . S
C1908 C1909 1.363 . S
C1908 C1913 1.379 . S
C1908 N1915 1.356 . S
C1909 C1908 1.363 . S
C1909 C1912 1.363 . S
N1910 C1912 1.356 . S
N1910 H1922 0.984 . S
N1910 H1923 0.985 . S
N1911 C1913 1.356 . S
N1911 H1916 0.984 . S
N1911 H1917 0.985 . S
C1912 C1906 1.379 . S
C1912 C1909 1.363 . S
C1912 N1910 1.356 . S
C1913 C1907 1.363 . S
C1913 C1908 1.379 . S
C1913 N1911 1.356 . S
N1914 C1906 1.356 . S
N1914 H1920 0.984 . S
N1914 H1921 0.984 . S
N1915 C1908 1.356 . S
N1915 H1918 0.984 . S
N1915 H1919 0.985 . S
H1916 N1911 0.984 . S
H1917 N1911 0.985 . S
H1918 N1915 0.984 . S
H1919 N1915 0.985 . S
H1920 N1914 0.984 . S
H1921 N1914 0.984 . S
H1922 N1910 0.984 . S
H1923 N1910 0.985 . S
C1924 C1925 1.363 . S
C1924 C1930 1.379 . S
C1924 N1932 1.356 . S
C1925 C1924 1.363 . S
C1925 C1931 1.363 . S
C1926 C1927 1.363 . S
C1926 C1931 1.379 . S
C1926 N1933 1.356 . S
C1927 C1926 1.363 . S
C1927 C1930 1.363 . S
N1928 C1930 1.356 . S
N1928 H1940 0.984 . S
N1928 H1941 0.985 . S
N1929 C1931 1.356 . S
N1929 H1934 0.984 . S
N1929 H1935 0.985 . S
C1930 C1924 1.379 . S
C1930 C1927 1.363 . S
C1930 N1928 1.356 . S
C1931 C1925 1.363 . S
C1931 C1926 1.379 . S
C1931 N1929 1.356 . S
N1932 C1924 1.356 . S
N1932 H1938 0.984 . S
N1932 H1939 0.984 . S
N1933 C1926 1.356 . S
N1933 H1936 0.984 . S
N1933 H1937 0.985 . S
H1934 N1929 0.984 . S
H1935 N1929 0.985 . S
H1936 N1933 0.984 . S
H1937 N1933 0.985 . S
H1938 N1932 0.984 . S
H1939 N1932 0.984 . S
H1940 N1928 0.984 . S
H1941 N1928 0.985 . S
C1942 C1943 1.363 . S
C1942 C1948 1.379 . S
C1942 N1950 1.356 . S
C1943 C1942 1.363 . S
C1943 C1949 1.363 . S
C1944 C1945 1.363 . S
C1944 C1949 1.379 . S
C1944 N1951 1.356 . S
C1945 C1944 1.363 . S
C1945 C1948 1.363 . S
N1946 C1948 1.356 . S
N1946 H1958 0.984 . S
N1946 H1959 0.985 . S
N1947 C1949 1.356 . S
N1947 H1952 0.984 . S
N1947 H1953 0.985 . S
C1948 C1942 1.379 . S
C1948 C1945 1.363 . S
C1948 N1946 1.356 . S
C1949 C1943 1.363 . S
C1949 C1944 1.379 . S
C1949 N1947 1.356 . S
N1950 C1942 1.356 . S
N1950 H1956 0.984 . S
N1950 H1957 0.984 . S
N1951 C1944 1.356 . S
N1951 H1954 0.984 . S
N1951 H1955 0.985 . S
H1952 N1947 0.984 . S
H1953 N1947 0.985 . S
H1954 N1951 0.984 . S
H1955 N1951 0.985 . S
H1956 N1950 0.984 . S
H1957 N1950 0.984 . S
H1958 N1946 0.984 . S
H1959 N1946 0.985 . S
C1960 C1961 1.363 . S
C1960 C1966 1.379 . S
C1960 N1968 1.356 . S
C1961 C1960 1.363 . S
C1961 C1967 1.363 . S
C1962 C1963 1.363 . S
C1962 C1967 1.379 . S
C1962 N1969 1.356 . S
C1963 C1962 1.363 . S
C1963 C1966 1.363 . S
N1964 C1966 1.356 . S
N1964 H1976 0.984 . S
N1964 H1977 0.985 . S
N1965 C1967 1.356 . S
N1965 H1970 0.984 . S
N1965 H1971 0.985 . S
C1966 C1960 1.379 . S
C1966 C1963 1.363 . S
C1966 N1964 1.356 . S
C1967 C1961 1.363 . S
C1967 C1962 1.379 . S
C1967 N1965 1.356 . S
N1968 C1960 1.356 . S
N1968 H1974 0.984 . S
N1968 H1975 0.984 . S
N1969 C1962 1.356 . S
N1969 H1972 0.984 . S
N1969 H1973 0.985 . S
H1970 N1965 0.984 . S
H1971 N1965 0.985 . S
H1972 N1969 0.984 . S
H1973 N1969 0.985 . S
H1974 N1968 0.984 . S
H1975 N1968 0.984 . S
H1976 N1964 0.984 . S
H1977 N1964 0.985 . S
C1978 C1979 1.363 . S
C1978 C1984 1.379 . S
C1978 N1986 1.356 . S
C1979 C1978 1.363 . S
C1979 C1985 1.363 . S
C1980 C1981 1.363 . S
C1980 C1985 1.379 . S
C1980 N1987 1.356 . S
C1981 C1980 1.363 . S
C1981 C1984 1.363 . S
N1982 C1984 1.356 . S
N1982 H1994 0.984 . S
N1982 H1995 0.985 . S
N1983 C1985 1.356 . S
N1983 H1988 0.984 . S
N1983 H1989 0.985 . S
C1984 C1978 1.379 . S
C1984 C1981 1.363 . S
C1984 N1982 1.356 . S
C1985 C1979 1.363 . S
C1985 C1980 1.379 . S
C1985 N1983 1.356 . S
N1986 C1978 1.356 . S
N1986 H1992 0.984 . S
N1986 H1993 0.984 . S
N1987 C1980 1.356 . S
N1987 H1990 0.982 1_554 S
N1987 H1991 0.985 1_554 S
H1988 N1983 0.984 . S
H1989 N1983 0.985 . S
H1990 N1987 0.982 1_556 S
H1991 N1987 0.985 1_556 S
H1992 N1986 0.984 . S
H1993 N1986 0.984 . S
H1994 N1982 0.984 . S
H1995 N1982 0.985 . S
C1996 C1997 1.363 . S
C1996 C2002 1.379 . S
C1996 N2004 1.356 . S
C1997 C1996 1.363 . S
C1997 C2003 1.363 . S
C1998 C1999 1.363 . S
C1998 C2003 1.379 . S
C1998 N2005 1.356 . S
C1999 C1998 1.363 . S
C1999 C2002 1.363 . S
N2000 C2002 1.356 . S
N2000 H2012 0.984 . S
N2000 H2013 0.985 . S
N2001 C2003 1.356 . S
N2001 H2006 0.984 . S
N2001 H2007 0.985 . S
C2002 C1996 1.379 . S
C2002 C1999 1.363 . S
C2002 N2000 1.356 . S
C2003 C1997 1.363 . S
C2003 C1998 1.379 . S
C2003 N2001 1.356 . S
N2004 C1996 1.356 . S
N2004 H2010 0.984 . S
N2004 H2011 0.984 . S
N2005 C1998 1.356 . S
N2005 H2008 0.984 . S
N2005 H2009 0.985 . S
H2006 N2001 0.984 . S
H2007 N2001 0.985 . S
H2008 N2005 0.984 . S
H2009 N2005 0.985 . S
H2010 N2004 0.984 . S
H2011 N2004 0.984 . S
H2012 N2000 0.984 . S
H2013 N2000 0.985 . S
C2014 C2015 1.363 . S
C2014 C2020 1.379 . S
C2014 N2022 1.356 . S
C2015 C2014 1.363 . S
C2015 C2021 1.363 . S
C2016 C2017 1.363 . S
C2016 C2021 1.379 . S
C2016 N2023 1.356 . S
C2017 C2016 1.363 . S
C2017 C2020 1.363 . S
N2018 C2020 1.356 . S
N2018 H2030 0.984 . S
N2018 H2031 0.985 . S
N2019 C2021 1.356 . S
N2019 H2024 0.984 . S
N2019 H2025 0.985 . S
C2020 C2014 1.379 . S
C2020 C2017 1.363 . S
C2020 N2018 1.356 . S
C2021 C2015 1.363 . S
C2021 C2016 1.379 . S
C2021 N2019 1.356 . S
N2022 C2014 1.356 . S
N2022 H2028 0.984 . S
N2022 H2029 0.984 . S
N2023 C2016 1.356 . S
N2023 H2026 0.984 . S
N2023 H2027 0.985 . S
H2024 N2019 0.984 . S
H2025 N2019 0.985 . S
H2026 N2023 0.984 . S
H2027 N2023 0.985 . S
H2028 N2022 0.984 . S
H2029 N2022 0.984 . S
H2030 N2018 0.984 . S
H2031 N2018 0.985 . S
C2032 C2033 1.363 . S
C2032 C2038 1.379 . S
C2032 N2040 1.356 . S
C2033 C2032 1.363 . S
C2033 C2039 1.363 . S
C2034 C2035 1.363 . S
C2034 C2039 1.379 . S
C2034 N2041 1.356 . S
C2035 C2034 1.363 . S
C2035 C2038 1.363 . S
N2036 C2038 1.356 . S
N2036 H2048 0.984 . S
N2036 H2049 0.985 . S
N2037 C2039 1.356 . S
N2037 H2042 0.984 . S
N2037 H2043 0.985 . S
C2038 C2032 1.379 . S
C2038 C2035 1.363 . S
C2038 N2036 1.356 . S
C2039 C2033 1.363 . S
C2039 C2034 1.379 . S
C2039 N2037 1.356 . S
N2040 C2032 1.356 . S
N2040 H2046 0.984 . S
N2040 H2047 0.984 . S
N2041 C2034 1.356 . S
N2041 H2044 0.984 1_556 S
N2041 H2045 0.996 . S
H2042 N2037 0.984 . S
H2043 N2037 0.985 . S
H2044 N2041 0.984 1_554 S
H2045 N2041 0.996 . S
H2046 N2040 0.984 . S
H2047 N2040 0.984 . S
H2048 N2036 0.984 . S
H2049 N2036 0.985 . S
C2050 C2051 1.363 . S
C2050 C2056 1.379 . S
C2050 N2058 1.356 . S
C2051 C2050 1.363 . S
C2051 C2057 1.363 . S
C2052 C2053 1.363 . S
C2052 C2057 1.379 . S
C2052 N2059 1.356 . S
C2053 C2052 1.363 . S
C2053 C2056 1.363 . S
N2054 C2056 1.356 . S
N2054 H2066 0.984 . S
N2054 H2067 0.985 . S
N2055 C2057 1.356 . S
N2055 H2060 0.984 . S
N2055 H2061 0.985 . S
C2056 C2050 1.379 . S
C2056 C2053 1.363 . S
C2056 N2054 1.356 . S
C2057 C2051 1.363 . S
C2057 C2052 1.379 . S
C2057 N2055 1.356 . S
N2058 C2050 1.356 . S
N2058 H2064 0.984 . S
N2058 H2065 0.984 . S
N2059 C2052 1.356 . S
N2059 H2062 0.984 . S
N2059 H2063 0.985 . S
H2060 N2055 0.984 . S
H2061 N2055 0.985 . S
H2062 N2059 0.984 . S
H2063 N2059 0.985 . S
H2064 N2058 0.984 . S
H2065 N2058 0.984 . S
H2066 N2054 0.984 . S
H2067 N2054 0.985 . S
C2068 C2069 1.363 . S
C2068 C2074 1.379 . S
C2068 N2076 1.356 . S
C2069 C2068 1.363 . S
C2069 C2075 1.363 . S
C2070 C2071 1.363 . S
C2070 C2075 1.379 . S
C2070 N2077 1.356 . S
C2071 C2070 1.363 . S
C2071 C2074 1.363 . S
N2072 C2074 1.356 . S
N2072 H2084 0.984 . S
N2072 H2085 0.985 . S
N2073 C2075 1.356 . S
N2073 H2078 0.984 . S
N2073 H2079 0.985 . S
C2074 C2068 1.379 . S
C2074 C2071 1.363 . S
C2074 N2072 1.356 . S
C2075 C2069 1.363 . S
C2075 C2070 1.379 . S
C2075 N2073 1.356 . S
N2076 C2068 1.356 . S
N2076 H2082 0.984 . S
N2076 H2083 0.984 . S
N2077 C2070 1.356 . S
N2077 H2080 0.984 . S
N2077 H2081 0.985 . S
H2078 N2073 0.984 . S
H2079 N2073 0.985 . S
H2080 N2077 0.984 . S
H2081 N2077 0.985 . S
H2082 N2076 0.984 . S
H2083 N2076 0.984 . S
H2084 N2072 0.984 . S
H2085 N2072 0.985 . S
C2086 C2087 1.363 . S
C2086 C2092 1.379 . S
C2086 N2094 1.356 . S
C2087 C2086 1.363 . S
C2087 C2093 1.363 . S
C2088 C2089 1.363 . S
C2088 C2093 1.379 . S
C2088 N2095 1.356 . S
C2089 C2088 1.363 . S
C2089 C2092 1.363 . S
N2090 C2092 1.356 . S
N2090 H2102 0.984 . S
N2090 H2103 0.985 . S
N2091 C2093 1.356 . S
N2091 H2096 0.984 . S
N2091 H2097 0.985 . S
C2092 C2086 1.379 . S
C2092 C2089 1.363 . S
C2092 N2090 1.356 . S
C2093 C2087 1.363 . S
C2093 C2088 1.379 . S
C2093 N2091 1.356 . S
N2094 C2086 1.356 . S
N2094 H2100 0.984 . S
N2094 H2101 0.984 . S
N2095 C2088 1.356 . S
N2095 H2098 0.984 . S
N2095 H2099 0.985 . S
H2096 N2091 0.984 . S
H2097 N2091 0.985 . S
H2098 N2095 0.984 . S
H2099 N2095 0.985 . S
H2100 N2094 0.984 . S
H2101 N2094 0.984 . S
H2102 N2090 0.984 . S
H2103 N2090 0.985 . S
C2104 C2105 1.363 . S
C2104 C2110 1.379 . S
C2104 N2112 1.356 . S
C2105 C2104 1.363 . S
C2105 C2111 1.363 . S
C2106 C2107 1.363 . S
C2106 C2111 1.379 . S
C2106 N2113 1.356 . S
C2107 C2106 1.363 . S
C2107 C2110 1.363 . S
N2108 C2110 1.356 . S
N2108 H2120 0.984 . S
N2108 H2121 0.985 . S
N2109 C2111 1.356 . S
N2109 H2114 0.984 . S
N2109 H2115 0.985 . S
C2110 C2104 1.379 . S
C2110 C2107 1.363 . S
C2110 N2108 1.356 . S
C2111 C2105 1.363 . S
C2111 C2106 1.379 . S
C2111 N2109 1.356 . S
N2112 C2104 1.356 . S
N2112 H2118 0.984 . S
N2112 H2119 0.984 . S
N2113 C2106 1.356 . S
N2113 H2116 0.984 . S
N2113 H2117 0.985 . S
H2114 N2109 0.984 . S
H2115 N2109 0.985 . S
H2116 N2113 0.984 . S
H2117 N2113 0.985 . S
H2118 N2112 0.984 . S
H2119 N2112 0.984 . S
H2120 N2108 0.984 . S
H2121 N2108 0.985 . S
C2122 C2123 1.363 . S
C2122 C2128 1.379 . S
C2122 N2130 1.356 . S
C2123 C2122 1.363 . S
C2123 C2129 1.363 . S
C2124 C2125 1.363 . S
C2124 C2129 1.379 . S
C2124 N2131 1.356 . S
C2125 C2124 1.363 . S
C2125 C2128 1.363 . S
N2126 C2128 1.356 . S
N2126 H2138 0.984 . S
N2126 H2139 0.985 . S
N2127 C2129 1.356 . S
N2127 H2132 0.984 . S
N2127 H2133 0.985 . S
C2128 C2122 1.379 . S
C2128 C2125 1.363 . S
C2128 N2126 1.356 . S
C2129 C2123 1.363 . S
C2129 C2124 1.379 . S
C2129 N2127 1.356 . S
N2130 C2122 1.356 . S
N2130 H2136 0.984 . S
N2130 H2137 0.984 . S
N2131 C2124 1.356 . S
N2131 H2134 0.984 . S
N2131 H2135 0.985 . S
H2132 N2127 0.984 . S
H2133 N2127 0.985 . S
H2134 N2131 0.984 . S
H2135 N2131 0.985 . S
H2136 N2130 0.984 . S
H2137 N2130 0.984 . S
H2138 N2126 0.984 . S
H2139 N2126 0.985 . S
C2140 C2141 1.363 . S
C2140 C2146 1.379 . S
C2140 N2148 1.356 . S
C2141 C2140 1.363 . S
C2141 C2147 1.363 . S
C2142 C2143 1.363 . S
C2142 C2147 1.379 . S
C2142 N2149 1.356 . S
C2143 C2142 1.363 . S
C2143 C2146 1.363 . S
N2144 C2146 1.356 . S
N2144 H2156 0.984 . S
N2144 H2157 0.985 . S
N2145 C2147 1.356 1_545 S
N2145 H2150 0.984 . S
N2145 H2151 0.985 . S
C2146 C2140 1.379 . S
C2146 C2143 1.363 . S
C2146 N2144 1.356 . S
C2147 C2141 1.363 . S
C2147 C2142 1.379 . S
C2147 N2145 1.356 1_565 S
N2148 C2140 1.356 . S
N2148 H2154 0.984 . S
N2148 H2155 0.968 1_565 S
N2149 C2142 1.356 . S
N2149 H2152 0.984 . S
N2149 H2153 0.985 . S
H2150 N2145 0.984 . S
H2151 N2145 0.985 . S
H2152 N2149 0.984 . S
H2153 N2149 0.985 . S
H2154 N2148 0.984 . S
H2155 N2148 0.968 1_545 S
H2156 N2144 0.984 . S
H2157 N2144 0.985 . S
C2158 C2159 1.363 . S
C2158 C2164 1.379 . S
C2158 N2166 1.356 . S
C2159 C2158 1.363 . S
C2159 C2165 1.363 1_554 S
C2160 C2161 1.363 1_556 S
C2160 C2165 1.379 . S
C2160 N2167 1.356 . S
C2161 C2160 1.363 1_554 S
C2161 C2164 1.363 . S
N2162 C2164 1.356 . S
N2162 H2174 0.984 . S
N2162 H2175 0.985 . S
N2163 C2165 1.356 . S
N2163 H2168 0.984 . S
N2163 H2169 0.985 . S
C2164 C2158 1.379 . S
C2164 C2161 1.363 . S
C2164 N2162 1.356 . S
C2165 C2159 1.363 1_556 S
C2165 C2160 1.379 . S
C2165 N2163 1.356 . S
N2166 C2158 1.356 . S
N2166 H2172 0.984 . S
N2166 H2173 0.984 . S
N2167 C2160 1.356 . S
N2167 H2170 0.984 . S
N2167 H2171 0.985 . S
H2168 N2163 0.984 . S
H2169 N2163 0.985 . S
H2170 N2167 0.984 . S
H2171 N2167 0.985 . S
H2172 N2166 0.984 . S
H2173 N2166 0.984 . S
H2174 N2162 0.984 . S
H2175 N2162 0.985 . S
C2176 C2177 1.363 . S
C2176 C2182 1.379 . S
C2176 N2184 1.356 . S
C2177 C2176 1.363 . S
C2177 C2183 1.363 . S
C2178 C2179 1.363 . S
C2178 C2183 1.379 . S
C2178 N2185 1.356 . S
C2179 C2178 1.363 . S
C2179 C2182 1.363 . S
N2180 C2182 1.356 . S
N2180 H2192 0.984 . S
N2180 H2193 0.985 . S
N2181 C2183 1.356 . S
N2181 H2186 0.984 . S
N2181 H2187 0.985 . S
C2182 C2176 1.379 . S
C2182 C2179 1.363 . S
C2182 N2180 1.356 . S
C2183 C2177 1.363 . S
C2183 C2178 1.379 . S
C2183 N2181 1.356 . S
N2184 C2176 1.356 . S
N2184 H2190 0.984 . S
N2184 H2191 0.984 . S
N2185 C2178 1.356 . S
N2185 H2188 0.984 . S
N2185 H2189 0.985 . S
H2186 N2181 0.984 . S
H2187 N2181 0.985 . S
H2188 N2185 0.984 . S
H2189 N2185 0.985 . S
H2190 N2184 0.984 . S
H2191 N2184 0.984 . S
H2192 N2180 0.984 . S
H2193 N2180 0.985 . S
C2194 C2195 1.363 . S
C2194 C2200 1.379 . S
C2194 N2202 1.356 . S
C2195 C2194 1.363 . S
C2195 C2201 1.363 . S
C2196 C2197 1.363 . S
C2196 C2201 1.379 . S
C2196 N2203 1.356 . S
C2197 C2196 1.363 . S
C2197 C2200 1.363 . S
N2198 C2200 1.356 . S
N2198 H2210 0.984 . S
N2198 H2211 0.985 . S
N2199 C2201 1.356 . S
N2199 H2204 0.984 . S
N2199 H2205 0.985 . S
C2200 C2194 1.379 . S
C2200 C2197 1.363 . S
C2200 N2198 1.356 . S
C2201 C2195 1.363 . S
C2201 C2196 1.379 . S
C2201 N2199 1.356 . S
N2202 C2194 1.356 . S
N2202 H2208 0.984 . S
N2202 H2209 0.984 . S
N2203 C2196 1.356 . S
N2203 H2206 0.984 . S
N2203 H2207 0.985 . S
H2204 N2199 0.984 . S
H2205 N2199 0.985 . S
H2206 N2203 0.984 . S
H2207 N2203 0.985 . S
H2208 N2202 0.984 . S
H2209 N2202 0.984 . S
H2210 N2198 0.984 . S
H2211 N2198 0.985 . S
C2212 C2213 1.363 . S
C2212 C2218 1.379 . S
C2212 N2220 1.356 . S
C2213 C2212 1.363 . S
C2213 C2219 1.363 . S
C2214 C2215 1.363 . S
C2214 C2219 1.379 . S
C2214 N2221 1.356 . S
C2215 C2214 1.363 . S
C2215 C2218 1.363 . S
N2216 C2218 1.356 . S
N2216 H2228 0.984 . S
N2216 H2229 0.985 . S
N2217 C2219 1.356 . S
N2217 H2222 0.984 . S
N2217 H2223 0.985 . S
C2218 C2212 1.379 . S
C2218 C2215 1.363 . S
C2218 N2216 1.356 . S
C2219 C2213 1.363 . S
C2219 C2214 1.379 . S
C2219 N2217 1.356 . S
N2220 C2212 1.356 . S
N2220 H2226 0.984 . S
N2220 H2227 0.984 . S
N2221 C2214 1.356 . S
N2221 H2224 0.984 . S
N2221 H2225 0.985 . S
H2222 N2217 0.984 . S
H2223 N2217 0.985 . S
H2224 N2221 0.984 . S
H2225 N2221 0.985 . S
H2226 N2220 0.984 . S
H2227 N2220 0.984 . S
H2228 N2216 0.984 . S
H2229 N2216 0.985 . S
C2230 C2231 1.363 . S
C2230 C2236 1.379 . S
C2230 N2238 1.356 . S
C2231 C2230 1.363 . S
C2231 C2237 1.363 . S
C2232 C2233 1.363 . S
C2232 C2237 1.379 . S
C2232 N2239 1.356 . S
C2233 C2232 1.363 . S
C2233 C2236 1.363 . S
N2234 C2236 1.356 . S
N2234 H2246 0.984 . S
N2234 H2247 0.985 . S
N2235 C2237 1.356 . S
N2235 H2240 0.984 . S
N2235 H2241 0.985 . S
C2236 C2230 1.379 . S
C2236 C2233 1.363 . S
C2236 N2234 1.356 . S
C2237 C2231 1.363 . S
C2237 C2232 1.379 . S
C2237 N2235 1.356 . S
N2238 C2230 1.356 . S
N2238 H2244 0.984 . S
N2238 H2245 0.984 . S
N2239 C2232 1.356 . S
N2239 H2242 0.984 . S
N2239 H2243 0.985 . S
H2240 N2235 0.984 . S
H2241 N2235 0.985 . S
H2242 N2239 0.984 . S
H2243 N2239 0.985 . S
H2244 N2238 0.984 . S
H2245 N2238 0.984 . S
H2246 N2234 0.984 . S
H2247 N2234 0.985 . S
C2248 C2249 1.363 . S
C2248 C2254 1.379 . S
C2248 N2256 1.356 . S
C2249 C2248 1.363 . S
C2249 C2255 1.363 . S
C2250 C2251 1.363 . S
C2250 C2255 1.379 . S
C2250 N2257 1.356 . S
C2251 C2250 1.363 . S
C2251 C2254 1.363 . S
N2252 C2254 1.356 . S
N2252 H2264 0.984 . S
N2252 H2265 0.985 . S
N2253 C2255 1.356 . S
N2253 H2258 0.984 . S
N2253 H2259 0.985 . S
C2254 C2248 1.379 . S
C2254 C2251 1.363 . S
C2254 N2252 1.356 . S
C2255 C2249 1.363 . S
C2255 C2250 1.379 . S
C2255 N2253 1.356 . S
N2256 C2248 1.356 . S
N2256 H2262 0.984 . S
N2256 H2263 0.984 . S
N2257 C2250 1.356 . S
N2257 H2260 0.984 . S
N2257 H2261 0.985 . S
H2258 N2253 0.984 . S
H2259 N2253 0.985 . S
H2260 N2257 0.984 . S
H2261 N2257 0.985 . S
H2262 N2256 0.984 . S
H2263 N2256 0.984 . S
H2264 N2252 0.984 . S
H2265 N2252 0.985 . S
C2266 C2267 1.363 . S
C2266 C2272 1.379 . S
C2266 N2274 1.356 . S
C2267 C2266 1.363 . S
C2267 C2273 1.363 . S
C2268 C2269 1.363 . S
C2268 C2273 1.379 . S
C2268 N2275 1.356 . S
C2269 C2268 1.363 . S
C2269 C2272 1.363 . S
N2270 C2272 1.356 . S
N2270 H2282 0.984 . S
N2270 H2283 0.985 . S
N2271 C2273 1.356 . S
N2271 H2276 0.984 . S
N2271 H2277 0.985 . S
C2272 C2266 1.379 . S
C2272 C2269 1.363 . S
C2272 N2270 1.356 . S
C2273 C2267 1.363 . S
C2273 C2268 1.379 . S
C2273 N2271 1.356 . S
N2274 C2266 1.356 . S
N2274 H2280 0.984 . S
N2274 H2281 0.984 . S
N2275 C2268 1.356 . S
N2275 H2278 0.984 . S
N2275 H2279 0.985 . S
H2276 N2271 0.984 . S
H2277 N2271 0.985 . S
H2278 N2275 0.984 . S
H2279 N2275 0.985 . S
H2280 N2274 0.984 . S
H2281 N2274 0.984 . S
H2282 N2270 0.984 . S
H2283 N2270 0.985 . S
C2284 C2285 1.363 . S
C2284 C2290 1.379 . S
C2284 N2292 1.356 . S
C2285 C2284 1.363 . S
C2285 C2291 1.363 . S
C2286 C2287 1.363 . S
C2286 C2291 1.379 . S
C2286 N2293 1.356 . S
C2287 C2286 1.363 . S
C2287 C2290 1.363 . S
N2288 C2290 1.356 . S
N2288 H2300 0.984 . S
N2288 H2301 0.985 . S
N2289 C2291 1.356 . S
N2289 H2294 0.984 . S
N2289 H2295 0.985 . S
C2290 C2284 1.379 . S
C2290 C2287 1.363 . S
C2290 N2288 1.356 . S
C2291 C2285 1.363 . S
C2291 C2286 1.379 . S
C2291 N2289 1.356 . S
N2292 C2284 1.356 . S
N2292 H2298 0.984 . S
N2292 H2299 0.984 . S
N2293 C2286 1.356 . S
N2293 H2296 0.984 . S
N2293 H2297 0.985 . S
H2294 N2289 0.984 . S
H2295 N2289 0.985 . S
H2296 N2293 0.984 . S
H2297 N2293 0.985 . S
H2298 N2292 0.984 . S
H2299 N2292 0.984 . S
H2300 N2288 0.984 . S
H2301 N2288 0.985 . S
C2302 C2303 1.363 . S
C2302 C2308 1.379 . S
C2302 N2310 1.356 . S
C2303 C2302 1.363 . S
C2303 C2309 1.363 . S
C2304 C2305 1.363 . S
C2304 C2309 1.379 . S
C2304 N2311 1.356 . S
C2305 C2304 1.363 . S
C2305 C2308 1.363 . S
N2306 C2308 1.356 . S
N2306 H2318 0.984 . S
N2306 H2319 0.985 . S
N2307 C2309 1.356 . S
N2307 H2312 0.984 . S
N2307 H2313 0.985 . S
C2308 C2302 1.379 . S
C2308 C2305 1.363 . S
C2308 N2306 1.356 . S
C2309 C2303 1.363 . S
C2309 C2304 1.379 . S
C2309 N2307 1.356 . S
N2310 C2302 1.356 . S
N2310 H2316 0.984 1_556 S
N2310 H2317 0.984 . S
N2311 C2304 1.356 . S
N2311 H2314 0.984 . S
N2311 H2315 0.985 . S
H2312 N2307 0.984 . S
H2313 N2307 0.985 . S
H2314 N2311 0.984 . S
H2315 N2311 0.985 . S
H2316 N2310 0.984 1_554 S
H2317 N2310 0.984 . S
H2318 N2306 0.984 . S
H2319 N2306 0.985 . S
C2320 C2321 1.363 . S
C2320 C2326 1.379 . S
C2320 N2328 1.356 . S
C2321 C2320 1.363 . S
C2321 C2327 1.363 . S
C2322 C2323 1.363 . S
C2322 C2327 1.379 . S
C2322 N2329 1.356 1_556 S
C2323 C2322 1.363 . S
C2323 C2326 1.363 . S
N2324 C2326 1.356 . S
N2324 H2336 0.984 . S
N2324 H2337 0.985 . S
N2325 C2327 1.356 . S
N2325 H2330 0.984 . S
N2325 H2331 0.985 1_556 S
C2326 C2320 1.379 . S
C2326 C2323 1.363 . S
C2326 N2324 1.356 . S
C2327 C2321 1.363 . S
C2327 C2322 1.379 . S
C2327 N2325 1.356 . S
N2328 C2320 1.356 . S
N2328 H2334 0.984 . S
N2328 H2335 0.984 . S
N2329 C2322 1.356 1_554 S
N2329 H2332 0.984 . S
N2329 H2333 0.985 . S
H2330 N2325 0.984 . S
H2331 N2325 0.985 1_554 S
H2332 N2329 0.984 . S
H2333 N2329 0.985 . S
H2334 N2328 0.984 . S
H2335 N2328 0.984 . S
H2336 N2324 0.984 . S
H2337 N2324 0.985 . S
C2338 C2339 1.363 . S
C2338 C2344 1.379 . S
C2338 N2346 1.356 . S
C2339 C2338 1.363 . S
C2339 C2345 1.363 . S
C2340 C2341 1.363 . S
C2340 C2345 1.379 . S
C2340 N2347 1.356 . S
C2341 C2340 1.363 . S
C2341 C2344 1.363 . S
N2342 C2344 1.356 . S
N2342 H2354 0.984 . S
N2342 H2355 0.985 . S
N2343 C2345 1.356 . S
N2343 H2348 0.984 . S
N2343 H2349 0.985 . S
C2344 C2338 1.379 . S
C2344 C2341 1.363 . S
C2344 N2342 1.356 . S
C2345 C2339 1.363 . S
C2345 C2340 1.379 . S
C2345 N2343 1.356 . S
N2346 C2338 1.356 . S
N2346 H2352 0.984 . S
N2346 H2353 0.984 . S
N2347 C2340 1.356 . S
N2347 H2350 0.984 . S
N2347 H2351 0.985 . S
H2348 N2343 0.984 . S
H2349 N2343 0.985 . S
H2350 N2347 0.984 . S
H2351 N2347 0.985 . S
H2352 N2346 0.984 . S
H2353 N2346 0.984 . S
H2354 N2342 0.984 . S
H2355 N2342 0.985 . S
C2356 C2357 1.363 . S
C2356 C2362 1.379 . S
C2356 N2364 1.356 . S
C2357 C2356 1.363 . S
C2357 C2363 1.363 1_455 S
C2358 C2359 1.363 1_655 S
C2358 C2363 1.379 . S
C2358 N2365 1.356 . S
C2359 C2358 1.363 1_455 S
C2359 C2362 1.363 . S
N2360 C2362 1.356 . S
N2360 H2372 0.984 . S
N2360 H2373 0.985 . S
N2361 C2363 1.356 . S
N2361 H2366 0.984 . S
N2361 H2367 0.985 . S
C2362 C2356 1.379 . S
C2362 C2359 1.363 . S
C2362 N2360 1.356 . S
C2363 C2357 1.363 1_655 S
C2363 C2358 1.379 . S
C2363 N2361 1.356 . S
N2364 C2356 1.356 . S
N2364 H2370 0.984 . S
N2364 H2371 0.984 . S
N2365 C2358 1.356 . S
N2365 H2368 0.984 . S
N2365 H2369 0.985 . S
H2366 N2361 0.984 . S
H2367 N2361 0.985 . S
H2368 N2365 0.984 . S
H2369 N2365 0.985 . S
H2370 N2364 0.984 . S
H2371 N2364 0.984 . S
H2372 N2360 0.984 . S
H2373 N2360 0.985 . S
C2374 C2375 1.363 . S
C2374 C2380 1.379 . S
C2374 N2382 1.356 . S
C2375 C2374 1.363 . S
C2375 C2381 1.363 . S
C2376 C2377 1.363 . S
C2376 C2381 1.379 . S
C2376 N2383 1.356 . S
C2377 C2376 1.363 . S
C2377 C2380 1.363 . S
N2378 C2380 1.356 . S
N2378 H2390 0.984 . S
N2378 H2391 0.985 . S
N2379 C2381 1.356 . S
N2379 H2384 0.984 . S
N2379 H2385 0.985 . S
C2380 C2374 1.379 . S
C2380 C2377 1.363 . S
C2380 N2378 1.356 . S
C2381 C2375 1.363 . S
C2381 C2376 1.379 . S
C2381 N2379 1.356 . S
N2382 C2374 1.356 . S
N2382 H2388 0.984 . S
N2382 H2389 0.984 . S
N2383 C2376 1.356 . S
N2383 H2386 0.984 . S
N2383 H2387 0.985 . S
H2384 N2379 0.984 . S
H2385 N2379 0.985 . S
H2386 N2383 0.984 . S
H2387 N2383 0.985 . S
H2388 N2382 0.984 . S
H2389 N2382 0.984 . S
H2390 N2378 0.984 . S
H2391 N2378 0.985 . S
C2392 C2393 1.363 . S
C2392 C2398 1.379 . S
C2392 N2400 1.356 . S
C2393 C2392 1.363 . S
C2393 C2399 1.363 . S
C2394 C2395 1.363 . S
C2394 C2399 1.379 . S
C2394 N2401 1.356 . S
C2395 C2394 1.363 . S
C2395 C2398 1.363 . S
N2396 C2398 1.356 . S
N2396 H2408 0.984 . S
N2396 H2409 0.985 . S
N2397 C2399 1.356 . S
N2397 H2402 0.984 . S
N2397 H2403 0.985 . S
C2398 C2392 1.379 . S
C2398 C2395 1.363 . S
C2398 N2396 1.356 . S
C2399 C2393 1.363 . S
C2399 C2394 1.379 . S
C2399 N2397 1.356 . S
N2400 C2392 1.356 . S
N2400 H2406 0.984 . S
N2400 H2407 0.984 . S
N2401 C2394 1.356 . S
N2401 H2404 0.984 . S
N2401 H2405 0.985 . S
H2402 N2397 0.984 . S
H2403 N2397 0.985 . S
H2404 N2401 0.984 . S
H2405 N2401 0.985 . S
H2406 N2400 0.984 . S
H2407 N2400 0.984 . S
H2408 N2396 0.984 . S
H2409 N2396 0.985 . S
C2410 C2411 1.363 . S
C2410 C2416 1.379 . S
C2410 N2418 1.356 . S
C2411 C2410 1.363 . S
C2411 C2417 1.363 . S
C2412 C2413 1.363 . S
C2412 C2417 1.379 . S
C2412 N2419 1.356 . S
C2413 C2412 1.363 . S
C2413 C2416 1.363 . S
N2414 C2416 1.356 . S
N2414 H2426 0.984 . S
N2414 H2427 0.985 . S
N2415 C2417 1.356 . S
N2415 H2420 0.984 . S
N2415 H2421 0.985 . S
C2416 C2410 1.379 . S
C2416 C2413 1.363 . S
C2416 N2414 1.356 . S
C2417 C2411 1.363 . S
C2417 C2412 1.379 . S
C2417 N2415 1.356 . S
N2418 C2410 1.356 . S
N2418 H2424 0.984 . S
N2418 H2425 0.984 . S
N2419 C2412 1.356 . S
N2419 H2422 0.984 . S
N2419 H2423 0.985 . S
H2420 N2415 0.984 . S
H2421 N2415 0.985 . S
H2422 N2419 0.984 . S
H2423 N2419 0.985 . S
H2424 N2418 0.984 . S
H2425 N2418 0.984 . S
H2426 N2414 0.984 . S
H2427 N2414 0.985 . S
C2428 C2429 1.363 . S
C2428 C2434 1.379 . S
C2428 N2436 1.356 . S
C2429 C2428 1.363 . S
C2429 C2435 1.363 . S
C2430 C2431 1.363 . S
C2430 C2435 1.379 . S
C2430 N2437 1.356 1_655 S
C2431 C2430 1.363 . S
C2431 C2434 1.363 . S
N2432 C2434 1.356 . S
N2432 H2444 0.984 . S
N2432 H2445 0.985 . S
N2433 C2435 1.356 . S
N2433 H2438 0.984 . S
N2433 H2439 0.985 . S
C2434 C2428 1.379 . S
C2434 C2431 1.363 . S
C2434 N2432 1.356 . S
C2435 C2429 1.363 . S
C2435 C2430 1.379 . S
C2435 N2433 1.356 . S
N2436 C2428 1.356 . S
N2436 H2442 0.984 . S
N2436 H2443 0.984 . S
N2437 C2430 1.356 1_455 S
N2437 H2440 0.984 1_556 S
N2437 H2441 0.985 . S
H2438 N2433 0.984 . S
H2439 N2433 0.985 . S
H2440 N2437 0.984 1_554 S
H2441 N2437 0.985 . S
H2442 N2436 0.984 . S
H2443 N2436 0.984 . S
H2444 N2432 0.984 . S
H2445 N2432 0.985 . S
C2446 C2447 1.363 . S
C2446 C2452 1.379 . S
C2446 N2454 1.356 . S
C2447 C2446 1.363 . S
C2447 C2453 1.363 . S
C2448 C2449 1.363 . S
C2448 C2453 1.379 . S
C2448 N2455 1.356 . S
C2449 C2448 1.363 . S
C2449 C2452 1.363 . S
N2450 C2452 1.356 . S
N2450 H2462 0.984 . S
N2450 H2463 0.985 . S
N2451 C2453 1.356 . S
N2451 H2456 0.984 . S
N2451 H2457 0.985 . S
C2452 C2446 1.379 . S
C2452 C2449 1.363 . S
C2452 N2450 1.356 . S
C2453 C2447 1.363 . S
C2453 C2448 1.379 . S
C2453 N2451 1.356 . S
N2454 C2446 1.356 . S
N2454 H2460 0.984 . S
N2454 H2461 0.984 . S
N2455 C2448 1.356 . S
N2455 H2458 0.984 . S
N2455 H2459 0.985 . S
H2456 N2451 0.984 . S
H2457 N2451 0.985 . S
H2458 N2455 0.984 . S
H2459 N2455 0.985 . S
H2460 N2454 0.984 . S
H2461 N2454 0.984 . S
H2462 N2450 0.984 . S
H2463 N2450 0.985 . S
C2464 C2465 1.363 . S
C2464 C2470 1.379 . S
C2464 N2472 1.356 . S
C2465 C2464 1.363 . S
C2465 C2471 1.363 . S
C2466 C2467 1.363 . S
C2466 C2471 1.379 . S
C2466 N2473 1.356 . S
C2467 C2466 1.363 . S
C2467 C2470 1.363 . S
N2468 C2470 1.356 . S
N2468 H2480 0.984 . S
N2468 H2481 0.985 . S
N2469 C2471 1.356 . S
N2469 H2474 0.984 . S
N2469 H2475 0.985 . S
C2470 C2464 1.379 . S
C2470 C2467 1.363 . S
C2470 N2468 1.356 . S
C2471 C2465 1.363 . S
C2471 C2466 1.379 . S
C2471 N2469 1.356 . S
N2472 C2464 1.356 . S
N2472 H2478 0.984 . S
N2472 H2479 0.984 . S
N2473 C2466 1.356 . S
N2473 H2476 0.984 . S
N2473 H2477 0.985 . S
H2474 N2469 0.984 . S
H2475 N2469 0.985 . S
H2476 N2473 0.984 . S
H2477 N2473 0.985 . S
H2478 N2472 0.984 . S
H2479 N2472 0.984 . S
H2480 N2468 0.984 . S
H2481 N2468 0.985 . S
C2482 C2483 1.363 . S
C2482 C2488 1.379 . S
C2482 N2490 1.356 . S
C2483 C2482 1.363 . S
C2483 C2489 1.363 . S
C2484 C2485 1.363 . S
C2484 C2489 1.379 . S
C2484 N2491 1.356 . S
C2485 C2484 1.363 . S
C2485 C2488 1.363 . S
N2486 C2488 1.356 . S
N2486 H2498 0.984 . S
N2486 H2499 0.985 . S
N2487 C2489 1.356 . S
N2487 H2492 0.984 . S
N2487 H2493 0.985 . S
C2488 C2482 1.379 . S
C2488 C2485 1.363 . S
C2488 N2486 1.356 . S
C2489 C2483 1.363 . S
C2489 C2484 1.379 . S
C2489 N2487 1.356 . S
N2490 C2482 1.356 . S
N2490 H2496 0.984 . S
N2490 H2497 0.984 . S
N2491 C2484 1.356 . S
N2491 H2494 0.984 . S
N2491 H2495 0.985 . S
H2492 N2487 0.984 . S
H2493 N2487 0.985 . S
H2494 N2491 0.984 . S
H2495 N2491 0.985 . S
H2496 N2490 0.984 . S
H2497 N2490 0.984 . S
H2498 N2486 0.984 . S
H2499 N2486 0.985 . S
C2500 C2501 1.363 . S
C2500 C2506 1.379 . S
C2500 N2508 1.356 . S
C2501 C2500 1.363 . S
C2501 C2507 1.363 . S
C2502 C2503 1.363 . S
C2502 C2507 1.379 . S
C2502 N2509 1.356 . S
C2503 C2502 1.363 . S
C2503 C2506 1.363 . S
N2504 C2506 1.356 . S
N2504 H2516 0.984 . S
N2504 H2517 0.985 . S
N2505 C2507 1.356 . S
N2505 H2510 0.984 . S
N2505 H2511 0.985 . S
C2506 C2500 1.379 . S
C2506 C2503 1.363 . S
C2506 N2504 1.356 . S
C2507 C2501 1.363 . S
C2507 C2502 1.379 . S
C2507 N2505 1.356 . S
N2508 C2500 1.356 . S
N2508 H2514 0.984 . S
N2508 H2515 0.984 . S
N2509 C2502 1.356 . S
N2509 H2512 0.984 . S
N2509 H2513 0.985 . S
H2510 N2505 0.984 . S
H2511 N2505 0.985 . S
H2512 N2509 0.984 . S
H2513 N2509 0.985 . S
H2514 N2508 0.984 . S
H2515 N2508 0.984 . S
H2516 N2504 0.984 . S
H2517 N2504 0.985 . S
C2518 C2519 1.363 . S
C2518 C2524 1.379 . S
C2518 N2526 1.356 . S
C2519 C2518 1.363 . S
C2519 C2525 1.363 . S
C2520 C2521 1.363 . S
C2520 C2525 1.379 . S
C2520 N2527 1.356 . S
C2521 C2520 1.363 . S
C2521 C2524 1.363 . S
N2522 C2524 1.356 . S
N2522 H2534 0.984 . S
N2522 H2535 0.985 . S
N2523 C2525 1.356 . S
N2523 H2528 0.984 . S
N2523 H2529 0.985 . S
C2524 C2518 1.379 . S
C2524 C2521 1.363 . S
C2524 N2522 1.356 . S
C2525 C2519 1.363 . S
C2525 C2520 1.379 . S
C2525 N2523 1.356 . S
N2526 C2518 1.356 . S
N2526 H2532 0.984 . S
N2526 H2533 0.984 . S
N2527 C2520 1.356 . S
N2527 H2530 0.984 . S
N2527 H2531 0.985 . S
H2528 N2523 0.984 . S
H2529 N2523 0.985 . S
H2530 N2527 0.984 . S
H2531 N2527 0.985 . S
H2532 N2526 0.984 . S
H2533 N2526 0.984 . S
H2534 N2522 0.984 . S
H2535 N2522 0.985 . S
C2536 C2537 1.363 . S
C2536 C2542 1.379 . S
C2536 N2544 1.356 . S
C2537 C2536 1.363 . S
C2537 C2543 1.363 . S
C2538 C2539 1.363 . S
C2538 C2543 1.379 . S
C2538 N2545 1.356 . S
C2539 C2538 1.363 . S
C2539 C2542 1.363 . S
N2540 C2542 1.356 . S
N2540 H2552 0.984 . S
N2540 H2553 0.985 . S
N2541 C2543 1.356 . S
N2541 H2546 0.984 . S
N2541 H2547 0.985 . S
C2542 C2536 1.379 . S
C2542 C2539 1.363 . S
C2542 N2540 1.356 . S
C2543 C2537 1.363 . S
C2543 C2538 1.379 . S
C2543 N2541 1.356 . S
N2544 C2536 1.356 . S
N2544 H2550 0.984 . S
N2544 H2551 0.984 . S
N2545 C2538 1.356 . S
N2545 H2548 0.984 . S
N2545 H2549 0.985 . S
H2546 N2541 0.984 . S
H2547 N2541 0.985 . S
H2548 N2545 0.984 . S
H2549 N2545 0.985 . S
H2550 N2544 0.984 . S
H2551 N2544 0.984 . S
H2552 N2540 0.984 . S
H2553 N2540 0.985 . S
C2554 C2555 1.363 . S
C2554 C2560 1.379 . S
C2554 N2562 1.356 . S
C2555 C2554 1.363 . S
C2555 C2561 1.363 . S
C2556 C2557 1.363 . S
C2556 C2561 1.379 . S
C2556 N2563 1.356 1_565 S
C2557 C2556 1.363 . S
C2557 C2560 1.363 . S
N2558 C2560 1.356 . S
N2558 H2570 0.984 . S
N2558 H2571 0.985 . S
N2559 C2561 1.356 . S
N2559 H2564 0.984 . S
N2559 H2565 0.985 1_565 S
C2560 C2554 1.379 . S
C2560 C2557 1.363 . S
C2560 N2558 1.356 . S
C2561 C2555 1.363 . S
C2561 C2556 1.379 . S
C2561 N2559 1.356 . S
N2562 C2554 1.356 . S
N2562 H2568 0.984 . S
N2562 H2569 0.984 . S
N2563 C2556 1.356 1_545 S
N2563 H2566 0.984 . S
N2563 H2567 0.985 . S
H2564 N2559 0.984 . S
H2565 N2559 0.985 1_545 S
H2566 N2563 0.984 . S
H2567 N2563 0.985 . S
H2568 N2562 0.984 . S
H2569 N2562 0.984 . S
H2570 N2558 0.984 . S
H2571 N2558 0.985 . S
C2572 C2573 1.363 . S
C2572 C2578 1.379 . S
C2572 N2580 1.356 . S
C2573 C2572 1.363 . S
C2573 C2579 1.363 . S
C2574 C2575 1.363 . S
C2574 C2579 1.379 . S
C2574 N2581 1.356 . S
C2575 C2574 1.363 . S
C2575 C2578 1.363 . S
N2576 C2578 1.356 . S
N2576 H2588 0.984 . S
N2576 H2589 0.985 . S
N2577 C2579 1.356 . S
N2577 H2582 0.984 . S
N2577 H2583 0.985 . S
C2578 C2572 1.379 . S
C2578 C2575 1.363 . S
C2578 N2576 1.356 . S
C2579 C2573 1.363 . S
C2579 C2574 1.379 . S
C2579 N2577 1.356 . S
N2580 C2572 1.356 . S
N2580 H2586 0.984 . S
N2580 H2587 0.984 . S
N2581 C2574 1.356 . S
N2581 H2584 0.984 . S
N2581 H2585 0.985 . S
H2582 N2577 0.984 . S
H2583 N2577 0.985 . S
H2584 N2581 0.984 . S
H2585 N2581 0.985 . S
H2586 N2580 0.984 . S
H2587 N2580 0.984 . S
H2588 N2576 0.984 . S
H2589 N2576 0.985 . S
C2590 C2591 1.363 . S
C2590 C2596 1.379 . S
C2590 N2598 1.356 . S
C2591 C2590 1.363 . S
C2591 C2597 1.363 . S
C2592 C2593 1.363 . S
C2592 C2597 1.379 . S
C2592 N2599 1.356 . S
C2593 C2592 1.363 . S
C2593 C2596 1.363 . S
N2594 C2596 1.356 . S
N2594 H2606 0.984 . S
N2594 H2607 0.985 . S
N2595 C2597 1.356 . S
N2595 H2600 0.984 . S
N2595 H2601 0.985 . S
C2596 C2590 1.379 . S
C2596 C2593 1.363 . S
C2596 N2594 1.356 . S
C2597 C2591 1.363 . S
C2597 C2592 1.379 . S
C2597 N2595 1.356 . S
N2598 C2590 1.356 . S
N2598 H2604 0.984 . S
N2598 H2605 0.984 . S
N2599 C2592 1.356 . S
N2599 H2602 0.984 . S
N2599 H2603 0.985 . S
H2600 N2595 0.984 . S
H2601 N2595 0.985 . S
H2602 N2599 0.984 . S
H2603 N2599 0.985 . S
H2604 N2598 0.984 . S
H2605 N2598 0.984 . S
H2606 N2594 0.984 . S
H2607 N2594 0.985 . S
C2608 C2609 1.363 . S
C2608 C2614 1.379 . S
C2608 N2616 1.356 . S
C2609 C2608 1.363 . S
C2609 C2615 1.363 . S
C2610 C2611 1.363 . S
C2610 C2615 1.379 . S
C2610 N2617 1.356 . S
C2611 C2610 1.363 . S
C2611 C2614 1.363 . S
N2612 C2614 1.356 . S
N2612 H2624 0.984 . S
N2612 H2625 0.985 . S
N2613 C2615 1.356 . S
N2613 H2618 0.984 . S
N2613 H2619 0.985 . S
C2614 C2608 1.379 . S
C2614 C2611 1.363 . S
C2614 N2612 1.356 . S
C2615 C2609 1.363 . S
C2615 C2610 1.379 . S
C2615 N2613 1.356 . S
N2616 C2608 1.356 . S
N2616 H2622 0.984 . S
N2616 H2623 0.984 . S
N2617 C2610 1.356 . S
N2617 H2620 0.984 . S
N2617 H2621 0.985 . S
H2618 N2613 0.984 . S
H2619 N2613 0.985 . S
H2620 N2617 0.984 . S
H2621 N2617 0.985 . S
H2622 N2616 0.984 . S
H2623 N2616 0.984 . S
H2624 N2612 0.984 . S
H2625 N2612 0.985 . S
C2626 C2627 1.363 . S
C2626 C2632 1.379 . S
C2626 N2634 1.356 . S
C2627 C2626 1.363 . S
C2627 C2633 1.363 . S
C2628 C2629 1.363 . S
C2628 C2633 1.379 . S
C2628 N2635 1.356 . S
C2629 C2628 1.363 . S
C2629 C2632 1.363 . S
N2630 C2632 1.356 . S
N2630 H2642 0.984 . S
N2630 H2643 0.985 . S
N2631 C2633 1.356 . S
N2631 H2636 0.984 . S
N2631 H2637 0.985 . S
C2632 C2626 1.379 . S
C2632 C2629 1.363 . S
C2632 N2630 1.356 . S
C2633 C2627 1.363 . S
C2633 C2628 1.379 . S
C2633 N2631 1.356 . S
N2634 C2626 1.356 . S
N2634 H2640 0.984 . S
N2634 H2641 0.984 . S
N2635 C2628 1.356 . S
N2635 H2638 0.984 . S
N2635 H2639 0.985 1_554 S
H2636 N2631 0.984 . S
H2637 N2631 0.985 . S
H2638 N2635 0.984 . S
H2639 N2635 0.985 1_556 S
H2640 N2634 0.984 . S
H2641 N2634 0.984 . S
H2642 N2630 0.984 . S
H2643 N2630 0.985 . S
C2644 C2645 1.363 . S
C2644 C2650 1.379 . S
C2644 N2652 1.356 . S
C2645 C2644 1.363 . S
C2645 C2651 1.363 . S
C2646 C2647 1.363 . S
C2646 C2651 1.379 . S
C2646 N2653 1.356 . S
C2647 C2646 1.363 . S
C2647 C2650 1.363 . S
N2648 C2650 1.356 . S
N2648 H2660 0.984 . S
N2648 H2661 0.985 . S
N2649 C2651 1.356 . S
N2649 H2654 0.984 . S
N2649 H2655 0.985 . S
C2650 C2644 1.379 . S
C2650 C2647 1.363 . S
C2650 N2648 1.356 . S
C2651 C2645 1.363 . S
C2651 C2646 1.379 . S
C2651 N2649 1.356 . S
N2652 C2644 1.356 . S
N2652 H2658 0.984 . S
N2652 H2659 0.984 . S
N2653 C2646 1.356 . S
N2653 H2656 0.984 . S
N2653 H2657 0.985 . S
H2654 N2649 0.984 . S
H2655 N2649 0.985 . S
H2656 N2653 0.984 . S
H2657 N2653 0.985 . S
H2658 N2652 0.984 . S
H2659 N2652 0.984 . S
H2660 N2648 0.984 . S
H2661 N2648 0.985 . S
C2662 C2663 1.363 . S
C2662 C2668 1.379 . S
C2662 N2670 1.356 . S
C2663 C2662 1.363 . S
C2663 C2669 1.363 . S
C2664 C2665 1.363 . S
C2664 C2669 1.379 . S
C2664 N2671 1.356 . S
C2665 C2664 1.363 . S
C2665 C2668 1.363 . S
N2666 C2668 1.356 . S
N2666 H2678 0.984 . S
N2666 H2679 0.985 . S
N2667 C2669 1.356 . S
N2667 H2672 0.984 . S
N2667 H2673 0.985 . S
C2668 C2662 1.379 . S
C2668 C2665 1.363 . S
C2668 N2666 1.356 . S
C2669 C2663 1.363 . S
C2669 C2664 1.379 . S
C2669 N2667 1.356 . S
N2670 C2662 1.356 . S
N2670 H2676 0.984 . S
N2670 H2677 0.984 . S
N2671 C2664 1.356 . S
N2671 H2674 0.984 . S
N2671 H2675 0.985 . S
H2672 N2667 0.984 . S
H2673 N2667 0.985 . S
H2674 N2671 0.984 . S
H2675 N2671 0.985 . S
H2676 N2670 0.984 . S
H2677 N2670 0.984 . S
H2678 N2666 0.984 . S
H2679 N2666 0.985 . S
C953 C101 2.480 . S
C955 C322 2.324 . S
C971 C57 1.961 . S
C973 C370 1.997 . S
C989 C70 1.377 . S
C991 C402 1.346 . S
C1009 C447 1.698 . S
C1007 C82 1.798 . S
C1025 C23 0.939 . S
C1027 C487 0.932 . S
C1045 C522 0.973 . S
C1043 C29 0.975 . S
C1063 C561 1.549 . S
C1061 C49 1.474 . S
C1079 C10 1.373 . S
C1081 C598 1.346 . S
C1099 C330 2.216 . S
C1097 C218 2.162 . S
C1115 C226 0.869 . S
C1117 C367 0.832 . S
C1135 C410 2.335 . S
C1133 C251 2.297 . S
C1153 C442 1.095 . S
C1151 C159 1.128 . S
C1169 C211 1.382 . S
C1171 C482 1.336 . S
C1189 C530 0.702 . S
C1187 C225 0.791 . S
C1207 C571 2.154 1_556 S
C1205 C252 2.244 . S
C1225 C601 2.112 . S
C1223 C166 2.097 . S
C1243 C327 2.223 . S
C1241 C147 2.266 . S
C1259 C263 2.069 . S
C1261 C650 2.096 . S
C1279 C687 1.408 . S
C1277 C309 1.426 . S
C1297 C718 1.313 . S
C1295 C291 1.388 . S
C1313 C108 2.738 . S
C1315 C611 2.702 . S
C1331 C121 1.485 . S
C1333 C407 1.444 . S
C1349 C302 1.749 . S
C1351 C770 1.881 . S
C1369 C802 1.880 . S
C1367 C276 1.903 . S
C1387 C331 2.313 . S
C1385 C55 2.391 . S
C1405 C801 2.275 . S
C1403 C96 2.285 . S
C1421 C88 1.638 . S
C1423 C411 1.629 . S
C1439 C75 1.873 . S
C1441 C758 1.791 . S
C1459 C478 1.080 . S
C1457 C4 1.088 . S
C1475 C44 1.486 . S
C1477 C691 1.511 . S
C1495 C570 1.336 . S
C1493 C31 1.321 . S
C1513 C847 1.442 . S
C1511 C18 1.443 . S
C1531 C321 2.297 . S
C1529 C133 2.271 . S
C1549 C798 0.895 . S
C1547 C296 0.912 . S
C1565 C107 2.505 . S
C1567 C401 2.490 . S
C1583 C264 1.418 . S
C1585 C771 1.412 . S
C1601 C140 1.635 . S
C1603 C491 1.614 . S
C1621 C681 0.760 . S
C1619 C289 0.760 . S
C1637 C114 2.451 . S
C1639 C562 2.372 . S
C1655 C265 2.131 1_556 S
C1657 C850 2.134 . S
C1673 C179 1.860 . S
C1675 C318 1.848 . S
C1691 C161 2.350 . S
C1693 C641 2.320 . S
C1709 C244 1.376 . S
C1711 C518 1.365 . S
C1727 C224 1.122 . S
C1729 C727 1.081 . S
C1747 C842 2.820 . S
C1745 C257 2.868 . S
C1763 C199 1.634 . S
C1765 C398 1.589 . S
C1783 C441 1.947 . S
C1781 C237 1.898 . S
C1801 C371 2.080 . S
C1799 C185 2.058 . S
C1817 C69 2.481 . S
C1819 C882 2.325 . S
C1837 C810 1.997 . S
C1835 C83 1.961 . S
C1853 C94 1.378 . S
C1855 C922 1.348 . S
C1871 C56 1.797 . S
C1873 C767 1.698 . S
C1889 C42 0.946 . S
C1891 C647 0.938 . S
C1909 C682 0.974 . S
C1907 C3 0.976 . S
C1927 C721 1.557 . S
C1925 C16 1.488 . S
C1945 C838 1.347 . S
C1943 C36 1.374 . S
C1963 C890 2.215 . S
C1961 C238 2.162 . S
C1979 C174 0.868 . S
C1981 C807 0.832 . S
C1999 C930 2.336 . S
C1997 C186 2.297 . S
C2017 C762 1.093 . S
C2015 C198 1.126 . S
C2035 C642 1.336 1_556 S
C2033 C239 1.383 . S
C2051 C173 0.790 . S
C2053 C690 0.703 . S
C2071 C731 2.156 . S
C2069 C187 2.247 . S
C2087 C205 2.097 . S
C2089 C841 2.112 . S
C2107 C887 2.220 . S
C2105 C290 2.262 . S
C2123 C122 2.070 . S
C2125 C490 2.096 . S
C2143 C527 1.408 . S
C2141 C134 1.426 1_565 S
C2161 C558 1.309 . S
C2159 C148 1.384 . S
C2179 C851 2.698 . S
C2177 C283 2.734 . S
C2195 C270 1.484 . S
C2197 C927 1.443 . S
C2215 C450 1.880 . S
C2213 C135 1.748 . S
C2233 C362 1.879 . S
C2231 C109 1.902 . S
C2249 C81 2.391 . S
C2251 C891 2.313 . S
C2269 C361 2.274 . S
C2267 C68 2.285 . S
C2285 C62 1.638 . S
C2287 C931 1.629 . S
C2303 C95 1.873 . S
C2305 C438 1.790 . S
C2321 C30 1.088 . S
C2323 C638 1.080 . S
C2341 C531 1.503 . S
C2339 C17 1.481 . S
C2357 C5 1.322 . S
C2359 C730 1.338 . S
C2375 C43 1.442 . S
C2377 C607 1.436 . S
C2395 C881 2.298 . S
C2393 C304 2.271 . S
C2411 C153 0.912 . S
C2413 C358 0.895 . S
C2431 C921 2.490 1_656 S
C2429 C278 2.505 . S
C2447 C127 1.417 . S
C2449 C451 1.411 . S
C2465 C303 1.633 . S
C2467 C651 1.612 . S
C2485 C521 0.760 . S
C2483 C146 0.759 . S
C2501 C277 2.446 . S
C2503 C722 2.368 1_655 S
C2521 C610 2.132 . S
C2519 C120 2.130 . S
C2539 C878 1.849 . S
C2537 C231 1.861 . S
C2557 C481 2.319 1_665 S
C2555 C200 2.349 . S
C2573 C212 1.377 . S
C2575 C678 1.366 . S
C2593 C567 1.083 . S
C2591 C172 1.124 . S
C2609 C192 2.866 . S
C2611 C602 2.818 . S
C2627 C160 1.634 . S
C2629 C918 1.589 . S
C2647 C761 1.948 . S
C2645 C213 1.899 . S
C2665 C811 2.081 . S
C2663 C250 2.059 . S
