# Generated by pormake.
# Topology pth, (4,4)-cn, num edge types: 1
# Building blocks:
#     Node 0, Type 0, BuildingBlock: UXUYUI_clean_sbu_0, # of connection points: 4
#     Node 1, Type 0, BuildingBlock: UXUYUI_clean_sbu_0, # of connection points: 4
#     Node 2, Type 0, BuildingBlock: UXUYUI_clean_sbu_0, # of connection points: 4
#     Node 3, Type 1, BuildingBlock: KOZSID_clean_sbu_0, # of connection points: 4
#     Node 4, Type 1, BuildingBlock: KOZSID_clean_sbu_0, # of connection points: 4
#     Node 5, Type 1, BuildingBlock: KOZSID_clean_sbu_0, # of connection points: 4
#     Edge 6, Type (0, 1), BuildingBlock: ZUJKAS_clean_linker_0, # of connection points: 2
#     Edge 7, Type (0, 1), BuildingBlock: ZUJKAS_clean_linker_0, # of connection points: 2
#     Edge 8, Type (0, 1), BuildingBlock: ZUJKAS_clean_linker_0, # of connection points: 2
#     Edge 9, Type (0, 1), BuildingBlock: ZUJKAS_clean_linker_0, # of connection points: 2
#     Edge 10, Type (0, 1), BuildingBlock: ZUJKAS_clean_linker_0, # of connection points: 2
#     Edge 11, Type (0, 1), BuildingBlock: ZUJKAS_clean_linker_0, # of connection points: 2
#     Edge 12, Type (0, 1), BuildingBlock: ZUJKAS_clean_linker_0, # of connection points: 2
#     Edge 13, Type (0, 1), BuildingBlock: ZUJKAS_clean_linker_0, # of connection points: 2
#     Edge 14, Type (0, 1), BuildingBlock: ZUJKAS_clean_linker_0, # of connection points: 2
#     Edge 15, Type (0, 1), BuildingBlock: ZUJKAS_clean_linker_0, # of connection points: 2
#     Edge 16, Type (0, 1), BuildingBlock: ZUJKAS_clean_linker_0, # of connection points: 2
#     Edge 17, Type (0, 1), BuildingBlock: ZUJKAS_clean_linker_0, # of connection points: 2
# Relax obj value: 0.074
# Max RMSD: 0.211
# Mean RMSD: 0.112
data_MOF--net-pth--node1-UXUYUI_clean_sbu_0--node2-KOZSID_clean_sbu_0--edge1-ZUJKAS_clean_linker_0
_symmetry_space_group_name_H-M    P1
_symmetry_Int_Tables_number       1
_symmetry_cell_setting            triclinic
loop_
_symmetry_equiv_pos_as_xyz
'x, y, z'
_cell_length_a     39.20222
_cell_length_b     39.208359
_cell_length_c     89.172125
_cell_angle_alpha  88.186929
_cell_angle_beta   88.214237
_cell_angle_gamma 119.9932
loop_
_atom_site_label
_atom_site_type_symbol
_atom_site_fract_x
_atom_site_fract_y
_atom_site_fract_z
_atom_type_partial_charge
Li0 Li 0.09104 0.07057 0.03088 0.0
Li1 Li 0.04368 0.06894 0.04982 0.0
Li2 Li 0.06138 0.01582 0.04931 0.0
Li3 Li 0.01901 0.01857 0.03066 0.0
C4 C 0.133 0.10064 0.05536 0.0
N5 N 0.20973 0.15868 0.05943 0.0
C6 C 0.14077 0.13661 0.06094 0.0
C7 C 0.1642 0.09399 0.05205 0.0
C8 C 0.17978 0.16564 0.06287 0.0
C9 C 0.2028 0.12376 0.05412 0.0
C10 C 0.02845 0.09728 0.02118 0.0
C11 C 0.97191 0.10098 0.01338 0.0
N12 N 0.99628 0.13838 0.00761 0.0
C13 C 0.05293 0.13557 0.01496 0.0
C14 C 0.9876 0.07968 0.02021 0.0
C15 C 0.03612 0.15593 0.00824 0.0
C16 C 0.1503 0.09515 0.00707 0.0
N17 N 0.13616 0.10704 0.01867 0.0
C18 C 0.18262 0.17463 0.012 0.0
C19 C 0.15181 0.14583 0.02132 0.0
C20 C 0.19722 0.1635 -0.00035 0.0
C21 C 0.1811 0.12308 0.99737 0.0
H22 H 0.13689 0.0641 0.00508 0.0
H23 H 0.13949 0.15452 0.03044 0.0
C24 C 0.02135 0.08969 0.07686 0.0
N25 N 0.03376 0.10181 0.06226 0.0
C26 C 0.01734 0.11474 0.08666 0.0
C27 C 0.03845 0.16397 0.06613 0.0
C28 C 0.04228 0.13811 0.05678 0.0
C29 C 0.02625 0.15256 0.08132 0.0
H30 H 0.01537 0.06085 0.08096 0.0
H31 H 0.0534 0.14758 0.04531 0.0
C32 C 0.07513 0.98409 0.02577 0.0
N33 N 0.09157 0.92353 0.02381 0.0
C34 C 0.04508 0.94597 0.02317 0.0
C35 C 0.11364 0.99153 0.02714 0.0
C36 C 0.05396 0.91572 0.02228 0.0
C37 C 0.12133 0.96049 0.02618 0.0
C38 C 0.97025 0.996 0.05801 0.0
C39 C 0.94985 0.9593 0.0659 0.0
C40 C 0.95158 0.01804 0.05579 0.0
C41 C 0.9108 0.94487 0.0711 0.0
C42 C 0.91253 0.00264 0.06118 0.0
N43 N 0.89308 0.96664 0.06864 0.0
C44 C 0.09746 0.98789 0.07026 0.0
C45 C 0.03681 0.94034 0.06088 0.0
C46 C 0.09827 0.95883 0.07952 0.0
N47 N 0.06684 0.97812 0.06128 0.0
C48 C 0.03637 0.9105 0.06992 0.0
C49 C 0.06709 0.91962 0.07957 0.0
H50 H 0.12076 0.01826 0.07048 0.0
H51 H 0.01286 0.9335 0.05363 0.0
C52 C 0.98045 0.99841 0.00348 0.0
N53 N 0.97753 0.98676 0.01821 0.0
C54 C 0.95246 0.97381 0.99368 0.0
C55 C 0.91888 0.92592 0.01445 0.0
C56 C 0.94756 0.95134 0.02381 0.0
C57 C 0.92136 0.93685 0.99913 0.0
H58 H 0.00502 0.02648 0.99928 0.0
H59 H 0.94671 0.94209 0.0354 0.0
O60 O 0.09502 0.07202 0.05327 0.0
O61 O 0.04457 0.07678 0.02765 0.0
O62 O 0.06689 0.01395 0.02695 0.0
O63 O 0.0086 0.01057 0.05289 0.0
H64 H 0.11699 0.14218 0.06368 0.0
H65 H 0.15869 0.06622 0.04787 0.0
H66 H 0.18624 0.1937 0.0671 0.0
H67 H 0.22724 0.11909 0.05151 0.0
H68 H 0.94035 0.08768 0.0126 0.0
H69 H 0.08459 0.14959 0.01538 0.0
H70 H 0.96812 0.0497 0.02447 0.0
H71 H 0.05475 0.18568 0.0035 0.0
H72 H 0.19446 0.20535 0.01434 0.0
H73 H 0.19116 0.11318 0.98789 0.0
H74 H 0.00771 0.10478 0.09828 0.0
H75 H 0.04639 0.19315 0.06165 0.0
H76 H 0.01515 0.93972 0.02202 0.0
H77 H 0.13733 0.02095 0.02893 0.0
H78 H 0.03094 0.88602 0.02039 0.0
H79 H 0.15097 0.96579 0.0273 0.0
H80 H 0.96393 0.94204 0.06796 0.0
H81 H 0.9672 0.04699 0.05019 0.0
H82 H 0.89461 0.9164 0.07713 0.0
H83 H 0.89776 0.01942 0.05951 0.0
H84 H 0.12234 0.96715 0.08689 0.0
H85 H 0.01209 0.88059 0.06942 0.0
H86 H 0.95536 0.9834 0.98195 0.0
H87 H 0.89591 0.89735 0.01905 0.0
Li88 Li 0.03122 0.02229 0.36369 0.0
Li89 Li 0.07611 0.06688 0.38236 0.0
Li90 Li 0.00801 0.04919 0.38281 0.0
Li91 Li 0.05185 0.09354 0.36304 0.0
C92 C 0.00671 0.99038 0.39782 0.0
N93 N 0.95891 0.94566 0.42247 0.0
C94 C 0.01961 0.00015 0.41232 0.0
C95 C 0.9697 0.95764 0.39584 0.0
C96 C 0.99497 0.97722 0.42465 0.0
C97 C 0.94591 0.93548 0.40845 0.0
C98 C 0.12293 0.09803 0.35542 0.0
C99 C 0.18028 0.1618 0.35811 0.0
N100 N 0.19845 0.156 0.34603 0.0
C101 C 0.14212 0.09269 0.34303 0.0
C102 C 0.1421 0.13284 0.36304 0.0
C103 C 0.18033 0.12235 0.33845 0.0
C104 C 0.01877 0.98275 0.33682 0.0
N105 N 0.02214 0.97981 0.35185 0.0
C106 C 0.01847 0.91751 0.34991 0.0
C107 C 0.02168 0.94796 0.35854 0.0
C108 C 0.0158 0.92001 0.33428 0.0
C109 C 0.01538 0.9529 0.32776 0.0
H110 H 0.01961 0.00871 0.33184 0.0
H111 H 0.02463 0.94664 0.37053 0.0
C112 C 0.1258 0.093 0.40696 0.0
N113 N 0.11924 0.07507 0.39372 0.0
C114 C 0.15561 0.09544 0.41585 0.0
C115 C 0.17194 0.06207 0.39702 0.0
C116 C 0.1417 0.06003 0.38858 0.0
C117 C 0.17882 0.07935 0.411 0.0
H118 H 0.1071 0.10429 0.41081 0.0
H119 H 0.13559 0.04578 0.37801 0.0
C120 C 0.96179 0.02915 0.35614 0.0
N121 N 0.88634 0.99228 0.34596 0.0
C122 C 0.94571 0.05155 0.35063 0.0
C123 C 0.93964 0.988 0.3563 0.0
C124 C 0.90747 0.03235 0.34559 0.0
C125 C 0.90151 0.96992 0.35115 0.0
C126 C 0.04366 0.12965 0.38808 0.0
C127 C 0.01116 0.12812 0.38142 0.0
C128 C 0.06471 0.15895 0.39804 0.0
C129 C 0.00025 0.15599 0.38483 0.0
C130 C 0.05288 0.18632 0.40116 0.0
N131 N 0.02116 0.18428 0.39455 0.0
C132 C 0.97605 0.05543 0.41027 0.0
C133 C 0.92691 0.02263 0.39288 0.0
C134 C 0.94826 0.05476 0.4206 0.0
N135 N 0.96521 0.04019 0.39659 0.0
C136 C 0.89813 0.02146 0.40285 0.0
C137 C 0.90879 0.03837 0.41682 0.0
H138 H 0.00666 0.06908 0.413 0.0
H139 H 0.91858 0.01041 0.38208 0.0
C140 C 0.04582 0.12752 0.33616 0.0
N141 N 0.06258 0.13673 0.34963 0.0
C142 C 0.04806 0.15701 0.32632 0.0
C143 C 0.08604 0.20518 0.34418 0.0
C144 C 0.08323 0.17471 0.35365 0.0
C145 C 0.0677 0.19637 0.33042 0.0
H146 H 0.02957 0.09701 0.33328 0.0
H147 H 0.09657 0.18128 0.36439 0.0
O148 O 0.03004 0.01303 0.38564 0.0
O149 O 0.0855 0.06925 0.35998 0.0
O150 O 0.99942 0.04753 0.36091 0.0
O151 O 0.05489 0.10258 0.38501 0.0
H152 H 0.04815 0.0254 0.41405 0.0
H153 H 0.95937 0.94953 0.3847 0.0
H154 H 0.00446 0.98459 0.43594 0.0
H155 H 0.91709 0.91019 0.40709 0.0
H156 H 0.19547 0.18888 0.3639 0.0
H157 H 0.12762 0.06589 0.33701 0.0
H158 H 0.12772 0.13751 0.37266 0.0
H159 H 0.19557 0.11863 0.32888 0.0
H160 H 0.01843 0.89245 0.35541 0.0
H161 H 0.01383 0.95619 0.31574 0.0
H162 H 0.1595 0.10858 0.42662 0.0
H163 H 0.18949 0.04991 0.3927 0.0
H164 H 0.96258 0.08344 0.35023 0.0
H165 H 0.95158 0.97016 0.36042 0.0
H166 H 0.89462 0.04932 0.34135 0.0
H167 H 0.88399 0.9381 0.35128 0.0
H168 H 0.99446 0.1056 0.37375 0.0
H169 H 0.08994 0.16051 0.4033 0.0
H170 H 0.97513 0.15511 0.37976 0.0
H171 H 0.06891 0.20917 0.40885 0.0
H172 H 0.95773 0.06747 0.43135 0.0
H173 H 0.86815 0.00877 0.39938 0.0
H174 H 0.03318 0.14886 0.31589 0.0
H175 H 0.1019 0.23521 0.34767 0.0
Li176 Li 0.0851 0.04087 0.69749 0.0
Li177 Li 0.08237 0.08254 0.71671 0.0
Li178 Li 0.03101 0.01077 0.71626 0.0
Li179 Li 0.03106 0.05806 0.69791 0.0
C180 C 0.11751 0.0267 0.72144 0.0
N181 N 0.17776 0.01018 0.7246 0.0
C182 C 0.15409 0.05558 0.72609 0.0
C183 C 0.11139 0.98924 0.71863 0.0
C184 C 0.18423 0.04671 0.72756 0.0
C185 C 0.14227 0.98151 0.72022 0.0
C186 C 0.10734 0.13134 0.68875 0.0
C187 C 0.10689 0.1917 0.68308 0.0
N188 N 0.14403 0.20804 0.67667 0.0
C189 C 0.14528 0.14856 0.68189 0.0
C190 C 0.08779 0.15293 0.68917 0.0
C191 C 0.16342 0.18744 0.67595 0.0
C192 C 0.11068 0.0099 0.67385 0.0
N193 N 0.12219 0.03574 0.68497 0.0
C194 C 0.19005 0.06087 0.67768 0.0
C195 C 0.16093 0.06086 0.68704 0.0
C196 C 0.17924 0.03515 0.66587 0.0
C197 C 0.1389 0.00904 0.66412 0.0
H198 H 0.07962 0.99067 0.6723 0.0
H199 H 0.16923 0.08158 0.6958 0.0
C200 C 0.10273 0.12184 0.74378 0.0
N201 N 0.11466 0.12392 0.72913 0.0
C202 C 0.12766 0.14971 0.75354 0.0
C203 C 0.17638 0.18152 0.7329 0.0
C204 C 0.15063 0.15297 0.72358 0.0
C205 C 0.1652 0.17985 0.74814 0.0
H206 H 0.0742 0.09798 0.74794 0.0
H207 H 0.16004 0.15313 0.71208 0.0
C208 C 0.00023 0.96878 0.69223 0.0
N209 N 0.9429 0.89116 0.68922 0.0
C210 C 0.96206 0.95939 0.68879 0.0
C211 C 0.0094 0.93876 0.69388 0.0
C212 C 0.93344 0.91996 0.68738 0.0
C213 C 0.97997 0.89968 0.69239 0.0
C214 C 0.00613 0.07603 0.72592 0.0
C215 C 0.96886 0.0548 0.73336 0.0
C216 C 0.0254 0.11721 0.72485 0.0
C217 C 0.95107 0.0751 0.73922 0.0
C218 C 0.00668 0.13644 0.73088 0.0
N219 N 0.97018 0.11516 0.73786 0.0
C220 C 0.00702 0.94634 0.738 0.0
C221 C 0.95622 0.95283 0.72693 0.0
C222 C 0.97918 0.91401 0.74714 0.0
N223 N 0.99504 0.96498 0.7282 0.0
C224 C 0.92749 0.92063 0.73573 0.0
C225 C 0.93879 0.90091 0.74609 0.0
H226 H 0.03814 0.95694 0.73891 0.0
H227 H 0.94764 0.96872 0.71924 0.0
C228 C 0.00845 0.08179 0.67151 0.0
N229 N 0.99711 0.06777 0.68602 0.0
C230 C 0.98222 0.08524 0.66218 0.0
C231 C 0.93337 0.06005 0.68294 0.0
C232 C 0.96047 0.05704 0.69184 0.0
C233 C 0.94388 0.07376 0.66783 0.0
H234 H 0.03752 0.08929 0.66709 0.0
H235 H 0.95171 0.04476 0.70323 0.0
O236 O 0.08777 0.03497 0.7198 0.0
O237 O 0.08905 0.09312 0.69451 0.0
O238 O 0.0285 0.00717 0.69388 0.0
O239 O 0.024 0.05651 0.72019 0.0
H240 H 0.15928 0.08463 0.72844 0.0
H241 H 0.08313 0.96638 0.71525 0.0
H242 H 0.21277 0.06887 0.73105 0.0
H243 H 0.138 0.95271 0.718 0.0
H244 H 0.09209 0.20872 0.68337 0.0
H245 H 0.1607 0.13222 0.68123 0.0
H246 H 0.05797 0.1398 0.69393 0.0
H247 H 0.1929 0.20119 0.67072 0.0
H248 H 0.22071 0.0811 0.67961 0.0
H249 H 0.1292 0.98907 0.65506 0.0
H250 H 0.11787 0.14747 0.76521 0.0
H251 H 0.20536 0.20373 0.72835 0.0
H252 H 0.95449 0.98225 0.68736 0.0
H253 H 0.03892 0.94555 0.69629 0.0
H254 H 0.90371 0.91225 0.68484 0.0
H255 H 0.98662 0.87613 0.69373 0.0
H256 H 0.9537 0.02296 0.73453 0.0
H257 H 0.05474 0.13424 0.71963 0.0
H258 H 0.92212 0.059 0.74489 0.0
H259 H 0.02128 0.1683 0.73009 0.0
H260 H 0.9891 0.89952 0.75495 0.0
H261 H 0.89678 0.91206 0.73475 0.0
H262 H 0.99139 0.09541 0.65054 0.0
H263 H 0.90429 0.05117 0.68781 0.0
C264 C 0.07553 0.61181 0.18335 0.0
C265 C 0.11269 0.64084 0.17771 0.0
C266 C 0.13942 0.63645 0.18573 0.0
C267 C 0.11723 0.60523 0.19577 0.0
N268 N 0.07785 0.58917 0.19463 0.0
Co269 Co 0.03491 0.54361 0.20719 0.0
N270 N 0.07442 0.53901 0.21958 0.0
C271 C 0.11409 0.56264 0.21851 0.0
C272 C 0.13343 0.55216 0.22855 0.0
C273 C 0.10443 0.51962 0.23644 0.0
C274 C 0.06898 0.51205 0.23066 0.0
N275 N 0.99202 0.49736 0.21952 0.0
C276 C 0.99456 0.47378 0.23036 0.0
C277 C 0.95761 0.44356 0.23558 0.0
C278 C 0.93069 0.44795 0.22766 0.0
C279 C 0.95266 0.48036 0.21808 0.0
N280 N 0.99538 0.54885 0.19501 0.0
C281 C 0.95558 0.52652 0.19663 0.0
C282 C 0.93623 0.53787 0.18692 0.0
C283 C 0.96534 0.56968 0.17872 0.0
C284 C 0.0009 0.57594 0.18395 0.0
N285 N 0.0366 0.50659 0.19291 0.0
C286 C 0.03796 0.45145 0.17376 0.0
C287 C 0.00278 0.45072 0.17751 0.0
C288 C 0.00275 0.47821 0.18703 0.0
C289 C 0.07263 0.48063 0.17957 0.0
C290 C 0.07133 0.50789 0.18896 0.0
N291 N 0.03308 0.58058 0.22148 0.0
C292 C 0.99541 0.60164 0.23661 0.0
C293 C 0.02981 0.63477 0.24066 0.0
C294 C 0.06598 0.63997 0.2352 0.0
C295 C 0.06692 0.61276 0.22568 0.0
C296 C 0.9977 0.57513 0.22715 0.0
H297 H 0.09536 0.61867 0.22174 0.0
H298 H 0.97036 0.55061 0.22452 0.0
H299 H 0.97484 0.47552 0.18962 0.0
H300 H 0.09874 0.52953 0.19298 0.0
C301 C 0.13247 0.59234 0.20713 0.0
C302 C 0.03905 0.60827 0.17815 0.0
C303 C 0.0312 0.47792 0.2356 0.0
C304 C 0.93727 0.49504 0.20738 0.0
H305 H 0.11984 0.6635 0.16896 0.0
H306 H 0.17123 0.65461 0.18466 0.0
H307 H 0.16492 0.56583 0.2297 0.0
H308 H 0.10891 0.50279 0.24523 0.0
H309 H 0.95086 0.42037 0.24405 0.0
H310 H 0.89893 0.42929 0.22858 0.0
H311 H 0.90472 0.52475 0.18599 0.0
H312 H 0.96092 0.58656 0.16993 0.0
H313 H 0.97509 0.42837 0.1734 0.0
H314 H 0.10069 0.4826 0.17681 0.0
H315 H 0.96669 0.59597 0.24078 0.0
H316 H 0.09347 0.66536 0.23797 0.0
C317 C 0.48921 0.02623 0.56369 0.0
C318 C 0.4618 0.98963 0.57033 0.0
C319 C 0.46632 0.96221 0.56286 0.0
C320 C 0.49628 0.98355 0.55223 0.0
N321 N 0.51151 0.023 0.55254 0.0
Co322 Co 0.5561 0.06495 0.53934 0.0
N323 N 0.55991 0.02441 0.52736 0.0
C324 C 0.53641 0.98478 0.529 0.0
C325 C 0.5462 0.96458 0.51913 0.0
C326 C 0.57807 0.99294 0.51074 0.0
C327 C 0.58589 0.02897 0.51601 0.0
N328 N 0.60172 0.10689 0.52648 0.0
C329 C 0.62474 0.10349 0.51565 0.0
C330 C 0.65474 0.14007 0.50999 0.0
C331 C 0.65091 0.16764 0.51766 0.0
C332 C 0.61896 0.14639 0.52753 0.0
N333 N 0.55124 0.10545 0.55101 0.0
C334 C 0.5731 0.14513 0.54873 0.0
C335 C 0.56122 0.16526 0.55779 0.0
C336 C 0.52946 0.13678 0.56621 0.0
C337 C 0.52396 0.10075 0.56186 0.0
N338 N 0.59421 0.06483 0.55348 0.0
C339 C 0.65133 0.06581 0.5722 0.0
C340 C 0.65101 0.10041 0.56831 0.0
C341 C 0.62247 0.09926 0.55905 0.0
C342 C 0.622 0.03052 0.56682 0.0
C343 C 0.59394 0.03069 0.55757 0.0
N344 N 0.5181 0.06521 0.5252 0.0
C345 C 0.49695 0.10112 0.5091 0.0
C346 C 0.46229 0.06647 0.50633 0.0
C347 C 0.45646 0.031 0.51292 0.0
C348 C 0.48456 0.03102 0.5222 0.0
C349 C 0.52414 0.09984 0.51848 0.0
H350 H 0.47827 0.00308 0.52696 0.0
H351 H 0.54967 0.12736 0.52019 0.0
H352 H 0.62413 0.12672 0.55648 0.0
H353 H 0.57264 0.0029 0.55373 0.0
C354 C 0.50807 0.96733 0.54089 0.0
C355 C 0.49146 0.0629 0.56786 0.0
C356 C 0.61978 0.06643 0.51056 0.0
C357 C 0.60433 0.16259 0.53787 0.0
H358 H 0.4401 0.98336 0.57939 0.0
H359 H 0.44895 0.93046 0.56464 0.0
H360 H 0.5327 0.93294 0.5185 0.0
H361 H 0.59439 0.9876 0.50202 0.0
H362 H 0.67724 0.14613 0.5013 0.0
H363 H 0.66943 0.19938 0.51631 0.0
H364 H 0.57371 0.19687 0.55804 0.0
H365 H 0.51193 0.14202 0.57443 0.0
H366 H 0.67261 0.12841 0.57245 0.0
H367 H 0.62112 0.00292 0.56945 0.0
H368 H 0.50333 0.12928 0.50401 0.0
H369 H 0.42995 0.00333 0.51121 0.0
C370 C 0.62678 0.57612 0.84954 0.0
C371 C 0.65507 0.56834 0.84346 0.0
C372 C 0.65059 0.53575 0.85126 0.0
C373 C 0.61983 0.52541 0.86153 0.0
N374 N 0.60415 0.54926 0.86071 0.0
Co375 Co 0.55849 0.5444 0.87331 0.0
N376 N 0.55441 0.49877 0.88567 0.0
C377 C 0.5788 0.48374 0.88471 0.0
C378 C 0.56908 0.45297 0.89491 0.0
C379 C 0.53628 0.44775 0.90277 0.0
C380 C 0.52769 0.47557 0.89678 0.0
N381 N 0.51167 0.53836 0.88551 0.0
C382 C 0.48784 0.51013 0.89614 0.0
C383 C 0.45668 0.51509 0.90101 0.0
C384 C 0.46087 0.5475 0.89315 0.0
C385 C 0.49401 0.56027 0.8839 0.0
N386 N 0.56374 0.59119 0.86133 0.0
C387 C 0.54159 0.60853 0.86319 0.0
C388 C 0.55356 0.64146 0.85388 0.0
C389 C 0.58566 0.64583 0.84573 0.0
C390 C 0.59128 0.61504 0.85051 0.0
N391 N 0.52183 0.50787 0.85891 0.0
C392 C 0.46657 0.45408 0.83979 0.0
C393 C 0.46708 0.48894 0.84296 0.0
C394 C 0.49464 0.51513 0.85247 0.0
C395 C 0.49467 0.44688 0.84612 0.0
C396 C 0.522 0.4741 0.8555 0.0
N397 N 0.5951 0.58103 0.88772 0.0
C398 C 0.61369 0.63516 0.90395 0.0
C399 C 0.64879 0.63597 0.90696 0.0
C400 C 0.6563 0.60836 0.90038 0.0
C401 C 0.62916 0.58121 0.89094 0.0
C402 C 0.58755 0.60777 0.89438 0.0
H403 H 0.63656 0.56089 0.8863 0.0
H404 H 0.56171 0.60924 0.89241 0.0
H405 H 0.49291 0.54077 0.85459 0.0
H406 H 0.54275 0.46701 0.85996 0.0
C407 C 0.60783 0.49628 0.87309 0.0
C408 C 0.62389 0.61043 0.8448 0.0
C409 C 0.49275 0.47738 0.90151 0.0
C410 C 0.50935 0.59274 0.8736 0.0
H411 H 0.67729 0.58511 0.83456 0.0
H412 H 0.66851 0.52205 0.84994 0.0
H413 H 0.5833 0.43552 0.89612 0.0
H414 H 0.51989 0.42532 0.91165 0.0
H415 H 0.43299 0.49685 0.90922 0.0
H416 H 0.44171 0.55993 0.89394 0.0
H417 H 0.54067 0.66023 0.8532 0.0
H418 H 0.60322 0.66926 0.83733 0.0
H419 H 0.44563 0.49563 0.83844 0.0
H420 H 0.4957 0.42044 0.84382 0.0
H421 H 0.60674 0.65624 0.90867 0.0
H422 H 0.68293 0.60755 0.90255 0.0
H423 H 0.99608 0.20123 0.07631 0.0
H424 H 0.99805 0.25117 0.09268 0.0
H425 H 0.05505 0.2177 0.1259 0.0
H426 H 0.05364 0.16802 0.10954 0.0
H427 H 0.96675 0.23951 0.12443 0.0
H428 H 0.12903 0.3399 0.11622 0.0
H429 H 0.10113 0.30214 0.10339 0.0
H430 H 0.11232 0.28895 0.12127 0.0
C431 C 0.00904 0.20453 0.0871 0.0
C432 C 0.02483 0.18082 0.09163 0.0
C433 C 0.00999 0.23291 0.09644 0.0
C434 C 0.02709 0.2383 0.11038 0.0
C435 C 0.04209 0.21416 0.1151 0.0
H436 H 0.07605 0.40979 0.17798 0.0
H437 H 0.07303 0.35745 0.16279 0.0
C438 C 0.04093 0.1856 0.10581 0.0
C439 C 0.0296 0.26955 0.1199 0.0
H440 H 0.09475 0.35849 0.13324 0.0
C441 C 0.99467 0.26557 0.12638 0.0
C442 C 0.06614 0.30329 0.12242 0.0
C443 C 0.10438 0.30921 0.11541 0.0
C444 C 0.99533 0.29442 0.13548 0.0
C445 C 0.03185 0.32857 0.13781 0.0
C446 C 0.06681 0.33234 0.13141 0.0
C447 C 0.03437 0.36088 0.14676 0.0
C448 C 0.95699 0.28763 0.14275 0.0
C449 C 0.01442 0.38077 0.14257 0.0
C450 C 0.01602 0.41054 0.15123 0.0
C451 C 0.03806 0.42136 0.16413 0.0
C452 C 0.05905 0.40226 0.16804 0.0
C453 C 0.0572 0.37226 0.15943 0.0
H454 H 0.93412 0.25586 0.14346 0.0
H455 H 0.96118 0.29871 0.15424 0.0
H456 H 0.94573 0.30363 0.1359 0.0
H457 H 0.99757 0.37325 0.1326 0.0
H458 H 0.00011 0.42523 0.14781 0.0
H459 H 0.83105 0.98238 0.42297 0.0
H460 H 0.78203 0.9883 0.4386 0.0
H461 H 0.87112 0.10467 0.44983 0.0
H462 H 0.91987 0.09979 0.43375 0.0
H463 H 0.77971 0.0002 0.4688 0.0
H464 H 0.78482 0.1237 0.43473 0.0
H465 H 0.80651 0.09547 0.42801 0.0
H466 H 0.8321 0.13385 0.44077 0.0
C467 C 0.84015 0.00939 0.42865 0.0
C468 C 0.87938 0.04069 0.42703 0.0
C469 C 0.81216 0.01261 0.43765 0.0
C470 C 0.82281 0.04719 0.44515 0.0
C471 C 0.8621 0.07805 0.44389 0.0
H472 H 0.68966 0.07527 0.51868 0.0
H473 H 0.73955 0.07113 0.50269 0.0
C474 C 0.89006 0.07494 0.43485 0.0
C475 C 0.79287 0.05087 0.4544 0.0
H476 H 0.74916 0.1069 0.45842 0.0
C477 C 0.77293 0.02344 0.46652 0.0
C478 C 0.78371 0.08092 0.45125 0.0
C479 C 0.8026 0.10995 0.4379 0.0
C480 C 0.74454 0.02566 0.47575 0.0
C481 C 0.73643 0.05654 0.47293 0.0
C482 C 0.75583 0.08355 0.46065 0.0
C483 C 0.70739 0.0609 0.48246 0.0
C484 C 0.723 0.99457 0.48831 0.0
C485 C 0.67356 0.05787 0.47624 0.0
C486 C 0.64536 0.06052 0.48532 0.0
C487 C 0.65082 0.06643 0.50068 0.0
C488 C 0.68509 0.0706 0.50683 0.0
C489 C 0.71329 0.06795 0.49776 0.0
H490 H 0.72532 0.96783 0.48662 0.0
H491 H 0.73613 0.00666 0.4991 0.0
H492 H 0.69131 0.98579 0.48926 0.0
H493 H 0.66863 0.05265 0.46444 0.0
H494 H 0.619 0.05728 0.48045 0.0
H495 H 0.9414 0.88751 0.77622 0.0
H496 H 0.88903 0.83634 0.79308 0.0
H497 H 0.8148 0.79017 0.75567 0.0
H498 H 0.86728 0.84054 0.73869 0.0
H499 H 0.8131 0.82598 0.7979 0.0
H500 H 0.80617 0.69128 0.77659 0.0
H501 H 0.84777 0.74007 0.7723 0.0
H502 H 0.80345 0.72306 0.76232 0.0
C503 C 0.91425 0.86593 0.77153 0.0
C504 C 0.90847 0.86803 0.75612 0.0
C505 C 0.88428 0.83691 0.78119 0.0
C506 C 0.84822 0.80928 0.77559 0.0
C507 C 0.84263 0.81083 0.76018 0.0
H508 H 0.62292 0.62379 0.81474 0.0
H509 H 0.6775 0.67348 0.79797 0.0
C510 C 0.87251 0.83985 0.75053 0.0
C511 C 0.81556 0.78029 0.78597 0.0
H512 H 0.75377 0.68164 0.79361 0.0
C513 C 0.80029 0.79441 0.79705 0.0
C514 C 0.79883 0.73917 0.78476 0.0
C515 C 0.81507 0.72238 0.77345 0.0
C516 C 0.76818 0.76846 0.80679 0.0
C517 C 0.75136 0.72736 0.80553 0.0
C518 C 0.76669 0.71321 0.79449 0.0
C519 C 0.71809 0.69848 0.8157 0.0
C520 C 0.75193 0.78521 0.81812 0.0
C521 C 0.72301 0.69613 0.83115 0.0
C522 C 0.692 0.66794 0.84065 0.0
C523 C 0.65575 0.64178 0.83482 0.0
C524 C 0.65068 0.6441 0.8194 0.0
C525 C 0.68174 0.67224 0.80988 0.0
H526 H 0.76172 0.81666 0.81524 0.0
H527 H 0.71918 0.76815 0.81892 0.0
H528 H 0.76253 0.78335 0.82934 0.0
H529 H 0.75104 0.71563 0.83581 0.0
H530 H 0.69641 0.66614 0.85252 0.0
H531 H 0.00342 0.86255 0.09631 0.0
H532 H 0.00019 0.81018 0.11292 0.0
H533 H 0.1239 0.8535 0.10289 0.0
H534 H 0.1274 0.9062 0.0862 0.0
H535 H 0.01592 0.75125 0.10583 0.0
H536 H 0.11508 0.84489 0.14885 0.0
H537 H 0.09502 0.86351 0.13498 0.0
H538 H 0.13631 0.85739 0.12994 0.0
C539 C 0.02994 0.86087 0.09758 0.0
C540 C 0.06567 0.88846 0.08991 0.0
C541 C 0.02806 0.83102 0.10712 0.0
C542 C 0.06186 0.82819 0.10925 0.0
C543 C 0.09763 0.85563 0.10163 0.0
H544 H 0.06035 0.62044 0.14826 0.0
H545 H 0.06601 0.67363 0.13115 0.0
C546 C 0.09958 0.88567 0.09209 0.0
C547 C 0.05912 0.7958 0.11919 0.0
H548 H 0.09337 0.77659 0.15124 0.0
C549 C 0.03285 0.75675 0.11576 0.0
C550 C 0.08091 0.80313 0.13222 0.0
C551 C 0.10817 0.84447 0.13684 0.0
C552 C 0.02786 0.72475 0.12499 0.0
C553 C 0.05029 0.73206 0.13784 0.0
C554 C 0.07643 0.77111 0.14131 0.0
C555 C 0.0465 0.69961 0.14802 0.0
C556 C 0.99796 0.68348 0.1211 0.0
C557 C 0.03433 0.69704 0.1632 0.0
C558 C 0.03142 0.66698 0.17294 0.0
C559 C 0.04081 0.63922 0.16764 0.0
C560 C 0.05284 0.6416 0.15248 0.0
C561 C 0.05587 0.67175 0.14274 0.0
H562 H 0.97635 0.6834 0.11331 0.0
H563 H 0.01345 0.66979 0.11549 0.0
H564 H 0.98163 0.66491 0.13137 0.0
H565 H 0.02707 0.71831 0.1675 0.0
H566 H 0.0222 0.66554 0.18464 0.0
H567 H 0.22953 0.13756 0.42875 0.0
H568 H 0.27807 0.13598 0.44499 0.0
H569 H 0.24515 0.01949 0.43129 0.0
H570 H 0.19598 0.02025 0.41536 0.0
H571 H 0.26203 0.07574 0.46907 0.0
H572 H 0.36791 0.08615 0.4237 0.0
H573 H 0.33153 0.10072 0.42065 0.0
H574 H 0.31715 0.04942 0.42181 0.0
C575 C 0.23243 0.1115 0.42925 0.0
C576 C 0.20899 0.07913 0.42066 0.0
C577 C 0.2603 0.11076 0.43847 0.0
C578 C 0.26545 0.07784 0.43915 0.0
C579 C 0.24207 0.04546 0.43068 0.0
H580 H 0.41819 0.014 0.48557 0.0
H581 H 0.36921 0.01624 0.46986 0.0
C582 C 0.2141 0.04606 0.42154 0.0
C583 C 0.29456 0.07677 0.44902 0.0
H584 H 0.37977 0.07316 0.44852 0.0
C585 C 0.28792 0.0754 0.46462 0.0
C586 C 0.32805 0.07604 0.44311 0.0
C587 C 0.33694 0.07846 0.4264 0.0
C588 C 0.31361 0.07255 0.47454 0.0
C589 C 0.34728 0.07202 0.46864 0.0
C590 C 0.35392 0.07351 0.45301 0.0
C591 C 0.37619 0.07022 0.47848 0.0
C592 C 0.30385 0.06907 0.49123 0.0
C593 C 0.39654 0.09996 0.48845 0.0
C594 C 0.42417 0.09853 0.49756 0.0
C595 C 0.43242 0.06756 0.49675 0.0
C596 C 0.41216 0.03794 0.48665 0.0
C597 C 0.38437 0.03933 0.47758 0.0
H598 H 0.27208 0.0586 0.49372 0.0
H599 H 0.31143 0.0485 0.49707 0.0
H600 H 0.32115 0.0985 0.49591 0.0
H601 H 0.39127 0.1245 0.48912 0.0
H602 H 0.43889 0.12161 0.50532 0.0
H603 H 0.2135 0.25949 0.74314 0.0
H604 H 0.2638 0.30517 0.75938 0.0
H605 H 0.23111 0.21006 0.79256 0.0
H606 H 0.18117 0.16405 0.77631 0.0
H607 H 0.25403 0.32157 0.79063 0.0
H608 H 0.35231 0.25829 0.78301 0.0
H609 H 0.31393 0.24958 0.77039 0.0
H610 H 0.30154 0.22385 0.7885 0.0
C611 C 0.21705 0.24832 0.75389 0.0
C612 C 0.19351 0.20816 0.75842 0.0
C613 C 0.24564 0.27444 0.76316 0.0
C614 C 0.25141 0.26079 0.77704 0.0
C615 C 0.22734 0.22098 0.78179 0.0
H616 H 0.42303 0.37393 0.84461 0.0
H617 H 0.37028 0.3268 0.82956 0.0
C618 C 0.19861 0.19486 0.77256 0.0
C619 C 0.28299 0.2882 0.78647 0.0
H620 H 0.37147 0.30894 0.79999 0.0
C621 C 0.27976 0.31892 0.79269 0.0
C622 C 0.31633 0.28441 0.78913 0.0
C623 C 0.32161 0.25247 0.78234 0.0
C624 C 0.30893 0.34586 0.80168 0.0
C625 C 0.34262 0.34245 0.80418 0.0
C626 C 0.34565 0.3115 0.79803 0.0
C627 C 0.3752 0.37091 0.81304 0.0
C628 C 0.303 0.37723 0.80865 0.0
C629 C 0.39605 0.41114 0.80854 0.0
C630 C 0.42612 0.43806 0.8171 0.0
C631 C 0.43622 0.42518 0.83024 0.0
C632 C 0.4161 0.38469 0.83448 0.0
C633 C 0.38586 0.35779 0.82594 0.0
H634 H 0.27144 0.36904 0.80922 0.0
H635 H 0.31391 0.38259 0.82017 0.0
H636 H 0.31971 0.40521 0.80169 0.0
H637 H 0.38904 0.42174 0.79839 0.0
H638 H 0.44156 0.46899 0.81341 0.0
H639 H 0.95525 0.13007 0.64603 0.0
H640 H 0.90625 0.13001 0.62959 0.0
H641 H 0.81721 0.01879 0.65066 0.0
H642 H 0.86586 0.01824 0.66694 0.0
H643 H 0.85889 0.07118 0.60929 0.0
H644 H 0.76786 0.09023 0.65356 0.0
H645 H 0.81755 0.10065 0.65631 0.0
H646 H 0.77734 0.05062 0.65757 0.0
C647 C 0.92527 0.10553 0.64713 0.0
C648 C 0.9144 0.07434 0.6579 0.0
C649 C 0.89732 0.10564 0.63777 0.0
C650 C 0.85804 0.07472 0.6391 0.0
C651 C 0.84719 0.04336 0.64971 0.0
H652 H 0.64259 0.01316 0.59505 0.0
H653 H 0.69372 0.01523 0.61071 0.0
C654 C 0.87505 0.04318 0.65903 0.0
C655 C 0.82843 0.07459 0.62918 0.0
H656 H 0.74123 0.07437 0.62955 0.0
C657 C 0.83328 0.07216 0.61368 0.0
C658 C 0.79505 0.07572 0.63499 0.0
C659 C 0.78916 0.0798 0.6515 0.0
C660 C 0.80506 0.06986 0.60382 0.0
C661 C 0.77155 0.07079 0.60964 0.0
C662 C 0.76688 0.07352 0.62514 0.0
C663 C 0.74099 0.06911 0.59984 0.0
C664 C 0.81082 0.06541 0.58733 0.0
C665 C 0.75063 0.09885 0.58861 0.0
C666 C 0.72159 0.09761 0.57959 0.0
C667 C 0.68224 0.06673 0.58169 0.0
C668 C 0.67268 0.03704 0.593 0.0
C669 C 0.70179 0.03831 0.60202 0.0
H670 H 0.83202 0.05483 0.58534 0.0
H671 H 0.7824 0.0445 0.58256 0.0
H672 H 0.82275 0.09449 0.58118 0.0
H673 H 0.78057 0.12325 0.58692 0.0
H674 H 0.73003 0.12073 0.57089 0.0
H675 H 0.93712 0.91942 0.97124 0.0
H676 H 0.89072 0.86994 0.95496 0.0
H677 H 0.79534 0.84031 0.98765 0.0
H678 H 0.84139 0.89024 0.00388 0.0
H679 H 0.84245 0.78752 0.96339 0.0
H680 H 0.75362 0.85629 0.94741 0.0
H681 H 0.80185 0.88397 0.95485 0.0
H682 H 0.75958 0.85303 0.96722 0.0
C683 C 0.90614 0.90292 0.97483 0.0
C684 C 0.89287 0.90881 0.98882 0.0
C685 C 0.87976 0.87451 0.96557 0.0
C686 C 0.83962 0.85179 0.97006 0.0
C687 C 0.82614 0.85795 0.9839 0.0
H688 H 0.63364 0.66002 0.93354 0.0
H689 H 0.68082 0.71175 0.94887 0.0
C690 C 0.85252 0.88623 0.9932 0.0
C691 C 0.81218 0.82023 0.96062 0.0
H692 H 0.72988 0.79041 0.94073 0.0
C693 C 0.81795 0.78818 0.95834 0.0
C694 C 0.78022 0.82123 0.95416 0.0
C695 C 0.77347 0.85559 0.95589 0.0
C696 C 0.79202 0.75657 0.95 0.0
C697 C 0.76003 0.75754 0.9435 0.0
C698 C 0.75441 0.78973 0.94574 0.0
C699 C 0.73188 0.72541 0.9344 0.0
C700 C 0.79853 0.72195 0.94856 0.0
C701 C 0.74495 0.71603 0.92115 0.0
C702 C 0.71807 0.68642 0.9124 0.0
C703 C 0.67757 0.66599 0.91664 0.0
C704 C 0.66461 0.67546 0.92992 0.0
C705 C 0.69151 0.70492 0.9387 0.0
H706 H 0.8173 0.72083 0.95742 0.0
H707 H 0.77005 0.69368 0.94924 0.0
H708 H 0.8137 0.72476 0.93749 0.0
H709 H 0.77585 0.73211 0.91744 0.0
H710 H 0.72885 0.68025 0.9021 0.0
H711 H 0.0604 0.88461 0.33657 0.0
H712 H 0.06103 0.83552 0.32053 0.0
H713 H 0.97088 0.83699 0.29446 0.0
H714 H 0.9701 0.88624 0.31048 0.0
H715 H 0.00075 0.76072 0.3148 0.0
H716 H 0.05664 0.85719 0.26245 0.0
H717 H 0.05801 0.87628 0.28072 0.0
H718 H 0.01278 0.85326 0.27113 0.0
C719 C 0.04045 0.87425 0.3275 0.0
C720 C 0.01524 0.88936 0.32477 0.0
C721 C 0.04099 0.84635 0.31831 0.0
C722 C 0.01646 0.83309 0.30617 0.0
C723 C 0.99071 0.84752 0.30356 0.0
H724 H 0.97985 0.66424 0.23903 0.0
H725 H 0.9758 0.7114 0.25526 0.0
C726 C 0.99025 0.87558 0.31273 0.0
C727 C 0.01771 0.80389 0.29638 0.0
H728 H 0.03742 0.78994 0.26024 0.0
C729 C 0.00886 0.76711 0.30288 0.0
C730 C 0.02834 0.81239 0.28083 0.0
C731 C 0.03984 0.85203 0.27336 0.0
C732 C 0.00992 0.73838 0.29421 0.0
C733 C 0.0206 0.74692 0.27869 0.0
C734 C 0.02923 0.78357 0.27216 0.0
C735 C 0.02306 0.71819 0.26902 0.0
C736 C 0.99901 0.69889 0.30166 0.0
C737 C 0.0513 0.70681 0.2713 0.0
C738 C 0.05367 0.67983 0.26206 0.0
C739 C 0.02779 0.6638 0.25039 0.0
C740 C 0.99979 0.67561 0.24807 0.0
C741 C 0.99757 0.70269 0.25726 0.0
H742 H 0.98295 0.69381 0.31273 0.0
H743 H 0.98038 0.67456 0.2944 0.0
H744 H 0.02629 0.69774 0.3035 0.0
H745 H 0.07162 0.71893 0.28019 0.0
H746 H 0.0754 0.67115 0.26418 0.0
H747 H 0.24639 0.10055 0.65431 0.0
H748 H 0.29764 0.10339 0.63725 0.0
H749 H 0.23256 0.97673 0.63552 0.0
H750 H 0.18175 0.97341 0.6532 0.0
H751 H 0.31101 0.00524 0.63942 0.0
H752 H 0.29257 0.0894 0.59242 0.0
H753 H 0.30089 0.11359 0.60978 0.0
H754 H 0.25686 0.06675 0.60808 0.0
C755 C 0.24305 0.0732 0.65044 0.0
C756 C 0.20994 0.03671 0.65518 0.0
C757 C 0.27215 0.07495 0.6405 0.0
C758 C 0.26857 0.04035 0.6349 0.0
C759 C 0.23571 0.00383 0.63962 0.0
H760 H 0.41604 0.03676 0.56059 0.0
H761 H 0.36104 0.02974 0.57692 0.0
C762 C 0.20658 0.00201 0.64964 0.0
C763 C 0.29981 0.04236 0.62448 0.0
H764 H 0.35111 0.08485 0.59108 0.0
C765 C 0.31961 0.0224 0.6288 0.0
C766 C 0.31061 0.06433 0.61054 0.0
C767 C 0.28886 0.0844 0.60484 0.0
C768 C 0.35063 0.02464 0.61971 0.0
C769 C 0.36268 0.04817 0.60611 0.0
C770 C 0.3422 0.06729 0.60162 0.0
C771 C 0.39611 0.05293 0.59627 0.0
C772 C 0.36982 0.00135 0.62467 0.0
C773 C 0.43412 0.0689 0.60166 0.0
C774 C 0.46537 0.0727 0.59237 0.0
C775 C 0.45909 0.06114 0.57752 0.0
C776 C 0.42134 0.04594 0.57203 0.0
C777 C 0.39008 0.04194 0.58132 0.0
H778 H 0.35031 0.97667 0.63286 0.0
H779 H 0.37757 0.98909 0.61494 0.0
H780 H 0.39733 0.02105 0.63024 0.0
H781 H 0.43961 0.07837 0.61304 0.0
H782 H 0.49433 0.08434 0.59679 0.0
H783 H 0.20254 0.23235 0.9892 0.0
H784 H 0.25304 0.28329 0.97193 0.0
H785 H 0.31073 0.2146 0.9679 0.0
H786 H 0.26096 0.1639 0.98572 0.0
H787 H 0.36264 0.29304 0.97221 0.0
H788 H 0.26414 0.27897 0.92668 0.0
H789 H 0.24743 0.28687 0.94451 0.0
H790 H 0.24928 0.24243 0.94204 0.0
C791 C 0.22613 0.22813 0.98477 0.0
C792 C 0.22776 0.19406 0.9889 0.0
C793 C 0.25469 0.25708 0.97472 0.0
C794 C 0.28523 0.25241 0.96843 0.0
C795 C 0.28717 0.21859 0.97255 0.0
H796 H 0.4439 0.40253 0.89377 0.0
H797 H 0.3943 0.3467 0.90999 0.0
C798 C 0.2586 0.18956 0.98265 0.0
C799 C 0.31571 0.28353 0.95792 0.0
H800 H 0.32806 0.33672 0.92512 0.0
C801 C 0.35517 0.30241 0.96185 0.0
C802 C 0.30595 0.29532 0.94432 0.0
C803 C 0.26446 0.27458 0.93904 0.0
C804 C 0.38502 0.33359 0.95274 0.0
C805 C 0.37493 0.34667 0.93952 0.0
C806 C 0.33564 0.32701 0.93537 0.0
C807 C 0.40471 0.38053 0.92977 0.0
C808 C 0.4271 0.35193 0.95729 0.0
C809 C 0.42647 0.41812 0.93545 0.0
C810 C 0.45481 0.44984 0.92623 0.0
C811 C 0.46131 0.44447 0.91116 0.0
C812 C 0.4391 0.40714 0.90538 0.0
C813 C 0.41092 0.3754 0.91461 0.0
H814 H 0.43124 0.33174 0.96507 0.0
H815 H 0.44786 0.35994 0.94731 0.0
H816 H 0.43489 0.37919 0.96318 0.0
H817 H 0.42155 0.42292 0.94702 0.0
H818 H 0.47183 0.47848 0.93086 0.0
H819 H 0.07844 0.20753 0.29978 0.0
H820 H 0.07253 0.25613 0.28384 0.0
H821 H 0.04836 0.30329 0.32321 0.0
H822 H 0.05434 0.25496 0.33921 0.0
H823 H 0.0071 0.26462 0.28168 0.0
H824 H 0.13365 0.40227 0.30025 0.0
H825 H 0.12781 0.35424 0.30445 0.0
H826 H 0.10016 0.37093 0.31536 0.0
C827 C 0.07209 0.22842 0.30504 0.0
C828 C 0.06704 0.22754 0.32075 0.0
C829 C 0.06881 0.25618 0.29592 0.0
C830 C 0.06051 0.28363 0.30235 0.0
C831 C 0.05572 0.28301 0.31803 0.0
H832 H 0.01513 0.46474 0.26581 0.0
H833 H 0.01986 0.41571 0.28219 0.0
C834 C 0.05916 0.25537 0.32716 0.0
C835 C 0.05498 0.31163 0.29261 0.0
H836 H 0.08907 0.40959 0.28485 0.0
C837 C 0.02515 0.29632 0.28231 0.0
C838 C 0.07848 0.35297 0.2935 0.0
C839 C 0.11207 0.37117 0.30388 0.0
C840 C 0.01782 0.32125 0.27301 0.0
C841 C 0.04127 0.36253 0.27393 0.0
C842 C 0.07102 0.37787 0.28425 0.0
C843 C 0.03613 0.39043 0.26401 0.0
C844 C 0.98466 0.30324 0.26244 0.0
C845 C 0.04371 0.39231 0.24843 0.0
C846 C 0.04098 0.42012 0.23915 0.0
C847 C 0.03066 0.44636 0.24534 0.0
C848 C 0.02271 0.44434 0.26088 0.0
C849 C 0.02555 0.41658 0.27018 0.0
H850 H 0.96354 0.27175 0.2657 0.0
H851 H 0.96832 0.3196 0.26213 0.0
H852 H 0.99711 0.30483 0.25092 0.0
H853 H 0.05265 0.37291 0.24349 0.0
H854 H 0.04768 0.42174 0.22718 0.0
loop_
_geom_bond_atom_site_label_1
_geom_bond_atom_site_label_2
_geom_bond_distance
_geom_bond_site_symmetry_2
_ccdc_geom_bond_type
Li0 N17 1.990 . S
Li0 O60 1.956 . S
Li0 O61 1.970 . S
Li0 O62 1.961 . S
Li1 N25 1.990 . S
Li1 O60 1.970 . S
Li1 O61 1.956 . S
Li1 O63 1.961 . S
Li2 N47 1.990 1_545 S
Li2 O60 1.961 . S
Li2 O62 1.956 . S
Li2 O63 1.970 . S
Li3 N53 1.990 1_445 S
Li3 O61 1.961 . S
Li3 O62 1.970 . S
Li3 O63 1.956 . S
C4 C6 1.348 . S
C4 C7 1.356 . S
C4 O60 1.325 . S
N5 C8 1.314 . S
N5 C9 1.279 . S
C6 C4 1.348 . S
C6 C8 1.353 . S
C6 H64 0.929 . S
C7 C4 1.356 . S
C7 C9 1.358 . S
C7 H65 0.930 . S
C8 N5 1.314 . S
C8 C6 1.353 . S
C8 H66 0.930 . S
C9 N5 1.279 . S
C9 C7 1.358 . S
C9 H67 0.930 . S
C10 C13 1.348 . S
C10 C14 1.356 . S
C10 O61 1.325 . S
C11 N12 1.279 . S
C11 C14 1.358 . S
C11 H68 0.930 1_455 S
N12 C11 1.279 . S
N12 C15 1.314 . S
C13 C10 1.348 . S
C13 C15 1.353 . S
C13 H69 0.929 . S
C14 C10 1.356 . S
C14 C11 1.358 . S
C14 H70 0.930 1_455 S
C15 N12 1.314 . S
C15 C13 1.353 . S
C15 H71 0.922 1_554 S
C16 N17 1.314 . S
C16 C21 1.353 1_554 S
C16 H22 0.915 1_554 S
N17 Li0 1.990 . S
N17 C16 1.314 . S
N17 C19 1.279 . S
C18 C19 1.358 . S
C18 C20 1.356 1_554 S
C18 H72 0.930 . S
C19 N17 1.279 . S
C19 C18 1.358 . S
C19 H23 0.930 . S
C20 C18 1.356 1_556 S
C20 C21 1.348 . S
C21 C16 1.353 1_556 S
C21 C20 1.348 . S
C21 H73 0.929 . S
H22 C16 0.915 1_556 S
H23 C19 0.930 . S
C24 N25 1.314 . S
C24 C26 1.353 . S
C24 H30 0.930 . S
N25 Li1 1.990 . S
N25 C24 1.314 . S
N25 C28 1.279 . S
C26 C24 1.353 . S
C26 C29 1.348 . S
C26 H74 0.929 . S
C27 C28 1.358 . S
C27 C29 1.356 . S
C27 H75 0.930 . S
C28 N25 1.279 . S
C28 C27 1.358 . S
C28 H31 0.930 . S
C29 C26 1.348 . S
C29 C27 1.356 . S
H30 C24 0.930 . S
H31 C28 0.930 . S
C32 C34 1.348 . S
C32 C35 1.356 1_565 S
C32 O62 1.325 1_565 S
N33 C36 1.314 . S
N33 C37 1.279 . S
C34 C32 1.348 . S
C34 C36 1.353 . S
C34 H76 0.929 . S
C35 C32 1.356 1_545 S
C35 C37 1.358 1_545 S
C35 H77 0.930 . S
C36 N33 1.314 . S
C36 C34 1.353 . S
C36 H78 0.930 . S
C37 N33 1.279 . S
C37 C35 1.358 1_565 S
C37 H79 0.930 . S
C38 C39 1.348 . S
C38 C40 1.356 . S
C38 O63 1.325 1_665 S
C39 C38 1.348 . S
C39 C41 1.353 . S
C39 H80 0.930 1_655 S
C40 C38 1.356 . S
C40 C42 1.358 . S
C40 H81 0.930 1_565 S
C41 C39 1.353 . S
C41 N43 1.314 . S
C41 H82 0.930 . S
C42 C40 1.358 . S
C42 N43 1.279 . S
C42 H83 0.930 . S
N43 C41 1.314 . S
N43 C42 1.279 . S
C44 C46 1.353 . S
C44 N47 1.314 . S
C44 H50 0.930 1_565 S
C45 N47 1.279 . S
C45 C48 1.358 . S
C45 H51 0.930 . S
C46 C44 1.353 . S
C46 C49 1.348 . S
C46 H84 0.929 . S
N47 Li2 1.990 1_565 S
N47 C44 1.314 . S
N47 C45 1.279 . S
C48 C45 1.358 . S
C48 C49 1.356 . S
C48 H85 0.930 . S
C49 C46 1.348 . S
C49 C48 1.356 . S
H50 C44 0.930 1_545 S
H51 C45 0.930 . S
C52 N53 1.314 . S
C52 C54 1.353 1_554 S
C52 H58 0.928 1_665 S
N53 Li3 1.990 1_665 S
N53 C52 1.314 . S
N53 C56 1.279 . S
C54 C52 1.353 1_556 S
C54 C57 1.351 . S
C54 H86 0.929 . S
C55 C56 1.358 . S
C55 C57 1.344 1_554 S
C55 H87 0.930 . S
C56 N53 1.279 . S
C56 C55 1.358 . S
C56 H59 0.930 . S
C57 C54 1.351 . S
C57 C55 1.344 1_556 S
H58 C52 0.928 1_445 S
H59 C56 0.930 . S
O60 Li0 1.956 . S
O60 Li1 1.970 . S
O60 Li2 1.961 . S
O60 C4 1.325 . S
O61 Li0 1.970 . S
O61 Li1 1.956 . S
O61 Li3 1.961 . S
O61 C10 1.325 . S
O62 Li0 1.961 . S
O62 Li2 1.956 . S
O62 Li3 1.970 . S
O62 C32 1.325 1_545 S
O63 Li1 1.961 . S
O63 Li2 1.970 . S
O63 Li3 1.956 . S
O63 C38 1.325 1_445 S
H64 C6 0.929 . S
H65 C7 0.930 . S
H66 C8 0.930 . S
H67 C9 0.930 . S
H68 C11 0.930 1_655 S
H69 C13 0.929 . S
H70 C14 0.930 1_655 S
H71 C15 0.922 1_556 S
H72 C18 0.930 . S
H73 C21 0.929 . S
H74 C26 0.929 . S
H75 C27 0.930 . S
H76 C34 0.929 . S
H77 C35 0.930 . S
H78 C36 0.930 . S
H79 C37 0.930 . S
H80 C39 0.930 1_455 S
H81 C40 0.930 1_545 S
H82 C41 0.930 . S
H83 C42 0.930 . S
H84 C46 0.929 . S
H85 C48 0.930 . S
H86 C54 0.929 . S
H87 C55 0.930 . S
Li88 N105 1.990 1_545 S
Li88 O148 1.956 . S
Li88 O149 1.970 . S
Li88 O150 1.961 1_455 S
Li89 N113 1.990 . S
Li89 O148 1.970 . S
Li89 O149 1.956 . S
Li89 O151 1.961 . S
Li90 N135 1.990 . S
Li90 O148 1.961 1_655 S
Li90 O150 1.956 . S
Li90 O151 1.970 1_655 S
Li91 N141 1.990 . S
Li91 O149 1.961 . S
Li91 O150 1.970 1_455 S
Li91 O151 1.956 . S
C92 C94 1.348 . S
C92 C95 1.356 1_455 S
C92 O148 1.325 1_565 S
N93 C96 1.314 1_655 S
N93 C97 1.279 . S
C94 C92 1.348 . S
C94 C96 1.353 . S
C94 H152 0.929 1_565 S
C95 C92 1.356 1_655 S
C95 C97 1.358 . S
C95 H153 0.930 . S
C96 N93 1.314 1_455 S
C96 C94 1.353 . S
C96 H154 0.930 . S
C97 N93 1.279 . S
C97 C95 1.358 . S
C97 H155 0.930 . S
C98 C101 1.348 . S
C98 C102 1.356 . S
C98 O149 1.325 . S
C99 N100 1.279 . S
C99 C102 1.358 . S
C99 H156 0.930 . S
N100 C99 1.279 . S
N100 C103 1.314 . S
C101 C98 1.348 . S
C101 C103 1.353 . S
C101 H157 0.929 . S
C102 C98 1.356 . S
C102 C99 1.358 . S
C102 H158 0.930 . S
C103 N100 1.314 . S
C103 C101 1.353 . S
C103 H159 0.930 . S
C104 N105 1.314 . S
C104 C109 1.353 1_455 S
C104 H110 0.930 . S
N105 Li88 1.990 1_565 S
N105 C104 1.314 . S
N105 C107 1.279 . S
C106 C107 1.358 . S
C106 C108 1.356 1_455 S
C106 H160 0.930 . S
C107 N105 1.279 . S
C107 C106 1.358 . S
C107 H111 0.930 . S
C108 C106 1.356 1_655 S
C108 C109 1.348 . S
C109 C104 1.353 1_655 S
C109 C108 1.348 . S
C109 H161 0.929 . S
H110 C104 0.930 . S
H111 C107 0.930 . S
C112 N113 1.314 . S
C112 C114 1.353 . S
C112 H118 0.930 . S
N113 Li89 1.990 . S
N113 C112 1.314 . S
N113 C116 1.279 . S
C114 C112 1.353 . S
C114 C117 1.348 . S
C114 H162 0.929 . S
C115 C116 1.358 . S
C115 C117 1.356 . S
C115 H163 0.930 . S
C116 N113 1.279 . S
C116 C115 1.358 . S
C116 H119 0.930 . S
C117 C114 1.348 . S
C117 C115 1.356 . S
H118 C112 0.930 . S
H119 C116 0.930 . S
C120 C122 1.348 . S
C120 C123 1.356 . S
C120 O150 1.325 . S
N121 C124 1.314 . S
N121 C125 1.252 1_545 S
C122 C120 1.348 . S
C122 C124 1.353 . S
C122 H164 0.929 . S
C123 C120 1.356 . S
C123 C125 1.366 1_545 S
C123 H165 0.930 1_545 S
C124 N121 1.314 . S
C124 C122 1.353 . S
C124 H166 0.930 . S
C125 N121 1.252 1_565 S
C125 C123 1.366 1_565 S
C125 H167 0.953 . S
C126 C127 1.348 . S
C126 C128 1.356 . S
C126 O151 1.325 . S
C127 C126 1.348 . S
C127 C129 1.353 . S
C127 H168 0.929 . S
C128 C126 1.356 . S
C128 C130 1.358 . S
C128 H169 0.930 . S
C129 C127 1.353 . S
C129 N131 1.314 . S
C129 H170 0.930 . S
C130 C128 1.358 . S
C130 N131 1.279 . S
C130 H171 0.930 . S
N131 C129 1.314 . S
N131 C130 1.279 . S
C132 C134 1.353 . S
C132 N135 1.314 . S
C132 H138 0.930 . S
C133 N135 1.279 . S
C133 C136 1.358 . S
C133 H139 0.930 . S
C134 C132 1.353 . S
C134 C137 1.348 . S
C134 H172 0.929 . S
N135 Li90 1.990 . S
N135 C132 1.314 . S
N135 C133 1.279 . S
C136 C133 1.358 . S
C136 C137 1.356 . S
C136 H173 0.930 . S
C137 C134 1.348 . S
C137 C136 1.356 . S
H138 C132 0.930 . S
H139 C133 0.930 . S
C140 N141 1.314 . S
C140 C142 1.353 . S
C140 H146 0.930 . S
N141 Li91 1.990 . S
N141 C140 1.314 . S
N141 C144 1.279 . S
C142 C140 1.353 . S
C142 C145 1.348 . S
C142 H174 0.929 . S
C143 C144 1.358 . S
C143 C145 1.356 . S
C143 H175 0.930 . S
C144 N141 1.279 . S
C144 C143 1.358 . S
C144 H147 0.930 . S
C145 C142 1.348 . S
C145 C143 1.356 . S
H146 C140 0.930 . S
H147 C144 0.930 . S
O148 Li88 1.956 . S
O148 Li89 1.970 . S
O148 Li90 1.961 1_455 S
O148 C92 1.325 1_545 S
O149 Li88 1.970 . S
O149 Li89 1.956 . S
O149 Li91 1.961 . S
O149 C98 1.325 . S
O150 Li88 1.961 1_655 S
O150 Li90 1.956 . S
O150 Li91 1.970 1_655 S
O150 C120 1.325 . S
O151 Li89 1.961 . S
O151 Li90 1.970 1_455 S
O151 Li91 1.956 . S
O151 C126 1.325 . S
H152 C94 0.929 1_545 S
H153 C95 0.930 . S
H154 C96 0.930 . S
H155 C97 0.930 . S
H156 C99 0.930 . S
H157 C101 0.929 . S
H158 C102 0.930 . S
H159 C103 0.930 . S
H160 C106 0.930 . S
H161 C109 0.929 . S
H162 C114 0.929 . S
H163 C115 0.930 . S
H164 C122 0.929 . S
H165 C123 0.930 1_565 S
H166 C124 0.930 . S
H167 C125 0.953 . S
H168 C127 0.929 . S
H169 C128 0.930 . S
H170 C129 0.930 . S
H171 C130 0.930 . S
H172 C134 0.929 . S
H173 C136 0.930 . S
H174 C142 0.929 . S
H175 C143 0.930 . S
Li176 N193 1.990 . S
Li176 O236 1.956 . S
Li176 O237 1.970 . S
Li176 O238 1.961 1_545 S
Li177 N201 1.990 . S
Li177 O236 1.970 . S
Li177 O237 1.956 . S
Li177 O239 1.961 . S
Li178 N223 1.990 1_455 S
Li178 O236 1.961 1_565 S
Li178 O238 1.956 . S
Li178 O239 1.970 1_565 S
Li179 N229 1.990 1_455 S
Li179 O237 1.961 . S
Li179 O238 1.969 1_545 S
Li179 O239 1.956 . S
C180 C182 1.348 . S
C180 C183 1.356 1_545 S
C180 O236 1.325 . S
N181 C184 1.314 1_565 S
N181 C185 1.279 . S
C182 C180 1.348 . S
C182 C184 1.353 . S
C182 H240 0.929 . S
C183 C180 1.356 1_565 S
C183 C185 1.358 . S
C183 H241 0.930 . S
C184 N181 1.314 1_545 S
C184 C182 1.353 . S
C184 H242 0.930 . S
C185 N181 1.279 . S
C185 C183 1.358 . S
C185 H243 0.930 . S
C186 C189 1.348 . S
C186 C190 1.356 . S
C186 O237 1.325 . S
C187 N188 1.279 . S
C187 C190 1.358 . S
C187 H244 0.930 . S
N188 C187 1.279 . S
N188 C191 1.314 . S
C189 C186 1.348 . S
C189 C191 1.353 . S
C189 H245 0.929 . S
C190 C186 1.356 . S
C190 C187 1.358 . S
C190 H246 0.930 . S
C191 N188 1.314 . S
C191 C189 1.353 . S
C191 H247 0.930 . S
C192 N193 1.314 . S
C192 C197 1.353 . S
C192 H198 0.930 . S
N193 Li176 1.990 . S
N193 C192 1.314 . S
N193 C195 1.279 . S
C194 C195 1.358 . S
C194 C196 1.356 . S
C194 H248 0.930 . S
C195 N193 1.279 . S
C195 C194 1.358 . S
C195 H199 0.930 . S
C196 C194 1.356 . S
C196 C197 1.348 . S
C197 C192 1.353 . S
C197 C196 1.348 . S
C197 H249 0.929 1_545 S
H198 C192 0.930 . S
H199 C195 0.930 . S
C200 N201 1.314 . S
C200 C202 1.353 . S
C200 H206 0.930 . S
N201 Li177 1.990 . S
N201 C200 1.314 . S
N201 C204 1.279 . S
C202 C200 1.353 . S
C202 C205 1.348 . S
C202 H250 0.929 . S
C203 C204 1.358 . S
C203 C205 1.356 . S
C203 H251 0.930 . S
C204 N201 1.279 . S
C204 C203 1.358 . S
C204 H207 0.930 . S
C205 C202 1.348 . S
C205 C203 1.356 . S
H206 C200 0.930 . S
H207 C204 0.930 . S
C208 C210 1.348 1_455 S
C208 C211 1.356 . S
C208 O238 1.325 . S
N209 C212 1.314 . S
N209 C213 1.279 . S
C210 C208 1.348 1_655 S
C210 C212 1.353 . S
C210 H252 0.929 . S
C211 C208 1.356 . S
C211 C213 1.358 1_455 S
C211 H253 0.930 . S
C212 N209 1.314 . S
C212 C210 1.353 . S
C212 H254 0.930 . S
C213 N209 1.279 . S
C213 C211 1.358 1_655 S
C213 H255 0.930 . S
C214 C215 1.348 1_455 S
C214 C216 1.356 . S
C214 O239 1.325 . S
C215 C214 1.348 1_655 S
C215 C217 1.353 . S
C215 H256 0.948 . S
C216 C214 1.356 . S
C216 C218 1.358 1_455 S
C216 H257 0.930 . S
C217 C215 1.353 . S
C217 N219 1.314 . S
C217 H258 0.930 . S
C218 C216 1.358 1_655 S
C218 N219 1.279 . S
C218 H259 0.930 . S
N219 C217 1.314 . S
N219 C218 1.279 . S
C220 C222 1.353 . S
C220 N223 1.314 . S
C220 H226 0.930 1_655 S
C221 N223 1.279 . S
C221 C224 1.358 . S
C221 H227 0.930 . S
C222 C220 1.353 . S
C222 C225 1.348 . S
C222 H260 0.929 . S
N223 Li178 1.990 1_655 S
N223 C220 1.314 . S
N223 C221 1.279 . S
C224 C221 1.358 . S
C224 C225 1.356 . S
C224 H261 0.930 . S
C225 C222 1.348 . S
C225 C224 1.356 . S
H226 C220 0.930 1_455 S
H227 C221 0.930 . S
C228 N229 1.314 1_455 S
C228 C230 1.353 1_455 S
C228 H234 0.930 . S
N229 Li179 1.990 1_655 S
N229 C228 1.314 1_655 S
N229 C232 1.279 . S
C230 C228 1.353 1_655 S
C230 C233 1.348 . S
C230 H262 0.929 . S
C231 C232 1.358 . S
C231 C233 1.356 . S
C231 H263 0.930 . S
C232 N229 1.279 . S
C232 C231 1.358 . S
C232 H235 0.930 . S
C233 C230 1.348 . S
C233 C231 1.356 . S
H234 C228 0.930 . S
H235 C232 0.930 . S
O236 Li176 1.956 . S
O236 Li177 1.970 . S
O236 Li178 1.961 1_545 S
O236 C180 1.325 . S
O237 Li176 1.970 . S
O237 Li177 1.956 . S
O237 Li179 1.961 . S
O237 C186 1.325 . S
O238 Li176 1.961 1_565 S
O238 Li178 1.956 . S
O238 Li179 1.969 1_565 S
O238 C208 1.325 . S
O239 Li177 1.961 . S
O239 Li178 1.970 1_545 S
O239 Li179 1.956 . S
O239 C214 1.325 . S
H240 C182 0.929 . S
H241 C183 0.930 . S
H242 C184 0.930 . S
H243 C185 0.930 . S
H244 C187 0.930 . S
H245 C189 0.929 . S
H246 C190 0.930 . S
H247 C191 0.930 . S
H248 C194 0.930 . S
H249 C197 0.929 1_565 S
H250 C202 0.929 . S
H251 C203 0.930 . S
H252 C210 0.929 . S
H253 C211 0.930 . S
H254 C212 0.930 . S
H255 C213 0.930 . S
H256 C215 0.948 . S
H257 C216 0.930 . S
H258 C217 0.930 . S
H259 C218 0.930 . S
H260 C222 0.929 . S
H261 C224 0.930 . S
H262 C230 0.929 . S
H263 C231 0.930 . S
C264 C265 1.443 . S
C264 N268 1.376 . S
C264 C302 1.389 . S
C265 C264 1.443 . S
C265 C266 1.340 . S
C265 H305 0.951 . S
C266 C265 1.340 . S
C266 C267 1.439 . S
C266 H306 0.950 . S
C267 C266 1.439 . S
C267 N268 1.374 . S
C267 C301 1.395 . S
N268 C264 1.376 . S
N268 C267 1.374 . S
N268 Co269 2.008 . S
Co269 N268 2.008 . S
Co269 N270 1.995 . S
Co269 N275 2.008 1_455 S
Co269 N280 1.995 1_455 S
Co269 N285 2.282 . S
Co269 N291 2.282 . S
N270 Co269 1.995 . S
N270 C271 1.376 . S
N270 C274 1.383 . S
C271 N270 1.376 . S
C271 C272 1.446 . S
C271 C301 1.391 . S
C272 C271 1.446 . S
C272 C273 1.339 . S
C272 H307 0.949 . S
C273 C272 1.339 . S
C273 C274 1.439 . S
C273 H308 0.950 . S
C274 N270 1.383 . S
C274 C273 1.439 . S
C274 C303 1.392 . S
N275 Co269 2.008 1_655 S
N275 C276 1.376 . S
N275 C279 1.374 . S
C276 N275 1.376 . S
C276 C277 1.443 . S
C276 C303 1.389 1_655 S
C277 C276 1.443 . S
C277 C278 1.340 . S
C277 H309 0.951 . S
C278 C277 1.340 . S
C278 C279 1.439 . S
C278 H310 0.950 . S
C279 N275 1.374 . S
C279 C278 1.439 . S
C279 C304 1.395 . S
N280 Co269 1.995 1_655 S
N280 C281 1.376 . S
N280 C284 1.383 . S
C281 N280 1.376 . S
C281 C282 1.446 . S
C281 C304 1.391 . S
C282 C281 1.446 . S
C282 C283 1.339 . S
C282 H311 0.949 . S
C283 C282 1.339 . S
C283 C284 1.439 . S
C283 H312 0.950 . S
C284 N280 1.383 . S
C284 C283 1.439 . S
C284 C302 1.392 1_655 S
N285 Co269 2.282 . S
N285 C288 1.332 . S
N285 C290 1.332 . S
C286 C287 1.419 . S
C286 C289 1.388 . S
C287 C286 1.419 . S
C287 C288 1.370 . S
C287 H313 0.930 1_455 S
C288 N285 1.332 . S
C288 C287 1.370 . S
C288 H299 0.952 1_455 S
C289 C286 1.388 . S
C289 C290 1.382 . S
C289 H314 0.950 . S
C290 N285 1.332 . S
C290 C289 1.382 . S
C290 H300 0.948 . S
N291 Co269 2.282 . S
N291 C295 1.332 . S
N291 C296 1.332 1_455 S
C292 C293 1.388 1_655 S
C292 C296 1.382 . S
C292 H315 0.950 . S
C293 C292 1.388 1_455 S
C293 C294 1.386 . S
C294 C293 1.386 . S
C294 C295 1.382 . S
C294 H316 0.950 . S
C295 N291 1.332 . S
C295 C294 1.382 . S
C295 H297 0.952 . S
C296 N291 1.332 1_655 S
C296 C292 1.382 . S
C296 H298 0.948 . S
H297 C295 0.952 . S
H298 C296 0.948 . S
H299 C288 0.952 1_655 S
H300 C290 0.948 . S
C301 C267 1.395 . S
C301 C271 1.391 . S
C302 C264 1.389 . S
C302 C284 1.392 1_455 S
C303 C274 1.392 . S
C303 C276 1.389 1_455 S
C304 C279 1.395 . S
C304 C281 1.391 . S
H305 C265 0.951 . S
H306 C266 0.950 . S
H307 C272 0.949 . S
H308 C273 0.950 . S
H309 C277 0.951 . S
H310 C278 0.950 . S
H311 C282 0.949 . S
H312 C283 0.950 . S
H313 C287 0.930 1_655 S
H314 C289 0.950 . S
H315 C292 0.950 . S
H316 C294 0.950 . S
C317 C318 1.443 1_545 S
C317 N321 1.376 . S
C317 C355 1.389 . S
C318 C317 1.443 1_565 S
C318 C319 1.340 . S
C318 H358 0.951 . S
C319 C318 1.340 . S
C319 C320 1.439 . S
C319 H359 0.950 . S
C320 C319 1.439 . S
C320 N321 1.374 1_565 S
C320 C354 1.395 . S
N321 C317 1.376 . S
N321 C320 1.374 1_545 S
N321 Co322 2.008 . S
Co322 N321 2.008 . S
Co322 N323 1.995 . S
Co322 N328 2.008 . S
Co322 N333 1.995 . S
Co322 N338 2.282 . S
Co322 N344 2.282 . S
N323 Co322 1.995 . S
N323 C324 1.376 1_545 S
N323 C327 1.383 . S
C324 N323 1.376 1_565 S
C324 C325 1.446 . S
C324 C354 1.391 . S
C325 C324 1.446 . S
C325 C326 1.339 . S
C325 H360 0.949 . S
C326 C325 1.339 . S
C326 C327 1.439 1_565 S
C326 H361 0.950 . S
C327 N323 1.383 . S
C327 C326 1.439 1_545 S
C327 C356 1.392 . S
N328 Co322 2.008 . S
N328 C329 1.376 . S
N328 C332 1.374 . S
C329 N328 1.376 . S
C329 C330 1.443 . S
C329 C356 1.389 . S
C330 C329 1.443 . S
C330 C331 1.340 . S
C330 H362 0.951 . S
C331 C330 1.340 . S
C331 C332 1.439 . S
C331 H363 0.950 . S
C332 N328 1.374 . S
C332 C331 1.439 . S
C332 C357 1.395 . S
N333 Co322 1.995 . S
N333 C334 1.376 . S
N333 C337 1.383 . S
C334 N333 1.376 . S
C334 C335 1.446 . S
C334 C357 1.391 . S
C335 C334 1.446 . S
C335 C336 1.339 . S
C335 H364 0.949 . S
C336 C335 1.339 . S
C336 C337 1.439 . S
C336 H365 0.950 . S
C337 N333 1.383 . S
C337 C336 1.439 . S
C337 C355 1.392 . S
N338 Co322 2.282 . S
N338 C341 1.332 . S
N338 C343 1.332 . S
C339 C340 1.386 . S
C339 C342 1.388 . S
C340 C339 1.386 . S
C340 C341 1.382 . S
C340 H366 0.950 . S
C341 N338 1.332 . S
C341 C340 1.382 . S
C341 H352 0.952 . S
C342 C339 1.388 . S
C342 C343 1.382 . S
C342 H367 0.950 . S
C343 N338 1.332 . S
C343 C342 1.382 . S
C343 H353 0.948 . S
N344 Co322 2.282 . S
N344 C348 1.332 . S
N344 C349 1.332 . S
C345 C346 1.388 . S
C345 C349 1.382 . S
C345 H368 0.950 . S
C346 C345 1.388 . S
C346 C347 1.386 . S
C347 C346 1.386 . S
C347 C348 1.382 . S
C347 H369 0.950 . S
C348 N344 1.332 . S
C348 C347 1.382 . S
C348 H350 0.952 . S
C349 N344 1.332 . S
C349 C345 1.382 . S
C349 H351 0.948 . S
H350 C348 0.952 . S
H351 C349 0.948 . S
H352 C341 0.952 . S
H353 C343 0.948 . S
C354 C320 1.395 . S
C354 C324 1.391 . S
C355 C317 1.389 . S
C355 C337 1.392 . S
C356 C327 1.392 . S
C356 C329 1.389 . S
C357 C332 1.395 . S
C357 C334 1.391 . S
H358 C318 0.951 . S
H359 C319 0.950 . S
H360 C325 0.949 . S
H361 C326 0.950 . S
H362 C330 0.951 . S
H363 C331 0.950 . S
H364 C335 0.949 . S
H365 C336 0.950 . S
H366 C340 0.950 . S
H367 C342 0.950 . S
H368 C345 0.950 . S
H369 C347 0.950 . S
C370 C371 1.443 . S
C370 N374 1.376 . S
C370 C408 1.389 . S
C371 C370 1.443 . S
C371 C372 1.340 . S
C371 H411 0.951 . S
C372 C371 1.340 . S
C372 C373 1.439 . S
C372 H412 0.950 . S
C373 C372 1.439 . S
C373 N374 1.374 . S
C373 C407 1.395 . S
N374 C370 1.376 . S
N374 C373 1.374 . S
N374 Co375 2.008 . S
Co375 N374 2.008 . S
Co375 N376 1.995 . S
Co375 N381 2.008 . S
Co375 N386 1.995 . S
Co375 N391 2.282 . S
Co375 N397 2.282 . S
N376 Co375 1.995 . S
N376 C377 1.376 . S
N376 C380 1.383 . S
C377 N376 1.376 . S
C377 C378 1.446 . S
C377 C407 1.391 . S
C378 C377 1.446 . S
C378 C379 1.339 . S
C378 H413 0.949 . S
C379 C378 1.339 . S
C379 C380 1.439 . S
C379 H414 0.950 . S
C380 N376 1.383 . S
C380 C379 1.439 . S
C380 C409 1.392 . S
N381 Co375 2.008 . S
N381 C382 1.376 . S
N381 C385 1.374 . S
C382 N381 1.376 . S
C382 C383 1.443 . S
C382 C409 1.389 . S
C383 C382 1.443 . S
C383 C384 1.340 . S
C383 H415 0.951 . S
C384 C383 1.340 . S
C384 C385 1.439 . S
C384 H416 0.950 . S
C385 N381 1.374 . S
C385 C384 1.439 . S
C385 C410 1.395 . S
N386 Co375 1.995 . S
N386 C387 1.376 . S
N386 C390 1.383 . S
C387 N386 1.376 . S
C387 C388 1.446 . S
C387 C410 1.391 . S
C388 C387 1.446 . S
C388 C389 1.339 . S
C388 H417 0.949 . S
C389 C388 1.339 . S
C389 C390 1.439 . S
C389 H418 0.950 . S
C390 N386 1.383 . S
C390 C389 1.439 . S
C390 C408 1.392 . S
N391 Co375 2.282 . S
N391 C394 1.332 . S
N391 C396 1.332 . S
C392 C393 1.386 . S
C392 C395 1.388 . S
C393 C392 1.386 . S
C393 C394 1.382 . S
C393 H419 0.950 . S
C394 N391 1.332 . S
C394 C393 1.382 . S
C394 H405 0.952 . S
C395 C392 1.388 . S
C395 C396 1.382 . S
C395 H420 0.950 . S
C396 N391 1.332 . S
C396 C395 1.382 . S
C396 H406 0.948 . S
N397 Co375 2.282 . S
N397 C401 1.332 . S
N397 C402 1.332 . S
C398 C399 1.388 . S
C398 C402 1.382 . S
C398 H421 0.950 . S
C399 C398 1.388 . S
C399 C400 1.386 . S
C400 C399 1.386 . S
C400 C401 1.382 . S
C400 H422 0.950 . S
C401 N397 1.332 . S
C401 C400 1.382 . S
C401 H403 0.952 . S
C402 N397 1.332 . S
C402 C398 1.382 . S
C402 H404 0.948 . S
H403 C401 0.952 . S
H404 C402 0.948 . S
H405 C394 0.952 . S
H406 C396 0.948 . S
C407 C373 1.395 . S
C407 C377 1.391 . S
C408 C370 1.389 . S
C408 C390 1.392 . S
C409 C380 1.392 . S
C409 C382 1.389 . S
C410 C385 1.395 . S
C410 C387 1.391 . S
H411 C371 0.951 . S
H412 C372 0.950 . S
H413 C378 0.949 . S
H414 C379 0.950 . S
H415 C383 0.951 . S
H416 C384 0.950 . S
H417 C388 0.949 . S
H418 C389 0.950 . S
H419 C393 0.950 . S
H420 C395 0.950 . S
H421 C398 0.950 . S
H422 C400 0.950 . S
H423 C431 0.916 1_655 S
H424 C433 0.930 1_655 S
H425 C435 0.930 . S
H426 C438 0.929 . S
H427 C441 0.930 . S
H428 C443 0.960 . S
H429 C443 0.960 . S
H430 C443 0.960 . S
C431 H423 0.916 1_455 S
C431 C432 1.404 . S
C431 C433 1.372 . S
C432 C431 1.404 . S
C432 C438 1.390 . S
C433 H424 0.930 1_455 S
C433 C431 1.372 . S
C433 C434 1.372 . S
C434 C433 1.372 . S
C434 C435 1.400 . S
C434 C439 1.490 . S
C435 H425 0.930 . S
C435 C434 1.400 . S
C435 C438 1.386 . S
H436 C452 0.930 . S
H437 C453 0.931 . S
C438 H426 0.929 . S
C438 C432 1.390 . S
C438 C435 1.386 . S
C439 C434 1.490 . S
C439 C441 1.395 1_455 S
C439 C442 1.403 . S
H440 C446 0.930 . S
C441 H427 0.930 . S
C441 C439 1.395 1_655 S
C441 C444 1.403 . S
C442 C439 1.403 . S
C442 C443 1.524 . S
C442 C446 1.400 . S
C443 H428 0.960 . S
C443 H429 0.960 . S
C443 H430 0.960 . S
C443 C442 1.524 . S
C444 C441 1.403 . S
C444 C445 1.392 1_655 S
C444 C448 1.495 . S
C445 C444 1.392 1_455 S
C445 C446 1.385 . S
C445 C447 1.478 . S
C446 H440 0.930 . S
C446 C442 1.400 . S
C446 C445 1.385 . S
C447 C445 1.478 . S
C447 C449 1.381 . S
C447 C453 1.383 . S
C448 C444 1.495 . S
C448 H454 0.959 . S
C448 H455 0.961 . S
C448 H456 0.960 . S
C449 C447 1.381 . S
C449 C450 1.394 . S
C449 H457 0.930 . S
C450 C449 1.394 . S
C450 C451 1.383 . S
C450 H458 0.929 . S
C451 C450 1.383 . S
C451 C452 1.377 . S
C452 H436 0.930 . S
C452 C451 1.377 . S
C452 C453 1.379 . S
C453 H437 0.931 . S
C453 C447 1.383 . S
C453 C452 1.379 . S
H454 C448 0.959 . S
H455 C448 0.961 . S
H456 C448 0.960 . S
H457 C449 0.930 . S
H458 C450 0.929 . S
H459 C467 0.929 1_565 S
H460 C469 0.930 1_565 S
H461 C471 0.930 . S
H462 C474 0.929 . S
H463 C477 0.930 1_565 S
H464 C479 0.960 . S
H465 C479 0.960 . S
H466 C479 0.960 . S
C467 H459 0.929 1_545 S
C467 C468 1.377 . S
C467 C469 1.384 . S
C468 C467 1.377 . S
C468 C474 1.390 . S
C469 H460 0.930 1_545 S
C469 C467 1.384 . S
C469 C470 1.372 . S
C470 C469 1.372 . S
C470 C471 1.400 . S
C470 C475 1.490 . S
C471 H461 0.930 . S
C471 C470 1.400 . S
C471 C474 1.386 . S
H472 C488 0.930 . S
H473 C489 0.931 . S
C474 H462 0.929 . S
C474 C468 1.390 . S
C474 C471 1.386 . S
C475 C470 1.490 . S
C475 C477 1.395 . S
C475 C478 1.403 . S
H476 C482 0.930 . S
C477 H463 0.930 1_545 S
C477 C475 1.395 . S
C477 C480 1.403 . S
C478 C475 1.403 . S
C478 C479 1.524 . S
C478 C482 1.400 . S
C479 H464 0.960 . S
C479 H465 0.960 . S
C479 H466 0.960 . S
C479 C478 1.524 . S
C480 C477 1.403 . S
C480 C481 1.392 . S
C480 C484 1.495 1_545 S
C481 C480 1.392 . S
C481 C482 1.385 . S
C481 C483 1.478 . S
C482 H476 0.930 . S
C482 C478 1.400 . S
C482 C481 1.385 . S
C483 C481 1.478 . S
C483 C485 1.381 . S
C483 C489 1.383 . S
C484 C480 1.495 1_565 S
C484 H490 0.959 . S
C484 H491 0.961 . S
C484 H492 0.960 . S
C485 C483 1.381 . S
C485 C486 1.394 . S
C485 H493 0.930 . S
C486 C485 1.394 . S
C486 C487 1.383 . S
C486 H494 0.929 . S
C487 C486 1.383 . S
C487 C488 1.377 . S
C488 H472 0.930 . S
C488 C487 1.377 . S
C488 C489 1.379 . S
C489 H473 0.931 . S
C489 C483 1.383 . S
C489 C488 1.379 . S
H490 C484 0.959 . S
H491 C484 0.961 . S
H492 C484 0.960 . S
H493 C485 0.930 . S
H494 C486 0.929 . S
H495 C503 0.929 . S
H496 C505 0.930 . S
H497 C507 0.930 . S
H498 C510 0.929 . S
H499 C513 0.930 . S
H500 C515 0.960 . S
H501 C515 0.960 . S
H502 C515 0.960 . S
C503 H495 0.929 . S
C503 C504 1.377 . S
C503 C505 1.384 . S
C504 C503 1.377 . S
C504 C510 1.390 . S
C505 H496 0.930 . S
C505 C503 1.384 . S
C505 C506 1.372 . S
C506 C505 1.372 . S
C506 C507 1.400 . S
C506 C511 1.490 . S
C507 H497 0.930 . S
C507 C506 1.400 . S
C507 C510 1.386 . S
H508 C524 0.930 . S
H509 C525 0.931 . S
C510 H498 0.929 . S
C510 C504 1.390 . S
C510 C507 1.386 . S
C511 C506 1.490 . S
C511 C513 1.395 . S
C511 C514 1.403 . S
H512 C518 0.930 . S
C513 H499 0.930 . S
C513 C511 1.395 . S
C513 C516 1.403 . S
C514 C511 1.403 . S
C514 C515 1.524 . S
C514 C518 1.400 . S
C515 H500 0.960 . S
C515 H501 0.960 . S
C515 H502 0.960 . S
C515 C514 1.524 . S
C516 C513 1.403 . S
C516 C517 1.392 . S
C516 C520 1.495 . S
C517 C516 1.392 . S
C517 C518 1.385 . S
C517 C519 1.478 . S
C518 H512 0.930 . S
C518 C514 1.400 . S
C518 C517 1.385 . S
C519 C517 1.478 . S
C519 C521 1.381 . S
C519 C525 1.383 . S
C520 C516 1.495 . S
C520 H526 0.959 . S
C520 H527 0.961 . S
C520 H528 0.960 . S
C521 C519 1.381 . S
C521 C522 1.394 . S
C521 H529 0.930 . S
C522 C521 1.394 . S
C522 C523 1.383 . S
C522 H530 0.929 . S
C523 C522 1.383 . S
C523 C524 1.377 . S
C524 H508 0.930 . S
C524 C523 1.377 . S
C524 C525 1.379 . S
C525 H509 0.931 . S
C525 C519 1.383 . S
C525 C524 1.379 . S
H526 C520 0.959 . S
H527 C520 0.961 . S
H528 C520 0.960 . S
H529 C521 0.930 . S
H530 C522 0.929 . S
H531 C539 0.929 . S
H532 C541 0.930 . S
H533 C543 0.930 . S
H534 C546 0.929 . S
H535 C549 0.930 . S
H536 C551 0.960 . S
H537 C551 0.960 . S
H538 C551 0.960 . S
C539 H531 0.929 . S
C539 C540 1.377 . S
C539 C541 1.384 . S
C540 C539 1.377 . S
C540 C546 1.390 . S
C541 H532 0.930 . S
C541 C539 1.384 . S
C541 C542 1.372 . S
C542 C541 1.372 . S
C542 C543 1.400 . S
C542 C547 1.490 . S
C543 H533 0.930 . S
C543 C542 1.400 . S
C543 C546 1.386 . S
H544 C560 0.930 . S
H545 C561 0.931 . S
C546 H534 0.929 . S
C546 C540 1.390 . S
C546 C543 1.386 . S
C547 C542 1.490 . S
C547 C549 1.395 . S
C547 C550 1.403 . S
H548 C554 0.930 . S
C549 H535 0.930 . S
C549 C547 1.395 . S
C549 C552 1.403 . S
C550 C547 1.403 . S
C550 C551 1.524 . S
C550 C554 1.400 . S
C551 H536 0.960 . S
C551 H537 0.960 . S
C551 H538 0.960 . S
C551 C550 1.524 . S
C552 C549 1.403 . S
C552 C553 1.392 . S
C552 C556 1.495 . S
C553 C552 1.392 . S
C553 C554 1.385 . S
C553 C555 1.478 . S
C554 H548 0.930 . S
C554 C550 1.400 . S
C554 C553 1.385 . S
C555 C553 1.478 . S
C555 C557 1.381 . S
C555 C561 1.383 . S
C556 C552 1.495 . S
C556 H562 0.959 . S
C556 H563 0.961 . S
C556 H564 0.960 1_455 S
C557 C555 1.381 . S
C557 C558 1.394 . S
C557 H565 0.930 1_455 S
C558 C557 1.394 . S
C558 C559 1.383 . S
C558 H566 0.929 1_455 S
C559 C558 1.383 . S
C559 C560 1.377 . S
C560 H544 0.930 . S
C560 C559 1.377 . S
C560 C561 1.379 . S
C561 H545 0.931 . S
C561 C555 1.383 . S
C561 C560 1.379 . S
H562 C556 0.959 . S
H563 C556 0.961 . S
H564 C556 0.960 1_655 S
H565 C557 0.930 1_655 S
H566 C558 0.929 1_655 S
H567 C575 0.929 . S
H568 C577 0.930 . S
H569 C579 0.930 . S
H570 C582 0.929 . S
H571 C585 0.930 . S
H572 C587 0.960 . S
H573 C587 0.960 . S
H574 C587 0.960 . S
C575 H567 0.929 . S
C575 C576 1.377 . S
C575 C577 1.384 . S
C576 C575 1.377 . S
C576 C582 1.390 . S
C577 H568 0.930 . S
C577 C575 1.384 . S
C577 C578 1.372 . S
C578 C577 1.372 . S
C578 C579 1.400 . S
C578 C583 1.490 . S
C579 H569 0.930 . S
C579 C578 1.400 . S
C579 C582 1.386 . S
H580 C596 0.930 . S
H581 C597 0.931 . S
C582 H570 0.929 . S
C582 C576 1.390 . S
C582 C579 1.386 . S
C583 C578 1.490 . S
C583 C585 1.395 . S
C583 C586 1.403 . S
H584 C590 0.930 . S
C585 H571 0.930 . S
C585 C583 1.395 . S
C585 C588 1.403 . S
C586 C583 1.403 . S
C586 C587 1.524 . S
C586 C590 1.400 . S
C587 H572 0.960 . S
C587 H573 0.960 . S
C587 H574 0.960 . S
C587 C586 1.524 . S
C588 C585 1.403 . S
C588 C589 1.392 . S
C588 C592 1.495 . S
C589 C588 1.392 . S
C589 C590 1.385 . S
C589 C591 1.478 . S
C590 H584 0.930 . S
C590 C586 1.400 . S
C590 C589 1.385 . S
C591 C589 1.478 . S
C591 C593 1.381 . S
C591 C597 1.383 . S
C592 C588 1.495 . S
C592 H598 0.959 . S
C592 H599 0.961 . S
C592 H600 0.960 . S
C593 C591 1.381 . S
C593 C594 1.394 . S
C593 H601 0.930 . S
C594 C593 1.394 . S
C594 C595 1.383 . S
C594 H602 0.929 . S
C595 C594 1.383 . S
C595 C596 1.377 . S
C596 H580 0.930 . S
C596 C595 1.377 . S
C596 C597 1.379 . S
C597 H581 0.931 . S
C597 C591 1.383 . S
C597 C596 1.379 . S
H598 C592 0.959 . S
H599 C592 0.961 . S
H600 C592 0.960 . S
H601 C593 0.930 . S
H602 C594 0.929 . S
H603 C611 0.929 . S
H604 C613 0.930 . S
H605 C615 0.930 . S
H606 C618 0.929 . S
H607 C621 0.930 . S
H608 C623 0.960 . S
H609 C623 0.960 . S
H610 C623 0.960 . S
C611 H603 0.929 . S
C611 C612 1.377 . S
C611 C613 1.384 . S
C612 C611 1.377 . S
C612 C618 1.390 . S
C613 H604 0.930 . S
C613 C611 1.384 . S
C613 C614 1.372 . S
C614 C613 1.372 . S
C614 C615 1.400 . S
C614 C619 1.490 . S
C615 H605 0.930 . S
C615 C614 1.400 . S
C615 C618 1.386 . S
H616 C632 0.930 . S
H617 C633 0.931 . S
C618 H606 0.929 . S
C618 C612 1.390 . S
C618 C615 1.386 . S
C619 C614 1.490 . S
C619 C621 1.395 . S
C619 C622 1.403 . S
H620 C626 0.930 . S
C621 H607 0.930 . S
C621 C619 1.395 . S
C621 C624 1.403 . S
C622 C619 1.403 . S
C622 C623 1.524 . S
C622 C626 1.400 . S
C623 H608 0.960 . S
C623 H609 0.960 . S
C623 H610 0.960 . S
C623 C622 1.524 . S
C624 C621 1.403 . S
C624 C625 1.392 . S
C624 C628 1.495 . S
C625 C624 1.392 . S
C625 C626 1.385 . S
C625 C627 1.478 . S
C626 H620 0.930 . S
C626 C622 1.400 . S
C626 C625 1.385 . S
C627 C625 1.478 . S
C627 C629 1.381 . S
C627 C633 1.383 . S
C628 C624 1.495 . S
C628 H634 0.959 . S
C628 H635 0.961 . S
C628 H636 0.960 . S
C629 C627 1.381 . S
C629 C630 1.394 . S
C629 H637 0.930 . S
C630 C629 1.394 . S
C630 C631 1.383 . S
C630 H638 0.929 . S
C631 C630 1.383 . S
C631 C632 1.377 . S
C632 H616 0.930 . S
C632 C631 1.377 . S
C632 C633 1.379 . S
C633 H617 0.931 . S
C633 C627 1.383 . S
C633 C632 1.379 . S
H634 C628 0.959 . S
H635 C628 0.961 . S
H636 C628 0.960 . S
H637 C629 0.930 . S
H638 C630 0.929 . S
H639 C647 0.929 . S
H640 C649 0.930 . S
H641 C651 0.930 . S
H642 C654 0.929 . S
H643 C657 0.930 . S
H644 C659 0.960 . S
H645 C659 0.960 . S
H646 C659 0.960 . S
C647 H639 0.929 . S
C647 C648 1.377 . S
C647 C649 1.384 . S
C648 C647 1.377 . S
C648 C654 1.390 . S
C649 H640 0.930 . S
C649 C647 1.384 . S
C649 C650 1.372 . S
C650 C649 1.372 . S
C650 C651 1.400 . S
C650 C655 1.490 . S
C651 H641 0.930 . S
C651 C650 1.400 . S
C651 C654 1.386 . S
H652 C668 0.930 . S
H653 C669 0.931 . S
C654 H642 0.929 . S
C654 C648 1.390 . S
C654 C651 1.386 . S
C655 C650 1.490 . S
C655 C657 1.395 . S
C655 C658 1.403 . S
H656 C662 0.930 . S
C657 H643 0.930 . S
C657 C655 1.395 . S
C657 C660 1.403 . S
C658 C655 1.403 . S
C658 C659 1.524 . S
C658 C662 1.400 . S
C659 H644 0.960 . S
C659 H645 0.960 . S
C659 H646 0.960 . S
C659 C658 1.524 . S
C660 C657 1.403 . S
C660 C661 1.392 . S
C660 C664 1.495 . S
C661 C660 1.392 . S
C661 C662 1.385 . S
C661 C663 1.478 . S
C662 H656 0.930 . S
C662 C658 1.400 . S
C662 C661 1.385 . S
C663 C661 1.478 . S
C663 C665 1.381 . S
C663 C669 1.383 . S
C664 C660 1.495 . S
C664 H670 0.959 . S
C664 H671 0.961 . S
C664 H672 0.960 . S
C665 C663 1.381 . S
C665 C666 1.394 . S
C665 H673 0.930 . S
C666 C665 1.394 . S
C666 C667 1.383 . S
C666 H674 0.929 . S
C667 C666 1.383 . S
C667 C668 1.377 . S
C668 H652 0.930 . S
C668 C667 1.377 . S
C668 C669 1.379 . S
C669 H653 0.931 . S
C669 C663 1.383 . S
C669 C668 1.379 . S
H670 C664 0.959 . S
H671 C664 0.961 . S
H672 C664 0.960 . S
H673 C665 0.930 . S
H674 C666 0.929 . S
H675 C683 0.929 . S
H676 C685 0.930 . S
H677 C687 0.930 . S
H678 C690 0.929 1_554 S
H679 C693 0.930 . S
H680 C695 0.960 . S
H681 C695 0.960 . S
H682 C695 0.960 . S
C683 H675 0.929 . S
C683 C684 1.377 . S
C683 C685 1.384 . S
C684 C683 1.377 . S
C684 C690 1.390 . S
C685 H676 0.930 . S
C685 C683 1.384 . S
C685 C686 1.372 . S
C686 C685 1.372 . S
C686 C687 1.400 . S
C686 C691 1.490 . S
C687 H677 0.930 . S
C687 C686 1.400 . S
C687 C690 1.386 . S
H688 C704 0.930 . S
H689 C705 0.931 . S
C690 H678 0.929 1_556 S
C690 C684 1.390 . S
C690 C687 1.386 . S
C691 C686 1.490 . S
C691 C693 1.395 . S
C691 C694 1.403 . S
H692 C698 0.930 . S
C693 H679 0.930 . S
C693 C691 1.395 . S
C693 C696 1.403 . S
C694 C691 1.403 . S
C694 C695 1.524 . S
C694 C698 1.400 . S
C695 H680 0.960 . S
C695 H681 0.960 . S
C695 H682 0.960 . S
C695 C694 1.524 . S
C696 C693 1.403 . S
C696 C697 1.392 . S
C696 C700 1.495 . S
C697 C696 1.392 . S
C697 C698 1.385 . S
C697 C699 1.478 . S
C698 H692 0.930 . S
C698 C694 1.400 . S
C698 C697 1.385 . S
C699 C697 1.478 . S
C699 C701 1.381 . S
C699 C705 1.383 . S
C700 C696 1.495 . S
C700 H706 0.959 . S
C700 H707 0.961 . S
C700 H708 0.960 . S
C701 C699 1.381 . S
C701 C702 1.394 . S
C701 H709 0.930 . S
C702 C701 1.394 . S
C702 C703 1.383 . S
C702 H710 0.929 . S
C703 C702 1.383 . S
C703 C704 1.377 . S
C704 H688 0.930 . S
C704 C703 1.377 . S
C704 C705 1.379 . S
C705 H689 0.931 . S
C705 C699 1.383 . S
C705 C704 1.379 . S
H706 C700 0.959 . S
H707 C700 0.961 . S
H708 C700 0.960 . S
H709 C701 0.930 . S
H710 C702 0.929 . S
H711 C719 0.929 . S
H712 C721 0.930 . S
H713 C723 0.930 . S
H714 C726 0.929 . S
H715 C729 0.930 . S
H716 C731 0.960 . S
H717 C731 0.960 . S
H718 C731 0.960 . S
C719 H711 0.929 . S
C719 C720 1.377 1_455 S
C719 C721 1.384 . S
C720 C719 1.377 1_655 S
C720 C726 1.390 . S
C721 H712 0.930 . S
C721 C719 1.384 . S
C721 C722 1.372 . S
C722 C721 1.372 . S
C722 C723 1.400 1_455 S
C722 C727 1.490 . S
C723 H713 0.930 . S
C723 C722 1.400 1_655 S
C723 C726 1.386 . S
H724 C740 0.930 1_655 S
H725 C741 0.951 . S
C726 H714 0.929 . S
C726 C720 1.390 . S
C726 C723 1.386 . S
C727 C722 1.490 . S
C727 C729 1.395 1_455 S
C727 C730 1.403 . S
H728 C734 0.930 . S
C729 H715 0.930 . S
C729 C727 1.395 1_655 S
C729 C732 1.403 . S
C730 C727 1.403 . S
C730 C731 1.524 . S
C730 C734 1.400 . S
C731 H716 0.960 . S
C731 H717 0.960 . S
C731 H718 0.960 . S
C731 C730 1.524 . S
C732 C729 1.403 . S
C732 C733 1.392 1_655 S
C732 C736 1.495 . S
C733 C732 1.392 1_455 S
C733 C734 1.385 . S
C733 C735 1.478 . S
C734 H728 0.930 . S
C734 C730 1.400 . S
C734 C733 1.385 . S
C735 C733 1.478 . S
C735 C737 1.381 . S
C735 C741 1.374 1_455 S
C736 C732 1.495 . S
C736 H742 0.959 . S
C736 H743 0.961 . S
C736 H744 0.960 . S
C737 C735 1.381 . S
C737 C738 1.394 . S
C737 H745 0.930 . S
C738 C737 1.394 . S
C738 C739 1.383 . S
C738 H746 0.929 . S
C739 C738 1.383 . S
C739 C740 1.377 . S
C740 H724 0.930 1_455 S
C740 C739 1.377 . S
C740 C741 1.369 1_455 S
C741 H725 0.951 . S
C741 C735 1.374 1_655 S
C741 C740 1.369 1_655 S
H742 C736 0.959 . S
H743 C736 0.961 . S
H744 C736 0.960 . S
H745 C737 0.930 . S
H746 C738 0.929 . S
H747 C755 0.929 . S
H748 C757 0.930 . S
H749 C759 0.934 . S
H750 C762 0.929 . S
H751 C765 0.930 1_565 S
H752 C767 0.960 . S
H753 C767 0.960 . S
H754 C767 0.960 . S
C755 H747 0.929 . S
C755 C756 1.377 . S
C755 C757 1.384 . S
C756 C755 1.377 . S
C756 C762 1.390 1_545 S
C757 H748 0.930 . S
C757 C755 1.384 . S
C757 C758 1.372 . S
C758 C757 1.372 . S
C758 C759 1.399 1_545 S
C758 C763 1.490 . S
C759 H749 0.934 . S
C759 C758 1.399 1_565 S
C759 C762 1.383 . S
H760 C776 0.930 . S
H761 C777 0.931 . S
C762 H750 0.929 . S
C762 C756 1.390 1_565 S
C762 C759 1.383 . S
C763 C758 1.490 . S
C763 C765 1.395 . S
C763 C766 1.403 . S
H764 C770 0.930 . S
C765 H751 0.930 1_545 S
C765 C763 1.395 . S
C765 C768 1.403 . S
C766 C763 1.403 . S
C766 C767 1.524 . S
C766 C770 1.400 . S
C767 H752 0.960 . S
C767 H753 0.960 . S
C767 H754 0.960 . S
C767 C766 1.524 . S
C768 C765 1.403 . S
C768 C769 1.392 . S
C768 C772 1.495 1_545 S
C769 C768 1.392 . S
C769 C770 1.385 . S
C769 C771 1.478 . S
C770 H764 0.930 . S
C770 C766 1.400 . S
C770 C769 1.385 . S
C771 C769 1.478 . S
C771 C773 1.381 . S
C771 C777 1.383 . S
C772 C768 1.495 1_565 S
C772 H778 0.959 . S
C772 H779 0.961 . S
C772 H780 0.960 1_565 S
C773 C771 1.381 . S
C773 C774 1.394 . S
C773 H781 0.930 . S
C774 C773 1.394 . S
C774 C775 1.383 . S
C774 H782 0.929 . S
C775 C774 1.383 . S
C775 C776 1.377 . S
C776 H760 0.930 . S
C776 C775 1.377 . S
C776 C777 1.379 . S
C777 H761 0.931 . S
C777 C771 1.383 . S
C777 C776 1.379 . S
H778 C772 0.959 . S
H779 C772 0.961 . S
H780 C772 0.960 1_545 S
H781 C773 0.930 . S
H782 C774 0.929 . S
H783 C791 0.929 . S
H784 C793 0.930 . S
H785 C795 0.930 . S
H786 C798 0.929 . S
H787 C801 0.930 . S
H788 C803 0.960 . S
H789 C803 0.960 . S
H790 C803 0.960 . S
C791 H783 0.929 . S
C791 C792 1.377 . S
C791 C793 1.384 . S
C792 C791 1.377 . S
C792 C798 1.390 . S
C793 H784 0.930 . S
C793 C791 1.384 . S
C793 C794 1.372 . S
C794 C793 1.372 . S
C794 C795 1.400 . S
C794 C799 1.490 . S
C795 H785 0.930 . S
C795 C794 1.400 . S
C795 C798 1.386 . S
H796 C812 0.930 . S
H797 C813 0.931 . S
C798 H786 0.929 . S
C798 C792 1.390 . S
C798 C795 1.386 . S
C799 C794 1.490 . S
C799 C801 1.395 . S
C799 C802 1.403 . S
H800 C806 0.930 . S
C801 H787 0.930 . S
C801 C799 1.395 . S
C801 C804 1.403 . S
C802 C799 1.403 . S
C802 C803 1.524 . S
C802 C806 1.400 . S
C803 H788 0.960 . S
C803 H789 0.960 . S
C803 H790 0.960 . S
C803 C802 1.524 . S
C804 C801 1.403 . S
C804 C805 1.392 . S
C804 C808 1.495 . S
C805 C804 1.392 . S
C805 C806 1.385 . S
C805 C807 1.478 . S
C806 H800 0.930 . S
C806 C802 1.400 . S
C806 C805 1.385 . S
C807 C805 1.478 . S
C807 C809 1.381 . S
C807 C813 1.383 . S
C808 C804 1.495 . S
C808 H814 0.959 . S
C808 H815 0.961 . S
C808 H816 0.960 . S
C809 C807 1.381 . S
C809 C810 1.394 . S
C809 H817 0.930 . S
C810 C809 1.394 . S
C810 C811 1.383 . S
C810 H818 0.929 . S
C811 C810 1.383 . S
C811 C812 1.377 . S
C812 H796 0.930 . S
C812 C811 1.377 . S
C812 C813 1.379 . S
C813 H797 0.931 . S
C813 C807 1.383 . S
C813 C812 1.379 . S
H814 C808 0.959 . S
H815 C808 0.961 . S
H816 C808 0.960 . S
H817 C809 0.930 . S
H818 C810 0.929 . S
H819 C827 0.929 . S
H820 C829 0.930 . S
H821 C831 0.930 . S
H822 C834 0.929 . S
H823 C837 0.930 . S
H824 C839 0.960 . S
H825 C839 0.960 . S
H826 C839 0.960 . S
C827 H819 0.929 . S
C827 C828 1.377 . S
C827 C829 1.384 . S
C828 C827 1.377 . S
C828 C834 1.390 . S
C829 H820 0.930 . S
C829 C827 1.384 . S
C829 C830 1.372 . S
C830 C829 1.372 . S
C830 C831 1.400 . S
C830 C835 1.490 . S
C831 H821 0.930 . S
C831 C830 1.400 . S
C831 C834 1.386 . S
H832 C848 0.930 . S
H833 C849 0.931 . S
C834 H822 0.929 . S
C834 C828 1.390 . S
C834 C831 1.386 . S
C835 C830 1.490 . S
C835 C837 1.395 . S
C835 C838 1.403 . S
H836 C842 0.930 . S
C837 H823 0.930 . S
C837 C835 1.395 . S
C837 C840 1.403 . S
C838 C835 1.403 . S
C838 C839 1.524 . S
C838 C842 1.400 . S
C839 H824 0.960 . S
C839 H825 0.960 . S
C839 H826 0.960 . S
C839 C838 1.524 . S
C840 C837 1.403 . S
C840 C841 1.392 . S
C840 C844 1.495 1_455 S
C841 C840 1.392 . S
C841 C842 1.385 . S
C841 C843 1.478 . S
C842 H836 0.930 . S
C842 C838 1.400 . S
C842 C841 1.385 . S
C843 C841 1.478 . S
C843 C845 1.381 . S
C843 C849 1.383 . S
C844 C840 1.495 1_655 S
C844 H850 0.959 . S
C844 H851 0.961 . S
C844 H852 0.960 . S
C845 C843 1.381 . S
C845 C846 1.394 . S
C845 H853 0.930 . S
C846 C845 1.394 . S
C846 C847 1.383 . S
C846 H854 0.929 . S
C847 C846 1.383 . S
C847 C848 1.377 . S
C848 H832 0.930 . S
C848 C847 1.377 . S
C848 C849 1.379 . S
C849 H833 0.931 . S
C849 C843 1.383 . S
C849 C848 1.379 . S
H850 C844 0.959 . S
H851 C844 0.961 . S
H852 C844 0.960 . S
H853 C845 0.930 . S
H854 C846 0.929 . S
C451 C286 1.393 . S
C432 C29 1.386 . S
C468 C137 1.404 . S
C487 C356 1.410 . S
C504 C225 1.412 . S
C523 C408 1.429 . S
C540 C49 1.412 . S
C559 C302 1.424 . S
C595 C346 1.403 . S
C576 C117 1.395 . S
C612 C205 1.389 . S
C631 C392 1.395 . S
C667 C339 1.400 . S
C648 C233 1.390 . S
C684 C57 1.399 . S
C703 C399 1.402 . S
C739 C293 1.394 . S
C720 C108 1.390 . S
C775 C355 1.414 . S
C756 C196 1.410 . S
C811 C409 1.416 . S
C792 C20 1.405 . S
C828 C145 1.408 . S
C847 C303 1.424 . S
