# Generated by pormake.
# Topology gar, (4,6)-cn, num edge types: 1
# Building blocks:
#     Node 0, Type 0, BuildingBlock: AZAVOO_clean_sbu_0, # of connection points: 4
#     Node 1, Type 0, BuildingBlock: AZAVOO_clean_sbu_0, # of connection points: 4
#     Node 2, Type 0, BuildingBlock: AZAVOO_clean_sbu_0, # of connection points: 4
#     Node 3, Type 0, BuildingBlock: AZAVOO_clean_sbu_0, # of connection points: 4
#     Node 4, Type 0, BuildingBlock: AZAVOO_clean_sbu_0, # of connection points: 4
#     Node 5, Type 0, BuildingBlock: AZAVOO_clean_sbu_0, # of connection points: 4
#     Node 6, Type 0, BuildingBlock: AZAVOO_clean_sbu_0, # of connection points: 4
#     Node 7, Type 0, BuildingBlock: AZAVOO_clean_sbu_0, # of connection points: 4
#     Node 8, Type 0, BuildingBlock: AZAVOO_clean_sbu_0, # of connection points: 4
#     Node 9, Type 0, BuildingBlock: AZAVOO_clean_sbu_0, # of connection points: 4
#     Node 10, Type 0, BuildingBlock: AZAVOO_clean_sbu_0, # of connection points: 4
#     Node 11, Type 0, BuildingBlock: AZAVOO_clean_sbu_0, # of connection points: 4
#     Node 12, Type 0, BuildingBlock: AZAVOO_clean_sbu_0, # of connection points: 4
#     Node 13, Type 0, BuildingBlock: AZAVOO_clean_sbu_0, # of connection points: 4
#     Node 14, Type 0, BuildingBlock: AZAVOO_clean_sbu_0, # of connection points: 4
#     Node 15, Type 0, BuildingBlock: AZAVOO_clean_sbu_0, # of connection points: 4
#     Node 16, Type 0, BuildingBlock: AZAVOO_clean_sbu_0, # of connection points: 4
#     Node 17, Type 0, BuildingBlock: AZAVOO_clean_sbu_0, # of connection points: 4
#     Node 18, Type 0, BuildingBlock: AZAVOO_clean_sbu_0, # of connection points: 4
#     Node 19, Type 0, BuildingBlock: AZAVOO_clean_sbu_0, # of connection points: 4
#     Node 20, Type 0, BuildingBlock: AZAVOO_clean_sbu_0, # of connection points: 4
#     Node 21, Type 0, BuildingBlock: AZAVOO_clean_sbu_0, # of connection points: 4
#     Node 22, Type 0, BuildingBlock: AZAVOO_clean_sbu_0, # of connection points: 4
#     Node 23, Type 0, BuildingBlock: AZAVOO_clean_sbu_0, # of connection points: 4
#     Node 24, Type 1, BuildingBlock: NUHQIS_clean_sbu_0, # of connection points: 6
#     Node 25, Type 1, BuildingBlock: NUHQIS_clean_sbu_0, # of connection points: 6
#     Node 26, Type 1, BuildingBlock: NUHQIS_clean_sbu_0, # of connection points: 6
#     Node 27, Type 1, BuildingBlock: NUHQIS_clean_sbu_0, # of connection points: 6
#     Node 28, Type 1, BuildingBlock: NUHQIS_clean_sbu_0, # of connection points: 6
#     Node 29, Type 1, BuildingBlock: NUHQIS_clean_sbu_0, # of connection points: 6
#     Node 30, Type 1, BuildingBlock: NUHQIS_clean_sbu_0, # of connection points: 6
#     Node 31, Type 1, BuildingBlock: NUHQIS_clean_sbu_0, # of connection points: 6
#     Node 32, Type 1, BuildingBlock: NUHQIS_clean_sbu_0, # of connection points: 6
#     Node 33, Type 1, BuildingBlock: NUHQIS_clean_sbu_0, # of connection points: 6
#     Node 34, Type 1, BuildingBlock: NUHQIS_clean_sbu_0, # of connection points: 6
#     Node 35, Type 1, BuildingBlock: NUHQIS_clean_sbu_0, # of connection points: 6
#     Node 36, Type 1, BuildingBlock: NUHQIS_clean_sbu_0, # of connection points: 6
#     Node 37, Type 1, BuildingBlock: NUHQIS_clean_sbu_0, # of connection points: 6
#     Node 38, Type 1, BuildingBlock: NUHQIS_clean_sbu_0, # of connection points: 6
#     Node 39, Type 1, BuildingBlock: NUHQIS_clean_sbu_0, # of connection points: 6
#     Edge 40, Type (0, 1), BuildingBlock: KIFKEQ_clean_linker_1, # of connection points: 2
#     Edge 41, Type (0, 1), BuildingBlock: KIFKEQ_clean_linker_1, # of connection points: 2
#     Edge 42, Type (0, 1), BuildingBlock: KIFKEQ_clean_linker_1, # of connection points: 2
#     Edge 43, Type (0, 1), BuildingBlock: KIFKEQ_clean_linker_1, # of connection points: 2
#     Edge 44, Type (0, 1), BuildingBlock: KIFKEQ_clean_linker_1, # of connection points: 2
#     Edge 45, Type (0, 1), BuildingBlock: KIFKEQ_clean_linker_1, # of connection points: 2
#     Edge 46, Type (0, 1), BuildingBlock: KIFKEQ_clean_linker_1, # of connection points: 2
#     Edge 47, Type (0, 1), BuildingBlock: KIFKEQ_clean_linker_1, # of connection points: 2
#     Edge 48, Type (0, 1), BuildingBlock: KIFKEQ_clean_linker_1, # of connection points: 2
#     Edge 49, Type (0, 1), BuildingBlock: KIFKEQ_clean_linker_1, # of connection points: 2
#     Edge 50, Type (0, 1), BuildingBlock: KIFKEQ_clean_linker_1, # of connection points: 2
#     Edge 51, Type (0, 1), BuildingBlock: KIFKEQ_clean_linker_1, # of connection points: 2
#     Edge 52, Type (0, 1), BuildingBlock: KIFKEQ_clean_linker_1, # of connection points: 2
#     Edge 53, Type (0, 1), BuildingBlock: KIFKEQ_clean_linker_1, # of connection points: 2
#     Edge 54, Type (0, 1), BuildingBlock: KIFKEQ_clean_linker_1, # of connection points: 2
#     Edge 55, Type (0, 1), BuildingBlock: KIFKEQ_clean_linker_1, # of connection points: 2
#     Edge 56, Type (0, 1), BuildingBlock: KIFKEQ_clean_linker_1, # of connection points: 2
#     Edge 57, Type (0, 1), BuildingBlock: KIFKEQ_clean_linker_1, # of connection points: 2
#     Edge 58, Type (0, 1), BuildingBlock: KIFKEQ_clean_linker_1, # of connection points: 2
#     Edge 59, Type (0, 1), BuildingBlock: KIFKEQ_clean_linker_1, # of connection points: 2
#     Edge 60, Type (0, 1), BuildingBlock: KIFKEQ_clean_linker_1, # of connection points: 2
#     Edge 61, Type (0, 1), BuildingBlock: KIFKEQ_clean_linker_1, # of connection points: 2
#     Edge 62, Type (0, 1), BuildingBlock: KIFKEQ_clean_linker_1, # of connection points: 2
#     Edge 63, Type (0, 1), BuildingBlock: KIFKEQ_clean_linker_1, # of connection points: 2
#     Edge 64, Type (0, 1), BuildingBlock: KIFKEQ_clean_linker_1, # of connection points: 2
#     Edge 65, Type (0, 1), BuildingBlock: KIFKEQ_clean_linker_1, # of connection points: 2
#     Edge 66, Type (0, 1), BuildingBlock: KIFKEQ_clean_linker_1, # of connection points: 2
#     Edge 67, Type (0, 1), BuildingBlock: KIFKEQ_clean_linker_1, # of connection points: 2
#     Edge 68, Type (0, 1), BuildingBlock: KIFKEQ_clean_linker_1, # of connection points: 2
#     Edge 69, Type (0, 1), BuildingBlock: KIFKEQ_clean_linker_1, # of connection points: 2
#     Edge 70, Type (0, 1), BuildingBlock: KIFKEQ_clean_linker_1, # of connection points: 2
#     Edge 71, Type (0, 1), BuildingBlock: KIFKEQ_clean_linker_1, # of connection points: 2
#     Edge 72, Type (0, 1), BuildingBlock: KIFKEQ_clean_linker_1, # of connection points: 2
#     Edge 73, Type (0, 1), BuildingBlock: KIFKEQ_clean_linker_1, # of connection points: 2
#     Edge 74, Type (0, 1), BuildingBlock: KIFKEQ_clean_linker_1, # of connection points: 2
#     Edge 75, Type (0, 1), BuildingBlock: KIFKEQ_clean_linker_1, # of connection points: 2
#     Edge 76, Type (0, 1), BuildingBlock: KIFKEQ_clean_linker_1, # of connection points: 2
#     Edge 77, Type (0, 1), BuildingBlock: KIFKEQ_clean_linker_1, # of connection points: 2
#     Edge 78, Type (0, 1), BuildingBlock: KIFKEQ_clean_linker_1, # of connection points: 2
#     Edge 79, Type (0, 1), BuildingBlock: KIFKEQ_clean_linker_1, # of connection points: 2
#     Edge 80, Type (0, 1), BuildingBlock: KIFKEQ_clean_linker_1, # of connection points: 2
#     Edge 81, Type (0, 1), BuildingBlock: KIFKEQ_clean_linker_1, # of connection points: 2
#     Edge 82, Type (0, 1), BuildingBlock: KIFKEQ_clean_linker_1, # of connection points: 2
#     Edge 83, Type (0, 1), BuildingBlock: KIFKEQ_clean_linker_1, # of connection points: 2
#     Edge 84, Type (0, 1), BuildingBlock: KIFKEQ_clean_linker_1, # of connection points: 2
#     Edge 85, Type (0, 1), BuildingBlock: KIFKEQ_clean_linker_1, # of connection points: 2
#     Edge 86, Type (0, 1), BuildingBlock: KIFKEQ_clean_linker_1, # of connection points: 2
#     Edge 87, Type (0, 1), BuildingBlock: KIFKEQ_clean_linker_1, # of connection points: 2
#     Edge 88, Type (0, 1), BuildingBlock: KIFKEQ_clean_linker_1, # of connection points: 2
#     Edge 89, Type (0, 1), BuildingBlock: KIFKEQ_clean_linker_1, # of connection points: 2
#     Edge 90, Type (0, 1), BuildingBlock: KIFKEQ_clean_linker_1, # of connection points: 2
#     Edge 91, Type (0, 1), BuildingBlock: KIFKEQ_clean_linker_1, # of connection points: 2
#     Edge 92, Type (0, 1), BuildingBlock: KIFKEQ_clean_linker_1, # of connection points: 2
#     Edge 93, Type (0, 1), BuildingBlock: KIFKEQ_clean_linker_1, # of connection points: 2
#     Edge 94, Type (0, 1), BuildingBlock: KIFKEQ_clean_linker_1, # of connection points: 2
#     Edge 95, Type (0, 1), BuildingBlock: KIFKEQ_clean_linker_1, # of connection points: 2
#     Edge 96, Type (0, 1), BuildingBlock: KIFKEQ_clean_linker_1, # of connection points: 2
#     Edge 97, Type (0, 1), BuildingBlock: KIFKEQ_clean_linker_1, # of connection points: 2
#     Edge 98, Type (0, 1), BuildingBlock: KIFKEQ_clean_linker_1, # of connection points: 2
#     Edge 99, Type (0, 1), BuildingBlock: KIFKEQ_clean_linker_1, # of connection points: 2
#     Edge 100, Type (0, 1), BuildingBlock: KIFKEQ_clean_linker_1, # of connection points: 2
#     Edge 101, Type (0, 1), BuildingBlock: KIFKEQ_clean_linker_1, # of connection points: 2
#     Edge 102, Type (0, 1), BuildingBlock: KIFKEQ_clean_linker_1, # of connection points: 2
#     Edge 103, Type (0, 1), BuildingBlock: KIFKEQ_clean_linker_1, # of connection points: 2
#     Edge 104, Type (0, 1), BuildingBlock: KIFKEQ_clean_linker_1, # of connection points: 2
#     Edge 105, Type (0, 1), BuildingBlock: KIFKEQ_clean_linker_1, # of connection points: 2
#     Edge 106, Type (0, 1), BuildingBlock: KIFKEQ_clean_linker_1, # of connection points: 2
#     Edge 107, Type (0, 1), BuildingBlock: KIFKEQ_clean_linker_1, # of connection points: 2
#     Edge 108, Type (0, 1), BuildingBlock: KIFKEQ_clean_linker_1, # of connection points: 2
#     Edge 109, Type (0, 1), BuildingBlock: KIFKEQ_clean_linker_1, # of connection points: 2
#     Edge 110, Type (0, 1), BuildingBlock: KIFKEQ_clean_linker_1, # of connection points: 2
#     Edge 111, Type (0, 1), BuildingBlock: KIFKEQ_clean_linker_1, # of connection points: 2
#     Edge 112, Type (0, 1), BuildingBlock: KIFKEQ_clean_linker_1, # of connection points: 2
#     Edge 113, Type (0, 1), BuildingBlock: KIFKEQ_clean_linker_1, # of connection points: 2
#     Edge 114, Type (0, 1), BuildingBlock: KIFKEQ_clean_linker_1, # of connection points: 2
#     Edge 115, Type (0, 1), BuildingBlock: KIFKEQ_clean_linker_1, # of connection points: 2
#     Edge 116, Type (0, 1), BuildingBlock: KIFKEQ_clean_linker_1, # of connection points: 2
#     Edge 117, Type (0, 1), BuildingBlock: KIFKEQ_clean_linker_1, # of connection points: 2
#     Edge 118, Type (0, 1), BuildingBlock: KIFKEQ_clean_linker_1, # of connection points: 2
#     Edge 119, Type (0, 1), BuildingBlock: KIFKEQ_clean_linker_1, # of connection points: 2
#     Edge 120, Type (0, 1), BuildingBlock: KIFKEQ_clean_linker_1, # of connection points: 2
#     Edge 121, Type (0, 1), BuildingBlock: KIFKEQ_clean_linker_1, # of connection points: 2
#     Edge 122, Type (0, 1), BuildingBlock: KIFKEQ_clean_linker_1, # of connection points: 2
#     Edge 123, Type (0, 1), BuildingBlock: KIFKEQ_clean_linker_1, # of connection points: 2
#     Edge 124, Type (0, 1), BuildingBlock: KIFKEQ_clean_linker_1, # of connection points: 2
#     Edge 125, Type (0, 1), BuildingBlock: KIFKEQ_clean_linker_1, # of connection points: 2
#     Edge 126, Type (0, 1), BuildingBlock: KIFKEQ_clean_linker_1, # of connection points: 2
#     Edge 127, Type (0, 1), BuildingBlock: KIFKEQ_clean_linker_1, # of connection points: 2
#     Edge 128, Type (0, 1), BuildingBlock: KIFKEQ_clean_linker_1, # of connection points: 2
#     Edge 129, Type (0, 1), BuildingBlock: KIFKEQ_clean_linker_1, # of connection points: 2
#     Edge 130, Type (0, 1), BuildingBlock: KIFKEQ_clean_linker_1, # of connection points: 2
#     Edge 131, Type (0, 1), BuildingBlock: KIFKEQ_clean_linker_1, # of connection points: 2
#     Edge 132, Type (0, 1), BuildingBlock: KIFKEQ_clean_linker_1, # of connection points: 2
#     Edge 133, Type (0, 1), BuildingBlock: KIFKEQ_clean_linker_1, # of connection points: 2
#     Edge 134, Type (0, 1), BuildingBlock: KIFKEQ_clean_linker_1, # of connection points: 2
#     Edge 135, Type (0, 1), BuildingBlock: KIFKEQ_clean_linker_1, # of connection points: 2
# Relax obj value: 0.237
# Max RMSD: 0.344
# Mean RMSD: 0.184
data_MOF--net-gar--node1-AZAVOO_clean_sbu_0--node2-NUHQIS_clean_sbu_0--edge1-KIFKEQ_clean_linker_1
_symmetry_space_group_name_H-M    P1
_symmetry_Int_Tables_number       1
_symmetry_cell_setting            triclinic
loop_
_symmetry_equiv_pos_as_xyz
'x, y, z'
_cell_length_a     59.722976
_cell_length_b     59.195996
_cell_length_c     57.955258
_cell_angle_alpha  96.120242
_cell_angle_beta   96.622984
_cell_angle_gamma 101.37426
loop_
_atom_site_label
_atom_site_type_symbol
_atom_site_fract_x
_atom_site_fract_y
_atom_site_fract_z
_atom_type_partial_charge
Mg0 Mg 0.07751 0.28741 0.39925 0.0
O1 O 0.08077 0.32584 0.42401 0.0
O2 O 0.05093 0.32154 0.44448 0.0
Mg3 Mg 0.02653 0.28458 0.43335 0.0
C4 C 0.06897 0.33439 0.43904 0.0
C5 C 0.12287 0.29273 0.36638 0.0
O6 O 0.10555 0.29224 0.35002 0.0
O7 O 0.07668 0.25512 0.42472 0.0
O8 O 0.04754 0.25673 0.44528 0.0
O9 O 0.05092 0.29306 0.36722 0.0
O10 O 0.03878 0.28382 0.39864 0.0
C11 C 0.06398 0.24694 0.44004 0.0
C12 C 0.0334 0.28875 0.37805 0.0
O13 O 0.118 0.2916 0.38762 0.0
Mg14 Mg 0.06207 0.80994 0.67178 0.0
O15 O 0.05773 0.77189 0.6488 0.0
O16 O 0.02732 0.76757 0.62158 0.0
Mg17 Mg 1.00773 0.79846 0.63056 0.0
C18 C 0.04442 0.75977 0.63078 0.0
C19 C 0.11458 0.82097 0.70523 0.0
O20 O 0.10444 0.83287 0.7197 0.0
O21 O 0.06356 0.84332 0.64803 0.0
O22 O 0.03151 0.83302 0.62222 0.0
O23 O 0.03964 0.81117 0.70349 0.0
O24 O 0.02224 0.80566 0.66889 0.0
C25 C 0.05026 0.84782 0.63047 0.0
C26 C 1.02013 0.80807 0.69077 0.0
O27 O 0.10301 0.81167 0.68515 0.0
Mg28 Mg 0.57695 0.78763 0.89892 0.0
O29 O 0.57935 0.82515 0.92472 0.0
O30 O 0.54816 0.81883 0.94308 0.0
Mg31 Mg 0.52487 0.78154 0.93123 0.0
C32 C 0.56627 0.83265 0.93896 0.0
C33 C 0.62265 0.78403 0.86902 0.0
O34 O 0.60607 0.76839 0.85597 0.0
O35 O 0.57773 0.75591 0.92452 0.0
O36 O 0.54685 0.75446 0.94318 0.0
O37 O 0.55152 0.7951 0.86729 0.0
O38 O 0.53838 0.78253 0.89729 0.0
C39 C 0.56451 0.74636 0.93877 0.0
C40 C 0.53364 0.78905 0.87728 0.0
O41 O 0.61731 0.79469 0.88773 0.0
Mg42 Mg 0.55773 0.30825 0.16404 0.0
O43 O 0.55225 0.26471 0.15558 0.0
O44 O 0.56257 0.2756 0.123 0.0
Mg45 Mg 0.54358 0.29964 0.14348 0.0
C46 C 0.55847 0.259 0.13542 0.0
C47 C 0.61065 0.31847 0.19979 0.0
O48 O 0.60164 0.33282 0.21291 0.0
O49 O 0.56446 0.35006 0.15877 0.0
O50 O 0.5498 0.33317 0.12385 0.0
O51 O 0.53802 0.3101 0.19768 0.0
O52 O 0.51729 0.31063 0.16505 0.0
C53 C 0.55867 0.35229 0.13706 0.0
C54 C 0.51817 0.31105 0.18736 0.0
O55 O 0.59834 0.30793 0.18036 0.0
Mg56 Mg 0.12106 0.8908 0.1929 0.0
O57 O 0.11306 0.85302 0.17238 0.0
O58 O 0.07485 0.84149 0.16066 0.0
Mg59 Mg 0.06454 0.87603 0.16077 0.0
C60 C 0.09514 0.83738 0.16353 0.0
C61 C 0.16849 0.89579 0.21755 0.0
O62 O 0.15911 0.90739 0.23302 0.0
O63 O 0.12495 0.90935 0.16077 0.0
O64 O 0.0976 0.88006 0.14493 0.0
O65 O 0.10783 0.87368 0.22164 0.0
O66 O 0.08612 0.88766 0.19515 0.0
C67 C 0.11032 0.8993 0.14332 0.0
C68 C 0.08759 0.87476 0.2116 0.0
O69 O 0.15763 0.88885 0.19722 0.0
Mg70 Mg 0.52189 0.71149 0.3771 0.0
O71 O 0.52188 0.74813 0.39447 0.0
O72 O 0.487 0.74892 0.40448 0.0
Mg73 Mg 0.46527 0.71193 0.39493 0.0
C74 C 0.50774 0.75894 0.40328 0.0
C75 C 0.5666 0.72377 0.35959 0.0
O76 O 0.55257 0.71211 0.34118 0.0
O77 O 0.5243 0.70064 0.41238 0.0
O78 O 0.48893 0.69905 0.42253 0.0
O79 O 0.51005 0.72137 0.34361 0.0
O80 O 0.48672 0.70526 0.36746 0.0
C81 C 0.50979 0.69679 0.42666 0.0
C82 C 0.48973 0.71661 0.34985 0.0
O83 O 0.55998 0.7235 0.37957 0.0
Mg84 Mg 0.61887 0.39086 0.69341 0.0
O85 O 0.61605 0.35549 0.67116 0.0
O86 O 0.57947 0.34339 0.65361 0.0
Mg87 Mg 0.56076 0.37252 0.66052 0.0
C88 C 0.59995 0.34039 0.65835 0.0
C89 C 0.66267 0.3958 0.72336 0.0
O90 O 0.6481 0.40132 0.73722 0.0
O91 O 0.62276 0.40891 0.6615 0.0
O92 O 0.58698 0.39518 0.64264 0.0
O93 O 0.60596 0.37135 0.72116 0.0
O94 O 0.58343 0.3831 0.69386 0.0
C95 C 0.60755 0.40676 0.64371 0.0
C96 C 0.58553 0.37056 0.7105 0.0
O97 O 0.65682 0.39353 0.7014 0.0
Mg98 Mg 1.01653 0.20887 0.86841 0.0
O99 O 1.02021 0.24567 0.88875 0.0
O100 O 0.98948 0.24657 0.90717 0.0
Mg101 Mg 0.96616 0.21058 0.89832 0.0
C102 C 1.00896 0.25634 0.90206 0.0
C103 C 0.05831 0.23837 0.85611 0.0
O104 O 0.04133 0.24784 0.84822 0.0
O105 O 0.02503 0.19618 0.90216 0.0
O106 O 0.99418 0.1975 0.92038 0.0
O107 O 0.99986 0.2199 0.83792 0.0
O108 O 0.98127 0.20444 0.8657 0.0
C109 C 1.01434 0.19345 0.91971 0.0
C110 C 0.98189 0.21683 0.84865 0.0
O111 O 0.05386 0.21957 0.86498 0.0
Mg112 Mg 0.55138 0.1261 0.31685 0.0
O113 O 0.52847 0.08858 0.30705 0.0
O114 O 0.51103 0.08202 0.3388 0.0
Mg115 Mg 0.52269 0.11277 0.36755 0.0
C116 C 0.51458 0.07571 0.318 0.0
C117 C 0.5544 0.11921 0.26102 0.0
O118 O 0.56008 0.12803 0.24213 0.0
O119 O 0.51839 0.13895 0.31145 0.0
O120 O 0.50171 0.1321 0.34345 0.0
O121 O 0.58067 0.11158 0.33054 0.0
O122 O 0.55398 0.12127 0.35115 0.0
C123 C 0.50206 0.13966 0.32364 0.0
C124 C 0.57137 0.1116 0.34963 0.0
O125 O 0.55842 0.13234 0.28036 0.0
Mg126 Mg 0.33766 0.16348 0.5214 0.0
O127 O 0.33973 0.18758 0.55848 0.0
O128 O 0.37232 0.21417 0.56366 0.0
Mg129 Mg 0.39298 0.20526 0.53211 0.0
C130 C 0.3534 0.20536 0.57082 0.0
C131 C 0.28119 0.13191 0.51352 0.0
O132 O 0.2878 0.11784 0.49787 0.0
O133 O 0.3341 0.19264 0.49372 0.0
O134 O 0.37002 0.21384 0.49929 0.0
O135 O 0.35887 0.13671 0.53665 0.0
O136 O 0.37665 0.16689 0.52372 0.0
C137 C 0.34977 0.20844 0.48739 0.0
C138 C 0.3784 0.14806 0.53247 0.0
O139 O 0.29603 0.15011 0.52392 0.0
Mg140 Mg 0.19476 0.06481 0.85919 0.0
O141 O 0.21377 0.09755 0.84613 0.0
O142 O 0.24388 0.1095 0.87496 0.0
Mg143 Mg 0.2455 0.08645 0.90346 0.0
C144 C 0.23228 0.11189 0.85575 0.0
C145 C 0.16519 0.05055 0.80574 0.0
O146 O 0.14823 0.03527 0.7928 0.0
O147 O 0.22108 0.04703 0.84733 0.0
O148 O 0.2513 0.0583 0.87575 0.0
O149 O 0.17508 0.08514 0.87917 0.0
O150 O 0.20882 0.07785 0.89244 0.0
C151 C 0.24136 0.04649 0.85624 0.0
C152 C 0.1919 0.08751 0.89612 0.0
O153 O 0.16997 0.0483 0.82702 0.0
Mg154 Mg 0.3397 0.89699 0.0521 0.0
O155 O 0.33479 0.87317 0.01649 0.0
O156 O 0.36694 0.85919 0.01753 0.0
Mg157 Mg 0.39143 0.87323 0.05177 0.0
C158 C 0.34749 0.8609 1.00692 0.0
C159 C 0.30296 0.91878 0.0645 0.0
O160 O 0.32158 0.92697 0.07978 0.0
O161 O 0.33261 0.86708 0.07389 0.0
O162 O 0.36691 0.85711 0.0764 0.0
O163 O 0.35695 0.92675 0.0362 0.0
O164 O 0.37527 0.90325 0.05453 0.0
C165 C 0.34694 0.85584 0.08276 0.0
C166 C 0.37604 0.92077 0.04312 0.0
O167 O 0.30322 0.90262 0.04827 0.0
Mg168 Mg 0.30181 0.43093 0.04559 0.0
O169 O 0.2997 0.40416 1.00859 0.0
O170 O 0.33216 0.39087 0.01399 0.0
Mg171 Mg 0.35429 0.40435 0.05053 0.0
C172 C 0.31386 0.39209 1.00073 0.0
C173 C 0.25676 0.45987 0.04659 0.0
O174 O 0.27432 0.47544 0.05821 0.0
O175 O 0.2961 0.40251 0.07531 0.0
O176 O 0.32953 0.39095 0.07676 0.0
O177 O 0.32767 0.46039 0.03063 0.0
O178 O 0.34047 0.43613 0.05087 0.0
C179 C 0.31047 0.39102 0.08485 0.0
C180 C 0.34546 0.45348 0.03965 0.0
O181 O 0.2612 0.43992 0.03884 0.0
Mg182 Mg 0.80551 0.19736 0.01677 0.0
O183 O 0.81162 0.21869 0.05362 0.0
O184 O 0.84626 0.24198 0.05715 0.0
Mg185 Mg 0.86276 0.23372 0.02395 0.0
C186 C 0.82774 0.23447 0.0655 0.0
C187 C 0.75399 0.17606 1.00241 0.0
O188 O 0.76023 0.17718 0.98149 0.0
O189 O 0.80003 0.2273 0.99648 0.0
O190 O 0.8367 0.24606 0.99811 0.0
O191 O 0.82074 0.16957 0.03069 0.0
O192 O 0.84031 0.19867 0.01548 0.0
C193 C 0.81531 0.24268 0.98988 0.0
C194 C 0.83987 0.17947 0.02413 0.0
O195 O 0.76827 0.18541 0.02041 0.0
Mg196 Mg 0.10252 0.46992 0.24401 0.0
O197 O 0.12623 0.50676 0.24338 0.0
O198 O 0.14453 0.52077 0.27993 0.0
Mg199 Mg 0.13844 0.49324 0.30436 0.0
C200 C 0.13961 0.5228 0.25825 0.0
C201 C 0.06928 0.46638 0.2023 0.0
O202 O 0.05635 0.45656 0.21685 0.0
O203 O 0.13308 0.45202 0.2375 0.0
O204 O 0.13674 0.47143 0.27134 0.0
O205 O 0.07682 0.48787 0.2582 0.0
O206 O 0.10442 0.47879 0.28189 0.0
C207 C 0.14536 0.45936 0.25713 0.0
C208 C 0.08758 0.48928 0.27904 0.0
O209 O 0.09089 0.46785 0.20603 0.0
Mg210 Mg 0.80046 0.93171 0.54594 0.0
O211 O 0.79788 0.90562 0.50828 0.0
O212 O 0.82961 0.89077 0.51242 0.0
Mg213 Mg 0.85264 0.9037 0.54844 0.0
C214 C 0.81125 0.89287 0.49983 0.0
C215 C 0.754 0.95979 0.53738 0.0
O216 O 0.7705 0.97616 0.53269 0.0
O217 O 0.79595 0.90324 0.57527 0.0
O218 O 0.82866 0.89042 0.57531 0.0
O219 O 0.82675 0.96262 0.53337 0.0
O220 O 0.8389 0.93553 0.54932 0.0
C221 C 0.81004 0.89113 0.58405 0.0
C222 C 0.84431 0.95425 0.54026 0.0
O223 O 0.75968 0.94041 0.54211 0.0
Mg224 Mg 0.92179 0.02102 0.20941 0.0
O225 O 0.90409 0.98355 0.19346 0.0
O226 O 0.89481 0.99525 0.2265 0.0
Mg227 Mg 0.88853 1.00836 0.26147 0.0
C228 C 0.89204 0.97935 0.20957 0.0
C229 C 0.95206 0.03605 0.17855 0.0
O230 O 0.96158 0.04453 0.20012 0.0
O231 O 0.88876 0.03441 0.20487 0.0
O232 O 0.88323 0.03909 0.24272 0.0
O233 O 0.95203 1.01003 0.22727 0.0
O234 O 0.92114 0.01249 0.24418 0.0
C235 C 0.88276 0.04568 0.22233 0.0
C236 C 0.94218 1.00999 0.24604 0.0
O237 O 0.9307 0.02732 0.17457 0.0
Mg238 Mg 0.30663 0.69775 0.51729 0.0
O239 O 0.31194 0.71892 0.5543 0.0
O240 O 0.34758 0.74041 0.55891 0.0
Mg241 Mg 0.3635 0.73403 0.52487 0.0
C242 C 0.3287 0.73345 0.56682 0.0
C243 C 0.26065 0.66849 0.50399 0.0
O244 O 0.27414 0.6613 0.48973 0.0
O245 O 0.30092 0.72736 0.49711 0.0
O246 O 0.33732 0.74672 0.49905 0.0
O247 O 0.32205 0.67017 0.53197 0.0
O248 O 0.34164 0.69866 0.51592 0.0
C249 C 0.31594 0.74302 0.49066 0.0
C250 C 0.34121 0.6799 0.52538 0.0
O251 O 0.26885 0.68624 0.51907 0.0
Mg252 Mg 0.4241 0.52582 0.71425 0.0
O253 O 0.41038 0.4884 0.70014 0.0
O254 O 0.37685 0.49097 0.70957 0.0
Mg255 Mg 0.38312 0.50272 0.74872 0.0
C256 C 0.38977 0.47876 0.70106 0.0
C257 C 0.45769 0.53495 0.68419 0.0
O258 O 0.46828 0.54234 0.70558 0.0
O259 O 0.39167 0.53786 0.703 0.0
O260 O 0.37687 0.53626 0.73665 0.0
O261 O 0.45164 0.51337 0.73384 0.0
O262 O 0.42025 0.5193 0.74841 0.0
C263 C 0.37979 0.54528 0.71784 0.0
C264 C 0.43966 0.51273 0.75104 0.0
O265 O 0.43595 0.5297 0.68046 0.0
Mg266 Mg 0.5984 0.96624 0.74315 0.0
O267 O 0.62011 1.00318 0.73959 0.0
O268 O 0.63515 0.02045 0.77624 0.0
Mg269 Mg 0.63073 0.99442 0.80202 0.0
C270 C 0.63123 0.02081 0.75416 0.0
C271 C 0.58165 0.96638 0.68856 0.0
O272 O 0.57475 0.95578 0.66711 0.0
O273 O 0.63105 0.95115 0.74012 0.0
O274 O 0.64038 0.9724 0.77401 0.0
O275 O 0.57111 0.98436 0.75511 0.0
O276 O 0.59919 0.97692 0.77932 0.0
C277 C 0.64598 0.95969 0.75787 0.0
C278 C 0.58245 0.9872 0.77597 0.0
O279 O 0.58732 0.95476 0.7045 0.0
Mg280 Mg 0.83836 0.66413 0.02077 0.0
O281 O 0.84045 0.68773 0.05874 0.0
O282 O 0.87298 0.71444 0.06356 0.0
Mg283 Mg 0.89407 0.7064 0.03204 0.0
C284 C 0.85427 0.70553 0.07112 0.0
C285 C 0.78611 0.62932 0.02177 0.0
O286 O 0.7992 0.61394 0.02283 0.0
O287 O 0.8361 0.69314 0.99282 0.0
O288 O 0.87115 0.71614 0.9997 0.0
O289 O 0.85989 0.63594 0.03259 0.0
O290 O 0.87771 0.66802 0.02379 0.0
C291 C 0.85116 0.71 0.98727 0.0
C292 C 0.87953 0.64794 0.02962 0.0
O293 O 0.79613 0.65046 0.02032 0.0
Mg294 Mg 0.04605 0.63217 0.82569 0.0
O295 O 0.0272 0.59309 0.8224 0.0
O296 O 1.0105 0.5866 0.85432 0.0
Mg297 Mg 1.01597 0.62223 0.87621 0.0
C298 C 1.01548 0.57945 0.83441 0.0
C299 C 0.06086 0.60762 0.78564 0.0
O300 O 0.07409 0.60363 0.80376 0.0
O301 O 1.01161 0.63991 0.81536 0.0
O302 O 0.99338 0.63325 0.84635 0.0
O303 O 0.07699 0.62487 0.84485 0.0
O304 O 0.04817 0.63493 0.86168 0.0
C305 C 0.99381 0.6388 0.82567 0.0
C306 C 0.06575 0.62525 0.86255 0.0
O307 O 0.05001 0.6239 0.7881 0.0
Mg308 Mg 0.83918 0.39711 0.55256 0.0
O309 O 0.83279 0.37582 0.51565 0.0
O310 O 0.8617 0.35692 0.51501 0.0
Mg311 Mg 0.88802 0.36929 0.54843 0.0
C312 C 0.84315 0.3616 0.50523 0.0
C313 C 0.80465 0.42065 0.56764 0.0
O314 O 0.82413 0.42771 0.58197 0.0
O315 O 0.83044 0.36555 0.57127 0.0
O316 O 0.86393 0.35382 0.57385 0.0
O317 O 0.85755 0.42804 0.53973 0.0
O318 O 0.8743 0.40096 0.55331 0.0
C319 C 0.84387 0.35327 0.57972 0.0
C320 C 0.8761 0.42038 0.54488 0.0
O321 O 0.80343 0.40444 0.55097 0.0
Mg322 Mg 0.69719 0.57428 0.3389 0.0
O323 O 0.72275 0.60755 0.34303 0.0
O324 O 0.7444 0.61372 0.37846 0.0
Mg325 Mg 0.73027 0.58374 0.39803 0.0
C326 C 0.73902 0.61947 0.35826 0.0
C327 C 0.6579 0.53188 0.31999 0.0
O328 O 0.64276 0.51248 0.31981 0.0
O329 O 0.72572 0.55616 0.33614 0.0
O330 O 0.7433 0.55813 0.37286 0.0
O331 O 0.67138 0.59241 0.35378 0.0
O332 O 0.69766 0.57905 0.37445 0.0
C333 C 0.74065 0.55098 0.35093 0.0
C334 C 0.68118 0.58989 0.37401 0.0
O335 O 0.67289 0.53959 0.33774 0.0
Tb336 Tb 0.03739 0.03646 0.01354 0.0
Eu337 Eu 0.09796 0.05838 0.04317 0.0
C338 C 0.07898 0.03789 0.9895 0.0
C339 C 0.06644 1.00363 0.0374 0.0
C340 C 0.97901 0.04539 1.00095 0.0
C341 C 0.94728 0.0566 0.97798 0.0
C342 C 0.96156 0.04081 0.98162 0.0
C343 C 0.98229 0.06612 0.01632 0.0
C344 C 0.96805 0.08174 0.01277 0.0
C345 C 0.95034 0.07718 0.99364 0.0
C346 C 0.99446 0.02919 1.00451 0.0
O347 O 0.05832 0.05214 0.04487 0.0
O348 O 0.08179 0.06365 0.07602 0.0
O349 O 0.08383 0.08885 0.03181 0.0
O350 O 0.04491 0.07406 0.01486 0.0
C351 C 0.06046 0.0559 0.06743 0.0
O352 O 0.1276 0.06588 0.0704 0.0
O353 O 0.1328 0.06657 0.03388 0.0
O354 O 0.08679 0.03291 1.00996 0.0
O355 O 0.05722 0.03877 0.98485 0.0
O356 O 0.048 1.00551 0.02331 0.0
O357 O 0.0845 0.02049 0.0465 0.0
C358 C 0.06339 0.09104 0.02183 0.0
O359 O 1.00783 0.02704 0.98832 0.0
O360 O 1.00546 0.03103 0.02579 0.0
C361 C 0.1588 0.05134 0.05905 0.0
C362 C 0.1887 0.0212 0.06815 0.0
C363 C 0.19034 0.04153 0.08363 0.0
C364 C 0.17535 0.05643 0.07918 0.0
C365 C 0.15696 0.03078 0.04376 0.0
C366 C 0.17183 0.01582 0.0483 0.0
C367 C 0.14234 0.06653 0.05541 0.0
H368 H 0.93387 0.0527 0.963 0.0
H369 H 0.95901 0.02507 0.96937 0.0
H370 H 0.9958 0.07029 0.03122 0.0
H371 H 0.97059 0.09716 0.02547 0.0
H372 H 0.20322 0.04584 0.09909 0.0
H373 H 0.17661 0.0719 0.09149 0.0
H374 H 0.144 0.02623 0.02837 0.0
H375 H 0.17048 1.00026 0.03609 0.0
Tb376 Tb 0.3357 0.8283 0.29917 0.0
Eu377 Eu 0.31502 0.77396 0.27547 0.0
C378 C 0.28422 0.81142 0.28203 0.0
C379 C 0.31332 0.78957 0.32967 0.0
C380 C 0.37166 0.88837 0.30946 0.0
C381 C 0.3848 0.92911 0.30571 0.0
C382 C 0.3682 0.91116 0.31127 0.0
C383 C 0.39199 0.88368 0.30179 0.0
C384 C 0.40879 0.90174 0.29646 0.0
C385 C 0.40533 0.92465 0.29838 0.0
C386 C 0.35378 0.86991 0.31556 0.0
O387 O 0.36417 0.81262 0.29174 0.0
O388 O 0.34747 0.77687 0.29946 0.0
O389 O 0.33567 0.7917 0.25 0.0
O390 O 0.33001 0.82812 0.26119 0.0
C391 C 0.36572 0.79308 0.29951 0.0
O392 O 0.31862 0.73784 0.2708 0.0
O393 O 0.29071 0.74839 0.25023 0.0
O394 O 0.2885 0.79489 0.26746 0.0
O395 O 0.29915 0.82188 0.3001 0.0
O396 O 0.32838 0.809 0.32872 0.0
O397 O 0.303 0.77523 0.31082 0.0
C398 C 0.3344 0.81263 0.24528 0.0
O399 O 0.33483 0.86372 0.30072 0.0
O400 O 0.36059 0.85205 0.32312 0.0
C401 C 0.28263 0.71157 0.26325 0.0
C402 C 0.25062 0.67256 0.27134 0.0
C403 C 0.27438 0.67269 0.2742 0.0
C404 C 0.29021 0.69193 0.26986 0.0
C405 C 0.25921 0.71225 0.26241 0.0
C406 C 0.24339 0.69294 0.26627 0.0
C407 C 0.2991 0.73103 0.25692 0.0
H408 H 0.3818 0.94663 0.30767 0.0
H409 H 0.35264 0.9151 0.31713 0.0
H410 H 0.39493 0.86613 0.30001 0.0
H411 H 0.4244 0.89781 0.29075 0.0
H412 H 0.28071 0.65762 0.27886 0.0
H413 H 0.3083 0.69124 0.27108 0.0
H414 H 0.25286 0.72734 0.25783 0.0
H415 H 0.22533 0.69369 0.26372 0.0
Tb416 Tb 0.54729 0.02264 0.53354 0.0
Eu417 Eu 0.57921 0.07361 0.53996 0.0
C418 C 0.56192 0.05072 0.58403 0.0
C419 C 0.52339 0.06838 0.53794 0.0
C420 C 0.52926 0.9611 0.50899 0.0
C421 C 0.53074 0.92015 0.50495 0.0
C422 C 0.52617 0.93972 0.51777 0.0
C423 C 0.53751 0.96271 0.48728 0.0
C424 C 0.54191 0.94308 0.47435 0.0
C425 C 0.5384 0.92151 0.48296 0.0
C426 C 0.52439 0.9816 0.5229 0.0
O427 O 0.56285 0.02699 0.5019 0.0
O428 O 0.56233 0.06495 0.5029 0.0
O429 O 0.60405 0.04907 0.53202 0.0
O430 O 0.58294 0.01622 0.5427 0.0
C431 C 0.56211 0.045 0.49109 0.0
O432 O 0.58868 0.10678 0.5266 0.0
O433 O 0.60826 0.10019 0.55808 0.0
O434 O 0.57842 0.06444 0.57615 0.0
O435 O 0.54594 0.03531 0.56992 0.0
O436 O 0.52164 0.04609 0.52943 0.0
O437 O 0.544 0.08122 0.5466 0.0
C438 C 0.60282 0.0277 0.53753 0.0
O439 O 0.5377 0.98901 0.54286 0.0
O440 O 0.52087 0.99871 0.51148 0.0
C441 C 0.60169 0.13808 0.55663 0.0
C442 C 0.59874 0.18158 0.57918 0.0
C443 C 0.60429 0.17937 0.55625 0.0
C444 C 0.60577 0.15777 0.54508 0.0
C445 C 0.59501 0.14 0.57912 0.0
C446 C 0.59357 0.16164 0.59034 0.0
C447 C 0.60403 0.11568 0.54475 0.0
H448 H 0.52751 0.90375 0.51194 0.0
H449 H 0.52001 0.93808 0.5345 0.0
H450 H 0.54042 0.97909 0.48019 0.0
H451 H 0.54795 0.94475 0.45756 0.0
H452 H 0.60785 0.19444 0.54712 0.0
H453 H 0.61039 0.1565 0.52752 0.0
H454 H 0.59129 0.12488 0.58818 0.0
H455 H 0.58924 0.16291 0.60801 0.0
Tb456 Tb 0.29616 0.29723 0.77397 0.0
Eu457 Eu 0.34896 0.29721 0.79175 0.0
C458 C 0.33379 0.33704 0.76862 0.0
C459 C 0.32605 0.2762 0.73683 0.0
C460 C 0.2388 0.30003 0.78183 0.0
C461 C 0.20283 0.30661 0.79349 0.0
C462 C 0.21783 0.30675 0.77669 0.0
C463 C 0.24503 0.29391 0.80406 0.0
C464 C 0.23016 0.29378 0.82079 0.0
C465 C 0.20879 0.29979 0.81553 0.0
C466 C 0.25505 0.30026 0.76485 0.0
O467 O 0.29519 0.27005 0.79561 0.0
O468 O 0.3303 0.26069 0.79337 0.0
O469 O 0.33577 0.30588 0.8264 0.0
O470 O 0.30314 0.31684 0.8106 0.0
C471 C 0.30909 0.25574 0.79796 0.0
O472 O 0.37863 0.28343 0.80505 0.0
O473 O 0.38352 0.31859 0.79624 0.0
O474 O 0.34338 0.33313 0.78864 0.0
O475 O 0.31739 0.32119 0.75647 0.0
O476 O 0.30529 0.27692 0.74278 0.0
O477 O 0.34477 0.28515 0.75212 0.0
C478 C 0.31806 0.31573 0.82922 0.0
O479 O 0.27216 0.31833 0.76892 0.0
O480 O 0.26201 0.2808 0.76071 0.0
C481 C 0.41067 0.29678 0.78605 0.0
C482 C 0.44568 0.28958 0.7594 0.0
C483 C 0.44272 0.27854 0.77947 0.0
C484 C 0.4254 0.28221 0.79274 0.0
C485 C 0.41273 0.30673 0.7652 0.0
C486 C 0.43013 0.30321 0.75204 0.0
C487 C 0.3933 0.30146 0.80088 0.0
H488 H 0.18623 0.31094 0.78893 0.0
H489 H 0.21295 0.31177 0.75969 0.0
H490 H 0.26134 0.28896 0.80842 0.0
H491 H 0.23513 0.28852 0.83765 0.0
H492 H 0.45438 0.26782 0.7854 0.0
H493 H 0.42385 0.27413 0.80856 0.0
H494 H 0.40137 0.31782 0.75937 0.0
H495 H 0.43219 0.31226 0.73687 0.0
Tb496 Tb 0.06011 0.0343 0.51073 0.0
Eu497 Eu 0.06628 0.06072 0.56062 0.0
C498 C 0.11165 0.06245 0.53445 0.0
C499 C 0.06853 1.00603 0.55614 0.0
C500 C 0.04795 0.02014 0.44775 0.0
C501 C 0.05679 0.02815 0.40936 0.0
C502 C 0.06324 0.02161 0.43111 0.0
C503 C 0.02674 0.02682 0.44297 0.0
C504 C 1.02023 0.03318 0.4212 0.0
C505 C 0.03484 0.03302 0.40393 0.0
C506 C 0.05456 0.01245 0.47028 0.0
O507 O 0.02418 0.03651 0.51509 0.0
O508 O 0.02972 0.03811 0.55437 0.0
O509 O 0.06028 0.08911 0.53686 0.0
O510 O 0.05937 0.06952 0.5005 0.0
C511 C 1.01557 0.03299 0.53461 0.0
O512 O 0.05196 0.06462 0.59345 0.0
O513 O 0.08152 0.08984 0.58765 0.0
O514 O 0.10397 0.06552 0.5547 0.0
O515 O 0.09732 0.05142 0.51578 0.0
O516 O 0.06085 1.00582 0.53364 0.0
O517 O 0.07558 0.02633 0.56947 0.0
C518 C 0.05983 0.08925 0.51388 0.0
O519 O 0.07467 0.02299 0.4814 0.0
O520 O 0.03893 1.01012 0.48421 0.0
C521 C 0.08128 0.0783 0.62488 0.0
C522 C 0.10828 0.07594 0.6669 0.0
C523 C 0.08776 0.08415 0.6672 0.0
C524 C 0.07429 0.08532 0.64622 0.0
C525 C 0.10072 0.06831 0.62459 0.0
C526 C 0.11417 0.06715 0.64551 0.0
C527 C 0.06872 0.08177 0.6029 0.0
H528 H 0.06844 0.02824 0.39634 0.0
H529 H 0.07992 0.01714 0.43472 0.0
H530 H 1.0148 0.02646 0.45572 0.0
H531 H 1.00314 0.03668 0.4174 0.0
H532 H 0.08265 0.09044 0.68362 0.0
H533 H 0.05893 0.09242 0.64663 0.0
H534 H 0.106 0.06229 0.60816 0.0
H535 H 0.12985 0.06063 0.64489 0.0
Tb536 Tb 0.31504 0.77342 0.79067 0.0
Eu537 Eu 0.33274 0.82491 0.78078 0.0
C538 C 0.3216 0.81374 0.83111 0.0
C539 C 0.27781 0.80195 0.77293 0.0
C540 C 0.32088 0.71654 0.79922 0.0
C541 C 0.3372 0.68557 0.81358 0.0
C542 C 0.32181 0.70046 0.81514 0.0
C543 C 0.33645 0.71872 0.78286 0.0
C544 C 0.35151 0.70382 0.78108 0.0
C545 C 0.35157 0.68652 0.79588 0.0
C546 C 0.30569 0.73295 0.8009 0.0
O547 O 0.32771 0.76894 0.75658 0.0
O548 O 0.32315 0.80355 0.74542 0.0
O549 O 0.36663 0.81265 0.78632 0.0
O550 O 0.35257 0.78093 0.80391 0.0
C551 C 0.32526 0.78218 0.74002 0.0
O552 O 0.33614 0.85028 0.75599 0.0
O553 O 0.34785 0.86137 0.79292 0.0
O554 O 0.33654 0.8257 0.81987 0.0
O555 O 0.30672 0.79551 0.81983 0.0
O556 O 0.28319 0.78135 0.77284 0.0
O557 O 0.29382 0.82086 0.78061 0.0
C558 C 0.37018 0.79599 0.79879 0.0
O559 O 0.31403 0.75106 0.81645 0.0
O560 O 0.29753 0.73869 0.78099 0.0
C561 C 0.32564 0.88329 0.77315 0.0
C562 C 0.2974 0.91514 0.77833 0.0
C563 C 0.31423 0.91833 0.7633 0.0
C564 C 0.32831 0.90232 0.76062 0.0
C565 C 0.30749 0.87918 0.78664 0.0
C566 C 0.29337 0.89504 0.78918 0.0
C567 C 0.34171 0.86771 0.77271 0.0
H568 H 0.33718 0.67273 0.82556 0.0
H569 H 0.31052 0.69927 0.82852 0.0
H570 H 0.33664 0.73162 0.77096 0.0
H571 H 0.36197 0.70503 0.76702 0.0
H572 H 0.3176 0.93405 0.75512 0.0
H573 H 0.34196 0.9054 0.74982 0.0
H574 H 0.3051 0.86446 0.79636 0.0
H575 H 0.28074 0.89266 0.80121 0.0
Tb576 Tb 0.57828 0.04123 0.05955 0.0
Eu577 Eu 0.55933 0.05599 0.011 0.0
C578 C 0.5717 1.00445 0.01277 0.0
C579 C 0.61238 0.06373 0.02704 0.0
C580 C 0.577 0.0235 0.11777 0.0
C581 C 0.56729 1.00001 0.1485 0.0
C582 C 0.57993 1.00495 0.13013 0.0
C583 C 0.5604 0.03629 0.12314 0.0
C584 C 0.54782 0.03141 0.14149 0.0
C585 C 0.55148 0.01353 0.15471 0.0
C586 C 0.59018 0.02842 0.09834 0.0
O587 O 0.56377 0.07238 0.07006 0.0
O588 O 0.57003 0.08931 0.03748 0.0
O589 O 0.52751 0.04684 0.02765 0.0
O590 O 0.54212 0.02486 0.05339 0.0
C591 C 0.56625 0.0913 0.05946 0.0
O592 O 0.5567 0.08522 0.99178 0.0
O593 O 0.542 0.05017 0.97494 0.0
O594 O 0.55791 0.01661 1.00257 0.0
O595 O 0.58467 0.01371 0.03301 0.0
O596 O 0.60788 0.06311 0.04862 0.0
O597 O 0.59629 0.05563 1.00925 0.0
C598 C 0.52473 0.03149 0.04225 0.0
O599 O 0.58273 0.01419 0.07912 0.0
O600 O 0.59488 0.04998 0.09429 0.0
C601 C 0.56134 0.07698 0.95279 0.0
C602 C 0.58605 0.08618 0.91527 0.0
C603 C 0.57167 0.10088 0.92263 0.0
C604 C 0.55931 0.09623 0.94124 0.0
C605 C 0.57709 0.06342 0.94679 0.0
C606 C 0.58926 0.0679 0.92813 0.0
C607 C 0.54823 0.072 0.97212 0.0
H608 H 0.57035 0.98608 0.15832 0.0
H609 H 0.59221 0.9945 0.12576 0.0
H610 H 0.55745 0.05035 0.11344 0.0
H611 H 0.53607 0.04242 0.14607 0.0
H612 H 0.56911 0.11526 0.91327 0.0
H613 H 0.5478 0.10734 0.94627 0.0
H614 H 0.57946 0.04891 0.95605 0.0
H615 H 0.59993 0.05599 0.92287 0.0
Tb616 Tb 0.3331 0.32464 0.29911 0.0
Eu617 Eu 0.31628 0.27398 0.27245 0.0
C618 C 0.33522 0.28164 0.32926 0.0
C619 C 0.3703 0.30276 0.27293 0.0
C620 C 0.32352 0.3807 0.31494 0.0
C621 C 0.30477 0.41179 0.32756 0.0
C622 C 0.32224 0.39933 0.33151 0.0
C623 C 0.30694 0.37429 0.29491 0.0
C624 C 0.28971 0.38653 0.29102 0.0
C625 C 0.28867 0.4056 0.30703 0.0
C626 C 0.3401 0.36584 0.31892 0.0
O627 O 0.32736 0.33027 0.26156 0.0
O628 O 0.30276 0.29632 0.24557 0.0
O629 O 0.28557 0.27843 0.29165 0.0
O630 O 0.29449 0.31797 0.29714 0.0
C631 C 0.31316 0.3178 0.24342 0.0
O632 O 0.31538 0.2499 0.24078 0.0
O633 O 0.30103 0.23688 0.27031 0.0
O634 O 0.3323 0.26804 0.30908 0.0
O635 O 0.33527 0.30394 0.32907 0.0
O636 O 0.36715 0.31801 0.29021 0.0
O637 O 0.35293 0.28563 0.26364 0.0
C638 C 0.28006 0.29824 0.29881 0.0
O639 O 0.33242 0.34791 0.32902 0.0
O640 O 0.34943 0.35982 0.30067 0.0
C641 C 0.32719 0.2176 0.25354 0.0
C642 C 0.36552 0.19653 0.25717 0.0
C643 C 0.34798 0.18933 0.23786 0.0
C644 C 0.32893 0.20006 0.23592 0.0
C645 C 0.34458 0.22417 0.27287 0.0
C646 C 0.36341 0.21381 0.2747 0.0
C647 C 0.3095 0.23166 0.25118 0.0
H648 H 0.304 0.42634 0.34025 0.0
H649 H 0.33453 0.40406 0.3474 0.0
H650 H 0.30709 0.35955 0.28225 0.0
H651 H 0.27708 0.38102 0.27542 0.0
H652 H 0.34932 0.17594 0.22414 0.0
H653 H 0.31595 0.19507 0.22059 0.0
H654 H 0.34405 0.23784 0.28643 0.0
H655 H 0.37647 0.21944 0.28995 0.0
Tb656 Tb 0.56513 0.53483 0.01248 0.0
Eu657 Eu 0.56648 0.56398 0.06102 0.0
C658 C 0.61343 0.56413 0.03697 0.0
C659 C 0.5701 0.50797 0.05831 0.0
C660 C 0.55368 0.5227 0.94988 0.0
C661 C 0.55099 0.52425 0.90822 0.0
C662 C 0.56206 0.51854 0.92863 0.0
C663 C 0.53519 0.53402 0.95095 0.0
C664 C 0.52402 0.53951 0.93059 0.0
C665 C 0.53143 0.53399 0.90902 0.0
C666 C 0.56476 0.51646 0.9713 0.0
O667 O 0.5278 0.52697 0.01637 0.0
O668 O 0.52778 0.54879 0.05142 0.0
O669 O 0.55805 0.59056 0.03706 0.0
O670 O 0.56285 0.57045 1.00273 0.0
C671 C 0.51665 0.53355 0.03349 0.0
O672 O 0.55393 0.56922 0.09477 0.0
O673 O 0.58393 0.59285 0.08749 0.0
O674 O 0.60206 0.57628 0.0498 0.0
O675 O 0.60241 0.5437 0.02586 0.0
O676 O 0.56705 0.50671 0.03512 0.0
O677 O 0.57271 0.5285 0.07114 0.0
C678 C 0.56002 0.59002 0.01455 0.0
O679 O 0.58159 0.53261 0.98249 0.0
O680 O 0.55084 0.50768 0.98528 0.0
C681 C 0.58445 0.58256 0.12548 0.0
C682 C 0.60938 0.57746 0.16806 0.0
C683 C 0.58769 0.58345 0.16757 0.0
C684 C 0.57534 0.58603 0.14643 0.0
C685 C 0.60566 0.57562 0.12574 0.0
C686 C 0.61807 0.57315 0.1469 0.0
C687 C 0.57157 0.5858 0.10343 0.0
H688 H 0.55684 0.51976 0.89165 0.0
H689 H 0.57673 0.5104 0.92775 0.0
H690 H 0.52898 0.53802 0.96743 0.0
H691 H 0.50902 0.54714 0.9315 0.0
H692 H 0.58026 0.58616 0.18357 0.0
H693 H 0.55876 0.59084 0.14644 0.0
H694 H 0.61276 0.57236 0.10963 0.0
H695 H 0.63467 0.5684 0.14674 0.0
Tb696 Tb 0.81238 0.27339 0.29015 0.0
Eu697 Eu 0.83155 0.32506 0.2802 0.0
C698 C 0.81629 0.31417 0.33 0.0
C699 C 0.77481 0.30092 0.27029 0.0
C700 C 0.82069 0.21725 0.30012 0.0
C701 C 0.83096 0.18085 0.30683 0.0
C702 C 0.81668 0.19661 0.3101 0.0
C703 C 0.84022 0.22308 0.28888 0.0
C704 C 0.8544 0.20742 0.28559 0.0
C705 C 0.84908 0.18561 0.29332 0.0
C706 C 0.80453 0.23273 0.30047 0.0
O707 O 0.81606 0.2686 0.25264 0.0
O708 O 0.83743 0.30404 0.24813 0.0
O709 O 0.86569 0.31434 0.28942 0.0
O710 O 0.85025 0.28073 0.30323 0.0
C711 C 0.82711 0.28273 0.23963 0.0
O712 O 0.83132 0.35042 0.25566 0.0
O713 O 0.84955 0.36103 0.29095 0.0
O714 O 0.8306 0.32747 0.31913 0.0
O715 O 0.80319 0.2947 0.31905 0.0
O716 O 0.77889 0.28117 0.27671 0.0
O717 O 0.79193 0.31925 0.27182 0.0
C718 C 0.86845 0.2966 0.30053 0.0
O719 O 0.81112 0.25106 0.31602 0.0
O720 O 0.79751 0.23802 0.28001 0.0
C721 C 0.82637 0.38484 0.27532 0.0
C722 C 0.79794 0.41666 0.28143 0.0
C723 C 0.80995 0.41608 0.26195 0.0
C724 C 0.82419 0.40029 0.25898 0.0
C725 C 0.81312 0.38426 0.29383 0.0
C726 C 0.79914 0.40017 0.29697 0.0
C727 C 0.84059 0.36773 0.2719 0.0
H728 H 0.82681 0.16423 0.3133 0.0
H729 H 0.80196 0.19221 0.3193 0.0
H730 H 0.84365 0.23911 0.28125 0.0
H731 H 0.8681 0.21156 0.27502 0.0
H732 H 0.8089 0.42833 0.24946 0.0
H733 H 0.83363 0.40025 0.2441 0.0
H734 H 0.81389 0.37178 0.30614 0.0
H735 H 0.79022 0.40026 0.31222 0.0
Tb736 Tb 0.07746 0.54389 0.5602 0.0
Eu737 Eu 0.05962 0.55809 0.51144 0.0
C738 C 0.07173 0.50655 0.51148 0.0
C739 C 0.11363 0.56715 0.53068 0.0
C740 C 0.07147 0.51244 0.61035 0.0
C741 C 0.06758 0.49114 0.64344 0.0
C742 C 0.08045 0.49913 0.62617 0.0
C743 C 0.04823 0.51401 0.60927 0.0
C744 C 0.03546 0.50606 0.62651 0.0
C745 C 0.04645 0.49776 0.6455 0.0
C746 C 0.0868 0.52722 0.59744 0.0
O747 O 0.07807 0.58167 0.57005 0.0
O748 O 0.05107 0.58391 0.54005 0.0
O749 O 0.02865 0.534 0.5181 0.0
O750 O 0.03997 0.53653 0.55752 0.0
C751 C 0.06367 0.59339 0.56021 0.0
O752 O 0.06073 0.59016 0.49626 0.0
O753 O 0.04266 0.55733 0.47592 0.0
O754 O 0.06407 0.52131 0.49851 0.0
O755 O 0.07804 0.51281 0.53441 0.0
O756 O 0.10914 0.56369 0.5517 0.0
O757 O 0.09769 0.56219 0.51245 0.0
C758 C 0.02453 0.52938 0.53885 0.0
O759 O 0.08958 0.51786 0.57697 0.0
O760 O 0.08314 0.54812 0.59688 0.0
C761 C 0.06435 0.58529 0.45696 0.0
C762 C 0.08719 0.59335 0.41831 0.0
C763 C 0.07207 0.60747 0.42507 0.0
C764 C 0.06054 0.60332 0.44429 0.0
C765 C 0.08155 0.57321 0.45211 0.0
C766 C 0.09295 0.57722 0.43289 0.0
C767 C 0.05097 0.57945 0.47571 0.0
H768 H 0.07609 0.48419 0.65776 0.0
H769 H 0.09814 0.49711 0.62679 0.0
H770 H 0.04086 0.52389 0.59698 0.0
H771 H 1.01899 0.51095 0.62749 0.0
H772 H 0.06766 0.62026 0.41429 0.0
H773 H 0.04792 0.61339 0.44856 0.0
H774 H 0.08523 0.55978 0.46238 0.0
H775 H 0.10445 0.56599 0.4282 0.0
Tb776 Tb 0.7957 0.79291 0.27643 0.0
Eu777 Eu 0.85483 0.79647 0.29461 0.0
C778 C 0.83145 0.83408 0.26779 0.0
C779 C 0.82823 0.77473 0.23913 0.0
C780 C 0.73592 0.78718 0.28491 0.0
C781 C 0.71174 0.8136 0.29716 0.0
C782 C 0.72683 0.8071 0.28226 0.0
C783 C 0.72972 0.77399 0.30279 0.0
C784 C 0.71466 0.78043 0.31758 0.0
C785 C 0.70535 0.80021 0.31488 0.0
C786 C 0.75287 0.7809 0.27011 0.0
O787 O 0.81847 0.77451 0.29043 0.0
O788 O 0.84524 0.76023 0.30458 0.0
O789 O 0.83922 0.8124 0.32597 0.0
O790 O 0.79995 0.80944 0.31353 0.0
C791 C 0.82343 0.75675 0.29889 0.0
O792 O 0.88599 0.78497 0.3063 0.0
O793 O 0.88807 0.82099 0.30087 0.0
O794 O 0.84731 0.82148 0.26943 0.0
O795 O 0.81068 0.828 0.27337 0.0
O796 O 0.80814 0.78016 0.24326 0.0
O797 O 0.84634 0.77821 0.25602 0.0
C798 C 0.81841 0.81569 0.33001 0.0
O799 O 0.76414 0.79786 0.26036 0.0
O800 O 0.7663 0.76786 0.27875 0.0
C801 C 0.91638 0.8016 0.28777 0.0
C802 C 0.9475 0.79377 0.2566 0.0
C803 C 0.94459 0.78045 0.27509 0.0
C804 C 0.92932 0.78449 0.29067 0.0
C805 C 0.91828 0.81404 0.26852 0.0
C806 C 0.93381 0.81023 0.25313 0.0
C807 C 0.89934 0.80441 0.30352 0.0
H808 H 0.7048 0.82887 0.29458 0.0
H809 H 0.73134 0.81769 0.26868 0.0
H810 H 0.73637 0.75854 0.30531 0.0
H811 H 0.7096 0.76924 0.33052 0.0
H812 H 0.95475 0.76747 0.27799 0.0
H813 H 0.92762 0.77425 0.30504 0.0
H814 H 0.90803 0.8269 0.26549 0.0
H815 H 0.93588 0.82102 0.23923 0.0
Tb816 Tb 0.83429 0.3266 0.79553 0.0
Eu817 Eu 0.81169 0.27117 0.77362 0.0
C818 C 0.7829 0.31043 0.7767 0.0
C819 C 0.81351 0.28948 0.82781 0.0
C820 C 0.87149 0.38706 0.80526 0.0
C821 C 0.88488 0.42803 0.80186 0.0
C822 C 0.86726 0.4095 0.80469 0.0
C823 C 0.89355 0.38328 0.80205 0.0
C824 C 0.91128 0.40191 0.79955 0.0
C825 C 0.90716 0.42449 0.7998 0.0
C826 C 0.85317 0.36845 0.81084 0.0
O827 O 0.8617 0.31002 0.78659 0.0
O828 O 0.84558 0.27452 0.7955 0.0
O829 O 0.83114 0.28697 0.74607 0.0
O830 O 0.82933 0.32495 0.75758 0.0
C831 C 0.86367 0.29087 0.79505 0.0
O832 O 0.81353 0.23436 0.77039 0.0
O833 O 0.78501 0.24521 0.75124 0.0
O834 O 0.78745 0.29349 0.76289 0.0
O835 O 0.79733 0.32097 0.79524 0.0
O836 O 0.8297 0.30751 0.82556 0.0
O837 O 0.80061 0.27608 0.80952 0.0
C838 C 0.8318 0.30841 0.74159 0.0
O839 O 0.8343 0.36223 0.79588 0.0
O840 O 0.85956 0.3506 0.81888 0.0
C841 C 0.77709 0.20831 0.76406 0.0
C842 C 0.74295 0.16999 0.76976 0.0
C843 C 0.76398 0.16669 0.76281 0.0
C844 C 0.78086 0.18572 0.75983 0.0
C845 C 0.75682 0.21177 0.77275 0.0
C846 C 0.73976 0.1927 0.77539 0.0
C847 C 0.79347 0.22773 0.75741 0.0
H848 H 0.8814 0.44535 0.8024 0.0
H849 H 0.85045 0.41287 0.80721 0.0
H850 H 0.8973 0.36612 0.80223 0.0
H851 H 0.92838 0.39883 0.79805 0.0
H852 H 0.76679 0.14933 0.75827 0.0
H853 H 0.79642 0.18272 0.75324 0.0
H854 H 0.75372 0.22912 0.77651 0.0
H855 H 0.72377 0.19564 0.78102 0.0
Tb856 Tb 0.83426 0.82545 0.79876 0.0
Eu857 Eu 0.81449 0.77613 0.77055 0.0
C858 C 0.83483 0.78229 0.828 0.0
C859 C 0.86952 0.8034 0.771 0.0
C860 C 0.82359 0.88064 0.81495 0.0
C861 C 0.80289 0.90945 0.82937 0.0
C862 C 0.82186 0.89874 0.83193 0.0
C863 C 0.80623 0.87334 0.79563 0.0
C864 C 0.78745 0.88374 0.79319 0.0
C865 C 0.78545 0.9017 0.81007 0.0
C866 C 0.84126 0.86678 0.81806 0.0
O867 O 0.82809 0.83135 0.76107 0.0
O868 O 0.80121 0.79911 0.7449 0.0
O869 O 0.78127 0.78196 0.78318 0.0
O870 O 0.79661 0.81802 0.80357 0.0
C871 C 0.81282 0.82007 0.74307 0.0
O872 O 0.81221 0.75264 0.73821 0.0
O873 O 0.80068 0.73887 0.76872 0.0
O874 O 0.82355 0.76888 0.80877 0.0
O875 O 0.84322 0.80453 0.82691 0.0
O876 O 0.8676 0.81822 0.78915 0.0
O877 O 0.85123 0.78746 0.76129 0.0
C878 C 0.77892 0.80001 0.79732 0.0
O879 O 0.83531 0.84899 0.82901 0.0
O880 O 0.84953 0.86077 0.79908 0.0
C881 C 0.82572 0.7207 0.74947 0.0
C882 C 0.86106 0.696 0.75317 0.0
C883 C 0.84097 0.68706 0.73713 0.0
C884 C 0.82334 0.69954 0.73512 0.0
C885 C 0.84606 0.72969 0.76515 0.0
C886 C 0.86364 0.71749 0.76691 0.0
C887 C 0.80769 0.73421 0.74865 0.0
H888 H 0.8016 0.92335 0.84257 0.0
H889 H 0.83483 0.90423 0.84723 0.0
H890 H 0.80684 0.85911 0.78254 0.0
H891 H 0.77447 0.87773 0.77793 0.0
H892 H 0.83884 0.67038 0.7265 0.0
H893 H 0.80785 0.69257 0.72276 0.0
H894 H 0.84818 0.74601 0.77641 0.0
H895 H 0.87892 0.72444 0.7796 0.0
Tb896 Tb 0.54304 0.54083 0.5111 0.0
Eu897 Eu 0.5978 0.55555 0.54064 0.0
C898 C 0.58703 0.5333 0.48887 0.0
C899 C 0.56745 0.50304 0.53253 0.0
C900 C 0.48471 0.54729 0.49115 0.0
C901 C 0.45155 0.56087 0.47379 0.0
C902 C 0.46824 0.54737 0.47183 0.0
C903 C 0.48435 0.56095 0.5124 0.0
C904 C 0.46756 0.57415 0.51445 0.0
C905 C 0.45101 0.57422 0.4952 0.0
C906 C 0.50294 0.53398 0.48896 0.0
O907 O 0.54115 0.55915 0.54453 0.0
O908 O 0.57365 0.5541 0.56696 0.0
O909 O 0.59114 0.58483 0.52141 0.0
O910 O 0.55189 0.57808 0.52067 0.0
C911 C 0.55227 0.55637 0.56441 0.0
O912 O 0.62144 0.55939 0.57313 0.0
O913 O 0.63438 0.57023 0.54166 0.0
O914 O 0.59658 0.53014 0.50929 0.0
O915 O 0.56774 0.54076 0.48652 0.0
O916 O 0.54812 0.50937 0.52559 0.0
O917 O 0.58791 0.517 0.53624 0.0
C918 C 0.57162 0.59161 0.519 0.0
O919 O 0.52127 0.54477 0.48126 0.0
O920 O 0.5083 0.52354 0.50693 0.0
C921 C 0.65663 0.55071 0.56553 0.0
C922 C 0.68695 0.52033 0.57157 0.0
C923 C 0.68671 0.53819 0.58957 0.0
C924 C 0.67159 0.55327 0.58656 0.0
C925 C 0.65675 0.53281 0.54764 0.0
C926 C 0.67187 0.51789 0.55056 0.0
C927 C 0.63962 0.56537 0.56284 0.0
H928 H 0.43894 0.5607 0.45872 0.0
H929 H 0.4684 0.53712 0.45522 0.0
H930 H 0.49711 0.5615 0.52744 0.0
H931 H 0.46769 0.58459 0.53102 0.0
H932 H 0.69797 0.54028 0.60605 0.0
H933 H 0.67136 0.5667 0.60073 0.0
H934 H 0.645 0.53019 0.53144 0.0
H935 H 0.67187 0.50454 0.53625 0.0
Tb936 Tb 0.0481 0.52192 0.02658 0.0
Eu937 Eu 0.08106 0.57304 0.03784 0.0
C938 C 0.05806 0.54788 0.07738 0.0
C939 C 0.02503 0.56838 0.0313 0.0
C940 C 0.02955 0.46046 1.00074 0.0
C941 C 0.02968 0.41928 0.99854 0.0
C942 C 0.02484 0.43938 1.00998 0.0
C943 C 0.03942 0.46113 0.97982 0.0
C944 C 0.0441 0.4409 0.96821 0.0
C945 C 0.03927 0.41973 0.97747 0.0
C946 C 0.02454 0.48151 0.01353 0.0
O947 O 0.06719 0.52699 0.99786 0.0
O948 O 0.06695 0.56507 0.99968 0.0
O949 O 0.1066 0.5491 0.03161 0.0
O950 O 0.08344 0.51464 0.03674 0.0
C951 C 0.06698 0.54522 0.98758 0.0
O952 O 0.09282 0.60746 0.02766 0.0
O953 O 0.1084 0.59856 0.06013 0.0
O954 O 0.077 0.5601 0.07209 0.0
O955 O 0.04259 0.5342 0.06146 0.0
O956 O 0.02369 0.54666 0.021 0.0
O957 O 0.04523 0.58041 0.04227 0.0
C958 C 0.10427 0.52689 0.03464 0.0
O959 O 0.03592 0.48826 0.03459 0.0
O960 O 0.0234 0.49898 1.00173 0.0
C961 C 0.10268 0.63699 0.06002 0.0
C962 C 0.09741 0.67928 0.08339 0.0
C963 C 0.10297 0.67809 0.06052 0.0
C964 C 0.10574 0.65711 0.04897 0.0
C965 C 0.09626 0.63805 0.08269 0.0
C966 C 0.09385 0.65915 0.09437 0.0
C967 C 0.10604 0.61515 0.04757 0.0
H968 H 0.02537 0.4032 1.00595 0.0
H969 H 1.01731 0.43844 0.02608 0.0
H970 H 0.04352 0.47723 0.97238 0.0
H971 H 0.05157 0.44184 0.95208 0.0
H972 H 0.10583 0.69355 0.05187 0.0
H973 H 0.1105 0.65662 0.03147 0.0
H974 H 0.09337 0.62269 0.09149 0.0
H975 H 0.08943 0.65983 0.11201 0.0
H976 H 0.04864 0.16966 0.91956 0.0
H977 H 1.00614 0.1989 0.96508 0.0
H978 H 0.06562 0.15293 0.9518 0.0
H979 H 0.0238 0.18261 0.99782 0.0
H980 H 0.02524 0.10902 0.02226 0.0
H981 H 1.01779 0.1418 1.0032 0.0
H982 H 0.08876 0.1578 0.99028 0.0
H983 H 0.09605 0.12446 1.00909 0.0
C984 C 0.04334 0.17296 0.93665 0.0
C985 C 0.02581 0.18516 0.93982 0.0
C986 C 0.05332 0.16366 0.95522 0.0
C987 C 0.04609 0.1666 0.97735 0.0
C988 C 0.02954 0.18002 0.98086 0.0
C989 C 1.01933 0.18913 0.96216 0.0
C990 C 0.03939 0.11998 0.01597 0.0
C991 C 0.06102 0.11408 0.01659 0.0
C992 C 0.03524 0.13894 1.0053 0.0
C993 C 0.05265 0.15211 0.99499 0.0
C994 C 0.07501 0.1477 0.99792 0.0
C995 C 0.0792 0.12874 1.00873 0.0
H996 H 0.2049 0.91346 0.2515 0.0
H997 H 0.173 0.85255 0.20194 0.0
H998 H 0.23323 0.89248 0.26763 0.0
H999 H 0.20109 0.83168 0.21804 0.0
H1000 H 0.23777 0.79543 0.2729 0.0
H1001 H 0.20966 0.81676 0.25643 0.0
H1002 H 0.26521 0.87535 0.25411 0.0
H1003 H 0.2928 0.85443 0.2712 0.0
C1004 C 0.2042 0.89574 0.24395 0.0
C1005 C 0.18712 0.88465 0.22545 0.0
C1006 C 0.22027 0.88378 0.25311 0.0
C1007 C 0.21904 0.8605 0.24411 0.0
C1008 C 0.20214 0.84955 0.22536 0.0
C1009 C 0.18636 0.8616 0.21598 0.0
C1010 C 0.24366 0.81297 0.26908 0.0
C1011 C 0.26701 0.82376 0.27366 0.0
C1012 C 0.22781 0.82504 0.25957 0.0
C1013 C 0.23544 0.84769 0.25427 0.0
C1014 C 0.25894 0.85815 0.2586 0.0
C1015 C 0.27462 0.84627 0.26838 0.0
H1016 H 0.48204 0.79202 0.4047 0.0
H1017 H 0.55128 0.78198 0.42274 0.0
H1018 H 0.49448 0.83287 0.42115 0.0
H1019 H 0.56372 0.82303 0.43961 0.0
H1020 H 0.55793 0.88605 0.49695 0.0
H1021 H 0.55425 0.84753 0.47505 0.0
H1022 H 0.52071 0.8699 0.41417 0.0
H1023 H 0.52397 0.90821 0.4361 0.0
C1024 C 0.49994 0.7986 0.41213 0.0
C1025 C 0.51566 0.78385 0.41251 0.0
C1026 C 0.50713 0.82203 0.42134 0.0
C1027 C 0.53012 0.83118 0.4315 0.0
C1028 C 0.54593 0.81645 0.43182 0.0
C1029 C 0.53882 0.79303 0.42214 0.0
C1030 C 0.55006 0.88283 0.47879 0.0
C1031 C 0.54073 0.90001 0.46844 0.0
C1032 C 0.54816 0.86085 0.46619 0.0
C1033 C 0.53676 0.85561 0.44307 0.0
C1034 C 0.52921 0.87337 0.43212 0.0
C1035 C 0.53124 0.89537 0.44465 0.0
H1036 H 0.58654 0.33359 0.7346 0.0
H1037 H 0.54017 0.36747 0.69491 0.0
H1038 H 0.55369 0.30458 0.74144 0.0
H1039 H 0.50753 0.3387 0.70174 0.0
H1040 H 0.45034 0.28583 0.71262 0.0
H1041 H 0.48611 0.29847 0.69644 0.0
H1042 H 0.52444 0.30877 0.76606 0.0
H1043 H 0.48918 0.29608 0.78198 0.0
C1044 C 0.56935 0.33478 0.72727 0.0
C1045 C 0.56584 0.35293 0.71447 0.0
C1046 C 0.55061 0.31807 0.73099 0.0
C1047 C 0.52806 0.31931 0.72207 0.0
C1048 C 0.5247 0.33695 0.70845 0.0
C1049 C 0.54341 0.35363 0.70476 0.0
C1050 C 0.46656 0.29012 0.72427 0.0
C1051 C 0.46698 0.29035 0.74859 0.0
C1052 C 0.48697 0.29735 0.71504 0.0
C1053 C 0.50797 0.30503 0.73006 0.0
C1054 C 0.5086 0.30279 0.75398 0.0
C1055 C 0.48829 0.2955 0.76315 0.0
H1056 H 0.08915 0.88614 0.63827 0.0
H1057 H 0.02172 0.86408 0.59786 0.0
H1058 H 0.09452 0.92273 0.62089 0.0
H1059 H 0.02663 0.90029 0.58121 0.0
H1060 H 0.04273 0.96141 0.53911 0.0
H1061 H 0.03973 0.92515 0.55609 0.0
H1062 H 0.08918 0.96038 0.61539 0.0
H1063 H 0.09207 0.99681 0.59811 0.0
C1064 C 0.07535 0.88884 0.62573 0.0
C1065 C 0.05495 0.8712 0.61974 0.0
C1066 C 0.07838 0.91028 0.61565 0.0
C1067 C 0.06118 0.91548 0.599 0.0
C1068 C 0.04086 0.89774 0.59325 0.0
C1069 C 0.03791 0.87647 0.60317 0.0
C1070 C 0.05318 0.96162 0.55572 0.0
C1071 C 0.06773 0.98281 0.56681 0.0
C1072 C 0.05127 0.94043 0.56586 0.0
C1073 C 0.06397 0.93878 0.58777 0.0
C1074 C 0.07892 0.95998 0.59864 0.0
C1075 C 0.08057 0.98132 0.58861 0.0
H1076 H 0.51692 0.78517 0.8304 0.0
H1077 H 0.49503 0.79496 0.89832 0.0
H1078 H 0.47834 0.78642 0.81159 0.0
H1079 H 0.45648 0.79695 0.8795 0.0
H1080 H 0.39711 0.82395 0.83691 0.0
H1081 H 0.43553 0.82199 0.85597 0.0
H1082 H 0.43701 0.76446 0.80429 0.0
H1083 H 0.39827 0.76614 0.78567 0.0
C1084 C 0.50393 0.78772 0.84143 0.0
C1085 C 0.50947 0.78998 0.86607 0.0
C1086 C 0.48158 0.78832 0.83054 0.0
C1087 C 0.46383 0.79185 0.84378 0.0
C1088 C 0.46945 0.79435 0.86848 0.0
C1089 C 0.49168 0.79309 0.87938 0.0
C1090 C 0.40566 0.81092 0.82953 0.0
C1091 C 0.39447 0.79537 0.80951 0.0
C1092 C 0.42776 0.80966 0.84062 0.0
C1093 C 0.43984 0.79304 0.83191 0.0
C1094 C 0.42866 0.77766 0.81163 0.0
C1095 C 0.40631 0.7786 0.80085 0.0
H1096 H 0.54149 0.21594 0.1506 0.0
H1097 H 0.57866 0.24454 0.09745 0.0
H1098 H 0.54324 0.17669 0.13369 0.0
H1099 H 0.58 0.20585 0.08012 0.0
H1100 H 0.59224 0.13437 0.05525 0.0
H1101 H 0.59127 0.17279 0.07395 0.0
H1102 H 0.53555 0.14248 0.10987 0.0
H1103 H 0.53794 0.10372 0.09207 0.0
C1104 C 0.55023 0.21401 0.13537 0.0
C1105 C 0.56011 0.23408 0.12582 0.0
C1106 C 0.55108 0.1911 0.12528 0.0
C1107 C 0.56195 0.1869 0.10508 0.0
C1108 C 0.57178 0.20722 0.0957 0.0
C1109 C 0.57087 0.22997 0.10573 0.0
C1110 C 0.57981 0.13578 0.06726 0.0
C1111 C 0.56534 0.11536 0.072 0.0
C1112 C 0.579 0.15829 0.07807 0.0
C1113 C 0.56312 0.16199 0.09385 0.0
C1114 C 0.54846 0.14135 0.09843 0.0
C1115 C 0.54973 0.11869 0.08801 0.0
H1116 H 0.16541 0.28572 0.38971 0.0
H1117 H 0.13632 0.30348 0.32429 0.0
H1118 H 0.20258 0.28722 0.37437 0.0
H1119 H 0.17291 0.30519 0.30935 0.0
H1120 H 0.2488 0.32782 0.29451 0.0
H1121 H 0.21267 0.32687 0.3113 0.0
H1122 H 0.22371 0.268 0.34535 0.0
H1123 H 0.25932 0.26846 0.32779 0.0
C1124 C 0.16674 0.29013 0.3722 0.0
C1125 C 0.14715 0.29456 0.35862 0.0
C1126 C 0.18827 0.29086 0.36319 0.0
C1127 C 0.19148 0.29649 0.34031 0.0
C1128 C 0.17192 0.30113 0.32703 0.0
C1129 C 0.15051 0.30002 0.3358 0.0
C1130 C 0.24358 0.31456 0.30548 0.0
C1131 C 0.2574 0.29809 0.30933 0.0
C1132 C 0.22257 0.31394 0.31523 0.0
C1133 C 0.21457 0.29733 0.33006 0.0
C1134 C 0.22877 0.28122 0.33431 0.0
C1135 C 0.24937 0.28139 0.32396 0.0
H1136 H 0.94044 0.0298 0.1312 0.0
H1137 H 0.9957 0.03005 0.18655 0.0
H1138 H 0.96663 0.02604 0.10215 0.0
H1139 H 0.02148 0.0257 0.15757 0.0
H1140 H 0.05772 0.07645 0.10972 0.0
H1141 H 0.03092 0.06286 0.13623 0.0
H1142 H 0.99832 1.00367 0.0848 0.0
H1143 H 0.0262 0.01692 0.05856 0.0
C1144 C 0.95803 0.02861 0.13702 0.0
C1145 C 0.96658 0.03141 0.16094 0.0
C1146 C 0.97276 0.02599 0.12048 0.0
C1147 C 0.99591 0.02596 0.12795 0.0
C1148 C 1.00364 0.02599 0.15168 0.0
C1149 C 0.98909 0.02896 0.16816 0.0
C1150 C 0.04479 0.06058 0.10411 0.0
C1151 C 0.04313 0.04816 0.08191 0.0
C1152 C 0.02974 0.05266 0.11929 0.0
C1153 C 1.01288 0.03218 0.1124 0.0
C1154 C 1.01127 0.01954 0.09023 0.0
C1155 C 0.02668 0.02739 0.0751 0.0
H1156 H 0.28142 0.72413 0.45454 0.0
H1157 H 0.33723 0.78372 0.47709 0.0
H1158 H 0.27705 0.7357 0.41536 0.0
H1159 H 0.33301 0.79523 0.438 0.0
H1160 H 0.3143 0.81902 0.3693 0.0
H1161 H 0.31003 0.80928 0.40861 0.0
H1162 H 0.29876 0.73624 0.38237 0.0
H1163 H 0.30213 0.74608 0.3428 0.0
C1164 C 0.29229 0.74012 0.45137 0.0
C1165 C 0.30963 0.75312 0.46905 0.0
C1166 C 0.29001 0.74655 0.42876 0.0
C1167 C 0.30479 0.76631 0.42337 0.0
C1168 C 0.32116 0.78003 0.44148 0.0
C1169 C 0.32362 0.77345 0.46396 0.0
C1170 C 0.31069 0.80088 0.37192 0.0
C1171 C 0.30871 0.78335 0.35302 0.0
C1172 C 0.30832 0.79527 0.39447 0.0
C1173 C 0.30432 0.77199 0.39882 0.0
C1174 C 0.30156 0.75436 0.3797 0.0
C1175 C 0.30359 0.75998 0.35701 0.0
H1176 H 0.55005 0.98968 0.7038 0.0
H1177 H 0.61741 0.99912 0.68192 0.0
H1178 H 0.54533 0.02659 0.69078 0.0
H1179 H 0.61273 0.03535 0.66838 0.0
H1180 H 0.59533 0.07662 0.61821 0.0
H1181 H 0.60161 0.07044 0.65907 0.0
H1182 H 0.53681 0.02025 0.64852 0.0
H1183 H 0.53051 0.0266 0.60802 0.0
C1184 C 0.56436 1.00035 0.69745 0.0
C1185 C 0.58376 0.9915 0.69302 0.0
C1186 C 0.56168 0.02145 0.68995 0.0
C1187 C 0.57798 0.03307 0.67716 0.0
C1188 C 0.59946 0.02659 0.67753 0.0
C1189 C 0.60219 1.00566 0.68518 0.0
C1190 C 0.58208 0.06477 0.62482 0.0
C1191 C 0.56283 0.05133 0.60967 0.0
C1192 C 0.58564 0.06141 0.64833 0.0
C1193 C 0.57007 0.04444 0.65702 0.0
C1194 C 0.5493 0.03345 0.64258 0.0
C1195 C 0.54578 0.03677 0.61911 0.0
H1196 H 0.34884 0.39025 0.97471 0.0
H1197 H 0.27485 0.36985 0.96688 0.0
H1198 H 0.34877 0.37325 0.93494 0.0
H1199 H 0.27466 0.35138 0.92655 0.0
H1200 H 0.28061 0.33121 0.84648 0.0
H1201 H 0.27798 0.34911 0.88611 0.0
H1202 H 0.34747 0.34229 0.90867 0.0
H1203 H 0.35005 0.32515 0.86944 0.0
C1204 C 0.33235 0.38182 0.9646 0.0
C1205 C 0.3119 0.38157 0.97482 0.0
C1206 C 0.33231 0.37163 0.94134 0.0
C1207 C 0.31179 0.35995 0.92663 0.0
C1208 C 0.29106 0.36001 0.93664 0.0
C1209 C 0.2911 0.3707 0.9601 0.0
C1210 C 0.29543 0.33369 0.85985 0.0
C1211 C 0.31569 0.32666 0.85403 0.0
C1212 C 0.29388 0.34395 0.88297 0.0
C1213 C 0.31259 0.34798 0.90151 0.0
C1214 C 0.33262 0.34052 0.89552 0.0
C1215 C 0.3341 0.33022 0.8726 0.0
H1216 H 0.92905 0.01878 0.28897 0.0
H1217 H 0.98605 1.00384 0.25464 0.0
H1218 H 0.95391 0.02711 0.32658 0.0
H1219 H 1.011 0.01282 0.29206 0.0
H1220 H 0.03802 1.0029 0.36685 0.0
H1221 H 1.01588 0.99703 0.32826 0.0
H1222 H 0.98711 0.0569 0.34698 0.0
H1223 H 1.00927 0.06259 0.38621 0.0
C1224 C 0.94675 0.01685 0.28952 0.0
C1225 C 0.9556 1.01047 0.26895 0.0
C1226 C 0.96108 0.02208 0.31096 0.0
C1227 C 0.98444 0.02094 0.31212 0.0
C1228 C 0.99303 0.01376 0.29166 0.0
C1229 C 0.97872 1.0085 0.27027 0.0
C1230 C 0.0276 0.01531 0.36252 0.0
C1231 C 0.02539 0.03325 0.37942 0.0
C1232 C 1.0148 0.01186 0.34043 0.0
C1233 C 0.99964 0.02636 0.33474 0.0
C1234 C 0.99838 0.04519 0.35115 0.0
C1235 C 1.01116 0.04859 0.37342 0.0
H1236 H 0.3623 0.73797 0.60394 0.0
H1237 H 0.29175 0.74418 0.58681 0.0
H1238 H 0.36018 0.74777 0.64561 0.0
H1239 H 0.28983 0.7548 0.62863 0.0
H1240 H 0.3096 0.80131 0.70217 0.0
H1241 H 0.30919 0.78869 0.6607 0.0
H1242 H 0.33881 0.73086 0.67824 0.0
H1243 H 0.33898 0.74335 0.72013 0.0
C1244 C 0.34639 0.74168 0.60908 0.0
C1245 C 0.32726 0.74047 0.59202 0.0
C1246 C 0.3451 0.74706 0.633 0.0
C1247 C 0.32483 0.75199 0.64054 0.0
C1248 C 0.30573 0.7511 0.62344 0.0
C1249 C 0.30681 0.74503 0.5995 0.0
C1250 C 0.31599 0.78581 0.69731 0.0
C1251 C 0.32451 0.77346 0.71466 0.0
C1252 C 0.31557 0.7785 0.67343 0.0
C1253 C 0.324 0.75879 0.66606 0.0
C1254 C 0.33235 0.74624 0.68333 0.0
C1255 C 0.33238 0.75334 0.70733 0.0
H1256 H 0.59171 0.98761 0.82238 0.0
H1257 H 0.57351 0.02995 0.7699 0.0
H1258 H 0.60065 0.02133 0.85209 0.0
H1259 H 0.58198 0.06411 0.80016 0.0
H1260 H 0.56133 0.09304 0.87513 0.0
H1261 H 0.56423 0.07482 0.83661 0.0
H1262 H 0.62961 0.05988 0.8629 0.0
H1263 H 0.62693 0.07854 0.90181 0.0
C1264 C 0.58913 1.00414 0.81735 0.0
C1265 C 0.58157 1.00619 0.79399 0.0
C1266 C 0.59483 0.02356 0.83422 0.0
C1267 C 0.59271 0.04547 0.82822 0.0
C1268 C 0.58411 0.04743 0.80506 0.0
C1269 C 0.57872 0.02788 0.78795 0.0
C1270 C 0.57703 0.08718 0.87257 0.0
C1271 C 0.5934 0.08621 0.89174 0.0
C1272 C 0.57865 0.07666 0.85034 0.0
C1273 C 0.59662 0.06512 0.84714 0.0
C1274 C 0.61521 0.06812 0.86523 0.0
C1275 C 0.61366 0.07876 0.88747 0.0
H1276 H 0.27145 0.37759 0.10932 0.0
H1277 H 0.34394 0.37751 0.1136 0.0
H1278 H 0.27042 0.35973 0.14613 0.0
H1279 H 0.34294 0.36055 0.14972 0.0
H1280 H 0.34276 0.35349 0.22803 0.0
H1281 H 0.34025 0.36994 0.19117 0.0
H1282 H 0.27469 0.32331 0.16743 0.0
H1283 H 0.27757 0.30622 0.20451 0.0
C1284 C 0.2872 0.3739 0.11781 0.0
C1285 C 0.30778 0.37936 0.10759 0.0
C1286 C 0.28662 0.36346 0.13918 0.0
C1287 C 0.30669 0.35854 0.15176 0.0
C1288 C 0.32703 0.36405 0.1414 0.0
C1289 C 0.3275 0.37387 0.1201 0.0
C1290 C 0.32766 0.34656 0.21514 0.0
C1291 C 0.31045 0.32819 0.21998 0.0
C1292 C 0.32624 0.35609 0.19358 0.0
C1293 C 0.30723 0.3483 0.17551 0.0
C1294 C 0.28966 0.33022 0.18047 0.0
C1295 C 0.29138 0.32021 0.20197 0.0
H1296 H 0.275 0.92106 0.09776 0.0
H1297 H 0.28975 0.94526 0.03244 0.0
H1298 H 0.2471 0.94625 0.10107 0.0
H1299 H 0.26235 0.97089 0.03592 0.0
H1300 H 0.23422 0.03273 0.06538 0.0
H1301 H 0.26153 1.00681 0.06515 0.0
H1302 H 0.20831 0.95055 0.07805 0.0
H1303 H 0.18087 0.97651 0.0778 0.0
C1304 C 0.27184 0.93147 0.08393 0.0
C1305 C 0.28387 0.93092 0.06457 0.0
C1306 C 0.25608 0.94592 0.08587 0.0
C1307 C 0.25271 0.96053 0.06881 0.0
C1308 C 0.26474 0.95984 0.04936 0.0
C1309 C 0.2801 0.945 0.04717 0.0
C1310 C 0.22856 0.0149 0.0685 0.0
C1311 C 0.20561 1.00643 0.0715 0.0
C1312 C 0.24404 1.00008 0.06819 0.0
C1313 C 0.23687 0.97665 0.07125 0.0
C1314 C 0.21419 0.96853 0.07558 0.0
C1315 C 0.19856 0.98328 0.07542 0.0
H1316 H 0.75023 0.65431 0.02246 0.0
H1317 H 0.76238 0.58504 0.02367 0.0
H1318 H 0.7092 0.6394 0.02515 0.0
H1319 H 0.72223 0.57043 0.02683 0.0
H1320 H 0.64441 0.54299 0.01486 0.0
H1321 H 0.68416 0.5592 1.00983 0.0
H1322 H 0.67998 0.62472 0.04768 0.0
H1323 H 0.64004 0.60845 0.05235 0.0
C1324 C 0.74434 0.63594 0.02328 0.0
C1325 C 0.76023 0.62112 0.02281 0.0
C1326 C 0.72059 0.62727 0.025 0.0
C1327 C 0.71163 0.60337 0.02621 0.0
C1328 C 0.72765 0.58875 0.02555 0.0
C1329 C 0.75116 0.59734 0.02389 0.0
C1330 C 0.6519 0.56083 0.02227 0.0
C1331 C 0.63859 0.57406 0.03439 0.0
C1332 C 0.67505 0.57028 0.01946 0.0
C1333 C 0.68614 0.59354 0.02849 0.0
C1334 C 0.6726 0.60688 0.04024 0.0
C1335 C 0.64947 0.59736 0.04318 0.0
H1336 H 0.74973 0.51413 0.3715 0.0
H1337 H 0.75754 0.54858 0.30994 0.0
H1338 H 0.76191 0.4806 0.3522 0.0
H1339 H 0.76948 0.51521 0.29064 0.0
H1340 H 0.81524 0.46191 0.27866 0.0
H1341 H 0.80222 0.49532 0.29572 0.0
H1342 H 0.74436 0.44991 0.31679 0.0
H1343 H 0.75724 0.41606 0.29926 0.0
C1344 C 0.75471 0.51473 0.35414 0.0
C1345 C 0.75298 0.53377 0.34214 0.0
C1346 C 0.76118 0.49548 0.34297 0.0
C1347 C 0.76624 0.49537 0.31989 0.0
C1348 C 0.76563 0.51497 0.30844 0.0
C1349 C 0.75898 0.53403 0.31948 0.0
C1350 C 0.79932 0.45897 0.28621 0.0
C1351 C 0.78726 0.4364 0.28767 0.0
C1352 C 0.79201 0.47811 0.29616 0.0
C1353 C 0.77257 0.47503 0.3078 0.0
C1354 C 0.75972 0.45256 0.30827 0.0
C1355 C 0.76698 0.43331 0.29817 0.0
H1356 H 0.91453 0.40848 0.53027 0.0
H1357 H 0.88802 0.4658 0.5609 0.0
H1358 H 0.95205 0.43491 0.53086 0.0
H1359 H 0.92543 0.49186 0.56218 0.0
H1360 H 1.00365 0.52455 0.57821 0.0
H1361 H 0.96877 0.49614 0.5817 0.0
H1362 H 0.96138 0.47152 0.5078 0.0
H1363 H 0.99612 0.49953 0.50422 0.0
C1364 C 0.91686 0.42666 0.53719 0.0
C1365 C 0.89856 0.43543 0.54502 0.0
C1366 C 0.93815 0.44164 0.53763 0.0
C1367 C 0.94136 0.46525 0.54658 0.0
C1368 C 0.92327 0.47369 0.5553 0.0
C1369 C 0.90191 0.45891 0.55427 0.0
C1370 C 0.99461 0.513 0.56278 0.0
C1371 C 1.00256 0.51416 0.54098 0.0
C1372 C 0.97475 0.49684 0.56479 0.0
C1373 C 0.96283 0.48158 0.54505 0.0
C1374 C 0.97064 0.48289 0.52328 0.0
C1375 C 0.99028 0.49914 0.52122 0.0
H1376 H 0.48396 0.17622 0.33921 0.0
H1377 H 0.47426 0.11858 0.28423 0.0
H1378 H 0.45075 0.18882 0.31957 0.0
H1379 H 0.44079 0.13079 0.26478 0.0
H1380 H 0.36696 0.15077 0.25724 0.0
H1381 H 0.40027 0.13561 0.27265 0.0
H1382 H 0.44324 0.20455 0.28051 0.0
H1383 H 0.41015 0.21954 0.26501 0.0
C1384 C 0.47456 0.16625 0.32301 0.0
C1385 C 0.48158 0.14672 0.31294 0.0
C1386 C 0.45573 0.17344 0.31173 0.0
C1387 C 0.44346 0.16088 0.29052 0.0
C1388 C 0.45004 0.14079 0.28102 0.0
C1389 C 0.46914 0.13391 0.29203 0.0
C1390 C 0.38372 0.16242 0.26152 0.0
C1391 C 0.38607 0.18626 0.26014 0.0
C1392 C 0.40268 0.15385 0.27051 0.0
C1393 C 0.42411 0.16907 0.27825 0.0
C1394 C 0.42676 0.19258 0.27517 0.0
C1395 C 0.40794 0.20108 0.2661 0.0
H1396 H 0.42216 0.16277 0.56006 0.0
H1397 H 0.38466 0.10813 0.5068 0.0
H1398 H 0.45533 0.14409 0.56198 0.0
H1399 H 0.4179 0.08993 0.50746 0.0
H1400 H 0.47698 0.0505 0.51794 0.0
H1401 H 0.44381 0.06893 0.51688 0.0
H1402 H 0.4873 0.13185 0.55512 0.0
H1403 H 0.52007 0.11303 0.55652 0.0
C1404 C 0.42097 0.14687 0.54843 0.0
C1405 C 0.40014 0.13728 0.53327 0.0
C1406 C 0.44039 0.13588 0.54941 0.0
C1407 C 0.44044 0.11477 0.53494 0.0
C1408 C 0.4195 0.10558 0.51951 0.0
C1409 C 0.40002 0.11631 0.51893 0.0
C1410 C 0.47959 0.06825 0.52628 0.0
C1411 C 0.50193 0.0798 0.53739 0.0
C1412 C 0.46018 0.07923 0.52554 0.0
C1413 C 0.46172 0.1026 0.53584 0.0
C1414 C 0.48421 0.11402 0.547 0.0
C1415 C 0.50356 0.10303 0.54773 0.0
H1416 H 0.75322 0.66348 0.38176 0.0
H1417 H 0.75541 0.61995 0.31765 0.0
H1418 H 0.77197 0.69772 0.36515 0.0
H1419 H 0.77309 0.65364 0.30089 0.0
H1420 H 0.8296 0.71363 0.29148 0.0
H1421 H 0.80953 0.68026 0.30719 0.0
H1422 H 0.7625 0.72091 0.33278 0.0
H1423 H 0.78366 0.75491 0.31778 0.0
C1424 C 0.75803 0.66134 0.36432 0.0
C1425 C 0.75302 0.63946 0.35077 0.0
C1426 C 0.76828 0.68078 0.35471 0.0
C1427 C 0.77363 0.67818 0.3317 0.0
C1428 C 0.7692 0.65607 0.31868 0.0
C1429 C 0.7591 0.63686 0.32821 0.0
C1430 C 0.81462 0.71518 0.29999 0.0
C1431 C 0.80772 0.73635 0.30321 0.0
C1432 C 0.80318 0.6962 0.30899 0.0
C1433 C 0.7846 0.69817 0.32125 0.0
C1434 C 0.77698 0.71918 0.32357 0.0
C1435 C 0.7886 0.73833 0.31455 0.0
H1436 H 0.0253 0.53925 0.84771 0.0
H1437 H 0.98067 0.56551 0.79835 0.0
H1438 H 1.00289 0.49985 0.83513 0.0
H1439 H 0.95681 0.52664 0.78703 0.0
H1440 H 0.91642 0.45343 0.76656 0.0
H1441 H 0.94653 0.48884 0.77057 0.0
H1442 H 0.96963 0.47742 0.84119 0.0
H1443 H 0.94082 0.4415 0.83611 0.0
C1444 C 1.01076 0.53646 0.83396 0.0
C1445 C 1.0047 0.55532 0.82396 0.0
C1446 C 0.99757 0.51389 0.82694 0.0
C1447 C 0.97736 0.50974 0.81045 0.0
C1448 C 0.97216 0.52869 0.79961 0.0
C1449 C 0.98581 0.55114 0.80614 0.0
C1450 C 0.92837 0.45844 0.78268 0.0
C1451 C 0.92649 0.44478 0.80099 0.0
C1452 C 0.94553 0.47888 0.78517 0.0
C1453 C 0.96079 0.48647 0.80632 0.0
C1454 C 0.95889 0.47226 0.82438 0.0
C1455 C 0.94217 0.45163 0.82163 0.0
H1456 H 0.06995 0.88847 0.11462 0.0
H1457 H 0.13549 0.93782 0.12898 0.0
H1458 H 0.05724 0.90906 0.08354 0.0
H1459 H 0.12239 0.95871 0.09746 0.0
H1460 H 0.09982 0.98087 0.02972 0.0
H1461 H 0.11046 0.95155 0.05294 0.0
H1462 H 0.04813 0.94881 0.08482 0.0
H1463 H 0.03736 0.97774 0.06117 0.0
C1464 C 0.0818 0.90358 0.11091 0.0
C1465 C 0.10379 0.9116 0.12406 0.0
C1466 C 0.07441 0.91533 0.09318 0.0
C1467 C 0.08893 0.93515 0.08817 0.0
C1468 C 0.11111 0.94311 0.10095 0.0
C1469 C 0.11851 0.93139 0.11899 0.0
C1470 C 0.08798 0.97306 0.04091 0.0
C1471 C 0.06785 0.98112 0.04386 0.0
C1472 C 0.09418 0.95669 0.05433 0.0
C1473 C 0.08027 0.94848 0.07076 0.0
C1474 C 0.05899 0.95493 0.07205 0.0
C1475 C 0.05272 0.97123 0.05848 0.0
H1476 H 0.93666 0.20942 0.85382 0.0
H1477 H 0.99413 0.26161 0.84168 0.0
H1478 H 0.91151 0.23682 0.84968 0.0
H1479 H 0.96936 0.28955 0.83869 0.0
H1480 H 0.90747 0.30065 0.78494 0.0
H1481 H 0.94056 0.29033 0.80674 0.0
H1482 H 0.89978 0.27182 0.8617 0.0
H1483 H 0.86648 0.28042 0.83888 0.0
C1484 C 0.94383 0.22686 0.85048 0.0
C1485 C 0.9668 0.2332 0.84686 0.0
C1486 C 0.92967 0.24276 0.84865 0.0
C1487 C 0.93852 0.26533 0.84364 0.0
C1488 C 0.96205 0.27216 0.84205 0.0
C1489 C 0.97606 0.2561 0.8434 0.0
C1490 C 0.90595 0.29488 0.80193 0.0
C1491 C 0.88462 0.29035 0.81003 0.0
C1492 C 0.92487 0.28929 0.81462 0.0
C1493 C 0.92242 0.27956 0.83558 0.0
C1494 C 0.90186 0.27857 0.84524 0.0
C1495 C 0.88287 0.28343 0.83223 0.0
H1496 H 0.61862 0.32988 0.61926 0.0
H1497 H 0.58996 0.30065 0.67716 0.0
H1498 H 0.61925 0.29091 0.60081 0.0
H1499 H 0.59122 0.26163 0.65931 0.0
H1500 H 0.56744 0.19599 0.6052 0.0
H1501 H 0.57021 0.23477 0.62612 0.0
H1502 H 0.63646 0.25789 0.60345 0.0
H1503 H 0.63334 0.21942 0.58219 0.0
C1504 C 0.6131 0.31505 0.62827 0.0
C1505 C 0.60444 0.31794 0.64955 0.0
C1506 C 0.61343 0.29279 0.61779 0.0
C1507 C 0.6051 0.27314 0.62853 0.0
C1508 C 0.59735 0.27634 0.65041 0.0
C1509 C 0.59689 0.29859 0.66076 0.0
C1510 C 0.58257 0.20941 0.6048 0.0
C1511 C 0.60007 0.20487 0.59193 0.0
C1512 C 0.58425 0.23155 0.61686 0.0
C1513 C 0.60359 0.24942 0.61644 0.0
C1514 C 0.62118 0.24465 0.6038 0.0
C1515 C 0.61939 0.22265 0.59161 0.0
H1516 H 0.597 0.75382 0.3935 0.0
H1517 H 0.58096 0.73407 0.31848 0.0
H1518 H 0.62888 0.78454 0.38772 0.0
H1519 H 0.61287 0.76405 0.31275 0.0
H1520 H 0.66569 0.81364 0.29889 0.0
H1521 H 0.6297 0.80436 0.31483 0.0
H1522 H 0.66581 0.78479 0.37606 0.0
H1523 H 0.70204 0.79595 0.36105 0.0
C1524 C 0.60036 0.75596 0.3758 0.0
C1525 C 0.58679 0.74127 0.35644 0.0
C1526 C 0.61846 0.77368 0.37251 0.0
C1527 C 0.6233 0.77696 0.3498 0.0
C1528 C 0.60934 0.76249 0.33049 0.0
C1529 C 0.59131 0.74488 0.33378 0.0
C1530 C 0.66621 0.80864 0.31634 0.0
C1531 C 0.68649 0.80429 0.3282 0.0
C1532 C 0.64548 0.80305 0.32536 0.0
C1533 C 0.64478 0.79254 0.34598 0.0
C1534 C 0.66562 0.79232 0.35983 0.0
C1535 C 0.68642 0.79845 0.35107 0.0
H1536 H 0.08195 0.20767 0.42427 0.0
H1537 H 0.04973 0.2333 0.48131 0.0
H1538 H 0.08104 0.17095 0.44097 0.0
H1539 H 0.04875 0.19711 0.4979 0.0
H1540 H 0.06182 0.13471 0.53523 0.0
H1541 H 0.06437 0.17109 0.51832 0.0
H1542 H 0.06237 0.13402 0.44973 0.0
H1543 H 0.06009 0.0976 0.46687 0.0
C1544 C 0.07499 0.20587 0.44058 0.0
C1545 C 0.06625 0.22444 0.45125 0.0
C1546 C 0.07417 0.18431 0.45023 0.0
C1547 C 0.06483 0.18004 0.47134 0.0
C1548 C 0.05647 0.19886 0.48202 0.0
C1549 C 0.05699 0.22011 0.47225 0.0
C1550 C 0.06176 0.13404 0.51648 0.0
C1551 C 0.06052 0.11234 0.50282 0.0
C1552 C 0.06317 0.15534 0.5065 0.0
C1553 C 0.06356 0.15656 0.48213 0.0
C1554 C 0.06241 0.13478 0.46847 0.0
C1555 C 0.06089 0.11343 0.47846 0.0
H1556 H 0.64419 0.34767 0.23182 0.0
H1557 H 0.63266 0.28128 0.18898 0.0
H1558 H 0.6819 0.34283 0.24858 0.0
H1559 H 0.67091 0.27627 0.20599 0.0
H1560 H 0.73462 0.26611 0.25751 0.0
H1561 H 0.69603 0.26939 0.24014 0.0
H1562 H 0.7204 0.34329 0.24259 0.0
H1563 H 0.75861 0.33999 0.25989 0.0
C1564 C 0.64968 0.33197 0.22571 0.0
C1565 C 0.6349 0.31506 0.20859 0.0
C1566 C 0.6717 0.3292 0.23541 0.0
C1567 C 0.68025 0.30917 0.22885 0.0
C1568 C 0.66539 0.29201 0.21183 0.0
C1569 C 0.64332 0.29498 0.20177 0.0
C1570 C 0.7318 0.28313 0.25448 0.0
C1571 C 0.75029 0.30275 0.26041 0.0
C1572 C 0.70947 0.28501 0.24422 0.0
C1573 C 0.70441 0.30667 0.23963 0.0
C1574 C 0.72293 0.32624 0.24585 0.0
C1575 C 0.74521 0.32433 0.25583 0.0
H1576 H 0.53254 0.85698 0.94609 0.0
H1577 H 0.60663 0.86827 0.95503 0.0
H1578 H 0.53485 0.89704 0.96258 0.0
H1579 H 0.60903 0.90891 0.97229 0.0
H1580 H 0.60217 0.97541 0.02425 0.0
H1581 H 0.60258 0.93593 1.0063 0.0
H1582 H 0.54334 0.93721 0.95685 0.0
H1583 H 0.5431 0.97653 0.97459 0.0
C1584 C 0.54952 0.86794 0.95161 0.0
C1585 C 0.56934 0.8586 0.94895 0.0
C1586 C 0.55085 0.89138 0.96109 0.0
C1587 C 0.57213 0.90708 0.9691 0.0
C1588 C 0.59215 0.89783 0.96663 0.0
C1589 C 0.5908 0.87429 0.95649 0.0
C1590 C 0.58922 0.96742 1.00947 0.0
C1591 C 0.57255 0.97985 1.00121 0.0
C1592 C 0.58953 0.94451 0.99896 0.0
C1593 C 0.57292 0.93252 0.97985 0.0
C1594 C 0.55638 0.94509 0.97158 0.0
C1595 C 0.55629 0.96807 0.98182 0.0
H1596 H 0.97418 0.80538 0.66989 0.0
H1597 H 1.0141 0.8093 0.73745 0.0
H1598 H 0.93933 0.80519 0.68881 0.0
H1599 H 0.97957 0.80872 0.75629 0.0
H1600 H 0.91582 0.8252 0.78899 0.0
H1601 H 0.95074 0.82657 0.76999 0.0
H1602 H 0.9096 0.78618 0.70771 0.0
H1603 H 0.87509 0.78479 0.72669 0.0
C1604 C 0.97568 0.80605 0.68875 0.0
C1605 C 0.99756 0.80732 0.70177 0.0
C1606 C 0.95541 0.80586 0.69984 0.0
C1607 C 0.95583 0.80696 0.72459 0.0
C1608 C 0.97781 0.80822 0.73745 0.0
C1609 C 0.99796 0.80838 0.7264 0.0
C1610 C 0.91412 0.81656 0.77125 0.0
C1611 C 0.89202 0.80474 0.75979 0.0
C1612 C 0.93444 0.81722 0.76016 0.0
C1613 C 0.9338 0.80649 0.73681 0.0
C1614 C 0.91158 0.79498 0.7254 0.0
C1615 C 0.89143 0.79399 0.73658 0.0
H1616 H 0.16954 0.12024 0.91253 0.0
H1617 H 0.20262 0.06515 0.93233 0.0
H1618 H 0.14139 0.11012 0.93913 0.0
H1619 H 0.17382 0.05431 0.95777 0.0
H1620 H 0.0942 0.01963 0.95091 0.0
H1621 H 0.12832 0.03806 0.9343 0.0
H1622 H 0.13563 0.10011 0.98347 0.0
H1623 H 0.10189 0.08204 0.99927 0.0
C1624 C 0.17162 0.10699 0.92366 0.0
C1625 C 0.18745 0.09287 0.91992 0.0
C1626 C 0.15535 0.10092 0.93844 0.0
C1627 C 0.1552 0.08089 0.94931 0.0
C1628 C 0.17358 0.06951 0.94892 0.0
C1629 C 0.19026 0.07606 0.93475 0.0
C1630 C 0.10292 0.03736 0.95764 0.0
C1631 C 0.09558 0.04968 0.9762 0.0
C1632 C 0.12244 0.04768 0.94854 0.0
C1633 C 0.13453 0.07019 0.95823 0.0
C1634 C 0.12651 0.08271 0.97601 0.0
C1635 C 0.10712 0.07244 0.98492 0.0
H1636 H 0.84862 0.38049 0.62027 0.0
H1637 H 0.83149 0.3085 0.58996 0.0
H1638 H 0.84671 0.36928 0.65913 0.0
H1639 H 0.82779 0.29683 0.62903 0.0
H1640 H 0.84592 0.28369 0.70503 0.0
H1641 H 0.84821 0.29379 0.66541 0.0
H1642 H 0.82197 0.35537 0.68414 0.0
H1643 H 0.82098 0.34599 0.72358 0.0
C1644 C 0.84382 0.36217 0.62203 0.0
C1645 C 0.83984 0.34531 0.60229 0.0
C1646 C 0.8426 0.35568 0.64431 0.0
C1647 C 0.83682 0.33208 0.6474 0.0
C1648 C 0.83257 0.31515 0.62742 0.0
C1649 C 0.83436 0.32173 0.60503 0.0
C1650 C 0.84081 0.29944 0.70061 0.0
C1651 C 0.83349 0.31413 0.71752 0.0
C1652 C 0.8419 0.30515 0.67784 0.0
C1653 C 0.83536 0.32548 0.67142 0.0
C1654 C 0.82773 0.33988 0.68839 0.0
C1655 C 0.82704 0.33442 0.71112 0.0
H1656 H 0.59392 0.12614 0.39332 0.0
H1657 H 0.56039 0.06498 0.34516 0.0
H1658 H 0.59622 0.10229 0.42515 0.0
H1659 H 0.56198 0.04106 0.37717 0.0
H1660 H 0.53075 0.03722 0.4522 0.0
H1661 H 0.53849 0.04788 0.41376 0.0
H1662 H 0.61158 0.06521 0.43869 0.0
H1663 H 0.60374 0.05417 0.47702 0.0
C1664 C 0.58778 0.10746 0.38953 0.0
C1665 C 0.57722 0.09713 0.3671 0.0
C1666 C 0.58915 0.09384 0.40757 0.0
C1667 C 0.5794 0.06991 0.40338 0.0
C1668 C 0.56981 0.05945 0.3806 0.0
C1669 C 0.56893 0.07302 0.36244 0.0
C1670 C 0.54845 0.04224 0.44897 0.0
C1671 C 0.56673 0.04478 0.46708 0.0
C1672 C 0.5529 0.04826 0.4271 0.0
C1673 C 0.57563 0.05724 0.42347 0.0
C1674 C 0.59399 0.05815 0.44118 0.0
C1675 C 0.58953 0.05185 0.46293 0.0
H1676 H 0.81388 0.69708 0.09272 0.0
H1677 H 0.88328 0.7379 0.10562 0.0
H1678 H 0.80706 0.71328 0.13154 0.0
H1679 H 0.8766 0.75397 0.14412 0.0
H1680 H 0.86752 0.76487 0.22217 0.0
H1681 H 0.87278 0.74878 0.18315 0.0
H1682 H 0.80095 0.74466 0.15881 0.0
H1683 H 0.79569 0.76076 0.19822 0.0
C1684 C 0.8278 0.7095 0.10367 0.0
C1685 C 0.84928 0.71582 0.09531 0.0
C1686 C 0.82382 0.71903 0.12624 0.0
C1687 C 0.8412 0.73516 0.14194 0.0
C1688 C 0.86259 0.74148 0.1334 0.0
C1689 C 0.86645 0.73222 0.11083 0.0
C1690 C 0.85268 0.76061 0.20866 0.0
C1691 C 0.83108 0.76441 0.21415 0.0
C1692 C 0.85577 0.75136 0.1858 0.0
C1693 C 0.83745 0.74513 0.16688 0.0
C1694 C 0.81573 0.74878 0.17238 0.0
C1695 C 0.81267 0.75827 0.19531 0.0
H1696 H 0.15546 0.09311 0.80717 0.0
H1697 H 0.19926 0.05076 0.77885 0.0
H1698 H 0.14977 0.10806 0.77022 0.0
H1699 H 0.19456 0.0664 0.74184 0.0
H1700 H 0.13027 0.0437 0.68387 0.0
H1701 H 0.15765 0.04894 0.71944 0.0
H1702 H 0.15189 0.12076 0.73313 0.0
H1703 H 0.12383 0.11506 0.69781 0.0
C1704 C 0.1654 0.08845 0.79358 0.0
C1705 C 0.17678 0.07003 0.79516 0.0
C1706 C 0.16201 0.09688 0.77218 0.0
C1707 C 0.17049 0.08712 0.75264 0.0
C1708 C 0.18688 0.07332 0.75634 0.0
C1709 C 0.18995 0.06467 0.77767 0.0
C1710 C 0.13505 0.06061 0.69444 0.0
C1711 C 0.12477 0.07887 0.68844 0.0
C1712 C 0.15106 0.06383 0.71461 0.0
C1713 C 0.15731 0.08548 0.72903 0.0
C1714 C 0.14747 0.10392 0.72247 0.0
C1715 C 0.13125 0.10059 0.70244 0.0
H1716 H 0.85347 0.32399 0.48009 0.0
H1717 H 0.81544 0.37844 0.4732 0.0
H1718 H 0.84459 0.31174 0.43785 0.0
H1719 H 0.80675 0.36624 0.43092 0.0
H1720 H 0.82724 0.35747 0.35529 0.0
H1721 H 0.83115 0.36748 0.39783 0.0
H1722 H 0.81115 0.29477 0.4053 0.0
H1723 H 0.80687 0.28478 0.36266 0.0
C1724 C 0.84294 0.33315 0.46963 0.0
C1725 C 0.83515 0.3522 0.48011 0.0
C1726 C 0.83781 0.32608 0.44541 0.0
C1727 C 0.82507 0.3381 0.43098 0.0
C1728 C 0.81677 0.35675 0.44152 0.0
C1729 C 0.82158 0.3636 0.4658 0.0
C1730 C 0.82334 0.34366 0.36599 0.0
C1731 C 0.81648 0.32037 0.35557 0.0
C1732 C 0.82553 0.34938 0.39036 0.0
C1733 C 0.82139 0.33193 0.40497 0.0
C1734 C 0.81447 0.30862 0.39454 0.0
C1735 C 0.81181 0.30292 0.37011 0.0
H1736 H 0.5705 0.08417 0.28003 0.0
H1737 H 0.51282 0.09927 0.23732 0.0
H1738 H 0.55799 0.04316 0.26472 0.0
H1739 H 0.5008 0.05926 0.22083 0.0
H1740 H 0.50714 0.01379 0.16331 0.0
H1741 H 0.49639 0.02562 0.20108 0.0
H1742 H 0.56457 0.02289 0.23416 0.0
H1743 H 0.57414 1.00954 0.19698 0.0
C1744 C 0.55481 0.07848 0.26767 0.0
C1745 C 0.54306 0.0947 0.25891 0.0
C1746 C 0.54774 0.05497 0.25844 0.0
C1747 C 0.52978 0.04777 0.23932 0.0
C1748 C 0.5156 0.06363 0.23426 0.0
C1749 C 0.52245 0.08693 0.24371 0.0
C1750 C 0.51945 0.01507 0.17891 0.0
C1751 C 0.54192 0.01205 0.17711 0.0
C1752 C 0.5135 0.02229 0.20072 0.0
C1753 C 0.53044 0.02813 0.22077 0.0
C1754 C 0.55119 0.02033 0.21936 0.0
C1755 C 0.55687 0.01246 0.19771 0.0
H1756 H 0.87975 0.74645 0.9714 0.0
H1757 H 0.81331 0.70062 0.95062 0.0
H1758 H 0.87592 0.76326 0.93503 0.0
H1759 H 0.80909 0.71788 0.91407 0.0
H1760 H 0.81393 0.73897 0.83917 0.0
H1761 H 0.81655 0.72291 0.87629 0.0
H1762 H 0.86324 0.78628 0.90906 0.0
H1763 H 0.86068 0.80211 0.87175 0.0
C1764 C 0.86402 0.73996 0.95927 0.0
C1765 C 0.84691 0.72179 0.96481 0.0
C1766 C 0.86173 0.7499 0.93795 0.0
C1767 C 0.84216 0.74235 0.92049 0.0
C1768 C 0.82478 0.7244 0.9262 0.0
C1769 C 0.82708 0.71444 0.94767 0.0
C1770 C 0.82497 0.74957 0.85417 0.0
C1771 C 0.83726 0.77206 0.8516 0.0
C1772 C 0.82633 0.74029 0.87597 0.0
C1773 C 0.84023 0.75278 0.89672 0.0
C1774 C 0.85251 0.77537 0.89409 0.0
C1775 C 0.85099 0.78472 0.8723 0.0
H1776 H 0.87932 0.19309 1.00522 0.0
H1777 H 0.8407 0.13556 0.03396 0.0
H1778 H 0.90504 0.16868 0.9923 0.0
H1779 H 0.86685 0.11138 0.02172 0.0
H1780 H 0.90339 0.06601 0.98201 0.0
H1781 H 0.87677 0.09194 0.98697 0.0
H1782 H 0.93454 0.15027 1.00693 0.0
H1783 H 0.96099 0.12465 1.00054 0.0
C1784 C 0.87663 0.17539 1.00926 0.0
C1785 C 0.85804 0.1663 0.02073 0.0
C1786 C 0.89131 0.16135 1.00173 0.0
C1787 C 0.88781 0.13798 1.00566 0.0
C1788 C 0.86969 0.12915 0.01788 0.0
C1789 C 0.85497 0.14315 0.02532 0.0
C1790 C 0.91037 0.08448 0.98671 0.0
C1791 C 0.93429 0.09323 0.99148 0.0
C1792 C 0.89513 0.09929 0.98992 0.0
C1793 C 0.90357 0.12305 0.9981 0.0
C1794 C 0.92744 0.13206 1.00079 0.0
C1795 C 0.94262 0.11732 0.99735 0.0
H1796 H 0.38271 0.46598 0.07458 0.0
H1797 H 0.36523 0.46767 1.00077 0.0
H1798 H 0.42259 0.4854 0.07276 0.0
H1799 H 0.40545 0.48646 0.99862 0.0
H1800 H 0.48619 0.50112 0.99967 0.0
H1801 H 0.44589 0.48229 1.00063 0.0
H1802 H 0.44798 0.52162 0.06811 0.0
H1803 H 0.48811 0.54041 0.06713 0.0
C1804 C 0.38737 0.47033 0.05783 0.0
C1805 C 0.37035 0.4651 0.03786 0.0
C1806 C 0.41044 0.48172 0.05678 0.0
C1807 C 0.41789 0.48786 0.03552 0.0
C1808 C 0.40088 0.48216 0.0154 0.0
C1809 C 0.37758 0.4714 0.01663 0.0
C1810 C 0.4781 0.50602 0.01468 0.0
C1811 C 0.49099 0.52268 0.03324 0.0
C1812 C 0.4547 0.49511 0.01522 0.0
C1813 C 0.44304 0.50007 0.03449 0.0
C1814 C 0.45594 0.51681 0.05299 0.0
C1815 C 0.47922 0.52787 0.05233 0.0
H1816 H 0.34076 0.56188 0.7132 0.0
H1817 H 0.41497 0.58189 0.72717 0.0
H1818 H 0.33797 0.59962 0.73267 0.0
H1819 H 0.41238 0.6189 0.7483 0.0
H1820 H 0.3927 0.68804 0.77818 0.0
H1821 H 0.40111 0.65606 0.75282 0.0
H1822 H 0.34514 0.60878 0.77478 0.0
H1823 H 0.33538 0.64061 0.79811 0.0
C1824 C 0.3564 0.57482 0.71957 0.0
C1825 C 0.37798 0.56933 0.71889 0.0
C1826 C 0.35492 0.59614 0.73115 0.0
C1827 C 0.37497 0.61157 0.74295 0.0
C1828 C 0.39667 0.60721 0.7396 0.0
C1829 C 0.39815 0.58617 0.72734 0.0
C1830 C 0.38235 0.67073 0.77772 0.0
C1831 C 0.36271 0.66707 0.7893 0.0
C1832 C 0.3872 0.65248 0.76324 0.0
C1833 C 0.37284 0.63032 0.76082 0.0
C1834 C 0.35563 0.62604 0.77532 0.0
C1835 C 0.35045 0.64427 0.78928 0.0
H1836 H 0.24682 0.62222 0.48989 0.0
H1837 H 0.22384 0.68167 0.52117 0.0
H1838 H 0.21161 0.59671 0.49652 0.0
H1839 H 0.18801 0.6561 0.52708 0.0
H1840 H 0.14283 0.6012 0.56105 0.0
H1841 H 0.17792 0.62627 0.55295 0.0
H1842 H 0.17012 0.58693 0.48417 0.0
H1843 H 0.13514 0.56185 0.49238 0.0
C1844 C 0.23397 0.62988 0.49772 0.0
C1845 C 0.23804 0.65385 0.5052 0.0
C1846 C 0.21381 0.61526 0.50151 0.0
C1847 C 0.19723 0.62441 0.51256 0.0
C1848 C 0.20081 0.64856 0.51904 0.0
C1849 C 0.22116 0.66317 0.51552 0.0
C1850 C 0.14899 0.59763 0.54446 0.0
C1851 C 0.13654 0.57956 0.52739 0.0
C1852 C 0.16879 0.61218 0.53966 0.0
C1853 C 0.17656 0.60867 0.51784 0.0
C1854 C 0.16454 0.59 0.50114 0.0
C1855 C 0.1446 0.57565 0.50584 0.0
H1856 H 0.66293 0.92505 0.73459 0.0
H1857 H 0.68119 0.98342 0.78982 0.0
H1858 H 0.6987 0.91295 0.74804 0.0
H1859 H 0.71572 0.97084 0.8037 0.0
H1860 H 0.78531 0.94781 0.81131 0.0
H1861 H 0.75317 0.96437 0.79578 0.0
H1862 H 0.70849 0.89604 0.7844 0.0
H1863 H 0.74052 0.8796 0.7998 0.0
C1864 C 0.67468 0.93541 0.74926 0.0
C1865 C 0.66905 0.95468 0.76157 0.0
C1866 C 0.69494 0.92844 0.75712 0.0
C1867 C 0.70955 0.94067 0.77729 0.0
C1868 C 0.7048 0.96106 0.78819 0.0
C1869 C 0.68486 0.96811 0.78027 0.0
C1870 C 0.76847 0.93652 0.80598 0.0
C1871 C 0.76536 0.91247 0.80635 0.0
C1872 C 0.75018 0.94589 0.79688 0.0
C1873 C 0.72866 0.93127 0.78809 0.0
C1874 C 0.72518 0.90751 0.79018 0.0
C1875 C 0.74337 0.89819 0.79928 0.0
H1876 H 0.71886 0.95016 0.56672 0.0
H1877 H 0.73328 0.98383 0.50634 0.0
H1878 H 0.68335 0.96547 0.56715 0.0
H1879 H 0.69795 0.99822 0.506 0.0
H1880 H 0.64352 0.04106 0.51849 0.0
H1881 H 0.67731 0.02384 0.51843 0.0
H1882 H 0.64562 0.97026 0.5565 0.0
H1883 H 0.61173 0.98795 0.55667 0.0
C1884 C 0.71433 0.96029 0.5531 0.0
C1885 C 0.72952 0.96529 0.53633 0.0
C1886 C 0.69367 0.96937 0.55336 0.0
C1887 C 0.68696 0.98389 0.53682 0.0
C1888 C 0.70193 0.98801 0.5197 0.0
C1889 C 0.7225 0.97927 0.51965 0.0
C1890 C 0.64356 0.02562 0.52695 0.0
C1891 C 0.62421 0.01631 0.53759 0.0
C1892 C 0.66327 0.01532 0.52675 0.0
C1893 C 0.66515 0.99499 0.53731 0.0
C1894 C 0.64575 0.98577 0.54815 0.0
C1895 C 0.62587 0.996 0.54814 0.0
H1896 H 0.353 0.44468 0.68326 0.0
H1897 H 0.41686 0.46043 0.73091 0.0
H1898 H 0.34162 0.40808 0.69899 0.0
H1899 H 0.40549 0.42401 0.74679 0.0
H1900 H 0.35605 0.37986 0.79019 0.0
H1901 H 0.37313 0.41269 0.77094 0.0
H1902 H 0.3529 0.36999 0.70355 0.0
H1903 H 0.33539 0.33763 0.72259 0.0
C1904 C 0.36485 0.4398 0.69648 0.0
C1905 C 0.38582 0.45484 0.70567 0.0
C1906 C 0.35841 0.41906 0.70551 0.0
C1907 C 0.37273 0.41353 0.7241 0.0
C1908 C 0.39424 0.42808 0.73249 0.0
C1909 C 0.40084 0.44863 0.7232 0.0
C1910 C 0.35544 0.37764 0.7713 0.0
C1911 C 0.3443 0.35661 0.75771 0.0
C1912 C 0.36529 0.39619 0.76037 0.0
C1913 C 0.36426 0.3936 0.73585 0.0
C1914 C 0.35362 0.37232 0.72244 0.0
C1915 C 0.34356 0.35396 0.7333 0.0
H1916 H 0.16866 0.53335 0.22564 0.0
H1917 H 0.13218 0.56386 0.27642 0.0
H1918 H 0.1934 0.5715 0.22551 0.0
H1919 H 0.15706 0.60059 0.27805 0.0
H1920 H 0.20705 0.66687 0.28386 0.0
H1921 H 0.17605 0.6337 0.27211 0.0
H1922 H 0.22436 0.59375 0.24776 0.0
H1923 H 0.2544 0.62826 0.25566 0.0
C1924 C 0.16551 0.54832 0.23625 0.0
C1925 C 0.14878 0.54561 0.25137 0.0
C1926 C 0.18005 0.57013 0.23672 0.0
C1927 C 0.17836 0.58926 0.25281 0.0
C1928 C 0.15958 0.58676 0.26555 0.0
C1929 C 0.14498 0.56529 0.26469 0.0
C1930 C 0.21097 0.65115 0.27549 0.0
C1931 C 0.2332 0.65064 0.2701 0.0
C1932 C 0.19309 0.63171 0.26904 0.0
C1933 C 0.19718 0.61061 0.25839 0.0
C1934 C 0.21993 0.60969 0.25484 0.0
C1935 C 0.23758 0.62949 0.26022 0.0
H1936 H 0.5477 0.71438 0.45813 0.0
H1937 H 0.48947 0.65645 0.43995 0.0
H1938 H 0.56677 0.69209 0.48461 0.0
H1939 H 0.50877 0.634 0.46594 0.0
H1940 H 0.56845 0.59548 0.47359 0.0
H1941 H 0.55291 0.62539 0.45504 0.0
H1942 H 0.55476 0.66391 0.52308 0.0
H1943 H 0.56979 0.63343 0.54176 0.0
C1944 C 0.5387 0.69723 0.4606 0.0
C1945 C 0.51724 0.68696 0.44735 0.0
C1946 C 0.54958 0.68457 0.47554 0.0
C1947 C 0.53918 0.66151 0.47682 0.0
C1948 C 0.51692 0.65188 0.465 0.0
C1949 C 0.50584 0.6647 0.45043 0.0
C1950 C 0.56639 0.61084 0.48444 0.0
C1951 C 0.57035 0.61263 0.50888 0.0
C1952 C 0.55732 0.62766 0.47394 0.0
C1953 C 0.55244 0.64644 0.48788 0.0
C1954 C 0.55839 0.64935 0.51225 0.0
C1955 C 0.56711 0.63221 0.52282 0.0
H1956 H 0.70413 0.39623 0.7081 0.0
H1957 H 0.66088 0.36842 0.75761 0.0
H1958 H 0.7324 0.37367 0.72082 0.0
H1959 H 0.68831 0.34505 0.76944 0.0
H1960 H 0.75624 0.33035 0.8039 0.0
H1961 H 0.72642 0.35086 0.79084 0.0
H1962 H 0.73646 0.33356 0.71884 0.0
H1963 H 0.76642 0.31338 0.73203 0.0
C1964 C 0.70085 0.38543 0.72181 0.0
C1965 C 0.68081 0.38446 0.73238 0.0
C1966 C 0.71676 0.3723 0.72885 0.0
C1967 C 0.7125 0.35767 0.74616 0.0
C1968 C 0.69227 0.35659 0.75648 0.0
C1969 C 0.67666 0.37004 0.7498 0.0
C1970 C 0.75183 0.33085 0.78532 0.0
C1971 C 0.7634 0.32043 0.76894 0.0
C1972 C 0.73477 0.34242 0.77781 0.0
C1973 C 0.72932 0.34394 0.75385 0.0
C1974 C 0.74055 0.3329 0.73743 0.0
C1975 C 0.75743 0.32114 0.74494 0.0
H1976 H 1.00625 0.27587 0.94573 0.0
H1977 H 0.03436 0.29129 0.88246 0.0
H1978 H 1.0203 0.31621 0.96306 0.0
H1979 H 0.04823 0.3322 0.89978 0.0
H1980 H 0.02891 0.40392 0.93043 0.0
H1981 H 0.02752 0.36468 0.9114 0.0
H1982 H 0.05619 0.34651 0.97698 0.0
H1983 H 0.05771 0.38572 0.99598 0.0
C1984 C 1.01555 0.28794 0.93558 0.0
C1985 C 1.019 0.28056 0.91269 0.0
C1986 C 0.02383 0.31101 0.94559 0.0
C1987 C 0.0354 0.32741 0.9328 0.0
C1988 C 0.03933 0.31995 0.91002 0.0
C1989 C 0.03145 0.2966 0.90015 0.0
C1990 C 0.03554 0.39176 0.94063 0.0
C1991 C 0.04287 0.39774 0.96486 0.0
C1992 C 0.03477 0.36928 0.9297 0.0
C1993 C 0.0413 0.35239 0.94281 0.0
C1994 C 0.05056 0.35902 0.96655 0.0
C1995 C 0.05136 0.38144 0.97743 0.0
H1996 H 0.04279 0.87603 0.19888 0.0
H1997 H 0.08672 0.8337 0.22899 0.0
H1998 H 1.00895 0.84704 0.20257 0.0
H1999 H 0.05281 0.80419 0.23202 0.0
H2000 H 0.99083 0.79254 0.27509 0.0
H2001 H 0.02543 0.80518 0.25844 0.0
H2002 H 0.98472 0.80866 0.19267 0.0
H2003 H 0.9495 0.79601 0.20973 0.0
C2004 C 0.04516 0.86041 0.20615 0.0
C2005 C 0.06725 0.85741 0.21438 0.0
C2006 C 0.0258 0.84355 0.20782 0.0
C2007 C 0.02821 0.82331 0.21763 0.0
C2008 C 0.05043 0.81977 0.22468 0.0
C2009 C 0.06979 0.83678 0.22325 0.0
C2010 C 0.98912 0.79488 0.25674 0.0
C2011 C 0.96746 0.79378 0.24386 0.0
C2012 C 1.0091 0.80216 0.24711 0.0
C2013 C 1.00779 0.80843 0.22439 0.0
C2014 C 0.98616 0.80446 0.21045 0.0
C2015 C 0.96606 0.79722 0.22017 0.0
H2016 H 0.57114 0.39932 0.15899 0.0
H2017 H 0.55267 0.35969 0.09047 0.0
H2018 H 0.57463 0.43543 0.14119 0.0
H2019 H 0.55557 0.39519 0.07266 0.0
H2020 H 0.57044 0.4624 0.03902 0.0
H2021 H 0.569 0.42717 0.05751 0.0
H2022 H 0.56639 0.46603 0.12415 0.0
H2023 H 0.56875 0.50139 0.10551 0.0
C2024 C 0.56783 0.39808 0.14009 0.0
C2025 C 0.56161 0.37578 0.12658 0.0
C2026 C 0.56968 0.41921 0.12957 0.0
C2027 C 0.56553 0.41947 0.10482 0.0
C2028 C 0.55941 0.39698 0.09152 0.0
C2029 C 0.55752 0.37602 0.10199 0.0
C2030 C 0.56971 0.46365 0.05768 0.0
C2031 C 0.56989 0.48556 0.07035 0.0
C2032 C 0.56863 0.44292 0.0686 0.0
C2033 C 0.56733 0.44247 0.09299 0.0
C2034 C 0.56759 0.46457 0.10561 0.0
C2035 C 0.5689 0.48535 0.0947 0.0
H2036 H 1.01791 0.29286 0.33221 0.0
H2037 H 0.99296 0.2873 0.39858 0.0
H2038 H 0.97939 0.29419 0.31384 0.0
H2039 H 0.95431 0.28925 0.38039 0.0
H2040 H 0.88107 0.27315 0.33734 0.0
H2041 H 0.91955 0.27142 0.35585 0.0
H2042 H 0.94997 0.31476 0.3075 0.0
H2043 H 0.91143 0.31648 0.28915 0.0
C2044 C 1.00427 0.29213 0.34308 0.0
C2045 C 1.00908 0.29001 0.36714 0.0
C2046 C 0.98187 0.29302 0.33243 0.0
C2047 C 0.96298 0.29193 0.34527 0.0
C2048 C 0.96785 0.28983 0.36942 0.0
C2049 C 0.99031 0.28884 0.38007 0.0
C2050 C 0.89592 0.28225 0.33049 0.0
C2051 C 0.89263 0.29492 0.31146 0.0
C2052 C 0.9183 0.28144 0.34138 0.0
C2053 C 0.93863 0.29294 0.33356 0.0
C2054 C 0.93524 0.30537 0.31428 0.0
C2055 C 0.91285 0.3065 0.30366 0.0
H2056 H 1.01571 0.72599 0.5973 0.0
H2057 H 0.08126 0.73742 0.64098 0.0
H2058 H 1.02 0.68757 0.58195 0.0
H2059 H 0.08632 0.69912 0.62487 0.0
H2060 H 0.08729 0.62164 0.60165 0.0
H2061 H 0.08322 0.66015 0.61837 0.0
H2062 H 0.03101 0.65993 0.56019 0.0
H2063 H 0.03467 0.62149 0.5443 0.0
C2064 C 0.03133 0.72053 0.60357 0.0
C2065 C 0.04805 0.73561 0.62064 0.0
C2066 C 0.03399 0.69802 0.59445 0.0
C2067 C 0.05374 0.68905 0.60154 0.0
C2068 C 0.07058 0.70431 0.61864 0.0
C2069 C 0.06776 0.72681 0.62797 0.0
C2070 C 0.07476 0.62968 0.59247 0.0
C2071 C 0.06126 0.61763 0.57142 0.0
C2072 C 0.07246 0.6523 0.60209 0.0
C2073 C 0.05655 0.66433 0.59121 0.0
C2074 C 0.04321 0.65209 0.57004 0.0
C2075 C 0.04545 0.62956 0.56055 0.0
H2076 H 0.66033 0.8234 0.87651 0.0
H2077 H 0.64019 0.75313 0.84181 0.0
H2078 H 0.69657 0.82809 0.85966 0.0
H2079 H 0.67525 0.75731 0.82505 0.0
H2080 H 0.742 0.76295 0.79471 0.0
H2081 H 0.70716 0.7597 0.81208 0.0
H2082 H 0.72736 0.83232 0.84119 0.0
H2083 H 0.76303 0.83502 0.82379 0.0
C2084 C 0.66363 0.80874 0.86557 0.0
C2085 C 0.64677 0.78774 0.86098 0.0
C2086 C 0.68472 0.81144 0.85547 0.0
C2087 C 0.69022 0.79323 0.84031 0.0
C2088 C 0.67315 0.77226 0.83624 0.0
C2089 C 0.6523 0.7697 0.84613 0.0
C2090 C 0.73912 0.7784 0.80468 0.0
C2091 C 0.75598 0.79926 0.80745 0.0
C2092 C 0.71851 0.77661 0.81504 0.0
C2093 C 0.71303 0.79566 0.82883 0.0
C2094 C 0.72995 0.81678 0.83125 0.0
C2095 C 0.75083 0.81848 0.82099 0.0
H2096 H 0.44408 0.53087 0.63762 0.0
H2097 H 0.49944 0.52353 0.68946 0.0
H2098 H 0.46766 0.52566 0.60703 0.0
H2099 H 0.52289 0.51727 0.65861 0.0
H2100 H 0.56241 0.5669 0.61145 0.0
H2101 H 0.53964 0.55017 0.64013 0.0
H2102 H 0.49093 0.50658 0.58399 0.0
H2103 H 0.51298 0.52447 0.55553 0.0
C2104 C 0.46116 0.52762 0.6423 0.0
C2105 C 0.47063 0.52886 0.66573 0.0
C2106 C 0.47449 0.52413 0.6248 0.0
C2107 C 0.49729 0.52166 0.63069 0.0
C2108 C 0.50555 0.5198 0.65388 0.0
C2109 C 0.49235 0.52373 0.67143 0.0
C2110 C 0.54669 0.55392 0.60549 0.0
C2111 C 0.53857 0.54771 0.58167 0.0
C2112 C 0.53404 0.54385 0.62173 0.0
C2113 C 0.51351 0.5271 0.61412 0.0
C2114 C 0.50649 0.51969 0.59018 0.0
C2115 C 0.51878 0.53023 0.57401 0.0
H2116 H 0.78316 0.22282 0.95214 0.0
H2117 H 0.83531 0.28464 0.97806 0.0
H2118 H 0.78126 0.23409 0.91295 0.0
H2119 H 0.83226 0.29701 0.93941 0.0
H2120 H 0.84661 0.29996 0.86582 0.0
H2121 H 0.84448 0.28925 0.90463 0.0
H2122 H 0.77266 0.25566 0.88384 0.0
H2123 H 0.77568 0.26473 0.84397 0.0
C2124 C 0.79354 0.23936 0.94965 0.0
C2125 C 0.8094 0.25286 0.96825 0.0
C2126 C 0.79251 0.24585 0.92703 0.0
C2127 C 0.80701 0.26629 0.92252 0.0
C2128 C 0.82144 0.28069 0.94171 0.0
C2129 C 0.82289 0.27388 0.96412 0.0
C2130 C 0.83035 0.29022 0.86944 0.0
C2131 C 0.81129 0.28332 0.85176 0.0
C2132 C 0.82898 0.2843 0.89199 0.0
C2133 C 0.8082 0.27201 0.89796 0.0
C2134 C 0.78905 0.26501 0.88014 0.0
C2135 C 0.79068 0.27035 0.85724 0.0
H2136 H 0.03322 0.4615 0.16779 0.0
H2137 H 0.08715 0.51229 0.21195 0.0
H2138 H 0.02454 0.49143 0.14462 0.0
H2139 H 0.07776 0.54274 0.18983 0.0
H2140 H 0.09179 0.55871 0.11462 0.0
H2141 H 0.08868 0.54726 0.15295 0.0
H2142 H 1.0145 0.52618 0.13485 0.0
H2143 H 1.01795 0.53669 0.09564 0.0
C2144 C 0.04276 0.47925 0.17277 0.0
C2145 C 0.0615 0.4846 0.19061 0.0
C2146 C 0.03757 0.49657 0.15988 0.0
C2147 C 0.0509 0.51946 0.16504 0.0
C2148 C 0.06766 0.52518 0.18499 0.0
C2149 C 0.07318 0.50778 0.19747 0.0
C2150 C 0.07475 0.55228 0.11904 0.0
C2151 C 0.05522 0.54747 0.10201 0.0
C2152 C 0.07286 0.54595 0.14123 0.0
C2153 C 0.05134 0.53492 0.14665 0.0
C2154 C 0.03138 0.5338 0.13079 0.0
C2155 C 0.03334 0.5397 0.10839 0.0
H2156 H 0.84249 0.9028 0.46974 0.0
H2157 H 0.77551 0.85996 0.47032 0.0
H2158 H 0.84316 0.88543 0.42998 0.0
H2159 H 0.77633 0.84155 0.43025 0.0
H2160 H 0.77851 0.8208 0.34979 0.0
H2161 H 0.77505 0.83927 0.38884 0.0
H2162 H 0.84915 0.85487 0.40588 0.0
H2163 H 0.85247 0.8369 0.36706 0.0
C2164 C 0.82767 0.88966 0.46132 0.0
C2165 C 0.80884 0.88328 0.47372 0.0
C2166 C 0.82818 0.87925 0.43824 0.0
C2167 C 0.81003 0.86134 0.42609 0.0
C2168 C 0.79079 0.85522 0.43831 0.0
C2169 C 0.7902 0.86594 0.46156 0.0
C2170 C 0.79415 0.82826 0.36178 0.0
C2171 C 0.81586 0.82715 0.35454 0.0
C2172 C 0.79215 0.83888 0.38458 0.0
C2173 C 0.81174 0.84921 0.40136 0.0
C2174 C 0.83338 0.84789 0.39399 0.0
C2175 C 0.83536 0.83719 0.37136 0.0
H2176 H 0.48361 0.5076 0.76304 0.0
H2177 H 0.42165 0.51582 0.79201 0.0
H2178 H 0.50512 0.51486 0.80222 0.0
H2179 H 0.44336 0.52376 0.83119 0.0
H2180 H 0.48652 0.51369 0.89854 0.0
H2181 H 0.46316 0.50686 0.86035 0.0
H2182 H 0.51926 0.54801 0.83214 0.0
H2183 H 0.54307 0.55397 0.87052 0.0
C2184 C 0.47448 0.51055 0.77781 0.0
C2185 C 0.45099 0.51139 0.77451 0.0
C2186 C 0.48691 0.51512 0.8002 0.0
C2187 C 0.47603 0.52049 0.81966 0.0
C2188 C 0.45221 0.51977 0.81648 0.0
C2189 C 0.43976 0.51514 0.79407 0.0
C2190 C 0.49363 0.52172 0.88427 0.0
C2191 C 0.51649 0.53428 0.88723 0.0
C2192 C 0.48028 0.51778 0.86241 0.0
C2193 C 0.4895 0.52661 0.84322 0.0
C2194 C 0.51196 0.54048 0.84655 0.0
C2195 C 0.52547 0.54412 0.86843 0.0
H2196 H 0.85903 0.26709 0.09652 0.0
H2197 H 0.79234 0.22102 0.09116 0.0
H2198 H 0.85807 0.27833 0.1378 0.0
H2199 H 0.79099 0.2329 0.13258 0.0
H2200 H 0.80835 0.23986 0.21343 0.0
H2201 H 0.80696 0.22907 0.17124 0.0
H2202 H 0.84188 0.29903 0.16544 0.0
H2203 H 0.84404 0.30942 0.20729 0.0
C2204 C 0.84396 0.25955 0.10404 0.0
C2205 C 0.82583 0.24301 0.09033 0.0
C2206 C 0.84333 0.26613 0.12787 0.0
C2207 C 0.82448 0.25652 0.13886 0.0
C2208 C 0.80602 0.24042 0.125 0.0
C2209 C 0.80669 0.23375 0.10109 0.0
C2210 C 0.81596 0.25283 0.20317 0.0
C2211 C 0.82672 0.27538 0.21404 0.0
C2212 C 0.81493 0.24674 0.17885 0.0
C2213 C 0.82451 0.26306 0.16469 0.0
C2214 C 0.83483 0.28571 0.17561 0.0
C2215 C 0.83602 0.29172 0.19981 0.0
H2216 H 0.06683 0.487 0.31852 0.0
H2217 H 0.1041 0.53404 0.27784 0.0
H2218 H 0.06845 0.51976 0.3492 0.0
H2219 H 0.10864 0.56635 0.30969 0.0
H2220 H 0.12688 0.5873 0.40105 0.0
H2221 H 0.12699 0.56461 0.36313 0.0
H2222 H 0.05597 0.56749 0.34273 0.0
H2223 H 0.05563 0.59 0.38012 0.0
C2224 C 0.07568 0.50432 0.31642 0.0
C2225 C 0.08625 0.50832 0.29652 0.0
C2226 C 0.07672 0.52288 0.33381 0.0
C2227 C 0.0891 0.54519 0.33167 0.0
C2228 C 0.0993 0.54916 0.31161 0.0
C2229 C 0.09714 0.53085 0.29378 0.0
C2230 C 0.11169 0.58405 0.388 0.0
C2231 C 0.09114 0.59001 0.39368 0.0
C2232 C 0.11173 0.57104 0.36648 0.0
C2233 C 0.0913 0.56412 0.35064 0.0
C2234 C 0.07179 0.57264 0.35499 0.0
C2235 C 0.07177 0.58578 0.3763 0.0
H2236 H 0.77298 0.88347 0.61167 0.0
H2237 H 0.84182 0.87205 0.60936 0.0
H2238 H 0.77218 0.86642 0.64888 0.0
H2239 H 0.84113 0.8559 0.64601 0.0
H2240 H 0.84507 0.85174 0.72554 0.0
H2241 H 0.84272 0.86767 0.68828 0.0
H2242 H 0.77267 0.8292 0.66952 0.0
H2243 H 0.77533 0.81256 0.70679 0.0
C2244 C 0.78793 0.87735 0.61877 0.0
C2245 C 0.80744 0.87947 0.60668 0.0
C2246 C 0.78749 0.86744 0.64037 0.0
C2247 C 0.80673 0.85971 0.65125 0.0
C2248 C 0.82598 0.86174 0.63898 0.0
C2249 C 0.82624 0.87107 0.61743 0.0
C2250 C 0.82903 0.8466 0.71365 0.0
C2251 C 0.81044 0.83063 0.71983 0.0
C2252 C 0.82768 0.85577 0.6919 0.0
C2253 C 0.80745 0.85003 0.67517 0.0
C2254 C 0.7886 0.83443 0.68154 0.0
C2255 C 0.79018 0.82471 0.70313 0.0
H2256 H 0.76653 0.41876 0.53577 0.0
H2257 H 0.80048 0.45105 0.60465 0.0
H2258 H 0.7374 0.44225 0.53862 0.0
H2259 H 0.77112 0.474 0.60777 0.0
H2260 H 0.73249 0.53159 0.59016 0.0
H2261 H 0.76003 0.5062 0.5906 0.0
H2262 H 0.70546 0.44792 0.55927 0.0
H2263 H 0.67797 0.47335 0.55876 0.0
C2264 C 0.76752 0.43055 0.55167 0.0
C2265 C 0.78573 0.43304 0.56998 0.0
C2266 C 0.75082 0.44396 0.55335 0.0
C2267 C 0.75197 0.46 0.57344 0.0
C2268 C 0.76993 0.46205 0.59194 0.0
C2269 C 0.78666 0.44877 0.5902 0.0
C2270 C 0.72633 0.51328 0.58374 0.0
C2271 C 0.70315 0.5045 0.5742 0.0
C2272 C 0.74209 0.49872 0.58397 0.0
C2273 C 0.73495 0.47508 0.57474 0.0
C2274 C 0.71158 0.46615 0.56604 0.0
C2275 C 0.69584 0.4807 0.56579 0.0
H2276 H 0.26517 0.11456 0.5525 0.0
H2277 H 0.24089 0.13271 0.48566 0.0
H2278 H 0.22541 0.09792 0.55777 0.0
H2279 H 0.20105 0.11716 0.4911 0.0
H2280 H 0.13231 0.06748 0.49423 0.0
H2281 H 0.17192 0.08511 0.49024 0.0
H2282 H 0.18844 0.09962 0.56553 0.0
H2283 H 0.14878 0.08152 0.56938 0.0
C2284 C 0.25127 0.11569 0.5392 0.0
C2285 C 0.25652 0.12558 0.51885 0.0
C2286 C 0.22818 0.10598 0.54215 0.0
C2287 C 0.2092 0.10573 0.52489 0.0
C2288 C 0.21464 0.11624 0.50479 0.0
C2289 C 0.23771 0.12565 0.50175 0.0
C2290 C 0.14435 0.07423 0.51004 0.0
C2291 C 0.13684 0.07269 0.53218 0.0
C2292 C 0.16736 0.08476 0.50774 0.0
C2293 C 0.18419 0.09428 0.52749 0.0
C2294 C 0.17663 0.09251 0.54968 0.0
C2295 C 0.15355 0.08209 0.55195 0.0
H2296 H 0.23681 0.03379 0.80947 0.0
H2297 H 0.27058 0.0221 0.87588 0.0
H2298 H 0.25068 1.00196 0.78951 0.0
H2299 H 0.28379 0.98979 0.8561 0.0
H2300 H 0.32198 0.94889 0.81031 0.0
H2301 H 0.30986 0.98247 0.82877 0.0
H2302 H 0.24225 0.95912 0.78783 0.0
H2303 H 0.25485 0.92543 0.76898 0.0
C2304 C 0.24738 0.02447 0.81969 0.0
C2305 C 0.2527 0.03015 0.84411 0.0
C2306 C 0.25506 1.00619 0.80835 0.0
C2307 C 0.26799 0.99334 0.82135 0.0
C2308 C 0.274 0.99963 0.84568 0.0
C2309 C 0.26656 0.0181 0.85699 0.0
C2310 C 0.30464 0.95123 0.80512 0.0
C2311 C 0.28937 0.93523 0.78809 0.0
C2312 C 0.29765 0.9702 0.81579 0.0
C2313 C 0.27521 0.97334 0.80962 0.0
C2314 C 0.25979 0.95716 0.79256 0.0
C2315 C 0.26685 0.93801 0.78188 0.0
H2316 H 0.39676 0.95435 0.07759 0.0
H2317 H 0.40371 0.92278 1.00893 0.0
H2318 H 0.43242 0.98305 0.07813 0.0
H2319 H 0.43984 0.95136 1.00945 0.0
H2320 H 0.48717 0.02228 1.00872 0.0
H2321 H 0.45076 0.99494 1.00904 0.0
H2322 H 0.47434 0.9834 0.07929 0.0
H2323 H 0.51061 1.01075 0.07904 0.0
C2324 C 0.40618 0.95359 0.06271 0.0
C2325 C 0.39786 0.93672 0.04319 0.0
C2326 C 0.42649 0.96987 0.06303 0.0
C2327 C 0.43869 0.96943 0.04377 0.0
C2328 C 0.43045 0.95222 0.02432 0.0
C2329 C 0.41003 0.93589 0.02403 0.0
C2330 C 0.4843 0.0143 0.0244 0.0
C2331 C 0.50154 0.01857 0.04388 0.0
C2332 C 0.46368 0.99844 0.02444 0.0
C2333 C 0.45998 0.98694 0.04407 0.0
C2334 C 0.47682 0.99208 0.06396 0.0
C2335 C 0.4975 1.00771 0.06382 0.0
H2336 H 0.98462 0.64024 0.77882 0.0
H2337 H 0.95572 0.64788 0.8436 0.0
H2338 H 0.95077 0.6498 0.75773 0.0
H2339 H 0.922 0.65773 0.82244 0.0
H2340 H 0.85683 0.6583 0.77574 0.0
H2341 H 0.88814 0.64073 0.79156 0.0
H2342 H 0.93616 0.68681 0.75832 0.0
H2343 H 0.90476 0.70436 0.74269 0.0
C2344 C 0.97106 0.644 0.78856 0.0
C2345 C 0.97292 0.64365 0.81292 0.0
C2346 C 0.95171 0.6494 0.77646 0.0
C2347 C 0.93388 0.65452 0.78848 0.0
C2348 C 0.93541 0.65353 0.81272 0.0
C2349 C 0.95475 0.64806 0.82484 0.0
C2350 C 0.87397 0.66401 0.77123 0.0
C2351 C 0.87855 0.68227 0.7578 0.0
C2352 C 0.89185 0.65422 0.78046 0.0
C2353 C 0.91449 0.6625 0.77618 0.0
C2354 C 0.91879 0.67995 0.76164 0.0
C2355 C 0.90094 0.68994 0.75268 0.0
H2356 H 0.88254 0.60183 0.02045 0.0
H2357 H 0.92747 0.66914 0.03959 0.0
H2358 H 0.91576 0.58364 0.02029 0.0
H2359 H 0.96117 0.65094 0.03979 0.0
H2360 H 0.02078 0.61116 0.05425 0.0
H2361 H 0.98785 0.62998 0.05396 0.0
H2362 H 0.9467 0.57214 1.006 0.0
H2363 H 0.97968 0.55314 1.00681 0.0
C2364 C 0.89955 0.61297 0.02483 0.0
C2365 C 0.90155 0.63733 0.03017 0.0
C2366 C 0.91908 0.60234 0.02453 0.0
C2367 C 0.9422 0.61521 0.03 0.0
C2368 C 0.94422 0.63971 0.03555 0.0
C2369 C 0.92456 0.65044 0.03536 0.0
C2370 C 1.00476 0.60222 0.04356 0.0
C2371 C 1.00365 0.58009 0.03066 0.0
C2372 C 0.98547 0.61333 0.04327 0.0
C2373 C 0.96356 0.60317 0.03002 0.0
C2374 C 0.96254 0.58104 0.01696 0.0
C2375 C 0.98187 0.56989 0.01729 0.0
H2376 H 0.23627 0.11613 0.80962 0.0
H2377 H 0.24818 0.15436 0.87925 0.0
H2378 H 0.25686 0.15087 0.79488 0.0
H2379 H 0.2687 0.18835 0.86489 0.0
H2380 H 0.27726 0.25067 0.82692 0.0
H2381 H 0.25701 0.21507 0.8383 0.0
H2382 H 0.29973 0.17645 0.80197 0.0
H2383 H 0.31996 0.21275 0.78963 0.0
C2384 C 0.24297 0.13203 0.82157 0.0
C2385 C 0.24081 0.13281 0.84547 0.0
C2386 C 0.25499 0.15162 0.8133 0.0
C2387 C 0.26449 0.17204 0.82888 0.0
C2388 C 0.26152 0.17282 0.85255 0.0
C2389 C 0.24976 0.15343 0.86074 0.0
C2390 C 0.28245 0.23464 0.82132 0.0
C2391 C 0.30002 0.23432 0.80726 0.0
C2392 C 0.27085 0.21428 0.82788 0.0
C2393 C 0.27674 0.19312 0.82082 0.0
C2394 C 0.29475 0.19266 0.80726 0.0
C2395 C 0.3065 0.21331 0.80057 0.0
H2396 H 0.52823 0.03581 0.30239 0.0
H2397 H 0.46853 0.06551 0.30862 0.0
H2398 H 0.50299 0.997 0.29126 0.0
H2399 H 0.44345 0.02731 0.298 0.0
H2400 H 0.39953 0.95908 0.27201 0.0
H2401 H 0.42751 0.99446 0.26944 0.0
H2402 H 0.47949 0.97019 0.31254 0.0
H2403 H 0.45154 0.93449 0.3145 0.0
C2404 C 0.50969 0.03407 0.30062 0.0
C2405 C 0.50019 0.05351 0.30612 0.0
C2406 C 0.49525 0.01189 0.29455 0.0
C2407 C 0.47114 1.00894 0.29379 0.0
C2408 C 0.46182 0.0288 0.298 0.0
C2409 C 0.47618 0.05075 0.30417 0.0
C2410 C 0.41705 0.96118 0.28061 0.0
C2411 C 0.42327 0.94422 0.29375 0.0
C2412 C 0.43309 0.98146 0.27918 0.0
C2413 C 0.4557 0.98542 0.29112 0.0
C2414 C 0.46233 0.9677 0.30297 0.0
C2415 C 0.44629 0.94726 0.30419 0.0
H2416 H 0.61118 0.4527 0.64666 0.0
H2417 H 0.61092 0.39148 0.59895 0.0
H2418 H 0.59861 0.47187 0.61375 0.0
H2419 H 0.59873 0.41083 0.56578 0.0
H2420 H 0.59362 0.47354 0.51856 0.0
H2421 H 0.60842 0.44823 0.54438 0.0
H2422 H 0.55703 0.45737 0.5892 0.0
H2423 H 0.54237 0.48283 0.56343 0.0
C2424 C 0.60969 0.44392 0.62898 0.0
C2425 C 0.61185 0.42078 0.62504 0.0
C2426 C 0.60204 0.4546 0.61028 0.0
C2427 C 0.59686 0.44227 0.58758 0.0
C2428 C 0.60219 0.42034 0.5833 0.0
C2429 C 0.60947 0.40948 0.6021 0.0
C2430 C 0.58468 0.46895 0.5332 0.0
C2431 C 0.56709 0.48008 0.53931 0.0
C2432 C 0.59333 0.45481 0.54807 0.0
C2433 C 0.58433 0.45177 0.56902 0.0
C2434 C 0.56454 0.46013 0.57331 0.0
C2435 C 0.5558 0.47419 0.55835 0.0
H2436 H 0.49862 0.75873 0.33481 0.0
H2437 H 0.44353 0.70531 0.34966 0.0
H2438 H 0.47155 0.78387 0.3279 0.0
H2439 H 0.41623 0.73006 0.34185 0.0
H2440 H 0.37274 0.77955 0.34179 0.0
H2441 H 0.4062 0.7655 0.35772 0.0
H2442 H 0.43988 0.7844 0.29817 0.0
H2443 H 0.40671 0.79954 0.283 0.0
C2444 C 0.48058 0.75218 0.33601 0.0
C2445 C 0.4729 0.72999 0.34231 0.0
C2446 C 0.46522 0.76665 0.33232 0.0
C2447 C 0.44195 0.75897 0.33456 0.0
C2448 C 0.43425 0.73663 0.34057 0.0
C2449 C 0.44968 0.72229 0.34459 0.0
C2450 C 0.3877 0.78128 0.33261 0.0
C2451 C 0.38741 0.79003 0.3111 0.0
C2452 C 0.40668 0.77321 0.3416 0.0
C2453 C 0.4252 0.77326 0.32877 0.0
C2454 C 0.42577 0.78417 0.30838 0.0
C2455 C 0.40688 0.79273 0.29963 0.0
H2456 H 0.1126 0.80395 0.18399 0.0
H2457 H 0.0844 0.82112 0.11785 0.0
H2458 H 0.1132 0.76505 0.16513 0.0
H2459 H 0.08629 0.78311 0.09853 0.0
H2460 H 0.06605 0.70607 0.07527 0.0
H2461 H 0.06661 0.74462 0.0954 0.0
H2462 H 0.12973 0.74234 0.13923 0.0
H2463 H 0.12807 0.7032 0.1199 0.0
C2464 C 0.10693 0.7994 0.16534 0.0
C2465 C 0.0981 0.81506 0.15233 0.0
C2466 C 0.10734 0.77725 0.15446 0.0
C2467 C 0.09937 0.77072 0.13033 0.0
C2468 C 0.09177 0.78714 0.11725 0.0
C2469 C 0.09088 0.80897 0.12821 0.0
C2470 C 0.07981 0.71386 0.08941 0.0
C2471 C 0.09695 0.7019 0.09626 0.0
C2472 C 0.08036 0.73601 0.10078 0.0
C2473 C 0.09839 0.74679 0.11885 0.0
C2474 C 0.11542 0.73453 0.12569 0.0
C2475 C 0.11457 0.7122 0.11462 0.0
H2476 H 0.09685 0.23245 0.88276 0.0
H2477 H 0.07312 0.27213 0.8301 0.0
H2478 H 0.1365 0.25298 0.88256 0.0
H2479 H 0.11249 0.29182 0.8291 0.0
H2480 H 0.18137 0.32896 0.82965 0.0
H2481 H 0.14668 0.31816 0.84803 0.0
H2482 H 0.16249 0.25072 0.85479 0.0
H2483 H 0.1972 0.2618 0.83731 0.0
C2484 C 0.10017 0.24551 0.87112 0.0
C2485 C 0.08212 0.25053 0.85618 0.0
C2486 C 0.12278 0.25734 0.87111 0.0
C2487 C 0.12763 0.27408 0.8559 0.0
C2488 C 0.10936 0.27947 0.84148 0.0
C2489 C 0.0868 0.26791 0.84174 0.0
C2490 C 0.17765 0.31213 0.83576 0.0
C2491 C 0.19153 0.296 0.83164 0.0
C2492 C 0.15787 0.30593 0.84622 0.0
C2493 C 0.15156 0.28338 0.85224 0.0
C2494 C 0.16686 0.26825 0.85045 0.0
C2495 C 0.18674 0.27456 0.84029 0.0
H2496 H 0.5784 0.73947 0.98476 0.0
H2497 H 0.5548 0.70051 0.91657 0.0
H2498 H 0.57782 0.70345 1.00179 0.0
H2499 H 0.55298 0.66412 0.93343 0.0
H2500 H 0.55794 0.59665 0.96675 0.0
H2501 H 0.56036 0.63247 0.94875 0.0
H2502 H 0.56531 0.67145 0.01713 0.0
H2503 H 0.56328 0.6358 0.03475 0.0
C2504 C 0.57335 0.72318 0.97317 0.0
C2505 C 0.56745 0.72365 0.94888 0.0
C2506 C 0.57257 0.70195 0.98313 0.0
C2507 C 0.56512 0.67953 0.96961 0.0
C2508 C 0.55921 0.68017 0.94516 0.0
C2509 C 0.56037 0.70148 0.93518 0.0
C2510 C 0.55953 0.61284 0.97806 0.0
C2511 C 0.56031 0.61251 1.00261 0.0
C2512 C 0.56088 0.6339 0.96756 0.0
C2513 C 0.5633 0.65619 0.98088 0.0
C2514 C 0.56389 0.65559 1.00546 0.0
C2515 C 0.56244 0.63458 0.01588 0.0
H2516 H 0.13743 0.78577 0.69131 0.0
H2517 H 0.14714 0.84909 0.73883 0.0
H2518 H 0.17573 0.78061 0.70747 0.0
H2519 H 0.18483 0.84397 0.75514 0.0
H2520 H 0.26091 0.84179 0.76891 0.0
H2521 H 0.22304 0.84594 0.75185 0.0
H2522 H 0.20067 0.77126 0.73809 0.0
H2523 H 0.2391 0.76723 0.75468 0.0
C2524 C 0.14777 0.79879 0.70499 0.0
C2525 C 0.13892 0.81804 0.71341 0.0
C2526 C 0.16983 0.7957 0.71459 0.0
C2527 C 0.1841 0.81188 0.73283 0.0
C2528 C 0.17511 0.83116 0.74097 0.0
C2529 C 0.15312 0.83409 0.73159 0.0
C2530 C 0.24799 0.82615 0.76238 0.0
C2531 C 0.25352 0.80414 0.76343 0.0
C2532 C 0.22589 0.82852 0.75256 0.0
C2533 C 0.20807 0.809 0.74333 0.0
C2534 C 0.2136 0.78691 0.74453 0.0
C2535 C 0.23581 0.78454 0.75434 0.0
H2536 H 0.04475 0.36618 0.42382 0.0
H2537 H 0.10079 0.36254 0.47585 0.0
H2538 H 0.04583 0.40604 0.44035 0.0
H2539 H 0.10252 0.40294 0.49245 0.0
H2540 H 0.09026 0.47178 0.53124 0.0
H2541 H 0.09122 0.43249 0.51404 0.0
H2542 H 0.05734 0.44502 0.44822 0.0
H2543 H 0.05605 0.484 0.46573 0.0
C2544 C 0.05783 0.37407 0.43854 0.0
C2545 C 0.07305 0.36068 0.44779 0.0
C2546 C 0.05851 0.39741 0.44827 0.0
C2547 C 0.07434 0.40897 0.4682 0.0
C2548 C 0.08976 0.39548 0.4774 0.0
C2549 C 0.08907 0.37202 0.46754 0.0
C2550 C 0.08297 0.46628 0.51305 0.0
C2551 C 0.07303 0.48186 0.50023 0.0
C2552 C 0.08364 0.44333 0.5029 0.0
C2553 C 0.07429 0.43435 0.47924 0.0
C2554 C 0.06452 0.45015 0.46645 0.0
C2555 C 0.06392 0.4731 0.47659 0.0
H2556 H 0.47118 0.2977 0.17024 0.0
H2557 H 0.51608 0.32482 0.23486 0.0
H2558 H 0.43753 0.29624 0.19101 0.0
H2559 H 0.48232 0.32391 0.2557 0.0
H2560 H 0.41269 0.33624 0.28354 0.0
H2561 H 0.4476 0.33901 0.26407 0.0
H2562 H 0.41523 0.27646 0.21765 0.0
H2563 H 0.38088 0.27363 0.23698 0.0
C2564 C 0.47405 0.30359 0.18889 0.0
C2565 C 0.49695 0.3114 0.20046 0.0
C2566 C 0.45446 0.30259 0.20106 0.0
C2567 C 0.45645 0.30982 0.22553 0.0
C2568 C 0.4794 0.31819 0.23703 0.0
C2569 C 0.49905 0.31865 0.22492 0.0
C2570 C 0.41297 0.3229 0.26932 0.0
C2571 C 0.39325 0.30464 0.26226 0.0
C2572 C 0.43327 0.32449 0.25797 0.0
C2573 C 0.43489 0.30812 0.23867 0.0
C2574 C 0.4152 0.28985 0.2319 0.0
C2575 C 0.39518 0.28812 0.24334 0.0
H2576 H 0.63882 0.59972 0.37733 0.0
H2577 H 0.69959 0.58815 0.41848 0.0
H2578 H 0.616 0.58728 0.40764 0.0
H2579 H 0.67696 0.57296 0.44666 0.0
H2580 H 0.63263 0.55013 0.49855 0.0
H2581 H 0.65553 0.5727 0.4748 0.0
H2582 H 0.60067 0.5508 0.41601 0.0
H2583 H 0.57614 0.53072 0.44161 0.0
C2584 C 0.64742 0.59517 0.39313 0.0
C2585 C 0.67068 0.59374 0.39514 0.0
C2586 C 0.63427 0.58741 0.41016 0.0
C2587 C 0.64433 0.57786 0.42893 0.0
C2588 C 0.66834 0.57993 0.43248 0.0
C2589 C 0.68149 0.58857 0.41606 0.0
C2590 C 0.62548 0.54977 0.48047 0.0
C2591 C 0.60255 0.53894 0.47188 0.0
C2592 C 0.63873 0.56283 0.46671 0.0
C2593 C 0.62991 0.56403 0.4435 0.0
C2594 C 0.60766 0.55114 0.43415 0.0
C2595 C 0.59384 0.53905 0.44847 0.0
H2596 H 0.37526 0.83422 0.10892 0.0
H2597 H 0.30904 0.85376 0.10601 0.0
H2598 H 0.37192 0.82371 0.14789 0.0
H2599 H 0.30549 0.84258 0.14501 0.0
H2600 H 0.32232 0.84938 0.22565 0.0
H2601 H 0.32372 0.85751 0.18535 0.0
H2602 H 0.3511 0.79617 0.16976 0.0
H2603 H 0.35003 0.78823 0.21006 0.0
C2604 C 0.35967 0.83572 0.11629 0.0
C2605 C 0.34241 0.84487 0.10417 0.0
C2606 C 0.35778 0.82968 0.13874 0.0
C2607 C 0.33851 0.83244 0.1497 0.0
C2608 C 0.32074 0.84059 0.13723 0.0
C2609 C 0.32264 0.84671 0.11472 0.0
C2610 C 0.32881 0.83773 0.21366 0.0
C2611 C 0.33616 0.8182 0.22112 0.0
C2612 C 0.32935 0.84224 0.19048 0.0
C2613 C 0.3374 0.82742 0.17425 0.0
C2614 C 0.34495 0.80803 0.18181 0.0
C2615 C 0.34426 0.80344 0.20492 0.0
H2616 H 0.05469 0.62642 0.9063 0.0
H2617 H 0.07658 0.58321 0.85204 0.0
H2618 H 0.04679 0.59354 0.9279 0.0
H2619 H 0.06869 0.55002 0.87388 0.0
H2620 H 0.09431 0.5365 0.95525 0.0
H2621 H 0.08824 0.54456 0.91482 0.0
H2622 H 1.01929 0.55288 0.92339 0.0
H2623 H 0.02585 0.54586 0.9641 0.0
C2624 C 0.05805 0.60992 0.89921 0.0
C2625 C 0.06645 0.60735 0.87781 0.0
C2626 C 0.05294 0.59094 0.91114 0.0
C2627 C 0.05623 0.56906 0.90189 0.0
C2628 C 0.06552 0.56662 0.88092 0.0
C2629 C 0.07058 0.58571 0.86887 0.0
C2630 C 0.07762 0.53918 0.94804 0.0
C2631 C 0.06095 0.54202 0.96249 0.0
C2632 C 0.07393 0.54328 0.92487 0.0
C2633 C 0.05378 0.55052 0.91675 0.0
C2634 C 0.03522 0.548 0.92976 0.0
C2635 C 0.03909 0.54447 0.95303 0.0
H2636 H 0.32406 0.23521 0.58167 0.0
H2637 H 0.37095 0.19818 0.61504 0.0
H2638 H 0.31716 0.25186 0.62025 0.0
H2639 H 0.36368 0.21398 0.65355 0.0
H2640 H 0.36363 0.26058 0.72228 0.0
H2641 H 0.36944 0.24412 0.68364 0.0
H2642 H 0.30118 0.25035 0.65551 0.0
H2643 H 0.29551 0.26702 0.69453 0.0
C2644 C 0.33278 0.23036 0.59723 0.0
C2645 C 0.34814 0.21514 0.59479 0.0
C2646 C 0.32873 0.23993 0.61968 0.0
C2647 C 0.33978 0.23473 0.64094 0.0
C2648 C 0.35496 0.21922 0.63825 0.0
C2649 C 0.35909 0.20983 0.61585 0.0
C2650 C 0.3497 0.25846 0.70797 0.0
C2651 C 0.32896 0.2653 0.71222 0.0
C2652 C 0.353 0.24869 0.68542 0.0
C2653 C 0.33587 0.24537 0.66553 0.0
C2654 C 0.31513 0.25244 0.66976 0.0
C2655 C 0.31171 0.26197 0.6925 0.0
H2656 H 0.68812 0.53818 0.28854 0.0
H2657 H 0.62522 0.55541 0.30752 0.0
H2658 H 0.68259 0.5552 0.25196 0.0
H2659 H 0.61975 0.5727 0.27145 0.0
H2660 H 0.61607 0.60753 0.20837 0.0
H2661 H 0.63438 0.6028 0.2469 0.0
H2662 H 0.65169 0.53944 0.2172 0.0
H2663 H 0.63328 0.54408 0.17869 0.0
C2664 C 0.67339 0.54606 0.28499 0.0
C2665 C 0.65672 0.54515 0.30023 0.0
C2666 C 0.67024 0.55577 0.26421 0.0
C2667 C 0.65062 0.56501 0.25879 0.0
C2668 C 0.63507 0.56577 0.27518 0.0
C2669 C 0.638 0.5557 0.29565 0.0
C2670 C 0.62395 0.59269 0.21007 0.0
C2671 C 0.62284 0.57591 0.19068 0.0
C2672 C 0.63457 0.59011 0.23205 0.0
C2673 C 0.64428 0.5707 0.23503 0.0
C2674 C 0.64456 0.55473 0.21535 0.0
C2675 C 0.6339 0.5573 0.19334 0.0
H2676 H 0.30535 0.85325 0.97862 0.0
H2677 H 0.37591 0.8462 0.97776 0.0
H2678 H 0.29726 0.84061 0.93612 0.0
H2679 H 0.36788 0.83404 0.93576 0.0
H2680 H 0.35435 0.84664 0.85963 0.0
H2681 H 0.3587 0.85607 0.90195 0.0
H2682 H 0.29676 0.80503 0.90413 0.0
H2683 H 0.29236 0.79526 0.86128 0.0
C2684 C 0.31904 0.84878 0.9695 0.0
C2685 C 0.34129 0.85079 0.98172 0.0
C2686 C 0.31438 0.8415 0.94518 0.0
C2687 C 0.332 0.83655 0.93254 0.0
C2688 C 0.35399 0.83795 0.94491 0.0
C2689 C 0.35853 0.84479 0.96911 0.0
C2690 C 0.34149 0.83744 0.86896 0.0
C2691 C 0.32296 0.82016 0.85691 0.0
C2692 C 0.34409 0.84279 0.89332 0.0
C2693 C 0.32817 0.8312 0.90645 0.0
C2694 C 0.30926 0.81432 0.89447 0.0
C2695 C 0.30678 0.80871 0.86996 0.0
H2696 H 0.06421 0.56258 0.78476 0.0
H2697 H 0.03829 0.61063 0.74284 0.0
H2698 H 0.05177 0.53168 0.75191 0.0
H2699 H 0.02617 0.57941 0.70978 0.0
H2700 H 0.07528 0.53535 0.66792 0.0
H2701 H 0.07068 0.55985 0.70242 0.0
H2702 H 1.00749 0.51249 0.70896 0.0
H2703 H 1.01169 0.48765 0.67306 0.0
C2704 C 0.05567 0.56649 0.76859 0.0
C2705 C 0.05285 0.58913 0.76593 0.0
C2706 C 0.04798 0.54863 0.75014 0.0
C2707 C 0.03764 0.55327 0.72879 0.0
C2708 C 0.03358 0.57552 0.72647 0.0
C2709 C 0.04099 0.59338 0.74508 0.0
C2710 C 0.06062 0.52979 0.67693 0.0
C2711 C 0.0442 0.50928 0.66846 0.0
C2712 C 0.05783 0.544 0.69633 0.0
C2713 C 0.03867 0.53795 0.70781 0.0
C2714 C 0.02225 0.5173 0.69991 0.0
C2715 C 0.0248 0.50309 0.67983 0.0
H2716 H 0.38203 0.22385 0.45901 0.0
H2717 H 0.30958 0.21852 0.46232 0.0
H2718 H 0.3783 0.24062 0.4224 0.0
H2719 H 0.30604 0.23643 0.42573 0.0
H2720 H 0.31747 0.29275 0.37055 0.0
H2721 H 0.31927 0.27532 0.4073 0.0
H2722 H 0.36036 0.22985 0.37918 0.0
H2723 H 0.35756 0.24648 0.34206 0.0
C2724 C 0.36517 0.22632 0.45214 0.0
C2725 C 0.34617 0.21941 0.46436 0.0
C2726 C 0.36302 0.23601 0.43073 0.0
C2727 C 0.34184 0.24016 0.42034 0.0
C2728 C 0.32279 0.23376 0.43271 0.0
C2729 C 0.3248 0.22328 0.45392 0.0
C2730 C 0.32696 0.27904 0.37207 0.0
C2731 C 0.33747 0.2714 0.35276 0.0
C2732 C 0.32785 0.2688 0.39336 0.0
C2733 C 0.33999 0.25084 0.39692 0.0
C2734 C 0.35083 0.24353 0.37771 0.0
C2735 C 0.34923 0.25318 0.35613 0.0
H2736 H 0.35434 0.66747 0.48398 0.0
H2737 H 0.36595 0.66027 0.55735 0.0
H2738 H 0.37905 0.64053 0.47526 0.0
H2739 H 0.39248 0.63476 0.54922 0.0
H2740 H 0.42133 0.57276 0.52736 0.0
H2741 H 0.39449 0.59801 0.53404 0.0
H2742 H 0.41571 0.63421 0.47648 0.0
H2743 H 0.4414 0.60775 0.46908 0.0
C2744 C 0.36286 0.66058 0.49835 0.0
C2745 C 0.35862 0.66609 0.52136 0.0
C2746 C 0.3771 0.64514 0.49339 0.0
C2747 C 0.38796 0.63529 0.51147 0.0
C2748 C 0.38407 0.64144 0.53468 0.0
C2749 C 0.36918 0.65634 0.5395 0.0
C2750 C 0.41998 0.58601 0.51604 0.0
C2751 C 0.43344 0.58843 0.4978 0.0
C2752 C 0.4048 0.60071 0.52 0.0
C2753 C 0.4031 0.61863 0.50617 0.0
C2754 C 0.41624 0.62058 0.48745 0.0
C2755 C 0.43108 0.60548 0.48319 0.0
H2756 H 0.86138 0.99511 0.52237 0.0
H2757 H 0.88465 0.93952 0.55363 0.0
H2758 H 0.90151 0.01388 0.52062 0.0
H2759 H 0.92456 0.95787 0.55152 0.0
H2760 H 0.99621 1.00727 0.56699 0.0
H2761 H 0.95604 0.98865 0.56766 0.0
H2762 H 0.93632 0.01432 0.50308 0.0
H2763 H 0.97685 0.0328 0.50239 0.0
C2764 C 0.87495 0.98665 0.52866 0.0
C2765 C 0.86923 0.96547 0.53801 0.0
C2766 C 0.89823 0.99747 0.52759 0.0
C2767 C 0.91696 0.98772 0.53594 0.0
C2768 C 0.91112 0.96645 0.54515 0.0
C2769 C 0.8879 0.95563 0.54616 0.0
C2770 C 0.98337 1.00909 0.55289 0.0
C2771 C 0.99021 0.02183 0.53467 0.0
C2772 C 0.96007 0.99811 0.55316 0.0
C2773 C 0.94225 0.99963 0.53541 0.0
C2774 C 0.94909 0.01263 0.51727 0.0
C2775 C 0.97256 0.02325 0.51677 0.0
H2776 H 0.85277 0.06752 0.19895 0.0
H2777 H 0.91635 0.07894 0.24635 0.0
H2778 H 0.84912 0.10731 0.21161 0.0
H2779 H 0.91214 0.11776 0.26013 0.0
H2780 H 0.89381 0.18574 0.28605 0.0
H2781 H 0.90639 0.15676 0.26001 0.0
H2782 H 0.8374 0.11409 0.24971 0.0
H2783 H 0.8248 0.14308 0.27439 0.0
C2784 C 0.86634 0.07891 0.21135 0.0
C2785 C 0.88439 0.07042 0.22232 0.0
C2786 C 0.86425 0.10149 0.21875 0.0
C2787 C 0.87982 0.11512 0.23759 0.0
C2788 C 0.89976 0.10766 0.24579 0.0
C2789 C 0.90208 0.08538 0.23804 0.0
C2790 C 0.88148 0.17004 0.27823 0.0
C2791 C 0.85838 0.16656 0.28232 0.0
C2792 C 0.88859 0.15364 0.26321 0.0
C2793 C 0.87265 0.13362 0.25214 0.0
C2794 C 0.84988 0.1298 0.25716 0.0
C2795 C 0.84282 0.14609 0.27198 0.0
H2796 H 0.75171 0.14495 0.03313 0.0
H2797 H 0.71077 0.16819 0.97778 0.0
H2798 H 0.71882 0.11504 0.03752 0.0
H2799 H 0.67707 0.13909 0.98312 0.0
H2800 H 0.62574 0.07258 0.98477 0.0
H2801 H 0.66059 0.09856 0.97794 0.0
H2802 H 0.68374 0.11178 0.05258 0.0
H2803 H 0.64938 0.0852 0.05932 0.0
C2804 C 0.73542 0.1439 0.02224 0.0
C2805 C 0.73349 0.15903 1.00542 0.0
C2806 C 0.71658 0.12678 0.02476 0.0
C2807 C 0.69522 0.12479 0.01087 0.0
C2808 C 0.69336 0.13993 0.99389 0.0
C2809 C 0.71248 0.15674 0.99098 0.0
C2810 C 0.63849 0.08069 0.9997 0.0
C2811 C 0.63479 0.07687 0.02263 0.0
C2812 C 0.65834 0.09581 0.99578 0.0
C2813 C 0.67487 0.10746 0.01471 0.0
C2814 C 0.67151 0.10293 0.03755 0.0
C2815 C 0.65174 0.08774 0.04145 0.0
H2816 H 0.17588 0.47894 0.29568 0.0
H2817 H 0.16697 0.43003 0.23265 0.0
H2818 H 0.21263 0.46921 0.30847 0.0
H2819 H 0.20392 0.42023 0.24562 0.0
H2820 H 0.27978 0.42324 0.2668 0.0
H2821 H 0.24631 0.43895 0.2541 0.0
H2822 H 0.22332 0.43261 0.32158 0.0
H2823 H 0.25697 0.41673 0.33429 0.0
C2824 C 0.18182 0.46614 0.28452 0.0
C2825 C 0.16845 0.4549 0.26334 0.0
C2826 C 0.20281 0.46058 0.29191 0.0
C2827 C 0.21088 0.44384 0.27816 0.0
C2828 C 0.19802 0.4333 0.25647 0.0
C2829 C 0.17692 0.43882 0.24909 0.0
C2830 C 0.26771 0.42556 0.27901 0.0
C2831 C 0.27077 0.41878 0.30145 0.0
C2832 C 0.24858 0.43439 0.27171 0.0
C2833 C 0.23224 0.43672 0.28678 0.0
C2834 C 0.23585 0.43109 0.30971 0.0
C2835 C 0.25506 0.42213 0.31702 0.0
H2836 H 0.24555 0.49921 0.06753 0.0
H2837 H 0.21269 0.43807 0.01931 0.0
H2838 H 0.21033 0.51347 0.06432 0.0
H2839 H 0.17661 0.45286 0.0157 0.0
H2840 H 0.10768 0.47965 0.02813 0.0
H2841 H 0.14223 0.46266 0.02959 0.0
H2842 H 0.18516 0.53157 0.04431 0.0
H2843 H 0.15092 0.54822 0.04285 0.0
C2844 C 0.23085 0.48857 0.05597 0.0
C2845 C 0.23292 0.46712 0.04373 0.0
C2846 C 0.21016 0.49711 0.05395 0.0
C2847 C 0.18972 0.48495 0.03944 0.0
C2848 C 0.19145 0.46319 0.02726 0.0
C2849 C 0.21247 0.45453 0.0293 0.0
C2850 C 0.12447 0.49128 0.03184 0.0
C2851 C 0.12582 0.51566 0.03561 0.0
C2852 C 0.14463 0.4814 0.03252 0.0
C2853 C 0.16741 0.49527 0.03742 0.0
C2854 C 0.16855 0.51966 0.04097 0.0
C2855 C 0.1485 0.52947 0.03996 0.0
H2856 H 0.85189 0.97074 0.22659 0.0
H2857 H 0.90201 0.93763 0.19644 0.0
H2858 H 0.83281 0.93375 0.23706 0.0
H2859 H 0.88382 0.90075 0.20806 0.0
H2860 H 0.8406 0.83493 0.2237 0.0
H2861 H 0.85086 0.86943 0.20422 0.0
H2862 H 0.84494 0.91279 0.26739 0.0
H2863 H 0.83332 0.87812 0.28605 0.0
C2864 C 0.85843 0.95531 0.2218 0.0
C2865 C 0.87821 0.95665 0.2108 0.0
C2866 C 0.84773 0.9343 0.22797 0.0
C2867 C 0.85708 0.91457 0.22369 0.0
C2868 C 0.87609 0.91567 0.21129 0.0
C2869 C 0.8865 0.93666 0.20465 0.0
C2870 C 0.84123 0.85195 0.23307 0.0
C2871 C 0.83626 0.85437 0.25607 0.0
C2872 C 0.84714 0.87156 0.22208 0.0
C2873 C 0.84859 0.89369 0.23427 0.0
C2874 C 0.84335 0.8959 0.25736 0.0
C2875 C 0.83692 0.87623 0.26811 0.0
H2876 H 0.67314 0.02814 0.74048 0.0
H2877 H 0.61672 0.06133 0.75257 0.0
H2878 H 0.69908 0.06613 0.74383 0.0
H2879 H 0.64263 0.09959 0.7558 0.0
H2880 H 0.6998 0.16423 0.74603 0.0
H2881 H 0.67024 0.12822 0.7371 0.0
H2882 H 0.7132 0.09416 0.78068 0.0
H2883 H 0.74283 0.13004 0.78926 0.0
C2884 C 0.66608 0.04363 0.74263 0.0
C2885 C 0.64296 0.04195 0.74592 0.0
C2886 C 0.68098 0.06535 0.74505 0.0
C2887 C 0.67298 0.08576 0.75072 0.0
C2888 C 0.64929 0.08414 0.75158 0.0
C2889 C 0.6344 0.06231 0.74943 0.0
C2890 C 0.70264 0.14914 0.75407 0.0
C2891 C 0.72361 0.14975 0.76816 0.0
C2892 C 0.68581 0.12854 0.74884 0.0
C2893 C 0.68971 0.10825 0.75766 0.0
C2894 C 0.71008 0.10935 0.773 0.0
C2895 C 0.72692 0.12987 0.77811 0.0
loop_
_geom_bond_atom_site_label_1
_geom_bond_atom_site_label_2
_geom_bond_distance
_geom_bond_site_symmetry_2
_ccdc_geom_bond_type
Mg0 O1 2.028 . S
Mg0 O7 1.986 . S
Mg0 O9 2.114 . S
Mg0 O10 2.251 . S
Mg0 O13 2.010 . S
O1 Mg0 2.028 . S
O1 C4 1.250 . S
O2 Mg3 2.028 . S
O2 C4 1.248 . S
Mg3 O2 2.028 . S
Mg3 O8 2.032 . S
Mg3 O10 2.079 . S
C4 O1 1.250 . S
C4 O2 1.248 . S
C5 O6 1.264 . S
C5 O13 1.249 . S
O6 C5 1.264 . S
O7 Mg0 1.986 . S
O7 C11 1.246 . S
O8 Mg3 2.032 . S
O8 C11 1.259 . S
O9 Mg0 2.114 . S
O9 C12 1.252 . S
O10 Mg0 2.251 . S
O10 Mg3 2.079 . S
O10 C12 1.273 . S
C11 O7 1.246 . S
C11 O8 1.259 . S
C12 O9 1.252 . S
C12 O10 1.273 . S
O13 Mg0 2.010 . S
O13 C5 1.249 . S
Mg14 O15 2.028 . S
Mg14 O21 1.986 . S
Mg14 O23 2.114 . S
Mg14 O24 2.251 . S
Mg14 O27 2.010 . S
O15 Mg14 2.028 . S
O15 C18 1.250 . S
O16 Mg17 2.028 . S
O16 C18 1.248 . S
Mg17 O16 2.028 . S
Mg17 O22 2.032 . S
Mg17 O24 2.079 . S
C18 O15 1.250 . S
C18 O16 1.248 . S
C19 O20 1.264 . S
C19 O27 1.249 . S
O20 C19 1.264 . S
O21 Mg14 1.986 . S
O21 C25 1.246 . S
O22 Mg17 2.032 . S
O22 C25 1.259 . S
O23 Mg14 2.114 . S
O23 C26 1.252 . S
O24 Mg14 2.251 . S
O24 Mg17 2.079 . S
O24 C26 1.273 . S
C25 O21 1.246 . S
C25 O22 1.259 . S
C26 O23 1.252 . S
C26 O24 1.273 . S
O27 Mg14 2.010 . S
O27 C19 1.249 . S
Mg28 O29 2.028 . S
Mg28 O35 1.986 . S
Mg28 O37 2.114 . S
Mg28 O38 2.251 . S
Mg28 O41 2.010 . S
O29 Mg28 2.028 . S
O29 C32 1.250 . S
O30 Mg31 2.028 . S
O30 C32 1.248 . S
Mg31 O30 2.028 . S
Mg31 O36 2.032 . S
Mg31 O38 2.079 . S
C32 O29 1.250 . S
C32 O30 1.248 . S
C33 O34 1.264 . S
C33 O41 1.249 . S
O34 C33 1.264 . S
O35 Mg28 1.986 . S
O35 C39 1.246 . S
O36 Mg31 2.032 . S
O36 C39 1.259 . S
O37 Mg28 2.114 . S
O37 C40 1.252 . S
O38 Mg28 2.251 . S
O38 Mg31 2.079 . S
O38 C40 1.273 . S
C39 O35 1.246 . S
C39 O36 1.259 . S
C40 O37 1.252 . S
C40 O38 1.273 . S
O41 Mg28 2.010 . S
O41 C33 1.249 . S
Mg42 O43 2.028 . S
Mg42 O49 1.986 . S
Mg42 O51 2.114 . S
Mg42 O52 2.251 . S
Mg42 O55 2.010 . S
O43 Mg42 2.028 . S
O43 C46 1.250 . S
O44 Mg45 2.028 . S
O44 C46 1.248 . S
Mg45 O44 2.028 . S
Mg45 O50 2.032 . S
Mg45 O52 2.079 . S
C46 O43 1.250 . S
C46 O44 1.248 . S
C47 O48 1.264 . S
C47 O55 1.249 . S
O48 C47 1.264 . S
O49 Mg42 1.986 . S
O49 C53 1.246 . S
O50 Mg45 2.032 . S
O50 C53 1.259 . S
O51 Mg42 2.114 . S
O51 C54 1.252 . S
O52 Mg42 2.251 . S
O52 Mg45 2.079 . S
O52 C54 1.273 . S
C53 O49 1.246 . S
C53 O50 1.259 . S
C54 O51 1.252 . S
C54 O52 1.273 . S
O55 Mg42 2.010 . S
O55 C47 1.249 . S
Mg56 O57 2.028 . S
Mg56 O63 1.986 . S
Mg56 O65 2.114 . S
Mg56 O66 2.251 . S
Mg56 O69 2.010 . S
O57 Mg56 2.028 . S
O57 C60 1.250 . S
O58 Mg59 2.028 . S
O58 C60 1.248 . S
Mg59 O58 2.028 . S
Mg59 O64 2.032 . S
Mg59 O66 2.079 . S
C60 O57 1.250 . S
C60 O58 1.248 . S
C61 O62 1.264 . S
C61 O69 1.249 . S
O62 C61 1.264 . S
O63 Mg56 1.986 . S
O63 C67 1.246 . S
O64 Mg59 2.032 . S
O64 C67 1.259 . S
O65 Mg56 2.114 . S
O65 C68 1.252 . S
O66 Mg56 2.251 . S
O66 Mg59 2.079 . S
O66 C68 1.273 . S
C67 O63 1.246 . S
C67 O64 1.259 . S
C68 O65 1.252 . S
C68 O66 1.273 . S
O69 Mg56 2.010 . S
O69 C61 1.249 . S
Mg70 O71 2.028 . S
Mg70 O77 1.986 . S
Mg70 O79 2.114 . S
Mg70 O80 2.251 . S
Mg70 O83 2.010 . S
O71 Mg70 2.028 . S
O71 C74 1.250 . S
O72 Mg73 2.028 . S
O72 C74 1.248 . S
Mg73 O72 2.028 . S
Mg73 O78 2.032 . S
Mg73 O80 2.079 . S
C74 O71 1.250 . S
C74 O72 1.248 . S
C75 O76 1.264 . S
C75 O83 1.249 . S
O76 C75 1.264 . S
O77 Mg70 1.986 . S
O77 C81 1.246 . S
O78 Mg73 2.032 . S
O78 C81 1.259 . S
O79 Mg70 2.114 . S
O79 C82 1.252 . S
O80 Mg70 2.251 . S
O80 Mg73 2.079 . S
O80 C82 1.273 . S
C81 O77 1.246 . S
C81 O78 1.259 . S
C82 O79 1.252 . S
C82 O80 1.273 . S
O83 Mg70 2.010 . S
O83 C75 1.249 . S
Mg84 O85 2.028 . S
Mg84 O91 1.986 . S
Mg84 O93 2.114 . S
Mg84 O94 2.251 . S
Mg84 O97 2.010 . S
O85 Mg84 2.028 . S
O85 C88 1.250 . S
O86 Mg87 2.028 . S
O86 C88 1.248 . S
Mg87 O86 2.028 . S
Mg87 O92 2.032 . S
Mg87 O94 2.079 . S
C88 O85 1.250 . S
C88 O86 1.248 . S
C89 O90 1.264 . S
C89 O97 1.249 . S
O90 C89 1.264 . S
O91 Mg84 1.986 . S
O91 C95 1.246 . S
O92 Mg87 2.032 . S
O92 C95 1.259 . S
O93 Mg84 2.114 . S
O93 C96 1.252 . S
O94 Mg84 2.251 . S
O94 Mg87 2.079 . S
O94 C96 1.273 . S
C95 O91 1.246 . S
C95 O92 1.259 . S
C96 O93 1.252 . S
C96 O94 1.273 . S
O97 Mg84 2.010 . S
O97 C89 1.249 . S
Mg98 O99 2.028 1_655 S
Mg98 O105 1.986 1_655 S
Mg98 O107 2.114 . S
Mg98 O108 2.251 . S
Mg98 O111 2.010 1_655 S
O99 Mg98 2.028 1_455 S
O99 C102 1.255 . S
O100 Mg101 2.028 . S
O100 C102 1.241 1_655 S
Mg101 O100 2.028 . S
Mg101 O106 2.032 . S
Mg101 O108 2.079 . S
C102 O99 1.255 . S
C102 O100 1.241 1_455 S
C103 O104 1.264 . S
C103 O111 1.249 . S
O104 C103 1.264 . S
O105 Mg98 1.986 1_455 S
O105 C109 1.246 1_455 S
O106 Mg101 2.032 . S
O106 C109 1.259 . S
O107 Mg98 2.114 . S
O107 C110 1.252 . S
O108 Mg98 2.251 . S
O108 Mg101 2.079 . S
O108 C110 1.273 . S
C109 O105 1.246 1_655 S
C109 O106 1.259 . S
C110 O107 1.252 . S
C110 O108 1.273 . S
O111 Mg98 2.010 1_455 S
O111 C103 1.249 . S
Mg112 O113 2.028 . S
Mg112 O119 1.986 . S
Mg112 O121 2.114 . S
Mg112 O122 2.251 . S
Mg112 O125 2.010 . S
O113 Mg112 2.028 . S
O113 C116 1.250 . S
O114 Mg115 2.028 . S
O114 C116 1.248 . S
Mg115 O114 2.028 . S
Mg115 O120 2.032 . S
Mg115 O122 2.079 . S
C116 O113 1.250 . S
C116 O114 1.248 . S
C117 O118 1.264 . S
C117 O125 1.249 . S
O118 C117 1.264 . S
O119 Mg112 1.986 . S
O119 C123 1.246 . S
O120 Mg115 2.032 . S
O120 C123 1.259 . S
O121 Mg112 2.114 . S
O121 C124 1.252 . S
O122 Mg112 2.251 . S
O122 Mg115 2.079 . S
O122 C124 1.273 . S
C123 O119 1.246 . S
C123 O120 1.259 . S
C124 O121 1.252 . S
C124 O122 1.273 . S
O125 Mg112 2.010 . S
O125 C117 1.249 . S
Mg126 O127 2.028 . S
Mg126 O133 1.986 . S
Mg126 O135 2.114 . S
Mg126 O136 2.251 . S
Mg126 O139 2.010 . S
O127 Mg126 2.028 . S
O127 C130 1.250 . S
O128 Mg129 2.028 . S
O128 C130 1.248 . S
Mg129 O128 2.028 . S
Mg129 O134 2.032 . S
Mg129 O136 2.079 . S
C130 O127 1.250 . S
C130 O128 1.248 . S
C131 O132 1.264 . S
C131 O139 1.249 . S
O132 C131 1.264 . S
O133 Mg126 1.986 . S
O133 C137 1.246 . S
O134 Mg129 2.032 . S
O134 C137 1.259 . S
O135 Mg126 2.114 . S
O135 C138 1.252 . S
O136 Mg126 2.251 . S
O136 Mg129 2.079 . S
O136 C138 1.273 . S
C137 O133 1.246 . S
C137 O134 1.259 . S
C138 O135 1.252 . S
C138 O136 1.273 . S
O139 Mg126 2.010 . S
O139 C131 1.249 . S
Mg140 O141 2.028 . S
Mg140 O147 1.986 . S
Mg140 O149 2.114 . S
Mg140 O150 2.251 . S
Mg140 O153 2.010 . S
O141 Mg140 2.028 . S
O141 C144 1.250 . S
O142 Mg143 2.028 . S
O142 C144 1.248 . S
Mg143 O142 2.028 . S
Mg143 O148 2.032 . S
Mg143 O150 2.079 . S
C144 O141 1.250 . S
C144 O142 1.248 . S
C145 O146 1.264 . S
C145 O153 1.249 . S
O146 C145 1.264 . S
O147 Mg140 1.986 . S
O147 C151 1.246 . S
O148 Mg143 2.032 . S
O148 C151 1.259 . S
O149 Mg140 2.114 . S
O149 C152 1.252 . S
O150 Mg140 2.251 . S
O150 Mg143 2.079 . S
O150 C152 1.273 . S
C151 O147 1.246 . S
C151 O148 1.259 . S
C152 O149 1.252 . S
C152 O150 1.273 . S
O153 Mg140 2.010 . S
O153 C145 1.249 . S
Mg154 O155 2.028 . S
Mg154 O161 1.986 . S
Mg154 O163 2.114 . S
Mg154 O164 2.251 . S
Mg154 O167 2.010 . S
O155 Mg154 2.028 . S
O155 C158 1.250 . S
O156 Mg157 2.028 . S
O156 C158 1.248 . S
Mg157 O156 2.028 . S
Mg157 O162 2.032 . S
Mg157 O164 2.079 . S
C158 O155 1.250 . S
C158 O156 1.248 . S
C159 O160 1.264 . S
C159 O167 1.249 . S
O160 C159 1.264 . S
O161 Mg154 1.986 . S
O161 C165 1.246 . S
O162 Mg157 2.032 . S
O162 C165 1.259 . S
O163 Mg154 2.114 . S
O163 C166 1.252 . S
O164 Mg154 2.251 . S
O164 Mg157 2.079 . S
O164 C166 1.273 . S
C165 O161 1.246 . S
C165 O162 1.259 . S
C166 O163 1.252 . S
C166 O164 1.273 . S
O167 Mg154 2.010 . S
O167 C159 1.249 . S
Mg168 O169 2.028 . S
Mg168 O175 1.986 . S
Mg168 O177 2.114 . S
Mg168 O178 2.251 . S
Mg168 O181 2.010 . S
O169 Mg168 2.028 . S
O169 C172 1.250 1_554 S
O170 Mg171 2.028 . S
O170 C172 1.248 1_554 S
Mg171 O170 2.028 . S
Mg171 O176 2.032 . S
Mg171 O178 2.079 . S
C172 O169 1.250 1_556 S
C172 O170 1.248 1_556 S
C173 O174 1.264 . S
C173 O181 1.249 . S
O174 C173 1.264 . S
O175 Mg168 1.986 . S
O175 C179 1.246 . S
O176 Mg171 2.032 . S
O176 C179 1.259 . S
O177 Mg168 2.114 . S
O177 C180 1.252 . S
O178 Mg168 2.251 . S
O178 Mg171 2.079 . S
O178 C180 1.273 . S
C179 O175 1.246 . S
C179 O176 1.259 . S
C180 O177 1.252 . S
C180 O178 1.273 . S
O181 Mg168 2.010 . S
O181 C173 1.249 . S
Mg182 O183 2.028 1_556 S
Mg182 O189 1.986 . S
Mg182 O191 2.114 1_556 S
Mg182 O192 2.251 . S
Mg182 O195 2.010 . S
O183 Mg182 2.028 1_554 S
O183 C186 1.250 . S
O184 Mg185 2.028 . S
O184 C186 1.248 . S
Mg185 O184 2.028 . S
Mg185 O190 2.032 1_554 S
Mg185 O192 2.079 1_554 S
C186 O183 1.250 . S
C186 O184 1.248 . S
C187 O188 1.264 . S
C187 O195 1.249 . S
O188 C187 1.264 . S
O189 Mg182 1.986 . S
O189 C193 1.246 . S
O190 Mg185 2.032 1_556 S
O190 C193 1.259 . S
O191 Mg182 2.114 1_554 S
O191 C194 1.252 . S
O192 Mg182 2.251 . S
O192 Mg185 2.079 1_556 S
O192 C194 1.273 1_556 S
C193 O189 1.246 . S
C193 O190 1.259 . S
C194 O191 1.252 . S
C194 O192 1.273 1_554 S
O195 Mg182 2.010 . S
O195 C187 1.249 . S
Mg196 O197 2.028 . S
Mg196 O203 1.986 . S
Mg196 O205 2.114 . S
Mg196 O206 2.251 . S
Mg196 O209 2.010 . S
O197 Mg196 2.028 . S
O197 C200 1.250 . S
O198 Mg199 2.028 . S
O198 C200 1.248 . S
Mg199 O198 2.028 . S
Mg199 O204 2.032 . S
Mg199 O206 2.079 . S
C200 O197 1.250 . S
C200 O198 1.248 . S
C201 O202 1.264 . S
C201 O209 1.249 . S
O202 C201 1.264 . S
O203 Mg196 1.986 . S
O203 C207 1.246 . S
O204 Mg199 2.032 . S
O204 C207 1.259 . S
O205 Mg196 2.114 . S
O205 C208 1.252 . S
O206 Mg196 2.251 . S
O206 Mg199 2.079 . S
O206 C208 1.273 . S
C207 O203 1.246 . S
C207 O204 1.259 . S
C208 O205 1.252 . S
C208 O206 1.273 . S
O209 Mg196 2.010 . S
O209 C201 1.249 . S
Mg210 O211 2.028 . S
Mg210 O217 1.986 . S
Mg210 O219 2.114 . S
Mg210 O220 2.251 . S
Mg210 O223 2.010 . S
O211 Mg210 2.028 . S
O211 C214 1.250 . S
O212 Mg213 2.028 . S
O212 C214 1.248 . S
Mg213 O212 2.028 . S
Mg213 O218 2.032 . S
Mg213 O220 2.079 . S
C214 O211 1.250 . S
C214 O212 1.248 . S
C215 O216 1.264 . S
C215 O223 1.249 . S
O216 C215 1.264 . S
O217 Mg210 1.986 . S
O217 C221 1.246 . S
O218 Mg213 2.032 . S
O218 C221 1.259 . S
O219 Mg210 2.114 . S
O219 C222 1.252 . S
O220 Mg210 2.251 . S
O220 Mg213 2.079 . S
O220 C222 1.273 . S
C221 O217 1.246 . S
C221 O218 1.259 . S
C222 O219 1.252 . S
C222 O220 1.273 . S
O223 Mg210 2.010 . S
O223 C215 1.249 . S
Mg224 O225 2.028 1_545 S
Mg224 O231 1.986 . S
Mg224 O233 2.090 1_545 S
Mg224 O234 2.251 . S
Mg224 O237 2.010 . S
O225 Mg224 2.028 1_565 S
O225 C228 1.250 . S
O226 Mg227 1.992 1_565 S
O226 C228 1.248 . S
Mg227 O226 1.992 1_545 S
Mg227 O232 2.071 . S
Mg227 O234 2.081 . S
C228 O225 1.250 . S
C228 O226 1.248 . S
C229 O230 1.264 . S
C229 O237 1.249 . S
O230 C229 1.264 . S
O231 Mg224 1.986 . S
O231 C235 1.246 . S
O232 Mg227 2.071 . S
O232 C235 1.259 . S
O233 Mg224 2.090 1_565 S
O233 C236 1.241 1_565 S
O234 Mg224 2.251 . S
O234 Mg227 2.081 . S
O234 C236 1.273 . S
C235 O231 1.246 . S
C235 O232 1.259 . S
C236 O233 1.241 1_545 S
C236 O234 1.273 . S
O237 Mg224 2.010 . S
O237 C229 1.249 . S
Mg238 O239 2.028 . S
Mg238 O245 1.986 . S
Mg238 O247 2.114 . S
Mg238 O248 2.251 . S
Mg238 O251 2.010 . S
O239 Mg238 2.028 . S
O239 C242 1.250 . S
O240 Mg241 2.028 . S
O240 C242 1.248 . S
Mg241 O240 2.028 . S
Mg241 O246 2.032 . S
Mg241 O248 2.079 . S
C242 O239 1.250 . S
C242 O240 1.248 . S
C243 O244 1.264 . S
C243 O251 1.249 . S
O244 C243 1.264 . S
O245 Mg238 1.986 . S
O245 C249 1.246 . S
O246 Mg241 2.032 . S
O246 C249 1.259 . S
O247 Mg238 2.114 . S
O247 C250 1.252 . S
O248 Mg238 2.251 . S
O248 Mg241 2.079 . S
O248 C250 1.273 . S
C249 O245 1.246 . S
C249 O246 1.259 . S
C250 O247 1.252 . S
C250 O248 1.273 . S
O251 Mg238 2.010 . S
O251 C243 1.249 . S
Mg252 O253 2.028 . S
Mg252 O259 1.986 . S
Mg252 O261 2.114 . S
Mg252 O262 2.251 . S
Mg252 O265 2.010 . S
O253 Mg252 2.028 . S
O253 C256 1.250 . S
O254 Mg255 2.028 . S
O254 C256 1.248 . S
Mg255 O254 2.028 . S
Mg255 O260 2.032 . S
Mg255 O262 2.079 . S
C256 O253 1.250 . S
C256 O254 1.248 . S
C257 O258 1.264 . S
C257 O265 1.249 . S
O258 C257 1.264 . S
O259 Mg252 1.986 . S
O259 C263 1.246 . S
O260 Mg255 2.032 . S
O260 C263 1.259 . S
O261 Mg252 2.114 . S
O261 C264 1.252 . S
O262 Mg252 2.251 . S
O262 Mg255 2.079 . S
O262 C264 1.273 . S
C263 O259 1.246 . S
C263 O260 1.259 . S
C264 O261 1.252 . S
C264 O262 1.273 . S
O265 Mg252 2.010 . S
O265 C257 1.249 . S
Mg266 O267 2.028 1_565 S
Mg266 O273 1.986 . S
Mg266 O275 2.114 1_565 S
Mg266 O276 2.251 . S
Mg266 O279 2.010 . S
O267 Mg266 2.028 1_545 S
O267 C270 1.250 . S
O268 Mg269 2.028 . S
O268 C270 1.248 . S
Mg269 O268 2.028 . S
Mg269 O274 2.032 1_545 S
Mg269 O276 2.079 1_545 S
C270 O267 1.250 . S
C270 O268 1.248 . S
C271 O272 1.264 . S
C271 O279 1.249 . S
O272 C271 1.264 . S
O273 Mg266 1.986 . S
O273 C277 1.246 . S
O274 Mg269 2.032 1_565 S
O274 C277 1.259 . S
O275 Mg266 2.114 1_545 S
O275 C278 1.252 . S
O276 Mg266 2.251 . S
O276 Mg269 2.079 1_565 S
O276 C278 1.266 1_565 S
C277 O273 1.246 . S
C277 O274 1.259 . S
C278 O275 1.252 . S
C278 O276 1.266 1_545 S
O279 Mg266 2.010 . S
O279 C271 1.249 . S
Mg280 O281 2.028 . S
Mg280 O287 1.986 1_554 S
Mg280 O289 2.114 . S
Mg280 O290 2.251 . S
Mg280 O293 2.010 . S
O281 Mg280 2.028 . S
O281 C284 1.250 . S
O282 Mg283 2.028 . S
O282 C284 1.248 . S
Mg283 O282 2.028 . S
Mg283 O288 2.032 1_554 S
Mg283 O290 2.079 . S
C284 O281 1.250 . S
C284 O282 1.248 . S
C285 O286 1.264 1_554 S
C285 O293 1.249 . S
O286 C285 1.264 1_556 S
O287 Mg280 1.986 1_556 S
O287 C291 1.246 . S
O288 Mg283 2.032 1_556 S
O288 C291 1.259 . S
O289 Mg280 2.114 . S
O289 C292 1.252 . S
O290 Mg280 2.251 . S
O290 Mg283 2.079 . S
O290 C292 1.273 . S
C291 O287 1.246 . S
C291 O288 1.259 . S
C292 O289 1.252 . S
C292 O290 1.273 . S
O293 Mg280 2.010 . S
O293 C285 1.249 . S
Mg294 O295 2.028 1_455 S
Mg294 O301 1.986 1_455 S
Mg294 O303 2.114 . S
Mg294 O304 2.251 . S
Mg294 O307 2.010 . S
O295 Mg294 2.028 1_655 S
O295 C298 1.250 . S
O296 Mg297 2.028 . S
O296 C298 1.248 . S
Mg297 O296 2.028 . S
Mg297 O302 2.032 . S
Mg297 O304 2.079 1_655 S
C298 O295 1.250 . S
C298 O296 1.248 . S
C299 O300 1.264 . S
C299 O307 1.249 . S
O300 C299 1.264 . S
O301 Mg294 1.986 1_655 S
O301 C305 1.246 . S
O302 Mg297 2.032 . S
O302 C305 1.259 . S
O303 Mg294 2.114 . S
O303 C306 1.252 . S
O304 Mg294 2.251 . S
O304 Mg297 2.079 1_455 S
O304 C306 1.273 . S
C305 O301 1.246 . S
C305 O302 1.259 . S
C306 O303 1.252 . S
C306 O304 1.273 . S
O307 Mg294 2.010 . S
O307 C299 1.249 . S
Mg308 O309 2.028 . S
Mg308 O315 1.986 . S
Mg308 O317 2.114 . S
Mg308 O318 2.251 . S
Mg308 O321 2.010 . S
O309 Mg308 2.028 . S
O309 C312 1.250 . S
O310 Mg311 2.028 . S
O310 C312 1.248 . S
Mg311 O310 2.028 . S
Mg311 O316 2.032 . S
Mg311 O318 2.079 . S
C312 O309 1.250 . S
C312 O310 1.248 . S
C313 O314 1.264 . S
C313 O321 1.249 . S
O314 C313 1.264 . S
O315 Mg308 1.986 . S
O315 C319 1.246 . S
O316 Mg311 2.032 . S
O316 C319 1.259 . S
O317 Mg308 2.114 . S
O317 C320 1.252 . S
O318 Mg308 2.251 . S
O318 Mg311 2.079 . S
O318 C320 1.273 . S
C319 O315 1.246 . S
C319 O316 1.259 . S
C320 O317 1.252 . S
C320 O318 1.273 . S
O321 Mg308 2.010 . S
O321 C313 1.249 . S
Mg322 O323 2.028 . S
Mg322 O329 1.986 . S
Mg322 O331 2.114 . S
Mg322 O332 2.251 . S
Mg322 O335 2.010 . S
O323 Mg322 2.028 . S
O323 C326 1.250 . S
O324 Mg325 2.028 . S
O324 C326 1.248 . S
Mg325 O324 2.028 . S
Mg325 O330 2.032 . S
Mg325 O332 2.079 . S
C326 O323 1.250 . S
C326 O324 1.248 . S
C327 O328 1.264 . S
C327 O335 1.249 . S
O328 C327 1.264 . S
O329 Mg322 1.986 . S
O329 C333 1.246 . S
O330 Mg325 2.032 . S
O330 C333 1.259 . S
O331 Mg322 2.114 . S
O331 C334 1.252 . S
O332 Mg322 2.251 . S
O332 Mg325 2.079 . S
O332 C334 1.273 . S
C333 O329 1.246 . S
C333 O330 1.259 . S
C334 O331 1.252 . S
C334 O332 1.273 . S
O335 Mg322 2.010 . S
O335 C327 1.249 . S
Tb336 C346 2.815 1_454 S
Tb336 O347 2.383 . S
Tb336 O350 2.355 1_554 S
Tb336 O355 2.383 1_554 S
Tb336 O356 2.398 1_545 S
Tb336 O359 2.453 1_454 S
Tb336 O360 2.480 1_455 S
Eu337 O348 2.418 . S
Eu337 O349 2.384 . S
Eu337 O352 2.479 . S
Eu337 O353 2.471 . S
Eu337 O354 2.383 . S
Eu337 O357 2.366 . S
Eu337 C367 2.825 . S
C338 O354 1.220 1_556 S
C338 O355 1.265 . S
C339 O356 1.255 . S
C339 O357 1.265 1_565 S
C340 C342 1.380 . S
C340 C343 1.374 . S
C340 C346 1.507 . S
C341 C342 1.384 . S
C341 C345 1.387 . S
C341 H368 0.930 . S
C342 C340 1.380 . S
C342 C341 1.384 . S
C342 H369 0.931 . S
C343 C340 1.374 . S
C343 C344 1.390 . S
C343 H370 0.930 1_556 S
C344 C343 1.390 . S
C344 C345 1.391 . S
C344 H371 0.930 . S
C345 C341 1.387 . S
C345 C344 1.391 . S
C346 Tb336 2.815 1_656 S
C346 C340 1.507 . S
C346 O359 1.238 . S
C346 O360 1.247 1_556 S
O347 Tb336 2.383 . S
O347 C351 1.259 . S
O348 Eu337 2.418 . S
O348 C351 1.265 . S
O349 Eu337 2.384 . S
O349 C358 1.255 . S
O350 Tb336 2.355 1_556 S
O350 C358 1.253 1_556 S
C351 O347 1.259 . S
C351 O348 1.265 . S
O352 Eu337 2.479 . S
O352 C367 1.238 . S
O353 Eu337 2.471 . S
O353 C367 1.247 . S
O354 Eu337 2.383 . S
O354 C338 1.220 1_554 S
O355 Tb336 2.383 1_556 S
O355 C338 1.265 . S
O356 Tb336 2.398 1_565 S
O356 C339 1.255 . S
O357 Eu337 2.366 . S
O357 C339 1.265 1_545 S
C358 O349 1.255 . S
C358 O350 1.253 1_554 S
O359 Tb336 2.453 1_656 S
O359 C346 1.238 . S
O360 Tb336 2.480 1_655 S
O360 C346 1.247 1_554 S
C361 C364 1.380 . S
C361 C365 1.374 . S
C361 C367 1.507 . S
C362 C363 1.387 . S
C362 C366 1.391 . S
C363 C362 1.387 . S
C363 C364 1.384 . S
C363 H372 0.930 . S
C364 C361 1.380 . S
C364 C363 1.384 . S
C364 H373 0.931 . S
C365 C361 1.374 . S
C365 C366 1.390 . S
C365 H374 0.930 . S
C366 C362 1.391 . S
C366 C365 1.390 . S
C366 H375 0.930 1_545 S
C367 Eu337 2.825 . S
C367 O352 1.238 . S
C367 O353 1.247 . S
C367 C361 1.507 . S
H368 C341 0.930 . S
H369 C342 0.931 . S
H370 C343 0.930 1_554 S
H371 C344 0.930 . S
H372 C363 0.930 . S
H373 C364 0.931 . S
H374 C365 0.930 . S
H375 C366 0.930 1_565 S
Tb376 C386 2.825 . S
Tb376 O387 2.347 . S
Tb376 O390 2.366 . S
Tb376 O395 2.418 . S
Tb376 O396 2.384 . S
Tb376 O399 2.479 . S
Tb376 O400 2.471 . S
Eu377 O388 2.418 . S
Eu377 O389 2.384 . S
Eu377 O392 2.479 . S
Eu377 O393 2.471 . S
Eu377 O394 2.347 . S
Eu377 O397 2.366 . S
Eu377 C407 2.825 . S
C378 O394 1.259 . S
C378 O395 1.265 . S
C379 O396 1.255 . S
C379 O397 1.265 . S
C380 C382 1.380 . S
C380 C383 1.374 . S
C380 C386 1.507 . S
C381 C382 1.384 . S
C381 C385 1.387 . S
C381 H408 0.930 . S
C382 C380 1.380 . S
C382 C381 1.384 . S
C382 H409 0.931 . S
C383 C380 1.374 . S
C383 C384 1.390 . S
C383 H410 0.930 . S
C384 C383 1.390 . S
C384 C385 1.391 . S
C384 H411 0.930 . S
C385 C381 1.387 . S
C385 C384 1.391 . S
C386 Tb376 2.825 . S
C386 C380 1.507 . S
C386 O399 1.238 . S
C386 O400 1.247 . S
O387 Tb376 2.347 . S
O387 C391 1.259 . S
O388 Eu377 2.418 . S
O388 C391 1.265 . S
O389 Eu377 2.384 . S
O389 C398 1.255 . S
O390 Tb376 2.366 . S
O390 C398 1.265 . S
C391 O387 1.259 . S
C391 O388 1.265 . S
O392 Eu377 2.479 . S
O392 C407 1.238 . S
O393 Eu377 2.471 . S
O393 C407 1.247 . S
O394 Eu377 2.347 . S
O394 C378 1.259 . S
O395 Tb376 2.418 . S
O395 C378 1.265 . S
O396 Tb376 2.384 . S
O396 C379 1.255 . S
O397 Eu377 2.366 . S
O397 C379 1.265 . S
C398 O389 1.255 . S
C398 O390 1.265 . S
O399 Tb376 2.479 . S
O399 C386 1.238 . S
O400 Tb376 2.471 . S
O400 C386 1.247 . S
C401 C404 1.380 . S
C401 C405 1.374 . S
C401 C407 1.507 . S
C402 C403 1.387 . S
C402 C406 1.391 . S
C403 C402 1.387 . S
C403 C404 1.384 . S
C403 H412 0.930 . S
C404 C401 1.380 . S
C404 C403 1.384 . S
C404 H413 0.931 . S
C405 C401 1.374 . S
C405 C406 1.390 . S
C405 H414 0.930 . S
C406 C402 1.391 . S
C406 C405 1.390 . S
C406 H415 0.930 . S
C407 Eu377 2.825 . S
C407 O392 1.238 . S
C407 O393 1.247 . S
C407 C401 1.507 . S
H408 C381 0.930 . S
H409 C382 0.931 . S
H410 C383 0.930 . S
H411 C384 0.930 . S
H412 C403 0.930 . S
H413 C404 0.931 . S
H414 C405 0.930 . S
H415 C406 0.930 . S
Tb416 C426 2.825 1_545 S
Tb416 O427 2.347 . S
Tb416 O430 2.366 . S
Tb416 O435 2.418 . S
Tb416 O436 2.384 . S
Tb416 O439 2.479 1_545 S
Tb416 O440 2.471 1_545 S
Eu417 O428 2.418 . S
Eu417 O429 2.384 . S
Eu417 O432 2.479 . S
Eu417 O433 2.471 . S
Eu417 O434 2.347 . S
Eu417 O437 2.366 . S
Eu417 C447 2.825 . S
C418 O434 1.259 . S
C418 O435 1.265 . S
C419 O436 1.255 . S
C419 O437 1.265 . S
C420 C422 1.380 . S
C420 C423 1.374 . S
C420 C426 1.507 . S
C421 C422 1.384 . S
C421 C425 1.387 . S
C421 H448 0.930 . S
C422 C420 1.380 . S
C422 C421 1.384 . S
C422 H449 0.931 . S
C423 C420 1.374 . S
C423 C424 1.390 . S
C423 H450 0.930 . S
C424 C423 1.390 . S
C424 C425 1.391 . S
C424 H451 0.930 . S
C425 C421 1.387 . S
C425 C424 1.391 . S
C426 Tb416 2.825 1_565 S
C426 C420 1.507 . S
C426 O439 1.238 . S
C426 O440 1.247 . S
O427 Tb416 2.347 . S
O427 C431 1.259 . S
O428 Eu417 2.418 . S
O428 C431 1.265 . S
O429 Eu417 2.384 . S
O429 C438 1.255 . S
O430 Tb416 2.366 . S
O430 C438 1.265 . S
C431 O427 1.259 . S
C431 O428 1.265 . S
O432 Eu417 2.479 . S
O432 C447 1.238 . S
O433 Eu417 2.471 . S
O433 C447 1.247 . S
O434 Eu417 2.347 . S
O434 C418 1.259 . S
O435 Tb416 2.418 . S
O435 C418 1.265 . S
O436 Tb416 2.384 . S
O436 C419 1.255 . S
O437 Eu417 2.366 . S
O437 C419 1.265 . S
C438 O429 1.255 . S
C438 O430 1.265 . S
O439 Tb416 2.479 1_565 S
O439 C426 1.238 . S
O440 Tb416 2.471 1_565 S
O440 C426 1.247 . S
C441 C444 1.380 . S
C441 C445 1.374 . S
C441 C447 1.507 . S
C442 C443 1.387 . S
C442 C446 1.391 . S
C443 C442 1.387 . S
C443 C444 1.384 . S
C443 H452 0.930 . S
C444 C441 1.380 . S
C444 C443 1.384 . S
C444 H453 0.931 . S
C445 C441 1.374 . S
C445 C446 1.390 . S
C445 H454 0.930 . S
C446 C442 1.391 . S
C446 C445 1.390 . S
C446 H455 0.930 . S
C447 Eu417 2.825 . S
C447 O432 1.238 . S
C447 O433 1.247 . S
C447 C441 1.507 . S
H448 C421 0.930 . S
H449 C422 0.931 . S
H450 C423 0.930 . S
H451 C424 0.930 . S
H452 C443 0.930 . S
H453 C444 0.931 . S
H454 C445 0.930 . S
H455 C446 0.930 . S
Tb456 C466 2.825 . S
Tb456 O467 2.347 . S
Tb456 O470 2.366 . S
Tb456 O475 2.418 . S
Tb456 O476 2.384 . S
Tb456 O479 2.479 . S
Tb456 O480 2.471 . S
Eu457 O468 2.418 . S
Eu457 O469 2.384 . S
Eu457 O472 2.479 . S
Eu457 O473 2.471 . S
Eu457 O474 2.347 . S
Eu457 O477 2.366 . S
Eu457 C487 2.825 . S
C458 O474 1.259 . S
C458 O475 1.265 . S
C459 O476 1.255 . S
C459 O477 1.265 . S
C460 C462 1.380 . S
C460 C463 1.374 . S
C460 C466 1.507 . S
C461 C462 1.384 . S
C461 C465 1.387 . S
C461 H488 0.930 . S
C462 C460 1.380 . S
C462 C461 1.384 . S
C462 H489 0.931 . S
C463 C460 1.374 . S
C463 C464 1.390 . S
C463 H490 0.930 . S
C464 C463 1.390 . S
C464 C465 1.391 . S
C464 H491 0.930 . S
C465 C461 1.387 . S
C465 C464 1.391 . S
C466 Tb456 2.825 . S
C466 C460 1.507 . S
C466 O479 1.238 . S
C466 O480 1.247 . S
O467 Tb456 2.347 . S
O467 C471 1.259 . S
O468 Eu457 2.418 . S
O468 C471 1.265 . S
O469 Eu457 2.384 . S
O469 C478 1.255 . S
O470 Tb456 2.366 . S
O470 C478 1.265 . S
C471 O467 1.259 . S
C471 O468 1.265 . S
O472 Eu457 2.479 . S
O472 C487 1.238 . S
O473 Eu457 2.471 . S
O473 C487 1.247 . S
O474 Eu457 2.347 . S
O474 C458 1.259 . S
O475 Tb456 2.418 . S
O475 C458 1.265 . S
O476 Tb456 2.384 . S
O476 C459 1.255 . S
O477 Eu457 2.366 . S
O477 C459 1.265 . S
C478 O469 1.255 . S
C478 O470 1.265 . S
O479 Tb456 2.479 . S
O479 C466 1.238 . S
O480 Tb456 2.471 . S
O480 C466 1.247 . S
C481 C484 1.380 . S
C481 C485 1.374 . S
C481 C487 1.507 . S
C482 C483 1.387 . S
C482 C486 1.391 . S
C483 C482 1.387 . S
C483 C484 1.384 . S
C483 H492 0.930 . S
C484 C481 1.380 . S
C484 C483 1.384 . S
C484 H493 0.931 . S
C485 C481 1.374 . S
C485 C486 1.390 . S
C485 H494 0.930 . S
C486 C482 1.391 . S
C486 C485 1.390 . S
C486 H495 0.930 . S
C487 Eu457 2.825 . S
C487 O472 1.238 . S
C487 O473 1.247 . S
C487 C481 1.507 . S
H488 C461 0.930 . S
H489 C462 0.931 . S
H490 C463 0.930 . S
H491 C464 0.930 . S
H492 C483 0.930 . S
H493 C484 0.931 . S
H494 C485 0.930 . S
H495 C486 0.930 . S
Tb496 C506 2.825 . S
Tb496 O507 2.347 . S
Tb496 O510 2.366 . S
Tb496 O515 2.418 . S
Tb496 O516 2.386 . S
Tb496 O519 2.479 . S
Tb496 O520 2.471 . S
Eu497 O508 2.418 . S
Eu497 O509 2.384 . S
Eu497 O512 2.479 . S
Eu497 O513 2.471 . S
Eu497 O514 2.347 . S
Eu497 O517 2.366 . S
Eu497 C527 2.825 . S
C498 O514 1.259 . S
C498 O515 1.265 . S
C499 O516 1.255 . S
C499 O517 1.265 . S
C500 C502 1.380 . S
C500 C503 1.374 1_455 S
C500 C506 1.507 . S
C501 C502 1.384 . S
C501 C505 1.387 1_455 S
C501 H528 0.930 . S
C502 C500 1.380 . S
C502 C501 1.384 . S
C502 H529 0.931 . S
C503 C500 1.374 1_655 S
C503 C504 1.390 . S
C503 H530 0.930 . S
C504 C503 1.390 . S
C504 C505 1.391 . S
C504 H531 0.930 . S
C505 C501 1.387 1_655 S
C505 C504 1.391 . S
C506 Tb496 2.825 . S
C506 C500 1.507 . S
C506 O519 1.238 . S
C506 O520 1.247 . S
O507 Tb496 2.347 . S
O507 C511 1.259 . S
O508 Eu497 2.418 . S
O508 C511 1.265 . S
O509 Eu497 2.384 . S
O509 C518 1.255 . S
O510 Tb496 2.366 . S
O510 C518 1.265 . S
C511 O507 1.259 . S
C511 O508 1.265 . S
O512 Eu497 2.479 . S
O512 C527 1.238 . S
O513 Eu497 2.471 . S
O513 C527 1.247 . S
O514 Eu497 2.347 . S
O514 C498 1.259 . S
O515 Tb496 2.418 . S
O515 C498 1.265 . S
O516 Tb496 2.386 . S
O516 C499 1.255 . S
O517 Eu497 2.366 . S
O517 C499 1.265 . S
C518 O509 1.255 . S
C518 O510 1.265 . S
O519 Tb496 2.479 . S
O519 C506 1.238 . S
O520 Tb496 2.471 . S
O520 C506 1.247 . S
C521 C524 1.380 . S
C521 C525 1.374 . S
C521 C527 1.507 . S
C522 C523 1.387 . S
C522 C526 1.391 . S
C523 C522 1.387 . S
C523 C524 1.384 . S
C523 H532 0.930 . S
C524 C521 1.380 . S
C524 C523 1.384 . S
C524 H533 0.931 . S
C525 C521 1.374 . S
C525 C526 1.390 . S
C525 H534 0.930 . S
C526 C522 1.391 . S
C526 C525 1.390 . S
C526 H535 0.930 . S
C527 Eu497 2.825 . S
C527 O512 1.238 . S
C527 O513 1.247 . S
C527 C521 1.507 . S
H528 C501 0.930 . S
H529 C502 0.931 . S
H530 C503 0.930 . S
H531 C504 0.930 . S
H532 C523 0.930 . S
H533 C524 0.931 . S
H534 C525 0.930 . S
H535 C526 0.930 . S
Tb536 C546 2.825 . S
Tb536 O547 2.347 . S
Tb536 O550 2.366 . S
Tb536 O555 2.418 . S
Tb536 O556 2.384 . S
Tb536 O559 2.479 . S
Tb536 O560 2.471 . S
Eu537 O548 2.418 . S
Eu537 O549 2.384 . S
Eu537 O552 2.479 . S
Eu537 O553 2.471 . S
Eu537 O554 2.347 . S
Eu537 O557 2.366 . S
Eu537 C567 2.825 . S
C538 O554 1.259 . S
C538 O555 1.265 . S
C539 O556 1.255 . S
C539 O557 1.265 . S
C540 C542 1.380 . S
C540 C543 1.374 . S
C540 C546 1.507 . S
C541 C542 1.384 . S
C541 C545 1.387 . S
C541 H568 0.930 . S
C542 C540 1.380 . S
C542 C541 1.384 . S
C542 H569 0.931 . S
C543 C540 1.374 . S
C543 C544 1.390 . S
C543 H570 0.930 . S
C544 C543 1.390 . S
C544 C545 1.391 . S
C544 H571 0.930 . S
C545 C541 1.387 . S
C545 C544 1.391 . S
C546 Tb536 2.825 . S
C546 C540 1.507 . S
C546 O559 1.238 . S
C546 O560 1.247 . S
O547 Tb536 2.347 . S
O547 C551 1.259 . S
O548 Eu537 2.418 . S
O548 C551 1.265 . S
O549 Eu537 2.384 . S
O549 C558 1.255 . S
O550 Tb536 2.366 . S
O550 C558 1.265 . S
C551 O547 1.259 . S
C551 O548 1.265 . S
O552 Eu537 2.479 . S
O552 C567 1.238 . S
O553 Eu537 2.471 . S
O553 C567 1.247 . S
O554 Eu537 2.347 . S
O554 C538 1.259 . S
O555 Tb536 2.418 . S
O555 C538 1.265 . S
O556 Tb536 2.384 . S
O556 C539 1.255 . S
O557 Eu537 2.366 . S
O557 C539 1.265 . S
C558 O549 1.255 . S
C558 O550 1.265 . S
O559 Tb536 2.479 . S
O559 C546 1.238 . S
O560 Tb536 2.471 . S
O560 C546 1.247 . S
C561 C564 1.380 . S
C561 C565 1.374 . S
C561 C567 1.507 . S
C562 C563 1.387 . S
C562 C566 1.391 . S
C563 C562 1.387 . S
C563 C564 1.384 . S
C563 H572 0.930 . S
C564 C561 1.380 . S
C564 C563 1.384 . S
C564 H573 0.931 . S
C565 C561 1.374 . S
C565 C566 1.390 . S
C565 H574 0.930 . S
C566 C562 1.391 . S
C566 C565 1.390 . S
C566 H575 0.930 . S
C567 Eu537 2.825 . S
C567 O552 1.238 . S
C567 O553 1.247 . S
C567 C561 1.507 . S
H568 C541 0.930 . S
H569 C542 0.931 . S
H570 C543 0.930 . S
H571 C544 0.930 . S
H572 C563 0.930 . S
H573 C564 0.931 . S
H574 C565 0.930 . S
H575 C566 0.930 . S
Tb576 C586 2.825 . S
Tb576 O587 2.347 . S
Tb576 O590 2.366 . S
Tb576 O595 2.418 1_545 S
Tb576 O596 2.384 . S
Tb576 O599 2.479 . S
Tb576 O600 2.471 . S
Eu577 O588 2.418 1_556 S
Eu577 O589 2.384 1_556 S
Eu577 O592 2.479 . S
Eu577 O593 2.471 . S
Eu577 O594 2.347 1_556 S
Eu577 O597 2.366 . S
Eu577 C607 2.825 . S
C578 O594 1.259 1_565 S
C578 O595 1.265 . S
C579 O596 1.255 . S
C579 O597 1.261 1_554 S
C580 C582 1.380 . S
C580 C583 1.374 . S
C580 C586 1.507 . S
C581 C582 1.389 . S
C581 C585 1.408 . S
C581 H608 0.905 1_545 S
C582 C580 1.380 . S
C582 C581 1.389 . S
C582 H609 0.931 1_545 S
C583 C580 1.374 . S
C583 C584 1.390 . S
C583 H610 0.930 . S
C584 C583 1.390 . S
C584 C585 1.391 . S
C584 H611 0.930 . S
C585 C581 1.408 . S
C585 C584 1.391 . S
C586 Tb576 2.825 . S
C586 C580 1.507 . S
C586 O599 1.238 . S
C586 O600 1.247 . S
O587 Tb576 2.347 . S
O587 C591 1.259 . S
O588 Eu577 2.418 1_554 S
O588 C591 1.265 . S
O589 Eu577 2.384 1_554 S
O589 C598 1.255 . S
O590 Tb576 2.366 . S
O590 C598 1.265 . S
C591 O587 1.259 . S
C591 O588 1.265 . S
O592 Eu577 2.479 . S
O592 C607 1.238 . S
O593 Eu577 2.471 . S
O593 C607 1.247 . S
O594 Eu577 2.347 1_554 S
O594 C578 1.259 1_545 S
O595 Tb576 2.418 1_565 S
O595 C578 1.265 . S
O596 Tb576 2.384 . S
O596 C579 1.255 . S
O597 Eu577 2.366 . S
O597 C579 1.261 1_556 S
C598 O589 1.255 . S
C598 O590 1.265 . S
O599 Tb576 2.479 . S
O599 C586 1.238 . S
O600 Tb576 2.471 . S
O600 C586 1.247 . S
C601 C604 1.380 . S
C601 C605 1.374 . S
C601 C607 1.507 . S
C602 C603 1.387 . S
C602 C606 1.391 . S
C603 C602 1.387 . S
C603 C604 1.384 . S
C603 H612 0.930 . S
C604 C601 1.380 . S
C604 C603 1.384 . S
C604 H613 0.931 . S
C605 C601 1.374 . S
C605 C606 1.390 . S
C605 H614 0.930 . S
C606 C602 1.391 . S
C606 C605 1.390 . S
C606 H615 0.930 . S
C607 Eu577 2.825 . S
C607 O592 1.238 . S
C607 O593 1.247 . S
C607 C601 1.507 . S
H608 C581 0.905 1_565 S
H609 C582 0.931 1_565 S
H610 C583 0.930 . S
H611 C584 0.930 . S
H612 C603 0.930 . S
H613 C604 0.931 . S
H614 C605 0.930 . S
H615 C606 0.930 . S
Tb616 C626 2.825 . S
Tb616 O627 2.347 . S
Tb616 O630 2.366 . S
Tb616 O635 2.418 . S
Tb616 O636 2.384 . S
Tb616 O639 2.479 . S
Tb616 O640 2.471 . S
Eu617 O628 2.418 . S
Eu617 O629 2.384 . S
Eu617 O632 2.479 . S
Eu617 O633 2.471 . S
Eu617 O634 2.347 . S
Eu617 O637 2.366 . S
Eu617 C647 2.825 . S
C618 O634 1.259 . S
C618 O635 1.265 . S
C619 O636 1.255 . S
C619 O637 1.265 . S
C620 C622 1.380 . S
C620 C623 1.374 . S
C620 C626 1.507 . S
C621 C622 1.384 . S
C621 C625 1.387 . S
C621 H648 0.930 . S
C622 C620 1.380 . S
C622 C621 1.384 . S
C622 H649 0.931 . S
C623 C620 1.374 . S
C623 C624 1.390 . S
C623 H650 0.930 . S
C624 C623 1.390 . S
C624 C625 1.391 . S
C624 H651 0.930 . S
C625 C621 1.387 . S
C625 C624 1.391 . S
C626 Tb616 2.825 . S
C626 C620 1.507 . S
C626 O639 1.238 . S
C626 O640 1.247 . S
O627 Tb616 2.347 . S
O627 C631 1.259 . S
O628 Eu617 2.418 . S
O628 C631 1.265 . S
O629 Eu617 2.384 . S
O629 C638 1.255 . S
O630 Tb616 2.366 . S
O630 C638 1.265 . S
C631 O627 1.259 . S
C631 O628 1.265 . S
O632 Eu617 2.479 . S
O632 C647 1.238 . S
O633 Eu617 2.471 . S
O633 C647 1.247 . S
O634 Eu617 2.347 . S
O634 C618 1.259 . S
O635 Tb616 2.418 . S
O635 C618 1.265 . S
O636 Tb616 2.384 . S
O636 C619 1.255 . S
O637 Eu617 2.366 . S
O637 C619 1.265 . S
C638 O629 1.255 . S
C638 O630 1.265 . S
O639 Tb616 2.479 . S
O639 C626 1.238 . S
O640 Tb616 2.471 . S
O640 C626 1.247 . S
C641 C644 1.380 . S
C641 C645 1.374 . S
C641 C647 1.507 . S
C642 C643 1.387 . S
C642 C646 1.391 . S
C643 C642 1.387 . S
C643 C644 1.384 . S
C643 H652 0.930 . S
C644 C641 1.380 . S
C644 C643 1.384 . S
C644 H653 0.931 . S
C645 C641 1.374 . S
C645 C646 1.390 . S
C645 H654 0.930 . S
C646 C642 1.391 . S
C646 C645 1.390 . S
C646 H655 0.930 . S
C647 Eu617 2.825 . S
C647 O632 1.238 . S
C647 O633 1.247 . S
C647 C641 1.507 . S
H648 C621 0.930 . S
H649 C622 0.931 . S
H650 C623 0.930 . S
H651 C624 0.930 . S
H652 C643 0.930 . S
H653 C644 0.931 . S
H654 C645 0.930 . S
H655 C646 0.930 . S
Tb656 C666 2.825 . S
Tb656 O667 2.347 1_556 S
Tb656 O670 2.366 . S
Tb656 O675 2.418 . S
Tb656 O676 2.384 1_556 S
Tb656 O679 2.479 . S
Tb656 O680 2.471 . S
Eu657 O668 2.418 . S
Eu657 O669 2.384 . S
Eu657 O672 2.479 . S
Eu657 O673 2.471 . S
Eu657 O674 2.347 . S
Eu657 O677 2.366 . S
Eu657 C687 2.825 . S
C658 O674 1.259 . S
C658 O675 1.265 1_554 S
C659 O676 1.255 . S
C659 O677 1.265 . S
C660 C662 1.380 . S
C660 C663 1.374 . S
C660 C666 1.507 . S
C661 C662 1.384 . S
C661 C665 1.387 . S
C661 H688 0.930 . S
C662 C660 1.380 . S
C662 C661 1.384 . S
C662 H689 0.931 . S
C663 C660 1.374 . S
C663 C664 1.390 . S
C663 H690 0.930 . S
C664 C663 1.390 . S
C664 C665 1.391 . S
C664 H691 0.930 . S
C665 C661 1.387 . S
C665 C664 1.391 . S
C666 Tb656 2.825 . S
C666 C660 1.507 . S
C666 O679 1.238 . S
C666 O680 1.247 . S
O667 Tb656 2.347 1_554 S
O667 C671 1.259 . S
O668 Eu657 2.418 . S
O668 C671 1.265 . S
O669 Eu657 2.384 . S
O669 C678 1.255 . S
O670 Tb656 2.366 . S
O670 C678 1.265 1_556 S
C671 O667 1.259 . S
C671 O668 1.265 . S
O672 Eu657 2.479 . S
O672 C687 1.238 . S
O673 Eu657 2.471 . S
O673 C687 1.247 . S
O674 Eu657 2.347 . S
O674 C658 1.259 . S
O675 Tb656 2.418 . S
O675 C658 1.265 1_556 S
O676 Tb656 2.384 1_554 S
O676 C659 1.255 . S
O677 Eu657 2.366 . S
O677 C659 1.265 . S
C678 O669 1.255 . S
C678 O670 1.265 1_554 S
O679 Tb656 2.479 . S
O679 C666 1.238 . S
O680 Tb656 2.471 . S
O680 C666 1.247 . S
C681 C684 1.380 . S
C681 C685 1.374 . S
C681 C687 1.507 . S
C682 C683 1.387 . S
C682 C686 1.391 . S
C683 C682 1.387 . S
C683 C684 1.384 . S
C683 H692 0.930 . S
C684 C681 1.380 . S
C684 C683 1.384 . S
C684 H693 0.931 . S
C685 C681 1.374 . S
C685 C686 1.390 . S
C685 H694 0.930 . S
C686 C682 1.391 . S
C686 C685 1.390 . S
C686 H695 0.930 . S
C687 Eu657 2.825 . S
C687 O672 1.238 . S
C687 O673 1.247 . S
C687 C681 1.507 . S
H688 C661 0.930 . S
H689 C662 0.931 . S
H690 C663 0.930 . S
H691 C664 0.930 . S
H692 C683 0.930 . S
H693 C684 0.931 . S
H694 C685 0.930 . S
H695 C686 0.930 . S
Tb696 C706 2.825 . S
Tb696 O707 2.347 . S
Tb696 O710 2.366 . S
Tb696 O715 2.418 . S
Tb696 O716 2.384 . S
Tb696 O719 2.479 . S
Tb696 O720 2.471 . S
Eu697 O708 2.418 . S
Eu697 O709 2.384 . S
Eu697 O712 2.479 . S
Eu697 O713 2.471 . S
Eu697 O714 2.347 . S
Eu697 O717 2.366 . S
Eu697 C727 2.825 . S
C698 O714 1.259 . S
C698 O715 1.265 . S
C699 O716 1.255 . S
C699 O717 1.265 . S
C700 C702 1.380 . S
C700 C703 1.374 . S
C700 C706 1.507 . S
C701 C702 1.384 . S
C701 C705 1.387 . S
C701 H728 0.930 . S
C702 C700 1.380 . S
C702 C701 1.384 . S
C702 H729 0.931 . S
C703 C700 1.374 . S
C703 C704 1.390 . S
C703 H730 0.930 . S
C704 C703 1.390 . S
C704 C705 1.391 . S
C704 H731 0.930 . S
C705 C701 1.387 . S
C705 C704 1.391 . S
C706 Tb696 2.825 . S
C706 C700 1.507 . S
C706 O719 1.238 . S
C706 O720 1.247 . S
O707 Tb696 2.347 . S
O707 C711 1.259 . S
O708 Eu697 2.418 . S
O708 C711 1.265 . S
O709 Eu697 2.384 . S
O709 C718 1.255 . S
O710 Tb696 2.366 . S
O710 C718 1.265 . S
C711 O707 1.259 . S
C711 O708 1.265 . S
O712 Eu697 2.479 . S
O712 C727 1.238 . S
O713 Eu697 2.471 . S
O713 C727 1.247 . S
O714 Eu697 2.347 . S
O714 C698 1.259 . S
O715 Tb696 2.418 . S
O715 C698 1.265 . S
O716 Tb696 2.384 . S
O716 C699 1.255 . S
O717 Eu697 2.366 . S
O717 C699 1.265 . S
C718 O709 1.255 . S
C718 O710 1.265 . S
O719 Tb696 2.479 . S
O719 C706 1.238 . S
O720 Tb696 2.471 . S
O720 C706 1.247 . S
C721 C724 1.380 . S
C721 C725 1.374 . S
C721 C727 1.507 . S
C722 C723 1.387 . S
C722 C726 1.391 . S
C723 C722 1.387 . S
C723 C724 1.384 . S
C723 H732 0.930 . S
C724 C721 1.380 . S
C724 C723 1.384 . S
C724 H733 0.931 . S
C725 C721 1.374 . S
C725 C726 1.390 . S
C725 H734 0.930 . S
C726 C722 1.391 . S
C726 C725 1.390 . S
C726 H735 0.930 . S
C727 Eu697 2.825 . S
C727 O712 1.238 . S
C727 O713 1.247 . S
C727 C721 1.507 . S
H728 C701 0.930 . S
H729 C702 0.931 . S
H730 C703 0.930 . S
H731 C704 0.930 . S
H732 C723 0.930 . S
H733 C724 0.931 . S
H734 C725 0.930 . S
H735 C726 0.930 . S
Tb736 C746 2.825 . S
Tb736 O747 2.347 . S
Tb736 O750 2.366 . S
Tb736 O755 2.418 . S
Tb736 O756 2.384 . S
Tb736 O759 2.479 . S
Tb736 O760 2.471 . S
Eu737 O748 2.418 . S
Eu737 O749 2.384 . S
Eu737 O752 2.479 . S
Eu737 O753 2.471 . S
Eu737 O754 2.347 . S
Eu737 O757 2.366 . S
Eu737 C767 2.825 . S
C738 O754 1.259 . S
C738 O755 1.265 . S
C739 O756 1.255 . S
C739 O757 1.265 . S
C740 C742 1.380 . S
C740 C743 1.374 . S
C740 C746 1.507 . S
C741 C742 1.384 . S
C741 C745 1.387 . S
C741 H768 0.930 . S
C742 C740 1.380 . S
C742 C741 1.384 . S
C742 H769 0.931 . S
C743 C740 1.374 . S
C743 C744 1.390 . S
C743 H770 0.930 . S
C744 C743 1.390 . S
C744 C745 1.391 . S
C744 H771 0.930 . S
C745 C741 1.387 . S
C745 C744 1.391 . S
C746 Tb736 2.825 . S
C746 C740 1.507 . S
C746 O759 1.238 . S
C746 O760 1.247 . S
O747 Tb736 2.347 . S
O747 C751 1.259 . S
O748 Eu737 2.418 . S
O748 C751 1.265 . S
O749 Eu737 2.384 . S
O749 C758 1.255 . S
O750 Tb736 2.366 . S
O750 C758 1.265 . S
C751 O747 1.259 . S
C751 O748 1.265 . S
O752 Eu737 2.479 . S
O752 C767 1.238 . S
O753 Eu737 2.471 . S
O753 C767 1.247 . S
O754 Eu737 2.347 . S
O754 C738 1.259 . S
O755 Tb736 2.418 . S
O755 C738 1.265 . S
O756 Tb736 2.384 . S
O756 C739 1.255 . S
O757 Eu737 2.366 . S
O757 C739 1.265 . S
C758 O749 1.255 . S
C758 O750 1.265 . S
O759 Tb736 2.479 . S
O759 C746 1.238 . S
O760 Tb736 2.471 . S
O760 C746 1.247 . S
C761 C764 1.380 . S
C761 C765 1.374 . S
C761 C767 1.507 . S
C762 C763 1.387 . S
C762 C766 1.391 . S
C763 C762 1.387 . S
C763 C764 1.384 . S
C763 H772 0.930 . S
C764 C761 1.380 . S
C764 C763 1.384 . S
C764 H773 0.931 . S
C765 C761 1.374 . S
C765 C766 1.390 . S
C765 H774 0.930 . S
C766 C762 1.391 . S
C766 C765 1.390 . S
C766 H775 0.930 . S
C767 Eu737 2.825 . S
C767 O752 1.238 . S
C767 O753 1.247 . S
C767 C761 1.507 . S
H768 C741 0.930 . S
H769 C742 0.931 . S
H770 C743 0.930 . S
H771 C744 0.930 . S
H772 C763 0.930 . S
H773 C764 0.931 . S
H774 C765 0.930 . S
H775 C766 0.930 . S
Tb776 C786 2.825 . S
Tb776 O787 2.347 . S
Tb776 O790 2.366 . S
Tb776 O795 2.418 . S
Tb776 O796 2.384 . S
Tb776 O799 2.479 . S
Tb776 O800 2.471 . S
Eu777 O788 2.418 . S
Eu777 O789 2.384 . S
Eu777 O792 2.479 . S
Eu777 O793 2.471 . S
Eu777 O794 2.347 . S
Eu777 O797 2.366 . S
Eu777 C807 2.825 . S
C778 O794 1.259 . S
C778 O795 1.265 . S
C779 O796 1.255 . S
C779 O797 1.265 . S
C780 C782 1.380 . S
C780 C783 1.374 . S
C780 C786 1.507 . S
C781 C782 1.384 . S
C781 C785 1.387 . S
C781 H808 0.930 . S
C782 C780 1.380 . S
C782 C781 1.384 . S
C782 H809 0.931 . S
C783 C780 1.374 . S
C783 C784 1.390 . S
C783 H810 0.930 . S
C784 C783 1.390 . S
C784 C785 1.391 . S
C784 H811 0.930 . S
C785 C781 1.387 . S
C785 C784 1.391 . S
C786 Tb776 2.825 . S
C786 C780 1.507 . S
C786 O799 1.238 . S
C786 O800 1.247 . S
O787 Tb776 2.347 . S
O787 C791 1.259 . S
O788 Eu777 2.418 . S
O788 C791 1.265 . S
O789 Eu777 2.384 . S
O789 C798 1.255 . S
O790 Tb776 2.366 . S
O790 C798 1.265 . S
C791 O787 1.259 . S
C791 O788 1.265 . S
O792 Eu777 2.479 . S
O792 C807 1.238 . S
O793 Eu777 2.471 . S
O793 C807 1.247 . S
O794 Eu777 2.347 . S
O794 C778 1.259 . S
O795 Tb776 2.418 . S
O795 C778 1.265 . S
O796 Tb776 2.384 . S
O796 C779 1.255 . S
O797 Eu777 2.366 . S
O797 C779 1.265 . S
C798 O789 1.255 . S
C798 O790 1.265 . S
O799 Tb776 2.479 . S
O799 C786 1.238 . S
O800 Tb776 2.471 . S
O800 C786 1.247 . S
C801 C804 1.380 . S
C801 C805 1.374 . S
C801 C807 1.507 . S
C802 C803 1.387 . S
C802 C806 1.391 . S
C803 C802 1.387 . S
C803 C804 1.384 . S
C803 H812 0.930 . S
C804 C801 1.380 . S
C804 C803 1.384 . S
C804 H813 0.931 . S
C805 C801 1.374 . S
C805 C806 1.390 . S
C805 H814 0.930 . S
C806 C802 1.391 . S
C806 C805 1.390 . S
C806 H815 0.930 . S
C807 Eu777 2.825 . S
C807 O792 1.238 . S
C807 O793 1.247 . S
C807 C801 1.507 . S
H808 C781 0.930 . S
H809 C782 0.931 . S
H810 C783 0.930 . S
H811 C784 0.930 . S
H812 C803 0.930 . S
H813 C804 0.931 . S
H814 C805 0.930 . S
H815 C806 0.930 . S
Tb816 C826 2.825 . S
Tb816 O827 2.347 . S
Tb816 O830 2.366 . S
Tb816 O835 2.418 . S
Tb816 O836 2.384 . S
Tb816 O839 2.479 . S
Tb816 O840 2.471 . S
Eu817 O828 2.418 . S
Eu817 O829 2.384 . S
Eu817 O832 2.479 . S
Eu817 O833 2.471 . S
Eu817 O834 2.347 . S
Eu817 O837 2.366 . S
Eu817 C847 2.825 . S
C818 O834 1.259 . S
C818 O835 1.265 . S
C819 O836 1.255 . S
C819 O837 1.265 . S
C820 C822 1.380 . S
C820 C823 1.374 . S
C820 C826 1.507 . S
C821 C822 1.384 . S
C821 C825 1.387 . S
C821 H848 0.930 . S
C822 C820 1.380 . S
C822 C821 1.384 . S
C822 H849 0.931 . S
C823 C820 1.374 . S
C823 C824 1.390 . S
C823 H850 0.930 . S
C824 C823 1.390 . S
C824 C825 1.391 . S
C824 H851 0.930 . S
C825 C821 1.387 . S
C825 C824 1.391 . S
C826 Tb816 2.825 . S
C826 C820 1.507 . S
C826 O839 1.238 . S
C826 O840 1.247 . S
O827 Tb816 2.347 . S
O827 C831 1.259 . S
O828 Eu817 2.418 . S
O828 C831 1.265 . S
O829 Eu817 2.384 . S
O829 C838 1.255 . S
O830 Tb816 2.366 . S
O830 C838 1.265 . S
C831 O827 1.259 . S
C831 O828 1.265 . S
O832 Eu817 2.479 . S
O832 C847 1.238 . S
O833 Eu817 2.471 . S
O833 C847 1.247 . S
O834 Eu817 2.347 . S
O834 C818 1.259 . S
O835 Tb816 2.418 . S
O835 C818 1.265 . S
O836 Tb816 2.384 . S
O836 C819 1.255 . S
O837 Eu817 2.366 . S
O837 C819 1.265 . S
C838 O829 1.255 . S
C838 O830 1.265 . S
O839 Tb816 2.479 . S
O839 C826 1.238 . S
O840 Tb816 2.471 . S
O840 C826 1.247 . S
C841 C844 1.380 . S
C841 C845 1.374 . S
C841 C847 1.507 . S
C842 C843 1.387 . S
C842 C846 1.391 . S
C843 C842 1.387 . S
C843 C844 1.384 . S
C843 H852 0.930 . S
C844 C841 1.380 . S
C844 C843 1.384 . S
C844 H853 0.931 . S
C845 C841 1.374 . S
C845 C846 1.390 . S
C845 H854 0.930 . S
C846 C842 1.391 . S
C846 C845 1.390 . S
C846 H855 0.930 . S
C847 Eu817 2.825 . S
C847 O832 1.238 . S
C847 O833 1.247 . S
C847 C841 1.507 . S
H848 C821 0.930 . S
H849 C822 0.931 . S
H850 C823 0.930 . S
H851 C824 0.930 . S
H852 C843 0.930 . S
H853 C844 0.931 . S
H854 C845 0.930 . S
H855 C846 0.930 . S
Tb856 C866 2.825 . S
Tb856 O867 2.347 . S
Tb856 O870 2.366 . S
Tb856 O875 2.418 . S
Tb856 O876 2.384 . S
Tb856 O879 2.479 . S
Tb856 O880 2.471 . S
Eu857 O868 2.418 . S
Eu857 O869 2.384 . S
Eu857 O872 2.479 . S
Eu857 O873 2.471 . S
Eu857 O874 2.347 . S
Eu857 O877 2.366 . S
Eu857 C887 2.825 . S
C858 O874 1.259 . S
C858 O875 1.265 . S
C859 O876 1.255 . S
C859 O877 1.265 . S
C860 C862 1.380 . S
C860 C863 1.374 . S
C860 C866 1.507 . S
C861 C862 1.384 . S
C861 C865 1.387 . S
C861 H888 0.930 . S
C862 C860 1.380 . S
C862 C861 1.384 . S
C862 H889 0.931 . S
C863 C860 1.374 . S
C863 C864 1.390 . S
C863 H890 0.930 . S
C864 C863 1.390 . S
C864 C865 1.391 . S
C864 H891 0.930 . S
C865 C861 1.387 . S
C865 C864 1.391 . S
C866 Tb856 2.825 . S
C866 C860 1.507 . S
C866 O879 1.238 . S
C866 O880 1.247 . S
O867 Tb856 2.347 . S
O867 C871 1.259 . S
O868 Eu857 2.418 . S
O868 C871 1.265 . S
O869 Eu857 2.384 . S
O869 C878 1.255 . S
O870 Tb856 2.366 . S
O870 C878 1.265 . S
C871 O867 1.259 . S
C871 O868 1.265 . S
O872 Eu857 2.479 . S
O872 C887 1.238 . S
O873 Eu857 2.471 . S
O873 C887 1.247 . S
O874 Eu857 2.347 . S
O874 C858 1.259 . S
O875 Tb856 2.418 . S
O875 C858 1.265 . S
O876 Tb856 2.384 . S
O876 C859 1.255 . S
O877 Eu857 2.366 . S
O877 C859 1.265 . S
C878 O869 1.255 . S
C878 O870 1.265 . S
O879 Tb856 2.479 . S
O879 C866 1.238 . S
O880 Tb856 2.471 . S
O880 C866 1.247 . S
C881 C884 1.380 . S
C881 C885 1.374 . S
C881 C887 1.507 . S
C882 C883 1.387 . S
C882 C886 1.391 . S
C883 C882 1.387 . S
C883 C884 1.384 . S
C883 H892 0.930 . S
C884 C881 1.380 . S
C884 C883 1.384 . S
C884 H893 0.931 . S
C885 C881 1.374 . S
C885 C886 1.390 . S
C885 H894 0.930 . S
C886 C882 1.391 . S
C886 C885 1.390 . S
C886 H895 0.930 . S
C887 Eu857 2.825 . S
C887 O872 1.238 . S
C887 O873 1.247 . S
C887 C881 1.507 . S
H888 C861 0.930 . S
H889 C862 0.931 . S
H890 C863 0.930 . S
H891 C864 0.930 . S
H892 C883 0.930 . S
H893 C884 0.931 . S
H894 C885 0.930 . S
H895 C886 0.930 . S
Tb896 C906 2.825 . S
Tb896 O907 2.347 . S
Tb896 O910 2.366 . S
Tb896 O915 2.418 . S
Tb896 O916 2.384 . S
Tb896 O919 2.479 . S
Tb896 O920 2.471 . S
Eu897 O908 2.418 . S
Eu897 O909 2.384 . S
Eu897 O912 2.479 . S
Eu897 O913 2.471 . S
Eu897 O914 2.347 . S
Eu897 O917 2.366 . S
Eu897 C927 2.825 . S
C898 O914 1.259 . S
C898 O915 1.265 . S
C899 O916 1.255 . S
C899 O917 1.265 . S
C900 C902 1.380 . S
C900 C903 1.374 . S
C900 C906 1.507 . S
C901 C902 1.384 . S
C901 C905 1.387 . S
C901 H928 0.930 . S
C902 C900 1.380 . S
C902 C901 1.384 . S
C902 H929 0.931 . S
C903 C900 1.374 . S
C903 C904 1.390 . S
C903 H930 0.930 . S
C904 C903 1.390 . S
C904 C905 1.391 . S
C904 H931 0.930 . S
C905 C901 1.387 . S
C905 C904 1.391 . S
C906 Tb896 2.825 . S
C906 C900 1.507 . S
C906 O919 1.238 . S
C906 O920 1.247 . S
O907 Tb896 2.347 . S
O907 C911 1.259 . S
O908 Eu897 2.418 . S
O908 C911 1.265 . S
O909 Eu897 2.384 . S
O909 C918 1.255 . S
O910 Tb896 2.366 . S
O910 C918 1.265 . S
C911 O907 1.259 . S
C911 O908 1.265 . S
O912 Eu897 2.479 . S
O912 C927 1.238 . S
O913 Eu897 2.471 . S
O913 C927 1.247 . S
O914 Eu897 2.347 . S
O914 C898 1.259 . S
O915 Tb896 2.418 . S
O915 C898 1.265 . S
O916 Tb896 2.384 . S
O916 C899 1.255 . S
O917 Eu897 2.366 . S
O917 C899 1.265 . S
C918 O909 1.255 . S
C918 O910 1.265 . S
O919 Tb896 2.479 . S
O919 C906 1.238 . S
O920 Tb896 2.471 . S
O920 C906 1.247 . S
C921 C924 1.380 . S
C921 C925 1.374 . S
C921 C927 1.507 . S
C922 C923 1.387 . S
C922 C926 1.391 . S
C923 C922 1.387 . S
C923 C924 1.384 . S
C923 H932 0.930 . S
C924 C921 1.380 . S
C924 C923 1.384 . S
C924 H933 0.931 . S
C925 C921 1.374 . S
C925 C926 1.390 . S
C925 H934 0.930 . S
C926 C922 1.391 . S
C926 C925 1.390 . S
C926 H935 0.930 . S
C927 Eu897 2.825 . S
C927 O912 1.238 . S
C927 O913 1.247 . S
C927 C921 1.507 . S
H928 C901 0.930 . S
H929 C902 0.931 . S
H930 C903 0.930 . S
H931 C904 0.930 . S
H932 C923 0.930 . S
H933 C924 0.931 . S
H934 C925 0.930 . S
H935 C926 0.930 . S
Tb936 C946 2.825 1_554 S
Tb936 O947 2.347 1_554 S
Tb936 O950 2.366 . S
Tb936 O955 2.418 . S
Tb936 O956 2.384 . S
Tb936 O959 2.479 . S
Tb936 O960 2.471 1_554 S
Eu937 O948 2.418 1_554 S
Eu937 O949 2.384 . S
Eu937 O952 2.479 . S
Eu937 O953 2.471 . S
Eu937 O954 2.347 . S
Eu937 O957 2.366 . S
Eu937 C967 2.825 . S
C938 O954 1.259 . S
C938 O955 1.265 . S
C939 O956 1.255 . S
C939 O957 1.265 . S
C940 C942 1.380 . S
C940 C943 1.374 . S
C940 C946 1.507 . S
C941 C942 1.384 . S
C941 C945 1.387 . S
C941 H968 0.930 . S
C942 C940 1.380 . S
C942 C941 1.384 . S
C942 H969 0.931 1_556 S
C943 C940 1.374 . S
C943 C944 1.390 . S
C943 H970 0.930 . S
C944 C943 1.390 . S
C944 C945 1.391 . S
C944 H971 0.930 . S
C945 C941 1.387 . S
C945 C944 1.391 . S
C946 Tb936 2.825 1_556 S
C946 C940 1.507 . S
C946 O959 1.238 1_556 S
C946 O960 1.247 . S
O947 Tb936 2.347 1_556 S
O947 C951 1.259 . S
O948 Eu937 2.418 1_556 S
O948 C951 1.265 . S
O949 Eu937 2.384 . S
O949 C958 1.255 . S
O950 Tb936 2.366 . S
O950 C958 1.265 . S
C951 O947 1.259 . S
C951 O948 1.265 . S
O952 Eu937 2.479 . S
O952 C967 1.238 . S
O953 Eu937 2.471 . S
O953 C967 1.247 . S
O954 Eu937 2.347 . S
O954 C938 1.259 . S
O955 Tb936 2.418 . S
O955 C938 1.265 . S
O956 Tb936 2.384 . S
O956 C939 1.255 . S
O957 Eu937 2.366 . S
O957 C939 1.265 . S
C958 O949 1.255 . S
C958 O950 1.265 . S
O959 Tb936 2.479 . S
O959 C946 1.238 1_554 S
O960 Tb936 2.471 1_556 S
O960 C946 1.247 . S
C961 C964 1.380 . S
C961 C965 1.374 . S
C961 C967 1.507 . S
C962 C963 1.387 . S
C962 C966 1.391 . S
C963 C962 1.387 . S
C963 C964 1.384 . S
C963 H972 0.930 . S
C964 C961 1.380 . S
C964 C963 1.384 . S
C964 H973 0.931 . S
C965 C961 1.374 . S
C965 C966 1.390 . S
C965 H974 0.930 . S
C966 C962 1.391 . S
C966 C965 1.390 . S
C966 H975 0.930 . S
C967 Eu937 2.825 . S
C967 O952 1.238 . S
C967 O953 1.247 . S
C967 C961 1.507 . S
H968 C941 0.930 . S
H969 C942 0.931 1_554 S
H970 C943 0.930 . S
H971 C944 0.930 . S
H972 C963 0.930 . S
H973 C964 0.931 . S
H974 C965 0.930 . S
H975 C966 0.930 . S
H976 C984 0.950 . S
H977 C989 0.950 . S
H978 C986 0.950 . S
H979 C988 0.950 . S
H980 C990 0.950 . S
H981 C992 0.949 . S
H982 C994 0.950 . S
H983 C995 0.950 . S
C984 H976 0.950 . S
C984 C985 1.398 . S
C984 C986 1.391 . S
C985 C984 1.398 . S
C985 C989 1.386 1_455 S
C986 H978 0.950 . S
C986 C984 1.391 . S
C986 C987 1.400 . S
C987 C986 1.400 . S
C987 C988 1.398 1_455 S
C987 C993 1.491 . S
C988 H979 0.950 . S
C988 C987 1.398 1_655 S
C988 C989 1.391 . S
C989 H977 0.950 . S
C989 C985 1.386 1_655 S
C989 C988 1.391 . S
C990 H980 0.950 . S
C990 C991 1.386 1_554 S
C990 C992 1.391 1_554 S
C991 C990 1.386 1_556 S
C991 C995 1.393 . S
C992 H981 0.949 . S
C992 C990 1.391 1_556 S
C992 C993 1.400 . S
C993 C987 1.491 . S
C993 C992 1.400 . S
C993 C994 1.398 . S
C994 H982 0.950 . S
C994 C993 1.398 . S
C994 C995 1.391 . S
C995 H983 0.950 . S
C995 C991 1.393 . S
C995 C994 1.391 . S
H996 C1004 0.950 . S
H997 C1009 0.950 . S
H998 C1006 0.950 . S
H999 C1008 0.950 . S
H1000 C1010 0.950 . S
H1001 C1012 0.950 . S
H1002 C1014 0.950 . S
H1003 C1015 0.950 . S
C1004 H996 0.950 . S
C1004 C1005 1.386 . S
C1004 C1006 1.391 . S
C1005 C1004 1.386 . S
C1005 C1009 1.393 . S
C1006 H998 0.950 . S
C1006 C1004 1.391 . S
C1006 C1007 1.400 . S
C1007 C1006 1.400 . S
C1007 C1008 1.398 . S
C1007 C1013 1.491 . S
C1008 H999 0.950 . S
C1008 C1007 1.398 . S
C1008 C1009 1.391 . S
C1009 H997 0.950 . S
C1009 C1005 1.393 . S
C1009 C1008 1.391 . S
C1010 H1000 0.950 . S
C1010 C1011 1.386 . S
C1010 C1012 1.391 . S
C1011 C1010 1.386 . S
C1011 C1015 1.393 . S
C1012 H1001 0.950 . S
C1012 C1010 1.391 . S
C1012 C1013 1.400 . S
C1013 C1007 1.491 . S
C1013 C1012 1.400 . S
C1013 C1014 1.398 . S
C1014 H1002 0.950 . S
C1014 C1013 1.398 . S
C1014 C1015 1.391 . S
C1015 H1003 0.950 . S
C1015 C1011 1.393 . S
C1015 C1014 1.391 . S
H1016 C1024 0.950 . S
H1017 C1029 0.950 . S
H1018 C1026 0.950 . S
H1019 C1028 0.950 . S
H1020 C1030 0.950 . S
H1021 C1032 0.950 . S
H1022 C1034 0.950 . S
H1023 C1035 0.950 . S
C1024 H1016 0.950 . S
C1024 C1025 1.386 . S
C1024 C1026 1.391 . S
C1025 C1024 1.386 . S
C1025 C1029 1.393 . S
C1026 H1018 0.950 . S
C1026 C1024 1.391 . S
C1026 C1027 1.400 . S
C1027 C1026 1.400 . S
C1027 C1028 1.398 . S
C1027 C1033 1.491 . S
C1028 H1019 0.950 . S
C1028 C1027 1.398 . S
C1028 C1029 1.391 . S
C1029 H1017 0.950 . S
C1029 C1025 1.393 . S
C1029 C1028 1.391 . S
C1030 H1020 0.950 . S
C1030 C1031 1.386 . S
C1030 C1032 1.391 . S
C1031 C1030 1.386 . S
C1031 C1035 1.393 . S
C1032 H1021 0.950 . S
C1032 C1030 1.391 . S
C1032 C1033 1.400 . S
C1033 C1027 1.491 . S
C1033 C1032 1.400 . S
C1033 C1034 1.398 . S
C1034 H1022 0.950 . S
C1034 C1033 1.398 . S
C1034 C1035 1.391 . S
C1035 H1023 0.950 . S
C1035 C1031 1.393 . S
C1035 C1034 1.391 . S
H1036 C1044 0.950 . S
H1037 C1049 0.950 . S
H1038 C1046 0.950 . S
H1039 C1048 0.950 . S
H1040 C1050 0.950 . S
H1041 C1052 0.950 . S
H1042 C1054 0.950 . S
H1043 C1055 0.950 . S
C1044 H1036 0.950 . S
C1044 C1045 1.386 . S
C1044 C1046 1.391 . S
C1045 C1044 1.386 . S
C1045 C1049 1.393 . S
C1046 H1038 0.950 . S
C1046 C1044 1.391 . S
C1046 C1047 1.400 . S
C1047 C1046 1.400 . S
C1047 C1048 1.398 . S
C1047 C1053 1.491 . S
C1048 H1039 0.950 . S
C1048 C1047 1.398 . S
C1048 C1049 1.391 . S
C1049 H1037 0.950 . S
C1049 C1045 1.393 . S
C1049 C1048 1.391 . S
C1050 H1040 0.950 . S
C1050 C1051 1.386 . S
C1050 C1052 1.391 . S
C1051 C1050 1.386 . S
C1051 C1055 1.393 . S
C1052 H1041 0.950 . S
C1052 C1050 1.391 . S
C1052 C1053 1.400 . S
C1053 C1047 1.491 . S
C1053 C1052 1.400 . S
C1053 C1054 1.398 . S
C1054 H1042 0.950 . S
C1054 C1053 1.398 . S
C1054 C1055 1.391 . S
C1055 H1043 0.950 . S
C1055 C1051 1.393 . S
C1055 C1054 1.391 . S
H1056 C1064 0.950 . S
H1057 C1069 0.950 . S
H1058 C1066 0.950 . S
H1059 C1068 0.950 . S
H1060 C1070 0.950 . S
H1061 C1072 0.950 . S
H1062 C1074 0.950 . S
H1063 C1075 0.950 . S
C1064 H1056 0.950 . S
C1064 C1065 1.386 . S
C1064 C1066 1.391 . S
C1065 C1064 1.386 . S
C1065 C1069 1.393 . S
C1066 H1058 0.950 . S
C1066 C1064 1.391 . S
C1066 C1067 1.400 . S
C1067 C1066 1.400 . S
C1067 C1068 1.398 . S
C1067 C1073 1.491 . S
C1068 H1059 0.950 . S
C1068 C1067 1.398 . S
C1068 C1069 1.391 . S
C1069 H1057 0.950 . S
C1069 C1065 1.393 . S
C1069 C1068 1.391 . S
C1070 H1060 0.950 . S
C1070 C1071 1.386 . S
C1070 C1072 1.391 . S
C1071 C1070 1.386 . S
C1071 C1075 1.393 . S
C1072 H1061 0.950 . S
C1072 C1070 1.391 . S
C1072 C1073 1.400 . S
C1073 C1067 1.491 . S
C1073 C1072 1.400 . S
C1073 C1074 1.398 . S
C1074 H1062 0.950 . S
C1074 C1073 1.398 . S
C1074 C1075 1.391 . S
C1075 H1063 0.950 . S
C1075 C1071 1.393 . S
C1075 C1074 1.391 . S
H1076 C1084 0.950 . S
H1077 C1089 0.950 . S
H1078 C1086 0.950 . S
H1079 C1088 0.950 . S
H1080 C1090 0.950 . S
H1081 C1092 0.950 . S
H1082 C1094 0.950 . S
H1083 C1095 0.950 . S
C1084 H1076 0.950 . S
C1084 C1085 1.386 . S
C1084 C1086 1.391 . S
C1085 C1084 1.386 . S
C1085 C1089 1.393 . S
C1086 H1078 0.950 . S
C1086 C1084 1.391 . S
C1086 C1087 1.400 . S
C1087 C1086 1.400 . S
C1087 C1088 1.398 . S
C1087 C1093 1.491 . S
C1088 H1079 0.950 . S
C1088 C1087 1.398 . S
C1088 C1089 1.391 . S
C1089 H1077 0.950 . S
C1089 C1085 1.393 . S
C1089 C1088 1.391 . S
C1090 H1080 0.950 . S
C1090 C1091 1.386 . S
C1090 C1092 1.391 . S
C1091 C1090 1.386 . S
C1091 C1095 1.393 . S
C1092 H1081 0.950 . S
C1092 C1090 1.391 . S
C1092 C1093 1.400 . S
C1093 C1087 1.491 . S
C1093 C1092 1.400 . S
C1093 C1094 1.398 . S
C1094 H1082 0.950 . S
C1094 C1093 1.398 . S
C1094 C1095 1.391 . S
C1095 H1083 0.950 . S
C1095 C1091 1.393 . S
C1095 C1094 1.391 . S
H1096 C1104 0.950 . S
H1097 C1109 0.950 . S
H1098 C1106 0.950 . S
H1099 C1108 0.950 . S
H1100 C1110 0.950 . S
H1101 C1112 0.950 . S
H1102 C1114 0.950 . S
H1103 C1115 0.950 . S
C1104 H1096 0.950 . S
C1104 C1105 1.386 . S
C1104 C1106 1.391 . S
C1105 C1104 1.386 . S
C1105 C1109 1.393 . S
C1106 H1098 0.950 . S
C1106 C1104 1.391 . S
C1106 C1107 1.400 . S
C1107 C1106 1.400 . S
C1107 C1108 1.398 . S
C1107 C1113 1.491 . S
C1108 H1099 0.950 . S
C1108 C1107 1.398 . S
C1108 C1109 1.391 . S
C1109 H1097 0.950 . S
C1109 C1105 1.393 . S
C1109 C1108 1.391 . S
C1110 H1100 0.950 . S
C1110 C1111 1.386 . S
C1110 C1112 1.391 . S
C1111 C1110 1.386 . S
C1111 C1115 1.393 . S
C1112 H1101 0.950 . S
C1112 C1110 1.391 . S
C1112 C1113 1.400 . S
C1113 C1107 1.491 . S
C1113 C1112 1.400 . S
C1113 C1114 1.398 . S
C1114 H1102 0.950 . S
C1114 C1113 1.398 . S
C1114 C1115 1.391 . S
C1115 H1103 0.950 . S
C1115 C1111 1.393 . S
C1115 C1114 1.391 . S
H1116 C1124 0.950 . S
H1117 C1129 0.950 . S
H1118 C1126 0.950 . S
H1119 C1128 0.950 . S
H1120 C1130 0.950 . S
H1121 C1132 0.950 . S
H1122 C1134 0.950 . S
H1123 C1135 0.950 . S
C1124 H1116 0.950 . S
C1124 C1125 1.386 . S
C1124 C1126 1.391 . S
C1125 C1124 1.386 . S
C1125 C1129 1.393 . S
C1126 H1118 0.950 . S
C1126 C1124 1.391 . S
C1126 C1127 1.400 . S
C1127 C1126 1.400 . S
C1127 C1128 1.398 . S
C1127 C1133 1.491 . S
C1128 H1119 0.950 . S
C1128 C1127 1.398 . S
C1128 C1129 1.391 . S
C1129 H1117 0.950 . S
C1129 C1125 1.393 . S
C1129 C1128 1.391 . S
C1130 H1120 0.950 . S
C1130 C1131 1.386 . S
C1130 C1132 1.391 . S
C1131 C1130 1.386 . S
C1131 C1135 1.393 . S
C1132 H1121 0.950 . S
C1132 C1130 1.391 . S
C1132 C1133 1.400 . S
C1133 C1127 1.491 . S
C1133 C1132 1.400 . S
C1133 C1134 1.398 . S
C1134 H1122 0.950 . S
C1134 C1133 1.398 . S
C1134 C1135 1.391 . S
C1135 H1123 0.950 . S
C1135 C1131 1.393 . S
C1135 C1134 1.391 . S
H1136 C1144 0.950 . S
H1137 C1149 0.950 . S
H1138 C1146 0.950 . S
H1139 C1148 0.950 . S
H1140 C1150 0.950 . S
H1141 C1152 0.950 . S
H1142 C1154 0.950 . S
H1143 C1155 0.950 . S
C1144 H1136 0.950 . S
C1144 C1145 1.386 1_565 S
C1144 C1146 1.391 1_565 S
C1145 C1144 1.386 1_545 S
C1145 C1149 1.393 . S
C1146 H1138 0.950 . S
C1146 C1144 1.391 1_545 S
C1146 C1147 1.400 . S
C1147 C1146 1.400 . S
C1147 C1148 1.398 . S
C1147 C1153 1.491 . S
C1148 H1139 0.950 . S
C1148 C1147 1.398 . S
C1148 C1149 1.391 . S
C1149 H1137 0.950 . S
C1149 C1145 1.393 . S
C1149 C1148 1.391 . S
C1150 H1140 0.950 . S
C1150 C1151 1.386 . S
C1150 C1152 1.391 . S
C1151 C1150 1.386 . S
C1151 C1155 1.393 1_455 S
C1152 H1141 0.950 . S
C1152 C1150 1.391 . S
C1152 C1153 1.400 1_455 S
C1153 C1147 1.491 . S
C1153 C1152 1.400 1_655 S
C1153 C1154 1.398 . S
C1154 H1142 0.950 . S
C1154 C1153 1.398 . S
C1154 C1155 1.391 . S
C1155 H1143 0.950 . S
C1155 C1151 1.393 1_655 S
C1155 C1154 1.391 . S
H1156 C1164 0.950 . S
H1157 C1169 0.950 . S
H1158 C1166 0.950 . S
H1159 C1168 0.950 . S
H1160 C1170 0.950 . S
H1161 C1172 0.950 . S
H1162 C1174 0.950 . S
H1163 C1175 0.950 . S
C1164 H1156 0.950 . S
C1164 C1165 1.386 . S
C1164 C1166 1.391 . S
C1165 C1164 1.386 . S
C1165 C1169 1.393 . S
C1166 H1158 0.950 . S
C1166 C1164 1.391 . S
C1166 C1167 1.400 . S
C1167 C1166 1.400 . S
C1167 C1168 1.398 . S
C1167 C1173 1.491 . S
C1168 H1159 0.950 . S
C1168 C1167 1.398 . S
C1168 C1169 1.391 . S
C1169 H1157 0.950 . S
C1169 C1165 1.393 . S
C1169 C1168 1.391 . S
C1170 H1160 0.950 . S
C1170 C1171 1.386 . S
C1170 C1172 1.391 . S
C1171 C1170 1.386 . S
C1171 C1175 1.393 . S
C1172 H1161 0.950 . S
C1172 C1170 1.391 . S
C1172 C1173 1.400 . S
C1173 C1167 1.491 . S
C1173 C1172 1.400 . S
C1173 C1174 1.398 . S
C1174 H1162 0.950 . S
C1174 C1173 1.398 . S
C1174 C1175 1.391 . S
C1175 H1163 0.950 . S
C1175 C1171 1.393 . S
C1175 C1174 1.391 . S
H1176 C1184 0.950 . S
H1177 C1189 0.950 . S
H1178 C1186 0.950 . S
H1179 C1188 0.950 . S
H1180 C1190 0.950 . S
H1181 C1192 0.950 . S
H1182 C1194 0.950 . S
H1183 C1195 0.950 . S
C1184 H1176 0.950 . S
C1184 C1185 1.383 . S
C1184 C1186 1.391 1_565 S
C1185 C1184 1.383 . S
C1185 C1189 1.389 1_565 S
C1186 H1178 0.950 . S
C1186 C1184 1.391 1_545 S
C1186 C1187 1.400 . S
C1187 C1186 1.400 . S
C1187 C1188 1.398 . S
C1187 C1193 1.491 . S
C1188 H1179 0.950 . S
C1188 C1187 1.398 . S
C1188 C1189 1.391 . S
C1189 H1177 0.950 . S
C1189 C1185 1.389 1_545 S
C1189 C1188 1.391 . S
C1190 H1180 0.950 . S
C1190 C1191 1.386 . S
C1190 C1192 1.391 . S
C1191 C1190 1.386 . S
C1191 C1195 1.393 . S
C1192 H1181 0.950 . S
C1192 C1190 1.391 . S
C1192 C1193 1.400 . S
C1193 C1187 1.491 . S
C1193 C1192 1.400 . S
C1193 C1194 1.398 . S
C1194 H1182 0.950 . S
C1194 C1193 1.398 . S
C1194 C1195 1.391 . S
C1195 H1183 0.950 . S
C1195 C1191 1.393 . S
C1195 C1194 1.391 . S
H1196 C1204 0.950 . S
H1197 C1209 0.950 . S
H1198 C1206 0.950 . S
H1199 C1208 0.950 . S
H1200 C1210 0.950 . S
H1201 C1212 0.950 . S
H1202 C1214 0.950 . S
H1203 C1215 0.950 . S
C1204 H1196 0.950 . S
C1204 C1205 1.386 . S
C1204 C1206 1.391 . S
C1205 C1204 1.386 . S
C1205 C1209 1.393 . S
C1206 H1198 0.950 . S
C1206 C1204 1.391 . S
C1206 C1207 1.400 . S
C1207 C1206 1.400 . S
C1207 C1208 1.398 . S
C1207 C1213 1.491 . S
C1208 H1199 0.950 . S
C1208 C1207 1.398 . S
C1208 C1209 1.391 . S
C1209 H1197 0.950 . S
C1209 C1205 1.393 . S
C1209 C1208 1.391 . S
C1210 H1200 0.950 . S
C1210 C1211 1.386 . S
C1210 C1212 1.391 . S
C1211 C1210 1.386 . S
C1211 C1215 1.393 . S
C1212 H1201 0.950 . S
C1212 C1210 1.391 . S
C1212 C1213 1.400 . S
C1213 C1207 1.491 . S
C1213 C1212 1.400 . S
C1213 C1214 1.398 . S
C1214 H1202 0.950 . S
C1214 C1213 1.398 . S
C1214 C1215 1.391 . S
C1215 H1203 0.950 . S
C1215 C1211 1.393 . S
C1215 C1214 1.391 . S
H1216 C1224 0.950 . S
H1217 C1229 0.950 . S
H1218 C1226 0.950 . S
H1219 C1228 0.950 . S
H1220 C1230 0.950 1_455 S
H1221 C1232 0.950 1_565 S
H1222 C1234 0.950 . S
H1223 C1235 0.950 . S
C1224 H1216 0.950 . S
C1224 C1225 1.386 . S
C1224 C1226 1.391 . S
C1225 C1224 1.386 . S
C1225 C1229 1.393 1_545 S
C1226 H1218 0.950 . S
C1226 C1224 1.391 . S
C1226 C1227 1.400 . S
C1227 C1226 1.400 . S
C1227 C1228 1.398 1_545 S
C1227 C1233 1.491 . S
C1228 H1219 0.950 . S
C1228 C1227 1.398 1_565 S
C1228 C1229 1.391 . S
C1229 H1217 0.950 . S
C1229 C1225 1.393 1_565 S
C1229 C1228 1.391 . S
C1230 H1220 0.950 1_655 S
C1230 C1231 1.386 . S
C1230 C1232 1.391 . S
C1231 C1230 1.386 . S
C1231 C1235 1.393 . S
C1232 H1221 0.950 1_545 S
C1232 C1230 1.391 . S
C1232 C1233 1.400 . S
C1233 C1227 1.491 . S
C1233 C1232 1.400 . S
C1233 C1234 1.398 . S
C1234 H1222 0.950 . S
C1234 C1233 1.398 . S
C1234 C1235 1.391 . S
C1235 H1223 0.950 . S
C1235 C1231 1.393 . S
C1235 C1234 1.391 . S
H1236 C1244 0.950 . S
H1237 C1249 0.950 . S
H1238 C1246 0.950 . S
H1239 C1248 0.950 . S
H1240 C1250 0.950 . S
H1241 C1252 0.950 . S
H1242 C1254 0.950 . S
H1243 C1255 0.950 . S
C1244 H1236 0.950 . S
C1244 C1245 1.386 . S
C1244 C1246 1.391 . S
C1245 C1244 1.386 . S
C1245 C1249 1.393 . S
C1246 H1238 0.950 . S
C1246 C1244 1.391 . S
C1246 C1247 1.400 . S
C1247 C1246 1.400 . S
C1247 C1248 1.398 . S
C1247 C1253 1.491 . S
C1248 H1239 0.950 . S
C1248 C1247 1.398 . S
C1248 C1249 1.391 . S
C1249 H1237 0.950 . S
C1249 C1245 1.393 . S
C1249 C1248 1.391 . S
C1250 H1240 0.950 . S
C1250 C1251 1.386 . S
C1250 C1252 1.391 . S
C1251 C1250 1.386 . S
C1251 C1255 1.393 . S
C1252 H1241 0.950 . S
C1252 C1250 1.391 . S
C1252 C1253 1.400 . S
C1253 C1247 1.491 . S
C1253 C1252 1.400 . S
C1253 C1254 1.398 . S
C1254 H1242 0.950 . S
C1254 C1253 1.398 . S
C1254 C1255 1.391 . S
C1255 H1243 0.950 . S
C1255 C1251 1.393 . S
C1255 C1254 1.391 . S
H1256 C1264 0.936 1_565 S
H1257 C1269 0.950 . S
H1258 C1266 0.950 . S
H1259 C1268 0.950 . S
H1260 C1270 0.950 . S
H1261 C1272 0.950 . S
H1262 C1274 0.950 . S
H1263 C1275 0.950 . S
C1264 H1256 0.936 1_545 S
C1264 C1265 1.391 . S
C1264 C1266 1.400 . S
C1265 C1264 1.391 . S
C1265 C1269 1.393 . S
C1266 H1258 0.950 . S
C1266 C1264 1.400 . S
C1266 C1267 1.400 . S
C1267 C1266 1.400 . S
C1267 C1268 1.398 . S
C1267 C1273 1.491 . S
C1268 H1259 0.950 . S
C1268 C1267 1.398 . S
C1268 C1269 1.391 . S
C1269 H1257 0.950 . S
C1269 C1265 1.393 . S
C1269 C1268 1.391 . S
C1270 H1260 0.950 . S
C1270 C1271 1.386 . S
C1270 C1272 1.391 . S
C1271 C1270 1.386 . S
C1271 C1275 1.393 . S
C1272 H1261 0.950 . S
C1272 C1270 1.391 . S
C1272 C1273 1.400 . S
C1273 C1267 1.491 . S
C1273 C1272 1.400 . S
C1273 C1274 1.398 . S
C1274 H1262 0.950 . S
C1274 C1273 1.398 . S
C1274 C1275 1.391 . S
C1275 H1263 0.950 . S
C1275 C1271 1.393 . S
C1275 C1274 1.391 . S
H1276 C1284 0.950 . S
H1277 C1289 0.950 . S
H1278 C1286 0.950 . S
H1279 C1288 0.950 . S
H1280 C1290 0.950 . S
H1281 C1292 0.950 . S
H1282 C1294 0.950 . S
H1283 C1295 0.950 . S
C1284 H1276 0.950 . S
C1284 C1285 1.386 . S
C1284 C1286 1.391 . S
C1285 C1284 1.386 . S
C1285 C1289 1.393 . S
C1286 H1278 0.950 . S
C1286 C1284 1.391 . S
C1286 C1287 1.400 . S
C1287 C1286 1.400 . S
C1287 C1288 1.398 . S
C1287 C1293 1.491 . S
C1288 H1279 0.950 . S
C1288 C1287 1.398 . S
C1288 C1289 1.391 . S
C1289 H1277 0.950 . S
C1289 C1285 1.393 . S
C1289 C1288 1.391 . S
C1290 H1280 0.950 . S
C1290 C1291 1.386 . S
C1290 C1292 1.391 . S
C1291 C1290 1.386 . S
C1291 C1295 1.393 . S
C1292 H1281 0.950 . S
C1292 C1290 1.391 . S
C1292 C1293 1.400 . S
C1293 C1287 1.491 . S
C1293 C1292 1.400 . S
C1293 C1294 1.398 . S
C1294 H1282 0.950 . S
C1294 C1293 1.398 . S
C1294 C1295 1.391 . S
C1295 H1283 0.950 . S
C1295 C1291 1.393 . S
C1295 C1294 1.391 . S
H1296 C1304 0.950 . S
H1297 C1309 0.950 . S
H1298 C1306 0.950 . S
H1299 C1308 0.950 . S
H1300 C1310 0.950 1_545 S
H1301 C1312 0.950 . S
H1302 C1314 0.950 . S
H1303 C1315 0.950 . S
C1304 H1296 0.950 . S
C1304 C1305 1.386 . S
C1304 C1306 1.391 . S
C1305 C1304 1.386 . S
C1305 C1309 1.393 . S
C1306 H1298 0.950 . S
C1306 C1304 1.391 . S
C1306 C1307 1.400 . S
C1307 C1306 1.400 . S
C1307 C1308 1.398 . S
C1307 C1313 1.491 . S
C1308 H1299 0.950 . S
C1308 C1307 1.398 . S
C1308 C1309 1.391 . S
C1309 H1297 0.950 . S
C1309 C1305 1.393 . S
C1309 C1308 1.391 . S
C1310 H1300 0.950 1_565 S
C1310 C1311 1.386 . S
C1310 C1312 1.391 . S
C1311 C1310 1.386 . S
C1311 C1315 1.393 . S
C1312 H1301 0.950 . S
C1312 C1310 1.391 . S
C1312 C1313 1.400 . S
C1313 C1307 1.491 . S
C1313 C1312 1.400 . S
C1313 C1314 1.398 . S
C1314 H1302 0.950 . S
C1314 C1313 1.398 . S
C1314 C1315 1.391 . S
C1315 H1303 0.950 . S
C1315 C1311 1.393 . S
C1315 C1314 1.391 . S
H1316 C1324 0.950 . S
H1317 C1329 0.950 . S
H1318 C1326 0.950 . S
H1319 C1328 0.950 . S
H1320 C1330 0.950 . S
H1321 C1332 0.950 . S
H1322 C1334 0.950 . S
H1323 C1335 0.950 . S
C1324 H1316 0.950 . S
C1324 C1325 1.386 . S
C1324 C1326 1.391 . S
C1325 C1324 1.386 . S
C1325 C1329 1.393 . S
C1326 H1318 0.950 . S
C1326 C1324 1.391 . S
C1326 C1327 1.400 . S
C1327 C1326 1.400 . S
C1327 C1328 1.398 . S
C1327 C1333 1.491 . S
C1328 H1319 0.950 . S
C1328 C1327 1.398 . S
C1328 C1329 1.391 . S
C1329 H1317 0.950 . S
C1329 C1325 1.393 . S
C1329 C1328 1.391 . S
C1330 H1320 0.950 . S
C1330 C1331 1.386 . S
C1330 C1332 1.391 . S
C1331 C1330 1.386 . S
C1331 C1335 1.393 . S
C1332 H1321 0.950 . S
C1332 C1330 1.391 . S
C1332 C1333 1.400 . S
C1333 C1327 1.491 . S
C1333 C1332 1.400 . S
C1333 C1334 1.398 . S
C1334 H1322 0.950 . S
C1334 C1333 1.398 . S
C1334 C1335 1.391 . S
C1335 H1323 0.950 . S
C1335 C1331 1.393 . S
C1335 C1334 1.391 . S
H1336 C1344 0.950 . S
H1337 C1349 0.950 . S
H1338 C1346 0.950 . S
H1339 C1348 0.950 . S
H1340 C1350 0.950 . S
H1341 C1352 0.950 . S
H1342 C1354 0.950 . S
H1343 C1355 0.950 . S
C1344 H1336 0.950 . S
C1344 C1345 1.386 . S
C1344 C1346 1.391 . S
C1345 C1344 1.386 . S
C1345 C1349 1.393 . S
C1346 H1338 0.950 . S
C1346 C1344 1.391 . S
C1346 C1347 1.400 . S
C1347 C1346 1.400 . S
C1347 C1348 1.398 . S
C1347 C1353 1.491 . S
C1348 H1339 0.950 . S
C1348 C1347 1.398 . S
C1348 C1349 1.391 . S
C1349 H1337 0.950 . S
C1349 C1345 1.393 . S
C1349 C1348 1.391 . S
C1350 H1340 0.950 . S
C1350 C1351 1.386 . S
C1350 C1352 1.391 . S
C1351 C1350 1.386 . S
C1351 C1355 1.393 . S
C1352 H1341 0.950 . S
C1352 C1350 1.391 . S
C1352 C1353 1.400 . S
C1353 C1347 1.491 . S
C1353 C1352 1.400 . S
C1353 C1354 1.398 . S
C1354 H1342 0.950 . S
C1354 C1353 1.398 . S
C1354 C1355 1.391 . S
C1355 H1343 0.950 . S
C1355 C1351 1.393 . S
C1355 C1354 1.391 . S
H1356 C1364 0.950 . S
H1357 C1369 0.950 . S
H1358 C1366 0.950 . S
H1359 C1368 0.950 . S
H1360 C1370 0.950 . S
H1361 C1372 0.950 . S
H1362 C1374 0.950 . S
H1363 C1375 0.950 . S
C1364 H1356 0.950 . S
C1364 C1365 1.386 . S
C1364 C1366 1.391 . S
C1365 C1364 1.386 . S
C1365 C1369 1.393 . S
C1366 H1358 0.950 . S
C1366 C1364 1.391 . S
C1366 C1367 1.400 . S
C1367 C1366 1.400 . S
C1367 C1368 1.398 . S
C1367 C1373 1.491 . S
C1368 H1359 0.950 . S
C1368 C1367 1.398 . S
C1368 C1369 1.391 . S
C1369 H1357 0.950 . S
C1369 C1365 1.393 . S
C1369 C1368 1.391 . S
C1370 H1360 0.950 . S
C1370 C1371 1.386 . S
C1370 C1372 1.391 . S
C1371 C1370 1.386 . S
C1371 C1375 1.393 . S
C1372 H1361 0.950 . S
C1372 C1370 1.391 . S
C1372 C1373 1.400 . S
C1373 C1367 1.491 . S
C1373 C1372 1.400 . S
C1373 C1374 1.398 . S
C1374 H1362 0.950 . S
C1374 C1373 1.398 . S
C1374 C1375 1.391 . S
C1375 H1363 0.950 . S
C1375 C1371 1.393 . S
C1375 C1374 1.391 . S
H1376 C1384 0.950 . S
H1377 C1389 0.950 . S
H1378 C1386 0.950 . S
H1379 C1388 0.950 . S
H1380 C1390 0.950 . S
H1381 C1392 0.950 . S
H1382 C1394 0.950 . S
H1383 C1395 0.950 . S
C1384 H1376 0.950 . S
C1384 C1385 1.386 . S
C1384 C1386 1.391 . S
C1385 C1384 1.386 . S
C1385 C1389 1.393 . S
C1386 H1378 0.950 . S
C1386 C1384 1.391 . S
C1386 C1387 1.400 . S
C1387 C1386 1.400 . S
C1387 C1388 1.398 . S
C1387 C1393 1.491 . S
C1388 H1379 0.950 . S
C1388 C1387 1.398 . S
C1388 C1389 1.391 . S
C1389 H1377 0.950 . S
C1389 C1385 1.393 . S
C1389 C1388 1.391 . S
C1390 H1380 0.950 . S
C1390 C1391 1.386 . S
C1390 C1392 1.391 . S
C1391 C1390 1.386 . S
C1391 C1395 1.393 . S
C1392 H1381 0.950 . S
C1392 C1390 1.391 . S
C1392 C1393 1.400 . S
C1393 C1387 1.491 . S
C1393 C1392 1.400 . S
C1393 C1394 1.398 . S
C1394 H1382 0.950 . S
C1394 C1393 1.398 . S
C1394 C1395 1.391 . S
C1395 H1383 0.950 . S
C1395 C1391 1.393 . S
C1395 C1394 1.391 . S
H1396 C1404 0.950 . S
H1397 C1409 0.950 . S
H1398 C1406 0.950 . S
H1399 C1408 0.950 . S
H1400 C1410 0.950 . S
H1401 C1412 0.950 . S
H1402 C1414 0.950 . S
H1403 C1415 0.950 . S
C1404 H1396 0.950 . S
C1404 C1405 1.386 . S
C1404 C1406 1.391 . S
C1405 C1404 1.386 . S
C1405 C1409 1.393 . S
C1406 H1398 0.950 . S
C1406 C1404 1.391 . S
C1406 C1407 1.400 . S
C1407 C1406 1.400 . S
C1407 C1408 1.398 . S
C1407 C1413 1.491 . S
C1408 H1399 0.950 . S
C1408 C1407 1.398 . S
C1408 C1409 1.391 . S
C1409 H1397 0.950 . S
C1409 C1405 1.393 . S
C1409 C1408 1.391 . S
C1410 H1400 0.950 . S
C1410 C1411 1.386 . S
C1410 C1412 1.391 . S
C1411 C1410 1.386 . S
C1411 C1415 1.393 . S
C1412 H1401 0.950 . S
C1412 C1410 1.391 . S
C1412 C1413 1.400 . S
C1413 C1407 1.491 . S
C1413 C1412 1.400 . S
C1413 C1414 1.398 . S
C1414 H1402 0.950 . S
C1414 C1413 1.398 . S
C1414 C1415 1.391 . S
C1415 H1403 0.950 . S
C1415 C1411 1.393 . S
C1415 C1414 1.391 . S
H1416 C1424 0.950 . S
H1417 C1429 0.950 . S
H1418 C1426 0.950 . S
H1419 C1428 0.950 . S
H1420 C1430 0.950 . S
H1421 C1432 0.950 . S
H1422 C1434 0.950 . S
H1423 C1435 0.950 . S
C1424 H1416 0.950 . S
C1424 C1425 1.386 . S
C1424 C1426 1.391 . S
C1425 C1424 1.386 . S
C1425 C1429 1.393 . S
C1426 H1418 0.950 . S
C1426 C1424 1.391 . S
C1426 C1427 1.400 . S
C1427 C1426 1.400 . S
C1427 C1428 1.398 . S
C1427 C1433 1.491 . S
C1428 H1419 0.950 . S
C1428 C1427 1.398 . S
C1428 C1429 1.391 . S
C1429 H1417 0.950 . S
C1429 C1425 1.393 . S
C1429 C1428 1.391 . S
C1430 H1420 0.950 . S
C1430 C1431 1.386 . S
C1430 C1432 1.391 . S
C1431 C1430 1.386 . S
C1431 C1435 1.393 . S
C1432 H1421 0.950 . S
C1432 C1430 1.391 . S
C1432 C1433 1.400 . S
C1433 C1427 1.491 . S
C1433 C1432 1.400 . S
C1433 C1434 1.398 . S
C1434 H1422 0.950 . S
C1434 C1433 1.398 . S
C1434 C1435 1.391 . S
C1435 H1423 0.950 . S
C1435 C1431 1.393 . S
C1435 C1434 1.391 . S
H1436 C1444 0.950 . S
H1437 C1449 0.950 . S
H1438 C1446 0.950 . S
H1439 C1448 0.950 . S
H1440 C1450 0.950 . S
H1441 C1452 0.950 . S
H1442 C1454 0.950 . S
H1443 C1455 0.950 . S
C1444 H1436 0.950 . S
C1444 C1445 1.386 . S
C1444 C1446 1.391 . S
C1445 C1444 1.386 . S
C1445 C1449 1.393 . S
C1446 H1438 0.950 . S
C1446 C1444 1.391 . S
C1446 C1447 1.400 . S
C1447 C1446 1.400 . S
C1447 C1448 1.398 . S
C1447 C1453 1.491 . S
C1448 H1439 0.950 . S
C1448 C1447 1.398 . S
C1448 C1449 1.391 . S
C1449 H1437 0.950 . S
C1449 C1445 1.393 . S
C1449 C1448 1.391 . S
C1450 H1440 0.950 . S
C1450 C1451 1.386 . S
C1450 C1452 1.391 . S
C1451 C1450 1.386 . S
C1451 C1455 1.393 . S
C1452 H1441 0.950 . S
C1452 C1450 1.391 . S
C1452 C1453 1.400 . S
C1453 C1447 1.491 . S
C1453 C1452 1.400 . S
C1453 C1454 1.398 . S
C1454 H1442 0.950 . S
C1454 C1453 1.398 . S
C1454 C1455 1.391 . S
C1455 H1443 0.950 . S
C1455 C1451 1.393 . S
C1455 C1454 1.391 . S
H1456 C1464 0.950 . S
H1457 C1469 0.950 . S
H1458 C1466 0.950 . S
H1459 C1468 0.950 . S
H1460 C1470 0.950 . S
H1461 C1472 0.950 . S
H1462 C1474 0.950 . S
H1463 C1475 0.950 . S
C1464 H1456 0.950 . S
C1464 C1465 1.386 . S
C1464 C1466 1.391 . S
C1465 C1464 1.386 . S
C1465 C1469 1.393 . S
C1466 H1458 0.950 . S
C1466 C1464 1.391 . S
C1466 C1467 1.400 . S
C1467 C1466 1.400 . S
C1467 C1468 1.398 . S
C1467 C1473 1.491 . S
C1468 H1459 0.950 . S
C1468 C1467 1.398 . S
C1468 C1469 1.391 . S
C1469 H1457 0.950 . S
C1469 C1465 1.393 . S
C1469 C1468 1.391 . S
C1470 H1460 0.950 . S
C1470 C1471 1.386 . S
C1470 C1472 1.391 . S
C1471 C1470 1.386 . S
C1471 C1475 1.393 . S
C1472 H1461 0.950 . S
C1472 C1470 1.391 . S
C1472 C1473 1.400 . S
C1473 C1467 1.491 . S
C1473 C1472 1.400 . S
C1473 C1474 1.398 . S
C1474 H1462 0.950 . S
C1474 C1473 1.398 . S
C1474 C1475 1.391 . S
C1475 H1463 0.950 . S
C1475 C1471 1.393 . S
C1475 C1474 1.391 . S
H1476 C1484 0.950 . S
H1477 C1489 0.950 . S
H1478 C1486 0.950 . S
H1479 C1488 0.950 . S
H1480 C1490 0.950 . S
H1481 C1492 0.950 . S
H1482 C1494 0.950 . S
H1483 C1495 0.950 . S
C1484 H1476 0.950 . S
C1484 C1485 1.386 . S
C1484 C1486 1.391 . S
C1485 C1484 1.386 . S
C1485 C1489 1.393 . S
C1486 H1478 0.950 . S
C1486 C1484 1.391 . S
C1486 C1487 1.400 . S
C1487 C1486 1.400 . S
C1487 C1488 1.398 . S
C1487 C1493 1.491 . S
C1488 H1479 0.950 . S
C1488 C1487 1.398 . S
C1488 C1489 1.391 . S
C1489 H1477 0.950 . S
C1489 C1485 1.393 . S
C1489 C1488 1.391 . S
C1490 H1480 0.950 . S
C1490 C1491 1.386 . S
C1490 C1492 1.391 . S
C1491 C1490 1.386 . S
C1491 C1495 1.393 . S
C1492 H1481 0.950 . S
C1492 C1490 1.391 . S
C1492 C1493 1.400 . S
C1493 C1487 1.491 . S
C1493 C1492 1.400 . S
C1493 C1494 1.398 . S
C1494 H1482 0.950 . S
C1494 C1493 1.398 . S
C1494 C1495 1.391 . S
C1495 H1483 0.950 . S
C1495 C1491 1.393 . S
C1495 C1494 1.391 . S
H1496 C1504 0.950 . S
H1497 C1509 0.950 . S
H1498 C1506 0.950 . S
H1499 C1508 0.950 . S
H1500 C1510 0.950 . S
H1501 C1512 0.950 . S
H1502 C1514 0.950 . S
H1503 C1515 0.950 . S
C1504 H1496 0.950 . S
C1504 C1505 1.386 . S
C1504 C1506 1.391 . S
C1505 C1504 1.386 . S
C1505 C1509 1.393 . S
C1506 H1498 0.950 . S
C1506 C1504 1.391 . S
C1506 C1507 1.400 . S
C1507 C1506 1.400 . S
C1507 C1508 1.398 . S
C1507 C1513 1.491 . S
C1508 H1499 0.950 . S
C1508 C1507 1.398 . S
C1508 C1509 1.391 . S
C1509 H1497 0.950 . S
C1509 C1505 1.393 . S
C1509 C1508 1.391 . S
C1510 H1500 0.950 . S
C1510 C1511 1.386 . S
C1510 C1512 1.391 . S
C1511 C1510 1.386 . S
C1511 C1515 1.393 . S
C1512 H1501 0.950 . S
C1512 C1510 1.391 . S
C1512 C1513 1.400 . S
C1513 C1507 1.491 . S
C1513 C1512 1.400 . S
C1513 C1514 1.398 . S
C1514 H1502 0.950 . S
C1514 C1513 1.398 . S
C1514 C1515 1.391 . S
C1515 H1503 0.950 . S
C1515 C1511 1.393 . S
C1515 C1514 1.391 . S
H1516 C1524 0.950 . S
H1517 C1529 0.950 . S
H1518 C1526 0.950 . S
H1519 C1528 0.950 . S
H1520 C1530 0.950 . S
H1521 C1532 0.950 . S
H1522 C1534 0.950 . S
H1523 C1535 0.950 . S
C1524 H1516 0.950 . S
C1524 C1525 1.386 . S
C1524 C1526 1.391 . S
C1525 C1524 1.386 . S
C1525 C1529 1.393 . S
C1526 H1518 0.950 . S
C1526 C1524 1.391 . S
C1526 C1527 1.400 . S
C1527 C1526 1.400 . S
C1527 C1528 1.398 . S
C1527 C1533 1.491 . S
C1528 H1519 0.950 . S
C1528 C1527 1.398 . S
C1528 C1529 1.391 . S
C1529 H1517 0.950 . S
C1529 C1525 1.393 . S
C1529 C1528 1.391 . S
C1530 H1520 0.950 . S
C1530 C1531 1.386 . S
C1530 C1532 1.391 . S
C1531 C1530 1.386 . S
C1531 C1535 1.393 . S
C1532 H1521 0.950 . S
C1532 C1530 1.391 . S
C1532 C1533 1.400 . S
C1533 C1527 1.491 . S
C1533 C1532 1.400 . S
C1533 C1534 1.398 . S
C1534 H1522 0.950 . S
C1534 C1533 1.398 . S
C1534 C1535 1.391 . S
C1535 H1523 0.950 . S
C1535 C1531 1.393 . S
C1535 C1534 1.391 . S
H1536 C1544 0.950 . S
H1537 C1549 0.950 . S
H1538 C1546 0.950 . S
H1539 C1548 0.950 . S
H1540 C1550 0.950 . S
H1541 C1552 0.950 . S
H1542 C1554 0.950 . S
H1543 C1555 0.950 . S
C1544 H1536 0.950 . S
C1544 C1545 1.386 . S
C1544 C1546 1.391 . S
C1545 C1544 1.386 . S
C1545 C1549 1.393 . S
C1546 H1538 0.950 . S
C1546 C1544 1.391 . S
C1546 C1547 1.400 . S
C1547 C1546 1.400 . S
C1547 C1548 1.398 . S
C1547 C1553 1.491 . S
C1548 H1539 0.950 . S
C1548 C1547 1.398 . S
C1548 C1549 1.391 . S
C1549 H1537 0.950 . S
C1549 C1545 1.393 . S
C1549 C1548 1.391 . S
C1550 H1540 0.950 . S
C1550 C1551 1.386 . S
C1550 C1552 1.391 . S
C1551 C1550 1.386 . S
C1551 C1555 1.393 . S
C1552 H1541 0.950 . S
C1552 C1550 1.391 . S
C1552 C1553 1.400 . S
C1553 C1547 1.491 . S
C1553 C1552 1.400 . S
C1553 C1554 1.398 . S
C1554 H1542 0.950 . S
C1554 C1553 1.398 . S
C1554 C1555 1.391 . S
C1555 H1543 0.950 . S
C1555 C1551 1.393 . S
C1555 C1554 1.391 . S
H1556 C1564 0.950 . S
H1557 C1569 0.950 . S
H1558 C1566 0.950 . S
H1559 C1568 0.950 . S
H1560 C1570 0.950 . S
H1561 C1572 0.950 . S
H1562 C1574 0.950 . S
H1563 C1575 0.950 . S
C1564 H1556 0.950 . S
C1564 C1565 1.386 . S
C1564 C1566 1.391 . S
C1565 C1564 1.386 . S
C1565 C1569 1.393 . S
C1566 H1558 0.950 . S
C1566 C1564 1.391 . S
C1566 C1567 1.400 . S
C1567 C1566 1.400 . S
C1567 C1568 1.398 . S
C1567 C1573 1.491 . S
C1568 H1559 0.950 . S
C1568 C1567 1.398 . S
C1568 C1569 1.391 . S
C1569 H1557 0.950 . S
C1569 C1565 1.393 . S
C1569 C1568 1.391 . S
C1570 H1560 0.950 . S
C1570 C1571 1.386 . S
C1570 C1572 1.391 . S
C1571 C1570 1.386 . S
C1571 C1575 1.393 . S
C1572 H1561 0.950 . S
C1572 C1570 1.391 . S
C1572 C1573 1.400 . S
C1573 C1567 1.491 . S
C1573 C1572 1.400 . S
C1573 C1574 1.398 . S
C1574 H1562 0.950 . S
C1574 C1573 1.398 . S
C1574 C1575 1.391 . S
C1575 H1563 0.950 . S
C1575 C1571 1.393 . S
C1575 C1574 1.391 . S
H1576 C1584 0.950 . S
H1577 C1589 0.950 . S
H1578 C1586 0.950 . S
H1579 C1588 0.950 . S
H1580 C1590 0.950 1_554 S
H1581 C1592 0.950 . S
H1582 C1594 0.950 . S
H1583 C1595 0.950 . S
C1584 H1576 0.950 . S
C1584 C1585 1.386 . S
C1584 C1586 1.391 . S
C1585 C1584 1.386 . S
C1585 C1589 1.393 . S
C1586 H1578 0.950 . S
C1586 C1584 1.391 . S
C1586 C1587 1.400 . S
C1587 C1586 1.400 . S
C1587 C1588 1.398 . S
C1587 C1593 1.491 . S
C1588 H1579 0.950 . S
C1588 C1587 1.398 . S
C1588 C1589 1.391 . S
C1589 H1577 0.950 . S
C1589 C1585 1.393 . S
C1589 C1588 1.391 . S
C1590 H1580 0.950 1_556 S
C1590 C1591 1.386 . S
C1590 C1592 1.391 . S
C1591 C1590 1.386 . S
C1591 C1595 1.393 . S
C1592 H1581 0.950 . S
C1592 C1590 1.391 . S
C1592 C1593 1.400 . S
C1593 C1587 1.491 . S
C1593 C1592 1.400 . S
C1593 C1594 1.398 . S
C1594 H1582 0.950 . S
C1594 C1593 1.398 . S
C1594 C1595 1.391 . S
C1595 H1583 0.950 . S
C1595 C1591 1.393 . S
C1595 C1594 1.391 . S
H1596 C1604 0.950 . S
H1597 C1609 0.950 . S
H1598 C1606 0.950 . S
H1599 C1608 0.950 . S
H1600 C1610 0.950 . S
H1601 C1612 0.950 . S
H1602 C1614 0.950 . S
H1603 C1615 0.950 . S
C1604 H1596 0.950 . S
C1604 C1605 1.386 . S
C1604 C1606 1.391 . S
C1605 C1604 1.386 . S
C1605 C1609 1.393 . S
C1606 H1598 0.950 . S
C1606 C1604 1.391 . S
C1606 C1607 1.400 . S
C1607 C1606 1.400 . S
C1607 C1608 1.398 . S
C1607 C1613 1.491 . S
C1608 H1599 0.950 . S
C1608 C1607 1.398 . S
C1608 C1609 1.391 . S
C1609 H1597 0.950 . S
C1609 C1605 1.393 . S
C1609 C1608 1.391 . S
C1610 H1600 0.950 . S
C1610 C1611 1.386 . S
C1610 C1612 1.391 . S
C1611 C1610 1.386 . S
C1611 C1615 1.393 . S
C1612 H1601 0.950 . S
C1612 C1610 1.391 . S
C1612 C1613 1.400 . S
C1613 C1607 1.491 . S
C1613 C1612 1.400 . S
C1613 C1614 1.398 . S
C1614 H1602 0.950 . S
C1614 C1613 1.398 . S
C1614 C1615 1.391 . S
C1615 H1603 0.950 . S
C1615 C1611 1.393 . S
C1615 C1614 1.391 . S
H1616 C1624 0.950 . S
H1617 C1629 0.950 . S
H1618 C1626 0.950 . S
H1619 C1628 0.950 . S
H1620 C1630 0.950 . S
H1621 C1632 0.950 . S
H1622 C1634 0.950 . S
H1623 C1635 0.950 . S
C1624 H1616 0.950 . S
C1624 C1625 1.386 . S
C1624 C1626 1.391 . S
C1625 C1624 1.386 . S
C1625 C1629 1.393 . S
C1626 H1618 0.950 . S
C1626 C1624 1.391 . S
C1626 C1627 1.400 . S
C1627 C1626 1.400 . S
C1627 C1628 1.398 . S
C1627 C1633 1.491 . S
C1628 H1619 0.950 . S
C1628 C1627 1.398 . S
C1628 C1629 1.391 . S
C1629 H1617 0.950 . S
C1629 C1625 1.393 . S
C1629 C1628 1.391 . S
C1630 H1620 0.950 . S
C1630 C1631 1.386 . S
C1630 C1632 1.391 . S
C1631 C1630 1.386 . S
C1631 C1635 1.393 . S
C1632 H1621 0.950 . S
C1632 C1630 1.391 . S
C1632 C1633 1.400 . S
C1633 C1627 1.491 . S
C1633 C1632 1.400 . S
C1633 C1634 1.398 . S
C1634 H1622 0.950 . S
C1634 C1633 1.398 . S
C1634 C1635 1.391 . S
C1635 H1623 0.950 . S
C1635 C1631 1.393 . S
C1635 C1634 1.391 . S
H1636 C1644 0.950 . S
H1637 C1649 0.950 . S
H1638 C1646 0.950 . S
H1639 C1648 0.950 . S
H1640 C1650 0.950 . S
H1641 C1652 0.950 . S
H1642 C1654 0.950 . S
H1643 C1655 0.950 . S
C1644 H1636 0.950 . S
C1644 C1645 1.386 . S
C1644 C1646 1.391 . S
C1645 C1644 1.386 . S
C1645 C1649 1.393 . S
C1646 H1638 0.950 . S
C1646 C1644 1.391 . S
C1646 C1647 1.400 . S
C1647 C1646 1.400 . S
C1647 C1648 1.398 . S
C1647 C1653 1.491 . S
C1648 H1639 0.950 . S
C1648 C1647 1.398 . S
C1648 C1649 1.391 . S
C1649 H1637 0.950 . S
C1649 C1645 1.393 . S
C1649 C1648 1.391 . S
C1650 H1640 0.950 . S
C1650 C1651 1.386 . S
C1650 C1652 1.391 . S
C1651 C1650 1.386 . S
C1651 C1655 1.393 . S
C1652 H1641 0.950 . S
C1652 C1650 1.391 . S
C1652 C1653 1.400 . S
C1653 C1647 1.491 . S
C1653 C1652 1.400 . S
C1653 C1654 1.398 . S
C1654 H1642 0.950 . S
C1654 C1653 1.398 . S
C1654 C1655 1.391 . S
C1655 H1643 0.950 . S
C1655 C1651 1.393 . S
C1655 C1654 1.391 . S
H1656 C1664 0.950 . S
H1657 C1669 0.950 . S
H1658 C1666 0.950 . S
H1659 C1668 0.950 . S
H1660 C1670 0.950 . S
H1661 C1672 0.950 . S
H1662 C1674 0.950 . S
H1663 C1675 0.950 . S
C1664 H1656 0.950 . S
C1664 C1665 1.386 . S
C1664 C1666 1.391 . S
C1665 C1664 1.386 . S
C1665 C1669 1.393 . S
C1666 H1658 0.950 . S
C1666 C1664 1.391 . S
C1666 C1667 1.400 . S
C1667 C1666 1.400 . S
C1667 C1668 1.398 . S
C1667 C1673 1.491 . S
C1668 H1659 0.950 . S
C1668 C1667 1.398 . S
C1668 C1669 1.391 . S
C1669 H1657 0.950 . S
C1669 C1665 1.393 . S
C1669 C1668 1.391 . S
C1670 H1660 0.950 . S
C1670 C1671 1.386 . S
C1670 C1672 1.391 . S
C1671 C1670 1.386 . S
C1671 C1675 1.393 . S
C1672 H1661 0.950 . S
C1672 C1670 1.391 . S
C1672 C1673 1.400 . S
C1673 C1667 1.491 . S
C1673 C1672 1.400 . S
C1673 C1674 1.398 . S
C1674 H1662 0.950 . S
C1674 C1673 1.398 . S
C1674 C1675 1.391 . S
C1675 H1663 0.950 . S
C1675 C1671 1.393 . S
C1675 C1674 1.391 . S
H1676 C1684 0.950 . S
H1677 C1689 0.950 . S
H1678 C1686 0.950 . S
H1679 C1688 0.950 . S
H1680 C1690 0.950 . S
H1681 C1692 0.950 . S
H1682 C1694 0.950 . S
H1683 C1695 0.950 . S
C1684 H1676 0.950 . S
C1684 C1685 1.386 . S
C1684 C1686 1.391 . S
C1685 C1684 1.386 . S
C1685 C1689 1.393 . S
C1686 H1678 0.950 . S
C1686 C1684 1.391 . S
C1686 C1687 1.400 . S
C1687 C1686 1.400 . S
C1687 C1688 1.398 . S
C1687 C1693 1.491 . S
C1688 H1679 0.950 . S
C1688 C1687 1.398 . S
C1688 C1689 1.391 . S
C1689 H1677 0.950 . S
C1689 C1685 1.393 . S
C1689 C1688 1.391 . S
C1690 H1680 0.950 . S
C1690 C1691 1.386 . S
C1690 C1692 1.391 . S
C1691 C1690 1.386 . S
C1691 C1695 1.393 . S
C1692 H1681 0.950 . S
C1692 C1690 1.391 . S
C1692 C1693 1.400 . S
C1693 C1687 1.491 . S
C1693 C1692 1.400 . S
C1693 C1694 1.398 . S
C1694 H1682 0.950 . S
C1694 C1693 1.398 . S
C1694 C1695 1.391 . S
C1695 H1683 0.950 . S
C1695 C1691 1.393 . S
C1695 C1694 1.391 . S
H1696 C1704 0.950 . S
H1697 C1709 0.950 . S
H1698 C1706 0.950 . S
H1699 C1708 0.950 . S
H1700 C1710 0.950 . S
H1701 C1712 0.950 . S
H1702 C1714 0.950 . S
H1703 C1715 0.950 . S
C1704 H1696 0.950 . S
C1704 C1705 1.386 . S
C1704 C1706 1.391 . S
C1705 C1704 1.386 . S
C1705 C1709 1.393 . S
C1706 H1698 0.950 . S
C1706 C1704 1.391 . S
C1706 C1707 1.400 . S
C1707 C1706 1.400 . S
C1707 C1708 1.398 . S
C1707 C1713 1.491 . S
C1708 H1699 0.950 . S
C1708 C1707 1.398 . S
C1708 C1709 1.391 . S
C1709 H1697 0.950 . S
C1709 C1705 1.393 . S
C1709 C1708 1.391 . S
C1710 H1700 0.950 . S
C1710 C1711 1.386 . S
C1710 C1712 1.391 . S
C1711 C1710 1.386 . S
C1711 C1715 1.393 . S
C1712 H1701 0.950 . S
C1712 C1710 1.391 . S
C1712 C1713 1.400 . S
C1713 C1707 1.491 . S
C1713 C1712 1.400 . S
C1713 C1714 1.398 . S
C1714 H1702 0.950 . S
C1714 C1713 1.398 . S
C1714 C1715 1.391 . S
C1715 H1703 0.950 . S
C1715 C1711 1.393 . S
C1715 C1714 1.391 . S
H1716 C1724 0.950 . S
H1717 C1729 0.950 . S
H1718 C1726 0.950 . S
H1719 C1728 0.950 . S
H1720 C1730 0.950 . S
H1721 C1732 0.950 . S
H1722 C1734 0.950 . S
H1723 C1735 0.950 . S
C1724 H1716 0.950 . S
C1724 C1725 1.386 . S
C1724 C1726 1.391 . S
C1725 C1724 1.386 . S
C1725 C1729 1.393 . S
C1726 H1718 0.950 . S
C1726 C1724 1.391 . S
C1726 C1727 1.400 . S
C1727 C1726 1.400 . S
C1727 C1728 1.398 . S
C1727 C1733 1.491 . S
C1728 H1719 0.950 . S
C1728 C1727 1.398 . S
C1728 C1729 1.391 . S
C1729 H1717 0.950 . S
C1729 C1725 1.393 . S
C1729 C1728 1.391 . S
C1730 H1720 0.950 . S
C1730 C1731 1.386 . S
C1730 C1732 1.391 . S
C1731 C1730 1.386 . S
C1731 C1735 1.393 . S
C1732 H1721 0.950 . S
C1732 C1730 1.391 . S
C1732 C1733 1.400 . S
C1733 C1727 1.491 . S
C1733 C1732 1.400 . S
C1733 C1734 1.398 . S
C1734 H1722 0.950 . S
C1734 C1733 1.398 . S
C1734 C1735 1.391 . S
C1735 H1723 0.950 . S
C1735 C1731 1.393 . S
C1735 C1734 1.391 . S
H1736 C1744 0.950 . S
H1737 C1749 0.950 . S
H1738 C1746 0.950 . S
H1739 C1748 0.950 . S
H1740 C1750 0.950 . S
H1741 C1752 0.950 . S
H1742 C1754 0.950 . S
H1743 C1755 0.950 1_565 S
C1744 H1736 0.950 . S
C1744 C1745 1.386 . S
C1744 C1746 1.391 . S
C1745 C1744 1.386 . S
C1745 C1749 1.393 . S
C1746 H1738 0.950 . S
C1746 C1744 1.391 . S
C1746 C1747 1.400 . S
C1747 C1746 1.400 . S
C1747 C1748 1.398 . S
C1747 C1753 1.491 . S
C1748 H1739 0.950 . S
C1748 C1747 1.398 . S
C1748 C1749 1.391 . S
C1749 H1737 0.950 . S
C1749 C1745 1.393 . S
C1749 C1748 1.391 . S
C1750 H1740 0.950 . S
C1750 C1751 1.386 . S
C1750 C1752 1.391 . S
C1751 C1750 1.386 . S
C1751 C1755 1.393 . S
C1752 H1741 0.950 . S
C1752 C1750 1.391 . S
C1752 C1753 1.400 . S
C1753 C1747 1.491 . S
C1753 C1752 1.400 . S
C1753 C1754 1.398 . S
C1754 H1742 0.950 . S
C1754 C1753 1.398 . S
C1754 C1755 1.391 . S
C1755 H1743 0.950 1_545 S
C1755 C1751 1.393 . S
C1755 C1754 1.391 . S
H1756 C1764 0.950 . S
H1757 C1769 0.950 . S
H1758 C1766 0.950 . S
H1759 C1768 0.950 . S
H1760 C1770 0.950 . S
H1761 C1772 0.950 . S
H1762 C1774 0.950 . S
H1763 C1775 0.950 . S
C1764 H1756 0.950 . S
C1764 C1765 1.386 . S
C1764 C1766 1.391 . S
C1765 C1764 1.386 . S
C1765 C1769 1.393 . S
C1766 H1758 0.950 . S
C1766 C1764 1.391 . S
C1766 C1767 1.400 . S
C1767 C1766 1.400 . S
C1767 C1768 1.398 . S
C1767 C1773 1.491 . S
C1768 H1759 0.950 . S
C1768 C1767 1.398 . S
C1768 C1769 1.391 . S
C1769 H1757 0.950 . S
C1769 C1765 1.393 . S
C1769 C1768 1.391 . S
C1770 H1760 0.950 . S
C1770 C1771 1.386 . S
C1770 C1772 1.391 . S
C1771 C1770 1.386 . S
C1771 C1775 1.393 . S
C1772 H1761 0.950 . S
C1772 C1770 1.391 . S
C1772 C1773 1.400 . S
C1773 C1767 1.491 . S
C1773 C1772 1.400 . S
C1773 C1774 1.398 . S
C1774 H1762 0.950 . S
C1774 C1773 1.398 . S
C1774 C1775 1.391 . S
C1775 H1763 0.950 . S
C1775 C1771 1.393 . S
C1775 C1774 1.391 . S
H1776 C1784 0.950 1_554 S
H1777 C1789 0.950 . S
H1778 C1786 0.950 . S
H1779 C1788 0.950 . S
H1780 C1790 0.950 . S
H1781 C1792 0.950 . S
H1782 C1794 0.950 . S
H1783 C1795 0.950 . S
C1784 H1776 0.950 1_556 S
C1784 C1785 1.386 . S
C1784 C1786 1.391 . S
C1785 C1784 1.386 . S
C1785 C1789 1.393 . S
C1786 H1778 0.950 . S
C1786 C1784 1.391 . S
C1786 C1787 1.400 . S
C1787 C1786 1.400 . S
C1787 C1788 1.398 . S
C1787 C1793 1.491 . S
C1788 H1779 0.950 . S
C1788 C1787 1.398 . S
C1788 C1789 1.391 . S
C1789 H1777 0.950 . S
C1789 C1785 1.393 . S
C1789 C1788 1.391 . S
C1790 H1780 0.950 . S
C1790 C1791 1.386 . S
C1790 C1792 1.391 . S
C1791 C1790 1.386 . S
C1791 C1795 1.393 . S
C1792 H1781 0.950 . S
C1792 C1790 1.391 . S
C1792 C1793 1.400 . S
C1793 C1787 1.491 . S
C1793 C1792 1.400 . S
C1793 C1794 1.398 . S
C1794 H1782 0.950 . S
C1794 C1793 1.398 . S
C1794 C1795 1.391 . S
C1795 H1783 0.950 . S
C1795 C1791 1.393 . S
C1795 C1794 1.391 . S
H1796 C1804 0.950 . S
H1797 C1809 0.950 1_556 S
H1798 C1806 0.950 . S
H1799 C1808 0.950 1_556 S
H1800 C1810 0.950 1_556 S
H1801 C1812 0.950 1_556 S
H1802 C1814 0.950 . S
H1803 C1815 0.950 . S
C1804 H1796 0.950 . S
C1804 C1805 1.386 . S
C1804 C1806 1.391 . S
C1805 C1804 1.386 . S
C1805 C1809 1.393 . S
C1806 H1798 0.950 . S
C1806 C1804 1.391 . S
C1806 C1807 1.400 . S
C1807 C1806 1.400 . S
C1807 C1808 1.398 . S
C1807 C1813 1.491 . S
C1808 H1799 0.950 1_554 S
C1808 C1807 1.398 . S
C1808 C1809 1.391 . S
C1809 H1797 0.950 1_554 S
C1809 C1805 1.393 . S
C1809 C1808 1.391 . S
C1810 H1800 0.950 1_554 S
C1810 C1811 1.386 . S
C1810 C1812 1.391 . S
C1811 C1810 1.386 . S
C1811 C1815 1.393 . S
C1812 H1801 0.950 1_554 S
C1812 C1810 1.391 . S
C1812 C1813 1.400 . S
C1813 C1807 1.491 . S
C1813 C1812 1.400 . S
C1813 C1814 1.398 . S
C1814 H1802 0.950 . S
C1814 C1813 1.398 . S
C1814 C1815 1.391 . S
C1815 H1803 0.950 . S
C1815 C1811 1.393 . S
C1815 C1814 1.391 . S
H1816 C1824 0.950 . S
H1817 C1829 0.950 . S
H1818 C1826 0.950 . S
H1819 C1828 0.950 . S
H1820 C1830 0.950 . S
H1821 C1832 0.950 . S
H1822 C1834 0.950 . S
H1823 C1835 0.950 . S
C1824 H1816 0.950 . S
C1824 C1825 1.386 . S
C1824 C1826 1.391 . S
C1825 C1824 1.386 . S
C1825 C1829 1.393 . S
C1826 H1818 0.950 . S
C1826 C1824 1.391 . S
C1826 C1827 1.400 . S
C1827 C1826 1.400 . S
C1827 C1828 1.398 . S
C1827 C1833 1.491 . S
C1828 H1819 0.950 . S
C1828 C1827 1.398 . S
C1828 C1829 1.391 . S
C1829 H1817 0.950 . S
C1829 C1825 1.393 . S
C1829 C1828 1.391 . S
C1830 H1820 0.950 . S
C1830 C1831 1.386 . S
C1830 C1832 1.391 . S
C1831 C1830 1.386 . S
C1831 C1835 1.393 . S
C1832 H1821 0.950 . S
C1832 C1830 1.391 . S
C1832 C1833 1.400 . S
C1833 C1827 1.491 . S
C1833 C1832 1.400 . S
C1833 C1834 1.398 . S
C1834 H1822 0.950 . S
C1834 C1833 1.398 . S
C1834 C1835 1.391 . S
C1835 H1823 0.950 . S
C1835 C1831 1.393 . S
C1835 C1834 1.391 . S
H1836 C1844 0.950 . S
H1837 C1849 0.950 . S
H1838 C1846 0.950 . S
H1839 C1848 0.950 . S
H1840 C1850 0.950 . S
H1841 C1852 0.950 . S
H1842 C1854 0.950 . S
H1843 C1855 0.950 . S
C1844 H1836 0.950 . S
C1844 C1845 1.386 . S
C1844 C1846 1.391 . S
C1845 C1844 1.386 . S
C1845 C1849 1.393 . S
C1846 H1838 0.950 . S
C1846 C1844 1.391 . S
C1846 C1847 1.400 . S
C1847 C1846 1.400 . S
C1847 C1848 1.398 . S
C1847 C1853 1.491 . S
C1848 H1839 0.950 . S
C1848 C1847 1.398 . S
C1848 C1849 1.391 . S
C1849 H1837 0.950 . S
C1849 C1845 1.393 . S
C1849 C1848 1.391 . S
C1850 H1840 0.950 . S
C1850 C1851 1.386 . S
C1850 C1852 1.391 . S
C1851 C1850 1.386 . S
C1851 C1855 1.393 . S
C1852 H1841 0.950 . S
C1852 C1850 1.391 . S
C1852 C1853 1.400 . S
C1853 C1847 1.491 . S
C1853 C1852 1.400 . S
C1853 C1854 1.398 . S
C1854 H1842 0.950 . S
C1854 C1853 1.398 . S
C1854 C1855 1.391 . S
C1855 H1843 0.950 . S
C1855 C1851 1.393 . S
C1855 C1854 1.391 . S
H1856 C1864 0.950 . S
H1857 C1869 0.950 . S
H1858 C1866 0.950 . S
H1859 C1868 0.950 . S
H1860 C1870 0.950 . S
H1861 C1872 0.950 . S
H1862 C1874 0.950 . S
H1863 C1875 0.950 . S
C1864 H1856 0.950 . S
C1864 C1865 1.386 . S
C1864 C1866 1.391 . S
C1865 C1864 1.386 . S
C1865 C1869 1.393 . S
C1866 H1858 0.950 . S
C1866 C1864 1.391 . S
C1866 C1867 1.400 . S
C1867 C1866 1.400 . S
C1867 C1868 1.398 . S
C1867 C1873 1.491 . S
C1868 H1859 0.950 . S
C1868 C1867 1.398 . S
C1868 C1869 1.391 . S
C1869 H1857 0.950 . S
C1869 C1865 1.393 . S
C1869 C1868 1.391 . S
C1870 H1860 0.950 . S
C1870 C1871 1.386 . S
C1870 C1872 1.391 . S
C1871 C1870 1.386 . S
C1871 C1875 1.393 . S
C1872 H1861 0.950 . S
C1872 C1870 1.391 . S
C1872 C1873 1.400 . S
C1873 C1867 1.491 . S
C1873 C1872 1.400 . S
C1873 C1874 1.398 . S
C1874 H1862 0.950 . S
C1874 C1873 1.398 . S
C1874 C1875 1.391 . S
C1875 H1863 0.950 . S
C1875 C1871 1.393 . S
C1875 C1874 1.391 . S
H1876 C1884 0.950 . S
H1877 C1889 0.950 . S
H1878 C1886 0.950 . S
H1879 C1888 0.950 . S
H1880 C1890 0.950 1_545 S
H1881 C1892 0.950 . S
H1882 C1894 0.950 . S
H1883 C1895 0.950 . S
C1884 H1876 0.950 . S
C1884 C1885 1.386 . S
C1884 C1886 1.391 . S
C1885 C1884 1.386 . S
C1885 C1889 1.393 . S
C1886 H1878 0.950 . S
C1886 C1884 1.391 . S
C1886 C1887 1.400 . S
C1887 C1886 1.400 . S
C1887 C1888 1.398 . S
C1887 C1893 1.491 . S
C1888 H1879 0.950 . S
C1888 C1887 1.398 . S
C1888 C1889 1.391 . S
C1889 H1877 0.950 . S
C1889 C1885 1.393 . S
C1889 C1888 1.391 . S
C1890 H1880 0.950 1_565 S
C1890 C1891 1.386 . S
C1890 C1892 1.391 . S
C1891 C1890 1.386 . S
C1891 C1895 1.393 . S
C1892 H1881 0.950 . S
C1892 C1890 1.391 . S
C1892 C1893 1.400 . S
C1893 C1887 1.491 . S
C1893 C1892 1.400 . S
C1893 C1894 1.398 . S
C1894 H1882 0.950 . S
C1894 C1893 1.398 . S
C1894 C1895 1.391 . S
C1895 H1883 0.950 . S
C1895 C1891 1.393 . S
C1895 C1894 1.391 . S
H1896 C1904 0.950 . S
H1897 C1909 0.950 . S
H1898 C1906 0.950 . S
H1899 C1908 0.950 . S
H1900 C1910 0.950 . S
H1901 C1912 0.950 . S
H1902 C1914 0.950 . S
H1903 C1915 0.950 . S
C1904 H1896 0.950 . S
C1904 C1905 1.386 . S
C1904 C1906 1.391 . S
C1905 C1904 1.386 . S
C1905 C1909 1.393 . S
C1906 H1898 0.950 . S
C1906 C1904 1.391 . S
C1906 C1907 1.400 . S
C1907 C1906 1.400 . S
C1907 C1908 1.398 . S
C1907 C1913 1.491 . S
C1908 H1899 0.950 . S
C1908 C1907 1.398 . S
C1908 C1909 1.391 . S
C1909 H1897 0.950 . S
C1909 C1905 1.393 . S
C1909 C1908 1.391 . S
C1910 H1900 0.950 . S
C1910 C1911 1.386 . S
C1910 C1912 1.391 . S
C1911 C1910 1.386 . S
C1911 C1915 1.393 . S
C1912 H1901 0.950 . S
C1912 C1910 1.391 . S
C1912 C1913 1.400 . S
C1913 C1907 1.491 . S
C1913 C1912 1.400 . S
C1913 C1914 1.398 . S
C1914 H1902 0.950 . S
C1914 C1913 1.398 . S
C1914 C1915 1.391 . S
C1915 H1903 0.950 . S
C1915 C1911 1.393 . S
C1915 C1914 1.391 . S
H1916 C1924 0.950 . S
H1917 C1929 0.950 . S
H1918 C1926 0.950 . S
H1919 C1928 0.950 . S
H1920 C1930 0.950 . S
H1921 C1932 0.950 . S
H1922 C1934 0.950 . S
H1923 C1935 0.950 . S
C1924 H1916 0.950 . S
C1924 C1925 1.386 . S
C1924 C1926 1.391 . S
C1925 C1924 1.386 . S
C1925 C1929 1.393 . S
C1926 H1918 0.950 . S
C1926 C1924 1.391 . S
C1926 C1927 1.400 . S
C1927 C1926 1.400 . S
C1927 C1928 1.398 . S
C1927 C1933 1.491 . S
C1928 H1919 0.950 . S
C1928 C1927 1.398 . S
C1928 C1929 1.391 . S
C1929 H1917 0.950 . S
C1929 C1925 1.393 . S
C1929 C1928 1.391 . S
C1930 H1920 0.950 . S
C1930 C1931 1.386 . S
C1930 C1932 1.391 . S
C1931 C1930 1.386 . S
C1931 C1935 1.393 . S
C1932 H1921 0.950 . S
C1932 C1930 1.391 . S
C1932 C1933 1.400 . S
C1933 C1927 1.491 . S
C1933 C1932 1.400 . S
C1933 C1934 1.398 . S
C1934 H1922 0.950 . S
C1934 C1933 1.398 . S
C1934 C1935 1.391 . S
C1935 H1923 0.950 . S
C1935 C1931 1.393 . S
C1935 C1934 1.391 . S
H1936 C1944 0.950 . S
H1937 C1949 0.950 . S
H1938 C1946 0.950 . S
H1939 C1948 0.950 . S
H1940 C1950 0.950 . S
H1941 C1952 0.950 . S
H1942 C1954 0.950 . S
H1943 C1955 0.950 . S
C1944 H1936 0.950 . S
C1944 C1945 1.386 . S
C1944 C1946 1.391 . S
C1945 C1944 1.386 . S
C1945 C1949 1.393 . S
C1946 H1938 0.950 . S
C1946 C1944 1.391 . S
C1946 C1947 1.400 . S
C1947 C1946 1.400 . S
C1947 C1948 1.398 . S
C1947 C1953 1.491 . S
C1948 H1939 0.950 . S
C1948 C1947 1.398 . S
C1948 C1949 1.391 . S
C1949 H1937 0.950 . S
C1949 C1945 1.393 . S
C1949 C1948 1.391 . S
C1950 H1940 0.950 . S
C1950 C1951 1.386 . S
C1950 C1952 1.391 . S
C1951 C1950 1.386 . S
C1951 C1955 1.393 . S
C1952 H1941 0.950 . S
C1952 C1950 1.391 . S
C1952 C1953 1.400 . S
C1953 C1947 1.491 . S
C1953 C1952 1.400 . S
C1953 C1954 1.398 . S
C1954 H1942 0.950 . S
C1954 C1953 1.398 . S
C1954 C1955 1.391 . S
C1955 H1943 0.950 . S
C1955 C1951 1.393 . S
C1955 C1954 1.391 . S
H1956 C1964 0.950 . S
H1957 C1969 0.950 . S
H1958 C1966 0.950 . S
H1959 C1968 0.950 . S
H1960 C1970 0.950 . S
H1961 C1972 0.950 . S
H1962 C1974 0.950 . S
H1963 C1975 0.950 . S
C1964 H1956 0.950 . S
C1964 C1965 1.386 . S
C1964 C1966 1.391 . S
C1965 C1964 1.386 . S
C1965 C1969 1.393 . S
C1966 H1958 0.950 . S
C1966 C1964 1.391 . S
C1966 C1967 1.400 . S
C1967 C1966 1.400 . S
C1967 C1968 1.398 . S
C1967 C1973 1.491 . S
C1968 H1959 0.950 . S
C1968 C1967 1.398 . S
C1968 C1969 1.391 . S
C1969 H1957 0.950 . S
C1969 C1965 1.393 . S
C1969 C1968 1.391 . S
C1970 H1960 0.950 . S
C1970 C1971 1.386 . S
C1970 C1972 1.391 . S
C1971 C1970 1.386 . S
C1971 C1975 1.393 . S
C1972 H1961 0.950 . S
C1972 C1970 1.391 . S
C1972 C1973 1.400 . S
C1973 C1967 1.491 . S
C1973 C1972 1.400 . S
C1973 C1974 1.398 . S
C1974 H1962 0.950 . S
C1974 C1973 1.398 . S
C1974 C1975 1.391 . S
C1975 H1963 0.950 . S
C1975 C1971 1.393 . S
C1975 C1974 1.391 . S
H1976 C1984 0.950 . S
H1977 C1989 0.950 1_655 S
H1978 C1986 0.950 . S
H1979 C1988 0.950 . S
H1980 C1990 0.950 . S
H1981 C1992 0.950 . S
H1982 C1994 0.950 . S
H1983 C1995 0.950 . S
C1984 H1976 0.950 . S
C1984 C1985 1.386 . S
C1984 C1986 1.391 . S
C1985 C1984 1.386 . S
C1985 C1989 1.393 . S
C1986 H1978 0.950 . S
C1986 C1984 1.391 . S
C1986 C1987 1.400 . S
C1987 C1986 1.400 . S
C1987 C1988 1.398 . S
C1987 C1993 1.491 . S
C1988 H1979 0.950 . S
C1988 C1987 1.398 . S
C1988 C1989 1.391 . S
C1989 H1977 0.950 1_455 S
C1989 C1985 1.393 . S
C1989 C1988 1.391 . S
C1990 H1980 0.950 . S
C1990 C1991 1.386 . S
C1990 C1992 1.391 . S
C1991 C1990 1.386 . S
C1991 C1995 1.393 . S
C1992 H1981 0.950 . S
C1992 C1990 1.391 . S
C1992 C1993 1.400 . S
C1993 C1987 1.491 . S
C1993 C1992 1.400 . S
C1993 C1994 1.398 . S
C1994 H1982 0.950 . S
C1994 C1993 1.398 . S
C1994 C1995 1.391 . S
C1995 H1983 0.950 . S
C1995 C1991 1.393 . S
C1995 C1994 1.391 . S
H1996 C2004 0.950 . S
H1997 C2009 0.950 . S
H1998 C2006 0.950 1_655 S
H1999 C2008 0.950 . S
H2000 C2010 0.950 . S
H2001 C2012 0.983 . S
H2002 C2014 0.950 . S
H2003 C2015 0.950 . S
C2004 H1996 0.950 . S
C2004 C2005 1.386 . S
C2004 C2006 1.391 . S
C2005 C2004 1.386 . S
C2005 C2009 1.393 . S
C2006 H1998 0.950 1_455 S
C2006 C2004 1.391 . S
C2006 C2007 1.400 . S
C2007 C2006 1.400 . S
C2007 C2008 1.398 . S
C2007 C2013 1.491 1_455 S
C2008 H1999 0.950 . S
C2008 C2007 1.398 . S
C2008 C2009 1.391 . S
C2009 H1997 0.950 . S
C2009 C2005 1.393 . S
C2009 C2008 1.391 . S
C2010 H2000 0.950 . S
C2010 C2011 1.386 . S
C2010 C2012 1.391 . S
C2011 C2010 1.386 . S
C2011 C2015 1.393 . S
C2012 H2001 0.983 . S
C2012 C2010 1.391 . S
C2012 C2013 1.400 . S
C2013 C2007 1.491 1_655 S
C2013 C2012 1.400 . S
C2013 C2014 1.398 . S
C2014 H2002 0.950 . S
C2014 C2013 1.398 . S
C2014 C2015 1.391 . S
C2015 H2003 0.950 . S
C2015 C2011 1.393 . S
C2015 C2014 1.391 . S
H2016 C2024 0.950 . S
H2017 C2029 0.950 . S
H2018 C2026 0.950 . S
H2019 C2028 0.950 . S
H2020 C2030 0.950 . S
H2021 C2032 0.950 . S
H2022 C2034 0.950 . S
H2023 C2035 0.950 . S
C2024 H2016 0.950 . S
C2024 C2025 1.386 . S
C2024 C2026 1.391 . S
C2025 C2024 1.386 . S
C2025 C2029 1.393 . S
C2026 H2018 0.950 . S
C2026 C2024 1.391 . S
C2026 C2027 1.400 . S
C2027 C2026 1.400 . S
C2027 C2028 1.398 . S
C2027 C2033 1.491 . S
C2028 H2019 0.950 . S
C2028 C2027 1.398 . S
C2028 C2029 1.391 . S
C2029 H2017 0.950 . S
C2029 C2025 1.393 . S
C2029 C2028 1.391 . S
C2030 H2020 0.950 . S
C2030 C2031 1.386 . S
C2030 C2032 1.391 . S
C2031 C2030 1.386 . S
C2031 C2035 1.393 . S
C2032 H2021 0.950 . S
C2032 C2030 1.391 . S
C2032 C2033 1.400 . S
C2033 C2027 1.491 . S
C2033 C2032 1.400 . S
C2033 C2034 1.398 . S
C2034 H2022 0.950 . S
C2034 C2033 1.398 . S
C2034 C2035 1.391 . S
C2035 H2023 0.950 . S
C2035 C2031 1.393 . S
C2035 C2034 1.391 . S
H2036 C2044 0.950 . S
H2037 C2049 0.950 . S
H2038 C2046 0.950 . S
H2039 C2048 0.950 . S
H2040 C2050 0.950 . S
H2041 C2052 0.950 . S
H2042 C2054 0.950 . S
H2043 C2055 0.950 . S
C2044 H2036 0.950 . S
C2044 C2045 1.386 . S
C2044 C2046 1.391 . S
C2045 C2044 1.386 . S
C2045 C2049 1.393 . S
C2046 H2038 0.950 . S
C2046 C2044 1.391 . S
C2046 C2047 1.400 . S
C2047 C2046 1.400 . S
C2047 C2048 1.398 . S
C2047 C2053 1.491 . S
C2048 H2039 0.950 . S
C2048 C2047 1.398 . S
C2048 C2049 1.391 . S
C2049 H2037 0.950 . S
C2049 C2045 1.393 . S
C2049 C2048 1.391 . S
C2050 H2040 0.950 . S
C2050 C2051 1.386 . S
C2050 C2052 1.391 . S
C2051 C2050 1.386 . S
C2051 C2055 1.393 . S
C2052 H2041 0.950 . S
C2052 C2050 1.391 . S
C2052 C2053 1.400 . S
C2053 C2047 1.491 . S
C2053 C2052 1.400 . S
C2053 C2054 1.398 . S
C2054 H2042 0.950 . S
C2054 C2053 1.398 . S
C2054 C2055 1.391 . S
C2055 H2043 0.950 . S
C2055 C2051 1.393 . S
C2055 C2054 1.391 . S
H2056 C2064 0.950 . S
H2057 C2069 0.950 . S
H2058 C2066 0.950 . S
H2059 C2068 0.950 . S
H2060 C2070 0.950 . S
H2061 C2072 0.950 . S
H2062 C2074 0.950 . S
H2063 C2075 0.950 . S
C2064 H2056 0.950 . S
C2064 C2065 1.386 . S
C2064 C2066 1.391 . S
C2065 C2064 1.386 . S
C2065 C2069 1.393 . S
C2066 H2058 0.950 . S
C2066 C2064 1.391 . S
C2066 C2067 1.400 . S
C2067 C2066 1.400 . S
C2067 C2068 1.398 . S
C2067 C2073 1.491 . S
C2068 H2059 0.950 . S
C2068 C2067 1.398 . S
C2068 C2069 1.391 . S
C2069 H2057 0.950 . S
C2069 C2065 1.393 . S
C2069 C2068 1.391 . S
C2070 H2060 0.950 . S
C2070 C2071 1.386 . S
C2070 C2072 1.391 . S
C2071 C2070 1.386 . S
C2071 C2075 1.393 . S
C2072 H2061 0.950 . S
C2072 C2070 1.391 . S
C2072 C2073 1.400 . S
C2073 C2067 1.491 . S
C2073 C2072 1.400 . S
C2073 C2074 1.398 . S
C2074 H2062 0.950 . S
C2074 C2073 1.398 . S
C2074 C2075 1.391 . S
C2075 H2063 0.950 . S
C2075 C2071 1.393 . S
C2075 C2074 1.391 . S
H2076 C2084 0.950 . S
H2077 C2089 0.950 . S
H2078 C2086 0.950 . S
H2079 C2088 0.950 . S
H2080 C2090 0.950 . S
H2081 C2092 0.950 . S
H2082 C2094 0.950 . S
H2083 C2095 0.950 . S
C2084 H2076 0.950 . S
C2084 C2085 1.386 . S
C2084 C2086 1.391 . S
C2085 C2084 1.386 . S
C2085 C2089 1.393 . S
C2086 H2078 0.950 . S
C2086 C2084 1.391 . S
C2086 C2087 1.400 . S
C2087 C2086 1.400 . S
C2087 C2088 1.398 . S
C2087 C2093 1.491 . S
C2088 H2079 0.950 . S
C2088 C2087 1.398 . S
C2088 C2089 1.391 . S
C2089 H2077 0.950 . S
C2089 C2085 1.393 . S
C2089 C2088 1.391 . S
C2090 H2080 0.950 . S
C2090 C2091 1.386 . S
C2090 C2092 1.391 . S
C2091 C2090 1.386 . S
C2091 C2095 1.393 . S
C2092 H2081 0.950 . S
C2092 C2090 1.391 . S
C2092 C2093 1.400 . S
C2093 C2087 1.491 . S
C2093 C2092 1.400 . S
C2093 C2094 1.398 . S
C2094 H2082 0.950 . S
C2094 C2093 1.398 . S
C2094 C2095 1.391 . S
C2095 H2083 0.950 . S
C2095 C2091 1.393 . S
C2095 C2094 1.391 . S
H2096 C2104 0.950 . S
H2097 C2109 0.950 . S
H2098 C2106 0.950 . S
H2099 C2108 0.950 . S
H2100 C2110 0.950 . S
H2101 C2112 0.950 . S
H2102 C2114 0.950 . S
H2103 C2115 0.950 . S
C2104 H2096 0.950 . S
C2104 C2105 1.386 . S
C2104 C2106 1.391 . S
C2105 C2104 1.386 . S
C2105 C2109 1.393 . S
C2106 H2098 0.950 . S
C2106 C2104 1.391 . S
C2106 C2107 1.400 . S
C2107 C2106 1.400 . S
C2107 C2108 1.398 . S
C2107 C2113 1.491 . S
C2108 H2099 0.950 . S
C2108 C2107 1.398 . S
C2108 C2109 1.391 . S
C2109 H2097 0.950 . S
C2109 C2105 1.393 . S
C2109 C2108 1.391 . S
C2110 H2100 0.950 . S
C2110 C2111 1.386 . S
C2110 C2112 1.391 . S
C2111 C2110 1.386 . S
C2111 C2115 1.393 . S
C2112 H2101 0.950 . S
C2112 C2110 1.391 . S
C2112 C2113 1.400 . S
C2113 C2107 1.491 . S
C2113 C2112 1.400 . S
C2113 C2114 1.398 . S
C2114 H2102 0.950 . S
C2114 C2113 1.398 . S
C2114 C2115 1.391 . S
C2115 H2103 0.950 . S
C2115 C2111 1.393 . S
C2115 C2114 1.391 . S
H2116 C2124 0.950 . S
H2117 C2129 0.950 . S
H2118 C2126 0.950 . S
H2119 C2128 0.950 . S
H2120 C2130 0.950 . S
H2121 C2132 0.950 . S
H2122 C2134 0.950 . S
H2123 C2135 0.950 . S
C2124 H2116 0.950 . S
C2124 C2125 1.386 . S
C2124 C2126 1.391 . S
C2125 C2124 1.386 . S
C2125 C2129 1.393 . S
C2126 H2118 0.950 . S
C2126 C2124 1.391 . S
C2126 C2127 1.400 . S
C2127 C2126 1.400 . S
C2127 C2128 1.398 . S
C2127 C2133 1.491 . S
C2128 H2119 0.950 . S
C2128 C2127 1.398 . S
C2128 C2129 1.391 . S
C2129 H2117 0.950 . S
C2129 C2125 1.393 . S
C2129 C2128 1.391 . S
C2130 H2120 0.950 . S
C2130 C2131 1.386 . S
C2130 C2132 1.391 . S
C2131 C2130 1.386 . S
C2131 C2135 1.393 . S
C2132 H2121 0.950 . S
C2132 C2130 1.391 . S
C2132 C2133 1.400 . S
C2133 C2127 1.491 . S
C2133 C2132 1.400 . S
C2133 C2134 1.398 . S
C2134 H2122 0.950 . S
C2134 C2133 1.398 . S
C2134 C2135 1.391 . S
C2135 H2123 0.950 . S
C2135 C2131 1.393 . S
C2135 C2134 1.391 . S
H2136 C2144 0.950 . S
H2137 C2149 0.950 . S
H2138 C2146 0.950 . S
H2139 C2148 0.950 . S
H2140 C2150 0.950 . S
H2141 C2152 0.950 . S
H2142 C2154 0.950 . S
H2143 C2155 0.950 . S
C2144 H2136 0.950 . S
C2144 C2145 1.386 . S
C2144 C2146 1.391 . S
C2145 C2144 1.386 . S
C2145 C2149 1.393 . S
C2146 H2138 0.950 . S
C2146 C2144 1.391 . S
C2146 C2147 1.400 . S
C2147 C2146 1.400 . S
C2147 C2148 1.398 . S
C2147 C2153 1.491 . S
C2148 H2139 0.950 . S
C2148 C2147 1.398 . S
C2148 C2149 1.391 . S
C2149 H2137 0.950 . S
C2149 C2145 1.393 . S
C2149 C2148 1.391 . S
C2150 H2140 0.950 . S
C2150 C2151 1.386 . S
C2150 C2152 1.391 . S
C2151 C2150 1.386 . S
C2151 C2155 1.393 . S
C2152 H2141 0.950 . S
C2152 C2150 1.391 . S
C2152 C2153 1.400 . S
C2153 C2147 1.491 . S
C2153 C2152 1.400 . S
C2153 C2154 1.398 . S
C2154 H2142 0.950 . S
C2154 C2153 1.398 . S
C2154 C2155 1.391 . S
C2155 H2143 0.950 . S
C2155 C2151 1.393 . S
C2155 C2154 1.391 . S
H2156 C2164 0.950 . S
H2157 C2169 0.950 . S
H2158 C2166 0.950 . S
H2159 C2168 0.950 . S
H2160 C2170 0.950 . S
H2161 C2172 0.950 . S
H2162 C2174 0.950 . S
H2163 C2175 0.950 . S
C2164 H2156 0.950 . S
C2164 C2165 1.386 . S
C2164 C2166 1.391 . S
C2165 C2164 1.386 . S
C2165 C2169 1.393 . S
C2166 H2158 0.950 . S
C2166 C2164 1.391 . S
C2166 C2167 1.400 . S
C2167 C2166 1.400 . S
C2167 C2168 1.398 . S
C2167 C2173 1.491 . S
C2168 H2159 0.950 . S
C2168 C2167 1.398 . S
C2168 C2169 1.391 . S
C2169 H2157 0.950 . S
C2169 C2165 1.393 . S
C2169 C2168 1.391 . S
C2170 H2160 0.950 . S
C2170 C2171 1.386 . S
C2170 C2172 1.391 . S
C2171 C2170 1.386 . S
C2171 C2175 1.393 . S
C2172 H2161 0.950 . S
C2172 C2170 1.391 . S
C2172 C2173 1.400 . S
C2173 C2167 1.491 . S
C2173 C2172 1.400 . S
C2173 C2174 1.398 . S
C2174 H2162 0.950 . S
C2174 C2173 1.398 . S
C2174 C2175 1.391 . S
C2175 H2163 0.950 . S
C2175 C2171 1.393 . S
C2175 C2174 1.391 . S
H2176 C2184 0.950 . S
H2177 C2189 0.950 . S
H2178 C2186 0.950 . S
H2179 C2188 0.950 . S
H2180 C2190 0.950 . S
H2181 C2192 0.950 . S
H2182 C2194 0.950 . S
H2183 C2195 0.950 . S
C2184 H2176 0.950 . S
C2184 C2185 1.386 . S
C2184 C2186 1.391 . S
C2185 C2184 1.386 . S
C2185 C2189 1.393 . S
C2186 H2178 0.950 . S
C2186 C2184 1.391 . S
C2186 C2187 1.400 . S
C2187 C2186 1.400 . S
C2187 C2188 1.398 . S
C2187 C2193 1.491 . S
C2188 H2179 0.950 . S
C2188 C2187 1.398 . S
C2188 C2189 1.391 . S
C2189 H2177 0.950 . S
C2189 C2185 1.393 . S
C2189 C2188 1.391 . S
C2190 H2180 0.950 . S
C2190 C2191 1.386 . S
C2190 C2192 1.391 . S
C2191 C2190 1.386 . S
C2191 C2195 1.393 . S
C2192 H2181 0.950 . S
C2192 C2190 1.391 . S
C2192 C2193 1.400 . S
C2193 C2187 1.491 . S
C2193 C2192 1.400 . S
C2193 C2194 1.398 . S
C2194 H2182 0.950 . S
C2194 C2193 1.398 . S
C2194 C2195 1.391 . S
C2195 H2183 0.950 . S
C2195 C2191 1.393 . S
C2195 C2194 1.391 . S
H2196 C2204 0.950 . S
H2197 C2209 0.950 . S
H2198 C2206 0.950 . S
H2199 C2208 0.950 . S
H2200 C2210 0.950 . S
H2201 C2212 0.950 . S
H2202 C2214 0.950 . S
H2203 C2215 0.950 . S
C2204 H2196 0.950 . S
C2204 C2205 1.386 . S
C2204 C2206 1.391 . S
C2205 C2204 1.386 . S
C2205 C2209 1.393 . S
C2206 H2198 0.950 . S
C2206 C2204 1.391 . S
C2206 C2207 1.400 . S
C2207 C2206 1.400 . S
C2207 C2208 1.398 . S
C2207 C2213 1.491 . S
C2208 H2199 0.950 . S
C2208 C2207 1.398 . S
C2208 C2209 1.391 . S
C2209 H2197 0.950 . S
C2209 C2205 1.393 . S
C2209 C2208 1.391 . S
C2210 H2200 0.950 . S
C2210 C2211 1.386 . S
C2210 C2212 1.391 . S
C2211 C2210 1.386 . S
C2211 C2215 1.393 . S
C2212 H2201 0.950 . S
C2212 C2210 1.391 . S
C2212 C2213 1.400 . S
C2213 C2207 1.491 . S
C2213 C2212 1.400 . S
C2213 C2214 1.398 . S
C2214 H2202 0.950 . S
C2214 C2213 1.398 . S
C2214 C2215 1.391 . S
C2215 H2203 0.950 . S
C2215 C2211 1.393 . S
C2215 C2214 1.391 . S
H2216 C2224 0.950 . S
H2217 C2229 0.950 . S
H2218 C2226 0.950 . S
H2219 C2228 0.950 . S
H2220 C2230 0.950 . S
H2221 C2232 0.950 . S
H2222 C2234 0.950 . S
H2223 C2235 0.950 . S
C2224 H2216 0.950 . S
C2224 C2225 1.386 . S
C2224 C2226 1.391 . S
C2225 C2224 1.386 . S
C2225 C2229 1.393 . S
C2226 H2218 0.950 . S
C2226 C2224 1.391 . S
C2226 C2227 1.400 . S
C2227 C2226 1.400 . S
C2227 C2228 1.398 . S
C2227 C2233 1.491 . S
C2228 H2219 0.950 . S
C2228 C2227 1.398 . S
C2228 C2229 1.391 . S
C2229 H2217 0.950 . S
C2229 C2225 1.393 . S
C2229 C2228 1.391 . S
C2230 H2220 0.950 . S
C2230 C2231 1.386 . S
C2230 C2232 1.391 . S
C2231 C2230 1.386 . S
C2231 C2235 1.393 . S
C2232 H2221 0.950 . S
C2232 C2230 1.391 . S
C2232 C2233 1.400 . S
C2233 C2227 1.491 . S
C2233 C2232 1.400 . S
C2233 C2234 1.398 . S
C2234 H2222 0.950 . S
C2234 C2233 1.398 . S
C2234 C2235 1.391 . S
C2235 H2223 0.950 . S
C2235 C2231 1.393 . S
C2235 C2234 1.391 . S
H2236 C2244 0.950 . S
H2237 C2249 0.950 . S
H2238 C2246 0.950 . S
H2239 C2248 0.950 . S
H2240 C2250 0.950 . S
H2241 C2252 0.950 . S
H2242 C2254 0.950 . S
H2243 C2255 0.950 . S
C2244 H2236 0.950 . S
C2244 C2245 1.386 . S
C2244 C2246 1.391 . S
C2245 C2244 1.386 . S
C2245 C2249 1.393 . S
C2246 H2238 0.950 . S
C2246 C2244 1.391 . S
C2246 C2247 1.400 . S
C2247 C2246 1.400 . S
C2247 C2248 1.398 . S
C2247 C2253 1.491 . S
C2248 H2239 0.950 . S
C2248 C2247 1.398 . S
C2248 C2249 1.391 . S
C2249 H2237 0.950 . S
C2249 C2245 1.393 . S
C2249 C2248 1.391 . S
C2250 H2240 0.950 . S
C2250 C2251 1.386 . S
C2250 C2252 1.391 . S
C2251 C2250 1.386 . S
C2251 C2255 1.393 . S
C2252 H2241 0.950 . S
C2252 C2250 1.391 . S
C2252 C2253 1.400 . S
C2253 C2247 1.491 . S
C2253 C2252 1.400 . S
C2253 C2254 1.398 . S
C2254 H2242 0.950 . S
C2254 C2253 1.398 . S
C2254 C2255 1.391 . S
C2255 H2243 0.950 . S
C2255 C2251 1.393 . S
C2255 C2254 1.391 . S
H2256 C2264 0.950 . S
H2257 C2269 0.950 . S
H2258 C2266 0.950 . S
H2259 C2268 0.950 . S
H2260 C2270 0.950 . S
H2261 C2272 0.950 . S
H2262 C2274 0.950 . S
H2263 C2275 0.950 . S
C2264 H2256 0.950 . S
C2264 C2265 1.386 . S
C2264 C2266 1.391 . S
C2265 C2264 1.386 . S
C2265 C2269 1.393 . S
C2266 H2258 0.950 . S
C2266 C2264 1.391 . S
C2266 C2267 1.400 . S
C2267 C2266 1.400 . S
C2267 C2268 1.398 . S
C2267 C2273 1.491 . S
C2268 H2259 0.950 . S
C2268 C2267 1.398 . S
C2268 C2269 1.391 . S
C2269 H2257 0.950 . S
C2269 C2265 1.393 . S
C2269 C2268 1.391 . S
C2270 H2260 0.950 . S
C2270 C2271 1.386 . S
C2270 C2272 1.391 . S
C2271 C2270 1.386 . S
C2271 C2275 1.393 . S
C2272 H2261 0.950 . S
C2272 C2270 1.391 . S
C2272 C2273 1.400 . S
C2273 C2267 1.491 . S
C2273 C2272 1.400 . S
C2273 C2274 1.398 . S
C2274 H2262 0.950 . S
C2274 C2273 1.398 . S
C2274 C2275 1.391 . S
C2275 H2263 0.950 . S
C2275 C2271 1.393 . S
C2275 C2274 1.391 . S
H2276 C2284 0.950 . S
H2277 C2289 0.950 . S
H2278 C2286 0.950 . S
H2279 C2288 0.950 . S
H2280 C2290 0.950 . S
H2281 C2292 0.950 . S
H2282 C2294 0.950 . S
H2283 C2295 0.950 . S
C2284 H2276 0.950 . S
C2284 C2285 1.386 . S
C2284 C2286 1.391 . S
C2285 C2284 1.386 . S
C2285 C2289 1.393 . S
C2286 H2278 0.950 . S
C2286 C2284 1.391 . S
C2286 C2287 1.400 . S
C2287 C2286 1.400 . S
C2287 C2288 1.398 . S
C2287 C2293 1.491 . S
C2288 H2279 0.950 . S
C2288 C2287 1.398 . S
C2288 C2289 1.391 . S
C2289 H2277 0.950 . S
C2289 C2285 1.393 . S
C2289 C2288 1.391 . S
C2290 H2280 0.950 . S
C2290 C2291 1.386 . S
C2290 C2292 1.391 . S
C2291 C2290 1.386 . S
C2291 C2295 1.393 . S
C2292 H2281 0.950 . S
C2292 C2290 1.391 . S
C2292 C2293 1.400 . S
C2293 C2287 1.491 . S
C2293 C2292 1.400 . S
C2293 C2294 1.398 . S
C2294 H2282 0.950 . S
C2294 C2293 1.398 . S
C2294 C2295 1.391 . S
C2295 H2283 0.950 . S
C2295 C2291 1.393 . S
C2295 C2294 1.391 . S
H2296 C2304 0.950 . S
H2297 C2309 0.950 . S
H2298 C2306 0.950 . S
H2299 C2308 0.950 . S
H2300 C2310 0.950 . S
H2301 C2312 0.950 . S
H2302 C2314 0.950 . S
H2303 C2315 0.950 . S
C2304 H2296 0.950 . S
C2304 C2305 1.386 . S
C2304 C2306 1.391 1_545 S
C2305 C2304 1.386 . S
C2305 C2309 1.393 . S
C2306 H2298 0.950 . S
C2306 C2304 1.391 1_565 S
C2306 C2307 1.400 . S
C2307 C2306 1.400 . S
C2307 C2308 1.398 . S
C2307 C2313 1.491 . S
C2308 H2299 0.950 . S
C2308 C2307 1.398 . S
C2308 C2309 1.391 1_565 S
C2309 H2297 0.950 . S
C2309 C2305 1.393 . S
C2309 C2308 1.391 1_545 S
C2310 H2300 0.950 . S
C2310 C2311 1.386 . S
C2310 C2312 1.391 . S
C2311 C2310 1.386 . S
C2311 C2315 1.393 . S
C2312 H2301 0.950 . S
C2312 C2310 1.391 . S
C2312 C2313 1.400 . S
C2313 C2307 1.491 . S
C2313 C2312 1.400 . S
C2313 C2314 1.398 . S
C2314 H2302 0.950 . S
C2314 C2313 1.398 . S
C2314 C2315 1.391 . S
C2315 H2303 0.950 . S
C2315 C2311 1.393 . S
C2315 C2314 1.391 . S
H2316 C2324 0.950 . S
H2317 C2329 0.950 . S
H2318 C2326 0.950 . S
H2319 C2328 0.950 . S
H2320 C2330 0.950 . S
H2321 C2332 0.950 . S
H2322 C2334 0.950 . S
H2323 C2335 0.950 . S
C2324 H2316 0.950 . S
C2324 C2325 1.386 . S
C2324 C2326 1.391 . S
C2325 C2324 1.386 . S
C2325 C2329 1.393 . S
C2326 H2318 0.950 . S
C2326 C2324 1.391 . S
C2326 C2327 1.400 . S
C2327 C2326 1.400 . S
C2327 C2328 1.398 . S
C2327 C2333 1.491 . S
C2328 H2319 0.950 . S
C2328 C2327 1.398 . S
C2328 C2329 1.391 . S
C2329 H2317 0.950 . S
C2329 C2325 1.393 . S
C2329 C2328 1.391 . S
C2330 H2320 0.950 . S
C2330 C2331 1.386 1_565 S
C2330 C2332 1.391 . S
C2331 C2330 1.386 1_545 S
C2331 C2335 1.393 . S
C2332 H2321 0.950 . S
C2332 C2330 1.391 . S
C2332 C2333 1.400 . S
C2333 C2327 1.491 . S
C2333 C2332 1.400 . S
C2333 C2334 1.398 . S
C2334 H2322 0.950 . S
C2334 C2333 1.398 . S
C2334 C2335 1.391 1_565 S
C2335 H2323 0.950 . S
C2335 C2331 1.393 . S
C2335 C2334 1.391 1_545 S
H2336 C2344 0.950 . S
H2337 C2349 0.950 . S
H2338 C2346 0.950 . S
H2339 C2348 0.950 . S
H2340 C2350 0.950 . S
H2341 C2352 0.950 . S
H2342 C2354 0.950 . S
H2343 C2355 0.950 . S
C2344 H2336 0.950 . S
C2344 C2345 1.386 . S
C2344 C2346 1.391 . S
C2345 C2344 1.386 . S
C2345 C2349 1.393 . S
C2346 H2338 0.950 . S
C2346 C2344 1.391 . S
C2346 C2347 1.400 . S
C2347 C2346 1.400 . S
C2347 C2348 1.398 . S
C2347 C2353 1.491 . S
C2348 H2339 0.950 . S
C2348 C2347 1.398 . S
C2348 C2349 1.391 . S
C2349 H2337 0.950 . S
C2349 C2345 1.393 . S
C2349 C2348 1.391 . S
C2350 H2340 0.950 . S
C2350 C2351 1.386 . S
C2350 C2352 1.391 . S
C2351 C2350 1.386 . S
C2351 C2355 1.393 . S
C2352 H2341 0.950 . S
C2352 C2350 1.391 . S
C2352 C2353 1.400 . S
C2353 C2347 1.491 . S
C2353 C2352 1.400 . S
C2353 C2354 1.398 . S
C2354 H2342 0.950 . S
C2354 C2353 1.398 . S
C2354 C2355 1.391 . S
C2355 H2343 0.950 . S
C2355 C2351 1.393 . S
C2355 C2354 1.391 . S
H2356 C2364 0.950 1_556 S
H2357 C2369 0.950 . S
H2358 C2366 0.950 1_556 S
H2359 C2368 0.950 . S
H2360 C2370 0.950 . S
H2361 C2372 0.950 . S
H2362 C2374 0.946 1_556 S
H2363 C2375 0.967 . S
C2364 H2356 0.950 1_554 S
C2364 C2365 1.386 . S
C2364 C2366 1.391 . S
C2365 C2364 1.386 . S
C2365 C2369 1.393 . S
C2366 H2358 0.950 1_554 S
C2366 C2364 1.391 . S
C2366 C2367 1.400 . S
C2367 C2366 1.400 . S
C2367 C2368 1.398 . S
C2367 C2373 1.491 . S
C2368 H2359 0.950 . S
C2368 C2367 1.398 . S
C2368 C2369 1.391 . S
C2369 H2357 0.950 . S
C2369 C2365 1.393 . S
C2369 C2368 1.391 . S
C2370 H2360 0.950 . S
C2370 C2371 1.386 . S
C2370 C2372 1.391 . S
C2371 C2370 1.386 . S
C2371 C2375 1.393 . S
C2372 H2361 0.950 . S
C2372 C2370 1.391 . S
C2372 C2373 1.400 . S
C2373 C2367 1.491 . S
C2373 C2372 1.400 . S
C2373 C2374 1.398 . S
C2374 H2362 0.946 1_554 S
C2374 C2373 1.398 . S
C2374 C2375 1.391 . S
C2375 H2363 0.967 . S
C2375 C2371 1.393 . S
C2375 C2374 1.391 . S
H2376 C2384 0.950 . S
H2377 C2389 0.950 . S
H2378 C2386 0.950 . S
H2379 C2388 0.950 . S
H2380 C2390 0.950 . S
H2381 C2392 0.950 . S
H2382 C2394 0.950 . S
H2383 C2395 0.950 . S
C2384 H2376 0.950 . S
C2384 C2385 1.386 . S
C2384 C2386 1.391 . S
C2385 C2384 1.386 . S
C2385 C2389 1.393 . S
C2386 H2378 0.950 . S
C2386 C2384 1.391 . S
C2386 C2387 1.400 . S
C2387 C2386 1.400 . S
C2387 C2388 1.398 . S
C2387 C2393 1.491 . S
C2388 H2379 0.950 . S
C2388 C2387 1.398 . S
C2388 C2389 1.391 . S
C2389 H2377 0.950 . S
C2389 C2385 1.393 . S
C2389 C2388 1.391 . S
C2390 H2380 0.950 . S
C2390 C2391 1.386 . S
C2390 C2392 1.391 . S
C2391 C2390 1.386 . S
C2391 C2395 1.393 . S
C2392 H2381 0.950 . S
C2392 C2390 1.391 . S
C2392 C2393 1.400 . S
C2393 C2387 1.491 . S
C2393 C2392 1.400 . S
C2393 C2394 1.398 . S
C2394 H2382 0.950 . S
C2394 C2393 1.398 . S
C2394 C2395 1.391 . S
C2395 H2383 0.950 . S
C2395 C2391 1.393 . S
C2395 C2394 1.391 . S
H2396 C2404 0.950 . S
H2397 C2409 0.950 . S
H2398 C2406 0.950 . S
H2399 C2408 0.950 . S
H2400 C2410 0.950 . S
H2401 C2412 0.950 . S
H2402 C2414 0.950 . S
H2403 C2415 0.950 . S
C2404 H2396 0.950 . S
C2404 C2405 1.386 . S
C2404 C2406 1.391 1_545 S
C2405 C2404 1.386 . S
C2405 C2409 1.393 . S
C2406 H2398 0.950 . S
C2406 C2404 1.391 1_565 S
C2406 C2407 1.400 . S
C2407 C2406 1.400 . S
C2407 C2408 1.398 1_565 S
C2407 C2413 1.491 . S
C2408 H2399 0.950 . S
C2408 C2407 1.398 1_545 S
C2408 C2409 1.391 . S
C2409 H2397 0.950 . S
C2409 C2405 1.393 . S
C2409 C2408 1.391 . S
C2410 H2400 0.950 . S
C2410 C2411 1.386 . S
C2410 C2412 1.391 . S
C2411 C2410 1.386 . S
C2411 C2415 1.393 . S
C2412 H2401 0.950 . S
C2412 C2410 1.391 . S
C2412 C2413 1.400 . S
C2413 C2407 1.491 . S
C2413 C2412 1.400 . S
C2413 C2414 1.398 . S
C2414 H2402 0.950 . S
C2414 C2413 1.398 . S
C2414 C2415 1.391 . S
C2415 H2403 0.950 . S
C2415 C2411 1.393 . S
C2415 C2414 1.391 . S
H2416 C2424 0.950 . S
H2417 C2429 0.950 . S
H2418 C2426 0.950 . S
H2419 C2428 0.950 . S
H2420 C2430 0.950 . S
H2421 C2432 0.950 . S
H2422 C2434 0.950 . S
H2423 C2435 0.950 . S
C2424 H2416 0.950 . S
C2424 C2425 1.386 . S
C2424 C2426 1.391 . S
C2425 C2424 1.386 . S
C2425 C2429 1.393 . S
C2426 H2418 0.950 . S
C2426 C2424 1.391 . S
C2426 C2427 1.400 . S
C2427 C2426 1.400 . S
C2427 C2428 1.398 . S
C2427 C2433 1.491 . S
C2428 H2419 0.950 . S
C2428 C2427 1.398 . S
C2428 C2429 1.391 . S
C2429 H2417 0.950 . S
C2429 C2425 1.393 . S
C2429 C2428 1.391 . S
C2430 H2420 0.950 . S
C2430 C2431 1.386 . S
C2430 C2432 1.391 . S
C2431 C2430 1.386 . S
C2431 C2435 1.393 . S
C2432 H2421 0.950 . S
C2432 C2430 1.391 . S
C2432 C2433 1.400 . S
C2433 C2427 1.491 . S
C2433 C2432 1.400 . S
C2433 C2434 1.398 . S
C2434 H2422 0.950 . S
C2434 C2433 1.398 . S
C2434 C2435 1.391 . S
C2435 H2423 0.950 . S
C2435 C2431 1.393 . S
C2435 C2434 1.391 . S
H2436 C2444 0.950 . S
H2437 C2449 0.950 . S
H2438 C2446 0.950 . S
H2439 C2448 0.950 . S
H2440 C2450 0.950 . S
H2441 C2452 0.950 . S
H2442 C2454 0.950 . S
H2443 C2455 0.950 . S
C2444 H2436 0.950 . S
C2444 C2445 1.386 . S
C2444 C2446 1.391 . S
C2445 C2444 1.386 . S
C2445 C2449 1.393 . S
C2446 H2438 0.950 . S
C2446 C2444 1.391 . S
C2446 C2447 1.400 . S
C2447 C2446 1.400 . S
C2447 C2448 1.398 . S
C2447 C2453 1.491 . S
C2448 H2439 0.950 . S
C2448 C2447 1.398 . S
C2448 C2449 1.391 . S
C2449 H2437 0.950 . S
C2449 C2445 1.393 . S
C2449 C2448 1.391 . S
C2450 H2440 0.950 . S
C2450 C2451 1.386 . S
C2450 C2452 1.391 . S
C2451 C2450 1.386 . S
C2451 C2455 1.393 . S
C2452 H2441 0.950 . S
C2452 C2450 1.391 . S
C2452 C2453 1.400 . S
C2453 C2447 1.491 . S
C2453 C2452 1.400 . S
C2453 C2454 1.398 . S
C2454 H2442 0.950 . S
C2454 C2453 1.398 . S
C2454 C2455 1.391 . S
C2455 H2443 0.950 . S
C2455 C2451 1.393 . S
C2455 C2454 1.391 . S
H2456 C2464 0.950 . S
H2457 C2469 0.950 . S
H2458 C2466 0.950 . S
H2459 C2468 0.950 . S
H2460 C2470 0.950 . S
H2461 C2472 0.950 . S
H2462 C2474 0.950 . S
H2463 C2475 0.950 . S
C2464 H2456 0.950 . S
C2464 C2465 1.386 . S
C2464 C2466 1.391 . S
C2465 C2464 1.386 . S
C2465 C2469 1.393 . S
C2466 H2458 0.950 . S
C2466 C2464 1.391 . S
C2466 C2467 1.400 . S
C2467 C2466 1.400 . S
C2467 C2468 1.398 . S
C2467 C2473 1.491 . S
C2468 H2459 0.950 . S
C2468 C2467 1.398 . S
C2468 C2469 1.391 . S
C2469 H2457 0.950 . S
C2469 C2465 1.393 . S
C2469 C2468 1.391 . S
C2470 H2460 0.950 . S
C2470 C2471 1.386 . S
C2470 C2472 1.391 . S
C2471 C2470 1.386 . S
C2471 C2475 1.393 . S
C2472 H2461 0.950 . S
C2472 C2470 1.391 . S
C2472 C2473 1.400 . S
C2473 C2467 1.491 . S
C2473 C2472 1.400 . S
C2473 C2474 1.398 . S
C2474 H2462 0.950 . S
C2474 C2473 1.398 . S
C2474 C2475 1.391 . S
C2475 H2463 0.950 . S
C2475 C2471 1.393 . S
C2475 C2474 1.391 . S
H2476 C2484 0.950 . S
H2477 C2489 0.950 . S
H2478 C2486 0.950 . S
H2479 C2488 0.950 . S
H2480 C2490 0.950 . S
H2481 C2492 0.950 . S
H2482 C2494 0.950 . S
H2483 C2495 0.950 . S
C2484 H2476 0.950 . S
C2484 C2485 1.386 . S
C2484 C2486 1.391 . S
C2485 C2484 1.386 . S
C2485 C2489 1.393 . S
C2486 H2478 0.950 . S
C2486 C2484 1.391 . S
C2486 C2487 1.400 . S
C2487 C2486 1.400 . S
C2487 C2488 1.398 . S
C2487 C2493 1.491 . S
C2488 H2479 0.950 . S
C2488 C2487 1.398 . S
C2488 C2489 1.391 . S
C2489 H2477 0.950 . S
C2489 C2485 1.393 . S
C2489 C2488 1.391 . S
C2490 H2480 0.950 . S
C2490 C2491 1.386 . S
C2490 C2492 1.391 . S
C2491 C2490 1.386 . S
C2491 C2495 1.393 . S
C2492 H2481 0.950 . S
C2492 C2490 1.391 . S
C2492 C2493 1.400 . S
C2493 C2487 1.491 . S
C2493 C2492 1.400 . S
C2493 C2494 1.398 . S
C2494 H2482 0.950 . S
C2494 C2493 1.398 . S
C2494 C2495 1.391 . S
C2495 H2483 0.950 . S
C2495 C2491 1.393 . S
C2495 C2494 1.391 . S
H2496 C2504 0.950 . S
H2497 C2509 0.950 . S
H2498 C2506 0.950 . S
H2499 C2508 0.950 . S
H2500 C2510 0.950 . S
H2501 C2512 0.950 . S
H2502 C2514 0.950 . S
H2503 C2515 0.950 1_554 S
C2504 H2496 0.950 . S
C2504 C2505 1.386 . S
C2504 C2506 1.391 . S
C2505 C2504 1.386 . S
C2505 C2509 1.393 . S
C2506 H2498 0.950 . S
C2506 C2504 1.391 . S
C2506 C2507 1.400 . S
C2507 C2506 1.400 . S
C2507 C2508 1.398 . S
C2507 C2513 1.491 . S
C2508 H2499 0.950 . S
C2508 C2507 1.398 . S
C2508 C2509 1.391 . S
C2509 H2497 0.950 . S
C2509 C2505 1.393 . S
C2509 C2508 1.391 . S
C2510 H2500 0.950 . S
C2510 C2511 1.386 . S
C2510 C2512 1.391 . S
C2511 C2510 1.386 . S
C2511 C2515 1.393 . S
C2512 H2501 0.950 . S
C2512 C2510 1.391 . S
C2512 C2513 1.400 . S
C2513 C2507 1.491 . S
C2513 C2512 1.400 . S
C2513 C2514 1.398 . S
C2514 H2502 0.950 . S
C2514 C2513 1.398 . S
C2514 C2515 1.391 . S
C2515 H2503 0.950 1_556 S
C2515 C2511 1.393 . S
C2515 C2514 1.391 . S
H2516 C2524 0.950 . S
H2517 C2529 0.950 . S
H2518 C2526 0.950 . S
H2519 C2528 0.950 . S
H2520 C2530 0.950 . S
H2521 C2532 0.950 . S
H2522 C2534 0.950 . S
H2523 C2535 0.950 . S
C2524 H2516 0.950 . S
C2524 C2525 1.386 . S
C2524 C2526 1.391 . S
C2525 C2524 1.386 . S
C2525 C2529 1.393 . S
C2526 H2518 0.950 . S
C2526 C2524 1.391 . S
C2526 C2527 1.400 . S
C2527 C2526 1.400 . S
C2527 C2528 1.398 . S
C2527 C2533 1.491 . S
C2528 H2519 0.950 . S
C2528 C2527 1.398 . S
C2528 C2529 1.391 . S
C2529 H2517 0.950 . S
C2529 C2525 1.393 . S
C2529 C2528 1.391 . S
C2530 H2520 0.950 . S
C2530 C2531 1.386 . S
C2530 C2532 1.391 . S
C2531 C2530 1.386 . S
C2531 C2535 1.393 . S
C2532 H2521 0.950 . S
C2532 C2530 1.391 . S
C2532 C2533 1.400 . S
C2533 C2527 1.491 . S
C2533 C2532 1.400 . S
C2533 C2534 1.398 . S
C2534 H2522 0.950 . S
C2534 C2533 1.398 . S
C2534 C2535 1.391 . S
C2535 H2523 0.950 . S
C2535 C2531 1.393 . S
C2535 C2534 1.391 . S
H2536 C2544 0.950 . S
H2537 C2549 0.950 . S
H2538 C2546 0.950 . S
H2539 C2548 0.950 . S
H2540 C2550 0.950 . S
H2541 C2552 0.950 . S
H2542 C2554 0.950 . S
H2543 C2555 0.950 . S
C2544 H2536 0.950 . S
C2544 C2545 1.386 . S
C2544 C2546 1.391 . S
C2545 C2544 1.386 . S
C2545 C2549 1.393 . S
C2546 H2538 0.950 . S
C2546 C2544 1.391 . S
C2546 C2547 1.400 . S
C2547 C2546 1.400 . S
C2547 C2548 1.398 . S
C2547 C2553 1.491 . S
C2548 H2539 0.950 . S
C2548 C2547 1.398 . S
C2548 C2549 1.391 . S
C2549 H2537 0.950 . S
C2549 C2545 1.393 . S
C2549 C2548 1.391 . S
C2550 H2540 0.950 . S
C2550 C2551 1.386 . S
C2550 C2552 1.391 . S
C2551 C2550 1.386 . S
C2551 C2555 1.393 . S
C2552 H2541 0.950 . S
C2552 C2550 1.391 . S
C2552 C2553 1.400 . S
C2553 C2547 1.491 . S
C2553 C2552 1.400 . S
C2553 C2554 1.398 . S
C2554 H2542 0.950 . S
C2554 C2553 1.398 . S
C2554 C2555 1.391 . S
C2555 H2543 0.950 . S
C2555 C2551 1.393 . S
C2555 C2554 1.391 . S
H2556 C2564 0.950 . S
H2557 C2569 0.950 . S
H2558 C2566 0.950 . S
H2559 C2568 0.950 . S
H2560 C2570 0.950 . S
H2561 C2572 0.950 . S
H2562 C2574 0.950 . S
H2563 C2575 0.950 . S
C2564 H2556 0.950 . S
C2564 C2565 1.386 . S
C2564 C2566 1.391 . S
C2565 C2564 1.386 . S
C2565 C2569 1.393 . S
C2566 H2558 0.950 . S
C2566 C2564 1.391 . S
C2566 C2567 1.400 . S
C2567 C2566 1.400 . S
C2567 C2568 1.398 . S
C2567 C2573 1.491 . S
C2568 H2559 0.950 . S
C2568 C2567 1.398 . S
C2568 C2569 1.391 . S
C2569 H2557 0.950 . S
C2569 C2565 1.393 . S
C2569 C2568 1.391 . S
C2570 H2560 0.950 . S
C2570 C2571 1.386 . S
C2570 C2572 1.391 . S
C2571 C2570 1.386 . S
C2571 C2575 1.393 . S
C2572 H2561 0.950 . S
C2572 C2570 1.391 . S
C2572 C2573 1.400 . S
C2573 C2567 1.491 . S
C2573 C2572 1.400 . S
C2573 C2574 1.398 . S
C2574 H2562 0.950 . S
C2574 C2573 1.398 . S
C2574 C2575 1.391 . S
C2575 H2563 0.950 . S
C2575 C2571 1.393 . S
C2575 C2574 1.391 . S
H2576 C2584 0.950 . S
H2577 C2589 0.950 . S
H2578 C2586 0.950 . S
H2579 C2588 0.950 . S
H2580 C2590 0.950 . S
H2581 C2592 0.950 . S
H2582 C2594 0.950 . S
H2583 C2595 0.950 . S
C2584 H2576 0.950 . S
C2584 C2585 1.386 . S
C2584 C2586 1.391 . S
C2585 C2584 1.386 . S
C2585 C2589 1.393 . S
C2586 H2578 0.950 . S
C2586 C2584 1.391 . S
C2586 C2587 1.400 . S
C2587 C2586 1.400 . S
C2587 C2588 1.398 . S
C2587 C2593 1.491 . S
C2588 H2579 0.950 . S
C2588 C2587 1.398 . S
C2588 C2589 1.391 . S
C2589 H2577 0.950 . S
C2589 C2585 1.393 . S
C2589 C2588 1.391 . S
C2590 H2580 0.950 . S
C2590 C2591 1.386 . S
C2590 C2592 1.391 . S
C2591 C2590 1.386 . S
C2591 C2595 1.393 . S
C2592 H2581 0.950 . S
C2592 C2590 1.391 . S
C2592 C2593 1.400 . S
C2593 C2587 1.491 . S
C2593 C2592 1.400 . S
C2593 C2594 1.398 . S
C2594 H2582 0.950 . S
C2594 C2593 1.398 . S
C2594 C2595 1.391 . S
C2595 H2583 0.950 . S
C2595 C2591 1.393 . S
C2595 C2594 1.391 . S
H2596 C2604 0.950 . S
H2597 C2609 0.950 . S
H2598 C2606 0.950 . S
H2599 C2608 0.950 . S
H2600 C2610 0.950 . S
H2601 C2612 0.950 . S
H2602 C2614 0.950 . S
H2603 C2615 0.950 . S
C2604 H2596 0.950 . S
C2604 C2605 1.386 . S
C2604 C2606 1.391 . S
C2605 C2604 1.386 . S
C2605 C2609 1.393 . S
C2606 H2598 0.950 . S
C2606 C2604 1.391 . S
C2606 C2607 1.400 . S
C2607 C2606 1.400 . S
C2607 C2608 1.398 . S
C2607 C2613 1.491 . S
C2608 H2599 0.950 . S
C2608 C2607 1.398 . S
C2608 C2609 1.391 . S
C2609 H2597 0.950 . S
C2609 C2605 1.393 . S
C2609 C2608 1.391 . S
C2610 H2600 0.950 . S
C2610 C2611 1.386 . S
C2610 C2612 1.391 . S
C2611 C2610 1.386 . S
C2611 C2615 1.393 . S
C2612 H2601 0.950 . S
C2612 C2610 1.391 . S
C2612 C2613 1.400 . S
C2613 C2607 1.491 . S
C2613 C2612 1.400 . S
C2613 C2614 1.398 . S
C2614 H2602 0.950 . S
C2614 C2613 1.398 . S
C2614 C2615 1.391 . S
C2615 H2603 0.950 . S
C2615 C2611 1.393 . S
C2615 C2614 1.391 . S
H2616 C2624 0.950 . S
H2617 C2629 0.950 . S
H2618 C2626 0.950 . S
H2619 C2628 0.950 . S
H2620 C2630 0.950 . S
H2621 C2632 0.950 . S
H2622 C2634 0.950 . S
H2623 C2635 0.950 . S
C2624 H2616 0.950 . S
C2624 C2625 1.386 . S
C2624 C2626 1.391 . S
C2625 C2624 1.386 . S
C2625 C2629 1.393 . S
C2626 H2618 0.950 . S
C2626 C2624 1.391 . S
C2626 C2627 1.400 . S
C2627 C2626 1.400 . S
C2627 C2628 1.398 . S
C2627 C2633 1.491 . S
C2628 H2619 0.950 . S
C2628 C2627 1.398 . S
C2628 C2629 1.391 . S
C2629 H2617 0.950 . S
C2629 C2625 1.393 . S
C2629 C2628 1.391 . S
C2630 H2620 0.950 . S
C2630 C2631 1.386 . S
C2630 C2632 1.391 . S
C2631 C2630 1.386 . S
C2631 C2635 1.393 . S
C2632 H2621 0.950 . S
C2632 C2630 1.391 . S
C2632 C2633 1.400 . S
C2633 C2627 1.491 . S
C2633 C2632 1.400 . S
C2633 C2634 1.398 . S
C2634 H2622 0.950 . S
C2634 C2633 1.398 . S
C2634 C2635 1.391 . S
C2635 H2623 0.950 . S
C2635 C2631 1.393 . S
C2635 C2634 1.391 . S
H2636 C2644 0.950 . S
H2637 C2649 0.950 . S
H2638 C2646 0.950 . S
H2639 C2648 0.950 . S
H2640 C2650 0.950 . S
H2641 C2652 0.950 . S
H2642 C2654 0.950 . S
H2643 C2655 0.950 . S
C2644 H2636 0.950 . S
C2644 C2645 1.386 . S
C2644 C2646 1.391 . S
C2645 C2644 1.386 . S
C2645 C2649 1.393 . S
C2646 H2638 0.950 . S
C2646 C2644 1.391 . S
C2646 C2647 1.400 . S
C2647 C2646 1.400 . S
C2647 C2648 1.398 . S
C2647 C2653 1.491 . S
C2648 H2639 0.950 . S
C2648 C2647 1.398 . S
C2648 C2649 1.391 . S
C2649 H2637 0.950 . S
C2649 C2645 1.393 . S
C2649 C2648 1.391 . S
C2650 H2640 0.950 . S
C2650 C2651 1.386 . S
C2650 C2652 1.391 . S
C2651 C2650 1.386 . S
C2651 C2655 1.393 . S
C2652 H2641 0.950 . S
C2652 C2650 1.391 . S
C2652 C2653 1.400 . S
C2653 C2647 1.491 . S
C2653 C2652 1.400 . S
C2653 C2654 1.398 . S
C2654 H2642 0.950 . S
C2654 C2653 1.398 . S
C2654 C2655 1.391 . S
C2655 H2643 0.950 . S
C2655 C2651 1.393 . S
C2655 C2654 1.391 . S
H2656 C2664 0.950 . S
H2657 C2669 0.950 . S
H2658 C2666 0.950 . S
H2659 C2668 0.950 . S
H2660 C2670 0.950 . S
H2661 C2672 0.950 . S
H2662 C2674 0.950 . S
H2663 C2675 0.950 . S
C2664 H2656 0.950 . S
C2664 C2665 1.386 . S
C2664 C2666 1.391 . S
C2665 C2664 1.386 . S
C2665 C2669 1.393 . S
C2666 H2658 0.950 . S
C2666 C2664 1.391 . S
C2666 C2667 1.400 . S
C2667 C2666 1.400 . S
C2667 C2668 1.398 . S
C2667 C2673 1.491 . S
C2668 H2659 0.950 . S
C2668 C2667 1.398 . S
C2668 C2669 1.391 . S
C2669 H2657 0.950 . S
C2669 C2665 1.393 . S
C2669 C2668 1.391 . S
C2670 H2660 0.950 . S
C2670 C2671 1.386 . S
C2670 C2672 1.391 . S
C2671 C2670 1.386 . S
C2671 C2675 1.393 . S
C2672 H2661 0.950 . S
C2672 C2670 1.391 . S
C2672 C2673 1.400 . S
C2673 C2667 1.491 . S
C2673 C2672 1.400 . S
C2673 C2674 1.398 . S
C2674 H2662 0.950 . S
C2674 C2673 1.398 . S
C2674 C2675 1.391 . S
C2675 H2663 0.950 . S
C2675 C2671 1.393 . S
C2675 C2674 1.391 . S
H2676 C2684 0.950 . S
H2677 C2689 0.950 . S
H2678 C2686 0.950 . S
H2679 C2688 0.950 . S
H2680 C2690 0.950 . S
H2681 C2692 0.950 . S
H2682 C2694 0.950 . S
H2683 C2695 0.950 . S
C2684 H2676 0.950 . S
C2684 C2685 1.386 . S
C2684 C2686 1.391 . S
C2685 C2684 1.386 . S
C2685 C2689 1.393 . S
C2686 H2678 0.950 . S
C2686 C2684 1.391 . S
C2686 C2687 1.400 . S
C2687 C2686 1.400 . S
C2687 C2688 1.398 . S
C2687 C2693 1.491 . S
C2688 H2679 0.950 . S
C2688 C2687 1.398 . S
C2688 C2689 1.391 . S
C2689 H2677 0.950 . S
C2689 C2685 1.393 . S
C2689 C2688 1.391 . S
C2690 H2680 0.950 . S
C2690 C2691 1.386 . S
C2690 C2692 1.391 . S
C2691 C2690 1.386 . S
C2691 C2695 1.393 . S
C2692 H2681 0.950 . S
C2692 C2690 1.391 . S
C2692 C2693 1.400 . S
C2693 C2687 1.491 . S
C2693 C2692 1.400 . S
C2693 C2694 1.398 . S
C2694 H2682 0.950 . S
C2694 C2693 1.398 . S
C2694 C2695 1.391 . S
C2695 H2683 0.950 . S
C2695 C2691 1.393 . S
C2695 C2694 1.391 . S
H2696 C2704 0.950 . S
H2697 C2709 0.950 . S
H2698 C2706 0.950 . S
H2699 C2708 0.950 . S
H2700 C2710 0.950 . S
H2701 C2712 0.950 . S
H2702 C2714 0.950 . S
H2703 C2715 0.950 . S
C2704 H2696 0.950 . S
C2704 C2705 1.386 . S
C2704 C2706 1.391 . S
C2705 C2704 1.386 . S
C2705 C2709 1.393 . S
C2706 H2698 0.950 . S
C2706 C2704 1.391 . S
C2706 C2707 1.400 . S
C2707 C2706 1.400 . S
C2707 C2708 1.398 . S
C2707 C2713 1.491 . S
C2708 H2699 0.950 . S
C2708 C2707 1.398 . S
C2708 C2709 1.391 . S
C2709 H2697 0.950 . S
C2709 C2705 1.393 . S
C2709 C2708 1.391 . S
C2710 H2700 0.950 . S
C2710 C2711 1.386 . S
C2710 C2712 1.391 . S
C2711 C2710 1.386 . S
C2711 C2715 1.393 . S
C2712 H2701 0.950 . S
C2712 C2710 1.391 . S
C2712 C2713 1.400 . S
C2713 C2707 1.491 . S
C2713 C2712 1.400 . S
C2713 C2714 1.398 . S
C2714 H2702 0.950 . S
C2714 C2713 1.398 . S
C2714 C2715 1.391 . S
C2715 H2703 0.950 . S
C2715 C2711 1.393 . S
C2715 C2714 1.391 . S
H2716 C2724 0.950 . S
H2717 C2729 0.950 . S
H2718 C2726 0.950 . S
H2719 C2728 0.950 . S
H2720 C2730 0.950 . S
H2721 C2732 0.950 . S
H2722 C2734 0.950 . S
H2723 C2735 0.950 . S
C2724 H2716 0.950 . S
C2724 C2725 1.386 . S
C2724 C2726 1.391 . S
C2725 C2724 1.386 . S
C2725 C2729 1.393 . S
C2726 H2718 0.950 . S
C2726 C2724 1.391 . S
C2726 C2727 1.400 . S
C2727 C2726 1.400 . S
C2727 C2728 1.398 . S
C2727 C2733 1.491 . S
C2728 H2719 0.950 . S
C2728 C2727 1.398 . S
C2728 C2729 1.391 . S
C2729 H2717 0.950 . S
C2729 C2725 1.393 . S
C2729 C2728 1.391 . S
C2730 H2720 0.950 . S
C2730 C2731 1.386 . S
C2730 C2732 1.391 . S
C2731 C2730 1.386 . S
C2731 C2735 1.393 . S
C2732 H2721 0.950 . S
C2732 C2730 1.391 . S
C2732 C2733 1.400 . S
C2733 C2727 1.491 . S
C2733 C2732 1.400 . S
C2733 C2734 1.398 . S
C2734 H2722 0.950 . S
C2734 C2733 1.398 . S
C2734 C2735 1.391 . S
C2735 H2723 0.950 . S
C2735 C2731 1.393 . S
C2735 C2734 1.391 . S
H2736 C2744 0.950 . S
H2737 C2749 0.950 . S
H2738 C2746 0.950 . S
H2739 C2748 0.950 . S
H2740 C2750 0.950 . S
H2741 C2752 0.950 . S
H2742 C2754 0.950 . S
H2743 C2755 0.950 . S
C2744 H2736 0.950 . S
C2744 C2745 1.386 . S
C2744 C2746 1.391 . S
C2745 C2744 1.386 . S
C2745 C2749 1.393 . S
C2746 H2738 0.950 . S
C2746 C2744 1.391 . S
C2746 C2747 1.400 . S
C2747 C2746 1.400 . S
C2747 C2748 1.398 . S
C2747 C2753 1.491 . S
C2748 H2739 0.950 . S
C2748 C2747 1.398 . S
C2748 C2749 1.391 . S
C2749 H2737 0.950 . S
C2749 C2745 1.393 . S
C2749 C2748 1.391 . S
C2750 H2740 0.950 . S
C2750 C2751 1.386 . S
C2750 C2752 1.391 . S
C2751 C2750 1.386 . S
C2751 C2755 1.393 . S
C2752 H2741 0.950 . S
C2752 C2750 1.391 . S
C2752 C2753 1.400 . S
C2753 C2747 1.491 . S
C2753 C2752 1.400 . S
C2753 C2754 1.398 . S
C2754 H2742 0.950 . S
C2754 C2753 1.398 . S
C2754 C2755 1.391 . S
C2755 H2743 0.950 . S
C2755 C2751 1.393 . S
C2755 C2754 1.391 . S
H2756 C2764 0.950 . S
H2757 C2769 0.950 . S
H2758 C2766 0.991 . S
H2759 C2768 0.950 . S
H2760 C2770 0.950 . S
H2761 C2772 0.950 . S
H2762 C2774 0.950 . S
H2763 C2775 0.950 . S
C2764 H2756 0.950 . S
C2764 C2765 1.386 . S
C2764 C2766 1.391 . S
C2765 C2764 1.386 . S
C2765 C2769 1.393 . S
C2766 H2758 0.991 . S
C2766 C2764 1.391 . S
C2766 C2767 1.400 . S
C2767 C2766 1.400 . S
C2767 C2768 1.398 . S
C2767 C2773 1.491 . S
C2768 H2759 0.950 . S
C2768 C2767 1.398 . S
C2768 C2769 1.391 . S
C2769 H2757 0.950 . S
C2769 C2765 1.393 . S
C2769 C2768 1.391 . S
C2770 H2760 0.950 . S
C2770 C2771 1.386 1_565 S
C2770 C2772 1.391 . S
C2771 C2770 1.386 1_545 S
C2771 C2775 1.393 . S
C2772 H2761 0.950 . S
C2772 C2770 1.391 . S
C2772 C2773 1.400 . S
C2773 C2767 1.491 . S
C2773 C2772 1.400 . S
C2773 C2774 1.398 1_565 S
C2774 H2762 0.950 . S
C2774 C2773 1.398 1_545 S
C2774 C2775 1.391 . S
C2775 H2763 0.950 . S
C2775 C2771 1.393 . S
C2775 C2774 1.391 . S
H2776 C2784 0.950 . S
H2777 C2789 0.950 . S
H2778 C2786 0.950 . S
H2779 C2788 0.950 . S
H2780 C2790 0.950 . S
H2781 C2792 0.950 . S
H2782 C2794 0.950 . S
H2783 C2795 0.950 . S
C2784 H2776 0.950 . S
C2784 C2785 1.386 . S
C2784 C2786 1.391 . S
C2785 C2784 1.386 . S
C2785 C2789 1.393 . S
C2786 H2778 0.950 . S
C2786 C2784 1.391 . S
C2786 C2787 1.400 . S
C2787 C2786 1.400 . S
C2787 C2788 1.398 . S
C2787 C2793 1.491 . S
C2788 H2779 0.950 . S
C2788 C2787 1.398 . S
C2788 C2789 1.391 . S
C2789 H2777 0.950 . S
C2789 C2785 1.393 . S
C2789 C2788 1.391 . S
C2790 H2780 0.950 . S
C2790 C2791 1.386 . S
C2790 C2792 1.391 . S
C2791 C2790 1.386 . S
C2791 C2795 1.393 . S
C2792 H2781 0.950 . S
C2792 C2790 1.391 . S
C2792 C2793 1.400 . S
C2793 C2787 1.491 . S
C2793 C2792 1.400 . S
C2793 C2794 1.398 . S
C2794 H2782 0.950 . S
C2794 C2793 1.398 . S
C2794 C2795 1.391 . S
C2795 H2783 0.950 . S
C2795 C2791 1.393 . S
C2795 C2794 1.391 . S
H2796 C2804 0.950 . S
H2797 C2809 0.950 . S
H2798 C2806 0.950 . S
H2799 C2808 0.950 . S
H2800 C2810 0.950 . S
H2801 C2812 0.950 . S
H2802 C2814 0.950 . S
H2803 C2815 0.950 . S
C2804 H2796 0.950 . S
C2804 C2805 1.386 1_554 S
C2804 C2806 1.391 . S
C2805 C2804 1.386 1_556 S
C2805 C2809 1.393 . S
C2806 H2798 0.950 . S
C2806 C2804 1.391 . S
C2806 C2807 1.400 . S
C2807 C2806 1.400 . S
C2807 C2808 1.398 1_554 S
C2807 C2813 1.491 . S
C2808 H2799 0.950 . S
C2808 C2807 1.398 1_556 S
C2808 C2809 1.391 . S
C2809 H2797 0.950 . S
C2809 C2805 1.393 . S
C2809 C2808 1.391 . S
C2810 H2800 0.950 . S
C2810 C2811 1.386 1_556 S
C2810 C2812 1.391 . S
C2811 C2810 1.386 1_554 S
C2811 C2815 1.393 . S
C2812 H2801 0.950 . S
C2812 C2810 1.391 . S
C2812 C2813 1.400 1_556 S
C2813 C2807 1.491 . S
C2813 C2812 1.400 1_554 S
C2813 C2814 1.398 . S
C2814 H2802 0.950 . S
C2814 C2813 1.398 . S
C2814 C2815 1.391 . S
C2815 H2803 0.950 . S
C2815 C2811 1.393 . S
C2815 C2814 1.391 . S
H2816 C2824 0.950 . S
H2817 C2829 0.950 . S
H2818 C2826 0.950 . S
H2819 C2828 0.950 . S
H2820 C2830 0.950 . S
H2821 C2832 0.950 . S
H2822 C2834 0.950 . S
H2823 C2835 0.950 . S
C2824 H2816 0.950 . S
C2824 C2825 1.386 . S
C2824 C2826 1.391 . S
C2825 C2824 1.386 . S
C2825 C2829 1.393 . S
C2826 H2818 0.950 . S
C2826 C2824 1.391 . S
C2826 C2827 1.400 . S
C2827 C2826 1.400 . S
C2827 C2828 1.398 . S
C2827 C2833 1.491 . S
C2828 H2819 0.950 . S
C2828 C2827 1.398 . S
C2828 C2829 1.391 . S
C2829 H2817 0.950 . S
C2829 C2825 1.393 . S
C2829 C2828 1.391 . S
C2830 H2820 0.950 . S
C2830 C2831 1.386 . S
C2830 C2832 1.391 . S
C2831 C2830 1.386 . S
C2831 C2835 1.393 . S
C2832 H2821 0.950 . S
C2832 C2830 1.391 . S
C2832 C2833 1.400 . S
C2833 C2827 1.491 . S
C2833 C2832 1.400 . S
C2833 C2834 1.398 . S
C2834 H2822 0.950 . S
C2834 C2833 1.398 . S
C2834 C2835 1.391 . S
C2835 H2823 0.950 . S
C2835 C2831 1.393 . S
C2835 C2834 1.391 . S
H2836 C2844 0.950 . S
H2837 C2849 0.950 1_556 S
H2838 C2846 0.950 . S
H2839 C2848 0.950 1_556 S
H2840 C2850 0.950 1_556 S
H2841 C2852 0.950 1_556 S
H2842 C2854 0.950 . S
H2843 C2855 0.950 . S
C2844 H2836 0.950 . S
C2844 C2845 1.386 . S
C2844 C2846 1.391 . S
C2845 C2844 1.386 . S
C2845 C2849 1.393 . S
C2846 H2838 0.950 . S
C2846 C2844 1.391 . S
C2846 C2847 1.400 . S
C2847 C2846 1.400 . S
C2847 C2848 1.398 . S
C2847 C2853 1.491 . S
C2848 H2839 0.950 1_554 S
C2848 C2847 1.398 . S
C2848 C2849 1.391 . S
C2849 H2837 0.950 1_554 S
C2849 C2845 1.393 . S
C2849 C2848 1.391 . S
C2850 H2840 0.950 1_554 S
C2850 C2851 1.386 . S
C2850 C2852 1.391 . S
C2851 C2850 1.386 . S
C2851 C2855 1.393 . S
C2852 H2841 0.950 1_554 S
C2852 C2850 1.391 . S
C2852 C2853 1.400 . S
C2853 C2847 1.491 . S
C2853 C2852 1.400 . S
C2853 C2854 1.398 . S
C2854 H2842 0.950 . S
C2854 C2853 1.398 . S
C2854 C2855 1.391 . S
C2855 H2843 0.950 . S
C2855 C2851 1.393 . S
C2855 C2854 1.391 . S
H2856 C2864 0.950 . S
H2857 C2869 0.950 . S
H2858 C2866 0.950 . S
H2859 C2868 0.950 . S
H2860 C2870 0.950 . S
H2861 C2872 0.950 . S
H2862 C2874 0.950 . S
H2863 C2875 0.950 . S
C2864 H2856 0.950 . S
C2864 C2865 1.386 . S
C2864 C2866 1.391 . S
C2865 C2864 1.386 . S
C2865 C2869 1.393 . S
C2866 H2858 0.950 . S
C2866 C2864 1.391 . S
C2866 C2867 1.400 . S
C2867 C2866 1.400 . S
C2867 C2868 1.398 . S
C2867 C2873 1.491 . S
C2868 H2859 0.950 . S
C2868 C2867 1.398 . S
C2868 C2869 1.391 . S
C2869 H2857 0.950 . S
C2869 C2865 1.393 . S
C2869 C2868 1.391 . S
C2870 H2860 0.950 . S
C2870 C2871 1.386 . S
C2870 C2872 1.391 . S
C2871 C2870 1.386 . S
C2871 C2875 1.393 . S
C2872 H2861 0.950 . S
C2872 C2870 1.391 . S
C2872 C2873 1.400 . S
C2873 C2867 1.491 . S
C2873 C2872 1.400 . S
C2873 C2874 1.398 . S
C2874 H2862 0.950 . S
C2874 C2873 1.398 . S
C2874 C2875 1.391 . S
C2875 H2863 0.950 . S
C2875 C2871 1.393 . S
C2875 C2874 1.391 . S
H2876 C2884 0.950 . S
H2877 C2889 0.950 . S
H2878 C2886 0.950 . S
H2879 C2888 0.950 . S
H2880 C2890 0.950 . S
H2881 C2892 0.950 . S
H2882 C2894 0.950 . S
H2883 C2895 0.950 . S
C2884 H2876 0.950 . S
C2884 C2885 1.386 . S
C2884 C2886 1.391 . S
C2885 C2884 1.386 . S
C2885 C2889 1.393 . S
C2886 H2878 0.950 . S
C2886 C2884 1.391 . S
C2886 C2887 1.400 . S
C2887 C2886 1.400 . S
C2887 C2888 1.398 . S
C2887 C2893 1.491 . S
C2888 H2879 0.950 . S
C2888 C2887 1.398 . S
C2888 C2889 1.391 . S
C2889 H2877 0.950 . S
C2889 C2885 1.393 . S
C2889 C2888 1.391 . S
C2890 H2880 0.950 . S
C2890 C2891 1.386 . S
C2890 C2892 1.391 . S
C2891 C2890 1.386 . S
C2891 C2895 1.393 . S
C2892 H2881 0.950 . S
C2892 C2890 1.391 . S
C2892 C2893 1.400 . S
C2893 C2887 1.491 . S
C2893 C2892 1.400 . S
C2893 C2894 1.398 . S
C2894 H2882 0.950 . S
C2894 C2893 1.398 . S
C2894 C2895 1.391 . S
C2895 H2883 0.950 . S
C2895 C2891 1.393 . S
C2895 C2894 1.391 . S
C985 C109 1.663 1_455 S
C991 C358 1.632 1_556 S
C1005 C61 1.085 . S
C1011 C378 1.120 . S
C1025 C74 0.725 . S
C1031 C425 0.740 . S
C1051 C482 1.101 . S
C1045 C96 1.113 . S
C1065 C25 2.463 . S
C1071 C499 2.473 1_565 S
C1091 C558 1.788 . S
C1085 C40 1.782 . S
C1111 C591 2.660 . S
C1105 C46 2.650 . S
C1125 C5 2.057 . S
C1131 C638 2.416 . S
C1151 C351 1.371 . S
C1145 C229 1.002 . S
C1165 C249 1.376 . S
C1171 C379 1.364 . S
C1191 C418 0.468 . S
C1185 C271 0.588 . S
C1211 C478 2.227 . S
C1205 C172 2.124 . S
C1225 C236 0.403 . S
C1231 C505 0.442 . S
C1251 C551 2.465 . S
C1245 C242 2.443 . S
C1271 C602 0.475 . S
C1265 C278 0.431 . S
C1291 C631 2.326 . S
C1285 C179 2.303 . S
C1311 C362 1.705 1_565 S
C1305 C159 1.309 . S
C1325 C285 1.885 . S
C1331 C658 2.103 . S
C1351 C722 1.117 . S
C1345 C333 1.153 . S
C1371 C758 1.297 1_655 S
C1365 C320 1.301 . S
C1385 C123 1.260 . S
C1391 C642 1.222 . S
C1405 C138 2.588 . S
C1411 C419 2.579 . S
C1425 C326 1.415 . S
C1431 C791 1.410 . S
C1451 C825 0.392 . S
C1445 C298 0.341 . S
C1471 C339 1.681 . S
C1465 C67 1.634 . S
C1491 C831 1.031 . S
C1485 C110 1.045 . S
C1505 C88 0.758 . S
C1511 C442 0.751 . S
C1525 C75 0.963 . S
C1531 C785 1.026 . S
C1551 C518 2.388 . S
C1545 C11 2.386 . S
C1565 C47 1.634 . S
C1571 C699 1.813 . S
C1591 C578 2.559 1_556 S
C1585 C32 2.483 . S
C1611 C859 2.491 . S
C1605 C26 2.519 1_655 S
C1631 C338 1.534 . S
C1625 C152 1.512 . S
C1651 C838 1.398 . S
C1645 C319 1.405 . S
C1665 C124 0.494 . S
C1671 C431 0.511 . S
C1685 C284 2.216 . S
C1691 C779 2.222 . S
C1705 C145 0.763 . S
C1711 C522 0.393 . S
C1731 C698 2.353 . S
C1725 C312 2.341 . S
C1745 C117 0.376 . S
C1751 C585 0.516 . S
C1765 C291 2.237 . S
C1771 C858 2.239 . S
C1785 C194 1.897 1_556 S
C1791 C345 1.851 . S
C1805 C180 2.093 . S
C1811 C671 2.071 . S
C1825 C263 1.043 . S
C1831 C545 1.094 . S
C1845 C243 1.077 . S
C1851 C739 1.209 . S
C1871 C865 1.294 . S
C1865 C277 1.228 . S
C1885 C215 2.236 . S
C1891 C438 2.577 1_565 S
C1911 C458 1.307 . S
C1905 C256 1.206 . S
C1931 C402 0.464 . S
C1925 C200 0.552 . S
C1945 C81 1.683 . S
C1951 C918 1.651 . S
C1971 C818 1.136 . S
C1965 C89 1.079 . S
C1985 C102 0.745 . S
C1991 C945 0.714 . S
C2005 C68 1.094 . S
C2011 C802 1.071 . S
C2025 C53 2.466 . S
C2031 C659 2.467 . S
C2051 C718 1.789 . S
C2045 C12 1.788 1_655 S
C2071 C751 2.660 . S
C2065 C18 2.654 . S
C2091 C878 2.417 . S
C2085 C33 2.071 . S
C2111 C911 1.369 . S
C2105 C257 0.995 . S
C2125 C193 1.370 . S
C2131 C819 1.378 . S
C2151 C938 0.491 . S
C2145 C201 0.552 . S
C2171 C798 2.227 . S
C2165 C214 2.121 . S
C2191 C665 0.393 . S
C2185 C264 0.382 . S
C2205 C186 2.453 . S
C2211 C711 2.463 . S
C2231 C762 0.548 . S
C2225 C208 0.485 . S
C2245 C221 2.302 . S
C2251 C871 2.324 . S
C2271 C922 1.710 . S
C2265 C313 1.327 . S
C2285 C131 1.914 . S
C2291 C498 2.096 . S
C2311 C562 1.131 . S
C2305 C151 1.158 . S
C2331 C598 1.308 . S
C2325 C166 1.309 . S
C2351 C882 1.211 . S
C2345 C305 1.226 . S
C2365 C292 2.588 . S
C2371 C939 2.581 1_655 S
C2391 C471 1.400 . S
C2385 C144 1.419 . S
C2411 C385 0.421 . S
C2405 C116 0.360 . S
C2425 C95 1.642 . S
C2431 C899 1.684 . S
C2451 C391 1.044 . S
C2445 C82 1.052 . S
C2465 C60 0.729 . S
C2471 C962 0.734 . S
C2485 C103 0.956 . S
C2491 C465 0.999 . S
C2505 C39 2.377 . S
C2511 C678 2.380 1_556 S
C2531 C539 1.823 . S
C2525 C19 1.648 . S
C2545 C4 2.482 . S
C2551 C738 2.561 . S
C2565 C54 2.515 . S
C2571 C619 2.483 . S
C2591 C898 1.529 . S
C2585 C334 1.516 . S
C2605 C165 1.393 . S
C2611 C398 1.382 . S
C2631 C951 0.466 . S
C2625 C306 0.489 . S
C2645 C130 2.219 . S
C2651 C459 2.224 . S
C2665 C327 0.680 . S
C2671 C682 0.344 . S
C2691 C538 2.352 . S
C2685 C158 2.338 1_556 S
C2705 C299 0.344 . S
C2711 C745 0.549 . S
C2731 C618 2.241 . S
C2725 C137 2.240 . S
C2751 C905 1.850 . S
C2745 C250 1.900 . S
C2771 C511 2.080 1_655 S
C2765 C222 2.101 . S
C2785 C235 1.050 . S
C2791 C705 1.095 . S
C2811 C579 1.212 . S
C2805 C187 1.080 . S
C2825 C207 1.233 . S
C2831 C625 1.289 . S
C2845 C173 2.256 . S
C2851 C958 2.577 . S
C2871 C778 1.322 . S
C2865 C228 1.225 . S
C2891 C842 0.463 . S
C2885 C270 0.532 . S
