# Generated by pormake.
# Topology pth, (4,4)-cn, num edge types: 1
# Building blocks:
#     Node 0, Type 0, BuildingBlock: GALJAG_clean_sbu_0, # of connection points: 4
#     Node 1, Type 0, BuildingBlock: GALJAG_clean_sbu_0, # of connection points: 4
#     Node 2, Type 0, BuildingBlock: GALJAG_clean_sbu_0, # of connection points: 4
#     Node 3, Type 1, BuildingBlock: KOZSID_clean_sbu_0, # of connection points: 4
#     Node 4, Type 1, BuildingBlock: KOZSID_clean_sbu_0, # of connection points: 4
#     Node 5, Type 1, BuildingBlock: KOZSID_clean_sbu_0, # of connection points: 4
#     Edge 6, Type (0, 1), BuildingBlock: TEMPAE_clean_linker_10, # of connection points: 2
#     Edge 7, Type (0, 1), BuildingBlock: TEMPAE_clean_linker_10, # of connection points: 2
#     Edge 8, Type (0, 1), BuildingBlock: TEMPAE_clean_linker_10, # of connection points: 2
#     Edge 9, Type (0, 1), BuildingBlock: TEMPAE_clean_linker_10, # of connection points: 2
#     Edge 10, Type (0, 1), BuildingBlock: TEMPAE_clean_linker_10, # of connection points: 2
#     Edge 11, Type (0, 1), BuildingBlock: TEMPAE_clean_linker_10, # of connection points: 2
#     Edge 12, Type (0, 1), BuildingBlock: TEMPAE_clean_linker_10, # of connection points: 2
#     Edge 13, Type (0, 1), BuildingBlock: TEMPAE_clean_linker_10, # of connection points: 2
#     Edge 14, Type (0, 1), BuildingBlock: TEMPAE_clean_linker_10, # of connection points: 2
#     Edge 15, Type (0, 1), BuildingBlock: TEMPAE_clean_linker_10, # of connection points: 2
#     Edge 16, Type (0, 1), BuildingBlock: TEMPAE_clean_linker_10, # of connection points: 2
#     Edge 17, Type (0, 1), BuildingBlock: TEMPAE_clean_linker_10, # of connection points: 2
# Relax obj value: 0.002
# Max RMSD: 0.043
# Mean RMSD: 0.025
data_MOF--net-pth--node1-GALJAG_clean_sbu_0--node2-KOZSID_clean_sbu_0--edge1-TEMPAE_clean_linker_10
_symmetry_space_group_name_H-M    P1
_symmetry_Int_Tables_number       1
_symmetry_cell_setting            triclinic
loop_
_symmetry_equiv_pos_as_xyz
'x, y, z'
_cell_length_a     27.383346
_cell_length_b     27.381077
_cell_length_c     59.579332
_cell_angle_alpha  87.548366
_cell_angle_beta   87.506603
_cell_angle_gamma 120.00096
loop_
_atom_site_label
_atom_site_type_symbol
_atom_site_fract_x
_atom_site_fract_y
_atom_site_fract_z
_atom_type_partial_charge
In0 In 0.06723 0.04923 0.03876 0.0
O1 O 0.01507 0.08125 0.05776 0.0
O2 O 0.10421 0.12594 0.05948 0.0
C3 C 0.99088 0.97531 0.01209 0.0
C4 C 0.15136 0.12179 0.0083 0.0
C5 C 0.07195 0.97723 0.06983 0.0
O6 O 0.98811 0.01706 0.0188 0.0
O7 O 0.03224 0.97166 0.01851 0.0
O8 O 0.11206 0.00689 0.05512 0.0
O9 O 0.03043 0.98519 0.0692 0.0
C10 C 0.05763 0.12249 0.06511 0.0
O11 O 0.15802 0.09117 0.02289 0.0
O12 O 0.10204 0.11453 0.00874 0.0
In13 In 0.03965 0.06619 0.37176 0.0
O14 O 0.08661 0.15721 0.35577 0.0
O15 O 0.00997 0.09836 0.34247 0.0
C16 C 0.11635 0.07037 0.39976 0.0
C17 C 0.95793 0.06024 0.40081 0.0
C18 C 0.03515 0.98564 0.34575 0.0
O19 O 0.12902 0.10697 0.38355 0.0
O20 O 0.06479 0.03249 0.40211 0.0
O21 O 0.99123 0.98211 0.35524 0.0
O22 O 0.08058 0.02975 0.34914 0.0
C23 C 0.05045 0.14859 0.34171 0.0
O24 O 0.95112 0.01874 0.39006 0.0
O25 O 0.00606 0.10392 0.3972 0.0
In26 In 0.06342 0.05352 0.70485 0.0
O27 O 0.01927 0.96325 0.72142 0.0
O28 O 0.98812 0.01761 0.73058 0.0
C29 C 0.14128 0.04384 0.67897 0.0
C30 C 0.9924 0.0623 0.677 0.0
C31 C 0.13443 0.13562 0.73041 0.0
O32 O 0.10983 0.00651 0.69437 0.0
O33 O 0.13254 0.08472 0.67658 0.0
O34 O 0.1269 0.14571 0.71043 0.0
O35 O 0.10529 0.08455 0.73777 0.0
C36 C 0.98291 0.96914 0.73299 0.0
O37 O 0.01405 0.09526 0.69243 0.0
O38 O 0.00759 0.02598 0.67536 0.0
C39 C 0.1044 0.65325 0.16863 0.0
C40 C 0.1568 0.6927 0.15822 0.0
C41 C 0.19603 0.68506 0.16875 0.0
C42 C 0.16541 0.64128 0.18479 0.0
N43 N 0.10896 0.62007 0.18494 0.0
Co44 Co 0.04896 0.55576 0.20521 0.0
N45 N 0.10688 0.551 0.22312 0.0
C46 C 0.16345 0.58653 0.22084 0.0
C47 C 0.19239 0.57329 0.23583 0.0
C48 C 0.15192 0.52609 0.24828 0.0
C49 C 0.10051 0.51299 0.23996 0.0
N50 N 0.98907 0.48883 0.22456 0.0
C51 C 0.99409 0.45442 0.24021 0.0
C52 C 0.94169 0.409 0.248 0.0
C53 C 0.90223 0.41474 0.23679 0.0
C54 C 0.93263 0.46278 0.22272 0.0
N55 N 0.99105 0.5633 0.18825 0.0
C56 C 0.93424 0.53185 0.19219 0.0
C57 C 0.90531 0.55012 0.17937 0.0
C58 C 0.94612 0.5969 0.16683 0.0
C59 C 0.99777 0.60414 0.17263 0.0
N60 N 0.05032 0.50209 0.18406 0.0
C61 C 0.04924 0.41951 0.15714 0.0
C62 C 0.00178 0.42556 0.15993 0.0
C63 C 0.00303 0.4665 0.1735 0.0
C64 C 0.0978 0.4564 0.16743 0.0
C65 C 0.09773 0.49764 0.18044 0.0
N66 N 0.04733 0.60921 0.22635 0.0
C67 C 0.99521 0.63523 0.25232 0.0
C68 C 0.04254 0.68863 0.25347 0.0
C69 C 0.09273 0.70124 0.24138 0.0
C70 C 0.09445 0.66091 0.22829 0.0
C71 C 0.99834 0.59659 0.23861 0.0
H72 H 0.13428 0.67282 0.21971 0.0
H73 H 0.96026 0.55715 0.23797 0.0
H74 H 0.96485 0.46779 0.17543 0.0
H75 H 0.13644 0.52501 0.18757 0.0
C76 C 0.18844 0.62592 0.20228 0.0
C77 C 0.05207 0.6517 0.16365 0.0
C78 C 0.04752 0.46185 0.24741 0.0
C79 C 0.90953 0.48514 0.20789 0.0
H80 H 0.16583 0.72512 0.14502 0.0
H81 H 0.24157 0.7105 0.16591 0.0
H82 H 0.23771 0.59372 0.23682 0.0
H83 H 0.15953 0.50265 0.2614 0.0
H84 H 0.93281 0.37468 0.26022 0.0
H85 H 0.85685 0.38676 0.23847 0.0
H86 H 0.85998 0.53215 0.17943 0.0
H87 H 0.93862 0.62324 0.15507 0.0
H88 H 0.96327 0.39775 0.15219 0.0
H89 H 0.13583 0.45362 0.16535 0.0
H90 H 0.95547 0.62388 0.26148 0.0
H91 H 0.13062 0.742 0.24212 0.0
C92 C 0.45182 0.99574 0.57551 0.0
C93 C 0.41156 0.94255 0.58504 0.0
C94 C 0.41816 0.90423 0.57336 0.0
C95 C 0.46206 0.93606 0.55754 0.0
N96 N 0.48456 0.99251 0.55859 0.0
Co97 Co 0.54857 0.05414 0.53861 0.0
N98 N 0.55558 0.99759 0.52047 0.0
C99 C 0.52295 0.94059 0.52307 0.0
C100 C 0.53891 0.91295 0.50843 0.0
C101 C 0.58516 0.95471 0.49598 0.0
C102 C 0.59484 0.00555 0.50387 0.0
N103 N 0.6129 0.11573 0.51864 0.0
C104 C 0.64707 0.11229 0.50237 0.0
C105 C 0.68893 0.16544 0.49345 0.0
C106 C 0.68134 0.20388 0.50463 0.0
C107 C 0.63564 0.1722 0.51973 0.0
N108 N 0.54137 0.1107 0.55676 0.0
C109 C 0.57301 0.16775 0.55367 0.0
C110 C 0.55636 0.19544 0.56798 0.0
C111 C 0.51091 0.1537 0.58081 0.0
C112 C 0.50257 0.10264 0.57364 0.0
N113 N 0.60387 0.05387 0.55905 0.0
C114 C 0.68733 0.05488 0.58543 0.0
C115 C 0.68944 0.1051 0.57823 0.0
C116 C 0.64755 0.10362 0.56529 0.0
C117 C 0.64187 0.00393 0.57972 0.0
C118 C 0.60096 0.00439 0.56658 0.0
N119 N 0.49329 0.05468 0.51814 0.0
C120 C 0.4571 0.10634 0.4975 0.0
C121 C 0.4107 0.05617 0.49187 0.0
C122 C 0.40709 0.00515 0.49905 0.0
C123 C 0.44846 0.00536 0.51211 0.0
C124 C 0.49762 0.10465 0.51039 0.0
H125 H 0.44279 0.96511 0.5174 0.0
H126 H 0.5317 0.14445 0.51404 0.0
H127 H 0.65188 0.14342 0.56035 0.0
H128 H 0.56787 0.96429 0.56245 0.0
C129 C 0.48078 0.9142 0.54064 0.0
C130 C 0.45545 0.04778 0.58247 0.0
C131 C 0.64357 0.05993 0.49589 0.0
C132 C 0.6159 0.1941 0.5363 0.0
H133 H 0.37988 0.9325 0.5987 0.0
H134 H 0.39298 0.85859 0.57574 0.0
H135 H 0.52039 0.86777 0.50749 0.0
H136 H 0.60999 0.94846 0.483 0.0
H137 H 0.72253 0.1755 0.48067 0.0
H138 H 0.70736 0.24949 0.50259 0.0
H139 H 0.57407 0.24062 0.56854 0.0
H140 H 0.48593 0.16031 0.59358 0.0
H141 H 0.72329 0.14558 0.58261 0.0
H142 H 0.63856 0.9639 0.58488 0.0
H143 H 0.46231 0.14698 0.49193 0.0
H144 H 0.37178 0.96512 0.4951 0.0
C145 C 0.66574 0.60103 0.83582 0.0
C146 C 0.70823 0.59323 0.82621 0.0
C147 C 0.70292 0.54575 0.83703 0.0
C148 C 0.65764 0.52733 0.85251 0.0
N149 N 0.63301 0.55961 0.85201 0.0
Co150 Co 0.56723 0.54931 0.87213 0.0
N151 N 0.56225 0.4821 0.88921 0.0
C152 C 0.59634 0.46007 0.88598 0.0
C153 C 0.58165 0.41301 0.89997 0.0
C154 C 0.53477 0.40377 0.91267 0.0
C155 C 0.5234 0.44577 0.90555 0.0
N156 N 0.50146 0.53896 0.89234 0.0
C157 C 0.46818 0.49696 0.9083 0.0
C158 C 0.42491 0.50417 0.9175 0.0
C159 C 0.43083 0.55217 0.90691 0.0
C160 C 0.47694 0.57137 0.89183 0.0
N161 N 0.57219 0.61648 0.85495 0.0
C162 C 0.53831 0.63872 0.85827 0.0
C163 C 0.55343 0.6861 0.8444 0.0
C164 C 0.60024 0.69518 0.83165 0.0
C165 C 0.61092 0.65257 0.8385 0.0
N166 N 0.51359 0.49821 0.85099 0.0
C167 C 0.43359 0.42184 0.82284 0.0
C168 C 0.4256 0.4626 0.83311 0.0
C169 C 0.46612 0.50053 0.84654 0.0
C170 C 0.48322 0.42088 0.82676 0.0
C171 C 0.52177 0.45845 0.84099 0.0
N172 N 0.62084 0.60064 0.89324 0.0
C173 C 0.65149 0.68011 0.91632 0.0
C174 C 0.7007 0.67919 0.92043 0.0
C175 C 0.70893 0.63764 0.91121 0.0
C176 C 0.6683 0.59848 0.89805 0.0
C177 C 0.61273 0.64115 0.90262 0.0
H178 H 0.67655 0.56731 0.89175 0.0
H179 H 0.57707 0.64543 0.8996 0.0
H180 H 0.45752 0.53089 0.85337 0.0
H181 H 0.55766 0.45421 0.84376 0.0
C182 C 0.63936 0.48208 0.86866 0.0
C183 C 0.66004 0.6499 0.82977 0.0
C184 C 0.47382 0.44777 0.91416 0.0
C185 C 0.49526 0.61667 0.87562 0.0
H186 H 0.74055 0.61994 0.8131 0.0
H187 H 0.72986 0.52775 0.8344 0.0
H188 H 0.60165 0.38747 0.90042 0.0
H189 H 0.51079 0.36923 0.92536 0.0
H190 H 0.39134 0.47673 0.93004 0.0
H191 H 0.4034 0.56972 0.90928 0.0
H192 H 0.53385 0.71202 0.8441 0.0
H193 H 0.62461 0.73003 0.81912 0.0
H194 H 0.38778 0.46512 0.83124 0.0
H195 H 0.49278 0.3914 0.81892 0.0
H196 H 0.64368 0.71186 0.92313 0.0
H197 H 0.7464 0.63519 0.91426 0.0
C198 C 0.00291 0.15255 0.0901 0.0
C199 C 0.05406 0.16463 0.07875 0.0
C200 C 0.99981 0.19248 0.10327 0.0
C201 C 0.04872 0.2461 0.10463 0.0
C202 C 0.10022 0.25867 0.0929 0.0
C203 C 0.10239 0.21756 0.08032 0.0
C204 C 0.94445 0.17713 0.11591 0.0
C205 C 0.15301 0.3157 0.09352 0.0
C206 C 0.03188 0.36953 0.12164 0.0
C207 C 0.04787 0.37446 0.14382 0.0
C208 C 0.03163 0.32771 0.10871 0.0
C209 C 0.04644 0.28917 0.1184 0.0
C210 C 0.0613 0.29324 0.14101 0.0
C211 C 0.06249 0.33631 0.15336 0.0
C212 C 0.01678 0.32558 0.08452 0.0
C213 C 0.07622 0.25229 0.15211 0.0
H214 H 0.96554 0.11157 0.08897 0.0
H215 H 0.14194 0.22722 0.07142 0.0
H216 H 0.9502 0.181 0.1342 0.0
H217 H 0.93029 0.20691 0.11034 0.0
H218 H 0.91059 0.13338 0.11338 0.0
H219 H 0.18917 0.31937 0.08286 0.0
H220 H 0.14471 0.34968 0.08763 0.0
H221 H 0.16539 0.32315 0.11108 0.0
H222 H 0.02083 0.39928 0.11427 0.0
H223 H 0.07424 0.33983 0.17062 0.0
H224 H 0.98061 0.28333 0.0818 0.0
H225 H 0.05311 0.33213 0.07317 0.0
H226 H 0.00563 0.35819 0.0796 0.0
H227 H 0.04177 0.20817 0.15074 0.0
H228 H 0.08355 0.25916 0.17019 0.0
H229 H 0.11501 0.25684 0.14334 0.0
C230 C 0.92261 0.10726 0.42662 0.0
C231 C 0.91262 0.05897 0.41577 0.0
C232 C 0.87955 0.10787 0.44006 0.0
C233 C 0.82515 0.05899 0.44273 0.0
C234 C 0.81499 0.00982 0.43207 0.0
C235 C 0.85887 0.0104 0.4187 0.0
C236 C 0.89209 0.16109 0.45117 0.0
C237 C 0.75756 0.95683 0.43458 0.0
C238 C 0.72592 0.04457 0.49249 0.0
C239 C 0.69103 0.06134 0.4823 0.0
C240 C 0.7698 0.04357 0.47982 0.0
C241 C 0.7787 0.05965 0.45642 0.0
C242 C 0.74336 0.07668 0.4461 0.0
C243 C 0.69972 0.07714 0.4592 0.0
C244 C 0.80647 0.02515 0.49144 0.0
C245 C 0.75155 0.09422 0.42123 0.0
H246 H 0.96406 0.14497 0.42442 0.0
H247 H 0.85089 0.97297 0.41035 0.0
H248 H 0.86446 0.17689 0.44505 0.0
H249 H 0.88271 0.15186 0.46966 0.0
H250 H 0.93688 0.19518 0.44774 0.0
H251 H 0.75689 0.92176 0.42563 0.0
H252 H 0.74468 0.94258 0.45267 0.0
H253 H 0.72551 0.96583 0.42783 0.0
H254 H 0.7186 0.03205 0.51039 0.0
H255 H 0.67211 0.08955 0.45142 0.0
H256 H 0.85137 0.05943 0.48924 0.0
H257 H 0.80372 0.98784 0.48366 0.0
H258 H 0.79402 0.01408 0.50975 0.0
H259 H 0.79488 0.13046 0.41702 0.0
H260 H 0.72062 0.10654 0.41584 0.0
H261 H 0.74712 0.05896 0.41135 0.0
C262 C 0.8949 0.93099 0.75847 0.0
C263 C 0.93659 0.92276 0.74776 0.0
C264 C 0.8496 0.88722 0.772 0.0
C265 C 0.846 0.83393 0.77499 0.0
C266 C 0.88825 0.82547 0.7644 0.0
C267 C 0.93301 0.86999 0.75084 0.0
C268 C 0.80533 0.89787 0.78296 0.0
C269 C 0.88595 0.76929 0.76729 0.0
C270 C 0.75608 0.73557 0.82563 0.0
C271 C 0.7065 0.69846 0.81585 0.0
C272 C 0.80188 0.78 0.81254 0.0
C273 C 0.79778 0.78702 0.78912 0.0
C274 C 0.74742 0.74947 0.77924 0.0
C275 C 0.70225 0.70548 0.79278 0.0
C276 C 0.8547 0.81915 0.82371 0.0
C277 C 0.74144 0.75554 0.75436 0.0
H278 H 0.89732 0.97164 0.75612 0.0
H279 H 0.96512 0.8634 0.7426 0.0
H280 H 0.76321 0.86816 0.77718 0.0
H281 H 0.80269 0.88994 0.80151 0.0
H282 H 0.81447 0.94181 0.77906 0.0
H283 H 0.92248 0.76979 0.75817 0.0
H284 H 0.88539 0.75782 0.78542 0.0
H285 H 0.84637 0.73563 0.761 0.0
H286 H 0.75903 0.72943 0.84352 0.0
H287 H 0.66379 0.67611 0.78535 0.0
H288 H 0.86388 0.86339 0.82108 0.0
H289 H 0.89141 0.81761 0.81594 0.0
H290 H 0.85091 0.80804 0.84211 0.0
H291 H 0.74746 0.79798 0.74974 0.0
H292 H 0.69945 0.72297 0.74934 0.0
H293 H 0.77472 0.75201 0.7445 0.0
C294 C 0.02291 0.89724 0.09947 0.0
C295 C 0.0715 0.9334 0.08541 0.0
C296 C 0.01989 0.85241 0.11299 0.0
C297 C 0.0667 0.8437 0.11251 0.0
C298 C 0.11647 0.88105 0.09883 0.0
C299 C 0.11823 0.9254 0.08538 0.0
C300 C 0.96605 0.81345 0.12733 0.0
C301 C 0.1674 0.87335 0.098 0.0
C302 C 0.07462 0.75207 0.16036 0.0
C303 C 0.05473 0.70047 0.15062 0.0
C304 C 0.07882 0.79919 0.14816 0.0
C305 C 0.06279 0.79431 0.12571 0.0
C306 C 0.0427 0.74202 0.11585 0.0
C307 C 0.03909 0.69567 0.12845 0.0
C308 C 0.1005 0.85414 0.15925 0.0
C309 C 0.02508 0.73507 0.092 0.0
H310 H 0.98661 0.90315 0.09955 0.0
H311 H 0.15591 0.95324 0.07456 0.0
H312 H 0.9472 0.76997 0.1217 0.0
H313 H 0.97536 0.81141 0.14517 0.0
H314 H 0.93426 0.82725 0.12645 0.0
H315 H 0.20378 0.90763 0.08736 0.0
H316 H 0.18075 0.87228 0.11525 0.0
H317 H 0.15625 0.83228 0.09116 0.0
H318 H 0.08694 0.75542 0.17754 0.0
H319 H 0.02419 0.65563 0.12099 0.0
H320 H 0.06829 0.86742 0.15942 0.0
H321 H 0.13888 0.88797 0.14944 0.0
H322 H 0.11105 0.85081 0.17684 0.0
H323 H 0.99065 0.74488 0.09026 0.0
H324 H 0.01017 0.69156 0.08688 0.0
H325 H 0.06117 0.76535 0.08016 0.0
C326 C 0.14208 0.03062 0.43277 0.0
C327 C 0.15897 0.06999 0.4141 0.0
C328 C 0.18213 0.02797 0.44592 0.0
C329 C 0.24048 0.06527 0.44014 0.0
C330 C 0.25777 0.10542 0.42142 0.0
C331 C 0.21677 0.10746 0.40868 0.0
C332 C 0.16203 0.98497 0.46589 0.0
C333 C 0.31959 0.14572 0.41466 0.0
C334 C 0.3453 0.09313 0.48447 0.0
C335 C 0.36626 0.05744 0.47885 0.0
C336 C 0.30405 0.09574 0.47215 0.0
C337 C 0.2835 0.06214 0.45363 0.0
C338 C 0.30429 0.02582 0.44792 0.0
C339 C 0.34525 0.0237 0.46067 0.0
C340 C 0.2825 0.13451 0.47893 0.0
C341 C 0.28373 0.98968 0.42818 0.0
H342 H 0.09744 0.00158 0.43705 0.0
H343 H 0.23008 0.13782 0.39421 0.0
H344 H 0.17817 0.95545 0.4635 0.0
H345 H 0.17904 0.00649 0.48143 0.0
H346 H 0.11517 0.95996 0.46845 0.0
H347 H 0.32602 0.17456 0.39972 0.0
H348 H 0.34043 0.17161 0.42884 0.0
H349 H 0.3411 0.12153 0.41076 0.0
H350 H 0.36087 0.11871 0.49871 0.0
H351 H 0.3617 0.99645 0.45615 0.0
H352 H 0.23597 0.10982 0.48267 0.0
H353 H 0.29127 0.16621 0.4648 0.0
H354 H 0.30222 0.15721 0.49396 0.0
H355 H 0.23724 0.96119 0.43048 0.0
H356 H 0.30397 0.96354 0.42601 0.0
H357 H 0.29276 0.01694 0.41246 0.0
C358 C 0.16646 0.17859 0.76683 0.0
C359 C 0.17693 0.17927 0.74359 0.0
C360 C 0.20746 0.2191 0.77962 0.0
C361 C 0.26099 0.25948 0.76902 0.0
C362 C 0.27188 0.2597 0.74554 0.0
C363 C 0.22921 0.22027 0.73302 0.0
C364 C 0.19344 0.21885 0.80443 0.0
C365 C 0.32905 0.30054 0.73376 0.0
C366 C 0.3554 0.39494 0.79659 0.0
C367 C 0.39019 0.38049 0.80852 0.0
C368 C 0.31253 0.35568 0.7841 0.0
C369 C 0.30572 0.30126 0.78251 0.0
C370 C 0.34161 0.28675 0.7938 0.0
C371 C 0.38247 0.32596 0.80703 0.0
C372 C 0.27408 0.37229 0.77281 0.0
C373 C 0.33686 0.2297 0.79195 0.0
H374 H 0.12585 0.14684 0.77493 0.0
H375 H 0.23742 0.22016 0.71505 0.0
H376 H 0.22141 0.20968 0.8145 0.0
H377 H 0.20105 0.2612 0.80845 0.0
H378 H 0.14879 0.18691 0.80979 0.0
H379 H 0.33111 0.29409 0.71554 0.0
H380 H 0.33913 0.3447 0.73553 0.0
H381 H 0.36228 0.29546 0.74174 0.0
H382 H 0.36145 0.4371 0.79691 0.0
H383 H 0.4078 0.31329 0.8164 0.0
H384 H 0.22926 0.34126 0.77824 0.0
H385 H 0.27918 0.3717 0.75427 0.0
H386 H 0.28282 0.41509 0.77676 0.0
H387 H 0.29529 0.19589 0.79969 0.0
H388 H 0.37067 0.22652 0.80038 0.0
H389 H 0.33924 0.22151 0.77396 0.0
C390 C 0.93073 0.02872 0.64487 0.0
C391 C 0.95024 0.06386 0.66273 0.0
C392 C 0.88866 0.02748 0.63187 0.0
C393 C 0.86522 0.06189 0.63697 0.0
C394 C 0.88516 0.09789 0.65485 0.0
C395 C 0.92763 0.09861 0.66747 0.0
C396 C 0.8689 0.98894 0.61281 0.0
C397 C 0.86102 0.135 0.66085 0.0
C398 C 0.78968 0.09503 0.592 0.0
C399 C 0.73276 0.05605 0.59854 0.0
C400 C 0.83322 0.09729 0.60431 0.0
C401 C 0.8195 0.05985 0.6237 0.0
C402 C 0.76212 0.0203 0.63037 0.0
C403 C 0.71942 0.01872 0.61765 0.0
C404 C 0.89389 0.13962 0.59651 0.0
C405 C 0.74582 0.97992 0.65104 0.0
H406 H 0.94812 0.00181 0.64113 0.0
H407 H 0.94242 0.12568 0.68131 0.0
H408 H 0.82323 0.95743 0.61599 0.0
H409 H 0.87406 0.0138 0.59678 0.0
H410 H 0.8925 0.96601 0.61064 0.0
H411 H 0.88149 0.16097 0.67509 0.0
H412 H 0.86636 0.1637 0.64605 0.0
H413 H 0.81497 0.10845 0.66551 0.0
H414 H 0.80023 0.12344 0.57706 0.0
H415 H 0.67547 0.9889 0.62289 0.0
H416 H 0.91759 0.11732 0.59309 0.0
H417 H 0.91467 0.16829 0.60998 0.0
H418 H 0.89741 0.16559 0.58102 0.0
H419 H 0.76543 0.95317 0.64928 0.0
H420 H 0.6993 0.95191 0.654 0.0
H421 H 0.76206 0.00401 0.66611 0.0
C422 C 0.94285 0.87905 0.99794 0.0
C423 C 0.94846 0.93278 0.99837 0.0
C424 C 0.90228 0.83747 0.98541 0.0
C425 C 0.8674 0.85037 0.97253 0.0
C426 C 0.87341 0.90487 0.97265 0.0
C427 C 0.91344 0.94525 0.98583 0.0
C428 C 0.89633 0.77951 0.98616 0.0
C429 C 0.83784 0.92059 0.95875 0.0
C430 C 0.79913 0.75712 0.92464 0.0
C431 C 0.74356 0.72219 0.9339 0.0
C432 C 0.83964 0.79978 0.93687 0.0
C433 C 0.82443 0.80658 0.95907 0.0
C434 C 0.76842 0.77076 0.96857 0.0
C435 C 0.72843 0.72944 0.95574 0.0
C436 C 0.89854 0.83785 0.92597 0.0
C437 C 0.75089 0.77573 0.99235 0.0
H438 H 0.96959 0.86913 0.00776 0.0
H439 H 0.91792 0.98687 0.98606 0.0
H440 H 0.8524 0.74692 0.99211 0.0
H441 H 0.9046 0.76982 0.969 0.0
H442 H 0.92582 0.77592 0.99743 0.0
H443 H 0.84891 0.96525 0.96015 0.0
H444 H 0.84344 0.91415 0.94077 0.0
H445 H 0.79243 0.8927 0.96424 0.0
H446 H 0.81049 0.7518 0.90763 0.0
H447 H 0.68539 0.70219 0.96286 0.0
H448 H 0.92974 0.83313 0.9357 0.0
H449 H 0.9095 0.88272 0.9261 0.0
H450 H 0.90293 0.82838 0.90829 0.0
H451 H 0.77794 0.77001 0.0043 0.0
H452 H 0.70597 0.74399 0.99736 0.0
H453 H 0.75702 0.81858 0.99406 0.0
C454 C 0.98464 0.90207 0.32287 0.0
C455 C 0.03422 0.94128 0.33218 0.0
C456 C 0.98404 0.86037 0.30971 0.0
C457 C 0.03382 0.85706 0.30632 0.0
C458 C 0.08372 0.8961 0.31601 0.0
C459 C 0.08349 0.93815 0.32858 0.0
C460 C 0.93038 0.82029 0.29923 0.0
C461 C 0.13732 0.89326 0.31323 0.0
C462 C 0.0208 0.71859 0.28983 0.0
C463 C 0.03935 0.73126 0.26694 0.0
C464 C 0.01863 0.7591 0.30286 0.0
C465 C 0.03406 0.81299 0.29258 0.0
C466 C 0.05162 0.82544 0.26931 0.0
C467 C 0.05472 0.78461 0.25682 0.0
C468 C 1.00097 0.74465 0.32772 0.0
C469 C 0.06726 0.88192 0.25761 0.0
H470 H 0.94658 0.9046 0.32555 0.0
H471 H 0.1218 0.96816 0.33592 0.0
H472 H 0.93851 0.82345 0.28066 0.0
H473 H 0.91611 0.77606 0.30538 0.0
H474 H 0.89564 0.82916 0.30311 0.0
H475 H 0.17194 0.92561 0.32247 0.0
H476 H 0.12899 0.85079 0.31944 0.0
H477 H 0.15194 0.89958 0.29513 0.0
H478 H 0.00918 0.67733 0.29762 0.0
H479 H 0.06849 0.79407 0.23904 0.0
H480 H 0.96385 0.7495 0.33194 0.0
H481 H 0.03574 0.77439 0.33761 0.0
H482 H 0.99004 0.70078 0.33309 0.0
H483 H 0.03212 0.89069 0.26037 0.0
H484 H 0.07699 0.88373 0.23919 0.0
H485 H 0.10478 0.91611 0.26487 0.0
C486 C 0.19185 0.99336 0.66639 0.0
C487 C 0.18607 0.04144 0.66507 0.0
C488 C 0.23485 0.99159 0.65328 0.0
C489 C 0.27315 0.03922 0.63874 0.0
C490 C 0.26751 0.08787 0.63743 0.0
C491 C 0.22393 0.08827 0.65052 0.0
C492 C 0.23928 0.93879 0.65495 0.0
C493 C 0.30769 0.13968 0.62226 0.0
C494 C 0.41695 0.06021 0.61935 0.0
C495 C 0.40855 0.04451 0.59719 0.0
C496 C 0.37292 0.05781 0.63324 0.0
C497 C 0.31919 0.03855 0.62476 0.0
C498 C 0.31033 0.02136 0.60249 0.0
C499 C 0.35529 0.02476 0.58894 0.0
C500 C 0.38417 0.07693 0.6568 0.0
C501 C 0.25366 1.00024 0.59288 0.0
H502 H 0.16266 0.95706 0.67759 0.0
H503 H 0.21986 0.12568 0.64948 0.0
H504 H 0.23591 0.92198 0.63811 0.0
H505 H 0.28121 0.94895 0.66058 0.0
H506 H 0.20589 0.90519 0.66688 0.0
H507 H 0.29793 0.17434 0.6234 0.0
H508 H 0.35176 0.15557 0.62678 0.0
H509 H 0.30577 0.12863 0.6045 0.0
H510 H 0.4582 0.07491 0.62568 0.0
H511 H 0.34905 0.01232 0.57178 0.0
H512 H 0.35355 0.04276 0.66925 0.0
H513 H 0.37816 0.11382 0.65854 0.0
H514 H 0.42771 0.08906 0.66106 0.0
H515 H 0.22002 0.96474 0.60403 0.0
H516 H 0.25295 0.98568 0.57571 0.0
H517 H 0.24315 0.03448 0.59203 0.0
C518 C 0.19048 0.20485 0.98005 0.0
C519 C 0.19838 0.16571 0.993 0.0
C520 C 0.23556 0.24954 0.96676 0.0
C521 C 0.28977 0.25489 0.96623 0.0
C522 C 0.29768 0.21458 0.97878 0.0
C523 C 0.25192 0.17061 0.99213 0.0
C524 C 0.22549 0.29187 0.95375 0.0
C525 C 0.35471 0.21851 0.97841 0.0
C526 C 0.39486 0.34746 0.91759 0.0
C527 C 0.42748 0.398 0.92772 0.0
C528 C 0.3505 0.30008 0.93003 0.0
C529 C 0.33845 0.30372 0.95306 0.0
C530 C 0.37193 0.35469 0.96338 0.0
C531 C 0.41643 0.40116 0.95059 0.0
C532 C 0.31621 0.24638 0.91848 0.0
C533 C 0.36018 0.36041 0.98783 0.0
H534 H 0.14924 0.20141 0.9807 0.0
H535 H 0.25822 0.14041 0.00208 0.0
H536 H 0.25212 0.33457 0.95973 0.0
H537 H 0.238 0.29426 0.9356 0.0
H538 H 0.18056 0.28102 0.95558 0.0
H539 H 0.35317 0.1822 0.98816 0.0
H540 H 0.37067 0.22014 0.96079 0.0
H541 H 0.38565 0.25815 0.98559 0.0
H542 H 0.40395 0.34527 0.89989 0.0
H543 H 0.4423 0.4403 0.95835 0.0
H544 H 0.27155 0.23616 0.91862 0.0
H545 H 0.31645 0.21049 0.92775 0.0
H546 H 0.33255 0.24979 0.90074 0.0
H547 H 0.31677 0.35349 0.9906 0.0
H548 H 0.39058 0.40269 0.99336 0.0
H549 H 0.36232 0.32765 0.99865 0.0
C550 C 0.0078 0.18302 0.31339 0.0
C551 C 0.05304 0.19419 0.32653 0.0
C552 C 0.00757 0.22639 0.30005 0.0
C553 C 0.05391 0.28224 0.2997 0.0
C554 C 0.10034 0.29356 0.31252 0.0
C555 C 0.09926 0.2494 0.32586 0.0
C556 C 0.95718 0.21265 0.28669 0.0
C557 C 0.15072 0.3525 0.31242 0.0
C558 C 0.07205 0.38566 0.25101 0.0
C559 C 0.04883 0.41569 0.26088 0.0
C560 C 0.07451 0.3424 0.2635 0.0
C561 C 0.05302 0.32896 0.28635 0.0
C562 C 0.02972 0.35955 0.29638 0.0
C563 C 0.0282 0.40287 0.28351 0.0
C564 C 0.09992 0.31102 0.25224 0.0
C565 C 0.00612 0.3463 0.32065 0.0
H566 H 0.97188 0.14045 0.31387 0.0
H567 H 0.13436 0.25825 0.33597 0.0
H568 H 0.93685 0.2367 0.29246 0.0
H569 H 0.97102 0.22572 0.26858 0.0
H570 H 0.9251 0.16685 0.28839 0.0
H571 H 0.18442 0.35385 0.32256 0.0
H572 H 0.1688 0.36911 0.2949 0.0
H573 H 0.13723 0.38128 0.31929 0.0
H574 H 0.08824 0.39613 0.23348 0.0
H575 H 0.01076 0.42673 0.29107 0.0
H576 H 0.06793 0.26539 0.25258 0.0
H577 H 0.13561 0.31465 0.26159 0.0
H578 H 0.11558 0.32731 0.23445 0.0
H579 H 0.97133 0.30168 0.3232 0.0
H580 H 0.98965 0.37414 0.3259 0.0
H581 H 0.03938 0.3512 0.33184 0.0
loop_
_geom_bond_atom_site_label_1
_geom_bond_atom_site_label_2
_geom_bond_distance
_geom_bond_site_symmetry_2
_ccdc_geom_bond_type
In0 O1 2.294 . S
In0 O2 2.326 . S
In0 O6 2.266 1_445 S
In0 O7 2.326 1_545 S
In0 O8 2.266 1_545 S
In0 O9 2.326 1_545 S
In0 O11 2.294 . S
In0 O12 2.326 . S
O1 In0 2.294 . S
O1 C10 1.240 . S
O2 In0 2.326 . S
O2 C10 1.252 . S
C3 O6 1.252 . S
C3 O7 1.260 1_655 S
C4 O11 1.240 . S
C4 O12 1.252 . S
C5 O8 1.252 . S
C5 O9 1.260 . S
O6 In0 2.266 1_665 S
O6 C3 1.252 . S
O7 In0 2.326 1_565 S
O7 C3 1.260 1_455 S
O8 In0 2.266 1_565 S
O8 C5 1.252 . S
O9 In0 2.326 1_565 S
O9 C5 1.260 . S
C10 O1 1.240 . S
C10 O2 1.252 . S
O11 In0 2.294 . S
O11 C4 1.240 . S
O12 In0 2.326 . S
O12 C4 1.252 . S
In13 O14 2.294 . S
In13 O15 2.326 1_455 S
In13 O19 2.266 . S
In13 O20 2.326 . S
In13 O21 2.266 1_445 S
In13 O22 2.326 . S
In13 O24 2.294 1_455 S
In13 O25 2.326 . S
O14 In13 2.294 . S
O14 C23 1.240 . S
O15 In13 2.326 1_655 S
O15 C23 1.252 1_655 S
C16 O19 1.252 . S
C16 O20 1.260 . S
C17 O24 1.240 . S
C17 O25 1.252 1_655 S
C18 O21 1.254 1_445 S
C18 O22 1.267 . S
O19 In13 2.266 . S
O19 C16 1.252 . S
O20 In13 2.326 . S
O20 C16 1.260 . S
O21 In13 2.266 1_665 S
O21 C18 1.254 1_665 S
O22 In13 2.326 . S
O22 C18 1.267 . S
C23 O14 1.240 . S
C23 O15 1.252 1_455 S
O24 In13 2.294 1_655 S
O24 C17 1.240 . S
O25 In13 2.326 . S
O25 C17 1.252 1_455 S
In26 O27 2.294 1_545 S
In26 O28 2.326 1_455 S
In26 O32 2.266 . S
In26 O33 2.326 . S
In26 O34 2.266 . S
In26 O35 2.326 . S
In26 O37 2.294 . S
In26 O38 2.326 1_445 S
O27 In26 2.294 1_565 S
O27 C36 1.240 1_455 S
O28 In26 2.326 1_655 S
O28 C36 1.252 1_545 S
C29 O32 1.252 . S
C29 O33 1.260 . S
C30 O37 1.240 1_655 S
C30 O38 1.252 1_545 S
C31 O34 1.252 . S
C31 O35 1.260 . S
O32 In26 2.266 . S
O32 C29 1.252 . S
O33 In26 2.326 . S
O33 C29 1.260 . S
O34 In26 2.266 . S
O34 C31 1.252 . S
O35 In26 2.326 . S
O35 C31 1.260 . S
C36 O27 1.240 1_655 S
C36 O28 1.252 1_565 S
O37 In26 2.294 . S
O37 C30 1.240 1_455 S
O38 In26 2.326 1_665 S
O38 C30 1.252 1_565 S
C39 C40 1.443 . S
C39 N43 1.376 . S
C39 C77 1.389 . S
C40 C39 1.443 . S
C40 C41 1.340 . S
C40 H80 0.951 . S
C41 C40 1.340 . S
C41 C42 1.439 . S
C41 H81 0.950 . S
C42 C41 1.439 . S
C42 N43 1.374 . S
C42 C76 1.395 . S
N43 C39 1.376 . S
N43 C42 1.374 . S
N43 Co44 2.008 . S
Co44 N43 2.008 . S
Co44 N45 1.995 . S
Co44 N50 2.008 1_455 S
Co44 N55 1.995 1_455 S
Co44 N60 2.282 . S
Co44 N66 2.282 . S
N45 Co44 1.995 . S
N45 C46 1.376 . S
N45 C49 1.383 . S
C46 N45 1.376 . S
C46 C47 1.446 . S
C46 C76 1.391 . S
C47 C46 1.446 . S
C47 C48 1.339 . S
C47 H82 0.949 . S
C48 C47 1.339 . S
C48 C49 1.439 . S
C48 H83 0.950 . S
C49 N45 1.383 . S
C49 C48 1.439 . S
C49 C78 1.392 . S
N50 Co44 2.008 1_655 S
N50 C51 1.376 . S
N50 C54 1.374 . S
C51 N50 1.376 . S
C51 C52 1.443 . S
C51 C78 1.389 1_655 S
C52 C51 1.443 . S
C52 C53 1.340 . S
C52 H84 0.951 . S
C53 C52 1.340 . S
C53 C54 1.439 . S
C53 H85 0.950 . S
C54 N50 1.374 . S
C54 C53 1.439 . S
C54 C79 1.395 . S
N55 Co44 1.995 1_655 S
N55 C56 1.376 . S
N55 C59 1.383 . S
C56 N55 1.376 . S
C56 C57 1.446 . S
C56 C79 1.391 . S
C57 C56 1.446 . S
C57 C58 1.339 . S
C57 H86 0.949 . S
C58 C57 1.339 . S
C58 C59 1.439 . S
C58 H87 0.950 . S
C59 N55 1.383 . S
C59 C58 1.439 . S
C59 C77 1.392 1_655 S
N60 Co44 2.282 . S
N60 C63 1.332 . S
N60 C65 1.332 . S
C61 C62 1.386 . S
C61 C64 1.388 . S
C62 C61 1.386 . S
C62 C63 1.382 . S
C62 H88 0.950 1_455 S
C63 N60 1.332 . S
C63 C62 1.382 . S
C63 H74 0.952 1_455 S
C64 C61 1.388 . S
C64 C65 1.382 . S
C64 H89 0.950 . S
C65 N60 1.332 . S
C65 C64 1.382 . S
C65 H75 0.948 . S
N66 Co44 2.282 . S
N66 C70 1.332 . S
N66 C71 1.332 1_455 S
C67 C68 1.388 1_655 S
C67 C71 1.382 . S
C67 H90 0.950 . S
C68 C67 1.388 1_455 S
C68 C69 1.386 . S
C69 C68 1.386 . S
C69 C70 1.382 . S
C69 H91 0.950 . S
C70 N66 1.332 . S
C70 C69 1.382 . S
C70 H72 0.952 . S
C71 N66 1.332 1_655 S
C71 C67 1.382 . S
C71 H73 0.948 . S
H72 C70 0.952 . S
H73 C71 0.948 . S
H74 C63 0.952 1_655 S
H75 C65 0.948 . S
C76 C42 1.395 . S
C76 C46 1.391 . S
C77 C39 1.389 . S
C77 C59 1.392 1_455 S
C78 C49 1.392 . S
C78 C51 1.389 1_455 S
C79 C54 1.395 . S
C79 C56 1.391 . S
H80 C40 0.951 . S
H81 C41 0.950 . S
H82 C47 0.949 . S
H83 C48 0.950 . S
H84 C52 0.951 . S
H85 C53 0.950 . S
H86 C57 0.949 . S
H87 C58 0.950 . S
H88 C62 0.950 1_655 S
H89 C64 0.950 . S
H90 C67 0.950 . S
H91 C69 0.950 . S
C92 C93 1.443 1_545 S
C92 N96 1.377 . S
C92 C130 1.389 . S
C93 C92 1.443 1_565 S
C93 C94 1.340 . S
C93 H133 0.951 . S
C94 C93 1.340 . S
C94 C95 1.439 . S
C94 H134 0.950 . S
C95 C94 1.439 . S
C95 N96 1.372 1_565 S
C95 C129 1.395 . S
N96 C92 1.377 . S
N96 C95 1.372 1_545 S
N96 Co97 2.009 . S
Co97 N96 2.009 . S
Co97 N98 1.995 . S
Co97 N103 2.008 . S
Co97 N108 1.995 . S
Co97 N113 2.282 . S
Co97 N119 2.282 . S
N98 Co97 1.995 . S
N98 C99 1.376 1_545 S
N98 C102 1.383 . S
C99 N98 1.376 1_565 S
C99 C100 1.446 . S
C99 C129 1.391 . S
C100 C99 1.446 . S
C100 C101 1.339 . S
C100 H135 0.949 . S
C101 C100 1.339 . S
C101 C102 1.439 1_565 S
C101 H136 0.950 . S
C102 N98 1.383 . S
C102 C101 1.439 1_545 S
C102 C131 1.392 . S
N103 Co97 2.008 . S
N103 C104 1.376 . S
N103 C107 1.374 . S
C104 N103 1.376 . S
C104 C105 1.443 . S
C104 C131 1.389 . S
C105 C104 1.443 . S
C105 C106 1.340 . S
C105 H137 0.951 . S
C106 C105 1.340 . S
C106 C107 1.439 . S
C106 H138 0.950 . S
C107 N103 1.374 . S
C107 C106 1.439 . S
C107 C132 1.395 . S
N108 Co97 1.995 . S
N108 C109 1.376 . S
N108 C112 1.383 . S
C109 N108 1.376 . S
C109 C110 1.446 . S
C109 C132 1.391 . S
C110 C109 1.446 . S
C110 C111 1.339 . S
C110 H139 0.949 . S
C111 C110 1.339 . S
C111 C112 1.439 . S
C111 H140 0.950 . S
C112 N108 1.383 . S
C112 C111 1.439 . S
C112 C130 1.392 . S
N113 Co97 2.282 . S
N113 C116 1.332 . S
N113 C118 1.332 . S
C114 C115 1.386 . S
C114 C117 1.388 . S
C115 C114 1.386 . S
C115 C116 1.382 . S
C115 H141 0.950 . S
C116 N113 1.332 . S
C116 C115 1.382 . S
C116 H127 0.952 . S
C117 C114 1.388 . S
C117 C118 1.382 . S
C117 H142 0.950 1_545 S
C118 N113 1.332 . S
C118 C117 1.382 . S
C118 H128 0.948 1_545 S
N119 Co97 2.282 . S
N119 C123 1.332 . S
N119 C124 1.332 . S
C120 C121 1.388 . S
C120 C124 1.382 . S
C120 H143 0.950 . S
C121 C120 1.388 . S
C121 C122 1.386 . S
C122 C121 1.386 . S
C122 C123 1.382 . S
C122 H144 0.950 1_545 S
C123 N119 1.332 . S
C123 C122 1.382 . S
C123 H125 0.952 1_545 S
C124 N119 1.332 . S
C124 C120 1.382 . S
C124 H126 0.948 . S
H125 C123 0.952 1_565 S
H126 C124 0.948 . S
H127 C116 0.952 . S
H128 C118 0.948 1_565 S
C129 C95 1.395 . S
C129 C99 1.391 . S
C130 C92 1.389 . S
C130 C112 1.392 . S
C131 C102 1.392 . S
C131 C104 1.389 . S
C132 C107 1.395 . S
C132 C109 1.391 . S
H133 C93 0.951 . S
H134 C94 0.950 . S
H135 C100 0.949 . S
H136 C101 0.950 . S
H137 C105 0.951 . S
H138 C106 0.950 . S
H139 C110 0.949 . S
H140 C111 0.950 . S
H141 C115 0.950 . S
H142 C117 0.950 1_565 S
H143 C120 0.950 . S
H144 C122 0.950 1_565 S
C145 C146 1.443 . S
C145 N149 1.376 . S
C145 C183 1.389 . S
C146 C145 1.443 . S
C146 C147 1.340 . S
C146 H186 0.951 . S
C147 C146 1.340 . S
C147 C148 1.439 . S
C147 H187 0.950 . S
C148 C147 1.439 . S
C148 N149 1.374 . S
C148 C182 1.395 . S
N149 C145 1.376 . S
N149 C148 1.374 . S
N149 Co150 2.008 . S
Co150 N149 2.008 . S
Co150 N151 1.995 . S
Co150 N156 2.008 . S
Co150 N161 1.995 . S
Co150 N166 2.282 . S
Co150 N172 2.282 . S
N151 Co150 1.995 . S
N151 C152 1.376 . S
N151 C155 1.383 . S
C152 N151 1.376 . S
C152 C153 1.446 . S
C152 C182 1.391 . S
C153 C152 1.446 . S
C153 C154 1.339 . S
C153 H188 0.949 . S
C154 C153 1.339 . S
C154 C155 1.439 . S
C154 H189 0.950 . S
C155 N151 1.383 . S
C155 C154 1.439 . S
C155 C184 1.392 . S
N156 Co150 2.008 . S
N156 C157 1.376 . S
N156 C160 1.374 . S
C157 N156 1.376 . S
C157 C158 1.443 . S
C157 C184 1.389 . S
C158 C157 1.443 . S
C158 C159 1.340 . S
C158 H190 0.951 . S
C159 C158 1.340 . S
C159 C160 1.439 . S
C159 H191 0.950 . S
C160 N156 1.374 . S
C160 C159 1.439 . S
C160 C185 1.395 . S
N161 Co150 1.995 . S
N161 C162 1.376 . S
N161 C165 1.383 . S
C162 N161 1.376 . S
C162 C163 1.446 . S
C162 C185 1.391 . S
C163 C162 1.446 . S
C163 C164 1.339 . S
C163 H192 0.949 . S
C164 C163 1.339 . S
C164 C165 1.439 . S
C164 H193 0.950 . S
C165 N161 1.383 . S
C165 C164 1.439 . S
C165 C183 1.392 . S
N166 Co150 2.282 . S
N166 C169 1.332 . S
N166 C171 1.332 . S
C167 C168 1.386 . S
C167 C170 1.388 . S
C168 C167 1.386 . S
C168 C169 1.382 . S
C168 H194 0.950 . S
C169 N166 1.332 . S
C169 C168 1.382 . S
C169 H180 0.952 . S
C170 C167 1.388 . S
C170 C171 1.382 . S
C170 H195 0.950 . S
C171 N166 1.332 . S
C171 C170 1.382 . S
C171 H181 0.948 . S
N172 Co150 2.282 . S
N172 C176 1.332 . S
N172 C177 1.332 . S
C173 C174 1.388 . S
C173 C177 1.382 . S
C173 H196 0.950 . S
C174 C173 1.388 . S
C174 C175 1.386 . S
C175 C174 1.386 . S
C175 C176 1.382 . S
C175 H197 0.950 . S
C176 N172 1.332 . S
C176 C175 1.382 . S
C176 H178 0.952 . S
C177 N172 1.332 . S
C177 C173 1.382 . S
C177 H179 0.948 . S
H178 C176 0.952 . S
H179 C177 0.948 . S
H180 C169 0.952 . S
H181 C171 0.948 . S
C182 C148 1.395 . S
C182 C152 1.391 . S
C183 C145 1.389 . S
C183 C165 1.392 . S
C184 C155 1.392 . S
C184 C157 1.389 . S
C185 C160 1.395 . S
C185 C162 1.391 . S
H186 C146 0.951 . S
H187 C147 0.950 . S
H188 C153 0.949 . S
H189 C154 0.950 . S
H190 C158 0.951 . S
H191 C159 0.950 . S
H192 C163 0.949 . S
H193 C164 0.950 . S
H194 C168 0.950 . S
H195 C170 0.950 . S
H196 C173 0.950 . S
H197 C175 0.950 . S
C198 C199 1.391 . S
C198 C200 1.394 . S
C198 H214 0.931 1_455 S
C199 C198 1.391 . S
C199 C203 1.376 . S
C200 C198 1.394 . S
C200 C201 1.369 . S
C200 C204 1.531 1_455 S
C201 C200 1.369 . S
C201 C202 1.410 . S
C201 C209 1.503 . S
C202 C201 1.410 . S
C202 C203 1.392 . S
C202 C205 1.511 . S
C203 C199 1.376 . S
C203 C202 1.392 . S
C203 H215 0.929 . S
C204 C200 1.531 1_655 S
C204 H216 0.960 . S
C204 H217 0.962 . S
C204 H218 0.960 . S
C205 C202 1.511 . S
C205 H219 0.961 . S
C205 H220 0.961 . S
C205 H221 0.961 . S
C206 C207 1.370 . S
C206 C208 1.363 . S
C206 H222 0.931 . S
C207 C206 1.370 . S
C207 C211 1.408 . S
C208 C206 1.363 . S
C208 C209 1.370 . S
C208 C212 1.524 . S
C209 C201 1.503 . S
C209 C208 1.370 . S
C209 C210 1.403 . S
C210 C209 1.403 . S
C210 C211 1.404 . S
C210 C213 1.539 . S
C211 C207 1.408 . S
C211 C210 1.404 . S
C211 H223 0.930 . S
C212 C208 1.524 . S
C212 H224 0.956 . S
C212 H225 0.961 . S
C212 H226 0.961 . S
C213 C210 1.539 . S
C213 H227 0.958 . S
C213 H228 0.961 . S
C213 H229 0.960 . S
H214 C198 0.931 1_655 S
H215 C203 0.929 . S
H216 C204 0.960 . S
H217 C204 0.962 . S
H218 C204 0.960 . S
H219 C205 0.961 . S
H220 C205 0.961 . S
H221 C205 0.961 . S
H222 C206 0.931 . S
H223 C211 0.930 . S
H224 C212 0.956 . S
H225 C212 0.961 . S
H226 C212 0.961 . S
H227 C213 0.958 . S
H228 C213 0.961 . S
H229 C213 0.960 . S
C230 C231 1.391 . S
C230 C232 1.394 . S
C230 H246 0.931 . S
C231 C230 1.391 . S
C231 C235 1.376 . S
C232 C230 1.394 . S
C232 C233 1.369 . S
C232 C236 1.531 . S
C233 C232 1.369 . S
C233 C234 1.410 . S
C233 C241 1.503 . S
C234 C233 1.410 . S
C234 C235 1.392 . S
C234 C237 1.511 . S
C235 C231 1.376 . S
C235 C234 1.392 . S
C235 H247 0.929 . S
C236 C232 1.531 . S
C236 H248 0.960 . S
C236 H249 0.962 . S
C236 H250 0.960 . S
C237 C234 1.511 . S
C237 H251 0.961 . S
C237 H252 0.961 . S
C237 H253 0.961 . S
C238 C239 1.370 . S
C238 C240 1.363 . S
C238 H254 0.931 1_545 S
C239 C238 1.370 . S
C239 C243 1.408 . S
C240 C238 1.363 . S
C240 C241 1.370 . S
C240 C244 1.524 1_545 S
C241 C233 1.503 . S
C241 C240 1.370 . S
C241 C242 1.403 . S
C242 C241 1.403 . S
C242 C243 1.404 . S
C242 C245 1.539 . S
C243 C239 1.408 . S
C243 C242 1.404 . S
C243 H255 0.930 . S
C244 C240 1.524 1_565 S
C244 H256 0.956 . S
C244 H257 0.961 . S
C244 H258 0.961 . S
C245 C242 1.539 . S
C245 H259 0.958 . S
C245 H260 0.961 . S
C245 H261 0.960 . S
H246 C230 0.931 . S
H247 C235 0.929 . S
H248 C236 0.960 . S
H249 C236 0.962 . S
H250 C236 0.960 . S
H251 C237 0.961 . S
H252 C237 0.961 . S
H253 C237 0.961 . S
H254 C238 0.931 1_565 S
H255 C243 0.930 . S
H256 C244 0.956 . S
H257 C244 0.961 . S
H258 C244 0.961 . S
H259 C245 0.958 . S
H260 C245 0.961 . S
H261 C245 0.960 . S
C262 C263 1.391 . S
C262 C264 1.394 . S
C262 H278 0.931 . S
C263 C262 1.391 . S
C263 C267 1.376 . S
C264 C262 1.394 . S
C264 C265 1.369 . S
C264 C268 1.531 . S
C265 C264 1.369 . S
C265 C266 1.410 . S
C265 C273 1.503 . S
C266 C265 1.410 . S
C266 C267 1.392 . S
C266 C269 1.511 . S
C267 C263 1.376 . S
C267 C266 1.392 . S
C267 H279 0.929 . S
C268 C264 1.531 . S
C268 H280 0.960 . S
C268 H281 0.962 . S
C268 H282 0.960 . S
C269 C266 1.511 . S
C269 H283 0.961 . S
C269 H284 0.961 . S
C269 H285 0.961 . S
C270 C271 1.370 . S
C270 C272 1.363 . S
C270 H286 0.931 . S
C271 C270 1.370 . S
C271 C275 1.408 . S
C272 C270 1.363 . S
C272 C273 1.370 . S
C272 C276 1.524 . S
C273 C265 1.503 . S
C273 C272 1.370 . S
C273 C274 1.403 . S
C274 C273 1.403 . S
C274 C275 1.404 . S
C274 C277 1.539 . S
C275 C271 1.408 . S
C275 C274 1.404 . S
C275 H287 0.930 . S
C276 C272 1.524 . S
C276 H288 0.956 . S
C276 H289 0.961 . S
C276 H290 0.961 . S
C277 C274 1.539 . S
C277 H291 0.958 . S
C277 H292 0.961 . S
C277 H293 0.960 . S
H278 C262 0.931 . S
H279 C267 0.929 . S
H280 C268 0.960 . S
H281 C268 0.962 . S
H282 C268 0.960 . S
H283 C269 0.961 . S
H284 C269 0.961 . S
H285 C269 0.961 . S
H286 C270 0.931 . S
H287 C275 0.930 . S
H288 C276 0.956 . S
H289 C276 0.961 . S
H290 C276 0.961 . S
H291 C277 0.958 . S
H292 C277 0.961 . S
H293 C277 0.960 . S
C294 C295 1.391 . S
C294 C296 1.394 . S
C294 H310 0.931 . S
C295 C294 1.391 . S
C295 C299 1.376 . S
C296 C294 1.394 . S
C296 C297 1.369 . S
C296 C300 1.531 . S
C297 C296 1.369 . S
C297 C298 1.410 . S
C297 C305 1.503 . S
C298 C297 1.410 . S
C298 C299 1.392 . S
C298 C301 1.511 . S
C299 C295 1.376 . S
C299 C298 1.392 . S
C299 H311 0.929 . S
C300 C296 1.531 . S
C300 H312 0.960 . S
C300 H313 0.962 1_455 S
C300 H314 0.960 . S
C301 C298 1.511 . S
C301 H315 0.961 . S
C301 H316 0.961 . S
C301 H317 0.961 . S
C302 C303 1.370 . S
C302 C304 1.363 . S
C302 H318 0.931 1_455 S
C303 C302 1.370 . S
C303 C307 1.408 . S
C304 C302 1.363 . S
C304 C305 1.370 . S
C304 C308 1.524 1_455 S
C305 C297 1.503 . S
C305 C304 1.370 . S
C305 C306 1.403 . S
C306 C305 1.403 . S
C306 C307 1.404 . S
C306 C309 1.539 . S
C307 C303 1.408 . S
C307 C306 1.404 . S
C307 H319 0.930 . S
C308 C304 1.524 1_655 S
C308 H320 0.956 . S
C308 H321 0.961 . S
C308 H322 0.961 . S
C309 C306 1.539 . S
C309 H323 0.958 . S
C309 H324 0.961 . S
C309 H325 0.960 . S
H310 C294 0.931 . S
H311 C299 0.929 . S
H312 C300 0.960 . S
H313 C300 0.962 1_655 S
H314 C300 0.960 . S
H315 C301 0.961 . S
H316 C301 0.961 . S
H317 C301 0.961 . S
H318 C302 0.931 1_655 S
H319 C307 0.930 . S
H320 C308 0.956 . S
H321 C308 0.961 . S
H322 C308 0.961 . S
H323 C309 0.958 . S
H324 C309 0.961 . S
H325 C309 0.960 . S
C326 C327 1.391 . S
C326 C328 1.394 . S
C326 H342 0.931 . S
C327 C326 1.391 . S
C327 C331 1.376 . S
C328 C326 1.394 . S
C328 C329 1.369 . S
C328 C332 1.531 1_545 S
C329 C328 1.369 . S
C329 C330 1.410 . S
C329 C337 1.503 . S
C330 C329 1.410 . S
C330 C331 1.392 . S
C330 C333 1.511 . S
C331 C327 1.376 . S
C331 C330 1.392 . S
C331 H343 0.929 . S
C332 C328 1.531 1_565 S
C332 H344 0.960 . S
C332 H345 0.962 1_565 S
C332 H346 0.960 . S
C333 C330 1.511 . S
C333 H347 0.961 . S
C333 H348 0.961 . S
C333 H349 0.961 . S
C334 C335 1.370 . S
C334 C336 1.363 . S
C334 H350 0.931 . S
C335 C334 1.370 . S
C335 C339 1.408 . S
C336 C334 1.363 . S
C336 C337 1.370 . S
C336 C340 1.524 . S
C337 C329 1.503 . S
C337 C336 1.370 . S
C337 C338 1.403 . S
C338 C337 1.403 . S
C338 C339 1.404 . S
C338 C341 1.539 1_545 S
C339 C335 1.408 . S
C339 C338 1.404 . S
C339 H351 0.930 1_545 S
C340 C336 1.524 . S
C340 H352 0.956 . S
C340 H353 0.961 . S
C340 H354 0.961 . S
C341 C338 1.539 1_565 S
C341 H355 0.958 . S
C341 H356 0.961 . S
C341 H357 0.960 . S
H342 C326 0.931 . S
H343 C331 0.929 . S
H344 C332 0.960 . S
H345 C332 0.962 1_545 S
H346 C332 0.960 . S
H347 C333 0.961 . S
H348 C333 0.961 . S
H349 C333 0.961 . S
H350 C334 0.931 . S
H351 C339 0.930 1_565 S
H352 C340 0.956 . S
H353 C340 0.961 . S
H354 C340 0.961 . S
H355 C341 0.958 . S
H356 C341 0.961 . S
H357 C341 0.960 . S
C358 C359 1.391 . S
C358 C360 1.394 . S
C358 H374 0.931 . S
C359 C358 1.391 . S
C359 C363 1.376 . S
C360 C358 1.394 . S
C360 C361 1.369 . S
C360 C364 1.531 . S
C361 C360 1.369 . S
C361 C362 1.410 . S
C361 C369 1.503 . S
C362 C361 1.410 . S
C362 C363 1.392 . S
C362 C365 1.511 . S
C363 C359 1.376 . S
C363 C362 1.392 . S
C363 H375 0.929 . S
C364 C360 1.531 . S
C364 H376 0.960 . S
C364 H377 0.962 . S
C364 H378 0.960 . S
C365 C362 1.511 . S
C365 H379 0.961 . S
C365 H380 0.961 . S
C365 H381 0.961 . S
C366 C367 1.370 . S
C366 C368 1.363 . S
C366 H382 0.931 . S
C367 C366 1.370 . S
C367 C371 1.408 . S
C368 C366 1.363 . S
C368 C369 1.370 . S
C368 C372 1.524 . S
C369 C361 1.503 . S
C369 C368 1.370 . S
C369 C370 1.403 . S
C370 C369 1.403 . S
C370 C371 1.404 . S
C370 C373 1.539 . S
C371 C367 1.408 . S
C371 C370 1.404 . S
C371 H383 0.930 . S
C372 C368 1.524 . S
C372 H384 0.956 . S
C372 H385 0.961 . S
C372 H386 0.961 . S
C373 C370 1.539 . S
C373 H387 0.958 . S
C373 H388 0.961 . S
C373 H389 0.960 . S
H374 C358 0.931 . S
H375 C363 0.929 . S
H376 C364 0.960 . S
H377 C364 0.962 . S
H378 C364 0.960 . S
H379 C365 0.961 . S
H380 C365 0.961 . S
H381 C365 0.961 . S
H382 C366 0.931 . S
H383 C371 0.930 . S
H384 C372 0.956 . S
H385 C372 0.961 . S
H386 C372 0.961 . S
H387 C373 0.958 . S
H388 C373 0.961 . S
H389 C373 0.960 . S
C390 C391 1.391 . S
C390 C392 1.394 . S
C390 H406 0.931 . S
C391 C390 1.391 . S
C391 C395 1.376 . S
C392 C390 1.394 . S
C392 C393 1.369 . S
C392 C396 1.531 . S
C393 C392 1.369 . S
C393 C394 1.410 . S
C393 C401 1.503 . S
C394 C393 1.410 . S
C394 C395 1.392 . S
C394 C397 1.511 . S
C395 C391 1.376 . S
C395 C394 1.392 . S
C395 H407 0.929 . S
C396 C392 1.531 . S
C396 H408 0.960 . S
C396 H409 0.962 . S
C396 H410 0.960 . S
C397 C394 1.511 . S
C397 H411 0.961 . S
C397 H412 0.961 . S
C397 H413 0.961 1_545 S
C398 C399 1.370 . S
C398 C400 1.363 . S
C398 H414 0.931 . S
C399 C398 1.370 . S
C399 C403 1.408 1_545 S
C400 C398 1.363 . S
C400 C401 1.370 . S
C400 C404 1.524 . S
C401 C393 1.503 . S
C401 C400 1.370 . S
C401 C402 1.403 1_545 S
C402 C401 1.403 1_565 S
C402 C403 1.404 . S
C402 C405 1.539 . S
C403 C399 1.408 1_565 S
C403 C402 1.404 . S
C403 H415 0.930 . S
C404 C400 1.524 . S
C404 H416 0.956 . S
C404 H417 0.961 . S
C404 H418 0.961 . S
C405 C402 1.539 . S
C405 H419 0.958 . S
C405 H420 0.961 . S
C405 H421 0.960 . S
H406 C390 0.931 . S
H407 C395 0.929 . S
H408 C396 0.960 . S
H409 C396 0.962 . S
H410 C396 0.960 . S
H411 C397 0.961 . S
H412 C397 0.961 . S
H413 C397 0.961 1_565 S
H414 C398 0.931 . S
H415 C403 0.930 . S
H416 C404 0.956 . S
H417 C404 0.961 . S
H418 C404 0.961 . S
H419 C405 0.958 . S
H420 C405 0.961 . S
H421 C405 0.960 . S
C422 C423 1.393 . S
C422 C424 1.394 1_554 S
C422 H438 0.931 . S
C423 C422 1.393 . S
C423 C427 1.368 1_554 S
C424 C422 1.394 1_556 S
C424 C425 1.369 . S
C424 C428 1.531 1_556 S
C425 C424 1.369 . S
C425 C426 1.410 . S
C425 C433 1.503 . S
C426 C425 1.410 . S
C426 C427 1.392 . S
C426 C429 1.511 . S
C427 C423 1.368 1_556 S
C427 C426 1.392 . S
C427 H439 0.929 . S
C428 C424 1.531 1_554 S
C428 H440 0.960 1_554 S
C428 H441 0.962 1_554 S
C428 H442 0.960 . S
C429 C426 1.511 . S
C429 H443 0.961 . S
C429 H444 0.961 . S
C429 H445 0.961 . S
C430 C431 1.370 . S
C430 C432 1.363 . S
C430 H446 0.931 . S
C431 C430 1.370 . S
C431 C435 1.408 . S
C432 C430 1.363 . S
C432 C433 1.370 . S
C432 C436 1.524 . S
C433 C425 1.503 . S
C433 C432 1.370 . S
C433 C434 1.403 . S
C434 C433 1.403 . S
C434 C435 1.404 . S
C434 C437 1.539 . S
C435 C431 1.408 . S
C435 C434 1.404 . S
C435 H447 0.930 . S
C436 C432 1.524 . S
C436 H448 0.956 . S
C436 H449 0.961 . S
C436 H450 0.961 . S
C437 C434 1.539 . S
C437 H451 0.958 . S
C437 H452 0.961 . S
C437 H453 0.960 . S
H438 C422 0.931 . S
H439 C427 0.929 . S
H440 C428 0.960 1_556 S
H441 C428 0.962 1_556 S
H442 C428 0.960 . S
H443 C429 0.961 . S
H444 C429 0.961 . S
H445 C429 0.961 . S
H446 C430 0.931 . S
H447 C435 0.930 . S
H448 C436 0.956 . S
H449 C436 0.961 . S
H450 C436 0.961 . S
H451 C437 0.958 . S
H452 C437 0.961 . S
H453 C437 0.960 . S
C454 C455 1.391 . S
C454 C456 1.394 . S
C454 H470 0.931 1_455 S
C455 C454 1.391 . S
C455 C459 1.376 . S
C456 C454 1.394 . S
C456 C457 1.369 . S
C456 C460 1.531 1_455 S
C457 C456 1.369 . S
C457 C458 1.410 . S
C457 C465 1.503 . S
C458 C457 1.410 . S
C458 C459 1.392 . S
C458 C461 1.511 . S
C459 C455 1.376 . S
C459 C458 1.392 . S
C459 H471 0.929 . S
C460 C456 1.531 1_655 S
C460 H472 0.960 . S
C460 H473 0.962 . S
C460 H474 0.960 . S
C461 C458 1.511 . S
C461 H475 0.961 . S
C461 H476 0.961 . S
C461 H477 0.961 . S
C462 C463 1.370 . S
C462 C464 1.363 . S
C462 H478 0.931 1_455 S
C463 C462 1.370 . S
C463 C467 1.408 . S
C464 C462 1.363 . S
C464 C465 1.370 . S
C464 C468 1.524 1_455 S
C465 C457 1.503 . S
C465 C464 1.370 . S
C465 C466 1.403 . S
C466 C465 1.403 . S
C466 C467 1.404 . S
C466 C469 1.539 . S
C467 C463 1.408 . S
C467 C466 1.404 . S
C467 H479 0.930 . S
C468 C464 1.524 1_655 S
C468 H480 0.956 . S
C468 H481 0.961 . S
C468 H482 0.961 . S
C469 C466 1.539 . S
C469 H483 0.958 . S
C469 H484 0.961 . S
C469 H485 0.960 . S
H470 C454 0.931 1_655 S
H471 C459 0.929 . S
H472 C460 0.960 . S
H473 C460 0.962 . S
H474 C460 0.960 . S
H475 C461 0.961 . S
H476 C461 0.961 . S
H477 C461 0.961 . S
H478 C462 0.931 1_655 S
H479 C467 0.930 . S
H480 C468 0.956 . S
H481 C468 0.961 . S
H482 C468 0.961 . S
H483 C469 0.958 . S
H484 C469 0.961 . S
H485 C469 0.960 . S
C486 C487 1.370 1_565 S
C486 C488 1.406 1_565 S
C486 H502 0.943 . S
C487 C486 1.370 1_545 S
C487 C491 1.376 . S
C488 C486 1.406 1_545 S
C488 C489 1.374 . S
C488 C492 1.521 1_545 S
C489 C488 1.374 . S
C489 C490 1.410 . S
C489 C497 1.503 . S
C490 C489 1.410 . S
C490 C491 1.392 . S
C490 C493 1.511 . S
C491 C487 1.376 . S
C491 C490 1.392 . S
C491 H503 0.929 . S
C492 C488 1.521 1_565 S
C492 H504 0.960 . S
C492 H505 0.962 . S
C492 H506 0.960 . S
C493 C490 1.511 . S
C493 H507 0.961 . S
C493 H508 0.961 . S
C493 H509 0.961 . S
C494 C495 1.370 . S
C494 C496 1.363 . S
C494 H510 0.931 . S
C495 C494 1.370 . S
C495 C499 1.408 . S
C496 C494 1.363 . S
C496 C497 1.370 . S
C496 C500 1.524 . S
C497 C489 1.503 . S
C497 C496 1.370 . S
C497 C498 1.403 . S
C498 C497 1.403 . S
C498 C499 1.404 . S
C498 C501 1.539 . S
C499 C495 1.408 . S
C499 C498 1.404 . S
C499 H511 0.930 . S
C500 C496 1.524 . S
C500 H512 0.956 . S
C500 H513 0.961 . S
C500 H514 0.961 . S
C501 C498 1.539 . S
C501 H515 0.958 1_545 S
C501 H516 0.961 . S
C501 H517 0.960 . S
H502 C486 0.943 . S
H503 C491 0.929 . S
H504 C492 0.960 . S
H505 C492 0.962 . S
H506 C492 0.960 . S
H507 C493 0.961 . S
H508 C493 0.961 . S
H509 C493 0.961 . S
H510 C494 0.931 . S
H511 C499 0.930 . S
H512 C500 0.956 . S
H513 C500 0.961 . S
H514 C500 0.961 . S
H515 C501 0.958 1_565 S
H516 C501 0.961 . S
H517 C501 0.960 . S
C518 C519 1.391 . S
C518 C520 1.394 . S
C518 H534 0.931 1_556 S
C519 C518 1.391 . S
C519 C523 1.376 . S
C520 C518 1.394 . S
C520 C521 1.369 . S
C520 C524 1.531 . S
C521 C520 1.369 . S
C521 C522 1.410 . S
C521 C529 1.503 . S
C522 C521 1.410 . S
C522 C523 1.392 . S
C522 C525 1.511 . S
C523 C519 1.376 . S
C523 C522 1.392 . S
C523 H535 0.929 . S
C524 C520 1.531 . S
C524 H536 0.960 . S
C524 H537 0.962 . S
C524 H538 0.960 1_556 S
C525 C522 1.511 . S
C525 H539 0.961 . S
C525 H540 0.961 . S
C525 H541 0.961 . S
C526 C527 1.370 . S
C526 C528 1.363 . S
C526 H542 0.931 . S
C527 C526 1.370 . S
C527 C531 1.408 . S
C528 C526 1.363 . S
C528 C529 1.370 . S
C528 C532 1.524 . S
C529 C521 1.503 . S
C529 C528 1.370 . S
C529 C530 1.403 . S
C530 C529 1.403 . S
C530 C531 1.404 . S
C530 C533 1.539 . S
C531 C527 1.408 . S
C531 C530 1.404 . S
C531 H543 0.930 . S
C532 C528 1.524 . S
C532 H544 0.956 . S
C532 H545 0.961 . S
C532 H546 0.961 . S
C533 C530 1.539 . S
C533 H547 0.958 . S
C533 H548 0.961 . S
C533 H549 0.960 . S
H534 C518 0.931 1_554 S
H535 C523 0.929 . S
H536 C524 0.960 . S
H537 C524 0.962 . S
H538 C524 0.960 1_554 S
H539 C525 0.961 . S
H540 C525 0.961 . S
H541 C525 0.961 . S
H542 C526 0.931 . S
H543 C531 0.930 . S
H544 C532 0.956 . S
H545 C532 0.961 . S
H546 C532 0.961 . S
H547 C533 0.958 . S
H548 C533 0.961 . S
H549 C533 0.960 . S
C550 C551 1.391 1_655 S
C550 C552 1.394 . S
C550 H566 0.931 . S
C551 C550 1.391 1_455 S
C551 C555 1.376 . S
C552 C550 1.394 . S
C552 C553 1.369 1_655 S
C552 C556 1.531 . S
C553 C552 1.369 1_455 S
C553 C554 1.410 . S
C553 C561 1.503 . S
C554 C553 1.410 . S
C554 C555 1.392 . S
C554 C557 1.511 . S
C555 C551 1.376 . S
C555 C554 1.392 . S
C555 H567 0.929 . S
C556 C552 1.531 . S
C556 H568 0.960 . S
C556 H569 0.962 . S
C556 H570 0.960 . S
C557 C554 1.511 . S
C557 H571 0.961 . S
C557 H572 0.961 . S
C557 H573 0.961 . S
C558 C559 1.370 . S
C558 C560 1.363 . S
C558 H574 0.931 1_455 S
C559 C558 1.370 . S
C559 C563 1.408 . S
C560 C558 1.363 . S
C560 C561 1.370 . S
C560 C564 1.524 1_455 S
C561 C553 1.503 . S
C561 C560 1.370 . S
C561 C562 1.403 . S
C562 C561 1.403 . S
C562 C563 1.404 . S
C562 C565 1.539 . S
C563 C559 1.408 . S
C563 C562 1.404 . S
C563 H575 0.930 . S
C564 C560 1.524 1_655 S
C564 H576 0.956 . S
C564 H577 0.961 1_655 S
C564 H578 0.961 . S
C565 C562 1.539 . S
C565 H579 0.958 . S
C565 H580 0.961 . S
C565 H581 0.960 . S
H566 C550 0.931 . S
H567 C555 0.929 . S
H568 C556 0.960 . S
H569 C556 0.962 . S
H570 C556 0.960 . S
H571 C557 0.961 . S
H572 C557 0.961 . S
H573 C557 0.961 . S
H574 C558 0.931 1_655 S
H575 C563 0.930 . S
H576 C564 0.956 . S
H577 C564 0.961 1_455 S
H578 C564 0.961 . S
H579 C565 0.958 . S
H580 C565 0.961 . S
H581 C565 0.960 . S
C207 C61 1.517 . S
C199 C10 1.516 . S
C231 C17 1.515 . S
C239 C131 1.517 . S
C263 C36 1.514 . S
C271 C183 1.521 . S
C295 C5 1.515 . S
C303 C77 1.518 . S
C335 C121 1.518 . S
C327 C16 1.515 . S
C359 C31 1.515 . S
C367 C167 1.519 . S
C399 C114 1.515 . S
C391 C30 1.514 . S
C423 C3 1.521 . S
C431 C174 1.518 . S
C463 C68 1.519 . S
C455 C18 1.507 1_565 S
C495 C130 1.520 . S
C487 C29 1.516 . S
C527 C184 1.521 . S
C519 C4 1.514 1_556 S
C551 C23 1.511 . S
C559 C78 1.517 . S
