# Generated by pormake.
# Topology gar, (4,6)-cn, num edge types: 1
# Building blocks:
#     Node 0, Type 0, BuildingBlock: QUQFOY_clean_sbu_1, # of connection points: 4
#     Node 1, Type 0, BuildingBlock: QUQFOY_clean_sbu_1, # of connection points: 4
#     Node 2, Type 0, BuildingBlock: QUQFOY_clean_sbu_1, # of connection points: 4
#     Node 3, Type 0, BuildingBlock: QUQFOY_clean_sbu_1, # of connection points: 4
#     Node 4, Type 0, BuildingBlock: QUQFOY_clean_sbu_1, # of connection points: 4
#     Node 5, Type 0, BuildingBlock: QUQFOY_clean_sbu_1, # of connection points: 4
#     Node 6, Type 0, BuildingBlock: QUQFOY_clean_sbu_1, # of connection points: 4
#     Node 7, Type 0, BuildingBlock: QUQFOY_clean_sbu_1, # of connection points: 4
#     Node 8, Type 0, BuildingBlock: QUQFOY_clean_sbu_1, # of connection points: 4
#     Node 9, Type 0, BuildingBlock: QUQFOY_clean_sbu_1, # of connection points: 4
#     Node 10, Type 0, BuildingBlock: QUQFOY_clean_sbu_1, # of connection points: 4
#     Node 11, Type 0, BuildingBlock: QUQFOY_clean_sbu_1, # of connection points: 4
#     Node 12, Type 0, BuildingBlock: QUQFOY_clean_sbu_1, # of connection points: 4
#     Node 13, Type 0, BuildingBlock: QUQFOY_clean_sbu_1, # of connection points: 4
#     Node 14, Type 0, BuildingBlock: QUQFOY_clean_sbu_1, # of connection points: 4
#     Node 15, Type 0, BuildingBlock: QUQFOY_clean_sbu_1, # of connection points: 4
#     Node 16, Type 0, BuildingBlock: QUQFOY_clean_sbu_1, # of connection points: 4
#     Node 17, Type 0, BuildingBlock: QUQFOY_clean_sbu_1, # of connection points: 4
#     Node 18, Type 0, BuildingBlock: QUQFOY_clean_sbu_1, # of connection points: 4
#     Node 19, Type 0, BuildingBlock: QUQFOY_clean_sbu_1, # of connection points: 4
#     Node 20, Type 0, BuildingBlock: QUQFOY_clean_sbu_1, # of connection points: 4
#     Node 21, Type 0, BuildingBlock: QUQFOY_clean_sbu_1, # of connection points: 4
#     Node 22, Type 0, BuildingBlock: QUQFOY_clean_sbu_1, # of connection points: 4
#     Node 23, Type 0, BuildingBlock: QUQFOY_clean_sbu_1, # of connection points: 4
#     Node 24, Type 1, BuildingBlock: BETDAH_clean_sbu_0, # of connection points: 6
#     Node 25, Type 1, BuildingBlock: BETDAH_clean_sbu_0, # of connection points: 6
#     Node 26, Type 1, BuildingBlock: BETDAH_clean_sbu_0, # of connection points: 6
#     Node 27, Type 1, BuildingBlock: BETDAH_clean_sbu_0, # of connection points: 6
#     Node 28, Type 1, BuildingBlock: BETDAH_clean_sbu_0, # of connection points: 6
#     Node 29, Type 1, BuildingBlock: BETDAH_clean_sbu_0, # of connection points: 6
#     Node 30, Type 1, BuildingBlock: BETDAH_clean_sbu_0, # of connection points: 6
#     Node 31, Type 1, BuildingBlock: BETDAH_clean_sbu_0, # of connection points: 6
#     Node 32, Type 1, BuildingBlock: BETDAH_clean_sbu_0, # of connection points: 6
#     Node 33, Type 1, BuildingBlock: BETDAH_clean_sbu_0, # of connection points: 6
#     Node 34, Type 1, BuildingBlock: BETDAH_clean_sbu_0, # of connection points: 6
#     Node 35, Type 1, BuildingBlock: BETDAH_clean_sbu_0, # of connection points: 6
#     Node 36, Type 1, BuildingBlock: BETDAH_clean_sbu_0, # of connection points: 6
#     Node 37, Type 1, BuildingBlock: BETDAH_clean_sbu_0, # of connection points: 6
#     Node 38, Type 1, BuildingBlock: BETDAH_clean_sbu_0, # of connection points: 6
#     Node 39, Type 1, BuildingBlock: BETDAH_clean_sbu_0, # of connection points: 6
#     Edge 40, Type (0, 1), BuildingBlock: XUDNAN_clean_linker_2, # of connection points: 2
#     Edge 41, Type (0, 1), BuildingBlock: XUDNAN_clean_linker_2, # of connection points: 2
#     Edge 42, Type (0, 1), BuildingBlock: XUDNAN_clean_linker_2, # of connection points: 2
#     Edge 43, Type (0, 1), BuildingBlock: XUDNAN_clean_linker_2, # of connection points: 2
#     Edge 44, Type (0, 1), BuildingBlock: XUDNAN_clean_linker_2, # of connection points: 2
#     Edge 45, Type (0, 1), BuildingBlock: XUDNAN_clean_linker_2, # of connection points: 2
#     Edge 46, Type (0, 1), BuildingBlock: XUDNAN_clean_linker_2, # of connection points: 2
#     Edge 47, Type (0, 1), BuildingBlock: XUDNAN_clean_linker_2, # of connection points: 2
#     Edge 48, Type (0, 1), BuildingBlock: XUDNAN_clean_linker_2, # of connection points: 2
#     Edge 49, Type (0, 1), BuildingBlock: XUDNAN_clean_linker_2, # of connection points: 2
#     Edge 50, Type (0, 1), BuildingBlock: XUDNAN_clean_linker_2, # of connection points: 2
#     Edge 51, Type (0, 1), BuildingBlock: XUDNAN_clean_linker_2, # of connection points: 2
#     Edge 52, Type (0, 1), BuildingBlock: XUDNAN_clean_linker_2, # of connection points: 2
#     Edge 53, Type (0, 1), BuildingBlock: XUDNAN_clean_linker_2, # of connection points: 2
#     Edge 54, Type (0, 1), BuildingBlock: XUDNAN_clean_linker_2, # of connection points: 2
#     Edge 55, Type (0, 1), BuildingBlock: XUDNAN_clean_linker_2, # of connection points: 2
#     Edge 56, Type (0, 1), BuildingBlock: XUDNAN_clean_linker_2, # of connection points: 2
#     Edge 57, Type (0, 1), BuildingBlock: XUDNAN_clean_linker_2, # of connection points: 2
#     Edge 58, Type (0, 1), BuildingBlock: XUDNAN_clean_linker_2, # of connection points: 2
#     Edge 59, Type (0, 1), BuildingBlock: XUDNAN_clean_linker_2, # of connection points: 2
#     Edge 60, Type (0, 1), BuildingBlock: XUDNAN_clean_linker_2, # of connection points: 2
#     Edge 61, Type (0, 1), BuildingBlock: XUDNAN_clean_linker_2, # of connection points: 2
#     Edge 62, Type (0, 1), BuildingBlock: XUDNAN_clean_linker_2, # of connection points: 2
#     Edge 63, Type (0, 1), BuildingBlock: XUDNAN_clean_linker_2, # of connection points: 2
#     Edge 64, Type (0, 1), BuildingBlock: XUDNAN_clean_linker_2, # of connection points: 2
#     Edge 65, Type (0, 1), BuildingBlock: XUDNAN_clean_linker_2, # of connection points: 2
#     Edge 66, Type (0, 1), BuildingBlock: XUDNAN_clean_linker_2, # of connection points: 2
#     Edge 67, Type (0, 1), BuildingBlock: XUDNAN_clean_linker_2, # of connection points: 2
#     Edge 68, Type (0, 1), BuildingBlock: XUDNAN_clean_linker_2, # of connection points: 2
#     Edge 69, Type (0, 1), BuildingBlock: XUDNAN_clean_linker_2, # of connection points: 2
#     Edge 70, Type (0, 1), BuildingBlock: XUDNAN_clean_linker_2, # of connection points: 2
#     Edge 71, Type (0, 1), BuildingBlock: XUDNAN_clean_linker_2, # of connection points: 2
#     Edge 72, Type (0, 1), BuildingBlock: XUDNAN_clean_linker_2, # of connection points: 2
#     Edge 73, Type (0, 1), BuildingBlock: XUDNAN_clean_linker_2, # of connection points: 2
#     Edge 74, Type (0, 1), BuildingBlock: XUDNAN_clean_linker_2, # of connection points: 2
#     Edge 75, Type (0, 1), BuildingBlock: XUDNAN_clean_linker_2, # of connection points: 2
#     Edge 76, Type (0, 1), BuildingBlock: XUDNAN_clean_linker_2, # of connection points: 2
#     Edge 77, Type (0, 1), BuildingBlock: XUDNAN_clean_linker_2, # of connection points: 2
#     Edge 78, Type (0, 1), BuildingBlock: XUDNAN_clean_linker_2, # of connection points: 2
#     Edge 79, Type (0, 1), BuildingBlock: XUDNAN_clean_linker_2, # of connection points: 2
#     Edge 80, Type (0, 1), BuildingBlock: XUDNAN_clean_linker_2, # of connection points: 2
#     Edge 81, Type (0, 1), BuildingBlock: XUDNAN_clean_linker_2, # of connection points: 2
#     Edge 82, Type (0, 1), BuildingBlock: XUDNAN_clean_linker_2, # of connection points: 2
#     Edge 83, Type (0, 1), BuildingBlock: XUDNAN_clean_linker_2, # of connection points: 2
#     Edge 84, Type (0, 1), BuildingBlock: XUDNAN_clean_linker_2, # of connection points: 2
#     Edge 85, Type (0, 1), BuildingBlock: XUDNAN_clean_linker_2, # of connection points: 2
#     Edge 86, Type (0, 1), BuildingBlock: XUDNAN_clean_linker_2, # of connection points: 2
#     Edge 87, Type (0, 1), BuildingBlock: XUDNAN_clean_linker_2, # of connection points: 2
#     Edge 88, Type (0, 1), BuildingBlock: XUDNAN_clean_linker_2, # of connection points: 2
#     Edge 89, Type (0, 1), BuildingBlock: XUDNAN_clean_linker_2, # of connection points: 2
#     Edge 90, Type (0, 1), BuildingBlock: XUDNAN_clean_linker_2, # of connection points: 2
#     Edge 91, Type (0, 1), BuildingBlock: XUDNAN_clean_linker_2, # of connection points: 2
#     Edge 92, Type (0, 1), BuildingBlock: XUDNAN_clean_linker_2, # of connection points: 2
#     Edge 93, Type (0, 1), BuildingBlock: XUDNAN_clean_linker_2, # of connection points: 2
#     Edge 94, Type (0, 1), BuildingBlock: XUDNAN_clean_linker_2, # of connection points: 2
#     Edge 95, Type (0, 1), BuildingBlock: XUDNAN_clean_linker_2, # of connection points: 2
#     Edge 96, Type (0, 1), BuildingBlock: XUDNAN_clean_linker_2, # of connection points: 2
#     Edge 97, Type (0, 1), BuildingBlock: XUDNAN_clean_linker_2, # of connection points: 2
#     Edge 98, Type (0, 1), BuildingBlock: XUDNAN_clean_linker_2, # of connection points: 2
#     Edge 99, Type (0, 1), BuildingBlock: XUDNAN_clean_linker_2, # of connection points: 2
#     Edge 100, Type (0, 1), BuildingBlock: XUDNAN_clean_linker_2, # of connection points: 2
#     Edge 101, Type (0, 1), BuildingBlock: XUDNAN_clean_linker_2, # of connection points: 2
#     Edge 102, Type (0, 1), BuildingBlock: XUDNAN_clean_linker_2, # of connection points: 2
#     Edge 103, Type (0, 1), BuildingBlock: XUDNAN_clean_linker_2, # of connection points: 2
#     Edge 104, Type (0, 1), BuildingBlock: XUDNAN_clean_linker_2, # of connection points: 2
#     Edge 105, Type (0, 1), BuildingBlock: XUDNAN_clean_linker_2, # of connection points: 2
#     Edge 106, Type (0, 1), BuildingBlock: XUDNAN_clean_linker_2, # of connection points: 2
#     Edge 107, Type (0, 1), BuildingBlock: XUDNAN_clean_linker_2, # of connection points: 2
#     Edge 108, Type (0, 1), BuildingBlock: XUDNAN_clean_linker_2, # of connection points: 2
#     Edge 109, Type (0, 1), BuildingBlock: XUDNAN_clean_linker_2, # of connection points: 2
#     Edge 110, Type (0, 1), BuildingBlock: XUDNAN_clean_linker_2, # of connection points: 2
#     Edge 111, Type (0, 1), BuildingBlock: XUDNAN_clean_linker_2, # of connection points: 2
#     Edge 112, Type (0, 1), BuildingBlock: XUDNAN_clean_linker_2, # of connection points: 2
#     Edge 113, Type (0, 1), BuildingBlock: XUDNAN_clean_linker_2, # of connection points: 2
#     Edge 114, Type (0, 1), BuildingBlock: XUDNAN_clean_linker_2, # of connection points: 2
#     Edge 115, Type (0, 1), BuildingBlock: XUDNAN_clean_linker_2, # of connection points: 2
#     Edge 116, Type (0, 1), BuildingBlock: XUDNAN_clean_linker_2, # of connection points: 2
#     Edge 117, Type (0, 1), BuildingBlock: XUDNAN_clean_linker_2, # of connection points: 2
#     Edge 118, Type (0, 1), BuildingBlock: XUDNAN_clean_linker_2, # of connection points: 2
#     Edge 119, Type (0, 1), BuildingBlock: XUDNAN_clean_linker_2, # of connection points: 2
#     Edge 120, Type (0, 1), BuildingBlock: XUDNAN_clean_linker_2, # of connection points: 2
#     Edge 121, Type (0, 1), BuildingBlock: XUDNAN_clean_linker_2, # of connection points: 2
#     Edge 122, Type (0, 1), BuildingBlock: XUDNAN_clean_linker_2, # of connection points: 2
#     Edge 123, Type (0, 1), BuildingBlock: XUDNAN_clean_linker_2, # of connection points: 2
#     Edge 124, Type (0, 1), BuildingBlock: XUDNAN_clean_linker_2, # of connection points: 2
#     Edge 125, Type (0, 1), BuildingBlock: XUDNAN_clean_linker_2, # of connection points: 2
#     Edge 126, Type (0, 1), BuildingBlock: XUDNAN_clean_linker_2, # of connection points: 2
#     Edge 127, Type (0, 1), BuildingBlock: XUDNAN_clean_linker_2, # of connection points: 2
#     Edge 128, Type (0, 1), BuildingBlock: XUDNAN_clean_linker_2, # of connection points: 2
#     Edge 129, Type (0, 1), BuildingBlock: XUDNAN_clean_linker_2, # of connection points: 2
#     Edge 130, Type (0, 1), BuildingBlock: XUDNAN_clean_linker_2, # of connection points: 2
#     Edge 131, Type (0, 1), BuildingBlock: XUDNAN_clean_linker_2, # of connection points: 2
#     Edge 132, Type (0, 1), BuildingBlock: XUDNAN_clean_linker_2, # of connection points: 2
#     Edge 133, Type (0, 1), BuildingBlock: XUDNAN_clean_linker_2, # of connection points: 2
#     Edge 134, Type (0, 1), BuildingBlock: XUDNAN_clean_linker_2, # of connection points: 2
#     Edge 135, Type (0, 1), BuildingBlock: XUDNAN_clean_linker_2, # of connection points: 2
# Relax obj value: 0.206
# Max RMSD: 0.319
# Mean RMSD: 0.184
data_MOF--net-gar--node1-QUQFOY_clean_sbu_1--node2-BETDAH_clean_sbu_0--edge1-XUDNAN_clean_linker_2
_symmetry_space_group_name_H-M    P1
_symmetry_Int_Tables_number       1
_symmetry_cell_setting            triclinic
loop_
_symmetry_equiv_pos_as_xyz
'x, y, z'
_cell_length_a     63.443955
_cell_length_b     56.847312
_cell_length_c     57.446046
_cell_angle_alpha  98.407615
_cell_angle_beta   95.533467
_cell_angle_gamma 104.64954
loop_
_atom_site_label
_atom_site_type_symbol
_atom_site_fract_x
_atom_site_fract_y
_atom_site_fract_z
_atom_type_partial_charge
O0 O 0.119 0.30889 0.40043 0.0
Cd1 Cd 0.12693 0.33076 0.37652 0.0
Cd2 Cd 0.12762 0.36524 0.415 0.0
O3 O 0.13696 0.33803 0.43013 0.0
O4 O 0.14271 0.31438 0.35532 0.0
O5 O 0.15681 0.35229 0.37692 0.0
C6 C 0.1589 0.33404 0.36182 0.0
C7 C 0.12195 0.39541 0.4436 0.0
C8 C 0.12704 0.31557 0.42205 0.0
C9 C 0.09079 0.34806 0.3707 0.0
O10 O 0.09892 0.35836 0.39186 0.0
O11 O 0.10096 0.33606 0.35792 0.0
O12 O 0.13725 0.40154 0.43064 0.0
O13 O 0.11214 0.37248 0.44168 0.0
O14 O 1.00191 0.72056 0.67475 0.0
Cd15 Cd 1.00439 0.75553 0.68905 0.0
Cd16 Cd 1.01223 0.761 0.64834 0.0
O17 O 0.99194 0.72603 0.63886 0.0
O18 O 0.98505 0.75596 0.71297 0.0
O19 O 0.98052 0.76854 0.67809 0.0
C20 C 0.97368 0.76447 0.69797 0.0
C21 C 1.01423 0.79509 0.63157 0.0
C22 C 0.99561 0.71179 0.65293 0.0
C23 C 0.04918 0.77504 0.6863 0.0
O24 O 0.04285 0.76423 0.66496 0.0
O25 O 0.03539 0.7774 0.70037 0.0
O26 O 0.01887 0.77606 0.62029 0.0
O27 O 1.00522 0.79308 0.65066 0.0
O28 O 0.65807 0.84508 0.88725 0.0
Cd29 Cd 0.63462 0.84634 0.90951 0.0
Cd30 Cd 0.62062 0.8687 0.87764 0.0
O31 O 0.64719 0.86657 0.86196 0.0
O32 O 0.6439 0.82854 0.93358 0.0
O33 O 0.61165 0.81469 0.91079 0.0
C34 C 0.62551 0.81178 0.92735 0.0
C35 C 0.58654 0.84797 0.85885 0.0
C36 C 0.66041 0.85486 0.86886 0.0
C37 C 0.62821 0.89723 0.92473 0.0
O38 O 0.62247 0.89783 0.90321 0.0
O39 O 0.63371 0.87864 0.93046 0.0
O40 O 0.59698 0.86862 0.85346 0.0
O41 O 0.59588 0.83845 0.87463 0.0
O42 O 0.50376 0.20697 0.16634 0.0
Cd43 Cd 0.50847 0.23889 0.18917 0.0
Cd44 Cd 0.51569 0.2572 0.15065 0.0
O45 O 0.49642 0.22305 0.13495 0.0
O46 O 0.48628 0.23742 0.21038 0.0
O47 O 0.48939 0.25911 0.18073 0.0
C48 C 0.47908 0.25159 0.19772 0.0
C49 C 0.5201 0.28916 0.12955 0.0
C50 C 0.49747 0.20444 0.14431 0.0
C51 C 0.55308 0.26013 0.18863 0.0
O52 O 0.54578 0.25859 0.16701 0.0
O53 O 0.53998 0.25588 0.20376 0.0
O54 O 0.52516 0.26921 0.12197 0.0
O55 O 0.51091 0.29061 0.14856 0.0
O56 O 0.09582 0.78886 0.1272 0.0
Cd57 Cd 0.09662 0.82145 0.14725 0.0
Cd58 Cd 0.11526 0.83334 0.10902 0.0
O59 O 0.10271 0.79698 0.09195 0.0
O60 O 0.07704 0.80862 0.17058 0.0
O61 O 0.06801 0.83113 0.145 0.0
C62 C 0.06256 0.8178 0.16092 0.0
C63 C 0.10397 0.86704 0.09885 0.0
C64 C 0.09781 0.78156 0.10583 0.0
C65 C 0.14455 0.83766 0.15571 0.0
O66 O 0.14273 0.83655 0.13326 0.0
O67 O 0.12776 0.83657 0.16649 0.0
O68 O 0.11841 0.85908 0.08792 0.0
O69 O 0.09599 0.85565 0.11531 0.0
O70 O 0.56751 0.78346 0.41707 0.0
Cd71 Cd 0.54745 0.77786 0.44327 0.0
Cd72 Cd 0.51975 0.7982 0.40352 0.0
O73 O 0.54925 0.79766 0.38944 0.0
O74 O 0.56584 0.76681 0.4681 0.0
O75 O 0.53397 0.74303 0.44943 0.0
C76 C 0.55106 0.74604 0.4648 0.0
C77 C 0.48492 0.79488 0.38013 0.0
C78 C 0.56634 0.79173 0.39767 0.0
C79 C 0.53614 0.82682 0.45528 0.0
O80 O 0.52618 0.8237 0.43429 0.0
O81 O 0.54462 0.81063 0.46236 0.0
O82 O 0.50149 0.81394 0.38207 0.0
O83 O 0.48828 0.77707 0.39029 0.0
O84 O 0.60375 0.27805 0.62872 0.0
Cd85 Cd 0.60749 0.30664 0.65552 0.0
Cd86 Cd 0.62637 0.33314 0.62147 0.0
O87 O 0.61485 0.29811 0.60005 0.0
O88 O 0.58391 0.29272 0.67485 0.0
O89 O 0.58404 0.32473 0.65701 0.0
C90 C 0.57409 0.30872 0.66896 0.0
C91 C 0.61703 0.36596 0.60517 0.0
C92 C 0.60715 0.27803 0.60739 0.0
C93 C 0.65664 0.32975 0.66599 0.0
O94 O 0.65483 0.33794 0.64645 0.0
O95 O 0.63951 0.31806 0.67375 0.0
O96 O 0.63214 0.35644 0.59782 0.0
O97 O 0.60766 0.35765 0.62243 0.0
O98 O 0.03424 0.24148 0.92793 0.0
Cd99 Cd 0.03549 0.26984 0.90729 0.0
Cd100 Cd 0.02094 0.2905 0.94706 0.0
O101 O 0.03008 0.2627 0.96162 0.0
O102 O 0.0541 0.26107 0.88268 0.0
O103 O 0.06634 0.29419 0.91051 0.0
C104 C 0.07022 0.27965 0.89295 0.0
C105 C 0.037 0.33101 0.96532 0.0
C106 C 0.03407 0.24373 0.95033 0.0
C107 C 0.99089 0.28325 0.90129 0.0
O108 O 0.9924 0.28627 0.92384 0.0
O109 O 1.00666 0.27807 0.89104 0.0
O110 O 0.02137 0.31712 0.97392 0.0
O111 O 0.0441 0.32145 0.94685 0.0
O112 O 0.45142 0.03845 0.27492 0.0
Cd113 Cd 0.4368 0.03771 0.30419 0.0
Cd114 Cd 0.47961 0.04296 0.31549 0.0
O115 O 0.48173 0.06609 0.29197 0.0
O116 O 0.4069 0.0394 0.29292 0.0
O117 O 0.43267 0.06922 0.31779 0.0
C118 C 0.41386 0.06197 0.3042 0.0
C119 C 0.49193 0.05399 0.35386 0.0
C120 C 0.46901 0.0543 0.27339 0.0
C121 C 0.44994 0.99675 0.31176 0.0
O122 O 0.46662 1.00645 0.30261 0.0
O123 O 0.4401 1.01074 0.32293 0.0
O124 O 0.50509 0.04884 0.33923 0.0
O125 O 0.47203 0.05389 0.34631 0.0
O126 O 0.31245 0.20881 0.55341 0.0
Cd127 Cd 0.3096 0.18182 0.52493 0.0
Cd128 Cd 0.297 0.21831 0.50159 0.0
O129 O 0.30913 0.24005 0.53583 0.0
O130 O 0.3268 0.15972 0.53735 0.0
O131 O 0.33794 0.1831 0.51099 0.0
C132 C 0.34196 0.1685 0.52507 0.0
C133 C 0.30644 0.23089 0.46484 0.0
C134 C 0.31267 0.23135 0.55473 0.0
C135 C 0.26159 0.17082 0.50593 0.0
O136 O 0.26653 0.19231 0.50031 0.0
O137 O 0.27671 0.16172 0.51392 0.0
O138 O 0.29365 0.24042 0.47708 0.0
O139 O 0.31455 0.21494 0.47378 0.0
O140 O 0.17483 1.01737 0.73829 0.0
Cd141 Cd 0.20449 1.01813 0.76177 0.0
Cd142 Cd 0.16977 0.04486 0.79774 0.0
O143 O 0.15409 0.03584 0.76065 0.0
O144 O 0.2224 0.99568 0.74292 0.0
O145 O 0.21264 0.98775 0.77645 0.0
C146 C 0.22238 0.98157 0.75868 0.0
C147 C 0.15073 0.04666 0.83526 0.0
C148 C 0.15807 0.02632 0.7401 0.0
C149 C 0.21695 0.07643 0.78643 0.0
O150 O 0.19975 0.07265 0.79722 0.0
O151 O 0.22162 0.05821 0.77334 0.0
O152 O 0.1523 0.06275 0.82134 0.0
O153 O 0.15911 0.02886 0.82806 0.0
O154 O 0.32555 0.93536 0.04098 0.0
Cd155 Cd 0.3221 0.95581 0.01534 0.0
Cd156 Cd 0.33068 0.91802 0.99433 0.0
O157 O 0.31467 0.89937 0.01764 0.0
O158 O 0.31422 0.9831 0.03387 0.0
O159 O 0.29254 0.95784 1.0025 0.0
C160 C 0.29599 0.97627 0.01974 0.0
C161 C 0.33353 0.89857 0.95754 0.0
C162 C 0.32023 0.91202 0.03837 0.0
C163 C 0.36577 0.96373 1.00815 0.0
O164 O 0.36091 0.94076 1.00801 0.0
O165 O 0.3507 0.97444 1.00585 0.0
O166 O 0.3413 0.89251 0.97657 0.0
O167 O 0.32195 0.91429 0.95931 0.0
O168 O 0.33669 0.40489 0.08511 0.0
Cd169 Cd 0.33748 0.42366 0.05678 0.0
Cd170 Cd 0.35148 0.38464 0.03655 0.0
O171 O 0.34102 0.3699 0.06676 0.0
O172 O 0.31871 0.44684 0.06426 0.0
O173 O 0.30924 0.416 0.03371 0.0
C174 C 0.3044 0.43401 0.04655 0.0
C175 C 0.34018 0.36214 0.99754 0.0
C176 C 0.33724 0.38271 0.08527 0.0
C177 C 0.38474 0.43516 0.04652 0.0
O178 O 0.38164 0.41188 0.04083 0.0
O179 O 0.36888 0.4439 0.05216 0.0
O180 O 0.3537 0.35631 1.01244 0.0
O181 O 0.33219 0.38019 1.00496 0.0
O182 O 0.80302 0.15161 0.07935 0.0
Cd183 Cd 0.80506 0.13423 0.04626 0.0
Cd184 Cd 0.79913 0.17276 0.03521 0.0
O185 O 0.81344 0.18789 0.06891 0.0
O186 O 0.82686 0.11599 0.04694 0.0
O187 O 0.82828 0.14835 0.02833 0.0
C188 C 0.83643 0.13087 0.03373 0.0
C189 C 0.79719 0.1975 1.00774 0.0
C190 C 0.80893 0.17495 0.08484 0.0
C191 C 0.76284 0.12599 0.02397 0.0
O192 O 0.76827 0.14923 0.03041 0.0
O193 O 0.77709 0.11422 0.0261 0.0
O194 O 0.80852 0.18165 1.00466 0.0
O195 O 0.78992 0.20117 0.02766 0.0
O196 O 0.19595 0.56882 0.23016 0.0
Cd197 Cd 0.20579 0.57169 0.26506 0.0
Cd198 Cd 0.16786 0.57215 0.26631 0.0
O199 O 0.16425 0.5462 0.23653 0.0
O200 O 0.2309 0.55842 0.27056 0.0
O201 O 0.19657 0.53996 0.27576 0.0
C202 C 0.21689 0.53984 0.27599 0.0
C203 C 0.15836 0.56887 0.30276 0.0
C204 C 0.17765 0.55327 0.22227 0.0
C205 C 0.19871 0.61756 0.2752 0.0
O206 O 0.18101 0.60705 0.26138 0.0
O207 O 0.20833 0.60456 0.28612 0.0
O208 O 0.14382 0.56934 0.28552 0.0
O209 O 0.1779 0.56848 0.29885 0.0
O210 O 0.83724 0.90787 0.5917 0.0
Cd211 Cd 0.83944 0.92587 0.56278 0.0
Cd212 Cd 0.85285 0.88734 0.54412 0.0
O213 O 0.84259 0.87296 0.57467 0.0
O214 O 0.81951 0.94805 0.56712 0.0
O215 O 0.81325 0.91721 0.53685 0.0
C216 C 0.80694 0.935 0.5482 0.0
C217 C 0.84272 0.86406 0.50535 0.0
C218 C 0.83807 0.8859 0.59264 0.0
C219 C 0.88638 0.93768 0.55265 0.0
O220 O 0.88302 0.91437 0.54721 0.0
O221 O 0.87083 0.94662 0.55885 0.0
O222 O 0.85647 0.85944 0.5209 0.0
O223 O 0.83336 0.88108 0.51221 0.0
O224 O 0.95694 0.07369 0.22476 0.0
Cd225 Cd 0.93119 0.07383 0.24928 0.0
Cd226 Cd 0.97215 0.05459 0.2784 0.0
O227 O 0.98327 0.06113 0.2444 0.0
O228 O 0.90765 0.09401 0.24023 0.0
O229 O 0.93262 0.1087 0.27079 0.0
C230 C 0.91605 0.11196 0.25789 0.0
C231 C 0.99439 0.06263 0.31788 0.0
C232 C 0.97565 0.06807 0.22556 0.0
C233 C 0.92274 1.02033 0.26793 0.0
O234 O 0.94325 0.02587 0.27583 0.0
O235 O 0.91491 0.03614 0.25801 0.0
O236 O 0.99393 0.04402 0.30182 0.0
O237 O 0.98371 0.07768 0.31127 0.0
O238 O 0.30951 0.65544 0.5759 0.0
Cd239 Cd 0.30429 0.63288 0.54326 0.0
Cd240 Cd 0.30672 0.67469 0.5353 0.0
O241 O 0.32786 0.68948 0.56515 0.0
O242 O 0.31988 0.60671 0.5413 0.0
O243 O 0.32859 0.64047 0.52482 0.0
C244 C 0.33226 0.62012 0.52883 0.0
C245 C 0.30446 0.68547 0.49937 0.0
C246 C 0.32034 0.67812 0.58129 0.0
C247 C 0.26435 0.64242 0.53043 0.0
O248 O 0.27615 0.66287 0.54186 0.0
O249 O 0.27307 0.62499 0.5248 0.0
O250 O 0.3021 0.70019 0.51766 0.0
O251 O 0.31102 0.66627 0.502 0.0
O252 O 0.45906 0.5791 0.73062 0.0
Cd253 Cd 0.43166 0.57832 0.75244 0.0
Cd254 Cd 0.4741 0.55588 0.78156 0.0
O255 O 0.48555 0.5647 0.74783 0.0
O256 O 0.40945 0.5983 0.73869 0.0
O257 O 0.42791 0.61155 0.77365 0.0
C258 C 0.41408 0.61531 0.75746 0.0
C259 C 0.49533 0.56061 0.82185 0.0
C260 C 0.47748 0.57296 0.73005 0.0
C261 C 0.42366 0.52295 0.76844 0.0
O262 O 0.4441 0.52765 0.77661 0.0
O263 O 0.41608 0.53974 0.7598 0.0
O264 O 0.49588 0.54399 0.80417 0.0
O265 O 0.48401 0.57561 0.81671 0.0
O266 O 0.69258 0.07389 0.7262 0.0
Cd267 Cd 0.70424 0.07636 0.76052 0.0
Cd268 Cd 0.66538 0.07604 0.76196 0.0
O269 O 0.66079 0.05109 0.73217 0.0
O270 O 0.73285 0.06979 0.76134 0.0
O271 O 0.70281 0.0446 0.77053 0.0
C272 C 0.72326 0.04915 0.76746 0.0
C273 C 0.65869 0.06931 0.79802 0.0
C274 C 0.67397 0.05911 0.71811 0.0
C275 C 0.69656 0.12164 0.77311 0.0
O276 O 0.67908 0.11164 0.75878 0.0
O277 O 0.70584 0.10794 0.78339 0.0
O278 O 0.64332 0.07269 0.7834 0.0
O279 O 0.67719 0.06793 0.7914 0.0
O280 O 0.81277 0.71733 0.05838 0.0
Cd281 Cd 0.81162 0.69114 0.0297 0.0
Cd282 Cd 0.79119 0.72399 1.00909 0.0
O283 O 0.80327 0.74682 0.04237 0.0
O284 O 0.82531 0.66873 0.04607 0.0
O285 O 0.84093 0.68831 0.01916 0.0
C286 C 0.8417 0.67401 0.03451 0.0
C287 C 0.80086 0.73561 0.97242 0.0
C288 C 0.80977 0.73871 0.06056 0.0
C289 C 0.76243 0.67327 1.01213 0.0
O290 O 0.76272 0.69517 1.00916 0.0
O291 O 0.78038 0.6677 0.01721 0.0
O292 O 0.78691 0.74428 0.9835 0.0
O293 O 0.8097 0.72072 0.98231 0.0
O294 O 0.96088 0.56122 0.78179 0.0
Cd295 Cd 0.94625 0.55453 0.8105 0.0
Cd296 Cd 0.98531 0.55214 0.821 0.0
O297 O 0.99594 0.5719 0.79574 0.0
O298 O 0.91711 0.55454 0.79579 0.0
O299 O 0.93563 0.58135 0.82777 0.0
C300 C 0.91914 0.57419 0.81099 0.0
C301 C 0.99033 0.56201 0.86099 0.0
C302 C 0.98069 0.56929 0.77887 0.0
C303 C 0.95384 0.50614 0.81172 0.0
O304 O 0.97348 0.51549 0.80885 0.0
O305 O 0.94106 0.51948 0.8169 0.0
O306 O 1.00602 0.5575 0.84977 0.0
O307 O 0.97232 0.56318 0.84927 0.0
O308 O 0.83506 0.44564 0.55277 0.0
Cd309 Cd 0.82969 0.46124 0.52389 0.0
Cd310 Cd 0.833 0.42098 0.50705 0.0
O311 O 0.81459 0.41062 0.53255 0.0
O312 O 0.81681 0.48762 0.53438 0.0
O313 O 0.79881 0.45249 0.50957 0.0
C314 C 0.79865 0.47294 0.52279 0.0
C315 C 0.82756 0.40152 0.46912 0.0
C316 C 0.82467 0.42335 0.55225 0.0
C317 C 0.87097 0.46309 0.51371 0.0
O318 O 0.86483 0.44129 0.51782 0.0
O319 O 0.85682 0.47455 0.50911 0.0
O320 O 0.835 0.39176 0.48598 0.0
O321 O 0.82129 0.4214 0.47438 0.0
O322 O 0.67729 0.51334 0.24492 0.0
Cd323 Cd 0.7066 0.51393 0.26892 0.0
Cd324 Cd 0.67483 0.54544 0.30433 0.0
O325 O 0.65897 0.53555 0.26701 0.0
O326 O 0.72446 0.49114 0.25032 0.0
O327 O 0.71513 0.48385 0.28411 0.0
C328 C 0.72469 0.47733 0.26632 0.0
C329 C 0.65599 0.54609 0.34227 0.0
C330 C 0.6618 0.52439 0.24654 0.0
C331 C 0.72103 0.57417 0.2904 0.0
O332 O 0.70498 0.5733 0.30281 0.0
O333 O 0.72374 0.55403 0.27844 0.0
O334 O 0.65732 0.5626 0.3288 0.0
O335 O 0.66466 0.5287 0.33453 0.0
Ho336 Ho 0.04832 0.04552 0.01767 0.0
Ho337 Ho 0.08948 0.07267 0.04968 0.0
C338 C 0.06543 0.10563 0.02255 0.0
C339 C 1.00719 0.02946 1.00127 0.0
C340 C 0.99057 0.04297 1.0019 0.0
C341 C 0.99411 0.0644 0.01899 0.0
C342 C 0.97978 0.07918 0.01798 0.0
C343 C 0.96183 0.07273 0.99983 0.0
C344 C 0.95851 0.0515 0.98254 0.0
C345 C 0.97288 0.03667 0.98357 0.0
C346 C 0.08058 0.04642 0.98844 0.0
C347 C 0.07317 1.01276 0.04323 0.0
C348 C 0.13038 0.08669 0.06754 0.0
C349 C 0.14696 0.07289 0.06694 0.0
C350 C 0.14444 0.05241 0.04891 0.0
C351 C 0.16047 0.03958 0.04823 0.0
C352 C 0.17909 0.04712 0.06556 0.0
C353 C 0.1808 0.0664 0.08449 0.0
C354 C 0.16471 0.07917 0.08524 0.0
C355 C 0.05657 0.07167 0.07875 0.0
O356 O 0.04911 0.08528 0.01541 0.0
O357 O 0.08359 0.10553 0.03576 0.0
O358 O 0.02228 0.03759 0.98835 0.0
O359 O 1.01534 0.02575 0.02177 0.0
O360 O 0.06026 0.03379 0.98308 0.0
O361 O 0.08363 0.05588 1.01079 0.0
O362 O 0.08969 0.03287 0.04942 0.0
O363 O 0.05425 1.01312 0.03208 0.0
O364 O 0.11462 0.07823 0.07954 0.0
O365 O 0.12315 0.0919 0.0473 0.0
O366 O 0.07709 0.08344 0.08455 0.0
O367 O 0.05412 0.06242 0.05641 0.0
H368 H 1.00811 0.06989 0.03289 0.0
H369 H 0.98263 0.09557 0.03143 0.0
H370 H 0.94455 0.0461 0.9686 0.0
H371 H 0.97037 1.02049 0.96997 0.0
H372 H 0.13051 0.04692 0.03492 0.0
H373 H 0.15918 0.02503 0.03325 0.0
H374 H 0.19531 0.07263 0.09775 0.0
H375 H 0.16652 0.09449 0.09961 0.0
Ho376 Ho 0.32133 0.8126 0.25183 0.0
Ho377 Ho 0.29777 0.81856 0.29287 0.0
C378 C 0.32347 0.86638 0.27786 0.0
C379 C 0.33117 0.81019 0.20952 0.0
C380 C 0.34447 0.82926 0.19831 0.0
C381 C 0.33552 0.84757 0.19099 0.0
C382 C 0.34763 0.86517 0.17967 0.0
C383 C 0.36904 0.86492 0.17528 0.0
C384 C 0.37856 0.84759 0.18402 0.0
C385 C 0.36629 0.82977 0.19535 0.0
C386 C 0.35201 0.8173 0.29039 0.0
C387 C 0.30416 0.76541 0.2724 0.0
C388 C 0.27546 0.81891 0.32818 0.0
C389 C 0.27091 0.80242 0.34511 0.0
C390 C 0.27421 0.77915 0.3392 0.0
C391 C 0.27476 0.76457 0.35616 0.0
C392 C 0.27203 0.77304 0.3794 0.0
C393 C 0.26663 0.79543 0.38515 0.0
C394 C 0.26617 0.81033 0.36783 0.0
C395 C 0.27582 0.82166 0.25129 0.0
O396 O 0.32318 0.85265 0.2573 0.0
O397 O 0.31815 0.85671 0.29654 0.0
O398 O 0.34176 0.80253 0.22619 0.0
O399 O 0.31257 0.81376 0.21506 0.0
O400 O 0.35567 0.816 0.26863 0.0
O401 O 0.33214 0.81776 0.29132 0.0
O402 O 0.30164 0.78016 0.29132 0.0
O403 O 0.30835 0.77342 0.25272 0.0
O404 O 0.26681 0.80876 0.30631 0.0
O405 O 0.29617 0.83112 0.32986 0.0
O406 O 0.27919 0.83759 0.27055 0.0
O407 O 0.28572 0.80539 0.25449 0.0
H408 H 0.31883 0.84792 0.19322 0.0
H409 H 0.33937 0.87771 0.17274 0.0
H410 H 0.39499 0.84698 0.1809 0.0
H411 H 0.37366 0.81603 0.20121 0.0
H412 H 0.27752 0.77281 0.32171 0.0
H413 H 0.27906 0.74737 0.35159 0.0
H414 H 0.26445 0.80209 0.40317 0.0
H415 H 0.26343 0.82838 0.37246 0.0
Ho416 Ho 0.59853 0.05444 0.53724 0.0
Ho417 Ho 0.54777 0.04718 0.54242 0.0
C418 C 0.56409 0.9993 0.52991 0.0
C419 C 0.63852 0.05152 0.53576 0.0
C420 C 0.65061 0.03225 0.53255 0.0
C421 C 0.65374 1.01844 0.55034 0.0
C422 C 0.66704 1.0022 0.54791 0.0
C423 C 0.67745 0.99923 0.52754 0.0
C424 C 0.67349 1.0122 0.50926 0.0
C425 C 0.66035 0.0286 0.51181 0.0
C426 C 0.5719 0.05672 0.49966 0.0
C427 C 0.58231 0.10241 0.54864 0.0
C428 C 0.50808 0.05153 0.54067 0.0
C429 C 0.49717 0.07163 0.54542 0.0
C430 C 0.50012 0.09114 0.53249 0.0
C431 C 0.48772 0.1083 0.53547 0.0
C432 C 0.47206 0.1063 0.55139 0.0
C433 C 0.47015 0.08767 0.56533 0.0
C434 C 0.48253 0.07053 0.56234 0.0
C435 C 0.57445 0.04657 0.58062 0.0
O436 O 0.58447 1.01362 0.53645 0.0
O437 O 0.54669 1.00812 0.52775 0.0
O438 O 0.62539 0.05265 0.51721 0.0
O439 O 0.63036 0.05533 0.55565 0.0
O440 O 0.59197 0.0705 0.50503 0.0
O441 O 0.56729 0.04197 0.51377 0.0
O442 O 0.56184 0.0881 0.5427 0.0
O443 O 0.59963 0.09356 0.55163 0.0
O444 O 0.51847 0.04622 0.55915 0.0
O445 O 0.51859 0.05082 0.52212 0.0
O446 O 0.55405 0.03367 0.57676 0.0
O447 O 0.57892 0.06011 0.56554 0.0
H448 H 0.64629 1.02048 0.56635 0.0
H449 H 0.66946 0.99222 0.56218 0.0
H450 H 0.68135 1.01053 0.49341 0.0
H451 H 0.65828 0.03898 0.49776 0.0
H452 H 0.51146 0.09271 0.51949 0.0
H453 H 0.48958 0.12234 0.52438 0.0
H454 H 0.45857 0.08588 0.57807 0.0
H455 H 0.48013 0.05588 0.57276 0.0
Ho456 Ho 0.29898 0.30841 0.77511 0.0
Ho457 Ho 0.34184 0.28862 0.77459 0.0
C458 C 0.32785 0.30749 0.82499 0.0
C459 C 0.25932 0.31171 0.77963 0.0
C460 C 0.24356 0.30924 0.79722 0.0
C461 C 0.24486 0.29519 0.8152 0.0
C462 C 0.22924 0.29269 0.8311 0.0
C463 C 0.21189 0.3041 0.82937 0.0
C464 C 0.21138 0.3191 0.81198 0.0
C465 C 0.22701 0.32161 0.79614 0.0
C466 C 0.33484 0.34765 0.7722 0.0
C467 C 0.31369 0.29015 0.72461 0.0
C468 C 0.38112 0.28386 0.77084 0.0
C469 C 0.39563 0.28188 0.75237 0.0
C470 C 0.39531 0.29463 0.73325 0.0
C471 C 0.41131 0.29527 0.71799 0.0
C472 C 0.42789 0.28317 0.72153 0.0
C473 C 0.42682 0.26843 0.73923 0.0
C474 C 0.41084 0.26787 0.75457 0.0
C475 C 0.30562 0.24948 0.77653 0.0
O476 O 0.30941 0.30977 0.8139 0.0
O477 O 0.34335 0.30081 0.81391 0.0
O478 O 0.27691 0.33029 0.78544 0.0
O479 O 0.26362 0.29164 0.76928 0.0
O480 O 0.31461 0.34845 0.77209 0.0
O481 O 0.33456 0.32504 0.77313 0.0
O482 O 0.33171 0.28699 0.73582 0.0
O483 O 0.2982 0.2972 0.73556 0.0
O484 O 0.36379 0.26528 0.76919 0.0
O485 O 0.37693 0.30517 0.77691 0.0
O486 O 0.3256 0.24819 0.77582 0.0
O487 O 0.30625 0.27219 0.77604 0.0
H488 H 0.25774 0.28588 0.81676 0.0
H489 H 0.23057 0.28143 0.84454 0.0
H490 H 0.19834 0.32808 0.80988 0.0
H491 H 0.22589 0.33287 0.78264 0.0
H492 H 0.3834 0.30507 0.7308 0.0
H493 H 0.41158 0.30653 0.70429 0.0
H494 H 0.43933 0.25893 0.74243 0.0
H495 H 0.41108 0.25749 0.76893 0.0
Ho496 Ho 0.07036 0.08138 0.54274 0.0
Ho497 Ho 0.07866 0.02921 0.52224 0.0
C498 C 0.05922 0.0593 0.48462 0.0
C499 C 0.07228 0.12732 0.55015 0.0
C500 C 0.07243 0.14405 0.53309 0.0
C501 C 0.08512 0.14335 0.51442 0.0
C502 C 0.08591 0.1602 0.49902 0.0
C503 C 0.07392 0.17772 0.50215 0.0
C504 C 0.0595 0.17675 0.51918 0.0
C505 C 0.05875 0.15991 0.53463 0.0
C506 C 0.03466 0.04343 0.54532 0.0
C507 C 0.09152 0.05222 0.58035 0.0
C508 C 0.07482 0.98292 0.51202 0.0
C509 C 0.07296 0.96531 0.52833 0.0
C510 C 0.05859 0.9655 0.54542 0.0
C511 C 0.05939 0.95179 0.56342 0.0
C512 C 0.07472 0.93788 0.56484 0.0
C513 C 0.08913 0.93772 0.54778 0.0
C514 C 0.08823 0.95136 0.5296 0.0
C515 C 0.11408 0.06807 0.52052 0.0
O516 O 0.06271 0.07821 0.50257 0.0
O517 O 0.06278 0.03778 0.48796 0.0
O518 O 0.05383 0.11004 0.54787 0.0
O519 O 0.08982 0.11927 0.55354 0.0
O520 O 0.03698 0.06649 0.55357 0.0
O521 O 0.0522 0.04217 0.53698 0.0
O522 O 0.08715 0.03238 0.56301 0.0
O523 O 0.0879 0.07352 0.57615 0.0
O524 O 0.09385 0.99952 0.51581 0.0
O525 O 0.0581 0.99227 0.50848 0.0
O526 O 0.11339 0.04514 0.51358 0.0
O527 O 0.09583 0.06807 0.52738 0.0
H528 H 0.09513 0.13055 0.51238 0.0
H529 H 0.09734 0.161 0.48609 0.0
H530 H 0.05034 0.1904 0.52187 0.0
H531 H 0.04823 0.16 0.5484 0.0
H532 H 0.04701 0.97662 0.54521 0.0
H533 H 0.04769 0.95175 0.57597 0.0
H534 H 0.10109 0.92711 0.54854 0.0
H535 H 0.09985 0.9516 0.51694 0.0
Ho536 Ho 0.33833 0.81697 0.75716 0.0
Ho537 Ho 0.29637 0.78008 0.76447 0.0
C538 C 0.33973 0.75856 0.76462 0.0
C539 C 0.37786 0.84498 0.76554 0.0
C540 C 0.39899 0.83998 0.77255 0.0
C541 C 0.40446 0.83631 0.79583 0.0
C542 C 0.42407 0.83081 0.80227 0.0
C543 C 0.4385 0.82878 0.78561 0.0
C544 C 0.43319 0.83222 0.76235 0.0
C545 C 0.41353 0.83792 0.75587 0.0
C546 C 0.31318 0.78993 0.71762 0.0
C547 C 0.29452 0.83744 0.75603 0.0
C548 C 0.2566 0.75312 0.75936 0.0
C549 C 0.23624 0.75827 0.75015 0.0
C550 C 0.23419 0.76637 0.72822 0.0
C551 C 0.21538 0.77298 0.7205 0.0
C552 C 0.19847 0.77171 0.73464 0.0
C553 C 0.20064 0.76386 0.75662 0.0
C554 C 0.21937 0.7571 0.76426 0.0
C555 C 0.32235 0.80631 0.80348 0.0
O556 O 0.35087 0.78191 0.76329 0.0
O557 O 0.31798 0.75325 0.76468 0.0
O558 O 0.36799 0.83492 0.74396 0.0
O559 O 0.36432 0.84335 0.78143 0.0
O560 O 0.32476 0.8126 0.71839 0.0
O561 O 0.31715 0.78306 0.7369 0.0
O562 O 0.28377 0.81354 0.75494 0.0
O563 O 0.31646 0.84391 0.75832 0.0
O564 O 0.26666 0.76673 0.77969 0.0
O565 O 0.27 0.75061 0.7439 0.0
O566 O 0.31146 0.78339 0.80223 0.0
O567 O 0.31758 0.81405 0.78494 0.0
H568 H 0.39367 0.83773 0.80917 0.0
H569 H 0.42816 0.82845 0.82039 0.0
H570 H 0.44448 0.83115 0.74949 0.0
H571 H 0.40971 0.84076 0.73787 0.0
H572 H 0.24715 0.76782 0.71709 0.0
H573 H 0.21393 0.77877 0.7034 0.0
H574 H 0.18789 0.76309 0.76796 0.0
H575 H 0.22086 0.75133 0.78137 0.0
Ho576 Ho 0.57024 0.04497 0.06621 0.0
Ho577 Ho 0.56573 0.05997 0.01592 0.0
C578 C 0.52415 0.02933 0.0316 0.0
C579 C 0.56682 0.03748 0.10834 0.0
C580 C 0.55066 1.01667 0.11411 0.0
C581 C 0.5306 1.00624 0.09897 0.0
C582 C 0.51276 0.99193 0.10734 0.0
C583 C 0.51501 0.98932 0.13119 0.0
C584 C 0.53629 0.99318 0.14335 0.0
C585 C 0.55413 1.00811 0.13531 0.0
C586 C 0.57253 1.00708 0.03298 0.0
C587 C 0.61332 0.07398 0.04855 0.0
C588 C 0.5704 0.07351 0.97595 0.0
C589 C 0.58678 0.09422 0.97019 0.0
C590 C 0.60933 0.09782 0.97743 0.0
C591 C 0.62463 0.11317 0.96664 0.0
C592 C 0.61717 0.12262 0.94721 0.0
C593 C 0.59563 0.12501 0.94522 0.0
C594 C 0.58008 0.10981 0.95602 0.0
C595 C 0.55769 0.09027 0.05213 0.0
O596 O 0.5345 0.03748 0.05339 0.0
O597 O 0.53422 0.0311 1.0127 0.0
O598 O 0.58205 0.03151 0.09684 0.0
O599 O 0.55843 0.05362 0.09943 0.0
O600 O 0.5723 1.00644 0.05524 0.0
O601 O 0.56919 0.02721 0.02941 0.0
O602 O 0.60177 0.07324 0.02797 0.0
O603 O 0.60493 0.06572 0.06683 0.0
O604 O 0.55648 0.07985 0.98922 0.0
O605 O 0.57756 0.05524 0.98208 0.0
O606 O 0.54662 0.08519 0.03112 0.0
O607 O 0.57266 0.07952 0.05297 0.0
H608 H 0.52791 1.01123 0.08182 0.0
H609 H 0.49655 0.98811 0.09724 0.0
H610 H 0.53849 0.98982 0.1614 0.0
H611 H 0.56988 1.01478 0.14659 0.0
H612 H 0.61509 0.08681 0.98916 0.0
H613 H 0.64125 0.11154 0.96867 0.0
H614 H 0.58985 0.13372 0.93126 0.0
H615 H 0.56278 0.10836 0.95136 0.0
Ho616 Ho 0.32737 0.32873 0.28299 0.0
Ho617 Ho 0.30367 0.27042 0.25772 0.0
C618 C 0.27425 0.30583 0.27375 0.0
C619 C 0.33933 0.37586 0.29426 0.0
C620 C 0.32478 0.39195 0.29533 0.0
C621 C 0.30541 0.38573 0.27901 0.0
C622 C 0.28945 0.39817 0.28246 0.0
C623 C 0.29274 0.41695 0.30217 0.0
C624 C 0.31212 0.42339 0.31836 0.0
C625 C 0.32804 0.41076 0.31505 0.0
C626 C 0.3226 0.29655 0.31484 0.0
C627 C 0.35661 0.29668 0.26121 0.0
C628 C 0.29429 0.22293 0.25038 0.0
C629 C 0.30993 0.20788 0.24931 0.0
C630 C 0.33187 0.21917 0.25903 0.0
C631 C 0.34725 0.20581 0.25895 0.0
C632 C 0.34066 0.18021 0.25123 0.0
C633 C 0.31898 0.16884 0.24003 0.0
C634 C 0.30366 0.18281 0.23877 0.0
C635 C 0.30856 0.30172 0.22536 0.0
O636 O 0.29144 0.32533 0.27583 0.0
O637 O 0.27507 0.28254 0.26946 0.0
O638 O 0.33699 0.36141 0.31006 0.0
O639 O 0.34028 0.3643 0.27314 0.0
O640 O 0.32999 0.32028 0.3206 0.0
O641 O 0.31971 0.29202 0.29239 0.0
O642 O 0.34007 0.2764 0.25812 0.0
O643 O 0.35572 0.3192 0.26935 0.0
O644 O 0.29396 0.23563 0.2332 0.0
O645 O 0.29495 0.23622 0.27128 0.0
O646 O 0.29886 0.27821 0.21996 0.0
O647 O 0.31339 0.30667 0.24776 0.0
H648 H 0.3024 0.37096 0.26384 0.0
H649 H 0.27479 0.39359 0.26948 0.0
H650 H 0.31492 0.43826 0.33342 0.0
H651 H 0.34264 0.41528 0.32807 0.0
H652 H 0.33698 0.23793 0.26829 0.0
H653 H 0.36378 0.21501 0.26773 0.0
H654 H 0.3135 0.14903 0.23401 0.0
H655 H 0.28681 0.17385 0.23085 0.0
Ho656 Ho 0.57253 0.57337 0.04567 0.0
Ho657 Ho 0.57881 0.52744 0.02936 0.0
C658 C 0.5595 0.55143 0.98812 0.0
C659 C 0.56762 0.61736 0.05079 0.0
C660 C 0.5699 0.63388 0.03343 0.0
C661 C 0.58233 0.63011 0.015 0.0
C662 C 0.58562 0.64624 0.99894 0.0
C663 C 0.57689 0.66662 1.00134 0.0
C664 C 0.56314 0.66946 0.01868 0.0
C665 C 0.55958 0.65301 0.03469 0.0
C666 C 0.53912 0.53581 0.0529 0.0
C667 C 0.59604 0.55039 0.08582 0.0
C668 C 0.57416 0.48095 0.02503 0.0
C669 C 0.58355 0.46691 0.04077 0.0
C670 C 0.57804 0.46657 0.06391 0.0
C671 C 0.58293 0.44921 0.07671 0.0
C672 C 0.59309 0.43188 0.06635 0.0
C673 C 0.60204 0.43518 0.04523 0.0
C674 C 0.59698 0.45242 0.03228 0.0
C675 C 0.61789 0.55895 0.02489 0.0
O676 O 0.56484 0.57135 1.00503 0.0
O677 O 0.5618 0.5304 0.9937 0.0
O678 O 0.55121 0.59757 0.04472 0.0
O679 O 0.58578 0.61252 0.05879 0.0
O680 O 0.54985 0.5545 0.06897 0.0
O681 O 0.54771 0.5372 0.03397 0.0
O682 O 0.58986 0.53022 0.06933 0.0
O683 O 0.59297 0.57118 0.08005 0.0
O684 O 0.5878 0.49487 0.01375 0.0
O685 O 0.55989 0.49163 0.03355 0.0
O686 O 0.61211 0.53529 0.01848 0.0
O687 O 0.6022 0.56621 0.03297 0.0
H688 H 0.59037 0.61538 0.01366 0.0
H689 H 0.59644 0.64393 0.98579 0.0
H690 H 0.55654 0.68533 0.02091 0.0
H691 H 0.54961 0.6558 0.04858 0.0
H692 H 0.56837 0.47823 0.07139 0.0
H693 H 0.57601 0.44718 0.09308 0.0
H694 H 0.6102 0.42213 0.03715 0.0
H695 H 0.60204 0.45299 0.01484 0.0
Ho696 Ho 0.84144 0.31455 0.26728 0.0
Ho697 Ho 0.80139 0.27673 0.27842 0.0
C698 C 0.84576 0.2576 0.27634 0.0
C699 C 0.88111 0.34123 0.27363 0.0
C700 C 0.90136 0.33452 0.28049 0.0
C701 C 0.903 0.32178 0.29957 0.0
C702 C 0.9231 0.31823 0.30787 0.0
C703 C 0.9416 0.32724 0.29708 0.0
C704 C 0.9395 0.33767 0.27661 0.0
C705 C 0.9194 0.34131 0.26834 0.0
C706 C 0.81557 0.28393 0.23012 0.0
C707 C 0.79747 0.33373 0.26743 0.0
C708 C 0.76244 0.24758 0.27379 0.0
C709 C 0.74151 0.25156 0.26512 0.0
C710 C 0.74133 0.2691 0.25036 0.0
C711 C 0.72168 0.27306 0.24161 0.0
C712 C 0.70171 0.25884 0.24666 0.0
C713 C 0.70186 0.24149 0.26178 0.0
C714 C 0.72176 0.23797 0.2711 0.0
C715 C 0.82736 0.30715 0.3158 0.0
O716 O 0.85533 0.28116 0.27445 0.0
O717 O 0.82423 0.25086 0.2777 0.0
O718 O 0.87061 0.33084 0.25237 0.0
O719 O 0.86813 0.34162 0.29003 0.0
O720 O 0.82601 0.30654 0.22874 0.0
O721 O 0.82102 0.2792 0.25002 0.0
O722 O 0.78763 0.31015 0.26941 0.0
O723 O 0.8191 0.34052 0.26696 0.0
O724 O 0.77243 0.26133 0.2941 0.0
O725 O 0.77558 0.2468 0.25769 0.0
O726 O 0.81745 0.28422 0.3165 0.0
O727 O 0.82181 0.31217 0.29601 0.0
H728 H 0.88911 0.31577 0.30892 0.0
H729 H 0.92462 0.31049 0.32391 0.0
H730 H 0.95382 0.34493 0.26834 0.0
H731 H 0.91827 0.35065 0.2533 0.0
H732 H 0.75632 0.27935 0.24503 0.0
H733 H 0.72214 0.28692 0.23043 0.0
H734 H 0.68664 0.23014 0.26579 0.0
H735 H 0.72172 0.22435 0.28246 0.0
Ho736 Ho 0.0765 0.56147 0.573 0.0
Ho737 Ho 0.06631 0.56966 0.52315 0.0
C738 C 0.02718 0.54305 0.54575 0.0
C739 C 0.07455 0.55181 0.61504 0.0
C740 C 0.05477 0.54116 0.62537 0.0
C741 C 0.0408 0.55576 0.63196 0.0
C742 C 0.02051 0.54508 0.63829 0.0
C743 C 1.01363 0.51951 0.63825 0.0
C744 C 0.02778 0.50491 0.63227 0.0
C745 C 0.04822 0.51567 0.62583 0.0
C746 C 0.08378 0.52931 0.5377 0.0
C747 C 0.11532 0.59136 0.55357 0.0
C748 C 0.07014 0.57817 0.48139 0.0
C749 C 0.08668 0.59844 0.47487 0.0
C750 C 0.10931 0.60029 0.4794 0.0
C751 C 0.1242 0.61653 0.46884 0.0
C752 C 0.11595 0.62847 0.4518 0.0
C753 C 0.09509 0.63239 0.45327 0.0
C754 C 0.08 0.61636 0.46388 0.0
C755 C 0.05867 0.60327 0.55555 0.0
O756 O 0.03978 0.55339 0.56615 0.0
O757 O 0.03516 0.54239 0.52536 0.0
O758 O 0.07894 0.53692 0.59779 0.0
O759 O 0.07675 0.57412 0.61035 0.0
O760 O 0.09714 0.53799 0.55731 0.0
O761 O 0.06716 0.53721 0.53808 0.0
O762 O 0.10298 0.58294 0.53272 0.0
O763 O 0.10794 0.58874 0.57378 0.0
O764 O 0.0556 0.58501 0.4934 0.0
O765 O 0.07735 0.56077 0.48941 0.0
O766 O 0.04677 0.59503 0.53504 0.0
O767 O 0.07485 0.59436 0.55767 0.0
H768 H 0.04534 0.57546 0.63195 0.0
H769 H 1.01049 0.55712 0.64396 0.0
H770 H 0.02311 0.48533 0.63284 0.0
H771 H 0.05873 0.50399 0.62081 0.0
H772 H 0.11531 0.58789 0.48924 0.0
H773 H 0.14087 0.61479 0.46943 0.0
H774 H 0.08889 0.64312 0.44153 0.0
H775 H 0.06287 0.61643 0.46156 0.0
Ho776 Ho 0.79504 0.80732 0.28109 0.0
Ho777 Ho 0.8398 0.79123 0.2814 0.0
C778 C 0.82571 0.81184 0.33142 0.0
C779 C 0.75412 0.80543 0.28445 0.0
C780 C 0.73945 0.80888 0.30263 0.0
C781 C 0.73222 0.79094 0.31673 0.0
C782 C 0.71633 0.79325 0.33169 0.0
C783 C 0.70717 0.81348 0.33283 0.0
C784 C 0.71503 0.83176 0.31928 0.0
C785 C 0.73089 0.82947 0.30441 0.0
C786 C 0.82965 0.84791 0.27781 0.0
C787 C 0.81095 0.79022 0.23121 0.0
C788 C 0.88 0.79077 0.27765 0.0
C789 C 0.89324 0.78806 0.25805 0.0
C790 C 0.90066 0.80757 0.24579 0.0
C791 C 0.91509 0.80571 0.22916 0.0
C792 C 0.92227 0.7843 0.22433 0.0
C793 C 0.91391 0.76423 0.23546 0.0
C794 C 0.89962 0.76615 0.25232 0.0
C795 C 0.80535 0.74988 0.28279 0.0
O796 O 0.80689 0.81349 0.32043 0.0
O797 O 0.84095 0.80477 0.32015 0.0
O798 O 0.7686 0.82512 0.28116 0.0
O799 O 0.76189 0.78611 0.28316 0.0
O800 O 0.80915 0.84788 0.27758 0.0
O801 O 0.82998 0.82572 0.2795 0.0
O802 O 0.82973 0.78911 0.24253 0.0
O803 O 0.79451 0.79497 0.24195 0.0
O804 O 0.86455 0.77122 0.27928 0.0
O805 O 0.87384 0.81111 0.28184 0.0
O806 O 0.82582 0.7504 0.28243 0.0
O807 O 0.8046 0.77225 0.28235 0.0
H808 H 0.73842 0.77479 0.31583 0.0
H809 H 0.71102 0.77898 0.3421 0.0
H810 H 0.70826 0.84743 0.31927 0.0
H811 H 0.73592 0.84349 0.29364 0.0
H812 H 0.89595 0.82461 0.24958 0.0
H813 H 0.92133 0.82139 0.22068 0.0
H814 H 0.91939 0.74763 0.23214 0.0
H815 H 0.89415 0.75081 0.26147 0.0
Ho816 Ho 0.83946 0.30991 0.76181 0.0
Ho817 Ho 0.81158 0.3132 0.8056 0.0
C818 C 0.83826 0.36239 0.79015 0.0
C819 C 0.85358 0.3097 0.72173 0.0
C820 C 0.864 0.32998 0.7103 0.0
C821 C 0.85399 0.34883 0.70699 0.0
C822 C 0.86295 0.36618 0.69342 0.0
C823 C 0.88182 0.36458 0.68308 0.0
C824 C 0.89352 0.34813 0.68945 0.0
C825 C 0.88449 0.33067 0.70287 0.0
C826 C 0.86497 0.31075 0.80353 0.0
C827 C 0.81446 0.26061 0.77853 0.0
C828 C 0.7981 0.31427 0.8461 0.0
C829 C 0.78532 0.29374 0.85591 0.0
C830 C 0.79525 0.27619 0.8633 0.0
C831 C 0.78295 0.25622 0.87172 0.0
C832 C 0.76037 0.25321 0.87276 0.0
C833 C 0.75019 0.27008 0.86418 0.0
C834 C 0.76263 0.29036 0.85605 0.0
C835 C 0.78611 0.31153 0.76356 0.0
O836 O 0.84155 0.34999 0.7701 0.0
O837 O 0.82889 0.35204 0.80693 0.0
O838 O 0.8654 0.30783 0.74088 0.0
O839 O 0.83268 0.30658 0.72378 0.0
O840 O 0.87148 0.30956 0.78291 0.0
O841 O 0.84516 0.31187 0.80045 0.0
O842 O 0.81015 0.27345 0.79778 0.0
O843 O 0.82299 0.27046 0.76097 0.0
O844 O 0.7876 0.31989 0.82794 0.0
O845 O 0.81829 0.31404 0.84323 0.0
O846 O 0.77905 0.31142 0.78391 0.0
O847 O 0.80604 0.31114 0.76706 0.0
H848 H 0.83858 0.34922 0.71348 0.0
H849 H 0.85362 0.37871 0.68856 0.0
H850 H 0.90809 0.34676 0.68155 0.0
H851 H 0.89281 0.31676 0.70614 0.0
H852 H 0.81264 0.27802 0.86303 0.0
H853 H 0.79157 0.244 0.87869 0.0
H854 H 0.73284 0.26821 0.8648 0.0
H855 H 0.75454 0.30348 0.85004 0.0
Ho856 Ho 0.82095 0.83199 0.79009 0.0
Ho857 Ho 0.80126 0.77345 0.76514 0.0
C858 C 0.76852 0.80433 0.78202 0.0
C859 C 0.82838 0.87864 0.79959 0.0
C860 C 0.81318 0.89231 0.80785 0.0
C861 C 0.79151 0.88633 0.79606 0.0
C862 C 0.77846 0.90213 0.80092 0.0
C863 C 0.78717 0.92406 0.81734 0.0
C864 C 0.80707 0.92755 0.83212 0.0
C865 C 0.82029 0.91186 0.82708 0.0
C866 C 0.81737 0.80117 0.82287 0.0
C867 C 0.85316 0.80275 0.77077 0.0
C868 C 0.79389 0.72635 0.75649 0.0
C869 C 0.80966 0.71195 0.75231 0.0
C870 C 0.83175 0.72215 0.76229 0.0
C871 C 0.84631 0.70771 0.76162 0.0
C872 C 0.83868 0.68257 0.75199 0.0
C873 C 0.81736 0.67293 0.7395 0.0
C874 C 0.80281 0.68775 0.73955 0.0
C875 C 0.80722 0.80443 0.73232 0.0
O876 O 0.78455 0.82508 0.78554 0.0
O877 O 0.77088 0.78187 0.77606 0.0
O878 O 0.83556 0.8663 0.81465 0.0
O879 O 0.82261 0.86619 0.77792 0.0
O880 O 0.82445 0.82499 0.82803 0.0
O881 O 0.81305 0.79572 0.8005 0.0
O882 O 0.8381 0.78159 0.76986 0.0
O883 O 0.85011 0.82479 0.77635 0.0
O884 O 0.79062 0.73911 0.74001 0.0
O885 O 0.79651 0.73901 0.77806 0.0
O886 O 0.79888 0.78071 0.72693 0.0
O887 O 0.81045 0.80949 0.75475 0.0
H888 H 0.78529 0.87073 0.78165 0.0
H889 H 0.76304 0.89898 0.78944 0.0
H890 H 0.81378 0.94431 0.84515 0.0
H891 H 0.83663 0.91608 0.83693 0.0
H892 H 0.83738 0.74047 0.77264 0.0
H893 H 0.86253 0.71521 0.77183 0.0
H894 H 0.81125 0.65341 0.73216 0.0
H895 H 0.7859 0.6798 0.73132 0.0
Ho896 Ho 0.55177 0.54144 0.52446 0.0
Ho897 Ho 0.59363 0.5673 0.55686 0.0
C898 C 0.56928 0.60142 0.53193 0.0
C899 C 0.51018 0.52618 0.5098 0.0
C900 C 0.49333 0.53957 0.51004 0.0
C901 C 0.49604 0.56094 0.52703 0.0
C902 C 0.48114 0.57515 0.52554 0.0
C903 C 0.46353 0.5683 0.50692 0.0
C904 C 0.46101 0.54699 0.4899 0.0
C905 C 0.47584 0.53275 0.49146 0.0
C906 C 0.58388 0.54367 0.49478 0.0
C907 C 0.57757 0.50713 0.54766 0.0
C908 C 0.63498 0.58281 0.57274 0.0
C909 C 0.65175 0.56947 0.57078 0.0
C910 C 0.64761 0.54804 0.55354 0.0
C911 C 0.66204 0.53326 0.55344 0.0
C912 C 0.68084 0.53982 0.5705 0.0
C913 C 0.6851 0.56136 0.58763 0.0
C914 C 0.67046 0.57602 0.5879 0.0
C915 C 0.56077 0.56625 0.58585 0.0
O916 O 0.55327 0.58131 0.523 0.0
O917 O 0.58699 0.60098 0.54559 0.0
O918 O 0.52483 0.53323 0.49603 0.0
O919 O 0.51888 0.52332 0.53043 0.0
O920 O 0.56328 0.53202 0.48904 0.0
O921 O 0.587 0.55207 0.51745 0.0
O922 O 0.59316 0.5275 0.55687 0.0
O923 O 0.5594 0.50755 0.53467 0.0
O924 O 0.62008 0.57372 0.58552 0.0
O925 O 0.6265 0.58767 0.5529 0.0
O926 O 0.5815 0.57687 0.59211 0.0
O927 O 0.55835 0.55748 0.5634 0.0
H928 H 0.50983 0.56683 0.5412 0.0
H929 H 0.48346 0.59156 0.53882 0.0
H930 H 0.44735 0.54109 0.4756 0.0
H931 H 0.47383 0.51658 0.47798 0.0
H932 H 0.63305 0.54254 0.54036 0.0
H933 H 0.65875 0.51696 0.53979 0.0
H934 H 0.69965 0.5667 0.60082 0.0
H935 H 0.67355 0.59222 0.60162 0.0
Ho936 Ho 0.0955 0.55521 0.04586 0.0
Ho937 Ho 0.04656 0.55291 0.05401 0.0
C938 C 0.05919 0.5023 0.04133 0.0
C939 C 0.13513 0.55032 0.04696 0.0
C940 C 0.14735 0.5311 0.04453 0.0
C941 C 0.15277 0.5205 0.06411 0.0
C942 C 0.16623 0.50442 0.06256 0.0
C943 C 0.17475 0.4984 0.04138 0.0
C944 C 0.16906 0.50874 0.02165 0.0
C945 C 0.1556 0.52493 0.02324 0.0
C946 C 0.06692 0.55453 1.00808 0.0
C947 C 0.08346 0.60588 0.05682 0.0
C948 C 1.00794 0.55988 0.05392 0.0
C949 C 0.99791 0.58019 0.06147 0.0
C950 C 0.99759 0.59879 0.04782 0.0
C951 C 0.98362 0.61408 0.05178 0.0
C952 C 0.96972 0.6109 0.06932 0.0
C953 C 0.97197 0.59437 0.08471 0.0
C954 C 0.98591 0.57911 0.08079 0.0
C955 C 0.07442 0.55367 0.09195 0.0
O956 O 0.08002 0.51523 0.04763 0.0
O957 O 0.04299 0.51307 0.03913 0.0
O958 O 0.12358 0.55293 0.02782 0.0
O959 O 0.12535 0.55294 0.0659 0.0
O960 O 0.0875 0.56695 1.01082 0.0
O961 O 0.06319 0.54264 0.02447 0.0
O962 O 0.06236 0.59335 0.05296 0.0
O963 O 0.09958 0.59511 0.0583 0.0
O964 O 0.01717 0.55095 0.07071 0.0
O965 O 0.01884 0.56144 0.03568 0.0
O966 O 0.05402 0.54078 0.08871 0.0
O967 O 0.07858 0.56559 0.07555 0.0
H968 H 0.14712 0.52513 0.08094 0.0
H969 H 0.17055 0.49738 0.07835 0.0
H970 H 0.17508 0.50444 1.00498 0.0
H971 H 0.15201 0.53301 1.00788 0.0
H972 H 1.0068 0.60033 0.03293 0.0
H973 H 0.98195 0.62646 0.03949 0.0
H974 H 0.96123 0.59142 0.09819 0.0
H975 H 0.98591 0.56512 0.09173 0.0
H976 H 0.023 0.19228 0.93977 0.0
H977 H 0.0614 0.25519 0.99209 0.0
H978 H 0.07441 0.22716 0.01547 0.0
H979 H 1.00529 0.15359 0.98298 0.0
H980 H 1.00609 0.12537 0.96459 0.0
H981 H 1.00083 0.15035 0.95106 0.0
H982 H 0.03366 0.15037 0.92742 0.0
H983 H 0.03899 0.12538 0.94091 0.0
H984 H 0.06049 0.15361 0.94322 0.0
H985 H 0.08422 0.19215 0.03281 0.0
H986 H 0.0871 0.15288 0.04471 0.0
H987 H 0.03974 0.11205 0.98352 0.0
C988 C 0.0342 0.20009 0.9561 0.0
C989 C 0.04123 0.226 0.96404 0.0
C990 C 0.05569 0.23545 0.98568 0.0
C991 C 0.06327 0.21965 0.99906 0.0
C992 C 0.05595 0.19423 0.99091 0.0
C993 C 0.04148 0.18445 0.97012 0.0
C994 C 0.03521 0.15634 0.96616 0.0
C995 C 1.01038 0.14579 0.9662 0.0
C996 C 0.04252 0.14581 0.94305 0.0
C997 C 0.04843 0.1519 0.98784 0.0
C998 C 0.06055 0.17404 1.00169 0.0
C999 C 0.07459 0.17472 0.0222 0.0
C1000 C 0.07613 0.15227 0.02884 0.0
C1001 C 0.06343 0.12928 0.0153 0.0
C1002 C 0.0494 0.12926 0.99451 0.0
H1003 H 0.17502 0.86463 0.19449 0.0
H1004 H 0.15736 0.79671 0.14289 0.0
H1005 H 0.18902 0.78455 0.16106 0.0
H1006 H 0.23382 0.87556 0.19465 0.0
H1007 H 0.24056 0.88819 0.22594 0.0
H1008 H 0.21602 0.89113 0.20943 0.0
H1009 H 0.1925 0.87005 0.239 0.0
H1010 H 0.21698 0.86714 0.25562 0.0
H1011 H 0.19434 0.84015 0.24447 0.0
H1012 H 0.22298 0.77961 0.18543 0.0
H1013 H 0.25639 0.78317 0.21372 0.0
H1014 H 0.2527 0.85517 0.24744 0.0
C1015 C 0.17791 0.84726 0.18711 0.0
C1016 C 0.16393 0.83167 0.16723 0.0
C1017 C 0.16814 0.80904 0.15797 0.0
C1018 C 0.18601 0.80192 0.16821 0.0
C1019 C 0.19978 0.81779 0.18758 0.0
C1020 C 0.19602 0.84007 0.19685 0.0
C1021 C 0.2137 0.85406 0.21729 0.0
C1022 C 0.22679 0.87869 0.21147 0.0
C1023 C 0.20378 0.85807 0.24046 0.0
C1024 C 0.22774 0.83614 0.21819 0.0
C1025 C 0.2195 0.81525 0.20101 0.0
C1026 C 0.22967 0.79601 0.19887 0.0
C1027 C 0.24867 0.79818 0.21488 0.0
C1028 C 0.25722 0.81946 0.23265 0.0
C1029 C 0.24665 0.83867 0.23399 0.0
H1030 H 0.52837 0.85077 0.49852 0.0
H1031 H 0.56354 0.86093 0.43798 0.0
H1032 H 0.57604 0.90559 0.45257 0.0
H1033 H 0.50844 0.90221 0.50097 0.0
H1034 H 0.51276 0.91184 0.53279 0.0
H1035 H 0.50887 0.87988 0.5202 0.0
H1036 H 0.54583 0.88019 0.54388 0.0
H1037 H 0.54963 0.9121 0.55686 0.0
H1038 H 0.57056 0.90316 0.5414 0.0
H1039 H 0.58145 0.94803 0.46971 0.0
H1040 H 0.58168 0.98877 0.49117 0.0
H1041 H 0.54312 0.95409 0.54153 0.0
C1042 C 0.53912 0.8625 0.48883 0.0
C1043 C 0.545 0.85265 0.46711 0.0
C1044 C 0.55887 0.86832 0.4546 0.0
C1045 C 0.56612 0.89366 0.46276 0.0
C1046 C 0.55953 0.90308 0.48365 0.0
C1047 C 0.54667 0.88821 0.49686 0.0
C1048 C 0.54132 0.90396 0.51811 0.0
C1049 C 0.51636 0.89918 0.51798 0.0
C1050 C 0.5525 0.89958 0.54145 0.0
C1051 C 0.5518 0.92976 0.51353 0.0
C1052 C 0.56264 0.92851 0.49383 0.0
C1053 C 0.57333 0.94938 0.48538 0.0
C1054 C 0.57327 0.97237 0.49757 0.0
C1055 C 0.5624 0.97431 0.51778 0.0
C1056 C 0.55141 0.95285 0.52596 0.0
H1057 H 0.5383 0.26875 0.66869 0.0
H1058 H 0.56012 0.34884 0.68376 0.0
H1059 H 0.52406 0.35011 0.69574 0.0
H1060 H 0.48014 0.26744 0.64481 0.0
H1061 H 0.46813 0.23973 0.65587 0.0
H1062 H 0.49516 0.24466 0.64691 0.0
H1063 H 0.5108 0.23881 0.68824 0.0
H1064 H 0.48387 0.23394 0.69725 0.0
H1065 H 0.50669 0.25772 0.71458 0.0
H1066 H 0.48769 0.34353 0.70835 0.0
H1067 H 0.45171 0.32952 0.72156 0.0
H1068 H 0.45113 0.25317 0.69813 0.0
C1069 C 0.53537 0.2865 0.67453 0.0
C1070 C 0.5521 0.30881 0.67565 0.0
C1071 C 0.54759 0.33165 0.68285 0.0
C1072 C 0.52714 0.33252 0.6896 0.0
C1073 C 0.51106 0.31039 0.68842 0.0
C1074 C 0.51465 0.28773 0.68076 0.0
C1075 C 0.49412 0.26688 0.68115 0.0
C1076 C 0.48378 0.25391 0.65568 0.0
C1077 C 0.49919 0.24826 0.69623 0.0
C1078 C 0.47939 0.28143 0.69242 0.0
C1079 C 0.48937 0.3065 0.69557 0.0
C1080 C 0.47952 0.32399 0.70567 0.0
C1081 C 0.45898 0.31582 0.71302 0.0
C1082 C 0.44842 0.29032 0.71061 0.0
C1083 C 0.45875 0.27281 0.70004 0.0
H1084 H 0.03451 0.80556 0.59313 0.0
H1085 H 1.01524 0.8398 0.65736 0.0
H1086 H 0.03613 0.88074 0.65112 0.0
H1087 H 0.09002 0.84824 0.59939 0.0
H1088 H 0.08857 0.84821 0.5679 0.0
H1089 H 0.07414 0.8212 0.57863 0.0
H1090 H 0.03732 0.82198 0.55504 0.0
H1091 H 0.05186 0.84838 0.54377 0.0
H1092 H 0.02863 0.84998 0.5591 0.0
H1093 H 0.05699 0.91767 0.63699 0.0
H1094 H 0.0701 0.94836 0.61172 0.0
H1095 H 0.07545 0.88997 0.55687 0.0
C1096 C 0.03458 0.82167 0.60583 0.0
C1097 C 0.0232 0.81956 0.62564 0.0
C1098 C 0.02367 0.84105 0.64188 0.0
C1099 C 0.03583 0.86431 0.63877 0.0
C1100 C 0.04744 0.86565 0.61944 0.0
C1101 C 0.04663 0.84496 0.60303 0.0
C1102 C 0.05866 0.85164 0.58249 0.0
C1103 C 0.07906 0.84173 0.5821 0.0
C1104 C 0.04319 0.84248 0.55871 0.0
C1105 C 0.06519 0.87944 0.5892 0.0
C1106 C 0.05933 0.88713 0.61103 0.0
C1107 C 0.06188 0.91194 0.62 0.0
C1108 C 0.0693 0.92921 0.60558 0.0
C1109 C 0.07363 0.92141 0.58243 0.0
C1110 C 0.07268 0.89645 0.5747 0.0
H1111 H 0.55561 0.8717 0.86157 0.0
H1112 H 0.56651 0.80137 0.83388 0.0
H1113 H 0.52838 0.7874 0.81208 0.0
H1114 H 0.49702 0.84718 0.86842 0.0
H1115 H 0.49056 0.87431 0.86039 0.0
H1116 H 0.51746 0.87663 0.87543 0.0
H1117 H 0.53482 0.8964 0.84145 0.0
H1118 H 0.50805 0.89337 0.82583 0.0
H1119 H 0.52722 0.87982 0.8113 0.0
H1120 H 0.49067 0.78405 0.78961 0.0
H1121 H 0.45488 0.78933 0.77263 0.0
H1122 H 0.47003 0.8617 0.81675 0.0
C1123 C 0.54972 0.85316 0.85129 0.0
C1124 C 0.56356 0.8375 0.84905 0.0
C1125 C 0.55574 0.81339 0.83566 0.0
C1126 C 0.53428 0.80544 0.82325 0.0
C1127 C 0.52117 0.82183 0.82507 0.0
C1128 C 0.5285 0.84496 0.83927 0.0
C1129 C 0.51185 0.85958 0.83781 0.0
C1130 C 0.50374 0.86471 0.86195 0.0
C1131 C 0.52104 0.8837 0.82853 0.0
C1132 C 0.49417 0.84145 0.81993 0.0
C1133 C 0.49969 0.81974 0.8127 0.0
C1134 C 0.48603 0.80078 0.79541 0.0
C1135 C 0.46596 0.80397 0.78575 0.0
C1136 C 0.46005 0.82583 0.79366 0.0
C1137 C 0.47435 0.84478 0.8107 0.0
H1138 H 0.52656 0.20614 0.11361 0.0
H1139 H 0.47836 0.15607 0.14477 0.0
H1140 H 0.49259 0.1213 0.12829 0.0
H1141 H 0.52772 0.16671 0.06008 0.0
H1142 H 0.55714 0.17741 0.06113 0.0
H1143 H 0.54239 0.19764 0.07472 0.0
H1144 H 0.56805 0.20402 0.11445 0.0
H1145 H 0.58238 0.18312 0.10099 0.0
H1146 H 0.57021 0.17757 0.12743 0.0
H1147 H 0.51095 0.09289 0.10819 0.0
H1148 H 0.52973 0.07061 0.08143 0.0
H1149 H 0.56847 0.1395 0.06592 0.0
C1150 C 0.51849 0.18764 0.11613 0.0
C1151 C 0.50086 0.18322 0.12952 0.0
C1152 C 0.49139 0.15928 0.13379 0.0
C1153 C 0.49965 0.13971 0.12496 0.0
C1154 C 0.51771 0.14489 0.11271 0.0
C1155 C 0.52699 0.16818 0.10816 0.0
C1156 C 0.54648 0.16878 0.09483 0.0
C1157 C 0.54321 0.17816 0.07129 0.0
C1158 C 0.56804 0.18429 0.11036 0.0
C1159 C 0.54554 0.14169 0.09095 0.0
C1160 C 0.52931 0.12849 0.10215 0.0
C1161 C 0.52407 0.10298 0.09979 0.0
C1162 C 0.53502 0.09045 0.08466 0.0
C1163 C 0.55102 0.10347 0.07236 0.0
C1164 C 0.55679 0.12937 0.07593 0.0
H1165 H 0.17822 0.29744 0.35184 0.0
H1166 H 0.18325 0.37393 0.34646 0.0
H1167 H 0.21139 0.37317 0.31949 0.0
H1168 H 0.23732 0.30261 0.3517 0.0
H1169 H 0.23185 0.27162 0.33538 0.0
H1170 H 0.21317 0.27925 0.35501 0.0
H1171 H 0.18128 0.26273 0.31997 0.0
H1172 H 0.20003 0.25603 0.29999 0.0
H1173 H 0.18304 0.27589 0.29327 0.0
H1174 H 0.23435 0.36207 0.28929 0.0
H1175 H 0.261 0.34643 0.26748 0.0
H1176 H 0.2426 0.2779 0.29476 0.0
C1177 C 0.18564 0.31414 0.34531 0.0
C1178 C 0.1787 0.33567 0.35077 0.0
C1179 C 0.18863 0.35735 0.34233 0.0
C1180 C 0.2043 0.35696 0.32685 0.0
C1181 C 0.20986 0.3349 0.32064 0.0
C1182 C 0.20153 0.3142 0.33032 0.0
C1183 C 0.21088 0.29316 0.32148 0.0
C1184 C 0.2241 0.28628 0.34211 0.0
C1185 C 0.19272 0.27063 0.30787 0.0
C1186 C 0.22559 0.3052 0.30498 0.0
C1187 C 0.22432 0.32904 0.30438 0.0
C1188 C 0.23607 0.34378 0.29016 0.0
C1189 C 0.25093 0.33465 0.27769 0.0
C1190 C 0.254 0.31124 0.27989 0.0
C1191 C 0.24042 0.29581 0.2927 0.0
H1192 H 0.98859 0.10116 0.19189 0.0
H1193 H 0.99137 0.0297 0.20774 0.0
H1194 H 1.00979 0.02263 0.17249 0.0
H1195 H 0.98087 0.08625 0.12725 0.0
H1196 H 0.99963 0.11431 0.12274 0.0
H1197 H 0.98602 0.11417 0.14888 0.0
H1198 H 0.02363 0.13085 0.17553 0.0
H1199 H 0.03731 0.1312 0.14944 0.0
H1200 H 0.04438 0.11453 0.17204 0.0
H1201 H 0.02668 0.02158 0.13286 0.0
H1202 H 0.04453 0.02935 0.09729 0.0
H1203 H 0.03597 0.10298 0.10702 0.0
C1204 C 0.9929 0.08391 0.18791 0.0
C1205 C 0.98766 0.06572 0.20312 0.0
C1206 C 0.99458 0.04395 0.19691 0.0
C1207 C 1.00518 0.03969 0.17659 0.0
C1208 C 1.00978 0.05755 0.16199 0.0
C1209 C 1.00439 0.07961 0.16772 0.0
C1210 C 1.01281 0.09632 0.14966 0.0
C1211 C 0.99369 0.10318 0.13635 0.0
C1212 C 0.03058 0.11961 0.16243 0.0
C1213 C 0.0228 0.0799 0.13247 0.0
C1214 C 0.02067 0.05751 0.13998 0.0
C1215 C 0.02819 0.03909 0.12699 0.0
C1216 C 0.03815 0.04351 0.10627 0.0
C1217 C 0.04113 0.06626 0.09791 0.0
C1218 C 0.03345 0.08488 0.11185 0.0
H1219 H 0.26721 0.69535 0.48204 0.0
H1220 H 0.32973 0.68543 0.4646 0.0
H1221 H 0.32455 0.70213 0.42794 0.0
H1222 H 0.24088 0.68351 0.41322 0.0
H1223 H 0.22504 0.70505 0.42068 0.0
H1224 H 0.22992 0.68506 0.44103 0.0
H1225 H 0.2457 0.72354 0.47386 0.0
H1226 H 0.24204 0.74382 0.45353 0.0
H1227 H 0.26891 0.74764 0.46952 0.0
H1228 H 0.32147 0.73462 0.40754 0.0
H1229 H 0.31198 0.76648 0.38756 0.0
H1230 H 0.24773 0.75044 0.4112 0.0
C1231 C 0.27923 0.69588 0.46981 0.0
C1232 C 0.29914 0.69009 0.47587 0.0
C1233 C 0.31462 0.69031 0.45996 0.0
C1234 C 0.3117 0.69952 0.43916 0.0
C1235 C 0.2928 0.70719 0.4345 0.0
C1236 C 0.27602 0.70403 0.44839 0.0
C1237 C 0.25843 0.71597 0.44015 0.0
C1238 C 0.23733 0.69622 0.42804 0.0
C1239 C 0.25353 0.7338 0.46049 0.0
C1240 C 0.2699 0.7296 0.42224 0.0
C1241 C 0.28963 0.72406 0.41939 0.0
C1242 C 0.30539 0.73778 0.40797 0.0
C1243 C 0.30009 0.75618 0.39726 0.0
C1244 C 0.27891 0.75994 0.39729 0.0
C1245 C 0.2638 0.74724 0.41057 0.0
H1246 H 0.64004 0.07681 0.70786 0.0
H1247 H 0.68839 0.04501 0.67683 0.0
H1248 H 0.66992 0.04412 0.63658 0.0
H1249 H 0.59603 0.04266 0.67436 0.0
H1250 H 0.58131 0.06534 0.67013 0.0
H1251 H 0.60122 0.07056 0.69605 0.0
H1252 H 0.62279 0.11208 0.68609 0.0
H1253 H 0.60249 0.10763 0.66047 0.0
H1254 H 0.63118 0.11315 0.65707 0.0
H1255 H 0.64036 0.03265 0.60442 0.0
H1256 H 0.60638 0.0236 0.57624 0.0
H1257 H 0.579 0.06785 0.62651 0.0
C1258 C 0.64684 0.07014 0.69241 0.0
C1259 C 0.66478 0.06001 0.69466 0.0
C1260 C 0.67411 0.05209 0.67479 0.0
C1261 C 0.66397 0.05189 0.65214 0.0
C1262 C 0.64527 0.06049 0.65035 0.0
C1263 C 0.63726 0.07047 0.66989 0.0
C1264 C 0.61557 0.07586 0.66323 0.0
C1265 C 0.59749 0.06281 0.67675 0.0
C1266 C 0.61818 0.10384 0.66691 0.0
C1267 C 0.61146 0.06461 0.6373 0.0
C1268 C 0.62886 0.05606 0.63032 0.0
C1269 C 0.62722 0.04069 0.60878 0.0
C1270 C 0.6078 0.03528 0.59322 0.0
C1271 C 0.59076 0.04571 0.59928 0.0
C1272 C 0.59222 0.06006 0.62165 0.0
H1273 H 0.33701 0.38217 0.95695 0.0
H1274 H 0.3332 0.31297 0.98175 0.0
H1275 H 0.32917 0.29145 0.94024 0.0
H1276 H 0.29909 0.35811 0.90142 0.0
H1277 H 0.31575 0.37847 0.88492 0.0
H1278 H 0.31629 0.38789 0.91635 0.0
H1279 H 0.35863 0.39556 0.92236 0.0
H1280 H 0.35813 0.38569 0.89099 0.0
H1281 H 0.37036 0.37081 0.91216 0.0
H1282 H 0.32828 0.27789 0.8964 0.0
H1283 H 0.32798 0.27282 0.85274 0.0
H1284 H 0.33248 0.35056 0.8559 0.0
C1285 C 0.33479 0.36239 0.95352 0.0
C1286 C 0.33513 0.34911 0.9725 0.0
C1287 C 0.33288 0.32341 0.96743 0.0
C1288 C 0.33063 0.31106 0.94393 0.0
C1289 C 0.33101 0.32474 0.92564 0.0
C1290 C 0.33295 0.34983 0.9301 0.0
C1291 C 0.33426 0.36039 0.90728 0.0
C1292 C 0.3152 0.37188 0.9022 0.0
C1293 C 0.35667 0.37923 0.90826 0.0
C1294 C 0.33214 0.33721 0.88929 0.0
C1295 C 0.33061 0.31692 0.90032 0.0
C1296 C 0.32936 0.29363 0.88757 0.0
C1297 C 0.32937 0.29092 0.86286 0.0
C1298 C 0.33034 0.3113 0.85118 0.0
C1299 C 0.33175 0.33472 0.86455 0.0
H1300 H 1.00035 0.02743 0.34577 0.0
H1301 H 1.01471 0.10647 0.34794 0.0
H1302 H 0.03327 0.11364 0.38927 0.0
H1303 H 0.9882 0.0309 0.40727 0.0
H1304 H 0.99922 1.00568 0.41289 0.0
H1305 H 0.98785 1.0066 0.38315 0.0
H1306 H 0.0244 1.0035 0.36824 0.0
H1307 H 0.03587 1.00263 0.39795 0.0
H1308 H 0.04977 0.02573 0.38209 0.0
H1309 H 0.05047 0.1125 0.43105 0.0
H1310 H 0.06335 0.10357 0.46971 0.0
H1311 H 0.03735 0.02497 0.44282 0.0
C1312 C 1.00763 0.04627 0.35485 0.0
C1313 C 1.00622 0.06643 0.34308 0.0
C1314 C 1.01554 0.09068 0.35614 0.0
C1315 C 0.02619 0.09493 0.37978 0.0
C1316 C 0.02721 0.07478 0.39082 0.0
C1317 C 0.01795 0.05087 0.37888 0.0
C1318 C 0.02032 0.03259 0.39551 0.0
C1319 C 0.99754 1.01807 0.39996 0.0
C1320 C 0.03337 1.01507 0.38534 0.0
C1321 C 0.0331 0.04984 0.41831 0.0
C1322 C 0.03668 0.07412 0.41514 0.0
C1323 C 0.04765 0.09352 0.43359 0.0
C1324 C 0.05494 0.08817 0.45572 0.0
C1325 C 0.05158 0.06351 0.45988 0.0
C1326 C 0.04052 0.04406 0.44055 0.0
H1327 H 0.32571 0.72826 0.59205 0.0
H1328 H 0.30446 0.65964 0.61888 0.0
H1329 H 0.29017 0.68113 0.65119 0.0
H1330 H 0.34663 0.76579 0.64493 0.0
H1331 H 0.33741 0.7921 0.63891 0.0
H1332 H 0.3416 0.77065 0.61479 0.0
H1333 H 0.30144 0.76409 0.5953 0.0
H1334 H 0.29714 0.78537 0.61976 0.0
H1335 H 0.27908 0.75451 0.61197 0.0
H1336 H 0.28464 0.70877 0.68291 0.0
H1337 H 0.29339 0.74218 0.71631 0.0
H1338 H 0.31556 0.79538 0.671 0.0
C1339 C 0.31817 0.71784 0.60485 0.0
C1340 C 0.31631 0.69228 0.60306 0.0
C1341 C 0.30621 0.67924 0.62 0.0
C1342 C 0.29758 0.69117 0.6381 0.0
C1343 C 0.29914 0.71614 0.63903 0.0
C1344 C 0.30941 0.72953 0.62314 0.0
C1345 C 0.31168 0.7569 0.63048 0.0
C1346 C 0.33576 0.77225 0.63242 0.0
C1347 C 0.29643 0.76573 0.61335 0.0
C1348 C 0.30364 0.75691 0.65447 0.0
C1349 C 0.29526 0.73296 0.65815 0.0
C1350 C 0.29007 0.7276 0.67997 0.0
C1351 C 0.29476 0.74697 0.69897 0.0
C1352 C 0.30391 0.77159 0.69607 0.0
C1353 C 0.30765 0.77681 0.67337 0.0
H1354 H 0.67501 0.10945 0.83156 0.0
H1355 H 0.63642 0.03298 0.81853 0.0
H1356 H 0.62621 0.03834 0.85892 0.0
H1357 H 0.69144 0.11538 0.89938 0.0
H1358 H 0.68842 0.14633 0.90446 0.0
H1359 H 0.69795 0.13498 0.8776 0.0
H1360 H 0.66673 0.14618 0.85309 0.0
H1361 H 0.65648 0.15665 0.87967 0.0
H1362 H 0.63854 0.13296 0.85686 0.0
H1363 H 0.61166 0.05384 0.8921 0.0
H1364 H 0.59926 0.07656 0.9249 0.0
H1365 H 0.64855 0.14384 0.92028 0.0
C1366 C 0.66526 0.09372 0.83791 0.0
C1367 C 0.65643 0.07077 0.82271 0.0
C1368 C 0.64321 0.05049 0.83048 0.0
C1369 C 0.63751 0.05342 0.85326 0.0
C1370 C 0.64529 0.07669 0.86754 0.0
C1371 C 0.65936 0.09646 0.86063 0.0
C1372 C 0.66265 0.12023 0.8782 0.0
C1373 C 0.68653 0.12977 0.89066 0.0
C1374 C 0.65567 0.14016 0.86622 0.0
C1375 C 0.64701 0.11086 0.89514 0.0
C1376 C 0.6373 0.08571 0.88838 0.0
C1377 C 0.61984 0.07321 0.89841 0.0
C1378 C 0.61269 0.08639 0.91671 0.0
C1379 C 0.62331 0.11175 0.92517 0.0
C1380 C 0.64057 0.12436 0.91423 0.0
H1381 H 0.31522 0.33597 0.0938 0.0
H1382 H 0.35533 0.40855 0.12883 0.0
H1383 H 0.3529 0.39553 0.16773 0.0
H1384 H 0.27843 0.32851 0.13837 0.0
H1385 H 0.27533 0.29588 0.13671 0.0
H1386 H 0.2811 0.31 0.11109 0.0
H1387 H 0.3153 0.29329 0.10869 0.0
H1388 H 0.30961 0.27913 0.13432 0.0
H1389 H 0.33608 0.30034 0.13431 0.0
H1390 H 0.34746 0.37483 0.20295 0.0
H1391 H 0.33642 0.34845 0.23251 0.0
H1392 H 0.29679 0.29028 0.17671 0.0
C1393 C 0.32365 0.34895 0.10968 0.0
C1394 C 0.33569 0.3733 0.10819 0.0
C1395 C 0.34608 0.38987 0.12945 0.0
C1396 C 0.34484 0.38262 0.15169 0.0
C1397 C 0.3328 0.35873 0.15268 0.0
C1398 C 0.32214 0.34214 0.13234 0.0
C1399 C 0.3094 0.31799 0.13889 0.0
C1400 C 0.28459 0.3128 0.13078 0.0
C1401 C 0.31812 0.29641 0.12843 0.0
C1402 C 0.31464 0.32375 0.16594 0.0
C1403 C 0.3284 0.34727 0.17338 0.0
C1404 C 0.33624 0.35658 0.19736 0.0
C1405 C 0.32965 0.34163 0.21423 0.0
C1406 C 0.31501 0.31781 0.20737 0.0
C1407 C 0.3076 0.30871 0.18273 0.0
H1408 H 0.26153 0.96342 0.04372 0.0
H1409 H 0.29536 1.01928 1.00621 0.0
H1410 H 0.27017 0.04467 0.01699 0.0
H1411 H 0.20724 0.96687 0.02807 0.0
H1412 H 0.19876 0.96351 0.05676 0.0
H1413 H 0.22006 0.9503 0.04704 0.0
H1414 H 0.24642 0.97436 0.08498 0.0
H1415 H 0.2252 0.98768 0.09491 0.0
H1416 H 0.25164 1.00744 0.09218 0.0
H1417 H 0.24201 0.06302 0.03046 0.0
H1418 H 0.20953 0.07364 0.04437 0.0
H1419 H 0.19273 1.00596 0.07322 0.0
C1420 C 0.26322 0.98085 0.03757 0.0
C1421 C 0.27967 0.98947 0.02371 0.0
C1422 C 0.28232 1.01249 0.0164 0.0
C1423 C 0.26834 0.02701 0.02265 0.0
C1424 C 0.25222 1.01816 0.03643 0.0
C1425 C 0.24948 0.99566 0.04382 0.0
C1426 C 0.23055 0.99053 0.0582 0.0
C1427 C 0.21311 0.96638 0.04682 0.0
C1428 C 0.23896 0.98998 0.0841 0.0
C1429 C 0.22228 1.01309 0.05645 0.0
C1430 C 0.23556 0.02898 0.04438 0.0
C1431 C 0.23152 0.05094 0.04008 0.0
C1432 C 0.21315 0.05679 0.04801 0.0
C1433 C 0.19904 0.04065 0.05983 0.0
C1434 C 0.20357 1.01857 0.06434 0.0
H1435 H 0.72216 0.67823 0.02504 0.0
H1436 H 0.75507 0.62409 0.99723 0.0
H1437 H 0.72184 0.59069 0.99761 0.0
H1438 H 0.69361 0.64027 0.06476 0.0
H1439 H 0.66894 0.65034 0.06101 0.0
H1440 H 0.69508 0.67057 0.05801 0.0
H1441 H 0.67946 0.67487 0.0162 0.0
H1442 H 0.65322 0.65467 0.01889 0.0
H1443 H 0.66729 0.64759 0.99405 0.0
H1444 H 0.68669 0.56312 1.00177 0.0
H1445 H 0.65005 0.5413 1.00849 0.0
H1446 H 0.63693 0.61129 0.03428 0.0
C1447 C 0.72214 0.65934 0.01863 0.0
C1448 C 0.74123 0.65385 1.01068 0.0
C1449 C 0.74074 0.62885 1.00317 0.0
C1450 C 0.72189 0.6097 1.00338 0.0
C1451 C 0.70352 0.6156 1.01145 0.0
C1452 C 0.70335 0.63971 0.01908 0.0
C1453 C 0.68138 0.64035 0.02776 0.0
C1454 C 0.68497 0.65102 0.05447 0.0
C1455 C 0.66962 0.65524 0.01336 0.0
C1456 C 0.66904 0.61282 0.023 0.0
C1457 C 0.68255 0.59917 0.01388 0.0
C1458 C 0.67588 0.57355 1.0087 0.0
C1459 C 0.65485 0.56129 1.01266 0.0
C1460 C 0.6402 0.57431 0.02176 0.0
C1461 C 0.64752 0.60066 0.02713 0.0
H1462 H 0.74755 0.45555 0.30012 0.0
H1463 H 0.72412 0.4454 0.22502 0.0
H1464 H 0.73795 0.40841 0.21783 0.0
H1465 H 0.79864 0.43763 0.29125 0.0
H1466 H 0.79889 0.42242 0.31666 0.0
H1467 H 0.78607 0.44733 0.31647 0.0
H1468 H 0.74986 0.41895 0.32473 0.0
H1469 H 0.76261 0.39399 0.32491 0.0
H1470 H 0.73757 0.3898 0.30517 0.0
H1471 H 0.75407 0.36976 0.21853 0.0
H1472 H 0.77345 0.33834 0.22642 0.0
H1473 H 0.79069 0.3738 0.30024 0.0
C1474 C 0.74518 0.44556 0.28211 0.0
C1475 C 0.73414 0.45416 0.26318 0.0
C1476 C 0.73218 0.44001 0.24005 0.0
C1477 C 0.74007 0.41857 0.23575 0.0
C1478 C 0.75079 0.41076 0.25455 0.0
C1479 C 0.7537 0.42415 0.27732 0.0
C1480 C 0.76699 0.4124 0.29411 0.0
C1481 C 0.78895 0.43106 0.3053 0.0
C1482 C 0.75345 0.40325 0.31339 0.0
C1483 C 0.77093 0.39037 0.27745 0.0
C1484 C 0.76108 0.38961 0.2547 0.0
C1485 C 0.76188 0.37063 0.23635 0.0
C1486 C 0.77301 0.35251 0.24104 0.0
C1487 C 0.78391 0.35278 0.26395 0.0
C1488 C 0.78267 0.37242 0.2824 0.0
H1489 H 0.90664 0.46305 0.49139 0.0
H1490 H 0.88492 0.49341 0.55553 0.0
H1491 H 0.92339 0.51618 0.57199 0.0
H1492 H 0.95819 0.45636 0.51944 0.0
H1493 H 0.97295 0.46534 0.49546 0.0
H1494 H 0.94388 0.45026 0.4896 0.0
H1495 H 0.93743 0.48684 0.47027 0.0
H1496 H 0.96642 0.50215 0.47634 0.0
H1497 H 0.94692 0.5178 0.48712 0.0
H1498 H 0.96351 0.53561 0.58096 0.0
H1499 H 1.00342 0.55244 0.58137 0.0
H1500 H 0.99839 0.51062 0.51043 0.0
C1501 C 0.91017 0.47463 0.5088 0.0
C1502 C 0.89335 0.47714 0.52224 0.0
C1503 C 0.89802 0.49198 0.54506 0.0
C1504 C 0.91966 0.50469 0.55454 0.0
C1505 C 0.93607 0.50221 0.54077 0.0
C1506 C 0.93163 0.48767 0.51839 0.0
C1507 C 0.95217 0.48907 0.50691 0.0
C1508 C 0.95708 0.46375 0.50261 0.0
C1509 C 0.95064 0.4996 0.4838 0.0
C1510 C 0.96874 0.5069 0.5262 0.0
C1511 C 0.95919 0.51398 0.54572 0.0
C1512 C 0.97126 0.53024 0.56582 0.0
C1513 C 0.99383 0.53961 0.56589 0.0
C1514 C 1.00376 0.53275 0.54587 0.0
C1515 C 0.99109 0.51622 0.52587 0.0
H1516 H 0.39378 0.0674 0.26148 0.0
H1517 H 0.40928 0.0985 0.33675 0.0
H1518 H 0.39517 0.13362 0.32951 0.0
H1519 H 0.40935 0.12863 0.24249 0.0
H1520 H 0.3882 0.12001 0.21714 0.0
H1521 H 0.40009 0.09702 0.22724 0.0
H1522 H 0.36138 0.0704 0.23105 0.0
H1523 H 0.34946 0.0932 0.22071 0.0
H1524 H 0.34393 0.08387 0.24869 0.0
H1525 H 0.37887 0.16322 0.31609 0.0
H1526 H 0.3581 0.18731 0.29682 0.0
H1527 H 0.35308 0.13988 0.22871 0.0
C1528 C 0.39367 0.08143 0.27639 0.0
C1529 C 0.4021 0.08023 0.29984 0.0
C1530 C 0.40255 0.09911 0.31885 0.0
C1531 C 0.39483 0.11917 0.31485 0.0
C1532 C 0.38706 0.1202 0.29166 0.0
C1533 C 0.38631 0.10201 0.27261 0.0
C1534 C 0.37695 0.10828 0.24957 0.0
C1535 C 0.39471 0.11381 0.23315 0.0
C1536 C 0.35672 0.08771 0.23677 0.0
C1537 C 0.37086 0.13165 0.25928 0.0
C1538 C 0.37771 0.13837 0.28348 0.0
C1539 C 0.3737 0.15852 0.2971 0.0
C1540 C 0.36195 0.17215 0.28589 0.0
C1541 C 0.35437 0.16573 0.26119 0.0
C1542 C 0.35892 0.14524 0.24757 0.0
H1543 H 0.35183 0.12635 0.53515 0.0
H1544 H 0.38193 0.20073 0.52459 0.0
H1545 H 0.41889 0.1947 0.53437 0.0
H1546 H 0.39163 0.12306 0.58316 0.0
H1547 H 0.39111 0.09156 0.57201 0.0
H1548 H 0.36707 0.10221 0.56574 0.0
H1549 H 0.36653 0.08864 0.52046 0.0
H1550 H 0.39028 0.07757 0.52674 0.0
H1551 H 0.39095 0.09976 0.50722 0.0
H1552 H 0.45291 0.17984 0.54455 0.0
H1553 H 0.48034 0.15616 0.55 0.0
H1554 H 0.42767 0.09113 0.5521 0.0
C1555 C 0.36621 0.14135 0.53489 0.0
C1556 C 0.36401 0.16397 0.529 0.0
C1557 C 0.38323 0.18311 0.52871 0.0
C1558 C 0.4043 0.17994 0.5345 0.0
C1559 C 0.40592 0.15738 0.54022 0.0
C1560 C 0.38735 0.13829 0.54008 0.0
C1561 C 0.39351 0.11523 0.54501 0.0
C1562 C 0.38534 0.10758 0.56784 0.0
C1563 C 0.3848 0.09405 0.52358 0.0
C1564 C 0.41838 0.12431 0.54811 0.0
C1565 C 0.4253 0.14873 0.5455 0.0
C1566 C 0.4476 0.16069 0.54658 0.0
C1567 C 0.46308 0.14708 0.54962 0.0
C1568 C 0.45621 0.12176 0.55149 0.0
C1569 C 0.43356 0.11055 0.55122 0.0
H1570 H 0.73212 0.62224 0.31977 0.0
H1571 H 0.74025 0.58524 0.25103 0.0
H1572 H 0.7583 0.62556 0.24097 0.0
H1573 H 0.72305 0.67814 0.30133 0.0
H1574 H 0.73918 0.69907 0.32722 0.0
H1575 H 0.72601 0.6675 0.32922 0.0
H1576 H 0.76338 0.66154 0.34533 0.0
H1577 H 0.77661 0.69317 0.3437 0.0
H1578 H 0.7862 0.66854 0.32873 0.0
H1579 H 0.77486 0.67113 0.23718 0.0
H1580 H 0.79364 0.71563 0.24253 0.0
H1581 H 0.77923 0.7254 0.31489 0.0
C1582 C 0.73788 0.62251 0.30266 0.0
C1583 C 0.73456 0.59969 0.28634 0.0
C1584 C 0.74256 0.60171 0.2642 0.0
C1585 C 0.75276 0.62487 0.25816 0.0
C1586 C 0.75562 0.64675 0.27442 0.0
C1587 C 0.74887 0.64577 0.29651 0.0
C1588 C 0.75528 0.67219 0.31116 0.0
C1589 C 0.73465 0.67966 0.31763 0.0
C1590 C 0.77132 0.67397 0.33357 0.0
C1591 C 0.7666 0.68811 0.29394 0.0
C1592 C 0.7661 0.67291 0.27265 0.0
C1593 C 0.77523 0.68298 0.25386 0.0
C1594 C 0.78572 0.70866 0.25697 0.0
C1595 C 0.78752 0.72502 0.27876 0.0
C1596 C 0.77757 0.71417 0.29755 0.0
H1597 H 0.93132 0.47534 0.77249 0.0
H1598 H 0.95506 0.48031 0.84677 0.0
H1599 H 0.92584 0.44296 0.84844 0.0
H1600 H 0.87927 0.46305 0.77638 0.0
H1601 H 0.86775 0.44025 0.74997 0.0
H1602 H 0.89386 0.46234 0.75095 0.0
H1603 H 0.91316 0.42769 0.74129 0.0
H1604 H 0.88672 0.40554 0.73839 0.0
H1605 H 0.90949 0.40299 0.75825 0.0
H1606 H 0.88907 0.41692 0.84605 0.0
H1607 H 0.85343 0.38631 0.83524 0.0
H1608 H 0.85393 0.39506 0.76129 0.0
C1609 C 0.93124 0.46729 0.78847 0.0
C1610 C 0.94528 0.47991 0.80944 0.0
C1611 C 0.94453 0.47014 0.83056 0.0
C1612 C 0.92789 0.44926 0.8317 0.0
C1613 C 0.91273 0.43865 0.81142 0.0
C1614 C 0.91484 0.44624 0.78975 0.0
C1615 C 0.89506 0.43281 0.77137 0.0
C1616 C 0.88332 0.45071 0.76162 0.0
C1617 C 0.9015 0.41626 0.75115 0.0
C1618 C 0.88119 0.41773 0.78665 0.0
C1619 C 0.89153 0.42196 0.80974 0.0
C1620 C 0.88119 0.41235 0.82779 0.0
C1621 C 0.86068 0.39544 0.8215 0.0
C1622 C 0.85158 0.38769 0.79724 0.0
C1623 C 0.86097 0.40034 0.77987 0.0
H1624 H 0.11388 0.89284 0.06204 0.0
H1625 H 0.07785 0.89053 0.12264 0.0
H1626 H 0.0656 0.92641 0.11381 0.0
H1627 H 0.13279 0.95851 0.06779 0.0
H1628 H 0.12879 0.95889 0.03637 0.0
H1629 H 0.13436 0.93237 0.04672 0.0
H1630 H 0.09876 0.90421 0.02076 0.0
H1631 H 0.09306 0.93071 1.0104 0.0
H1632 H 0.07286 0.91101 0.02413 0.0
H1633 H 0.0561 0.96132 0.09821 0.0
H1634 H 0.05255 0.99611 0.07853 0.0
H1635 H 0.0965 0.97901 0.02952 0.0
C1636 C 0.10341 0.89989 0.07343 0.0
C1637 C 0.09678 0.88872 0.09304 0.0
C1638 C 0.08305 0.89855 0.10746 0.0
C1639 C 0.07597 0.91896 0.10258 0.0
C1640 C 0.08265 0.92942 0.08313 0.0
C1641 C 0.09611 0.92038 0.06878 0.0
C1642 C 0.10086 0.93541 0.04907 0.0
C1643 C 0.12568 0.94698 0.05007 0.0
C1644 C 0.0908 0.91938 0.02464 0.0
C1645 C 0.08881 0.95494 0.05535 0.0
C1646 C 0.07793 0.95056 0.07467 0.0
C1647 C 0.06476 0.96512 0.08327 0.0
C1648 C 0.06289 0.9849 0.07206 0.0
C1649 C 0.07456 0.99049 0.05297 0.0
C1650 C 0.08764 0.97525 0.04435 0.0
H1651 H 0.95273 0.25452 0.87092 0.0
H1652 H 0.98787 0.32992 0.9026 0.0
H1653 H 0.95779 0.34468 0.88441 0.0
H1654 H 0.93012 0.26728 0.81524 0.0
H1655 H 0.90391 0.24489 0.81333 0.0
H1656 H 0.92817 0.24037 0.82895 0.0
H1657 H 0.90877 0.23689 0.86641 0.0
H1658 H 0.88456 0.24185 0.85099 0.0
H1659 H 0.8979 0.26166 0.87867 0.0
H1660 H 0.92335 0.35159 0.86266 0.0
H1661 H 0.88983 0.3502 0.83592 0.0
H1662 H 0.8764 0.27077 0.81752 0.0
C1663 C 0.95415 0.27414 0.87377 0.0
C1664 C 0.97292 0.29112 0.88807 0.0
C1665 C 0.97383 0.31658 0.89165 0.0
C1666 C 0.9567 0.32514 0.88146 0.0
C1667 C 0.93829 0.30806 0.86779 0.0
C1668 C 0.93695 0.28307 0.86377 0.0
C1669 C 0.91532 0.26872 0.84817 0.0
C1670 C 0.91964 0.25448 0.82504 0.0
C1671 C 0.90078 0.25123 0.86187 0.0
C1672 C 0.90513 0.28952 0.84342 0.0
C1673 C 0.91846 0.31204 0.85537 0.0
C1674 C 0.91271 0.33397 0.85351 0.0
C1675 C 0.89335 0.33301 0.83854 0.0
C1676 C 0.87975 0.31032 0.82536 0.0
C1677 C 0.8858 0.28831 0.82814 0.0
H1678 H 0.61892 0.2393 0.62059 0.0
H1679 H 0.5878 0.26237 0.56067 0.0
H1680 H 0.57898 0.21947 0.53802 0.0
H1681 H 0.64358 0.19689 0.58689 0.0
H1682 H 0.63885 0.17535 0.6072 0.0
H1683 H 0.643 0.20782 0.61785 0.0
H1684 H 0.60592 0.19823 0.63479 0.0
H1685 H 0.60165 0.16577 0.62414 0.0
H1686 H 0.58114 0.18085 0.61534 0.0
H1687 H 0.56907 0.17285 0.52502 0.0
H1688 H 0.56405 0.12776 0.51963 0.0
H1689 H 0.60618 0.13693 0.58612 0.0
C1690 C 0.6105 0.23538 0.60255 0.0
C1691 C 0.60393 0.2539 0.59226 0.0
C1692 C 0.59304 0.24832 0.56868 0.0
C1693 C 0.5879 0.22406 0.55583 0.0
C1694 C 0.59425 0.20606 0.5668 0.0
C1695 C 0.60571 0.21162 0.58947 0.0
C1696 C 0.61057 0.18914 0.5975 0.0
C1697 C 0.63548 0.1925 0.60265 0.0
C1698 C 0.59914 0.18315 0.61922 0.0
C1699 C 0.60019 0.16987 0.5757 0.0
C1700 C 0.59035 0.17984 0.55843 0.0
C1701 C 0.57739 0.16503 0.53799 0.0
C1702 C 0.5747 0.13949 0.53503 0.0
C1703 C 0.58557 0.12922 0.55194 0.0
C1704 C 0.59848 0.14458 0.5725 0.0
H1705 H 0.58994 0.76222 0.37602 0.0
H1706 H 0.5904 0.83848 0.39863 0.0
H1707 H 0.62791 0.85236 0.38796 0.0
H1708 H 0.64744 0.76863 0.39478 0.0
H1709 H 0.65061 0.74804 0.36917 0.0
H1710 H 0.62423 0.74393 0.37955 0.0
H1711 H 0.60624 0.74675 0.3379 0.0
H1712 H 0.63251 0.75048 0.32738 0.0
H1713 H 0.61749 0.77315 0.32454 0.0
H1714 H 0.66591 0.85781 0.37572 0.0
H1715 H 0.69909 0.85493 0.35765 0.0
H1716 H 0.6727 0.77522 0.33959 0.0
C1717 C 0.59785 0.78182 0.3783 0.0
C1718 C 0.58715 0.79935 0.38763 0.0
C1719 C 0.59813 0.82483 0.39087 0.0
C1720 C 0.61954 0.83285 0.38516 0.0
C1721 C 0.6297 0.81515 0.37597 0.0
C1722 C 0.61907 0.79018 0.37213 0.0
C1723 C 0.63321 0.7751 0.36074 0.0
C1724 C 0.63922 0.75791 0.37704 0.0
C1725 C 0.62168 0.76051 0.33618 0.0
C1726 C 0.65332 0.79544 0.35861 0.0
C1727 C 0.65115 0.81837 0.36795 0.0
C1728 C 0.66762 0.83995 0.36806 0.0
C1729 C 0.6864 0.83811 0.35759 0.0
C1730 C 0.68854 0.81489 0.34674 0.0
C1731 C 0.67185 0.79328 0.34782 0.0
H1732 H 0.09413 0.27303 0.41337 0.0
H1733 H 0.14741 0.31877 0.46702 0.0
H1734 H 0.13706 0.28918 0.49421 0.0
H1735 H 0.05537 0.25497 0.4555 0.0
H1736 H 0.04374 0.22444 0.43823 0.0
H1737 H 0.05449 0.25005 0.42367 0.0
H1738 H 0.08001 0.22636 0.4042 0.0
H1739 H 0.06948 0.2008 0.41879 0.0
H1740 H 0.09866 0.21533 0.42271 0.0
H1741 H 0.12286 0.2546 0.5141 0.0
H1742 H 0.10561 0.21538 0.52654 0.0
H1743 H 0.06116 0.19177 0.46017 0.0
C1744 C 0.10372 0.27678 0.43081 0.0
C1745 C 0.12179 0.29791 0.43812 0.0
C1746 C 0.13364 0.30253 0.46116 0.0
C1747 C 0.12779 0.28598 0.47668 0.0
C1748 C 0.1099 0.26534 0.46887 0.0
C1749 C 0.09793 0.2607 0.44657 0.0
C1750 C 0.07973 0.23682 0.44243 0.0
C1751 C 0.05699 0.24188 0.43981 0.0
C1752 C 0.08214 0.21876 0.42076 0.0
C1753 C 0.08427 0.22798 0.46549 0.0
C1754 C 0.10142 0.24511 0.4806 0.0
C1755 C 0.10927 0.24116 0.50266 0.0
C1756 C 0.09945 0.21896 0.50952 0.0
C1757 C 0.08219 0.20109 0.49428 0.0
C1758 C 0.07427 0.2055 0.47205 0.0
H1759 H 0.57561 0.2588 0.23154 0.0
H1760 H 0.58392 0.27107 0.15955 0.0
H1761 H 0.62294 0.27315 0.16749 0.0
H1762 H 0.62963 0.30002 0.25952 0.0
H1763 H 0.63362 0.28009 0.28027 0.0
H1764 H 0.60622 0.28103 0.26967 0.0
H1765 H 0.59503 0.23364 0.25538 0.0
H1766 H 0.62239 0.23249 0.26573 0.0
H1767 H 0.61062 0.22021 0.23519 0.0
H1768 H 0.65902 0.26934 0.18075 0.0
H1769 H 0.69309 0.26435 0.20078 0.0
H1770 H 0.66326 0.25767 0.26543 0.0
C1771 C 0.58577 0.26244 0.21767 0.0
C1772 C 0.57678 0.26468 0.19496 0.0
C1773 C 0.59047 0.26922 0.17711 0.0
C1774 C 0.61266 0.27044 0.18138 0.0
C1775 C 0.62091 0.26745 0.20366 0.0
C1776 C 0.60813 0.26394 0.22168 0.0
C1777 C 0.62131 0.26071 0.24378 0.0
C1778 C 0.62279 0.28172 0.26454 0.0
C1779 C 0.61176 0.23524 0.25039 0.0
C1780 C 0.64331 0.26252 0.23504 0.0
C1781 C 0.64253 0.26629 0.21181 0.0
C1782 C 0.66017 0.26707 0.19916 0.0
C1783 C 0.67945 0.26434 0.21075 0.0
C1784 C 0.68096 0.26121 0.23482 0.0
C1785 C 0.66259 0.26016 0.24707 0.0
H1786 H 0.60723 0.93341 0.92013 0.0
H1787 H 0.64357 0.90411 0.97163 0.0
H1788 H 0.63501 0.93186 1.00401 0.0
H1789 H 0.6221 0.9984 0.95424 0.0
H1790 H 0.59521 1.0021 0.94564 0.0
H1791 H 0.6066 0.98247 0.92588 0.0
H1792 H 0.57201 0.94612 0.92434 0.0
H1793 H 0.56064 0.96549 0.94428 0.0
H1794 H 0.56412 0.93683 0.95165 0.0
H1795 H 0.61891 0.95667 0.03016 0.0
H1796 H 0.5984 0.98186 0.05089 0.0
H1797 H 0.57262 0.99805 0.98387 0.0
C1798 C 0.61396 0.93345 0.93819 0.0
C1799 C 0.62617 0.91672 0.94344 0.0
C1800 C 0.63428 0.91683 0.96725 0.0
C1801 C 0.62953 0.93253 0.98575 0.0
C1802 C 0.61687 0.94812 0.98006 0.0
C1803 C 0.60939 0.94911 0.95698 0.0
C1804 C 0.59478 0.96655 0.95623 0.0
C1805 C 0.60531 0.9887 0.94482 0.0
C1806 C 0.57152 0.95292 0.94337 0.0
C1807 C 0.59464 0.97438 0.98259 0.0
C1808 C 0.60763 0.96343 0.99575 0.0
C1809 C 0.60908 0.96583 0.02019 0.0
C1810 C 0.59712 0.98005 0.03173 0.0
C1811 C 0.58396 0.99196 0.01892 0.0
C1812 C 0.58276 0.98932 0.994 0.0
H1813 H 0.95335 0.75398 0.73599 0.0
H1814 H 0.94876 0.7874 0.67291 0.0
H1815 H 0.9169 0.80073 0.68536 0.0
H1816 H 0.89373 0.73277 0.73885 0.0
H1817 H 0.8989 0.73982 0.77088 0.0
H1818 H 0.91915 0.73082 0.75442 0.0
H1819 H 0.94736 0.77137 0.77734 0.0
H1820 H 0.92627 0.78079 0.79206 0.0
H1821 H 0.94224 0.80071 0.77471 0.0
H1822 H 0.88972 0.815 0.70682 0.0
H1823 H 0.86289 0.8232 0.73299 0.0
H1824 H 0.88366 0.77833 0.78076 0.0
C1825 C 0.94546 0.7638 0.72462 0.0
C1826 C 0.95353 0.77005 0.70375 0.0
C1827 C 0.9428 0.7827 0.68914 0.0
C1828 C 0.92478 0.79033 0.69602 0.0
C1829 C 0.91784 0.7848 0.71728 0.0
C1830 C 0.92745 0.77137 0.7311 0.0
C1831 C 0.91731 0.76866 0.75356 0.0
C1832 C 0.90661 0.74138 0.75442 0.0
C1833 C 0.93431 0.78113 0.77571 0.0
C1834 C 0.90043 0.78273 0.75016 0.0
C1835 C 0.90138 0.79228 0.72934 0.0
C1836 C 0.88851 0.80737 0.72299 0.0
C1837 C 0.87365 0.81217 0.73803 0.0
C1838 C 0.8717 0.80145 0.75867 0.0
C1839 C 0.8852 0.7867 0.76501 0.0
H1840 H 0.12601 1.01158 0.8611 0.0
H1841 H 0.15416 0.09013 0.86515 0.0
H1842 H 0.14196 0.09816 0.90439 0.0
H1843 H 0.07684 1.01903 0.8882 0.0
H1844 H 0.07508 0.99343 0.90376 0.0
H1845 H 0.08691 0.99341 0.87646 0.0
H1846 H 0.12229 0.98733 0.89789 0.0
H1847 H 0.11061 0.98755 0.92529 0.0
H1848 H 0.13671 1.00894 0.92419 0.0
H1849 H 0.12827 0.09791 0.94627 0.0
H1850 H 0.10936 0.08984 0.98137 0.0
H1851 H 0.08524 1.01246 0.94957 0.0
C1852 C 0.12971 0.03051 0.87022 0.0
C1853 C 0.14169 0.05021 0.85943 0.0
C1854 C 0.14538 0.07455 0.87241 0.0
C1855 C 0.13848 0.07934 0.89506 0.0
C1856 C 0.12706 0.05976 0.90522 0.0
C1857 C 0.12216 0.03578 0.89286 0.0
C1858 C 0.10824 1.01832 0.90724 0.0
C1859 C 0.08541 1.00527 0.89307 0.0
C1860 C 0.12018 0.99941 0.91405 0.0
C1861 C 0.10641 0.03605 0.92958 0.0
C1862 C 0.11781 0.05986 0.92825 0.0
C1863 C 0.11924 0.07925 0.94717 0.0
C1864 C 0.10857 0.07446 0.96744 0.0
C1865 C 0.09587 0.05046 0.9691 0.0
C1866 C 0.09495 0.03108 0.94949 0.0
H1867 H 0.84917 0.44441 0.59533 0.0
H1868 H 0.81803 0.37368 0.54938 0.0
H1869 H 0.83876 0.35347 0.57452 0.0
H1870 H 0.90334 0.43112 0.61054 0.0
H1871 H 0.90664 0.44716 0.64068 0.0
H1872 H 0.89224 0.45718 0.61703 0.0
H1873 H 0.8582 0.45288 0.63938 0.0
H1874 H 0.87265 0.44333 0.6631 0.0
H1875 H 0.84624 0.42392 0.64844 0.0
H1876 H 0.86124 0.34069 0.60366 0.0
H1877 H 0.87461 0.33295 0.64239 0.0
H1878 H 0.88899 0.41089 0.67188 0.0
C1879 C 0.8466 0.42463 0.59069 0.0
C1880 C 0.83221 0.41063 0.57033 0.0
C1881 C 0.82902 0.38478 0.56491 0.0
C1882 C 0.84112 0.37323 0.57871 0.0
C1883 C 0.85615 0.3878 0.59782 0.0
C1884 C 0.85847 0.41277 0.60431 0.0
C1885 C 0.87341 0.4234 0.62761 0.0
C1886 C 0.89519 0.44074 0.62372 0.0
C1887 C 0.86192 0.43662 0.64571 0.0
C1888 C 0.87711 0.39989 0.63435 0.0
C1889 C 0.8684 0.38001 0.61599 0.0
C1890 C 0.8685 0.35605 0.61807 0.0
C1891 C 0.87633 0.3519 0.64008 0.0
C1892 C 0.88315 0.37151 0.65974 0.0
C1893 C 0.88446 0.39593 0.65675 0.0
H1894 H 0.49143 0.02113 0.38316 0.0
H1895 H 0.50973 0.09912 0.37967 0.0
H1896 H 0.5248 0.10894 0.42225 0.0
H1897 H 0.47966 0.02844 0.44794 0.0
H1898 H 0.49148 1.00374 0.45343 0.0
H1899 H 0.47717 1.0027 0.42445 0.0
H1900 H 0.51144 0.99791 0.40511 0.0
H1901 H 0.5255 0.99839 0.43385 0.0
H1902 H 0.53763 1.02019 0.41582 0.0
H1903 H 0.54581 0.10963 0.45885 0.0
H1904 H 0.57156 0.10115 0.48916 0.0
H1905 H 0.53694 0.02339 0.47316 0.0
C1906 C 0.49799 0.04024 0.39184 0.0
C1907 C 0.49938 0.05961 0.37894 0.0
C1908 C 0.50848 0.08437 0.3899 0.0
C1909 C 0.51677 0.09002 0.41395 0.0
C1910 C 0.51544 0.0706 0.42648 0.0
C1911 C 0.50616 0.04615 0.41593 0.0
C1912 C 0.50997 0.02871 0.43238 0.0
C1913 C 0.48827 1.01511 0.44001 0.0
C1914 C 0.52185 1.01026 0.42111 0.0
C1915 C 0.52456 0.04719 0.45285 0.0
C1916 C 0.52703 0.07127 0.44925 0.0
C1917 C 0.5433 0.09112 0.46268 0.0
C1918 C 0.55789 0.0862 0.4797 0.0
C1919 C 0.55551 0.06185 0.48354 0.0
C1920 C 0.53828 0.04225 0.47076 0.0
H1921 H 0.80681 0.71904 0.10073 0.0
H1922 H 0.81635 0.78897 0.07583 0.0
H1923 H 0.81744 0.81013 0.11719 0.0
H1924 H 0.77046 0.73059 0.14143 0.0
H1925 H 0.78056 0.71449 0.16293 0.0
H1926 H 0.78188 0.70541 0.13185 0.0
H1927 H 0.82392 0.71148 0.14085 0.0
H1928 H 0.82267 0.72013 0.172 0.0
H1929 H 0.84118 0.7406 0.15718 0.0
H1930 H 0.81616 0.82297 0.16166 0.0
H1931 H 0.81419 0.82662 0.20497 0.0
H1932 H 0.80517 0.74784 0.1995 0.0
C1933 C 0.80942 0.73889 0.10389 0.0
C1934 C 0.81161 0.75242 0.08503 0.0
C1935 C 0.81458 0.77827 0.08999 0.0
C1936 C 0.81523 0.79038 0.1134 0.0
C1937 C 0.81259 0.77627 0.13147 0.0
C1938 C 0.80979 0.75107 0.12687 0.0
C1939 C 0.80646 0.73973 0.14896 0.0
C1940 C 0.78348 0.72148 0.14611 0.0
C1941 C 0.82465 0.72727 0.15511 0.0
C1942 C 0.80827 0.76256 0.16702 0.0
C1943 C 0.81159 0.78347 0.15662 0.0
C1944 C 0.81348 0.8067 0.16988 0.0
C1945 C 0.81217 0.80859 0.19435 0.0
C1946 C 0.80916 0.78743 0.20522 0.0
C1947 C 0.80719 0.76419 0.1914 0.0
H1948 H 0.13392 0.99571 0.69598 0.0
H1949 H 0.15718 0.07178 0.73253 0.0
H1950 H 0.14321 0.08567 0.69693 0.0
H1951 H 0.14307 1.00382 0.63651 0.0
H1952 H 0.11724 0.98325 0.62157 0.0
H1953 H 0.12896 0.9785 0.64977 0.0
H1954 H 0.09285 0.97953 0.66593 0.0
H1955 H 0.081 0.986 0.63854 0.0
H1956 H 0.08285 1.00654 0.66603 0.0
H1957 H 0.12811 0.09246 0.65672 0.0
H1958 H 0.11128 0.09143 0.6161 0.0
H1959 H 0.09492 1.01131 0.60314 0.0
C1960 C 0.13595 1.01528 0.69655 0.0
C1961 C 0.1469 0.03262 0.7177 0.0
C1962 C 0.14884 0.05797 0.71715 0.0
C1963 C 0.14098 0.06613 0.69676 0.0
C1964 C 0.13045 0.04888 0.67644 0.0
C1965 C 0.12744 0.02388 0.67619 0.0
C1966 C 0.11421 1.00951 0.6521 0.0
C1967 C 0.12663 0.99278 0.63923 0.0
C1968 C 0.09139 0.99446 0.65588 0.0
C1969 C 0.11194 0.03031 0.63838 0.0
C1970 C 0.1211 0.05283 0.65316 0.0
C1971 C 0.12084 0.07484 0.64514 0.0
C1972 C 0.11109 0.07402 0.62173 0.0
C1973 C 0.10154 0.05139 0.60567 0.0
C1974 C 0.10208 0.02911 0.61447 0.0
H1975 H 0.83551 0.35771 0.45217 0.0
H1976 H 0.82267 0.42354 0.43071 0.0
H1977 H 0.82792 0.40875 0.38977 0.0
H1978 H 0.87669 0.35136 0.41121 0.0
H1979 H 0.8669 0.31814 0.40547 0.0
H1980 H 0.86535 0.33535 0.43394 0.0
H1981 H 0.82342 0.31447 0.42903 0.0
H1982 H 0.82486 0.29718 0.40071 0.0
H1983 H 0.8061 0.31626 0.4029 0.0
H1984 H 0.83281 0.38679 0.35175 0.0
H1985 H 0.83058 0.35563 0.31669 0.0
H1986 H 0.83779 0.30245 0.36194 0.0
C1987 C 0.8339 0.36905 0.43886 0.0
C1988 C 0.82865 0.3917 0.44445 0.0
C1989 C 0.82652 0.40601 0.42665 0.0
C1990 C 0.82983 0.39799 0.40349 0.0
C1991 C 0.83527 0.37572 0.39863 0.0
C1992 C 0.83703 0.36126 0.41566 0.0
C1993 C 0.84073 0.33689 0.40513 0.0
C1994 C 0.86379 0.33536 0.4145 0.0
C1995 C 0.82269 0.31491 0.4097 0.0
C1996 C 0.83916 0.33924 0.37922 0.0
C1997 C 0.83708 0.36228 0.37613 0.0
C1998 C 0.83463 0.36877 0.35388 0.0
C1999 C 0.83339 0.35089 0.3341 0.0
C2000 C 0.83389 0.32663 0.33678 0.0
C2001 C 0.83749 0.32092 0.35957 0.0
H2002 H 0.47291 1.01075 0.25336 0.0
H2003 H 0.4863 0.08796 0.24653 0.0
H2004 H 0.49659 0.07763 0.20641 0.0
H2005 H 0.51721 0.9968 0.22165 0.0
H2006 H 0.50047 0.96616 0.20869 0.0
H2007 H 0.49654 0.98054 0.23738 0.0
H2008 H 0.45539 0.97291 0.22164 0.0
H2009 H 0.45921 0.95975 0.19239 0.0
H2010 H 0.44768 0.98573 0.19626 0.0
H2011 H 0.49898 0.05814 0.16624 0.0
H2012 H 0.50651 0.03328 0.13125 0.0
H2013 H 0.49342 0.96866 0.1653 0.0
C2014 C 0.47833 0.02548 0.24343 0.0
C2015 C 0.47846 0.04998 0.25209 0.0
C2016 C 0.48597 0.0691 0.23947 0.0
C2017 C 0.49163 0.06335 0.21688 0.0
C2018 C 0.48974 0.0386 0.208 0.0
C2019 C 0.48412 1.0201 0.22118 0.0
C2020 C 0.4833 0.99502 0.20756 0.0
C2021 C 0.50042 0.98401 0.21952 0.0
C2022 C 0.46001 0.97733 0.20428 0.0
C2023 C 0.48919 1.00232 0.18438 0.0
C2024 C 0.49217 0.0274 0.18494 0.0
C2025 C 0.49701 0.03856 0.16556 0.0
C2026 C 0.50074 0.02406 0.14558 0.0
C2027 C 0.5004 0.99897 0.1457 0.0
C2028 C 0.4934 0.98763 0.16477 0.0
H2029 H 0.79651 0.7763 0.95327 0.0
H2030 H 0.81638 0.70879 0.93759 0.0
H2031 H 0.82177 0.71698 0.89708 0.0
H2032 H 0.76745 0.77442 0.89676 0.0
H2033 H 0.77738 0.80706 0.89677 0.0
H2034 H 0.77523 0.79596 0.92448 0.0
H2035 H 0.81647 0.818 0.93888 0.0
H2036 H 0.8186 0.82935 0.91129 0.0
H2037 H 0.83682 0.81183 0.92081 0.0
H2038 H 0.82232 0.73158 0.85631 0.0
H2039 H 0.8231 0.75422 0.82226 0.0
H2040 H 0.80548 0.81316 0.86597 0.0
C2041 C 0.80205 0.76326 0.94135 0.0
C2042 C 0.80575 0.74169 0.94863 0.0
C2043 C 0.81335 0.72538 0.93251 0.0
C2044 C 0.81638 0.72984 0.90936 0.0
C2045 C 0.81216 0.751 0.90257 0.0
C2046 C 0.80565 0.76773 0.91836 0.0
C2047 C 0.80307 0.7896 0.90711 0.0
C2048 C 0.77937 0.79187 0.90624 0.0
C2049 C 0.81973 0.81361 0.92031 0.0
C2050 C 0.80844 0.78221 0.88235 0.0
C2051 C 0.81351 0.75982 0.87988 0.0
C2052 C 0.81846 0.74918 0.85819 0.0
C2053 C 0.81861 0.76197 0.83881 0.0
C2054 C 0.81409 0.78527 0.84135 0.0
C2055 C 0.80889 0.79529 0.86343 0.0
H2056 H 0.86862 0.11751 0.0574 0.0
H2057 H 0.84782 0.13604 0.98992 0.0
H2058 H 0.88007 0.12602 0.97388 0.0
H2059 H 0.92754 0.14242 0.05737 0.0
H2060 H 0.93411 0.11821 0.07125 0.0
H2061 H 0.91016 0.12829 0.07739 0.0
H2062 H 0.88549 0.08338 0.0642 0.0
H2063 H 0.90927 0.07306 0.0582 0.0
H2064 H 0.88615 0.06671 0.03518 0.0
H2065 H 0.91227 0.10967 0.96461 0.0
H2066 H 0.94311 0.0902 0.9633 0.0
H2067 H 0.94269 0.08496 0.03783 0.0
C2068 C 0.87111 0.1198 0.03937 0.0
C2069 C 0.85618 0.12754 0.02478 0.0
C2070 C 0.85956 0.13038 1.00129 0.0
C2071 C 0.87767 0.1247 0.99209 0.0
C2072 C 0.89215 0.11685 1.00697 0.0
C2073 C 0.88915 0.11471 0.03018 0.0
C2074 C 0.90648 0.10521 0.0424 0.0
C2075 C 0.9204 0.1247 0.06333 0.0
C2076 C 0.89622 0.08064 0.05044 0.0
C2077 C 0.91944 0.10161 0.02223 0.0
C2078 C 0.91103 0.10841 1.00192 0.0
C2079 C 0.91933 0.10475 0.9805 0.0
C2080 C 0.93667 0.09365 0.97988 0.0
C2081 C 0.94529 0.08658 1.00058 0.0
C2082 C 0.93675 0.09092 0.02197 0.0
H2083 H 0.41668 0.43999 0.01576 0.0
H2084 H 0.40435 0.46823 0.08597 0.0
H2085 H 0.44238 0.49502 0.09484 0.0
H2086 H 0.47357 0.44087 0.03052 0.0
H2087 H 0.4827 0.45231 1.00451 0.0
H2088 H 0.45465 0.43446 1.00341 0.0
H2089 H 0.44074 0.46975 0.98944 0.0
H2090 H 0.46875 0.48769 0.9904 0.0
H2091 H 0.45021 0.50043 1.00687 0.0
H2092 H 0.48151 0.51712 0.09736 0.0
H2093 H 0.51912 0.53805 0.09214 0.0
H2094 H 0.50755 0.49979 0.01895 0.0
C2095 C 0.42209 0.45189 0.03295 0.0
C2096 C 0.40752 0.45195 0.0503 0.0
C2097 C 0.4151 0.46795 0.07244 0.0
C2098 C 0.43675 0.48315 0.07767 0.0
C2099 C 0.4507 0.48271 0.06039 0.0
C2100 C 0.44368 0.46795 0.03826 0.0
C2101 C 0.46204 0.47245 0.02265 0.0
C2102 C 0.46863 0.4486 0.01481 0.0
C2103 C 0.45502 0.48322 1.00106 0.0
C2104 C 0.48054 0.49151 0.03976 0.0
C2105 C 0.47344 0.49683 0.06142 0.0
C2106 C 0.4872 0.51333 0.08041 0.0
C2107 C 0.50867 0.52514 0.07723 0.0
C2108 C 0.51649 0.52086 0.05513 0.0
C2109 C 0.50217 0.50355 0.03609 0.0
H2110 H 0.4166 0.65965 0.73683 0.0
H2111 H 0.38395 0.62002 0.78799 0.0
H2112 H 0.36329 0.6513 0.7953 0.0
H2113 H 0.42121 0.72242 0.77175 0.0
H2114 H 0.41716 0.73623 0.74596 0.0
H2115 H 0.42946 0.71079 0.74418 0.0
H2116 H 0.39976 0.68644 0.70912 0.0
H2117 H 0.3874 0.71181 0.71082 0.0
H2118 H 0.3711 0.68132 0.71261 0.0
H2119 H 0.34354 0.68655 0.79573 0.0
H2120 H 0.32935 0.7225 0.79164 0.0
H2121 H 0.37571 0.74419 0.74289 0.0
C2122 C 0.40508 0.65744 0.74958 0.0
C2123 C 0.40207 0.63631 0.76156 0.0
C2124 C 0.38687 0.63525 0.7783 0.0
C2125 C 0.37489 0.65323 0.78261 0.0
C2126 C 0.37808 0.67342 0.77057 0.0
C2127 C 0.39315 0.67593 0.75463 0.0
C2128 C 0.39386 0.70019 0.74486 0.0
C2129 C 0.41679 0.71849 0.7521 0.0
C2130 C 0.38767 0.6946 0.71773 0.0
C2131 C 0.37641 0.71042 0.75705 0.0
C2132 C 0.36757 0.69445 0.7718 0.0
C2133 C 0.3507 0.69909 0.78435 0.0
C2134 C 0.3426 0.71993 0.78187 0.0
C2135 C 0.35111 0.73728 0.76721 0.0
C2136 C 0.36867 0.73213 0.75471 0.0
H2137 H 0.23152 0.59935 0.51641 0.0
H2138 H 0.24428 0.67903 0.53557 0.0
H2139 H 0.20613 0.67423 0.54226 0.0
H2140 H 0.17056 0.59083 0.48783 0.0
H2141 H 0.16225 0.56158 0.49759 0.0
H2142 H 0.18902 0.5714 0.48845 0.0
H2143 H 0.20648 0.56508 0.52897 0.0
H2144 H 0.18 0.5565 0.53877 0.0
H2145 H 0.20146 0.58189 0.55609 0.0
H2146 H 0.17177 0.66108 0.55807 0.0
H2147 H 0.13587 0.63959 0.56882 0.0
H2148 H 0.14403 0.56923 0.53645 0.0
C2149 C 0.22594 0.61573 0.52087 0.0
C2150 C 0.24078 0.63935 0.52641 0.0
C2151 C 0.23313 0.6606 0.53201 0.0
C2152 C 0.2115 0.65818 0.53572 0.0
C2153 C 0.19773 0.63451 0.53261 0.0
C2154 C 0.20411 0.61367 0.52398 0.0
C2155 C 0.18616 0.59038 0.52353 0.0
C2156 C 0.17643 0.57782 0.49782 0.0
C2157 C 0.19402 0.57244 0.5377 0.0
C2158 C 0.17003 0.60146 0.53564 0.0
C2159 C 0.17694 0.62693 0.5406 0.0
C2160 C 0.16564 0.64118 0.55351 0.0
C2161 C 0.14571 0.62897 0.55999 0.0
C2162 C 0.1379 0.60315 0.55336 0.0
C2163 C 0.1502 0.58913 0.54164 0.0
H2164 H 0.70805 1.00463 0.78111 0.0
H2165 H 0.76599 0.05344 0.762 0.0
H2166 H 0.78774 0.02526 0.7718 0.0
H2167 H 0.73351 0.99 0.83044 0.0
H2168 H 0.71837 0.95787 0.82574 0.0
H2169 H 0.70605 0.97984 0.81428 0.0
H2170 H 0.69931 0.95409 0.77185 0.0
H2171 H 0.7112 0.93173 0.78325 0.0
H2172 H 0.72196 0.9459 0.75922 0.0
H2173 H 0.80405 0.99655 0.78834 0.0
H2174 H 0.81425 0.96369 0.80602 0.0
H2175 H 0.74596 0.93182 0.81377 0.0
C2176 C 0.72523 1.00914 0.77863 0.0
C2177 C 0.73552 0.03127 0.77115 0.0
C2178 C 0.75793 0.03665 0.76797 0.0
C2179 C 0.77038 1.02076 0.77338 0.0
C2180 C 0.75999 0.99962 0.78162 0.0
C2181 C 0.73788 0.99339 0.78381 0.0
C2182 C 0.73123 0.97004 0.79418 0.0
C2183 C 0.72174 0.97475 0.81754 0.0
C2184 C 0.71497 0.9492 0.77603 0.0
C2185 C 0.75339 0.96496 0.79851 0.0
C2186 C 0.76959 0.98231 0.79101 0.0
C2187 C 0.79159 0.98266 0.79412 0.0
C2188 C 0.79723 0.96426 0.80465 0.0
C2189 C 0.78091 0.9458 0.81184 0.0
C2190 C 0.75869 0.94612 0.80882 0.0
H2191 H 0.78492 0.96251 0.57425 0.0
H2192 H 0.78073 0.91857 0.50472 0.0
H2193 H 0.74573 0.92802 0.49204 0.0
H2194 H 0.72586 0.94425 0.57778 0.0
H2195 H 0.72625 0.97431 0.59334 0.0
H2196 H 0.75031 0.96311 0.59692 0.0
H2197 H 0.77359 1.00228 0.58391 0.0
H2198 H 0.74963 1.01356 0.58034 0.0
H2199 H 0.76501 1.01008 0.55586 0.0
H2200 H 0.71201 0.94512 0.48651 0.0
H2201 H 0.68288 0.96699 0.4891 0.0
H2202 H 0.70933 0.99834 0.56275 0.0
C2203 C 0.77667 0.95482 0.55634 0.0
C2204 C 0.78571 0.94002 0.54039 0.0
C2205 C 0.77418 0.93006 0.51722 0.0
C2206 C 0.75426 0.93529 0.50989 0.0
C2207 C 0.74591 0.95017 0.52607 0.0
C2208 C 0.75671 0.95954 0.5489 0.0
C2209 C 0.74457 0.97521 0.56292 0.0
C2210 C 0.73626 0.96351 0.58399 0.0
C2211 C 0.75907 1.00186 0.57123 0.0
C2212 C 0.72564 0.97399 0.54425 0.0
C2213 C 0.72651 0.95934 0.52312 0.0
C2214 C 0.71114 0.95644 0.50307 0.0
C2215 C 0.6947 0.96902 0.50468 0.0
C2216 C 0.69369 0.98428 0.52618 0.0
C2217 C 0.7093 0.98644 0.5462 0.0
H2218 H 0.39821 0.4796 0.73508 0.0
H2219 H 0.41772 0.50734 0.81046 0.0
H2220 H 0.40055 0.46598 0.81897 0.0
H2221 H 0.34492 0.43655 0.73873 0.0
H2222 H 0.34756 0.41259 0.7158 0.0
H2223 H 0.36111 0.44446 0.71545 0.0
H2224 H 0.39819 0.43354 0.71456 0.0
H2225 H 0.38475 0.4017 0.71532 0.0
H2226 H 0.40767 0.41867 0.73753 0.0
H2227 H 0.38184 0.41968 0.81984 0.0
H2228 H 0.36 0.3759 0.81301 0.0
H2229 H 0.35012 0.37618 0.73749 0.0
C2230 C 0.39833 0.47722 0.75343 0.0
C2231 C 0.40902 0.4978 0.77214 0.0
C2232 C 0.40938 0.49273 0.7957 0.0
C2233 C 0.39974 0.46893 0.80075 0.0
C2234 C 0.38962 0.44921 0.78215 0.0
C2235 C 0.38864 0.45312 0.75889 0.0
C2236 C 0.37686 0.42838 0.74229 0.0
C2237 C 0.35639 0.43063 0.72717 0.0
C2238 C 0.39281 0.42009 0.72647 0.0
C2239 C 0.37053 0.41039 0.75977 0.0
C2240 C 0.37871 0.42274 0.78268 0.0
C2241 C 0.37551 0.41006 0.80186 0.0
C2242 C 0.36322 0.38476 0.79777 0.0
C2243 C 0.3537 0.3715 0.77465 0.0
C2244 C 0.35763 0.38498 0.75541 0.0
H2245 H 0.21932 0.65893 0.3062 0.0
H2246 H 0.21119 0.62334 0.23264 0.0
H2247 H 0.24488 0.65355 0.22644 0.0
H2248 H 0.23509 0.71855 0.29055 0.0
H2249 H 0.25278 0.73225 0.31778 0.0
H2250 H 0.22957 0.70662 0.31743 0.0
H2251 H 0.25447 0.6827 0.3352 0.0
H2252 H 0.27921 0.70682 0.33548 0.0
H2253 H 0.27643 0.67612 0.31992 0.0
H2254 H 0.27868 0.6874 0.22849 0.0
H2255 H 0.30348 0.72937 0.23488 0.0
H2256 H 0.29087 0.74125 0.30799 0.0
C2257 C 0.22448 0.65795 0.28872 0.0
C2258 C 0.21293 0.63944 0.26982 0.0
C2259 C 0.21984 0.63816 0.2471 0.0
C2260 C 0.23919 0.65467 0.24363 0.0
C2261 C 0.25103 0.67205 0.26309 0.0
C2262 C 0.24353 0.67427 0.2849 0.0
C2263 C 0.25713 0.69677 0.30176 0.0
C2264 C 0.24282 0.71456 0.30722 0.0
C2265 C 0.2674 0.6902 0.32443 0.0
C2266 C 0.27422 0.7064 0.28651 0.0
C2267 C 0.27047 0.69179 0.26424 0.0
C2268 C 0.28197 0.69893 0.2459 0.0
C2269 C 0.2961 0.72274 0.24976 0.0
C2270 C 0.29814 0.73877 0.27169 0.0
C2271 C 0.289 0.72959 0.2909 0.0
H2272 H 0.55663 0.70027 0.44899 0.0
H2273 H 0.55185 0.74908 0.51243 0.0
H2274 H 0.55668 0.71773 0.53676 0.0
H2275 H 0.52889 0.6428 0.46316 0.0
H2276 H 0.5476 0.62623 0.45185 0.0
H2277 H 0.54396 0.65256 0.4396 0.0
H2278 H 0.58597 0.67298 0.44894 0.0
H2279 H 0.58967 0.64669 0.46131 0.0
H2280 H 0.5996 0.67727 0.47887 0.0
H2281 H 0.56188 0.68089 0.55416 0.0
H2282 H 0.56639 0.64091 0.56315 0.0
H2283 H 0.56786 0.61585 0.48856 0.0
C2284 C 0.55644 0.70416 0.46798 0.0
C2285 C 0.5535 0.72684 0.4789 0.0
C2286 C 0.5539 0.73169 0.50382 0.0
C2287 C 0.5567 0.71404 0.51774 0.0
C2288 C 0.55958 0.69182 0.50652 0.0
C2289 C 0.5597 0.6869 0.48222 0.0
C2290 C 0.56376 0.66185 0.47474 0.0
C2291 C 0.54491 0.64486 0.45625 0.0
C2292 C 0.58607 0.66488 0.46541 0.0
C2293 C 0.56441 0.65278 0.49831 0.0
C2294 C 0.56255 0.67062 0.51653 0.0
C2295 C 0.5633 0.66679 0.54002 0.0
C2296 C 0.56585 0.6441 0.54499 0.0
C2297 C 0.56717 0.62539 0.52651 0.0
C2298 C 0.56653 0.62982 0.50292 0.0
H2299 H 0.66968 0.29474 0.68768 0.0
H2300 H 0.69457 0.36807 0.67185 0.0
H2301 H 0.73173 0.36996 0.69155 0.0
H2302 H 0.69995 0.30199 0.74398 0.0
H2303 H 0.70528 0.27208 0.73909 0.0
H2304 H 0.68125 0.27676 0.72322 0.0
H2305 H 0.69328 0.26122 0.68336 0.0
H2306 H 0.71756 0.25673 0.6991 0.0
H2307 H 0.72011 0.27595 0.67665 0.0
H2308 H 0.76671 0.36375 0.7148 0.0
H2309 H 0.79416 0.35141 0.74075 0.0
H2310 H 0.74631 0.28205 0.74076 0.0
C2311 C 0.68291 0.31131 0.68854 0.0
C2312 C 0.67903 0.33148 0.67853 0.0
C2313 C 0.69702 0.35247 0.67948 0.0
C2314 C 0.71825 0.35362 0.69058 0.0
C2315 C 0.72155 0.33333 0.70014 0.0
C2316 C 0.7043 0.31249 0.69901 0.0
C2317 C 0.71207 0.29299 0.71025 0.0
C2318 C 0.69886 0.28554 0.73034 0.0
C2319 C 0.71066 0.27038 0.69121 0.0
C2320 C 0.73597 0.30671 0.7196 0.0
C2321 C 0.7414 0.32966 0.71293 0.0
C2322 C 0.76259 0.34566 0.71976 0.0
C2323 C 0.77827 0.33837 0.73429 0.0
C2324 C 0.77274 0.3154 0.74222 0.0
C2325 C 0.75132 0.29937 0.73441 0.0
H2326 H 0.03316 0.35527 1.00912 0.0
H2327 H 0.05791 0.36693 0.94262 0.0
H2328 H 0.066 0.41191 0.95556 0.0
H2329 H 1.00694 0.4023 0.01543 0.0
H2330 H 1.01499 0.41235 0.04701 0.0
H2331 H 1.01258 0.38087 0.03383 0.0
H2332 H 0.05281 0.38529 0.05158 0.0
H2333 H 0.05516 0.41665 0.06523 0.0
H2334 H 0.07458 0.41023 0.04598 0.0
H2335 H 0.06766 0.45442 0.97305 0.0
H2336 H 0.06811 0.49412 0.99728 0.0
H2337 H 0.04415 0.45633 0.05379 0.0
C2338 C 0.04066 0.36735 0.99751 0.0
C2339 C 0.04487 0.35768 0.97483 0.0
C2340 C 0.05469 0.37397 0.9601 0.0
C2341 C 0.05923 0.39952 0.96723 0.0
C2342 C 0.05425 0.40843 0.98931 0.0
C2343 C 0.04572 0.393 1.00456 0.0
C2344 C 0.04199 0.40768 0.02737 0.0
C2345 C 0.01768 0.40035 0.03111 0.0
C2346 C 0.05703 0.40479 0.04881 0.0
C2347 C 0.04887 0.43364 0.02201 0.0
C2348 C 0.05588 0.43348 0.99992 0.0
C2349 C 0.06251 0.45488 0.99049 0.0
C2350 C 0.06256 0.47722 1.00425 0.0
C2351 C 0.05608 0.47794 0.02713 0.0
C2352 C 0.04899 0.45598 0.0362 0.0
H2353 H 0.04444 0.83663 0.19805 0.0
H2354 H 0.02971 0.78083 0.13446 0.0
H2355 H 0.99176 0.76486 0.1435 0.0
H2356 H 1.01351 0.79927 0.23483 0.0
H2357 H 1.00422 0.82405 0.24995 0.0
H2358 H 0.03004 0.83077 0.23833 0.0
H2359 H 0.01695 0.86068 0.21382 0.0
H2360 H 0.99117 0.85414 0.22551 0.0
H2361 H 0.99143 0.84956 0.19383 0.0
H2362 H 0.95546 0.75417 0.16111 0.0
H2363 H 0.92376 0.75227 0.18386 0.0
H2364 H 0.96251 0.8165 0.23427 0.0
C2365 C 0.03308 0.82126 0.18596 0.0
C2366 C 0.03967 0.81006 0.16549 0.0
C2367 C 0.02464 0.78977 0.15011 0.0
C2368 C 1.00317 0.78052 0.15517 0.0
C2369 C 0.99706 0.79194 0.17563 0.0
C2370 C 1.01156 0.81203 0.19062 0.0
C2371 C 1.001 0.82124 0.21126 0.0
C2372 C 1.0129 0.81867 0.23499 0.0
C2373 C 1.00008 0.84799 0.21108 0.0
C2374 C 0.97831 0.80344 0.20554 0.0
C2375 C 0.97629 0.78637 0.18513 0.0
C2376 C 0.95683 0.76764 0.17697 0.0
C2377 C 0.93896 0.76665 0.18994 0.0
C2378 C 0.94073 0.78454 0.21047 0.0
C2379 C 0.96067 0.80295 0.21833 0.0
H2380 H 0.54975 0.33327 0.14785 0.0
H2381 H 0.50732 0.29044 0.08399 0.0
H2382 H 0.52519 0.32106 0.06066 0.0
H2383 H 0.55247 0.39433 0.13533 0.0
H2384 H 0.58132 0.40681 0.14659 0.0
H2385 H 0.56492 0.38182 0.15846 0.0
H2386 H 0.59232 0.35615 0.14847 0.0
H2387 H 0.6085 0.38098 0.1361 0.0
H2388 H 0.59816 0.35052 0.11838 0.0
H2389 H 0.54815 0.35331 0.04404 0.0
H2390 H 0.57027 0.39194 0.03508 0.0
H2391 H 0.59793 0.41619 0.10952 0.0
C2392 C 0.54383 0.33097 0.1291 0.0
C2393 C 0.52685 0.31008 0.11756 0.0
C2394 C 0.51999 0.30674 0.09296 0.0
C2395 C 0.53025 0.32376 0.07961 0.0
C2396 C 0.54752 0.34365 0.09121 0.0
C2397 C 0.55412 0.34772 0.11541 0.0
C2398 C 0.57322 0.3708 0.12311 0.0
C2399 C 0.56762 0.38956 0.14197 0.0
C2400 C 0.59429 0.36421 0.13205 0.0
C2401 C 0.57519 0.37977 0.09961 0.0
C2402 C 0.56084 0.36306 0.08142 0.0
C2403 C 0.55953 0.36658 0.05802 0.0
C2404 C 0.57242 0.38846 0.05309 0.0
C2405 C 0.58607 0.40678 0.07157 0.0
C2406 C 0.58792 0.4022 0.09509 0.0
H2407 H 0.05802 0.31051 0.34438 0.0
H2408 H 0.07418 0.38724 0.37896 0.0
H2409 H 0.03641 0.3887 0.36581 0.0
H2410 H 0.02439 0.31335 0.29396 0.0
H2411 H 1.00404 0.28453 0.29325 0.0
H2412 H 0.03191 0.28888 0.30659 0.0
H2413 H 0.01828 0.27841 0.34586 0.0
H2414 H 0.99028 0.27377 0.33258 0.0
H2415 H 1.00108 0.29536 0.35994 0.0
H2416 H 0.99938 0.38338 0.34655 0.0
H2417 H 0.96255 0.37096 0.32302 0.0
H2418 H 0.96871 0.29676 0.30234 0.0
C2419 C 0.0535 0.32759 0.34893 0.0
C2420 C 0.06881 0.34898 0.36205 0.0
C2421 C 0.06251 0.37087 0.36855 0.0
C2422 C 0.04118 0.37179 0.36135 0.0
C2423 C 0.02642 0.35046 0.3483 0.0
C2424 C 0.03208 0.32864 0.34242 0.0
C2425 C 1.01289 0.30848 0.3282 0.0
C2426 C 0.01866 0.29823 0.30406 0.0
C2427 C 1.00518 0.28778 0.3425 0.0
C2428 C 0.99611 0.32301 0.32552 0.0
C2429 C 1.00428 0.34704 0.33771 0.0
C2430 C 0.99258 0.36458 0.33721 0.0
C2431 C 0.97187 0.35745 0.32376 0.0
C2432 C 0.96324 0.33311 0.31107 0.0
C2433 C 0.97522 0.31547 0.31208 0.0
H2434 H 0.98494 0.68449 0.60796 0.0
H2435 H 0.02498 0.69292 0.67618 0.0
H2436 H 0.04794 0.66943 0.65732 0.0
H2437 H 0.98703 0.62042 0.58823 0.0
H2438 H 0.98741 0.62434 0.5577 0.0
H2439 H 0.97358 0.64159 0.57678 0.0
H2440 H 0.99727 0.68223 0.56659 0.0
H2441 H 1.01156 0.66504 0.54806 0.0
H2442 H 0.02685 0.68925 0.57206 0.0
H2443 H 0.0686 0.64857 0.63145 0.0
H2444 H 0.08058 0.62193 0.60031 0.0
H2445 H 0.02621 0.62513 0.54987 0.0
C2446 C 0.99802 0.68059 0.61902 0.0
C2447 C 1.00319 0.69063 0.64341 0.0
C2448 C 0.02052 0.68527 0.65741 0.0
C2449 C 0.03398 0.67231 0.64687 0.0
C2450 C 0.02936 0.6641 0.62258 0.0
C2451 C 1.01137 0.66712 0.60892 0.0
C2452 C 1.00954 0.65511 0.58336 0.0
C2453 C 0.98813 0.63412 0.5761 0.0
C2454 C 1.01143 0.67406 0.56655 0.0
C2455 C 0.02946 0.64525 0.58501 0.0
C2456 C 0.0409 0.65103 0.60767 0.0
C2457 C 0.05971 0.64357 0.61361 0.0
C2458 C 0.06639 0.62858 0.59597 0.0
C2459 C 0.05401 0.6214 0.57313 0.0
C2460 C 0.03582 0.63037 0.56738 0.0
H2461 H 0.68561 0.82223 0.87183 0.0
H2462 H 0.67229 0.87749 0.8319 0.0
H2463 H 0.69539 0.86609 0.80272 0.0
H2464 H 0.74295 0.83216 0.86181 0.0
H2465 H 0.742 0.79994 0.85954 0.0
H2466 H 0.72461 0.81275 0.87766 0.0
H2467 H 0.69067 0.77919 0.85416 0.0
H2468 H 0.70795 0.76678 0.8355 0.0
H2469 H 0.68522 0.77629 0.82233 0.0
H2470 H 0.71822 0.84892 0.7776 0.0
H2471 H 0.74634 0.83135 0.76079 0.0
H2472 H 0.74551 0.78694 0.8161 0.0
C2473 C 0.68781 0.83212 0.8571 0.0
C2474 C 0.67695 0.85052 0.85389 0.0
C2475 C 0.68025 0.86314 0.83451 0.0
C2476 C 0.69322 0.85672 0.81777 0.0
C2477 C 0.70277 0.83774 0.82076 0.0
C2478 C 0.70079 0.82598 0.84017 0.0
C2479 C 0.7137 0.80685 0.83934 0.0
C2480 C 0.7319 0.81333 0.86085 0.0
C2481 C 0.69846 0.78073 0.83773 0.0
C2482 C 0.72314 0.80986 0.81637 0.0
C2483 C 0.71629 0.82757 0.8059 0.0
C2484 C 0.72357 0.8348 0.78533 0.0
C2485 C 0.73926 0.82457 0.77577 0.0
C2486 C 0.74732 0.80741 0.78684 0.0
C2487 C 0.73873 0.79927 0.80688 0.0
H2488 H 0.50152 0.54246 0.70587 0.0
H2489 H 0.48082 0.60895 0.70198 0.0
H2490 H 0.49815 0.61353 0.66552 0.0
H2491 H 0.55415 0.56092 0.68296 0.0
H2492 H 0.55144 0.53107 0.66533 0.0
H2493 H 0.53819 0.53334 0.69162 0.0
H2494 H 0.50088 0.50921 0.66669 0.0
H2495 H 0.51403 0.50706 0.6403 0.0
H2496 H 0.49111 0.52034 0.64106 0.0
H2497 H 0.51818 0.61089 0.62747 0.0
H2498 H 0.53868 0.60183 0.59418 0.0
H2499 H 0.54677 0.53667 0.62045 0.0
C2500 C 0.50077 0.55817 0.69754 0.0
C2501 C 0.48954 0.5755 0.70769 0.0
C2502 C 0.48898 0.5953 0.69527 0.0
C2503 C 0.49892 0.59807 0.67424 0.0
C2504 C 0.50942 0.58065 0.66462 0.0
C2505 C 0.51036 0.56097 0.67592 0.0
C2506 C 0.52202 0.54437 0.66123 0.0
C2507 C 0.54268 0.54231 0.67618 0.0
C2508 C 0.50607 0.51871 0.65177 0.0
C2509 C 0.5281 0.55807 0.64045 0.0
C2510 C 0.52039 0.57886 0.64267 0.0
C2511 C 0.52389 0.59441 0.62567 0.0
C2512 C 0.53545 0.58891 0.60636 0.0
C2513 C 0.54379 0.56784 0.60333 0.0
C2514 C 0.54003 0.55241 0.62116 0.0
H2515 H 0.79588 0.18103 0.96019 0.0
H2516 H 0.77678 0.23399 1.01054 0.0
H2517 H 0.7528 0.24212 0.97842 0.0
H2518 H 0.80213 0.21609 0.91642 0.0
H2519 H 0.79172 0.19076 0.89179 0.0
H2520 H 0.8036 0.18539 0.91943 0.0
H2521 H 0.76756 0.15161 0.9203 0.0
H2522 H 0.75539 0.15784 0.89296 0.0
H2523 H 0.74172 0.15948 0.91898 0.0
H2524 H 0.73424 0.24788 0.94264 0.0
H2525 H 0.7341 0.26314 0.90528 0.0
H2526 H 0.76355 0.20658 0.87548 0.0
C2527 C 0.78672 0.19444 0.96434 0.0
C2528 C 0.78792 0.20668 0.98781 0.0
C2529 C 0.77592 0.22425 0.99264 0.0
C2530 C 0.76182 0.22854 0.97463 0.0
C2531 C 0.75996 0.21517 0.9519 0.0
C2532 C 0.7726 0.19909 0.94646 0.0
C2533 C 0.77054 0.19078 0.91991 0.0
C2534 C 0.79334 0.19612 0.9114 0.0
C2535 C 0.75806 0.16329 0.91263 0.0
C2536 C 0.75671 0.20687 0.91139 0.0
C2537 C 0.74949 0.21933 0.93021 0.0
C2538 C 0.73939 0.23801 0.92763 0.0
C2539 C 0.73916 0.24643 0.90608 0.0
C2540 C 0.74939 0.23636 0.88777 0.0
C2541 C 0.75583 0.21457 0.88945 0.0
H2542 H 0.16219 0.5875 0.20543 0.0
H2543 H 0.17218 0.51502 0.1859 0.0
H2544 H 0.1505 0.51018 0.14641 0.0
H2545 H 0.10875 0.57086 0.18445 0.0
H2546 H 0.10722 0.59872 0.17374 0.0
H2547 H 0.12826 0.59995 0.19751 0.0
H2548 H 0.15844 0.61984 0.17367 0.0
H2549 H 0.13746 0.61921 0.1499 0.0
H2550 H 0.15923 0.60504 0.1439 0.0
H2551 H 0.12072 0.50837 0.11584 0.0
H2552 H 0.08814 0.51236 0.09127 0.0
H2553 H 0.09869 0.58713 0.1288 0.0
C2554 C 0.16053 0.57115 0.19226 0.0
C2555 C 0.16879 0.55167 0.19792 0.0
C2556 C 0.16595 0.53003 0.18125 0.0
C2557 C 0.15382 0.52727 0.15895 0.0
C2558 C 0.14483 0.54633 0.15415 0.0
C2559 C 0.14833 0.5681 0.17015 0.0
C2560 C 0.13411 0.58398 0.16228 0.0
C2561 C 0.11869 0.58862 0.18058 0.0
C2562 C 0.14816 0.60846 0.15711 0.0
C2563 C 0.12143 0.56718 0.13986 0.0
C2564 C 0.12784 0.54558 0.13556 0.0
C2565 C 0.11609 0.52552 0.11831 0.0
C2566 C 0.09755 0.5278 0.10469 0.0
C2567 C 0.09154 0.55013 0.10823 0.0
C2568 C 0.10352 0.57007 0.12581 0.0
H2569 H 0.819 0.87289 0.46555 0.0
H2570 H 0.85996 0.82719 0.48786 0.0
H2571 H 0.85951 0.8094 0.44622 0.0
H2572 H 0.7853 0.82609 0.41503 0.0
H2573 H 0.78376 0.8485 0.39619 0.0
H2574 H 0.78619 0.85726 0.42799 0.0
H2575 H 0.82073 0.89282 0.42714 0.0
H2576 H 0.81854 0.88394 0.3954 0.0
H2577 H 0.84368 0.88595 0.41406 0.0
H2578 H 0.85786 0.799 0.40305 0.0
H2579 H 0.85122 0.79245 0.35945 0.0
H2580 H 0.80954 0.84251 0.36304 0.0
C2581 C 0.82752 0.85882 0.46165 0.0
C2582 C 0.83957 0.85151 0.48014 0.0
C2583 C 0.85065 0.83319 0.47419 0.0
C2584 C 0.85055 0.82296 0.45051 0.0
C2585 C 0.8391 0.83096 0.43277 0.0
C2586 C 0.82744 0.84812 0.43787 0.0
C2587 C 0.81669 0.85335 0.41499 0.0
C2588 C 0.79148 0.84585 0.41347 0.0
C2589 C 0.82544 0.88063 0.41278 0.0
C2590 C 0.82433 0.83653 0.39646 0.0
C2591 C 0.83743 0.82408 0.40729 0.0
C2592 C 0.84737 0.80834 0.3943 0.0
C2593 C 0.84358 0.80486 0.36949 0.0
C2594 C 0.82973 0.81678 0.35777 0.0
C2595 C 0.81997 0.83287 0.3715 0.0
H2596 H 0.53586 0.58267 0.85335 0.0
H2597 H 0.47068 0.53329 0.84921 0.0
H2598 H 0.47992 0.52661 0.89004 0.0
H2599 H 0.56503 0.54875 0.888 0.0
H2600 H 0.58397 0.57562 0.90641 0.0
H2601 H 0.57266 0.57735 0.87689 0.0
H2602 H 0.55821 0.61392 0.894 0.0
H2603 H 0.56957 0.61234 0.92355 0.0
H2604 H 0.54078 0.6105 0.91698 0.0
H2605 H 0.49651 0.52268 0.93079 0.0
H2606 H 0.51817 0.52438 0.9694 0.0
H2607 H 0.57286 0.57816 0.95105 0.0
C2608 C 0.5235 0.57055 0.86111 0.0
C2609 C 0.5023 0.5584 0.84756 0.0
C2610 C 0.48689 0.54276 0.85876 0.0
C2611 C 0.49206 0.53883 0.88213 0.0
C2612 C 0.51291 0.55068 0.89485 0.0
C2613 C 0.52842 0.56649 0.88491 0.0
C2614 C 0.5496 0.57684 0.90298 0.0
C2615 C 0.56897 0.56919 0.89297 0.0
C2616 C 0.55485 0.60508 0.90977 0.0
C2617 C 0.54353 0.56435 0.9244 0.0
C2618 C 0.52228 0.54915 0.91901 0.0
C2619 C 0.51307 0.53474 0.93516 0.0
C2620 C 0.5256 0.53578 0.95721 0.0
C2621 C 0.54728 0.55146 0.96381 0.0
C2622 C 0.55628 0.56612 0.94696 0.0
H2623 H 0.80672 0.22222 0.09757 0.0
H2624 H 0.80495 0.1544 0.12472 0.0
H2625 H 0.79825 0.17386 0.16352 0.0
H2626 H 0.83601 0.26301 0.14524 0.0
H2627 H 0.82099 0.28597 0.14437 0.0
H2628 H 0.82137 0.26551 0.11758 0.0
H2629 H 0.77871 0.25152 0.11096 0.0
H2630 H 0.77825 0.272 0.13794 0.0
H2631 H 0.7642 0.23962 0.13405 0.0
H2632 H 0.79641 0.2009 0.19932 0.0
H2633 H 0.80422 0.2354 0.23226 0.0
H2634 H 0.80759 0.28685 0.18291 0.0
C2635 C 0.80484 0.21144 0.11168 0.0
C2636 C 0.80654 0.18692 0.10837 0.0
C2637 C 0.80379 0.17327 0.12705 0.0
C2638 C 0.79964 0.18401 0.14895 0.0
C2639 C 0.79789 0.20816 0.15157 0.0
C2640 C 0.80044 0.22178 0.13352 0.0
C2641 C 0.80016 0.24821 0.14185 0.0
C2642 C 0.82088 0.26675 0.13699 0.0
C2643 C 0.77908 0.25312 0.13051 0.0
C2644 C 0.7997 0.24799 0.16804 0.0
C2645 C 0.79711 0.22433 0.17287 0.0
C2646 C 0.79789 0.21939 0.19579 0.0
C2647 C 0.80233 0.23925 0.2144 0.0
C2648 C 0.8063 0.26379 0.21001 0.0
C2649 C 0.80426 0.26821 0.18658 0.0
H2650 H 0.17763 0.60674 0.33893 0.0
H2651 H 0.12699 0.53716 0.31934 0.0
H2652 H 0.11238 0.54559 0.35695 0.0
H2653 H 0.18462 0.60861 0.40591 0.0
H2654 H 0.18769 0.64142 0.41183 0.0
H2655 H 0.19718 0.62785 0.38592 0.0
H2656 H 0.17332 0.64754 0.35993 0.0
H2657 H 0.16303 0.66026 0.38563 0.0
H2658 H 0.14409 0.64051 0.36087 0.0
H2659 H 0.09827 0.56447 0.38899 0.0
H2660 H 0.08976 0.58827 0.42371 0.0
H2661 H 0.15038 0.64602 0.42665 0.0
C2662 C 0.16407 0.59294 0.34327 0.0
C2663 C 0.15328 0.57121 0.32679 0.0
C2664 C 0.13524 0.55374 0.3321 0.0
C2665 C 0.12692 0.55843 0.35327 0.0
C2666 C 0.13689 0.58071 0.36853 0.0
C2667 C 0.15544 0.59751 0.36439 0.0
C2668 C 0.1614 0.62097 0.38303 0.0
C2669 C 0.18406 0.62492 0.39754 0.0
C2670 C 0.16039 0.64365 0.37167 0.0
C2671 C 0.14298 0.61461 0.39791 0.0
C2672 C 0.12895 0.59151 0.38861 0.0
C2673 C 0.10942 0.5822 0.39703 0.0
C2674 C 0.10457 0.59616 0.41651 0.0
C2675 C 0.11947 0.61898 0.42782 0.0
C2676 C 0.13882 0.62865 0.41825 0.0
H2677 H 0.81886 0.83818 0.60114 0.0
H2678 H 0.85106 0.91337 0.63663 0.0
H2679 H 0.84713 0.9007 0.67549 0.0
H2680 H 0.77867 0.82627 0.64211 0.0
H2681 H 0.77876 0.79451 0.64154 0.0
H2682 H 0.78491 0.80881 0.6161 0.0
H2683 H 0.8219 0.79734 0.61776 0.0
H2684 H 0.81585 0.78303 0.64322 0.0
H2685 H 0.84104 0.80696 0.64488 0.0
H2686 H 0.84196 0.87991 0.71087 0.0
H2687 H 0.832 0.85292 0.74025 0.0
H2688 H 0.79895 0.79208 0.68349 0.0
C2689 C 0.82522 0.85187 0.61712 0.0
C2690 C 0.83552 0.87683 0.61571 0.0
C2691 C 0.84319 0.8942 0.63711 0.0
C2692 C 0.84109 0.88717 0.65937 0.0
C2693 C 0.83087 0.86264 0.66024 0.0
C2694 C 0.82276 0.84523 0.63975 0.0
C2695 C 0.81157 0.82034 0.64606 0.0
C2696 C 0.78702 0.812 0.63584 0.0
C2697 C 0.82329 0.80076 0.63747 0.0
C2698 C 0.81477 0.82662 0.67316 0.0
C2699 C 0.82625 0.85105 0.68087 0.0
C2700 C 0.83233 0.86093 0.70503 0.0
C2701 C 0.82623 0.84561 0.72176 0.0
C2702 C 0.81359 0.82082 0.71453 0.0
C2703 C 0.80806 0.8112 0.68976 0.0
H2704 H 0.79097 0.51767 0.53275 0.0
H2705 H 0.76086 0.43907 0.52621 0.0
H2706 H 0.72854 0.44784 0.54286 0.0
H2707 H 0.7727 0.53782 0.58724 0.0
H2708 H 0.76751 0.56506 0.57803 0.0
H2709 H 0.78845 0.55249 0.56626 0.0
H2710 H 0.76982 0.54919 0.52326 0.0
H2711 H 0.74906 0.56216 0.5348 0.0
H2712 H 0.74116 0.53276 0.515 0.0
H2713 H 0.69941 0.46535 0.55907 0.0
H2714 H 0.67366 0.49023 0.56957 0.0
H2715 H 0.72355 0.55706 0.56583 0.0
C2716 C 0.7774 0.50235 0.53454 0.0
C2717 C 0.77802 0.47778 0.52799 0.0
C2718 C 0.76022 0.45805 0.53064 0.0
C2719 C 0.74207 0.46285 0.54044 0.0
C2720 C 0.74214 0.48741 0.54725 0.0
C2721 C 0.75918 0.50679 0.54405 0.0
C2722 C 0.75472 0.53143 0.55128 0.0
C2723 C 0.77186 0.54764 0.57194 0.0
C2724 C 0.75361 0.54465 0.52982 0.0
C2725 C 0.73243 0.52293 0.55907 0.0
C2726 C 0.72551 0.49749 0.55682 0.0
C2727 C 0.70469 0.48528 0.56117 0.0
C2728 C 0.69025 0.49946 0.56711 0.0
C2729 C 0.69693 0.52541 0.56872 0.0
C2730 C 0.7184 0.53728 0.56531 0.0
H2731 H 0.24296 0.13536 0.53199 0.0
H2732 H 0.22609 0.17698 0.47888 0.0
H2733 H 0.18661 0.15806 0.47957 0.0
H2734 H 0.20071 0.07939 0.51184 0.0
H2735 H 0.19537 0.07399 0.54115 0.0
H2736 H 0.22221 0.09133 0.53684 0.0
H2737 H 0.21988 0.12758 0.56853 0.0
H2738 H 0.19285 0.11044 0.57271 0.0
H2739 H 0.197 0.14077 0.56509 0.0
H2740 H 0.14846 0.13409 0.48564 0.0
H2741 H 0.11534 0.10427 0.49398 0.0
H2742 H 0.15637 0.07785 0.54288 0.0
C2743 C 0.23097 0.14026 0.52027 0.0
C2744 C 0.2378 0.15754 0.50511 0.0
C2745 C 0.22142 0.16378 0.49054 0.0
C2746 C 0.19888 0.1532 0.49091 0.0
C2747 C 0.1927 0.13654 0.50624 0.0
C2748 C 0.20828 0.13006 0.52065 0.0
C2749 C 0.19717 0.11168 0.53549 0.0
C2750 C 0.20428 0.08767 0.53104 0.0
C2751 C 0.20202 0.1233 0.56202 0.0
C2752 C 0.173 0.10763 0.52604 0.0
C2753 C 0.17077 0.12277 0.50974 0.0
C2754 C 0.15005 0.12234 0.49855 0.0
C2755 C 0.13124 0.10559 0.50362 0.0
C2756 C 0.13317 0.08927 0.51955 0.0
C2757 C 0.15437 0.09049 0.53099 0.0
H2758 H 0.25055 0.96325 0.79018 0.0
H2759 H 0.21537 0.94575 0.7187 0.0
H2760 H 0.22823 0.90807 0.71113 0.0
H2761 H 0.29874 0.94342 0.77322 0.0
H2762 H 0.30365 0.9312 0.79986 0.0
H2763 H 0.29056 0.95594 0.80051 0.0
H2764 H 0.2577 0.92977 0.81693 0.0
H2765 H 0.27078 0.90501 0.81628 0.0
H2766 H 0.24335 0.89931 0.8009 0.0
H2767 H 0.24407 0.86923 0.71166 0.0
H2768 H 0.2644 0.83832 0.71831 0.0
H2769 H 0.29416 0.88182 0.78737 0.0
C2770 C 0.2454 0.95149 0.77292 0.0
C2771 C 0.23135 0.95815 0.75514 0.0
C2772 C 0.2258 0.9418 0.73283 0.0
C2773 C 0.23311 0.91998 0.72834 0.0
C2774 C 0.24683 0.91408 0.746 0.0
C2775 C 0.25329 0.9297 0.7678 0.0
C2776 C 0.2693 0.91968 0.78315 0.0
C2777 C 0.29191 0.9387 0.78957 0.0
C2778 C 0.25971 0.91306 0.80566 0.0
C2779 C 0.27085 0.89617 0.76677 0.0
C2780 C 0.25728 0.89304 0.74557 0.0
C2781 C 0.25494 0.87205 0.72814 0.0
C2782 C 0.26667 0.85428 0.73211 0.0
C2783 C 0.28153 0.8571 0.75316 0.0
C2784 C 0.28343 0.87875 0.77076 0.0
H2785 H 0.40084 0.94785 0.99674 0.0
H2786 H 0.38198 1.01076 0.03211 0.0
H2787 H 0.42118 0.03368 0.0432 0.0
H2788 H 0.45032 0.95453 0.03816 0.0
H2789 H 0.46543 0.94568 0.01493 0.0
H2790 H 0.43597 0.93349 1.01149 0.0
H2791 H 0.43269 0.94986 0.97183 0.0
H2792 H 0.46209 0.96239 0.97532 0.0
H2793 H 0.44434 0.9822 0.97152 0.0
H2794 H 0.46117 0.04999 0.04887 0.0
H2795 H 0.50119 0.0597 0.04877 0.0
H2796 H 0.49441 0.98664 1.00896 0.0
C2797 C 0.40505 0.96646 1.00683 0.0
C2798 C 0.3887 0.97784 0.01345 0.0
C2799 C 0.3945 1.0021 0.02658 0.0
C2800 C 0.41659 1.01507 0.03315 0.0
C2801 C 0.43236 1.00343 0.02615 0.0
C2802 C 0.42696 0.97973 0.01325 0.0
C2803 C 0.44712 0.97208 1.00688 0.0
C2804 C 0.44986 0.95015 0.01858 0.0
C2805 C 0.44652 0.9663 0.97978 0.0
C2806 C 0.46467 0.99545 0.01781 0.0
C2807 C 0.45572 1.0131 0.0291 0.0
C2808 C 0.46844 0.03634 0.0403 0.0
C2809 C 0.49104 0.04164 0.04017 0.0
C2810 C 0.50046 0.02375 0.02899 0.0
C2811 C 0.48727 1.00051 0.01742 0.0
H2812 H 0.90929 0.58725 0.76905 0.0
H2813 H 0.89911 0.59786 0.84303 0.0
H2814 H 0.87658 0.6263 0.8348 0.0
H2815 H 0.91584 0.65135 0.76374 0.0
H2816 H 0.90292 0.64429 0.73327 0.0
H2817 H 0.91737 0.62392 0.74457 0.0
H2818 H 0.88239 0.58726 0.7316 0.0
H2819 H 0.86789 0.60757 0.72029 0.0
H2820 H 0.8569 0.58959 0.7419 0.0
H2821 H 0.85496 0.65156 0.81889 0.0
H2822 H 0.83695 0.67666 0.79671 0.0
H2823 H 0.86319 0.6525 0.73321 0.0
C2824 C 0.90197 0.59534 0.78336 0.0
C2825 C 0.90519 0.59016 0.80653 0.0
C2826 C 0.89632 0.60155 0.82518 0.0
C2827 C 0.88364 0.61761 0.82065 0.0
C2828 C 0.88068 0.62232 0.79758 0.0
C2829 C 0.88984 0.61191 0.77929 0.0
C2830 C 0.88519 0.62135 0.75651 0.0
C2831 C 0.9066 0.63611 0.7491 0.0
C2832 C 0.87232 0.60017 0.7364 0.0
C2833 C 0.87122 0.63802 0.76473 0.0
C2834 C 0.86896 0.6382 0.78851 0.0
C2835 C 0.85669 0.65179 0.80036 0.0
C2836 C 0.84655 0.66585 0.78767 0.0
C2837 C 0.84892 0.6663 0.7635 0.0
C2838 C 0.86125 0.65221 0.7517 0.0
H2839 H 0.88526 0.69467 0.05474 0.0
H2840 H 0.83746 0.62574 0.0221 0.0
H2841 H 0.86489 0.60297 0.02999 0.0
H2842 H 0.93361 0.68087 0.03436 0.0
H2843 H 0.9516 0.69456 0.06189 0.0
H2844 H 0.92835 0.70595 0.05396 0.0
H2845 H 0.91467 0.69836 0.09391 0.0
H2846 H 0.93779 0.68666 0.10173 0.0
H2847 H 0.91018 0.66801 0.10154 0.0
H2848 H 0.89564 0.58731 0.04141 0.0
H2849 H 0.931 0.57894 0.05259 0.0
H2850 H 0.9612 0.65724 0.07759 0.0
C2851 C 0.88085 0.67484 0.04898 0.0
C2852 C 0.85941 0.6618 0.03742 0.0
C2853 C 0.85387 0.63589 0.03069 0.0
C2854 C 0.86927 0.62284 0.03526 0.0
C2855 C 0.8901 0.63596 0.04692 0.0
C2856 C 0.89614 0.66135 0.05368 0.0
C2857 C 0.91986 0.67041 0.06611 0.0
C2858 C 0.9342 0.68904 0.05329 0.0
C2859 C 0.92066 0.68152 0.09238 0.0
C2860 C 0.92635 0.64621 0.06387 0.0
C2861 C 0.90854 0.62667 0.05341 0.0
C2862 C 0.90975 0.60238 0.04961 0.0
C2863 C 0.92986 0.5978 0.05611 0.0
C2864 C 0.94864 0.61737 0.066 0.0
C2865 C 0.94696 0.64198 0.07013 0.0
H2866 H 0.24318 0.10112 0.7544 0.0
H2867 H 0.2203 0.11505 0.82248 0.0
H2868 H 0.23714 0.15963 0.82553 0.0
H2869 H 0.29572 0.14803 0.76774 0.0
H2870 H 0.29443 0.15737 0.73907 0.0
H2871 H 0.28032 0.12639 0.74188 0.0
H2872 H 0.24401 0.13228 0.72254 0.0
H2873 H 0.25798 0.16343 0.71994 0.0
H2874 H 0.23424 0.15774 0.7353 0.0
H2875 H 0.25605 0.20474 0.8211 0.0
H2876 H 0.2788 0.24376 0.81178 0.0
H2877 H 0.29197 0.20253 0.74786 0.0
C2878 C 0.24205 0.11343 0.7702 0.0
C2879 C 0.23033 0.10367 0.78841 0.0
C2880 C 0.22905 0.12124 0.80826 0.0
C2881 C 0.23857 0.14698 0.81013 0.0
C2882 C 0.2496 0.15594 0.79195 0.0
C2883 C 0.25155 0.13964 0.77237 0.0
C2884 C 0.26428 0.15446 0.75533 0.0
C2885 C 0.28493 0.14607 0.75075 0.0
C2886 C 0.24924 0.15181 0.73188 0.0
C2887 C 0.27025 0.18125 0.76899 0.0
C2888 C 0.26088 0.18173 0.7897 0.0
C2889 C 0.26341 0.20436 0.80487 0.0
C2890 C 0.27623 0.22674 0.79927 0.0
C2891 C 0.28705 0.22693 0.77879 0.0
C2892 C 0.28372 0.20352 0.76347 0.0
H2893 H 0.43245 0.95848 0.33211 0.0
H2894 H 0.43424 0.98507 0.26523 0.0
H2895 H 0.3969 0.95799 0.25051 0.0
H2896 H 0.39844 0.89353 0.30585 0.0
H2897 H 0.38549 0.89232 0.33239 0.0
H2898 H 0.41348 0.91038 0.33411 0.0
H2899 H 0.40157 0.94792 0.35505 0.0
H2900 H 0.37319 0.93035 0.35109 0.0
H2901 H 0.38077 0.95862 0.33941 0.0
H2902 H 0.35865 0.9307 0.24481 0.0
H2903 H 0.32582 0.89625 0.2446 0.0
H2904 H 0.34819 0.8931 0.31754 0.0
C2905 C 0.42544 0.95735 0.31388 0.0
C2906 C 0.4359 0.9733 0.29964 0.0
C2907 C 0.42638 0.97225 0.27605 0.0
C2908 C 0.40505 0.95748 0.2678 0.0
C2909 C 0.39411 0.94391 0.28338 0.0
C2910 C 0.40427 0.94291 0.3055 0.0
C2911 C 0.38898 0.92719 0.31899 0.0
C2912 C 0.39706 0.90452 0.32305 0.0
C2913 C 0.38597 0.94193 0.34252 0.0
C2914 C 0.36838 0.92014 0.30134 0.0
C2915 C 0.37162 0.92986 0.28084 0.0
C2916 C 0.35578 0.92309 0.26079 0.0
C2917 C 0.33712 0.90386 0.26091 0.0
C2918 C 0.33492 0.89226 0.28103 0.0
C2919 C 0.34944 0.90209 0.30215 0.0
H2920 H 0.6176 0.41399 0.62319 0.0
H2921 H 0.59981 0.359 0.5588 0.0
H2922 H 0.58647 0.38835 0.53728 0.0
H2923 H 0.57333 0.44268 0.61462 0.0
H2924 H 0.59035 0.47367 0.62562 0.0
H2925 H 0.59732 0.44795 0.6363 0.0
H2926 H 0.63613 0.46137 0.62363 0.0
H2927 H 0.62925 0.48717 0.61305 0.0
H2928 H 0.63858 0.46543 0.59336 0.0
H2929 H 0.57329 0.42349 0.52328 0.0
H2930 H 0.56614 0.46307 0.51661 0.0
H2931 H 0.59642 0.49681 0.58866 0.0
C2932 C 0.61078 0.40817 0.6046 0.0
C2933 C 0.60945 0.38412 0.59268 0.0
C2934 C 0.60085 0.3773 0.56824 0.0
C2935 C 0.59318 0.39383 0.55591 0.0
C2936 C 0.59467 0.41742 0.56811 0.0
C2937 C 0.60366 0.42477 0.5918 0.0
C2938 C 0.60464 0.45168 0.6003 0.0
C2939 C 0.59057 0.45413 0.6204 0.0
C2940 C 0.62858 0.46733 0.60804 0.0
C2941 C 0.59467 0.45825 0.57784 0.0
C2942 C 0.58863 0.43811 0.55957 0.0
C2943 C 0.57821 0.43943 0.53742 0.0
C2944 C 0.57412 0.46195 0.53379 0.0
C2945 C 0.58091 0.48306 0.552 0.0
C2946 C 0.59131 0.48106 0.57429 0.0
H2947 H 0.46856 0.83353 0.36905 0.0
H2948 H 0.45065 0.75378 0.36252 0.0
H2949 H 0.41385 0.75145 0.34208 0.0
H2950 H 0.41339 0.83949 0.38 0.0
H2951 H 0.41494 0.86485 0.36415 0.0
H2952 H 0.4397 0.86046 0.37893 0.0
H2953 H 0.45626 0.85933 0.33949 0.0
H2954 H 0.43166 0.86391 0.32471 0.0
H2955 H 0.4412 0.8377 0.31347 0.0
H2956 H 0.37877 0.75765 0.32138 0.0
H2957 H 0.34969 0.77158 0.30002 0.0
H2958 H 0.38977 0.84727 0.31912 0.0
C2959 C 0.45692 0.81556 0.36325 0.0
C2960 C 0.46272 0.79376 0.36736 0.0
C2961 C 0.44677 0.77072 0.35969 0.0
C2962 C 0.42572 0.76923 0.34808 0.0
C2963 C 0.42047 0.791 0.34447 0.0
C2964 C 0.43561 0.81377 0.35187 0.0
C2965 C 0.42572 0.83432 0.34576 0.0
C2966 C 0.4233 0.85076 0.36856 0.0
C2967 C 0.43953 0.84971 0.3299 0.0
C2968 C 0.40317 0.81951 0.33251 0.0
C2969 C 0.40027 0.79457 0.3326 0.0
C2970 C 0.38084 0.77716 0.3215 0.0
C2971 C 0.36423 0.78527 0.3096 0.0
C2972 C 0.36698 0.8106 0.30854 0.0
C2973 C 0.38679 0.8279 0.32028 0.0
H2974 H 0.08453 0.74805 0.06289 0.0
H2975 H 0.11448 0.75748 0.13621 0.0
H2976 H 0.11553 0.71448 0.13018 0.0
H2977 H 0.04971 0.68799 0.05976 0.0
H2978 H 0.05322 0.67586 0.03002 0.0
H2979 H 0.05639 0.70844 0.03872 0.0
H2980 H 0.09546 0.71805 0.02635 0.0
H2981 H 0.09238 0.68544 0.01757 0.0
H2982 H 0.11543 0.70409 0.03883 0.0
H2983 H 0.11261 0.67144 0.11821 0.0
H2984 H 0.10433 0.62757 0.10004 0.0
H2985 H 0.07461 0.64291 0.03469 0.0
C2986 C 0.09154 0.741 0.07743 0.0
C2987 C 0.09921 0.756 0.10004 0.0
C2988 C 0.10819 0.74622 0.1188 0.0
C2989 C 0.10905 0.72184 0.11558 0.0
C2990 C 0.10098 0.70734 0.09343 0.0
C2991 C 0.0924 0.71627 0.07457 0.0
C2992 C 0.08402 0.69578 0.05304 0.0
C2993 C 0.05936 0.69179 0.04492 0.0
C2994 C 0.09763 0.70117 0.03274 0.0
C2995 C 0.08836 0.67402 0.06331 0.0
C2996 C 0.0987 0.6815 0.08648 0.0
C2997 C 0.10467 0.66525 0.10002 0.0
C2998 C 0.09995 0.64048 0.08959 0.0
C2999 C 0.08901 0.63225 0.06611 0.0
C3000 C 0.08303 0.64906 0.05272 0.0
H3001 H 0.1037 0.3208 0.88698 0.0
H3002 H 0.08805 0.24171 0.88559 0.0
H3003 H 0.12439 0.24121 0.8745 0.0
H3004 H 0.13009 0.3205 0.83581 0.0
H3005 H 0.15171 0.34863 0.84627 0.0
H3006 H 0.12591 0.3443 0.85787 0.0
H3007 H 0.14643 0.3522 0.90059 0.0
H3008 H 0.17232 0.35654 0.88903 0.0
H3009 H 0.16474 0.33391 0.90784 0.0
H3010 H 0.16032 0.24747 0.86068 0.0
H3011 H 0.19323 0.25958 0.84144 0.0
H3012 H 0.18731 0.33476 0.84914 0.0
C3013 C 0.10816 0.30352 0.88466 0.0
C3014 C 0.09292 0.28119 0.88713 0.0
C3015 C 0.09927 0.25894 0.88363 0.0
C3016 C 0.12001 0.2585 0.87752 0.0
C3017 C 0.13445 0.28046 0.87467 0.0
C3018 C 0.12894 0.30264 0.87797 0.0
C3019 C 0.14714 0.32296 0.87149 0.0
C3020 C 0.13817 0.33478 0.85167 0.0
C3021 C 0.15831 0.34256 0.89355 0.0
C3022 C 0.16288 0.30828 0.86284 0.0
C3023 C 0.15544 0.28401 0.86568 0.0
C3024 C 0.16649 0.2665 0.85858 0.0
C3025 C 0.18538 0.27366 0.84774 0.0
C3026 C 0.19322 0.29819 0.84374 0.0
C3027 C 0.18185 0.31582 0.8518 0.0
H3028 H 0.58627 0.77551 0.925 0.0
H3029 H 0.6553 0.79867 0.95568 0.0
H3030 H 0.64965 0.76311 0.97585 0.0
H3031 H 0.56534 0.75501 0.97639 0.0
H3032 H 0.54435 0.72839 0.96034 0.0
H3033 H 0.55342 0.75502 0.94659 0.0
H3034 H 0.56269 0.72747 0.91118 0.0
H3035 H 0.55366 0.70077 0.9249 0.0
H3036 H 0.58095 0.7086 0.9167 0.0
H3037 H 0.63795 0.72716 0.99315 0.0
H3038 H 0.61935 0.69097 1.00921 0.0
H3039 H 0.55707 0.68958 0.9696 0.0
C3040 C 0.60015 0.77288 0.93584 0.0
C3041 C 0.62125 0.78985 0.93876 0.0
C3042 C 0.639 0.78601 0.95321 0.0
C3043 C 0.63602 0.76579 0.96469 0.0
C3044 C 0.61518 0.74954 0.96162 0.0
C3045 C 0.59743 0.75266 0.94772 0.0
C3046 C 0.57668 0.73247 0.94853 0.0
C3047 C 0.55891 0.74339 0.95857 0.0
C3048 C 0.56799 0.71638 0.92386 0.0
C3049 C 0.58572 0.71813 0.96554 0.0
C3050 C 0.60806 0.72829 0.97239 0.0
C3051 C 0.62049 0.71884 0.98791 0.0
C3052 C 0.60983 0.69832 0.99686 0.0
C3053 C 0.58697 0.68762 0.9904 0.0
C3054 C 0.57461 0.69758 0.97462 0.0
H3055 H 0.06951 0.74862 0.71067 0.0
H3056 H 0.08031 0.81468 0.67928 0.0
H3057 H 0.1207 0.82213 0.68912 0.0
H3058 H 0.11511 0.76931 0.75862 0.0
H3059 H 0.12122 0.7398 0.75519 0.0
H3060 H 0.09345 0.74132 0.74759 0.0
H3061 H 0.0922 0.71718 0.7053 0.0
H3062 H 0.12003 0.71576 0.71263 0.0
H3063 H 0.11283 0.72886 0.68727 0.0
H3064 H 0.15957 0.82085 0.70089 0.0
H3065 H 0.19434 0.81139 0.71433 0.0
H3066 H 0.15694 0.7448 0.73565 0.0
C3067 C 0.0805 0.76503 0.70662 0.0
C3068 C 0.07235 0.78164 0.69508 0.0
C3069 C 0.08673 0.80231 0.6888 0.0
C3070 C 0.10951 0.80653 0.69417 0.0
C3071 C 0.11721 0.78956 0.70535 0.0
C3072 C 0.10312 0.7692 0.71144 0.0
C3073 C 0.1154 0.75277 0.7217 0.0
C3074 C 0.11104 0.7507 0.7473 0.0
C3075 C 0.10978 0.72714 0.70577 0.0
C3076 C 0.13863 0.76734 0.72095 0.0
C3077 C 0.13942 0.78841 0.71136 0.0
C3078 C 0.15922 0.80447 0.70854 0.0
C3079 C 0.17878 0.79892 0.71606 0.0
C3080 C 0.17814 0.77754 0.72621 0.0
C3081 C 0.15783 0.76153 0.72841 0.0
H3082 H 0.13438 0.44649 0.4486 0.0
H3083 H 0.08912 0.38479 0.47012 0.0
H3084 H 0.07052 0.41292 0.48999 0.0
H3085 H 0.14288 0.48713 0.50146 0.0
H3086 H 0.14308 0.51458 0.48915 0.0
H3087 H 0.15075 0.48957 0.47236 0.0
H3088 H 0.12103 0.4878 0.43738 0.0
H3089 H 0.11316 0.51273 0.45432 0.0
H3090 H 0.09285 0.48391 0.44244 0.0
H3091 H 0.05802 0.44591 0.50958 0.0
H3092 H 0.05653 0.48439 0.53468 0.0
H3093 H 0.11102 0.52601 0.50444 0.0
C3094 C 0.12055 0.43903 0.45749 0.0
C3095 C 0.11317 0.41345 0.45771 0.0
C3096 C 0.09508 0.40429 0.4696 0.0
C3097 C 0.08411 0.42005 0.48066 0.0
C3098 C 0.09146 0.44499 0.47987 0.0
C3099 C 0.10943 0.45468 0.469 0.0
C3100 C 0.11531 0.48268 0.47355 0.0
C3101 C 0.13943 0.49414 0.48482 0.0
C3102 C 0.11029 0.49234 0.45056 0.0
C3103 C 0.09939 0.48683 0.49073 0.0
C3104 C 0.08493 0.46479 0.49281 0.0
C3105 C 0.06911 0.46337 0.50809 0.0
C3106 C 0.06848 0.48511 0.52234 0.0
C3107 C 0.08397 0.50749 0.5215 0.0
C3108 C 0.09929 0.5087 0.50528 0.0
H3109 H 0.45702 0.24404 0.23531 0.0
H3110 H 0.45726 0.27637 0.17123 0.0
H3111 H 0.42574 0.29184 0.18131 0.0
H3112 H 0.39725 0.22534 0.23534 0.0
H3113 H 0.40129 0.2331 0.26736 0.0
H3114 H 0.42192 0.2232 0.25235 0.0
H3115 H 0.44981 0.26394 0.27585 0.0
H3116 H 0.42811 0.27412 0.28861 0.0
H3117 H 0.44546 0.29328 0.27173 0.0
H3118 H 0.39707 0.30665 0.19971 0.0
H3119 H 0.36845 0.31549 0.22319 0.0
H3120 H 0.38583 0.27184 0.27409 0.0
C3121 C 0.45029 0.25412 0.22326 0.0
C3122 C 0.45958 0.25932 0.20271 0.0
C3123 C 0.45043 0.27253 0.18728 0.0
C3124 C 0.43258 0.28133 0.19279 0.0
C3125 C 0.42427 0.27657 0.21364 0.0
C3126 C 0.43255 0.26299 0.22845 0.0
C3127 C 0.42102 0.2611 0.25012 0.0
C3128 C 0.40967 0.23407 0.2513 0.0
C3129 C 0.43706 0.27387 0.27292 0.0
C3130 C 0.40466 0.27542 0.24492 0.0
C3131 C 0.40718 0.28461 0.22403 0.0
C3132 C 0.39475 0.29945 0.21599 0.0
C3133 C 0.37883 0.30455 0.22945 0.0
C3134 C 0.37553 0.2944 0.25023 0.0
C3135 C 0.38847 0.27978 0.25822 0.0
H3136 H 0.62514 0.51197 0.364 0.0
H3137 H 0.66656 0.58719 0.37723 0.0
H3138 H 0.65507 0.59389 0.41705 0.0
H3139 H 0.57995 0.5281 0.39343 0.0
H3140 H 0.57243 0.49991 0.40522 0.0
H3141 H 0.58471 0.50024 0.37822 0.0
H3142 H 0.61508 0.48314 0.39681 0.0
H3143 H 0.60294 0.48293 0.42391 0.0
H3144 H 0.63138 0.49935 0.42469 0.0
H3145 H 0.64005 0.59208 0.45841 0.0
H3146 H 0.61919 0.58397 0.49221 0.0
H3147 H 0.58345 0.51204 0.45197 0.0
C3148 C 0.63193 0.52987 0.37527 0.0
C3149 C 0.64739 0.54897 0.36684 0.0
C3150 C 0.65504 0.57207 0.38261 0.0
C3151 C 0.64855 0.57606 0.40561 0.0
C3152 C 0.63359 0.55707 0.41339 0.0
C3153 C 0.62492 0.53451 0.39836 0.0
C3154 C 0.60785 0.51783 0.4106 0.0
C3155 C 0.58487 0.51112 0.396 0.0
C3156 C 0.61472 0.49442 0.41421 0.0
C3157 C 0.60855 0.53426 0.43478 0.0
C3158 C 0.62385 0.55671 0.4362 0.0
C3159 C 0.62796 0.57452 0.45713 0.0
C3160 C 0.61607 0.56967 0.47663 0.0
C3161 C 0.59954 0.54725 0.47559 0.0
C3162 C 0.59598 0.5294 0.45397 0.0
H3163 H 0.32607 0.9298 0.0856 0.0
H3164 H 0.33682 0.87208 0.03351 0.0
H3165 H 0.36214 0.86274 0.06388 0.0
H3166 H 0.38199 0.9505 0.11879 0.0
H3167 H 0.37208 0.95508 0.14703 0.0
H3168 H 0.35666 0.95915 0.12057 0.0
H3169 H 0.32186 0.92708 0.12798 0.0
H3170 H 0.33697 0.92394 0.15484 0.0
H3171 H 0.32387 0.89699 0.13258 0.0
H3172 H 0.38329 0.85739 0.09943 0.0
H3173 H 0.38886 0.84748 0.13907 0.0
H3174 H 0.36841 0.91137 0.16882 0.0
C3175 C 0.33358 0.91498 0.08073 0.0
C3176 C 0.32948 0.90157 0.05737 0.0
C3177 C 0.33946 0.88228 0.05149 0.0
C3178 C 0.35436 0.87736 0.06841 0.0
C3179 C 0.35906 0.89195 0.09094 0.0
C3180 C 0.3485 0.90989 0.09731 0.0
C3181 C 0.35405 0.92056 0.12348 0.0
C3182 C 0.36697 0.94795 0.12769 0.0
C3183 C 0.33296 0.91689 0.13542 0.0
C3184 C 0.36845 0.90475 0.13113 0.0
C3185 C 0.37182 0.88905 0.11188 0.0
C3186 C 0.38118 0.86981 0.11465 0.0
C3187 C 0.38461 0.8645 0.13744 0.0
C3188 C 0.37837 0.8783 0.15686 0.0
C3189 C 0.37304 0.90046 0.15409 0.0
H3190 H 0.02215 0.59366 0.89252 0.0
H3191 H 0.96484 0.53143 0.88552 0.0
H3192 H 0.97583 0.52584 0.92652 0.0
H3193 H 0.05741 0.56822 0.91739 0.0
H3194 H 0.07426 0.59525 0.93749 0.0
H3195 H 0.059 0.59864 0.91081 0.0
H3196 H 0.03934 0.62673 0.93528 0.0
H3197 H 0.05511 0.62406 0.96214 0.0
H3198 H 0.0255 0.616 0.95926 0.0
H3199 H 0.99741 0.52214 0.96421 0.0
H3200 H 0.02618 0.52232 0.99649 0.0
H3201 H 0.06929 0.58705 0.97788 0.0
C3202 C 1.01138 0.57979 0.90023 0.0
C3203 C 0.99256 0.56339 0.88655 0.0
C3204 C 0.97902 0.54463 0.89637 0.0
C3205 C 0.9852 0.54128 0.9195 0.0
C3206 C 1.00464 0.55718 0.93232 0.0
C3207 C 0.01724 0.5764 0.92316 0.0
C3208 C 0.03882 0.5888 0.93878 0.0
C3209 C 0.05851 0.58763 0.92531 0.0
C3210 C 0.03975 0.61549 0.94951 0.0
C3211 C 0.03713 0.57273 0.95744 0.0
C3212 C 0.01717 0.55484 0.95377 0.0
C3213 C 1.01281 0.53649 0.96762 0.0
C3214 C 0.02927 0.53666 0.98575 0.0
C3215 C 0.04977 0.55485 0.98948 0.0
C3216 C 0.05366 0.57312 0.97534 0.0
H3217 H 0.31449 0.21485 0.59697 0.0
H3218 H 0.31574 0.28128 0.56761 0.0
H3219 H 0.31589 0.30384 0.60809 0.0
H3220 H 0.27755 0.22321 0.63753 0.0
H3221 H 0.29043 0.21064 0.66027 0.0
H3222 H 0.29202 0.2004 0.62948 0.0
H3223 H 0.33457 0.21253 0.6381 0.0
H3224 H 0.3331 0.22232 0.669 0.0
H3225 H 0.34921 0.24345 0.65275 0.0
H3226 H 0.31313 0.31809 0.6521 0.0
H3227 H 0.31136 0.32361 0.69553 0.0
H3228 H 0.31255 0.24773 0.69505 0.0
C3229 C 0.3151 0.23426 0.5989 0.0
C3230 C 0.31507 0.24626 0.57893 0.0
C3231 C 0.31571 0.27163 0.58253 0.0
C3232 C 0.31574 0.28456 0.60547 0.0
C3233 C 0.31506 0.27183 0.62458 0.0
C3234 C 0.31499 0.24726 0.62146 0.0
C3235 C 0.31353 0.23735 0.64452 0.0
C3236 C 0.29212 0.21668 0.64284 0.0
C3237 C 0.33382 0.22841 0.6515 0.0
C3238 C 0.31313 0.26028 0.66136 0.0
C3239 C 0.31371 0.27994 0.64955 0.0
C3240 C 0.31274 0.30282 0.66145 0.0
C3241 C 0.31151 0.30575 0.68602 0.0
C3242 C 0.31156 0.28602 0.69841 0.0
C3243 C 0.31234 0.26305 0.68588 0.0
H3244 H 0.6376 0.49381 0.20216 0.0
H3245 H 0.66201 0.56998 0.23822 0.0
H3246 H 0.6488 0.58389 0.20233 0.0
H3247 H 0.64795 0.5021 0.14268 0.0
H3248 H 0.62226 0.48162 0.12731 0.0
H3249 H 0.63352 0.4767 0.15564 0.0
H3250 H 0.59739 0.4783 0.17209 0.0
H3251 H 0.58609 0.48315 0.14372 0.0
H3252 H 0.58688 0.50472 0.17032 0.0
H3253 H 0.63403 0.59082 0.16184 0.0
H3254 H 0.61699 0.58984 0.12118 0.0
H3255 H 0.59927 0.50972 0.1089 0.0
C3256 C 0.64002 0.51341 0.20259 0.0
C3257 C 0.65105 0.53073 0.22379 0.0
C3258 C 0.65355 0.55613 0.22291 0.0
C3259 C 0.64613 0.56432 0.20232 0.0
C3260 C 0.63543 0.54711 0.18202 0.0
C3261 C 0.63192 0.52207 0.18199 0.0
C3262 C 0.61884 0.50776 0.15775 0.0
C3263 C 0.63141 0.49106 0.1451 0.0
C3264 C 0.59594 0.49257 0.16118 0.0
C3265 C 0.61678 0.52863 0.14395 0.0
C3266 C 0.62632 0.55115 0.1586 0.0
C3267 C 0.62644 0.5732 0.15038 0.0
C3268 C 0.61659 0.57246 0.12696 0.0
C3269 C 0.60652 0.54985 0.11111 0.0
C3270 C 0.60678 0.52753 0.12009 0.0
H3271 H 0.31539 0.9008 0.91291 0.0
H3272 H 0.36458 0.87418 0.95102 0.0
H3273 H 0.37264 0.85452 0.91334 0.0
H3274 H 0.29248 0.84904 0.87409 0.0
H3275 H 0.28755 0.86244 0.8482 0.0
H3276 H 0.28941 0.87999 0.87729 0.0
H3277 H 0.32047 0.91509 0.8677 0.0
H3278 H 0.3185 0.89757 0.83838 0.0
H3279 H 0.34457 0.90817 0.85743 0.0
H3280 H 0.36887 0.82949 0.87475 0.0
H3281 H 0.3549 0.80255 0.83554 0.0
H3282 H 0.3102 0.84655 0.8208 0.0
C3283 C 0.32825 0.8914 0.91316 0.0
C3284 C 0.33914 0.88866 0.93473 0.0
C3285 C 0.35577 0.87613 0.93461 0.0
C3286 C 0.36073 0.8652 0.9133 0.0
C3287 C 0.34912 0.86727 0.8923 0.0
C3288 C 0.33344 0.88036 0.89191 0.0
C3289 C 0.32121 0.87672 0.86716 0.0
C3290 C 0.2962 0.86642 0.86668 0.0
C3291 C 0.32652 0.90082 0.85708 0.0
C3292 C 0.33117 0.85788 0.85439 0.0
C3293 C 0.3476 0.85313 0.8691 0.0
C3294 C 0.35668 0.83359 0.86265 0.0
C3295 C 0.34855 0.81826 0.84065 0.0
C3296 C 0.33187 0.82298 0.82558 0.0
C3297 C 0.32347 0.84327 0.83211 0.0
H3298 H 1.00099 0.53611 0.76181 0.0
H3299 H 0.96541 0.58742 0.74171 0.0
H3300 H 0.95697 0.56445 0.70044 0.0
H3301 H 0.02745 0.52819 0.71503 0.0
H3302 H 0.0233 0.49526 0.71281 0.0
H3303 H 0.02276 0.51365 0.74066 0.0
H3304 H 0.98423 0.48495 0.74221 0.0
H3305 H 0.98438 0.46729 0.71348 0.0
H3306 H 0.96216 0.48097 0.71855 0.0
H3307 H 0.95445 0.53865 0.66215 0.0
H3308 H 0.97307 0.52703 0.62869 0.0
H3309 H 1.01024 0.49207 0.67294 0.0
C3310 C 0.99211 0.54295 0.74842 0.0
C3311 C 0.98442 0.56389 0.75446 0.0
C3312 C 0.97202 0.57182 0.73698 0.0
C3313 C 0.96638 0.5583 0.71387 0.0
C3314 C 0.97281 0.53659 0.70885 0.0
C3315 C 0.9859 0.52933 0.72549 0.0
C3316 C 0.99313 0.50732 0.7148 0.0
C3317 C 0.01814 0.51141 0.72115 0.0
C3318 C 0.98021 0.48375 0.72273 0.0
C3319 C 0.98589 0.50672 0.68873 0.0
C3320 C 0.97189 0.52168 0.68603 0.0
C3321 C 0.96526 0.52684 0.66397 0.0
C3322 C 0.97584 0.52003 0.64496 0.0
C3323 C 0.99375 0.50988 0.64896 0.0
C3324 C 0.99668 0.50005 0.66979 0.0
H3325 H 0.29992 0.27071 0.44498 0.0
H3326 H 0.32243 0.20487 0.42985 0.0
H3327 H 0.32696 0.21278 0.38916 0.0
H3328 H 0.27001 0.26643 0.38747 0.0
H3329 H 0.27851 0.29912 0.3872 0.0
H3330 H 0.2767 0.2882 0.41504 0.0
H3331 H 0.31732 0.31241 0.42995 0.0
H3332 H 0.31911 0.32365 0.40229 0.0
H3333 H 0.33839 0.30759 0.41235 0.0
H3334 H 0.32709 0.227 0.34837 0.0
H3335 H 0.32818 0.24965 0.31435 0.0
H3336 H 0.30823 0.30744 0.35705 0.0
C3337 C 0.30584 0.25796 0.43314 0.0
C3338 C 0.31061 0.23696 0.44076 0.0
C3339 C 0.3186 0.22102 0.42462 0.0
C3340 C 0.32113 0.22532 0.40133 0.0
C3341 C 0.31592 0.24589 0.39425 0.0
C3342 C 0.30887 0.26224 0.40991 0.0
C3343 C 0.30534 0.28359 0.39827 0.0
C3344 C 0.2812 0.28437 0.39693 0.0
C3345 C 0.32097 0.30827 0.4115 0.0
C3346 C 0.31125 0.27656 0.37362 0.0
C3347 C 0.31701 0.25457 0.37144 0.0
C3348 C 0.32266 0.24428 0.35 0.0
C3349 C 0.32298 0.25707 0.3306 0.0
C3350 C 0.31799 0.28011 0.33284 0.0
C3351 C 0.3119 0.28971 0.35465 0.0
H3352 H 0.36453 0.6096 0.55568 0.0
H3353 H 0.34306 0.61811 0.48426 0.0
H3354 H 0.37731 0.61051 0.4713 0.0
H3355 H 0.42286 0.64108 0.55465 0.0
H3356 H 0.43245 0.62156 0.57282 0.0
H3357 H 0.40665 0.62861 0.57634 0.0
H3358 H 0.38648 0.58186 0.56898 0.0
H3359 H 0.41215 0.57465 0.56581 0.0
H3360 H 0.3892 0.5623 0.54238 0.0
H3361 H 0.41209 0.59856 0.46593 0.0
H3362 H 0.44469 0.58222 0.4681 0.0
H3363 H 0.44402 0.58434 0.54382 0.0
C3364 C 0.36707 0.60957 0.53729 0.0
C3365 C 0.35131 0.61369 0.52069 0.0
C3366 C 0.35511 0.61448 0.49695 0.0
C3367 C 0.37448 0.61048 0.48957 0.0
C3368 C 0.38995 0.60663 0.50647 0.0
C3369 C 0.38654 0.60641 0.52987 0.0
C3370 C 0.40554 0.60165 0.54448 0.0
C3371 C 0.41759 0.62459 0.56318 0.0
C3372 C 0.39788 0.57874 0.55607 0.0
C3373 C 0.41945 0.5973 0.52527 0.0
C3374 C 0.41046 0.60084 0.50358 0.0
C3375 C 0.41951 0.59608 0.48285 0.0
C3376 C 0.43789 0.58671 0.48422 0.0
C3377 C 0.44678 0.5821 0.50613 0.0
C3378 C 0.43783 0.5882 0.52696 0.0
H3379 H 0.91588 0.94151 0.51928 0.0
H3380 H 0.90814 0.97168 0.59077 0.0
H3381 H 0.94631 0.99807 0.59678 0.0
H3382 H 0.97333 0.94232 0.52959 0.0
H3383 H 0.98044 0.95322 0.50268 0.0
H3384 H 0.95277 0.93544 0.50379 0.0
H3385 H 0.93755 0.97036 0.49091 0.0
H3386 H 0.96514 0.98812 0.4895 0.0
H3387 H 0.94791 1.00129 0.50766 0.0
H3388 H 0.9851 1.0195 0.59637 0.0
H3389 H 0.02096 0.04195 0.58743 0.0
H3390 H 1.00472 1.00273 0.51459 0.0
C3391 C 0.92235 0.95368 0.53618 0.0
C3392 C 0.9091 0.9543 0.55478 0.0
C3393 C 0.91794 0.97082 0.5764 0.0
C3394 C 0.93968 0.98577 0.58 0.0
C3395 C 0.95242 0.98455 0.56161 0.0
C3396 C 0.94402 0.96953 0.53984 0.0
C3397 C 0.96103 0.97368 0.52261 0.0
C3398 C 0.96725 0.94973 0.51417 0.0
C3399 C 0.9524 0.98398 0.50142 0.0
C3400 C 0.98041 0.99292 0.53836 0.0
C3401 C 0.97491 0.99841 0.56086 0.0
C3402 C 0.98958 1.01539 0.57882 0.0
C3403 C 1.01008 0.02789 0.5736 0.0
C3404 C 0.01604 0.02381 0.55053 0.0
C3405 C 1.00105 1.00569 0.53263 0.0
H3406 H 0.87307 0.1204 0.25969 0.0
H3407 H 0.94191 0.16002 0.26624 0.0
H3408 H 0.93196 0.19967 0.2717 0.0
H3409 H 0.84871 0.16069 0.22982 0.0
H3410 H 0.82624 0.15954 0.24698 0.0
H3411 H 0.83847 0.13409 0.24332 0.0
H3412 H 0.84603 0.1379 0.28887 0.0
H3413 H 0.83376 0.16334 0.29265 0.0
H3414 H 0.86136 0.16715 0.30666 0.0
H3415 H 0.91392 0.2368 0.27478 0.0
H3416 H 0.89088 0.2659 0.2777 0.0
H3417 H 0.83294 0.20445 0.27246 0.0
C3418 C 0.88612 0.13739 0.26219 0.0
C3419 C 0.90861 0.13631 0.26205 0.0
C3420 C 0.92472 0.15956 0.26604 0.0
C3421 C 0.91912 0.1825 0.26916 0.0
C3422 C 0.89705 0.1829 0.26908 0.0
C3423 C 0.88079 0.16085 0.26618 0.0
C3424 C 0.85845 0.16675 0.26827 0.0
C3425 C 0.84199 0.15453 0.24575 0.0
C3426 C 0.84934 0.15826 0.29041 0.0
C3427 C 0.86437 0.19525 0.27125 0.0
C3428 C 0.88687 0.20414 0.27193 0.0
C3429 C 0.89635 0.2297 0.27439 0.0
C3430 C 0.8829 0.24639 0.27607 0.0
C3431 C 0.85964 0.23833 0.27551 0.0
C3432 C 0.8505 0.21195 0.27315 0.0
H3433 H 0.72835 0.14605 0.02094 0.0
H3434 H 0.74521 0.07614 0.01672 0.0
H3435 H 0.70754 0.0556 0.02247 0.0
H3436 H 0.69877 0.14039 0.06682 0.0
H3437 H 0.67762 0.15368 0.05592 0.0
H3438 H 0.70458 0.16252 0.04719 0.0
H3439 H 0.6873 0.15128 1.00434 0.0
H3440 H 0.65963 0.13891 1.01023 0.0
H3441 H 0.67282 0.11993 0.99173 0.0
H3442 H 0.6735 0.04577 0.03969 0.0
H3443 H 0.63714 0.04223 0.05285 0.0
H3444 H 0.64066 0.11714 0.04254 0.0
C3445 C 0.72391 0.12626 0.0204 0.0
C3446 C 0.73965 0.11269 0.01908 0.0
C3447 C 0.73333 0.08683 0.01807 0.0
C3448 C 0.71209 0.07506 0.02149 0.0
C3449 C 0.69764 0.08948 0.02535 0.0
C3450 C 0.70289 0.11427 0.02391 0.0
C3451 C 0.6845 0.12564 0.02956 0.0
C3452 C 0.69183 0.14679 0.05116 0.0
C3453 C 0.67542 0.13446 1.00768 0.0
C3454 C 0.66849 0.10343 0.03537 0.0
C3455 C 0.67674 0.08302 0.03338 0.0
C3456 C 0.66638 0.06123 0.04058 0.0
C3457 C 0.64615 0.05961 0.04857 0.0
C3458 C 0.63667 0.07951 0.04873 0.0
C3459 C 0.64798 0.10186 0.04258 0.0
H3460 H 0.25837 0.53513 0.27964 0.0
H3461 H 0.19101 0.49686 0.28534 0.0
H3462 H 0.20331 0.46113 0.29517 0.0
H3463 H 0.27278 0.482 0.25225 0.0
H3464 H 0.30057 0.49234 0.26748 0.0
H3465 H 0.28608 0.51457 0.26107 0.0
H3466 H 0.29338 0.53418 0.30583 0.0
H3467 H 0.30754 0.51172 0.3125 0.0
H3468 H 0.28452 0.51517 0.32748 0.0
H3469 H 0.2231 0.42926 0.30297 0.0
H3470 H 0.24917 0.40363 0.30752 0.0
H3471 H 0.30274 0.46429 0.29788 0.0
C3472 C 0.24619 0.51933 0.28309 0.0
C3473 C 0.22386 0.51872 0.28201 0.0
C3474 C 0.20832 0.49765 0.28634 0.0
C3475 C 0.2151 0.47733 0.29191 0.0
C3476 C 0.23737 0.47867 0.29308 0.0
C3477 C 0.25262 0.49909 0.28869 0.0
C3478 C 0.27548 0.49589 0.29048 0.0
C3479 C 0.28422 0.49621 0.26639 0.0
C3480 C 0.29114 0.5154 0.31026 0.0
C3481 C 0.2708 0.47057 0.29689 0.0
C3482 C 0.24874 0.46075 0.29815 0.0
C3483 C 0.24045 0.43683 0.30233 0.0
C3484 C 0.25522 0.42248 0.30487 0.0
C3485 C 0.27772 0.43244 0.30339 0.0
C3486 C 0.28562 0.45676 0.29976 0.0
H3487 H 0.28756 0.46408 0.02049 0.0
H3488 H 0.27098 0.41178 0.06804 0.0
H3489 H 0.23422 0.41919 0.06819 0.0
H3490 H 0.26335 0.50788 0.04592 0.0
H3491 H 0.25254 0.51545 0.01864 0.0
H3492 H 0.2763 0.50365 0.0196 0.0
H3493 H 0.25643 0.46834 0.98458 0.0
H3494 H 0.23255 0.4801 0.98361 0.0
H3495 H 0.22992 0.4485 0.98693 0.0
H3496 H 0.20064 0.4345 0.0659 0.0
H3497 H 0.17308 0.45796 0.06289 0.0
H3498 H 0.21137 0.50183 0.0178 0.0
C3499 C 0.27591 0.45383 0.03043 0.0
C3500 C 0.28186 0.43708 0.04402 0.0
C3501 C 0.26651 0.42437 0.05726 0.0
C3502 C 0.24561 0.42844 0.05742 0.0
C3503 C 0.2402 0.44521 0.04406 0.0
C3504 C 0.2548 0.45762 0.03066 0.0
C3505 C 0.2452 0.47576 0.01911 0.0
C3506 C 0.26024 0.50225 0.02627 0.0
C3507 C 0.24077 0.4677 0.99194 0.0
C3508 C 0.22372 0.47287 0.02951 0.0
C3509 C 0.2209 0.45459 0.04324 0.0
C3510 C 0.20267 0.44885 0.05517 0.0
C3511 C 0.18717 0.46251 0.05353 0.0
C3512 C 0.19006 0.48214 0.04043 0.0
C3513 C 0.20843 0.48689 0.02782 0.0
H3514 H 0.88604 0.98194 0.23937 0.0
H3515 H 0.9285 0.99965 0.30694 0.0
H3516 H 0.91188 0.95827 0.31517 0.0
H3517 H 0.83701 0.94431 0.25873 0.0
H3518 H 0.82948 0.92137 0.23195 0.0
H3519 H 0.84464 0.95254 0.23095 0.0
H3520 H 0.87462 0.936 0.21216 0.0
H3521 H 0.85966 0.90478 0.21342 0.0
H3522 H 0.88785 0.9168 0.22726 0.0
H3523 H 0.89153 0.91259 0.31604 0.0
H3524 H 0.86628 0.87047 0.31135 0.0
H3525 H 0.8343 0.88076 0.24503 0.0
C3526 C 0.89155 0.97738 0.25614 0.0
C3527 C 0.90884 0.99512 0.27257 0.0
C3528 C 0.9155 0.98722 0.29388 0.0
C3529 C 0.90611 0.96335 0.29877 0.0
C3530 C 0.88964 0.94636 0.28229 0.0
C3531 C 0.88219 0.95309 0.26143 0.0
C3532 C 0.86424 0.93082 0.2468 0.0
C3533 C 0.84255 0.93768 0.24182 0.0
C3534 C 0.87205 0.92157 0.22352 0.0
C3535 C 0.86206 0.91126 0.26312 0.0
C3536 C 0.87747 0.9204 0.28317 0.0
C3537 C 0.87938 0.90549 0.30035 0.0
C3538 C 0.86501 0.88119 0.29743 0.0
C3539 C 0.84821 0.87145 0.27768 0.0
C3540 C 0.84699 0.88709 0.26029 0.0
H3541 H 0.72013 0.16013 0.80616 0.0
H3542 H 0.70742 0.13075 0.73062 0.0
H3543 H 0.74274 0.15838 0.7251 0.0
H3544 H 0.74457 0.22307 0.79807 0.0
H3545 H 0.76374 0.23012 0.82491 0.0
H3546 H 0.73747 0.20804 0.82291 0.0
H3547 H 0.75671 0.17527 0.83366 0.0
H3548 H 0.78325 0.19696 0.83562 0.0
H3549 H 0.77684 0.16746 0.81608 0.0
H3550 H 0.77904 0.18843 0.72802 0.0
H3551 H 0.80854 0.22735 0.73718 0.0
H3552 H 0.79911 0.23407 0.8115 0.0
C3553 C 0.7245 0.1603 0.78839 0.0
C3554 C 0.71125 0.1439 0.76877 0.0
C3555 C 0.71732 0.14394 0.74571 0.0
C3556 C 0.73754 0.15896 0.74252 0.0
C3557 C 0.75108 0.1737 0.76259 0.0
C3558 C 0.74448 0.17517 0.78489 0.0
C3559 C 0.76109 0.19416 0.80312 0.0
C3560 C 0.75112 0.21506 0.81281 0.0
C3561 C 0.77 0.18274 0.8233 0.0
C3562 C 0.77838 0.20271 0.78769 0.0
C3563 C 0.7724 0.19059 0.76438 0.0
C3564 C 0.7841 0.19798 0.74621 0.0
C3565 C 0.80095 0.21997 0.75162 0.0
C3566 C 0.80545 0.2339 0.77491 0.0
C3567 C 0.79573 0.22382 0.79348 0.0
loop_
_geom_bond_atom_site_label_1
_geom_bond_atom_site_label_2
_geom_bond_distance
_geom_bond_site_symmetry_2
_ccdc_geom_bond_type
O0 Cd1 2.223 . S
O0 C8 1.315 . S
Cd1 O0 2.223 . S
Cd1 O4 2.297 . S
Cd1 O5 2.439 . S
Cd1 O11 2.240 . S
Cd2 O3 2.240 . S
Cd2 O10 2.223 . S
Cd2 O12 2.297 . S
Cd2 O13 2.439 . S
O3 Cd2 2.240 . S
O3 C8 1.279 . S
O4 Cd1 2.297 . S
O4 C6 1.247 . S
O5 Cd1 2.439 . S
O5 C6 1.208 . S
C6 O4 1.247 . S
C6 O5 1.208 . S
C7 O12 1.247 . S
C7 O13 1.208 . S
C8 O0 1.315 . S
C8 O3 1.279 . S
C9 O10 1.315 . S
C9 O11 1.279 . S
O10 Cd2 2.223 . S
O10 C9 1.315 . S
O11 Cd1 2.240 . S
O11 C9 1.279 . S
O12 Cd2 2.297 . S
O12 C7 1.247 . S
O13 Cd2 2.439 . S
O13 C7 1.208 . S
O14 Cd15 2.223 . S
O14 C22 1.315 . S
Cd15 O14 2.223 . S
Cd15 O18 2.297 . S
Cd15 O19 2.439 . S
Cd15 O25 2.240 1_655 S
Cd16 O17 2.240 1_455 S
Cd16 O24 2.223 . S
Cd16 O26 2.297 . S
Cd16 O27 2.453 . S
O17 Cd16 2.240 1_655 S
O17 C22 1.279 . S
O18 Cd15 2.297 . S
O18 C20 1.247 . S
O19 Cd15 2.439 . S
O19 C20 1.208 . S
C20 O18 1.247 . S
C20 O19 1.208 . S
C21 O26 1.247 . S
C21 O27 1.224 . S
C22 O14 1.315 . S
C22 O17 1.279 . S
C23 O24 1.315 . S
C23 O25 1.279 . S
O24 Cd16 2.223 . S
O24 C23 1.315 . S
O25 Cd15 2.240 1_455 S
O25 C23 1.279 . S
O26 Cd16 2.297 . S
O26 C21 1.247 . S
O27 Cd16 2.453 . S
O27 C21 1.224 . S
O28 Cd29 2.223 . S
O28 C36 1.315 . S
Cd29 O28 2.223 . S
Cd29 O32 2.297 . S
Cd29 O33 2.439 . S
Cd29 O39 2.240 . S
Cd30 O31 2.240 . S
Cd30 O38 2.223 . S
Cd30 O40 2.297 . S
Cd30 O41 2.439 . S
O31 Cd30 2.240 . S
O31 C36 1.279 . S
O32 Cd29 2.297 . S
O32 C34 1.247 . S
O33 Cd29 2.439 . S
O33 C34 1.208 . S
C34 O32 1.247 . S
C34 O33 1.208 . S
C35 O40 1.247 . S
C35 O41 1.208 . S
C36 O28 1.315 . S
C36 O31 1.279 . S
C37 O38 1.315 . S
C37 O39 1.279 . S
O38 Cd30 2.223 . S
O38 C37 1.315 . S
O39 Cd29 2.240 . S
O39 C37 1.279 . S
O40 Cd30 2.297 . S
O40 C35 1.247 . S
O41 Cd30 2.439 . S
O41 C35 1.208 . S
O42 Cd43 2.223 . S
O42 C50 1.315 . S
Cd43 O42 2.223 . S
Cd43 O46 2.297 . S
Cd43 O47 2.439 . S
Cd43 O53 2.240 . S
Cd44 O45 2.240 . S
Cd44 O52 2.223 . S
Cd44 O54 2.297 . S
Cd44 O55 2.439 . S
O45 Cd44 2.240 . S
O45 C50 1.279 . S
O46 Cd43 2.297 . S
O46 C48 1.247 . S
O47 Cd43 2.439 . S
O47 C48 1.208 . S
C48 O46 1.247 . S
C48 O47 1.208 . S
C49 O54 1.247 . S
C49 O55 1.208 . S
C50 O42 1.315 . S
C50 O45 1.279 . S
C51 O52 1.315 . S
C51 O53 1.279 . S
O52 Cd44 2.223 . S
O52 C51 1.315 . S
O53 Cd43 2.240 . S
O53 C51 1.279 . S
O54 Cd44 2.297 . S
O54 C49 1.247 . S
O55 Cd44 2.439 . S
O55 C49 1.208 . S
O56 Cd57 2.223 . S
O56 C64 1.315 . S
Cd57 O56 2.223 . S
Cd57 O60 2.297 . S
Cd57 O61 2.439 . S
Cd57 O67 2.240 . S
Cd58 O59 2.240 . S
Cd58 O66 2.223 . S
Cd58 O68 2.297 . S
Cd58 O69 2.439 . S
O59 Cd58 2.240 . S
O59 C64 1.279 . S
O60 Cd57 2.297 . S
O60 C62 1.247 . S
O61 Cd57 2.439 . S
O61 C62 1.208 . S
C62 O60 1.247 . S
C62 O61 1.208 . S
C63 O68 1.247 . S
C63 O69 1.208 . S
C64 O56 1.315 . S
C64 O59 1.279 . S
C65 O66 1.315 . S
C65 O67 1.279 . S
O66 Cd58 2.223 . S
O66 C65 1.315 . S
O67 Cd57 2.240 . S
O67 C65 1.279 . S
O68 Cd58 2.297 . S
O68 C63 1.247 . S
O69 Cd58 2.439 . S
O69 C63 1.208 . S
O70 Cd71 2.223 . S
O70 C78 1.315 . S
Cd71 O70 2.223 . S
Cd71 O74 2.297 . S
Cd71 O75 2.439 . S
Cd71 O81 2.240 . S
Cd72 O73 2.240 . S
Cd72 O80 2.223 . S
Cd72 O82 2.297 . S
Cd72 O83 2.439 . S
O73 Cd72 2.240 . S
O73 C78 1.279 . S
O74 Cd71 2.297 . S
O74 C76 1.247 . S
O75 Cd71 2.439 . S
O75 C76 1.208 . S
C76 O74 1.247 . S
C76 O75 1.208 . S
C77 O82 1.247 . S
C77 O83 1.208 . S
C78 O70 1.315 . S
C78 O73 1.279 . S
C79 O80 1.315 . S
C79 O81 1.279 . S
O80 Cd72 2.223 . S
O80 C79 1.315 . S
O81 Cd71 2.240 . S
O81 C79 1.279 . S
O82 Cd72 2.297 . S
O82 C77 1.247 . S
O83 Cd72 2.439 . S
O83 C77 1.208 . S
O84 Cd85 2.223 . S
O84 C92 1.315 . S
Cd85 O84 2.223 . S
Cd85 O88 2.297 . S
Cd85 O89 2.439 . S
Cd85 O95 2.240 . S
Cd86 O87 2.240 . S
Cd86 O94 2.223 . S
Cd86 O96 2.297 . S
Cd86 O97 2.439 . S
O87 Cd86 2.240 . S
O87 C92 1.279 . S
O88 Cd85 2.297 . S
O88 C90 1.247 . S
O89 Cd85 2.439 . S
O89 C90 1.208 . S
C90 O88 1.247 . S
C90 O89 1.208 . S
C91 O96 1.247 . S
C91 O97 1.208 . S
C92 O84 1.315 . S
C92 O87 1.279 . S
C93 O94 1.315 . S
C93 O95 1.279 . S
O94 Cd86 2.223 . S
O94 C93 1.315 . S
O95 Cd85 2.240 . S
O95 C93 1.279 . S
O96 Cd86 2.297 . S
O96 C91 1.247 . S
O97 Cd86 2.439 . S
O97 C91 1.208 . S
O98 Cd99 2.223 . S
O98 C106 1.315 . S
Cd99 O98 2.223 . S
Cd99 O102 2.297 . S
Cd99 O103 2.439 . S
Cd99 O109 2.240 . S
Cd100 O101 2.240 . S
Cd100 O108 2.223 1_455 S
Cd100 O110 2.297 . S
Cd100 O111 2.439 . S
O101 Cd100 2.240 . S
O101 C106 1.279 . S
O102 Cd99 2.297 . S
O102 C104 1.247 . S
O103 Cd99 2.439 . S
O103 C104 1.208 . S
C104 O102 1.247 . S
C104 O103 1.208 . S
C105 O110 1.247 . S
C105 O111 1.208 . S
C106 O98 1.315 . S
C106 O101 1.279 . S
C107 O108 1.315 . S
C107 O109 1.279 1_655 S
O108 Cd100 2.223 1_655 S
O108 C107 1.315 . S
O109 Cd99 2.240 . S
O109 C107 1.279 1_455 S
O110 Cd100 2.297 . S
O110 C105 1.247 . S
O111 Cd100 2.439 . S
O111 C105 1.208 . S
O112 Cd113 2.223 1_565 S
O112 C120 1.315 1_565 S
Cd113 O112 2.223 1_545 S
Cd113 O116 2.297 . S
Cd113 O117 2.439 . S
Cd113 O123 2.240 1_545 S
Cd114 O115 2.271 . S
Cd114 O122 2.186 1_545 S
Cd114 O124 2.277 1_545 S
Cd114 O125 2.459 . S
O115 Cd114 2.271 . S
O115 C120 1.279 . S
O116 Cd113 2.297 . S
O116 C118 1.247 . S
O117 Cd113 2.439 . S
O117 C118 1.208 . S
C118 O116 1.247 . S
C118 O117 1.208 . S
C119 O124 1.247 1_545 S
C119 O125 1.208 . S
C120 O112 1.315 1_545 S
C120 O115 1.279 . S
C121 O122 1.315 . S
C121 O123 1.279 . S
O122 Cd114 2.186 1_565 S
O122 C121 1.315 . S
O123 Cd113 2.240 1_565 S
O123 C121 1.279 . S
O124 Cd114 2.277 1_565 S
O124 C119 1.247 1_565 S
O125 Cd114 2.459 . S
O125 C119 1.208 . S
O126 Cd127 2.223 . S
O126 C134 1.315 . S
Cd127 O126 2.223 . S
Cd127 O130 2.297 . S
Cd127 O131 2.439 . S
Cd127 O137 2.240 . S
Cd128 O129 2.240 . S
Cd128 O136 2.223 . S
Cd128 O138 2.297 . S
Cd128 O139 2.439 . S
O129 Cd128 2.240 . S
O129 C134 1.279 . S
O130 Cd127 2.297 . S
O130 C132 1.247 . S
O131 Cd127 2.439 . S
O131 C132 1.208 . S
C132 O130 1.247 . S
C132 O131 1.208 . S
C133 O138 1.247 . S
C133 O139 1.208 . S
C134 O126 1.315 . S
C134 O129 1.279 . S
C135 O136 1.315 . S
C135 O137 1.279 . S
O136 Cd128 2.223 . S
O136 C135 1.315 . S
O137 Cd127 2.240 . S
O137 C135 1.279 . S
O138 Cd128 2.297 . S
O138 C133 1.247 . S
O139 Cd128 2.439 . S
O139 C133 1.208 . S
O140 Cd141 2.223 1_545 S
O140 C148 1.315 1_545 S
Cd141 O140 2.223 1_565 S
Cd141 O144 2.297 . S
Cd141 O145 2.439 . S
Cd141 O151 2.240 1_565 S
Cd142 O143 2.240 1_545 S
Cd142 O150 2.223 . S
Cd142 O152 2.297 . S
Cd142 O153 2.439 1_545 S
O143 Cd142 2.240 1_565 S
O143 C148 1.279 . S
O144 Cd141 2.297 . S
O144 C146 1.247 . S
O145 Cd141 2.439 . S
O145 C146 1.208 . S
C146 O144 1.247 . S
C146 O145 1.208 . S
C147 O152 1.247 . S
C147 O153 1.208 1_545 S
C148 O140 1.315 1_565 S
C148 O143 1.279 . S
C149 O150 1.315 . S
C149 O151 1.279 . S
O150 Cd142 2.223 . S
O150 C149 1.315 . S
O151 Cd141 2.240 1_545 S
O151 C149 1.279 . S
O152 Cd142 2.297 . S
O152 C147 1.247 . S
O153 Cd142 2.439 1_565 S
O153 C147 1.208 1_565 S
O154 Cd155 2.223 . S
O154 C162 1.315 . S
Cd155 O154 2.223 . S
Cd155 O158 2.297 . S
Cd155 O159 2.439 1_554 S
Cd155 O165 2.219 1_554 S
Cd156 O157 2.240 1_556 S
Cd156 O164 2.223 1_556 S
Cd156 O166 2.297 . S
Cd156 O167 2.439 . S
O157 Cd156 2.240 1_554 S
O157 C162 1.279 . S
O158 Cd155 2.297 . S
O158 C160 1.247 . S
O159 Cd155 2.439 1_556 S
O159 C160 1.208 1_556 S
C160 O158 1.247 . S
C160 O159 1.208 1_554 S
C161 O166 1.247 . S
C161 O167 1.208 . S
C162 O154 1.315 . S
C162 O157 1.279 . S
C163 O164 1.315 . S
C163 O165 1.267 1_554 S
O164 Cd156 2.223 1_554 S
O164 C163 1.315 . S
O165 Cd155 2.219 1_556 S
O165 C163 1.267 1_556 S
O166 Cd156 2.297 . S
O166 C161 1.247 . S
O167 Cd156 2.439 . S
O167 C161 1.208 . S
O168 Cd169 2.223 . S
O168 C176 1.315 . S
Cd169 O168 2.223 . S
Cd169 O172 2.297 . S
Cd169 O173 2.439 . S
Cd169 O179 2.240 . S
Cd170 O171 2.240 . S
Cd170 O178 2.223 . S
Cd170 O180 2.297 1_554 S
Cd170 O181 2.439 1_554 S
O171 Cd170 2.240 . S
O171 C176 1.279 . S
O172 Cd169 2.297 . S
O172 C174 1.247 . S
O173 Cd169 2.439 . S
O173 C174 1.208 . S
C174 O172 1.247 . S
C174 O173 1.208 . S
C175 O180 1.247 . S
C175 O181 1.208 . S
C176 O168 1.315 . S
C176 O171 1.279 . S
C177 O178 1.315 . S
C177 O179 1.279 . S
O178 Cd170 2.223 . S
O178 C177 1.315 . S
O179 Cd169 2.240 . S
O179 C177 1.279 . S
O180 Cd170 2.297 1_556 S
O180 C175 1.247 . S
O181 Cd170 2.439 1_556 S
O181 C175 1.208 . S
O182 Cd183 2.223 . S
O182 C190 1.315 . S
Cd183 O182 2.223 . S
Cd183 O186 2.297 . S
Cd183 O187 2.439 . S
Cd183 O193 2.240 . S
Cd184 O185 2.240 . S
Cd184 O192 2.223 . S
Cd184 O194 2.297 1_554 S
Cd184 O195 2.439 1_554 S
O185 Cd184 2.240 . S
O185 C190 1.279 . S
O186 Cd183 2.297 . S
O186 C188 1.247 . S
O187 Cd183 2.439 . S
O187 C188 1.208 . S
C188 O186 1.247 . S
C188 O187 1.208 . S
C189 O194 1.247 . S
C189 O195 1.208 . S
C190 O182 1.315 . S
C190 O185 1.279 . S
C191 O192 1.315 . S
C191 O193 1.279 . S
O192 Cd184 2.223 . S
O192 C191 1.315 . S
O193 Cd183 2.240 . S
O193 C191 1.279 . S
O194 Cd184 2.297 1_556 S
O194 C189 1.247 . S
O195 Cd184 2.439 1_556 S
O195 C189 1.208 . S
O196 Cd197 2.223 . S
O196 C204 1.315 . S
Cd197 O196 2.223 . S
Cd197 O200 2.297 . S
Cd197 O201 2.439 . S
Cd197 O207 2.240 . S
Cd198 O199 2.240 . S
Cd198 O206 2.223 . S
Cd198 O208 2.297 . S
Cd198 O209 2.439 . S
O199 Cd198 2.240 . S
O199 C204 1.279 . S
O200 Cd197 2.297 . S
O200 C202 1.247 . S
O201 Cd197 2.439 . S
O201 C202 1.208 . S
C202 O200 1.247 . S
C202 O201 1.208 . S
C203 O208 1.247 . S
C203 O209 1.208 . S
C204 O196 1.315 . S
C204 O199 1.279 . S
C205 O206 1.315 . S
C205 O207 1.279 . S
O206 Cd198 2.223 . S
O206 C205 1.315 . S
O207 Cd197 2.240 . S
O207 C205 1.279 . S
O208 Cd198 2.297 . S
O208 C203 1.247 . S
O209 Cd198 2.439 . S
O209 C203 1.208 . S
O210 Cd211 2.223 . S
O210 C218 1.315 . S
Cd211 O210 2.223 . S
Cd211 O214 2.297 . S
Cd211 O215 2.439 . S
Cd211 O221 2.240 . S
Cd212 O213 2.240 . S
Cd212 O220 2.223 . S
Cd212 O222 2.297 . S
Cd212 O223 2.439 . S
O213 Cd212 2.240 . S
O213 C218 1.279 . S
O214 Cd211 2.297 . S
O214 C216 1.247 . S
O215 Cd211 2.439 . S
O215 C216 1.208 . S
C216 O214 1.247 . S
C216 O215 1.208 . S
C217 O222 1.247 . S
C217 O223 1.208 . S
C218 O210 1.315 . S
C218 O213 1.279 . S
C219 O220 1.315 . S
C219 O221 1.279 . S
O220 Cd212 2.223 . S
O220 C219 1.315 . S
O221 Cd211 2.240 . S
O221 C219 1.279 . S
O222 Cd212 2.297 . S
O222 C217 1.247 . S
O223 Cd212 2.439 . S
O223 C217 1.208 . S
O224 Cd225 2.223 . S
O224 C232 1.315 . S
Cd225 O224 2.223 . S
Cd225 O228 2.297 . S
Cd225 O229 2.439 . S
Cd225 O235 2.240 . S
Cd226 O227 2.240 . S
Cd226 O234 2.223 . S
Cd226 O236 2.297 . S
Cd226 O237 2.439 . S
O227 Cd226 2.240 . S
O227 C232 1.279 . S
O228 Cd225 2.297 . S
O228 C230 1.247 . S
O229 Cd225 2.439 . S
O229 C230 1.208 . S
C230 O228 1.247 . S
C230 O229 1.208 . S
C231 O236 1.247 . S
C231 O237 1.208 . S
C232 O224 1.315 . S
C232 O227 1.279 . S
C233 O234 1.315 . S
C233 O235 1.279 . S
O234 Cd226 2.223 . S
O234 C233 1.315 . S
O235 Cd225 2.240 . S
O235 C233 1.279 . S
O236 Cd226 2.297 . S
O236 C231 1.247 . S
O237 Cd226 2.439 . S
O237 C231 1.208 . S
O238 Cd239 2.223 . S
O238 C246 1.315 . S
Cd239 O238 2.223 . S
Cd239 O242 2.297 . S
Cd239 O243 2.439 . S
Cd239 O249 2.240 . S
Cd240 O241 2.240 . S
Cd240 O248 2.223 . S
Cd240 O250 2.297 . S
Cd240 O251 2.439 . S
O241 Cd240 2.240 . S
O241 C246 1.279 . S
O242 Cd239 2.297 . S
O242 C244 1.247 . S
O243 Cd239 2.439 . S
O243 C244 1.208 . S
C244 O242 1.247 . S
C244 O243 1.208 . S
C245 O250 1.247 . S
C245 O251 1.208 . S
C246 O238 1.315 . S
C246 O241 1.279 . S
C247 O248 1.315 . S
C247 O249 1.279 . S
O248 Cd240 2.223 . S
O248 C247 1.315 . S
O249 Cd239 2.240 . S
O249 C247 1.279 . S
O250 Cd240 2.297 . S
O250 C245 1.247 . S
O251 Cd240 2.439 . S
O251 C245 1.208 . S
O252 Cd253 2.223 . S
O252 C260 1.315 . S
Cd253 O252 2.223 . S
Cd253 O256 2.297 . S
Cd253 O257 2.439 . S
Cd253 O263 2.240 . S
Cd254 O255 2.240 . S
Cd254 O262 2.223 . S
Cd254 O264 2.297 . S
Cd254 O265 2.439 . S
O255 Cd254 2.240 . S
O255 C260 1.279 . S
O256 Cd253 2.297 . S
O256 C258 1.247 . S
O257 Cd253 2.439 . S
O257 C258 1.208 . S
C258 O256 1.247 . S
C258 O257 1.208 . S
C259 O264 1.247 . S
C259 O265 1.208 . S
C260 O252 1.315 . S
C260 O255 1.279 . S
C261 O262 1.315 . S
C261 O263 1.279 . S
O262 Cd254 2.223 . S
O262 C261 1.315 . S
O263 Cd253 2.240 . S
O263 C261 1.279 . S
O264 Cd254 2.297 . S
O264 C259 1.247 . S
O265 Cd254 2.439 . S
O265 C259 1.208 . S
O266 Cd267 2.223 . S
O266 C274 1.315 . S
Cd267 O266 2.223 . S
Cd267 O270 2.297 . S
Cd267 O271 2.439 . S
Cd267 O277 2.240 . S
Cd268 O269 2.240 . S
Cd268 O276 2.223 . S
Cd268 O278 2.297 . S
Cd268 O279 2.439 . S
O269 Cd268 2.240 . S
O269 C274 1.279 . S
O270 Cd267 2.297 . S
O270 C272 1.247 . S
O271 Cd267 2.439 . S
O271 C272 1.208 . S
C272 O270 1.247 . S
C272 O271 1.208 . S
C273 O278 1.247 . S
C273 O279 1.208 . S
C274 O266 1.315 . S
C274 O269 1.279 . S
C275 O276 1.315 . S
C275 O277 1.279 . S
O276 Cd268 2.223 . S
O276 C275 1.315 . S
O277 Cd267 2.240 . S
O277 C275 1.279 . S
O278 Cd268 2.297 . S
O278 C273 1.247 . S
O279 Cd268 2.439 . S
O279 C273 1.208 . S
O280 Cd281 2.223 . S
O280 C288 1.315 . S
Cd281 O280 2.223 . S
Cd281 O284 2.297 . S
Cd281 O285 2.439 . S
Cd281 O291 2.240 . S
Cd282 O283 2.240 . S
Cd282 O290 2.223 . S
Cd282 O292 2.297 1_554 S
Cd282 O293 2.439 1_554 S
O283 Cd282 2.240 . S
O283 C288 1.279 . S
O284 Cd281 2.297 . S
O284 C286 1.247 . S
O285 Cd281 2.439 . S
O285 C286 1.208 . S
C286 O284 1.247 . S
C286 O285 1.208 . S
C287 O292 1.247 . S
C287 O293 1.208 . S
C288 O280 1.315 . S
C288 O283 1.279 . S
C289 O290 1.315 . S
C289 O291 1.279 . S
O290 Cd282 2.223 . S
O290 C289 1.315 . S
O291 Cd281 2.240 . S
O291 C289 1.279 . S
O292 Cd282 2.297 1_556 S
O292 C287 1.247 . S
O293 Cd282 2.439 1_556 S
O293 C287 1.208 . S
O294 Cd295 2.223 . S
O294 C302 1.315 . S
Cd295 O294 2.223 . S
Cd295 O298 2.297 . S
Cd295 O299 2.439 . S
Cd295 O305 2.240 . S
Cd296 O297 2.240 . S
Cd296 O304 2.223 . S
Cd296 O306 2.297 . S
Cd296 O307 2.439 . S
O297 Cd296 2.240 . S
O297 C302 1.279 . S
O298 Cd295 2.297 . S
O298 C300 1.247 . S
O299 Cd295 2.439 . S
O299 C300 1.208 . S
C300 O298 1.247 . S
C300 O299 1.208 . S
C301 O306 1.247 . S
C301 O307 1.208 . S
C302 O294 1.315 . S
C302 O297 1.279 . S
C303 O304 1.315 . S
C303 O305 1.279 . S
O304 Cd296 2.223 . S
O304 C303 1.315 . S
O305 Cd295 2.240 . S
O305 C303 1.279 . S
O306 Cd296 2.297 . S
O306 C301 1.247 . S
O307 Cd296 2.439 . S
O307 C301 1.208 . S
O308 Cd309 2.223 . S
O308 C316 1.315 . S
Cd309 O308 2.223 . S
Cd309 O312 2.297 . S
Cd309 O313 2.439 . S
Cd309 O319 2.240 . S
Cd310 O311 2.240 . S
Cd310 O318 2.223 . S
Cd310 O320 2.297 . S
Cd310 O321 2.439 . S
O311 Cd310 2.240 . S
O311 C316 1.279 . S
O312 Cd309 2.297 . S
O312 C314 1.247 . S
O313 Cd309 2.439 . S
O313 C314 1.208 . S
C314 O312 1.247 . S
C314 O313 1.208 . S
C315 O320 1.247 . S
C315 O321 1.208 . S
C316 O308 1.315 . S
C316 O311 1.279 . S
C317 O318 1.315 . S
C317 O319 1.279 . S
O318 Cd310 2.223 . S
O318 C317 1.315 . S
O319 Cd309 2.240 . S
O319 C317 1.279 . S
O320 Cd310 2.297 . S
O320 C315 1.247 . S
O321 Cd310 2.439 . S
O321 C315 1.208 . S
O322 Cd323 2.223 . S
O322 C330 1.315 . S
Cd323 O322 2.223 . S
Cd323 O326 2.297 . S
Cd323 O327 2.439 . S
Cd323 O333 2.240 . S
Cd324 O325 2.240 . S
Cd324 O332 2.223 . S
Cd324 O334 2.297 . S
Cd324 O335 2.439 . S
O325 Cd324 2.240 . S
O325 C330 1.279 . S
O326 Cd323 2.297 . S
O326 C328 1.247 . S
O327 Cd323 2.439 . S
O327 C328 1.208 . S
C328 O326 1.247 . S
C328 O327 1.208 . S
C329 O334 1.247 . S
C329 O335 1.208 . S
C330 O322 1.315 . S
C330 O325 1.279 . S
C331 O332 1.315 . S
C331 O333 1.279 . S
O332 Cd324 2.223 . S
O332 C331 1.315 . S
O333 Cd323 2.240 . S
O333 C331 1.279 . S
O334 Cd324 2.297 . S
O334 C329 1.247 . S
O335 Cd324 2.439 . S
O335 C329 1.208 . S
Ho336 C339 2.814 1_455 S
Ho336 O356 2.322 . S
Ho336 O358 2.378 1_454 S
Ho336 O359 2.488 1_455 S
Ho336 O360 2.381 1_554 S
Ho336 O361 2.668 1_554 S
Ho336 O363 2.346 1_545 S
Ho336 O367 2.305 . S
Ho337 C348 2.811 . S
Ho337 O357 2.346 . S
Ho337 O361 2.303 1_554 S
Ho337 O362 2.322 . S
Ho337 O364 2.378 . S
Ho337 O365 2.524 . S
Ho337 O366 2.381 . S
Ho337 O367 2.669 . S
C338 O356 1.259 . S
C338 O357 1.268 . S
C339 Ho336 2.814 1_655 S
C339 C340 1.484 1_554 S
C339 O358 1.203 1_554 S
C339 O359 1.321 . S
C340 C339 1.484 1_556 S
C340 C341 1.348 1_556 S
C340 C345 1.413 . S
C341 C340 1.348 1_554 S
C341 C342 1.442 . S
C341 H368 0.930 . S
C342 C341 1.442 . S
C342 C343 1.381 1_554 S
C342 H369 0.931 . S
C343 C342 1.381 1_556 S
C343 C344 1.321 . S
C344 C343 1.321 . S
C344 C345 1.403 . S
C344 H370 0.934 . S
C345 C340 1.413 . S
C345 C344 1.403 . S
C345 H371 0.930 . S
C346 O360 1.275 . S
C346 O361 1.258 . S
C347 O362 1.259 1_565 S
C347 O363 1.268 . S
C348 Ho337 2.811 . S
C348 C349 1.488 . S
C348 O364 1.215 . S
C348 O365 1.289 . S
C349 C348 1.488 . S
C349 C350 1.348 . S
C349 C354 1.413 . S
C350 C349 1.348 . S
C350 C351 1.442 . S
C350 H372 0.930 . S
C351 C350 1.442 . S
C351 C352 1.381 . S
C351 H373 0.931 1_545 S
C352 C351 1.381 . S
C352 C353 1.321 . S
C353 C352 1.321 . S
C353 C354 1.403 . S
C353 H374 0.934 . S
C354 C349 1.413 . S
C354 C353 1.403 . S
C354 H375 0.930 . S
C355 O366 1.275 . S
C355 O367 1.256 . S
O356 Ho336 2.322 . S
O356 C338 1.259 . S
O357 Ho337 2.346 . S
O357 C338 1.268 . S
O358 Ho336 2.378 1_656 S
O358 C339 1.203 1_556 S
O359 Ho336 2.488 1_655 S
O359 C339 1.321 . S
O360 Ho336 2.381 1_556 S
O360 C346 1.275 . S
O361 Ho336 2.668 1_556 S
O361 Ho337 2.303 1_556 S
O361 C346 1.258 . S
O362 Ho337 2.322 . S
O362 C347 1.259 1_545 S
O363 Ho336 2.346 1_565 S
O363 C347 1.268 . S
O364 Ho337 2.378 . S
O364 C348 1.215 . S
O365 Ho337 2.524 . S
O365 C348 1.289 . S
O366 Ho337 2.381 . S
O366 C355 1.275 . S
O367 Ho336 2.305 . S
O367 Ho337 2.669 . S
O367 C355 1.256 . S
H368 C341 0.930 . S
H369 C342 0.931 . S
H370 C344 0.934 . S
H371 C345 0.930 . S
H372 C350 0.930 . S
H373 C351 0.931 1_565 S
H374 C353 0.934 . S
H375 C354 0.930 . S
Ho376 C379 2.811 . S
Ho376 O396 2.322 . S
Ho376 O398 2.378 . S
Ho376 O399 2.524 . S
Ho376 O400 2.381 . S
Ho376 O401 2.669 . S
Ho376 O403 2.346 . S
Ho376 O407 2.305 . S
Ho377 C388 2.811 . S
Ho377 O397 2.346 . S
Ho377 O401 2.305 . S
Ho377 O402 2.322 . S
Ho377 O404 2.378 . S
Ho377 O405 2.524 . S
Ho377 O406 2.381 . S
Ho377 O407 2.669 . S
C378 O396 1.259 . S
C378 O397 1.268 . S
C379 Ho376 2.811 . S
C379 C380 1.488 . S
C379 O398 1.215 . S
C379 O399 1.289 . S
C380 C379 1.488 . S
C380 C381 1.348 . S
C380 C385 1.413 . S
C381 C380 1.348 . S
C381 C382 1.442 . S
C381 H408 0.930 . S
C382 C381 1.442 . S
C382 C383 1.381 . S
C382 H409 0.931 . S
C383 C382 1.381 . S
C383 C384 1.321 . S
C384 C383 1.321 . S
C384 C385 1.403 . S
C384 H410 0.934 . S
C385 C380 1.413 . S
C385 C384 1.403 . S
C385 H411 0.930 . S
C386 O400 1.275 . S
C386 O401 1.256 . S
C387 O402 1.259 . S
C387 O403 1.268 . S
C388 Ho377 2.811 . S
C388 C389 1.488 . S
C388 O404 1.215 . S
C388 O405 1.289 . S
C389 C388 1.488 . S
C389 C390 1.348 . S
C389 C394 1.413 . S
C390 C389 1.348 . S
C390 C391 1.442 . S
C390 H412 0.930 . S
C391 C390 1.442 . S
C391 C392 1.381 . S
C391 H413 0.931 . S
C392 C391 1.381 . S
C392 C393 1.321 . S
C393 C392 1.321 . S
C393 C394 1.403 . S
C393 H414 0.934 . S
C394 C389 1.413 . S
C394 C393 1.403 . S
C394 H415 0.930 . S
C395 O406 1.275 . S
C395 O407 1.256 . S
O396 Ho376 2.322 . S
O396 C378 1.259 . S
O397 Ho377 2.346 . S
O397 C378 1.268 . S
O398 Ho376 2.378 . S
O398 C379 1.215 . S
O399 Ho376 2.524 . S
O399 C379 1.289 . S
O400 Ho376 2.381 . S
O400 C386 1.275 . S
O401 Ho376 2.669 . S
O401 Ho377 2.305 . S
O401 C386 1.256 . S
O402 Ho377 2.322 . S
O402 C387 1.259 . S
O403 Ho376 2.346 . S
O403 C387 1.268 . S
O404 Ho377 2.378 . S
O404 C388 1.215 . S
O405 Ho377 2.524 . S
O405 C388 1.289 . S
O406 Ho377 2.381 . S
O406 C395 1.275 . S
O407 Ho376 2.305 . S
O407 Ho377 2.669 . S
O407 C395 1.256 . S
H408 C381 0.930 . S
H409 C382 0.931 . S
H410 C384 0.934 . S
H411 C385 0.930 . S
H412 C390 0.930 . S
H413 C391 0.931 . S
H414 C393 0.934 . S
H415 C394 0.930 . S
Ho416 C419 2.811 . S
Ho416 O436 2.322 1_545 S
Ho416 O438 2.378 . S
Ho416 O439 2.524 . S
Ho416 O440 2.381 . S
Ho416 O441 2.669 . S
Ho416 O443 2.346 . S
Ho416 O447 2.305 . S
Ho417 C428 2.811 . S
Ho417 O437 2.346 1_545 S
Ho417 O441 2.305 . S
Ho417 O442 2.322 . S
Ho417 O444 2.378 . S
Ho417 O445 2.524 . S
Ho417 O446 2.381 . S
Ho417 O447 2.669 . S
C418 O436 1.259 . S
C418 O437 1.268 . S
C419 Ho416 2.811 . S
C419 C420 1.488 1_545 S
C419 O438 1.215 . S
C419 O439 1.289 . S
C420 C419 1.488 1_565 S
C420 C421 1.348 . S
C420 C425 1.413 . S
C421 C420 1.348 . S
C421 C422 1.442 . S
C421 H448 0.930 . S
C422 C421 1.442 . S
C422 C423 1.381 . S
C422 H449 0.931 . S
C423 C422 1.381 . S
C423 C424 1.321 . S
C424 C423 1.321 . S
C424 C425 1.403 . S
C424 H450 0.934 . S
C425 C420 1.413 . S
C425 C424 1.403 . S
C425 H451 0.933 . S
C426 O440 1.275 . S
C426 O441 1.256 . S
C427 O442 1.259 . S
C427 O443 1.268 . S
C428 Ho417 2.811 . S
C428 C429 1.488 . S
C428 O444 1.215 . S
C428 O445 1.289 . S
C429 C428 1.488 . S
C429 C430 1.348 . S
C429 C434 1.413 . S
C430 C429 1.348 . S
C430 C431 1.442 . S
C430 H452 0.930 . S
C431 C430 1.442 . S
C431 C432 1.381 . S
C431 H453 0.931 . S
C432 C431 1.381 . S
C432 C433 1.321 . S
C433 C432 1.321 . S
C433 C434 1.403 . S
C433 H454 0.934 . S
C434 C429 1.413 . S
C434 C433 1.403 . S
C434 H455 0.930 . S
C435 O446 1.275 . S
C435 O447 1.256 . S
O436 Ho416 2.322 1_565 S
O436 C418 1.259 . S
O437 Ho417 2.346 1_565 S
O437 C418 1.268 . S
O438 Ho416 2.378 . S
O438 C419 1.215 . S
O439 Ho416 2.524 . S
O439 C419 1.289 . S
O440 Ho416 2.381 . S
O440 C426 1.275 . S
O441 Ho416 2.669 . S
O441 Ho417 2.305 . S
O441 C426 1.256 . S
O442 Ho417 2.322 . S
O442 C427 1.259 . S
O443 Ho416 2.346 . S
O443 C427 1.268 . S
O444 Ho417 2.378 . S
O444 C428 1.215 . S
O445 Ho417 2.524 . S
O445 C428 1.289 . S
O446 Ho417 2.381 . S
O446 C435 1.275 . S
O447 Ho416 2.305 . S
O447 Ho417 2.669 . S
O447 C435 1.256 . S
H448 C421 0.930 . S
H449 C422 0.931 . S
H450 C424 0.934 . S
H451 C425 0.933 . S
H452 C430 0.930 . S
H453 C431 0.931 . S
H454 C433 0.934 . S
H455 C434 0.930 . S
Ho456 C459 2.811 . S
Ho456 O476 2.322 . S
Ho456 O478 2.378 . S
Ho456 O479 2.524 . S
Ho456 O480 2.381 . S
Ho456 O481 2.669 . S
Ho456 O483 2.346 . S
Ho456 O487 2.305 . S
Ho457 C468 2.811 . S
Ho457 O477 2.346 . S
Ho457 O481 2.305 . S
Ho457 O482 2.322 . S
Ho457 O484 2.378 . S
Ho457 O485 2.524 . S
Ho457 O486 2.381 . S
Ho457 O487 2.669 . S
C458 O476 1.259 . S
C458 O477 1.268 . S
C459 Ho456 2.811 . S
C459 C460 1.488 . S
C459 O478 1.215 . S
C459 O479 1.289 . S
C460 C459 1.488 . S
C460 C461 1.348 . S
C460 C465 1.413 . S
C461 C460 1.348 . S
C461 C462 1.442 . S
C461 H488 0.930 . S
C462 C461 1.442 . S
C462 C463 1.381 . S
C462 H489 0.931 . S
C463 C462 1.381 . S
C463 C464 1.321 . S
C464 C463 1.321 . S
C464 C465 1.403 . S
C464 H490 0.934 . S
C465 C460 1.413 . S
C465 C464 1.403 . S
C465 H491 0.930 . S
C466 O480 1.275 . S
C466 O481 1.256 . S
C467 O482 1.259 . S
C467 O483 1.268 . S
C468 Ho457 2.811 . S
C468 C469 1.488 . S
C468 O484 1.215 . S
C468 O485 1.289 . S
C469 C468 1.488 . S
C469 C470 1.348 . S
C469 C474 1.413 . S
C470 C469 1.348 . S
C470 C471 1.442 . S
C470 H492 0.930 . S
C471 C470 1.442 . S
C471 C472 1.381 . S
C471 H493 0.931 . S
C472 C471 1.381 . S
C472 C473 1.321 . S
C473 C472 1.321 . S
C473 C474 1.403 . S
C473 H494 0.934 . S
C474 C469 1.413 . S
C474 C473 1.403 . S
C474 H495 0.930 . S
C475 O486 1.275 . S
C475 O487 1.256 . S
O476 Ho456 2.322 . S
O476 C458 1.259 . S
O477 Ho457 2.346 . S
O477 C458 1.268 . S
O478 Ho456 2.378 . S
O478 C459 1.215 . S
O479 Ho456 2.524 . S
O479 C459 1.289 . S
O480 Ho456 2.381 . S
O480 C466 1.275 . S
O481 Ho456 2.669 . S
O481 Ho457 2.305 . S
O481 C466 1.256 . S
O482 Ho457 2.322 . S
O482 C467 1.259 . S
O483 Ho456 2.346 . S
O483 C467 1.268 . S
O484 Ho457 2.378 . S
O484 C468 1.215 . S
O485 Ho457 2.524 . S
O485 C468 1.289 . S
O486 Ho457 2.381 . S
O486 C475 1.275 . S
O487 Ho456 2.305 . S
O487 Ho457 2.669 . S
O487 C475 1.256 . S
H488 C461 0.930 . S
H489 C462 0.931 . S
H490 C464 0.934 . S
H491 C465 0.930 . S
H492 C470 0.930 . S
H493 C471 0.931 . S
H494 C473 0.934 . S
H495 C474 0.930 . S
Ho496 C499 2.811 . S
Ho496 O516 2.322 . S
Ho496 O518 2.378 . S
Ho496 O519 2.524 . S
Ho496 O520 2.381 . S
Ho496 O521 2.669 . S
Ho496 O523 2.346 . S
Ho496 O527 2.305 . S
Ho497 C508 2.811 1_545 S
Ho497 O517 2.346 . S
Ho497 O521 2.305 . S
Ho497 O522 2.322 . S
Ho497 O524 2.378 1_545 S
Ho497 O525 2.524 1_545 S
Ho497 O526 2.381 . S
Ho497 O527 2.669 . S
C498 O516 1.259 . S
C498 O517 1.268 . S
C499 Ho496 2.811 . S
C499 C500 1.488 . S
C499 O518 1.215 . S
C499 O519 1.289 . S
C500 C499 1.488 . S
C500 C501 1.348 . S
C500 C505 1.413 . S
C501 C500 1.348 . S
C501 C502 1.442 . S
C501 H528 0.930 . S
C502 C501 1.442 . S
C502 C503 1.381 . S
C502 H529 0.931 . S
C503 C502 1.381 . S
C503 C504 1.321 . S
C504 C503 1.321 . S
C504 C505 1.403 . S
C504 H530 0.934 . S
C505 C500 1.413 . S
C505 C504 1.403 . S
C505 H531 0.930 . S
C506 O520 1.275 . S
C506 O521 1.256 . S
C507 O522 1.259 . S
C507 O523 1.268 . S
C508 Ho497 2.811 1_565 S
C508 C509 1.488 . S
C508 O524 1.215 . S
C508 O525 1.289 . S
C509 C508 1.488 . S
C509 C510 1.348 . S
C509 C514 1.413 . S
C510 C509 1.348 . S
C510 C511 1.442 . S
C510 H532 0.930 . S
C511 C510 1.442 . S
C511 C512 1.381 . S
C511 H533 0.931 . S
C512 C511 1.381 . S
C512 C513 1.321 . S
C513 C512 1.321 . S
C513 C514 1.403 . S
C513 H534 0.934 . S
C514 C509 1.413 . S
C514 C513 1.403 . S
C514 H535 0.930 . S
C515 O526 1.275 . S
C515 O527 1.256 . S
O516 Ho496 2.322 . S
O516 C498 1.259 . S
O517 Ho497 2.346 . S
O517 C498 1.268 . S
O518 Ho496 2.378 . S
O518 C499 1.215 . S
O519 Ho496 2.524 . S
O519 C499 1.289 . S
O520 Ho496 2.381 . S
O520 C506 1.275 . S
O521 Ho496 2.669 . S
O521 Ho497 2.305 . S
O521 C506 1.256 . S
O522 Ho497 2.322 . S
O522 C507 1.259 . S
O523 Ho496 2.346 . S
O523 C507 1.268 . S
O524 Ho497 2.378 1_565 S
O524 C508 1.215 . S
O525 Ho497 2.524 1_565 S
O525 C508 1.289 . S
O526 Ho497 2.381 . S
O526 C515 1.275 . S
O527 Ho496 2.305 . S
O527 Ho497 2.669 . S
O527 C515 1.256 . S
H528 C501 0.930 . S
H529 C502 0.931 . S
H530 C504 0.934 . S
H531 C505 0.930 . S
H532 C510 0.930 . S
H533 C511 0.931 . S
H534 C513 0.934 . S
H535 C514 0.930 . S
Ho536 C539 2.811 . S
Ho536 O556 2.322 . S
Ho536 O558 2.378 . S
Ho536 O559 2.524 . S
Ho536 O560 2.381 . S
Ho536 O561 2.669 . S
Ho536 O563 2.346 . S
Ho536 O567 2.305 . S
Ho537 C548 2.811 . S
Ho537 O557 2.346 . S
Ho537 O561 2.305 . S
Ho537 O562 2.322 . S
Ho537 O564 2.378 . S
Ho537 O565 2.524 . S
Ho537 O566 2.381 . S
Ho537 O567 2.669 . S
C538 O556 1.259 . S
C538 O557 1.268 . S
C539 Ho536 2.811 . S
C539 C540 1.488 . S
C539 O558 1.215 . S
C539 O559 1.289 . S
C540 C539 1.488 . S
C540 C541 1.348 . S
C540 C545 1.413 . S
C541 C540 1.348 . S
C541 C542 1.442 . S
C541 H568 0.930 . S
C542 C541 1.442 . S
C542 C543 1.381 . S
C542 H569 0.931 . S
C543 C542 1.381 . S
C543 C544 1.321 . S
C544 C543 1.321 . S
C544 C545 1.403 . S
C544 H570 0.934 . S
C545 C540 1.413 . S
C545 C544 1.403 . S
C545 H571 0.930 . S
C546 O560 1.275 . S
C546 O561 1.256 . S
C547 O562 1.259 . S
C547 O563 1.268 . S
C548 Ho537 2.811 . S
C548 C549 1.488 . S
C548 O564 1.215 . S
C548 O565 1.289 . S
C549 C548 1.488 . S
C549 C550 1.348 . S
C549 C554 1.413 . S
C550 C549 1.348 . S
C550 C551 1.442 . S
C550 H572 0.930 . S
C551 C550 1.442 . S
C551 C552 1.381 . S
C551 H573 0.931 . S
C552 C551 1.381 . S
C552 C553 1.321 . S
C553 C552 1.321 . S
C553 C554 1.403 . S
C553 H574 0.934 . S
C554 C549 1.413 . S
C554 C553 1.403 . S
C554 H575 0.930 . S
C555 O566 1.275 . S
C555 O567 1.256 . S
O556 Ho536 2.322 . S
O556 C538 1.259 . S
O557 Ho537 2.346 . S
O557 C538 1.268 . S
O558 Ho536 2.378 . S
O558 C539 1.215 . S
O559 Ho536 2.524 . S
O559 C539 1.289 . S
O560 Ho536 2.381 . S
O560 C546 1.275 . S
O561 Ho536 2.669 . S
O561 Ho537 2.305 . S
O561 C546 1.256 . S
O562 Ho537 2.322 . S
O562 C547 1.259 . S
O563 Ho536 2.346 . S
O563 C547 1.268 . S
O564 Ho537 2.378 . S
O564 C548 1.215 . S
O565 Ho537 2.524 . S
O565 C548 1.289 . S
O566 Ho537 2.381 . S
O566 C555 1.275 . S
O567 Ho536 2.305 . S
O567 Ho537 2.669 . S
O567 C555 1.256 . S
H568 C541 0.930 . S
H569 C542 0.931 . S
H570 C544 0.934 . S
H571 C545 0.930 . S
H572 C550 0.930 . S
H573 C551 0.931 . S
H574 C553 0.934 . S
H575 C554 0.930 . S
Ho576 C579 2.811 . S
Ho576 O596 2.322 . S
Ho576 O598 2.378 . S
Ho576 O599 2.524 . S
Ho576 O600 2.381 1_545 S
Ho576 O601 2.669 . S
Ho576 O603 2.346 . S
Ho576 O607 2.305 . S
Ho577 C588 2.811 . S
Ho577 O597 2.346 1_556 S
Ho577 O601 2.305 1_556 S
Ho577 O602 2.322 1_556 S
Ho577 O604 2.378 . S
Ho577 O605 2.524 . S
Ho577 O606 2.381 1_556 S
Ho577 O607 2.669 1_556 S
C578 O596 1.259 . S
C578 O597 1.268 . S
C579 Ho576 2.811 . S
C579 C580 1.488 . S
C579 O598 1.215 . S
C579 O599 1.289 . S
C580 C579 1.488 . S
C580 C581 1.348 . S
C580 C585 1.413 1_545 S
C581 C580 1.348 . S
C581 C582 1.442 . S
C581 H608 0.930 . S
C582 C581 1.442 . S
C582 C583 1.381 1_545 S
C582 H609 0.931 . S
C583 C582 1.381 1_565 S
C583 C584 1.321 . S
C584 C583 1.321 . S
C584 C585 1.403 . S
C584 H610 0.934 . S
C585 C580 1.413 1_565 S
C585 C584 1.403 . S
C585 H611 0.930 . S
C586 O600 1.275 . S
C586 O601 1.256 1_565 S
C587 O602 1.259 . S
C587 O603 1.268 . S
C588 Ho577 2.811 . S
C588 C589 1.488 . S
C588 O604 1.215 . S
C588 O605 1.289 . S
C589 C588 1.488 . S
C589 C590 1.348 . S
C589 C594 1.413 . S
C590 C589 1.348 . S
C590 C591 1.442 . S
C590 H612 0.930 . S
C591 C590 1.442 . S
C591 C592 1.381 . S
C591 H613 0.931 . S
C592 C591 1.381 . S
C592 C593 1.321 . S
C593 C592 1.321 . S
C593 C594 1.403 . S
C593 H614 0.934 . S
C594 C589 1.413 . S
C594 C593 1.403 . S
C594 H615 0.930 . S
C595 O606 1.275 . S
C595 O607 1.256 . S
O596 Ho576 2.322 . S
O596 C578 1.259 . S
O597 Ho577 2.346 1_554 S
O597 C578 1.268 . S
O598 Ho576 2.378 . S
O598 C579 1.215 . S
O599 Ho576 2.524 . S
O599 C579 1.289 . S
O600 Ho576 2.381 1_565 S
O600 C586 1.275 . S
O601 Ho576 2.669 . S
O601 Ho577 2.305 1_554 S
O601 C586 1.256 1_545 S
O602 Ho577 2.322 1_554 S
O602 C587 1.259 . S
O603 Ho576 2.346 . S
O603 C587 1.268 . S
O604 Ho577 2.378 . S
O604 C588 1.215 . S
O605 Ho577 2.524 . S
O605 C588 1.289 . S
O606 Ho577 2.381 1_554 S
O606 C595 1.275 . S
O607 Ho576 2.305 . S
O607 Ho577 2.669 1_554 S
O607 C595 1.256 . S
H608 C581 0.930 . S
H609 C582 0.931 . S
H610 C584 0.934 . S
H611 C585 0.930 . S
H612 C590 0.930 . S
H613 C591 0.931 . S
H614 C593 0.934 . S
H615 C594 0.930 . S
Ho616 C619 2.811 . S
Ho616 O636 2.322 . S
Ho616 O638 2.378 . S
Ho616 O639 2.524 . S
Ho616 O640 2.381 . S
Ho616 O641 2.669 . S
Ho616 O643 2.346 . S
Ho616 O647 2.305 . S
Ho617 C628 2.811 . S
Ho617 O637 2.346 . S
Ho617 O641 2.305 . S
Ho617 O642 2.322 . S
Ho617 O644 2.378 . S
Ho617 O645 2.524 . S
Ho617 O646 2.381 . S
Ho617 O647 2.669 . S
C618 O636 1.259 . S
C618 O637 1.268 . S
C619 Ho616 2.811 . S
C619 C620 1.488 . S
C619 O638 1.215 . S
C619 O639 1.289 . S
C620 C619 1.488 . S
C620 C621 1.348 . S
C620 C625 1.413 . S
C621 C620 1.348 . S
C621 C622 1.442 . S
C621 H648 0.930 . S
C622 C621 1.442 . S
C622 C623 1.381 . S
C622 H649 0.931 . S
C623 C622 1.381 . S
C623 C624 1.321 . S
C624 C623 1.321 . S
C624 C625 1.403 . S
C624 H650 0.934 . S
C625 C620 1.413 . S
C625 C624 1.403 . S
C625 H651 0.930 . S
C626 O640 1.275 . S
C626 O641 1.256 . S
C627 O642 1.259 . S
C627 O643 1.268 . S
C628 Ho617 2.811 . S
C628 C629 1.488 . S
C628 O644 1.215 . S
C628 O645 1.289 . S
C629 C628 1.488 . S
C629 C630 1.348 . S
C629 C634 1.413 . S
C630 C629 1.348 . S
C630 C631 1.442 . S
C630 H652 0.930 . S
C631 C630 1.442 . S
C631 C632 1.381 . S
C631 H653 0.931 . S
C632 C631 1.381 . S
C632 C633 1.321 . S
C633 C632 1.321 . S
C633 C634 1.403 . S
C633 H654 0.934 . S
C634 C629 1.413 . S
C634 C633 1.403 . S
C634 H655 0.930 . S
C635 O646 1.275 . S
C635 O647 1.256 . S
O636 Ho616 2.322 . S
O636 C618 1.259 . S
O637 Ho617 2.346 . S
O637 C618 1.268 . S
O638 Ho616 2.378 . S
O638 C619 1.215 . S
O639 Ho616 2.524 . S
O639 C619 1.289 . S
O640 Ho616 2.381 . S
O640 C626 1.275 . S
O641 Ho616 2.669 . S
O641 Ho617 2.305 . S
O641 C626 1.256 . S
O642 Ho617 2.322 . S
O642 C627 1.259 . S
O643 Ho616 2.346 . S
O643 C627 1.268 . S
O644 Ho617 2.378 . S
O644 C628 1.215 . S
O645 Ho617 2.524 . S
O645 C628 1.289 . S
O646 Ho617 2.381 . S
O646 C635 1.275 . S
O647 Ho616 2.305 . S
O647 Ho617 2.669 . S
O647 C635 1.256 . S
H648 C621 0.930 . S
H649 C622 0.931 . S
H650 C624 0.934 . S
H651 C625 0.930 . S
H652 C630 0.930 . S
H653 C631 0.931 . S
H654 C633 0.934 . S
H655 C634 0.930 . S
Ho656 C659 2.811 . S
Ho656 O676 2.322 1_554 S
Ho656 O678 2.378 . S
Ho656 O679 2.524 . S
Ho656 O680 2.381 . S
Ho656 O681 2.669 . S
Ho656 O683 2.346 . S
Ho656 O687 2.305 . S
Ho657 C668 2.811 . S
Ho657 O677 2.346 1_554 S
Ho657 O681 2.305 . S
Ho657 O682 2.322 . S
Ho657 O684 2.378 . S
Ho657 O685 2.524 . S
Ho657 O686 2.381 . S
Ho657 O687 2.669 . S
C658 O676 1.259 . S
C658 O677 1.268 . S
C659 Ho656 2.811 . S
C659 C660 1.491 . S
C659 O678 1.215 . S
C659 O679 1.289 . S
C660 C659 1.491 . S
C660 C661 1.344 1_554 S
C660 C665 1.414 . S
C661 C660 1.344 1_556 S
C661 C662 1.442 . S
C661 H688 0.930 . S
C662 C661 1.442 . S
C662 C663 1.381 . S
C662 H689 0.931 . S
C663 C662 1.381 . S
C663 C664 1.321 . S
C664 C663 1.321 . S
C664 C665 1.403 1_556 S
C664 H690 0.934 . S
C665 C660 1.414 . S
C665 C664 1.403 1_554 S
C665 H691 0.930 . S
C666 O680 1.275 . S
C666 O681 1.256 . S
C667 O682 1.259 . S
C667 O683 1.268 . S
C668 Ho657 2.811 . S
C668 C669 1.488 . S
C668 O684 1.215 . S
C668 O685 1.289 . S
C669 C668 1.488 . S
C669 C670 1.348 . S
C669 C674 1.413 . S
C670 C669 1.348 . S
C670 C671 1.442 . S
C670 H692 0.930 . S
C671 C670 1.442 . S
C671 C672 1.381 . S
C671 H693 0.931 . S
C672 C671 1.381 . S
C672 C673 1.321 . S
C673 C672 1.321 . S
C673 C674 1.403 . S
C673 H694 0.934 . S
C674 C669 1.413 . S
C674 C673 1.403 . S
C674 H695 0.930 . S
C675 O686 1.275 . S
C675 O687 1.256 . S
O676 Ho656 2.322 1_556 S
O676 C658 1.259 . S
O677 Ho657 2.346 1_556 S
O677 C658 1.268 . S
O678 Ho656 2.378 . S
O678 C659 1.215 . S
O679 Ho656 2.524 . S
O679 C659 1.289 . S
O680 Ho656 2.381 . S
O680 C666 1.275 . S
O681 Ho656 2.669 . S
O681 Ho657 2.305 . S
O681 C666 1.256 . S
O682 Ho657 2.322 . S
O682 C667 1.259 . S
O683 Ho656 2.346 . S
O683 C667 1.268 . S
O684 Ho657 2.378 . S
O684 C668 1.215 . S
O685 Ho657 2.524 . S
O685 C668 1.289 . S
O686 Ho657 2.381 . S
O686 C675 1.275 . S
O687 Ho656 2.305 . S
O687 Ho657 2.669 . S
O687 C675 1.256 . S
H688 C661 0.930 . S
H689 C662 0.931 . S
H690 C664 0.934 . S
H691 C665 0.930 . S
H692 C670 0.930 . S
H693 C671 0.931 . S
H694 C673 0.934 . S
H695 C674 0.930 . S
Ho696 C699 2.811 . S
Ho696 O716 2.322 . S
Ho696 O718 2.378 . S
Ho696 O719 2.524 . S
Ho696 O720 2.381 . S
Ho696 O721 2.669 . S
Ho696 O723 2.346 . S
Ho696 O727 2.305 . S
Ho697 C708 2.811 . S
Ho697 O717 2.346 . S
Ho697 O721 2.305 . S
Ho697 O722 2.322 . S
Ho697 O724 2.378 . S
Ho697 O725 2.524 . S
Ho697 O726 2.381 . S
Ho697 O727 2.669 . S
C698 O716 1.259 . S
C698 O717 1.268 . S
C699 Ho696 2.811 . S
C699 C700 1.488 . S
C699 O718 1.215 . S
C699 O719 1.289 . S
C700 C699 1.488 . S
C700 C701 1.348 . S
C700 C705 1.413 . S
C701 C700 1.348 . S
C701 C702 1.442 . S
C701 H728 0.930 . S
C702 C701 1.442 . S
C702 C703 1.381 . S
C702 H729 0.931 . S
C703 C702 1.381 . S
C703 C704 1.321 . S
C704 C703 1.321 . S
C704 C705 1.403 . S
C704 H730 0.934 . S
C705 C700 1.413 . S
C705 C704 1.403 . S
C705 H731 0.930 . S
C706 O720 1.275 . S
C706 O721 1.256 . S
C707 O722 1.259 . S
C707 O723 1.268 . S
C708 Ho697 2.811 . S
C708 C709 1.488 . S
C708 O724 1.215 . S
C708 O725 1.289 . S
C709 C708 1.488 . S
C709 C710 1.348 . S
C709 C714 1.413 . S
C710 C709 1.348 . S
C710 C711 1.442 . S
C710 H732 0.930 . S
C711 C710 1.442 . S
C711 C712 1.381 . S
C711 H733 0.931 . S
C712 C711 1.381 . S
C712 C713 1.321 . S
C713 C712 1.321 . S
C713 C714 1.403 . S
C713 H734 0.934 . S
C714 C709 1.413 . S
C714 C713 1.403 . S
C714 H735 0.930 . S
C715 O726 1.275 . S
C715 O727 1.256 . S
O716 Ho696 2.322 . S
O716 C698 1.259 . S
O717 Ho697 2.346 . S
O717 C698 1.268 . S
O718 Ho696 2.378 . S
O718 C699 1.215 . S
O719 Ho696 2.524 . S
O719 C699 1.289 . S
O720 Ho696 2.381 . S
O720 C706 1.275 . S
O721 Ho696 2.669 . S
O721 Ho697 2.305 . S
O721 C706 1.256 . S
O722 Ho697 2.322 . S
O722 C707 1.259 . S
O723 Ho696 2.346 . S
O723 C707 1.268 . S
O724 Ho697 2.378 . S
O724 C708 1.215 . S
O725 Ho697 2.524 . S
O725 C708 1.289 . S
O726 Ho697 2.381 . S
O726 C715 1.275 . S
O727 Ho696 2.305 . S
O727 Ho697 2.669 . S
O727 C715 1.256 . S
H728 C701 0.930 . S
H729 C702 0.931 . S
H730 C704 0.934 . S
H731 C705 0.930 . S
H732 C710 0.930 . S
H733 C711 0.931 . S
H734 C713 0.934 . S
H735 C714 0.930 . S
Ho736 C739 2.811 . S
Ho736 O756 2.322 . S
Ho736 O758 2.378 . S
Ho736 O759 2.524 . S
Ho736 O760 2.381 . S
Ho736 O761 2.669 . S
Ho736 O763 2.346 . S
Ho736 O767 2.305 . S
Ho737 C748 2.811 . S
Ho737 O757 2.346 . S
Ho737 O761 2.305 . S
Ho737 O762 2.322 . S
Ho737 O764 2.378 . S
Ho737 O765 2.524 . S
Ho737 O766 2.381 . S
Ho737 O767 2.669 . S
C738 O756 1.259 . S
C738 O757 1.268 . S
C739 Ho736 2.811 . S
C739 C740 1.488 . S
C739 O758 1.215 . S
C739 O759 1.289 . S
C740 C739 1.488 . S
C740 C741 1.348 . S
C740 C745 1.413 . S
C741 C740 1.348 . S
C741 C742 1.442 1_455 S
C741 H768 0.930 . S
C742 C741 1.442 1_655 S
C742 C743 1.381 . S
C742 H769 0.931 . S
C743 C742 1.381 . S
C743 C744 1.321 1_655 S
C744 C743 1.321 1_455 S
C744 C745 1.403 . S
C744 H770 0.934 . S
C745 C740 1.413 . S
C745 C744 1.403 . S
C745 H771 0.930 . S
C746 O760 1.275 . S
C746 O761 1.256 . S
C747 O762 1.259 . S
C747 O763 1.268 . S
C748 Ho737 2.811 . S
C748 C749 1.488 . S
C748 O764 1.215 . S
C748 O765 1.289 . S
C749 C748 1.488 . S
C749 C750 1.348 . S
C749 C754 1.413 . S
C750 C749 1.348 . S
C750 C751 1.442 . S
C750 H772 0.930 . S
C751 C750 1.442 . S
C751 C752 1.381 . S
C751 H773 0.931 . S
C752 C751 1.381 . S
C752 C753 1.321 . S
C753 C752 1.321 . S
C753 C754 1.403 . S
C753 H774 0.934 . S
C754 C749 1.413 . S
C754 C753 1.403 . S
C754 H775 0.930 . S
C755 O766 1.275 . S
C755 O767 1.256 . S
O756 Ho736 2.322 . S
O756 C738 1.259 . S
O757 Ho737 2.346 . S
O757 C738 1.268 . S
O758 Ho736 2.378 . S
O758 C739 1.215 . S
O759 Ho736 2.524 . S
O759 C739 1.289 . S
O760 Ho736 2.381 . S
O760 C746 1.275 . S
O761 Ho736 2.669 . S
O761 Ho737 2.305 . S
O761 C746 1.256 . S
O762 Ho737 2.322 . S
O762 C747 1.259 . S
O763 Ho736 2.346 . S
O763 C747 1.268 . S
O764 Ho737 2.378 . S
O764 C748 1.215 . S
O765 Ho737 2.524 . S
O765 C748 1.289 . S
O766 Ho737 2.381 . S
O766 C755 1.275 . S
O767 Ho736 2.305 . S
O767 Ho737 2.669 . S
O767 C755 1.256 . S
H768 C741 0.930 . S
H769 C742 0.931 . S
H770 C744 0.934 . S
H771 C745 0.930 . S
H772 C750 0.930 . S
H773 C751 0.931 . S
H774 C753 0.934 . S
H775 C754 0.930 . S
Ho776 C779 2.811 . S
Ho776 O796 2.322 . S
Ho776 O798 2.378 . S
Ho776 O799 2.524 . S
Ho776 O800 2.381 . S
Ho776 O801 2.669 . S
Ho776 O803 2.346 . S
Ho776 O807 2.305 . S
Ho777 C788 2.811 . S
Ho777 O797 2.346 . S
Ho777 O801 2.305 . S
Ho777 O802 2.322 . S
Ho777 O804 2.378 . S
Ho777 O805 2.524 . S
Ho777 O806 2.381 . S
Ho777 O807 2.669 . S
C778 O796 1.259 . S
C778 O797 1.268 . S
C779 Ho776 2.811 . S
C779 C780 1.488 . S
C779 O798 1.215 . S
C779 O799 1.289 . S
C780 C779 1.488 . S
C780 C781 1.348 . S
C780 C785 1.413 . S
C781 C780 1.348 . S
C781 C782 1.442 . S
C781 H808 0.930 . S
C782 C781 1.442 . S
C782 C783 1.381 . S
C782 H809 0.931 . S
C783 C782 1.381 . S
C783 C784 1.321 . S
C784 C783 1.321 . S
C784 C785 1.403 . S
C784 H810 0.934 . S
C785 C780 1.413 . S
C785 C784 1.403 . S
C785 H811 0.930 . S
C786 O800 1.275 . S
C786 O801 1.256 . S
C787 O802 1.259 . S
C787 O803 1.268 . S
C788 Ho777 2.811 . S
C788 C789 1.488 . S
C788 O804 1.215 . S
C788 O805 1.289 . S
C789 C788 1.488 . S
C789 C790 1.348 . S
C789 C794 1.413 . S
C790 C789 1.348 . S
C790 C791 1.442 . S
C790 H812 0.930 . S
C791 C790 1.442 . S
C791 C792 1.381 . S
C791 H813 0.931 . S
C792 C791 1.381 . S
C792 C793 1.321 . S
C793 C792 1.321 . S
C793 C794 1.403 . S
C793 H814 0.934 . S
C794 C789 1.413 . S
C794 C793 1.403 . S
C794 H815 0.930 . S
C795 O806 1.275 . S
C795 O807 1.256 . S
O796 Ho776 2.322 . S
O796 C778 1.259 . S
O797 Ho777 2.346 . S
O797 C778 1.268 . S
O798 Ho776 2.378 . S
O798 C779 1.215 . S
O799 Ho776 2.524 . S
O799 C779 1.289 . S
O800 Ho776 2.381 . S
O800 C786 1.275 . S
O801 Ho776 2.669 . S
O801 Ho777 2.305 . S
O801 C786 1.256 . S
O802 Ho777 2.322 . S
O802 C787 1.259 . S
O803 Ho776 2.346 . S
O803 C787 1.268 . S
O804 Ho777 2.378 . S
O804 C788 1.215 . S
O805 Ho777 2.524 . S
O805 C788 1.289 . S
O806 Ho777 2.381 . S
O806 C795 1.275 . S
O807 Ho776 2.305 . S
O807 Ho777 2.669 . S
O807 C795 1.256 . S
H808 C781 0.930 . S
H809 C782 0.931 . S
H810 C784 0.934 . S
H811 C785 0.930 . S
H812 C790 0.930 . S
H813 C791 0.931 . S
H814 C793 0.934 . S
H815 C794 0.930 . S
Ho816 C819 2.811 . S
Ho816 O836 2.322 . S
Ho816 O838 2.378 . S
Ho816 O839 2.524 . S
Ho816 O840 2.381 . S
Ho816 O841 2.669 . S
Ho816 O843 2.346 . S
Ho816 O847 2.305 . S
Ho817 C828 2.811 . S
Ho817 O837 2.346 . S
Ho817 O841 2.305 . S
Ho817 O842 2.322 . S
Ho817 O844 2.378 . S
Ho817 O845 2.524 . S
Ho817 O846 2.381 . S
Ho817 O847 2.669 . S
C818 O836 1.259 . S
C818 O837 1.268 . S
C819 Ho816 2.811 . S
C819 C820 1.488 . S
C819 O838 1.215 . S
C819 O839 1.289 . S
C820 C819 1.488 . S
C820 C821 1.348 . S
C820 C825 1.413 . S
C821 C820 1.348 . S
C821 C822 1.442 . S
C821 H848 0.930 . S
C822 C821 1.442 . S
C822 C823 1.381 . S
C822 H849 0.931 . S
C823 C822 1.381 . S
C823 C824 1.321 . S
C824 C823 1.321 . S
C824 C825 1.403 . S
C824 H850 0.934 . S
C825 C820 1.413 . S
C825 C824 1.403 . S
C825 H851 0.930 . S
C826 O840 1.275 . S
C826 O841 1.256 . S
C827 O842 1.259 . S
C827 O843 1.268 . S
C828 Ho817 2.811 . S
C828 C829 1.488 . S
C828 O844 1.215 . S
C828 O845 1.289 . S
C829 C828 1.488 . S
C829 C830 1.348 . S
C829 C834 1.413 . S
C830 C829 1.348 . S
C830 C831 1.442 . S
C830 H852 0.930 . S
C831 C830 1.442 . S
C831 C832 1.381 . S
C831 H853 0.931 . S
C832 C831 1.381 . S
C832 C833 1.321 . S
C833 C832 1.321 . S
C833 C834 1.403 . S
C833 H854 0.934 . S
C834 C829 1.413 . S
C834 C833 1.403 . S
C834 H855 0.930 . S
C835 O846 1.275 . S
C835 O847 1.256 . S
O836 Ho816 2.322 . S
O836 C818 1.259 . S
O837 Ho817 2.346 . S
O837 C818 1.268 . S
O838 Ho816 2.378 . S
O838 C819 1.215 . S
O839 Ho816 2.524 . S
O839 C819 1.289 . S
O840 Ho816 2.381 . S
O840 C826 1.275 . S
O841 Ho816 2.669 . S
O841 Ho817 2.305 . S
O841 C826 1.256 . S
O842 Ho817 2.322 . S
O842 C827 1.259 . S
O843 Ho816 2.346 . S
O843 C827 1.268 . S
O844 Ho817 2.378 . S
O844 C828 1.215 . S
O845 Ho817 2.524 . S
O845 C828 1.289 . S
O846 Ho817 2.381 . S
O846 C835 1.275 . S
O847 Ho816 2.305 . S
O847 Ho817 2.669 . S
O847 C835 1.256 . S
H848 C821 0.930 . S
H849 C822 0.931 . S
H850 C824 0.934 . S
H851 C825 0.930 . S
H852 C830 0.930 . S
H853 C831 0.931 . S
H854 C833 0.934 . S
H855 C834 0.930 . S
Ho856 C859 2.811 . S
Ho856 O876 2.322 . S
Ho856 O878 2.378 . S
Ho856 O879 2.524 . S
Ho856 O880 2.381 . S
Ho856 O881 2.669 . S
Ho856 O883 2.346 . S
Ho856 O887 2.305 . S
Ho857 C868 2.811 . S
Ho857 O877 2.346 . S
Ho857 O881 2.305 . S
Ho857 O882 2.322 . S
Ho857 O884 2.378 . S
Ho857 O885 2.524 . S
Ho857 O886 2.381 . S
Ho857 O887 2.669 . S
C858 O876 1.259 . S
C858 O877 1.268 . S
C859 Ho856 2.811 . S
C859 C860 1.488 . S
C859 O878 1.215 . S
C859 O879 1.289 . S
C860 C859 1.488 . S
C860 C861 1.348 . S
C860 C865 1.413 . S
C861 C860 1.348 . S
C861 C862 1.442 . S
C861 H888 0.930 . S
C862 C861 1.442 . S
C862 C863 1.381 . S
C862 H889 0.931 . S
C863 C862 1.381 . S
C863 C864 1.321 . S
C864 C863 1.321 . S
C864 C865 1.403 . S
C864 H890 0.934 . S
C865 C860 1.413 . S
C865 C864 1.403 . S
C865 H891 0.930 . S
C866 O880 1.275 . S
C866 O881 1.256 . S
C867 O882 1.259 . S
C867 O883 1.268 . S
C868 Ho857 2.811 . S
C868 C869 1.488 . S
C868 O884 1.215 . S
C868 O885 1.289 . S
C869 C868 1.488 . S
C869 C870 1.348 . S
C869 C874 1.413 . S
C870 C869 1.348 . S
C870 C871 1.442 . S
C870 H892 0.930 . S
C871 C870 1.442 . S
C871 C872 1.381 . S
C871 H893 0.931 . S
C872 C871 1.381 . S
C872 C873 1.321 . S
C873 C872 1.321 . S
C873 C874 1.403 . S
C873 H894 0.934 . S
C874 C869 1.413 . S
C874 C873 1.403 . S
C874 H895 0.930 . S
C875 O886 1.275 . S
C875 O887 1.256 . S
O876 Ho856 2.322 . S
O876 C858 1.259 . S
O877 Ho857 2.346 . S
O877 C858 1.268 . S
O878 Ho856 2.378 . S
O878 C859 1.215 . S
O879 Ho856 2.524 . S
O879 C859 1.289 . S
O880 Ho856 2.381 . S
O880 C866 1.275 . S
O881 Ho856 2.669 . S
O881 Ho857 2.305 . S
O881 C866 1.256 . S
O882 Ho857 2.322 . S
O882 C867 1.259 . S
O883 Ho856 2.346 . S
O883 C867 1.268 . S
O884 Ho857 2.378 . S
O884 C868 1.215 . S
O885 Ho857 2.524 . S
O885 C868 1.289 . S
O886 Ho857 2.381 . S
O886 C875 1.275 . S
O887 Ho856 2.305 . S
O887 Ho857 2.669 . S
O887 C875 1.256 . S
H888 C861 0.930 . S
H889 C862 0.931 . S
H890 C864 0.934 . S
H891 C865 0.930 . S
H892 C870 0.930 . S
H893 C871 0.931 . S
H894 C873 0.934 . S
H895 C874 0.930 . S
Ho896 C899 2.811 . S
Ho896 O916 2.322 . S
Ho896 O918 2.378 . S
Ho896 O919 2.524 . S
Ho896 O920 2.381 . S
Ho896 O921 2.669 . S
Ho896 O923 2.346 . S
Ho896 O927 2.305 . S
Ho897 C908 2.811 . S
Ho897 O917 2.346 . S
Ho897 O921 2.305 . S
Ho897 O922 2.322 . S
Ho897 O924 2.378 . S
Ho897 O925 2.524 . S
Ho897 O926 2.381 . S
Ho897 O927 2.669 . S
C898 O916 1.259 . S
C898 O917 1.268 . S
C899 Ho896 2.811 . S
C899 C900 1.488 . S
C899 O918 1.215 . S
C899 O919 1.289 . S
C900 C899 1.488 . S
C900 C901 1.348 . S
C900 C905 1.413 . S
C901 C900 1.348 . S
C901 C902 1.442 . S
C901 H928 0.930 . S
C902 C901 1.442 . S
C902 C903 1.381 . S
C902 H929 0.931 . S
C903 C902 1.381 . S
C903 C904 1.321 . S
C904 C903 1.321 . S
C904 C905 1.403 . S
C904 H930 0.934 . S
C905 C900 1.413 . S
C905 C904 1.403 . S
C905 H931 0.930 . S
C906 O920 1.275 . S
C906 O921 1.256 . S
C907 O922 1.259 . S
C907 O923 1.268 . S
C908 Ho897 2.811 . S
C908 C909 1.488 . S
C908 O924 1.215 . S
C908 O925 1.289 . S
C909 C908 1.488 . S
C909 C910 1.348 . S
C909 C914 1.413 . S
C910 C909 1.348 . S
C910 C911 1.442 . S
C910 H932 0.930 . S
C911 C910 1.442 . S
C911 C912 1.381 . S
C911 H933 0.931 . S
C912 C911 1.381 . S
C912 C913 1.321 . S
C913 C912 1.321 . S
C913 C914 1.403 . S
C913 H934 0.934 . S
C914 C909 1.413 . S
C914 C913 1.403 . S
C914 H935 0.930 . S
C915 O926 1.275 . S
C915 O927 1.256 . S
O916 Ho896 2.322 . S
O916 C898 1.259 . S
O917 Ho897 2.346 . S
O917 C898 1.268 . S
O918 Ho896 2.378 . S
O918 C899 1.215 . S
O919 Ho896 2.524 . S
O919 C899 1.289 . S
O920 Ho896 2.381 . S
O920 C906 1.275 . S
O921 Ho896 2.669 . S
O921 Ho897 2.305 . S
O921 C906 1.256 . S
O922 Ho897 2.322 . S
O922 C907 1.259 . S
O923 Ho896 2.346 . S
O923 C907 1.268 . S
O924 Ho897 2.378 . S
O924 C908 1.215 . S
O925 Ho897 2.524 . S
O925 C908 1.289 . S
O926 Ho897 2.381 . S
O926 C915 1.275 . S
O927 Ho896 2.305 . S
O927 Ho897 2.669 . S
O927 C915 1.256 . S
H928 C901 0.930 . S
H929 C902 0.931 . S
H930 C904 0.934 . S
H931 C905 0.930 . S
H932 C910 0.930 . S
H933 C911 0.931 . S
H934 C913 0.934 . S
H935 C914 0.930 . S
Ho936 C939 2.811 . S
Ho936 O956 2.322 . S
Ho936 O958 2.378 . S
Ho936 O959 2.524 . S
Ho936 O960 2.381 1_554 S
Ho936 O961 2.669 . S
Ho936 O963 2.346 . S
Ho936 O967 2.305 . S
Ho937 C948 2.811 1_455 S
Ho937 O957 2.346 . S
Ho937 O961 2.305 . S
Ho937 O962 2.322 . S
Ho937 O964 2.378 . S
Ho937 O965 2.524 . S
Ho937 O966 2.381 . S
Ho937 O967 2.669 . S
C938 O956 1.259 . S
C938 O957 1.268 . S
C939 Ho936 2.811 . S
C939 C940 1.488 . S
C939 O958 1.215 . S
C939 O959 1.289 . S
C940 C939 1.488 . S
C940 C941 1.348 . S
C940 C945 1.413 1_554 S
C941 C940 1.348 . S
C941 C942 1.442 . S
C941 H968 0.930 . S
C942 C941 1.442 . S
C942 C943 1.381 . S
C942 H969 0.931 . S
C943 C942 1.381 . S
C943 C944 1.321 1_554 S
C944 C943 1.321 1_556 S
C944 C945 1.403 . S
C944 H970 0.934 . S
C945 C940 1.413 1_556 S
C945 C944 1.403 . S
C945 H971 0.930 . S
C946 O960 1.275 . S
C946 O961 1.256 1_556 S
C947 O962 1.259 . S
C947 O963 1.268 . S
C948 Ho937 2.811 1_655 S
C948 C949 1.488 . S
C948 O964 1.215 1_655 S
C948 O965 1.289 1_655 S
C949 C948 1.488 . S
C949 C950 1.348 . S
C949 C954 1.413 . S
C950 C949 1.348 . S
C950 C951 1.442 . S
C950 H972 0.930 . S
C951 C950 1.442 . S
C951 C952 1.381 . S
C951 H973 0.931 . S
C952 C951 1.381 . S
C952 C953 1.321 . S
C953 C952 1.321 . S
C953 C954 1.403 . S
C953 H974 0.934 . S
C954 C949 1.413 . S
C954 C953 1.403 . S
C954 H975 0.930 . S
C955 O966 1.275 . S
C955 O967 1.256 . S
O956 Ho936 2.322 . S
O956 C938 1.259 . S
O957 Ho937 2.346 . S
O957 C938 1.268 . S
O958 Ho936 2.378 . S
O958 C939 1.215 . S
O959 Ho936 2.524 . S
O959 C939 1.289 . S
O960 Ho936 2.381 1_556 S
O960 C946 1.275 . S
O961 Ho936 2.669 . S
O961 Ho937 2.305 . S
O961 C946 1.256 1_554 S
O962 Ho937 2.322 . S
O962 C947 1.259 . S
O963 Ho936 2.346 . S
O963 C947 1.268 . S
O964 Ho937 2.378 . S
O964 C948 1.215 1_455 S
O965 Ho937 2.524 . S
O965 C948 1.289 1_455 S
O966 Ho937 2.381 . S
O966 C955 1.275 . S
O967 Ho936 2.305 . S
O967 Ho937 2.669 . S
O967 C955 1.256 . S
H968 C941 0.930 . S
H969 C942 0.931 . S
H970 C944 0.934 . S
H971 C945 0.930 . S
H972 C950 0.930 . S
H973 C951 0.931 . S
H974 C953 0.934 . S
H975 C954 0.930 . S
H976 C988 0.930 . S
H977 C990 0.930 . S
H978 C991 0.930 . S
H979 C995 0.959 . S
H980 C995 0.959 . S
H981 C995 0.961 . S
H982 C996 0.960 . S
H983 C996 0.961 . S
H984 C996 0.959 . S
H985 C999 0.929 . S
H986 C1000 0.931 . S
H987 C1002 0.930 . S
C988 H976 0.930 . S
C988 C989 1.399 . S
C988 C993 1.399 . S
C989 C988 1.399 . S
C989 C990 1.376 . S
C990 H977 0.930 . S
C990 C989 1.376 . S
C990 C991 1.388 . S
C991 H978 0.930 . S
C991 C990 1.388 . S
C991 C992 1.390 . S
C992 C991 1.390 . S
C992 C993 1.394 . S
C992 C998 1.465 . S
C993 C988 1.399 . S
C993 C992 1.394 . S
C993 C994 1.516 . S
C994 C993 1.516 . S
C994 C995 1.502 1_455 S
C994 C996 1.561 . S
C994 C997 1.526 . S
C995 H979 0.959 . S
C995 H980 0.959 . S
C995 H981 0.961 . S
C995 C994 1.502 1_655 S
C996 H982 0.960 . S
C996 H983 0.961 . S
C996 H984 0.959 . S
C996 C994 1.561 . S
C997 C994 1.526 . S
C997 C998 1.396 . S
C997 C1002 1.390 . S
C998 C992 1.465 . S
C998 C997 1.396 . S
C998 C999 1.399 1_556 S
C999 H985 0.929 . S
C999 C998 1.399 1_554 S
C999 C1000 1.385 . S
C1000 H986 0.931 . S
C1000 C999 1.385 . S
C1000 C1001 1.389 . S
C1001 C1000 1.389 . S
C1001 C1002 1.387 1_554 S
C1002 H987 0.930 . S
C1002 C997 1.390 . S
C1002 C1001 1.387 1_556 S
H1003 C1015 0.930 . S
H1004 C1017 0.930 . S
H1005 C1018 0.930 . S
H1006 C1022 0.959 . S
H1007 C1022 0.959 . S
H1008 C1022 0.961 . S
H1009 C1023 0.960 . S
H1010 C1023 0.961 . S
H1011 C1023 0.959 . S
H1012 C1026 0.929 . S
H1013 C1027 0.931 . S
H1014 C1029 0.930 . S
C1015 H1003 0.930 . S
C1015 C1016 1.399 . S
C1015 C1020 1.399 . S
C1016 C1015 1.399 . S
C1016 C1017 1.376 . S
C1017 H1004 0.930 . S
C1017 C1016 1.376 . S
C1017 C1018 1.388 . S
C1018 H1005 0.930 . S
C1018 C1017 1.388 . S
C1018 C1019 1.390 . S
C1019 C1018 1.390 . S
C1019 C1020 1.394 . S
C1019 C1025 1.465 . S
C1020 C1015 1.399 . S
C1020 C1019 1.394 . S
C1020 C1021 1.516 . S
C1021 C1020 1.516 . S
C1021 C1022 1.502 . S
C1021 C1023 1.561 . S
C1021 C1024 1.526 . S
C1022 H1006 0.959 . S
C1022 H1007 0.959 . S
C1022 H1008 0.961 . S
C1022 C1021 1.502 . S
C1023 H1009 0.960 . S
C1023 H1010 0.961 . S
C1023 H1011 0.959 . S
C1023 C1021 1.561 . S
C1024 C1021 1.526 . S
C1024 C1025 1.396 . S
C1024 C1029 1.390 . S
C1025 C1019 1.465 . S
C1025 C1024 1.396 . S
C1025 C1026 1.399 . S
C1026 H1012 0.929 . S
C1026 C1025 1.399 . S
C1026 C1027 1.385 . S
C1027 H1013 0.931 . S
C1027 C1026 1.385 . S
C1027 C1028 1.389 . S
C1028 C1027 1.389 . S
C1028 C1029 1.387 . S
C1029 H1014 0.930 . S
C1029 C1024 1.390 . S
C1029 C1028 1.387 . S
H1030 C1042 0.930 . S
H1031 C1044 0.930 . S
H1032 C1045 0.930 . S
H1033 C1049 0.959 . S
H1034 C1049 0.959 . S
H1035 C1049 0.961 . S
H1036 C1050 0.960 . S
H1037 C1050 0.961 . S
H1038 C1050 0.959 . S
H1039 C1053 0.929 . S
H1040 C1054 0.931 . S
H1041 C1056 0.930 . S
C1042 H1030 0.930 . S
C1042 C1043 1.399 . S
C1042 C1047 1.399 . S
C1043 C1042 1.399 . S
C1043 C1044 1.376 . S
C1044 H1031 0.930 . S
C1044 C1043 1.376 . S
C1044 C1045 1.388 . S
C1045 H1032 0.930 . S
C1045 C1044 1.388 . S
C1045 C1046 1.390 . S
C1046 C1045 1.390 . S
C1046 C1047 1.394 . S
C1046 C1052 1.465 . S
C1047 C1042 1.399 . S
C1047 C1046 1.394 . S
C1047 C1048 1.516 . S
C1048 C1047 1.516 . S
C1048 C1049 1.502 . S
C1048 C1050 1.561 . S
C1048 C1051 1.526 . S
C1049 H1033 0.959 . S
C1049 H1034 0.959 . S
C1049 H1035 0.961 . S
C1049 C1048 1.502 . S
C1050 H1036 0.960 . S
C1050 H1037 0.961 . S
C1050 H1038 0.959 . S
C1050 C1048 1.561 . S
C1051 C1048 1.526 . S
C1051 C1052 1.396 . S
C1051 C1056 1.390 . S
C1052 C1046 1.465 . S
C1052 C1051 1.396 . S
C1052 C1053 1.399 . S
C1053 H1039 0.929 . S
C1053 C1052 1.399 . S
C1053 C1054 1.385 . S
C1054 H1040 0.931 . S
C1054 C1053 1.385 . S
C1054 C1055 1.389 . S
C1055 C1054 1.389 . S
C1055 C1056 1.387 . S
C1056 H1041 0.930 . S
C1056 C1051 1.390 . S
C1056 C1055 1.387 . S
H1057 C1069 0.930 . S
H1058 C1071 0.930 . S
H1059 C1072 0.930 . S
H1060 C1076 0.959 . S
H1061 C1076 0.959 . S
H1062 C1076 0.961 . S
H1063 C1077 0.960 . S
H1064 C1077 0.961 . S
H1065 C1077 0.959 . S
H1066 C1080 0.929 . S
H1067 C1081 0.931 . S
H1068 C1083 0.930 . S
C1069 H1057 0.930 . S
C1069 C1070 1.399 . S
C1069 C1074 1.399 . S
C1070 C1069 1.399 . S
C1070 C1071 1.376 . S
C1071 H1058 0.930 . S
C1071 C1070 1.376 . S
C1071 C1072 1.388 . S
C1072 H1059 0.930 . S
C1072 C1071 1.388 . S
C1072 C1073 1.390 . S
C1073 C1072 1.390 . S
C1073 C1074 1.394 . S
C1073 C1079 1.465 . S
C1074 C1069 1.399 . S
C1074 C1073 1.394 . S
C1074 C1075 1.516 . S
C1075 C1074 1.516 . S
C1075 C1076 1.502 . S
C1075 C1077 1.561 . S
C1075 C1078 1.526 . S
C1076 H1060 0.959 . S
C1076 H1061 0.959 . S
C1076 H1062 0.961 . S
C1076 C1075 1.502 . S
C1077 H1063 0.960 . S
C1077 H1064 0.961 . S
C1077 H1065 0.959 . S
C1077 C1075 1.561 . S
C1078 C1075 1.526 . S
C1078 C1079 1.396 . S
C1078 C1083 1.390 . S
C1079 C1073 1.465 . S
C1079 C1078 1.396 . S
C1079 C1080 1.399 . S
C1080 H1066 0.929 . S
C1080 C1079 1.399 . S
C1080 C1081 1.385 . S
C1081 H1067 0.931 . S
C1081 C1080 1.385 . S
C1081 C1082 1.389 . S
C1082 C1081 1.389 . S
C1082 C1083 1.387 . S
C1083 H1068 0.930 . S
C1083 C1078 1.390 . S
C1083 C1082 1.387 . S
H1084 C1096 0.930 . S
H1085 C1098 0.930 . S
H1086 C1099 0.930 . S
H1087 C1103 0.959 . S
H1088 C1103 0.959 . S
H1089 C1103 0.961 . S
H1090 C1104 0.960 . S
H1091 C1104 0.961 . S
H1092 C1104 0.959 . S
H1093 C1107 0.929 . S
H1094 C1108 0.931 . S
H1095 C1110 0.930 . S
C1096 H1084 0.930 . S
C1096 C1097 1.399 . S
C1096 C1101 1.399 . S
C1097 C1096 1.399 . S
C1097 C1098 1.376 . S
C1098 H1085 0.930 . S
C1098 C1097 1.376 . S
C1098 C1099 1.388 . S
C1099 H1086 0.930 . S
C1099 C1098 1.388 . S
C1099 C1100 1.390 . S
C1100 C1099 1.390 . S
C1100 C1101 1.394 . S
C1100 C1106 1.465 . S
C1101 C1096 1.399 . S
C1101 C1100 1.394 . S
C1101 C1102 1.516 . S
C1102 C1101 1.516 . S
C1102 C1103 1.502 . S
C1102 C1104 1.561 . S
C1102 C1105 1.526 . S
C1103 H1087 0.959 . S
C1103 H1088 0.959 . S
C1103 H1089 0.961 . S
C1103 C1102 1.502 . S
C1104 H1090 0.960 . S
C1104 H1091 0.961 . S
C1104 H1092 0.959 . S
C1104 C1102 1.561 . S
C1105 C1102 1.526 . S
C1105 C1106 1.396 . S
C1105 C1110 1.390 . S
C1106 C1100 1.465 . S
C1106 C1105 1.396 . S
C1106 C1107 1.399 . S
C1107 H1093 0.929 . S
C1107 C1106 1.399 . S
C1107 C1108 1.385 . S
C1108 H1094 0.931 . S
C1108 C1107 1.385 . S
C1108 C1109 1.389 . S
C1109 C1108 1.389 . S
C1109 C1110 1.387 . S
C1110 H1095 0.930 . S
C1110 C1105 1.390 . S
C1110 C1109 1.387 . S
H1111 C1123 0.930 . S
H1112 C1125 0.930 . S
H1113 C1126 0.930 . S
H1114 C1130 0.959 . S
H1115 C1130 0.959 . S
H1116 C1130 0.961 . S
H1117 C1131 0.960 . S
H1118 C1131 0.961 . S
H1119 C1131 0.959 . S
H1120 C1134 0.929 . S
H1121 C1135 0.931 . S
H1122 C1137 0.930 . S
C1123 H1111 0.930 . S
C1123 C1124 1.399 . S
C1123 C1128 1.399 . S
C1124 C1123 1.399 . S
C1124 C1125 1.376 . S
C1125 H1112 0.930 . S
C1125 C1124 1.376 . S
C1125 C1126 1.388 . S
C1126 H1113 0.930 . S
C1126 C1125 1.388 . S
C1126 C1127 1.390 . S
C1127 C1126 1.390 . S
C1127 C1128 1.394 . S
C1127 C1133 1.465 . S
C1128 C1123 1.399 . S
C1128 C1127 1.394 . S
C1128 C1129 1.516 . S
C1129 C1128 1.516 . S
C1129 C1130 1.502 . S
C1129 C1131 1.561 . S
C1129 C1132 1.526 . S
C1130 H1114 0.959 . S
C1130 H1115 0.959 . S
C1130 H1116 0.961 . S
C1130 C1129 1.502 . S
C1131 H1117 0.960 . S
C1131 H1118 0.961 . S
C1131 H1119 0.959 . S
C1131 C1129 1.561 . S
C1132 C1129 1.526 . S
C1132 C1133 1.396 . S
C1132 C1137 1.390 . S
C1133 C1127 1.465 . S
C1133 C1132 1.396 . S
C1133 C1134 1.399 . S
C1134 H1120 0.929 . S
C1134 C1133 1.399 . S
C1134 C1135 1.385 . S
C1135 H1121 0.931 . S
C1135 C1134 1.385 . S
C1135 C1136 1.389 . S
C1136 C1135 1.389 . S
C1136 C1137 1.387 . S
C1137 H1122 0.930 . S
C1137 C1132 1.390 . S
C1137 C1136 1.387 . S
H1138 C1150 0.930 . S
H1139 C1152 0.930 . S
H1140 C1153 0.930 . S
H1141 C1157 0.959 . S
H1142 C1157 0.959 . S
H1143 C1157 0.961 . S
H1144 C1158 0.960 . S
H1145 C1158 0.961 . S
H1146 C1158 0.959 . S
H1147 C1161 0.929 . S
H1148 C1162 0.931 . S
H1149 C1164 0.930 . S
C1150 H1138 0.930 . S
C1150 C1151 1.399 . S
C1150 C1155 1.399 . S
C1151 C1150 1.399 . S
C1151 C1152 1.376 . S
C1152 H1139 0.930 . S
C1152 C1151 1.376 . S
C1152 C1153 1.388 . S
C1153 H1140 0.930 . S
C1153 C1152 1.388 . S
C1153 C1154 1.390 . S
C1154 C1153 1.390 . S
C1154 C1155 1.394 . S
C1154 C1160 1.465 . S
C1155 C1150 1.399 . S
C1155 C1154 1.394 . S
C1155 C1156 1.516 . S
C1156 C1155 1.516 . S
C1156 C1157 1.502 . S
C1156 C1158 1.561 . S
C1156 C1159 1.526 . S
C1157 H1141 0.959 . S
C1157 H1142 0.959 . S
C1157 H1143 0.961 . S
C1157 C1156 1.502 . S
C1158 H1144 0.960 . S
C1158 H1145 0.961 . S
C1158 H1146 0.959 . S
C1158 C1156 1.561 . S
C1159 C1156 1.526 . S
C1159 C1160 1.396 . S
C1159 C1164 1.390 . S
C1160 C1154 1.465 . S
C1160 C1159 1.396 . S
C1160 C1161 1.399 . S
C1161 H1147 0.929 . S
C1161 C1160 1.399 . S
C1161 C1162 1.385 . S
C1162 H1148 0.931 . S
C1162 C1161 1.385 . S
C1162 C1163 1.389 . S
C1163 C1162 1.389 . S
C1163 C1164 1.387 . S
C1164 H1149 0.930 . S
C1164 C1159 1.390 . S
C1164 C1163 1.387 . S
H1165 C1177 0.930 . S
H1166 C1179 0.930 . S
H1167 C1180 0.930 . S
H1168 C1184 0.959 . S
H1169 C1184 0.959 . S
H1170 C1184 0.961 . S
H1171 C1185 0.960 . S
H1172 C1185 0.961 . S
H1173 C1185 0.959 . S
H1174 C1188 0.929 . S
H1175 C1189 0.931 . S
H1176 C1191 0.930 . S
C1177 H1165 0.930 . S
C1177 C1178 1.399 . S
C1177 C1182 1.399 . S
C1178 C1177 1.399 . S
C1178 C1179 1.376 . S
C1179 H1166 0.930 . S
C1179 C1178 1.376 . S
C1179 C1180 1.388 . S
C1180 H1167 0.930 . S
C1180 C1179 1.388 . S
C1180 C1181 1.390 . S
C1181 C1180 1.390 . S
C1181 C1182 1.394 . S
C1181 C1187 1.465 . S
C1182 C1177 1.399 . S
C1182 C1181 1.394 . S
C1182 C1183 1.516 . S
C1183 C1182 1.516 . S
C1183 C1184 1.502 . S
C1183 C1185 1.561 . S
C1183 C1186 1.526 . S
C1184 H1168 0.959 . S
C1184 H1169 0.959 . S
C1184 H1170 0.961 . S
C1184 C1183 1.502 . S
C1185 H1171 0.960 . S
C1185 H1172 0.961 . S
C1185 H1173 0.959 . S
C1185 C1183 1.561 . S
C1186 C1183 1.526 . S
C1186 C1187 1.396 . S
C1186 C1191 1.390 . S
C1187 C1181 1.465 . S
C1187 C1186 1.396 . S
C1187 C1188 1.399 . S
C1188 H1174 0.929 . S
C1188 C1187 1.399 . S
C1188 C1189 1.385 . S
C1189 H1175 0.931 . S
C1189 C1188 1.385 . S
C1189 C1190 1.389 . S
C1190 C1189 1.389 . S
C1190 C1191 1.387 . S
C1191 H1176 0.930 . S
C1191 C1186 1.390 . S
C1191 C1190 1.387 . S
H1192 C1204 0.930 . S
H1193 C1206 0.930 . S
H1194 C1207 0.927 . S
H1195 C1211 0.959 . S
H1196 C1211 0.959 . S
H1197 C1211 0.961 . S
H1198 C1212 0.960 . S
H1199 C1212 0.961 . S
H1200 C1212 0.959 . S
H1201 C1215 0.929 . S
H1202 C1216 0.931 . S
H1203 C1218 0.930 . S
C1204 H1192 0.930 . S
C1204 C1205 1.399 . S
C1204 C1209 1.399 . S
C1205 C1204 1.399 . S
C1205 C1206 1.376 . S
C1206 H1193 0.930 . S
C1206 C1205 1.376 . S
C1206 C1207 1.388 . S
C1207 H1194 0.927 . S
C1207 C1206 1.388 . S
C1207 C1208 1.388 1_655 S
C1208 C1207 1.388 1_455 S
C1208 C1209 1.383 1_455 S
C1208 C1214 1.476 . S
C1209 C1204 1.399 . S
C1209 C1208 1.383 1_655 S
C1209 C1210 1.516 1_655 S
C1210 C1209 1.516 1_455 S
C1210 C1211 1.502 1_455 S
C1210 C1212 1.561 . S
C1210 C1213 1.526 . S
C1211 H1195 0.959 . S
C1211 H1196 0.959 . S
C1211 H1197 0.961 . S
C1211 C1210 1.502 1_655 S
C1212 H1198 0.960 . S
C1212 H1199 0.961 . S
C1212 H1200 0.959 . S
C1212 C1210 1.561 . S
C1213 C1210 1.526 . S
C1213 C1214 1.396 . S
C1213 C1218 1.390 . S
C1214 C1208 1.476 . S
C1214 C1213 1.396 . S
C1214 C1215 1.399 . S
C1215 H1201 0.929 . S
C1215 C1214 1.399 . S
C1215 C1216 1.385 . S
C1216 H1202 0.931 . S
C1216 C1215 1.385 . S
C1216 C1217 1.389 . S
C1217 C1216 1.389 . S
C1217 C1218 1.387 . S
C1218 H1203 0.930 . S
C1218 C1213 1.390 . S
C1218 C1217 1.387 . S
H1219 C1231 0.930 . S
H1220 C1233 0.930 . S
H1221 C1234 0.930 . S
H1222 C1238 0.959 . S
H1223 C1238 0.959 . S
H1224 C1238 0.961 . S
H1225 C1239 0.960 . S
H1226 C1239 0.961 . S
H1227 C1239 0.959 . S
H1228 C1242 0.929 . S
H1229 C1243 0.931 . S
H1230 C1245 0.930 . S
C1231 H1219 0.930 . S
C1231 C1232 1.399 . S
C1231 C1236 1.399 . S
C1232 C1231 1.399 . S
C1232 C1233 1.376 . S
C1233 H1220 0.930 . S
C1233 C1232 1.376 . S
C1233 C1234 1.388 . S
C1234 H1221 0.930 . S
C1234 C1233 1.388 . S
C1234 C1235 1.390 . S
C1235 C1234 1.390 . S
C1235 C1236 1.394 . S
C1235 C1241 1.465 . S
C1236 C1231 1.399 . S
C1236 C1235 1.394 . S
C1236 C1237 1.516 . S
C1237 C1236 1.516 . S
C1237 C1238 1.502 . S
C1237 C1239 1.561 . S
C1237 C1240 1.526 . S
C1238 H1222 0.959 . S
C1238 H1223 0.959 . S
C1238 H1224 0.961 . S
C1238 C1237 1.502 . S
C1239 H1225 0.960 . S
C1239 H1226 0.961 . S
C1239 H1227 0.959 . S
C1239 C1237 1.561 . S
C1240 C1237 1.526 . S
C1240 C1241 1.396 . S
C1240 C1245 1.390 . S
C1241 C1235 1.465 . S
C1241 C1240 1.396 . S
C1241 C1242 1.399 . S
C1242 H1228 0.929 . S
C1242 C1241 1.399 . S
C1242 C1243 1.385 . S
C1243 H1229 0.931 . S
C1243 C1242 1.385 . S
C1243 C1244 1.389 . S
C1244 C1243 1.389 . S
C1244 C1245 1.387 . S
C1245 H1230 0.930 . S
C1245 C1240 1.390 . S
C1245 C1244 1.387 . S
H1246 C1258 0.930 . S
H1247 C1260 0.930 . S
H1248 C1261 0.930 . S
H1249 C1265 0.959 . S
H1250 C1265 0.959 . S
H1251 C1265 0.961 . S
H1252 C1266 0.960 . S
H1253 C1266 0.961 . S
H1254 C1266 0.959 . S
H1255 C1269 0.929 . S
H1256 C1270 0.931 . S
H1257 C1272 0.930 . S
C1258 H1246 0.930 . S
C1258 C1259 1.399 . S
C1258 C1263 1.399 . S
C1259 C1258 1.399 . S
C1259 C1260 1.376 . S
C1260 H1247 0.930 . S
C1260 C1259 1.376 . S
C1260 C1261 1.388 . S
C1261 H1248 0.930 . S
C1261 C1260 1.388 . S
C1261 C1262 1.390 . S
C1262 C1261 1.390 . S
C1262 C1263 1.394 . S
C1262 C1268 1.465 . S
C1263 C1258 1.399 . S
C1263 C1262 1.394 . S
C1263 C1264 1.516 . S
C1264 C1263 1.516 . S
C1264 C1265 1.502 . S
C1264 C1266 1.561 . S
C1264 C1267 1.526 . S
C1265 H1249 0.959 . S
C1265 H1250 0.959 . S
C1265 H1251 0.961 . S
C1265 C1264 1.502 . S
C1266 H1252 0.960 . S
C1266 H1253 0.961 . S
C1266 H1254 0.959 . S
C1266 C1264 1.561 . S
C1267 C1264 1.526 . S
C1267 C1268 1.396 . S
C1267 C1272 1.390 . S
C1268 C1262 1.465 . S
C1268 C1267 1.396 . S
C1268 C1269 1.399 . S
C1269 H1255 0.929 . S
C1269 C1268 1.399 . S
C1269 C1270 1.385 . S
C1270 H1256 0.931 . S
C1270 C1269 1.385 . S
C1270 C1271 1.389 . S
C1271 C1270 1.389 . S
C1271 C1272 1.387 . S
C1272 H1257 0.930 . S
C1272 C1267 1.390 . S
C1272 C1271 1.387 . S
H1273 C1285 0.930 . S
H1274 C1287 0.930 . S
H1275 C1288 0.930 . S
H1276 C1292 0.959 . S
H1277 C1292 0.959 . S
H1278 C1292 0.961 . S
H1279 C1293 0.960 . S
H1280 C1293 0.961 . S
H1281 C1293 0.959 . S
H1282 C1296 0.929 . S
H1283 C1297 0.931 . S
H1284 C1299 0.930 . S
C1285 H1273 0.930 . S
C1285 C1286 1.399 . S
C1285 C1290 1.399 . S
C1286 C1285 1.399 . S
C1286 C1287 1.376 . S
C1287 H1274 0.930 . S
C1287 C1286 1.376 . S
C1287 C1288 1.388 . S
C1288 H1275 0.930 . S
C1288 C1287 1.388 . S
C1288 C1289 1.390 . S
C1289 C1288 1.390 . S
C1289 C1290 1.394 . S
C1289 C1295 1.465 . S
C1290 C1285 1.399 . S
C1290 C1289 1.394 . S
C1290 C1291 1.516 . S
C1291 C1290 1.516 . S
C1291 C1292 1.502 . S
C1291 C1293 1.561 . S
C1291 C1294 1.526 . S
C1292 H1276 0.959 . S
C1292 H1277 0.959 . S
C1292 H1278 0.961 . S
C1292 C1291 1.502 . S
C1293 H1279 0.960 . S
C1293 H1280 0.961 . S
C1293 H1281 0.959 . S
C1293 C1291 1.561 . S
C1294 C1291 1.526 . S
C1294 C1295 1.396 . S
C1294 C1299 1.390 . S
C1295 C1289 1.465 . S
C1295 C1294 1.396 . S
C1295 C1296 1.399 . S
C1296 H1282 0.929 . S
C1296 C1295 1.399 . S
C1296 C1297 1.385 . S
C1297 H1283 0.931 . S
C1297 C1296 1.385 . S
C1297 C1298 1.389 . S
C1298 C1297 1.389 . S
C1298 C1299 1.387 . S
C1299 H1284 0.930 . S
C1299 C1294 1.390 . S
C1299 C1298 1.387 . S
H1300 C1312 0.930 . S
H1301 C1314 0.924 . S
H1302 C1315 0.930 . S
H1303 C1319 0.959 . S
H1304 C1319 0.959 1_565 S
H1305 C1319 0.961 1_565 S
H1306 C1320 0.960 . S
H1307 C1320 0.961 1_565 S
H1308 C1320 0.959 . S
H1309 C1323 0.929 . S
H1310 C1324 0.931 . S
H1311 C1326 0.930 . S
C1312 H1300 0.930 . S
C1312 C1313 1.399 . S
C1312 C1317 1.399 . S
C1313 C1312 1.399 . S
C1313 C1314 1.376 . S
C1314 H1301 0.924 . S
C1314 C1313 1.376 . S
C1314 C1315 1.388 1_655 S
C1315 H1302 0.930 . S
C1315 C1314 1.388 1_455 S
C1315 C1316 1.390 . S
C1316 C1315 1.390 . S
C1316 C1317 1.394 1_455 S
C1316 C1322 1.465 . S
C1317 C1312 1.399 . S
C1317 C1316 1.394 1_655 S
C1317 C1318 1.503 1_655 S
C1318 C1317 1.503 1_455 S
C1318 C1319 1.471 1_455 S
C1318 C1320 1.593 . S
C1318 C1321 1.544 . S
C1319 H1303 0.959 . S
C1319 H1304 0.959 1_545 S
C1319 H1305 0.961 1_545 S
C1319 C1318 1.471 1_655 S
C1320 H1306 0.960 . S
C1320 H1307 0.961 1_545 S
C1320 H1308 0.959 . S
C1320 C1318 1.593 . S
C1321 C1318 1.544 . S
C1321 C1322 1.396 . S
C1321 C1326 1.390 . S
C1322 C1316 1.465 . S
C1322 C1321 1.396 . S
C1322 C1323 1.399 . S
C1323 H1309 0.929 . S
C1323 C1322 1.399 . S
C1323 C1324 1.385 . S
C1324 H1310 0.931 . S
C1324 C1323 1.385 . S
C1324 C1325 1.389 . S
C1325 C1324 1.389 . S
C1325 C1326 1.387 . S
C1326 H1311 0.930 . S
C1326 C1321 1.390 . S
C1326 C1325 1.387 . S
H1327 C1339 0.930 . S
H1328 C1341 0.930 . S
H1329 C1342 0.930 . S
H1330 C1346 0.959 . S
H1331 C1346 0.959 . S
H1332 C1346 0.961 . S
H1333 C1347 0.960 . S
H1334 C1347 0.961 . S
H1335 C1347 0.959 . S
H1336 C1350 0.929 . S
H1337 C1351 0.931 . S
H1338 C1353 0.930 . S
C1339 H1327 0.930 . S
C1339 C1340 1.399 . S
C1339 C1344 1.399 . S
C1340 C1339 1.399 . S
C1340 C1341 1.376 . S
C1341 H1328 0.930 . S
C1341 C1340 1.376 . S
C1341 C1342 1.388 . S
C1342 H1329 0.930 . S
C1342 C1341 1.388 . S
C1342 C1343 1.390 . S
C1343 C1342 1.390 . S
C1343 C1344 1.394 . S
C1343 C1349 1.465 . S
C1344 C1339 1.399 . S
C1344 C1343 1.394 . S
C1344 C1345 1.516 . S
C1345 C1344 1.516 . S
C1345 C1346 1.502 . S
C1345 C1347 1.561 . S
C1345 C1348 1.526 . S
C1346 H1330 0.959 . S
C1346 H1331 0.959 . S
C1346 H1332 0.961 . S
C1346 C1345 1.502 . S
C1347 H1333 0.960 . S
C1347 H1334 0.961 . S
C1347 H1335 0.959 . S
C1347 C1345 1.561 . S
C1348 C1345 1.526 . S
C1348 C1349 1.396 . S
C1348 C1353 1.390 . S
C1349 C1343 1.465 . S
C1349 C1348 1.396 . S
C1349 C1350 1.399 . S
C1350 H1336 0.929 . S
C1350 C1349 1.399 . S
C1350 C1351 1.385 . S
C1351 H1337 0.931 . S
C1351 C1350 1.385 . S
C1351 C1352 1.389 . S
C1352 C1351 1.389 . S
C1352 C1353 1.387 . S
C1353 H1338 0.930 . S
C1353 C1348 1.390 . S
C1353 C1352 1.387 . S
H1354 C1366 0.930 . S
H1355 C1368 0.930 . S
H1356 C1369 0.930 . S
H1357 C1373 0.959 . S
H1358 C1373 0.959 . S
H1359 C1373 0.961 . S
H1360 C1374 0.960 . S
H1361 C1374 0.961 . S
H1362 C1374 0.959 . S
H1363 C1377 0.929 . S
H1364 C1378 0.931 . S
H1365 C1380 0.930 . S
C1366 H1354 0.930 . S
C1366 C1367 1.399 . S
C1366 C1371 1.399 . S
C1367 C1366 1.399 . S
C1367 C1368 1.376 . S
C1368 H1355 0.930 . S
C1368 C1367 1.376 . S
C1368 C1369 1.388 . S
C1369 H1356 0.930 . S
C1369 C1368 1.388 . S
C1369 C1370 1.390 . S
C1370 C1369 1.390 . S
C1370 C1371 1.394 . S
C1370 C1376 1.465 . S
C1371 C1366 1.399 . S
C1371 C1370 1.394 . S
C1371 C1372 1.516 . S
C1372 C1371 1.516 . S
C1372 C1373 1.502 . S
C1372 C1374 1.561 . S
C1372 C1375 1.526 . S
C1373 H1357 0.959 . S
C1373 H1358 0.959 . S
C1373 H1359 0.961 . S
C1373 C1372 1.502 . S
C1374 H1360 0.960 . S
C1374 H1361 0.961 . S
C1374 H1362 0.959 . S
C1374 C1372 1.561 . S
C1375 C1372 1.526 . S
C1375 C1376 1.396 . S
C1375 C1380 1.390 . S
C1376 C1370 1.465 . S
C1376 C1375 1.396 . S
C1376 C1377 1.399 . S
C1377 H1363 0.929 . S
C1377 C1376 1.399 . S
C1377 C1378 1.385 . S
C1378 H1364 0.931 . S
C1378 C1377 1.385 . S
C1378 C1379 1.389 . S
C1379 C1378 1.389 . S
C1379 C1380 1.387 . S
C1380 H1365 0.930 . S
C1380 C1375 1.390 . S
C1380 C1379 1.387 . S
H1381 C1393 0.930 . S
H1382 C1395 0.930 . S
H1383 C1396 0.930 . S
H1384 C1400 0.959 . S
H1385 C1400 0.959 . S
H1386 C1400 0.961 . S
H1387 C1401 0.960 . S
H1388 C1401 0.961 . S
H1389 C1401 0.959 . S
H1390 C1404 0.929 . S
H1391 C1405 0.931 . S
H1392 C1407 0.930 . S
C1393 H1381 0.930 . S
C1393 C1394 1.399 . S
C1393 C1398 1.399 . S
C1394 C1393 1.399 . S
C1394 C1395 1.376 . S
C1395 H1382 0.930 . S
C1395 C1394 1.376 . S
C1395 C1396 1.388 . S
C1396 H1383 0.930 . S
C1396 C1395 1.388 . S
C1396 C1397 1.390 . S
C1397 C1396 1.390 . S
C1397 C1398 1.394 . S
C1397 C1403 1.465 . S
C1398 C1393 1.399 . S
C1398 C1397 1.394 . S
C1398 C1399 1.516 . S
C1399 C1398 1.516 . S
C1399 C1400 1.502 . S
C1399 C1401 1.561 . S
C1399 C1402 1.526 . S
C1400 H1384 0.959 . S
C1400 H1385 0.959 . S
C1400 H1386 0.961 . S
C1400 C1399 1.502 . S
C1401 H1387 0.960 . S
C1401 H1388 0.961 . S
C1401 H1389 0.959 . S
C1401 C1399 1.561 . S
C1402 C1399 1.526 . S
C1402 C1403 1.396 . S
C1402 C1407 1.390 . S
C1403 C1397 1.465 . S
C1403 C1402 1.396 . S
C1403 C1404 1.399 . S
C1404 H1390 0.929 . S
C1404 C1403 1.399 . S
C1404 C1405 1.385 . S
C1405 H1391 0.931 . S
C1405 C1404 1.385 . S
C1405 C1406 1.389 . S
C1406 C1405 1.389 . S
C1406 C1407 1.387 . S
C1407 H1392 0.930 . S
C1407 C1402 1.390 . S
C1407 C1406 1.387 . S
H1408 C1420 0.930 . S
H1409 C1422 0.930 1_556 S
H1410 C1423 0.930 1_545 S
H1411 C1427 0.959 . S
H1412 C1427 0.959 . S
H1413 C1427 0.961 . S
H1414 C1428 0.960 . S
H1415 C1428 0.961 . S
H1416 C1428 0.959 . S
H1417 C1431 0.929 . S
H1418 C1432 0.931 . S
H1419 C1434 0.930 . S
C1420 H1408 0.930 . S
C1420 C1421 1.399 . S
C1420 C1425 1.399 . S
C1421 C1420 1.399 . S
C1421 C1422 1.376 . S
C1422 H1409 0.930 1_554 S
C1422 C1421 1.376 . S
C1422 C1423 1.388 . S
C1423 H1410 0.930 1_565 S
C1423 C1422 1.388 . S
C1423 C1424 1.390 . S
C1424 C1423 1.390 . S
C1424 C1425 1.394 . S
C1424 C1430 1.465 . S
C1425 C1420 1.399 . S
C1425 C1424 1.394 . S
C1425 C1426 1.516 . S
C1426 C1425 1.516 . S
C1426 C1427 1.502 . S
C1426 C1428 1.561 . S
C1426 C1429 1.526 . S
C1427 H1411 0.959 . S
C1427 H1412 0.959 . S
C1427 H1413 0.961 . S
C1427 C1426 1.502 . S
C1428 H1414 0.960 . S
C1428 H1415 0.961 . S
C1428 H1416 0.959 . S
C1428 C1426 1.561 . S
C1429 C1426 1.526 . S
C1429 C1430 1.396 . S
C1429 C1434 1.390 . S
C1430 C1424 1.465 . S
C1430 C1429 1.396 . S
C1430 C1431 1.399 1_565 S
C1431 H1417 0.929 . S
C1431 C1430 1.399 1_545 S
C1431 C1432 1.385 . S
C1432 H1418 0.931 . S
C1432 C1431 1.385 . S
C1432 C1433 1.389 . S
C1433 C1432 1.389 . S
C1433 C1434 1.387 1_545 S
C1434 H1419 0.930 . S
C1434 C1429 1.390 . S
C1434 C1433 1.387 1_565 S
H1435 C1447 0.930 . S
H1436 C1449 0.933 . S
H1437 C1450 0.930 . S
H1438 C1454 0.959 . S
H1439 C1454 0.959 . S
H1440 C1454 0.961 . S
H1441 C1455 0.960 . S
H1442 C1455 0.961 . S
H1443 C1455 0.959 1_556 S
H1444 C1458 0.953 . S
H1445 C1459 0.931 1_556 S
H1446 C1461 0.930 . S
C1447 H1435 0.930 . S
C1447 C1448 1.399 . S
C1447 C1452 1.399 . S
C1448 C1447 1.399 . S
C1448 C1449 1.375 1_554 S
C1449 H1436 0.933 . S
C1449 C1448 1.375 1_556 S
C1449 C1450 1.388 . S
C1450 H1437 0.930 . S
C1450 C1449 1.388 . S
C1450 C1451 1.390 1_556 S
C1451 C1450 1.390 1_554 S
C1451 C1452 1.394 . S
C1451 C1457 1.465 . S
C1452 C1447 1.399 . S
C1452 C1451 1.394 . S
C1452 C1453 1.516 . S
C1453 C1452 1.516 . S
C1453 C1454 1.502 . S
C1453 C1455 1.561 . S
C1453 C1456 1.526 . S
C1454 H1438 0.959 . S
C1454 H1439 0.959 . S
C1454 H1440 0.961 . S
C1454 C1453 1.502 . S
C1455 H1441 0.960 . S
C1455 H1442 0.961 . S
C1455 H1443 0.959 1_554 S
C1455 C1453 1.561 . S
C1456 C1453 1.526 . S
C1456 C1457 1.396 . S
C1456 C1461 1.390 . S
C1457 C1451 1.465 . S
C1457 C1456 1.396 . S
C1457 C1458 1.395 1_554 S
C1458 H1444 0.953 . S
C1458 C1457 1.395 1_556 S
C1458 C1459 1.367 1_556 S
C1459 H1445 0.931 1_554 S
C1459 C1458 1.367 1_554 S
C1459 C1460 1.389 . S
C1460 C1459 1.389 . S
C1460 C1461 1.387 . S
C1461 H1446 0.930 . S
C1461 C1456 1.390 . S
C1461 C1460 1.387 . S
H1462 C1474 0.930 . S
H1463 C1476 0.930 . S
H1464 C1477 0.930 . S
H1465 C1481 0.959 . S
H1466 C1481 0.959 . S
H1467 C1481 0.961 . S
H1468 C1482 0.960 . S
H1469 C1482 0.961 . S
H1470 C1482 0.959 . S
H1471 C1485 0.929 . S
H1472 C1486 0.931 . S
H1473 C1488 0.930 . S
C1474 H1462 0.930 . S
C1474 C1475 1.399 . S
C1474 C1479 1.399 . S
C1475 C1474 1.399 . S
C1475 C1476 1.376 . S
C1476 H1463 0.930 . S
C1476 C1475 1.376 . S
C1476 C1477 1.388 . S
C1477 H1464 0.930 . S
C1477 C1476 1.388 . S
C1477 C1478 1.390 . S
C1478 C1477 1.390 . S
C1478 C1479 1.394 . S
C1478 C1484 1.465 . S
C1479 C1474 1.399 . S
C1479 C1478 1.394 . S
C1479 C1480 1.516 . S
C1480 C1479 1.516 . S
C1480 C1481 1.502 . S
C1480 C1482 1.561 . S
C1480 C1483 1.526 . S
C1481 H1465 0.959 . S
C1481 H1466 0.959 . S
C1481 H1467 0.961 . S
C1481 C1480 1.502 . S
C1482 H1468 0.960 . S
C1482 H1469 0.961 . S
C1482 H1470 0.959 . S
C1482 C1480 1.561 . S
C1483 C1480 1.526 . S
C1483 C1484 1.396 . S
C1483 C1488 1.390 . S
C1484 C1478 1.465 . S
C1484 C1483 1.396 . S
C1484 C1485 1.399 . S
C1485 H1471 0.929 . S
C1485 C1484 1.399 . S
C1485 C1486 1.385 . S
C1486 H1472 0.931 . S
C1486 C1485 1.385 . S
C1486 C1487 1.389 . S
C1487 C1486 1.389 . S
C1487 C1488 1.387 . S
C1488 H1473 0.930 . S
C1488 C1483 1.390 . S
C1488 C1487 1.387 . S
H1489 C1501 0.930 . S
H1490 C1503 0.930 . S
H1491 C1504 0.930 . S
H1492 C1508 0.959 . S
H1493 C1508 0.959 . S
H1494 C1508 0.961 . S
H1495 C1509 0.960 . S
H1496 C1509 0.961 . S
H1497 C1509 0.959 . S
H1498 C1512 0.929 . S
H1499 C1513 0.931 . S
H1500 C1515 0.930 . S
C1501 H1489 0.930 . S
C1501 C1502 1.399 . S
C1501 C1506 1.399 . S
C1502 C1501 1.399 . S
C1502 C1503 1.376 . S
C1503 H1490 0.930 . S
C1503 C1502 1.376 . S
C1503 C1504 1.388 . S
C1504 H1491 0.930 . S
C1504 C1503 1.388 . S
C1504 C1505 1.390 . S
C1505 C1504 1.390 . S
C1505 C1506 1.394 . S
C1505 C1511 1.465 . S
C1506 C1501 1.399 . S
C1506 C1505 1.394 . S
C1506 C1507 1.516 . S
C1507 C1506 1.516 . S
C1507 C1508 1.502 . S
C1507 C1509 1.561 . S
C1507 C1510 1.526 . S
C1508 H1492 0.959 . S
C1508 H1493 0.959 . S
C1508 H1494 0.961 . S
C1508 C1507 1.502 . S
C1509 H1495 0.960 . S
C1509 H1496 0.961 . S
C1509 H1497 0.959 . S
C1509 C1507 1.561 . S
C1510 C1507 1.526 . S
C1510 C1511 1.396 . S
C1510 C1515 1.390 . S
C1511 C1505 1.465 . S
C1511 C1510 1.396 . S
C1511 C1512 1.399 . S
C1512 H1498 0.929 . S
C1512 C1511 1.399 . S
C1512 C1513 1.385 . S
C1513 H1499 0.931 . S
C1513 C1512 1.385 . S
C1513 C1514 1.389 . S
C1514 C1513 1.389 . S
C1514 C1515 1.387 . S
C1515 H1500 0.930 . S
C1515 C1510 1.390 . S
C1515 C1514 1.387 . S
H1516 C1528 0.930 . S
H1517 C1530 0.930 . S
H1518 C1531 0.930 . S
H1519 C1535 0.959 . S
H1520 C1535 0.959 . S
H1521 C1535 0.961 . S
H1522 C1536 0.960 . S
H1523 C1536 0.961 . S
H1524 C1536 0.959 . S
H1525 C1539 0.929 . S
H1526 C1540 0.931 . S
H1527 C1542 0.930 . S
C1528 H1516 0.930 . S
C1528 C1529 1.399 . S
C1528 C1533 1.399 . S
C1529 C1528 1.399 . S
C1529 C1530 1.376 . S
C1530 H1517 0.930 . S
C1530 C1529 1.376 . S
C1530 C1531 1.388 . S
C1531 H1518 0.930 . S
C1531 C1530 1.388 . S
C1531 C1532 1.390 . S
C1532 C1531 1.390 . S
C1532 C1533 1.394 . S
C1532 C1538 1.465 . S
C1533 C1528 1.399 . S
C1533 C1532 1.394 . S
C1533 C1534 1.516 . S
C1534 C1533 1.516 . S
C1534 C1535 1.502 . S
C1534 C1536 1.561 . S
C1534 C1537 1.526 . S
C1535 H1519 0.959 . S
C1535 H1520 0.959 . S
C1535 H1521 0.961 . S
C1535 C1534 1.502 . S
C1536 H1522 0.960 . S
C1536 H1523 0.961 . S
C1536 H1524 0.959 . S
C1536 C1534 1.561 . S
C1537 C1534 1.526 . S
C1537 C1538 1.396 . S
C1537 C1542 1.390 . S
C1538 C1532 1.465 . S
C1538 C1537 1.396 . S
C1538 C1539 1.399 . S
C1539 H1525 0.929 . S
C1539 C1538 1.399 . S
C1539 C1540 1.385 . S
C1540 H1526 0.931 . S
C1540 C1539 1.385 . S
C1540 C1541 1.389 . S
C1541 C1540 1.389 . S
C1541 C1542 1.387 . S
C1542 H1527 0.930 . S
C1542 C1537 1.390 . S
C1542 C1541 1.387 . S
H1543 C1555 0.930 . S
H1544 C1557 0.930 . S
H1545 C1558 0.930 . S
H1546 C1562 0.959 . S
H1547 C1562 0.959 . S
H1548 C1562 0.961 . S
H1549 C1563 0.960 . S
H1550 C1563 0.961 . S
H1551 C1563 0.959 . S
H1552 C1566 0.929 . S
H1553 C1567 0.931 . S
H1554 C1569 0.930 . S
C1555 H1543 0.930 . S
C1555 C1556 1.399 . S
C1555 C1560 1.399 . S
C1556 C1555 1.399 . S
C1556 C1557 1.376 . S
C1557 H1544 0.930 . S
C1557 C1556 1.376 . S
C1557 C1558 1.388 . S
C1558 H1545 0.930 . S
C1558 C1557 1.388 . S
C1558 C1559 1.390 . S
C1559 C1558 1.390 . S
C1559 C1560 1.394 . S
C1559 C1565 1.465 . S
C1560 C1555 1.399 . S
C1560 C1559 1.394 . S
C1560 C1561 1.516 . S
C1561 C1560 1.516 . S
C1561 C1562 1.502 . S
C1561 C1563 1.561 . S
C1561 C1564 1.526 . S
C1562 H1546 0.959 . S
C1562 H1547 0.959 . S
C1562 H1548 0.961 . S
C1562 C1561 1.502 . S
C1563 H1549 0.960 . S
C1563 H1550 0.961 . S
C1563 H1551 0.959 . S
C1563 C1561 1.561 . S
C1564 C1561 1.526 . S
C1564 C1565 1.396 . S
C1564 C1569 1.390 . S
C1565 C1559 1.465 . S
C1565 C1564 1.396 . S
C1565 C1566 1.399 . S
C1566 H1552 0.929 . S
C1566 C1565 1.399 . S
C1566 C1567 1.385 . S
C1567 H1553 0.931 . S
C1567 C1566 1.385 . S
C1567 C1568 1.389 . S
C1568 C1567 1.389 . S
C1568 C1569 1.387 . S
C1569 H1554 0.930 . S
C1569 C1564 1.390 . S
C1569 C1568 1.387 . S
H1570 C1582 0.930 . S
H1571 C1584 0.930 . S
H1572 C1585 0.930 . S
H1573 C1589 0.959 . S
H1574 C1589 0.959 . S
H1575 C1589 0.961 . S
H1576 C1590 0.960 . S
H1577 C1590 0.961 . S
H1578 C1590 0.959 . S
H1579 C1593 0.929 . S
H1580 C1594 0.931 . S
H1581 C1596 0.930 . S
C1582 H1570 0.930 . S
C1582 C1583 1.399 . S
C1582 C1587 1.399 . S
C1583 C1582 1.399 . S
C1583 C1584 1.376 . S
C1584 H1571 0.930 . S
C1584 C1583 1.376 . S
C1584 C1585 1.388 . S
C1585 H1572 0.930 . S
C1585 C1584 1.388 . S
C1585 C1586 1.390 . S
C1586 C1585 1.390 . S
C1586 C1587 1.394 . S
C1586 C1592 1.465 . S
C1587 C1582 1.399 . S
C1587 C1586 1.394 . S
C1587 C1588 1.516 . S
C1588 C1587 1.516 . S
C1588 C1589 1.502 . S
C1588 C1590 1.561 . S
C1588 C1591 1.526 . S
C1589 H1573 0.959 . S
C1589 H1574 0.959 . S
C1589 H1575 0.961 . S
C1589 C1588 1.502 . S
C1590 H1576 0.960 . S
C1590 H1577 0.961 . S
C1590 H1578 0.959 . S
C1590 C1588 1.561 . S
C1591 C1588 1.526 . S
C1591 C1592 1.396 . S
C1591 C1596 1.390 . S
C1592 C1586 1.465 . S
C1592 C1591 1.396 . S
C1592 C1593 1.399 . S
C1593 H1579 0.929 . S
C1593 C1592 1.399 . S
C1593 C1594 1.385 . S
C1594 H1580 0.931 . S
C1594 C1593 1.385 . S
C1594 C1595 1.389 . S
C1595 C1594 1.389 . S
C1595 C1596 1.387 . S
C1596 H1581 0.930 . S
C1596 C1591 1.390 . S
C1596 C1595 1.387 . S
H1597 C1609 0.930 . S
H1598 C1611 0.930 . S
H1599 C1612 0.930 . S
H1600 C1616 0.959 . S
H1601 C1616 0.959 . S
H1602 C1616 0.961 . S
H1603 C1617 0.960 . S
H1604 C1617 0.961 . S
H1605 C1617 0.959 . S
H1606 C1620 0.929 . S
H1607 C1621 0.931 . S
H1608 C1623 0.930 . S
C1609 H1597 0.930 . S
C1609 C1610 1.399 . S
C1609 C1614 1.399 . S
C1610 C1609 1.399 . S
C1610 C1611 1.376 . S
C1611 H1598 0.930 . S
C1611 C1610 1.376 . S
C1611 C1612 1.388 . S
C1612 H1599 0.930 . S
C1612 C1611 1.388 . S
C1612 C1613 1.390 . S
C1613 C1612 1.390 . S
C1613 C1614 1.394 . S
C1613 C1619 1.465 . S
C1614 C1609 1.399 . S
C1614 C1613 1.394 . S
C1614 C1615 1.516 . S
C1615 C1614 1.516 . S
C1615 C1616 1.502 . S
C1615 C1617 1.561 . S
C1615 C1618 1.526 . S
C1616 H1600 0.959 . S
C1616 H1601 0.959 . S
C1616 H1602 0.961 . S
C1616 C1615 1.502 . S
C1617 H1603 0.960 . S
C1617 H1604 0.961 . S
C1617 H1605 0.959 . S
C1617 C1615 1.561 . S
C1618 C1615 1.526 . S
C1618 C1619 1.396 . S
C1618 C1623 1.390 . S
C1619 C1613 1.465 . S
C1619 C1618 1.396 . S
C1619 C1620 1.399 . S
C1620 H1606 0.929 . S
C1620 C1619 1.399 . S
C1620 C1621 1.385 . S
C1621 H1607 0.931 . S
C1621 C1620 1.385 . S
C1621 C1622 1.389 . S
C1622 C1621 1.389 . S
C1622 C1623 1.387 . S
C1623 H1608 0.930 . S
C1623 C1618 1.390 . S
C1623 C1622 1.387 . S
H1624 C1636 0.930 . S
H1625 C1638 0.930 . S
H1626 C1639 0.930 . S
H1627 C1643 0.959 . S
H1628 C1643 0.959 . S
H1629 C1643 0.961 . S
H1630 C1644 0.960 . S
H1631 C1644 0.961 1_556 S
H1632 C1644 0.959 . S
H1633 C1647 0.929 . S
H1634 C1648 0.931 . S
H1635 C1650 0.930 . S
C1636 H1624 0.930 . S
C1636 C1637 1.399 . S
C1636 C1641 1.399 . S
C1637 C1636 1.399 . S
C1637 C1638 1.376 . S
C1638 H1625 0.930 . S
C1638 C1637 1.376 . S
C1638 C1639 1.388 . S
C1639 H1626 0.930 . S
C1639 C1638 1.388 . S
C1639 C1640 1.390 . S
C1640 C1639 1.390 . S
C1640 C1641 1.394 . S
C1640 C1646 1.465 . S
C1641 C1636 1.399 . S
C1641 C1640 1.394 . S
C1641 C1642 1.516 . S
C1642 C1641 1.516 . S
C1642 C1643 1.502 . S
C1642 C1644 1.561 . S
C1642 C1645 1.526 . S
C1643 H1627 0.959 . S
C1643 H1628 0.959 . S
C1643 H1629 0.961 . S
C1643 C1642 1.502 . S
C1644 H1630 0.960 . S
C1644 H1631 0.961 1_554 S
C1644 H1632 0.959 . S
C1644 C1642 1.561 . S
C1645 C1642 1.526 . S
C1645 C1646 1.396 . S
C1645 C1650 1.390 . S
C1646 C1640 1.465 . S
C1646 C1645 1.396 . S
C1646 C1647 1.399 . S
C1647 H1633 0.929 . S
C1647 C1646 1.399 . S
C1647 C1648 1.385 . S
C1648 H1634 0.931 . S
C1648 C1647 1.385 . S
C1648 C1649 1.389 . S
C1649 C1648 1.389 . S
C1649 C1650 1.387 . S
C1650 H1635 0.930 . S
C1650 C1645 1.390 . S
C1650 C1649 1.387 . S
H1651 C1663 0.930 . S
H1652 C1665 0.930 . S
H1653 C1666 0.930 . S
H1654 C1670 0.959 . S
H1655 C1670 0.959 . S
H1656 C1670 0.961 . S
H1657 C1671 0.960 . S
H1658 C1671 0.961 . S
H1659 C1671 0.959 . S
H1660 C1674 0.929 . S
H1661 C1675 0.931 . S
H1662 C1677 0.930 . S
C1663 H1651 0.930 . S
C1663 C1664 1.399 . S
C1663 C1668 1.399 . S
C1664 C1663 1.399 . S
C1664 C1665 1.376 . S
C1665 H1652 0.930 . S
C1665 C1664 1.376 . S
C1665 C1666 1.388 . S
C1666 H1653 0.930 . S
C1666 C1665 1.388 . S
C1666 C1667 1.390 . S
C1667 C1666 1.390 . S
C1667 C1668 1.394 . S
C1667 C1673 1.465 . S
C1668 C1663 1.399 . S
C1668 C1667 1.394 . S
C1668 C1669 1.516 . S
C1669 C1668 1.516 . S
C1669 C1670 1.502 . S
C1669 C1671 1.561 . S
C1669 C1672 1.526 . S
C1670 H1654 0.959 . S
C1670 H1655 0.959 . S
C1670 H1656 0.961 . S
C1670 C1669 1.502 . S
C1671 H1657 0.960 . S
C1671 H1658 0.961 . S
C1671 H1659 0.959 . S
C1671 C1669 1.561 . S
C1672 C1669 1.526 . S
C1672 C1673 1.396 . S
C1672 C1677 1.390 . S
C1673 C1667 1.465 . S
C1673 C1672 1.396 . S
C1673 C1674 1.399 . S
C1674 H1660 0.929 . S
C1674 C1673 1.399 . S
C1674 C1675 1.385 . S
C1675 H1661 0.931 . S
C1675 C1674 1.385 . S
C1675 C1676 1.389 . S
C1676 C1675 1.389 . S
C1676 C1677 1.387 . S
C1677 H1662 0.930 . S
C1677 C1672 1.390 . S
C1677 C1676 1.387 . S
H1678 C1690 0.930 . S
H1679 C1692 0.930 . S
H1680 C1693 0.930 . S
H1681 C1697 0.959 . S
H1682 C1697 0.959 . S
H1683 C1697 0.961 . S
H1684 C1698 0.960 . S
H1685 C1698 0.961 . S
H1686 C1698 0.959 . S
H1687 C1701 0.929 . S
H1688 C1702 0.931 . S
H1689 C1704 0.930 . S
C1690 H1678 0.930 . S
C1690 C1691 1.399 . S
C1690 C1695 1.399 . S
C1691 C1690 1.399 . S
C1691 C1692 1.376 . S
C1692 H1679 0.930 . S
C1692 C1691 1.376 . S
C1692 C1693 1.388 . S
C1693 H1680 0.930 . S
C1693 C1692 1.388 . S
C1693 C1694 1.390 . S
C1694 C1693 1.390 . S
C1694 C1695 1.394 . S
C1694 C1700 1.465 . S
C1695 C1690 1.399 . S
C1695 C1694 1.394 . S
C1695 C1696 1.516 . S
C1696 C1695 1.516 . S
C1696 C1697 1.502 . S
C1696 C1698 1.561 . S
C1696 C1699 1.526 . S
C1697 H1681 0.959 . S
C1697 H1682 0.959 . S
C1697 H1683 0.961 . S
C1697 C1696 1.502 . S
C1698 H1684 0.960 . S
C1698 H1685 0.961 . S
C1698 H1686 0.959 . S
C1698 C1696 1.561 . S
C1699 C1696 1.526 . S
C1699 C1700 1.396 . S
C1699 C1704 1.390 . S
C1700 C1694 1.465 . S
C1700 C1699 1.396 . S
C1700 C1701 1.399 . S
C1701 H1687 0.929 . S
C1701 C1700 1.399 . S
C1701 C1702 1.385 . S
C1702 H1688 0.931 . S
C1702 C1701 1.385 . S
C1702 C1703 1.389 . S
C1703 C1702 1.389 . S
C1703 C1704 1.387 . S
C1704 H1689 0.930 . S
C1704 C1699 1.390 . S
C1704 C1703 1.387 . S
H1705 C1717 0.930 . S
H1706 C1719 0.930 . S
H1707 C1720 0.930 . S
H1708 C1724 0.959 . S
H1709 C1724 0.959 . S
H1710 C1724 0.961 . S
H1711 C1725 0.960 . S
H1712 C1725 0.961 . S
H1713 C1725 0.959 . S
H1714 C1728 0.929 . S
H1715 C1729 0.931 . S
H1716 C1731 0.930 . S
C1717 H1705 0.930 . S
C1717 C1718 1.399 . S
C1717 C1722 1.399 . S
C1718 C1717 1.399 . S
C1718 C1719 1.376 . S
C1719 H1706 0.930 . S
C1719 C1718 1.376 . S
C1719 C1720 1.388 . S
C1720 H1707 0.930 . S
C1720 C1719 1.388 . S
C1720 C1721 1.390 . S
C1721 C1720 1.390 . S
C1721 C1722 1.394 . S
C1721 C1727 1.465 . S
C1722 C1717 1.399 . S
C1722 C1721 1.394 . S
C1722 C1723 1.516 . S
C1723 C1722 1.516 . S
C1723 C1724 1.502 . S
C1723 C1725 1.561 . S
C1723 C1726 1.526 . S
C1724 H1708 0.959 . S
C1724 H1709 0.959 . S
C1724 H1710 0.961 . S
C1724 C1723 1.502 . S
C1725 H1711 0.960 . S
C1725 H1712 0.961 . S
C1725 H1713 0.959 . S
C1725 C1723 1.561 . S
C1726 C1723 1.526 . S
C1726 C1727 1.396 . S
C1726 C1731 1.390 . S
C1727 C1721 1.465 . S
C1727 C1726 1.396 . S
C1727 C1728 1.399 . S
C1728 H1714 0.929 . S
C1728 C1727 1.399 . S
C1728 C1729 1.385 . S
C1729 H1715 0.931 . S
C1729 C1728 1.385 . S
C1729 C1730 1.389 . S
C1730 C1729 1.389 . S
C1730 C1731 1.387 . S
C1731 H1716 0.930 . S
C1731 C1726 1.390 . S
C1731 C1730 1.387 . S
H1732 C1744 0.930 . S
H1733 C1746 0.930 . S
H1734 C1747 0.930 . S
H1735 C1751 0.959 . S
H1736 C1751 0.959 . S
H1737 C1751 0.961 . S
H1738 C1752 0.960 . S
H1739 C1752 0.961 . S
H1740 C1752 0.959 . S
H1741 C1755 0.929 . S
H1742 C1756 0.931 . S
H1743 C1758 0.930 . S
C1744 H1732 0.930 . S
C1744 C1745 1.399 . S
C1744 C1749 1.399 . S
C1745 C1744 1.399 . S
C1745 C1746 1.376 . S
C1746 H1733 0.930 . S
C1746 C1745 1.376 . S
C1746 C1747 1.388 . S
C1747 H1734 0.930 . S
C1747 C1746 1.388 . S
C1747 C1748 1.390 . S
C1748 C1747 1.390 . S
C1748 C1749 1.394 . S
C1748 C1754 1.465 . S
C1749 C1744 1.399 . S
C1749 C1748 1.394 . S
C1749 C1750 1.516 . S
C1750 C1749 1.516 . S
C1750 C1751 1.502 . S
C1750 C1752 1.561 . S
C1750 C1753 1.526 . S
C1751 H1735 0.959 . S
C1751 H1736 0.959 . S
C1751 H1737 0.961 . S
C1751 C1750 1.502 . S
C1752 H1738 0.960 . S
C1752 H1739 0.961 . S
C1752 H1740 0.959 . S
C1752 C1750 1.561 . S
C1753 C1750 1.526 . S
C1753 C1754 1.396 . S
C1753 C1758 1.390 . S
C1754 C1748 1.465 . S
C1754 C1753 1.396 . S
C1754 C1755 1.399 . S
C1755 H1741 0.929 . S
C1755 C1754 1.399 . S
C1755 C1756 1.385 . S
C1756 H1742 0.931 . S
C1756 C1755 1.385 . S
C1756 C1757 1.389 . S
C1757 C1756 1.389 . S
C1757 C1758 1.387 . S
C1758 H1743 0.930 . S
C1758 C1753 1.390 . S
C1758 C1757 1.387 . S
H1759 C1771 0.930 . S
H1760 C1773 0.930 . S
H1761 C1774 0.930 . S
H1762 C1778 0.959 . S
H1763 C1778 0.959 . S
H1764 C1778 0.961 . S
H1765 C1779 0.960 . S
H1766 C1779 0.961 . S
H1767 C1779 0.959 . S
H1768 C1782 0.929 . S
H1769 C1783 0.931 . S
H1770 C1785 0.930 . S
C1771 H1759 0.930 . S
C1771 C1772 1.399 . S
C1771 C1776 1.399 . S
C1772 C1771 1.399 . S
C1772 C1773 1.376 . S
C1773 H1760 0.930 . S
C1773 C1772 1.376 . S
C1773 C1774 1.388 . S
C1774 H1761 0.930 . S
C1774 C1773 1.388 . S
C1774 C1775 1.390 . S
C1775 C1774 1.390 . S
C1775 C1776 1.394 . S
C1775 C1781 1.465 . S
C1776 C1771 1.399 . S
C1776 C1775 1.394 . S
C1776 C1777 1.516 . S
C1777 C1776 1.516 . S
C1777 C1778 1.502 . S
C1777 C1779 1.561 . S
C1777 C1780 1.526 . S
C1778 H1762 0.959 . S
C1778 H1763 0.959 . S
C1778 H1764 0.961 . S
C1778 C1777 1.502 . S
C1779 H1765 0.960 . S
C1779 H1766 0.961 . S
C1779 H1767 0.959 . S
C1779 C1777 1.561 . S
C1780 C1777 1.526 . S
C1780 C1781 1.396 . S
C1780 C1785 1.390 . S
C1781 C1775 1.465 . S
C1781 C1780 1.396 . S
C1781 C1782 1.399 . S
C1782 H1768 0.929 . S
C1782 C1781 1.399 . S
C1782 C1783 1.385 . S
C1783 H1769 0.931 . S
C1783 C1782 1.385 . S
C1783 C1784 1.389 . S
C1784 C1783 1.389 . S
C1784 C1785 1.387 . S
C1785 H1770 0.930 . S
C1785 C1780 1.390 . S
C1785 C1784 1.387 . S
H1786 C1798 0.930 . S
H1787 C1800 0.930 . S
H1788 C1801 0.930 . S
H1789 C1805 0.959 . S
H1790 C1805 0.959 . S
H1791 C1805 0.961 . S
H1792 C1806 0.960 . S
H1793 C1806 0.961 . S
H1794 C1806 0.959 . S
H1795 C1809 0.929 1_554 S
H1796 C1810 0.931 . S
H1797 C1812 0.930 . S
C1798 H1786 0.930 . S
C1798 C1799 1.399 . S
C1798 C1803 1.399 . S
C1799 C1798 1.399 . S
C1799 C1800 1.376 . S
C1800 H1787 0.930 . S
C1800 C1799 1.376 . S
C1800 C1801 1.388 . S
C1801 H1788 0.930 . S
C1801 C1800 1.388 . S
C1801 C1802 1.390 . S
C1802 C1801 1.390 . S
C1802 C1803 1.394 . S
C1802 C1808 1.465 . S
C1803 C1798 1.399 . S
C1803 C1802 1.394 . S
C1803 C1804 1.516 . S
C1804 C1803 1.516 . S
C1804 C1805 1.502 . S
C1804 C1806 1.561 . S
C1804 C1807 1.526 . S
C1805 H1789 0.959 . S
C1805 H1790 0.959 . S
C1805 H1791 0.961 . S
C1805 C1804 1.502 . S
C1806 H1792 0.960 . S
C1806 H1793 0.961 . S
C1806 H1794 0.959 . S
C1806 C1804 1.561 . S
C1807 C1804 1.526 . S
C1807 C1808 1.396 . S
C1807 C1812 1.390 . S
C1808 C1802 1.465 . S
C1808 C1807 1.396 . S
C1808 C1809 1.399 . S
C1809 H1795 0.929 1_556 S
C1809 C1808 1.399 . S
C1809 C1810 1.385 1_556 S
C1810 H1796 0.931 . S
C1810 C1809 1.385 1_554 S
C1810 C1811 1.389 1_554 S
C1811 C1810 1.389 1_556 S
C1811 C1812 1.387 . S
C1812 H1797 0.930 . S
C1812 C1807 1.390 . S
C1812 C1811 1.387 . S
H1813 C1825 0.930 . S
H1814 C1827 0.930 . S
H1815 C1828 0.930 . S
H1816 C1832 0.959 . S
H1817 C1832 0.959 . S
H1818 C1832 0.961 . S
H1819 C1833 0.960 . S
H1820 C1833 0.961 . S
H1821 C1833 0.959 . S
H1822 C1836 0.929 . S
H1823 C1837 0.931 . S
H1824 C1839 0.930 . S
C1825 H1813 0.930 . S
C1825 C1826 1.399 . S
C1825 C1830 1.399 . S
C1826 C1825 1.399 . S
C1826 C1827 1.376 . S
C1827 H1814 0.930 . S
C1827 C1826 1.376 . S
C1827 C1828 1.388 . S
C1828 H1815 0.930 . S
C1828 C1827 1.388 . S
C1828 C1829 1.390 . S
C1829 C1828 1.390 . S
C1829 C1830 1.394 . S
C1829 C1835 1.465 . S
C1830 C1825 1.399 . S
C1830 C1829 1.394 . S
C1830 C1831 1.516 . S
C1831 C1830 1.516 . S
C1831 C1832 1.502 . S
C1831 C1833 1.561 . S
C1831 C1834 1.526 . S
C1832 H1816 0.959 . S
C1832 H1817 0.959 . S
C1832 H1818 0.961 . S
C1832 C1831 1.502 . S
C1833 H1819 0.960 . S
C1833 H1820 0.961 . S
C1833 H1821 0.959 . S
C1833 C1831 1.561 . S
C1834 C1831 1.526 . S
C1834 C1835 1.396 . S
C1834 C1839 1.390 . S
C1835 C1829 1.465 . S
C1835 C1834 1.396 . S
C1835 C1836 1.399 . S
C1836 H1822 0.929 . S
C1836 C1835 1.399 . S
C1836 C1837 1.385 . S
C1837 H1823 0.931 . S
C1837 C1836 1.385 . S
C1837 C1838 1.389 . S
C1838 C1837 1.389 . S
C1838 C1839 1.387 . S
C1839 H1824 0.930 . S
C1839 C1834 1.390 . S
C1839 C1838 1.387 . S
H1840 C1852 0.930 . S
H1841 C1854 0.930 . S
H1842 C1855 0.930 . S
H1843 C1859 0.959 . S
H1844 C1859 0.959 . S
H1845 C1859 0.961 . S
H1846 C1860 0.960 . S
H1847 C1860 0.961 . S
H1848 C1860 0.959 . S
H1849 C1863 0.929 . S
H1850 C1864 0.931 . S
H1851 C1866 0.930 1_565 S
C1852 H1840 0.930 . S
C1852 C1853 1.399 1_565 S
C1852 C1857 1.399 1_565 S
C1853 C1852 1.399 1_545 S
C1853 C1854 1.376 . S
C1854 H1841 0.930 . S
C1854 C1853 1.376 . S
C1854 C1855 1.388 . S
C1855 H1842 0.930 . S
C1855 C1854 1.388 . S
C1855 C1856 1.390 . S
C1856 C1855 1.390 . S
C1856 C1857 1.394 . S
C1856 C1862 1.465 . S
C1857 C1852 1.399 1_545 S
C1857 C1856 1.394 . S
C1857 C1858 1.516 1_545 S
C1858 C1857 1.516 1_565 S
C1858 C1859 1.502 . S
C1858 C1860 1.561 . S
C1858 C1861 1.526 1_565 S
C1859 H1843 0.959 . S
C1859 H1844 0.959 . S
C1859 H1845 0.961 . S
C1859 C1858 1.502 . S
C1860 H1846 0.960 . S
C1860 H1847 0.961 . S
C1860 H1848 0.959 . S
C1860 C1858 1.561 . S
C1861 C1858 1.526 1_545 S
C1861 C1862 1.396 . S
C1861 C1866 1.390 . S
C1862 C1856 1.465 . S
C1862 C1861 1.396 . S
C1862 C1863 1.399 . S
C1863 H1849 0.929 . S
C1863 C1862 1.399 . S
C1863 C1864 1.385 . S
C1864 H1850 0.931 . S
C1864 C1863 1.385 . S
C1864 C1865 1.389 . S
C1865 C1864 1.389 . S
C1865 C1866 1.387 . S
C1866 H1851 0.930 1_545 S
C1866 C1861 1.390 . S
C1866 C1865 1.387 . S
H1867 C1879 0.930 . S
H1868 C1881 0.930 . S
H1869 C1882 0.930 . S
H1870 C1886 0.959 . S
H1871 C1886 0.959 . S
H1872 C1886 0.961 . S
H1873 C1887 0.960 . S
H1874 C1887 0.961 . S
H1875 C1887 0.959 . S
H1876 C1890 0.929 . S
H1877 C1891 0.931 . S
H1878 C1893 0.930 . S
C1879 H1867 0.930 . S
C1879 C1880 1.399 . S
C1879 C1884 1.399 . S
C1880 C1879 1.399 . S
C1880 C1881 1.376 . S
C1881 H1868 0.930 . S
C1881 C1880 1.376 . S
C1881 C1882 1.388 . S
C1882 H1869 0.930 . S
C1882 C1881 1.388 . S
C1882 C1883 1.390 . S
C1883 C1882 1.390 . S
C1883 C1884 1.394 . S
C1883 C1889 1.465 . S
C1884 C1879 1.399 . S
C1884 C1883 1.394 . S
C1884 C1885 1.516 . S
C1885 C1884 1.516 . S
C1885 C1886 1.502 . S
C1885 C1887 1.561 . S
C1885 C1888 1.526 . S
C1886 H1870 0.959 . S
C1886 H1871 0.959 . S
C1886 H1872 0.961 . S
C1886 C1885 1.502 . S
C1887 H1873 0.960 . S
C1887 H1874 0.961 . S
C1887 H1875 0.959 . S
C1887 C1885 1.561 . S
C1888 C1885 1.526 . S
C1888 C1889 1.396 . S
C1888 C1893 1.390 . S
C1889 C1883 1.465 . S
C1889 C1888 1.396 . S
C1889 C1890 1.399 . S
C1890 H1876 0.929 . S
C1890 C1889 1.399 . S
C1890 C1891 1.385 . S
C1891 H1877 0.931 . S
C1891 C1890 1.385 . S
C1891 C1892 1.389 . S
C1892 C1891 1.389 . S
C1892 C1893 1.387 . S
C1893 H1878 0.930 . S
C1893 C1888 1.390 . S
C1893 C1892 1.387 . S
H1894 C1906 0.960 . S
H1895 C1908 0.930 . S
H1896 C1909 0.930 . S
H1897 C1913 0.959 . S
H1898 C1913 0.959 . S
H1899 C1913 0.961 . S
H1900 C1914 0.960 . S
H1901 C1914 0.961 . S
H1902 C1914 0.959 . S
H1903 C1917 0.929 . S
H1904 C1918 0.931 . S
H1905 C1920 0.930 1_565 S
C1906 H1894 0.960 . S
C1906 C1907 1.368 1_565 S
C1906 C1911 1.401 1_565 S
C1907 C1906 1.368 1_545 S
C1907 C1908 1.376 . S
C1908 H1895 0.930 . S
C1908 C1907 1.376 . S
C1908 C1909 1.388 . S
C1909 H1896 0.930 . S
C1909 C1908 1.388 . S
C1909 C1910 1.390 . S
C1910 C1909 1.390 . S
C1910 C1911 1.394 . S
C1910 C1916 1.465 . S
C1911 C1906 1.401 1_545 S
C1911 C1910 1.394 . S
C1911 C1912 1.516 1_545 S
C1912 C1911 1.516 1_565 S
C1912 C1913 1.502 . S
C1912 C1914 1.561 . S
C1912 C1915 1.526 1_565 S
C1913 H1897 0.959 . S
C1913 H1898 0.959 . S
C1913 H1899 0.961 . S
C1913 C1912 1.502 . S
C1914 H1900 0.960 . S
C1914 H1901 0.961 . S
C1914 H1902 0.959 . S
C1914 C1912 1.561 . S
C1915 C1912 1.526 1_545 S
C1915 C1916 1.396 . S
C1915 C1920 1.390 . S
C1916 C1910 1.465 . S
C1916 C1915 1.396 . S
C1916 C1917 1.399 . S
C1917 H1903 0.929 . S
C1917 C1916 1.399 . S
C1917 C1918 1.385 . S
C1918 H1904 0.931 . S
C1918 C1917 1.385 . S
C1918 C1919 1.389 . S
C1919 C1918 1.389 . S
C1919 C1920 1.387 . S
C1920 H1905 0.930 1_545 S
C1920 C1915 1.390 . S
C1920 C1919 1.387 . S
H1921 C1933 0.930 . S
H1922 C1935 0.930 . S
H1923 C1936 0.930 . S
H1924 C1940 0.959 . S
H1925 C1940 0.959 . S
H1926 C1940 0.961 . S
H1927 C1941 0.960 . S
H1928 C1941 0.961 . S
H1929 C1941 0.959 . S
H1930 C1944 0.929 . S
H1931 C1945 0.931 . S
H1932 C1947 0.930 . S
C1933 H1921 0.930 . S
C1933 C1934 1.399 . S
C1933 C1938 1.399 . S
C1934 C1933 1.399 . S
C1934 C1935 1.376 . S
C1935 H1922 0.930 . S
C1935 C1934 1.376 . S
C1935 C1936 1.388 . S
C1936 H1923 0.930 . S
C1936 C1935 1.388 . S
C1936 C1937 1.390 . S
C1937 C1936 1.390 . S
C1937 C1938 1.394 . S
C1937 C1943 1.465 . S
C1938 C1933 1.399 . S
C1938 C1937 1.394 . S
C1938 C1939 1.516 . S
C1939 C1938 1.516 . S
C1939 C1940 1.502 . S
C1939 C1941 1.561 . S
C1939 C1942 1.526 . S
C1940 H1924 0.959 . S
C1940 H1925 0.959 . S
C1940 H1926 0.961 . S
C1940 C1939 1.502 . S
C1941 H1927 0.960 . S
C1941 H1928 0.961 . S
C1941 H1929 0.959 . S
C1941 C1939 1.561 . S
C1942 C1939 1.526 . S
C1942 C1943 1.396 . S
C1942 C1947 1.390 . S
C1943 C1937 1.465 . S
C1943 C1942 1.396 . S
C1943 C1944 1.399 . S
C1944 H1930 0.929 . S
C1944 C1943 1.399 . S
C1944 C1945 1.385 . S
C1945 H1931 0.931 . S
C1945 C1944 1.385 . S
C1945 C1946 1.389 . S
C1946 C1945 1.389 . S
C1946 C1947 1.387 . S
C1947 H1932 0.930 . S
C1947 C1942 1.390 . S
C1947 C1946 1.387 . S
H1948 C1960 0.930 . S
H1949 C1962 0.930 . S
H1950 C1963 0.930 . S
H1951 C1967 0.959 . S
H1952 C1967 0.959 . S
H1953 C1967 0.961 . S
H1954 C1968 0.960 . S
H1955 C1968 0.961 . S
H1956 C1968 0.959 . S
H1957 C1971 0.929 . S
H1958 C1972 0.931 . S
H1959 C1974 0.930 1_565 S
C1960 H1948 0.930 . S
C1960 C1961 1.399 1_565 S
C1960 C1965 1.399 . S
C1961 C1960 1.399 1_545 S
C1961 C1962 1.376 . S
C1962 H1949 0.930 . S
C1962 C1961 1.376 . S
C1962 C1963 1.388 . S
C1963 H1950 0.930 . S
C1963 C1962 1.388 . S
C1963 C1964 1.390 . S
C1964 C1963 1.390 . S
C1964 C1965 1.394 1_545 S
C1964 C1970 1.465 . S
C1965 C1960 1.399 . S
C1965 C1964 1.394 1_565 S
C1965 C1966 1.516 . S
C1966 C1965 1.516 . S
C1966 C1967 1.502 . S
C1966 C1968 1.561 . S
C1966 C1969 1.526 1_565 S
C1967 H1951 0.959 . S
C1967 H1952 0.959 . S
C1967 H1953 0.961 . S
C1967 C1966 1.502 . S
C1968 H1954 0.960 . S
C1968 H1955 0.961 . S
C1968 H1956 0.959 . S
C1968 C1966 1.561 . S
C1969 C1966 1.526 1_545 S
C1969 C1970 1.396 . S
C1969 C1974 1.390 . S
C1970 C1964 1.465 . S
C1970 C1969 1.396 . S
C1970 C1971 1.399 . S
C1971 H1957 0.929 . S
C1971 C1970 1.399 . S
C1971 C1972 1.385 . S
C1972 H1958 0.931 . S
C1972 C1971 1.385 . S
C1972 C1973 1.389 . S
C1973 C1972 1.389 . S
C1973 C1974 1.387 . S
C1974 H1959 0.930 1_545 S
C1974 C1969 1.390 . S
C1974 C1973 1.387 . S
H1975 C1987 0.930 . S
H1976 C1989 0.930 . S
H1977 C1990 0.930 . S
H1978 C1994 0.959 . S
H1979 C1994 0.959 . S
H1980 C1994 0.961 . S
H1981 C1995 0.960 . S
H1982 C1995 0.961 . S
H1983 C1995 0.959 . S
H1984 C1998 0.929 . S
H1985 C1999 0.931 . S
H1986 C2001 0.930 . S
C1987 H1975 0.930 . S
C1987 C1988 1.399 . S
C1987 C1992 1.399 . S
C1988 C1987 1.399 . S
C1988 C1989 1.376 . S
C1989 H1976 0.930 . S
C1989 C1988 1.376 . S
C1989 C1990 1.388 . S
C1990 H1977 0.930 . S
C1990 C1989 1.388 . S
C1990 C1991 1.390 . S
C1991 C1990 1.390 . S
C1991 C1992 1.394 . S
C1991 C1997 1.465 . S
C1992 C1987 1.399 . S
C1992 C1991 1.394 . S
C1992 C1993 1.516 . S
C1993 C1992 1.516 . S
C1993 C1994 1.502 . S
C1993 C1995 1.561 . S
C1993 C1996 1.526 . S
C1994 H1978 0.959 . S
C1994 H1979 0.959 . S
C1994 H1980 0.961 . S
C1994 C1993 1.502 . S
C1995 H1981 0.960 . S
C1995 H1982 0.961 . S
C1995 H1983 0.959 . S
C1995 C1993 1.561 . S
C1996 C1993 1.526 . S
C1996 C1997 1.396 . S
C1996 C2001 1.390 . S
C1997 C1991 1.465 . S
C1997 C1996 1.396 . S
C1997 C1998 1.399 . S
C1998 H1984 0.929 . S
C1998 C1997 1.399 . S
C1998 C1999 1.385 . S
C1999 H1985 0.931 . S
C1999 C1998 1.385 . S
C1999 C2000 1.389 . S
C2000 C1999 1.389 . S
C2000 C2001 1.387 . S
C2001 H1986 0.930 . S
C2001 C1996 1.390 . S
C2001 C2000 1.387 . S
H2002 C2014 0.930 . S
H2003 C2016 0.930 . S
H2004 C2017 0.930 . S
H2005 C2021 0.959 . S
H2006 C2021 0.959 . S
H2007 C2021 0.961 . S
H2008 C2022 0.960 . S
H2009 C2022 0.961 . S
H2010 C2022 0.959 . S
H2011 C2025 0.929 . S
H2012 C2026 0.931 . S
H2013 C2028 0.930 . S
C2014 H2002 0.930 . S
C2014 C2015 1.399 1_565 S
C2014 C2019 1.399 . S
C2015 C2014 1.399 1_545 S
C2015 C2016 1.376 . S
C2016 H2003 0.930 . S
C2016 C2015 1.376 . S
C2016 C2017 1.388 . S
C2017 H2004 0.930 . S
C2017 C2016 1.388 . S
C2017 C2018 1.390 . S
C2018 C2017 1.390 . S
C2018 C2019 1.394 1_545 S
C2018 C2024 1.465 . S
C2019 C2014 1.399 . S
C2019 C2018 1.394 1_565 S
C2019 C2020 1.516 . S
C2020 C2019 1.516 . S
C2020 C2021 1.502 . S
C2020 C2022 1.561 . S
C2020 C2023 1.526 . S
C2021 H2005 0.959 . S
C2021 H2006 0.959 . S
C2021 H2007 0.961 . S
C2021 C2020 1.502 . S
C2022 H2008 0.960 . S
C2022 H2009 0.961 . S
C2022 H2010 0.959 . S
C2022 C2020 1.561 . S
C2023 C2020 1.526 . S
C2023 C2024 1.396 1_565 S
C2023 C2028 1.390 . S
C2024 C2018 1.465 . S
C2024 C2023 1.396 1_545 S
C2024 C2025 1.399 . S
C2025 H2011 0.929 . S
C2025 C2024 1.399 . S
C2025 C2026 1.385 . S
C2026 H2012 0.931 . S
C2026 C2025 1.385 . S
C2026 C2027 1.389 1_545 S
C2027 C2026 1.389 1_565 S
C2027 C2028 1.387 . S
C2028 H2013 0.930 . S
C2028 C2023 1.390 . S
C2028 C2027 1.387 . S
H2029 C2041 0.930 . S
H2030 C2043 0.930 . S
H2031 C2044 0.930 . S
H2032 C2048 0.959 . S
H2033 C2048 0.959 . S
H2034 C2048 0.961 . S
H2035 C2049 0.960 . S
H2036 C2049 0.961 . S
H2037 C2049 0.959 . S
H2038 C2052 0.929 . S
H2039 C2053 0.931 . S
H2040 C2055 0.930 . S
C2041 H2029 0.930 . S
C2041 C2042 1.399 . S
C2041 C2046 1.399 . S
C2042 C2041 1.399 . S
C2042 C2043 1.376 . S
C2043 H2030 0.930 . S
C2043 C2042 1.376 . S
C2043 C2044 1.388 . S
C2044 H2031 0.930 . S
C2044 C2043 1.388 . S
C2044 C2045 1.390 . S
C2045 C2044 1.390 . S
C2045 C2046 1.394 . S
C2045 C2051 1.465 . S
C2046 C2041 1.399 . S
C2046 C2045 1.394 . S
C2046 C2047 1.516 . S
C2047 C2046 1.516 . S
C2047 C2048 1.502 . S
C2047 C2049 1.561 . S
C2047 C2050 1.526 . S
C2048 H2032 0.959 . S
C2048 H2033 0.959 . S
C2048 H2034 0.961 . S
C2048 C2047 1.502 . S
C2049 H2035 0.960 . S
C2049 H2036 0.961 . S
C2049 H2037 0.959 . S
C2049 C2047 1.561 . S
C2050 C2047 1.526 . S
C2050 C2051 1.396 . S
C2050 C2055 1.390 . S
C2051 C2045 1.465 . S
C2051 C2050 1.396 . S
C2051 C2052 1.399 . S
C2052 H2038 0.929 . S
C2052 C2051 1.399 . S
C2052 C2053 1.385 . S
C2053 H2039 0.931 . S
C2053 C2052 1.385 . S
C2053 C2054 1.389 . S
C2054 C2053 1.389 . S
C2054 C2055 1.387 . S
C2055 H2040 0.930 . S
C2055 C2050 1.390 . S
C2055 C2054 1.387 . S
H2056 C2068 0.930 . S
H2057 C2070 0.930 . S
H2058 C2071 0.930 . S
H2059 C2075 0.959 . S
H2060 C2075 0.959 . S
H2061 C2075 0.961 . S
H2062 C2076 0.960 . S
H2063 C2076 0.961 . S
H2064 C2076 0.959 . S
H2065 C2079 0.929 . S
H2066 C2080 0.931 . S
H2067 C2082 0.930 . S
C2068 H2056 0.930 . S
C2068 C2069 1.399 . S
C2068 C2073 1.399 . S
C2069 C2068 1.399 . S
C2069 C2070 1.376 1_554 S
C2070 H2057 0.930 . S
C2070 C2069 1.376 1_556 S
C2070 C2071 1.388 . S
C2071 H2058 0.930 . S
C2071 C2070 1.388 . S
C2071 C2072 1.390 . S
C2072 C2071 1.390 . S
C2072 C2073 1.394 1_556 S
C2072 C2078 1.465 . S
C2073 C2068 1.399 . S
C2073 C2072 1.394 1_554 S
C2073 C2074 1.516 . S
C2074 C2073 1.516 . S
C2074 C2075 1.502 . S
C2074 C2076 1.561 . S
C2074 C2077 1.526 . S
C2075 H2059 0.959 . S
C2075 H2060 0.959 . S
C2075 H2061 0.961 . S
C2075 C2074 1.502 . S
C2076 H2062 0.960 . S
C2076 H2063 0.961 . S
C2076 H2064 0.959 . S
C2076 C2074 1.561 . S
C2077 C2074 1.526 . S
C2077 C2078 1.396 1_554 S
C2077 C2082 1.390 . S
C2078 C2072 1.465 . S
C2078 C2077 1.396 1_556 S
C2078 C2079 1.399 . S
C2079 H2065 0.929 . S
C2079 C2078 1.399 . S
C2079 C2080 1.385 . S
C2080 H2066 0.931 . S
C2080 C2079 1.385 . S
C2080 C2081 1.389 . S
C2081 C2080 1.389 . S
C2081 C2082 1.387 1_556 S
C2082 H2067 0.930 . S
C2082 C2077 1.390 . S
C2082 C2081 1.387 1_554 S
H2083 C2095 0.930 . S
H2084 C2097 0.930 . S
H2085 C2098 0.930 . S
H2086 C2102 0.959 1_554 S
H2087 C2102 0.959 . S
H2088 C2102 0.961 . S
H2089 C2103 0.960 . S
H2090 C2103 0.961 . S
H2091 C2103 0.959 . S
H2092 C2106 0.929 . S
H2093 C2107 0.931 . S
H2094 C2109 0.905 1_556 S
C2095 H2083 0.930 . S
C2095 C2096 1.399 . S
C2095 C2100 1.399 . S
C2096 C2095 1.399 . S
C2096 C2097 1.376 . S
C2097 H2084 0.930 . S
C2097 C2096 1.376 . S
C2097 C2098 1.388 . S
C2098 H2085 0.930 . S
C2098 C2097 1.388 . S
C2098 C2099 1.390 . S
C2099 C2098 1.390 . S
C2099 C2100 1.394 . S
C2099 C2105 1.465 . S
C2100 C2095 1.399 . S
C2100 C2099 1.394 . S
C2100 C2101 1.516 . S
C2101 C2100 1.516 . S
C2101 C2102 1.502 1_554 S
C2101 C2103 1.561 1_554 S
C2101 C2104 1.526 . S
C2102 H2086 0.959 1_556 S
C2102 H2087 0.959 . S
C2102 H2088 0.961 . S
C2102 C2101 1.502 1_556 S
C2103 H2089 0.960 . S
C2103 H2090 0.961 . S
C2103 H2091 0.959 . S
C2103 C2101 1.561 1_556 S
C2104 C2101 1.526 . S
C2104 C2105 1.396 . S
C2104 C2109 1.390 . S
C2105 C2099 1.465 . S
C2105 C2104 1.396 . S
C2105 C2106 1.399 . S
C2106 H2092 0.929 . S
C2106 C2105 1.399 . S
C2106 C2107 1.385 . S
C2107 H2093 0.931 . S
C2107 C2106 1.385 . S
C2107 C2108 1.389 . S
C2108 C2107 1.389 . S
C2108 C2109 1.387 . S
C2109 H2094 0.905 1_554 S
C2109 C2104 1.390 . S
C2109 C2108 1.387 . S
H2110 C2122 0.930 . S
H2111 C2124 0.930 . S
H2112 C2125 0.930 . S
H2113 C2129 0.959 . S
H2114 C2129 0.959 . S
H2115 C2129 0.961 . S
H2116 C2130 0.960 . S
H2117 C2130 0.961 . S
H2118 C2130 0.959 . S
H2119 C2133 0.929 . S
H2120 C2134 0.931 . S
H2121 C2136 0.930 . S
C2122 H2110 0.930 . S
C2122 C2123 1.399 . S
C2122 C2127 1.399 . S
C2123 C2122 1.399 . S
C2123 C2124 1.376 . S
C2124 H2111 0.930 . S
C2124 C2123 1.376 . S
C2124 C2125 1.388 . S
C2125 H2112 0.930 . S
C2125 C2124 1.388 . S
C2125 C2126 1.390 . S
C2126 C2125 1.390 . S
C2126 C2127 1.394 . S
C2126 C2132 1.465 . S
C2127 C2122 1.399 . S
C2127 C2126 1.394 . S
C2127 C2128 1.516 . S
C2128 C2127 1.516 . S
C2128 C2129 1.502 . S
C2128 C2130 1.561 . S
C2128 C2131 1.526 . S
C2129 H2113 0.959 . S
C2129 H2114 0.959 . S
C2129 H2115 0.961 . S
C2129 C2128 1.502 . S
C2130 H2116 0.960 . S
C2130 H2117 0.961 . S
C2130 H2118 0.959 . S
C2130 C2128 1.561 . S
C2131 C2128 1.526 . S
C2131 C2132 1.396 . S
C2131 C2136 1.390 . S
C2132 C2126 1.465 . S
C2132 C2131 1.396 . S
C2132 C2133 1.399 . S
C2133 H2119 0.929 . S
C2133 C2132 1.399 . S
C2133 C2134 1.385 . S
C2134 H2120 0.931 . S
C2134 C2133 1.385 . S
C2134 C2135 1.389 . S
C2135 C2134 1.389 . S
C2135 C2136 1.387 . S
C2136 H2121 0.930 . S
C2136 C2131 1.390 . S
C2136 C2135 1.387 . S
H2137 C2149 0.930 . S
H2138 C2151 0.930 . S
H2139 C2152 0.930 . S
H2140 C2156 0.959 . S
H2141 C2156 0.959 . S
H2142 C2156 0.961 . S
H2143 C2157 0.960 . S
H2144 C2157 0.961 . S
H2145 C2157 0.959 . S
H2146 C2160 0.929 . S
H2147 C2161 0.931 . S
H2148 C2163 0.930 . S
C2149 H2137 0.930 . S
C2149 C2150 1.399 . S
C2149 C2154 1.399 . S
C2150 C2149 1.399 . S
C2150 C2151 1.376 . S
C2151 H2138 0.930 . S
C2151 C2150 1.376 . S
C2151 C2152 1.388 . S
C2152 H2139 0.930 . S
C2152 C2151 1.388 . S
C2152 C2153 1.390 . S
C2153 C2152 1.390 . S
C2153 C2154 1.394 . S
C2153 C2159 1.465 . S
C2154 C2149 1.399 . S
C2154 C2153 1.394 . S
C2154 C2155 1.516 . S
C2155 C2154 1.516 . S
C2155 C2156 1.502 . S
C2155 C2157 1.561 . S
C2155 C2158 1.526 . S
C2156 H2140 0.959 . S
C2156 H2141 0.959 . S
C2156 H2142 0.961 . S
C2156 C2155 1.502 . S
C2157 H2143 0.960 . S
C2157 H2144 0.961 . S
C2157 H2145 0.959 . S
C2157 C2155 1.561 . S
C2158 C2155 1.526 . S
C2158 C2159 1.396 . S
C2158 C2163 1.390 . S
C2159 C2153 1.465 . S
C2159 C2158 1.396 . S
C2159 C2160 1.399 . S
C2160 H2146 0.929 . S
C2160 C2159 1.399 . S
C2160 C2161 1.385 . S
C2161 H2147 0.931 . S
C2161 C2160 1.385 . S
C2161 C2162 1.389 . S
C2162 C2161 1.389 . S
C2162 C2163 1.387 . S
C2163 H2148 0.930 . S
C2163 C2158 1.390 . S
C2163 C2162 1.387 . S
H2164 C2176 0.930 . S
H2165 C2178 0.930 . S
H2166 C2179 0.930 . S
H2167 C2183 0.959 . S
H2168 C2183 0.959 . S
H2169 C2183 0.961 . S
H2170 C2184 0.960 . S
H2171 C2184 0.961 . S
H2172 C2184 0.959 . S
H2173 C2187 0.929 . S
H2174 C2188 0.931 . S
H2175 C2190 0.930 . S
C2176 H2164 0.930 . S
C2176 C2177 1.410 . S
C2176 C2181 1.399 . S
C2177 C2176 1.410 . S
C2177 C2178 1.377 1_565 S
C2178 H2165 0.930 . S
C2178 C2177 1.377 1_545 S
C2178 C2179 1.388 1_545 S
C2179 H2166 0.930 . S
C2179 C2178 1.388 1_565 S
C2179 C2180 1.390 . S
C2180 C2179 1.390 . S
C2180 C2181 1.394 . S
C2180 C2186 1.465 . S
C2181 C2176 1.399 . S
C2181 C2180 1.394 . S
C2181 C2182 1.516 . S
C2182 C2181 1.516 . S
C2182 C2183 1.502 . S
C2182 C2184 1.561 . S
C2182 C2185 1.526 . S
C2183 H2167 0.959 . S
C2183 H2168 0.959 . S
C2183 H2169 0.961 . S
C2183 C2182 1.502 . S
C2184 H2170 0.960 . S
C2184 H2171 0.961 . S
C2184 H2172 0.959 . S
C2184 C2182 1.561 . S
C2185 C2182 1.526 . S
C2185 C2186 1.396 . S
C2185 C2190 1.390 . S
C2186 C2180 1.465 . S
C2186 C2185 1.396 . S
C2186 C2187 1.399 . S
C2187 H2173 0.929 . S
C2187 C2186 1.399 . S
C2187 C2188 1.385 . S
C2188 H2174 0.931 . S
C2188 C2187 1.385 . S
C2188 C2189 1.389 . S
C2189 C2188 1.389 . S
C2189 C2190 1.387 . S
C2190 H2175 0.930 . S
C2190 C2185 1.390 . S
C2190 C2189 1.387 . S
H2191 C2203 0.930 . S
H2192 C2205 0.930 . S
H2193 C2206 0.930 . S
H2194 C2210 0.959 . S
H2195 C2210 0.959 . S
H2196 C2210 0.961 . S
H2197 C2211 0.960 . S
H2198 C2211 0.961 . S
H2199 C2211 0.959 . S
H2200 C2214 0.929 . S
H2201 C2215 0.931 . S
H2202 C2217 0.930 . S
C2203 H2191 0.930 . S
C2203 C2204 1.399 . S
C2203 C2208 1.399 . S
C2204 C2203 1.399 . S
C2204 C2205 1.376 . S
C2205 H2192 0.930 . S
C2205 C2204 1.376 . S
C2205 C2206 1.388 . S
C2206 H2193 0.930 . S
C2206 C2205 1.388 . S
C2206 C2207 1.390 . S
C2207 C2206 1.390 . S
C2207 C2208 1.394 . S
C2207 C2213 1.465 . S
C2208 C2203 1.399 . S
C2208 C2207 1.394 . S
C2208 C2209 1.516 . S
C2209 C2208 1.516 . S
C2209 C2210 1.502 . S
C2209 C2211 1.561 . S
C2209 C2212 1.526 . S
C2210 H2194 0.959 . S
C2210 H2195 0.959 . S
C2210 H2196 0.961 . S
C2210 C2209 1.502 . S
C2211 H2197 0.960 . S
C2211 H2198 0.961 . S
C2211 H2199 0.959 . S
C2211 C2209 1.561 . S
C2212 C2209 1.526 . S
C2212 C2213 1.396 . S
C2212 C2217 1.390 . S
C2213 C2207 1.465 . S
C2213 C2212 1.396 . S
C2213 C2214 1.399 . S
C2214 H2200 0.929 . S
C2214 C2213 1.399 . S
C2214 C2215 1.385 . S
C2215 H2201 0.931 . S
C2215 C2214 1.385 . S
C2215 C2216 1.389 . S
C2216 C2215 1.389 . S
C2216 C2217 1.387 . S
C2217 H2202 0.930 . S
C2217 C2212 1.390 . S
C2217 C2216 1.387 . S
H2218 C2230 0.930 . S
H2219 C2232 0.930 . S
H2220 C2233 0.930 . S
H2221 C2237 0.959 . S
H2222 C2237 0.959 . S
H2223 C2237 0.961 . S
H2224 C2238 0.960 . S
H2225 C2238 0.961 . S
H2226 C2238 0.959 . S
H2227 C2241 0.929 . S
H2228 C2242 0.931 . S
H2229 C2244 0.930 . S
C2230 H2218 0.930 . S
C2230 C2231 1.399 . S
C2230 C2235 1.399 . S
C2231 C2230 1.399 . S
C2231 C2232 1.376 . S
C2232 H2219 0.930 . S
C2232 C2231 1.376 . S
C2232 C2233 1.388 . S
C2233 H2220 0.930 . S
C2233 C2232 1.388 . S
C2233 C2234 1.390 . S
C2234 C2233 1.390 . S
C2234 C2235 1.394 . S
C2234 C2240 1.465 . S
C2235 C2230 1.399 . S
C2235 C2234 1.394 . S
C2235 C2236 1.516 . S
C2236 C2235 1.516 . S
C2236 C2237 1.502 . S
C2236 C2238 1.561 . S
C2236 C2239 1.526 . S
C2237 H2221 0.959 . S
C2237 H2222 0.959 . S
C2237 H2223 0.961 . S
C2237 C2236 1.502 . S
C2238 H2224 0.960 . S
C2238 H2225 0.961 . S
C2238 H2226 0.959 . S
C2238 C2236 1.561 . S
C2239 C2236 1.526 . S
C2239 C2240 1.396 . S
C2239 C2244 1.390 . S
C2240 C2234 1.465 . S
C2240 C2239 1.396 . S
C2240 C2241 1.399 . S
C2241 H2227 0.929 . S
C2241 C2240 1.399 . S
C2241 C2242 1.385 . S
C2242 H2228 0.931 . S
C2242 C2241 1.385 . S
C2242 C2243 1.389 . S
C2243 C2242 1.389 . S
C2243 C2244 1.387 . S
C2244 H2229 0.930 . S
C2244 C2239 1.390 . S
C2244 C2243 1.387 . S
H2245 C2257 0.930 . S
H2246 C2259 0.930 . S
H2247 C2260 0.930 . S
H2248 C2264 0.959 . S
H2249 C2264 0.959 . S
H2250 C2264 0.961 . S
H2251 C2265 0.960 . S
H2252 C2265 0.961 . S
H2253 C2265 0.959 . S
H2254 C2268 0.929 . S
H2255 C2269 0.931 . S
H2256 C2271 0.930 . S
C2257 H2245 0.930 . S
C2257 C2258 1.399 . S
C2257 C2262 1.399 . S
C2258 C2257 1.399 . S
C2258 C2259 1.376 . S
C2259 H2246 0.930 . S
C2259 C2258 1.376 . S
C2259 C2260 1.388 . S
C2260 H2247 0.930 . S
C2260 C2259 1.388 . S
C2260 C2261 1.390 . S
C2261 C2260 1.390 . S
C2261 C2262 1.394 . S
C2261 C2267 1.465 . S
C2262 C2257 1.399 . S
C2262 C2261 1.394 . S
C2262 C2263 1.516 . S
C2263 C2262 1.516 . S
C2263 C2264 1.502 . S
C2263 C2265 1.561 . S
C2263 C2266 1.526 . S
C2264 H2248 0.959 . S
C2264 H2249 0.959 . S
C2264 H2250 0.961 . S
C2264 C2263 1.502 . S
C2265 H2251 0.960 . S
C2265 H2252 0.961 . S
C2265 H2253 0.959 . S
C2265 C2263 1.561 . S
C2266 C2263 1.526 . S
C2266 C2267 1.396 . S
C2266 C2271 1.390 . S
C2267 C2261 1.465 . S
C2267 C2266 1.396 . S
C2267 C2268 1.399 . S
C2268 H2254 0.929 . S
C2268 C2267 1.399 . S
C2268 C2269 1.385 . S
C2269 H2255 0.931 . S
C2269 C2268 1.385 . S
C2269 C2270 1.389 . S
C2270 C2269 1.389 . S
C2270 C2271 1.387 . S
C2271 H2256 0.930 . S
C2271 C2266 1.390 . S
C2271 C2270 1.387 . S
H2272 C2284 0.930 . S
H2273 C2286 0.930 . S
H2274 C2287 0.930 . S
H2275 C2291 0.959 . S
H2276 C2291 0.959 . S
H2277 C2291 0.961 . S
H2278 C2292 0.960 . S
H2279 C2292 0.961 . S
H2280 C2292 0.959 . S
H2281 C2295 0.929 . S
H2282 C2296 0.931 . S
H2283 C2298 0.930 . S
C2284 H2272 0.930 . S
C2284 C2285 1.399 . S
C2284 C2289 1.399 . S
C2285 C2284 1.399 . S
C2285 C2286 1.376 . S
C2286 H2273 0.930 . S
C2286 C2285 1.376 . S
C2286 C2287 1.388 . S
C2287 H2274 0.930 . S
C2287 C2286 1.388 . S
C2287 C2288 1.390 . S
C2288 C2287 1.390 . S
C2288 C2289 1.394 . S
C2288 C2294 1.465 . S
C2289 C2284 1.399 . S
C2289 C2288 1.394 . S
C2289 C2290 1.516 . S
C2290 C2289 1.516 . S
C2290 C2291 1.502 . S
C2290 C2292 1.561 . S
C2290 C2293 1.526 . S
C2291 H2275 0.959 . S
C2291 H2276 0.959 . S
C2291 H2277 0.961 . S
C2291 C2290 1.502 . S
C2292 H2278 0.960 . S
C2292 H2279 0.961 . S
C2292 H2280 0.959 . S
C2292 C2290 1.561 . S
C2293 C2290 1.526 . S
C2293 C2294 1.396 . S
C2293 C2298 1.390 . S
C2294 C2288 1.465 . S
C2294 C2293 1.396 . S
C2294 C2295 1.399 . S
C2295 H2281 0.929 . S
C2295 C2294 1.399 . S
C2295 C2296 1.385 . S
C2296 H2282 0.931 . S
C2296 C2295 1.385 . S
C2296 C2297 1.389 . S
C2297 C2296 1.389 . S
C2297 C2298 1.387 . S
C2298 H2283 0.930 . S
C2298 C2293 1.390 . S
C2298 C2297 1.387 . S
H2299 C2311 0.930 . S
H2300 C2313 0.930 . S
H2301 C2314 0.930 . S
H2302 C2318 0.959 . S
H2303 C2318 0.959 . S
H2304 C2318 0.961 . S
H2305 C2319 0.960 . S
H2306 C2319 0.961 . S
H2307 C2319 0.959 . S
H2308 C2322 0.929 . S
H2309 C2323 0.931 . S
H2310 C2325 0.930 . S
C2311 H2299 0.930 . S
C2311 C2312 1.399 . S
C2311 C2316 1.399 . S
C2312 C2311 1.399 . S
C2312 C2313 1.376 . S
C2313 H2300 0.930 . S
C2313 C2312 1.376 . S
C2313 C2314 1.388 . S
C2314 H2301 0.930 . S
C2314 C2313 1.388 . S
C2314 C2315 1.390 . S
C2315 C2314 1.390 . S
C2315 C2316 1.394 . S
C2315 C2321 1.465 . S
C2316 C2311 1.399 . S
C2316 C2315 1.394 . S
C2316 C2317 1.516 . S
C2317 C2316 1.516 . S
C2317 C2318 1.502 . S
C2317 C2319 1.561 . S
C2317 C2320 1.526 . S
C2318 H2302 0.959 . S
C2318 H2303 0.959 . S
C2318 H2304 0.961 . S
C2318 C2317 1.502 . S
C2319 H2305 0.960 . S
C2319 H2306 0.961 . S
C2319 H2307 0.959 . S
C2319 C2317 1.561 . S
C2320 C2317 1.526 . S
C2320 C2321 1.396 . S
C2320 C2325 1.390 . S
C2321 C2315 1.465 . S
C2321 C2320 1.396 . S
C2321 C2322 1.399 . S
C2322 H2308 0.929 . S
C2322 C2321 1.399 . S
C2322 C2323 1.385 . S
C2323 H2309 0.931 . S
C2323 C2322 1.385 . S
C2323 C2324 1.389 . S
C2324 C2323 1.389 . S
C2324 C2325 1.387 . S
C2325 H2310 0.930 . S
C2325 C2320 1.390 . S
C2325 C2324 1.387 . S
H2326 C2338 0.930 . S
H2327 C2340 0.930 . S
H2328 C2341 0.930 . S
H2329 C2345 0.959 . S
H2330 C2345 0.959 . S
H2331 C2345 0.961 . S
H2332 C2346 0.960 . S
H2333 C2346 0.961 . S
H2334 C2346 0.959 . S
H2335 C2349 0.929 . S
H2336 C2350 0.949 . S
H2337 C2352 0.930 . S
C2338 H2326 0.930 . S
C2338 C2339 1.399 . S
C2338 C2343 1.399 . S
C2339 C2338 1.399 . S
C2339 C2340 1.376 . S
C2340 H2327 0.930 . S
C2340 C2339 1.376 . S
C2340 C2341 1.388 . S
C2341 H2328 0.930 . S
C2341 C2340 1.388 . S
C2341 C2342 1.390 . S
C2342 C2341 1.390 . S
C2342 C2343 1.394 . S
C2342 C2348 1.465 . S
C2343 C2338 1.399 . S
C2343 C2342 1.394 . S
C2343 C2344 1.516 1_556 S
C2344 C2343 1.516 1_554 S
C2344 C2345 1.502 . S
C2344 C2346 1.561 . S
C2344 C2347 1.526 . S
C2345 H2329 0.959 . S
C2345 H2330 0.959 . S
C2345 H2331 0.961 . S
C2345 C2344 1.502 . S
C2346 H2332 0.960 . S
C2346 H2333 0.961 . S
C2346 H2334 0.959 . S
C2346 C2344 1.561 . S
C2347 C2344 1.526 . S
C2347 C2348 1.396 1_554 S
C2347 C2352 1.390 . S
C2348 C2342 1.465 . S
C2348 C2347 1.396 1_556 S
C2348 C2349 1.399 . S
C2349 H2335 0.929 . S
C2349 C2348 1.399 . S
C2349 C2350 1.385 1_556 S
C2350 H2336 0.949 . S
C2350 C2349 1.385 1_554 S
C2350 C2351 1.389 . S
C2351 C2350 1.389 . S
C2351 C2352 1.387 . S
C2352 H2337 0.930 . S
C2352 C2347 1.390 . S
C2352 C2351 1.387 . S
H2353 C2365 0.930 . S
H2354 C2367 0.924 1_455 S
H2355 C2368 0.930 . S
H2356 C2372 0.959 . S
H2357 C2372 0.959 . S
H2358 C2372 0.961 1_455 S
H2359 C2373 0.960 . S
H2360 C2373 0.961 . S
H2361 C2373 0.959 . S
H2362 C2376 0.929 . S
H2363 C2377 0.931 . S
H2364 C2379 0.930 . S
C2365 H2353 0.930 . S
C2365 C2366 1.399 . S
C2365 C2370 1.399 1_455 S
C2366 C2365 1.399 . S
C2366 C2367 1.368 1_455 S
C2367 H2354 0.924 1_655 S
C2367 C2366 1.368 1_655 S
C2367 C2368 1.403 . S
C2368 H2355 0.930 . S
C2368 C2367 1.403 . S
C2368 C2369 1.390 . S
C2369 C2368 1.390 . S
C2369 C2370 1.394 . S
C2369 C2375 1.465 . S
C2370 C2365 1.399 1_655 S
C2370 C2369 1.394 . S
C2370 C2371 1.516 . S
C2371 C2370 1.516 . S
C2371 C2372 1.502 . S
C2371 C2373 1.561 . S
C2371 C2374 1.526 . S
C2372 H2356 0.959 . S
C2372 H2357 0.959 . S
C2372 H2358 0.961 1_655 S
C2372 C2371 1.502 . S
C2373 H2359 0.960 . S
C2373 H2360 0.961 . S
C2373 H2361 0.959 . S
C2373 C2371 1.561 . S
C2374 C2371 1.526 . S
C2374 C2375 1.396 . S
C2374 C2379 1.390 . S
C2375 C2369 1.465 . S
C2375 C2374 1.396 . S
C2375 C2376 1.399 . S
C2376 H2362 0.929 . S
C2376 C2375 1.399 . S
C2376 C2377 1.385 . S
C2377 H2363 0.931 . S
C2377 C2376 1.385 . S
C2377 C2378 1.389 . S
C2378 C2377 1.389 . S
C2378 C2379 1.387 . S
C2379 H2364 0.930 . S
C2379 C2374 1.390 . S
C2379 C2378 1.387 . S
H2380 C2392 0.930 . S
H2381 C2394 0.930 . S
H2382 C2395 0.930 . S
H2383 C2399 0.959 . S
H2384 C2399 0.959 . S
H2385 C2399 0.961 . S
H2386 C2400 0.960 . S
H2387 C2400 0.961 . S
H2388 C2400 0.959 . S
H2389 C2403 0.929 . S
H2390 C2404 0.931 . S
H2391 C2406 0.930 . S
C2392 H2380 0.930 . S
C2392 C2393 1.399 . S
C2392 C2397 1.399 . S
C2393 C2392 1.399 . S
C2393 C2394 1.376 . S
C2394 H2381 0.930 . S
C2394 C2393 1.376 . S
C2394 C2395 1.388 . S
C2395 H2382 0.930 . S
C2395 C2394 1.388 . S
C2395 C2396 1.390 . S
C2396 C2395 1.390 . S
C2396 C2397 1.394 . S
C2396 C2402 1.465 . S
C2397 C2392 1.399 . S
C2397 C2396 1.394 . S
C2397 C2398 1.516 . S
C2398 C2397 1.516 . S
C2398 C2399 1.502 . S
C2398 C2400 1.561 . S
C2398 C2401 1.526 . S
C2399 H2383 0.959 . S
C2399 H2384 0.959 . S
C2399 H2385 0.961 . S
C2399 C2398 1.502 . S
C2400 H2386 0.960 . S
C2400 H2387 0.961 . S
C2400 H2388 0.959 . S
C2400 C2398 1.561 . S
C2401 C2398 1.526 . S
C2401 C2402 1.396 . S
C2401 C2406 1.390 . S
C2402 C2396 1.465 . S
C2402 C2401 1.396 . S
C2402 C2403 1.399 . S
C2403 H2389 0.929 . S
C2403 C2402 1.399 . S
C2403 C2404 1.385 . S
C2404 H2390 0.931 . S
C2404 C2403 1.385 . S
C2404 C2405 1.389 . S
C2405 C2404 1.389 . S
C2405 C2406 1.387 . S
C2406 H2391 0.930 . S
C2406 C2401 1.390 . S
C2406 C2405 1.387 . S
H2407 C2419 0.930 . S
H2408 C2421 0.930 . S
H2409 C2422 0.930 . S
H2410 C2426 0.959 . S
H2411 C2426 0.959 . S
H2412 C2426 0.961 . S
H2413 C2427 0.960 1_455 S
H2414 C2427 0.961 . S
H2415 C2427 0.959 . S
H2416 C2430 0.929 . S
H2417 C2431 0.931 . S
H2418 C2433 0.930 . S
C2419 H2407 0.930 . S
C2419 C2420 1.399 . S
C2419 C2424 1.399 . S
C2420 C2419 1.399 . S
C2420 C2421 1.376 . S
C2421 H2408 0.930 . S
C2421 C2420 1.376 . S
C2421 C2422 1.388 . S
C2422 H2409 0.930 . S
C2422 C2421 1.388 . S
C2422 C2423 1.390 . S
C2423 C2422 1.390 . S
C2423 C2424 1.394 . S
C2423 C2429 1.465 1_455 S
C2424 C2419 1.399 . S
C2424 C2423 1.394 . S
C2424 C2425 1.516 . S
C2425 C2424 1.516 . S
C2425 C2426 1.502 . S
C2425 C2427 1.561 1_455 S
C2425 C2428 1.526 1_455 S
C2426 H2410 0.959 . S
C2426 H2411 0.959 . S
C2426 H2412 0.961 . S
C2426 C2425 1.502 . S
C2427 H2413 0.960 1_655 S
C2427 H2414 0.961 . S
C2427 H2415 0.959 . S
C2427 C2425 1.561 1_655 S
C2428 C2425 1.526 1_655 S
C2428 C2429 1.396 . S
C2428 C2433 1.390 . S
C2429 C2423 1.465 1_655 S
C2429 C2428 1.396 . S
C2429 C2430 1.399 . S
C2430 H2416 0.929 . S
C2430 C2429 1.399 . S
C2430 C2431 1.385 . S
C2431 H2417 0.931 . S
C2431 C2430 1.385 . S
C2431 C2432 1.389 . S
C2432 C2431 1.389 . S
C2432 C2433 1.387 . S
C2433 H2418 0.930 . S
C2433 C2428 1.390 . S
C2433 C2432 1.387 . S
H2434 C2446 0.930 . S
H2435 C2448 0.930 . S
H2436 C2449 0.930 . S
H2437 C2453 0.959 . S
H2438 C2453 0.959 . S
H2439 C2453 0.961 . S
H2440 C2454 0.938 1_655 S
H2441 C2454 0.963 1_655 S
H2442 C2454 0.978 . S
H2443 C2457 0.929 . S
H2444 C2458 0.931 . S
H2445 C2460 0.930 . S
C2446 H2434 0.930 . S
C2446 C2447 1.401 . S
C2446 C2451 1.399 1_655 S
C2447 C2446 1.401 . S
C2447 C2448 1.360 1_655 S
C2448 H2435 0.930 . S
C2448 C2447 1.360 1_455 S
C2448 C2449 1.388 . S
C2449 H2436 0.930 . S
C2449 C2448 1.388 . S
C2449 C2450 1.390 . S
C2450 C2449 1.390 . S
C2450 C2451 1.394 . S
C2450 C2456 1.465 . S
C2451 C2446 1.399 1_455 S
C2451 C2450 1.394 . S
C2451 C2452 1.520 1_455 S
C2452 C2451 1.520 1_655 S
C2452 C2453 1.531 . S
C2452 C2454 1.566 1_655 S
C2452 C2455 1.487 1_655 S
C2453 H2437 0.959 . S
C2453 H2438 0.959 . S
C2453 H2439 0.961 . S
C2453 C2452 1.531 . S
C2454 H2440 0.938 1_455 S
C2454 H2441 0.963 1_455 S
C2454 H2442 0.978 . S
C2454 C2452 1.566 1_455 S
C2455 C2452 1.487 1_455 S
C2455 C2456 1.396 . S
C2455 C2460 1.390 . S
C2456 C2450 1.465 . S
C2456 C2455 1.396 . S
C2456 C2457 1.399 . S
C2457 H2443 0.929 . S
C2457 C2456 1.399 . S
C2457 C2458 1.385 . S
C2458 H2444 0.931 . S
C2458 C2457 1.385 . S
C2458 C2459 1.389 . S
C2459 C2458 1.389 . S
C2459 C2460 1.387 . S
C2460 H2445 0.930 . S
C2460 C2455 1.390 . S
C2460 C2459 1.387 . S
H2461 C2473 0.930 . S
H2462 C2475 0.930 . S
H2463 C2476 0.930 . S
H2464 C2480 0.959 . S
H2465 C2480 0.959 . S
H2466 C2480 0.961 . S
H2467 C2481 0.960 . S
H2468 C2481 0.961 . S
H2469 C2481 0.959 . S
H2470 C2484 0.929 . S
H2471 C2485 0.931 . S
H2472 C2487 0.930 . S
C2473 H2461 0.930 . S
C2473 C2474 1.399 . S
C2473 C2478 1.399 . S
C2474 C2473 1.399 . S
C2474 C2475 1.376 . S
C2475 H2462 0.930 . S
C2475 C2474 1.376 . S
C2475 C2476 1.388 . S
C2476 H2463 0.930 . S
C2476 C2475 1.388 . S
C2476 C2477 1.390 . S
C2477 C2476 1.390 . S
C2477 C2478 1.394 . S
C2477 C2483 1.465 . S
C2478 C2473 1.399 . S
C2478 C2477 1.394 . S
C2478 C2479 1.516 . S
C2479 C2478 1.516 . S
C2479 C2480 1.502 . S
C2479 C2481 1.561 . S
C2479 C2482 1.526 . S
C2480 H2464 0.959 . S
C2480 H2465 0.959 . S
C2480 H2466 0.961 . S
C2480 C2479 1.502 . S
C2481 H2467 0.960 . S
C2481 H2468 0.961 . S
C2481 H2469 0.959 . S
C2481 C2479 1.561 . S
C2482 C2479 1.526 . S
C2482 C2483 1.396 . S
C2482 C2487 1.390 . S
C2483 C2477 1.465 . S
C2483 C2482 1.396 . S
C2483 C2484 1.399 . S
C2484 H2470 0.929 . S
C2484 C2483 1.399 . S
C2484 C2485 1.385 . S
C2485 H2471 0.931 . S
C2485 C2484 1.385 . S
C2485 C2486 1.389 . S
C2486 C2485 1.389 . S
C2486 C2487 1.387 . S
C2487 H2472 0.930 . S
C2487 C2482 1.390 . S
C2487 C2486 1.387 . S
H2488 C2500 0.930 . S
H2489 C2502 0.930 . S
H2490 C2503 0.930 . S
H2491 C2507 0.959 . S
H2492 C2507 0.959 . S
H2493 C2507 0.961 . S
H2494 C2508 0.960 . S
H2495 C2508 0.961 . S
H2496 C2508 0.959 . S
H2497 C2511 0.929 . S
H2498 C2512 0.931 . S
H2499 C2514 0.930 . S
C2500 H2488 0.930 . S
C2500 C2501 1.399 . S
C2500 C2505 1.399 . S
C2501 C2500 1.399 . S
C2501 C2502 1.376 . S
C2502 H2489 0.930 . S
C2502 C2501 1.376 . S
C2502 C2503 1.388 . S
C2503 H2490 0.930 . S
C2503 C2502 1.388 . S
C2503 C2504 1.390 . S
C2504 C2503 1.390 . S
C2504 C2505 1.394 . S
C2504 C2510 1.465 . S
C2505 C2500 1.399 . S
C2505 C2504 1.394 . S
C2505 C2506 1.516 . S
C2506 C2505 1.516 . S
C2506 C2507 1.502 . S
C2506 C2508 1.561 . S
C2506 C2509 1.526 . S
C2507 H2491 0.959 . S
C2507 H2492 0.959 . S
C2507 H2493 0.961 . S
C2507 C2506 1.502 . S
C2508 H2494 0.960 . S
C2508 H2495 0.961 . S
C2508 H2496 0.959 . S
C2508 C2506 1.561 . S
C2509 C2506 1.526 . S
C2509 C2510 1.396 . S
C2509 C2514 1.390 . S
C2510 C2504 1.465 . S
C2510 C2509 1.396 . S
C2510 C2511 1.399 . S
C2511 H2497 0.929 . S
C2511 C2510 1.399 . S
C2511 C2512 1.385 . S
C2512 H2498 0.931 . S
C2512 C2511 1.385 . S
C2512 C2513 1.389 . S
C2513 C2512 1.389 . S
C2513 C2514 1.387 . S
C2514 H2499 0.930 . S
C2514 C2509 1.390 . S
C2514 C2513 1.387 . S
H2515 C2527 0.930 . S
H2516 C2529 0.930 . S
H2517 C2530 0.930 . S
H2518 C2534 0.959 . S
H2519 C2534 0.959 . S
H2520 C2534 0.961 . S
H2521 C2535 0.960 . S
H2522 C2535 0.961 . S
H2523 C2535 0.959 . S
H2524 C2538 0.929 . S
H2525 C2539 0.931 . S
H2526 C2541 0.930 . S
C2527 H2515 0.930 . S
C2527 C2528 1.399 . S
C2527 C2532 1.399 . S
C2528 C2527 1.399 . S
C2528 C2529 1.376 . S
C2529 H2516 0.930 . S
C2529 C2528 1.376 . S
C2529 C2530 1.388 . S
C2530 H2517 0.930 . S
C2530 C2529 1.388 . S
C2530 C2531 1.390 . S
C2531 C2530 1.390 . S
C2531 C2532 1.394 . S
C2531 C2537 1.465 . S
C2532 C2527 1.399 . S
C2532 C2531 1.394 . S
C2532 C2533 1.516 . S
C2533 C2532 1.516 . S
C2533 C2534 1.502 . S
C2533 C2535 1.561 . S
C2533 C2536 1.526 . S
C2534 H2518 0.959 . S
C2534 H2519 0.959 . S
C2534 H2520 0.961 . S
C2534 C2533 1.502 . S
C2535 H2521 0.960 . S
C2535 H2522 0.961 . S
C2535 H2523 0.959 . S
C2535 C2533 1.561 . S
C2536 C2533 1.526 . S
C2536 C2537 1.396 . S
C2536 C2541 1.390 . S
C2537 C2531 1.465 . S
C2537 C2536 1.396 . S
C2537 C2538 1.399 . S
C2538 H2524 0.929 . S
C2538 C2537 1.399 . S
C2538 C2539 1.385 . S
C2539 H2525 0.931 . S
C2539 C2538 1.385 . S
C2539 C2540 1.389 . S
C2540 C2539 1.389 . S
C2540 C2541 1.387 . S
C2541 H2526 0.930 . S
C2541 C2536 1.390 . S
C2541 C2540 1.387 . S
H2542 C2554 0.930 . S
H2543 C2556 0.930 . S
H2544 C2557 0.930 . S
H2545 C2561 0.959 . S
H2546 C2561 0.959 . S
H2547 C2561 0.961 . S
H2548 C2562 0.960 . S
H2549 C2562 0.961 . S
H2550 C2562 0.959 . S
H2551 C2565 0.929 . S
H2552 C2566 0.931 . S
H2553 C2568 0.930 . S
C2554 H2542 0.930 . S
C2554 C2555 1.399 . S
C2554 C2559 1.399 . S
C2555 C2554 1.399 . S
C2555 C2556 1.376 . S
C2556 H2543 0.930 . S
C2556 C2555 1.376 . S
C2556 C2557 1.388 . S
C2557 H2544 0.930 . S
C2557 C2556 1.388 . S
C2557 C2558 1.390 . S
C2558 C2557 1.390 . S
C2558 C2559 1.394 . S
C2558 C2564 1.465 . S
C2559 C2554 1.399 . S
C2559 C2558 1.394 . S
C2559 C2560 1.516 . S
C2560 C2559 1.516 . S
C2560 C2561 1.502 . S
C2560 C2562 1.561 . S
C2560 C2563 1.526 . S
C2561 H2545 0.959 . S
C2561 H2546 0.959 . S
C2561 H2547 0.961 . S
C2561 C2560 1.502 . S
C2562 H2548 0.960 . S
C2562 H2549 0.961 . S
C2562 H2550 0.959 . S
C2562 C2560 1.561 . S
C2563 C2560 1.526 . S
C2563 C2564 1.396 . S
C2563 C2568 1.390 . S
C2564 C2558 1.465 . S
C2564 C2563 1.396 . S
C2564 C2565 1.399 . S
C2565 H2551 0.929 . S
C2565 C2564 1.399 . S
C2565 C2566 1.385 . S
C2566 H2552 0.931 . S
C2566 C2565 1.385 . S
C2566 C2567 1.389 . S
C2567 C2566 1.389 . S
C2567 C2568 1.387 . S
C2568 H2553 0.930 . S
C2568 C2563 1.390 . S
C2568 C2567 1.387 . S
H2569 C2581 0.930 . S
H2570 C2583 0.930 . S
H2571 C2584 0.930 . S
H2572 C2588 0.959 . S
H2573 C2588 0.959 . S
H2574 C2588 0.961 . S
H2575 C2589 0.960 . S
H2576 C2589 0.961 . S
H2577 C2589 0.959 . S
H2578 C2592 0.929 . S
H2579 C2593 0.931 . S
H2580 C2595 0.930 . S
C2581 H2569 0.930 . S
C2581 C2582 1.399 . S
C2581 C2586 1.399 . S
C2582 C2581 1.399 . S
C2582 C2583 1.376 . S
C2583 H2570 0.930 . S
C2583 C2582 1.376 . S
C2583 C2584 1.388 . S
C2584 H2571 0.930 . S
C2584 C2583 1.388 . S
C2584 C2585 1.390 . S
C2585 C2584 1.390 . S
C2585 C2586 1.394 . S
C2585 C2591 1.465 . S
C2586 C2581 1.399 . S
C2586 C2585 1.394 . S
C2586 C2587 1.516 . S
C2587 C2586 1.516 . S
C2587 C2588 1.502 . S
C2587 C2589 1.561 . S
C2587 C2590 1.526 . S
C2588 H2572 0.959 . S
C2588 H2573 0.959 . S
C2588 H2574 0.961 . S
C2588 C2587 1.502 . S
C2589 H2575 0.960 . S
C2589 H2576 0.961 . S
C2589 H2577 0.959 . S
C2589 C2587 1.561 . S
C2590 C2587 1.526 . S
C2590 C2591 1.396 . S
C2590 C2595 1.390 . S
C2591 C2585 1.465 . S
C2591 C2590 1.396 . S
C2591 C2592 1.399 . S
C2592 H2578 0.929 . S
C2592 C2591 1.399 . S
C2592 C2593 1.385 . S
C2593 H2579 0.931 . S
C2593 C2592 1.385 . S
C2593 C2594 1.389 . S
C2594 C2593 1.389 . S
C2594 C2595 1.387 . S
C2595 H2580 0.930 . S
C2595 C2590 1.390 . S
C2595 C2594 1.387 . S
H2596 C2608 0.930 . S
H2597 C2610 0.930 . S
H2598 C2611 0.930 . S
H2599 C2615 0.959 . S
H2600 C2615 0.959 . S
H2601 C2615 0.961 . S
H2602 C2616 0.960 . S
H2603 C2616 0.961 . S
H2604 C2616 0.959 . S
H2605 C2619 0.929 . S
H2606 C2620 0.931 . S
H2607 C2622 0.930 . S
C2608 H2596 0.930 . S
C2608 C2609 1.399 . S
C2608 C2613 1.399 . S
C2609 C2608 1.399 . S
C2609 C2610 1.376 . S
C2610 H2597 0.930 . S
C2610 C2609 1.376 . S
C2610 C2611 1.388 . S
C2611 H2598 0.930 . S
C2611 C2610 1.388 . S
C2611 C2612 1.390 . S
C2612 C2611 1.390 . S
C2612 C2613 1.394 . S
C2612 C2618 1.465 . S
C2613 C2608 1.399 . S
C2613 C2612 1.394 . S
C2613 C2614 1.516 . S
C2614 C2613 1.516 . S
C2614 C2615 1.502 . S
C2614 C2616 1.561 . S
C2614 C2617 1.526 . S
C2615 H2599 0.959 . S
C2615 H2600 0.959 . S
C2615 H2601 0.961 . S
C2615 C2614 1.502 . S
C2616 H2602 0.960 . S
C2616 H2603 0.961 . S
C2616 H2604 0.959 . S
C2616 C2614 1.561 . S
C2617 C2614 1.526 . S
C2617 C2618 1.396 . S
C2617 C2622 1.390 . S
C2618 C2612 1.465 . S
C2618 C2617 1.396 . S
C2618 C2619 1.399 . S
C2619 H2605 0.929 . S
C2619 C2618 1.399 . S
C2619 C2620 1.385 . S
C2620 H2606 0.931 . S
C2620 C2619 1.385 . S
C2620 C2621 1.389 . S
C2621 C2620 1.389 . S
C2621 C2622 1.387 . S
C2622 H2607 0.930 . S
C2622 C2617 1.390 . S
C2622 C2621 1.387 . S
H2623 C2635 0.930 . S
H2624 C2637 0.930 . S
H2625 C2638 0.930 . S
H2626 C2642 0.959 . S
H2627 C2642 0.959 . S
H2628 C2642 0.961 . S
H2629 C2643 0.960 . S
H2630 C2643 0.961 . S
H2631 C2643 0.959 . S
H2632 C2646 0.929 . S
H2633 C2647 0.931 . S
H2634 C2649 0.930 . S
C2635 H2623 0.930 . S
C2635 C2636 1.399 . S
C2635 C2640 1.399 . S
C2636 C2635 1.399 . S
C2636 C2637 1.376 . S
C2637 H2624 0.930 . S
C2637 C2636 1.376 . S
C2637 C2638 1.388 . S
C2638 H2625 0.930 . S
C2638 C2637 1.388 . S
C2638 C2639 1.390 . S
C2639 C2638 1.390 . S
C2639 C2640 1.394 . S
C2639 C2645 1.465 . S
C2640 C2635 1.399 . S
C2640 C2639 1.394 . S
C2640 C2641 1.516 . S
C2641 C2640 1.516 . S
C2641 C2642 1.502 . S
C2641 C2643 1.561 . S
C2641 C2644 1.526 . S
C2642 H2626 0.959 . S
C2642 H2627 0.959 . S
C2642 H2628 0.961 . S
C2642 C2641 1.502 . S
C2643 H2629 0.960 . S
C2643 H2630 0.961 . S
C2643 H2631 0.959 . S
C2643 C2641 1.561 . S
C2644 C2641 1.526 . S
C2644 C2645 1.396 . S
C2644 C2649 1.390 . S
C2645 C2639 1.465 . S
C2645 C2644 1.396 . S
C2645 C2646 1.399 . S
C2646 H2632 0.929 . S
C2646 C2645 1.399 . S
C2646 C2647 1.385 . S
C2647 H2633 0.931 . S
C2647 C2646 1.385 . S
C2647 C2648 1.389 . S
C2648 C2647 1.389 . S
C2648 C2649 1.387 . S
C2649 H2634 0.930 . S
C2649 C2644 1.390 . S
C2649 C2648 1.387 . S
H2650 C2662 0.930 . S
H2651 C2664 0.930 . S
H2652 C2665 0.930 . S
H2653 C2669 0.959 . S
H2654 C2669 0.959 . S
H2655 C2669 0.961 . S
H2656 C2670 0.960 . S
H2657 C2670 0.961 . S
H2658 C2670 0.959 . S
H2659 C2673 0.929 . S
H2660 C2674 0.931 . S
H2661 C2676 0.930 . S
C2662 H2650 0.930 . S
C2662 C2663 1.399 . S
C2662 C2667 1.399 . S
C2663 C2662 1.399 . S
C2663 C2664 1.376 . S
C2664 H2651 0.930 . S
C2664 C2663 1.376 . S
C2664 C2665 1.388 . S
C2665 H2652 0.930 . S
C2665 C2664 1.388 . S
C2665 C2666 1.390 . S
C2666 C2665 1.390 . S
C2666 C2667 1.394 . S
C2666 C2672 1.465 . S
C2667 C2662 1.399 . S
C2667 C2666 1.394 . S
C2667 C2668 1.516 . S
C2668 C2667 1.516 . S
C2668 C2669 1.502 . S
C2668 C2670 1.561 . S
C2668 C2671 1.526 . S
C2669 H2653 0.959 . S
C2669 H2654 0.959 . S
C2669 H2655 0.961 . S
C2669 C2668 1.502 . S
C2670 H2656 0.960 . S
C2670 H2657 0.961 . S
C2670 H2658 0.959 . S
C2670 C2668 1.561 . S
C2671 C2668 1.526 . S
C2671 C2672 1.396 . S
C2671 C2676 1.390 . S
C2672 C2666 1.465 . S
C2672 C2671 1.396 . S
C2672 C2673 1.399 . S
C2673 H2659 0.929 . S
C2673 C2672 1.399 . S
C2673 C2674 1.385 . S
C2674 H2660 0.931 . S
C2674 C2673 1.385 . S
C2674 C2675 1.389 . S
C2675 C2674 1.389 . S
C2675 C2676 1.387 . S
C2676 H2661 0.930 . S
C2676 C2671 1.390 . S
C2676 C2675 1.387 . S
H2677 C2689 0.930 . S
H2678 C2691 0.930 . S
H2679 C2692 0.930 . S
H2680 C2696 0.959 . S
H2681 C2696 0.959 . S
H2682 C2696 0.961 . S
H2683 C2697 0.960 . S
H2684 C2697 0.961 . S
H2685 C2697 0.959 . S
H2686 C2700 0.929 . S
H2687 C2701 0.931 . S
H2688 C2703 0.930 . S
C2689 H2677 0.930 . S
C2689 C2690 1.399 . S
C2689 C2694 1.399 . S
C2690 C2689 1.399 . S
C2690 C2691 1.376 . S
C2691 H2678 0.930 . S
C2691 C2690 1.376 . S
C2691 C2692 1.388 . S
C2692 H2679 0.930 . S
C2692 C2691 1.388 . S
C2692 C2693 1.390 . S
C2693 C2692 1.390 . S
C2693 C2694 1.394 . S
C2693 C2699 1.465 . S
C2694 C2689 1.399 . S
C2694 C2693 1.394 . S
C2694 C2695 1.516 . S
C2695 C2694 1.516 . S
C2695 C2696 1.502 . S
C2695 C2697 1.561 . S
C2695 C2698 1.526 . S
C2696 H2680 0.959 . S
C2696 H2681 0.959 . S
C2696 H2682 0.961 . S
C2696 C2695 1.502 . S
C2697 H2683 0.960 . S
C2697 H2684 0.961 . S
C2697 H2685 0.959 . S
C2697 C2695 1.561 . S
C2698 C2695 1.526 . S
C2698 C2699 1.396 . S
C2698 C2703 1.390 . S
C2699 C2693 1.465 . S
C2699 C2698 1.396 . S
C2699 C2700 1.399 . S
C2700 H2686 0.929 . S
C2700 C2699 1.399 . S
C2700 C2701 1.385 . S
C2701 H2687 0.931 . S
C2701 C2700 1.385 . S
C2701 C2702 1.389 . S
C2702 C2701 1.389 . S
C2702 C2703 1.387 . S
C2703 H2688 0.930 . S
C2703 C2698 1.390 . S
C2703 C2702 1.387 . S
H2704 C2716 0.930 . S
H2705 C2718 0.930 . S
H2706 C2719 0.930 . S
H2707 C2723 0.959 . S
H2708 C2723 0.959 . S
H2709 C2723 0.961 . S
H2710 C2724 0.960 . S
H2711 C2724 0.961 . S
H2712 C2724 0.959 . S
H2713 C2727 0.929 . S
H2714 C2728 0.931 . S
H2715 C2730 0.930 . S
C2716 H2704 0.930 . S
C2716 C2717 1.399 . S
C2716 C2721 1.399 . S
C2717 C2716 1.399 . S
C2717 C2718 1.376 . S
C2718 H2705 0.930 . S
C2718 C2717 1.376 . S
C2718 C2719 1.388 . S
C2719 H2706 0.930 . S
C2719 C2718 1.388 . S
C2719 C2720 1.390 . S
C2720 C2719 1.390 . S
C2720 C2721 1.394 . S
C2720 C2726 1.465 . S
C2721 C2716 1.399 . S
C2721 C2720 1.394 . S
C2721 C2722 1.516 . S
C2722 C2721 1.516 . S
C2722 C2723 1.502 . S
C2722 C2724 1.561 . S
C2722 C2725 1.526 . S
C2723 H2707 0.959 . S
C2723 H2708 0.959 . S
C2723 H2709 0.961 . S
C2723 C2722 1.502 . S
C2724 H2710 0.960 . S
C2724 H2711 0.961 . S
C2724 H2712 0.959 . S
C2724 C2722 1.561 . S
C2725 C2722 1.526 . S
C2725 C2726 1.396 . S
C2725 C2730 1.390 . S
C2726 C2720 1.465 . S
C2726 C2725 1.396 . S
C2726 C2727 1.399 . S
C2727 H2713 0.929 . S
C2727 C2726 1.399 . S
C2727 C2728 1.385 . S
C2728 H2714 0.931 . S
C2728 C2727 1.385 . S
C2728 C2729 1.389 . S
C2729 C2728 1.389 . S
C2729 C2730 1.387 . S
C2730 H2715 0.930 . S
C2730 C2725 1.390 . S
C2730 C2729 1.387 . S
H2731 C2743 0.930 . S
H2732 C2745 0.930 . S
H2733 C2746 0.930 . S
H2734 C2750 0.959 . S
H2735 C2750 0.959 . S
H2736 C2750 0.961 . S
H2737 C2751 0.960 . S
H2738 C2751 0.961 . S
H2739 C2751 0.959 . S
H2740 C2754 0.929 . S
H2741 C2755 0.931 . S
H2742 C2757 0.930 . S
C2743 H2731 0.930 . S
C2743 C2744 1.399 . S
C2743 C2748 1.399 . S
C2744 C2743 1.399 . S
C2744 C2745 1.376 . S
C2745 H2732 0.930 . S
C2745 C2744 1.376 . S
C2745 C2746 1.388 . S
C2746 H2733 0.930 . S
C2746 C2745 1.388 . S
C2746 C2747 1.390 . S
C2747 C2746 1.390 . S
C2747 C2748 1.394 . S
C2747 C2753 1.465 . S
C2748 C2743 1.399 . S
C2748 C2747 1.394 . S
C2748 C2749 1.516 . S
C2749 C2748 1.516 . S
C2749 C2750 1.502 . S
C2749 C2751 1.561 . S
C2749 C2752 1.526 . S
C2750 H2734 0.959 . S
C2750 H2735 0.959 . S
C2750 H2736 0.961 . S
C2750 C2749 1.502 . S
C2751 H2737 0.960 . S
C2751 H2738 0.961 . S
C2751 H2739 0.959 . S
C2751 C2749 1.561 . S
C2752 C2749 1.526 . S
C2752 C2753 1.396 . S
C2752 C2757 1.390 . S
C2753 C2747 1.465 . S
C2753 C2752 1.396 . S
C2753 C2754 1.399 . S
C2754 H2740 0.929 . S
C2754 C2753 1.399 . S
C2754 C2755 1.385 . S
C2755 H2741 0.931 . S
C2755 C2754 1.385 . S
C2755 C2756 1.389 . S
C2756 C2755 1.389 . S
C2756 C2757 1.387 . S
C2757 H2742 0.930 . S
C2757 C2752 1.390 . S
C2757 C2756 1.387 . S
H2758 C2770 0.930 . S
H2759 C2772 0.930 . S
H2760 C2773 0.930 . S
H2761 C2777 0.959 . S
H2762 C2777 0.959 . S
H2763 C2777 0.961 . S
H2764 C2778 0.960 . S
H2765 C2778 0.961 . S
H2766 C2778 0.959 . S
H2767 C2781 0.929 . S
H2768 C2782 0.931 . S
H2769 C2784 0.930 . S
C2770 H2758 0.930 . S
C2770 C2771 1.399 . S
C2770 C2775 1.399 . S
C2771 C2770 1.399 . S
C2771 C2772 1.376 . S
C2772 H2759 0.930 . S
C2772 C2771 1.376 . S
C2772 C2773 1.388 . S
C2773 H2760 0.930 . S
C2773 C2772 1.388 . S
C2773 C2774 1.390 . S
C2774 C2773 1.390 . S
C2774 C2775 1.394 . S
C2774 C2780 1.465 . S
C2775 C2770 1.399 . S
C2775 C2774 1.394 . S
C2775 C2776 1.516 . S
C2776 C2775 1.516 . S
C2776 C2777 1.502 . S
C2776 C2778 1.561 . S
C2776 C2779 1.526 . S
C2777 H2761 0.959 . S
C2777 H2762 0.959 . S
C2777 H2763 0.961 . S
C2777 C2776 1.502 . S
C2778 H2764 0.960 . S
C2778 H2765 0.961 . S
C2778 H2766 0.959 . S
C2778 C2776 1.561 . S
C2779 C2776 1.526 . S
C2779 C2780 1.396 . S
C2779 C2784 1.390 . S
C2780 C2774 1.465 . S
C2780 C2779 1.396 . S
C2780 C2781 1.399 . S
C2781 H2767 0.929 . S
C2781 C2780 1.399 . S
C2781 C2782 1.385 . S
C2782 H2768 0.931 . S
C2782 C2781 1.385 . S
C2782 C2783 1.389 . S
C2783 C2782 1.389 . S
C2783 C2784 1.387 . S
C2784 H2769 0.930 . S
C2784 C2779 1.390 . S
C2784 C2783 1.387 . S
H2785 C2797 0.930 1_556 S
H2786 C2799 0.930 . S
H2787 C2800 0.892 1_545 S
H2788 C2804 0.959 . S
H2789 C2804 0.959 1_556 S
H2790 C2804 0.961 1_556 S
H2791 C2805 0.960 . S
H2792 C2805 0.961 . S
H2793 C2805 0.959 . S
H2794 C2808 0.929 . S
H2795 C2809 0.931 . S
H2796 C2811 0.930 . S
C2797 H2785 0.930 1_554 S
C2797 C2798 1.399 . S
C2797 C2802 1.399 . S
C2798 C2797 1.399 . S
C2798 C2799 1.376 . S
C2799 H2786 0.930 . S
C2799 C2798 1.376 . S
C2799 C2800 1.388 . S
C2800 H2787 0.892 1_565 S
C2800 C2799 1.388 . S
C2800 C2801 1.390 . S
C2801 C2800 1.390 . S
C2801 C2802 1.394 . S
C2801 C2807 1.465 . S
C2802 C2797 1.399 . S
C2802 C2801 1.394 . S
C2802 C2803 1.501 1_554 S
C2803 C2802 1.501 1_556 S
C2803 C2804 1.491 1_556 S
C2803 C2805 1.600 . S
C2803 C2806 1.516 1_556 S
C2804 H2788 0.959 . S
C2804 H2789 0.959 1_554 S
C2804 H2790 0.961 1_554 S
C2804 C2803 1.491 1_554 S
C2805 H2791 0.960 . S
C2805 H2792 0.961 . S
C2805 H2793 0.959 . S
C2805 C2803 1.600 . S
C2806 C2803 1.516 1_554 S
C2806 C2807 1.396 . S
C2806 C2811 1.390 . S
C2807 C2801 1.465 . S
C2807 C2806 1.396 . S
C2807 C2808 1.399 1_565 S
C2808 H2794 0.929 . S
C2808 C2807 1.399 1_545 S
C2808 C2809 1.385 . S
C2809 H2795 0.931 . S
C2809 C2808 1.385 . S
C2809 C2810 1.389 . S
C2810 C2809 1.389 . S
C2810 C2811 1.387 1_545 S
C2811 H2796 0.930 . S
C2811 C2806 1.390 . S
C2811 C2810 1.387 1_565 S
H2812 C2824 0.930 . S
H2813 C2826 0.930 . S
H2814 C2827 0.930 . S
H2815 C2831 0.959 . S
H2816 C2831 0.959 . S
H2817 C2831 0.961 . S
H2818 C2832 0.960 . S
H2819 C2832 0.961 . S
H2820 C2832 0.959 . S
H2821 C2835 0.929 . S
H2822 C2836 0.931 . S
H2823 C2838 0.930 . S
C2824 H2812 0.930 . S
C2824 C2825 1.399 . S
C2824 C2829 1.399 . S
C2825 C2824 1.399 . S
C2825 C2826 1.376 . S
C2826 H2813 0.930 . S
C2826 C2825 1.376 . S
C2826 C2827 1.388 . S
C2827 H2814 0.930 . S
C2827 C2826 1.388 . S
C2827 C2828 1.390 . S
C2828 C2827 1.390 . S
C2828 C2829 1.394 . S
C2828 C2834 1.465 . S
C2829 C2824 1.399 . S
C2829 C2828 1.394 . S
C2829 C2830 1.516 . S
C2830 C2829 1.516 . S
C2830 C2831 1.502 . S
C2830 C2832 1.561 . S
C2830 C2833 1.526 . S
C2831 H2815 0.959 . S
C2831 H2816 0.959 . S
C2831 H2817 0.961 . S
C2831 C2830 1.502 . S
C2832 H2818 0.960 . S
C2832 H2819 0.961 . S
C2832 H2820 0.959 . S
C2832 C2830 1.561 . S
C2833 C2830 1.526 . S
C2833 C2834 1.396 . S
C2833 C2838 1.390 . S
C2834 C2828 1.465 . S
C2834 C2833 1.396 . S
C2834 C2835 1.399 . S
C2835 H2821 0.929 . S
C2835 C2834 1.399 . S
C2835 C2836 1.385 . S
C2836 H2822 0.931 . S
C2836 C2835 1.385 . S
C2836 C2837 1.389 . S
C2837 C2836 1.389 . S
C2837 C2838 1.387 . S
C2838 H2823 0.930 . S
C2838 C2833 1.390 . S
C2838 C2837 1.387 . S
H2839 C2851 0.930 . S
H2840 C2853 0.930 . S
H2841 C2854 0.930 . S
H2842 C2858 0.959 . S
H2843 C2858 0.959 . S
H2844 C2858 0.961 . S
H2845 C2859 0.960 . S
H2846 C2859 0.961 . S
H2847 C2859 0.959 . S
H2848 C2862 0.929 . S
H2849 C2863 0.931 . S
H2850 C2865 0.930 . S
C2851 H2839 0.930 . S
C2851 C2852 1.399 . S
C2851 C2856 1.399 . S
C2852 C2851 1.399 . S
C2852 C2853 1.376 . S
C2853 H2840 0.930 . S
C2853 C2852 1.376 . S
C2853 C2854 1.388 . S
C2854 H2841 0.930 . S
C2854 C2853 1.388 . S
C2854 C2855 1.390 . S
C2855 C2854 1.390 . S
C2855 C2856 1.394 . S
C2855 C2861 1.465 . S
C2856 C2851 1.399 . S
C2856 C2855 1.394 . S
C2856 C2857 1.516 . S
C2857 C2856 1.516 . S
C2857 C2858 1.502 . S
C2857 C2859 1.561 . S
C2857 C2860 1.526 . S
C2858 H2842 0.959 . S
C2858 H2843 0.959 . S
C2858 H2844 0.961 . S
C2858 C2857 1.502 . S
C2859 H2845 0.960 . S
C2859 H2846 0.961 . S
C2859 H2847 0.959 . S
C2859 C2857 1.561 . S
C2860 C2857 1.526 . S
C2860 C2861 1.396 . S
C2860 C2865 1.390 . S
C2861 C2855 1.465 . S
C2861 C2860 1.396 . S
C2861 C2862 1.399 . S
C2862 H2848 0.929 . S
C2862 C2861 1.399 . S
C2862 C2863 1.385 . S
C2863 H2849 0.931 . S
C2863 C2862 1.385 . S
C2863 C2864 1.389 . S
C2864 C2863 1.389 . S
C2864 C2865 1.387 . S
C2865 H2850 0.930 . S
C2865 C2860 1.390 . S
C2865 C2864 1.387 . S
H2866 C2878 0.930 . S
H2867 C2880 0.930 . S
H2868 C2881 0.930 . S
H2869 C2885 0.959 . S
H2870 C2885 0.959 . S
H2871 C2885 0.961 . S
H2872 C2886 0.960 . S
H2873 C2886 0.961 . S
H2874 C2886 0.959 . S
H2875 C2889 0.929 . S
H2876 C2890 0.931 . S
H2877 C2892 0.930 . S
C2878 H2866 0.930 . S
C2878 C2879 1.399 . S
C2878 C2883 1.399 . S
C2879 C2878 1.399 . S
C2879 C2880 1.376 . S
C2880 H2867 0.930 . S
C2880 C2879 1.376 . S
C2880 C2881 1.388 . S
C2881 H2868 0.930 . S
C2881 C2880 1.388 . S
C2881 C2882 1.390 . S
C2882 C2881 1.390 . S
C2882 C2883 1.394 . S
C2882 C2888 1.465 . S
C2883 C2878 1.399 . S
C2883 C2882 1.394 . S
C2883 C2884 1.516 . S
C2884 C2883 1.516 . S
C2884 C2885 1.502 . S
C2884 C2886 1.561 . S
C2884 C2887 1.526 . S
C2885 H2869 0.959 . S
C2885 H2870 0.959 . S
C2885 H2871 0.961 . S
C2885 C2884 1.502 . S
C2886 H2872 0.960 . S
C2886 H2873 0.961 . S
C2886 H2874 0.959 . S
C2886 C2884 1.561 . S
C2887 C2884 1.526 . S
C2887 C2888 1.396 . S
C2887 C2892 1.390 . S
C2888 C2882 1.465 . S
C2888 C2887 1.396 . S
C2888 C2889 1.399 . S
C2889 H2875 0.929 . S
C2889 C2888 1.399 . S
C2889 C2890 1.385 . S
C2890 H2876 0.931 . S
C2890 C2889 1.385 . S
C2890 C2891 1.389 . S
C2891 C2890 1.389 . S
C2891 C2892 1.387 . S
C2892 H2877 0.930 . S
C2892 C2887 1.390 . S
C2892 C2891 1.387 . S
H2893 C2905 0.930 . S
H2894 C2907 0.930 . S
H2895 C2908 0.930 . S
H2896 C2912 0.959 . S
H2897 C2912 0.959 . S
H2898 C2912 0.961 . S
H2899 C2913 0.960 . S
H2900 C2913 0.961 . S
H2901 C2913 0.959 . S
H2902 C2916 0.929 . S
H2903 C2917 0.931 . S
H2904 C2919 0.930 . S
C2905 H2893 0.930 . S
C2905 C2906 1.399 . S
C2905 C2910 1.399 . S
C2906 C2905 1.399 . S
C2906 C2907 1.376 . S
C2907 H2894 0.930 . S
C2907 C2906 1.376 . S
C2907 C2908 1.388 . S
C2908 H2895 0.930 . S
C2908 C2907 1.388 . S
C2908 C2909 1.390 . S
C2909 C2908 1.390 . S
C2909 C2910 1.394 . S
C2909 C2915 1.465 . S
C2910 C2905 1.399 . S
C2910 C2909 1.394 . S
C2910 C2911 1.516 . S
C2911 C2910 1.516 . S
C2911 C2912 1.502 . S
C2911 C2913 1.561 . S
C2911 C2914 1.526 . S
C2912 H2896 0.959 . S
C2912 H2897 0.959 . S
C2912 H2898 0.961 . S
C2912 C2911 1.502 . S
C2913 H2899 0.960 . S
C2913 H2900 0.961 . S
C2913 H2901 0.959 . S
C2913 C2911 1.561 . S
C2914 C2911 1.526 . S
C2914 C2915 1.396 . S
C2914 C2919 1.390 . S
C2915 C2909 1.465 . S
C2915 C2914 1.396 . S
C2915 C2916 1.399 . S
C2916 H2902 0.929 . S
C2916 C2915 1.399 . S
C2916 C2917 1.385 . S
C2917 H2903 0.931 . S
C2917 C2916 1.385 . S
C2917 C2918 1.389 . S
C2918 C2917 1.389 . S
C2918 C2919 1.387 . S
C2919 H2904 0.930 . S
C2919 C2914 1.390 . S
C2919 C2918 1.387 . S
H2920 C2932 0.930 . S
H2921 C2934 0.930 . S
H2922 C2935 0.930 . S
H2923 C2939 0.959 . S
H2924 C2939 0.959 . S
H2925 C2939 0.961 . S
H2926 C2940 0.960 . S
H2927 C2940 0.961 . S
H2928 C2940 0.959 . S
H2929 C2943 0.929 . S
H2930 C2944 0.931 . S
H2931 C2946 0.930 . S
C2932 H2920 0.930 . S
C2932 C2933 1.399 . S
C2932 C2937 1.399 . S
C2933 C2932 1.399 . S
C2933 C2934 1.376 . S
C2934 H2921 0.930 . S
C2934 C2933 1.376 . S
C2934 C2935 1.388 . S
C2935 H2922 0.930 . S
C2935 C2934 1.388 . S
C2935 C2936 1.390 . S
C2936 C2935 1.390 . S
C2936 C2937 1.394 . S
C2936 C2942 1.465 . S
C2937 C2932 1.399 . S
C2937 C2936 1.394 . S
C2937 C2938 1.516 . S
C2938 C2937 1.516 . S
C2938 C2939 1.502 . S
C2938 C2940 1.561 . S
C2938 C2941 1.526 . S
C2939 H2923 0.959 . S
C2939 H2924 0.959 . S
C2939 H2925 0.961 . S
C2939 C2938 1.502 . S
C2940 H2926 0.960 . S
C2940 H2927 0.961 . S
C2940 H2928 0.959 . S
C2940 C2938 1.561 . S
C2941 C2938 1.526 . S
C2941 C2942 1.396 . S
C2941 C2946 1.390 . S
C2942 C2936 1.465 . S
C2942 C2941 1.396 . S
C2942 C2943 1.399 . S
C2943 H2929 0.929 . S
C2943 C2942 1.399 . S
C2943 C2944 1.385 . S
C2944 H2930 0.931 . S
C2944 C2943 1.385 . S
C2944 C2945 1.389 . S
C2945 C2944 1.389 . S
C2945 C2946 1.387 . S
C2946 H2931 0.930 . S
C2946 C2941 1.390 . S
C2946 C2945 1.387 . S
H2947 C2959 0.930 . S
H2948 C2961 0.930 . S
H2949 C2962 0.930 . S
H2950 C2966 0.959 . S
H2951 C2966 0.959 . S
H2952 C2966 0.961 . S
H2953 C2967 0.960 . S
H2954 C2967 0.961 . S
H2955 C2967 0.959 . S
H2956 C2970 0.929 . S
H2957 C2971 0.931 . S
H2958 C2973 0.930 . S
C2959 H2947 0.930 . S
C2959 C2960 1.399 . S
C2959 C2964 1.399 . S
C2960 C2959 1.399 . S
C2960 C2961 1.376 . S
C2961 H2948 0.930 . S
C2961 C2960 1.376 . S
C2961 C2962 1.388 . S
C2962 H2949 0.930 . S
C2962 C2961 1.388 . S
C2962 C2963 1.390 . S
C2963 C2962 1.390 . S
C2963 C2964 1.394 . S
C2963 C2969 1.465 . S
C2964 C2959 1.399 . S
C2964 C2963 1.394 . S
C2964 C2965 1.516 . S
C2965 C2964 1.516 . S
C2965 C2966 1.502 . S
C2965 C2967 1.561 . S
C2965 C2968 1.526 . S
C2966 H2950 0.959 . S
C2966 H2951 0.959 . S
C2966 H2952 0.961 . S
C2966 C2965 1.502 . S
C2967 H2953 0.960 . S
C2967 H2954 0.961 . S
C2967 H2955 0.959 . S
C2967 C2965 1.561 . S
C2968 C2965 1.526 . S
C2968 C2969 1.396 . S
C2968 C2973 1.390 . S
C2969 C2963 1.465 . S
C2969 C2968 1.396 . S
C2969 C2970 1.399 . S
C2970 H2956 0.929 . S
C2970 C2969 1.399 . S
C2970 C2971 1.385 . S
C2971 H2957 0.931 . S
C2971 C2970 1.385 . S
C2971 C2972 1.389 . S
C2972 C2971 1.389 . S
C2972 C2973 1.387 . S
C2973 H2958 0.930 . S
C2973 C2968 1.390 . S
C2973 C2972 1.387 . S
H2974 C2986 0.930 . S
H2975 C2988 0.930 . S
H2976 C2989 0.930 . S
H2977 C2993 0.959 . S
H2978 C2993 0.959 . S
H2979 C2993 0.961 . S
H2980 C2994 0.960 . S
H2981 C2994 0.961 . S
H2982 C2994 0.959 . S
H2983 C2997 0.929 . S
H2984 C2998 0.931 . S
H2985 C3000 0.930 . S
C2986 H2974 0.930 . S
C2986 C2987 1.399 . S
C2986 C2991 1.399 . S
C2987 C2986 1.399 . S
C2987 C2988 1.376 . S
C2988 H2975 0.930 . S
C2988 C2987 1.376 . S
C2988 C2989 1.388 . S
C2989 H2976 0.930 . S
C2989 C2988 1.388 . S
C2989 C2990 1.390 . S
C2990 C2989 1.390 . S
C2990 C2991 1.394 . S
C2990 C2996 1.465 . S
C2991 C2986 1.399 . S
C2991 C2990 1.394 . S
C2991 C2992 1.516 . S
C2992 C2991 1.516 . S
C2992 C2993 1.502 . S
C2992 C2994 1.561 . S
C2992 C2995 1.526 . S
C2993 H2977 0.959 . S
C2993 H2978 0.959 . S
C2993 H2979 0.961 . S
C2993 C2992 1.502 . S
C2994 H2980 0.960 . S
C2994 H2981 0.961 . S
C2994 H2982 0.959 . S
C2994 C2992 1.561 . S
C2995 C2992 1.526 . S
C2995 C2996 1.396 . S
C2995 C3000 1.390 . S
C2996 C2990 1.465 . S
C2996 C2995 1.396 . S
C2996 C2997 1.399 . S
C2997 H2983 0.929 . S
C2997 C2996 1.399 . S
C2997 C2998 1.385 . S
C2998 H2984 0.931 . S
C2998 C2997 1.385 . S
C2998 C2999 1.389 . S
C2999 C2998 1.389 . S
C2999 C3000 1.387 . S
C3000 H2985 0.930 . S
C3000 C2995 1.390 . S
C3000 C2999 1.387 . S
H3001 C3013 0.930 . S
H3002 C3015 0.930 . S
H3003 C3016 0.930 . S
H3004 C3020 0.959 . S
H3005 C3020 0.959 . S
H3006 C3020 0.961 . S
H3007 C3021 0.960 . S
H3008 C3021 0.961 . S
H3009 C3021 0.959 . S
H3010 C3024 0.929 . S
H3011 C3025 0.931 . S
H3012 C3027 0.930 . S
C3013 H3001 0.930 . S
C3013 C3014 1.399 . S
C3013 C3018 1.399 . S
C3014 C3013 1.399 . S
C3014 C3015 1.376 . S
C3015 H3002 0.930 . S
C3015 C3014 1.376 . S
C3015 C3016 1.388 . S
C3016 H3003 0.930 . S
C3016 C3015 1.388 . S
C3016 C3017 1.390 . S
C3017 C3016 1.390 . S
C3017 C3018 1.394 . S
C3017 C3023 1.465 . S
C3018 C3013 1.399 . S
C3018 C3017 1.394 . S
C3018 C3019 1.516 . S
C3019 C3018 1.516 . S
C3019 C3020 1.502 . S
C3019 C3021 1.561 . S
C3019 C3022 1.526 . S
C3020 H3004 0.959 . S
C3020 H3005 0.959 . S
C3020 H3006 0.961 . S
C3020 C3019 1.502 . S
C3021 H3007 0.960 . S
C3021 H3008 0.961 . S
C3021 H3009 0.959 . S
C3021 C3019 1.561 . S
C3022 C3019 1.526 . S
C3022 C3023 1.396 . S
C3022 C3027 1.390 . S
C3023 C3017 1.465 . S
C3023 C3022 1.396 . S
C3023 C3024 1.399 . S
C3024 H3010 0.929 . S
C3024 C3023 1.399 . S
C3024 C3025 1.385 . S
C3025 H3011 0.931 . S
C3025 C3024 1.385 . S
C3025 C3026 1.389 . S
C3026 C3025 1.389 . S
C3026 C3027 1.387 . S
C3027 H3012 0.930 . S
C3027 C3022 1.390 . S
C3027 C3026 1.387 . S
H3028 C3040 0.930 . S
H3029 C3042 0.930 . S
H3030 C3043 0.930 . S
H3031 C3047 0.959 . S
H3032 C3047 0.959 . S
H3033 C3047 0.961 . S
H3034 C3048 0.960 . S
H3035 C3048 0.961 . S
H3036 C3048 0.959 . S
H3037 C3051 0.929 . S
H3038 C3052 0.931 . S
H3039 C3054 0.930 . S
C3040 H3028 0.930 . S
C3040 C3041 1.399 . S
C3040 C3045 1.399 . S
C3041 C3040 1.399 . S
C3041 C3042 1.376 . S
C3042 H3029 0.930 . S
C3042 C3041 1.376 . S
C3042 C3043 1.388 . S
C3043 H3030 0.930 . S
C3043 C3042 1.388 . S
C3043 C3044 1.390 . S
C3044 C3043 1.390 . S
C3044 C3045 1.394 . S
C3044 C3050 1.465 . S
C3045 C3040 1.399 . S
C3045 C3044 1.394 . S
C3045 C3046 1.516 . S
C3046 C3045 1.516 . S
C3046 C3047 1.502 . S
C3046 C3048 1.561 . S
C3046 C3049 1.526 . S
C3047 H3031 0.959 . S
C3047 H3032 0.959 . S
C3047 H3033 0.961 . S
C3047 C3046 1.502 . S
C3048 H3034 0.960 . S
C3048 H3035 0.961 . S
C3048 H3036 0.959 . S
C3048 C3046 1.561 . S
C3049 C3046 1.526 . S
C3049 C3050 1.396 . S
C3049 C3054 1.390 . S
C3050 C3044 1.465 . S
C3050 C3049 1.396 . S
C3050 C3051 1.399 . S
C3051 H3037 0.929 . S
C3051 C3050 1.399 . S
C3051 C3052 1.385 . S
C3052 H3038 0.931 . S
C3052 C3051 1.385 . S
C3052 C3053 1.389 . S
C3053 C3052 1.389 . S
C3053 C3054 1.387 . S
C3054 H3039 0.930 . S
C3054 C3049 1.390 . S
C3054 C3053 1.387 . S
H3055 C3067 0.930 . S
H3056 C3069 0.930 . S
H3057 C3070 0.930 . S
H3058 C3074 0.959 . S
H3059 C3074 0.959 . S
H3060 C3074 0.961 . S
H3061 C3075 0.960 . S
H3062 C3075 0.961 . S
H3063 C3075 0.959 . S
H3064 C3078 0.929 . S
H3065 C3079 0.931 . S
H3066 C3081 0.930 . S
C3067 H3055 0.930 . S
C3067 C3068 1.399 . S
C3067 C3072 1.399 . S
C3068 C3067 1.399 . S
C3068 C3069 1.376 . S
C3069 H3056 0.930 . S
C3069 C3068 1.376 . S
C3069 C3070 1.388 . S
C3070 H3057 0.930 . S
C3070 C3069 1.388 . S
C3070 C3071 1.390 . S
C3071 C3070 1.390 . S
C3071 C3072 1.394 . S
C3071 C3077 1.465 . S
C3072 C3067 1.399 . S
C3072 C3071 1.394 . S
C3072 C3073 1.516 . S
C3073 C3072 1.516 . S
C3073 C3074 1.502 . S
C3073 C3075 1.561 . S
C3073 C3076 1.526 . S
C3074 H3058 0.959 . S
C3074 H3059 0.959 . S
C3074 H3060 0.961 . S
C3074 C3073 1.502 . S
C3075 H3061 0.960 . S
C3075 H3062 0.961 . S
C3075 H3063 0.959 . S
C3075 C3073 1.561 . S
C3076 C3073 1.526 . S
C3076 C3077 1.396 . S
C3076 C3081 1.390 . S
C3077 C3071 1.465 . S
C3077 C3076 1.396 . S
C3077 C3078 1.399 . S
C3078 H3064 0.929 . S
C3078 C3077 1.399 . S
C3078 C3079 1.385 . S
C3079 H3065 0.931 . S
C3079 C3078 1.385 . S
C3079 C3080 1.389 . S
C3080 C3079 1.389 . S
C3080 C3081 1.387 . S
C3081 H3066 0.930 . S
C3081 C3076 1.390 . S
C3081 C3080 1.387 . S
H3082 C3094 0.930 . S
H3083 C3096 0.930 . S
H3084 C3097 0.930 . S
H3085 C3101 0.959 . S
H3086 C3101 0.959 . S
H3087 C3101 0.961 . S
H3088 C3102 0.960 . S
H3089 C3102 0.961 . S
H3090 C3102 0.959 . S
H3091 C3105 0.929 . S
H3092 C3106 0.931 . S
H3093 C3108 0.930 . S
C3094 H3082 0.930 . S
C3094 C3095 1.399 . S
C3094 C3099 1.399 . S
C3095 C3094 1.399 . S
C3095 C3096 1.376 . S
C3096 H3083 0.930 . S
C3096 C3095 1.376 . S
C3096 C3097 1.388 . S
C3097 H3084 0.930 . S
C3097 C3096 1.388 . S
C3097 C3098 1.390 . S
C3098 C3097 1.390 . S
C3098 C3099 1.394 . S
C3098 C3104 1.465 . S
C3099 C3094 1.399 . S
C3099 C3098 1.394 . S
C3099 C3100 1.516 . S
C3100 C3099 1.516 . S
C3100 C3101 1.502 . S
C3100 C3102 1.561 . S
C3100 C3103 1.526 . S
C3101 H3085 0.959 . S
C3101 H3086 0.959 . S
C3101 H3087 0.961 . S
C3101 C3100 1.502 . S
C3102 H3088 0.960 . S
C3102 H3089 0.961 . S
C3102 H3090 0.959 . S
C3102 C3100 1.561 . S
C3103 C3100 1.526 . S
C3103 C3104 1.396 . S
C3103 C3108 1.390 . S
C3104 C3098 1.465 . S
C3104 C3103 1.396 . S
C3104 C3105 1.399 . S
C3105 H3091 0.929 . S
C3105 C3104 1.399 . S
C3105 C3106 1.385 . S
C3106 H3092 0.931 . S
C3106 C3105 1.385 . S
C3106 C3107 1.389 . S
C3107 C3106 1.389 . S
C3107 C3108 1.387 . S
C3108 H3093 0.930 . S
C3108 C3103 1.390 . S
C3108 C3107 1.387 . S
H3109 C3121 0.930 . S
H3110 C3123 0.930 . S
H3111 C3124 0.930 . S
H3112 C3128 0.959 . S
H3113 C3128 0.959 . S
H3114 C3128 0.961 . S
H3115 C3129 0.960 . S
H3116 C3129 0.961 . S
H3117 C3129 0.959 . S
H3118 C3132 0.929 . S
H3119 C3133 0.931 . S
H3120 C3135 0.930 . S
C3121 H3109 0.930 . S
C3121 C3122 1.399 . S
C3121 C3126 1.399 . S
C3122 C3121 1.399 . S
C3122 C3123 1.376 . S
C3123 H3110 0.930 . S
C3123 C3122 1.376 . S
C3123 C3124 1.388 . S
C3124 H3111 0.930 . S
C3124 C3123 1.388 . S
C3124 C3125 1.390 . S
C3125 C3124 1.390 . S
C3125 C3126 1.394 . S
C3125 C3131 1.465 . S
C3126 C3121 1.399 . S
C3126 C3125 1.394 . S
C3126 C3127 1.516 . S
C3127 C3126 1.516 . S
C3127 C3128 1.502 . S
C3127 C3129 1.561 . S
C3127 C3130 1.526 . S
C3128 H3112 0.959 . S
C3128 H3113 0.959 . S
C3128 H3114 0.961 . S
C3128 C3127 1.502 . S
C3129 H3115 0.960 . S
C3129 H3116 0.961 . S
C3129 H3117 0.959 . S
C3129 C3127 1.561 . S
C3130 C3127 1.526 . S
C3130 C3131 1.396 . S
C3130 C3135 1.390 . S
C3131 C3125 1.465 . S
C3131 C3130 1.396 . S
C3131 C3132 1.399 . S
C3132 H3118 0.929 . S
C3132 C3131 1.399 . S
C3132 C3133 1.385 . S
C3133 H3119 0.931 . S
C3133 C3132 1.385 . S
C3133 C3134 1.389 . S
C3134 C3133 1.389 . S
C3134 C3135 1.387 . S
C3135 H3120 0.930 . S
C3135 C3130 1.390 . S
C3135 C3134 1.387 . S
H3136 C3148 0.930 . S
H3137 C3150 0.930 . S
H3138 C3151 0.930 . S
H3139 C3155 0.959 . S
H3140 C3155 0.959 . S
H3141 C3155 0.961 . S
H3142 C3156 0.960 . S
H3143 C3156 0.961 . S
H3144 C3156 0.959 . S
H3145 C3159 0.929 . S
H3146 C3160 0.931 . S
H3147 C3162 0.930 . S
C3148 H3136 0.930 . S
C3148 C3149 1.399 . S
C3148 C3153 1.399 . S
C3149 C3148 1.399 . S
C3149 C3150 1.376 . S
C3150 H3137 0.930 . S
C3150 C3149 1.376 . S
C3150 C3151 1.388 . S
C3151 H3138 0.930 . S
C3151 C3150 1.388 . S
C3151 C3152 1.390 . S
C3152 C3151 1.390 . S
C3152 C3153 1.394 . S
C3152 C3158 1.465 . S
C3153 C3148 1.399 . S
C3153 C3152 1.394 . S
C3153 C3154 1.516 . S
C3154 C3153 1.516 . S
C3154 C3155 1.502 . S
C3154 C3156 1.561 . S
C3154 C3157 1.526 . S
C3155 H3139 0.959 . S
C3155 H3140 0.959 . S
C3155 H3141 0.961 . S
C3155 C3154 1.502 . S
C3156 H3142 0.960 . S
C3156 H3143 0.961 . S
C3156 H3144 0.959 . S
C3156 C3154 1.561 . S
C3157 C3154 1.526 . S
C3157 C3158 1.396 . S
C3157 C3162 1.390 . S
C3158 C3152 1.465 . S
C3158 C3157 1.396 . S
C3158 C3159 1.399 . S
C3159 H3145 0.929 . S
C3159 C3158 1.399 . S
C3159 C3160 1.385 . S
C3160 H3146 0.931 . S
C3160 C3159 1.385 . S
C3160 C3161 1.389 . S
C3161 C3160 1.389 . S
C3161 C3162 1.387 . S
C3162 H3147 0.930 . S
C3162 C3157 1.390 . S
C3162 C3161 1.387 . S
H3163 C3175 0.930 . S
H3164 C3177 0.930 . S
H3165 C3178 0.930 . S
H3166 C3182 0.959 . S
H3167 C3182 0.959 . S
H3168 C3182 0.961 . S
H3169 C3183 0.960 . S
H3170 C3183 0.961 . S
H3171 C3183 0.959 . S
H3172 C3186 0.929 . S
H3173 C3187 0.931 . S
H3174 C3189 0.930 . S
C3175 H3163 0.930 . S
C3175 C3176 1.399 . S
C3175 C3180 1.399 . S
C3176 C3175 1.399 . S
C3176 C3177 1.376 . S
C3177 H3164 0.930 . S
C3177 C3176 1.376 . S
C3177 C3178 1.388 . S
C3178 H3165 0.930 . S
C3178 C3177 1.388 . S
C3178 C3179 1.390 . S
C3179 C3178 1.390 . S
C3179 C3180 1.394 . S
C3179 C3185 1.465 . S
C3180 C3175 1.399 . S
C3180 C3179 1.394 . S
C3180 C3181 1.516 . S
C3181 C3180 1.516 . S
C3181 C3182 1.502 . S
C3181 C3183 1.561 . S
C3181 C3184 1.526 . S
C3182 H3166 0.959 . S
C3182 H3167 0.959 . S
C3182 H3168 0.961 . S
C3182 C3181 1.502 . S
C3183 H3169 0.960 . S
C3183 H3170 0.961 . S
C3183 H3171 0.959 . S
C3183 C3181 1.561 . S
C3184 C3181 1.526 . S
C3184 C3185 1.396 . S
C3184 C3189 1.390 . S
C3185 C3179 1.465 . S
C3185 C3184 1.396 . S
C3185 C3186 1.399 . S
C3186 H3172 0.929 . S
C3186 C3185 1.399 . S
C3186 C3187 1.385 . S
C3187 H3173 0.931 . S
C3187 C3186 1.385 . S
C3187 C3188 1.389 . S
C3188 C3187 1.389 . S
C3188 C3189 1.387 . S
C3189 H3174 0.930 . S
C3189 C3184 1.390 . S
C3189 C3188 1.387 . S
H3190 C3202 0.930 . S
H3191 C3204 0.930 . S
H3192 C3205 0.930 . S
H3193 C3209 0.959 . S
H3194 C3209 0.959 . S
H3195 C3209 0.961 . S
H3196 C3210 0.960 . S
H3197 C3210 0.961 . S
H3198 C3210 0.959 . S
H3199 C3213 0.929 . S
H3200 C3214 0.931 . S
H3201 C3216 0.930 . S
C3202 H3190 0.930 . S
C3202 C3203 1.399 . S
C3202 C3207 1.399 . S
C3203 C3202 1.399 . S
C3203 C3204 1.376 . S
C3204 H3191 0.930 . S
C3204 C3203 1.376 . S
C3204 C3205 1.388 . S
C3205 H3192 0.930 . S
C3205 C3204 1.388 . S
C3205 C3206 1.390 . S
C3206 C3205 1.390 . S
C3206 C3207 1.394 . S
C3206 C3212 1.466 . S
C3207 C3202 1.399 . S
C3207 C3206 1.394 . S
C3207 C3208 1.516 1_655 S
C3208 C3207 1.516 1_455 S
C3208 C3209 1.502 . S
C3208 C3210 1.561 . S
C3208 C3211 1.526 . S
C3209 H3193 0.959 . S
C3209 H3194 0.959 . S
C3209 H3195 0.961 . S
C3209 C3208 1.502 . S
C3210 H3196 0.960 . S
C3210 H3197 0.961 . S
C3210 H3198 0.959 . S
C3210 C3208 1.561 . S
C3211 C3208 1.526 . S
C3211 C3212 1.395 1_455 S
C3211 C3216 1.390 . S
C3212 C3206 1.466 . S
C3212 C3211 1.395 1_655 S
C3212 C3213 1.399 . S
C3213 H3199 0.929 . S
C3213 C3212 1.399 . S
C3213 C3214 1.385 1_655 S
C3214 H3200 0.931 . S
C3214 C3213 1.385 1_455 S
C3214 C3215 1.389 . S
C3215 C3214 1.389 . S
C3215 C3216 1.387 . S
C3216 H3201 0.930 . S
C3216 C3211 1.390 . S
C3216 C3215 1.387 . S
H3217 C3229 0.930 . S
H3218 C3231 0.930 . S
H3219 C3232 0.930 . S
H3220 C3236 0.959 . S
H3221 C3236 0.959 . S
H3222 C3236 0.961 . S
H3223 C3237 0.960 . S
H3224 C3237 0.961 . S
H3225 C3237 0.959 . S
H3226 C3240 0.929 . S
H3227 C3241 0.931 . S
H3228 C3243 0.930 . S
C3229 H3217 0.930 . S
C3229 C3230 1.399 . S
C3229 C3234 1.399 . S
C3230 C3229 1.399 . S
C3230 C3231 1.376 . S
C3231 H3218 0.930 . S
C3231 C3230 1.376 . S
C3231 C3232 1.388 . S
C3232 H3219 0.930 . S
C3232 C3231 1.388 . S
C3232 C3233 1.390 . S
C3233 C3232 1.390 . S
C3233 C3234 1.394 . S
C3233 C3239 1.465 . S
C3234 C3229 1.399 . S
C3234 C3233 1.394 . S
C3234 C3235 1.516 . S
C3235 C3234 1.516 . S
C3235 C3236 1.502 . S
C3235 C3237 1.561 . S
C3235 C3238 1.526 . S
C3236 H3220 0.959 . S
C3236 H3221 0.959 . S
C3236 H3222 0.961 . S
C3236 C3235 1.502 . S
C3237 H3223 0.960 . S
C3237 H3224 0.961 . S
C3237 H3225 0.959 . S
C3237 C3235 1.561 . S
C3238 C3235 1.526 . S
C3238 C3239 1.396 . S
C3238 C3243 1.390 . S
C3239 C3233 1.465 . S
C3239 C3238 1.396 . S
C3239 C3240 1.399 . S
C3240 H3226 0.929 . S
C3240 C3239 1.399 . S
C3240 C3241 1.385 . S
C3241 H3227 0.931 . S
C3241 C3240 1.385 . S
C3241 C3242 1.389 . S
C3242 C3241 1.389 . S
C3242 C3243 1.387 . S
C3243 H3228 0.930 . S
C3243 C3238 1.390 . S
C3243 C3242 1.387 . S
H3244 C3256 0.930 . S
H3245 C3258 0.930 . S
H3246 C3259 0.930 . S
H3247 C3263 0.959 . S
H3248 C3263 0.959 . S
H3249 C3263 0.961 . S
H3250 C3264 0.960 . S
H3251 C3264 0.961 . S
H3252 C3264 0.959 . S
H3253 C3267 0.929 . S
H3254 C3268 0.931 . S
H3255 C3270 0.930 . S
C3256 H3244 0.930 . S
C3256 C3257 1.399 . S
C3256 C3261 1.399 . S
C3257 C3256 1.399 . S
C3257 C3258 1.376 . S
C3258 H3245 0.930 . S
C3258 C3257 1.376 . S
C3258 C3259 1.388 . S
C3259 H3246 0.930 . S
C3259 C3258 1.388 . S
C3259 C3260 1.390 . S
C3260 C3259 1.390 . S
C3260 C3261 1.394 . S
C3260 C3266 1.465 . S
C3261 C3256 1.399 . S
C3261 C3260 1.394 . S
C3261 C3262 1.516 . S
C3262 C3261 1.516 . S
C3262 C3263 1.502 . S
C3262 C3264 1.561 . S
C3262 C3265 1.526 . S
C3263 H3247 0.959 . S
C3263 H3248 0.959 . S
C3263 H3249 0.961 . S
C3263 C3262 1.502 . S
C3264 H3250 0.960 . S
C3264 H3251 0.961 . S
C3264 H3252 0.959 . S
C3264 C3262 1.561 . S
C3265 C3262 1.526 . S
C3265 C3266 1.396 . S
C3265 C3270 1.390 . S
C3266 C3260 1.465 . S
C3266 C3265 1.396 . S
C3266 C3267 1.399 . S
C3267 H3253 0.929 . S
C3267 C3266 1.399 . S
C3267 C3268 1.385 . S
C3268 H3254 0.931 . S
C3268 C3267 1.385 . S
C3268 C3269 1.389 . S
C3269 C3268 1.389 . S
C3269 C3270 1.387 . S
C3270 H3255 0.930 . S
C3270 C3265 1.390 . S
C3270 C3269 1.387 . S
H3271 C3283 0.930 . S
H3272 C3285 0.930 . S
H3273 C3286 0.930 . S
H3274 C3290 0.959 . S
H3275 C3290 0.959 . S
H3276 C3290 0.961 . S
H3277 C3291 0.960 . S
H3278 C3291 0.961 . S
H3279 C3291 0.959 . S
H3280 C3294 0.929 . S
H3281 C3295 0.931 . S
H3282 C3297 0.930 . S
C3283 H3271 0.930 . S
C3283 C3284 1.399 . S
C3283 C3288 1.399 . S
C3284 C3283 1.399 . S
C3284 C3285 1.376 . S
C3285 H3272 0.930 . S
C3285 C3284 1.376 . S
C3285 C3286 1.388 . S
C3286 H3273 0.930 . S
C3286 C3285 1.388 . S
C3286 C3287 1.390 . S
C3287 C3286 1.390 . S
C3287 C3288 1.394 . S
C3287 C3293 1.465 . S
C3288 C3283 1.399 . S
C3288 C3287 1.394 . S
C3288 C3289 1.516 . S
C3289 C3288 1.516 . S
C3289 C3290 1.502 . S
C3289 C3291 1.561 . S
C3289 C3292 1.526 . S
C3290 H3274 0.959 . S
C3290 H3275 0.959 . S
C3290 H3276 0.961 . S
C3290 C3289 1.502 . S
C3291 H3277 0.960 . S
C3291 H3278 0.961 . S
C3291 H3279 0.959 . S
C3291 C3289 1.561 . S
C3292 C3289 1.526 . S
C3292 C3293 1.396 . S
C3292 C3297 1.390 . S
C3293 C3287 1.465 . S
C3293 C3292 1.396 . S
C3293 C3294 1.399 . S
C3294 H3280 0.929 . S
C3294 C3293 1.399 . S
C3294 C3295 1.385 . S
C3295 H3281 0.931 . S
C3295 C3294 1.385 . S
C3295 C3296 1.389 . S
C3296 C3295 1.389 . S
C3296 C3297 1.387 . S
C3297 H3282 0.930 . S
C3297 C3292 1.390 . S
C3297 C3296 1.387 . S
H3298 C3310 0.930 . S
H3299 C3312 0.930 . S
H3300 C3313 0.930 . S
H3301 C3317 0.959 1_455 S
H3302 C3317 0.949 1_455 S
H3303 C3317 0.961 . S
H3304 C3318 0.960 . S
H3305 C3318 0.961 . S
H3306 C3318 0.959 . S
H3307 C3321 0.929 . S
H3308 C3322 0.931 . S
H3309 C3324 0.930 . S
C3310 H3298 0.930 . S
C3310 C3311 1.399 . S
C3310 C3315 1.399 . S
C3311 C3310 1.399 . S
C3311 C3312 1.376 . S
C3312 H3299 0.930 . S
C3312 C3311 1.376 . S
C3312 C3313 1.388 . S
C3313 H3300 0.930 . S
C3313 C3312 1.388 . S
C3313 C3314 1.390 . S
C3314 C3313 1.390 . S
C3314 C3315 1.394 . S
C3314 C3320 1.465 . S
C3315 C3310 1.399 . S
C3315 C3314 1.394 . S
C3315 C3316 1.516 . S
C3316 C3315 1.516 . S
C3316 C3317 1.502 . S
C3316 C3318 1.561 . S
C3316 C3319 1.526 . S
C3317 H3301 0.959 1_655 S
C3317 H3302 0.949 1_655 S
C3317 H3303 0.961 . S
C3317 C3316 1.502 . S
C3318 H3304 0.960 . S
C3318 H3305 0.961 . S
C3318 H3306 0.959 . S
C3318 C3316 1.561 . S
C3319 C3316 1.526 . S
C3319 C3320 1.396 . S
C3319 C3324 1.390 . S
C3320 C3314 1.465 . S
C3320 C3319 1.396 . S
C3320 C3321 1.399 . S
C3321 H3307 0.929 . S
C3321 C3320 1.399 . S
C3321 C3322 1.385 . S
C3322 H3308 0.931 . S
C3322 C3321 1.385 . S
C3322 C3323 1.389 . S
C3323 C3322 1.389 . S
C3323 C3324 1.387 . S
C3324 H3309 0.930 . S
C3324 C3319 1.390 . S
C3324 C3323 1.387 . S
H3325 C3337 0.930 . S
H3326 C3339 0.930 . S
H3327 C3340 0.930 . S
H3328 C3344 0.959 . S
H3329 C3344 0.959 . S
H3330 C3344 0.961 . S
H3331 C3345 0.960 . S
H3332 C3345 0.961 . S
H3333 C3345 0.959 . S
H3334 C3348 0.929 . S
H3335 C3349 0.931 . S
H3336 C3351 0.930 . S
C3337 H3325 0.930 . S
C3337 C3338 1.399 . S
C3337 C3342 1.399 . S
C3338 C3337 1.399 . S
C3338 C3339 1.376 . S
C3339 H3326 0.930 . S
C3339 C3338 1.376 . S
C3339 C3340 1.388 . S
C3340 H3327 0.930 . S
C3340 C3339 1.388 . S
C3340 C3341 1.390 . S
C3341 C3340 1.390 . S
C3341 C3342 1.394 . S
C3341 C3347 1.465 . S
C3342 C3337 1.399 . S
C3342 C3341 1.394 . S
C3342 C3343 1.516 . S
C3343 C3342 1.516 . S
C3343 C3344 1.502 . S
C3343 C3345 1.561 . S
C3343 C3346 1.526 . S
C3344 H3328 0.959 . S
C3344 H3329 0.959 . S
C3344 H3330 0.961 . S
C3344 C3343 1.502 . S
C3345 H3331 0.960 . S
C3345 H3332 0.961 . S
C3345 H3333 0.959 . S
C3345 C3343 1.561 . S
C3346 C3343 1.526 . S
C3346 C3347 1.396 . S
C3346 C3351 1.390 . S
C3347 C3341 1.465 . S
C3347 C3346 1.396 . S
C3347 C3348 1.399 . S
C3348 H3334 0.929 . S
C3348 C3347 1.399 . S
C3348 C3349 1.385 . S
C3349 H3335 0.931 . S
C3349 C3348 1.385 . S
C3349 C3350 1.389 . S
C3350 C3349 1.389 . S
C3350 C3351 1.387 . S
C3351 H3336 0.930 . S
C3351 C3346 1.390 . S
C3351 C3350 1.387 . S
H3352 C3364 0.930 . S
H3353 C3366 0.930 . S
H3354 C3367 0.930 . S
H3355 C3371 0.959 . S
H3356 C3371 0.959 . S
H3357 C3371 0.961 . S
H3358 C3372 0.960 . S
H3359 C3372 0.961 . S
H3360 C3372 0.959 . S
H3361 C3375 0.929 . S
H3362 C3376 0.931 . S
H3363 C3378 0.930 . S
C3364 H3352 0.930 . S
C3364 C3365 1.399 . S
C3364 C3369 1.399 . S
C3365 C3364 1.399 . S
C3365 C3366 1.376 . S
C3366 H3353 0.930 . S
C3366 C3365 1.376 . S
C3366 C3367 1.388 . S
C3367 H3354 0.930 . S
C3367 C3366 1.388 . S
C3367 C3368 1.390 . S
C3368 C3367 1.390 . S
C3368 C3369 1.394 . S
C3368 C3374 1.465 . S
C3369 C3364 1.399 . S
C3369 C3368 1.394 . S
C3369 C3370 1.516 . S
C3370 C3369 1.516 . S
C3370 C3371 1.502 . S
C3370 C3372 1.561 . S
C3370 C3373 1.526 . S
C3371 H3355 0.959 . S
C3371 H3356 0.959 . S
C3371 H3357 0.961 . S
C3371 C3370 1.502 . S
C3372 H3358 0.960 . S
C3372 H3359 0.961 . S
C3372 H3360 0.959 . S
C3372 C3370 1.561 . S
C3373 C3370 1.526 . S
C3373 C3374 1.396 . S
C3373 C3378 1.390 . S
C3374 C3368 1.465 . S
C3374 C3373 1.396 . S
C3374 C3375 1.399 . S
C3375 H3361 0.929 . S
C3375 C3374 1.399 . S
C3375 C3376 1.385 . S
C3376 H3362 0.931 . S
C3376 C3375 1.385 . S
C3376 C3377 1.389 . S
C3377 C3376 1.389 . S
C3377 C3378 1.387 . S
C3378 H3363 0.930 . S
C3378 C3373 1.390 . S
C3378 C3377 1.387 . S
H3379 C3391 0.930 . S
H3380 C3393 0.930 . S
H3381 C3394 0.930 . S
H3382 C3398 0.959 . S
H3383 C3398 0.959 . S
H3384 C3398 0.961 . S
H3385 C3399 0.960 . S
H3386 C3399 0.961 . S
H3387 C3399 0.959 . S
H3388 C3402 0.929 . S
H3389 C3403 0.931 . S
H3390 C3405 0.930 . S
C3391 H3379 0.930 . S
C3391 C3392 1.399 . S
C3391 C3396 1.399 . S
C3392 C3391 1.399 . S
C3392 C3393 1.376 . S
C3393 H3380 0.930 . S
C3393 C3392 1.376 . S
C3393 C3394 1.388 . S
C3394 H3381 0.930 . S
C3394 C3393 1.388 . S
C3394 C3395 1.390 . S
C3395 C3394 1.390 . S
C3395 C3396 1.394 . S
C3395 C3401 1.465 . S
C3396 C3391 1.399 . S
C3396 C3395 1.394 . S
C3396 C3397 1.516 . S
C3397 C3396 1.516 . S
C3397 C3398 1.502 . S
C3397 C3399 1.561 . S
C3397 C3400 1.526 . S
C3398 H3382 0.959 . S
C3398 H3383 0.959 . S
C3398 H3384 0.961 . S
C3398 C3397 1.502 . S
C3399 H3385 0.960 . S
C3399 H3386 0.961 . S
C3399 H3387 0.959 . S
C3399 C3397 1.561 . S
C3400 C3397 1.526 . S
C3400 C3401 1.396 . S
C3400 C3405 1.390 . S
C3401 C3395 1.465 . S
C3401 C3400 1.396 . S
C3401 C3402 1.399 . S
C3402 H3388 0.929 . S
C3402 C3401 1.399 . S
C3402 C3403 1.385 1_565 S
C3403 H3389 0.931 . S
C3403 C3402 1.385 1_545 S
C3403 C3404 1.381 1_545 S
C3404 C3403 1.381 1_565 S
C3404 C3405 1.413 . S
C3405 H3390 0.930 . S
C3405 C3400 1.390 . S
C3405 C3404 1.413 . S
H3406 C3418 0.930 . S
H3407 C3420 0.930 . S
H3408 C3421 0.930 . S
H3409 C3425 0.959 . S
H3410 C3425 0.959 . S
H3411 C3425 0.961 . S
H3412 C3426 0.960 . S
H3413 C3426 0.961 . S
H3414 C3426 0.959 . S
H3415 C3429 0.929 . S
H3416 C3430 0.931 . S
H3417 C3432 0.930 . S
C3418 H3406 0.930 . S
C3418 C3419 1.399 . S
C3418 C3423 1.399 . S
C3419 C3418 1.399 . S
C3419 C3420 1.376 . S
C3420 H3407 0.930 . S
C3420 C3419 1.376 . S
C3420 C3421 1.388 . S
C3421 H3408 0.930 . S
C3421 C3420 1.388 . S
C3421 C3422 1.390 . S
C3422 C3421 1.390 . S
C3422 C3423 1.394 . S
C3422 C3428 1.465 . S
C3423 C3418 1.399 . S
C3423 C3422 1.394 . S
C3423 C3424 1.516 . S
C3424 C3423 1.516 . S
C3424 C3425 1.502 . S
C3424 C3426 1.561 . S
C3424 C3427 1.526 . S
C3425 H3409 0.959 . S
C3425 H3410 0.959 . S
C3425 H3411 0.961 . S
C3425 C3424 1.502 . S
C3426 H3412 0.960 . S
C3426 H3413 0.961 . S
C3426 H3414 0.959 . S
C3426 C3424 1.561 . S
C3427 C3424 1.526 . S
C3427 C3428 1.396 . S
C3427 C3432 1.390 . S
C3428 C3422 1.465 . S
C3428 C3427 1.396 . S
C3428 C3429 1.399 . S
C3429 H3415 0.929 . S
C3429 C3428 1.399 . S
C3429 C3430 1.385 . S
C3430 H3416 0.931 . S
C3430 C3429 1.385 . S
C3430 C3431 1.389 . S
C3431 C3430 1.389 . S
C3431 C3432 1.387 . S
C3432 H3417 0.930 . S
C3432 C3427 1.390 . S
C3432 C3431 1.387 . S
H3433 C3445 0.930 . S
H3434 C3447 0.930 . S
H3435 C3448 0.930 . S
H3436 C3452 0.959 . S
H3437 C3452 0.959 . S
H3438 C3452 0.961 . S
H3439 C3453 0.960 . S
H3440 C3453 0.961 . S
H3441 C3453 0.959 . S
H3442 C3456 0.929 . S
H3443 C3457 0.931 . S
H3444 C3459 0.930 . S
C3445 H3433 0.930 . S
C3445 C3446 1.399 . S
C3445 C3450 1.399 . S
C3446 C3445 1.399 . S
C3446 C3447 1.376 . S
C3447 H3434 0.930 . S
C3447 C3446 1.376 . S
C3447 C3448 1.388 . S
C3448 H3435 0.930 . S
C3448 C3447 1.388 . S
C3448 C3449 1.390 . S
C3449 C3448 1.390 . S
C3449 C3450 1.394 . S
C3449 C3455 1.465 . S
C3450 C3445 1.399 . S
C3450 C3449 1.394 . S
C3450 C3451 1.516 . S
C3451 C3450 1.516 . S
C3451 C3452 1.502 . S
C3451 C3453 1.561 1_554 S
C3451 C3454 1.526 . S
C3452 H3436 0.959 . S
C3452 H3437 0.959 . S
C3452 H3438 0.961 . S
C3452 C3451 1.502 . S
C3453 H3439 0.960 . S
C3453 H3440 0.961 . S
C3453 H3441 0.959 . S
C3453 C3451 1.561 1_556 S
C3454 C3451 1.526 . S
C3454 C3455 1.396 . S
C3454 C3459 1.390 . S
C3455 C3449 1.465 . S
C3455 C3454 1.396 . S
C3455 C3456 1.399 . S
C3456 H3442 0.929 . S
C3456 C3455 1.399 . S
C3456 C3457 1.385 . S
C3457 H3443 0.931 . S
C3457 C3456 1.385 . S
C3457 C3458 1.389 . S
C3458 C3457 1.389 . S
C3458 C3459 1.387 . S
C3459 H3444 0.930 . S
C3459 C3454 1.390 . S
C3459 C3458 1.387 . S
H3460 C3472 0.930 . S
H3461 C3474 0.930 . S
H3462 C3475 0.930 . S
H3463 C3479 0.959 . S
H3464 C3479 0.959 . S
H3465 C3479 0.961 . S
H3466 C3480 0.960 . S
H3467 C3480 0.961 . S
H3468 C3480 0.959 . S
H3469 C3483 0.929 . S
H3470 C3484 0.931 . S
H3471 C3486 0.930 . S
C3472 H3460 0.930 . S
C3472 C3473 1.399 . S
C3472 C3477 1.399 . S
C3473 C3472 1.399 . S
C3473 C3474 1.376 . S
C3474 H3461 0.930 . S
C3474 C3473 1.376 . S
C3474 C3475 1.388 . S
C3475 H3462 0.930 . S
C3475 C3474 1.388 . S
C3475 C3476 1.390 . S
C3476 C3475 1.390 . S
C3476 C3477 1.394 . S
C3476 C3482 1.465 . S
C3477 C3472 1.399 . S
C3477 C3476 1.394 . S
C3477 C3478 1.516 . S
C3478 C3477 1.516 . S
C3478 C3479 1.502 . S
C3478 C3480 1.561 . S
C3478 C3481 1.526 . S
C3479 H3463 0.959 . S
C3479 H3464 0.959 . S
C3479 H3465 0.961 . S
C3479 C3478 1.502 . S
C3480 H3466 0.960 . S
C3480 H3467 0.961 . S
C3480 H3468 0.959 . S
C3480 C3478 1.561 . S
C3481 C3478 1.526 . S
C3481 C3482 1.396 . S
C3481 C3486 1.390 . S
C3482 C3476 1.465 . S
C3482 C3481 1.396 . S
C3482 C3483 1.399 . S
C3483 H3469 0.929 . S
C3483 C3482 1.399 . S
C3483 C3484 1.385 . S
C3484 H3470 0.931 . S
C3484 C3483 1.385 . S
C3484 C3485 1.389 . S
C3485 C3484 1.389 . S
C3485 C3486 1.387 . S
C3486 H3471 0.930 . S
C3486 C3481 1.390 . S
C3486 C3485 1.387 . S
H3487 C3499 0.930 . S
H3488 C3501 0.930 . S
H3489 C3502 0.930 . S
H3490 C3506 0.959 . S
H3491 C3506 0.959 1_556 S
H3492 C3506 0.971 . S
H3493 C3507 0.960 . S
H3494 C3507 0.961 . S
H3495 C3507 0.959 . S
H3496 C3510 0.929 . S
H3497 C3511 0.931 . S
H3498 C3513 0.930 1_556 S
C3499 H3487 0.930 . S
C3499 C3500 1.399 . S
C3499 C3504 1.399 . S
C3500 C3499 1.399 . S
C3500 C3501 1.376 . S
C3501 H3488 0.930 . S
C3501 C3500 1.376 . S
C3501 C3502 1.388 . S
C3502 H3489 0.930 . S
C3502 C3501 1.388 . S
C3502 C3503 1.390 . S
C3503 C3502 1.390 . S
C3503 C3504 1.394 . S
C3503 C3509 1.465 . S
C3504 C3499 1.399 . S
C3504 C3503 1.394 . S
C3504 C3505 1.516 . S
C3505 C3504 1.516 . S
C3505 C3506 1.502 . S
C3505 C3507 1.561 1_554 S
C3505 C3508 1.526 . S
C3506 H3490 0.959 . S
C3506 H3491 0.959 1_554 S
C3506 H3492 0.971 . S
C3506 C3505 1.502 . S
C3507 H3493 0.960 . S
C3507 H3494 0.961 . S
C3507 H3495 0.959 . S
C3507 C3505 1.561 1_556 S
C3508 C3505 1.526 . S
C3508 C3509 1.396 . S
C3508 C3513 1.390 . S
C3509 C3503 1.465 . S
C3509 C3508 1.396 . S
C3509 C3510 1.399 . S
C3510 H3496 0.929 . S
C3510 C3509 1.399 . S
C3510 C3511 1.385 . S
C3511 H3497 0.931 . S
C3511 C3510 1.385 . S
C3511 C3512 1.389 . S
C3512 C3511 1.389 . S
C3512 C3513 1.387 . S
C3513 H3498 0.930 1_554 S
C3513 C3508 1.390 . S
C3513 C3512 1.387 . S
H3514 C3526 0.930 . S
H3515 C3528 0.930 . S
H3516 C3529 0.930 . S
H3517 C3533 0.959 . S
H3518 C3533 0.959 . S
H3519 C3533 0.961 . S
H3520 C3534 0.960 . S
H3521 C3534 0.961 . S
H3522 C3534 0.959 . S
H3523 C3537 0.929 . S
H3524 C3538 0.931 . S
H3525 C3540 0.930 . S
C3526 H3514 0.930 . S
C3526 C3527 1.399 . S
C3526 C3531 1.399 . S
C3527 C3526 1.399 . S
C3527 C3528 1.376 . S
C3528 H3515 0.930 . S
C3528 C3527 1.376 . S
C3528 C3529 1.388 . S
C3529 H3516 0.930 . S
C3529 C3528 1.388 . S
C3529 C3530 1.390 . S
C3530 C3529 1.390 . S
C3530 C3531 1.394 . S
C3530 C3536 1.465 . S
C3531 C3526 1.399 . S
C3531 C3530 1.394 . S
C3531 C3532 1.516 . S
C3532 C3531 1.516 . S
C3532 C3533 1.502 . S
C3532 C3534 1.561 . S
C3532 C3535 1.526 . S
C3533 H3517 0.959 . S
C3533 H3518 0.959 . S
C3533 H3519 0.961 . S
C3533 C3532 1.502 . S
C3534 H3520 0.960 . S
C3534 H3521 0.961 . S
C3534 H3522 0.959 . S
C3534 C3532 1.561 . S
C3535 C3532 1.526 . S
C3535 C3536 1.396 . S
C3535 C3540 1.390 . S
C3536 C3530 1.465 . S
C3536 C3535 1.396 . S
C3536 C3537 1.399 . S
C3537 H3523 0.929 . S
C3537 C3536 1.399 . S
C3537 C3538 1.385 . S
C3538 H3524 0.931 . S
C3538 C3537 1.385 . S
C3538 C3539 1.389 . S
C3539 C3538 1.389 . S
C3539 C3540 1.387 . S
C3540 H3525 0.930 . S
C3540 C3535 1.390 . S
C3540 C3539 1.387 . S
H3541 C3553 0.930 . S
H3542 C3555 0.930 . S
H3543 C3556 0.930 . S
H3544 C3560 0.959 . S
H3545 C3560 0.959 . S
H3546 C3560 0.961 . S
H3547 C3561 0.960 . S
H3548 C3561 0.961 . S
H3549 C3561 0.959 . S
H3550 C3564 0.929 . S
H3551 C3565 0.931 . S
H3552 C3567 0.930 . S
C3553 H3541 0.930 . S
C3553 C3554 1.399 . S
C3553 C3558 1.399 . S
C3554 C3553 1.399 . S
C3554 C3555 1.376 . S
C3555 H3542 0.930 . S
C3555 C3554 1.376 . S
C3555 C3556 1.388 . S
C3556 H3543 0.930 . S
C3556 C3555 1.388 . S
C3556 C3557 1.390 . S
C3557 C3556 1.390 . S
C3557 C3558 1.394 . S
C3557 C3563 1.465 . S
C3558 C3553 1.399 . S
C3558 C3557 1.394 . S
C3558 C3559 1.516 . S
C3559 C3558 1.516 . S
C3559 C3560 1.502 . S
C3559 C3561 1.561 . S
C3559 C3562 1.526 . S
C3560 H3544 0.959 . S
C3560 H3545 0.959 . S
C3560 H3546 0.961 . S
C3560 C3559 1.502 . S
C3561 H3547 0.960 . S
C3561 H3548 0.961 . S
C3561 H3549 0.959 . S
C3561 C3559 1.561 . S
C3562 C3559 1.526 . S
C3562 C3563 1.396 . S
C3562 C3567 1.390 . S
C3563 C3557 1.465 . S
C3563 C3562 1.396 . S
C3563 C3564 1.399 . S
C3564 H3550 0.929 . S
C3564 C3563 1.399 . S
C3564 C3565 1.385 . S
C3565 H3551 0.931 . S
C3565 C3564 1.385 . S
C3565 C3566 1.389 . S
C3566 C3565 1.389 . S
C3566 C3567 1.387 . S
C3567 H3552 0.930 . S
C3567 C3562 1.390 . S
C3567 C3566 1.387 . S
C989 C106 2.556 . S
C1001 C338 2.581 . S
C1016 C65 2.099 . S
C1028 C395 2.098 . S
C1043 C79 1.576 . S
C1055 C418 1.502 . S
C1082 C472 1.152 . S
C1070 C90 1.149 . S
C1097 C21 1.177 . S
C1109 C512 1.084 . S
C1136 C543 0.672 . S
C1124 C35 0.563 . S
C1163 C595 1.328 . S
C1151 C50 1.346 . S
C1178 C6 1.857 . S
C1190 C618 1.883 . S
C1217 C355 2.665 . S
C1205 C232 2.673 . S
C1232 C245 0.640 . S
C1244 C392 0.476 . S
C1271 C435 1.360 . S
C1259 C274 1.344 . S
C1298 C458 1.364 . S
C1286 C175 1.316 . S
C1313 C231 1.639 . S
C1325 C498 1.681 . S
C1352 C546 1.423 . S
C1340 C246 1.451 . S
C1379 C592 0.201 . S
C1367 C273 0.310 . S
C1406 C635 2.237 . S
C1394 C176 2.227 . S
C1433 C352 1.492 . S
C1421 C160 1.480 . S
C1448 C289 1.953 . S
C1460 C675 1.953 . S
C1487 C707 2.715 . S
C1475 C328 2.684 . S
C1514 C738 0.887 1_655 S
C1502 C317 0.873 . S
C1529 C118 1.566 . S
C1541 C632 1.545 . S
C1556 C132 1.610 . S
C1568 C432 1.592 . S
C1583 C331 2.349 . S
C1595 C795 2.326 . S
C1622 C818 0.764 . S
C1610 C303 0.828 . S
C1649 C347 2.130 . S
C1637 C63 2.155 . S
C1676 C826 2.563 . S
C1664 C107 2.483 . S
C1691 C92 1.346 . S
C1703 C427 1.376 . S
C1718 C78 1.663 . S
C1730 C783 1.665 . S
C1757 C503 1.470 . S
C1745 C8 1.549 . S
C1772 C51 0.657 . S
C1784 C712 0.643 . S
C1811 C586 1.839 1_556 S
C1799 C37 1.737 . S
C1838 C867 1.717 . S
C1826 C20 1.758 . S
C1865 C346 2.494 . S
C1853 C147 2.449 . S
C1892 C823 0.605 . S
C1880 C316 0.645 . S
C1907 C119 1.207 . S
C1919 C426 1.268 . S
C1934 C288 1.469 . S
C1946 C787 1.486 . S
C1961 C148 2.075 1_545 S
C1973 C507 2.045 . S
C2000 C715 1.384 . S
C1988 C315 1.402 . S
C2015 C120 0.449 . S
C2027 C583 0.430 . S
C2042 C287 2.075 . S
C2054 C866 2.088 . S
C2069 C188 1.400 . S
C2081 C343 1.437 . S
C2096 C177 2.273 . S
C2108 C666 2.284 . S
C2123 C258 2.739 . S
C2135 C538 2.808 . S
C2150 C247 0.807 . S
C2162 C747 0.831 . S
C2189 C863 1.332 . S
C2177 C272 1.328 1_565 S
C2204 C216 1.374 . S
C2216 C423 1.436 . S
C2243 C466 2.555 . S
C2231 C261 2.520 . S
C2270 C387 0.787 . S
C2258 C205 0.773 . S
C2285 C76 2.154 . S
C2297 C898 2.220 . S
C2324 C835 2.203 . S
C2312 C93 2.204 . S
C2339 C105 1.213 . S
C2351 C938 1.124 . S
C2366 C62 1.221 . S
C2378 C792 1.222 . S
C2393 C49 1.077 . S
C2405 C672 1.120 . S
C2432 C703 0.894 . S
C2420 C9 0.907 . S
C2459 C755 1.272 . S
C2447 C22 1.213 . S
C2486 C858 2.242 . S
C2474 C36 2.280 . S
C2513 C915 2.621 . S
C2501 C260 2.604 . S
C2528 C189 0.401 . S
C2540 C832 0.568 . S
C2567 C955 1.246 . S
C2555 C204 1.221 . S
C2594 C778 1.181 . S
C2582 C217 1.171 . S
C2621 C658 1.928 . S
C2609 C259 1.935 . S
C2636 C190 1.522 . S
C2648 C706 1.504 . S
C2675 C752 0.344 . S
C2663 C203 0.388 . S
C2690 C218 2.311 . S
C2702 C875 2.326 . S
C2729 C912 1.483 . S
C2717 C314 1.520 . S
C2744 C135 2.038 . S
C2756 C515 2.041 . S
C2783 C547 2.610 . S
C2771 C146 2.583 . S
C2810 C578 0.893 . S
C2798 C163 0.880 . S
C2837 C872 1.558 . S
C2825 C300 1.549 . S
C2852 C286 1.498 . S
C2864 C952 1.567 . S
C2891 C475 2.245 . S
C2879 C149 2.239 . S
C2918 C378 0.865 . S
C2906 C121 0.805 . S
C2933 C91 2.132 . S
C2945 C907 2.161 . S
C2972 C386 2.146 . S
C2960 C77 2.028 . S
C2987 C64 1.295 . S
C2999 C947 1.298 . S
C3014 C104 1.351 . S
C3026 C463 1.333 . S
C3041 C34 1.237 . S
C3053 C663 1.170 . S
C3080 C552 0.619 . S
C3068 C23 0.591 . S
C3095 C7 1.253 . S
C3107 C746 1.461 . S
C3122 C48 1.736 . S
C3134 C627 1.709 . S
C3161 C906 2.449 . S
C3149 C329 2.412 . S
C3176 C162 0.660 . S
C3188 C383 0.670 . S
C3215 C946 1.268 . S
C3203 C301 1.260 . S
C3230 C134 1.485 . S
C3242 C467 1.498 . S
C3257 C330 2.026 . S
C3269 C667 2.002 . S
C3296 C555 1.432 . S
C3284 C161 1.379 . S
C3311 C302 0.421 . S
C3323 C743 0.430 . S
C3350 C626 2.047 . S
C3338 C133 2.036 . S
C3377 C903 1.567 . S
C3365 C244 1.539 . S
C3404 C506 2.203 1_665 S
C3392 C219 2.203 . S
C3419 C230 2.472 . S
C3431 C698 2.475 . S
C3458 C587 0.852 . S
C3446 C191 0.862 . S
C3473 C202 1.484 . S
C3485 C623 1.466 . S
C3500 C174 1.591 . S
C3512 C943 1.559 . S
C3539 C786 2.539 . S
C3527 C233 2.492 1_565 S
C3566 C827 0.791 . S
C3554 C275 0.783 . S
