# Generated by pormake.
# Topology anh, (6,3)-cn, num edge types: 1
# Building blocks:
#     Node 0, Type 0, BuildingBlock: BETDAH_clean_sbu_0, # of connection points: 6
#     Node 1, Type 0, BuildingBlock: BETDAH_clean_sbu_0, # of connection points: 6
#     Node 2, Type 0, BuildingBlock: BETDAH_clean_sbu_0, # of connection points: 6
#     Node 3, Type 1, BuildingBlock: WUSLED_clean_sbu_0, # of connection points: 3
#     Node 4, Type 1, BuildingBlock: WUSLED_clean_sbu_0, # of connection points: 3
#     Node 5, Type 1, BuildingBlock: WUSLED_clean_sbu_0, # of connection points: 3
#     Node 6, Type 1, BuildingBlock: WUSLED_clean_sbu_0, # of connection points: 3
#     Node 7, Type 1, BuildingBlock: WUSLED_clean_sbu_0, # of connection points: 3
#     Node 8, Type 1, BuildingBlock: WUSLED_clean_sbu_0, # of connection points: 3
#     Edge 9, Type (0, 1), None
#     Edge 10, Type (0, 1), None
#     Edge 11, Type (0, 1), None
#     Edge 12, Type (0, 1), None
#     Edge 13, Type (0, 1), None
#     Edge 14, Type (0, 1), None
#     Edge 15, Type (0, 1), None
#     Edge 16, Type (0, 1), None
#     Edge 17, Type (0, 1), None
#     Edge 18, Type (0, 1), None
#     Edge 19, Type (0, 1), None
#     Edge 20, Type (0, 1), None
#     Edge 21, Type (0, 1), None
#     Edge 22, Type (0, 1), None
#     Edge 23, Type (0, 1), None
#     Edge 24, Type (0, 1), None
#     Edge 25, Type (0, 1), None
#     Edge 26, Type (0, 1), None
# Relax obj value: 0.249
# Max RMSD: 0.244
# Mean RMSD: 0.171
data_MOF--net-anh--node1-BETDAH_clean_sbu_0--node2-WUSLED_clean_sbu_0--edge1-none
_symmetry_space_group_name_H-M    P1
_symmetry_Int_Tables_number       1
_symmetry_cell_setting            triclinic
loop_
_symmetry_equiv_pos_as_xyz
'x, y, z'
_cell_length_a     23.134453
_cell_length_b     29.087385
_cell_length_c     40.836422
_cell_angle_alpha  91.248554
_cell_angle_beta   90.101965
_cell_angle_gamma 132.06393
loop_
_atom_site_label
_atom_site_type_symbol
_atom_site_fract_x
_atom_site_fract_y
_atom_site_fract_z
_atom_type_partial_charge
Ho0 Ho 0.17722 0.53303 0.17627 0.0
Ho1 Ho 1.10163 0.56652 0.16601 0.0
C2 C 0.28055 0.67941 0.17357 0.0
C3 C 0.26379 0.50916 0.186 0.0
C4 C 0.34636 0.54773 0.1885 0.0
C5 C 0.39571 0.60626 0.17466 0.0
C6 C 0.47155 0.63406 0.16793 0.0
C7 C 0.49246 0.59902 0.17174 0.0
C8 C 0.45136 0.55076 0.19425 0.0
C9 C 0.37606 0.52338 0.20166 0.0
C10 C 1.10848 0.52295 0.23248 0.0
C11 C 1.00048 0.42172 0.16545 0.0
C12 C 1.0327 0.60672 0.17241 0.0
C13 C 0.94914 0.564 0.17615 0.0
C14 C 0.9141 0.51382 0.19709 0.0
C15 C 0.83704 0.45986 0.19188 0.0
C16 C 0.79474 0.45562 0.16573 0.0
C17 C 0.82804 0.507 0.14617 0.0
C18 C 0.90483 0.56124 0.15157 0.0
C19 C 1.12087 0.53599 0.10621 0.0
O20 O 0.2807 0.63686 0.18378 0.0
O21 O 0.21642 0.66151 0.16068 0.0
O22 O 0.23586 0.51935 0.20948 0.0
O23 O 0.23609 0.50474 0.15699 0.0
O24 O 1.09787 0.47798 0.21806 0.0
O25 O 0.1476 0.56903 0.21419 0.0
O26 O 0.99866 0.46414 0.17564 0.0
O27 O 1.06791 0.44129 0.15641 0.0
O28 O 1.05305 0.60108 0.14392 0.0
O29 O 1.07125 0.60882 0.19661 0.0
O30 O 1.0552 0.5158 0.11739 0.0
O31 O 0.17393 0.56824 0.12858 0.0
H32 H 0.37356 0.62647 0.1653 0.0
H33 H 0.50518 0.67407 0.15255 0.0
H34 H 0.46869 0.52528 0.20003 0.0
H35 H 0.33871 0.47963 0.21401 0.0
H36 H 0.94746 0.5142 0.21594 0.0
H37 H 0.81116 0.42094 0.20754 0.0
H38 H 0.79479 0.50487 0.12647 0.0
H39 H 0.93146 0.59892 0.13486 0.0
Ho40 Ho 0.67823 0.0263 0.4794 0.0
Ho41 Ho 0.57825 0.05167 0.47614 0.0
C42 C 0.49172 0.91162 0.47185 0.0
C43 C 0.74076 0.98103 0.49155 0.0
C44 C 0.71266 0.9197 0.49876 0.0
C45 C 0.66804 0.88718 0.52642 0.0
C46 C 0.64753 0.83113 0.53371 0.0
C47 C 0.67096 0.80672 0.51336 0.0
C48 C 0.71268 0.83829 0.48503 0.0
C49 C 0.73319 0.8941 0.47783 0.0
C50 C 0.66212 0.04897 0.41796 0.0
C51 C 0.76716 0.16779 0.47679 0.0
C52 C 0.5227 0.10337 0.46775 0.0
C53 C 0.54592 0.15991 0.48375 0.0
C54 C 0.56497 0.20792 0.46472 0.0
C55 C 0.58871 0.26222 0.47973 0.0
C56 C 0.59432 0.26958 0.51407 0.0
C57 C 0.57699 0.22194 0.53298 0.0
C58 C 0.55353 0.16797 0.51803 0.0
C59 C 0.60343 0.03607 0.53849 0.0
O60 O 0.5571 0.93261 0.48621 0.0
O61 O 0.48798 0.95128 0.45972 0.0
O62 O 0.72589 0.98721 0.46197 0.0
O63 O 0.73116 1.00809 0.51388 0.0
O64 O 0.72694 0.07023 0.4314 0.0
O65 O 0.60656 1.0153 0.43764 0.0
O66 O 0.69727 0.14675 0.46952 0.0
O67 O 0.77574 0.12942 0.48601 0.0
O68 O 0.48984 0.0556 0.48622 0.0
O69 O 0.57426 0.11232 0.44853 0.0
O70 O 0.53742 1.01535 0.52705 0.0
O71 O 0.65414 0.06622 0.51679 0.0
H72 H 0.65021 0.90543 0.54272 0.0
H73 H 0.61418 0.80733 0.5554 0.0
H74 H 0.73237 0.82125 0.46898 0.0
H75 H 0.76699 0.91816 0.45624 0.0
H76 H 0.56163 0.20345 0.43823 0.0
H77 H 0.60304 0.29854 0.46449 0.0
H78 H 0.58009 0.22578 0.55949 0.0
H79 H 0.54118 0.13253 0.53342 0.0
Ho80 Ho 0.71624 0.61753 0.85249 0.0
Ho81 Ho 0.60123 0.46968 0.84848 0.0
C82 C 0.52655 0.5373 0.85929 0.0
C83 C 0.80172 0.73097 0.83678 0.0
C84 C 0.77901 0.76642 0.82836 0.0
C85 C 0.77658 0.77862 0.79549 0.0
C86 C 0.75323 0.81064 0.78728 0.0
C87 C 0.7319 0.83128 0.8118 0.0
C88 C 0.73174 0.81706 0.84453 0.0
C89 C 0.75537 0.7854 0.85274 0.0
C90 C 0.67214 0.5567 0.90849 0.0
C91 C 0.79556 0.55234 0.85373 0.0
C92 C 0.5278 0.35548 0.85857 0.0
C93 C 0.54172 0.31647 0.84424 0.0
C94 C 0.56686 0.29376 0.86425 0.0
C95 C 0.58578 0.26079 0.85046 0.0
C96 C 0.58034 0.25036 0.81637 0.0
C97 C 0.55472 0.27284 0.79649 0.0
C98 C 0.53604 0.30567 0.81018 0.0
C99 C 0.63543 0.51851 0.78752 0.0
O100 O 0.59613 0.59039 0.85044 0.0
O101 O 0.51791 0.48694 0.86395 0.0
O102 O 0.79261 0.71428 0.8673 0.0
O103 O 0.77972 0.68695 0.81564 0.0
O104 O 0.68621 0.60813 0.90678 0.0
O105 O 0.68604 0.54472 0.88194 0.0
O106 O 0.72215 0.49693 0.85082 0.0
O107 O 0.80751 0.60488 0.85384 0.0
O108 O 0.50145 0.37274 0.83855 0.0
O109 O 0.58257 0.40049 0.87853 0.0
O110 O 0.59713 0.46069 0.79262 0.0
O111 O 0.65158 0.54414 0.81536 0.0
H112 H 0.79311 0.76362 0.77609 0.0
H113 H 0.75407 0.82069 0.76183 0.0
H114 H 0.71352 0.8306 0.86397 0.0
H115 H 0.75482 0.77573 0.87825 0.0
H116 H 0.57313 0.30246 0.89051 0.0
H117 H 0.60617 0.24465 0.86634 0.0
H118 H 0.54886 0.26492 0.77017 0.0
H119 H 0.51804 0.32316 0.79388 0.0
C120 C 0.81187 0.22368 0.17868 0.0
C121 C 0.80719 0.26632 0.19184 0.0
C122 C 0.93391 0.35361 0.16943 0.0
C123 C 0.86756 0.3305 0.18732 0.0
C124 C 0.93922 0.31088 0.15718 0.0
C125 C 0.87916 0.24708 0.16165 0.0
U126 U 0.6482 0.05616 0.21415 0.0
O127 O 0.61179 0.96885 0.19376 0.0
O128 O 0.5304 0.98372 0.19229 0.0
C129 C 0.54202 0.9462 0.18502 0.0
C130 C 0.74452 0.15513 0.17824 0.0
C131 C 0.47439 0.8781 0.186 0.0
C132 C 0.34579 0.78947 0.1636 0.0
C133 C 0.40725 0.85347 0.16767 0.0
C134 C 0.41595 0.77188 0.19655 0.0
C135 C 0.34917 0.7475 0.17767 0.0
C136 C 0.47814 0.8366 0.20058 0.0
C137 C 0.65764 0.06408 0.31365 0.0
C138 C 0.58684 1.01195 0.36366 0.0
C139 C 0.72486 0.10263 0.36648 0.0
C140 C 0.72554 0.10719 0.33264 0.0
C141 C 0.65614 0.05468 0.38243 0.0
C142 C 0.58761 1.0166 0.32928 0.0
C143 C 0.66453 0.07217 0.2779 0.0
O144 O 0.75787 0.11968 0.18699 0.0
O145 O 0.67655 0.13432 0.18777 0.0
O146 O 0.61543 0.07156 0.26112 0.0
O147 O 0.70178 0.06085 0.26048 0.0
H148 H 0.75629 0.25011 0.20512 0.0
H149 H 0.86226 0.36198 0.19786 0.0
H150 H 0.98975 0.32662 0.14374 0.0
H151 H 0.88453 0.21569 0.15095 0.0
H152 H 0.29559 0.77299 0.149 0.0
H153 H 0.40302 0.88397 0.15559 0.0
H154 H 0.4202 0.74106 0.20812 0.0
H155 H 0.52946 0.85404 0.21459 0.0
H156 H 0.53313 0.97428 0.37536 0.0
H157 H 0.77901 0.13653 0.38022 0.0
H158 H 0.77992 0.14454 0.32116 0.0
H159 H 0.53435 0.98294 0.315 0.0
C160 C 0.64673 0.65182 0.53768 0.0
C161 C 0.66182 0.69293 0.56253 0.0
C162 C 0.65658 0.75068 0.52229 0.0
C163 C 0.6668 0.74212 0.55489 0.0
C164 C 0.63871 0.70785 0.49778 0.0
C165 C 0.63426 0.65908 0.50542 0.0
U166 U 0.64937 0.55374 0.59729 0.0
O167 O 0.58129 0.45342 0.59509 0.0
O168 O 0.7092 0.51879 0.59374 0.0
C169 C 0.64354 0.46061 0.59217 0.0
C170 C 0.64487 0.60168 0.54476 0.0
C171 C 0.63913 0.41927 0.56851 0.0
C172 C 0.58253 0.34954 0.52051 0.0
C173 C 0.59388 0.39607 0.53941 0.0
C174 C 0.66489 0.3519 0.55861 0.0
C175 C 0.6158 0.32547 0.53062 0.0
C176 C 0.67627 0.39817 0.5773 0.0
C177 C 0.66243 0.58185 0.68985 0.0
C178 C 0.64517 0.51011 0.72742 0.0
C179 C 0.66842 0.59961 0.74896 0.0
C180 C 0.67304 0.61795 0.71679 0.0
C181 C 0.65323 0.54493 0.75453 0.0
C182 C 0.64994 0.52844 0.69543 0.0
C183 C 0.6603 0.59812 0.65615 0.0
O184 O 0.70966 0.6192 0.55724 0.0
O185 O 0.58206 0.55397 0.55929 0.0
O186 O 0.5939 0.55659 0.64 0.0
O187 O 0.72106 0.62043 0.63835 0.0
H188 H 0.6713 0.68769 0.58765 0.0
H189 H 0.68148 0.77464 0.57428 0.0
H190 H 0.62925 0.71252 0.47255 0.0
H191 H 0.62206 0.62744 0.48601 0.0
H192 H 0.54453 0.33022 0.49901 0.0
H193 H 0.56506 0.41206 0.532 0.0
H194 H 0.69275 0.33543 0.56669 0.0
H195 H 0.7118 0.41578 0.59952 0.0
H196 H 0.63288 0.46748 0.73091 0.0
H197 H 0.67275 0.62639 0.76924 0.0
H198 H 0.68249 0.65927 0.71293 0.0
H199 H 0.64165 0.49994 0.67501 0.0
C200 C 0.99293 0.55286 0.8698 0.0
C201 C 0.91229 0.49858 0.8706 0.0
C202 C 0.86473 0.55376 0.8593 0.0
C203 C 0.8509 0.49906 0.86567 0.0
C204 C 0.94537 0.60839 0.85897 0.0
C205 C 1.00697 0.60783 0.86372 0.0
U206 U 0.16268 0.54645 0.89948 0.0
O207 O 0.19172 0.49326 0.87613 0.0
O208 O 0.27872 0.59318 0.87668 0.0
C209 C 0.2638 0.54196 0.86866 0.0
C210 C 1.05987 0.5508 0.87016 0.0
C211 C 0.33055 0.53979 0.86821 0.0
C212 C 0.43077 0.54877 0.83609 0.0
C213 C 0.36998 0.55032 0.83865 0.0
C214 C 0.41677 0.5241 0.89252 0.0
C215 C 0.45641 0.5352 0.86273 0.0
C216 C 0.35621 0.52655 0.89522 0.0
C217 C 0.15583 0.54577 1.0003 0.0
C218 C 0.20839 0.57157 0.05685 0.0
C219 C 1.07057 0.50922 0.0473 0.0
C220 C 1.08127 0.51259 0.01312 0.0
C221 C 0.13387 0.53853 0.06981 0.0
C222 C 0.21908 0.57513 0.02265 0.0
C223 C 0.16913 0.54686 0.96423 0.0
O224 O 0.13263 0.59969 0.87839 0.0
O225 O 1.04516 0.49968 0.87674 0.0
O226 O 1.12064 0.49623 0.94581 0.0
O227 O 0.21144 0.59813 0.94769 0.0
H228 H 0.89585 0.45447 0.87448 0.0
H229 H 0.79134 0.45535 0.86672 0.0
H230 H 0.96151 0.65221 0.8544 0.0
H231 H 1.06659 0.65117 0.86191 0.0
H232 H 0.45777 0.55801 0.81258 0.0
H233 H 0.35367 0.56017 0.81684 0.0
H234 H 0.43369 0.51463 0.91426 0.0
H235 H 0.32965 0.5182 0.91874 0.0
H236 H 0.25856 0.5948 0.07314 0.0
H237 H 1.0122 0.48348 0.05613 0.0
H238 H 1.03116 0.48902 0.99675 0.0
H239 H 0.27717 0.60036 0.01358 0.0
C240 C 0.96413 0.36519 0.46832 0.0
C241 C 0.89062 0.33717 0.45488 0.0
C242 C 0.83596 0.23534 0.47322 0.0
C243 C 0.82751 0.27319 0.45732 0.0
C244 C 0.91009 0.26305 0.48568 0.0
C245 C 0.97315 0.32717 0.48342 0.0
U246 U 0.12421 0.5371 0.43775 0.0
O247 O 0.24155 0.6074 0.4604 0.0
O248 O 0.15993 0.6219 0.46167 0.0
C249 C 0.23016 0.64444 0.46932 0.0
C250 C 1.02902 0.43394 0.47073 0.0
C251 C 0.2972 0.71236 0.46718 0.0
C252 C 0.42226 0.8044 0.49058 0.0
C253 C 0.35996 0.74019 0.48929 0.0
C254 C 0.36091 0.81547 0.44746 0.0
C255 C 0.42366 0.84319 0.4699 0.0
C256 C 0.29824 0.75057 0.44605 0.0
C257 C 1.11132 0.53066 0.33785 0.0
C258 C 0.14268 0.58219 0.28599 0.0
C259 C 1.07021 0.47214 0.2864 0.0
C260 C 1.07356 0.47455 0.32063 0.0
C261 C 1.1054 0.52596 0.26865 0.0
C262 C 0.14525 0.58439 0.3204 0.0
C263 C 1.11595 0.53296 0.37389 0.0
O264 O 1.09806 0.45723 0.46118 0.0
O265 O 1.01381 0.46881 0.46343 0.0
O266 O 1.07668 0.54137 0.39206 0.0
O267 O 0.15903 0.52611 0.3899 0.0
H268 H 0.88118 0.3648 0.44321 0.0
H269 H 0.77162 0.25356 0.44701 0.0
H270 H 0.91902 0.23555 0.49798 0.0
H271 H 1.02876 0.34744 0.4944 0.0
H272 H 0.46905 0.82373 0.50827 0.0
H273 H 0.36028 0.71209 0.50615 0.0
H274 H 0.36044 0.84382 0.43092 0.0
H275 H 0.25054 0.73047 0.42876 0.0
H276 H 0.17123 0.62452 0.27301 0.0
H277 H 1.04134 0.42815 0.27378 0.0
H278 H 1.04693 0.43259 0.33366 0.0
H279 H 0.17506 0.62823 0.33339 0.0
C280 C 0.6826 0.94637 0.78926 0.0
C281 C 0.65738 0.89759 0.76756 0.0
C282 C 0.71393 0.87033 0.80375 0.0
C283 C 0.67274 0.8597 0.7748 0.0
C284 C 0.73973 0.91989 0.82503 0.0
C285 C 0.72394 0.95724 0.8179 0.0
U286 U 0.64424 0.02872 0.73298 0.0
O287 O 0.56659 0.04663 0.74109 0.0
O288 O 0.69306 0.12446 0.73693 0.0
C289 C 0.62478 0.10709 0.74167 0.0
C290 C 0.66671 0.98666 0.78299 0.0
C291 C 0.62262 0.14546 0.76475 0.0
C292 C 0.57518 0.16068 0.81316 0.0
C293 C 0.58533 0.1249 0.79506 0.0
C294 C 0.64319 0.23849 0.7717 0.0
C295 C 0.60146 0.21674 0.80088 0.0
C296 C 0.65339 0.20319 0.75388 0.0
C297 C 0.63824 1.01331 0.63888 0.0
C298 C 0.56395 1.01522 0.59735 0.0
C299 C 0.68464 0.04232 0.58291 0.0
C300 C 0.69394 0.03224 0.6152 0.0
C301 C 0.61826 0.03199 0.57335 0.0
C302 C 0.57416 1.00659 0.62981 0.0
C303 C 0.64638 0.99826 0.67219 0.0
O304 O 0.72317 0.0395 0.76939 0.0
O305 O 0.59724 0.95951 0.77089 0.0
O306 O 0.58366 0.96474 0.69014 0.0
O307 O 0.70975 0.04351 0.68904 0.0
H308 H 0.62563 0.88866 0.74518 0.0
H309 H 0.65162 0.82179 0.75794 0.0
H310 H 0.77326 0.93057 0.84709 0.0
H311 H 0.74434 0.99494 0.83481 0.0
H312 H 0.54333 0.14302 0.83574 0.0
H313 H 0.56168 0.08057 0.80406 0.0
H314 H 0.66582 0.2821 0.76197 0.0
H315 H 0.6827 0.21998 0.73067 0.0
H316 H 0.51299 1.00818 0.59097 0.0
H317 H 0.72847 0.05669 0.56531 0.0
H318 H 0.74421 0.03827 0.62157 0.0
H319 H 0.53092 0.99331 0.64758 0.0
C320 C 0.56699 0.35172 0.14008 0.0
C321 C 0.61122 0.34729 0.11913 0.0
C322 C 0.71264 0.40092 0.16079 0.0
C323 C 0.68548 0.37354 0.12931 0.0
C324 C 0.66079 0.39068 0.18391 0.0
C325 C 0.58711 0.36551 0.1735 0.0
U326 U 0.54559 0.41784 0.06814 0.0
O327 O 0.46711 0.43496 0.05996 0.0
O328 O 0.59425 0.51225 0.06287 0.0
C329 C 0.52566 0.49529 0.06339 0.0
C330 C 0.53533 0.37648 0.12605 0.0
C331 C 0.52084 0.52593 0.09008 0.0
C332 C 0.55439 0.56409 0.14633 0.0
C333 C 0.55338 0.53191 0.12067 0.0
C334 C 0.48777 0.5831 0.11123 0.0
C335 C 0.51857 0.58769 0.14244 0.0
C336 C 0.48957 0.5527 0.0851 0.0
C337 C 0.6169 0.44231 0.98813 0.0
C338 C 0.60775 0.51168 0.96168 0.0
C339 C 0.68696 0.49256 0.93885 0.0
C340 C 0.66764 0.45352 0.96428 0.0
C341 C 0.65718 0.52186 0.93745 0.0
C342 C 0.58682 0.4713 0.98658 0.0
C343 C 0.60126 0.40708 0.01705 0.0
O344 O 0.59147 0.43411 0.11771 0.0
O345 O 0.47957 0.34243 0.10358 0.0
O346 O 0.52682 0.36433 0.024 0.0
O347 O 0.64615 0.44285 0.04235 0.0
H348 H 0.59607 0.33632 0.09325 0.0
H349 H 0.7252 0.38097 0.1113 0.0
H350 H 0.68131 0.41155 0.20835 0.0
H351 H 0.55335 0.36884 0.19002 0.0
H352 H 0.57802 0.56649 0.16989 0.0
H353 H 0.57833 0.51173 0.12482 0.0
H354 H 0.45749 0.59908 0.10731 0.0
H355 H 0.4649 0.54867 0.06146 0.0
H356 H 0.58325 0.53292 0.96072 0.0
H357 H 0.72532 0.49982 0.92016 0.0
H358 H 0.69236 0.43248 0.96538 0.0
H359 H 0.54671 0.46247 0.00463 0.0
loop_
_geom_bond_atom_site_label_1
_geom_bond_atom_site_label_2
_geom_bond_distance
_geom_bond_site_symmetry_2
_ccdc_geom_bond_type
Ho0 C3 2.811 . S
Ho0 O20 2.322 . S
Ho0 O22 2.378 . S
Ho0 O23 2.524 . S
Ho0 O24 2.381 . S
Ho0 O25 2.669 . S
Ho0 O27 2.346 1_455 S
Ho0 O31 2.305 . S
Ho1 C12 2.811 . S
Ho1 O21 2.346 1_655 S
Ho1 O25 2.305 1_655 S
Ho1 O26 2.322 . S
Ho1 O28 2.378 . S
Ho1 O29 2.524 . S
Ho1 O30 2.381 . S
Ho1 O31 2.669 1_655 S
C2 O20 1.259 . S
C2 O21 1.268 . S
C3 Ho0 2.811 . S
C3 C4 1.488 . S
C3 O22 1.215 . S
C3 O23 1.289 . S
C4 C3 1.488 . S
C4 C5 1.348 . S
C4 C9 1.413 . S
C5 C4 1.348 . S
C5 C6 1.442 . S
C5 H32 0.930 . S
C6 C5 1.442 . S
C6 C7 1.381 . S
C6 H33 0.931 . S
C7 C6 1.381 . S
C7 C8 1.321 . S
C8 C7 1.321 . S
C8 C9 1.403 . S
C8 H34 0.934 . S
C9 C4 1.413 . S
C9 C8 1.403 . S
C9 H35 0.930 . S
C10 O24 1.275 . S
C10 O25 1.256 . S
C11 O26 1.259 . S
C11 O27 1.268 . S
C12 Ho1 2.811 . S
C12 C13 1.488 . S
C12 O28 1.215 . S
C12 O29 1.289 . S
C13 C12 1.488 . S
C13 C14 1.348 . S
C13 C18 1.413 . S
C14 C13 1.348 . S
C14 C15 1.442 . S
C14 H36 0.930 . S
C15 C14 1.442 . S
C15 C16 1.381 . S
C15 H37 0.931 . S
C16 C15 1.381 . S
C16 C17 1.321 . S
C17 C16 1.321 . S
C17 C18 1.403 . S
C17 H38 0.934 . S
C18 C13 1.413 . S
C18 C17 1.403 . S
C18 H39 0.930 . S
C19 O30 1.275 1_455 S
C19 O31 1.256 . S
O20 Ho0 2.322 . S
O20 C2 1.259 . S
O21 Ho1 2.346 1_455 S
O21 C2 1.268 . S
O22 Ho0 2.378 . S
O22 C3 1.215 . S
O23 Ho0 2.524 . S
O23 C3 1.289 . S
O24 Ho0 2.381 . S
O24 C10 1.275 . S
O25 Ho0 2.669 . S
O25 Ho1 2.305 1_455 S
O25 C10 1.256 . S
O26 Ho1 2.322 . S
O26 C11 1.259 . S
O27 Ho0 2.346 1_655 S
O27 C11 1.268 . S
O28 Ho1 2.378 . S
O28 C12 1.215 . S
O29 Ho1 2.524 . S
O29 C12 1.289 . S
O30 Ho1 2.381 . S
O30 C19 1.275 1_655 S
O31 Ho0 2.305 . S
O31 Ho1 2.669 1_455 S
O31 C19 1.256 . S
H32 C5 0.930 . S
H33 C6 0.931 . S
H34 C8 0.934 . S
H35 C9 0.930 . S
H36 C14 0.930 . S
H37 C15 0.931 . S
H38 C17 0.934 . S
H39 C18 0.930 . S
Ho40 C43 2.811 . S
Ho40 O60 2.322 . S
Ho40 O62 2.378 . S
Ho40 O63 2.524 . S
Ho40 O64 2.381 . S
Ho40 O65 2.669 1_565 S
Ho40 O67 2.346 1_565 S
Ho40 O71 2.305 . S
Ho41 C52 2.811 . S
Ho41 O61 2.346 1_545 S
Ho41 O65 2.305 . S
Ho41 O66 2.322 . S
Ho41 O68 2.378 . S
Ho41 O69 2.524 . S
Ho41 O70 2.381 . S
Ho41 O71 2.669 1_545 S
C42 O60 1.259 . S
C42 O61 1.268 . S
C43 Ho40 2.811 . S
C43 C44 1.488 . S
C43 O62 1.215 . S
C43 O63 1.289 . S
C44 C43 1.488 . S
C44 C45 1.348 . S
C44 C49 1.413 . S
C45 C44 1.348 . S
C45 C46 1.442 . S
C45 H72 0.930 . S
C46 C45 1.442 . S
C46 C47 1.381 . S
C46 H73 0.931 . S
C47 C46 1.381 . S
C47 C48 1.321 . S
C48 C47 1.321 . S
C48 C49 1.403 . S
C48 H74 0.934 . S
C49 C44 1.413 . S
C49 C48 1.403 . S
C49 H75 0.930 . S
C50 O64 1.275 1_545 S
C50 O65 1.256 . S
C51 O66 1.259 . S
C51 O67 1.268 . S
C52 Ho41 2.811 . S
C52 C53 1.488 . S
C52 O68 1.215 . S
C52 O69 1.289 . S
C53 C52 1.488 . S
C53 C54 1.348 . S
C53 C58 1.413 . S
C54 C53 1.348 . S
C54 C55 1.442 . S
C54 H76 0.930 . S
C55 C54 1.442 . S
C55 C56 1.381 . S
C55 H77 0.931 . S
C56 C55 1.381 . S
C56 C57 1.321 . S
C57 C56 1.321 . S
C57 C58 1.403 . S
C57 H78 0.934 . S
C58 C53 1.413 . S
C58 C57 1.403 . S
C58 H79 0.930 . S
C59 O70 1.275 . S
C59 O71 1.256 1_545 S
O60 Ho40 2.322 . S
O60 C42 1.259 . S
O61 Ho41 2.346 1_565 S
O61 C42 1.268 . S
O62 Ho40 2.378 . S
O62 C43 1.215 . S
O63 Ho40 2.524 . S
O63 C43 1.289 . S
O64 Ho40 2.381 . S
O64 C50 1.275 1_565 S
O65 Ho40 2.669 1_545 S
O65 Ho41 2.305 . S
O65 C50 1.256 . S
O66 Ho41 2.322 . S
O66 C51 1.259 . S
O67 Ho40 2.346 1_545 S
O67 C51 1.268 . S
O68 Ho41 2.378 . S
O68 C52 1.215 . S
O69 Ho41 2.524 . S
O69 C52 1.289 . S
O70 Ho41 2.381 . S
O70 C59 1.275 . S
O71 Ho40 2.305 . S
O71 Ho41 2.669 1_565 S
O71 C59 1.256 1_565 S
H72 C45 0.930 . S
H73 C46 0.931 . S
H74 C48 0.934 . S
H75 C49 0.930 . S
H76 C54 0.930 . S
H77 C55 0.931 . S
H78 C57 0.934 . S
H79 C58 0.930 . S
Ho80 C83 2.811 . S
Ho80 O100 2.322 . S
Ho80 O102 2.378 . S
Ho80 O103 2.524 . S
Ho80 O104 2.381 . S
Ho80 O105 2.669 . S
Ho80 O107 2.346 . S
Ho80 O111 2.305 . S
Ho81 C92 2.811 . S
Ho81 O101 2.346 . S
Ho81 O105 2.305 . S
Ho81 O106 2.322 . S
Ho81 O108 2.378 . S
Ho81 O109 2.524 . S
Ho81 O110 2.381 . S
Ho81 O111 2.669 . S
C82 O100 1.259 . S
C82 O101 1.268 . S
C83 Ho80 2.811 . S
C83 C84 1.488 . S
C83 O102 1.215 . S
C83 O103 1.289 . S
C84 C83 1.488 . S
C84 C85 1.348 . S
C84 C89 1.413 . S
C85 C84 1.348 . S
C85 C86 1.442 . S
C85 H112 0.930 . S
C86 C85 1.442 . S
C86 C87 1.381 . S
C86 H113 0.931 . S
C87 C86 1.381 . S
C87 C88 1.321 . S
C88 C87 1.321 . S
C88 C89 1.403 . S
C88 H114 0.934 . S
C89 C84 1.413 . S
C89 C88 1.403 . S
C89 H115 0.930 . S
C90 O104 1.275 . S
C90 O105 1.256 . S
C91 O106 1.259 . S
C91 O107 1.268 . S
C92 Ho81 2.811 . S
C92 C93 1.488 . S
C92 O108 1.215 . S
C92 O109 1.289 . S
C93 C92 1.488 . S
C93 C94 1.348 . S
C93 C98 1.413 . S
C94 C93 1.348 . S
C94 C95 1.442 . S
C94 H116 0.930 . S
C95 C94 1.442 . S
C95 C96 1.381 . S
C95 H117 0.931 . S
C96 C95 1.381 . S
C96 C97 1.321 . S
C97 C96 1.321 . S
C97 C98 1.403 . S
C97 H118 0.934 . S
C98 C93 1.413 . S
C98 C97 1.403 . S
C98 H119 0.930 . S
C99 O110 1.275 . S
C99 O111 1.256 . S
O100 Ho80 2.322 . S
O100 C82 1.259 . S
O101 Ho81 2.346 . S
O101 C82 1.268 . S
O102 Ho80 2.378 . S
O102 C83 1.215 . S
O103 Ho80 2.524 . S
O103 C83 1.289 . S
O104 Ho80 2.381 . S
O104 C90 1.275 . S
O105 Ho80 2.669 . S
O105 Ho81 2.305 . S
O105 C90 1.256 . S
O106 Ho81 2.322 . S
O106 C91 1.259 . S
O107 Ho80 2.346 . S
O107 C91 1.268 . S
O108 Ho81 2.378 . S
O108 C92 1.215 . S
O109 Ho81 2.524 . S
O109 C92 1.289 . S
O110 Ho81 2.381 . S
O110 C99 1.275 . S
O111 Ho80 2.305 . S
O111 Ho81 2.669 . S
O111 C99 1.256 . S
H112 C85 0.930 . S
H113 C86 0.931 . S
H114 C88 0.934 . S
H115 C89 0.930 . S
H116 C94 0.930 . S
H117 C95 0.931 . S
H118 C97 0.934 . S
H119 C98 0.930 . S
C120 C121 1.264 . S
C120 C125 1.479 . S
C120 C130 1.465 . S
C121 C120 1.264 . S
C121 C123 1.339 . S
C121 H148 0.931 . S
C122 C123 1.395 . S
C122 C124 1.320 . S
C123 C121 1.339 . S
C123 C122 1.395 . S
C123 H149 0.929 . S
C124 C122 1.320 . S
C124 C125 1.405 . S
C124 H150 0.930 . S
C125 C120 1.479 . S
C125 C124 1.405 . S
C125 H151 0.931 . S
U126 O127 2.454 1_545 S
U126 O128 2.458 1_545 S
U126 C129 2.984 1_545 S
U126 C130 2.847 . S
U126 C143 2.882 . S
U126 O144 2.441 . S
U126 O145 2.420 . S
U126 O146 2.455 1_545 S
U126 O147 2.449 . S
O127 U126 2.454 1_565 S
O127 C129 1.353 . S
O128 U126 2.458 1_565 S
O128 C129 1.286 . S
C129 U126 2.984 1_565 S
C129 O127 1.353 . S
C129 O128 1.286 . S
C129 C131 1.363 . S
C130 C120 1.465 . S
C130 U126 2.847 . S
C130 O144 1.249 . S
C130 O145 1.202 . S
C131 C129 1.363 . S
C131 C133 1.408 . S
C131 C136 1.342 . S
C132 C133 1.310 . S
C132 C135 1.461 . S
C132 H152 0.932 . S
C133 C131 1.408 . S
C133 C132 1.310 . S
C133 H153 0.930 . S
C134 C135 1.474 . S
C134 C136 1.285 . S
C134 H154 0.929 . S
C135 C132 1.461 . S
C135 C134 1.474 . S
C136 C131 1.342 . S
C136 C134 1.285 . S
C136 H155 0.930 . S
C137 C140 1.424 . S
C137 C142 1.245 1_545 S
C137 C143 1.428 . S
C138 C141 1.260 1_565 S
C138 C142 1.477 . S
C138 H156 0.932 . S
C139 C140 1.384 . S
C139 C141 1.479 . S
C139 H157 0.929 . S
C140 C137 1.424 . S
C140 C139 1.384 . S
C140 H158 0.928 . S
C141 C138 1.260 1_545 S
C141 C139 1.479 . S
C142 C137 1.245 1_565 S
C142 C138 1.477 . S
C142 H159 0.932 . S
C143 U126 2.882 . S
C143 C137 1.428 . S
C143 O146 1.301 1_545 S
C143 O147 1.282 . S
O144 U126 2.441 . S
O144 C130 1.249 . S
O145 U126 2.420 . S
O145 C130 1.202 . S
O146 U126 2.455 1_565 S
O146 C143 1.301 1_565 S
O147 U126 2.449 . S
O147 C143 1.282 . S
H148 C121 0.931 . S
H149 C123 0.929 . S
H150 C124 0.930 . S
H151 C125 0.931 . S
H152 C132 0.932 . S
H153 C133 0.930 . S
H154 C134 0.929 . S
H155 C136 0.930 . S
H156 C138 0.932 . S
H157 C139 0.929 . S
H158 C140 0.928 . S
H159 C142 0.932 . S
C160 C161 1.264 . S
C160 C165 1.479 . S
C160 C170 1.465 . S
C161 C160 1.264 . S
C161 C163 1.339 . S
C161 H188 0.931 . S
C162 C163 1.395 . S
C162 C164 1.320 . S
C163 C161 1.339 . S
C163 C162 1.395 . S
C163 H189 0.929 . S
C164 C162 1.320 . S
C164 C165 1.405 . S
C164 H190 0.930 . S
C165 C160 1.479 . S
C165 C164 1.405 . S
C165 H191 0.931 . S
U166 O167 2.454 . S
U166 O168 2.458 . S
U166 C169 2.984 . S
U166 C170 2.847 . S
U166 C183 2.882 . S
U166 O184 2.441 . S
U166 O185 2.420 . S
U166 O186 2.455 . S
U166 O187 2.449 . S
O167 U166 2.454 . S
O167 C169 1.353 . S
O168 U166 2.458 . S
O168 C169 1.286 . S
C169 U166 2.984 . S
C169 O167 1.353 . S
C169 O168 1.286 . S
C169 C171 1.363 . S
C170 C160 1.465 . S
C170 U166 2.847 . S
C170 O184 1.249 . S
C170 O185 1.202 . S
C171 C169 1.363 . S
C171 C173 1.408 . S
C171 C176 1.342 . S
C172 C173 1.310 . S
C172 C175 1.461 . S
C172 H192 0.932 . S
C173 C171 1.408 . S
C173 C172 1.310 . S
C173 H193 0.930 . S
C174 C175 1.474 . S
C174 C176 1.285 . S
C174 H194 0.929 . S
C175 C172 1.461 . S
C175 C174 1.474 . S
C176 C171 1.342 . S
C176 C174 1.285 . S
C176 H195 0.930 . S
C177 C180 1.424 . S
C177 C182 1.245 . S
C177 C183 1.428 . S
C178 C181 1.260 . S
C178 C182 1.477 . S
C178 H196 0.932 . S
C179 C180 1.384 . S
C179 C181 1.479 . S
C179 H197 0.929 . S
C180 C177 1.424 . S
C180 C179 1.384 . S
C180 H198 0.928 . S
C181 C178 1.260 . S
C181 C179 1.479 . S
C182 C177 1.245 . S
C182 C178 1.477 . S
C182 H199 0.932 . S
C183 U166 2.882 . S
C183 C177 1.428 . S
C183 O186 1.301 . S
C183 O187 1.282 . S
O184 U166 2.441 . S
O184 C170 1.249 . S
O185 U166 2.420 . S
O185 C170 1.202 . S
O186 U166 2.455 . S
O186 C183 1.301 . S
O187 U166 2.449 . S
O187 C183 1.282 . S
H188 C161 0.931 . S
H189 C163 0.929 . S
H190 C164 0.930 . S
H191 C165 0.931 . S
H192 C172 0.932 . S
H193 C173 0.930 . S
H194 C174 0.929 . S
H195 C176 0.930 . S
H196 C178 0.932 . S
H197 C179 0.929 . S
H198 C180 0.928 . S
H199 C182 0.932 . S
C200 C201 1.264 . S
C200 C205 1.479 . S
C200 C210 1.465 . S
C201 C200 1.264 . S
C201 C203 1.339 . S
C201 H228 0.931 . S
C202 C203 1.395 . S
C202 C204 1.320 . S
C203 C201 1.339 . S
C203 C202 1.395 . S
C203 H229 0.929 . S
C204 C202 1.320 . S
C204 C205 1.405 . S
C204 H230 0.930 . S
C205 C200 1.479 . S
C205 C204 1.405 . S
C205 H231 0.931 . S
U206 O207 2.454 . S
U206 O208 2.458 . S
U206 C209 2.984 . S
U206 C210 2.847 1_455 S
U206 C223 2.882 . S
U206 O224 2.441 1_455 S
U206 O225 2.420 1_455 S
U206 O226 2.455 . S
U206 O227 2.449 1_455 S
O207 U206 2.454 . S
O207 C209 1.353 . S
O208 U206 2.458 . S
O208 C209 1.286 . S
C209 U206 2.984 . S
C209 O207 1.353 . S
C209 O208 1.286 . S
C209 C211 1.363 . S
C210 C200 1.465 . S
C210 U206 2.847 1_655 S
C210 O224 1.249 . S
C210 O225 1.202 . S
C211 C209 1.363 . S
C211 C213 1.408 . S
C211 C216 1.342 . S
C212 C213 1.310 . S
C212 C215 1.461 . S
C212 H232 0.932 . S
C213 C211 1.408 . S
C213 C212 1.310 . S
C213 H233 0.930 . S
C214 C215 1.474 . S
C214 C216 1.285 . S
C214 H234 0.929 . S
C215 C212 1.461 . S
C215 C214 1.474 . S
C216 C211 1.342 . S
C216 C214 1.285 . S
C216 H235 0.930 . S
C217 C220 1.423 1_456 S
C217 C222 1.245 1_556 S
C217 C223 1.429 . S
C218 C221 1.260 . S
C218 C222 1.477 . S
C218 H236 0.932 . S
C219 C220 1.384 . S
C219 C221 1.479 1_655 S
C219 H237 0.929 . S
C220 C217 1.423 1_654 S
C220 C219 1.384 . S
C220 H238 0.928 . S
C221 C218 1.260 . S
C221 C219 1.479 1_455 S
C222 C217 1.245 1_554 S
C222 C218 1.477 . S
C222 H239 0.932 . S
C223 U206 2.882 . S
C223 C217 1.429 . S
C223 O226 1.301 . S
C223 O227 1.282 1_455 S
O224 U206 2.441 1_655 S
O224 C210 1.249 . S
O225 U206 2.420 1_655 S
O225 C210 1.202 . S
O226 U206 2.455 . S
O226 C223 1.301 . S
O227 U206 2.449 1_655 S
O227 C223 1.282 1_655 S
H228 C201 0.931 . S
H229 C203 0.929 . S
H230 C204 0.930 . S
H231 C205 0.931 . S
H232 C212 0.932 . S
H233 C213 0.930 . S
H234 C214 0.929 . S
H235 C216 0.930 . S
H236 C218 0.932 . S
H237 C219 0.929 . S
H238 C220 0.928 . S
H239 C222 0.932 . S
C240 C241 1.264 . S
C240 C245 1.479 . S
C240 C250 1.465 . S
C241 C240 1.264 . S
C241 C243 1.339 . S
C241 H268 0.931 . S
C242 C243 1.395 . S
C242 C244 1.320 . S
C243 C241 1.339 . S
C243 C242 1.395 . S
C243 H269 0.929 . S
C244 C242 1.320 . S
C244 C245 1.405 . S
C244 H270 0.930 . S
C245 C240 1.479 . S
C245 C244 1.405 . S
C245 H271 0.931 . S
U246 O247 2.454 1_655 S
U246 O248 2.458 1_655 S
U246 C249 2.984 1_655 S
U246 C250 2.847 . S
U246 C263 2.882 . S
U246 O264 2.441 . S
U246 O265 2.420 . S
U246 O266 2.455 1_655 S
U246 O267 2.449 . S
O247 U246 2.454 1_455 S
O247 C249 1.353 . S
O248 U246 2.458 1_455 S
O248 C249 1.286 . S
C249 U246 2.984 1_455 S
C249 O247 1.353 . S
C249 O248 1.286 . S
C249 C251 1.363 . S
C250 C240 1.465 . S
C250 U246 2.847 . S
C250 O264 1.249 . S
C250 O265 1.202 . S
C251 C249 1.363 . S
C251 C253 1.408 . S
C251 C256 1.342 . S
C252 C253 1.310 . S
C252 C255 1.461 . S
C252 H272 0.932 . S
C253 C251 1.408 . S
C253 C252 1.310 . S
C253 H273 0.930 . S
C254 C255 1.474 . S
C254 C256 1.285 . S
C254 H274 0.929 . S
C255 C252 1.461 . S
C255 C254 1.474 . S
C256 C251 1.342 . S
C256 C254 1.285 . S
C256 H275 0.930 . S
C257 C260 1.424 . S
C257 C262 1.245 1_655 S
C257 C263 1.428 . S
C258 C261 1.260 1_455 S
C258 C262 1.477 . S
C258 H276 0.932 . S
C259 C260 1.384 . S
C259 C261 1.479 . S
C259 H277 0.929 . S
C260 C257 1.424 . S
C260 C259 1.384 . S
C260 H278 0.928 . S
C261 C258 1.260 1_655 S
C261 C259 1.479 . S
C262 C257 1.245 1_455 S
C262 C258 1.477 . S
C262 H279 0.932 . S
C263 U246 2.882 . S
C263 C257 1.428 . S
C263 O266 1.301 1_655 S
C263 O267 1.282 . S
O264 U246 2.441 . S
O264 C250 1.249 . S
O265 U246 2.420 . S
O265 C250 1.202 . S
O266 U246 2.455 1_455 S
O266 C263 1.301 1_455 S
O267 U246 2.449 . S
O267 C263 1.282 . S
H268 C241 0.931 . S
H269 C243 0.929 . S
H270 C244 0.930 . S
H271 C245 0.931 . S
H272 C252 0.932 . S
H273 C253 0.930 . S
H274 C254 0.929 . S
H275 C256 0.930 . S
H276 C258 0.932 . S
H277 C259 0.929 . S
H278 C260 0.928 . S
H279 C262 0.932 . S
C280 C281 1.264 . S
C280 C285 1.479 . S
C280 C290 1.465 . S
C281 C280 1.264 . S
C281 C283 1.339 . S
C281 H308 0.931 . S
C282 C283 1.395 . S
C282 C284 1.320 . S
C283 C281 1.339 . S
C283 C282 1.395 . S
C283 H309 0.929 . S
C284 C282 1.320 . S
C284 C285 1.405 . S
C284 H310 0.930 . S
C285 C280 1.479 . S
C285 C284 1.405 . S
C285 H311 0.931 . S
U286 O287 2.454 1_565 S
U286 O288 2.458 1_565 S
U286 C289 2.984 1_565 S
U286 C290 2.847 . S
U286 C303 2.882 . S
U286 O304 2.441 . S
U286 O305 2.420 . S
U286 O306 2.455 1_565 S
U286 O307 2.449 . S
O287 U286 2.454 1_545 S
O287 C289 1.353 . S
O288 U286 2.458 1_545 S
O288 C289 1.286 . S
C289 U286 2.984 1_545 S
C289 O287 1.353 . S
C289 O288 1.286 . S
C289 C291 1.363 . S
C290 C280 1.465 . S
C290 U286 2.847 . S
C290 O304 1.249 . S
C290 O305 1.202 . S
C291 C289 1.363 . S
C291 C293 1.408 . S
C291 C296 1.342 . S
C292 C293 1.310 . S
C292 C295 1.461 . S
C292 H312 0.932 . S
C293 C291 1.408 . S
C293 C292 1.310 . S
C293 H313 0.930 . S
C294 C295 1.474 . S
C294 C296 1.285 . S
C294 H314 0.929 . S
C295 C292 1.461 . S
C295 C294 1.474 . S
C296 C291 1.342 . S
C296 C294 1.285 . S
C296 H315 0.930 . S
C297 C300 1.424 . S
C297 C302 1.245 1_565 S
C297 C303 1.428 . S
C298 C301 1.260 1_545 S
C298 C302 1.477 . S
C298 H316 0.932 . S
C299 C300 1.384 . S
C299 C301 1.479 . S
C299 H317 0.929 . S
C300 C297 1.424 . S
C300 C299 1.384 . S
C300 H318 0.928 . S
C301 C298 1.260 1_565 S
C301 C299 1.479 . S
C302 C297 1.245 1_545 S
C302 C298 1.477 . S
C302 H319 0.932 . S
C303 U286 2.882 . S
C303 C297 1.428 . S
C303 O306 1.301 1_565 S
C303 O307 1.282 . S
O304 U286 2.441 . S
O304 C290 1.249 . S
O305 U286 2.420 . S
O305 C290 1.202 . S
O306 U286 2.455 1_545 S
O306 C303 1.301 1_545 S
O307 U286 2.449 . S
O307 C303 1.282 . S
H308 C281 0.931 . S
H309 C283 0.929 . S
H310 C284 0.930 . S
H311 C285 0.931 . S
H312 C292 0.932 . S
H313 C293 0.930 . S
H314 C294 0.929 . S
H315 C296 0.930 . S
H316 C298 0.932 . S
H317 C299 0.929 . S
H318 C300 0.928 . S
H319 C302 0.932 . S
C320 C321 1.264 . S
C320 C325 1.479 . S
C320 C330 1.465 . S
C321 C320 1.264 . S
C321 C323 1.339 . S
C321 H348 0.931 . S
C322 C323 1.395 . S
C322 C324 1.320 . S
C323 C321 1.339 . S
C323 C322 1.395 . S
C323 H349 0.929 . S
C324 C322 1.320 . S
C324 C325 1.405 . S
C324 H350 0.930 . S
C325 C320 1.479 . S
C325 C324 1.405 . S
C325 H351 0.931 . S
U326 O327 2.454 . S
U326 O328 2.458 . S
U326 C329 2.984 . S
U326 C330 2.847 . S
U326 C343 2.882 . S
U326 O344 2.441 . S
U326 O345 2.420 . S
U326 O346 2.455 . S
U326 O347 2.449 . S
O327 U326 2.454 . S
O327 C329 1.353 . S
O328 U326 2.458 . S
O328 C329 1.286 . S
C329 U326 2.984 . S
C329 O327 1.353 . S
C329 O328 1.286 . S
C329 C331 1.363 . S
C330 C320 1.465 . S
C330 U326 2.847 . S
C330 O344 1.249 . S
C330 O345 1.202 . S
C331 C329 1.363 . S
C331 C333 1.408 . S
C331 C336 1.342 . S
C332 C333 1.310 . S
C332 C335 1.461 . S
C332 H352 0.932 . S
C333 C331 1.408 . S
C333 C332 1.310 . S
C333 H353 0.930 . S
C334 C335 1.474 . S
C334 C336 1.285 . S
C334 H354 0.929 . S
C335 C332 1.461 . S
C335 C334 1.474 . S
C336 C331 1.342 . S
C336 C334 1.285 . S
C336 H355 0.930 . S
C337 C340 1.424 . S
C337 C342 1.245 . S
C337 C343 1.428 1_556 S
C338 C341 1.260 . S
C338 C342 1.477 . S
C338 H356 0.932 . S
C339 C340 1.384 . S
C339 C341 1.479 . S
C339 H357 0.929 . S
C340 C337 1.424 . S
C340 C339 1.384 . S
C340 H358 0.928 . S
C341 C338 1.260 . S
C341 C339 1.479 . S
C342 C337 1.245 . S
C342 C338 1.477 . S
C342 H359 0.932 . S
C343 U326 2.882 . S
C343 C337 1.428 1_554 S
C343 O346 1.301 . S
C343 O347 1.282 . S
O344 U326 2.441 . S
O344 C330 1.249 . S
O345 U326 2.420 . S
O345 C330 1.202 . S
O346 U326 2.455 . S
O346 C343 1.301 . S
O347 U326 2.449 . S
O347 C343 1.282 . S
H348 C321 0.931 . S
H349 C323 0.929 . S
H350 C324 0.930 . S
H351 C325 0.931 . S
H352 C332 0.932 . S
H353 C333 0.930 . S
H354 C334 0.929 . S
H355 C336 0.930 . S
H356 C338 0.932 . S
H357 C339 0.929 . S
H358 C340 0.928 . S
H359 C342 0.932 . S
C7 C335 2.875 . S
C51 C242 3.132 . S
C87 C282 2.073 . S
C16 C322 1.220 . S
C255 C42 3.597 . S
C295 C96 1.379 . S
C47 C162 1.271 . S
C91 C202 5.252 . S
C2 C135 3.729 . S
C175 C56 1.440 . S
C215 C82 5.120 . S
C11 C122 3.136 . S
C221 C19 2.017 . S
C50 C141 1.329 . S
C99 C181 1.457 . S
C301 C59 1.570 1_565 S
C341 C90 1.677 . S
C10 C261 1.314 1_455 S
