# Generated by pormake.
# Topology gar, (4,6)-cn, num edge types: 1
# Building blocks:
#     Node 0, Type 0, BuildingBlock: CEKHIL_clean_sbu_0, # of connection points: 4
#     Node 1, Type 0, BuildingBlock: CEKHIL_clean_sbu_0, # of connection points: 4
#     Node 2, Type 0, BuildingBlock: CEKHIL_clean_sbu_0, # of connection points: 4
#     Node 3, Type 0, BuildingBlock: CEKHIL_clean_sbu_0, # of connection points: 4
#     Node 4, Type 0, BuildingBlock: CEKHIL_clean_sbu_0, # of connection points: 4
#     Node 5, Type 0, BuildingBlock: CEKHIL_clean_sbu_0, # of connection points: 4
#     Node 6, Type 0, BuildingBlock: CEKHIL_clean_sbu_0, # of connection points: 4
#     Node 7, Type 0, BuildingBlock: CEKHIL_clean_sbu_0, # of connection points: 4
#     Node 8, Type 0, BuildingBlock: CEKHIL_clean_sbu_0, # of connection points: 4
#     Node 9, Type 0, BuildingBlock: CEKHIL_clean_sbu_0, # of connection points: 4
#     Node 10, Type 0, BuildingBlock: CEKHIL_clean_sbu_0, # of connection points: 4
#     Node 11, Type 0, BuildingBlock: CEKHIL_clean_sbu_0, # of connection points: 4
#     Node 12, Type 0, BuildingBlock: CEKHIL_clean_sbu_0, # of connection points: 4
#     Node 13, Type 0, BuildingBlock: CEKHIL_clean_sbu_0, # of connection points: 4
#     Node 14, Type 0, BuildingBlock: CEKHIL_clean_sbu_0, # of connection points: 4
#     Node 15, Type 0, BuildingBlock: CEKHIL_clean_sbu_0, # of connection points: 4
#     Node 16, Type 0, BuildingBlock: CEKHIL_clean_sbu_0, # of connection points: 4
#     Node 17, Type 0, BuildingBlock: CEKHIL_clean_sbu_0, # of connection points: 4
#     Node 18, Type 0, BuildingBlock: CEKHIL_clean_sbu_0, # of connection points: 4
#     Node 19, Type 0, BuildingBlock: CEKHIL_clean_sbu_0, # of connection points: 4
#     Node 20, Type 0, BuildingBlock: CEKHIL_clean_sbu_0, # of connection points: 4
#     Node 21, Type 0, BuildingBlock: CEKHIL_clean_sbu_0, # of connection points: 4
#     Node 22, Type 0, BuildingBlock: CEKHIL_clean_sbu_0, # of connection points: 4
#     Node 23, Type 0, BuildingBlock: CEKHIL_clean_sbu_0, # of connection points: 4
#     Node 24, Type 1, BuildingBlock: CUKXOW_clean_sbu_0, # of connection points: 6
#     Node 25, Type 1, BuildingBlock: CUKXOW_clean_sbu_0, # of connection points: 6
#     Node 26, Type 1, BuildingBlock: CUKXOW_clean_sbu_0, # of connection points: 6
#     Node 27, Type 1, BuildingBlock: CUKXOW_clean_sbu_0, # of connection points: 6
#     Node 28, Type 1, BuildingBlock: CUKXOW_clean_sbu_0, # of connection points: 6
#     Node 29, Type 1, BuildingBlock: CUKXOW_clean_sbu_0, # of connection points: 6
#     Node 30, Type 1, BuildingBlock: CUKXOW_clean_sbu_0, # of connection points: 6
#     Node 31, Type 1, BuildingBlock: CUKXOW_clean_sbu_0, # of connection points: 6
#     Node 32, Type 1, BuildingBlock: CUKXOW_clean_sbu_0, # of connection points: 6
#     Node 33, Type 1, BuildingBlock: CUKXOW_clean_sbu_0, # of connection points: 6
#     Node 34, Type 1, BuildingBlock: CUKXOW_clean_sbu_0, # of connection points: 6
#     Node 35, Type 1, BuildingBlock: CUKXOW_clean_sbu_0, # of connection points: 6
#     Node 36, Type 1, BuildingBlock: CUKXOW_clean_sbu_0, # of connection points: 6
#     Node 37, Type 1, BuildingBlock: CUKXOW_clean_sbu_0, # of connection points: 6
#     Node 38, Type 1, BuildingBlock: CUKXOW_clean_sbu_0, # of connection points: 6
#     Node 39, Type 1, BuildingBlock: CUKXOW_clean_sbu_0, # of connection points: 6
#     Edge 40, Type (0, 1), BuildingBlock: AJUNOK_clean_linker_0, # of connection points: 2
#     Edge 41, Type (0, 1), BuildingBlock: AJUNOK_clean_linker_0, # of connection points: 2
#     Edge 42, Type (0, 1), BuildingBlock: AJUNOK_clean_linker_0, # of connection points: 2
#     Edge 43, Type (0, 1), BuildingBlock: AJUNOK_clean_linker_0, # of connection points: 2
#     Edge 44, Type (0, 1), BuildingBlock: AJUNOK_clean_linker_0, # of connection points: 2
#     Edge 45, Type (0, 1), BuildingBlock: AJUNOK_clean_linker_0, # of connection points: 2
#     Edge 46, Type (0, 1), BuildingBlock: AJUNOK_clean_linker_0, # of connection points: 2
#     Edge 47, Type (0, 1), BuildingBlock: AJUNOK_clean_linker_0, # of connection points: 2
#     Edge 48, Type (0, 1), BuildingBlock: AJUNOK_clean_linker_0, # of connection points: 2
#     Edge 49, Type (0, 1), BuildingBlock: AJUNOK_clean_linker_0, # of connection points: 2
#     Edge 50, Type (0, 1), BuildingBlock: AJUNOK_clean_linker_0, # of connection points: 2
#     Edge 51, Type (0, 1), BuildingBlock: AJUNOK_clean_linker_0, # of connection points: 2
#     Edge 52, Type (0, 1), BuildingBlock: AJUNOK_clean_linker_0, # of connection points: 2
#     Edge 53, Type (0, 1), BuildingBlock: AJUNOK_clean_linker_0, # of connection points: 2
#     Edge 54, Type (0, 1), BuildingBlock: AJUNOK_clean_linker_0, # of connection points: 2
#     Edge 55, Type (0, 1), BuildingBlock: AJUNOK_clean_linker_0, # of connection points: 2
#     Edge 56, Type (0, 1), BuildingBlock: AJUNOK_clean_linker_0, # of connection points: 2
#     Edge 57, Type (0, 1), BuildingBlock: AJUNOK_clean_linker_0, # of connection points: 2
#     Edge 58, Type (0, 1), BuildingBlock: AJUNOK_clean_linker_0, # of connection points: 2
#     Edge 59, Type (0, 1), BuildingBlock: AJUNOK_clean_linker_0, # of connection points: 2
#     Edge 60, Type (0, 1), BuildingBlock: AJUNOK_clean_linker_0, # of connection points: 2
#     Edge 61, Type (0, 1), BuildingBlock: AJUNOK_clean_linker_0, # of connection points: 2
#     Edge 62, Type (0, 1), BuildingBlock: AJUNOK_clean_linker_0, # of connection points: 2
#     Edge 63, Type (0, 1), BuildingBlock: AJUNOK_clean_linker_0, # of connection points: 2
#     Edge 64, Type (0, 1), BuildingBlock: AJUNOK_clean_linker_0, # of connection points: 2
#     Edge 65, Type (0, 1), BuildingBlock: AJUNOK_clean_linker_0, # of connection points: 2
#     Edge 66, Type (0, 1), BuildingBlock: AJUNOK_clean_linker_0, # of connection points: 2
#     Edge 67, Type (0, 1), BuildingBlock: AJUNOK_clean_linker_0, # of connection points: 2
#     Edge 68, Type (0, 1), BuildingBlock: AJUNOK_clean_linker_0, # of connection points: 2
#     Edge 69, Type (0, 1), BuildingBlock: AJUNOK_clean_linker_0, # of connection points: 2
#     Edge 70, Type (0, 1), BuildingBlock: AJUNOK_clean_linker_0, # of connection points: 2
#     Edge 71, Type (0, 1), BuildingBlock: AJUNOK_clean_linker_0, # of connection points: 2
#     Edge 72, Type (0, 1), BuildingBlock: AJUNOK_clean_linker_0, # of connection points: 2
#     Edge 73, Type (0, 1), BuildingBlock: AJUNOK_clean_linker_0, # of connection points: 2
#     Edge 74, Type (0, 1), BuildingBlock: AJUNOK_clean_linker_0, # of connection points: 2
#     Edge 75, Type (0, 1), BuildingBlock: AJUNOK_clean_linker_0, # of connection points: 2
#     Edge 76, Type (0, 1), BuildingBlock: AJUNOK_clean_linker_0, # of connection points: 2
#     Edge 77, Type (0, 1), BuildingBlock: AJUNOK_clean_linker_0, # of connection points: 2
#     Edge 78, Type (0, 1), BuildingBlock: AJUNOK_clean_linker_0, # of connection points: 2
#     Edge 79, Type (0, 1), BuildingBlock: AJUNOK_clean_linker_0, # of connection points: 2
#     Edge 80, Type (0, 1), BuildingBlock: AJUNOK_clean_linker_0, # of connection points: 2
#     Edge 81, Type (0, 1), BuildingBlock: AJUNOK_clean_linker_0, # of connection points: 2
#     Edge 82, Type (0, 1), BuildingBlock: AJUNOK_clean_linker_0, # of connection points: 2
#     Edge 83, Type (0, 1), BuildingBlock: AJUNOK_clean_linker_0, # of connection points: 2
#     Edge 84, Type (0, 1), BuildingBlock: AJUNOK_clean_linker_0, # of connection points: 2
#     Edge 85, Type (0, 1), BuildingBlock: AJUNOK_clean_linker_0, # of connection points: 2
#     Edge 86, Type (0, 1), BuildingBlock: AJUNOK_clean_linker_0, # of connection points: 2
#     Edge 87, Type (0, 1), BuildingBlock: AJUNOK_clean_linker_0, # of connection points: 2
#     Edge 88, Type (0, 1), BuildingBlock: AJUNOK_clean_linker_0, # of connection points: 2
#     Edge 89, Type (0, 1), BuildingBlock: AJUNOK_clean_linker_0, # of connection points: 2
#     Edge 90, Type (0, 1), BuildingBlock: AJUNOK_clean_linker_0, # of connection points: 2
#     Edge 91, Type (0, 1), BuildingBlock: AJUNOK_clean_linker_0, # of connection points: 2
#     Edge 92, Type (0, 1), BuildingBlock: AJUNOK_clean_linker_0, # of connection points: 2
#     Edge 93, Type (0, 1), BuildingBlock: AJUNOK_clean_linker_0, # of connection points: 2
#     Edge 94, Type (0, 1), BuildingBlock: AJUNOK_clean_linker_0, # of connection points: 2
#     Edge 95, Type (0, 1), BuildingBlock: AJUNOK_clean_linker_0, # of connection points: 2
#     Edge 96, Type (0, 1), BuildingBlock: AJUNOK_clean_linker_0, # of connection points: 2
#     Edge 97, Type (0, 1), BuildingBlock: AJUNOK_clean_linker_0, # of connection points: 2
#     Edge 98, Type (0, 1), BuildingBlock: AJUNOK_clean_linker_0, # of connection points: 2
#     Edge 99, Type (0, 1), BuildingBlock: AJUNOK_clean_linker_0, # of connection points: 2
#     Edge 100, Type (0, 1), BuildingBlock: AJUNOK_clean_linker_0, # of connection points: 2
#     Edge 101, Type (0, 1), BuildingBlock: AJUNOK_clean_linker_0, # of connection points: 2
#     Edge 102, Type (0, 1), BuildingBlock: AJUNOK_clean_linker_0, # of connection points: 2
#     Edge 103, Type (0, 1), BuildingBlock: AJUNOK_clean_linker_0, # of connection points: 2
#     Edge 104, Type (0, 1), BuildingBlock: AJUNOK_clean_linker_0, # of connection points: 2
#     Edge 105, Type (0, 1), BuildingBlock: AJUNOK_clean_linker_0, # of connection points: 2
#     Edge 106, Type (0, 1), BuildingBlock: AJUNOK_clean_linker_0, # of connection points: 2
#     Edge 107, Type (0, 1), BuildingBlock: AJUNOK_clean_linker_0, # of connection points: 2
#     Edge 108, Type (0, 1), BuildingBlock: AJUNOK_clean_linker_0, # of connection points: 2
#     Edge 109, Type (0, 1), BuildingBlock: AJUNOK_clean_linker_0, # of connection points: 2
#     Edge 110, Type (0, 1), BuildingBlock: AJUNOK_clean_linker_0, # of connection points: 2
#     Edge 111, Type (0, 1), BuildingBlock: AJUNOK_clean_linker_0, # of connection points: 2
#     Edge 112, Type (0, 1), BuildingBlock: AJUNOK_clean_linker_0, # of connection points: 2
#     Edge 113, Type (0, 1), BuildingBlock: AJUNOK_clean_linker_0, # of connection points: 2
#     Edge 114, Type (0, 1), BuildingBlock: AJUNOK_clean_linker_0, # of connection points: 2
#     Edge 115, Type (0, 1), BuildingBlock: AJUNOK_clean_linker_0, # of connection points: 2
#     Edge 116, Type (0, 1), BuildingBlock: AJUNOK_clean_linker_0, # of connection points: 2
#     Edge 117, Type (0, 1), BuildingBlock: AJUNOK_clean_linker_0, # of connection points: 2
#     Edge 118, Type (0, 1), BuildingBlock: AJUNOK_clean_linker_0, # of connection points: 2
#     Edge 119, Type (0, 1), BuildingBlock: AJUNOK_clean_linker_0, # of connection points: 2
#     Edge 120, Type (0, 1), BuildingBlock: AJUNOK_clean_linker_0, # of connection points: 2
#     Edge 121, Type (0, 1), BuildingBlock: AJUNOK_clean_linker_0, # of connection points: 2
#     Edge 122, Type (0, 1), BuildingBlock: AJUNOK_clean_linker_0, # of connection points: 2
#     Edge 123, Type (0, 1), BuildingBlock: AJUNOK_clean_linker_0, # of connection points: 2
#     Edge 124, Type (0, 1), BuildingBlock: AJUNOK_clean_linker_0, # of connection points: 2
#     Edge 125, Type (0, 1), BuildingBlock: AJUNOK_clean_linker_0, # of connection points: 2
#     Edge 126, Type (0, 1), BuildingBlock: AJUNOK_clean_linker_0, # of connection points: 2
#     Edge 127, Type (0, 1), BuildingBlock: AJUNOK_clean_linker_0, # of connection points: 2
#     Edge 128, Type (0, 1), BuildingBlock: AJUNOK_clean_linker_0, # of connection points: 2
#     Edge 129, Type (0, 1), BuildingBlock: AJUNOK_clean_linker_0, # of connection points: 2
#     Edge 130, Type (0, 1), BuildingBlock: AJUNOK_clean_linker_0, # of connection points: 2
#     Edge 131, Type (0, 1), BuildingBlock: AJUNOK_clean_linker_0, # of connection points: 2
#     Edge 132, Type (0, 1), BuildingBlock: AJUNOK_clean_linker_0, # of connection points: 2
#     Edge 133, Type (0, 1), BuildingBlock: AJUNOK_clean_linker_0, # of connection points: 2
#     Edge 134, Type (0, 1), BuildingBlock: AJUNOK_clean_linker_0, # of connection points: 2
#     Edge 135, Type (0, 1), BuildingBlock: AJUNOK_clean_linker_0, # of connection points: 2
# Relax obj value: 0.121
# Max RMSD: 0.233
# Mean RMSD: 0.122
data_MOF--net-gar--node1-CEKHIL_clean_sbu_0--node2-CUKXOW_clean_sbu_0--edge1-AJUNOK_clean_linker_0
_symmetry_space_group_name_H-M    P1
_symmetry_Int_Tables_number       1
_symmetry_cell_setting            triclinic
loop_
_symmetry_equiv_pos_as_xyz
'x, y, z'
_cell_length_a     40.81445
_cell_length_b     39.121354
_cell_length_c     38.875607
_cell_angle_alpha  94.147089
_cell_angle_beta   94.333171
_cell_angle_gamma 97.258908
loop_
_atom_site_label
_atom_site_type_symbol
_atom_site_fract_x
_atom_site_fract_y
_atom_site_fract_z
_atom_type_partial_charge
Co0 Co 0.05176 0.28591 0.44856 0.0
O1 O 0.09618 0.27354 0.44717 0.0
O2 O 0.0567 0.26366 0.4041 0.0
C3 C 0.06617 0.3402 0.47393 0.0
O4 O 1.00513 0.29561 0.43624 0.0
Co5 Co 1.01611 0.30574 0.51275 0.0
O6 O 0.98028 0.31799 0.48027 0.0
C7 C 0.02916 0.23392 0.49801 0.0
C8 C 0.08708 0.26182 0.41514 0.0
C9 C 0.98086 0.309 0.44824 0.0
O10 O 0.03598 0.24036 0.4671 0.0
O11 O 0.02383 0.2573 0.5209 0.0
O12 O 0.06833 0.33366 0.44092 0.0
O13 O 0.05741 0.31368 0.49062 0.0
Co14 Co 1.01025 0.8031 0.61039 0.0
O15 O 0.96317 0.805 0.60972 0.0
O16 O 0.99471 0.78798 0.65253 0.0
C17 C 0.02246 0.85561 0.59141 0.0
O18 O 0.05784 0.79913 0.62408 0.0
Co19 Co 0.05434 0.80823 0.55014 0.0
O20 O 0.09337 0.81059 0.58449 0.0
C21 C 1.00858 0.74398 0.55611 0.0
C22 C 0.96609 0.79553 0.64115 0.0
C23 C 0.08732 0.80316 0.61488 0.0
O24 O 1.00276 0.75468 0.58692 0.0
O25 O 0.02566 0.76304 0.53669 0.0
O26 O 1.01825 0.8526 0.62388 0.0
O27 O 1.01832 0.82743 0.57132 0.0
Co28 Co 0.55467 0.78225 0.94302 0.0
O29 O 0.59964 0.77152 0.9419 0.0
O30 O 0.55985 0.75875 0.89927 0.0
C31 C 0.56701 0.83742 0.96566 0.0
O32 O 0.50747 0.78963 0.93073 0.0
Co33 Co 0.51934 0.80363 1.00726 0.0
O34 O 0.48207 0.8122 0.97424 0.0
C35 C 0.53313 0.73172 0.99423 0.0
C36 C 0.59056 0.75856 0.91024 0.0
C37 C 0.48264 0.80207 0.94246 0.0
O38 O 0.54048 0.73745 0.96335 0.0
O39 O 0.52732 0.75543 0.01653 0.0
O40 O 0.56912 0.82948 0.93287 0.0
O41 O 0.55997 0.81175 0.98406 0.0
Co42 Co 0.51319 0.30422 0.11508 0.0
O43 O 0.46583 0.30462 0.11277 0.0
O44 O 0.49653 0.28866 0.15676 0.0
C45 C 0.52419 0.35679 0.09606 0.0
O46 O 0.56113 0.30172 0.13006 0.0
Co47 Co 0.5583 0.31155 0.05524 0.0
O48 O 0.59641 0.31672 0.0909 0.0
C49 C 0.51413 0.24595 0.06054 0.0
C50 C 0.46787 0.29527 0.14426 0.0
C51 C 0.59063 0.30833 0.12108 0.0
O52 O 0.50758 0.25597 0.09135 0.0
O53 O 0.53122 0.26556 0.04165 0.0
O54 O 0.51942 0.35384 0.12843 0.0
O55 O 0.52133 0.3286 0.07624 0.0
Co56 Co 1.0075 0.77934 0.1775 0.0
O57 O 0.95901 0.77155 0.17048 0.0
O58 O 0.98741 0.76551 0.21932 0.0
C59 C 1.01001 0.82942 0.15113 0.0
O60 O 0.0569 0.78701 0.19759 0.0
Co61 Co 0.05674 0.7917 0.12124 0.0
O62 O 0.09054 0.8095 0.1596 0.0
C63 C 1.02032 0.72138 0.12748 0.0
C64 C 0.9585 0.76598 0.20297 0.0
C65 C 0.0857 0.80098 0.18995 0.0
O66 O 1.01089 0.73003 0.15774 0.0
O67 O 0.03576 0.74292 0.10908 0.0
O68 O 1.00483 0.82948 0.18376 0.0
O69 O 1.01447 0.80021 0.13644 0.0
Co70 Co 0.55134 0.81475 0.37838 0.0
O71 O 0.60013 0.82392 0.38349 0.0
O72 O 0.57036 0.80215 0.33575 0.0
C73 C 0.54157 0.86518 0.40657 0.0
O74 O 0.5015 0.80215 0.36063 0.0
Co75 Co 0.50643 0.81041 0.43973 0.0
O76 O 0.46832 0.79999 0.40435 0.0
C77 C 0.55374 0.76128 0.42799 0.0
C78 C 0.59969 0.81196 0.35131 0.0
C79 C 0.47243 0.79705 0.37218 0.0
O80 O 0.5538 0.76756 0.39584 0.0
O81 O 0.54041 0.77939 0.45033 0.0
O82 O 0.54826 0.86462 0.37425 0.0
O83 O 0.54296 0.83661 0.42037 0.0
Co84 Co 0.50819 0.27765 0.67735 0.0
O85 O 0.45982 0.27078 0.66962 0.0
O86 O 0.48741 0.26326 0.71854 0.0
C87 C 0.5124 0.32856 0.65255 0.0
O88 O 0.55743 0.28433 0.6978 0.0
Co89 Co 0.55769 0.28967 0.62118 0.0
O90 O 0.59118 0.30708 0.65998 0.0
C91 C 0.52012 0.21986 0.62662 0.0
C92 C 0.45878 0.26454 0.70189 0.0
C93 C 0.58623 0.2984 0.69026 0.0
O94 O 0.5109 0.22849 0.65693 0.0
O95 O 0.5359 0.24127 0.60833 0.0
O96 O 0.50639 0.32771 0.6849 0.0
O97 O 0.51599 0.29944 0.63694 0.0
Co98 Co 0.0538 0.31537 0.88077 0.0
O99 O 0.10261 0.32486 0.88487 0.0
O100 O 0.0721 0.30269 0.83773 0.0
C101 C 0.04417 0.36599 0.90888 0.0
O102 O 1.00379 0.30253 0.86388 0.0
Co103 Co 1.00959 0.31129 0.94268 0.0
O104 O 0.97093 0.30276 0.90787 0.0
C105 C 0.05648 0.26158 0.93026 0.0
C106 C 0.10163 0.31282 0.85266 0.0
C107 C 0.97481 0.29856 0.87575 0.0
O108 O 0.05694 0.26835 0.89827 0.0
O109 O 0.04289 0.27942 0.95263 0.0
O110 O 0.05033 0.36511 0.87641 0.0
O111 O 0.04591 0.33756 0.92293 0.0
Co112 Co 0.4185 0.0903 0.26855 0.0
O113 O 0.41344 0.13979 0.2649 0.0
O114 O 0.37573 0.09623 0.24652 0.0
C115 C 0.44061 0.09475 0.32574 0.0
O116 O 0.40764 0.03832 0.26823 0.0
Co117 Co 0.47917 0.05332 0.28727 0.0
O118 O 0.44575 0.01589 0.30062 0.0
C119 C 0.46771 0.07448 0.21532 0.0
C120 C 0.38314 0.12936 0.25161 0.0
C121 C 0.41675 0.0141 0.2856 0.0
O122 O 0.43959 0.08504 0.22186 0.0
O123 O 0.48679 0.06322 0.23838 0.0
O124 O 0.40909 0.09523 0.31793 0.0
O125 O 0.45774 0.09353 0.29926 0.0
Co126 Co 0.28043 0.14158 0.48461 0.0
O127 O 0.32482 0.14761 0.50658 0.0
O128 O 0.28935 0.09934 0.5034 0.0
C129 C 0.29582 0.16807 0.43787 0.0
O130 O 0.23332 0.12384 0.46525 0.0
Co131 Co 0.24129 0.19993 0.4616 0.0
O132 O 0.20389 0.16371 0.44527 0.0
C133 C 0.2536 0.18815 0.53598 0.0
C134 C 0.31853 0.1156 0.51373 0.0
C135 C 0.20622 0.13271 0.45195 0.0
O136 O 0.26377 0.15894 0.52864 0.0
O137 O 0.24687 0.20895 0.51327 0.0
O138 O 0.29782 0.13521 0.43921 0.0
O139 O 0.28402 0.18314 0.46375 0.0
Co140 Co 0.18356 0.01401 0.81621 0.0
O141 O 0.18196 0.96428 0.80947 0.0
O142 O 0.22737 1.00146 0.80973 0.0
C143 C 0.15035 0.0129 0.86109 0.0
O144 O 0.19681 0.06671 0.82217 0.0
Co145 Co 0.12244 0.05346 0.81046 0.0
O146 O 0.15325 0.09624 0.82471 0.0
C147 C 0.14497 0.01749 0.74888 0.0
C148 C 0.21365 0.96945 0.80627 0.0
C149 C 0.18437 0.09538 0.8256 0.0
O150 O 0.17345 0.01583 0.76484 0.0
O151 O 0.12061 0.02779 0.7637 0.0
O152 O 0.18194 0.011 0.8667 0.0
O153 O 0.14024 0.01455 0.82924 0.0
Co154 Co 0.23281 0.89896 0.03297 0.0
O155 O 0.1849 0.9017 0.0363 0.0
O156 O 0.22444 0.94329 0.05487 0.0
C157 C 0.22869 0.87703 0.97556 0.0
O158 O 0.28332 0.9112 0.03205 0.0
Co159 Co 0.26627 0.83406 0.01441 0.0
O160 O 0.30638 0.8668 1.00876 0.0
C161 C 0.2474 0.84637 0.08654 0.0
C162 C 0.19279 0.93359 0.04929 0.0
C163 C 0.30829 0.89832 0.02036 0.0
O164 O 0.23846 0.87641 0.08007 0.0
O165 O 0.25652 0.82597 0.06292 0.0
O166 O 0.228 0.9097 0.9839 0.0
O167 O 0.22947 0.85846 1.00157 0.0
Co168 Co 0.27788 0.43288 0.0549 0.0
O169 O 0.23361 0.4263 0.03279 0.0
O170 O 0.2559 0.47283 0.06613 0.0
C171 C 0.3008 0.41542 1.00736 0.0
O172 O 0.32372 0.45037 0.07933 0.0
Co173 Co 0.31947 0.37194 0.06079 0.0
O174 O 0.35699 0.40897 0.07328 0.0
C175 C 0.25997 0.37503 0.09851 0.0
C176 C 0.23104 0.45733 0.04543 0.0
C177 C 0.35256 0.44006 0.08151 0.0
O178 O 0.26167 0.40785 0.09541 0.0
O179 O 0.27826 0.35585 0.08283 0.0
O180 O 0.29453 0.44713 0.01179 0.0
O181 O 0.29158 0.39546 0.03071 0.0
Co182 Co 0.8321 0.17896 0.01195 0.0
O183 O 0.8808 0.17858 0.01102 0.0
O184 O 0.84584 0.1333 0.01836 0.0
C185 C 0.8243 0.21027 0.9635 0.0
O186 O 0.78189 0.16453 0.01313 0.0
Co187 Co 0.79387 0.24269 0.01857 0.0
O188 O 0.75261 0.20912 0.01013 0.0
C189 C 0.82815 0.22083 0.08175 0.0
C190 C 0.87635 0.14554 0.01491 0.0
C191 C 0.754 0.1769 0.01161 0.0
O192 O 0.83553 0.19316 0.06481 0.0
O193 O 0.81465 0.2444 0.06707 0.0
O194 O 0.82691 0.17738 0.9601 0.0
O195 O 0.82816 0.2231 0.99517 0.0
Co196 Co 0.13334 0.48261 0.29277 0.0
O197 O 0.13332 0.43209 0.29282 0.0
O198 O 0.17599 0.46911 0.28312 0.0
C199 C 0.10757 0.48998 0.34315 0.0
O200 O 0.14827 0.53407 0.29242 0.0
Co201 Co 0.07529 0.52618 0.29296 0.0
O202 O 0.10918 0.56787 0.3016 0.0
C203 C 0.08879 0.48869 0.22705 0.0
C204 C 0.1647 0.43748 0.28762 0.0
C205 C 0.13911 0.5641 0.29709 0.0
O206 O 0.11623 0.47993 0.24104 0.0
O207 O 0.06867 0.5039 0.24454 0.0
O208 O 0.13898 0.48686 0.34411 0.0
O209 O 0.09268 0.48729 0.3125 0.0
Co210 Co 0.77913 0.93754 0.55654 0.0
O211 O 0.73417 0.93121 0.5359 0.0
O212 O 0.75822 0.9783 0.56728 0.0
C213 C 0.8006 0.91807 0.50879 0.0
O214 O 0.82575 0.95521 0.57904 0.0
Co215 Co 0.82017 0.87658 0.56374 0.0
O216 O 0.85839 0.91316 0.57406 0.0
C217 C 0.76167 0.8815 0.60233 0.0
C218 C 0.73257 0.96276 0.54779 0.0
C219 C 0.85445 0.9446 0.58104 0.0
O220 O 0.76396 0.91426 0.59866 0.0
O221 O 0.77932 0.86156 0.58675 0.0
O222 O 0.79447 0.94988 0.51226 0.0
O223 O 0.79177 0.89896 0.53297 0.0
Co224 Co 0.87935 0.06532 0.24779 0.0
O225 O 0.88515 0.1149 0.25834 0.0
O226 O 0.83883 0.08393 0.23495 0.0
C227 C 0.90305 0.05426 0.29897 0.0
O228 O 0.86236 0.01354 0.23627 0.0
Co229 Co 0.93804 0.0222 0.24637 0.0
O230 O 0.90396 0.98121 0.24286 0.0
C231 C 0.92888 0.07285 0.19578 0.0
C232 C 0.85401 0.11382 0.24806 0.0
C233 C 0.87329 0.984 0.2375 0.0
O234 O 0.89785 0.07137 0.20113 0.0
O235 O 0.94959 0.05904 0.2148 0.0
O236 O 0.87212 0.05939 0.29631 0.0
O237 O 0.91845 0.05777 0.27156 0.0
Co238 Co 0.33361 0.67552 0.5097 0.0
O239 O 0.38208 0.67359 0.50837 0.0
O240 O 0.34591 0.62945 0.5162 0.0
C241 C 0.32593 0.70636 0.46112 0.0
O242 O 0.28325 0.66307 0.51118 0.0
Co243 Co 0.29883 0.74184 0.51684 0.0
O244 O 0.25668 0.70968 0.50761 0.0
C245 C 0.33202 0.71837 0.57957 0.0
C246 C 0.37659 0.6406 0.51228 0.0
C247 C 0.25633 0.67718 0.50896 0.0
O248 O 0.33762 0.68997 0.56253 0.0
O249 O 0.32026 0.743 0.56498 0.0
O250 O 0.32782 0.67333 0.45786 0.0
O251 O 0.33098 0.71955 0.49265 0.0
Co252 Co 0.3786 0.5691 0.75197 0.0
O253 O 0.38185 0.61894 0.76119 0.0
O254 O 0.3371 0.58507 0.73817 0.0
C255 C 0.40289 0.56028 0.80368 0.0
O256 O 0.36402 0.51667 0.74152 0.0
Co257 Co 0.43978 0.52936 0.75228 0.0
O258 O 0.40744 0.48678 0.74793 0.0
C259 C 0.42765 0.57642 0.699 0.0
C260 C 0.35063 0.61585 0.75047 0.0
C261 C 0.37647 0.4879 0.7423 0.0
O262 O 0.39675 0.57448 0.70507 0.0
O263 O 0.44939 0.5649 0.7188 0.0
O264 O 0.37158 0.56391 0.8007 0.0
O265 O 0.41822 0.56407 0.77628 0.0
Co266 Co 0.63369 0.98698 0.79155 0.0
O267 O 0.63549 0.93653 0.79249 0.0
O268 O 0.67645 0.97501 0.78183 0.0
C269 C 0.60765 0.99566 0.84159 0.0
O270 O 0.64798 0.03822 0.79035 0.0
Co271 Co 0.57536 0.03018 0.78989 0.0
O272 O 0.60896 0.07225 0.79838 0.0
C273 C 0.58938 0.99069 0.72545 0.0
C274 C 0.6667 0.94322 0.78673 0.0
C275 C 0.63894 0.06828 0.79434 0.0
O276 O 0.61696 0.98297 0.73992 0.0
O277 O 0.56894 1.0063 0.74208 0.0
O278 O 0.63905 0.99228 0.84283 0.0
O279 O 0.59285 0.9919 0.81085 0.0
Co280 Co 0.7766 0.64326 0.98469 0.0
O281 O 0.82155 0.65103 1.00561 0.0
O282 O 0.78991 0.60024 0.99726 0.0
C283 C 0.78737 0.67769 0.94164 0.0
O284 O 0.73 0.62308 0.96531 0.0
Co285 Co 0.73079 0.69911 0.97119 0.0
O286 O 0.69627 0.66151 0.95126 0.0
C287 C 0.74842 0.67983 0.0423 0.0
C288 C 0.81805 0.61794 1.00902 0.0
C289 C 0.70151 0.63047 0.95432 0.0
O290 O 0.76017 0.65265 0.03097 0.0
O291 O 0.73863 0.70222 0.0228 0.0
O292 O 0.79307 0.6456 0.93851 0.0
O293 O 0.77527 0.68725 0.96972 0.0
Co294 Co 0.91991 0.59275 0.76899 0.0
O295 O 0.91676 0.64229 0.76425 0.0
O296 O 0.87666 0.59998 0.74913 0.0
C297 C 0.94507 0.59687 0.8249 0.0
O298 O 0.90718 0.54137 0.77134 0.0
Co299 Co 0.98093 0.5546 0.78208 0.0
O300 O 0.94889 0.51415 0.79107 0.0
C301 C 0.96495 0.57493 0.71146 0.0
C302 C 0.88587 0.63292 0.75235 0.0
C303 C 0.91831 0.51458 0.78217 0.0
O304 O 0.93771 0.58569 0.72069 0.0
O305 O 0.9859 0.56392 0.73267 0.0
O306 O 0.91363 0.59927 0.81905 0.0
O307 O 0.96057 0.59492 0.79723 0.0
Co308 Co 0.7313 0.40148 0.53755 0.0
O309 O 0.68315 0.40428 0.53995 0.0
O310 O 0.72242 0.4468 0.5562 0.0
C311 C 0.72883 0.37552 0.48162 0.0
O312 O 0.78168 0.41414 0.53704 0.0
Co313 Co 0.76628 0.3363 0.52627 0.0
O314 O 0.80623 0.36874 0.51903 0.0
C315 C 0.74678 0.35457 0.59646 0.0
C316 C 0.69084 0.43674 0.5512 0.0
C317 C 0.80728 0.40094 0.5275 0.0
O318 O 0.73665 0.38293 0.58642 0.0
O319 O 0.75716 0.33223 0.57577 0.0
O320 O 0.72684 0.40832 0.4875 0.0
O321 O 0.72938 0.359 0.50919 0.0
Co322 Co 0.6833 0.51405 0.3179 0.0
O323 O 0.6807 0.46472 0.30896 0.0
O324 O 0.72583 0.50141 0.30569 0.0
C325 C 0.65505 0.51041 0.366 0.0
O326 O 0.6968 0.56646 0.32521 0.0
Co327 Co 0.62199 0.55325 0.32164 0.0
O328 O 0.65394 0.59578 0.3339 0.0
C329 C 0.63883 0.52036 0.25533 0.0
C330 C 0.71163 0.46955 0.30251 0.0
C331 C 0.68476 0.59499 0.33136 0.0
O332 O 0.66838 0.5179 0.26806 0.0
O333 O 0.61611 0.5298 0.27346 0.0
O334 O 0.68691 0.50931 0.36828 0.0
O335 O 0.64187 0.51359 0.33557 0.0
Tb336 Tb 0.05671 0.08064 0.02672 0.0
C337 C 0.06178 0.01905 0.97041 0.0
Tb338 Tb 1.01973 1.0044 0.03422 0.0
O339 O 0.1068 0.06941 0.04682 0.0
O340 O 0.0666 0.03336 0.04431 0.0
O341 O 0.06177 0.05266 0.97755 0.0
C342 C 1.01427 0.94794 0.0687 0.0
O343 O 0.04863 0.99491 0.98974 0.0
C344 C 0.97767 0.04738 0.01089 0.0
C345 C 1.00913 0.06842 0.08639 0.0
O346 O 1.00297 0.94902 0.03642 0.0
O347 O 0.02867 0.97829 0.08082 0.0
O348 O 0.96921 0.01467 0.01535 0.0
O349 O 1.0091 0.0517 0.01621 0.0
O350 O 1.00882 0.03443 0.0805 0.0
O351 O 0.02545 0.09182 0.06845 0.0
C352 C 0.07012 0.13744 0.99433 0.0
O353 O 0.07613 0.13566 0.02762 0.0
O354 O 0.05571 0.10786 0.98022 0.0
C355 C 0.09759 0.03691 0.05097 0.0
Tb356 Tb 0.28888 0.83003 0.29245 0.0
C357 C 0.34252 0.77823 0.29452 0.0
Tb358 Tb 0.26613 0.74932 0.27742 0.0
O359 O 0.30574 0.82456 0.34695 0.0
O360 O 0.27236 0.78677 0.3202 0.0
O361 O 0.33523 0.80872 0.28567 0.0
C362 C 0.23336 0.68815 0.28916 0.0
O363 O 0.31911 0.75118 0.29544 0.0
C364 C 0.26895 0.78225 0.21887 0.0
C365 C 0.21236 0.80253 0.27114 0.0
O366 O 0.25804 0.69235 0.2697 0.0
O367 O 0.22824 0.71814 0.30245 0.0
O368 O 0.26153 0.74892 0.21991 0.0
O369 O 0.27694 0.79329 0.25008 0.0
O370 O 0.21877 0.77025 0.27395 0.0
O371 O 0.23577 0.83012 0.27629 0.0
C372 C 0.31864 0.89328 0.28485 0.0
O373 O 0.29843 0.88571 0.30853 0.0
O374 O 0.32062 0.86563 0.26504 0.0
C375 C 0.29107 0.79326 0.34803 0.0
Tb376 Tb 0.55728 0.04396 0.51332 0.0
C377 C 0.54265 1.0073 0.58433 0.0
Tb378 Tb 0.48742 0.02954 0.53384 0.0
O379 O 0.55738 0.09953 0.52507 0.0
O380 O 0.53029 0.06326 0.5528 0.0
O381 O 0.56358 0.01611 0.56077 0.0
C382 C 0.43015 0.04814 0.55179 0.0
O383 O 0.51103 0.01232 0.58046 0.0
C384 C 0.50761 0.97856 0.49736 0.0
C385 C 0.5006 0.0644 0.4619 0.0
O386 O 0.43374 0.01823 0.53658 0.0
O387 O 0.45893 0.06656 0.55762 0.0
O388 O 0.48582 0.97397 0.52009 0.0
O389 O 0.51436 1.0104 0.49431 0.0
O390 O 0.48049 0.0573 0.48668 0.0
O391 O 0.53231 0.05871 0.46522 0.0
C392 C 0.61777 0.0277 0.50355 0.0
O393 O 0.6112 0.0579 0.51515 0.0
O394 O 0.58998 1.00788 0.49499 0.0
C395 C 0.53619 0.09491 0.54832 0.0
Tb396 Tb 0.29526 0.30325 0.81691 0.0
C397 C 0.30291 0.35377 0.75705 0.0
Tb398 Tb 0.26847 0.27642 0.74037 0.0
O399 O 0.3474 0.29297 0.81277 0.0
O400 O 0.31326 0.28357 0.77148 0.0
O401 O 0.29994 0.35068 0.79044 0.0
C402 C 0.26194 0.24664 0.67676 0.0
O403 O 0.29568 0.32723 0.73312 0.0
C404 C 0.21924 0.2954 0.77623 0.0
C405 C 0.25852 0.22708 0.80126 0.0
O406 O 0.25273 0.27631 0.68584 0.0
O407 O 0.27572 0.23404 0.70339 0.0
O408 O 0.21621 0.28384 0.74387 0.0
O409 O 0.24969 0.29642 0.78586 0.0
O410 O 0.26224 0.22921 0.76768 0.0
O411 O 0.26622 0.25391 0.82485 0.0
C412 C 0.30327 0.34017 0.87707 0.0
O413 O 0.30922 0.30831 0.87252 0.0
O414 O 0.29143 0.35028 0.84827 0.0
C415 C 0.3434 0.28246 0.78008 0.0
Tb416 Tb 1.00942 0.03195 0.48778 0.0
C417 C 0.97696 0.02302 0.5576 0.0
Tb418 Tb 0.05547 0.03646 0.55734 0.0
O419 O 0.99525 0.97683 0.49048 0.0
O420 O 0.04055 1.00065 0.5138 0.0
O421 O 0.97372 0.03455 0.52633 0.0
C422 C 0.09303 0.01823 0.61024 0.0
O423 O 1.00619 0.0189 0.57325 0.0
C424 C 0.03673 0.09708 0.54409 0.0
C425 C 0.08656 0.05385 0.48785 0.0
O426 O 0.06318 1.00391 0.59972 0.0
O427 O 0.10155 0.04326 0.59119 0.0
O428 O 0.05525 0.09249 0.57168 0.0
O429 O 0.02924 0.06792 0.5282 0.0
O430 O 0.0912 0.04045 0.51813 0.0
O431 O 0.05668 0.05644 0.47312 0.0
C432 C 0.97553 0.03802 0.42856 0.0
O433 O 1.00271 0.0241 0.43188 0.0
O434 O 0.96756 0.04916 0.45868 0.0
C435 C 1.02073 0.973 0.51102 0.0
Tb436 Tb 0.31899 0.79935 0.79616 0.0
C437 C 0.25879 0.81415 0.84132 0.0
Tb438 Tb 0.24602 0.78408 0.76185 0.0
O439 O 0.31921 0.85585 0.80092 0.0
O440 O 0.28526 0.82513 0.76658 0.0
O441 O 0.29058 0.80989 0.84067 0.0
C442 C 0.19452 0.78932 0.71757 0.0
O443 O 0.23679 0.8065 0.81373 0.0
C444 C 0.27101 0.7278 0.7777 0.0
C445 C 0.3072 0.76617 0.71833 0.0
O446 O 0.19259 0.77535 0.74698 0.0
O447 O 0.225 0.80163 0.71425 0.0
O448 O 0.24315 0.72784 0.75921 0.0
O449 O 0.2794 0.75851 0.79097 0.0
O450 O 0.27532 0.77048 0.71858 0.0
O451 O 0.32909 0.77511 0.74575 0.0
C452 C 0.37233 0.79481 0.83814 0.0
O453 O 0.37261 0.81058 0.8097 0.0
O454 O 0.34256 0.78019 0.84152 0.0
C455 C 0.29195 0.85547 0.78128 0.0
Tb456 Tb 0.49555 0.02227 0.01343 0.0
C457 C 0.55137 0.97394 0.02439 0.0
Tb458 Tb 0.56714 0.0557 0.03292 0.0
O459 O 0.50059 0.02938 0.95772 0.0
O460 O 0.54129 0.02528 0.99012 0.0
O461 O 0.51966 0.97735 0.02649 0.0
C462 C 0.62716 0.09224 0.02719 0.0
O463 O 0.574 1.00118 0.02223 0.0
C464 C 0.53076 0.04779 0.08731 0.0
C465 C 0.51006 0.10256 0.01924 0.0
O466 O 0.62097 0.06832 0.0483 0.0
O467 O 0.59952 0.09557 0.00979 0.0
O468 O 0.56294 0.04982 0.08836 0.0
O469 O 0.52137 0.05356 0.0569 0.0
O470 O 0.54188 0.09923 0.01737 0.0
O471 O 0.4877 0.07598 0.02392 0.0
C472 C 0.43567 0.98517 0.01686 0.0
O473 O 0.44234 1.00895 0.99572 0.0
O474 O 0.46259 0.9827 0.03598 0.0
C475 C 0.53285 0.03213 0.95996 0.0
Tb476 Tb 0.23235 0.25606 0.27467 0.0
C477 C 0.29637 0.25019 0.32543 0.0
Tb478 Tb 0.30414 0.29785 0.26348 0.0
O479 O 0.24494 0.20484 0.25397 0.0
O480 O 0.27675 0.24905 0.25397 0.0
O481 O 0.26371 0.24522 0.31894 0.0
C482 C 0.35728 0.3035 0.22813 0.0
O483 O 0.31731 0.26908 0.30751 0.0
C484 C 0.26254 0.33836 0.28991 0.0
C485 C 0.23985 0.30194 0.21153 0.0
O486 O 0.35731 0.31416 0.26079 0.0
O487 O 0.32761 0.29041 0.2159 0.0
O488 O 0.29305 0.34934 0.28367 0.0
O489 O 0.25959 0.30583 0.28398 0.0
O490 O 0.2727 0.3067 0.21802 0.0
O491 O 0.21865 0.28413 0.23022 0.0
C492 C 0.18401 0.24718 0.31646 0.0
O493 O 0.18106 0.23572 0.28369 0.0
O494 O 0.21327 0.26412 0.32448 0.0
C495 C 0.27518 0.21689 0.24775 0.0
Tb496 Tb 0.50757 0.53096 0.99176 0.0
C497 C 0.47419 0.51988 0.06037 0.0
Tb498 Tb 0.55263 0.53485 0.05823 0.0
O499 O 0.49355 0.47559 0.99456 0.0
O500 O 0.5399 0.49919 0.01488 0.0
O501 O 0.47041 0.53016 0.02873 0.0
C502 C 0.58705 0.51919 0.1147 0.0
O503 O 0.50385 0.51764 0.07608 0.0
C504 C 0.54009 0.59537 0.04036 0.0
C505 C 0.58406 0.54895 0.98953 0.0
O506 O 0.55724 0.50538 0.10362 0.0
O507 O 0.59732 0.54211 0.09418 0.0
O508 O 0.56446 0.59112 0.06228 0.0
O509 O 0.52087 0.56737 0.03506 0.0
O510 O 0.58752 0.53302 0.01839 0.0
O511 O 0.5547 0.55559 0.97703 0.0
C512 C 0.47321 0.5373 0.93254 0.0
O513 O 0.50057 0.52381 0.93565 0.0
O514 O 0.46529 0.54779 0.9628 0.0
C515 C 0.52049 0.47145 0.01265 0.0
Tb516 Tb 0.81914 0.30442 0.29857 0.0
C517 C 0.7588 0.30873 0.34857 0.0
Tb518 Tb 0.74538 0.27936 0.26871 0.0
O519 O 0.81722 0.3557 0.27772 0.0
O520 O 0.77535 0.32526 0.28792 0.0
O521 O 0.79129 0.31331 0.34457 0.0
C522 C 0.69602 0.28988 0.22419 0.0
O523 O 0.73594 0.29595 0.32266 0.0
C524 C 0.77687 0.22611 0.28098 0.0
C525 C 0.80641 0.26998 0.22145 0.0
O526 O 0.69263 0.27075 0.2503 0.0
O527 O 0.72672 0.30334 0.2241 0.0
O528 O 0.7454 0.22325 0.27038 0.0
O529 O 0.78682 0.25805 0.28687 0.0
O530 O 0.7743 0.27263 0.22331 0.0
O531 O 0.8288 0.27902 0.24845 0.0
C532 C 0.87153 0.30778 0.34428 0.0
O533 O 0.87162 0.32217 0.31508 0.0
O534 O 0.84265 0.29064 0.34673 0.0
C535 C 0.78489 0.3528 0.27506 0.0
Tb536 Tb 0.99683 0.51957 0.51816 0.0
C537 C 0.05756 0.47971 0.52726 0.0
Tb538 Tb 0.06708 0.56083 0.52934 0.0
O539 O 1.00518 0.49601 0.4669 0.0
O540 O 0.03302 0.54199 0.48595 0.0
O541 O 0.0268 0.48101 0.53542 0.0
C542 C 0.12747 0.59595 0.52259 0.0
O543 O 0.07729 0.50753 0.52037 0.0
C544 C 0.03189 0.5631 0.58451 0.0
C545 C 1.00586 0.60017 0.51864 0.0
O546 O 0.12139 0.57144 0.54314 0.0
O547 O 0.09969 0.6 0.50594 0.0
O548 O 0.05654 0.58589 0.57916 0.0
O549 O 0.0311 0.53807 0.56172 0.0
O550 O 0.03672 0.5985 0.51099 0.0
O551 O 0.9863 0.57282 0.5269 0.0
C552 C 0.93554 0.48601 0.5231 0.0
O553 O 0.94229 0.51388 0.50723 0.0
O554 O 0.96321 0.47749 0.53616 0.0
C555 C 0.03116 0.51743 0.46251 0.0
Tb556 Tb 0.79483 0.80282 0.31931 0.0
C557 C 0.80014 0.85173 0.25775 0.0
Tb558 Tb 0.76848 0.77337 0.24329 0.0
O559 O 0.84754 0.79416 0.31505 0.0
O560 O 0.81316 0.78273 0.2743 0.0
O561 O 0.798 0.84934 0.29141 0.0
C562 C 0.76316 0.73944 0.18177 0.0
O563 O 0.79364 0.82459 0.23441 0.0
C564 C 0.7187 0.79228 0.27814 0.0
C565 C 0.75925 0.72598 0.30575 0.0
O566 O 0.75164 0.76838 0.18878 0.0
O567 O 0.7786 0.73 0.20917 0.0
O568 O 0.71601 0.77987 0.24604 0.0
O569 O 0.74917 0.79401 0.28822 0.0
O570 O 0.76278 0.72725 0.2721 0.0
O571 O 0.76681 0.75336 0.32867 0.0
C572 C 0.80189 0.8397 0.37959 0.0
O573 O 0.80999 0.80871 0.37465 0.0
O574 O 0.78877 0.84912 0.35098 0.0
C575 C 0.84351 0.78275 0.28259 0.0
Tb576 Tb 0.78861 0.3313 0.79208 0.0
C577 C 0.84376 0.28273 0.79817 0.0
Tb578 Tb 0.76786 0.25201 0.7806 0.0
O579 O 0.80646 0.32765 0.84682 0.0
O580 O 0.77126 0.29005 0.82223 0.0
O581 O 0.83503 0.31111 0.78581 0.0
C582 C 0.73719 0.18993 0.79192 0.0
O583 O 0.82133 0.25482 0.79949 0.0
C584 C 0.76649 0.28544 0.72307 0.0
C585 C 0.71293 0.30332 0.77269 0.0
O586 O 0.76031 0.19518 0.7706 0.0
O587 O 0.73311 0.21924 0.80756 0.0
O588 O 0.75097 0.25475 0.72561 0.0
O589 O 0.78563 0.29281 0.75052 0.0
O590 O 0.72005 0.27229 0.78009 0.0
O591 O 0.7362 0.3307 0.77392 0.0
C592 C 0.81959 0.39374 0.78243 0.0
O593 O 0.79895 0.38764 0.80603 0.0
O594 O 0.82054 0.36536 0.7636 0.0
C595 C 0.7907 0.29711 0.84948 0.0
Tb596 Tb 0.73901 0.7621 0.77803 0.0
C597 C 0.79629 0.7744 0.83765 0.0
Tb598 Tb 0.80818 0.80334 0.76699 0.0
O599 O 0.75151 0.71713 0.74499 0.0
O600 O 0.78769 0.75199 0.77113 0.0
O601 O 0.76462 0.77702 0.82937 0.0
C602 C 0.86008 0.80558 0.73034 0.0
O603 O 0.81915 0.78074 0.81553 0.0
C604 C 0.7666 0.84623 0.78766 0.0
C605 C 0.74527 0.80353 0.71307 0.0
O606 O 0.86095 0.8196 0.76208 0.0
O607 O 0.83046 0.79074 0.71996 0.0
O608 O 0.79767 0.85596 0.78274 0.0
O609 O 0.76238 0.81361 0.78305 0.0
O610 O 0.77787 0.80458 0.71847 0.0
O611 O 0.72411 0.78996 0.73419 0.0
C612 C 0.6867 0.73961 0.81161 0.0
O613 O 0.68566 0.75724 0.78453 0.0
O614 O 0.71678 0.73336 0.81832 0.0
C615 C 0.78353 0.72625 0.74956 0.0
Tb616 Tb 0.55233 0.58024 0.52711 0.0
C617 C 0.56782 0.51892 0.47536 0.0
Tb618 Tb 0.52123 0.50336 0.53565 0.0
O619 O 0.60364 0.57018 0.54189 0.0
O620 O 0.56392 0.53747 0.554 0.0
O621 O 0.56666 0.55248 0.48149 0.0
C622 C 0.51736 0.44757 0.57102 0.0
O623 O 0.5527 0.49467 0.49324 0.0
C624 C 0.47748 0.54207 0.50871 0.0
C625 C 0.50302 0.56624 0.58487 0.0
O626 O 0.50753 0.44739 0.53814 0.0
O627 O 0.5298 0.47859 0.58298 0.0
O628 O 0.4699 0.51076 0.51797 0.0
O629 O 0.509 0.54621 0.50968 0.0
O630 O 0.50347 0.53241 0.57887 0.0
O631 O 0.52029 0.59015 0.56836 0.0
C632 C 0.56047 0.63823 0.49582 0.0
O633 O 0.5713 0.63534 0.52787 0.0
O634 O 0.54418 0.60912 0.48255 0.0
C635 C 0.59508 0.53986 0.55278 0.0
Tb636 Tb 0.05929 0.54534 0.0146 0.0
C637 C 0.04332 0.50897 0.08516 0.0
Tb638 Tb 0.98886 0.53189 0.0335 0.0
O639 O 0.05998 0.60105 0.02646 0.0
O640 O 0.03175 0.56502 0.05343 0.0
O641 O 0.06432 0.51645 0.06135 0.0
C642 C 0.93132 0.55202 0.04876 0.0
O643 O 1.01193 0.51511 0.08105 0.0
C644 C 1.00909 0.48035 0.99792 0.0
C645 C 1.00442 0.56596 0.96132 0.0
O646 O 0.96007 0.57061 0.05378 0.0
O647 O 0.93508 0.52115 0.03608 0.0
O648 O 0.98673 0.47615 0.0201 0.0
O649 O 1.01634 0.51215 0.99486 0.0
O650 O 0.98325 0.55858 0.98516 0.0
O651 O 0.03615 0.56088 0.96618 0.0
C652 C 0.11893 0.52732 1.00418 0.0
O653 O 0.11356 0.55691 0.01865 0.0
O654 O 0.09063 0.50934 0.99366 0.0
C655 C 0.03823 0.59667 0.04922 0.0
C656 C 0.0805 0.23152 0.97799 0.0
C657 C 0.06903 0.23062 0.94274 0.0
C658 C 0.08311 0.20113 0.99417 0.0
C659 C 0.07441 0.16885 0.97561 0.0
H660 H 0.08533 0.25587 0.99381 0.0
H661 H 0.08989 0.20297 0.0218 0.0
S662 S 0.04953 0.15256 0.88134 0.0
N663 N 0.05363 0.19506 0.88873 0.0
N664 N 0.05898 0.13761 0.91898 0.0
C665 C 0.06629 0.16761 0.93958 0.0
C666 C 0.06361 0.19867 0.9231 0.0
C667 C 0.14276 0.83018 0.21274 0.0
C668 C 0.11551 0.80474 0.2158 0.0
C669 C 0.17318 0.83119 0.23287 0.0
C670 C 0.17801 0.80639 0.25662 0.0
H671 H 0.14098 0.84889 0.19368 0.0
H672 H 0.19365 0.85022 0.22812 0.0
S673 S 0.11414 0.73584 0.2767 0.0
N674 N 0.095 0.7556 0.24654 0.0
N675 N 0.15199 0.757 0.28374 0.0
C676 C 0.1505 0.78185 0.26118 0.0
C677 C 0.11936 0.78117 0.24104 0.0
C678 C 0.51848 0.88933 0.45929 0.0
C679 C 0.53183 0.89516 0.42741 0.0
C680 C 0.51067 0.91642 0.48137 0.0
C681 C 0.51622 0.95076 0.47295 0.0
H682 H 0.51416 0.86352 0.4677 0.0
H683 H 0.50057 0.91037 0.50554 0.0
S684 S 0.55015 0.98056 0.39255 0.0
N685 N 0.54974 0.93816 0.38836 0.0
N686 N 0.53536 0.9894 0.43011 0.0
C687 C 0.52936 0.95723 0.44111 0.0
C688 C 0.53702 0.92938 0.41828 0.0
C689 C 0.42887 0.26356 0.75644 0.0
C690 C 0.42745 0.26421 0.72015 0.0
C691 C 0.40123 0.26826 0.77506 0.0
C692 C 0.37057 0.27353 0.75843 0.0
H693 H 0.45195 0.26063 0.77091 0.0
H694 H 0.40422 0.26857 0.80301 0.0
S695 S 0.35257 0.27582 0.6637 0.0
N696 N 0.39183 0.26929 0.66813 0.0
N697 N 0.34019 0.2779 0.70319 0.0
C698 C 0.36828 0.27296 0.72208 0.0
C699 C 0.39656 0.26837 0.703 0.0
C700 C 0.05105 0.91019 0.57226 0.0
C701 C 0.02169 0.88842 0.57598 0.0
C702 C 0.05068 0.93816 0.55156 0.0
C703 C 0.02097 0.94478 0.53408 0.0
H704 H 0.07447 0.9048 0.58428 0.0
H705 H 0.07384 0.95404 0.54842 0.0
S706 S 0.9374 0.89539 0.53718 0.0
N707 N 0.96236 0.87539 0.56174 0.0
N708 N 0.96128 0.92788 0.52326 0.0
C709 C 0.99139 0.92348 0.53854 0.0
C710 C 0.99185 0.89526 0.55947 0.0
C711 C 0.45925 0.8074 0.88235 0.0
C712 C 0.45389 0.80332 0.91733 0.0
C713 C 0.43274 0.80497 0.85685 0.0
C714 C 0.39996 0.79761 0.8653 0.0
H715 H 0.48423 0.81222 0.87452 0.0
H716 H 0.43798 0.80815 0.83028 0.0
S717 S 0.37235 0.78685 0.95323 0.0
N718 N 0.41322 0.79349 0.95927 0.0
N719 N 0.36326 0.78818 0.91126 0.0
C720 C 0.39413 0.79424 0.90025 0.0
C721 C 0.42114 0.79739 0.92633 0.0
C722 C 0.49595 0.18385 0.06981 0.0
C723 C 0.50496 0.20921 0.04709 0.0
C724 C 0.4945 0.14858 0.05937 0.0
C725 C 0.50212 0.1377 0.02601 0.0
H726 H 0.49216 0.1912 0.09648 0.0
H727 H 0.48992 0.12991 0.07831 0.0
S728 S 0.52067 0.19255 0.95465 0.0
N729 N 0.51615 0.22007 0.98766 0.0
N730 N 0.51479 0.1538 0.96912 0.0
C731 C 0.50843 0.16228 1.00226 0.0
C732 C 0.50937 0.19808 0.0125 0.0
C733 C 0.14505 0.25771 0.40087 0.0
C734 C 0.11095 0.25125 0.39082 0.0
C735 C 0.16835 0.25455 0.37663 0.0
C736 C 0.15851 0.2446 0.34144 0.0
H737 H 0.15391 0.26702 0.42726 0.0
H738 H 0.19436 0.26126 0.38542 0.0
S739 S 0.07244 0.21967 0.3026 0.0
N740 N 0.06848 0.23054 0.34378 0.0
N741 N 0.11268 0.22474 0.29834 0.0
C742 C 0.12468 0.23555 0.33141 0.0
C743 C 0.10079 0.23885 0.35611 0.0
C744 C 0.93126 0.06396 0.13286 0.0
C745 C 0.94176 0.08454 0.16369 0.0
C746 C 0.95277 0.06104 0.10669 0.0
C747 C 0.98517 0.07909 0.11024 0.0
H748 H 0.90803 0.04682 0.13069 0.0
H749 H 0.94482 0.04259 0.08458 0.0
S750 S 0.02163 0.14194 0.18278 0.0
N751 N 0.98454 0.12728 0.19411 0.0
N752 N 0.02458 0.12247 0.14418 0.0
C753 C 0.99432 0.10311 0.13881 0.0
C754 C 0.97258 0.10574 0.16573 0.0
C755 C 0.30083 0.71304 0.39952 0.0
C756 C 0.3164 0.72785 0.43189 0.0
C757 C 0.29164 0.73382 0.37267 0.0
C758 C 0.29801 0.77033 0.37679 0.0
H759 H 0.29567 0.68519 0.39484 0.0
H760 H 0.28037 0.72111 0.34826 0.0
S761 S 0.33765 0.8222 0.45642 0.0
N762 N 0.33708 0.78178 0.4661 0.0
N763 N 0.32045 0.82001 0.41641 0.0
C764 C 0.31335 0.78522 0.40907 0.0
C765 C 0.32232 0.76431 0.43629 0.0
C766 C 0.60192 0.99882 0.66377 0.0
C767 C 0.58043 0.98477 0.68733 0.0
C768 C 0.58999 1.00398 0.62966 0.0
C769 C 0.55605 0.99558 0.6179 0.0
H770 H 0.62748 1.0084 0.6725 0.0
H771 H 0.60714 0.01674 0.61322 0.0
S772 S 0.49096 0.95249 0.6678 0.0
N773 N 0.52464 0.95844 0.69501 0.0
N774 N 0.50235 0.96805 0.63154 0.0
C775 C 0.53506 0.9789 0.64042 0.0
C776 C 0.54721 0.97353 0.67487 0.0
C777 C 0.3165 0.3657 0.9725 0.0
C778 C 0.30992 0.40022 0.97443 0.0
C779 C 0.31589 0.34674 0.94063 0.0
C780 C 0.30873 0.36178 0.90981 0.0
H781 H 0.3201 0.3525 0.99578 0.0
H782 H 0.31931 0.3197 0.94026 0.0
S783 S 0.29677 0.45325 0.9006 0.0
N784 N 0.30116 0.45019 0.94279 0.0
N785 N 0.30017 0.41447 0.88259 0.0
C786 C 0.30534 0.39716 0.91119 0.0
C787 C 0.30605 0.41653 0.94369 0.0
C788 C 0.90635 0.05189 0.36306 0.0
C789 C 0.92078 0.04748 0.33162 0.0
C790 C 0.92428 0.04885 0.39461 0.0
C791 C 0.95692 0.04087 0.39549 0.0
H792 H 0.88141 0.05857 0.36342 0.0
H793 H 0.91254 0.05283 0.41839 0.0
S794 S 1.00587 0.02618 0.32058 0.0
N795 N 0.96974 0.03436 0.30354 0.0
N796 N 1.00292 0.02821 0.36271 0.0
C797 C 0.9714 0.03574 0.36433 0.0
C798 C 0.95341 0.03914 0.33235 0.0
C799 C 0.353 0.75082 0.63691 0.0
C800 C 0.33302 0.72229 0.61825 0.0
C801 C 0.34604 0.76355 0.67028 0.0
C802 C 0.31792 0.74924 0.68581 0.0
H803 H 0.37298 0.76479 0.62468 0.0
H804 H 0.36144 0.78626 0.68287 0.0
S805 S 0.25864 0.67317 0.64903 0.0
N806 N 0.28519 0.67894 0.61928 0.0
N807 N 0.27136 0.7034 0.68079 0.0
C808 C 0.29867 0.71981 0.66813 0.0
C809 C 0.30637 0.70627 0.63475 0.0
C810 C 0.55598 0.01082 0.86781 0.0
C811 C 0.58999 1.00691 0.87226 0.0
C812 C 0.53811 0.02042 0.89587 0.0
C813 C 0.55329 0.02657 0.92987 0.0
H814 H 0.54271 1.00587 0.8424 0.0
H815 H 0.51189 0.02204 0.89094 0.0
S816 S 0.64225 0.02232 0.95566 0.0
N817 N 0.63838 0.0117 0.91353 0.0
N818 N 0.60514 0.0298 0.9659 0.0
C819 C 0.58753 0.02384 0.93455 0.0
C820 C 0.60572 0.01396 0.90595 0.0
C821 C 0.23181 0.32195 0.12053 0.0
C822 C 0.24021 0.35825 0.12448 0.0
C823 C 0.22588 0.303 0.14913 0.0
C824 C 0.22761 0.31985 0.18233 0.0
H825 H 0.23342 0.30776 0.09585 0.0
H826 H 0.22393 0.27505 0.14578 0.0
S827 S 0.23926 0.4145 0.20499 0.0
N828 N 0.24288 0.41047 0.16293 0.0
N829 N 0.23134 0.37473 0.21662 0.0
C830 C 0.23072 0.35616 0.18569 0.0
C831 C 0.23698 0.37552 0.15664 0.0
C832 C 0.13329 0.94939 0.04504 0.0
C833 C 0.16774 0.95906 0.05371 0.0
C834 C 0.11034 0.974 0.04574 0.0
C835 C 0.12072 1.00962 0.05466 0.0
H836 H 0.12398 0.92268 0.03683 0.0
H837 H 0.08445 0.96511 0.03804 0.0
S838 S 0.20741 0.04869 0.08193 0.0
N839 N 0.21019 1.00724 0.07367 0.0
N840 N 0.16781 0.05265 0.07425 0.0
C841 C 0.15481 0.01935 0.06442 0.0
C842 C 0.17801 0.99443 0.06411 0.0
C843 C 0.6405 0.61138 0.94351 0.0
C844 C 0.67227 0.60343 0.95386 0.0
C845 C 0.61186 0.59188 0.95296 0.0
C846 C 0.61385 0.56375 0.97338 0.0
H847 H 0.63768 0.63434 0.93012 0.0
H848 H 0.58821 0.60055 0.94628 0.0
S849 S 0.69032 0.52727 1.00062 0.0
N850 N 0.70347 0.56149 0.98051 0.0
N851 N 0.64959 0.52537 0.99864 0.0
C852 C 0.64509 0.5533 0.98081 0.0
C853 C 0.67431 0.57289 0.97083 0.0
C854 C 0.7633 0.44513 0.28567 0.0
C855 C 0.72957 0.43995 0.29231 0.0
C856 C 0.78082 0.41698 0.27807 0.0
C857 C 0.76529 0.3826 0.27688 0.0
H858 H 0.77651 0.47106 0.28713 0.0
H859 H 0.80697 0.4222 0.27441 0.0
S860 S 0.67698 0.35511 0.29095 0.0
N861 N 0.68113 0.39765 0.29564 0.0
N862 N 0.71375 0.34551 0.28209 0.0
C863 C 0.73131 0.37736 0.28235 0.0
C864 C 0.71357 0.40578 0.28993 0.0
C865 C 0.86958 0.41046 0.53388 0.0
C866 C 0.83946 0.42373 0.52691 0.0
C867 C 0.90031 0.43105 0.53314 0.0
C868 C 0.90237 0.46557 0.52456 0.0
H869 H 0.86945 0.38397 0.54027 0.0
H870 H 0.92271 0.41957 0.53885 0.0
S871 S 0.83108 0.51273 0.50343 0.0
N872 N 0.81378 0.47385 0.51117 0.0
N873 N 0.87155 0.51212 0.50877 0.0
C874 C 0.87254 0.47918 0.5173 0.0
C875 C 0.84114 0.4584 0.51877 0.0
C876 C 0.36285 0.18888 0.25387 0.0
C877 C 0.35654 0.15269 0.24619 0.0
C878 C 0.33693 0.20994 0.25247 0.0
C879 C 0.3034 0.19574 0.24407 0.0
H880 H 0.38788 0.20101 0.26183 0.0
H881 H 0.34323 0.23736 0.25921 0.0
S882 S 0.27343 0.10324 0.21842 0.0
N883 N 0.31381 0.10438 0.22678 0.0
N884 N 0.26596 0.14351 0.22541 0.0
C885 C 0.29702 0.15995 0.23501 0.0
C886 C 0.32324 0.13863 0.23579 0.0
C887 C 0.34309 0.06166 0.52328 0.0
C888 C 0.34429 0.09761 0.53026 0.0
C889 C 0.37015 0.04482 0.53326 0.0
C890 C 0.399 0.06339 0.55083 0.0
H891 H 0.32208 0.04679 0.508 0.0
H892 H 0.36927 0.01762 0.52508 0.0
S893 S 0.41149 0.15654 0.58165 0.0
N894 N 0.37446 0.15024 0.56019 0.0
N895 N 0.42514 0.11854 0.57958 0.0
C896 C 0.39911 0.09867 0.561 0.0
C897 C 0.37178 0.11586 0.55045 0.0
C898 C 0.7337 0.62967 0.30959 0.0
C899 C 0.70668 0.62836 0.33024 0.0
C900 C 0.75137 0.66133 0.30283 0.0
C901 C 0.7434 0.69295 0.3172 0.0
H902 H 0.74018 0.60616 0.29693 0.0
H903 H 0.77095 0.66109 0.28551 0.0
S904 S 0.67648 0.70406 0.37484 0.0
N905 N 0.67383 0.66178 0.3662 0.0
N906 N 0.70772 0.72109 0.35424 0.0
C907 C 0.71764 0.69206 0.33931 0.0
C908 C 0.69912 0.65985 0.34562 0.0
C909 C 0.86287 0.48628 0.79578 0.0
C910 C 0.89414 0.48331 0.78353 0.0
C911 C 0.83872 0.45725 0.7957 0.0
C912 C 0.84462 0.42458 0.78215 0.0
H913 H 0.85714 0.51123 0.80574 0.0
H914 H 0.81518 0.46049 0.80578 0.0
S915 S 0.92239 0.40329 0.74664 0.0
N916 N 0.92985 0.44517 0.75817 0.0
N917 N 0.88418 0.39097 0.75618 0.0
C918 C 0.87574 0.42142 0.76954 0.0
C919 C 0.90061 0.45069 0.77074 0.0
C920 C 1.01792 0.89358 0.14578 0.0
C921 C 1.00943 0.85973 0.13044 0.0
C922 C 1.01926 0.92197 0.12549 0.0
C923 C 1.01155 0.91751 0.0893 0.0
H924 H 0.02435 0.8981 0.17343 0.0
H925 H 0.0265 0.94763 0.1383 0.0
S926 S 0.98563 0.83429 0.03692 0.0
N927 N 0.99178 0.82346 0.07693 0.0
N928 N 0.99389 0.87684 0.03929 0.0
C929 C 1.0021 0.88393 0.07384 0.0
C930 C 1.00116 0.85504 0.0943 0.0
C931 C 0.92673 0.26085 0.84048 0.0
C932 C 0.94408 0.29385 0.85161 0.0
C933 C 0.89463 0.25691 0.82257 0.0
C934 C 0.87868 0.28586 0.81519 0.0
H935 H 0.93761 0.23793 0.84657 0.0
H936 H 0.88209 0.2311 0.81499 0.0
S937 S 0.91305 0.37782 0.84229 0.0
N938 N 0.9425 0.35548 0.8557 0.0
N939 N 0.88307 0.34896 0.8231 0.0
C940 C 0.89617 0.31898 0.82667 0.0
C941 C 0.92853 0.32273 0.84459 0.0
C942 C 0.52767 0.15704 0.62612 0.0
C943 C 0.5139 0.18388 0.61041 0.0
C944 C 0.53291 0.12685 0.60622 0.0
C945 C 0.52512 0.1231 0.57008 0.0
H946 H 0.53691 0.16057 0.65318 0.0
H947 H 0.54526 0.10754 0.61873 0.0
S948 S 0.48312 0.18277 0.51791 0.0
N949 N 0.48815 0.20209 0.55753 0.0
N950 N 0.49894 0.14612 0.52044 0.0
C951 C 0.50895 0.14831 0.55476 0.0
C952 C 0.50302 0.17848 0.57491 0.0
C953 C 0.66255 0.81206 0.35106 0.0
C954 C 0.63068 0.80892 0.33301 0.0
C955 C 0.69134 0.80749 0.33368 0.0
C956 C 0.68943 0.79979 0.2975 0.0
H957 H 0.66522 0.81744 0.37892 0.0
H958 H 0.71504 0.8094 0.34872 0.0
S959 S 0.61248 0.79084 0.23784 0.0
N960 N 0.5998 0.79891 0.2765 0.0
N961 N 0.65284 0.79073 0.24432 0.0
C962 C 0.65781 0.79744 0.27928 0.0
C963 C 0.6288 0.80188 0.29683 0.0
C964 C 0.03723 0.1936 0.54377 0.0
C965 C 0.02894 0.19839 0.50878 0.0
C966 C 0.03877 0.16058 0.55489 0.0
C967 C 0.03155 0.13096 0.53162 0.0
H968 H 0.04349 0.21564 0.56272 0.0
H969 H 0.04613 0.15832 0.58189 0.0
S970 S 1.00636 0.12919 0.43763 0.0
N971 N 1.01217 0.17066 0.45111 0.0
N972 N 1.01446 0.10846 0.47217 0.0
C973 C 0.02223 0.13524 0.49676 0.0
C974 C 0.02116 0.16899 0.48526 0.0
C975 C 0.61169 0.28488 0.17531 0.0
C976 C 0.61821 0.3045 0.14692 0.0
C977 C 0.63694 0.28043 0.20034 0.0
C978 C 0.6696 0.29556 0.19807 0.0
H979 H 0.58691 0.27245 0.17814 0.0
H980 H 0.63079 0.26489 0.22152 0.0
S981 S 0.69975 0.35057 0.12992 0.0
N982 N 0.65974 0.33994 0.11867 0.0
N983 N 0.70726 0.33173 0.16582 0.0
C984 C 0.67652 0.31562 0.17014 0.0
C985 C 0.65081 0.31999 0.14452 0.0
C986 C 0.57302 0.88232 0.01586 0.0
C987 C 0.56608 0.87324 0.98 0.0
C988 C 0.56934 0.91544 0.0305 0.0
C989 C 0.55819 0.94013 0.00968 0.0
H990 H 0.58096 0.86356 0.03277 0.0
H991 H 0.57447 0.92145 0.05817 0.0
S992 S 0.53499 0.92883 0.91503 0.0
N993 N 0.54716 0.89171 0.92442 0.0
N994 N 0.53913 0.95309 0.95202 0.0
C995 C 0.55117 0.93132 0.97397 0.0
C996 C 0.55546 0.89808 0.95904 0.0
C997 C 0.90656 0.79631 0.65075 0.0
C998 C 0.93946 0.79733 0.66452 0.0
C999 C 0.88116 0.79948 0.6725 0.0
C1000 C 0.88791 0.80464 0.70867 0.0
H1001 H 0.90032 0.79277 0.62302 0.0
H1002 H 0.856 0.79801 0.66083 0.0
S1003 S 0.96993 0.81019 0.75774 0.0
N1004 N 0.97755 0.8042 0.71678 0.0
N1005 N 0.92954 0.81089 0.75742 0.0
C1006 C 0.92065 0.80626 0.72284 0.0
C1007 C 0.94651 0.80234 0.70078 0.0
C1008 C 0.13482 1.00053 0.92119 0.0
C1009 C 0.12649 0.01185 0.88844 0.0
C1010 C 0.11224 0.99951 0.94698 0.0
C1011 C 0.08066 1.00994 0.94095 0.0
H1012 H 0.15907 0.99287 0.92714 0.0
H1013 H 0.12026 0.99241 0.97238 0.0
S1014 S 0.04613 0.04111 0.86004 0.0
N1015 N 0.08338 0.0325 0.85154 0.0
N1016 N 0.0421 0.0316 0.90029 0.0
C1017 C 0.0718 0.02054 0.90832 0.0
C1018 C 0.09438 0.02119 0.882 0.0
C1019 C 0.77719 0.35271 0.65524 0.0
C1020 C 0.74741 0.34547 0.63339 0.0
C1021 C 0.78283 0.33468 0.68512 0.0
C1022 C 0.7592 0.308 0.69415 0.0
H1023 H 0.79721 0.37092 0.64793 0.0
H1024 H 0.80671 0.34016 0.69985 0.0
S1025 S 0.67668 0.27963 0.64636 0.0
N1026 N 0.6937 0.31048 0.62397 0.0
N1027 N 0.70406 0.2766 0.67915 0.0
C1028 C 0.72891 0.30144 0.67314 0.0
C1029 C 0.7231 0.32005 0.64313 0.0
C1030 C 0.48875 0.08241 0.366 0.0
C1031 C 0.45557 0.08931 0.36136 0.0
C1032 C 0.50333 0.07545 0.39846 0.0
C1033 C 0.4856 0.07518 0.42821 0.0
H1034 H 0.50366 0.08175 0.34414 0.0
H1035 H 0.52857 0.06949 0.39996 0.0
S1036 S 0.39863 0.09436 0.43114 0.0
N1037 N 0.40599 0.0971 0.39017 0.0
N1038 N 0.43307 0.08462 0.45089 0.0
C1039 C 0.45264 0.08313 0.42418 0.0
C1040 C 0.43777 0.09001 0.391 0.0
C1041 C 0.72684 0.71029 0.09167 0.0
C1042 C 0.74898 0.68832 0.07968 0.0
C1043 C 0.73128 0.72595 0.12524 0.0
C1044 C 0.75771 0.7198 0.14807 0.0
H1045 H 0.70681 0.71677 0.07447 0.0
H1046 H 0.71434 0.7437 0.13305 0.0
S1047 S 0.82085 0.66203 0.13062 0.0
N1048 N 0.7971 0.65936 0.09393 0.0
N1049 N 0.80491 0.68846 0.15785 0.0
C1050 C 0.77875 0.69609 0.13742 0.0
C1051 C 0.77443 0.68029 0.10295 0.0
C1052 C 0.1541 0.0329 0.68941 0.0
C1053 C 0.13939 1.0096 0.71133 0.0
C1054 C 0.14042 0.03376 0.65532 0.0
C1055 C 0.11168 0.01137 0.64241 0.0
H1056 H 0.17434 0.05254 0.69955 0.0
H1057 H 0.15097 0.05372 0.63996 0.0
S1058 S 0.06803 0.94137 0.68792 0.0
N1059 N 0.09768 0.96071 0.71669 0.0
N1060 N 0.07224 0.96181 0.65248 0.0
C1061 C 0.09896 0.98566 0.66304 0.0
C1062 C 0.11276 0.98495 0.69766 0.0
C1063 C 0.73132 0.32235 0.44055 0.0
C1064 C 0.73447 0.3588 0.44665 0.0
C1065 C 0.73786 0.306 0.40849 0.0
C1066 C 0.74823 0.32539 0.38121 0.0
H1067 H 0.72397 0.30621 0.46087 0.0
H1068 H 0.73561 0.27805 0.40538 0.0
S1069 S 0.7608 0.42117 0.38317 0.0
N1070 N 0.74849 0.41343 0.42171 0.0
N1071 N 0.76159 0.38292 0.36253 0.0
C1072 C 0.75139 0.36168 0.38687 0.0
C1073 C 0.74427 0.3783 0.41917 0.0
C1074 C 0.46299 0.05529 0.15074 0.0
C1075 C 0.48055 0.07448 0.18008 0.0
C1076 C 0.47893 0.0475 0.12037 0.0
C1077 C 0.51317 0.05794 0.11845 0.0
H1078 H 0.43732 0.04462 0.15191 0.0
H1079 H 0.46467 0.03197 0.09882 0.0
S1080 S 0.56907 0.11265 0.18642 0.0
N1081 N 0.5332 0.10663 0.20351 0.0
N1082 N 0.56287 0.09174 0.14759 0.0
C1083 C 0.53033 0.07863 0.14696 0.0
C1084 C 0.51413 0.0869 0.17736 0.0
C1085 C 0.78454 0.7363 0.92186 0.0
C1086 C 0.79425 0.70316 0.91589 0.0
C1087 C 0.78819 0.76081 0.89759 0.0
C1088 C 0.80272 0.75367 0.86687 0.0
H1089 H 0.77274 0.74312 0.94496 0.0
H1090 H 0.77806 0.7849 0.90211 0.0
S1091 S 0.83608 0.6727 0.84036 0.0
N1092 N 0.82151 0.66562 0.87807 0.0
N1093 N 0.8293 0.71231 0.83268 0.0
C1094 C 0.8148 0.7217 0.86157 0.0
C1095 C 0.81035 0.69627 0.88602 0.0
C1096 C 0.89525 0.08588 0.01427 0.0
C1097 C 0.90357 0.12203 0.01385 0.0
C1098 C 0.91922 0.06272 0.01256 0.0
C1099 C 0.95329 0.07401 0.01055 0.0
H1100 H 0.86969 0.07506 0.01584 0.0
H1101 H 0.9108 0.03542 0.01323 0.0
S1102 S 0.98915 0.16599 1.0086 0.0
N1103 N 0.94915 0.16788 0.01098 0.0
N1104 N 0.99385 0.12462 1.00828 0.0
C1105 C 0.96215 0.1101 0.01013 0.0
C1106 C 0.93755 0.13387 0.01163 0.0
C1107 C 0.383 0.49651 0.06977 0.0
C1108 C 0.38245 0.46612 0.08705 0.0
C1109 C 0.41309 0.51593 0.06407 0.0
C1110 C 0.44369 0.50602 0.07595 0.0
H1111 H 0.36029 0.50352 0.05762 0.0
H1112 H 0.41238 0.53745 0.0481 0.0
S1113 S 0.45506 0.43328 0.13002 0.0
N1114 N 0.41454 0.43026 0.12102 0.0
N1115 N 0.47116 0.46736 0.11131 0.0
C1116 C 0.44325 0.47819 0.09701 0.0
C1117 C 0.41258 0.45802 0.10224 0.0
C1118 C 0.34512 0.67694 0.77318 0.0
C1119 C 0.33055 0.64484 0.75618 0.0
C1120 C 0.32597 0.70358 0.78132 0.0
C1121 C 0.29151 0.69912 0.77283 0.0
H1122 H 0.37154 0.68151 0.7805 0.0
H1123 H 0.33831 0.72786 0.79379 0.0
S1124 S 0.241 0.6199 0.72907 0.0
N1125 N 0.27929 0.61042 0.7315 0.0
N1126 N 0.24353 0.65965 0.74725 0.0
C1127 C 0.27669 0.66702 0.75622 0.0
C1128 C 0.2961 0.64018 0.74769 0.0
C1129 C 0.221 0.62612 0.52975 0.0
C1130 C 0.22365 0.6553 0.51029 0.0
C1131 C 0.18996 0.607 0.53373 0.0
C1132 C 0.16034 0.61597 0.51799 0.0
H1133 H 0.24301 0.61854 0.54286 0.0
H1134 H 0.18917 0.58515 0.54936 0.0
S1135 S 0.15377 0.68856 0.46236 0.0
N1136 N 0.19381 0.69116 0.47399 0.0
N1137 N 0.13599 0.65519 0.48087 0.0
C1138 C 0.16279 0.64447 0.49771 0.0
C1139 C 0.19423 0.66413 0.49403 0.0
C1140 C 0.68233 0.88166 0.78802 0.0
C1141 C 0.69157 0.91773 0.78817 0.0
C1142 C 0.70642 0.85838 0.78887 0.0
C1143 C 0.74073 0.87028 0.79032 0.0
H1144 H 0.65634 0.87127 0.78669 0.0
H1145 H 0.69809 0.83092 0.78784 0.0
S1146 S 0.7784 0.96213 0.79357 0.0
N1147 N 0.73816 0.96379 0.79137 0.0
N1148 N 0.78239 0.92072 0.79337 0.0
C1149 C 0.75014 0.90622 0.79147 0.0
C1150 C 0.72593 0.92969 0.79027 0.0
C1151 C 0.67813 0.96275 0.51373 0.0
C1152 C 0.70418 0.98079 0.5364 0.0
C1153 C 0.65133 0.97891 0.50149 0.0
C1154 C 0.6494 0.01385 0.5113 0.0
H1155 H 0.67816 0.9357 0.5055 0.0
H1156 H 0.63145 0.96353 0.48499 0.0
S1157 S 0.71174 0.07339 0.5687 0.0
N1158 N 0.7269 0.03617 0.56705 0.0
N1159 N 0.67639 0.06648 0.54408 0.0
C1160 C 0.67567 0.03259 0.5331 0.0
C1161 C 0.70302 0.01607 0.54571 0.0
C1162 C 0.32647 0.4512 0.75963 0.0
C1163 C 0.3541 0.45451 0.73997 0.0
C1164 C 0.30898 0.41855 0.76368 0.0
C1165 C 0.31776 0.38806 0.74736 0.0
H1166 H 0.31963 0.47373 0.77382 0.0
H1167 H 0.28907 0.41704 0.78067 0.0
S1168 S 0.38642 0.38292 0.69075 0.0
N1169 N 0.38838 0.4246 0.70261 0.0
N1170 N 0.35472 0.36359 0.70917 0.0
C1171 C 0.34403 0.39124 0.72593 0.0
C1172 C 0.3624 0.42436 0.72254 0.0
C1173 C 0.15876 0.62754 0.3106 0.0
C1174 C 0.16429 0.59507 0.29587 0.0
C1175 C 0.18181 0.65714 0.30908 0.0
C1176 C 0.21116 0.65566 0.29245 0.0
H1177 H 0.13647 0.63019 0.32339 0.0
H1178 H 0.17615 0.68158 0.32054 0.0
S1179 S 0.23764 0.57725 0.24955 0.0
N1180 N 0.20179 0.56335 0.26412 0.0
N1181 N 0.24465 0.61915 0.26112 0.0
C1182 C 0.21722 0.62345 0.27782 0.0
C1183 C 0.19391 0.59317 0.2796 0.0
C1184 C 0.55113 0.69755 0.42419 0.0
C1185 C 0.56498 0.72982 0.4404 0.0
C1186 C 0.55118 0.6677 0.44203 0.0
C1187 C 0.56515 0.66928 0.47652 0.0
H1188 H 0.53767 0.69574 0.39886 0.0
H1189 H 0.53862 0.64353 0.42928 0.0
S1190 S 0.60999 0.74694 0.52771 0.0
N1191 N 0.59702 0.76118 0.49077 0.0
N1192 N 0.5973 0.70494 0.52421 0.0
C1193 C 0.58179 0.70089 0.49172 0.0
C1194 C 0.58171 0.73123 0.47359 0.0
C1195 C 0.64228 0.32909 0.71415 0.0
C1196 C 0.61587 0.30247 0.71628 0.0
C1197 C 0.67264 0.33078 0.73448 0.0
C1198 C 0.67834 0.30554 0.75752 0.0
H1199 H 0.63992 0.34824 0.69564 0.0
H1200 H 0.69246 0.35085 0.73041 0.0
S1201 S 0.61653 0.23182 0.77498 0.0
N1202 N 0.59684 0.25164 0.74526 0.0
N1203 N 0.65373 0.25432 0.78296 0.0
C1204 C 0.65155 0.27972 0.76115 0.0
C1205 C 0.62044 0.27832 0.74075 0.0
C1206 C 0.02102 0.39074 0.96141 0.0
C1207 C 0.03435 0.39615 0.92946 0.0
C1208 C 1.01285 0.41806 0.98301 0.0
C1209 C 1.01807 0.45224 0.97403 0.0
H1210 H 1.01691 0.36506 0.9702 0.0
H1211 H 1.00273 0.41232 1.00725 0.0
S1212 S 0.05199 0.481 0.89325 0.0
N1213 N 0.052 0.43865 0.88979 0.0
N1214 N 0.03696 0.49027 0.93058 0.0
C1215 C 0.03126 0.4583 0.94213 0.0
C1216 C 0.03927 0.43022 0.9198 0.0
C1217 C 0.92925 0.76518 0.25806 0.0
C1218 C 0.92736 0.76543 0.2217 0.0
C1219 C 0.90173 0.76962 0.27703 0.0
C1220 C 0.87072 0.77421 0.26071 0.0
H1221 H 0.95258 0.76274 0.27231 0.0
H1222 H 0.90506 0.77022 0.30498 0.0
S1223 S 0.85157 0.77561 0.166 0.0
N1224 N 0.89096 0.76954 0.17001 0.0
N1225 N 0.83965 0.77785 0.20567 0.0
C1226 C 0.86802 0.77334 0.22432 0.0
C1227 C 0.89615 0.76896 0.20488 0.0
C1228 C 0.49405 0.39549 0.06296 0.0
C1229 C 0.52388 0.38935 0.08019 0.0
C1230 C 0.49333 0.42232 0.04128 0.0
C1231 C 0.52253 0.44364 0.03585 0.0
H1232 H 0.47122 0.37876 0.0655 0.0
H1233 H 0.4697 0.42612 0.02849 0.0
S1234 S 0.60721 0.4371 0.07442 0.0
N1235 N 0.58331 0.40588 0.09046 0.0
N1236 N 0.58225 0.45656 0.04917 0.0
C1237 C 0.55259 0.43789 0.0532 0.0
C1238 C 0.55321 0.41057 0.07552 0.0
C1239 C 0.95827 0.31659 0.38829 0.0
C1240 C 0.95263 0.31267 0.42324 0.0
C1241 C 0.93194 0.31623 0.36291 0.0
C1242 C 0.89907 0.31118 0.37152 0.0
H1243 H 0.98329 0.31942 0.38032 0.0
H1244 H 0.93733 0.31866 0.33627 0.0
S1245 S 0.87079 0.30248 0.45938 0.0
N1246 N 0.91162 0.30603 0.46531 0.0
N1247 N 0.86203 0.30456 0.41747 0.0
C1248 C 0.893 0.30839 0.40643 0.0
C1249 C 0.91983 0.30943 0.43238 0.0
C1250 C 1.01014 0.69523 0.51147 0.0
C1251 C 0.99901 0.70705 0.54314 0.0
C1252 C 1.00898 0.66002 0.50187 0.0
C1253 C 0.99603 0.63508 0.5231 0.0
H1254 H 0.02212 0.71316 0.49486 0.0
H1255 H 1.02042 0.65231 0.47879 0.0
S1256 S 0.95604 0.65171 0.60408 0.0
N1257 N 0.96923 0.69061 0.59268 0.0
N1258 N 0.96644 0.62405 0.57397 0.0
C1259 C 0.98107 0.64618 0.55258 0.0
C1260 C 0.98271 0.68229 0.56281 0.0
C1261 C 0.60509 0.74466 0.85006 0.0
C1262 C 0.61435 0.74785 0.88598 0.0
C1263 C 0.62831 0.74008 0.82593 0.0
C1264 C 0.6614 0.73764 0.8368 0.0
H1265 H 0.5801 0.74755 0.84034 0.0
H1266 H 0.62056 0.7397 0.7986 0.0
S1267 S 0.69775 0.74172 0.92768 0.0
N1268 N 0.65849 0.74637 0.93109 0.0
N1269 N 0.702 0.73674 0.8858 0.0
C1270 C 0.67056 0.7386 0.87257 0.0
C1271 C 0.64705 0.74398 0.89716 0.0
C1272 C 0.46991 0.60563 0.6647 0.0
C1273 C 0.43899 0.58498 0.66522 0.0
C1274 C 0.48975 0.60181 0.637 0.0
C1275 C 0.4795 0.57664 0.60948 0.0
H1276 H 0.48019 0.62242 0.68736 0.0
H1277 H 0.51432 0.61633 0.6387 0.0
S1278 S 0.39839 0.52056 0.59575 0.0
N1279 N 0.39716 0.5425 0.63344 0.0
N1280 N 0.43459 0.53444 0.58192 0.0
C1281 C 0.44729 0.55844 0.6081 0.0
C1282 C 0.42687 0.56297 0.63582 0.0
C1283 C 0.80216 0.21716 0.90094 0.0
C1284 C 0.81556 0.23198 0.93408 0.0
C1285 C 0.79343 0.23787 0.8739 0.0
C1286 C 0.79793 0.27442 0.87848 0.0
H1287 H 0.79826 0.18931 0.89582 0.0
H1288 H 0.78405 0.22505 0.84898 0.0
S1289 S 0.83321 0.32647 0.95956 0.0
N1290 N 0.83335 0.28609 0.96918 0.0
N1291 N 0.81757 0.3242 0.91894 0.0
C1292 C 0.81169 0.2894 0.9113 0.0
C1293 C 0.82022 0.26851 0.93881 0.0
C1294 C 0.04531 0.4802 0.1771 0.0
C1295 C 0.07937 0.48455 0.18871 0.0
C1296 C 0.0341 0.48635 0.14328 0.0
C1297 C 0.05632 0.49703 0.11899 0.0
H1298 H 0.02684 0.47388 0.19507 0.0
H1299 H 1.00761 0.48407 0.13669 0.0
S1300 S 0.1484 0.50793 0.13445 0.0
N1301 N 0.13538 0.49716 0.17192 0.0
N1302 N 0.11468 0.50808 0.10816 0.0
C1303 C 0.09063 0.49883 0.12932 0.0
C1304 C 0.10204 0.49268 0.16408 0.0
C1305 C 0.79744 0.91444 0.44485 0.0
C1306 C 0.80874 0.90195 0.47591 0.0
C1307 C 0.79638 0.8944 0.41348 0.0
C1308 C 0.8068 0.86145 0.4123 0.0
H1309 H 0.78717 0.93867 0.445 0.0
H1310 H 0.78605 0.90423 0.39027 0.0
S1311 S 0.84455 0.82029 0.48567 0.0
N1312 N 0.83495 0.85708 0.50311 0.0
N1313 N 0.83304 0.81934 0.44392 0.0
C1314 C 0.82079 0.85 0.44271 0.0
C1315 C 0.8218 0.87037 0.47466 0.0
C1316 C 0.40474 0.55293 0.86704 0.0
C1317 C 0.42055 0.5528 0.83615 0.0
C1318 C 0.42195 0.54785 0.89841 0.0
C1319 C 0.45524 0.54193 0.8996 0.0
H1320 H 0.37913 0.55755 0.86713 0.0
H1321 H 0.40914 0.54849 0.92181 0.0
S1322 S 0.5082 0.53953 0.82641 0.0
N1323 N 0.47186 0.54686 0.80913 0.0
N1324 N 0.50356 0.53646 0.86788 0.0
C1325 C 0.47122 0.54134 0.86901 0.0
C1326 C 0.45401 0.547 0.83727 0.0
C1327 C 0.8007 0.21289 0.13621 0.0
C1328 C 0.82944 0.22497 0.12044 0.0
C1329 C 0.79423 0.22682 0.16916 0.0
C1330 C 0.81631 0.25339 0.18826 0.0
H1331 H 0.78172 0.19433 0.12179 0.0
H1332 H 0.77107 0.21738 0.17928 0.0
S1333 S 0.89629 0.29273 0.15989 0.0
N1334 N 0.88078 0.26443 0.12726 0.0
N1335 N 0.86944 0.28944 0.18965 0.0
C1336 C 0.84617 0.26418 0.17384 0.0
C1337 C 0.85244 0.25041 0.13987 0.0
C1338 C 0.05472 0.48986 0.37245 0.0
C1339 C 0.08946 0.49832 0.37427 0.0
C1340 C 0.03647 0.49692 0.40086 0.0
C1341 C 0.05177 0.51383 0.4323 0.0
H1342 H 0.04141 0.47694 0.34895 0.0
H1343 H 1.00994 0.48891 0.39813 0.0
S1344 S 0.14219 0.54189 0.45072 0.0
N1345 N 0.13856 0.52447 0.41042 0.0
N1346 N 0.10421 0.53875 0.46327 0.0
C1347 C 0.08645 0.52311 0.4343 0.0
C1348 C 0.10525 0.51505 0.40553 0.0
C1349 C 0.74768 0.8811 0.66328 0.0
C1350 C 0.74266 0.86572 0.62926 0.0
C1351 C 0.74368 0.86077 0.6913 0.0
C1352 C 0.73422 0.82475 0.68602 0.0
H1353 H 0.75873 0.90783 0.66838 0.0
H1354 H 0.75166 0.87269 0.71707 0.0
S1355 S 0.70994 0.77411 0.60208 0.0
N1356 N 0.7212 0.81391 0.59183 0.0
N1357 N 0.71418 0.77585 0.6448 0.0
C1358 C 0.72465 0.81011 0.65239 0.0
C1359 C 0.72861 0.83071 0.62385 0.0
C1360 C 0.63104 0.45214 0.54927 0.0
C1361 C 0.66573 0.46229 0.55504 0.0
C1362 C 0.60796 0.47665 0.55019 0.0
C1363 C 0.61839 0.51262 0.55626 0.0
H1364 H 0.6216 0.42506 0.54338 0.0
H1365 H 0.58189 0.46728 0.54484 0.0
S1366 S 0.70586 0.55318 0.57525 0.0
N1367 N 0.70859 0.51149 0.56924 0.0
N1368 N 0.66595 0.55657 0.56997 0.0
C1369 C 0.65281 0.52287 0.56293 0.0
C1370 C 0.67615 0.49812 0.56257 0.0
C1371 C 0.17642 0.07862 0.47142 0.0
C1372 C 0.17542 0.10787 0.4523 0.0
C1373 C 0.14741 0.06007 0.48115 0.0
C1374 C 0.1161 0.06946 0.47162 0.0
H1375 H 0.19985 0.07132 0.48123 0.0
H1376 H 0.14973 0.03913 0.4976 0.0
S1377 S 0.09928 0.1398 0.416 0.0
N1378 N 0.14008 0.14234 0.42022 0.0
N1379 N 0.08553 0.10708 0.43789 0.0
C1380 C 0.11447 0.09645 0.4496 0.0
C1381 C 0.14412 0.11569 0.44005 0.0
C1382 C 0.26791 0.94535 0.80232 0.0
C1383 C 0.23302 0.9404 0.7981 0.0
C1384 C 0.28637 0.91789 0.79548 0.0
C1385 C 0.27094 0.88434 0.78355 0.0
H1386 H 0.28111 0.97043 0.81173 0.0
H1387 H 0.31311 0.92291 0.80024 0.0
S1388 S 0.18 0.85847 0.76695 0.0
N1389 N 0.18373 0.89974 0.78047 0.0
N1390 N 0.21823 0.84886 0.76696 0.0
C1391 C 0.2361 0.87957 0.77823 0.0
C1392 C 0.21725 0.90734 0.78575 0.0
C1393 C 0.34241 0.95449 0.00989 0.0
C1394 C 0.34075 0.92069 0.02062 0.0
C1395 C 0.37315 0.97512 1.0082 0.0
C1396 C 0.40329 0.96312 0.01818 0.0
H1397 H 0.31983 0.96474 1.00197 0.0
H1398 H 0.37328 1.00078 0.99938 0.0
S1399 S 0.41251 0.87684 0.04871 0.0
N1400 N 0.37207 0.87627 0.04114 0.0
N1401 N 0.42938 0.91531 0.03934 0.0
C1402 C 0.40187 0.92962 0.02944 0.0
C1403 C 0.37075 0.90836 0.03028 0.0
C1404 C 0.86827 0.69314 0.7568 0.0
C1405 C 0.86084 0.65765 0.74612 0.0
C1406 C 0.84349 0.71536 0.75591 0.0
C1407 C 0.81002 0.70325 0.7444 0.0
H1408 H 0.89311 0.70363 0.76741 0.0
H1409 H 0.85042 0.74201 0.766 0.0
S1410 S 0.77798 0.61363 0.70935 0.0
N1411 N 0.81767 0.61233 0.72024 0.0
N1412 N 0.77169 0.65394 0.71901 0.0
C1413 C 0.80267 0.66838 0.73168 0.0
C1414 C 0.82784 0.6457 0.73249 0.0
C1415 C 0.84469 0.56486 0.01716 0.0
C1416 C 0.84509 0.60071 0.02439 0.0
C1417 C 0.87182 0.5484 0.02778 0.0
C1418 C 0.9001 0.56721 0.04619 0.0
H1419 H 0.82403 0.54965 1.00165 0.0
H1420 H 0.87137 0.52124 0.0197 0.0
S1421 S 0.91073 0.66018 0.07752 0.0
N1422 N 0.87413 0.6535 0.05518 0.0
N1423 N 0.92505 0.62252 0.07548 0.0
C1424 C 0.89963 0.60244 0.05615 0.0
C1425 C 0.87214 0.61925 0.04508 0.0
C1426 C 0.23332 0.13037 0.80415 0.0
C1427 C 0.20639 0.12873 0.82492 0.0
C1428 C 0.25072 0.16225 0.79744 0.0
C1429 C 0.24257 0.19372 0.81205 0.0
H1430 H 0.23983 0.10697 0.79132 0.0
H1431 H 0.27026 0.16229 0.78007 0.0
S1432 S 0.17573 0.2038 0.87009 0.0
N1433 N 0.17335 0.16158 0.86113 0.0
N1434 N 0.2068 0.22124 0.8495 0.0
C1435 C 0.21688 0.19243 0.83428 0.0
C1436 C 0.19861 0.16003 0.84045 0.0
C1437 C 0.37885 0.97353 0.31608 0.0
C1438 C 0.39294 0.9825 0.28554 0.0
C1439 C 0.35337 0.94559 0.31551 0.0
C1440 C 0.3417 0.92553 0.28446 0.0
H1441 H 0.38716 0.98854 0.34039 0.0
H1442 H 0.34347 0.93908 0.33963 0.0
S1443 S 0.37035 0.93912 0.19756 0.0
N1444 N 0.39282 0.9701 0.22348 0.0
N1445 N 0.34612 0.91685 0.22252 0.0
C1446 C 0.35568 0.93442 0.25384 0.0
C1447 C 0.381 0.96315 0.25434 0.0
C1448 C 0.51127 0.35561 0.59648 0.0
C1449 C 0.51345 0.35975 0.63301 0.0
C1450 C 0.51181 0.38403 0.5765 0.0
C1451 C 0.51511 0.41774 0.5923 0.0
H1452 H 0.50891 0.33009 0.58299 0.0
H1453 H 0.51023 0.37958 0.54856 0.0
S1454 S 0.52075 0.44288 0.68681 0.0
N1455 N 0.51802 0.40027 0.68401 0.0
N1456 N 0.51976 0.45394 0.64658 0.0
C1457 C 0.51711 0.42238 0.62876 0.0
C1458 C 0.51607 0.39333 0.64911 0.0
C1459 C 0.43487 0.80745 0.32021 0.0
C1460 C 0.44186 0.78747 0.34784 0.0
C1461 C 0.40334 0.80266 0.30149 0.0
C1462 C 0.37761 0.77718 0.30903 0.0
H1463 H 0.45314 0.82834 0.3144 0.0
H1464 H 0.39867 0.82014 0.28185 0.0
S1465 S 0.38507 0.71507 0.37617 0.0
N1466 N 0.4215 0.73938 0.37998 0.0
N1467 N 0.36311 0.72956 0.34425 0.0
C1468 C 0.38531 0.7554 0.33497 0.0
C1469 C 0.4171 0.76081 0.3545 0.0
C1470 C 0.02879 0.65871 0.127 0.0
C1471 C 1.01466 0.68533 0.11128 0.0
C1472 C 0.03459 0.62872 0.10709 0.0
C1473 C 0.02709 0.62496 0.07088 0.0
H1474 H 0.03782 0.66227 0.15411 0.0
H1475 H 0.04707 0.60955 0.11967 0.0
S1476 S 0.98466 0.68417 0.01852 0.0
N1477 N 0.98905 0.70331 0.05819 0.0
N1478 N 1.00099 0.64782 0.02111 0.0
C1479 C 1.01069 0.64998 0.05551 0.0
C1480 C 1.00413 0.67989 0.07567 0.0
C1481 C 0.16443 0.31344 0.85087 0.0
C1482 C 0.13222 0.31019 0.83356 0.0
C1483 C 0.19286 0.30937 0.83271 0.0
C1484 C 0.19026 0.30213 0.79643 0.0
H1485 H 0.16765 0.31853 0.87875 0.0
H1486 H 0.21685 0.31137 0.84719 0.0
S1487 S 0.11217 0.29304 0.73852 0.0
N1488 N 0.10026 0.30049 0.77763 0.0
N1489 N 0.15265 0.29329 0.744 0.0
C1490 C 0.1583 0.29964 0.77896 0.0
C1491 C 0.12965 0.30353 0.7973 0.0
C1492 C 0.54258 0.69191 0.03998 0.0
C1493 C 0.5325 0.69643 1.00538 0.0
C1494 C 0.54397 0.6589 0.05111 0.0
C1495 C 0.53439 0.62917 0.02839 0.0
H1496 H 0.55051 0.71409 0.05838 0.0
H1497 H 0.55297 0.65665 0.0777 0.0
S1498 S 0.50502 0.62696 0.9355 0.0
N1499 N 0.51234 0.66852 0.94854 0.0
N1500 N 0.51387 0.60634 0.96991 0.0
C1501 C 0.52325 0.63325 0.99404 0.0
C1502 C 0.52265 0.66695 0.9824 0.0
C1503 C 0.1476 0.80975 0.63559 0.0
C1504 C 0.11443 0.79869 0.64107 0.0
C1505 C 0.1733 0.80663 0.66066 0.0
C1506 C 0.16681 0.7922 0.69197 0.0
H1507 H 0.15377 0.82123 0.61201 0.0
H1508 H 0.1985 0.81565 0.6554 0.0
S1509 S 0.08464 0.7584 0.71895 0.0
N1510 N 0.07669 0.77193 0.68036 0.0
N1511 N 0.12525 0.76639 0.72713 0.0
C1512 C 0.13397 0.78077 0.69779 0.0
C1513 C 0.10772 0.78394 0.6724 0.0
C1514 C 0.0797 0.4043 0.47203 0.0
C1515 C 0.06895 0.37596 0.49054 0.0
C1516 C 0.07892 0.43836 0.4857 0.0
C1517 C 0.06673 0.4452 0.51804 0.0
H1518 H 0.08773 0.40019 0.44629 0.0
H1519 H 0.08581 0.45927 0.46981 0.0
S1520 S 0.03979 0.38094 0.57893 0.0
N1521 N 0.04972 0.35766 0.54509 0.0
N1522 N 0.04656 0.42157 0.56954 0.0
C1523 C 0.05767 0.41741 0.53761 0.0
C1524 C 0.05925 0.3828 0.52419 0.0
C1525 C 0.40768 0.29574 0.15108 0.0
C1526 C 0.44005 0.29628 0.16634 0.0
C1527 C 0.38119 0.29863 0.17149 0.0
C1528 C 0.38622 0.3029 0.20784 0.0
H1529 H 0.4027 0.29293 0.12318 0.0
H1530 H 0.35655 0.2976 0.15863 0.0
S1531 S 0.46619 0.3068 0.26063 0.0
N1532 N 0.47572 0.3017 0.22021 0.0
N1533 N 0.42576 0.30773 0.25835 0.0
C1534 C 0.41841 0.30392 0.2235 0.0
C1535 C 0.44538 0.30038 0.20278 0.0
C1536 C 0.64598 0.52122 0.42889 0.0
C1537 C 0.63397 0.50723 0.39538 0.0
C1538 C 0.62447 0.52286 0.4554 0.0
C1539 C 0.59054 0.50975 0.4495 0.0
H1540 H 0.67161 0.53271 0.43417 0.0
H1541 H 0.63418 0.53573 0.48038 0.0
S1542 S 0.54771 0.46683 0.3676 0.0
N1543 N 0.58642 0.47739 0.35858 0.0
N1544 N 0.54654 0.48011 0.40875 0.0
C1545 C 0.57873 0.49373 0.41687 0.0
C1546 C 0.60036 0.49255 0.38971 0.0
C1547 C 0.24881 0.79657 0.12388 0.0
C1548 C 0.24895 0.83264 0.12221 0.0
C1549 C 0.25549 0.78158 0.15499 0.0
C1550 C 0.2626 0.80138 0.18694 0.0
H1551 H 0.24409 0.77926 0.10049 0.0
H1552 H 0.25534 0.7538 0.15375 0.0
S1553 S 0.26212 0.89655 0.19898 0.0
N1554 N 0.25458 0.88771 0.15667 0.0
N1555 N 0.26603 0.85932 0.21544 0.0
C1556 C 0.26131 0.83738 0.18638 0.0
C1557 C 0.25466 0.85295 0.15416 0.0
C1558 C 0.94255 0.58835 0.88899 0.0
C1559 C 0.96118 0.59122 0.86 0.0
C1560 C 0.95689 0.58118 0.92154 0.0
C1561 C 0.99069 0.57651 0.92694 0.0
H1562 H 0.91642 0.5911 0.88647 0.0
H1563 H 0.941 0.57876 0.94256 0.0
S1564 S 0.05101 0.58282 0.85991 0.0
N1565 N 1.01592 0.59 0.83946 0.0
N1566 N 0.04251 0.57647 0.89997 0.0
C1567 C 1.00977 0.5801 0.8983 0.0
C1568 C 0.99517 0.58742 0.86516 0.0
C1569 C 0.2731 0.18835 0.59825 0.0
C1570 C 0.25209 0.19998 0.5725 0.0
C1571 C 0.27561 0.20309 0.63236 0.0
C1572 C 0.25728 0.22986 0.64159 0.0
H1573 H 0.28874 0.16884 0.59179 0.0
H1574 H 0.29282 0.19426 0.65131 0.0
S1575 S 0.19523 0.26592 0.58507 0.0
N1576 N 0.20995 0.23712 0.55943 0.0
N1577 N 0.21508 0.26505 0.62352 0.0
C1578 C 0.23498 0.24048 0.61659 0.0
C1579 C 0.23226 0.22541 0.58199 0.0
C1580 C 0.59877 0.49557 0.20631 0.0
C1581 C 0.63005 0.51369 0.21793 0.0
C1582 C 0.58607 0.49531 0.17191 0.0
C1583 C 0.60397 0.5138 0.14822 0.0
H1584 H 0.58334 0.48287 0.22437 0.0
H1585 H 0.56122 0.48233 0.16445 0.0
S1586 S 0.68877 0.56173 0.16482 0.0
N1587 N 0.68014 0.54742 0.2025 0.0
N1588 N 0.65599 0.54756 0.13761 0.0
C1589 C 0.63629 0.52992 0.15884 0.0
C1590 C 0.64945 0.5297 0.19386 0.0
C1591 C 0.21936 0.82909 0.92696 0.0
C1592 C 0.23427 0.86261 0.93989 0.0
C1593 C 0.22604 0.81398 0.89442 0.0
C1594 C 0.2488 0.83129 0.87399 0.0
H1595 H 0.20246 0.81432 0.94223 0.0
H1596 H 0.21419 0.78811 0.88579 0.0
S1597 S 0.2953 0.91897 0.89613 0.0
N1598 N 0.27263 0.91254 0.92909 0.0
N1599 N 0.28645 0.88367 0.86938 0.0
C1600 C 0.2639 0.86469 0.88669 0.0
C1601 C 0.25632 0.88047 0.91918 0.0
C1602 C 0.99684 0.60153 0.66531 0.0
C1603 C 0.97415 0.57445 0.67491 0.0
C1604 C 1.01439 0.59769 0.63562 0.0
C1605 C 1.01045 0.56644 0.61418 0.0
H1606 H 1.0024 0.62534 0.68192 0.0
H1607 H 0.03199 0.61927 0.63 0.0
S1608 S 0.95408 0.4874 0.62793 0.0
N1609 N 0.94859 0.51524 0.66036 0.0
N1610 N 0.98144 0.50803 0.60487 0.0
C1611 C 0.98716 0.53945 0.62298 0.0
C1612 C 0.96919 0.54343 0.65323 0.0
C1613 C 0.30118 0.17288 0.37481 0.0
C1614 C 0.30569 0.18813 0.40887 0.0
C1615 C 0.30247 0.19361 0.34689 0.0
C1616 C 0.30885 0.22991 0.35238 0.0
H1617 H 0.29378 0.14529 0.36973 0.0
H1618 H 0.29558 0.1814 0.32098 0.0
S1619 S 0.32898 0.28155 0.43634 0.0
N1620 N 0.32202 0.24114 0.44647 0.0
N1621 N 0.32411 0.27976 0.39365 0.0
C1622 C 0.31695 0.24504 0.38602 0.0
C1623 C 0.31545 0.22413 0.41445 0.0
C1624 C 0.4374 0.62785 0.51197 0.0
C1625 C 0.40293 0.6161 0.51046 0.0
C1626 C 0.46164 0.6045 0.51046 0.0
C1627 C 0.45265 0.56817 0.50704 0.0
H1628 H 0.44583 0.65535 0.51485 0.0
H1629 H 0.48756 0.61509 0.51269 0.0
S1630 S 0.36594 0.52362 0.49897 0.0
N1631 N 0.3617 0.56502 0.5036 0.0
N1632 N 0.40621 0.52216 0.50008 0.0
C1633 C 0.41828 0.55636 0.50444 0.0
C1634 C 0.39385 0.57987 0.50636 0.0
C1635 C 0.88534 0.9997 0.56613 0.0
C1636 C 0.8846 0.97037 0.58506 0.0
C1637 C 0.91551 0.01865 0.55985 0.0
C1638 C 0.94605 1.0093 0.57271 0.0
H1639 H 0.86268 1.00623 0.5534 0.0
H1640 H 0.91487 0.03939 0.5429 0.0
S1641 S 0.95691 0.93919 0.63048 0.0
N1642 N 0.91643 0.93603 0.62112 0.0
N1643 N 0.97318 0.97214 0.61029 0.0
C1644 C 0.94539 0.98245 0.59506 0.0
C1645 C 0.91464 0.96279 0.60092 0.0
C1646 C 0.80094 0.13968 0.24853 0.0
C1647 C 0.83562 0.14376 0.25538 0.0
C1648 C 0.78238 0.16613 0.25807 0.0
C1649 C 0.79757 0.19795 0.27479 0.0
H1650 H 0.78783 0.11567 0.23604 0.0
H1651 H 0.75579 0.16161 0.25182 0.0
S1652 S 0.88763 0.22214 0.29883 0.0
N1653 N 0.88452 0.18249 0.28007 0.0
N1654 N 0.84942 0.23197 0.29796 0.0
C1655 C 0.83219 0.2025 0.28183 0.0
C1656 C 0.85123 0.17553 0.27209 0.0
C1657 C 0.69187 0.16245 1.00044 0.0
C1658 C 0.72233 0.15343 0.01407 0.0
C1659 C 0.66149 0.14225 1.00444 0.0
C1660 C 0.66001 0.11248 0.02289 0.0
H1661 H 0.69143 0.18544 0.98657 0.0
H1662 H 0.63886 0.15045 0.99341 0.0
S1663 S 0.73226 0.0772 0.06379 0.0
N1664 N 0.74882 0.112 0.04653 0.0
N1665 N 0.69181 0.07468 0.05456 0.0
C1666 C 0.69017 0.10296 0.03652 0.0
C1667 C 0.72123 0.12321 0.03195 0.0
C1668 C 0.22248 0.42145 0.29545 0.0
C1669 C 0.18804 0.41059 0.28988 0.0
C1670 C 0.24568 0.39774 0.29728 0.0
C1671 C 0.23595 0.3617 0.29326 0.0
H1672 H 0.23185 0.44875 0.2982 0.0
H1673 H 0.27175 0.40796 0.30078 0.0
S1674 S 0.14864 0.31925 0.27959 0.0
N1675 N 0.14526 0.36097 0.28194 0.0
N1676 N 0.18875 0.31651 0.28458 0.0
C1677 C 0.2015 0.35036 0.28867 0.0
C1678 C 0.17768 0.37469 0.28714 0.0
C1679 C 0.2008 0.50942 0.04694 0.0
C1680 C 0.20269 0.47527 0.03381 0.0
C1681 C 0.17469 0.52715 0.03554 0.0
C1682 C 0.14955 0.51141 0.01056 0.0
H1683 H 0.2194 0.52246 0.06648 0.0
H1684 H 0.17355 0.55286 0.04738 0.0
S1685 S 0.14379 0.42338 0.96622 0.0
N1686 N 0.17761 0.42707 0.99305 0.0
N1687 N 0.12889 0.46048 0.97179 0.0
C1688 C 0.15166 0.47777 0.9964 0.0
C1689 C 0.17808 0.45966 1.00804 0.0
C1690 C 0.85683 0.92086 0.21952 0.0
C1691 C 0.8496 0.95173 0.23657 0.0
C1692 C 0.83881 0.88864 0.2242 0.0
C1693 C 0.81356 0.88602 0.24695 0.0
H1694 H 0.87749 0.92148 0.20353 0.0
H1695 H 0.84624 0.86547 0.21181 0.0
S1696 S 0.78372 0.95906 0.29631 0.0
N1697 N 0.81393 0.97765 0.2753 0.0
N1698 N 0.78091 0.91719 0.28504 0.0
C1699 C 0.80515 0.91679 0.26294 0.0
C1700 C 0.82291 0.94962 0.25749 0.0
C1701 C 0.66032 0.13096 0.81 0.0
C1702 C 0.66467 0.09878 0.79374 0.0
C1703 C 0.68457 0.1598 0.81015 0.0
C1704 C 0.71396 0.15787 0.79362 0.0
H1705 H 0.63813 0.13388 0.82292 0.0
H1706 H 0.67981 0.18407 0.82281 0.0
S1707 S 0.73745 0.07994 0.74691 0.0
N1708 N 0.70101 0.06677 0.76058 0.0
N1709 N 0.74607 0.1213 0.76055 0.0
C1710 C 0.71873 0.12598 0.77728 0.0
C1711 C 0.69424 0.0964 0.77745 0.0
loop_
_geom_bond_atom_site_label_1
_geom_bond_atom_site_label_2
_geom_bond_distance
_geom_bond_site_symmetry_2
_ccdc_geom_bond_type
Co0 O1 2.216 . S
Co0 O2 2.091 . S
Co0 O4 2.004 1_455 S
Co0 O10 2.021 . S
Co0 O12 2.137 . S
Co0 O13 2.244 . S
O1 Co0 2.216 . S
O1 C8 1.247 . S
O2 Co0 2.091 . S
O2 C8 1.261 . S
C3 O12 1.247 . S
C3 O13 1.272 . S
O4 Co0 2.004 1_655 S
O4 C9 1.259 . S
Co5 O6 2.061 . S
Co5 O11 2.052 . S
Co5 O13 2.135 1_655 S
O6 Co5 2.061 . S
O6 C9 1.235 . S
C7 O10 1.238 . S
C7 O11 1.241 1_455 S
C8 O1 1.247 . S
C8 O2 1.261 . S
C9 O4 1.259 . S
C9 O6 1.235 . S
O10 Co0 2.021 . S
O10 C7 1.238 . S
O11 Co5 2.052 . S
O11 C7 1.241 1_655 S
O12 Co0 2.137 . S
O12 C3 1.247 . S
O13 Co0 2.244 . S
O13 C3 1.272 . S
O13 Co5 2.135 1_455 S
Co14 O15 2.216 . S
Co14 O16 2.091 . S
Co14 O18 2.004 1_655 S
Co14 O24 2.021 . S
Co14 O26 2.137 . S
Co14 O27 2.244 1_655 S
O15 Co14 2.216 . S
O15 C22 1.247 . S
O16 Co14 2.091 . S
O16 C22 1.261 . S
C17 O26 1.247 1_455 S
C17 O27 1.272 . S
O18 Co14 2.004 1_455 S
O18 C23 1.259 . S
Co19 O20 2.061 . S
Co19 O25 2.052 . S
Co19 O27 2.135 . S
O20 Co19 2.061 . S
O20 C23 1.235 . S
C21 O24 1.238 . S
C21 O25 1.241 1_655 S
C22 O15 1.247 . S
C22 O16 1.261 . S
C23 O18 1.259 . S
C23 O20 1.235 . S
O24 Co14 2.021 . S
O24 C21 1.238 . S
O25 Co19 2.052 . S
O25 C21 1.241 1_455 S
O26 Co14 2.137 . S
O26 C17 1.247 1_655 S
O27 Co14 2.244 1_455 S
O27 C17 1.272 . S
O27 Co19 2.135 . S
Co28 O29 2.216 . S
Co28 O30 2.091 . S
Co28 O32 2.004 . S
Co28 O38 2.021 . S
Co28 O40 2.137 . S
Co28 O41 2.244 . S
O29 Co28 2.216 . S
O29 C36 1.247 . S
O30 Co28 2.091 . S
O30 C36 1.261 . S
C31 O40 1.247 . S
C31 O41 1.272 . S
O32 Co28 2.004 . S
O32 C37 1.259 . S
Co33 O34 2.061 . S
Co33 O39 2.052 . S
Co33 O41 2.135 . S
O34 Co33 2.061 . S
O34 C37 1.235 . S
C35 O38 1.238 . S
C35 O39 1.241 . S
C36 O29 1.247 . S
C36 O30 1.261 . S
C37 O32 1.259 . S
C37 O34 1.235 . S
O38 Co28 2.021 . S
O38 C35 1.238 . S
O39 Co33 2.052 . S
O39 C35 1.241 . S
O40 Co28 2.137 . S
O40 C31 1.247 . S
O41 Co28 2.244 . S
O41 C31 1.272 . S
O41 Co33 2.135 . S
Co42 O43 2.216 . S
Co42 O44 2.091 . S
Co42 O46 2.004 . S
Co42 O52 2.021 . S
Co42 O54 2.137 . S
Co42 O55 2.244 . S
O43 Co42 2.216 . S
O43 C50 1.247 . S
O44 Co42 2.091 . S
O44 C50 1.261 . S
C45 O54 1.247 . S
C45 O55 1.272 . S
O46 Co42 2.004 . S
O46 C51 1.259 . S
Co47 O48 2.061 . S
Co47 O53 2.052 . S
Co47 O55 2.135 . S
O48 Co47 2.061 . S
O48 C51 1.235 . S
C49 O52 1.238 . S
C49 O53 1.241 . S
C50 O43 1.247 . S
C50 O44 1.261 . S
C51 O46 1.259 . S
C51 O48 1.235 . S
O52 Co42 2.021 . S
O52 C49 1.238 . S
O53 Co47 2.052 . S
O53 C49 1.241 . S
O54 Co42 2.137 . S
O54 C45 1.247 . S
O55 Co42 2.244 . S
O55 C45 1.272 . S
O55 Co47 2.135 . S
Co56 O57 2.216 1_455 S
Co56 O58 2.091 1_455 S
Co56 O60 2.004 . S
Co56 O66 2.017 . S
Co56 O68 2.137 . S
Co56 O69 2.244 . S
O57 Co56 2.216 1_655 S
O57 C64 1.247 . S
O58 Co56 2.091 1_655 S
O58 C64 1.261 . S
C59 O68 1.247 . S
C59 O69 1.272 . S
O60 Co56 2.004 . S
O60 C65 1.259 . S
Co61 O62 2.061 . S
Co61 O67 2.052 . S
Co61 O69 2.135 . S
O62 Co61 2.061 . S
O62 C65 1.235 . S
C63 O66 1.246 . S
C63 O67 1.241 . S
C64 O57 1.247 . S
C64 O58 1.261 . S
C65 O60 1.259 . S
C65 O62 1.235 . S
O66 Co56 2.017 . S
O66 C63 1.246 . S
O67 Co61 2.052 . S
O67 C63 1.241 . S
O68 Co56 2.137 . S
O68 C59 1.247 . S
O69 Co56 2.244 . S
O69 C59 1.272 . S
O69 Co61 2.135 . S
Co70 O71 2.216 . S
Co70 O72 2.091 . S
Co70 O74 2.004 . S
Co70 O80 2.021 . S
Co70 O82 2.137 . S
Co70 O83 2.244 . S
O71 Co70 2.216 . S
O71 C78 1.247 . S
O72 Co70 2.091 . S
O72 C78 1.261 . S
C73 O82 1.247 . S
C73 O83 1.272 . S
O74 Co70 2.004 . S
O74 C79 1.259 . S
Co75 O76 2.061 . S
Co75 O81 2.052 . S
Co75 O83 2.135 . S
O76 Co75 2.061 . S
O76 C79 1.235 . S
C77 O80 1.238 . S
C77 O81 1.241 . S
C78 O71 1.247 . S
C78 O72 1.261 . S
C79 O74 1.259 . S
C79 O76 1.235 . S
O80 Co70 2.021 . S
O80 C77 1.238 . S
O81 Co75 2.052 . S
O81 C77 1.241 . S
O82 Co70 2.137 . S
O82 C73 1.247 . S
O83 Co70 2.244 . S
O83 C73 1.272 . S
O83 Co75 2.135 . S
Co84 O85 2.216 . S
Co84 O86 2.091 . S
Co84 O88 2.004 . S
Co84 O94 2.021 . S
Co84 O96 2.137 . S
Co84 O97 2.244 . S
O85 Co84 2.216 . S
O85 C92 1.247 . S
O86 Co84 2.091 . S
O86 C92 1.261 . S
C87 O96 1.247 . S
C87 O97 1.272 . S
O88 Co84 2.004 . S
O88 C93 1.259 . S
Co89 O90 2.061 . S
Co89 O95 2.052 . S
Co89 O97 2.135 . S
O90 Co89 2.061 . S
O90 C93 1.235 . S
C91 O94 1.238 . S
C91 O95 1.241 . S
C92 O85 1.247 . S
C92 O86 1.261 . S
C93 O88 1.259 . S
C93 O90 1.235 . S
O94 Co84 2.021 . S
O94 C91 1.238 . S
O95 Co89 2.052 . S
O95 C91 1.241 . S
O96 Co84 2.137 . S
O96 C87 1.247 . S
O97 Co84 2.244 . S
O97 C87 1.272 . S
O97 Co89 2.135 . S
Co98 O99 2.216 . S
Co98 O100 2.091 . S
Co98 O102 2.004 1_455 S
Co98 O108 2.021 . S
Co98 O110 2.137 . S
Co98 O111 2.244 . S
O99 Co98 2.216 . S
O99 C106 1.247 . S
O100 Co98 2.091 . S
O100 C106 1.261 . S
C101 O110 1.247 . S
C101 O111 1.272 . S
O102 Co98 2.004 1_655 S
O102 C107 1.259 . S
Co103 O104 2.061 . S
Co103 O109 2.052 . S
Co103 O111 2.135 1_655 S
O104 Co103 2.061 . S
O104 C107 1.235 . S
C105 O108 1.238 . S
C105 O109 1.241 1_455 S
C106 O99 1.247 . S
C106 O100 1.261 . S
C107 O102 1.259 . S
C107 O104 1.235 . S
O108 Co98 2.021 . S
O108 C105 1.238 . S
O109 Co103 2.052 . S
O109 C105 1.241 1_655 S
O110 Co98 2.137 . S
O110 C101 1.247 . S
O111 Co98 2.244 . S
O111 C101 1.272 . S
O111 Co103 2.135 1_455 S
Co112 O113 2.216 . S
Co112 O114 2.091 . S
Co112 O116 2.004 . S
Co112 O122 2.021 . S
Co112 O124 2.137 . S
Co112 O125 2.244 . S
O113 Co112 2.216 . S
O113 C120 1.247 . S
O114 Co112 2.091 . S
O114 C120 1.261 . S
C115 O124 1.247 . S
C115 O125 1.272 . S
O116 Co112 2.004 . S
O116 C121 1.259 1_545 S
Co117 O118 2.061 1_545 S
Co117 O123 2.052 . S
Co117 O125 2.135 . S
O118 Co117 2.061 1_565 S
O118 C121 1.235 . S
C119 O122 1.238 . S
C119 O123 1.241 . S
C120 O113 1.247 . S
C120 O114 1.261 . S
C121 O116 1.259 1_565 S
C121 O118 1.235 . S
O122 Co112 2.021 . S
O122 C119 1.238 . S
O123 Co117 2.052 . S
O123 C119 1.241 . S
O124 Co112 2.137 . S
O124 C115 1.247 . S
O125 Co112 2.244 . S
O125 C115 1.272 . S
O125 Co117 2.135 . S
Co126 O127 2.216 . S
Co126 O128 2.091 . S
Co126 O130 2.004 . S
Co126 O136 2.021 . S
Co126 O138 2.137 . S
Co126 O139 2.244 . S
O127 Co126 2.216 . S
O127 C134 1.247 . S
O128 Co126 2.091 . S
O128 C134 1.261 . S
C129 O138 1.247 . S
C129 O139 1.272 . S
O130 Co126 2.004 . S
O130 C135 1.259 . S
Co131 O132 2.061 . S
Co131 O137 2.052 . S
Co131 O139 2.135 . S
O132 Co131 2.061 . S
O132 C135 1.235 . S
C133 O136 1.238 . S
C133 O137 1.241 . S
C134 O127 1.247 . S
C134 O128 1.261 . S
C135 O130 1.259 . S
C135 O132 1.235 . S
O136 Co126 2.021 . S
O136 C133 1.238 . S
O137 Co131 2.052 . S
O137 C133 1.241 . S
O138 Co126 2.137 . S
O138 C129 1.247 . S
O139 Co126 2.244 . S
O139 C129 1.272 . S
O139 Co131 2.135 . S
Co140 O141 2.216 . S
Co140 O142 2.091 . S
Co140 O144 2.004 1_565 S
Co140 O150 2.021 . S
Co140 O152 2.137 . S
Co140 O153 2.244 1_565 S
O141 Co140 2.216 . S
O141 C148 1.247 . S
O142 Co140 2.091 . S
O142 C148 1.261 . S
C143 O152 1.238 1_545 S
C143 O153 1.279 . S
O144 Co140 2.004 1_545 S
O144 C149 1.259 . S
Co145 O146 2.061 . S
Co145 O151 2.052 . S
Co145 O153 2.135 . S
O146 Co145 2.061 . S
O146 C149 1.235 . S
C147 O150 1.240 . S
C147 O151 1.238 1_565 S
C148 O141 1.247 . S
C148 O142 1.261 . S
C149 O144 1.259 . S
C149 O146 1.235 . S
O150 Co140 2.021 . S
O150 C147 1.240 . S
O151 Co145 2.052 . S
O151 C147 1.238 1_545 S
O152 Co140 2.137 . S
O152 C143 1.238 1_565 S
O153 Co140 2.244 1_545 S
O153 C143 1.279 . S
O153 Co145 2.135 . S
Co154 O155 2.216 . S
Co154 O156 2.091 . S
Co154 O158 2.004 . S
Co154 O164 2.021 . S
Co154 O166 2.137 1_554 S
Co154 O167 2.244 . S
O155 Co154 2.216 . S
O155 C162 1.247 . S
O156 Co154 2.091 . S
O156 C162 1.261 . S
C157 O166 1.247 . S
C157 O167 1.272 1_556 S
O158 Co154 2.004 . S
O158 C163 1.259 . S
Co159 O160 2.061 . S
Co159 O165 2.052 . S
Co159 O167 2.135 . S
O160 Co159 2.061 . S
O160 C163 1.235 . S
C161 O164 1.238 . S
C161 O165 1.241 . S
C162 O155 1.247 . S
C162 O156 1.261 . S
C163 O158 1.259 . S
C163 O160 1.235 . S
O164 Co154 2.021 . S
O164 C161 1.238 . S
O165 Co159 2.052 . S
O165 C161 1.241 . S
O166 Co154 2.137 1_556 S
O166 C157 1.247 . S
O167 Co154 2.244 . S
O167 C157 1.272 1_554 S
O167 Co159 2.135 . S
Co168 O169 2.216 . S
Co168 O170 2.091 . S
Co168 O172 2.004 . S
Co168 O178 2.021 . S
Co168 O180 2.137 1_554 S
Co168 O181 2.244 . S
O169 Co168 2.216 . S
O169 C176 1.247 . S
O170 Co168 2.091 . S
O170 C176 1.261 . S
C171 O180 1.247 . S
C171 O181 1.272 1_556 S
O172 Co168 2.004 . S
O172 C177 1.259 . S
Co173 O174 2.061 . S
Co173 O179 2.052 . S
Co173 O181 2.135 . S
O174 Co173 2.061 . S
O174 C177 1.235 . S
C175 O178 1.238 . S
C175 O179 1.241 . S
C176 O169 1.247 . S
C176 O170 1.261 . S
C177 O172 1.259 . S
C177 O174 1.235 . S
O178 Co168 2.021 . S
O178 C175 1.238 . S
O179 Co173 2.052 . S
O179 C175 1.241 . S
O180 Co168 2.137 1_556 S
O180 C171 1.247 . S
O181 Co168 2.244 . S
O181 C171 1.272 1_554 S
O181 Co173 2.135 . S
Co182 O183 2.217 1_556 S
Co182 O184 2.088 1_556 S
Co182 O186 2.004 . S
Co182 O192 1.987 1_556 S
Co182 O194 2.173 . S
Co182 O195 2.260 . S
O183 Co182 2.217 1_554 S
O183 C190 1.247 . S
O184 Co182 2.088 1_554 S
O184 C190 1.261 . S
C185 O194 1.247 . S
C185 O195 1.272 . S
O186 Co182 2.004 . S
O186 C191 1.259 . S
Co187 O188 2.061 . S
Co187 O193 2.052 . S
Co187 O195 2.135 1_554 S
O188 Co187 2.061 . S
O188 C191 1.235 1_554 S
C189 O192 1.238 . S
C189 O193 1.241 . S
C190 O183 1.247 . S
C190 O184 1.261 . S
C191 O186 1.259 . S
C191 O188 1.235 1_556 S
O192 Co182 1.987 1_554 S
O192 C189 1.238 . S
O193 Co187 2.052 . S
O193 C189 1.241 . S
O194 Co182 2.173 . S
O194 C185 1.247 . S
O195 Co182 2.260 . S
O195 C185 1.272 . S
O195 Co187 2.135 1_556 S
Co196 O197 2.216 . S
Co196 O198 2.091 . S
Co196 O200 2.004 . S
Co196 O206 2.021 . S
Co196 O208 2.137 . S
Co196 O209 2.244 . S
O197 Co196 2.216 . S
O197 C204 1.247 . S
O198 Co196 2.091 . S
O198 C204 1.261 . S
C199 O208 1.247 . S
C199 O209 1.272 . S
O200 Co196 2.004 . S
O200 C205 1.259 . S
Co201 O202 2.061 . S
Co201 O207 2.052 . S
Co201 O209 2.135 . S
O202 Co201 2.061 . S
O202 C205 1.235 . S
C203 O206 1.238 . S
C203 O207 1.241 . S
C204 O197 1.247 . S
C204 O198 1.261 . S
C205 O200 1.259 . S
C205 O202 1.235 . S
O206 Co196 2.021 . S
O206 C203 1.238 . S
O207 Co201 2.052 . S
O207 C203 1.241 . S
O208 Co196 2.137 . S
O208 C199 1.247 . S
O209 Co196 2.244 . S
O209 C199 1.272 . S
O209 Co201 2.135 . S
Co210 O211 2.216 . S
Co210 O212 2.091 . S
Co210 O214 2.004 . S
Co210 O220 2.021 . S
Co210 O222 2.137 . S
Co210 O223 2.244 . S
O211 Co210 2.216 . S
O211 C218 1.247 . S
O212 Co210 2.091 . S
O212 C218 1.261 . S
C213 O222 1.247 . S
C213 O223 1.272 . S
O214 Co210 2.004 . S
O214 C219 1.259 . S
Co215 O216 2.061 . S
Co215 O221 2.052 . S
Co215 O223 2.135 . S
O216 Co215 2.061 . S
O216 C219 1.235 . S
C217 O220 1.238 . S
C217 O221 1.241 . S
C218 O211 1.247 . S
C218 O212 1.261 . S
C219 O214 1.259 . S
C219 O216 1.235 . S
O220 Co210 2.021 . S
O220 C217 1.238 . S
O221 Co215 2.052 . S
O221 C217 1.241 . S
O222 Co210 2.137 . S
O222 C213 1.247 . S
O223 Co210 2.244 . S
O223 C213 1.272 . S
O223 Co215 2.135 . S
Co224 O225 2.216 . S
Co224 O226 2.091 . S
Co224 O228 2.004 . S
Co224 O234 2.021 . S
Co224 O236 2.137 . S
Co224 O237 2.244 . S
O225 Co224 2.216 . S
O225 C232 1.247 . S
O226 Co224 2.091 . S
O226 C232 1.261 . S
C227 O236 1.247 . S
C227 O237 1.272 . S
O228 Co224 2.004 . S
O228 C233 1.259 1_545 S
Co229 O230 2.061 1_545 S
Co229 O235 2.052 . S
Co229 O237 2.135 . S
O230 Co229 2.061 1_565 S
O230 C233 1.235 . S
C231 O234 1.238 . S
C231 O235 1.241 . S
C232 O225 1.247 . S
C232 O226 1.261 . S
C233 O228 1.259 1_565 S
C233 O230 1.235 . S
O234 Co224 2.021 . S
O234 C231 1.238 . S
O235 Co229 2.052 . S
O235 C231 1.241 . S
O236 Co224 2.137 . S
O236 C227 1.247 . S
O237 Co224 2.244 . S
O237 C227 1.272 . S
O237 Co229 2.135 . S
Co238 O239 2.216 . S
Co238 O240 2.091 . S
Co238 O242 2.004 . S
Co238 O248 2.021 . S
Co238 O250 2.137 . S
Co238 O251 2.244 . S
O239 Co238 2.216 . S
O239 C246 1.247 . S
O240 Co238 2.091 . S
O240 C246 1.261 . S
C241 O250 1.247 . S
C241 O251 1.272 . S
O242 Co238 2.004 . S
O242 C247 1.259 . S
Co243 O244 2.061 . S
Co243 O249 2.052 . S
Co243 O251 2.135 . S
O244 Co243 2.061 . S
O244 C247 1.235 . S
C245 O248 1.238 . S
C245 O249 1.241 . S
C246 O239 1.247 . S
C246 O240 1.261 . S
C247 O242 1.259 . S
C247 O244 1.235 . S
O248 Co238 2.021 . S
O248 C245 1.238 . S
O249 Co243 2.052 . S
O249 C245 1.241 . S
O250 Co238 2.137 . S
O250 C241 1.247 . S
O251 Co238 2.244 . S
O251 C241 1.272 . S
O251 Co243 2.135 . S
Co252 O253 2.216 . S
Co252 O254 2.091 . S
Co252 O256 2.004 . S
Co252 O262 2.021 . S
Co252 O264 2.137 . S
Co252 O265 2.244 . S
O253 Co252 2.216 . S
O253 C260 1.247 . S
O254 Co252 2.091 . S
O254 C260 1.261 . S
C255 O264 1.247 . S
C255 O265 1.272 . S
O256 Co252 2.004 . S
O256 C261 1.259 . S
Co257 O258 2.061 . S
Co257 O263 2.052 . S
Co257 O265 2.135 . S
O258 Co257 2.061 . S
O258 C261 1.235 . S
C259 O262 1.238 . S
C259 O263 1.241 . S
C260 O253 1.247 . S
C260 O254 1.261 . S
C261 O256 1.259 . S
C261 O258 1.235 . S
O262 Co252 2.021 . S
O262 C259 1.238 . S
O263 Co257 2.052 . S
O263 C259 1.241 . S
O264 Co252 2.137 . S
O264 C255 1.247 . S
O265 Co252 2.244 . S
O265 C255 1.272 . S
O265 Co257 2.135 . S
Co266 O267 2.203 1_545 S
Co266 O268 2.082 1_545 S
Co266 O270 2.016 . S
Co266 O276 2.022 . S
Co266 O278 2.136 1_545 S
Co266 O279 2.249 . S
O267 Co266 2.203 1_565 S
O267 C274 1.247 . S
O268 Co266 2.082 1_565 S
O268 C274 1.261 . S
C269 O278 1.247 1_545 S
C269 O279 1.272 . S
O270 Co266 2.016 . S
O270 C275 1.259 . S
Co271 O272 2.061 . S
Co271 O277 2.052 . S
Co271 O279 2.135 . S
O272 Co271 2.061 . S
O272 C275 1.235 . S
C273 O276 1.239 . S
C273 O277 1.241 . S
C274 O267 1.247 . S
C274 O268 1.261 . S
C275 O270 1.259 . S
C275 O272 1.235 . S
O276 Co266 2.022 . S
O276 C273 1.239 . S
O277 Co271 2.052 . S
O277 C273 1.241 . S
O278 Co266 2.136 1_565 S
O278 C269 1.247 1_565 S
O279 Co266 2.249 . S
O279 C269 1.272 . S
O279 Co271 2.135 . S
Co280 O281 2.216 1_556 S
Co280 O282 2.092 . S
Co280 O284 2.004 . S
Co280 O290 2.021 1_556 S
Co280 O292 2.137 . S
Co280 O293 2.244 . S
O281 Co280 2.216 1_554 S
O281 C288 1.247 . S
O282 Co280 2.092 . S
O282 C288 1.262 1_556 S
C283 O292 1.247 . S
C283 O293 1.272 . S
O284 Co280 2.004 . S
O284 C289 1.259 . S
Co285 O286 2.061 . S
Co285 O291 2.048 1_556 S
Co285 O293 2.137 . S
O286 Co285 2.061 . S
O286 C289 1.235 . S
C287 O290 1.238 . S
C287 O291 1.241 . S
C288 O281 1.247 . S
C288 O282 1.262 1_554 S
C289 O284 1.259 . S
C289 O286 1.235 . S
O290 Co280 2.021 1_554 S
O290 C287 1.238 . S
O291 Co285 2.048 1_554 S
O291 C287 1.241 . S
O292 Co280 2.137 . S
O292 C283 1.247 . S
O293 Co280 2.244 . S
O293 C283 1.272 . S
O293 Co285 2.137 . S
Co294 O295 2.216 . S
Co294 O296 2.091 . S
Co294 O298 2.004 . S
Co294 O304 2.021 . S
Co294 O306 2.137 . S
Co294 O307 2.244 . S
O295 Co294 2.216 . S
O295 C302 1.247 . S
O296 Co294 2.091 . S
O296 C302 1.261 . S
C297 O306 1.247 . S
C297 O307 1.272 . S
O298 Co294 2.004 . S
O298 C303 1.259 . S
Co299 O300 2.061 . S
Co299 O305 2.052 . S
Co299 O307 2.135 . S
O300 Co299 2.061 . S
O300 C303 1.235 . S
C301 O304 1.238 . S
C301 O305 1.241 . S
C302 O295 1.247 . S
C302 O296 1.261 . S
C303 O298 1.259 . S
C303 O300 1.235 . S
O304 Co294 2.021 . S
O304 C301 1.238 . S
O305 Co299 2.052 . S
O305 C301 1.241 . S
O306 Co294 2.137 . S
O306 C297 1.247 . S
O307 Co294 2.244 . S
O307 C297 1.272 . S
O307 Co299 2.135 . S
Co308 O309 2.216 . S
Co308 O310 2.091 . S
Co308 O312 2.004 . S
Co308 O318 2.021 . S
Co308 O320 2.137 . S
Co308 O321 2.244 . S
O309 Co308 2.216 . S
O309 C316 1.247 . S
O310 Co308 2.091 . S
O310 C316 1.261 . S
C311 O320 1.247 . S
C311 O321 1.272 . S
O312 Co308 2.004 . S
O312 C317 1.259 . S
Co313 O314 2.061 . S
Co313 O319 2.052 . S
Co313 O321 2.135 . S
O314 Co313 2.061 . S
O314 C317 1.235 . S
C315 O318 1.238 . S
C315 O319 1.241 . S
C316 O309 1.247 . S
C316 O310 1.261 . S
C317 O312 1.259 . S
C317 O314 1.235 . S
O318 Co308 2.021 . S
O318 C315 1.238 . S
O319 Co313 2.052 . S
O319 C315 1.241 . S
O320 Co308 2.137 . S
O320 C311 1.247 . S
O321 Co308 2.244 . S
O321 C311 1.272 . S
O321 Co313 2.135 . S
Co322 O323 2.216 . S
Co322 O324 2.091 . S
Co322 O326 2.004 . S
Co322 O332 2.021 . S
Co322 O334 2.137 . S
Co322 O335 2.244 . S
O323 Co322 2.216 . S
O323 C330 1.247 . S
O324 Co322 2.091 . S
O324 C330 1.261 . S
C325 O334 1.247 . S
C325 O335 1.272 . S
O326 Co322 2.004 . S
O326 C331 1.259 . S
Co327 O328 2.061 . S
Co327 O333 2.052 . S
Co327 O335 2.135 . S
O328 Co327 2.061 . S
O328 C331 1.235 . S
C329 O332 1.238 . S
C329 O333 1.241 . S
C330 O323 1.247 . S
C330 O324 1.261 . S
C331 O326 1.259 . S
C331 O328 1.235 . S
O332 Co322 2.021 . S
O332 C329 1.238 . S
O333 Co327 2.052 . S
O333 C329 1.241 . S
O334 Co322 2.137 . S
O334 C325 1.247 . S
O335 Co322 2.244 . S
O335 C325 1.272 . S
O335 Co327 2.135 . S
Tb336 O339 2.453 . S
Tb336 O340 2.596 . S
Tb336 O341 2.374 1_554 S
Tb336 O349 2.343 1_455 S
Tb336 O351 2.353 . S
Tb336 O353 2.427 . S
Tb336 O354 2.513 1_554 S
C337 O341 1.251 . S
C337 O343 1.263 1_545 S
Tb338 O340 2.343 1_665 S
Tb338 O343 2.353 1_654 S
Tb338 O346 2.427 1_655 S
Tb338 O347 2.502 1_655 S
Tb338 O348 2.453 1_564 S
Tb338 O349 2.596 1_565 S
Tb338 O350 2.374 1_565 S
O339 Tb336 2.453 . S
O339 C355 1.245 . S
O340 Tb336 2.596 . S
O340 Tb338 2.343 1_445 S
O340 C355 1.259 . S
O341 Tb336 2.374 1_556 S
O341 C337 1.251 . S
C342 O346 1.275 . S
C342 O347 1.259 . S
O343 C337 1.263 1_565 S
O343 Tb338 2.353 1_456 S
C344 O348 1.245 1_554 S
C344 O349 1.259 . S
C345 O350 1.250 . S
C345 O351 1.263 1_655 S
O346 Tb338 2.427 1_455 S
O346 C342 1.275 . S
O347 Tb338 2.502 1_455 S
O347 C342 1.259 . S
O348 Tb338 2.453 1_546 S
O348 C344 1.245 1_556 S
O349 Tb336 2.343 1_655 S
O349 Tb338 2.596 1_545 S
O349 C344 1.259 . S
O350 Tb338 2.374 1_545 S
O350 C345 1.250 . S
O351 Tb336 2.353 . S
O351 C345 1.263 1_455 S
C352 O353 1.280 . S
C352 O354 1.243 1_554 S
O353 Tb336 2.427 . S
O353 C352 1.280 . S
O354 Tb336 2.513 1_556 S
O354 C352 1.243 1_556 S
C355 O339 1.245 . S
C355 O340 1.259 . S
Tb356 O359 2.453 . S
Tb356 O360 2.596 . S
Tb356 O361 2.374 . S
Tb356 O369 2.343 . S
Tb356 O371 2.353 . S
Tb356 O373 2.427 . S
Tb356 O374 2.513 . S
C357 O361 1.251 . S
C357 O363 1.263 . S
Tb358 O360 2.343 . S
Tb358 O363 2.353 . S
Tb358 O366 2.427 . S
Tb358 O367 2.513 . S
Tb358 O368 2.453 . S
Tb358 O369 2.596 . S
Tb358 O370 2.374 . S
O359 Tb356 2.453 . S
O359 C375 1.245 . S
O360 Tb356 2.596 . S
O360 Tb358 2.343 . S
O360 C375 1.259 . S
O361 Tb356 2.374 . S
O361 C357 1.251 . S
C362 O366 1.275 . S
C362 O367 1.246 . S
O363 C357 1.263 . S
O363 Tb358 2.353 . S
C364 O368 1.245 . S
C364 O369 1.259 . S
C365 O370 1.250 . S
C365 O371 1.263 . S
O366 Tb358 2.427 . S
O366 C362 1.275 . S
O367 Tb358 2.513 . S
O367 C362 1.246 . S
O368 Tb358 2.453 . S
O368 C364 1.245 . S
O369 Tb356 2.343 . S
O369 Tb358 2.596 . S
O369 C364 1.259 . S
O370 Tb358 2.374 . S
O370 C365 1.250 . S
O371 Tb356 2.353 . S
O371 C365 1.263 . S
C372 O373 1.275 . S
C372 O374 1.246 . S
O373 Tb356 2.427 . S
O373 C372 1.275 . S
O374 Tb356 2.513 . S
O374 C372 1.246 . S
C375 O359 1.245 . S
C375 O360 1.259 . S
Tb376 O379 2.453 . S
Tb376 O380 2.596 . S
Tb376 O381 2.374 . S
Tb376 O389 2.343 1_545 S
Tb376 O391 2.353 . S
Tb376 O393 2.427 . S
Tb376 O394 2.513 1_545 S
C377 O381 1.251 . S
C377 O383 1.263 . S
Tb378 O380 2.343 . S
Tb378 O383 2.353 . S
Tb378 O386 2.427 . S
Tb378 O387 2.513 . S
Tb378 O388 2.453 1_545 S
Tb378 O389 2.596 1_545 S
Tb378 O390 2.374 . S
O379 Tb376 2.453 . S
O379 C395 1.245 . S
O380 Tb376 2.596 . S
O380 Tb378 2.343 . S
O380 C395 1.259 . S
O381 Tb376 2.374 . S
O381 C377 1.251 . S
C382 O386 1.275 . S
C382 O387 1.246 . S
O383 C377 1.263 . S
O383 Tb378 2.353 . S
C384 O388 1.245 . S
C384 O389 1.259 . S
C385 O390 1.250 . S
C385 O391 1.263 . S
O386 Tb378 2.427 . S
O386 C382 1.275 . S
O387 Tb378 2.513 . S
O387 C382 1.246 . S
O388 Tb378 2.453 1_565 S
O388 C384 1.245 . S
O389 Tb376 2.343 1_565 S
O389 Tb378 2.596 1_565 S
O389 C384 1.259 . S
O390 Tb378 2.374 . S
O390 C385 1.250 . S
O391 Tb376 2.353 . S
O391 C385 1.263 . S
C392 O393 1.275 1_565 S
C392 O394 1.246 . S
O393 Tb376 2.427 . S
O393 C392 1.275 1_545 S
O394 Tb376 2.513 1_565 S
O394 C392 1.246 . S
C395 O379 1.245 . S
C395 O380 1.259 . S
Tb396 O399 2.453 . S
Tb396 O400 2.596 . S
Tb396 O401 2.374 . S
Tb396 O409 2.343 . S
Tb396 O411 2.353 . S
Tb396 O413 2.427 . S
Tb396 O414 2.513 . S
C397 O401 1.251 . S
C397 O403 1.263 . S
Tb398 O400 2.343 . S
Tb398 O403 2.353 . S
Tb398 O406 2.427 . S
Tb398 O407 2.513 . S
Tb398 O408 2.453 . S
Tb398 O409 2.596 . S
Tb398 O410 2.374 . S
O399 Tb396 2.453 . S
O399 C415 1.245 . S
O400 Tb396 2.596 . S
O400 Tb398 2.343 . S
O400 C415 1.259 . S
O401 Tb396 2.374 . S
O401 C397 1.251 . S
C402 O406 1.275 . S
C402 O407 1.246 . S
O403 C397 1.263 . S
O403 Tb398 2.353 . S
C404 O408 1.245 . S
C404 O409 1.259 . S
C405 O410 1.250 . S
C405 O411 1.263 . S
O406 Tb398 2.427 . S
O406 C402 1.275 . S
O407 Tb398 2.513 . S
O407 C402 1.246 . S
O408 Tb398 2.453 . S
O408 C404 1.245 . S
O409 Tb396 2.343 . S
O409 Tb398 2.596 . S
O409 C404 1.259 . S
O410 Tb398 2.374 . S
O410 C405 1.250 . S
O411 Tb396 2.353 . S
O411 C405 1.263 . S
C412 O413 1.275 . S
C412 O414 1.246 . S
O413 Tb396 2.427 . S
O413 C412 1.275 . S
O414 Tb396 2.513 . S
O414 C412 1.246 . S
C415 O399 1.245 . S
C415 O400 1.259 . S
Tb416 O419 2.453 1_545 S
Tb416 O420 2.596 1_545 S
Tb416 O421 2.374 1_445 S
Tb416 O429 2.343 . S
Tb416 O431 2.353 . S
Tb416 O433 2.427 . S
Tb416 O434 2.513 1_455 S
C417 O421 1.251 1_545 S
C417 O423 1.263 . S
Tb418 O420 2.343 1_545 S
Tb418 O423 2.353 1_455 S
Tb418 O426 2.427 . S
Tb418 O427 2.513 . S
Tb418 O428 2.453 . S
Tb418 O429 2.596 . S
Tb418 O430 2.374 . S
O419 Tb416 2.453 1_565 S
O419 C435 1.245 . S
O420 Tb416 2.596 1_565 S
O420 Tb418 2.343 1_565 S
O420 C435 1.259 . S
O421 Tb416 2.374 1_665 S
O421 C417 1.251 1_565 S
C422 O426 1.275 . S
C422 O427 1.246 . S
O423 C417 1.263 . S
O423 Tb418 2.353 1_655 S
C424 O428 1.245 . S
C424 O429 1.259 . S
C425 O430 1.250 . S
C425 O431 1.263 . S
O426 Tb418 2.427 . S
O426 C422 1.275 . S
O427 Tb418 2.513 . S
O427 C422 1.246 . S
O428 Tb418 2.453 . S
O428 C424 1.245 . S
O429 Tb416 2.343 . S
O429 Tb418 2.596 . S
O429 C424 1.259 . S
O430 Tb418 2.374 . S
O430 C425 1.250 . S
O431 Tb416 2.353 . S
O431 C425 1.263 . S
C432 O433 1.275 1_655 S
C432 O434 1.246 . S
O433 Tb416 2.427 . S
O433 C432 1.275 1_455 S
O434 Tb416 2.513 1_655 S
O434 C432 1.246 . S
C435 O419 1.245 . S
C435 O420 1.259 . S
Tb436 O439 2.453 . S
Tb436 O440 2.596 . S
Tb436 O441 2.374 . S
Tb436 O449 2.343 . S
Tb436 O451 2.353 . S
Tb436 O453 2.427 . S
Tb436 O454 2.513 . S
C437 O441 1.251 . S
C437 O443 1.263 . S
Tb438 O440 2.343 . S
Tb438 O443 2.353 . S
Tb438 O446 2.427 . S
Tb438 O447 2.513 . S
Tb438 O448 2.453 . S
Tb438 O449 2.596 . S
Tb438 O450 2.374 . S
O439 Tb436 2.453 . S
O439 C455 1.245 . S
O440 Tb436 2.596 . S
O440 Tb438 2.343 . S
O440 C455 1.259 . S
O441 Tb436 2.374 . S
O441 C437 1.251 . S
C442 O446 1.275 . S
C442 O447 1.246 . S
O443 C437 1.263 . S
O443 Tb438 2.353 . S
C444 O448 1.245 . S
C444 O449 1.259 . S
C445 O450 1.250 . S
C445 O451 1.263 . S
O446 Tb438 2.427 . S
O446 C442 1.275 . S
O447 Tb438 2.513 . S
O447 C442 1.246 . S
O448 Tb438 2.453 . S
O448 C444 1.245 . S
O449 Tb436 2.343 . S
O449 Tb438 2.596 . S
O449 C444 1.259 . S
O450 Tb438 2.374 . S
O450 C445 1.250 . S
O451 Tb436 2.353 . S
O451 C445 1.263 . S
C452 O453 1.275 . S
C452 O454 1.246 . S
O453 Tb436 2.427 . S
O453 C452 1.275 . S
O454 Tb436 2.513 . S
O454 C452 1.246 . S
C455 O439 1.245 . S
C455 O440 1.259 . S
Tb456 O459 2.453 . S
Tb456 O460 2.596 . S
Tb456 O461 2.374 1_545 S
Tb456 O469 2.343 1_556 S
Tb456 O471 2.353 1_556 S
Tb456 O473 2.427 1_556 S
Tb456 O474 2.513 1_546 S
C457 O461 1.249 1_554 S
C457 O463 1.268 . S
Tb458 O460 2.343 1_554 S
Tb458 O463 2.353 1_545 S
Tb458 O466 2.427 . S
Tb458 O467 2.513 . S
Tb458 O468 2.453 . S
Tb458 O469 2.596 . S
Tb458 O470 2.374 . S
O459 Tb456 2.453 . S
O459 C475 1.245 . S
O460 Tb456 2.596 . S
O460 Tb458 2.343 1_556 S
O460 C475 1.259 . S
O461 Tb456 2.374 1_565 S
O461 C457 1.249 1_556 S
C462 O466 1.275 . S
C462 O467 1.246 . S
O463 C457 1.268 . S
O463 Tb458 2.353 1_565 S
C464 O468 1.245 . S
C464 O469 1.259 . S
C465 O470 1.250 . S
C465 O471 1.263 . S
O466 Tb458 2.427 . S
O466 C462 1.275 . S
O467 Tb458 2.513 . S
O467 C462 1.246 . S
O468 Tb458 2.453 . S
O468 C464 1.245 . S
O469 Tb456 2.343 1_554 S
O469 Tb458 2.596 . S
O469 C464 1.259 . S
O470 Tb458 2.374 . S
O470 C465 1.250 . S
O471 Tb456 2.353 1_554 S
O471 C465 1.263 . S
C472 O473 1.275 . S
C472 O474 1.246 1_545 S
O473 Tb456 2.427 1_554 S
O473 C472 1.275 . S
O474 Tb456 2.513 1_564 S
O474 C472 1.246 1_565 S
C475 O459 1.245 . S
C475 O460 1.259 . S
Tb476 O479 2.453 . S
Tb476 O480 2.596 . S
Tb476 O481 2.374 . S
Tb476 O489 2.343 . S
Tb476 O491 2.353 . S
Tb476 O493 2.427 . S
Tb476 O494 2.513 . S
C477 O481 1.251 . S
C477 O483 1.263 . S
Tb478 O480 2.343 . S
Tb478 O483 2.353 . S
Tb478 O486 2.427 . S
Tb478 O487 2.513 . S
Tb478 O488 2.453 . S
Tb478 O489 2.596 . S
Tb478 O490 2.374 . S
O479 Tb476 2.453 . S
O479 C495 1.245 . S
O480 Tb476 2.596 . S
O480 Tb478 2.343 . S
O480 C495 1.259 . S
O481 Tb476 2.374 . S
O481 C477 1.251 . S
C482 O486 1.275 . S
C482 O487 1.246 . S
O483 C477 1.263 . S
O483 Tb478 2.353 . S
C484 O488 1.245 . S
C484 O489 1.259 . S
C485 O490 1.250 . S
C485 O491 1.263 . S
O486 Tb478 2.427 . S
O486 C482 1.275 . S
O487 Tb478 2.513 . S
O487 C482 1.246 . S
O488 Tb478 2.453 . S
O488 C484 1.245 . S
O489 Tb476 2.343 . S
O489 Tb478 2.596 . S
O489 C484 1.259 . S
O490 Tb478 2.374 . S
O490 C485 1.250 . S
O491 Tb476 2.353 . S
O491 C485 1.263 . S
C492 O493 1.275 . S
C492 O494 1.246 . S
O493 Tb476 2.427 . S
O493 C492 1.275 . S
O494 Tb476 2.513 . S
O494 C492 1.246 . S
C495 O479 1.245 . S
C495 O480 1.259 . S
Tb496 O499 2.453 1_556 S
Tb496 O500 2.596 1_556 S
Tb496 O501 2.376 . S
Tb496 O509 2.343 . S
Tb496 O511 2.353 . S
Tb496 O513 2.427 . S
Tb496 O514 2.513 . S
C497 O501 1.247 1_554 S
C497 O503 1.263 . S
Tb498 O500 2.343 . S
Tb498 O503 2.353 . S
Tb498 O506 2.427 . S
Tb498 O507 2.513 . S
Tb498 O508 2.453 . S
Tb498 O509 2.596 1_554 S
Tb498 O510 2.374 . S
O499 Tb496 2.453 1_554 S
O499 C515 1.245 . S
O500 Tb496 2.596 1_554 S
O500 Tb498 2.343 . S
O500 C515 1.259 . S
O501 Tb496 2.376 . S
O501 C497 1.247 1_556 S
C502 O506 1.275 . S
C502 O507 1.246 . S
O503 C497 1.263 . S
O503 Tb498 2.353 . S
C504 O508 1.245 . S
C504 O509 1.259 1_554 S
C505 O510 1.250 . S
C505 O511 1.263 1_554 S
O506 Tb498 2.427 . S
O506 C502 1.275 . S
O507 Tb498 2.513 . S
O507 C502 1.246 . S
O508 Tb498 2.453 . S
O508 C504 1.245 . S
O509 Tb496 2.343 . S
O509 Tb498 2.596 1_556 S
O509 C504 1.259 1_556 S
O510 Tb498 2.374 . S
O510 C505 1.250 . S
O511 Tb496 2.353 . S
O511 C505 1.263 1_556 S
C512 O513 1.275 . S
C512 O514 1.246 . S
O513 Tb496 2.427 . S
O513 C512 1.275 . S
O514 Tb496 2.513 . S
O514 C512 1.246 . S
C515 O499 1.245 . S
C515 O500 1.259 . S
Tb516 O519 2.453 . S
Tb516 O520 2.596 . S
Tb516 O521 2.374 . S
Tb516 O529 2.343 . S
Tb516 O531 2.353 . S
Tb516 O533 2.427 . S
Tb516 O534 2.513 . S
C517 O521 1.251 . S
C517 O523 1.263 . S
Tb518 O520 2.343 . S
Tb518 O523 2.353 . S
Tb518 O526 2.427 . S
Tb518 O527 2.513 . S
Tb518 O528 2.453 . S
Tb518 O529 2.596 . S
Tb518 O530 2.374 . S
O519 Tb516 2.453 . S
O519 C535 1.245 . S
O520 Tb516 2.596 . S
O520 Tb518 2.343 . S
O520 C535 1.259 . S
O521 Tb516 2.374 . S
O521 C517 1.251 . S
C522 O526 1.275 . S
C522 O527 1.246 . S
O523 C517 1.263 . S
O523 Tb518 2.353 . S
C524 O528 1.245 . S
C524 O529 1.259 . S
C525 O530 1.250 . S
C525 O531 1.263 . S
O526 Tb518 2.427 . S
O526 C522 1.275 . S
O527 Tb518 2.513 . S
O527 C522 1.246 . S
O528 Tb518 2.453 . S
O528 C524 1.245 . S
O529 Tb516 2.343 . S
O529 Tb518 2.596 . S
O529 C524 1.259 . S
O530 Tb518 2.374 . S
O530 C525 1.250 . S
O531 Tb516 2.353 . S
O531 C525 1.263 . S
C532 O533 1.275 . S
C532 O534 1.246 . S
O533 Tb516 2.427 . S
O533 C532 1.275 . S
O534 Tb516 2.513 . S
O534 C532 1.246 . S
C535 O519 1.245 . S
C535 O520 1.259 . S
Tb536 O539 2.453 . S
Tb536 O540 2.596 1_655 S
Tb536 O541 2.374 . S
Tb536 O549 2.343 . S
Tb536 O551 2.353 . S
Tb536 O553 2.427 . S
Tb536 O554 2.513 . S
C537 O541 1.251 1_455 S
C537 O543 1.263 . S
Tb538 O540 2.343 . S
Tb538 O543 2.353 . S
Tb538 O546 2.427 . S
Tb538 O547 2.513 . S
Tb538 O548 2.453 . S
Tb538 O549 2.596 1_455 S
Tb538 O550 2.374 . S
O539 Tb536 2.453 . S
O539 C555 1.245 1_655 S
O540 Tb536 2.596 1_455 S
O540 Tb538 2.343 . S
O540 C555 1.259 . S
O541 Tb536 2.374 . S
O541 C537 1.251 1_655 S
C542 O546 1.275 . S
C542 O547 1.246 . S
O543 C537 1.263 . S
O543 Tb538 2.353 . S
C544 O548 1.245 1_655 S
C544 O549 1.259 . S
C545 O550 1.250 . S
C545 O551 1.263 1_455 S
O546 Tb538 2.427 . S
O546 C542 1.275 . S
O547 Tb538 2.513 . S
O547 C542 1.246 . S
O548 Tb538 2.453 . S
O548 C544 1.245 1_455 S
O549 Tb536 2.343 . S
O549 Tb538 2.596 1_655 S
O549 C544 1.259 . S
O550 Tb538 2.374 . S
O550 C545 1.250 . S
O551 Tb536 2.353 . S
O551 C545 1.263 1_655 S
C552 O553 1.275 . S
C552 O554 1.246 . S
O553 Tb536 2.427 . S
O553 C552 1.275 . S
O554 Tb536 2.513 . S
O554 C552 1.246 . S
C555 O539 1.245 1_455 S
C555 O540 1.259 . S
Tb556 O559 2.453 . S
Tb556 O560 2.596 . S
Tb556 O561 2.374 . S
Tb556 O569 2.343 . S
Tb556 O571 2.353 . S
Tb556 O573 2.427 . S
Tb556 O574 2.513 . S
C557 O561 1.251 . S
C557 O563 1.263 . S
Tb558 O560 2.343 . S
Tb558 O563 2.353 . S
Tb558 O566 2.427 . S
Tb558 O567 2.513 . S
Tb558 O568 2.453 . S
Tb558 O569 2.596 . S
Tb558 O570 2.374 . S
O559 Tb556 2.453 . S
O559 C575 1.245 . S
O560 Tb556 2.596 . S
O560 Tb558 2.343 . S
O560 C575 1.259 . S
O561 Tb556 2.374 . S
O561 C557 1.251 . S
C562 O566 1.275 . S
C562 O567 1.246 . S
O563 C557 1.263 . S
O563 Tb558 2.353 . S
C564 O568 1.245 . S
C564 O569 1.259 . S
C565 O570 1.250 . S
C565 O571 1.263 . S
O566 Tb558 2.427 . S
O566 C562 1.275 . S
O567 Tb558 2.513 . S
O567 C562 1.246 . S
O568 Tb558 2.453 . S
O568 C564 1.245 . S
O569 Tb556 2.343 . S
O569 Tb558 2.596 . S
O569 C564 1.259 . S
O570 Tb558 2.374 . S
O570 C565 1.250 . S
O571 Tb556 2.353 . S
O571 C565 1.263 . S
C572 O573 1.275 . S
C572 O574 1.246 . S
O573 Tb556 2.427 . S
O573 C572 1.275 . S
O574 Tb556 2.513 . S
O574 C572 1.246 . S
C575 O559 1.245 . S
C575 O560 1.259 . S
Tb576 O579 2.453 . S
Tb576 O580 2.596 . S
Tb576 O581 2.374 . S
Tb576 O589 2.343 . S
Tb576 O591 2.353 . S
Tb576 O593 2.427 . S
Tb576 O594 2.513 . S
C577 O581 1.251 . S
C577 O583 1.263 . S
Tb578 O580 2.343 . S
Tb578 O583 2.353 . S
Tb578 O586 2.427 . S
Tb578 O587 2.513 . S
Tb578 O588 2.453 . S
Tb578 O589 2.596 . S
Tb578 O590 2.374 . S
O579 Tb576 2.453 . S
O579 C595 1.245 . S
O580 Tb576 2.596 . S
O580 Tb578 2.343 . S
O580 C595 1.259 . S
O581 Tb576 2.374 . S
O581 C577 1.251 . S
C582 O586 1.275 . S
C582 O587 1.246 . S
O583 C577 1.263 . S
O583 Tb578 2.353 . S
C584 O588 1.245 . S
C584 O589 1.259 . S
C585 O590 1.250 . S
C585 O591 1.263 . S
O586 Tb578 2.427 . S
O586 C582 1.275 . S
O587 Tb578 2.513 . S
O587 C582 1.246 . S
O588 Tb578 2.453 . S
O588 C584 1.245 . S
O589 Tb576 2.343 . S
O589 Tb578 2.596 . S
O589 C584 1.259 . S
O590 Tb578 2.374 . S
O590 C585 1.250 . S
O591 Tb576 2.353 . S
O591 C585 1.263 . S
C592 O593 1.275 . S
C592 O594 1.246 . S
O593 Tb576 2.427 . S
O593 C592 1.275 . S
O594 Tb576 2.513 . S
O594 C592 1.246 . S
C595 O579 1.245 . S
C595 O580 1.259 . S
Tb596 O599 2.453 . S
Tb596 O600 2.596 . S
Tb596 O601 2.374 . S
Tb596 O609 2.343 . S
Tb596 O611 2.353 . S
Tb596 O613 2.427 . S
Tb596 O614 2.513 . S
C597 O601 1.251 . S
C597 O603 1.263 . S
Tb598 O600 2.343 . S
Tb598 O603 2.353 . S
Tb598 O606 2.427 . S
Tb598 O607 2.513 . S
Tb598 O608 2.453 . S
Tb598 O609 2.596 . S
Tb598 O610 2.374 . S
O599 Tb596 2.453 . S
O599 C615 1.245 . S
O600 Tb596 2.596 . S
O600 Tb598 2.343 . S
O600 C615 1.259 . S
O601 Tb596 2.374 . S
O601 C597 1.251 . S
C602 O606 1.275 . S
C602 O607 1.246 . S
O603 C597 1.263 . S
O603 Tb598 2.353 . S
C604 O608 1.245 . S
C604 O609 1.259 . S
C605 O610 1.250 . S
C605 O611 1.263 . S
O606 Tb598 2.427 . S
O606 C602 1.275 . S
O607 Tb598 2.513 . S
O607 C602 1.246 . S
O608 Tb598 2.453 . S
O608 C604 1.245 . S
O609 Tb596 2.343 . S
O609 Tb598 2.596 . S
O609 C604 1.259 . S
O610 Tb598 2.374 . S
O610 C605 1.250 . S
O611 Tb596 2.353 . S
O611 C605 1.263 . S
C612 O613 1.275 . S
C612 O614 1.246 . S
O613 Tb596 2.427 . S
O613 C612 1.275 . S
O614 Tb596 2.513 . S
O614 C612 1.246 . S
C615 O599 1.245 . S
C615 O600 1.259 . S
Tb616 O619 2.453 . S
Tb616 O620 2.596 . S
Tb616 O621 2.374 . S
Tb616 O629 2.343 . S
Tb616 O631 2.353 . S
Tb616 O633 2.427 . S
Tb616 O634 2.513 . S
C617 O621 1.251 . S
C617 O623 1.263 . S
Tb618 O620 2.343 . S
Tb618 O623 2.353 . S
Tb618 O626 2.427 . S
Tb618 O627 2.513 . S
Tb618 O628 2.453 . S
Tb618 O629 2.596 . S
Tb618 O630 2.374 . S
O619 Tb616 2.453 . S
O619 C635 1.245 . S
O620 Tb616 2.596 . S
O620 Tb618 2.343 . S
O620 C635 1.259 . S
O621 Tb616 2.374 . S
O621 C617 1.251 . S
C622 O626 1.275 . S
C622 O627 1.246 . S
O623 C617 1.263 . S
O623 Tb618 2.353 . S
C624 O628 1.245 . S
C624 O629 1.259 . S
C625 O630 1.250 . S
C625 O631 1.263 . S
O626 Tb618 2.427 . S
O626 C622 1.275 . S
O627 Tb618 2.513 . S
O627 C622 1.246 . S
O628 Tb618 2.453 . S
O628 C624 1.245 . S
O629 Tb616 2.343 . S
O629 Tb618 2.596 . S
O629 C624 1.259 . S
O630 Tb618 2.374 . S
O630 C625 1.250 . S
O631 Tb616 2.353 . S
O631 C625 1.263 . S
C632 O633 1.275 . S
C632 O634 1.246 . S
O633 Tb616 2.427 . S
O633 C632 1.275 . S
O634 Tb616 2.513 . S
O634 C632 1.246 . S
C635 O619 1.245 . S
C635 O620 1.259 . S
Tb636 O639 2.453 . S
Tb636 O640 2.596 . S
Tb636 O641 2.374 . S
Tb636 O649 2.343 . S
Tb636 O651 2.353 1_554 S
Tb636 O653 2.427 1_554 S
Tb636 O654 2.513 . S
C637 O641 1.251 . S
C637 O643 1.263 1_455 S
Tb638 O640 2.343 1_655 S
Tb638 O643 2.353 . S
Tb638 O646 2.427 . S
Tb638 O647 2.513 . S
Tb638 O648 2.453 . S
Tb638 O649 2.596 1_655 S
Tb638 O650 2.374 1_554 S
O639 Tb636 2.453 . S
O639 C655 1.245 . S
O640 Tb636 2.596 . S
O640 Tb638 2.343 1_455 S
O640 C655 1.259 . S
O641 Tb636 2.374 . S
O641 C637 1.251 . S
C642 O646 1.275 . S
C642 O647 1.246 . S
O643 C637 1.263 1_655 S
O643 Tb638 2.353 . S
C644 O648 1.245 1_556 S
C644 O649 1.259 1_656 S
C645 O650 1.250 . S
C645 O651 1.263 1_655 S
O646 Tb638 2.427 . S
O646 C642 1.275 . S
O647 Tb638 2.513 . S
O647 C642 1.246 . S
O648 Tb638 2.453 . S
O648 C644 1.245 1_554 S
O649 Tb636 2.343 . S
O649 Tb638 2.596 1_455 S
O649 C644 1.259 1_454 S
O650 Tb638 2.374 1_556 S
O650 C645 1.250 . S
O651 Tb636 2.353 1_556 S
O651 C645 1.263 1_455 S
C652 O653 1.280 . S
C652 O654 1.238 1_556 S
O653 Tb636 2.427 1_556 S
O653 C652 1.280 . S
O654 Tb636 2.513 . S
O654 C652 1.238 1_554 S
C655 O639 1.245 . S
C655 O640 1.259 . S
C656 C657 1.369 . S
C656 C658 1.419 . S
C656 H660 0.930 . S
C657 C656 1.369 . S
C657 C666 1.429 1_455 S
C658 C656 1.419 . S
C658 C659 1.363 . S
C658 H661 0.929 1_556 S
C659 C658 1.363 . S
C659 C665 1.428 1_455 S
H660 C656 0.930 . S
H661 C658 0.929 1_554 S
S662 N663 1.613 . S
S662 N664 1.610 . S
N663 S662 1.613 . S
N663 C666 1.350 . S
N664 S662 1.610 . S
N664 C665 1.351 . S
C665 C659 1.428 1_655 S
C665 N664 1.351 . S
C665 C666 1.434 . S
C666 C657 1.429 1_655 S
C666 N663 1.350 . S
C666 C665 1.434 . S
C667 C668 1.369 . S
C667 C669 1.419 . S
C667 H671 0.930 . S
C668 C667 1.369 . S
C668 C677 1.429 . S
C669 C667 1.419 . S
C669 C670 1.363 . S
C669 H672 0.929 . S
C670 C669 1.363 . S
C670 C676 1.428 . S
H671 C667 0.930 . S
H672 C669 0.929 . S
S673 N674 1.613 . S
S673 N675 1.610 . S
N674 S673 1.613 . S
N674 C677 1.350 . S
N675 S673 1.610 . S
N675 C676 1.351 . S
C676 C670 1.428 . S
C676 N675 1.351 . S
C676 C677 1.434 . S
C677 C668 1.429 . S
C677 N674 1.350 . S
C677 C676 1.434 . S
C678 C679 1.369 . S
C678 C680 1.419 . S
C678 H682 0.930 . S
C679 C678 1.369 . S
C679 C688 1.429 . S
C680 C678 1.419 . S
C680 C681 1.363 . S
C680 H683 0.929 . S
C681 C680 1.363 . S
C681 C687 1.428 . S
H682 C678 0.930 . S
H683 C680 0.929 . S
S684 N685 1.613 . S
S684 N686 1.610 . S
N685 S684 1.613 . S
N685 C688 1.350 . S
N686 S684 1.610 . S
N686 C687 1.351 . S
C687 C681 1.428 . S
C687 N686 1.351 . S
C687 C688 1.434 . S
C688 C679 1.429 . S
C688 N685 1.350 . S
C688 C687 1.434 . S
C689 C690 1.369 . S
C689 C691 1.419 . S
C689 H693 0.930 . S
C690 C689 1.369 . S
C690 C699 1.429 . S
C691 C689 1.419 . S
C691 C692 1.363 . S
C691 H694 0.929 . S
C692 C691 1.363 . S
C692 C698 1.428 . S
H693 C689 0.930 . S
H694 C691 0.929 . S
S695 N696 1.613 . S
S695 N697 1.610 . S
N696 S695 1.613 . S
N696 C699 1.350 . S
N697 S695 1.610 . S
N697 C698 1.351 . S
C698 C692 1.428 . S
C698 N697 1.351 . S
C698 C699 1.434 . S
C699 C690 1.429 . S
C699 N696 1.350 . S
C699 C698 1.434 . S
C700 C701 1.369 . S
C700 C702 1.419 . S
C700 H704 0.930 . S
C701 C700 1.369 . S
C701 C710 1.429 1_455 S
C702 C700 1.419 . S
C702 C703 1.363 . S
C702 H705 0.929 . S
C703 C702 1.363 . S
C703 C709 1.428 1_455 S
H704 C700 0.930 . S
H705 C702 0.929 . S
S706 N707 1.613 . S
S706 N708 1.610 . S
N707 S706 1.613 . S
N707 C710 1.350 . S
N708 S706 1.610 . S
N708 C709 1.351 . S
C709 C703 1.428 1_655 S
C709 N708 1.351 . S
C709 C710 1.434 . S
C710 C701 1.429 1_655 S
C710 N707 1.350 . S
C710 C709 1.434 . S
C711 C712 1.369 . S
C711 C713 1.419 . S
C711 H715 0.930 . S
C712 C711 1.369 . S
C712 C721 1.429 . S
C713 C711 1.419 . S
C713 C714 1.363 . S
C713 H716 0.929 . S
C714 C713 1.363 . S
C714 C720 1.428 . S
H715 C711 0.930 . S
H716 C713 0.929 . S
S717 N718 1.613 . S
S717 N719 1.610 . S
N718 S717 1.613 . S
N718 C721 1.350 . S
N719 S717 1.610 . S
N719 C720 1.351 . S
C720 C714 1.428 . S
C720 N719 1.351 . S
C720 C721 1.434 . S
C721 C712 1.429 . S
C721 N718 1.350 . S
C721 C720 1.434 . S
C722 C723 1.369 . S
C722 C724 1.419 . S
C722 H726 0.930 . S
C723 C722 1.369 . S
C723 C732 1.429 . S
C724 C722 1.419 . S
C724 C725 1.363 . S
C724 H727 0.929 . S
C725 C724 1.363 . S
C725 C731 1.428 . S
H726 C722 0.930 . S
H727 C724 0.929 . S
S728 N729 1.613 1_556 S
S728 N730 1.610 1_556 S
N729 S728 1.613 1_554 S
N729 C732 1.350 . S
N730 S728 1.610 1_554 S
N730 C731 1.351 . S
C731 C725 1.428 . S
C731 N730 1.351 . S
C731 C732 1.434 . S
C732 C723 1.429 . S
C732 N729 1.350 . S
C732 C731 1.434 . S
C733 C734 1.369 . S
C733 C735 1.419 . S
C733 H737 0.930 . S
C734 C733 1.369 . S
C734 C743 1.429 . S
C735 C733 1.419 . S
C735 C736 1.363 . S
C735 H738 0.929 . S
C736 C735 1.363 . S
C736 C742 1.428 . S
H737 C733 0.930 . S
H738 C735 0.929 . S
S739 N740 1.613 . S
S739 N741 1.610 . S
N740 S739 1.613 . S
N740 C743 1.350 . S
N741 S739 1.610 . S
N741 C742 1.351 . S
C742 C736 1.428 . S
C742 N741 1.351 . S
C742 C743 1.434 . S
C743 C734 1.429 . S
C743 N740 1.350 . S
C743 C742 1.434 . S
C744 C745 1.369 . S
C744 C746 1.419 . S
C744 H748 0.930 . S
C745 C744 1.369 . S
C745 C754 1.429 . S
C746 C744 1.419 . S
C746 C747 1.363 . S
C746 H749 0.929 . S
C747 C746 1.363 . S
C747 C753 1.428 . S
H748 C744 0.930 . S
H749 C746 0.929 . S
S750 N751 1.613 1_455 S
S750 N752 1.610 . S
N751 S750 1.613 1_655 S
N751 C754 1.350 . S
N752 S750 1.610 . S
N752 C753 1.351 1_455 S
C753 C747 1.428 . S
C753 N752 1.351 1_655 S
C753 C754 1.434 . S
C754 C745 1.429 . S
C754 N751 1.350 . S
C754 C753 1.434 . S
C755 C756 1.369 . S
C755 C757 1.419 . S
C755 H759 0.930 . S
C756 C755 1.369 . S
C756 C765 1.429 . S
C757 C755 1.419 . S
C757 C758 1.363 . S
C757 H760 0.929 . S
C758 C757 1.363 . S
C758 C764 1.428 . S
H759 C755 0.930 . S
H760 C757 0.929 . S
S761 N762 1.613 . S
S761 N763 1.610 . S
N762 S761 1.613 . S
N762 C765 1.350 . S
N763 S761 1.610 . S
N763 C764 1.351 . S
C764 C758 1.428 . S
C764 N763 1.351 . S
C764 C765 1.434 . S
C765 C756 1.429 . S
C765 N762 1.350 . S
C765 C764 1.434 . S
C766 C767 1.369 . S
C766 C768 1.419 . S
C766 H770 0.930 . S
C767 C766 1.369 . S
C767 C776 1.429 1_545 S
C768 C766 1.419 . S
C768 C769 1.363 . S
C768 H771 0.929 . S
C769 C768 1.363 . S
C769 C775 1.437 . S
H770 C766 0.930 . S
H771 C768 0.929 . S
S772 N773 1.613 . S
S772 N774 1.610 . S
N773 S772 1.613 . S
N773 C776 1.350 . S
N774 S772 1.610 . S
N774 C775 1.347 1_565 S
C775 C769 1.437 . S
C775 N774 1.347 1_545 S
C775 C776 1.428 1_545 S
C776 C767 1.429 1_565 S
C776 N773 1.350 . S
C776 C775 1.428 1_565 S
C777 C778 1.369 . S
C777 C779 1.419 . S
C777 H781 0.930 . S
C778 C777 1.369 . S
C778 C787 1.429 . S
C779 C777 1.419 . S
C779 C780 1.363 . S
C779 H782 0.929 . S
C780 C779 1.363 . S
C780 C786 1.428 . S
H781 C777 0.930 . S
H782 C779 0.929 . S
S783 N784 1.613 . S
S783 N785 1.610 . S
N784 S783 1.613 . S
N784 C787 1.350 . S
N785 S783 1.610 . S
N785 C786 1.351 . S
C786 C780 1.428 . S
C786 N785 1.351 . S
C786 C787 1.434 . S
C787 C778 1.429 . S
C787 N784 1.350 . S
C787 C786 1.434 . S
C788 C789 1.369 . S
C788 C790 1.419 . S
C788 H792 0.930 . S
C789 C788 1.369 . S
C789 C798 1.429 . S
C790 C788 1.419 . S
C790 C791 1.363 . S
C790 H793 0.929 . S
C791 C790 1.363 . S
C791 C797 1.428 . S
H792 C788 0.930 . S
H793 C790 0.929 . S
S794 N795 1.592 1_565 S
S794 N796 1.610 . S
N795 S794 1.592 1_545 S
N795 C798 1.367 . S
N796 S794 1.610 . S
N796 C797 1.351 1_565 S
C797 C791 1.428 . S
C797 N796 1.351 1_545 S
C797 C798 1.434 . S
C798 C789 1.429 . S
C798 N795 1.367 . S
C798 C797 1.434 . S
C799 C800 1.369 . S
C799 C801 1.419 . S
C799 H803 0.930 . S
C800 C799 1.369 . S
C800 C809 1.429 . S
C801 C799 1.419 . S
C801 C802 1.363 . S
C801 H804 0.929 . S
C802 C801 1.363 . S
C802 C808 1.428 . S
H803 C799 0.930 . S
H804 C801 0.929 . S
S805 N806 1.613 . S
S805 N807 1.610 . S
N806 S805 1.613 . S
N806 C809 1.350 . S
N807 S805 1.610 . S
N807 C808 1.351 . S
C808 C802 1.428 . S
C808 N807 1.351 . S
C808 C809 1.434 . S
C809 C800 1.429 . S
C809 N806 1.350 . S
C809 C808 1.434 . S
C810 C811 1.369 . S
C810 C812 1.419 . S
C810 H814 0.930 . S
C811 C810 1.369 . S
C811 C820 1.429 1_545 S
C812 C810 1.419 . S
C812 C813 1.363 . S
C812 H815 0.929 . S
C813 C812 1.363 . S
C813 C819 1.421 1_545 S
H814 C810 0.930 . S
H815 C812 0.929 . S
S816 N817 1.613 . S
S816 N818 1.610 . S
N817 S816 1.613 . S
N817 C820 1.350 . S
N818 S816 1.610 . S
N818 C819 1.357 . S
C819 C813 1.421 1_565 S
C819 N818 1.357 . S
C819 C820 1.436 . S
C820 C811 1.429 1_565 S
C820 N817 1.350 . S
C820 C819 1.436 . S
C821 C822 1.369 . S
C821 C823 1.419 . S
C821 H825 0.930 . S
C822 C821 1.369 . S
C822 C831 1.429 . S
C823 C821 1.419 . S
C823 C824 1.363 . S
C823 H826 0.929 . S
C824 C823 1.363 . S
C824 C830 1.428 . S
H825 C821 0.930 . S
H826 C823 0.929 . S
S827 N828 1.613 . S
S827 N829 1.610 . S
N828 S827 1.613 . S
N828 C831 1.350 . S
N829 S827 1.610 . S
N829 C830 1.351 . S
C830 C824 1.428 . S
C830 N829 1.351 . S
C830 C831 1.434 . S
C831 C822 1.429 . S
C831 N828 1.350 . S
C831 C830 1.434 . S
C832 C833 1.369 . S
C832 C834 1.419 . S
C832 H836 0.930 . S
C833 C832 1.369 . S
C833 C842 1.429 . S
C834 C832 1.419 . S
C834 C835 1.363 . S
C834 H837 0.929 . S
C835 C834 1.363 . S
C835 C841 1.428 1_565 S
H836 C832 0.930 . S
H837 C834 0.929 . S
S838 N839 1.613 1_545 S
S838 N840 1.610 . S
N839 S838 1.613 1_565 S
N839 C842 1.350 . S
N840 S838 1.610 . S
N840 C841 1.351 . S
C841 C835 1.428 1_545 S
C841 N840 1.351 . S
C841 C842 1.434 1_545 S
C842 C833 1.429 . S
C842 N839 1.350 . S
C842 C841 1.434 1_565 S
C843 C844 1.369 . S
C843 C845 1.419 . S
C843 H847 0.930 . S
C844 C843 1.369 . S
C844 C853 1.429 1_556 S
C845 C843 1.419 . S
C845 C846 1.366 . S
C845 H848 0.929 . S
C846 C845 1.366 . S
C846 C852 1.427 1_556 S
H847 C843 0.930 . S
H848 C845 0.929 . S
S849 N850 1.613 . S
S849 N851 1.610 . S
N850 S849 1.613 . S
N850 C853 1.350 . S
N851 S849 1.610 . S
N851 C852 1.351 . S
C852 C846 1.427 1_554 S
C852 N851 1.351 . S
C852 C853 1.434 . S
C853 C844 1.429 1_554 S
C853 N850 1.350 . S
C853 C852 1.434 . S
C854 C855 1.369 . S
C854 C856 1.419 . S
C854 H858 0.930 . S
C855 C854 1.369 . S
C855 C864 1.429 . S
C856 C854 1.419 . S
C856 C857 1.363 . S
C856 H859 0.929 . S
C857 C856 1.363 . S
C857 C863 1.428 . S
H858 C854 0.930 . S
H859 C856 0.929 . S
S860 N861 1.613 . S
S860 N862 1.610 . S
N861 S860 1.613 . S
N861 C864 1.350 . S
N862 S860 1.610 . S
N862 C863 1.351 . S
C863 C857 1.428 . S
C863 N862 1.351 . S
C863 C864 1.434 . S
C864 C855 1.429 . S
C864 N861 1.350 . S
C864 C863 1.434 . S
C865 C866 1.369 . S
C865 C867 1.419 . S
C865 H869 0.930 . S
C866 C865 1.369 . S
C866 C875 1.429 . S
C867 C865 1.419 . S
C867 C868 1.363 . S
C867 H870 0.929 . S
C868 C867 1.363 . S
C868 C874 1.428 . S
H869 C865 0.930 . S
H870 C867 0.929 . S
S871 N872 1.613 . S
S871 N873 1.610 . S
N872 S871 1.613 . S
N872 C875 1.350 . S
N873 S871 1.610 . S
N873 C874 1.351 . S
C874 C868 1.428 . S
C874 N873 1.351 . S
C874 C875 1.434 . S
C875 C866 1.429 . S
C875 N872 1.350 . S
C875 C874 1.434 . S
C876 C877 1.369 . S
C876 C878 1.419 . S
C876 H880 0.930 . S
C877 C876 1.369 . S
C877 C886 1.429 . S
C878 C876 1.419 . S
C878 C879 1.363 . S
C878 H881 0.929 . S
C879 C878 1.363 . S
C879 C885 1.428 . S
H880 C876 0.930 . S
H881 C878 0.929 . S
S882 N883 1.613 . S
S882 N884 1.610 . S
N883 S882 1.613 . S
N883 C886 1.350 . S
N884 S882 1.610 . S
N884 C885 1.351 . S
C885 C879 1.428 . S
C885 N884 1.351 . S
C885 C886 1.434 . S
C886 C877 1.429 . S
C886 N883 1.350 . S
C886 C885 1.434 . S
C887 C888 1.369 . S
C887 C889 1.419 . S
C887 H891 0.930 . S
C888 C887 1.369 . S
C888 C897 1.429 . S
C889 C887 1.419 . S
C889 C890 1.363 . S
C889 H892 0.929 . S
C890 C889 1.363 . S
C890 C896 1.428 . S
H891 C887 0.930 . S
H892 C889 0.929 . S
S893 N894 1.613 . S
S893 N895 1.610 . S
N894 S893 1.613 . S
N894 C897 1.350 . S
N895 S893 1.610 . S
N895 C896 1.351 . S
C896 C890 1.428 . S
C896 N895 1.351 . S
C896 C897 1.434 . S
C897 C888 1.429 . S
C897 N894 1.350 . S
C897 C896 1.434 . S
C898 C899 1.369 . S
C898 C900 1.419 . S
C898 H902 0.930 . S
C899 C898 1.369 . S
C899 C908 1.429 . S
C900 C898 1.419 . S
C900 C901 1.363 . S
C900 H903 0.929 . S
C901 C900 1.363 . S
C901 C907 1.428 . S
H902 C898 0.930 . S
H903 C900 0.929 . S
S904 N905 1.613 . S
S904 N906 1.610 . S
N905 S904 1.613 . S
N905 C908 1.350 . S
N906 S904 1.610 . S
N906 C907 1.351 . S
C907 C901 1.428 . S
C907 N906 1.351 . S
C907 C908 1.434 . S
C908 C899 1.429 . S
C908 N905 1.350 . S
C908 C907 1.434 . S
C909 C910 1.369 . S
C909 C911 1.419 . S
C909 H913 0.930 . S
C910 C909 1.369 . S
C910 C919 1.429 . S
C911 C909 1.419 . S
C911 C912 1.363 . S
C911 H914 0.929 . S
C912 C911 1.363 . S
C912 C918 1.428 . S
H913 C909 0.930 . S
H914 C911 0.929 . S
S915 N916 1.613 . S
S915 N917 1.610 . S
N916 S915 1.613 . S
N916 C919 1.350 . S
N917 S915 1.610 . S
N917 C918 1.351 . S
C918 C912 1.428 . S
C918 N917 1.351 . S
C918 C919 1.434 . S
C919 C910 1.429 . S
C919 N916 1.350 . S
C919 C918 1.434 . S
C920 C921 1.369 . S
C920 C922 1.419 . S
C920 H924 0.930 . S
C921 C920 1.369 . S
C921 C930 1.429 1_455 S
C922 C920 1.419 . S
C922 C923 1.363 . S
C922 H925 0.929 . S
C923 C922 1.363 . S
C923 C929 1.428 1_455 S
H924 C920 0.930 . S
H925 C922 0.929 . S
S926 N927 1.613 . S
S926 N928 1.610 . S
N927 S926 1.613 . S
N927 C930 1.350 . S
N928 S926 1.610 . S
N928 C929 1.351 . S
C929 C923 1.428 1_655 S
C929 N928 1.351 . S
C929 C930 1.434 . S
C930 C921 1.429 1_655 S
C930 N927 1.350 . S
C930 C929 1.434 . S
C931 C932 1.369 . S
C931 C933 1.419 . S
C931 H935 0.930 . S
C932 C931 1.369 . S
C932 C941 1.429 . S
C933 C931 1.419 . S
C933 C934 1.363 . S
C933 H936 0.929 . S
C934 C933 1.363 . S
C934 C940 1.428 . S
H935 C931 0.930 . S
H936 C933 0.929 . S
S937 N938 1.613 . S
S937 N939 1.610 . S
N938 S937 1.613 . S
N938 C941 1.350 . S
N939 S937 1.610 . S
N939 C940 1.351 . S
C940 C934 1.428 . S
C940 N939 1.351 . S
C940 C941 1.434 . S
C941 C932 1.429 . S
C941 N938 1.350 . S
C941 C940 1.434 . S
C942 C943 1.369 . S
C942 C944 1.419 . S
C942 H946 0.930 . S
C943 C942 1.369 . S
C943 C952 1.429 . S
C944 C942 1.419 . S
C944 C945 1.363 . S
C944 H947 0.929 . S
C945 C944 1.363 . S
C945 C951 1.428 . S
H946 C942 0.930 . S
H947 C944 0.929 . S
S948 N949 1.613 . S
S948 N950 1.610 . S
N949 S948 1.613 . S
N949 C952 1.350 . S
N950 S948 1.610 . S
N950 C951 1.351 . S
C951 C945 1.428 . S
C951 N950 1.351 . S
C951 C952 1.434 . S
C952 C943 1.429 . S
C952 N949 1.350 . S
C952 C951 1.434 . S
C953 C954 1.369 . S
C953 C955 1.419 . S
C953 H957 0.930 . S
C954 C953 1.369 . S
C954 C963 1.429 . S
C955 C953 1.419 . S
C955 C956 1.363 . S
C955 H958 0.929 . S
C956 C955 1.363 . S
C956 C962 1.428 . S
H957 C953 0.930 . S
H958 C955 0.929 . S
S959 N960 1.613 . S
S959 N961 1.610 . S
N960 S959 1.613 . S
N960 C963 1.350 . S
N961 S959 1.610 . S
N961 C962 1.351 . S
C962 C956 1.428 . S
C962 N961 1.351 . S
C962 C963 1.434 . S
C963 C954 1.429 . S
C963 N960 1.350 . S
C963 C962 1.434 . S
C964 C965 1.369 . S
C964 C966 1.419 . S
C964 H968 0.930 . S
C965 C964 1.369 . S
C965 C974 1.429 . S
C966 C964 1.419 . S
C966 C967 1.363 . S
C966 H969 0.929 . S
C967 C966 1.363 . S
C967 C973 1.428 . S
H968 C964 0.930 . S
H969 C966 0.929 . S
S970 N971 1.613 . S
S970 N972 1.610 . S
N971 S970 1.613 . S
N971 C974 1.350 1_655 S
N972 S970 1.610 . S
N972 C973 1.351 1_655 S
C973 C967 1.428 . S
C973 N972 1.351 1_455 S
C973 C974 1.434 . S
C974 C965 1.429 . S
C974 N971 1.350 1_455 S
C974 C973 1.434 . S
C975 C976 1.369 . S
C975 C977 1.419 . S
C975 H979 0.930 . S
C976 C975 1.369 . S
C976 C985 1.429 . S
C977 C975 1.419 . S
C977 C978 1.363 . S
C977 H980 0.929 . S
C978 C977 1.363 . S
C978 C984 1.428 . S
H979 C975 0.930 . S
H980 C977 0.929 . S
S981 N982 1.613 . S
S981 N983 1.610 . S
N982 S981 1.613 . S
N982 C985 1.350 . S
N983 S981 1.610 . S
N983 C984 1.351 . S
C984 C978 1.428 . S
C984 N983 1.351 . S
C984 C985 1.434 . S
C985 C976 1.429 . S
C985 N982 1.350 . S
C985 C984 1.434 . S
C986 C987 1.369 . S
C986 C988 1.419 . S
C986 H990 0.930 . S
C987 C986 1.369 . S
C987 C996 1.429 . S
C988 C986 1.419 . S
C988 C989 1.363 . S
C988 H991 0.929 . S
C989 C988 1.363 . S
C989 C995 1.428 . S
H990 C986 0.930 . S
H991 C988 0.929 . S
S992 N993 1.613 . S
S992 N994 1.610 . S
N993 S992 1.613 . S
N993 C996 1.350 . S
N994 S992 1.610 . S
N994 C995 1.351 . S
C995 C989 1.428 . S
C995 N994 1.351 . S
C995 C996 1.434 . S
C996 C987 1.429 . S
C996 N993 1.350 . S
C996 C995 1.434 . S
C997 C998 1.369 . S
C997 C999 1.419 . S
C997 H1001 0.930 . S
C998 C997 1.369 . S
C998 C1007 1.429 . S
C999 C997 1.419 . S
C999 C1000 1.363 . S
C999 H1002 0.929 . S
C1000 C999 1.363 . S
C1000 C1006 1.428 . S
H1001 C997 0.930 . S
H1002 C999 0.929 . S
S1003 N1004 1.613 . S
S1003 N1005 1.610 . S
N1004 S1003 1.613 . S
N1004 C1007 1.350 . S
N1005 S1003 1.610 . S
N1005 C1006 1.351 . S
C1006 C1000 1.428 . S
C1006 N1005 1.351 . S
C1006 C1007 1.434 . S
C1007 C998 1.429 . S
C1007 N1004 1.350 . S
C1007 C1006 1.434 . S
C1008 C1009 1.369 1_565 S
C1008 C1010 1.419 . S
C1008 H1012 0.930 . S
C1009 C1008 1.369 1_545 S
C1009 C1018 1.429 . S
C1010 C1008 1.419 . S
C1010 C1011 1.363 1_565 S
C1010 H1013 0.929 . S
C1011 C1010 1.363 1_545 S
C1011 C1017 1.428 . S
H1012 C1008 0.930 . S
H1013 C1010 0.929 . S
S1014 N1015 1.613 . S
S1014 N1016 1.610 . S
N1015 S1014 1.613 . S
N1015 C1018 1.350 . S
N1016 S1014 1.610 . S
N1016 C1017 1.351 . S
C1017 C1011 1.428 . S
C1017 N1016 1.351 . S
C1017 C1018 1.434 . S
C1018 C1009 1.429 . S
C1018 N1015 1.350 . S
C1018 C1017 1.434 . S
C1019 C1020 1.369 . S
C1019 C1021 1.419 . S
C1019 H1023 0.930 . S
C1020 C1019 1.369 . S
C1020 C1029 1.429 . S
C1021 C1019 1.419 . S
C1021 C1022 1.363 . S
C1021 H1024 0.929 . S
C1022 C1021 1.363 . S
C1022 C1028 1.428 . S
H1023 C1019 0.930 . S
H1024 C1021 0.929 . S
S1025 N1026 1.613 . S
S1025 N1027 1.610 . S
N1026 S1025 1.613 . S
N1026 C1029 1.350 . S
N1027 S1025 1.610 . S
N1027 C1028 1.351 . S
C1028 C1022 1.428 . S
C1028 N1027 1.351 . S
C1028 C1029 1.434 . S
C1029 C1020 1.429 . S
C1029 N1026 1.350 . S
C1029 C1028 1.434 . S
C1030 C1031 1.369 . S
C1030 C1032 1.419 . S
C1030 H1034 0.930 . S
C1031 C1030 1.369 . S
C1031 C1040 1.429 . S
C1032 C1030 1.419 . S
C1032 C1033 1.363 . S
C1032 H1035 0.929 . S
C1033 C1032 1.363 . S
C1033 C1039 1.428 . S
H1034 C1030 0.930 . S
H1035 C1032 0.929 . S
S1036 N1037 1.613 . S
S1036 N1038 1.610 . S
N1037 S1036 1.613 . S
N1037 C1040 1.350 . S
N1038 S1036 1.610 . S
N1038 C1039 1.351 . S
C1039 C1033 1.428 . S
C1039 N1038 1.351 . S
C1039 C1040 1.434 . S
C1040 C1031 1.429 . S
C1040 N1037 1.350 . S
C1040 C1039 1.434 . S
C1041 C1042 1.369 . S
C1041 C1043 1.419 . S
C1041 H1045 0.930 . S
C1042 C1041 1.369 . S
C1042 C1051 1.429 . S
C1043 C1041 1.419 . S
C1043 C1044 1.363 . S
C1043 H1046 0.929 . S
C1044 C1043 1.363 . S
C1044 C1050 1.428 . S
H1045 C1041 0.930 . S
H1046 C1043 0.929 . S
S1047 N1048 1.613 . S
S1047 N1049 1.610 . S
N1048 S1047 1.613 . S
N1048 C1051 1.350 . S
N1049 S1047 1.610 . S
N1049 C1050 1.351 . S
C1050 C1044 1.428 . S
C1050 N1049 1.351 . S
C1050 C1051 1.434 . S
C1051 C1042 1.429 . S
C1051 N1048 1.350 . S
C1051 C1050 1.434 . S
C1052 C1053 1.369 1_545 S
C1052 C1054 1.419 . S
C1052 H1056 0.930 . S
C1053 C1052 1.369 1_565 S
C1053 C1062 1.429 . S
C1054 C1052 1.419 . S
C1054 C1055 1.363 . S
C1054 H1057 0.929 . S
C1055 C1054 1.363 . S
C1055 C1061 1.428 1_545 S
H1056 C1052 0.930 . S
H1057 C1054 0.929 . S
S1058 N1059 1.613 . S
S1058 N1060 1.610 . S
N1059 S1058 1.613 . S
N1059 C1062 1.350 . S
N1060 S1058 1.610 . S
N1060 C1061 1.351 . S
C1061 C1055 1.428 1_565 S
C1061 N1060 1.351 . S
C1061 C1062 1.434 . S
C1062 C1053 1.429 . S
C1062 N1059 1.350 . S
C1062 C1061 1.434 . S
C1063 C1064 1.369 . S
C1063 C1065 1.419 . S
C1063 H1067 0.930 . S
C1064 C1063 1.369 . S
C1064 C1073 1.429 . S
C1065 C1063 1.419 . S
C1065 C1066 1.363 . S
C1065 H1068 0.929 . S
C1066 C1065 1.363 . S
C1066 C1072 1.428 . S
H1067 C1063 0.930 . S
H1068 C1065 0.929 . S
S1069 N1070 1.613 . S
S1069 N1071 1.610 . S
N1070 S1069 1.613 . S
N1070 C1073 1.350 . S
N1071 S1069 1.610 . S
N1071 C1072 1.351 . S
C1072 C1066 1.428 . S
C1072 N1071 1.351 . S
C1072 C1073 1.434 . S
C1073 C1064 1.429 . S
C1073 N1070 1.350 . S
C1073 C1072 1.434 . S
C1074 C1075 1.369 . S
C1074 C1076 1.419 . S
C1074 H1078 0.930 . S
C1075 C1074 1.369 . S
C1075 C1084 1.429 . S
C1076 C1074 1.419 . S
C1076 C1077 1.363 . S
C1076 H1079 0.929 . S
C1077 C1076 1.363 . S
C1077 C1083 1.428 . S
H1078 C1074 0.930 . S
H1079 C1076 0.929 . S
S1080 N1081 1.613 . S
S1080 N1082 1.610 . S
N1081 S1080 1.613 . S
N1081 C1084 1.350 . S
N1082 S1080 1.610 . S
N1082 C1083 1.351 . S
C1083 C1077 1.428 . S
C1083 N1082 1.351 . S
C1083 C1084 1.434 . S
C1084 C1075 1.429 . S
C1084 N1081 1.350 . S
C1084 C1083 1.434 . S
C1085 C1086 1.369 . S
C1085 C1087 1.419 . S
C1085 H1089 0.930 . S
C1086 C1085 1.369 . S
C1086 C1095 1.429 . S
C1087 C1085 1.419 . S
C1087 C1088 1.363 . S
C1087 H1090 0.929 . S
C1088 C1087 1.363 . S
C1088 C1094 1.428 . S
H1089 C1085 0.930 . S
H1090 C1087 0.929 . S
S1091 N1092 1.613 . S
S1091 N1093 1.610 . S
N1092 S1091 1.613 . S
N1092 C1095 1.350 . S
N1093 S1091 1.610 . S
N1093 C1094 1.351 . S
C1094 C1088 1.428 . S
C1094 N1093 1.351 . S
C1094 C1095 1.434 . S
C1095 C1086 1.429 . S
C1095 N1092 1.350 . S
C1095 C1094 1.434 . S
C1096 C1097 1.369 . S
C1096 C1098 1.419 . S
C1096 H1100 0.930 . S
C1097 C1096 1.369 . S
C1097 C1106 1.429 1_554 S
C1098 C1096 1.419 . S
C1098 C1099 1.363 . S
C1098 H1101 0.929 . S
C1099 C1098 1.363 . S
C1099 C1105 1.428 1_554 S
H1100 C1096 0.930 . S
H1101 C1098 0.929 . S
S1102 N1103 1.613 . S
S1102 N1104 1.610 . S
N1103 S1102 1.613 . S
N1103 C1106 1.350 . S
N1104 S1102 1.610 . S
N1104 C1105 1.351 . S
C1105 C1099 1.428 1_556 S
C1105 N1104 1.351 . S
C1105 C1106 1.434 . S
C1106 C1097 1.429 1_556 S
C1106 N1103 1.350 . S
C1106 C1105 1.434 . S
C1107 C1108 1.369 . S
C1107 C1109 1.419 . S
C1107 H1111 0.930 . S
C1108 C1107 1.369 . S
C1108 C1117 1.429 . S
C1109 C1107 1.419 . S
C1109 C1110 1.363 . S
C1109 H1112 0.929 . S
C1110 C1109 1.363 . S
C1110 C1116 1.428 . S
H1111 C1107 0.930 . S
H1112 C1109 0.929 . S
S1113 N1114 1.613 . S
S1113 N1115 1.610 . S
N1114 S1113 1.613 . S
N1114 C1117 1.350 . S
N1115 S1113 1.610 . S
N1115 C1116 1.351 . S
C1116 C1110 1.428 . S
C1116 N1115 1.351 . S
C1116 C1117 1.434 . S
C1117 C1108 1.429 . S
C1117 N1114 1.350 . S
C1117 C1116 1.434 . S
C1118 C1119 1.369 . S
C1118 C1120 1.419 . S
C1118 H1122 0.930 . S
C1119 C1118 1.369 . S
C1119 C1128 1.429 . S
C1120 C1118 1.419 . S
C1120 C1121 1.363 . S
C1120 H1123 0.929 . S
C1121 C1120 1.363 . S
C1121 C1127 1.428 . S
H1122 C1118 0.930 . S
H1123 C1120 0.929 . S
S1124 N1125 1.613 . S
S1124 N1126 1.610 . S
N1125 S1124 1.613 . S
N1125 C1128 1.350 . S
N1126 S1124 1.610 . S
N1126 C1127 1.351 . S
C1127 C1121 1.428 . S
C1127 N1126 1.351 . S
C1127 C1128 1.434 . S
C1128 C1119 1.429 . S
C1128 N1125 1.350 . S
C1128 C1127 1.434 . S
C1129 C1130 1.369 . S
C1129 C1131 1.419 . S
C1129 H1133 0.930 . S
C1130 C1129 1.369 . S
C1130 C1139 1.429 . S
C1131 C1129 1.419 . S
C1131 C1132 1.363 . S
C1131 H1134 0.929 . S
C1132 C1131 1.363 . S
C1132 C1138 1.428 . S
H1133 C1129 0.930 . S
H1134 C1131 0.929 . S
S1135 N1136 1.613 . S
S1135 N1137 1.610 . S
N1136 S1135 1.613 . S
N1136 C1139 1.350 . S
N1137 S1135 1.610 . S
N1137 C1138 1.351 . S
C1138 C1132 1.428 . S
C1138 N1137 1.351 . S
C1138 C1139 1.434 . S
C1139 C1130 1.429 . S
C1139 N1136 1.350 . S
C1139 C1138 1.434 . S
C1140 C1141 1.369 . S
C1140 C1142 1.419 . S
C1140 H1144 0.930 . S
C1141 C1140 1.369 . S
C1141 C1150 1.429 . S
C1142 C1140 1.419 . S
C1142 C1143 1.363 . S
C1142 H1145 0.929 . S
C1143 C1142 1.363 . S
C1143 C1149 1.428 . S
H1144 C1140 0.930 . S
H1145 C1142 0.929 . S
S1146 N1147 1.613 . S
S1146 N1148 1.610 . S
N1147 S1146 1.613 . S
N1147 C1150 1.350 . S
N1148 S1146 1.610 . S
N1148 C1149 1.351 . S
C1149 C1143 1.428 . S
C1149 N1148 1.351 . S
C1149 C1150 1.434 . S
C1150 C1141 1.429 . S
C1150 N1147 1.350 . S
C1150 C1149 1.434 . S
C1151 C1152 1.369 . S
C1151 C1153 1.419 . S
C1151 H1155 0.930 . S
C1152 C1151 1.369 . S
C1152 C1161 1.429 . S
C1153 C1151 1.419 . S
C1153 C1154 1.363 . S
C1153 H1156 0.929 . S
C1154 C1153 1.363 . S
C1154 C1160 1.428 . S
H1155 C1151 0.930 . S
H1156 C1153 0.929 . S
S1157 N1158 1.613 1_545 S
S1157 N1159 1.610 . S
N1158 S1157 1.613 1_565 S
N1158 C1161 1.350 . S
N1159 S1157 1.610 . S
N1159 C1160 1.351 1_545 S
C1160 C1154 1.428 . S
C1160 N1159 1.351 1_565 S
C1160 C1161 1.434 . S
C1161 C1152 1.429 . S
C1161 N1158 1.350 . S
C1161 C1160 1.434 . S
C1162 C1163 1.369 . S
C1162 C1164 1.419 . S
C1162 H1166 0.930 . S
C1163 C1162 1.369 . S
C1163 C1172 1.429 . S
C1164 C1162 1.419 . S
C1164 C1165 1.363 . S
C1164 H1167 0.929 . S
C1165 C1164 1.363 . S
C1165 C1171 1.428 . S
H1166 C1162 0.930 . S
H1167 C1164 0.929 . S
S1168 N1169 1.613 . S
S1168 N1170 1.610 . S
N1169 S1168 1.613 . S
N1169 C1172 1.350 . S
N1170 S1168 1.610 . S
N1170 C1171 1.351 . S
C1171 C1165 1.428 . S
C1171 N1170 1.351 . S
C1171 C1172 1.434 . S
C1172 C1163 1.429 . S
C1172 N1169 1.350 . S
C1172 C1171 1.434 . S
C1173 C1174 1.369 . S
C1173 C1175 1.419 . S
C1173 H1177 0.930 . S
C1174 C1173 1.369 . S
C1174 C1183 1.429 . S
C1175 C1173 1.419 . S
C1175 C1176 1.363 . S
C1175 H1178 0.929 . S
C1176 C1175 1.363 . S
C1176 C1182 1.428 . S
H1177 C1173 0.930 . S
H1178 C1175 0.929 . S
S1179 N1180 1.613 . S
S1179 N1181 1.610 . S
N1180 S1179 1.613 . S
N1180 C1183 1.350 . S
N1181 S1179 1.610 . S
N1181 C1182 1.351 . S
C1182 C1176 1.428 . S
C1182 N1181 1.351 . S
C1182 C1183 1.434 . S
C1183 C1174 1.429 . S
C1183 N1180 1.350 . S
C1183 C1182 1.434 . S
C1184 C1185 1.369 . S
C1184 C1186 1.419 . S
C1184 H1188 0.930 . S
C1185 C1184 1.369 . S
C1185 C1194 1.429 . S
C1186 C1184 1.419 . S
C1186 C1187 1.363 . S
C1186 H1189 0.929 . S
C1187 C1186 1.363 . S
C1187 C1193 1.428 . S
H1188 C1184 0.930 . S
H1189 C1186 0.929 . S
S1190 N1191 1.613 . S
S1190 N1192 1.610 . S
N1191 S1190 1.613 . S
N1191 C1194 1.350 . S
N1192 S1190 1.610 . S
N1192 C1193 1.351 . S
C1193 C1187 1.428 . S
C1193 N1192 1.351 . S
C1193 C1194 1.434 . S
C1194 C1185 1.429 . S
C1194 N1191 1.350 . S
C1194 C1193 1.434 . S
C1195 C1196 1.369 . S
C1195 C1197 1.419 . S
C1195 H1199 0.930 . S
C1196 C1195 1.369 . S
C1196 C1205 1.429 . S
C1197 C1195 1.419 . S
C1197 C1198 1.363 . S
C1197 H1200 0.929 . S
C1198 C1197 1.363 . S
C1198 C1204 1.428 . S
H1199 C1195 0.930 . S
H1200 C1197 0.929 . S
S1201 N1202 1.613 . S
S1201 N1203 1.610 . S
N1202 S1201 1.613 . S
N1202 C1205 1.350 . S
N1203 S1201 1.610 . S
N1203 C1204 1.351 . S
C1204 C1198 1.428 . S
C1204 N1203 1.351 . S
C1204 C1205 1.434 . S
C1205 C1196 1.429 . S
C1205 N1202 1.350 . S
C1205 C1204 1.434 . S
C1206 C1207 1.369 . S
C1206 C1208 1.419 . S
C1206 H1210 0.930 . S
C1207 C1206 1.369 . S
C1207 C1216 1.429 1_455 S
C1208 C1206 1.419 . S
C1208 C1209 1.363 . S
C1208 H1211 0.929 1_556 S
C1209 C1208 1.363 . S
C1209 C1215 1.428 1_455 S
H1210 C1206 0.930 . S
H1211 C1208 0.929 1_554 S
S1212 N1213 1.613 . S
S1212 N1214 1.610 . S
N1213 S1212 1.613 . S
N1213 C1216 1.350 . S
N1214 S1212 1.610 . S
N1214 C1215 1.351 . S
C1215 C1209 1.428 1_655 S
C1215 N1214 1.351 . S
C1215 C1216 1.434 . S
C1216 C1207 1.429 1_655 S
C1216 N1213 1.350 . S
C1216 C1215 1.434 . S
C1217 C1218 1.369 . S
C1217 C1219 1.419 . S
C1217 H1221 0.930 . S
C1218 C1217 1.369 . S
C1218 C1227 1.429 . S
C1219 C1217 1.419 . S
C1219 C1220 1.363 . S
C1219 H1222 0.929 . S
C1220 C1219 1.363 . S
C1220 C1226 1.428 . S
H1221 C1217 0.930 . S
H1222 C1219 0.929 . S
S1223 N1224 1.613 . S
S1223 N1225 1.610 . S
N1224 S1223 1.613 . S
N1224 C1227 1.350 . S
N1225 S1223 1.610 . S
N1225 C1226 1.351 . S
C1226 C1220 1.428 . S
C1226 N1225 1.351 . S
C1226 C1227 1.434 . S
C1227 C1218 1.429 . S
C1227 N1224 1.350 . S
C1227 C1226 1.434 . S
C1228 C1229 1.369 . S
C1228 C1230 1.419 . S
C1228 H1232 0.930 . S
C1229 C1228 1.369 . S
C1229 C1238 1.429 . S
C1230 C1228 1.419 . S
C1230 C1231 1.363 . S
C1230 H1233 0.929 . S
C1231 C1230 1.363 . S
C1231 C1237 1.428 . S
H1232 C1228 0.930 . S
H1233 C1230 0.929 . S
S1234 N1235 1.613 . S
S1234 N1236 1.610 . S
N1235 S1234 1.613 . S
N1235 C1238 1.350 . S
N1236 S1234 1.610 . S
N1236 C1237 1.351 . S
C1237 C1231 1.428 . S
C1237 N1236 1.351 . S
C1237 C1238 1.434 . S
C1238 C1229 1.429 . S
C1238 N1235 1.350 . S
C1238 C1237 1.434 . S
C1239 C1240 1.369 . S
C1239 C1241 1.419 . S
C1239 H1243 0.930 . S
C1240 C1239 1.369 . S
C1240 C1249 1.429 . S
C1241 C1239 1.419 . S
C1241 C1242 1.363 . S
C1241 H1244 0.929 . S
C1242 C1241 1.363 . S
C1242 C1248 1.428 . S
H1243 C1239 0.930 . S
H1244 C1241 0.929 . S
S1245 N1246 1.613 . S
S1245 N1247 1.610 . S
N1246 S1245 1.613 . S
N1246 C1249 1.350 . S
N1247 S1245 1.610 . S
N1247 C1248 1.351 . S
C1248 C1242 1.428 . S
C1248 N1247 1.351 . S
C1248 C1249 1.434 . S
C1249 C1240 1.429 . S
C1249 N1246 1.350 . S
C1249 C1248 1.434 . S
C1250 C1251 1.369 1_455 S
C1250 C1252 1.419 . S
C1250 H1254 0.930 . S
C1251 C1250 1.369 1_655 S
C1251 C1260 1.429 . S
C1252 C1250 1.419 . S
C1252 C1253 1.363 1_455 S
C1252 H1255 0.929 . S
C1253 C1252 1.363 1_655 S
C1253 C1259 1.428 . S
H1254 C1250 0.930 . S
H1255 C1252 0.929 . S
S1256 N1257 1.613 . S
S1256 N1258 1.610 . S
N1257 S1256 1.613 . S
N1257 C1260 1.350 . S
N1258 S1256 1.610 . S
N1258 C1259 1.351 . S
C1259 C1253 1.428 . S
C1259 N1258 1.351 . S
C1259 C1260 1.434 . S
C1260 C1251 1.429 . S
C1260 N1257 1.350 . S
C1260 C1259 1.434 . S
C1261 C1262 1.369 . S
C1261 C1263 1.419 . S
C1261 H1265 0.930 . S
C1262 C1261 1.369 . S
C1262 C1271 1.429 . S
C1263 C1261 1.419 . S
C1263 C1264 1.363 . S
C1263 H1266 0.929 . S
C1264 C1263 1.363 . S
C1264 C1270 1.428 . S
H1265 C1261 0.930 . S
H1266 C1263 0.929 . S
S1267 N1268 1.613 . S
S1267 N1269 1.610 . S
N1268 S1267 1.613 . S
N1268 C1271 1.350 . S
N1269 S1267 1.610 . S
N1269 C1270 1.351 . S
C1270 C1264 1.428 . S
C1270 N1269 1.351 . S
C1270 C1271 1.434 . S
C1271 C1262 1.429 . S
C1271 N1268 1.350 . S
C1271 C1270 1.434 . S
C1272 C1273 1.369 . S
C1272 C1274 1.419 . S
C1272 H1276 0.930 . S
C1273 C1272 1.369 . S
C1273 C1282 1.429 . S
C1274 C1272 1.419 . S
C1274 C1275 1.363 . S
C1274 H1277 0.929 . S
C1275 C1274 1.363 . S
C1275 C1281 1.428 . S
H1276 C1272 0.930 . S
H1277 C1274 0.929 . S
S1278 N1279 1.613 . S
S1278 N1280 1.610 . S
N1279 S1278 1.613 . S
N1279 C1282 1.350 . S
N1280 S1278 1.610 . S
N1280 C1281 1.351 . S
C1281 C1275 1.428 . S
C1281 N1280 1.351 . S
C1281 C1282 1.434 . S
C1282 C1273 1.429 . S
C1282 N1279 1.350 . S
C1282 C1281 1.434 . S
C1283 C1284 1.369 . S
C1283 C1285 1.419 . S
C1283 H1287 0.930 . S
C1284 C1283 1.369 . S
C1284 C1293 1.429 . S
C1285 C1283 1.419 . S
C1285 C1286 1.363 . S
C1285 H1288 0.929 . S
C1286 C1285 1.363 . S
C1286 C1292 1.428 . S
H1287 C1283 0.930 . S
H1288 C1285 0.929 . S
S1289 N1290 1.613 . S
S1289 N1291 1.610 . S
N1290 S1289 1.613 . S
N1290 C1293 1.350 . S
N1291 S1289 1.610 . S
N1291 C1292 1.351 . S
C1292 C1286 1.428 . S
C1292 N1291 1.351 . S
C1292 C1293 1.434 . S
C1293 C1284 1.429 . S
C1293 N1290 1.350 . S
C1293 C1292 1.434 . S
C1294 C1295 1.369 . S
C1294 C1296 1.419 . S
C1294 H1298 0.930 . S
C1295 C1294 1.369 . S
C1295 C1304 1.429 . S
C1296 C1294 1.419 . S
C1296 C1297 1.363 . S
C1296 H1299 0.929 . S
C1297 C1296 1.363 . S
C1297 C1303 1.428 . S
H1298 C1294 0.930 . S
H1299 C1296 0.929 . S
S1300 N1301 1.613 . S
S1300 N1302 1.610 . S
N1301 S1300 1.613 . S
N1301 C1304 1.350 . S
N1302 S1300 1.610 . S
N1302 C1303 1.351 . S
C1303 C1297 1.428 . S
C1303 N1302 1.351 . S
C1303 C1304 1.434 . S
C1304 C1295 1.429 . S
C1304 N1301 1.350 . S
C1304 C1303 1.434 . S
C1305 C1306 1.369 . S
C1305 C1307 1.419 . S
C1305 H1309 0.930 . S
C1306 C1305 1.369 . S
C1306 C1315 1.429 . S
C1307 C1305 1.419 . S
C1307 C1308 1.363 . S
C1307 H1310 0.929 . S
C1308 C1307 1.363 . S
C1308 C1314 1.428 . S
H1309 C1305 0.930 . S
H1310 C1307 0.929 . S
S1311 N1312 1.613 . S
S1311 N1313 1.610 . S
N1312 S1311 1.613 . S
N1312 C1315 1.350 . S
N1313 S1311 1.610 . S
N1313 C1314 1.351 . S
C1314 C1308 1.428 . S
C1314 N1313 1.351 . S
C1314 C1315 1.434 . S
C1315 C1306 1.429 . S
C1315 N1312 1.350 . S
C1315 C1314 1.434 . S
C1316 C1317 1.369 . S
C1316 C1318 1.419 . S
C1316 H1320 0.930 . S
C1317 C1316 1.369 . S
C1317 C1326 1.429 . S
C1318 C1316 1.419 . S
C1318 C1319 1.363 . S
C1318 H1321 0.929 . S
C1319 C1318 1.363 . S
C1319 C1325 1.428 . S
H1320 C1316 0.930 . S
H1321 C1318 0.929 . S
S1322 N1323 1.613 . S
S1322 N1324 1.610 . S
N1323 S1322 1.613 . S
N1323 C1326 1.350 . S
N1324 S1322 1.610 . S
N1324 C1325 1.351 . S
C1325 C1319 1.428 . S
C1325 N1324 1.351 . S
C1325 C1326 1.434 . S
C1326 C1317 1.429 . S
C1326 N1323 1.350 . S
C1326 C1325 1.434 . S
C1327 C1328 1.369 . S
C1327 C1329 1.419 . S
C1327 H1331 0.930 . S
C1328 C1327 1.369 . S
C1328 C1337 1.429 . S
C1329 C1327 1.419 . S
C1329 C1330 1.363 . S
C1329 H1332 0.929 . S
C1330 C1329 1.363 . S
C1330 C1336 1.428 . S
H1331 C1327 0.930 . S
H1332 C1329 0.929 . S
S1333 N1334 1.613 . S
S1333 N1335 1.610 . S
N1334 S1333 1.613 . S
N1334 C1337 1.350 . S
N1335 S1333 1.610 . S
N1335 C1336 1.351 . S
C1336 C1330 1.428 . S
C1336 N1335 1.351 . S
C1336 C1337 1.434 . S
C1337 C1328 1.429 . S
C1337 N1334 1.350 . S
C1337 C1336 1.434 . S
C1338 C1339 1.369 . S
C1338 C1340 1.419 . S
C1338 H1342 0.930 . S
C1339 C1338 1.369 . S
C1339 C1348 1.429 . S
C1340 C1338 1.419 . S
C1340 C1341 1.363 . S
C1340 H1343 0.929 . S
C1341 C1340 1.363 . S
C1341 C1347 1.428 . S
H1342 C1338 0.930 . S
H1343 C1340 0.929 . S
S1344 N1345 1.613 . S
S1344 N1346 1.610 . S
N1345 S1344 1.613 . S
N1345 C1348 1.350 . S
N1346 S1344 1.610 . S
N1346 C1347 1.351 . S
C1347 C1341 1.428 . S
C1347 N1346 1.351 . S
C1347 C1348 1.434 . S
C1348 C1339 1.429 . S
C1348 N1345 1.350 . S
C1348 C1347 1.434 . S
C1349 C1350 1.369 . S
C1349 C1351 1.419 . S
C1349 H1353 0.930 . S
C1350 C1349 1.369 . S
C1350 C1359 1.429 . S
C1351 C1349 1.419 . S
C1351 C1352 1.363 . S
C1351 H1354 0.929 . S
C1352 C1351 1.363 . S
C1352 C1358 1.428 . S
H1353 C1349 0.930 . S
H1354 C1351 0.929 . S
S1355 N1356 1.613 . S
S1355 N1357 1.610 . S
N1356 S1355 1.613 . S
N1356 C1359 1.350 . S
N1357 S1355 1.610 . S
N1357 C1358 1.351 . S
C1358 C1352 1.428 . S
C1358 N1357 1.351 . S
C1358 C1359 1.434 . S
C1359 C1350 1.429 . S
C1359 N1356 1.350 . S
C1359 C1358 1.434 . S
C1360 C1361 1.369 . S
C1360 C1362 1.419 . S
C1360 H1364 0.930 . S
C1361 C1360 1.369 . S
C1361 C1370 1.429 . S
C1362 C1360 1.419 . S
C1362 C1363 1.363 . S
C1362 H1365 0.929 . S
C1363 C1362 1.363 . S
C1363 C1369 1.428 . S
H1364 C1360 0.930 . S
H1365 C1362 0.929 . S
S1366 N1367 1.613 . S
S1366 N1368 1.610 . S
N1367 S1366 1.613 . S
N1367 C1370 1.350 . S
N1368 S1366 1.610 . S
N1368 C1369 1.351 . S
C1369 C1363 1.428 . S
C1369 N1368 1.351 . S
C1369 C1370 1.434 . S
C1370 C1361 1.429 . S
C1370 N1367 1.350 . S
C1370 C1369 1.434 . S
C1371 C1372 1.369 . S
C1371 C1373 1.419 . S
C1371 H1375 0.930 . S
C1372 C1371 1.369 . S
C1372 C1381 1.429 . S
C1373 C1371 1.419 . S
C1373 C1374 1.363 . S
C1373 H1376 0.929 . S
C1374 C1373 1.363 . S
C1374 C1380 1.428 . S
H1375 C1371 0.930 . S
H1376 C1373 0.929 . S
S1377 N1378 1.613 . S
S1377 N1379 1.610 . S
N1378 S1377 1.613 . S
N1378 C1381 1.350 . S
N1379 S1377 1.610 . S
N1379 C1380 1.351 . S
C1380 C1374 1.428 . S
C1380 N1379 1.351 . S
C1380 C1381 1.434 . S
C1381 C1372 1.429 . S
C1381 N1378 1.350 . S
C1381 C1380 1.434 . S
C1382 C1383 1.369 . S
C1382 C1384 1.419 . S
C1382 H1386 0.930 . S
C1383 C1382 1.369 . S
C1383 C1392 1.429 . S
C1384 C1382 1.419 . S
C1384 C1385 1.363 . S
C1384 H1387 0.929 . S
C1385 C1384 1.363 . S
C1385 C1391 1.428 . S
H1386 C1382 0.930 . S
H1387 C1384 0.929 . S
S1388 N1389 1.613 . S
S1388 N1390 1.610 . S
N1389 S1388 1.613 . S
N1389 C1392 1.350 . S
N1390 S1388 1.610 . S
N1390 C1391 1.351 . S
C1391 C1385 1.428 . S
C1391 N1390 1.351 . S
C1391 C1392 1.434 . S
C1392 C1383 1.429 . S
C1392 N1389 1.350 . S
C1392 C1391 1.434 . S
C1393 C1394 1.369 . S
C1393 C1395 1.408 1_565 S
C1393 H1397 0.930 . S
C1394 C1393 1.369 . S
C1394 C1403 1.429 . S
C1395 C1393 1.408 1_545 S
C1395 C1396 1.352 1_545 S
C1395 H1398 0.952 . S
C1396 C1395 1.352 1_565 S
C1396 C1402 1.428 . S
H1397 C1393 0.930 . S
H1398 C1395 0.952 . S
S1399 N1400 1.613 . S
S1399 N1401 1.610 . S
N1400 S1399 1.613 . S
N1400 C1403 1.350 . S
N1401 S1399 1.610 . S
N1401 C1402 1.351 . S
C1402 C1396 1.428 . S
C1402 N1401 1.351 . S
C1402 C1403 1.434 . S
C1403 C1394 1.429 . S
C1403 N1400 1.350 . S
C1403 C1402 1.434 . S
C1404 C1405 1.369 . S
C1404 C1406 1.419 . S
C1404 H1408 0.930 . S
C1405 C1404 1.369 . S
C1405 C1414 1.429 . S
C1406 C1404 1.419 . S
C1406 C1407 1.363 . S
C1406 H1409 0.929 . S
C1407 C1406 1.363 . S
C1407 C1413 1.428 . S
H1408 C1404 0.930 . S
H1409 C1406 0.929 . S
S1410 N1411 1.613 . S
S1410 N1412 1.610 . S
N1411 S1410 1.613 . S
N1411 C1414 1.350 . S
N1412 S1410 1.610 . S
N1412 C1413 1.351 . S
C1413 C1407 1.428 . S
C1413 N1412 1.351 . S
C1413 C1414 1.434 . S
C1414 C1405 1.429 . S
C1414 N1411 1.350 . S
C1414 C1413 1.434 . S
C1415 C1416 1.369 . S
C1415 C1417 1.419 . S
C1415 H1419 0.930 . S
C1416 C1415 1.369 . S
C1416 C1425 1.429 1_554 S
C1417 C1415 1.419 . S
C1417 C1418 1.363 . S
C1417 H1420 0.929 . S
C1418 C1417 1.363 . S
C1418 C1424 1.428 . S
H1419 C1415 0.930 . S
H1420 C1417 0.929 . S
S1421 N1422 1.613 . S
S1421 N1423 1.610 . S
N1422 S1421 1.613 . S
N1422 C1425 1.350 . S
N1423 S1421 1.610 . S
N1423 C1424 1.351 1_556 S
C1424 C1418 1.428 . S
C1424 N1423 1.351 1_554 S
C1424 C1425 1.434 1_554 S
C1425 C1416 1.429 1_556 S
C1425 N1422 1.350 . S
C1425 C1424 1.434 1_556 S
C1426 C1427 1.369 . S
C1426 C1428 1.419 . S
C1426 H1430 0.930 . S
C1427 C1426 1.369 . S
C1427 C1436 1.429 . S
C1428 C1426 1.419 . S
C1428 C1429 1.363 . S
C1428 H1431 0.929 . S
C1429 C1428 1.363 . S
C1429 C1435 1.428 . S
H1430 C1426 0.930 . S
H1431 C1428 0.929 . S
S1432 N1433 1.613 . S
S1432 N1434 1.610 . S
N1433 S1432 1.613 . S
N1433 C1436 1.350 . S
N1434 S1432 1.610 . S
N1434 C1435 1.351 . S
C1435 C1429 1.428 . S
C1435 N1434 1.351 . S
C1435 C1436 1.434 . S
C1436 C1427 1.429 . S
C1436 N1433 1.350 . S
C1436 C1435 1.434 . S
C1437 C1438 1.369 . S
C1437 C1439 1.419 . S
C1437 H1441 0.930 . S
C1438 C1437 1.369 . S
C1438 C1447 1.429 . S
C1439 C1437 1.419 . S
C1439 C1440 1.363 . S
C1439 H1442 0.929 . S
C1440 C1439 1.363 . S
C1440 C1446 1.428 . S
H1441 C1437 0.930 . S
H1442 C1439 0.929 . S
S1443 N1444 1.613 . S
S1443 N1445 1.610 . S
N1444 S1443 1.613 . S
N1444 C1447 1.350 . S
N1445 S1443 1.610 . S
N1445 C1446 1.351 . S
C1446 C1440 1.428 . S
C1446 N1445 1.351 . S
C1446 C1447 1.434 . S
C1447 C1438 1.429 . S
C1447 N1444 1.350 . S
C1447 C1446 1.434 . S
C1448 C1449 1.369 . S
C1448 C1450 1.419 . S
C1448 H1452 0.930 . S
C1449 C1448 1.369 . S
C1449 C1458 1.429 . S
C1450 C1448 1.419 . S
C1450 C1451 1.363 . S
C1450 H1453 0.929 . S
C1451 C1450 1.363 . S
C1451 C1457 1.428 . S
H1452 C1448 0.930 . S
H1453 C1450 0.929 . S
S1454 N1455 1.613 . S
S1454 N1456 1.610 . S
N1455 S1454 1.613 . S
N1455 C1458 1.350 . S
N1456 S1454 1.610 . S
N1456 C1457 1.351 . S
C1457 C1451 1.428 . S
C1457 N1456 1.351 . S
C1457 C1458 1.434 . S
C1458 C1449 1.429 . S
C1458 N1455 1.350 . S
C1458 C1457 1.434 . S
C1459 C1460 1.369 . S
C1459 C1461 1.419 . S
C1459 H1463 0.930 . S
C1460 C1459 1.369 . S
C1460 C1469 1.429 . S
C1461 C1459 1.419 . S
C1461 C1462 1.363 . S
C1461 H1464 0.929 . S
C1462 C1461 1.363 . S
C1462 C1468 1.428 . S
H1463 C1459 0.930 . S
H1464 C1461 0.929 . S
S1465 N1466 1.613 . S
S1465 N1467 1.610 . S
N1466 S1465 1.613 . S
N1466 C1469 1.350 . S
N1467 S1465 1.610 . S
N1467 C1468 1.351 . S
C1468 C1462 1.428 . S
C1468 N1467 1.351 . S
C1468 C1469 1.434 . S
C1469 C1460 1.429 . S
C1469 N1466 1.350 . S
C1469 C1468 1.434 . S
C1470 C1471 1.375 . S
C1470 C1472 1.419 . S
C1470 H1474 0.930 . S
C1471 C1470 1.375 . S
C1471 C1480 1.428 . S
C1472 C1470 1.419 . S
C1472 C1473 1.363 . S
C1472 H1475 0.929 . S
C1473 C1472 1.363 . S
C1473 C1479 1.428 . S
H1474 C1470 0.930 . S
H1475 C1472 0.929 . S
S1476 N1477 1.613 . S
S1476 N1478 1.610 1_655 S
N1477 S1476 1.613 . S
N1477 C1480 1.343 1_655 S
N1478 S1476 1.610 1_455 S
N1478 C1479 1.351 . S
C1479 C1473 1.428 . S
C1479 N1478 1.351 . S
C1479 C1480 1.444 . S
C1480 C1471 1.428 . S
C1480 N1477 1.343 1_455 S
C1480 C1479 1.444 . S
C1481 C1482 1.369 . S
C1481 C1483 1.419 . S
C1481 H1485 0.930 . S
C1482 C1481 1.369 . S
C1482 C1491 1.429 . S
C1483 C1481 1.419 . S
C1483 C1484 1.363 . S
C1483 H1486 0.929 . S
C1484 C1483 1.363 . S
C1484 C1490 1.428 . S
H1485 C1481 0.930 . S
H1486 C1483 0.929 . S
S1487 N1488 1.613 . S
S1487 N1489 1.610 . S
N1488 S1487 1.613 . S
N1488 C1491 1.350 . S
N1489 S1487 1.610 . S
N1489 C1490 1.351 . S
C1490 C1484 1.428 . S
C1490 N1489 1.351 . S
C1490 C1491 1.434 . S
C1491 C1482 1.429 . S
C1491 N1488 1.350 . S
C1491 C1490 1.434 . S
C1492 C1493 1.369 . S
C1492 C1494 1.419 . S
C1492 H1496 0.930 . S
C1493 C1492 1.369 . S
C1493 C1502 1.429 . S
C1494 C1492 1.419 . S
C1494 C1495 1.363 . S
C1494 H1497 0.929 1_556 S
C1495 C1494 1.363 . S
C1495 C1501 1.428 . S
H1496 C1492 0.930 . S
H1497 C1494 0.929 1_554 S
S1498 N1499 1.613 . S
S1498 N1500 1.610 . S
N1499 S1498 1.613 . S
N1499 C1502 1.350 . S
N1500 S1498 1.610 . S
N1500 C1501 1.351 . S
C1501 C1495 1.428 . S
C1501 N1500 1.351 . S
C1501 C1502 1.434 . S
C1502 C1493 1.429 . S
C1502 N1499 1.350 . S
C1502 C1501 1.434 . S
C1503 C1504 1.369 . S
C1503 C1505 1.419 . S
C1503 H1507 0.930 . S
C1504 C1503 1.369 . S
C1504 C1513 1.429 . S
C1505 C1503 1.419 . S
C1505 C1506 1.363 . S
C1505 H1508 0.929 . S
C1506 C1505 1.363 . S
C1506 C1512 1.428 . S
H1507 C1503 0.930 . S
H1508 C1505 0.929 . S
S1509 N1510 1.613 . S
S1509 N1511 1.610 . S
N1510 S1509 1.613 . S
N1510 C1513 1.350 . S
N1511 S1509 1.610 . S
N1511 C1512 1.351 . S
C1512 C1506 1.428 . S
C1512 N1511 1.351 . S
C1512 C1513 1.434 . S
C1513 C1504 1.429 . S
C1513 N1510 1.350 . S
C1513 C1512 1.434 . S
C1514 C1515 1.364 1_655 S
C1514 C1516 1.420 . S
C1514 H1518 0.933 . S
C1515 C1514 1.364 1_455 S
C1515 C1524 1.429 . S
C1516 C1514 1.420 . S
C1516 C1517 1.363 1_655 S
C1516 H1519 0.929 . S
C1517 C1516 1.363 1_455 S
C1517 C1523 1.428 . S
H1518 C1514 0.933 . S
H1519 C1516 0.929 . S
S1520 N1521 1.613 . S
S1520 N1522 1.610 . S
N1521 S1520 1.613 . S
N1521 C1524 1.350 . S
N1522 S1520 1.610 . S
N1522 C1523 1.351 . S
C1523 C1517 1.428 . S
C1523 N1522 1.351 . S
C1523 C1524 1.434 . S
C1524 C1515 1.429 . S
C1524 N1521 1.350 . S
C1524 C1523 1.434 . S
C1525 C1526 1.369 . S
C1525 C1527 1.419 . S
C1525 H1529 0.930 . S
C1526 C1525 1.369 . S
C1526 C1535 1.429 . S
C1527 C1525 1.419 . S
C1527 C1528 1.363 . S
C1527 H1530 0.929 . S
C1528 C1527 1.363 . S
C1528 C1534 1.428 . S
H1529 C1525 0.930 . S
H1530 C1527 0.929 . S
S1531 N1532 1.613 . S
S1531 N1533 1.610 . S
N1532 S1531 1.613 . S
N1532 C1535 1.350 . S
N1533 S1531 1.610 . S
N1533 C1534 1.351 . S
C1534 C1528 1.428 . S
C1534 N1533 1.351 . S
C1534 C1535 1.434 . S
C1535 C1526 1.429 . S
C1535 N1532 1.350 . S
C1535 C1534 1.434 . S
C1536 C1537 1.369 . S
C1536 C1538 1.419 . S
C1536 H1540 0.930 . S
C1537 C1536 1.369 . S
C1537 C1546 1.429 . S
C1538 C1536 1.419 . S
C1538 C1539 1.363 . S
C1538 H1541 0.929 . S
C1539 C1538 1.363 . S
C1539 C1545 1.428 . S
H1540 C1536 0.930 . S
H1541 C1538 0.929 . S
S1542 N1543 1.613 . S
S1542 N1544 1.610 . S
N1543 S1542 1.613 . S
N1543 C1546 1.350 . S
N1544 S1542 1.610 . S
N1544 C1545 1.351 . S
C1545 C1539 1.428 . S
C1545 N1544 1.351 . S
C1545 C1546 1.434 . S
C1546 C1537 1.429 . S
C1546 N1543 1.350 . S
C1546 C1545 1.434 . S
C1547 C1548 1.369 . S
C1547 C1549 1.419 . S
C1547 H1551 0.930 . S
C1548 C1547 1.369 . S
C1548 C1557 1.429 . S
C1549 C1547 1.419 . S
C1549 C1550 1.363 . S
C1549 H1552 0.929 . S
C1550 C1549 1.363 . S
C1550 C1556 1.428 . S
H1551 C1547 0.930 . S
H1552 C1549 0.929 . S
S1553 N1554 1.613 . S
S1553 N1555 1.610 . S
N1554 S1553 1.613 . S
N1554 C1557 1.350 . S
N1555 S1553 1.610 . S
N1555 C1556 1.351 . S
C1556 C1550 1.428 . S
C1556 N1555 1.351 . S
C1556 C1557 1.434 . S
C1557 C1548 1.429 . S
C1557 N1554 1.350 . S
C1557 C1556 1.434 . S
C1558 C1559 1.369 . S
C1558 C1560 1.419 . S
C1558 H1562 0.930 . S
C1559 C1558 1.369 . S
C1559 C1568 1.429 . S
C1560 C1558 1.419 . S
C1560 C1561 1.363 . S
C1560 H1563 0.929 . S
C1561 C1560 1.363 . S
C1561 C1567 1.428 . S
H1562 C1558 0.930 . S
H1563 C1560 0.929 . S
S1564 N1565 1.613 1_455 S
S1564 N1566 1.610 . S
N1565 S1564 1.613 1_655 S
N1565 C1568 1.350 . S
N1566 S1564 1.610 . S
N1566 C1567 1.351 1_455 S
C1567 C1561 1.428 . S
C1567 N1566 1.351 1_655 S
C1567 C1568 1.434 . S
C1568 C1559 1.429 . S
C1568 N1565 1.350 . S
C1568 C1567 1.434 . S
C1569 C1570 1.369 . S
C1569 C1571 1.419 . S
C1569 H1573 0.930 . S
C1570 C1569 1.369 . S
C1570 C1579 1.429 . S
C1571 C1569 1.419 . S
C1571 C1572 1.363 . S
C1571 H1574 0.929 . S
C1572 C1571 1.363 . S
C1572 C1578 1.428 . S
H1573 C1569 0.930 . S
H1574 C1571 0.929 . S
S1575 N1576 1.613 . S
S1575 N1577 1.610 . S
N1576 S1575 1.613 . S
N1576 C1579 1.350 . S
N1577 S1575 1.610 . S
N1577 C1578 1.351 . S
C1578 C1572 1.428 . S
C1578 N1577 1.351 . S
C1578 C1579 1.434 . S
C1579 C1570 1.429 . S
C1579 N1576 1.350 . S
C1579 C1578 1.434 . S
C1580 C1581 1.369 . S
C1580 C1582 1.419 . S
C1580 H1584 0.930 . S
C1581 C1580 1.369 . S
C1581 C1590 1.429 . S
C1582 C1580 1.419 . S
C1582 C1583 1.363 . S
C1582 H1585 0.929 . S
C1583 C1582 1.363 . S
C1583 C1589 1.428 . S
H1584 C1580 0.930 . S
H1585 C1582 0.929 . S
S1586 N1587 1.613 . S
S1586 N1588 1.610 . S
N1587 S1586 1.613 . S
N1587 C1590 1.350 . S
N1588 S1586 1.610 . S
N1588 C1589 1.351 . S
C1589 C1583 1.428 . S
C1589 N1588 1.351 . S
C1589 C1590 1.434 . S
C1590 C1581 1.429 . S
C1590 N1587 1.350 . S
C1590 C1589 1.434 . S
C1591 C1592 1.369 . S
C1591 C1593 1.419 . S
C1591 H1595 0.930 . S
C1592 C1591 1.369 . S
C1592 C1601 1.429 . S
C1593 C1591 1.419 . S
C1593 C1594 1.363 . S
C1593 H1596 0.929 . S
C1594 C1593 1.363 . S
C1594 C1600 1.428 . S
H1595 C1591 0.930 . S
H1596 C1593 0.929 . S
S1597 N1598 1.613 . S
S1597 N1599 1.610 . S
N1598 S1597 1.613 . S
N1598 C1601 1.350 . S
N1599 S1597 1.610 . S
N1599 C1600 1.351 . S
C1600 C1594 1.428 . S
C1600 N1599 1.351 . S
C1600 C1601 1.434 . S
C1601 C1592 1.429 . S
C1601 N1598 1.350 . S
C1601 C1600 1.434 . S
C1602 C1603 1.369 . S
C1602 C1604 1.419 . S
C1602 H1606 0.930 . S
C1603 C1602 1.369 . S
C1603 C1612 1.429 . S
C1604 C1602 1.419 . S
C1604 C1605 1.363 . S
C1604 H1607 0.929 1_655 S
C1605 C1604 1.363 . S
C1605 C1611 1.428 . S
H1606 C1602 0.930 . S
H1607 C1604 0.929 1_455 S
S1608 N1609 1.613 . S
S1608 N1610 1.610 . S
N1609 S1608 1.613 . S
N1609 C1612 1.350 . S
N1610 S1608 1.610 . S
N1610 C1611 1.351 . S
C1611 C1605 1.428 . S
C1611 N1610 1.351 . S
C1611 C1612 1.434 . S
C1612 C1603 1.429 . S
C1612 N1609 1.350 . S
C1612 C1611 1.434 . S
C1613 C1614 1.369 . S
C1613 C1615 1.419 . S
C1613 H1617 0.930 . S
C1614 C1613 1.369 . S
C1614 C1623 1.429 . S
C1615 C1613 1.419 . S
C1615 C1616 1.363 . S
C1615 H1618 0.929 . S
C1616 C1615 1.363 . S
C1616 C1622 1.428 . S
H1617 C1613 0.930 . S
H1618 C1615 0.929 . S
S1619 N1620 1.613 . S
S1619 N1621 1.610 . S
N1620 S1619 1.613 . S
N1620 C1623 1.350 . S
N1621 S1619 1.610 . S
N1621 C1622 1.351 . S
C1622 C1616 1.428 . S
C1622 N1621 1.351 . S
C1622 C1623 1.434 . S
C1623 C1614 1.429 . S
C1623 N1620 1.350 . S
C1623 C1622 1.434 . S
C1624 C1625 1.369 . S
C1624 C1626 1.419 . S
C1624 H1628 0.930 . S
C1625 C1624 1.369 . S
C1625 C1634 1.429 . S
C1626 C1624 1.419 . S
C1626 C1627 1.363 . S
C1626 H1629 0.929 . S
C1627 C1626 1.363 . S
C1627 C1633 1.428 . S
H1628 C1624 0.930 . S
H1629 C1626 0.929 . S
S1630 N1631 1.613 . S
S1630 N1632 1.610 . S
N1631 S1630 1.613 . S
N1631 C1634 1.350 . S
N1632 S1630 1.610 . S
N1632 C1633 1.351 . S
C1633 C1627 1.428 . S
C1633 N1632 1.351 . S
C1633 C1634 1.434 . S
C1634 C1625 1.429 . S
C1634 N1631 1.350 . S
C1634 C1633 1.434 . S
C1635 C1636 1.369 . S
C1635 C1637 1.419 . S
C1635 H1639 0.930 . S
C1636 C1635 1.369 . S
C1636 C1645 1.429 . S
C1637 C1635 1.419 . S
C1637 C1638 1.363 . S
C1637 H1640 0.929 . S
C1638 C1637 1.363 . S
C1638 C1644 1.428 . S
H1639 C1635 0.930 . S
H1640 C1637 0.929 . S
S1641 N1642 1.613 . S
S1641 N1643 1.610 1_565 S
N1642 S1641 1.613 . S
N1642 C1645 1.350 . S
N1643 S1641 1.610 1_545 S
N1643 C1644 1.351 1_545 S
C1644 C1638 1.428 . S
C1644 N1643 1.351 1_565 S
C1644 C1645 1.434 . S
C1645 C1636 1.429 . S
C1645 N1642 1.350 . S
C1645 C1644 1.434 . S
C1646 C1647 1.369 . S
C1646 C1648 1.419 . S
C1646 H1650 0.930 . S
C1647 C1646 1.369 . S
C1647 C1656 1.429 . S
C1648 C1646 1.419 . S
C1648 C1649 1.363 . S
C1648 H1651 0.929 . S
C1649 C1648 1.363 . S
C1649 C1655 1.428 . S
H1650 C1646 0.930 . S
H1651 C1648 0.929 . S
S1652 N1653 1.613 . S
S1652 N1654 1.610 . S
N1653 S1652 1.613 . S
N1653 C1656 1.350 . S
N1654 S1652 1.610 . S
N1654 C1655 1.351 . S
C1655 C1649 1.428 . S
C1655 N1654 1.351 . S
C1655 C1656 1.434 . S
C1656 C1647 1.429 . S
C1656 N1653 1.350 . S
C1656 C1655 1.434 . S
C1657 C1658 1.380 . S
C1657 C1659 1.419 . S
C1657 H1661 0.930 . S
C1658 C1657 1.380 . S
C1658 C1667 1.409 1_556 S
C1659 C1657 1.419 . S
C1659 C1660 1.363 1_556 S
C1659 H1662 0.929 . S
C1660 C1659 1.363 1_554 S
C1660 C1666 1.428 . S
H1661 C1657 0.930 . S
H1662 C1659 0.929 . S
S1663 N1664 1.613 . S
S1663 N1665 1.610 . S
N1664 S1663 1.613 . S
N1664 C1667 1.350 . S
N1665 S1663 1.610 . S
N1665 C1666 1.351 . S
C1666 C1660 1.428 . S
C1666 N1665 1.351 . S
C1666 C1667 1.434 . S
C1667 C1658 1.409 1_554 S
C1667 N1664 1.350 . S
C1667 C1666 1.434 . S
C1668 C1669 1.369 . S
C1668 C1670 1.419 . S
C1668 H1672 0.930 . S
C1669 C1668 1.369 . S
C1669 C1678 1.429 . S
C1670 C1668 1.419 . S
C1670 C1671 1.363 . S
C1670 H1673 0.929 . S
C1671 C1670 1.363 . S
C1671 C1677 1.428 . S
H1672 C1668 0.930 . S
H1673 C1670 0.929 . S
S1674 N1675 1.613 . S
S1674 N1676 1.610 . S
N1675 S1674 1.613 . S
N1675 C1678 1.350 . S
N1676 S1674 1.610 . S
N1676 C1677 1.351 . S
C1677 C1671 1.428 . S
C1677 N1676 1.351 . S
C1677 C1678 1.434 . S
C1678 C1669 1.429 . S
C1678 N1675 1.350 . S
C1678 C1677 1.434 . S
C1679 C1680 1.369 . S
C1679 C1681 1.419 . S
C1679 H1683 0.930 . S
C1680 C1679 1.369 . S
C1680 C1689 1.429 . S
C1681 C1679 1.419 . S
C1681 C1682 1.364 . S
C1681 H1684 0.929 . S
C1682 C1681 1.364 . S
C1682 C1688 1.428 1_554 S
H1683 C1679 0.930 . S
H1684 C1681 0.929 . S
S1685 N1686 1.613 1_556 S
S1685 N1687 1.610 . S
N1686 S1685 1.613 1_554 S
N1686 C1689 1.350 . S
N1687 S1685 1.610 . S
N1687 C1688 1.351 . S
C1688 C1682 1.428 1_556 S
C1688 N1687 1.351 . S
C1688 C1689 1.434 1_556 S
C1689 C1680 1.429 . S
C1689 N1686 1.350 . S
C1689 C1688 1.434 1_554 S
C1690 C1691 1.369 . S
C1690 C1692 1.419 . S
C1690 H1694 0.930 . S
C1691 C1690 1.369 . S
C1691 C1700 1.429 . S
C1692 C1690 1.419 . S
C1692 C1693 1.363 . S
C1692 H1695 0.929 . S
C1693 C1692 1.363 . S
C1693 C1699 1.428 . S
H1694 C1690 0.930 . S
H1695 C1692 0.929 . S
S1696 N1697 1.613 . S
S1696 N1698 1.610 . S
N1697 S1696 1.613 . S
N1697 C1700 1.350 . S
N1698 S1696 1.610 . S
N1698 C1699 1.351 . S
C1699 C1693 1.428 . S
C1699 N1698 1.351 . S
C1699 C1700 1.434 . S
C1700 C1691 1.429 . S
C1700 N1697 1.350 . S
C1700 C1699 1.434 . S
C1701 C1702 1.369 . S
C1701 C1703 1.419 . S
C1701 H1705 0.930 . S
C1702 C1701 1.369 . S
C1702 C1711 1.429 . S
C1703 C1701 1.419 . S
C1703 C1704 1.363 . S
C1703 H1706 0.929 . S
C1704 C1703 1.363 . S
C1704 C1710 1.428 . S
H1705 C1701 0.930 . S
H1706 C1703 0.929 . S
S1707 N1708 1.613 . S
S1707 N1709 1.610 . S
N1708 S1707 1.613 . S
N1708 C1711 1.350 . S
N1709 S1707 1.610 . S
N1709 C1710 1.351 . S
C1710 C1704 1.428 . S
C1710 N1709 1.351 . S
C1710 C1711 1.434 . S
C1711 C1702 1.429 . S
C1711 N1708 1.350 . S
C1711 C1710 1.434 . S
C657 C105 1.329 . S
C659 C352 1.328 1_556 S
C668 C65 1.456 . S
C670 C365 1.428 . S
C679 C73 1.466 . S
C681 C384 1.453 . S
C692 C415 1.849 . S
C690 C92 1.886 . S
C701 C17 1.736 . S
C703 C435 1.701 . S
C714 C452 1.053 . S
C712 C37 1.070 . S
C725 C465 1.511 . S
C723 C49 1.459 . S
C734 C8 1.202 . S
C736 C492 1.169 . S
C747 C345 1.350 . S
C745 C231 1.303 . S
C756 C241 1.579 . S
C758 C375 1.555 . S
C769 C377 1.683 . S
C767 C273 1.674 . S
C780 C412 0.982 . S
C778 C171 0.997 . S
C789 C227 1.240 . S
C791 C432 1.226 . S
C802 C445 1.766 . S
C800 C245 1.684 . S
C813 C475 1.421 . S
C811 C269 1.452 . S
C824 C485 1.261 . S
C822 C175 1.279 . S
C835 C355 1.664 1_565 S
C833 C162 1.664 . S
C844 C289 1.721 . S
C846 C505 1.712 1_556 S
C857 C535 1.682 . S
C855 C330 1.662 . S
C868 C552 1.282 . S
C866 C317 1.310 . S
C877 C120 1.850 . S
C879 C495 1.888 . S
C888 C134 1.385 . S
C890 C382 1.318 . S
C899 C331 1.767 . S
C901 C565 1.767 . S
C912 C592 1.162 . S
C910 C303 1.228 . S
C923 C342 1.332 . S
C921 C59 1.389 . S
C934 C577 1.448 . S
C932 C107 1.467 . S
C943 C91 1.425 . S
C945 C395 1.475 . S
C954 C78 1.920 . S
C956 C564 1.867 . S
C967 C424 1.729 . S
C965 C7 1.720 . S
C976 C51 1.078 . S
C978 C522 1.055 . S
C989 C457 1.513 1_556 S
C987 C31 1.523 . S
C1000 C602 1.160 . S
C998 C22 1.201 . S
C1011 C337 1.353 . S
C1009 C143 1.377 . S
C1022 C584 1.581 . S
C1020 C315 1.524 . S
C1031 C115 1.771 . S
C1033 C385 1.698 . S
C1042 C287 1.000 . S
C1044 C562 1.012 . S
C1053 C147 1.210 . S
C1055 C422 1.257 . S
C1066 C517 1.778 . S
C1064 C311 1.774 . S
C1075 C119 1.404 . S
C1077 C464 1.440 . S
C1086 C283 1.308 . S
C1088 C597 1.274 . S
C1097 C190 1.681 . S
C1099 C344 1.675 . S
C1108 C177 1.732 . S
C1110 C497 1.733 . S
C1119 C260 1.662 . S
C1121 C444 1.695 . S
C1130 C247 1.338 . S
C1132 C542 1.307 . S
C1143 C604 1.889 . S
C1141 C274 1.867 . S
C1152 C218 1.373 . S
C1154 C392 1.324 . S
C1165 C397 1.786 . S
C1163 C261 1.779 . S
C1176 C362 1.185 . S
C1174 C205 1.240 . S
C1185 C77 1.323 . S
C1187 C632 1.334 . S
C1198 C585 1.431 . S
C1196 C93 1.454 . S
C1207 C101 1.465 . S
C1209 C644 1.451 1_455 S
C1218 C64 1.888 . S
C1220 C575 1.849 . S
C1229 C45 1.736 . S
C1231 C515 1.705 . S
C1242 C532 1.047 . S
C1240 C9 1.069 . S
C1253 C545 1.511 1_655 S
C1251 C21 1.463 . S
C1264 C612 1.162 . S
C1262 C36 1.211 . S
C1275 C625 1.346 . S
C1273 C259 1.305 . S
C1284 C185 1.581 . S
C1286 C595 1.554 . S
C1297 C637 1.685 . S
C1295 C203 1.668 . S
C1308 C572 0.983 . S
C1306 C213 0.996 . S
C1319 C512 1.228 . S
C1317 C255 1.240 . S
C1328 C189 1.689 . S
C1330 C525 1.768 . S
C1341 C555 1.425 . S
C1339 C199 1.448 . S
C1350 C217 1.272 . S
C1352 C605 1.261 . S
C1363 C635 1.663 . S
C1361 C316 1.664 . S
C1372 C135 1.721 . S
C1374 C425 1.716 . S
C1385 C455 1.683 . S
C1383 C148 1.668 . S
C1396 C472 1.284 1_565 S
C1394 C163 1.313 . S
C1407 C615 1.890 . S
C1405 C302 1.856 . S
C1416 C288 1.384 . S
C1418 C642 1.316 . S
C1429 C405 1.767 . S
C1427 C149 1.763 . S
C1440 C372 1.171 . S
C1438 C121 1.227 . S
C1449 C87 1.393 . S
C1451 C622 1.329 . S
C1462 C357 1.450 . S
C1460 C79 1.470 . S
C1471 C63 1.420 . S
C1473 C655 1.474 . S
C1482 C106 1.920 . S
C1484 C404 1.867 . S
C1493 C35 1.719 . S
C1495 C504 1.728 1_556 S
C1506 C442 1.063 . S
C1504 C23 1.081 . S
C1515 C3 1.525 . S
C1517 C537 1.519 . S
C1526 C50 1.194 . S
C1528 C482 1.166 . S
C1539 C617 1.355 . S
C1537 C325 1.374 . S
C1548 C161 1.528 . S
C1550 C364 1.586 . S
C1561 C645 1.702 . S
C1559 C297 1.771 . S
C1570 C133 0.988 . S
C1572 C402 1.017 . S
C1581 C329 1.205 . S
C1583 C502 1.255 . S
C1594 C437 1.776 . S
C1592 C157 1.772 . S
C1603 C301 1.405 . S
C1605 C544 1.447 . S
C1616 C477 1.266 . S
C1614 C129 1.310 . S
C1627 C624 1.672 . S
C1625 C246 1.678 . S
C1638 C417 1.732 1_565 S
C1636 C219 1.733 . S
C1647 C232 1.663 . S
C1649 C524 1.698 . S
C1660 C462 1.311 . S
C1658 C191 1.345 . S
C1669 C204 1.871 . S
C1671 C484 1.891 . S
C1680 C176 1.370 . S
C1682 C652 1.333 1_554 S
C1693 C557 1.783 . S
C1691 C233 1.777 . S
C1704 C582 1.181 . S
C1702 C275 1.239 . S
